# Generated by pormake.
# Topology rtl, (3,6)-cn, num edge types: 1
# Building blocks:
#     Node 0, Type 0, BuildingBlock: WUSLED_clean_sbu_0, # of connection points: 3
#     Node 1, Type 0, BuildingBlock: WUSLED_clean_sbu_0, # of connection points: 3
#     Node 2, Type 0, BuildingBlock: WUSLED_clean_sbu_0, # of connection points: 3
#     Node 3, Type 0, BuildingBlock: WUSLED_clean_sbu_0, # of connection points: 3
#     Node 4, Type 1, BuildingBlock: CIFDUS_clean_sbu_1, # of connection points: 6
#     Node 5, Type 1, BuildingBlock: CIFDUS_clean_sbu_1, # of connection points: 6
#     Edge 6, Type (0, 1), BuildingBlock: FUNLAD_clean_linker_1, # of connection points: 2
#     Edge 7, Type (0, 1), BuildingBlock: FUNLAD_clean_linker_1, # of connection points: 2
#     Edge 8, Type (0, 1), BuildingBlock: FUNLAD_clean_linker_1, # of connection points: 2
#     Edge 9, Type (0, 1), BuildingBlock: FUNLAD_clean_linker_1, # of connection points: 2
#     Edge 10, Type (0, 1), BuildingBlock: FUNLAD_clean_linker_1, # of connection points: 2
#     Edge 11, Type (0, 1), BuildingBlock: FUNLAD_clean_linker_1, # of connection points: 2
#     Edge 12, Type (0, 1), BuildingBlock: FUNLAD_clean_linker_1, # of connection points: 2
#     Edge 13, Type (0, 1), BuildingBlock: FUNLAD_clean_linker_1, # of connection points: 2
#     Edge 14, Type (0, 1), BuildingBlock: FUNLAD_clean_linker_1, # of connection points: 2
#     Edge 15, Type (0, 1), BuildingBlock: FUNLAD_clean_linker_1, # of connection points: 2
#     Edge 16, Type (0, 1), BuildingBlock: FUNLAD_clean_linker_1, # of connection points: 2
#     Edge 17, Type (0, 1), BuildingBlock: FUNLAD_clean_linker_1, # of connection points: 2
# Relax obj value: 0.026
# Max RMSD: 0.062
# Mean RMSD: 0.045
data_MOF--net-rtl--node1-WUSLED_clean_sbu_0--node2-CIFDUS_clean_sbu_1--edge1-FUNLAD_clean_linker_1
_symmetry_space_group_name_H-M    P1
_symmetry_Int_Tables_number       1
_symmetry_cell_setting            triclinic
loop_
_symmetry_equiv_pos_as_xyz
'x, y, z'
_cell_length_a     41.481029
_cell_length_b     46.684578
_cell_length_c     32.095647
_cell_angle_alpha  90.232768
_cell_angle_beta   98.193182
_cell_angle_gamma 89.977598
loop_
_atom_site_label
_atom_site_type_symbol
_atom_site_fract_x
_atom_site_fract_y
_atom_site_fract_z
_atom_type_partial_charge
C0 C 0.19644 0.86692 0.20364 0.0
C1 C 0.16431 0.87672 0.19334 0.0
C2 C 0.166 0.89772 0.26339 0.0
C3 C 0.1492 0.89178 0.22305 0.0
C4 C 0.19843 0.88826 0.27332 0.0
C5 C 0.21344 0.87303 0.24367 0.0
U6 U 0.2097 0.8458 0.09149 0.0
O7 O 0.25546 0.83575 0.06698 0.0
O8 O 0.21686 0.80333 0.06439 0.0
C9 C 0.24694 0.80901 0.05849 0.0
C10 C 0.21236 0.84973 0.17365 0.0
C11 C 0.27186 0.78695 0.07195 0.0
C12 C 0.32244 0.76376 0.0609 0.0
C13 C 0.29968 0.78574 0.05187 0.0
C14 C 0.29051 0.74404 0.11141 0.0
C15 C 0.31792 0.74224 0.09004 0.0
C16 C 0.2677 0.7662 0.1024 0.0
C17 C 0.16131 0.88654 0.99723 0.0
C18 C 0.13835 0.87379 0.92521 0.0
C19 C 0.15404 0.9228 0.94245 0.0
C20 C 0.16402 0.91498 0.98426 0.0
C21 C 0.1407 0.9025 0.91243 0.0
C22 C 0.14853 0.86592 0.96724 0.0
C23 C 0.17043 0.87969 0.04246 0.0
O24 O 0.19369 0.83129 0.15034 0.0
O25 O 0.23208 0.86378 0.15244 0.0
O26 O 0.19997 0.88716 0.05941 0.0
O27 O 0.1614 0.85468 0.05564 0.0
H28 H 0.15073 0.87238 0.16257 0.0
H29 H 0.12418 0.89863 0.21456 0.0
H30 H 0.212 0.89174 0.30428 0.0
H31 H 0.23822 0.86557 0.25227 0.0
H32 H 0.34328 0.76315 0.04402 0.0
H33 H 0.30346 0.80149 0.02832 0.0
H34 H 0.28617 0.72836 0.13463 0.0
H35 H 0.24655 0.76677 0.11865 0.0
H36 H 0.12888 0.8573 0.90305 0.0
H37 H 0.15635 0.94502 0.93368 0.0
H38 H 0.17359 0.93135 1.00671 0.0
H39 H 0.14618 0.84377 0.97623 0.0
C40 C 0.69977 0.68309 0.70802 0.0
C41 C 0.6709 0.66795 0.69477 0.0
C42 C 0.67068 0.64969 0.76595 0.0
C43 C 0.65643 0.65155 0.72354 0.0
C44 C 0.69981 0.6648 0.77895 0.0
C45 C 0.71417 0.68127 0.75019 0.0
U46 U 0.71197 0.70695 0.5967 0.0
O47 O 0.71876 0.7502 0.5724 0.0
O48 O 0.75752 0.71813 0.57255 0.0
C49 C 0.74881 0.745 0.56589 0.0
C50 C 0.71501 0.70117 0.67868 0.0
C51 C 0.7738 0.76705 0.58002 0.0
C52 C 0.82672 0.78767 0.57353 0.0
C53 C 0.80396 0.76557 0.56517 0.0
C54 C 0.79009 0.81302 0.61303 0.0
C55 C 0.81998 0.81193 0.5969 0.0
C56 C 0.76727 0.79079 0.60468 0.0
C57 C 0.66392 0.66875 0.49926 0.0
C58 C 0.67398 0.64501 0.43453 0.0
C59 C 0.62283 0.66947 0.43661 0.0
C60 C 0.63315 0.67717 0.4787 0.0
C61 C 0.64306 0.65298 0.41413 0.0
C62 C 0.68433 0.6528 0.47645 0.0
C63 C 0.67294 0.67406 0.54522 0.0
O64 O 0.73475 0.6879 0.65643 0.0
O65 O 0.69572 0.7196 0.65648 0.0
O66 O 0.66365 0.69853 0.56014 0.0
O67 O 0.70239 0.66638 0.56221 0.0
H68 H 0.65941 0.66903 0.66231 0.0
H69 H 0.63393 0.64033 0.71262 0.0
H70 H 0.71122 0.66468 0.81141 0.0
H71 H 0.73639 0.69293 0.76103 0.0
H72 H 0.84938 0.78615 0.56051 0.0
H73 H 0.80956 0.74767 0.54584 0.0
H74 H 0.78352 0.83135 0.63068 0.0
H75 H 0.74415 0.79266 0.61646 0.0
H76 H 0.69003 0.63215 0.41821 0.0
H77 H 0.59853 0.67549 0.42259 0.0
H78 H 0.61659 0.68898 0.4956 0.0
H79 H 0.70804 0.6456 0.49122 0.0
C80 C 0.83895 0.20282 0.13871 0.0
C81 C 0.84067 0.21456 0.17925 0.0
C82 C 0.87164 0.17324 0.20919 0.0
C83 C 0.85678 0.19995 0.2142 0.0
C84 C 0.86973 0.16158 0.16839 0.0
C85 C 0.85369 0.17626 0.13344 0.0
U86 U 0.81542 0.2154 0.0199 0.0
O87 O 0.76828 0.22757 0.98401 0.0
O88 O 0.81026 0.25622 0.98525 0.0
C89 C 0.77879 0.25279 0.97378 0.0
C90 C 0.8215 0.21851 0.10254 0.0
C91 C 0.75814 0.27733 0.98184 0.0
C92 C 0.72871 0.30476 0.0287 0.0
C93 C 0.74913 0.28188 0.0218 0.0
C94 C 0.72636 0.3191 0.95591 0.0
C95 C 0.71711 0.32371 0.99598 0.0
C96 C 0.74671 0.2961 0.94901 0.0
C97 C 0.8502 0.16577 0.94045 0.0
C98 C 0.86548 0.17524 0.87132 0.0
C99 C 0.85477 0.12658 0.89123 0.0
C100 C 0.84801 0.13649 0.93032 0.0
C101 C 0.86396 0.14587 0.8614 0.0
C102 C 0.85847 0.18515 0.91029 0.0
C103 C 0.84603 0.17517 0.98348 0.0
O104 O 0.83992 0.23298 0.07998 0.0
O105 O 0.79788 0.20447 0.07944 0.0
O106 O 0.81699 0.17148 0.99449 0.0
O107 O 0.85947 0.19975 0.99643 0.0
H108 H 0.82928 0.23499 0.18394 0.0
H109 H 0.8568 0.20945 0.24497 0.0
H110 H 0.88071 0.141 0.1635 0.0
H111 H 0.85263 0.16684 0.10237 0.0
H112 H 0.72198 0.30767 0.05985 0.0
H113 H 0.7577 0.26762 0.04758 0.0
H114 H 0.71753 0.33274 0.92959 0.0
H115 H 0.75329 0.2928 0.91786 0.0
H116 H 0.87267 0.19056 0.84911 0.0
H117 H 0.85414 0.10374 0.88541 0.0
H118 H 0.84196 0.12112 0.95321 0.0
H119 H 0.86032 0.20787 0.91713 0.0
C120 C 0.31782 0.36522 0.39824 0.0
C121 C 0.31492 0.39514 0.39375 0.0
C122 C 0.34594 0.39398 0.33454 0.0
C123 C 0.32883 0.40939 0.36226 0.0
C124 C 0.34912 0.36418 0.33957 0.0
C125 C 0.33506 0.34997 0.37078 0.0
U126 U 0.30447 0.34779 0.5122 0.0
O127 O 0.25884 0.33835 0.53732 0.0
O128 O 0.29768 0.30606 0.54132 0.0
C129 C 0.26764 0.3119 0.54722 0.0
C130 C 0.30218 0.34928 0.42993 0.0
C131 C 0.24284 0.28943 0.53532 0.0
C132 C 0.22356 0.24605 0.49697 0.0
C133 C 0.24619 0.26852 0.50455 0.0
C134 C 0.19355 0.26566 0.54985 0.0
C135 C 0.1971 0.24417 0.52003 0.0
C136 C 0.21609 0.28797 0.55738 0.0
C137 C 0.35343 0.39102 0.60378 0.0
C138 C 0.36224 0.38009 0.67882 0.0
C139 C 0.37525 0.42719 0.65471 0.0
C140 C 0.36503 0.41879 0.61312 0.0
C141 C 0.37424 0.40803 0.68817 0.0
C142 C 0.35192 0.37168 0.63691 0.0
C143 C 0.34378 0.38304 0.55916 0.0
O144 O 0.32102 0.3316 0.45418 0.0
O145 O 0.28202 0.36364 0.45034 0.0
O146 O 0.31402 0.38997 0.54253 0.0
O147 O 0.35272 0.35756 0.54746 0.0
H148 H 0.30189 0.4076 0.4145 0.0
H149 H 0.32653 0.43244 0.3603 0.0
H150 H 0.36232 0.35175 0.31896 0.0
H151 H 0.33755 0.32691 0.37334 0.0
H152 H 0.22759 0.22991 0.47403 0.0
H153 H 0.26666 0.26915 0.48706 0.0
H154 H 0.17355 0.26489 0.56817 0.0
H155 H 0.21302 0.30379 0.58131 0.0
H156 H 0.36059 0.36466 0.70343 0.0
H157 H 0.38416 0.44885 0.66068 0.0
H158 H 0.36638 0.43406 0.58807 0.0
H159 H 0.34287 0.35013 0.63038 0.0
O160 O 0.99024 0.05714 0.50711 0.0
Mn161 Mn 0.00865 0.02707 0.55343 0.0
O162 O 0.95923 0.0329 0.45542 0.0
Mn163 Mn 0.97247 0.99684 0.47435 0.0
O164 O 0.02694 0.99702 0.59982 0.0
O165 O 0.04211 0.05638 0.57695 0.0
Mn166 Mn 0.04497 0.05737 0.63225 0.0
O167 O 0.97542 0.04243 0.59221 0.0
O168 O 0.05819 0.02132 0.65119 0.0
O169 O 0.04198 0.01144 0.51498 0.0
O170 O 0.01313 0.98587 0.46286 0.0
O171 O 0.07425 0.08409 0.61832 0.0
O172 O 1.00433 0.06834 0.64387 0.0
C173 C 0.95332 0.97799 0.52675 0.0
C174 C 0.97083 0.05625 0.47198 0.0
C175 C 0.04642 0.99795 0.63488 0.0
C176 C 0.06395 0.07632 0.57994 0.0
C177 C 0.97734 0.0587 0.62501 0.0
C178 C 0.04012 0.9952 0.48215 0.0
O179 O 0.97522 0.99785 0.52972 0.0
O180 O 0.94317 0.97011 0.48838 0.0
O181 O 0.52651 0.55473 0.10136 0.0
Mn182 Mn 0.50799 0.52554 0.05353 0.0
O183 O 0.55443 0.52893 0.15368 0.0
Mn184 Mn 0.54085 0.49333 0.13239 0.0
O185 O 0.48895 0.49608 1.00605 0.0
O186 O 0.47615 0.5559 0.02937 0.0
Mn187 Mn 0.47566 0.5573 0.97429 0.0
O188 O 0.54318 0.54013 0.01691 0.0
O189 O 0.4618 0.52183 0.95316 0.0
O190 O 0.47299 0.51097 0.09045 0.0
O191 O 0.49943 0.48294 0.14108 0.0
O192 O 0.44654 0.58463 0.98677 0.0
O193 O 0.51704 0.56748 0.96528 0.0
C194 C 0.56201 0.47555 0.08083 0.0
C195 C 0.54458 0.55283 0.13742 0.0
C196 C 0.47109 0.49793 0.96982 0.0
C197 C 0.45481 0.5763 0.02527 0.0
C198 C 0.54308 0.5568 0.98496 0.0
C199 C 0.47331 0.49396 0.12208 0.0
O200 O 0.54008 0.49541 0.07747 0.0
O201 O 0.57026 0.46646 0.11893 0.0
H202 H 0.15822 0.21795 0.54104 0.0
C203 C 0.17389 0.21952 0.51668 0.0
H204 H 0.18662 0.19883 0.46231 0.0
H205 H 0.14782 0.07871 0.53485 0.0
H206 H 0.20496 0.07146 0.52765 0.0
H207 H 0.23747 0.11066 0.50329 0.0
H208 H 0.21325 0.15724 0.48592 0.0
C209 C 0.17152 0.19864 0.4872 0.0
C210 C 0.15033 0.17312 0.49112 0.0
C211 C 0.16473 0.14585 0.49982 0.0
C212 C 0.14613 0.12328 0.51425 0.0
C213 C 0.16121 0.09653 0.52424 0.0
C214 C 0.19381 0.09211 0.52007 0.0
C215 C 0.21211 0.11418 0.50631 0.0
C216 C 0.19791 0.14083 0.49643 0.0
H217 H 0.06556 0.08537 0.51187 0.0
C218 C 0.0761 0.0905 0.54397 0.0
H219 H 0.11042 0.1148 0.5843 0.0
H220 H 0.11311 0.21955 0.46457 0.0
H221 H 0.05518 0.22548 0.46765 0.0
H222 H 0.02344 0.18681 0.49482 0.0
H223 H 0.0493 0.14184 0.51857 0.0
C224 C 0.09965 0.11052 0.55199 0.0
C225 C 0.11335 0.12799 0.52004 0.0
C226 C 0.09783 0.15387 0.50577 0.0
C227 C 0.11629 0.17641 0.49095 0.0
C228 C 0.10027 0.20211 0.47706 0.0
C229 C 0.06708 0.20568 0.47846 0.0
C230 C 0.0492 0.18389 0.49373 0.0
C231 C 0.06431 0.15825 0.50741 0.0
H232 H 0.36215 0.71929 0.07745 0.0
C233 C 0.34159 0.71791 0.09496 0.0
H234 H 0.31714 0.69009 0.13219 0.0
H235 H 0.36768 0.58383 0.03522 0.0
H236 H 0.30888 0.58014 0.01634 0.0
H237 H 0.27246 0.61653 0.04048 0.0
H238 H 0.29443 0.65672 0.08358 0.0
C239 C 0.33786 0.69332 0.11568 0.0
C240 C 0.35903 0.66811 0.10978 0.0
C241 C 0.34557 0.64428 0.08584 0.0
C242 C 0.36653 0.62345 0.07151 0.0
C243 C 0.35268 0.60037 0.04638 0.0
C244 C 0.31907 0.59796 0.03552 0.0
C245 C 0.29857 0.61843 0.04917 0.0
C246 C 0.31151 0.64141 0.07393 0.0
H247 H 0.44367 0.5801 0.09125 0.0
C248 C 0.44011 0.5896 0.06011 0.0
H249 H 0.41778 0.62193 0.02025 0.0
H250 H 0.39186 0.70658 0.16433 0.0
H251 H 0.45053 0.70844 0.18621 0.0
H252 H 0.48682 0.67277 0.15996 0.0
H253 H 0.46468 0.63485 0.11188 0.0
C254 C 0.42119 0.61298 0.05179 0.0
C255 C 0.40076 0.62648 0.08091 0.0
C256 C 0.41396 0.64817 0.1092 0.0
C257 C 0.39304 0.66898 0.12385 0.0
C258 C 0.40683 0.69062 0.15177 0.0
C259 C 0.44036 0.69182 0.16464 0.0
C260 C 0.46081 0.67171 0.14987 0.0
C261 C 0.44788 0.65016 0.12226 0.0
H262 H 0.86208 0.83556 0.57918 0.0
C263 C 0.84352 0.83633 0.59996 0.0
H264 H 0.8245 0.86194 0.64551 0.0
H265 H 0.96712 0.91735 0.60446 0.0
H266 H 0.99249 0.87668 0.64348 0.0
H267 H 0.95895 0.83997 0.67209 0.0
H268 H 0.89976 0.84357 0.66162 0.0
C269 C 0.84249 0.85985 0.6243 0.0
C270 C 0.86328 0.88523 0.61812 0.0
C271 C 0.89777 0.88331 0.62565 0.0
C272 C 0.91716 0.90473 0.60973 0.0
C273 C 0.95141 0.90169 0.61605 0.0
C274 C 0.96621 0.87853 0.63846 0.0
C275 C 0.94731 0.85784 0.65457 0.0
C276 C 0.91345 0.86005 0.64822 0.0
H277 H 0.94804 0.97215 0.5946 0.0
C278 C 0.9404 0.96451 0.56272 0.0
H279 H 0.9111 0.93593 0.52271 0.0
H280 H 0.79833 0.89889 0.60669 0.0
H281 H 0.77378 0.94191 0.57386 0.0
H282 H 0.80769 0.97927 0.54748 0.0
H283 H 0.86657 0.97372 0.55378 0.0
C284 C 0.91884 0.94284 0.55497 0.0
C285 C 0.90199 0.92809 0.58675 0.0
C286 C 0.86795 0.93202 0.58465 0.0
C287 C 0.8485 0.91059 0.60027 0.0
C288 C 0.81434 0.91456 0.5957 0.0
C289 C 0.79992 0.93916 0.5769 0.0
C290 C 0.81901 0.96019 0.562 0.0
C291 C 0.85265 0.95672 0.56561 0.0
H292 H 0.68417 0.34568 0.03403 0.0
C293 C 0.6949 0.34734 1.0051 0.0
H294 H 0.69857 0.374 0.95252 0.0
H295 H 0.56577 0.43858 0.97088 0.0
H296 H 0.55625 0.42186 0.89853 0.0
H297 H 0.59608 0.39068 0.87028 0.0
H298 H 0.64673 0.37738 0.91361 0.0
C299 C 0.6884 0.37109 0.9815 0.0
C300 C 0.66688 0.39409 0.99495 0.0
C301 C 0.63731 0.40146 0.96924 0.0
C302 C 0.61392 0.41903 0.98574 0.0
C303 C 0.58436 0.42551 0.95986 0.0
C304 C 0.57846 0.4158 0.91839 0.0
C305 C 0.60103 0.39842 0.9024 0.0
C306 C 0.63002 0.39099 0.92755 0.0
H307 H 0.58157 0.47842 0.0198 0.0
C308 C 0.57867 0.46463 0.04619 0.0
H309 H 0.59022 0.42597 0.0781 0.0
H310 H 0.72547 0.39264 0.04644 0.0
H311 H 0.73798 0.41466 0.11549 0.0
H312 H 0.69687 0.44368 0.14501 0.0
H313 H 0.64316 0.45112 0.10538 0.0
C314 C 0.59357 0.43894 0.05095 0.0
C315 C 0.62027 0.42908 0.0278 0.0
C316 C 0.65157 0.42491 0.05122 0.0
C317 C 0.67503 0.40773 0.03461 0.0
C318 C 0.70633 0.40457 0.05832 0.0
C319 C 0.71394 0.41734 0.0978 0.0
C320 C 0.69081 0.4337 0.1144 0.0
C321 C 0.66 0.4376 0.09148 0.0
H322 H 0.12167 0.91127 0.28919 0.0
C323 C 0.14816 0.91201 0.29488 0.0
H324 H 0.18875 0.92864 0.33556 0.0
H325 H 0.09334 0.01935 0.40651 0.0
H326 H 0.12329 0.05057 0.36549 0.0
H327 H 0.16269 0.03072 0.32226 0.0
H328 H 0.17222 0.97943 0.31959 0.0
C329 C 0.16256 0.92568 0.3297 0.0
C330 C 0.14256 0.93803 0.36053 0.0
C331 C 0.13807 0.96807 0.36289 0.0
C332 C 0.11554 0.97955 0.38819 0.0
C333 C 0.1104 0.00952 0.38831 0.0
C334 C 0.12741 0.02768 0.36484 0.0
C335 C 0.14959 0.0165 0.34049 0.0
C336 C 0.15486 0.98705 0.33925 0.0
H337 H 0.09382 0.99352 0.48208 0.0
C338 C 0.07036 0.9869 0.46534 0.0
H339 H 0.0455 0.96419 0.41335 0.0
H340 H 0.15012 0.88004 0.36929 0.0
H341 H 0.12189 0.84894 0.4126 0.0
H342 H 0.08265 0.86874 0.45609 0.0
H343 H 0.07153 0.91982 0.45671 0.0
C344 C 0.06891 0.97137 0.42957 0.0
C345 C 0.09793 0.96092 0.41151 0.0
C346 C 0.10438 0.93109 0.41165 0.0
C347 C 0.12679 0.91965 0.38632 0.0
C348 C 0.13284 0.88978 0.38731 0.0
C349 C 0.11694 0.87172 0.41221 0.0
C350 C 0.09486 0.88287 0.4367 0.0
C351 C 0.08858 0.91218 0.4366 0.0
H352 H 0.62777 0.62856 0.78621 0.0
C353 C 0.65347 0.63314 0.79585 0.0
H354 H 0.69322 0.6272 0.84446 0.0
H355 H 0.60117 0.6175 0.98582 0.0
H356 H 0.63181 0.66076 1.00691 0.0
H357 H 0.67031 0.6807 0.96271 0.0
H358 H 0.67837 0.65763 0.89714 0.0
C359 C 0.66759 0.62347 0.83367 0.0
C360 C 0.64797 0.60907 0.86319 0.0
C361 C 0.64421 0.62244 0.90201 0.0
C362 C 0.62195 0.61097 0.92756 0.0
C363 C 0.61776 0.62532 0.96534 0.0
C364 C 0.63521 0.65013 0.97781 0.0
C365 C 0.65691 0.66135 0.95293 0.0
C366 C 0.66135 0.64784 0.91537 0.0
H367 H 0.59699 0.55587 0.98608 0.0
C368 C 0.57414 0.56366 0.96914 0.0
H369 H 0.55111 0.58603 0.91585 0.0
H370 H 0.65518 0.57437 0.79619 0.0
H371 H 0.62597 0.53013 0.77672 0.0
H372 H 0.58631 0.5111 0.82002 0.0
H373 H 0.57588 0.53606 0.88338 0.0
C374 C 0.57402 0.57898 0.93352 0.0
C375 C 0.60362 0.58614 0.91434 0.0
C376 C 0.60949 0.57143 0.87747 0.0
C377 C 0.63191 0.58271 0.85208 0.0
C378 C 0.63769 0.56721 0.81588 0.0
C379 C 0.62127 0.54169 0.80454 0.0
C380 C 0.59895 0.53096 0.82894 0.0
C381 C 0.59307 0.54554 0.86505 0.0
H382 H 0.89171 0.13357 0.24043 0.0
C383 C 0.88803 0.15631 0.24556 0.0
H384 H 0.89614 0.18994 0.2905 0.0
H385 H 0.89962 0.10641 0.44652 0.0
H386 H 0.85103 0.13447 0.45176 0.0
H387 H 0.83061 0.16936 0.39674 0.0
H388 H 0.85852 0.17642 0.3361 0.0
C389 C 0.89892 0.16735 0.28393 0.0
C390 C 0.91347 0.14864 0.31944 0.0
C391 C 0.89724 0.14525 0.35519 0.0
C392 C 0.90897 0.12506 0.38697 0.0
C393 C 0.89173 0.12145 0.42158 0.0
C394 C 0.86385 0.13742 0.42498 0.0
C395 C 0.85236 0.15709 0.394 0.0
C396 C 0.86867 0.16097 0.35938 0.0
H397 H 0.97133 0.10349 0.46219 0.0
C398 C 0.96229 0.0832 0.4485 0.0
H399 H 0.93626 0.06229 0.39549 0.0
H400 H 0.95446 0.15434 0.26022 0.0
H401 H 1.00389 0.12723 0.25634 0.0
H402 H 0.02315 0.09122 0.31027 0.0
H403 H 0.99325 0.08235 0.36875 0.0
C404 C 0.94453 0.0826 0.40984 0.0
C405 C 0.93691 0.10837 0.38304 0.0
C406 C 0.95446 0.11326 0.34896 0.0
C407 C 0.94297 0.13362 0.31738 0.0
C408 C 0.96151 0.1385 0.28431 0.0
C409 C 0.99006 0.12324 0.28189 0.0
C410 C 1.00092 0.10298 0.31228 0.0
C411 C 0.98347 0.098 0.34554 0.0
H412 H 0.39227 0.44124 0.73493 0.0
C413 C 0.38566 0.41869 0.73176 0.0
H414 H 0.38404 0.38012 0.76628 0.0
H415 H 0.49056 0.4285 0.91287 0.0
H416 H 0.516 0.38486 0.89182 0.0
H417 H 0.49013 0.35612 0.83178 0.0
H418 H 0.43794 0.37002 0.79313 0.0
C419 C 0.38891 0.40293 0.76728 0.0
C420 C 0.40145 0.41655 0.80881 0.0
C421 C 0.43186 0.40804 0.83137 0.0
C422 C 0.447 0.42488 0.86597 0.0
C423 C 0.47785 0.41641 0.8868 0.0
C424 C 0.49285 0.39157 0.87484 0.0
C425 C 0.47818 0.37525 0.8411 0.0
C426 C 0.4482 0.38344 0.81923 0.0
H427 H 0.4582 0.45156 0.96283 0.0
C428 C 0.45979 0.47153 0.94601 0.0
H429 H 0.45163 0.4932 0.88809 0.0
H430 H 0.33903 0.43347 0.78098 0.0
H431 H 0.31065 0.47389 0.80681 0.0
H432 H 0.33709 0.50361 0.86571 0.0
H433 H 0.39196 0.49292 0.89935 0.0
C434 C 0.4499 0.47289 0.9041 0.0
C435 C 0.43146 0.45006 0.87801 0.0
C436 C 0.39931 0.45637 0.85876 0.0
C437 C 0.38421 0.43951 0.82443 0.0
C438 C 0.35196 0.44616 0.80629 0.0
C439 C 0.3353 0.46913 0.82106 0.0
C440 C 0.35018 0.48585 0.85423 0.0
C441 C 0.38176 0.47961 0.87305 0.0
H442 H 0.64498 0.62311 0.36089 0.0
C443 C 0.6321 0.64166 0.37085 0.0
H444 H 0.59404 0.67117 0.35197 0.0
H445 H 0.62461 0.59823 0.17993 0.0
H446 H 0.6773 0.62205 0.19017 0.0
H447 H 0.69267 0.65435 0.2508 0.0
H448 H 0.65572 0.66274 0.30188 0.0
C449 C 0.6074 0.65255 0.34358 0.0
C450 C 0.59604 0.63791 0.30247 0.0
C451 C 0.61742 0.63411 0.27204 0.0
C452 C 0.60826 0.61601 0.23649 0.0
C453 C 0.63048 0.61176 0.20743 0.0
C454 C 0.66066 0.6254 0.21284 0.0
C455 C 0.66933 0.64357 0.24701 0.0
C456 C 0.64803 0.64802 0.27628 0.0
H457 H 0.54205 0.59947 0.15174 0.0
C458 C 0.5528 0.57918 0.16287 0.0
H459 H 0.58271 0.55764 0.21183 0.0
H460 H 0.54711 0.64413 0.3509 0.0
H461 H 0.4933 0.62286 0.33777 0.0
H462 H 0.4773 0.59212 0.27557 0.0
H463 H 0.51503 0.58253 0.22601 0.0
C464 C 0.57155 0.57779 0.20081 0.0
C465 C 0.57746 0.60236 0.2307 0.0
C466 C 0.55486 0.60843 0.25879 0.0
C467 C 0.56413 0.62624 0.29469 0.0
C468 C 0.54139 0.63101 0.32298 0.0
C469 C 0.51039 0.61888 0.31586 0.0
C470 C 0.50138 0.60156 0.28085 0.0
C471 C 0.52329 0.59622 0.25266 0.0
H472 H 0.89165 0.14992 0.80772 0.0
C473 C 0.87505 0.136 0.82155 0.0
H474 H 0.84971 0.09653 0.81496 0.0
H475 H 0.91289 0.12032 0.63574 0.0
H476 H 0.87506 0.16034 0.6247 0.0
H477 H 0.83949 0.17251 0.67763 0.0
H478 H 0.84179 0.14505 0.74216 0.0
C479 C 0.86657 0.11079 0.80243 0.0
C480 C 0.88279 0.10037 0.76647 0.0
C481 C 0.88026 0.11599 0.72826 0.0
C482 C 0.9002 0.10856 0.69723 0.0
C483 C 0.89816 0.12511 0.66014 0.0
C484 C 0.8765 0.148 0.65339 0.0
C485 C 0.85649 0.15488 0.68323 0.0
C486 C 0.8582 0.1391 0.72025 0.0
H487 H 0.92489 0.05426 0.63187 0.0
C488 C 0.94751 0.06503 0.64403 0.0
H489 H 0.97157 0.09276 0.69071 0.0
H490 H 0.8902 0.06314 0.83312 0.0
H491 H 0.92502 0.02125 0.84123 0.0
H492 H 0.95851 1.00789 0.78652 0.0
H493 H 0.95738 0.03647 0.72331 0.0
C494 C 0.94893 0.08212 0.67823 0.0
C495 C 0.922 0.08517 0.70397 0.0
C496 C 0.9221 0.06784 0.74012 0.0
C497 C 0.90252 0.07543 0.77146 0.0
C498 C 0.90421 0.05828 0.80803 0.0
C499 C 0.92417 0.03416 0.81315 0.0
C500 C 0.94305 0.02665 0.78238 0.0
C501 C 0.94223 0.04328 0.74631 0.0
H502 H 0.38104 0.39614 0.28882 0.0
C503 C 0.36185 0.40802 0.30109 0.0
H504 H 0.33437 0.44648 0.29519 0.0
H505 H 0.44796 0.51457 0.22493 0.0
H506 H 0.44533 0.53913 0.29129 0.0
H507 H 0.40895 0.52177 0.34024 0.0
H508 H 0.37498 0.47984 0.32326 0.0
C509 C 0.35356 0.43391 0.28435 0.0
C510 C 0.37187 0.44677 0.2521 0.0
C511 C 0.39104 0.47166 0.26219 0.0
C512 C 0.41226 0.48154 0.23415 0.0
C513 C 0.43171 0.50605 0.24539 0.0
C514 C 0.43035 0.52037 0.28325 0.0
C515 C 0.40983 0.51062 0.31079 0.0
C516 C 0.39042 0.48652 0.30062 0.0
H517 H 0.41989 0.49719 0.12431 0.0
C518 C 0.44257 0.48771 0.13911 0.0
H519 H 0.46582 0.46271 0.18949 0.0
H520 H 0.33285 0.40278 0.21855 0.0
H521 H 0.33448 0.37927 0.15121 0.0
H522 H 0.3728 0.39535 0.10394 0.0
H523 H 0.40944 0.43535 0.12346 0.0
C524 C 0.443 0.47156 0.174 0.0
C525 C 0.41432 0.46658 0.19612 0.0
C526 C 0.39313 0.44326 0.18433 0.0
C527 C 0.37161 0.43352 0.21213 0.0
C528 C 0.35034 0.41045 0.19922 0.0
C529 C 0.35089 0.39691 0.16055 0.0
C530 C 0.37245 0.40599 0.1339 0.0
C531 C 0.39339 0.42889 0.1455 0.0
H532 H 0.13736 0.93403 0.86082 0.0
C533 C 0.13001 0.91253 0.8685 0.0
H534 H 0.10115 0.87694 0.84487 0.0
H535 H 0.01441 0.9576 0.71362 0.0
H536 H 0.97487 0.94001 0.75607 0.0
H537 H 0.99173 0.90885 0.8172 0.0
H538 H 0.04834 0.89522 0.83636 0.0
C539 C 0.11078 0.89777 0.83838 0.0
C540 C 0.09955 0.9113 0.79658 0.0
C541 C 0.06618 0.91824 0.7849 0.0
C542 C 0.05639 0.93611 0.7494 0.0
C543 C 0.02318 0.9439 0.73985 0.0
C544 C 1.0002 0.93396 0.76402 0.0
C545 C 0.00969 0.91642 0.79845 0.0
C546 C 0.04228 0.90873 0.80907 0.0
H547 H 0.04401 0.95097 0.64648 0.0
C548 C 0.05432 0.97115 0.65904 0.0
H549 H 0.08341 0.99204 0.70956 0.0
H550 H 0.16369 0.89591 0.80373 0.0
H551 H 0.20288 0.91155 0.75905 0.0
H552 H 0.18616 0.94326 0.69849 0.0
H553 H 0.13003 0.95931 0.68197 0.0
C554 C 0.07255 0.97197 0.69741 0.0
C555 C 0.08 0.94673 0.72545 0.0
C556 C 0.11271 0.93735 0.73464 0.0
C557 C 0.12246 0.91943 0.76994 0.0
C558 C 0.15525 0.91018 0.77799 0.0
C559 C 0.1779 0.91882 0.75242 0.0
C560 C 0.16848 0.93666 0.7183 0.0
C561 C 0.13628 0.94585 0.70931 0.0
loop_
_geom_bond_atom_site_label_1
_geom_bond_atom_site_label_2
_geom_bond_distance
_geom_bond_site_symmetry_2
_ccdc_geom_bond_type
C0 C1 1.264 . S
C0 C5 1.479 . S
C0 C10 1.465 . S
C1 C0 1.264 . S
C1 C3 1.339 . S
C1 H28 0.931 . S
C2 C3 1.395 . S
C2 C4 1.320 . S
C3 C1 1.339 . S
C3 C2 1.395 . S
C3 H29 0.929 . S
C4 C2 1.320 . S
C4 C5 1.405 . S
C4 H30 0.930 . S
C5 C0 1.479 . S
C5 C4 1.405 . S
C5 H31 0.931 . S
U6 O7 2.454 . S
U6 O8 2.458 . S
U6 C9 2.984 . S
U6 C10 2.847 . S
U6 C23 2.882 . S
U6 O24 2.441 . S
U6 O25 2.420 . S
U6 O26 2.455 . S
U6 O27 2.449 . S
O7 U6 2.454 . S
O7 C9 1.353 . S
O8 U6 2.458 . S
O8 C9 1.286 . S
C9 U6 2.984 . S
C9 O7 1.353 . S
C9 O8 1.286 . S
C9 C11 1.363 . S
C10 C0 1.465 . S
C10 U6 2.847 . S
C10 O24 1.249 . S
C10 O25 1.202 . S
C11 C9 1.363 . S
C11 C13 1.408 . S
C11 C16 1.342 . S
C12 C13 1.310 . S
C12 C15 1.461 . S
C12 H32 0.932 . S
C13 C11 1.408 . S
C13 C12 1.310 . S
C13 H33 0.930 . S
C14 C15 1.474 . S
C14 C16 1.285 . S
C14 H34 0.929 . S
C15 C12 1.461 . S
C15 C14 1.474 . S
C16 C11 1.342 . S
C16 C14 1.285 . S
C16 H35 0.930 . S
C17 C20 1.424 . S
C17 C22 1.245 . S
C17 C23 1.428 1_556 S
C18 C21 1.260 . S
C18 C22 1.477 . S
C18 H36 0.932 . S
C19 C20 1.384 . S
C19 C21 1.479 . S
C19 H37 0.929 . S
C20 C17 1.424 . S
C20 C19 1.384 . S
C20 H38 0.928 1_556 S
C21 C18 1.260 . S
C21 C19 1.479 . S
C22 C17 1.245 . S
C22 C18 1.477 . S
C22 H39 0.932 . S
C23 U6 2.882 . S
C23 C17 1.428 1_554 S
C23 O26 1.301 . S
C23 O27 1.282 . S
O24 U6 2.441 . S
O24 C10 1.249 . S
O25 U6 2.420 . S
O25 C10 1.202 . S
O26 U6 2.455 . S
O26 C23 1.301 . S
O27 U6 2.449 . S
O27 C23 1.282 . S
H28 C1 0.931 . S
H29 C3 0.929 . S
H30 C4 0.930 . S
H31 C5 0.931 . S
H32 C12 0.932 . S
H33 C13 0.930 . S
H34 C14 0.929 . S
H35 C16 0.930 . S
H36 C18 0.932 . S
H37 C19 0.929 . S
H38 C20 0.928 1_554 S
H39 C22 0.932 . S
C40 C41 1.264 . S
C40 C45 1.479 . S
C40 C50 1.465 . S
C41 C40 1.264 . S
C41 C43 1.339 . S
C41 H68 0.931 . S
C42 C43 1.395 . S
C42 C44 1.320 . S
C43 C41 1.339 . S
C43 C42 1.395 . S
C43 H69 0.929 . S
C44 C42 1.320 . S
C44 C45 1.405 . S
C44 H70 0.930 . S
C45 C40 1.479 . S
C45 C44 1.405 . S
C45 H71 0.931 . S
U46 O47 2.454 . S
U46 O48 2.458 . S
U46 C49 2.984 . S
U46 C50 2.847 . S
U46 C63 2.882 . S
U46 O64 2.441 . S
U46 O65 2.420 . S
U46 O66 2.455 . S
U46 O67 2.449 . S
O47 U46 2.454 . S
O47 C49 1.353 . S
O48 U46 2.458 . S
O48 C49 1.286 . S
C49 U46 2.984 . S
C49 O47 1.353 . S
C49 O48 1.286 . S
C49 C51 1.363 . S
C50 C40 1.465 . S
C50 U46 2.847 . S
C50 O64 1.249 . S
C50 O65 1.202 . S
C51 C49 1.363 . S
C51 C53 1.408 . S
C51 C56 1.342 . S
C52 C53 1.310 . S
C52 C55 1.461 . S
C52 H72 0.932 . S
C53 C51 1.408 . S
C53 C52 1.310 . S
C53 H73 0.930 . S
C54 C55 1.474 . S
C54 C56 1.285 . S
C54 H74 0.929 . S
C55 C52 1.461 . S
C55 C54 1.474 . S
C56 C51 1.342 . S
C56 C54 1.285 . S
C56 H75 0.930 . S
C57 C60 1.424 . S
C57 C62 1.245 . S
C57 C63 1.428 . S
C58 C61 1.260 . S
C58 C62 1.477 . S
C58 H76 0.932 . S
C59 C60 1.384 . S
C59 C61 1.479 . S
C59 H77 0.929 . S
C60 C57 1.424 . S
C60 C59 1.384 . S
C60 H78 0.928 . S
C61 C58 1.260 . S
C61 C59 1.479 . S
C62 C57 1.245 . S
C62 C58 1.477 . S
C62 H79 0.932 . S
C63 U46 2.882 . S
C63 C57 1.428 . S
C63 O66 1.301 . S
C63 O67 1.282 . S
O64 U46 2.441 . S
O64 C50 1.249 . S
O65 U46 2.420 . S
O65 C50 1.202 . S
O66 U46 2.455 . S
O66 C63 1.301 . S
O67 U46 2.449 . S
O67 C63 1.282 . S
H68 C41 0.931 . S
H69 C43 0.929 . S
H70 C44 0.930 . S
H71 C45 0.931 . S
H72 C52 0.932 . S
H73 C53 0.930 . S
H74 C54 0.929 . S
H75 C56 0.930 . S
H76 C58 0.932 . S
H77 C59 0.929 . S
H78 C60 0.928 . S
H79 C62 0.932 . S
C80 C81 1.264 . S
C80 C85 1.479 . S
C80 C90 1.465 . S
C81 C80 1.264 . S
C81 C83 1.339 . S
C81 H108 0.931 . S
C82 C83 1.395 . S
C82 C84 1.320 . S
C83 C81 1.339 . S
C83 C82 1.395 . S
C83 H109 0.929 . S
C84 C82 1.320 . S
C84 C85 1.405 . S
C84 H110 0.930 . S
C85 C80 1.479 . S
C85 C84 1.405 . S
C85 H111 0.931 . S
U86 O87 2.454 . S
U86 O88 2.458 1_554 S
U86 C89 2.984 1_554 S
U86 C90 2.847 . S
U86 C103 2.882 1_554 S
U86 O104 2.441 . S
U86 O105 2.420 . S
U86 O106 2.455 1_554 S
U86 O107 2.449 1_554 S
O87 U86 2.454 . S
O87 C89 1.353 1_554 S
O88 U86 2.458 1_556 S
O88 C89 1.286 . S
C89 U86 2.984 1_556 S
C89 O87 1.353 1_556 S
C89 O88 1.286 . S
C89 C91 1.363 . S
C90 C80 1.465 . S
C90 U86 2.847 . S
C90 O104 1.249 . S
C90 O105 1.202 . S
C91 C89 1.363 . S
C91 C93 1.408 1_556 S
C91 C96 1.342 . S
C92 C93 1.310 . S
C92 C95 1.461 1_554 S
C92 H112 0.932 . S
C93 C91 1.408 1_554 S
C93 C92 1.310 . S
C93 H113 0.930 . S
C94 C95 1.474 . S
C94 C96 1.285 . S
C94 H114 0.929 . S
C95 C92 1.461 1_556 S
C95 C94 1.474 . S
C96 C91 1.342 . S
C96 C94 1.285 . S
C96 H115 0.930 . S
C97 C100 1.424 . S
C97 C102 1.245 . S
C97 C103 1.428 . S
C98 C101 1.260 . S
C98 C102 1.477 . S
C98 H116 0.932 . S
C99 C100 1.384 . S
C99 C101 1.479 . S
C99 H117 0.929 . S
C100 C97 1.424 . S
C100 C99 1.384 . S
C100 H118 0.928 . S
C101 C98 1.260 . S
C101 C99 1.479 . S
C102 C97 1.245 . S
C102 C98 1.477 . S
C102 H119 0.932 . S
C103 U86 2.882 1_556 S
C103 C97 1.428 . S
C103 O106 1.301 . S
C103 O107 1.282 . S
O104 U86 2.441 . S
O104 C90 1.249 . S
O105 U86 2.420 . S
O105 C90 1.202 . S
O106 U86 2.455 1_556 S
O106 C103 1.301 . S
O107 U86 2.449 1_556 S
O107 C103 1.282 . S
H108 C81 0.931 . S
H109 C83 0.929 . S
H110 C84 0.930 . S
H111 C85 0.931 . S
H112 C92 0.932 . S
H113 C93 0.930 . S
H114 C94 0.929 . S
H115 C96 0.930 . S
H116 C98 0.932 . S
H117 C99 0.929 . S
H118 C100 0.928 . S
H119 C102 0.932 . S
C120 C121 1.264 . S
C120 C125 1.479 . S
C120 C130 1.465 . S
C121 C120 1.264 . S
C121 C123 1.339 . S
C121 H148 0.931 . S
C122 C123 1.395 . S
C122 C124 1.320 . S
C123 C121 1.339 . S
C123 C122 1.395 . S
C123 H149 0.929 . S
C124 C122 1.320 . S
C124 C125 1.405 . S
C124 H150 0.930 . S
C125 C120 1.479 . S
C125 C124 1.405 . S
C125 H151 0.931 . S
U126 O127 2.454 . S
U126 O128 2.458 . S
U126 C129 2.984 . S
U126 C130 2.847 . S
U126 C143 2.882 . S
U126 O144 2.441 . S
U126 O145 2.420 . S
U126 O146 2.455 . S
U126 O147 2.449 . S
O127 U126 2.454 . S
O127 C129 1.353 . S
O128 U126 2.458 . S
O128 C129 1.286 . S
C129 U126 2.984 . S
C129 O127 1.353 . S
C129 O128 1.286 . S
C129 C131 1.363 . S
C130 C120 1.465 . S
C130 U126 2.847 . S
C130 O144 1.249 . S
C130 O145 1.202 . S
C131 C129 1.363 . S
C131 C133 1.408 . S
C131 C136 1.342 . S
C132 C133 1.310 . S
C132 C135 1.461 . S
C132 H152 0.932 . S
C133 C131 1.408 . S
C133 C132 1.310 . S
C133 H153 0.930 . S
C134 C135 1.474 . S
C134 C136 1.285 . S
C134 H154 0.929 . S
C135 C132 1.461 . S
C135 C134 1.474 . S
C136 C131 1.342 . S
C136 C134 1.285 . S
C136 H155 0.930 . S
C137 C140 1.424 . S
C137 C142 1.245 . S
C137 C143 1.428 . S
C138 C141 1.260 . S
C138 C142 1.477 . S
C138 H156 0.932 . S
C139 C140 1.384 . S
C139 C141 1.479 . S
C139 H157 0.929 . S
C140 C137 1.424 . S
C140 C139 1.384 . S
C140 H158 0.928 . S
C141 C138 1.260 . S
C141 C139 1.479 . S
C142 C137 1.245 . S
C142 C138 1.477 . S
C142 H159 0.932 . S
C143 U126 2.882 . S
C143 C137 1.428 . S
C143 O146 1.301 . S
C143 O147 1.282 . S
O144 U126 2.441 . S
O144 C130 1.249 . S
O145 U126 2.420 . S
O145 C130 1.202 . S
O146 U126 2.455 . S
O146 C143 1.301 . S
O147 U126 2.449 . S
O147 C143 1.282 . S
H148 C121 0.931 . S
H149 C123 0.929 . S
H150 C124 0.930 . S
H151 C125 0.931 . S
H152 C132 0.932 . S
H153 C133 0.930 . S
H154 C134 0.929 . S
H155 C136 0.930 . S
H156 C138 0.932 . S
H157 C139 0.929 . S
H158 C140 0.928 . S
H159 C142 0.932 . S
O160 Mn161 2.163 1_655 S
O160 C174 1.244 . S
Mn161 O160 2.163 1_455 S
Mn161 O164 2.160 1_545 S
Mn161 O165 2.221 . S
Mn161 O167 2.163 1_455 S
Mn161 O169 2.148 1_545 S
Mn161 O179 2.221 1_445 S
O162 Mn163 2.087 1_545 S
O162 C174 1.256 . S
Mn163 O162 2.087 1_565 S
Mn163 O170 2.089 1_655 S
Mn163 O179 2.290 . S
Mn163 O180 2.251 . S
O164 Mn161 2.160 1_565 S
O164 C175 1.239 . S
O165 Mn161 2.221 . S
O165 Mn166 2.290 . S
O165 C176 1.278 . S
Mn166 O165 2.290 . S
Mn166 O168 2.089 . S
Mn166 O171 2.251 . S
Mn166 O172 2.087 1_455 S
O167 Mn161 2.163 1_655 S
O167 C177 1.244 . S
O168 Mn166 2.089 . S
O168 C175 1.256 1_545 S
O169 Mn161 2.148 1_565 S
O169 C178 1.255 . S
O170 Mn163 2.089 1_455 S
O170 C178 1.256 . S
O171 Mn166 2.251 . S
O171 C176 1.241 . S
O172 Mn166 2.087 1_655 S
O172 C177 1.256 . S
C173 O179 1.278 . S
C173 O180 1.241 . S
C174 O160 1.244 . S
C174 O162 1.256 . S
C175 O164 1.239 . S
C175 O168 1.256 1_565 S
C176 O165 1.278 . S
C176 O171 1.241 . S
C177 O167 1.244 . S
C177 O172 1.256 . S
C178 O169 1.255 . S
C178 O170 1.256 . S
O179 Mn161 2.221 1_665 S
O179 Mn163 2.290 . S
O179 C173 1.278 . S
O180 Mn163 2.251 . S
O180 C173 1.241 . S
O181 Mn182 2.163 . S
O181 C195 1.244 . S
Mn182 O181 2.163 . S
Mn182 O185 2.160 1_554 S
Mn182 O186 2.221 . S
Mn182 O188 2.163 1_554 S
Mn182 O190 2.160 . S
Mn182 O200 2.221 . S
O183 Mn184 2.087 . S
O183 C195 1.256 . S
Mn184 O183 2.087 . S
Mn184 O191 2.089 . S
Mn184 O200 2.290 . S
Mn184 O201 2.251 . S
O185 Mn182 2.160 1_556 S
O185 C196 1.239 . S
O186 Mn182 2.221 . S
O186 Mn187 2.290 1_554 S
O186 C197 1.278 . S
Mn187 O186 2.290 1_556 S
Mn187 O189 2.089 . S
Mn187 O192 2.251 1_556 S
Mn187 O193 2.087 . S
O188 Mn182 2.163 1_556 S
O188 C198 1.244 . S
O189 Mn187 2.089 . S
O189 C196 1.256 . S
O190 Mn182 2.160 . S
O190 C199 1.239 . S
O191 Mn184 2.089 . S
O191 C199 1.256 . S
O192 Mn187 2.251 1_554 S
O192 C197 1.241 . S
O193 Mn187 2.087 . S
O193 C198 1.256 . S
C194 O200 1.278 . S
C194 O201 1.241 . S
C195 O181 1.244 . S
C195 O183 1.256 . S
C196 O185 1.239 . S
C196 O189 1.256 . S
C197 O186 1.278 . S
C197 O192 1.241 . S
C198 O188 1.244 . S
C198 O193 1.256 . S
C199 O190 1.239 . S
C199 O191 1.256 . S
O200 Mn182 2.221 . S
O200 Mn184 2.290 . S
O200 C194 1.278 . S
O201 Mn184 2.251 . S
O201 C194 1.241 . S
H202 C203 0.951 . S
C203 H202 0.951 . S
C203 C209 1.265 . S
H204 C209 0.950 . S
H205 C213 0.949 . S
H206 C214 0.950 . S
H207 C215 0.951 . S
H208 C216 0.951 . S
C209 C203 1.265 . S
C209 H204 0.950 . S
C209 C210 1.478 . S
C210 C209 1.478 . S
C210 C211 1.397 . S
C210 C227 1.394 . S
C211 C210 1.397 . S
C211 C212 1.438 . S
C211 C216 1.429 . S
C212 C211 1.438 . S
C212 C213 1.428 . S
C212 C225 1.394 . S
C213 H205 0.949 . S
C213 C212 1.428 . S
C213 C214 1.345 . S
C214 H206 0.950 . S
C214 C213 1.345 . S
C214 C215 1.424 . S
C215 H207 0.951 . S
C215 C214 1.424 . S
C215 C216 1.347 . S
C216 H208 0.951 . S
C216 C211 1.429 . S
C216 C215 1.347 . S
H217 C218 0.951 . S
C218 H217 0.951 . S
C218 C224 1.265 . S
H219 C224 0.950 . S
H220 C228 0.949 . S
H221 C229 0.950 . S
H222 C230 0.951 1_655 S
H223 C231 0.951 . S
C224 C218 1.265 . S
C224 H219 0.950 . S
C224 C225 1.478 . S
C225 C212 1.394 . S
C225 C224 1.478 . S
C225 C226 1.397 . S
C226 C225 1.397 . S
C226 C227 1.438 . S
C226 C231 1.429 . S
C227 C210 1.394 . S
C227 C226 1.438 . S
C227 C228 1.428 . S
C228 H220 0.949 . S
C228 C227 1.428 . S
C228 C229 1.345 . S
C229 H221 0.950 . S
C229 C228 1.345 . S
C229 C230 1.424 . S
C230 H222 0.951 1_455 S
C230 C229 1.424 . S
C230 C231 1.347 . S
C231 H223 0.951 . S
C231 C226 1.429 . S
C231 C230 1.347 . S
H232 C233 0.951 . S
C233 H232 0.951 . S
C233 C239 1.265 . S
H234 C239 0.950 . S
H235 C243 0.949 . S
H236 C244 0.950 . S
H237 C245 0.951 . S
H238 C246 0.951 . S
C239 C233 1.265 . S
C239 H234 0.950 . S
C239 C240 1.478 . S
C240 C239 1.478 . S
C240 C241 1.397 . S
C240 C257 1.394 . S
C241 C240 1.397 . S
C241 C242 1.438 . S
C241 C246 1.429 . S
C242 C241 1.438 . S
C242 C243 1.428 . S
C242 C255 1.394 . S
C243 H235 0.949 . S
C243 C242 1.428 . S
C243 C244 1.345 . S
C244 H236 0.950 . S
C244 C243 1.345 . S
C244 C245 1.424 . S
C245 H237 0.951 . S
C245 C244 1.424 . S
C245 C246 1.347 . S
C246 H238 0.951 . S
C246 C241 1.429 . S
C246 C245 1.347 . S
H247 C248 0.951 . S
C248 H247 0.951 . S
C248 C254 1.265 . S
H249 C254 0.950 . S
H250 C258 0.949 . S
H251 C259 0.950 . S
H252 C260 0.951 . S
H253 C261 0.951 . S
C254 C248 1.265 . S
C254 H249 0.950 . S
C254 C255 1.478 . S
C255 C242 1.394 . S
C255 C254 1.478 . S
C255 C256 1.397 . S
C256 C255 1.397 . S
C256 C257 1.438 . S
C256 C261 1.429 . S
C257 C240 1.394 . S
C257 C256 1.438 . S
C257 C258 1.428 . S
C258 H250 0.949 . S
C258 C257 1.428 . S
C258 C259 1.345 . S
C259 H251 0.950 . S
C259 C258 1.345 . S
C259 C260 1.424 . S
C260 H252 0.951 . S
C260 C259 1.424 . S
C260 C261 1.347 . S
C261 H253 0.951 . S
C261 C256 1.429 . S
C261 C260 1.347 . S
H262 C263 0.951 . S
C263 H262 0.951 . S
C263 C269 1.265 . S
H264 C269 0.950 . S
H265 C273 0.949 . S
H266 C274 0.950 . S
H267 C275 0.951 . S
H268 C276 0.951 . S
C269 C263 1.265 . S
C269 H264 0.950 . S
C269 C270 1.478 . S
C270 C269 1.478 . S
C270 C271 1.397 . S
C270 C287 1.394 . S
C271 C270 1.397 . S
C271 C272 1.438 . S
C271 C276 1.429 . S
C272 C271 1.438 . S
C272 C273 1.428 . S
C272 C285 1.394 . S
C273 H265 0.949 . S
C273 C272 1.428 . S
C273 C274 1.345 . S
C274 H266 0.950 . S
C274 C273 1.345 . S
C274 C275 1.424 . S
C275 H267 0.951 . S
C275 C274 1.424 . S
C275 C276 1.347 . S
C276 H268 0.951 . S
C276 C271 1.429 . S
C276 C275 1.347 . S
H277 C278 0.951 . S
C278 H277 0.951 . S
C278 C284 1.265 . S
H279 C284 0.950 . S
H280 C288 0.949 . S
H281 C289 0.950 . S
H282 C290 0.951 . S
H283 C291 0.951 . S
C284 C278 1.265 . S
C284 H279 0.950 . S
C284 C285 1.478 . S
C285 C272 1.394 . S
C285 C284 1.478 . S
C285 C286 1.397 . S
C286 C285 1.397 . S
C286 C287 1.438 . S
C286 C291 1.429 . S
C287 C270 1.394 . S
C287 C286 1.438 . S
C287 C288 1.428 . S
C288 H280 0.949 . S
C288 C287 1.428 . S
C288 C289 1.345 . S
C289 H281 0.950 . S
C289 C288 1.345 . S
C289 C290 1.424 . S
C290 H282 0.951 . S
C290 C289 1.424 . S
C290 C291 1.347 . S
C291 H283 0.951 . S
C291 C286 1.429 . S
C291 C290 1.347 . S
H292 C293 0.951 . S
C293 H292 0.951 . S
C293 C299 1.265 . S
H294 C299 0.950 . S
H295 C303 0.949 . S
H296 C304 0.950 . S
H297 C305 0.951 . S
H298 C306 0.951 . S
C299 C293 1.265 . S
C299 H294 0.950 . S
C299 C300 1.478 1_556 S
C300 C299 1.478 1_554 S
C300 C301 1.397 1_554 S
C300 C317 1.394 . S
C301 C300 1.397 1_556 S
C301 C302 1.438 . S
C301 C306 1.429 . S
C302 C301 1.438 . S
C302 C303 1.428 . S
C302 C315 1.394 1_556 S
C303 H295 0.949 . S
C303 C302 1.428 . S
C303 C304 1.345 . S
C304 H296 0.950 . S
C304 C303 1.345 . S
C304 C305 1.424 . S
C305 H297 0.951 . S
C305 C304 1.424 . S
C305 C306 1.347 . S
C306 H298 0.951 . S
C306 C301 1.429 . S
C306 C305 1.347 . S
H307 C308 0.951 . S
C308 H307 0.951 . S
C308 C314 1.265 . S
H309 C314 0.950 . S
H310 C318 0.949 . S
H311 C319 0.950 . S
H312 C320 0.951 . S
H313 C321 0.951 . S
C314 C308 1.265 . S
C314 H309 0.950 . S
C314 C315 1.478 . S
C315 C302 1.394 1_554 S
C315 C314 1.478 . S
C315 C316 1.397 . S
C316 C315 1.397 . S
C316 C317 1.438 . S
C316 C321 1.429 . S
C317 C300 1.394 . S
C317 C316 1.438 . S
C317 C318 1.428 . S
C318 H310 0.949 . S
C318 C317 1.428 . S
C318 C319 1.345 . S
C319 H311 0.950 . S
C319 C318 1.345 . S
C319 C320 1.424 . S
C320 H312 0.951 . S
C320 C319 1.424 . S
C320 C321 1.347 . S
C321 H313 0.951 . S
C321 C316 1.429 . S
C321 C320 1.347 . S
H322 C323 0.951 . S
C323 H322 0.951 . S
C323 C329 1.265 . S
H324 C329 0.950 . S
H325 C333 0.961 . S
H326 C334 0.950 . S
H327 C335 0.949 1_545 S
H328 C336 0.951 . S
C329 C323 1.265 . S
C329 H324 0.950 . S
C329 C330 1.478 . S
C330 C329 1.478 . S
C330 C331 1.397 . S
C330 C347 1.394 . S
C331 C330 1.397 . S
C331 C332 1.438 . S
C331 C336 1.429 . S
C332 C331 1.438 . S
C332 C333 1.411 1_565 S
C332 C345 1.394 . S
C333 H325 0.961 . S
C333 C332 1.411 1_545 S
C333 C334 1.351 . S
C334 H326 0.950 . S
C334 C333 1.351 . S
C334 C335 1.424 1_545 S
C335 H327 0.949 1_565 S
C335 C334 1.424 1_565 S
C335 C336 1.347 . S
C336 H328 0.951 . S
C336 C331 1.429 . S
C336 C335 1.347 . S
H337 C338 0.951 . S
C338 H337 0.951 . S
C338 C344 1.265 . S
H339 C344 0.950 1_545 S
H340 C348 0.949 . S
H341 C349 0.950 . S
H342 C350 0.951 . S
H343 C351 0.951 . S
C344 C338 1.265 . S
C344 H339 0.950 1_565 S
C344 C345 1.478 . S
C345 C332 1.394 . S
C345 C344 1.478 . S
C345 C346 1.397 . S
C346 C345 1.397 . S
C346 C347 1.438 . S
C346 C351 1.429 . S
C347 C330 1.394 . S
C347 C346 1.438 . S
C347 C348 1.428 . S
C348 H340 0.949 . S
C348 C347 1.428 . S
C348 C349 1.345 . S
C349 H341 0.950 . S
C349 C348 1.345 . S
C349 C350 1.424 . S
C350 H342 0.951 . S
C350 C349 1.424 . S
C350 C351 1.347 . S
C351 H343 0.951 . S
C351 C346 1.429 . S
C351 C350 1.347 . S
H352 C353 0.951 . S
C353 H352 0.951 . S
C353 C359 1.265 . S
H354 C359 0.950 . S
H355 C363 0.949 . S
H356 C364 0.950 . S
H357 C365 0.951 . S
H358 C366 0.951 . S
C359 C353 1.265 . S
C359 H354 0.950 . S
C359 C360 1.478 . S
C360 C359 1.478 . S
C360 C361 1.397 . S
C360 C377 1.394 . S
C361 C360 1.397 . S
C361 C362 1.438 . S
C361 C366 1.429 . S
C362 C361 1.438 . S
C362 C363 1.428 . S
C362 C375 1.394 . S
C363 H355 0.949 . S
C363 C362 1.428 . S
C363 C364 1.345 . S
C364 H356 0.950 . S
C364 C363 1.345 . S
C364 C365 1.424 . S
C365 H357 0.951 . S
C365 C364 1.424 . S
C365 C366 1.347 . S
C366 H358 0.951 . S
C366 C361 1.429 . S
C366 C365 1.347 . S
H367 C368 0.951 . S
C368 H367 0.951 . S
C368 C374 1.265 . S
H369 C374 0.950 . S
H370 C378 0.949 . S
H371 C379 0.950 . S
H372 C380 0.951 . S
H373 C381 0.951 . S
C374 C368 1.265 . S
C374 H369 0.950 . S
C374 C375 1.478 . S
C375 C362 1.394 . S
C375 C374 1.478 . S
C375 C376 1.397 . S
C376 C375 1.397 . S
C376 C377 1.438 . S
C376 C381 1.429 . S
C377 C360 1.394 . S
C377 C376 1.438 . S
C377 C378 1.428 . S
C378 H370 0.949 . S
C378 C377 1.428 . S
C378 C379 1.345 . S
C379 H371 0.950 . S
C379 C378 1.345 . S
C379 C380 1.424 . S
C380 H372 0.951 . S
C380 C379 1.424 . S
C380 C381 1.347 . S
C381 H373 0.951 . S
C381 C376 1.429 . S
C381 C380 1.347 . S
H382 C383 0.951 . S
C383 H382 0.951 . S
C383 C389 1.265 . S
H384 C389 0.950 . S
H385 C393 0.949 . S
H386 C394 0.950 . S
H387 C395 0.951 . S
H388 C396 0.951 . S
C389 C383 1.265 . S
C389 H384 0.950 . S
C389 C390 1.478 . S
C390 C389 1.478 . S
C390 C391 1.397 . S
C390 C407 1.394 . S
C391 C390 1.397 . S
C391 C392 1.438 . S
C391 C396 1.429 . S
C392 C391 1.438 . S
C392 C393 1.428 . S
C392 C405 1.394 . S
C393 H385 0.949 . S
C393 C392 1.428 . S
C393 C394 1.345 . S
C394 H386 0.950 . S
C394 C393 1.345 . S
C394 C395 1.424 . S
C395 H387 0.951 . S
C395 C394 1.424 . S
C395 C396 1.347 . S
C396 H388 0.951 . S
C396 C391 1.429 . S
C396 C395 1.347 . S
H397 C398 0.951 . S
C398 H397 0.951 . S
C398 C404 1.265 . S
H399 C404 0.950 . S
H400 C408 0.949 . S
H401 C409 0.950 . S
H402 C410 0.951 . S
H403 C411 0.956 . S
C404 C398 1.265 . S
C404 H399 0.950 . S
C404 C405 1.478 . S
C405 C392 1.394 . S
C405 C404 1.478 . S
C405 C406 1.397 . S
C406 C405 1.397 . S
C406 C407 1.438 . S
C406 C411 1.429 . S
C407 C390 1.394 . S
C407 C406 1.438 . S
C407 C408 1.428 . S
C408 H400 0.949 . S
C408 C407 1.428 . S
C408 C409 1.345 1_545 S
C409 H401 0.950 . S
C409 C408 1.345 1_565 S
C409 C410 1.424 . S
C410 H402 0.951 . S
C410 C409 1.424 . S
C410 C411 1.347 1_565 S
C411 H403 0.956 . S
C411 C406 1.429 . S
C411 C410 1.347 1_545 S
H412 C413 0.951 . S
C413 H412 0.951 . S
C413 C419 1.265 . S
H414 C419 0.950 . S
H415 C423 0.949 . S
H416 C424 0.950 . S
H417 C425 0.951 . S
H418 C426 0.951 . S
C419 C413 1.265 . S
C419 H414 0.950 . S
C419 C420 1.478 . S
C420 C419 1.478 . S
C420 C421 1.397 . S
C420 C437 1.394 . S
C421 C420 1.397 . S
C421 C422 1.438 . S
C421 C426 1.429 . S
C422 C421 1.438 . S
C422 C423 1.428 . S
C422 C435 1.394 . S
C423 H415 0.949 . S
C423 C422 1.428 . S
C423 C424 1.345 . S
C424 H416 0.950 . S
C424 C423 1.345 . S
C424 C425 1.424 . S
C425 H417 0.951 . S
C425 C424 1.424 . S
C425 C426 1.347 . S
C426 H418 0.951 . S
C426 C421 1.429 . S
C426 C425 1.347 . S
H427 C428 0.951 . S
C428 H427 0.951 . S
C428 C434 1.265 . S
H429 C434 0.950 . S
H430 C438 0.949 . S
H431 C439 0.950 . S
H432 C440 0.951 . S
H433 C441 0.951 . S
C434 C428 1.265 . S
C434 H429 0.950 . S
C434 C435 1.478 . S
C435 C422 1.394 . S
C435 C434 1.478 . S
C435 C436 1.397 . S
C436 C435 1.397 . S
C436 C437 1.438 . S
C436 C441 1.429 . S
C437 C420 1.394 . S
C437 C436 1.438 . S
C437 C438 1.428 . S
C438 H430 0.949 . S
C438 C437 1.428 . S
C438 C439 1.345 . S
C439 H431 0.950 . S
C439 C438 1.345 . S
C439 C440 1.424 . S
C440 H432 0.951 . S
C440 C439 1.424 . S
C440 C441 1.347 . S
C441 H433 0.951 . S
C441 C436 1.429 . S
C441 C440 1.347 . S
H442 C443 0.951 . S
C443 H442 0.951 . S
C443 C449 1.265 . S
H444 C449 0.950 . S
H445 C453 0.949 . S
H446 C454 0.950 . S
H447 C455 0.951 . S
H448 C456 0.951 . S
C449 C443 1.265 . S
C449 H444 0.950 . S
C449 C450 1.478 . S
C450 C449 1.478 . S
C450 C451 1.397 . S
C450 C467 1.394 . S
C451 C450 1.397 . S
C451 C452 1.438 . S
C451 C456 1.429 . S
C452 C451 1.438 . S
C452 C453 1.428 . S
C452 C465 1.394 . S
C453 H445 0.949 . S
C453 C452 1.428 . S
C453 C454 1.345 . S
C454 H446 0.950 . S
C454 C453 1.345 . S
C454 C455 1.424 . S
C455 H447 0.951 . S
C455 C454 1.424 . S
C455 C456 1.347 . S
C456 H448 0.951 . S
C456 C451 1.429 . S
C456 C455 1.347 . S
H457 C458 0.951 . S
C458 H457 0.951 . S
C458 C464 1.265 . S
H459 C464 0.950 . S
H460 C468 0.949 . S
H461 C469 0.950 . S
H462 C470 0.951 . S
H463 C471 0.951 . S
C464 C458 1.265 . S
C464 H459 0.950 . S
C464 C465 1.478 . S
C465 C452 1.394 . S
C465 C464 1.478 . S
C465 C466 1.397 . S
C466 C465 1.397 . S
C466 C467 1.438 . S
C466 C471 1.429 . S
C467 C450 1.394 . S
C467 C466 1.438 . S
C467 C468 1.428 . S
C468 H460 0.949 . S
C468 C467 1.428 . S
C468 C469 1.345 . S
C469 H461 0.950 . S
C469 C468 1.345 . S
C469 C470 1.424 . S
C470 H462 0.951 . S
C470 C469 1.424 . S
C470 C471 1.347 . S
C471 H463 0.951 . S
C471 C466 1.429 . S
C471 C470 1.347 . S
H472 C473 0.951 . S
C473 H472 0.951 . S
C473 C479 1.265 . S
H474 C479 0.950 . S
H475 C483 0.949 . S
H476 C484 0.950 . S
H477 C485 0.951 . S
H478 C486 0.951 . S
C479 C473 1.265 . S
C479 H474 0.950 . S
C479 C480 1.478 . S
C480 C479 1.478 . S
C480 C481 1.397 . S
C480 C497 1.394 . S
C481 C480 1.397 . S
C481 C482 1.438 . S
C481 C486 1.429 . S
C482 C481 1.438 . S
C482 C483 1.428 . S
C482 C495 1.394 . S
C483 H475 0.949 . S
C483 C482 1.428 . S
C483 C484 1.345 1_545 S
C484 H476 0.950 . S
C484 C483 1.345 1_565 S
C484 C485 1.424 . S
C485 H477 0.951 . S
C485 C484 1.424 . S
C485 C486 1.347 1_565 S
C486 H478 0.951 . S
C486 C481 1.429 . S
C486 C485 1.347 1_545 S
H487 C488 0.951 . S
C488 H487 0.951 . S
C488 C494 1.265 . S
H489 C494 0.950 . S
H490 C498 0.949 . S
H491 C499 0.950 . S
H492 C500 0.951 . S
H493 C501 0.951 . S
C494 C488 1.265 . S
C494 H489 0.950 . S
C494 C495 1.478 . S
C495 C482 1.394 . S
C495 C494 1.478 . S
C495 C496 1.397 . S
C496 C495 1.397 . S
C496 C497 1.438 . S
C496 C501 1.429 . S
C497 C480 1.394 . S
C497 C496 1.438 . S
C497 C498 1.428 . S
C498 H490 0.949 . S
C498 C497 1.428 . S
C498 C499 1.345 . S
C499 H491 0.950 . S
C499 C498 1.345 . S
C499 C500 1.424 . S
C500 H492 0.951 . S
C500 C499 1.424 . S
C500 C501 1.347 . S
C501 H493 0.951 . S
C501 C496 1.429 . S
C501 C500 1.347 . S
H502 C503 0.951 . S
C503 H502 0.951 . S
C503 C509 1.265 . S
H504 C509 0.950 . S
H505 C513 0.949 . S
H506 C514 0.950 . S
H507 C515 0.951 . S
H508 C516 0.951 . S
C509 C503 1.265 . S
C509 H504 0.950 . S
C509 C510 1.478 . S
C510 C509 1.478 . S
C510 C511 1.397 . S
C510 C527 1.394 . S
C511 C510 1.397 . S
C511 C512 1.438 . S
C511 C516 1.429 . S
C512 C511 1.438 . S
C512 C513 1.428 . S
C512 C525 1.394 . S
C513 H505 0.949 . S
C513 C512 1.428 . S
C513 C514 1.345 . S
C514 H506 0.950 . S
C514 C513 1.345 . S
C514 C515 1.424 . S
C515 H507 0.951 . S
C515 C514 1.424 . S
C515 C516 1.347 . S
C516 H508 0.951 . S
C516 C511 1.429 . S
C516 C515 1.347 . S
H517 C518 0.951 . S
C518 H517 0.951 . S
C518 C524 1.265 . S
H519 C524 0.950 . S
H520 C528 0.949 . S
H521 C529 0.950 . S
H522 C530 0.951 . S
H523 C531 0.951 . S
C524 C518 1.265 . S
C524 H519 0.950 . S
C524 C525 1.478 . S
C525 C512 1.394 . S
C525 C524 1.478 . S
C525 C526 1.397 . S
C526 C525 1.397 . S
C526 C527 1.438 . S
C526 C531 1.429 . S
C527 C510 1.394 . S
C527 C526 1.438 . S
C527 C528 1.428 . S
C528 H520 0.949 . S
C528 C527 1.428 . S
C528 C529 1.345 . S
C529 H521 0.950 . S
C529 C528 1.345 . S
C529 C530 1.424 . S
C530 H522 0.951 . S
C530 C529 1.424 . S
C530 C531 1.347 . S
C531 H523 0.951 . S
C531 C526 1.429 . S
C531 C530 1.347 . S
H532 C533 0.951 . S
C533 H532 0.951 . S
C533 C539 1.265 . S
H534 C539 0.950 . S
H535 C543 0.949 . S
H536 C544 0.950 . S
H537 C545 0.951 . S
H538 C546 0.951 . S
C539 C533 1.265 . S
C539 H534 0.950 . S
C539 C540 1.478 . S
C540 C539 1.478 . S
C540 C541 1.397 . S
C540 C557 1.394 . S
C541 C540 1.397 . S
C541 C542 1.438 . S
C541 C546 1.429 . S
C542 C541 1.438 . S
C542 C543 1.428 . S
C542 C555 1.394 . S
C543 H535 0.949 . S
C543 C542 1.428 . S
C543 C544 1.345 . S
C544 H536 0.950 . S
C544 C543 1.345 . S
C544 C545 1.424 . S
C545 H537 0.951 . S
C545 C544 1.424 . S
C545 C546 1.347 . S
C546 H538 0.951 . S
C546 C541 1.429 . S
C546 C545 1.347 . S
H547 C548 0.951 . S
C548 H547 0.951 . S
C548 C554 1.265 . S
H549 C554 0.950 . S
H550 C558 0.949 . S
H551 C559 0.950 . S
H552 C560 0.951 . S
H553 C561 0.951 . S
C554 C548 1.265 . S
C554 H549 0.950 . S
C554 C555 1.478 . S
C555 C542 1.394 . S
C555 C554 1.478 . S
C555 C556 1.397 1_565 S
C556 C555 1.397 1_545 S
C556 C557 1.438 1_545 S
C556 C561 1.429 . S
C557 C540 1.394 . S
C557 C556 1.438 1_565 S
C557 C558 1.428 1_565 S
C558 H550 0.949 . S
C558 C557 1.428 1_545 S
C558 C559 1.345 . S
C559 H551 0.950 . S
C559 C558 1.345 . S
C559 C560 1.424 . S
C560 H552 0.951 . S
C560 C559 1.424 . S
C560 C561 1.347 . S
C561 H553 0.951 . S
C561 C556 1.429 . S
C561 C560 1.347 . S
C218 C176 1.406 . S
C203 C135 1.565 . S
C233 C15 1.550 . S
C248 C197 1.290 . S
C263 C55 1.713 . S
C278 C173 1.503 . S
C293 C95 1.725 . S
C308 C194 1.523 . S
C338 C178 1.661 . S
C323 C2 1.667 . S
C368 C198 1.614 . S
C353 C42 1.529 . S
C383 C82 1.576 . S
C398 C174 1.520 . S
C413 C141 1.643 . S
C428 C196 1.566 . S
C458 C195 1.562 . S
C443 C61 1.591 . S
C488 C177 1.614 . S
C473 C101 1.664 . S
C518 C199 1.657 . S
C503 C122 1.709 . S
C533 C21 1.674 . S
C548 C175 1.614 . S
