# Generated by pormake.
# Topology pth, (4,4)-cn, num edge types: 1
# Building blocks:
#     Node 0, Type 0, BuildingBlock: QUQFOY_clean_sbu_1, # of connection points: 4
#     Node 1, Type 0, BuildingBlock: QUQFOY_clean_sbu_1, # of connection points: 4
#     Node 2, Type 0, BuildingBlock: QUQFOY_clean_sbu_1, # of connection points: 4
#     Node 3, Type 1, BuildingBlock: MUDLON_clean_sbu_0, # of connection points: 4
#     Node 4, Type 1, BuildingBlock: MUDLON_clean_sbu_0, # of connection points: 4
#     Node 5, Type 1, BuildingBlock: MUDLON_clean_sbu_0, # of connection points: 4
#     Edge 6, Type (0, 1), BuildingBlock: FUNLAD_clean_linker_0, # of connection points: 2
#     Edge 7, Type (0, 1), BuildingBlock: FUNLAD_clean_linker_0, # of connection points: 2
#     Edge 8, Type (0, 1), BuildingBlock: FUNLAD_clean_linker_0, # of connection points: 2
#     Edge 9, Type (0, 1), BuildingBlock: FUNLAD_clean_linker_0, # of connection points: 2
#     Edge 10, Type (0, 1), BuildingBlock: FUNLAD_clean_linker_0, # of connection points: 2
#     Edge 11, Type (0, 1), BuildingBlock: FUNLAD_clean_linker_0, # of connection points: 2
#     Edge 12, Type (0, 1), BuildingBlock: FUNLAD_clean_linker_0, # of connection points: 2
#     Edge 13, Type (0, 1), BuildingBlock: FUNLAD_clean_linker_0, # of connection points: 2
#     Edge 14, Type (0, 1), BuildingBlock: FUNLAD_clean_linker_0, # of connection points: 2
#     Edge 15, Type (0, 1), BuildingBlock: FUNLAD_clean_linker_0, # of connection points: 2
#     Edge 16, Type (0, 1), BuildingBlock: FUNLAD_clean_linker_0, # of connection points: 2
#     Edge 17, Type (0, 1), BuildingBlock: FUNLAD_clean_linker_0, # of connection points: 2
# Relax obj value: 0.036
# Max RMSD: 0.128
# Mean RMSD: 0.077
data_MOF--net-pth--node1-QUQFOY_clean_sbu_1--node2-MUDLON_clean_sbu_0--edge1-FUNLAD_clean_linker_0
_symmetry_space_group_name_H-M    P1
_symmetry_Int_Tables_number       1
_symmetry_cell_setting            triclinic
loop_
_symmetry_equiv_pos_as_xyz
'x, y, z'
_cell_length_a     25.428636
_cell_length_b     26.991859
_cell_length_c     70.820875
_cell_angle_alpha  90.091304
_cell_angle_beta   89.957651
_cell_angle_gamma 120.04787
loop_
_atom_site_label
_atom_site_type_symbol
_atom_site_fract_x
_atom_site_fract_y
_atom_site_fract_z
_atom_type_partial_charge
O0 O 0.03862 0.11909 0.07042 0.0
Cd1 Cd 0.96976 0.05353 0.0857 0.0
Cd2 Cd 0.05332 1.01973 0.08791 0.0
O3 O 0.11138 0.09978 0.07677 0.0
O4 O 0.91532 0.08378 0.09321 0.0
O5 O 0.96843 0.06509 0.11378 0.0
C6 C 0.93246 0.08494 0.11042 0.0
C7 C 0.07619 0.98373 0.11471 0.0
C8 C 0.09397 0.13202 0.06931 0.0
C9 C 0.93953 0.94505 0.0656 0.0
O10 O 0.9937 0.95788 0.06948 0.0
O11 O 0.91814 0.97547 0.07203 0.0
O12 O 0.10232 0.98738 0.09874 0.0
O13 O 0.03935 1.00358 0.1157 0.0
O14 O 1.00312 0.08709 0.42963 0.0
Cd15 Cd 0.06931 0.08572 0.41302 0.0
Cd16 Cd 0.98714 0.97254 0.41127 0.0
O17 O 0.93146 0.99775 0.42441 0.0
O18 O 0.12136 0.16521 0.40322 0.0
O19 O 0.06152 0.09148 0.38502 0.0
C20 C 0.09876 0.14582 0.38673 0.0
C21 C 0.95587 0.91248 0.38479 0.0
C22 C 0.94866 0.04665 0.43173 0.0
C23 C 0.10556 1.00748 0.43123 0.0
O24 O 0.05154 0.96807 0.42775 0.0
O25 O 0.12418 0.05825 0.42545 0.0
O26 O 0.93488 0.89301 0.40139 0.0
O27 O 0.99267 0.96687 0.38308 0.0
O28 O 0.92982 0.98033 0.7368 0.0
Cd29 Cd 0.99047 0.9753 0.75478 0.0
Cd30 Cd 0.04329 0.0875 0.7538 0.0
O31 O 0.96076 0.07111 0.74252 0.0
O32 O 0.94516 0.8997 0.76787 0.0
O33 O 0.97759 0.98276 0.78234 0.0
C34 C 0.94724 0.92751 0.78298 0.0
C35 C 0.09338 0.15061 0.77869 0.0
C36 C 0.92311 0.02363 0.73486 0.0
C37 C 0.10763 0.03454 0.73431 0.0
O38 O 0.1012 0.07812 0.73581 0.0
O39 O 0.07088 0.98818 0.74271 0.0
O40 O 0.08936 0.16902 0.76226 0.0
O41 O 0.06557 0.09597 0.78133 0.0
Mg42 Mg 0.01413 0.52299 0.2492 0.0
C43 C 0.03576 0.4721 0.28272 0.0
O44 O 0.98848 0.47729 0.28702 0.0
C45 C 0.02873 0.60641 0.22178 0.0
O46 O 0.97049 0.57451 0.22553 0.0
C47 C 0.93396 0.39877 0.23716 0.0
O48 O 0.94082 0.39022 0.25501 0.0
O49 O 0.95422 0.44983 0.23141 0.0
O50 O 0.06248 0.49261 0.26706 0.0
O51 O 0.97602 0.56134 0.26787 0.0
C52 C 0.92217 0.54901 0.27201 0.0
O53 O 0.87578 0.50327 0.26468 0.0
O54 O 0.06541 0.59388 0.2298 0.0
Mg55 Mg 0.49792 0.99408 0.57928 0.0
C56 C 0.37383 0.93257 0.56003 0.0
O57 O 0.35701 0.94683 0.57567 0.0
C58 C 0.57854 1.00012 0.60806 0.0
O59 O 0.59018 0.05211 0.60391 0.0
C60 C 0.42632 0.98881 0.6109 0.0
O61 O 0.42347 0.93914 0.6088 0.0
O62 O 0.45846 0.02858 0.59922 0.0
O63 O 0.42775 0.94127 0.5587 0.0
O64 O 0.57596 0.04505 0.56096 0.0
C65 C 0.59351 1.01073 0.55538 0.0
O66 O 0.56324 0.95736 0.56118 0.0
O67 O 0.53651 0.95837 0.59892 0.0
Mg68 Mg 0.53766 0.54343 0.9258 0.0
C69 C 0.48196 0.4858 0.89003 0.0
O70 O 0.48071 0.53381 0.88935 0.0
C71 C 0.66847 0.59388 0.94029 0.0
O72 O 0.68341 0.61158 0.9228 0.0
C73 C 0.44977 0.45654 0.94919 0.0
O74 O 0.48321 0.43791 0.94114 0.0
O75 O 0.46097 0.50696 0.94526 0.0
O76 O 0.50853 0.47763 0.90391 0.0
O77 O 0.56512 0.62313 0.91069 0.0
C78 C 0.6057 0.67227 0.91643 0.0
O79 O 0.62338 0.6786 0.93413 0.0
O80 O 0.61299 0.55973 0.94423 0.0
C81 C 0.93921 0.11963 0.1438 0.0
C82 C 0.91552 0.11283 0.12544 0.0
C83 C 0.9293 0.15225 0.15725 0.0
C84 C 0.89513 0.17863 0.15264 0.0
C85 C 0.87002 0.17026 0.13447 0.0
C86 C 0.87981 0.13761 0.12107 0.0
C87 C 0.88917 0.21904 0.1657 0.0
C88 C 0.89669 0.21981 0.18457 0.0
C89 C 0.89774 0.26425 0.19741 0.0
C90 C 0.89053 0.25322 0.21689 0.0
C91 C 0.89865 0.29595 0.22972 0.0
C92 C 0.91471 0.35113 0.2234 0.0
H93 H 0.91837 0.32977 0.17618 0.0
C94 C 0.91924 0.36157 0.20385 0.0
C95 C 0.91109 0.31876 0.19099 0.0
H96 H 0.93193 0.40365 0.19848 0.0
H97 H 0.96731 0.10151 0.1476 0.0
H98 H 0.95082 0.15862 0.1709 0.0
H99 H 0.84379 0.19017 0.13045 0.0
H100 H 0.86094 0.13341 0.10706 0.0
H101 H 0.87791 0.24912 0.15934 0.0
H102 H 0.90254 0.18651 0.19108 0.0
H103 H 0.88036 0.21181 0.22229 0.0
H104 H 0.89475 0.28627 0.24467 0.0
C105 C 0.84961 1.00896 0.44888 0.0
C106 C 0.90619 0.05559 0.44372 0.0
C107 C 0.8121 1.01617 0.46167 0.0
C108 C 0.83024 0.07023 0.46961 0.0
C109 C 0.88504 0.11745 0.46365 0.0
C110 C 0.92295 0.11019 0.45095 0.0
C111 C 0.79353 0.07737 0.48461 0.0
C112 C 0.76622 0.03743 0.49812 0.0
C113 C 0.72878 0.03971 0.51388 0.0
C114 C 0.71666 1.00207 0.529 0.0
C115 C 0.67549 0.9959 0.54301 0.0
C116 C 0.64507 0.02722 0.54235 0.0
H117 H 0.70877 0.1029 0.50214 0.0
C118 C 0.65954 0.06768 0.5279 0.0
C119 C 0.70103 0.07377 0.51366 0.0
H120 H 0.63632 0.09201 0.527 0.0
H121 H 0.83488 0.96645 0.44345 0.0
H122 H 0.76916 0.97915 0.46552 0.0
H123 H 0.89969 0.15963 0.46938 0.0
H124 H 0.96596 0.14717 0.44713 0.0
H125 H 0.79277 0.11718 0.48524 0.0
H126 H 0.77291 1.00065 0.49795 0.0
H127 H 0.73755 0.9756 0.52967 0.0
H128 H 0.66576 0.96476 0.55407 0.0
C129 C 0.90435 0.92732 0.81497 0.0
C130 C 0.91104 0.89696 0.79988 0.0
C131 C 0.86391 0.89828 0.82977 0.0
C132 C 0.82952 0.838 0.82988 0.0
C133 C 0.83793 0.80788 0.81508 0.0
C134 C 0.87808 0.83688 0.80028 0.0
C135 C 0.78242 0.8045 0.84444 0.0
C136 C 0.77447 0.82597 0.86074 0.0
C137 C 0.72705 0.78973 0.8748 0.0
C138 C 0.73799 0.80286 0.8941 0.0
C139 C 0.69674 0.76653 0.90772 0.0
C140 C 0.64323 0.71659 0.90227 0.0
H141 H 0.66032 0.73173 0.85456 0.0
C142 C 0.63025 0.7058 0.88289 0.0
C143 C 0.6716 0.74192 0.86932 0.0
H144 H 0.58919 0.66812 0.87815 0.0
H145 H 0.92874 0.97369 0.81503 0.0
H146 H 0.85867 0.92356 0.84066 0.0
H147 H 0.81231 0.76152 0.81472 0.0
H148 H 0.882 0.8121 0.78889 0.0
H149 H 0.7536 0.75903 0.84168 0.0
H150 H 0.8056 0.87007 0.86464 0.0
H151 H 0.77983 0.83996 0.89871 0.0
H152 H 0.70815 0.77633 0.9225 0.0
C153 C 0.11753 0.92473 0.12864 0.0
C154 C 0.08378 0.95272 0.1308 0.0
C155 C 0.11729 0.88827 0.14273 0.0
C156 C 0.08351 0.87931 0.15942 0.0
C157 C 0.05241 0.90969 0.16192 0.0
C158 C 0.05252 0.94596 0.14782 0.0
C159 C 0.07378 0.83457 0.17356 0.0
C160 C 0.10474 0.80597 0.1742 0.0
C161 C 0.08572 0.75528 0.18664 0.0
C162 C 0.12891 0.74158 0.1934 0.0
C163 C 0.11105 0.69317 0.20481 0.0
C164 C 0.04947 0.65713 0.20938 0.0
H165 H 0.98914 0.72609 0.18545 0.0
C166 C 1.00639 0.67033 0.20221 0.0
C167 C 0.02415 0.71851 0.19099 0.0
H168 H 0.95846 0.64338 0.20525 0.0
H169 H 0.14206 0.92891 0.11568 0.0
H170 H 0.1413 0.86542 0.13999 0.0
H171 H 0.02594 0.90374 0.17458 0.0
H172 H 0.02614 0.96692 0.14998 0.0
H173 H 0.03747 0.82343 0.1837 0.0
H174 H 0.14466 0.81932 0.16547 0.0
H175 H 0.17656 0.76866 0.19 0.0
H176 H 0.14533 0.68407 0.21005 0.0
C177 C 0.12378 0.93863 0.44994 0.0
C178 C 0.14548 0.99432 0.44293 0.0
C179 C 0.15918 0.92674 0.46217 0.0
C180 C 0.21717 0.97036 0.46776 0.0
C181 C 0.23996 0.02537 0.4601 0.0
C182 C 0.20445 0.03735 0.4479 0.0
C183 C 0.25449 0.96039 0.4818 0.0
C184 C 0.22998 0.92061 0.49555 0.0
C185 C 0.26623 0.91672 0.51135 0.0
C186 C 0.23909 0.89985 0.52921 0.0
C187 C 0.27337 0.90182 0.54491 0.0
C188 C 0.33532 0.91955 0.543 0.0
H189 H 0.34916 0.94276 0.49551 0.0
C190 C 0.36145 0.93231 0.52487 0.0
C191 C 0.32732 0.93121 0.50919 0.0
H192 H 0.4091 0.94612 0.52293 0.0
H193 H 0.07891 0.9042 0.44623 0.0
H194 H 0.14078 0.88334 0.46721 0.0
H195 H 0.28473 0.05966 0.464 0.0
H196 H 0.22281 0.08062 0.44268 0.0
H197 H 0.30305 0.99051 0.48194 0.0
H198 H 0.18092 0.89423 0.49658 0.0
H199 H 0.1919 0.88776 0.53122 0.0
H200 H 0.25186 0.89147 0.55867 0.0
C201 C 0.15258 0.17176 0.80889 0.0
C202 C 0.13307 0.19105 0.79342 0.0
C203 C 0.19597 0.21092 0.82152 0.0
C204 C 0.22031 0.27015 0.81895 0.0
C205 C 0.19863 0.28903 0.80398 0.0
C206 C 0.15597 0.25006 0.79126 0.0
C207 C 0.26787 0.31393 0.83148 0.0
C208 C 0.30829 0.30599 0.84146 0.0
C209 C 0.35748 0.3525 0.8529 0.0
C210 C 0.38037 0.33865 0.86887 0.0
C211 C 0.42358 0.3819 0.88057 0.0
C212 C 0.4448 0.43978 0.87639 0.0
H213 H 0.36807 0.42316 0.83544 0.0
C214 C 0.42473 0.4535 0.85978 0.0
C215 C 0.382 0.41052 0.84811 0.0
H216 H 0.44101 0.49771 0.85598 0.0
H217 H 0.13569 0.1265 0.81094 0.0
H218 H 0.21013 0.19458 0.83321 0.0
H219 H 0.21602 0.33434 0.80178 0.0
H220 H 0.14173 0.26631 0.77954 0.0
H221 H 0.27078 0.35544 0.83183 0.0
H222 H 0.30525 0.26443 0.84151 0.0
H223 H 0.36317 0.29431 0.8727 0.0
H224 H 0.43823 0.36998 0.89327 0.0
C225 C 0.83362 0.96747 0.71355 0.0
C226 C 0.87349 1.01928 0.7227 0.0
C227 C 0.78996 0.9643 0.70084 0.0
C228 C 0.78527 1.01305 0.69694 0.0
C229 C 0.82352 0.06413 0.70667 0.0
C230 C 0.86723 0.06733 0.71935 0.0
C231 C 0.74257 1.01349 0.68263 0.0
C232 C 0.71575 0.97418 0.66878 0.0
C233 C 0.67996 0.98076 0.65335 0.0
C234 C 0.63421 0.9321 0.64406 0.0
C235 C 0.60091 0.93771 0.62924 0.0
C236 C 0.61338 0.99223 0.62335 0.0
H237 H 0.72959 0.07384 0.65326 0.0
C238 C 0.66004 0.04074 0.63241 0.0
C239 C 0.69302 0.03517 0.64712 0.0
H240 H 0.67155 0.0835 0.62811 0.0
H241 H 0.83672 0.92941 0.71595 0.0
H242 H 0.76039 0.92359 0.69416 0.0
H243 H 0.8207 0.10229 0.7041 0.0
H244 H 0.89693 0.10785 0.72621 0.0
H245 H 0.73531 0.04985 0.6831 0.0
H246 H 0.72076 0.93662 0.66828 0.0
H247 H 0.62388 0.88967 0.64838 0.0
H248 H 0.56544 0.89953 0.62248 0.0
C249 C 0.92816 0.86506 0.04473 0.0
C250 C 0.9025 0.89561 0.05297 0.0
C251 C 0.89473 0.82015 0.03212 0.0
C252 C 0.83471 0.80466 0.0274 0.0
C253 C 0.80845 0.83401 0.03605 0.0
C254 C 0.84202 0.87921 0.0486 0.0
C255 C 0.79802 0.75791 1.01373 0.0
C256 C 0.82256 0.74255 0.99957 0.0
C257 C 0.78507 0.69942 0.985 0.0
C258 C 0.80746 0.70573 0.9665 0.0
C259 C 0.77091 0.66925 0.95206 0.0
C260 C 0.71145 0.62509 0.95591 0.0
H261 H 0.70923 0.64559 1.00334 0.0
C262 C 0.6908 0.61623 0.97473 0.0
C263 C 0.7271 0.65303 0.9891 0.0
H264 H 0.64546 0.58235 0.97828 0.0
H265 H 0.97445 0.8761 0.04787 0.0
H266 H 0.91601 0.79747 0.02625 0.0
H267 H 0.76208 0.82262 0.03283 0.0
H268 H 0.82068 0.90154 0.05474 0.0
H269 H 0.74895 0.73849 1.01456 0.0
H270 H 0.87144 0.76578 0.9975 0.0
H271 H 0.85236 0.74058 0.96302 0.0
H272 H 0.7884 0.6772 0.93777 0.0
C273 C 0.9057 0.81338 0.37112 0.0
C274 C 0.94204 0.87287 0.3686 0.0
C275 C 0.89886 0.7754 0.35659 0.0
C276 C 0.92804 0.79612 0.33909 0.0
C277 C 0.96239 0.85565 0.33638 0.0
C278 C 0.96922 0.8936 0.35091 0.0
C279 C 0.92904 0.75775 0.32408 0.0
C280 C 0.89072 0.70064 0.3232 0.0
C281 C 0.89872 0.663 0.30946 0.0
C282 C 0.84828 0.61074 0.30388 0.0
C283 C 0.85531 0.57365 0.29158 0.0
C284 C 0.9132 0.58774 0.28485 0.0
H285 H 0.99693 0.71556 0.30721 0.0
C286 C 0.96362 0.63981 0.29061 0.0
C287 C 0.95656 0.67683 0.30275 0.0
H288 H 1.009 0.65207 0.28582 0.0
H289 H 0.88427 0.79593 0.3846 0.0
H290 H 0.87297 0.73004 0.35951 0.0
H291 H 0.9856 0.87298 0.32311 0.0
H292 H 0.99755 0.93914 0.34848 0.0
H293 H 0.96395 0.77787 0.31333 0.0
H294 H 0.8521 0.68043 0.33268 0.0
H295 H 0.80329 0.5986 0.30904 0.0
H296 H 0.81556 0.53379 0.2875 0.0
C297 C 0.15952 0.98837 0.71768 0.0
C298 C 0.15593 0.03753 0.72178 0.0
C299 C 0.20181 0.99063 0.70455 0.0
C300 C 0.24125 0.04212 0.69512 0.0
C301 C 0.23957 0.09172 0.6999 0.0
C302 C 0.19723 0.08946 0.71299 0.0
C303 C 0.28442 0.04552 0.68026 0.0
C304 C 0.27314 1.00047 0.6693 0.0
C305 C 0.3148 1.00094 0.65446 0.0
C306 C 0.30858 0.94825 0.6492 0.0
C307 C 0.34515 0.94512 0.63518 0.0
C308 C 0.38867 0.99463 0.62575 0.0
H309 H 0.36346 0.09224 0.64844 0.0
C310 C 0.39482 0.04769 0.63077 0.0
C311 C 0.35829 0.05092 0.64508 0.0
H312 H 0.42779 0.08651 0.62369 0.0
H313 H 0.12894 0.94786 0.72435 0.0
H314 H 0.20335 0.95191 0.70186 0.0
H315 H 0.26995 0.13209 0.6931 0.0
H316 H 0.19621 0.12836 0.71593 0.0
H317 H 0.32531 0.0865 0.67803 0.0
H318 H 0.23145 0.96006 0.67146 0.0
H319 H 0.27532 0.90905 0.65605 0.0
H320 H 0.33869 0.90337 0.63166 0.0
C321 C 0.19629 0.19365 0.05454 0.0
C322 C 0.13717 0.18288 0.05821 0.0
C323 C 0.23479 0.23806 0.04246 0.0
C324 C 0.21492 0.27262 0.0337 0.0
C325 C 0.15725 0.26405 0.03823 0.0
C326 C 0.11858 0.21943 0.05025 0.0
C327 C 0.2526 0.31635 0.01934 0.0
C328 C 0.28848 0.30793 1.00733 0.0
C329 C 0.32507 0.34738 0.99183 0.0
C330 C 0.3474 0.32576 0.97791 0.0
C331 C 0.38576 0.36109 0.96376 0.0
C332 C 0.40324 0.41935 0.96311 0.0
H333 H 0.32518 0.424 1.00153 0.0
C334 C 0.37945 0.44109 0.97661 0.0
C335 C 0.34077 0.40542 0.99093 0.0
H336 H 0.39245 0.48592 0.97651 0.0
H337 H 0.21242 0.16687 0.06061 0.0
H338 H 0.27986 0.2448 0.03984 0.0
H339 H 0.14115 0.2905 0.03188 0.0
H340 H 0.07355 0.21278 0.05292 0.0
H341 H 0.24659 0.35316 0.01769 0.0
H342 H 0.28917 0.26807 1.00829 0.0
H343 H 0.33599 0.28132 0.97813 0.0
H344 H 0.40277 0.34271 0.9535 0.0
C345 C 0.07237 0.1677 0.35492 0.0
C346 C 0.11069 0.18563 0.37079 0.0
C347 C 0.0772 0.20738 0.34135 0.0
C348 C 0.12084 0.26574 0.34329 0.0
C349 C 0.16203 0.28291 0.35838 0.0
C350 C 0.15663 0.24339 0.37213 0.0
C351 C 0.12134 0.30975 0.33057 0.0
C352 C 0.06912 0.30682 0.32515 0.0
C353 C 0.06562 0.35298 0.31487 0.0
C354 C 0.01565 0.36016 0.31843 0.0
C355 C 1.00794 0.40059 0.30851 0.0
C356 C 0.04933 0.43422 0.29438 0.0
H357 H 0.14706 0.38254 0.29793 0.0
C358 C 0.10006 0.42772 0.29089 0.0
C359 C 0.10843 0.38767 0.30117 0.0
H360 H 0.13257 0.45278 0.28003 0.0
H361 H 0.03674 0.12349 0.35341 0.0
H362 H 0.04573 0.19261 0.32959 0.0
H363 H 0.19638 0.32752 0.3601 0.0
H364 H 0.18717 0.25847 0.38411 0.0
H365 H 0.16448 0.348 0.32757 0.0
H366 H 0.02634 0.27105 0.33002 0.0
H367 H 0.98202 0.33401 0.32889 0.0
H368 H 0.96818 0.40406 0.31158 0.0
loop_
_geom_bond_atom_site_label_1
_geom_bond_atom_site_label_2
_geom_bond_distance
_geom_bond_site_symmetry_2
_ccdc_geom_bond_type
O0 Cd1 2.223 1_455 S
O0 C8 1.315 . S
Cd1 O0 2.223 1_655 S
Cd1 O4 2.297 . S
Cd1 O5 2.439 . S
Cd1 O11 2.240 1_545 S
Cd2 O3 2.240 1_565 S
Cd2 O10 2.223 1_455 S
Cd2 O12 2.297 . S
Cd2 O13 2.439 . S
O3 Cd2 2.240 1_545 S
O3 C8 1.279 . S
O4 Cd1 2.297 . S
O4 C6 1.247 . S
O5 Cd1 2.439 . S
O5 C6 1.208 . S
C6 O4 1.247 . S
C6 O5 1.208 . S
C7 O12 1.247 . S
C7 O13 1.208 . S
C8 O0 1.315 . S
C8 O3 1.279 . S
C9 O10 1.315 . S
C9 O11 1.279 . S
O10 Cd2 2.223 1_655 S
O10 C9 1.315 . S
O11 Cd1 2.240 1_565 S
O11 C9 1.279 . S
O12 Cd2 2.297 . S
O12 C7 1.247 . S
O13 Cd2 2.439 . S
O13 C7 1.208 . S
O14 Cd15 2.223 1_655 S
O14 C22 1.315 . S
Cd15 O14 2.223 1_455 S
Cd15 O18 2.297 . S
Cd15 O19 2.439 . S
Cd15 O25 2.240 . S
Cd16 O17 2.240 . S
Cd16 O24 2.223 1_655 S
Cd16 O26 2.297 . S
Cd16 O27 2.439 . S
O17 Cd16 2.240 . S
O17 C22 1.279 1_565 S
O18 Cd15 2.297 . S
O18 C20 1.247 . S
O19 Cd15 2.439 . S
O19 C20 1.208 . S
C20 O18 1.247 . S
C20 O19 1.208 . S
C21 O26 1.247 . S
C21 O27 1.208 . S
C22 O14 1.315 . S
C22 O17 1.279 1_545 S
C23 O24 1.315 . S
C23 O25 1.279 1_565 S
O24 Cd16 2.223 1_455 S
O24 C23 1.315 . S
O25 Cd15 2.240 . S
O25 C23 1.279 1_545 S
O26 Cd16 2.297 . S
O26 C21 1.247 . S
O27 Cd16 2.439 . S
O27 C21 1.208 . S
O28 Cd29 2.223 . S
O28 C36 1.315 . S
Cd29 O28 2.223 . S
Cd29 O32 2.297 . S
Cd29 O33 2.439 . S
Cd29 O39 2.240 1_655 S
Cd30 O31 2.240 1_455 S
Cd30 O38 2.223 . S
Cd30 O40 2.297 . S
Cd30 O41 2.439 . S
O31 Cd30 2.240 1_655 S
O31 C36 1.279 1_545 S
O32 Cd29 2.297 . S
O32 C34 1.247 . S
O33 Cd29 2.439 . S
O33 C34 1.208 . S
C34 O32 1.247 . S
C34 O33 1.208 . S
C35 O40 1.247 . S
C35 O41 1.208 . S
C36 O28 1.315 . S
C36 O31 1.279 1_565 S
C37 O38 1.315 . S
C37 O39 1.279 1_545 S
O38 Cd30 2.223 . S
O38 C37 1.315 . S
O39 Cd29 2.240 1_455 S
O39 C37 1.279 1_565 S
O40 Cd30 2.297 . S
O40 C35 1.247 . S
O41 Cd30 2.439 . S
O41 C35 1.208 . S
Mg42 O49 2.141 . S
Mg42 O50 2.048 . S
Mg42 O51 2.048 . S
Mg42 O54 2.141 . S
C43 O44 1.313 . S
C43 O50 1.195 1_655 S
O44 C43 1.313 . S
C45 O46 1.245 . S
C45 O54 1.289 1_655 S
O46 C45 1.245 . S
C47 O48 1.245 . S
C47 O49 1.289 1_655 S
O48 C47 1.245 . S
O49 Mg42 2.141 . S
O49 C47 1.289 1_455 S
O50 Mg42 2.048 . S
O50 C43 1.195 1_455 S
O51 Mg42 2.048 . S
O51 C52 1.195 1_455 S
C52 O51 1.195 1_655 S
C52 O53 1.313 . S
O53 C52 1.313 . S
O54 Mg42 2.141 . S
O54 C45 1.289 1_455 S
Mg55 O62 2.141 . S
Mg55 O63 2.048 . S
Mg55 O64 2.048 . S
Mg55 O67 2.141 . S
C56 O57 1.313 . S
C56 O63 1.195 1_565 S
O57 C56 1.313 . S
C58 O59 1.245 . S
C58 O67 1.289 1_565 S
O59 C58 1.245 . S
C60 O61 1.245 . S
C60 O62 1.289 1_565 S
O61 C60 1.245 . S
O62 Mg55 2.141 . S
O62 C60 1.289 1_545 S
O63 Mg55 2.048 . S
O63 C56 1.195 1_545 S
O64 Mg55 2.048 . S
O64 C65 1.195 1_545 S
C65 O64 1.195 1_565 S
C65 O66 1.313 . S
O66 C65 1.313 . S
O67 Mg55 2.141 . S
O67 C58 1.289 1_545 S
Mg68 O75 2.141 . S
Mg68 O76 2.048 . S
Mg68 O77 2.048 . S
Mg68 O80 2.141 . S
C69 O70 1.313 . S
C69 O76 1.195 . S
O70 C69 1.313 . S
C71 O72 1.245 . S
C71 O80 1.289 . S
O72 C71 1.245 . S
C73 O74 1.245 . S
C73 O75 1.289 . S
O74 C73 1.245 . S
O75 Mg68 2.141 . S
O75 C73 1.289 . S
O76 Mg68 2.048 . S
O76 C69 1.195 . S
O77 Mg68 2.048 . S
O77 C78 1.195 . S
C78 O77 1.195 . S
C78 O79 1.313 . S
O79 C78 1.313 . S
O80 Mg68 2.141 . S
O80 C71 1.289 . S
C81 C82 1.386 1_655 S
C81 C83 1.383 . S
C81 H97 0.951 . S
C82 C81 1.386 1_455 S
C82 C86 1.383 . S
C83 C81 1.383 . S
C83 C84 1.402 1_655 S
C83 H98 0.951 . S
C84 C83 1.402 1_455 S
C84 C85 1.375 . S
C84 C87 1.481 . S
C85 C84 1.375 . S
C85 C86 1.367 . S
C85 H99 0.951 . S
C86 C82 1.383 . S
C86 C85 1.367 . S
C86 H100 0.950 . S
C87 C84 1.481 . S
C87 C88 1.297 . S
C87 H101 0.950 . S
C88 C87 1.297 . S
C88 C89 1.479 . S
C88 H102 0.950 1_455 S
C89 C88 1.479 . S
C89 C90 1.375 1_455 S
C89 C95 1.404 . S
C90 C89 1.375 1_655 S
C90 C91 1.369 . S
C90 H103 0.950 . S
C91 C90 1.369 . S
C91 C92 1.392 1_655 S
C91 H104 0.951 . S
C92 C91 1.392 1_455 S
C92 C94 1.384 . S
H93 C95 0.949 . S
C94 C92 1.384 . S
C94 C95 1.385 . S
C94 H96 0.950 . S
C95 C89 1.404 . S
C95 H93 0.949 . S
C95 C94 1.385 . S
H96 C94 0.950 . S
H97 C81 0.951 . S
H98 C83 0.951 . S
H99 C85 0.951 . S
H100 C86 0.950 . S
H101 C87 0.950 . S
H102 C88 0.950 1_655 S
H103 C90 0.950 . S
H104 C91 0.951 . S
C105 C106 1.386 1_565 S
C105 C107 1.383 . S
C105 H121 0.951 . S
C106 C105 1.386 1_545 S
C106 C110 1.383 . S
C107 C105 1.383 . S
C107 C108 1.402 1_565 S
C107 H122 0.951 . S
C108 C107 1.402 1_545 S
C108 C109 1.375 . S
C108 C111 1.481 . S
C109 C108 1.375 . S
C109 C110 1.367 . S
C109 H123 0.951 . S
C110 C106 1.383 . S
C110 C109 1.367 . S
C110 H124 0.950 . S
C111 C108 1.481 . S
C111 C112 1.297 . S
C111 H125 0.950 . S
C112 C111 1.297 . S
C112 C113 1.479 . S
C112 H126 0.959 . S
C113 C112 1.479 . S
C113 C114 1.375 1_545 S
C113 C119 1.404 . S
C114 C113 1.375 1_565 S
C114 C115 1.369 . S
C114 H127 0.950 . S
C115 C114 1.369 . S
C115 C116 1.392 1_565 S
C115 H128 0.951 . S
C116 C115 1.392 1_545 S
C116 C118 1.384 . S
H117 C119 0.949 . S
C118 C116 1.384 . S
C118 C119 1.385 . S
C118 H120 0.950 . S
C119 C113 1.404 . S
C119 H117 0.949 . S
C119 C118 1.385 . S
H120 C118 0.950 . S
H121 C105 0.951 . S
H122 C107 0.951 . S
H123 C109 0.951 . S
H124 C110 0.950 . S
H125 C111 0.950 . S
H126 C112 0.959 . S
H127 C114 0.950 . S
H128 C115 0.951 . S
C129 C130 1.386 . S
C129 C131 1.383 . S
C129 H145 0.951 . S
C130 C129 1.386 . S
C130 C134 1.383 . S
C131 C129 1.383 . S
C131 C132 1.402 . S
C131 H146 0.951 . S
C132 C131 1.402 . S
C132 C133 1.375 . S
C132 C135 1.481 . S
C133 C132 1.375 . S
C133 C134 1.367 . S
C133 H147 0.951 . S
C134 C130 1.383 . S
C134 C133 1.367 . S
C134 H148 0.950 . S
C135 C132 1.481 . S
C135 C136 1.297 . S
C135 H149 0.950 . S
C136 C135 1.297 . S
C136 C137 1.479 . S
C136 H150 0.950 . S
C137 C136 1.479 . S
C137 C138 1.375 . S
C137 C143 1.404 . S
C138 C137 1.375 . S
C138 C139 1.369 . S
C138 H151 0.950 . S
C139 C138 1.369 . S
C139 C140 1.392 . S
C139 H152 0.951 . S
C140 C139 1.392 . S
C140 C142 1.384 . S
H141 C143 0.949 . S
C142 C140 1.384 . S
C142 C143 1.385 . S
C142 H144 0.950 . S
C143 C137 1.404 . S
C143 H141 0.949 . S
C143 C142 1.385 . S
H144 C142 0.950 . S
H145 C129 0.951 . S
H146 C131 0.951 . S
H147 C133 0.951 . S
H148 C134 0.950 . S
H149 C135 0.950 . S
H150 C136 0.950 . S
H151 C138 0.950 . S
H152 C139 0.951 . S
C153 C154 1.386 1_455 S
C153 C155 1.383 . S
C153 H169 0.951 . S
C154 C153 1.386 1_655 S
C154 C158 1.383 . S
C155 C153 1.383 . S
C155 C156 1.402 1_455 S
C155 H170 0.951 . S
C156 C155 1.402 1_655 S
C156 C157 1.375 . S
C156 C159 1.481 . S
C157 C156 1.375 . S
C157 C158 1.367 . S
C157 H171 0.951 . S
C158 C154 1.383 . S
C158 C157 1.367 . S
C158 H172 0.950 . S
C159 C156 1.481 . S
C159 C160 1.297 1_655 S
C159 H173 0.950 . S
C160 C159 1.297 1_455 S
C160 C161 1.479 . S
C160 H174 0.950 . S
C161 C160 1.479 . S
C161 C162 1.375 . S
C161 C167 1.404 1_455 S
C162 C161 1.375 . S
C162 C163 1.369 . S
C162 H175 0.950 . S
C163 C162 1.369 . S
C163 C164 1.392 . S
C163 H176 0.951 . S
C164 C163 1.392 . S
C164 C166 1.384 1_455 S
H165 C167 0.949 . S
C166 C164 1.384 1_655 S
C166 C167 1.385 . S
C166 H168 0.950 . S
C167 C161 1.404 1_655 S
C167 H165 0.949 . S
C167 C166 1.385 . S
H168 C166 0.950 . S
H169 C153 0.951 . S
H170 C155 0.951 . S
H171 C157 0.951 . S
H172 C158 0.950 . S
H173 C159 0.950 . S
H174 C160 0.950 . S
H175 C162 0.950 . S
H176 C163 0.951 . S
C177 C178 1.386 . S
C177 C179 1.383 . S
C177 H193 0.951 . S
C178 C177 1.386 . S
C178 C182 1.383 1_565 S
C179 C177 1.383 . S
C179 C180 1.402 1_565 S
C179 H194 0.951 . S
C180 C179 1.402 1_545 S
C180 C181 1.375 . S
C180 C183 1.481 . S
C181 C180 1.375 . S
C181 C182 1.367 . S
C181 H195 0.951 . S
C182 C178 1.383 1_545 S
C182 C181 1.367 . S
C182 H196 0.950 . S
C183 C180 1.481 . S
C183 C184 1.297 1_545 S
C183 H197 0.950 . S
C184 C183 1.297 1_565 S
C184 C185 1.479 . S
C184 H198 0.950 . S
C185 C184 1.479 . S
C185 C186 1.375 . S
C185 C191 1.404 1_565 S
C186 C185 1.375 . S
C186 C187 1.369 . S
C186 H199 0.950 . S
C187 C186 1.369 . S
C187 C188 1.392 . S
C187 H200 0.951 . S
C188 C187 1.392 . S
C188 C190 1.384 1_565 S
H189 C191 0.949 . S
C190 C188 1.384 1_545 S
C190 C191 1.385 . S
C190 H192 0.950 . S
C191 C185 1.404 1_545 S
C191 H189 0.949 . S
C191 C190 1.385 . S
H192 C190 0.950 . S
H193 C177 0.951 . S
H194 C179 0.951 . S
H195 C181 0.951 . S
H196 C182 0.950 . S
H197 C183 0.950 . S
H198 C184 0.950 . S
H199 C186 0.950 . S
H200 C187 0.951 . S
C201 C202 1.386 . S
C201 C203 1.383 . S
C201 H217 0.951 . S
C202 C201 1.386 . S
C202 C206 1.383 . S
C203 C201 1.383 . S
C203 C204 1.402 . S
C203 H218 0.951 . S
C204 C203 1.402 . S
C204 C205 1.375 . S
C204 C207 1.481 . S
C205 C204 1.375 . S
C205 C206 1.367 . S
C205 H219 0.951 . S
C206 C202 1.383 . S
C206 C205 1.367 . S
C206 H220 0.950 . S
C207 C204 1.481 . S
C207 C208 1.297 . S
C207 H221 0.950 . S
C208 C207 1.297 . S
C208 C209 1.479 . S
C208 H222 0.950 . S
C209 C208 1.479 . S
C209 C210 1.375 . S
C209 C215 1.404 . S
C210 C209 1.375 . S
C210 C211 1.369 . S
C210 H223 0.950 . S
C211 C210 1.369 . S
C211 C212 1.392 . S
C211 H224 0.951 . S
C212 C211 1.392 . S
C212 C214 1.384 . S
H213 C215 0.949 . S
C214 C212 1.384 . S
C214 C215 1.385 . S
C214 H216 0.950 . S
C215 C209 1.404 . S
C215 H213 0.949 . S
C215 C214 1.385 . S
H216 C214 0.950 . S
H217 C201 0.951 . S
H218 C203 0.951 . S
H219 C205 0.951 . S
H220 C206 0.950 . S
H221 C207 0.950 . S
H222 C208 0.950 . S
H223 C210 0.950 . S
H224 C211 0.951 . S
C225 C226 1.386 . S
C225 C227 1.383 1_565 S
C225 H241 0.951 . S
C226 C225 1.386 . S
C226 C230 1.382 . S
C227 C225 1.383 1_545 S
C227 C228 1.402 . S
C227 H242 0.951 . S
C228 C227 1.402 . S
C228 C229 1.375 . S
C228 C231 1.481 . S
C229 C228 1.375 . S
C229 C230 1.365 1_545 S
C229 H243 0.951 . S
C230 C226 1.382 . S
C230 C229 1.365 1_565 S
C230 H244 0.953 . S
C231 C228 1.481 . S
C231 C232 1.297 . S
C231 H245 0.950 . S
C232 C231 1.297 . S
C232 C233 1.479 . S
C232 H246 0.950 . S
C233 C232 1.479 . S
C233 C234 1.375 . S
C233 C239 1.404 . S
C234 C233 1.375 . S
C234 C235 1.369 . S
C234 H247 0.950 . S
C235 C234 1.369 . S
C235 C236 1.392 . S
C235 H248 0.951 . S
C236 C235 1.392 . S
C236 C238 1.384 . S
H237 C239 0.949 . S
C238 C236 1.384 . S
C238 C239 1.385 . S
C238 H240 0.950 . S
C239 C233 1.404 . S
C239 H237 0.949 . S
C239 C238 1.385 . S
H240 C238 0.950 . S
H241 C225 0.951 . S
H242 C227 0.951 . S
H243 C229 0.951 . S
H244 C230 0.953 . S
H245 C231 0.950 . S
H246 C232 0.950 . S
H247 C234 0.950 . S
H248 C235 0.951 . S
C249 C250 1.386 . S
C249 C251 1.383 . S
C249 H265 0.951 . S
C250 C249 1.386 . S
C250 C254 1.383 . S
C251 C249 1.383 . S
C251 C252 1.402 . S
C251 H266 0.951 . S
C252 C251 1.402 . S
C252 C253 1.375 . S
C252 C255 1.481 1_554 S
C253 C252 1.375 . S
C253 C254 1.367 . S
C253 H267 0.951 . S
C254 C250 1.383 . S
C254 C253 1.367 . S
C254 H268 0.950 . S
C255 C252 1.481 1_556 S
C255 C256 1.297 . S
C255 H269 0.950 . S
C256 C255 1.297 . S
C256 C257 1.479 . S
C256 H270 0.950 . S
C257 C256 1.479 . S
C257 C258 1.375 . S
C257 C263 1.404 . S
C258 C257 1.375 . S
C258 C259 1.369 . S
C258 H271 0.950 . S
C259 C258 1.369 . S
C259 C260 1.392 . S
C259 H272 0.951 . S
C260 C259 1.392 . S
C260 C262 1.384 . S
H261 C263 0.949 . S
C262 C260 1.384 . S
C262 C263 1.385 . S
C262 H264 0.950 . S
C263 C257 1.404 . S
C263 H261 0.949 . S
C263 C262 1.385 . S
H264 C262 0.950 . S
H265 C249 0.951 . S
H266 C251 0.951 . S
H267 C253 0.951 . S
H268 C254 0.950 . S
H269 C255 0.950 . S
H270 C256 0.950 . S
H271 C258 0.950 . S
H272 C259 0.951 . S
C273 C274 1.386 1_655 S
C273 C275 1.383 . S
C273 H289 0.951 . S
C274 C273 1.386 1_455 S
C274 C278 1.383 . S
C275 C273 1.383 . S
C275 C276 1.402 1_655 S
C275 H290 0.951 . S
C276 C275 1.402 1_455 S
C276 C277 1.375 . S
C276 C279 1.481 . S
C277 C276 1.375 . S
C277 C278 1.367 . S
C277 H291 0.951 . S
C278 C274 1.383 . S
C278 C277 1.367 . S
C278 H292 0.950 . S
C279 C276 1.481 . S
C279 C280 1.297 1_455 S
C279 H293 0.950 . S
C280 C279 1.297 1_655 S
C280 C281 1.479 . S
C280 H294 0.950 . S
C281 C280 1.479 . S
C281 C282 1.375 . S
C281 C287 1.404 1_655 S
C282 C281 1.375 . S
C282 C283 1.369 . S
C282 H295 0.950 . S
C283 C282 1.369 . S
C283 C284 1.392 . S
C283 H296 0.951 . S
C284 C283 1.392 . S
C284 C286 1.384 1_655 S
H285 C287 0.949 . S
C286 C284 1.384 1_455 S
C286 C287 1.385 . S
C286 H288 0.950 . S
C287 C281 1.404 1_455 S
C287 H285 0.949 . S
C287 C286 1.385 . S
H288 C286 0.950 . S
H289 C273 0.951 . S
H290 C275 0.951 . S
H291 C277 0.951 . S
H292 C278 0.950 . S
H293 C279 0.950 . S
H294 C280 0.950 . S
H295 C282 0.950 . S
H296 C283 0.951 . S
C297 C298 1.386 1_565 S
C297 C299 1.383 . S
C297 H313 0.951 . S
C298 C297 1.386 1_545 S
C298 C302 1.383 . S
C299 C297 1.383 . S
C299 C300 1.402 1_565 S
C299 H314 0.951 . S
C300 C299 1.402 1_545 S
C300 C301 1.375 . S
C300 C303 1.481 . S
C301 C300 1.375 . S
C301 C302 1.367 . S
C301 H315 0.951 . S
C302 C298 1.383 . S
C302 C301 1.367 . S
C302 H316 0.950 . S
C303 C300 1.481 . S
C303 C304 1.297 . S
C303 H317 0.950 . S
C304 C303 1.297 . S
C304 C305 1.479 . S
C304 H318 0.950 1_545 S
C305 C304 1.479 . S
C305 C306 1.375 1_545 S
C305 C311 1.404 . S
C306 C305 1.375 1_565 S
C306 C307 1.369 . S
C306 H319 0.950 . S
C307 C306 1.369 . S
C307 C308 1.392 1_565 S
C307 H320 0.951 . S
C308 C307 1.392 1_545 S
C308 C310 1.384 . S
H309 C311 0.949 . S
C310 C308 1.384 . S
C310 C311 1.385 . S
C310 H312 0.950 . S
C311 C305 1.404 . S
C311 H309 0.949 . S
C311 C310 1.385 . S
H312 C310 0.950 . S
H313 C297 0.951 . S
H314 C299 0.951 . S
H315 C301 0.951 . S
H316 C302 0.950 . S
H317 C303 0.950 . S
H318 C304 0.950 1_565 S
H319 C306 0.950 . S
H320 C307 0.951 . S
C321 C322 1.386 . S
C321 C323 1.383 . S
C321 H337 0.951 . S
C322 C321 1.386 . S
C322 C326 1.383 . S
C323 C321 1.383 . S
C323 C324 1.402 . S
C323 H338 0.951 1_554 S
C324 C323 1.402 . S
C324 C325 1.375 . S
C324 C327 1.481 1_554 S
C325 C324 1.375 . S
C325 C326 1.367 . S
C325 H339 0.951 . S
C326 C322 1.383 . S
C326 C325 1.367 . S
C326 H340 0.950 . S
C327 C324 1.481 1_556 S
C327 C328 1.297 . S
C327 H341 0.950 1_556 S
C328 C327 1.297 . S
C328 C329 1.479 . S
C328 H342 0.950 . S
C329 C328 1.479 . S
C329 C330 1.375 . S
C329 C335 1.404 . S
C330 C329 1.375 . S
C330 C331 1.369 . S
C330 H343 0.950 . S
C331 C330 1.369 . S
C331 C332 1.392 . S
C331 H344 0.951 . S
C332 C331 1.392 . S
C332 C334 1.384 . S
H333 C335 0.949 . S
C334 C332 1.384 . S
C334 C335 1.385 . S
C334 H336 0.950 . S
C335 C329 1.404 . S
C335 H333 0.949 . S
C335 C334 1.385 . S
H336 C334 0.950 . S
H337 C321 0.951 . S
H338 C323 0.951 1_556 S
H339 C325 0.951 . S
H340 C326 0.950 . S
H341 C327 0.950 1_554 S
H342 C328 0.950 . S
H343 C330 0.950 . S
H344 C331 0.951 . S
C345 C346 1.395 . S
C345 C347 1.383 . S
C345 H361 0.951 . S
C346 C345 1.395 . S
C346 C350 1.376 1_655 S
C347 C345 1.383 . S
C347 C348 1.402 1_655 S
C347 H362 0.951 . S
C348 C347 1.402 1_455 S
C348 C349 1.375 . S
C348 C351 1.481 . S
C349 C348 1.375 . S
C349 C350 1.367 . S
C349 H363 0.951 . S
C350 C346 1.376 1_455 S
C350 C349 1.367 . S
C350 H364 0.950 . S
C351 C348 1.481 . S
C351 C352 1.297 1_455 S
C351 H365 0.950 . S
C352 C351 1.297 1_655 S
C352 C353 1.479 1_655 S
C352 H366 0.950 . S
C353 C352 1.479 1_455 S
C353 C354 1.375 1_455 S
C353 C359 1.404 . S
C354 C353 1.375 1_655 S
C354 C355 1.369 . S
C354 H367 0.950 . S
C355 C354 1.369 . S
C355 C356 1.392 1_655 S
C355 H368 0.951 . S
C356 C355 1.392 1_455 S
C356 C358 1.384 . S
H357 C359 0.949 . S
C358 C356 1.384 . S
C358 C359 1.385 . S
C358 H360 0.950 . S
C359 C353 1.404 . S
C359 H357 0.949 . S
C359 C358 1.385 . S
H360 C358 0.950 . S
H361 C345 0.951 . S
H362 C347 0.951 . S
H363 C349 0.951 . S
H364 C350 0.950 . S
H365 C351 0.950 . S
H366 C352 0.950 . S
H367 C354 0.950 . S
H368 C355 0.951 . S
C92 C47 1.420 1_455 S
C82 C6 1.414 1_455 S
C106 C22 1.524 . S
C116 C65 1.564 1_545 S
C130 C34 1.290 . S
C140 C78 1.301 . S
C154 C7 1.420 1_655 S
C164 C45 1.413 1_455 S
C188 C56 1.535 . S
C178 C23 1.541 . S
C202 C35 1.295 . S
C212 C69 1.271 . S
C236 C58 1.497 1_545 S
C226 C36 1.492 . S
C250 C9 1.697 . S
C260 C71 1.700 . S
C284 C52 1.474 . S
C274 C21 1.489 1_455 S
C308 C60 1.491 1_545 S
C298 C37 1.460 . S
C332 C73 1.712 . S
C322 C8 1.665 . S
C346 C20 1.451 1_655 S
C356 C43 1.478 1_455 S
