# Generated by pormake.
# Topology gar, (4,6)-cn, num edge types: 1
# Building blocks:
#     Node 0, Type 0, BuildingBlock: AZAVOO_clean_sbu_0, # of connection points: 4
#     Node 1, Type 0, BuildingBlock: AZAVOO_clean_sbu_0, # of connection points: 4
#     Node 2, Type 0, BuildingBlock: AZAVOO_clean_sbu_0, # of connection points: 4
#     Node 3, Type 0, BuildingBlock: AZAVOO_clean_sbu_0, # of connection points: 4
#     Node 4, Type 0, BuildingBlock: AZAVOO_clean_sbu_0, # of connection points: 4
#     Node 5, Type 0, BuildingBlock: AZAVOO_clean_sbu_0, # of connection points: 4
#     Node 6, Type 0, BuildingBlock: AZAVOO_clean_sbu_0, # of connection points: 4
#     Node 7, Type 0, BuildingBlock: AZAVOO_clean_sbu_0, # of connection points: 4
#     Node 8, Type 0, BuildingBlock: AZAVOO_clean_sbu_0, # of connection points: 4
#     Node 9, Type 0, BuildingBlock: AZAVOO_clean_sbu_0, # of connection points: 4
#     Node 10, Type 0, BuildingBlock: AZAVOO_clean_sbu_0, # of connection points: 4
#     Node 11, Type 0, BuildingBlock: AZAVOO_clean_sbu_0, # of connection points: 4
#     Node 12, Type 0, BuildingBlock: AZAVOO_clean_sbu_0, # of connection points: 4
#     Node 13, Type 0, BuildingBlock: AZAVOO_clean_sbu_0, # of connection points: 4
#     Node 14, Type 0, BuildingBlock: AZAVOO_clean_sbu_0, # of connection points: 4
#     Node 15, Type 0, BuildingBlock: AZAVOO_clean_sbu_0, # of connection points: 4
#     Node 16, Type 0, BuildingBlock: AZAVOO_clean_sbu_0, # of connection points: 4
#     Node 17, Type 0, BuildingBlock: AZAVOO_clean_sbu_0, # of connection points: 4
#     Node 18, Type 0, BuildingBlock: AZAVOO_clean_sbu_0, # of connection points: 4
#     Node 19, Type 0, BuildingBlock: AZAVOO_clean_sbu_0, # of connection points: 4
#     Node 20, Type 0, BuildingBlock: AZAVOO_clean_sbu_0, # of connection points: 4
#     Node 21, Type 0, BuildingBlock: AZAVOO_clean_sbu_0, # of connection points: 4
#     Node 22, Type 0, BuildingBlock: AZAVOO_clean_sbu_0, # of connection points: 4
#     Node 23, Type 0, BuildingBlock: AZAVOO_clean_sbu_0, # of connection points: 4
#     Node 24, Type 1, BuildingBlock: CUWYAW_clean_sbu_0, # of connection points: 6
#     Node 25, Type 1, BuildingBlock: CUWYAW_clean_sbu_0, # of connection points: 6
#     Node 26, Type 1, BuildingBlock: CUWYAW_clean_sbu_0, # of connection points: 6
#     Node 27, Type 1, BuildingBlock: CUWYAW_clean_sbu_0, # of connection points: 6
#     Node 28, Type 1, BuildingBlock: CUWYAW_clean_sbu_0, # of connection points: 6
#     Node 29, Type 1, BuildingBlock: CUWYAW_clean_sbu_0, # of connection points: 6
#     Node 30, Type 1, BuildingBlock: CUWYAW_clean_sbu_0, # of connection points: 6
#     Node 31, Type 1, BuildingBlock: CUWYAW_clean_sbu_0, # of connection points: 6
#     Node 32, Type 1, BuildingBlock: CUWYAW_clean_sbu_0, # of connection points: 6
#     Node 33, Type 1, BuildingBlock: CUWYAW_clean_sbu_0, # of connection points: 6
#     Node 34, Type 1, BuildingBlock: CUWYAW_clean_sbu_0, # of connection points: 6
#     Node 35, Type 1, BuildingBlock: CUWYAW_clean_sbu_0, # of connection points: 6
#     Node 36, Type 1, BuildingBlock: CUWYAW_clean_sbu_0, # of connection points: 6
#     Node 37, Type 1, BuildingBlock: CUWYAW_clean_sbu_0, # of connection points: 6
#     Node 38, Type 1, BuildingBlock: CUWYAW_clean_sbu_0, # of connection points: 6
#     Node 39, Type 1, BuildingBlock: CUWYAW_clean_sbu_0, # of connection points: 6
#     Edge 40, Type (0, 1), BuildingBlock: TEMPAE_clean_linker_10, # of connection points: 2
#     Edge 41, Type (0, 1), BuildingBlock: TEMPAE_clean_linker_10, # of connection points: 2
#     Edge 42, Type (0, 1), BuildingBlock: TEMPAE_clean_linker_10, # of connection points: 2
#     Edge 43, Type (0, 1), BuildingBlock: TEMPAE_clean_linker_10, # of connection points: 2
#     Edge 44, Type (0, 1), BuildingBlock: TEMPAE_clean_linker_10, # of connection points: 2
#     Edge 45, Type (0, 1), BuildingBlock: TEMPAE_clean_linker_10, # of connection points: 2
#     Edge 46, Type (0, 1), BuildingBlock: TEMPAE_clean_linker_10, # of connection points: 2
#     Edge 47, Type (0, 1), BuildingBlock: TEMPAE_clean_linker_10, # of connection points: 2
#     Edge 48, Type (0, 1), BuildingBlock: TEMPAE_clean_linker_10, # of connection points: 2
#     Edge 49, Type (0, 1), BuildingBlock: TEMPAE_clean_linker_10, # of connection points: 2
#     Edge 50, Type (0, 1), BuildingBlock: TEMPAE_clean_linker_10, # of connection points: 2
#     Edge 51, Type (0, 1), BuildingBlock: TEMPAE_clean_linker_10, # of connection points: 2
#     Edge 52, Type (0, 1), BuildingBlock: TEMPAE_clean_linker_10, # of connection points: 2
#     Edge 53, Type (0, 1), BuildingBlock: TEMPAE_clean_linker_10, # of connection points: 2
#     Edge 54, Type (0, 1), BuildingBlock: TEMPAE_clean_linker_10, # of connection points: 2
#     Edge 55, Type (0, 1), BuildingBlock: TEMPAE_clean_linker_10, # of connection points: 2
#     Edge 56, Type (0, 1), BuildingBlock: TEMPAE_clean_linker_10, # of connection points: 2
#     Edge 57, Type (0, 1), BuildingBlock: TEMPAE_clean_linker_10, # of connection points: 2
#     Edge 58, Type (0, 1), BuildingBlock: TEMPAE_clean_linker_10, # of connection points: 2
#     Edge 59, Type (0, 1), BuildingBlock: TEMPAE_clean_linker_10, # of connection points: 2
#     Edge 60, Type (0, 1), BuildingBlock: TEMPAE_clean_linker_10, # of connection points: 2
#     Edge 61, Type (0, 1), BuildingBlock: TEMPAE_clean_linker_10, # of connection points: 2
#     Edge 62, Type (0, 1), BuildingBlock: TEMPAE_clean_linker_10, # of connection points: 2
#     Edge 63, Type (0, 1), BuildingBlock: TEMPAE_clean_linker_10, # of connection points: 2
#     Edge 64, Type (0, 1), BuildingBlock: TEMPAE_clean_linker_10, # of connection points: 2
#     Edge 65, Type (0, 1), BuildingBlock: TEMPAE_clean_linker_10, # of connection points: 2
#     Edge 66, Type (0, 1), BuildingBlock: TEMPAE_clean_linker_10, # of connection points: 2
#     Edge 67, Type (0, 1), BuildingBlock: TEMPAE_clean_linker_10, # of connection points: 2
#     Edge 68, Type (0, 1), BuildingBlock: TEMPAE_clean_linker_10, # of connection points: 2
#     Edge 69, Type (0, 1), BuildingBlock: TEMPAE_clean_linker_10, # of connection points: 2
#     Edge 70, Type (0, 1), BuildingBlock: TEMPAE_clean_linker_10, # of connection points: 2
#     Edge 71, Type (0, 1), BuildingBlock: TEMPAE_clean_linker_10, # of connection points: 2
#     Edge 72, Type (0, 1), BuildingBlock: TEMPAE_clean_linker_10, # of connection points: 2
#     Edge 73, Type (0, 1), BuildingBlock: TEMPAE_clean_linker_10, # of connection points: 2
#     Edge 74, Type (0, 1), BuildingBlock: TEMPAE_clean_linker_10, # of connection points: 2
#     Edge 75, Type (0, 1), BuildingBlock: TEMPAE_clean_linker_10, # of connection points: 2
#     Edge 76, Type (0, 1), BuildingBlock: TEMPAE_clean_linker_10, # of connection points: 2
#     Edge 77, Type (0, 1), BuildingBlock: TEMPAE_clean_linker_10, # of connection points: 2
#     Edge 78, Type (0, 1), BuildingBlock: TEMPAE_clean_linker_10, # of connection points: 2
#     Edge 79, Type (0, 1), BuildingBlock: TEMPAE_clean_linker_10, # of connection points: 2
#     Edge 80, Type (0, 1), BuildingBlock: TEMPAE_clean_linker_10, # of connection points: 2
#     Edge 81, Type (0, 1), BuildingBlock: TEMPAE_clean_linker_10, # of connection points: 2
#     Edge 82, Type (0, 1), BuildingBlock: TEMPAE_clean_linker_10, # of connection points: 2
#     Edge 83, Type (0, 1), BuildingBlock: TEMPAE_clean_linker_10, # of connection points: 2
#     Edge 84, Type (0, 1), BuildingBlock: TEMPAE_clean_linker_10, # of connection points: 2
#     Edge 85, Type (0, 1), BuildingBlock: TEMPAE_clean_linker_10, # of connection points: 2
#     Edge 86, Type (0, 1), BuildingBlock: TEMPAE_clean_linker_10, # of connection points: 2
#     Edge 87, Type (0, 1), BuildingBlock: TEMPAE_clean_linker_10, # of connection points: 2
#     Edge 88, Type (0, 1), BuildingBlock: TEMPAE_clean_linker_10, # of connection points: 2
#     Edge 89, Type (0, 1), BuildingBlock: TEMPAE_clean_linker_10, # of connection points: 2
#     Edge 90, Type (0, 1), BuildingBlock: TEMPAE_clean_linker_10, # of connection points: 2
#     Edge 91, Type (0, 1), BuildingBlock: TEMPAE_clean_linker_10, # of connection points: 2
#     Edge 92, Type (0, 1), BuildingBlock: TEMPAE_clean_linker_10, # of connection points: 2
#     Edge 93, Type (0, 1), BuildingBlock: TEMPAE_clean_linker_10, # of connection points: 2
#     Edge 94, Type (0, 1), BuildingBlock: TEMPAE_clean_linker_10, # of connection points: 2
#     Edge 95, Type (0, 1), BuildingBlock: TEMPAE_clean_linker_10, # of connection points: 2
#     Edge 96, Type (0, 1), BuildingBlock: TEMPAE_clean_linker_10, # of connection points: 2
#     Edge 97, Type (0, 1), BuildingBlock: TEMPAE_clean_linker_10, # of connection points: 2
#     Edge 98, Type (0, 1), BuildingBlock: TEMPAE_clean_linker_10, # of connection points: 2
#     Edge 99, Type (0, 1), BuildingBlock: TEMPAE_clean_linker_10, # of connection points: 2
#     Edge 100, Type (0, 1), BuildingBlock: TEMPAE_clean_linker_10, # of connection points: 2
#     Edge 101, Type (0, 1), BuildingBlock: TEMPAE_clean_linker_10, # of connection points: 2
#     Edge 102, Type (0, 1), BuildingBlock: TEMPAE_clean_linker_10, # of connection points: 2
#     Edge 103, Type (0, 1), BuildingBlock: TEMPAE_clean_linker_10, # of connection points: 2
#     Edge 104, Type (0, 1), BuildingBlock: TEMPAE_clean_linker_10, # of connection points: 2
#     Edge 105, Type (0, 1), BuildingBlock: TEMPAE_clean_linker_10, # of connection points: 2
#     Edge 106, Type (0, 1), BuildingBlock: TEMPAE_clean_linker_10, # of connection points: 2
#     Edge 107, Type (0, 1), BuildingBlock: TEMPAE_clean_linker_10, # of connection points: 2
#     Edge 108, Type (0, 1), BuildingBlock: TEMPAE_clean_linker_10, # of connection points: 2
#     Edge 109, Type (0, 1), BuildingBlock: TEMPAE_clean_linker_10, # of connection points: 2
#     Edge 110, Type (0, 1), BuildingBlock: TEMPAE_clean_linker_10, # of connection points: 2
#     Edge 111, Type (0, 1), BuildingBlock: TEMPAE_clean_linker_10, # of connection points: 2
#     Edge 112, Type (0, 1), BuildingBlock: TEMPAE_clean_linker_10, # of connection points: 2
#     Edge 113, Type (0, 1), BuildingBlock: TEMPAE_clean_linker_10, # of connection points: 2
#     Edge 114, Type (0, 1), BuildingBlock: TEMPAE_clean_linker_10, # of connection points: 2
#     Edge 115, Type (0, 1), BuildingBlock: TEMPAE_clean_linker_10, # of connection points: 2
#     Edge 116, Type (0, 1), BuildingBlock: TEMPAE_clean_linker_10, # of connection points: 2
#     Edge 117, Type (0, 1), BuildingBlock: TEMPAE_clean_linker_10, # of connection points: 2
#     Edge 118, Type (0, 1), BuildingBlock: TEMPAE_clean_linker_10, # of connection points: 2
#     Edge 119, Type (0, 1), BuildingBlock: TEMPAE_clean_linker_10, # of connection points: 2
#     Edge 120, Type (0, 1), BuildingBlock: TEMPAE_clean_linker_10, # of connection points: 2
#     Edge 121, Type (0, 1), BuildingBlock: TEMPAE_clean_linker_10, # of connection points: 2
#     Edge 122, Type (0, 1), BuildingBlock: TEMPAE_clean_linker_10, # of connection points: 2
#     Edge 123, Type (0, 1), BuildingBlock: TEMPAE_clean_linker_10, # of connection points: 2
#     Edge 124, Type (0, 1), BuildingBlock: TEMPAE_clean_linker_10, # of connection points: 2
#     Edge 125, Type (0, 1), BuildingBlock: TEMPAE_clean_linker_10, # of connection points: 2
#     Edge 126, Type (0, 1), BuildingBlock: TEMPAE_clean_linker_10, # of connection points: 2
#     Edge 127, Type (0, 1), BuildingBlock: TEMPAE_clean_linker_10, # of connection points: 2
#     Edge 128, Type (0, 1), BuildingBlock: TEMPAE_clean_linker_10, # of connection points: 2
#     Edge 129, Type (0, 1), BuildingBlock: TEMPAE_clean_linker_10, # of connection points: 2
#     Edge 130, Type (0, 1), BuildingBlock: TEMPAE_clean_linker_10, # of connection points: 2
#     Edge 131, Type (0, 1), BuildingBlock: TEMPAE_clean_linker_10, # of connection points: 2
#     Edge 132, Type (0, 1), BuildingBlock: TEMPAE_clean_linker_10, # of connection points: 2
#     Edge 133, Type (0, 1), BuildingBlock: TEMPAE_clean_linker_10, # of connection points: 2
#     Edge 134, Type (0, 1), BuildingBlock: TEMPAE_clean_linker_10, # of connection points: 2
#     Edge 135, Type (0, 1), BuildingBlock: TEMPAE_clean_linker_10, # of connection points: 2
# Relax obj value: 0.233
# Max RMSD: 0.306
# Mean RMSD: 0.181
data_MOF--net-gar--node1-AZAVOO_clean_sbu_0--node2-CUWYAW_clean_sbu_0--edge1-TEMPAE_clean_linker_10
_symmetry_space_group_name_H-M    P1
_symmetry_Int_Tables_number       1
_symmetry_cell_setting            triclinic
loop_
_symmetry_equiv_pos_as_xyz
'x, y, z'
_cell_length_a     66.043427
_cell_length_b     54.886587
_cell_length_c     56.065597
_cell_angle_alpha  100.59908
_cell_angle_beta   96.163438
_cell_angle_gamma 100.06037
loop_
_atom_site_label
_atom_site_type_symbol
_atom_site_fract_x
_atom_site_fract_y
_atom_site_fract_z
_atom_type_partial_charge
Mg0 Mg 0.06936 0.29117 0.48026 0.0
O1 O 0.08628 0.32559 0.46435 0.0
O2 O 0.05636 0.33138 0.47174 0.0
Mg3 Mg 0.03265 0.34612 0.49169 0.0
C4 C 0.07377 0.34071 0.46665 0.0
C5 C 0.08816 0.28799 0.42959 0.0
O6 O 0.07379 0.26731 0.42291 0.0
O7 O 0.07882 0.32378 0.51437 0.0
O8 O 0.05614 0.34639 0.52544 0.0
O9 O 0.04213 0.27219 0.44793 0.0
O10 O 0.04054 0.3074 0.47091 0.0
C11 C 0.0628 0.32589 0.52486 0.0
C12 C 0.03173 0.28937 0.45309 0.0
O13 O 0.09014 0.3018 0.4511 0.0
Mg14 Mg 0.99957 0.75966 0.67674 0.0
O15 O 0.9992 0.72711 0.64521 0.0
O16 O 0.96961 0.71941 0.61927 0.0
Mg17 Mg 0.95281 0.75072 0.63355 0.0
C18 C 0.98733 0.71454 0.62585 0.0
C19 C 0.03976 0.74166 0.68818 0.0
O20 O 0.02631 0.72036 0.6857 0.0
O21 O 1.00801 0.78497 0.65191 0.0
O22 O 0.98049 0.77695 0.62281 0.0
O23 O 0.98473 0.73318 0.69655 0.0
O24 O 0.96761 0.75227 0.67162 0.0
C25 C 0.99935 0.78738 0.63145 0.0
C26 C 0.9672 0.7359 0.68564 0.0
O27 O 0.03326 0.76183 0.68706 0.0
Mg28 Mg 0.56915 0.79315 0.96584 0.0
O29 O 0.58787 0.82368 0.99813 0.0
O30 O 0.5783 0.85861 0.98841 0.0
Mg31 Mg 0.55299 0.85777 0.95527 0.0
C32 C 0.58921 0.84773 1.00194 0.0
C33 C 0.60035 0.82646 0.9364 0.0
O34 O 0.59102 0.84559 0.94174 0.0
O35 O 0.54875 0.82174 0.97099 0.0
O36 O 0.52715 0.84615 0.97888 0.0
O37 O 0.54748 0.77421 0.9294 0.0
O38 O 0.55297 0.8148 0.94306 0.0
C39 C 0.53346 0.82626 0.98167 0.0
C40 C 0.54335 0.79561 0.92659 0.0
O41 O 0.5946 0.80614 0.94387 0.0
Mg42 Mg 0.52443 0.26806 0.18178 0.0
O43 O 0.54493 0.239 0.16929 0.0
O44 O 0.51223 0.2242 0.16232 0.0
Mg45 Mg 0.47816 0.21373 0.14867 0.0
C46 C 0.53012 0.222 0.15708 0.0
C47 C 0.56914 0.30565 0.18902 0.0
O48 O 0.58077 0.32803 0.19056 0.0
O49 O 0.51796 0.26849 0.14165 0.0
O50 O 0.48991 0.23916 0.12207 0.0
O51 O 0.52039 0.25823 0.21771 0.0
O52 O 0.50037 0.23753 0.18308 0.0
C53 C 0.50519 0.25726 0.12246 0.0
C54 C 0.50367 0.24217 0.20686 0.0
O55 O 0.54966 0.30356 0.18809 0.0
Mg56 Mg 0.0767 0.81687 0.18117 0.0
O57 O 0.07004 0.77932 0.15295 0.0
O58 O 0.03804 0.77427 0.13279 0.0
Mg59 Mg 0.02305 0.80699 0.14921 0.0
C60 C 0.05512 0.76671 0.13651 0.0
C61 C 0.11564 0.79545 0.19558 0.0
O62 O 0.1 0.77777 0.19736 0.0
O63 O 0.08006 0.84027 0.15062 0.0
O64 O 0.0463 0.83607 0.13645 0.0
O65 O 0.06262 0.79781 0.20991 0.0
O66 O 0.04474 0.81331 0.183 0.0
C67 C 0.06539 0.84603 0.13717 0.0
C68 C 0.04487 0.80142 0.20064 0.0
O69 O 0.11161 0.81486 0.18799 0.0
Mg70 Mg 0.49497 0.74604 0.41028 0.0
O71 O 0.49942 0.78195 0.43974 0.0
O72 O 0.47238 0.77933 0.46057 0.0
Mg73 Mg 0.45015 0.74157 0.44373 0.0
C74 C 0.48972 0.79116 0.4566 0.0
C75 C 0.53598 0.76943 0.39096 0.0
O76 O 0.52266 0.77932 0.37855 0.0
O77 O 0.50285 0.72321 0.43901 0.0
O78 O 0.47427 0.71962 0.45711 0.0
O79 O 0.47724 0.7645 0.38463 0.0
O80 O 0.46264 0.7414 0.40882 0.0
C81 C 0.49222 0.71471 0.45451 0.0
C82 C 0.46068 0.75561 0.3932 0.0
O83 O 0.52942 0.75553 0.40545 0.0
Mg84 Mg 0.57466 0.3138 0.68049 0.0
O85 O 0.56849 0.27676 0.65163 0.0
O86 O 0.5378 0.27273 0.62882 0.0
Mg87 Mg 0.52389 0.30694 0.64315 0.0
C88 C 0.55432 0.26458 0.63411 0.0
C89 C 0.6199 0.32147 0.70874 0.0
O90 O 0.61209 0.33748 0.72376 0.0
O91 O 0.58169 0.33787 0.65165 0.0
O92 O 0.54983 0.33351 0.63102 0.0
O93 O 0.55772 0.29427 0.70666 0.0
O94 O 0.54244 0.31217 0.67959 0.0
C95 C 0.56929 0.34283 0.63487 0.0
C96 C 0.54082 0.29945 0.69667 0.0
O97 O 0.60866 0.30938 0.68878 0.0
Mg98 Mg 0.99526 0.2468 0.91332 0.0
O99 O 0.99799 0.28361 0.94151 0.0
O100 O 0.96972 0.28057 0.96032 0.0
Mg101 Mg 0.94932 0.24149 0.94496 0.0
C102 C 0.98712 0.29289 0.95704 0.0
C103 C 0.03472 0.25119 0.88783 0.0
O104 O 0.02022 0.23829 0.86986 0.0
O105 O 1.00332 0.22624 0.94374 0.0
O106 O 0.97433 0.22228 0.96109 0.0
O107 O 0.97776 0.26222 0.88506 0.0
O108 O 0.96284 0.2412 0.91065 0.0
C109 C 0.99267 0.21828 0.95948 0.0
C110 C 0.96104 0.25392 0.89364 0.0
O111 O 0.02958 0.25789 0.90891 0.0
Mg112 Mg 0.42856 0.0573 0.29629 0.0
O113 O 0.40466 0.01757 0.29167 0.0
O114 O 0.38713 0.02183 0.32375 0.0
Mg115 Mg 0.40049 0.06038 0.35029 0.0
C116 C 0.39071 1.00863 0.30393 0.0
C117 C 0.44996 0.06405 0.24567 0.0
O118 O 0.45676 0.0869 0.25913 0.0
O119 O 0.40247 0.08303 0.28888 0.0
O120 O 0.38916 0.08515 0.32395 0.0
O121 O 0.45345 0.04276 0.31923 0.0
O122 O 0.43074 0.06152 0.33634 0.0
C123 C 0.39037 0.09207 0.30345 0.0
C124 C 0.44628 0.05049 0.3392 0.0
O125 O 0.43752 0.04826 0.2545 0.0
Mg126 Mg 0.26365 0.15714 0.51763 0.0
O127 O 0.26783 0.18531 0.55491 0.0
O128 O 0.29952 0.20941 0.56007 0.0
Mg129 Mg 0.31652 0.19588 0.52793 0.0
C130 C 0.28213 0.20319 0.56758 0.0
C131 C 0.22224 0.13565 0.53591 0.0
O132 O 0.2365 0.13312 0.55301 0.0
O133 O 0.26073 0.18773 0.4938 0.0
O134 O 0.29438 0.20587 0.49858 0.0
O135 O 0.27789 0.12937 0.53631 0.0
O136 O 0.29606 0.15848 0.52087 0.0
C137 C 0.27573 0.20276 0.48798 0.0
C138 C 0.29585 0.14022 0.53227 0.0
O139 O 0.22813 0.14606 0.51859 0.0
Mg140 Mg 0.15648 1.00966 0.81025 0.0
O141 O 0.1795 0.04947 0.81293 0.0
O142 O 0.20043 0.05782 0.84851 0.0
Mg143 Mg 0.19166 0.02437 0.86871 0.0
C144 C 0.19437 0.06408 0.82845 0.0
C145 C 0.12701 0.01535 0.76088 0.0
O146 O 0.116 0.02166 0.77837 0.0
O147 O 0.18207 0.98236 0.80401 0.0
O148 O 0.20122 0.99187 0.84106 0.0
O149 O 0.1331 0.02745 0.83326 0.0
O150 O 0.15841 0.0138 0.85081 0.0
C151 C 0.19674 0.97833 0.81924 0.0
C152 C 0.14213 0.02347 0.85337 0.0
O153 O 0.14445 1.00912 0.76719 0.0
Mg154 Mg 0.24873 0.85338 0.03507 0.0
O155 O 0.23764 0.8305 0.99587 0.0
O156 O 0.26266 0.81704 0.01337 0.0
Mg157 Mg 0.28837 0.80678 0.03584 0.0
C158 C 0.24994 0.8152 0.99435 0.0
C159 C 0.2135 0.87998 0.01919 0.0
O160 O 0.22472 0.88291 1.00156 0.0
O161 O 0.23493 0.8204 0.05173 0.0
O162 O 0.25531 0.79372 0.04467 0.0
O163 O 0.27213 0.8803 0.02198 0.0
O164 O 0.27996 0.84563 0.03219 0.0
C165 C 0.24846 0.80907 0.06019 0.0
C166 C 0.28586 0.86649 0.02494 0.0
O167 O 0.21932 0.8683 0.03536 0.0
Mg168 Mg 0.32705 0.41202 0.08258 0.0
O169 O 0.32219 0.38256 0.04595 0.0
O170 O 0.34996 0.36437 0.04623 0.0
Mg171 Mg 0.37129 0.37972 0.08303 0.0
C172 C 0.3327 0.36726 0.03558 0.0
C173 C 0.2879 0.43226 0.06228 0.0
O174 O 0.30237 0.44393 0.05167 0.0
O175 O 0.31859 0.38154 0.10536 0.0
O176 O 0.34686 0.36435 0.10618 0.0
O177 O 0.34621 0.44087 0.06561 0.0
O178 O 0.35976 0.41526 0.08547 0.0
C179 C 0.32916 0.36621 0.11281 0.0
C180 C 0.36253 0.43273 0.07301 0.0
O181 O 0.29283 0.41719 0.0757 0.0
Mg182 Mg 0.82074 0.18245 0.03214 0.0
O183 O 0.81443 0.19638 0.07143 0.0
O184 O 0.84652 0.21307 0.09182 0.0
Mg185 Mg 0.87201 0.20706 0.06869 0.0
C186 C 0.82675 0.20865 0.09074 0.0
C187 C 0.7706 0.18317 0.0207 0.0
O188 O 0.75566 0.18657 1.00496 0.0
O189 O 0.82945 0.22301 0.03122 0.0
O190 O 0.86095 0.23943 0.05277 0.0
O191 O 0.82164 0.14349 0.03732 0.0
O192 O 0.84854 0.17547 0.04596 0.0
C193 C 0.84446 0.24148 0.03983 0.0
C194 C 0.84117 0.15208 0.04568 0.0
O195 O 0.78847 0.18349 0.01429 0.0
Mg196 Mg 0.15019 0.50418 0.30508 0.0
O197 O 0.17341 0.54313 0.30775 0.0
O198 O 0.19663 0.54842 0.34105 0.0
Mg199 Mg 0.18561 0.51728 0.36314 0.0
C200 C 0.18991 0.55582 0.32187 0.0
C201 C 0.12884 0.52003 0.25572 0.0
O202 O 0.12655 0.53861 0.27305 0.0
O203 O 0.17559 0.47726 0.29812 0.0
O204 O 0.19302 0.48353 0.33596 0.0
O205 O 0.12739 0.52281 0.32817 0.0
O206 O 0.15252 0.50832 0.3452 0.0
C207 C 0.18899 0.47147 0.31364 0.0
C208 C 0.13654 0.51847 0.34808 0.0
O209 O 0.13828 0.50317 0.26223 0.0
Mg210 Mg 0.82594 0.91028 0.58196 0.0
O211 O 0.82047 0.88144 0.54512 0.0
O212 O 0.84654 0.86043 0.54516 0.0
Mg213 Mg 0.86962 0.87708 0.58063 0.0
C214 C 0.82967 0.86461 0.53474 0.0
C215 C 0.78543 0.92578 0.55829 0.0
O216 O 0.79831 0.9315 0.54292 0.0
O217 O 0.81765 0.87934 0.60467 0.0
O218 O 0.84656 0.86341 0.60578 0.0
O219 O 0.84488 0.93942 0.56503 0.0
O220 O 0.85849 0.91296 0.58364 0.0
C221 C 0.82893 0.86496 0.61271 0.0
C222 C 0.86119 0.93082 0.57163 0.0
O223 O 0.79181 0.91607 0.57597 0.0
Mg224 Mg 0.92497 0.05037 0.28355 0.0
O225 O 0.90108 1.00999 0.28138 0.0
O226 O 0.88804 0.01641 0.31674 0.0
Mg227 Mg 0.9004 0.05634 0.34076 0.0
C228 C 0.88955 1.00179 0.2967 0.0
C229 C 0.95185 0.04111 0.23734 0.0
O230 O 0.96524 0.0414 0.25655 0.0
O231 O 0.89902 0.07645 0.27789 0.0
O232 O 0.88756 0.07987 0.31416 0.0
O233 O 0.95149 0.03787 0.30625 0.0
O234 O 0.92865 0.05616 0.3235 0.0
C235 C 0.88782 0.08614 0.29328 0.0
C236 C 0.94468 0.04614 0.3263 0.0
O237 O 0.93321 0.04319 0.24115 0.0
Mg238 Mg 0.33896 0.68845 0.55247 0.0
O239 O 0.33862 0.71658 0.58668 0.0
O240 O 0.36856 0.74322 0.60081 0.0
Mg241 Mg 0.38595 0.73515 0.56812 0.0
C242 C 0.34968 0.73476 0.60256 0.0
C243 C 0.29925 0.66989 0.57279 0.0
O244 O 0.31338 0.67189 0.59179 0.0
O245 O 0.33211 0.71705 0.53148 0.0
O246 O 0.35946 0.74853 0.54657 0.0
O247 O 0.353 0.66599 0.5742 0.0
O248 O 0.3716 0.69346 0.55641 0.0
C249 C 0.34154 0.73977 0.5339 0.0
C250 C 0.37076 0.67539 0.56851 0.0
O251 O 0.30486 0.67504 0.55302 0.0
Mg252 Mg 0.42625 0.55068 0.78428 0.0
O253 O 0.402 0.51056 0.7816 0.0
O254 O 0.38926 0.51598 0.81724 0.0
Mg255 Mg 0.40188 0.55563 0.84183 0.0
C256 C 0.39057 0.50193 0.79678 0.0
C257 C 0.45315 0.54405 0.73747 0.0
O258 O 0.46727 0.54767 0.75683 0.0
O259 O 0.40057 0.57767 0.77961 0.0
O260 O 0.38972 0.58036 0.81615 0.0
O261 O 0.45249 0.53712 0.80682 0.0
O262 O 0.43008 0.55579 0.82442 0.0
C263 C 0.38984 0.58736 0.79561 0.0
C264 C 0.44584 0.54527 0.82701 0.0
O265 O 0.43412 0.54346 0.74141 0.0
Mg266 Mg 0.65009 1.00458 0.8046 0.0
O267 O 0.67361 0.04325 0.80741 0.0
O268 O 0.69501 0.05084 0.84262 0.0
Mg269 Mg 0.68444 0.01907 0.86393 0.0
C270 C 0.6891 0.05702 0.8225 0.0
C271 C 0.62171 1.01022 0.75514 0.0
O272 O 0.61037 0.01622 0.77237 0.0
O273 O 0.6755 0.9775 0.79857 0.0
O274 O 0.69266 0.98628 0.83667 0.0
O275 O 0.62736 0.02396 0.82762 0.0
O276 O 0.65197 1.00864 0.8446 0.0
C277 C 0.68907 0.97299 0.81481 0.0
C278 C 0.63625 0.01918 0.84743 0.0
O279 O 0.63911 1.00416 0.76171 0.0
Mg280 Mg 0.76282 0.65592 0.01627 0.0
O281 O 0.76747 0.68267 0.05422 0.0
O282 O 0.79902 0.70745 0.05998 0.0
Mg283 Mg 0.81624 0.69333 0.02814 0.0
C284 C 0.78155 0.70067 0.06705 0.0
C285 C 0.71774 0.62399 0.00851 0.0
O286 O 0.72795 0.60788 0.99727 0.0
O287 O 0.76097 0.68773 0.99387 0.0
O288 O 0.79489 0.70465 0.9989 0.0
O289 O 0.77551 0.62641 0.03341 0.0
O290 O 0.79496 0.65641 0.02007 0.0
C291 C 0.77633 0.70237 0.9883 0.0
C292 C 0.7938 0.63743 0.03057 0.0
O293 O 0.72746 0.64652 0.01766 0.0
Mg294 Mg 0.92787 0.5572 0.79717 0.0
O295 O 0.90325 0.51806 0.79163 0.0
O296 O 0.88621 0.52198 0.82412 0.0
Mg297 Mg 0.90007 0.56003 0.85135 0.0
C298 C 0.88933 0.50909 0.80389 0.0
C299 C 0.95398 0.54465 0.75007 0.0
O300 O 0.96685 0.54196 0.76852 0.0
O301 O 0.90225 0.58392 0.79076 0.0
O302 O 0.88915 0.58573 0.82595 0.0
O303 O 0.95169 0.54055 0.82009 0.0
O304 O 0.93027 0.56158 0.83727 0.0
C305 C 0.8904 0.59303 0.80566 0.0
C306 C 0.94498 0.54932 0.84009 0.0
O307 O 0.93633 0.54996 0.75481 0.0
Mg308 Mg 0.75077 0.34726 0.52955 0.0
O309 O 0.73883 0.32238 0.49161 0.0
O310 O 0.76243 0.30264 0.5045 0.0
Mg311 Mg 0.78645 0.29902 0.53407 0.0
C312 C 0.74884 0.3046 0.48768 0.0
C313 C 0.72874 0.38662 0.54701 0.0
O314 O 0.74735 0.39154 0.55991 0.0
O315 O 0.73464 0.31721 0.54797 0.0
O316 O 0.75319 0.28847 0.5423 0.0
O317 O 0.77483 0.37128 0.5146 0.0
O318 O 0.78091 0.33719 0.52742 0.0
C319 C 0.74708 0.30504 0.55717 0.0
C320 C 0.78768 0.35661 0.51844 0.0
O321 O 0.72363 0.36684 0.53016 0.0
Mg322 Mg 0.65676 0.50992 0.31089 0.0
O323 O 0.67968 0.54995 0.31455 0.0
O324 O 0.70209 0.55503 0.34846 0.0
Mg325 Mg 0.69188 0.52197 0.36899 0.0
C326 C 0.69563 0.56304 0.32951 0.0
C327 C 0.62833 0.51882 0.2625 0.0
O328 O 0.61911 0.5285 0.28056 0.0
O329 O 0.68244 0.48303 0.30322 0.0
O330 O 0.69936 0.4882 0.3411 0.0
O331 O 0.63295 0.52647 0.33406 0.0
O332 O 0.65875 0.51344 0.35129 0.0
C333 C 0.69552 0.4765 0.31861 0.0
C334 C 0.6422 0.52248 0.35405 0.0
O335 O 0.64445 0.50966 0.26818 0.0
C336 C 0.09894 0.06704 0.08555 0.0
Eu337 Eu 0.06219 0.04951 0.06084 0.0
C338 C 0.11648 0.05404 0.08288 0.0
C339 C 0.12426 0.04378 0.10233 0.0
C340 C 0.13454 0.02358 0.09767 0.0
C341 C 0.13696 0.01348 0.07353 0.0
C342 C 0.13118 0.02543 0.05459 0.0
C343 C 0.12114 0.04565 0.05922 0.0
C344 C 0.02771 0.04669 0.08526 0.0
C345 C 0.05779 0.98929 0.05359 0.0
C346 C 0.9915 1.00234 0.0077 0.0
Eu347 Eu 0.02922 0.02002 0.02977 0.0
C348 C 0.97316 0.01193 0.0149 0.0
C349 C 0.9579 0.01527 0.99711 0.0
C350 C 0.94283 0.02907 1.00408 0.0
C351 C 0.94292 0.03987 0.02893 0.0
C352 C 0.95773 0.03556 0.04674 0.0
C353 C 0.97273 0.02183 0.03977 0.0
C354 C 0.06324 0.02285 1.00455 0.0
C355 C 0.03452 0.08044 0.03681 0.0
O356 O 0.09214 0.0756 0.0666 0.0
O357 O 0.08379 0.0548 0.09448 0.0
O358 O 0.0412 0.06702 0.08577 0.0
O359 O 0.03261 0.02837 0.07105 0.0
O360 O 0.07103 1.01089 0.057 0.0
O361 O 0.03832 0.98802 0.04507 0.0
O362 O 1.00066 0.99142 0.02336 0.0
O363 O 1.00474 0.01834 0.99968 0.0
O364 O 0.0494 1.00271 1.00364 0.0
O365 O 0.05869 0.04113 0.01928 0.0
O366 O 0.02112 0.05898 0.03361 0.0
O367 O 0.05391 0.08173 0.04555 0.0
H368 H 0.12069 0.04979 0.12065 0.0
H369 H 0.13918 0.01471 0.11255 0.0
H370 H 0.1334 0.0182 0.03592 0.0
H371 H 0.11539 0.05305 0.04376 0.0
H372 H 0.95819 1.00817 0.97782 0.0
H373 H 0.93143 0.03186 0.98997 0.0
H374 H 0.95843 0.04389 0.06597 0.0
H375 H 0.98466 0.02007 0.0538 0.0
C376 C 0.28835 0.80033 0.37112 0.0
Eu377 Eu 0.28582 0.7892 0.32406 0.0
C378 C 0.27405 0.79749 0.38933 0.0
C379 C 0.26681 0.81852 0.40103 0.0
C380 C 0.25704 0.81734 0.4218 0.0
C381 C 0.255 0.79536 0.43157 0.0
C382 C 0.25953 0.77334 0.41767 0.0
C383 C 0.2691 0.77445 0.39686 0.0
C384 C 0.25254 0.79129 0.29128 0.0
C385 C 0.26712 0.72841 0.29789 0.0
C386 C 0.29246 0.76374 0.2215 0.0
Eu387 Eu 0.29214 0.76738 0.26778 0.0
C388 C 0.30407 0.78331 0.21045 0.0
C389 C 0.32231 0.7799 0.20062 0.0
C390 C 0.33409 0.79946 0.19205 0.0
C391 C 0.32773 0.82283 0.19284 0.0
C392 C 0.31006 0.82637 0.20421 0.0
C393 C 0.29841 0.80697 0.21258 0.0
C394 C 0.32574 0.76685 0.30061 0.0
C395 C 0.31254 0.82728 0.29506 0.0
O396 O 0.29318 0.77959 0.35934 0.0
O397 O 0.28554 0.81661 0.35723 0.0
O398 O 0.25403 0.79908 0.3148 0.0
O399 O 0.26877 0.78318 0.28715 0.0
O400 O 0.27161 0.74684 0.31802 0.0
O401 O 0.2724 0.73197 0.2762 0.0
O402 O 0.27691 0.76998 0.2323 0.0
O403 O 0.30384 0.75209 0.23435 0.0
O404 O 0.32385 0.75771 0.27729 0.0
O405 O 0.30945 0.77477 0.30465 0.0
O406 O 0.30605 0.81013 0.27423 0.0
O407 O 0.30851 0.82231 0.31657 0.0
H408 H 0.26999 0.83641 0.39524 0.0
H409 H 0.25319 0.83443 0.43167 0.0
H410 H 0.25811 0.75589 0.42431 0.0
H411 H 0.27402 0.75769 0.38789 0.0
H412 H 0.32746 0.76209 0.19954 0.0
H413 H 0.34777 0.79584 0.18415 0.0
H414 H 0.30406 0.84359 0.20543 0.0
H415 H 0.28481 0.81071 0.22069 0.0
C416 C 0.47717 0.02933 0.56105 0.0
Eu417 Eu 0.51578 0.0281 0.5558 0.0
C418 C 0.46038 0.04383 0.55899 0.0
C419 C 0.44908 0.04793 0.57867 0.0
C420 C 0.43219 0.06005 0.57703 0.0
C421 C 0.42611 0.06835 0.55557 0.0
C422 C 0.4377 0.06463 0.53596 0.0
C423 C 0.45469 0.0525 0.53765 0.0
C424 C 0.54649 0.01996 0.58976 0.0
C425 C 0.54769 0.08217 0.56079 0.0
C426 C 0.59912 0.02747 0.53061 0.0
Eu427 Eu 0.56056 0.0303 0.53489 0.0
C428 C 0.61548 0.01271 0.53553 0.0
C429 C 0.6217 0.99736 0.5158 0.0
C430 C 0.63842 0.98522 0.51952 0.0
C431 C 0.64953 0.98823 0.54308 0.0
C432 C 0.64302 1.00319 0.56293 0.0
C433 C 0.62622 0.01528 0.55922 0.0
C434 C 0.52962 0.037 0.50019 0.0
C435 C 0.52869 0.97653 0.53112 0.0
O436 O 0.4828 0.01784 0.54089 0.0
O437 O 0.4928 0.03901 0.57861 0.0
O438 O 0.52717 0.01866 0.59282 0.0
O439 O 0.5478 0.0245 0.56861 0.0
O440 O 0.52855 0.06985 0.56086 0.0
O441 O 0.56289 0.0712 0.55317 0.0
O442 O 0.59366 0.042 0.5492 0.0
O443 O 0.58339 0.01635 0.51351 0.0
O444 O 0.54885 0.03749 0.49693 0.0
O445 O 0.52841 0.03355 0.52176 0.0
O446 O 0.54822 0.9886 0.53294 0.0
O447 O 0.51317 0.98803 0.53606 0.0
H448 H 0.45309 0.04127 0.59526 0.0
H449 H 0.42351 0.06224 0.59236 0.0
H450 H 0.43363 0.07107 0.51928 0.0
H451 H 0.46317 0.04966 0.5222 0.0
H452 H 0.61397 0.99524 0.49727 0.0
H453 H 0.6431 0.97419 0.50372 0.0
H454 H 0.65103 1.00573 0.58138 0.0
H455 H 0.62194 0.02702 0.57486 0.0
C456 C 0.35254 0.26898 0.80513 0.0
Eu457 Eu 0.3133 0.2712 0.80365 0.0
C458 C 0.37071 0.27193 0.79201 0.0
C459 C 0.38515 0.25639 0.79485 0.0
C460 C 0.40258 0.25824 0.78273 0.0
C461 C 0.406 0.27576 0.76747 0.0
C462 C 0.39147 0.29139 0.76462 0.0
C463 C 0.3739 0.28942 0.77673 0.0
C464 C 0.28225 0.23264 0.81024 0.0
C465 C 0.28615 0.26536 0.74966 0.0
C466 C 0.23016 0.28979 0.7997 0.0
Eu467 Eu 0.26951 0.28879 0.79976 0.0
C468 C 0.21335 0.28692 0.81516 0.0
C469 C 0.20845 0.30852 0.82928 0.0
C470 C 0.19133 0.3065 0.84195 0.0
C471 C 0.17853 0.28285 0.84068 0.0
C472 C 0.18375 0.26114 0.82711 0.0
C473 C 0.20093 0.26315 0.81444 0.0
C474 C 0.30044 0.32811 0.79472 0.0
C475 C 0.29695 0.29548 0.85355 0.0
O476 O 0.34601 0.28932 0.81482 0.0
O477 O 0.33738 0.24982 0.79537 0.0
O478 O 0.30184 0.232 0.81156 0.0
O479 O 0.28046 0.25427 0.80612 0.0
O480 O 0.30416 0.26516 0.76255 0.0
O481 O 0.2703 0.27238 0.75982 0.0
O482 O 0.23688 0.26961 0.78998 0.0
O483 O 0.2451 0.30973 0.80716 0.0
O484 O 0.28084 0.32863 0.79385 0.0
O485 O 0.30249 0.30614 0.79776 0.0
O486 O 0.27881 0.29547 0.84091 0.0
O487 O 0.31275 0.28845 0.84334 0.0
H488 H 0.38297 0.24277 0.80657 0.0
H489 H 0.41358 0.24619 0.78565 0.0
H490 H 0.39356 0.30494 0.75284 0.0
H491 H 0.36283 0.30144 0.77411 0.0
H492 H 0.21757 0.32716 0.83008 0.0
H493 H 0.18793 0.32357 0.85245 0.0
H494 H 0.17408 0.24265 0.82547 0.0
H495 H 0.20412 0.24616 0.80355 0.0
C496 C 0.0313 0.95614 0.51876 0.0
Eu497 Eu 0.03975 1.00491 0.53091 0.0
C498 C 0.04057 0.93594 0.52659 0.0
C499 C 0.0592 0.93011 0.51914 0.0
C500 C 0.06843 0.91224 0.52887 0.0
C501 C 0.05923 0.90062 0.54635 0.0
C502 C 0.04042 0.90604 0.55314 0.0
C503 C 0.03107 0.92325 0.54319 0.0
C504 C 0.07712 0.03585 0.53106 0.0
C505 C 0.06009 0.02844 0.5889 0.0
C506 C 0.03748 0.10764 0.56247 0.0
Eu507 Eu 0.0372 0.05955 0.55402 0.0
C508 C 0.02677 0.12393 0.54942 0.0
C509 C 1.00699 0.12799 0.5541 0.0
C510 C 0.99755 0.14467 0.54284 0.0
C511 C 1.00774 0.15763 0.52675 0.0
C512 C 0.02701 0.15251 0.52111 0.0
C513 C 0.03646 0.13593 0.53238 0.0
C514 C 1.0052 0.0233 0.559 0.0
C515 C 0.01893 0.0368 0.49482 0.0
O516 O 0.0228 0.96918 0.5356 0.0
O517 O 0.04186 0.97025 0.506 0.0
O518 O 0.07311 0.0117 0.5222 0.0
O519 O 0.06113 0.04178 0.53887 0.0
O520 O 0.05138 1.00781 0.57191 0.0
O521 O 0.05902 0.05136 0.58486 0.0
O522 O 0.05161 0.09766 0.55168 0.0
O523 O 0.0259 0.0918 0.57266 0.0
O524 O 1.01368 0.04291 0.57611 0.0
O525 O 1.01381 0.02411 0.53999 0.0
O526 O 0.02317 0.05649 0.51368 0.0
O527 O 0.02346 0.01474 0.49724 0.0
H528 H 0.06676 0.93952 0.50616 0.0
H529 H 0.08273 0.90781 0.52311 0.0
H530 H 0.03287 0.89688 0.56627 0.0
H531 H 0.0166 0.92708 0.549 0.0
H532 H 0.99904 0.1189 0.56703 0.0
H533 H 0.98272 0.14832 0.54755 0.0
H534 H 0.03552 0.16262 0.50923 0.0
H535 H 0.05168 0.13321 0.52835 0.0
C536 C 0.25116 0.73468 0.74578 0.0
Eu537 Eu 0.27653 0.76613 0.78116 0.0
C538 C 0.23053 0.73378 0.73268 0.0
C539 C 0.21359 0.7166 0.73689 0.0
C540 C 0.19346 0.71813 0.72815 0.0
C541 C 0.19007 0.73652 0.7147 0.0
C542 C 0.20694 0.75252 0.7089 0.0
C543 C 0.22715 0.75126 0.71796 0.0
C544 C 0.27518 0.76995 0.82917 0.0
C545 C 0.27084 0.82367 0.80087 0.0
C546 C 0.34356 0.83035 0.84439 0.0
Eu547 Eu 0.31364 0.80083 0.81308 0.0
C548 C 0.36547 0.82832 0.84859 0.0
C549 C 0.37527 0.81881 0.82883 0.0
C550 C 0.39501 0.81334 0.83303 0.0
C551 C 0.4052 0.81703 0.85706 0.0
C552 C 0.39562 0.82723 0.87678 0.0
C553 C 0.37587 0.83281 0.87255 0.0
C554 C 0.31436 0.79466 0.76452 0.0
C555 C 0.31867 0.74258 0.79455 0.0
O556 O 0.26663 0.75138 0.74205 0.0
O557 O 0.25154 0.73341 0.76887 0.0
O558 O 0.25876 0.76734 0.81322 0.0
O559 O 0.29123 0.76884 0.81914 0.0
O560 O 0.26384 0.80289 0.7835 0.0
O561 O 0.28821 0.82551 0.81629 0.0
O562 O 0.33052 0.81229 0.85023 0.0
O563 O 0.33721 0.83544 0.82326 0.0
O564 O 0.33036 0.79482 0.78008 0.0
O565 O 0.29907 0.79783 0.77525 0.0
O566 O 0.32664 0.76421 0.81038 0.0
O567 O 0.30064 0.74015 0.7804 0.0
H568 H 0.21587 0.70283 0.74799 0.0
H569 H 0.18049 0.70554 0.73259 0.0
H570 H 0.20445 0.76682 0.69851 0.0
H571 H 0.23997 0.76464 0.71432 0.0
H572 H 0.36742 0.81478 0.81016 0.0
H573 H 0.40197 0.80534 0.81754 0.0
H574 H 0.4033 0.83059 0.89549 0.0
H575 H 0.36847 0.83988 0.88801 0.0
C576 C 0.59365 0.08044 0.09201 0.0
Eu577 Eu 0.56397 0.04685 0.06339 0.0
C578 C 0.61554 0.09153 0.09102 0.0
C579 C 0.63151 0.08654 0.10698 0.0
C580 C 0.65238 0.09555 0.10534 0.0
C581 C 0.65766 0.10985 0.08775 0.0
C582 C 0.6416 0.11549 0.07232 0.0
C583 C 0.62079 0.10636 0.07386 0.0
C584 C 0.56308 0.99697 0.05509 0.0
C585 C 0.56642 0.02994 1.00537 0.0
C586 C 0.49487 0.98136 1.00487 0.0
Eu587 Eu 0.52462 0.01567 0.03257 0.0
C588 C 0.47333 0.96915 1.00624 0.0
C589 C 0.45782 0.98334 0.01064 0.0
C590 C 0.43759 0.97127 0.01191 0.0
C591 C 0.43242 0.94479 0.00893 0.0
C592 C 0.44799 0.93069 1.0045 0.0
C593 C 0.46818 0.94274 1.00311 0.0
C594 C 0.52704 0.0664 0.04056 0.0
C595 C 0.52166 0.03282 0.09019 0.0
O596 O 0.57916 0.08632 0.07751 0.0
O597 O 0.58991 0.05651 0.09306 0.0
O598 O 0.57951 0.01395 0.05549 0.0
O599 O 0.54774 1.00698 0.05988 0.0
O600 O 0.57543 0.04583 0.02614 0.0
O601 O 0.54791 0.01516 1.00439 0.0
O602 O 0.50959 0.97601 0.01942 0.0
O603 O 0.49824 1.00521 1.00333 0.0
O604 O 0.51021 0.05034 0.04101 0.0
O605 O 0.54137 0.05479 0.03577 0.0
O606 O 0.51211 0.01806 0.06914 0.0
O607 O 0.5409 0.04598 0.09178 0.0
H608 H 0.62785 0.07522 0.12045 0.0
H609 H 0.66433 0.09078 0.11741 0.0
H610 H 0.64511 0.12695 0.05894 0.0
H611 H 0.60888 0.1107 0.06139 0.0
H612 H 0.46129 1.00375 0.01311 0.0
H613 H 0.42593 0.9827 0.015 0.0
H614 H 0.44466 0.91032 1.00246 0.0
H615 H 0.47986 0.9314 0.99972 0.0
C616 C 0.34576 0.32764 0.30853 0.0
Eu617 Eu 0.30956 0.30095 0.30817 0.0
C618 C 0.36042 0.31887 0.29286 0.0
C619 C 0.38185 0.32785 0.29937 0.0
C620 C 0.39563 0.31485 0.2876 0.0
C621 C 0.38795 0.29275 0.26959 0.0
C622 C 0.36659 0.28456 0.26229 0.0
C623 C 0.35291 0.29758 0.27382 0.0
C624 C 0.28906 0.28574 0.34436 0.0
C625 C 0.31058 0.23857 0.29283 0.0
C626 C 0.23063 0.23368 0.28237 0.0
Eu627 Eu 0.26746 0.25992 0.28493 0.0
C628 C 0.21364 0.24252 0.29381 0.0
C629 C 0.19327 0.23545 0.28144 0.0
C630 C 0.17767 0.24698 0.29066 0.0
C631 C 0.18235 0.26583 0.31225 0.0
C632 C 0.20282 0.27288 0.32449 0.0
C633 C 0.21833 0.26138 0.31532 0.0
C634 C 0.28687 0.27673 0.24868 0.0
C635 C 0.26656 0.32214 0.30029 0.0
O636 O 0.32888 0.33206 0.29695 0.0
O637 O 0.34184 0.31391 0.32492 0.0
O638 O 0.30591 0.3031 0.34856 0.0
O639 O 0.28394 0.27896 0.32143 0.0
O640 O 0.3207 0.26266 0.29992 0.0
O641 O 0.28997 0.23267 0.28682 0.0
O642 O 0.24646 0.23124 0.29741 0.0
O643 O 0.23627 0.24546 0.26517 0.0
O644 O 0.2703 0.25905 0.24466 0.0
O645 O 0.29271 0.28267 0.27157 0.0
O646 O 0.25632 0.29811 0.2933 0.0
O647 O 0.28713 0.32806 0.30632 0.0
H648 H 0.38785 0.34391 0.31435 0.0
H649 H 0.41221 0.32123 0.29339 0.0
H650 H 0.36051 0.26747 0.24848 0.0
H651 H 0.33643 0.28995 0.26896 0.0
H652 H 0.18956 0.22147 0.26442 0.0
H653 H 0.16198 0.24126 0.28088 0.0
H654 H 0.20679 0.28697 0.34143 0.0
H655 H 0.23411 0.26761 0.32481 0.0
C656 C 0.53449 0.45638 0.01362 0.0
Eu657 Eu 0.54145 0.50428 0.03292 0.0
C658 C 0.53816 0.43367 0.02227 0.0
C659 C 0.54755 0.41617 0.00815 0.0
C660 C 0.55034 0.39403 0.01589 0.0
C661 C 0.54365 0.3891 0.03781 0.0
C662 C 0.53467 0.40704 0.05211 0.0
C663 C 0.53214 0.42917 0.04455 0.0
C664 C 0.57705 0.53841 0.03618 0.0
C665 C 0.55911 0.52687 0.09023 0.0
C666 C 0.54925 0.61006 0.06495 0.0
Eu667 Eu 0.53984 0.56098 0.05384 0.0
C668 C 0.5415 0.63068 0.05586 0.0
C669 C 0.52012 0.63063 0.05141 0.0
C670 C 0.51323 0.6501 0.04195 0.0
C671 C 0.5276 0.66963 0.03648 0.0
C672 C 0.54894 0.66955 0.04095 0.0
C673 C 0.55581 0.65029 0.0506 0.0
C674 C 0.50426 0.52969 0.05948 0.0
C675 C 0.51927 0.53703 0.99676 0.0
O676 O 0.52065 0.4677 0.02364 0.0
O677 O 0.55103 0.47218 0.01109 0.0
O678 O 0.57648 0.5159 0.04058 0.0
O679 O 0.55894 0.54143 0.02941 0.0
O680 O 0.54958 0.50603 0.074 0.0
O681 O 0.55974 0.54972 0.08495 0.0
O682 O 0.55859 0.59635 0.04976 0.0
O683 O 0.53701 0.59655 0.07662 0.0
O684 O 0.50767 0.55411 0.06651 0.0
O685 O 0.51978 0.52409 0.05038 0.0
O686 O 0.52358 0.55743 0.01483 0.0
O687 O 0.52467 0.51539 0.99968 0.0
H688 H 0.55248 0.4195 0.99101 0.0
H689 H 0.55747 0.38068 1.00461 0.0
H690 H 0.52889 0.40366 0.06881 0.0
H691 H 0.52503 0.44246 0.05595 0.0
H692 H 0.50874 0.6155 0.05505 0.0
H693 H 0.4967 0.64972 0.03857 0.0
H694 H 0.56037 0.68459 0.03723 0.0
H695 H 0.57234 0.6506 0.05382 0.0
C696 C 0.74847 0.23065 0.2376 0.0
Eu697 Eu 0.7736 0.26289 0.27289 0.0
C698 C 0.72714 0.2279 0.22545 0.0
C699 C 0.71191 0.20721 0.22725 0.0
C700 C 0.69092 0.20662 0.21977 0.0
C701 C 0.68508 0.22673 0.21039 0.0
C702 C 0.70047 0.24623 0.20659 0.0
C703 C 0.72134 0.2469 0.21416 0.0
C704 C 0.77133 0.26739 0.32063 0.0
C705 C 0.76836 0.32095 0.29287 0.0
C706 C 0.83956 0.32709 0.33883 0.0
Eu707 Eu 0.81091 0.29757 0.30565 0.0
C708 C 0.86046 0.32414 0.34785 0.0
C709 C 0.87095 0.30878 0.33276 0.0
C710 C 0.88989 0.30378 0.34203 0.0
C711 C 0.89849 0.31379 0.36662 0.0
C712 C 0.88813 0.32952 0.38158 0.0
C713 C 0.86922 0.33466 0.37222 0.0
C714 C 0.81196 0.29068 0.2569 0.0
C715 C 0.81574 0.23958 0.28795 0.0
O716 O 0.76248 0.24911 0.23391 0.0
O717 O 0.75009 0.22848 0.26052 0.0
O718 O 0.7552 0.26461 0.30422 0.0
O719 O 0.78765 0.2659 0.31115 0.0
O720 O 0.76063 0.29969 0.27618 0.0
O721 O 0.78625 0.32305 0.3074 0.0
O722 O 0.82443 0.311 0.34401 0.0
O723 O 0.83661 0.32996 0.31613 0.0
O724 O 0.82798 0.2914 0.27276 0.0
O725 O 0.79674 0.29423 0.26765 0.0
O726 O 0.82307 0.2608 0.30454 0.0
O727 O 0.79838 0.23756 0.27262 0.0
H728 H 0.71614 0.19224 0.23572 0.0
H729 H 0.67927 0.19143 0.22282 0.0
H730 H 0.69625 0.26176 0.19902 0.0
H731 H 0.73274 0.26296 0.2123 0.0
H732 H 0.86423 0.30012 0.31397 0.0
H733 H 0.89745 0.2914 0.33022 0.0
H734 H 0.89457 0.33764 0.40056 0.0
H735 H 0.86121 0.34633 0.38415 0.0
C736 C 0.08181 0.59633 0.58176 0.0
Eu737 Eu 0.05801 0.55368 0.55956 0.0
C738 C 0.10378 0.60579 0.5808 0.0
C739 C 0.11416 0.59171 0.56444 0.0
C740 C 0.13541 0.59929 0.56449 0.0
C741 C 0.14665 0.62116 0.58085 0.0
C742 C 0.13614 0.63557 0.59689 0.0
C743 C 0.1148 0.62783 0.59695 0.0
C744 C 0.07053 0.50901 0.5554 0.0
C745 C 0.06273 0.52948 0.50334 0.0
C746 C 1.00073 0.4642 0.50994 0.0
Eu747 Eu 0.0245 0.50698 0.53266 0.0
C748 C 0.97892 0.45202 0.50963 0.0
C749 C 0.96395 0.46659 0.5154 0.0
C750 C 0.9433 0.4549 0.51507 0.0
C751 C 0.9372 0.42835 0.50917 0.0
C752 C 0.95231 0.41385 0.50346 0.0
C753 C 0.97296 0.4256 0.50368 0.0
C754 C 1.01365 0.55261 0.53514 0.0
C755 C 0.01951 0.53195 0.58869 0.0
O756 O 0.06922 0.59381 0.56133 0.0
O757 O 0.07827 0.57665 0.59195 0.0
O758 O 0.08286 0.53047 0.55682 0.0
O759 O 0.05274 0.51268 0.55935 0.0
O760 O 0.06768 0.55007 0.52121 0.0
O761 O 0.0481 0.50994 0.50497 0.0
O762 O 1.0133 0.46661 0.53035 0.0
O763 O 1.00359 0.48448 0.50054 0.0
O764 O 1.00073 0.53219 0.53601 0.0
O765 O 0.03092 0.5474 0.53144 0.0
O766 O 0.01454 0.51116 0.57103 0.0
O767 O 0.03413 0.55129 0.58679 0.0
H768 H 0.10586 0.57464 0.55181 0.0
H769 H 0.14307 0.58805 0.55171 0.0
H770 H 0.14451 0.65245 0.60975 0.0
H771 H 0.107 0.63878 0.60979 0.0
H772 H 0.96822 0.48704 0.52011 0.0
H773 H 0.93208 0.4667 0.51921 0.0
H774 H 0.94827 0.39339 0.49918 0.0
H775 H 0.98432 0.41403 0.4993 0.0
C776 C 0.8533 0.76837 0.30147 0.0
Eu777 Eu 0.8142 0.77073 0.30182 0.0
C778 C 0.87099 0.77188 0.28736 0.0
C779 C 0.87569 0.75074 0.27229 0.0
C780 C 0.89368 0.75288 0.26117 0.0
C781 C 0.90761 0.77619 0.26498 0.0
C782 C 0.90262 0.79755 0.27948 0.0
C783 C 0.88454 0.79541 0.29062 0.0
C784 C 0.78349 0.73086 0.30742 0.0
C785 C 0.78659 0.76589 0.24861 0.0
C786 C 0.73043 0.78807 0.29957 0.0
Eu787 Eu 0.76968 0.78681 0.29923 0.0
C788 C 0.71326 0.78528 0.31439 0.0
C789 C 0.70363 0.80597 0.32066 0.0
C790 C 0.68657 0.80396 0.33336 0.0
C791 C 0.67859 0.78113 0.34005 0.0
C792 C 0.68845 0.76045 0.33414 0.0
C793 C 0.70566 0.76251 0.32144 0.0
C794 C 0.79989 0.82691 0.29352 0.0
C795 C 0.79822 0.7937 0.35221 0.0
O796 O 0.84715 0.78829 0.31289 0.0
O797 O 0.83785 0.74948 0.29189 0.0
O798 O 0.80299 0.73027 0.3074 0.0
O799 O 0.78169 0.75287 0.3047 0.0
O800 O 0.80522 0.76826 0.26126 0.0
O801 O 0.77007 0.76959 0.25927 0.0
O802 O 0.73699 0.76787 0.28951 0.0
O803 O 0.74549 0.80773 0.30787 0.0
O804 O 0.78025 0.82687 0.29316 0.0
O805 O 0.80233 0.8051 0.29653 0.0
O806 O 0.77926 0.79067 0.34011 0.0
O807 O 0.81446 0.78964 0.34123 0.0
H808 H 0.86572 0.73226 0.26956 0.0
H809 H 0.8968 0.73612 0.2498 0.0
H810 H 0.91308 0.81577 0.283 0.0
H811 H 0.88153 0.81202 0.30234 0.0
H812 H 0.70908 0.82367 0.31525 0.0
H813 H 0.67918 0.82011 0.33718 0.0
H814 H 0.68276 0.74264 0.33919 0.0
H815 H 0.71279 0.74624 0.31688 0.0
C816 C 0.78622 0.30264 0.87126 0.0
Eu817 Eu 0.78449 0.28963 0.82423 0.0
C818 C 0.77435 0.29793 0.89131 0.0
C819 C 0.7664 0.31754 0.90452 0.0
C820 C 0.76033 0.31582 0.92738 0.0
C821 C 0.7627 0.29475 0.93761 0.0
C822 C 0.76799 0.27381 0.92274 0.0
C823 C 0.77375 0.27539 0.89984 0.0
C824 C 0.75145 0.28879 0.79018 0.0
C825 C 0.76691 0.22902 0.80006 0.0
C826 C 0.80376 0.26058 0.72943 0.0
Eu827 Eu 0.79445 0.2674 0.77338 0.0
C828 C 0.81133 0.2802 0.71603 0.0
C829 C 0.83075 0.28152 0.70778 0.0
C830 C 0.83873 0.3015 0.69695 0.0
C831 C 0.82731 0.32042 0.69398 0.0
C832 C 0.80823 0.31935 0.70335 0.0
C833 C 0.80043 0.29963 0.71421 0.0
C834 C 0.82047 0.26281 0.81213 0.0
C835 C 0.80975 0.32903 0.79596 0.0
O836 O 0.79434 0.28406 0.86051 0.0
O837 O 0.77911 0.31577 0.85612 0.0
O838 O 0.75186 0.29615 0.81354 0.0
O839 O 0.76807 0.28162 0.78638 0.0
O840 O 0.77297 0.24686 0.82038 0.0
O841 O 0.77104 0.23342 0.77835 0.0
O842 O 0.78449 0.25867 0.73391 0.0
O843 O 0.8167 0.25973 0.74845 0.0
O844 O 0.81333 0.24473 0.79311 0.0
O845 O 0.81326 0.28224 0.80989 0.0
O846 O 0.80575 0.31027 0.77632 0.0
O847 O 0.80432 0.32513 0.8172 0.0
H848 H 0.76637 0.33499 0.89809 0.0
H849 H 0.75565 0.33196 0.93793 0.0
H850 H 0.77005 0.25712 0.92966 0.0
H851 H 0.77943 0.25971 0.8899 0.0
H852 H 0.83976 0.26712 0.70977 0.0
H853 H 0.85357 0.30173 0.6904 0.0
H854 H 0.79849 0.33296 0.70124 0.0
H855 H 0.78571 0.29966 0.72108 0.0
C856 C 0.84342 0.8333 0.81006 0.0
Eu857 Eu 0.80867 0.80193 0.8075 0.0
C858 C 0.86487 0.82999 0.81415 0.0
C859 C 0.86941 0.81139 0.82687 0.0
C860 C 0.88523 0.79866 0.82087 0.0
C861 C 0.89635 0.8043 0.80195 0.0
C862 C 0.89412 0.82581 0.79243 0.0
C863 C 0.87839 0.83866 0.79857 0.0
C864 C 0.79099 0.78365 0.84428 0.0
C865 C 0.81125 0.74035 0.79444 0.0
C866 C 0.73027 0.73686 0.78071 0.0
Eu867 Eu 0.76801 0.76116 0.78541 0.0
C868 C 0.7136 0.74677 0.7926 0.0
C869 C 0.69915 0.757 0.7792 0.0
C870 C 0.68707 0.77241 0.79135 0.0
C871 C 0.68934 0.77785 0.81706 0.0
C872 C 0.70269 0.7662 0.83032 0.0
C873 C 0.71462 0.75075 0.81825 0.0
C874 C 0.79017 0.77929 0.7522 0.0
C875 C 0.76532 0.82233 0.80088 0.0
O876 O 0.83306 0.81911 0.78949 0.0
O877 O 0.83287 0.83305 0.82856 0.0
O878 O 0.80758 0.80128 0.84816 0.0
O879 O 0.78502 0.77769 0.82157 0.0
O880 O 0.82131 0.76454 0.79978 0.0
O881 O 0.79057 0.73439 0.78964 0.0
O882 O 0.74536 0.73237 0.79546 0.0
O883 O 0.73715 0.74867 0.76399 0.0
O884 O 0.78004 0.756 0.74869 0.0
O885 O 0.7872 0.79159 0.77243 0.0
O886 O 0.75545 0.79817 0.79588 0.0
O887 O 0.78592 0.82842 0.8047 0.0
H888 H 0.8591 0.8044 0.83897 0.0
H889 H 0.88698 0.7824 0.82874 0.0
H890 H 0.90251 0.8306 0.7778 0.0
H891 H 0.875 0.85292 0.78852 0.0
H892 H 0.69806 0.75429 0.75943 0.0
H893 H 0.67667 0.78096 0.78074 0.0
H894 H 0.70421 0.76946 0.85015 0.0
H895 H 0.72546 0.7431 0.82924 0.0
C896 C 0.60183 0.5702 0.5765 0.0
Eu897 Eu 0.56364 0.5487 0.56069 0.0
C898 C 0.61973 0.55871 0.57131 0.0
C899 C 0.63466 0.55799 0.59076 0.0
C900 C 0.64757 0.54037 0.58775 0.0
C901 C 0.64565 0.52328 0.56524 0.0
C902 C 0.63179 0.52539 0.54528 0.0
C903 C 0.61892 0.54293 0.54829 0.0
C904 C 0.53034 0.54519 0.58712 0.0
C905 C 0.55651 0.48784 0.55711 0.0
C906 C 0.4878 0.48946 0.50985 0.0
Eu907 Eu 0.52567 0.51301 0.52597 0.0
C908 C 0.46862 0.4972 0.51649 0.0
C909 C 0.45444 0.5017 0.49813 0.0
C910 C 0.44071 0.51767 0.50433 0.0
C911 C 0.44101 0.52919 0.52896 0.0
C912 C 0.45338 0.52215 0.54744 0.0
C913 C 0.46713 0.50628 0.54125 0.0
C914 C 0.55911 0.51709 0.49981 0.0
C915 C 0.53287 0.57426 0.53 0.0
O916 O 0.5912 0.57575 0.55776 0.0
O917 O 0.58997 0.55839 0.58979 0.0
O918 O 0.54851 0.55948 0.59486 0.0
O919 O 0.53037 0.53439 0.56486 0.0
O920 O 0.57005 0.50951 0.56177 0.0
O921 O 0.5376 0.48522 0.54553 0.0
O922 O 0.49955 0.48304 0.52707 0.0
O923 O 0.49846 0.50461 0.49814 0.0
O924 O 0.54117 0.50236 0.4918 0.0
O925 O 0.55865 0.52743 0.52199 0.0
O926 O 0.51981 0.55213 0.52375 0.0
O927 O 0.55129 0.57752 0.54309 0.0
H928 H 0.63527 0.5697 0.60874 0.0
H929 H 0.65838 0.53932 0.60332 0.0
H930 H 0.62984 0.51233 0.52779 0.0
H931 H 0.60721 0.54267 0.5331 0.0
H932 H 0.45535 0.4949 0.47894 0.0
H933 H 0.43099 0.52252 0.4898 0.0
H934 H 0.45391 0.53076 0.56657 0.0
H935 H 0.4779 0.50316 0.5558 0.0
C936 C 0.97696 0.53113 0.05849 0.0
Eu937 Eu 0.01588 0.52964 0.05522 0.0
C938 C 0.96066 0.54644 0.05636 0.0
C939 C 0.95402 0.55817 0.07778 0.0
C940 C 0.93716 0.57038 0.07646 0.0
C941 C 0.9263 0.571 0.05365 0.0
C942 C 0.9333 0.55982 0.03216 0.0
C943 C 0.95026 0.54764 0.03349 0.0
C944 C 0.04476 0.52115 0.09122 0.0
C945 C 0.0478 0.58408 0.06236 0.0
C946 C 0.10046 0.53031 0.03527 0.0
Eu947 Eu 0.06148 0.53245 0.03745 0.0
C948 C 0.11666 0.51527 0.03963 0.0
C949 C 0.12612 0.5053 0.01977 0.0
C950 C 0.14262 0.49283 0.0233 0.0
C951 C 0.15025 0.49006 0.04686 0.0
C952 C 0.14051 0.49964 0.06674 0.0
C953 C 0.12389 0.51209 0.06317 0.0
C954 C 0.03238 0.53946 1.00069 0.0
C955 C 0.02939 0.47837 0.03079 0.0
O956 O 0.98324 0.52024 0.03851 0.0
O957 O 0.99204 0.53961 0.07689 0.0
O958 O 0.02515 0.51999 0.09254 0.0
O959 O 0.04748 0.52579 0.07032 0.0
O960 O 0.0286 0.57155 0.0616 0.0
O961 O 0.06327 0.5733 0.05543 0.0
O962 O 0.09408 0.54318 0.05419 0.0
O963 O 0.08547 0.5203 0.017 0.0
O964 O 0.052 0.54034 0.99938 0.0
O965 O 0.02971 0.53572 0.02194 0.0
O966 O 0.0489 0.49047 0.03286 0.0
O967 O 1.01374 0.4895 0.03591 0.0
H968 H 0.96157 0.5574 0.09568 0.0
H969 H 0.93251 0.57912 0.0934 0.0
H970 H 0.92522 0.55967 0.01426 0.0
H971 H 0.95483 0.53861 0.01662 0.0
H972 H 0.12105 0.50769 1.00146 0.0
H973 H 0.14986 0.48612 0.00759 0.0
H974 H 0.1458 0.49765 0.08512 0.0
H975 H 0.11696 0.51953 0.07888 0.0
C976 C 0.01792 0.19104 0.96903 0.0
C977 C 1.00093 0.20195 0.97488 0.0
C978 C 0.02404 0.1728 0.98126 0.0
C979 C 1.01309 0.16556 1.00003 0.0
C980 C 0.99671 0.17755 0.007 0.0
C981 C 0.99074 0.19549 0.99425 0.0
C982 C 0.0415 0.16028 0.97315 0.0
C983 C 0.98491 0.1707 0.02725 0.0
C984 C 1.01168 0.09874 0.00979 0.0
C985 C 0.02793 0.10249 0.02913 0.0
C986 C 1.00662 0.11916 1.00027 0.0
C987 C 0.01767 0.14401 0.0109 0.0
C988 C 0.03345 0.14801 0.03121 0.0
C989 C 0.03866 0.12711 0.03983 0.0
C990 C 0.98997 0.11402 0.97828 0.0
C991 C 0.04505 0.17429 0.04354 0.0
H992 H 0.0259 0.19588 0.95411 0.0
H993 H 0.97772 0.20399 0.9991 0.0
H994 H 0.05328 0.16118 0.98911 0.0
H995 H 0.03526 0.13999 0.96495 0.0
H996 H 0.04931 0.16919 0.95941 0.0
H997 H 0.97437 0.18386 0.03245 0.0
H998 H 0.97545 0.15128 0.02119 0.0
H999 H 0.99586 0.1708 0.04375 0.0
H1000 H 1.00349 0.07968 1.00136 0.0
H1001 H 0.05115 0.13002 0.05492 0.0
H1002 H 0.99671 0.12069 0.96277 0.0
H1003 H 0.97753 0.12462 0.98258 0.0
H1004 H 0.98284 0.0936 0.97224 0.0
H1005 H 0.05433 0.18272 0.03066 0.0
H1006 H 0.05568 0.17432 0.06031 0.0
H1007 H 0.0339 0.18666 0.04861 0.0
C1008 C 0.14051 0.77417 0.21702 0.0
C1009 C 0.13726 0.79363 0.20479 0.0
C1010 C 0.16036 0.77329 0.22825 0.0
C1011 C 0.17763 0.79211 0.22701 0.0
C1012 C 0.17469 0.811 0.21351 0.0
C1013 C 0.15453 0.81168 0.20274 0.0
C1014 C 0.1626 0.75295 0.24264 0.0
C1015 C 0.19274 0.83108 0.21124 0.0
C1016 C 0.22015 0.80701 0.28192 0.0
C1017 C 0.23451 0.79257 0.27358 0.0
C1018 C 0.202 0.8076 0.2667 0.0
C1019 C 0.19805 0.79356 0.24225 0.0
C1020 C 0.2128 0.77951 0.23341 0.0
C1021 C 0.23074 0.77892 0.2493 0.0
C1022 C 0.18667 0.82255 0.27716 0.0
C1023 C 0.20935 0.7645 0.20742 0.0
H1024 H 0.12736 0.76002 0.21868 0.0
H1025 H 0.15226 0.82665 0.19315 0.0
H1026 H 0.1751 0.74309 0.2368 0.0
H1027 H 0.1671 0.7617 0.26241 0.0
H1028 H 0.14799 0.73868 0.2404 0.0
H1029 H 0.18846 0.84234 0.19761 0.0
H1030 H 0.19824 0.84411 0.22928 0.0
H1031 H 0.20593 0.82233 0.2058 0.0
H1032 H 0.22289 0.81759 0.3007 0.0
H1033 H 0.24135 0.76711 0.24296 0.0
H1034 H 0.17175 0.80957 0.27709 0.0
H1035 H 0.18338 0.83618 0.26562 0.0
H1036 H 0.1924 0.83318 0.29624 0.0
H1037 H 0.19656 0.74787 0.20533 0.0
H1038 H 0.22349 0.75767 0.20231 0.0
H1039 H 0.20463 0.77613 0.19438 0.0
C1040 C 0.5109 0.83432 0.46017 0.0
C1041 C 0.49796 0.81729 0.47052 0.0
C1042 C 0.51697 0.85991 0.47164 0.0
C1043 C 0.51034 0.86857 0.49431 0.0
C1044 C 0.49821 0.85123 0.50552 0.0
C1045 C 0.49192 0.82581 0.49332 0.0
C1046 C 0.52956 0.87791 0.45886 0.0
C1047 C 0.49132 0.85967 0.53 0.0
C1048 C 0.53817 0.93413 0.52882 0.0
C1049 C 0.52384 0.94884 0.52273 0.0
C1050 C 0.53365 0.90776 0.52053 0.0
C1051 C 0.5147 0.89609 0.50515 0.0
C1052 C 0.50019 0.91094 0.49904 0.0
C1053 C 0.50482 0.93711 0.50821 0.0
C1054 C 0.54921 0.89243 0.52801 0.0
C1055 C 0.48002 0.89932 0.48221 0.0
H1056 H 0.51553 0.82789 0.44248 0.0
H1057 H 0.48207 0.81267 0.5015 0.0
H1058 H 0.52031 0.8918 0.45401 0.0
H1059 H 0.54376 0.88873 0.47125 0.0
H1060 H 0.53424 0.86796 0.44184 0.0
H1061 H 0.4841 0.84343 0.53755 0.0
H1062 H 0.50473 0.87104 0.54343 0.0
H1063 H 0.47982 0.87192 0.52799 0.0
H1064 H 0.55279 0.94323 0.54029 0.0
H1065 H 0.49381 0.94854 0.50336 0.0
H1066 H 0.55557 0.88384 0.51168 0.0
H1067 H 0.54149 0.87671 0.53585 0.0
H1068 H 0.56234 0.90408 0.54173 0.0
H1069 H 0.48333 0.89007 0.46411 0.0
H1070 H 0.47041 0.91353 0.47935 0.0
H1071 H 0.4708 0.88448 0.48986 0.0
C1072 C 0.52001 0.28863 0.7294 0.0
C1073 C 0.52058 0.29222 0.70533 0.0
C1074 C 0.5011 0.28478 0.73889 0.0
C1075 C 0.48225 0.28395 0.72379 0.0
C1076 C 0.48266 0.28634 0.69912 0.0
C1077 C 0.50182 0.29073 0.6903 0.0
C1078 C 0.50138 0.28256 0.76536 0.0
C1079 C 0.4629 0.2849 0.6822 0.0
C1080 C 0.43166 0.25604 0.74432 0.0
C1081 C 0.42493 0.27786 0.75507 0.0
C1082 C 0.45011 0.25769 0.7338 0.0
C1083 C 0.46223 0.28176 0.73412 0.0
C1084 C 0.45535 0.30385 0.74459 0.0
C1085 C 0.43677 0.30163 0.75485 0.0
C1086 C 0.45672 0.23368 0.72253 0.0
C1087 C 0.46784 0.32987 0.74538 0.0
H1088 H 0.53444 0.2899 0.74118 0.0
H1089 H 0.50205 0.29319 0.67163 0.0
H1090 H 0.49553 0.29856 0.77563 0.0
H1091 H 0.49087 0.26488 0.76666 0.0
H1092 H 0.51721 0.28265 0.77442 0.0
H1093 H 0.46571 0.28513 0.66305 0.0
H1094 H 0.45157 0.26741 0.68221 0.0
H1095 H 0.45563 0.30116 0.68883 0.0
H1096 H 0.42245 0.23758 0.7441 0.0
H1097 H 0.43181 0.31857 0.76334 0.0
H1098 H 0.47187 0.23258 0.73249 0.0
H1099 H 0.45892 0.23376 0.7032 0.0
H1100 H 0.4452 0.21647 0.72299 0.0
H1101 H 0.4835 0.33212 0.75592 0.0
H1102 H 0.46027 0.34516 0.75395 0.0
H1103 H 0.47005 0.33225 0.72655 0.0
C1104 C 0.03365 0.79586 0.61746 0.0
C1105 C 1.01299 0.79929 0.61609 0.0
C1106 C 0.0476 0.80788 0.60421 0.0
C1107 C 0.04084 0.82429 0.58986 0.0
C1108 C 0.01963 0.82668 0.58736 0.0
C1109 C 1.00587 0.81385 0.60037 0.0
C1110 C 0.06967 0.80372 0.60671 0.0
C1111 C 1.01169 0.84433 0.5726 0.0
C1112 C 0.07098 0.8856 0.58273 0.0
C1113 C 0.06766 0.88146 0.55711 0.0
C1114 C 0.06469 0.86581 0.59447 0.0
C1115 C 0.05603 0.84151 0.57999 0.0
C1116 C 0.05771 0.83635 0.55471 0.0
C1117 C 0.06335 0.85671 0.54331 0.0
C1118 C 0.06405 0.87186 0.62173 0.0
C1119 C 0.05032 0.81014 0.53915 0.0
H1120 H 0.03902 0.78386 0.62912 0.0
H1121 H 0.98985 0.81619 0.59919 0.0
H1122 H 0.07759 0.80779 0.59099 0.0
H1123 H 0.07862 0.81625 0.62376 0.0
H1124 H 0.07002 0.78392 0.60834 0.0
H1125 H 0.99444 0.84043 0.56887 0.0
H1126 H 0.01699 0.864 0.58321 0.0
H1127 H 0.01775 0.84299 0.55482 0.0
H1128 H 0.07482 0.90488 0.59328 0.0
H1129 H 0.06128 0.85353 0.52345 0.0
H1130 H 0.06984 0.85747 0.63062 0.0
H1131 H 0.04773 0.87154 0.62503 0.0
H1132 H 0.07349 0.89081 0.63061 0.0
H1133 H 0.05405 0.79563 0.54941 0.0
H1134 H 0.05746 0.80801 0.52201 0.0
H1135 H 0.0332 0.8066 0.53405 0.0
C1136 C 0.51503 0.77708 0.89097 0.0
C1137 C 0.5253 0.79758 0.90958 0.0
C1138 C 0.49592 0.77785 0.87763 0.0
C1139 C 0.48679 0.79927 0.88371 0.0
C1140 C 0.49759 0.82037 0.90171 0.0
C1141 C 0.51681 0.81936 0.91405 0.0
C1142 C 0.48508 0.75538 0.85793 0.0
C1143 C 0.48824 0.8434 0.90925 0.0
C1144 C 0.44143 0.81635 0.848 0.0
C1145 C 0.42553 0.80965 0.86167 0.0
C1146 C 0.46124 0.81117 0.85364 0.0
C1147 C 0.46515 0.79914 0.87343 0.0
C1148 C 0.44878 0.79094 0.88627 0.0
C1149 C 0.42915 0.79629 0.88019 0.0
C1150 C 0.47831 0.82008 0.83951 0.0
C1151 C 0.45234 0.77815 0.90759 0.0
H1152 H 0.52158 0.76021 0.88732 0.0
H1153 H 0.52445 0.83524 0.92833 0.0
H1154 H 0.47146 0.74512 0.86446 0.0
H1155 H 0.47922 0.76167 0.84125 0.0
H1156 H 0.49551 0.74201 0.85292 0.0
H1157 H 0.49912 0.85863 0.92284 0.0
H1158 H 0.48363 0.85115 0.89303 0.0
H1159 H 0.474 0.83797 0.91749 0.0
H1160 H 0.43864 0.82662 0.8336 0.0
H1161 H 0.41671 0.79052 0.89035 0.0
H1162 H 0.48772 0.8054 0.83517 0.0
H1163 H 0.48888 0.83719 0.85089 0.0
H1164 H 0.47204 0.82493 0.82217 0.0
H1165 H 0.46068 0.7625 0.90259 0.0
H1166 H 0.43756 0.77044 0.91378 0.0
H1167 H 0.46223 0.79199 0.92325 0.0
C1168 C 0.51542 0.1908 0.11849 0.0
C1169 C 0.53289 0.20454 0.1349 0.0
C1170 C 0.5174 0.17289 0.09817 0.0
C1171 C 0.53729 0.16789 0.09474 0.0
C1172 C 0.55518 0.18349 0.1097 0.0
C1173 C 0.55277 0.20178 0.12972 0.0
C1174 C 0.49796 0.15746 0.08189 0.0
C1175 C 0.57671 0.17941 0.10599 0.0
C1176 C 0.52989 0.09749 0.07901 0.0
C1177 C 0.53107 0.09268 0.05398 0.0
C1178 C 0.53451 0.12206 0.09286 0.0
C1179 C 0.53834 0.14259 0.08085 0.0
C1180 C 0.53953 0.13797 0.05537 0.0
C1181 C 0.53643 0.11283 0.04227 0.0
C1182 C 0.53408 0.12595 0.12021 0.0
C1183 C 0.54276 0.15917 0.0416 0.0
H1184 H 0.50003 0.19331 0.12189 0.0
H1185 H 0.56639 0.21303 0.1419 0.0
H1186 H 0.50035 0.15439 0.06236 0.0
H1187 H 0.49421 0.13865 0.08678 0.0
H1188 H 0.4844 0.16674 0.08398 0.0
H1189 H 0.58861 0.19684 0.11386 0.0
H1190 H 0.58032 0.1642 0.11533 0.0
H1191 H 0.57784 0.17344 0.08624 0.0
H1192 H 0.52514 0.08208 0.08791 0.0
H1193 H 0.53724 0.10896 0.02275 0.0
H1194 H 0.51993 0.13307 0.12467 0.0
H1195 H 0.5478 0.14019 0.13028 0.0
H1196 H 0.534 0.10814 0.12698 0.0
H1197 H 0.52737 0.16277 0.03479 0.0
H1198 H 0.55068 0.15398 0.02544 0.0
H1199 H 0.55192 0.17699 0.05341 0.0
C1200 C 0.12302 0.29388 0.41728 0.0
C1201 C 0.10212 0.29516 0.41249 0.0
C1202 C 0.13589 0.2959 0.39921 0.0
C1203 C 0.12759 0.30001 0.37621 0.0
C1204 C 0.1072 0.30462 0.37262 0.0
C1205 C 0.09439 0.30141 0.39066 0.0
C1206 C 0.15769 0.29119 0.40389 0.0
C1207 C 0.09851 0.31116 0.34914 0.0
C1208 C 0.16881 0.30208 0.33457 0.0
C1209 C 0.16574 0.27631 0.32364 0.0
C1210 C 0.15528 0.31093 0.35023 0.0
C1211 C 0.13848 0.2935 0.35491 0.0
C1212 C 0.13424 0.26799 0.34199 0.0
C1213 C 0.14792 0.25976 0.32643 0.0
C1214 C 0.15949 0.33859 0.36246 0.0
C1215 C 0.11645 0.24872 0.34642 0.0
H1216 H 0.12886 0.28941 0.43446 0.0
H1217 H 0.07824 0.30305 0.38744 0.0
H1218 H 0.15883 0.27309 0.39196 0.0
H1219 H 0.16903 0.30643 0.3993 0.0
H1220 H 0.16218 0.29011 0.42329 0.0
H1221 H 0.0847 0.31989 0.35147 0.0
H1222 H 0.11047 0.32438 0.34279 0.0
H1223 H 0.09378 0.29376 0.33459 0.0
H1224 H 0.18232 0.31503 0.33176 0.0
H1225 H 0.14553 0.23985 0.318 0.0
H1226 H 0.15862 0.34106 0.38239 0.0
H1227 H 0.14743 0.34766 0.35439 0.0
H1228 H 0.17497 0.34869 0.35995 0.0
H1229 H 0.11898 0.24627 0.36566 0.0
H1230 H 0.11482 0.22997 0.33404 0.0
H1231 H 0.10161 0.2553 0.34365 0.0
C1232 C 0.9497 0.04636 0.19204 0.0
C1233 C 0.95967 0.03918 0.21243 0.0
C1234 C 0.95878 0.04662 0.16998 0.0
C1235 C 0.9784 0.03944 0.16778 0.0
C1236 C 0.98809 0.03149 0.18806 0.0
C1237 C 0.97878 0.03151 0.20973 0.0
C1238 C 0.94757 0.05517 0.14914 0.0
C1239 C 1.0088 0.02352 0.18719 0.0
C1240 C 1.00002 0.02219 0.106 0.0
C1241 C 0.01395 0.04459 0.10534 0.0
C1242 C 0.98773 0.02056 0.12535 0.0
C1243 C 0.98955 0.04155 0.14526 0.0
C1244 C 1.00348 0.06419 0.14448 0.0
C1245 C 0.01515 0.06548 0.1247 0.0
C1246 C 0.97296 0.99609 0.12465 0.0
C1247 C 1.00658 0.08708 0.16505 0.0
H1248 H 0.93507 0.05249 0.19352 0.0
H1249 H 0.98685 0.02572 0.22494 0.0
H1250 H 0.95667 0.07323 0.14651 0.0
H1251 H 0.94616 0.04107 0.13179 0.0
H1252 H 0.9318 0.05805 0.15251 0.0
H1253 H 0.01405 0.01686 0.20392 0.0
H1254 H 1.00784 1.00812 0.17099 0.0
H1255 H 0.02075 0.03968 0.18524 0.0
H1256 H 0.99874 1.00582 0.09139 0.0
H1257 H 0.02572 0.08298 0.12475 0.0
H1258 H 0.95734 0.99978 0.12764 0.0
H1259 H 0.97852 0.9872 0.13967 0.0
H1260 H 0.97151 0.98249 0.10694 0.0
H1261 H 0.99146 0.09252 0.16775 0.0
H1262 H 0.01734 0.10358 0.16155 0.0
H1263 H 1.01299 0.08247 0.18243 0.0
C1264 C 0.32518 0.75742 0.50128 0.0
C1265 C 0.3291 0.75704 0.52608 0.0
C1266 C 0.30912 0.76849 0.49257 0.0
C1267 C 0.29646 0.7788 0.50917 0.0
C1268 C 0.30092 0.7792 0.53447 0.0
C1269 C 0.31732 0.76829 0.54265 0.0
C1270 C 0.30504 0.76779 0.46537 0.0
C1271 C 0.28762 0.7893 0.5527 0.0
C1272 C 0.26969 0.81721 0.47404 0.0
C1273 C 0.25534 0.79721 0.45839 0.0
C1274 C 0.28152 0.81278 0.49444 0.0
C1275 C 0.27829 0.78815 0.49924 0.0
C1276 C 0.26016 0.77039 0.4876 0.0
C1277 C 0.24852 0.77534 0.46725 0.0
C1278 C 0.3 0.83279 0.50747 0.0
C1279 C 0.25531 0.74449 0.49355 0.0
H1280 H 0.33405 0.74802 0.48858 0.0
H1281 H 0.32009 0.7671 0.5618 0.0
H1282 H 0.28998 0.75494 0.45737 0.0
H1283 H 0.30404 0.78687 0.46204 0.0
H1284 H 0.31736 0.76099 0.45548 0.0
H1285 H 0.29655 0.79562 0.57145 0.0
H1286 H 0.28115 0.80526 0.54758 0.0
H1287 H 0.2744 0.77397 0.55327 0.0
H1288 H 0.27446 0.83484 0.46822 0.0
H1289 H 0.23649 0.76037 0.45603 0.0
H1290 H 0.31387 0.82972 0.49864 0.0
H1291 H 0.30339 0.83178 0.52703 0.0
H1292 H 0.29744 0.85205 0.50634 0.0
H1293 H 0.26476 0.73218 0.48373 0.0
H1294 H 0.23865 0.73556 0.48766 0.0
H1295 H 0.25926 0.74548 0.51349 0.0
C1296 C 0.59388 0.01674 0.72354 0.0
C1297 C 0.61361 1.01086 0.72885 0.0
C1298 C 0.58541 0.01783 0.69959 0.0
C1299 C 0.59672 0.01293 0.67969 0.0
C1300 C 0.61671 1.00702 0.68476 0.0
C1301 C 0.62488 1.00604 0.70911 0.0
C1302 C 0.56413 0.02421 0.6956 0.0
C1303 C 0.62945 1.00158 0.66437 0.0
C1304 C 0.56134 0.99395 0.61718 0.0
C1305 C 0.56306 0.01679 0.60891 0.0
C1306 C 0.57337 0.99195 0.639 0.0
C1307 C 0.58712 0.01357 0.65382 0.0
C1308 C 0.58949 0.03651 0.64501 0.0
C1309 C 0.5776 0.03779 0.62273 0.0
C1310 C 0.5704 0.9669 0.64691 0.0
C1311 C 0.60354 0.06026 0.65999 0.0
H1312 H 0.58479 0.02054 0.73828 0.0
H1313 H 0.6401 1.00153 0.71266 0.0
H1314 H 0.56498 0.04105 0.68714 0.0
H1315 H 0.55335 1.0083 0.68273 0.0
H1316 H 0.55744 0.02812 0.71293 0.0
H1317 H 0.64469 0.99749 0.67106 0.0
H1318 H 0.62078 0.98515 0.6502 0.0
H1319 H 0.6322 0.01799 0.65534 0.0
H1320 H 0.5499 0.97772 0.60698 0.0
H1321 H 0.57869 0.05573 0.61698 0.0
H1322 H 0.5617 0.96798 0.66281 0.0
H1323 H 0.58565 0.96243 0.65287 0.0
H1324 H 0.56164 0.95119 0.63199 0.0
H1325 H 0.59676 0.06689 0.67669 0.0
H1326 H 0.60565 0.0757 0.6496 0.0
H1327 H 0.619 0.05642 0.66609 0.0
C1328 C 0.30494 0.34594 0.9998 0.0
C1329 C 0.32601 0.35454 0.00944 0.0
C1330 C 0.29878 0.33471 0.97474 0.0
C1331 C 0.31399 0.33305 0.95878 0.0
C1332 C 0.33527 0.34194 0.96849 0.0
C1333 C 0.34101 0.3521 0.9937 0.0
C1334 C 0.27601 0.32462 0.96534 0.0
C1335 C 0.352 0.34139 0.95213 0.0
C1336 C 0.30462 0.28846 0.8961 0.0
C1337 C 0.29993 0.30446 0.88043 0.0
C1338 C 0.30814 0.29712 0.92173 0.0
C1339 C 0.30784 0.32271 0.93182 0.0
C1340 C 0.30302 0.33888 0.91591 0.0
C1341 C 0.29873 0.32939 0.89043 0.0
C1342 C 0.31244 0.27899 0.93797 0.0
C1343 C 0.30324 0.36646 0.92571 0.0
H1344 H 0.2933 0.34772 0.01191 0.0
H1345 H 0.35731 0.35905 1.00098 0.0
H1346 H 0.27048 0.33565 0.95216 0.0
H1347 H 0.27362 0.30468 0.95536 0.0
H1348 H 0.2663 0.32556 0.98037 0.0
H1349 H 0.36777 0.34965 0.96244 0.0
H1350 H 0.35178 0.32165 0.94287 0.0
H1351 H 0.349 0.3521 0.93759 0.0
H1352 H 0.30539 0.2691 0.88828 0.0
H1353 H 0.29522 0.34176 0.87821 0.0
H1354 H 0.3023 0.27975 0.95255 0.0
H1355 H 0.32876 0.28454 0.94718 0.0
H1356 H 0.30987 0.25918 0.9275 0.0
H1357 H 0.29229 0.36841 0.93929 0.0
H1358 H 0.29895 0.37643 0.91096 0.0
H1359 H 0.31898 0.37601 0.93534 0.0
C1360 C 0.97671 0.04576 0.35539 0.0
C1361 C 0.95514 0.04459 0.35115 0.0
C1362 C 0.98711 0.04562 0.37882 0.0
C1363 C 0.97575 0.04338 0.39872 0.0
C1364 C 0.95389 0.04176 0.39441 0.0
C1365 C 0.94397 0.04281 0.37097 0.0
C1366 C 1.01041 0.04809 0.38233 0.0
C1367 C 0.94085 0.03855 0.41455 0.0
C1368 C 1.0005 0.01716 0.45162 0.0
C1369 C 1.00791 0.03888 0.47034 0.0
C1370 C 0.98992 0.01836 0.42865 0.0
C1371 C 0.98665 0.04193 0.42365 0.0
C1372 C 0.9941 0.06397 0.44242 0.0
C1373 C 1.00445 0.06218 0.46542 0.0
C1374 C 0.98213 0.99421 0.40968 0.0
C1375 C 0.99133 0.08961 0.43814 0.0
H1376 H 0.98562 0.04743 0.34042 0.0
H1377 H 0.92734 0.04173 0.36805 0.0
H1378 H 0.01766 0.06429 0.39755 0.0
H1379 H 0.01454 0.03084 0.38751 0.0
H1380 H 0.0172 0.05097 0.36553 0.0
H1381 H 0.92407 0.0372 0.40835 0.0
H1382 H 0.94285 0.02117 0.42123 0.0
H1383 H 0.94612 0.05472 0.43034 0.0
H1384 H 1.00282 0.99895 0.45495 0.0
H1385 H 1.00998 0.07917 0.4795 0.0
H1386 H 0.98972 0.99521 0.39308 0.0
H1387 H 0.96515 0.99179 0.404 0.0
H1388 H 0.98519 0.97728 0.41655 0.0
H1389 H 0.99888 0.09376 0.42218 0.0
H1390 H 0.99804 0.10497 0.45435 0.0
H1391 H 0.97458 0.08967 0.43367 0.0
C1392 C 0.35136 0.76556 0.64192 0.0
C1393 C 0.33991 0.74596 0.62326 0.0
C1394 C 0.3425 0.77464 0.66251 0.0
C1395 C 0.32184 0.76361 0.6645 0.0
C1396 C 0.30966 0.74529 0.64485 0.0
C1397 C 0.31885 0.73671 0.62441 0.0
C1398 C 0.35575 0.79479 0.68295 0.0
C1399 C 0.28749 0.73323 0.64596 0.0
C1400 C 0.32042 0.76265 0.7307 0.0
C1401 C 0.31266 0.78439 0.73839 0.0
C1402 C 0.32111 0.75389 0.70589 0.0
C1403 C 0.31482 0.76805 0.68875 0.0
C1404 C 0.30531 0.78883 0.69624 0.0
C1405 C 0.30409 0.79664 0.72121 0.0
C1406 C 0.33006 0.7306 0.69833 0.0
C1407 C 0.29795 0.80396 0.67834 0.0
H1408 H 0.36744 0.77323 0.64087 0.0
H1409 H 0.30961 0.72206 0.60972 0.0
H1410 H 0.34707 0.80981 0.68912 0.0
H1411 H 0.35974 0.78628 0.69889 0.0
H1412 H 0.37043 0.80363 0.6773 0.0
H1413 H 0.27838 0.72686 0.6273 0.0
H1414 H 0.28746 0.71631 0.65418 0.0
H1415 H 0.27956 0.74629 0.65734 0.0
H1416 H 0.32643 0.75284 0.74415 0.0
H1417 H 0.29769 0.81321 0.72744 0.0
H1418 H 0.34578 0.73624 0.69337 0.0
H1419 H 0.32023 0.71785 0.68196 0.0
H1420 H 0.33138 0.71989 0.71323 0.0
H1421 H 0.3115 0.81714 0.67476 0.0
H1422 H 0.28674 0.81528 0.68568 0.0
H1423 H 0.29052 0.79146 0.66056 0.0
C1424 C 0.61398 0.03975 0.87689 0.0
C1425 C 0.62736 0.02274 0.87151 0.0
C1426 C 0.60461 0.04186 0.89873 0.0
C1427 C 0.6079 0.026 0.91565 0.0
C1428 C 0.62131 1.0087 0.91018 0.0
C1429 C 0.63101 1.00757 0.88864 0.0
C1430 C 0.59101 0.06109 0.90363 0.0
C1431 C 0.62507 0.99079 0.92686 0.0
C1432 C 0.59698 0.0436 0.98288 0.0
C1433 C 0.5771 0.02889 0.98243 0.0
C1434 C 0.60701 0.04293 0.96157 0.0
C1435 C 0.59718 0.02718 0.93873 0.0
C1436 C 0.57712 0.0123 0.93816 0.0
C1437 C 0.56745 0.01331 0.95974 0.0
C1438 C 0.62826 0.05925 0.96355 0.0
C1439 C 0.5658 0.99507 0.91463 0.0
H1440 H 0.61086 0.05158 0.86399 0.0
H1441 H 0.64098 0.99404 0.88479 0.0
H1442 H 0.57484 0.05132 0.90373 0.0
H1443 H 0.59648 0.07351 0.92199 0.0
H1444 H 0.59089 0.07306 0.88967 0.0
H1445 H 0.63576 0.97835 0.92021 0.0
H1446 H 0.63176 1.00161 0.94559 0.0
H1447 H 0.61009 0.97873 0.92831 0.0
H1448 H 0.60483 0.05577 1.00001 0.0
H1449 H 0.55216 1.0018 0.95874 0.0
H1450 H 0.62795 0.07206 0.95038 0.0
H1451 H 0.63965 0.04721 0.9586 0.0
H1452 H 0.63379 0.07086 0.9823 0.0
H1453 H 0.56348 1.00625 0.90033 0.0
H1454 H 0.55041 0.9846 0.91698 0.0
H1455 H 0.5753 0.9812 0.90779 0.0
C1456 C 0.33149 0.33223 0.13704 0.0
C1457 C 0.32194 0.35194 0.13165 0.0
C1458 C 0.32641 0.32012 0.15629 0.0
C1459 C 0.3115 0.32791 0.1708 0.0
C1460 C 0.30164 0.34762 0.16535 0.0
C1461 C 0.30688 0.35928 0.14581 0.0
C1462 C 0.33715 0.29904 0.16122 0.0
C1463 C 0.28568 0.3566 0.18035 0.0
C1464 C 0.28425 0.28073 0.20493 0.0
C1465 C 0.29448 0.2895 0.22911 0.0
C1466 C 0.28949 0.29315 0.18599 0.0
C1467 C 0.3057 0.31478 0.19105 0.0
C1468 C 0.31636 0.32356 0.21534 0.0
C1469 C 0.31041 0.31102 0.2341 0.0
C1470 C 0.27747 0.28324 0.16054 0.0
C1471 C 0.3339 0.34636 0.22159 0.0
H1472 H 0.34314 0.32634 0.1263 0.0
H1473 H 0.29955 0.37464 0.14207 0.0
H1474 H 0.34543 0.30386 0.18028 0.0
H1475 H 0.32548 0.28138 0.15947 0.0
H1476 H 0.34851 0.2953 0.14843 0.0
H1477 H 0.27942 0.37211 0.17383 0.0
H1478 H 0.27258 0.34065 0.17961 0.0
H1479 H 0.29271 0.36343 0.19985 0.0
H1480 H 0.27173 0.26426 0.20081 0.0
H1481 H 0.31804 0.3183 0.25263 0.0
H1482 H 0.28817 0.27809 0.14736 0.0
H1483 H 0.27014 0.29819 0.15445 0.0
H1484 H 0.26512 0.26638 0.15965 0.0
H1485 H 0.34596 0.34363 0.20957 0.0
H1486 H 0.34127 0.35006 0.24102 0.0
H1487 H 0.32798 0.36332 0.21823 0.0
C1488 C 0.19508 0.9144 0.01202 0.0
C1489 C 0.19654 0.89376 0.02306 0.0
C1490 C 0.18201 0.93093 0.01964 0.0
C1491 C 0.17009 0.92642 0.03849 0.0
C1492 C 0.17004 0.90429 0.04797 0.0
C1493 C 0.18335 0.88821 0.04018 0.0
C1494 C 0.1822 0.95424 0.00887 0.0
C1495 C 0.1569 0.89845 0.06738 0.0
C1496 C 0.16341 0.98696 0.07834 0.0
C1497 C 0.1441 0.98951 0.06741 0.0
C1498 C 0.17158 0.96563 0.0699 0.0
C1499 C 0.15996 0.94649 0.05031 0.0
C1500 C 0.13969 0.94809 0.04066 0.0
C1501 C 0.13203 0.96977 0.04925 0.0
C1502 C 0.19317 0.96432 0.0809 0.0
C1503 C 0.12656 0.9278 0.02027 0.0
H1504 H 0.20511 0.91862 0.99862 0.0
H1505 H 0.18413 0.8719 0.04836 0.0
H1506 H 0.16609 0.95618 1.00293 0.0
H1507 H 0.18958 0.9713 0.02309 0.0
H1508 H 0.19087 0.95382 0.99294 0.0
H1509 H 0.15673 0.87909 0.07072 0.0
H1510 H 0.16293 0.91227 0.08486 0.0
H1511 H 0.14074 0.90034 0.06183 0.0
H1512 H 0.17255 1.00224 0.09254 0.0
H1513 H 0.11683 0.97167 0.04125 0.0
H1514 H 0.20382 0.96568 0.06697 0.0
H1515 H 0.19312 0.94593 0.08645 0.0
H1516 H 0.19945 0.97978 0.09716 0.0
H1517 H 0.1316 0.93043 1.00251 0.0
H1518 H 0.10983 0.92874 0.01926 0.0
H1519 H 0.12841 0.90866 0.02266 0.0
C1520 C 0.68487 0.59119 0.99932 0.0
C1521 C 0.69584 0.6151 0.01208 0.0
C1522 C 0.66484 0.5813 1.00373 0.0
C1523 C 0.65544 0.59551 0.02155 0.0
C1524 C 0.66617 0.61996 0.03409 0.0
C1525 C 0.68619 0.62952 0.02913 0.0
C1526 C 0.65395 0.55527 0.98974 0.0
C1527 C 0.65683 0.63564 0.05338 0.0
C1528 C 0.59703 0.57265 0.0188 0.0
C1529 C 0.59659 0.55572 0.03475 0.0
C1530 C 0.61604 0.58657 0.01499 0.0
C1531 C 0.63496 0.58391 0.02786 0.0
C1532 C 0.63437 0.56804 0.04517 0.0
C1533 C 0.61524 0.5539 0.04814 0.0
C1534 C 0.61592 0.603 0.99618 0.0
C1535 C 0.65403 0.5651 0.05981 0.0
H1536 H 0.69208 0.57991 0.98603 0.0
H1537 H 0.69454 0.64797 0.03917 0.0
H1538 H 0.65191 0.54217 1.00258 0.0
H1539 H 0.63824 0.55592 0.98093 0.0
H1540 H 0.66273 0.54737 0.97535 0.0
H1541 H 0.66638 0.65498 0.06012 0.0
H1542 H 0.64095 0.6372 0.04601 0.0
H1543 H 0.65543 0.6262 0.06918 0.0
H1544 H 0.58263 0.57407 0.00839 0.0
H1545 H 0.61491 0.54103 0.0607 0.0
H1546 H 0.62274 0.59446 0.98019 0.0
H1547 H 0.62564 0.62204 1.00387 0.0
H1548 H 0.59997 0.60515 0.98962 0.0
H1549 H 0.66319 0.55481 0.04745 0.0
H1550 H 0.65077 0.55449 0.0745 0.0
H1551 H 0.66383 0.58391 0.06831 0.0
C1552 C 0.71752 0.44942 0.29337 0.0
C1553 C 0.70484 0.45284 0.31192 0.0
C1554 C 0.72775 0.42832 0.28945 0.0
C1555 C 0.72501 0.40931 0.30381 0.0
C1556 C 0.71172 0.41245 0.32205 0.0
C1557 C 0.70229 0.43403 0.32608 0.0
C1558 C 0.74208 0.42677 0.27028 0.0
C1559 C 0.70752 0.39299 0.33766 0.0
C1560 C 0.73785 0.34248 0.2812 0.0
C1561 C 0.75709 0.34345 0.29542 0.0
C1562 C 0.72747 0.36345 0.28354 0.0
C1563 C 0.7363 0.38666 0.30042 0.0
C1564 C 0.75575 0.38775 0.31473 0.0
C1565 C 0.7657 0.36649 0.31215 0.0
C1566 C 0.70678 0.3606 0.26798 0.0
C1567 C 0.76619 0.41159 0.33298 0.0
H1568 H 0.7201 0.46375 0.28246 0.0
H1569 H 0.69269 0.43619 0.34056 0.0
H1570 H 0.75806 0.42726 0.2791 0.0
H1571 H 0.73708 0.40857 0.25682 0.0
H1572 H 0.74253 0.44254 0.26032 0.0
H1573 H 0.69575 0.39696 0.3498 0.0
H1574 H 0.70198 0.37388 0.32582 0.0
H1575 H 0.72211 0.39254 0.34923 0.0
H1576 H 0.73072 0.32515 0.26817 0.0
H1577 H 0.78045 0.36805 0.3234 0.0
H1578 H 0.70761 0.37522 0.25665 0.0
H1579 H 0.69472 0.3636 0.27994 0.0
H1580 H 0.70183 0.34165 0.25565 0.0
H1581 H 0.76831 0.42784 0.32366 0.0
H1582 H 0.78159 0.4101 0.34209 0.0
H1583 H 0.7562 0.41582 0.34728 0.0
C1584 C 0.82507 0.35293 0.52464 0.0
C1585 C 0.80929 0.36281 0.51335 0.0
C1586 C 0.84605 0.36179 0.52281 0.0
C1587 C 0.85127 0.38073 0.50914 0.0
C1588 C 0.83527 0.38974 0.49666 0.0
C1589 C 0.8145 0.38074 0.49899 0.0
C1590 C 0.86266 0.35178 0.53647 0.0
C1591 C 0.84009 0.40979 0.48176 0.0
C1592 C 0.90385 0.42544 0.52729 0.0
C1593 C 0.91521 0.41589 0.5092 0.0
C1594 C 0.88311 0.41409 0.52751 0.0
C1595 C 0.87344 0.39248 0.5093 0.0
C1596 C 0.88479 0.38264 0.49104 0.0
C1597 C 0.9055 0.39447 0.49117 0.0
C1598 C 0.8715 0.42534 0.54719 0.0
C1599 C 0.87497 0.35977 0.4712 0.0
H1600 H 0.82113 0.33917 0.53586 0.0
H1601 H 0.80234 0.38832 0.49006 0.0
H1602 H 0.87342 0.34525 0.52393 0.0
H1603 H 0.872 0.36717 0.55125 0.0
H1604 H 0.85603 0.33589 0.54484 0.0
H1605 H 0.82585 0.41307 0.47141 0.0
H1606 H 0.84812 0.42787 0.49413 0.0
H1607 H 0.85071 0.40436 0.4686 0.0
H1608 H 0.91125 0.44171 0.54151 0.0
H1609 H 0.91399 0.38715 0.47689 0.0
H1610 H 0.86576 0.41092 0.55769 0.0
H1611 H 0.85772 0.43127 0.53866 0.0
H1612 H 0.88132 0.442 0.56019 0.0
H1613 H 0.86921 0.34355 0.47957 0.0
H1614 H 0.886 0.35415 0.45859 0.0
H1615 H 0.86135 0.36376 0.46029 0.0
C1616 C 0.38142 0.12646 0.27991 0.0
C1617 C 0.37811 0.11244 0.29838 0.0
C1618 C 0.37107 0.14693 0.27739 0.0
C1619 C 0.35678 0.15397 0.29355 0.0
C1620 C 0.35325 0.13965 0.31192 0.0
C1621 C 0.36372 0.11945 0.31402 0.0
C1622 C 0.37551 0.16116 0.25736 0.0
C1623 C 0.33854 0.14599 0.32989 0.0
C1624 C 0.34324 0.22127 0.30462 0.0
C1625 C 0.32291 0.21725 0.29189 0.0
C1626 C 0.35446 0.2013 0.30488 0.0
C1627 C 0.34562 0.17621 0.29173 0.0
C1628 C 0.32538 0.17225 0.27819 0.0
C1629 C 0.31433 0.19244 0.27868 0.0
C1630 C 0.37557 0.20703 0.32023 0.0
C1631 C 0.31518 0.14641 0.2633 0.0
H1632 H 0.39244 0.1218 0.26767 0.0
H1633 H 0.36071 0.10922 0.32847 0.0
H1634 H 0.36147 0.15716 0.2434 0.0
H1635 H 0.37913 0.18185 0.26485 0.0
H1636 H 0.38866 0.1558 0.2482 0.0
H1637 H 0.33726 0.13319 0.34311 0.0
H1638 H 0.34395 0.16574 0.34033 0.0
H1639 H 0.32283 0.14473 0.31991 0.0
H1640 H 0.3503 0.24005 0.31506 0.0
H1641 H 0.29882 0.1887 0.26851 0.0
H1642 H 0.38656 0.19705 0.31065 0.0
H1643 H 0.37411 0.20022 0.33753 0.0
H1644 H 0.38226 0.22763 0.32494 0.0
H1645 H 0.32572 0.13917 0.25081 0.0
H1646 H 0.30023 0.14656 0.25221 0.0
H1647 H 0.31217 0.13298 0.27567 0.0
C1648 C 0.3344 0.14384 0.53433 0.0
C1649 C 0.31534 0.13151 0.53938 0.0
C1650 C 0.3527 0.13457 0.53856 0.0
C1651 C 0.35201 0.11219 0.54785 0.0
C1652 C 0.33296 0.10004 0.55372 0.0
C1653 C 0.31487 0.10987 0.54947 0.0
C1654 C 0.37267 0.1483 0.53228 0.0
C1655 C 0.33155 0.07616 0.56369 0.0
C1656 C 0.39313 0.07351 0.53179 0.0
C1657 C 0.40735 0.08005 0.55351 0.0
C1658 C 0.37502 0.08364 0.52983 0.0
C1659 C 0.37095 0.10082 0.55007 0.0
C1660 C 0.38526 0.10759 0.57203 0.0
C1661 C 0.40325 0.09715 0.57348 0.0
C1662 C 0.36019 0.07588 0.50608 0.0
C1663 C 0.38162 0.12599 0.59395 0.0
H1664 H 0.33502 0.16045 0.5264 0.0
H1665 H 0.30024 0.10016 0.55339 0.0
H1666 H 0.38521 0.15231 0.54814 0.0
H1667 H 0.37773 0.13615 0.51686 0.0
H1668 H 0.37097 0.16643 0.52693 0.0
H1669 H 0.31595 0.06984 0.56873 0.0
H1670 H 0.33489 0.06079 0.54975 0.0
H1671 H 0.34337 0.07911 0.58012 0.0
H1672 H 0.39595 0.06004 0.51639 0.0
H1673 H 0.41423 0.10258 0.59026 0.0
H1674 H 0.35856 0.09278 0.49836 0.0
H1675 H 0.34456 0.0673 0.5095 0.0
H1676 H 0.36545 0.0621 0.49217 0.0
H1677 H 0.38089 0.14451 0.58899 0.0
H1678 H 0.39403 0.12897 0.60983 0.0
H1679 H 0.36647 0.11899 0.59964 0.0
C1680 C 0.7242 0.60301 0.342 0.0
C1681 C 0.70677 0.58856 0.32547 0.0
C1682 C 0.73482 0.62684 0.33885 0.0
C1683 C 0.72819 0.6372 0.31858 0.0
C1684 C 0.71046 0.6229 0.30196 0.0
C1685 C 0.70007 0.59905 0.30556 0.0
C1686 C 0.75346 0.64087 0.35725 0.0
C1687 C 0.7026 0.63263 0.27999 0.0
C1688 C 0.74973 0.70868 0.32023 0.0
C1689 C 0.76725 0.70774 0.30809 0.0
C1690 C 0.73669 0.68614 0.32344 0.0
C1691 C 0.74081 0.66177 0.31391 0.0
C1692 C 0.75797 0.66095 0.30074 0.0
C1693 C 0.77093 0.6836 0.29837 0.0
C1694 C 0.71892 0.68848 0.33791 0.0
C1695 C 0.76307 0.63596 0.28956 0.0
H1696 H 0.72973 0.59563 0.35758 0.0
H1697 H 0.68667 0.58855 0.29259 0.0
H1698 H 0.76759 0.64245 0.34813 0.0
H1699 H 0.75148 0.66038 0.36458 0.0
H1700 H 0.75603 0.63131 0.37282 0.0
H1701 H 0.6881 0.62023 0.26942 0.0
H1702 H 0.69961 0.65194 0.2859 0.0
H1703 H 0.71464 0.63399 0.26766 0.0
H1704 H 0.74674 0.72702 0.3282 0.0
H1705 H 0.78433 0.68237 0.28893 0.0
H1706 H 0.72201 0.68177 0.3552 0.0
H1707 H 0.7043 0.67632 0.32745 0.0
H1708 H 0.71662 0.70828 0.34254 0.0
H1709 H 0.76779 0.62621 0.30429 0.0
H1710 H 0.77583 0.63825 0.27826 0.0
H1711 H 0.74914 0.62347 0.27787 0.0
C1712 C 0.85599 0.47605 0.79291 0.0
C1713 C 0.87783 0.48198 0.79656 0.0
C1714 C 0.84487 0.45087 0.79013 0.0
C1715 C 0.85567 0.43094 0.79219 0.0
C1716 C 0.87777 0.43681 0.79542 0.0
C1717 C 0.8885 0.46203 0.79724 0.0
C1718 C 0.82145 0.44571 0.78559 0.0
C1719 C 0.89016 0.41658 0.79802 0.0
C1720 C 0.82724 0.37439 0.81579 0.0
C1721 C 0.82132 0.35507 0.79457 0.0
C1722 C 0.83842 0.39873 0.8152 0.0
C1723 C 0.84395 0.40455 0.79279 0.0
C1724 C 0.83812 0.3851 0.77126 0.0
C1725 C 0.82694 0.36083 0.7724 0.0
C1726 C 0.84452 0.41828 0.83882 0.0
C1727 C 0.84324 0.38988 0.74675 0.0
H1728 H 0.84753 0.49126 0.79262 0.0
H1729 H 0.90534 0.46637 0.80059 0.0
H1730 H 0.81558 0.42981 0.76963 0.0
H1731 H 0.81518 0.43997 0.80174 0.0
H1732 H 0.81533 0.46252 0.78205 0.0
H1733 H 0.90715 0.42377 0.79956 0.0
H1734 H 0.88697 0.40908 0.81461 0.0
H1735 H 0.88535 0.40054 0.78202 0.0
H1736 H 0.82325 0.37049 0.83314 0.0
H1737 H 0.8226 0.34633 0.75578 0.0
H1738 H 0.83724 0.43481 0.83744 0.0
H1739 H 0.86161 0.42518 0.84211 0.0
H1740 H 0.83976 0.41074 0.85488 0.0
H1741 H 0.83142 0.39938 0.73883 0.0
H1742 H 0.84312 0.37194 0.73374 0.0
H1743 H 0.85866 0.40243 0.7485 0.0
C1744 C 0.08362 0.86898 0.1079 0.0
C1745 C 0.06954 0.86762 0.12482 0.0
C1746 C 0.08506 0.88826 0.09421 0.0
C1747 C 0.07246 0.90671 0.09803 0.0
C1748 C 0.05895 0.90587 0.11595 0.0
C1749 C 0.05752 0.88624 0.12886 0.0
C1750 C 0.09925 0.88819 0.07489 0.0
C1751 C 0.04544 0.92527 0.12103 0.0
C1752 C 0.08133 0.9706 0.07987 0.0
C1753 C 0.0644 0.96714 0.06135 0.0
C1754 C 0.08527 0.95051 0.09085 0.0
C1755 C 0.07223 0.92629 0.08273 0.0
C1756 C 0.05644 0.92222 0.06238 0.0
C1757 C 0.05251 0.94277 0.05218 0.0
C1758 C 0.10218 0.95578 0.11254 0.0
C1759 C 0.04263 0.89656 0.05253 0.0
H1760 H 0.09275 0.85441 0.10459 0.0
H1761 H 0.04668 0.88525 0.14205 0.0
H1762 H 0.08979 0.88237 0.05645 0.0
H1763 H 0.10843 0.90746 0.07615 0.0
H1764 H 0.11004 0.87495 0.07644 0.0
H1765 H 0.03702 0.92306 0.13687 0.0
H1766 H 0.05503 0.94466 0.12482 0.0
H1767 H 0.0338 0.92346 0.10466 0.0
H1768 H 0.09064 0.98939 0.08698 0.0
H1769 H 0.03962 0.9399 0.03758 0.0
H1770 H 0.11156 0.9408 0.11094 0.0
H1771 H 0.09501 0.95576 0.12956 0.0
H1772 H 0.11271 0.97438 0.11442 0.0
H1773 H 0.05193 0.88149 0.05119 0.0
H1774 H 0.03385 0.89541 0.03418 0.0
H1775 H 0.03129 0.89272 0.06528 0.0
C1776 C 0.93678 0.2621 0.86005 0.0
C1777 C 0.94065 0.25881 0.8842 0.0
C1778 C 0.91696 0.26443 0.85001 0.0
C1779 C 0.90074 0.26394 0.86465 0.0
C1780 C 0.90485 0.26184 0.88941 0.0
C1781 C 0.92471 0.25909 0.89881 0.0
C1782 C 0.91317 0.26641 0.82346 0.0
C1783 C 0.8881 0.26174 0.90575 0.0
C1784 C 0.85253 0.28622 0.84066 0.0
C1785 C 0.83969 0.26323 0.82841 0.0
C1786 C 0.87231 0.28678 0.85312 0.0
C1787 C 0.8792 0.2638 0.85351 0.0
C1788 C 0.8658 0.24051 0.84221 0.0
C1789 C 0.84625 0.24053 0.8297 0.0
C1790 C 0.88615 0.31198 0.86494 0.0
C1791 C 0.87244 0.21557 0.84248 0.0
H1792 H 0.94905 0.26187 0.84867 0.0
H1793 H 0.92766 0.25711 0.91761 0.0
H1794 H 0.90189 0.24945 0.81289 0.0
H1795 H 0.90624 0.28314 0.8218 0.0
H1796 H 0.92766 0.26794 0.81496 0.0
H1797 H 0.89425 0.26216 0.92509 0.0
H1798 H 0.88063 0.27827 0.90523 0.0
H1799 H 0.87583 0.24449 0.89896 0.0
H1800 H 0.84751 0.30383 0.83962 0.0
H1801 H 0.83627 0.22273 0.82034 0.0
H1802 H 0.89971 0.3152 0.85503 0.0
H1803 H 0.89225 0.31207 0.88419 0.0
H1804 H 0.87788 0.32794 0.86478 0.0
H1805 H 0.88588 0.21444 0.83232 0.0
H1806 H 0.85975 0.19912 0.83402 0.0
H1807 H 0.87755 0.21412 0.86159 0.0
C1808 C 0.57384 0.22911 0.62671 0.0
C1809 C 0.55651 0.2395 0.62042 0.0
C1810 C 0.57499 0.20434 0.61565 0.0
C1811 C 0.55843 0.1896 0.59788 0.0
C1812 C 0.54145 0.20041 0.59051 0.0
C1813 C 0.54069 0.22519 0.60186 0.0
C1814 C 0.59338 0.19351 0.62399 0.0
C1815 C 0.52352 0.18537 0.57152 0.0
C1816 C 0.56327 0.12671 0.55897 0.0
C1817 C 0.55215 0.1096 0.57087 0.0
C1818 C 0.56581 0.15297 0.56772 0.0
C1819 C 0.55751 0.16206 0.58916 0.0
C1820 C 0.54712 0.14468 0.60177 0.0
C1821 C 0.54431 0.11869 0.59226 0.0
C1822 C 0.57663 0.17092 0.55355 0.0
C1823 C 0.53849 0.15351 0.62503 0.0
H1824 H 0.58625 0.24003 0.64088 0.0
H1825 H 0.52731 0.23303 0.59666 0.0
H1826 H 0.58835 0.17905 0.63474 0.0
H1827 H 0.59961 0.18397 0.60799 0.0
H1828 H 0.60608 0.20826 0.63561 0.0
H1829 H 0.51266 0.1973 0.56589 0.0
H1830 H 0.52935 0.17621 0.555 0.0
H1831 H 0.51471 0.17011 0.57906 0.0
H1832 H 0.56923 0.11959 0.54234 0.0
H1833 H 0.53592 0.10538 0.60159 0.0
H1834 H 0.58906 0.18535 0.56591 0.0
H1835 H 0.56532 0.18111 0.54569 0.0
H1836 H 0.58356 0.16095 0.53836 0.0
H1837 H 0.55077 0.16694 0.63858 0.0
H1838 H 0.53219 0.13757 0.63353 0.0
H1839 H 0.52585 0.16371 0.62097 0.0
C1840 C 0.56447 0.78478 0.36794 0.0
C1841 C 0.55808 0.77303 0.38684 0.0
C1842 C 0.58491 0.78669 0.36256 0.0
C1843 C 0.59944 0.77681 0.37655 0.0
C1844 C 0.59335 0.76585 0.3963 0.0
C1845 C 0.57273 0.76397 0.40113 0.0
C1846 C 0.59076 0.7986 0.3414 0.0
C1847 C 0.60849 0.75555 0.41194 0.0
C1848 C 0.64326 0.75739 0.34342 0.0
C1849 C 0.65927 0.77872 0.35171 0.0
C1850 C 0.62398 0.75617 0.35206 0.0
C1851 C 0.6206 0.77674 0.36948 0.0
C1852 C 0.63701 0.79783 0.37877 0.0
C1853 C 0.65612 0.79859 0.36975 0.0
C1854 C 0.60691 0.73331 0.34169 0.0
C1855 C 0.63417 0.82003 0.39756 0.0
H1856 H 0.55333 0.79194 0.35685 0.0
H1857 H 0.56802 0.75508 0.41593 0.0
H1858 H 0.60454 0.81417 0.34766 0.0
H1859 H 0.59506 0.78434 0.3271 0.0
H1860 H 0.57791 0.80628 0.33295 0.0
H1861 H 0.60184 0.74953 0.4278 0.0
H1862 H 0.61298 0.73905 0.40068 0.0
H1863 H 0.62289 0.77003 0.4189 0.0
H1864 H 0.64546 0.74208 0.32933 0.0
H1865 H 0.66852 0.81499 0.37653 0.0
H1866 H 0.594 0.739 0.33107 0.0
H1867 H 0.60051 0.72534 0.35675 0.0
H1868 H 0.6124 0.71826 0.32947 0.0
H1869 H 0.62314 0.83018 0.38909 0.0
H1870 H 0.64904 0.83362 0.40489 0.0
H1871 H 0.62738 0.81343 0.41306 0.0
C1872 C 0.05523 0.28049 0.52576 0.0
C1873 C 0.04759 0.30209 0.52271 0.0
C1874 C 0.04187 0.25716 0.52308 0.0
C1875 C 0.0202 0.25511 0.51637 0.0
C1876 C 1.01231 0.27683 0.51312 0.0
C1877 C 0.02604 0.30033 0.5174 0.0
C1878 C 0.05111 0.23474 0.52754 0.0
C1879 C 0.98956 0.27569 0.50504 0.0
C1880 C 1.00345 0.18574 0.49691 0.0
C1881 C 1.00095 0.18007 0.51995 0.0
C1882 C 1.00587 0.21083 0.49383 0.0
C1883 C 1.00638 0.23025 0.51443 0.0
C1884 C 0.9997 0.22396 0.53604 0.0
C1885 C 0.99702 0.19875 0.53857 0.0
C1886 C 1.01099 0.21689 0.46973 0.0
C1887 C 0.9988 0.24414 0.55792 0.0
H1888 H 0.07182 0.2819 0.53043 0.0
H1889 H 0.01986 0.31701 0.51568 0.0
H1890 H 0.04319 0.22564 0.54107 0.0
H1891 H 0.0489 0.22043 0.51022 0.0
H1892 H 0.06801 0.24014 0.53451 0.0
H1893 H 0.98774 0.28764 0.49126 0.0
H1894 H 0.98087 0.25619 0.49699 0.0
H1895 H 0.98244 0.28356 0.52104 0.0
H1896 H 1.00566 0.17111 0.48212 0.0
H1897 H 0.99459 0.19443 0.55628 0.0
H1898 H 0.02812 0.22135 0.47038 0.0
H1899 H 1.0048 0.23365 0.46619 0.0
H1900 H 1.00457 0.20058 0.45428 0.0
H1901 H 0.01485 0.2534 0.56673 0.0
H1902 H 0.99037 0.2362 0.57175 0.0
H1903 H 0.99102 0.25887 0.55212 0.0
C1904 C 0.57679 0.26879 0.20565 0.0
C1905 C 0.57883 0.28357 0.18785 0.0
C1906 C 0.58891 0.25036 0.20701 0.0
C1907 C 0.60397 0.2479 0.19108 0.0
C1908 C 0.60422 0.26071 0.17134 0.0
C1909 C 0.59173 0.27868 0.17012 0.0
C1910 C 0.58705 0.23535 0.22692 0.0
C1911 C 0.61949 0.25782 0.15332 0.0
C1912 C 0.65888 0.25259 0.21938 0.0
C1913 C 0.66329 0.22972 0.20781 0.0
C1914 C 0.63911 0.25788 0.21531 0.0
C1915 C 0.62318 0.2396 0.1994 0.0
C1916 C 0.62706 0.21552 0.18925 0.0
C1917 C 0.64725 0.21079 0.19366 0.0
C1918 C 0.63575 0.28377 0.2269 0.0
C1919 C 0.61011 0.19499 0.1736 0.0
H1920 H 0.5664 0.27234 0.21905 0.0
H1921 H 0.59288 0.28991 0.15612 0.0
H1922 H 0.58961 0.21592 0.22041 0.0
H1923 H 0.59906 0.24461 0.24292 0.0
H1924 H 0.57155 0.2342 0.23312 0.0
H1925 H 0.61563 0.26611 0.13717 0.0
H1926 H 0.63533 0.26753 0.16253 0.0
H1927 H 0.61983 0.23758 0.1468 0.0
H1928 H 0.67122 0.2668 0.23107 0.0
H1929 H 0.65066 0.1928 0.18533 0.0
H1930 H 0.62306 0.2819 0.23827 0.0
H1931 H 0.63112 0.2939 0.21244 0.0
H1932 H 0.6499 0.29566 0.23874 0.0
H1933 H 0.59996 0.18647 0.18568 0.0
H1934 H 0.61652 0.17975 0.16285 0.0
H1935 H 0.60018 0.20266 0.1608 0.0
C1936 C 0.58824 0.86091 0.0455 0.0
C1937 C 0.59903 0.86363 0.02565 0.0
C1938 C 0.58372 0.8823 0.06026 0.0
C1939 C 0.59115 0.90639 0.0554 0.0
C1940 C 0.60653 0.90912 0.03976 0.0
C1941 C 0.61045 0.88743 0.02505 0.0
C1942 C 0.56835 0.87865 0.07793 0.0
C1943 C 0.61591 0.93465 0.03514 0.0
C1944 C 0.55604 0.95049 0.04166 0.0
C1945 C 0.56523 0.97203 0.05937 0.0
C1946 C 0.56283 0.92771 0.04178 0.0
C1947 C 0.57912 0.92676 0.06018 0.0
C1948 C 0.58642 0.9477 0.07984 0.0
C1949 C 0.5796 0.97033 0.07899 0.0
C1950 C 0.55425 0.90566 0.0206 0.0
C1951 C 0.60285 0.94722 0.10052 0.0
H1952 H 0.5802 0.8423 0.04671 0.0
H1953 H 0.61938 0.88938 0.01012 0.0
H1954 H 0.57081 0.89533 0.09325 0.0
H1955 H 0.55237 0.876 0.06807 0.0
H1956 H 0.56944 0.86151 0.08551 0.0
H1957 H 0.60422 0.94123 0.02344 0.0
H1958 H 0.62049 0.94881 0.05261 0.0
H1959 H 0.62979 0.93387 0.02565 0.0
H1960 H 0.54492 0.95202 0.02657 0.0
H1961 H 0.58647 0.98715 0.09287 0.0
H1962 H 0.55086 0.88772 0.02716 0.0
H1963 H 0.56598 0.90386 0.00795 0.0
H1964 H 0.5398 0.90817 0.01005 0.0
H1965 H 0.60286 0.92776 0.10341 0.0
H1966 H 0.60052 0.9592 0.11788 0.0
H1967 H 0.61836 0.95512 0.09625 0.0
C1968 C 0.94951 0.71442 0.71485 0.0
C1969 C 0.94795 0.72601 0.69458 0.0
C1970 C 0.93647 0.71826 0.73263 0.0
C1971 C 0.92136 0.73301 0.7291 0.0
C1972 C 0.91624 0.73832 0.70569 0.0
C1973 C 0.92992 0.735 0.68851 0.0
C1974 C 0.94143 0.71078 0.75684 0.0
C1975 C 0.89871 0.75172 0.70047 0.0
C1976 C 0.89301 0.76018 0.77946 0.0
C1977 C 0.90523 0.78457 0.78755 0.0
C1978 C 0.89836 0.74262 0.76103 0.0
C1979 C 0.91645 0.74963 0.75066 0.0
C1980 C 0.92952 0.77379 0.75974 0.0
C1981 C 0.92369 0.791 0.77811 0.0
C1982 C 0.88434 0.71697 0.75248 0.0
C1983 C 0.94905 0.78211 0.74911 0.0
H1984 H 0.96282 0.70597 0.71887 0.0
H1985 H 0.928 0.74269 0.67211 0.0
H1986 H 0.95108 0.72735 0.77011 0.0
H1987 H 0.92703 0.70478 0.7645 0.0
H1988 H 0.95025 0.69521 0.75497 0.0
H1989 H 0.89349 0.74865 0.68044 0.0
H1990 H 0.88529 0.74513 0.70959 0.0
H1991 H 0.90413 0.77235 0.70769 0.0
H1992 H 0.87844 0.75534 0.78632 0.0
H1993 H 0.93303 0.80991 0.78428 0.0
H1994 H 0.88371 0.70954 0.73257 0.0
H1995 H 0.86827 0.71729 0.7565 0.0
H1996 H 0.89059 0.70365 0.76247 0.0
H1997 H 0.95922 0.76804 0.74932 0.0
H1998 H 0.95806 0.80082 0.75935 0.0
H1999 H 0.94491 0.78347 0.72975 0.0
C2000 C 0.11201 0.0312 0.87718 0.0
C2001 C 0.13243 0.02674 0.87717 0.0
C2002 C 0.10172 0.03189 0.89833 0.0
C2003 C 0.1119 0.02846 0.92083 0.0
C2004 C 0.13276 0.02468 0.92117 0.0
C2005 C 0.14258 0.02363 0.89957 0.0
C2006 C 0.07955 0.03557 0.89631 0.0
C2007 C 0.1447 0.02128 0.9444 0.0
C2008 C 0.08815 0.04807 0.98096 0.0
C2009 C 0.07678 0.02493 0.98418 0.0
C2010 C 0.0998 0.04952 0.96097 0.0
C2011 C 0.10033 0.02737 0.94328 0.0
C2012 C 0.08911 1.00399 0.94677 0.0
C2013 C 0.07772 1.00309 0.96687 0.0
C2014 C 0.11145 0.07495 0.95864 0.0
C2015 C 0.0888 0.97971 0.9289 0.0
H2016 H 0.10367 0.03345 0.86025 0.0
H2017 H 0.15824 0.02009 0.90021 0.0
H2018 H 0.0693 0.01861 0.89967 0.0
H2019 H 0.07812 0.05191 0.91051 0.0
H2020 H 0.07386 0.03881 0.87801 0.0
H2021 H 0.16118 0.02061 0.94256 0.0
H2022 H 0.14424 0.03699 0.95981 0.0
H2023 H 0.13733 1.00346 0.94929 0.0
H2024 H 0.08777 0.0652 0.99394 0.0
H2025 H 0.06923 0.98498 0.96883 0.0
H2026 H 0.105 0.07975 0.94139 0.0
H2027 H 0.12803 0.07429 0.9576 0.0
H2028 H 0.11051 0.09023 0.97426 0.0
H2029 H 0.08194 0.98092 0.9103 0.0
H2030 H 0.07972 0.96297 0.93414 0.0
H2031 H 0.10489 0.97675 0.92776 0.0
C2032 C 0.7742 0.34297 0.57941 0.0
C2033 C 0.76278 0.31857 0.57807 0.0
C2034 C 0.79202 0.35288 0.59674 0.0
C2035 C 0.79697 0.33924 0.61489 0.0
C2036 C 0.78388 0.31577 0.61515 0.0
C2037 C 0.76759 0.3053 0.59607 0.0
C2038 C 0.80552 0.37734 0.59456 0.0
C2039 C 0.78697 0.30133 0.63532 0.0
C2040 C 0.83959 0.32866 0.65506 0.0
C2041 C 0.83246 0.33792 0.67706 0.0
C2042 C 0.83149 0.33456 0.63317 0.0
C2043 C 0.81551 0.34861 0.63383 0.0
C2044 C 0.81337 0.36375 0.6563 0.0
C2045 C 0.82297 0.35904 0.67802 0.0
C2046 C 0.83648 0.32129 0.60915 0.0
C2047 C 0.79779 0.38084 0.65776 0.0
H2048 H 0.76999 0.3541 0.56652 0.0
H2049 H 0.75844 0.28662 0.59527 0.0
H2050 H 0.81981 0.3833 0.60823 0.0
H2051 H 0.81015 0.37528 0.57593 0.0
H2052 H 0.79637 0.39256 0.5965 0.0
H2053 H 0.77349 0.2858 0.63459 0.0
H2054 H 0.80092 0.29281 0.63369 0.0
H2055 H 0.78917 0.31422 0.65348 0.0
H2056 H 0.8485 0.3138 0.65394 0.0
H2057 H 0.81933 0.36833 0.69535 0.0
H2058 H 0.83408 0.33224 0.59462 0.0
H2059 H 0.82608 0.3024 0.60328 0.0
H2060 H 0.85277 0.31846 0.61111 0.0
H2061 H 0.79871 0.39205 0.64324 0.0
H2062 H 0.80027 0.394 0.67589 0.0
H2063 H 0.78187 0.36913 0.65492 0.0
C2064 C 0.47657 0.04277 0.36689 0.0
C2065 C 0.45622 0.04745 0.36397 0.0
C2066 C 0.48686 0.0411 0.38993 0.0
C2067 C 0.47665 0.04354 0.41107 0.0
C2068 C 0.45593 0.04776 0.40817 0.0
C2069 C 0.44614 0.04997 0.38495 0.0
C2070 C 0.50896 0.03708 0.39168 0.0
C2071 C 0.44405 0.05003 0.42972 0.0
C2072 C 0.50014 0.01743 0.46535 0.0
C2073 C 0.51286 0.03916 0.48059 0.0
C2074 C 0.48778 0.01865 0.44334 0.0
C2075 C 0.48792 0.04219 0.43602 0.0
C2076 C 0.50017 0.06428 0.45194 0.0
C2077 C 0.51258 0.06245 0.47363 0.0
C2078 C 0.47529 0.99444 0.42728 0.0
C2079 C 0.50096 0.08989 0.44549 0.0
H2080 H 0.48476 0.04097 0.35112 0.0
H2081 H 0.43048 0.05352 0.38322 0.0
H2082 H 0.51927 0.05302 0.40504 0.0
H2083 H 0.51001 0.01956 0.39853 0.0
H2084 H 0.51487 0.0356 0.37376 0.0
H2085 H 0.42787 0.05227 0.42453 0.0
H2086 H 0.44356 0.03298 0.43783 0.0
H2087 H 0.45211 0.06654 0.44418 0.0
H2088 H 0.50065 0.99922 0.47001 0.0
H2089 H 0.52268 0.0793 0.48482 0.0
H2090 H 0.48198 0.99035 0.41 0.0
H2091 H 0.45904 0.99644 0.42225 0.0
H2092 H 0.47514 0.97806 0.43636 0.0
H2093 H 0.50865 0.09059 0.42891 0.0
H2094 H 0.50961 0.10547 0.4606 0.0
H2095 H 0.48501 0.09318 0.4411 0.0
C2096 C 0.77495 0.6953 0.1088 0.0
C2097 C 0.77888 0.71145 0.09245 0.0
C2098 C 0.77513 0.70499 0.13386 0.0
C2099 C 0.77855 0.7315 0.14268 0.0
C2100 C 0.78149 0.74786 0.12592 0.0
C2101 C 0.78211 0.73765 0.10109 0.0
C2102 C 0.77267 0.68686 0.15109 0.0
C2103 C 0.78449 0.77615 0.13434 0.0
C2104 C 0.76488 0.75336 0.20669 0.0
C2105 C 0.7844 0.75847 0.22132 0.0
C2106 C 0.76277 0.74522 0.18102 0.0
C2107 C 0.78055 0.742 0.16963 0.0
C2108 C 0.80031 0.74765 0.18424 0.0
C2109 C 0.80199 0.75582 0.20977 0.0
C2110 C 0.74145 0.73965 0.16611 0.0
C2111 C 0.81971 0.74444 0.17297 0.0
H2112 H 0.7728 0.67504 0.10216 0.0
H2113 H 0.78519 0.75013 0.08843 0.0
H2114 H 0.78706 0.69044 0.16447 0.0
H2115 H 0.75978 0.68993 0.1617 0.0
H2116 H 0.76953 0.66678 0.14126 0.0
H2117 H 0.78425 0.786 0.11871 0.0
H2118 H 0.77215 0.78095 0.14526 0.0
H2119 H 0.7996 0.78349 0.14641 0.0
H2120 H 0.75117 0.75537 0.2153 0.0
H2121 H 0.81719 0.75982 0.22072 0.0
H2122 H 0.73701 0.71921 0.15759 0.0
H2123 H 0.74158 0.75018 0.151 0.0
H2124 H 0.7294 0.74477 0.1774 0.0
H2125 H 0.81837 0.72436 0.16389 0.0
H2126 H 0.83396 0.75018 0.18677 0.0
H2127 H 0.82152 0.75587 0.15868 0.0
C2128 C 0.09871 0.02199 0.72968 0.0
C2129 C 0.11849 0.01601 0.73462 0.0
C2130 C 0.08997 0.02336 0.70586 0.0
C2131 C 0.10104 0.01877 0.68569 0.0
C2132 C 0.121 0.01259 0.69037 0.0
C2133 C 0.12942 1.01124 0.71456 0.0
C2134 C 0.0687 0.02985 0.70234 0.0
C2135 C 0.13359 1.00756 0.66977 0.0
C2136 C 0.06897 1.00222 0.62052 0.0
C2137 C 0.07122 0.02572 0.61327 0.0
C2138 C 0.07879 0.99959 0.64352 0.0
C2139 C 0.09166 0.02082 0.66005 0.0
C2140 C 0.09438 0.04445 0.65256 0.0
C2141 C 0.08412 0.04663 0.62963 0.0
C2142 C 0.07493 0.97403 0.65038 0.0
C2143 C 0.108 0.0677 0.669 0.0
H2144 H 0.08983 0.02572 0.74464 0.0
H2145 H 0.14464 1.00662 0.71775 0.0
H2146 H 0.0697 0.04756 0.69528 0.0
H2147 H 0.05806 0.01468 0.68849 0.0
H2148 H 0.06179 0.03239 0.71962 0.0
H2149 H 0.14869 1.00284 0.67605 0.0
H2150 H 0.12469 0.99168 0.65516 0.0
H2151 H 0.13662 0.02444 0.66144 0.0
H2152 H 0.05913 0.9858 0.60836 0.0
H2153 H 0.08629 0.06491 0.6245 0.0
H2154 H 0.06663 0.97499 0.66661 0.0
H2155 H 0.08992 0.9685 0.65554 0.0
H2156 H 0.06554 0.95906 0.63522 0.0
H2157 H 0.10121 0.07265 0.68608 0.0
H2158 H 0.10981 0.08425 0.66006 0.0
H2159 H 0.12361 0.06387 0.67438 0.0
C2160 C 0.76063 0.27102 0.46039 0.0
C2161 C 0.7472 0.2882 0.46356 0.0
C2162 C 0.76392 0.26013 0.43704 0.0
C2163 C 0.75331 0.26648 0.41661 0.0
C2164 C 0.73755 0.28086 0.41962 0.0
C2165 C 0.73476 0.29182 0.44328 0.0
C2166 C 0.78037 0.24424 0.43461 0.0
C2167 C 0.72529 0.28696 0.39793 0.0
C2168 C 0.78051 0.28345 0.36505 0.0
C2169 C 0.76953 0.2646 0.3456 0.0
C2170 C 0.77662 0.28308 0.38896 0.0
C2171 C 0.76148 0.26318 0.39312 0.0
C2172 C 0.75195 0.24274 0.37376 0.0
C2173 C 0.7558 0.24395 0.34993 0.0
C2174 C 0.78742 0.30504 0.40936 0.0
C2175 C 0.73671 0.2205 0.37782 0.0
H2176 H 0.76992 0.26756 0.47612 0.0
H2177 H 0.724 0.30459 0.44578 0.0
H2178 H 0.77656 0.22948 0.41751 0.0
H2179 H 0.79547 0.25655 0.43407 0.0
H2180 H 0.78234 0.23499 0.45053 0.0
H2181 H 0.71217 0.29595 0.40324 0.0
H2182 H 0.73567 0.30008 0.38953 0.0
H2183 H 0.71901 0.26953 0.38377 0.0
H2184 H 0.791 0.29937 0.36139 0.0
H2185 H 0.74767 0.22914 0.33464 0.0
H2186 H 0.79444 0.29807 0.425 0.0
H2187 H 0.77591 0.31614 0.41615 0.0
H2188 H 0.79984 0.3179 0.40325 0.0
H2189 H 0.74041 0.21652 0.39633 0.0
H2190 H 0.73653 0.20322 0.36384 0.0
H2191 H 0.72086 0.22473 0.37616 0.0
C2192 C 0.45875 0.03253 0.20988 0.0
C2193 C 0.45801 0.05744 0.22122 0.0
C2194 C 0.46845 0.02727 0.18843 0.0
C2195 C 0.47746 0.04722 0.17738 0.0
C2196 C 0.47612 0.07226 0.18837 0.0
C2197 C 0.46675 0.07699 0.20995 0.0
C2198 C 0.46959 1.0003 0.17795 0.0
C2199 C 0.48481 0.09432 0.17741 0.0
C2200 C 0.52107 0.04134 0.1365 0.0
C2201 C 0.51027 0.03558 0.11246 0.0
C2202 C 0.51063 0.04419 0.15747 0.0
C2203 C 0.48867 0.04225 0.15485 0.0
C2204 C 0.47773 0.03676 0.13057 0.0
C2205 C 0.48849 0.03309 0.10991 0.0
C2206 C 0.52321 0.04936 0.18259 0.0
C2207 C 0.45458 0.03541 0.12635 0.0
H2208 H 0.45237 0.01715 0.21824 0.0
H2209 H 0.46637 0.09636 0.21816 0.0
H2210 H 0.46229 0.99487 0.15848 0.0
H2211 H 0.4861 0.9985 0.17838 0.0
H2212 H 0.46177 0.9868 0.18821 0.0
H2213 H 0.48148 0.11244 0.18704 0.0
H2214 H 0.50189 0.09627 0.17832 0.0
H2215 H 0.4782 0.09093 0.15777 0.0
H2216 H 0.53782 0.04329 0.13898 0.0
H2217 H 0.47983 0.02898 0.09161 0.0
H2218 H 0.51659 0.03551 0.19324 0.0
H2219 H 0.52248 0.06845 0.19277 0.0
H2220 H 0.53977 0.04834 0.18172 0.0
H2221 H 0.44651 0.02079 0.13522 0.0
H2222 H 0.44819 0.03094 0.10654 0.0
H2223 H 0.45099 0.05377 0.1349 0.0
C2224 C 0.79059 0.71735 0.95306 0.0
C2225 C 0.77383 0.7141 0.96642 0.0
C2226 C 0.78941 0.72782 0.93209 0.0
C2227 C 0.77111 0.73598 0.92423 0.0
C2228 C 0.75393 0.73257 0.93737 0.0
C2229 C 0.75538 0.72133 0.95816 0.0
C2230 C 0.808 0.73045 0.91852 0.0
C2231 C 0.73425 0.74131 0.9298 0.0
C2232 C 0.78572 0.78656 0.88794 0.0
C2233 C 0.78171 0.77254 0.86379 0.0
C2234 C 0.78025 0.77546 0.90763 0.0
C2235 C 0.77103 0.74943 0.90321 0.0
C2236 C 0.76561 0.73562 0.87862 0.0
C2237 C 0.7709 0.74741 0.85916 0.0
C2238 C 0.7859 0.79118 0.93336 0.0
C2239 C 0.75588 0.70785 0.87289 0.0
H2240 H 0.80478 0.71132 0.95883 0.0
H2241 H 0.74232 0.71875 0.96822 0.0
H2242 H 0.80326 0.72151 0.89883 0.0
H2243 H 0.81449 0.75076 0.91968 0.0
H2244 H 0.82052 0.72165 0.92604 0.0
H2245 H 0.72178 0.73567 0.94067 0.0
H2246 H 0.73754 0.76223 0.93232 0.0
H2247 H 0.72852 0.73347 0.91007 0.0
H2248 H 0.79387 0.8061 0.89159 0.0
H2249 H 0.76786 0.73646 0.84053 0.0
H2250 H 0.79978 0.78603 0.9426 0.0
H2251 H 0.77307 0.78741 0.94425 0.0
H2252 H 0.78951 0.81176 0.93349 0.0
H2253 H 0.76808 0.69684 0.87637 0.0
H2254 H 0.7486 0.70131 0.85342 0.0
H2255 H 0.74397 0.70362 0.88486 0.0
C2256 C 0.84929 0.10919 0.04135 0.0
C2257 C 0.85495 0.13505 0.05186 0.0
C2258 C 0.86387 0.09353 0.04187 0.0
C2259 C 0.88441 0.10391 0.05373 0.0
C2260 C 0.88956 0.12938 0.06664 0.0
C2261 C 0.8748 0.1448 0.06527 0.0
C2262 C 0.8578 0.06651 0.0277 0.0
C2263 C 0.91106 0.14091 0.08031 0.0
C2264 C 0.91891 0.05584 0.05718 0.0
C2265 C 0.92853 0.05693 0.03615 0.0
C2266 C 0.90525 0.07195 0.06398 0.0
C2267 C 0.90095 0.08922 0.04918 0.0
C2268 C 0.91121 0.09103 0.02847 0.0
C2269 C 0.92493 0.07492 0.02228 0.0
C2270 C 0.89507 0.07007 0.08661 0.0
C2271 C 0.9073 0.10953 0.01243 0.0
H2272 H 0.83393 0.10156 0.03104 0.0
H2273 H 0.87911 0.16468 0.07384 0.0
H2274 H 0.86579 0.06445 0.01122 0.0
H2275 H 0.86277 0.05341 0.03898 0.0
H2276 H 0.84078 0.06064 0.02164 0.0
H2277 H 0.91102 0.15821 0.09416 0.0
H2278 H 0.91758 0.12724 0.08965 0.0
H2279 H 0.92155 0.14626 0.06713 0.0
H2280 H 0.92175 0.04206 0.06807 0.0
H2281 H 0.93287 0.07643 0.0065 0.0
H2282 H 0.87832 0.06157 0.08117 0.0
H2283 H 0.89621 0.08917 0.09807 0.0
H2284 H 0.9022 0.05828 0.0979 0.0
H2285 H 0.89067 0.10528 1.00432 0.0
H2286 H 0.91692 0.10891 0.99732 0.0
H2287 H 0.91076 0.12907 0.02358 0.0
C2288 C 0.38645 0.46343 0.05535 0.0
C2289 C 0.38362 0.44351 0.06796 0.0
C2290 C 0.40646 0.47542 0.05252 0.0
C2291 C 0.4242 0.46739 0.06252 0.0
C2292 C 0.4214 0.44665 0.07442 0.0
C2293 C 0.40121 0.43503 0.07704 0.0
C2294 C 0.40865 0.49735 0.03958 0.0
C2295 C 0.43978 0.43738 0.08534 0.0
C2296 C 0.47664 0.49068 0.04261 0.0
C2297 C 0.48478 0.51228 0.06098 0.0
C2298 C 0.45703 0.47566 0.04291 0.0
C2299 C 0.44557 0.48209 0.06236 0.0
C2300 C 0.45423 0.50337 0.08142 0.0
C2301 C 0.47352 0.51839 0.08027 0.0
C2302 C 0.44827 0.45348 0.02198 0.0
C2303 C 0.44294 0.51057 0.10288 0.0
H2304 H 0.37302 0.47015 0.04821 0.0
H2305 H 0.39929 0.41973 0.08686 0.0
H2306 H 0.4162 0.51504 0.05287 0.0
H2307 H 0.41876 0.49448 0.02515 0.0
H2308 H 0.39341 0.49994 0.03102 0.0
H2309 H 0.43501 0.41958 0.09185 0.0
H2310 H 0.45051 0.4341 0.07169 0.0
H2311 H 0.44861 0.45204 0.10109 0.0
H2312 H 0.48516 0.48618 0.02745 0.0
H2313 H 0.47982 0.53506 0.09453 0.0
H2314 H 0.43412 0.45703 0.01172 0.0
H2315 H 0.44356 0.43608 0.02908 0.0
H2316 H 0.45957 0.45006 0.00903 0.0
H2317 H 0.42822 0.51597 0.09637 0.0
H2318 H 0.45236 0.52663 0.11697 0.0
H2319 H 0.43883 0.49417 0.11164 0.0
C2320 C 0.36835 0.61966 0.81163 0.0
C2321 C 0.37861 0.60917 0.7925 0.0
C2322 C 0.35914 0.64113 0.81107 0.0
C2323 C 0.3597 0.65319 0.79074 0.0
C2324 C 0.3697 0.64261 0.77109 0.0
C2325 C 0.37902 0.62105 0.77221 0.0
C2326 C 0.34889 0.65109 0.83262 0.0
C2327 C 0.37076 0.65432 0.74885 0.0
C2328 C 0.31879 0.69527 0.78182 0.0
C2329 C 0.32961 0.72001 0.79285 0.0
C2330 C 0.32832 0.67379 0.78068 0.0
C2331 C 0.34964 0.67651 0.79029 0.0
C2332 C 0.3608 0.70153 0.80096 0.0
C2333 C 0.35073 0.72267 0.80233 0.0
C2334 C 0.31531 0.64792 0.76961 0.0
C2335 C 0.38349 0.70601 0.81125 0.0
H2336 H 0.36771 0.61125 0.82763 0.0
H2337 H 0.38685 0.61371 0.75726 0.0
H2338 H 0.35661 0.67094 0.84089 0.0
H2339 H 0.33237 0.65112 0.82638 0.0
H2340 H 0.34953 0.63972 0.84706 0.0
H2341 H 0.37868 0.644 0.73491 0.0
H2342 H 0.35486 0.65453 0.74032 0.0
H2343 H 0.37922 0.67427 0.75442 0.0
H2344 H 0.30251 0.69252 0.77446 0.0
H2345 H 0.35954 0.74142 0.81079 0.0
H2346 H 0.31443 0.6362 0.78377 0.0
H2347 H 0.32267 0.63819 0.75473 0.0
H2348 H 0.29926 0.64876 0.76205 0.0
H2349 H 0.38536 0.69675 0.82713 0.0
H2350 H 0.3905 0.72647 0.81733 0.0
H2351 H 0.39225 0.69738 0.79725 0.0
C2352 C 0.2625 0.65396 0.55331 0.0
C2353 C 0.27706 0.66253 0.57461 0.0
C2354 C 0.2413 0.64713 0.55472 0.0
C2355 C 0.23457 0.64925 0.578 0.0
C2356 C 0.2492 0.65799 0.59959 0.0
C2357 C 0.27035 0.66442 0.59763 0.0
C2358 C 0.22614 0.63765 0.5313 0.0
C2359 C 0.24252 0.66067 0.62472 0.0
C2360 C 0.17825 0.65367 0.58081 0.0
C2361 C 0.1693 0.62866 0.58114 0.0
C2362 C 0.19957 0.6607 0.57999 0.0
C2363 C 0.21216 0.6423 0.5797 0.0
C2364 C 0.20327 0.61711 0.58044 0.0
C2365 C 0.1819 0.61057 0.58109 0.0
C2366 C 0.20857 0.68769 0.57898 0.0
C2367 C 0.2163 0.59704 0.58029 0.0
H2368 H 0.2677 0.65239 0.53549 0.0
H2369 H 0.28159 0.67128 0.61414 0.0
H2370 H 0.21755 0.61828 0.53093 0.0
H2371 H 0.2145 0.64991 0.53049 0.0
H2372 H 0.23396 0.63721 0.51469 0.0
H2373 H 0.25588 0.66797 0.63966 0.0
H2374 H 0.23147 0.67375 0.62653 0.0
H2375 H 0.23428 0.64208 0.62719 0.0
H2376 H 0.16847 0.66759 0.5806 0.0
H2377 H 0.17502 0.59128 0.58163 0.0
H2378 H 0.21542 0.68816 0.5618 0.0
H2379 H 0.22128 0.69595 0.59448 0.0
H2380 H 0.19671 0.69979 0.57975 0.0
H2381 H 0.22373 0.59483 0.56339 0.0
H2382 H 0.207 0.57838 0.58119 0.0
H2383 H 0.22896 0.60286 0.5961 0.0
C2384 C 0.71092 0.94367 0.83007 0.0
C2385 C 0.6999 0.95046 0.81005 0.0
C2386 C 0.72045 0.92233 0.82739 0.0
C2387 C 0.71959 0.90684 0.80395 0.0
C2388 C 0.70865 0.91349 0.78349 0.0
C2389 C 0.69885 0.9349 0.78676 0.0
C2390 C 0.73141 0.91622 0.84996 0.0
C2391 C 0.70727 0.89787 0.75807 0.0
C2392 C 0.76298 0.86776 0.79882 0.0
C2393 C 0.75312 0.84347 0.80099 0.0
C2394 C 0.75213 0.88792 0.79869 0.0
C2395 C 0.73068 0.88436 0.80118 0.0
C2396 C 0.72052 0.85977 0.80306 0.0
C2397 C 0.73172 0.83979 0.8028 0.0
C2398 C 0.76385 0.9133 0.7962 0.0
C2399 C 0.69788 0.85462 0.80622 0.0
H2400 H 0.71191 0.95495 0.84832 0.0
H2401 H 0.69042 0.93945 0.77104 0.0
H2402 H 0.72452 0.8968 0.85172 0.0
H2403 H 0.74805 0.91673 0.84826 0.0
H2404 H 0.7304 0.92964 0.86703 0.0
H2405 H 0.69839 0.90526 0.74398 0.0
H2406 H 0.72312 0.89755 0.75333 0.0
H2407 H 0.69966 0.87802 0.75748 0.0
H2408 H 0.77936 0.8711 0.79706 0.0
H2409 H 0.72373 0.82132 0.80452 0.0
H2410 H 0.7647 0.92741 0.81339 0.0
H2411 H 0.75551 0.92003 0.78122 0.0
H2412 H 0.77992 0.91264 0.79233 0.0
H2413 H 0.69639 0.86184 0.82565 0.0
H2414 H 0.69105 0.83406 0.80145 0.0
H2415 H 0.68871 0.86442 0.79472 0.0
C2416 C 0.75842 0.9448 0.53728 0.0
C2417 C 0.76431 0.93213 0.5557 0.0
C2418 C 0.73913 0.95239 0.53527 0.0
C2419 C 0.72516 0.94714 0.55201 0.0
C2420 C 0.73072 0.9337 0.57022 0.0
C2421 C 0.75021 0.92644 0.57191 0.0
C2422 C 0.73393 0.96662 0.51555 0.0
C2423 C 0.71621 0.9274 0.58823 0.0
C2424 C 0.68643 0.99088 0.5621 0.0
C2425 C 0.66841 0.97687 0.54662 0.0
C2426 C 0.70476 0.98119 0.56442 0.0
C2427 C 0.70524 0.95678 0.55103 0.0
C2428 C 0.68697 0.94225 0.53584 0.0
C2429 C 0.66885 0.95247 0.53377 0.0
C2430 C 0.72386 0.99745 0.58069 0.0
C2431 C 0.68668 0.91609 0.52138 0.0
H2432 H 0.76907 0.94926 0.52457 0.0
H2433 H 0.7545 0.91656 0.58614 0.0
H2434 H 0.71896 0.95686 0.50408 0.0
H2435 H 0.73205 0.98585 0.5241 0.0
H2436 H 0.74613 0.96847 0.50344 0.0
H2437 H 0.72222 0.91556 0.60033 0.0
H2438 H 0.71393 0.9451 0.59986 0.0
H2439 H 0.70074 0.91721 0.57829 0.0
H2440 H 0.68642 1.00985 0.57186 0.0
H2441 H 0.65499 0.94131 0.52199 0.0
H2442 H 0.73634 1.00178 0.56945 0.0
H2443 H 0.7298 0.9871 0.59429 0.0
H2444 H 0.72076 0.01555 0.59068 0.0
H2445 H 0.69753 0.91725 0.50765 0.0
H2446 H 0.67094 0.90659 0.51163 0.0
H2447 H 0.69209 0.90416 0.53372 0.0
C2448 C 0.38246 0.46197 0.81317 0.0
C2449 C 0.38046 0.47413 0.7932 0.0
C2450 C 0.37173 0.437 0.81228 0.0
C2451 C 0.35791 0.4233 0.79102 0.0
C2452 C 0.3562 0.43517 0.77044 0.0
C2453 C 0.36759 0.46015 0.77165 0.0
C2454 C 0.37459 0.42568 0.83469 0.0
C2455 C 0.34162 0.42183 0.74741 0.0
C2456 C 0.33596 0.35135 0.78662 0.0
C2457 C 0.3165 0.35161 0.79462 0.0
C2458 C 0.34944 0.37421 0.78488 0.0
C2459 C 0.34364 0.39818 0.79161 0.0
C2460 C 0.32418 0.39832 0.80012 0.0
C2461 C 0.31102 0.3754 0.80127 0.0
C2462 C 0.36982 0.37268 0.77552 0.0
C2463 C 0.31713 0.4229 0.80817 0.0
H2464 H 0.39237 0.47228 0.82994 0.0
H2465 H 0.36563 0.46913 0.75612 0.0
H2466 H 0.36005 0.42392 0.84303 0.0
H2467 H 0.37785 0.40639 0.82954 0.0
H2468 H 0.38747 0.43736 0.84873 0.0
H2469 H 0.34327 0.43224 0.73228 0.0
H2470 H 0.34447 0.40249 0.74127 0.0
H2471 H 0.32534 0.41985 0.75125 0.0
H2472 H 0.34041 0.3333 0.78109 0.0
H2473 H 0.29615 0.37617 0.80757 0.0
H2474 H 0.38285 0.38441 0.78927 0.0
H2475 H 0.37021 0.38045 0.75861 0.0
H2476 H 0.37239 0.35296 0.77136 0.0
H2477 H 0.32842 0.4352 0.82361 0.0
H2478 H 0.30155 0.41998 0.81416 0.0
H2479 H 0.31658 0.4332 0.79292 0.0
C2480 C 0.19087 0.5953 0.30367 0.0
C2481 C 0.2013 0.58028 0.31651 0.0
C2482 C 0.20115 0.61903 0.29997 0.0
C2483 C 0.22273 0.62802 0.30859 0.0
C2484 C 0.23344 0.61254 0.32092 0.0
C2485 C 0.22264 0.5893 0.32503 0.0
C2486 C 0.18874 0.63482 0.28733 0.0
C2487 C 0.25644 0.6206 0.32993 0.0
C2488 C 0.25346 0.6809 0.28154 0.0
C2489 C 0.25554 0.70263 0.30017 0.0
C2490 C 0.24299 0.65673 0.284 0.0
C2491 C 0.2339 0.65383 0.30546 0.0
C2492 C 0.23575 0.67575 0.32417 0.0
C2493 C 0.24655 0.69955 0.32141 0.0
C2494 C 0.2419 0.63414 0.26365 0.0
C2495 C 0.22623 0.67411 0.34726 0.0
H2496 H 0.1744 0.58887 0.29712 0.0
H2497 H 0.23104 0.578 0.33485 0.0
H2498 H 0.18947 0.65325 0.29983 0.0
H2499 H 0.19552 0.63891 0.27089 0.0
H2500 H 0.17218 0.62535 0.28162 0.0
H2501 H 0.26287 0.60588 0.33773 0.0
H2502 H 0.26492 0.62483 0.31466 0.0
H2503 H 0.25947 0.6382 0.34425 0.0
H2504 H 0.26029 0.68267 0.26506 0.0
H2505 H 0.2478 0.71592 0.33603 0.0
H2506 H 0.22545 0.62525 0.25644 0.0
H2507 H 0.24919 0.61973 0.27089 0.0
H2508 H 0.24984 0.63925 0.24825 0.0
H2509 H 0.20935 0.66596 0.34252 0.0
H2510 H 0.22834 0.69286 0.35978 0.0
H2511 H 0.23334 0.6613 0.35722 0.0
C2512 C 0.4873 0.68497 0.48326 0.0
C2513 C 0.50011 0.69713 0.46876 0.0
C2514 C 0.49344 0.66633 0.49483 0.0
C2515 C 0.51292 0.65969 0.49203 0.0
C2516 C 0.52639 0.6727 0.47844 0.0
C2517 C 0.5198 0.69122 0.46688 0.0
C2518 C 0.47872 0.65307 0.50934 0.0
C2519 C 0.54743 0.66639 0.47532 0.0
C2520 C 0.53369 0.62064 0.53499 0.0
C2521 C 0.52713 0.59605 0.52085 0.0
C2522 C 0.52916 0.64161 0.52592 0.0
C2523 C 0.5184 0.63789 0.50188 0.0
C2524 C 0.51204 0.61307 0.48744 0.0
C2525 C 0.5162 0.59242 0.49725 0.0
C2526 C 0.53577 0.66768 0.54208 0.0
C2527 C 0.50087 0.60834 0.46156 0.0
H2528 H 0.47211 0.68943 0.48501 0.0
H2529 H 0.52991 0.70063 0.45591 0.0
H2530 H 0.47463 0.63256 0.50111 0.0
H2531 H 0.48636 0.65509 0.52841 0.0
H2532 H 0.46421 0.66063 0.50993 0.0
H2533 H 0.55681 0.67979 0.46619 0.0
H2534 H 0.55624 0.66665 0.49339 0.0
H2535 H 0.54541 0.647 0.46413 0.0
H2536 H 0.54216 0.62343 0.55326 0.0
H2537 H 0.51143 0.57344 0.48616 0.0
H2538 H 0.52193 0.67612 0.54504 0.0
H2539 H 0.54594 0.68025 0.53295 0.0
H2540 H 0.54422 0.66738 0.56022 0.0
H2541 H 0.48582 0.61469 0.46173 0.0
H2542 H 0.49781 0.58805 0.45238 0.0
H2543 H 0.51024 0.61948 0.45049 0.0
C2544 C 0.6479 0.29594 0.7026 0.0
C2545 C 0.64081 0.31621 0.71606 0.0
C2546 C 0.66684 0.28955 0.71082 0.0
C2547 C 0.67903 0.30384 0.73294 0.0
C2548 C 0.67233 0.32492 0.746 0.0
C2549 C 0.65334 0.33077 0.73747 0.0
C2550 C 0.67333 0.26688 0.69639 0.0
C2551 C 0.68488 0.34083 0.76957 0.0
C2552 C 0.71363 0.27724 0.77567 0.0
C2553 C 0.7335 0.28805 0.77181 0.0
C2554 C 0.69577 0.28044 0.76158 0.0
C2555 C 0.69781 0.29573 0.74384 0.0
C2556 C 0.71795 0.30564 0.73901 0.0
C2557 C 0.73562 0.30139 0.75291 0.0
C2558 C 0.67469 0.26879 0.76684 0.0
C2559 C 0.7209 0.32232 0.72057 0.0
H2560 H 0.63836 0.28455 0.68602 0.0
H2561 H 0.64813 0.34656 0.74795 0.0
H2562 H 0.6897 0.27183 0.69323 0.0
H2563 H 0.67242 0.25168 0.70706 0.0
H2564 H 0.66332 0.25933 0.67839 0.0
H2565 H 0.67844 0.35776 0.77645 0.0
H2566 H 0.68512 0.32933 0.7839 0.0
H2567 H 0.7012 0.34715 0.76683 0.0
H2568 H 0.71206 0.26691 0.79033 0.0
H2569 H 0.75104 0.31001 0.75018 0.0
H2570 H 0.66427 0.25946 0.74951 0.0
H2571 H 0.66744 0.28383 0.77644 0.0
H2572 H 0.67572 0.25463 0.77854 0.0
H2573 H 0.7101 0.31403 0.70329 0.0
H2574 H 0.73709 0.32537 0.71631 0.0
H2575 H 0.71729 0.34099 0.72803 0.0
C2576 C 0.01526 0.33123 0.9729 0.0
C2577 C 0.99434 0.31933 0.97065 0.0
C2578 C 0.02198 0.35682 0.98429 0.0
C2579 C 1.00737 0.37092 0.99323 0.0
C2580 C 0.98633 0.35888 0.99151 0.0
C2581 C 0.9801 0.33317 0.98041 0.0
C2582 C 0.04461 0.36895 0.98616 0.0
C2583 C 0.97024 0.37337 1.00056 0.0
C2584 C 0.02581 0.43441 0.03734 0.0
C2585 C 0.02466 0.45104 0.02136 0.0
C2586 C 0.02042 0.40814 0.02843 0.0
C2587 C 1.01379 0.39859 1.00302 0.0
C2588 C 1.01284 0.41553 0.98685 0.0
C2589 C 0.01827 0.44164 0.99629 0.0
C2590 C 0.02157 0.39065 0.04619 0.0
C2591 C 1.00583 0.40609 0.95966 0.0
H2592 H 0.02637 0.32058 0.96558 0.0
H2593 H 0.96389 0.32415 0.97861 0.0
H2594 H 0.04619 0.38352 0.97478 0.0
H2595 H 0.05087 0.37864 1.00538 0.0
H2596 H 0.05424 0.35496 0.97996 0.0
H2597 H 0.95475 0.36095 0.99896 0.0
H2598 H 0.97521 0.38309 0.02002 0.0
H2599 H 0.96869 0.38818 0.9898 0.0
H2600 H 0.0307 0.44197 0.05679 0.0
H2601 H 0.01739 0.45478 0.98411 0.0
H2602 H 0.03179 0.37725 0.04052 0.0
H2603 H 1.00591 0.37923 0.04595 0.0
H2604 H 0.02759 0.40111 0.06526 0.0
H2605 H 0.01591 0.39341 0.95186 0.0
H2606 H 1.00624 0.42177 0.9496 0.0
H2607 H 0.98974 0.39485 0.95643 0.0
C2608 C 0.02432 0.79984 0.23521 0.0
C2609 C 0.02543 0.79303 0.21014 0.0
C2610 C 1.00515 0.79582 0.24408 0.0
C2611 C 0.98681 0.784 0.22754 0.0
C2612 C 0.98813 0.77573 0.20239 0.0
C2613 C 1.0074 0.78078 0.19392 0.0
C2614 C 1.00437 0.80536 0.27093 0.0
C2615 C 0.96913 0.76225 0.18429 0.0
C2616 C 0.93914 0.75867 0.25497 0.0
C2617 C 0.92762 0.77789 0.25469 0.0
C2618 C 0.95822 0.76016 0.24582 0.0
C2619 C 0.96616 0.78152 0.23637 0.0
C2620 C 0.95454 0.80087 0.23582 0.0
C2621 C 0.93543 0.7988 0.24492 0.0
C2622 C 0.96999 0.739 0.24651 0.0
C2623 C 0.96242 0.82394 0.22584 0.0
H2624 H 0.03827 0.80959 0.24767 0.0
H2625 H 1.00834 0.77532 0.17455 0.0
H2626 H 0.99493 0.82029 0.27297 0.0
H2627 H 0.99673 0.78984 0.27906 0.0
H2628 H 0.02008 0.81333 0.28152 0.0
H2629 H 0.97313 0.75473 0.16598 0.0
H2630 H 0.96054 0.74634 0.19118 0.0
H2631 H 0.95847 0.77549 0.18211 0.0
H2632 H 0.93344 0.74259 0.26278 0.0
H2633 H 0.92653 0.81355 0.24428 0.0
H2634 H 0.98501 0.74621 0.25877 0.0
H2635 H 0.9736 0.73175 0.22795 0.0
H2636 H 0.96115 0.72302 0.25312 0.0
H2637 H 0.9777 0.83402 0.2364 0.0
H2638 H 0.95155 0.83729 0.22669 0.0
H2639 H 0.9648 0.81817 0.20648 0.0
C2640 C 0.52965 0.26512 0.09351 0.0
C2641 C 0.50969 0.26509 0.09981 0.0
C2642 C 0.53738 0.28023 0.07771 0.0
C2643 C 0.5249 0.29587 0.06863 0.0
C2644 C 0.50383 0.29343 0.07262 0.0
C2645 C 0.4964 0.27783 0.08823 0.0
C2646 C 0.55966 0.28162 0.07329 0.0
C2647 C 0.48999 0.30975 0.06311 0.0
C2648 C 0.54776 0.36382 0.06998 0.0
C2649 C 0.54415 0.36458 0.04507 0.0
C2650 C 0.54276 0.3411 0.07784 0.0
C2651 C 0.53476 0.31847 0.06021 0.0
C2652 C 0.53375 0.31861 0.03495 0.0
C2653 C 0.53815 0.34182 0.0276 0.0
C2654 C 0.54431 0.34177 0.10508 0.0
C2655 C 0.5265 0.2946 0.01572 0.0
H2656 H 0.5398 0.25497 0.10255 0.0
H2657 H 0.48101 0.27771 0.09334 0.0
H2658 H 0.56182 0.28569 0.05496 0.0
H2659 H 0.56984 0.29707 0.08731 0.0
H2660 H 0.56485 0.26371 0.07484 0.0
H2661 H 0.47345 0.30312 0.06491 0.0
H2662 H 0.49509 0.3295 0.07368 0.0
H2663 H 0.49116 0.30998 0.04358 0.0
H2664 H 0.5532 0.38129 0.08349 0.0
H2665 H 0.53552 0.34217 0.00826 0.0
H2666 H 0.5534 0.32784 0.11011 0.0
H2667 H 0.52852 0.33654 0.11002 0.0
H2668 H 0.55175 0.36075 0.11626 0.0
H2669 H 0.53271 0.2787 0.02143 0.0
H2670 H 0.53134 0.29693 0.99776 0.0
H2671 H 0.5093 0.28939 0.01322 0.0
C2672 C 1.00637 0.31397 0.43924 0.0
C2673 C 1.01248 0.29064 0.43791 0.0
C2674 C 0.98798 0.31603 0.42569 0.0
C2675 C 0.97541 0.29417 0.4102 0.0
C2676 C 0.98178 0.27061 0.40807 0.0
C2677 C 1.00035 0.26911 0.42203 0.0
C2678 C 0.98182 0.34157 0.42838 0.0
C2679 C 0.9688 0.24701 0.39147 0.0
C2680 C 0.91909 0.29951 0.39941 0.0
C2681 C 0.91787 0.30714 0.37688 0.0
C2682 C 0.93749 0.29388 0.40984 0.0
C2683 C 0.9551 0.2961 0.39747 0.0
C2684 C 0.95378 0.30302 0.37433 0.0
C2685 C 0.93511 0.30841 0.36425 0.0
C2686 C 0.93834 0.28655 0.43455 0.0
C2687 C 0.97232 0.30582 0.36075 0.0
H2688 H 0.01603 0.33084 0.45075 0.0
H2689 H 1.00519 0.25109 0.42082 0.0
H2690 H 0.97918 0.34658 0.41018 0.0
H2691 H 0.96702 0.34084 0.43615 0.0
H2692 H 0.9938 0.35685 0.44052 0.0
H2693 H 0.97658 0.23055 0.39069 0.0
H2694 H 0.95365 0.24225 0.3981 0.0
H2695 H 0.96545 0.25027 0.37263 0.0
H2696 H 0.90563 0.29806 0.40895 0.0
H2697 H 0.93417 0.31438 0.34685 0.0
H2698 H 0.9491 0.3016 0.44842 0.0
H2699 H 0.94449 0.2689 0.43387 0.0
H2700 H 0.92285 0.28366 0.44078 0.0
H2701 H 0.98427 0.32235 0.37084 0.0
H2702 H 0.96811 0.3086 0.34185 0.0
H2703 H 0.9795 0.2889 0.35972 0.0
C2704 C 1.01156 0.68451 0.61994 0.0
C2705 C 0.9945 0.69376 0.61064 0.0
C2706 C 0.01752 0.6635 0.60646 0.0
C2707 C 1.00618 0.65168 0.58315 0.0
C2708 C 0.99005 0.66214 0.57288 0.0
C2709 C 0.98427 0.68299 0.58685 0.0
C2710 C 0.03498 0.65303 0.61795 0.0
C2711 C 0.97806 0.65038 0.54771 0.0
C2712 C 0.02397 0.59931 0.5418 0.0
C2713 C 1.01126 0.57798 0.54645 0.0
C2714 C 0.0229 0.62364 0.55397 0.0
C2715 C 1.00883 0.62638 0.57116 0.0
C2716 C 0.99629 0.60478 0.57622 0.0
C2717 C 0.99746 0.58079 0.56352 0.0
C2718 C 0.03659 0.64629 0.54829 0.0
C2719 C 0.98166 0.60698 0.59512 0.0
H2720 H 0.01979 0.69302 0.63815 0.0
H2721 H 0.97145 0.6905 0.5793 0.0
H2722 H 0.04488 0.64664 0.60424 0.0
H2723 H 0.04493 0.66721 0.63335 0.0
H2724 H 0.02831 0.63637 0.62522 0.0
H2725 H 0.9679 0.66264 0.54114 0.0
H2726 H 0.98886 0.64661 0.53426 0.0
H2727 H 0.96819 0.63198 0.54825 0.0
H2728 H 0.03473 0.59692 0.52864 0.0
H2729 H 0.98797 0.56419 0.56745 0.0
H2730 H 0.04454 0.65955 0.56545 0.0
H2731 H 0.02688 0.6567 0.53815 0.0
H2732 H 0.04853 0.64078 0.53699 0.0
H2733 H 0.99031 0.61788 0.61305 0.0
H2734 H 0.97378 0.58822 0.59769 0.0
H2735 H 0.96962 0.61741 0.58947 0.0
C2736 C 0.61977 0.84641 0.9064 0.0
C2737 C 0.61612 0.82705 0.9196 0.0
C2738 C 0.63306 0.84518 0.88841 0.0
C2739 C 0.64263 0.82399 0.88349 0.0
C2740 C 0.63977 0.80512 0.89765 0.0
C2741 C 0.62665 0.80696 0.91555 0.0
C2742 C 0.63601 0.86594 0.87407 0.0
C2743 C 0.6499 0.78231 0.89327 0.0
C2744 C 0.6562 0.79198 0.82422 0.0
C2745 C 0.67773 0.79527 0.83045 0.0
C2746 C 0.64447 0.80429 0.84015 0.0
C2747 C 0.65462 0.81999 0.86271 0.0
C2748 C 0.67656 0.82609 0.8673 0.0
C2749 C 0.68791 0.81348 0.85113 0.0
C2750 C 0.62109 0.79807 0.8342 0.0
C2751 C 0.68799 0.84368 0.89058 0.0
H2752 H 0.61176 0.86209 0.90954 0.0
H2753 H 0.62419 0.79213 0.92591 0.0
H2754 H 0.65184 0.86927 0.86884 0.0
H2755 H 0.62468 0.8604 0.85698 0.0
H2756 H 0.63326 0.88396 0.88468 0.0
H2757 H 0.64644 0.76972 0.90634 0.0
H2758 H 0.64437 0.77114 0.87437 0.0
H2759 H 0.66701 0.78845 0.89503 0.0
H2760 H 0.64835 0.77825 0.80799 0.0
H2761 H 0.7047 0.81673 0.85542 0.0
H2762 H 0.61453 0.81531 0.83898 0.0
H2763 H 0.61471 0.78448 0.84524 0.0
H2764 H 0.61584 0.78944 0.81448 0.0
H2765 H 0.68023 0.85986 0.89569 0.0
H2766 H 0.70439 0.85105 0.88874 0.0
H2767 H 0.68797 0.83326 0.90577 0.0
C2768 C 0.48116 0.53814 0.7103 0.0
C2769 C 0.46055 0.54132 0.71219 0.0
C2770 C 0.48979 0.5372 0.68809 0.0
C2771 C 0.47789 0.5396 0.66629 0.0
C2772 C 0.45688 0.5423 0.66774 0.0
C2773 C 0.44851 0.54306 0.6904 0.0
C2774 C 0.51209 0.53421 0.6882 0.0
C2775 C 0.44332 0.54504 0.64538 0.0
C2776 C 0.51189 0.56522 0.62053 0.0
C2777 C 0.51336 0.5434 0.60355 0.0
C2778 C 0.49945 0.56438 0.63967 0.0
C2779 C 0.48817 0.54097 0.64294 0.0
C2780 C 0.48893 0.51887 0.62528 0.0
C2781 C 0.50134 0.52032 0.60594 0.0
C2782 C 0.49927 0.5887 0.65724 0.0
C2783 C 0.47749 0.49333 0.62757 0.0
H2784 H 0.49092 0.53659 0.72654 0.0
H2785 H 0.43267 0.54561 0.69114 0.0
H2786 H 0.51311 0.51801 0.67358 0.0
H2787 H 0.52155 0.55141 0.68426 0.0
H2788 H 0.51904 0.53109 0.70606 0.0
H2789 H 0.427 0.54493 0.64858 0.0
H2790 H 0.44958 0.56307 0.64006 0.0
H2791 H 0.44347 0.52951 0.62967 0.0
H2792 H 0.52113 0.5832 0.61931 0.0
H2793 H 0.50257 0.50314 0.59359 0.0
H2794 H 0.50774 0.5887 0.67543 0.0
H2795 H 0.48309 0.5903 0.65979 0.0
H2796 H 0.50669 0.6056 0.65079 0.0
H2797 H 0.48518 0.48774 0.64373 0.0
H2798 H 0.47722 0.47852 0.61104 0.0
H2799 H 0.46127 0.49415 0.63061 0.0
C2800 C 0.84065 0.27286 0.01495 0.0
C2801 C 0.84007 0.26618 0.03771 0.0
C2802 C 0.82591 0.2857 1.00605 0.0
C2803 C 0.81029 0.29171 0.02042 0.0
C2804 C 0.81189 0.28865 0.04498 0.0
C2805 C 0.82696 0.27593 0.05343 0.0
C2806 C 0.82527 0.28935 0.97992 0.0
C2807 C 0.79622 0.29564 0.06137 0.0
C2808 C 0.77697 0.31948 0.97986 0.0
C2809 C 0.76549 0.29688 0.96468 0.0
C2810 C 0.78933 0.31895 1.00162 0.0
C2811 C 0.79053 0.29535 0.00763 0.0
C2812 C 0.77562 0.2736 0.99538 0.0
C2813 C 0.76274 0.27487 0.97429 0.0
C2814 C 0.80343 0.343 0.01585 0.0
C2815 C 0.77557 0.24813 1.00197 0.0
H2816 H 0.85075 0.2651 1.00284 0.0
H2817 H 0.82648 0.27054 0.07108 0.0
H2818 H 0.81179 0.27596 0.96819 0.0
H2819 H 0.82336 0.3088 0.97886 0.0
H2820 H 0.83962 0.286 0.97227 0.0
H2821 H 0.80388 0.3027 0.08064 0.0
H2822 H 0.78826 0.31022 0.05553 0.0
H2823 H 0.78433 0.27853 0.06102 0.0
H2824 H 0.77865 0.33705 0.97342 0.0
H2825 H 0.75278 0.25769 0.96349 0.0
H2826 H 0.81825 0.34567 0.00813 0.0
H2827 H 0.80704 0.34226 0.03547 0.0
H2828 H 0.79625 0.35963 0.01447 0.0
H2829 H 0.78955 0.24111 0.99658 0.0
H2830 H 0.76159 0.23391 0.99252 0.0
H2831 H 0.77614 0.24966 0.02202 0.0
C2832 C 0.11927 0.49871 0.20989 0.0
C2833 C 0.11956 0.51907 0.22942 0.0
C2834 C 0.10934 0.49779 0.18576 0.0
C2835 C 0.09929 0.51763 0.18067 0.0
C2836 C 0.10007 0.53844 0.20021 0.0
C2837 C 0.11006 0.5389 0.22397 0.0
C2838 C 0.10912 0.47519 0.1658 0.0
C2839 C 0.08971 0.56011 0.19622 0.0
C2840 C 0.08148 0.52736 0.11518 0.0
C2841 C 0.05997 0.51769 0.11196 0.0
C2842 C 0.09466 0.52665 0.13687 0.0
C2843 C 0.0863 0.51585 0.15589 0.0
C2844 C 0.06475 0.50516 0.15206 0.0
C2845 C 0.05204 0.50633 0.1305 0.0
C2846 C 0.11744 0.53826 0.13981 0.0
C2847 C 0.0548 0.4933 0.17129 0.0
H2848 H 0.12647 0.48323 0.21352 0.0
H2849 H 0.11008 0.5549 0.23854 0.0
H2850 H 0.09298 0.46423 0.16013 0.0
H2851 H 0.11449 0.48143 0.14941 0.0
H2852 H 0.1191 0.46249 0.17182 0.0
H2853 H 0.09283 0.57572 0.21267 0.0
H2854 H 0.09517 0.56777 0.18054 0.0
H2855 H 0.07266 0.55322 0.19159 0.0
H2856 H 0.08789 0.53641 0.10129 0.0
H2857 H 0.03551 0.49871 0.12841 0.0
H2858 H 0.12691 0.52423 0.14365 0.0
H2859 H 0.1214 0.55445 0.15573 0.0
H2860 H 0.12184 0.54508 0.12325 0.0
H2861 H 0.06338 0.47902 0.17662 0.0
H2862 H 0.03827 0.48403 0.16488 0.0
H2863 H 0.05554 0.50803 0.188 0.0
C2864 C 0.80909 0.86189 0.4936 0.0
C2865 C 0.82187 0.85136 0.50885 0.0
C2866 C 0.80396 0.85157 0.4683 0.0
C2867 C 0.8114 0.82985 0.45797 0.0
C2868 C 0.82338 0.81836 0.47349 0.0
C2869 C 0.82864 0.82938 0.49863 0.0
C2870 C 0.79144 0.86469 0.45244 0.0
C2871 C 0.83121 0.79486 0.4634 0.0
C2872 C 0.7865 0.79429 0.39342 0.0
C2873 C 0.80153 0.80254 0.37923 0.0
C2874 C 0.78965 0.80257 0.4191 0.0
C2875 C 0.80791 0.82024 0.43077 0.0
C2876 C 0.82296 0.82888 0.41639 0.0
C2877 C 0.81975 0.81959 0.3909 0.0
C2878 C 0.77356 0.79223 0.43377 0.0
C2879 C 0.84236 0.84823 0.4279 0.0
H2880 H 0.80387 0.87894 0.50122 0.0
H2881 H 0.83839 0.82098 0.51024 0.0
H2882 H 0.80114 0.87231 0.43947 0.0
H2883 H 0.77783 0.85106 0.44131 0.0
H2884 H 0.78584 0.88051 0.46341 0.0
H2885 H 0.83839 0.78672 0.47815 0.0
H2886 H 0.81829 0.78027 0.45204 0.0
H2887 H 0.84299 0.79943 0.45136 0.0
H2888 H 0.77246 0.78096 0.38446 0.0
H2889 H 0.8313 0.8262 0.37995 0.0
H2890 H 0.76707 0.80782 0.44368 0.0
H2891 H 0.78089 0.78334 0.44779 0.0
H2892 H 0.76058 0.77796 0.42206 0.0
H2893 H 0.83809 0.86547 0.43811 0.0
H2894 H 0.85215 0.8537 0.41407 0.0
H2895 H 0.85177 0.84062 0.44128 0.0
C2896 C 0.44533 0.54408 0.87228 0.0
C2897 C 0.45604 0.54294 0.85183 0.0
C2898 C 0.45503 0.54278 0.89576 0.0
C2899 C 0.47633 0.54102 0.89947 0.0
C2900 C 0.48724 0.54001 0.8789 0.0
C2901 C 0.47699 0.54063 0.85549 0.0
C2902 C 0.44239 0.54319 0.91664 0.0
C2903 C 0.50998 0.53869 0.88169 0.0
C2904 C 0.50666 0.56148 0.96538 0.0
C2905 C 0.50804 0.53824 0.97205 0.0
C2906 C 0.49658 0.56267 0.94204 0.0
C2907 C 0.48712 0.5401 0.9247 0.0
C2908 C 0.48817 0.51662 0.93152 0.0
C2909 C 0.49869 0.51598 0.95476 0.0
C2910 C 0.49631 0.58821 0.93581 0.0
C2911 C 0.47805 0.49199 0.91423 0.0
H2912 H 0.42918 0.54571 0.86994 0.0
H2913 H 0.48562 0.53996 0.84007 0.0
H2914 H 0.44296 0.52622 0.92463 0.0
H2915 H 0.44909 0.56 0.93141 0.0
H2916 H 0.42588 0.54366 0.91076 0.0
H2917 H 0.51651 0.5387 0.86424 0.0
H2918 H 0.51895 0.55505 0.89575 0.0
H2919 H 0.51222 0.5213 0.88817 0.0
H2920 H 0.51378 0.57889 0.97831 0.0
H2921 H 0.49938 0.49783 0.95949 0.0
H2922 H 0.48004 0.59054 0.93165 0.0
H2923 H 0.50372 0.58958 0.91912 0.0
H2924 H 0.50457 0.604 0.95095 0.0
H2925 H 0.46131 0.49172 0.90896 0.0
H2926 H 0.47949 0.47531 0.92244 0.0
H2927 H 0.48523 0.49018 0.89716 0.0
C2928 C 0.82935 0.24509 0.12468 0.0
C2929 C 0.81835 0.22129 0.11182 0.0
C2930 C 0.82364 0.25684 0.14643 0.0
C2931 C 0.80666 0.24429 0.15579 0.0
C2932 C 0.79421 0.22143 0.14169 0.0
C2933 C 0.80019 0.21012 0.11963 0.0
C2934 C 0.83682 0.2818 0.16033 0.0
C2935 C 0.77542 0.20794 0.15044 0.0
C2936 C 0.82011 0.25846 0.22434 0.0
C2937 C 0.80953 0.27797 0.23114 0.0
C2938 C 0.81759 0.24559 0.19995 0.0
C2939 C 0.80475 0.25311 0.18188 0.0
C2940 C 0.79325 0.27207 0.18887 0.0
C2941 C 0.7957 0.28422 0.2136 0.0
C2942 C 0.82947 0.22476 0.19334 0.0
C2943 C 0.7793 0.28049 0.17022 0.0
H2944 H 0.84291 0.25427 0.11805 0.0
H2945 H 0.79133 0.19204 0.10927 0.0
H2946 H 0.82686 0.29528 0.16667 0.0
H2947 H 0.84617 0.27876 0.1768 0.0
H2948 H 0.84763 0.29058 0.14901 0.0
H2949 H 0.76336 0.19823 0.13461 0.0
H2950 H 0.78002 0.19336 0.16005 0.0
H2951 H 0.76856 0.221 0.16327 0.0
H2952 H 0.8303 0.25314 0.23815 0.0
H2953 H 0.7872 0.29904 0.21914 0.0
H2954 H 0.84213 0.23132 0.18311 0.0
H2955 H 0.81907 0.20793 0.18126 0.0
H2956 H 0.83647 0.21897 0.20982 0.0
H2957 H 0.78888 0.29414 0.16157 0.0
H2958 H 0.76758 0.29 0.17886 0.0
H2959 H 0.77113 0.26429 0.15549 0.0
C2960 C 0.13516 0.51294 0.39247 0.0
C2961 C 0.1274 0.52208 0.37211 0.0
C2962 C 0.12542 0.51404 0.41405 0.0
C2963 C 0.10727 0.52461 0.41587 0.0
C2964 C 0.09961 0.53424 0.39554 0.0
C2965 C 0.10959 0.53282 0.37418 0.0
C2966 C 0.13441 0.50344 0.43487 0.0
C2967 C 0.08051 0.54579 0.39616 0.0
C2968 C 0.0695 0.50675 0.46153 0.0
C2969 C 0.07433 0.528 0.4811 0.0
C2970 C 0.08009 0.50529 0.44063 0.0
C2971 C 0.09623 0.52548 0.43875 0.0
C2972 C 0.10144 0.54676 0.45867 0.0
C2973 C 0.09054 0.54777 0.4793 0.0
C2974 C 0.07381 0.48204 0.42035 0.0
C2975 C 0.11858 0.56869 0.45817 0.0
H2976 H 0.14871 0.50437 0.39137 0.0
H2977 H 0.10315 0.53986 0.35881 0.0
H2978 H 0.13788 0.51808 0.45206 0.0
H2979 H 0.12288 0.48748 0.43801 0.0
H2980 H 0.14887 0.49659 0.43122 0.0
H2981 H 0.07658 0.55291 0.37929 0.0
H2982 H 0.06705 0.53151 0.39829 0.0
H2983 H 0.0829 0.5617 0.41223 0.0
H2984 H 0.05728 0.49112 0.46245 0.0
H2985 H 0.0948 0.56427 0.49414 0.0
H2986 H 0.08738 0.47302 0.41746 0.0
H2987 H 0.06858 0.48743 0.40292 0.0
H2988 H 0.06112 0.46789 0.42438 0.0
H2989 H 0.13325 0.56191 0.4557 0.0
H2990 H 0.12134 0.58351 0.47523 0.0
H2991 H 0.11461 0.57734 0.44234 0.0
C2992 C 0.80234 0.84838 0.6383 0.0
C2993 C 0.82264 0.85135 0.63239 0.0
C2994 C 0.79692 0.8365 0.65767 0.0
C2995 C 0.8122 0.82776 0.67182 0.0
C2996 C 0.83271 0.83087 0.66604 0.0
C2997 C 0.8376 0.84234 0.64638 0.0
C2998 C 0.77481 0.83333 0.66305 0.0
C2999 C 0.84963 0.82237 0.68088 0.0
C3000 C 0.80345 0.81785 0.73598 0.0
C3001 C 0.79699 0.79148 0.732 0.0
C3002 C 0.80848 0.82988 0.71665 0.0
C3003 C 0.80684 0.81526 0.69262 0.0
C3004 C 0.80051 0.7886 0.68858 0.0
C3005 C 0.79574 0.77705 0.7083 0.0
C3006 C 0.81543 0.85828 0.72196 0.0
C3007 C 0.79856 0.77227 0.66333 0.0
H3008 H 0.79067 0.85529 0.62775 0.0
H3009 H 0.85342 0.84477 0.64233 0.0
H3010 H 0.76824 0.813 0.66167 0.0
H3011 H 0.77446 0.84321 0.68208 0.0
H3012 H 0.7647 0.84088 0.65027 0.0
H3013 H 0.8649 0.82655 0.67433 0.0
H3014 H 0.85131 0.83191 0.70044 0.0
H3015 H 0.8454 0.80172 0.67999 0.0
H3016 H 0.80429 0.82918 0.75419 0.0
H3017 H 0.7907 0.7567 0.70504 0.0
H3018 H 0.80443 0.8667 0.71121 0.0
H3019 H 0.83091 0.86342 0.71623 0.0
H3020 H 0.81639 0.86685 0.74172 0.0
H3021 H 0.7873 0.77807 0.6504 0.0
H3022 H 0.79332 0.75186 0.66315 0.0
H3023 H 0.81373 0.7749 0.65639 0.0
C3024 C 0.69364 0.39778 0.54184 0.0
C3025 C 0.71485 0.40474 0.55114 0.0
C3026 C 0.68068 0.41551 0.54491 0.0
C3027 C 0.68937 0.44074 0.55707 0.0
C3028 C 0.71067 0.44765 0.56697 0.0
C3029 C 0.72311 0.42949 0.56407 0.0
C3030 C 0.65789 0.40743 0.53465 0.0
C3031 C 0.72048 0.47445 0.57994 0.0
C3032 C 0.66591 0.49509 0.5421 0.0
C3033 C 0.65669 0.50196 0.56303 0.0
C3034 C 0.67591 0.47448 0.5395 0.0
C3035 C 0.67669 0.46051 0.55831 0.0
C3036 C 0.66698 0.46696 0.57922 0.0
C3037 C 0.65709 0.48768 0.58134 0.0
C3038 C 0.68617 0.46813 0.51696 0.0
C3039 C 0.66721 0.45213 0.5994 0.0
H3040 H 0.68719 0.37855 0.53209 0.0
H3041 H 0.73951 0.43494 0.57131 0.0
H3042 H 0.64822 0.41352 0.54876 0.0
H3043 H 0.65445 0.4167 0.51911 0.0
H3044 H 0.65319 0.38662 0.52803 0.0
H3045 H 0.73715 0.47651 0.5872 0.0
H3046 H 0.7192 0.48743 0.56707 0.0
H3047 H 0.71212 0.48064 0.59539 0.0
H3048 H 0.66559 0.5061 0.52792 0.0
H3049 H 0.64941 0.49252 0.59721 0.0
H3050 H 0.68059 0.44794 0.50796 0.0
H3051 H 0.70322 0.47104 0.52234 0.0
H3052 H 0.68308 0.47993 0.50339 0.0
H3053 H 0.65996 0.432 0.59178 0.0
H3054 H 0.65878 0.45954 0.61437 0.0
H3055 H 0.68346 0.45272 0.60733 0.0
C3056 C 0.19435 0.11141 0.55443 0.0
C3057 C 0.19993 0.12457 0.53609 0.0
C3058 C 0.17377 0.09897 0.55406 0.0
C3059 C 0.15815 0.09972 0.53497 0.0
C3060 C 0.16348 0.11375 0.51689 0.0
C3061 C 0.18428 0.12593 0.51761 0.0
C3062 C 0.16892 0.0842 0.57367 0.0
C3063 C 0.14731 0.11522 0.49632 0.0
C3064 C 0.1127 0.04344 0.51935 0.0
C3065 C 0.09731 0.05295 0.53143 0.0
C3066 C 0.13228 0.05864 0.51988 0.0
C3067 C 0.13676 0.0841 0.53293 0.0
C3068 C 0.12115 0.09395 0.54491 0.0
C3069 C 0.1016 0.07825 0.54402 0.0
C3070 C 0.14834 0.04724 0.50685 0.0
C3071 C 0.12525 0.12091 0.55909 0.0
H3072 H 0.20621 0.11023 0.56887 0.0
H3073 H 0.18833 0.13609 0.5034 0.0
H3074 H 0.15574 0.09001 0.58241 0.0
H3075 H 0.16414 0.06375 0.56526 0.0
H3076 H 0.18245 0.08683 0.58815 0.0
H3077 H 0.15347 0.12858 0.48494 0.0
H3078 H 0.14172 0.09621 0.48432 0.0
H3079 H 0.13367 0.12125 0.5038 0.0
H3080 H 0.10949 0.02391 0.50954 0.0
H3081 H 0.08983 0.08564 0.55354 0.0
H3082 H 0.16194 0.04731 0.52035 0.0
H3083 H 0.154 0.05876 0.4937 0.0
H3084 H 0.14216 0.02749 0.4967 0.0
H3085 H 0.13753 0.12348 0.575 0.0
H3086 H 0.11112 0.12623 0.56595 0.0
H3087 H 0.13105 0.13407 0.54739 0.0
C3088 C 0.19846 0.93295 0.79719 0.0
C3089 C 0.20801 0.95611 0.81317 0.0
C3090 C 0.20797 0.91121 0.79451 0.0
C3091 C 0.22798 0.91216 0.80763 0.0
C3092 C 0.23791 0.93574 0.82316 0.0
C3093 C 0.22786 0.95689 0.82595 0.0
C3094 C 0.1962 0.88681 0.77814 0.0
C3095 C 0.25928 0.93865 0.83722 0.0
C3096 C 0.24714 0.85158 0.82093 0.0
C3097 C 0.25951 0.84592 0.80245 0.0
C3098 C 0.23652 0.87231 0.82241 0.0
C3099 C 0.23847 0.88878 0.80544 0.0
C3100 C 0.25111 0.88315 0.78687 0.0
C3101 C 0.2611 0.86192 0.78544 0.0
C3102 C 0.22308 0.87655 0.84228 0.0
C3103 C 0.25446 0.89995 0.76861 0.0
H3104 H 0.18306 0.93144 0.78744 0.0
H3105 H 0.23566 0.97428 0.83849 0.0
H3106 H 0.20559 0.88004 0.76399 0.0
H3107 H 0.19332 0.87203 0.78916 0.0
H3108 H 0.18105 0.88887 0.76885 0.0
H3109 H 0.26565 0.95841 0.84722 0.0
H3110 H 0.25868 0.92614 0.85068 0.0
H3111 H 0.27014 0.93276 0.82452 0.0
H3112 H 0.24556 0.83956 0.83421 0.0
H3113 H 0.27057 0.85807 0.77109 0.0
H3114 H 0.20718 0.87721 0.83406 0.0
H3115 H 0.22946 0.89505 0.85487 0.0
H3116 H 0.22201 0.8615 0.85316 0.0
H3117 H 0.23934 0.90057 0.75826 0.0
H3118 H 0.26472 0.89342 0.75535 0.0
H3119 H 0.26154 0.91957 0.77842 0.0
C3120 C 0.31124 0.8917 1.00465 0.0
C3121 C 0.30728 0.8746 0.02012 0.0
C3122 C 0.33163 0.90181 1.00176 0.0
C3123 C 0.3485 0.89505 0.01507 0.0
C3124 C 0.34457 0.87732 0.03032 0.0
C3125 C 0.32395 0.86707 0.03246 0.0
C3126 C 0.3351 0.92033 0.98502 0.0
C3127 C 0.36213 0.86992 0.04508 0.0
C3128 C 0.40161 0.90895 0.99449 0.0
C3129 C 0.41094 0.93191 0.01058 0.0
C3130 C 0.38141 0.89657 0.99591 0.0
C3131 C 0.3702 0.90743 0.0138 0.0
C3132 C 0.37949 0.93058 0.0301 0.0
C3133 C 0.39973 0.9425 0.02832 0.0
C3134 C 0.37196 0.87202 0.97809 0.0
C3135 C 0.36801 0.94283 0.04938 0.0
H3136 H 0.29834 0.89746 0.995 0.0
H3137 H 0.32091 0.85404 0.04462 0.0
H3138 H 0.34295 0.93922 0.99596 0.0
H3139 H 0.34544 0.91426 0.97171 0.0
H3140 H 0.32033 0.92221 0.97468 0.0
H3141 H 0.35648 0.85523 0.05537 0.0
H3142 H 0.37284 0.86268 0.03284 0.0
H3143 H 0.37127 0.88679 0.05836 0.0
H3144 H 0.40999 0.9008 0.98048 0.0
H3145 H 0.40689 0.96002 0.04106 0.0
H3146 H 0.35775 0.87421 0.96686 0.0
H3147 H 0.36719 0.85692 0.98823 0.0
H3148 H 0.38288 0.86579 0.96559 0.0
H3149 H 0.35367 0.9473 0.04047 0.0
H3150 H 0.37759 0.96056 0.06099 0.0
H3151 H 0.36318 0.92955 0.06138 0.0
C3152 C 0.87794 0.62389 0.77976 0.0
C3153 C 0.8785 0.61389 0.8012 0.0
C3154 C 0.86725 0.64395 0.77682 0.0
C3155 C 0.85698 0.65524 0.79596 0.0
C3156 C 0.85718 0.64478 0.81734 0.0
C3157 C 0.86774 0.62469 0.81965 0.0
C3158 C 0.86687 0.65224 0.75265 0.0
C3159 C 0.84584 0.65457 0.83792 0.0
C3160 C 0.84457 0.72317 0.80407 0.0
C3161 C 0.82344 0.71886 0.79388 0.0
C3162 C 0.8557 0.70306 0.80425 0.0
C3163 C 0.84577 0.67744 0.79402 0.0
C3164 C 0.82455 0.67307 0.7834 0.0
C3165 C 0.8138 0.69348 0.78352 0.0
C3166 C 0.87813 0.70932 0.81598 0.0
C3167 C 0.81302 0.64654 0.77206 0.0
H3168 H 0.88581 0.61601 0.76507 0.0
H3169 H 0.86761 0.61751 0.83639 0.0
H3170 H 0.85924 0.63593 0.73771 0.0
H3171 H 0.85851 0.66794 0.75168 0.0
H3172 H 0.88304 0.65798 0.74904 0.0
H3173 H 0.84639 0.64374 0.8528 0.0
H3174 H 0.85277 0.67471 0.84591 0.0
H3175 H 0.82932 0.65357 0.83073 0.0
H3176 H 0.85243 0.74236 0.81244 0.0
H3177 H 0.79761 0.68941 0.77544 0.0
H3178 H 0.88764 0.69846 0.80465 0.0
H3179 H 0.87925 0.70394 0.83412 0.0
H3180 H 0.88486 0.72982 0.81881 0.0
H3181 H 0.82099 0.63817 0.75708 0.0
H3182 H 0.79664 0.64593 0.76449 0.0
H3183 H 0.81312 0.63456 0.78599 0.0
C3184 C 0.83003 0.64405 0.05221 0.0
C3185 C 0.8126 0.62783 0.03758 0.0
C3186 C 0.84869 0.63556 0.05697 0.0
C3187 C 0.85017 0.61066 0.04586 0.0
C3188 C 0.83247 0.59424 0.03114 0.0
C3189 C 0.81378 0.6029 0.02758 0.0
C3190 C 0.86688 0.65334 0.07357 0.0
C3191 C 0.8335 0.56785 0.01836 0.0
C3192 C 0.90313 0.59625 0.03443 0.0
C3193 C 0.90729 0.58231 0.05237 0.0
C3194 C 0.88483 0.60601 0.03244 0.0
C3195 C 0.87032 0.60192 0.04888 0.0
C3196 C 0.87465 0.58844 0.06742 0.0
C3197 C 0.89296 0.57868 0.06885 0.0
C3198 C 0.88081 0.62024 0.01236 0.0
C3199 C 0.85975 0.58392 0.08552 0.0
H3200 H 0.82905 0.66336 0.05991 0.0
H3201 H 0.80034 0.59054 0.01595 0.0
H3202 H 0.87302 0.64405 0.08799 0.0
H3203 H 0.87962 0.65814 0.06283 0.0
H3204 H 0.86262 0.67116 0.08254 0.0
H3205 H 0.81837 0.55744 0.00758 0.0
H3206 H 0.84537 0.5688 1.00579 0.0
H3207 H 0.83832 0.55688 0.03197 0.0
H3208 H 0.9142 0.59955 0.02188 0.0
H3209 H 0.8958 0.56765 0.08258 0.0
H3210 H 0.87842 0.63939 0.02034 0.0
H3211 H 0.86637 0.61023 0.99991 0.0
H3212 H 0.8938 0.62223 1.00135 0.0
H3213 H 0.85592 0.60204 0.09431 0.0
H3214 H 0.86617 0.57494 0.10007 0.0
H3215 H 0.84501 0.57144 0.07579 0.0
C3216 C 0.21604 0.09184 0.80462 0.0
C3217 C 0.2044 0.08964 0.82399 0.0
C3218 C 0.22699 0.11571 0.80182 0.0
C3219 C 0.22598 0.13845 0.81829 0.0
C3220 C 0.21349 0.13629 0.83725 0.0
C3221 C 0.20329 0.11215 0.8401 0.0
C3222 C 0.24031 0.11648 0.78165 0.0
C3223 C 0.21124 0.15956 0.85502 0.0
C3224 C 0.27281 0.19434 0.82851 0.0
C3225 C 0.26622 0.21072 0.81401 0.0
C3226 C 0.25983 0.17154 0.83044 0.0
C3227 C 0.23945 0.16394 0.81715 0.0
C3228 C 0.23242 0.18064 0.8028 0.0
C3229 C 0.24575 0.20376 0.80152 0.0
C3230 C 0.26827 0.15521 0.84641 0.0
C3231 C 0.21098 0.17371 0.78818 0.0
H3232 H 0.21725 0.07474 0.79214 0.0
H3233 H 0.19435 0.11087 0.85511 0.0
H3234 H 0.23606 0.12989 0.77032 0.0
H3235 H 0.25686 0.12344 0.78979 0.0
H3236 H 0.23877 0.09759 0.76956 0.0
H3237 H 0.1994 0.15522 0.86709 0.0
H3238 H 0.22636 0.16822 0.86668 0.0
H3239 H 0.20681 0.17386 0.8449 0.0
H3240 H 0.28852 0.19925 0.83828 0.0
H3241 H 0.24042 0.21582 0.78993 0.0
H3242 H 0.26883 0.1366 0.83501 0.0
H3243 H 0.25783 0.1516 0.86016 0.0
H3244 H 0.28411 0.16401 0.85626 0.0
H3245 H 0.2099 0.15657 0.77371 0.0
H3246 H 0.20714 0.18918 0.77933 0.0
H3247 H 0.19918 0.16907 0.80017 0.0
C3248 C 0.39066 0.9616 0.29641 0.0
C3249 C 0.37957 0.98132 0.29709 0.0
C3250 C 0.38048 0.93621 0.29497 0.0
C3251 C 0.35848 0.92991 0.29347 0.0
C3252 C 0.34718 0.94963 0.29281 0.0
C3253 C 0.3578 0.97496 0.29522 0.0
C3254 C 0.39338 0.91619 0.2959 0.0
C3255 C 0.32376 0.94401 0.28999 0.0
C3256 C 0.32965 0.85998 0.27241 0.0
C3257 C 0.32479 0.85327 0.29449 0.0
C3258 C 0.34083 0.88439 0.27178 0.0
C3259 C 0.34737 0.90313 0.29373 0.0
C3260 C 0.34285 0.8963 0.31612 0.0
C3261 C 0.33169 0.87177 0.31622 0.0
C3262 C 0.34501 0.89005 0.24727 0.0
C3263 C 0.34985 0.915 0.34017 0.0
H3264 H 0.40748 0.96624 0.29837 0.0
H3265 H 0.34902 0.98996 0.29595 0.0
H3266 H 0.39103 0.90786 0.31224 0.0
H3267 H 0.38826 0.90065 0.27949 0.0
H3268 H 0.41022 0.92382 0.29674 0.0
H3269 H 0.3171 0.96083 0.28777 0.0
H3270 H 0.31739 0.92854 0.27379 0.0
H3271 H 0.31859 0.93745 0.30632 0.0
H3272 H 0.32465 0.84615 0.25543 0.0
H3273 H 0.32832 0.86715 0.33354 0.0
H3274 H 0.35946 0.90431 0.24871 0.0
H3275 H 0.33186 0.89761 0.23941 0.0
H3276 H 0.34628 0.8726 0.23439 0.0
H3277 H 0.36687 0.92222 0.3424 0.0
H3278 H 0.34618 0.90657 0.35614 0.0
H3279 H 0.3422 0.93147 0.34028 0.0
C3280 C 0.57323 0.35897 0.59658 0.0
C3281 C 0.57636 0.36336 0.62224 0.0
C3282 C 0.57422 0.37924 0.58434 0.0
C3283 C 0.5773 0.40428 0.59815 0.0
C3284 C 0.58185 0.40881 0.62405 0.0
C3285 C 0.58161 0.38825 0.63578 0.0
C3286 C 0.57054 0.37374 0.55669 0.0
C3287 C 0.58501 0.43514 0.63949 0.0
C3288 C 0.58287 0.46292 0.56985 0.0
C3289 C 0.56218 0.46594 0.5663 0.0
C3290 C 0.58806 0.44229 0.57914 0.0
C3291 C 0.57229 0.42498 0.58602 0.0
C3292 C 0.55138 0.42802 0.58236 0.0
C3293 C 0.54658 0.44817 0.57222 0.0
C3294 C 0.61048 0.43956 0.58195 0.0
C3295 C 0.53406 0.41041 0.58985 0.0
H3296 H 0.56904 0.33968 0.58614 0.0
H3297 H 0.58367 0.39157 0.65565 0.0
H3298 H 0.55459 0.37585 0.55022 0.0
H3299 H 0.58159 0.3874 0.54962 0.0
H3300 H 0.57223 0.35423 0.54876 0.0
H3301 H 0.58973 0.4357 0.65924 0.0
H3302 H 0.59705 0.44818 0.6331 0.0
H3303 H 0.57033 0.4423 0.63747 0.0
H3304 H 0.595 0.47653 0.56517 0.0
H3305 H 0.53057 0.45052 0.56971 0.0
H3306 H 0.61204 0.41956 0.58056 0.0
H3307 H 0.61841 0.45049 0.6002 0.0
H3308 H 0.61864 0.44729 0.56782 0.0
H3309 H 0.53295 0.39076 0.57972 0.0
H3310 H 0.51872 0.41576 0.58627 0.0
H3311 H 0.53742 0.4105 0.6097 0.0
C3312 C 0.4386 0.78182 0.37417 0.0
C3313 C 0.44014 0.76113 0.38517 0.0
C3314 C 0.41916 0.78558 0.36429 0.0
C3315 C 0.40091 0.76782 0.3648 0.0
C3316 C 0.40234 0.74762 0.37697 0.0
C3317 C 0.4219 0.7447 0.38725 0.0
C3318 C 0.41831 0.80771 0.35199 0.0
C3319 C 0.38341 0.72792 0.37751 0.0
C3320 C 0.34716 0.77946 0.34271 0.0
C3321 C 0.34415 0.76681 0.31812 0.0
C3322 C 0.36559 0.78008 0.35835 0.0
C3323 C 0.38117 0.76775 0.34904 0.0
C3324 C 0.37796 0.75483 0.32426 0.0
C3325 C 0.35959 0.75458 0.3092 0.0
C3326 C 0.36854 0.79417 0.38463 0.0
C3327 C 0.39401 0.74131 0.31348 0.0
H3328 H 0.45262 0.79479 0.37281 0.0
H3329 H 0.42298 0.72866 0.39575 0.0
H3330 H 0.41545 0.80088 0.33179 0.0
H3331 H 0.40533 0.81698 0.35719 0.0
H3332 H 0.43304 0.82201 0.35681 0.0
H3333 H 0.38664 0.71536 0.39028 0.0
H3334 H 0.37042 0.73701 0.38299 0.0
H3335 H 0.37816 0.71607 0.35884 0.0
H3336 H 0.33534 0.78914 0.34958 0.0
H3337 H 0.35738 0.74481 0.29017 0.0
H3338 H 0.38247 0.80961 0.38814 0.0
H3339 H 0.37132 0.78129 0.39719 0.0
H3340 H 0.35488 0.80244 0.38915 0.0
H3341 H 0.40876 0.755 0.31462 0.0
H3342 H 0.38889 0.73169 0.29398 0.0
H3343 H 0.39739 0.72697 0.32412 0.0
C3344 C 0.04095 0.72747 0.1042 0.0
C3345 C 0.05704 0.74163 0.12252 0.0
C3346 C 0.04139 0.70261 0.09275 0.0
C3347 C 0.05829 0.69152 0.09983 0.0
C3348 C 0.07508 0.70608 0.1174 0.0
C3349 C 0.07428 0.73097 0.12849 0.0
C3350 C 0.02326 0.68781 0.07393 0.0
C3351 C 0.09335 0.69494 0.12549 0.0
C3352 C 0.04403 0.62048 0.09379 0.0
C3353 C 0.05199 0.61151 0.07246 0.0
C3354 C 0.04679 0.64647 0.10339 0.0
C3355 C 0.05717 0.66395 0.09087 0.0
C3356 C 0.06545 0.65496 0.06939 0.0
C3357 C 0.06304 0.62873 0.06061 0.0
C3358 C 0.03821 0.65519 0.12671 0.0
C3359 C 0.07617 0.673 0.05522 0.0
H3360 H 0.02763 0.73552 0.09925 0.0
H3361 H 0.08686 0.74172 0.14252 0.0
H3362 H 0.02886 0.67854 0.0573 0.0
H3363 H 0.01439 0.67265 0.08154 0.0
H3364 H 1.0125 0.69993 0.06849 0.0
H3365 H 0.10615 0.70948 0.13719 0.0
H3366 H 0.08822 0.68035 0.13608 0.0
H3367 H 0.09948 0.68547 0.10938 0.0
H3368 H 0.03566 0.60708 0.10306 0.0
H3369 H 0.06906 0.62169 0.044 0.0
H3370 H 0.0256 0.66547 0.12278 0.0
H3371 H 0.05053 0.66852 0.14029 0.0
H3372 H 0.03189 0.63918 0.13512 0.0
H3373 H 0.06489 0.68347 0.04777 0.0
H3374 H 0.08283 0.66307 0.03975 0.0
H3375 H 0.0888 0.6872 0.06751 0.0
C3376 C 0.06201 0.24851 0.86034 0.0
C3377 C 0.05663 0.25754 0.88339 0.0
C3378 C 0.08256 0.25404 0.8556 0.0
C3379 C 0.09823 0.26908 0.87433 0.0
C3380 C 0.09294 0.27846 0.89764 0.0
C3381 C 0.0722 0.27253 0.90192 0.0
C3382 C 0.08751 0.24369 0.83047 0.0
C3383 C 0.10917 0.29475 0.918 0.0
C3384 C 0.15277 0.261 0.86375 0.0
C3385 C 0.15907 0.281 0.85208 0.0
C3386 C 0.13346 0.25771 0.87237 0.0
C3387 C 0.12007 0.27477 0.8692 0.0
C3388 C 0.1268 0.29573 0.85859 0.0
C3389 C 0.14616 0.29855 0.85011 0.0
C3390 C 0.12699 0.23528 0.88384 0.0
C3391 C 0.11309 0.31447 0.85498 0.0
H3392 H 0.05014 0.23694 0.84588 0.0
H3393 H 0.06818 0.27969 0.91976 0.0
H3394 H 0.09431 0.25947 0.8221 0.0
H3395 H 0.09926 0.23166 0.83205 0.0
H3396 H 0.07356 0.23228 0.81792 0.0
H3397 H 0.10254 0.30061 0.93504 0.0
H3398 H 0.12162 0.28435 0.9222 0.0
H3399 H 0.11655 0.31198 0.91208 0.0
H3400 H 0.1628 0.24763 0.86578 0.0
H3401 H 0.15076 0.31395 0.84095 0.0
H3402 H 0.11401 0.22167 0.87147 0.0
H3403 H 0.12126 0.24135 0.90143 0.0
H3404 H 0.13994 0.22532 0.8873 0.0
H3405 H 0.09974 0.30525 0.84051 0.0
H3406 H 0.12158 0.33138 0.84943 0.0
H3407 H 0.10669 0.32074 0.87205 0.0
C3408 C 0.50586 0.79019 0.98318 0.0
C3409 C 0.52357 0.80802 0.99489 0.0
C3410 C 0.50087 0.76701 0.99054 0.0
C3411 C 0.51413 0.76179 0.00976 0.0
C3412 C 0.53078 0.78096 0.02314 0.0
C3413 C 0.53532 0.80385 0.0154 0.0
C3414 C 0.48283 0.74724 0.97601 0.0
C3415 C 0.54537 0.77629 0.04373 0.0
C3416 C 0.50694 0.70393 0.03809 0.0
C3417 C 0.52071 0.69053 0.02662 0.0
C3418 C 0.50316 0.72636 0.03144 0.0
C3419 C 0.51345 0.73544 0.01299 0.0
C3420 C 0.52597 0.72078 0.99999 0.0
C3421 C 0.52944 0.69851 0.00699 0.0
C3422 C 0.48942 0.74123 0.04535 0.0
C3423 C 0.53704 0.72959 0.97993 0.0
H3424 H 0.49709 0.79334 0.96691 0.0
H3425 H 0.54917 0.81763 0.02404 0.0
H3426 H 0.48866 0.73419 0.96202 0.0
H3427 H 0.47493 0.73585 0.988 0.0
H3428 H 0.47131 0.75596 0.96635 0.0
H3429 H 0.55572 0.79407 0.05423 0.0
H3430 H 0.53653 0.76718 0.05656 0.0
H3431 H 0.55523 0.76326 0.036 0.0
H3432 H 0.5001 0.69771 0.05322 0.0
H3433 H 0.53972 0.68781 0.99776 0.0
H3434 H 0.47932 0.74895 0.03274 0.0
H3435 H 0.49925 0.7575 0.05879 0.0
H3436 H 0.4795 0.72951 0.05549 0.0
H3437 H 0.52607 0.73515 0.9665 0.0
H3438 H 0.54437 0.71479 0.96998 0.0
H3439 H 0.54936 0.74651 0.98803 0.0
C3440 C 0.07606 0.76457 0.6903 0.0
C3441 C 0.06214 0.74206 0.69017 0.0
C3442 C 0.09742 0.7653 0.69203 0.0
C3443 C 0.1049 0.74304 0.69383 0.0
C3444 C 0.09092 0.72012 0.69306 0.0
C3445 C 0.06962 0.7199 0.69121 0.0
C3446 C 0.11196 0.79004 0.69275 0.0
C3447 C 0.0985 0.69603 0.69496 0.0
C3448 C 0.15973 0.73698 0.68463 0.0
C3449 C 0.16893 0.74043 0.70895 0.0
C3450 C 0.13887 0.73859 0.67927 0.0
C3451 C 0.12739 0.74407 0.69882 0.0
C3452 C 0.13704 0.74887 0.72343 0.0
C3453 C 0.15776 0.7468 0.7282 0.0
C3454 C 0.12892 0.73345 0.65285 0.0
C3455 C 0.12531 0.75525 0.7447 0.0
H3456 H 0.07031 0.78172 0.68919 0.0
H3457 H 0.05887 0.70244 0.69085 0.0
H3458 H 0.12083 0.79721 0.71142 0.0
H3459 H 0.1234 0.78728 0.67989 0.0
H3460 H 0.10351 0.8047 0.688 0.0
H3461 H 0.08551 0.67945 0.69215 0.0
H3462 H 0.10902 0.6921 0.6812 0.0
H3463 H 0.10754 0.69825 0.71336 0.0
H3464 H 0.16864 0.73214 0.6699 0.0
H3465 H 0.16521 0.74978 0.747 0.0
H3466 H 0.12086 0.74889 0.64951 0.0
H3467 H 0.11701 0.7157 0.64878 0.0
H3468 H 0.14044 0.73153 0.63991 0.0
H3469 H 0.11785 0.77152 0.74274 0.0
H3470 H 0.13554 0.76 0.76266 0.0
H3471 H 0.11275 0.73894 0.74476 0.0
C3472 C 0.06744 0.38216 0.46126 0.0
C3473 C 0.08049 0.36806 0.47138 0.0
C3474 C 0.06869 0.40759 0.47191 0.0
C3475 C 0.08274 0.41849 0.49365 0.0
C3476 C 0.09737 0.40497 0.50239 0.0
C3477 C 0.09623 0.37979 0.49083 0.0
C3478 C 0.0534 0.42173 0.46144 0.0
C3479 C 0.11246 0.41595 0.52564 0.0
C3480 C 0.08883 0.48719 0.52422 0.0
C3481 C 0.07429 0.48567 0.54067 0.0
C3482 C 0.09133 0.46557 0.50815 0.0
C3483 C 0.0797 0.44183 0.50948 0.0
C3484 C 0.06521 0.44014 0.52634 0.0
C3485 C 0.06249 0.46224 0.54158 0.0
C3486 C 0.10604 0.46818 0.48949 0.0
C3487 C 0.05254 0.41501 0.52824 0.0
H3488 H 0.05521 0.37279 0.44622 0.0
H3489 H 0.10605 0.36856 0.49875 0.0
H3490 H 0.06047 0.44199 0.46332 0.0
H3491 H 0.04763 0.41339 0.44177 0.0
H3492 H 0.03985 0.42069 0.4716 0.0
H3493 H 0.12454 0.40449 0.52805 0.0
H3494 H 0.12022 0.43559 0.52575 0.0
H3495 H 0.10384 0.4166 0.54161 0.0
H3496 H 0.09776 0.50544 0.52323 0.0
H3497 H 0.05125 0.46122 0.55429 0.0
H3498 H 0.09772 0.45948 0.47076 0.0
H3499 H 0.11878 0.45795 0.49291 0.0
H3500 H 0.11295 0.48825 0.48992 0.0
H3501 H 0.04258 0.40599 0.51051 0.0
H3502 H 0.0424 0.41697 0.54278 0.0
H3503 H 0.06301 0.40206 0.53225 0.0
C3504 C 0.48765 0.24807 0.24468 0.0
C3505 C 0.487 0.23427 0.22088 0.0
C3506 C 0.46926 0.25063 0.25417 0.0
C3507 C 0.45003 0.23814 0.23983 0.0
C3508 C 0.44965 0.22017 0.21812 0.0
C3509 C 0.46829 0.2186 0.20865 0.0
C3510 C 0.47039 0.26995 0.27752 0.0
C3511 C 0.4295 0.20525 0.20313 0.0
C3512 C 0.40433 0.25548 0.2693 0.0
C3513 C 0.40206 0.27695 0.25993 0.0
C3514 C 0.41905 0.24131 0.26171 0.0
C3515 C 0.43142 0.24886 0.24428 0.0
C3516 C 0.42801 0.26957 0.23355 0.0
C3517 C 0.4134 0.28355 0.24172 0.0
C3518 C 0.42191 0.21893 0.2729 0.0
C3519 C 0.44056 0.27787 0.21441 0.0
H3520 H 0.50219 0.25968 0.25452 0.0
H3521 H 0.46783 0.20713 0.1906 0.0
H3522 H 0.46625 0.28743 0.27282 0.0
H3523 H 0.45919 0.26291 0.28926 0.0
H3524 H 0.48621 0.27501 0.28826 0.0
H3525 H 0.43177 0.1871 0.19227 0.0
H3526 H 0.41737 0.20123 0.21489 0.0
H3527 H 0.42378 0.21633 0.19009 0.0
H3528 H 0.39508 0.25035 0.28314 0.0
H3529 H 0.41114 0.29995 0.23432 0.0
H3530 H 0.43814 0.2216 0.28198 0.0
H3531 H 0.41902 0.20158 0.25828 0.0
H3532 H 0.41129 0.21593 0.2866 0.0
H3533 H 0.45717 0.28435 0.22245 0.0
H3534 H 0.43518 0.2935 0.20712 0.0
H3535 H 0.43953 0.26175 0.19886 0.0
C3536 C 0.61053 0.52202 0.37652 0.0
C3537 C 0.63229 0.52469 0.37765 0.0
C3538 C 0.60037 0.52189 0.39767 0.0
C3539 C 0.61198 0.52536 0.42136 0.0
C3540 C 0.63404 0.52881 0.42278 0.0
C3541 C 0.64379 0.52797 0.40112 0.0
C3542 C 0.57695 0.51738 0.39448 0.0
C3543 C 0.64742 0.53325 0.44731 0.0
C3544 C 0.58334 0.54403 0.47754 0.0
C3545 C 0.57612 0.5206 0.48372 0.0
C3546 C 0.59539 0.54604 0.45801 0.0
C3547 C 0.60089 0.52421 0.44415 0.0
C3548 C 0.59439 0.50077 0.45121 0.0
C3549 C 0.58195 0.49923 0.47031 0.0
C3550 C 0.60143 0.57148 0.45144 0.0
C3551 C 0.59982 0.47687 0.43781 0.0
H3552 H 0.60121 0.51913 0.35873 0.0
H3553 H 0.66053 0.53006 0.40263 0.0
H3554 H 0.57077 0.50006 0.40106 0.0
H3555 H 0.57181 0.53338 0.40573 0.0
H3556 H 0.57 0.51511 0.37507 0.0
H3557 H 0.66426 0.53719 0.44582 0.0
H3558 H 0.64382 0.54944 0.46003 0.0
H3559 H 0.64394 0.51639 0.45559 0.0
H3560 H 0.57854 0.56065 0.48705 0.0
H3561 H 0.57625 0.48092 0.47439 0.0
H3562 H 0.593 0.57124 0.43315 0.0
H3563 H 0.6183 0.57561 0.4502 0.0
H3564 H 0.59774 0.58698 0.46498 0.0
H3565 H 0.59169 0.472 0.41868 0.0
H3566 H 0.59538 0.46062 0.44671 0.0
H3567 H 0.61675 0.47973 0.43693 0.0
C3568 C 0.2742 0.8479 0.0836 0.0
C3569 C 0.26384 0.82283 0.08135 0.0
C3570 C 0.29251 0.85779 0.10023 0.0
C3571 C 0.2988 0.84341 0.11716 0.0
C3572 C 0.28621 0.81956 0.11725 0.0
C3573 C 0.26963 0.8091 0.09854 0.0
C3574 C 0.30494 0.88323 0.09898 0.0
C3575 C 0.28995 0.80478 0.13695 0.0
C3576 C 0.34203 0.83104 0.15482 0.0
C3577 C 0.33578 0.84083 0.17725 0.0
C3578 C 0.33358 0.83736 0.13327 0.0
C3579 C 0.31824 0.85236 0.13489 0.0
C3580 C 0.31786 0.86833 0.1576 0.0
C3581 C 0.32843 0.86355 0.17874 0.0
C3582 C 0.33746 0.82378 0.1088 0.0
C3583 C 0.3041 0.88761 0.16015 0.0
H3584 H 0.26883 0.85953 0.0718 0.0
H3585 H 0.26107 0.79004 0.09736 0.0
H3586 H 0.29748 0.89829 0.10816 0.0
H3587 H 0.32132 0.88642 0.10775 0.0
H3588 H 0.30484 0.88519 0.0796 0.0
H3589 H 0.2764 0.78954 0.13682 0.0
H3590 H 0.30353 0.79576 0.13424 0.0
H3591 H 0.29297 0.81757 0.1552 0.0
H3592 H 0.3503 0.81559 0.15314 0.0
H3593 H 0.32664 0.87413 0.19638 0.0
H3594 H 0.33437 0.83455 0.0943 0.0
H3595 H 0.32701 0.80488 0.10358 0.0
H3596 H 0.35373 0.82089 0.10981 0.0
H3597 H 0.28806 0.87916 0.1508 0.0
H3598 H 0.31037 0.90334 0.15143 0.0
H3599 H 0.30333 0.89569 0.17963 0.0
C3600 C 0.95635 0.5658 0.88605 0.0
C3601 C 0.95455 0.5465 0.86509 0.0
C3602 C 0.96731 0.56479 0.90903 0.0
C3603 C 0.97623 0.5435 0.91185 0.0
C3604 C 0.97352 0.52339 0.89099 0.0
C3605 C 0.96323 0.52536 0.86798 0.0
C3606 C 0.97017 0.58719 0.93006 0.0
C3607 C 0.98187 0.49983 0.89284 0.0
C3608 C 0.02487 0.5508 0.95953 0.0
C3609 C 0.01703 0.5418 0.97938 0.0
C3610 C 1.01186 0.55185 0.93811 0.0
C3611 C 0.99003 0.54329 0.93563 0.0
C3612 C 0.98186 0.53432 0.9557 0.0
C3613 C 0.99534 0.53388 0.97729 0.0
C3614 C 0.02167 0.56203 0.9179 0.0
C3615 C 0.95885 0.52476 0.95424 0.0
H3616 H 0.94998 0.58238 0.88421 0.0
H3617 H 0.96197 0.51021 0.85216 0.0
H3618 H 0.96461 0.58102 0.94638 0.0
H3619 H 0.98695 0.59574 0.9352 0.0
H3620 H 0.96176 0.60193 0.92544 0.0
H3621 H 0.97637 0.48465 0.87617 0.0
H3622 H 0.9991 0.50436 0.89544 0.0
H3623 H 0.97711 0.49254 0.90902 0.0
H3624 H 0.04152 0.55702 0.96065 0.0
H3625 H 0.98893 0.52669 0.99219 0.0
H3626 H 0.01429 0.57753 0.91317 0.0
H3627 H 0.01908 0.5469 0.90115 0.0
H3628 H 0.03866 0.56933 0.92305 0.0
H3629 H 0.95056 0.54064 0.95393 0.0
H3630 H 0.95503 0.51608 0.97001 0.0
H3631 H 0.95289 0.51056 0.93698 0.0
C3632 C 0.29412 0.23651 0.6062 0.0
C3633 C 0.2796 0.21519 0.59296 0.0
C3634 C 0.29374 0.24599 0.63121 0.0
C3635 C 0.27862 0.23378 0.64352 0.0
C3636 C 0.26335 0.21296 0.63004 0.0
C3637 C 0.26395 0.20401 0.60494 0.0
C3638 C 0.31011 0.26849 0.64469 0.0
C3639 C 0.24701 0.19926 0.6424 0.0
C3640 C 0.29468 0.23916 0.71198 0.0
C3641 C 0.28373 0.25708 0.72253 0.0
C3642 C 0.29271 0.231 0.68639 0.0
C3643 C 0.2799 0.24151 0.6708 0.0
C3644 C 0.26886 0.25974 0.68135 0.0
C3645 C 0.27068 0.26703 0.70708 0.0
C3646 C 0.3044 0.21113 0.67605 0.0
C3647 C 0.25545 0.27188 0.66546 0.0
H3648 H 0.3062 0.24545 0.59719 0.0
H3649 H 0.25267 0.18751 0.59501 0.0
H3650 H 0.30279 0.28291 0.65522 0.0
H3651 H 0.32082 0.26244 0.65805 0.0
H3652 H 0.31941 0.27743 0.63208 0.0
H3653 H 0.23521 0.18486 0.62905 0.0
H3654 H 0.25455 0.18967 0.65563 0.0
H3655 H 0.23899 0.21286 0.65293 0.0
H3656 H 0.30464 0.23118 0.72379 0.0
H3657 H 0.26227 0.28101 0.7151 0.0
H3658 H 0.31575 0.21908 0.6649 0.0
H3659 H 0.29346 0.19493 0.66373 0.0
H3660 H 0.3129 0.20396 0.69062 0.0
H3661 H 0.26511 0.28204 0.65394 0.0
H3662 H 0.24767 0.28549 0.67644 0.0
H3663 H 0.2434 0.25718 0.65284 0.0
C3664 C 0.60164 0.52959 0.23216 0.0
C3665 C 0.61933 0.5189 0.23632 0.0
C3666 C 0.5924 0.53016 0.20832 0.0
C3667 C 0.6008 0.51985 0.18737 0.0
C3668 C 0.61867 0.50899 0.1913 0.0
C3669 C 0.62765 0.50861 0.21552 0.0
C3670 C 0.57345 0.54189 0.20562 0.0
C3671 C 0.6284 0.4978 0.16981 0.0
C3672 C 0.56482 0.503 0.12473 0.0
C3673 C 0.57008 0.52465 0.11478 0.0
C3674 C 0.57476 0.50102 0.14791 0.0
C3675 C 0.59091 0.52087 0.16167 0.0
C3676 C 0.59663 0.54247 0.15137 0.0
C3677 C 0.58611 0.54421 0.12846 0.0
C3678 C 0.56759 0.47782 0.15797 0.0
C3679 C 0.61387 0.56401 0.16473 0.0
H3680 H 0.59482 0.53767 0.24773 0.0
H3681 H 0.64121 0.50025 0.21813 0.0
H3682 H 0.57674 0.55812 0.19645 0.0
H3683 H 0.56036 0.52791 0.19385 0.0
H3684 H 0.56844 0.54866 0.22354 0.0
H3685 H 0.6422 0.49015 0.17563 0.0
H3686 H 0.61685 0.48235 0.15735 0.0
H3687 H 0.63315 0.51242 0.15912 0.0
H3688 H 0.55253 0.48769 0.11461 0.0
H3689 H 0.59064 0.56095 0.1211 0.0
H3690 H 0.56126 0.48333 0.17529 0.0
H3691 H 0.58092 0.46883 0.1624 0.0
H3692 H 0.5554 0.46365 0.14491 0.0
H3693 H 0.60932 0.57308 0.18216 0.0
H3694 H 0.61761 0.57862 0.15368 0.0
H3695 H 0.62813 0.55676 0.16948 0.0
C3696 C 0.23983 0.80062 0.94959 0.0
C3697 C 0.25098 0.79816 0.97133 0.0
C3698 C 0.24421 0.78903 0.92695 0.0
C3699 C 0.25985 0.77432 0.92626 0.0
C3700 C 0.26941 0.76937 0.94816 0.0
C3701 C 0.26498 0.78162 0.9706 0.0
C3702 C 0.23351 0.79464 0.90392 0.0
C3703 C 0.28548 0.75292 0.94824 0.0
C3704 C 0.26034 0.74815 0.8601 0.0
C3705 C 0.27432 0.76785 0.85454 0.0
C3706 C 0.25759 0.74786 0.88446 0.0
C3707 C 0.26834 0.7684 0.9031 0.0
C3708 C 0.28398 0.78693 0.89768 0.0
C3709 C 0.28683 0.78631 0.87327 0.0
C3710 C 0.24204 0.7268 0.89 0.0
C3711 C 0.29612 0.80886 0.91723 0.0
H3712 H 0.22877 0.8131 0.9502 0.0
H3713 H 0.27331 0.77926 0.98751 0.0
H3714 H 0.24505 0.80591 0.89515 0.0
H3715 H 0.22657 0.77681 0.89056 0.0
H3716 H 0.22103 0.80539 0.90768 0.0
H3717 H 0.28456 0.74265 0.96354 0.0
H3718 H 0.28364 0.73896 0.93073 0.0
H3719 H 0.30122 0.76503 0.9512 0.0
H3720 H 0.25117 0.73343 0.84539 0.0
H3721 H 0.29764 0.80139 0.86872 0.0
H3722 H 0.227 0.73292 0.89146 0.0
H3723 H 0.24738 0.72207 0.90774 0.0
H3724 H 0.23934 0.70951 0.87529 0.0
H3725 H 0.28559 0.82152 0.92384 0.0
H3726 H 0.30904 0.82014 0.91033 0.0
H3727 H 0.30271 0.80196 0.93316 0.0
C3728 C 0.979 0.53171 0.72088 0.0
C3729 C 0.96113 0.54194 0.72475 0.0
C3730 C 0.98735 0.53003 0.69846 0.0
C3731 C 0.97795 0.53892 0.67863 0.0
C3732 C 0.95973 0.54906 0.68216 0.0
C3733 C 0.95155 0.55036 0.70491 0.0
C3734 C 1.00658 0.51891 0.69616 0.0
C3735 C 0.949 0.55892 0.66192 0.0
C3736 C 1.01324 0.5558 0.63026 0.0
C3737 C 1.00822 0.53402 0.61124 0.0
C3738 C 1.00326 0.55789 0.65165 0.0
C3739 C 0.98752 0.53781 0.65466 0.0
C3740 C 0.98207 0.51599 0.63528 0.0
C3741 C 0.99237 0.51436 0.61411 0.0
C3742 C 1.00992 0.58159 0.67136 0.0
C3743 C 0.96546 0.49402 0.63707 0.0
H3744 H 0.98676 0.52496 0.73566 0.0
H3745 H 0.9379 0.55846 0.70728 0.0
H3746 H 1.00351 0.50272 0.68028 0.0
H3747 H 0.01937 0.53327 0.69271 0.0
H3748 H 1.01189 0.51227 0.71288 0.0
H3749 H 0.93483 0.56569 0.66698 0.0
H3750 H 0.95981 0.57475 0.65741 0.0
H3751 H 0.94459 0.54385 0.64506 0.0
H3752 H 0.02524 0.57136 0.62861 0.0
H3753 H 0.98801 0.49743 0.59979 0.0
H3754 H 0.01698 0.5769 0.68838 0.0
H3755 H 0.99623 0.58978 0.67576 0.0
H3756 H 0.02139 0.59615 0.66589 0.0
H3757 H 0.97057 0.48552 0.6526 0.0
H3758 H 0.96193 0.4791 0.62004 0.0
H3759 H 0.95097 0.50066 0.64085 0.0
C3760 C 0.25496 0.22301 0.45882 0.0
C3761 C 0.27284 0.21398 0.46581 0.0
C3762 C 0.25354 0.23459 0.43824 0.0
C3763 C 0.27014 0.23658 0.42406 0.0
C3764 C 0.28775 0.22646 0.43058 0.0
C3765 C 0.28893 0.21561 0.45133 0.0
C3766 C 0.2346 0.24534 0.43209 0.0
C3767 C 0.30571 0.22759 0.41595 0.0
C3768 C 0.26857 0.24959 0.35932 0.0
C3769 C 0.27992 0.27447 0.36398 0.0
C3770 C 0.26359 0.23753 0.37874 0.0
C3771 C 0.27025 0.25062 0.40342 0.0
C3772 C 0.28043 0.27634 0.40807 0.0
C3773 C 0.28518 0.28785 0.38837 0.0
C3774 C 0.25268 0.21016 0.37277 0.0
C3775 C 0.28783 0.2912 0.43393 0.0
H3776 H 0.24243 0.22174 0.46981 0.0
H3777 H 0.30264 0.20821 0.45621 0.0
H3778 H 0.23904 0.26625 0.4353 0.0
H3779 H 0.22816 0.23844 0.41241 0.0
H3780 H 0.22226 0.24031 0.44335 0.0
H3781 H 0.31765 0.21743 0.42251 0.0
H3782 H 0.30002 0.21918 0.3963 0.0
H3783 H 0.31324 0.24759 0.41721 0.0
H3784 H 0.26482 0.23897 0.34065 0.0
H3785 H 0.29393 0.30712 0.39217 0.0
H3786 H 0.24082 0.20668 0.38499 0.0
H3787 H 0.26419 0.19811 0.37575 0.0
H3788 H 0.24504 0.20422 0.3534 0.0
H3789 H 0.27543 0.28843 0.4456 0.0
H3790 H 0.29273 0.31176 0.43458 0.0
H3791 H 0.30129 0.28429 0.44198 0.0
C3792 C 0.3748 0.63498 0.54528 0.0
C3793 C 0.38382 0.65688 0.56281 0.0
C3794 C 0.38508 0.61496 0.54053 0.0
C3795 C 0.4051 0.6171 0.55342 0.0
C3796 C 0.41472 0.63962 0.57058 0.0
C3797 C 0.40382 0.65945 0.57524 0.0
C3798 C 0.37427 0.59131 0.52208 0.0
C3799 C 0.43628 0.6425 0.58417 0.0
C3800 C 0.42029 0.55412 0.55513 0.0
C3801 C 0.43129 0.55132 0.53513 0.0
C3802 C 0.41233 0.57602 0.56198 0.0
C3803 C 0.41565 0.59548 0.54856 0.0
C3804 C 0.42693 0.59284 0.52853 0.0
C3805 C 0.43467 0.57078 0.52208 0.0
C3806 C 0.39987 0.57802 0.58307 0.0
C3807 C 0.43054 0.61315 0.51372 0.0
H3808 H 0.3593 0.63331 0.53564 0.0
H3809 H 0.41064 0.67651 0.5888 0.0
H3810 H 0.38372 0.5874 0.50714 0.0
H3811 H 0.37255 0.57481 0.53106 0.0
H3812 H 0.35862 0.59285 0.51377 0.0
H3813 H 0.44173 0.66138 0.59649 0.0
H3814 H 0.43651 0.62775 0.59528 0.0
H3815 H 0.4474 0.63968 0.5709 0.0
H3816 H 0.41779 0.53909 0.56526 0.0
H3817 H 0.44369 0.56894 0.50702 0.0
H3818 H 0.38365 0.5789 0.57628 0.0
H3819 H 0.40645 0.59571 0.5968 0.0
H3820 H 0.39954 0.56173 0.59231 0.0
H3821 H 0.41548 0.61638 0.50543 0.0
H3822 H 0.43976 0.60817 0.49876 0.0
H3823 H 0.43872 0.63123 0.52595 0.0
C3824 C 0.88522 0.96292 0.55562 0.0
C3825 C 0.88219 0.94161 0.56633 0.0
C3826 C 0.90527 0.97482 0.55276 0.0
C3827 C 0.92281 0.96512 0.56061 0.0
C3828 C 0.91976 0.94302 0.57053 0.0
C3829 C 0.89958 0.93166 0.5734 0.0
C3830 C 0.90774 0.9984 0.54223 0.0
C3831 C 0.93792 0.93184 0.57893 0.0
C3832 C 0.97462 0.9884 0.53926 0.0
C3833 C 0.98471 1.00719 0.55958 0.0
C3834 C 0.95461 0.97427 0.5394 0.0
C3835 C 0.94437 0.97919 0.56025 0.0
C3836 C 0.95468 0.99792 0.58089 0.0
C3837 C 0.97469 0.01154 0.58034 0.0
C3838 C 0.94433 0.95431 0.51712 0.0
C3839 C 0.94442 1.00393 0.60348 0.0
H3840 H 0.87196 0.97083 0.55012 0.0
H3841 H 0.89753 0.91528 0.58174 0.0
H3842 H 0.91636 0.0148 0.55648 0.0
H3843 H 0.91698 0.99641 0.52684 0.0
H3844 H 0.89254 1.00261 0.53551 0.0
H3845 H 0.93286 0.91336 0.58408 0.0
H3846 H 0.94784 0.92918 0.56427 0.0
H3847 H 0.94769 0.94506 0.59507 0.0
H3848 H 0.98225 0.98493 0.52315 0.0
H3849 H 0.98235 0.02601 0.59612 0.0
H3850 H 0.92991 0.95935 0.50913 0.0
H3851 H 0.93977 0.93584 0.52245 0.0
H3852 H 0.95463 0.95205 0.50279 0.0
H3853 H 0.92975 1.01029 0.59859 0.0
H3854 H 0.95454 0.01891 0.61805 0.0
H3855 H 0.94031 0.98669 0.61103 0.0
C3856 C 0.88029 0.12195 0.27126 0.0
C3857 C 0.87613 0.10712 0.2889 0.0
C3858 C 0.87101 0.14343 0.26976 0.0
C3859 C 0.85699 0.15069 0.28617 0.0
C3860 C 0.85244 0.13544 0.30357 0.0
C3861 C 0.86192 0.11427 0.30472 0.0
C3862 C 0.87663 0.15879 0.2509 0.0
C3863 C 0.83766 0.14174 0.32147 0.0
C3864 C 0.84625 0.21915 0.30097 0.0
C3865 C 0.82685 0.21721 0.28672 0.0
C3866 C 0.85639 0.19817 0.30042 0.0
C3867 C 0.84709 0.17404 0.28544 0.0
C3868 C 0.82762 0.17207 0.27084 0.0
C3869 C 0.81793 0.1934 0.27154 0.0
C3870 C 0.87708 0.20183 0.31626 0.0
C3871 C 0.81668 0.14712 0.25471 0.0
H3872 H 0.89131 0.11725 0.25903 0.0
H3873 H 0.85833 0.10341 0.31856 0.0
H3874 H 0.86236 0.16026 0.23931 0.0
H3875 H 0.88449 0.1783 0.26023 0.0
H3876 H 0.88707 0.15049 0.23887 0.0
H3877 H 0.83512 0.12778 0.33344 0.0
H3878 H 0.84387 0.16073 0.33326 0.0
H3879 H 0.82243 0.14242 0.31141 0.0
H3880 H 0.85359 0.23718 0.31275 0.0
H3881 H 0.80304 0.19122 0.26037 0.0
H3882 H 0.88871 0.1954 0.30496 0.0
H3883 H 0.87558 0.19011 0.33037 0.0
H3884 H 0.88305 0.22188 0.32564 0.0
H3885 H 0.82709 0.13978 0.2421 0.0
H3886 H 0.80213 0.14865 0.24366 0.0
H3887 H 0.81281 0.133 0.26622 0.0
C3888 C 0.75247 0.19128 0.05657 0.0
C3889 C 0.76552 0.17751 0.04422 0.0
C3890 C 0.73987 0.18068 0.07207 0.0
C3891 C 0.74011 0.15555 0.07463 0.0
C3892 C 0.75605 0.14366 0.06594 0.0
C3893 C 0.76863 0.15478 0.05053 0.0
C3894 C 0.72409 0.19481 0.08249 0.0
C3895 C 0.75792 0.11774 0.07006 0.0
C3896 C 0.69517 0.12844 0.10535 0.0
C3897 C 0.67973 0.11857 0.08491 0.0
C3898 C 0.71558 0.13887 0.10247 0.0
C3899 C 0.72046 0.13989 0.07864 0.0
C3900 C 0.70522 0.12845 0.05795 0.0
C3901 C 0.68519 0.11776 0.06137 0.0
C3902 C 0.73138 0.14968 0.1251 0.0
C3903 C 0.70963 0.12865 0.03205 0.0
H3904 H 0.75051 0.20921 0.05208 0.0
H3905 H 0.779 0.14429 0.04126 0.0
H3906 H 0.70855 0.18672 0.07154 0.0
H3907 H 0.72308 0.19282 0.10167 0.0
H3908 H 0.728 0.21526 0.08213 0.0
H3909 H 0.77386 0.1143 0.06854 0.0
H3910 H 0.75399 0.11537 0.08837 0.0
H3911 H 0.74689 0.10322 0.05598 0.0
H3912 H 0.69118 0.12892 0.12366 0.0
H3913 H 0.67357 0.10929 0.04548 0.0
H3914 H 0.72894 0.16871 0.13346 0.0
H3915 H 0.74758 0.15136 0.12103 0.0
H3916 H 0.72925 0.1377 0.13895 0.0
H3917 H 0.71366 0.14844 0.02957 0.0
H3918 H 0.69615 0.11851 0.01806 0.0
H3919 H 0.72308 0.11962 0.0285 0.0
C3920 C 0.21459 0.44706 0.29318 0.0
C3921 C 0.19839 0.4481 0.30749 0.0
C3922 C 0.22542 0.42656 0.29096 0.0
C3923 C 0.22005 0.40623 0.30321 0.0
C3924 C 0.20334 0.40704 0.31716 0.0
C3925 C 0.19302 0.42783 0.31929 0.0
C3926 C 0.24305 0.42701 0.27596 0.0
C3927 C 0.19667 0.38622 0.33058 0.0
C3928 C 0.2365 0.34141 0.28437 0.0
C3929 C 0.25448 0.34347 0.3012 0.0
C3930 C 0.22561 0.36166 0.28437 0.0
C3931 C 0.23217 0.38464 0.30219 0.0
C3932 C 0.25009 0.38656 0.31953 0.0
C3933 C 0.26112 0.36639 0.31854 0.0
C3934 C 0.20708 0.35849 0.26505 0.0
C3935 C 0.25754 0.40996 0.33948 0.0
H3936 H 0.21934 0.46273 0.28441 0.0
H3937 H 0.18082 0.42847 0.33074 0.0
H3938 H 0.25786 0.42869 0.28808 0.0
H3939 H 0.24069 0.40901 0.26226 0.0
H3940 H 0.24458 0.443 0.26625 0.0
H3941 H 0.1828 0.38881 0.33963 0.0
H3942 H 0.19303 0.36758 0.31771 0.0
H3943 H 0.20958 0.38569 0.34476 0.0
H3944 H 0.23117 0.32407 0.27069 0.0
H3945 H 0.27483 0.36842 0.33179 0.0
H3946 H 0.20933 0.37407 0.25489 0.0
H3947 H 0.19292 0.3596 0.27385 0.0
H3948 H 0.20443 0.34016 0.25174 0.0
H3949 H 0.26157 0.42674 0.33124 0.0
H3950 H 0.27135 0.40854 0.35194 0.0
H3951 H 0.24492 0.41323 0.35052 0.0
C3952 C 0.25078 0.42617 0.07107 0.0
C3953 C 0.26655 0.43791 0.05961 0.0
C3954 C 0.23093 0.43249 0.06942 0.0
C3955 C 0.22672 0.4511 0.05612 0.0
C3956 C 0.24246 0.46263 0.04415 0.0
C3957 C 0.26207 0.45588 0.04599 0.0
C3958 C 0.21455 0.41953 0.08222 0.0
C3959 C 0.23871 0.4825 0.02971 0.0
C3960 C 0.17157 0.45734 0.03358 0.0
C3961 C 0.16892 0.47838 0.0506 0.0
C3962 C 0.18993 0.44764 0.03564 0.0
C3963 C 0.20617 0.45923 0.05519 0.0
C3964 C 0.20329 0.47988 0.07292 0.0
C3965 C 0.18476 0.48916 0.07043 0.0
C3966 C 0.1922 0.42547 0.01643 0.0
C3967 C 0.22016 0.49287 0.09402 0.0
H3968 H 0.254 0.4122 0.08156 0.0
H3969 H 0.27403 0.46507 0.03698 0.0
H3970 H 0.2103 0.43365 0.09668 0.0
H3971 H 0.20025 0.41082 0.06902 0.0
H3972 H 0.21989 0.40462 0.09081 0.0
H3973 H 0.25238 0.48928 0.02103 0.0
H3974 H 0.22516 0.47479 0.01515 0.0
H3975 H 0.235 0.49893 0.04196 0.0
H3976 H 0.15934 0.44857 0.0184 0.0
H3977 H 0.18305 0.50556 0.08356 0.0
H3978 H 0.19705 0.4105 0.02525 0.0
H3979 H 0.20452 0.43166 1.00561 0.0
H3980 H 0.17754 0.4172 1.00364 0.0
H3981 H 0.22521 0.47882 0.10404 0.0
H3982 H 0.21502 0.50749 0.10717 0.0
H3983 H 0.23391 0.50205 0.08688 0.0
C3984 C 0.87593 0.96407 0.31466 0.0
C3985 C 0.87904 0.97406 0.29354 0.0
C3986 C 0.86534 0.939 0.31346 0.0
C3987 C 0.85697 0.92273 0.29049 0.0
C3988 C 0.86047 0.93233 0.26895 0.0
C3989 C 0.87157 0.95759 0.27068 0.0
C3990 C 0.86251 0.9302 0.33709 0.0
C3991 C 0.85187 0.91614 0.24396 0.0
C3992 C 0.83677 0.85137 0.29081 0.0
C3993 C 0.81544 0.85039 0.29192 0.0
C3994 C 0.85037 0.87431 0.28948 0.0
C3995 C 0.84271 0.89713 0.28948 0.0
C3996 C 0.82119 0.89594 0.29041 0.0
C3997 C 0.80807 0.87296 0.29149 0.0
C3998 C 0.87305 0.87421 0.28842 0.0
C3999 C 0.81191 0.91927 0.29082 0.0
H4000 H 0.88179 0.97608 0.33256 0.0
H4001 H 0.87374 0.96467 0.25414 0.0
H4002 H 0.84583 0.92723 0.33932 0.0
H4003 H 0.86744 0.91182 0.3366 0.0
H4004 H 0.8715 0.94404 0.35338 0.0
H4005 H 0.85737 0.92509 0.22898 0.0
H4006 H 0.85637 0.89741 0.24232 0.0
H4007 H 0.83464 0.91277 0.24152 0.0
H4008 H 0.84285 0.8343 0.29101 0.0
H4009 H 0.79174 0.87286 0.29232 0.0
H4010 H 0.88245 0.88591 0.3056 0.0
H4011 H 0.87816 0.88276 0.27306 0.0
H4012 H 0.87636 0.85481 0.28606 0.0
H4013 H 0.8189 0.93364 0.30765 0.0
H4014 H 0.79479 0.91517 0.2904 0.0
H4015 H 0.8155 0.92777 0.27489 0.0
C4016 C 0.71708 0.08282 0.80454 0.0
C4017 C 0.6999 0.08162 0.81736 0.0
C4018 C 0.72802 0.10619 0.80083 0.0
C4019 C 0.72174 0.12922 0.81007 0.0
C4020 C 0.70421 0.12794 0.82282 0.0
C4021 C 0.69366 0.10434 0.82637 0.0
C4022 C 0.74661 0.10628 0.78737 0.0
C4023 C 0.69666 0.15161 0.83294 0.0
C4024 C 0.76031 0.19336 0.82304 0.0
C4025 C 0.75563 0.20321 0.8021 0.0
C4026 C 0.74991 0.16926 0.8255 0.0
C4027 C 0.7337 0.1546 0.80702 0.0
C4028 C 0.72878 0.16459 0.78591 0.0
C4029 C 0.73997 0.18839 0.78352 0.0
C4030 C 0.75635 0.15944 0.848 0.0
C4031 C 0.71135 0.15031 0.76597 0.0
H4032 H 0.72214 0.06544 0.79765 0.0
H4033 H 0.68051 0.10367 0.83644 0.0
H4034 H 0.7443 0.11495 0.77116 0.0
H4035 H 0.76067 0.11798 0.7995 0.0
H4036 H 0.74951 0.08694 0.78114 0.0
H4037 H 0.68232 0.14749 0.8414 0.0
H4038 H 0.7089 0.16444 0.84699 0.0
H4039 H 0.69348 0.16191 0.81811 0.0
H4040 H 0.77245 0.2044 0.83747 0.0
H4041 H 0.73604 0.19574 0.76733 0.0
H4042 H 0.76032 0.14057 0.84251 0.0
H4043 H 0.74325 0.15707 0.85873 0.0
H4044 H 0.76995 0.17231 0.86004 0.0
H4045 H 0.71453 0.1315 0.75819 0.0
H4046 H 0.70915 0.16061 0.75088 0.0
H4047 H 0.69661 0.14702 0.77379 0.0
loop_
_geom_bond_atom_site_label_1
_geom_bond_atom_site_label_2
_geom_bond_distance
_geom_bond_site_symmetry_2
_ccdc_geom_bond_type
Mg0 O1 2.028 . S
Mg0 O7 1.986 . S
Mg0 O9 2.114 . S
Mg0 O10 2.251 . S
Mg0 O13 2.010 . S
O1 Mg0 2.028 . S
O1 C4 1.250 . S
O2 Mg3 2.028 . S
O2 C4 1.248 . S
Mg3 O2 2.028 . S
Mg3 O8 2.032 . S
Mg3 O10 2.079 . S
C4 O1 1.250 . S
C4 O2 1.248 . S
C5 O6 1.264 . S
C5 O13 1.249 . S
O6 C5 1.264 . S
O7 Mg0 1.986 . S
O7 C11 1.246 . S
O8 Mg3 2.032 . S
O8 C11 1.259 . S
O9 Mg0 2.114 . S
O9 C12 1.252 . S
O10 Mg0 2.251 . S
O10 Mg3 2.079 . S
O10 C12 1.273 . S
C11 O7 1.246 . S
C11 O8 1.259 . S
C12 O9 1.252 . S
C12 O10 1.273 . S
O13 Mg0 2.010 . S
O13 C5 1.249 . S
Mg14 O15 2.028 . S
Mg14 O21 1.986 . S
Mg14 O23 2.114 1_455 S
Mg14 O24 2.251 1_455 S
Mg14 O27 2.010 . S
O15 Mg14 2.028 . S
O15 C18 1.260 . S
O16 Mg17 2.028 . S
O16 C18 1.229 1_655 S
Mg17 O16 2.028 . S
Mg17 O22 2.032 . S
Mg17 O24 2.079 . S
C18 O15 1.260 . S
C18 O16 1.229 1_455 S
C19 O20 1.264 . S
C19 O27 1.249 . S
O20 C19 1.264 . S
O21 Mg14 1.986 . S
O21 C25 1.246 . S
O22 Mg17 2.032 . S
O22 C25 1.259 1_655 S
O23 Mg14 2.114 1_655 S
O23 C26 1.252 . S
O24 Mg14 2.251 1_655 S
O24 Mg17 2.079 . S
O24 C26 1.273 . S
C25 O21 1.246 . S
C25 O22 1.259 1_455 S
C26 O23 1.252 . S
C26 O24 1.273 . S
O27 Mg14 2.010 . S
O27 C19 1.249 . S
Mg28 O29 2.028 . S
Mg28 O35 1.986 . S
Mg28 O37 2.114 . S
Mg28 O38 2.251 . S
Mg28 O41 2.010 . S
O29 Mg28 2.028 . S
O29 C32 1.250 . S
O30 Mg31 2.028 . S
O30 C32 1.248 . S
Mg31 O30 2.028 . S
Mg31 O36 2.032 . S
Mg31 O38 2.079 . S
C32 O29 1.250 . S
C32 O30 1.248 . S
C33 O34 1.264 . S
C33 O41 1.249 . S
O34 C33 1.264 . S
O35 Mg28 1.986 . S
O35 C39 1.246 . S
O36 Mg31 2.032 . S
O36 C39 1.259 . S
O37 Mg28 2.114 . S
O37 C40 1.252 . S
O38 Mg28 2.251 . S
O38 Mg31 2.079 . S
O38 C40 1.273 . S
C39 O35 1.246 . S
C39 O36 1.259 . S
C40 O37 1.252 . S
C40 O38 1.273 . S
O41 Mg28 2.010 . S
O41 C33 1.249 . S
Mg42 O43 2.028 . S
Mg42 O49 1.986 . S
Mg42 O51 2.114 . S
Mg42 O52 2.251 . S
Mg42 O55 2.010 . S
O43 Mg42 2.028 . S
O43 C46 1.250 . S
O44 Mg45 2.028 . S
O44 C46 1.248 . S
Mg45 O44 2.028 . S
Mg45 O50 2.032 . S
Mg45 O52 2.079 . S
C46 O43 1.250 . S
C46 O44 1.248 . S
C47 O48 1.264 . S
C47 O55 1.249 . S
O48 C47 1.264 . S
O49 Mg42 1.986 . S
O49 C53 1.246 . S
O50 Mg45 2.032 . S
O50 C53 1.259 . S
O51 Mg42 2.114 . S
O51 C54 1.252 . S
O52 Mg42 2.251 . S
O52 Mg45 2.079 . S
O52 C54 1.273 . S
C53 O49 1.246 . S
C53 O50 1.259 . S
C54 O51 1.252 . S
C54 O52 1.273 . S
O55 Mg42 2.010 . S
O55 C47 1.249 . S
Mg56 O57 2.028 . S
Mg56 O63 1.986 . S
Mg56 O65 2.114 . S
Mg56 O66 2.251 . S
Mg56 O69 2.010 . S
O57 Mg56 2.028 . S
O57 C60 1.250 . S
O58 Mg59 2.028 . S
O58 C60 1.248 . S
Mg59 O58 2.028 . S
Mg59 O64 2.032 . S
Mg59 O66 2.079 . S
C60 O57 1.250 . S
C60 O58 1.248 . S
C61 O62 1.264 . S
C61 O69 1.249 . S
O62 C61 1.264 . S
O63 Mg56 1.986 . S
O63 C67 1.246 . S
O64 Mg59 2.032 . S
O64 C67 1.259 . S
O65 Mg56 2.114 . S
O65 C68 1.252 . S
O66 Mg56 2.251 . S
O66 Mg59 2.079 . S
O66 C68 1.273 . S
C67 O63 1.246 . S
C67 O64 1.259 . S
C68 O65 1.252 . S
C68 O66 1.273 . S
O69 Mg56 2.010 . S
O69 C61 1.249 . S
Mg70 O71 2.028 . S
Mg70 O77 1.986 . S
Mg70 O79 2.114 . S
Mg70 O80 2.251 . S
Mg70 O83 2.010 . S
O71 Mg70 2.028 . S
O71 C74 1.250 . S
O72 Mg73 2.028 . S
O72 C74 1.248 . S
Mg73 O72 2.028 . S
Mg73 O78 2.032 . S
Mg73 O80 2.079 . S
C74 O71 1.250 . S
C74 O72 1.248 . S
C75 O76 1.264 . S
C75 O83 1.249 . S
O76 C75 1.264 . S
O77 Mg70 1.986 . S
O77 C81 1.246 . S
O78 Mg73 2.032 . S
O78 C81 1.259 . S
O79 Mg70 2.114 . S
O79 C82 1.252 . S
O80 Mg70 2.251 . S
O80 Mg73 2.079 . S
O80 C82 1.273 . S
C81 O77 1.246 . S
C81 O78 1.259 . S
C82 O79 1.252 . S
C82 O80 1.273 . S
O83 Mg70 2.010 . S
O83 C75 1.249 . S
Mg84 O85 2.028 . S
Mg84 O91 1.986 . S
Mg84 O93 2.114 . S
Mg84 O94 2.251 . S
Mg84 O97 2.010 . S
O85 Mg84 2.028 . S
O85 C88 1.250 . S
O86 Mg87 2.028 . S
O86 C88 1.248 . S
Mg87 O86 2.028 . S
Mg87 O92 2.032 . S
Mg87 O94 2.079 . S
C88 O85 1.250 . S
C88 O86 1.248 . S
C89 O90 1.264 . S
C89 O97 1.249 . S
O90 C89 1.264 . S
O91 Mg84 1.986 . S
O91 C95 1.246 . S
O92 Mg87 2.032 . S
O92 C95 1.259 . S
O93 Mg84 2.114 . S
O93 C96 1.252 . S
O94 Mg84 2.251 . S
O94 Mg87 2.079 . S
O94 C96 1.273 . S
C95 O91 1.246 . S
C95 O92 1.259 . S
C96 O93 1.252 . S
C96 O94 1.273 . S
O97 Mg84 2.010 . S
O97 C89 1.249 . S
Mg98 O99 2.025 1_655 S
Mg98 O105 1.975 1_655 S
Mg98 O107 2.143 . S
Mg98 O108 2.304 . S
Mg98 O111 1.963 1_655 S
O99 Mg98 2.025 1_455 S
O99 C102 1.281 . S
O100 Mg101 2.028 . S
O100 C102 1.204 1_655 S
Mg101 O100 2.028 . S
Mg101 O106 2.032 . S
Mg101 O108 2.079 . S
C102 O99 1.281 . S
C102 O100 1.204 1_455 S
C103 O104 1.264 . S
C103 O111 1.249 . S
O104 C103 1.264 . S
O105 Mg98 1.975 1_455 S
O105 C109 1.246 1_455 S
O106 Mg101 2.032 . S
O106 C109 1.259 . S
O107 Mg98 2.143 . S
O107 C110 1.252 . S
O108 Mg98 2.304 . S
O108 Mg101 2.079 . S
O108 C110 1.273 . S
C109 O105 1.246 1_655 S
C109 O106 1.259 . S
C110 O107 1.252 . S
C110 O108 1.273 . S
O111 Mg98 1.963 1_455 S
O111 C103 1.249 . S
Mg112 O113 2.028 . S
Mg112 O119 1.986 . S
Mg112 O121 2.114 . S
Mg112 O122 2.251 . S
Mg112 O125 2.010 . S
O113 Mg112 2.028 . S
O113 C116 1.250 1_545 S
O114 Mg115 1.997 1_565 S
O114 C116 1.259 . S
Mg115 O114 1.997 1_545 S
Mg115 O120 2.032 . S
Mg115 O122 2.079 . S
C116 O113 1.250 1_565 S
C116 O114 1.259 . S
C117 O118 1.264 . S
C117 O125 1.249 . S
O118 C117 1.264 . S
O119 Mg112 1.986 . S
O119 C123 1.246 . S
O120 Mg115 2.032 . S
O120 C123 1.259 . S
O121 Mg112 2.114 . S
O121 C124 1.252 . S
O122 Mg112 2.251 . S
O122 Mg115 2.079 . S
O122 C124 1.273 . S
C123 O119 1.246 . S
C123 O120 1.259 . S
C124 O121 1.252 . S
C124 O122 1.273 . S
O125 Mg112 2.010 . S
O125 C117 1.249 . S
Mg126 O127 2.028 . S
Mg126 O133 1.986 . S
Mg126 O135 2.114 . S
Mg126 O136 2.251 . S
Mg126 O139 2.010 . S
O127 Mg126 2.028 . S
O127 C130 1.250 . S
O128 Mg129 2.028 . S
O128 C130 1.248 . S
Mg129 O128 2.028 . S
Mg129 O134 2.032 . S
Mg129 O136 2.079 . S
C130 O127 1.250 . S
C130 O128 1.248 . S
C131 O132 1.264 . S
C131 O139 1.249 . S
O132 C131 1.264 . S
O133 Mg126 1.986 . S
O133 C137 1.246 . S
O134 Mg129 2.032 . S
O134 C137 1.259 . S
O135 Mg126 2.114 . S
O135 C138 1.252 . S
O136 Mg126 2.251 . S
O136 Mg129 2.079 . S
O136 C138 1.273 . S
C137 O133 1.246 . S
C137 O134 1.259 . S
C138 O135 1.252 . S
C138 O136 1.273 . S
O139 Mg126 2.010 . S
O139 C131 1.249 . S
Mg140 O141 2.028 1_565 S
Mg140 O147 1.986 . S
Mg140 O149 2.114 1_565 S
Mg140 O150 2.251 . S
Mg140 O153 2.010 . S
O141 Mg140 2.028 1_545 S
O141 C144 1.250 . S
O142 Mg143 2.028 . S
O142 C144 1.248 . S
Mg143 O142 2.028 . S
Mg143 O148 2.032 1_545 S
Mg143 O150 2.079 1_545 S
C144 O141 1.250 . S
C144 O142 1.248 . S
C145 O146 1.264 . S
C145 O153 1.249 . S
O146 C145 1.264 . S
O147 Mg140 1.986 . S
O147 C151 1.246 . S
O148 Mg143 2.032 1_565 S
O148 C151 1.259 . S
O149 Mg140 2.114 1_545 S
O149 C152 1.252 . S
O150 Mg140 2.251 . S
O150 Mg143 2.079 1_565 S
O150 C152 1.273 1_565 S
C151 O147 1.246 . S
C151 O148 1.259 . S
C152 O149 1.252 . S
C152 O150 1.273 1_545 S
O153 Mg140 2.010 . S
O153 C145 1.249 . S
Mg154 O155 2.028 1_554 S
Mg154 O161 1.986 . S
Mg154 O163 2.114 1_554 S
Mg154 O164 2.251 . S
Mg154 O167 2.010 . S
O155 Mg154 2.028 1_556 S
O155 C158 1.250 . S
O156 Mg157 2.028 1_556 S
O156 C158 1.248 . S
Mg157 O156 2.028 1_554 S
Mg157 O162 2.032 . S
Mg157 O164 2.079 . S
C158 O155 1.250 . S
C158 O156 1.248 . S
C159 O160 1.264 . S
C159 O167 1.249 . S
O160 C159 1.264 . S
O161 Mg154 1.986 . S
O161 C165 1.246 . S
O162 Mg157 2.032 . S
O162 C165 1.259 . S
O163 Mg154 2.114 1_556 S
O163 C166 1.252 1_556 S
O164 Mg154 2.251 . S
O164 Mg157 2.079 . S
O164 C166 1.273 . S
C165 O161 1.246 . S
C165 O162 1.259 . S
C166 O163 1.252 1_554 S
C166 O164 1.273 . S
O167 Mg154 2.010 . S
O167 C159 1.249 . S
Mg168 O169 2.028 . S
Mg168 O175 1.986 . S
Mg168 O177 2.114 . S
Mg168 O178 2.251 . S
Mg168 O181 2.010 . S
O169 Mg168 2.028 . S
O169 C172 1.250 . S
O170 Mg171 2.028 . S
O170 C172 1.248 . S
Mg171 O170 2.028 . S
Mg171 O176 2.032 . S
Mg171 O178 2.079 . S
C172 O169 1.250 . S
C172 O170 1.248 . S
C173 O174 1.264 . S
C173 O181 1.249 . S
O174 C173 1.264 . S
O175 Mg168 1.986 . S
O175 C179 1.246 . S
O176 Mg171 2.032 . S
O176 C179 1.259 . S
O177 Mg168 2.114 . S
O177 C180 1.252 . S
O178 Mg168 2.251 . S
O178 Mg171 2.079 . S
O178 C180 1.273 . S
C179 O175 1.246 . S
C179 O176 1.259 . S
C180 O177 1.252 . S
C180 O178 1.273 . S
O181 Mg168 2.010 . S
O181 C173 1.249 . S
Mg182 O183 2.028 . S
Mg182 O189 1.986 . S
Mg182 O191 2.114 . S
Mg182 O192 2.251 . S
Mg182 O195 2.010 . S
O183 Mg182 2.028 . S
O183 C186 1.250 . S
O184 Mg185 2.028 . S
O184 C186 1.248 . S
Mg185 O184 2.028 . S
Mg185 O190 2.032 . S
Mg185 O192 2.079 . S
C186 O183 1.250 . S
C186 O184 1.248 . S
C187 O188 1.264 . S
C187 O195 1.249 . S
O188 C187 1.264 . S
O189 Mg182 1.986 . S
O189 C193 1.246 . S
O190 Mg185 2.032 . S
O190 C193 1.259 . S
O191 Mg182 2.114 . S
O191 C194 1.252 . S
O192 Mg182 2.251 . S
O192 Mg185 2.079 . S
O192 C194 1.273 . S
C193 O189 1.246 . S
C193 O190 1.259 . S
C194 O191 1.252 . S
C194 O192 1.273 . S
O195 Mg182 2.010 . S
O195 C187 1.249 . S
Mg196 O197 2.028 . S
Mg196 O203 1.986 . S
Mg196 O205 2.114 . S
Mg196 O206 2.251 . S
Mg196 O209 2.010 . S
O197 Mg196 2.028 . S
O197 C200 1.250 . S
O198 Mg199 2.028 . S
O198 C200 1.248 . S
Mg199 O198 2.028 . S
Mg199 O204 2.032 . S
Mg199 O206 2.079 . S
C200 O197 1.250 . S
C200 O198 1.248 . S
C201 O202 1.264 . S
C201 O209 1.249 . S
O202 C201 1.264 . S
O203 Mg196 1.986 . S
O203 C207 1.246 . S
O204 Mg199 2.032 . S
O204 C207 1.259 . S
O205 Mg196 2.114 . S
O205 C208 1.252 . S
O206 Mg196 2.251 . S
O206 Mg199 2.079 . S
O206 C208 1.273 . S
C207 O203 1.246 . S
C207 O204 1.259 . S
C208 O205 1.252 . S
C208 O206 1.273 . S
O209 Mg196 2.010 . S
O209 C201 1.249 . S
Mg210 O211 2.028 . S
Mg210 O217 1.986 . S
Mg210 O219 2.114 . S
Mg210 O220 2.251 . S
Mg210 O223 2.010 . S
O211 Mg210 2.028 . S
O211 C214 1.250 . S
O212 Mg213 2.028 . S
O212 C214 1.248 . S
Mg213 O212 2.028 . S
Mg213 O218 2.032 . S
Mg213 O220 2.079 . S
C214 O211 1.250 . S
C214 O212 1.248 . S
C215 O216 1.264 . S
C215 O223 1.249 . S
O216 C215 1.264 . S
O217 Mg210 1.986 . S
O217 C221 1.246 . S
O218 Mg213 2.032 . S
O218 C221 1.259 . S
O219 Mg210 2.114 . S
O219 C222 1.252 . S
O220 Mg210 2.251 . S
O220 Mg213 2.079 . S
O220 C222 1.273 . S
C221 O217 1.246 . S
C221 O218 1.259 . S
C222 O219 1.252 . S
C222 O220 1.273 . S
O223 Mg210 2.010 . S
O223 C215 1.249 . S
Mg224 O225 2.028 . S
Mg224 O231 1.986 . S
Mg224 O233 2.114 . S
Mg224 O234 2.251 . S
Mg224 O237 2.010 . S
O225 Mg224 2.028 . S
O225 C228 1.258 . S
O226 Mg227 2.028 . S
O226 C228 1.251 . S
Mg227 O226 2.028 . S
Mg227 O232 2.032 . S
Mg227 O234 2.079 . S
C228 O225 1.258 . S
C228 O226 1.251 . S
C229 O230 1.264 . S
C229 O237 1.249 . S
O230 C229 1.264 . S
O231 Mg224 1.986 . S
O231 C235 1.246 . S
O232 Mg227 2.032 . S
O232 C235 1.259 . S
O233 Mg224 2.114 . S
O233 C236 1.252 . S
O234 Mg224 2.251 . S
O234 Mg227 2.079 . S
O234 C236 1.273 . S
C235 O231 1.246 . S
C235 O232 1.259 . S
C236 O233 1.252 . S
C236 O234 1.273 . S
O237 Mg224 2.010 . S
O237 C229 1.249 . S
Mg238 O239 2.028 . S
Mg238 O245 1.986 . S
Mg238 O247 2.114 . S
Mg238 O248 2.251 . S
Mg238 O251 2.010 . S
O239 Mg238 2.028 . S
O239 C242 1.250 . S
O240 Mg241 2.028 . S
O240 C242 1.248 . S
Mg241 O240 2.028 . S
Mg241 O246 2.032 . S
Mg241 O248 2.079 . S
C242 O239 1.250 . S
C242 O240 1.248 . S
C243 O244 1.264 . S
C243 O251 1.249 . S
O244 C243 1.264 . S
O245 Mg238 1.986 . S
O245 C249 1.246 . S
O246 Mg241 2.032 . S
O246 C249 1.259 . S
O247 Mg238 2.114 . S
O247 C250 1.252 . S
O248 Mg238 2.251 . S
O248 Mg241 2.079 . S
O248 C250 1.273 . S
C249 O245 1.246 . S
C249 O246 1.259 . S
C250 O247 1.252 . S
C250 O248 1.273 . S
O251 Mg238 2.010 . S
O251 C243 1.249 . S
Mg252 O253 2.028 . S
Mg252 O259 1.986 . S
Mg252 O261 2.114 . S
Mg252 O262 2.251 . S
Mg252 O265 2.010 . S
O253 Mg252 2.028 . S
O253 C256 1.250 . S
O254 Mg255 2.028 . S
O254 C256 1.248 . S
Mg255 O254 2.028 . S
Mg255 O260 2.032 . S
Mg255 O262 2.079 . S
C256 O253 1.250 . S
C256 O254 1.248 . S
C257 O258 1.264 . S
C257 O265 1.249 . S
O258 C257 1.264 . S
O259 Mg252 1.986 . S
O259 C263 1.246 . S
O260 Mg255 2.032 . S
O260 C263 1.259 . S
O261 Mg252 2.114 . S
O261 C264 1.252 . S
O262 Mg252 2.251 . S
O262 Mg255 2.079 . S
O262 C264 1.273 . S
C263 O259 1.246 . S
C263 O260 1.259 . S
C264 O261 1.252 . S
C264 O262 1.273 . S
O265 Mg252 2.010 . S
O265 C257 1.249 . S
Mg266 O267 2.028 . S
Mg266 O273 1.986 1_545 S
Mg266 O275 2.114 . S
Mg266 O276 2.251 . S
Mg266 O279 2.010 1_545 S
O267 Mg266 2.028 . S
O267 C270 1.250 . S
O268 Mg269 2.028 . S
O268 C270 1.248 . S
Mg269 O268 2.028 . S
Mg269 O274 2.032 1_545 S
Mg269 O276 2.079 . S
C270 O267 1.250 . S
C270 O268 1.248 . S
C271 O272 1.264 . S
C271 O279 1.249 . S
O272 C271 1.264 . S
O273 Mg266 1.986 1_565 S
O273 C277 1.246 . S
O274 Mg269 2.032 1_565 S
O274 C277 1.259 . S
O275 Mg266 2.114 . S
O275 C278 1.252 . S
O276 Mg266 2.251 . S
O276 Mg269 2.079 . S
O276 C278 1.273 . S
C277 O273 1.246 . S
C277 O274 1.259 . S
C278 O275 1.252 . S
C278 O276 1.273 . S
O279 Mg266 2.010 1_565 S
O279 C271 1.249 . S
Mg280 O281 2.028 . S
Mg280 O287 1.986 . S
Mg280 O289 2.114 . S
Mg280 O290 2.251 . S
Mg280 O293 2.010 . S
O281 Mg280 2.028 . S
O281 C284 1.250 . S
O282 Mg283 2.028 . S
O282 C284 1.248 . S
Mg283 O282 2.028 . S
Mg283 O288 2.032 . S
Mg283 O290 2.079 . S
C284 O281 1.250 . S
C284 O282 1.248 . S
C285 O286 1.263 . S
C285 O293 1.249 . S
O286 C285 1.263 . S
O287 Mg280 1.986 . S
O287 C291 1.246 1_554 S
O288 Mg283 2.032 . S
O288 C291 1.259 1_554 S
O289 Mg280 2.114 . S
O289 C292 1.252 . S
O290 Mg280 2.251 . S
O290 Mg283 2.079 . S
O290 C292 1.273 . S
C291 O287 1.246 1_556 S
C291 O288 1.259 1_556 S
C292 O289 1.252 . S
C292 O290 1.273 . S
O293 Mg280 2.010 . S
O293 C285 1.249 . S
Mg294 O295 2.028 . S
Mg294 O301 1.986 . S
Mg294 O303 2.114 . S
Mg294 O304 2.251 . S
Mg294 O307 2.010 . S
O295 Mg294 2.028 . S
O295 C298 1.250 . S
O296 Mg297 2.028 . S
O296 C298 1.248 . S
Mg297 O296 2.028 . S
Mg297 O302 2.032 . S
Mg297 O304 2.079 . S
C298 O295 1.250 . S
C298 O296 1.248 . S
C299 O300 1.264 . S
C299 O307 1.249 . S
O300 C299 1.264 . S
O301 Mg294 1.986 . S
O301 C305 1.246 . S
O302 Mg297 2.032 . S
O302 C305 1.259 . S
O303 Mg294 2.114 . S
O303 C306 1.252 . S
O304 Mg294 2.251 . S
O304 Mg297 2.079 . S
O304 C306 1.273 . S
C305 O301 1.246 . S
C305 O302 1.259 . S
C306 O303 1.252 . S
C306 O304 1.273 . S
O307 Mg294 2.010 . S
O307 C299 1.249 . S
Mg308 O309 2.028 . S
Mg308 O315 1.986 . S
Mg308 O317 2.114 . S
Mg308 O318 2.251 . S
Mg308 O321 2.010 . S
O309 Mg308 2.028 . S
O309 C312 1.250 . S
O310 Mg311 2.028 . S
O310 C312 1.248 . S
Mg311 O310 2.028 . S
Mg311 O316 2.032 . S
Mg311 O318 2.079 . S
C312 O309 1.250 . S
C312 O310 1.248 . S
C313 O314 1.264 . S
C313 O321 1.249 . S
O314 C313 1.264 . S
O315 Mg308 1.986 . S
O315 C319 1.246 . S
O316 Mg311 2.032 . S
O316 C319 1.259 . S
O317 Mg308 2.114 . S
O317 C320 1.252 . S
O318 Mg308 2.251 . S
O318 Mg311 2.079 . S
O318 C320 1.273 . S
C319 O315 1.246 . S
C319 O316 1.259 . S
C320 O317 1.252 . S
C320 O318 1.273 . S
O321 Mg308 2.010 . S
O321 C313 1.249 . S
Mg322 O323 2.028 . S
Mg322 O329 1.986 . S
Mg322 O331 2.114 . S
Mg322 O332 2.251 . S
Mg322 O335 2.010 . S
O323 Mg322 2.028 . S
O323 C326 1.250 . S
O324 Mg325 2.028 . S
O324 C326 1.248 . S
Mg325 O324 2.028 . S
Mg325 O330 2.032 . S
Mg325 O332 2.079 . S
C326 O323 1.250 . S
C326 O324 1.248 . S
C327 O328 1.264 . S
C327 O335 1.249 . S
O328 C327 1.264 . S
O329 Mg322 1.986 . S
O329 C333 1.246 . S
O330 Mg325 2.032 . S
O330 C333 1.259 . S
O331 Mg322 2.114 . S
O331 C334 1.252 . S
O332 Mg322 2.251 . S
O332 Mg325 2.079 . S
O332 C334 1.273 . S
C333 O329 1.246 . S
C333 O330 1.259 . S
C334 O331 1.252 . S
C334 O332 1.273 . S
O335 Mg322 2.010 . S
O335 C327 1.249 . S
C336 Eu337 2.808 1_565 S
C336 C338 1.526 . S
C336 O356 1.251 . S
C336 O357 1.242 1_565 S
Eu337 C336 2.808 1_545 S
Eu337 O356 2.473 1_545 S
Eu337 O357 2.480 . S
Eu337 O358 2.430 . S
Eu337 O359 2.670 . S
Eu337 O360 2.394 1_545 S
Eu337 O365 2.355 . S
Eu337 O367 2.374 . S
C338 C336 1.526 . S
C338 C339 1.377 . S
C338 C343 1.377 . S
C339 C338 1.377 . S
C339 C340 1.395 . S
C339 H368 0.931 . S
C340 C339 1.395 . S
C340 C341 1.383 . S
C340 H369 0.931 . S
C341 C340 1.383 . S
C341 C342 1.394 . S
C342 C341 1.394 . S
C342 C343 1.378 . S
C342 H370 0.931 . S
C343 C338 1.377 . S
C343 C342 1.378 . S
C343 H371 0.931 . S
C344 O358 1.259 . S
C344 O359 1.270 . S
C345 O360 1.251 . S
C345 O361 1.251 . S
C346 Eu347 2.835 . S
C346 C348 1.500 . S
C346 O362 1.257 . S
C346 O363 1.260 1_554 S
Eu347 C346 2.835 . S
Eu347 O359 2.355 1_655 S
Eu347 O361 2.374 1_645 S
Eu347 O362 2.473 . S
Eu347 O363 2.480 1_554 S
Eu347 O364 2.430 1_644 S
Eu347 O365 2.670 1_655 S
Eu347 O366 2.394 1_655 S
C348 C346 1.500 . S
C348 C349 1.377 1_554 S
C348 C353 1.377 . S
C349 C348 1.377 1_556 S
C349 C350 1.395 . S
C349 H372 0.931 . S
C350 C349 1.395 . S
C350 C351 1.383 1_556 S
C350 H373 0.931 . S
C351 C350 1.383 1_554 S
C351 C352 1.394 . S
C352 C351 1.394 . S
C352 C353 1.378 . S
C352 H374 0.931 . S
C353 C348 1.377 . S
C353 C352 1.378 . S
C353 H375 0.931 . S
C354 O364 1.259 1_545 S
C354 O365 1.270 1_556 S
C355 O366 1.251 . S
C355 O367 1.251 . S
O356 C336 1.251 . S
O356 Eu337 2.473 1_565 S
O357 C336 1.242 1_545 S
O357 Eu337 2.480 . S
O358 Eu337 2.430 . S
O358 C344 1.259 . S
O359 Eu337 2.670 . S
O359 C344 1.270 . S
O359 Eu347 2.355 1_455 S
O360 Eu337 2.394 1_565 S
O360 C345 1.251 . S
O361 C345 1.251 . S
O361 Eu347 2.374 1_465 S
O362 C346 1.257 . S
O362 Eu347 2.473 . S
O363 C346 1.260 1_556 S
O363 Eu347 2.480 1_556 S
O364 Eu347 2.430 1_466 S
O364 C354 1.259 1_565 S
O365 Eu337 2.355 . S
O365 Eu347 2.670 1_455 S
O365 C354 1.270 1_554 S
O366 Eu347 2.394 1_455 S
O366 C355 1.251 . S
O367 Eu337 2.374 . S
O367 C355 1.251 . S
H368 C339 0.931 . S
H369 C340 0.931 . S
H370 C342 0.931 . S
H371 C343 0.931 . S
H372 C349 0.931 . S
H373 C350 0.931 . S
H374 C352 0.931 . S
H375 C353 0.931 . S
C376 Eu377 2.835 . S
C376 C378 1.500 . S
C376 O396 1.257 . S
C376 O397 1.260 . S
Eu377 C376 2.835 . S
Eu377 O396 2.473 . S
Eu377 O397 2.480 . S
Eu377 O398 2.430 . S
Eu377 O399 2.670 . S
Eu377 O400 2.394 . S
Eu377 O405 2.355 . S
Eu377 O407 2.374 . S
C378 C376 1.500 . S
C378 C379 1.377 . S
C378 C383 1.377 . S
C379 C378 1.377 . S
C379 C380 1.395 . S
C379 H408 0.931 . S
C380 C379 1.395 . S
C380 C381 1.383 . S
C380 H409 0.931 . S
C381 C380 1.383 . S
C381 C382 1.394 . S
C382 C381 1.394 . S
C382 C383 1.378 . S
C382 H410 0.931 . S
C383 C378 1.377 . S
C383 C382 1.378 . S
C383 H411 0.931 . S
C384 O398 1.259 . S
C384 O399 1.270 . S
C385 O400 1.251 . S
C385 O401 1.251 . S
C386 Eu387 2.835 . S
C386 C388 1.500 . S
C386 O402 1.257 . S
C386 O403 1.260 . S
Eu387 C386 2.835 . S
Eu387 O399 2.355 . S
Eu387 O401 2.374 . S
Eu387 O402 2.473 . S
Eu387 O403 2.480 . S
Eu387 O404 2.430 . S
Eu387 O405 2.670 . S
Eu387 O406 2.394 . S
C388 C386 1.500 . S
C388 C389 1.377 . S
C388 C393 1.377 . S
C389 C388 1.377 . S
C389 C390 1.395 . S
C389 H412 0.931 . S
C390 C389 1.395 . S
C390 C391 1.383 . S
C390 H413 0.931 . S
C391 C390 1.383 . S
C391 C392 1.394 . S
C392 C391 1.394 . S
C392 C393 1.378 . S
C392 H414 0.931 . S
C393 C388 1.377 . S
C393 C392 1.378 . S
C393 H415 0.931 . S
C394 O404 1.259 . S
C394 O405 1.270 . S
C395 O406 1.251 . S
C395 O407 1.251 . S
O396 C376 1.257 . S
O396 Eu377 2.473 . S
O397 C376 1.260 . S
O397 Eu377 2.480 . S
O398 Eu377 2.430 . S
O398 C384 1.259 . S
O399 Eu377 2.670 . S
O399 C384 1.270 . S
O399 Eu387 2.355 . S
O400 Eu377 2.394 . S
O400 C385 1.251 . S
O401 C385 1.251 . S
O401 Eu387 2.374 . S
O402 C386 1.257 . S
O402 Eu387 2.473 . S
O403 C386 1.260 . S
O403 Eu387 2.480 . S
O404 Eu387 2.430 . S
O404 C394 1.259 . S
O405 Eu377 2.355 . S
O405 Eu387 2.670 . S
O405 C394 1.270 . S
O406 Eu387 2.394 . S
O406 C395 1.251 . S
O407 Eu377 2.374 . S
O407 C395 1.251 . S
H408 C379 0.931 . S
H409 C380 0.931 . S
H410 C382 0.931 . S
H411 C383 0.931 . S
H412 C389 0.931 . S
H413 C390 0.931 . S
H414 C392 0.931 . S
H415 C393 0.931 . S
C416 Eu417 2.835 . S
C416 C418 1.500 . S
C416 O436 1.257 . S
C416 O437 1.260 . S
Eu417 C416 2.835 . S
Eu417 O436 2.473 . S
Eu417 O437 2.480 . S
Eu417 O438 2.430 . S
Eu417 O439 2.670 . S
Eu417 O440 2.394 . S
Eu417 O445 2.355 . S
Eu417 O447 2.374 1_545 S
C418 C416 1.500 . S
C418 C419 1.377 . S
C418 C423 1.377 . S
C419 C418 1.377 . S
C419 C420 1.395 . S
C419 H448 0.931 . S
C420 C419 1.395 . S
C420 C421 1.383 . S
C420 H449 0.931 . S
C421 C420 1.383 . S
C421 C422 1.394 . S
C422 C421 1.394 . S
C422 C423 1.378 . S
C422 H450 0.931 . S
C423 C418 1.377 . S
C423 C422 1.378 . S
C423 H451 0.931 . S
C424 O438 1.259 . S
C424 O439 1.270 . S
C425 O440 1.251 . S
C425 O441 1.251 . S
C426 Eu427 2.835 1_565 S
C426 C428 1.500 . S
C426 O442 1.257 . S
C426 O443 1.260 1_565 S
Eu427 C426 2.835 1_545 S
Eu427 O439 2.355 . S
Eu427 O441 2.374 . S
Eu427 O442 2.473 1_545 S
Eu427 O443 2.480 . S
Eu427 O444 2.430 . S
Eu427 O445 2.670 . S
Eu427 O446 2.394 1_545 S
C428 C426 1.500 . S
C428 C429 1.377 . S
C428 C433 1.377 . S
C429 C428 1.377 . S
C429 C430 1.395 . S
C429 H452 0.931 . S
C430 C429 1.395 . S
C430 C431 1.383 . S
C430 H453 0.931 . S
C431 C430 1.383 . S
C431 C432 1.394 . S
C432 C431 1.394 . S
C432 C433 1.378 . S
C432 H454 0.931 . S
C433 C428 1.377 . S
C433 C432 1.378 . S
C433 H455 0.931 . S
C434 O444 1.259 . S
C434 O445 1.270 . S
C435 O446 1.251 . S
C435 O447 1.251 . S
O436 C416 1.257 . S
O436 Eu417 2.473 . S
O437 C416 1.260 . S
O437 Eu417 2.480 . S
O438 Eu417 2.430 . S
O438 C424 1.259 . S
O439 Eu417 2.670 . S
O439 C424 1.270 . S
O439 Eu427 2.355 . S
O440 Eu417 2.394 . S
O440 C425 1.251 . S
O441 C425 1.251 . S
O441 Eu427 2.374 . S
O442 C426 1.257 . S
O442 Eu427 2.473 1_565 S
O443 C426 1.260 1_545 S
O443 Eu427 2.480 . S
O444 Eu427 2.430 . S
O444 C434 1.259 . S
O445 Eu417 2.355 . S
O445 Eu427 2.670 . S
O445 C434 1.270 . S
O446 Eu427 2.394 1_565 S
O446 C435 1.251 . S
O447 Eu417 2.374 1_565 S
O447 C435 1.251 . S
H448 C419 0.931 . S
H449 C420 0.931 . S
H450 C422 0.931 . S
H451 C423 0.931 . S
H452 C429 0.931 . S
H453 C430 0.931 . S
H454 C432 0.931 . S
H455 C433 0.931 . S
C456 Eu457 2.835 . S
C456 C458 1.500 . S
C456 O476 1.257 . S
C456 O477 1.260 . S
Eu457 C456 2.835 . S
Eu457 O476 2.473 . S
Eu457 O477 2.480 . S
Eu457 O478 2.430 . S
Eu457 O479 2.670 . S
Eu457 O480 2.394 . S
Eu457 O485 2.355 . S
Eu457 O487 2.374 . S
C458 C456 1.500 . S
C458 C459 1.377 . S
C458 C463 1.377 . S
C459 C458 1.377 . S
C459 C460 1.395 . S
C459 H488 0.931 . S
C460 C459 1.395 . S
C460 C461 1.383 . S
C460 H489 0.931 . S
C461 C460 1.383 . S
C461 C462 1.394 . S
C462 C461 1.394 . S
C462 C463 1.378 . S
C462 H490 0.931 . S
C463 C458 1.377 . S
C463 C462 1.378 . S
C463 H491 0.931 . S
C464 O478 1.259 . S
C464 O479 1.270 . S
C465 O480 1.251 . S
C465 O481 1.251 . S
C466 Eu467 2.835 . S
C466 C468 1.500 . S
C466 O482 1.257 . S
C466 O483 1.260 . S
Eu467 C466 2.835 . S
Eu467 O479 2.355 . S
Eu467 O481 2.374 . S
Eu467 O482 2.473 . S
Eu467 O483 2.480 . S
Eu467 O484 2.430 . S
Eu467 O485 2.670 . S
Eu467 O486 2.394 . S
C468 C466 1.500 . S
C468 C469 1.377 . S
C468 C473 1.377 . S
C469 C468 1.377 . S
C469 C470 1.395 . S
C469 H492 0.931 . S
C470 C469 1.395 . S
C470 C471 1.383 . S
C470 H493 0.931 . S
C471 C470 1.383 . S
C471 C472 1.394 . S
C472 C471 1.394 . S
C472 C473 1.378 . S
C472 H494 0.931 . S
C473 C468 1.377 . S
C473 C472 1.378 . S
C473 H495 0.931 . S
C474 O484 1.259 . S
C474 O485 1.270 . S
C475 O486 1.251 . S
C475 O487 1.251 . S
O476 C456 1.257 . S
O476 Eu457 2.473 . S
O477 C456 1.260 . S
O477 Eu457 2.480 . S
O478 Eu457 2.430 . S
O478 C464 1.259 . S
O479 Eu457 2.670 . S
O479 C464 1.270 . S
O479 Eu467 2.355 . S
O480 Eu457 2.394 . S
O480 C465 1.251 . S
O481 C465 1.251 . S
O481 Eu467 2.374 . S
O482 C466 1.257 . S
O482 Eu467 2.473 . S
O483 C466 1.260 . S
O483 Eu467 2.480 . S
O484 Eu467 2.430 . S
O484 C474 1.259 . S
O485 Eu457 2.355 . S
O485 Eu467 2.670 . S
O485 C474 1.270 . S
O486 Eu467 2.394 . S
O486 C475 1.251 . S
O487 Eu457 2.374 . S
O487 C475 1.251 . S
H488 C459 0.931 . S
H489 C460 0.931 . S
H490 C462 0.931 . S
H491 C463 0.931 . S
H492 C469 0.931 . S
H493 C470 0.931 . S
H494 C472 0.931 . S
H495 C473 0.931 . S
C496 Eu497 2.835 . S
C496 C498 1.500 . S
C496 O516 1.257 . S
C496 O517 1.260 . S
Eu497 C496 2.835 . S
Eu497 O516 2.473 . S
Eu497 O517 2.480 . S
Eu497 O518 2.430 1_565 S
Eu497 O519 2.670 1_565 S
Eu497 O520 2.394 1_565 S
Eu497 O525 2.355 1_565 S
Eu497 O527 2.374 1_565 S
C498 C496 1.500 . S
C498 C499 1.377 . S
C498 C503 1.377 . S
C499 C498 1.377 . S
C499 C500 1.395 . S
C499 H528 0.931 . S
C500 C499 1.395 . S
C500 C501 1.383 . S
C500 H529 0.931 . S
C501 C500 1.383 . S
C501 C502 1.394 . S
C502 C501 1.394 . S
C502 C503 1.378 . S
C502 H530 0.931 . S
C503 C498 1.377 . S
C503 C502 1.378 . S
C503 H531 0.931 . S
C504 O518 1.259 . S
C504 O519 1.270 . S
C505 O520 1.251 . S
C505 O521 1.251 . S
C506 Eu507 2.835 . S
C506 C508 1.500 . S
C506 O522 1.257 . S
C506 O523 1.260 1_455 S
Eu507 C506 2.835 . S
Eu507 O519 2.355 . S
Eu507 O521 2.374 . S
Eu507 O522 2.473 . S
Eu507 O523 2.480 1_455 S
Eu507 O524 2.430 1_455 S
Eu507 O525 2.670 . S
Eu507 O526 2.394 . S
C508 C506 1.500 . S
C508 C509 1.377 1_455 S
C508 C513 1.377 . S
C509 C508 1.377 1_655 S
C509 C510 1.395 . S
C509 H532 0.931 . S
C510 C509 1.395 . S
C510 C511 1.383 1_655 S
C510 H533 0.931 . S
C511 C510 1.383 1_455 S
C511 C512 1.394 . S
C512 C511 1.394 . S
C512 C513 1.378 . S
C512 H534 0.931 . S
C513 C508 1.377 . S
C513 C512 1.378 . S
C513 H535 0.931 . S
C514 O524 1.259 . S
C514 O525 1.270 1_655 S
C515 O526 1.251 . S
C515 O527 1.251 . S
O516 C496 1.257 . S
O516 Eu497 2.473 . S
O517 C496 1.260 . S
O517 Eu497 2.480 . S
O518 Eu497 2.430 1_545 S
O518 C504 1.259 . S
O519 Eu497 2.670 1_545 S
O519 C504 1.270 . S
O519 Eu507 2.355 . S
O520 Eu497 2.394 1_545 S
O520 C505 1.251 . S
O521 C505 1.251 . S
O521 Eu507 2.374 . S
O522 C506 1.257 . S
O522 Eu507 2.473 . S
O523 C506 1.260 1_655 S
O523 Eu507 2.480 1_655 S
O524 Eu507 2.430 1_655 S
O524 C514 1.259 . S
O525 Eu497 2.355 1_545 S
O525 Eu507 2.670 . S
O525 C514 1.270 1_455 S
O526 Eu507 2.394 . S
O526 C515 1.251 . S
O527 Eu497 2.374 1_545 S
O527 C515 1.251 . S
H528 C499 0.931 . S
H529 C500 0.931 . S
H530 C502 0.931 . S
H531 C503 0.931 . S
H532 C509 0.931 . S
H533 C510 0.931 . S
H534 C512 0.931 . S
H535 C513 0.931 . S
C536 Eu537 2.835 . S
C536 C538 1.500 . S
C536 O556 1.257 . S
C536 O557 1.260 . S
Eu537 C536 2.835 . S
Eu537 O556 2.473 . S
Eu537 O557 2.480 . S
Eu537 O558 2.430 . S
Eu537 O559 2.670 . S
Eu537 O560 2.394 . S
Eu537 O565 2.355 . S
Eu537 O567 2.374 . S
C538 C536 1.500 . S
C538 C539 1.377 . S
C538 C543 1.377 . S
C539 C538 1.377 . S
C539 C540 1.395 . S
C539 H568 0.931 . S
C540 C539 1.395 . S
C540 C541 1.383 . S
C540 H569 0.931 . S
C541 C540 1.383 . S
C541 C542 1.394 . S
C542 C541 1.394 . S
C542 C543 1.378 . S
C542 H570 0.931 . S
C543 C538 1.377 . S
C543 C542 1.378 . S
C543 H571 0.931 . S
C544 O558 1.259 . S
C544 O559 1.270 . S
C545 O560 1.251 . S
C545 O561 1.251 . S
C546 Eu547 2.835 . S
C546 C548 1.500 . S
C546 O562 1.257 . S
C546 O563 1.260 . S
Eu547 C546 2.835 . S
Eu547 O559 2.355 . S
Eu547 O561 2.374 . S
Eu547 O562 2.473 . S
Eu547 O563 2.480 . S
Eu547 O564 2.430 . S
Eu547 O565 2.670 . S
Eu547 O566 2.394 . S
C548 C546 1.500 . S
C548 C549 1.377 . S
C548 C553 1.377 . S
C549 C548 1.377 . S
C549 C550 1.395 . S
C549 H572 0.931 . S
C550 C549 1.395 . S
C550 C551 1.383 . S
C550 H573 0.931 . S
C551 C550 1.383 . S
C551 C552 1.394 . S
C552 C551 1.394 . S
C552 C553 1.378 . S
C552 H574 0.931 . S
C553 C548 1.377 . S
C553 C552 1.378 . S
C553 H575 0.931 . S
C554 O564 1.259 . S
C554 O565 1.270 . S
C555 O566 1.251 . S
C555 O567 1.251 . S
O556 C536 1.257 . S
O556 Eu537 2.473 . S
O557 C536 1.260 . S
O557 Eu537 2.480 . S
O558 Eu537 2.430 . S
O558 C544 1.259 . S
O559 Eu537 2.670 . S
O559 C544 1.270 . S
O559 Eu547 2.355 . S
O560 Eu537 2.394 . S
O560 C545 1.251 . S
O561 C545 1.251 . S
O561 Eu547 2.374 . S
O562 C546 1.257 . S
O562 Eu547 2.473 . S
O563 C546 1.260 . S
O563 Eu547 2.480 . S
O564 Eu547 2.430 . S
O564 C554 1.259 . S
O565 Eu537 2.355 . S
O565 Eu547 2.670 . S
O565 C554 1.270 . S
O566 Eu547 2.394 . S
O566 C555 1.251 . S
O567 Eu537 2.374 . S
O567 C555 1.251 . S
H568 C539 0.931 . S
H569 C540 0.931 . S
H570 C542 0.931 . S
H571 C543 0.931 . S
H572 C549 0.931 . S
H573 C550 0.931 . S
H574 C552 0.931 . S
H575 C553 0.931 . S
C576 Eu577 2.835 . S
C576 C578 1.500 . S
C576 O596 1.257 . S
C576 O597 1.260 . S
Eu577 C576 2.835 . S
Eu577 O596 2.473 . S
Eu577 O597 2.480 . S
Eu577 O598 2.430 1_545 S
Eu577 O599 2.670 1_545 S
Eu577 O600 2.394 . S
Eu577 O605 2.355 . S
Eu577 O607 2.374 . S
C578 C576 1.500 . S
C578 C579 1.377 . S
C578 C583 1.377 . S
C579 C578 1.377 . S
C579 C580 1.395 . S
C579 H608 0.931 . S
C580 C579 1.395 . S
C580 C581 1.383 . S
C580 H609 0.931 . S
C581 C580 1.383 . S
C581 C582 1.394 . S
C582 C581 1.394 . S
C582 C583 1.378 . S
C582 H610 0.931 . S
C583 C578 1.377 . S
C583 C582 1.378 . S
C583 H611 0.931 . S
C584 O598 1.259 . S
C584 O599 1.270 . S
C585 O600 1.251 . S
C585 O601 1.251 1_554 S
C586 Eu587 2.835 1_565 S
C586 C588 1.500 . S
C586 O602 1.257 . S
C586 O603 1.260 1_565 S
Eu587 C586 2.835 1_545 S
Eu587 O599 2.355 1_545 S
Eu587 O601 2.374 1_554 S
Eu587 O602 2.473 1_545 S
Eu587 O603 2.480 . S
Eu587 O604 2.430 . S
Eu587 O605 2.670 . S
Eu587 O606 2.394 . S
C588 C586 1.500 . S
C588 C589 1.377 . S
C588 C593 1.377 . S
C589 C588 1.377 . S
C589 C590 1.395 . S
C589 H612 0.931 1_565 S
C590 C589 1.395 . S
C590 C591 1.383 . S
C590 H613 0.931 . S
C591 C590 1.383 . S
C591 C592 1.394 . S
C592 C591 1.394 . S
C592 C593 1.378 . S
C592 H614 0.931 . S
C593 C588 1.377 . S
C593 C592 1.378 . S
C593 H615 0.931 . S
C594 O604 1.259 . S
C594 O605 1.270 . S
C595 O606 1.251 . S
C595 O607 1.251 . S
O596 C576 1.257 . S
O596 Eu577 2.473 . S
O597 C576 1.260 . S
O597 Eu577 2.480 . S
O598 Eu577 2.430 1_565 S
O598 C584 1.259 . S
O599 Eu577 2.670 1_565 S
O599 C584 1.270 . S
O599 Eu587 2.355 1_565 S
O600 Eu577 2.394 . S
O600 C585 1.251 . S
O601 C585 1.251 1_556 S
O601 Eu587 2.374 1_556 S
O602 C586 1.257 . S
O602 Eu587 2.473 1_565 S
O603 C586 1.260 1_545 S
O603 Eu587 2.480 . S
O604 Eu587 2.430 . S
O604 C594 1.259 . S
O605 Eu577 2.355 . S
O605 Eu587 2.670 . S
O605 C594 1.270 . S
O606 Eu587 2.394 . S
O606 C595 1.251 . S
O607 Eu577 2.374 . S
O607 C595 1.251 . S
H608 C579 0.931 . S
H609 C580 0.931 . S
H610 C582 0.931 . S
H611 C583 0.931 . S
H612 C589 0.931 1_545 S
H613 C590 0.931 . S
H614 C592 0.931 . S
H615 C593 0.931 . S
C616 Eu617 2.835 . S
C616 C618 1.500 . S
C616 O636 1.257 . S
C616 O637 1.260 . S
Eu617 C616 2.835 . S
Eu617 O636 2.473 . S
Eu617 O637 2.480 . S
Eu617 O638 2.430 . S
Eu617 O639 2.670 . S
Eu617 O640 2.394 . S
Eu617 O645 2.355 . S
Eu617 O647 2.374 . S
C618 C616 1.500 . S
C618 C619 1.377 . S
C618 C623 1.377 . S
C619 C618 1.377 . S
C619 C620 1.395 . S
C619 H648 0.931 . S
C620 C619 1.395 . S
C620 C621 1.383 . S
C620 H649 0.931 . S
C621 C620 1.383 . S
C621 C622 1.394 . S
C622 C621 1.394 . S
C622 C623 1.378 . S
C622 H650 0.931 . S
C623 C618 1.377 . S
C623 C622 1.378 . S
C623 H651 0.931 . S
C624 O638 1.259 . S
C624 O639 1.270 . S
C625 O640 1.251 . S
C625 O641 1.251 . S
C626 Eu627 2.835 . S
C626 C628 1.500 . S
C626 O642 1.257 . S
C626 O643 1.260 . S
Eu627 C626 2.835 . S
Eu627 O639 2.355 . S
Eu627 O641 2.374 . S
Eu627 O642 2.473 . S
Eu627 O643 2.480 . S
Eu627 O644 2.430 . S
Eu627 O645 2.670 . S
Eu627 O646 2.394 . S
C628 C626 1.500 . S
C628 C629 1.377 . S
C628 C633 1.377 . S
C629 C628 1.377 . S
C629 C630 1.395 . S
C629 H652 0.931 . S
C630 C629 1.395 . S
C630 C631 1.383 . S
C630 H653 0.931 . S
C631 C630 1.383 . S
C631 C632 1.394 . S
C632 C631 1.394 . S
C632 C633 1.378 . S
C632 H654 0.931 . S
C633 C628 1.377 . S
C633 C632 1.378 . S
C633 H655 0.931 . S
C634 O644 1.259 . S
C634 O645 1.270 . S
C635 O646 1.251 . S
C635 O647 1.251 . S
O636 C616 1.257 . S
O636 Eu617 2.473 . S
O637 C616 1.260 . S
O637 Eu617 2.480 . S
O638 Eu617 2.430 . S
O638 C624 1.259 . S
O639 Eu617 2.670 . S
O639 C624 1.270 . S
O639 Eu627 2.355 . S
O640 Eu617 2.394 . S
O640 C625 1.251 . S
O641 C625 1.251 . S
O641 Eu627 2.374 . S
O642 C626 1.257 . S
O642 Eu627 2.473 . S
O643 C626 1.260 . S
O643 Eu627 2.480 . S
O644 Eu627 2.430 . S
O644 C634 1.259 . S
O645 Eu617 2.355 . S
O645 Eu627 2.670 . S
O645 C634 1.270 . S
O646 Eu627 2.394 . S
O646 C635 1.251 . S
O647 Eu617 2.374 . S
O647 C635 1.251 . S
H648 C619 0.931 . S
H649 C620 0.931 . S
H650 C622 0.931 . S
H651 C623 0.931 . S
H652 C629 0.931 . S
H653 C630 0.931 . S
H654 C632 0.931 . S
H655 C633 0.931 . S
C656 Eu657 2.835 . S
C656 C658 1.500 . S
C656 O676 1.257 . S
C656 O677 1.260 . S
Eu657 C656 2.835 . S
Eu657 O676 2.473 . S
Eu657 O677 2.480 . S
Eu657 O678 2.430 . S
Eu657 O679 2.670 . S
Eu657 O680 2.394 . S
Eu657 O685 2.355 . S
Eu657 O687 2.374 1_554 S
C658 C656 1.500 . S
C658 C659 1.377 . S
C658 C663 1.377 . S
C659 C658 1.377 . S
C659 C660 1.395 . S
C659 H688 0.931 . S
C660 C659 1.395 . S
C660 C661 1.383 . S
C660 H689 0.931 . S
C661 C660 1.383 . S
C661 C662 1.394 . S
C662 C661 1.394 . S
C662 C663 1.378 . S
C662 H690 0.931 . S
C663 C658 1.377 . S
C663 C662 1.378 . S
C663 H691 0.931 . S
C664 O678 1.259 . S
C664 O679 1.270 . S
C665 O680 1.251 . S
C665 O681 1.251 . S
C666 Eu667 2.835 . S
C666 C668 1.500 . S
C666 O682 1.257 . S
C666 O683 1.260 . S
Eu667 C666 2.835 . S
Eu667 O679 2.355 . S
Eu667 O681 2.374 . S
Eu667 O682 2.473 . S
Eu667 O683 2.480 . S
Eu667 O684 2.430 . S
Eu667 O685 2.670 . S
Eu667 O686 2.394 . S
C668 C666 1.500 . S
C668 C669 1.377 . S
C668 C673 1.377 . S
C669 C668 1.377 . S
C669 C670 1.395 . S
C669 H692 0.931 . S
C670 C669 1.395 . S
C670 C671 1.383 . S
C670 H693 0.931 . S
C671 C670 1.383 . S
C671 C672 1.394 . S
C672 C671 1.394 . S
C672 C673 1.378 . S
C672 H694 0.931 1_554 S
C673 C668 1.377 . S
C673 C672 1.378 . S
C673 H695 0.931 . S
C674 O684 1.259 . S
C674 O685 1.270 . S
C675 O686 1.251 1_556 S
C675 O687 1.251 . S
O676 C656 1.257 . S
O676 Eu657 2.473 . S
O677 C656 1.260 . S
O677 Eu657 2.480 . S
O678 Eu657 2.430 . S
O678 C664 1.259 . S
O679 Eu657 2.670 . S
O679 C664 1.270 . S
O679 Eu667 2.355 . S
O680 Eu657 2.394 . S
O680 C665 1.251 . S
O681 C665 1.251 . S
O681 Eu667 2.374 . S
O682 C666 1.257 . S
O682 Eu667 2.473 . S
O683 C666 1.260 . S
O683 Eu667 2.480 . S
O684 Eu667 2.430 . S
O684 C674 1.259 . S
O685 Eu657 2.355 . S
O685 Eu667 2.670 . S
O685 C674 1.270 . S
O686 Eu667 2.394 . S
O686 C675 1.251 1_554 S
O687 Eu657 2.374 1_556 S
O687 C675 1.251 . S
H688 C659 0.931 . S
H689 C660 0.931 . S
H690 C662 0.931 . S
H691 C663 0.931 . S
H692 C669 0.931 . S
H693 C670 0.931 . S
H694 C672 0.931 1_556 S
H695 C673 0.931 . S
C696 Eu697 2.835 . S
C696 C698 1.500 . S
C696 O716 1.257 . S
C696 O717 1.260 . S
Eu697 C696 2.835 . S
Eu697 O716 2.473 . S
Eu697 O717 2.480 . S
Eu697 O718 2.430 . S
Eu697 O719 2.670 . S
Eu697 O720 2.394 . S
Eu697 O725 2.355 . S
Eu697 O727 2.374 . S
C698 C696 1.500 . S
C698 C699 1.377 . S
C698 C703 1.377 . S
C699 C698 1.377 . S
C699 C700 1.395 . S
C699 H728 0.931 . S
C700 C699 1.395 . S
C700 C701 1.383 . S
C700 H729 0.931 . S
C701 C700 1.383 . S
C701 C702 1.394 . S
C702 C701 1.394 . S
C702 C703 1.378 . S
C702 H730 0.931 . S
C703 C698 1.377 . S
C703 C702 1.378 . S
C703 H731 0.931 . S
C704 O718 1.259 . S
C704 O719 1.270 . S
C705 O720 1.251 . S
C705 O721 1.251 . S
C706 Eu707 2.835 . S
C706 C708 1.500 . S
C706 O722 1.257 . S
C706 O723 1.260 . S
Eu707 C706 2.835 . S
Eu707 O719 2.355 . S
Eu707 O721 2.374 . S
Eu707 O722 2.473 . S
Eu707 O723 2.480 . S
Eu707 O724 2.430 . S
Eu707 O725 2.670 . S
Eu707 O726 2.394 . S
C708 C706 1.500 . S
C708 C709 1.377 . S
C708 C713 1.377 . S
C709 C708 1.377 . S
C709 C710 1.395 . S
C709 H732 0.931 . S
C710 C709 1.395 . S
C710 C711 1.383 . S
C710 H733 0.931 . S
C711 C710 1.383 . S
C711 C712 1.394 . S
C712 C711 1.394 . S
C712 C713 1.378 . S
C712 H734 0.931 . S
C713 C708 1.377 . S
C713 C712 1.378 . S
C713 H735 0.931 . S
C714 O724 1.259 . S
C714 O725 1.270 . S
C715 O726 1.251 . S
C715 O727 1.251 . S
O716 C696 1.257 . S
O716 Eu697 2.473 . S
O717 C696 1.260 . S
O717 Eu697 2.480 . S
O718 Eu697 2.430 . S
O718 C704 1.259 . S
O719 Eu697 2.670 . S
O719 C704 1.270 . S
O719 Eu707 2.355 . S
O720 Eu697 2.394 . S
O720 C705 1.251 . S
O721 C705 1.251 . S
O721 Eu707 2.374 . S
O722 C706 1.257 . S
O722 Eu707 2.473 . S
O723 C706 1.260 . S
O723 Eu707 2.480 . S
O724 Eu707 2.430 . S
O724 C714 1.259 . S
O725 Eu697 2.355 . S
O725 Eu707 2.670 . S
O725 C714 1.270 . S
O726 Eu707 2.394 . S
O726 C715 1.251 . S
O727 Eu697 2.374 . S
O727 C715 1.251 . S
H728 C699 0.931 . S
H729 C700 0.931 . S
H730 C702 0.931 . S
H731 C703 0.931 . S
H732 C709 0.931 . S
H733 C710 0.931 . S
H734 C712 0.931 . S
H735 C713 0.931 . S
C736 Eu737 2.835 . S
C736 C738 1.500 . S
C736 O756 1.257 . S
C736 O757 1.260 . S
Eu737 C736 2.835 . S
Eu737 O756 2.473 . S
Eu737 O757 2.480 . S
Eu737 O758 2.430 . S
Eu737 O759 2.670 . S
Eu737 O760 2.394 . S
Eu737 O765 2.355 . S
Eu737 O767 2.374 . S
C738 C736 1.500 . S
C738 C739 1.377 . S
C738 C743 1.377 . S
C739 C738 1.377 . S
C739 C740 1.395 . S
C739 H768 0.931 . S
C740 C739 1.395 . S
C740 C741 1.383 . S
C740 H769 0.931 . S
C741 C740 1.383 . S
C741 C742 1.394 . S
C742 C741 1.394 . S
C742 C743 1.378 . S
C742 H770 0.931 . S
C743 C738 1.377 . S
C743 C742 1.378 . S
C743 H771 0.931 . S
C744 O758 1.259 . S
C744 O759 1.270 . S
C745 O760 1.251 . S
C745 O761 1.251 . S
C746 Eu747 2.877 . S
C746 C748 1.500 . S
C746 O762 1.257 . S
C746 O763 1.260 . S
Eu747 C746 2.877 . S
Eu747 O759 2.320 1_655 S
Eu747 O761 2.335 1_655 S
Eu747 O762 2.500 . S
Eu747 O763 2.529 . S
Eu747 O764 2.442 1_655 S
Eu747 O765 2.642 1_655 S
Eu747 O766 2.404 . S
C748 C746 1.500 . S
C748 C749 1.377 . S
C748 C753 1.377 . S
C749 C748 1.377 . S
C749 C750 1.395 . S
C749 H772 0.931 . S
C750 C749 1.395 . S
C750 C751 1.383 . S
C750 H773 0.931 . S
C751 C750 1.383 . S
C751 C752 1.394 . S
C752 C751 1.394 . S
C752 C753 1.378 . S
C752 H774 0.931 . S
C753 C748 1.377 . S
C753 C752 1.378 . S
C753 H775 0.931 . S
C754 O764 1.265 . S
C754 O765 1.270 . S
C755 O766 1.251 1_455 S
C755 O767 1.251 . S
O756 C736 1.257 . S
O756 Eu737 2.473 . S
O757 C736 1.260 . S
O757 Eu737 2.480 . S
O758 Eu737 2.430 . S
O758 C744 1.259 . S
O759 Eu737 2.670 . S
O759 C744 1.270 . S
O759 Eu747 2.320 1_455 S
O760 Eu737 2.394 . S
O760 C745 1.251 . S
O761 C745 1.251 . S
O761 Eu747 2.335 1_455 S
O762 C746 1.257 . S
O762 Eu747 2.500 . S
O763 C746 1.260 . S
O763 Eu747 2.529 . S
O764 Eu747 2.442 1_455 S
O764 C754 1.265 . S
O765 Eu737 2.355 . S
O765 Eu747 2.642 1_455 S
O765 C754 1.270 . S
O766 Eu747 2.404 . S
O766 C755 1.251 1_655 S
O767 Eu737 2.374 . S
O767 C755 1.251 . S
H768 C739 0.931 . S
H769 C740 0.931 . S
H770 C742 0.931 . S
H771 C743 0.931 . S
H772 C749 0.931 . S
H773 C750 0.931 . S
H774 C752 0.931 . S
H775 C753 0.931 . S
C776 Eu777 2.835 . S
C776 C778 1.500 . S
C776 O796 1.257 . S
C776 O797 1.260 . S
Eu777 C776 2.835 . S
Eu777 O796 2.473 . S
Eu777 O797 2.480 . S
Eu777 O798 2.430 . S
Eu777 O799 2.670 . S
Eu777 O800 2.394 . S
Eu777 O805 2.355 . S
Eu777 O807 2.374 . S
C778 C776 1.500 . S
C778 C779 1.377 . S
C778 C783 1.377 . S
C779 C778 1.377 . S
C779 C780 1.395 . S
C779 H808 0.931 . S
C780 C779 1.395 . S
C780 C781 1.383 . S
C780 H809 0.931 . S
C781 C780 1.383 . S
C781 C782 1.394 . S
C782 C781 1.394 . S
C782 C783 1.378 . S
C782 H810 0.931 . S
C783 C778 1.377 . S
C783 C782 1.378 . S
C783 H811 0.931 . S
C784 O798 1.259 . S
C784 O799 1.270 . S
C785 O800 1.251 . S
C785 O801 1.251 . S
C786 Eu787 2.835 . S
C786 C788 1.500 . S
C786 O802 1.257 . S
C786 O803 1.260 . S
Eu787 C786 2.835 . S
Eu787 O799 2.355 . S
Eu787 O801 2.374 . S
Eu787 O802 2.473 . S
Eu787 O803 2.480 . S
Eu787 O804 2.430 . S
Eu787 O805 2.670 . S
Eu787 O806 2.394 . S
C788 C786 1.500 . S
C788 C789 1.377 . S
C788 C793 1.377 . S
C789 C788 1.377 . S
C789 C790 1.395 . S
C789 H812 0.931 . S
C790 C789 1.395 . S
C790 C791 1.383 . S
C790 H813 0.931 . S
C791 C790 1.383 . S
C791 C792 1.394 . S
C792 C791 1.394 . S
C792 C793 1.378 . S
C792 H814 0.931 . S
C793 C788 1.377 . S
C793 C792 1.378 . S
C793 H815 0.931 . S
C794 O804 1.259 . S
C794 O805 1.270 . S
C795 O806 1.251 . S
C795 O807 1.251 . S
O796 C776 1.257 . S
O796 Eu777 2.473 . S
O797 C776 1.260 . S
O797 Eu777 2.480 . S
O798 Eu777 2.430 . S
O798 C784 1.259 . S
O799 Eu777 2.670 . S
O799 C784 1.270 . S
O799 Eu787 2.355 . S
O800 Eu777 2.394 . S
O800 C785 1.251 . S
O801 C785 1.251 . S
O801 Eu787 2.374 . S
O802 C786 1.257 . S
O802 Eu787 2.473 . S
O803 C786 1.260 . S
O803 Eu787 2.480 . S
O804 Eu787 2.430 . S
O804 C794 1.259 . S
O805 Eu777 2.355 . S
O805 Eu787 2.670 . S
O805 C794 1.270 . S
O806 Eu787 2.394 . S
O806 C795 1.251 . S
O807 Eu777 2.374 . S
O807 C795 1.251 . S
H808 C779 0.931 . S
H809 C780 0.931 . S
H810 C782 0.931 . S
H811 C783 0.931 . S
H812 C789 0.931 . S
H813 C790 0.931 . S
H814 C792 0.931 . S
H815 C793 0.931 . S
C816 Eu817 2.835 . S
C816 C818 1.500 . S
C816 O836 1.257 . S
C816 O837 1.260 . S
Eu817 C816 2.835 . S
Eu817 O836 2.473 . S
Eu817 O837 2.480 . S
Eu817 O838 2.430 . S
Eu817 O839 2.670 . S
Eu817 O840 2.394 . S
Eu817 O845 2.355 . S
Eu817 O847 2.374 . S
C818 C816 1.500 . S
C818 C819 1.377 . S
C818 C823 1.377 . S
C819 C818 1.377 . S
C819 C820 1.395 . S
C819 H848 0.931 . S
C820 C819 1.395 . S
C820 C821 1.383 . S
C820 H849 0.931 . S
C821 C820 1.383 . S
C821 C822 1.394 . S
C822 C821 1.394 . S
C822 C823 1.378 . S
C822 H850 0.931 . S
C823 C818 1.377 . S
C823 C822 1.378 . S
C823 H851 0.931 . S
C824 O838 1.259 . S
C824 O839 1.270 . S
C825 O840 1.251 . S
C825 O841 1.251 . S
C826 Eu827 2.835 . S
C826 C828 1.500 . S
C826 O842 1.257 . S
C826 O843 1.260 . S
Eu827 C826 2.835 . S
Eu827 O839 2.355 . S
Eu827 O841 2.374 . S
Eu827 O842 2.473 . S
Eu827 O843 2.480 . S
Eu827 O844 2.430 . S
Eu827 O845 2.670 . S
Eu827 O846 2.394 . S
C828 C826 1.500 . S
C828 C829 1.377 . S
C828 C833 1.377 . S
C829 C828 1.377 . S
C829 C830 1.395 . S
C829 H852 0.931 . S
C830 C829 1.395 . S
C830 C831 1.383 . S
C830 H853 0.931 . S
C831 C830 1.383 . S
C831 C832 1.394 . S
C832 C831 1.394 . S
C832 C833 1.378 . S
C832 H854 0.931 . S
C833 C828 1.377 . S
C833 C832 1.378 . S
C833 H855 0.931 . S
C834 O844 1.259 . S
C834 O845 1.270 . S
C835 O846 1.251 . S
C835 O847 1.251 . S
O836 C816 1.257 . S
O836 Eu817 2.473 . S
O837 C816 1.260 . S
O837 Eu817 2.480 . S
O838 Eu817 2.430 . S
O838 C824 1.259 . S
O839 Eu817 2.670 . S
O839 C824 1.270 . S
O839 Eu827 2.355 . S
O840 Eu817 2.394 . S
O840 C825 1.251 . S
O841 C825 1.251 . S
O841 Eu827 2.374 . S
O842 C826 1.257 . S
O842 Eu827 2.473 . S
O843 C826 1.260 . S
O843 Eu827 2.480 . S
O844 Eu827 2.430 . S
O844 C834 1.259 . S
O845 Eu817 2.355 . S
O845 Eu827 2.670 . S
O845 C834 1.270 . S
O846 Eu827 2.394 . S
O846 C835 1.251 . S
O847 Eu817 2.374 . S
O847 C835 1.251 . S
H848 C819 0.931 . S
H849 C820 0.931 . S
H850 C822 0.931 . S
H851 C823 0.931 . S
H852 C829 0.931 . S
H853 C830 0.931 . S
H854 C832 0.931 . S
H855 C833 0.931 . S
C856 Eu857 2.835 . S
C856 C858 1.500 . S
C856 O876 1.257 . S
C856 O877 1.260 . S
Eu857 C856 2.835 . S
Eu857 O876 2.473 . S
Eu857 O877 2.480 . S
Eu857 O878 2.430 . S
Eu857 O879 2.670 . S
Eu857 O880 2.394 . S
Eu857 O885 2.355 . S
Eu857 O887 2.374 . S
C858 C856 1.500 . S
C858 C859 1.377 . S
C858 C863 1.377 . S
C859 C858 1.377 . S
C859 C860 1.395 . S
C859 H888 0.931 . S
C860 C859 1.395 . S
C860 C861 1.383 . S
C860 H889 0.931 . S
C861 C860 1.383 . S
C861 C862 1.394 . S
C862 C861 1.394 . S
C862 C863 1.378 . S
C862 H890 0.931 . S
C863 C858 1.377 . S
C863 C862 1.378 . S
C863 H891 0.931 . S
C864 O878 1.259 . S
C864 O879 1.270 . S
C865 O880 1.251 . S
C865 O881 1.251 . S
C866 Eu867 2.835 . S
C866 C868 1.500 . S
C866 O882 1.257 . S
C866 O883 1.260 . S
Eu867 C866 2.835 . S
Eu867 O879 2.355 . S
Eu867 O881 2.374 . S
Eu867 O882 2.473 . S
Eu867 O883 2.480 . S
Eu867 O884 2.430 . S
Eu867 O885 2.670 . S
Eu867 O886 2.394 . S
C868 C866 1.500 . S
C868 C869 1.377 . S
C868 C873 1.377 . S
C869 C868 1.377 . S
C869 C870 1.395 . S
C869 H892 0.931 . S
C870 C869 1.395 . S
C870 C871 1.383 . S
C870 H893 0.931 . S
C871 C870 1.383 . S
C871 C872 1.394 . S
C872 C871 1.394 . S
C872 C873 1.378 . S
C872 H894 0.931 . S
C873 C868 1.377 . S
C873 C872 1.378 . S
C873 H895 0.931 . S
C874 O884 1.259 . S
C874 O885 1.270 . S
C875 O886 1.251 . S
C875 O887 1.251 . S
O876 C856 1.257 . S
O876 Eu857 2.473 . S
O877 C856 1.260 . S
O877 Eu857 2.480 . S
O878 Eu857 2.430 . S
O878 C864 1.259 . S
O879 Eu857 2.670 . S
O879 C864 1.270 . S
O879 Eu867 2.355 . S
O880 Eu857 2.394 . S
O880 C865 1.251 . S
O881 C865 1.251 . S
O881 Eu867 2.374 . S
O882 C866 1.257 . S
O882 Eu867 2.473 . S
O883 C866 1.260 . S
O883 Eu867 2.480 . S
O884 Eu867 2.430 . S
O884 C874 1.259 . S
O885 Eu857 2.355 . S
O885 Eu867 2.670 . S
O885 C874 1.270 . S
O886 Eu867 2.394 . S
O886 C875 1.251 . S
O887 Eu857 2.374 . S
O887 C875 1.251 . S
H888 C859 0.931 . S
H889 C860 0.931 . S
H890 C862 0.931 . S
H891 C863 0.931 . S
H892 C869 0.931 . S
H893 C870 0.931 . S
H894 C872 0.931 . S
H895 C873 0.931 . S
C896 Eu897 2.835 . S
C896 C898 1.500 . S
C896 O916 1.257 . S
C896 O917 1.260 . S
Eu897 C896 2.835 . S
Eu897 O916 2.473 . S
Eu897 O917 2.480 . S
Eu897 O918 2.430 . S
Eu897 O919 2.670 . S
Eu897 O920 2.394 . S
Eu897 O925 2.355 . S
Eu897 O927 2.374 . S
C898 C896 1.500 . S
C898 C899 1.377 . S
C898 C903 1.377 . S
C899 C898 1.377 . S
C899 C900 1.395 . S
C899 H928 0.931 . S
C900 C899 1.395 . S
C900 C901 1.383 . S
C900 H929 0.931 . S
C901 C900 1.383 . S
C901 C902 1.394 . S
C902 C901 1.394 . S
C902 C903 1.378 . S
C902 H930 0.931 . S
C903 C898 1.377 . S
C903 C902 1.378 . S
C903 H931 0.931 . S
C904 O918 1.259 . S
C904 O919 1.270 . S
C905 O920 1.251 . S
C905 O921 1.251 . S
C906 Eu907 2.835 . S
C906 C908 1.500 . S
C906 O922 1.257 . S
C906 O923 1.260 . S
Eu907 C906 2.835 . S
Eu907 O919 2.355 . S
Eu907 O921 2.374 . S
Eu907 O922 2.473 . S
Eu907 O923 2.480 . S
Eu907 O924 2.430 . S
Eu907 O925 2.670 . S
Eu907 O926 2.394 . S
C908 C906 1.500 . S
C908 C909 1.377 . S
C908 C913 1.377 . S
C909 C908 1.377 . S
C909 C910 1.395 . S
C909 H932 0.931 . S
C910 C909 1.395 . S
C910 C911 1.383 . S
C910 H933 0.931 . S
C911 C910 1.383 . S
C911 C912 1.394 . S
C912 C911 1.394 . S
C912 C913 1.378 . S
C912 H934 0.931 . S
C913 C908 1.377 . S
C913 C912 1.378 . S
C913 H935 0.931 . S
C914 O924 1.259 . S
C914 O925 1.270 . S
C915 O926 1.251 . S
C915 O927 1.251 . S
O916 C896 1.257 . S
O916 Eu897 2.473 . S
O917 C896 1.260 . S
O917 Eu897 2.480 . S
O918 Eu897 2.430 . S
O918 C904 1.259 . S
O919 Eu897 2.670 . S
O919 C904 1.270 . S
O919 Eu907 2.355 . S
O920 Eu897 2.394 . S
O920 C905 1.251 . S
O921 C905 1.251 . S
O921 Eu907 2.374 . S
O922 C906 1.257 . S
O922 Eu907 2.473 . S
O923 C906 1.260 . S
O923 Eu907 2.480 . S
O924 Eu907 2.430 . S
O924 C914 1.259 . S
O925 Eu897 2.355 . S
O925 Eu907 2.670 . S
O925 C914 1.270 . S
O926 Eu907 2.394 . S
O926 C915 1.251 . S
O927 Eu897 2.374 . S
O927 C915 1.251 . S
H928 C899 0.931 . S
H929 C900 0.931 . S
H930 C902 0.931 . S
H931 C903 0.931 . S
H932 C909 0.931 . S
H933 C910 0.931 . S
H934 C912 0.931 . S
H935 C913 0.931 . S
C936 Eu937 2.835 . S
C936 C938 1.500 . S
C936 O956 1.257 . S
C936 O957 1.260 . S
Eu937 C936 2.835 . S
Eu937 O956 2.473 . S
Eu937 O957 2.480 . S
Eu937 O958 2.430 1_655 S
Eu937 O959 2.670 1_655 S
Eu937 O960 2.394 1_655 S
Eu937 O965 2.355 1_655 S
Eu937 O967 2.374 1_655 S
C938 C936 1.500 . S
C938 C939 1.377 . S
C938 C943 1.377 . S
C939 C938 1.377 . S
C939 C940 1.395 . S
C939 H968 0.931 . S
C940 C939 1.395 . S
C940 C941 1.383 . S
C940 H969 0.931 . S
C941 C940 1.383 . S
C941 C942 1.394 . S
C942 C941 1.394 . S
C942 C943 1.378 . S
C942 H970 0.931 . S
C943 C938 1.377 . S
C943 C942 1.378 . S
C943 H971 0.931 . S
C944 O958 1.259 . S
C944 O959 1.270 . S
C945 O960 1.251 . S
C945 O961 1.251 . S
C946 Eu947 2.835 . S
C946 C948 1.500 . S
C946 O962 1.257 . S
C946 O963 1.260 . S
Eu947 C946 2.835 . S
Eu947 O959 2.355 . S
Eu947 O961 2.374 . S
Eu947 O962 2.473 . S
Eu947 O963 2.480 . S
Eu947 O964 2.430 1_554 S
Eu947 O965 2.670 . S
Eu947 O966 2.394 . S
C948 C946 1.500 . S
C948 C949 1.377 1_554 S
C948 C953 1.377 . S
C949 C948 1.377 1_556 S
C949 C950 1.395 . S
C949 H972 0.931 . S
C950 C949 1.395 . S
C950 C951 1.383 1_556 S
C950 H973 0.931 . S
C951 C950 1.383 1_554 S
C951 C952 1.394 . S
C952 C951 1.394 . S
C952 C953 1.378 . S
C952 H974 0.931 . S
C953 C948 1.377 . S
C953 C952 1.378 . S
C953 H975 0.931 . S
C954 O964 1.259 . S
C954 O965 1.270 1_556 S
C955 O966 1.251 . S
C955 O967 1.251 . S
O956 C936 1.257 . S
O956 Eu937 2.473 . S
O957 C936 1.260 . S
O957 Eu937 2.480 . S
O958 Eu937 2.430 1_455 S
O958 C944 1.259 . S
O959 Eu937 2.670 1_455 S
O959 C944 1.270 . S
O959 Eu947 2.355 . S
O960 Eu937 2.394 1_455 S
O960 C945 1.251 . S
O961 C945 1.251 . S
O961 Eu947 2.374 . S
O962 C946 1.257 . S
O962 Eu947 2.473 . S
O963 C946 1.260 . S
O963 Eu947 2.480 . S
O964 Eu947 2.430 1_556 S
O964 C954 1.259 . S
O965 Eu937 2.355 1_455 S
O965 Eu947 2.670 . S
O965 C954 1.270 1_554 S
O966 Eu947 2.394 . S
O966 C955 1.251 . S
O967 Eu937 2.374 1_455 S
O967 C955 1.251 . S
H968 C939 0.931 . S
H969 C940 0.931 . S
H970 C942 0.931 . S
H971 C943 0.931 . S
H972 C949 0.931 . S
H973 C950 0.931 . S
H974 C952 0.931 . S
H975 C953 0.931 . S
C976 C977 1.391 . S
C976 C978 1.394 . S
C976 H992 0.931 . S
C977 C976 1.391 . S
C977 C981 1.376 1_455 S
C978 C976 1.394 . S
C978 C979 1.369 . S
C978 C982 1.531 . S
C979 C978 1.369 . S
C979 C980 1.412 1_455 S
C979 C987 1.503 1_556 S
C980 C979 1.412 1_655 S
C980 C981 1.409 . S
C980 C983 1.494 1_556 S
C981 C977 1.376 1_655 S
C981 C980 1.409 . S
C981 H993 0.929 . S
C982 C978 1.531 . S
C982 H994 0.960 1_556 S
C982 H995 0.962 . S
C982 H996 0.960 . S
C983 C980 1.494 1_554 S
C983 H997 0.961 . S
C983 H998 0.961 . S
C983 H999 0.961 . S
C984 C985 1.346 1_556 S
C984 C986 1.376 . S
C984 H1000 0.943 . S
C985 C984 1.346 1_554 S
C985 C989 1.408 . S
C986 C984 1.376 . S
C986 C987 1.370 1_556 S
C986 C990 1.524 1_455 S
C987 C979 1.503 1_554 S
C987 C986 1.370 1_554 S
C987 C988 1.403 . S
C988 C987 1.403 . S
C988 C989 1.404 . S
C988 C991 1.539 . S
C989 C985 1.408 . S
C989 C988 1.404 . S
C989 H1001 0.930 . S
C990 C986 1.524 1_655 S
C990 H1002 0.956 1_655 S
C990 H1003 0.961 . S
C990 H1004 0.961 . S
C991 C988 1.539 . S
C991 H1005 0.958 . S
C991 H1006 0.961 . S
C991 H1007 0.960 . S
H992 C976 0.931 . S
H993 C981 0.929 . S
H994 C982 0.960 1_554 S
H995 C982 0.962 . S
H996 C982 0.960 . S
H997 C983 0.961 . S
H998 C983 0.961 . S
H999 C983 0.961 . S
H1000 C984 0.943 . S
H1001 C989 0.930 . S
H1002 C990 0.956 1_455 S
H1003 C990 0.961 . S
H1004 C990 0.961 . S
H1005 C991 0.958 . S
H1006 C991 0.961 . S
H1007 C991 0.960 . S
C1008 C1009 1.391 . S
C1008 C1010 1.394 . S
C1008 H1024 0.931 . S
C1009 C1008 1.391 . S
C1009 C1013 1.376 . S
C1010 C1008 1.394 . S
C1010 C1011 1.369 . S
C1010 C1014 1.531 . S
C1011 C1010 1.369 . S
C1011 C1012 1.410 . S
C1011 C1019 1.503 . S
C1012 C1011 1.410 . S
C1012 C1013 1.392 . S
C1012 C1015 1.511 . S
C1013 C1009 1.376 . S
C1013 C1012 1.392 . S
C1013 H1025 0.929 . S
C1014 C1010 1.531 . S
C1014 H1026 0.960 . S
C1014 H1027 0.962 . S
C1014 H1028 0.960 . S
C1015 C1012 1.511 . S
C1015 H1029 0.961 . S
C1015 H1030 0.961 . S
C1015 H1031 0.961 . S
C1016 C1017 1.370 . S
C1016 C1018 1.363 . S
C1016 H1032 0.931 . S
C1017 C1016 1.370 . S
C1017 C1021 1.408 . S
C1018 C1016 1.363 . S
C1018 C1019 1.370 . S
C1018 C1022 1.524 . S
C1019 C1011 1.503 . S
C1019 C1018 1.370 . S
C1019 C1020 1.403 . S
C1020 C1019 1.403 . S
C1020 C1021 1.404 . S
C1020 C1023 1.539 . S
C1021 C1017 1.408 . S
C1021 C1020 1.404 . S
C1021 H1033 0.930 . S
C1022 C1018 1.524 . S
C1022 H1034 0.956 . S
C1022 H1035 0.961 . S
C1022 H1036 0.961 . S
C1023 C1020 1.539 . S
C1023 H1037 0.958 . S
C1023 H1038 0.961 . S
C1023 H1039 0.960 . S
H1024 C1008 0.931 . S
H1025 C1013 0.929 . S
H1026 C1014 0.960 . S
H1027 C1014 0.962 . S
H1028 C1014 0.960 . S
H1029 C1015 0.961 . S
H1030 C1015 0.961 . S
H1031 C1015 0.961 . S
H1032 C1016 0.931 . S
H1033 C1021 0.930 . S
H1034 C1022 0.956 . S
H1035 C1022 0.961 . S
H1036 C1022 0.961 . S
H1037 C1023 0.958 . S
H1038 C1023 0.961 . S
H1039 C1023 0.960 . S
C1040 C1041 1.391 . S
C1040 C1042 1.394 . S
C1040 H1056 0.931 . S
C1041 C1040 1.391 . S
C1041 C1045 1.376 . S
C1042 C1040 1.394 . S
C1042 C1043 1.369 . S
C1042 C1046 1.531 . S
C1043 C1042 1.369 . S
C1043 C1044 1.410 . S
C1043 C1051 1.503 . S
C1044 C1043 1.410 . S
C1044 C1045 1.392 . S
C1044 C1047 1.511 . S
C1045 C1041 1.376 . S
C1045 C1044 1.392 . S
C1045 H1057 0.929 . S
C1046 C1042 1.531 . S
C1046 H1058 0.960 . S
C1046 H1059 0.962 . S
C1046 H1060 0.960 . S
C1047 C1044 1.511 . S
C1047 H1061 0.961 . S
C1047 H1062 0.961 . S
C1047 H1063 0.961 . S
C1048 C1049 1.370 . S
C1048 C1050 1.363 . S
C1048 H1064 0.931 . S
C1049 C1048 1.370 . S
C1049 C1053 1.408 . S
C1050 C1048 1.363 . S
C1050 C1051 1.370 . S
C1050 C1054 1.524 . S
C1051 C1043 1.503 . S
C1051 C1050 1.370 . S
C1051 C1052 1.403 . S
C1052 C1051 1.403 . S
C1052 C1053 1.404 . S
C1052 C1055 1.539 . S
C1053 C1049 1.408 . S
C1053 C1052 1.404 . S
C1053 H1065 0.930 . S
C1054 C1050 1.524 . S
C1054 H1066 0.956 . S
C1054 H1067 0.961 . S
C1054 H1068 0.961 . S
C1055 C1052 1.539 . S
C1055 H1069 0.958 . S
C1055 H1070 0.961 . S
C1055 H1071 0.960 . S
H1056 C1040 0.931 . S
H1057 C1045 0.929 . S
H1058 C1046 0.960 . S
H1059 C1046 0.962 . S
H1060 C1046 0.960 . S
H1061 C1047 0.961 . S
H1062 C1047 0.961 . S
H1063 C1047 0.961 . S
H1064 C1048 0.931 . S
H1065 C1053 0.930 . S
H1066 C1054 0.956 . S
H1067 C1054 0.961 . S
H1068 C1054 0.961 . S
H1069 C1055 0.958 . S
H1070 C1055 0.961 . S
H1071 C1055 0.960 . S
C1072 C1073 1.391 . S
C1072 C1074 1.394 . S
C1072 H1088 0.931 . S
C1073 C1072 1.391 . S
C1073 C1077 1.376 . S
C1074 C1072 1.394 . S
C1074 C1075 1.369 . S
C1074 C1078 1.531 . S
C1075 C1074 1.369 . S
C1075 C1076 1.410 . S
C1075 C1083 1.503 . S
C1076 C1075 1.410 . S
C1076 C1077 1.392 . S
C1076 C1079 1.511 . S
C1077 C1073 1.376 . S
C1077 C1076 1.392 . S
C1077 H1089 0.929 . S
C1078 C1074 1.531 . S
C1078 H1090 0.960 . S
C1078 H1091 0.962 . S
C1078 H1092 0.960 . S
C1079 C1076 1.511 . S
C1079 H1093 0.961 . S
C1079 H1094 0.961 . S
C1079 H1095 0.961 . S
C1080 C1081 1.370 . S
C1080 C1082 1.363 . S
C1080 H1096 0.931 . S
C1081 C1080 1.370 . S
C1081 C1085 1.408 . S
C1082 C1080 1.363 . S
C1082 C1083 1.370 . S
C1082 C1086 1.524 . S
C1083 C1075 1.503 . S
C1083 C1082 1.370 . S
C1083 C1084 1.403 . S
C1084 C1083 1.403 . S
C1084 C1085 1.404 . S
C1084 C1087 1.539 . S
C1085 C1081 1.408 . S
C1085 C1084 1.404 . S
C1085 H1097 0.930 . S
C1086 C1082 1.524 . S
C1086 H1098 0.956 . S
C1086 H1099 0.961 . S
C1086 H1100 0.961 . S
C1087 C1084 1.539 . S
C1087 H1101 0.958 . S
C1087 H1102 0.961 . S
C1087 H1103 0.960 . S
H1088 C1072 0.931 . S
H1089 C1077 0.929 . S
H1090 C1078 0.960 . S
H1091 C1078 0.962 . S
H1092 C1078 0.960 . S
H1093 C1079 0.961 . S
H1094 C1079 0.961 . S
H1095 C1079 0.961 . S
H1096 C1080 0.931 . S
H1097 C1085 0.930 . S
H1098 C1086 0.956 . S
H1099 C1086 0.961 . S
H1100 C1086 0.961 . S
H1101 C1087 0.958 . S
H1102 C1087 0.961 . S
H1103 C1087 0.960 . S
C1104 C1105 1.391 . S
C1104 C1106 1.394 . S
C1104 H1120 0.931 . S
C1105 C1104 1.391 . S
C1105 C1109 1.376 1_455 S
C1106 C1104 1.394 . S
C1106 C1107 1.369 . S
C1106 C1110 1.531 . S
C1107 C1106 1.369 . S
C1107 C1108 1.410 . S
C1107 C1115 1.503 . S
C1108 C1107 1.410 . S
C1108 C1109 1.392 1_455 S
C1108 C1111 1.511 1_455 S
C1109 C1105 1.376 1_655 S
C1109 C1108 1.392 1_655 S
C1109 H1121 0.929 . S
C1110 C1106 1.531 . S
C1110 H1122 0.960 . S
C1110 H1123 0.962 . S
C1110 H1124 0.960 . S
C1111 C1108 1.511 1_655 S
C1111 H1125 0.961 . S
C1111 H1126 0.961 . S
C1111 H1127 0.961 . S
C1112 C1113 1.370 . S
C1112 C1114 1.363 . S
C1112 H1128 0.931 . S
C1113 C1112 1.370 . S
C1113 C1117 1.408 . S
C1114 C1112 1.363 . S
C1114 C1115 1.370 . S
C1114 C1118 1.524 . S
C1115 C1107 1.503 . S
C1115 C1114 1.370 . S
C1115 C1116 1.403 . S
C1116 C1115 1.403 . S
C1116 C1117 1.404 . S
C1116 C1119 1.539 . S
C1117 C1113 1.408 . S
C1117 C1116 1.404 . S
C1117 H1129 0.930 . S
C1118 C1114 1.524 . S
C1118 H1130 0.956 . S
C1118 H1131 0.961 . S
C1118 H1132 0.961 . S
C1119 C1116 1.539 . S
C1119 H1133 0.958 . S
C1119 H1134 0.961 . S
C1119 H1135 0.960 . S
H1120 C1104 0.931 . S
H1121 C1109 0.929 . S
H1122 C1110 0.960 . S
H1123 C1110 0.962 . S
H1124 C1110 0.960 . S
H1125 C1111 0.961 . S
H1126 C1111 0.961 . S
H1127 C1111 0.961 . S
H1128 C1112 0.931 . S
H1129 C1117 0.930 . S
H1130 C1118 0.956 . S
H1131 C1118 0.961 . S
H1132 C1118 0.961 . S
H1133 C1119 0.958 . S
H1134 C1119 0.961 . S
H1135 C1119 0.960 . S
C1136 C1137 1.391 . S
C1136 C1138 1.394 . S
C1136 H1152 0.931 . S
C1137 C1136 1.391 . S
C1137 C1141 1.376 . S
C1138 C1136 1.394 . S
C1138 C1139 1.369 . S
C1138 C1142 1.531 . S
C1139 C1138 1.369 . S
C1139 C1140 1.410 . S
C1139 C1147 1.503 . S
C1140 C1139 1.410 . S
C1140 C1141 1.392 . S
C1140 C1143 1.511 . S
C1141 C1137 1.376 . S
C1141 C1140 1.392 . S
C1141 H1153 0.929 . S
C1142 C1138 1.531 . S
C1142 H1154 0.960 . S
C1142 H1155 0.962 . S
C1142 H1156 0.960 . S
C1143 C1140 1.511 . S
C1143 H1157 0.961 . S
C1143 H1158 0.961 . S
C1143 H1159 0.961 . S
C1144 C1145 1.370 . S
C1144 C1146 1.363 . S
C1144 H1160 0.931 . S
C1145 C1144 1.370 . S
C1145 C1149 1.408 . S
C1146 C1144 1.363 . S
C1146 C1147 1.370 . S
C1146 C1150 1.524 . S
C1147 C1139 1.503 . S
C1147 C1146 1.370 . S
C1147 C1148 1.403 . S
C1148 C1147 1.403 . S
C1148 C1149 1.404 . S
C1148 C1151 1.539 . S
C1149 C1145 1.408 . S
C1149 C1148 1.404 . S
C1149 H1161 0.930 . S
C1150 C1146 1.524 . S
C1150 H1162 0.956 . S
C1150 H1163 0.961 . S
C1150 H1164 0.961 . S
C1151 C1148 1.539 . S
C1151 H1165 0.958 . S
C1151 H1166 0.961 . S
C1151 H1167 0.960 . S
H1152 C1136 0.931 . S
H1153 C1141 0.929 . S
H1154 C1142 0.960 . S
H1155 C1142 0.962 . S
H1156 C1142 0.960 . S
H1157 C1143 0.961 . S
H1158 C1143 0.961 . S
H1159 C1143 0.961 . S
H1160 C1144 0.931 . S
H1161 C1149 0.930 . S
H1162 C1150 0.956 . S
H1163 C1150 0.961 . S
H1164 C1150 0.961 . S
H1165 C1151 0.958 . S
H1166 C1151 0.961 . S
H1167 C1151 0.960 . S
C1168 C1169 1.391 . S
C1168 C1170 1.394 . S
C1168 H1184 0.931 . S
C1169 C1168 1.391 . S
C1169 C1173 1.376 . S
C1170 C1168 1.394 . S
C1170 C1171 1.369 . S
C1170 C1174 1.531 . S
C1171 C1170 1.369 . S
C1171 C1172 1.410 . S
C1171 C1179 1.503 . S
C1172 C1171 1.410 . S
C1172 C1173 1.392 . S
C1172 C1175 1.511 . S
C1173 C1169 1.376 . S
C1173 C1172 1.392 . S
C1173 H1185 0.929 . S
C1174 C1170 1.531 . S
C1174 H1186 0.960 . S
C1174 H1187 0.962 . S
C1174 H1188 0.960 . S
C1175 C1172 1.511 . S
C1175 H1189 0.961 . S
C1175 H1190 0.961 . S
C1175 H1191 0.961 . S
C1176 C1177 1.370 . S
C1176 C1178 1.363 . S
C1176 H1192 0.931 . S
C1177 C1176 1.370 . S
C1177 C1181 1.408 . S
C1178 C1176 1.363 . S
C1178 C1179 1.370 . S
C1178 C1182 1.524 . S
C1179 C1171 1.503 . S
C1179 C1178 1.370 . S
C1179 C1180 1.403 . S
C1180 C1179 1.403 . S
C1180 C1181 1.404 . S
C1180 C1183 1.539 . S
C1181 C1177 1.408 . S
C1181 C1180 1.404 . S
C1181 H1193 0.930 . S
C1182 C1178 1.524 . S
C1182 H1194 0.956 . S
C1182 H1195 0.961 . S
C1182 H1196 0.961 . S
C1183 C1180 1.539 . S
C1183 H1197 0.958 . S
C1183 H1198 0.961 . S
C1183 H1199 0.960 . S
H1184 C1168 0.931 . S
H1185 C1173 0.929 . S
H1186 C1174 0.960 . S
H1187 C1174 0.962 . S
H1188 C1174 0.960 . S
H1189 C1175 0.961 . S
H1190 C1175 0.961 . S
H1191 C1175 0.961 . S
H1192 C1176 0.931 . S
H1193 C1181 0.930 . S
H1194 C1182 0.956 . S
H1195 C1182 0.961 . S
H1196 C1182 0.961 . S
H1197 C1183 0.958 . S
H1198 C1183 0.961 . S
H1199 C1183 0.960 . S
C1200 C1201 1.391 . S
C1200 C1202 1.394 . S
C1200 H1216 0.931 . S
C1201 C1200 1.391 . S
C1201 C1205 1.376 . S
C1202 C1200 1.394 . S
C1202 C1203 1.369 . S
C1202 C1206 1.531 . S
C1203 C1202 1.369 . S
C1203 C1204 1.410 . S
C1203 C1211 1.503 . S
C1204 C1203 1.410 . S
C1204 C1205 1.392 . S
C1204 C1207 1.511 . S
C1205 C1201 1.376 . S
C1205 C1204 1.392 . S
C1205 H1217 0.929 . S
C1206 C1202 1.531 . S
C1206 H1218 0.960 . S
C1206 H1219 0.962 . S
C1206 H1220 0.960 . S
C1207 C1204 1.511 . S
C1207 H1221 0.961 . S
C1207 H1222 0.961 . S
C1207 H1223 0.961 . S
C1208 C1209 1.370 . S
C1208 C1210 1.363 . S
C1208 H1224 0.931 . S
C1209 C1208 1.370 . S
C1209 C1213 1.408 . S
C1210 C1208 1.363 . S
C1210 C1211 1.370 . S
C1210 C1214 1.524 . S
C1211 C1203 1.503 . S
C1211 C1210 1.370 . S
C1211 C1212 1.403 . S
C1212 C1211 1.403 . S
C1212 C1213 1.404 . S
C1212 C1215 1.539 . S
C1213 C1209 1.408 . S
C1213 C1212 1.404 . S
C1213 H1225 0.930 . S
C1214 C1210 1.524 . S
C1214 H1226 0.956 . S
C1214 H1227 0.961 . S
C1214 H1228 0.961 . S
C1215 C1212 1.539 . S
C1215 H1229 0.958 . S
C1215 H1230 0.961 . S
C1215 H1231 0.960 . S
H1216 C1200 0.931 . S
H1217 C1205 0.929 . S
H1218 C1206 0.960 . S
H1219 C1206 0.962 . S
H1220 C1206 0.960 . S
H1221 C1207 0.961 . S
H1222 C1207 0.961 . S
H1223 C1207 0.961 . S
H1224 C1208 0.931 . S
H1225 C1213 0.930 . S
H1226 C1214 0.956 . S
H1227 C1214 0.961 . S
H1228 C1214 0.961 . S
H1229 C1215 0.958 . S
H1230 C1215 0.961 . S
H1231 C1215 0.960 . S
C1232 C1233 1.391 . S
C1232 C1234 1.394 . S
C1232 H1248 0.931 . S
C1233 C1232 1.391 . S
C1233 C1237 1.376 . S
C1234 C1232 1.394 . S
C1234 C1235 1.369 . S
C1234 C1238 1.531 . S
C1235 C1234 1.369 . S
C1235 C1236 1.410 . S
C1235 C1243 1.503 . S
C1236 C1235 1.410 . S
C1236 C1237 1.392 . S
C1236 C1239 1.511 . S
C1237 C1233 1.376 . S
C1237 C1236 1.392 . S
C1237 H1249 0.929 . S
C1238 C1234 1.531 . S
C1238 H1250 0.960 . S
C1238 H1251 0.962 . S
C1238 H1252 0.960 . S
C1239 C1236 1.511 . S
C1239 H1253 0.961 1_545 S
C1239 H1254 0.961 1_545 S
C1239 H1255 0.961 1_655 S
C1240 C1241 1.370 1_655 S
C1240 C1242 1.363 . S
C1240 H1256 0.931 . S
C1241 C1240 1.370 1_455 S
C1241 C1245 1.408 . S
C1242 C1240 1.363 . S
C1242 C1243 1.370 . S
C1242 C1246 1.524 1_545 S
C1243 C1235 1.503 . S
C1243 C1242 1.370 . S
C1243 C1244 1.360 1_655 S
C1244 C1243 1.360 1_455 S
C1244 C1245 1.436 . S
C1244 C1247 1.555 . S
C1245 C1241 1.408 . S
C1245 C1244 1.436 . S
C1245 H1257 0.930 . S
C1246 C1242 1.524 1_565 S
C1246 H1258 0.956 1_565 S
C1246 H1259 0.961 . S
C1246 H1260 0.961 . S
C1247 C1244 1.555 . S
C1247 H1261 0.958 . S
C1247 H1262 0.961 . S
C1247 H1263 0.960 . S
H1248 C1232 0.931 . S
H1249 C1237 0.929 . S
H1250 C1238 0.960 . S
H1251 C1238 0.962 . S
H1252 C1238 0.960 . S
H1253 C1239 0.961 1_565 S
H1254 C1239 0.961 1_565 S
H1255 C1239 0.961 1_455 S
H1256 C1240 0.931 . S
H1257 C1245 0.930 . S
H1258 C1246 0.956 1_545 S
H1259 C1246 0.961 . S
H1260 C1246 0.961 . S
H1261 C1247 0.958 . S
H1262 C1247 0.961 . S
H1263 C1247 0.960 . S
C1264 C1265 1.391 . S
C1264 C1266 1.394 . S
C1264 H1280 0.931 . S
C1265 C1264 1.391 . S
C1265 C1269 1.376 . S
C1266 C1264 1.394 . S
C1266 C1267 1.369 . S
C1266 C1270 1.531 . S
C1267 C1266 1.369 . S
C1267 C1268 1.410 . S
C1267 C1275 1.503 . S
C1268 C1267 1.410 . S
C1268 C1269 1.392 . S
C1268 C1271 1.511 . S
C1269 C1265 1.376 . S
C1269 C1268 1.392 . S
C1269 H1281 0.929 . S
C1270 C1266 1.531 . S
C1270 H1282 0.960 . S
C1270 H1283 0.962 . S
C1270 H1284 0.960 . S
C1271 C1268 1.511 . S
C1271 H1285 0.961 . S
C1271 H1286 0.961 . S
C1271 H1287 0.961 . S
C1272 C1273 1.370 . S
C1272 C1274 1.363 . S
C1272 H1288 0.931 . S
C1273 C1272 1.370 . S
C1273 C1277 1.408 . S
C1274 C1272 1.363 . S
C1274 C1275 1.370 . S
C1274 C1278 1.524 . S
C1275 C1267 1.503 . S
C1275 C1274 1.370 . S
C1275 C1276 1.403 . S
C1276 C1275 1.403 . S
C1276 C1277 1.404 . S
C1276 C1279 1.539 . S
C1277 C1273 1.408 . S
C1277 C1276 1.404 . S
C1277 H1289 0.930 . S
C1278 C1274 1.524 . S
C1278 H1290 0.956 . S
C1278 H1291 0.961 . S
C1278 H1292 0.961 . S
C1279 C1276 1.539 . S
C1279 H1293 0.958 . S
C1279 H1294 0.961 . S
C1279 H1295 0.960 . S
H1280 C1264 0.931 . S
H1281 C1269 0.929 . S
H1282 C1270 0.960 . S
H1283 C1270 0.962 . S
H1284 C1270 0.960 . S
H1285 C1271 0.961 . S
H1286 C1271 0.961 . S
H1287 C1271 0.961 . S
H1288 C1272 0.931 . S
H1289 C1277 0.930 . S
H1290 C1278 0.956 . S
H1291 C1278 0.961 . S
H1292 C1278 0.961 . S
H1293 C1279 0.958 . S
H1294 C1279 0.961 . S
H1295 C1279 0.960 . S
C1296 C1297 1.391 . S
C1296 C1298 1.394 . S
C1296 H1312 0.931 . S
C1297 C1296 1.391 . S
C1297 C1301 1.376 . S
C1298 C1296 1.394 . S
C1298 C1299 1.369 . S
C1298 C1302 1.531 . S
C1299 C1298 1.369 . S
C1299 C1300 1.410 . S
C1299 C1307 1.503 . S
C1300 C1299 1.410 . S
C1300 C1301 1.392 . S
C1300 C1303 1.511 . S
C1301 C1297 1.376 . S
C1301 C1300 1.392 . S
C1301 H1313 0.929 . S
C1302 C1298 1.531 . S
C1302 H1314 0.960 . S
C1302 H1315 0.962 . S
C1302 H1316 0.960 . S
C1303 C1300 1.511 . S
C1303 H1317 0.961 . S
C1303 H1318 0.961 . S
C1303 H1319 0.961 . S
C1304 C1305 1.370 1_565 S
C1304 C1306 1.363 . S
C1304 H1320 0.931 . S
C1305 C1304 1.370 1_545 S
C1305 C1309 1.408 . S
C1306 C1304 1.363 . S
C1306 C1307 1.370 1_565 S
C1306 C1310 1.524 . S
C1307 C1299 1.503 . S
C1307 C1306 1.370 1_545 S
C1307 C1308 1.403 . S
C1308 C1307 1.403 . S
C1308 C1309 1.404 . S
C1308 C1311 1.539 . S
C1309 C1305 1.408 . S
C1309 C1308 1.404 . S
C1309 H1321 0.930 . S
C1310 C1306 1.524 . S
C1310 H1322 0.956 . S
C1310 H1323 0.961 . S
C1310 H1324 0.961 . S
C1311 C1308 1.539 . S
C1311 H1325 0.958 . S
C1311 H1326 0.961 . S
C1311 H1327 0.960 . S
H1312 C1296 0.931 . S
H1313 C1301 0.929 . S
H1314 C1302 0.960 . S
H1315 C1302 0.962 . S
H1316 C1302 0.960 . S
H1317 C1303 0.961 . S
H1318 C1303 0.961 . S
H1319 C1303 0.961 . S
H1320 C1304 0.931 . S
H1321 C1309 0.930 . S
H1322 C1310 0.956 . S
H1323 C1310 0.961 . S
H1324 C1310 0.961 . S
H1325 C1311 0.958 . S
H1326 C1311 0.961 . S
H1327 C1311 0.960 . S
C1328 C1329 1.391 . S
C1328 C1330 1.394 . S
C1328 H1344 0.931 . S
C1329 C1328 1.391 . S
C1329 C1333 1.376 . S
C1330 C1328 1.394 . S
C1330 C1331 1.369 . S
C1330 C1334 1.531 . S
C1331 C1330 1.369 . S
C1331 C1332 1.410 . S
C1331 C1339 1.503 . S
C1332 C1331 1.410 . S
C1332 C1333 1.392 . S
C1332 C1335 1.511 . S
C1333 C1329 1.376 . S
C1333 C1332 1.392 . S
C1333 H1345 0.929 . S
C1334 C1330 1.531 . S
C1334 H1346 0.960 . S
C1334 H1347 0.962 . S
C1334 H1348 0.960 . S
C1335 C1332 1.511 . S
C1335 H1349 0.961 . S
C1335 H1350 0.961 . S
C1335 H1351 0.961 . S
C1336 C1337 1.370 . S
C1336 C1338 1.363 . S
C1336 H1352 0.931 . S
C1337 C1336 1.370 . S
C1337 C1341 1.408 . S
C1338 C1336 1.363 . S
C1338 C1339 1.370 . S
C1338 C1342 1.524 . S
C1339 C1331 1.503 . S
C1339 C1338 1.370 . S
C1339 C1340 1.403 . S
C1340 C1339 1.403 . S
C1340 C1341 1.404 . S
C1340 C1343 1.539 . S
C1341 C1337 1.408 . S
C1341 C1340 1.404 . S
C1341 H1353 0.930 . S
C1342 C1338 1.524 . S
C1342 H1354 0.956 . S
C1342 H1355 0.961 . S
C1342 H1356 0.961 . S
C1343 C1340 1.539 . S
C1343 H1357 0.958 . S
C1343 H1358 0.961 . S
C1343 H1359 0.960 . S
H1344 C1328 0.931 . S
H1345 C1333 0.929 . S
H1346 C1334 0.960 . S
H1347 C1334 0.962 . S
H1348 C1334 0.960 . S
H1349 C1335 0.961 . S
H1350 C1335 0.961 . S
H1351 C1335 0.961 . S
H1352 C1336 0.931 . S
H1353 C1341 0.930 . S
H1354 C1342 0.956 . S
H1355 C1342 0.961 . S
H1356 C1342 0.961 . S
H1357 C1343 0.958 . S
H1358 C1343 0.961 . S
H1359 C1343 0.960 . S
C1360 C1361 1.391 . S
C1360 C1362 1.394 . S
C1360 H1376 0.931 . S
C1361 C1360 1.391 . S
C1361 C1365 1.376 . S
C1362 C1360 1.394 . S
C1362 C1363 1.369 . S
C1362 C1366 1.531 . S
C1363 C1362 1.369 . S
C1363 C1364 1.410 . S
C1363 C1371 1.503 . S
C1364 C1363 1.410 . S
C1364 C1365 1.392 . S
C1364 C1367 1.511 . S
C1365 C1361 1.376 . S
C1365 C1364 1.392 . S
C1365 H1377 0.929 . S
C1366 C1362 1.531 . S
C1366 H1378 0.960 . S
C1366 H1379 0.962 1_655 S
C1366 H1380 0.960 . S
C1367 C1364 1.511 . S
C1367 H1381 0.971 . S
C1367 H1382 0.961 . S
C1367 H1383 0.961 . S
C1368 C1369 1.370 . S
C1368 C1370 1.363 . S
C1368 H1384 0.915 1_645 S
C1369 C1368 1.370 . S
C1369 C1373 1.408 . S
C1370 C1368 1.363 . S
C1370 C1371 1.370 . S
C1370 C1374 1.524 1_545 S
C1371 C1363 1.503 . S
C1371 C1370 1.370 . S
C1371 C1372 1.403 . S
C1372 C1371 1.403 . S
C1372 C1373 1.404 . S
C1372 C1375 1.539 . S
C1373 C1369 1.408 . S
C1373 C1372 1.404 . S
C1373 H1385 0.930 . S
C1374 C1370 1.524 1_565 S
C1374 H1386 0.956 1_565 S
C1374 H1387 0.961 . S
C1374 H1388 0.961 . S
C1375 C1372 1.539 . S
C1375 H1389 0.958 . S
C1375 H1390 0.961 . S
C1375 H1391 0.960 . S
H1376 C1360 0.931 . S
H1377 C1365 0.929 . S
H1378 C1366 0.960 . S
H1379 C1366 0.962 1_455 S
H1380 C1366 0.960 . S
H1381 C1367 0.971 . S
H1382 C1367 0.961 . S
H1383 C1367 0.961 . S
H1384 C1368 0.915 1_465 S
H1385 C1373 0.930 . S
H1386 C1374 0.956 1_545 S
H1387 C1374 0.961 . S
H1388 C1374 0.961 . S
H1389 C1375 0.958 . S
H1390 C1375 0.961 . S
H1391 C1375 0.960 . S
C1392 C1393 1.391 . S
C1392 C1394 1.394 . S
C1392 H1408 0.931 . S
C1393 C1392 1.391 . S
C1393 C1397 1.376 . S
C1394 C1392 1.394 . S
C1394 C1395 1.369 . S
C1394 C1398 1.531 . S
C1395 C1394 1.369 . S
C1395 C1396 1.410 . S
C1395 C1403 1.503 . S
C1396 C1395 1.410 . S
C1396 C1397 1.392 . S
C1396 C1399 1.511 . S
C1397 C1393 1.376 . S
C1397 C1396 1.392 . S
C1397 H1409 0.929 . S
C1398 C1394 1.531 . S
C1398 H1410 0.960 . S
C1398 H1411 0.962 . S
C1398 H1412 0.960 . S
C1399 C1396 1.511 . S
C1399 H1413 0.961 . S
C1399 H1414 0.961 . S
C1399 H1415 0.961 . S
C1400 C1401 1.370 . S
C1400 C1402 1.363 . S
C1400 H1416 0.931 . S
C1401 C1400 1.370 . S
C1401 C1405 1.408 . S
C1402 C1400 1.363 . S
C1402 C1403 1.370 . S
C1402 C1406 1.524 . S
C1403 C1395 1.503 . S
C1403 C1402 1.370 . S
C1403 C1404 1.403 . S
C1404 C1403 1.403 . S
C1404 C1405 1.404 . S
C1404 C1407 1.539 . S
C1405 C1401 1.408 . S
C1405 C1404 1.404 . S
C1405 H1417 0.930 . S
C1406 C1402 1.524 . S
C1406 H1418 0.956 . S
C1406 H1419 0.961 . S
C1406 H1420 0.961 . S
C1407 C1404 1.539 . S
C1407 H1421 0.958 . S
C1407 H1422 0.961 . S
C1407 H1423 0.960 . S
H1408 C1392 0.931 . S
H1409 C1397 0.929 . S
H1410 C1398 0.960 . S
H1411 C1398 0.962 . S
H1412 C1398 0.960 . S
H1413 C1399 0.961 . S
H1414 C1399 0.961 . S
H1415 C1399 0.961 . S
H1416 C1400 0.931 . S
H1417 C1405 0.930 . S
H1418 C1406 0.956 . S
H1419 C1406 0.961 . S
H1420 C1406 0.961 . S
H1421 C1407 0.958 . S
H1422 C1407 0.961 . S
H1423 C1407 0.960 . S
C1424 C1425 1.391 . S
C1424 C1426 1.394 . S
C1424 H1440 0.931 . S
C1425 C1424 1.391 . S
C1425 C1429 1.376 1_545 S
C1426 C1424 1.394 . S
C1426 C1427 1.369 . S
C1426 C1430 1.531 . S
C1427 C1426 1.369 . S
C1427 C1428 1.398 1_545 S
C1427 C1435 1.503 . S
C1428 C1427 1.398 1_565 S
C1428 C1429 1.392 . S
C1428 C1431 1.523 . S
C1429 C1425 1.376 1_565 S
C1429 C1428 1.392 . S
C1429 H1441 0.929 . S
C1430 C1426 1.531 . S
C1430 H1442 0.960 . S
C1430 H1443 0.962 . S
C1430 H1444 0.960 . S
C1431 C1428 1.523 . S
C1431 H1445 0.961 . S
C1431 H1446 0.961 . S
C1431 H1447 0.961 . S
C1432 C1433 1.370 . S
C1432 C1434 1.363 . S
C1432 H1448 0.931 . S
C1433 C1432 1.370 . S
C1433 C1437 1.408 . S
C1434 C1432 1.363 . S
C1434 C1435 1.370 . S
C1434 C1438 1.524 . S
C1435 C1427 1.503 . S
C1435 C1434 1.370 . S
C1435 C1436 1.403 . S
C1436 C1435 1.403 . S
C1436 C1437 1.404 . S
C1436 C1439 1.539 . S
C1437 C1433 1.408 . S
C1437 C1436 1.404 . S
C1437 H1449 0.930 . S
C1438 C1434 1.524 . S
C1438 H1450 0.956 . S
C1438 H1451 0.961 . S
C1438 H1452 0.961 . S
C1439 C1436 1.539 . S
C1439 H1453 0.958 . S
C1439 H1454 0.961 . S
C1439 H1455 0.960 . S
H1440 C1424 0.931 . S
H1441 C1429 0.929 . S
H1442 C1430 0.960 . S
H1443 C1430 0.962 . S
H1444 C1430 0.960 . S
H1445 C1431 0.961 . S
H1446 C1431 0.961 . S
H1447 C1431 0.961 . S
H1448 C1432 0.931 . S
H1449 C1437 0.930 . S
H1450 C1438 0.956 . S
H1451 C1438 0.961 . S
H1452 C1438 0.961 . S
H1453 C1439 0.958 . S
H1454 C1439 0.961 . S
H1455 C1439 0.960 . S
C1456 C1457 1.391 . S
C1456 C1458 1.394 . S
C1456 H1472 0.931 . S
C1457 C1456 1.391 . S
C1457 C1461 1.376 . S
C1458 C1456 1.394 . S
C1458 C1459 1.369 . S
C1458 C1462 1.531 . S
C1459 C1458 1.369 . S
C1459 C1460 1.410 . S
C1459 C1467 1.503 . S
C1460 C1459 1.410 . S
C1460 C1461 1.392 . S
C1460 C1463 1.511 . S
C1461 C1457 1.376 . S
C1461 C1460 1.392 . S
C1461 H1473 0.929 . S
C1462 C1458 1.531 . S
C1462 H1474 0.960 . S
C1462 H1475 0.962 . S
C1462 H1476 0.960 . S
C1463 C1460 1.511 . S
C1463 H1477 0.961 . S
C1463 H1478 0.961 . S
C1463 H1479 0.961 . S
C1464 C1465 1.370 . S
C1464 C1466 1.363 . S
C1464 H1480 0.931 . S
C1465 C1464 1.370 . S
C1465 C1469 1.408 . S
C1466 C1464 1.363 . S
C1466 C1467 1.370 . S
C1466 C1470 1.524 . S
C1467 C1459 1.503 . S
C1467 C1466 1.370 . S
C1467 C1468 1.403 . S
C1468 C1467 1.403 . S
C1468 C1469 1.404 . S
C1468 C1471 1.539 . S
C1469 C1465 1.408 . S
C1469 C1468 1.404 . S
C1469 H1481 0.930 . S
C1470 C1466 1.524 . S
C1470 H1482 0.956 . S
C1470 H1483 0.961 . S
C1470 H1484 0.961 . S
C1471 C1468 1.539 . S
C1471 H1485 0.958 . S
C1471 H1486 0.961 . S
C1471 H1487 0.960 . S
H1472 C1456 0.931 . S
H1473 C1461 0.929 . S
H1474 C1462 0.960 . S
H1475 C1462 0.962 . S
H1476 C1462 0.960 . S
H1477 C1463 0.961 . S
H1478 C1463 0.961 . S
H1479 C1463 0.961 . S
H1480 C1464 0.931 . S
H1481 C1469 0.930 . S
H1482 C1470 0.956 . S
H1483 C1470 0.961 . S
H1484 C1470 0.961 . S
H1485 C1471 0.958 . S
H1486 C1471 0.961 . S
H1487 C1471 0.960 . S
C1488 C1489 1.391 1_556 S
C1488 C1490 1.394 1_556 S
C1488 H1504 0.931 . S
C1489 C1488 1.391 1_554 S
C1489 C1493 1.376 . S
C1490 C1488 1.394 1_554 S
C1490 C1491 1.369 . S
C1490 C1494 1.531 . S
C1491 C1490 1.369 . S
C1491 C1492 1.410 . S
C1491 C1499 1.503 . S
C1492 C1491 1.410 . S
C1492 C1493 1.392 . S
C1492 C1495 1.511 . S
C1493 C1489 1.376 . S
C1493 C1492 1.392 . S
C1493 H1505 0.929 . S
C1494 C1490 1.531 . S
C1494 H1506 0.960 . S
C1494 H1507 0.962 . S
C1494 H1508 0.960 1_554 S
C1495 C1492 1.511 . S
C1495 H1509 0.961 . S
C1495 H1510 0.961 . S
C1495 H1511 0.961 . S
C1496 C1497 1.370 . S
C1496 C1498 1.363 . S
C1496 H1512 0.931 . S
C1497 C1496 1.370 . S
C1497 C1501 1.408 . S
C1498 C1496 1.363 . S
C1498 C1499 1.370 . S
C1498 C1502 1.524 . S
C1499 C1491 1.503 . S
C1499 C1498 1.370 . S
C1499 C1500 1.403 . S
C1500 C1499 1.403 . S
C1500 C1501 1.404 . S
C1500 C1503 1.539 . S
C1501 C1497 1.408 . S
C1501 C1500 1.404 . S
C1501 H1513 0.930 . S
C1502 C1498 1.524 . S
C1502 H1514 0.956 . S
C1502 H1515 0.961 . S
C1502 H1516 0.961 . S
C1503 C1500 1.539 . S
C1503 H1517 0.958 1_554 S
C1503 H1518 0.961 . S
C1503 H1519 0.959 1_554 S
H1504 C1488 0.931 . S
H1505 C1493 0.929 . S
H1506 C1494 0.960 . S
H1507 C1494 0.962 . S
H1508 C1494 0.960 1_556 S
H1509 C1495 0.961 . S
H1510 C1495 0.961 . S
H1511 C1495 0.961 . S
H1512 C1496 0.931 . S
H1513 C1501 0.930 . S
H1514 C1502 0.956 . S
H1515 C1502 0.961 . S
H1516 C1502 0.961 . S
H1517 C1503 0.958 1_556 S
H1518 C1503 0.961 . S
H1519 C1503 0.959 1_556 S
C1520 C1521 1.391 . S
C1520 C1522 1.394 . S
C1520 H1536 0.931 . S
C1521 C1520 1.391 . S
C1521 C1525 1.376 . S
C1522 C1520 1.394 . S
C1522 C1523 1.369 . S
C1522 C1526 1.531 . S
C1523 C1522 1.369 . S
C1523 C1524 1.410 . S
C1523 C1531 1.503 . S
C1524 C1523 1.410 . S
C1524 C1525 1.392 . S
C1524 C1527 1.511 . S
C1525 C1521 1.376 . S
C1525 C1524 1.392 . S
C1525 H1537 0.929 . S
C1526 C1522 1.531 . S
C1526 H1538 0.960 . S
C1526 H1539 0.962 1_554 S
C1526 H1540 0.960 . S
C1527 C1524 1.511 . S
C1527 H1541 0.961 . S
C1527 H1542 0.961 . S
C1527 H1543 0.961 . S
C1528 C1529 1.370 . S
C1528 C1530 1.363 . S
C1528 H1544 0.931 . S
C1529 C1528 1.370 . S
C1529 C1533 1.408 . S
C1530 C1528 1.363 . S
C1530 C1531 1.370 . S
C1530 C1534 1.483 1_554 S
C1531 C1523 1.503 . S
C1531 C1530 1.370 . S
C1531 C1532 1.403 . S
C1532 C1531 1.403 . S
C1532 C1533 1.404 . S
C1532 C1535 1.539 . S
C1533 C1529 1.408 . S
C1533 C1532 1.404 . S
C1533 H1545 0.930 . S
C1534 C1530 1.483 1_556 S
C1534 H1546 0.987 . S
C1534 H1547 0.950 1_556 S
C1534 H1548 0.985 . S
C1535 C1532 1.539 . S
C1535 H1549 0.958 . S
C1535 H1550 0.961 . S
C1535 H1551 0.960 . S
H1536 C1520 0.931 . S
H1537 C1525 0.929 . S
H1538 C1526 0.960 . S
H1539 C1526 0.962 1_556 S
H1540 C1526 0.960 . S
H1541 C1527 0.961 . S
H1542 C1527 0.961 . S
H1543 C1527 0.961 . S
H1544 C1528 0.931 . S
H1545 C1533 0.930 . S
H1546 C1534 0.987 . S
H1547 C1534 0.950 1_554 S
H1548 C1534 0.985 . S
H1549 C1535 0.958 . S
H1550 C1535 0.961 . S
H1551 C1535 0.960 . S
C1552 C1553 1.391 . S
C1552 C1554 1.394 . S
C1552 H1568 0.931 . S
C1553 C1552 1.391 . S
C1553 C1557 1.376 . S
C1554 C1552 1.394 . S
C1554 C1555 1.369 . S
C1554 C1558 1.531 . S
C1555 C1554 1.369 . S
C1555 C1556 1.410 . S
C1555 C1563 1.503 . S
C1556 C1555 1.410 . S
C1556 C1557 1.392 . S
C1556 C1559 1.511 . S
C1557 C1553 1.376 . S
C1557 C1556 1.392 . S
C1557 H1569 0.929 . S
C1558 C1554 1.531 . S
C1558 H1570 0.960 . S
C1558 H1571 0.962 . S
C1558 H1572 0.960 . S
C1559 C1556 1.511 . S
C1559 H1573 0.961 . S
C1559 H1574 0.961 . S
C1559 H1575 0.961 . S
C1560 C1561 1.370 . S
C1560 C1562 1.363 . S
C1560 H1576 0.931 . S
C1561 C1560 1.370 . S
C1561 C1565 1.408 . S
C1562 C1560 1.363 . S
C1562 C1563 1.370 . S
C1562 C1566 1.524 . S
C1563 C1555 1.503 . S
C1563 C1562 1.370 . S
C1563 C1564 1.403 . S
C1564 C1563 1.403 . S
C1564 C1565 1.404 . S
C1564 C1567 1.539 . S
C1565 C1561 1.408 . S
C1565 C1564 1.404 . S
C1565 H1577 0.930 . S
C1566 C1562 1.524 . S
C1566 H1578 0.956 . S
C1566 H1579 0.961 . S
C1566 H1580 0.961 . S
C1567 C1564 1.539 . S
C1567 H1581 0.958 . S
C1567 H1582 0.961 . S
C1567 H1583 0.960 . S
H1568 C1552 0.931 . S
H1569 C1557 0.929 . S
H1570 C1558 0.960 . S
H1571 C1558 0.962 . S
H1572 C1558 0.960 . S
H1573 C1559 0.961 . S
H1574 C1559 0.961 . S
H1575 C1559 0.961 . S
H1576 C1560 0.931 . S
H1577 C1565 0.930 . S
H1578 C1566 0.956 . S
H1579 C1566 0.961 . S
H1580 C1566 0.961 . S
H1581 C1567 0.958 . S
H1582 C1567 0.961 . S
H1583 C1567 0.960 . S
C1584 C1585 1.391 . S
C1584 C1586 1.394 . S
C1584 H1600 0.931 . S
C1585 C1584 1.391 . S
C1585 C1589 1.376 . S
C1586 C1584 1.394 . S
C1586 C1587 1.369 . S
C1586 C1590 1.531 . S
C1587 C1586 1.369 . S
C1587 C1588 1.410 . S
C1587 C1595 1.503 . S
C1588 C1587 1.410 . S
C1588 C1589 1.392 . S
C1588 C1591 1.511 . S
C1589 C1585 1.376 . S
C1589 C1588 1.392 . S
C1589 H1601 0.929 . S
C1590 C1586 1.531 . S
C1590 H1602 0.960 . S
C1590 H1603 0.962 . S
C1590 H1604 0.960 . S
C1591 C1588 1.511 . S
C1591 H1605 0.961 . S
C1591 H1606 0.961 . S
C1591 H1607 0.961 . S
C1592 C1593 1.370 . S
C1592 C1594 1.363 . S
C1592 H1608 0.931 . S
C1593 C1592 1.370 . S
C1593 C1597 1.408 . S
C1594 C1592 1.363 . S
C1594 C1595 1.370 . S
C1594 C1598 1.524 . S
C1595 C1587 1.503 . S
C1595 C1594 1.370 . S
C1595 C1596 1.403 . S
C1596 C1595 1.403 . S
C1596 C1597 1.404 . S
C1596 C1599 1.539 . S
C1597 C1593 1.408 . S
C1597 C1596 1.404 . S
C1597 H1609 0.930 . S
C1598 C1594 1.524 . S
C1598 H1610 0.956 . S
C1598 H1611 0.961 . S
C1598 H1612 0.961 . S
C1599 C1596 1.539 . S
C1599 H1613 0.958 . S
C1599 H1614 0.961 . S
C1599 H1615 0.960 . S
H1600 C1584 0.931 . S
H1601 C1589 0.929 . S
H1602 C1590 0.960 . S
H1603 C1590 0.962 . S
H1604 C1590 0.960 . S
H1605 C1591 0.961 . S
H1606 C1591 0.961 . S
H1607 C1591 0.961 . S
H1608 C1592 0.931 . S
H1609 C1597 0.930 . S
H1610 C1598 0.956 . S
H1611 C1598 0.961 . S
H1612 C1598 0.961 . S
H1613 C1599 0.958 . S
H1614 C1599 0.961 . S
H1615 C1599 0.960 . S
C1616 C1617 1.391 . S
C1616 C1618 1.394 . S
C1616 H1632 0.931 . S
C1617 C1616 1.391 . S
C1617 C1621 1.376 . S
C1618 C1616 1.394 . S
C1618 C1619 1.369 . S
C1618 C1622 1.531 . S
C1619 C1618 1.369 . S
C1619 C1620 1.410 . S
C1619 C1627 1.503 . S
C1620 C1619 1.410 . S
C1620 C1621 1.392 . S
C1620 C1623 1.511 . S
C1621 C1617 1.376 . S
C1621 C1620 1.392 . S
C1621 H1633 0.929 . S
C1622 C1618 1.531 . S
C1622 H1634 0.960 . S
C1622 H1635 0.962 . S
C1622 H1636 0.960 . S
C1623 C1620 1.511 . S
C1623 H1637 0.961 . S
C1623 H1638 0.961 . S
C1623 H1639 0.961 . S
C1624 C1625 1.370 . S
C1624 C1626 1.363 . S
C1624 H1640 0.931 . S
C1625 C1624 1.370 . S
C1625 C1629 1.408 . S
C1626 C1624 1.363 . S
C1626 C1627 1.370 . S
C1626 C1630 1.524 . S
C1627 C1619 1.503 . S
C1627 C1626 1.370 . S
C1627 C1628 1.403 . S
C1628 C1627 1.403 . S
C1628 C1629 1.404 . S
C1628 C1631 1.539 . S
C1629 C1625 1.408 . S
C1629 C1628 1.404 . S
C1629 H1641 0.930 . S
C1630 C1626 1.524 . S
C1630 H1642 0.956 . S
C1630 H1643 0.961 . S
C1630 H1644 0.961 . S
C1631 C1628 1.539 . S
C1631 H1645 0.958 . S
C1631 H1646 0.961 . S
C1631 H1647 0.960 . S
H1632 C1616 0.931 . S
H1633 C1621 0.929 . S
H1634 C1622 0.960 . S
H1635 C1622 0.962 . S
H1636 C1622 0.960 . S
H1637 C1623 0.961 . S
H1638 C1623 0.961 . S
H1639 C1623 0.961 . S
H1640 C1624 0.931 . S
H1641 C1629 0.930 . S
H1642 C1630 0.956 . S
H1643 C1630 0.961 . S
H1644 C1630 0.961 . S
H1645 C1631 0.958 . S
H1646 C1631 0.961 . S
H1647 C1631 0.960 . S
C1648 C1649 1.391 . S
C1648 C1650 1.394 . S
C1648 H1664 0.931 . S
C1649 C1648 1.391 . S
C1649 C1653 1.376 . S
C1650 C1648 1.394 . S
C1650 C1651 1.369 . S
C1650 C1654 1.531 . S
C1651 C1650 1.369 . S
C1651 C1652 1.410 . S
C1651 C1659 1.503 . S
C1652 C1651 1.410 . S
C1652 C1653 1.392 . S
C1652 C1655 1.511 . S
C1653 C1649 1.376 . S
C1653 C1652 1.392 . S
C1653 H1665 0.929 . S
C1654 C1650 1.531 . S
C1654 H1666 0.960 . S
C1654 H1667 0.962 . S
C1654 H1668 0.960 . S
C1655 C1652 1.511 . S
C1655 H1669 0.961 . S
C1655 H1670 0.961 . S
C1655 H1671 0.961 . S
C1656 C1657 1.370 . S
C1656 C1658 1.363 . S
C1656 H1672 0.931 . S
C1657 C1656 1.370 . S
C1657 C1661 1.408 . S
C1658 C1656 1.363 . S
C1658 C1659 1.370 . S
C1658 C1662 1.524 . S
C1659 C1651 1.503 . S
C1659 C1658 1.370 . S
C1659 C1660 1.403 . S
C1660 C1659 1.403 . S
C1660 C1661 1.404 . S
C1660 C1663 1.539 . S
C1661 C1657 1.408 . S
C1661 C1660 1.404 . S
C1661 H1673 0.930 . S
C1662 C1658 1.524 . S
C1662 H1674 0.956 . S
C1662 H1675 0.961 . S
C1662 H1676 0.961 . S
C1663 C1660 1.539 . S
C1663 H1677 0.958 . S
C1663 H1678 0.961 . S
C1663 H1679 0.960 . S
H1664 C1648 0.931 . S
H1665 C1653 0.929 . S
H1666 C1654 0.960 . S
H1667 C1654 0.962 . S
H1668 C1654 0.960 . S
H1669 C1655 0.961 . S
H1670 C1655 0.961 . S
H1671 C1655 0.961 . S
H1672 C1656 0.931 . S
H1673 C1661 0.930 . S
H1674 C1662 0.956 . S
H1675 C1662 0.961 . S
H1676 C1662 0.961 . S
H1677 C1663 0.958 . S
H1678 C1663 0.961 . S
H1679 C1663 0.960 . S
C1680 C1681 1.391 . S
C1680 C1682 1.394 . S
C1680 H1696 0.931 . S
C1681 C1680 1.391 . S
C1681 C1685 1.376 . S
C1682 C1680 1.394 . S
C1682 C1683 1.369 . S
C1682 C1686 1.531 . S
C1683 C1682 1.369 . S
C1683 C1684 1.410 . S
C1683 C1691 1.503 . S
C1684 C1683 1.410 . S
C1684 C1685 1.392 . S
C1684 C1687 1.511 . S
C1685 C1681 1.376 . S
C1685 C1684 1.392 . S
C1685 H1697 0.929 . S
C1686 C1682 1.531 . S
C1686 H1698 0.960 . S
C1686 H1699 0.962 . S
C1686 H1700 0.960 . S
C1687 C1684 1.511 . S
C1687 H1701 0.961 . S
C1687 H1702 0.961 . S
C1687 H1703 0.961 . S
C1688 C1689 1.370 . S
C1688 C1690 1.363 . S
C1688 H1704 0.931 . S
C1689 C1688 1.370 . S
C1689 C1693 1.408 . S
C1690 C1688 1.363 . S
C1690 C1691 1.370 . S
C1690 C1694 1.524 . S
C1691 C1683 1.503 . S
C1691 C1690 1.370 . S
C1691 C1692 1.403 . S
C1692 C1691 1.403 . S
C1692 C1693 1.404 . S
C1692 C1695 1.539 . S
C1693 C1689 1.408 . S
C1693 C1692 1.404 . S
C1693 H1705 0.930 . S
C1694 C1690 1.524 . S
C1694 H1706 0.956 . S
C1694 H1707 0.961 . S
C1694 H1708 0.961 . S
C1695 C1692 1.539 . S
C1695 H1709 0.958 . S
C1695 H1710 0.961 . S
C1695 H1711 0.960 . S
H1696 C1680 0.931 . S
H1697 C1685 0.929 . S
H1698 C1686 0.960 . S
H1699 C1686 0.962 . S
H1700 C1686 0.960 . S
H1701 C1687 0.961 . S
H1702 C1687 0.961 . S
H1703 C1687 0.961 . S
H1704 C1688 0.931 . S
H1705 C1693 0.930 . S
H1706 C1694 0.956 . S
H1707 C1694 0.961 . S
H1708 C1694 0.961 . S
H1709 C1695 0.958 . S
H1710 C1695 0.961 . S
H1711 C1695 0.960 . S
C1712 C1713 1.391 . S
C1712 C1714 1.394 . S
C1712 H1728 0.931 . S
C1713 C1712 1.391 . S
C1713 C1717 1.376 . S
C1714 C1712 1.394 . S
C1714 C1715 1.369 . S
C1714 C1718 1.531 . S
C1715 C1714 1.369 . S
C1715 C1716 1.410 . S
C1715 C1723 1.503 . S
C1716 C1715 1.410 . S
C1716 C1717 1.392 . S
C1716 C1719 1.511 . S
C1717 C1713 1.376 . S
C1717 C1716 1.392 . S
C1717 H1729 0.929 . S
C1718 C1714 1.531 . S
C1718 H1730 0.960 . S
C1718 H1731 0.962 . S
C1718 H1732 0.960 . S
C1719 C1716 1.511 . S
C1719 H1733 0.961 . S
C1719 H1734 0.961 . S
C1719 H1735 0.961 . S
C1720 C1721 1.370 . S
C1720 C1722 1.363 . S
C1720 H1736 0.931 . S
C1721 C1720 1.370 . S
C1721 C1725 1.408 . S
C1722 C1720 1.363 . S
C1722 C1723 1.370 . S
C1722 C1726 1.524 . S
C1723 C1715 1.503 . S
C1723 C1722 1.370 . S
C1723 C1724 1.403 . S
C1724 C1723 1.403 . S
C1724 C1725 1.404 . S
C1724 C1727 1.539 . S
C1725 C1721 1.408 . S
C1725 C1724 1.404 . S
C1725 H1737 0.930 . S
C1726 C1722 1.524 . S
C1726 H1738 0.956 . S
C1726 H1739 0.961 . S
C1726 H1740 0.961 . S
C1727 C1724 1.539 . S
C1727 H1741 0.958 . S
C1727 H1742 0.961 . S
C1727 H1743 0.960 . S
H1728 C1712 0.931 . S
H1729 C1717 0.929 . S
H1730 C1718 0.960 . S
H1731 C1718 0.962 . S
H1732 C1718 0.960 . S
H1733 C1719 0.961 . S
H1734 C1719 0.961 . S
H1735 C1719 0.961 . S
H1736 C1720 0.931 . S
H1737 C1725 0.930 . S
H1738 C1726 0.956 . S
H1739 C1726 0.961 . S
H1740 C1726 0.961 . S
H1741 C1727 0.958 . S
H1742 C1727 0.961 . S
H1743 C1727 0.960 . S
C1744 C1745 1.391 . S
C1744 C1746 1.394 . S
C1744 H1760 0.931 . S
C1745 C1744 1.391 . S
C1745 C1749 1.376 . S
C1746 C1744 1.394 . S
C1746 C1747 1.369 . S
C1746 C1750 1.531 . S
C1747 C1746 1.369 . S
C1747 C1748 1.410 . S
C1747 C1755 1.503 . S
C1748 C1747 1.410 . S
C1748 C1749 1.392 . S
C1748 C1751 1.511 . S
C1749 C1745 1.376 . S
C1749 C1748 1.392 . S
C1749 H1761 0.929 . S
C1750 C1746 1.531 . S
C1750 H1762 0.960 . S
C1750 H1763 0.962 . S
C1750 H1764 0.960 . S
C1751 C1748 1.511 . S
C1751 H1765 0.973 . S
C1751 H1766 0.961 . S
C1751 H1767 0.961 1_455 S
C1752 C1753 1.370 . S
C1752 C1754 1.363 . S
C1752 H1768 0.931 . S
C1753 C1752 1.370 . S
C1753 C1757 1.408 . S
C1754 C1752 1.363 . S
C1754 C1755 1.370 . S
C1754 C1758 1.524 . S
C1755 C1747 1.503 . S
C1755 C1754 1.370 . S
C1755 C1756 1.403 . S
C1756 C1755 1.403 . S
C1756 C1757 1.404 . S
C1756 C1759 1.539 . S
C1757 C1753 1.408 . S
C1757 C1756 1.404 . S
C1757 H1769 0.930 . S
C1758 C1754 1.524 . S
C1758 H1770 0.956 . S
C1758 H1771 0.961 . S
C1758 H1772 0.961 . S
C1759 C1756 1.539 . S
C1759 H1773 0.958 . S
C1759 H1774 0.961 . S
C1759 H1775 0.960 . S
H1760 C1744 0.931 . S
H1761 C1749 0.929 . S
H1762 C1750 0.960 . S
H1763 C1750 0.962 . S
H1764 C1750 0.960 . S
H1765 C1751 0.973 . S
H1766 C1751 0.961 . S
H1767 C1751 0.961 1_655 S
H1768 C1752 0.931 . S
H1769 C1757 0.930 . S
H1770 C1758 0.956 . S
H1771 C1758 0.961 . S
H1772 C1758 0.961 . S
H1773 C1759 0.958 . S
H1774 C1759 0.961 . S
H1775 C1759 0.960 . S
C1776 C1777 1.391 . S
C1776 C1778 1.394 . S
C1776 H1792 0.931 . S
C1777 C1776 1.391 . S
C1777 C1781 1.376 . S
C1778 C1776 1.394 . S
C1778 C1779 1.369 . S
C1778 C1782 1.531 . S
C1779 C1778 1.369 . S
C1779 C1780 1.410 . S
C1779 C1787 1.503 . S
C1780 C1779 1.410 . S
C1780 C1781 1.392 . S
C1780 C1783 1.511 . S
C1781 C1777 1.376 . S
C1781 C1780 1.392 . S
C1781 H1793 0.929 . S
C1782 C1778 1.531 . S
C1782 H1794 0.960 . S
C1782 H1795 0.962 . S
C1782 H1796 0.960 . S
C1783 C1780 1.511 . S
C1783 H1797 0.961 . S
C1783 H1798 0.961 . S
C1783 H1799 0.961 . S
C1784 C1785 1.370 . S
C1784 C1786 1.363 . S
C1784 H1800 0.931 . S
C1785 C1784 1.370 . S
C1785 C1789 1.408 . S
C1786 C1784 1.363 . S
C1786 C1787 1.370 . S
C1786 C1790 1.524 . S
C1787 C1779 1.503 . S
C1787 C1786 1.370 . S
C1787 C1788 1.403 . S
C1788 C1787 1.403 . S
C1788 C1789 1.404 . S
C1788 C1791 1.539 . S
C1789 C1785 1.408 . S
C1789 C1788 1.404 . S
C1789 H1801 0.930 . S
C1790 C1786 1.524 . S
C1790 H1802 0.956 . S
C1790 H1803 0.961 . S
C1790 H1804 0.961 . S
C1791 C1788 1.539 . S
C1791 H1805 0.958 . S
C1791 H1806 0.961 . S
C1791 H1807 0.960 . S
H1792 C1776 0.931 . S
H1793 C1781 0.929 . S
H1794 C1782 0.960 . S
H1795 C1782 0.962 . S
H1796 C1782 0.960 . S
H1797 C1783 0.961 . S
H1798 C1783 0.961 . S
H1799 C1783 0.961 . S
H1800 C1784 0.931 . S
H1801 C1789 0.930 . S
H1802 C1790 0.956 . S
H1803 C1790 0.961 . S
H1804 C1790 0.961 . S
H1805 C1791 0.958 . S
H1806 C1791 0.961 . S
H1807 C1791 0.960 . S
C1808 C1809 1.391 . S
C1808 C1810 1.394 . S
C1808 H1824 0.931 . S
C1809 C1808 1.391 . S
C1809 C1813 1.376 . S
C1810 C1808 1.394 . S
C1810 C1811 1.369 . S
C1810 C1814 1.531 . S
C1811 C1810 1.369 . S
C1811 C1812 1.410 . S
C1811 C1819 1.503 . S
C1812 C1811 1.410 . S
C1812 C1813 1.392 . S
C1812 C1815 1.511 . S
C1813 C1809 1.376 . S
C1813 C1812 1.392 . S
C1813 H1825 0.929 . S
C1814 C1810 1.531 . S
C1814 H1826 0.960 . S
C1814 H1827 0.962 . S
C1814 H1828 0.960 . S
C1815 C1812 1.511 . S
C1815 H1829 0.961 . S
C1815 H1830 0.961 . S
C1815 H1831 0.961 . S
C1816 C1817 1.370 . S
C1816 C1818 1.363 . S
C1816 H1832 0.931 . S
C1817 C1816 1.370 . S
C1817 C1821 1.408 . S
C1818 C1816 1.363 . S
C1818 C1819 1.370 . S
C1818 C1822 1.524 . S
C1819 C1811 1.503 . S
C1819 C1818 1.370 . S
C1819 C1820 1.403 . S
C1820 C1819 1.403 . S
C1820 C1821 1.404 . S
C1820 C1823 1.539 . S
C1821 C1817 1.408 . S
C1821 C1820 1.404 . S
C1821 H1833 0.930 . S
C1822 C1818 1.524 . S
C1822 H1834 0.956 . S
C1822 H1835 0.961 . S
C1822 H1836 0.961 . S
C1823 C1820 1.539 . S
C1823 H1837 0.958 . S
C1823 H1838 0.961 . S
C1823 H1839 0.960 . S
H1824 C1808 0.931 . S
H1825 C1813 0.929 . S
H1826 C1814 0.960 . S
H1827 C1814 0.962 . S
H1828 C1814 0.960 . S
H1829 C1815 0.961 . S
H1830 C1815 0.961 . S
H1831 C1815 0.961 . S
H1832 C1816 0.931 . S
H1833 C1821 0.930 . S
H1834 C1822 0.956 . S
H1835 C1822 0.961 . S
H1836 C1822 0.961 . S
H1837 C1823 0.958 . S
H1838 C1823 0.961 . S
H1839 C1823 0.960 . S
C1840 C1841 1.391 . S
C1840 C1842 1.394 . S
C1840 H1856 0.931 . S
C1841 C1840 1.391 . S
C1841 C1845 1.376 . S
C1842 C1840 1.394 . S
C1842 C1843 1.369 . S
C1842 C1846 1.531 . S
C1843 C1842 1.369 . S
C1843 C1844 1.410 . S
C1843 C1851 1.503 . S
C1844 C1843 1.410 . S
C1844 C1845 1.392 . S
C1844 C1847 1.511 . S
C1845 C1841 1.376 . S
C1845 C1844 1.392 . S
C1845 H1857 0.929 . S
C1846 C1842 1.531 . S
C1846 H1858 0.960 . S
C1846 H1859 0.962 . S
C1846 H1860 0.960 . S
C1847 C1844 1.511 . S
C1847 H1861 0.961 . S
C1847 H1862 0.961 . S
C1847 H1863 0.961 . S
C1848 C1849 1.370 . S
C1848 C1850 1.363 . S
C1848 H1864 0.931 . S
C1849 C1848 1.370 . S
C1849 C1853 1.408 . S
C1850 C1848 1.363 . S
C1850 C1851 1.370 . S
C1850 C1854 1.524 . S
C1851 C1843 1.503 . S
C1851 C1850 1.370 . S
C1851 C1852 1.403 . S
C1852 C1851 1.403 . S
C1852 C1853 1.404 . S
C1852 C1855 1.539 . S
C1853 C1849 1.408 . S
C1853 C1852 1.404 . S
C1853 H1865 0.930 . S
C1854 C1850 1.524 . S
C1854 H1866 0.956 . S
C1854 H1867 0.961 . S
C1854 H1868 0.961 . S
C1855 C1852 1.539 . S
C1855 H1869 0.958 . S
C1855 H1870 0.961 . S
C1855 H1871 0.960 . S
H1856 C1840 0.931 . S
H1857 C1845 0.929 . S
H1858 C1846 0.960 . S
H1859 C1846 0.962 . S
H1860 C1846 0.960 . S
H1861 C1847 0.961 . S
H1862 C1847 0.961 . S
H1863 C1847 0.961 . S
H1864 C1848 0.931 . S
H1865 C1853 0.930 . S
H1866 C1854 0.956 . S
H1867 C1854 0.961 . S
H1868 C1854 0.961 . S
H1869 C1855 0.958 . S
H1870 C1855 0.961 . S
H1871 C1855 0.960 . S
C1872 C1873 1.391 . S
C1872 C1874 1.394 . S
C1872 H1888 0.931 . S
C1873 C1872 1.391 . S
C1873 C1877 1.376 . S
C1874 C1872 1.394 . S
C1874 C1875 1.369 . S
C1874 C1878 1.531 . S
C1875 C1874 1.369 . S
C1875 C1876 1.410 . S
C1875 C1883 1.503 . S
C1876 C1875 1.410 . S
C1876 C1877 1.392 . S
C1876 C1879 1.511 1_455 S
C1877 C1873 1.376 . S
C1877 C1876 1.392 . S
C1877 H1889 0.929 . S
C1878 C1874 1.531 . S
C1878 H1890 0.960 . S
C1878 H1891 0.962 . S
C1878 H1892 0.960 . S
C1879 C1876 1.511 1_655 S
C1879 H1893 0.961 . S
C1879 H1894 0.961 . S
C1879 H1895 0.961 . S
C1880 C1881 1.370 . S
C1880 C1882 1.363 . S
C1880 H1896 0.931 . S
C1881 C1880 1.370 . S
C1881 C1885 1.408 . S
C1882 C1880 1.363 . S
C1882 C1883 1.370 . S
C1882 C1886 1.524 . S
C1883 C1875 1.503 . S
C1883 C1882 1.370 . S
C1883 C1884 1.403 . S
C1884 C1883 1.403 . S
C1884 C1885 1.404 . S
C1884 C1887 1.539 . S
C1885 C1881 1.408 . S
C1885 C1884 1.404 . S
C1885 H1897 0.930 1_455 S
C1886 C1882 1.524 . S
C1886 H1898 0.956 . S
C1886 H1899 0.961 . S
C1886 H1900 0.961 . S
C1887 C1884 1.539 . S
C1887 H1901 0.958 . S
C1887 H1902 0.961 1_455 S
C1887 H1903 0.960 . S
H1888 C1872 0.931 . S
H1889 C1877 0.929 . S
H1890 C1878 0.960 . S
H1891 C1878 0.962 . S
H1892 C1878 0.960 . S
H1893 C1879 0.961 . S
H1894 C1879 0.961 . S
H1895 C1879 0.961 . S
H1896 C1880 0.931 . S
H1897 C1885 0.930 1_655 S
H1898 C1886 0.956 . S
H1899 C1886 0.961 . S
H1900 C1886 0.961 . S
H1901 C1887 0.958 . S
H1902 C1887 0.961 1_655 S
H1903 C1887 0.960 . S
C1904 C1905 1.391 . S
C1904 C1906 1.394 . S
C1904 H1920 0.931 . S
C1905 C1904 1.391 . S
C1905 C1909 1.376 . S
C1906 C1904 1.394 . S
C1906 C1907 1.369 . S
C1906 C1910 1.531 . S
C1907 C1906 1.369 . S
C1907 C1908 1.410 . S
C1907 C1915 1.503 . S
C1908 C1907 1.410 . S
C1908 C1909 1.392 . S
C1908 C1911 1.511 . S
C1909 C1905 1.376 . S
C1909 C1908 1.392 . S
C1909 H1921 0.929 . S
C1910 C1906 1.531 . S
C1910 H1922 0.960 . S
C1910 H1923 0.962 . S
C1910 H1924 0.960 . S
C1911 C1908 1.511 . S
C1911 H1925 0.961 . S
C1911 H1926 0.961 . S
C1911 H1927 0.961 . S
C1912 C1913 1.370 . S
C1912 C1914 1.363 . S
C1912 H1928 0.931 . S
C1913 C1912 1.370 . S
C1913 C1917 1.408 . S
C1914 C1912 1.363 . S
C1914 C1915 1.370 . S
C1914 C1918 1.524 . S
C1915 C1907 1.503 . S
C1915 C1914 1.370 . S
C1915 C1916 1.403 . S
C1916 C1915 1.403 . S
C1916 C1917 1.404 . S
C1916 C1919 1.539 . S
C1917 C1913 1.408 . S
C1917 C1916 1.404 . S
C1917 H1929 0.930 . S
C1918 C1914 1.524 . S
C1918 H1930 0.956 . S
C1918 H1931 0.961 . S
C1918 H1932 0.961 . S
C1919 C1916 1.539 . S
C1919 H1933 0.958 . S
C1919 H1934 0.961 . S
C1919 H1935 0.960 . S
H1920 C1904 0.931 . S
H1921 C1909 0.929 . S
H1922 C1910 0.960 . S
H1923 C1910 0.962 . S
H1924 C1910 0.960 . S
H1925 C1911 0.961 . S
H1926 C1911 0.961 . S
H1927 C1911 0.961 . S
H1928 C1912 0.931 . S
H1929 C1917 0.930 . S
H1930 C1918 0.956 . S
H1931 C1918 0.961 . S
H1932 C1918 0.961 . S
H1933 C1919 0.958 . S
H1934 C1919 0.961 . S
H1935 C1919 0.960 . S
C1936 C1937 1.391 1_554 S
C1936 C1938 1.394 . S
C1936 H1952 0.931 . S
C1937 C1936 1.391 1_556 S
C1937 C1941 1.376 . S
C1938 C1936 1.394 . S
C1938 C1939 1.369 . S
C1938 C1942 1.531 . S
C1939 C1938 1.369 . S
C1939 C1940 1.410 1_554 S
C1939 C1947 1.503 . S
C1940 C1939 1.410 1_556 S
C1940 C1941 1.392 . S
C1940 C1943 1.511 . S
C1941 C1937 1.376 . S
C1941 C1940 1.392 . S
C1941 H1953 0.929 . S
C1942 C1938 1.531 . S
C1942 H1954 0.960 . S
C1942 H1955 0.962 . S
C1942 H1956 0.960 . S
C1943 C1940 1.511 . S
C1943 H1957 0.961 . S
C1943 H1958 0.961 . S
C1943 H1959 0.961 1_556 S
C1944 C1945 1.370 . S
C1944 C1946 1.363 . S
C1944 H1960 0.931 . S
C1945 C1944 1.370 . S
C1945 C1949 1.408 . S
C1946 C1944 1.363 . S
C1946 C1947 1.370 . S
C1946 C1950 1.524 1_554 S
C1947 C1939 1.503 . S
C1947 C1946 1.370 . S
C1947 C1948 1.403 . S
C1948 C1947 1.403 . S
C1948 C1949 1.404 . S
C1948 C1951 1.539 . S
C1949 C1945 1.408 . S
C1949 C1948 1.404 . S
C1949 H1961 0.930 . S
C1950 C1946 1.524 1_556 S
C1950 H1962 0.956 . S
C1950 H1963 0.961 . S
C1950 H1964 0.961 . S
C1951 C1948 1.539 . S
C1951 H1965 0.958 . S
C1951 H1966 0.961 . S
C1951 H1967 0.960 . S
H1952 C1936 0.931 . S
H1953 C1941 0.929 . S
H1954 C1942 0.960 . S
H1955 C1942 0.962 . S
H1956 C1942 0.960 . S
H1957 C1943 0.961 . S
H1958 C1943 0.961 . S
H1959 C1943 0.961 1_554 S
H1960 C1944 0.931 . S
H1961 C1949 0.930 . S
H1962 C1950 0.956 . S
H1963 C1950 0.961 . S
H1964 C1950 0.961 . S
H1965 C1951 0.958 . S
H1966 C1951 0.961 . S
H1967 C1951 0.960 . S
C1968 C1969 1.391 . S
C1968 C1970 1.394 . S
C1968 H1984 0.931 . S
C1969 C1968 1.391 . S
C1969 C1973 1.376 . S
C1970 C1968 1.394 . S
C1970 C1971 1.369 . S
C1970 C1974 1.531 . S
C1971 C1970 1.369 . S
C1971 C1972 1.410 . S
C1971 C1979 1.503 . S
C1972 C1971 1.410 . S
C1972 C1973 1.392 . S
C1972 C1975 1.511 . S
C1973 C1969 1.376 . S
C1973 C1972 1.392 . S
C1973 H1985 0.929 . S
C1974 C1970 1.531 . S
C1974 H1986 0.960 . S
C1974 H1987 0.962 . S
C1974 H1988 0.960 . S
C1975 C1972 1.511 . S
C1975 H1989 0.961 . S
C1975 H1990 0.961 . S
C1975 H1991 0.961 . S
C1976 C1977 1.370 . S
C1976 C1978 1.363 . S
C1976 H1992 0.931 . S
C1977 C1976 1.370 . S
C1977 C1981 1.408 . S
C1978 C1976 1.363 . S
C1978 C1979 1.370 . S
C1978 C1982 1.524 . S
C1979 C1971 1.503 . S
C1979 C1978 1.370 . S
C1979 C1980 1.403 . S
C1980 C1979 1.403 . S
C1980 C1981 1.404 . S
C1980 C1983 1.539 . S
C1981 C1977 1.408 . S
C1981 C1980 1.404 . S
C1981 H1993 0.930 . S
C1982 C1978 1.524 . S
C1982 H1994 0.956 . S
C1982 H1995 0.961 . S
C1982 H1996 0.961 . S
C1983 C1980 1.539 . S
C1983 H1997 0.958 . S
C1983 H1998 0.961 . S
C1983 H1999 0.960 . S
H1984 C1968 0.931 . S
H1985 C1973 0.929 . S
H1986 C1974 0.960 . S
H1987 C1974 0.962 . S
H1988 C1974 0.960 . S
H1989 C1975 0.961 . S
H1990 C1975 0.961 . S
H1991 C1975 0.961 . S
H1992 C1976 0.931 . S
H1993 C1981 0.930 . S
H1994 C1982 0.956 . S
H1995 C1982 0.961 . S
H1996 C1982 0.961 . S
H1997 C1983 0.958 . S
H1998 C1983 0.961 . S
H1999 C1983 0.960 . S
C2000 C2001 1.391 1_565 S
C2000 C2002 1.394 . S
C2000 H2016 0.931 . S
C2001 C2000 1.391 1_545 S
C2001 C2005 1.376 . S
C2002 C2000 1.394 . S
C2002 C2003 1.369 . S
C2002 C2006 1.531 . S
C2003 C2002 1.369 . S
C2003 C2004 1.410 1_565 S
C2003 C2011 1.503 . S
C2004 C2003 1.410 1_545 S
C2004 C2005 1.392 . S
C2004 C2007 1.511 . S
C2005 C2001 1.376 . S
C2005 C2004 1.392 . S
C2005 H2017 0.929 . S
C2006 C2002 1.531 . S
C2006 H2018 0.960 . S
C2006 H2019 0.962 . S
C2006 H2020 0.960 . S
C2007 C2004 1.511 . S
C2007 H2021 0.961 . S
C2007 H2022 0.961 . S
C2007 H2023 0.961 1_545 S
C2008 C2009 1.370 . S
C2008 C2010 1.363 . S
C2008 H2024 0.931 . S
C2009 C2008 1.370 . S
C2009 C2013 1.408 1_545 S
C2010 C2008 1.363 . S
C2010 C2011 1.363 1_545 S
C2010 C2014 1.524 . S
C2011 C2003 1.503 . S
C2011 C2010 1.363 1_565 S
C2011 C2012 1.410 . S
C2012 C2011 1.410 . S
C2012 C2013 1.404 . S
C2012 C2015 1.539 . S
C2013 C2009 1.408 1_565 S
C2013 C2012 1.404 . S
C2013 H2025 0.930 . S
C2014 C2010 1.524 . S
C2014 H2026 0.956 . S
C2014 H2027 0.961 . S
C2014 H2028 0.961 . S
C2015 C2012 1.539 . S
C2015 H2029 0.958 . S
C2015 H2030 0.961 . S
C2015 H2031 0.960 . S
H2016 C2000 0.931 . S
H2017 C2005 0.929 . S
H2018 C2006 0.960 . S
H2019 C2006 0.962 . S
H2020 C2006 0.960 . S
H2021 C2007 0.961 . S
H2022 C2007 0.961 . S
H2023 C2007 0.961 1_565 S
H2024 C2008 0.931 . S
H2025 C2013 0.930 . S
H2026 C2014 0.956 . S
H2027 C2014 0.961 . S
H2028 C2014 0.961 . S
H2029 C2015 0.958 . S
H2030 C2015 0.961 . S
H2031 C2015 0.960 . S
C2032 C2033 1.391 . S
C2032 C2034 1.394 . S
C2032 H2048 0.931 . S
C2033 C2032 1.391 . S
C2033 C2037 1.376 . S
C2034 C2032 1.394 . S
C2034 C2035 1.369 . S
C2034 C2038 1.531 . S
C2035 C2034 1.369 . S
C2035 C2036 1.410 . S
C2035 C2043 1.503 . S
C2036 C2035 1.410 . S
C2036 C2037 1.392 . S
C2036 C2039 1.511 . S
C2037 C2033 1.376 . S
C2037 C2036 1.392 . S
C2037 H2049 0.929 . S
C2038 C2034 1.531 . S
C2038 H2050 0.960 . S
C2038 H2051 0.962 . S
C2038 H2052 0.960 . S
C2039 C2036 1.511 . S
C2039 H2053 0.961 . S
C2039 H2054 0.961 . S
C2039 H2055 0.961 . S
C2040 C2041 1.370 . S
C2040 C2042 1.363 . S
C2040 H2056 0.931 . S
C2041 C2040 1.370 . S
C2041 C2045 1.408 . S
C2042 C2040 1.363 . S
C2042 C2043 1.370 . S
C2042 C2046 1.524 . S
C2043 C2035 1.503 . S
C2043 C2042 1.370 . S
C2043 C2044 1.403 . S
C2044 C2043 1.403 . S
C2044 C2045 1.404 . S
C2044 C2047 1.539 . S
C2045 C2041 1.408 . S
C2045 C2044 1.404 . S
C2045 H2057 0.930 . S
C2046 C2042 1.524 . S
C2046 H2058 0.956 . S
C2046 H2059 0.961 . S
C2046 H2060 0.961 . S
C2047 C2044 1.539 . S
C2047 H2061 0.958 . S
C2047 H2062 0.961 . S
C2047 H2063 0.960 . S
H2048 C2032 0.931 . S
H2049 C2037 0.929 . S
H2050 C2038 0.960 . S
H2051 C2038 0.962 . S
H2052 C2038 0.960 . S
H2053 C2039 0.961 . S
H2054 C2039 0.961 . S
H2055 C2039 0.961 . S
H2056 C2040 0.931 . S
H2057 C2045 0.930 . S
H2058 C2046 0.956 . S
H2059 C2046 0.961 . S
H2060 C2046 0.961 . S
H2061 C2047 0.958 . S
H2062 C2047 0.961 . S
H2063 C2047 0.960 . S
C2064 C2065 1.391 . S
C2064 C2066 1.394 . S
C2064 H2080 0.931 . S
C2065 C2064 1.391 . S
C2065 C2069 1.376 . S
C2066 C2064 1.394 . S
C2066 C2067 1.369 . S
C2066 C2070 1.531 . S
C2067 C2066 1.369 . S
C2067 C2068 1.410 . S
C2067 C2075 1.503 . S
C2068 C2067 1.410 . S
C2068 C2069 1.392 . S
C2068 C2071 1.511 . S
C2069 C2065 1.376 . S
C2069 C2068 1.392 . S
C2069 H2081 0.929 . S
C2070 C2066 1.531 . S
C2070 H2082 0.960 . S
C2070 H2083 0.962 . S
C2070 H2084 0.960 . S
C2071 C2068 1.511 . S
C2071 H2085 0.961 . S
C2071 H2086 0.961 . S
C2071 H2087 0.961 . S
C2072 C2073 1.370 . S
C2072 C2074 1.363 . S
C2072 H2088 0.931 1_545 S
C2073 C2072 1.370 . S
C2073 C2077 1.408 . S
C2074 C2072 1.363 . S
C2074 C2075 1.370 . S
C2074 C2078 1.524 1_545 S
C2075 C2067 1.503 . S
C2075 C2074 1.370 . S
C2075 C2076 1.403 . S
C2076 C2075 1.403 . S
C2076 C2077 1.404 . S
C2076 C2079 1.539 . S
C2077 C2073 1.408 . S
C2077 C2076 1.404 . S
C2077 H2089 0.930 . S
C2078 C2074 1.524 1_565 S
C2078 H2090 0.956 . S
C2078 H2091 0.961 . S
C2078 H2092 0.961 . S
C2079 C2076 1.539 . S
C2079 H2093 0.958 . S
C2079 H2094 0.961 . S
C2079 H2095 0.960 . S
H2080 C2064 0.931 . S
H2081 C2069 0.929 . S
H2082 C2070 0.960 . S
H2083 C2070 0.962 . S
H2084 C2070 0.960 . S
H2085 C2071 0.961 . S
H2086 C2071 0.961 . S
H2087 C2071 0.961 . S
H2088 C2072 0.931 1_565 S
H2089 C2077 0.930 . S
H2090 C2078 0.956 . S
H2091 C2078 0.961 . S
H2092 C2078 0.961 . S
H2093 C2079 0.958 . S
H2094 C2079 0.961 . S
H2095 C2079 0.960 . S
C2096 C2097 1.391 . S
C2096 C2098 1.394 . S
C2096 H2112 0.931 . S
C2097 C2096 1.391 . S
C2097 C2101 1.376 . S
C2098 C2096 1.394 . S
C2098 C2099 1.369 . S
C2098 C2102 1.531 . S
C2099 C2098 1.369 . S
C2099 C2100 1.410 . S
C2099 C2107 1.503 . S
C2100 C2099 1.410 . S
C2100 C2101 1.392 . S
C2100 C2103 1.511 . S
C2101 C2097 1.376 . S
C2101 C2100 1.392 . S
C2101 H2113 0.929 . S
C2102 C2098 1.531 . S
C2102 H2114 0.960 . S
C2102 H2115 0.962 . S
C2102 H2116 0.960 . S
C2103 C2100 1.511 . S
C2103 H2117 0.961 . S
C2103 H2118 0.961 . S
C2103 H2119 0.961 . S
C2104 C2105 1.370 . S
C2104 C2106 1.363 . S
C2104 H2120 0.931 . S
C2105 C2104 1.370 . S
C2105 C2109 1.408 . S
C2106 C2104 1.363 . S
C2106 C2107 1.370 . S
C2106 C2110 1.524 . S
C2107 C2099 1.503 . S
C2107 C2106 1.370 . S
C2107 C2108 1.403 . S
C2108 C2107 1.403 . S
C2108 C2109 1.404 . S
C2108 C2111 1.539 . S
C2109 C2105 1.408 . S
C2109 C2108 1.404 . S
C2109 H2121 0.930 . S
C2110 C2106 1.524 . S
C2110 H2122 0.956 . S
C2110 H2123 0.961 . S
C2110 H2124 0.961 . S
C2111 C2108 1.539 . S
C2111 H2125 0.958 . S
C2111 H2126 0.961 . S
C2111 H2127 0.960 . S
H2112 C2096 0.931 . S
H2113 C2101 0.929 . S
H2114 C2102 0.960 . S
H2115 C2102 0.962 . S
H2116 C2102 0.960 . S
H2117 C2103 0.961 . S
H2118 C2103 0.961 . S
H2119 C2103 0.961 . S
H2120 C2104 0.931 . S
H2121 C2109 0.930 . S
H2122 C2110 0.956 . S
H2123 C2110 0.961 . S
H2124 C2110 0.961 . S
H2125 C2111 0.958 . S
H2126 C2111 0.961 . S
H2127 C2111 0.960 . S
C2128 C2129 1.391 1_545 S
C2128 C2130 1.394 . S
C2128 H2144 0.931 . S
C2129 C2128 1.391 1_565 S
C2129 C2133 1.376 . S
C2130 C2128 1.394 . S
C2130 C2131 1.369 . S
C2130 C2134 1.531 . S
C2131 C2130 1.369 . S
C2131 C2132 1.410 1_545 S
C2131 C2139 1.503 . S
C2132 C2131 1.410 1_565 S
C2132 C2133 1.392 . S
C2132 C2135 1.511 . S
C2133 C2129 1.376 . S
C2133 C2132 1.392 . S
C2133 H2145 0.929 . S
C2134 C2130 1.531 . S
C2134 H2146 0.960 . S
C2134 H2147 0.962 . S
C2134 H2148 0.960 . S
C2135 C2132 1.511 . S
C2135 H2149 0.961 . S
C2135 H2150 0.961 . S
C2135 H2151 0.961 . S
C2136 C2137 1.370 1_565 S
C2136 C2138 1.363 . S
C2136 H2152 0.931 . S
C2137 C2136 1.370 1_545 S
C2137 C2141 1.408 . S
C2138 C2136 1.363 . S
C2138 C2139 1.370 1_565 S
C2138 C2142 1.524 . S
C2139 C2131 1.503 . S
C2139 C2138 1.370 1_545 S
C2139 C2140 1.403 . S
C2140 C2139 1.403 . S
C2140 C2141 1.404 . S
C2140 C2143 1.539 . S
C2141 C2137 1.408 . S
C2141 C2140 1.404 . S
C2141 H2153 0.930 . S
C2142 C2138 1.524 . S
C2142 H2154 0.956 . S
C2142 H2155 0.961 . S
C2142 H2156 0.961 . S
C2143 C2140 1.539 . S
C2143 H2157 0.958 . S
C2143 H2158 0.961 . S
C2143 H2159 0.960 . S
H2144 C2128 0.931 . S
H2145 C2133 0.929 . S
H2146 C2134 0.960 . S
H2147 C2134 0.962 . S
H2148 C2134 0.960 . S
H2149 C2135 0.961 . S
H2150 C2135 0.961 . S
H2151 C2135 0.961 . S
H2152 C2136 0.931 . S
H2153 C2141 0.930 . S
H2154 C2142 0.956 . S
H2155 C2142 0.961 . S
H2156 C2142 0.961 . S
H2157 C2143 0.958 . S
H2158 C2143 0.961 . S
H2159 C2143 0.960 . S
C2160 C2161 1.391 . S
C2160 C2162 1.394 . S
C2160 H2176 0.931 . S
C2161 C2160 1.391 . S
C2161 C2165 1.376 . S
C2162 C2160 1.394 . S
C2162 C2163 1.369 . S
C2162 C2166 1.531 . S
C2163 C2162 1.369 . S
C2163 C2164 1.410 . S
C2163 C2171 1.503 . S
C2164 C2163 1.410 . S
C2164 C2165 1.392 . S
C2164 C2167 1.511 . S
C2165 C2161 1.376 . S
C2165 C2164 1.392 . S
C2165 H2177 0.929 . S
C2166 C2162 1.531 . S
C2166 H2178 0.960 . S
C2166 H2179 0.962 . S
C2166 H2180 0.960 . S
C2167 C2164 1.511 . S
C2167 H2181 0.961 . S
C2167 H2182 0.961 . S
C2167 H2183 0.961 . S
C2168 C2169 1.370 . S
C2168 C2170 1.363 . S
C2168 H2184 0.931 . S
C2169 C2168 1.370 . S
C2169 C2173 1.408 . S
C2170 C2168 1.363 . S
C2170 C2171 1.370 . S
C2170 C2174 1.524 . S
C2171 C2163 1.503 . S
C2171 C2170 1.370 . S
C2171 C2172 1.403 . S
C2172 C2171 1.403 . S
C2172 C2173 1.404 . S
C2172 C2175 1.539 . S
C2173 C2169 1.408 . S
C2173 C2172 1.404 . S
C2173 H2185 0.930 . S
C2174 C2170 1.524 . S
C2174 H2186 0.956 . S
C2174 H2187 0.961 . S
C2174 H2188 0.961 . S
C2175 C2172 1.539 . S
C2175 H2189 0.958 . S
C2175 H2190 0.961 . S
C2175 H2191 0.960 . S
H2176 C2160 0.931 . S
H2177 C2165 0.929 . S
H2178 C2166 0.960 . S
H2179 C2166 0.962 . S
H2180 C2166 0.960 . S
H2181 C2167 0.961 . S
H2182 C2167 0.961 . S
H2183 C2167 0.961 . S
H2184 C2168 0.931 . S
H2185 C2173 0.930 . S
H2186 C2174 0.956 . S
H2187 C2174 0.961 . S
H2188 C2174 0.961 . S
H2189 C2175 0.958 . S
H2190 C2175 0.961 . S
H2191 C2175 0.960 . S
C2192 C2193 1.391 1_565 S
C2192 C2194 1.394 . S
C2192 H2208 0.931 . S
C2193 C2192 1.391 1_545 S
C2193 C2197 1.376 . S
C2194 C2192 1.394 . S
C2194 C2195 1.369 1_565 S
C2194 C2198 1.531 . S
C2195 C2194 1.369 1_545 S
C2195 C2196 1.410 . S
C2195 C2203 1.503 . S
C2196 C2195 1.410 . S
C2196 C2197 1.392 . S
C2196 C2199 1.511 . S
C2197 C2193 1.376 . S
C2197 C2196 1.392 . S
C2197 H2209 0.929 . S
C2198 C2194 1.531 . S
C2198 H2210 0.960 . S
C2198 H2211 0.962 . S
C2198 H2212 0.960 . S
C2199 C2196 1.511 . S
C2199 H2213 0.961 . S
C2199 H2214 0.961 . S
C2199 H2215 0.961 . S
C2200 C2201 1.370 . S
C2200 C2202 1.363 . S
C2200 H2216 0.931 . S
C2201 C2200 1.370 . S
C2201 C2205 1.408 . S
C2202 C2200 1.363 . S
C2202 C2203 1.370 . S
C2202 C2206 1.524 . S
C2203 C2195 1.503 . S
C2203 C2202 1.370 . S
C2203 C2204 1.403 . S
C2204 C2203 1.403 . S
C2204 C2205 1.404 . S
C2204 C2207 1.539 . S
C2205 C2201 1.408 . S
C2205 C2204 1.404 . S
C2205 H2217 0.930 . S
C2206 C2202 1.524 . S
C2206 H2218 0.956 1_545 S
C2206 H2219 0.961 . S
C2206 H2220 0.961 . S
C2207 C2204 1.539 . S
C2207 H2221 0.958 . S
C2207 H2222 0.961 . S
C2207 H2223 0.960 . S
H2208 C2192 0.931 . S
H2209 C2197 0.929 . S
H2210 C2198 0.960 . S
H2211 C2198 0.962 . S
H2212 C2198 0.960 . S
H2213 C2199 0.961 . S
H2214 C2199 0.961 . S
H2215 C2199 0.961 . S
H2216 C2200 0.931 . S
H2217 C2205 0.930 . S
H2218 C2206 0.956 1_565 S
H2219 C2206 0.961 . S
H2220 C2206 0.961 . S
H2221 C2207 0.958 . S
H2222 C2207 0.961 . S
H2223 C2207 0.960 . S
C2224 C2225 1.391 . S
C2224 C2226 1.394 . S
C2224 H2240 0.931 . S
C2225 C2224 1.391 . S
C2225 C2229 1.376 . S
C2226 C2224 1.394 . S
C2226 C2227 1.369 . S
C2226 C2230 1.531 . S
C2227 C2226 1.369 . S
C2227 C2228 1.410 . S
C2227 C2235 1.503 . S
C2228 C2227 1.410 . S
C2228 C2229 1.392 . S
C2228 C2231 1.511 . S
C2229 C2225 1.376 . S
C2229 C2228 1.392 . S
C2229 H2241 0.929 . S
C2230 C2226 1.531 . S
C2230 H2242 0.960 . S
C2230 H2243 0.962 . S
C2230 H2244 0.960 . S
C2231 C2228 1.511 . S
C2231 H2245 0.961 . S
C2231 H2246 0.961 . S
C2231 H2247 0.961 . S
C2232 C2233 1.370 . S
C2232 C2234 1.363 . S
C2232 H2248 0.931 . S
C2233 C2232 1.370 . S
C2233 C2237 1.408 . S
C2234 C2232 1.363 . S
C2234 C2235 1.370 . S
C2234 C2238 1.524 . S
C2235 C2227 1.503 . S
C2235 C2234 1.370 . S
C2235 C2236 1.403 . S
C2236 C2235 1.403 . S
C2236 C2237 1.404 . S
C2236 C2239 1.539 . S
C2237 C2233 1.408 . S
C2237 C2236 1.404 . S
C2237 H2249 0.930 . S
C2238 C2234 1.524 . S
C2238 H2250 0.956 . S
C2238 H2251 0.961 . S
C2238 H2252 0.961 . S
C2239 C2236 1.539 . S
C2239 H2253 0.958 . S
C2239 H2254 0.961 . S
C2239 H2255 0.960 . S
H2240 C2224 0.931 . S
H2241 C2229 0.929 . S
H2242 C2230 0.960 . S
H2243 C2230 0.962 . S
H2244 C2230 0.960 . S
H2245 C2231 0.961 . S
H2246 C2231 0.961 . S
H2247 C2231 0.961 . S
H2248 C2232 0.931 . S
H2249 C2237 0.930 . S
H2250 C2238 0.956 . S
H2251 C2238 0.961 . S
H2252 C2238 0.961 . S
H2253 C2239 0.958 . S
H2254 C2239 0.961 . S
H2255 C2239 0.960 . S
C2256 C2257 1.391 . S
C2256 C2258 1.394 . S
C2256 H2272 0.931 . S
C2257 C2256 1.391 . S
C2257 C2261 1.376 . S
C2258 C2256 1.394 . S
C2258 C2259 1.369 . S
C2258 C2262 1.531 . S
C2259 C2258 1.369 . S
C2259 C2260 1.410 . S
C2259 C2267 1.503 . S
C2260 C2259 1.410 . S
C2260 C2261 1.392 . S
C2260 C2263 1.511 . S
C2261 C2257 1.376 . S
C2261 C2260 1.392 . S
C2261 H2273 0.929 . S
C2262 C2258 1.531 . S
C2262 H2274 0.960 . S
C2262 H2275 0.962 . S
C2262 H2276 0.960 . S
C2263 C2260 1.511 . S
C2263 H2277 0.961 . S
C2263 H2278 0.961 . S
C2263 H2279 0.961 . S
C2264 C2265 1.370 . S
C2264 C2266 1.363 . S
C2264 H2280 0.931 . S
C2265 C2264 1.370 . S
C2265 C2269 1.408 . S
C2266 C2264 1.363 . S
C2266 C2267 1.370 . S
C2266 C2270 1.524 . S
C2267 C2259 1.503 . S
C2267 C2266 1.370 . S
C2267 C2268 1.403 . S
C2268 C2267 1.403 . S
C2268 C2269 1.404 . S
C2268 C2271 1.539 . S
C2269 C2265 1.408 . S
C2269 C2268 1.404 . S
C2269 H2281 0.930 1_554 S
C2270 C2266 1.524 . S
C2270 H2282 0.956 . S
C2270 H2283 0.961 . S
C2270 H2284 0.961 . S
C2271 C2268 1.539 . S
C2271 H2285 0.938 1_554 S
C2271 H2286 0.961 . S
C2271 H2287 0.960 . S
H2272 C2256 0.931 . S
H2273 C2261 0.929 . S
H2274 C2262 0.960 . S
H2275 C2262 0.962 . S
H2276 C2262 0.960 . S
H2277 C2263 0.961 . S
H2278 C2263 0.961 . S
H2279 C2263 0.961 . S
H2280 C2264 0.931 . S
H2281 C2269 0.930 1_556 S
H2282 C2270 0.956 . S
H2283 C2270 0.961 . S
H2284 C2270 0.961 . S
H2285 C2271 0.938 1_556 S
H2286 C2271 0.961 . S
H2287 C2271 0.960 . S
C2288 C2289 1.391 . S
C2288 C2290 1.394 . S
C2288 H2304 0.931 . S
C2289 C2288 1.391 . S
C2289 C2293 1.376 . S
C2290 C2288 1.394 . S
C2290 C2291 1.369 . S
C2290 C2294 1.531 . S
C2291 C2290 1.369 . S
C2291 C2292 1.410 . S
C2291 C2299 1.503 . S
C2292 C2291 1.410 . S
C2292 C2293 1.392 . S
C2292 C2295 1.511 . S
C2293 C2289 1.376 . S
C2293 C2292 1.392 . S
C2293 H2305 0.929 . S
C2294 C2290 1.531 . S
C2294 H2306 0.960 . S
C2294 H2307 0.962 . S
C2294 H2308 0.960 . S
C2295 C2292 1.511 . S
C2295 H2309 0.961 . S
C2295 H2310 0.961 . S
C2295 H2311 0.961 . S
C2296 C2297 1.370 . S
C2296 C2298 1.363 . S
C2296 H2312 0.931 . S
C2297 C2296 1.370 . S
C2297 C2301 1.408 . S
C2298 C2296 1.363 . S
C2298 C2299 1.370 . S
C2298 C2302 1.524 . S
C2299 C2291 1.503 . S
C2299 C2298 1.370 . S
C2299 C2300 1.403 . S
C2300 C2299 1.403 . S
C2300 C2301 1.404 . S
C2300 C2303 1.539 . S
C2301 C2297 1.408 . S
C2301 C2300 1.404 . S
C2301 H2313 0.930 . S
C2302 C2298 1.524 . S
C2302 H2314 0.956 . S
C2302 H2315 0.961 . S
C2302 H2316 0.961 1_554 S
C2303 C2300 1.539 . S
C2303 H2317 0.958 . S
C2303 H2318 0.961 . S
C2303 H2319 0.960 . S
H2304 C2288 0.931 . S
H2305 C2293 0.929 . S
H2306 C2294 0.960 . S
H2307 C2294 0.962 . S
H2308 C2294 0.960 . S
H2309 C2295 0.961 . S
H2310 C2295 0.961 . S
H2311 C2295 0.961 . S
H2312 C2296 0.931 . S
H2313 C2301 0.930 . S
H2314 C2302 0.956 . S
H2315 C2302 0.961 . S
H2316 C2302 0.961 1_556 S
H2317 C2303 0.958 . S
H2318 C2303 0.961 . S
H2319 C2303 0.960 . S
C2320 C2321 1.391 . S
C2320 C2322 1.394 . S
C2320 H2336 0.931 . S
C2321 C2320 1.391 . S
C2321 C2325 1.376 . S
C2322 C2320 1.394 . S
C2322 C2323 1.369 . S
C2322 C2326 1.531 . S
C2323 C2322 1.369 . S
C2323 C2324 1.410 . S
C2323 C2331 1.503 . S
C2324 C2323 1.410 . S
C2324 C2325 1.392 . S
C2324 C2327 1.511 . S
C2325 C2321 1.376 . S
C2325 C2324 1.392 . S
C2325 H2337 0.929 . S
C2326 C2322 1.531 . S
C2326 H2338 0.960 . S
C2326 H2339 0.962 . S
C2326 H2340 0.960 . S
C2327 C2324 1.511 . S
C2327 H2341 0.961 . S
C2327 H2342 0.961 . S
C2327 H2343 0.961 . S
C2328 C2329 1.370 . S
C2328 C2330 1.363 . S
C2328 H2344 0.931 . S
C2329 C2328 1.370 . S
C2329 C2333 1.408 . S
C2330 C2328 1.363 . S
C2330 C2331 1.370 . S
C2330 C2334 1.524 . S
C2331 C2323 1.503 . S
C2331 C2330 1.370 . S
C2331 C2332 1.403 . S
C2332 C2331 1.403 . S
C2332 C2333 1.404 . S
C2332 C2335 1.539 . S
C2333 C2329 1.408 . S
C2333 C2332 1.404 . S
C2333 H2345 0.930 . S
C2334 C2330 1.524 . S
C2334 H2346 0.956 . S
C2334 H2347 0.961 . S
C2334 H2348 0.961 . S
C2335 C2332 1.539 . S
C2335 H2349 0.958 . S
C2335 H2350 0.961 . S
C2335 H2351 0.960 . S
H2336 C2320 0.931 . S
H2337 C2325 0.929 . S
H2338 C2326 0.960 . S
H2339 C2326 0.962 . S
H2340 C2326 0.960 . S
H2341 C2327 0.961 . S
H2342 C2327 0.961 . S
H2343 C2327 0.961 . S
H2344 C2328 0.931 . S
H2345 C2333 0.930 . S
H2346 C2334 0.956 . S
H2347 C2334 0.961 . S
H2348 C2334 0.961 . S
H2349 C2335 0.958 . S
H2350 C2335 0.961 . S
H2351 C2335 0.960 . S
C2352 C2353 1.391 . S
C2352 C2354 1.394 . S
C2352 H2368 0.931 . S
C2353 C2352 1.391 . S
C2353 C2357 1.376 . S
C2354 C2352 1.394 . S
C2354 C2355 1.369 . S
C2354 C2358 1.531 . S
C2355 C2354 1.369 . S
C2355 C2356 1.410 . S
C2355 C2363 1.503 . S
C2356 C2355 1.410 . S
C2356 C2357 1.392 . S
C2356 C2359 1.511 . S
C2357 C2353 1.376 . S
C2357 C2356 1.392 . S
C2357 H2369 0.929 . S
C2358 C2354 1.531 . S
C2358 H2370 0.960 . S
C2358 H2371 0.962 . S
C2358 H2372 0.960 . S
C2359 C2356 1.511 . S
C2359 H2373 0.961 . S
C2359 H2374 0.961 . S
C2359 H2375 0.961 . S
C2360 C2361 1.370 . S
C2360 C2362 1.363 . S
C2360 H2376 0.931 . S
C2361 C2360 1.370 . S
C2361 C2365 1.408 . S
C2362 C2360 1.363 . S
C2362 C2363 1.370 . S
C2362 C2366 1.524 . S
C2363 C2355 1.503 . S
C2363 C2362 1.370 . S
C2363 C2364 1.403 . S
C2364 C2363 1.403 . S
C2364 C2365 1.404 . S
C2364 C2367 1.539 . S
C2365 C2361 1.408 . S
C2365 C2364 1.404 . S
C2365 H2377 0.930 . S
C2366 C2362 1.524 . S
C2366 H2378 0.956 . S
C2366 H2379 0.961 . S
C2366 H2380 0.961 . S
C2367 C2364 1.539 . S
C2367 H2381 0.958 . S
C2367 H2382 0.961 . S
C2367 H2383 0.960 . S
H2368 C2352 0.931 . S
H2369 C2357 0.929 . S
H2370 C2358 0.960 . S
H2371 C2358 0.962 . S
H2372 C2358 0.960 . S
H2373 C2359 0.961 . S
H2374 C2359 0.961 . S
H2375 C2359 0.961 . S
H2376 C2360 0.931 . S
H2377 C2365 0.930 . S
H2378 C2366 0.956 . S
H2379 C2366 0.961 . S
H2380 C2366 0.961 . S
H2381 C2367 0.958 . S
H2382 C2367 0.961 . S
H2383 C2367 0.960 . S
C2384 C2385 1.391 . S
C2384 C2386 1.394 . S
C2384 H2400 0.931 . S
C2385 C2384 1.391 . S
C2385 C2389 1.376 . S
C2386 C2384 1.394 . S
C2386 C2387 1.369 . S
C2386 C2390 1.531 . S
C2387 C2386 1.369 . S
C2387 C2388 1.410 . S
C2387 C2395 1.503 . S
C2388 C2387 1.410 . S
C2388 C2389 1.392 . S
C2388 C2391 1.511 . S
C2389 C2385 1.376 . S
C2389 C2388 1.392 . S
C2389 H2401 0.929 . S
C2390 C2386 1.531 . S
C2390 H2402 0.960 . S
C2390 H2403 0.962 . S
C2390 H2404 0.960 . S
C2391 C2388 1.511 . S
C2391 H2405 0.961 . S
C2391 H2406 0.961 . S
C2391 H2407 0.961 . S
C2392 C2393 1.370 . S
C2392 C2394 1.363 . S
C2392 H2408 0.931 . S
C2393 C2392 1.370 . S
C2393 C2397 1.408 . S
C2394 C2392 1.363 . S
C2394 C2395 1.370 . S
C2394 C2398 1.524 . S
C2395 C2387 1.503 . S
C2395 C2394 1.370 . S
C2395 C2396 1.403 . S
C2396 C2395 1.403 . S
C2396 C2397 1.404 . S
C2396 C2399 1.539 . S
C2397 C2393 1.408 . S
C2397 C2396 1.404 . S
C2397 H2409 0.930 . S
C2398 C2394 1.524 . S
C2398 H2410 0.956 . S
C2398 H2411 0.961 . S
C2398 H2412 0.961 . S
C2399 C2396 1.539 . S
C2399 H2413 0.958 . S
C2399 H2414 0.961 . S
C2399 H2415 0.960 . S
H2400 C2384 0.931 . S
H2401 C2389 0.929 . S
H2402 C2390 0.960 . S
H2403 C2390 0.962 . S
H2404 C2390 0.960 . S
H2405 C2391 0.961 . S
H2406 C2391 0.961 . S
H2407 C2391 0.961 . S
H2408 C2392 0.931 . S
H2409 C2397 0.930 . S
H2410 C2398 0.956 . S
H2411 C2398 0.961 . S
H2412 C2398 0.961 . S
H2413 C2399 0.958 . S
H2414 C2399 0.961 . S
H2415 C2399 0.960 . S
C2416 C2417 1.391 . S
C2416 C2418 1.394 . S
C2416 H2432 0.931 . S
C2417 C2416 1.391 . S
C2417 C2421 1.376 . S
C2418 C2416 1.394 . S
C2418 C2419 1.369 . S
C2418 C2422 1.531 . S
C2419 C2418 1.369 . S
C2419 C2420 1.410 . S
C2419 C2427 1.503 . S
C2420 C2419 1.410 . S
C2420 C2421 1.392 . S
C2420 C2423 1.511 . S
C2421 C2417 1.376 . S
C2421 C2420 1.392 . S
C2421 H2433 0.929 . S
C2422 C2418 1.531 . S
C2422 H2434 0.960 . S
C2422 H2435 0.962 . S
C2422 H2436 0.960 . S
C2423 C2420 1.511 . S
C2423 H2437 0.961 . S
C2423 H2438 0.961 . S
C2423 H2439 0.961 . S
C2424 C2425 1.370 . S
C2424 C2426 1.363 . S
C2424 H2440 0.931 . S
C2425 C2424 1.370 . S
C2425 C2429 1.408 . S
C2426 C2424 1.363 . S
C2426 C2427 1.370 . S
C2426 C2430 1.524 . S
C2427 C2419 1.503 . S
C2427 C2426 1.370 . S
C2427 C2428 1.403 . S
C2428 C2427 1.403 . S
C2428 C2429 1.404 . S
C2428 C2431 1.539 . S
C2429 C2425 1.408 . S
C2429 C2428 1.404 . S
C2429 H2441 0.930 . S
C2430 C2426 1.524 . S
C2430 H2442 0.956 . S
C2430 H2443 0.961 . S
C2430 H2444 0.961 . S
C2431 C2428 1.539 . S
C2431 H2445 0.958 . S
C2431 H2446 0.961 . S
C2431 H2447 0.960 . S
H2432 C2416 0.931 . S
H2433 C2421 0.929 . S
H2434 C2422 0.960 . S
H2435 C2422 0.962 . S
H2436 C2422 0.960 . S
H2437 C2423 0.961 . S
H2438 C2423 0.961 . S
H2439 C2423 0.961 . S
H2440 C2424 0.931 . S
H2441 C2429 0.930 . S
H2442 C2430 0.956 . S
H2443 C2430 0.961 . S
H2444 C2430 0.961 . S
H2445 C2431 0.958 . S
H2446 C2431 0.961 . S
H2447 C2431 0.960 . S
C2448 C2449 1.391 . S
C2448 C2450 1.394 . S
C2448 H2464 0.931 . S
C2449 C2448 1.391 . S
C2449 C2453 1.376 . S
C2450 C2448 1.394 . S
C2450 C2451 1.369 . S
C2450 C2454 1.531 . S
C2451 C2450 1.369 . S
C2451 C2452 1.410 . S
C2451 C2459 1.503 . S
C2452 C2451 1.410 . S
C2452 C2453 1.392 . S
C2452 C2455 1.511 . S
C2453 C2449 1.376 . S
C2453 C2452 1.392 . S
C2453 H2465 0.929 . S
C2454 C2450 1.531 . S
C2454 H2466 0.960 . S
C2454 H2467 0.962 . S
C2454 H2468 0.960 . S
C2455 C2452 1.511 . S
C2455 H2469 0.961 . S
C2455 H2470 0.961 . S
C2455 H2471 0.961 . S
C2456 C2457 1.370 . S
C2456 C2458 1.363 . S
C2456 H2472 0.931 . S
C2457 C2456 1.370 . S
C2457 C2461 1.408 . S
C2458 C2456 1.363 . S
C2458 C2459 1.370 . S
C2458 C2462 1.524 . S
C2459 C2451 1.503 . S
C2459 C2458 1.370 . S
C2459 C2460 1.403 . S
C2460 C2459 1.403 . S
C2460 C2461 1.404 . S
C2460 C2463 1.539 . S
C2461 C2457 1.408 . S
C2461 C2460 1.404 . S
C2461 H2473 0.930 . S
C2462 C2458 1.524 . S
C2462 H2474 0.956 . S
C2462 H2475 0.961 . S
C2462 H2476 0.961 . S
C2463 C2460 1.539 . S
C2463 H2477 0.958 . S
C2463 H2478 0.961 . S
C2463 H2479 0.960 . S
H2464 C2448 0.931 . S
H2465 C2453 0.929 . S
H2466 C2454 0.960 . S
H2467 C2454 0.962 . S
H2468 C2454 0.960 . S
H2469 C2455 0.961 . S
H2470 C2455 0.961 . S
H2471 C2455 0.961 . S
H2472 C2456 0.931 . S
H2473 C2461 0.930 . S
H2474 C2462 0.956 . S
H2475 C2462 0.961 . S
H2476 C2462 0.961 . S
H2477 C2463 0.958 . S
H2478 C2463 0.961 . S
H2479 C2463 0.960 . S
C2480 C2481 1.391 . S
C2480 C2482 1.394 . S
C2480 H2496 0.931 . S
C2481 C2480 1.391 . S
C2481 C2485 1.376 . S
C2482 C2480 1.394 . S
C2482 C2483 1.369 . S
C2482 C2486 1.531 . S
C2483 C2482 1.369 . S
C2483 C2484 1.410 . S
C2483 C2491 1.503 . S
C2484 C2483 1.410 . S
C2484 C2485 1.392 . S
C2484 C2487 1.511 . S
C2485 C2481 1.376 . S
C2485 C2484 1.392 . S
C2485 H2497 0.929 . S
C2486 C2482 1.531 . S
C2486 H2498 0.960 . S
C2486 H2499 0.962 . S
C2486 H2500 0.960 . S
C2487 C2484 1.511 . S
C2487 H2501 0.961 . S
C2487 H2502 0.961 . S
C2487 H2503 0.961 . S
C2488 C2489 1.370 . S
C2488 C2490 1.363 . S
C2488 H2504 0.931 . S
C2489 C2488 1.370 . S
C2489 C2493 1.408 . S
C2490 C2488 1.363 . S
C2490 C2491 1.370 . S
C2490 C2494 1.524 . S
C2491 C2483 1.503 . S
C2491 C2490 1.370 . S
C2491 C2492 1.403 . S
C2492 C2491 1.403 . S
C2492 C2493 1.404 . S
C2492 C2495 1.539 . S
C2493 C2489 1.408 . S
C2493 C2492 1.404 . S
C2493 H2505 0.930 . S
C2494 C2490 1.524 . S
C2494 H2506 0.956 . S
C2494 H2507 0.961 . S
C2494 H2508 0.961 . S
C2495 C2492 1.539 . S
C2495 H2509 0.958 . S
C2495 H2510 0.961 . S
C2495 H2511 0.960 . S
H2496 C2480 0.931 . S
H2497 C2485 0.929 . S
H2498 C2486 0.960 . S
H2499 C2486 0.962 . S
H2500 C2486 0.960 . S
H2501 C2487 0.961 . S
H2502 C2487 0.961 . S
H2503 C2487 0.961 . S
H2504 C2488 0.931 . S
H2505 C2493 0.930 . S
H2506 C2494 0.956 . S
H2507 C2494 0.961 . S
H2508 C2494 0.961 . S
H2509 C2495 0.958 . S
H2510 C2495 0.961 . S
H2511 C2495 0.960 . S
C2512 C2513 1.391 . S
C2512 C2514 1.394 . S
C2512 H2528 0.931 . S
C2513 C2512 1.391 . S
C2513 C2517 1.376 . S
C2514 C2512 1.394 . S
C2514 C2515 1.369 . S
C2514 C2518 1.531 . S
C2515 C2514 1.369 . S
C2515 C2516 1.410 . S
C2515 C2523 1.503 . S
C2516 C2515 1.410 . S
C2516 C2517 1.392 . S
C2516 C2519 1.511 . S
C2517 C2513 1.376 . S
C2517 C2516 1.392 . S
C2517 H2529 0.929 . S
C2518 C2514 1.531 . S
C2518 H2530 0.960 . S
C2518 H2531 0.962 . S
C2518 H2532 0.960 . S
C2519 C2516 1.511 . S
C2519 H2533 0.961 . S
C2519 H2534 0.961 . S
C2519 H2535 0.961 . S
C2520 C2521 1.370 . S
C2520 C2522 1.363 . S
C2520 H2536 0.931 . S
C2521 C2520 1.370 . S
C2521 C2525 1.408 . S
C2522 C2520 1.363 . S
C2522 C2523 1.370 . S
C2522 C2526 1.524 . S
C2523 C2515 1.503 . S
C2523 C2522 1.370 . S
C2523 C2524 1.403 . S
C2524 C2523 1.403 . S
C2524 C2525 1.404 . S
C2524 C2527 1.539 . S
C2525 C2521 1.408 . S
C2525 C2524 1.404 . S
C2525 H2537 0.930 . S
C2526 C2522 1.524 . S
C2526 H2538 0.956 . S
C2526 H2539 0.961 . S
C2526 H2540 0.961 . S
C2527 C2524 1.539 . S
C2527 H2541 0.958 . S
C2527 H2542 0.961 . S
C2527 H2543 0.960 . S
H2528 C2512 0.931 . S
H2529 C2517 0.929 . S
H2530 C2518 0.960 . S
H2531 C2518 0.962 . S
H2532 C2518 0.960 . S
H2533 C2519 0.961 . S
H2534 C2519 0.961 . S
H2535 C2519 0.961 . S
H2536 C2520 0.931 . S
H2537 C2525 0.930 . S
H2538 C2526 0.956 . S
H2539 C2526 0.961 . S
H2540 C2526 0.961 . S
H2541 C2527 0.958 . S
H2542 C2527 0.961 . S
H2543 C2527 0.960 . S
C2544 C2545 1.391 . S
C2544 C2546 1.394 . S
C2544 H2560 0.931 . S
C2545 C2544 1.391 . S
C2545 C2549 1.376 . S
C2546 C2544 1.394 . S
C2546 C2547 1.369 . S
C2546 C2550 1.531 . S
C2547 C2546 1.369 . S
C2547 C2548 1.410 . S
C2547 C2555 1.503 . S
C2548 C2547 1.410 . S
C2548 C2549 1.392 . S
C2548 C2551 1.511 . S
C2549 C2545 1.376 . S
C2549 C2548 1.392 . S
C2549 H2561 0.929 . S
C2550 C2546 1.531 . S
C2550 H2562 0.960 . S
C2550 H2563 0.962 . S
C2550 H2564 0.960 . S
C2551 C2548 1.511 . S
C2551 H2565 0.961 . S
C2551 H2566 0.961 . S
C2551 H2567 0.961 . S
C2552 C2553 1.370 . S
C2552 C2554 1.363 . S
C2552 H2568 0.931 . S
C2553 C2552 1.370 . S
C2553 C2557 1.408 . S
C2554 C2552 1.363 . S
C2554 C2555 1.370 . S
C2554 C2558 1.524 . S
C2555 C2547 1.503 . S
C2555 C2554 1.370 . S
C2555 C2556 1.403 . S
C2556 C2555 1.403 . S
C2556 C2557 1.404 . S
C2556 C2559 1.539 . S
C2557 C2553 1.408 . S
C2557 C2556 1.404 . S
C2557 H2569 0.930 . S
C2558 C2554 1.524 . S
C2558 H2570 0.956 . S
C2558 H2571 0.961 . S
C2558 H2572 0.961 . S
C2559 C2556 1.539 . S
C2559 H2573 0.958 . S
C2559 H2574 0.961 . S
C2559 H2575 0.960 . S
H2560 C2544 0.931 . S
H2561 C2549 0.929 . S
H2562 C2550 0.960 . S
H2563 C2550 0.962 . S
H2564 C2550 0.960 . S
H2565 C2551 0.961 . S
H2566 C2551 0.961 . S
H2567 C2551 0.961 . S
H2568 C2552 0.931 . S
H2569 C2557 0.930 . S
H2570 C2558 0.956 . S
H2571 C2558 0.961 . S
H2572 C2558 0.961 . S
H2573 C2559 0.958 . S
H2574 C2559 0.961 . S
H2575 C2559 0.960 . S
C2576 C2577 1.391 . S
C2576 C2578 1.394 . S
C2576 H2592 0.931 . S
C2577 C2576 1.391 . S
C2577 C2581 1.376 1_455 S
C2578 C2576 1.394 . S
C2578 C2579 1.369 . S
C2578 C2582 1.531 . S
C2579 C2578 1.369 . S
C2579 C2580 1.410 1_455 S
C2579 C2587 1.503 . S
C2580 C2579 1.410 1_655 S
C2580 C2581 1.392 . S
C2580 C2583 1.511 . S
C2581 C2577 1.376 1_655 S
C2581 C2580 1.392 . S
C2581 H2593 0.929 . S
C2582 C2578 1.531 . S
C2582 H2594 0.960 . S
C2582 H2595 0.962 1_556 S
C2582 H2596 0.960 . S
C2583 C2580 1.511 . S
C2583 H2597 0.961 . S
C2583 H2598 0.961 . S
C2583 H2599 0.961 . S
C2584 C2585 1.370 . S
C2584 C2586 1.363 . S
C2584 H2600 0.931 . S
C2585 C2584 1.370 . S
C2585 C2589 1.408 1_554 S
C2586 C2584 1.363 . S
C2586 C2587 1.370 1_554 S
C2586 C2590 1.524 . S
C2587 C2579 1.503 . S
C2587 C2586 1.370 1_556 S
C2587 C2588 1.403 . S
C2588 C2587 1.403 . S
C2588 C2589 1.404 . S
C2588 C2591 1.539 . S
C2589 C2585 1.408 1_556 S
C2589 C2588 1.404 . S
C2589 H2601 0.930 . S
C2590 C2586 1.524 . S
C2590 H2602 0.956 . S
C2590 H2603 0.961 . S
C2590 H2604 0.961 . S
C2591 C2588 1.539 . S
C2591 H2605 0.958 . S
C2591 H2606 0.961 . S
C2591 H2607 0.960 . S
H2592 C2576 0.931 . S
H2593 C2581 0.929 . S
H2594 C2582 0.960 . S
H2595 C2582 0.962 1_554 S
H2596 C2582 0.960 . S
H2597 C2583 0.961 . S
H2598 C2583 0.961 . S
H2599 C2583 0.961 . S
H2600 C2584 0.931 . S
H2601 C2589 0.930 . S
H2602 C2590 0.956 . S
H2603 C2590 0.961 . S
H2604 C2590 0.961 . S
H2605 C2591 0.958 . S
H2606 C2591 0.961 . S
H2607 C2591 0.960 . S
C2608 C2609 1.391 1_655 S
C2608 C2610 1.394 . S
C2608 H2624 0.931 1_655 S
C2609 C2608 1.391 1_455 S
C2609 C2613 1.376 1_455 S
C2610 C2608 1.394 . S
C2610 C2611 1.369 . S
C2610 C2614 1.531 . S
C2611 C2610 1.369 . S
C2611 C2612 1.410 . S
C2611 C2619 1.503 . S
C2612 C2611 1.410 . S
C2612 C2613 1.392 . S
C2612 C2615 1.511 . S
C2613 C2609 1.376 1_655 S
C2613 C2612 1.392 . S
C2613 H2625 0.929 . S
C2614 C2610 1.531 . S
C2614 H2626 0.960 . S
C2614 H2627 0.962 . S
C2614 H2628 0.960 . S
C2615 C2612 1.511 . S
C2615 H2629 0.961 . S
C2615 H2630 0.961 . S
C2615 H2631 0.961 . S
C2616 C2617 1.370 . S
C2616 C2618 1.363 . S
C2616 H2632 0.931 . S
C2617 C2616 1.370 . S
C2617 C2621 1.408 . S
C2618 C2616 1.363 . S
C2618 C2619 1.370 . S
C2618 C2622 1.524 . S
C2619 C2611 1.503 . S
C2619 C2618 1.370 . S
C2619 C2620 1.403 . S
C2620 C2619 1.403 . S
C2620 C2621 1.404 . S
C2620 C2623 1.539 . S
C2621 C2617 1.408 . S
C2621 C2620 1.404 . S
C2621 H2633 0.930 . S
C2622 C2618 1.524 . S
C2622 H2634 0.956 . S
C2622 H2635 0.961 . S
C2622 H2636 0.961 . S
C2623 C2620 1.539 . S
C2623 H2637 0.958 . S
C2623 H2638 0.961 . S
C2623 H2639 0.960 . S
H2624 C2608 0.931 1_455 S
H2625 C2613 0.929 . S
H2626 C2614 0.960 . S
H2627 C2614 0.962 . S
H2628 C2614 0.960 . S
H2629 C2615 0.961 . S
H2630 C2615 0.961 . S
H2631 C2615 0.961 . S
H2632 C2616 0.931 . S
H2633 C2621 0.930 . S
H2634 C2622 0.956 . S
H2635 C2622 0.961 . S
H2636 C2622 0.961 . S
H2637 C2623 0.958 . S
H2638 C2623 0.961 . S
H2639 C2623 0.960 . S
C2640 C2641 1.391 . S
C2640 C2642 1.394 . S
C2640 H2656 0.931 . S
C2641 C2640 1.391 . S
C2641 C2645 1.376 . S
C2642 C2640 1.394 . S
C2642 C2643 1.369 . S
C2642 C2646 1.531 . S
C2643 C2642 1.369 . S
C2643 C2644 1.410 . S
C2643 C2651 1.503 . S
C2644 C2643 1.410 . S
C2644 C2645 1.392 . S
C2644 C2647 1.511 . S
C2645 C2641 1.376 . S
C2645 C2644 1.392 . S
C2645 H2657 0.929 . S
C2646 C2642 1.531 . S
C2646 H2658 0.960 . S
C2646 H2659 0.962 . S
C2646 H2660 0.960 . S
C2647 C2644 1.511 . S
C2647 H2661 0.961 . S
C2647 H2662 0.961 . S
C2647 H2663 0.961 . S
C2648 C2649 1.370 . S
C2648 C2650 1.363 . S
C2648 H2664 0.931 . S
C2649 C2648 1.370 . S
C2649 C2653 1.408 . S
C2650 C2648 1.363 . S
C2650 C2651 1.370 . S
C2650 C2654 1.524 . S
C2651 C2643 1.503 . S
C2651 C2650 1.370 . S
C2651 C2652 1.403 . S
C2652 C2651 1.403 . S
C2652 C2653 1.404 . S
C2652 C2655 1.539 . S
C2653 C2649 1.408 . S
C2653 C2652 1.404 . S
C2653 H2665 0.930 . S
C2654 C2650 1.524 . S
C2654 H2666 0.956 . S
C2654 H2667 0.961 . S
C2654 H2668 0.961 . S
C2655 C2652 1.539 . S
C2655 H2669 0.958 . S
C2655 H2670 0.961 . S
C2655 H2671 0.960 . S
H2656 C2640 0.931 . S
H2657 C2645 0.929 . S
H2658 C2646 0.960 . S
H2659 C2646 0.962 . S
H2660 C2646 0.960 . S
H2661 C2647 0.961 . S
H2662 C2647 0.961 . S
H2663 C2647 0.961 . S
H2664 C2648 0.931 . S
H2665 C2653 0.930 . S
H2666 C2654 0.956 . S
H2667 C2654 0.961 . S
H2668 C2654 0.961 . S
H2669 C2655 0.958 . S
H2670 C2655 0.961 . S
H2671 C2655 0.960 . S
C2672 C2673 1.391 1_655 S
C2672 C2674 1.394 . S
C2672 H2688 0.925 1_655 S
C2673 C2672 1.391 1_455 S
C2673 C2677 1.374 1_455 S
C2674 C2672 1.394 . S
C2674 C2675 1.369 . S
C2674 C2678 1.531 . S
C2675 C2674 1.369 . S
C2675 C2676 1.410 . S
C2675 C2683 1.503 . S
C2676 C2675 1.410 . S
C2676 C2677 1.405 . S
C2676 C2679 1.511 . S
C2677 C2673 1.374 1_655 S
C2677 C2676 1.405 . S
C2677 H2689 0.918 1_655 S
C2678 C2674 1.531 . S
C2678 H2690 0.960 . S
C2678 H2691 0.962 . S
C2678 H2692 0.960 . S
C2679 C2676 1.511 . S
C2679 H2693 0.961 . S
C2679 H2694 0.961 . S
C2679 H2695 0.961 . S
C2680 C2681 1.370 . S
C2680 C2682 1.363 . S
C2680 H2696 0.931 . S
C2681 C2680 1.370 . S
C2681 C2685 1.408 . S
C2682 C2680 1.363 . S
C2682 C2683 1.370 . S
C2682 C2686 1.524 . S
C2683 C2675 1.503 . S
C2683 C2682 1.370 . S
C2683 C2684 1.403 . S
C2684 C2683 1.403 . S
C2684 C2685 1.404 . S
C2684 C2687 1.539 . S
C2685 C2681 1.408 . S
C2685 C2684 1.404 . S
C2685 H2697 0.930 . S
C2686 C2682 1.524 . S
C2686 H2698 0.956 . S
C2686 H2699 0.961 . S
C2686 H2700 0.961 . S
C2687 C2684 1.539 . S
C2687 H2701 0.958 . S
C2687 H2702 0.961 . S
C2687 H2703 0.960 . S
H2688 C2672 0.925 1_455 S
H2689 C2677 0.918 1_455 S
H2690 C2678 0.960 . S
H2691 C2678 0.962 . S
H2692 C2678 0.960 . S
H2693 C2679 0.961 . S
H2694 C2679 0.961 . S
H2695 C2679 0.961 . S
H2696 C2680 0.931 . S
H2697 C2685 0.930 . S
H2698 C2686 0.956 . S
H2699 C2686 0.961 . S
H2700 C2686 0.961 . S
H2701 C2687 0.958 . S
H2702 C2687 0.961 . S
H2703 C2687 0.960 . S
C2704 C2705 1.391 1_455 S
C2704 C2706 1.394 . S
C2704 H2720 0.931 . S
C2705 C2704 1.391 1_655 S
C2705 C2709 1.376 . S
C2706 C2704 1.394 . S
C2706 C2707 1.369 . S
C2706 C2710 1.531 . S
C2707 C2706 1.369 . S
C2707 C2708 1.410 1_455 S
C2707 C2715 1.503 . S
C2708 C2707 1.410 1_655 S
C2708 C2709 1.392 . S
C2708 C2711 1.511 . S
C2709 C2705 1.376 . S
C2709 C2708 1.392 . S
C2709 H2721 0.929 . S
C2710 C2706 1.531 . S
C2710 H2722 0.960 . S
C2710 H2723 0.962 . S
C2710 H2724 0.960 . S
C2711 C2708 1.511 . S
C2711 H2725 0.961 . S
C2711 H2726 0.961 . S
C2711 H2727 0.961 . S
C2712 C2713 1.370 . S
C2712 C2714 1.363 . S
C2712 H2728 0.931 . S
C2713 C2712 1.370 . S
C2713 C2717 1.408 . S
C2714 C2712 1.363 . S
C2714 C2715 1.370 . S
C2714 C2718 1.524 . S
C2715 C2707 1.503 . S
C2715 C2714 1.370 . S
C2715 C2716 1.415 . S
C2716 C2715 1.415 . S
C2716 C2717 1.419 . S
C2716 C2719 1.512 1_455 S
C2717 C2713 1.408 . S
C2717 C2716 1.419 . S
C2717 H2729 0.930 1_455 S
C2718 C2714 1.524 . S
C2718 H2730 0.956 . S
C2718 H2731 0.961 . S
C2718 H2732 0.961 . S
C2719 C2716 1.512 1_655 S
C2719 H2733 0.958 . S
C2719 H2734 0.961 . S
C2719 H2735 0.960 . S
H2720 C2704 0.931 . S
H2721 C2709 0.929 . S
H2722 C2710 0.960 . S
H2723 C2710 0.962 . S
H2724 C2710 0.960 . S
H2725 C2711 0.961 . S
H2726 C2711 0.961 . S
H2727 C2711 0.961 . S
H2728 C2712 0.931 . S
H2729 C2717 0.930 1_655 S
H2730 C2718 0.956 . S
H2731 C2718 0.961 . S
H2732 C2718 0.961 . S
H2733 C2719 0.958 . S
H2734 C2719 0.961 . S
H2735 C2719 0.960 . S
C2736 C2737 1.391 . S
C2736 C2738 1.394 . S
C2736 H2752 0.931 . S
C2737 C2736 1.391 . S
C2737 C2741 1.376 . S
C2738 C2736 1.394 . S
C2738 C2739 1.369 . S
C2738 C2742 1.531 . S
C2739 C2738 1.369 . S
C2739 C2740 1.410 . S
C2739 C2747 1.503 . S
C2740 C2739 1.410 . S
C2740 C2741 1.392 . S
C2740 C2743 1.511 . S
C2741 C2737 1.376 . S
C2741 C2740 1.392 . S
C2741 H2753 0.929 . S
C2742 C2738 1.531 . S
C2742 H2754 0.960 . S
C2742 H2755 0.962 . S
C2742 H2756 0.960 . S
C2743 C2740 1.511 . S
C2743 H2757 0.961 . S
C2743 H2758 0.961 . S
C2743 H2759 0.961 . S
C2744 C2745 1.370 . S
C2744 C2746 1.363 . S
C2744 H2760 0.931 . S
C2745 C2744 1.370 . S
C2745 C2749 1.408 . S
C2746 C2744 1.363 . S
C2746 C2747 1.370 . S
C2746 C2750 1.524 . S
C2747 C2739 1.503 . S
C2747 C2746 1.370 . S
C2747 C2748 1.403 . S
C2748 C2747 1.403 . S
C2748 C2749 1.404 . S
C2748 C2751 1.539 . S
C2749 C2745 1.408 . S
C2749 C2748 1.404 . S
C2749 H2761 0.930 . S
C2750 C2746 1.524 . S
C2750 H2762 0.956 . S
C2750 H2763 0.961 . S
C2750 H2764 0.961 . S
C2751 C2748 1.539 . S
C2751 H2765 0.958 . S
C2751 H2766 0.961 . S
C2751 H2767 0.960 . S
H2752 C2736 0.931 . S
H2753 C2741 0.929 . S
H2754 C2742 0.960 . S
H2755 C2742 0.962 . S
H2756 C2742 0.960 . S
H2757 C2743 0.961 . S
H2758 C2743 0.961 . S
H2759 C2743 0.961 . S
H2760 C2744 0.931 . S
H2761 C2749 0.930 . S
H2762 C2750 0.956 . S
H2763 C2750 0.961 . S
H2764 C2750 0.961 . S
H2765 C2751 0.958 . S
H2766 C2751 0.961 . S
H2767 C2751 0.960 . S
C2768 C2769 1.391 . S
C2768 C2770 1.394 . S
C2768 H2784 0.931 . S
C2769 C2768 1.391 . S
C2769 C2773 1.376 . S
C2770 C2768 1.394 . S
C2770 C2771 1.369 . S
C2770 C2774 1.531 . S
C2771 C2770 1.369 . S
C2771 C2772 1.410 . S
C2771 C2779 1.503 . S
C2772 C2771 1.410 . S
C2772 C2773 1.392 . S
C2772 C2775 1.511 . S
C2773 C2769 1.376 . S
C2773 C2772 1.392 . S
C2773 H2785 0.929 . S
C2774 C2770 1.531 . S
C2774 H2786 0.960 . S
C2774 H2787 0.962 . S
C2774 H2788 0.960 . S
C2775 C2772 1.511 . S
C2775 H2789 0.961 . S
C2775 H2790 0.961 . S
C2775 H2791 0.961 . S
C2776 C2777 1.370 . S
C2776 C2778 1.363 . S
C2776 H2792 0.931 . S
C2777 C2776 1.370 . S
C2777 C2781 1.408 . S
C2778 C2776 1.363 . S
C2778 C2779 1.370 . S
C2778 C2782 1.524 . S
C2779 C2771 1.503 . S
C2779 C2778 1.370 . S
C2779 C2780 1.403 . S
C2780 C2779 1.403 . S
C2780 C2781 1.404 . S
C2780 C2783 1.539 . S
C2781 C2777 1.408 . S
C2781 C2780 1.404 . S
C2781 H2793 0.930 . S
C2782 C2778 1.524 . S
C2782 H2794 0.956 . S
C2782 H2795 0.961 . S
C2782 H2796 0.961 . S
C2783 C2780 1.539 . S
C2783 H2797 0.958 . S
C2783 H2798 0.961 . S
C2783 H2799 0.960 . S
H2784 C2768 0.931 . S
H2785 C2773 0.929 . S
H2786 C2774 0.960 . S
H2787 C2774 0.962 . S
H2788 C2774 0.960 . S
H2789 C2775 0.961 . S
H2790 C2775 0.961 . S
H2791 C2775 0.961 . S
H2792 C2776 0.931 . S
H2793 C2781 0.930 . S
H2794 C2782 0.956 . S
H2795 C2782 0.961 . S
H2796 C2782 0.961 . S
H2797 C2783 0.958 . S
H2798 C2783 0.961 . S
H2799 C2783 0.960 . S
C2800 C2801 1.391 . S
C2800 C2802 1.394 . S
C2800 H2816 0.931 . S
C2801 C2800 1.391 . S
C2801 C2805 1.376 . S
C2802 C2800 1.394 . S
C2802 C2803 1.369 . S
C2802 C2806 1.531 1_554 S
C2803 C2802 1.369 . S
C2803 C2804 1.410 . S
C2803 C2811 1.503 1_554 S
C2804 C2803 1.410 . S
C2804 C2805 1.392 . S
C2804 C2807 1.511 . S
C2805 C2801 1.376 . S
C2805 C2804 1.392 . S
C2805 H2817 0.929 . S
C2806 C2802 1.531 1_556 S
C2806 H2818 0.960 . S
C2806 H2819 0.962 . S
C2806 H2820 0.960 . S
C2807 C2804 1.511 . S
C2807 H2821 0.961 . S
C2807 H2822 0.961 . S
C2807 H2823 0.961 . S
C2808 C2809 1.370 . S
C2808 C2810 1.363 . S
C2808 H2824 0.931 . S
C2809 C2808 1.370 . S
C2809 C2813 1.408 . S
C2810 C2808 1.363 . S
C2810 C2811 1.370 . S
C2810 C2814 1.524 . S
C2811 C2803 1.503 1_556 S
C2811 C2810 1.370 . S
C2811 C2812 1.403 . S
C2812 C2811 1.403 . S
C2812 C2813 1.404 . S
C2812 C2815 1.539 . S
C2813 C2809 1.408 . S
C2813 C2812 1.404 . S
C2813 H2825 0.930 . S
C2814 C2810 1.524 . S
C2814 H2826 0.956 . S
C2814 H2827 0.961 1_556 S
C2814 H2828 0.961 . S
C2815 C2812 1.539 . S
C2815 H2829 0.958 . S
C2815 H2830 0.961 . S
C2815 H2831 0.960 . S
H2816 C2800 0.931 . S
H2817 C2805 0.929 . S
H2818 C2806 0.960 . S
H2819 C2806 0.962 . S
H2820 C2806 0.960 . S
H2821 C2807 0.961 . S
H2822 C2807 0.961 . S
H2823 C2807 0.961 . S
H2824 C2808 0.931 . S
H2825 C2813 0.930 . S
H2826 C2814 0.956 . S
H2827 C2814 0.961 1_554 S
H2828 C2814 0.961 . S
H2829 C2815 0.958 . S
H2830 C2815 0.961 . S
H2831 C2815 0.960 . S
C2832 C2833 1.391 . S
C2832 C2834 1.394 . S
C2832 H2848 0.931 . S
C2833 C2832 1.391 . S
C2833 C2837 1.376 . S
C2834 C2832 1.394 . S
C2834 C2835 1.369 . S
C2834 C2838 1.531 . S
C2835 C2834 1.369 . S
C2835 C2836 1.410 . S
C2835 C2843 1.503 . S
C2836 C2835 1.410 . S
C2836 C2837 1.392 . S
C2836 C2839 1.511 . S
C2837 C2833 1.376 . S
C2837 C2836 1.392 . S
C2837 H2849 0.929 . S
C2838 C2834 1.531 . S
C2838 H2850 0.960 . S
C2838 H2851 0.962 . S
C2838 H2852 0.960 . S
C2839 C2836 1.511 . S
C2839 H2853 0.961 . S
C2839 H2854 0.961 . S
C2839 H2855 0.961 . S
C2840 C2841 1.370 . S
C2840 C2842 1.363 . S
C2840 H2856 0.931 . S
C2841 C2840 1.370 . S
C2841 C2845 1.408 . S
C2842 C2840 1.363 . S
C2842 C2843 1.370 . S
C2842 C2846 1.524 . S
C2843 C2835 1.503 . S
C2843 C2842 1.370 . S
C2843 C2844 1.403 . S
C2844 C2843 1.403 . S
C2844 C2845 1.404 . S
C2844 C2847 1.539 . S
C2845 C2841 1.408 . S
C2845 C2844 1.404 . S
C2845 H2857 0.930 . S
C2846 C2842 1.524 . S
C2846 H2858 0.956 . S
C2846 H2859 0.961 . S
C2846 H2860 0.961 . S
C2847 C2844 1.539 . S
C2847 H2861 0.958 . S
C2847 H2862 0.961 . S
C2847 H2863 0.960 . S
H2848 C2832 0.931 . S
H2849 C2837 0.929 . S
H2850 C2838 0.960 . S
H2851 C2838 0.962 . S
H2852 C2838 0.960 . S
H2853 C2839 0.961 . S
H2854 C2839 0.961 . S
H2855 C2839 0.961 . S
H2856 C2840 0.931 . S
H2857 C2845 0.930 . S
H2858 C2846 0.956 . S
H2859 C2846 0.961 . S
H2860 C2846 0.961 . S
H2861 C2847 0.958 . S
H2862 C2847 0.961 . S
H2863 C2847 0.960 . S
C2864 C2865 1.391 . S
C2864 C2866 1.394 . S
C2864 H2880 0.931 . S
C2865 C2864 1.391 . S
C2865 C2869 1.376 . S
C2866 C2864 1.394 . S
C2866 C2867 1.369 . S
C2866 C2870 1.531 . S
C2867 C2866 1.369 . S
C2867 C2868 1.410 . S
C2867 C2875 1.503 . S
C2868 C2867 1.410 . S
C2868 C2869 1.392 . S
C2868 C2871 1.511 . S
C2869 C2865 1.376 . S
C2869 C2868 1.392 . S
C2869 H2881 0.929 . S
C2870 C2866 1.531 . S
C2870 H2882 0.960 . S
C2870 H2883 0.962 . S
C2870 H2884 0.960 . S
C2871 C2868 1.511 . S
C2871 H2885 0.961 . S
C2871 H2886 0.961 . S
C2871 H2887 0.961 . S
C2872 C2873 1.370 . S
C2872 C2874 1.363 . S
C2872 H2888 0.931 . S
C2873 C2872 1.370 . S
C2873 C2877 1.408 . S
C2874 C2872 1.363 . S
C2874 C2875 1.370 . S
C2874 C2878 1.524 . S
C2875 C2867 1.503 . S
C2875 C2874 1.370 . S
C2875 C2876 1.403 . S
C2876 C2875 1.403 . S
C2876 C2877 1.404 . S
C2876 C2879 1.539 . S
C2877 C2873 1.408 . S
C2877 C2876 1.404 . S
C2877 H2889 0.930 . S
C2878 C2874 1.524 . S
C2878 H2890 0.956 . S
C2878 H2891 0.961 . S
C2878 H2892 0.961 . S
C2879 C2876 1.539 . S
C2879 H2893 0.958 . S
C2879 H2894 0.961 . S
C2879 H2895 0.960 . S
H2880 C2864 0.931 . S
H2881 C2869 0.929 . S
H2882 C2870 0.960 . S
H2883 C2870 0.962 . S
H2884 C2870 0.960 . S
H2885 C2871 0.961 . S
H2886 C2871 0.961 . S
H2887 C2871 0.961 . S
H2888 C2872 0.931 . S
H2889 C2877 0.930 . S
H2890 C2878 0.956 . S
H2891 C2878 0.961 . S
H2892 C2878 0.961 . S
H2893 C2879 0.958 . S
H2894 C2879 0.961 . S
H2895 C2879 0.960 . S
C2896 C2897 1.391 . S
C2896 C2898 1.394 . S
C2896 H2912 0.931 . S
C2897 C2896 1.391 . S
C2897 C2901 1.376 . S
C2898 C2896 1.394 . S
C2898 C2899 1.369 . S
C2898 C2902 1.531 . S
C2899 C2898 1.369 . S
C2899 C2900 1.410 . S
C2899 C2907 1.503 . S
C2900 C2899 1.410 . S
C2900 C2901 1.392 . S
C2900 C2903 1.511 . S
C2901 C2897 1.376 . S
C2901 C2900 1.392 . S
C2901 H2913 0.929 . S
C2902 C2898 1.531 . S
C2902 H2914 0.960 . S
C2902 H2915 0.962 . S
C2902 H2916 0.960 . S
C2903 C2900 1.511 . S
C2903 H2917 0.961 . S
C2903 H2918 0.961 . S
C2903 H2919 0.961 . S
C2904 C2905 1.370 . S
C2904 C2906 1.363 . S
C2904 H2920 0.931 . S
C2905 C2904 1.370 . S
C2905 C2909 1.408 . S
C2906 C2904 1.363 . S
C2906 C2907 1.370 . S
C2906 C2910 1.524 . S
C2907 C2899 1.503 . S
C2907 C2906 1.370 . S
C2907 C2908 1.403 . S
C2908 C2907 1.403 . S
C2908 C2909 1.404 . S
C2908 C2911 1.539 . S
C2909 C2905 1.408 . S
C2909 C2908 1.404 . S
C2909 H2921 0.930 . S
C2910 C2906 1.524 . S
C2910 H2922 0.956 . S
C2910 H2923 0.961 . S
C2910 H2924 0.961 . S
C2911 C2908 1.539 . S
C2911 H2925 0.958 . S
C2911 H2926 0.961 . S
C2911 H2927 0.960 . S
H2912 C2896 0.931 . S
H2913 C2901 0.929 . S
H2914 C2902 0.960 . S
H2915 C2902 0.962 . S
H2916 C2902 0.960 . S
H2917 C2903 0.961 . S
H2918 C2903 0.961 . S
H2919 C2903 0.961 . S
H2920 C2904 0.931 . S
H2921 C2909 0.930 . S
H2922 C2910 0.956 . S
H2923 C2910 0.961 . S
H2924 C2910 0.961 . S
H2925 C2911 0.958 . S
H2926 C2911 0.961 . S
H2927 C2911 0.960 . S
C2928 C2929 1.391 . S
C2928 C2930 1.394 . S
C2928 H2944 0.931 . S
C2929 C2928 1.391 . S
C2929 C2933 1.376 . S
C2930 C2928 1.394 . S
C2930 C2931 1.369 . S
C2930 C2934 1.531 . S
C2931 C2930 1.369 . S
C2931 C2932 1.410 . S
C2931 C2939 1.503 . S
C2932 C2931 1.410 . S
C2932 C2933 1.392 . S
C2932 C2935 1.511 . S
C2933 C2929 1.376 . S
C2933 C2932 1.392 . S
C2933 H2945 0.929 . S
C2934 C2930 1.531 . S
C2934 H2946 0.960 . S
C2934 H2947 0.962 . S
C2934 H2948 0.960 . S
C2935 C2932 1.511 . S
C2935 H2949 0.961 . S
C2935 H2950 0.961 . S
C2935 H2951 0.961 . S
C2936 C2937 1.370 . S
C2936 C2938 1.363 . S
C2936 H2952 0.931 . S
C2937 C2936 1.370 . S
C2937 C2941 1.408 . S
C2938 C2936 1.363 . S
C2938 C2939 1.370 . S
C2938 C2942 1.524 . S
C2939 C2931 1.503 . S
C2939 C2938 1.370 . S
C2939 C2940 1.403 . S
C2940 C2939 1.403 . S
C2940 C2941 1.404 . S
C2940 C2943 1.539 . S
C2941 C2937 1.408 . S
C2941 C2940 1.404 . S
C2941 H2953 0.930 . S
C2942 C2938 1.524 . S
C2942 H2954 0.956 . S
C2942 H2955 0.961 . S
C2942 H2956 0.961 . S
C2943 C2940 1.539 . S
C2943 H2957 0.958 . S
C2943 H2958 0.961 . S
C2943 H2959 0.960 . S
H2944 C2928 0.931 . S
H2945 C2933 0.929 . S
H2946 C2934 0.960 . S
H2947 C2934 0.962 . S
H2948 C2934 0.960 . S
H2949 C2935 0.961 . S
H2950 C2935 0.961 . S
H2951 C2935 0.961 . S
H2952 C2936 0.931 . S
H2953 C2941 0.930 . S
H2954 C2942 0.956 . S
H2955 C2942 0.961 . S
H2956 C2942 0.961 . S
H2957 C2943 0.958 . S
H2958 C2943 0.961 . S
H2959 C2943 0.960 . S
C2960 C2961 1.391 . S
C2960 C2962 1.394 . S
C2960 H2976 0.931 . S
C2961 C2960 1.391 . S
C2961 C2965 1.376 . S
C2962 C2960 1.394 . S
C2962 C2963 1.369 . S
C2962 C2966 1.531 . S
C2963 C2962 1.369 . S
C2963 C2964 1.410 . S
C2963 C2971 1.503 . S
C2964 C2963 1.410 . S
C2964 C2965 1.392 . S
C2964 C2967 1.511 . S
C2965 C2961 1.376 . S
C2965 C2964 1.392 . S
C2965 H2977 0.929 . S
C2966 C2962 1.531 . S
C2966 H2978 0.960 . S
C2966 H2979 0.962 . S
C2966 H2980 0.960 . S
C2967 C2964 1.511 . S
C2967 H2981 0.961 . S
C2967 H2982 0.961 . S
C2967 H2983 0.961 . S
C2968 C2969 1.370 . S
C2968 C2970 1.363 . S
C2968 H2984 0.931 . S
C2969 C2968 1.370 . S
C2969 C2973 1.408 . S
C2970 C2968 1.363 . S
C2970 C2971 1.370 . S
C2970 C2974 1.524 . S
C2971 C2963 1.503 . S
C2971 C2970 1.370 . S
C2971 C2972 1.403 . S
C2972 C2971 1.403 . S
C2972 C2973 1.404 . S
C2972 C2975 1.539 . S
C2973 C2969 1.408 . S
C2973 C2972 1.404 . S
C2973 H2985 0.930 . S
C2974 C2970 1.524 . S
C2974 H2986 0.956 . S
C2974 H2987 0.961 . S
C2974 H2988 0.961 . S
C2975 C2972 1.539 . S
C2975 H2989 0.958 . S
C2975 H2990 0.961 . S
C2975 H2991 0.960 . S
H2976 C2960 0.931 . S
H2977 C2965 0.929 . S
H2978 C2966 0.960 . S
H2979 C2966 0.962 . S
H2980 C2966 0.960 . S
H2981 C2967 0.961 . S
H2982 C2967 0.961 . S
H2983 C2967 0.961 . S
H2984 C2968 0.931 . S
H2985 C2973 0.930 . S
H2986 C2974 0.956 . S
H2987 C2974 0.961 . S
H2988 C2974 0.961 . S
H2989 C2975 0.958 . S
H2990 C2975 0.961 . S
H2991 C2975 0.960 . S
C2992 C2993 1.391 . S
C2992 C2994 1.394 . S
C2992 H3008 0.931 . S
C2993 C2992 1.391 . S
C2993 C2997 1.376 . S
C2994 C2992 1.394 . S
C2994 C2995 1.369 . S
C2994 C2998 1.531 . S
C2995 C2994 1.369 . S
C2995 C2996 1.410 . S
C2995 C3003 1.503 . S
C2996 C2995 1.410 . S
C2996 C2997 1.392 . S
C2996 C2999 1.511 . S
C2997 C2993 1.376 . S
C2997 C2996 1.392 . S
C2997 H3009 0.929 . S
C2998 C2994 1.531 . S
C2998 H3010 0.960 . S
C2998 H3011 0.962 . S
C2998 H3012 0.960 . S
C2999 C2996 1.511 . S
C2999 H3013 0.961 . S
C2999 H3014 0.961 . S
C2999 H3015 0.961 . S
C3000 C3001 1.370 . S
C3000 C3002 1.363 . S
C3000 H3016 0.931 . S
C3001 C3000 1.370 . S
C3001 C3005 1.408 . S
C3002 C3000 1.363 . S
C3002 C3003 1.370 . S
C3002 C3006 1.524 . S
C3003 C2995 1.503 . S
C3003 C3002 1.370 . S
C3003 C3004 1.403 . S
C3004 C3003 1.403 . S
C3004 C3005 1.404 . S
C3004 C3007 1.539 . S
C3005 C3001 1.408 . S
C3005 C3004 1.404 . S
C3005 H3017 0.930 . S
C3006 C3002 1.524 . S
C3006 H3018 0.956 . S
C3006 H3019 0.961 . S
C3006 H3020 0.961 . S
C3007 C3004 1.539 . S
C3007 H3021 0.958 . S
C3007 H3022 0.961 . S
C3007 H3023 0.960 . S
H3008 C2992 0.931 . S
H3009 C2997 0.929 . S
H3010 C2998 0.960 . S
H3011 C2998 0.962 . S
H3012 C2998 0.960 . S
H3013 C2999 0.961 . S
H3014 C2999 0.961 . S
H3015 C2999 0.961 . S
H3016 C3000 0.931 . S
H3017 C3005 0.930 . S
H3018 C3006 0.956 . S
H3019 C3006 0.961 . S
H3020 C3006 0.961 . S
H3021 C3007 0.958 . S
H3022 C3007 0.961 . S
H3023 C3007 0.960 . S
C3024 C3025 1.391 . S
C3024 C3026 1.394 . S
C3024 H3040 0.931 . S
C3025 C3024 1.391 . S
C3025 C3029 1.376 . S
C3026 C3024 1.394 . S
C3026 C3027 1.369 . S
C3026 C3030 1.531 . S
C3027 C3026 1.369 . S
C3027 C3028 1.410 . S
C3027 C3035 1.503 . S
C3028 C3027 1.410 . S
C3028 C3029 1.392 . S
C3028 C3031 1.511 . S
C3029 C3025 1.376 . S
C3029 C3028 1.392 . S
C3029 H3041 0.929 . S
C3030 C3026 1.531 . S
C3030 H3042 0.960 . S
C3030 H3043 0.962 . S
C3030 H3044 0.960 . S
C3031 C3028 1.511 . S
C3031 H3045 0.961 . S
C3031 H3046 0.961 . S
C3031 H3047 0.961 . S
C3032 C3033 1.370 . S
C3032 C3034 1.363 . S
C3032 H3048 0.931 . S
C3033 C3032 1.370 . S
C3033 C3037 1.408 . S
C3034 C3032 1.363 . S
C3034 C3035 1.370 . S
C3034 C3038 1.524 . S
C3035 C3027 1.503 . S
C3035 C3034 1.370 . S
C3035 C3036 1.403 . S
C3036 C3035 1.403 . S
C3036 C3037 1.404 . S
C3036 C3039 1.539 . S
C3037 C3033 1.408 . S
C3037 C3036 1.404 . S
C3037 H3049 0.930 . S
C3038 C3034 1.524 . S
C3038 H3050 0.956 . S
C3038 H3051 0.961 . S
C3038 H3052 0.961 . S
C3039 C3036 1.539 . S
C3039 H3053 0.958 . S
C3039 H3054 0.961 . S
C3039 H3055 0.960 . S
H3040 C3024 0.931 . S
H3041 C3029 0.929 . S
H3042 C3030 0.960 . S
H3043 C3030 0.962 . S
H3044 C3030 0.960 . S
H3045 C3031 0.961 . S
H3046 C3031 0.961 . S
H3047 C3031 0.961 . S
H3048 C3032 0.931 . S
H3049 C3037 0.930 . S
H3050 C3038 0.956 . S
H3051 C3038 0.961 . S
H3052 C3038 0.961 . S
H3053 C3039 0.958 . S
H3054 C3039 0.961 . S
H3055 C3039 0.960 . S
C3056 C3057 1.391 . S
C3056 C3058 1.394 . S
C3056 H3072 0.931 . S
C3057 C3056 1.391 . S
C3057 C3061 1.376 . S
C3058 C3056 1.394 . S
C3058 C3059 1.369 . S
C3058 C3062 1.531 . S
C3059 C3058 1.369 . S
C3059 C3060 1.410 . S
C3059 C3067 1.503 . S
C3060 C3059 1.410 . S
C3060 C3061 1.392 . S
C3060 C3063 1.511 . S
C3061 C3057 1.376 . S
C3061 C3060 1.392 . S
C3061 H3073 0.929 . S
C3062 C3058 1.531 . S
C3062 H3074 0.960 . S
C3062 H3075 0.962 . S
C3062 H3076 0.960 . S
C3063 C3060 1.511 . S
C3063 H3077 0.961 . S
C3063 H3078 0.961 . S
C3063 H3079 0.961 . S
C3064 C3065 1.370 . S
C3064 C3066 1.363 . S
C3064 H3080 0.931 . S
C3065 C3064 1.370 . S
C3065 C3069 1.408 . S
C3066 C3064 1.363 . S
C3066 C3067 1.370 . S
C3066 C3070 1.524 . S
C3067 C3059 1.503 . S
C3067 C3066 1.370 . S
C3067 C3068 1.403 . S
C3068 C3067 1.403 . S
C3068 C3069 1.404 . S
C3068 C3071 1.539 . S
C3069 C3065 1.408 . S
C3069 C3068 1.404 . S
C3069 H3081 0.930 . S
C3070 C3066 1.524 . S
C3070 H3082 0.956 . S
C3070 H3083 0.961 . S
C3070 H3084 0.961 . S
C3071 C3068 1.539 . S
C3071 H3085 0.958 . S
C3071 H3086 0.961 . S
C3071 H3087 0.960 . S
H3072 C3056 0.931 . S
H3073 C3061 0.929 . S
H3074 C3062 0.960 . S
H3075 C3062 0.962 . S
H3076 C3062 0.960 . S
H3077 C3063 0.961 . S
H3078 C3063 0.961 . S
H3079 C3063 0.961 . S
H3080 C3064 0.931 . S
H3081 C3069 0.930 . S
H3082 C3070 0.956 . S
H3083 C3070 0.961 . S
H3084 C3070 0.961 . S
H3085 C3071 0.958 . S
H3086 C3071 0.961 . S
H3087 C3071 0.960 . S
C3088 C3089 1.391 . S
C3088 C3090 1.394 . S
C3088 H3104 0.931 . S
C3089 C3088 1.391 . S
C3089 C3093 1.376 . S
C3090 C3088 1.394 . S
C3090 C3091 1.369 . S
C3090 C3094 1.531 . S
C3091 C3090 1.369 . S
C3091 C3092 1.410 . S
C3091 C3099 1.503 . S
C3092 C3091 1.410 . S
C3092 C3093 1.392 . S
C3092 C3095 1.511 . S
C3093 C3089 1.376 . S
C3093 C3092 1.392 . S
C3093 H3105 0.929 . S
C3094 C3090 1.531 . S
C3094 H3106 0.960 . S
C3094 H3107 0.962 . S
C3094 H3108 0.960 . S
C3095 C3092 1.511 . S
C3095 H3109 0.961 . S
C3095 H3110 0.961 . S
C3095 H3111 0.961 . S
C3096 C3097 1.370 . S
C3096 C3098 1.363 . S
C3096 H3112 0.931 . S
C3097 C3096 1.370 . S
C3097 C3101 1.408 . S
C3098 C3096 1.363 . S
C3098 C3099 1.370 . S
C3098 C3102 1.524 . S
C3099 C3091 1.503 . S
C3099 C3098 1.370 . S
C3099 C3100 1.403 . S
C3100 C3099 1.403 . S
C3100 C3101 1.404 . S
C3100 C3103 1.539 . S
C3101 C3097 1.408 . S
C3101 C3100 1.404 . S
C3101 H3113 0.930 . S
C3102 C3098 1.524 . S
C3102 H3114 0.956 . S
C3102 H3115 0.961 . S
C3102 H3116 0.961 . S
C3103 C3100 1.539 . S
C3103 H3117 0.958 . S
C3103 H3118 0.961 . S
C3103 H3119 0.960 . S
H3104 C3088 0.931 . S
H3105 C3093 0.929 . S
H3106 C3094 0.960 . S
H3107 C3094 0.962 . S
H3108 C3094 0.960 . S
H3109 C3095 0.961 . S
H3110 C3095 0.961 . S
H3111 C3095 0.961 . S
H3112 C3096 0.931 . S
H3113 C3101 0.930 . S
H3114 C3102 0.956 . S
H3115 C3102 0.961 . S
H3116 C3102 0.961 . S
H3117 C3103 0.958 . S
H3118 C3103 0.961 . S
H3119 C3103 0.960 . S
C3120 C3121 1.391 1_556 S
C3120 C3122 1.394 . S
C3120 H3136 0.931 . S
C3121 C3120 1.391 1_554 S
C3121 C3125 1.376 . S
C3122 C3120 1.394 . S
C3122 C3123 1.369 1_556 S
C3122 C3126 1.531 . S
C3123 C3122 1.369 1_554 S
C3123 C3124 1.410 . S
C3123 C3131 1.503 . S
C3124 C3123 1.410 . S
C3124 C3125 1.392 . S
C3124 C3127 1.511 . S
C3125 C3121 1.376 . S
C3125 C3124 1.392 . S
C3125 H3137 0.929 . S
C3126 C3122 1.531 . S
C3126 H3138 0.960 . S
C3126 H3139 0.962 . S
C3126 H3140 0.960 . S
C3127 C3124 1.511 . S
C3127 H3141 0.961 . S
C3127 H3142 0.961 . S
C3127 H3143 0.961 . S
C3128 C3129 1.370 . S
C3128 C3130 1.363 . S
C3128 H3144 0.931 . S
C3129 C3128 1.370 . S
C3129 C3133 1.408 . S
C3130 C3128 1.363 . S
C3130 C3131 1.370 . S
C3130 C3134 1.524 1_554 S
C3131 C3123 1.503 . S
C3131 C3130 1.370 . S
C3131 C3132 1.403 . S
C3132 C3131 1.403 . S
C3132 C3133 1.404 . S
C3132 C3135 1.539 . S
C3133 C3129 1.408 . S
C3133 C3132 1.404 . S
C3133 H3145 0.930 . S
C3134 C3130 1.524 1_556 S
C3134 H3146 0.956 . S
C3134 H3147 0.961 1_556 S
C3134 H3148 0.961 . S
C3135 C3132 1.539 . S
C3135 H3149 0.958 . S
C3135 H3150 0.961 . S
C3135 H3151 0.960 . S
H3136 C3120 0.931 . S
H3137 C3125 0.929 . S
H3138 C3126 0.960 . S
H3139 C3126 0.962 . S
H3140 C3126 0.960 . S
H3141 C3127 0.961 . S
H3142 C3127 0.961 . S
H3143 C3127 0.961 . S
H3144 C3128 0.931 . S
H3145 C3133 0.930 . S
H3146 C3134 0.956 . S
H3147 C3134 0.961 1_554 S
H3148 C3134 0.961 . S
H3149 C3135 0.958 . S
H3150 C3135 0.961 . S
H3151 C3135 0.960 . S
C3152 C3153 1.391 . S
C3152 C3154 1.394 . S
C3152 H3168 0.931 . S
C3153 C3152 1.391 . S
C3153 C3157 1.376 . S
C3154 C3152 1.394 . S
C3154 C3155 1.369 . S
C3154 C3158 1.531 . S
C3155 C3154 1.369 . S
C3155 C3156 1.410 . S
C3155 C3163 1.503 . S
C3156 C3155 1.410 . S
C3156 C3157 1.392 . S
C3156 C3159 1.511 . S
C3157 C3153 1.376 . S
C3157 C3156 1.392 . S
C3157 H3169 0.929 . S
C3158 C3154 1.531 . S
C3158 H3170 0.960 . S
C3158 H3171 0.962 . S
C3158 H3172 0.960 . S
C3159 C3156 1.511 . S
C3159 H3173 0.961 . S
C3159 H3174 0.961 . S
C3159 H3175 0.961 . S
C3160 C3161 1.370 . S
C3160 C3162 1.363 . S
C3160 H3176 0.931 . S
C3161 C3160 1.370 . S
C3161 C3165 1.408 . S
C3162 C3160 1.363 . S
C3162 C3163 1.370 . S
C3162 C3166 1.524 . S
C3163 C3155 1.503 . S
C3163 C3162 1.370 . S
C3163 C3164 1.403 . S
C3164 C3163 1.403 . S
C3164 C3165 1.404 . S
C3164 C3167 1.539 . S
C3165 C3161 1.408 . S
C3165 C3164 1.404 . S
C3165 H3177 0.930 . S
C3166 C3162 1.524 . S
C3166 H3178 0.956 . S
C3166 H3179 0.961 . S
C3166 H3180 0.961 . S
C3167 C3164 1.539 . S
C3167 H3181 0.958 . S
C3167 H3182 0.961 . S
C3167 H3183 0.960 . S
H3168 C3152 0.931 . S
H3169 C3157 0.929 . S
H3170 C3158 0.960 . S
H3171 C3158 0.962 . S
H3172 C3158 0.960 . S
H3173 C3159 0.961 . S
H3174 C3159 0.961 . S
H3175 C3159 0.961 . S
H3176 C3160 0.931 . S
H3177 C3165 0.930 . S
H3178 C3166 0.956 . S
H3179 C3166 0.961 . S
H3180 C3166 0.961 . S
H3181 C3167 0.958 . S
H3182 C3167 0.961 . S
H3183 C3167 0.960 . S
C3184 C3185 1.391 . S
C3184 C3186 1.394 . S
C3184 H3200 0.931 . S
C3185 C3184 1.391 . S
C3185 C3189 1.376 . S
C3186 C3184 1.394 . S
C3186 C3187 1.369 . S
C3186 C3190 1.531 . S
C3187 C3186 1.369 . S
C3187 C3188 1.410 . S
C3187 C3195 1.503 . S
C3188 C3187 1.410 . S
C3188 C3189 1.392 . S
C3188 C3191 1.511 . S
C3189 C3185 1.376 . S
C3189 C3188 1.392 . S
C3189 H3201 0.929 . S
C3190 C3186 1.531 . S
C3190 H3202 0.960 . S
C3190 H3203 0.962 . S
C3190 H3204 0.960 . S
C3191 C3188 1.511 . S
C3191 H3205 0.936 1_554 S
C3191 H3206 0.961 . S
C3191 H3207 0.961 . S
C3192 C3193 1.370 . S
C3192 C3194 1.363 . S
C3192 H3208 0.931 . S
C3193 C3192 1.370 . S
C3193 C3197 1.408 . S
C3194 C3192 1.363 . S
C3194 C3195 1.370 . S
C3194 C3198 1.524 . S
C3195 C3187 1.503 . S
C3195 C3194 1.370 . S
C3195 C3196 1.403 . S
C3196 C3195 1.403 . S
C3196 C3197 1.404 . S
C3196 C3199 1.539 . S
C3197 C3193 1.408 . S
C3197 C3196 1.404 . S
C3197 H3209 0.930 . S
C3198 C3194 1.524 . S
C3198 H3210 0.956 . S
C3198 H3211 0.961 . S
C3198 H3212 0.961 . S
C3199 C3196 1.539 . S
C3199 H3213 0.958 . S
C3199 H3214 0.961 . S
C3199 H3215 0.960 . S
H3200 C3184 0.931 . S
H3201 C3189 0.929 . S
H3202 C3190 0.960 . S
H3203 C3190 0.962 . S
H3204 C3190 0.960 . S
H3205 C3191 0.936 1_556 S
H3206 C3191 0.961 . S
H3207 C3191 0.961 . S
H3208 C3192 0.931 . S
H3209 C3197 0.930 . S
H3210 C3198 0.956 . S
H3211 C3198 0.961 . S
H3212 C3198 0.961 . S
H3213 C3199 0.958 . S
H3214 C3199 0.961 . S
H3215 C3199 0.960 . S
C3216 C3217 1.391 . S
C3216 C3218 1.394 . S
C3216 H3232 0.931 . S
C3217 C3216 1.391 . S
C3217 C3221 1.376 . S
C3218 C3216 1.394 . S
C3218 C3219 1.369 . S
C3218 C3222 1.531 . S
C3219 C3218 1.369 . S
C3219 C3220 1.410 . S
C3219 C3227 1.503 . S
C3220 C3219 1.410 . S
C3220 C3221 1.392 . S
C3220 C3223 1.511 . S
C3221 C3217 1.376 . S
C3221 C3220 1.392 . S
C3221 H3233 0.929 . S
C3222 C3218 1.531 . S
C3222 H3234 0.960 . S
C3222 H3235 0.962 . S
C3222 H3236 0.960 . S
C3223 C3220 1.511 . S
C3223 H3237 0.961 . S
C3223 H3238 0.961 . S
C3223 H3239 0.961 . S
C3224 C3225 1.370 . S
C3224 C3226 1.363 . S
C3224 H3240 0.931 . S
C3225 C3224 1.370 . S
C3225 C3229 1.408 . S
C3226 C3224 1.363 . S
C3226 C3227 1.370 . S
C3226 C3230 1.524 . S
C3227 C3219 1.503 . S
C3227 C3226 1.370 . S
C3227 C3228 1.403 . S
C3228 C3227 1.403 . S
C3228 C3229 1.404 . S
C3228 C3231 1.539 . S
C3229 C3225 1.408 . S
C3229 C3228 1.404 . S
C3229 H3241 0.930 . S
C3230 C3226 1.524 . S
C3230 H3242 0.956 . S
C3230 H3243 0.961 . S
C3230 H3244 0.961 . S
C3231 C3228 1.539 . S
C3231 H3245 0.958 . S
C3231 H3246 0.961 . S
C3231 H3247 0.960 . S
H3232 C3216 0.931 . S
H3233 C3221 0.929 . S
H3234 C3222 0.960 . S
H3235 C3222 0.962 . S
H3236 C3222 0.960 . S
H3237 C3223 0.961 . S
H3238 C3223 0.961 . S
H3239 C3223 0.961 . S
H3240 C3224 0.931 . S
H3241 C3229 0.930 . S
H3242 C3230 0.956 . S
H3243 C3230 0.961 . S
H3244 C3230 0.961 . S
H3245 C3231 0.958 . S
H3246 C3231 0.961 . S
H3247 C3231 0.960 . S
C3248 C3249 1.391 . S
C3248 C3250 1.394 . S
C3248 H3264 0.931 . S
C3249 C3248 1.391 . S
C3249 C3253 1.376 . S
C3250 C3248 1.394 . S
C3250 C3251 1.369 . S
C3250 C3254 1.531 . S
C3251 C3250 1.369 . S
C3251 C3252 1.410 . S
C3251 C3259 1.503 . S
C3252 C3251 1.410 . S
C3252 C3253 1.392 . S
C3252 C3255 1.511 . S
C3253 C3249 1.376 . S
C3253 C3252 1.392 . S
C3253 H3265 0.929 . S
C3254 C3250 1.531 . S
C3254 H3266 0.960 . S
C3254 H3267 0.962 . S
C3254 H3268 0.960 . S
C3255 C3252 1.511 . S
C3255 H3269 0.961 . S
C3255 H3270 0.961 . S
C3255 H3271 0.961 . S
C3256 C3257 1.370 . S
C3256 C3258 1.363 . S
C3256 H3272 0.931 . S
C3257 C3256 1.370 . S
C3257 C3261 1.408 . S
C3258 C3256 1.363 . S
C3258 C3259 1.370 . S
C3258 C3262 1.524 . S
C3259 C3251 1.503 . S
C3259 C3258 1.370 . S
C3259 C3260 1.403 . S
C3260 C3259 1.403 . S
C3260 C3261 1.404 . S
C3260 C3263 1.539 . S
C3261 C3257 1.408 . S
C3261 C3260 1.404 . S
C3261 H3273 0.930 . S
C3262 C3258 1.524 . S
C3262 H3274 0.956 . S
C3262 H3275 0.961 . S
C3262 H3276 0.961 . S
C3263 C3260 1.539 . S
C3263 H3277 0.958 . S
C3263 H3278 0.961 . S
C3263 H3279 0.960 . S
H3264 C3248 0.931 . S
H3265 C3253 0.929 . S
H3266 C3254 0.960 . S
H3267 C3254 0.962 . S
H3268 C3254 0.960 . S
H3269 C3255 0.961 . S
H3270 C3255 0.961 . S
H3271 C3255 0.961 . S
H3272 C3256 0.931 . S
H3273 C3261 0.930 . S
H3274 C3262 0.956 . S
H3275 C3262 0.961 . S
H3276 C3262 0.961 . S
H3277 C3263 0.958 . S
H3278 C3263 0.961 . S
H3279 C3263 0.960 . S
C3280 C3281 1.391 . S
C3280 C3282 1.394 . S
C3280 H3296 0.931 . S
C3281 C3280 1.391 . S
C3281 C3285 1.376 . S
C3282 C3280 1.394 . S
C3282 C3283 1.369 . S
C3282 C3286 1.531 . S
C3283 C3282 1.369 . S
C3283 C3284 1.410 . S
C3283 C3291 1.503 . S
C3284 C3283 1.410 . S
C3284 C3285 1.392 . S
C3284 C3287 1.511 . S
C3285 C3281 1.376 . S
C3285 C3284 1.392 . S
C3285 H3297 0.929 . S
C3286 C3282 1.531 . S
C3286 H3298 0.960 . S
C3286 H3299 0.962 . S
C3286 H3300 0.960 . S
C3287 C3284 1.511 . S
C3287 H3301 0.961 . S
C3287 H3302 0.961 . S
C3287 H3303 0.961 . S
C3288 C3289 1.370 . S
C3288 C3290 1.363 . S
C3288 H3304 0.931 . S
C3289 C3288 1.370 . S
C3289 C3293 1.408 . S
C3290 C3288 1.363 . S
C3290 C3291 1.370 . S
C3290 C3294 1.524 . S
C3291 C3283 1.503 . S
C3291 C3290 1.370 . S
C3291 C3292 1.403 . S
C3292 C3291 1.403 . S
C3292 C3293 1.404 . S
C3292 C3295 1.539 . S
C3293 C3289 1.408 . S
C3293 C3292 1.404 . S
C3293 H3305 0.930 . S
C3294 C3290 1.524 . S
C3294 H3306 0.956 . S
C3294 H3307 0.961 . S
C3294 H3308 0.961 . S
C3295 C3292 1.539 . S
C3295 H3309 0.958 . S
C3295 H3310 0.961 . S
C3295 H3311 0.960 . S
H3296 C3280 0.931 . S
H3297 C3285 0.929 . S
H3298 C3286 0.960 . S
H3299 C3286 0.962 . S
H3300 C3286 0.960 . S
H3301 C3287 0.961 . S
H3302 C3287 0.961 . S
H3303 C3287 0.961 . S
H3304 C3288 0.931 . S
H3305 C3293 0.930 . S
H3306 C3294 0.956 . S
H3307 C3294 0.961 . S
H3308 C3294 0.961 . S
H3309 C3295 0.958 . S
H3310 C3295 0.961 . S
H3311 C3295 0.960 . S
C3312 C3313 1.391 . S
C3312 C3314 1.394 . S
C3312 H3328 0.931 . S
C3313 C3312 1.391 . S
C3313 C3317 1.376 . S
C3314 C3312 1.394 . S
C3314 C3315 1.369 . S
C3314 C3318 1.531 . S
C3315 C3314 1.369 . S
C3315 C3316 1.410 . S
C3315 C3323 1.503 . S
C3316 C3315 1.410 . S
C3316 C3317 1.392 . S
C3316 C3319 1.511 . S
C3317 C3313 1.376 . S
C3317 C3316 1.392 . S
C3317 H3329 0.929 . S
C3318 C3314 1.531 . S
C3318 H3330 0.960 . S
C3318 H3331 0.962 . S
C3318 H3332 0.960 . S
C3319 C3316 1.511 . S
C3319 H3333 0.961 . S
C3319 H3334 0.961 . S
C3319 H3335 0.961 . S
C3320 C3321 1.370 . S
C3320 C3322 1.363 . S
C3320 H3336 0.931 . S
C3321 C3320 1.370 . S
C3321 C3325 1.408 . S
C3322 C3320 1.363 . S
C3322 C3323 1.370 . S
C3322 C3326 1.524 . S
C3323 C3315 1.503 . S
C3323 C3322 1.370 . S
C3323 C3324 1.403 . S
C3324 C3323 1.403 . S
C3324 C3325 1.404 . S
C3324 C3327 1.539 . S
C3325 C3321 1.408 . S
C3325 C3324 1.404 . S
C3325 H3337 0.930 . S
C3326 C3322 1.524 . S
C3326 H3338 0.956 . S
C3326 H3339 0.961 . S
C3326 H3340 0.961 . S
C3327 C3324 1.539 . S
C3327 H3341 0.958 . S
C3327 H3342 0.961 . S
C3327 H3343 0.960 . S
H3328 C3312 0.931 . S
H3329 C3317 0.929 . S
H3330 C3318 0.960 . S
H3331 C3318 0.962 . S
H3332 C3318 0.960 . S
H3333 C3319 0.961 . S
H3334 C3319 0.961 . S
H3335 C3319 0.961 . S
H3336 C3320 0.931 . S
H3337 C3325 0.930 . S
H3338 C3326 0.956 . S
H3339 C3326 0.961 . S
H3340 C3326 0.961 . S
H3341 C3327 0.958 . S
H3342 C3327 0.961 . S
H3343 C3327 0.960 . S
C3344 C3345 1.391 . S
C3344 C3346 1.394 . S
C3344 H3360 0.931 . S
C3345 C3344 1.391 . S
C3345 C3349 1.376 . S
C3346 C3344 1.394 . S
C3346 C3347 1.369 . S
C3346 C3350 1.531 . S
C3347 C3346 1.369 . S
C3347 C3348 1.410 . S
C3347 C3355 1.503 . S
C3348 C3347 1.410 . S
C3348 C3349 1.392 . S
C3348 C3351 1.511 . S
C3349 C3345 1.376 . S
C3349 C3348 1.392 . S
C3349 H3361 0.929 . S
C3350 C3346 1.531 . S
C3350 H3362 0.960 . S
C3350 H3363 0.962 1_455 S
C3350 H3364 0.960 1_455 S
C3351 C3348 1.511 . S
C3351 H3365 0.961 . S
C3351 H3366 0.961 . S
C3351 H3367 0.961 . S
C3352 C3353 1.370 . S
C3352 C3354 1.363 . S
C3352 H3368 0.931 . S
C3353 C3352 1.370 . S
C3353 C3357 1.408 . S
C3354 C3352 1.363 . S
C3354 C3355 1.370 . S
C3354 C3358 1.524 . S
C3355 C3347 1.503 . S
C3355 C3354 1.370 . S
C3355 C3356 1.403 . S
C3356 C3355 1.403 . S
C3356 C3357 1.404 . S
C3356 C3359 1.539 . S
C3357 C3353 1.408 . S
C3357 C3356 1.404 . S
C3357 H3369 0.930 . S
C3358 C3354 1.524 . S
C3358 H3370 0.956 . S
C3358 H3371 0.961 . S
C3358 H3372 0.961 . S
C3359 C3356 1.539 . S
C3359 H3373 0.958 . S
C3359 H3374 0.961 . S
C3359 H3375 0.960 . S
H3360 C3344 0.931 . S
H3361 C3349 0.929 . S
H3362 C3350 0.960 . S
H3363 C3350 0.962 1_655 S
H3364 C3350 0.960 1_655 S
H3365 C3351 0.961 . S
H3366 C3351 0.961 . S
H3367 C3351 0.961 . S
H3368 C3352 0.931 . S
H3369 C3357 0.930 . S
H3370 C3358 0.956 . S
H3371 C3358 0.961 . S
H3372 C3358 0.961 . S
H3373 C3359 0.958 . S
H3374 C3359 0.961 . S
H3375 C3359 0.960 . S
C3376 C3377 1.391 . S
C3376 C3378 1.394 . S
C3376 H3392 0.931 . S
C3377 C3376 1.391 . S
C3377 C3381 1.376 . S
C3378 C3376 1.394 . S
C3378 C3379 1.369 . S
C3378 C3382 1.531 . S
C3379 C3378 1.369 . S
C3379 C3380 1.410 . S
C3379 C3387 1.503 . S
C3380 C3379 1.410 . S
C3380 C3381 1.392 . S
C3380 C3383 1.511 . S
C3381 C3377 1.376 . S
C3381 C3380 1.392 . S
C3381 H3393 0.929 . S
C3382 C3378 1.531 . S
C3382 H3394 0.960 . S
C3382 H3395 0.962 . S
C3382 H3396 0.960 . S
C3383 C3380 1.511 . S
C3383 H3397 0.961 . S
C3383 H3398 0.961 . S
C3383 H3399 0.961 . S
C3384 C3385 1.370 . S
C3384 C3386 1.363 . S
C3384 H3400 0.931 . S
C3385 C3384 1.370 . S
C3385 C3389 1.408 . S
C3386 C3384 1.363 . S
C3386 C3387 1.370 . S
C3386 C3390 1.524 . S
C3387 C3379 1.503 . S
C3387 C3386 1.370 . S
C3387 C3388 1.403 . S
C3388 C3387 1.403 . S
C3388 C3389 1.404 . S
C3388 C3391 1.539 . S
C3389 C3385 1.408 . S
C3389 C3388 1.404 . S
C3389 H3401 0.930 . S
C3390 C3386 1.524 . S
C3390 H3402 0.956 . S
C3390 H3403 0.961 . S
C3390 H3404 0.961 . S
C3391 C3388 1.539 . S
C3391 H3405 0.958 . S
C3391 H3406 0.961 . S
C3391 H3407 0.960 . S
H3392 C3376 0.931 . S
H3393 C3381 0.929 . S
H3394 C3382 0.960 . S
H3395 C3382 0.962 . S
H3396 C3382 0.960 . S
H3397 C3383 0.961 . S
H3398 C3383 0.961 . S
H3399 C3383 0.961 . S
H3400 C3384 0.931 . S
H3401 C3389 0.930 . S
H3402 C3390 0.956 . S
H3403 C3390 0.961 . S
H3404 C3390 0.961 . S
H3405 C3391 0.958 . S
H3406 C3391 0.961 . S
H3407 C3391 0.960 . S
C3408 C3409 1.391 . S
C3408 C3410 1.394 . S
C3408 H3424 0.931 . S
C3409 C3408 1.391 . S
C3409 C3413 1.376 1_556 S
C3410 C3408 1.394 . S
C3410 C3411 1.369 . S
C3410 C3414 1.531 . S
C3411 C3410 1.369 . S
C3411 C3412 1.410 1_556 S
C3411 C3419 1.503 . S
C3412 C3411 1.410 1_554 S
C3412 C3413 1.392 . S
C3412 C3415 1.511 . S
C3413 C3409 1.376 1_554 S
C3413 C3412 1.392 . S
C3413 H3425 0.929 . S
C3414 C3410 1.531 . S
C3414 H3426 0.960 . S
C3414 H3427 0.962 . S
C3414 H3428 0.960 . S
C3415 C3412 1.511 . S
C3415 H3429 0.961 . S
C3415 H3430 0.961 . S
C3415 H3431 0.961 . S
C3416 C3417 1.370 . S
C3416 C3418 1.363 . S
C3416 H3432 0.931 . S
C3417 C3416 1.370 . S
C3417 C3421 1.408 1_554 S
C3418 C3416 1.363 . S
C3418 C3419 1.370 1_554 S
C3418 C3422 1.524 . S
C3419 C3411 1.503 . S
C3419 C3418 1.370 1_556 S
C3419 C3420 1.403 . S
C3420 C3419 1.403 . S
C3420 C3421 1.404 . S
C3420 C3423 1.539 . S
C3421 C3417 1.408 1_556 S
C3421 C3420 1.404 . S
C3421 H3433 0.930 . S
C3422 C3418 1.524 . S
C3422 H3434 0.956 . S
C3422 H3435 0.961 . S
C3422 H3436 0.961 . S
C3423 C3420 1.539 . S
C3423 H3437 0.958 . S
C3423 H3438 0.961 . S
C3423 H3439 0.960 . S
H3424 C3408 0.931 . S
H3425 C3413 0.929 . S
H3426 C3414 0.960 . S
H3427 C3414 0.962 . S
H3428 C3414 0.960 . S
H3429 C3415 0.961 . S
H3430 C3415 0.961 . S
H3431 C3415 0.961 . S
H3432 C3416 0.931 . S
H3433 C3421 0.930 . S
H3434 C3422 0.956 . S
H3435 C3422 0.961 . S
H3436 C3422 0.961 . S
H3437 C3423 0.958 . S
H3438 C3423 0.961 . S
H3439 C3423 0.960 . S
C3440 C3441 1.391 . S
C3440 C3442 1.394 . S
C3440 H3456 0.931 . S
C3441 C3440 1.391 . S
C3441 C3445 1.376 . S
C3442 C3440 1.394 . S
C3442 C3443 1.369 . S
C3442 C3446 1.531 . S
C3443 C3442 1.369 . S
C3443 C3444 1.410 . S
C3443 C3451 1.503 . S
C3444 C3443 1.410 . S
C3444 C3445 1.392 . S
C3444 C3447 1.511 . S
C3445 C3441 1.376 . S
C3445 C3444 1.392 . S
C3445 H3457 0.929 . S
C3446 C3442 1.531 . S
C3446 H3458 0.960 . S
C3446 H3459 0.962 . S
C3446 H3460 0.960 . S
C3447 C3444 1.511 . S
C3447 H3461 0.961 . S
C3447 H3462 0.961 . S
C3447 H3463 0.961 . S
C3448 C3449 1.370 . S
C3448 C3450 1.363 . S
C3448 H3464 0.931 . S
C3449 C3448 1.370 . S
C3449 C3453 1.408 . S
C3450 C3448 1.363 . S
C3450 C3451 1.370 . S
C3450 C3454 1.524 . S
C3451 C3443 1.503 . S
C3451 C3450 1.370 . S
C3451 C3452 1.403 . S
C3452 C3451 1.403 . S
C3452 C3453 1.404 . S
C3452 C3455 1.539 . S
C3453 C3449 1.408 . S
C3453 C3452 1.404 . S
C3453 H3465 0.930 . S
C3454 C3450 1.524 . S
C3454 H3466 0.956 . S
C3454 H3467 0.961 . S
C3454 H3468 0.961 . S
C3455 C3452 1.539 . S
C3455 H3469 0.958 . S
C3455 H3470 0.961 . S
C3455 H3471 0.960 . S
H3456 C3440 0.931 . S
H3457 C3445 0.929 . S
H3458 C3446 0.960 . S
H3459 C3446 0.962 . S
H3460 C3446 0.960 . S
H3461 C3447 0.961 . S
H3462 C3447 0.961 . S
H3463 C3447 0.961 . S
H3464 C3448 0.931 . S
H3465 C3453 0.930 . S
H3466 C3454 0.956 . S
H3467 C3454 0.961 . S
H3468 C3454 0.961 . S
H3469 C3455 0.958 . S
H3470 C3455 0.961 . S
H3471 C3455 0.960 . S
C3472 C3473 1.391 . S
C3472 C3474 1.394 . S
C3472 H3488 0.931 . S
C3473 C3472 1.391 . S
C3473 C3477 1.376 . S
C3474 C3472 1.394 . S
C3474 C3475 1.369 . S
C3474 C3478 1.531 . S
C3475 C3474 1.369 . S
C3475 C3476 1.410 . S
C3475 C3483 1.503 . S
C3476 C3475 1.410 . S
C3476 C3477 1.392 . S
C3476 C3479 1.511 . S
C3477 C3473 1.376 . S
C3477 C3476 1.392 . S
C3477 H3489 0.929 . S
C3478 C3474 1.531 . S
C3478 H3490 0.960 . S
C3478 H3491 0.962 . S
C3478 H3492 0.960 . S
C3479 C3476 1.511 . S
C3479 H3493 0.961 . S
C3479 H3494 0.961 . S
C3479 H3495 0.961 . S
C3480 C3481 1.370 . S
C3480 C3482 1.363 . S
C3480 H3496 0.931 . S
C3481 C3480 1.370 . S
C3481 C3485 1.408 . S
C3482 C3480 1.363 . S
C3482 C3483 1.370 . S
C3482 C3486 1.524 . S
C3483 C3475 1.503 . S
C3483 C3482 1.370 . S
C3483 C3484 1.403 . S
C3484 C3483 1.403 . S
C3484 C3485 1.404 . S
C3484 C3487 1.539 . S
C3485 C3481 1.408 . S
C3485 C3484 1.404 . S
C3485 H3497 0.930 . S
C3486 C3482 1.524 . S
C3486 H3498 0.956 . S
C3486 H3499 0.961 . S
C3486 H3500 0.961 . S
C3487 C3484 1.539 . S
C3487 H3501 0.958 1_455 S
C3487 H3502 0.961 . S
C3487 H3503 0.960 . S
H3488 C3472 0.931 . S
H3489 C3477 0.929 . S
H3490 C3478 0.960 . S
H3491 C3478 0.962 . S
H3492 C3478 0.960 . S
H3493 C3479 0.961 . S
H3494 C3479 0.961 . S
H3495 C3479 0.961 . S
H3496 C3480 0.931 . S
H3497 C3485 0.930 . S
H3498 C3486 0.956 . S
H3499 C3486 0.961 . S
H3500 C3486 0.961 . S
H3501 C3487 0.958 1_655 S
H3502 C3487 0.961 . S
H3503 C3487 0.960 . S
C3504 C3505 1.391 . S
C3504 C3506 1.394 . S
C3504 H3520 0.931 . S
C3505 C3504 1.391 . S
C3505 C3509 1.376 . S
C3506 C3504 1.394 . S
C3506 C3507 1.369 . S
C3506 C3510 1.531 . S
C3507 C3506 1.369 . S
C3507 C3508 1.410 . S
C3507 C3515 1.503 . S
C3508 C3507 1.410 . S
C3508 C3509 1.392 . S
C3508 C3511 1.511 . S
C3509 C3505 1.376 . S
C3509 C3508 1.392 . S
C3509 H3521 0.929 . S
C3510 C3506 1.531 . S
C3510 H3522 0.960 . S
C3510 H3523 0.962 . S
C3510 H3524 0.960 . S
C3511 C3508 1.511 . S
C3511 H3525 0.961 . S
C3511 H3526 0.961 . S
C3511 H3527 0.961 . S
C3512 C3513 1.370 . S
C3512 C3514 1.363 . S
C3512 H3528 0.931 . S
C3513 C3512 1.370 . S
C3513 C3517 1.408 . S
C3514 C3512 1.363 . S
C3514 C3515 1.370 . S
C3514 C3518 1.524 . S
C3515 C3507 1.503 . S
C3515 C3514 1.370 . S
C3515 C3516 1.403 . S
C3516 C3515 1.403 . S
C3516 C3517 1.404 . S
C3516 C3519 1.539 . S
C3517 C3513 1.408 . S
C3517 C3516 1.404 . S
C3517 H3529 0.930 . S
C3518 C3514 1.524 . S
C3518 H3530 0.956 . S
C3518 H3531 0.961 . S
C3518 H3532 0.961 . S
C3519 C3516 1.539 . S
C3519 H3533 0.958 . S
C3519 H3534 0.961 . S
C3519 H3535 0.960 . S
H3520 C3504 0.931 . S
H3521 C3509 0.929 . S
H3522 C3510 0.960 . S
H3523 C3510 0.962 . S
H3524 C3510 0.960 . S
H3525 C3511 0.961 . S
H3526 C3511 0.961 . S
H3527 C3511 0.961 . S
H3528 C3512 0.931 . S
H3529 C3517 0.930 . S
H3530 C3518 0.956 . S
H3531 C3518 0.961 . S
H3532 C3518 0.961 . S
H3533 C3519 0.958 . S
H3534 C3519 0.961 . S
H3535 C3519 0.960 . S
C3536 C3537 1.391 . S
C3536 C3538 1.394 . S
C3536 H3552 0.931 . S
C3537 C3536 1.391 . S
C3537 C3541 1.376 . S
C3538 C3536 1.394 . S
C3538 C3539 1.369 . S
C3538 C3542 1.531 . S
C3539 C3538 1.369 . S
C3539 C3540 1.410 . S
C3539 C3547 1.503 . S
C3540 C3539 1.410 . S
C3540 C3541 1.392 . S
C3540 C3543 1.511 . S
C3541 C3537 1.376 . S
C3541 C3540 1.392 . S
C3541 H3553 0.929 . S
C3542 C3538 1.531 . S
C3542 H3554 0.960 . S
C3542 H3555 0.962 . S
C3542 H3556 0.960 . S
C3543 C3540 1.511 . S
C3543 H3557 0.961 . S
C3543 H3558 0.961 . S
C3543 H3559 0.961 . S
C3544 C3545 1.370 . S
C3544 C3546 1.363 . S
C3544 H3560 0.931 . S
C3545 C3544 1.370 . S
C3545 C3549 1.408 . S
C3546 C3544 1.363 . S
C3546 C3547 1.370 . S
C3546 C3550 1.524 . S
C3547 C3539 1.503 . S
C3547 C3546 1.370 . S
C3547 C3548 1.403 . S
C3548 C3547 1.403 . S
C3548 C3549 1.404 . S
C3548 C3551 1.539 . S
C3549 C3545 1.408 . S
C3549 C3548 1.404 . S
C3549 H3561 0.930 . S
C3550 C3546 1.524 . S
C3550 H3562 0.956 . S
C3550 H3563 0.961 . S
C3550 H3564 0.961 . S
C3551 C3548 1.539 . S
C3551 H3565 0.958 . S
C3551 H3566 0.961 . S
C3551 H3567 0.960 . S
H3552 C3536 0.931 . S
H3553 C3541 0.929 . S
H3554 C3542 0.960 . S
H3555 C3542 0.962 . S
H3556 C3542 0.960 . S
H3557 C3543 0.961 . S
H3558 C3543 0.961 . S
H3559 C3543 0.961 . S
H3560 C3544 0.931 . S
H3561 C3549 0.930 . S
H3562 C3550 0.956 . S
H3563 C3550 0.961 . S
H3564 C3550 0.961 . S
H3565 C3551 0.958 . S
H3566 C3551 0.961 . S
H3567 C3551 0.960 . S
C3568 C3569 1.391 . S
C3568 C3570 1.394 . S
C3568 H3584 0.931 . S
C3569 C3568 1.391 . S
C3569 C3573 1.376 . S
C3570 C3568 1.394 . S
C3570 C3571 1.369 . S
C3570 C3574 1.531 . S
C3571 C3570 1.369 . S
C3571 C3572 1.410 . S
C3571 C3579 1.503 . S
C3572 C3571 1.410 . S
C3572 C3573 1.392 . S
C3572 C3575 1.511 . S
C3573 C3569 1.376 . S
C3573 C3572 1.392 . S
C3573 H3585 0.929 . S
C3574 C3570 1.531 . S
C3574 H3586 0.960 . S
C3574 H3587 0.962 . S
C3574 H3588 0.960 . S
C3575 C3572 1.511 . S
C3575 H3589 0.961 . S
C3575 H3590 0.961 . S
C3575 H3591 0.961 . S
C3576 C3577 1.370 . S
C3576 C3578 1.363 . S
C3576 H3592 0.931 . S
C3577 C3576 1.370 . S
C3577 C3581 1.408 . S
C3578 C3576 1.363 . S
C3578 C3579 1.370 . S
C3578 C3582 1.524 . S
C3579 C3571 1.503 . S
C3579 C3578 1.370 . S
C3579 C3580 1.403 . S
C3580 C3579 1.403 . S
C3580 C3581 1.404 . S
C3580 C3583 1.539 . S
C3581 C3577 1.408 . S
C3581 C3580 1.404 . S
C3581 H3593 0.930 . S
C3582 C3578 1.524 . S
C3582 H3594 0.956 . S
C3582 H3595 0.961 . S
C3582 H3596 0.961 . S
C3583 C3580 1.539 . S
C3583 H3597 0.958 . S
C3583 H3598 0.961 . S
C3583 H3599 0.960 . S
H3584 C3568 0.931 . S
H3585 C3573 0.929 . S
H3586 C3574 0.960 . S
H3587 C3574 0.962 . S
H3588 C3574 0.960 . S
H3589 C3575 0.961 . S
H3590 C3575 0.961 . S
H3591 C3575 0.961 . S
H3592 C3576 0.931 . S
H3593 C3581 0.930 . S
H3594 C3582 0.956 . S
H3595 C3582 0.961 . S
H3596 C3582 0.961 . S
H3597 C3583 0.958 . S
H3598 C3583 0.961 . S
H3599 C3583 0.960 . S
C3600 C3601 1.391 . S
C3600 C3602 1.394 . S
C3600 H3616 0.931 . S
C3601 C3600 1.391 . S
C3601 C3605 1.376 . S
C3602 C3600 1.394 . S
C3602 C3603 1.369 . S
C3602 C3606 1.531 . S
C3603 C3602 1.369 . S
C3603 C3604 1.410 . S
C3603 C3611 1.503 . S
C3604 C3603 1.410 . S
C3604 C3605 1.392 . S
C3604 C3607 1.511 . S
C3605 C3601 1.376 . S
C3605 C3604 1.392 . S
C3605 H3617 0.929 . S
C3606 C3602 1.531 . S
C3606 H3618 0.960 . S
C3606 H3619 0.962 . S
C3606 H3620 0.960 . S
C3607 C3604 1.511 . S
C3607 H3621 0.961 . S
C3607 H3622 0.961 . S
C3607 H3623 0.961 . S
C3608 C3609 1.370 1_455 S
C3608 C3610 1.363 1_455 S
C3608 H3624 0.931 . S
C3609 C3608 1.370 1_655 S
C3609 C3613 1.408 . S
C3610 C3608 1.363 1_655 S
C3610 C3611 1.370 . S
C3610 C3614 1.524 1_655 S
C3611 C3603 1.503 . S
C3611 C3610 1.370 . S
C3611 C3612 1.403 . S
C3612 C3611 1.403 . S
C3612 C3613 1.404 . S
C3612 C3615 1.539 . S
C3613 C3609 1.408 . S
C3613 C3612 1.404 . S
C3613 H3625 0.930 . S
C3614 C3610 1.524 1_455 S
C3614 H3626 0.956 . S
C3614 H3627 0.961 1_455 S
C3614 H3628 0.961 . S
C3615 C3612 1.539 . S
C3615 H3629 0.958 . S
C3615 H3630 0.961 . S
C3615 H3631 0.960 . S
H3616 C3600 0.931 . S
H3617 C3605 0.929 . S
H3618 C3606 0.960 . S
H3619 C3606 0.962 . S
H3620 C3606 0.960 . S
H3621 C3607 0.961 . S
H3622 C3607 0.961 . S
H3623 C3607 0.961 . S
H3624 C3608 0.931 . S
H3625 C3613 0.930 . S
H3626 C3614 0.956 . S
H3627 C3614 0.961 1_655 S
H3628 C3614 0.961 . S
H3629 C3615 0.958 . S
H3630 C3615 0.961 . S
H3631 C3615 0.960 . S
C3632 C3633 1.391 . S
C3632 C3634 1.394 . S
C3632 H3648 0.931 . S
C3633 C3632 1.391 . S
C3633 C3637 1.376 . S
C3634 C3632 1.394 . S
C3634 C3635 1.369 . S
C3634 C3638 1.531 . S
C3635 C3634 1.369 . S
C3635 C3636 1.410 . S
C3635 C3643 1.503 . S
C3636 C3635 1.410 . S
C3636 C3637 1.392 . S
C3636 C3639 1.511 . S
C3637 C3633 1.376 . S
C3637 C3636 1.392 . S
C3637 H3649 0.929 . S
C3638 C3634 1.531 . S
C3638 H3650 0.960 . S
C3638 H3651 0.962 . S
C3638 H3652 0.960 . S
C3639 C3636 1.511 . S
C3639 H3653 0.961 . S
C3639 H3654 0.961 . S
C3639 H3655 0.961 . S
C3640 C3641 1.370 . S
C3640 C3642 1.363 . S
C3640 H3656 0.931 . S
C3641 C3640 1.370 . S
C3641 C3645 1.408 . S
C3642 C3640 1.363 . S
C3642 C3643 1.370 . S
C3642 C3646 1.524 . S
C3643 C3635 1.503 . S
C3643 C3642 1.370 . S
C3643 C3644 1.403 . S
C3644 C3643 1.403 . S
C3644 C3645 1.404 . S
C3644 C3647 1.539 . S
C3645 C3641 1.408 . S
C3645 C3644 1.404 . S
C3645 H3657 0.930 . S
C3646 C3642 1.524 . S
C3646 H3658 0.956 . S
C3646 H3659 0.961 . S
C3646 H3660 0.961 . S
C3647 C3644 1.539 . S
C3647 H3661 0.958 . S
C3647 H3662 0.961 . S
C3647 H3663 0.960 . S
H3648 C3632 0.931 . S
H3649 C3637 0.929 . S
H3650 C3638 0.960 . S
H3651 C3638 0.962 . S
H3652 C3638 0.960 . S
H3653 C3639 0.961 . S
H3654 C3639 0.961 . S
H3655 C3639 0.961 . S
H3656 C3640 0.931 . S
H3657 C3645 0.930 . S
H3658 C3646 0.956 . S
H3659 C3646 0.961 . S
H3660 C3646 0.961 . S
H3661 C3647 0.958 . S
H3662 C3647 0.961 . S
H3663 C3647 0.960 . S
C3664 C3665 1.391 . S
C3664 C3666 1.394 . S
C3664 H3680 0.931 . S
C3665 C3664 1.391 . S
C3665 C3669 1.376 . S
C3666 C3664 1.394 . S
C3666 C3667 1.369 . S
C3666 C3670 1.531 . S
C3667 C3666 1.369 . S
C3667 C3668 1.410 . S
C3667 C3675 1.503 . S
C3668 C3667 1.410 . S
C3668 C3669 1.392 . S
C3668 C3671 1.511 . S
C3669 C3665 1.376 . S
C3669 C3668 1.392 . S
C3669 H3681 0.929 . S
C3670 C3666 1.531 . S
C3670 H3682 0.960 . S
C3670 H3683 0.962 . S
C3670 H3684 0.960 . S
C3671 C3668 1.511 . S
C3671 H3685 0.961 . S
C3671 H3686 0.961 . S
C3671 H3687 0.961 . S
C3672 C3673 1.370 . S
C3672 C3674 1.363 . S
C3672 H3688 0.931 . S
C3673 C3672 1.370 . S
C3673 C3677 1.408 . S
C3674 C3672 1.363 . S
C3674 C3675 1.370 . S
C3674 C3678 1.524 . S
C3675 C3667 1.503 . S
C3675 C3674 1.370 . S
C3675 C3676 1.403 . S
C3676 C3675 1.403 . S
C3676 C3677 1.404 . S
C3676 C3679 1.539 . S
C3677 C3673 1.408 . S
C3677 C3676 1.404 . S
C3677 H3689 0.930 . S
C3678 C3674 1.524 . S
C3678 H3690 0.956 . S
C3678 H3691 0.961 . S
C3678 H3692 0.961 . S
C3679 C3676 1.539 . S
C3679 H3693 0.958 . S
C3679 H3694 0.961 . S
C3679 H3695 0.960 . S
H3680 C3664 0.931 . S
H3681 C3669 0.929 . S
H3682 C3670 0.960 . S
H3683 C3670 0.962 . S
H3684 C3670 0.960 . S
H3685 C3671 0.961 . S
H3686 C3671 0.961 . S
H3687 C3671 0.961 . S
H3688 C3672 0.931 . S
H3689 C3677 0.930 . S
H3690 C3678 0.956 . S
H3691 C3678 0.961 . S
H3692 C3678 0.961 . S
H3693 C3679 0.958 . S
H3694 C3679 0.961 . S
H3695 C3679 0.960 . S
C3696 C3697 1.391 . S
C3696 C3698 1.394 . S
C3696 H3712 0.931 . S
C3697 C3696 1.391 . S
C3697 C3701 1.376 . S
C3698 C3696 1.394 . S
C3698 C3699 1.369 . S
C3698 C3702 1.531 . S
C3699 C3698 1.369 . S
C3699 C3700 1.410 . S
C3699 C3707 1.503 . S
C3700 C3699 1.410 . S
C3700 C3701 1.392 . S
C3700 C3703 1.511 . S
C3701 C3697 1.376 . S
C3701 C3700 1.392 . S
C3701 H3713 0.929 . S
C3702 C3698 1.531 . S
C3702 H3714 0.960 . S
C3702 H3715 0.962 . S
C3702 H3716 0.960 . S
C3703 C3700 1.511 . S
C3703 H3717 0.961 . S
C3703 H3718 0.961 . S
C3703 H3719 0.961 . S
C3704 C3705 1.370 . S
C3704 C3706 1.363 . S
C3704 H3720 0.931 . S
C3705 C3704 1.370 . S
C3705 C3709 1.408 . S
C3706 C3704 1.363 . S
C3706 C3707 1.370 . S
C3706 C3710 1.524 . S
C3707 C3699 1.503 . S
C3707 C3706 1.370 . S
C3707 C3708 1.403 . S
C3708 C3707 1.403 . S
C3708 C3709 1.404 . S
C3708 C3711 1.539 . S
C3709 C3705 1.408 . S
C3709 C3708 1.404 . S
C3709 H3721 0.930 . S
C3710 C3706 1.524 . S
C3710 H3722 0.956 . S
C3710 H3723 0.961 . S
C3710 H3724 0.961 . S
C3711 C3708 1.539 . S
C3711 H3725 0.958 . S
C3711 H3726 0.961 . S
C3711 H3727 0.960 . S
H3712 C3696 0.931 . S
H3713 C3701 0.929 . S
H3714 C3702 0.960 . S
H3715 C3702 0.962 . S
H3716 C3702 0.960 . S
H3717 C3703 0.961 . S
H3718 C3703 0.961 . S
H3719 C3703 0.961 . S
H3720 C3704 0.931 . S
H3721 C3709 0.930 . S
H3722 C3710 0.956 . S
H3723 C3710 0.961 . S
H3724 C3710 0.961 . S
H3725 C3711 0.958 . S
H3726 C3711 0.961 . S
H3727 C3711 0.960 . S
C3728 C3729 1.391 . S
C3728 C3730 1.394 . S
C3728 H3744 0.931 . S
C3729 C3728 1.391 . S
C3729 C3733 1.376 . S
C3730 C3728 1.394 . S
C3730 C3731 1.369 . S
C3730 C3734 1.531 . S
C3731 C3730 1.369 . S
C3731 C3732 1.410 . S
C3731 C3739 1.503 . S
C3732 C3731 1.410 . S
C3732 C3733 1.392 . S
C3732 C3735 1.511 . S
C3733 C3729 1.376 . S
C3733 C3732 1.392 . S
C3733 H3745 0.929 . S
C3734 C3730 1.531 . S
C3734 H3746 0.960 . S
C3734 H3747 0.962 . S
C3734 H3748 0.960 . S
C3735 C3732 1.511 . S
C3735 H3749 0.961 . S
C3735 H3750 0.961 . S
C3735 H3751 0.961 . S
C3736 C3737 1.370 . S
C3736 C3738 1.363 . S
C3736 H3752 0.931 1_655 S
C3737 C3736 1.370 . S
C3737 C3741 1.408 . S
C3738 C3736 1.363 . S
C3738 C3739 1.370 . S
C3738 C3742 1.524 . S
C3739 C3731 1.503 . S
C3739 C3738 1.370 . S
C3739 C3740 1.403 . S
C3740 C3739 1.403 . S
C3740 C3741 1.404 . S
C3740 C3743 1.539 . S
C3741 C3737 1.408 . S
C3741 C3740 1.404 . S
C3741 H3753 0.930 . S
C3742 C3738 1.524 . S
C3742 H3754 0.956 . S
C3742 H3755 0.961 . S
C3742 H3756 0.970 . S
C3743 C3740 1.539 . S
C3743 H3757 0.958 . S
C3743 H3758 0.961 . S
C3743 H3759 0.960 . S
H3744 C3728 0.931 . S
H3745 C3733 0.929 . S
H3746 C3734 0.960 . S
H3747 C3734 0.962 . S
H3748 C3734 0.960 . S
H3749 C3735 0.961 . S
H3750 C3735 0.961 . S
H3751 C3735 0.961 . S
H3752 C3736 0.931 1_455 S
H3753 C3741 0.930 . S
H3754 C3742 0.956 . S
H3755 C3742 0.961 . S
H3756 C3742 0.970 . S
H3757 C3743 0.958 . S
H3758 C3743 0.961 . S
H3759 C3743 0.960 . S
C3760 C3761 1.391 . S
C3760 C3762 1.394 . S
C3760 H3776 0.931 . S
C3761 C3760 1.391 . S
C3761 C3765 1.376 . S
C3762 C3760 1.394 . S
C3762 C3763 1.369 . S
C3762 C3766 1.531 . S
C3763 C3762 1.369 . S
C3763 C3764 1.410 . S
C3763 C3771 1.503 . S
C3764 C3763 1.410 . S
C3764 C3765 1.392 . S
C3764 C3767 1.511 . S
C3765 C3761 1.376 . S
C3765 C3764 1.392 . S
C3765 H3777 0.929 . S
C3766 C3762 1.531 . S
C3766 H3778 0.960 . S
C3766 H3779 0.962 . S
C3766 H3780 0.960 . S
C3767 C3764 1.511 . S
C3767 H3781 0.961 . S
C3767 H3782 0.961 . S
C3767 H3783 0.961 . S
C3768 C3769 1.370 . S
C3768 C3770 1.363 . S
C3768 H3784 0.931 . S
C3769 C3768 1.370 . S
C3769 C3773 1.408 . S
C3770 C3768 1.363 . S
C3770 C3771 1.370 . S
C3770 C3774 1.524 . S
C3771 C3763 1.503 . S
C3771 C3770 1.370 . S
C3771 C3772 1.403 . S
C3772 C3771 1.403 . S
C3772 C3773 1.404 . S
C3772 C3775 1.539 . S
C3773 C3769 1.408 . S
C3773 C3772 1.404 . S
C3773 H3785 0.930 . S
C3774 C3770 1.524 . S
C3774 H3786 0.956 . S
C3774 H3787 0.961 . S
C3774 H3788 0.961 . S
C3775 C3772 1.539 . S
C3775 H3789 0.958 . S
C3775 H3790 0.961 . S
C3775 H3791 0.960 . S
H3776 C3760 0.931 . S
H3777 C3765 0.929 . S
H3778 C3766 0.960 . S
H3779 C3766 0.962 . S
H3780 C3766 0.960 . S
H3781 C3767 0.961 . S
H3782 C3767 0.961 . S
H3783 C3767 0.961 . S
H3784 C3768 0.931 . S
H3785 C3773 0.930 . S
H3786 C3774 0.956 . S
H3787 C3774 0.961 . S
H3788 C3774 0.961 . S
H3789 C3775 0.958 . S
H3790 C3775 0.961 . S
H3791 C3775 0.960 . S
C3792 C3793 1.391 . S
C3792 C3794 1.394 . S
C3792 H3808 0.931 . S
C3793 C3792 1.391 . S
C3793 C3797 1.376 . S
C3794 C3792 1.394 . S
C3794 C3795 1.369 . S
C3794 C3798 1.531 . S
C3795 C3794 1.369 . S
C3795 C3796 1.410 . S
C3795 C3803 1.503 . S
C3796 C3795 1.410 . S
C3796 C3797 1.392 . S
C3796 C3799 1.511 . S
C3797 C3793 1.376 . S
C3797 C3796 1.392 . S
C3797 H3809 0.929 . S
C3798 C3794 1.531 . S
C3798 H3810 0.960 . S
C3798 H3811 0.962 . S
C3798 H3812 0.960 . S
C3799 C3796 1.511 . S
C3799 H3813 0.961 . S
C3799 H3814 0.961 . S
C3799 H3815 0.961 . S
C3800 C3801 1.370 . S
C3800 C3802 1.363 . S
C3800 H3816 0.931 . S
C3801 C3800 1.370 . S
C3801 C3805 1.408 . S
C3802 C3800 1.363 . S
C3802 C3803 1.370 . S
C3802 C3806 1.524 . S
C3803 C3795 1.503 . S
C3803 C3802 1.370 . S
C3803 C3804 1.403 . S
C3804 C3803 1.403 . S
C3804 C3805 1.404 . S
C3804 C3807 1.539 . S
C3805 C3801 1.408 . S
C3805 C3804 1.404 . S
C3805 H3817 0.930 . S
C3806 C3802 1.524 . S
C3806 H3818 0.956 . S
C3806 H3819 0.961 . S
C3806 H3820 0.961 . S
C3807 C3804 1.539 . S
C3807 H3821 0.958 . S
C3807 H3822 0.961 . S
C3807 H3823 0.960 . S
H3808 C3792 0.931 . S
H3809 C3797 0.929 . S
H3810 C3798 0.960 . S
H3811 C3798 0.962 . S
H3812 C3798 0.960 . S
H3813 C3799 0.961 . S
H3814 C3799 0.961 . S
H3815 C3799 0.961 . S
H3816 C3800 0.931 . S
H3817 C3805 0.930 . S
H3818 C3806 0.956 . S
H3819 C3806 0.961 . S
H3820 C3806 0.961 . S
H3821 C3807 0.958 . S
H3822 C3807 0.961 . S
H3823 C3807 0.960 . S
C3824 C3825 1.391 . S
C3824 C3826 1.394 . S
C3824 H3840 0.931 . S
C3825 C3824 1.391 . S
C3825 C3829 1.376 . S
C3826 C3824 1.394 . S
C3826 C3827 1.369 . S
C3826 C3830 1.531 . S
C3827 C3826 1.369 . S
C3827 C3828 1.410 . S
C3827 C3835 1.503 . S
C3828 C3827 1.410 . S
C3828 C3829 1.392 . S
C3828 C3831 1.511 . S
C3829 C3825 1.376 . S
C3829 C3828 1.392 . S
C3829 H3841 0.929 . S
C3830 C3826 1.531 . S
C3830 H3842 0.960 . S
C3830 H3843 0.962 . S
C3830 H3844 0.960 . S
C3831 C3828 1.511 . S
C3831 H3845 0.961 . S
C3831 H3846 0.961 . S
C3831 H3847 0.961 . S
C3832 C3833 1.370 . S
C3832 C3834 1.363 . S
C3832 H3848 0.931 . S
C3833 C3832 1.370 . S
C3833 C3837 1.408 . S
C3834 C3832 1.363 . S
C3834 C3835 1.370 . S
C3834 C3838 1.524 . S
C3835 C3827 1.503 . S
C3835 C3834 1.370 . S
C3835 C3836 1.403 . S
C3836 C3835 1.403 . S
C3836 C3837 1.404 . S
C3836 C3839 1.539 . S
C3837 C3833 1.408 . S
C3837 C3836 1.404 . S
C3837 H3849 0.930 1_565 S
C3838 C3834 1.524 . S
C3838 H3850 0.956 . S
C3838 H3851 0.961 . S
C3838 H3852 0.961 . S
C3839 C3836 1.539 . S
C3839 H3853 0.958 1_565 S
C3839 H3854 0.961 . S
C3839 H3855 0.960 . S
H3840 C3824 0.931 . S
H3841 C3829 0.929 . S
H3842 C3830 0.960 . S
H3843 C3830 0.962 . S
H3844 C3830 0.960 . S
H3845 C3831 0.961 . S
H3846 C3831 0.961 . S
H3847 C3831 0.961 . S
H3848 C3832 0.931 . S
H3849 C3837 0.930 1_545 S
H3850 C3838 0.956 . S
H3851 C3838 0.961 . S
H3852 C3838 0.961 . S
H3853 C3839 0.958 1_545 S
H3854 C3839 0.961 . S
H3855 C3839 0.960 . S
C3856 C3857 1.391 . S
C3856 C3858 1.394 . S
C3856 H3872 0.931 . S
C3857 C3856 1.391 . S
C3857 C3861 1.376 . S
C3858 C3856 1.394 . S
C3858 C3859 1.369 . S
C3858 C3862 1.531 . S
C3859 C3858 1.369 . S
C3859 C3860 1.410 . S
C3859 C3867 1.503 . S
C3860 C3859 1.410 . S
C3860 C3861 1.392 . S
C3860 C3863 1.511 . S
C3861 C3857 1.376 . S
C3861 C3860 1.392 . S
C3861 H3873 0.929 . S
C3862 C3858 1.531 . S
C3862 H3874 0.960 . S
C3862 H3875 0.962 . S
C3862 H3876 0.960 . S
C3863 C3860 1.511 . S
C3863 H3877 0.961 . S
C3863 H3878 0.961 . S
C3863 H3879 0.961 . S
C3864 C3865 1.370 . S
C3864 C3866 1.363 . S
C3864 H3880 0.931 . S
C3865 C3864 1.370 . S
C3865 C3869 1.408 . S
C3866 C3864 1.363 . S
C3866 C3867 1.370 . S
C3866 C3870 1.524 . S
C3867 C3859 1.503 . S
C3867 C3866 1.370 . S
C3867 C3868 1.403 . S
C3868 C3867 1.403 . S
C3868 C3869 1.404 . S
C3868 C3871 1.539 . S
C3869 C3865 1.408 . S
C3869 C3868 1.404 . S
C3869 H3881 0.930 . S
C3870 C3866 1.524 . S
C3870 H3882 0.956 . S
C3870 H3883 0.961 . S
C3870 H3884 0.961 . S
C3871 C3868 1.539 . S
C3871 H3885 0.958 . S
C3871 H3886 0.961 . S
C3871 H3887 0.960 . S
H3872 C3856 0.931 . S
H3873 C3861 0.929 . S
H3874 C3862 0.960 . S
H3875 C3862 0.962 . S
H3876 C3862 0.960 . S
H3877 C3863 0.961 . S
H3878 C3863 0.961 . S
H3879 C3863 0.961 . S
H3880 C3864 0.931 . S
H3881 C3869 0.930 . S
H3882 C3870 0.956 . S
H3883 C3870 0.961 . S
H3884 C3870 0.961 . S
H3885 C3871 0.958 . S
H3886 C3871 0.961 . S
H3887 C3871 0.960 . S
C3888 C3889 1.391 . S
C3888 C3890 1.394 . S
C3888 H3904 0.931 . S
C3889 C3888 1.391 . S
C3889 C3893 1.376 . S
C3890 C3888 1.394 . S
C3890 C3891 1.369 . S
C3890 C3894 1.531 . S
C3891 C3890 1.369 . S
C3891 C3892 1.410 . S
C3891 C3899 1.503 . S
C3892 C3891 1.410 . S
C3892 C3893 1.392 . S
C3892 C3895 1.511 . S
C3893 C3889 1.376 . S
C3893 C3892 1.392 . S
C3893 H3905 0.929 . S
C3894 C3890 1.531 . S
C3894 H3906 0.960 . S
C3894 H3907 0.962 . S
C3894 H3908 0.960 . S
C3895 C3892 1.511 . S
C3895 H3909 0.961 . S
C3895 H3910 0.961 . S
C3895 H3911 0.961 . S
C3896 C3897 1.370 . S
C3896 C3898 1.363 . S
C3896 H3912 0.931 . S
C3897 C3896 1.370 . S
C3897 C3901 1.408 . S
C3898 C3896 1.363 . S
C3898 C3899 1.370 . S
C3898 C3902 1.524 . S
C3899 C3891 1.503 . S
C3899 C3898 1.370 . S
C3899 C3900 1.403 . S
C3900 C3899 1.403 . S
C3900 C3901 1.404 . S
C3900 C3903 1.539 . S
C3901 C3897 1.408 . S
C3901 C3900 1.404 . S
C3901 H3913 0.930 . S
C3902 C3898 1.524 . S
C3902 H3914 0.956 . S
C3902 H3915 0.961 . S
C3902 H3916 0.961 . S
C3903 C3900 1.539 . S
C3903 H3917 0.958 . S
C3903 H3918 0.961 . S
C3903 H3919 0.960 . S
H3904 C3888 0.931 . S
H3905 C3893 0.929 . S
H3906 C3894 0.960 . S
H3907 C3894 0.962 . S
H3908 C3894 0.960 . S
H3909 C3895 0.961 . S
H3910 C3895 0.961 . S
H3911 C3895 0.961 . S
H3912 C3896 0.931 . S
H3913 C3901 0.930 . S
H3914 C3902 0.956 . S
H3915 C3902 0.961 . S
H3916 C3902 0.961 . S
H3917 C3903 0.958 . S
H3918 C3903 0.961 . S
H3919 C3903 0.960 . S
C3920 C3921 1.391 . S
C3920 C3922 1.394 . S
C3920 H3936 0.931 . S
C3921 C3920 1.391 . S
C3921 C3925 1.376 . S
C3922 C3920 1.394 . S
C3922 C3923 1.369 . S
C3922 C3926 1.531 . S
C3923 C3922 1.369 . S
C3923 C3924 1.410 . S
C3923 C3931 1.503 . S
C3924 C3923 1.410 . S
C3924 C3925 1.392 . S
C3924 C3927 1.511 . S
C3925 C3921 1.376 . S
C3925 C3924 1.392 . S
C3925 H3937 0.929 . S
C3926 C3922 1.531 . S
C3926 H3938 0.960 . S
C3926 H3939 0.962 . S
C3926 H3940 0.960 . S
C3927 C3924 1.511 . S
C3927 H3941 0.961 . S
C3927 H3942 0.961 . S
C3927 H3943 0.961 . S
C3928 C3929 1.370 . S
C3928 C3930 1.363 . S
C3928 H3944 0.931 . S
C3929 C3928 1.370 . S
C3929 C3933 1.408 . S
C3930 C3928 1.363 . S
C3930 C3931 1.370 . S
C3930 C3934 1.524 . S
C3931 C3923 1.503 . S
C3931 C3930 1.370 . S
C3931 C3932 1.403 . S
C3932 C3931 1.403 . S
C3932 C3933 1.404 . S
C3932 C3935 1.539 . S
C3933 C3929 1.408 . S
C3933 C3932 1.404 . S
C3933 H3945 0.930 . S
C3934 C3930 1.524 . S
C3934 H3946 0.956 . S
C3934 H3947 0.961 . S
C3934 H3948 0.961 . S
C3935 C3932 1.539 . S
C3935 H3949 0.958 . S
C3935 H3950 0.961 . S
C3935 H3951 0.960 . S
H3936 C3920 0.931 . S
H3937 C3925 0.929 . S
H3938 C3926 0.960 . S
H3939 C3926 0.962 . S
H3940 C3926 0.960 . S
H3941 C3927 0.961 . S
H3942 C3927 0.961 . S
H3943 C3927 0.961 . S
H3944 C3928 0.931 . S
H3945 C3933 0.930 . S
H3946 C3934 0.956 . S
H3947 C3934 0.961 . S
H3948 C3934 0.961 . S
H3949 C3935 0.958 . S
H3950 C3935 0.961 . S
H3951 C3935 0.960 . S
C3952 C3953 1.391 . S
C3952 C3954 1.394 . S
C3952 H3968 0.931 . S
C3953 C3952 1.391 . S
C3953 C3957 1.376 . S
C3954 C3952 1.394 . S
C3954 C3955 1.369 . S
C3954 C3958 1.531 . S
C3955 C3954 1.369 . S
C3955 C3956 1.410 . S
C3955 C3963 1.503 . S
C3956 C3955 1.410 . S
C3956 C3957 1.392 . S
C3956 C3959 1.511 . S
C3957 C3953 1.376 . S
C3957 C3956 1.392 . S
C3957 H3969 0.929 . S
C3958 C3954 1.531 . S
C3958 H3970 0.960 . S
C3958 H3971 0.962 . S
C3958 H3972 0.960 . S
C3959 C3956 1.511 . S
C3959 H3973 0.961 . S
C3959 H3974 0.961 . S
C3959 H3975 0.961 . S
C3960 C3961 1.368 . S
C3960 C3962 1.362 . S
C3960 H3976 0.934 1_554 S
C3961 C3960 1.368 . S
C3961 C3965 1.408 . S
C3962 C3960 1.362 . S
C3962 C3963 1.370 . S
C3962 C3966 1.524 1_554 S
C3963 C3955 1.503 . S
C3963 C3962 1.370 . S
C3963 C3964 1.403 . S
C3964 C3963 1.403 . S
C3964 C3965 1.404 . S
C3964 C3967 1.539 . S
C3965 C3961 1.408 . S
C3965 C3964 1.404 . S
C3965 H3977 0.930 . S
C3966 C3962 1.524 1_556 S
C3966 H3978 0.932 1_556 S
C3966 H3979 0.961 . S
C3966 H3980 0.961 . S
C3967 C3964 1.539 . S
C3967 H3981 0.958 . S
C3967 H3982 0.961 . S
C3967 H3983 0.960 . S
H3968 C3952 0.931 . S
H3969 C3957 0.929 . S
H3970 C3958 0.960 . S
H3971 C3958 0.962 . S
H3972 C3958 0.960 . S
H3973 C3959 0.961 . S
H3974 C3959 0.961 . S
H3975 C3959 0.961 . S
H3976 C3960 0.934 1_556 S
H3977 C3965 0.930 . S
H3978 C3966 0.932 1_554 S
H3979 C3966 0.961 . S
H3980 C3966 0.961 . S
H3981 C3967 0.958 . S
H3982 C3967 0.961 . S
H3983 C3967 0.960 . S
C3984 C3985 1.391 . S
C3984 C3986 1.394 . S
C3984 H4000 0.931 . S
C3985 C3984 1.391 . S
C3985 C3989 1.376 . S
C3986 C3984 1.394 . S
C3986 C3987 1.369 . S
C3986 C3990 1.531 . S
C3987 C3986 1.369 . S
C3987 C3988 1.410 . S
C3987 C3995 1.503 . S
C3988 C3987 1.410 . S
C3988 C3989 1.392 . S
C3988 C3991 1.511 . S
C3989 C3985 1.376 . S
C3989 C3988 1.392 . S
C3989 H4001 0.929 . S
C3990 C3986 1.531 . S
C3990 H4002 0.960 . S
C3990 H4003 0.962 . S
C3990 H4004 0.960 . S
C3991 C3988 1.511 . S
C3991 H4005 0.961 . S
C3991 H4006 0.961 . S
C3991 H4007 0.961 . S
C3992 C3993 1.370 . S
C3992 C3994 1.363 . S
C3992 H4008 0.931 . S
C3993 C3992 1.370 . S
C3993 C3997 1.408 . S
C3994 C3992 1.363 . S
C3994 C3995 1.370 . S
C3994 C3998 1.524 . S
C3995 C3987 1.503 . S
C3995 C3994 1.370 . S
C3995 C3996 1.403 . S
C3996 C3995 1.403 . S
C3996 C3997 1.404 . S
C3996 C3999 1.539 . S
C3997 C3993 1.408 . S
C3997 C3996 1.404 . S
C3997 H4009 0.930 . S
C3998 C3994 1.524 . S
C3998 H4010 0.956 . S
C3998 H4011 0.961 . S
C3998 H4012 0.961 . S
C3999 C3996 1.539 . S
C3999 H4013 0.958 . S
C3999 H4014 0.961 . S
C3999 H4015 0.960 . S
H4000 C3984 0.931 . S
H4001 C3989 0.929 . S
H4002 C3990 0.960 . S
H4003 C3990 0.962 . S
H4004 C3990 0.960 . S
H4005 C3991 0.961 . S
H4006 C3991 0.961 . S
H4007 C3991 0.961 . S
H4008 C3992 0.931 . S
H4009 C3997 0.930 . S
H4010 C3998 0.956 . S
H4011 C3998 0.961 . S
H4012 C3998 0.961 . S
H4013 C3999 0.958 . S
H4014 C3999 0.961 . S
H4015 C3999 0.960 . S
C4016 C4017 1.391 . S
C4016 C4018 1.394 . S
C4016 H4032 0.931 . S
C4017 C4016 1.391 . S
C4017 C4021 1.376 . S
C4018 C4016 1.394 . S
C4018 C4019 1.369 . S
C4018 C4022 1.531 . S
C4019 C4018 1.369 . S
C4019 C4020 1.410 . S
C4019 C4027 1.503 . S
C4020 C4019 1.410 . S
C4020 C4021 1.392 . S
C4020 C4023 1.511 . S
C4021 C4017 1.376 . S
C4021 C4020 1.392 . S
C4021 H4033 0.929 . S
C4022 C4018 1.531 . S
C4022 H4034 0.960 . S
C4022 H4035 0.962 . S
C4022 H4036 0.960 . S
C4023 C4020 1.511 . S
C4023 H4037 0.961 . S
C4023 H4038 0.961 . S
C4023 H4039 0.961 . S
C4024 C4025 1.370 . S
C4024 C4026 1.363 . S
C4024 H4040 0.931 . S
C4025 C4024 1.370 . S
C4025 C4029 1.408 . S
C4026 C4024 1.363 . S
C4026 C4027 1.370 . S
C4026 C4030 1.524 . S
C4027 C4019 1.503 . S
C4027 C4026 1.370 . S
C4027 C4028 1.403 . S
C4028 C4027 1.403 . S
C4028 C4029 1.404 . S
C4028 C4031 1.539 . S
C4029 C4025 1.408 . S
C4029 C4028 1.404 . S
C4029 H4041 0.930 . S
C4030 C4026 1.524 . S
C4030 H4042 0.956 . S
C4030 H4043 0.961 . S
C4030 H4044 0.961 . S
C4031 C4028 1.539 . S
C4031 H4045 0.958 . S
C4031 H4046 0.961 . S
C4031 H4047 0.960 . S
H4032 C4016 0.931 . S
H4033 C4021 0.929 . S
H4034 C4022 0.960 . S
H4035 C4022 0.962 . S
H4036 C4022 0.960 . S
H4037 C4023 0.961 . S
H4038 C4023 0.961 . S
H4039 C4023 0.961 . S
H4040 C4024 0.931 . S
H4041 C4029 0.930 . S
H4042 C4030 0.956 . S
H4043 C4030 0.961 . S
H4044 C4030 0.961 . S
H4045 C4031 0.958 . S
H4046 C4031 0.961 . S
H4047 C4031 0.960 . S
C977 C109 2.034 1_455 S
C985 C355 1.994 . S
C1009 C61 1.970 . S
C1017 C384 2.148 . S
C1041 C74 1.169 . S
C1049 C435 1.198 . S
C1081 C461 1.510 . S
C1073 C96 1.539 . S
C1105 C25 0.578 . S
C1113 C501 0.545 . S
C1145 C551 0.231 . S
C1137 C40 0.206 . S
C1177 C594 0.494 . S
C1169 C46 0.236 . S
C1201 C5 0.685 . S
C1209 C631 1.060 . S
C1241 C344 2.254 . S
C1233 C229 1.861 . S
C1265 C249 0.279 . S
C1273 C381 0.503 . S
C1305 C424 2.258 . S
C1297 C271 2.081 1_545 S
C1337 C475 1.392 . S
C1329 C172 1.368 1_556 S
C1361 C236 1.816 . S
C1369 C515 1.796 1_655 S
C1401 C554 0.526 . S
C1393 C242 0.509 . S
C1433 C585 1.878 1_556 S
C1425 C278 1.927 . S
C1465 C634 2.024 . S
C1457 C179 2.017 . S
C1497 C341 1.308 . S
C1489 C159 1.027 . S
C1521 C285 2.007 . S
C1529 C664 2.192 . S
C1561 C705 2.293 . S
C1553 C333 2.297 . S
C1593 C751 0.482 . S
C1585 C320 0.505 . S
C1617 C123 2.499 . S
C1625 C625 2.444 . S
C1649 C138 1.454 . S
C1657 C421 1.467 . S
C1681 C326 2.297 . S
C1689 C784 2.285 . S
C1721 C835 1.906 . S
C1713 C298 1.865 . S
C1753 C345 1.999 . S
C1745 C67 1.980 . S
C1785 C834 2.061 . S
C1777 C110 2.076 . S
C1809 C88 1.185 . S
C1817 C425 1.200 . S
C1841 C75 1.356 . S
C1849 C791 1.440 . S
C1881 C511 0.577 . S
C1873 C11 0.598 . S
C1905 C47 0.879 . S
C1913 C701 0.186 . S
C1945 C584 0.521 . S
C1937 C32 0.771 . S
C1977 C861 1.185 . S
C1969 C26 1.174 . S
C2009 C354 2.390 . S
C2001 C152 2.380 . S
C2041 C831 0.461 . S
C2033 C319 0.612 . S
C2065 C124 2.270 . S
C2073 C434 2.245 . S
C2097 C284 1.387 . S
C2105 C785 1.428 . S
C2129 C145 1.665 . S
C2137 C505 1.773 . S
C2169 C704 0.413 . S
C2161 C312 0.638 . S
C2193 C117 1.477 . S
C2201 C595 1.680 . S
C2225 C291 1.964 . S
C2233 C864 2.001 . S
C2257 C194 1.488 . S
C2265 C351 1.461 . S
C2289 C180 2.146 . S
C2297 C674 2.122 . S
C2321 C263 2.188 . S
C2329 C555 2.164 . S
C2353 C243 0.704 . S
C2361 C741 0.415 . S
C2393 C875 2.458 . S
C2385 C277 2.502 . S
C2417 C215 1.341 . S
C2425 C431 1.412 . S
C2457 C474 2.177 . S
C2449 C256 2.096 . S
C2489 C385 1.974 . S
C2481 C200 1.990 . S
C2513 C81 2.034 . S
C2521 C915 1.977 . S
C2553 C824 2.143 . S
C2545 C89 1.925 . S
C2577 C102 1.199 . S
C2585 C955 1.199 . S
C2609 C68 1.530 . S
C2617 C781 1.515 . S
C2641 C53 0.578 . S
C2649 C661 0.543 . S
C2681 C711 0.237 . S
C2673 C12 0.291 . S
C2713 C754 0.459 . S
C2705 C18 0.199 1_655 S
C2745 C871 1.024 . S
C2737 C33 0.864 . S
C2777 C904 2.257 . S
C2769 C257 1.940 . S
C2801 C193 0.272 . S
C2809 C821 0.475 . S
C2841 C944 2.249 . S
C2833 C201 2.017 . S
C2873 C795 1.390 . S
C2865 C214 1.348 . S
C2905 C675 1.798 . S
C2897 C264 1.800 . S
C2929 C186 0.513 . S
C2937 C714 0.515 . S
C2969 C745 1.888 . S
C2961 C208 1.932 . S
C2993 C221 2.023 . S
C3001 C874 2.020 . S
C3033 C901 1.342 . S
C3025 C313 0.863 . S
C3057 C131 2.024 . S
C3065 C504 2.198 . S
C3097 C545 2.305 . S
C3089 C151 2.317 . S
C3129 C591 0.500 . S
C3121 C166 0.480 . S
C3161 C865 2.439 . S
C3153 C305 2.492 . S
C3185 C292 1.469 . S
C3193 C941 1.460 . S
C3225 C464 2.289 . S
C3217 C144 2.302 . S
C3257 C395 1.908 . S
C3249 C116 1.807 . S
C3281 C95 1.968 . S
C3289 C905 1.992 . S
C3321 C394 2.057 . S
C3313 C82 2.073 . S
C3345 C60 1.203 . S
C3353 C945 1.211 . S
C3377 C103 1.336 . S
C3385 C471 1.439 . S
C3409 C39 0.621 . S
C3417 C671 0.550 . S
C3449 C541 0.215 . S
C3441 C19 0.715 . S
C3473 C4 0.656 . S
C3481 C744 0.566 . S
C3505 C54 1.201 . S
C3513 C621 1.172 . S
C3545 C914 2.391 . S
C3537 C334 2.382 . S
C3569 C165 0.623 . S
C3577 C391 0.457 . S
C3609 C954 2.251 1_655 S
C3601 C306 2.263 . S
C3633 C130 1.421 . S
C3641 C465 1.422 . S
C3665 C327 1.663 . S
C3673 C665 1.772 . S
C3705 C544 0.503 . S
C3697 C158 0.441 . S
C3729 C299 1.517 . S
C3737 C755 1.693 1_655 S
C3769 C624 1.995 . S
C3761 C137 1.947 . S
C3801 C911 1.461 . S
C3793 C250 1.488 . S
C3833 C514 2.120 1_565 S
C3825 C222 2.146 . S
C3857 C235 2.181 . S
C3865 C715 2.163 . S
C3897 C581 0.413 . S
C3889 C187 0.618 . S
C3921 C207 2.485 . S
C3929 C635 2.467 . S
C3953 C173 1.243 . S
C3961 C951 1.398 . S
C3993 C794 2.175 . S
C3985 C228 2.088 1_565 S
C4025 C825 1.962 . S
C4017 C270 2.006 . S
