# Generated by pormake.
# Topology myd, (4,6)-cn, num edge types: 1
# Building blocks:
#     Node 0, Type 0, BuildingBlock: NAWXER_clean_sbu_0, # of connection points: 4
#     Node 1, Type 0, BuildingBlock: NAWXER_clean_sbu_0, # of connection points: 4
#     Node 2, Type 0, BuildingBlock: NAWXER_clean_sbu_0, # of connection points: 4
#     Node 3, Type 0, BuildingBlock: NAWXER_clean_sbu_0, # of connection points: 4
#     Node 4, Type 0, BuildingBlock: NAWXER_clean_sbu_0, # of connection points: 4
#     Node 5, Type 0, BuildingBlock: NAWXER_clean_sbu_0, # of connection points: 4
#     Node 6, Type 0, BuildingBlock: NAWXER_clean_sbu_0, # of connection points: 4
#     Node 7, Type 0, BuildingBlock: NAWXER_clean_sbu_0, # of connection points: 4
#     Node 8, Type 0, BuildingBlock: NAWXER_clean_sbu_0, # of connection points: 4
#     Node 9, Type 0, BuildingBlock: NAWXER_clean_sbu_0, # of connection points: 4
#     Node 10, Type 0, BuildingBlock: NAWXER_clean_sbu_0, # of connection points: 4
#     Node 11, Type 0, BuildingBlock: NAWXER_clean_sbu_0, # of connection points: 4
#     Node 12, Type 1, BuildingBlock: FUNLAD_clean_sbu_0, # of connection points: 6
#     Node 13, Type 1, BuildingBlock: FUNLAD_clean_sbu_0, # of connection points: 6
#     Node 14, Type 1, BuildingBlock: FUNLAD_clean_sbu_0, # of connection points: 6
#     Node 15, Type 1, BuildingBlock: FUNLAD_clean_sbu_0, # of connection points: 6
#     Node 16, Type 1, BuildingBlock: FUNLAD_clean_sbu_0, # of connection points: 6
#     Node 17, Type 1, BuildingBlock: FUNLAD_clean_sbu_0, # of connection points: 6
#     Node 18, Type 1, BuildingBlock: FUNLAD_clean_sbu_0, # of connection points: 6
#     Node 19, Type 1, BuildingBlock: FUNLAD_clean_sbu_0, # of connection points: 6
#     Edge 20, Type (0, 1), BuildingBlock: CIFDUS_clean_linker_0, # of connection points: 2
#     Edge 21, Type (0, 1), BuildingBlock: CIFDUS_clean_linker_0, # of connection points: 2
#     Edge 22, Type (0, 1), BuildingBlock: CIFDUS_clean_linker_0, # of connection points: 2
#     Edge 23, Type (0, 1), BuildingBlock: CIFDUS_clean_linker_0, # of connection points: 2
#     Edge 24, Type (0, 1), BuildingBlock: CIFDUS_clean_linker_0, # of connection points: 2
#     Edge 25, Type (0, 1), BuildingBlock: CIFDUS_clean_linker_0, # of connection points: 2
#     Edge 26, Type (0, 1), BuildingBlock: CIFDUS_clean_linker_0, # of connection points: 2
#     Edge 27, Type (0, 1), BuildingBlock: CIFDUS_clean_linker_0, # of connection points: 2
#     Edge 28, Type (0, 1), BuildingBlock: CIFDUS_clean_linker_0, # of connection points: 2
#     Edge 29, Type (0, 1), BuildingBlock: CIFDUS_clean_linker_0, # of connection points: 2
#     Edge 30, Type (0, 1), BuildingBlock: CIFDUS_clean_linker_0, # of connection points: 2
#     Edge 31, Type (0, 1), BuildingBlock: CIFDUS_clean_linker_0, # of connection points: 2
#     Edge 32, Type (0, 1), BuildingBlock: CIFDUS_clean_linker_0, # of connection points: 2
#     Edge 33, Type (0, 1), BuildingBlock: CIFDUS_clean_linker_0, # of connection points: 2
#     Edge 34, Type (0, 1), BuildingBlock: CIFDUS_clean_linker_0, # of connection points: 2
#     Edge 35, Type (0, 1), BuildingBlock: CIFDUS_clean_linker_0, # of connection points: 2
#     Edge 36, Type (0, 1), BuildingBlock: CIFDUS_clean_linker_0, # of connection points: 2
#     Edge 37, Type (0, 1), BuildingBlock: CIFDUS_clean_linker_0, # of connection points: 2
#     Edge 38, Type (0, 1), BuildingBlock: CIFDUS_clean_linker_0, # of connection points: 2
#     Edge 39, Type (0, 1), BuildingBlock: CIFDUS_clean_linker_0, # of connection points: 2
#     Edge 40, Type (0, 1), BuildingBlock: CIFDUS_clean_linker_0, # of connection points: 2
#     Edge 41, Type (0, 1), BuildingBlock: CIFDUS_clean_linker_0, # of connection points: 2
#     Edge 42, Type (0, 1), BuildingBlock: CIFDUS_clean_linker_0, # of connection points: 2
#     Edge 43, Type (0, 1), BuildingBlock: CIFDUS_clean_linker_0, # of connection points: 2
#     Edge 44, Type (0, 1), BuildingBlock: CIFDUS_clean_linker_0, # of connection points: 2
#     Edge 45, Type (0, 1), BuildingBlock: CIFDUS_clean_linker_0, # of connection points: 2
#     Edge 46, Type (0, 1), BuildingBlock: CIFDUS_clean_linker_0, # of connection points: 2
#     Edge 47, Type (0, 1), BuildingBlock: CIFDUS_clean_linker_0, # of connection points: 2
#     Edge 48, Type (0, 1), BuildingBlock: CIFDUS_clean_linker_0, # of connection points: 2
#     Edge 49, Type (0, 1), BuildingBlock: CIFDUS_clean_linker_0, # of connection points: 2
#     Edge 50, Type (0, 1), BuildingBlock: CIFDUS_clean_linker_0, # of connection points: 2
#     Edge 51, Type (0, 1), BuildingBlock: CIFDUS_clean_linker_0, # of connection points: 2
#     Edge 52, Type (0, 1), BuildingBlock: CIFDUS_clean_linker_0, # of connection points: 2
#     Edge 53, Type (0, 1), BuildingBlock: CIFDUS_clean_linker_0, # of connection points: 2
#     Edge 54, Type (0, 1), BuildingBlock: CIFDUS_clean_linker_0, # of connection points: 2
#     Edge 55, Type (0, 1), BuildingBlock: CIFDUS_clean_linker_0, # of connection points: 2
#     Edge 56, Type (0, 1), BuildingBlock: CIFDUS_clean_linker_0, # of connection points: 2
#     Edge 57, Type (0, 1), BuildingBlock: CIFDUS_clean_linker_0, # of connection points: 2
#     Edge 58, Type (0, 1), BuildingBlock: CIFDUS_clean_linker_0, # of connection points: 2
#     Edge 59, Type (0, 1), BuildingBlock: CIFDUS_clean_linker_0, # of connection points: 2
#     Edge 60, Type (0, 1), BuildingBlock: CIFDUS_clean_linker_0, # of connection points: 2
#     Edge 61, Type (0, 1), BuildingBlock: CIFDUS_clean_linker_0, # of connection points: 2
#     Edge 62, Type (0, 1), BuildingBlock: CIFDUS_clean_linker_0, # of connection points: 2
#     Edge 63, Type (0, 1), BuildingBlock: CIFDUS_clean_linker_0, # of connection points: 2
#     Edge 64, Type (0, 1), BuildingBlock: CIFDUS_clean_linker_0, # of connection points: 2
#     Edge 65, Type (0, 1), BuildingBlock: CIFDUS_clean_linker_0, # of connection points: 2
#     Edge 66, Type (0, 1), BuildingBlock: CIFDUS_clean_linker_0, # of connection points: 2
#     Edge 67, Type (0, 1), BuildingBlock: CIFDUS_clean_linker_0, # of connection points: 2
# Relax obj value: 0.305
# Max RMSD: 0.243
# Mean RMSD: 0.149
data_MOF--net-myd--node1-NAWXER_clean_sbu_0--node2-FUNLAD_clean_sbu_0--edge1-CIFDUS_clean_linker_0
_symmetry_space_group_name_H-M    P1
_symmetry_Int_Tables_number       1
_symmetry_cell_setting            triclinic
loop_
_symmetry_equiv_pos_as_xyz
'x, y, z'
_cell_length_a     40.274235
_cell_length_b     39.912249
_cell_length_c     44.807427
_cell_angle_alpha  83.210923
_cell_angle_beta   82.316397
_cell_angle_gamma 87.763606
loop_
_atom_site_label
_atom_site_type_symbol
_atom_site_fract_x
_atom_site_fract_y
_atom_site_fract_z
_atom_type_partial_charge
C0 C 0.04108 0.23013 0.32184 0.0
C1 C 0.00743 0.30676 0.3992 0.0
O2 O 0.06108 0.24788 0.33284 0.0
Zn3 Zn 0.02666 0.26581 0.36262 0.0
O4 O 0.00977 0.23092 0.33149 0.0
Zn5 Zn 0.97507 0.25373 0.36342 0.0
O6 O 0.94782 0.27864 0.33552 0.0
O7 O 0.99943 0.29727 0.33196 0.0
O8 O 0.98287 0.29111 0.39215 0.0
O9 O 0.03723 0.2985 0.38894 0.0
O10 O 0.01171 0.21964 0.39008 0.0
O11 O 0.95784 0.21347 0.38783 0.0
C12 C 0.97018 0.2996 0.32362 0.0
C13 C 0.98521 0.20204 0.39667 0.0
C14 C 0.96157 0.77758 0.21272 0.0
C15 C 0.98741 0.70272 0.1348 0.0
O16 O 0.99295 0.77025 0.20738 0.0
Zn17 Zn 0.02616 0.74169 0.17724 0.0
O18 O 0.94059 0.76693 0.19739 0.0
Zn19 Zn 0.97476 0.74302 0.17311 0.0
O20 O 0.99058 0.70536 0.20911 0.0
O21 O 0.04502 0.711 0.20788 0.0
O22 O 0.96025 0.71817 0.14298 0.0
O23 O 0.01389 0.70868 0.1461 0.0
O24 O 0.05426 0.77715 0.15354 0.0
O25 O 1.00096 0.78674 0.149 0.0
C26 C 0.01801 0.69686 0.22022 0.0
C27 C 0.03135 0.79648 0.14368 0.0
C28 C 0.37251 1.00763 0.17645 0.0
C29 C 0.28514 0.98477 0.26405 0.0
O30 O 0.36274 0.97885 0.18914 0.0
Zn31 Zn 0.33063 0.99462 0.22148 0.0
O32 O 0.36087 0.03432 0.18789 0.0
Zn33 Zn 0.32423 0.04743 0.22439 0.0
O34 O 0.34974 0.06888 0.25043 0.0
O35 O 0.3597 0.01401 0.25231 0.0
O36 O 0.29124 0.01623 0.25716 0.0
O37 O 0.30176 0.96327 0.24882 0.0
O38 O 0.29529 0.01961 0.19457 0.0
O39 O 0.29226 0.07351 0.20132 0.0
C40 C 0.36441 0.04246 0.26162 0.0
C41 C 0.28308 0.0493 0.1884 0.0
C42 C 0.7418 0.48833 0.18271 0.0
C43 C 0.65943 0.48781 0.27395 0.0
O44 O 0.72943 0.46332 0.20032 0.0
Zn45 Zn 0.69839 0.48693 0.22771 0.0
O46 O 0.73123 0.51822 0.18743 0.0
Zn47 Zn 0.69495 0.54048 0.21971 0.0
O48 O 0.72166 0.56837 0.23909 0.0
O49 O 0.72998 0.51355 0.2504 0.0
O50 O 0.66435 0.51736 0.25968 0.0
O51 O 0.67402 0.46216 0.26318 0.0
O52 O 0.65994 0.50634 0.20174 0.0
O53 O 0.66264 0.56204 0.19554 0.0
C54 C 0.73596 0.54401 0.25382 0.0
C55 C 0.64891 0.53526 0.19114 0.0
C56 C 0.21985 0.37086 0.9986 0.0
C57 C 0.30618 0.2852 0.96984 0.0
O58 O 0.2301 0.36356 0.972 0.0
Zn59 Zn 0.26465 0.32939 0.98232 0.0
O60 O 0.23467 0.357 0.02071 0.0
Zn61 Zn 0.27387 0.32052 0.02859 0.0
O62 O 0.31028 0.34497 0.04122 0.0
O63 O 0.30688 0.35559 0.99236 0.0
O64 O 0.30277 0.2897 0.99794 0.0
O65 O 0.28801 0.3024 0.95208 0.0
O66 O 0.2353 0.29049 0.00952 0.0
O67 O 0.2487 0.28548 0.05597 0.0
C68 C 0.32224 0.35884 0.01514 0.0
C69 C 0.23138 0.27599 0.0368 0.0
C70 C 0.2525 0.75837 0.4722 0.0
C71 C 0.34273 0.68033 0.50818 0.0
O72 O 0.27697 0.74632 0.45524 0.0
Zn73 Zn 0.29937 0.71951 0.48751 0.0
O74 O 0.25095 0.75131 0.50099 0.0
Zn75 Zn 0.2772 0.72241 0.53403 0.0
O76 O 0.29241 0.75632 0.5563 0.0
O77 O 0.3184 0.75746 0.50958 0.0
O78 O 0.32078 0.69067 0.52868 0.0
O79 O 0.34015 0.69013 0.48041 0.0
O80 O 0.26154 0.68415 0.50523 0.0
O81 O 0.24303 0.69098 0.55286 0.0
C82 C 0.31444 0.76891 0.53538 0.0
C83 C 0.24182 0.67572 0.52965 0.0
C84 C 0.71709 0.86807 0.48493 0.0
C85 C 0.80524 0.78191 0.46532 0.0
O86 O 0.73048 0.85931 0.45964 0.0
Zn87 Zn 0.76321 0.82628 0.47434 0.0
O88 O 0.72918 0.85572 0.50912 0.0
Zn89 Zn 0.76817 0.81974 0.52111 0.0
O90 O 0.80244 0.84483 0.53598 0.0
O91 O 0.80337 0.85406 0.48649 0.0
O92 O 0.7999 0.78726 0.49325 0.0
O93 O 0.78857 0.79871 0.44614 0.0
O94 O 0.7321 0.78803 0.50106 0.0
O95 O 0.74175 0.78606 0.54851 0.0
C96 C 0.81624 0.85838 0.51044 0.0
C97 C 0.72627 0.77509 0.52878 0.0
C98 C 0.45669 0.79697 0.82626 0.0
C99 C 0.48611 0.70347 0.89853 0.0
O100 O 0.43661 0.77528 0.84115 0.0
Zn101 Zn 0.46911 0.75335 0.86577 0.0
O102 O 0.48727 0.79675 0.83126 0.0
Zn103 Zn 0.52021 0.76846 0.85903 0.0
O104 O 0.55182 0.752 0.82654 0.0
O105 O 0.50094 0.73169 0.83079 0.0
O106 O 0.51116 0.72232 0.88848 0.0
O107 O 0.45696 0.71299 0.89273 0.0
O108 O 0.47883 0.79332 0.89135 0.0
O109 O 0.53287 0.80319 0.88238 0.0
C110 C 0.53123 0.73291 0.81785 0.0
C111 C 0.50381 0.81076 0.89499 0.0
C112 C 0.4966 0.2041 0.71695 0.0
C113 C 0.51358 0.29747 0.63418 0.0
O114 O 0.47435 0.22331 0.70574 0.0
Zn115 Zn 0.50282 0.24664 0.67137 0.0
O116 O 0.52676 0.20499 0.70339 0.0
Zn117 Zn 0.55404 0.23287 0.66368 0.0
O118 O 0.58839 0.25084 0.68267 0.0
O119 O 0.53673 0.2709 0.69464 0.0
O120 O 0.54004 0.27877 0.63632 0.0
O121 O 0.48589 0.28755 0.64908 0.0
O122 O 0.51352 0.20874 0.64052 0.0
O123 O 0.56816 0.19985 0.63693 0.0
C124 C 0.56819 0.27081 0.6966 0.0
C125 C 0.54001 0.1928 0.62994 0.0
C126 C 0.77545 0.54012 0.69479 0.0
C127 C 0.86551 0.52975 0.76015 0.0
O128 O 0.78782 0.56418 0.70573 0.0
Zn129 Zn 0.82106 0.53706 0.72672 0.0
O130 O 0.78613 0.50987 0.70122 0.0
Zn131 Zn 0.82256 0.4835 0.72596 0.0
O132 O 0.79448 0.45562 0.75755 0.0
O133 O 0.78947 0.50975 0.76315 0.0
O134 O 0.85719 0.50176 0.75214 0.0
O135 O 0.85174 0.55714 0.74977 0.0
O136 O 0.85232 0.51965 0.68838 0.0
O137 O 0.84995 0.46413 0.69268 0.0
C138 C 0.78171 0.47915 0.77264 0.0
C139 C 0.86042 0.49162 0.67763 0.0
C140 C 0.23827 0.98624 0.67684 0.0
C141 C 0.15904 0.99452 0.76971 0.0
O142 O 0.22555 0.96207 0.69542 0.0
Zn143 Zn 0.19577 0.98845 0.72226 0.0
O144 O 0.22903 0.0166 0.68088 0.0
Zn145 Zn 0.19568 0.04227 0.71227 0.0
O146 O 0.22641 0.06926 0.72814 0.0
O147 O 0.23014 0.01441 0.74288 0.0
O148 O 0.16619 0.02296 0.75404 0.0
O149 O 0.16951 0.96729 0.75898 0.0
O150 O 0.15916 1.0089 0.69484 0.0
O151 O 0.16409 0.06435 0.68754 0.0
C152 C 0.23903 0.04464 0.74396 0.0
C153 C 0.14973 0.03796 0.68311 0.0
C154 C 0.7526 0.17038 0.02045 0.0
C155 C 0.82662 0.26282 0.02565 0.0
O156 O 0.75684 0.18349 0.04416 0.0
Zn157 Zn 0.79028 0.21556 0.02474 0.0
O158 O 0.77032 0.18019 0.9952 0.0
Zn159 Zn 0.80774 0.21606 0.97713 0.0
O160 O 0.84801 0.18809 0.9655 0.0
O161 O 0.83412 0.18494 0.01492 0.0
O162 O 0.82839 0.25325 0.99917 0.0
O163 O 0.80725 0.24787 0.04755 0.0
O164 O 0.76144 0.24738 0.99522 0.0
O165 O 0.78331 0.24473 0.94776 0.0
C166 C 0.85403 0.17663 0.99206 0.0
C167 C 0.76073 0.25635 0.96687 0.0
C168 C 0.13994 0.03912 0.08569 0.0
N169 N 0.09896 0.03847 1.00349 0.0
C170 C 0.12803 0.04991 0.98709 0.0
C171 C 0.13545 0.04503 0.95655 0.0
C172 C 0.11298 0.02787 0.9427 0.0
C173 C 0.084 0.01476 0.96046 0.0
C174 C 0.07731 0.02061 0.99095 0.0
Zn175 Zn 0.08647 0.05218 0.04659 0.0
C176 C 0.05363 0.99469 0.09021 0.0
N177 N 0.05962 0.08272 0.13547 0.0
C178 C 0.08634 0.09598 0.14527 0.0
C179 C 0.0288 0.08297 0.15217 0.0
C180 C 0.02412 0.09747 0.17954 0.0
C181 C 0.0515 0.1115 0.18992 0.0
C182 C 0.08299 0.10983 0.17254 0.0
Zn183 Zn 0.06942 0.06653 0.093 0.0
O184 O 0.1359 0.03705 0.05828 0.0
C185 C 0.10571 0.12232 0.05096 0.0
O186 O 0.11557 0.04824 0.104 0.0
H187 H 0.00772 0.07279 0.1439 0.0
H188 H 0.14503 0.06387 0.99742 0.0
H189 H 0.1105 0.09676 0.13161 0.0
O190 O 0.10533 0.10166 0.03147 0.0
O191 O 0.09167 0.11428 0.07779 0.0
H192 H 0.05425 0.01187 0.00432 0.0
O193 O 0.02284 0.08526 0.08106 0.0
O194 O 0.03665 0.06945 0.03562 0.0
O195 O 0.04858 0.01767 0.10797 0.0
O196 O 0.06868 1.00205 0.06343 0.0
C197 C 0.01536 0.08296 0.05468 0.0
H198 H 0.15821 0.05528 0.94364 0.0
H199 H 0.06598 1.00158 0.95052 0.0
H200 H 0.99918 0.09848 0.19192 0.0
H201 H 0.10508 0.11946 0.17965 0.0
C202 C 0.90425 0.49204 0.06033 0.0
N203 N 0.96029 0.51281 0.973 0.0
C204 C 0.93692 0.53793 0.96876 0.0
C205 C 0.92835 0.54843 0.93971 0.0
C206 C 0.94431 0.5334 0.91449 0.0
C207 C 0.97009 0.50935 0.91943 0.0
C208 C 0.97726 0.49904 0.94884 0.0
Zn209 Zn 0.96549 0.48922 0.01619 0.0
C210 C 0.99114 0.53363 0.05739 0.0
N211 N 0.97511 0.43532 0.10308 0.0
C212 C 0.94733 0.41671 0.11304 0.0
C213 C 1.00045 0.43553 0.12034 0.0
C214 C 0.9983 0.41613 0.14874 0.0
C215 C 0.96987 0.39648 0.15912 0.0
C216 C 0.94415 0.39728 0.14095 0.0
Zn217 Zn 0.97433 0.46169 0.0611 0.0
O218 O 0.9137 0.50285 0.03273 0.0
C219 C 0.94635 0.4177 0.02169 0.0
O220 O 0.92496 0.47577 0.07568 0.0
H221 H 0.0223 0.4505 0.11204 0.0
H222 H 0.92355 0.54872 0.98806 0.0
H223 H 0.92726 0.41672 0.09933 0.0
O224 O 0.94791 0.44423 1.00294 0.0
O225 O 0.95719 0.41811 0.04687 0.0
H226 H 0.99536 0.47875 0.95234 0.0
O227 O 0.02383 0.44755 0.04675 0.0
O228 O 0.01798 0.47379 1.00172 0.0
O229 O 0.99106 0.50598 0.07477 0.0
O230 O 0.98189 0.53434 0.03114 0.0
C231 C 0.03619 0.45647 0.0195 0.0
H232 H 0.90815 0.56686 0.93746 0.0
H233 H 0.98398 0.49759 0.90089 0.0
H234 H 0.01878 0.41606 0.16215 0.0
H235 H 0.92153 0.38313 0.14829 0.0
C236 C 0.03599 1.00717 0.40828 0.0
N237 N 0.04517 0.91763 0.36615 0.0
C238 C 0.01364 0.92636 0.35972 0.0
C239 C 0.99798 0.90761 0.34161 0.0
C240 C 0.01493 0.87959 0.33031 0.0
C241 C 0.0484 0.87283 0.33513 0.0
C242 C 0.06322 0.89241 0.35321 0.0
Zn243 Zn 0.06006 0.93614 0.40218 0.0
C244 C 0.12601 0.96378 0.39075 0.0
N245 N 0.0815 0.9719 0.48224 0.0
C246 C 0.05647 0.98769 0.49927 0.0
C247 C 0.11374 0.97156 0.48821 0.0
C248 C 0.12188 0.98808 0.5119 0.0
C249 C 0.09647 1.00457 0.52967 0.0
C250 C 0.0634 1.00399 0.52344 0.0
Zn251 Zn 0.07002 0.95246 0.44526 0.0
O252 O 0.03656 0.98532 0.38965 0.0
C253 C 1.0023 0.92345 0.45307 0.0
O254 O 0.04877 0.99927 0.43247 0.0
H255 H 0.13321 0.95889 0.47435 0.0
H256 H 0.99952 0.94617 0.37054 0.0
H257 H 0.03114 0.98833 0.49373 0.0
O258 O 0.01442 0.91991 0.42608 0.0
O259 O 0.02061 0.9362 0.46968 0.0
H260 H 0.08829 0.88606 0.35849 0.0
O261 O 0.09238 0.90581 0.45902 0.0
O262 O 0.0859 0.88816 0.41567 0.0
O263 O 0.11882 0.96825 0.41874 0.0
O264 O 0.10442 0.95136 0.37743 0.0
C265 C 0.0975 0.88333 0.44103 0.0
H266 H 0.97215 0.91351 0.33828 0.0
H267 H 0.0624 0.8517 0.32613 0.0
H268 H 0.14763 0.98771 0.5165 0.0
H269 H 0.04328 0.01654 0.53677 0.0
C270 C 0.93407 0.62711 0.45264 0.0
N271 N 0.02847 0.58067 0.45881 0.0
C272 C 0.04515 0.60843 0.44492 0.0
C273 C 0.07646 0.61528 0.45247 0.0
C274 C 0.09024 0.59371 0.47488 0.0
C275 C 0.07249 0.56551 0.48913 0.0
C276 C 0.04157 0.55919 0.48041 0.0
Zn277 Zn 0.98296 0.57085 0.44748 0.0
C278 C 0.93764 0.54166 0.50486 0.0
N279 N 0.88811 0.54625 0.42715 0.0
C280 C 0.87688 0.57233 0.40844 0.0
C281 C 0.87246 0.51614 0.43229 0.0
C282 C 0.84563 0.51088 0.41659 0.0
C283 C 0.83537 0.53682 0.39537 0.0
C284 C 0.85068 0.56818 0.39236 0.0
Zn285 Zn 0.93325 0.55446 0.44001 0.0
O286 O 0.96504 0.62139 0.45461 0.0
C287 C 0.97727 0.58591 0.38237 0.0
O288 O 0.9163 0.60346 0.44763 0.0
H289 H 0.88195 0.49568 0.44713 0.0
H290 H 0.03415 0.62529 0.42801 0.0
H291 H 0.88994 0.59584 0.40384 0.0
O292 O 0.99892 0.58825 0.4002 0.0
O293 O 0.94964 0.57221 0.39323 0.0
H294 H 0.02803 0.53708 0.49094 0.0
O295 O 0.95024 0.5053 0.43293 0.0
O296 O 1.00032 0.51966 0.44022 0.0
O297 O 0.91708 0.53717 0.48653 0.0
O298 O 0.96576 0.5548 0.49448 0.0
C299 C 0.98077 0.49734 0.43486 0.0
H300 H 0.08961 0.63741 0.44124 0.0
H301 H 0.08266 0.54838 0.50643 0.0
H302 H 0.83428 0.48635 0.41985 0.0
H303 H 0.84465 0.58875 0.37582 0.0
C304 C 0.40269 0.99121 0.55948 0.0
N305 N 0.46404 0.99944 0.47426 0.0
C306 C 0.44223 0.02483 0.46625 0.0
C307 C 0.43461 0.03073 0.43642 0.0
C308 C 0.44973 0.01046 0.41448 0.0
C309 C 0.47399 0.98615 0.42301 0.0
C310 C 0.4805 0.98082 0.45309 0.0
Zn311 Zn 0.46718 0.98312 0.51941 0.0
C312 C 0.48901 0.03558 0.55422 0.0
N313 N 0.4709 0.94497 0.61214 0.0
C314 C 0.44204 0.93037 0.62608 0.0
C315 C 0.49771 0.94664 0.62736 0.0
C316 C 0.49608 0.93291 0.65775 0.0
C317 C 0.46633 0.91794 0.67272 0.0
C318 C 0.43897 0.91741 0.65643 0.0
Zn319 Zn 0.47115 0.96338 0.56753 0.0
O320 O 0.41402 0.9963 0.53143 0.0
C321 C 0.44671 0.91194 0.53371 0.0
O322 O 0.4222 0.97985 0.57827 0.0
H323 H 0.52049 0.95819 0.61585 0.0
H324 H 0.42928 0.03937 0.48334 0.0
H325 H 0.4211 0.92852 0.61368 0.0
O326 O 0.45249 0.93497 0.51173 0.0
O327 O 0.45298 0.9169 0.55979 0.0
H328 H 0.49745 0.96049 0.45978 0.0
O329 O 0.52043 0.94662 0.55685 0.0
O330 O 0.52072 0.96805 0.50937 0.0
O331 O 0.48846 0.01057 0.57472 0.0
O332 O 0.48075 0.03183 0.52835 0.0
C333 C 0.53611 0.95251 0.53032 0.0
H334 H 0.41561 0.04963 0.43113 0.0
H335 H 0.48694 0.97038 0.40688 0.0
H336 H 0.51813 0.93346 0.66907 0.0
H337 H 0.41524 0.90699 0.66687 0.0
C338 C 0.63138 0.53685 0.58963 0.0
N339 N 0.59842 0.52955 0.50455 0.0
C340 C 0.63079 0.53211 0.49128 0.0
C341 C 0.64072 0.51996 0.46333 0.0
C342 C 0.61702 0.50541 0.44873 0.0
C343 C 0.58389 0.50287 0.46306 0.0
C344 C 0.57515 0.51493 0.49115 0.0
Zn345 Zn 0.58328 0.5485 0.54501 0.0
C346 C 0.54366 0.49544 0.58897 0.0
N347 N 0.54888 0.58762 0.62903 0.0
C348 C 0.57466 0.60285 0.63849 0.0
C349 C 0.51776 0.58753 0.64517 0.0
C350 C 0.51189 0.60333 0.67187 0.0
C351 C 0.53842 0.61896 0.68214 0.0
C352 C 0.57018 0.61799 0.6651 0.0
Zn353 Zn 0.56174 0.56725 0.58872 0.0
O354 O 0.62972 0.53113 0.5625 0.0
C355 C 0.60394 0.61847 0.54531 0.0
O356 O 0.60615 0.54954 0.6046 0.0
H357 H 0.49745 0.57567 0.63719 0.0
H358 H 0.64887 0.54394 0.5022 0.0
H359 H 0.59907 0.60364 0.62527 0.0
O360 O 0.60647 0.59519 0.52802 0.0
O361 O 0.58604 0.61376 0.57097 0.0
H362 H 0.54962 0.51284 0.50216 0.0
O363 O 0.51707 0.58565 0.57219 0.0
O364 O 0.53675 0.56801 0.5285 0.0
O365 O 0.53871 0.51932 0.60584 0.0
O366 O 0.56072 0.50125 0.56292 0.0
C367 C 0.5135 0.58265 0.54485 0.0
H368 H 0.66645 0.52273 0.45286 0.0
H369 H 0.56495 0.49158 0.45266 0.0
H370 H 0.48678 0.60371 0.68398 0.0
H371 H 0.59173 0.62873 0.67215 0.0
C372 C 0.54064 0.50923 0.91611 0.0
N373 N 0.56785 0.42553 0.86888 0.0
C374 C 0.53924 0.42576 0.85585 0.0
C375 C 0.53988 0.41347 0.82787 0.0
C376 C 0.57038 0.40145 0.81325 0.0
C377 C 0.59959 0.40298 0.82674 0.0
C378 C 0.59763 0.41444 0.85488 0.0
Zn379 Zn 0.56932 0.44135 0.90972 0.0
C380 C 0.63393 0.47428 0.90707 0.0
N381 N 0.57912 0.47255 0.99411 0.0
C382 C 0.55181 0.48808 0.0084 0.0
C383 C 0.60964 0.47256 0.00388 0.0
C384 C 0.61389 0.48994 0.02818 0.0
C385 C 0.58634 0.50687 0.04268 0.0
C386 C 0.55482 0.50526 0.0332 0.0
Zn387 Zn 0.5755 0.45483 0.95434 0.0
O388 O 0.54138 0.48721 0.89762 0.0
C389 C 0.50973 0.42049 0.95386 0.0
O390 O 0.55406 0.50192 0.94013 0.0
H391 H 0.63093 0.45995 0.99225 0.0
H392 H 0.5159 0.43477 0.86745 0.0
H393 H 0.52791 0.48817 0.99991 0.0
O394 O 0.52421 0.41754 0.9273 0.0
O395 O 0.52499 0.43546 0.97151 0.0
H396 H 0.62008 0.41403 0.86565 0.0
O397 O 0.59794 0.40825 0.96891 0.0
O398 O 0.59893 0.39594 0.92246 0.0
O399 O 0.62606 0.47315 0.93565 0.0
O400 O 0.61303 0.46501 0.89139 0.0
C401 C 0.60741 0.38865 0.9489 0.0
H402 H 0.51665 0.4123 0.8184 0.0
H403 H 0.62371 0.39462 0.81604 0.0
H404 H 0.63842 0.49031 0.03554 0.0
H405 H 0.53312 0.51789 0.04429 0.0
C406 C 0.43407 0.13042 0.95213 0.0
N407 N 0.52835 0.08333 0.96003 0.0
C408 C 0.54442 0.11182 0.94706 0.0
C409 C 0.5761 0.11832 0.95394 0.0
C410 C 0.59108 0.09564 0.9748 0.0
C411 C 0.57367 0.06702 0.98867 0.0
C412 C 0.54219 0.06112 0.98066 0.0
Zn413 Zn 0.48337 0.0737 0.94688 0.0
C414 C 0.43583 0.04088 0.99955 0.0
N415 N 0.3905 0.05263 0.91868 0.0
C416 C 0.37611 0.08032 0.90431 0.0
C417 C 0.37855 0.02124 0.91847 0.0
C418 C 0.35281 0.01672 0.90134 0.0
C419 C 0.3391 0.04491 0.88488 0.0
C420 C 0.34978 0.0771 0.88803 0.0
Zn421 Zn 0.43482 0.06048 0.9337 0.0
O422 O 0.46449 0.12369 0.95587 0.0
C423 C 0.48087 0.0948 0.8808 0.0
O424 O 0.41683 0.10796 0.94431 0.0
H425 H 0.39035 0.9995 0.92991 0.0
H426 H 0.53285 0.12934 0.93101 0.0
H427 H 0.38634 0.10499 0.90345 0.0
O428 O 0.50094 0.09352 0.9006 0.0
O429 O 0.45207 0.08232 0.88855 0.0
H430 H 0.52905 0.03854 0.99059 0.0
O431 O 0.4533 0.01247 0.92378 0.0
O432 O 0.50158 0.02331 0.93774 0.0
O433 O 0.41747 0.03929 0.97874 0.0
O434 O 0.46442 0.05439 0.99275 0.0
C435 C 0.48276 1.00285 0.92847 0.0
H436 H 0.58888 0.1408 0.94302 0.0
H437 H 0.5847 0.04901 0.00479 0.0
H438 H 0.34531 0.99136 0.89951 0.0
H439 H 0.33932 0.09962 0.87645 0.0
H440 H 0.9707 0.14982 0.36813 0.0
H441 H 0.01213 0.17407 0.44654 0.0
H442 H 0.02984 0.11499 0.45768 0.0
H443 H 0.03759 0.05815 0.44275 0.0
H444 H 1.00089 0.03404 0.36179 0.0
H445 H 0.97756 0.09166 0.35364 0.0
C446 C 0.9827 0.14181 0.38817 0.0
C447 C 0.9893 0.16589 0.4071 0.0
C448 C 0.9943 0.10817 0.39344 0.0
C449 C 1.00614 0.15573 0.4322 0.0
C450 C 0.01654 0.12209 0.4383 0.0
C451 C 0.02433 0.06526 0.42334 0.0
C452 C 0.02111 0.04169 0.40282 0.0
C453 C 0.01145 0.09834 0.41868 0.0
C454 C 1.00389 0.05163 0.37783 0.0
C455 C 0.99045 0.08454 0.37326 0.0
H456 H 0.04946 0.35875 0.40158 0.0
H457 H 0.94812 0.32571 0.42983 0.0
H458 H 0.93147 0.38138 0.44443 0.0
H459 H 0.94394 0.44091 0.44434 0.0
H460 H 0.04493 0.47491 0.41714 0.0
H461 H 0.06341 0.41757 0.40702 0.0
C462 C 0.02395 0.36347 0.41163 0.0
C463 C 1.00005 0.33797 0.41434 0.0
C464 C 0.01428 0.39596 0.41965 0.0
C465 C 0.96704 0.34476 0.42729 0.0
C466 C 0.95739 0.37673 0.4355 0.0
C467 C 0.97007 0.43577 0.43634 0.0
C468 C 0.99291 0.46228 0.43102 0.0
C469 C 0.9805 0.40278 0.43088 0.0
C470 C 0.02679 0.45502 0.42124 0.0
C471 C 0.03735 0.42221 0.41543 0.0
H472 H 0.99475 0.85412 0.15186 0.0
H473 H 0.0859 0.81719 0.10341 0.0
H474 H 0.09958 0.87486 0.08088 0.0
H475 H 0.08651 0.93631 0.07623 0.0
H476 H 0.99868 0.97356 0.12944 0.0
H477 H 0.98279 0.91559 0.14875 0.0
C478 C 0.01743 0.8587 0.13609 0.0
C479 C 0.03904 0.83128 0.12894 0.0
C480 C 0.02577 0.89213 0.12419 0.0
C481 C 0.06876 0.83776 0.10912 0.0
C482 C 0.07659 0.87076 0.09626 0.0
C483 C 0.06373 0.93168 0.09185 0.0
C484 C 0.04358 0.9593 0.1011 0.0
C485 C 0.05541 0.89822 0.10377 0.0
C486 C 0.01455 0.95285 0.12187 0.0
C487 C 1.00546 0.91966 0.13292 0.0
H488 H 0.02853 0.6474 0.13208 0.0
H489 H 0.94641 0.69863 0.09168 0.0
H490 H 0.94333 0.65245 0.06085 0.0
H491 H 0.96069 0.59514 0.04877 0.0
H492 H 0.0386 0.54156 0.09348 0.0
H493 H 0.04699 0.59097 0.1189 0.0
C494 C 0.01033 0.64867 0.11617 0.0
C495 C 0.98778 0.67639 0.1141 0.0
C496 C 0.0079 0.62146 0.09936 0.0
C497 C 0.96397 0.67748 0.09373 0.0
C498 C 0.9622 0.65108 0.07611 0.0
C499 C 0.97996 0.59465 0.06359 0.0
C500 C 0.99922 0.56498 0.0691 0.0
C501 C 0.98358 0.62263 0.07917 0.0
C502 C 0.02358 0.56424 0.08887 0.0
C503 C 0.02829 0.59242 0.10347 0.0
H504 H 0.36261 0.97851 0.12686 0.0
H505 H 0.42619 0.04768 0.15801 0.0
H506 H 0.45355 0.06208 0.10608 0.0
H507 H 0.45596 0.05865 0.05121 0.0
H508 H 0.38798 0.99398 0.01968 0.0
H509 H 0.36576 0.97428 0.07202 0.0
C510 C 0.38308 0.99604 0.12229 0.0
C511 C 0.39293 0.01149 0.14626 0.0
C512 C 0.39748 1.00547 0.09215 0.0
C513 C 0.41861 0.0351 0.13996 0.0
C514 C 0.43404 0.04352 0.11024 0.0
C515 C 0.43653 0.03999 0.05581 0.0
C516 C 0.42367 0.02784 0.03149 0.0
C517 C 0.42317 0.02945 0.08604 0.0
C518 C 0.39821 1.00391 0.0379 0.0
C519 C 0.38554 0.99255 0.06788 0.0
H520 H 0.64887 0.57498 0.13846 0.0
H521 H 0.59429 0.4964 0.19682 0.0
H522 H 0.56337 0.48571 0.15565 0.0
H523 H 0.56154 0.49023 0.10083 0.0
H524 H 0.62243 0.56295 0.04127 0.0
H525 H 0.64104 0.58496 0.08486 0.0
C526 C 0.62927 0.55646 0.14235 0.0
C527 C 0.6238 0.53632 0.17027 0.0
C528 C 0.61332 0.54901 0.11811 0.0
C529 C 0.59882 0.512 0.17525 0.0
C530 C 0.58139 0.50575 0.15172 0.0
C531 C 0.57802 0.5116 0.09767 0.0
C532 C 0.59088 0.52504 0.06833 0.0
C533 C 0.58986 0.52276 0.12266 0.0
C534 C 0.61249 0.55238 0.06395 0.0
C535 C 0.62316 0.56479 0.08878 0.0
H536 H 0.39369 0.98952 0.29295 0.0
H537 H 0.37857 0.09751 0.28896 0.0
H538 H 0.40527 0.0976 0.33494 0.0
H539 H 0.4301 0.06636 0.37803 0.0
H540 H 0.4419 0.95789 0.38236 0.0
H541 H 0.41987 0.95892 0.33442 0.0
C542 C 0.39651 0.01322 0.30185 0.0
C543 C 0.38399 0.04345 0.28743 0.0
C544 C 0.41132 0.01302 0.32854 0.0
C545 C 0.38793 0.07382 0.2995 0.0
C546 C 0.4031 0.07388 0.32591 0.0
C547 C 0.42787 0.04294 0.36852 0.0
C548 C 0.43801 0.01213 0.38399 0.0
C549 C 0.41438 0.04352 0.34095 0.0
C550 C 0.43513 0.98212 0.37092 0.0
C551 C 0.42216 0.98259 0.34352 0.0
H552 H 0.68299 0.45801 0.32423 0.0
H553 H 0.59879 0.5152 0.29324 0.0
H554 H 0.5763 0.52295 0.34561 0.0
H555 H 0.58426 0.51915 0.39937 0.0
H556 H 0.6715 0.46681 0.42969 0.0
H557 H 0.68945 0.45171 0.37853 0.0
C558 C 0.65916 0.47117 0.32916 0.0
C559 C 0.64207 0.4854 0.30516 0.0
C560 C 0.64745 0.47708 0.35912 0.0
C561 C 0.61192 0.50355 0.31153 0.0
C562 C 0.59931 0.50826 0.34139 0.0
C563 C 0.60688 0.50394 0.39486 0.0
C564 C 0.62657 0.49415 0.41824 0.0
C565 C 0.61739 0.49603 0.36526 0.0
C566 C 0.65612 0.47491 0.41198 0.0
C567 C 0.66629 0.46615 0.38278 0.0
H568 H 0.17509 0.39776 0.9598 0.0
H569 H 0.19419 0.39116 0.05295 0.0
H570 H 0.14025 0.41826 0.06695 0.0
H571 H 0.08581 0.43997 0.05411 0.0
H572 H 0.0655 0.44858 0.96145 0.0
H573 H 0.12157 0.42497 0.94597 0.0
C574 C 0.16768 0.40273 0.98305 0.0
C575 C 0.18886 0.392 0.00527 0.0
C576 C 0.13616 0.41848 0.99118 0.0
C577 C 0.17862 0.39879 0.0353 0.0
C578 C 0.14759 0.41428 0.04343 0.0
C579 C 0.09367 0.43693 0.03045 0.0
C580 C 0.07127 0.44571 0.00904 0.0
C581 C 0.12587 0.42355 0.02176 0.0
C582 C 0.08217 0.44203 0.97842 0.0
C583 C 0.11422 0.42838 0.96959 0.0
H584 H 0.23423 0.64084 0.4832 0.0
H585 H 0.18808 0.65843 0.57282 0.0
H586 H 0.13768 0.62997 0.56493 0.0
H587 H 0.10406 0.6077 0.52952 0.0
H588 H 0.14932 0.59633 0.43842 0.0
H589 H 0.2029 0.61498 0.44978 0.0
C590 C 0.21341 0.63806 0.50129 0.0
C591 C 0.21471 0.65221 0.52839 0.0
C592 C 0.18418 0.62324 0.49606 0.0
C593 C 0.18765 0.6479 0.55168 0.0
C594 C 0.15873 0.63189 0.54707 0.0
C595 C 0.12594 0.60881 0.51247 0.0
C596 C 0.1231 0.60094 0.48319 0.0
C597 C 0.15628 0.62066 0.51891 0.0
C598 C 0.15121 0.60256 0.46102 0.0
C599 C 0.18171 0.61317 0.46752 0.0
H600 H 0.84987 0.89015 0.45925 0.0
H601 H 0.85804 0.86308 0.55404 0.0
H602 H 0.91593 0.88275 0.5459 0.0
H603 H 0.96645 0.90372 0.51019 0.0
H604 H 0.95561 0.92792 0.41536 0.0
H605 H 0.89725 0.91337 0.42529 0.0
C606 C 0.86402 0.88886 0.47835 0.0
C607 C 0.8494 0.87499 0.5072 0.0
C608 C 0.89738 0.89944 0.47339 0.0
C609 C 0.86844 0.87372 0.53153 0.0
C610 C 0.90174 0.88478 0.52684 0.0
C611 C 0.95116 0.90606 0.49187 0.0
C612 C 0.96591 0.91648 0.46195 0.0
C613 C 0.91686 0.89708 0.49763 0.0
C614 C 0.94547 0.91941 0.43852 0.0
C615 C 0.91181 0.91121 0.44413 0.0
H616 H 0.399 0.6555 0.47365 0.0
H617 H 0.35125 0.65655 0.56588 0.0
H618 H 0.39862 0.62602 0.58475 0.0
H619 H 0.45475 0.60122 0.57618 0.0
H620 H 0.5037 0.59762 0.48496 0.0
H621 H 0.45502 0.62639 0.46487 0.0
C622 C 0.39886 0.64876 0.49782 0.0
C623 C 0.37139 0.65881 0.51815 0.0
C624 C 0.4266 0.63074 0.5089 0.0
C625 C 0.37184 0.6496 0.54947 0.0
C626 C 0.39908 0.63203 0.56046 0.0
C627 C 0.4548 0.60652 0.55186 0.0
C628 C 0.48304 0.59745 0.53218 0.0
C629 C 0.42676 0.62288 0.54051 0.0
C630 C 0.48234 0.60428 0.50071 0.0
C631 C 0.4545 0.62087 0.48919 0.0
H632 H 0.46857 0.64815 0.87589 0.0
H633 H 0.52156 0.6801 0.94461 0.0
H634 H 0.54157 0.62197 0.95707 0.0
H635 H 0.54735 0.56338 0.94576 0.0
H636 H 0.49903 0.532 0.87363 0.0
H637 H 0.47405 0.58876 0.8648 0.0
C638 C 0.48374 0.64208 0.89416 0.0
C639 C 0.49288 0.66803 0.90999 0.0
C640 C 0.49651 0.60896 0.90003 0.0
C641 C 0.51368 0.66032 0.93269 0.0
C642 C 0.52534 0.62721 0.93955 0.0
C643 C 0.53119 0.56878 0.92818 0.0
C644 C 0.52507 0.54337 0.91036 0.0
C645 C 0.51748 0.60151 0.92293 0.0
C646 C 0.50428 0.55105 0.88757 0.0
C647 C 0.4899 0.58348 0.88261 0.0
H648 H 0.54734 0.862 0.89641 0.0
H649 H 0.44475 0.83252 0.92419 0.0
H650 H 0.42972 0.88897 0.93743 0.0
H651 H 0.44409 0.94803 0.93692 0.0
H652 H 0.54643 0.97841 0.91145 0.0
H653 H 0.56313 0.92047 0.90154 0.0
C654 C 0.52187 0.86769 0.90598 0.0
C655 C 0.4972 0.84287 0.90897 0.0
C656 C 0.51317 0.90061 0.91349 0.0
C657 C 0.4643 0.85093 0.92142 0.0
C658 C 0.45556 0.88338 0.92888 0.0
C659 C 0.47011 0.94196 0.92929 0.0
C660 C 0.4939 0.96759 0.92439 0.0
C661 C 0.47952 0.90863 0.92419 0.0
C662 C 0.52761 0.95917 0.91518 0.0
C663 C 0.53713 0.92604 0.90951 0.0
H664 H 0.48542 0.35545 0.654 0.0
H665 H 0.55204 0.3184 0.58103 0.0
H666 H 0.56541 0.37636 0.55964 0.0
H667 H 0.56139 0.43736 0.56357 0.0
H668 H 0.49857 0.47465 0.63888 0.0
H669 H 0.48066 0.41711 0.65746 0.0
C670 C 0.50221 0.36015 0.633 0.0
C671 C 0.51718 0.33256 0.61875 0.0
C672 C 0.51091 0.39367 0.62152 0.0
C673 C 0.53982 0.33909 0.59216 0.0
C674 C 0.54764 0.37227 0.58005 0.0
C675 C 0.54351 0.43306 0.58392 0.0
C676 C 0.53134 0.46059 0.59971 0.0
C677 C 0.53385 0.39975 0.59483 0.0
C678 C 0.50845 0.45416 0.62621 0.0
C679 C 0.49814 0.42117 0.63685 0.0
H680 H 0.49374 0.18183 0.59285 0.0
H681 H 0.58068 0.13729 0.63034 0.0
H682 H 0.57352 0.08507 0.60901 0.0
H683 H 0.54001 0.05036 0.58322 0.0
H684 H 0.45587 0.09529 0.54188 0.0
H685 H 0.46454 0.14911 0.56084 0.0
C686 C 0.51129 0.1608 0.59596 0.0
C687 C 0.53749 0.16331 0.61336 0.0
C688 C 0.50745 0.13089 0.58305 0.0
C689 C 0.56034 0.13604 0.61697 0.0
C690 C 0.55619 0.10607 0.60492 0.0
C691 C 0.52394 0.07215 0.57803 0.0
C692 C 0.49726 0.06905 0.56147 0.0
C693 C 0.52949 0.10299 0.58845 0.0
C694 C 0.47669 0.09734 0.55454 0.0
C695 C 0.48151 0.12797 0.56552 0.0
H696 H 0.90417 0.53789 0.64712 0.0
H697 H 0.85317 0.44794 0.63648 0.0
H698 H 0.87218 0.45523 0.58191 0.0
H699 H 0.90023 0.48976 0.53635 0.0
H700 H 0.95459 0.57719 0.54817 0.0
H701 H 0.93738 0.56842 0.60283 0.0
C702 C 0.89772 0.51955 0.63293 0.0
C703 C 0.87723 0.49244 0.64591 0.0
C704 C 0.90901 0.52373 0.6016 0.0
C705 C 0.86919 0.46884 0.62719 0.0
C706 C 0.87978 0.4732 0.59588 0.0
C707 C 0.90838 0.50673 0.55098 0.0
C708 C 0.92834 0.53433 0.53816 0.0
C709 C 0.89915 0.50097 0.58269 0.0
C710 C 0.9392 0.5558 0.55744 0.0
C711 C 0.92933 0.55083 0.58873 0.0
H712 H 0.16039 0.07096 0.62737 0.0
H713 H 0.09155 1.00497 0.68625 0.0
H714 H 0.06492 0.99273 0.64285 0.0
H715 H 0.06828 0.99302 0.58775 0.0
H716 H 0.14253 0.05277 0.52873 0.0
H717 H 0.1603 0.07533 0.57241 0.0
C718 C 0.13871 0.05498 0.6307 0.0
C719 C 0.12754 0.0391 0.6597 0.0
C720 C 0.12525 0.04628 0.60551 0.0
C721 C 0.10014 0.01764 0.66396 0.0
C722 C 0.08525 0.01038 0.63918 0.0
C723 C 0.08785 0.01153 0.58455 0.0
C724 C 0.10434 0.02118 0.55538 0.0
C725 C 0.09868 0.02329 0.60976 0.0
C726 C 0.12987 0.04485 0.55121 0.0
C727 C 0.13991 0.05776 0.57609 0.0
H728 H 0.87546 0.57921 0.79588 0.0
H729 H 0.9047 0.477 0.7797 0.0
H730 H 0.93267 0.46986 0.82491 0.0
H731 H 0.94373 0.49 0.87161 0.0
H732 H 0.91732 0.59277 0.88802 0.0
H733 H 0.89285 0.60186 0.84061 0.0
C734 C 0.88857 0.55565 0.80189 0.0
C735 C 0.88763 0.52862 0.78438 0.0
C736 C 0.90455 0.55144 0.82838 0.0
C737 C 0.90469 0.49821 0.79272 0.0
C738 C 0.92066 0.49399 0.81873 0.0
C739 C 0.93358 0.5148 0.86468 0.0
C740 C 0.93241 0.5405 0.88391 0.0
C741 C 0.92001 0.52009 0.83714 0.0
C742 C 0.91812 0.57211 0.8743 0.0
C743 C 0.90428 0.57747 0.84695 0.0
H744 H 0.14697 0.04869 0.80074 0.0
H745 H 0.13836 0.94038 0.81151 0.0
H746 H 0.12124 0.9411 0.86611 0.0
H747 H 0.11274 0.97263 0.91149 0.0
H748 H 0.12562 0.08039 0.8993 0.0
H749 H 0.13725 0.0797 0.84458 0.0
C750 C 0.14089 0.02515 0.8148 0.0
C751 C 0.14386 0.99451 0.80187 0.0
C752 C 0.13227 0.02567 0.84611 0.0
C753 C 0.13614 0.96436 0.82075 0.0
C754 C 0.12655 0.96476 0.85203 0.0
C755 C 0.11785 0.99589 0.89672 0.0
C756 C 0.11861 0.0265 0.90941 0.0
C757 C 0.12517 0.99524 0.86508 0.0
C758 C 0.12537 0.05649 0.8901 0.0
C759 C 0.13187 0.05614 0.85881 0.0
H760 H 0.68161 0.88917 0.53566 0.0
H761 H 0.68098 0.89403 0.43907 0.0
H762 H 0.62592 0.92259 0.44379 0.0
H763 H 0.57558 0.9427 0.47624 0.0
H764 H 0.57742 0.93587 0.57292 0.0
H765 H 0.6339 0.91194 0.56713 0.0
C766 C 0.66971 0.89679 0.51552 0.0
C767 C 0.6856 0.88924 0.48708 0.0
C768 C 0.63783 0.91276 0.51843 0.0
C769 C 0.66952 0.89945 0.46131 0.0
C770 C 0.63786 0.91571 0.464 0.0
C771 C 0.58853 0.93632 0.49594 0.0
C772 C 0.57188 0.94089 0.52501 0.0
C773 C 0.62139 0.92198 0.49256 0.0
C774 C 0.5892 0.93236 0.55028 0.0
C775 C 0.62169 0.91865 0.54704 0.0
H776 H 0.73854 0.13962 0.97329 0.0
H777 H 0.70216 0.1517 0.06657 0.0
H778 H 0.64957 0.12528 0.06166 0.0
H779 H 0.61115 0.10604 0.0285 0.0
H780 H 0.64708 0.09928 0.93433 0.0
H781 H 0.70267 0.1164 0.94185 0.0
C782 C 0.71939 0.13604 0.99279 0.0
C783 C 0.72415 0.14805 0.02015 0.0
C784 C 0.68891 0.12219 0.98943 0.0
C785 C 0.69913 0.1428 0.0452 0.0
C786 C 0.66894 0.12793 0.04232 0.0
C787 C 0.63145 0.10778 0.0099 0.0
C788 C 0.62529 0.10168 0.98089 0.0
C789 C 0.6631 0.11867 0.01422 0.0
C790 C 0.65145 0.10414 0.95676 0.0
C791 C 0.68313 0.1139 0.96106 0.0
H792 H 0.36153 0.37076 0.96141 0.0
H793 H 0.36019 0.37988 0.05647 0.0
H794 H 0.4179 0.40031 0.04646 0.0
H795 H 0.46986 0.41425 0.01011 0.0
H796 H 0.46947 0.4007 0.91585 0.0
H797 H 0.41183 0.38331 0.92631 0.0
C798 C 0.37354 0.37759 0.98004 0.0
C799 C 0.35615 0.37414 0.00963 0.0
C800 C 0.40687 0.38826 0.97426 0.0
C801 C 0.37272 0.38252 0.0334 0.0
C802 C 0.40585 0.39407 0.02768 0.0
C803 C 0.45715 0.4074 0.99193 0.0
C804 C 0.47446 0.4088 0.96218 0.0
C805 C 0.42341 0.39678 0.99814 0.0
C806 C 0.45731 0.39977 0.939 0.0
C807 C 0.42406 0.38988 0.94488 0.0
H808 H 0.87202 0.15032 0.04634 0.0
H809 H 0.90575 0.15631 0.95039 0.0
H810 H 0.95793 0.12601 0.96089 0.0
H811 H 0.99548 0.10035 0.99797 0.0
H812 H 0.96061 0.09717 0.09367 0.0
H813 H 0.90761 0.12363 0.08252 0.0
C814 C 0.89057 0.14488 0.02756 0.0
C815 C 0.88477 0.15579 0.99756 0.0
C816 C 0.9206 0.12796 0.03377 0.0
C817 C 0.90936 0.14829 0.97371 0.0
C818 C 0.93931 0.13101 0.97973 0.0
C819 C 0.97613 0.10515 0.01633 0.0
C820 C 0.98229 0.09678 0.04669 0.0
C821 C 0.94545 0.12106 0.00975 0.0
C822 C 0.95688 0.10344 0.07014 0.0
C823 C 0.92642 0.11861 0.0638 0.0
H824 H 0.01485 0.17129 0.31492 0.0
H825 H 0.09146 0.24124 0.27432 0.0
H826 H 0.10164 0.21013 0.22971 0.0
H827 H 0.08469 0.16657 0.2008 0.0
H828 H 0.00947 0.09526 0.24278 0.0
H829 H 1.00195 0.12438 0.28817 0.0
C830 C 0.0341 0.17949 0.29643 0.0
C831 C 0.05225 0.20862 0.29765 0.0
C832 C 0.03944 0.16178 0.27097 0.0
C833 C 0.07737 0.21878 0.27387 0.0
C834 C 0.08288 0.20121 0.2483 0.0
C835 C 0.06713 0.15677 0.22002 0.0
C836 C 0.04753 0.12867 0.21807 0.0
C837 C 0.06348 0.17315 0.24636 0.0
C838 C 0.02438 0.11714 0.24319 0.0
C839 C 0.0203 0.13358 0.26932 0.0
H840 H 0.94471 0.28788 0.27351 0.0
H841 H 0.98674 0.36534 0.31527 0.0
H842 H 0.98989 0.40306 0.26777 0.0
H843 H 0.98458 0.41215 0.21332 0.0
H844 H 0.94716 0.33229 0.17084 0.0
H845 H 0.93853 0.29728 0.21944 0.0
C846 C 0.95361 0.31339 0.2723 0.0
C847 C 0.96491 0.32425 0.29768 0.0
C848 C 0.95688 0.33417 0.24462 0.0
C849 C 0.97748 0.35684 0.29588 0.0
C850 C 0.97961 0.3782 0.26872 0.0
C851 C 0.9748 0.387 0.21472 0.0
C852 C 0.96648 0.3749 0.18856 0.0
C853 C 0.97024 0.36677 0.24272 0.0
C854 C 0.95342 0.34237 0.19074 0.0
C855 C 0.94847 0.32229 0.21851 0.0
H856 H 0.96774 0.76002 0.27037 0.0
H857 H 0.93664 0.84195 0.20809 0.0
H858 H 0.9465 0.88251 0.24286 0.0
H859 H 0.97636 0.89458 0.28497 0.0
H860 H 0.01298 0.81182 0.34371 0.0
H861 H 0.98898 0.77142 0.31634 0.0
C862 C 0.96159 0.78665 0.26526 0.0
C863 C 0.95146 0.7983 0.23713 0.0
C864 C 0.96966 0.80961 0.28416 0.0
C865 C 0.94395 0.83266 0.23005 0.0
C866 C 0.95031 0.8558 0.2496 0.0
C867 C 0.97844 0.86771 0.29201 0.0
C868 C 0.99712 0.85596 0.31562 0.0
C869 C 0.96519 0.84464 0.27574 0.0
C870 C 0.99955 0.82121 0.32491 0.0
C871 C 0.9856 0.79818 0.3095 0.0
H872 H 0.96666 0.65754 0.24973 0.0
H873 H 0.06797 0.68421 0.25635 0.0
H874 H 0.06526 0.6514 0.30621 0.0
H875 H 0.03281 0.61763 0.34976 0.0
H876 H 0.93191 0.59027 0.34199 0.0
H877 H 0.93599 0.62042 0.29122 0.0
C878 C 0.98832 0.65592 0.26188 0.0
C879 C 0.01744 0.67358 0.24908 0.0
C880 C 0.98666 0.63687 0.29068 0.0
C881 C 0.04521 0.67093 0.26537 0.0
C882 C 0.04365 0.65222 0.29408 0.0
C883 C 0.01186 0.61792 0.33684 0.0
C884 C 0.98205 0.60162 0.35005 0.0
C885 C 0.01432 0.63544 0.30724 0.0
C886 C 0.95523 0.60242 0.33271 0.0
C887 C 0.95745 0.61983 0.30354 0.0
H888 H 0.26598 1.00422 0.15235 0.0
H889 H 0.24537 0.10615 0.17427 0.0
H890 H 0.20233 0.11303 0.14023 0.0
H891 H 0.1674 0.08846 0.10813 0.0
H892 H 0.18558 0.98604 0.08778 0.0
H893 H 0.23375 0.98113 0.11669 0.0
C894 C 0.2522 0.02804 0.14963 0.0
C895 C 0.25856 0.05452 0.16626 0.0
C896 C 0.22738 0.03171 0.13016 0.0
C897 C 0.24082 0.08532 0.16201 0.0
C898 C 0.21625 0.08926 0.14253 0.0
C899 C 0.18229 0.06522 0.10971 0.0
C900 C 0.17312 0.03754 0.09612 0.0
C901 C 0.20892 0.06242 0.12704 0.0
C902 C 0.19254 1.00767 0.09786 0.0
C903 C 0.21971 1.00483 0.11468 0.0
H904 H 0.76911 0.53456 0.13637 0.0
H905 H 0.77709 0.43008 0.17358 0.0
H906 H 0.82586 0.42169 0.13664 0.0
H907 H 0.86898 0.44473 0.0969 0.0
H908 H 0.86247 0.54853 0.05845 0.0
H909 H 0.80996 0.55639 0.09226 0.0
C910 C 0.78136 0.50989 0.13621 0.0
C911 C 0.76955 0.48308 0.15809 0.0
C912 C 0.80958 0.50512 0.11465 0.0
C913 C 0.78556 0.45121 0.15725 0.0
C914 C 0.81354 0.44636 0.1361 0.0
C915 C 0.85577 0.46898 0.09559 0.0
C916 C 0.86957 0.4961 0.07541 0.0
C917 C 0.82611 0.47323 0.11516 0.0
C918 C 0.85215 0.52726 0.07367 0.0
C919 C 0.82236 0.53177 0.09322 0.0
H920 H 0.2578 0.01967 0.31073 0.0
H921 H 0.25101 0.92599 0.27287 0.0
H922 H 0.20259 0.91059 0.31027 0.0
H923 H 0.15981 0.92544 0.3511 0.0
H924 H 0.16682 0.01762 0.39091 0.0
H925 H 0.21789 0.03182 0.35564 0.0
C926 C 0.24585 0.99577 0.31081 0.0
C927 C 0.25782 0.97417 0.28872 0.0
C928 C 0.21811 0.98689 0.33269 0.0
C929 C 0.24235 0.94309 0.28948 0.0
C930 C 0.21458 0.93432 0.31083 0.0
C931 C 0.17274 0.94851 0.35227 0.0
C932 C 0.15944 0.97069 0.37331 0.0
C933 C 0.20192 0.95626 0.33213 0.0
C934 C 0.17664 1.00018 0.37495 0.0
C935 C 0.20566 1.00834 0.35464 0.0
H936 H 0.77471 0.49822 0.28298 0.0
H937 H 0.73768 0.60133 0.28161 0.0
H938 H 0.76066 0.60616 0.32874 0.0
H939 H 0.79027 0.58067 0.37036 0.0
H940 H 0.83128 0.47905 0.36878 0.0
H941 H 0.80494 0.47314 0.32398 0.0
C942 C 0.77192 0.52192 0.29278 0.0
C943 C 0.7547 0.54946 0.27877 0.0
C944 C 0.78466 0.52431 0.31991 0.0
C945 C 0.75129 0.57995 0.29174 0.0
C946 C 0.76394 0.58253 0.31889 0.0
C947 C 0.79363 0.55723 0.36019 0.0
C948 C 0.81317 0.53054 0.37284 0.0
C949 C 0.7804 0.55475 0.33325 0.0
C950 C 0.81612 0.49994 0.35993 0.0
C951 C 0.80164 0.49674 0.33389 0.0
H952 H 0.19902 0.24487 0.99863 0.0
H953 H 0.20896 0.24417 0.09342 0.0
H954 H 0.16908 0.19824 0.10622 0.0
H955 H 0.13257 0.15719 0.09027 0.0
H956 H 0.12533 0.1563 0.99514 0.0
H957 H 0.1627 0.20424 0.98275 0.0
C958 C 0.19242 0.23486 0.02216 0.0
C959 C 0.20704 0.24814 0.04504 0.0
C960 C 0.16979 0.20823 0.02929 0.0
C961 C 0.19824 0.2345 0.07534 0.0
C962 C 0.17534 0.20825 0.08267 0.0
C963 C 0.13876 0.16782 0.06684 0.0
C964 C 0.1258 0.15338 0.04365 0.0
C965 C 0.16104 0.19484 0.05982 0.0
C966 C 0.13473 0.16701 0.01341 0.0
C967 C 0.1562 0.19436 0.00631 0.0
H968 H 0.19389 0.77781 0.50329 0.0
H969 H 0.24841 0.78659 0.41317 0.0
H970 H 0.20315 0.82292 0.39448 0.0
H971 H 0.14929 0.85549 0.40482 0.0
H972 H 0.09735 0.84721 0.49589 0.0
H973 H 0.13996 0.80697 0.51294 0.0
C974 C 0.19605 0.78753 0.47948 0.0
C975 C 0.22492 0.77963 0.45978 0.0
C976 C 0.17005 0.80837 0.469 0.0
C977 C 0.22672 0.79231 0.42895 0.0
C978 C 0.20075 0.81309 0.41825 0.0
C979 C 0.14692 0.84411 0.42818 0.0
C980 C 0.11985 0.85401 0.44902 0.0
C981 C 0.17237 0.82162 0.43814 0.0
C982 C 0.11766 0.83978 0.4794 0.0
C983 C 0.14219 0.81696 0.48921 0.0
H984 H 0.86013 0.75991 0.49193 0.0
H985 H 0.80578 0.74454 0.41813 0.0
H986 H 0.8429 0.69658 0.4064 0.0
H987 H 0.88758 0.65637 0.41981 0.0
H988 H 0.94381 0.67236 0.49205 0.0
H989 H 0.90947 0.72323 0.50153 0.0
C990 C 0.85662 0.74619 0.47313 0.0
C991 C 0.82996 0.75541 0.45615 0.0
C992 C 0.87833 0.71888 0.46631 0.0
C993 C 0.82604 0.73787 0.43154 0.0
C994 C 0.84718 0.7104 0.4249 0.0
C995 C 0.89257 0.67127 0.4374 0.0
C996 C 0.91785 0.66058 0.45548 0.0
C997 C 0.87292 0.70031 0.44252 0.0
C998 C 0.9245 0.68024 0.47786 0.0
C999 C 0.90472 0.70911 0.48338 0.0
H1000 H 0.36135 0.80087 0.49418 0.0
H1001 H 0.31904 0.79568 0.58837 0.0
H1002 H 0.35884 0.83739 0.59669 0.0
H1003 H 0.40464 0.87614 0.57677 0.0
H1004 H 0.44482 0.88276 0.48206 0.0
H1005 H 0.40714 0.83881 0.4745 0.0
C1006 C 0.36071 0.8088 0.51659 0.0
C1007 C 0.33715 0.79522 0.54062 0.0
C1008 C 0.38355 0.83262 0.52116 0.0
C1009 C 0.33677 0.80587 0.56945 0.0
C1010 C 0.35963 0.82955 0.57425 0.0
C1011 C 0.4056 0.86745 0.55461 0.0
C1012 C 0.42771 0.88228 0.53003 0.0
C1013 C 0.38313 0.84305 0.55025 0.0
C1014 C 0.42816 0.87146 0.5013 0.0
C1015 C 0.40651 0.84655 0.49696 0.0
H1016 H 0.50301 0.67552 0.80889 0.0
H1017 H 0.57927 0.74616 0.76881 0.0
H1018 H 0.58753 0.71741 0.72283 0.0
H1019 H 0.57005 0.67496 0.69318 0.0
H1020 H 0.49607 0.60217 0.73477 0.0
H1021 H 0.48889 0.63019 0.78077 0.0
C1022 C 0.52168 0.68447 0.79017 0.0
C1023 C 0.5404 0.71305 0.79207 0.0
C1024 C 0.5261 0.66798 0.76396 0.0
C1025 C 0.56475 0.72412 0.7679 0.0
C1026 C 0.56919 0.70788 0.74156 0.0
C1027 C 0.5528 0.66461 0.71241 0.0
C1028 C 0.53361 0.6363 0.71023 0.0
C1029 C 0.54958 0.68015 0.73919 0.0
C1030 C 0.51073 0.62419 0.73535 0.0
C1031 C 0.50688 0.63997 0.76186 0.0
H1032 H 0.48055 0.85888 0.8074 0.0
H1033 H 0.41264 0.78624 0.7873 0.0
H1034 H 0.40856 0.81853 0.73787 0.0
H1035 H 0.43058 0.86256 0.6984 0.0
H1036 H 0.49656 0.93695 0.7194 0.0
H1037 H 0.49606 0.90783 0.7704 0.0
C1038 C 0.46427 0.85057 0.79242 0.0
C1039 C 0.44712 0.82018 0.80069 0.0
C1040 C 0.46252 0.8689 0.76403 0.0
C1041 C 0.42587 0.8097 0.7814 0.0
C1042 C 0.42391 0.82791 0.75303 0.0
C1043 C 0.44416 0.87319 0.71421 0.0
C1044 C 0.46396 0.90185 0.70465 0.0
C1045 C 0.44306 0.85688 0.74377 0.0
C1046 C 0.48187 0.91447 0.72564 0.0
C1047 C 0.48129 0.89806 0.75498 0.0
H1048 H 0.54536 0.33396 0.69937 0.0
H1049 H 0.61646 0.261 0.73427 0.0
H1050 H 0.62593 0.29769 0.77241 0.0
H1051 H 0.60709 0.34566 0.79987 0.0
H1052 H 0.53592 0.41884 0.76477 0.0
H1053 H 0.53271 0.38617 0.7225 0.0
C1054 C 0.56335 0.32644 0.71508 0.0
C1055 C 0.57982 0.29486 0.71473 0.0
C1056 C 0.56802 0.34719 0.73699 0.0
C1057 C 0.60356 0.28532 0.73446 0.0
C1058 C 0.60867 0.30609 0.7563 0.0
C1059 C 0.59161 0.35514 0.78255 0.0
C1060 C 0.57146 0.38446 0.78561 0.0
C1061 C 0.59005 0.33642 0.75841 0.0
C1062 C 0.55109 0.39594 0.76323 0.0
C1063 C 0.54942 0.37744 0.73901 0.0
H1064 H 0.53982 0.17535 0.7553 0.0
H1065 H 0.43479 0.18362 0.74475 0.0
H1066 H 0.42102 0.14912 0.79342 0.0
H1067 H 0.43851 0.11802 0.83984 0.0
H1068 H 0.54315 0.11265 0.85194 0.0
H1069 H 0.55731 0.14438 0.80192 0.0
C1070 C 0.51392 0.1694 0.76351 0.0
C1071 C 0.4884 0.18204 0.74616 0.0
C1072 C 0.50609 0.15007 0.79192 0.0
C1073 C 0.45496 0.17435 0.75749 0.0
C1074 C 0.44706 0.15457 0.78538 0.0
C1075 C 0.46448 0.12349 0.83146 0.0
C1076 C 0.48976 0.11265 0.84969 0.0
C1077 C 0.47237 0.14247 0.8029 0.0
C1078 C 0.52318 0.12052 0.83849 0.0
C1079 C 0.53129 0.13873 0.80985 0.0
H1080 H 0.75902 0.49855 0.65542 0.0
H1081 H 0.73346 0.59523 0.68768 0.0
H1082 H 0.68808 0.60314 0.65607 0.0
H1083 H 0.6541 0.58131 0.62175 0.0
H1084 H 0.67921 0.48535 0.58844 0.0
H1085 H 0.72713 0.47855 0.61768 0.0
C1086 C 0.74354 0.52141 0.65552 0.0
C1087 C 0.7493 0.54613 0.67426 0.0
C1088 C 0.71767 0.52585 0.63711 0.0
C1089 C 0.72948 0.57583 0.67363 0.0
C1090 C 0.70353 0.5803 0.6556 0.0
C1091 C 0.67005 0.55886 0.62086 0.0
C1092 C 0.66286 0.53352 0.60345 0.0
C1093 C 0.69715 0.55528 0.63766 0.0
C1094 C 0.68426 0.50508 0.60174 0.0
C1095 C 0.71144 0.50118 0.6186 0.0
H1096 H 0.26514 0.03164 0.63023 0.0
H1097 H 0.27224 0.92701 0.66715 0.0
H1098 H 0.32123 0.91855 0.63015 0.0
H1099 H 0.36573 0.94236 0.59172 0.0
H1100 H 0.36049 0.04695 0.55536 0.0
H1101 H 0.3065 0.05389 0.58721 0.0
C1102 C 0.27714 1.00686 0.62997 0.0
C1103 C 0.26523 0.98008 0.65183 0.0
C1104 C 0.30554 1.00222 0.60869 0.0
C1105 C 0.28089 0.94809 0.65083 0.0
C1106 C 0.30897 0.94324 0.62968 0.0
C1107 C 0.35227 0.96647 0.59025 0.0
C1108 C 0.36684 0.99415 0.57129 0.0
C1109 C 0.32198 0.97031 0.60912 0.0
C1110 C 0.34944 0.02527 0.56949 0.0
C1111 C 0.31885 0.02925 0.588 0.0
H1112 H 0.75372 0.52383 0.81113 0.0
H1113 H 0.75656 0.41811 0.79835 0.0
H1114 H 0.71527 0.40678 0.84326 0.0
H1115 H 0.67427 0.42767 0.88274 0.0
H1116 H 0.66815 0.53347 0.89388 0.0
H1117 H 0.71576 0.54397 0.85373 0.0
C1118 C 0.74552 0.49823 0.81824 0.0
C1119 C 0.75802 0.4719 0.801 0.0
C1120 C 0.72152 0.49192 0.84405 0.0
C1121 C 0.74725 0.4389 0.81088 0.0
C1122 C 0.72369 0.43237 0.83664 0.0
C1123 C 0.68414 0.45286 0.87697 0.0
C1124 C 0.66821 0.47973 0.89147 0.0
C1125 C 0.71022 0.45876 0.853 0.0
C1126 C 0.68061 0.51235 0.88355 0.0
C1127 C 0.7074 0.51835 0.86023 0.0
H1128 H 0.23785 1.00943 0.7985 0.0
H1129 H 0.28636 0.09273 0.74116 0.0
H1130 H 0.32198 0.0998 0.78028 0.0
H1131 H 0.34005 0.08073 0.82949 0.0
H1132 H 0.28845 1.00004 0.88831 0.0
H1133 H 0.25341 0.99284 0.8491 0.0
C1134 C 0.25641 0.02902 0.79451 0.0
C1135 C 0.26015 0.05022 0.76697 0.0
C1136 C 0.27607 0.03319 0.81711 0.0
C1137 C 0.28341 0.07609 0.76222 0.0
C1138 C 0.30368 0.08004 0.78449 0.0
C1139 C 0.32066 0.06203 0.83415 0.0
C1140 C 0.31671 0.04107 0.86194 0.0
C1141 C 0.30024 0.05859 0.81191 0.0
C1142 C 0.29219 0.01627 0.86705 0.0
C1143 C 0.27207 0.01228 0.84474 0.0
H1144 H 0.70001 0.7382 0.49068 0.0
H1145 H 0.69788 0.74922 0.58558 0.0
H1146 H 0.658 0.70338 0.59883 0.0
H1147 H 0.62489 0.65907 0.5835 0.0
H1148 H 0.6299 0.64615 0.48874 0.0
H1149 H 0.66722 0.69405 0.4754 0.0
C1150 C 0.69075 0.73074 0.5143 0.0
C1151 C 0.70196 0.74729 0.5371 0.0
C1152 C 0.66821 0.70405 0.52176 0.0
C1153 C 0.68982 0.73695 0.56756 0.0
C1154 C 0.66693 0.71076 0.57515 0.0
C1155 C 0.63379 0.66703 0.55989 0.0
C1156 C 0.62431 0.64923 0.53709 0.0
C1157 C 0.65603 0.69404 0.55244 0.0
C1158 C 0.63665 0.65946 0.50668 0.0
C1159 C 0.65808 0.6868 0.49906 0.0
H1160 H 0.70797 0.28046 1.00314 0.0
H1161 H 0.75086 0.2848 0.90927 0.0
H1162 H 0.70559 0.32392 0.89493 0.0
H1163 H 0.65482 0.35903 0.90963 0.0
H1164 H 0.61414 0.35489 0.00408 0.0
H1165 H 0.65722 0.31328 0.01746 0.0
C1166 C 0.70756 0.28982 0.97946 0.0
C1167 C 0.73312 0.2797 0.95736 0.0
C1168 C 0.68158 0.31229 0.97144 0.0
C1169 C 0.73173 0.29214 0.92682 0.0
C1170 C 0.70576 0.31451 0.91861 0.0
C1171 C 0.65505 0.34851 0.93305 0.0
C1172 C 0.63102 0.35997 0.95581 0.0
C1173 C 0.6806 0.32497 0.94077 0.0
C1174 C 0.63215 0.34653 0.98611 0.0
C1175 C 0.65691 0.3228 0.99381 0.0
H1176 H 0.36177 0.26253 0.99467 0.0
H1177 H 0.30597 0.24987 0.92113 0.0
H1178 H 0.3429 0.20221 0.90782 0.0
H1179 H 0.38755 0.16137 0.92002 0.0
H1180 H 0.44425 0.17415 0.99281 0.0
H1181 H 0.41063 0.22513 1.00335 0.0
C1182 C 0.35786 0.24949 0.97556 0.0
C1183 C 0.33084 0.25935 0.95915 0.0
C1184 C 0.37922 0.22223 0.96805 0.0
C1185 C 0.32648 0.24271 0.93412 0.0
C1186 C 0.34749 0.21539 0.92662 0.0
C1187 C 0.39274 0.17547 0.93806 0.0
C1188 C 0.41794 0.1638 0.95599 0.0
C1189 C 0.37339 0.20451 0.94387 0.0
C1190 C 0.42494 0.18266 0.9788 0.0
C1191 C 0.40559 0.21162 0.9849 0.0
H1192 H 0.85977 0.30674 0.98219 0.0
H1193 H 0.84183 0.28085 0.07922 0.0
H1194 H 0.87961 0.32505 0.08607 0.0
H1195 H 0.91694 0.37112 0.06456 0.0
H1196 H 0.9324 0.39935 0.9678 0.0
H1197 H 0.8966 0.35345 0.96067 0.0
C1198 C 0.86411 0.31071 0.00487 0.0
C1199 C 0.84807 0.29048 0.03019 0.0
C1200 C 0.88559 0.33625 0.00861 0.0
C1201 C 0.85374 0.29617 0.0594 0.0
C1202 C 0.87546 0.32129 0.0633 0.0
C1203 C 0.91289 0.36698 0.04184 0.0
C1204 C 0.92761 0.38831 0.01665 0.0
C1205 C 0.89152 0.34139 0.03807 0.0
C1206 C 0.92152 0.38308 0.98746 0.0
C1207 C 0.90096 0.35699 0.98343 0.0
loop_
_geom_bond_atom_site_label_1
_geom_bond_atom_site_label_2
_geom_bond_distance
_geom_bond_site_symmetry_2
_ccdc_geom_bond_type
C0 O2 1.247 . S
C0 O4 1.258 1_455 S
C1 O8 1.247 . S
C1 O9 1.258 1_655 S
O2 C0 1.247 . S
O2 Zn3 2.028 . S
Zn3 O2 2.028 . S
Zn3 O7 2.035 . S
Zn3 O9 2.035 . S
Zn3 O10 2.028 . S
O4 C0 1.258 1_655 S
O4 Zn5 2.035 . S
Zn5 O4 2.035 . S
Zn5 O6 2.028 . S
Zn5 O8 2.028 . S
Zn5 O11 2.035 . S
O6 Zn5 2.028 . S
O6 C12 1.247 . S
O7 Zn3 2.035 . S
O7 C12 1.258 1_455 S
O8 C1 1.247 . S
O8 Zn5 2.028 . S
O9 C1 1.258 1_455 S
O9 Zn3 2.035 . S
O10 Zn3 2.028 . S
O10 C13 1.247 . S
O11 Zn5 2.035 . S
O11 C13 1.258 1_655 S
C12 O6 1.247 . S
C12 O7 1.258 1_655 S
C13 O10 1.247 . S
C13 O11 1.258 1_455 S
C14 O16 1.247 . S
C14 O18 1.258 1_455 S
C15 O22 1.247 . S
C15 O23 1.258 1_655 S
O16 C14 1.247 . S
O16 Zn17 2.028 . S
Zn17 O16 2.028 . S
Zn17 O21 2.035 . S
Zn17 O23 2.035 . S
Zn17 O24 2.028 . S
O18 C14 1.258 1_655 S
O18 Zn19 2.035 . S
Zn19 O18 2.035 . S
Zn19 O20 2.028 . S
Zn19 O22 2.028 . S
Zn19 O25 2.035 . S
O20 Zn19 2.028 . S
O20 C26 1.247 . S
O21 Zn17 2.035 . S
O21 C26 1.258 1_455 S
O22 C15 1.247 . S
O22 Zn19 2.028 . S
O23 C15 1.258 1_455 S
O23 Zn17 2.035 . S
O24 Zn17 2.028 . S
O24 C27 1.247 . S
O25 Zn19 2.035 . S
O25 C27 1.258 1_655 S
C26 O20 1.247 . S
C26 O21 1.258 1_655 S
C27 O24 1.247 . S
C27 O25 1.258 1_455 S
C28 O30 1.247 1_545 S
C28 O32 1.258 . S
C29 O36 1.247 . S
C29 O37 1.258 1_545 S
O30 C28 1.247 1_565 S
O30 Zn31 2.028 . S
Zn31 O30 2.028 . S
Zn31 O35 2.035 . S
Zn31 O37 2.035 . S
Zn31 O38 2.028 . S
O32 C28 1.258 . S
O32 Zn33 2.035 . S
Zn33 O32 2.035 . S
Zn33 O34 2.028 . S
Zn33 O36 2.028 . S
Zn33 O39 2.035 . S
O34 Zn33 2.028 . S
O34 C40 1.247 . S
O35 Zn31 2.035 . S
O35 C40 1.258 1_565 S
O36 C29 1.247 . S
O36 Zn33 2.028 . S
O37 C29 1.258 1_565 S
O37 Zn31 2.035 . S
O38 Zn31 2.028 . S
O38 C41 1.247 1_565 S
O39 Zn33 2.035 . S
O39 C41 1.258 . S
C40 O34 1.247 . S
C40 O35 1.258 1_545 S
C41 O38 1.247 1_545 S
C41 O39 1.258 . S
C42 O44 1.247 . S
C42 O46 1.258 . S
C43 O50 1.247 . S
C43 O51 1.258 . S
O44 C42 1.247 . S
O44 Zn45 2.028 . S
Zn45 O44 2.028 . S
Zn45 O49 2.035 . S
Zn45 O51 2.035 . S
Zn45 O52 2.028 . S
O46 C42 1.258 . S
O46 Zn47 2.035 . S
Zn47 O46 2.035 . S
Zn47 O48 2.028 . S
Zn47 O50 2.028 . S
Zn47 O53 2.035 . S
O48 Zn47 2.028 . S
O48 C54 1.247 . S
O49 Zn45 2.035 . S
O49 C54 1.258 . S
O50 C43 1.247 . S
O50 Zn47 2.028 . S
O51 C43 1.258 . S
O51 Zn45 2.035 . S
O52 Zn45 2.028 . S
O52 C55 1.247 . S
O53 Zn47 2.035 . S
O53 C55 1.258 . S
C54 O48 1.247 . S
C54 O49 1.258 . S
C55 O52 1.247 . S
C55 O53 1.258 . S
C56 O58 1.247 1_554 S
C56 O60 1.258 . S
C57 O64 1.247 1_556 S
C57 O65 1.258 . S
O58 C56 1.247 1_556 S
O58 Zn59 2.028 . S
Zn59 O58 2.028 . S
Zn59 O63 2.035 . S
Zn59 O65 2.035 . S
Zn59 O66 2.028 . S
O60 C56 1.258 . S
O60 Zn61 2.035 . S
Zn61 O60 2.035 . S
Zn61 O62 2.028 . S
Zn61 O64 2.028 . S
Zn61 O67 2.035 . S
O62 Zn61 2.028 . S
O62 C68 1.247 1_554 S
O63 Zn59 2.035 . S
O63 C68 1.258 . S
O64 C57 1.247 1_554 S
O64 Zn61 2.028 . S
O65 C57 1.258 . S
O65 Zn59 2.035 . S
O66 Zn59 2.028 . S
O66 C69 1.247 1_556 S
O67 Zn61 2.035 . S
O67 C69 1.258 . S
C68 O62 1.247 1_556 S
C68 O63 1.258 . S
C69 O66 1.247 1_554 S
C69 O67 1.258 . S
C70 O72 1.247 . S
C70 O74 1.258 . S
C71 O78 1.247 . S
C71 O79 1.258 . S
O72 C70 1.247 . S
O72 Zn73 2.028 . S
Zn73 O72 2.028 . S
Zn73 O77 2.035 . S
Zn73 O79 2.035 . S
Zn73 O80 2.028 . S
O74 C70 1.258 . S
O74 Zn75 2.035 . S
Zn75 O74 2.035 . S
Zn75 O76 2.028 . S
Zn75 O78 2.028 . S
Zn75 O81 2.035 . S
O76 Zn75 2.028 . S
O76 C82 1.247 . S
O77 Zn73 2.035 . S
O77 C82 1.258 . S
O78 C71 1.247 . S
O78 Zn75 2.028 . S
O79 C71 1.258 . S
O79 Zn73 2.035 . S
O80 Zn73 2.028 . S
O80 C83 1.247 . S
O81 Zn75 2.035 . S
O81 C83 1.258 . S
C82 O76 1.247 . S
C82 O77 1.258 . S
C83 O80 1.247 . S
C83 O81 1.258 . S
C84 O86 1.247 . S
C84 O88 1.258 . S
C85 O92 1.247 . S
C85 O93 1.258 . S
O86 C84 1.247 . S
O86 Zn87 2.028 . S
Zn87 O86 2.028 . S
Zn87 O91 2.035 . S
Zn87 O93 2.035 . S
Zn87 O94 2.028 . S
O88 C84 1.258 . S
O88 Zn89 2.035 . S
Zn89 O88 2.035 . S
Zn89 O90 2.028 . S
Zn89 O92 2.028 . S
Zn89 O95 2.035 . S
O90 Zn89 2.028 . S
O90 C96 1.247 . S
O91 Zn87 2.035 . S
O91 C96 1.258 . S
O92 C85 1.247 . S
O92 Zn89 2.028 . S
O93 C85 1.258 . S
O93 Zn87 2.035 . S
O94 Zn87 2.028 . S
O94 C97 1.247 . S
O95 Zn89 2.035 . S
O95 C97 1.258 . S
C96 O90 1.247 . S
C96 O91 1.258 . S
C97 O94 1.247 . S
C97 O95 1.258 . S
C98 O100 1.247 . S
C98 O102 1.258 . S
C99 O106 1.247 . S
C99 O107 1.258 . S
O100 C98 1.247 . S
O100 Zn101 2.028 . S
Zn101 O100 2.028 . S
Zn101 O105 2.035 . S
Zn101 O107 2.035 . S
Zn101 O108 2.028 . S
O102 C98 1.258 . S
O102 Zn103 2.035 . S
Zn103 O102 2.035 . S
Zn103 O104 2.028 . S
Zn103 O106 2.028 . S
Zn103 O109 2.035 . S
O104 Zn103 2.028 . S
O104 C110 1.247 . S
O105 Zn101 2.035 . S
O105 C110 1.258 . S
O106 C99 1.247 . S
O106 Zn103 2.028 . S
O107 C99 1.258 . S
O107 Zn101 2.035 . S
O108 Zn101 2.028 . S
O108 C111 1.247 . S
O109 Zn103 2.035 . S
O109 C111 1.258 . S
C110 O104 1.247 . S
C110 O105 1.258 . S
C111 O108 1.247 . S
C111 O109 1.258 . S
C112 O114 1.247 . S
C112 O116 1.258 . S
C113 O120 1.247 . S
C113 O121 1.258 . S
O114 C112 1.247 . S
O114 Zn115 2.028 . S
Zn115 O114 2.028 . S
Zn115 O119 2.035 . S
Zn115 O121 2.035 . S
Zn115 O122 2.028 . S
O116 C112 1.258 . S
O116 Zn117 2.035 . S
Zn117 O116 2.035 . S
Zn117 O118 2.028 . S
Zn117 O120 2.028 . S
Zn117 O123 2.035 . S
O118 Zn117 2.028 . S
O118 C124 1.247 . S
O119 Zn115 2.035 . S
O119 C124 1.258 . S
O120 C113 1.247 . S
O120 Zn117 2.028 . S
O121 C113 1.258 . S
O121 Zn115 2.035 . S
O122 Zn115 2.028 . S
O122 C125 1.247 . S
O123 Zn117 2.035 . S
O123 C125 1.258 . S
C124 O118 1.247 . S
C124 O119 1.258 . S
C125 O122 1.247 . S
C125 O123 1.258 . S
C126 O128 1.247 . S
C126 O130 1.258 . S
C127 O134 1.247 . S
C127 O135 1.258 . S
O128 C126 1.247 . S
O128 Zn129 2.028 . S
Zn129 O128 2.028 . S
Zn129 O133 2.035 . S
Zn129 O135 2.035 . S
Zn129 O136 2.028 . S
O130 C126 1.258 . S
O130 Zn131 2.035 . S
Zn131 O130 2.035 . S
Zn131 O132 2.028 . S
Zn131 O134 2.028 . S
Zn131 O137 2.035 . S
O132 Zn131 2.028 . S
O132 C138 1.247 . S
O133 Zn129 2.035 . S
O133 C138 1.258 . S
O134 C127 1.247 . S
O134 Zn131 2.028 . S
O135 C127 1.258 . S
O135 Zn129 2.035 . S
O136 Zn129 2.028 . S
O136 C139 1.247 . S
O137 Zn131 2.035 . S
O137 C139 1.258 . S
C138 O132 1.247 . S
C138 O133 1.258 . S
C139 O136 1.247 . S
C139 O137 1.258 . S
C140 O142 1.247 . S
C140 O144 1.258 1_565 S
C141 O148 1.247 . S
C141 O149 1.258 1_545 S
O142 C140 1.247 . S
O142 Zn143 2.028 . S
Zn143 O142 2.028 . S
Zn143 O147 2.035 . S
Zn143 O149 2.035 . S
Zn143 O150 2.028 . S
O144 C140 1.258 1_545 S
O144 Zn145 2.035 . S
Zn145 O144 2.035 . S
Zn145 O146 2.028 . S
Zn145 O148 2.028 . S
Zn145 O151 2.035 . S
O146 Zn145 2.028 . S
O146 C152 1.247 . S
O147 Zn143 2.035 . S
O147 C152 1.258 1_565 S
O148 C141 1.247 . S
O148 Zn145 2.028 . S
O149 C141 1.258 1_565 S
O149 Zn143 2.035 . S
O150 Zn143 2.028 . S
O150 C153 1.247 . S
O151 Zn145 2.035 . S
O151 C153 1.258 1_545 S
C152 O146 1.247 . S
C152 O147 1.258 1_545 S
C153 O150 1.247 . S
C153 O151 1.258 1_565 S
C154 O156 1.247 . S
C154 O158 1.258 1_554 S
C155 O162 1.247 1_554 S
C155 O163 1.258 . S
O156 C154 1.247 . S
O156 Zn157 2.028 . S
Zn157 O156 2.028 . S
Zn157 O161 2.035 . S
Zn157 O163 2.035 . S
Zn157 O164 2.028 . S
O158 C154 1.258 1_556 S
O158 Zn159 2.035 . S
Zn159 O158 2.035 . S
Zn159 O160 2.028 . S
Zn159 O162 2.028 . S
Zn159 O165 2.035 . S
O160 Zn159 2.028 . S
O160 C166 1.247 1_556 S
O161 Zn157 2.035 . S
O161 C166 1.258 . S
O162 C155 1.247 1_556 S
O162 Zn159 2.028 . S
O163 C155 1.258 . S
O163 Zn157 2.035 . S
O164 Zn157 2.028 . S
O164 C167 1.247 1_554 S
O165 Zn159 2.035 . S
O165 C167 1.258 . S
C166 O160 1.247 1_554 S
C166 O161 1.258 . S
C167 O164 1.247 1_556 S
C167 O165 1.258 . S
C168 O184 1.251 . S
C168 O186 1.254 . S
N169 C170 1.333 . S
N169 C174 1.307 . S
N169 Zn175 2.020 1_556 S
C170 N169 1.333 . S
C170 C171 1.379 . S
C170 H188 0.952 . S
C171 C170 1.379 . S
C171 C172 1.390 1_545 S
C171 H198 0.949 . S
C172 C171 1.390 1_565 S
C172 C173 1.357 . S
C173 C172 1.357 . S
C173 C174 1.370 1_565 S
C173 H199 0.950 . S
C174 N169 1.307 . S
C174 C173 1.370 1_545 S
C174 H192 0.948 . S
Zn175 N169 2.020 1_554 S
Zn175 O184 2.039 . S
Zn175 O190 2.034 . S
Zn175 O194 2.025 . S
Zn175 O196 2.024 1_545 S
C176 O195 1.246 1_565 S
C176 O196 1.249 . S
N177 C178 1.307 . S
N177 C179 1.333 1_455 S
N177 Zn183 2.020 . S
C178 N177 1.307 . S
C178 C182 1.370 . S
C178 H189 0.948 . S
C179 N177 1.333 1_655 S
C179 C180 1.379 . S
C179 H187 0.952 . S
C180 C179 1.379 . S
C180 C181 1.390 . S
C180 H200 0.949 . S
C181 C180 1.390 . S
C181 C182 1.357 1_655 S
C182 C178 1.370 . S
C182 C181 1.357 1_455 S
C182 H201 0.950 . S
Zn183 N177 2.020 . S
Zn183 O186 2.025 . S
Zn183 O191 2.024 . S
Zn183 O193 2.039 . S
Zn183 O195 2.034 . S
O184 C168 1.251 . S
O184 Zn175 2.039 . S
C185 O190 1.246 . S
C185 O191 1.249 . S
O186 C168 1.254 . S
O186 Zn183 2.025 . S
H187 C179 0.952 . S
H188 C170 0.952 . S
H189 C178 0.948 . S
O190 Zn175 2.034 . S
O190 C185 1.246 . S
O191 Zn183 2.024 . S
O191 C185 1.249 . S
H192 C174 0.948 . S
O193 Zn183 2.039 . S
O193 C197 1.251 1_455 S
O194 Zn175 2.025 . S
O194 C197 1.254 1_455 S
O195 C176 1.246 1_545 S
O195 Zn183 2.034 . S
O196 Zn175 2.024 1_565 S
O196 C176 1.249 . S
C197 O193 1.251 1_655 S
C197 O194 1.254 1_655 S
H198 C171 0.949 . S
H199 C173 0.950 . S
H200 C180 0.949 . S
H201 C182 0.950 . S
C202 O218 1.251 . S
C202 O220 1.254 . S
N203 C204 1.333 . S
N203 C208 1.307 . S
N203 Zn209 2.020 1_556 S
C204 N203 1.333 . S
C204 C205 1.379 . S
C204 H222 0.952 . S
C205 C204 1.379 . S
C205 C206 1.390 . S
C205 H232 0.949 . S
C206 C205 1.390 . S
C206 C207 1.357 . S
C207 C206 1.357 . S
C207 C208 1.370 . S
C207 H233 0.950 . S
C208 N203 1.307 . S
C208 C207 1.370 . S
C208 H226 0.948 . S
Zn209 N203 2.020 1_554 S
Zn209 O218 2.039 . S
Zn209 O224 2.034 . S
Zn209 O228 2.025 1_654 S
Zn209 O230 2.024 . S
C210 O229 1.246 . S
C210 O230 1.249 . S
N211 C212 1.307 . S
N211 C213 1.333 1_655 S
N211 Zn217 2.020 . S
C212 N211 1.307 . S
C212 C216 1.370 . S
C212 H223 0.948 . S
C213 N211 1.333 1_455 S
C213 C214 1.379 . S
C213 H221 0.952 . S
C214 C213 1.379 . S
C214 C215 1.390 . S
C214 H234 0.949 . S
C215 C214 1.390 . S
C215 C216 1.357 1_455 S
C216 C212 1.370 . S
C216 C215 1.357 1_655 S
C216 H235 0.950 . S
Zn217 N211 2.020 . S
Zn217 O220 2.025 . S
Zn217 O225 2.024 . S
Zn217 O227 2.039 1_655 S
Zn217 O229 2.034 . S
O218 C202 1.251 . S
O218 Zn209 2.039 . S
C219 O224 1.246 . S
C219 O225 1.249 . S
O220 C202 1.254 . S
O220 Zn217 2.025 . S
H221 C213 0.952 . S
H222 C204 0.952 . S
H223 C212 0.948 . S
O224 Zn209 2.034 . S
O224 C219 1.246 . S
O225 Zn217 2.024 . S
O225 C219 1.249 . S
H226 C208 0.948 . S
O227 Zn217 2.039 1_455 S
O227 C231 1.251 . S
O228 Zn209 2.025 1_456 S
O228 C231 1.254 1_556 S
O229 C210 1.246 . S
O229 Zn217 2.034 . S
O230 Zn209 2.024 . S
O230 C210 1.249 . S
C231 O227 1.251 . S
C231 O228 1.254 1_554 S
H232 C205 0.949 . S
H233 C207 0.950 . S
H234 C214 0.949 . S
H235 C216 0.950 . S
C236 O252 1.235 1_545 S
C236 O254 1.256 1_545 S
N237 C238 1.333 . S
N237 C242 1.307 . S
N237 Zn243 2.020 . S
C238 N237 1.333 . S
C238 C239 1.379 1_455 S
C238 H256 0.952 1_455 S
C239 C238 1.379 1_655 S
C239 C240 1.390 1_655 S
C239 H266 0.949 . S
C240 C239 1.390 1_455 S
C240 C241 1.357 . S
C241 C240 1.357 . S
C241 C242 1.370 . S
C241 H267 0.950 . S
C242 N237 1.307 . S
C242 C241 1.370 . S
C242 H260 0.948 . S
Zn243 N237 2.020 . S
Zn243 O252 2.039 . S
Zn243 O258 2.034 . S
Zn243 O262 2.025 . S
Zn243 O264 2.024 . S
C244 O263 1.246 . S
C244 O264 1.249 . S
N245 C246 1.307 1_565 S
N245 C247 1.333 . S
N245 Zn251 2.020 . S
C246 N245 1.307 1_545 S
C246 C250 1.370 . S
C246 H257 0.948 . S
C247 N245 1.333 . S
C247 C248 1.379 . S
C247 H255 0.952 . S
C248 C247 1.379 . S
C248 C249 1.390 1_565 S
C248 H268 0.949 . S
C249 C248 1.390 1_545 S
C249 C250 1.357 . S
C250 C246 1.370 . S
C250 C249 1.357 . S
C250 H269 0.950 . S
Zn251 N245 2.020 . S
Zn251 O254 2.027 . S
Zn251 O259 2.024 . S
Zn251 O261 2.039 . S
Zn251 O263 2.034 . S
O252 C236 1.235 1_565 S
O252 Zn243 2.039 . S
C253 O258 1.246 . S
C253 O259 1.249 . S
O254 C236 1.256 1_565 S
O254 Zn251 2.027 . S
H255 C247 0.952 . S
H256 C238 0.952 1_655 S
H257 C246 0.948 . S
O258 Zn243 2.034 . S
O258 C253 1.246 . S
O259 Zn251 2.024 . S
O259 C253 1.249 . S
H260 C242 0.948 . S
O261 Zn251 2.039 . S
O261 C265 1.251 . S
O262 Zn243 2.025 . S
O262 C265 1.254 . S
O263 C244 1.246 . S
O263 Zn251 2.034 . S
O264 Zn243 2.024 . S
O264 C244 1.249 . S
C265 O261 1.251 . S
C265 O262 1.254 . S
H266 C239 0.949 . S
H267 C241 0.950 . S
H268 C248 0.949 . S
H269 C250 0.950 . S
C270 O286 1.251 . S
C270 O288 1.254 . S
N271 C272 1.333 . S
N271 C276 1.307 . S
N271 Zn277 2.020 1_455 S
C272 N271 1.333 . S
C272 C273 1.379 . S
C272 H290 0.952 . S
C273 C272 1.379 . S
C273 C274 1.390 . S
C273 H300 0.949 . S
C274 C273 1.390 . S
C274 C275 1.357 . S
C275 C274 1.357 . S
C275 C276 1.370 . S
C275 H301 0.950 . S
C276 N271 1.307 . S
C276 C275 1.370 . S
C276 H294 0.948 . S
Zn277 N271 2.020 1_655 S
Zn277 O286 2.039 . S
Zn277 O292 2.034 . S
Zn277 O296 2.025 1_655 S
Zn277 O298 2.024 . S
C278 O297 1.246 . S
C278 O298 1.249 . S
N279 C280 1.307 . S
N279 C281 1.333 . S
N279 Zn285 2.020 . S
C280 N279 1.307 . S
C280 C284 1.370 . S
C280 H291 0.948 . S
C281 N279 1.333 . S
C281 C282 1.379 . S
C281 H289 0.952 . S
C282 C281 1.379 . S
C282 C283 1.390 . S
C282 H302 0.949 . S
C283 C282 1.390 . S
C283 C284 1.357 . S
C284 C280 1.370 . S
C284 C283 1.357 . S
C284 H303 0.950 . S
Zn285 N279 2.020 . S
Zn285 O288 2.025 . S
Zn285 O293 2.024 . S
Zn285 O295 2.039 . S
Zn285 O297 2.034 . S
O286 C270 1.251 . S
O286 Zn277 2.039 . S
C287 O292 1.246 . S
C287 O293 1.249 . S
O288 C270 1.254 . S
O288 Zn285 2.025 . S
H289 C281 0.952 . S
H290 C272 0.952 . S
H291 C280 0.948 . S
O292 Zn277 2.034 . S
O292 C287 1.246 . S
O293 Zn285 2.024 . S
O293 C287 1.249 . S
H294 C276 0.948 . S
O295 Zn285 2.039 . S
O295 C299 1.251 . S
O296 Zn277 2.025 1_455 S
O296 C299 1.254 1_455 S
O297 C278 1.246 . S
O297 Zn285 2.034 . S
O298 Zn277 2.024 . S
O298 C278 1.249 . S
C299 O295 1.251 . S
C299 O296 1.254 1_655 S
H300 C273 0.949 . S
H301 C275 0.950 . S
H302 C282 0.949 . S
H303 C284 0.950 . S
C304 O320 1.251 . S
C304 O322 1.254 . S
N305 C306 1.333 . S
N305 C310 1.307 . S
N305 Zn311 2.020 1_545 S
C306 N305 1.333 . S
C306 C307 1.379 . S
C306 H324 0.952 . S
C307 C306 1.379 . S
C307 C308 1.390 . S
C307 H334 0.949 . S
C308 C307 1.390 . S
C308 C309 1.357 . S
C309 C308 1.357 . S
C309 C310 1.370 . S
C309 H335 0.950 . S
C310 N305 1.307 . S
C310 C309 1.370 . S
C310 H328 0.948 . S
Zn311 N305 2.020 1_565 S
Zn311 O320 2.039 . S
Zn311 O326 2.034 . S
Zn311 O330 2.025 . S
Zn311 O332 2.024 1_565 S
C312 O331 1.246 1_545 S
C312 O332 1.249 . S
N313 C314 1.307 . S
N313 C315 1.333 . S
N313 Zn319 2.020 . S
C314 N313 1.307 . S
C314 C318 1.370 . S
C314 H325 0.948 . S
C315 N313 1.333 . S
C315 C316 1.379 . S
C315 H323 0.952 . S
C316 C315 1.379 . S
C316 C317 1.390 . S
C316 H336 0.949 . S
C317 C316 1.390 . S
C317 C318 1.357 . S
C318 C314 1.370 . S
C318 C317 1.357 . S
C318 H337 0.950 . S
Zn319 N313 2.020 . S
Zn319 O322 2.025 . S
Zn319 O327 2.024 . S
Zn319 O329 2.039 . S
Zn319 O331 2.034 . S
O320 C304 1.251 . S
O320 Zn311 2.039 . S
C321 O326 1.246 . S
C321 O327 1.249 . S
O322 C304 1.254 . S
O322 Zn319 2.025 . S
H323 C315 0.952 . S
H324 C306 0.952 . S
H325 C314 0.948 . S
O326 Zn311 2.034 . S
O326 C321 1.246 . S
O327 Zn319 2.024 . S
O327 C321 1.249 . S
H328 C310 0.948 . S
O329 Zn319 2.039 . S
O329 C333 1.251 . S
O330 Zn311 2.025 . S
O330 C333 1.254 . S
O331 C312 1.246 1_565 S
O331 Zn319 2.034 . S
O332 Zn311 2.024 1_545 S
O332 C312 1.249 . S
C333 O329 1.251 . S
C333 O330 1.254 . S
H334 C307 0.949 . S
H335 C309 0.950 . S
H336 C316 0.949 . S
H337 C318 0.950 . S
C338 O354 1.251 . S
C338 O356 1.254 . S
N339 C340 1.333 . S
N339 C344 1.307 . S
N339 Zn345 2.020 . S
C340 N339 1.333 . S
C340 C341 1.379 . S
C340 H358 0.952 . S
C341 C340 1.379 . S
C341 C342 1.390 . S
C341 H368 0.949 . S
C342 C341 1.390 . S
C342 C343 1.357 . S
C343 C342 1.357 . S
C343 C344 1.370 . S
C343 H369 0.950 . S
C344 N339 1.307 . S
C344 C343 1.370 . S
C344 H362 0.948 . S
Zn345 N339 2.020 . S
Zn345 O354 2.039 . S
Zn345 O360 2.034 . S
Zn345 O364 2.025 . S
Zn345 O366 2.024 . S
C346 O365 1.246 . S
C346 O366 1.249 . S
N347 C348 1.307 . S
N347 C349 1.333 . S
N347 Zn353 2.020 . S
C348 N347 1.307 . S
C348 C352 1.370 . S
C348 H359 0.948 . S
C349 N347 1.333 . S
C349 C350 1.379 . S
C349 H357 0.952 . S
C350 C349 1.379 . S
C350 C351 1.390 . S
C350 H370 0.949 . S
C351 C350 1.390 . S
C351 C352 1.357 . S
C352 C348 1.370 . S
C352 C351 1.357 . S
C352 H371 0.950 . S
Zn353 N347 2.020 . S
Zn353 O356 2.025 . S
Zn353 O361 2.024 . S
Zn353 O363 2.039 . S
Zn353 O365 2.034 . S
O354 C338 1.251 . S
O354 Zn345 2.039 . S
C355 O360 1.246 . S
C355 O361 1.249 . S
O356 C338 1.254 . S
O356 Zn353 2.025 . S
H357 C349 0.952 . S
H358 C340 0.952 . S
H359 C348 0.948 . S
O360 Zn345 2.034 . S
O360 C355 1.246 . S
O361 Zn353 2.024 . S
O361 C355 1.249 . S
H362 C344 0.948 . S
O363 Zn353 2.039 . S
O363 C367 1.251 . S
O364 Zn345 2.025 . S
O364 C367 1.254 . S
O365 C346 1.246 . S
O365 Zn353 2.034 . S
O366 Zn345 2.024 . S
O366 C346 1.249 . S
C367 O363 1.251 . S
C367 O364 1.254 . S
H368 C341 0.949 . S
H369 C343 0.950 . S
H370 C350 0.949 . S
H371 C352 0.950 . S
C372 O388 1.251 . S
C372 O390 1.254 . S
N373 C374 1.333 . S
N373 C378 1.307 . S
N373 Zn379 2.020 . S
C374 N373 1.333 . S
C374 C375 1.379 . S
C374 H392 0.952 . S
C375 C374 1.379 . S
C375 C376 1.390 . S
C375 H402 0.949 . S
C376 C375 1.390 . S
C376 C377 1.357 . S
C377 C376 1.357 . S
C377 C378 1.370 . S
C377 H403 0.950 . S
C378 N373 1.307 . S
C378 C377 1.370 . S
C378 H396 0.948 . S
Zn379 N373 2.020 . S
Zn379 O388 2.039 . S
Zn379 O394 2.034 . S
Zn379 O398 2.025 . S
Zn379 O400 2.024 . S
C380 O399 1.246 . S
C380 O400 1.249 . S
N381 C382 1.307 1_556 S
N381 C383 1.333 1_556 S
N381 Zn387 2.020 . S
C382 N381 1.307 1_554 S
C382 C386 1.370 . S
C382 H393 0.948 . S
C383 N381 1.333 1_554 S
C383 C384 1.379 . S
C383 H391 0.952 1_554 S
C384 C383 1.379 . S
C384 C385 1.390 . S
C384 H404 0.949 . S
C385 C384 1.390 . S
C385 C386 1.357 . S
C386 C382 1.370 . S
C386 C385 1.357 . S
C386 H405 0.950 . S
Zn387 N381 2.020 . S
Zn387 O390 2.025 . S
Zn387 O395 2.024 . S
Zn387 O397 2.039 . S
Zn387 O399 2.034 . S
O388 C372 1.251 . S
O388 Zn379 2.039 . S
C389 O394 1.246 . S
C389 O395 1.249 . S
O390 C372 1.254 . S
O390 Zn387 2.025 . S
H391 C383 0.952 1_556 S
H392 C374 0.952 . S
H393 C382 0.948 . S
O394 Zn379 2.034 . S
O394 C389 1.246 . S
O395 Zn387 2.024 . S
O395 C389 1.249 . S
H396 C378 0.948 . S
O397 Zn387 2.039 . S
O397 C401 1.251 . S
O398 Zn379 2.025 . S
O398 C401 1.254 . S
O399 C380 1.246 . S
O399 Zn387 2.034 . S
O400 Zn379 2.024 . S
O400 C380 1.249 . S
C401 O397 1.251 . S
C401 O398 1.254 . S
H402 C375 0.949 . S
H403 C377 0.950 . S
H404 C384 0.949 . S
H405 C386 0.950 . S
C406 O422 1.251 . S
C406 O424 1.254 . S
N407 C408 1.333 . S
N407 C412 1.307 . S
N407 Zn413 2.020 . S
C408 N407 1.333 . S
C408 C409 1.379 . S
C408 H426 0.952 . S
C409 C408 1.379 . S
C409 C410 1.390 . S
C409 H436 0.949 . S
C410 C409 1.390 . S
C410 C411 1.357 . S
C411 C410 1.357 . S
C411 C412 1.370 . S
C411 H437 0.950 . S
C412 N407 1.307 . S
C412 C411 1.370 . S
C412 H430 0.948 . S
Zn413 N407 2.020 . S
Zn413 O422 2.039 . S
Zn413 O428 2.034 . S
Zn413 O432 2.025 . S
Zn413 O434 2.024 . S
C414 O433 1.246 . S
C414 O434 1.249 . S
N415 C416 1.307 . S
N415 C417 1.333 1_545 S
N415 Zn421 2.020 . S
C416 N415 1.307 . S
C416 C420 1.370 . S
C416 H427 0.948 . S
C417 N415 1.333 1_565 S
C417 C418 1.379 . S
C417 H425 0.952 . S
C418 C417 1.379 . S
C418 C419 1.390 . S
C418 H438 0.949 . S
C419 C418 1.390 . S
C419 C420 1.357 1_565 S
C420 C416 1.370 . S
C420 C419 1.357 1_545 S
C420 H439 0.950 . S
Zn421 N415 2.020 . S
Zn421 O424 2.025 . S
Zn421 O429 2.024 . S
Zn421 O431 2.039 1_545 S
Zn421 O433 2.034 . S
O422 C406 1.251 . S
O422 Zn413 2.039 . S
C423 O428 1.246 . S
C423 O429 1.249 . S
O424 C406 1.254 . S
O424 Zn421 2.025 . S
H425 C417 0.952 . S
H426 C408 0.952 . S
H427 C416 0.948 . S
O428 Zn413 2.034 . S
O428 C423 1.246 . S
O429 Zn421 2.024 . S
O429 C423 1.249 . S
H430 C412 0.948 . S
O431 Zn421 2.039 1_565 S
O431 C435 1.251 . S
O432 Zn413 2.025 . S
O432 C435 1.254 1_545 S
O433 C414 1.246 . S
O433 Zn421 2.034 . S
O434 Zn413 2.024 . S
O434 C414 1.249 . S
C435 O431 1.251 . S
C435 O432 1.254 1_565 S
H436 C409 0.949 . S
H437 C411 0.950 . S
H438 C418 0.949 . S
H439 C420 0.950 . S
H440 C446 0.930 . S
H441 C449 0.930 . S
H442 C450 0.930 . S
H443 C451 0.930 . S
H444 C454 0.930 . S
H445 C455 0.930 . S
C446 H440 0.930 . S
C446 C447 1.355 1_655 S
C446 C448 1.412 1_655 S
C447 C446 1.355 1_455 S
C447 C449 1.419 . S
C448 C446 1.412 1_455 S
C448 C453 1.440 . S
C448 C455 1.398 1_455 S
C449 H441 0.930 . S
C449 C447 1.419 . S
C449 C450 1.362 . S
C450 H442 0.930 . S
C450 C449 1.362 . S
C450 C453 1.409 . S
C451 H443 0.930 . S
C451 C452 1.355 . S
C451 C453 1.415 . S
C452 C451 1.355 . S
C452 C454 1.419 1_455 S
C453 C448 1.440 . S
C453 C450 1.409 . S
C453 C451 1.415 . S
C454 H444 0.930 . S
C454 C452 1.419 1_655 S
C454 C455 1.362 . S
C455 H445 0.930 . S
C455 C448 1.398 1_655 S
C455 C454 1.362 . S
H456 C462 0.930 . S
H457 C465 0.930 . S
H458 C466 0.930 . S
H459 C467 0.930 . S
H460 C470 0.930 . S
H461 C471 0.930 . S
C462 H456 0.930 . S
C462 C463 1.355 1_455 S
C462 C464 1.415 . S
C463 C462 1.355 1_655 S
C463 C465 1.419 . S
C464 C462 1.415 . S
C464 C469 1.425 1_455 S
C464 C471 1.409 . S
C465 H457 0.930 . S
C465 C463 1.419 . S
C465 C466 1.362 . S
C466 H458 0.930 . S
C466 C465 1.362 . S
C466 C469 1.409 . S
C467 H459 0.930 . S
C467 C468 1.355 . S
C467 C469 1.415 . S
C468 C467 1.355 . S
C468 C470 1.419 1_655 S
C469 C464 1.425 1_655 S
C469 C466 1.409 . S
C469 C467 1.415 . S
C470 H460 0.930 . S
C470 C468 1.419 1_455 S
C470 C471 1.362 . S
C471 H461 0.930 . S
C471 C464 1.409 . S
C471 C470 1.362 . S
H472 C478 0.930 1_655 S
H473 C481 0.930 . S
H474 C482 0.930 . S
H475 C483 0.930 . S
H476 C486 0.930 . S
H477 C487 0.930 . S
C478 H472 0.930 1_455 S
C478 C479 1.355 . S
C478 C480 1.415 . S
C479 C478 1.355 . S
C479 C481 1.419 . S
C480 C478 1.415 . S
C480 C485 1.425 . S
C480 C487 1.409 1_455 S
C481 H473 0.930 . S
C481 C479 1.419 . S
C481 C482 1.362 . S
C482 H474 0.930 . S
C482 C481 1.362 . S
C482 C485 1.409 . S
C483 H475 0.930 . S
C483 C484 1.355 . S
C483 C485 1.415 . S
C484 C483 1.355 . S
C484 C486 1.419 1_455 S
C485 C480 1.425 . S
C485 C482 1.409 . S
C485 C483 1.415 . S
C486 H476 0.930 . S
C486 C484 1.419 1_655 S
C486 C487 1.362 . S
C487 H477 0.930 . S
C487 C480 1.409 1_655 S
C487 C486 1.362 . S
H488 C494 0.930 . S
H489 C497 0.930 . S
H490 C498 0.930 . S
H491 C499 0.930 . S
H492 C502 0.930 . S
H493 C503 0.930 . S
C494 H488 0.930 . S
C494 C495 1.355 1_455 S
C494 C496 1.415 . S
C495 C494 1.355 1_655 S
C495 C497 1.419 . S
C496 C494 1.415 . S
C496 C501 1.425 1_455 S
C496 C503 1.409 . S
C497 H489 0.930 . S
C497 C495 1.419 . S
C497 C498 1.362 . S
C498 H490 0.930 . S
C498 C497 1.362 . S
C498 C501 1.409 . S
C499 H491 0.930 . S
C499 C500 1.353 . S
C499 C501 1.415 . S
C500 C499 1.353 . S
C500 C502 1.421 1_655 S
C501 C496 1.425 1_655 S
C501 C498 1.409 . S
C501 C499 1.415 . S
C502 H492 0.930 . S
C502 C500 1.421 1_455 S
C502 C503 1.362 . S
C503 H493 0.930 . S
C503 C496 1.409 . S
C503 C502 1.362 . S
H504 C510 0.930 1_565 S
H505 C513 0.930 . S
H506 C514 0.930 . S
H507 C515 0.930 . S
H508 C518 0.930 . S
H509 C519 0.930 . S
C510 H504 0.930 1_545 S
C510 C511 1.355 . S
C510 C512 1.415 . S
C511 C510 1.355 . S
C511 C513 1.419 . S
C512 C510 1.415 . S
C512 C517 1.425 . S
C512 C519 1.409 1_545 S
C513 H505 0.930 . S
C513 C511 1.419 . S
C513 C514 1.362 . S
C514 H506 0.930 . S
C514 C513 1.362 . S
C514 C517 1.409 . S
C515 H507 0.930 . S
C515 C516 1.355 . S
C515 C517 1.415 . S
C516 C515 1.355 . S
C516 C518 1.419 1_545 S
C517 C512 1.425 . S
C517 C514 1.409 . S
C517 C515 1.415 . S
C518 H508 0.930 . S
C518 C516 1.419 1_565 S
C518 C519 1.362 . S
C519 H509 0.930 . S
C519 C512 1.409 1_565 S
C519 C518 1.362 . S
H520 C526 0.930 . S
H521 C529 0.930 . S
H522 C530 0.930 . S
H523 C531 0.930 . S
H524 C534 0.930 . S
H525 C535 0.930 . S
C526 H520 0.930 . S
C526 C527 1.355 . S
C526 C528 1.415 . S
C527 C526 1.355 . S
C527 C529 1.419 . S
C528 C526 1.415 . S
C528 C533 1.425 . S
C528 C535 1.409 . S
C529 H521 0.930 . S
C529 C527 1.419 . S
C529 C530 1.362 . S
C530 H522 0.930 . S
C530 C529 1.362 . S
C530 C533 1.409 . S
C531 H523 0.930 . S
C531 C532 1.355 . S
C531 C533 1.415 . S
C532 C531 1.355 . S
C532 C534 1.419 . S
C533 C528 1.425 . S
C533 C530 1.409 . S
C533 C531 1.415 . S
C534 H524 0.930 . S
C534 C532 1.419 . S
C534 C535 1.362 . S
C535 H525 0.930 . S
C535 C528 1.409 . S
C535 C534 1.362 . S
H536 C542 0.946 . S
H537 C545 0.930 . S
H538 C546 0.930 . S
H539 C547 0.930 . S
H540 C550 0.930 1_565 S
H541 C551 0.930 . S
C542 H536 0.946 . S
C542 C543 1.348 1_565 S
C542 C544 1.406 1_565 S
C543 C542 1.348 1_545 S
C543 C545 1.419 . S
C544 C542 1.406 1_545 S
C544 C549 1.425 . S
C544 C551 1.409 1_545 S
C545 H537 0.930 . S
C545 C543 1.419 . S
C545 C546 1.362 . S
C546 H538 0.930 . S
C546 C545 1.362 . S
C546 C549 1.409 . S
C547 H539 0.930 . S
C547 C548 1.355 . S
C547 C549 1.415 . S
C548 C547 1.355 . S
C548 C550 1.419 . S
C549 C544 1.425 . S
C549 C546 1.409 . S
C549 C547 1.415 . S
C550 H540 0.930 1_545 S
C550 C548 1.419 . S
C550 C551 1.362 1_545 S
C551 H541 0.930 . S
C551 C544 1.409 1_565 S
C551 C550 1.362 1_565 S
H552 C558 0.930 . S
H553 C561 0.930 . S
H554 C562 0.930 . S
H555 C563 0.930 . S
H556 C566 0.930 . S
H557 C567 0.930 . S
C558 H552 0.930 . S
C558 C559 1.355 . S
C558 C560 1.415 . S
C559 C558 1.355 . S
C559 C561 1.419 . S
C560 C558 1.415 . S
C560 C565 1.425 . S
C560 C567 1.409 . S
C561 H553 0.930 . S
C561 C559 1.419 . S
C561 C562 1.362 . S
C562 H554 0.930 . S
C562 C561 1.362 . S
C562 C565 1.409 . S
C563 H555 0.930 . S
C563 C564 1.355 . S
C563 C565 1.415 . S
C564 C563 1.355 . S
C564 C566 1.419 . S
C565 C560 1.425 . S
C565 C562 1.409 . S
C565 C563 1.415 . S
C566 H556 0.930 . S
C566 C564 1.419 . S
C566 C567 1.362 . S
C567 H557 0.930 . S
C567 C560 1.409 . S
C567 C566 1.362 . S
H568 C574 0.930 1_556 S
H569 C577 0.930 . S
H570 C578 0.930 . S
H571 C579 0.930 . S
H572 C582 0.932 . S
H573 C583 0.930 . S
C574 H568 0.930 1_554 S
C574 C575 1.355 . S
C574 C576 1.415 . S
C575 C574 1.355 . S
C575 C577 1.419 . S
C576 C574 1.415 . S
C576 C581 1.425 . S
C576 C583 1.409 1_554 S
C577 H569 0.930 . S
C577 C575 1.419 . S
C577 C578 1.362 . S
C578 H570 0.930 . S
C578 C577 1.362 . S
C578 C581 1.409 . S
C579 H571 0.930 . S
C579 C580 1.355 . S
C579 C581 1.415 . S
C580 C579 1.355 . S
C580 C582 1.417 1_554 S
C581 C576 1.425 . S
C581 C578 1.409 . S
C581 C579 1.415 . S
C582 H572 0.932 . S
C582 C580 1.417 1_556 S
C582 C583 1.362 . S
C583 H573 0.930 . S
C583 C576 1.409 1_556 S
C583 C582 1.362 . S
H584 C590 0.930 . S
H585 C593 0.930 . S
H586 C594 0.930 . S
H587 C595 0.930 . S
H588 C598 0.930 . S
H589 C599 0.930 . S
C590 H584 0.930 . S
C590 C591 1.355 . S
C590 C592 1.415 . S
C591 C590 1.355 . S
C591 C593 1.419 . S
C592 C590 1.415 . S
C592 C597 1.425 . S
C592 C599 1.409 . S
C593 H585 0.930 . S
C593 C591 1.419 . S
C593 C594 1.362 . S
C594 H586 0.930 . S
C594 C593 1.362 . S
C594 C597 1.409 . S
C595 H587 0.930 . S
C595 C596 1.355 . S
C595 C597 1.415 . S
C596 C595 1.355 . S
C596 C598 1.419 . S
C597 C592 1.425 . S
C597 C594 1.409 . S
C597 C595 1.415 . S
C598 H588 0.930 . S
C598 C596 1.419 . S
C598 C599 1.362 . S
C599 H589 0.930 . S
C599 C592 1.409 . S
C599 C598 1.362 . S
H600 C606 0.930 . S
H601 C609 0.930 . S
H602 C610 0.930 . S
H603 C611 0.930 . S
H604 C614 0.930 . S
H605 C615 0.930 . S
C606 H600 0.930 . S
C606 C607 1.355 . S
C606 C608 1.415 . S
C607 C606 1.355 . S
C607 C609 1.419 . S
C608 C606 1.415 . S
C608 C613 1.425 . S
C608 C615 1.409 . S
C609 H601 0.930 . S
C609 C607 1.419 . S
C609 C610 1.362 . S
C610 H602 0.930 . S
C610 C609 1.362 . S
C610 C613 1.409 . S
C611 H603 0.930 . S
C611 C612 1.355 . S
C611 C613 1.415 . S
C612 C611 1.355 . S
C612 C614 1.419 . S
C613 C608 1.425 . S
C613 C610 1.409 . S
C613 C611 1.415 . S
C614 H604 0.930 . S
C614 C612 1.419 . S
C614 C615 1.362 . S
C615 H605 0.930 . S
C615 C608 1.409 . S
C615 C614 1.362 . S
H616 C622 0.930 . S
H617 C625 0.930 . S
H618 C626 0.930 . S
H619 C627 0.930 . S
H620 C630 0.930 . S
H621 C631 0.930 . S
C622 H616 0.930 . S
C622 C623 1.355 . S
C622 C624 1.415 . S
C623 C622 1.355 . S
C623 C625 1.419 . S
C624 C622 1.415 . S
C624 C629 1.425 . S
C624 C631 1.409 . S
C625 H617 0.930 . S
C625 C623 1.419 . S
C625 C626 1.362 . S
C626 H618 0.930 . S
C626 C625 1.362 . S
C626 C629 1.409 . S
C627 H619 0.930 . S
C627 C628 1.355 . S
C627 C629 1.415 . S
C628 C627 1.355 . S
C628 C630 1.419 . S
C629 C624 1.425 . S
C629 C626 1.409 . S
C629 C627 1.415 . S
C630 H620 0.930 . S
C630 C628 1.419 . S
C630 C631 1.362 . S
C631 H621 0.930 . S
C631 C624 1.409 . S
C631 C630 1.362 . S
H632 C638 0.930 . S
H633 C641 0.930 . S
H634 C642 0.930 . S
H635 C643 0.930 . S
H636 C646 0.930 . S
H637 C647 0.930 . S
C638 H632 0.930 . S
C638 C639 1.355 . S
C638 C640 1.415 . S
C639 C638 1.355 . S
C639 C641 1.419 . S
C640 C638 1.415 . S
C640 C645 1.425 . S
C640 C647 1.409 . S
C641 H633 0.930 . S
C641 C639 1.419 . S
C641 C642 1.362 . S
C642 H634 0.930 . S
C642 C641 1.362 . S
C642 C645 1.409 . S
C643 H635 0.930 . S
C643 C644 1.355 . S
C643 C645 1.415 . S
C644 C643 1.355 . S
C644 C646 1.419 . S
C645 C640 1.425 . S
C645 C642 1.409 . S
C645 C643 1.415 . S
C646 H636 0.930 . S
C646 C644 1.419 . S
C646 C647 1.362 . S
C647 H637 0.930 . S
C647 C640 1.409 . S
C647 C646 1.362 . S
H648 C654 0.930 . S
H649 C657 0.930 . S
H650 C658 0.930 . S
H651 C659 0.930 . S
H652 C662 0.930 . S
H653 C663 0.930 . S
C654 H648 0.930 . S
C654 C655 1.355 . S
C654 C656 1.415 . S
C655 C654 1.355 . S
C655 C657 1.419 . S
C656 C654 1.415 . S
C656 C661 1.425 . S
C656 C663 1.409 . S
C657 H649 0.930 . S
C657 C655 1.419 . S
C657 C658 1.362 . S
C658 H650 0.930 . S
C658 C657 1.362 . S
C658 C661 1.409 . S
C659 H651 0.930 . S
C659 C660 1.355 . S
C659 C661 1.415 . S
C660 C659 1.355 . S
C660 C662 1.419 . S
C661 C656 1.425 . S
C661 C658 1.409 . S
C661 C659 1.415 . S
C662 H652 0.930 . S
C662 C660 1.419 . S
C662 C663 1.362 . S
C663 H653 0.930 . S
C663 C656 1.409 . S
C663 C662 1.362 . S
H664 C670 0.930 . S
H665 C673 0.930 . S
H666 C674 0.930 . S
H667 C675 0.930 . S
H668 C678 0.930 . S
H669 C679 0.930 . S
C670 H664 0.930 . S
C670 C671 1.355 . S
C670 C672 1.415 . S
C671 C670 1.355 . S
C671 C673 1.419 . S
C672 C670 1.415 . S
C672 C677 1.425 . S
C672 C679 1.409 . S
C673 H665 0.930 . S
C673 C671 1.419 . S
C673 C674 1.362 . S
C674 H666 0.930 . S
C674 C673 1.362 . S
C674 C677 1.409 . S
C675 H667 0.930 . S
C675 C676 1.355 . S
C675 C677 1.415 . S
C676 C675 1.355 . S
C676 C678 1.419 . S
C677 C672 1.425 . S
C677 C674 1.409 . S
C677 C675 1.415 . S
C678 H668 0.930 . S
C678 C676 1.419 . S
C678 C679 1.362 . S
C679 H669 0.930 . S
C679 C672 1.409 . S
C679 C678 1.362 . S
H680 C686 0.930 . S
H681 C689 0.930 . S
H682 C690 0.930 . S
H683 C691 0.930 . S
H684 C694 0.930 . S
H685 C695 0.930 . S
C686 H680 0.930 . S
C686 C687 1.355 . S
C686 C688 1.415 . S
C687 C686 1.355 . S
C687 C689 1.419 . S
C688 C686 1.415 . S
C688 C693 1.425 . S
C688 C695 1.409 . S
C689 H681 0.930 . S
C689 C687 1.419 . S
C689 C690 1.362 . S
C690 H682 0.930 . S
C690 C689 1.362 . S
C690 C693 1.409 . S
C691 H683 0.930 . S
C691 C692 1.355 . S
C691 C693 1.415 . S
C692 C691 1.355 . S
C692 C694 1.419 . S
C693 C688 1.425 . S
C693 C690 1.409 . S
C693 C691 1.415 . S
C694 H684 0.930 . S
C694 C692 1.419 . S
C694 C695 1.362 . S
C695 H685 0.930 . S
C695 C688 1.409 . S
C695 C694 1.362 . S
H696 C702 0.930 . S
H697 C705 0.930 . S
H698 C706 0.930 . S
H699 C707 0.930 . S
H700 C710 0.930 . S
H701 C711 0.930 . S
C702 H696 0.930 . S
C702 C703 1.355 . S
C702 C704 1.415 . S
C703 C702 1.355 . S
C703 C705 1.419 . S
C704 C702 1.415 . S
C704 C709 1.425 . S
C704 C711 1.409 . S
C705 H697 0.930 . S
C705 C703 1.419 . S
C705 C706 1.362 . S
C706 H698 0.930 . S
C706 C705 1.362 . S
C706 C709 1.409 . S
C707 H699 0.930 . S
C707 C708 1.355 . S
C707 C709 1.415 . S
C708 C707 1.355 . S
C708 C710 1.419 . S
C709 C704 1.425 . S
C709 C706 1.409 . S
C709 C707 1.415 . S
C710 H700 0.930 . S
C710 C708 1.419 . S
C710 C711 1.362 . S
C711 H701 0.930 . S
C711 C704 1.409 . S
C711 C710 1.362 . S
H712 C718 0.930 . S
H713 C721 0.930 . S
H714 C722 0.930 . S
H715 C723 0.930 . S
H716 C726 0.930 . S
H717 C727 0.930 . S
C718 H712 0.930 . S
C718 C719 1.355 1_545 S
C718 C720 1.415 . S
C719 C718 1.355 1_565 S
C719 C721 1.419 . S
C720 C718 1.415 . S
C720 C725 1.425 1_545 S
C720 C727 1.409 . S
C721 H713 0.930 . S
C721 C719 1.419 . S
C721 C722 1.362 . S
C722 H714 0.930 . S
C722 C721 1.362 . S
C722 C725 1.409 . S
C723 H715 0.930 . S
C723 C724 1.355 1_565 S
C723 C725 1.415 . S
C724 C723 1.355 1_545 S
C724 C726 1.419 . S
C725 C720 1.425 1_565 S
C725 C722 1.409 . S
C725 C723 1.415 . S
C726 H716 0.930 . S
C726 C724 1.419 . S
C726 C727 1.362 . S
C727 H717 0.930 . S
C727 C720 1.409 . S
C727 C726 1.362 . S
H728 C734 0.930 . S
H729 C737 0.930 . S
H730 C738 0.930 . S
H731 C739 0.930 . S
H732 C742 0.930 . S
H733 C743 0.930 . S
C734 H728 0.930 . S
C734 C735 1.355 . S
C734 C736 1.415 . S
C735 C734 1.355 . S
C735 C737 1.419 . S
C736 C734 1.415 . S
C736 C741 1.425 . S
C736 C743 1.409 . S
C737 H729 0.930 . S
C737 C735 1.419 . S
C737 C738 1.362 . S
C738 H730 0.930 . S
C738 C737 1.362 . S
C738 C741 1.409 . S
C739 H731 0.930 . S
C739 C740 1.355 . S
C739 C741 1.415 . S
C740 C739 1.355 . S
C740 C742 1.419 . S
C741 C736 1.425 . S
C741 C738 1.409 . S
C741 C739 1.415 . S
C742 H732 0.930 . S
C742 C740 1.419 . S
C742 C743 1.362 . S
C743 H733 0.930 . S
C743 C736 1.409 . S
C743 C742 1.362 . S
H744 C750 0.930 . S
H745 C753 0.936 . S
H746 C754 0.930 . S
H747 C755 0.930 . S
H748 C758 0.930 . S
H749 C759 0.930 . S
C750 H744 0.930 . S
C750 C751 1.355 . S
C750 C752 1.415 . S
C751 C750 1.355 . S
C751 C753 1.411 1_545 S
C752 C750 1.415 . S
C752 C757 1.425 1_545 S
C752 C759 1.409 . S
C753 H745 0.936 . S
C753 C751 1.411 1_565 S
C753 C754 1.366 . S
C754 H746 0.930 . S
C754 C753 1.366 . S
C754 C757 1.409 . S
C755 H747 0.930 . S
C755 C756 1.355 . S
C755 C757 1.415 . S
C756 C755 1.355 . S
C756 C758 1.419 1_565 S
C757 C752 1.425 1_565 S
C757 C754 1.409 . S
C757 C755 1.415 . S
C758 H748 0.930 . S
C758 C756 1.419 1_545 S
C758 C759 1.362 . S
C759 H749 0.930 . S
C759 C752 1.409 . S
C759 C758 1.362 . S
H760 C766 0.930 . S
H761 C769 0.930 . S
H762 C770 0.930 . S
H763 C771 0.930 . S
H764 C774 0.930 . S
H765 C775 0.930 . S
C766 H760 0.930 . S
C766 C767 1.355 . S
C766 C768 1.415 . S
C767 C766 1.355 . S
C767 C769 1.419 . S
C768 C766 1.415 . S
C768 C773 1.425 . S
C768 C775 1.409 . S
C769 H761 0.930 . S
C769 C767 1.419 . S
C769 C770 1.362 . S
C770 H762 0.930 . S
C770 C769 1.362 . S
C770 C773 1.409 . S
C771 H763 0.930 . S
C771 C772 1.355 . S
C771 C773 1.415 . S
C772 C771 1.355 . S
C772 C774 1.419 . S
C773 C768 1.425 . S
C773 C770 1.409 . S
C773 C771 1.415 . S
C774 H764 0.930 . S
C774 C772 1.419 . S
C774 C775 1.362 . S
C775 H765 0.930 . S
C775 C768 1.409 . S
C775 C774 1.362 . S
H776 C782 0.930 . S
H777 C785 0.930 . S
H778 C786 0.930 . S
H779 C787 0.930 . S
H780 C790 0.930 . S
H781 C791 0.930 . S
C782 H776 0.930 . S
C782 C783 1.348 1_556 S
C782 C784 1.415 . S
C783 C782 1.348 1_554 S
C783 C785 1.423 . S
C784 C782 1.415 . S
C784 C789 1.425 1_556 S
C784 C791 1.409 . S
C785 H777 0.930 . S
C785 C783 1.423 . S
C785 C786 1.362 . S
C786 H778 0.930 . S
C786 C785 1.362 . S
C786 C789 1.409 . S
C787 H779 0.930 . S
C787 C788 1.355 1_554 S
C787 C789 1.415 . S
C788 C787 1.355 1_556 S
C788 C790 1.419 . S
C789 C784 1.425 1_554 S
C789 C786 1.409 . S
C789 C787 1.415 . S
C790 H780 0.930 . S
C790 C788 1.419 . S
C790 C791 1.362 . S
C791 H781 0.930 . S
C791 C784 1.409 . S
C791 C790 1.362 . S
H792 C798 0.930 . S
H793 C801 0.930 . S
H794 C802 0.930 . S
H795 C803 0.930 1_554 S
H796 C806 0.930 . S
H797 C807 0.930 . S
C798 H792 0.930 . S
C798 C799 1.355 . S
C798 C800 1.415 . S
C799 C798 1.355 . S
C799 C801 1.419 1_556 S
C800 C798 1.415 . S
C800 C805 1.425 . S
C800 C807 1.409 . S
C801 H793 0.930 . S
C801 C799 1.419 1_554 S
C801 C802 1.362 . S
C802 H794 0.930 . S
C802 C801 1.362 . S
C802 C805 1.409 1_554 S
C803 H795 0.930 1_556 S
C803 C804 1.355 . S
C803 C805 1.415 . S
C804 C803 1.355 . S
C804 C806 1.419 . S
C805 C800 1.425 . S
C805 C802 1.409 1_556 S
C805 C803 1.415 . S
C806 H796 0.930 . S
C806 C804 1.419 . S
C806 C807 1.362 . S
C807 H797 0.930 . S
C807 C800 1.409 . S
C807 C806 1.362 . S
H808 C814 0.930 . S
H809 C817 0.930 . S
H810 C818 0.930 . S
H811 C819 0.930 1_556 S
H812 C822 0.930 . S
H813 C823 0.930 . S
C814 H808 0.930 . S
C814 C815 1.355 . S
C814 C816 1.415 . S
C815 C814 1.355 . S
C815 C817 1.419 1_554 S
C816 C814 1.415 . S
C816 C821 1.425 . S
C816 C823 1.409 . S
C817 H809 0.930 . S
C817 C815 1.419 1_556 S
C817 C818 1.362 . S
C818 H810 0.930 . S
C818 C817 1.362 . S
C818 C821 1.409 1_556 S
C819 H811 0.930 1_554 S
C819 C820 1.355 . S
C819 C821 1.415 . S
C820 C819 1.355 . S
C820 C822 1.419 . S
C821 C816 1.425 . S
C821 C818 1.409 1_554 S
C821 C819 1.415 . S
C822 H812 0.930 . S
C822 C820 1.419 . S
C822 C823 1.362 . S
C823 H813 0.930 . S
C823 C816 1.409 . S
C823 C822 1.362 . S
H824 C830 0.930 . S
H825 C833 0.930 . S
H826 C834 0.930 . S
H827 C835 0.930 . S
H828 C838 0.930 . S
H829 C839 0.930 . S
C830 H824 0.930 . S
C830 C831 1.355 . S
C830 C832 1.415 . S
C831 C830 1.355 . S
C831 C833 1.419 1_455 S
C832 C830 1.415 . S
C832 C837 1.425 1_455 S
C832 C839 1.409 . S
C833 H825 0.930 . S
C833 C831 1.419 1_655 S
C833 C834 1.362 . S
C834 H826 0.930 . S
C834 C833 1.362 . S
C834 C837 1.409 . S
C835 H827 0.930 . S
C835 C836 1.355 . S
C835 C837 1.415 . S
C836 C835 1.355 . S
C836 C838 1.419 1_655 S
C837 C832 1.425 1_655 S
C837 C834 1.409 . S
C837 C835 1.415 . S
C838 H828 0.930 . S
C838 C836 1.419 1_455 S
C838 C839 1.362 . S
C839 H829 0.930 . S
C839 C832 1.409 . S
C839 C838 1.362 . S
H840 C846 0.930 . S
H841 C849 0.930 . S
H842 C850 0.930 . S
H843 C851 0.930 . S
H844 C854 0.930 . S
H845 C855 0.930 . S
C846 H840 0.930 . S
C846 C847 1.355 . S
C846 C848 1.415 . S
C847 C846 1.355 . S
C847 C849 1.419 1_655 S
C848 C846 1.415 . S
C848 C853 1.425 1_655 S
C848 C855 1.409 . S
C849 H841 0.930 . S
C849 C847 1.419 1_455 S
C849 C850 1.362 . S
C850 H842 0.930 . S
C850 C849 1.362 . S
C850 C853 1.409 . S
C851 H843 0.930 . S
C851 C852 1.355 . S
C851 C853 1.415 . S
C852 C851 1.355 . S
C852 C854 1.419 1_455 S
C853 C848 1.425 1_455 S
C853 C850 1.409 . S
C853 C851 1.415 . S
C854 H844 0.930 . S
C854 C852 1.419 1_655 S
C854 C855 1.362 . S
C855 H845 0.930 . S
C855 C848 1.409 . S
C855 C854 1.362 . S
H856 C862 0.930 . S
H857 C865 0.930 . S
H858 C866 0.930 . S
H859 C867 0.930 . S
H860 C870 0.930 . S
H861 C871 0.930 . S
C862 H856 0.930 . S
C862 C863 1.355 . S
C862 C864 1.415 . S
C863 C862 1.355 . S
C863 C865 1.419 1_455 S
C864 C862 1.415 . S
C864 C869 1.450 . S
C864 C871 1.409 . S
C865 H857 0.930 . S
C865 C863 1.419 1_655 S
C865 C866 1.362 . S
C866 H858 0.930 . S
C866 C865 1.362 . S
C866 C869 1.388 1_655 S
C867 H859 0.930 . S
C867 C868 1.355 1_655 S
C867 C869 1.414 1_655 S
C868 C867 1.355 1_455 S
C868 C870 1.419 . S
C869 C864 1.450 . S
C869 C866 1.388 1_455 S
C869 C867 1.414 1_455 S
C870 H860 0.930 . S
C870 C868 1.419 . S
C870 C871 1.362 . S
C871 H861 0.930 . S
C871 C864 1.409 . S
C871 C870 1.362 . S
H872 C878 0.930 . S
H873 C881 0.930 . S
H874 C882 0.930 . S
H875 C883 0.930 . S
H876 C886 0.930 . S
H877 C887 0.930 . S
C878 H872 0.930 . S
C878 C879 1.355 . S
C878 C880 1.415 . S
C879 C878 1.355 . S
C879 C881 1.419 1_655 S
C880 C878 1.415 . S
C880 C885 1.425 1_655 S
C880 C887 1.409 . S
C881 H873 0.930 . S
C881 C879 1.419 1_455 S
C881 C882 1.362 . S
C882 H874 0.930 . S
C882 C881 1.362 . S
C882 C885 1.409 . S
C883 H875 0.930 . S
C883 C884 1.355 1_455 S
C883 C885 1.415 . S
C884 C883 1.355 1_655 S
C884 C886 1.419 . S
C885 C880 1.425 1_455 S
C885 C882 1.409 . S
C885 C883 1.415 . S
C886 H876 0.930 . S
C886 C884 1.419 . S
C886 C887 1.362 . S
C887 H877 0.930 . S
C887 C880 1.409 . S
C887 C886 1.362 . S
H888 C894 0.930 . S
H889 C897 0.930 . S
H890 C898 0.930 . S
H891 C899 0.930 . S
H892 C902 0.930 . S
H893 C903 0.930 . S
C894 H888 0.930 . S
C894 C895 1.355 1_565 S
C894 C896 1.415 1_565 S
C895 C894 1.355 1_545 S
C895 C897 1.419 . S
C896 C894 1.415 1_545 S
C896 C901 1.425 . S
C896 C903 1.409 1_545 S
C897 H889 0.930 . S
C897 C895 1.419 . S
C897 C898 1.362 . S
C898 H890 0.930 . S
C898 C897 1.362 . S
C898 C901 1.409 . S
C899 H891 0.930 . S
C899 C900 1.355 . S
C899 C901 1.415 . S
C900 C899 1.355 . S
C900 C902 1.419 1_545 S
C901 C896 1.425 . S
C901 C898 1.409 . S
C901 C899 1.415 . S
C902 H892 0.930 . S
C902 C900 1.419 1_565 S
C902 C903 1.362 . S
C903 H893 0.930 . S
C903 C896 1.409 1_565 S
C903 C902 1.362 . S
H904 C910 0.930 . S
H905 C913 0.930 . S
H906 C914 0.930 . S
H907 C915 0.930 . S
H908 C918 0.930 . S
H909 C919 0.930 . S
C910 H904 0.930 . S
C910 C911 1.355 . S
C910 C912 1.415 . S
C911 C910 1.355 . S
C911 C913 1.419 . S
C912 C910 1.415 . S
C912 C917 1.425 . S
C912 C919 1.409 . S
C913 H905 0.930 . S
C913 C911 1.419 . S
C913 C914 1.362 . S
C914 H906 0.930 . S
C914 C913 1.362 . S
C914 C917 1.409 . S
C915 H907 0.930 . S
C915 C916 1.355 . S
C915 C917 1.415 . S
C916 C915 1.355 . S
C916 C918 1.419 . S
C917 C912 1.425 . S
C917 C914 1.409 . S
C917 C915 1.415 . S
C918 H908 0.930 . S
C918 C916 1.419 . S
C918 C919 1.362 . S
C919 H909 0.930 . S
C919 C912 1.409 . S
C919 C918 1.362 . S
H920 C926 0.930 . S
H921 C929 0.930 . S
H922 C930 0.930 . S
H923 C931 0.930 1_545 S
H924 C934 0.930 . S
H925 C935 0.930 . S
C926 H920 0.930 . S
C926 C927 1.368 . S
C926 C928 1.415 . S
C927 C926 1.368 . S
C927 C929 1.405 1_565 S
C928 C926 1.415 . S
C928 C933 1.425 . S
C928 C935 1.409 . S
C929 H921 0.930 . S
C929 C927 1.405 1_545 S
C929 C930 1.362 . S
C930 H922 0.930 . S
C930 C929 1.362 . S
C930 C933 1.409 1_545 S
C931 H923 0.930 1_565 S
C931 C932 1.355 . S
C931 C933 1.415 . S
C932 C931 1.355 . S
C932 C934 1.419 . S
C933 C928 1.425 . S
C933 C930 1.409 1_565 S
C933 C931 1.415 . S
C934 H924 0.930 . S
C934 C932 1.419 . S
C934 C935 1.362 . S
C935 H925 0.930 . S
C935 C928 1.409 . S
C935 C934 1.362 . S
H936 C942 0.930 . S
H937 C945 0.930 . S
H938 C946 0.930 . S
H939 C947 0.930 . S
H940 C950 0.930 . S
H941 C951 0.930 . S
C942 H936 0.930 . S
C942 C943 1.355 . S
C942 C944 1.415 . S
C943 C942 1.355 . S
C943 C945 1.419 . S
C944 C942 1.415 . S
C944 C949 1.425 . S
C944 C951 1.409 . S
C945 H937 0.930 . S
C945 C943 1.419 . S
C945 C946 1.362 . S
C946 H938 0.930 . S
C946 C945 1.362 . S
C946 C949 1.409 . S
C947 H939 0.930 . S
C947 C948 1.355 . S
C947 C949 1.415 . S
C948 C947 1.355 . S
C948 C950 1.419 . S
C949 C944 1.425 . S
C949 C946 1.409 . S
C949 C947 1.415 . S
C950 H940 0.930 . S
C950 C948 1.419 . S
C950 C951 1.362 . S
C951 H941 0.930 . S
C951 C944 1.409 . S
C951 C950 1.362 . S
H952 C958 0.930 . S
H953 C961 0.930 . S
H954 C962 0.930 . S
H955 C963 0.930 . S
H956 C966 0.930 . S
H957 C967 0.930 . S
C958 H952 0.930 . S
C958 C959 1.355 . S
C958 C960 1.415 . S
C959 C958 1.355 . S
C959 C961 1.419 . S
C960 C958 1.415 . S
C960 C965 1.425 . S
C960 C967 1.409 . S
C961 H953 0.930 . S
C961 C959 1.419 . S
C961 C962 1.362 . S
C962 H954 0.930 . S
C962 C961 1.362 . S
C962 C965 1.409 . S
C963 H955 0.930 . S
C963 C964 1.355 . S
C963 C965 1.415 . S
C964 C963 1.355 . S
C964 C966 1.419 . S
C965 C960 1.425 . S
C965 C962 1.409 . S
C965 C963 1.415 . S
C966 H956 0.930 . S
C966 C964 1.419 . S
C966 C967 1.362 . S
C967 H957 0.930 . S
C967 C960 1.409 . S
C967 C966 1.362 . S
H968 C974 0.930 . S
H969 C977 0.930 . S
H970 C978 0.930 . S
H971 C979 0.930 . S
H972 C982 0.930 . S
H973 C983 0.930 . S
C974 H968 0.930 . S
C974 C975 1.355 . S
C974 C976 1.415 . S
C975 C974 1.355 . S
C975 C977 1.419 . S
C976 C974 1.415 . S
C976 C981 1.425 . S
C976 C983 1.409 . S
C977 H969 0.930 . S
C977 C975 1.419 . S
C977 C978 1.362 . S
C978 H970 0.930 . S
C978 C977 1.362 . S
C978 C981 1.409 . S
C979 H971 0.930 . S
C979 C980 1.355 . S
C979 C981 1.415 . S
C980 C979 1.355 . S
C980 C982 1.419 . S
C981 C976 1.425 . S
C981 C978 1.409 . S
C981 C979 1.415 . S
C982 H972 0.930 . S
C982 C980 1.419 . S
C982 C983 1.362 . S
C983 H973 0.930 . S
C983 C976 1.409 . S
C983 C982 1.362 . S
H984 C990 0.930 . S
H985 C993 0.930 . S
H986 C994 0.930 . S
H987 C995 0.930 . S
H988 C998 0.930 . S
H989 C999 0.930 . S
C990 H984 0.930 . S
C990 C991 1.355 . S
C990 C992 1.415 . S
C991 C990 1.355 . S
C991 C993 1.419 . S
C992 C990 1.415 . S
C992 C997 1.425 . S
C992 C999 1.409 . S
C993 H985 0.930 . S
C993 C991 1.419 . S
C993 C994 1.362 . S
C994 H986 0.930 . S
C994 C993 1.362 . S
C994 C997 1.409 . S
C995 H987 0.930 . S
C995 C996 1.355 . S
C995 C997 1.415 . S
C996 C995 1.355 . S
C996 C998 1.419 . S
C997 C992 1.425 . S
C997 C994 1.409 . S
C997 C995 1.415 . S
C998 H988 0.930 . S
C998 C996 1.419 . S
C998 C999 1.362 . S
C999 H989 0.930 . S
C999 C992 1.409 . S
C999 C998 1.362 . S
H1000 C1006 0.930 . S
H1001 C1009 0.930 . S
H1002 C1010 0.930 . S
H1003 C1011 0.930 . S
H1004 C1014 0.930 . S
H1005 C1015 0.930 . S
C1006 H1000 0.930 . S
C1006 C1007 1.355 . S
C1006 C1008 1.415 . S
C1007 C1006 1.355 . S
C1007 C1009 1.419 . S
C1008 C1006 1.415 . S
C1008 C1013 1.425 . S
C1008 C1015 1.409 . S
C1009 H1001 0.930 . S
C1009 C1007 1.419 . S
C1009 C1010 1.362 . S
C1010 H1002 0.930 . S
C1010 C1009 1.362 . S
C1010 C1013 1.409 . S
C1011 H1003 0.930 . S
C1011 C1012 1.355 . S
C1011 C1013 1.415 . S
C1012 C1011 1.355 . S
C1012 C1014 1.419 . S
C1013 C1008 1.425 . S
C1013 C1010 1.409 . S
C1013 C1011 1.415 . S
C1014 H1004 0.930 . S
C1014 C1012 1.419 . S
C1014 C1015 1.362 . S
C1015 H1005 0.930 . S
C1015 C1008 1.409 . S
C1015 C1014 1.362 . S
H1016 C1022 0.930 . S
H1017 C1025 0.930 . S
H1018 C1026 0.930 . S
H1019 C1027 0.930 . S
H1020 C1030 0.930 . S
H1021 C1031 0.930 . S
C1022 H1016 0.930 . S
C1022 C1023 1.355 . S
C1022 C1024 1.415 . S
C1023 C1022 1.355 . S
C1023 C1025 1.419 . S
C1024 C1022 1.415 . S
C1024 C1029 1.425 . S
C1024 C1031 1.409 . S
C1025 H1017 0.930 . S
C1025 C1023 1.419 . S
C1025 C1026 1.362 . S
C1026 H1018 0.930 . S
C1026 C1025 1.362 . S
C1026 C1029 1.409 . S
C1027 H1019 0.930 . S
C1027 C1028 1.355 . S
C1027 C1029 1.415 . S
C1028 C1027 1.355 . S
C1028 C1030 1.419 . S
C1029 C1024 1.425 . S
C1029 C1026 1.409 . S
C1029 C1027 1.415 . S
C1030 H1020 0.930 . S
C1030 C1028 1.419 . S
C1030 C1031 1.362 . S
C1031 H1021 0.930 . S
C1031 C1024 1.409 . S
C1031 C1030 1.362 . S
H1032 C1038 0.930 . S
H1033 C1041 0.930 . S
H1034 C1042 0.930 . S
H1035 C1043 0.930 . S
H1036 C1046 0.930 . S
H1037 C1047 0.930 . S
C1038 H1032 0.930 . S
C1038 C1039 1.355 . S
C1038 C1040 1.415 . S
C1039 C1038 1.355 . S
C1039 C1041 1.419 . S
C1040 C1038 1.415 . S
C1040 C1045 1.425 . S
C1040 C1047 1.409 . S
C1041 H1033 0.930 . S
C1041 C1039 1.419 . S
C1041 C1042 1.362 . S
C1042 H1034 0.930 . S
C1042 C1041 1.362 . S
C1042 C1045 1.409 . S
C1043 H1035 0.930 . S
C1043 C1044 1.355 . S
C1043 C1045 1.415 . S
C1044 C1043 1.355 . S
C1044 C1046 1.419 . S
C1045 C1040 1.425 . S
C1045 C1042 1.409 . S
C1045 C1043 1.415 . S
C1046 H1036 0.930 . S
C1046 C1044 1.419 . S
C1046 C1047 1.362 . S
C1047 H1037 0.930 . S
C1047 C1040 1.409 . S
C1047 C1046 1.362 . S
H1048 C1054 0.930 . S
H1049 C1057 0.930 . S
H1050 C1058 0.930 . S
H1051 C1059 0.930 . S
H1052 C1062 0.930 . S
H1053 C1063 0.930 . S
C1054 H1048 0.930 . S
C1054 C1055 1.355 . S
C1054 C1056 1.415 . S
C1055 C1054 1.355 . S
C1055 C1057 1.419 . S
C1056 C1054 1.415 . S
C1056 C1061 1.425 . S
C1056 C1063 1.409 . S
C1057 H1049 0.930 . S
C1057 C1055 1.419 . S
C1057 C1058 1.362 . S
C1058 H1050 0.930 . S
C1058 C1057 1.362 . S
C1058 C1061 1.409 . S
C1059 H1051 0.930 . S
C1059 C1060 1.355 . S
C1059 C1061 1.415 . S
C1060 C1059 1.355 . S
C1060 C1062 1.419 . S
C1061 C1056 1.425 . S
C1061 C1058 1.409 . S
C1061 C1059 1.415 . S
C1062 H1052 0.930 . S
C1062 C1060 1.419 . S
C1062 C1063 1.362 . S
C1063 H1053 0.930 . S
C1063 C1056 1.409 . S
C1063 C1062 1.362 . S
H1064 C1070 0.930 . S
H1065 C1073 0.930 . S
H1066 C1074 0.930 . S
H1067 C1075 0.930 . S
H1068 C1078 0.930 . S
H1069 C1079 0.930 . S
C1070 H1064 0.930 . S
C1070 C1071 1.355 . S
C1070 C1072 1.415 . S
C1071 C1070 1.355 . S
C1071 C1073 1.419 . S
C1072 C1070 1.415 . S
C1072 C1077 1.425 . S
C1072 C1079 1.409 . S
C1073 H1065 0.930 . S
C1073 C1071 1.419 . S
C1073 C1074 1.362 . S
C1074 H1066 0.930 . S
C1074 C1073 1.362 . S
C1074 C1077 1.409 . S
C1075 H1067 0.930 . S
C1075 C1076 1.355 . S
C1075 C1077 1.415 . S
C1076 C1075 1.355 . S
C1076 C1078 1.419 . S
C1077 C1072 1.425 . S
C1077 C1074 1.409 . S
C1077 C1075 1.415 . S
C1078 H1068 0.930 . S
C1078 C1076 1.419 . S
C1078 C1079 1.362 . S
C1079 H1069 0.930 . S
C1079 C1072 1.409 . S
C1079 C1078 1.362 . S
H1080 C1086 0.930 . S
H1081 C1089 0.930 . S
H1082 C1090 0.930 . S
H1083 C1091 0.930 . S
H1084 C1094 0.930 . S
H1085 C1095 0.930 . S
C1086 H1080 0.930 . S
C1086 C1087 1.355 . S
C1086 C1088 1.415 . S
C1087 C1086 1.355 . S
C1087 C1089 1.419 . S
C1088 C1086 1.415 . S
C1088 C1093 1.425 . S
C1088 C1095 1.409 . S
C1089 H1081 0.930 . S
C1089 C1087 1.419 . S
C1089 C1090 1.362 . S
C1090 H1082 0.930 . S
C1090 C1089 1.362 . S
C1090 C1093 1.409 . S
C1091 H1083 0.930 . S
C1091 C1092 1.355 . S
C1091 C1093 1.415 . S
C1092 C1091 1.355 . S
C1092 C1094 1.419 . S
C1093 C1088 1.425 . S
C1093 C1090 1.409 . S
C1093 C1091 1.415 . S
C1094 H1084 0.930 . S
C1094 C1092 1.419 . S
C1094 C1095 1.362 . S
C1095 H1085 0.930 . S
C1095 C1088 1.409 . S
C1095 C1094 1.362 . S
H1096 C1102 0.930 . S
H1097 C1105 0.930 . S
H1098 C1106 0.930 . S
H1099 C1107 0.930 . S
H1100 C1110 0.930 . S
H1101 C1111 0.930 . S
C1102 H1096 0.930 . S
C1102 C1103 1.355 . S
C1102 C1104 1.415 . S
C1103 C1102 1.355 . S
C1103 C1105 1.419 1_565 S
C1104 C1102 1.415 . S
C1104 C1109 1.425 1_565 S
C1104 C1111 1.409 . S
C1105 H1097 0.930 . S
C1105 C1103 1.419 1_545 S
C1105 C1106 1.362 . S
C1106 H1098 0.930 . S
C1106 C1105 1.362 . S
C1106 C1109 1.409 . S
C1107 H1099 0.930 . S
C1107 C1108 1.355 1_545 S
C1107 C1109 1.415 . S
C1108 C1107 1.355 1_565 S
C1108 C1110 1.419 . S
C1109 C1104 1.425 1_545 S
C1109 C1106 1.409 . S
C1109 C1107 1.415 . S
C1110 H1100 0.930 . S
C1110 C1108 1.419 . S
C1110 C1111 1.362 . S
C1111 H1101 0.930 . S
C1111 C1104 1.409 . S
C1111 C1110 1.362 . S
H1112 C1118 0.930 . S
H1113 C1121 0.930 . S
H1114 C1122 0.930 . S
H1115 C1123 0.930 . S
H1116 C1126 0.930 . S
H1117 C1127 0.930 . S
C1118 H1112 0.930 . S
C1118 C1119 1.355 . S
C1118 C1120 1.415 . S
C1119 C1118 1.355 . S
C1119 C1121 1.419 . S
C1120 C1118 1.415 . S
C1120 C1125 1.425 . S
C1120 C1127 1.409 . S
C1121 H1113 0.930 . S
C1121 C1119 1.419 . S
C1121 C1122 1.362 . S
C1122 H1114 0.930 . S
C1122 C1121 1.362 . S
C1122 C1125 1.409 . S
C1123 H1115 0.930 . S
C1123 C1124 1.355 . S
C1123 C1125 1.415 . S
C1124 C1123 1.355 . S
C1124 C1126 1.419 . S
C1125 C1120 1.425 . S
C1125 C1122 1.409 . S
C1125 C1123 1.415 . S
C1126 H1116 0.930 . S
C1126 C1124 1.419 . S
C1126 C1127 1.362 . S
C1127 H1117 0.930 . S
C1127 C1120 1.409 . S
C1127 C1126 1.362 . S
H1128 C1134 0.930 . S
H1129 C1137 0.930 . S
H1130 C1138 0.930 . S
H1131 C1139 0.930 . S
H1132 C1142 0.930 . S
H1133 C1143 0.930 1_545 S
C1134 H1128 0.930 . S
C1134 C1135 1.355 . S
C1134 C1136 1.415 . S
C1135 C1134 1.355 . S
C1135 C1137 1.419 . S
C1136 C1134 1.415 . S
C1136 C1141 1.425 . S
C1136 C1143 1.409 1_545 S
C1137 H1129 0.930 . S
C1137 C1135 1.419 . S
C1137 C1138 1.362 . S
C1138 H1130 0.930 . S
C1138 C1137 1.362 . S
C1138 C1141 1.409 . S
C1139 H1131 0.930 . S
C1139 C1140 1.355 . S
C1139 C1141 1.415 1_565 S
C1140 C1139 1.355 . S
C1140 C1142 1.419 . S
C1141 C1136 1.425 . S
C1141 C1138 1.409 . S
C1141 C1139 1.415 1_545 S
C1142 H1132 0.930 . S
C1142 C1140 1.419 . S
C1142 C1143 1.363 . S
C1143 H1133 0.930 1_565 S
C1143 C1136 1.409 1_565 S
C1143 C1142 1.363 . S
H1144 C1150 0.930 . S
H1145 C1153 0.930 . S
H1146 C1154 0.930 . S
H1147 C1155 0.930 . S
H1148 C1158 0.930 . S
H1149 C1159 0.930 . S
C1150 H1144 0.930 . S
C1150 C1151 1.355 . S
C1150 C1152 1.415 . S
C1151 C1150 1.355 . S
C1151 C1153 1.419 . S
C1152 C1150 1.415 . S
C1152 C1157 1.425 . S
C1152 C1159 1.409 . S
C1153 H1145 0.930 . S
C1153 C1151 1.419 . S
C1153 C1154 1.362 . S
C1154 H1146 0.930 . S
C1154 C1153 1.362 . S
C1154 C1157 1.409 . S
C1155 H1147 0.930 . S
C1155 C1156 1.355 . S
C1155 C1157 1.415 . S
C1156 C1155 1.355 . S
C1156 C1158 1.419 . S
C1157 C1152 1.425 . S
C1157 C1154 1.409 . S
C1157 C1155 1.415 . S
C1158 H1148 0.930 . S
C1158 C1156 1.419 . S
C1158 C1159 1.362 . S
C1159 H1149 0.930 . S
C1159 C1152 1.409 . S
C1159 C1158 1.362 . S
H1160 C1166 0.930 1_554 S
H1161 C1169 0.930 . S
H1162 C1170 0.930 . S
H1163 C1171 0.930 . S
H1164 C1174 0.930 . S
H1165 C1175 0.930 1_554 S
C1166 H1160 0.930 1_556 S
C1166 C1167 1.355 . S
C1166 C1168 1.415 . S
C1167 C1166 1.355 . S
C1167 C1169 1.419 . S
C1168 C1166 1.415 . S
C1168 C1173 1.425 . S
C1168 C1175 1.409 . S
C1169 H1161 0.930 . S
C1169 C1167 1.419 . S
C1169 C1170 1.362 . S
C1170 H1162 0.930 . S
C1170 C1169 1.362 . S
C1170 C1173 1.409 . S
C1171 H1163 0.930 . S
C1171 C1172 1.355 . S
C1171 C1173 1.415 . S
C1172 C1171 1.355 . S
C1172 C1174 1.419 . S
C1173 C1168 1.425 . S
C1173 C1170 1.409 . S
C1173 C1171 1.415 . S
C1174 H1164 0.930 . S
C1174 C1172 1.419 . S
C1174 C1175 1.362 . S
C1175 H1165 0.930 1_556 S
C1175 C1168 1.409 . S
C1175 C1174 1.362 . S
H1176 C1182 0.930 . S
H1177 C1185 0.930 . S
H1178 C1186 0.930 . S
H1179 C1187 0.930 . S
H1180 C1190 0.930 . S
H1181 C1191 0.930 . S
C1182 H1176 0.930 . S
C1182 C1183 1.355 . S
C1182 C1184 1.415 . S
C1183 C1182 1.355 . S
C1183 C1185 1.419 1_556 S
C1184 C1182 1.415 . S
C1184 C1189 1.425 . S
C1184 C1191 1.409 . S
C1185 H1177 0.930 . S
C1185 C1183 1.419 1_554 S
C1185 C1186 1.362 . S
C1186 H1178 0.930 . S
C1186 C1185 1.362 . S
C1186 C1189 1.409 1_554 S
C1187 H1179 0.930 . S
C1187 C1188 1.355 . S
C1187 C1189 1.415 . S
C1188 C1187 1.355 . S
C1188 C1190 1.419 . S
C1189 C1184 1.425 . S
C1189 C1186 1.409 1_556 S
C1189 C1187 1.415 . S
C1190 H1180 0.930 . S
C1190 C1188 1.419 . S
C1190 C1191 1.362 . S
C1191 H1181 0.930 . S
C1191 C1184 1.409 . S
C1191 C1190 1.362 . S
H1192 C1198 0.930 . S
H1193 C1201 0.930 . S
H1194 C1202 0.930 . S
H1195 C1203 0.930 . S
H1196 C1206 0.930 . S
H1197 C1207 0.930 . S
C1198 H1192 0.930 . S
C1198 C1199 1.355 . S
C1198 C1200 1.415 . S
C1199 C1198 1.355 . S
C1199 C1201 1.419 . S
C1200 C1198 1.415 . S
C1200 C1205 1.425 . S
C1200 C1207 1.409 . S
C1201 H1193 0.930 . S
C1201 C1199 1.419 . S
C1201 C1202 1.362 . S
C1202 H1194 0.930 . S
C1202 C1201 1.362 . S
C1202 C1205 1.409 . S
C1203 H1195 0.930 . S
C1203 C1204 1.355 . S
C1203 C1205 1.415 . S
C1204 C1203 1.355 . S
C1204 C1206 1.419 . S
C1205 C1200 1.425 . S
C1205 C1202 1.409 . S
C1205 C1203 1.415 . S
C1206 H1196 0.930 . S
C1206 C1204 1.419 . S
C1206 C1207 1.362 . S
C1207 H1197 0.930 . S
C1207 C1200 1.409 . S
C1207 C1206 1.362 . S
C447 C13 1.561 . S
C452 C236 1.610 . S
C468 C299 1.797 . S
C463 C1 1.801 . S
C484 C176 1.815 . S
C479 C27 1.790 . S
C495 C15 1.704 . S
C500 C210 1.679 . S
C511 C28 1.784 . S
C516 C414 1.768 1_554 S
C527 C55 1.106 . S
C532 C385 1.069 . S
C548 C308 1.925 . S
C543 C40 2.032 . S
C559 C43 1.390 . S
C564 C342 1.353 . S
C580 C231 1.900 . S
C575 C56 1.939 . S
C596 C274 1.316 . S
C591 C83 1.358 . S
C607 C96 1.910 . S
C612 C253 1.852 1_655 S
C623 C71 1.552 . S
C628 C367 1.528 . S
C644 C372 1.567 . S
C639 C99 1.578 . S
C660 C435 1.795 . S
C655 C111 1.804 . S
C671 C113 1.794 . S
C676 C346 1.818 . S
C692 C312 1.684 . S
C687 C125 1.681 . S
C703 C139 1.757 . S
C708 C278 1.736 . S
C719 C153 1.122 . S
C724 C249 1.133 . S
C740 C206 1.969 . S
C735 C127 2.060 . S
C751 C141 1.380 . S
C756 C172 1.338 . S
C772 C333 1.893 . S
C767 C84 1.916 . S
C788 C410 1.321 . S
C783 C154 1.366 . S
C799 C68 1.897 . S
C804 C389 1.837 . S
C815 C166 1.533 . S
C820 C197 1.514 . S
C836 C181 1.129 . S
C831 C0 1.120 . S
C847 C12 1.083 . S
C852 C215 1.054 . S
C868 C240 0.975 . S
C863 C14 1.040 . S
C884 C287 1.832 . S
C879 C26 1.871 . S
C895 C41 1.560 . S
C900 C168 1.527 . S
C911 C42 1.411 . S
C916 C202 1.432 . S
C932 C244 1.519 . S
C927 C29 1.597 1_565 S
C943 C54 1.042 . S
C948 C283 0.964 . S
C959 C69 1.668 . S
C964 C185 1.657 . S
C980 C265 1.702 . S
C975 C70 1.731 . S
C991 C85 1.578 . S
C996 C270 1.598 . S
C1007 C82 1.517 . S
C1012 C321 1.451 . S
C1028 C351 1.119 . S
C1023 C110 1.116 . S
C1039 C98 1.135 . S
C1044 C317 1.142 . S
C1055 C124 1.028 . S
C1060 C376 1.023 . S
C1071 C112 1.869 . S
C1076 C423 1.886 . S
C1087 C126 1.547 . S
C1092 C338 1.475 . S
C1108 C304 1.385 . S
C1103 C140 1.418 . S
C1119 C138 1.587 . S
C1124 C380 1.559 . S
C1140 C419 1.063 . S
C1135 C152 1.075 . S
C1156 C355 1.609 . S
C1151 C97 1.691 . S
C1172 C401 1.709 . S
C1167 C167 1.732 . S
C1188 C406 1.591 . S
C1183 C57 1.574 . S
C1199 C155 1.501 . S
C1204 C219 1.511 . S
