# Generated by pormake.
# Topology ocu, (6,8)-cn, num edge types: 1
# Building blocks:
#     Node 0, Type 0, BuildingBlock: BETDEL_clean_sbu_0, # of connection points: 6
#     Node 1, Type 0, BuildingBlock: BETDEL_clean_sbu_0, # of connection points: 6
#     Node 2, Type 0, BuildingBlock: BETDEL_clean_sbu_0, # of connection points: 6
#     Node 3, Type 0, BuildingBlock: BETDEL_clean_sbu_0, # of connection points: 6
#     Node 4, Type 0, BuildingBlock: BETDEL_clean_sbu_0, # of connection points: 6
#     Node 5, Type 0, BuildingBlock: BETDEL_clean_sbu_0, # of connection points: 6
#     Node 6, Type 0, BuildingBlock: BETDEL_clean_sbu_0, # of connection points: 6
#     Node 7, Type 0, BuildingBlock: BETDEL_clean_sbu_0, # of connection points: 6
#     Node 8, Type 1, BuildingBlock: GIZVER_clean_sbu_0, # of connection points: 8
#     Node 9, Type 1, BuildingBlock: GIZVER_clean_sbu_0, # of connection points: 8
#     Node 10, Type 1, BuildingBlock: GIZVER_clean_sbu_0, # of connection points: 8
#     Node 11, Type 1, BuildingBlock: GIZVER_clean_sbu_0, # of connection points: 8
#     Node 12, Type 1, BuildingBlock: GIZVER_clean_sbu_0, # of connection points: 8
#     Node 13, Type 1, BuildingBlock: GIZVER_clean_sbu_0, # of connection points: 8
#     Edge 14, Type (0, 1), BuildingBlock: EZIPEK_clean_linker_0, # of connection points: 2
#     Edge 15, Type (0, 1), BuildingBlock: EZIPEK_clean_linker_0, # of connection points: 2
#     Edge 16, Type (0, 1), BuildingBlock: EZIPEK_clean_linker_0, # of connection points: 2
#     Edge 17, Type (0, 1), BuildingBlock: EZIPEK_clean_linker_0, # of connection points: 2
#     Edge 18, Type (0, 1), BuildingBlock: EZIPEK_clean_linker_0, # of connection points: 2
#     Edge 19, Type (0, 1), BuildingBlock: EZIPEK_clean_linker_0, # of connection points: 2
#     Edge 20, Type (0, 1), BuildingBlock: EZIPEK_clean_linker_0, # of connection points: 2
#     Edge 21, Type (0, 1), BuildingBlock: EZIPEK_clean_linker_0, # of connection points: 2
#     Edge 22, Type (0, 1), BuildingBlock: EZIPEK_clean_linker_0, # of connection points: 2
#     Edge 23, Type (0, 1), BuildingBlock: EZIPEK_clean_linker_0, # of connection points: 2
#     Edge 24, Type (0, 1), BuildingBlock: EZIPEK_clean_linker_0, # of connection points: 2
#     Edge 25, Type (0, 1), BuildingBlock: EZIPEK_clean_linker_0, # of connection points: 2
#     Edge 26, Type (0, 1), BuildingBlock: EZIPEK_clean_linker_0, # of connection points: 2
#     Edge 27, Type (0, 1), BuildingBlock: EZIPEK_clean_linker_0, # of connection points: 2
#     Edge 28, Type (0, 1), BuildingBlock: EZIPEK_clean_linker_0, # of connection points: 2
#     Edge 29, Type (0, 1), BuildingBlock: EZIPEK_clean_linker_0, # of connection points: 2
#     Edge 30, Type (0, 1), BuildingBlock: EZIPEK_clean_linker_0, # of connection points: 2
#     Edge 31, Type (0, 1), BuildingBlock: EZIPEK_clean_linker_0, # of connection points: 2
#     Edge 32, Type (0, 1), BuildingBlock: EZIPEK_clean_linker_0, # of connection points: 2
#     Edge 33, Type (0, 1), BuildingBlock: EZIPEK_clean_linker_0, # of connection points: 2
#     Edge 34, Type (0, 1), BuildingBlock: EZIPEK_clean_linker_0, # of connection points: 2
#     Edge 35, Type (0, 1), BuildingBlock: EZIPEK_clean_linker_0, # of connection points: 2
#     Edge 36, Type (0, 1), BuildingBlock: EZIPEK_clean_linker_0, # of connection points: 2
#     Edge 37, Type (0, 1), BuildingBlock: EZIPEK_clean_linker_0, # of connection points: 2
#     Edge 38, Type (0, 1), BuildingBlock: EZIPEK_clean_linker_0, # of connection points: 2
#     Edge 39, Type (0, 1), BuildingBlock: EZIPEK_clean_linker_0, # of connection points: 2
#     Edge 40, Type (0, 1), BuildingBlock: EZIPEK_clean_linker_0, # of connection points: 2
#     Edge 41, Type (0, 1), BuildingBlock: EZIPEK_clean_linker_0, # of connection points: 2
#     Edge 42, Type (0, 1), BuildingBlock: EZIPEK_clean_linker_0, # of connection points: 2
#     Edge 43, Type (0, 1), BuildingBlock: EZIPEK_clean_linker_0, # of connection points: 2
#     Edge 44, Type (0, 1), BuildingBlock: EZIPEK_clean_linker_0, # of connection points: 2
#     Edge 45, Type (0, 1), BuildingBlock: EZIPEK_clean_linker_0, # of connection points: 2
#     Edge 46, Type (0, 1), BuildingBlock: EZIPEK_clean_linker_0, # of connection points: 2
#     Edge 47, Type (0, 1), BuildingBlock: EZIPEK_clean_linker_0, # of connection points: 2
#     Edge 48, Type (0, 1), BuildingBlock: EZIPEK_clean_linker_0, # of connection points: 2
#     Edge 49, Type (0, 1), BuildingBlock: EZIPEK_clean_linker_0, # of connection points: 2
#     Edge 50, Type (0, 1), BuildingBlock: EZIPEK_clean_linker_0, # of connection points: 2
#     Edge 51, Type (0, 1), BuildingBlock: EZIPEK_clean_linker_0, # of connection points: 2
#     Edge 52, Type (0, 1), BuildingBlock: EZIPEK_clean_linker_0, # of connection points: 2
#     Edge 53, Type (0, 1), BuildingBlock: EZIPEK_clean_linker_0, # of connection points: 2
#     Edge 54, Type (0, 1), BuildingBlock: EZIPEK_clean_linker_0, # of connection points: 2
#     Edge 55, Type (0, 1), BuildingBlock: EZIPEK_clean_linker_0, # of connection points: 2
#     Edge 56, Type (0, 1), BuildingBlock: EZIPEK_clean_linker_0, # of connection points: 2
#     Edge 57, Type (0, 1), BuildingBlock: EZIPEK_clean_linker_0, # of connection points: 2
#     Edge 58, Type (0, 1), BuildingBlock: EZIPEK_clean_linker_0, # of connection points: 2
#     Edge 59, Type (0, 1), BuildingBlock: EZIPEK_clean_linker_0, # of connection points: 2
#     Edge 60, Type (0, 1), BuildingBlock: EZIPEK_clean_linker_0, # of connection points: 2
#     Edge 61, Type (0, 1), BuildingBlock: EZIPEK_clean_linker_0, # of connection points: 2
# Relax obj value: 0.137
# Max RMSD: 0.263
# Mean RMSD: 0.182
data_MOF--net-ocu--node1-BETDEL_clean_sbu_0--node2-GIZVER_clean_sbu_0--edge1-EZIPEK_clean_linker_0
_symmetry_space_group_name_H-M    P1
_symmetry_Int_Tables_number       1
_symmetry_cell_setting            triclinic
loop_
_symmetry_equiv_pos_as_xyz
'x, y, z'
_cell_length_a     31.353167
_cell_length_b     33.153522
_cell_length_c     23.020786
_cell_angle_alpha  91.042005
_cell_angle_beta   92.89813
_cell_angle_gamma 110.18793
loop_
_atom_site_label
_atom_site_type_symbol
_atom_site_fract_x
_atom_site_fract_y
_atom_site_fract_z
_atom_type_partial_charge
Dy0 Dy 0.30411 0.26733 0.29574 0.0
C1 C 0.21081 0.30973 0.11885 0.0
C2 C 0.33209 0.22176 0.37767 0.0
Dy3 Dy 0.2466 0.26654 0.19428 0.0
O4 O 0.35616 0.26045 0.36284 0.0
O5 O 0.29294 0.2103 0.34951 0.0
O6 O 0.35026 0.3352 0.28487 0.0
O7 O 0.32063 0.29521 0.21069 0.0
C8 C 0.345 0.33326 0.22815 0.0
C9 C 0.20865 0.19923 0.26237 0.0
O10 O 0.28528 0.22984 0.14781 0.0
O11 O 0.3242 0.22291 0.23252 0.0
O12 O 0.19473 0.26808 0.12378 0.0
O13 O 0.24816 0.32628 0.15094 0.0
O14 O 0.20196 0.19775 0.20583 0.0
O15 O 0.23091 0.23796 0.27848 0.0
O16 O 0.26871 0.30895 0.33959 0.0
O17 O 0.22377 0.30848 0.25749 0.0
C18 C 0.31406 0.21403 0.17562 0.0
C19 C 0.23696 0.32152 0.3126 0.0
Dy20 Dy 0.80481 0.23954 0.25216 0.0
C21 C 0.67902 0.31399 0.20191 0.0
C22 C 0.86248 0.19935 0.28727 0.0
Dy23 Dy 0.74249 0.28482 0.2451 0.0
O24 O 0.84866 0.2007 0.23365 0.0
O25 O 0.84517 0.22002 0.32174 0.0
O26 O 0.78382 0.2133 0.15955 0.0
O27 O 0.73568 0.22088 0.21325 0.0
C28 C 0.74172 0.21054 0.16236 0.0
C29 C 0.8035 0.31433 0.33669 0.0
O30 O 0.69937 0.23345 0.29652 0.0
O31 O 0.75678 0.20706 0.32044 0.0
O32 O 0.70693 0.33196 0.24599 0.0
O33 O 0.68583 0.2805 0.18129 0.0
O34 O 0.76077 0.31053 0.33665 0.0
O35 O 0.81115 0.30328 0.28649 0.0
O36 O 0.84953 0.29798 0.2115 0.0
O37 O 0.79107 0.32062 0.17982 0.0
C38 C 0.71515 0.20756 0.32569 0.0
C39 C 0.83412 0.32367 0.18057 0.0
Dy40 Dy 0.74791 0.77717 0.29992 0.0
C41 C 0.82073 0.71609 0.10902 0.0
C42 C 0.71653 0.81779 0.38368 0.0
Dy43 Dy 0.79675 0.76232 0.19256 0.0
O44 O 0.69226 0.79334 0.34091 0.0
O45 O 0.75696 0.81536 0.38522 0.0
O46 O 0.67937 0.73621 0.25761 0.0
O47 O 0.73788 0.72467 0.2366 0.0
C48 C 0.69613 0.7154 0.22253 0.0
C49 C 0.8518 0.82274 0.26937 0.0
O50 O 0.75125 0.79639 0.15084 0.0
O51 O 0.74302 0.82816 0.2375 0.0
O52 O 0.83789 0.75792 0.11645 0.0
O53 O 0.78739 0.70118 0.14276 0.0
O54 O 0.86604 0.80238 0.23058 0.0
O55 O 0.80953 0.81545 0.25811 0.0
O56 O 0.78155 0.73181 0.34089 0.0
O57 O 0.81933 0.72325 0.25959 0.0
C58 C 0.73633 0.82373 0.1799 0.0
C59 C 0.81064 0.71663 0.31521 0.0
Dy60 Dy 0.29836 0.73978 0.22356 0.0
C61 C 0.21799 0.84736 0.30947 0.0
C62 C 0.33532 0.69218 0.16021 0.0
Dy63 Dy 0.24438 0.79633 0.24037 0.0
O64 O 0.34003 0.69681 0.21678 0.0
O65 O 0.31027 0.71293 0.13896 0.0
O66 O 0.33445 0.75916 0.31345 0.0
O67 O 0.31326 0.80198 0.26571 0.0
C68 C 0.32975 0.79679 0.31461 0.0
C69 C 0.21001 0.73966 0.1502 0.0
O70 O 0.29552 0.84284 0.18814 0.0
O71 O 0.3346 0.79667 0.16992 0.0
O72 O 0.20142 0.83664 0.25605 0.0
O73 O 0.24807 0.83043 0.32431 0.0
O74 O 0.20884 0.77865 0.15153 0.0
O75 O 0.22813 0.73348 0.19789 0.0
O76 O 0.2423 0.69314 0.27024 0.0
O77 O 0.21025 0.74252 0.3002 0.0
C78 C 0.32951 0.83472 0.16517 0.0
C79 C 0.21241 0.7033 0.30068 0.0
Dy80 Dy 0.30755 0.73071 0.75043 0.0
C81 C 0.2051 0.82813 0.70122 0.0
C82 C 0.35472 0.68049 0.78006 0.0
Dy83 Dy 0.2538 0.78114 0.74451 0.0
O84 O 0.35995 0.70145 0.73262 0.0
O85 O 0.32366 0.6862 0.81036 0.0
O86 O 0.29504 0.71625 0.65453 0.0
O87 O 0.24135 0.7173 0.70306 0.0
C88 C 0.25172 0.70834 0.65349 0.0
C89 C 0.30981 0.80163 0.8433 0.0
O90 O 0.20222 0.72238 0.77626 0.0
O91 O 0.25661 0.6971 0.8141 0.0
O92 O 0.20634 0.8179 0.75525 0.0
O93 O 0.23013 0.81282 0.6711 0.0
O94 O 0.26907 0.80334 0.83939 0.0
O95 O 0.31888 0.7923 0.79348 0.0
O96 O 0.36261 0.78992 0.72991 0.0
O97 O 0.31063 0.81631 0.68781 0.0
C98 C 0.21405 0.69536 0.80903 0.0
C99 C 0.35283 0.81686 0.6954 0.0
Dy100 Dy 0.25363 0.2612 0.79298 0.0
C101 C 0.33065 0.20462 0.6132 0.0
C102 C 0.21677 0.30229 0.86876 0.0
Dy103 Dy 0.30456 0.25456 0.68959 0.0
O104 O 0.19611 0.2642 0.84512 0.0
O105 O 0.25892 0.31565 0.85591 0.0
O106 O 0.20575 0.19363 0.77809 0.0
O107 O 0.23181 0.23125 0.70652 0.0
C108 C 0.20673 0.19438 0.72163 0.0
C109 C 0.35057 0.32147 0.76473 0.0
O110 O 0.2636 0.29122 0.64407 0.0
O111 O 0.23871 0.3088 0.73047 0.0
O112 O 0.34971 0.2464 0.61955 0.0
O113 O 0.29639 0.19182 0.6456 0.0
O114 O 0.35572 0.32148 0.70868 0.0
O115 O 0.325 0.28423 0.77606 0.0
O116 O 0.2933 0.22217 0.83733 0.0
O117 O 0.3292 0.21444 0.75451 0.0
C118 C 0.24159 0.31248 0.67305 0.0
C119 C 0.32179 0.207 0.81041 0.0
Dy120 Dy 0.81071 0.2277 0.72083 0.0
C121 C 0.7272 0.32755 0.84629 0.0
C122 C 0.84248 0.19022 0.63782 0.0
Dy123 Dy 0.75258 0.28034 0.76867 0.0
O124 O 0.84386 0.1813 0.69258 0.0
O125 O 0.82468 0.21952 0.62909 0.0
O126 O 0.85358 0.23953 0.80562 0.0
O127 O 0.82281 0.28277 0.77904 0.0
C128 C 0.84588 0.27455 0.82034 0.0
C129 C 0.70527 0.22416 0.68073 0.0
O130 O 0.79977 0.33095 0.71584 0.0
O131 O 0.84204 0.29107 0.67957 0.0
O132 O 0.72295 0.33057 0.79012 0.0
O133 O 0.74525 0.29891 0.86009 0.0
O134 O 0.68913 0.24986 0.70835 0.0
O135 O 0.7455 0.23312 0.70142 0.0
O136 O 0.75516 0.17556 0.75886 0.0
O137 O 0.73082 0.21972 0.81822 0.0
C138 C 0.83294 0.32719 0.68492 0.0
C139 C 0.73008 0.18112 0.80049 0.0
Dy140 Dy 0.80841 0.76157 0.78674 0.0
C141 C 0.71011 0.78836 0.59877 0.0
C142 C 0.85236 0.73181 0.87087 0.0
Dy143 Dy 0.74489 0.75631 0.68969 0.0
O144 O 0.87061 0.75168 0.82542 0.0
O145 O 0.81174 0.73315 0.87389 0.0
O146 O 0.84706 0.83189 0.77391 0.0
O147 O 0.81814 0.79118 0.70203 0.0
C148 C 0.83969 0.83008 0.71757 0.0
C149 C 0.70545 0.70239 0.77446 0.0
O150 O 0.77844 0.71304 0.64575 0.0
O151 O 0.82813 0.71641 0.72523 0.0
O152 O 0.69238 0.74895 0.61579 0.0
O153 O 0.74775 0.80778 0.62932 0.0
O154 O 0.68419 0.72059 0.73991 0.0
O155 O 0.7452 0.7105 0.75742 0.0
O156 O 0.76695 0.79631 0.83222 0.0
O157 O 0.72922 0.80504 0.74893 0.0
C158 C 0.81231 0.70233 0.67097 0.0
C159 C 0.73831 0.81272 0.80585 0.0
Co160 Co 0.08161 0.94361 0.48314 0.0
Co161 Co 0.07652 0.97435 0.58508 0.0
Co162 Co 0.02927 0.01325 0.49274 0.0
O163 O 0.08028 0.99556 0.51243 0.0
H164 H 0.10893 0.01878 0.51003 0.0
O165 O 0.97835 0.03061 0.47272 0.0
Co166 Co 0.97685 0.08467 0.4932 0.0
Co167 Co 0.98505 0.04533 0.39518 0.0
H168 H 0.94957 1.00768 0.47614 0.0
O169 O 0.12765 0.97783 0.62677 0.0
O170 O 0.0831 0.92313 0.56485 0.0
O171 O 1.02125 0.96122 0.62396 0.0
O172 O 0.98402 0.96749 0.54196 0.0
O173 O 0.04926 0.05356 0.56134 0.0
O174 O 0.96817 0.1328 0.5106 0.0
O175 O 0.91716 0.06838 0.48103 0.0
O176 O 0.04189 0.10901 0.51574 0.0
O177 O 0.07377 0.05939 0.44325 0.0
O178 O 0.03928 0.05067 0.35577 0.0
O179 O 0.98386 0.09954 0.40935 0.0
O180 O 0.93755 0.04523 0.34861 0.0
C181 C 0.13085 0.92458 0.45875 0.0
C182 C 0.99749 0.93294 0.4294 0.0
C183 C 0.9843 0.95345 0.59384 0.0
C184 C 0.11635 0.93885 0.605 0.0
C185 C 0.92612 0.10785 0.49931 0.0
C186 C 0.06162 0.09382 0.5552 0.0
C187 C 0.07502 0.06616 0.38834 0.0
C188 C 0.95096 0.08478 0.3687 0.0
O189 O 0.08913 0.89798 0.45465 0.0
O190 O 0.14179 0.96193 0.4854 0.0
O191 O 1.00961 0.9732 0.42382 0.0
O192 O 1.01602 0.91817 0.47067 0.0
Co193 Co 0.57741 0.93004 0.95394 0.0
Co194 Co 0.58709 0.96097 0.05921 0.0
Co195 Co 0.52621 0.01177 0.98785 0.0
O196 O 0.57812 0.98566 0.98968 0.0
H197 H 0.60663 1.00751 0.98176 0.0
O198 O 0.47542 0.04054 0.98476 0.0
Co199 Co 0.47144 0.09287 0.03185 0.0
Co200 Co 0.48736 0.0828 0.92792 0.0
H201 H 0.44552 0.01934 0.97635 0.0
O202 O 0.64434 0.96282 0.08891 0.0
O203 O 0.59365 0.90926 0.03306 0.0
O204 O 0.53537 0.94612 0.10589 0.0
O205 O 0.49515 0.98034 0.05678 0.0
O206 O 0.56676 0.06133 0.03804 0.0
O207 O 0.46423 0.13718 0.07472 0.0
O208 O 0.40783 0.08043 0.03523 0.0
O209 O 0.53739 0.11476 0.04088 0.0
O210 O 0.55669 0.03984 0.91706 0.0
O211 O 0.55093 0.10416 0.90726 0.0
O212 O 0.46877 0.12627 0.95841 0.0
O213 O 0.43905 0.08423 0.87771 0.0
C214 C 0.62458 0.90368 0.91551 0.0
C215 C 0.47956 0.92104 0.94447 0.0
C216 C 0.49917 0.95445 0.09554 0.0
C217 C 0.63183 0.92404 0.06627 0.0
C218 C 0.42074 0.11735 0.06531 0.0
C219 C 0.57027 0.10042 0.04955 0.0
C220 C 0.57402 0.07934 0.90541 0.0
C221 C 0.43957 0.11579 0.91238 0.0
O222 O 0.5816 0.88108 0.9186 0.0
O223 O 0.63836 0.94364 0.93617 0.0
O224 O 0.48558 0.96108 0.93814 0.0
O225 O 0.51183 0.90777 0.96283 0.0
Co226 Co 0.0646 0.43093 0.96908 0.0
Co227 Co 0.07909 0.47035 0.07259 0.0
Co228 Co 1.01995 0.509 0.99087 0.0
O229 O 0.07202 0.48768 -0.00283 0.0
H230 H 0.10018 0.50865 0.98612 0.0
O231 O 0.96765 0.53024 0.98329 0.0
Co232 Co 0.96963 0.58346 0.01944 0.0
Co233 Co 0.96319 0.55415 0.91025 0.0
H234 H 0.93923 0.50749 0.98923 0.0
O235 O 0.13462 0.46862 0.10161 0.0
O236 O 0.07881 0.41665 0.0494 0.0
O237 O 0.02839 0.45881 0.12146 0.0
O238 O 0.98336 0.46951 0.04994 0.0
O239 O 0.05358 0.55413 0.05268 0.0
O240 O 0.96576 0.63028 0.05225 0.0
O241 O 0.90892 0.56841 0.02821 0.0
O242 O 0.03366 0.60695 0.01713 0.0
O243 O 0.05681 0.54881 0.93266 0.0
O244 O 1.01583 0.56956 0.86553 0.0
O245 O 0.9633 0.60562 0.94288 0.0
O246 O 0.91084 0.56282 0.87845 0.0
C247 C 0.10524 0.39969 0.93939 0.0
C248 C 0.97742 0.42349 0.94173 0.0
C249 C 0.98923 0.45439 0.09902 0.0
C250 C 0.11837 0.43009 0.07806 0.0
C251 C 0.92272 0.60725 0.05184 0.0
C252 C 0.06212 0.59412 0.04513 0.0
C253 C 0.0535 0.56886 0.88698 0.0
C254 C 0.92655 0.59825 0.90992 0.0
O255 O 0.06185 0.37979 0.94189 0.0
O256 O 0.12284 0.44075 0.95366 0.0
O257 O 0.98704 0.46304 0.92968 0.0
O258 O 1.00188 0.41282 0.97969 0.0
Co259 Co 0.57866 0.43697 0.98172 0.0
Co260 Co 0.57591 0.47211 0.08389 0.0
Co261 Co 0.53152 0.51139 -0.00393 0.0
O262 O 0.58091 0.49076 0.00952 0.0
H263 H 0.61035 0.51264 0.00583 0.0
O264 O 0.48177 0.53132 0.98301 0.0
Co265 Co 0.48328 0.58473 0.01 0.0
Co266 Co 0.48747 0.55069 0.9104 0.0
H267 H 0.45245 0.50892 0.98519 0.0
O268 O 0.62477 0.4707 0.12429 0.0
O269 O 0.57421 0.41838 0.06345 0.0
O270 O 0.52386 0.46579 0.12813 0.0
O271 O 0.48609 0.46569 0.0448 0.0
O272 O 0.55591 0.55192 0.06492 0.0
O273 O 0.47851 0.63321 0.03597 0.0
O274 O 0.42283 0.57012 0.01012 0.0
O275 O 0.54856 0.60659 0.01868 0.0
O276 O 0.57735 0.55588 0.94726 0.0
O277 O 0.53968 0.55892 0.86594 0.0
O278 O 0.48181 0.60166 0.92719 0.0
O279 O 0.4373 0.54255 0.87003 0.0
C280 C 0.62642 0.41177 0.96459 0.0
C281 C 0.49552 0.4327 0.92689 0.0
C282 C 0.48666 0.45514 0.09822 0.0
C283 C 0.60754 0.43136 0.10352 0.0
C284 C 0.43582 0.60892 0.03327 0.0
C285 C 0.57104 0.59205 0.05552 0.0
C286 C 0.57729 0.56617 0.89398 0.0
C287 C 0.4491 0.58276 0.88736 0.0
O288 O 0.5835 0.38874 0.95601 0.0
O289 O 0.63866 0.4502 0.98857 0.0
O290 O 0.50758 0.47326 0.92539 0.0
O291 O 0.51353 0.41584 0.96598 0.0
Co292 Co 0.11459 0.4654 0.52355 0.0
Co293 Co 0.08282 0.45951 0.41698 0.0
Co294 Co 1.02649 0.51385 0.49086 0.0
O295 O 0.05447 0.46427 0.48635 0.0
H296 H 0.03168 0.43667 0.49232 0.0
O297 O 0.99793 0.5635 0.49562 0.0
Co298 Co 0.93976 0.5653 0.45338 0.0
Co299 Co 0.96157 0.5623 0.55946 0.0
H300 H 1.02159 0.59139 0.49512 0.0
O301 O 0.08563 0.40741 0.38457 0.0
O302 O 0.13877 0.4543 0.44526 0.0
O303 O 0.09753 0.51097 0.37336 0.0
O304 O 0.06354 0.54747 0.4266 0.0
O305 O 0.97456 0.47971 0.43566 0.0
O306 O 0.89042 0.57021 0.41336 0.0
O307 O 0.95325 0.62427 0.44515 0.0
O308 O 0.91665 0.50354 0.45204 0.0
O309 O 0.99143 0.47982 0.55608 0.0
O310 O 0.94218 0.50738 0.59302 0.0
O311 O 0.90901 0.57156 0.52893 0.0
O312 O 0.95866 0.61196 0.59904 0.0
C313 C 0.14464 0.4213 0.5616 0.0
C314 C 0.12089 0.55529 0.5387 0.0
C315 C 0.09033 0.5453 0.38717 0.0
C316 C 0.12609 0.41963 0.41026 0.0
C317 C 0.91212 0.61137 0.41923 0.0
C318 C 0.93186 0.47393 0.43643 0.0
C319 C 0.95808 0.47719 0.58745 0.0
C320 C 0.92004 0.60305 0.56925 0.0
O321 O 0.16707 0.46239 0.56005 0.0
O322 O 0.10232 0.40743 0.53959 0.0
O323 O 0.07853 0.54773 0.54591 0.0
O324 O 0.136 0.52724 0.51666 0.0
Co325 Co 0.60412 0.96254 0.54884 0.0
Co326 Co 0.61115 0.99302 0.45117 0.0
Co327 Co 0.52565 1.00871 0.49722 0.0
O328 O 0.5609 0.96978 0.4906 0.0
H329 H 0.54263 0.94257 0.47181 0.0
O330 O 0.49141 0.04818 0.50408 0.0
Co331 Co 0.44119 0.05036 0.45741 0.0
Co332 Co 0.45288 0.03859 0.56093 0.0
H333 H 0.51254 0.07715 0.51089 0.0
O334 O 0.6218 0.95887 0.39569 0.0
O335 O 0.65128 0.9737 0.48945 0.0
O336 O 0.62644 0.0523 0.44202 0.0
O337 O 0.55294 0.04385 0.42941 0.0
O338 O 0.47687 0.96676 0.44517 0.0
O339 O 0.39709 0.06007 0.4154 0.0
O340 O 0.46002 0.10776 0.45948 0.0
O341 O 0.41608 0.98784 0.44679 0.0
O342 O 0.50077 0.97343 0.56551 0.0
O343 O 0.43813 0.98439 0.59266 0.0
O344 O 0.40424 0.04885 0.52767 0.0
O345 O 0.45154 0.08437 0.60332 0.0
C346 C 0.62354 0.91198 0.57148 0.0
C347 C 0.61111 0.0545 0.57271 0.0
C348 C 0.59506 0.06674 0.42769 0.0
C349 C 0.64647 0.95244 0.43934 0.0
C350 C 0.42154 0.1 0.43 0.0
C351 C 0.43429 0.95949 0.43598 0.0
C352 C 0.46422 0.9626 0.59229 0.0
C353 C 0.41386 0.07693 0.57158 0.0
O354 O 0.64148 0.94882 0.59992 0.0
O355 O 0.58956 0.90637 0.53353 0.0
O356 O 0.5728 0.05085 0.54843 0.0
O357 O 0.62644 0.02342 0.57314 0.0
C358 C 0.16685 0.11918 0.28139 0.0
C359 C 0.1826 0.16333 0.30144 0.0
C360 C 0.1303 0.14278 0.38052 0.0
C361 C 0.11554 0.09871 0.3625 0.0
N362 N 0.12755 0.04395 0.30265 0.0
N363 N 0.19321 0.20957 0.38793 0.0
C364 C 0.13631 0.08663 0.31496 0.0
C365 C 0.16903 0.17279 0.35667 0.0
N366 N 0.18118 0.10796 0.23053 0.0
N367 N 0.10531 0.15723 0.41685 0.0
H368 H 0.22456 0.23026 0.3764 0.0
H369 H 0.18568 0.21552 0.43017 0.0
H370 H 0.07362 0.1375 0.42867 0.0
H371 H 0.11281 0.18976 0.42752 0.0
H372 H 0.16625 0.07796 0.20937 0.0
H373 H 0.20753 0.12895 0.20855 0.0
H374 H 0.14471 0.03256 0.27246 0.0
H375 H 0.10587 0.01975 0.32669 0.0
C376 C 0.8597 0.13264 0.33557 0.0
C377 C 0.88526 0.17007 0.30711 0.0
C378 C 0.95382 0.15117 0.31787 0.0
C379 C 0.928 0.1132 0.3454 0.0
N380 N 0.85503 0.06354 0.3719 0.0
N381 N 0.9539 0.21375 0.26455 0.0
C382 C 0.88053 0.10258 0.35164 0.0
C383 C 0.93158 0.179 0.29621 0.0
N384 N 0.81555 0.12602 0.34786 0.0
N385 N 0.9995 0.16052 0.31262 0.0
H386 H 0.93908 0.23584 0.25026 0.0
H387 H 0.98621 0.21984 0.24965 0.0
H388 H 1.01627 0.13907 0.32274 0.0
H389 H 1.02147 0.19002 0.29995 0.0
H390 H 0.79759 0.10334 0.37661 0.0
H391 H 0.7971 0.14464 0.33185 0.0
H392 H 0.81961 0.05185 0.36994 0.0
H393 H 0.8685 0.04097 0.38755 0.0
C394 C 0.9227 0.88769 0.29 0.0
C395 C 0.88443 0.85575 0.31171 0.0
C396 C 0.91892 0.87665 0.41155 0.0
C397 C 0.95947 0.90454 0.38926 0.0
N398 N 1.00252 0.93172 0.30564 0.0
N399 N 0.84969 0.81672 0.39382 0.0
C400 C 0.96196 0.90892 0.32795 0.0
C401 C 0.88353 0.84976 0.37272 0.0
N402 N 0.9211 0.89839 0.2331 0.0
N403 N 0.91302 0.87675 0.46988 0.0
H404 H 0.82197 0.79965 0.36706 0.0
H405 H 0.85028 0.80566 0.43586 0.0
H406 H 0.93823 0.89482 0.50013 0.0
H407 H 0.8819 0.86153 0.48785 0.0
H408 H 0.94596 0.92419 0.21567 0.0
H409 H 0.89242 0.88421 0.20488 0.0
H410 H 1.00775 0.93258 0.2613 0.0
H411 H 0.03238 0.94631 0.33162 0.0
C412 C 0.18121 0.84845 0.40114 0.0
C413 C 0.20095 0.87017 0.35139 0.0
C414 C 0.18483 0.93385 0.38085 0.0
C415 C 0.16485 0.91187 0.4305 0.0
N416 N 0.15536 0.85458 0.4968 0.0
N417 N 0.23332 0.93616 0.30146 0.0
C418 C 0.16738 0.87137 0.44383 0.0
C419 C 0.20668 0.91385 0.34366 0.0
N420 N 0.17269 0.80528 0.40568 0.0
N421 N 0.18012 0.97207 0.3668 0.0
H422 H 0.24952 0.92211 0.27303 0.0
H423 H 0.24257 0.96933 0.29797 0.0
H424 H 0.165 0.98854 0.39302 0.0
H425 H 0.18892 0.98638 0.32716 0.0
H426 H 0.154 0.7871 0.43821 0.0
H427 H 0.18041 0.78649 0.37401 0.0
H428 H 0.161 0.8272 0.5115 0.0
H429 H 0.14346 0.87044 0.52809 0.0
C430 C 0.20914 0.89656 0.65578 0.0
C431 C 0.18243 0.85682 0.67816 0.0
C432 C 0.11344 0.87381 0.65944 0.0
C433 C 0.13927 0.91095 0.63057 0.0
N434 N 0.21099 0.9561 0.59567 0.0
N435 N 0.109 0.80409 0.694 0.0
C436 C 0.18701 0.92207 0.62736 0.0
C437 C 0.13449 0.84438 0.67803 0.0
N438 N 0.25559 0.91077 0.66389 0.0
N439 N 0.0696 0.86792 0.67201 0.0
H440 H 0.12331 0.78159 0.70815 0.0
H441 H 0.07361 0.79171 0.68852 0.0
H442 H 0.05403 0.89032 0.66223 0.0
H443 H 0.05047 0.84343 0.69766 0.0
H444 H 0.27656 0.94155 0.65413 0.0
H445 H 0.27319 0.89333 0.68545 0.0
H446 H 0.24458 0.96219 0.5855 0.0
H447 H 0.19651 0.97665 0.57576 0.0
C448 C 0.1238 0.17044 0.6835 0.0
C449 C 0.1676 0.16636 0.68305 0.0
C450 C 0.1435 0.12094 0.59436 0.0
C451 C 0.09885 0.12258 0.59584 0.0
N452 N 0.04426 0.14326 0.6476 0.0
N453 N 0.21164 0.12446 0.65135 0.0
C454 C 0.08835 0.14588 0.64207 0.0
C455 C 0.17525 0.13769 0.64238 0.0
N456 N 0.11596 0.19768 0.72337 0.0
N457 N 0.15655 0.1052 0.54595 0.0
H458 H 0.23315 0.13342 0.68907 0.0
H459 H 0.21689 0.10071 0.62537 0.0
H460 H 0.13562 0.09637 0.50817 0.0
H461 H 0.18985 0.10649 0.54094 0.0
H462 H 0.08675 0.20589 0.72194 0.0
H463 H 0.13995 0.21446 0.75614 0.0
H464 H 0.03319 0.15516 0.68381 0.0
H465 H 1.01776 0.12648 0.61753 0.0
C466 C 0.83467 0.12257 0.5834 0.0
C467 C 0.85537 0.16786 0.59059 0.0
C468 C 0.90056 0.16957 0.50756 0.0
C469 C 0.88959 0.12473 0.51125 0.0
N470 N 0.83633 0.05654 0.53831 0.0
N471 N 0.90636 0.23571 0.55827 0.0
C472 C 0.85279 0.10039 0.54383 0.0
C473 C 0.88679 0.19196 0.55116 0.0
N474 N 0.79719 0.10132 0.61315 0.0
N475 N 0.92577 0.19048 0.46353 0.0
H476 H 0.89861 0.25363 0.59111 0.0
H477 H 0.93307 0.25417 0.53437 0.0
H478 H 0.93729 0.17413 0.43243 0.0
H479 H 0.93146 0.22258 0.45484 0.0
H480 H 0.77824 0.06877 0.60677 0.0
H481 H 0.78236 0.11705 0.64113 0.0
H482 H 0.81511 0.03661 0.5673 0.0
H483 H 0.84263 0.03986 0.50296 0.0
C484 C 0.91288 0.85079 0.66466 0.0
C485 C 0.87383 0.86018 0.6798 0.0
C486 C 0.90439 0.93013 0.63231 0.0
C487 C 0.94282 0.92008 0.6164 0.0
N488 N 0.97449 0.86444 0.6002 0.0
N489 N 0.8271 0.90369 0.66408 0.0
C490 C 0.94421 0.87844 0.62743 0.0
C491 C 0.868 0.8984 0.65936 0.0
N492 N 0.92124 0.81624 0.68737 0.0
N493 N 0.90318 0.97031 0.62319 0.0
H494 H 0.7998 0.88011 0.68105 0.0
H495 H 0.81885 0.92873 0.64574 0.0
H496 H 0.92853 0.99358 0.60222 0.0
H497 H 0.87861 0.98136 0.63935 0.0
H498 H 0.95174 0.81078 0.68306 0.0
H499 H 0.89953 0.79498 0.71471 0.0
H500 H 0.97389 0.83284 0.6012 0.0
H501 H 0.99696 0.88322 0.57138 0.0
C502 C 0.33313 0.14472 0.15984 0.0
C503 C 0.33775 0.18731 0.14293 0.0
C504 C 0.39108 0.18087 0.06906 0.0
C505 C 0.38779 0.13887 0.08745 0.0
N506 N 0.35807 0.0826 0.15435 0.0
N507 N 0.36626 0.24294 0.0743 0.0
C508 C 0.3588 0.12112 0.1333 0.0
C509 C 0.36516 0.20428 0.09527 0.0
N510 N 0.30239 0.12587 0.19993 0.0
N511 N 0.42087 0.19946 0.02777 0.0
H512 H 0.35121 0.26263 0.09424 0.0
H513 H 0.37994 0.25494 0.03533 0.0
H514 H 0.43836 0.18314 0.00543 0.0
H515 H 0.43035 0.23161 0.01726 0.0
H516 H 0.29154 0.09325 0.20821 0.0
H517 H 0.28482 0.14225 0.22213 0.0
H518 H 0.3426 0.06967 0.19195 0.0
H519 H 0.37535 0.06426 0.13581 0.0
C520 C 0.87925 0.40233 0.17442 0.0
C521 C 0.86774 0.3592 0.15272 0.0
C522 C 0.93873 0.37802 0.10502 0.0
C523 C 0.94903 0.42196 0.12203 0.0
N524 N 0.92552 0.47729 0.16452 0.0
N525 N 0.87969 0.30903 0.08448 0.0
C526 C 0.91795 0.43465 0.1538 0.0
C527 C 0.89524 0.34818 0.11354 0.0
N528 N 0.85511 0.41203 0.21697 0.0
N529 N 0.97106 0.36417 0.08319 0.0
H530 H 0.8473 0.28663 0.08952 0.0
H531 H 0.89674 0.30096 0.05093 0.0
H532 H 1.00426 0.38448 0.07999 0.0
H533 H 0.96636 0.33185 0.07506 0.0
H534 H 0.8654 0.44184 0.23909 0.0
H535 H 0.82651 0.38945 0.23323 0.0
H536 H 0.90161 0.48852 0.18226 0.0
H537 H 0.95461 0.50157 0.1521 0.0
C538 C 0.72423 0.8718 0.09761 0.0
C539 C 0.70888 0.84858 0.14874 0.0
C540 C 0.64069 0.87169 0.14124 0.0
C541 C 0.6562 0.8947 0.09045 0.0
N542 N 0.71748 0.92386 0.02751 0.0
N543 N 0.64815 0.82304 0.21504 0.0
C544 C 0.69907 0.89631 0.07036 0.0
C545 C 0.66617 0.84809 0.16962 0.0
N546 N 0.76343 0.87103 0.07505 0.0
N547 N 0.60243 0.87443 0.16464 0.0
H548 H 0.66449 0.80555 0.23818 0.0
H549 H 0.61492 0.81597 0.22714 0.0
H550 H 0.58134 0.8888 0.14385 0.0
H551 H 0.59277 0.86517 0.20629 0.0
H552 H 0.77288 0.88085 0.03348 0.0
H553 H 0.78605 0.85898 0.09696 0.0
H554 H 0.75045 0.93079 0.01448 0.0
H555 H 0.70084 0.94269 0.00762 0.0
C556 C 0.12777 0.69115 0.14241 0.0
C557 C 0.172 0.7034 0.12062 0.0
C558 C 0.14558 0.64053 0.05209 0.0
C559 C 0.10205 0.62765 0.07574 0.0
N560 N 0.05433 0.63525 0.1506 0.0
N561 N 0.22357 0.69118 0.05454 0.0
C562 C 0.09397 0.65152 0.12288 0.0
C563 C 0.18105 0.67834 0.07539 0.0
N564 N 0.11737 0.71799 0.1805 0.0
N565 N 0.15253 0.61691 0.00668 0.0
H566 H 0.24841 0.72077 0.06671 0.0
H567 H 0.23471 0.67296 0.02576 0.0
H568 H 0.12855 0.58755 0.99225 0.0
H569 H 0.18135 0.62611 0.98271 0.0
H570 H 0.08424 0.71391 0.19096 0.0
H571 H 0.1411 0.74617 0.19903 0.0
H572 H 0.04815 0.64847 0.18925 0.0
H573 H 0.02914 0.60592 0.13803 0.0
C574 C 0.38859 0.81692 0.88466 0.0
C575 C 0.34806 0.82647 0.88636 0.0
C576 C 0.39232 0.89357 0.94129 0.0
C577 C 0.4338 0.8882 0.92607 0.0
N578 N 0.46857 0.84654 0.87004 0.0
N579 N 0.3106 0.87339 0.92344 0.0
C580 C 0.43124 0.85014 0.8946 0.0
C581 C 0.34953 0.86456 0.91704 0.0
N582 N 0.38611 0.77567 0.87373 0.0
N583 N 0.39332 0.92477 0.98134 0.0
H584 H 0.27826 0.85033 0.91693 0.0
H585 H 0.31061 0.90375 0.93599 0.0
H586 H 0.42328 0.94545 0.00177 0.0
H587 H 0.36434 0.92714 -0.00091 0.0
H588 H 0.4146 0.76622 0.87554 0.0
H589 H 0.35481 0.7507 0.87144 0.0
H590 H 0.46686 0.82031 0.84313 0.0
H591 H 0.49946 0.87193 0.86975 0.0
C592 C 0.15842 0.3119 0.9321 0.0
C593 C 0.19237 0.32969 0.89213 0.0
C594 C 0.16624 0.39113 0.87985 0.0
C595 C 0.1345 0.375 0.92269 0.0
N596 N 0.10154 0.32115 0.9931 0.0
N597 N 0.23283 0.38997 0.83346 0.0
C598 C 0.13049 0.33541 0.94934 0.0
C599 C 0.19797 0.37057 0.86825 0.0
N600 N 0.1535 0.27262 0.95435 0.0
N601 N 0.16345 0.4239 0.84621 0.0
H602 H 0.25428 0.37556 0.81653 0.0
H603 H 0.24242 0.42234 0.82366 0.0
H604 H 0.13911 0.43846 0.85076 0.0
H605 H 0.18166 0.4335 0.80925 0.0
H606 H 0.12561 0.25436 0.97646 0.0
H607 H 0.17711 0.25725 0.94934 0.0
H608 H 0.09965 0.2947 0.01773 0.0
H609 H 0.08136 0.33743 0.00907 0.0
C610 C 0.66522 0.10924 0.79498 0.0
C611 C 0.69852 0.14343 0.82845 0.0
C612 C 0.65832 0.11695 0.91515 0.0
C613 C 0.6189 0.09457 0.87955 0.0
N614 N 0.58722 0.05814 0.788 0.0
N615 N 0.73118 0.17422 0.92327 0.0
C616 C 0.62316 0.0868 0.81998 0.0
C617 C 0.69652 0.1454 0.88959 0.0
N618 N 0.67383 0.09781 0.74074 0.0
N619 N 0.66092 0.10753 0.97209 0.0
H620 H 0.76209 0.19227 0.90664 0.0
H621 H 0.7285 0.18072 0.96717 0.0
H622 H 0.63584 0.08176 0.98878 0.0
H623 H 0.69042 0.12023 -0.00076 0.0
H624 H 0.65288 0.07049 0.71722 0.0
H625 H 0.70434 0.11231 0.72142 0.0
H626 H 0.58771 0.05026 0.74431 0.0
H627 H 0.55632 0.04152 0.80569 0.0
C628 C 0.83929 0.65296 0.88049 0.0
C629 C 0.86637 0.69684 0.89391 0.0
C630 C 0.93285 0.67619 0.91105 0.0
C631 C 0.9052 0.63189 0.90516 0.0
N632 N 0.8289 0.57888 0.89896 0.0
N633 N 0.93576 0.74807 0.93706 0.0
C634 C 0.85738 0.62042 0.89469 0.0
C635 C 0.91189 0.70749 0.91535 0.0
N636 N 0.79771 0.64193 0.85081 0.0
N637 N 0.9787 0.68907 0.90561 0.0
H638 H 0.92094 0.77175 0.94024 0.0
H639 H 0.96835 0.75641 0.95719 0.0
H640 H 0.99432 0.66823 0.89051 0.0
H641 H 0.9996 0.7213 0.90618 0.0
H642 H 0.77996 0.61084 0.83422 0.0
H643 H 0.78243 0.66372 0.83751 0.0
H644 H 0.79354 0.57004 0.89597 0.0
H645 H 0.83986 0.55433 0.9135 0.0
C646 C 0.14492 0.33412 0.13453 0.0
C647 C 0.18346 0.33656 0.10263 0.0
C648 C 0.18378 0.40474 0.06279 0.0
C649 C 0.14243 0.39958 0.08932 0.0
N650 N 0.08159 0.35852 0.1476 0.0
N651 N 0.23675 0.37099 0.0317 0.0
C652 C 0.1223 0.36388 0.12406 0.0
C653 C 0.20217 0.37111 0.06554 0.0
N654 N 0.13178 0.30566 0.1781 0.0
N655 N 0.20565 0.44182 0.03541 0.0
H656 H 0.2503 0.34631 0.03209 0.0
H657 H 0.24899 0.39281 -0.00069 0.0
H658 H 0.19291 0.46689 0.03168 0.0
H659 H 0.23809 0.44931 0.02024 0.0
H660 H 0.10834 0.30687 0.20796 0.0
H661 H 0.14658 0.28286 0.1883 0.0
H662 H 0.06182 0.32994 0.16546 0.0
H663 H 0.06633 0.38192 0.14694 0.0
C664 C 0.15116 0.67373 0.87473 0.0
C665 C 0.17812 0.6612 0.8362 0.0
C666 C 0.1267 0.58622 0.83732 0.0
C667 C 0.09591 0.6003 0.8676 0.0
N668 N 0.07736 0.65836 0.91229 0.0
N669 N 0.1921 0.60606 0.77841 0.0
C670 C 0.10778 0.64432 0.88559 0.0
C671 C 0.16649 0.61744 0.8174 0.0
N672 N 0.16778 0.71348 0.90224 0.0
N673 N 0.11788 0.5432 0.82765 0.0
H674 H 0.22188 0.62779 0.7638 0.0
H675 H 0.18257 0.57568 0.75819 0.0
H676 H 0.08798 0.51966 0.83936 0.0
H677 H 0.14139 0.53068 0.81168 0.0
H678 H 0.15186 0.72286 0.93594 0.0
H679 H 0.20012 0.73543 0.89577 0.0
H680 H 0.08227 0.6907 0.9205 0.0
H681 H 0.04541 0.6379 0.92188 0.0
C682 C 0.3992 0.20679 0.85237 0.0
C683 C 0.35108 0.18541 0.84394 0.0
C684 C 0.36075 0.12182 0.89103 0.0
C685 C 0.40923 0.14174 0.89443 0.0
N686 N 0.47451 0.2022 0.87206 0.0
N687 N 0.28659 0.12082 0.85142 0.0
C688 C 0.4283 0.18416 0.87392 0.0
C689 C 0.33205 0.14258 0.8629 0.0
N690 N 0.41728 0.24942 0.84074 0.0
N691 N 0.34193 0.08297 0.91573 0.0
H692 H 0.26472 0.1351 0.83231 0.0
H693 H 0.27092 0.08805 0.8572 0.0
H694 H 0.36147 0.06637 0.93489 0.0
H695 H 0.30727 0.06858 0.92123 0.0
H696 H 0.45078 0.26862 0.85229 0.0
H697 H 0.39771 0.26665 0.82365 0.0
H698 H 0.49078 0.23042 0.85098 0.0
H699 H 0.49681 0.18734 0.88815 0.0
C700 C 0.87016 0.32704 0.90595 0.0
C701 C 0.8811 0.31093 0.85342 0.0
C702 C 0.95446 0.37092 0.85669 0.0
C703 C 0.94215 0.38836 0.90715 0.0
N704 N 0.8861 0.38746 0.97516 0.0
N705 N 0.9309 0.32075 0.77377 0.0
C706 C 0.89927 0.36765 0.93044 0.0
C707 C 0.92263 0.33362 0.82754 0.0
N708 N 0.83247 0.30287 0.93308 0.0
N709 N 0.99718 0.38947 0.83734 0.0
H710 H 0.91014 0.2926 0.75171 0.0
H711 H 0.9569 0.33943 0.74902 0.0
H712 H 1.02045 0.4183 0.85519 0.0
H713 H 1.01062 0.37514 0.80589 0.0
H714 H 0.82436 0.31069 0.97407 0.0
H715 H 0.81105 0.27281 0.91645 0.0
H716 H 0.8538 0.37621 0.99119 0.0
H717 H 0.90645 0.41746 0.99312 0.0
C718 C 0.69671 0.82925 0.89512 0.0
C719 C 0.71495 0.84024 0.8392 0.0
C720 C 0.68019 0.89839 0.83891 0.0
C721 C 0.65712 0.88304 0.89019 0.0
N722 N 0.6395 0.82911 0.96273 0.0
N723 N 0.72621 0.88964 0.76105 0.0
C724 C 0.66419 0.84704 0.91661 0.0
C725 C 0.70705 0.87605 0.81226 0.0
N726 N 0.71186 0.80361 0.93018 0.0
N727 N 0.67677 0.93484 0.8155 0.0
H728 H 0.75282 0.881 0.74679 0.0
H729 H 0.71612 0.90939 0.73302 0.0
H730 H 0.65559 0.95035 0.83105 0.0
H731 H 0.6965 0.9513 0.78264 0.0
H732 H 0.70348 0.79835 0.97328 0.0
H733 H 0.73772 0.79243 0.92025 0.0
H734 H 0.63789 0.79944 0.97866 0.0
H735 H 0.61797 0.84224 0.98272 0.0
C736 C 0.88622 0.69026 0.13046 0.0
C737 C 0.84771 0.68879 0.09349 0.0
C738 C 0.84736 0.62092 0.04872 0.0
C739 C 0.89111 0.62776 0.07571 0.0
N740 N 0.94674 0.66222 0.15356 0.0
N741 N 0.79244 0.65338 0.01567 0.0
C742 C 0.90883 0.66054 0.12003 0.0
C743 C 0.82856 0.65426 0.0521 0.0
N744 N 0.89956 0.71814 0.17788 0.0
N745 N 0.82185 0.58157 0.02462 0.0
H746 H 0.77814 0.67751 0.01676 0.0
H747 H 0.77949 0.63089 0.98125 0.0
H748 H 0.83192 0.55485 0.02732 0.0
H749 H 0.78798 0.57389 0.00951 0.0
H750 H 0.92327 0.71715 0.21056 0.0
H751 H 0.88503 0.74102 0.18739 0.0
H752 H 0.96657 0.68881 0.17941 0.0
H753 H 0.9585 0.63637 0.15519 0.0
C754 C 0.38826 0.91113 0.17258 0.0
C755 C 0.36817 0.87006 0.1427 0.0
C756 C 0.43767 0.88245 0.09234 0.0
C757 C 0.45629 0.92495 0.11729 0.0
N758 N 0.44499 0.98286 0.17159 0.0
N759 N 0.36828 0.82566 0.05888 0.0
C760 C 0.4299 0.94049 0.15377 0.0
C761 C 0.39114 0.85881 0.09748 0.0
N762 N 0.37019 0.92147 0.22109 0.0
N763 N 0.46412 0.86386 0.06468 0.0
H764 H 0.33339 0.8089 0.06007 0.0
H765 H 0.3828 0.81828 0.02224 0.0
H766 H 0.49905 0.87838 0.06218 0.0
H767 H 0.45207 0.83177 0.04993 0.0
H768 H 0.38614 0.94951 0.24643 0.0
H769 H 0.3419 0.901 0.2402 0.0
H770 H 0.42473 0.99703 0.19255 0.0
H771 H 0.47672 1.00445 0.16184 0.0
C772 C 0.68686 0.1372 0.13219 0.0
C773 C 0.70336 0.18185 0.12337 0.0
C774 C 0.63644 0.17241 0.05679 0.0
C775 C 0.61537 0.12986 0.07633 0.0
N776 N 0.61987 0.07462 0.14145 0.0
N777 N 0.69632 0.24222 0.07302 0.0
C778 C 0.64057 0.11296 0.11627 0.0
C779 C 0.67875 0.19956 0.08445 0.0
N780 N 0.71554 0.11774 0.15484 0.0
N781 N 0.61822 0.18595 0.00913 0.0
H782 H 0.72907 0.26161 0.0882 0.0
H783 H 0.67783 0.25857 0.05093 0.0
H784 H 0.5887 0.167 0.98559 0.0
H785 H 0.63531 0.21427 0.98893 0.0
H786 H 0.70652 0.08445 0.15636 0.0
H787 H 0.7497 0.13466 0.16675 0.0
H788 H 0.6367 0.0611 0.17105 0.0
H789 H 0.58474 0.05859 0.13804 0.0
C790 C 0.68197 0.66302 0.86797 0.0
C791 C 0.68026 0.66267 0.80614 0.0
C792 C 0.62142 0.5904 0.80365 0.0
C793 C 0.6201 0.59287 0.86547 0.0
N794 N 0.66614 0.62105 0.95438 0.0
N795 N 0.65832 0.6211 0.71592 0.0
C796 C 0.65564 0.62586 0.89724 0.0
C797 C 0.65305 0.62467 0.77419 0.0
N798 N 0.70765 0.69941 0.89904 0.0
N799 N 0.59251 0.55484 0.77336 0.0
H800 H 0.68165 0.64527 0.69364 0.0
H801 H 0.64248 0.59327 0.69027 0.0
H802 H 0.57418 0.52695 0.79402 0.0
H803 H 0.58659 0.55271 0.72835 0.0
H804 H 0.70595 0.70368 0.94371 0.0
H805 H 0.72832 0.7264 0.87904 0.0
H806 H 0.69362 0.64303 0.97845 0.0
H807 H 0.65197 0.59241 0.97543 0.0
C808 C 0.35498 0.6129 0.81888 0.0
C809 C 0.38001 0.65378 0.79876 0.0
C810 C 0.45118 0.64517 0.82955 0.0
C811 C 0.42575 0.60786 0.85826 0.0
N812 N 0.35362 0.55968 0.88892 0.0
N813 N 0.45145 0.71279 0.7929 0.0
C814 C 0.37762 0.59249 0.85534 0.0
C815 C 0.42806 0.67112 0.80573 0.0
N816 N 0.30983 0.59345 0.80242 0.0
N817 N 0.49675 0.65496 0.82317 0.0
H818 H 0.43592 0.73355 0.77599 0.0
H819 H 0.48609 0.72791 0.80391 0.0
H820 H 0.51495 0.63584 0.83835 0.0
H821 H 0.51546 0.6797 0.79751 0.0
H822 H 0.29117 0.56181 0.81177 0.0
H823 H 0.2923 0.60732 0.77414 0.0
H824 H 0.3186 0.55073 0.89257 0.0
H825 H 0.36895 0.544 0.91744 0.0
C826 C 0.38476 0.34515 0.87015 0.0
C827 C 0.38311 0.3534 0.80918 0.0
C828 C 0.45629 0.41307 0.82597 0.0
C829 C 0.45679 0.40562 0.88654 0.0
N830 N 0.41245 0.37427 0.96716 0.0
N831 N 0.40873 0.40837 0.73838 0.0
C832 C 0.41864 0.37427 0.90885 0.0
C833 C 0.4163 0.39135 0.78979 0.0
N834 N 0.35405 0.31007 0.8927 0.0
N835 N 0.49436 0.43987 0.80222 0.0
H836 H 0.37761 0.39684 0.71425 0.0
H837 H 0.43053 0.43766 0.72455 0.0
H838 H 0.52491 0.45503 0.82657 0.0
H839 H 0.49688 0.44327 0.75746 0.0
H840 H 0.35991 0.29815 0.93281 0.0
H841 H 0.32245 0.29378 0.87288 0.0
H842 H 0.38287 0.35505 0.98554 0.0
H843 H 0.4342 0.39737 -0.00371 0.0
C844 C 0.67222 0.32659 0.92077 0.0
C845 C 0.70901 0.35016 0.88799 0.0
C846 C 0.697 0.41697 0.91268 0.0
C847 C 0.6605 0.39338 0.94672 0.0
N848 N 0.62432 0.32874 -0.0015 0.0
N849 N 0.76542 0.41793 0.86726 0.0
C850 C 0.65198 0.34922 0.95613 0.0
C851 C 0.7246 0.39553 0.8892 0.0
N852 N 0.65387 0.2828 0.91467 0.0
N853 N 0.70313 0.45833 0.89811 0.0
H854 H 0.78626 0.40271 0.84978 0.0
H855 H 0.78053 0.45126 0.87198 0.0
H856 H 0.68267 0.47533 0.911 0.0
H857 H 0.72624 0.47471 0.86823 0.0
H858 H 0.62241 0.26538 0.9303 0.0
H859 H 0.66742 0.2643 0.88945 0.0
H860 H 0.62055 0.29753 0.01028 0.0
H861 H 0.60902 0.3444 0.02583 0.0
C862 C 0.68152 0.36625 0.12888 0.0
C863 C 0.65581 0.33699 0.16853 0.0
C864 C 0.59607 0.36756 0.16196 0.0
C865 C 0.62468 0.40004 0.12792 0.0
N866 N 0.69807 0.43614 0.0891 0.0
N867 N 0.58993 0.30777 0.2242 0.0
C868 C 0.66846 0.40122 0.1142 0.0
C869 C 0.61306 0.33664 0.18507 0.0
N870 N 0.71814 0.36041 0.10505 0.0
N871 N 0.55358 0.36727 0.17335 0.0
H872 H 0.60103 0.28335 0.23936 0.0
H873 H 0.56074 0.30855 0.24303 0.0
H874 H 0.54204 0.39227 0.16249 0.0
H875 H 0.52926 0.34195 0.19233 0.0
H876 H 0.73498 0.37843 0.07115 0.0
H877 H 0.72853 0.33453 0.11447 0.0
H878 H 0.73201 0.43994 0.08371 0.0
H879 H 0.69042 0.46342 0.07884 0.0
C880 C 0.64687 0.69664 0.12848 0.0
C881 C 0.669 0.68328 0.17588 0.0
C882 C 0.63687 0.60888 0.13499 0.0
C883 C 0.61278 0.62271 0.08964 0.0
N884 N 0.62001 0.68259 0.0278 0.0
N885 N 0.69151 0.62741 0.21901 0.0
C886 C 0.62541 0.66745 0.08147 0.0
C887 C 0.6662 0.63959 0.17732 0.0
N888 N 0.64528 0.73712 0.12819 0.0
N889 N 0.63287 0.56671 0.13678 0.0
H890 H 0.71063 0.64796 0.25293 0.0
H891 H 0.6953 0.59747 0.21923 0.0
H892 H 0.62313 0.54642 0.09989 0.0
H893 H 0.64157 0.55253 0.17332 0.0
H894 H 0.62573 0.74694 0.09734 0.0
H895 H 0.65969 0.75922 0.16204 0.0
H896 H 0.63222 0.71522 0.01905 0.0
H897 H 0.61031 0.66272 0.99032 0.0
C898 C 0.383 0.68944 0.07739 0.0
C899 C 0.35725 0.66871 0.12421 0.0
C900 C 0.37882 0.60559 0.10722 0.0
C901 C 0.40287 0.62566 0.0588 0.0
N902 N 0.41725 0.6808 0.98823 0.0
N903 N 0.3206 0.60325 0.17358 0.0
C904 C 0.40133 0.66567 0.04067 0.0
C905 C 0.352 0.62555 0.13605 0.0
N906 N 0.3927 0.73247 0.07025 0.0
N907 N 0.3836 0.56893 0.128 0.0
H908 H 0.29973 0.61662 0.1948 0.0
H909 H 0.3121 0.57034 0.17915 0.0
H910 H 0.40296 0.55307 0.10861 0.0
H911 H 0.37121 0.55607 0.16727 0.0
H912 H 0.41495 0.74981 0.04012 0.0
H913 H 0.38253 0.75193 0.09839 0.0
H914 H 0.41289 0.70779 0.97008 0.0
H915 H 0.4306 0.66374 0.96021 0.0
C916 C 0.41178 0.35107 0.16338 0.0
C917 C 0.37924 0.36426 0.19158 0.0
C918 C 0.41562 0.43763 0.15575 0.0
C919 C 0.44565 0.42329 0.12385 0.0
N920 N 0.46607 0.36382 0.08886 0.0
N921 N 0.34785 0.41953 0.21122 0.0
C922 C 0.4415 0.37917 0.1249 0.0
C923 C 0.3805 0.40744 0.18662 0.0
N924 N 0.41698 0.31297 0.1768 0.0
N925 N 0.42184 0.4805 0.15841 0.0
H926 H 0.32367 0.39914 0.23677 0.0
H927 H 0.34315 0.44864 0.20385 0.0
H928 H 0.44589 0.50292 0.13467 0.0
H929 H 0.40517 0.4942 0.18642 0.0
H930 H 0.44325 0.3036 0.16241 0.0
H931 H 0.39808 0.29255 0.20729 0.0
H932 H 0.46063 0.3312 0.08231 0.0
H933 H 0.48903 0.38348 0.06144 0.0
C934 C 0.8267 0.63095 0.65138 0.0
C935 C 0.83508 0.67486 0.63806 0.0
C936 C 0.89699 0.67093 0.57623 0.0
C937 C 0.88741 0.62642 0.58748 0.0
N938 N 0.83789 0.56286 0.62999 0.0
N939 N 0.87378 0.73413 0.57935 0.0
C940 C 0.85045 0.60616 0.62306 0.0
C941 C 0.86871 0.69383 0.59759 0.0
N942 N 0.7967 0.61306 0.69271 0.0
N943 N 0.93451 0.6921 0.54674 0.0
H944 H 0.85509 0.75216 0.59514 0.0
H945 H 0.8937 0.74842 0.5454 0.0
H946 H 0.95533 0.67677 0.52974 0.0
H947 H 0.947 0.72528 0.5426 0.0
H948 H 0.79274 0.58343 0.71045 0.0
H949 H 0.7774 0.62917 0.71196 0.0
H950 H 0.80868 0.54481 0.64997 0.0
H951 H 0.85497 0.54421 0.61173 0.0
C952 C 0.40837 0.84612 0.62104 0.0
C953 C 0.39 0.85215 0.67392 0.0
C954 C 0.44111 0.92651 0.68312 0.0
C955 C 0.45101 0.92313 0.6246 0.0
N956 N 0.44871 0.87967 0.53811 0.0
N957 N 0.38947 0.89658 0.75818 0.0
C958 C 0.43712 0.88267 0.59402 0.0
C959 C 0.40711 0.89173 0.70649 0.0
N960 N 0.39796 0.80565 0.59674 0.0
N961 N 0.46405 0.96333 0.71544 0.0
H962 H 0.36461 0.87158 0.77689 0.0
H963 H 0.39739 0.92593 0.78088 0.0
H964 H 0.48959 0.98894 0.69834 0.0
H965 H 0.46115 0.96683 0.75996 0.0
H966 H 0.41374 0.79869 0.56112 0.0
H967 H 0.37607 0.77829 0.61519 0.0
H968 H 0.43427 0.85241 0.51085 0.0
H969 H 0.47181 0.90504 0.51783 0.0
C970 C 0.23776 0.37091 0.60132 0.0
C971 C 0.21616 0.33887 0.64124 0.0
C972 C 0.14826 0.36194 0.63094 0.0
C973 C 0.16826 0.39133 0.58732 0.0
N974 N 0.22986 0.41673 0.52319 0.0
N975 N 0.14562 0.29799 0.68227 0.0
C976 C 0.2124 0.39372 0.57041 0.0
C977 C 0.16996 0.33289 0.65263 0.0
N978 N 0.28333 0.38141 0.59484 0.0
N979 N 0.10944 0.36298 0.65429 0.0
H980 H 0.15937 0.27528 0.69654 0.0
H981 H 0.11071 0.28903 0.68677 0.0
H982 H 0.09292 0.38395 0.64097 0.0
H983 H 0.09618 0.3461 0.69084 0.0
H984 H 0.30226 0.40765 0.57172 0.0
H985 H 0.30321 0.36653 0.61723 0.0
H986 H 0.25898 0.41565 0.50435 0.0
H987 H 0.21279 0.43335 0.49901 0.0
C988 C 0.63201 0.16112 0.65447 0.0
C989 C 0.67832 0.1842 0.64472 0.0
C990 C 0.68067 0.12306 0.58367 0.0
C991 C 0.63688 0.09766 0.60126 0.0
N992 N 0.57221 0.09187 0.65788 0.0
N993 N 0.73714 0.19476 0.57848 0.0
C994 C 0.6129 0.11672 0.63758 0.0
C995 C 0.7003 0.16713 0.60354 0.0
N996 N 0.60494 0.18203 0.67539 0.0
N997 N 0.70335 0.10539 0.54757 0.0
H998 H 0.74903 0.22777 0.58852 0.0
H999 H 0.75274 0.18641 0.54369 0.0
H1000 H 0.68979 0.07404 0.5303 0.0
H1001 H 0.73674 0.12092 0.53682 0.0
H1002 H 0.56999 0.16754 0.6786 0.0
H1003 H 0.61512 0.21527 0.68029 0.0
H1004 H 0.55556 0.10262 0.68943 0.0
H1005 H 0.55755 0.05884 0.64898 0.0
C1006 C 0.8836 0.36602 0.35378 0.0
C1007 C 0.83924 0.3485 0.37371 0.0
C1008 C 0.8584 0.40987 0.44436 0.0
C1009 C 0.89855 0.43127 0.41458 0.0
N1010 N 0.94184 0.43164 0.33007 0.0
N1011 N 0.78717 0.34964 0.44655 0.0
C1012 C 0.90919 0.40982 0.36639 0.0
C1013 C 0.82736 0.36934 0.42156 0.0
N1014 N 0.90209 0.34056 0.3245 0.0
N1015 N 0.85105 0.42676 0.49597 0.0
H1016 H 0.76865 0.31697 0.43932 0.0
H1017 H 0.77249 0.36528 0.47469 0.0
H1018 H 0.8735 0.4549 0.51614 0.0
H1019 H 0.82487 0.41096 0.52233 0.0
H1020 H 0.93557 0.35168 0.31201 0.0
H1021 H 0.88618 0.30726 0.32067 0.0
H1022 H 0.94783 0.41751 0.29191 0.0
H1023 H 0.95844 0.46485 0.33358 0.0
C1024 C 0.73204 0.89654 0.41328 0.0
C1025 C 0.70298 0.85234 0.41102 0.0
C1026 C 0.63728 0.87452 0.42574 0.0
C1027 C 0.66648 0.91819 0.43224 0.0
N1028 N 0.74244 0.97035 0.44195 0.0
N1029 N 0.63076 0.79983 0.43128 0.0
C1030 C 0.71414 0.92898 0.4296 0.0
C1031 C 0.6565 0.84165 0.42252 0.0
N1032 N 0.77571 0.90839 0.39631 0.0
N1033 N 0.59105 0.86416 0.42117 0.0
H1034 H 0.64439 0.77521 0.43176 0.0
H1035 H 0.59765 0.79044 0.44487 0.0
H1036 H 0.57494 0.88676 0.42436 0.0
H1037 H 0.5686 0.83334 0.40957 0.0
H1038 H 0.79548 0.94013 0.38916 0.0
H1039 H 0.79204 0.88717 0.38548 0.0
H1040 H 0.77766 0.97909 0.44805 0.0
H1041 H 0.7306 0.99544 0.45094 0.0
C1042 C 0.13162 0.65694 0.32349 0.0
C1043 C 0.1797 0.66824 0.33272 0.0
C1044 C 0.16899 0.59996 0.37976 0.0
C1045 C 0.12111 0.58672 0.36564 0.0
N1046 N 0.05719 0.60044 0.31945 0.0
N1047 N 0.24188 0.65832 0.38815 0.0
C1048 C 0.10247 0.61489 0.33689 0.0
C1049 C 0.19765 0.64184 0.36612 0.0
N1050 N 0.1135 0.68677 0.30483 0.0
N1051 N 0.18765 0.57236 0.40499 0.0
H1052 H 0.26295 0.68975 0.38115 0.0
H1053 H 0.25624 0.64316 0.41857 0.0
H1054 H 0.1689 0.54234 0.4195 0.0
H1055 H 0.22245 0.57787 0.40818 0.0
H1056 H 0.07882 0.68182 0.30274 0.0
H1057 H 0.13288 0.71848 0.29787 0.0
H1058 H 0.04208 0.61714 0.29238 0.0
H1059 H 0.03509 0.5697 0.32779 0.0
C1060 C 0.39132 0.20365 0.43983 0.0
C1061 C 0.35149 0.19017 0.40211 0.0
C1062 C 0.36701 0.12607 0.37395 0.0
C1063 C 0.40296 0.13515 0.41739 0.0
N1064 N 0.44298 0.18176 0.50174 0.0
N1065 N 0.29161 0.12757 0.35774 0.0
C1066 C 0.41397 0.17393 0.4531 0.0
C1067 C 0.33596 0.14792 0.37694 0.0
N1068 N 0.40657 0.24415 0.46487 0.0
N1069 N 0.36273 0.09735 0.32889 0.0
H1070 H 0.26569 0.13888 0.36812 0.0
H1071 H 0.27976 0.09596 0.34084 0.0
H1072 H 0.38797 0.08448 0.32073 0.0
H1073 H 0.33722 0.09124 0.29569 0.0
H1074 H 0.43878 0.25796 0.48587 0.0
H1075 H 0.38736 0.26431 0.46311 0.0
H1076 H 0.44707 0.20697 0.53164 0.0
H1077 H 0.45968 0.16171 0.51703 0.0
C1078 C 0.71179 0.85728 0.55992 0.0
C1079 C 0.68538 0.81438 0.57046 0.0
C1080 C 0.61784 0.83464 0.57859 0.0
C1081 C 0.64547 0.87871 0.57481 0.0
N1082 N 0.72089 0.93231 0.56604 0.0
N1083 N 0.61139 0.75975 0.56521 0.0
C1084 C 0.69304 0.8902 0.56662 0.0
C1085 C 0.63767 0.80217 0.57238 0.0
N1086 N 0.75466 0.86589 0.5412 0.0
N1087 N 0.57343 0.82404 0.59214 0.0
H1088 H 0.62527 0.73634 0.55469 0.0
H1089 H 0.57597 0.74856 0.56164 0.0
H1090 H 0.55833 0.84695 0.60028 0.0
H1091 H 0.55272 0.793 0.60108 0.0
H1092 H 0.77541 0.89591 0.52845 0.0
H1093 H 0.76746 0.84136 0.53228 0.0
H1094 H 0.75625 0.94203 0.57018 0.0
H1095 H 0.70973 0.95827 0.56321 0.0
C1096 C 0.66168 0.18038 0.40409 0.0
C1097 C 0.68159 0.17227 0.35327 0.0
C1098 C 0.6234 0.10131 0.33996 0.0
C1099 C 0.60945 0.10606 0.39572 0.0
N1100 N 0.61225 0.14931 0.48157 0.0
N1101 N 0.68584 0.12232 0.27774 0.0
C1102 C 0.62713 0.14575 0.4277 0.0
C1103 C 0.66355 0.1321 0.32221 0.0
N1104 N 0.67631 0.22065 0.42991 0.0
N1105 N 0.5991 0.06618 0.30536 0.0
H1106 H 0.71586 0.14369 0.2632 0.0
H1107 H 0.67722 0.09122 0.25999 0.0
H1108 H 0.56935 0.04314 0.31856 0.0
H1109 H 0.60578 0.06242 0.26218 0.0
H1110 H 0.66032 0.22948 0.46395 0.0
H1111 H 0.70345 0.24599 0.41531 0.0
H1112 H 0.62721 0.17553 0.51043 0.0
H1113 H 0.58521 0.1248 0.49774 0.0
C1114 C 0.81501 0.65558 0.38074 0.0
C1115 C 0.83712 0.69268 0.34909 0.0
C1116 C 0.90929 0.67749 0.36388 0.0
C1117 C 0.88793 0.64198 0.39874 0.0
N1118 N 0.82226 0.6056 0.45294 0.0
N1119 N 0.90903 0.7455 0.32742 0.0
C1120 C 0.84133 0.63359 0.41088 0.0
C1121 C 0.88537 0.70549 0.34573 0.0
N1122 N 0.76859 0.63975 0.38001 0.0
N1123 N 0.95164 0.68358 0.34519 0.0
H1124 H 0.89338 0.76773 0.31747 0.0
H1125 H 0.94447 0.75829 0.32906 0.0
H1126 H 0.96998 0.66359 0.35587 0.0
H1127 H 0.96663 0.70596 0.31438 0.0
H1128 H 0.75036 0.61009 0.39652 0.0
H1129 H 0.7481 0.65432 0.35834 0.0
H1130 H 0.79039 0.60173 0.46811 0.0
H1131 H 0.84014 0.58984 0.47731 0.0
C1132 C 0.34424 0.84674 0.40377 0.0
C1133 C 0.35952 0.83484 0.35125 0.0
C1134 C 0.4205 0.90563 0.35226 0.0
C1135 C 0.40647 0.91727 0.40599 0.0
N1136 N 0.35933 0.8965 0.48762 0.0
N1137 N 0.41782 0.84881 0.28253 0.0
C1138 C 0.36939 0.88717 0.43303 0.0
C1139 C 0.39953 0.86305 0.32788 0.0
N1140 N 0.3051 0.81964 0.425 0.0
N1141 N 0.45246 0.93603 0.32289 0.0
H1142 H 0.40361 0.81775 0.26406 0.0
H1143 H 0.44923 0.86606 0.26679 0.0
H1144 H 0.46692 0.96811 0.33743 0.0
H1145 H 0.46139 0.93086 0.28121 0.0
H1146 H 0.28864 0.82815 0.45876 0.0
H1147 H 0.28766 0.78899 0.40651 0.0
H1148 H 0.33633 0.87436 0.51265 0.0
H1149 H 0.37656 0.92569 0.50998 0.0
C1150 C 0.19195 0.33895 0.39645 0.0
C1151 C 0.21405 0.35035 0.34309 0.0
C1152 C 0.18641 0.41303 0.3424 0.0
C1153 C 0.15928 0.39769 0.39055 0.0
N1154 N 0.12909 0.33905 0.4541 0.0
N1155 N 0.22766 0.39847 0.26278 0.0
C1156 C 0.16016 0.35872 0.41487 0.0
C1157 C 0.20981 0.38746 0.31551 0.0
N1158 N 0.20122 0.30947 0.43059 0.0
N1159 N 0.19023 0.45255 0.32218 0.0
H1160 H 0.2481 0.38382 0.24353 0.0
H1161 H 0.22008 0.42062 0.23645 0.0
H1162 H 0.17315 0.47152 0.33961 0.0
H1163 H 0.21323 0.46812 0.29175 0.0
H1164 H 0.18975 0.30326 0.47234 0.0
H1165 H 0.22457 0.295 0.42051 0.0
H1166 H 0.12473 0.3085 0.46909 0.0
H1167 H 0.10446 0.35131 0.46689 0.0
C1168 C 0.38731 0.16948 0.63656 0.0
C1169 C 0.3537 0.17421 0.59638 0.0
C1170 C 0.34853 0.10603 0.546 0.0
C1171 C 0.3842 0.10318 0.58501 0.0
N1172 N 0.4131 0.11768 0.68512 0.0
N1173 N 0.29645 0.14394 0.51889 0.0
C1174 C 0.39658 0.1307 0.63557 0.0
C1175 C 0.33257 0.14149 0.55269 0.0
N1176 N 0.40984 0.20135 0.67709 0.0
N1177 N 0.32844 0.07416 0.50467 0.0
H1178 H 0.28598 0.17057 0.5208 0.0
H1179 H 0.27615 0.11973 0.48989 0.0
H1180 H 0.33071 0.04366 0.50722 0.0
H1181 H 0.30744 0.0768 0.46963 0.0
H1182 H 0.43743 0.20042 0.70361 0.0
H1183 H 0.40415 0.23038 0.68083 0.0
H1184 H 0.41902 0.13492 0.72484 0.0
H1185 H 0.41387 0.08659 0.68867 0.0
C1186 C 0.87707 0.36398 0.60285 0.0
C1187 C 0.86575 0.36596 0.66122 0.0
C1188 C 0.92277 0.4385 0.67486 0.0
C1189 C 0.93419 0.43636 0.61623 0.0
N1190 N 0.93192 0.39098 0.531 0.0
N1191 N 0.88485 0.40076 0.7572 0.0
C1192 C 0.91487 0.3971 0.58252 0.0
C1193 C 0.89046 0.40204 0.69862 0.0
N1194 N 0.85009 0.33139 0.56572 0.0
N1195 N 0.9432 0.47553 0.70792 0.0
H1196 H 0.86204 0.37483 0.77701 0.0
H1197 H 0.90548 0.4239 0.7874 0.0
H1198 H 0.97112 0.50072 0.6946 0.0
H1199 H 0.93187 0.48188 0.74764 0.0
H1200 H 0.8542 0.33005 0.52124 0.0
H1201 H 0.82056 0.30768 0.57806 0.0
H1202 H 0.92275 0.36112 0.5092 0.0
H1203 H 0.95788 0.4142 0.51175 0.0
C1204 C 0.22246 0.62833 0.63156 0.0
C1205 C 0.22051 0.66983 0.62005 0.0
C1206 C 0.15539 0.63656 0.55022 0.0
C1207 C 0.15466 0.5951 0.56647 0.0
N1208 N 0.18053 0.55212 0.63341 0.0
N1209 N 0.18236 0.71338 0.57319 0.0
C1210 C 0.18652 0.59115 0.60972 0.0
C1211 C 0.18612 0.6739 0.58073 0.0
N1212 N 0.25813 0.62384 0.66399 0.0
N1213 N 0.12786 0.64044 0.50445 0.0
H1214 H 0.20558 0.74162 0.59262 0.0
H1215 H 0.15482 0.71788 0.55061 0.0
H1216 H 0.10423 0.61404 0.48216 0.0
H1217 H 0.13077 0.66958 0.48578 0.0
H1218 H 0.26463 0.59508 0.6651 0.0
H1219 H 0.28247 0.64872 0.68798 0.0
H1220 H 0.20055 0.5478 0.66855 0.0
H1221 H 0.15236 0.52464 0.62256 0.0
loop_
_geom_bond_atom_site_label_1
_geom_bond_atom_site_label_2
_geom_bond_distance
_geom_bond_site_symmetry_2
_ccdc_geom_bond_type
Dy0 O4 2.398 . S
Dy0 O5 2.491 . S
Dy0 O6 2.403 . S
Dy0 O7 2.664 . S
Dy0 O11 2.326 . S
Dy0 O15 2.310 . S
Dy0 O16 2.351 . S
C1 O12 1.185 . S
C1 O13 1.355 . S
C2 O4 1.185 . S
C2 O5 1.355 . S
Dy3 O7 2.310 . S
Dy3 O10 2.351 . S
Dy3 O12 2.398 . S
Dy3 O13 2.491 . S
Dy3 O14 2.403 . S
Dy3 O15 2.664 . S
Dy3 O17 2.326 . S
O4 Dy0 2.398 . S
O4 C2 1.185 . S
O5 Dy0 2.491 . S
O5 C2 1.355 . S
O6 Dy0 2.403 . S
O6 C8 1.254 . S
O7 Dy0 2.664 . S
O7 Dy3 2.310 . S
O7 C8 1.268 . S
C8 O6 1.254 . S
C8 O7 1.268 . S
C9 O14 1.254 . S
C9 O15 1.268 . S
O10 Dy3 2.351 . S
O10 C18 1.249 . S
O11 Dy0 2.326 . S
O11 C18 1.267 . S
O12 C1 1.185 . S
O12 Dy3 2.398 . S
O13 C1 1.355 . S
O13 Dy3 2.491 . S
O14 Dy3 2.403 . S
O14 C9 1.254 . S
O15 Dy0 2.310 . S
O15 Dy3 2.664 . S
O15 C9 1.268 . S
O16 Dy0 2.351 . S
O16 C19 1.249 . S
O17 Dy3 2.326 . S
O17 C19 1.267 . S
C18 O10 1.249 . S
C18 O11 1.267 . S
C19 O16 1.249 . S
C19 O17 1.267 . S
Dy20 O24 2.398 . S
Dy20 O25 2.491 . S
Dy20 O26 2.403 . S
Dy20 O27 2.664 . S
Dy20 O31 2.326 . S
Dy20 O35 2.310 . S
Dy20 O36 2.351 . S
C21 O32 1.185 . S
C21 O33 1.355 . S
C22 O24 1.185 . S
C22 O25 1.355 . S
Dy23 O27 2.310 . S
Dy23 O30 2.351 . S
Dy23 O32 2.398 . S
Dy23 O33 2.491 . S
Dy23 O34 2.403 . S
Dy23 O35 2.664 . S
Dy23 O37 2.326 . S
O24 Dy20 2.398 . S
O24 C22 1.185 . S
O25 Dy20 2.491 . S
O25 C22 1.355 . S
O26 Dy20 2.403 . S
O26 C28 1.254 . S
O27 Dy20 2.664 . S
O27 Dy23 2.310 . S
O27 C28 1.268 . S
C28 O26 1.254 . S
C28 O27 1.268 . S
C29 O34 1.254 . S
C29 O35 1.268 . S
O30 Dy23 2.351 . S
O30 C38 1.249 . S
O31 Dy20 2.326 . S
O31 C38 1.267 . S
O32 C21 1.185 . S
O32 Dy23 2.398 . S
O33 C21 1.355 . S
O33 Dy23 2.491 . S
O34 Dy23 2.403 . S
O34 C29 1.254 . S
O35 Dy20 2.310 . S
O35 Dy23 2.664 . S
O35 C29 1.268 . S
O36 Dy20 2.351 . S
O36 C39 1.249 . S
O37 Dy23 2.326 . S
O37 C39 1.267 . S
C38 O30 1.249 . S
C38 O31 1.267 . S
C39 O36 1.249 . S
C39 O37 1.267 . S
Dy40 O44 2.398 . S
Dy40 O45 2.491 . S
Dy40 O46 2.403 . S
Dy40 O47 2.664 . S
Dy40 O51 2.326 . S
Dy40 O55 2.310 . S
Dy40 O56 2.351 . S
C41 O52 1.185 . S
C41 O53 1.355 . S
C42 O44 1.185 . S
C42 O45 1.355 . S
Dy43 O47 2.310 . S
Dy43 O50 2.351 . S
Dy43 O52 2.398 . S
Dy43 O53 2.491 . S
Dy43 O54 2.403 . S
Dy43 O55 2.664 . S
Dy43 O57 2.326 . S
O44 Dy40 2.398 . S
O44 C42 1.185 . S
O45 Dy40 2.491 . S
O45 C42 1.355 . S
O46 Dy40 2.403 . S
O46 C48 1.254 . S
O47 Dy40 2.664 . S
O47 Dy43 2.310 . S
O47 C48 1.268 . S
C48 O46 1.254 . S
C48 O47 1.268 . S
C49 O54 1.254 . S
C49 O55 1.268 . S
O50 Dy43 2.351 . S
O50 C58 1.249 . S
O51 Dy40 2.326 . S
O51 C58 1.267 . S
O52 C41 1.185 . S
O52 Dy43 2.398 . S
O53 C41 1.355 . S
O53 Dy43 2.491 . S
O54 Dy43 2.403 . S
O54 C49 1.254 . S
O55 Dy40 2.310 . S
O55 Dy43 2.664 . S
O55 C49 1.268 . S
O56 Dy40 2.351 . S
O56 C59 1.249 . S
O57 Dy43 2.326 . S
O57 C59 1.267 . S
C58 O50 1.249 . S
C58 O51 1.267 . S
C59 O56 1.249 . S
C59 O57 1.267 . S
Dy60 O64 2.398 . S
Dy60 O65 2.491 . S
Dy60 O66 2.403 . S
Dy60 O67 2.664 . S
Dy60 O71 2.326 . S
Dy60 O75 2.310 . S
Dy60 O76 2.351 . S
C61 O72 1.185 . S
C61 O73 1.355 . S
C62 O64 1.185 . S
C62 O65 1.355 . S
Dy63 O67 2.310 . S
Dy63 O70 2.351 . S
Dy63 O72 2.398 . S
Dy63 O73 2.491 . S
Dy63 O74 2.403 . S
Dy63 O75 2.664 . S
Dy63 O77 2.326 . S
O64 Dy60 2.398 . S
O64 C62 1.185 . S
O65 Dy60 2.491 . S
O65 C62 1.355 . S
O66 Dy60 2.403 . S
O66 C68 1.254 . S
O67 Dy60 2.664 . S
O67 Dy63 2.310 . S
O67 C68 1.268 . S
C68 O66 1.254 . S
C68 O67 1.268 . S
C69 O74 1.254 . S
C69 O75 1.268 . S
O70 Dy63 2.351 . S
O70 C78 1.249 . S
O71 Dy60 2.326 . S
O71 C78 1.267 . S
O72 C61 1.185 . S
O72 Dy63 2.398 . S
O73 C61 1.355 . S
O73 Dy63 2.491 . S
O74 Dy63 2.403 . S
O74 C69 1.254 . S
O75 Dy60 2.310 . S
O75 Dy63 2.664 . S
O75 C69 1.268 . S
O76 Dy60 2.351 . S
O76 C79 1.249 . S
O77 Dy63 2.326 . S
O77 C79 1.267 . S
C78 O70 1.249 . S
C78 O71 1.267 . S
C79 O76 1.249 . S
C79 O77 1.267 . S
Dy80 O84 2.398 . S
Dy80 O85 2.491 . S
Dy80 O86 2.403 . S
Dy80 O87 2.664 . S
Dy80 O91 2.326 . S
Dy80 O95 2.310 . S
Dy80 O96 2.351 . S
C81 O92 1.185 . S
C81 O93 1.355 . S
C82 O84 1.185 . S
C82 O85 1.355 . S
Dy83 O87 2.310 . S
Dy83 O90 2.351 . S
Dy83 O92 2.398 . S
Dy83 O93 2.491 . S
Dy83 O94 2.403 . S
Dy83 O95 2.664 . S
Dy83 O97 2.326 . S
O84 Dy80 2.398 . S
O84 C82 1.185 . S
O85 Dy80 2.491 . S
O85 C82 1.355 . S
O86 Dy80 2.403 . S
O86 C88 1.254 . S
O87 Dy80 2.664 . S
O87 Dy83 2.310 . S
O87 C88 1.268 . S
C88 O86 1.254 . S
C88 O87 1.268 . S
C89 O94 1.254 . S
C89 O95 1.268 . S
O90 Dy83 2.351 . S
O90 C98 1.249 . S
O91 Dy80 2.326 . S
O91 C98 1.267 . S
O92 C81 1.185 . S
O92 Dy83 2.398 . S
O93 C81 1.355 . S
O93 Dy83 2.491 . S
O94 Dy83 2.403 . S
O94 C89 1.254 . S
O95 Dy80 2.310 . S
O95 Dy83 2.664 . S
O95 C89 1.268 . S
O96 Dy80 2.351 . S
O96 C99 1.249 . S
O97 Dy83 2.326 . S
O97 C99 1.267 . S
C98 O90 1.249 . S
C98 O91 1.267 . S
C99 O96 1.249 . S
C99 O97 1.267 . S
Dy100 O104 2.398 . S
Dy100 O105 2.491 . S
Dy100 O106 2.403 . S
Dy100 O107 2.664 . S
Dy100 O111 2.326 . S
Dy100 O115 2.310 . S
Dy100 O116 2.351 . S
C101 O112 1.185 . S
C101 O113 1.355 . S
C102 O104 1.185 . S
C102 O105 1.355 . S
Dy103 O107 2.310 . S
Dy103 O110 2.351 . S
Dy103 O112 2.398 . S
Dy103 O113 2.491 . S
Dy103 O114 2.403 . S
Dy103 O115 2.664 . S
Dy103 O117 2.326 . S
O104 Dy100 2.398 . S
O104 C102 1.185 . S
O105 Dy100 2.491 . S
O105 C102 1.355 . S
O106 Dy100 2.403 . S
O106 C108 1.254 . S
O107 Dy100 2.664 . S
O107 Dy103 2.310 . S
O107 C108 1.268 . S
C108 O106 1.254 . S
C108 O107 1.268 . S
C109 O114 1.254 . S
C109 O115 1.268 . S
O110 Dy103 2.351 . S
O110 C118 1.249 . S
O111 Dy100 2.326 . S
O111 C118 1.267 . S
O112 C101 1.185 . S
O112 Dy103 2.398 . S
O113 C101 1.355 . S
O113 Dy103 2.491 . S
O114 Dy103 2.403 . S
O114 C109 1.254 . S
O115 Dy100 2.310 . S
O115 Dy103 2.664 . S
O115 C109 1.268 . S
O116 Dy100 2.351 . S
O116 C119 1.249 . S
O117 Dy103 2.326 . S
O117 C119 1.267 . S
C118 O110 1.249 . S
C118 O111 1.267 . S
C119 O116 1.249 . S
C119 O117 1.267 . S
Dy120 O124 2.398 . S
Dy120 O125 2.491 . S
Dy120 O126 2.403 . S
Dy120 O127 2.664 . S
Dy120 O131 2.326 . S
Dy120 O135 2.310 . S
Dy120 O136 2.351 . S
C121 O132 1.185 . S
C121 O133 1.355 . S
C122 O124 1.185 . S
C122 O125 1.355 . S
Dy123 O127 2.310 . S
Dy123 O130 2.351 . S
Dy123 O132 2.398 . S
Dy123 O133 2.491 . S
Dy123 O134 2.403 . S
Dy123 O135 2.664 . S
Dy123 O137 2.326 . S
O124 Dy120 2.398 . S
O124 C122 1.185 . S
O125 Dy120 2.491 . S
O125 C122 1.355 . S
O126 Dy120 2.403 . S
O126 C128 1.254 . S
O127 Dy120 2.664 . S
O127 Dy123 2.310 . S
O127 C128 1.268 . S
C128 O126 1.254 . S
C128 O127 1.268 . S
C129 O134 1.254 . S
C129 O135 1.268 . S
O130 Dy123 2.351 . S
O130 C138 1.249 . S
O131 Dy120 2.326 . S
O131 C138 1.267 . S
O132 C121 1.185 . S
O132 Dy123 2.398 . S
O133 C121 1.355 . S
O133 Dy123 2.491 . S
O134 Dy123 2.403 . S
O134 C129 1.254 . S
O135 Dy120 2.310 . S
O135 Dy123 2.664 . S
O135 C129 1.268 . S
O136 Dy120 2.351 . S
O136 C139 1.249 . S
O137 Dy123 2.326 . S
O137 C139 1.267 . S
C138 O130 1.249 . S
C138 O131 1.267 . S
C139 O136 1.249 . S
C139 O137 1.267 . S
Dy140 O144 2.398 . S
Dy140 O145 2.491 . S
Dy140 O146 2.403 . S
Dy140 O147 2.664 . S
Dy140 O151 2.326 . S
Dy140 O155 2.310 . S
Dy140 O156 2.351 . S
C141 O152 1.185 . S
C141 O153 1.355 . S
C142 O144 1.185 . S
C142 O145 1.355 . S
Dy143 O147 2.310 . S
Dy143 O150 2.351 . S
Dy143 O152 2.398 . S
Dy143 O153 2.491 . S
Dy143 O154 2.403 . S
Dy143 O155 2.664 . S
Dy143 O157 2.326 . S
O144 Dy140 2.398 . S
O144 C142 1.185 . S
O145 Dy140 2.491 . S
O145 C142 1.355 . S
O146 Dy140 2.403 . S
O146 C148 1.254 . S
O147 Dy140 2.664 . S
O147 Dy143 2.310 . S
O147 C148 1.268 . S
C148 O146 1.254 . S
C148 O147 1.268 . S
C149 O154 1.254 . S
C149 O155 1.268 . S
O150 Dy143 2.351 . S
O150 C158 1.249 . S
O151 Dy140 2.326 . S
O151 C158 1.267 . S
O152 C141 1.185 . S
O152 Dy143 2.398 . S
O153 C141 1.355 . S
O153 Dy143 2.491 . S
O154 Dy143 2.403 . S
O154 C149 1.254 . S
O155 Dy140 2.310 . S
O155 Dy143 2.664 . S
O155 C149 1.268 . S
O156 Dy140 2.351 . S
O156 C159 1.249 . S
O157 Dy143 2.326 . S
O157 C159 1.267 . S
C158 O150 1.249 . S
C158 O151 1.267 . S
C159 O156 1.249 . S
C159 O157 1.267 . S
Co160 O163 2.042 . S
Co160 O170 2.264 . S
Co160 O189 2.286 . S
Co160 O190 2.069 . S
Co160 O192 2.015 1_455 S
Co161 O163 2.122 . S
Co161 O169 2.073 . S
Co161 O170 2.327 . S
Co161 O171 1.976 1_455 S
Co162 O163 2.086 1_545 S
Co162 O165 2.088 1_455 S
Co162 O172 2.111 1_445 S
Co162 O173 2.144 . S
Co162 O177 2.112 . S
Co162 O191 2.143 1_445 S
O163 Co160 2.042 . S
O163 Co161 2.122 . S
O163 Co162 2.086 1_565 S
O163 H164 0.980 . S
H164 O163 0.980 . S
O165 Co162 2.088 1_655 S
O165 Co166 2.042 . S
O165 Co167 2.122 . S
O165 H168 0.980 . S
Co166 O165 2.042 . S
Co166 O174 2.286 . S
Co166 O175 2.069 . S
Co166 O176 2.015 1_655 S
Co166 O179 2.264 . S
Co167 O165 2.122 . S
Co167 O178 1.976 1_655 S
Co167 O179 2.327 . S
Co167 O180 2.073 . S
H168 O165 0.980 . S
O169 Co161 2.073 . S
O169 C184 1.245 . S
O170 Co160 2.264 . S
O170 Co161 2.327 . S
O170 C184 1.257 . S
O171 Co161 1.976 1_655 S
O171 C183 1.251 . S
O172 Co162 2.111 1_665 S
O172 C183 1.274 . S
O173 Co162 2.144 . S
O173 C186 1.246 . S
O174 Co166 2.286 . S
O174 C185 1.259 . S
O175 Co166 2.069 . S
O175 C185 1.289 . S
O176 Co166 2.015 1_455 S
O176 C186 1.257 . S
O177 Co162 2.112 . S
O177 C187 1.274 . S
O178 Co167 1.976 1_455 S
O178 C187 1.251 . S
O179 Co166 2.264 . S
O179 Co167 2.327 . S
O179 C188 1.257 . S
O180 Co167 2.073 . S
O180 C188 1.245 . S
C181 O189 1.259 . S
C181 O190 1.289 . S
C182 O191 1.246 . S
C182 O192 1.257 . S
C183 O171 1.251 . S
C183 O172 1.274 . S
C184 O169 1.245 . S
C184 O170 1.257 . S
C185 O174 1.259 . S
C185 O175 1.289 . S
C186 O173 1.246 . S
C186 O176 1.257 . S
C187 O177 1.274 . S
C187 O178 1.251 . S
C188 O179 1.257 . S
C188 O180 1.245 . S
O189 Co160 2.286 . S
O189 C181 1.259 . S
O190 Co160 2.069 . S
O190 C181 1.289 . S
O191 Co162 2.143 1_665 S
O191 C182 1.246 . S
O192 Co160 2.015 1_655 S
O192 C182 1.257 . S
Co193 O196 2.042 1_556 S
Co193 O203 2.264 1_556 S
Co193 O222 2.286 . S
Co193 O223 2.069 . S
Co193 O225 2.015 . S
Co194 O196 2.122 . S
Co194 O202 2.073 . S
Co194 O203 2.327 . S
Co194 O204 1.976 . S
Co195 O196 2.086 1_545 S
Co195 O198 2.088 1_554 S
Co195 O205 2.111 1_545 S
Co195 O206 2.144 . S
Co195 O210 2.112 1_554 S
Co195 O224 2.143 1_544 S
O196 Co193 2.042 1_554 S
O196 Co194 2.122 . S
O196 Co195 2.086 1_565 S
O196 H197 0.980 . S
H197 O196 0.980 . S
O198 Co195 2.088 1_556 S
O198 Co199 2.042 1_556 S
O198 Co200 2.122 . S
O198 H201 0.980 . S
Co199 O198 2.042 1_554 S
Co199 O207 2.286 . S
Co199 O208 2.069 . S
Co199 O209 2.015 . S
Co199 O212 2.264 1_554 S
Co200 O198 2.122 . S
Co200 O211 1.976 . S
Co200 O212 2.327 . S
Co200 O213 2.073 . S
H201 O198 0.980 . S
O202 Co194 2.073 . S
O202 C217 1.245 . S
O203 Co193 2.264 1_554 S
O203 Co194 2.327 . S
O203 C217 1.257 . S
O204 Co194 1.976 . S
O204 C216 1.251 . S
O205 Co195 2.111 1_565 S
O205 C216 1.274 . S
O206 Co195 2.144 . S
O206 C219 1.246 . S
O207 Co199 2.286 . S
O207 C218 1.259 . S
O208 Co199 2.069 . S
O208 C218 1.289 . S
O209 Co199 2.015 . S
O209 C219 1.257 . S
O210 Co195 2.112 1_556 S
O210 C220 1.274 . S
O211 Co200 1.976 . S
O211 C220 1.251 . S
O212 Co199 2.264 1_556 S
O212 Co200 2.327 . S
O212 C221 1.257 . S
O213 Co200 2.073 . S
O213 C221 1.245 . S
C214 O222 1.259 . S
C214 O223 1.289 . S
C215 O224 1.246 . S
C215 O225 1.257 . S
C216 O204 1.251 . S
C216 O205 1.274 . S
C217 O202 1.245 . S
C217 O203 1.257 . S
C218 O207 1.259 . S
C218 O208 1.289 . S
C219 O206 1.246 . S
C219 O209 1.257 . S
C220 O210 1.274 . S
C220 O211 1.251 . S
C221 O212 1.257 . S
C221 O213 1.245 . S
O222 Co193 2.286 . S
O222 C214 1.259 . S
O223 Co193 2.069 . S
O223 C214 1.289 . S
O224 Co195 2.143 1_566 S
O224 C215 1.246 . S
O225 Co193 2.015 . S
O225 C215 1.257 . S
Co226 O229 2.042 1_556 S
Co226 O236 2.264 1_556 S
Co226 O255 2.286 . S
Co226 O256 2.069 . S
Co226 O258 2.015 1_455 S
Co227 O229 2.122 . S
Co227 O235 2.073 . S
Co227 O236 2.327 . S
Co227 O237 1.976 1_455 S
Co228 O229 2.087 . S
Co228 O231 2.087 1_454 S
Co228 O238 2.111 1_455 S
Co228 O239 2.143 . S
Co228 O243 2.111 1_554 S
Co228 O257 2.143 1_454 S
O229 Co226 2.042 1_554 S
O229 Co227 2.122 . S
O229 Co228 2.087 . S
O229 H230 0.980 . S
H230 O229 0.980 . S
O231 Co228 2.087 1_656 S
O231 Co232 2.042 1_556 S
O231 Co233 2.122 . S
O231 H234 0.980 . S
Co232 O231 2.042 1_554 S
Co232 O240 2.286 . S
Co232 O241 2.069 . S
Co232 O242 2.015 1_655 S
Co232 O245 2.264 1_554 S
Co233 O231 2.122 . S
Co233 O244 1.976 1_655 S
Co233 O245 2.327 . S
Co233 O246 2.073 . S
H234 O231 0.980 . S
O235 Co227 2.073 . S
O235 C250 1.245 . S
O236 Co226 2.264 1_554 S
O236 Co227 2.327 . S
O236 C250 1.257 . S
O237 Co227 1.976 1_655 S
O237 C249 1.251 . S
O238 Co228 2.111 1_655 S
O238 C249 1.274 . S
O239 Co228 2.143 . S
O239 C252 1.246 . S
O240 Co232 2.286 . S
O240 C251 1.259 . S
O241 Co232 2.069 . S
O241 C251 1.289 . S
O242 Co232 2.015 1_455 S
O242 C252 1.257 . S
O243 Co228 2.111 1_556 S
O243 C253 1.274 . S
O244 Co233 1.976 1_455 S
O244 C253 1.251 . S
O245 Co232 2.264 1_556 S
O245 Co233 2.327 . S
O245 C254 1.257 . S
O246 Co233 2.073 . S
O246 C254 1.245 . S
C247 O255 1.259 . S
C247 O256 1.289 . S
C248 O257 1.246 . S
C248 O258 1.257 . S
C249 O237 1.251 . S
C249 O238 1.274 . S
C250 O235 1.245 . S
C250 O236 1.257 . S
C251 O240 1.259 . S
C251 O241 1.289 . S
C252 O239 1.246 . S
C252 O242 1.257 . S
C253 O243 1.274 . S
C253 O244 1.251 . S
C254 O245 1.257 . S
C254 O246 1.245 . S
O255 Co226 2.286 . S
O255 C247 1.259 . S
O256 Co226 2.069 . S
O256 C247 1.289 . S
O257 Co228 2.143 1_656 S
O257 C248 1.246 . S
O258 Co226 2.015 1_655 S
O258 C248 1.257 . S
Co259 O262 2.042 1_556 S
Co259 O269 2.264 1_556 S
Co259 O288 2.286 . S
Co259 O289 2.069 . S
Co259 O291 2.015 . S
Co260 O262 2.122 . S
Co260 O268 2.073 . S
Co260 O269 2.327 . S
Co260 O270 1.976 . S
Co261 O262 2.087 . S
Co261 O264 2.087 1_554 S
Co261 O271 2.111 . S
Co261 O272 2.143 . S
Co261 O276 2.111 1_554 S
Co261 O290 2.143 1_554 S
O262 Co259 2.042 1_554 S
O262 Co260 2.122 . S
O262 Co261 2.087 . S
O262 H263 0.980 . S
H263 O262 0.980 . S
O264 Co261 2.087 1_556 S
O264 Co265 2.042 1_556 S
O264 Co266 2.122 . S
O264 H267 0.980 . S
Co265 O264 2.042 1_554 S
Co265 O273 2.286 . S
Co265 O274 2.069 . S
Co265 O275 2.015 . S
Co265 O278 2.264 1_554 S
Co266 O264 2.122 . S
Co266 O277 1.976 . S
Co266 O278 2.327 . S
Co266 O279 2.073 . S
H267 O264 0.980 . S
O268 Co260 2.073 . S
O268 C283 1.245 . S
O269 Co259 2.264 1_554 S
O269 Co260 2.327 . S
O269 C283 1.257 . S
O270 Co260 1.976 . S
O270 C282 1.251 . S
O271 Co261 2.111 . S
O271 C282 1.274 . S
O272 Co261 2.143 . S
O272 C285 1.246 . S
O273 Co265 2.286 . S
O273 C284 1.259 . S
O274 Co265 2.069 . S
O274 C284 1.289 . S
O275 Co265 2.015 . S
O275 C285 1.257 . S
O276 Co261 2.111 1_556 S
O276 C286 1.274 . S
O277 Co266 1.976 . S
O277 C286 1.251 . S
O278 Co265 2.264 1_556 S
O278 Co266 2.327 . S
O278 C287 1.257 . S
O279 Co266 2.073 . S
O279 C287 1.245 . S
C280 O288 1.259 . S
C280 O289 1.289 . S
C281 O290 1.246 . S
C281 O291 1.257 . S
C282 O270 1.251 . S
C282 O271 1.274 . S
C283 O268 1.245 . S
C283 O269 1.257 . S
C284 O273 1.259 . S
C284 O274 1.289 . S
C285 O272 1.246 . S
C285 O275 1.257 . S
C286 O276 1.274 . S
C286 O277 1.251 . S
C287 O278 1.257 . S
C287 O279 1.245 . S
O288 Co259 2.286 . S
O288 C280 1.259 . S
O289 Co259 2.069 . S
O289 C280 1.289 . S
O290 Co261 2.143 1_556 S
O290 C281 1.246 . S
O291 Co259 2.015 . S
O291 C281 1.257 . S
Co292 O295 2.042 . S
Co292 O302 2.264 . S
Co292 O321 2.286 . S
Co292 O322 2.069 . S
Co292 O324 2.015 . S
Co293 O295 2.122 . S
Co293 O301 2.073 . S
Co293 O302 2.327 . S
Co293 O303 1.976 . S
Co294 O295 2.087 . S
Co294 O297 2.087 1_455 S
Co294 O304 2.111 . S
Co294 O305 2.143 1_455 S
Co294 O309 2.111 1_455 S
Co294 O323 2.143 . S
O295 Co292 2.042 . S
O295 Co293 2.122 . S
O295 Co294 2.087 . S
O295 H296 0.980 . S
H296 O295 0.980 . S
O297 Co294 2.087 1_655 S
O297 Co298 2.042 . S
O297 Co299 2.122 . S
O297 H300 0.980 . S
Co298 O297 2.042 . S
Co298 O306 2.286 . S
Co298 O307 2.069 . S
Co298 O308 2.015 . S
Co298 O311 2.264 . S
Co299 O297 2.122 . S
Co299 O310 1.976 . S
Co299 O311 2.327 . S
Co299 O312 2.073 . S
H300 O297 0.980 . S
O301 Co293 2.073 . S
O301 C316 1.245 . S
O302 Co292 2.264 . S
O302 Co293 2.327 . S
O302 C316 1.257 . S
O303 Co293 1.976 . S
O303 C315 1.251 . S
O304 Co294 2.111 . S
O304 C315 1.274 . S
O305 Co294 2.143 1_655 S
O305 C318 1.246 . S
O306 Co298 2.286 . S
O306 C317 1.259 . S
O307 Co298 2.069 . S
O307 C317 1.289 . S
O308 Co298 2.015 . S
O308 C318 1.257 . S
O309 Co294 2.111 1_655 S
O309 C319 1.274 . S
O310 Co299 1.976 . S
O310 C319 1.251 . S
O311 Co298 2.264 . S
O311 Co299 2.327 . S
O311 C320 1.257 . S
O312 Co299 2.073 . S
O312 C320 1.245 . S
C313 O321 1.259 . S
C313 O322 1.289 . S
C314 O323 1.246 . S
C314 O324 1.257 . S
C315 O303 1.251 . S
C315 O304 1.274 . S
C316 O301 1.245 . S
C316 O302 1.257 . S
C317 O306 1.259 . S
C317 O307 1.289 . S
C318 O305 1.246 . S
C318 O308 1.257 . S
C319 O309 1.274 . S
C319 O310 1.251 . S
C320 O311 1.257 . S
C320 O312 1.245 . S
O321 Co292 2.286 . S
O321 C313 1.259 . S
O322 Co292 2.069 . S
O322 C313 1.289 . S
O323 Co294 2.143 . S
O323 C314 1.246 . S
O324 Co292 2.015 . S
O324 C314 1.257 . S
Co325 O328 2.042 . S
Co325 O335 2.264 . S
Co325 O354 2.286 . S
Co325 O355 2.069 . S
Co325 O357 2.015 1_565 S
Co326 O328 2.122 . S
Co326 O334 2.073 . S
Co326 O335 2.327 . S
Co326 O336 1.976 1_565 S
Co327 O328 2.086 1_545 S
Co327 O330 2.088 . S
Co327 O337 2.112 . S
Co327 O338 2.143 1_545 S
Co327 O342 2.111 1_545 S
Co327 O356 2.144 . S
O328 Co325 2.042 . S
O328 Co326 2.122 . S
O328 Co327 2.086 1_565 S
O328 H329 0.980 . S
H329 O328 0.980 . S
O330 Co327 2.088 . S
O330 Co331 2.042 . S
O330 Co332 2.122 . S
O330 H333 0.980 . S
Co331 O330 2.042 . S
Co331 O339 2.286 . S
Co331 O340 2.069 . S
Co331 O341 2.015 1_545 S
Co331 O344 2.264 . S
Co332 O330 2.122 . S
Co332 O343 1.976 1_545 S
Co332 O344 2.327 . S
Co332 O345 2.073 . S
H333 O330 0.980 . S
O334 Co326 2.073 . S
O334 C349 1.245 . S
O335 Co325 2.264 . S
O335 Co326 2.327 . S
O335 C349 1.257 . S
O336 Co326 1.976 1_545 S
O336 C348 1.251 . S
O337 Co327 2.112 . S
O337 C348 1.274 . S
O338 Co327 2.143 1_565 S
O338 C351 1.246 . S
O339 Co331 2.286 . S
O339 C350 1.259 . S
O340 Co331 2.069 . S
O340 C350 1.289 . S
O341 Co331 2.015 1_565 S
O341 C351 1.257 . S
O342 Co327 2.111 1_565 S
O342 C352 1.274 . S
O343 Co332 1.976 1_565 S
O343 C352 1.251 . S
O344 Co331 2.264 . S
O344 Co332 2.327 . S
O344 C353 1.257 . S
O345 Co332 2.073 . S
O345 C353 1.245 . S
C346 O354 1.259 . S
C346 O355 1.289 . S
C347 O356 1.246 . S
C347 O357 1.257 . S
C348 O336 1.251 . S
C348 O337 1.274 . S
C349 O334 1.245 . S
C349 O335 1.257 . S
C350 O339 1.259 . S
C350 O340 1.289 . S
C351 O338 1.246 . S
C351 O341 1.257 . S
C352 O342 1.274 . S
C352 O343 1.251 . S
C353 O344 1.257 . S
C353 O345 1.245 . S
O354 Co325 2.286 . S
O354 C346 1.259 . S
O355 Co325 2.069 . S
O355 C346 1.289 . S
O356 Co327 2.144 . S
O356 C347 1.246 . S
O357 Co325 2.015 1_545 S
O357 C347 1.257 . S
C358 C359 1.363 . S
C358 C364 1.379 . S
C358 N366 1.356 . S
C359 C358 1.363 . S
C359 C365 1.363 . S
C360 C361 1.363 . S
C360 C365 1.379 . S
C360 N367 1.356 . S
C361 C360 1.363 . S
C361 C364 1.363 . S
N362 C364 1.356 . S
N362 H374 0.984 . S
N362 H375 0.985 . S
N363 C365 1.356 . S
N363 H368 0.984 . S
N363 H369 0.985 . S
C364 C358 1.379 . S
C364 C361 1.363 . S
C364 N362 1.356 . S
C365 C359 1.363 . S
C365 C360 1.379 . S
C365 N363 1.356 . S
N366 C358 1.356 . S
N366 H372 0.984 . S
N366 H373 0.984 . S
N367 C360 1.356 . S
N367 H370 0.984 . S
N367 H371 0.985 . S
H368 N363 0.984 . S
H369 N363 0.985 . S
H370 N367 0.984 . S
H371 N367 0.985 . S
H372 N366 0.984 . S
H373 N366 0.984 . S
H374 N362 0.984 . S
H375 N362 0.985 . S
C376 C377 1.363 . S
C376 C382 1.379 . S
C376 N384 1.356 . S
C377 C376 1.363 . S
C377 C383 1.363 . S
C378 C379 1.363 . S
C378 C383 1.379 . S
C378 N385 1.356 . S
C379 C378 1.363 . S
C379 C382 1.363 . S
N380 C382 1.356 . S
N380 H392 0.984 . S
N380 H393 0.985 . S
N381 C383 1.356 . S
N381 H386 0.984 . S
N381 H387 0.985 . S
C382 C376 1.379 . S
C382 C379 1.363 . S
C382 N380 1.356 . S
C383 C377 1.363 . S
C383 C378 1.379 . S
C383 N381 1.356 . S
N384 C376 1.356 . S
N384 H390 0.984 . S
N384 H391 0.984 . S
N385 C378 1.356 . S
N385 H388 0.984 . S
N385 H389 0.985 . S
H386 N381 0.984 . S
H387 N381 0.985 . S
H388 N385 0.984 . S
H389 N385 0.985 . S
H390 N384 0.984 . S
H391 N384 0.984 . S
H392 N380 0.984 . S
H393 N380 0.985 . S
C394 C395 1.363 . S
C394 C400 1.379 . S
C394 N402 1.356 . S
C395 C394 1.363 . S
C395 C401 1.363 . S
C396 C397 1.363 . S
C396 C401 1.379 . S
C396 N403 1.356 . S
C397 C396 1.363 . S
C397 C400 1.363 . S
N398 C400 1.356 . S
N398 H410 0.984 . S
N398 H411 0.985 . S
N399 C401 1.356 . S
N399 H404 0.984 . S
N399 H405 0.985 . S
C400 C394 1.379 . S
C400 C397 1.363 . S
C400 N398 1.356 . S
C401 C395 1.363 . S
C401 C396 1.379 . S
C401 N399 1.356 . S
N402 C394 1.356 . S
N402 H408 0.984 . S
N402 H409 0.984 . S
N403 C396 1.356 . S
N403 H406 0.984 . S
N403 H407 0.985 . S
H404 N399 0.984 . S
H405 N399 0.985 . S
H406 N403 0.984 . S
H407 N403 0.985 . S
H408 N402 0.984 . S
H409 N402 0.984 . S
H410 N398 0.984 . S
H411 N398 0.985 . S
C412 C413 1.363 . S
C412 C418 1.379 . S
C412 N420 1.356 . S
C413 C412 1.363 . S
C413 C419 1.363 . S
C414 C415 1.363 . S
C414 C419 1.379 . S
C414 N421 1.356 . S
C415 C414 1.363 . S
C415 C418 1.363 . S
N416 C418 1.356 . S
N416 H428 0.984 . S
N416 H429 0.985 . S
N417 C419 1.356 . S
N417 H422 0.984 . S
N417 H423 0.985 . S
C418 C412 1.379 . S
C418 C415 1.363 . S
C418 N416 1.356 . S
C419 C413 1.363 . S
C419 C414 1.379 . S
C419 N417 1.356 . S
N420 C412 1.356 . S
N420 H426 0.984 . S
N420 H427 0.984 . S
N421 C414 1.356 . S
N421 H424 0.984 . S
N421 H425 0.985 . S
H422 N417 0.984 . S
H423 N417 0.985 . S
H424 N421 0.984 . S
H425 N421 0.985 . S
H426 N420 0.984 . S
H427 N420 0.984 . S
H428 N416 0.984 . S
H429 N416 0.985 . S
C430 C431 1.363 . S
C430 C436 1.379 . S
C430 N438 1.356 . S
C431 C430 1.363 . S
C431 C437 1.363 . S
C432 C433 1.363 . S
C432 C437 1.379 . S
C432 N439 1.356 . S
C433 C432 1.363 . S
C433 C436 1.363 . S
N434 C436 1.356 . S
N434 H446 0.984 . S
N434 H447 0.985 . S
N435 C437 1.356 . S
N435 H440 0.984 . S
N435 H441 0.985 . S
C436 C430 1.379 . S
C436 C433 1.363 . S
C436 N434 1.356 . S
C437 C431 1.363 . S
C437 C432 1.379 . S
C437 N435 1.356 . S
N438 C430 1.356 . S
N438 H444 0.984 . S
N438 H445 0.984 . S
N439 C432 1.356 . S
N439 H442 0.984 . S
N439 H443 0.985 . S
H440 N435 0.984 . S
H441 N435 0.985 . S
H442 N439 0.984 . S
H443 N439 0.985 . S
H444 N438 0.984 . S
H445 N438 0.984 . S
H446 N434 0.984 . S
H447 N434 0.985 . S
C448 C449 1.363 . S
C448 C454 1.379 . S
C448 N456 1.356 . S
C449 C448 1.363 . S
C449 C455 1.363 . S
C450 C451 1.363 . S
C450 C455 1.379 . S
C450 N457 1.356 . S
C451 C450 1.363 . S
C451 C454 1.363 . S
N452 C454 1.356 . S
N452 H464 0.984 . S
N452 H465 0.985 . S
N453 C455 1.356 . S
N453 H458 0.984 . S
N453 H459 0.985 . S
C454 C448 1.379 . S
C454 C451 1.363 . S
C454 N452 1.356 . S
C455 C449 1.363 . S
C455 C450 1.379 . S
C455 N453 1.356 . S
N456 C448 1.356 . S
N456 H462 0.984 . S
N456 H463 0.984 . S
N457 C450 1.356 . S
N457 H460 0.984 . S
N457 H461 0.985 . S
H458 N453 0.984 . S
H459 N453 0.985 . S
H460 N457 0.984 . S
H461 N457 0.985 . S
H462 N456 0.984 . S
H463 N456 0.984 . S
H464 N452 0.984 . S
H465 N452 0.985 . S
C466 C467 1.363 . S
C466 C472 1.379 . S
C466 N474 1.356 . S
C467 C466 1.363 . S
C467 C473 1.363 . S
C468 C469 1.363 . S
C468 C473 1.379 . S
C468 N475 1.356 . S
C469 C468 1.363 . S
C469 C472 1.363 . S
N470 C472 1.356 . S
N470 H482 0.984 . S
N470 H483 0.985 . S
N471 C473 1.356 . S
N471 H476 0.984 . S
N471 H477 0.985 . S
C472 C466 1.379 . S
C472 C469 1.363 . S
C472 N470 1.356 . S
C473 C467 1.363 . S
C473 C468 1.379 . S
C473 N471 1.356 . S
N474 C466 1.356 . S
N474 H480 0.984 . S
N474 H481 0.984 . S
N475 C468 1.356 . S
N475 H478 0.984 . S
N475 H479 0.985 . S
H476 N471 0.984 . S
H477 N471 0.985 . S
H478 N475 0.984 . S
H479 N475 0.985 . S
H480 N474 0.984 . S
H481 N474 0.984 . S
H482 N470 0.984 . S
H483 N470 0.985 . S
C484 C485 1.363 . S
C484 C490 1.379 . S
C484 N492 1.356 . S
C485 C484 1.363 . S
C485 C491 1.363 . S
C486 C487 1.363 . S
C486 C491 1.379 . S
C486 N493 1.356 . S
C487 C486 1.363 . S
C487 C490 1.363 . S
N488 C490 1.356 . S
N488 H500 0.984 . S
N488 H501 0.985 . S
N489 C491 1.356 . S
N489 H494 0.984 . S
N489 H495 0.985 . S
C490 C484 1.379 . S
C490 C487 1.363 . S
C490 N488 1.356 . S
C491 C485 1.363 . S
C491 C486 1.379 . S
C491 N489 1.356 . S
N492 C484 1.356 . S
N492 H498 0.984 . S
N492 H499 0.984 . S
N493 C486 1.356 . S
N493 H496 0.984 . S
N493 H497 0.985 . S
H494 N489 0.984 . S
H495 N489 0.985 . S
H496 N493 0.984 . S
H497 N493 0.985 . S
H498 N492 0.984 . S
H499 N492 0.984 . S
H500 N488 0.984 . S
H501 N488 0.985 . S
C502 C503 1.363 . S
C502 C508 1.379 . S
C502 N510 1.356 . S
C503 C502 1.363 . S
C503 C509 1.363 . S
C504 C505 1.363 . S
C504 C509 1.379 . S
C504 N511 1.356 . S
C505 C504 1.363 . S
C505 C508 1.363 . S
N506 C508 1.356 . S
N506 H518 0.984 . S
N506 H519 0.985 . S
N507 C509 1.356 . S
N507 H512 0.984 . S
N507 H513 0.985 . S
C508 C502 1.379 . S
C508 C505 1.363 . S
C508 N506 1.356 . S
C509 C503 1.363 . S
C509 C504 1.379 . S
C509 N507 1.356 . S
N510 C502 1.356 . S
N510 H516 0.984 . S
N510 H517 0.984 . S
N511 C504 1.356 . S
N511 H514 0.984 . S
N511 H515 0.985 1_554 S
H512 N507 0.984 . S
H513 N507 0.985 . S
H514 N511 0.984 . S
H515 N511 0.985 1_556 S
H516 N510 0.984 . S
H517 N510 0.984 . S
H518 N506 0.984 . S
H519 N506 0.985 . S
C520 C521 1.363 . S
C520 C526 1.379 . S
C520 N528 1.356 . S
C521 C520 1.363 . S
C521 C527 1.363 . S
C522 C523 1.363 . S
C522 C527 1.379 . S
C522 N529 1.356 . S
C523 C522 1.363 . S
C523 C526 1.363 . S
N524 C526 1.356 . S
N524 H536 0.984 . S
N524 H537 0.985 . S
N525 C527 1.356 . S
N525 H530 0.984 . S
N525 H531 0.985 . S
C526 C520 1.379 . S
C526 C523 1.363 . S
C526 N524 1.356 . S
C527 C521 1.363 . S
C527 C522 1.379 . S
C527 N525 1.356 . S
N528 C520 1.356 . S
N528 H534 0.984 . S
N528 H535 0.984 . S
N529 C522 1.356 . S
N529 H532 0.984 . S
N529 H533 0.985 . S
H530 N525 0.984 . S
H531 N525 0.985 . S
H532 N529 0.984 . S
H533 N529 0.985 . S
H534 N528 0.984 . S
H535 N528 0.984 . S
H536 N524 0.984 . S
H537 N524 0.985 . S
C538 C539 1.363 . S
C538 C544 1.379 . S
C538 N546 1.356 . S
C539 C538 1.363 . S
C539 C545 1.363 . S
C540 C541 1.363 . S
C540 C545 1.379 . S
C540 N547 1.356 . S
C541 C540 1.363 . S
C541 C544 1.363 . S
N542 C544 1.356 . S
N542 H554 0.984 1_554 S
N542 H555 0.985 . S
N543 C545 1.356 . S
N543 H548 0.984 . S
N543 H549 0.985 . S
C544 C538 1.379 . S
C544 C541 1.363 . S
C544 N542 1.356 . S
C545 C539 1.363 . S
C545 C540 1.379 . S
C545 N543 1.356 . S
N546 C538 1.356 . S
N546 H552 0.984 . S
N546 H553 0.984 . S
N547 C540 1.356 . S
N547 H550 0.984 . S
N547 H551 0.985 . S
H548 N543 0.984 . S
H549 N543 0.985 . S
H550 N547 0.984 . S
H551 N547 0.985 . S
H552 N546 0.984 . S
H553 N546 0.984 . S
H554 N542 0.984 1_556 S
H555 N542 0.985 . S
C556 C557 1.363 . S
C556 C562 1.379 . S
C556 N564 1.356 . S
C557 C556 1.363 . S
C557 C563 1.363 . S
C558 C559 1.363 . S
C558 C563 1.379 . S
C558 N565 1.356 . S
C559 C558 1.363 . S
C559 C562 1.363 . S
N560 C562 1.356 . S
N560 H572 0.984 . S
N560 H573 0.985 . S
N561 C563 1.356 . S
N561 H566 0.984 . S
N561 H567 0.985 . S
C562 C556 1.379 . S
C562 C559 1.363 . S
C562 N560 1.356 . S
C563 C557 1.363 . S
C563 C558 1.379 . S
C563 N561 1.356 . S
N564 C556 1.356 . S
N564 H570 0.984 . S
N564 H571 0.984 . S
N565 C558 1.356 . S
N565 H568 0.984 . S
N565 H569 0.985 . S
H566 N561 0.984 . S
H567 N561 0.985 . S
H568 N565 0.984 . S
H569 N565 0.985 . S
H570 N564 0.984 . S
H571 N564 0.984 . S
H572 N560 0.984 . S
H573 N560 0.985 . S
C574 C575 1.363 . S
C574 C580 1.379 . S
C574 N582 1.356 . S
C575 C574 1.363 . S
C575 C581 1.363 . S
C576 C577 1.363 . S
C576 C581 1.379 . S
C576 N583 1.356 . S
C577 C576 1.363 . S
C577 C580 1.363 . S
N578 C580 1.356 . S
N578 H590 0.984 . S
N578 H591 0.985 . S
N579 C581 1.356 . S
N579 H584 0.984 . S
N579 H585 0.985 . S
C580 C574 1.379 . S
C580 C577 1.363 . S
C580 N578 1.356 . S
C581 C575 1.363 . S
C581 C576 1.379 . S
C581 N579 1.356 . S
N582 C574 1.356 . S
N582 H588 0.984 . S
N582 H589 0.984 . S
N583 C576 1.356 . S
N583 H586 0.984 . S
N583 H587 0.985 1_556 S
H584 N579 0.984 . S
H585 N579 0.985 . S
H586 N583 0.984 . S
H587 N583 0.985 1_554 S
H588 N582 0.984 . S
H589 N582 0.984 . S
H590 N578 0.984 . S
H591 N578 0.985 . S
C592 C593 1.363 . S
C592 C598 1.379 . S
C592 N600 1.356 . S
C593 C592 1.363 . S
C593 C599 1.363 . S
C594 C595 1.363 . S
C594 C599 1.379 . S
C594 N601 1.356 . S
C595 C594 1.363 . S
C595 C598 1.363 . S
N596 C598 1.356 . S
N596 H608 0.984 . S
N596 H609 0.985 . S
N597 C599 1.356 . S
N597 H602 0.984 . S
N597 H603 0.985 . S
C598 C592 1.379 . S
C598 C595 1.363 . S
C598 N596 1.356 . S
C599 C593 1.363 . S
C599 C594 1.379 . S
C599 N597 1.356 . S
N600 C592 1.356 . S
N600 H606 0.984 . S
N600 H607 0.984 . S
N601 C594 1.356 . S
N601 H604 0.984 . S
N601 H605 0.985 . S
H602 N597 0.984 . S
H603 N597 0.985 . S
H604 N601 0.984 . S
H605 N601 0.985 . S
H606 N600 0.984 . S
H607 N600 0.984 . S
H608 N596 0.984 . S
H609 N596 0.985 . S
C610 C611 1.363 . S
C610 C616 1.379 . S
C610 N618 1.356 . S
C611 C610 1.363 . S
C611 C617 1.363 . S
C612 C613 1.363 . S
C612 C617 1.379 . S
C612 N619 1.356 1_556 S
C613 C612 1.363 . S
C613 C616 1.363 . S
N614 C616 1.356 . S
N614 H626 0.984 . S
N614 H627 0.985 . S
N615 C617 1.356 . S
N615 H620 0.984 . S
N615 H621 0.985 1_556 S
C616 C610 1.379 . S
C616 C613 1.363 . S
C616 N614 1.356 . S
C617 C611 1.363 . S
C617 C612 1.379 . S
C617 N615 1.356 . S
N618 C610 1.356 . S
N618 H624 0.984 . S
N618 H625 0.984 . S
N619 C612 1.356 1_554 S
N619 H622 0.984 . S
N619 H623 0.985 . S
H620 N615 0.984 . S
H621 N615 0.985 1_554 S
H622 N619 0.984 . S
H623 N619 0.985 . S
H624 N618 0.984 . S
H625 N618 0.984 . S
H626 N614 0.984 . S
H627 N614 0.985 . S
C628 C629 1.363 . S
C628 C634 1.379 . S
C628 N636 1.356 . S
C629 C628 1.363 . S
C629 C635 1.363 . S
C630 C631 1.363 . S
C630 C635 1.379 . S
C630 N637 1.356 . S
C631 C630 1.363 . S
C631 C634 1.363 . S
N632 C634 1.356 . S
N632 H644 0.984 . S
N632 H645 0.985 . S
N633 C635 1.356 . S
N633 H638 0.984 . S
N633 H639 0.985 . S
C634 C628 1.379 . S
C634 C631 1.363 . S
C634 N632 1.356 . S
C635 C629 1.363 . S
C635 C630 1.379 . S
C635 N633 1.356 . S
N636 C628 1.356 . S
N636 H642 0.984 . S
N636 H643 0.984 . S
N637 C630 1.356 . S
N637 H640 0.984 . S
N637 H641 0.985 1_556 S
H638 N633 0.984 . S
H639 N633 0.985 . S
H640 N637 0.984 . S
H641 N637 0.985 1_554 S
H642 N636 0.984 . S
H643 N636 0.984 . S
H644 N632 0.984 . S
H645 N632 0.985 . S
C646 C647 1.363 . S
C646 C652 1.379 . S
C646 N654 1.356 . S
C647 C646 1.363 . S
C647 C653 1.363 . S
C648 C649 1.363 . S
C648 C653 1.379 . S
C648 N655 1.356 . S
C649 C648 1.363 . S
C649 C652 1.363 . S
N650 C652 1.356 . S
N650 H662 0.984 . S
N650 H663 0.985 . S
N651 C653 1.356 . S
N651 H656 0.984 . S
N651 H657 0.985 . S
C652 C646 1.379 . S
C652 C649 1.363 . S
C652 N650 1.356 . S
C653 C647 1.363 . S
C653 C648 1.379 . S
C653 N651 1.356 . S
N654 C646 1.356 . S
N654 H660 0.984 . S
N654 H661 0.984 . S
N655 C648 1.356 . S
N655 H658 0.984 . S
N655 H659 0.985 1_554 S
H656 N651 0.984 . S
H657 N651 0.985 . S
H658 N655 0.984 . S
H659 N655 0.985 1_556 S
H660 N654 0.984 . S
H661 N654 0.984 . S
H662 N650 0.984 . S
H663 N650 0.985 . S
C664 C665 1.363 . S
C664 C670 1.379 . S
C664 N672 1.356 . S
C665 C664 1.363 . S
C665 C671 1.363 . S
C666 C667 1.363 . S
C666 C671 1.379 . S
C666 N673 1.356 . S
C667 C666 1.363 . S
C667 C670 1.363 . S
N668 C670 1.356 . S
N668 H680 0.984 . S
N668 H681 0.985 . S
N669 C671 1.356 . S
N669 H674 0.984 . S
N669 H675 0.985 . S
C670 C664 1.379 . S
C670 C667 1.363 . S
C670 N668 1.356 . S
C671 C665 1.363 . S
C671 C666 1.379 . S
C671 N669 1.356 . S
N672 C664 1.356 . S
N672 H678 0.984 . S
N672 H679 0.984 . S
N673 C666 1.356 . S
N673 H676 0.984 . S
N673 H677 0.985 . S
H674 N669 0.984 . S
H675 N669 0.985 . S
H676 N673 0.984 . S
H677 N673 0.985 . S
H678 N672 0.984 . S
H679 N672 0.984 . S
H680 N668 0.984 . S
H681 N668 0.985 . S
C682 C683 1.363 . S
C682 C688 1.379 . S
C682 N690 1.356 . S
C683 C682 1.363 . S
C683 C689 1.363 . S
C684 C685 1.363 . S
C684 C689 1.379 . S
C684 N691 1.356 . S
C685 C684 1.363 . S
C685 C688 1.363 . S
N686 C688 1.356 . S
N686 H698 0.984 . S
N686 H699 0.985 . S
N687 C689 1.356 . S
N687 H692 0.984 . S
N687 H693 0.985 . S
C688 C682 1.379 . S
C688 C685 1.363 . S
C688 N686 1.356 . S
C689 C683 1.363 . S
C689 C684 1.379 . S
C689 N687 1.356 . S
N690 C682 1.356 . S
N690 H696 0.984 . S
N690 H697 0.984 . S
N691 C684 1.356 . S
N691 H694 0.984 . S
N691 H695 0.985 . S
H692 N687 0.984 . S
H693 N687 0.985 . S
H694 N691 0.984 . S
H695 N691 0.985 . S
H696 N690 0.984 . S
H697 N690 0.984 . S
H698 N686 0.984 . S
H699 N686 0.985 . S
C700 C701 1.363 . S
C700 C706 1.379 . S
C700 N708 1.356 . S
C701 C700 1.363 . S
C701 C707 1.363 . S
C702 C703 1.363 . S
C702 C707 1.379 . S
C702 N709 1.356 . S
C703 C702 1.363 . S
C703 C706 1.363 . S
N704 C706 1.356 . S
N704 H716 0.984 1_556 S
N704 H717 0.985 . S
N705 C707 1.356 . S
N705 H710 0.984 . S
N705 H711 0.985 . S
C706 C700 1.379 . S
C706 C703 1.363 . S
C706 N704 1.356 . S
C707 C701 1.363 . S
C707 C702 1.379 . S
C707 N705 1.356 . S
N708 C700 1.356 . S
N708 H714 0.984 . S
N708 H715 0.984 . S
N709 C702 1.356 . S
N709 H712 0.984 . S
N709 H713 0.985 . S
H710 N705 0.984 . S
H711 N705 0.985 . S
H712 N709 0.984 . S
H713 N709 0.985 . S
H714 N708 0.984 . S
H715 N708 0.984 . S
H716 N704 0.984 1_554 S
H717 N704 0.985 . S
C718 C719 1.363 . S
C718 C724 1.379 . S
C718 N726 1.356 . S
C719 C718 1.363 . S
C719 C725 1.363 . S
C720 C721 1.363 . S
C720 C725 1.379 . S
C720 N727 1.356 . S
C721 C720 1.363 . S
C721 C724 1.363 . S
N722 C724 1.356 . S
N722 H734 0.984 . S
N722 H735 0.985 . S
N723 C725 1.356 . S
N723 H728 0.984 . S
N723 H729 0.985 . S
C724 C718 1.379 . S
C724 C721 1.363 . S
C724 N722 1.356 . S
C725 C719 1.363 . S
C725 C720 1.379 . S
C725 N723 1.356 . S
N726 C718 1.356 . S
N726 H732 0.984 . S
N726 H733 0.984 . S
N727 C720 1.356 . S
N727 H730 0.984 . S
N727 H731 0.985 . S
H728 N723 0.984 . S
H729 N723 0.985 . S
H730 N727 0.984 . S
H731 N727 0.985 . S
H732 N726 0.984 . S
H733 N726 0.984 . S
H734 N722 0.984 . S
H735 N722 0.985 . S
C736 C737 1.363 . S
C736 C742 1.379 . S
C736 N744 1.356 . S
C737 C736 1.363 . S
C737 C743 1.363 . S
C738 C739 1.363 . S
C738 C743 1.379 . S
C738 N745 1.356 . S
C739 C738 1.363 . S
C739 C742 1.363 . S
N740 C742 1.356 . S
N740 H752 0.984 . S
N740 H753 0.985 . S
N741 C743 1.356 . S
N741 H746 0.984 . S
N741 H747 0.985 . S
C742 C736 1.379 . S
C742 C739 1.363 . S
C742 N740 1.356 . S
C743 C737 1.363 . S
C743 C738 1.379 . S
C743 N741 1.356 . S
N744 C736 1.356 . S
N744 H750 0.984 . S
N744 H751 0.984 . S
N745 C738 1.356 . S
N745 H748 0.984 . S
N745 H749 0.985 1_554 S
H746 N741 0.984 . S
H747 N741 0.985 . S
H748 N745 0.984 . S
H749 N745 0.985 1_556 S
H750 N744 0.984 . S
H751 N744 0.984 . S
H752 N740 0.984 . S
H753 N740 0.985 . S
C754 C755 1.363 . S
C754 C760 1.379 . S
C754 N762 1.356 . S
C755 C754 1.363 . S
C755 C761 1.363 . S
C756 C757 1.363 . S
C756 C761 1.379 . S
C756 N763 1.356 1_554 S
C757 C756 1.363 . S
C757 C760 1.363 . S
N758 C760 1.356 . S
N758 H770 0.984 . S
N758 H771 0.985 . S
N759 C761 1.356 . S
N759 H764 0.984 . S
N759 H765 0.985 1_554 S
C760 C754 1.379 . S
C760 C757 1.363 . S
C760 N758 1.356 . S
C761 C755 1.363 . S
C761 C756 1.379 . S
C761 N759 1.356 . S
N762 C754 1.356 . S
N762 H768 0.984 . S
N762 H769 0.984 . S
N763 C756 1.356 1_556 S
N763 H766 0.984 . S
N763 H767 0.985 . S
H764 N759 0.984 . S
H765 N759 0.985 1_556 S
H766 N763 0.984 . S
H767 N763 0.985 . S
H768 N762 0.984 . S
H769 N762 0.984 . S
H770 N758 0.984 . S
H771 N758 0.985 . S
C772 C773 1.363 . S
C772 C778 1.379 . S
C772 N780 1.356 . S
C773 C772 1.363 . S
C773 C779 1.363 . S
C774 C775 1.363 . S
C774 C779 1.379 . S
C774 N781 1.356 . S
C775 C774 1.363 . S
C775 C778 1.363 . S
N776 C778 1.356 . S
N776 H788 0.984 . S
N776 H789 0.985 . S
N777 C779 1.356 . S
N777 H782 0.984 . S
N777 H783 0.985 . S
C778 C772 1.379 . S
C778 C775 1.363 . S
C778 N776 1.356 . S
C779 C773 1.363 . S
C779 C774 1.379 . S
C779 N777 1.356 . S
N780 C772 1.356 . S
N780 H786 0.984 . S
N780 H787 0.984 . S
N781 C774 1.356 . S
N781 H784 0.984 . S
N781 H785 0.985 . S
H782 N777 0.984 . S
H783 N777 0.985 . S
H784 N781 0.984 . S
H785 N781 0.985 . S
H786 N780 0.984 . S
H787 N780 0.984 . S
H788 N776 0.984 . S
H789 N776 0.985 . S
C790 C791 1.363 . S
C790 C796 1.379 . S
C790 N798 1.356 . S
C791 C790 1.363 . S
C791 C797 1.363 . S
C792 C793 1.363 . S
C792 C797 1.379 . S
C792 N799 1.356 . S
C793 C792 1.363 . S
C793 C796 1.363 . S
N794 C796 1.356 . S
N794 H806 0.984 1_556 S
N794 H807 0.985 1_556 S
N795 C797 1.356 . S
N795 H800 0.984 . S
N795 H801 0.985 . S
C796 C790 1.379 . S
C796 C793 1.363 . S
C796 N794 1.356 . S
C797 C791 1.363 . S
C797 C792 1.379 . S
C797 N795 1.356 . S
N798 C790 1.356 . S
N798 H804 0.984 . S
N798 H805 0.984 . S
N799 C792 1.356 . S
N799 H802 0.984 . S
N799 H803 0.985 . S
H800 N795 0.984 . S
H801 N795 0.985 . S
H802 N799 0.984 . S
H803 N799 0.985 . S
H804 N798 0.984 . S
H805 N798 0.984 . S
H806 N794 0.984 1_554 S
H807 N794 0.985 1_554 S
C808 C809 1.363 . S
C808 C814 1.379 . S
C808 N816 1.356 . S
C809 C808 1.363 . S
C809 C815 1.363 . S
C810 C811 1.363 . S
C810 C815 1.379 . S
C810 N817 1.356 . S
C811 C810 1.363 . S
C811 C814 1.363 . S
N812 C814 1.356 . S
N812 H824 0.984 . S
N812 H825 0.985 . S
N813 C815 1.356 . S
N813 H818 0.984 . S
N813 H819 0.985 . S
C814 C808 1.379 . S
C814 C811 1.363 . S
C814 N812 1.356 . S
C815 C809 1.363 . S
C815 C810 1.379 . S
C815 N813 1.356 . S
N816 C808 1.356 . S
N816 H822 0.984 . S
N816 H823 0.984 . S
N817 C810 1.356 . S
N817 H820 0.984 . S
N817 H821 0.985 . S
H818 N813 0.984 . S
H819 N813 0.985 . S
H820 N817 0.984 . S
H821 N817 0.985 . S
H822 N816 0.984 . S
H823 N816 0.984 . S
H824 N812 0.984 . S
H825 N812 0.985 . S
C826 C827 1.363 . S
C826 C832 1.379 . S
C826 N834 1.356 . S
C827 C826 1.363 . S
C827 C833 1.363 . S
C828 C829 1.363 . S
C828 C833 1.379 . S
C828 N835 1.356 . S
C829 C828 1.363 . S
C829 C832 1.363 . S
N830 C832 1.356 . S
N830 H842 0.984 1_556 S
N830 H843 0.985 . S
N831 C833 1.356 . S
N831 H836 0.984 . S
N831 H837 0.985 . S
C832 C826 1.379 . S
C832 C829 1.363 . S
C832 N830 1.356 . S
C833 C827 1.363 . S
C833 C828 1.379 . S
C833 N831 1.356 . S
N834 C826 1.356 . S
N834 H840 0.984 . S
N834 H841 0.984 . S
N835 C828 1.356 . S
N835 H838 0.984 . S
N835 H839 0.985 . S
H836 N831 0.984 . S
H837 N831 0.985 . S
H838 N835 0.984 . S
H839 N835 0.985 . S
H840 N834 0.984 . S
H841 N834 0.984 . S
H842 N830 0.984 1_554 S
H843 N830 0.985 . S
C844 C845 1.363 . S
C844 C850 1.379 . S
C844 N852 1.356 . S
C845 C844 1.363 . S
C845 C851 1.363 . S
C846 C847 1.363 . S
C846 C851 1.379 . S
C846 N853 1.356 . S
C847 C846 1.363 . S
C847 C850 1.363 . S
N848 C850 1.356 . S
N848 H860 0.984 . S
N848 H861 0.985 . S
N849 C851 1.356 . S
N849 H854 0.984 . S
N849 H855 0.985 . S
C850 C844 1.379 . S
C850 C847 1.363 . S
C850 N848 1.356 . S
C851 C845 1.363 . S
C851 C846 1.379 . S
C851 N849 1.356 . S
N852 C844 1.356 . S
N852 H858 0.984 . S
N852 H859 0.984 . S
N853 C846 1.356 . S
N853 H856 0.984 . S
N853 H857 0.985 . S
H854 N849 0.984 . S
H855 N849 0.985 . S
H856 N853 0.984 . S
H857 N853 0.985 . S
H858 N852 0.984 . S
H859 N852 0.984 . S
H860 N848 0.984 . S
H861 N848 0.985 . S
C862 C863 1.363 . S
C862 C868 1.379 . S
C862 N870 1.356 . S
C863 C862 1.363 . S
C863 C869 1.363 . S
C864 C865 1.363 . S
C864 C869 1.379 . S
C864 N871 1.356 . S
C865 C864 1.363 . S
C865 C868 1.363 . S
N866 C868 1.356 . S
N866 H878 0.984 1_554 S
N866 H879 0.985 1_554 S
N867 C869 1.356 . S
N867 H872 0.984 . S
N867 H873 0.985 . S
C868 C862 1.379 . S
C868 C865 1.363 . S
C868 N866 1.356 . S
C869 C863 1.363 . S
C869 C864 1.379 . S
C869 N867 1.356 . S
N870 C862 1.356 . S
N870 H876 0.984 . S
N870 H877 0.984 . S
N871 C864 1.356 . S
N871 H874 0.984 . S
N871 H875 0.985 . S
H872 N867 0.984 . S
H873 N867 0.985 . S
H874 N871 0.984 . S
H875 N871 0.985 . S
H876 N870 0.984 . S
H877 N870 0.984 . S
H878 N866 0.984 1_556 S
H879 N866 0.985 1_556 S
C880 C881 1.363 . S
C880 C886 1.379 . S
C880 N888 1.356 . S
C881 C880 1.363 . S
C881 C887 1.363 . S
C882 C883 1.363 . S
C882 C887 1.379 . S
C882 N889 1.356 . S
C883 C882 1.363 . S
C883 C886 1.363 . S
N884 C886 1.356 . S
N884 H896 0.984 . S
N884 H897 0.985 . S
N885 C887 1.356 . S
N885 H890 0.984 . S
N885 H891 0.985 . S
C886 C880 1.379 . S
C886 C883 1.363 . S
C886 N884 1.356 . S
C887 C881 1.363 . S
C887 C882 1.379 . S
C887 N885 1.356 . S
N888 C880 1.356 . S
N888 H894 0.984 . S
N888 H895 0.984 . S
N889 C882 1.356 . S
N889 H892 0.984 . S
N889 H893 0.985 . S
H890 N885 0.984 . S
H891 N885 0.985 . S
H892 N889 0.984 . S
H893 N889 0.985 . S
H894 N888 0.984 . S
H895 N888 0.984 . S
H896 N884 0.984 . S
H897 N884 0.985 . S
C898 C899 1.363 . S
C898 C904 1.379 . S
C898 N906 1.356 . S
C899 C898 1.363 . S
C899 C905 1.363 . S
C900 C901 1.363 . S
C900 C905 1.379 . S
C900 N907 1.356 . S
C901 C900 1.363 . S
C901 C904 1.363 . S
N902 C904 1.356 . S
N902 H914 0.984 . S
N902 H915 0.985 . S
N903 C905 1.356 . S
N903 H908 0.984 . S
N903 H909 0.985 . S
C904 C898 1.379 . S
C904 C901 1.363 . S
C904 N902 1.356 . S
C905 C899 1.363 . S
C905 C900 1.379 . S
C905 N903 1.356 . S
N906 C898 1.356 . S
N906 H912 0.984 . S
N906 H913 0.984 . S
N907 C900 1.356 . S
N907 H910 0.984 . S
N907 H911 0.985 . S
H908 N903 0.984 . S
H909 N903 0.985 . S
H910 N907 0.984 . S
H911 N907 0.985 . S
H912 N906 0.984 . S
H913 N906 0.984 . S
H914 N902 0.984 . S
H915 N902 0.985 . S
C916 C917 1.363 . S
C916 C922 1.379 . S
C916 N924 1.356 . S
C917 C916 1.363 . S
C917 C923 1.363 . S
C918 C919 1.363 . S
C918 C923 1.379 . S
C918 N925 1.356 . S
C919 C918 1.363 . S
C919 C922 1.363 . S
N920 C922 1.356 . S
N920 H932 0.984 . S
N920 H933 0.985 . S
N921 C923 1.356 . S
N921 H926 0.984 . S
N921 H927 0.985 . S
C922 C916 1.379 . S
C922 C919 1.363 . S
C922 N920 1.356 . S
C923 C917 1.363 . S
C923 C918 1.379 . S
C923 N921 1.356 . S
N924 C916 1.356 . S
N924 H930 0.984 . S
N924 H931 0.984 . S
N925 C918 1.356 . S
N925 H928 0.984 . S
N925 H929 0.985 . S
H926 N921 0.984 . S
H927 N921 0.985 . S
H928 N925 0.984 . S
H929 N925 0.985 . S
H930 N924 0.984 . S
H931 N924 0.984 . S
H932 N920 0.984 . S
H933 N920 0.985 . S
C934 C935 1.363 . S
C934 C940 1.379 . S
C934 N942 1.356 . S
C935 C934 1.363 . S
C935 C941 1.363 . S
C936 C937 1.363 . S
C936 C941 1.379 . S
C936 N943 1.356 . S
C937 C936 1.363 . S
C937 C940 1.363 . S
N938 C940 1.356 . S
N938 H950 0.984 . S
N938 H951 0.985 . S
N939 C941 1.356 . S
N939 H944 0.984 . S
N939 H945 0.985 . S
C940 C934 1.379 . S
C940 C937 1.363 . S
C940 N938 1.356 . S
C941 C935 1.363 . S
C941 C936 1.379 . S
C941 N939 1.356 . S
N942 C934 1.356 . S
N942 H948 0.984 . S
N942 H949 0.984 . S
N943 C936 1.356 . S
N943 H946 0.984 . S
N943 H947 0.985 . S
H944 N939 0.984 . S
H945 N939 0.985 . S
H946 N943 0.984 . S
H947 N943 0.985 . S
H948 N942 0.984 . S
H949 N942 0.984 . S
H950 N938 0.984 . S
H951 N938 0.985 . S
C952 C953 1.363 . S
C952 C958 1.379 . S
C952 N960 1.356 . S
C953 C952 1.363 . S
C953 C959 1.363 . S
C954 C955 1.363 . S
C954 C959 1.379 . S
C954 N961 1.356 . S
C955 C954 1.363 . S
C955 C958 1.363 . S
N956 C958 1.356 . S
N956 H968 0.984 . S
N956 H969 0.985 . S
N957 C959 1.356 . S
N957 H962 0.984 . S
N957 H963 0.985 . S
C958 C952 1.379 . S
C958 C955 1.363 . S
C958 N956 1.356 . S
C959 C953 1.363 . S
C959 C954 1.379 . S
C959 N957 1.356 . S
N960 C952 1.356 . S
N960 H966 0.984 . S
N960 H967 0.984 . S
N961 C954 1.356 . S
N961 H964 0.984 . S
N961 H965 0.985 . S
H962 N957 0.984 . S
H963 N957 0.985 . S
H964 N961 0.984 . S
H965 N961 0.985 . S
H966 N960 0.984 . S
H967 N960 0.984 . S
H968 N956 0.984 . S
H969 N956 0.985 . S
C970 C971 1.363 . S
C970 C976 1.379 . S
C970 N978 1.356 . S
C971 C970 1.363 . S
C971 C977 1.363 . S
C972 C973 1.363 . S
C972 C977 1.379 . S
C972 N979 1.356 . S
C973 C972 1.363 . S
C973 C976 1.363 . S
N974 C976 1.356 . S
N974 H986 0.984 . S
N974 H987 0.985 . S
N975 C977 1.356 . S
N975 H980 0.984 . S
N975 H981 0.985 . S
C976 C970 1.379 . S
C976 C973 1.363 . S
C976 N974 1.356 . S
C977 C971 1.363 . S
C977 C972 1.379 . S
C977 N975 1.356 . S
N978 C970 1.356 . S
N978 H984 0.984 . S
N978 H985 0.984 . S
N979 C972 1.356 . S
N979 H982 0.984 . S
N979 H983 0.985 . S
H980 N975 0.984 . S
H981 N975 0.985 . S
H982 N979 0.984 . S
H983 N979 0.985 . S
H984 N978 0.984 . S
H985 N978 0.984 . S
H986 N974 0.984 . S
H987 N974 0.985 . S
C988 C989 1.363 . S
C988 C994 1.379 . S
C988 N996 1.356 . S
C989 C988 1.363 . S
C989 C995 1.363 . S
C990 C991 1.363 . S
C990 C995 1.379 . S
C990 N997 1.356 . S
C991 C990 1.363 . S
C991 C994 1.363 . S
N992 C994 1.356 . S
N992 H1004 0.984 . S
N992 H1005 0.985 . S
N993 C995 1.356 . S
N993 H998 0.984 . S
N993 H999 0.985 . S
C994 C988 1.379 . S
C994 C991 1.363 . S
C994 N992 1.356 . S
C995 C989 1.363 . S
C995 C990 1.379 . S
C995 N993 1.356 . S
N996 C988 1.356 . S
N996 H1002 0.984 . S
N996 H1003 0.984 . S
N997 C990 1.356 . S
N997 H1000 0.984 . S
N997 H1001 0.985 . S
H998 N993 0.984 . S
H999 N993 0.985 . S
H1000 N997 0.984 . S
H1001 N997 0.985 . S
H1002 N996 0.984 . S
H1003 N996 0.984 . S
H1004 N992 0.984 . S
H1005 N992 0.985 . S
C1006 C1007 1.363 . S
C1006 C1012 1.379 . S
C1006 N1014 1.356 . S
C1007 C1006 1.363 . S
C1007 C1013 1.363 . S
C1008 C1009 1.363 . S
C1008 C1013 1.379 . S
C1008 N1015 1.356 . S
C1009 C1008 1.363 . S
C1009 C1012 1.363 . S
N1010 C1012 1.356 . S
N1010 H1022 0.984 . S
N1010 H1023 0.985 . S
N1011 C1013 1.356 . S
N1011 H1016 0.984 . S
N1011 H1017 0.985 . S
C1012 C1006 1.379 . S
C1012 C1009 1.363 . S
C1012 N1010 1.356 . S
C1013 C1007 1.363 . S
C1013 C1008 1.379 . S
C1013 N1011 1.356 . S
N1014 C1006 1.356 . S
N1014 H1020 0.984 . S
N1014 H1021 0.984 . S
N1015 C1008 1.356 . S
N1015 H1018 0.984 . S
N1015 H1019 0.985 . S
H1016 N1011 0.984 . S
H1017 N1011 0.985 . S
H1018 N1015 0.984 . S
H1019 N1015 0.985 . S
H1020 N1014 0.984 . S
H1021 N1014 0.984 . S
H1022 N1010 0.984 . S
H1023 N1010 0.985 . S
C1024 C1025 1.363 . S
C1024 C1030 1.379 . S
C1024 N1032 1.356 . S
C1025 C1024 1.363 . S
C1025 C1031 1.363 . S
C1026 C1027 1.363 . S
C1026 C1031 1.379 . S
C1026 N1033 1.356 . S
C1027 C1026 1.363 . S
C1027 C1030 1.363 . S
N1028 C1030 1.356 . S
N1028 H1040 0.984 . S
N1028 H1041 0.985 . S
N1029 C1031 1.356 . S
N1029 H1034 0.984 . S
N1029 H1035 0.985 . S
C1030 C1024 1.379 . S
C1030 C1027 1.363 . S
C1030 N1028 1.356 . S
C1031 C1025 1.363 . S
C1031 C1026 1.379 . S
C1031 N1029 1.356 . S
N1032 C1024 1.356 . S
N1032 H1038 0.984 . S
N1032 H1039 0.984 . S
N1033 C1026 1.356 . S
N1033 H1036 0.984 . S
N1033 H1037 0.985 . S
H1034 N1029 0.984 . S
H1035 N1029 0.985 . S
H1036 N1033 0.984 . S
H1037 N1033 0.985 . S
H1038 N1032 0.984 . S
H1039 N1032 0.984 . S
H1040 N1028 0.984 . S
H1041 N1028 0.985 . S
C1042 C1043 1.363 . S
C1042 C1048 1.379 . S
C1042 N1050 1.356 . S
C1043 C1042 1.363 . S
C1043 C1049 1.363 . S
C1044 C1045 1.363 . S
C1044 C1049 1.379 . S
C1044 N1051 1.356 . S
C1045 C1044 1.363 . S
C1045 C1048 1.363 . S
N1046 C1048 1.356 . S
N1046 H1058 0.984 . S
N1046 H1059 0.985 . S
N1047 C1049 1.356 . S
N1047 H1052 0.984 . S
N1047 H1053 0.985 . S
C1048 C1042 1.379 . S
C1048 C1045 1.363 . S
C1048 N1046 1.356 . S
C1049 C1043 1.363 . S
C1049 C1044 1.379 . S
C1049 N1047 1.356 . S
N1050 C1042 1.356 . S
N1050 H1056 0.984 . S
N1050 H1057 0.984 . S
N1051 C1044 1.356 . S
N1051 H1054 0.984 . S
N1051 H1055 0.985 . S
H1052 N1047 0.984 . S
H1053 N1047 0.985 . S
H1054 N1051 0.984 . S
H1055 N1051 0.985 . S
H1056 N1050 0.984 . S
H1057 N1050 0.984 . S
H1058 N1046 0.984 . S
H1059 N1046 0.985 . S
C1060 C1061 1.363 . S
C1060 C1066 1.379 . S
C1060 N1068 1.356 . S
C1061 C1060 1.363 . S
C1061 C1067 1.363 . S
C1062 C1063 1.363 . S
C1062 C1067 1.379 . S
C1062 N1069 1.356 . S
C1063 C1062 1.363 . S
C1063 C1066 1.363 . S
N1064 C1066 1.356 . S
N1064 H1076 0.984 . S
N1064 H1077 0.985 . S
N1065 C1067 1.356 . S
N1065 H1070 0.984 . S
N1065 H1071 0.985 . S
C1066 C1060 1.379 . S
C1066 C1063 1.363 . S
C1066 N1064 1.356 . S
C1067 C1061 1.363 . S
C1067 C1062 1.379 . S
C1067 N1065 1.356 . S
N1068 C1060 1.356 . S
N1068 H1074 0.984 . S
N1068 H1075 0.984 . S
N1069 C1062 1.356 . S
N1069 H1072 0.984 . S
N1069 H1073 0.985 . S
H1070 N1065 0.984 . S
H1071 N1065 0.985 . S
H1072 N1069 0.984 . S
H1073 N1069 0.985 . S
H1074 N1068 0.984 . S
H1075 N1068 0.984 . S
H1076 N1064 0.984 . S
H1077 N1064 0.985 . S
C1078 C1079 1.363 . S
C1078 C1084 1.379 . S
C1078 N1086 1.356 . S
C1079 C1078 1.363 . S
C1079 C1085 1.363 . S
C1080 C1081 1.363 . S
C1080 C1085 1.379 . S
C1080 N1087 1.356 . S
C1081 C1080 1.363 . S
C1081 C1084 1.363 . S
N1082 C1084 1.356 . S
N1082 H1094 0.984 . S
N1082 H1095 0.985 . S
N1083 C1085 1.356 . S
N1083 H1088 0.984 . S
N1083 H1089 0.985 . S
C1084 C1078 1.379 . S
C1084 C1081 1.363 . S
C1084 N1082 1.356 . S
C1085 C1079 1.363 . S
C1085 C1080 1.379 . S
C1085 N1083 1.356 . S
N1086 C1078 1.356 . S
N1086 H1092 0.984 . S
N1086 H1093 0.984 . S
N1087 C1080 1.356 . S
N1087 H1090 0.984 . S
N1087 H1091 0.985 . S
H1088 N1083 0.984 . S
H1089 N1083 0.985 . S
H1090 N1087 0.984 . S
H1091 N1087 0.985 . S
H1092 N1086 0.984 . S
H1093 N1086 0.984 . S
H1094 N1082 0.984 . S
H1095 N1082 0.985 . S
C1096 C1097 1.363 . S
C1096 C1102 1.379 . S
C1096 N1104 1.356 . S
C1097 C1096 1.363 . S
C1097 C1103 1.363 . S
C1098 C1099 1.363 . S
C1098 C1103 1.379 . S
C1098 N1105 1.356 . S
C1099 C1098 1.363 . S
C1099 C1102 1.363 . S
N1100 C1102 1.356 . S
N1100 H1112 0.984 . S
N1100 H1113 0.985 . S
N1101 C1103 1.356 . S
N1101 H1106 0.984 . S
N1101 H1107 0.985 . S
C1102 C1096 1.379 . S
C1102 C1099 1.363 . S
C1102 N1100 1.356 . S
C1103 C1097 1.363 . S
C1103 C1098 1.379 . S
C1103 N1101 1.356 . S
N1104 C1096 1.356 . S
N1104 H1110 0.984 . S
N1104 H1111 0.984 . S
N1105 C1098 1.356 . S
N1105 H1108 0.984 . S
N1105 H1109 0.985 . S
H1106 N1101 0.984 . S
H1107 N1101 0.985 . S
H1108 N1105 0.984 . S
H1109 N1105 0.985 . S
H1110 N1104 0.984 . S
H1111 N1104 0.984 . S
H1112 N1100 0.984 . S
H1113 N1100 0.985 . S
C1114 C1115 1.363 . S
C1114 C1120 1.379 . S
C1114 N1122 1.356 . S
C1115 C1114 1.363 . S
C1115 C1121 1.363 . S
C1116 C1117 1.363 . S
C1116 C1121 1.379 . S
C1116 N1123 1.356 . S
C1117 C1116 1.363 . S
C1117 C1120 1.363 . S
N1118 C1120 1.356 . S
N1118 H1130 0.984 . S
N1118 H1131 0.985 . S
N1119 C1121 1.356 . S
N1119 H1124 0.984 . S
N1119 H1125 0.985 . S
C1120 C1114 1.379 . S
C1120 C1117 1.363 . S
C1120 N1118 1.356 . S
C1121 C1115 1.363 . S
C1121 C1116 1.379 . S
C1121 N1119 1.356 . S
N1122 C1114 1.356 . S
N1122 H1128 0.984 . S
N1122 H1129 0.984 . S
N1123 C1116 1.356 . S
N1123 H1126 0.984 . S
N1123 H1127 0.985 . S
H1124 N1119 0.984 . S
H1125 N1119 0.985 . S
H1126 N1123 0.984 . S
H1127 N1123 0.985 . S
H1128 N1122 0.984 . S
H1129 N1122 0.984 . S
H1130 N1118 0.984 . S
H1131 N1118 0.985 . S
C1132 C1133 1.363 . S
C1132 C1138 1.379 . S
C1132 N1140 1.356 . S
C1133 C1132 1.363 . S
C1133 C1139 1.363 . S
C1134 C1135 1.363 . S
C1134 C1139 1.379 . S
C1134 N1141 1.356 . S
C1135 C1134 1.363 . S
C1135 C1138 1.363 . S
N1136 C1138 1.356 . S
N1136 H1148 0.984 . S
N1136 H1149 0.985 . S
N1137 C1139 1.356 . S
N1137 H1142 0.984 . S
N1137 H1143 0.985 . S
C1138 C1132 1.379 . S
C1138 C1135 1.363 . S
C1138 N1136 1.356 . S
C1139 C1133 1.363 . S
C1139 C1134 1.379 . S
C1139 N1137 1.356 . S
N1140 C1132 1.356 . S
N1140 H1146 0.984 . S
N1140 H1147 0.984 . S
N1141 C1134 1.356 . S
N1141 H1144 0.984 . S
N1141 H1145 0.985 . S
H1142 N1137 0.984 . S
H1143 N1137 0.985 . S
H1144 N1141 0.984 . S
H1145 N1141 0.985 . S
H1146 N1140 0.984 . S
H1147 N1140 0.984 . S
H1148 N1136 0.984 . S
H1149 N1136 0.985 . S
C1150 C1151 1.363 . S
C1150 C1156 1.379 . S
C1150 N1158 1.356 . S
C1151 C1150 1.363 . S
C1151 C1157 1.363 . S
C1152 C1153 1.363 . S
C1152 C1157 1.379 . S
C1152 N1159 1.356 . S
C1153 C1152 1.363 . S
C1153 C1156 1.363 . S
N1154 C1156 1.356 . S
N1154 H1166 0.984 . S
N1154 H1167 0.985 . S
N1155 C1157 1.356 . S
N1155 H1160 0.984 . S
N1155 H1161 0.985 . S
C1156 C1150 1.379 . S
C1156 C1153 1.363 . S
C1156 N1154 1.356 . S
C1157 C1151 1.363 . S
C1157 C1152 1.379 . S
C1157 N1155 1.356 . S
N1158 C1150 1.356 . S
N1158 H1164 0.984 . S
N1158 H1165 0.984 . S
N1159 C1152 1.356 . S
N1159 H1162 0.984 . S
N1159 H1163 0.985 . S
H1160 N1155 0.984 . S
H1161 N1155 0.985 . S
H1162 N1159 0.984 . S
H1163 N1159 0.985 . S
H1164 N1158 0.984 . S
H1165 N1158 0.984 . S
H1166 N1154 0.984 . S
H1167 N1154 0.985 . S
C1168 C1169 1.363 . S
C1168 C1174 1.379 . S
C1168 N1176 1.356 . S
C1169 C1168 1.363 . S
C1169 C1175 1.363 . S
C1170 C1171 1.363 . S
C1170 C1175 1.379 . S
C1170 N1177 1.356 . S
C1171 C1170 1.363 . S
C1171 C1174 1.363 . S
N1172 C1174 1.356 . S
N1172 H1184 0.984 . S
N1172 H1185 0.985 . S
N1173 C1175 1.356 . S
N1173 H1178 0.984 . S
N1173 H1179 0.985 . S
C1174 C1168 1.379 . S
C1174 C1171 1.363 . S
C1174 N1172 1.356 . S
C1175 C1169 1.363 . S
C1175 C1170 1.379 . S
C1175 N1173 1.356 . S
N1176 C1168 1.356 . S
N1176 H1182 0.984 . S
N1176 H1183 0.984 . S
N1177 C1170 1.356 . S
N1177 H1180 0.984 . S
N1177 H1181 0.985 . S
H1178 N1173 0.984 . S
H1179 N1173 0.985 . S
H1180 N1177 0.984 . S
H1181 N1177 0.985 . S
H1182 N1176 0.984 . S
H1183 N1176 0.984 . S
H1184 N1172 0.984 . S
H1185 N1172 0.985 . S
C1186 C1187 1.363 . S
C1186 C1192 1.379 . S
C1186 N1194 1.356 . S
C1187 C1186 1.363 . S
C1187 C1193 1.363 . S
C1188 C1189 1.363 . S
C1188 C1193 1.379 . S
C1188 N1195 1.356 . S
C1189 C1188 1.363 . S
C1189 C1192 1.363 . S
N1190 C1192 1.356 . S
N1190 H1202 0.984 . S
N1190 H1203 0.985 . S
N1191 C1193 1.356 . S
N1191 H1196 0.984 . S
N1191 H1197 0.985 . S
C1192 C1186 1.379 . S
C1192 C1189 1.363 . S
C1192 N1190 1.356 . S
C1193 C1187 1.363 . S
C1193 C1188 1.379 . S
C1193 N1191 1.356 . S
N1194 C1186 1.356 . S
N1194 H1200 0.984 . S
N1194 H1201 0.984 . S
N1195 C1188 1.356 . S
N1195 H1198 0.984 . S
N1195 H1199 0.985 . S
H1196 N1191 0.984 . S
H1197 N1191 0.985 . S
H1198 N1195 0.984 . S
H1199 N1195 0.985 . S
H1200 N1194 0.984 . S
H1201 N1194 0.984 . S
H1202 N1190 0.984 . S
H1203 N1190 0.985 . S
C1204 C1205 1.363 . S
C1204 C1210 1.379 . S
C1204 N1212 1.356 . S
C1205 C1204 1.363 . S
C1205 C1211 1.363 . S
C1206 C1207 1.363 . S
C1206 C1211 1.379 . S
C1206 N1213 1.356 . S
C1207 C1206 1.363 . S
C1207 C1210 1.363 . S
N1208 C1210 1.356 . S
N1208 H1220 0.984 . S
N1208 H1221 0.985 . S
N1209 C1211 1.356 . S
N1209 H1214 0.984 . S
N1209 H1215 0.985 . S
C1210 C1204 1.379 . S
C1210 C1207 1.363 . S
C1210 N1208 1.356 . S
C1211 C1205 1.363 . S
C1211 C1206 1.379 . S
C1211 N1209 1.356 . S
N1212 C1204 1.356 . S
N1212 H1218 0.984 . S
N1212 H1219 0.984 . S
N1213 C1206 1.356 . S
N1213 H1216 0.984 . S
N1213 H1217 0.985 . S
H1214 N1209 0.984 . S
H1215 N1209 0.985 . S
H1216 N1213 0.984 . S
H1217 N1213 0.985 . S
H1218 N1212 0.984 . S
H1219 N1212 0.984 . S
H1220 N1208 0.984 . S
H1221 N1208 0.985 . S
C361 C187 1.408 . S
C359 C9 1.554 . S
C379 C188 1.475 . S
C377 C22 1.499 . S
C397 C182 1.238 . S
C395 C49 1.250 . S
C413 C61 1.020 . S
C415 C181 1.021 . S
C431 C81 1.498 . S
C433 C184 1.474 . S
C451 C186 1.238 . S
C449 C108 1.249 . S
C467 C122 1.020 . S
C469 C185 1.023 . S
C485 C148 1.555 . S
C487 C183 1.409 . S
C505 C218 2.212 . S
C503 C18 2.131 . S
C521 C39 1.547 . S
C523 C249 1.578 . S
C541 C217 2.080 . S
C539 C58 2.093 . S
C559 C252 1.162 . S
C557 C69 1.180 . S
C575 C89 1.370 . S
C577 C215 1.371 . S
C595 C247 1.290 . S
C593 C102 1.302 . S
C611 C139 1.346 . S
C613 C220 1.394 . S
C629 C142 1.262 . S
C631 C254 1.208 . S
C647 C1 1.262 . S
C649 C250 1.206 . S
C665 C98 1.547 . S
C667 C253 1.577 . S
C685 C221 2.080 . S
C683 C119 2.095 . S
C703 C248 1.162 . S
C701 C128 1.183 . S
C719 C159 2.132 . S
C721 C214 2.213 . S
C737 C41 1.302 . S
C739 C251 1.291 . S
C757 C216 1.393 . S
C755 C78 1.344 . S
C773 C28 1.370 . S
C775 C219 1.369 . S
C791 C149 1.545 . S
C793 C286 1.424 . S
C809 C82 1.272 . S
C811 C287 1.228 . S
C829 C281 1.263 . S
C827 C109 1.293 . S
C847 C280 1.311 . S
C845 C121 1.288 . S
C863 C21 1.272 . S
C865 C283 1.228 . S
C883 C285 1.263 . S
C881 C48 1.290 . S
C899 C62 1.287 . S
C901 C284 1.310 . S
C917 C8 1.545 . S
C919 C282 1.422 . S
C935 C158 2.277 . S
C937 C320 2.223 . S
C955 C352 1.387 . S
C953 C99 1.344 . S
C971 C118 1.995 . S
C973 C313 2.008 . S
C989 C129 1.440 . S
C991 C347 1.441 . S
C1009 C318 1.222 . S
C1007 C29 1.187 . S
C1025 C42 1.525 . S
C1027 C349 1.484 . S
C1045 C315 1.628 . S
C1043 C79 1.573 . S
C1063 C350 1.327 . S
C1061 C2 1.306 . S
C1081 C346 1.327 . S
C1079 C141 1.306 . S
C1097 C38 1.345 . S
C1099 C348 1.387 . S
C1115 C59 1.995 . S
C1117 C317 2.009 . S
C1135 C351 1.441 . S
C1133 C68 1.439 . S
C1151 C19 2.277 . S
C1153 C316 2.221 . S
C1169 C101 1.525 . S
C1171 C353 1.484 . S
C1189 C319 1.628 . S
C1187 C138 1.574 . S
C1207 C314 1.222 . S
C1205 C88 1.186 . S
