# Generated by pormake.
# Topology myd, (4,6)-cn, num edge types: 1
# Building blocks:
#     Node 0, Type 0, BuildingBlock: KOZSID_clean_sbu_0, # of connection points: 4
#     Node 1, Type 0, BuildingBlock: KOZSID_clean_sbu_0, # of connection points: 4
#     Node 2, Type 0, BuildingBlock: KOZSID_clean_sbu_0, # of connection points: 4
#     Node 3, Type 0, BuildingBlock: KOZSID_clean_sbu_0, # of connection points: 4
#     Node 4, Type 0, BuildingBlock: KOZSID_clean_sbu_0, # of connection points: 4
#     Node 5, Type 0, BuildingBlock: KOZSID_clean_sbu_0, # of connection points: 4
#     Node 6, Type 0, BuildingBlock: KOZSID_clean_sbu_0, # of connection points: 4
#     Node 7, Type 0, BuildingBlock: KOZSID_clean_sbu_0, # of connection points: 4
#     Node 8, Type 0, BuildingBlock: KOZSID_clean_sbu_0, # of connection points: 4
#     Node 9, Type 0, BuildingBlock: KOZSID_clean_sbu_0, # of connection points: 4
#     Node 10, Type 0, BuildingBlock: KOZSID_clean_sbu_0, # of connection points: 4
#     Node 11, Type 0, BuildingBlock: KOZSID_clean_sbu_0, # of connection points: 4
#     Node 12, Type 1, BuildingBlock: VOLQOD_clean_sbu_1, # of connection points: 6
#     Node 13, Type 1, BuildingBlock: VOLQOD_clean_sbu_1, # of connection points: 6
#     Node 14, Type 1, BuildingBlock: VOLQOD_clean_sbu_1, # of connection points: 6
#     Node 15, Type 1, BuildingBlock: VOLQOD_clean_sbu_1, # of connection points: 6
#     Node 16, Type 1, BuildingBlock: VOLQOD_clean_sbu_1, # of connection points: 6
#     Node 17, Type 1, BuildingBlock: VOLQOD_clean_sbu_1, # of connection points: 6
#     Node 18, Type 1, BuildingBlock: VOLQOD_clean_sbu_1, # of connection points: 6
#     Node 19, Type 1, BuildingBlock: VOLQOD_clean_sbu_1, # of connection points: 6
#     Edge 20, Type (0, 1), BuildingBlock: EZIPEK_clean_linker_0, # of connection points: 2
#     Edge 21, Type (0, 1), BuildingBlock: EZIPEK_clean_linker_0, # of connection points: 2
#     Edge 22, Type (0, 1), BuildingBlock: EZIPEK_clean_linker_0, # of connection points: 2
#     Edge 23, Type (0, 1), BuildingBlock: EZIPEK_clean_linker_0, # of connection points: 2
#     Edge 24, Type (0, 1), BuildingBlock: EZIPEK_clean_linker_0, # of connection points: 2
#     Edge 25, Type (0, 1), BuildingBlock: EZIPEK_clean_linker_0, # of connection points: 2
#     Edge 26, Type (0, 1), BuildingBlock: EZIPEK_clean_linker_0, # of connection points: 2
#     Edge 27, Type (0, 1), BuildingBlock: EZIPEK_clean_linker_0, # of connection points: 2
#     Edge 28, Type (0, 1), BuildingBlock: EZIPEK_clean_linker_0, # of connection points: 2
#     Edge 29, Type (0, 1), BuildingBlock: EZIPEK_clean_linker_0, # of connection points: 2
#     Edge 30, Type (0, 1), BuildingBlock: EZIPEK_clean_linker_0, # of connection points: 2
#     Edge 31, Type (0, 1), BuildingBlock: EZIPEK_clean_linker_0, # of connection points: 2
#     Edge 32, Type (0, 1), BuildingBlock: EZIPEK_clean_linker_0, # of connection points: 2
#     Edge 33, Type (0, 1), BuildingBlock: EZIPEK_clean_linker_0, # of connection points: 2
#     Edge 34, Type (0, 1), BuildingBlock: EZIPEK_clean_linker_0, # of connection points: 2
#     Edge 35, Type (0, 1), BuildingBlock: EZIPEK_clean_linker_0, # of connection points: 2
#     Edge 36, Type (0, 1), BuildingBlock: EZIPEK_clean_linker_0, # of connection points: 2
#     Edge 37, Type (0, 1), BuildingBlock: EZIPEK_clean_linker_0, # of connection points: 2
#     Edge 38, Type (0, 1), BuildingBlock: EZIPEK_clean_linker_0, # of connection points: 2
#     Edge 39, Type (0, 1), BuildingBlock: EZIPEK_clean_linker_0, # of connection points: 2
#     Edge 40, Type (0, 1), BuildingBlock: EZIPEK_clean_linker_0, # of connection points: 2
#     Edge 41, Type (0, 1), BuildingBlock: EZIPEK_clean_linker_0, # of connection points: 2
#     Edge 42, Type (0, 1), BuildingBlock: EZIPEK_clean_linker_0, # of connection points: 2
#     Edge 43, Type (0, 1), BuildingBlock: EZIPEK_clean_linker_0, # of connection points: 2
#     Edge 44, Type (0, 1), BuildingBlock: EZIPEK_clean_linker_0, # of connection points: 2
#     Edge 45, Type (0, 1), BuildingBlock: EZIPEK_clean_linker_0, # of connection points: 2
#     Edge 46, Type (0, 1), BuildingBlock: EZIPEK_clean_linker_0, # of connection points: 2
#     Edge 47, Type (0, 1), BuildingBlock: EZIPEK_clean_linker_0, # of connection points: 2
#     Edge 48, Type (0, 1), BuildingBlock: EZIPEK_clean_linker_0, # of connection points: 2
#     Edge 49, Type (0, 1), BuildingBlock: EZIPEK_clean_linker_0, # of connection points: 2
#     Edge 50, Type (0, 1), BuildingBlock: EZIPEK_clean_linker_0, # of connection points: 2
#     Edge 51, Type (0, 1), BuildingBlock: EZIPEK_clean_linker_0, # of connection points: 2
#     Edge 52, Type (0, 1), BuildingBlock: EZIPEK_clean_linker_0, # of connection points: 2
#     Edge 53, Type (0, 1), BuildingBlock: EZIPEK_clean_linker_0, # of connection points: 2
#     Edge 54, Type (0, 1), BuildingBlock: EZIPEK_clean_linker_0, # of connection points: 2
#     Edge 55, Type (0, 1), BuildingBlock: EZIPEK_clean_linker_0, # of connection points: 2
#     Edge 56, Type (0, 1), BuildingBlock: EZIPEK_clean_linker_0, # of connection points: 2
#     Edge 57, Type (0, 1), BuildingBlock: EZIPEK_clean_linker_0, # of connection points: 2
#     Edge 58, Type (0, 1), BuildingBlock: EZIPEK_clean_linker_0, # of connection points: 2
#     Edge 59, Type (0, 1), BuildingBlock: EZIPEK_clean_linker_0, # of connection points: 2
#     Edge 60, Type (0, 1), BuildingBlock: EZIPEK_clean_linker_0, # of connection points: 2
#     Edge 61, Type (0, 1), BuildingBlock: EZIPEK_clean_linker_0, # of connection points: 2
#     Edge 62, Type (0, 1), BuildingBlock: EZIPEK_clean_linker_0, # of connection points: 2
#     Edge 63, Type (0, 1), BuildingBlock: EZIPEK_clean_linker_0, # of connection points: 2
#     Edge 64, Type (0, 1), BuildingBlock: EZIPEK_clean_linker_0, # of connection points: 2
#     Edge 65, Type (0, 1), BuildingBlock: EZIPEK_clean_linker_0, # of connection points: 2
#     Edge 66, Type (0, 1), BuildingBlock: EZIPEK_clean_linker_0, # of connection points: 2
#     Edge 67, Type (0, 1), BuildingBlock: EZIPEK_clean_linker_0, # of connection points: 2
# Relax obj value: 0.178
# Max RMSD: 0.170
# Mean RMSD: 0.130
data_MOF--net-myd--node1-KOZSID_clean_sbu_0--node2-VOLQOD_clean_sbu_1--edge1-EZIPEK_clean_linker_0
_symmetry_space_group_name_H-M    P1
_symmetry_Int_Tables_number       1
_symmetry_cell_setting            triclinic
loop_
_symmetry_equiv_pos_as_xyz
'x, y, z'
_cell_length_a     39.947821
_cell_length_b     40.046817
_cell_length_c     40.0266
_cell_angle_alpha  93.154749
_cell_angle_beta   90.671533
_cell_angle_gamma 93.806484
loop_
_atom_site_label
_atom_site_type_symbol
_atom_site_fract_x
_atom_site_fract_y
_atom_site_fract_z
_atom_type_partial_charge
C0 C 0.971 0.29775 0.35156 0.0
C1 C 0.93831 0.30571 0.35778 0.0
C2 C 0.91783 0.28108 0.3417 0.0
C3 C 0.93909 0.25972 0.32636 0.0
N4 N 0.97192 0.26873 0.33236 0.0
Co5 Co 0.01125 0.24783 0.31082 0.0
N6 N 0.98136 0.21635 0.28118 0.0
C7 C 0.94753 0.21218 0.28247 0.0
C8 C 0.93373 0.18942 0.25851 0.0
C9 C 0.96031 0.1783 0.24097 0.0
C10 C 0.98901 0.19477 0.25543 0.0
N11 N 0.05074 0.2283 0.28842 0.0
C12 C 0.05198 0.20491 0.26272 0.0
C13 C 0.08484 0.19815 0.25536 0.0
C14 C 0.10504 0.21844 0.27669 0.0
C15 C 0.08352 0.23625 0.29589 0.0
N16 N 0.04105 0.27879 0.34097 0.0
C17 C 0.07476 0.27895 0.3442 0.0
C18 C 0.08836 0.30374 0.36627 0.0
C19 C 0.06181 0.32088 0.37726 0.0
C20 C 0.0335 0.30556 0.36106 0.0
N21 N 0.01097 0.2126 0.34462 0.0
C22 C 0.00955 0.15308 0.37955 0.0
C23 C 0.03993 0.16943 0.37116 0.0
C24 C 0.04008 0.19918 0.3543 0.0
C25 C 0.98008 0.16855 0.3731 0.0
C26 C 0.98138 0.1982 0.35601 0.0
N27 N 0.01121 0.28205 0.27692 0.0
C28 C 0.03912 0.32662 0.24703 0.0
C29 C 0.00923 0.33178 0.23007 0.0
C30 C 0.98065 0.3115 0.23665 0.0
C31 C 0.98212 0.28714 0.26004 0.0
C32 C 0.03966 0.3014 0.27 0.0
H33 H 0.9593 0.27278 0.26422 0.0
H34 H 0.06305 0.29821 0.28237 0.0
H35 H 0.06412 0.21014 0.34857 0.0
H36 H 0.95793 0.20825 0.35154 0.0
C37 C 0.92925 0.23302 0.30355 0.0
C38 C 1.00049 0.31905 0.36329 0.0
C39 C 0.02296 0.18903 0.24396 0.0
C40 C 0.0932 0.25936 0.32223 0.0
H41 H 0.93008 0.32751 0.37172 0.0
H42 H 0.89071 0.27981 0.34003 0.0
H43 H 0.90738 0.1826 0.25361 0.0
H44 H 0.95865 0.16031 0.21974 0.0
H45 H 0.09338 0.18041 0.23648 0.0
H46 H 0.13217 0.21982 0.27819 0.0
H47 H 0.11465 0.30992 0.37207 0.0
H48 H 0.06323 0.34306 0.39407 0.0
H49 H 0.06344 0.15869 0.37659 0.0
H50 H 0.95602 0.15707 0.38005 0.0
H51 H 0.06184 0.34189 0.2425 0.0
H52 H 0.95709 0.31464 0.22388 0.0
C53 C 0.97872 0.70051 0.12328 0.0
C54 C 0.9469 0.68824 0.11234 0.0
C55 C 0.92493 0.71011 0.12517 0.0
C56 C 0.94447 0.73408 0.14347 0.0
N57 N 0.97762 0.72928 0.14252 0.0
Co58 Co 0.01434 0.755 0.16942 0.0
N59 N 0.98157 0.78328 0.19287 0.0
C60 C 0.94881 0.78486 0.18473 0.0
C61 C 0.93331 0.80907 0.20314 0.0
C62 C 0.95768 0.82385 0.22426 0.0
C63 C 0.98666 0.80748 0.21765 0.0
N64 N 0.05083 0.77858 0.19831 0.0
C65 C 0.04863 0.79983 0.22556 0.0
C66 C 0.07982 0.80736 0.24092 0.0
C67 C 0.10255 0.79084 0.22222 0.0
C68 C 0.084 0.77377 0.19698 0.0
N69 N 0.04728 0.72828 0.14431 0.0
C70 C 0.08105 0.73318 0.14556 0.0
C71 C 0.09689 0.71107 0.12475 0.0
C72 C 0.07167 0.69069 0.10966 0.0
C73 C 0.04187 0.70156 0.12235 0.0
N74 N 0.01937 0.7897 0.13563 0.0
C75 C 0.02212 0.84718 0.09843 0.0
C76 C 0.04984 0.83924 0.11697 0.0
C77 C 0.04813 0.81038 0.13487 0.0
C78 C 0.9941 0.82454 0.09603 0.0
C79 C 0.99333 0.79594 0.1146 0.0
N80 N 0.00934 0.72112 0.20328 0.0
C81 C 0.03385 0.6816 0.23811 0.0
C82 C 0.00313 0.67499 0.25346 0.0
C83 C 0.97539 0.69139 0.24299 0.0
C84 C 0.97896 0.7141 0.21777 0.0
C85 C 0.03649 0.7049 0.21347 0.0
H86 H 0.95704 0.72609 0.21049 0.0
H87 H 0.06066 0.70933 0.20276 0.0
H88 H 0.07025 0.80613 0.14853 0.0
H89 H 0.971 0.77993 0.11197 0.0
C90 C 0.93263 0.76106 0.16229 0.0
C91 C 0.0093 0.68394 0.11539 0.0
C92 C 0.01789 0.81457 0.2367 0.0
C93 C 0.0969 0.75385 0.17106 0.0
H94 H 0.9401 0.66567 0.09703 0.0
H95 H 0.8979 0.7083 0.12217 0.0
H96 H 0.9072 0.81468 0.20198 0.0
H97 H 0.95434 0.84395 0.24288 0.0
H98 H 0.08571 0.82342 0.2631 0.0
H99 H 0.12938 0.79124 0.22652 0.0
H100 H 0.1236 0.70863 0.12247 0.0
H101 H 0.0748 0.66933 0.09248 0.0
H102 H 0.07243 0.85585 0.11849 0.0
H103 H 0.9725 0.82955 0.08095 0.0
H104 H 0.05585 0.66926 0.24558 0.0
H105 H 0.95119 0.6869 0.25445 0.0
C106 C 0.36497 0.9683 0.29918 0.0
C107 C 0.37711 0.93704 0.30271 0.0
C108 C 0.36849 0.91822 0.27378 0.0
C109 C 0.35168 0.93901 0.25421 0.0
N110 N 0.34936 0.96969 0.26903 0.0
Co111 Co 0.32625 0.00703 0.25031 0.0
N112 N 0.29999 0.97628 0.21744 0.0
C113 C 0.30682 0.94446 0.20883 0.0
C114 C 0.28414 0.92891 0.18604 0.0
C115 C 0.26205 0.95258 0.1794 0.0
C116 C 0.27275 0.98155 0.19825 0.0
N117 N 0.30338 0.04482 0.23189 0.0
C118 C 0.27689 0.0447 0.21028 0.0
C119 C 0.27122 0.07711 0.20193 0.0
C120 C 0.29506 0.09804 0.21861 0.0
C121 C 0.31405 0.07744 0.23606 0.0
N122 N 0.35266 0.03744 0.28323 0.0
C123 C 0.35788 0.07086 0.28191 0.0
C124 C 0.37521 0.08541 0.30939 0.0
C125 C 0.38119 0.05952 0.32923 0.0
C126 C 0.3674 0.03047 0.31254 0.0
N127 N 0.36172 0.01283 0.217 0.0
C128 C 0.40993 0.01878 0.16694 0.0
C129 C 0.41968 0.01428 0.20012 0.0
C130 C 0.39504 0.01131 0.22489 0.0
C131 C 0.37601 0.0206 0.15953 0.0
C132 C 0.35256 0.01771 0.18471 0.0
N133 N 0.29079 1.00089 0.28315 0.0
C134 C 0.25743 0.02274 0.32793 0.0
C135 C 0.24598 0.9901 0.3363 0.0
C136 C 0.25359 0.96396 0.3131 0.0
C137 C 0.27661 0.96959 0.28776 0.0
C138 C 0.28021 0.02747 0.30199 0.0
H139 H 0.28329 0.94834 0.27222 0.0
H140 H 0.28952 0.05267 0.29739 0.0
H141 H 0.40282 0.00766 0.25029 0.0
H142 H 0.32687 0.01933 0.17776 0.0
C143 C 0.33186 0.92888 0.22587 0.0
C144 C 0.36974 0.99651 0.32425 0.0
C145 C 0.25934 0.0145 0.1939 0.0
C146 C 0.33999 0.08797 0.25882 0.0
H147 H 0.39044 0.9287 0.32408 0.0
H148 H 0.37236 0.89197 0.26851 0.0
H149 H 0.28333 0.90324 0.17592 0.0
H150 H 0.24114 0.94919 0.16185 0.0
H151 H 0.25254 0.08483 0.18469 0.0
H152 H 0.2981 0.12507 0.2181 0.0
H153 H 0.38097 0.11188 0.31534 0.0
H154 H 0.39389 0.06193 0.35334 0.0
H155 H 0.44592 0.01304 0.20672 0.0
H156 H 0.3676 0.02434 0.13424 0.0
H157 H 0.24894 0.04506 0.34041 0.0
H158 H 0.24213 0.93886 0.31405 0.0
C159 C 0.63789 0.4725 0.22216 0.0
C160 C 0.61859 0.44297 0.21439 0.0
C161 C 0.62644 0.42099 0.23802 0.0
C162 C 0.64999 0.43835 0.2588 0.0
N163 N 0.65735 0.46974 0.2496 0.0
Co164 Co 0.68931 0.50355 0.27253 0.0
N165 N 0.71222 0.4686 0.29556 0.0
C166 C 0.69929 0.43726 0.3 0.0
C167 C 0.72018 0.41909 0.31825 0.0
C168 C 0.74776 0.44048 0.32609 0.0
C169 C 0.74215 0.47059 0.31204 0.0
N170 N 0.72124 0.53766 0.29533 0.0
C171 C 0.75119 0.53386 0.31032 0.0
C172 C 0.76632 0.56479 0.32152 0.0
C173 C 0.74444 0.58842 0.31434 0.0
C174 C 0.71746 0.57084 0.29878 0.0
N175 N 0.66597 0.53832 0.24967 0.0
C176 C 0.66769 0.57135 0.25828 0.0
C177 C 0.65114 0.58942 0.2359 0.0
C178 C 0.63821 0.56632 0.2118 0.0
C179 C 0.64719 0.53522 0.22115 0.0
N180 N 0.65874 0.50721 0.31043 0.0
C181 C 0.61727 0.50655 0.3663 0.0
C182 C 0.60334 0.50672 0.33396 0.0
C183 C 0.62465 0.50712 0.3062 0.0
C184 C 0.65199 0.50747 0.37008 0.0
C185 C 0.67208 0.50791 0.34203 0.0
N186 N 0.72025 0.49953 0.23506 0.0
C187 C 0.75699 0.52498 0.19498 0.0
C188 C 0.76434 0.49346 0.18023 0.0
C189 C 0.75192 0.46535 0.19735 0.0
C190 C 0.72939 0.46879 0.22364 0.0
C191 C 0.73453 0.52743 0.22145 0.0
H192 H 0.71947 0.4464 0.2348 0.0
H193 H 0.72918 0.55207 0.23128 0.0
H194 H 0.61364 0.50689 0.28141 0.0
H195 H 0.69855 0.50808 0.34592 0.0
C196 C 0.66973 0.42468 0.28311 0.0
C197 C 0.63669 0.50299 0.2036 0.0
C198 C 0.76404 0.50139 0.31771 0.0
C199 C 0.69143 0.585 0.28203 0.0
H200 H 0.6009 0.4379 0.19375 0.0
H201 H 0.61716 0.39506 0.23902 0.0
H202 H 0.71619 0.3932 0.32457 0.0
H203 H 0.76922 0.43478 0.34097 0.0
H204 H 0.79044 0.56987 0.33396 0.0
H205 H 0.74838 0.61531 0.31875 0.0
H206 H 0.65054 0.6164 0.23576 0.0
H207 H 0.62431 0.57202 0.18975 0.0
H208 H 0.57642 0.50638 0.33027 0.0
H209 H 0.6636 0.5077 0.39472 0.0
H210 H 0.769 0.54817 0.18734 0.0
H211 H 0.75971 0.44047 0.19162 0.0
C212 C 0.32198 0.3848 0.98332 0.0
C213 C 0.33053 0.39905 0.9535 0.0
C214 C 0.31033 0.38278 0.92911 0.0
C215 C 0.29038 0.35988 0.94541 0.0
N216 N 0.29627 0.36106 0.97875 0.0
Co217 Co 0.27154 0.33403 0.01222 0.0
N218 N 0.24768 0.30449 0.97611 0.0
C219 C 0.25128 0.3066 0.9427 0.0
C220 C 0.23373 0.28134 0.92412 0.0
C221 C 0.21819 0.2618 0.94704 0.0
C222 C 0.22689 0.27659 0.9784 0.0
N223 N 0.24561 0.30833 0.04589 0.0
C224 C 0.22229 0.28232 0.04146 0.0
C225 C 0.20805 0.27378 0.07159 0.0
C226 C 0.22331 0.29488 0.09592 0.0
C227 C 0.24565 0.3152 0.07932 0.0
N228 N 0.29754 0.36211 0.04813 0.0
C229 C 0.29415 0.36001 0.08155 0.0
C230 C 0.31953 0.37697 0.10005 0.0
C231 C 0.34089 0.39016 0.07714 0.0
C232 C 0.32684 0.38116 0.04576 0.0
N233 N 0.23483 0.36579 0.012 0.0
C234 C 0.17724 0.405 0.01268 0.0
C235 C 0.19668 0.40117 0.04175 0.0
C236 C 0.22538 0.38274 0.04062 0.0
C237 C 0.18688 0.38648 0.98392 0.0
C238 C 0.21562 0.36848 0.98384 0.0
N239 N 0.3073 0.30214 0.01232 0.0
C240 C 0.34293 0.26653 0.04163 0.0
C241 C 0.36137 0.25932 0.01256 0.0
C242 C 0.34843 0.27096 0.98274 0.0
C243 C 0.32231 0.29245 0.98323 0.0
C244 C 0.31697 0.28837 0.04112 0.0
H245 H 0.31488 0.30137 0.95978 0.0
H246 H 0.30474 0.29362 0.06429 0.0
H247 H 0.23886 0.38179 0.06361 0.0
H248 H 0.22087 0.3561 0.96059 0.0
C249 C 0.27025 0.33348 0.92977 0.0
C250 C 0.34208 0.39091 0.01421 0.0
C251 C 0.21396 0.26397 0.0096 0.0
C252 C 0.26911 0.33871 0.09458 0.0
H253 H 0.35066 0.4178 0.94954 0.0
H254 H 0.31155 0.38582 0.90244 0.0
H255 H 0.23224 0.27767 0.89713 0.0
H256 H 0.20194 0.23947 0.94131 0.0
H257 H 0.18901 0.25396 0.07563 0.0
H258 H 0.21918 0.29487 0.1226 0.0
H259 H 0.32312 0.37799 0.12695 0.0
H260 H 0.36452 0.40399 0.08315 0.0
H261 H 0.18964 0.41071 0.06615 0.0
H262 H 0.17186 0.38406 0.96127 0.0
H263 H 0.34709 0.25524 0.06492 0.0
H264 H 0.35797 0.26352 0.9585 0.0
C265 C 0.21103 0.6213 0.47206 0.0
C266 C 0.20637 0.60071 0.44315 0.0
C267 C 0.23224 0.6094 0.42238 0.0
C268 C 0.25114 0.63466 0.43981 0.0
N269 N 0.23872 0.64233 0.47015 0.0
Co270 Co 0.2586 0.67594 0.50402 0.0
N271 N 0.28558 0.69896 0.46971 0.0
C272 C 0.292 0.68635 0.43872 0.0
C273 C 0.31002 0.70883 0.4201 0.0
C274 C 0.31564 0.73712 0.44082 0.0
C275 C 0.30103 0.73012 0.47118 0.0
N276 N 0.27891 0.70898 0.53825 0.0
C277 C 0.29694 0.73825 0.53437 0.0
C278 C 0.30857 0.75254 0.56513 0.0
C279 C 0.29743 0.73129 0.58891 0.0
C280 C 0.27983 0.70523 0.57148 0.0
N281 N 0.23121 0.65277 0.538 0.0
C282 C 0.2362 0.65562 0.57136 0.0
C283 C 0.21119 0.63894 0.58841 0.0
C284 C 0.18925 0.62465 0.56423 0.0
C285 C 0.20244 0.63301 0.53366 0.0
N286 N 0.29547 0.64709 0.51171 0.0
C287 C 0.34934 0.60859 0.52573 0.0
C288 C 0.31648 0.59388 0.52388 0.0
C289 C 0.2898 0.61361 0.51659 0.0
C290 C 0.35473 0.6425 0.52 0.0
C291 C 0.32761 0.66121 0.51322 0.0
N292 N 0.22215 0.70537 0.49659 0.0
C293 C 0.1803 0.74079 0.51878 0.0
C294 C 0.16771 0.74609 0.4865 0.0
C295 C 0.18717 0.73406 0.45964 0.0
C296 C 0.21332 0.71319 0.46506 0.0
C297 C 0.20655 0.71993 0.52323 0.0
H298 H 0.22622 0.70322 0.44362 0.0
H299 H 0.21447 0.71592 0.54843 0.0
H300 H 0.26462 0.60198 0.51536 0.0
H301 H 0.33276 0.68738 0.50982 0.0
C302 C 0.27642 0.65566 0.42651 0.0
C303 C 0.18875 0.62035 0.50084 0.0
C304 C 0.30601 0.75159 0.502 0.0
C305 C 0.26011 0.67955 0.58555 0.0
H306 H 0.18619 0.58175 0.43759 0.0
H307 H 0.23585 0.5996 0.39703 0.0
H308 H 0.31737 0.70545 0.39425 0.0
H309 H 0.3297 0.75991 0.43458 0.0
H310 H 0.32398 0.77561 0.56988 0.0
H311 H 0.30112 0.73482 0.61574 0.0
H312 H 0.20819 0.63879 0.61524 0.0
H313 H 0.16625 0.60992 0.56875 0.0
H314 H 0.31153 0.5676 0.52833 0.0
H315 H 0.3798 0.65467 0.52146 0.0
H316 H 0.17103 0.7531 0.54109 0.0
H317 H 0.18314 0.74073 0.43425 0.0
C318 C 0.79836 0.8399 0.45304 0.0
C319 C 0.80532 0.84399 0.41961 0.0
C320 C 0.78072 0.82553 0.40148 0.0
C321 C 0.76034 0.81114 0.4248 0.0
N322 N 0.76992 0.81997 0.45677 0.0
Co323 Co 0.75032 0.80139 0.49845 0.0
N324 N 0.71861 0.76893 0.47189 0.0
C325 C 0.71399 0.76698 0.43827 0.0
C326 C 0.69101 0.74179 0.42709 0.0
C327 C 0.68016 0.72689 0.45523 0.0
C328 C 0.69704 0.74407 0.48214 0.0
N329 N 0.73186 0.78225 0.54022 0.0
C330 C 0.70818 0.75701 0.54412 0.0
C331 C 0.70191 0.75255 0.57771 0.0
C332 C 0.72276 0.77538 0.59565 0.0
C333 C 0.74037 0.79254 0.57215 0.0
N334 N 0.78169 0.83422 0.5249 0.0
C335 C 0.78301 0.83987 0.5585 0.0
C336 C 0.80817 0.863 0.56943 0.0
C337 C 0.82438 0.87212 0.54118 0.0
C338 C 0.80812 0.85386 0.51461 0.0
N339 N 0.71468 0.83434 0.49942 0.0
C340 C 0.65417 0.86694 0.50143 0.0
C341 C 0.67208 0.8624 0.53076 0.0
C342 C 0.70236 0.84671 0.52915 0.0
C343 C 0.66852 0.8579 0.47097 0.0
C344 C 0.69869 0.84201 0.47054 0.0
N345 N 0.78502 0.76827 0.49723 0.0
C346 C 0.83126 0.7423 0.52264 0.0
C347 C 0.8402 0.72714 0.4916 0.0
C348 C 0.81676 0.72888 0.46534 0.0
C349 C 0.79036 0.74978 0.46834 0.0
C350 C 0.80439 0.76321 0.52467 0.0
H351 H 0.77473 0.75083 0.44673 0.0
H352 H 0.79982 0.77536 0.54852 0.0
H353 H 0.71471 0.84409 0.55242 0.0
H354 H 0.70788 0.83537 0.44649 0.0
C355 C 0.73407 0.78683 0.41766 0.0
C356 C 0.82032 0.85396 0.48044 0.0
C357 C 0.69153 0.73609 0.51696 0.0
C358 C 0.76384 0.8195 0.5792 0.0
H359 H 0.82653 0.85802 0.4094 0.0
H360 H 0.77883 0.82178 0.37452 0.0
H361 H 0.68368 0.73454 0.40146 0.0
H362 H 0.66198 0.70568 0.4558 0.0
H363 H 0.68407 0.73464 0.58822 0.0
H364 H 0.7246 0.77925 0.62261 0.0
H365 H 0.81516 0.87079 0.59503 0.0
H366 H 0.84652 0.88914 0.54028 0.0
H367 H 0.66229 0.87013 0.5549 0.0
H368 H 0.65589 0.86202 0.4476 0.0
H369 H 0.84399 0.73835 0.54576 0.0
H370 H 0.81839 0.71425 0.44197 0.0
C371 C 0.47888 0.82061 0.86814 0.0
C372 C 0.44663 0.82873 0.87626 0.0
C373 C 0.42544 0.8027 0.86388 0.0
C374 C 0.44582 0.78037 0.84872 0.0
N375 N 0.47885 0.79012 0.85137 0.0
Co376 Co 0.51669 0.76759 0.82875 0.0
N377 N 0.48512 0.73296 0.80478 0.0
C378 C 0.45155 0.72902 0.8088 0.0
C379 C 0.43641 0.70297 0.78931 0.0
C380 C 0.46185 0.68921 0.77205 0.0
C381 C 0.49124 0.7076 0.78218 0.0
N382 N 0.55459 0.74626 0.80519 0.0
C383 C 0.55435 0.71933 0.78304 0.0
C384 C 0.58666 0.7123 0.77378 0.0
C385 C 0.60798 0.73576 0.79033 0.0
C386 C 0.58766 0.75565 0.8088 0.0
N387 N 0.54822 0.80173 0.85341 0.0
C388 C 0.58208 0.8027 0.85368 0.0
C389 C 0.59697 0.82966 0.87213 0.0
C390 C 0.57106 0.84735 0.8838 0.0
C391 C 0.54179 0.83016 0.87158 0.0
N392 N 0.52027 0.73622 0.86593 0.0
C393 C 0.52336 0.67991 0.90541 0.0
C394 C 0.55245 0.69571 0.89304 0.0
C395 C 0.55043 0.72395 0.8741 0.0
C396 C 0.49314 0.69478 0.90062 0.0
C397 C 0.49218 0.72274 0.88106 0.0
N398 N 0.51292 0.79798 0.79142 0.0
C399 C 0.53759 0.83854 0.75451 0.0
C400 C 0.50647 0.84153 0.73898 0.0
C401 C 0.47876 0.82245 0.7501 0.0
C402 C 0.48247 0.80108 0.77614 0.0
C403 C 0.5403 0.81656 0.78042 0.0
H404 H 0.4603 0.78731 0.78358 0.0
H405 H 0.56465 0.81508 0.79141 0.0
H406 H 0.5736 0.73462 0.86546 0.0
H407 H 0.46819 0.73218 0.8777 0.0
C408 C 0.43469 0.75167 0.82918 0.0
C409 C 0.5087 0.84314 0.87574 0.0
C410 C 0.52436 0.69966 0.77001 0.0
C411 C 0.59898 0.78136 0.83202 0.0
H412 H 0.4391 0.8515 0.88899 0.0
H413 H 0.3983 0.801 0.86449 0.0
H414 H 0.40994 0.69521 0.7875 0.0
H415 H 0.45905 0.66796 0.75411 0.0
H416 H 0.59413 0.69203 0.7571 0.0
H417 H 0.63512 0.73756 0.78964 0.0
H418 H 0.62352 0.83672 0.87505 0.0
H419 H 0.57343 0.87098 0.89839 0.0
H420 H 0.5766 0.68565 0.89705 0.0
H421 H 0.47008 0.6839 0.91064 0.0
H422 H 0.55969 0.85298 0.74658 0.0
H423 H 0.45423 0.82407 0.73868 0.0
C424 C 0.5508 0.30269 0.65692 0.0
C425 C 0.58262 0.31063 0.64494 0.0
C426 C 0.60119 0.2836 0.65005 0.0
C427 C 0.57986 0.26082 0.66509 0.0
N428 N 0.54915 0.27196 0.66968 0.0
Co429 Co 0.51163 0.24885 0.69311 0.0
N430 N 0.54223 0.22004 0.71586 0.0
C431 C 0.57334 0.21368 0.7058 0.0
C432 C 0.58804 0.19122 0.72506 0.0
C433 C 0.56457 0.18268 0.74842 0.0
C434 C 0.53677 0.2006 0.7422 0.0
N435 N 0.47388 0.22631 0.71688 0.0
C436 C 0.47429 0.20827 0.7446 0.0
C437 C 0.4418 0.1989 0.75403 0.0
C438 C 0.42062 0.21039 0.73065 0.0
C439 C 0.44114 0.22656 0.70854 0.0
N440 N 0.48121 0.27728 0.66981 0.0
C441 C 0.44796 0.27106 0.66511 0.0
C442 C 0.43364 0.2957 0.64832 0.0
C443 C 0.45958 0.31876 0.64224 0.0
C444 C 0.48827 0.30688 0.65581 0.0
N445 N 0.50615 0.21477 0.65631 0.0
C446 C 0.50244 0.16425 0.60544 0.0
C447 C 0.49805 0.15654 0.63868 0.0
C448 C 0.50013 0.18202 0.66365 0.0
C449 C 0.50834 0.19779 0.59774 0.0
C450 C 0.50973 0.22286 0.62368 0.0
N451 N 0.51734 0.28248 0.72984 0.0
C452 C 0.49388 0.32151 0.7691 0.0
C453 C 0.52578 0.32995 0.78297 0.0
C454 C 0.55341 0.31457 0.76973 0.0
C455 C 0.54867 0.29099 0.74299 0.0
C456 C 0.49016 0.29747 0.74261 0.0
H457 H 0.57031 0.2794 0.73314 0.0
H458 H 0.46533 0.291 0.73248 0.0
H459 H 0.49745 0.17498 0.68903 0.0
H460 H 0.51418 0.24866 0.61748 0.0
C461 C 0.58939 0.23279 0.68151 0.0
C462 C 0.52199 0.32361 0.6543 0.0
C463 C 0.50481 0.19642 0.75997 0.0
C464 C 0.4306 0.24666 0.6833 0.0
H465 H 0.59159 0.3335 0.63385 0.0
H466 H 0.6276 0.28169 0.64514 0.0
H467 H 0.61311 0.18266 0.72294 0.0
H468 H 0.56743 0.16493 0.76752 0.0
H469 H 0.43409 0.18472 0.77517 0.0
H470 H 0.39347 0.2082 0.73051 0.0
H471 H 0.40727 0.29774 0.64293 0.0
H472 H 0.45758 0.34185 0.62973 0.0
H473 H 0.49352 0.13078 0.64537 0.0
H474 H 0.5118 0.20443 0.57209 0.0
H475 H 0.47202 0.33293 0.77914 0.0
H476 H 0.57834 0.32043 0.78029 0.0
C477 C 0.87908 0.47248 0.80661 0.0
C478 C 0.88862 0.44109 0.8143 0.0
C479 C 0.87228 0.41849 0.79192 0.0
C480 C 0.85385 0.43729 0.77183 0.0
N481 N 0.85808 0.47062 0.77955 0.0
Co482 Co 0.83488 0.50697 0.7581 0.0
N483 N 0.8057 0.47353 0.72962 0.0
C484 C 0.80693 0.43977 0.72818 0.0
C485 C 0.78425 0.4234 0.70599 0.0
C486 C 0.76733 0.44812 0.6926 0.0
C487 C 0.78059 0.47828 0.70759 0.0
N488 N 0.81163 0.54343 0.73676 0.0
C489 C 0.78506 0.54163 0.7151 0.0
C490 C 0.77596 0.57333 0.70775 0.0
C491 C 0.79779 0.59585 0.7249 0.0
C492 C 0.81873 0.57681 0.74194 0.0
N493 N 0.86367 0.54031 0.78707 0.0
C494 C 0.86445 0.5741 0.78659 0.0
C495 C 0.88369 0.59048 0.81172 0.0
C496 C 0.89536 0.56574 0.82986 0.0
C497 C 0.8828 0.53551 0.81445 0.0
N498 N 0.86887 0.50801 0.72189 0.0
C499 C 0.9046 0.51076 0.66174 0.0
C500 C 0.90295 0.53935 0.68318 0.0
C501 C 0.88477 0.53748 0.7128 0.0
C502 C 0.89135 0.48031 0.6726 0.0
C503 C 0.87468 0.47941 0.70296 0.0
N504 N 0.80106 0.50578 0.79368 0.0
C505 C 0.77092 0.53331 0.83809 0.0
C506 C 0.75853 0.5024 0.84986 0.0
C507 C 0.76415 0.47391 0.82896 0.0
C508 C 0.78593 0.47597 0.80219 0.0
C509 C 0.79229 0.53439 0.81064 0.0
H510 H 0.79034 0.45298 0.78881 0.0
H511 H 0.80144 0.5586 0.80346 0.0
H512 H 0.88302 0.56041 0.72717 0.0
H513 H 0.86581 0.4553 0.70977 0.0
C514 C 0.8296 0.42426 0.74825 0.0
C515 C 0.88814 0.5029 0.82758 0.0
C516 C 0.76777 0.51065 0.70078 0.0
C517 C 0.84328 0.58958 0.76515 0.0
H518 H 0.9046 0.43512 0.83486 0.0
H519 H 0.87249 0.39145 0.79145 0.0
H520 H 0.78035 0.39667 0.70035 0.0
H521 H 0.74725 0.44436 0.67411 0.0
H522 H 0.75548 0.57968 0.6919 0.0
H523 H 0.79779 0.62291 0.7256 0.0
H524 H 0.88719 0.61724 0.81737 0.0
H525 H 0.91038 0.56971 0.85254 0.0
H526 H 0.91372 0.56341 0.67601 0.0
H527 H 0.89286 0.45737 0.65718 0.0
H528 H 0.7639 0.557 0.84903 0.0
H529 H 0.75174 0.44962 0.83223 0.0
C530 C 0.1585 0.03878 0.80091 0.0
C531 C 0.14481 0.06926 0.80787 0.0
C532 C 0.15245 0.08868 0.78139 0.0
C533 C 0.17024 0.069 0.75975 0.0
N534 N 0.17413 0.03845 0.77099 0.0
Co535 Co 0.19858 0.00246 0.7481 0.0
N536 N 0.22336 0.03458 0.7195 0.0
C537 C 0.21506 0.06601 0.71454 0.0
C538 C 0.23724 0.08283 0.69442 0.0
C539 C 0.26058 0.06042 0.68571 0.0
C540 C 0.25109 0.03085 0.70068 0.0
N541 N 0.2228 0.96608 0.72533 0.0
C542 C 0.24939 0.96765 0.70452 0.0
C543 C 0.25629 0.93578 0.69208 0.0
C544 C 0.23315 0.9137 0.7054 0.0
C545 C 0.21332 0.93314 0.72504 0.0
N546 N 0.17371 0.97068 0.77687 0.0
C547 C 0.16993 0.9372 0.77138 0.0
C548 C 0.15407 0.92161 0.79712 0.0
C549 C 0.14748 0.94686 0.82018 0.0
C550 C 0.15933 0.97665 0.807 0.0
N551 N 0.16304 0.99569 0.71382 0.0
C552 C 0.11417 0.98731 0.66306 0.0
C553 C 0.10475 0.99081 0.69663 0.0
C554 C 0.12975 0.99505 0.72179 0.0
C555 C 0.1481 0.98794 0.65547 0.0
C556 C 0.17196 0.99203 0.68104 0.0
N557 N 0.23402 0.00943 0.78204 0.0
C558 C 0.26728 0.98824 0.82542 0.0
C559 C 0.27749 0.02106 0.83792 0.0
C560 C 0.26975 0.04712 0.81741 0.0
C561 C 0.24722 0.04103 0.79063 0.0
C562 C 0.24526 0.98305 0.79801 0.0
H563 H 0.23998 0.06213 0.77737 0.0
H564 H 0.23684 0.95768 0.7901 0.0
H565 H 0.12227 0.99782 0.74758 0.0
H566 H 0.19773 0.99221 0.67406 0.0
C567 C 0.18939 0.08025 0.73296 0.0
C568 C 0.15535 0.0103 0.82263 0.0
C569 C 0.26621 0.99874 0.693 0.0
C570 C 0.18811 0.92125 0.74622 0.0
H571 H 0.1311 0.07673 0.82991 0.0
H572 H 0.14723 0.11465 0.77913 0.0
H573 H 0.23699 0.10858 0.68756 0.0
H574 H 0.28159 0.06504 0.6694 0.0
H575 H 0.27543 0.92917 0.67448 0.0
H576 H 0.23124 0.88668 0.70145 0.0
H577 H 0.14976 0.89493 0.79985 0.0
H578 H 0.13567 0.94353 0.84404 0.0
H579 H 0.07852 0.99021 0.70324 0.0
H580 H 0.15615 0.98507 0.62976 0.0
H581 H 0.27613 0.96621 0.83599 0.0
H582 H 0.28055 0.07243 0.82148 0.0
C583 C 0.72085 0.14255 0.96539 0.0
C584 C 0.7102 0.12498 0.93595 0.0
C585 C 0.73216 0.13487 0.9117 0.0
C586 C 0.75488 0.1578 0.92773 0.0
N587 N 0.74849 0.16283 0.96048 0.0
Co588 Co 0.77501 0.19279 0.99324 0.0
N589 N 0.7956 0.21875 0.95705 0.0
C590 C 0.79579 0.20917 0.92427 0.0
C591 C 0.81086 0.23318 0.90518 0.0
C592 C 0.82115 0.25923 0.92742 0.0
C593 C 0.81203 0.24942 0.95896 0.0
N594 N 0.80219 0.22181 0.02629 0.0
C595 C 0.82022 0.25093 0.02216 0.0
C596 C 0.83785 0.26181 0.05134 0.0
C597 C 0.83056 0.23841 0.07436 0.0
C598 C 0.8091 0.2146 0.05803 0.0
N599 N 0.75364 0.16687 0.02911 0.0
C600 C 0.76465 0.1661 0.06092 0.0
C601 C 0.74277 0.14804 0.0804 0.0
C602 C 0.71647 0.13674 0.05946 0.0
C603 C 0.72407 0.14824 0.02822 0.0
N604 N 0.81181 0.16267 0.99055 0.0
C605 C 0.8672 0.12362 0.99256 0.0
C606 C 0.83458 0.10879 0.99539 0.0
C607 C 0.80702 0.12888 0.9941 0.0
C608 C 0.8714 0.15769 0.98753 0.0
C609 C 0.84364 0.17662 0.98675 0.0
N610 N 0.73915 0.22403 0.99607 0.0
C611 C 0.70952 0.26484 0.02858 0.0
C612 C 0.69471 0.2756 0.99953 0.0
C613 C 0.70158 0.25903 0.96882 0.0
C614 C 0.72419 0.23373 0.96757 0.0
C615 C 0.73123 0.23877 0.02637 0.0
H616 H 0.72991 0.22231 0.94348 0.0
H617 H 0.7425 0.23132 0.04914 0.0
H618 H 0.78204 0.11737 0.99681 0.0
H619 H 0.84835 0.20295 0.9842 0.0
C620 C 0.77764 0.17978 0.91207 0.0
C621 C 0.70425 0.13957 0.99758 0.0
C622 C 0.82335 0.26737 0.99039 0.0
C623 C 0.7915 0.18795 0.07279 0.0
H624 H 0.68858 0.10731 0.93238 0.0
H625 H 0.7306 0.1276 0.88525 0.0
H626 H 0.81341 0.23221 0.87826 0.0
H627 H 0.83478 0.28229 0.92127 0.0
H628 H 0.85466 0.28402 0.05544 0.0
H629 H 0.83928 0.23911 0.10011 0.0
H630 H 0.74476 0.14499 0.10704 0.0
H631 H 0.69436 0.12181 0.06643 0.0
H632 H 0.83059 0.08231 0.99938 0.0
H633 H 0.89625 0.16993 0.98542 0.0
H634 H 0.70486 0.27698 0.05277 0.0
H635 H 0.69048 0.2665 0.9458 0.0
O636 O 0.12422 0.03629 0.10692 0.0
Zn637 Zn 0.07909 0.04564 0.08893 0.0
O638 O 0.08317 0.06485 0.04537 0.0
Zn639 Zn 0.06547 0.1091 0.04826 0.0
Zn640 Zn 0.12984 0.06555 0.031 0.0
Zn641 Zn 0.057 0.0376 0.01159 0.0
O642 O 0.02025 0.10869 0.02465 0.0
O643 O 0.01185 0.05587 0.00454 0.0
O644 O 0.06062 0.07787 0.12455 0.0
O645 O 0.05497 0.1229 0.09579 0.0
O646 O 0.10056 0.14367 0.0329 0.0
O647 O 0.14455 0.11333 0.02291 0.0
O648 O 0.13472 0.03975 0.98553 0.0
O649 O 0.05366 1.00059 0.08365 0.0
O650 O 0.08183 0.03517 0.96746 0.0
O651 O 0.04759 0.99145 0.02828 0.0
C652 C 0.15432 0.03996 0.09708 0.0
C653 C 1.00152 0.08496 0.01034 0.0
C654 C 0.13112 0.14136 0.02451 0.0
C655 C 0.05352 0.1084 0.12328 0.0
C656 C 0.11309 0.03378 0.96175 0.0
C657 C 0.04561 0.98137 0.05791 0.0
O658 O 0.16092 0.05077 0.06823 0.0
O659 O 0.90795 0.48271 0.11161 0.0
Zn660 Zn 0.95571 0.48001 0.09479 0.0
O661 O 0.95612 0.46091 0.04931 0.0
Zn662 Zn 0.97165 0.41615 0.04997 0.0
Zn663 Zn 0.91166 0.46303 0.03013 0.0
Zn664 Zn 0.98474 0.48613 0.01994 0.0
O665 O 0.01921 0.41437 0.03161 0.0
O666 O 0.02961 0.46659 0.01634 0.0
O667 O 0.98 0.45165 0.12714 0.0
O668 O 0.97675 0.40299 0.09733 0.0
O669 O 0.93673 0.38355 0.02728 0.0
O670 O 0.89615 0.41671 0.01488 0.0
O671 O 0.91022 0.48954 0.98857 0.0
O672 O 0.97576 0.52711 0.09356 0.0
O673 O 0.963 0.48631 0.97335 0.0
O674 O 0.99276 0.53275 0.04101 0.0
C675 C 0.87996 0.48249 0.09599 0.0
C676 C 0.0392 0.43753 0.02103 0.0
C677 C 0.90759 0.3879 0.01549 0.0
C678 C 0.98277 0.42001 0.12481 0.0
C679 C 0.93247 0.49067 0.96604 0.0
C680 C 0.98831 0.54486 0.07067 0.0
O681 O 0.87783 0.47731 0.06433 0.0
O682 O 0.10065 0.88397 0.47303 0.0
Zn683 Zn 0.08854 0.93205 0.46905 0.0
O684 O 0.04621 0.9348 0.44471 0.0
Zn685 Zn 0.05454 0.95641 0.40273 0.0
Zn686 Zn 0.02746 0.88917 0.43478 0.0
Zn687 Zn 0.01442 0.96071 0.47086 0.0
O688 O 0.03624 0.00188 0.40342 0.0
O689 O 0.00902 0.00661 0.45143 0.0
O690 O 0.12738 0.9542 0.44459 0.0
O691 O 0.10422 0.96367 0.39539 0.0
O692 O 0.03518 0.92806 0.36298 0.0
O693 O 0.02758 0.87887 0.38561 0.0
O694 O 0.979 0.88415 0.44886 0.0
O695 O 0.08406 0.9516 0.51609 0.0
O696 O 0.9688 0.93438 0.4717 0.0
O697 O 0.03185 0.96831 0.5187 0.0
C698 C 0.0845 0.85583 0.46668 0.0
C699 C 0.0194 0.01879 0.42426 0.0
C700 C 0.02883 0.89645 0.36012 0.0
C701 C 0.12973 0.96341 0.41467 0.0
C702 C 0.95898 0.90424 0.4624 0.0
C703 C 0.06014 0.96402 0.53237 0.0
O704 O 0.05508 0.8539 0.45382 0.0
O705 O 0.98982 0.60324 0.39389 0.0
Zn706 Zn 0.98576 0.58812 0.44116 0.0
O707 O 0.96658 0.54261 0.43964 0.0
Zn708 Zn 0.92204 0.54221 0.45816 0.0
Zn709 Zn 0.96322 0.52479 0.39362 0.0
Zn710 Zn 0.99436 0.51543 0.46582 0.0
O711 O 0.92138 0.52237 0.50293 0.0
O712 O 0.9749 0.51366 0.51281 0.0
O713 O 0.95618 0.62072 0.46409 0.0
O714 O 0.90787 0.59003 0.46619 0.0
O715 O 0.88788 0.51774 0.42692 0.0
O716 O 0.91483 0.52065 0.3789 0.0
O717 O 0.97871 0.4775 0.39047 0.0
O718 O 0.03165 0.59065 0.46316 0.0
O719 O 0.99593 0.46873 0.44228 0.0
O720 O 0.04157 0.53757 0.4707 0.0
C721 C 0.9908 0.58814 0.36507 0.0
C722 C 0.94482 0.51572 0.52284 0.0
C723 C 0.88796 0.51532 0.39507 0.0
C724 C 0.92493 0.61808 0.46998 0.0
C725 C 0.98948 0.45818 0.41197 0.0
C726 C 0.05141 0.56857 0.47138 0.0
O727 O 0.98588 0.55632 0.36136 0.0
O728 O 0.40445 0.98265 0.6082 0.0
Zn729 Zn 0.44955 0.9745 0.58795 0.0
O730 O 0.44282 0.94924 0.54534 0.0
Zn731 Zn 0.45512 0.90426 0.55237 0.0
Zn732 Zn 0.39661 0.95059 0.52958 0.0
Zn733 Zn 0.47037 0.9682 0.51058 0.0
O734 O 0.49994 0.89646 0.53106 0.0
O735 O 0.5128 0.9433 0.50513 0.0
O736 O 0.475 0.94911 0.62243 0.0
O737 O 0.46327 0.89723 0.60115 0.0
O738 O 0.418 0.87107 0.53532 0.0
O739 O 0.37876 0.9034 0.51791 0.0
O740 O 0.39316 0.97464 0.48559 0.0
O741 O 0.47188 0.01952 0.57917 0.0
O742 O 0.4442 0.96727 0.46638 0.0
O743 O 0.48293 0.01676 0.52451 0.0
C744 C 0.37413 0.9788 0.59763 0.0
C745 C 0.5204 0.91481 0.5146 0.0
C746 C 0.3892 0.8746 0.52234 0.0
C747 C 0.47412 0.91742 0.62514 0.0
C748 C 0.4138 0.97406 0.46137 0.0
C749 C 0.48264 0.03292 0.55284 0.0
O750 O 0.36708 0.96781 0.56758 0.0
O751 O 0.62061 0.53205 0.64242 0.0
Zn752 Zn 0.57101 0.5336 0.63333 0.0
O753 O 0.5634 0.54549 0.58735 0.0
Zn754 Zn 0.54539 0.58936 0.58685 0.0
Zn755 Zn 0.60615 0.54516 0.56438 0.0
Zn756 Zn 0.53175 0.51322 0.56351 0.0
O757 O 0.49903 0.58668 0.56543 0.0
O758 O 0.48589 0.53165 0.56 0.0
O759 O 0.55501 0.56928 0.66762 0.0
O760 O 0.53903 0.60742 0.63364 0.0
O761 O 0.57845 0.62298 0.56638 0.0
O762 O 0.62177 0.5923 0.55536 0.0
O763 O 0.60038 0.52338 0.51809 0.0
O764 O 0.55197 0.48523 0.63815 0.0
O765 O 0.54656 0.50511 0.51535 0.0
O766 O 0.52901 0.47012 0.58798 0.0
C767 C 0.64553 0.52612 0.62394 0.0
C768 C 0.47787 0.56186 0.55879 0.0
C769 C 0.60839 0.62031 0.55622 0.0
C770 C 0.54384 0.59792 0.66301 0.0
C771 C 0.57495 0.51021 0.50163 0.0
C772 C 0.53773 0.46302 0.61745 0.0
O773 O 0.64285 0.52583 0.5921 0.0
O774 O 0.62861 0.42134 1.00167 0.0
Zn775 Zn 0.61355 0.46843 0.9972 0.0
O776 O 0.56842 0.46674 0.97906 0.0
Zn777 Zn 0.56889 0.48371 0.93456 0.0
Zn778 Zn 0.55069 0.42038 0.97761 0.0
Zn779 Zn 0.54037 0.49379 0.00733 0.0
O780 O 0.5496 0.52901 0.93477 0.0
O781 O 0.53651 0.54029 0.98799 0.0
O782 O 0.64693 0.48963 0.96619 0.0
O783 O 0.61665 0.49081 0.91929 0.0
O784 O 0.54589 0.44993 0.90078 0.0
O785 O 0.54754 0.40429 0.92963 0.0
O786 O 0.50313 0.41737 0.99597 0.0
O787 O 0.61523 0.49081 0.04325 0.0
O788 O 0.49329 0.47068 0.00817 0.0
O789 O 0.56129 0.49586 0.05453 0.0
C790 C 0.61373 0.39215 1.00161 0.0
C791 C 0.53973 0.54914 0.95785 0.0
C792 C 0.54345 0.41811 0.9022 0.0
C793 C 0.64462 0.49436 0.93508 0.0
C794 C 0.48303 0.43978 0.00473 0.0
C795 C 0.59195 0.49578 0.06413 0.0
O796 O 0.58214 0.38786 0.99647 0.0
O797 O 0.49827 0.1283 0.90486 0.0
Zn798 Zn 0.49685 0.11374 0.95277 0.0
O799 O 0.47682 0.06836 0.95387 0.0
Zn800 Zn 0.43527 0.07094 0.97861 0.0
Zn801 Zn 0.46825 0.04991 0.90814 0.0
Zn802 Zn 0.5071 0.03982 0.97614 0.0
O803 O 0.44009 0.05158 0.0236 0.0
O804 O 0.49147 0.03294 0.0241 0.0
O805 O 0.4703 0.148 0.97707 0.0
O806 O 0.42291 0.11881 0.98773 0.0
O807 O 0.39666 0.04873 0.95165 0.0
O808 O 0.41833 0.04474 0.90056 0.0
O809 O 0.48386 0.00252 0.90183 0.0
O810 O 0.5434 0.11587 0.97282 0.0
O811 O 0.50796 0.99414 0.95077 0.0
O812 O 0.5542 0.06271 0.97801 0.0
C813 C 0.49497 0.1131 0.87603 0.0
C814 C 0.46382 0.03838 0.03853 0.0
C815 C 0.39354 0.04255 0.92019 0.0
C816 C 0.44026 0.14658 0.98727 0.0
C817 C 0.49802 0.98345 0.92141 0.0
C818 C 0.5639 0.09378 0.97889 0.0
O819 O 0.48702 0.0816 0.87325 0.0
C820 C 0.02043 0.11465 0.42592 0.0
C821 C 0.00862 0.11893 0.39294 0.0
C822 C 0.99583 0.05815 0.38503 0.0
C823 C 0.01215 0.05346 0.41594 0.0
N824 N 0.04352 0.07723 0.46449 0.0
N825 N 0.98927 0.09424 0.33915 0.0
C826 C 0.0251 0.08172 0.43629 0.0
C827 C 0.99721 0.09055 0.37201 0.0
N828 N 0.02676 0.14206 0.44748 0.0
N829 N 0.97836 0.03165 0.36841 0.0
H830 H 0.99024 0.1174 0.32836 0.0
H831 H 0.98456 0.07408 0.32179 0.0
H832 H 0.97625 0.00773 0.37761 0.0
H833 H 0.96319 0.03411 0.34746 0.0
H834 H 0.03213 0.14045 0.47284 0.0
H835 H 0.02366 0.16645 0.44064 0.0
H836 H 0.05687 0.09674 0.47814 0.0
H837 H 0.04768 0.05368 0.47296 0.0
C838 C 0.98426 0.36188 0.40847 0.0
C839 C 0.99755 0.35476 0.37633 0.0
C840 C 0.01148 0.41494 0.37121 0.0
C841 C 0.99389 0.42239 0.40107 0.0
N842 N 0.95776 0.40228 0.44481 0.0
N843 N 0.01896 0.37509 0.32466 0.0
C844 C 0.97883 0.39568 0.41897 0.0
C845 C 0.00975 0.3815 0.357 0.0
N846 N 0.97736 0.33646 0.42926 0.0
N847 N 0.03103 0.43955 0.35711 0.0
H848 H 0.01724 0.35104 0.31322 0.0
H849 H 0.02512 0.39382 0.30831 0.0
H850 H 0.0342 0.464 0.36757 0.0
H851 H 0.04697 0.43487 0.33723 0.0
H852 H 0.97096 0.34056 0.45424 0.0
H853 H 0.9809 0.31145 0.42236 0.0
H854 H 0.9435 0.38359 0.45635 0.0
H855 H 0.95181 0.4264 0.45257 0.0
C856 C 0.00478 0.90628 0.09808 0.0
C857 C 0.02257 0.88 0.08305 0.0
C858 C 0.05352 0.91973 0.04864 0.0
C859 C 0.03508 0.94594 0.06304 0.0
N860 N 0.987 0.9626 0.09403 0.0
N861 N 0.05678 0.85982 0.03818 0.0
C862 C 0.00864 0.93865 0.08536 0.0
C863 C 0.0445 0.88615 0.05622 0.0
N864 N 0.98574 0.9009 0.12569 0.0
N865 N 0.08112 0.92692 0.02976 0.0
H866 H 0.0505 0.83492 0.04328 0.0
H867 H 0.07036 0.86256 0.01633 0.0
H868 H 0.08949 0.95117 0.02428 0.0
H869 H 0.09755 0.90904 0.02193 0.0
H870 H 0.97555 0.92014 0.13997 0.0
H871 H 0.98217 0.87759 0.13596 0.0
H872 H 0.96538 0.95778 0.10776 0.0
H873 H 0.9888 0.98641 0.08456 0.0
C874 C 0.01606 0.62289 0.12315 0.0
C875 C 0.00734 0.6484 0.10213 0.0
C876 C 0.98698 0.60614 0.05908 0.0
C877 C 0.99775 0.58064 0.07931 0.0
N878 N 0.03229 0.56606 0.12556 0.0
N879 N 0.99357 0.66476 0.04685 0.0
C880 C 0.01539 0.58943 0.10981 0.0
C881 C 0.996 0.64014 0.06888 0.0
N882 N 0.02367 0.63029 0.15618 0.0
N883 N 0.96619 0.59835 0.032 0.0
H884 H 0.99983 0.69 0.05345 0.0
H885 H 0.98836 0.65972 0.02143 0.0
H886 H 0.95709 0.57402 0.0248 0.0
H887 H 0.95512 0.61646 0.01869 0.0
H888 H 0.0267 0.61201 0.17332 0.0
H889 H 0.02384 0.65449 0.16703 0.0
H890 H 0.0479 0.57203 0.14638 0.0
H891 H 0.03382 0.5416 0.11558 0.0
C892 C 0.4398 0.99425 0.11764 0.0
C893 C 0.43414 0.02262 0.13913 0.0
C894 C 0.45943 0.05963 0.09806 0.0
C895 C 0.45943 0.03186 0.07446 0.0
N896 N 0.45116 0.97253 0.06121 0.0
N897 N 0.43941 0.08227 0.15117 0.0
C898 C 0.45073 0.99895 0.0843 0.0
C899 C 0.44486 0.0553 0.12997 0.0
N900 N 0.43417 0.96292 0.12918 0.0
N901 N 0.47344 0.09009 0.08977 0.0
H902 H 0.43032 0.07973 0.1753 0.0
H903 H 0.44255 0.10704 0.14458 0.0
H904 H 0.48434 0.09383 0.06658 0.0
H905 H 0.47688 0.11086 0.10654 0.0
H906 H 0.44009 0.94103 0.11601 0.0
H907 H 0.42601 0.95907 0.15343 0.0
H908 H 0.44159 0.94834 0.06539 0.0
H909 H 0.45993 0.97513 0.03698 0.0
C910 C 0.6413 0.48273 0.14332 0.0
C911 C 0.62384 0.5008 0.16816 0.0
C912 C 0.58542 0.51755 0.12482 0.0
C913 C 0.60106 0.49674 0.10053 0.0
N914 N 0.63473 0.4488 0.09195 0.0
N915 N 0.57238 0.52564 0.18354 0.0
C916 C 0.62638 0.47613 0.11126 0.0
C917 C 0.59364 0.51515 0.15928 0.0
N918 N 0.67231 0.47211 0.14998 0.0
N919 N 0.56408 0.54065 0.11533 0.0
H920 H 0.57717 0.5232 0.20895 0.0
H921 H 0.54871 0.53364 0.17811 0.0
H922 H 0.55896 0.5449 0.09041 0.0
H923 H 0.55445 0.55809 0.13231 0.0
H924 H 0.68709 0.46136 0.13153 0.0
H925 H 0.68451 0.47721 0.17298 0.0
H926 H 0.65139 0.4319 0.10016 0.0
H927 H 0.62159 0.44033 0.07013 0.0
C928 C 0.41469 0.99994 0.37026 0.0
C929 C 0.38119 0.99088 0.35949 0.0
C930 C 0.37036 0.96681 0.41386 0.0
C931 C 0.40221 0.98042 0.42643 0.0
N932 N 0.45105 0.01781 0.41749 0.0
N933 N 0.32517 0.97159 0.37404 0.0
C934 C 0.42345 0.99915 0.40485 0.0
C935 C 0.35843 0.97617 0.38224 0.0
N936 N 0.43837 0.0088 0.34748 0.0
N937 N 0.35224 0.9432 0.43078 0.0
H938 H 0.31557 0.97768 0.35102 0.0
H939 H 0.30703 0.96504 0.39145 0.0
H940 H 0.361 0.93318 0.45244 0.0
H941 H 0.33034 0.93054 0.421 0.0
H942 H 0.46383 0.01258 0.35359 0.0
H943 H 0.43297 0.00923 0.32194 0.0
H944 H 0.46559 0.03407 0.4032 0.0
H945 H 0.45703 0.0203 0.44296 0.0
C946 C 0.59046 0.47562 0.41288 0.0
C947 C 0.59668 0.50625 0.39705 0.0
C948 C 0.57784 0.53732 0.44708 0.0
C949 C 0.57732 0.50743 0.46464 0.0
N950 N 0.58161 0.44788 0.46499 0.0
N951 N 0.59637 0.5664 0.39827 0.0
C952 C 0.58261 0.47633 0.44759 0.0
C953 C 0.58975 0.53713 0.41373 0.0
N954 N 0.59242 0.44601 0.39457 0.0
N955 N 0.56682 0.56585 0.46242 0.0
H956 H 0.60371 0.56704 0.37337 0.0
H957 H 0.59618 0.59004 0.41041 0.0
H958 H 0.55797 0.5668 0.48687 0.0
H959 H 0.56364 0.58772 0.45019 0.0
H960 H 0.5858 0.42263 0.40356 0.0
H961 H 0.59816 0.44505 0.36917 0.0
H962 H 0.5887 0.42485 0.45519 0.0
H963 H 0.57489 0.44768 0.49011 0.0
C964 C 0.12506 0.42568 0.9836 0.0
C965 C 0.14502 0.42379 0.01299 0.0
C966 C 0.097 0.43957 0.04654 0.0
C967 C 0.07552 0.43244 0.01811 0.0
N968 N 0.06938 0.42029 0.95858 0.0
N969 N 0.15361 0.45716 0.06448 0.0
C970 C 0.08963 0.42613 0.98627 0.0
C971 C 0.13229 0.43857 0.04282 0.0
N972 N 0.14018 0.43278 0.95423 0.0
N973 N 0.08389 0.44767 0.07705 0.0
H974 H 0.17867 0.46265 0.05847 0.0
H975 H 0.14557 0.47112 0.08525 0.0
H976 H 0.05838 0.45057 0.08057 0.0
H977 H 0.09823 0.44944 0.09908 0.0
H978 H 0.12692 0.43757 0.93262 0.0
H979 H 0.16604 0.43847 0.95316 0.0
H980 H 0.07844 0.41241 0.93533 0.0
H981 H 0.04333 0.42093 0.95951 0.0
C982 C 0.13247 0.62284 0.47338 0.0
C983 C 0.15311 0.60683 0.49561 0.0
C984 C 0.10617 0.56585 0.50472 0.0
C985 C 0.08725 0.57964 0.47909 0.0
N986 N 0.09017 0.61253 0.43034 0.0
N987 N 0.16224 0.55663 0.52432 0.0
C988 C 0.10261 0.60572 0.46089 0.0
C989 C 0.14083 0.57631 0.50895 0.0
N990 N 0.1412 0.65442 0.4641 0.0
N991 N 0.09122 0.54404 0.5259 0.0
H992 H 0.18797 0.56288 0.5266 0.0
H993 H 0.1548 0.53276 0.5318 0.0
H994 H 0.06559 0.53723 0.52518 0.0
H995 H 0.10379 0.53569 0.54651 0.0
H996 H 0.12545 0.66779 0.44966 0.0
H997 H 0.1622 0.66829 0.47417 0.0
H998 H 0.10204 0.62996 0.41521 0.0
H999 H 0.07121 0.59705 0.41835 0.0
C1000 C 0.86278 0.89914 0.46244 0.0
C1001 C 0.8558 0.86669 0.47421 0.0
C1002 C 0.91607 0.86109 0.48245 0.0
C1003 C 0.92332 0.89193 0.46722 0.0
N1004 N 0.90303 0.93677 0.43607 0.0
N1005 N 0.87592 0.81395 0.48883 0.0
C1006 C 0.89652 0.91011 0.45545 0.0
C1007 C 0.88253 0.84679 0.48218 0.0
N1008 N 0.83727 0.91973 0.45845 0.0
N1009 N 0.9409 0.84617 0.49869 0.0
H1010 H 0.85167 0.80263 0.48823 0.0
H1011 H 0.89455 0.79724 0.49153 0.0
H1012 H 0.96549 0.85659 0.50101 0.0
H1013 H 0.93632 0.82541 0.51296 0.0
H1014 H 0.84126 0.94493 0.45348 0.0
H1015 H 0.81223 0.91231 0.46275 0.0
H1016 H 0.88429 0.94873 0.42407 0.0
H1017 H 0.92716 0.94484 0.42909 0.0
C1018 C 0.39749 0.5741 0.50979 0.0
C1019 C 0.37861 0.58982 0.53523 0.0
C1020 C 0.42185 0.57998 0.57701 0.0
C1021 C 0.44267 0.56858 0.55088 0.0
N1022 N 0.45154 0.55525 0.49236 0.0
N1023 N 0.37216 0.60846 0.59291 0.0
C1024 C 0.43064 0.56527 0.51726 0.0
C1025 C 0.39045 0.59258 0.56892 0.0
N1026 N 0.38361 0.56779 0.47851 0.0
N1027 N 0.43198 0.5782 0.6096 0.0
H1028 H 0.34827 0.61637 0.58823 0.0
H1029 H 0.38114 0.61526 0.617 0.0
H1030 H 0.45492 0.56924 0.61633 0.0
H1031 H 0.41675 0.58296 0.62999 0.0
H1032 H 0.39457 0.55371 0.45949 0.0
H1033 H 0.35959 0.57442 0.47231 0.0
H1034 H 0.44588 0.55587 0.46697 0.0
H1035 H 0.47569 0.54803 0.49702 0.0
C1036 C 0.54233 0.64485 0.9521 0.0
C1037 C 0.52447 0.64697 0.92145 0.0
C1038 C 0.50957 0.58636 0.92083 0.0
C1039 C 0.53172 0.58342 0.94837 0.0
N1040 N 0.57275 0.60996 0.98785 0.0
N1041 N 0.49547 0.61831 0.87369 0.0
C1042 C 0.54884 0.61274 0.96366 0.0
C1043 C 0.50906 0.61735 0.9051 0.0
N1044 N 0.55261 0.67353 0.97046 0.0
N1045 N 0.48839 0.55962 0.91008 0.0
H1046 H 0.49511 0.64018 0.86077 0.0
H1047 H 0.48739 0.59685 0.85914 0.0
H1048 H 0.48737 0.53684 0.92161 0.0
H1049 H 0.46944 0.56121 0.89224 0.0
H1050 H 0.56276 0.67361 0.99456 0.0
H1051 H 0.548 0.69734 0.96289 0.0
H1052 H 0.58869 0.63008 0.99709 0.0
H1053 H 0.5787 0.5871 0.99678 0.0
C1054 C 0.49561 0.88739 0.92075 0.0
C1055 C 0.50576 0.87922 0.88762 0.0
C1056 C 0.51573 0.93933 0.87858 0.0
C1057 C 0.50156 0.94751 0.91018 0.0
N1058 N 0.47116 0.92826 0.9582 0.0
N1059 N 0.52053 0.89748 0.83303 0.0
C1060 C 0.48973 0.92125 0.93052 0.0
C1061 C 0.51434 0.90525 0.86595 0.0
N1062 N 0.49214 0.86292 0.94317 0.0
N1063 N 0.53192 0.96389 0.86125 0.0
H1064 H 0.51952 0.8729 0.82286 0.0
H1065 H 0.52367 0.91541 0.81524 0.0
H1066 H 0.5347 0.98889 0.8702 0.0
H1067 H 0.54563 0.95898 0.83976 0.0
H1068 H 0.48829 0.86798 0.96859 0.0
H1069 H 0.49607 0.83786 0.9369 0.0
H1070 H 0.45912 0.90974 0.97189 0.0
H1071 H 0.4647 0.95234 0.9655 0.0
C1072 C 0.53629 0.36721 0.61219 0.0
C1073 C 0.52611 0.35948 0.64484 0.0
C1074 C 0.51847 0.41929 0.65785 0.0
C1075 C 0.53333 0.42737 0.62697 0.0
N1076 N 0.56381 0.40852 0.57827 0.0
N1077 N 0.51129 0.37876 0.70045 0.0
C1078 C 0.54423 0.40118 0.60502 0.0
C1079 C 0.51832 0.38575 0.66819 0.0
N1080 N 0.5376 0.34223 0.58768 0.0
N1081 N 0.5031 0.4432 0.67661 0.0
H1082 H 0.51119 0.35461 0.70885 0.0
H1083 H 0.50848 0.39715 0.71945 0.0
H1084 H 0.50149 0.46764 0.66931 0.0
H1085 H 0.48894 0.43797 0.6976 0.0
H1086 H 0.54164 0.3469 0.56264 0.0
H1087 H 0.53143 0.31708 0.5918 0.0
H1088 H 0.57493 0.39021 0.56349 0.0
H1089 H 0.57221 0.43286 0.57308 0.0
C1090 C 0.52885 0.11563 0.5775 0.0
C1091 C 0.50122 0.13611 0.57975 0.0
C1092 C 0.46407 0.09105 0.55336 0.0
C1093 C 0.49072 0.06944 0.55494 0.0
N1094 N 0.54968 0.06182 0.5595 0.0
N1095 N 0.44566 0.14755 0.56206 0.0
C1096 C 0.5237 0.08213 0.56377 0.0
C1097 C 0.46988 0.12524 0.56466 0.0
N1098 N 0.55937 0.12792 0.59028 0.0
N1099 N 0.43291 0.07825 0.54276 0.0
H1100 H 0.44949 0.17263 0.57051 0.0
H1101 H 0.42287 0.14218 0.54945 0.0
H1102 H 0.42837 0.05365 0.53294 0.0
H1103 H 0.41134 0.09139 0.54434 0.0
H1104 H 0.57997 0.11364 0.59285 0.0
H1105 H 0.56387 0.15289 0.59898 0.0
H1106 H 0.57479 0.06972 0.56355 0.0
H1107 H 0.54612 0.03719 0.54949 0.0
C1108 C 0.94295 0.49314 0.61486 0.0
C1109 C 0.91695 0.51302 0.62685 0.0
C1110 C 0.91558 0.53902 0.57322 0.0
C1111 C 0.93705 0.51516 0.5592 0.0
N1112 N 0.96667 0.46522 0.56632 0.0
N1113 N 0.87218 0.54815 0.61323 0.0
C1114 C 0.94971 0.49104 0.57993 0.0
C1115 C 0.9014 0.53405 0.60486 0.0
N1116 N 0.96166 0.4769 0.63679 0.0
N1117 N 0.90972 0.56733 0.55715 0.0
H1118 H 0.85942 0.54357 0.63526 0.0
H1119 H 0.85864 0.56121 0.59641 0.0
H1120 H 0.92184 0.57366 0.53526 0.0
H1121 H 0.8963 0.58652 0.56794 0.0
H1122 H 0.98283 0.46455 0.62968 0.0
H1123 H 0.95807 0.47873 0.66258 0.0
H1124 H 0.97358 0.44532 0.58003 0.0
H1125 H 0.97078 0.46177 0.54074 0.0
C1126 C 0.08064 0.94877 0.62226 0.0
C1127 C 0.08959 0.98196 0.6349 0.0
C1128 C 0.07168 0.00425 0.58221 0.0
C1129 C 0.06493 0.97091 0.56885 0.0
N1130 N 0.05384 0.91229 0.57785 0.0
N1131 N 0.08598 0.04128 0.63129 0.0
C1132 C 0.06631 0.94342 0.58959 0.0
C1133 C 0.08223 0.00975 0.6163 0.0
N1134 N 0.08765 0.92242 0.64089 0.0
N1135 N 0.0698 0.03036 0.56181 0.0
H1136 H 0.0938 0.04565 0.65622 0.0
H1137 H 0.07878 0.06265 0.62024 0.0
H1138 H 0.06138 0.02712 0.53699 0.0
H1139 H 0.07791 0.055 0.56879 0.0
H1140 H 0.08585 0.89753 0.63171 0.0
H1141 H 0.09666 0.92565 0.66551 0.0
H1142 H 0.05145 0.8916 0.59248 0.0
H1143 H 0.04313 0.90776 0.55399 0.0
C1144 C 0.93322 0.51125 0.87336 0.0
C1145 C 0.89997 0.50028 0.86313 0.0
C1146 C 0.89075 0.47788 0.91814 0.0
C1147 C 0.92175 0.49398 0.93035 0.0
N1148 N 0.96905 0.53281 0.9198 0.0
N1149 N 0.84457 0.47976 0.87899 0.0
C1150 C 0.94217 0.51254 0.90801 0.0
C1151 C 0.87791 0.48578 0.88657 0.0
N1152 N 0.95641 0.52 0.85006 0.0
N1153 N 0.87455 0.4532 0.93529 0.0
H1154 H 0.83408 0.48583 0.85635 0.0
H1155 H 0.82703 0.47205 0.89655 0.0
H1156 H 0.88474 0.44351 0.95646 0.0
H1157 H 0.8533 0.43914 0.92579 0.0
H1158 H 0.98177 0.52521 0.85596 0.0
H1159 H 0.95076 0.51906 0.82449 0.0
H1160 H 0.98285 0.54889 0.90472 0.0
H1161 H 0.97512 0.53659 0.94518 0.0
C1162 C 0.1124 0.00333 0.86894 0.0
C1163 C 0.14455 0.01553 0.85852 0.0
C1164 C 0.15402 0.04373 0.91425 0.0
C1165 C 0.12445 0.02681 0.92637 0.0
N1166 N 0.08036 0.9829 0.91528 0.0
N1167 N 0.19881 0.04183 0.87432 0.0
C1168 C 0.10493 0.00443 0.90371 0.0
C1169 C 0.16626 0.03391 0.88218 0.0
N1170 N 0.0886 0.99146 0.84574 0.0
N1171 N 0.16929 0.07084 0.9319 0.0
H1172 H 0.20862 0.03527 0.85108 0.0
H1173 H 0.21652 0.05168 0.89216 0.0
H1174 H 0.15948 0.0816 0.95362 0.0
H1175 H 0.18925 0.0854 0.92249 0.0
H1176 H 0.06384 0.98505 0.85203 0.0
H1177 H 0.09284 0.99119 0.82006 0.0
H1178 H 0.06739 0.96446 0.89984 0.0
H1179 H 0.07593 0.98051 0.94068 0.0
C1180 C 0.61611 0.91365 0.51409 0.0
C1181 C 0.62002 0.87998 0.50275 0.0
C1182 C 0.55905 0.87138 0.49349 0.0
C1183 C 0.55483 0.90363 0.50879 0.0
N1184 N 0.57945 0.95295 0.53988 0.0
N1185 N 0.59464 0.82485 0.48696 0.0
C1186 C 0.5834 0.92423 0.52062 0.0
C1187 C 0.59132 0.85829 0.4938 0.0
N1188 N 0.64364 0.93573 0.51806 0.0
N1189 N 0.53243 0.85363 0.47775 0.0
H1190 H 0.6177 0.8141 0.48728 0.0
H1191 H 0.57426 0.80728 0.48396 0.0
H1192 H 0.50861 0.86272 0.47631 0.0
H1193 H 0.53473 0.83149 0.46329 0.0
H1194 H 0.64203 0.9614 0.52288 0.0
H1195 H 0.66797 0.92891 0.51338 0.0
H1196 H 0.59936 0.9669 0.55208 0.0
H1197 H 0.55611 0.96116 0.54657 0.0
C1198 C 0.64499 0.14909 0.98329 0.0
C1199 C 0.66782 0.12852 0.99781 0.0
C1200 C 0.62127 0.08707 0.00602 0.0
C1201 C 0.60004 0.10493 0.98545 0.0
N1202 N 0.59865 0.14767 0.94474 0.0
N1203 N 0.67863 0.07365 0.01591 0.0
C1204 C 0.61374 0.13462 0.97137 0.0
C1205 C 0.65634 0.09614 0.00714 0.0
N1206 N 0.65319 0.18237 0.98056 0.0
N1207 N 0.6083 0.06277 0.0257 0.0
H1208 H 0.70453 0.07913 0.01606 0.0
H1209 H 0.67131 0.04875 0.02004 0.0
H1210 H 0.58265 0.05751 0.02852 0.0
H1211 H 0.62305 0.05103 0.04258 0.0
H1212 H 0.63632 0.19873 0.97166 0.0
H1213 H 0.6751 0.19387 0.99139 0.0
H1214 H 0.60928 0.16821 0.93277 0.0
H1215 H 0.57873 0.13492 0.93151 0.0
C1216 C 0.40059 0.3881 0.99095 0.0
C1217 C 0.37821 0.40453 0.01252 0.0
C1218 C 0.42517 0.4442 0.03148 0.0
C1219 C 0.4463 0.4296 0.00713 0.0
N1220 N 0.44628 0.39872 0.95375 0.0
N1221 N 0.36778 0.45576 0.04432 0.0
C1222 C 0.43183 0.40463 0.98395 0.0
C1223 C 0.38999 0.435 0.03009 0.0
N1224 N 0.39237 0.35679 0.97699 0.0
N1225 N 0.43833 0.4657 0.0566 0.0
H1226 H 0.34188 0.45047 0.04249 0.0
H1227 H 0.37513 0.4795 0.05498 0.0
H1228 H 0.46399 0.47164 0.05979 0.0
H1229 H 0.42389 0.47469 0.07624 0.0
H1230 H 0.40905 0.34365 0.96231 0.0
H1231 H 0.37055 0.34292 0.98297 0.0
H1232 H 0.43502 0.38238 0.93507 0.0
H1233 H 0.46639 0.41412 0.94583 0.0
C1234 C 0.91193 0.10449 0.02996 0.0
C1235 C 0.89792 0.10532 0.99731 0.0
C1236 C 0.95126 0.09015 0.97271 0.0
C1237 C 0.96537 0.08987 0.00538 0.0
N1238 N 0.95713 0.08765 0.06488 0.0
N1239 N 0.90094 0.09214 0.93819 0.0
C1240 C 0.94502 0.09418 0.03396 0.0
C1241 C 0.91658 0.09572 0.96884 0.0
N1242 N 0.89418 0.11519 0.05706 0.0
N1243 N 0.97139 0.08668 0.94551 0.0
H1244 H 0.87557 0.09611 0.93494 0.0
H1245 H 0.91204 0.08257 0.91664 0.0
H1246 H 0.99677 0.08231 0.94755 0.0
H1247 H 0.96364 0.09014 0.92111 0.0
H1248 H 0.90458 0.11954 0.081 0.0
H1249 H 0.86935 0.12157 0.05531 0.0
H1250 H 0.94242 0.08696 0.08617 0.0
H1251 H 0.98121 0.07987 0.06885 0.0
C1252 C 0.04403 0.18333 0.18496 0.0
C1253 C 0.02856 0.16805 0.21243 0.0
C1254 C 0.02494 0.11414 0.17982 0.0
C1255 C 0.04511 0.12847 0.15448 0.0
N1256 N 0.08246 0.17551 0.13974 0.0
N1257 N 0.01106 0.11703 0.23863 0.0
C1258 C 0.05701 0.16282 0.15882 0.0
C1259 C 0.02109 0.13283 0.21072 0.0
N1260 N 0.0466 0.21743 0.18384 0.0
N1261 N 0.00799 0.08358 0.17405 0.0
H1262 H 0.00836 0.12979 0.26177 0.0
H1263 H 0.0084 0.09101 0.23937 0.0
H1264 H 0.00788 0.07008 0.15104 0.0
H1265 H 0.99083 0.07359 0.19086 0.0
H1266 H 0.05518 0.22957 0.16288 0.0
H1267 H 0.03703 0.23331 0.20241 0.0
H1268 H 0.09356 0.1997 0.14404 0.0
H1269 H 0.0956 0.16077 0.12286 0.0
C1270 C 0.02345 0.3549 0.17414 0.0
C1271 C 0.00707 0.35809 0.20529 0.0
C1272 C 0.97592 0.40395 0.18482 0.0
C1273 C 0.99353 0.40184 0.1542 0.0
N1274 N 0.04065 0.38163 0.12378 0.0
N1275 N 0.97444 0.39111 0.24328 0.0
C1276 C 0.01945 0.37933 0.15021 0.0
C1277 C 0.98558 0.38453 0.21161 0.0
N1278 N 0.04123 0.32756 0.16645 0.0
N1279 N 0.94849 0.42253 0.18772 0.0
H1280 H 0.98096 0.37731 0.26344 0.0
H1281 H 0.96152 0.41213 0.25011 0.0
H1282 H 0.93964 0.43629 0.16854 0.0
H1283 H 0.93259 0.42181 0.20815 0.0
H1284 H 0.05037 0.32211 0.14263 0.0
H1285 H 0.04438 0.30867 0.18288 0.0
H1286 H 0.062 0.36814 0.12141 0.0
H1287 H 0.0389 0.39959 0.10608 0.0
C1288 C 0.03706 0.86891 0.26783 0.0
C1289 C 0.01842 0.83754 0.26728 0.0
C1290 C 0.99877 0.8513 0.32344 0.0
C1291 C 0.02303 0.87893 0.3267 0.0
N1292 N 0.07057 0.90961 0.30254 0.0
N1293 N 0.98532 0.79635 0.29694 0.0
C1294 C 0.04348 0.88694 0.29896 0.0
C1295 C 1.0003 0.82795 0.29578 0.0
N1296 N 0.04888 0.88131 0.2388 0.0
N1297 N 0.97359 0.84793 0.34607 0.0
H1298 H 0.98645 0.77814 0.27739 0.0
H1299 H 0.97452 0.7874 0.31857 0.0
H1300 H 0.97012 0.86594 0.36534 0.0
H1301 H 0.9539 0.82953 0.34314 0.0
H1302 H 0.06017 0.90545 0.2377 0.0
H1303 H 0.04441 0.86872 0.21548 0.0
H1304 H 0.08768 0.91357 0.28346 0.0
H1305 H 0.07841 0.92158 0.32529 0.0
C1306 C 0.01874 0.66042 0.3116 0.0
C1307 C 1.00049 0.652 0.28141 0.0
C1308 C 0.97388 0.60268 0.30653 0.0
C1309 C 0.99542 0.60871 0.33517 0.0
N1310 N 0.04419 0.6395 0.36043 0.0
N1311 N 0.96629 0.61095 0.24751 0.0
C1312 C 0.01957 0.6365 0.33637 0.0
C1313 C 0.97982 0.62179 0.27802 0.0
N1314 N 0.03435 0.69168 0.31728 0.0
N1315 N 0.94638 0.58053 0.3071 0.0
H1316 H 0.97046 0.62401 0.22594 0.0
H1317 H 0.95375 0.58743 0.24309 0.0
H1318 H 0.93924 0.56775 0.32811 0.0
H1319 H 0.92837 0.57783 0.28792 0.0
H1320 H 0.04512 0.70008 0.34032 0.0
H1321 H 0.03351 0.71041 0.30024 0.0
H1322 H 0.06421 0.65758 0.36061 0.0
H1323 H 0.04666 0.62147 0.37777 0.0
C1324 C 0.23691 0.01272 0.1336 0.0
C1325 C 0.23189 0.01876 0.16854 0.0
C1326 C 0.17937 0.04398 0.15556 0.0
C1327 C 0.18183 0.03335 0.12115 0.0
N1328 N 0.21024 1.0002 0.07937 0.0
N1329 N 0.19442 0.034 0.21275 0.0
C1330 C 0.20986 0.01563 0.11065 0.0
C1331 C 0.20173 0.03222 0.17947 0.0
N1332 N 0.26768 0.00532 0.12197 0.0
N1333 N 0.15723 0.06709 0.16534 0.0
H1334 H 0.21018 0.02556 0.23101 0.0
H1335 H 0.17129 0.0408 0.22171 0.0
H1336 H 0.14252 0.07891 0.14849 0.0
H1337 H 0.15664 0.07769 0.18968 0.0
H1338 H 0.27337 0.00423 0.0966 0.0
H1339 H 0.28831 0.00328 0.13762 0.0
H1340 H 0.22873 0.98435 0.07182 0.0
H1341 H 0.19034 1.00014 0.0623 0.0
C1342 C 0.8023 0.51847 0.13456 0.0
C1343 C 0.78786 0.49012 0.15038 0.0
C1344 C 0.82998 0.45594 0.12405 0.0
C1345 C 0.84852 0.48543 0.11501 0.0
N1346 N 0.852 0.54542 0.11095 0.0
N1347 N 0.77412 0.43223 0.13322 0.0
C1348 C 0.83453 0.51693 0.11991 0.0
C1349 C 0.79759 0.45846 0.13774 0.0
N1350 N 0.78298 0.54429 0.12822 0.0
N1351 N 0.84327 0.42547 0.11997 0.0
H1352 H 0.74866 0.43538 0.13691 0.0
H1353 H 0.77917 0.40938 0.12122 0.0
H1354 H 0.86708 0.42252 0.11025 0.0
H1355 H 0.83161 0.40372 0.12892 0.0
H1356 H 0.79111 0.56432 0.11414 0.0
H1357 H 0.75724 0.5428 0.13275 0.0
H1358 H 0.84429 0.56932 0.11713 0.0
H1359 H 0.87539 0.54517 0.09961 0.0
C1360 C 0.21007 0.00921 0.38626 0.0
C1361 C 0.22362 0.98318 0.36623 0.0
C1362 C 0.1818 0.9431 0.38865 0.0
C1363 C 0.16339 0.97026 0.40065 0.0
N1364 N 0.16073 0.02972 0.41276 0.0
N1365 N 0.23649 0.92594 0.37299 0.0
C1366 C 0.17777 0.00353 0.40018 0.0
C1367 C 0.21375 0.94991 0.37446 0.0
N1368 N 0.23018 0.03657 0.3971 0.0
N1369 N 0.16845 0.91087 0.3897 0.0
H1370 H 0.2615 0.93154 0.36702 0.0
H1371 H 0.23174 0.90209 0.38178 0.0
H1372 H 0.14541 0.90466 0.40057 0.0
H1373 H 0.17932 0.89058 0.37776 0.0
H1374 H 0.22236 0.0551 0.41401 0.0
H1375 H 0.25605 0.03757 0.39339 0.0
H1376 H 0.16896 0.05465 0.4099 0.0
H1377 H 0.13746 0.02642 0.42415 0.0
C1378 C 0.7957 0.51585 0.37183 0.0
C1379 C 0.79502 0.50083 0.33894 0.0
C1380 C 0.85345 0.48762 0.34663 0.0
C1381 C 0.85568 0.50892 0.37636 0.0
N1382 N 0.8295 0.55094 0.4114 0.0
N1383 N 0.82451 0.47452 0.29345 0.0
C1384 C 0.82694 0.52503 0.3876 0.0
C1385 C 0.82428 0.48719 0.32582 0.0
N1386 N 0.76664 0.5217 0.38799 0.0
N1387 N 0.87839 0.46688 0.33891 0.0
H1388 H 0.80344 0.47342 0.27766 0.0
H1389 H 0.84627 0.46747 0.28164 0.0
H1390 H 0.89912 0.46489 0.35457 0.0
H1391 H 0.87657 0.44894 0.31899 0.0
H1392 H 0.76616 0.53039 0.41302 0.0
H1393 H 0.74324 0.51414 0.37761 0.0
H1394 H 0.80925 0.56494 0.41798 0.0
H1395 H 0.85231 0.56147 0.42124 0.0
C1396 C 0.15953 0.22887 0.9983 0.0
C1397 C 0.19339 0.23144 0.00975 0.0
C1398 C 0.1853 0.17673 0.03354 0.0
C1399 C 0.15258 0.17229 0.01882 0.0
N1400 N 0.11209 0.19137 0.98 0.0
N1401 N 0.24083 0.20436 0.03076 0.0
C1402 C 0.14064 0.19757 0.99907 0.0
C1403 C 0.20708 0.20408 0.02469 0.0
N1404 N 0.14507 0.25645 0.98766 0.0
N1405 N 0.1949 0.15649 0.05785 0.0
H1406 H 0.25758 0.22407 0.02446 0.0
H1407 H 0.2524 0.18363 0.0389 0.0
H1408 H 0.17887 0.13803 0.06765 0.0
H1409 H 0.21742 0.16084 0.07128 0.0
H1410 H 0.11949 0.25669 0.98237 0.0
H1411 H 0.15809 0.27984 0.9868 0.0
H1412 H 0.1041 0.20798 0.96291 0.0
H1413 H 0.09845 0.1682 0.97847 0.0
C1414 C 0.12001 0.78192 0.5082 0.0
C1415 C 0.13756 0.76714 0.48107 0.0
C1416 C 0.11141 0.80465 0.44356 0.0
C1417 C 0.10131 0.82445 0.47173 0.0
N1418 N 0.09482 0.83118 0.53155 0.0
N1419 N 0.12397 0.74896 0.42389 0.0
C1420 C 0.10522 0.81287 0.5043 0.0
C1421 C 0.12607 0.7739 0.44857 0.0
N1422 N 0.11214 0.76366 0.53512 0.0
N1423 N 0.10801 0.81548 0.41201 0.0
H1424 H 0.1287 0.72436 0.42877 0.0
H1425 H 0.11291 0.75152 0.40053 0.0
H1426 H 0.09737 0.83782 0.40706 0.0
H1427 H 0.11824 0.80343 0.39114 0.0
H1428 H 0.09684 0.77195 0.55436 0.0
H1429 H 0.11671 0.73829 0.53533 0.0
H1430 H 0.10028 0.82533 0.55601 0.0
H1431 H 0.08267 0.8533 0.52965 0.0
C1432 C 0.89091 0.69627 0.51268 0.0
C1433 C 0.87098 0.70688 0.48617 0.0
C1434 C 0.89493 0.66526 0.44796 0.0
C1435 C 0.90745 0.64932 0.47585 0.0
N1436 N 0.92122 0.65173 0.53482 0.0
N1437 N 0.87872 0.71784 0.42818 0.0
C1438 C 0.90667 0.66547 0.5083 0.0
C1439 C 0.88017 0.69628 0.45333 0.0
N1440 N 0.9004 0.71836 0.53871 0.0
N1441 N 0.89665 0.65074 0.41638 0.0
H1442 H 0.87212 0.74247 0.43276 0.0
H1443 H 0.88803 0.71278 0.40435 0.0
H1444 H 0.90811 0.62842 0.4111 0.0
H1445 H 0.88464 0.65984 0.39583 0.0
H1446 H 0.91689 0.71296 0.55773 0.0
H1447 H 0.89664 0.74384 0.53773 0.0
H1448 H 0.91794 0.66037 0.55953 0.0
H1449 H 0.93529 0.63077 0.53206 0.0
C1450 C 0.31156 0.81387 0.51214 0.0
C1451 C 0.32662 0.78402 0.50209 0.0
C1452 C 0.38044 0.81597 0.49721 0.0
C1453 C 0.36684 0.84433 0.51328 0.0
N1454 N 0.32002 0.86738 0.54271 0.0
N1455 N 0.37751 0.75566 0.49171 0.0
C1456 C 0.3324 0.84278 0.52228 0.0
C1457 C 0.36167 0.7847 0.49636 0.0
N1458 N 0.2774 0.81437 0.5127 0.0
N1459 N 0.41084 0.81892 0.48197 0.0
H1460 H 0.36503 0.73203 0.49165 0.0
H1461 H 0.40354 0.75513 0.49094 0.0
H1462 H 0.42459 0.84184 0.4804 0.0
H1463 H 0.42036 0.79935 0.46754 0.0
H1464 H 0.26514 0.83635 0.51703 0.0
H1465 H 0.26145 0.79341 0.50561 0.0
H1466 H 0.29588 0.86552 0.55232 0.0
H1467 H 0.33474 0.8877 0.55342 0.0
C1468 C 0.53963 0.68212 0.71108 0.0
C1469 C 0.52786 0.67284 0.74268 0.0
C1470 C 0.52353 0.61375 0.72176 0.0
C1471 C 0.53949 0.62286 0.69168 0.0
N1472 N 0.57269 0.66564 0.6638 0.0
N1473 N 0.51503 0.62899 0.78043 0.0
C1474 C 0.55034 0.65706 0.688 0.0
C1475 C 0.52178 0.63835 0.74879 0.0
N1476 N 0.54065 0.71487 0.70298 0.0
N1477 N 0.50864 0.5823 0.72417 0.0
H1478 H 0.51374 0.64628 0.80076 0.0
H1479 H 0.51363 0.60409 0.78691 0.0
H1480 H 0.50795 0.56403 0.70457 0.0
H1481 H 0.494 0.57552 0.74441 0.0
H1482 H 0.53262 0.73398 0.71913 0.0
H1483 H 0.5463 0.72236 0.67904 0.0
H1484 H 0.5833 0.68997 0.66208 0.0
H1485 H 0.58405 0.64798 0.6484 0.0
C1486 C 0.51531 0.85611 0.67891 0.0
C1487 C 0.50242 0.86429 0.711 0.0
C1488 C 0.47347 0.91051 0.68793 0.0
C1489 C 0.48706 0.90276 0.65596 0.0
N1490 N 0.52875 0.87491 0.62381 0.0
N1491 N 0.47603 0.90391 0.74784 0.0
C1492 C 0.51047 0.87764 0.65238 0.0
C1493 C 0.48369 0.89305 0.71605 0.0
N1494 N 0.53073 0.8269 0.6732 0.0
N1495 N 0.44944 0.93315 0.69127 0.0
H1496 H 0.48293 0.89161 0.76891 0.0
H1497 H 0.46559 0.92663 0.75357 0.0
H1498 H 0.44162 0.947 0.67173 0.0
H1499 H 0.43555 0.93661 0.7129 0.0
H1500 H 0.53713 0.81778 0.64941 0.0
H1501 H 0.53463 0.81026 0.69178 0.0
H1502 H 0.54843 0.85923 0.62095 0.0
H1503 H 0.52669 0.89102 0.60437 0.0
C1504 C 0.51631 0.34278 0.8436 0.0
C1505 C 0.52994 0.35294 0.81305 0.0
C1506 C 0.55597 0.40377 0.84164 0.0
C1507 C 0.53802 0.3962 0.87112 0.0
N1508 N 0.49617 0.36013 0.89766 0.0
N1509 N 0.55834 0.39559 0.78142 0.0
C1510 C 0.51676 0.36617 0.8714 0.0
C1511 C 0.54831 0.38429 0.81154 0.0
N1512 N 0.50417 0.31033 0.84661 0.0
N1513 N 0.58211 0.42767 0.84274 0.0
H1514 H 0.55371 0.38174 0.75883 0.0
H1515 H 0.56867 0.41986 0.77868 0.0
H1516 H 0.59098 0.44053 0.86474 0.0
H1517 H 0.59779 0.43172 0.82252 0.0
H1518 H 0.49746 0.30074 0.86945 0.0
H1519 H 0.50407 0.29201 0.82705 0.0
H1520 H 0.47748 0.34065 0.89707 0.0
H1521 H 0.49549 0.37614 0.91882 0.0
C1522 C 0.52009 0.18479 0.81962 0.0
C1523 C 0.50265 0.17448 0.78939 0.0
C1524 C 0.478 0.12529 0.81634 0.0
C1525 C 0.49873 0.13317 0.84531 0.0
N1526 N 0.54739 0.16601 0.86857 0.0
N1527 N 0.47379 0.12883 0.75637 0.0
C1528 C 0.52202 0.16177 0.84533 0.0
C1529 C 0.48451 0.14272 0.78685 0.0
N1530 N 0.53473 0.21657 0.82399 0.0
N1531 N 0.45059 0.10308 0.81718 0.0
H1532 H 0.47893 0.14032 0.73409 0.0
H1533 H 0.4629 0.10444 0.75319 0.0
H1534 H 0.44214 0.09238 0.83892 0.0
H1535 H 0.4336 0.09889 0.79717 0.0
H1536 H 0.54502 0.22624 0.84684 0.0
H1537 H 0.53382 0.23415 0.80575 0.0
H1538 H 0.56646 0.18504 0.86805 0.0
H1539 H 0.55192 0.14786 0.88533 0.0
C1540 C 0.73914 0.52609 0.64747 0.0
C1541 C 0.73687 0.51207 0.67923 0.0
C1542 C 0.67675 0.49903 0.66905 0.0
C1543 C 0.67781 0.5189 0.64063 0.0
N1544 N 0.71075 0.55667 0.60654 0.0
N1545 N 0.70199 0.48972 0.72267 0.0
C1546 C 0.70926 0.53367 0.63054 0.0
C1547 C 0.70521 0.49981 0.69074 0.0
N1548 N 0.76981 0.53225 0.6335 0.0
N1549 N 0.64907 0.4783 0.67468 0.0
H1550 H 0.72213 0.49032 0.73958 0.0
H1551 H 0.67879 0.48371 0.73324 0.0
H1552 H 0.62864 0.47508 0.65807 0.0
H1553 H 0.64822 0.46129 0.6935 0.0
H1554 H 0.7727 0.53962 0.60907 0.0
H1555 H 0.79216 0.5269 0.64521 0.0
H1556 H 0.73281 0.57049 0.60096 0.0
H1557 H 0.68966 0.56472 0.59468 0.0
C1558 C 0.32505 0.98367 0.67917 0.0
C1559 C 0.29454 0.99615 0.66855 0.0
C1560 C 0.31801 0.00181 0.6124 0.0
C1561 C 0.34653 0.98495 0.62186 0.0
N1562 N 0.371 0.95067 0.66244 0.0
N1563 N 0.25923 0.00886 0.622 0.0
C1564 C 0.3485 0.97346 0.65484 0.0
C1565 C 0.29016 0.00284 0.63425 0.0
N1566 N 0.33157 0.98118 0.71248 0.0
N1567 N 0.31778 0.01798 0.58324 0.0
H1568 H 0.23796 0.00897 0.63674 0.0
H1569 H 0.25423 0.01053 0.59655 0.0
H1570 H 0.33824 0.01939 0.56735 0.0
H1571 H 0.29872 0.03312 0.57685 0.0
H1572 H 0.35478 0.97498 0.72161 0.0
H1573 H 0.31497 0.98843 0.73104 0.0
H1574 H 0.37131 0.93943 0.68531 0.0
H1575 H 0.38624 0.93966 0.6446 0.0
C1576 C 0.72782 0.52842 0.90052 0.0
C1577 C 0.73644 0.4999 0.88053 0.0
C1578 C 0.68831 0.46749 0.9014 0.0
C1579 C 0.67592 0.49717 0.91593 0.0
N1580 N 0.68432 0.55629 0.93091 0.0
N1581 N 0.73955 0.44134 0.88995 0.0
C1582 C 0.69597 0.5278 0.91632 0.0
C1583 C 0.7211 0.4687 0.88883 0.0
N1584 N 0.75186 0.55336 0.9088 0.0
N1585 N 0.6689 0.4381 0.89903 0.0
H1586 H 0.76544 0.44313 0.88622 0.0
H1587 H 0.73001 0.41866 0.89882 0.0
H1588 H 0.64422 0.43599 0.90725 0.0
H1589 H 0.67668 0.4167 0.8861 0.0
H1590 H 0.74807 0.57354 0.92556 0.0
H1591 H 0.77693 0.55101 0.90254 0.0
H1592 H 0.69636 0.57996 0.92888 0.0
H1593 H 0.66128 0.55644 0.94295 0.0
C1594 C 0.31101 0.06083 0.88034 0.0
C1595 C 0.29893 0.02787 0.86952 0.0
C1596 C 0.34252 0.00541 0.90339 0.0
C1597 C 0.35958 0.03762 0.90558 0.0
N1598 N 0.35899 0.09725 0.89891 0.0
N1599 N 0.28815 0.97568 0.89574 0.0
C1600 C 0.34337 0.06583 0.89523 0.0
C1601 C 0.31015 1.00156 0.88819 0.0
N1602 N 0.28996 0.08629 0.88088 0.0
N1603 N 0.35735 0.9785 0.915 0.0
H1604 H 0.26265 0.97571 0.88968 0.0
H1605 H 0.29416 0.95721 0.91173 0.0
H1606 H 0.3808 0.98062 0.92701 0.0
H1607 H 0.34713 0.95397 0.91079 0.0
H1608 H 0.29654 0.11019 0.89154 0.0
H1609 H 0.26456 0.08202 0.8746 0.0
H1610 H 0.3495 0.11795 0.88831 0.0
H1611 H 0.38232 0.10225 0.91079 0.0
C1612 C 0.68455 0.67925 0.54069 0.0
C1613 C 0.66983 0.70583 0.5253 0.0
C1614 C 0.615 0.67464 0.52633 0.0
C1615 C 0.62898 0.65046 0.54616 0.0
N1616 N 0.67595 0.6366 0.58046 0.0
N1617 N 0.61957 0.73216 0.51023 0.0
C1618 C 0.66352 0.65459 0.55563 0.0
C1619 C 0.63455 0.70461 0.52023 0.0
N1620 N 0.71859 0.67755 0.54116 0.0
N1621 N 0.58396 0.66846 0.51175 0.0
H1622 H 0.63305 0.75466 0.50583 0.0
H1623 H 0.5936 0.73348 0.50929 0.0
H1624 H 0.56967 0.6459 0.51343 0.0
H1625 H 0.57417 0.6842 0.49476 0.0
H1626 H 0.73024 0.65698 0.5496 0.0
H1627 H 0.73484 0.69505 0.53009 0.0
H1628 H 0.70038 0.64083 0.58991 0.0
H1629 H 0.66085 0.6207 0.59461 0.0
C1630 C 0.64367 0.3055 0.01945 0.0
C1631 C 0.67386 0.30546 1.0009 0.0
C1632 C 0.66214 0.36007 0.98028 0.0
C1633 C 0.63442 0.36227 0.00212 0.0
N1634 N 0.60249 0.33897 0.04707 0.0
N1635 N 0.71562 0.33709 0.97008 0.0
C1636 C 0.62618 0.33548 0.02303 0.0
C1637 C 0.68426 0.3341 0.98333 0.0
N1638 N 0.6309 0.27661 0.0325 0.0
N1639 N 0.66628 0.38139 0.95496 0.0
H1640 H 0.73294 0.31894 0.97188 0.0
H1641 H 0.72555 0.35913 0.96026 0.0
H1642 H 0.6492 0.39902 0.94987 0.0
H1643 H 0.68422 0.37867 0.93649 0.0
H1644 H 0.60734 0.27432 0.04335 0.0
H1645 H 0.64236 0.254 0.02956 0.0
H1646 H 0.59779 0.32158 0.06515 0.0
H1647 H 0.58988 0.3608 0.05098 0.0
C1648 C 0.41073 0.23454 0.98232 0.0
C1649 C 0.39108 0.23714 0.01145 0.0
C1650 C 0.41256 0.18485 0.02923 0.0
C1651 C 0.42462 0.17836 0.9964 0.0
N1652 N 0.43393 0.19744 0.94059 0.0
N1653 N 0.40023 0.22892 0.06981 0.0
C1654 C 0.42394 0.20355 0.97277 0.0
C1655 C 0.39896 0.21619 0.03751 0.0
N1656 N 0.41965 0.26262 0.96587 0.0
N1657 N 0.41457 0.16159 0.05274 0.0
H1658 H 0.39928 0.25461 0.0754 0.0
H1659 H 0.40827 0.21572 0.08979 0.0
H1660 H 0.4265 0.13938 0.04856 0.0
H1661 H 0.4028 0.16379 0.07579 0.0
H1662 H 0.43653 0.26288 0.9462 0.0
H1663 H 0.41332 0.28624 0.97503 0.0
H1664 H 0.43066 0.21413 0.92191 0.0
H1665 H 0.44238 0.17457 0.93172 0.0
C1666 C 0.87735 0.30145 0.98033 0.0
C1667 C 0.84336 0.29992 0.99049 0.0
C1668 C 0.85164 0.35575 0.01771 0.0
C1669 C 0.88487 0.35848 0.00516 0.0
N1670 N 0.92571 0.33745 0.96679 0.0
N1671 N 0.79603 0.32808 0.01189 0.0
C1672 C 0.89661 0.33244 0.98396 0.0
C1673 C 0.82973 0.32818 0.00643 0.0
N1674 N 0.89189 0.27315 0.96897 0.0
N1675 N 0.84175 0.37765 0.04253 0.0
H1676 H 0.77948 0.30756 0.00492 0.0
H1677 H 0.78429 0.34932 0.02049 0.0
H1678 H 0.85762 0.39669 0.05393 0.0
H1679 H 0.81891 0.37453 0.05465 0.0
H1680 H 0.91756 0.2725 0.96489 0.0
H1681 H 0.87893 0.24974 0.96622 0.0
H1682 H 0.93369 0.32014 0.94869 0.0
H1683 H 0.93992 0.36032 0.96798 0.0
loop_
_geom_bond_atom_site_label_1
_geom_bond_atom_site_label_2
_geom_bond_distance
_geom_bond_site_symmetry_2
_ccdc_geom_bond_type
C0 C1 1.443 . S
C0 N4 1.376 . S
C0 C38 1.389 . S
C1 C0 1.443 . S
C1 C2 1.340 . S
C1 H41 0.951 . S
C2 C1 1.340 . S
C2 C3 1.439 . S
C2 H42 0.950 . S
C3 C2 1.439 . S
C3 N4 1.374 . S
C3 C37 1.395 . S
N4 C0 1.376 . S
N4 C3 1.374 . S
N4 Co5 2.008 1_655 S
Co5 N4 2.008 1_455 S
Co5 N6 1.995 1_455 S
Co5 N11 2.008 . S
Co5 N16 1.995 . S
Co5 N21 2.282 . S
Co5 N27 2.282 1_455 S
N6 Co5 1.995 1_655 S
N6 C7 1.376 . S
N6 C10 1.383 . S
C7 N6 1.376 . S
C7 C8 1.446 . S
C7 C37 1.391 . S
C8 C7 1.446 . S
C8 C9 1.339 . S
C8 H43 0.949 . S
C9 C8 1.339 . S
C9 C10 1.439 . S
C9 H44 0.950 . S
C10 N6 1.383 . S
C10 C9 1.439 . S
C10 C39 1.392 1_655 S
N11 Co5 2.008 . S
N11 C12 1.376 . S
N11 C15 1.374 . S
C12 N11 1.376 . S
C12 C13 1.443 . S
C12 C39 1.389 . S
C13 C12 1.443 . S
C13 C14 1.340 . S
C13 H45 0.951 . S
C14 C13 1.340 . S
C14 C15 1.439 . S
C14 H46 0.950 . S
C15 N11 1.374 . S
C15 C14 1.439 . S
C15 C40 1.395 . S
N16 Co5 1.995 . S
N16 C17 1.376 . S
N16 C20 1.383 . S
C17 N16 1.376 . S
C17 C18 1.446 . S
C17 C40 1.391 . S
C18 C17 1.446 . S
C18 C19 1.339 . S
C18 H47 0.949 . S
C19 C18 1.339 . S
C19 C20 1.439 . S
C19 H48 0.950 . S
C20 N16 1.383 . S
C20 C19 1.439 . S
C20 C38 1.392 1_455 S
N21 Co5 2.282 . S
N21 C24 1.332 . S
N21 C26 1.332 1_455 S
C22 C23 1.386 . S
C22 C25 1.388 1_455 S
C23 C22 1.386 . S
C23 C24 1.382 . S
C23 H49 0.950 . S
C24 N21 1.332 . S
C24 C23 1.382 . S
C24 H35 0.952 . S
C25 C22 1.388 1_655 S
C25 C26 1.382 . S
C25 H50 0.950 . S
C26 N21 1.332 1_655 S
C26 C25 1.382 . S
C26 H36 0.948 . S
N27 Co5 2.282 1_655 S
N27 C31 1.332 . S
N27 C32 1.332 1_655 S
C28 C29 1.388 1_455 S
C28 C32 1.382 . S
C28 H51 0.950 . S
C29 C28 1.388 1_655 S
C29 C30 1.386 . S
C30 C29 1.386 . S
C30 C31 1.382 . S
C30 H52 0.950 . S
C31 N27 1.332 . S
C31 C30 1.382 . S
C31 H33 0.952 . S
C32 N27 1.332 1_455 S
C32 C28 1.382 . S
C32 H34 0.948 . S
H33 C31 0.952 . S
H34 C32 0.948 . S
H35 C24 0.952 . S
H36 C26 0.948 . S
C37 C3 1.395 . S
C37 C7 1.391 . S
C38 C0 1.389 . S
C38 C20 1.392 1_655 S
C39 C10 1.392 1_455 S
C39 C12 1.389 . S
C40 C15 1.395 . S
C40 C17 1.391 . S
H41 C1 0.951 . S
H42 C2 0.950 . S
H43 C8 0.949 . S
H44 C9 0.950 . S
H45 C13 0.951 . S
H46 C14 0.950 . S
H47 C18 0.949 . S
H48 C19 0.950 . S
H49 C23 0.950 . S
H50 C25 0.950 . S
H51 C28 0.950 . S
H52 C30 0.950 . S
C53 C54 1.443 . S
C53 N57 1.376 . S
C53 C91 1.389 1_655 S
C54 C53 1.443 . S
C54 C55 1.340 . S
C54 H94 0.951 . S
C55 C54 1.340 . S
C55 C56 1.439 . S
C55 H95 0.950 . S
C56 C55 1.439 . S
C56 N57 1.374 . S
C56 C90 1.395 . S
N57 C53 1.376 . S
N57 C56 1.374 . S
N57 Co58 2.008 1_655 S
Co58 N57 2.008 1_455 S
Co58 N59 1.995 1_455 S
Co58 N64 2.008 . S
Co58 N69 1.995 . S
Co58 N74 2.282 . S
Co58 N80 2.282 . S
N59 Co58 1.995 1_655 S
N59 C60 1.376 . S
N59 C63 1.383 1_655 S
C60 N59 1.376 . S
C60 C61 1.446 . S
C60 C90 1.391 . S
C61 C60 1.446 . S
C61 C62 1.339 . S
C61 H96 0.949 . S
C62 C61 1.339 . S
C62 C63 1.439 1_655 S
C62 H97 0.950 . S
C63 N59 1.383 1_455 S
C63 C62 1.439 1_455 S
C63 C92 1.392 . S
N64 Co58 2.008 . S
N64 C65 1.376 . S
N64 C68 1.374 . S
C65 N64 1.376 . S
C65 C66 1.443 . S
C65 C92 1.389 . S
C66 C65 1.443 . S
C66 C67 1.340 . S
C66 H98 0.951 . S
C67 C66 1.340 . S
C67 C68 1.439 . S
C67 H99 0.950 . S
C68 N64 1.374 . S
C68 C67 1.439 . S
C68 C93 1.395 . S
N69 Co58 1.995 . S
N69 C70 1.376 . S
N69 C73 1.383 . S
C70 N69 1.376 . S
C70 C71 1.446 . S
C70 C93 1.391 . S
C71 C70 1.446 . S
C71 C72 1.339 . S
C71 H100 0.949 . S
C72 C71 1.339 . S
C72 C73 1.439 . S
C72 H101 0.950 . S
C73 N69 1.383 . S
C73 C72 1.439 . S
C73 C91 1.392 . S
N74 Co58 2.282 . S
N74 C77 1.332 . S
N74 C79 1.332 . S
C75 C76 1.386 . S
C75 C78 1.388 . S
C76 C75 1.386 . S
C76 C77 1.382 . S
C76 H102 0.950 . S
C77 N74 1.332 . S
C77 C76 1.382 . S
C77 H88 0.952 . S
C78 C75 1.388 . S
C78 C79 1.382 . S
C78 H103 0.950 1_455 S
C79 N74 1.332 . S
C79 C78 1.382 . S
C79 H89 0.948 1_455 S
N80 Co58 2.282 . S
N80 C84 1.332 1_455 S
N80 C85 1.332 . S
C81 C82 1.388 1_455 S
C81 C85 1.382 . S
C81 H104 0.950 . S
C82 C81 1.388 1_655 S
C82 C83 1.386 . S
C83 C82 1.386 . S
C83 C84 1.382 . S
C83 H105 0.950 . S
C84 N80 1.332 1_655 S
C84 C83 1.382 . S
C84 H86 0.952 . S
C85 N80 1.332 . S
C85 C81 1.382 . S
C85 H87 0.948 . S
H86 C84 0.952 . S
H87 C85 0.948 . S
H88 C77 0.952 . S
H89 C79 0.948 1_655 S
C90 C56 1.395 . S
C90 C60 1.391 . S
C91 C53 1.389 1_455 S
C91 C73 1.392 . S
C92 C63 1.392 . S
C92 C65 1.389 . S
C93 C68 1.395 . S
C93 C70 1.391 . S
H94 C54 0.951 . S
H95 C55 0.950 . S
H96 C61 0.949 . S
H97 C62 0.950 . S
H98 C66 0.951 . S
H99 C67 0.950 . S
H100 C71 0.949 . S
H101 C72 0.950 . S
H102 C76 0.950 . S
H103 C78 0.950 1_655 S
H104 C81 0.950 . S
H105 C83 0.950 . S
C106 C107 1.443 . S
C106 N110 1.376 . S
C106 C144 1.389 . S
C107 C106 1.443 . S
C107 C108 1.340 . S
C107 H147 0.951 . S
C108 C107 1.340 . S
C108 C109 1.439 . S
C108 H148 0.950 . S
C109 C108 1.439 . S
C109 N110 1.374 . S
C109 C143 1.395 . S
N110 C106 1.376 . S
N110 C109 1.374 . S
N110 Co111 2.008 1_565 S
Co111 N110 2.008 1_545 S
Co111 N112 1.995 1_545 S
Co111 N117 2.008 . S
Co111 N122 1.995 . S
Co111 N127 2.282 . S
Co111 N133 2.282 1_545 S
N112 Co111 1.995 1_565 S
N112 C113 1.376 . S
N112 C116 1.383 . S
C113 N112 1.376 . S
C113 C114 1.446 . S
C113 C143 1.391 . S
C114 C113 1.446 . S
C114 C115 1.339 . S
C114 H149 0.949 . S
C115 C114 1.339 . S
C115 C116 1.439 . S
C115 H150 0.950 . S
C116 N112 1.383 . S
C116 C115 1.439 . S
C116 C145 1.392 1_565 S
N117 Co111 2.008 . S
N117 C118 1.376 . S
N117 C121 1.374 . S
C118 N117 1.376 . S
C118 C119 1.443 . S
C118 C145 1.389 . S
C119 C118 1.443 . S
C119 C120 1.340 . S
C119 H151 0.951 . S
C120 C119 1.340 . S
C120 C121 1.439 . S
C120 H152 0.950 . S
C121 N117 1.374 . S
C121 C120 1.439 . S
C121 C146 1.395 . S
N122 Co111 1.995 . S
N122 C123 1.376 . S
N122 C126 1.383 . S
C123 N122 1.376 . S
C123 C124 1.446 . S
C123 C146 1.391 . S
C124 C123 1.446 . S
C124 C125 1.339 . S
C124 H153 0.949 . S
C125 C124 1.339 . S
C125 C126 1.439 . S
C125 H154 0.950 . S
C126 N122 1.383 . S
C126 C125 1.439 . S
C126 C144 1.392 1_545 S
N127 Co111 2.282 . S
N127 C130 1.332 . S
N127 C132 1.332 1_545 S
C128 C129 1.386 . S
C128 C131 1.388 . S
C129 C128 1.386 . S
C129 C130 1.382 . S
C129 H155 0.950 . S
C130 N127 1.332 . S
C130 C129 1.382 . S
C130 H141 0.952 . S
C131 C128 1.388 . S
C131 C132 1.382 1_545 S
C131 H156 0.950 1_545 S
C132 N127 1.332 1_565 S
C132 C131 1.382 1_565 S
C132 H142 0.948 . S
N133 Co111 2.282 1_565 S
N133 C137 1.332 . S
N133 C138 1.332 1_565 S
C134 C135 1.388 1_545 S
C134 C138 1.382 . S
C134 H157 0.950 . S
C135 C134 1.388 1_565 S
C135 C136 1.386 . S
C136 C135 1.386 . S
C136 C137 1.382 . S
C136 H158 0.950 . S
C137 N133 1.332 . S
C137 C136 1.382 . S
C137 H139 0.952 . S
C138 N133 1.332 1_545 S
C138 C134 1.382 . S
C138 H140 0.948 . S
H139 C137 0.952 . S
H140 C138 0.948 . S
H141 C130 0.952 . S
H142 C132 0.948 . S
C143 C109 1.395 . S
C143 C113 1.391 . S
C144 C106 1.389 . S
C144 C126 1.392 1_565 S
C145 C116 1.392 1_545 S
C145 C118 1.389 . S
C146 C121 1.395 . S
C146 C123 1.391 . S
H147 C107 0.951 . S
H148 C108 0.950 . S
H149 C114 0.949 . S
H150 C115 0.950 . S
H151 C119 0.951 . S
H152 C120 0.950 . S
H153 C124 0.949 . S
H154 C125 0.950 . S
H155 C129 0.950 . S
H156 C131 0.950 1_565 S
H157 C134 0.950 . S
H158 C136 0.950 . S
C159 C160 1.443 . S
C159 N163 1.376 . S
C159 C197 1.389 . S
C160 C159 1.443 . S
C160 C161 1.340 . S
C160 H200 0.951 . S
C161 C160 1.340 . S
C161 C162 1.439 . S
C161 H201 0.950 . S
C162 C161 1.439 . S
C162 N163 1.374 . S
C162 C196 1.395 . S
N163 C159 1.376 . S
N163 C162 1.374 . S
N163 Co164 2.008 . S
Co164 N163 2.008 . S
Co164 N165 1.995 . S
Co164 N170 2.008 . S
Co164 N175 1.995 . S
Co164 N180 2.282 . S
Co164 N186 2.282 . S
N165 Co164 1.995 . S
N165 C166 1.376 . S
N165 C169 1.383 . S
C166 N165 1.376 . S
C166 C167 1.446 . S
C166 C196 1.391 . S
C167 C166 1.446 . S
C167 C168 1.339 . S
C167 H202 0.949 . S
C168 C167 1.339 . S
C168 C169 1.439 . S
C168 H203 0.950 . S
C169 N165 1.383 . S
C169 C168 1.439 . S
C169 C198 1.392 . S
N170 Co164 2.008 . S
N170 C171 1.376 . S
N170 C174 1.374 . S
C171 N170 1.376 . S
C171 C172 1.443 . S
C171 C198 1.389 . S
C172 C171 1.443 . S
C172 C173 1.340 . S
C172 H204 0.951 . S
C173 C172 1.340 . S
C173 C174 1.439 . S
C173 H205 0.950 . S
C174 N170 1.374 . S
C174 C173 1.439 . S
C174 C199 1.395 . S
N175 Co164 1.995 . S
N175 C176 1.376 . S
N175 C179 1.383 . S
C176 N175 1.376 . S
C176 C177 1.446 . S
C176 C199 1.391 . S
C177 C176 1.446 . S
C177 C178 1.339 . S
C177 H206 0.949 . S
C178 C177 1.339 . S
C178 C179 1.439 . S
C178 H207 0.950 . S
C179 N175 1.383 . S
C179 C178 1.439 . S
C179 C197 1.392 . S
N180 Co164 2.282 . S
N180 C183 1.332 . S
N180 C185 1.332 . S
C181 C182 1.386 . S
C181 C184 1.388 . S
C182 C181 1.386 . S
C182 C183 1.382 . S
C182 H208 0.950 . S
C183 N180 1.332 . S
C183 C182 1.382 . S
C183 H194 0.952 . S
C184 C181 1.388 . S
C184 C185 1.382 . S
C184 H209 0.950 . S
C185 N180 1.332 . S
C185 C184 1.382 . S
C185 H195 0.948 . S
N186 Co164 2.282 . S
N186 C190 1.332 . S
N186 C191 1.332 . S
C187 C188 1.388 . S
C187 C191 1.382 . S
C187 H210 0.950 . S
C188 C187 1.388 . S
C188 C189 1.386 . S
C189 C188 1.386 . S
C189 C190 1.382 . S
C189 H211 0.950 . S
C190 N186 1.332 . S
C190 C189 1.382 . S
C190 H192 0.952 . S
C191 N186 1.332 . S
C191 C187 1.382 . S
C191 H193 0.948 . S
H192 C190 0.952 . S
H193 C191 0.948 . S
H194 C183 0.952 . S
H195 C185 0.948 . S
C196 C162 1.395 . S
C196 C166 1.391 . S
C197 C159 1.389 . S
C197 C179 1.392 . S
C198 C169 1.392 . S
C198 C171 1.389 . S
C199 C174 1.395 . S
C199 C176 1.391 . S
H200 C160 0.951 . S
H201 C161 0.950 . S
H202 C167 0.949 . S
H203 C168 0.950 . S
H204 C172 0.951 . S
H205 C173 0.950 . S
H206 C177 0.949 . S
H207 C178 0.950 . S
H208 C182 0.950 . S
H209 C184 0.950 . S
H210 C187 0.950 . S
H211 C189 0.950 . S
C212 C213 1.443 . S
C212 N216 1.376 . S
C212 C250 1.389 1_556 S
C213 C212 1.443 . S
C213 C214 1.340 . S
C213 H253 0.951 . S
C214 C213 1.340 . S
C214 C215 1.439 . S
C214 H254 0.950 . S
C215 C214 1.439 . S
C215 N216 1.374 . S
C215 C249 1.395 . S
N216 C212 1.376 . S
N216 C215 1.374 . S
N216 Co217 2.008 1_556 S
Co217 N216 2.008 1_554 S
Co217 N218 1.995 1_554 S
Co217 N223 2.008 . S
Co217 N228 1.995 . S
Co217 N233 2.282 . S
Co217 N239 2.282 . S
N218 Co217 1.995 1_556 S
N218 C219 1.376 . S
N218 C222 1.380 1_556 S
C219 N218 1.376 . S
C219 C220 1.446 . S
C219 C249 1.391 . S
C220 C219 1.446 . S
C220 C221 1.339 . S
C220 H255 0.949 . S
C221 C220 1.339 . S
C221 C222 1.431 1_556 S
C221 H256 0.950 . S
C222 N218 1.380 1_554 S
C222 C221 1.431 1_554 S
C222 C251 1.401 . S
N223 Co217 2.008 . S
N223 C224 1.376 . S
N223 C227 1.374 . S
C224 N223 1.376 . S
C224 C225 1.443 . S
C224 C251 1.389 . S
C225 C224 1.443 . S
C225 C226 1.340 . S
C225 H257 0.951 . S
C226 C225 1.340 . S
C226 C227 1.439 . S
C226 H258 0.950 . S
C227 N223 1.374 . S
C227 C226 1.439 . S
C227 C252 1.395 . S
N228 Co217 1.995 . S
N228 C229 1.376 . S
N228 C232 1.383 . S
C229 N228 1.376 . S
C229 C230 1.446 . S
C229 C252 1.391 . S
C230 C229 1.446 . S
C230 C231 1.339 . S
C230 H259 0.949 . S
C231 C230 1.339 . S
C231 C232 1.439 . S
C231 H260 0.950 . S
C232 N228 1.383 . S
C232 C231 1.439 . S
C232 C250 1.392 . S
N233 Co217 2.282 . S
N233 C236 1.332 . S
N233 C238 1.332 . S
C234 C235 1.386 . S
C234 C237 1.388 . S
C235 C234 1.386 . S
C235 C236 1.382 . S
C235 H261 0.950 . S
C236 N233 1.332 . S
C236 C235 1.382 . S
C236 H247 0.952 . S
C237 C234 1.388 . S
C237 C238 1.382 . S
C237 H262 0.950 1_554 S
C238 N233 1.332 . S
C238 C237 1.382 . S
C238 H248 0.948 1_554 S
N239 Co217 2.282 . S
N239 C243 1.332 1_554 S
N239 C244 1.332 . S
C240 C241 1.360 1_554 S
C240 C244 1.382 . S
C240 H263 0.950 . S
C241 C240 1.360 1_556 S
C241 C242 1.408 . S
C242 C241 1.408 . S
C242 C243 1.382 . S
C242 H264 0.950 . S
C243 N239 1.332 1_556 S
C243 C242 1.382 . S
C243 H245 0.952 . S
C244 N239 1.332 . S
C244 C240 1.382 . S
C244 H246 0.948 . S
H245 C243 0.952 . S
H246 C244 0.948 . S
H247 C236 0.952 . S
H248 C238 0.948 1_556 S
C249 C215 1.395 . S
C249 C219 1.391 . S
C250 C212 1.389 1_554 S
C250 C232 1.392 . S
C251 C222 1.401 . S
C251 C224 1.389 . S
C252 C227 1.395 . S
C252 C229 1.391 . S
H253 C213 0.951 . S
H254 C214 0.950 . S
H255 C220 0.949 . S
H256 C221 0.950 . S
H257 C225 0.951 . S
H258 C226 0.950 . S
H259 C230 0.949 . S
H260 C231 0.950 . S
H261 C235 0.950 . S
H262 C237 0.950 1_556 S
H263 C240 0.950 . S
H264 C242 0.950 . S
C265 C266 1.443 . S
C265 N269 1.376 . S
C265 C303 1.389 . S
C266 C265 1.443 . S
C266 C267 1.340 . S
C266 H306 0.951 . S
C267 C266 1.340 . S
C267 C268 1.439 . S
C267 H307 0.950 . S
C268 C267 1.439 . S
C268 N269 1.374 . S
C268 C302 1.395 . S
N269 C265 1.376 . S
N269 C268 1.374 . S
N269 Co270 2.008 . S
Co270 N269 2.008 . S
Co270 N271 1.995 . S
Co270 N276 2.008 . S
Co270 N281 1.995 . S
Co270 N286 2.282 . S
Co270 N292 2.282 . S
N271 Co270 1.995 . S
N271 C272 1.376 . S
N271 C275 1.383 . S
C272 N271 1.376 . S
C272 C273 1.446 . S
C272 C302 1.391 . S
C273 C272 1.446 . S
C273 C274 1.339 . S
C273 H308 0.949 . S
C274 C273 1.339 . S
C274 C275 1.439 . S
C274 H309 0.950 . S
C275 N271 1.383 . S
C275 C274 1.439 . S
C275 C304 1.392 . S
N276 Co270 2.008 . S
N276 C277 1.376 . S
N276 C280 1.374 . S
C277 N276 1.376 . S
C277 C278 1.443 . S
C277 C304 1.389 . S
C278 C277 1.443 . S
C278 C279 1.340 . S
C278 H310 0.951 . S
C279 C278 1.340 . S
C279 C280 1.439 . S
C279 H311 0.950 . S
C280 N276 1.374 . S
C280 C279 1.439 . S
C280 C305 1.395 . S
N281 Co270 1.995 . S
N281 C282 1.376 . S
N281 C285 1.383 . S
C282 N281 1.376 . S
C282 C283 1.446 . S
C282 C305 1.391 . S
C283 C282 1.446 . S
C283 C284 1.339 . S
C283 H312 0.949 . S
C284 C283 1.339 . S
C284 C285 1.439 . S
C284 H313 0.950 . S
C285 N281 1.383 . S
C285 C284 1.439 . S
C285 C303 1.392 . S
N286 Co270 2.282 . S
N286 C289 1.332 . S
N286 C291 1.332 . S
C287 C288 1.386 . S
C287 C290 1.388 . S
C288 C287 1.386 . S
C288 C289 1.382 . S
C288 H314 0.950 . S
C289 N286 1.332 . S
C289 C288 1.382 . S
C289 H300 0.952 . S
C290 C287 1.388 . S
C290 C291 1.382 . S
C290 H315 0.950 . S
C291 N286 1.332 . S
C291 C290 1.382 . S
C291 H301 0.948 . S
N292 Co270 2.282 . S
N292 C296 1.332 . S
N292 C297 1.332 . S
C293 C294 1.388 . S
C293 C297 1.382 . S
C293 H316 0.950 . S
C294 C293 1.388 . S
C294 C295 1.386 . S
C295 C294 1.386 . S
C295 C296 1.382 . S
C295 H317 0.950 . S
C296 N292 1.332 . S
C296 C295 1.382 . S
C296 H298 0.952 . S
C297 N292 1.332 . S
C297 C293 1.382 . S
C297 H299 0.948 . S
H298 C296 0.952 . S
H299 C297 0.948 . S
H300 C289 0.952 . S
H301 C291 0.948 . S
C302 C268 1.395 . S
C302 C272 1.391 . S
C303 C265 1.389 . S
C303 C285 1.392 . S
C304 C275 1.392 . S
C304 C277 1.389 . S
C305 C280 1.395 . S
C305 C282 1.391 . S
H306 C266 0.951 . S
H307 C267 0.950 . S
H308 C273 0.949 . S
H309 C274 0.950 . S
H310 C278 0.951 . S
H311 C279 0.950 . S
H312 C283 0.949 . S
H313 C284 0.950 . S
H314 C288 0.950 . S
H315 C290 0.950 . S
H316 C293 0.950 . S
H317 C295 0.950 . S
C318 C319 1.443 . S
C318 N322 1.376 . S
C318 C356 1.389 . S
C319 C318 1.443 . S
C319 C320 1.340 . S
C319 H359 0.951 . S
C320 C319 1.340 . S
C320 C321 1.439 . S
C320 H360 0.950 . S
C321 C320 1.439 . S
C321 N322 1.374 . S
C321 C355 1.395 . S
N322 C318 1.376 . S
N322 C321 1.374 . S
N322 Co323 2.008 . S
Co323 N322 2.008 . S
Co323 N324 1.995 . S
Co323 N329 2.008 . S
Co323 N334 1.995 . S
Co323 N339 2.282 . S
Co323 N345 2.282 . S
N324 Co323 1.995 . S
N324 C325 1.376 . S
N324 C328 1.383 . S
C325 N324 1.376 . S
C325 C326 1.446 . S
C325 C355 1.391 . S
C326 C325 1.446 . S
C326 C327 1.339 . S
C326 H361 0.949 . S
C327 C326 1.339 . S
C327 C328 1.439 . S
C327 H362 0.950 . S
C328 N324 1.383 . S
C328 C327 1.439 . S
C328 C357 1.392 . S
N329 Co323 2.008 . S
N329 C330 1.376 . S
N329 C333 1.374 . S
C330 N329 1.376 . S
C330 C331 1.443 . S
C330 C357 1.389 . S
C331 C330 1.443 . S
C331 C332 1.340 . S
C331 H363 0.951 . S
C332 C331 1.340 . S
C332 C333 1.439 . S
C332 H364 0.950 . S
C333 N329 1.374 . S
C333 C332 1.439 . S
C333 C358 1.395 . S
N334 Co323 1.995 . S
N334 C335 1.376 . S
N334 C338 1.383 . S
C335 N334 1.376 . S
C335 C336 1.446 . S
C335 C358 1.391 . S
C336 C335 1.446 . S
C336 C337 1.339 . S
C336 H365 0.949 . S
C337 C336 1.339 . S
C337 C338 1.439 . S
C337 H366 0.950 . S
C338 N334 1.383 . S
C338 C337 1.439 . S
C338 C356 1.392 . S
N339 Co323 2.282 . S
N339 C342 1.332 . S
N339 C344 1.332 . S
C340 C341 1.386 . S
C340 C343 1.388 . S
C341 C340 1.386 . S
C341 C342 1.382 . S
C341 H367 0.950 . S
C342 N339 1.332 . S
C342 C341 1.382 . S
C342 H353 0.952 . S
C343 C340 1.388 . S
C343 C344 1.382 . S
C343 H368 0.950 . S
C344 N339 1.332 . S
C344 C343 1.382 . S
C344 H354 0.948 . S
N345 Co323 2.282 . S
N345 C349 1.332 . S
N345 C350 1.332 . S
C346 C347 1.388 . S
C346 C350 1.382 . S
C346 H369 0.950 . S
C347 C346 1.388 . S
C347 C348 1.386 . S
C348 C347 1.386 . S
C348 C349 1.382 . S
C348 H370 0.950 . S
C349 N345 1.332 . S
C349 C348 1.382 . S
C349 H351 0.952 . S
C350 N345 1.332 . S
C350 C346 1.382 . S
C350 H352 0.948 . S
H351 C349 0.952 . S
H352 C350 0.948 . S
H353 C342 0.952 . S
H354 C344 0.948 . S
C355 C321 1.395 . S
C355 C325 1.391 . S
C356 C318 1.389 . S
C356 C338 1.392 . S
C357 C328 1.392 . S
C357 C330 1.389 . S
C358 C333 1.395 . S
C358 C335 1.391 . S
H359 C319 0.951 . S
H360 C320 0.950 . S
H361 C326 0.949 . S
H362 C327 0.950 . S
H363 C331 0.951 . S
H364 C332 0.950 . S
H365 C336 0.949 . S
H366 C337 0.950 . S
H367 C341 0.950 . S
H368 C343 0.950 . S
H369 C346 0.950 . S
H370 C348 0.950 . S
C371 C372 1.443 . S
C371 N375 1.376 . S
C371 C409 1.389 . S
C372 C371 1.443 . S
C372 C373 1.340 . S
C372 H412 0.951 . S
C373 C372 1.340 . S
C373 C374 1.439 . S
C373 H413 0.950 . S
C374 C373 1.439 . S
C374 N375 1.374 . S
C374 C408 1.395 . S
N375 C371 1.376 . S
N375 C374 1.374 . S
N375 Co376 2.008 . S
Co376 N375 2.008 . S
Co376 N377 1.995 . S
Co376 N382 2.008 . S
Co376 N387 1.995 . S
Co376 N392 2.282 . S
Co376 N398 2.282 . S
N377 Co376 1.995 . S
N377 C378 1.376 . S
N377 C381 1.383 . S
C378 N377 1.376 . S
C378 C379 1.446 . S
C378 C408 1.391 . S
C379 C378 1.446 . S
C379 C380 1.339 . S
C379 H414 0.949 . S
C380 C379 1.339 . S
C380 C381 1.439 . S
C380 H415 0.950 . S
C381 N377 1.383 . S
C381 C380 1.439 . S
C381 C410 1.392 . S
N382 Co376 2.008 . S
N382 C383 1.376 . S
N382 C386 1.374 . S
C383 N382 1.376 . S
C383 C384 1.443 . S
C383 C410 1.389 . S
C384 C383 1.443 . S
C384 C385 1.340 . S
C384 H416 0.951 . S
C385 C384 1.340 . S
C385 C386 1.439 . S
C385 H417 0.950 . S
C386 N382 1.374 . S
C386 C385 1.439 . S
C386 C411 1.395 . S
N387 Co376 1.995 . S
N387 C388 1.376 . S
N387 C391 1.383 . S
C388 N387 1.376 . S
C388 C389 1.446 . S
C388 C411 1.391 . S
C389 C388 1.446 . S
C389 C390 1.339 . S
C389 H418 0.949 . S
C390 C389 1.339 . S
C390 C391 1.439 . S
C390 H419 0.950 . S
C391 N387 1.383 . S
C391 C390 1.439 . S
C391 C409 1.392 . S
N392 Co376 2.282 . S
N392 C395 1.332 . S
N392 C397 1.332 . S
C393 C394 1.386 . S
C393 C396 1.388 . S
C394 C393 1.386 . S
C394 C395 1.382 . S
C394 H420 0.950 . S
C395 N392 1.332 . S
C395 C394 1.382 . S
C395 H406 0.952 . S
C396 C393 1.388 . S
C396 C397 1.382 . S
C396 H421 0.950 . S
C397 N392 1.332 . S
C397 C396 1.382 . S
C397 H407 0.948 . S
N398 Co376 2.282 . S
N398 C402 1.332 . S
N398 C403 1.332 . S
C399 C400 1.388 . S
C399 C403 1.382 . S
C399 H422 0.950 . S
C400 C399 1.388 . S
C400 C401 1.386 . S
C401 C400 1.386 . S
C401 C402 1.382 . S
C401 H423 0.950 . S
C402 N398 1.332 . S
C402 C401 1.382 . S
C402 H404 0.952 . S
C403 N398 1.332 . S
C403 C399 1.382 . S
C403 H405 0.948 . S
H404 C402 0.952 . S
H405 C403 0.948 . S
H406 C395 0.952 . S
H407 C397 0.948 . S
C408 C374 1.395 . S
C408 C378 1.391 . S
C409 C371 1.389 . S
C409 C391 1.392 . S
C410 C381 1.392 . S
C410 C383 1.389 . S
C411 C386 1.395 . S
C411 C388 1.391 . S
H412 C372 0.951 . S
H413 C373 0.950 . S
H414 C379 0.949 . S
H415 C380 0.950 . S
H416 C384 0.951 . S
H417 C385 0.950 . S
H418 C389 0.949 . S
H419 C390 0.950 . S
H420 C394 0.950 . S
H421 C396 0.950 . S
H422 C399 0.950 . S
H423 C401 0.950 . S
C424 C425 1.443 . S
C424 N428 1.376 . S
C424 C462 1.389 . S
C425 C424 1.443 . S
C425 C426 1.340 . S
C425 H465 0.951 . S
C426 C425 1.340 . S
C426 C427 1.439 . S
C426 H466 0.950 . S
C427 C426 1.439 . S
C427 N428 1.374 . S
C427 C461 1.395 . S
N428 C424 1.376 . S
N428 C427 1.374 . S
N428 Co429 2.008 . S
Co429 N428 2.008 . S
Co429 N430 1.995 . S
Co429 N435 2.008 . S
Co429 N440 1.995 . S
Co429 N445 2.282 . S
Co429 N451 2.282 . S
N430 Co429 1.995 . S
N430 C431 1.376 . S
N430 C434 1.383 . S
C431 N430 1.376 . S
C431 C432 1.446 . S
C431 C461 1.391 . S
C432 C431 1.446 . S
C432 C433 1.339 . S
C432 H467 0.949 . S
C433 C432 1.339 . S
C433 C434 1.439 . S
C433 H468 0.950 . S
C434 N430 1.383 . S
C434 C433 1.439 . S
C434 C463 1.392 . S
N435 Co429 2.008 . S
N435 C436 1.376 . S
N435 C439 1.374 . S
C436 N435 1.376 . S
C436 C437 1.443 . S
C436 C463 1.389 . S
C437 C436 1.443 . S
C437 C438 1.340 . S
C437 H469 0.951 . S
C438 C437 1.340 . S
C438 C439 1.439 . S
C438 H470 0.950 . S
C439 N435 1.374 . S
C439 C438 1.439 . S
C439 C464 1.395 . S
N440 Co429 1.995 . S
N440 C441 1.376 . S
N440 C444 1.383 . S
C441 N440 1.376 . S
C441 C442 1.446 . S
C441 C464 1.391 . S
C442 C441 1.446 . S
C442 C443 1.339 . S
C442 H471 0.949 . S
C443 C442 1.339 . S
C443 C444 1.439 . S
C443 H472 0.950 . S
C444 N440 1.383 . S
C444 C443 1.439 . S
C444 C462 1.392 . S
N445 Co429 2.282 . S
N445 C448 1.332 . S
N445 C450 1.332 . S
C446 C447 1.386 . S
C446 C449 1.388 . S
C447 C446 1.386 . S
C447 C448 1.382 . S
C447 H473 0.950 . S
C448 N445 1.332 . S
C448 C447 1.382 . S
C448 H459 0.952 . S
C449 C446 1.388 . S
C449 C450 1.382 . S
C449 H474 0.950 . S
C450 N445 1.332 . S
C450 C449 1.382 . S
C450 H460 0.948 . S
N451 Co429 2.282 . S
N451 C455 1.332 . S
N451 C456 1.332 . S
C452 C453 1.388 . S
C452 C456 1.382 . S
C452 H475 0.950 . S
C453 C452 1.388 . S
C453 C454 1.386 . S
C454 C453 1.386 . S
C454 C455 1.382 . S
C454 H476 0.950 . S
C455 N451 1.332 . S
C455 C454 1.382 . S
C455 H457 0.952 . S
C456 N451 1.332 . S
C456 C452 1.382 . S
C456 H458 0.948 . S
H457 C455 0.952 . S
H458 C456 0.948 . S
H459 C448 0.952 . S
H460 C450 0.948 . S
C461 C427 1.395 . S
C461 C431 1.391 . S
C462 C424 1.389 . S
C462 C444 1.392 . S
C463 C434 1.392 . S
C463 C436 1.389 . S
C464 C439 1.395 . S
C464 C441 1.391 . S
H465 C425 0.951 . S
H466 C426 0.950 . S
H467 C432 0.949 . S
H468 C433 0.950 . S
H469 C437 0.951 . S
H470 C438 0.950 . S
H471 C442 0.949 . S
H472 C443 0.950 . S
H473 C447 0.950 . S
H474 C449 0.950 . S
H475 C452 0.950 . S
H476 C454 0.950 . S
C477 C478 1.443 . S
C477 N481 1.376 . S
C477 C515 1.389 . S
C478 C477 1.443 . S
C478 C479 1.340 . S
C478 H518 0.951 . S
C479 C478 1.340 . S
C479 C480 1.439 . S
C479 H519 0.950 . S
C480 C479 1.439 . S
C480 N481 1.374 . S
C480 C514 1.395 . S
N481 C477 1.376 . S
N481 C480 1.374 . S
N481 Co482 2.008 . S
Co482 N481 2.008 . S
Co482 N483 1.995 . S
Co482 N488 2.008 . S
Co482 N493 1.995 . S
Co482 N498 2.282 . S
Co482 N504 2.282 . S
N483 Co482 1.995 . S
N483 C484 1.376 . S
N483 C487 1.383 . S
C484 N483 1.376 . S
C484 C485 1.446 . S
C484 C514 1.391 . S
C485 C484 1.446 . S
C485 C486 1.339 . S
C485 H520 0.949 . S
C486 C485 1.339 . S
C486 C487 1.439 . S
C486 H521 0.950 . S
C487 N483 1.383 . S
C487 C486 1.439 . S
C487 C516 1.392 . S
N488 Co482 2.008 . S
N488 C489 1.376 . S
N488 C492 1.374 . S
C489 N488 1.376 . S
C489 C490 1.443 . S
C489 C516 1.389 . S
C490 C489 1.443 . S
C490 C491 1.340 . S
C490 H522 0.951 . S
C491 C490 1.340 . S
C491 C492 1.439 . S
C491 H523 0.950 . S
C492 N488 1.374 . S
C492 C491 1.439 . S
C492 C517 1.395 . S
N493 Co482 1.995 . S
N493 C494 1.376 . S
N493 C497 1.383 . S
C494 N493 1.376 . S
C494 C495 1.446 . S
C494 C517 1.391 . S
C495 C494 1.446 . S
C495 C496 1.339 . S
C495 H524 0.949 . S
C496 C495 1.339 . S
C496 C497 1.439 . S
C496 H525 0.950 . S
C497 N493 1.383 . S
C497 C496 1.439 . S
C497 C515 1.392 . S
N498 Co482 2.282 . S
N498 C501 1.332 . S
N498 C503 1.332 . S
C499 C500 1.386 . S
C499 C502 1.388 . S
C500 C499 1.386 . S
C500 C501 1.382 . S
C500 H526 0.950 . S
C501 N498 1.332 . S
C501 C500 1.382 . S
C501 H512 0.952 . S
C502 C499 1.388 . S
C502 C503 1.382 . S
C502 H527 0.950 . S
C503 N498 1.332 . S
C503 C502 1.382 . S
C503 H513 0.948 . S
N504 Co482 2.282 . S
N504 C508 1.332 . S
N504 C509 1.332 . S
C505 C506 1.388 . S
C505 C509 1.382 . S
C505 H528 0.950 . S
C506 C505 1.388 . S
C506 C507 1.386 . S
C507 C506 1.386 . S
C507 C508 1.382 . S
C507 H529 0.950 . S
C508 N504 1.332 . S
C508 C507 1.382 . S
C508 H510 0.952 . S
C509 N504 1.332 . S
C509 C505 1.382 . S
C509 H511 0.948 . S
H510 C508 0.952 . S
H511 C509 0.948 . S
H512 C501 0.952 . S
H513 C503 0.948 . S
C514 C480 1.395 . S
C514 C484 1.391 . S
C515 C477 1.389 . S
C515 C497 1.392 . S
C516 C487 1.392 . S
C516 C489 1.389 . S
C517 C492 1.395 . S
C517 C494 1.391 . S
H518 C478 0.951 . S
H519 C479 0.950 . S
H520 C485 0.949 . S
H521 C486 0.950 . S
H522 C490 0.951 . S
H523 C491 0.950 . S
H524 C495 0.949 . S
H525 C496 0.950 . S
H526 C500 0.950 . S
H527 C502 0.950 . S
H528 C505 0.950 . S
H529 C507 0.950 . S
C530 C531 1.443 . S
C530 N534 1.376 . S
C530 C568 1.389 . S
C531 C530 1.443 . S
C531 C532 1.340 . S
C531 H571 0.951 . S
C532 C531 1.340 . S
C532 C533 1.439 . S
C532 H572 0.950 . S
C533 C532 1.439 . S
C533 N534 1.374 . S
C533 C567 1.395 . S
N534 C530 1.376 . S
N534 C533 1.374 . S
N534 Co535 2.008 . S
Co535 N534 2.008 . S
Co535 N536 1.995 . S
Co535 N541 2.008 1_545 S
Co535 N546 1.995 1_545 S
Co535 N551 2.282 . S
Co535 N557 2.282 . S
N536 Co535 1.995 . S
N536 C537 1.376 . S
N536 C540 1.383 . S
C537 N536 1.376 . S
C537 C538 1.446 . S
C537 C567 1.391 . S
C538 C537 1.446 . S
C538 C539 1.339 . S
C538 H573 0.949 . S
C539 C538 1.339 . S
C539 C540 1.439 . S
C539 H574 0.950 . S
C540 N536 1.383 . S
C540 C539 1.439 . S
C540 C569 1.392 1_545 S
N541 Co535 2.008 1_565 S
N541 C542 1.376 . S
N541 C545 1.374 . S
C542 N541 1.376 . S
C542 C543 1.443 . S
C542 C569 1.389 . S
C543 C542 1.443 . S
C543 C544 1.340 . S
C543 H575 0.951 . S
C544 C543 1.340 . S
C544 C545 1.439 . S
C544 H576 0.950 . S
C545 N541 1.374 . S
C545 C544 1.439 . S
C545 C570 1.395 . S
N546 Co535 1.995 1_565 S
N546 C547 1.376 . S
N546 C550 1.383 . S
C547 N546 1.376 . S
C547 C548 1.446 . S
C547 C570 1.391 . S
C548 C547 1.446 . S
C548 C549 1.339 . S
C548 H577 0.949 . S
C549 C548 1.339 . S
C549 C550 1.439 . S
C549 H578 0.950 . S
C550 N546 1.383 . S
C550 C549 1.439 . S
C550 C568 1.392 1_565 S
N551 Co535 2.282 . S
N551 C554 1.332 1_545 S
N551 C556 1.332 . S
C552 C553 1.386 . S
C552 C555 1.388 1_565 S
C553 C552 1.386 . S
C553 C554 1.382 . S
C553 H579 0.950 . S
C554 N551 1.332 1_565 S
C554 C553 1.382 . S
C554 H565 0.952 . S
C555 C552 1.388 1_545 S
C555 C556 1.382 . S
C555 H580 0.950 . S
C556 N551 1.332 . S
C556 C555 1.382 . S
C556 H566 0.948 . S
N557 Co535 2.282 . S
N557 C561 1.332 . S
N557 C562 1.332 . S
C558 C559 1.388 . S
C558 C562 1.382 . S
C558 H581 0.950 1_545 S
C559 C558 1.388 . S
C559 C560 1.386 . S
C560 C559 1.386 . S
C560 C561 1.382 . S
C560 H582 0.950 . S
C561 N557 1.332 . S
C561 C560 1.382 . S
C561 H563 0.952 . S
C562 N557 1.332 . S
C562 C558 1.382 . S
C562 H564 0.948 1_545 S
H563 C561 0.952 . S
H564 C562 0.948 1_565 S
H565 C554 0.952 . S
H566 C556 0.948 . S
C567 C533 1.395 . S
C567 C537 1.391 . S
C568 C530 1.389 . S
C568 C550 1.392 1_545 S
C569 C540 1.392 1_565 S
C569 C542 1.389 . S
C570 C545 1.395 . S
C570 C547 1.391 . S
H571 C531 0.951 . S
H572 C532 0.950 . S
H573 C538 0.949 . S
H574 C539 0.950 . S
H575 C543 0.951 . S
H576 C544 0.950 . S
H577 C548 0.949 . S
H578 C549 0.950 . S
H579 C553 0.950 . S
H580 C555 0.950 . S
H581 C558 0.950 1_565 S
H582 C560 0.950 . S
C583 C584 1.443 . S
C583 N587 1.376 . S
C583 C621 1.389 . S
C584 C583 1.443 . S
C584 C585 1.340 . S
C584 H624 0.951 . S
C585 C584 1.340 . S
C585 C586 1.439 . S
C585 H625 0.950 . S
C586 C585 1.439 . S
C586 N587 1.374 . S
C586 C620 1.395 . S
N587 C583 1.376 . S
N587 C586 1.374 . S
N587 Co588 2.008 1_556 S
Co588 N587 2.008 1_554 S
Co588 N589 1.995 1_554 S
Co588 N594 2.008 . S
Co588 N599 1.995 . S
Co588 N604 2.282 . S
Co588 N610 2.282 1_554 S
N589 Co588 1.995 1_556 S
N589 C590 1.376 . S
N589 C593 1.383 . S
C590 N589 1.376 . S
C590 C591 1.446 . S
C590 C620 1.391 . S
C591 C590 1.446 . S
C591 C592 1.339 . S
C591 H626 0.949 . S
C592 C591 1.339 . S
C592 C593 1.439 . S
C592 H627 0.950 . S
C593 N589 1.383 . S
C593 C592 1.439 . S
C593 C622 1.392 1_556 S
N594 Co588 2.008 . S
N594 C595 1.376 . S
N594 C598 1.374 . S
C595 N594 1.376 . S
C595 C596 1.443 . S
C595 C622 1.389 . S
C596 C595 1.443 . S
C596 C597 1.340 . S
C596 H628 0.951 . S
C597 C596 1.340 . S
C597 C598 1.439 . S
C597 H629 0.950 . S
C598 N594 1.374 . S
C598 C597 1.439 . S
C598 C623 1.395 . S
N599 Co588 1.995 . S
N599 C600 1.376 . S
N599 C603 1.383 . S
C600 N599 1.376 . S
C600 C601 1.446 . S
C600 C623 1.391 . S
C601 C600 1.446 . S
C601 C602 1.339 . S
C601 H630 0.949 . S
C602 C601 1.339 . S
C602 C603 1.439 . S
C602 H631 0.950 . S
C603 N599 1.383 . S
C603 C602 1.439 . S
C603 C621 1.392 1_554 S
N604 Co588 2.282 . S
N604 C607 1.332 . S
N604 C609 1.332 1_554 S
C605 C606 1.386 . S
C605 C608 1.388 1_554 S
C606 C605 1.386 . S
C606 C607 1.382 . S
C606 H632 0.950 . S
C607 N604 1.332 . S
C607 C606 1.382 . S
C607 H618 0.952 . S
C608 C605 1.388 1_556 S
C608 C609 1.382 . S
C608 H633 0.950 . S
C609 N604 1.332 1_556 S
C609 C608 1.382 . S
C609 H619 0.948 . S
N610 Co588 2.282 1_556 S
N610 C614 1.332 . S
N610 C615 1.332 1_556 S
C611 C612 1.388 1_554 S
C611 C615 1.382 . S
C611 H634 0.950 . S
C612 C611 1.388 1_556 S
C612 C613 1.386 . S
C613 C612 1.386 . S
C613 C614 1.382 . S
C613 H635 0.950 . S
C614 N610 1.332 . S
C614 C613 1.382 . S
C614 H616 0.952 . S
C615 N610 1.332 1_554 S
C615 C611 1.382 . S
C615 H617 0.948 . S
H616 C614 0.952 . S
H617 C615 0.948 . S
H618 C607 0.952 . S
H619 C609 0.948 . S
C620 C586 1.395 . S
C620 C590 1.391 . S
C621 C583 1.389 . S
C621 C603 1.392 1_556 S
C622 C593 1.392 1_554 S
C622 C595 1.389 . S
C623 C598 1.395 . S
C623 C600 1.391 . S
H624 C584 0.951 . S
H625 C585 0.950 . S
H626 C591 0.949 . S
H627 C592 0.950 . S
H628 C596 0.951 . S
H629 C597 0.950 . S
H630 C601 0.949 . S
H631 C602 0.950 . S
H632 C606 0.950 . S
H633 C608 0.950 . S
H634 C611 0.950 . S
H635 C613 0.950 . S
O636 Zn637 1.953 . S
O636 C652 1.225 . S
Zn637 O636 1.953 . S
Zn637 O638 1.949 . S
Zn637 O644 1.919 . S
Zn637 O649 1.924 . S
O638 Zn637 1.949 . S
O638 Zn639 1.923 . S
O638 Zn640 1.950 . S
O638 Zn641 1.945 . S
Zn639 O638 1.923 . S
Zn639 O642 1.933 . S
Zn639 O645 1.941 . S
Zn639 O646 1.965 . S
Zn640 O638 1.950 . S
Zn640 O647 1.938 . S
Zn640 O648 1.906 1_554 S
Zn640 O658 1.953 . S
Zn641 O638 1.945 . S
Zn641 O643 1.932 . S
Zn641 O650 1.977 1_554 S
Zn641 O651 1.910 1_545 S
O642 Zn639 1.933 . S
O642 C653 1.226 . S
O643 Zn641 1.932 . S
O643 C653 1.307 . S
O644 Zn637 1.919 . S
O644 C655 1.253 . S
O645 Zn639 1.941 . S
O645 C655 1.283 . S
O646 Zn639 1.965 . S
O646 C654 1.303 . S
O647 Zn640 1.938 . S
O647 C654 1.247 . S
O648 Zn640 1.906 1_556 S
O648 C656 1.304 . S
O649 Zn637 1.924 . S
O649 C657 1.311 1_545 S
O650 Zn641 1.977 1_556 S
O650 C656 1.272 . S
O651 Zn641 1.910 1_565 S
O651 C657 1.231 . S
C652 O636 1.225 . S
C652 O658 1.298 . S
C653 O642 1.226 . S
C653 O643 1.307 . S
C654 O646 1.303 . S
C654 O647 1.247 . S
C655 O644 1.253 . S
C655 O645 1.283 . S
C656 O648 1.304 . S
C656 O650 1.272 . S
C657 O649 1.311 1_565 S
C657 O651 1.231 . S
O658 Zn640 1.953 . S
O658 C652 1.298 . S
O659 Zn660 1.953 . S
O659 C675 1.225 . S
Zn660 O659 1.953 . S
Zn660 O661 1.949 . S
Zn660 O667 1.919 . S
Zn660 O672 1.924 . S
O661 Zn660 1.949 . S
O661 Zn662 1.923 . S
O661 Zn663 1.950 . S
O661 Zn664 1.945 . S
Zn662 O661 1.923 . S
Zn662 O665 1.933 1_655 S
Zn662 O668 1.941 . S
Zn662 O669 1.965 . S
Zn663 O661 1.950 . S
Zn663 O670 1.938 . S
Zn663 O671 1.906 1_554 S
Zn663 O681 1.953 . S
Zn664 O661 1.945 . S
Zn664 O666 1.932 1_655 S
Zn664 O673 1.977 1_554 S
Zn664 O674 1.910 . S
O665 Zn662 1.933 1_455 S
O665 C676 1.226 . S
O666 Zn664 1.932 1_455 S
O666 C676 1.307 . S
O667 Zn660 1.919 . S
O667 C678 1.253 . S
O668 Zn662 1.941 . S
O668 C678 1.283 . S
O669 Zn662 1.965 . S
O669 C677 1.303 . S
O670 Zn663 1.938 . S
O670 C677 1.247 . S
O671 Zn663 1.906 1_556 S
O671 C679 1.304 . S
O672 Zn660 1.924 . S
O672 C680 1.311 . S
O673 Zn664 1.977 1_556 S
O673 C679 1.272 . S
O674 Zn664 1.910 . S
O674 C680 1.231 . S
C675 O659 1.225 . S
C675 O681 1.298 . S
C676 O665 1.226 . S
C676 O666 1.307 . S
C677 O669 1.303 . S
C677 O670 1.247 . S
C678 O667 1.253 . S
C678 O668 1.283 . S
C679 O671 1.304 . S
C679 O673 1.272 . S
C680 O672 1.311 . S
C680 O674 1.231 . S
O681 Zn663 1.953 . S
O681 C675 1.298 . S
O682 Zn683 1.953 . S
O682 C698 1.225 . S
Zn683 O682 1.953 . S
Zn683 O684 1.949 . S
Zn683 O690 1.919 . S
Zn683 O695 1.924 . S
O684 Zn683 1.949 . S
O684 Zn685 1.923 . S
O684 Zn686 1.950 . S
O684 Zn687 1.945 . S
Zn685 O684 1.923 . S
Zn685 O688 1.933 . S
Zn685 O691 1.941 . S
Zn685 O692 1.965 . S
Zn686 O684 1.950 . S
Zn686 O693 1.938 . S
Zn686 O694 1.906 1_455 S
Zn686 O704 1.953 . S
Zn687 O684 1.945 . S
Zn687 O689 1.932 . S
Zn687 O696 1.977 1_455 S
Zn687 O697 1.910 . S
O688 Zn685 1.933 . S
O688 C699 1.226 1_565 S
O689 Zn687 1.932 . S
O689 C699 1.307 1_565 S
O690 Zn683 1.919 . S
O690 C701 1.253 . S
O691 Zn685 1.941 . S
O691 C701 1.283 . S
O692 Zn685 1.965 . S
O692 C700 1.303 . S
O693 Zn686 1.938 . S
O693 C700 1.247 . S
O694 Zn686 1.906 1_655 S
O694 C702 1.304 . S
O695 Zn683 1.924 . S
O695 C703 1.311 . S
O696 Zn687 1.977 1_655 S
O696 C702 1.272 . S
O697 Zn687 1.910 . S
O697 C703 1.231 . S
C698 O682 1.225 . S
C698 O704 1.298 . S
C699 O688 1.226 1_545 S
C699 O689 1.307 1_545 S
C700 O692 1.303 . S
C700 O693 1.247 . S
C701 O690 1.253 . S
C701 O691 1.283 . S
C702 O694 1.304 . S
C702 O696 1.272 . S
C703 O695 1.311 . S
C703 O697 1.231 . S
O704 Zn686 1.953 . S
O704 C698 1.298 . S
O705 Zn706 1.953 . S
O705 C721 1.225 . S
Zn706 O705 1.953 . S
Zn706 O707 1.949 . S
Zn706 O713 1.919 . S
Zn706 O718 1.924 1_655 S
O707 Zn706 1.949 . S
O707 Zn708 1.923 . S
O707 Zn709 1.950 . S
O707 Zn710 1.945 . S
Zn708 O707 1.923 . S
Zn708 O711 1.933 . S
Zn708 O714 1.941 . S
Zn708 O715 1.965 . S
Zn709 O707 1.950 . S
Zn709 O716 1.938 . S
Zn709 O717 1.906 . S
Zn709 O727 1.953 . S
Zn710 O707 1.945 . S
Zn710 O712 1.932 . S
Zn710 O719 1.977 . S
Zn710 O720 1.910 1_655 S
O711 Zn708 1.933 . S
O711 C722 1.226 . S
O712 Zn710 1.932 . S
O712 C722 1.307 . S
O713 Zn706 1.919 . S
O713 C724 1.253 . S
O714 Zn708 1.941 . S
O714 C724 1.283 . S
O715 Zn708 1.965 . S
O715 C723 1.303 . S
O716 Zn709 1.938 . S
O716 C723 1.247 . S
O717 Zn709 1.906 . S
O717 C725 1.304 . S
O718 Zn706 1.924 1_455 S
O718 C726 1.311 . S
O719 Zn710 1.977 . S
O719 C725 1.272 . S
O720 Zn710 1.910 1_455 S
O720 C726 1.231 . S
C721 O705 1.225 . S
C721 O727 1.298 . S
C722 O711 1.226 . S
C722 O712 1.307 . S
C723 O715 1.303 . S
C723 O716 1.247 . S
C724 O713 1.253 . S
C724 O714 1.283 . S
C725 O717 1.304 . S
C725 O719 1.272 . S
C726 O718 1.311 . S
C726 O720 1.231 . S
O727 Zn709 1.953 . S
O727 C721 1.298 . S
O728 Zn729 1.953 . S
O728 C744 1.225 . S
Zn729 O728 1.953 . S
Zn729 O730 1.949 . S
Zn729 O736 1.919 . S
Zn729 O741 1.924 . S
O730 Zn729 1.949 . S
O730 Zn731 1.923 . S
O730 Zn732 1.950 . S
O730 Zn733 1.945 . S
Zn731 O730 1.923 . S
Zn731 O734 1.933 . S
Zn731 O737 1.941 . S
Zn731 O738 1.965 . S
Zn732 O730 1.950 . S
Zn732 O739 1.938 . S
Zn732 O740 1.906 . S
Zn732 O750 1.953 . S
Zn733 O730 1.945 . S
Zn733 O735 1.932 . S
Zn733 O742 1.977 . S
Zn733 O743 1.910 1_565 S
O734 Zn731 1.933 . S
O734 C745 1.226 . S
O735 Zn733 1.932 . S
O735 C745 1.307 . S
O736 Zn729 1.919 . S
O736 C747 1.253 . S
O737 Zn731 1.941 . S
O737 C747 1.283 . S
O738 Zn731 1.965 . S
O738 C746 1.303 . S
O739 Zn732 1.938 . S
O739 C746 1.247 . S
O740 Zn732 1.906 . S
O740 C748 1.304 . S
O741 Zn729 1.924 . S
O741 C749 1.311 1_565 S
O742 Zn733 1.977 . S
O742 C748 1.272 . S
O743 Zn733 1.910 1_545 S
O743 C749 1.231 . S
C744 O728 1.225 . S
C744 O750 1.298 . S
C745 O734 1.226 . S
C745 O735 1.307 . S
C746 O738 1.303 . S
C746 O739 1.247 . S
C747 O736 1.253 . S
C747 O737 1.283 . S
C748 O740 1.304 . S
C748 O742 1.272 . S
C749 O741 1.311 1_545 S
C749 O743 1.231 . S
O750 Zn732 1.953 . S
O750 C744 1.298 . S
O751 Zn752 1.953 . S
O751 C767 1.225 . S
Zn752 O751 1.953 . S
Zn752 O753 1.949 . S
Zn752 O759 1.919 . S
Zn752 O764 1.924 . S
O753 Zn752 1.949 . S
O753 Zn754 1.923 . S
O753 Zn755 1.950 . S
O753 Zn756 1.945 . S
Zn754 O753 1.923 . S
Zn754 O757 1.933 . S
Zn754 O760 1.941 . S
Zn754 O761 1.965 . S
Zn755 O753 1.950 . S
Zn755 O762 1.938 . S
Zn755 O763 1.906 . S
Zn755 O773 1.953 . S
Zn756 O753 1.945 . S
Zn756 O758 1.932 . S
Zn756 O765 1.977 . S
Zn756 O766 1.910 . S
O757 Zn754 1.933 . S
O757 C768 1.226 . S
O758 Zn756 1.932 . S
O758 C768 1.307 . S
O759 Zn752 1.919 . S
O759 C770 1.253 . S
O760 Zn754 1.941 . S
O760 C770 1.283 . S
O761 Zn754 1.965 . S
O761 C769 1.303 . S
O762 Zn755 1.938 . S
O762 C769 1.247 . S
O763 Zn755 1.906 . S
O763 C771 1.304 . S
O764 Zn752 1.924 . S
O764 C772 1.311 . S
O765 Zn756 1.977 . S
O765 C771 1.272 . S
O766 Zn756 1.910 . S
O766 C772 1.231 . S
C767 O751 1.225 . S
C767 O773 1.298 . S
C768 O757 1.226 . S
C768 O758 1.307 . S
C769 O761 1.303 . S
C769 O762 1.247 . S
C770 O759 1.253 . S
C770 O760 1.283 . S
C771 O763 1.304 . S
C771 O765 1.272 . S
C772 O764 1.311 . S
C772 O766 1.231 . S
O773 Zn755 1.953 . S
O773 C767 1.298 . S
O774 Zn775 1.953 . S
O774 C790 1.225 . S
Zn775 O774 1.953 . S
Zn775 O776 1.949 . S
Zn775 O782 1.919 . S
Zn775 O787 1.924 1_556 S
O776 Zn775 1.949 . S
O776 Zn777 1.923 . S
O776 Zn778 1.950 . S
O776 Zn779 1.931 1_556 S
Zn777 O776 1.923 . S
Zn777 O780 1.933 . S
Zn777 O783 1.941 . S
Zn777 O784 1.965 . S
Zn778 O776 1.950 . S
Zn778 O785 1.938 . S
Zn778 O786 1.906 . S
Zn778 O796 1.953 . S
Zn779 O776 1.931 1_554 S
Zn779 O781 1.920 1_554 S
Zn779 O788 1.984 . S
Zn779 O789 1.929 . S
O780 Zn777 1.933 . S
O780 C791 1.226 . S
O781 Zn779 1.920 1_556 S
O781 C791 1.307 . S
O782 Zn775 1.919 . S
O782 C793 1.253 . S
O783 Zn777 1.941 . S
O783 C793 1.283 . S
O784 Zn777 1.965 . S
O784 C792 1.303 . S
O785 Zn778 1.938 . S
O785 C792 1.247 . S
O786 Zn778 1.906 . S
O786 C794 1.304 1_556 S
O787 Zn775 1.924 1_554 S
O787 C795 1.311 . S
O788 Zn779 1.984 . S
O788 C794 1.272 . S
O789 Zn779 1.929 . S
O789 C795 1.231 . S
C790 O774 1.225 . S
C790 O796 1.298 . S
C791 O780 1.226 . S
C791 O781 1.307 . S
C792 O784 1.303 . S
C792 O785 1.247 . S
C793 O782 1.253 . S
C793 O783 1.283 . S
C794 O786 1.304 1_554 S
C794 O788 1.272 . S
C795 O787 1.311 . S
C795 O789 1.231 . S
O796 Zn778 1.953 . S
O796 C790 1.298 . S
O797 Zn798 1.953 . S
O797 C813 1.225 . S
Zn798 O797 1.953 . S
Zn798 O799 1.949 . S
Zn798 O805 1.919 . S
Zn798 O810 1.924 . S
O799 Zn798 1.949 . S
O799 Zn800 1.923 . S
O799 Zn801 1.950 . S
O799 Zn802 1.945 . S
Zn800 O799 1.923 . S
Zn800 O803 1.933 . S
Zn800 O806 1.941 . S
Zn800 O807 1.965 . S
Zn801 O799 1.950 . S
Zn801 O808 1.938 . S
Zn801 O809 1.906 1_545 S
Zn801 O819 1.953 . S
Zn802 O799 1.945 . S
Zn802 O804 1.932 1_556 S
Zn802 O811 1.977 . S
Zn802 O812 1.910 . S
O803 Zn800 1.933 . S
O803 C814 1.226 1_556 S
O804 Zn802 1.932 1_554 S
O804 C814 1.307 . S
O805 Zn798 1.919 . S
O805 C816 1.253 . S
O806 Zn800 1.941 . S
O806 C816 1.283 . S
O807 Zn800 1.965 . S
O807 C815 1.303 . S
O808 Zn801 1.938 . S
O808 C815 1.247 . S
O809 Zn801 1.906 1_565 S
O809 C817 1.304 . S
O810 Zn798 1.924 . S
O810 C818 1.311 . S
O811 Zn802 1.977 . S
O811 C817 1.272 1_545 S
O812 Zn802 1.910 . S
O812 C818 1.231 . S
C813 O797 1.225 . S
C813 O819 1.298 . S
C814 O803 1.226 1_554 S
C814 O804 1.307 . S
C815 O807 1.303 . S
C815 O808 1.247 . S
C816 O805 1.253 . S
C816 O806 1.283 . S
C817 O809 1.304 . S
C817 O811 1.272 1_565 S
C818 O810 1.311 . S
C818 O812 1.231 . S
O819 Zn801 1.953 . S
O819 C813 1.298 . S
C820 C821 1.363 . S
C820 C826 1.379 . S
C820 N828 1.356 . S
C821 C820 1.363 . S
C821 C827 1.363 1_455 S
C822 C823 1.363 1_655 S
C822 C827 1.379 . S
C822 N829 1.356 . S
C823 C822 1.363 1_455 S
C823 C826 1.363 . S
N824 C826 1.356 . S
N824 H836 0.984 . S
N824 H837 0.985 . S
N825 C827 1.356 . S
N825 H830 0.984 . S
N825 H831 0.985 . S
C826 C820 1.379 . S
C826 C823 1.363 . S
C826 N824 1.356 . S
C827 C821 1.363 1_655 S
C827 C822 1.379 . S
C827 N825 1.356 . S
N828 C820 1.356 . S
N828 H834 0.984 . S
N828 H835 0.984 . S
N829 C822 1.356 . S
N829 H832 0.984 . S
N829 H833 0.985 . S
H830 N825 0.984 . S
H831 N825 0.985 . S
H832 N829 0.984 . S
H833 N829 0.985 . S
H834 N828 0.984 . S
H835 N828 0.984 . S
H836 N824 0.984 . S
H837 N824 0.985 . S
C838 C839 1.363 . S
C838 C844 1.379 . S
C838 N846 1.356 . S
C839 C838 1.363 . S
C839 C845 1.363 . S
C840 C841 1.358 1_455 S
C840 C845 1.379 1_455 S
C840 N847 1.360 . S
C841 C840 1.358 1_655 S
C841 C844 1.363 . S
N842 C844 1.356 . S
N842 H854 0.984 . S
N842 H855 0.985 . S
N843 C845 1.356 1_455 S
N843 H848 0.984 . S
N843 H849 0.985 . S
C844 C838 1.379 . S
C844 C841 1.363 . S
C844 N842 1.356 . S
C845 C839 1.363 . S
C845 C840 1.379 1_655 S
C845 N843 1.356 1_655 S
N846 C838 1.356 . S
N846 H852 0.984 . S
N846 H853 0.984 . S
N847 C840 1.360 . S
N847 H850 0.984 . S
N847 H851 0.985 . S
H848 N843 0.984 . S
H849 N843 0.985 . S
H850 N847 0.984 . S
H851 N847 0.985 . S
H852 N846 0.984 . S
H853 N846 0.984 . S
H854 N842 0.984 . S
H855 N842 0.985 . S
C856 C857 1.363 . S
C856 C862 1.379 . S
C856 N864 1.356 . S
C857 C856 1.363 . S
C857 C863 1.363 . S
C858 C859 1.363 . S
C858 C863 1.379 . S
C858 N865 1.356 . S
C859 C858 1.363 . S
C859 C862 1.363 . S
N860 C862 1.356 . S
N860 H872 0.984 . S
N860 H873 0.985 . S
N861 C863 1.356 . S
N861 H866 0.984 . S
N861 H867 0.985 . S
C862 C856 1.379 . S
C862 C859 1.363 . S
C862 N860 1.356 . S
C863 C857 1.363 . S
C863 C858 1.379 . S
C863 N861 1.356 . S
N864 C856 1.356 . S
N864 H870 0.984 . S
N864 H871 0.984 . S
N865 C858 1.356 . S
N865 H868 0.984 . S
N865 H869 0.985 . S
H866 N861 0.984 . S
H867 N861 0.985 . S
H868 N865 0.984 . S
H869 N865 0.985 . S
H870 N864 0.984 . S
H871 N864 0.984 . S
H872 N860 0.984 . S
H873 N860 0.985 . S
C874 C875 1.374 . S
C874 C880 1.379 . S
C874 N882 1.356 . S
C875 C874 1.374 . S
C875 C881 1.350 1_455 S
C876 C877 1.363 . S
C876 C881 1.379 . S
C876 N883 1.356 . S
C877 C876 1.363 . S
C877 C880 1.363 1_655 S
N878 C880 1.356 . S
N878 H890 0.984 . S
N878 H891 0.985 . S
N879 C881 1.356 . S
N879 H884 0.984 . S
N879 H885 0.985 . S
C880 C874 1.379 . S
C880 C877 1.363 1_455 S
C880 N878 1.356 . S
C881 C875 1.350 1_655 S
C881 C876 1.379 . S
C881 N879 1.356 . S
N882 C874 1.356 . S
N882 H888 0.984 . S
N882 H889 0.984 . S
N883 C876 1.356 . S
N883 H886 0.984 . S
N883 H887 0.985 . S
H884 N879 0.984 . S
H885 N879 0.985 . S
H886 N883 0.984 . S
H887 N883 0.985 . S
H888 N882 0.984 . S
H889 N882 0.984 . S
H890 N878 0.984 . S
H891 N878 0.985 . S
C892 C893 1.363 . S
C892 C898 1.379 . S
C892 N900 1.356 1_545 S
C893 C892 1.363 . S
C893 C899 1.363 . S
C894 C895 1.363 . S
C894 C899 1.379 . S
C894 N901 1.356 . S
C895 C894 1.363 . S
C895 C898 1.363 . S
N896 C898 1.356 1_565 S
N896 H908 0.984 . S
N896 H909 0.985 . S
N897 C899 1.356 . S
N897 H902 0.984 . S
N897 H903 0.985 . S
C898 C892 1.379 . S
C898 C895 1.363 . S
C898 N896 1.356 1_545 S
C899 C893 1.363 . S
C899 C894 1.379 . S
C899 N897 1.356 . S
N900 C892 1.356 1_565 S
N900 H906 0.984 . S
N900 H907 0.984 1_565 S
N901 C894 1.356 . S
N901 H904 0.984 . S
N901 H905 0.985 . S
H902 N897 0.984 . S
H903 N897 0.985 . S
H904 N901 0.984 . S
H905 N901 0.985 . S
H906 N900 0.984 . S
H907 N900 0.984 1_545 S
H908 N896 0.984 . S
H909 N896 0.985 . S
C910 C911 1.363 . S
C910 C916 1.379 . S
C910 N918 1.356 . S
C911 C910 1.363 . S
C911 C917 1.363 . S
C912 C913 1.363 . S
C912 C917 1.379 . S
C912 N919 1.356 . S
C913 C912 1.363 . S
C913 C916 1.363 . S
N914 C916 1.356 . S
N914 H926 0.984 . S
N914 H927 0.985 . S
N915 C917 1.356 . S
N915 H920 0.984 . S
N915 H921 0.985 . S
C916 C910 1.379 . S
C916 C913 1.363 . S
C916 N914 1.356 . S
C917 C911 1.363 . S
C917 C912 1.379 . S
C917 N915 1.356 . S
N918 C910 1.356 . S
N918 H924 0.984 . S
N918 H925 0.984 . S
N919 C912 1.356 . S
N919 H922 0.984 . S
N919 H923 0.985 . S
H920 N915 0.984 . S
H921 N915 0.985 . S
H922 N919 0.984 . S
H923 N919 0.985 . S
H924 N918 0.984 . S
H925 N918 0.984 . S
H926 N914 0.984 . S
H927 N914 0.985 . S
C928 C929 1.363 1_545 S
C928 C934 1.379 1_545 S
C928 N936 1.356 . S
C929 C928 1.363 1_565 S
C929 C935 1.363 . S
C930 C931 1.363 . S
C930 C935 1.379 . S
C930 N937 1.356 . S
C931 C930 1.363 . S
C931 C934 1.363 . S
N932 C934 1.356 1_545 S
N932 H944 0.984 . S
N932 H945 0.985 . S
N933 C935 1.356 . S
N933 H938 0.984 . S
N933 H939 0.985 . S
C934 C928 1.379 1_565 S
C934 C931 1.363 . S
C934 N932 1.356 1_565 S
C935 C929 1.363 . S
C935 C930 1.379 . S
C935 N933 1.356 . S
N936 C928 1.356 . S
N936 H942 0.984 . S
N936 H943 0.984 . S
N937 C930 1.356 . S
N937 H940 0.984 . S
N937 H941 0.985 . S
H938 N933 0.984 . S
H939 N933 0.985 . S
H940 N937 0.984 . S
H941 N937 0.985 . S
H942 N936 0.984 . S
H943 N936 0.984 . S
H944 N932 0.984 . S
H945 N932 0.985 . S
C946 C947 1.363 . S
C946 C952 1.379 . S
C946 N954 1.356 . S
C947 C946 1.363 . S
C947 C953 1.363 . S
C948 C949 1.363 . S
C948 C953 1.379 . S
C948 N955 1.356 . S
C949 C948 1.363 . S
C949 C952 1.363 . S
N950 C952 1.356 . S
N950 H962 0.984 . S
N950 H963 0.985 . S
N951 C953 1.356 . S
N951 H956 0.984 . S
N951 H957 0.985 . S
C952 C946 1.379 . S
C952 C949 1.363 . S
C952 N950 1.356 . S
C953 C947 1.363 . S
C953 C948 1.379 . S
C953 N951 1.356 . S
N954 C946 1.356 . S
N954 H960 0.984 . S
N954 H961 0.984 . S
N955 C948 1.356 . S
N955 H958 0.984 . S
N955 H959 0.985 . S
H956 N951 0.984 . S
H957 N951 0.985 . S
H958 N955 0.984 . S
H959 N955 0.985 . S
H960 N954 0.984 . S
H961 N954 0.984 . S
H962 N950 0.984 . S
H963 N950 0.985 . S
C964 C965 1.363 . S
C964 C970 1.379 1_554 S
C964 N972 1.356 1_554 S
C965 C964 1.363 . S
C965 C971 1.363 . S
C966 C967 1.363 . S
C966 C971 1.379 . S
C966 N973 1.356 . S
C967 C966 1.363 . S
C967 C970 1.363 1_554 S
N968 C970 1.356 . S
N968 H980 0.984 . S
N968 H981 0.985 . S
N969 C971 1.356 . S
N969 H974 0.984 . S
N969 H975 0.985 . S
C970 C964 1.379 1_556 S
C970 C967 1.363 1_556 S
C970 N968 1.356 . S
C971 C965 1.363 . S
C971 C966 1.379 . S
C971 N969 1.356 . S
N972 C964 1.356 1_556 S
N972 H978 0.984 . S
N972 H979 0.984 1_556 S
N973 C966 1.356 . S
N973 H976 0.984 . S
N973 H977 0.985 . S
H974 N969 0.984 . S
H975 N969 0.985 . S
H976 N973 0.984 . S
H977 N973 0.985 . S
H978 N972 0.984 . S
H979 N972 0.984 1_554 S
H980 N968 0.984 . S
H981 N968 0.985 . S
C982 C983 1.363 . S
C982 C988 1.379 . S
C982 N990 1.356 . S
C983 C982 1.363 . S
C983 C989 1.363 . S
C984 C985 1.363 . S
C984 C989 1.379 . S
C984 N991 1.356 . S
C985 C984 1.363 . S
C985 C988 1.363 . S
N986 C988 1.356 . S
N986 H998 0.984 . S
N986 H999 0.985 . S
N987 C989 1.356 . S
N987 H992 0.984 . S
N987 H993 0.985 . S
C988 C982 1.379 . S
C988 C985 1.363 . S
C988 N986 1.356 . S
C989 C983 1.363 . S
C989 C984 1.379 . S
C989 N987 1.356 . S
N990 C982 1.356 . S
N990 H996 0.984 . S
N990 H997 0.984 . S
N991 C984 1.356 . S
N991 H994 0.984 . S
N991 H995 0.985 . S
H992 N987 0.984 . S
H993 N987 0.985 . S
H994 N991 0.984 . S
H995 N991 0.985 . S
H996 N990 0.984 . S
H997 N990 0.984 . S
H998 N986 0.984 . S
H999 N986 0.985 . S
C1000 C1001 1.363 . S
C1000 C1006 1.379 . S
C1000 N1008 1.356 . S
C1001 C1000 1.363 . S
C1001 C1007 1.363 . S
C1002 C1003 1.363 . S
C1002 C1007 1.379 . S
C1002 N1009 1.356 . S
C1003 C1002 1.363 . S
C1003 C1006 1.363 . S
N1004 C1006 1.356 . S
N1004 H1016 0.984 . S
N1004 H1017 0.985 . S
N1005 C1007 1.356 . S
N1005 H1010 0.984 . S
N1005 H1011 0.985 . S
C1006 C1000 1.379 . S
C1006 C1003 1.363 . S
C1006 N1004 1.356 . S
C1007 C1001 1.363 . S
C1007 C1002 1.379 . S
C1007 N1005 1.356 . S
N1008 C1000 1.356 . S
N1008 H1014 0.984 . S
N1008 H1015 0.984 . S
N1009 C1002 1.356 . S
N1009 H1012 0.984 . S
N1009 H1013 0.985 . S
H1010 N1005 0.984 . S
H1011 N1005 0.985 . S
H1012 N1009 0.984 . S
H1013 N1009 0.985 . S
H1014 N1008 0.984 . S
H1015 N1008 0.984 . S
H1016 N1004 0.984 . S
H1017 N1004 0.985 . S
C1018 C1019 1.363 . S
C1018 C1024 1.379 . S
C1018 N1026 1.356 . S
C1019 C1018 1.363 . S
C1019 C1025 1.363 . S
C1020 C1021 1.363 . S
C1020 C1025 1.379 . S
C1020 N1027 1.356 . S
C1021 C1020 1.363 . S
C1021 C1024 1.363 . S
N1022 C1024 1.356 . S
N1022 H1034 0.984 . S
N1022 H1035 0.985 . S
N1023 C1025 1.356 . S
N1023 H1028 0.984 . S
N1023 H1029 0.985 . S
C1024 C1018 1.379 . S
C1024 C1021 1.363 . S
C1024 N1022 1.356 . S
C1025 C1019 1.363 . S
C1025 C1020 1.379 . S
C1025 N1023 1.356 . S
N1026 C1018 1.356 . S
N1026 H1032 0.984 . S
N1026 H1033 0.984 . S
N1027 C1020 1.356 . S
N1027 H1030 0.984 . S
N1027 H1031 0.985 . S
H1028 N1023 0.984 . S
H1029 N1023 0.985 . S
H1030 N1027 0.984 . S
H1031 N1027 0.985 . S
H1032 N1026 0.984 . S
H1033 N1026 0.984 . S
H1034 N1022 0.984 . S
H1035 N1022 0.985 . S
C1036 C1037 1.363 . S
C1036 C1042 1.379 . S
C1036 N1044 1.356 . S
C1037 C1036 1.363 . S
C1037 C1043 1.363 . S
C1038 C1039 1.363 . S
C1038 C1043 1.379 . S
C1038 N1045 1.356 . S
C1039 C1038 1.363 . S
C1039 C1042 1.363 . S
N1040 C1042 1.356 . S
N1040 H1052 0.984 . S
N1040 H1053 0.985 . S
N1041 C1043 1.356 . S
N1041 H1046 0.984 . S
N1041 H1047 0.985 . S
C1042 C1036 1.379 . S
C1042 C1039 1.363 . S
C1042 N1040 1.356 . S
C1043 C1037 1.363 . S
C1043 C1038 1.379 . S
C1043 N1041 1.356 . S
N1044 C1036 1.356 . S
N1044 H1050 0.984 . S
N1044 H1051 0.984 . S
N1045 C1038 1.356 . S
N1045 H1048 0.984 . S
N1045 H1049 0.985 . S
H1046 N1041 0.984 . S
H1047 N1041 0.985 . S
H1048 N1045 0.984 . S
H1049 N1045 0.985 . S
H1050 N1044 0.984 . S
H1051 N1044 0.984 . S
H1052 N1040 0.984 . S
H1053 N1040 0.985 . S
C1054 C1055 1.363 . S
C1054 C1060 1.379 . S
C1054 N1062 1.356 . S
C1055 C1054 1.363 . S
C1055 C1061 1.363 . S
C1056 C1057 1.363 . S
C1056 C1061 1.379 . S
C1056 N1063 1.356 . S
C1057 C1056 1.363 . S
C1057 C1060 1.363 . S
N1058 C1060 1.356 . S
N1058 H1070 0.984 . S
N1058 H1071 0.985 . S
N1059 C1061 1.356 . S
N1059 H1064 0.984 . S
N1059 H1065 0.985 . S
C1060 C1054 1.379 . S
C1060 C1057 1.363 . S
C1060 N1058 1.356 . S
C1061 C1055 1.363 . S
C1061 C1056 1.379 . S
C1061 N1059 1.356 . S
N1062 C1054 1.356 . S
N1062 H1068 0.984 . S
N1062 H1069 0.984 . S
N1063 C1056 1.356 . S
N1063 H1066 0.984 . S
N1063 H1067 0.985 . S
H1064 N1059 0.984 . S
H1065 N1059 0.985 . S
H1066 N1063 0.984 . S
H1067 N1063 0.985 . S
H1068 N1062 0.984 . S
H1069 N1062 0.984 . S
H1070 N1058 0.984 . S
H1071 N1058 0.985 . S
C1072 C1073 1.363 . S
C1072 C1078 1.379 . S
C1072 N1080 1.356 . S
C1073 C1072 1.363 . S
C1073 C1079 1.363 . S
C1074 C1075 1.363 . S
C1074 C1079 1.379 . S
C1074 N1081 1.356 . S
C1075 C1074 1.363 . S
C1075 C1078 1.363 . S
N1076 C1078 1.356 . S
N1076 H1088 0.984 . S
N1076 H1089 0.985 . S
N1077 C1079 1.356 . S
N1077 H1082 0.984 . S
N1077 H1083 0.985 . S
C1078 C1072 1.379 . S
C1078 C1075 1.363 . S
C1078 N1076 1.356 . S
C1079 C1073 1.363 . S
C1079 C1074 1.379 . S
C1079 N1077 1.356 . S
N1080 C1072 1.356 . S
N1080 H1086 0.984 . S
N1080 H1087 0.984 . S
N1081 C1074 1.356 . S
N1081 H1084 0.984 . S
N1081 H1085 0.985 . S
H1082 N1077 0.984 . S
H1083 N1077 0.985 . S
H1084 N1081 0.984 . S
H1085 N1081 0.985 . S
H1086 N1080 0.984 . S
H1087 N1080 0.984 . S
H1088 N1076 0.984 . S
H1089 N1076 0.985 . S
C1090 C1091 1.363 . S
C1090 C1096 1.379 . S
C1090 N1098 1.356 . S
C1091 C1090 1.363 . S
C1091 C1097 1.363 . S
C1092 C1093 1.363 . S
C1092 C1097 1.379 . S
C1092 N1099 1.356 . S
C1093 C1092 1.363 . S
C1093 C1096 1.363 . S
N1094 C1096 1.356 . S
N1094 H1106 0.984 . S
N1094 H1107 0.985 . S
N1095 C1097 1.356 . S
N1095 H1100 0.984 . S
N1095 H1101 0.985 . S
C1096 C1090 1.379 . S
C1096 C1093 1.363 . S
C1096 N1094 1.356 . S
C1097 C1091 1.363 . S
C1097 C1092 1.379 . S
C1097 N1095 1.356 . S
N1098 C1090 1.356 . S
N1098 H1104 0.984 . S
N1098 H1105 0.984 . S
N1099 C1092 1.356 . S
N1099 H1102 0.984 . S
N1099 H1103 0.985 . S
H1100 N1095 0.984 . S
H1101 N1095 0.985 . S
H1102 N1099 0.984 . S
H1103 N1099 0.985 . S
H1104 N1098 0.984 . S
H1105 N1098 0.984 . S
H1106 N1094 0.984 . S
H1107 N1094 0.985 . S
C1108 C1109 1.363 . S
C1108 C1114 1.379 . S
C1108 N1116 1.356 . S
C1109 C1108 1.363 . S
C1109 C1115 1.363 . S
C1110 C1111 1.363 . S
C1110 C1115 1.379 . S
C1110 N1117 1.356 . S
C1111 C1110 1.363 . S
C1111 C1114 1.363 . S
N1112 C1114 1.356 . S
N1112 H1124 0.984 . S
N1112 H1125 0.985 . S
N1113 C1115 1.356 . S
N1113 H1118 0.984 . S
N1113 H1119 0.985 . S
C1114 C1108 1.379 . S
C1114 C1111 1.363 . S
C1114 N1112 1.356 . S
C1115 C1109 1.363 . S
C1115 C1110 1.379 . S
C1115 N1113 1.356 . S
N1116 C1108 1.356 . S
N1116 H1122 0.984 . S
N1116 H1123 0.984 . S
N1117 C1110 1.356 . S
N1117 H1120 0.984 . S
N1117 H1121 0.985 . S
H1118 N1113 0.984 . S
H1119 N1113 0.985 . S
H1120 N1117 0.984 . S
H1121 N1117 0.985 . S
H1122 N1116 0.984 . S
H1123 N1116 0.984 . S
H1124 N1112 0.984 . S
H1125 N1112 0.985 . S
C1126 C1127 1.363 . S
C1126 C1132 1.379 . S
C1126 N1134 1.356 . S
C1127 C1126 1.363 . S
C1127 C1133 1.363 . S
C1128 C1129 1.363 . S
C1128 C1133 1.379 . S
C1128 N1135 1.356 . S
C1129 C1128 1.363 . S
C1129 C1132 1.363 . S
N1130 C1132 1.356 . S
N1130 H1142 0.984 . S
N1130 H1143 0.985 . S
N1131 C1133 1.356 1_545 S
N1131 H1136 0.984 . S
N1131 H1137 0.985 . S
C1132 C1126 1.379 . S
C1132 C1129 1.363 . S
C1132 N1130 1.356 . S
C1133 C1127 1.363 . S
C1133 C1128 1.379 . S
C1133 N1131 1.356 1_565 S
N1134 C1126 1.356 . S
N1134 H1140 0.984 . S
N1134 H1141 0.984 . S
N1135 C1128 1.356 . S
N1135 H1138 0.984 . S
N1135 H1139 0.985 1_565 S
H1136 N1131 0.984 . S
H1137 N1131 0.985 . S
H1138 N1135 0.984 . S
H1139 N1135 0.985 1_545 S
H1140 N1134 0.984 . S
H1141 N1134 0.984 . S
H1142 N1130 0.984 . S
H1143 N1130 0.985 . S
C1144 C1145 1.363 . S
C1144 C1150 1.379 . S
C1144 N1152 1.356 . S
C1145 C1144 1.363 . S
C1145 C1151 1.363 . S
C1146 C1147 1.363 . S
C1146 C1151 1.379 . S
C1146 N1153 1.356 . S
C1147 C1146 1.363 . S
C1147 C1150 1.363 . S
N1148 C1150 1.356 . S
N1148 H1160 0.984 . S
N1148 H1161 0.985 . S
N1149 C1151 1.356 . S
N1149 H1154 0.984 . S
N1149 H1155 0.985 . S
C1150 C1144 1.379 . S
C1150 C1147 1.363 . S
C1150 N1148 1.356 . S
C1151 C1145 1.363 . S
C1151 C1146 1.379 . S
C1151 N1149 1.356 . S
N1152 C1144 1.356 . S
N1152 H1158 0.984 . S
N1152 H1159 0.984 . S
N1153 C1146 1.356 . S
N1153 H1156 0.984 . S
N1153 H1157 0.985 . S
H1154 N1149 0.984 . S
H1155 N1149 0.985 . S
H1156 N1153 0.984 . S
H1157 N1153 0.985 . S
H1158 N1152 0.984 . S
H1159 N1152 0.984 . S
H1160 N1148 0.984 . S
H1161 N1148 0.985 . S
C1162 C1163 1.363 . S
C1162 C1168 1.379 . S
C1162 N1170 1.356 1_545 S
C1163 C1162 1.363 . S
C1163 C1169 1.363 . S
C1164 C1165 1.363 . S
C1164 C1169 1.379 . S
C1164 N1171 1.356 . S
C1165 C1164 1.363 . S
C1165 C1168 1.363 . S
N1166 C1168 1.356 1_565 S
N1166 H1178 0.984 . S
N1166 H1179 0.985 . S
N1167 C1169 1.356 . S
N1167 H1172 0.984 . S
N1167 H1173 0.985 . S
C1168 C1162 1.379 . S
C1168 C1165 1.363 . S
C1168 N1166 1.356 1_545 S
C1169 C1163 1.363 . S
C1169 C1164 1.379 . S
C1169 N1167 1.356 . S
N1170 C1162 1.356 1_565 S
N1170 H1176 0.984 . S
N1170 H1177 0.984 . S
N1171 C1164 1.356 . S
N1171 H1174 0.984 . S
N1171 H1175 0.985 . S
H1172 N1167 0.984 . S
H1173 N1167 0.985 . S
H1174 N1171 0.984 . S
H1175 N1171 0.985 . S
H1176 N1170 0.984 . S
H1177 N1170 0.984 . S
H1178 N1166 0.984 . S
H1179 N1166 0.985 . S
C1180 C1181 1.363 . S
C1180 C1186 1.379 . S
C1180 N1188 1.356 . S
C1181 C1180 1.363 . S
C1181 C1187 1.363 . S
C1182 C1183 1.363 . S
C1182 C1187 1.379 . S
C1182 N1189 1.356 . S
C1183 C1182 1.363 . S
C1183 C1186 1.363 . S
N1184 C1186 1.356 . S
N1184 H1196 0.984 . S
N1184 H1197 0.985 . S
N1185 C1187 1.356 . S
N1185 H1190 0.984 . S
N1185 H1191 0.985 . S
C1186 C1180 1.379 . S
C1186 C1183 1.363 . S
C1186 N1184 1.356 . S
C1187 C1181 1.363 . S
C1187 C1182 1.379 . S
C1187 N1185 1.356 . S
N1188 C1180 1.356 . S
N1188 H1194 0.984 . S
N1188 H1195 0.984 . S
N1189 C1182 1.356 . S
N1189 H1192 0.984 . S
N1189 H1193 0.985 . S
H1190 N1185 0.984 . S
H1191 N1185 0.985 . S
H1192 N1189 0.984 . S
H1193 N1189 0.985 . S
H1194 N1188 0.984 . S
H1195 N1188 0.984 . S
H1196 N1184 0.984 . S
H1197 N1184 0.985 . S
C1198 C1199 1.363 . S
C1198 C1204 1.379 . S
C1198 N1206 1.356 . S
C1199 C1198 1.363 . S
C1199 C1205 1.363 . S
C1200 C1201 1.363 . S
C1200 C1205 1.379 . S
C1200 N1207 1.349 1_556 S
C1201 C1200 1.363 . S
C1201 C1204 1.363 . S
N1202 C1204 1.356 . S
N1202 H1214 0.984 . S
N1202 H1215 0.985 . S
N1203 C1205 1.356 1_554 S
N1203 H1208 0.984 . S
N1203 H1209 0.985 . S
C1204 C1198 1.379 . S
C1204 C1201 1.363 . S
C1204 N1202 1.356 . S
C1205 C1199 1.363 . S
C1205 C1200 1.379 . S
C1205 N1203 1.356 1_556 S
N1206 C1198 1.356 . S
N1206 H1212 0.984 . S
N1206 H1213 0.984 . S
N1207 C1200 1.349 1_554 S
N1207 H1210 0.979 1_554 S
N1207 H1211 0.998 . S
H1208 N1203 0.984 . S
H1209 N1203 0.985 . S
H1210 N1207 0.979 1_556 S
H1211 N1207 0.998 . S
H1212 N1206 0.984 . S
H1213 N1206 0.984 . S
H1214 N1202 0.984 . S
H1215 N1202 0.985 . S
C1216 C1217 1.363 1_556 S
C1216 C1222 1.379 . S
C1216 N1224 1.356 . S
C1217 C1216 1.363 1_554 S
C1217 C1223 1.363 . S
C1218 C1219 1.363 . S
C1218 C1223 1.379 . S
C1218 N1225 1.356 . S
C1219 C1218 1.363 . S
C1219 C1222 1.363 1_554 S
N1220 C1222 1.356 . S
N1220 H1232 0.984 . S
N1220 H1233 0.985 . S
N1221 C1223 1.356 . S
N1221 H1226 0.984 . S
N1221 H1227 0.985 . S
C1222 C1216 1.379 . S
C1222 C1219 1.363 1_556 S
C1222 N1220 1.356 . S
C1223 C1217 1.363 . S
C1223 C1218 1.379 . S
C1223 N1221 1.356 . S
N1224 C1216 1.356 . S
N1224 H1230 0.984 . S
N1224 H1231 0.984 . S
N1225 C1218 1.356 . S
N1225 H1228 0.984 . S
N1225 H1229 0.985 . S
H1226 N1221 0.984 . S
H1227 N1221 0.985 . S
H1228 N1225 0.984 . S
H1229 N1225 0.985 . S
H1230 N1224 0.984 . S
H1231 N1224 0.984 . S
H1232 N1220 0.984 . S
H1233 N1220 0.985 . S
C1234 C1235 1.363 . S
C1234 C1240 1.379 . S
C1234 N1242 1.356 . S
C1235 C1234 1.363 . S
C1235 C1241 1.363 1_554 S
C1236 C1237 1.363 1_556 S
C1236 C1241 1.379 . S
C1236 N1243 1.356 . S
C1237 C1236 1.363 1_554 S
C1237 C1240 1.363 . S
N1238 C1240 1.356 . S
N1238 H1250 0.984 . S
N1238 H1251 0.985 1_655 S
N1239 C1241 1.356 . S
N1239 H1244 0.984 . S
N1239 H1245 0.985 . S
C1240 C1234 1.379 . S
C1240 C1237 1.363 . S
C1240 N1238 1.356 . S
C1241 C1235 1.363 1_556 S
C1241 C1236 1.379 . S
C1241 N1239 1.356 . S
N1242 C1234 1.356 . S
N1242 H1248 0.984 . S
N1242 H1249 0.984 . S
N1243 C1236 1.356 . S
N1243 H1246 0.984 . S
N1243 H1247 0.985 . S
H1244 N1239 0.984 . S
H1245 N1239 0.985 . S
H1246 N1243 0.984 . S
H1247 N1243 0.985 . S
H1248 N1242 0.984 . S
H1249 N1242 0.984 . S
H1250 N1238 0.984 . S
H1251 N1238 0.985 1_455 S
C1252 C1253 1.363 . S
C1252 C1258 1.379 . S
C1252 N1260 1.356 . S
C1253 C1252 1.363 . S
C1253 C1259 1.363 . S
C1254 C1255 1.363 . S
C1254 C1259 1.379 . S
C1254 N1261 1.356 . S
C1255 C1254 1.363 . S
C1255 C1258 1.363 . S
N1256 C1258 1.356 . S
N1256 H1268 0.984 . S
N1256 H1269 0.985 . S
N1257 C1259 1.356 . S
N1257 H1262 0.984 . S
N1257 H1263 0.985 . S
C1258 C1252 1.379 . S
C1258 C1255 1.363 . S
C1258 N1256 1.356 . S
C1259 C1253 1.363 . S
C1259 C1254 1.379 . S
C1259 N1257 1.356 . S
N1260 C1252 1.356 . S
N1260 H1266 0.984 . S
N1260 H1267 0.984 . S
N1261 C1254 1.356 . S
N1261 H1264 0.984 . S
N1261 H1265 0.985 . S
H1262 N1257 0.984 . S
H1263 N1257 0.985 . S
H1264 N1261 0.984 . S
H1265 N1261 0.985 . S
H1266 N1260 0.984 . S
H1267 N1260 0.984 . S
H1268 N1256 0.984 . S
H1269 N1256 0.985 . S
C1270 C1271 1.363 . S
C1270 C1276 1.379 . S
C1270 N1278 1.356 . S
C1271 C1270 1.363 . S
C1271 C1277 1.363 . S
C1272 C1273 1.363 . S
C1272 C1277 1.379 . S
C1272 N1279 1.356 . S
C1273 C1272 1.363 . S
C1273 C1276 1.363 . S
N1274 C1276 1.356 1_455 S
N1274 H1286 0.984 . S
N1274 H1287 0.985 . S
N1275 C1277 1.356 . S
N1275 H1280 0.984 . S
N1275 H1281 0.985 . S
C1276 C1270 1.379 . S
C1276 C1273 1.363 . S
C1276 N1274 1.356 1_655 S
C1277 C1271 1.363 . S
C1277 C1272 1.379 . S
C1277 N1275 1.356 . S
N1278 C1270 1.356 . S
N1278 H1284 0.984 1_655 S
N1278 H1285 0.984 . S
N1279 C1272 1.356 . S
N1279 H1282 0.984 . S
N1279 H1283 0.985 . S
H1280 N1275 0.984 . S
H1281 N1275 0.985 . S
H1282 N1279 0.984 . S
H1283 N1279 0.985 . S
H1284 N1278 0.984 1_455 S
H1285 N1278 0.984 . S
H1286 N1274 0.984 . S
H1287 N1274 0.985 . S
C1288 C1289 1.363 . S
C1288 C1294 1.379 . S
C1288 N1296 1.356 . S
C1289 C1288 1.363 . S
C1289 C1295 1.363 . S
C1290 C1291 1.363 . S
C1290 C1295 1.379 . S
C1290 N1297 1.356 1_455 S
C1291 C1290 1.363 . S
C1291 C1294 1.363 . S
N1292 C1294 1.356 . S
N1292 H1304 0.984 . S
N1292 H1305 0.985 . S
N1293 C1295 1.356 1_655 S
N1293 H1298 0.976 1_655 S
N1293 H1299 0.985 . S
C1294 C1288 1.379 . S
C1294 C1291 1.363 . S
C1294 N1292 1.356 . S
C1295 C1289 1.363 . S
C1295 C1290 1.379 . S
C1295 N1293 1.356 1_455 S
N1296 C1288 1.356 . S
N1296 H1302 0.984 . S
N1296 H1303 0.984 . S
N1297 C1290 1.356 1_655 S
N1297 H1300 0.984 . S
N1297 H1301 0.985 . S
H1298 N1293 0.976 1_455 S
H1299 N1293 0.985 . S
H1300 N1297 0.984 . S
H1301 N1297 0.985 . S
H1302 N1296 0.984 . S
H1303 N1296 0.984 . S
H1304 N1292 0.984 . S
H1305 N1292 0.985 . S
C1306 C1307 1.363 . S
C1306 C1312 1.379 . S
C1306 N1314 1.356 1_655 S
C1307 C1306 1.363 . S
C1307 C1313 1.363 . S
C1308 C1309 1.363 . S
C1308 C1313 1.379 . S
C1308 N1315 1.356 . S
C1309 C1308 1.363 . S
C1309 C1312 1.363 . S
N1310 C1312 1.358 . S
N1310 H1322 0.981 1_655 S
N1310 H1323 0.987 . S
N1311 C1313 1.356 . S
N1311 H1316 0.984 . S
N1311 H1317 0.985 . S
C1312 C1306 1.379 . S
C1312 C1309 1.363 . S
C1312 N1310 1.358 . S
C1313 C1307 1.363 . S
C1313 C1308 1.379 . S
C1313 N1311 1.356 . S
N1314 C1306 1.356 1_455 S
N1314 H1320 0.984 . S
N1314 H1321 0.984 . S
N1315 C1308 1.356 . S
N1315 H1318 0.984 . S
N1315 H1319 0.985 . S
H1316 N1311 0.984 . S
H1317 N1311 0.985 . S
H1318 N1315 0.984 . S
H1319 N1315 0.985 . S
H1320 N1314 0.984 . S
H1321 N1314 0.984 . S
H1322 N1310 0.981 1_455 S
H1323 N1310 0.987 . S
C1324 C1325 1.363 . S
C1324 C1330 1.379 . S
C1324 N1332 1.356 1_545 S
C1325 C1324 1.363 . S
C1325 C1331 1.363 . S
C1326 C1327 1.363 . S
C1326 C1331 1.379 . S
C1326 N1333 1.356 . S
C1327 C1326 1.363 . S
C1327 C1330 1.363 . S
N1328 C1330 1.356 1_565 S
N1328 H1340 0.984 . S
N1328 H1341 0.985 1_565 S
N1329 C1331 1.356 . S
N1329 H1334 0.984 . S
N1329 H1335 0.985 . S
C1330 C1324 1.379 . S
C1330 C1327 1.363 . S
C1330 N1328 1.356 1_545 S
C1331 C1325 1.363 . S
C1331 C1326 1.379 . S
C1331 N1329 1.356 . S
N1332 C1324 1.356 1_565 S
N1332 H1338 0.984 . S
N1332 H1339 0.984 . S
N1333 C1326 1.356 . S
N1333 H1336 0.984 . S
N1333 H1337 0.985 . S
H1334 N1329 0.984 . S
H1335 N1329 0.985 . S
H1336 N1333 0.984 . S
H1337 N1333 0.985 . S
H1338 N1332 0.984 . S
H1339 N1332 0.984 . S
H1340 N1328 0.984 . S
H1341 N1328 0.985 1_545 S
C1342 C1343 1.363 . S
C1342 C1348 1.379 . S
C1342 N1350 1.356 . S
C1343 C1342 1.363 . S
C1343 C1349 1.363 . S
C1344 C1345 1.363 . S
C1344 C1349 1.379 . S
C1344 N1351 1.356 . S
C1345 C1344 1.363 . S
C1345 C1348 1.363 . S
N1346 C1348 1.356 . S
N1346 H1358 0.984 . S
N1346 H1359 0.985 . S
N1347 C1349 1.356 . S
N1347 H1352 0.984 . S
N1347 H1353 0.985 . S
C1348 C1342 1.379 . S
C1348 C1345 1.363 . S
C1348 N1346 1.356 . S
C1349 C1343 1.363 . S
C1349 C1344 1.379 . S
C1349 N1347 1.356 . S
N1350 C1342 1.356 . S
N1350 H1356 0.984 . S
N1350 H1357 0.984 . S
N1351 C1344 1.356 . S
N1351 H1354 0.984 . S
N1351 H1355 0.985 . S
H1352 N1347 0.984 . S
H1353 N1347 0.985 . S
H1354 N1351 0.984 . S
H1355 N1351 0.985 . S
H1356 N1350 0.984 . S
H1357 N1350 0.984 . S
H1358 N1346 0.984 . S
H1359 N1346 0.985 . S
C1360 C1361 1.379 . S
C1360 C1366 1.378 . S
C1360 N1368 1.344 1_565 S
C1361 C1360 1.379 . S
C1361 C1367 1.363 . S
C1362 C1363 1.363 . S
C1362 C1367 1.379 . S
C1362 N1369 1.356 . S
C1363 C1362 1.363 . S
C1363 C1366 1.363 . S
N1364 C1366 1.356 1_545 S
N1364 H1376 0.984 . S
N1364 H1377 0.985 . S
N1365 C1367 1.356 . S
N1365 H1370 0.984 . S
N1365 H1371 0.985 . S
C1366 C1360 1.378 . S
C1366 C1363 1.363 . S
C1366 N1364 1.356 1_565 S
C1367 C1361 1.363 . S
C1367 C1362 1.379 . S
C1367 N1365 1.356 . S
N1368 C1360 1.344 1_545 S
N1368 H1374 0.984 . S
N1368 H1375 0.984 . S
N1369 C1362 1.356 . S
N1369 H1372 0.984 . S
N1369 H1373 0.985 . S
H1370 N1365 0.984 . S
H1371 N1365 0.985 . S
H1372 N1369 0.984 . S
H1373 N1369 0.985 . S
H1374 N1368 0.984 . S
H1375 N1368 0.984 . S
H1376 N1364 0.984 . S
H1377 N1364 0.985 . S
C1378 C1379 1.363 . S
C1378 C1384 1.379 . S
C1378 N1386 1.356 . S
C1379 C1378 1.363 . S
C1379 C1385 1.363 . S
C1380 C1381 1.363 . S
C1380 C1385 1.379 . S
C1380 N1387 1.356 . S
C1381 C1380 1.363 . S
C1381 C1384 1.363 . S
N1382 C1384 1.356 . S
N1382 H1394 0.984 . S
N1382 H1395 0.985 . S
N1383 C1385 1.356 . S
N1383 H1388 0.984 . S
N1383 H1389 0.985 . S
C1384 C1378 1.379 . S
C1384 C1381 1.363 . S
C1384 N1382 1.356 . S
C1385 C1379 1.363 . S
C1385 C1380 1.379 . S
C1385 N1383 1.356 . S
N1386 C1378 1.356 . S
N1386 H1392 0.984 . S
N1386 H1393 0.984 . S
N1387 C1380 1.356 . S
N1387 H1390 0.984 . S
N1387 H1391 0.985 . S
H1388 N1383 0.984 . S
H1389 N1383 0.985 . S
H1390 N1387 0.984 . S
H1391 N1387 0.985 . S
H1392 N1386 0.984 . S
H1393 N1386 0.984 . S
H1394 N1382 0.984 . S
H1395 N1382 0.985 . S
C1396 C1397 1.363 . S
C1396 C1402 1.379 . S
C1396 N1404 1.356 1_554 S
C1397 C1396 1.363 . S
C1397 C1403 1.363 . S
C1398 C1399 1.363 . S
C1398 C1403 1.379 . S
C1398 N1405 1.356 . S
C1399 C1398 1.363 . S
C1399 C1402 1.363 . S
N1400 C1402 1.356 . S
N1400 H1412 0.984 1_554 S
N1400 H1413 0.985 . S
N1401 C1403 1.356 . S
N1401 H1406 0.984 . S
N1401 H1407 0.985 . S
C1402 C1396 1.379 . S
C1402 C1399 1.363 . S
C1402 N1400 1.356 . S
C1403 C1397 1.363 . S
C1403 C1398 1.379 . S
C1403 N1401 1.356 . S
N1404 C1396 1.356 1_556 S
N1404 H1410 0.984 . S
N1404 H1411 0.988 . S
N1405 C1398 1.356 . S
N1405 H1408 0.984 . S
N1405 H1409 0.985 . S
H1406 N1401 0.984 . S
H1407 N1401 0.985 . S
H1408 N1405 0.984 . S
H1409 N1405 0.985 . S
H1410 N1404 0.984 . S
H1411 N1404 0.988 . S
H1412 N1400 0.984 1_556 S
H1413 N1400 0.985 . S
C1414 C1415 1.363 . S
C1414 C1420 1.379 . S
C1414 N1422 1.356 . S
C1415 C1414 1.363 . S
C1415 C1421 1.363 . S
C1416 C1417 1.363 . S
C1416 C1421 1.379 . S
C1416 N1423 1.356 . S
C1417 C1416 1.363 . S
C1417 C1420 1.363 . S
N1418 C1420 1.356 . S
N1418 H1430 0.984 . S
N1418 H1431 0.985 . S
N1419 C1421 1.356 . S
N1419 H1424 0.984 . S
N1419 H1425 0.985 . S
C1420 C1414 1.379 . S
C1420 C1417 1.363 . S
C1420 N1418 1.356 . S
C1421 C1415 1.363 . S
C1421 C1416 1.379 . S
C1421 N1419 1.356 . S
N1422 C1414 1.356 . S
N1422 H1428 0.984 . S
N1422 H1429 0.984 . S
N1423 C1416 1.356 . S
N1423 H1426 0.984 . S
N1423 H1427 0.985 . S
H1424 N1419 0.984 . S
H1425 N1419 0.985 . S
H1426 N1423 0.984 . S
H1427 N1423 0.985 . S
H1428 N1422 0.984 . S
H1429 N1422 0.984 . S
H1430 N1418 0.984 . S
H1431 N1418 0.985 . S
C1432 C1433 1.363 . S
C1432 C1438 1.379 . S
C1432 N1440 1.356 . S
C1433 C1432 1.363 . S
C1433 C1439 1.363 . S
C1434 C1435 1.363 . S
C1434 C1439 1.379 . S
C1434 N1441 1.356 . S
C1435 C1434 1.363 . S
C1435 C1438 1.363 . S
N1436 C1438 1.356 . S
N1436 H1448 0.984 . S
N1436 H1449 0.985 . S
N1437 C1439 1.356 . S
N1437 H1442 0.984 . S
N1437 H1443 0.985 . S
C1438 C1432 1.379 . S
C1438 C1435 1.363 . S
C1438 N1436 1.356 . S
C1439 C1433 1.363 . S
C1439 C1434 1.379 . S
C1439 N1437 1.356 . S
N1440 C1432 1.356 . S
N1440 H1446 0.984 . S
N1440 H1447 0.984 . S
N1441 C1434 1.356 . S
N1441 H1444 0.984 . S
N1441 H1445 0.985 . S
H1442 N1437 0.984 . S
H1443 N1437 0.985 . S
H1444 N1441 0.984 . S
H1445 N1441 0.985 . S
H1446 N1440 0.984 . S
H1447 N1440 0.984 . S
H1448 N1436 0.984 . S
H1449 N1436 0.985 . S
C1450 C1451 1.363 . S
C1450 C1456 1.379 . S
C1450 N1458 1.356 . S
C1451 C1450 1.363 . S
C1451 C1457 1.363 . S
C1452 C1453 1.363 . S
C1452 C1457 1.379 . S
C1452 N1459 1.356 . S
C1453 C1452 1.363 . S
C1453 C1456 1.363 . S
N1454 C1456 1.356 . S
N1454 H1466 0.984 . S
N1454 H1467 0.985 . S
N1455 C1457 1.356 . S
N1455 H1460 0.984 . S
N1455 H1461 0.985 . S
C1456 C1450 1.379 . S
C1456 C1453 1.363 . S
C1456 N1454 1.356 . S
C1457 C1451 1.363 . S
C1457 C1452 1.379 . S
C1457 N1455 1.356 . S
N1458 C1450 1.356 . S
N1458 H1464 0.984 . S
N1458 H1465 0.984 . S
N1459 C1452 1.356 . S
N1459 H1462 0.984 . S
N1459 H1463 0.985 . S
H1460 N1455 0.984 . S
H1461 N1455 0.985 . S
H1462 N1459 0.984 . S
H1463 N1459 0.985 . S
H1464 N1458 0.984 . S
H1465 N1458 0.984 . S
H1466 N1454 0.984 . S
H1467 N1454 0.985 . S
C1468 C1469 1.363 . S
C1468 C1474 1.379 . S
C1468 N1476 1.356 . S
C1469 C1468 1.363 . S
C1469 C1475 1.363 . S
C1470 C1471 1.363 . S
C1470 C1475 1.379 . S
C1470 N1477 1.356 . S
C1471 C1470 1.363 . S
C1471 C1474 1.363 . S
N1472 C1474 1.356 . S
N1472 H1484 0.984 . S
N1472 H1485 0.985 . S
N1473 C1475 1.356 . S
N1473 H1478 0.984 . S
N1473 H1479 0.985 . S
C1474 C1468 1.379 . S
C1474 C1471 1.363 . S
C1474 N1472 1.356 . S
C1475 C1469 1.363 . S
C1475 C1470 1.379 . S
C1475 N1473 1.356 . S
N1476 C1468 1.356 . S
N1476 H1482 0.984 . S
N1476 H1483 0.984 . S
N1477 C1470 1.356 . S
N1477 H1480 0.984 . S
N1477 H1481 0.985 . S
H1478 N1473 0.984 . S
H1479 N1473 0.985 . S
H1480 N1477 0.984 . S
H1481 N1477 0.985 . S
H1482 N1476 0.984 . S
H1483 N1476 0.984 . S
H1484 N1472 0.984 . S
H1485 N1472 0.985 . S
C1486 C1487 1.363 . S
C1486 C1492 1.379 . S
C1486 N1494 1.356 . S
C1487 C1486 1.363 . S
C1487 C1493 1.363 . S
C1488 C1489 1.363 . S
C1488 C1493 1.379 . S
C1488 N1495 1.356 . S
C1489 C1488 1.363 . S
C1489 C1492 1.363 . S
N1490 C1492 1.356 . S
N1490 H1502 0.984 . S
N1490 H1503 0.985 . S
N1491 C1493 1.356 . S
N1491 H1496 0.984 . S
N1491 H1497 0.985 . S
C1492 C1486 1.379 . S
C1492 C1489 1.363 . S
C1492 N1490 1.356 . S
C1493 C1487 1.363 . S
C1493 C1488 1.379 . S
C1493 N1491 1.356 . S
N1494 C1486 1.356 . S
N1494 H1500 0.984 . S
N1494 H1501 0.984 . S
N1495 C1488 1.356 . S
N1495 H1498 0.984 . S
N1495 H1499 0.985 . S
H1496 N1491 0.984 . S
H1497 N1491 0.985 . S
H1498 N1495 0.984 . S
H1499 N1495 0.985 . S
H1500 N1494 0.984 . S
H1501 N1494 0.984 . S
H1502 N1490 0.984 . S
H1503 N1490 0.985 . S
C1504 C1505 1.363 . S
C1504 C1510 1.379 . S
C1504 N1512 1.356 . S
C1505 C1504 1.363 . S
C1505 C1511 1.363 . S
C1506 C1507 1.363 . S
C1506 C1511 1.379 . S
C1506 N1513 1.356 . S
C1507 C1506 1.363 . S
C1507 C1510 1.363 . S
N1508 C1510 1.356 . S
N1508 H1520 0.984 . S
N1508 H1521 0.985 . S
N1509 C1511 1.356 . S
N1509 H1514 0.984 . S
N1509 H1515 0.985 . S
C1510 C1504 1.379 . S
C1510 C1507 1.363 . S
C1510 N1508 1.356 . S
C1511 C1505 1.363 . S
C1511 C1506 1.379 . S
C1511 N1509 1.356 . S
N1512 C1504 1.356 . S
N1512 H1518 0.984 . S
N1512 H1519 0.984 . S
N1513 C1506 1.356 . S
N1513 H1516 0.984 . S
N1513 H1517 0.985 . S
H1514 N1509 0.984 . S
H1515 N1509 0.985 . S
H1516 N1513 0.984 . S
H1517 N1513 0.985 . S
H1518 N1512 0.984 . S
H1519 N1512 0.984 . S
H1520 N1508 0.984 . S
H1521 N1508 0.985 . S
C1522 C1523 1.363 . S
C1522 C1528 1.379 . S
C1522 N1530 1.356 . S
C1523 C1522 1.363 . S
C1523 C1529 1.363 . S
C1524 C1525 1.363 . S
C1524 C1529 1.379 . S
C1524 N1531 1.356 . S
C1525 C1524 1.363 . S
C1525 C1528 1.363 . S
N1526 C1528 1.356 . S
N1526 H1538 0.984 . S
N1526 H1539 0.985 . S
N1527 C1529 1.356 . S
N1527 H1532 0.984 . S
N1527 H1533 0.985 . S
C1528 C1522 1.379 . S
C1528 C1525 1.363 . S
C1528 N1526 1.356 . S
C1529 C1523 1.363 . S
C1529 C1524 1.379 . S
C1529 N1527 1.356 . S
N1530 C1522 1.356 . S
N1530 H1536 0.984 . S
N1530 H1537 0.984 . S
N1531 C1524 1.356 . S
N1531 H1534 0.984 . S
N1531 H1535 0.985 . S
H1532 N1527 0.984 . S
H1533 N1527 0.985 . S
H1534 N1531 0.984 . S
H1535 N1531 0.985 . S
H1536 N1530 0.984 . S
H1537 N1530 0.984 . S
H1538 N1526 0.984 . S
H1539 N1526 0.985 . S
C1540 C1541 1.363 . S
C1540 C1546 1.379 . S
C1540 N1548 1.356 . S
C1541 C1540 1.363 . S
C1541 C1547 1.363 . S
C1542 C1543 1.363 . S
C1542 C1547 1.379 . S
C1542 N1549 1.356 . S
C1543 C1542 1.363 . S
C1543 C1546 1.363 . S
N1544 C1546 1.356 . S
N1544 H1556 0.984 . S
N1544 H1557 0.985 . S
N1545 C1547 1.356 . S
N1545 H1550 0.984 . S
N1545 H1551 0.985 . S
C1546 C1540 1.379 . S
C1546 C1543 1.363 . S
C1546 N1544 1.356 . S
C1547 C1541 1.363 . S
C1547 C1542 1.379 . S
C1547 N1545 1.356 . S
N1548 C1540 1.356 . S
N1548 H1554 0.984 . S
N1548 H1555 0.984 . S
N1549 C1542 1.356 . S
N1549 H1552 0.984 . S
N1549 H1553 0.985 . S
H1550 N1545 0.984 . S
H1551 N1545 0.985 . S
H1552 N1549 0.984 . S
H1553 N1549 0.985 . S
H1554 N1548 0.984 . S
H1555 N1548 0.984 . S
H1556 N1544 0.984 . S
H1557 N1544 0.985 . S
C1558 C1559 1.363 . S
C1558 C1564 1.379 . S
C1558 N1566 1.356 . S
C1559 C1558 1.363 . S
C1559 C1565 1.363 1_565 S
C1560 C1561 1.363 . S
C1560 C1565 1.379 1_565 S
C1560 N1567 1.356 1_565 S
C1561 C1560 1.363 . S
C1561 C1564 1.363 . S
N1562 C1564 1.356 . S
N1562 H1574 0.984 . S
N1562 H1575 0.985 . S
N1563 C1565 1.356 . S
N1563 H1568 0.984 . S
N1563 H1569 0.985 . S
C1564 C1558 1.379 . S
C1564 C1561 1.363 . S
C1564 N1562 1.356 . S
C1565 C1559 1.363 1_545 S
C1565 C1560 1.379 1_545 S
C1565 N1563 1.356 . S
N1566 C1558 1.356 . S
N1566 H1572 0.984 . S
N1566 H1573 0.984 . S
N1567 C1560 1.356 1_545 S
N1567 H1570 0.984 . S
N1567 H1571 0.985 . S
H1568 N1563 0.984 . S
H1569 N1563 0.985 . S
H1570 N1567 0.984 . S
H1571 N1567 0.985 . S
H1572 N1566 0.984 . S
H1573 N1566 0.984 . S
H1574 N1562 0.984 . S
H1575 N1562 0.985 . S
C1576 C1577 1.363 . S
C1576 C1582 1.379 . S
C1576 N1584 1.356 . S
C1577 C1576 1.363 . S
C1577 C1583 1.363 . S
C1578 C1579 1.363 . S
C1578 C1583 1.379 . S
C1578 N1585 1.356 . S
C1579 C1578 1.363 . S
C1579 C1582 1.363 . S
N1580 C1582 1.356 . S
N1580 H1592 0.984 . S
N1580 H1593 0.985 . S
N1581 C1583 1.356 . S
N1581 H1586 0.984 . S
N1581 H1587 0.985 . S
C1582 C1576 1.379 . S
C1582 C1579 1.363 . S
C1582 N1580 1.356 . S
C1583 C1577 1.363 . S
C1583 C1578 1.379 . S
C1583 N1581 1.356 . S
N1584 C1576 1.356 . S
N1584 H1590 0.984 . S
N1584 H1591 0.984 . S
N1585 C1578 1.356 . S
N1585 H1588 0.984 . S
N1585 H1589 0.985 . S
H1586 N1581 0.984 . S
H1587 N1581 0.985 . S
H1588 N1585 0.984 . S
H1589 N1585 0.985 . S
H1590 N1584 0.984 . S
H1591 N1584 0.984 . S
H1592 N1580 0.984 . S
H1593 N1580 0.985 . S
C1594 C1595 1.363 . S
C1594 C1600 1.379 . S
C1594 N1602 1.356 . S
C1595 C1594 1.363 . S
C1595 C1601 1.363 . S
C1596 C1597 1.363 . S
C1596 C1601 1.379 . S
C1596 N1603 1.356 . S
C1597 C1596 1.363 . S
C1597 C1600 1.363 . S
N1598 C1600 1.356 . S
N1598 H1610 0.984 . S
N1598 H1611 0.985 . S
N1599 C1601 1.356 . S
N1599 H1604 0.984 . S
N1599 H1605 0.985 1_545 S
C1600 C1594 1.379 . S
C1600 C1597 1.363 . S
C1600 N1598 1.356 . S
C1601 C1595 1.363 . S
C1601 C1596 1.379 . S
C1601 N1599 1.356 . S
N1602 C1594 1.356 . S
N1602 H1608 0.984 . S
N1602 H1609 0.984 . S
N1603 C1596 1.356 . S
N1603 H1606 0.984 . S
N1603 H1607 0.985 1_545 S
H1604 N1599 0.984 . S
H1605 N1599 0.985 1_565 S
H1606 N1603 0.984 . S
H1607 N1603 0.985 1_565 S
H1608 N1602 0.984 . S
H1609 N1602 0.984 . S
H1610 N1598 0.984 . S
H1611 N1598 0.985 . S
C1612 C1613 1.363 . S
C1612 C1618 1.379 . S
C1612 N1620 1.356 . S
C1613 C1612 1.363 . S
C1613 C1619 1.363 . S
C1614 C1615 1.363 . S
C1614 C1619 1.379 . S
C1614 N1621 1.356 . S
C1615 C1614 1.363 . S
C1615 C1618 1.363 . S
N1616 C1618 1.356 . S
N1616 H1628 0.984 . S
N1616 H1629 0.985 . S
N1617 C1619 1.356 . S
N1617 H1622 0.984 . S
N1617 H1623 0.985 . S
C1618 C1612 1.379 . S
C1618 C1615 1.363 . S
C1618 N1616 1.356 . S
C1619 C1613 1.363 . S
C1619 C1614 1.379 . S
C1619 N1617 1.356 . S
N1620 C1612 1.356 . S
N1620 H1626 0.984 . S
N1620 H1627 0.984 . S
N1621 C1614 1.356 . S
N1621 H1624 0.984 . S
N1621 H1625 0.985 . S
H1622 N1617 0.984 . S
H1623 N1617 0.985 . S
H1624 N1621 0.984 . S
H1625 N1621 0.985 . S
H1626 N1620 0.984 . S
H1627 N1620 0.984 . S
H1628 N1616 0.984 . S
H1629 N1616 0.985 . S
C1630 C1631 1.363 1_554 S
C1630 C1636 1.379 . S
C1630 N1638 1.356 . S
C1631 C1630 1.363 1_556 S
C1631 C1637 1.363 . S
C1632 C1633 1.363 . S
C1632 C1637 1.379 . S
C1632 N1639 1.356 . S
C1633 C1632 1.363 . S
C1633 C1636 1.363 1_556 S
N1634 C1636 1.356 . S
N1634 H1646 0.984 . S
N1634 H1647 0.985 . S
N1635 C1637 1.356 . S
N1635 H1640 0.984 . S
N1635 H1641 0.985 . S
C1636 C1630 1.379 . S
C1636 C1633 1.363 1_554 S
C1636 N1634 1.356 . S
C1637 C1631 1.363 . S
C1637 C1632 1.379 . S
C1637 N1635 1.356 . S
N1638 C1630 1.356 . S
N1638 H1644 0.984 . S
N1638 H1645 0.984 . S
N1639 C1632 1.356 . S
N1639 H1642 0.984 . S
N1639 H1643 0.985 . S
H1640 N1635 0.984 . S
H1641 N1635 0.985 . S
H1642 N1639 0.984 . S
H1643 N1639 0.985 . S
H1644 N1638 0.984 . S
H1645 N1638 0.984 . S
H1646 N1634 0.984 . S
H1647 N1634 0.985 . S
C1648 C1649 1.363 . S
C1648 C1654 1.379 . S
C1648 N1656 1.356 . S
C1649 C1648 1.363 . S
C1649 C1655 1.363 1_556 S
C1650 C1651 1.363 1_554 S
C1650 C1655 1.379 . S
C1650 N1657 1.356 . S
C1651 C1650 1.363 1_556 S
C1651 C1654 1.363 . S
N1652 C1654 1.356 . S
N1652 H1664 0.984 . S
N1652 H1665 0.985 . S
N1653 C1655 1.356 . S
N1653 H1658 0.984 . S
N1653 H1659 0.985 . S
C1654 C1648 1.379 . S
C1654 C1651 1.363 . S
C1654 N1652 1.356 . S
C1655 C1649 1.363 1_554 S
C1655 C1650 1.379 . S
C1655 N1653 1.356 . S
N1656 C1648 1.356 . S
N1656 H1662 0.984 . S
N1656 H1663 0.984 . S
N1657 C1650 1.356 . S
N1657 H1660 0.984 . S
N1657 H1661 0.985 . S
H1658 N1653 0.984 . S
H1659 N1653 0.985 . S
H1660 N1657 0.984 . S
H1661 N1657 0.985 . S
H1662 N1656 0.984 . S
H1663 N1656 0.984 . S
H1664 N1652 0.984 . S
H1665 N1652 0.985 . S
C1666 C1667 1.363 1_556 S
C1666 C1672 1.379 . S
C1666 N1674 1.356 . S
C1667 C1666 1.363 1_554 S
C1667 C1673 1.363 . S
C1668 C1669 1.363 . S
C1668 C1673 1.379 . S
C1668 N1675 1.356 . S
C1669 C1668 1.363 . S
C1669 C1672 1.363 1_554 S
N1670 C1672 1.356 . S
N1670 H1682 0.984 . S
N1670 H1683 0.985 . S
N1671 C1673 1.356 . S
N1671 H1676 0.984 . S
N1671 H1677 0.985 . S
C1672 C1666 1.379 . S
C1672 C1669 1.363 1_556 S
C1672 N1670 1.356 . S
C1673 C1667 1.363 . S
C1673 C1668 1.379 . S
C1673 N1671 1.356 . S
N1674 C1666 1.356 . S
N1674 H1680 0.984 . S
N1674 H1681 0.984 . S
N1675 C1668 1.356 . S
N1675 H1678 0.984 . S
N1675 H1679 0.985 . S
H1676 N1671 0.984 . S
H1677 N1671 0.985 . S
H1678 N1675 0.984 . S
H1679 N1675 0.985 . S
H1680 N1674 0.984 . S
H1681 N1674 0.984 . S
H1682 N1670 0.984 . S
H1683 N1670 0.985 . S
C821 C22 1.691 . S
C823 C699 1.695 . S
C841 C725 1.788 . S
C839 C38 1.805 . S
C859 C657 1.759 . S
C857 C75 1.716 . S
C875 C91 1.556 . S
C877 C680 1.577 . S
C893 C128 1.665 . S
C895 C814 1.686 . S
C911 C197 1.484 . S
C913 C795 1.513 . S
C931 C748 1.822 . S
C929 C144 1.832 . S
C947 C181 1.750 . S
C949 C771 1.769 . S
C967 C676 1.857 . S
C965 C234 1.869 . S
C985 C726 1.626 . S
C983 C303 1.601 . S
C1001 C356 1.695 . S
C1003 C702 1.670 . S
C1019 C287 1.798 . S
C1021 C768 1.820 . S
C1039 C791 1.628 . S
C1037 C393 1.619 . S
C1057 C817 1.870 . S
C1055 C409 1.861 . S
C1073 C462 1.918 . S
C1075 C772 1.951 . S
C1093 C749 1.486 . S
C1091 C446 1.462 . S
C1109 C499 1.712 . S
C1111 C722 1.707 . S
C1127 C552 1.465 . S
C1129 C703 1.503 . S
C1147 C679 1.684 . S
C1145 C515 1.720 . S
C1163 C568 1.986 . S
C1165 C656 1.999 . S
C1183 C745 1.926 . S
C1181 C340 1.923 . S
C1201 C818 1.511 . S
C1199 C621 1.494 . S
C1217 C250 1.625 . S
C1219 C794 1.600 . S
C1235 C605 1.764 . S
C1237 C653 1.763 1_655 S
C1255 C655 1.526 . S
C1253 C39 1.536 . S
C1271 C29 1.360 . S
C1273 C678 1.302 . S
C1291 C700 1.509 . S
C1289 C92 1.451 . S
C1309 C721 1.313 . S
C1307 C82 1.274 . S
C1325 C145 1.610 . S
C1327 C652 1.622 . S
C1343 C188 1.317 . S
C1345 C675 1.350 . S
C1363 C701 1.402 . S
C1361 C135 1.431 . S
C1379 C198 1.543 . S
C1381 C723 1.599 . S
C1397 C251 1.450 . S
C1399 C654 1.476 . S
C1417 C698 1.319 . S
C1415 C294 1.283 . S
C1433 C347 1.402 . S
C1435 C724 1.380 . S
C1451 C304 1.496 . S
C1453 C746 1.536 . S
C1471 C770 1.520 . S
C1469 C410 1.558 . S
C1487 C400 1.367 . S
C1489 C747 1.344 . S
C1505 C453 1.202 . S
C1507 C792 1.266 . S
C1523 C463 1.588 . S
C1525 C813 1.594 . S
C1541 C516 1.581 . S
C1543 C767 1.615 . S
C1561 C744 1.633 . S
C1559 C569 1.627 . S
C1577 C506 1.384 . S
C1579 C793 1.319 . S
C1597 C815 1.389 . S
C1595 C559 1.337 . S
C1615 C769 1.450 . S
C1613 C357 1.445 . S
C1633 C790 1.355 . S
C1631 C612 1.324 . S
C1651 C816 1.340 . S
C1649 C241 1.364 . S
C1667 C622 1.387 . S
C1669 C677 1.437 . S
