# Generated by pormake.
# Topology gar, (4,6)-cn, num edge types: 1
# Building blocks:
#     Node 0, Type 0, BuildingBlock: NAHDIM_clean_sbu_0, # of connection points: 4
#     Node 1, Type 0, BuildingBlock: NAHDIM_clean_sbu_0, # of connection points: 4
#     Node 2, Type 0, BuildingBlock: NAHDIM_clean_sbu_0, # of connection points: 4
#     Node 3, Type 0, BuildingBlock: NAHDIM_clean_sbu_0, # of connection points: 4
#     Node 4, Type 0, BuildingBlock: NAHDIM_clean_sbu_0, # of connection points: 4
#     Node 5, Type 0, BuildingBlock: NAHDIM_clean_sbu_0, # of connection points: 4
#     Node 6, Type 0, BuildingBlock: NAHDIM_clean_sbu_0, # of connection points: 4
#     Node 7, Type 0, BuildingBlock: NAHDIM_clean_sbu_0, # of connection points: 4
#     Node 8, Type 0, BuildingBlock: NAHDIM_clean_sbu_0, # of connection points: 4
#     Node 9, Type 0, BuildingBlock: NAHDIM_clean_sbu_0, # of connection points: 4
#     Node 10, Type 0, BuildingBlock: NAHDIM_clean_sbu_0, # of connection points: 4
#     Node 11, Type 0, BuildingBlock: NAHDIM_clean_sbu_0, # of connection points: 4
#     Node 12, Type 0, BuildingBlock: NAHDIM_clean_sbu_0, # of connection points: 4
#     Node 13, Type 0, BuildingBlock: NAHDIM_clean_sbu_0, # of connection points: 4
#     Node 14, Type 0, BuildingBlock: NAHDIM_clean_sbu_0, # of connection points: 4
#     Node 15, Type 0, BuildingBlock: NAHDIM_clean_sbu_0, # of connection points: 4
#     Node 16, Type 0, BuildingBlock: NAHDIM_clean_sbu_0, # of connection points: 4
#     Node 17, Type 0, BuildingBlock: NAHDIM_clean_sbu_0, # of connection points: 4
#     Node 18, Type 0, BuildingBlock: NAHDIM_clean_sbu_0, # of connection points: 4
#     Node 19, Type 0, BuildingBlock: NAHDIM_clean_sbu_0, # of connection points: 4
#     Node 20, Type 0, BuildingBlock: NAHDIM_clean_sbu_0, # of connection points: 4
#     Node 21, Type 0, BuildingBlock: NAHDIM_clean_sbu_0, # of connection points: 4
#     Node 22, Type 0, BuildingBlock: NAHDIM_clean_sbu_0, # of connection points: 4
#     Node 23, Type 0, BuildingBlock: NAHDIM_clean_sbu_0, # of connection points: 4
#     Node 24, Type 1, BuildingBlock: HISSIN_clean_sbu_0, # of connection points: 6
#     Node 25, Type 1, BuildingBlock: HISSIN_clean_sbu_0, # of connection points: 6
#     Node 26, Type 1, BuildingBlock: HISSIN_clean_sbu_0, # of connection points: 6
#     Node 27, Type 1, BuildingBlock: HISSIN_clean_sbu_0, # of connection points: 6
#     Node 28, Type 1, BuildingBlock: HISSIN_clean_sbu_0, # of connection points: 6
#     Node 29, Type 1, BuildingBlock: HISSIN_clean_sbu_0, # of connection points: 6
#     Node 30, Type 1, BuildingBlock: HISSIN_clean_sbu_0, # of connection points: 6
#     Node 31, Type 1, BuildingBlock: HISSIN_clean_sbu_0, # of connection points: 6
#     Node 32, Type 1, BuildingBlock: HISSIN_clean_sbu_0, # of connection points: 6
#     Node 33, Type 1, BuildingBlock: HISSIN_clean_sbu_0, # of connection points: 6
#     Node 34, Type 1, BuildingBlock: HISSIN_clean_sbu_0, # of connection points: 6
#     Node 35, Type 1, BuildingBlock: HISSIN_clean_sbu_0, # of connection points: 6
#     Node 36, Type 1, BuildingBlock: HISSIN_clean_sbu_0, # of connection points: 6
#     Node 37, Type 1, BuildingBlock: HISSIN_clean_sbu_0, # of connection points: 6
#     Node 38, Type 1, BuildingBlock: HISSIN_clean_sbu_0, # of connection points: 6
#     Node 39, Type 1, BuildingBlock: HISSIN_clean_sbu_0, # of connection points: 6
#     Edge 40, Type (0, 1), BuildingBlock: XUDNAN_clean_linker_2, # of connection points: 2
#     Edge 41, Type (0, 1), BuildingBlock: XUDNAN_clean_linker_2, # of connection points: 2
#     Edge 42, Type (0, 1), BuildingBlock: XUDNAN_clean_linker_2, # of connection points: 2
#     Edge 43, Type (0, 1), BuildingBlock: XUDNAN_clean_linker_2, # of connection points: 2
#     Edge 44, Type (0, 1), BuildingBlock: XUDNAN_clean_linker_2, # of connection points: 2
#     Edge 45, Type (0, 1), BuildingBlock: XUDNAN_clean_linker_2, # of connection points: 2
#     Edge 46, Type (0, 1), BuildingBlock: XUDNAN_clean_linker_2, # of connection points: 2
#     Edge 47, Type (0, 1), BuildingBlock: XUDNAN_clean_linker_2, # of connection points: 2
#     Edge 48, Type (0, 1), BuildingBlock: XUDNAN_clean_linker_2, # of connection points: 2
#     Edge 49, Type (0, 1), BuildingBlock: XUDNAN_clean_linker_2, # of connection points: 2
#     Edge 50, Type (0, 1), BuildingBlock: XUDNAN_clean_linker_2, # of connection points: 2
#     Edge 51, Type (0, 1), BuildingBlock: XUDNAN_clean_linker_2, # of connection points: 2
#     Edge 52, Type (0, 1), BuildingBlock: XUDNAN_clean_linker_2, # of connection points: 2
#     Edge 53, Type (0, 1), BuildingBlock: XUDNAN_clean_linker_2, # of connection points: 2
#     Edge 54, Type (0, 1), BuildingBlock: XUDNAN_clean_linker_2, # of connection points: 2
#     Edge 55, Type (0, 1), BuildingBlock: XUDNAN_clean_linker_2, # of connection points: 2
#     Edge 56, Type (0, 1), BuildingBlock: XUDNAN_clean_linker_2, # of connection points: 2
#     Edge 57, Type (0, 1), BuildingBlock: XUDNAN_clean_linker_2, # of connection points: 2
#     Edge 58, Type (0, 1), BuildingBlock: XUDNAN_clean_linker_2, # of connection points: 2
#     Edge 59, Type (0, 1), BuildingBlock: XUDNAN_clean_linker_2, # of connection points: 2
#     Edge 60, Type (0, 1), BuildingBlock: XUDNAN_clean_linker_2, # of connection points: 2
#     Edge 61, Type (0, 1), BuildingBlock: XUDNAN_clean_linker_2, # of connection points: 2
#     Edge 62, Type (0, 1), BuildingBlock: XUDNAN_clean_linker_2, # of connection points: 2
#     Edge 63, Type (0, 1), BuildingBlock: XUDNAN_clean_linker_2, # of connection points: 2
#     Edge 64, Type (0, 1), BuildingBlock: XUDNAN_clean_linker_2, # of connection points: 2
#     Edge 65, Type (0, 1), BuildingBlock: XUDNAN_clean_linker_2, # of connection points: 2
#     Edge 66, Type (0, 1), BuildingBlock: XUDNAN_clean_linker_2, # of connection points: 2
#     Edge 67, Type (0, 1), BuildingBlock: XUDNAN_clean_linker_2, # of connection points: 2
#     Edge 68, Type (0, 1), BuildingBlock: XUDNAN_clean_linker_2, # of connection points: 2
#     Edge 69, Type (0, 1), BuildingBlock: XUDNAN_clean_linker_2, # of connection points: 2
#     Edge 70, Type (0, 1), BuildingBlock: XUDNAN_clean_linker_2, # of connection points: 2
#     Edge 71, Type (0, 1), BuildingBlock: XUDNAN_clean_linker_2, # of connection points: 2
#     Edge 72, Type (0, 1), BuildingBlock: XUDNAN_clean_linker_2, # of connection points: 2
#     Edge 73, Type (0, 1), BuildingBlock: XUDNAN_clean_linker_2, # of connection points: 2
#     Edge 74, Type (0, 1), BuildingBlock: XUDNAN_clean_linker_2, # of connection points: 2
#     Edge 75, Type (0, 1), BuildingBlock: XUDNAN_clean_linker_2, # of connection points: 2
#     Edge 76, Type (0, 1), BuildingBlock: XUDNAN_clean_linker_2, # of connection points: 2
#     Edge 77, Type (0, 1), BuildingBlock: XUDNAN_clean_linker_2, # of connection points: 2
#     Edge 78, Type (0, 1), BuildingBlock: XUDNAN_clean_linker_2, # of connection points: 2
#     Edge 79, Type (0, 1), BuildingBlock: XUDNAN_clean_linker_2, # of connection points: 2
#     Edge 80, Type (0, 1), BuildingBlock: XUDNAN_clean_linker_2, # of connection points: 2
#     Edge 81, Type (0, 1), BuildingBlock: XUDNAN_clean_linker_2, # of connection points: 2
#     Edge 82, Type (0, 1), BuildingBlock: XUDNAN_clean_linker_2, # of connection points: 2
#     Edge 83, Type (0, 1), BuildingBlock: XUDNAN_clean_linker_2, # of connection points: 2
#     Edge 84, Type (0, 1), BuildingBlock: XUDNAN_clean_linker_2, # of connection points: 2
#     Edge 85, Type (0, 1), BuildingBlock: XUDNAN_clean_linker_2, # of connection points: 2
#     Edge 86, Type (0, 1), BuildingBlock: XUDNAN_clean_linker_2, # of connection points: 2
#     Edge 87, Type (0, 1), BuildingBlock: XUDNAN_clean_linker_2, # of connection points: 2
#     Edge 88, Type (0, 1), BuildingBlock: XUDNAN_clean_linker_2, # of connection points: 2
#     Edge 89, Type (0, 1), BuildingBlock: XUDNAN_clean_linker_2, # of connection points: 2
#     Edge 90, Type (0, 1), BuildingBlock: XUDNAN_clean_linker_2, # of connection points: 2
#     Edge 91, Type (0, 1), BuildingBlock: XUDNAN_clean_linker_2, # of connection points: 2
#     Edge 92, Type (0, 1), BuildingBlock: XUDNAN_clean_linker_2, # of connection points: 2
#     Edge 93, Type (0, 1), BuildingBlock: XUDNAN_clean_linker_2, # of connection points: 2
#     Edge 94, Type (0, 1), BuildingBlock: XUDNAN_clean_linker_2, # of connection points: 2
#     Edge 95, Type (0, 1), BuildingBlock: XUDNAN_clean_linker_2, # of connection points: 2
#     Edge 96, Type (0, 1), BuildingBlock: XUDNAN_clean_linker_2, # of connection points: 2
#     Edge 97, Type (0, 1), BuildingBlock: XUDNAN_clean_linker_2, # of connection points: 2
#     Edge 98, Type (0, 1), BuildingBlock: XUDNAN_clean_linker_2, # of connection points: 2
#     Edge 99, Type (0, 1), BuildingBlock: XUDNAN_clean_linker_2, # of connection points: 2
#     Edge 100, Type (0, 1), BuildingBlock: XUDNAN_clean_linker_2, # of connection points: 2
#     Edge 101, Type (0, 1), BuildingBlock: XUDNAN_clean_linker_2, # of connection points: 2
#     Edge 102, Type (0, 1), BuildingBlock: XUDNAN_clean_linker_2, # of connection points: 2
#     Edge 103, Type (0, 1), BuildingBlock: XUDNAN_clean_linker_2, # of connection points: 2
#     Edge 104, Type (0, 1), BuildingBlock: XUDNAN_clean_linker_2, # of connection points: 2
#     Edge 105, Type (0, 1), BuildingBlock: XUDNAN_clean_linker_2, # of connection points: 2
#     Edge 106, Type (0, 1), BuildingBlock: XUDNAN_clean_linker_2, # of connection points: 2
#     Edge 107, Type (0, 1), BuildingBlock: XUDNAN_clean_linker_2, # of connection points: 2
#     Edge 108, Type (0, 1), BuildingBlock: XUDNAN_clean_linker_2, # of connection points: 2
#     Edge 109, Type (0, 1), BuildingBlock: XUDNAN_clean_linker_2, # of connection points: 2
#     Edge 110, Type (0, 1), BuildingBlock: XUDNAN_clean_linker_2, # of connection points: 2
#     Edge 111, Type (0, 1), BuildingBlock: XUDNAN_clean_linker_2, # of connection points: 2
#     Edge 112, Type (0, 1), BuildingBlock: XUDNAN_clean_linker_2, # of connection points: 2
#     Edge 113, Type (0, 1), BuildingBlock: XUDNAN_clean_linker_2, # of connection points: 2
#     Edge 114, Type (0, 1), BuildingBlock: XUDNAN_clean_linker_2, # of connection points: 2
#     Edge 115, Type (0, 1), BuildingBlock: XUDNAN_clean_linker_2, # of connection points: 2
#     Edge 116, Type (0, 1), BuildingBlock: XUDNAN_clean_linker_2, # of connection points: 2
#     Edge 117, Type (0, 1), BuildingBlock: XUDNAN_clean_linker_2, # of connection points: 2
#     Edge 118, Type (0, 1), BuildingBlock: XUDNAN_clean_linker_2, # of connection points: 2
#     Edge 119, Type (0, 1), BuildingBlock: XUDNAN_clean_linker_2, # of connection points: 2
#     Edge 120, Type (0, 1), BuildingBlock: XUDNAN_clean_linker_2, # of connection points: 2
#     Edge 121, Type (0, 1), BuildingBlock: XUDNAN_clean_linker_2, # of connection points: 2
#     Edge 122, Type (0, 1), BuildingBlock: XUDNAN_clean_linker_2, # of connection points: 2
#     Edge 123, Type (0, 1), BuildingBlock: XUDNAN_clean_linker_2, # of connection points: 2
#     Edge 124, Type (0, 1), BuildingBlock: XUDNAN_clean_linker_2, # of connection points: 2
#     Edge 125, Type (0, 1), BuildingBlock: XUDNAN_clean_linker_2, # of connection points: 2
#     Edge 126, Type (0, 1), BuildingBlock: XUDNAN_clean_linker_2, # of connection points: 2
#     Edge 127, Type (0, 1), BuildingBlock: XUDNAN_clean_linker_2, # of connection points: 2
#     Edge 128, Type (0, 1), BuildingBlock: XUDNAN_clean_linker_2, # of connection points: 2
#     Edge 129, Type (0, 1), BuildingBlock: XUDNAN_clean_linker_2, # of connection points: 2
#     Edge 130, Type (0, 1), BuildingBlock: XUDNAN_clean_linker_2, # of connection points: 2
#     Edge 131, Type (0, 1), BuildingBlock: XUDNAN_clean_linker_2, # of connection points: 2
#     Edge 132, Type (0, 1), BuildingBlock: XUDNAN_clean_linker_2, # of connection points: 2
#     Edge 133, Type (0, 1), BuildingBlock: XUDNAN_clean_linker_2, # of connection points: 2
#     Edge 134, Type (0, 1), BuildingBlock: XUDNAN_clean_linker_2, # of connection points: 2
#     Edge 135, Type (0, 1), BuildingBlock: XUDNAN_clean_linker_2, # of connection points: 2
# Relax obj value: 0.192
# Max RMSD: 0.285
# Mean RMSD: 0.169
data_MOF--net-gar--node1-NAHDIM_clean_sbu_0--node2-HISSIN_clean_sbu_0--edge1-XUDNAN_clean_linker_2
_symmetry_space_group_name_H-M    P1
_symmetry_Int_Tables_number       1
_symmetry_cell_setting            triclinic
loop_
_symmetry_equiv_pos_as_xyz
'x, y, z'
_cell_length_a     60.535386
_cell_length_b     59.194368
_cell_length_c     56.54751
_cell_angle_alpha  100.85286
_cell_angle_beta   93.736789
_cell_angle_gamma 101.26133
loop_
_atom_site_label
_atom_site_type_symbol
_atom_site_fract_x
_atom_site_fract_y
_atom_site_fract_z
_atom_type_partial_charge
C0 C 0.14215 0.33849 0.37381 0.0
O1 O 0.12966 0.35443 0.37541 0.0
O2 O 0.10308 0.28933 0.41393 0.0
Zn3 Zn 0.10366 0.31032 0.38983 0.0
O4 O 0.09288 0.33933 0.40367 0.0
C5 C 0.06989 0.27502 0.35389 0.0
O6 O 0.0709 0.2597 0.36778 0.0
O7 O 0.1346 0.31892 0.37964 0.0
C8 C 0.09915 0.3529 0.4242 0.0
O9 O 0.11444 0.3483 0.43911 0.0
C10 C 0.11945 0.29292 0.4304 0.0
O11 O 0.13713 0.30996 0.43094 0.0
O12 O 0.08232 0.29554 0.36002 0.0
C13 C 0.95958 0.74436 0.67262 0.0
O14 O 0.95048 0.72836 0.65326 0.0
O15 O 0.99188 0.7265 0.62146 0.0
Zn16 Zn 1.00005 0.75611 0.64698 0.0
O17 O 1.00254 0.78506 0.63261 0.0
C18 C 0.04356 0.77043 0.67798 0.0
O19 O 0.03945 0.7917 0.68323 0.0
O20 O 0.97905 0.75714 0.67271 0.0
C21 C 0.02002 0.79321 0.62308 0.0
O22 O 0.03723 0.78268 0.62283 0.0
C23 C 0.99099 0.7267 0.599 0.0
O24 O 0.99135 0.74669 0.59201 0.0
O25 O 0.02971 0.7543 0.66319 0.0
C26 C 0.63952 0.83267 0.87359 0.0
O27 O 0.62101 0.83932 0.86688 0.0
O28 O 0.60695 0.7933 0.92646 0.0
Zn29 Zn 0.60842 0.81371 0.9017 0.0
O30 O 0.60166 0.84516 0.91497 0.0
C31 C 0.56543 0.79024 0.87346 0.0
O32 O 0.55803 0.7893 0.89466 0.0
O33 O 0.63896 0.82035 0.88979 0.0
C34 C 0.5878 0.84994 0.9301 0.0
O35 O 0.57635 0.83313 0.93944 0.0
C36 C 0.61529 0.80157 0.94831 0.0
O37 O 0.62558 0.82384 0.95471 0.0
O38 O 0.58618 0.79883 0.8725 0.0
C39 C 0.4851 0.27405 0.18354 0.0
O40 O 0.48214 0.25556 0.16578 0.0
O41 O 0.53488 0.25197 0.16353 0.0
Zn42 Zn 0.53303 0.28588 0.17387 0.0
O43 O 0.53796 0.30362 0.14693 0.0
C44 C 0.55319 0.2943 0.22171 0.0
O45 O 0.53352 0.28091 0.22326 0.0
O46 O 0.504 0.28861 0.18797 0.0
C47 C 0.55457 0.30177 0.13458 0.0
O48 O 0.568 0.28789 0.13943 0.0
C49 C 0.5287 0.23953 0.14242 0.0
O50 O 0.51971 0.24873 0.12572 0.0
O51 O 0.55742 0.2996 0.20145 0.0
C52 C 0.0535 0.7522 0.1478 0.0
O53 O 0.06788 0.73815 0.14716 0.0
O54 O 0.09557 0.74819 0.10875 0.0
Zn55 Zn 0.08822 0.77813 0.12575 0.0
O56 O 0.08615 0.79846 0.10146 0.0
C57 C 0.1328 0.7953 0.14968 0.0
O58 O 0.13801 0.78863 0.12763 0.0
O59 O 0.05844 0.77076 0.13932 0.0
C60 C 0.09822 0.79805 0.08385 0.0
O61 O 0.11343 0.78491 0.08202 0.0
C62 C 0.0822 0.73662 0.09039 0.0
O63 O 0.06449 0.74468 0.08388 0.0
O64 O 0.1121 0.79333 0.15325 0.0
C65 C 0.56817 0.80646 0.42444 0.0
O66 O 0.57532 0.8237 0.44332 0.0
O67 O 0.51462 0.78653 0.46348 0.0
Zn68 Zn 0.52166 0.80575 0.43826 0.0
O69 O 0.52774 0.84012 0.45347 0.0
C70 C 0.47504 0.78941 0.4141 0.0
O71 O 0.46924 0.78261 0.43405 0.0
O72 O 0.54723 0.79693 0.42025 0.0
C73 C 0.51143 0.84718 0.46347 0.0
O74 O 0.49258 0.83183 0.46357 0.0
C75 C 0.52509 0.79334 0.48462 0.0
O76 O 0.54075 0.81284 0.48956 0.0
O77 O 0.49544 0.79917 0.41286 0.0
C78 C 0.56279 0.31147 0.64622 0.0
O79 O 0.56435 0.28974 0.63735 0.0
O80 O 0.60229 0.2878 0.61323 0.0
Zn81 Zn 0.60788 0.32097 0.63226 0.0
O82 O 0.62002 0.34258 0.61067 0.0
C83 C 0.62529 0.31478 0.67797 0.0
O84 O 0.60419 0.30391 0.67798 0.0
O85 O 0.57921 0.32824 0.64528 0.0
C86 C 0.63397 0.33709 0.59585 0.0
O87 O 0.64141 0.31765 0.59561 0.0
C88 C 0.59518 0.28216 0.59083 0.0
O89 O 0.59057 0.29833 0.5794 0.0
O90 O 0.63096 0.32396 0.6601 0.0
C91 C 0.05933 0.28118 0.90035 0.0
O92 O 0.06066 0.30118 0.91568 0.0
O93 O 1.01064 0.25894 0.94234 0.0
Zn94 Zn 1.01278 0.27116 0.91153 0.0
O95 O 1.01246 0.30565 0.91915 0.0
C96 C 0.9664 0.24947 0.89189 0.0
O97 O 0.96289 0.24912 0.91451 0.0
O98 O 0.04089 0.26589 0.89649 0.0
C99 C 0.99634 0.31183 0.93029 0.0
O100 O 0.98092 0.29566 0.93638 0.0
C101 C 0.02003 0.27272 0.96199 0.0
O102 O 0.03113 0.29396 0.9613 0.0
O103 O 0.98637 0.25627 0.88673 0.0
C104 C 0.37576 0.05441 0.28479 0.0
O105 O 0.39445 0.05558 0.27408 0.0
O106 O 0.41309 0.01652 0.28324 0.0
Zn107 Zn 0.39696 0.02681 0.31191 0.0
O108 O 0.4199 0.04745 0.33801 0.0
C109 C 0.36385 0.99768 0.33413 0.0
O110 O 0.35409 0.01584 0.33716 0.0
O111 O 0.37336 0.04345 0.30201 0.0
C112 C 0.43768 0.03973 0.34182 0.0
O113 O 0.43966 0.01961 0.32857 0.0
C114 C 0.41397 0.9953 0.27472 0.0
O115 O 0.40333 0.97842 0.28454 0.0
O116 O 0.3821 0.99881 0.32413 0.0
C117 C 0.32809 0.18091 0.48817 0.0
O118 O 0.32055 0.18458 0.46721 0.0
O119 O 0.29381 0.2248 0.53984 0.0
Zn120 Zn 0.29235 0.20403 0.50608 0.0
O121 O 0.29509 0.22227 0.47856 0.0
C122 C 0.245 0.1823 0.50747 0.0
O123 O 0.24445 0.20307 0.52038 0.0
O124 O 0.3185 0.18742 0.50685 0.0
C125 C 0.30819 0.24238 0.48106 0.0
O126 O 0.31928 0.25237 0.50237 0.0
C127 C 0.31325 0.23376 0.55148 0.0
O128 O 0.33134 0.23028 0.54092 0.0
O129 O 0.26343 0.17889 0.49931 0.0
C130 C 0.2137 0.97755 0.7865 0.0
O131 O 0.19602 0.97135 0.79794 0.0
O132 O 0.17162 0.0265 0.75141 0.0
Zn133 Zn 0.19487 0.02795 0.78466 0.0
O134 O 0.17367 0.02561 0.81661 0.0
C135 C 0.22735 0.07695 0.77707 0.0
O136 O 0.23185 0.06508 0.75655 0.0
O137 O 0.21613 0.9981 0.78009 0.0
C138 C 0.1713 0.04123 0.83542 0.0
O139 O 0.18305 0.06279 0.83754 0.0
C140 C 0.17456 0.02487 0.72861 0.0
O141 O 0.19429 0.02168 0.72195 0.0
O142 O 0.21467 0.06539 0.79046 0.0
C143 C 0.24926 0.98164 1.01169 0.0
O144 O 0.24484 0.95861 1.00895 0.0
O145 O 0.2944 0.95898 0.03984 0.0
Zn146 Zn 0.29664 0.97411 1.01073 0.0
O147 O 0.29269 0.94651 0.98153 0.0
C148 C 0.34656 0.98677 1.00614 0.0
O149 O 0.34241 0.9662 0.99123 0.0
O150 O 0.2699 0.99235 1.01186 0.0
C151 C 0.29764 0.94719 0.96007 0.0
O152 O 0.30464 0.96772 0.95434 0.0
C153 C 0.30483 0.94268 0.04196 0.0
O154 O 0.31709 0.93566 0.02481 0.0
O155 O 0.32998 0.99431 0.01558 0.0
C156 C 0.28164 0.40972 0.0359 0.0
O157 O 0.27681 0.38788 0.02365 0.0
O158 O 0.32171 0.38316 0.07938 0.0
Zn159 Zn 0.32536 0.39905 0.05039 0.0
O160 O 0.32396 0.37588 0.01832 0.0
C161 C 0.37399 0.41797 0.04984 0.0
O162 O 0.37463 0.39632 0.03948 0.0
O163 O 0.30077 0.41767 0.04842 0.0
C164 C 0.32158 0.38307 0.99861 0.0
O165 O 0.32017 0.40509 0.99965 0.0
C166 C 0.30445 0.36711 0.0798 0.0
O167 O 0.2894 0.36006 0.06069 0.0
O168 O 0.35527 0.42264 0.05598 0.0
C169 C 0.87343 0.11197 0.04672 0.0
O170 O 0.87685 0.13401 0.04446 0.0
O171 O 0.83001 0.14488 0.0864 0.0
Zn172 Zn 0.82639 0.12014 0.05442 0.0
O173 O 0.82678 0.13708 0.02627 0.0
C174 C 0.77622 0.1084 0.0478 0.0
O175 O 0.78002 0.13042 0.04546 0.0
O176 O 0.85368 0.10212 0.05123 0.0
C177 C 0.82233 0.15739 0.0274 0.0
O178 O 0.81719 0.16869 0.0479 0.0
C179 C 0.84512 0.16387 0.09098 0.0
O180 O 0.86016 0.16712 0.07557 0.0
O181 O 0.79336 0.09922 0.05158 0.0
C182 C 0.22984 0.49256 0.19063 0.0
O183 O 0.20977 0.48316 0.19604 0.0
O184 O 0.18473 0.52543 0.17112 0.0
Zn185 Zn 0.21109 0.53365 0.1969 0.0
O186 O 0.19955 0.52858 0.22868 0.0
C187 C 0.24313 0.57451 0.18943 0.0
O188 O 0.25138 0.55909 0.17465 0.0
O189 O 0.23399 0.51401 0.18895 0.0
C190 C 0.19782 0.54582 0.24515 0.0
O191 O 0.20464 0.56736 0.24184 0.0
C192 C 0.16551 0.52843 0.17727 0.0
O193 O 0.16349 0.53647 0.20012 0.0
O194 O 0.22613 0.56749 0.2002 0.0
C195 C 0.79841 0.93483 0.53586 0.0
O196 O 0.81505 0.94215 0.52349 0.0
O197 O 0.83015 0.89562 0.58278 0.0
Zn198 Zn 0.8281 0.90533 0.55031 0.0
O199 O 0.82449 0.87876 0.52065 0.0
C200 C 0.87597 0.92626 0.552 0.0
O201 O 0.87842 0.90479 0.55255 0.0
O202 O 0.80047 0.91955 0.54847 0.0
C203 C 0.83376 0.88288 0.50187 0.0
O204 O 0.84665 0.90367 0.50272 0.0
C205 C 0.82213 0.87619 0.58868 0.0
O206 O 0.8113 0.85822 0.57193 0.0
O207 O 0.85614 0.93044 0.55067 0.0
C208 C 0.91906 0.11885 0.27856 0.0
O209 O 0.94013 0.1278 0.27582 0.0
O210 O 0.9564 0.06721 0.24565 0.0
Zn211 Zn 0.93505 0.06663 0.27753 0.0
O212 O 0.957 0.07192 0.31287 0.0
C213 C 0.91711 1.00996 0.2713 0.0
O214 O 0.93792 1.00829 0.26729 0.0
O215 O 0.91416 0.09642 0.27955 0.0
C216 C 0.95962 0.05657 0.32601 0.0
O217 O 0.9485 0.03478 0.31802 0.0
C218 C 0.95605 0.05272 0.22506 0.0
O219 O 0.94068 0.03301 0.22051 0.0
O220 O 0.91248 0.03085 0.27474 0.0
C221 C 0.37607 0.61086 0.54966 0.0
O222 O 0.38064 0.63398 0.55479 0.0
O223 O 0.32694 0.63714 0.58595 0.0
Zn224 Zn 0.32854 0.61833 0.55172 0.0
O225 O 0.33424 0.64178 0.53004 0.0
C226 C 0.27862 0.60193 0.55062 0.0
O227 O 0.28239 0.61651 0.57173 0.0
O228 O 0.35532 0.6 0.54831 0.0
C229 C 0.32026 0.65489 0.52773 0.0
O230 O 0.30266 0.65337 0.5402 0.0
C231 C 0.33658 0.65865 0.59415 0.0
O232 O 0.35119 0.66934 0.58153 0.0
O233 O 0.29563 0.59847 0.5391 0.0
C234 C 0.42028 0.61983 0.77715 0.0
O235 O 0.44072 0.62801 0.77186 0.0
O236 O 0.45773 0.56794 0.74538 0.0
Zn237 Zn 0.43606 0.56734 0.77701 0.0
O238 O 0.45786 0.57155 0.81229 0.0
C239 C 0.41883 0.51112 0.77263 0.0
O240 O 0.44045 0.51058 0.77361 0.0
O241 O 0.41566 0.59777 0.77965 0.0
C242 C 0.45726 0.55723 0.82727 0.0
O243 O 0.44187 0.53757 0.82197 0.0
C244 C 0.45703 0.55367 0.72456 0.0
O245 O 0.44099 0.53448 0.71959 0.0
O246 O 0.41337 0.53139 0.77289 0.0
C247 C 0.71688 0.01897 0.77697 0.0
O248 O 0.6965 0.02067 0.78271 0.0
O249 O 0.69317 0.04327 0.7185 0.0
Zn250 Zn 0.71295 0.05535 0.74986 0.0
O251 O 0.69394 0.06919 0.77388 0.0
C252 C 0.74611 0.08904 0.72969 0.0
O253 O 0.73604 0.07939 0.70785 0.0
O254 O 0.72595 0.03083 0.76228 0.0
C255 C 0.70102 0.07616 0.7962 0.0
O256 O 0.72126 0.07394 0.80399 0.0
C257 C 0.68536 0.05909 0.71047 0.0
O258 O 0.69132 0.08103 0.72239 0.0
O259 O 0.73899 0.08134 0.74791 0.0
C260 C 0.81726 0.67141 0.98297 0.0
O261 O 0.80442 0.67234 0.96368 0.0
O262 O 0.79108 0.72168 0.03835 0.0
Zn263 Zn 0.78866 0.70036 1.00508 0.0
O264 O 0.79183 0.71925 0.97854 0.0
C265 C 0.74167 0.67966 1.00944 0.0
O266 O 0.74288 0.6993 0.0253 0.0
O267 O 0.81373 0.68219 1.00358 0.0
C268 C 0.81155 0.73103 0.97746 0.0
O269 O 0.82778 0.73143 0.99425 0.0
C270 C 0.80047 0.71699 0.05714 0.0
O271 O 0.80915 0.69811 0.0549 0.0
O272 O 0.7589 0.67661 0.99852 0.0
C273 C 0.88676 0.58142 0.75808 0.0
O274 O 0.90357 0.57624 0.74606 0.0
O275 O 0.9158 0.53727 0.75806 0.0
Zn276 Zn 0.89867 0.54857 0.78521 0.0
O277 O 0.92068 0.56091 0.81491 0.0
C278 C 0.86688 0.51909 0.8091 0.0
O279 O 0.87032 0.53743 0.8271 0.0
O280 O 0.8821 0.57232 0.77628 0.0
C281 C 0.94102 0.57065 0.8133 0.0
O282 O 0.94678 0.5749 0.7923 0.0
C283 C 0.92455 0.51938 0.75752 0.0
O284 O 0.92199 0.50768 0.77507 0.0
O285 O 0.8767 0.52059 0.79012 0.0
C286 C 0.75342 0.48578 0.5094 0.0
O287 O 0.74895 0.46269 0.50549 0.0
O288 O 0.80425 0.46842 0.54133 0.0
Zn289 Zn 0.80239 0.48039 0.51 0.0
O290 O 0.80127 0.45223 0.4821 0.0
C291 C 0.85168 0.49404 0.51481 0.0
O292 O 0.84858 0.47369 0.52157 0.0
O293 O 0.77415 0.49669 0.5106 0.0
C294 C 0.78934 0.44299 0.46194 0.0
O295 O 0.77219 0.45186 0.45539 0.0
C296 C 0.79795 0.44679 0.54213 0.0
O297 O 0.78934 0.43153 0.52209 0.0
O298 O 0.83415 0.50194 0.50934 0.0
C299 C 0.71027 0.47399 0.28166 0.0
O300 O 0.68888 0.46415 0.2818 0.0
O301 O 0.66896 0.52174 0.25085 0.0
Zn302 Zn 0.69358 0.52627 0.28379 0.0
O303 O 0.67494 0.53096 0.31759 0.0
C304 C 0.73176 0.57786 0.29073 0.0
O305 O 0.74763 0.57105 0.30284 0.0
O306 O 0.71504 0.49678 0.28221 0.0
C307 C 0.66578 0.51801 0.33212 0.0
O308 O 0.66662 0.49562 0.32757 0.0
C309 C 0.67265 0.52346 0.22878 0.0
O310 O 0.69367 0.52602 0.22344 0.0
O311 O 0.71265 0.56293 0.28341 0.0
Eu312 Eu 0.07291 0.07514 0.03527 0.0
Eu313 Eu 0.0505 0.01937 0.02309 0.0
C314 C 0.08037 0.04256 0.98217 0.0
C315 C 0.07945 0.14034 0.0562 0.0
C316 C 0.05675 0.13666 0.06115 0.0
C317 C 0.08118 0.18224 0.06269 0.0
C318 C 0.04599 0.15562 0.06562 0.0
C319 C 0.09188 0.16325 0.05803 0.0
C320 C 0.05786 0.17843 0.06528 0.0
C321 C 0.08905 0.12034 0.04579 0.0
O322 O 0.08798 0.01961 0.03142 0.0
O323 O 0.10333 0.05926 0.04148 0.0
C324 C 0.10566 0.03728 0.03738 0.0
O325 O 0.05831 0.06968 0.07106 0.0
O326 O 0.03101 0.98827 0.99772 0.0
O327 O 0.04266 0.98585 0.03419 0.0
O328 O 0.03951 0.03109 0.0614 0.0
C329 C 0.04453 0.05166 0.07682 0.0
O330 O 0.03518 0.0747 0.02875 0.0
O331 O 0.02036 0.0353 0.01543 0.0
O332 O 0.06751 0.02422 0.98841 0.0
O333 O 0.09268 0.10632 0.0602 0.0
O334 O 0.07934 0.10891 0.02442 0.0
O335 O 0.08377 0.06358 0.99674 0.0
C336 C 0.04094 0.95292 1.00334 0.0
C337 C 0.06418 0.95302 1.00443 0.0
C338 C 0.03241 0.91042 0.99206 0.0
C339 C 0.07148 0.9318 1.0007 0.0
C340 C 0.02513 0.93165 0.99601 0.0
C341 C 0.05559 0.91029 0.99577 0.0
C342 C 0.03311 0.9744 0.01276 0.0
C343 C 0.01768 0.05708 0.02135 0.0
H344 H 0.04696 0.11901 0.0599 0.0
H345 H 0.09069 0.19957 0.062 0.0
H346 H 0.02803 0.15226 0.06757 0.0
H347 H 0.10941 0.1663 0.05423 0.0
H348 H 0.07661 0.96941 1.00987 0.0
H349 H 0.01983 0.89409 0.9879 0.0
H350 H 0.08944 0.93231 1.00381 0.0
H351 H 1.00713 0.93136 0.99485 0.0
Eu352 Eu 0.31595 0.79706 0.25728 0.0
Eu353 Eu 0.28973 0.77823 0.30204 0.0
C354 C 0.26243 0.79411 0.25966 0.0
C355 C 0.32889 0.82742 0.20472 0.0
C356 C 0.30705 0.83195 0.20216 0.0
C357 C 0.34033 0.85126 0.17532 0.0
C358 C 0.30184 0.84598 0.18616 0.0
C359 C 0.34548 0.83718 0.19127 0.0
C360 C 0.31842 0.8558 0.17252 0.0
C361 C 0.33454 0.81268 0.22143 0.0
O362 O 0.28089 0.75033 0.26796 0.0
O363 O 0.31453 0.75825 0.25227 0.0
C364 C 0.29597 0.74344 0.25427 0.0
O365 O 0.34403 0.79665 0.28493 0.0
O366 O 0.27494 0.74838 0.31741 0.0
O367 O 0.27416 0.78371 0.33586 0.0
O368 O 0.32503 0.77206 0.30757 0.0
C369 C 0.34384 0.7835 0.30123 0.0
O370 O 0.30664 0.82792 0.28116 0.0
O371 O 0.30906 0.81516 0.31683 0.0
O372 O 0.2643 0.79356 0.28283 0.0
O373 O 0.33995 0.82326 0.24408 0.0
O374 O 0.32097 0.79215 0.21901 0.0
O375 O 0.27874 0.79093 0.246 0.0
C376 C 0.27937 0.75605 0.35969 0.0
C377 C 0.30217 0.76458 0.36901 0.0
C378 C 0.27405 0.73304 0.39089 0.0
C379 C 0.31092 0.7572 0.38905 0.0
C380 C 0.26533 0.74047 0.37088 0.0
C381 C 0.29703 0.74108 0.40003 0.0
C382 C 0.27069 0.76152 0.33708 0.0
C383 C 0.30921 0.83206 0.30487 0.0
H384 H 0.29402 0.82458 0.21248 0.0
H385 H 0.3536 0.85884 0.16542 0.0
H386 H 0.28477 0.84891 0.18429 0.0
H387 H 0.36246 0.83396 0.19316 0.0
H388 H 0.31329 0.77653 0.36044 0.0
H389 H 0.26296 0.72031 0.39859 0.0
H390 H 0.3286 0.7639 0.39578 0.0
H391 H 0.24777 0.73349 0.36371 0.0
Eu392 Eu 0.58773 0.06201 0.51211 0.0
Eu393 Eu 0.54306 0.07029 0.54072 0.0
C394 C 0.58529 0.05863 0.56797 0.0
C395 C 0.64124 0.04095 0.49916 0.0
C396 C 0.64307 0.03555 0.52224 0.0
C397 C 0.67083 0.01983 0.4879 0.0
C398 C 0.65868 0.02243 0.52813 0.0
C399 C 0.65523 0.03307 0.48205 0.0
C400 C 0.67266 1.01424 0.51099 0.0
C401 C 0.62424 0.0541 0.49282 0.0
O402 O 0.5705 0.10314 0.55087 0.0
O403 O 0.5865 0.10016 0.51529 0.0
C404 C 0.58174 0.11298 0.53508 0.0
O405 O 0.55985 0.06065 0.48302 0.0
O406 O 0.52718 0.0913 0.56795 0.0
O407 O 0.50713 0.0598 0.54474 0.0
O408 O 0.53917 0.08316 0.50619 0.0
C409 C 0.54433 0.07346 0.48504 0.0
O410 O 0.57051 0.02672 0.51835 0.0
O411 O 0.53465 0.03355 0.51825 0.0
O412 O 0.56308 0.05383 0.56492 0.0
O413 O 0.60402 0.04145 0.48494 0.0
O414 O 0.62365 0.07315 0.50851 0.0
O415 O 0.59751 0.06752 0.55224 0.0
C416 C 0.49016 0.09224 0.55294 0.0
C417 C 0.46828 0.08807 0.56018 0.0
C418 C 0.4788 0.11766 0.52748 0.0
C419 C 0.45165 0.09848 0.55093 0.0
C420 C 0.49539 0.10734 0.53678 0.0
C421 C 0.45663 0.11305 0.53412 0.0
C422 C 0.50681 0.07906 0.56012 0.0
C423 C 0.5485 0.01899 0.51586 0.0
H424 H 0.63233 0.0414 0.5357 0.0
H425 H 0.68112 1.01357 0.47417 0.0
H426 H 0.65985 0.01881 0.54619 0.0
H427 H 0.65391 0.03694 0.46409 0.0
H428 H 0.46389 0.07625 0.57242 0.0
H429 H 0.48329 0.12906 0.51485 0.0
H430 H 0.43469 0.0944 0.55623 0.0
H431 H 0.51217 0.11069 0.53087 0.0
Eu432 Eu 0.28918 0.30216 0.77319 0.0
Eu433 Eu 0.33871 0.29137 0.78014 0.0
C434 C 0.29385 0.24973 0.78097 0.0
C435 C 0.22791 0.30433 0.78154 0.0
C436 C 0.23002 0.30773 0.80693 0.0
C437 C 0.18753 0.28927 0.78056 0.0
C438 C 0.21096 0.30202 0.81904 0.0
C439 C 0.20654 0.29521 0.76848 0.0
C440 C 0.18959 0.29251 0.80594 0.0
C441 C 0.2479 0.30893 0.76837 0.0
O442 O 0.3347 0.29671 0.74202 0.0
O443 O 0.2963 0.2863 0.7354 0.0
C444 C 0.31614 0.28983 0.72711 0.0
O445 O 0.31197 0.33573 0.76631 0.0
O446 O 0.36263 0.26967 0.76798 0.0
O447 O 0.37268 0.29852 0.79908 0.0
O448 O 0.34626 0.33199 0.78295 0.0
C449 C 0.33352 0.34505 0.7742 0.0
O450 O 0.30071 0.31591 0.8131 0.0
O451 O 0.32696 0.29357 0.81728 0.0
O452 O 0.31442 0.25447 0.77392 0.0
O453 O 0.2651 0.32508 0.77966 0.0
O454 O 0.25411 0.29034 0.75692 0.0
O455 O 0.28303 0.2671 0.78622 0.0
C456 C 0.39971 0.29156 0.77209 0.0
C457 C 0.4006 0.31059 0.7604 0.0
C458 C 0.43614 0.28666 0.75907 0.0
C459 C 0.41911 0.31753 0.74797 0.0
C460 C 0.41765 0.27978 0.77157 0.0
C461 C 0.43692 0.30541 0.74688 0.0
C462 C 0.37936 0.28293 0.78318 0.0
C463 C 0.31395 0.30735 0.82679 0.0
H464 H 0.24642 0.31446 0.81739 0.0
H465 H 0.1712 0.28218 0.77006 0.0
H466 H 0.21303 0.30448 0.83859 0.0
H467 H 0.20462 0.29237 0.74889 0.0
H468 H 0.38672 0.31971 0.76041 0.0
H469 H 0.44976 0.27718 0.75878 0.0
H470 H 0.4191 0.33186 0.73855 0.0
H471 H 0.41713 0.26499 0.78042 0.0
Eu472 Eu 0.06051 0.07633 0.54637 0.0
Eu473 Eu 0.06774 0.02537 0.52047 0.0
C474 C 0.10445 0.07146 0.5181 0.0
C475 C 0.06668 0.14053 0.55526 0.0
C476 C 0.07379 0.13768 0.53197 0.0
C477 C 0.07703 0.18293 0.55943 0.0
C478 C 0.08202 0.1572 0.52227 0.0
C479 C 0.0685 0.16323 0.56909 0.0
C480 C 0.08358 0.17999 0.53582 0.0
C481 C 0.05824 0.11951 0.56489 0.0
O482 O 0.08804 0.03292 0.55852 0.0
O483 O 0.06932 0.05949 0.57833 0.0
C484 C 0.08342 0.04506 0.57912 0.0
O485 O 0.02646 0.05284 0.54508 0.0
O486 O 0.0879 0.99829 0.51463 0.0
O487 O 0.0539 0.99133 0.49675 0.0
O488 O 0.03802 0.01803 0.54208 0.0
C489 C 0.02244 0.03049 0.54592 0.0
O490 O 0.05245 0.07552 0.50576 0.0
O491 O 0.04621 0.03595 0.49047 0.0
O492 O 0.09454 0.0502 0.50639 0.0
O493 O 0.04149 0.10433 0.55145 0.0
O494 O 0.07392 0.10938 0.57221 0.0
O495 O 0.09618 0.0821 0.53681 0.0
C496 C 0.06465 0.96032 0.51225 0.0
C497 C 0.04337 0.94521 0.50458 0.0
C498 C 0.07146 0.93641 0.54148 0.0
C499 C 0.03592 0.92642 0.51577 0.0
C500 C 0.07886 0.95534 0.5304 0.0
C501 C 0.04969 0.92211 0.53468 0.0
C502 C 0.07081 0.98221 0.50287 0.0
C503 C 0.04453 0.05731 0.48772 0.0
H504 H 0.073 0.12029 0.52123 0.0
H505 H 0.07811 0.20038 0.57017 0.0
H506 H 0.08732 0.15448 0.5042 0.0
H507 H 0.06334 0.16569 0.58722 0.0
H508 H 0.0321 0.9484 0.49046 0.0
H509 H 0.08242 0.93356 0.55607 0.0
H510 H 0.01922 0.91544 0.50986 0.0
H511 H 0.0954 0.96654 0.53668 0.0
Eu512 Eu 0.34129 0.81316 0.77706 0.0
Eu513 Eu 0.29298 0.78469 0.78632 0.0
C514 C 0.32223 0.82185 0.82872 0.0
C515 C 0.40213 0.82448 0.76663 0.0
C516 C 0.42359 0.83942 0.77011 0.0
C517 C 0.41965 0.79064 0.76376 0.0
C518 C 0.44303 0.83003 0.77101 0.0
C519 C 0.40027 0.8 0.76235 0.0
C520 C 0.44111 0.80566 0.76889 0.0
C521 C 0.38207 0.8342 0.77189 0.0
O522 O 0.28501 0.82127 0.7829 0.0
O523 O 0.31749 0.83812 0.76859 0.0
C524 C 0.29681 0.8393 0.77501 0.0
O525 O 0.33058 0.78529 0.74324 0.0
O526 O 0.26421 0.78302 0.8077 0.0
O527 O 0.26526 0.7538 0.77879 0.0
O528 O 0.29244 0.77643 0.74548 0.0
C529 C 0.31017 0.77424 0.7337 0.0
O530 O 0.35039 0.77852 0.78583 0.0
O531 O 0.31499 0.75658 0.78678 0.0
O532 O 0.31253 0.7995 0.82307 0.0
O533 O 0.36539 0.82892 0.75453 0.0
O534 O 0.37515 0.83159 0.79282 0.0
O535 O 0.33176 0.83191 0.81221 0.0
C536 C 0.22989 0.76263 0.78524 0.0
C537 C 0.22567 0.77779 0.76999 0.0
C538 C 0.18988 0.74482 0.78057 0.0
C539 C 0.20367 0.77632 0.75987 0.0
C540 C 0.21191 0.74635 0.79072 0.0
C541 C 0.18559 0.75958 0.76479 0.0
C542 C 0.25311 0.76308 0.79453 0.0
C543 C 0.33716 0.75791 0.78661 0.0
H544 H 0.42529 0.85835 0.77365 0.0
H545 H 0.41785 0.77182 0.76215 0.0
H546 H 0.45946 0.84191 0.77526 0.0
H547 H 0.38382 0.7882 0.75955 0.0
H548 H 0.23948 0.7904 0.76551 0.0
H549 H 0.17623 0.73195 0.78489 0.0
H550 H 0.20093 0.78772 0.74755 0.0
H551 H 0.21496 0.73456 0.80251 0.0
Eu552 Eu 0.56203 0.03185 0.05956 0.0
Eu553 Eu 0.5604 0.05885 0.01453 0.0
C554 C 0.55669 0.08543 0.06832 0.0
C555 C 0.54779 1.00543 0.11424 0.0
C556 C 0.5298 0.01703 0.11751 0.0
C557 C 0.53674 0.98485 0.14622 0.0
C558 C 0.51524 1.01246 0.13497 0.0
C559 C 0.5513 0.98944 0.12872 0.0
C560 C 0.51846 0.99619 0.1494 0.0
C561 C 0.56194 1.00873 0.09467 0.0
O562 O 0.59781 0.06804 0.02982 0.0
O563 O 0.59785 0.0373 0.04915 0.0
C564 C 0.60885 0.05472 0.04024 0.0
O565 O 0.55503 1.00425 0.02501 0.0
O566 O 0.56675 0.09128 1.00094 0.0
O567 O 0.54994 0.05849 0.97676 0.0
O568 O 0.57278 0.02624 1.00005 0.0
C569 C 0.56499 1.00577 1.00531 0.0
O570 O 0.52599 0.03696 0.05517 0.0
O571 O 0.52422 0.0384 0.01495 0.0
O572 O 0.54884 0.08154 0.04549 0.0
O573 O 0.55182 0.99967 0.07296 0.0
O574 O 0.57414 0.02981 0.0962 0.0
O575 O 0.5666 0.07035 0.07687 0.0
C576 C 0.57354 0.08638 0.95974 0.0
C577 C 0.56368 0.08234 0.93582 0.0
C578 C 0.61033 0.09997 0.94663 0.0
C579 C 0.57705 0.08679 0.91734 0.0
C580 C 0.59697 0.0953 0.96507 0.0
C581 C 0.60055 0.09557 0.92251 0.0
C582 C 0.55917 0.0807 0.97866 0.0
C583 C 0.51408 0.03558 0.03446 0.0
H584 H 0.52677 0.02926 0.10624 0.0
H585 H 0.53979 0.97245 0.15727 0.0
H586 H 0.50114 0.02124 0.13676 0.0
H587 H 0.56509 0.98028 0.12627 0.0
H588 H 0.54565 0.07535 0.93136 0.0
H589 H 0.62833 0.10696 0.95127 0.0
H590 H 0.56901 0.08273 0.89893 0.0
H591 H 0.60501 0.09849 0.98342 0.0
Eu592 Eu 0.33169 0.3319 0.29021 0.0
Eu593 Eu 0.30034 0.27916 0.26982 0.0
C594 C 0.30575 0.31713 0.23669 0.0
C595 C 0.35629 0.39396 0.28892 0.0
C596 C 0.36389 0.39396 0.26587 0.0
C597 C 0.33656 0.42486 0.28359 0.0
C598 C 0.35678 0.40836 0.25132 0.0
C599 C 0.34384 0.41068 0.29822 0.0
C600 C 0.34197 0.42283 0.25962 0.0
C601 C 0.35721 0.37398 0.30092 0.0
O602 O 0.33513 0.27933 0.25776 0.0
O603 O 0.35419 0.30608 0.29035 0.0
C604 C 0.354 0.28929 0.27162 0.0
O605 O 0.32524 0.31734 0.32372 0.0
O606 O 0.28782 0.25038 0.23883 0.0
O607 O 0.27667 0.24763 0.27393 0.0
O608 O 0.31577 0.27762 0.30701 0.0
C609 C 0.32129 0.29521 0.32596 0.0
O610 O 0.29586 0.33739 0.29016 0.0
O611 O 0.27829 0.29957 0.29114 0.0
O612 O 0.29088 0.30179 0.24458 0.0
O613 O 0.33976 0.36744 0.31237 0.0
O614 O 0.36336 0.35597 0.28805 0.0
O615 O 0.3252 0.32701 0.24957 0.0
C616 C 0.28224 0.21338 0.24913 0.0
C617 C 0.30467 0.21134 0.25396 0.0
C618 C 0.26997 0.17095 0.24206 0.0
C619 C 0.30973 0.18926 0.25306 0.0
C620 C 0.26492 0.19314 0.24294 0.0
C621 C 0.29241 0.16884 0.24735 0.0
C622 C 0.27694 0.2367 0.25172 0.0
C623 C 0.27855 0.32216 0.29461 0.0
H624 H 0.3738 0.38153 0.25826 0.0
H625 H 0.32536 0.43622 0.29039 0.0
H626 H 0.36127 0.40669 0.23293 0.0
H627 H 0.33804 0.41138 0.31602 0.0
H628 H 0.3182 0.22689 0.25898 0.0
H629 H 0.25633 0.1555 0.23753 0.0
H630 H 0.32711 0.18828 0.25772 0.0
H631 H 0.24751 0.19453 0.23921 0.0
Eu632 Eu 0.55644 0.57156 0.0467 0.0
Eu633 Eu 0.56548 0.52172 0.01982 0.0
C634 C 0.60059 0.56908 0.01918 0.0
C635 C 0.56118 0.63621 0.05805 0.0
C636 C 0.57338 0.63573 0.03776 0.0
C637 C 0.56547 0.67846 0.06252 0.0
C638 C 0.58139 0.6564 0.02977 0.0
C639 C 0.55737 0.65766 0.0705 0.0
C640 C 0.57738 0.67797 0.04192 0.0
C641 C 0.55254 0.61414 0.06578 0.0
O642 O 0.58538 0.5292 0.05812 0.0
O643 O 0.56552 0.5544 0.07829 0.0
C644 C 0.58016 0.54052 0.07885 0.0
O645 O 0.52324 0.54679 0.0465 0.0
O646 O 0.58901 0.49858 1.01071 0.0
O647 O 0.5533 0.48606 0.99866 0.0
O648 O 0.53549 0.51211 0.04038 0.0
C649 C 0.51986 0.52414 0.046 0.0
O650 O 0.54908 0.57127 1.00605 0.0
O651 O 0.54333 0.53186 0.99003 0.0
O652 O 0.59023 0.54866 1.00596 0.0
O653 O 0.53687 0.59912 0.05067 0.0
O654 O 0.56804 0.60411 0.07371 0.0
O655 O 0.59271 0.57807 0.03896 0.0
C656 C 0.5728 0.4595 1.01184 0.0
C657 C 0.56887 0.46043 0.03613 0.0
C658 C 0.57586 0.41872 1.00801 0.0
C659 C 0.56842 0.44066 0.04632 0.0
C660 C 0.5763 0.43858 0.99781 0.0
C661 C 0.57184 0.41954 0.03238 0.0
C662 C 0.57291 0.48035 1.00132 0.0
C663 C 0.54147 0.55329 0.98766 0.0
H664 H 0.5766 0.61929 0.02801 0.0
H665 H 0.56198 0.69481 0.07213 0.0
H666 H 0.5908 0.65549 0.01408 0.0
H667 H 0.548 0.65829 0.08621 0.0
H668 H 0.56616 0.47649 0.04723 0.0
H669 H 0.57836 0.40266 0.99675 0.0
H670 H 0.56567 0.44203 0.06523 0.0
H671 H 0.57928 0.43759 0.97899 0.0
Eu672 Eu 0.84174 0.31308 0.28265 0.0
Eu673 Eu 0.79159 0.28257 0.28067 0.0
C674 C 0.8151 0.31964 0.32921 0.0
C675 C 0.90371 0.32717 0.27697 0.0
C676 C 0.92494 0.33911 0.28882 0.0
C677 C 0.92016 0.29436 0.25946 0.0
C678 C 0.94355 0.32846 0.28665 0.0
C679 C 0.90153 0.30501 0.26171 0.0
C680 C 0.9412 0.30561 0.2726 0.0
C681 C 0.88344 0.33579 0.28386 0.0
O682 O 0.78391 0.31793 0.27272 0.0
O683 O 0.81946 0.34132 0.28267 0.0
C684 C 0.79726 0.33933 0.27745 0.0
O685 O 0.83227 0.29735 0.24298 0.0
O686 O 0.76738 0.26238 0.29973 0.0
O687 O 0.75778 0.26604 0.26308 0.0
O688 O 0.80248 0.26752 0.24459 0.0
C689 C 0.81855 0.27731 0.23299 0.0
O690 O 0.84891 0.27541 0.28069 0.0
O691 O 0.81456 0.25701 0.28957 0.0
O692 O 0.79639 0.31017 0.31504 0.0
O693 O 0.86778 0.33447 0.26639 0.0
O694 O 0.87506 0.32833 0.3023 0.0
O695 O 0.8347 0.31725 0.3218 0.0
C696 C 0.73096 0.26844 0.29075 0.0
C697 C 0.71043 0.25275 0.29072 0.0
C698 C 0.71267 0.30139 0.30145 0.0
C699 C 0.69093 0.26135 0.29552 0.0
C700 C 0.73216 0.2928 0.29693 0.0
C701 C 0.69179 0.28573 0.30016 0.0
C702 C 0.7508 0.25974 0.28276 0.0
C703 C 0.83589 0.25634 0.28543 0.0
H704 H 0.92682 0.35605 0.30094 0.0
H705 H 0.91782 0.27687 0.24834 0.0
H706 H 0.95936 0.33751 0.29738 0.0
H707 H 0.88516 0.29539 0.25259 0.0
H708 H 0.7093 0.23392 0.28602 0.0
H709 H 0.71371 0.32023 0.30496 0.0
H710 H 0.67493 0.24893 0.29409 0.0
H711 H 0.748 0.30515 0.29725 0.0
Eu712 Eu 0.06606 0.54499 0.53377 0.0
Eu713 Eu 0.06335 0.55884 0.48081 0.0
C714 C 0.0566 0.59503 0.5277 0.0
C715 C 0.05355 0.52754 0.59384 0.0
C716 C 0.03061 0.52833 0.59025 0.0
C717 C 0.04749 0.5158 0.63208 0.0
C718 C 0.01613 0.52282 0.60751 0.0
C719 C 0.06194 0.5213 0.61479 0.0
C720 C 0.02443 0.51645 0.62859 0.0
C721 C 0.0686 0.53199 0.5753 0.0
O722 O 0.09928 0.55409 0.489 0.0
O723 O 0.10152 0.56446 0.5301 0.0
C724 C 0.11154 0.56135 0.51015 0.0
O725 O 0.07568 0.51593 0.50732 0.0
O726 O 0.0769 0.5824 0.45745 0.0
O727 O 0.04939 0.55262 0.44304 0.0
O728 O 0.0547 0.51952 0.47394 0.0
C729 C 0.0652 0.50698 0.48561 0.0
O730 O 0.02853 0.53346 0.51954 0.0
O731 O 0.02747 0.55654 0.49116 0.0
O732 O 0.06693 0.59254 0.50802 0.0
O733 O 0.06309 0.51736 0.55449 0.0
O734 O 0.07463 0.55382 0.573 0.0
O735 O 0.05172 0.57775 0.53928 0.0
C736 C 0.07742 0.56246 0.41774 0.0
C737 C 0.09026 0.54522 0.41843 0.0
C738 C 0.09076 0.56791 0.37929 0.0
C739 C 0.10333 0.53938 0.39966 0.0
C740 C 0.07765 0.57371 0.39807 0.0
C741 C 0.10385 0.55078 0.37996 0.0
C742 C 0.06466 0.56939 0.43805 0.0
C743 C 0.01703 0.54306 0.50493 0.0
H744 H 0.02388 0.53294 0.57398 0.0
H745 H 0.05443 0.51132 0.6483 0.0
H746 H 0.9984 0.52324 0.60423 0.0
H747 H 0.07963 0.52056 0.6177 0.0
H748 H 0.09039 0.53651 0.43365 0.0
H749 H 0.0906 0.57679 0.36421 0.0
H750 H 0.11343 0.52634 0.40086 0.0
H751 H 0.06786 0.5871 0.39734 0.0
Eu752 Eu 0.78585 0.80353 0.27855 0.0
Eu753 Eu 0.83532 0.79155 0.28269 0.0
C754 C 0.78975 0.74914 0.28061 0.0
C755 C 0.72572 0.80757 0.29095 0.0
C756 C 0.72802 0.80238 0.3141 0.0
C757 C 0.68517 0.80269 0.29266 0.0
C758 C 0.70906 0.79778 0.32663 0.0
C759 C 0.70419 0.80751 0.28023 0.0
C760 C 0.68746 0.79802 0.31608 0.0
C761 C 0.74571 0.81356 0.27814 0.0
O762 O 0.82304 0.77946 0.24292 0.0
O763 O 0.79649 0.80198 0.24094 0.0
C764 C 0.80927 0.78843 0.23032 0.0
O765 O 0.80996 0.83977 0.28386 0.0
O766 O 0.85646 0.76617 0.28645 0.0
O767 O 0.87218 0.80217 0.28661 0.0
O768 O 0.84309 0.82912 0.27423 0.0
C769 C 0.83107 0.84564 0.27871 0.0
O770 O 0.79223 0.79834 0.31669 0.0
O771 O 0.83058 0.80972 0.32019 0.0
O772 O 0.81145 0.75752 0.28867 0.0
O773 O 0.76361 0.82683 0.2915 0.0
O774 O 0.75061 0.79639 0.26268 0.0
O775 O 0.7778 0.76321 0.27273 0.0
C776 C 0.89117 0.77282 0.26996 0.0
C777 C 0.88977 0.77538 0.24578 0.0
C778 C 0.92345 0.75468 0.26343 0.0
C779 C 0.90538 0.76791 0.23057 0.0
C780 C 0.90795 0.76228 0.27864 0.0
C781 C 0.92244 0.75758 0.2393 0.0
C782 C 0.87534 0.78103 0.28639 0.0
C783 C 0.81161 0.80638 0.33015 0.0
H784 H 0.74452 0.80213 0.32261 0.0
H785 H 0.66874 0.80318 0.28419 0.0
H786 H 0.71126 0.79398 0.34453 0.0
H787 H 0.70213 0.81146 0.26237 0.0
H788 H 0.87674 0.7833 0.23874 0.0
H789 H 0.93658 0.74705 0.27073 0.0
H790 H 0.9041 0.77016 0.21199 0.0
H791 H 0.90919 0.76014 0.29726 0.0
Eu792 Eu 0.81313 0.30595 0.76047 0.0
Eu793 Eu 0.79755 0.30159 0.81511 0.0
C794 C 0.76285 0.3075 0.77298 0.0
C795 C 0.82206 0.32916 0.70275 0.0
C796 C 0.81355 0.34917 0.71166 0.0
C797 C 0.82601 0.34172 0.6645 0.0
C798 C 0.81127 0.36538 0.69703 0.0
C799 C 0.8283 0.32556 0.67914 0.0
C800 C 0.8174 0.3618 0.67323 0.0
C801 C 0.82409 0.31174 0.71773 0.0
O802 O 0.80352 0.26623 0.79798 0.0
O803 O 0.79676 0.26779 0.75796 0.0
C804 C 0.79905 0.25589 0.77505 0.0
O805 O 0.84024 0.29186 0.77841 0.0
O806 O 0.7743 0.28459 0.83744 0.0
O807 O 0.80277 0.31242 0.85451 0.0
O808 O 0.83555 0.30726 0.81764 0.0
C809 C 0.84726 0.29714 0.80163 0.0
O810 O 0.82467 0.34144 0.78509 0.0
O811 O 0.79867 0.33924 0.81279 0.0
O812 O 0.76567 0.29587 0.79012 0.0
O813 O 0.83807 0.31919 0.73748 0.0
O814 O 0.80506 0.29872 0.72127 0.0
O815 O 0.78007 0.3175 0.76299 0.0
C816 C 0.79252 0.28045 0.87364 0.0
C817 C 0.80869 0.2669 0.86755 0.0
C818 C 0.78628 0.26293 0.90875 0.0
C819 C 0.81356 0.25136 0.88193 0.0
C820 C 0.78139 0.27845 0.89431 0.0
C821 C 0.80239 0.24913 0.90269 0.0
C822 C 0.78642 0.29566 0.8577 0.0
C823 C 0.81338 0.35154 0.80156 0.0
H824 H 0.80854 0.35215 0.72985 0.0
H825 H 0.83119 0.33859 0.64641 0.0
H826 H 0.80435 0.3805 0.70421 0.0
H827 H 0.83492 0.3102 0.67201 0.0
H828 H 0.81738 0.26817 0.85153 0.0
H829 H 0.77704 0.26137 0.92433 0.0
H830 H 0.82613 0.24116 0.8768 0.0
H831 H 0.76868 0.28863 0.89908 0.0
Eu832 Eu 0.83504 0.84057 0.80596 0.0
Eu833 Eu 0.79919 0.79378 0.77537 0.0
C834 C 0.81814 0.83693 0.75043 0.0
C835 C 0.85353 0.90386 0.83348 0.0
C836 C 0.84998 0.91378 0.81321 0.0
C837 C 0.83507 0.93208 0.85713 0.0
C838 C 0.83801 0.93173 0.81456 0.0
C839 C 0.8471 0.91406 0.85578 0.0
C840 C 0.82941 0.94023 0.83622 0.0
C841 C 0.85921 0.8804 0.83031 0.0
O842 O 0.8324 0.78234 0.77525 0.0
O843 O 0.85686 0.81873 0.78554 0.0
C844 C 0.85269 0.79584 0.77722 0.0
O845 O 0.83909 0.81207 0.82566 0.0
O846 O 0.78565 0.76867 0.74184 0.0
O847 O 0.76866 0.76668 0.7741 0.0
O848 O 0.80337 0.78952 0.81456 0.0
C849 C 0.82227 0.79592 0.8293 0.0
O850 O 0.80043 0.84016 0.8186 0.0
O851 O 0.78035 0.82298 0.78224 0.0
O852 O 0.81331 0.81397 0.74778 0.0
O853 O 0.84625 0.86536 0.84033 0.0
O854 O 0.8628 0.8709 0.80849 0.0
O855 O 0.82181 0.85065 0.77205 0.0
C856 C 0.77228 0.73122 0.74882 0.0
C857 C 0.7819 0.72297 0.7679 0.0
C858 C 0.77588 0.69599 0.72079 0.0
C859 C 0.78913 0.70179 0.76333 0.0
C860 C 0.7685 0.71718 0.72541 0.0
C861 C 0.78704 0.68858 0.73957 0.0
C862 C 0.77067 0.756 0.75218 0.0
C863 C 0.78191 0.83613 0.80382 0.0
H864 H 0.85477 0.90645 0.79574 0.0
H865 H 0.82905 0.93863 0.87418 0.0
H866 H 0.83388 0.93744 0.79803 0.0
H867 H 0.84979 0.90684 0.87172 0.0
H868 H 0.78536 0.73364 0.78606 0.0
H869 H 0.77391 0.68602 0.70236 0.0
H870 H 0.79794 0.69674 0.77814 0.0
H871 H 0.76129 0.72338 0.71043 0.0
Eu872 Eu 0.57579 0.57748 0.53768 0.0
Eu873 Eu 0.55445 0.52162 0.52303 0.0
C874 C 0.5838 0.54738 0.48381 0.0
C875 C 0.5816 0.64299 0.55893 0.0
C876 C 0.5604 0.63954 0.56792 0.0
C877 C 0.58043 0.68371 0.55979 0.0
C878 C 0.54889 0.65799 0.57206 0.0
C879 C 0.59192 0.66534 0.55583 0.0
C880 C 0.55835 0.68001 0.56695 0.0
C881 C 0.59111 0.62286 0.5487 0.0
O882 O 0.5918 0.52248 0.53317 0.0
O883 O 0.60706 0.56213 0.54093 0.0
C884 C 0.60948 0.5402 0.53775 0.0
O885 O 0.56234 0.56999 0.57322 0.0
O886 O 0.53643 0.49094 0.49619 0.0
O887 O 0.54677 0.48719 0.5325 0.0
O888 O 0.54174 0.53223 0.56095 0.0
C889 C 0.54751 0.55203 0.57763 0.0
O890 O 0.53789 0.57589 0.53307 0.0
O891 O 0.52469 0.53761 0.51339 0.0
O892 O 0.57449 0.52766 0.49034 0.0
O893 O 0.59487 0.60881 0.56305 0.0
O894 O 0.58139 0.61147 0.52737 0.0
O895 O 0.58326 0.56788 0.49781 0.0
C896 C 0.55169 0.45821 0.50055 0.0
C897 C 0.57387 0.46511 0.49469 0.0
C898 C 0.55746 0.41858 0.49854 0.0
C899 C 0.58814 0.44918 0.49219 0.0
C900 C 0.54321 0.43465 0.50138 0.0
C901 C 0.58031 0.42613 0.49518 0.0
C902 C 0.53947 0.47636 0.5102 0.0
C903 C 0.52109 0.55862 0.52238 0.0
H904 H 0.55215 0.62225 0.57027 0.0
H905 H 0.58819 0.7002 0.55521 0.0
H906 H 0.53207 0.65461 0.57785 0.0
H907 H 0.60818 0.66817 0.54866 0.0
H908 H 0.58074 0.48329 0.4941 0.0
H909 H 0.55128 0.40095 0.50141 0.0
H910 H 0.60579 0.45535 0.49004 0.0
H911 H 0.52621 0.42913 0.5061 0.0
Eu912 Eu 0.06957 0.524 0.9791 0.0
Eu913 Eu 0.02269 0.53431 1.00264 0.0
C914 C 0.06282 0.52164 0.03482 0.0
C915 C 0.12686 0.50785 0.97252 0.0
C916 C 0.13274 0.51311 0.99766 0.0
C917 C 0.15808 0.48773 0.96736 0.0
C918 C 0.1511 0.50559 1.0076 0.0
C919 C 0.1397 0.49524 0.95744 0.0
C920 C 0.16389 0.49265 0.99258 0.0
C921 C 0.10639 0.51379 0.96206 0.0
O922 O 0.04389 0.56837 0.99801 0.0
O923 O 0.07831 0.55927 1.0048 0.0
C924 C 0.06559 0.57489 1.00525 0.0
O925 O 0.05279 0.5412 0.95269 0.0
O926 O 1.00585 0.55581 0.02821 0.0
O927 O 0.98606 0.52527 1.00297 0.0
O928 O 0.01637 0.53171 0.96257 0.0
C929 C 0.03087 0.53939 0.9481 0.0
O930 O 0.04075 0.49305 0.96467 0.0
O931 O 0.0212 0.49568 0.99787 0.0
O932 O 0.04629 0.53308 0.0345 0.0
O933 O 0.08772 0.4983 0.96135 0.0
O934 O 0.10371 0.53528 0.96924 0.0
O935 O 0.07139 0.51325 0.01509 0.0
C936 C 0.96957 0.55814 0.01264 0.0
C937 C 0.95036 0.55896 0.02501 0.0
C938 C 0.9575 0.58337 0.9874 0.0
C939 C 0.9347 0.57183 0.01855 0.0
C940 C 0.97314 0.57048 0.99386 0.0
C941 C 0.93802 0.58408 0.99957 0.0
C942 C 0.98558 0.54406 0.01909 0.0
C943 C 0.02659 0.48325 0.97825 0.0
H944 H 0.12288 0.52267 1.00959 0.0
H945 H 0.16775 0.47806 0.95526 0.0
H946 H 0.15495 0.50938 0.02708 0.0
H947 H 0.13531 0.49091 0.938 0.0
H948 H 0.94735 0.54946 0.03949 0.0
H949 H 0.96072 0.59288 0.97295 0.0
H950 H 0.91974 0.57177 0.02807 0.0
H951 H 0.98796 0.57003 0.98415 0.0
H952 H 1.00053 0.22926 0.9694 0.0
H953 H 0.0404 0.29733 1.00644 0.0
H954 H 0.04576 0.28166 0.04325 0.0
H955 H 0.97611 0.2109 0.02615 0.0
H956 H 0.97834 0.18094 0.01488 0.0
H957 H 0.97195 0.19897 0.99403 0.0
H958 H 1.00626 0.19073 0.97118 0.0
H959 H 1.01244 0.17263 0.99171 0.0
H960 H 0.03395 0.19704 0.98784 0.0
H961 H 0.05515 0.25698 0.0713 0.0
H962 H 0.06813 0.22524 0.08734 0.0
H963 H 0.0212 0.17328 0.03343 0.0
C964 C 1.00968 0.24108 0.98555 0.0
C965 C 0.0201 0.26445 0.98505 0.0
C966 C 0.03224 0.27933 1.00639 0.0
C967 C 0.03521 0.27064 0.0275 0.0
C968 C 0.02559 0.24716 0.02712 0.0
C969 C 1.01275 0.23265 1.00676 0.0
C970 C 1.00736 0.2073 1.00959 0.0
C971 C 0.98192 0.19905 1.01127 0.0
C972 C 1.01552 0.191 0.98888 0.0
C973 C 0.02096 0.2095 0.03364 0.0
C974 C 0.03073 0.23274 0.0439 0.0
C975 C 0.047 0.2388 0.06396 0.0
C976 C 0.05433 0.2207 0.07294 0.0
C977 C 0.04542 0.1969 0.06179 0.0
C978 C 0.02768 0.19133 0.04282 0.0
H979 H 0.17815 0.79781 0.14826 0.0
H980 H 0.1272 0.80593 0.19797 0.0
H981 H 0.15596 0.81022 0.23245 0.0
H982 H 0.20388 0.76216 0.17669 0.0
H983 H 0.2324 0.77427 0.1714 0.0
H984 H 0.20893 0.77573 0.15099 0.0
H985 H 0.22222 0.82112 0.15792 0.0
H986 H 0.24599 0.81962 0.17804 0.0
H987 H 0.22697 0.83843 0.18835 0.0
H988 H 0.18908 0.80835 0.26091 0.0
H989 H 0.22437 0.80232 0.28105 0.0
H990 H 0.25296 0.79535 0.2122 0.0
C991 C 0.17313 0.80112 0.16641 0.0
C992 C 0.15046 0.80154 0.17043 0.0
C993 C 0.14452 0.80562 0.19447 0.0
C994 C 0.16073 0.8081 0.21418 0.0
C995 C 0.18279 0.80671 0.2095 0.0
C996 C 0.18905 0.80363 0.18621 0.0
C997 C 0.21329 0.80077 0.18578 0.0
C998 C 0.21469 0.77681 0.17031 0.0
C999 C 0.22798 0.82121 0.17701 0.0
C1000 C 0.21943 0.8019 0.21235 0.0
C1001 C 0.20177 0.80558 0.22583 0.0
C1002 C 0.20317 0.80584 0.2506 0.0
C1003 C 0.22322 0.80227 0.26185 0.0
C1004 C 0.24143 0.79836 0.24822 0.0
C1005 C 0.23944 0.79841 0.22322 0.0
H1006 H 0.54889 0.88323 0.46941 0.0
H1007 H 0.47773 0.86803 0.48095 0.0
H1008 H 0.47984 0.91024 0.49671 0.0
H1009 H 0.56709 0.92971 0.52334 0.0
H1010 H 0.58745 0.94716 0.50853 0.0
H1011 H 0.58059 0.91558 0.49893 0.0
H1012 H 0.56996 0.91973 0.45503 0.0
H1013 H 0.57672 0.95129 0.46452 0.0
H1014 H 0.54909 0.93658 0.44942 0.0
H1015 H 0.48898 0.95404 0.50902 0.0
H1016 H 0.50505 0.99674 0.51876 0.0
H1017 H 0.57052 0.98347 0.50024 0.0
C1018 C 0.53379 0.88875 0.4754 0.0
C1019 C 0.51313 0.87234 0.47392 0.0
C1020 C 0.49375 0.88028 0.48195 0.0
C1021 C 0.49477 0.90422 0.49092 0.0
C1022 C 0.51532 0.91995 0.49192 0.0
C1023 C 0.53454 0.91258 0.48456 0.0
C1024 C 0.55442 0.93319 0.48724 0.0
C1025 C 0.57351 0.93129 0.50561 0.0
C1026 C 0.56304 0.93532 0.46258 0.0
C1027 C 0.54326 0.95331 0.49691 0.0
C1028 C 0.52071 0.94527 0.49946 0.0
C1029 C 0.50666 0.96057 0.5073 0.0
C1030 C 0.51593 0.98478 0.5127 0.0
C1031 C 0.53904 0.99342 0.51034 0.0
C1032 C 0.55285 0.9774 0.50244 0.0
H1033 H 0.52819 0.27882 0.65642 0.0
H1034 H 0.55411 0.35419 0.66728 0.0
H1035 H 0.52365 0.36113 0.69309 0.0
H1036 H 0.46807 0.28051 0.65519 0.0
H1037 H 0.46195 0.25678 0.6712 0.0
H1038 H 0.48461 0.25808 0.65204 0.0
H1039 H 0.51257 0.25658 0.68816 0.0
H1040 H 0.49009 0.25553 0.70749 0.0
H1041 H 0.51544 0.27826 0.71586 0.0
H1042 H 0.49151 0.35954 0.71967 0.0
H1043 H 0.46019 0.34953 0.74444 0.0
H1044 H 0.45604 0.27526 0.71602 0.0
C1045 C 0.5273 0.29682 0.66387 0.0
C1046 C 0.54348 0.31597 0.65976 0.0
C1047 C 0.54183 0.33924 0.67012 0.0
C1048 C 0.52461 0.34336 0.6848 0.0
C1049 C 0.50921 0.32402 0.68888 0.0
C1050 C 0.51035 0.30122 0.6786 0.0
C1051 C 0.49247 0.28344 0.68663 0.0
C1052 C 0.47578 0.26885 0.66498 0.0
C1053 C 0.5033 0.26752 0.70035 0.0
C1054 C 0.48127 0.29975 0.70336 0.0
C1055 C 0.49101 0.3231 0.70431 0.0
C1056 C 0.48366 0.34132 0.71892 0.0
C1057 C 0.46586 0.33548 0.73288 0.0
C1058 C 0.45577 0.31163 0.73222 0.0
C1059 C 0.46361 0.29364 0.71717 0.0
H1060 H 0.05478 0.81527 0.6012 0.0
H1061 H 0.98604 0.81695 0.61794 0.0
H1062 H 0.98615 0.84997 0.59702 0.0
H1063 H 0.07457 0.87812 0.60939 0.0
H1064 H 0.092 0.87592 0.58475 0.0
H1065 H 0.08658 0.85251 0.60122 0.0
H1066 H 0.07105 0.82263 0.5611 0.0
H1067 H 0.07636 0.84596 0.54451 0.0
H1068 H 0.04836 0.82778 0.54191 0.0
H1069 H 0.99341 0.88227 0.57366 0.0
H1070 H 1.00786 0.91255 0.55059 0.0
H1071 H 0.07185 0.88988 0.54913 0.0
C1072 C 0.03977 0.82261 0.60055 0.0
C1073 C 0.02039 0.8135 0.61121 0.0
C1074 C 1.0011 0.82364 0.60994 0.0
C1075 C 1.00097 0.84238 0.59807 0.0
C1076 C 0.02029 0.85083 0.58762 0.0
C1077 C 0.03937 0.84136 0.58883 0.0
C1078 C 0.0579 0.85369 0.57608 0.0
C1079 C 0.07901 0.86578 0.59393 0.0
C1080 C 0.06375 0.83649 0.55463 0.0
C1081 C 0.04624 0.87155 0.5675 0.0
C1082 C 0.02453 0.86955 0.57428 0.0
C1083 C 1.01038 0.884 0.56824 0.0
C1084 C 0.01868 0.90103 0.55501 0.0
C1085 C 0.04095 0.90351 0.54802 0.0
C1086 C 0.05483 0.88852 0.55439 0.0
H1087 H 0.51921 0.77624 0.86946 0.0
H1088 H 0.57535 0.79423 0.82769 0.0
H1089 H 0.54843 0.79341 0.79282 0.0
H1090 H 0.47775 0.73831 0.81656 0.0
H1091 H 0.45485 0.74944 0.83016 0.0
H1092 H 0.47868 0.74624 0.84906 0.0
H1093 H 0.48369 0.79038 0.86983 0.0
H1094 H 0.46054 0.7934 0.84999 0.0
H1095 H 0.48798 0.81243 0.85153 0.0
H1096 H 0.51649 0.79935 0.76626 0.0
H1097 H 0.48138 0.80859 0.74906 0.0
H1098 H 0.44577 0.7845 0.80664 0.0
C1099 C 0.52583 0.77917 0.8527 0.0
C1100 C 0.54937 0.7853 0.85134 0.0
C1101 C 0.55737 0.78943 0.82919 0.0
C1102 C 0.5422 0.78894 0.80921 0.0
C1103 C 0.51908 0.78386 0.81149 0.0
C1104 C 0.5109 0.77862 0.83254 0.0
C1105 C 0.4855 0.77634 0.83133 0.0
C1106 C 0.47349 0.75106 0.83178 0.0
C1107 C 0.47907 0.79421 0.85188 0.0
C1108 C 0.48084 0.78228 0.80685 0.0
C1109 C 0.5004 0.78638 0.79556 0.0
C1110 C 0.5009 0.79538 0.77444 0.0
C1111 C 0.48099 0.80064 0.76483 0.0
C1112 C 0.46094 0.79662 0.77624 0.0
C1113 C 0.46076 0.78683 0.79713 0.0
H1114 H 0.5208 0.20919 0.09823 0.0
H1115 H 0.54664 0.21552 0.17317 0.0
H1116 H 0.55577 0.17621 0.16286 0.0
H1117 H 0.49582 0.14653 0.08641 0.0
H1118 H 0.50357 0.14161 0.05592 0.0
H1119 H 0.49811 0.16975 0.06957 0.0
H1120 H 0.53775 0.19034 0.06087 0.0
H1121 H 0.54337 0.16228 0.0473 0.0
H1122 H 0.56256 0.18131 0.07194 0.0
H1123 H 0.56358 0.13662 0.1438 0.0
H1124 H 0.56874 0.0999 0.11753 0.0
H1125 H 0.53775 0.12018 0.05551 0.0
C1126 C 0.52816 0.20224 0.11254 0.0
C1127 C 0.53297 0.21544 0.1365 0.0
C1128 C 0.54277 0.20573 0.15466 0.0
C1129 C 0.54802 0.18341 0.149 0.0
C1130 C 0.54332 0.17099 0.12512 0.0
C1131 C 0.53352 0.18003 0.10722 0.0
C1132 C 0.53073 0.16346 0.08286 0.0
C1133 C 0.50556 0.15483 0.07313 0.0
C1134 C 0.54442 0.17504 0.06468 0.0
C1135 C 0.54069 0.14381 0.0898 0.0
C1136 C 0.54781 0.14836 0.11424 0.0
C1137 C 0.55795 0.13281 0.12463 0.0
C1138 C 0.56086 0.11204 0.10959 0.0
C1139 C 0.55366 0.10712 0.08447 0.0
C1140 C 0.54341 0.12329 0.07463 0.0
H1141 H 0.16833 0.30639 0.36244 0.0
H1142 H 0.16481 0.37862 0.36074 0.0
H1143 H 0.20006 0.38317 0.34051 0.0
H1144 H 0.22914 0.3155 0.37337 0.0
H1145 H 0.22984 0.28769 0.35421 0.0
H1146 H 0.2053 0.29108 0.36975 0.0
H1147 H 0.17992 0.2774 0.32874 0.0
H1148 H 0.2044 0.27418 0.31306 0.0
H1149 H 0.18624 0.29272 0.30449 0.0
H1150 H 0.23584 0.37893 0.3194 0.0
H1151 H 0.26805 0.36616 0.29959 0.0
H1152 H 0.24563 0.29654 0.31476 0.0
C1153 C 0.17503 0.3233 0.35811 0.0
C1154 C 0.16389 0.34217 0.36323 0.0
C1155 C 0.17315 0.36392 0.35701 0.0
C1156 C 0.19313 0.36666 0.34552 0.0
C1157 C 0.20348 0.34747 0.34039 0.0
C1158 C 0.19467 0.32624 0.34656 0.0
C1159 C 0.20827 0.30796 0.33843 0.0
C1160 C 0.21876 0.30011 0.36024 0.0
C1161 C 0.19385 0.28683 0.32009 0.0
C1162 C 0.22611 0.32211 0.32657 0.0
C1163 C 0.22331 0.3449 0.32792 0.0
C1164 C 0.23815 0.36109 0.31822 0.0
C1165 C 0.25633 0.3537 0.307 0.0
C1166 C 0.25924 0.33031 0.30544 0.0
C1167 C 0.24382 0.31447 0.31534 0.0
H1168 H 0.95906 0.02347 0.18047 0.0
H1169 H 0.99046 0.09203 0.22412 0.0
H1170 H 0.01587 0.09878 0.1922 0.0
H1171 H 1.01025 1.00906 0.15667 0.0
H1172 H 0.99626 0.99438 0.12709 0.0
H1173 H 0.98065 0.99503 0.1532 0.0
H1174 H 0.95137 1.01351 0.13253 0.0
H1175 H 0.96688 1.0129 0.10636 0.0
H1176 H 0.96087 0.04021 0.12179 0.0
H1177 H 0.03838 0.09813 0.1535 0.0
H1178 H 0.05489 0.09038 0.11477 0.0
H1179 H 1.0097 0.02173 0.09542 0.0
C1180 C 0.97127 0.04 0.18353 0.0
C1181 C 0.97233 0.05721 0.20552 0.0
C1182 C 0.98887 0.07841 0.208 0.0
C1183 C 1.00352 0.0824 0.1897 0.0
C1184 C 1.00191 0.06511 0.16844 0.0
C1185 C 0.98612 0.04424 0.16537 0.0
C1186 C 0.98775 0.0284 0.14086 0.0
C1187 C 0.9941 1.00534 0.14469 0.0
C1188 C 0.96539 0.02346 0.12442 0.0
C1189 C 1.00691 0.04342 0.13047 0.0
C1190 C 1.01479 0.06461 0.14669 0.0
C1191 C 0.03219 0.08149 0.14098 0.0
C1192 C 0.04161 0.07684 0.1186 0.0
C1193 C 0.03415 0.05528 0.10134 0.0
C1194 C 0.01634 0.03836 0.10781 0.0
H1195 H 0.29056 0.68084 0.51445 0.0
H1196 H 0.35562 0.6636 0.50045 0.0
H1197 H 0.35844 0.68707 0.46856 0.0
H1198 H 0.27016 0.67541 0.4542 0.0
H1199 H 0.25562 0.69942 0.45964 0.0
H1200 H 0.25992 0.68358 0.48315 0.0
H1201 H 0.28002 0.72257 0.5122 0.0
H1202 H 0.2757 0.73858 0.48876 0.0
H1203 H 0.30384 0.74115 0.50303 0.0
H1204 H 0.35255 0.70949 0.43585 0.0
H1205 H 0.33819 0.72853 0.40458 0.0
H1206 H 0.27725 0.73158 0.44047 0.0
C1207 C 0.30561 0.68233 0.50501 0.0
C1208 C 0.32291 0.67044 0.51 0.0
C1209 C 0.34217 0.67259 0.49698 0.0
C1210 C 0.34396 0.68594 0.47888 0.0
C1211 C 0.3264 0.6971 0.47412 0.0
C1212 C 0.30764 0.69551 0.48689 0.0
C1213 C 0.29043 0.70785 0.47722 0.0
C1214 C 0.2677 0.69053 0.468 0.0
C1215 C 0.28733 0.72879 0.49645 0.0
C1216 C 0.30215 0.71608 0.45659 0.0
C1217 C 0.32299 0.70997 0.45526 0.0
C1218 C 0.3364 0.71468 0.43693 0.0
C1219 C 0.32814 0.72562 0.4193 0.0
C1220 C 0.3066 0.73164 0.42007 0.0
C1221 C 0.29371 0.7271 0.43926 0.0
H1222 H 0.68292 0.0852 0.67625 0.0
H1223 H 0.65157 0.01988 0.69581 0.0
H1224 H 0.62203 1.01228 0.66107 0.0
H1225 H 0.63354 0.10256 0.65769 0.0
H1226 H 0.64464 0.11382 0.6324 0.0
H1227 H 0.66355 0.11365 0.65825 0.0
H1228 H 0.68693 0.08957 0.63052 0.0
H1229 H 0.66825 0.08993 0.60453 0.0
H1230 H 0.67282 0.06231 0.61065 0.0
H1231 H 0.59392 1.01427 0.62662 0.0
H1232 H 0.57254 0.02261 0.59147 0.0
H1233 H 0.62459 0.08478 0.59294 0.0
C1234 C 0.66993 0.06919 0.67303 0.0
C1235 C 0.66927 0.05315 0.68859 0.0
C1236 C 0.65227 0.03228 0.68387 0.0
C1237 C 0.63543 0.02791 0.66433 0.0
C1238 C 0.63629 0.04436 0.64952 0.0
C1239 C 0.65343 0.06429 0.65332 0.0
C1240 C 0.65085 0.07898 0.63458 0.0
C1241 C 0.64797 0.10371 0.64645 0.0
C1242 C 0.6709 0.08026 0.61916 0.0
C1243 C 0.62926 0.06454 0.61998 0.0
C1244 C 0.62094 0.04475 0.62898 0.0
C1245 C 0.60045 0.02949 0.61918 0.0
C1246 C 0.58837 0.03444 0.59941 0.0
C1247 C 0.5971 0.05421 0.58957 0.0
C1248 C 0.61775 0.06938 0.6 0.0
H1249 H 0.30718 0.39007 0.95411 0.0
H1250 H 0.33347 0.34003 0.98899 0.0
H1251 H 0.33303 0.31441 0.94887 0.0
H1252 H 0.26953 0.34644 0.9069 0.0
H1253 H 0.2745 0.3641 0.88429 0.0
H1254 H 0.27635 0.3781 0.91575 0.0
H1255 H 0.31708 0.40077 0.91339 0.0
H1256 H 0.31537 0.38685 0.88196 0.0
H1257 H 0.33813 0.38458 0.90298 0.0
H1258 H 0.33203 0.29558 0.90462 0.0
H1259 H 0.32882 0.28403 0.86001 0.0
H1260 H 0.30148 0.34552 0.85415 0.0
C1261 C 0.31277 0.37368 0.95335 0.0
C1262 C 0.32046 0.3671 0.97472 0.0
C1263 C 0.32747 0.34542 0.9729 0.0
C1264 C 0.3273 0.33077 0.95018 0.0
C1265 C 0.31978 0.3379 0.92947 0.0
C1266 C 0.31243 0.35874 0.93088 0.0
C1267 C 0.30526 0.36242 0.90592 0.0
C1268 C 0.27991 0.36278 0.90305 0.0
C1269 C 0.31984 0.38499 0.90077 0.0
C1270 C 0.31012 0.34061 0.89017 0.0
C1271 C 0.31853 0.32671 0.9041 0.0
C1272 C 0.32523 0.30621 0.89358 0.0
C1273 C 0.3234 0.29983 0.8682 0.0
C1274 C 0.31476 0.31377 0.85356 0.0
C1275 C 0.30785 0.3343 0.86481 0.0
H1276 H 0.97021 0.02546 0.35443 0.0
H1277 H 0.98308 0.10006 0.3542 0.0
H1278 H 1.0058 0.1081 0.39428 0.0
H1279 H 0.96484 0.03014 0.41835 0.0
H1280 H 0.97873 1.00633 0.42121 0.0
H1281 H 0.96381 1.00658 0.39266 0.0
H1282 H 0.99999 1.00342 0.37155 0.0
H1283 H 1.01503 1.00313 0.40003 0.0
H1284 H 0.02587 0.02476 0.38278 0.0
H1285 H 0.02706 0.1078 0.43651 0.0
H1286 H 0.0446 0.09961 0.47377 0.0
H1287 H 0.01901 0.02483 0.44677 0.0
C1288 C 0.97781 0.0436 0.36263 0.0
C1289 C 0.97449 0.06212 0.35048 0.0
C1290 C 0.98507 0.08542 0.3625 0.0
C1291 C 0.99808 0.09014 0.38552 0.0
C1292 C 1.00082 0.07148 0.39686 0.0
C1293 C 0.99099 0.0486 0.3856 0.0
C1294 C 0.9965 0.03156 0.40144 0.0
C1295 C 0.97467 0.01784 0.40885 0.0
C1296 C 1.01016 0.01472 0.38815 0.0
C1297 C 1.01091 0.04826 0.42351 0.0
C1298 C 1.01313 0.07126 0.42052 0.0
C1299 C 0.02534 0.08978 0.43868 0.0
C1300 C 0.03536 0.08488 0.46007 0.0
C1301 C 0.03362 0.06149 0.46387 0.0
C1302 C 0.02108 0.04296 0.44489 0.0
H1303 H 0.35806 0.70188 0.6216 0.0
H1304 H 0.29755 0.6471 0.61542 0.0
H1305 H 0.28293 0.67183 0.64842 0.0
H1306 H 0.36308 0.71866 0.68732 0.0
H1307 H 0.37356 0.74941 0.68768 0.0
H1308 H 0.37892 0.72735 0.66341 0.0
H1309 H 0.36064 0.74715 0.6323 0.0
H1310 H 0.35488 0.76902 0.65653 0.0
H1311 H 0.33212 0.75146 0.6346 0.0
H1312 H 0.27418 0.70359 0.68145 0.0
H1313 H 0.27458 0.73704 0.71525 0.0
H1314 H 0.34148 0.77023 0.70096 0.0
C1315 C 0.34179 0.695 0.62727 0.0
C1316 C 0.32893 0.67252 0.61574 0.0
C1317 C 0.30778 0.66419 0.62391 0.0
C1318 C 0.29924 0.6782 0.64258 0.0
C1319 C 0.31215 0.70046 0.65322 0.0
C1320 C 0.33318 0.70861 0.64616 0.0
C1321 C 0.3441 0.73275 0.66119 0.0
C1322 C 0.36622 0.73199 0.67577 0.0
C1323 C 0.34817 0.75118 0.64519 0.0
C1324 C 0.32587 0.73701 0.67766 0.0
C1325 C 0.30745 0.71831 0.67262 0.0
C1326 C 0.28857 0.71829 0.68556 0.0
C1327 C 0.28885 0.7375 0.70462 0.0
C1328 C 0.30798 0.7564 0.71078 0.0
C1329 C 0.32651 0.75618 0.69671 0.0
H1330 H 0.70209 0.07559 0.84442 0.0
H1331 H 0.66525 0.09578 0.78616 0.0
H1332 H 0.63774 0.10746 0.81393 0.0
H1333 H 0.65451 0.0487 0.86746 0.0
H1334 H 0.66595 0.05767 0.89883 0.0
H1335 H 0.68468 0.05446 0.8756 0.0
H1336 H 0.70661 0.09746 0.89178 0.0
H1337 H 0.68789 0.1008 0.91513 0.0
H1338 H 0.69146 0.12105 0.89484 0.0
H1339 H 0.61268 0.11385 0.84684 0.0
H1340 H 0.59065 0.11251 0.88193 0.0
H1341 H 0.64268 0.08573 0.91777 0.0
C1342 C 0.68857 0.08305 0.83772 0.0
C1343 C 0.68586 0.08504 0.81329 0.0
C1344 C 0.66761 0.09422 0.8049 0.0
C1345 C 0.652 0.10102 0.82055 0.0
C1346 C 0.65487 0.09841 0.84445 0.0
C1347 C 0.67266 0.08959 0.853 0.0
C1348 C 0.67054 0.0862 0.87868 0.0
C1349 C 0.66881 0.06022 0.88022 0.0
C1350 C 0.6903 0.10234 0.89614 0.0
C1351 C 0.64847 0.09386 0.88297 0.0
C1352 C 0.63994 0.10128 0.8632 0.0
C1353 C 0.61925 0.10821 0.86251 0.0
C1354 C 0.60677 0.10719 0.88244 0.0
C1355 C 0.61487 0.09894 0.9026 0.0
C1356 C 0.63618 0.09256 0.9029 0.0
H1357 H 0.32857 0.38171 0.12523 0.0
H1358 H 0.272 0.32935 0.08402 0.0
H1359 H 0.26533 0.31219 0.12005 0.0
H1360 H 0.34983 0.34465 0.15983 0.0
H1361 H 0.35691 0.36669 0.18745 0.0
H1362 H 0.35688 0.37542 0.15862 0.0
H1363 H 0.32878 0.40201 0.17206 0.0
H1364 H 0.32835 0.39298 0.20074 0.0
H1365 H 0.30227 0.38935 0.18189 0.0
H1366 H 0.26503 0.30008 0.16011 0.0
H1367 H 0.27194 0.29306 0.2013 0.0
H1368 H 0.32877 0.35301 0.21702 0.0
C1369 C 0.31479 0.36662 0.12378 0.0
C1370 C 0.30085 0.35685 0.10168 0.0
C1371 C 0.28292 0.33719 0.10066 0.0
C1372 C 0.27895 0.32732 0.12108 0.0
C1373 C 0.29293 0.33737 0.14253 0.0
C1374 C 0.31047 0.3566 0.1441 0.0
C1375 C 0.32306 0.36383 0.16938 0.0
C1376 C 0.34816 0.36256 0.16877 0.0
C1377 C 0.32045 0.38851 0.18172 0.0
C1378 C 0.31038 0.3451 0.18145 0.0
C1379 C 0.29283 0.33027 0.16572 0.0
C1380 C 0.2787 0.3116 0.17261 0.0
C1381 C 0.28275 0.30777 0.1961 0.0
C1382 C 0.30095 0.32238 0.21243 0.0
C1383 C 0.31479 0.34143 0.20496 0.0
H1384 H 0.20309 0.96322 1.0072 0.0
H1385 H 0.25225 0.02942 0.0269 0.0
H1386 H 0.22126 0.05022 0.0369 0.0
H1387 H 0.15872 0.98649 0.97941 0.0
H1388 H 0.13608 0.96764 0.99007 0.0
H1389 H 0.16209 0.9581 0.9844 0.0
H1390 H 0.16644 0.95137 0.02825 0.0
H1391 H 0.14055 0.96113 0.03404 0.0
H1392 H 0.16636 0.97526 0.05327 0.0
H1393 H 0.18466 0.06381 0.04588 0.0
H1394 H 0.14583 0.06965 0.05008 0.0
H1395 H 0.11966 0.99475 0.02369 0.0
C1396 C 0.2074 0.98213 0.01352 0.0
C1397 C 0.23036 0.99461 0.01625 0.0
C1398 C 0.23499 0.01937 0.02452 0.0
C1399 C 0.21742 0.03134 0.03036 0.0
C1400 C 0.1951 0.01846 0.02774 0.0
C1401 C 0.19001 0.99439 0.01924 0.0
C1402 C 0.16454 0.98475 0.01765 0.0
C1403 C 0.15479 0.97358 0.99131 0.0
C1404 C 0.15916 0.96708 0.03429 0.0
C1405 C 0.15606 1.0071 0.02674 0.0
C1406 C 0.17403 0.0263 0.03256 0.0
C1407 C 0.17054 0.04885 0.0413 0.0
C1408 C 0.14825 0.05197 0.04372 0.0
C1409 C 0.12934 0.03272 0.0374 0.0
C1410 C 0.13354 1.0099 0.02898 0.0
H1411 H 0.70324 0.67908 0.03265 0.0
H1412 H 0.73326 0.63735 0.97708 0.0
H1413 H 0.69947 0.60505 0.9718 0.0
H1414 H 0.67984 0.63264 0.06012 0.0
H1415 H 0.65444 0.64317 0.06665 0.0
H1416 H 0.68009 0.66368 0.06464 0.0
H1417 H 0.65922 0.67947 0.03171 0.0
H1418 H 0.6335 0.65914 0.03402 0.0
H1419 H 0.64431 0.65912 1.00507 0.0
H1420 H 0.66291 0.57644 0.97404 0.0
H1421 H 0.62702 0.55396 0.98415 0.0
H1422 H 0.62172 0.61459 0.03849 0.0
C1423 C 0.70263 0.66329 0.01913 0.0
C1424 C 0.7209 0.6608 1.00524 0.0
C1425 C 0.71946 0.63971 0.98792 0.0
C1426 C 0.70031 0.62127 0.98475 0.0
C1427 C 0.68272 0.6242 0.99897 0.0
C1428 C 0.6837 0.64473 0.01577 0.0
C1429 C 0.66305 0.6431 0.02959 0.0
C1430 C 0.66977 0.6458 0.05686 0.0
C1431 C 0.64921 0.66128 0.02479 0.0
C1432 C 0.65052 0.6183 0.01827 0.0
C1433 C 0.66196 0.60772 1.00048 0.0
C1434 C 0.65375 0.5846 0.98786 0.0
C1435 C 0.63338 0.57197 0.99372 0.0
C1436 C 0.62162 0.58243 1.01218 0.0
C1437 C 0.63032 0.60597 0.02438 0.0
H1438 H 0.70272 0.42478 0.2796 0.0
H1439 H 0.75815 0.48414 0.28215 0.0
H1440 H 0.78508 0.45725 0.28127 0.0
H1441 H 0.73256 0.39399 0.31769 0.0
H1442 H 0.71945 0.36501 0.30064 0.0
H1443 H 0.70471 0.38879 0.30164 0.0
H1444 H 0.70028 0.38127 0.2549 0.0
H1445 H 0.71483 0.35736 0.25397 0.0
H1446 H 0.72505 0.38101 0.23888 0.0
H1447 H 0.80713 0.42197 0.28058 0.0
H1448 H 0.82058 0.38503 0.27938 0.0
H1449 H 0.75129 0.347 0.27647 0.0
C1450 C 0.72054 0.43239 0.27997 0.0
C1451 C 0.72775 0.45742 0.28096 0.0
C1452 C 0.75153 0.46563 0.28139 0.0
C1453 C 0.76714 0.45018 0.28091 0.0
C1454 C 0.75937 0.42587 0.27994 0.0
C1455 C 0.73644 0.41706 0.27945 0.0
C1456 C 0.7323 0.3902 0.27837 0.0
C1457 C 0.72161 0.38414 0.30092 0.0
C1458 C 0.71721 0.37665 0.25515 0.0
C1459 C 0.75633 0.385 0.2781 0.0
C1460 C 0.77172 0.40595 0.27919 0.0
C1461 C 0.79492 0.40573 0.27961 0.0
C1462 C 0.80254 0.38425 0.27889 0.0
C1463 C 0.78748 0.36213 0.27753 0.0
C1464 C 0.76376 0.363 0.27717 0.0
H1465 H 0.89179 0.48399 0.53123 0.0
H1466 H 0.86556 0.53166 0.49279 0.0
H1467 H 0.90477 0.54964 0.48663 0.0
H1468 H 0.94271 0.52615 0.56164 0.0
H1469 H 0.95993 0.50434 0.5592 0.0
H1470 H 0.92996 0.49586 0.56118 0.0
H1471 H 0.92589 0.46482 0.52134 0.0
H1472 H 0.9558 0.47326 0.51918 0.0
H1473 H 0.9357 0.4739 0.49447 0.0
H1474 H 0.94728 0.56104 0.48286 0.0
H1475 H 0.98878 0.56627 0.48356 0.0
H1476 H 0.98757 0.51179 0.52549 0.0
C1477 C 0.89421 0.49835 0.52166 0.0
C1478 C 0.87536 0.50635 0.51248 0.0
C1479 C 0.87954 0.52522 0.5001 0.0
C1480 C 0.90182 0.53551 0.49646 0.0
C1481 C 0.91993 0.52695 0.50548 0.0
C1482 C 0.91634 0.50893 0.51806 0.0
C1483 C 0.93865 0.50284 0.52585 0.0
C1484 C 0.94307 0.50758 0.55361 0.0
C1485 C 0.93902 0.47718 0.51453 0.0
C1486 C 0.9554 0.51998 0.51538 0.0
C1487 C 0.94426 0.53372 0.50368 0.0
C1488 C 0.95609 0.55042 0.49211 0.0
C1489 C 0.97978 0.55321 0.49255 0.0
C1490 C 0.99172 0.53947 0.50455 0.0
C1491 C 0.97916 0.52268 0.51619 0.0
H1492 H 0.37832 0.08552 0.25445 0.0
H1493 H 0.3329 0.04984 0.29855 0.0
H1494 H 0.30378 0.07123 0.28805 0.0
H1495 H 0.36616 0.14008 0.27244 0.0
H1496 H 0.36788 0.14849 0.24349 0.0
H1497 H 0.38362 0.12761 0.25111 0.0
H1498 H 0.36446 0.09746 0.21233 0.0
H1499 H 0.34859 0.11831 0.2046 0.0
H1500 H 0.33399 0.08939 0.2071 0.0
H1501 H 0.28164 0.09973 0.27707 0.0
H1502 H 0.26902 0.13473 0.26824 0.0
H1503 H 0.32856 0.15158 0.23088 0.0
C1504 C 0.36206 0.08181 0.26145 0.0
C1505 C 0.35782 0.06599 0.27723 0.0
C1506 C 0.3365 0.06191 0.28641 0.0
C1507 C 0.31978 0.07383 0.2804 0.0
C1508 C 0.32464 0.08963 0.26511 0.0
C1509 C 0.34525 0.09363 0.25573 0.0
C1510 C 0.34714 0.1133 0.24188 0.0
C1511 C 0.36739 0.13356 0.2529 0.0
C1512 C 0.34862 0.10405 0.21487 0.0
C1513 C 0.3248 0.12045 0.24587 0.0
C1514 C 0.31184 0.10625 0.25885 0.0
C1515 C 0.29138 0.11068 0.26647 0.0
C1516 C 0.28431 0.13054 0.26128 0.0
C1517 C 0.29779 0.14579 0.24882 0.0
C1518 C 0.31791 0.14019 0.24041 0.0
H1519 H 0.34815 0.17116 0.52902 0.0
H1520 H 0.35289 0.16567 0.45191 0.0
H1521 H 0.38625 0.1478 0.45534 0.0
H1522 H 0.40791 0.18619 0.5475 0.0
H1523 H 0.40612 0.16929 0.57096 0.0
H1524 H 0.38248 0.18146 0.56242 0.0
H1525 H 0.35633 0.13993 0.55386 0.0
H1526 H 0.37988 0.12763 0.56238 0.0
H1527 H 0.36388 0.11626 0.5331 0.0
H1528 H 0.41923 0.13082 0.46717 0.0
H1529 H 0.44919 0.11532 0.48643 0.0
H1530 H 0.42315 0.1321 0.5559 0.0
C1531 C 0.35615 0.16615 0.51282 0.0
C1532 C 0.34787 0.16981 0.49017 0.0
C1533 C 0.35888 0.16304 0.46945 0.0
C1534 C 0.37786 0.15288 0.47121 0.0
C1535 C 0.3856 0.1496 0.49381 0.0
C1536 C 0.37508 0.15598 0.51424 0.0
C1537 C 0.38682 0.15058 0.53637 0.0
C1538 C 0.3964 0.17323 0.55543 0.0
C1539 C 0.37077 0.13252 0.54705 0.0
C1540 C 0.4056 0.14015 0.52519 0.0
C1541 C 0.40461 0.13979 0.50063 0.0
C1542 C 0.42021 0.13107 0.4864 0.0
C1543 C 0.43726 0.12245 0.49755 0.0
C1544 C 0.43861 0.12259 0.52271 0.0
C1545 C 0.42248 0.13156 0.53662 0.0
H1546 H 0.77151 0.61336 0.30337 0.0
H1547 H 0.70308 0.60116 0.26851 0.0
H1548 H 0.7105 0.64228 0.26243 0.0
H1549 H 0.77505 0.6738 0.33449 0.0
H1550 H 0.80432 0.68375 0.33016 0.0
H1551 H 0.7938 0.65345 0.33169 0.0
H1552 H 0.80767 0.63992 0.29016 0.0
H1553 H 0.81824 0.67017 0.28851 0.0
H1554 H 0.79846 0.651 0.26445 0.0
H1555 H 0.72558 0.68621 0.26056 0.0
H1556 H 0.7461 0.7268 0.26223 0.0
H1557 H 0.80573 0.71197 0.29785 0.0
C1558 C 0.75797 0.61919 0.29438 0.0
C1559 C 0.73646 0.6033 0.28646 0.0
C1560 C 0.71961 0.61235 0.27482 0.0
C1561 C 0.72375 0.63594 0.2713 0.0
C1562 C 0.74499 0.65095 0.27936 0.0
C1563 C 0.76188 0.64284 0.29063 0.0
C1564 C 0.78329 0.66261 0.29753 0.0
C1565 C 0.78948 0.66876 0.32511 0.0
C1566 C 0.80309 0.65549 0.28438 0.0
C1567 C 0.77592 0.68319 0.2885 0.0
C1568 C 0.75368 0.67598 0.27811 0.0
C1569 C 0.74297 0.69176 0.26865 0.0
C1570 C 0.75496 0.71511 0.26972 0.0
C1571 C 0.77788 0.7234 0.28013 0.0
C1572 C 0.78837 0.70676 0.28965 0.0
H1573 H 0.86035 0.47783 0.77626 0.0
H1574 H 0.84445 0.50797 0.84761 0.0
H1575 H 0.82603 0.46816 0.85254 0.0
H1576 H 0.80922 0.43068 0.75926 0.0
H1577 H 0.82491 0.41034 0.74413 0.0
H1578 H 0.83397 0.4414 0.74523 0.0
H1579 H 0.87374 0.4403 0.76446 0.0
H1580 H 0.86471 0.40933 0.76359 0.0
H1581 H 0.87616 0.42917 0.79188 0.0
H1582 H 0.81186 0.42428 0.8505 0.0
H1583 H 0.80403 0.38064 0.84195 0.0
H1584 H 0.83096 0.38071 0.77268 0.0
C1585 C 0.85262 0.47624 0.79278 0.0
C1586 C 0.85375 0.49601 0.81153 0.0
C1587 C 0.84367 0.49304 0.83295 0.0
C1588 C 0.83315 0.47052 0.83589 0.0
C1589 C 0.83286 0.45132 0.81721 0.0
C1590 C 0.84228 0.45405 0.79603 0.0
C1591 C 0.84146 0.43068 0.7794 0.0
C1592 C 0.82649 0.42813 0.7556 0.0
C1593 C 0.86544 0.42718 0.77457 0.0
C1594 C 0.8306 0.41426 0.79474 0.0
C1595 C 0.8254 0.42636 0.81633 0.0
C1596 C 0.81572 0.41464 0.83358 0.0
C1597 C 0.81137 0.38992 0.82861 0.0
C1598 C 0.81708 0.37739 0.80677 0.0
C1599 C 0.82661 0.3898 0.78965 0.0
H1600 H 0.06151 0.81668 0.07563 0.0
H1601 H 0.1262 0.80956 0.0497 0.0
H1602 H 0.1199 0.83342 0.01931 0.0
H1603 H 0.03135 0.81481 0.01614 0.0
H1604 H 1.01558 0.83612 0.02905 0.0
H1605 H 0.02423 0.81644 0.04679 0.0
H1606 H 0.04452 0.85209 0.08035 0.0
H1607 H 0.0357 0.87175 0.06287 0.0
H1608 H 0.06533 0.87495 0.07247 0.0
H1609 H 0.10841 0.86225 0.99543 0.0
H1610 H 0.09286 0.89342 0.98066 0.0
H1611 H 0.03542 0.87966 0.02173 0.0
C1612 C 0.07427 0.8199 0.0634 0.0
C1613 C 0.09437 0.81142 0.06504 0.0
C1614 C 0.11063 0.81593 0.04868 0.0
C1615 C 0.10716 0.82935 0.03131 0.0
C1616 C 0.08716 0.83766 0.03033 0.0
C1617 C 0.07094 0.83292 0.04586 0.0
C1618 C 0.05161 0.84505 0.04237 0.0
C1619 C 0.02938 0.82702 0.03303 0.0
C1620 C 0.04917 0.86196 0.0659 0.0
C1621 C 0.0599 0.8582 0.02314 0.0
C1622 C 0.08029 0.85357 0.01614 0.0
C1623 C 0.0922 0.86562 1.00036 0.0
C1624 C 0.0833 0.88329 0.9921 0.0
C1625 C 0.06274 0.88864 0.9997 0.0
C1626 C 0.05071 0.87541 0.01485 0.0
H1627 H 0.92753 0.26433 0.90084 0.0
H1628 H 0.96397 0.23587 0.84278 0.0
H1629 H 0.93637 0.2437 0.81273 0.0
H1630 H 0.86928 0.24567 0.86855 0.0
H1631 H 0.86232 0.27301 0.88263 0.0
H1632 H 0.88244 0.2608 0.89834 0.0
H1633 H 0.91127 0.3006 0.90319 0.0
H1634 H 0.89136 0.31216 0.88644 0.0
H1635 H 0.91899 0.31158 0.87656 0.0
H1636 H 0.90696 0.25818 0.78951 0.0
H1637 H 0.8768 0.2764 0.77467 0.0
H1638 H 0.86146 0.29738 0.84859 0.0
C1639 C 0.92914 0.25883 0.88176 0.0
C1640 C 0.94752 0.24904 0.874 0.0
C1641 C 0.94972 0.24305 0.84895 0.0
C1642 C 0.93421 0.24752 0.83181 0.0
C1643 C 0.91682 0.2582 0.84013 0.0
C1644 C 0.91412 0.26363 0.86451 0.0
C1645 C 0.89551 0.27713 0.86896 0.0
C1646 C 0.87624 0.2633 0.88027 0.0
C1647 C 0.90485 0.30182 0.88471 0.0
C1648 C 0.88816 0.27848 0.8433 0.0
C1649 C 0.90057 0.26741 0.8269 0.0
C1650 C 0.89702 0.26677 0.80216 0.0
C1651 C 0.87997 0.2773 0.79393 0.0
C1652 C 0.86685 0.28844 0.81046 0.0
C1653 C 0.87127 0.28919 0.83546 0.0
H1654 H 0.59107 0.24274 0.60982 0.0
H1655 H 0.59591 0.26692 0.54213 0.0
H1656 H 0.59526 0.22629 0.52051 0.0
H1657 H 0.62567 0.19992 0.59834 0.0
H1658 H 0.60823 0.179 0.61239 0.0
H1659 H 0.60972 0.21004 0.62252 0.0
H1660 H 0.566 0.20329 0.6146 0.0
H1661 H 0.56437 0.17222 0.60469 0.0
H1662 H 0.55208 0.18826 0.58509 0.0
H1663 H 0.59476 0.18297 0.50664 0.0
H1664 H 0.59034 0.13977 0.50084 0.0
H1665 H 0.58441 0.14443 0.57761 0.0
C1666 C 0.59204 0.2395 0.59045 0.0
C1667 C 0.59365 0.25789 0.57761 0.0
C1668 C 0.59459 0.25298 0.55225 0.0
C1669 C 0.59438 0.23003 0.53987 0.0
C1670 C 0.59302 0.2123 0.55315 0.0
C1671 C 0.59156 0.21675 0.57783 0.0
C1672 C 0.5892 0.19452 0.58777 0.0
C1673 C 0.60941 0.19597 0.60635 0.0
C1674 C 0.56657 0.18927 0.59867 0.0
C1675 C 0.58954 0.17682 0.56484 0.0
C1676 C 0.59204 0.1874 0.54509 0.0
C1677 C 0.59277 0.17448 0.52196 0.0
C1678 C 0.59039 0.15002 0.51887 0.0
C1679 C 0.58704 0.13883 0.53878 0.0
C1680 C 0.58692 0.15251 0.56205 0.0
H1681 H 0.61426 0.82291 0.42666 0.0
H1682 H 0.55717 0.77463 0.38151 0.0
H1683 H 0.58203 0.76549 0.34992 0.0
H1684 H 0.63958 0.84653 0.38025 0.0
H1685 H 0.66838 0.84852 0.39227 0.0
H1686 H 0.64661 0.8499 0.41238 0.0
H1687 H 0.65677 0.81495 0.42915 0.0
H1688 H 0.67867 0.81352 0.40913 0.0
H1689 H 0.6569 0.78778 0.40849 0.0
H1690 H 0.61201 0.76422 0.32171 0.0
H1691 H 0.64593 0.76954 0.29957 0.0
H1692 H 0.68377 0.81786 0.36308 0.0
C1693 C 0.60706 0.81015 0.41029 0.0
C1694 C 0.58374 0.79952 0.40661 0.0
C1695 C 0.57498 0.78299 0.38484 0.0
C1696 C 0.58896 0.77765 0.36674 0.0
C1697 C 0.61175 0.78876 0.37074 0.0
C1698 C 0.62083 0.80446 0.39206 0.0
C1699 C 0.64574 0.81454 0.39137 0.0
C1700 C 0.65033 0.84147 0.39423 0.0
C1701 C 0.66038 0.80726 0.41068 0.0
C1702 C 0.64901 0.80257 0.36609 0.0
C1703 C 0.62921 0.78769 0.35455 0.0
C1704 C 0.62771 0.77559 0.33064 0.0
C1705 C 0.64697 0.77883 0.31818 0.0
C1706 C 0.66744 0.79398 0.32967 0.0
C1707 C 0.66844 0.80583 0.354 0.0
H1708 H 0.08972 0.25166 0.43009 0.0
H1709 H 0.14584 0.3026 0.47381 0.0
H1710 H 0.14225 0.27989 0.50637 0.0
H1711 H 0.05642 0.24052 0.47818 0.0
H1712 H 0.04699 0.2095 0.4656 0.0
H1713 H 0.05395 0.22987 0.44588 0.0
H1714 H 0.08276 0.20626 0.42739 0.0
H1715 H 0.07577 0.18575 0.44695 0.0
H1716 H 0.10478 0.20061 0.4471 0.0
H1717 H 0.13168 0.25184 0.53463 0.0
H1718 H 0.11678 0.21909 0.55482 0.0
H1719 H 0.06852 0.18657 0.49182 0.0
C1720 C 0.10127 0.25806 0.4465 0.0
C1721 C 0.118 0.27892 0.44948 0.0
C1722 C 0.13292 0.2866 0.47114 0.0
C1723 C 0.13095 0.27389 0.48976 0.0
C1724 C 0.11412 0.25348 0.48632 0.0
C1725 C 0.0997 0.2455 0.46511 0.0
C1726 C 0.08339 0.22278 0.4656 0.0
C1727 C 0.05873 0.22587 0.46371 0.0
C1728 C 0.0869 0.20266 0.44558 0.0
C1729 C 0.0908 0.21924 0.49043 0.0
C1730 C 0.10843 0.23718 0.50224 0.0
C1731 C 0.11791 0.23768 0.52554 0.0
C1732 C 0.1093 0.21915 0.5369 0.0
C1733 C 0.09161 0.20041 0.52479 0.0
C1734 C 0.08219 0.20064 0.50138 0.0
H1735 H 0.59702 0.3181 0.22337 0.0
H1736 H 0.54982 0.28287 0.2661 0.0
H1737 H 0.58113 0.28558 0.29717 0.0
H1738 H 0.63712 0.28878 0.22963 0.0
H1739 H 0.6614 0.31254 0.23205 0.0
H1740 H 0.63502 0.31404 0.21676 0.0
H1741 H 0.63569 0.35396 0.24534 0.0
H1742 H 0.66221 0.35252 0.26087 0.0
H1743 H 0.63841 0.35615 0.27767 0.0
H1744 H 0.6173 0.28229 0.31734 0.0
H1745 H 0.65563 0.27507 0.32575 0.0
H1746 H 0.67977 0.314 0.27159 0.0
C1747 C 0.59317 0.31183 0.23973 0.0
C1748 C 0.57104 0.3002 0.24227 0.0
C1749 C 0.56667 0.29185 0.26374 0.0
C1750 C 0.58434 0.29345 0.28161 0.0
C1751 C 0.6062 0.30389 0.27799 0.0
C1752 C 0.61064 0.3134 0.25779 0.0
C1753 C 0.63587 0.32051 0.25642 0.0
C1754 C 0.64273 0.30821 0.23231 0.0
C1755 C 0.64348 0.34739 0.26032 0.0
C1756 C 0.6448 0.31156 0.27771 0.0
C1757 C 0.62747 0.3026 0.29034 0.0
C1758 C 0.63113 0.29002 0.30824 0.0
C1759 C 0.65287 0.28589 0.31284 0.0
C1760 C 0.67057 0.29438 0.2996 0.0
C1761 C 0.66664 0.3081 0.28254 0.0
H1762 H 0.5661 0.86913 0.9677 0.0
H1763 H 0.60294 0.88613 0.90775 0.0
H1764 H 0.59909 0.9273 0.9192 0.0
H1765 H 0.52677 0.90837 0.96454 0.0
H1766 H 0.52736 0.91657 0.99697 0.0
H1767 H 0.53171 0.88796 0.98325 0.0
H1768 H 0.56993 0.89602 1.01008 0.0
H1769 H 0.56568 0.92463 0.02387 0.0
H1770 H 0.59112 0.92196 1.00967 0.0
H1771 H 0.59272 0.96675 0.93778 0.0
H1772 H 0.58505 1.00245 0.96318 0.0
H1773 H 0.55272 0.96021 1.01144 0.0
C1774 C 0.57314 0.88146 0.95684 0.0
C1775 C 0.58477 0.8744 0.93681 0.0
C1776 C 0.59399 0.89113 0.92322 0.0
C1777 C 0.59182 0.91456 0.9295 0.0
C1778 C 0.58042 0.921 0.94943 0.0
C1779 C 0.57126 0.90501 0.96295 0.0
C1780 C 0.56077 0.91684 0.9842 0.0
C1781 C 0.53513 0.90684 0.9821 0.0
C1782 C 0.57259 0.91474 1.00838 0.0
C1783 C 0.56574 0.942 0.98063 0.0
C1784 C 0.57693 0.94394 0.96035 0.0
C1785 C 0.58385 0.96547 0.95364 0.0
C1786 C 0.57942 0.98565 0.96821 0.0
C1787 C 0.56826 0.98415 0.98929 0.0
C1788 C 0.56117 0.96195 0.99538 0.0
H1789 H 0.91408 0.72964 0.67604 0.0
H1790 H 0.97714 0.76937 0.71752 0.0
H1791 H 0.95639 0.78125 0.75203 0.0
H1792 H 0.88259 0.77013 0.693 0.0
H1793 H 0.85664 0.75007 0.69527 0.0
H1794 H 0.87653 0.7404 0.67554 0.0
H1795 H 0.87823 0.70593 0.69742 0.0
H1796 H 0.85821 0.71551 0.71723 0.0
H1797 H 0.88517 0.71201 0.72979 0.0
H1798 H 0.92928 0.79516 0.7784 0.0
H1799 H 0.89685 0.8091 0.79586 0.0
H1800 H 0.85084 0.75963 0.73889 0.0
C1801 C 0.92355 0.74019 0.69268 0.0
C1802 C 0.94719 0.7486 0.69409 0.0
C1803 C 0.959 0.76279 0.71598 0.0
C1804 C 0.94739 0.76949 0.73579 0.0
C1805 C 0.92401 0.76166 0.73358 0.0
C1806 C 0.91216 0.74707 0.71273 0.0
C1807 C 0.88682 0.74346 0.71417 0.0
C1808 C 0.87497 0.75151 0.69326 0.0
C1809 C 0.8765 0.7177 0.71469 0.0
C1810 C 0.88638 0.75949 0.73835 0.0
C1811 C 0.90804 0.76945 0.74941 0.0
C1812 C 0.91219 0.787 0.77035 0.0
C1813 C 0.89374 0.79492 0.78004 0.0
C1814 C 0.87148 0.78519 0.76884 0.0
C1815 C 0.86771 0.76684 0.74813 0.0
H1816 H 0.16445 0.07206 0.87742 0.0
H1817 H 0.14188 0.99937 0.83984 0.0
H1818 H 0.11678 0.99229 0.87196 0.0
H1819 H 0.16475 0.06111 0.93881 0.0
H1820 H 0.15496 0.08732 0.95112 0.0
H1821 H 0.17096 0.0866 0.9253 0.0
H1822 H 0.13872 0.09816 0.90114 0.0
H1823 H 0.1226 0.09887 0.92687 0.0
H1824 H 0.11038 0.08058 0.898 0.0
H1825 H 0.09321 0.9933 0.90989 0.0
H1826 H 0.07503 1.00166 0.94741 0.0
H1827 H 0.11237 0.07403 0.96156 0.0
C1828 C 0.15428 0.05453 0.87575 0.0
C1829 C 0.15559 0.03628 0.85537 0.0
C1830 C 0.14165 1.0138 0.8547 0.0
C1831 C 0.12717 1.00963 0.87311 0.0
C1832 C 0.12637 0.02799 0.89272 0.0
C1833 C 0.13969 0.05006 0.8941 0.0
C1834 C 0.13583 0.06686 0.91709 0.0
C1835 C 0.15794 0.07602 0.93408 0.0
C1836 C 0.12632 0.08734 0.91037 0.0
C1837 C 0.11822 0.051 0.92856 0.0
C1838 C 0.11302 0.0286 0.91415 0.0
C1839 C 0.09734 1.01087 0.92101 0.0
C1840 C 0.08692 0.01589 0.94269 0.0
C1841 C 0.09168 0.03864 0.95819 0.0
C1842 C 0.1078 0.05642 0.95056 0.0
H1843 H 0.79051 0.40134 0.54888 0.0
H1844 H 0.81282 0.47388 0.58747 0.0
H1845 H 0.81914 0.46019 0.62555 0.0
H1846 H 0.76147 0.37919 0.5966 0.0
H1847 H 0.77025 0.35147 0.59018 0.0
H1848 H 0.76664 0.36709 0.56626 0.0
H1849 H 0.80783 0.36647 0.55663 0.0
H1850 H 0.81158 0.35091 0.58056 0.0
H1851 H 0.83081 0.37826 0.58038 0.0
H1852 H 0.82386 0.43833 0.65937 0.0
H1853 H 0.82725 0.41011 0.68587 0.0
H1854 H 0.80184 0.35206 0.62491 0.0
C1855 C 0.79656 0.4144 0.56534 0.0
C1856 C 0.80109 0.43871 0.56517 0.0
C1857 C 0.80918 0.45517 0.58713 0.0
C1858 C 0.81281 0.44756 0.60887 0.0
C1859 C 0.80829 0.42344 0.60835 0.0
C1860 C 0.80035 0.40712 0.58714 0.0
C1861 C 0.79742 0.38221 0.59128 0.0
C1862 C 0.77246 0.36923 0.58576 0.0
C1863 C 0.81283 0.36867 0.57632 0.0
C1864 C 0.80511 0.38704 0.6181 0.0
C1865 C 0.8112 0.41092 0.62767 0.0
C1866 C 0.81904 0.41959 0.65207 0.0
C1867 C 0.8208 0.40343 0.66701 0.0
C1868 C 0.81485 0.37885 0.65749 0.0
C1869 C 0.80679 0.3707 0.63271 0.0
H1870 H 0.47609 0.02596 0.35586 0.0
H1871 H 0.43818 0.0809 0.37384 0.0
H1872 H 0.46526 0.09895 0.41014 0.0
H1873 H 0.48579 0.01749 0.41356 0.0
H1874 H 0.51392 1.01214 0.4109 0.0
H1875 H 0.49393 1.00583 0.38439 0.0
H1876 H 0.52215 0.03295 0.36391 0.0
H1877 H 0.54232 0.03932 0.39043 0.0
H1878 H 0.53347 0.06302 0.37914 0.0
H1879 H 0.49282 0.10758 0.447 0.0
H1880 H 0.51901 0.10639 0.48175 0.0
H1881 H 0.53928 0.04604 0.43954 0.0
C1882 C 0.47377 0.04211 0.36709 0.0
C1883 C 0.45507 0.05207 0.36202 0.0
C1884 C 0.45245 0.07302 0.37735 0.0
C1885 C 0.46779 0.08345 0.39794 0.0
C1886 C 0.48574 0.07282 0.40274 0.0
C1887 C 0.4889 0.05271 0.38766 0.0
C1888 C 0.50819 0.04347 0.39805 0.0
C1889 C 0.49995 0.01825 0.40196 0.0
C1890 C 0.52769 0.04478 0.38192 0.0
C1891 C 0.51478 0.06095 0.42184 0.0
C1892 C 0.50185 0.07794 0.42404 0.0
C1893 C 0.50339 0.09469 0.4453 0.0
C1894 C 0.51824 0.09379 0.46497 0.0
C1895 C 0.53128 0.0762 0.46324 0.0
C1896 C 0.52989 0.05997 0.4412 0.0
H1897 H 0.82077 0.71273 0.10055 0.0
H1898 H 0.78103 0.75527 0.06883 0.0
H1899 H 0.7805 0.77932 0.10946 0.0
H1900 H 0.79273 0.71147 0.15353 0.0
H1901 H 0.81796 0.7133 0.17319 0.0
H1902 H 0.8162 0.7002 0.14152 0.0
H1903 H 0.85304 0.72937 0.13752 0.0
H1904 H 0.85491 0.74259 0.16921 0.0
H1905 H 0.85478 0.76057 0.14681 0.0
H1906 H 0.78257 0.79742 0.15383 0.0
H1907 H 0.7875 0.80856 0.19845 0.0
H1908 H 0.82649 0.75466 0.20125 0.0
C1909 C 0.81209 0.72721 0.10208 0.0
C1910 C 0.80094 0.73209 0.08142 0.0
C1911 C 0.78974 0.75119 0.08432 0.0
C1912 C 0.78935 0.76497 0.10735 0.0
C1913 C 0.80036 0.75955 0.12732 0.0
C1914 C 0.81163 0.7412 0.1249 0.0
C1915 C 0.82165 0.7387 0.14934 0.0
C1916 C 0.81152 0.71448 0.1547 0.0
C1917 C 0.84764 0.74307 0.1508 0.0
C1918 C 0.81396 0.75828 0.16592 0.0
C1919 C 0.80177 0.77014 0.15285 0.0
C1920 C 0.79224 0.78837 0.16423 0.0
C1921 C 0.79511 0.79455 0.18962 0.0
C1922 C 0.80745 0.78257 0.20344 0.0
C1923 C 0.81715 0.76434 0.19128 0.0
H1924 H 0.17408 0.01582 0.67796 0.0
H1925 H 0.13457 0.04139 0.73439 0.0
H1926 H 0.10765 0.04878 0.70314 0.0
H1927 H 0.167 0.0566 0.63954 0.0
H1928 H 0.16466 0.03549 0.61152 0.0
H1929 H 0.18056 0.0319 0.63813 0.0
H1930 H 0.15605 0.99016 0.63419 0.0
H1931 H 0.14011 0.99359 0.60752 0.0
H1932 H 0.12566 0.98618 0.63279 0.0
H1933 H 0.08535 0.05543 0.6645 0.0
H1934 H 0.06935 0.0582 0.62411 0.0
H1935 H 0.1218 0.02657 0.59142 0.0
C1936 C 0.15969 0.02284 0.68391 0.0
C1937 C 0.15681 0.02792 0.70925 0.0
C1938 C 0.1375 0.03711 0.71554 0.0
C1939 C 0.12203 0.04148 0.6977 0.0
C1940 C 0.12555 0.03645 0.67309 0.0
C1941 C 0.14386 0.02705 0.6662 0.0
C1942 C 0.14373 0.02296 0.6385 0.0
C1943 C 0.16527 0.03761 0.63151 0.0
C1944 C 0.14125 0.99666 0.62761 0.0
C1945 C 0.12266 0.03171 0.63075 0.0
C1946 C 0.11251 0.03956 0.65107 0.0
C1947 C 0.09325 0.0491 0.64866 0.0
C1948 C 0.08419 0.05065 0.62535 0.0
C1949 C 0.09388 0.04255 0.6039 0.0
C1950 C 0.11353 0.03281 0.60701 0.0
H1951 H 0.7673 0.41695 0.4178 0.0
H1952 H 0.82644 0.42399 0.46858 0.0
H1953 H 0.83863 0.39235 0.44106 0.0
H1954 H 0.75699 0.35305 0.39865 0.0
H1955 H 0.74837 0.35314 0.36755 0.0
H1956 H 0.74386 0.3761 0.39143 0.0
H1957 H 0.76612 0.40753 0.37061 0.0
H1958 H 0.77065 0.38463 0.34672 0.0
H1959 H 0.79449 0.40598 0.36364 0.0
H1960 H 0.84588 0.36153 0.40689 0.0
H1961 H 0.84648 0.33255 0.36925 0.0
H1962 H 0.78191 0.34392 0.34143 0.0
C1963 C 0.78274 0.41175 0.42321 0.0
C1964 C 0.79588 0.4231 0.44546 0.0
C1965 C 0.816 0.41567 0.45174 0.0
C1966 C 0.82312 0.39767 0.43618 0.0
C1967 C 0.8099 0.38699 0.41438 0.0
C1968 C 0.79005 0.39362 0.40792 0.0
C1969 C 0.77909 0.37933 0.38331 0.0
C1970 C 0.75569 0.36452 0.38537 0.0
C1971 C 0.7775 0.39532 0.36499 0.0
C1972 C 0.79599 0.36383 0.37694 0.0
C1973 C 0.8137 0.36862 0.39505 0.0
C1974 C 0.83195 0.35741 0.39273 0.0
C1975 C 0.83216 0.34097 0.37129 0.0
C1976 C 0.81411 0.33565 0.35258 0.0
C1977 C 0.79573 0.34716 0.35564 0.0
H1978 H 0.43902 0.02672 0.25207 0.0
H1979 H 0.42091 0.95215 0.25267 0.0
H1980 H 0.44579 0.94402 0.22049 0.0
H1981 H 0.44125 0.02058 0.18782 0.0
H1982 H 0.46505 0.04496 0.19099 0.0
H1983 H 0.44548 0.04463 0.21364 0.0
H1984 H 0.47871 0.04964 0.24684 0.0
H1985 H 0.49838 0.04991 0.2243 0.0
H1986 H 0.49711 0.02894 0.24377 0.0
H1987 H 0.47327 0.94438 0.18866 0.0
H1988 H 0.5004 0.95304 0.15906 0.0
H1989 H 0.50059 0.02746 0.18043 0.0
C1990 C 0.44014 1.00864 0.2454 0.0
C1991 C 0.42802 0.99005 0.25486 0.0
C1992 C 0.43004 0.96666 0.24565 0.0
C1993 C 0.44413 0.96188 0.22741 0.0
C1994 C 0.45601 0.98069 0.21866 0.0
C1995 C 0.45409 1.00358 0.22732 0.0
C1996 C 0.46876 0.02072 0.21515 0.0
C1997 C 0.45427 0.03346 0.20106 0.0
C1998 C 0.48681 0.03833 0.23362 0.0
C1999 C 0.4793 1.00391 0.19824 0.0
C2000 C 0.47178 0.98091 0.20051 0.0
C2001 C 0.47929 0.96233 0.18675 0.0
C2002 C 0.4948 0.96744 0.17013 0.0
C2003 C 0.50259 0.99092 0.16746 0.0
C2004 C 0.49474 1.00931 0.18183 0.0
H2005 H 0.78258 0.7329 0.93816 0.0
H2006 H 0.85273 0.75494 0.96966 0.0
H2007 H 0.86274 0.77243 0.93465 0.0
H2008 H 0.79413 0.71797 0.87605 0.0
H2009 H 0.77117 0.72913 0.86387 0.0
H2010 H 0.76901 0.71821 0.89148 0.0
H2011 H 0.76135 0.75794 0.91369 0.0
H2012 H 0.76331 0.76891 0.8861 0.0
H2013 H 0.78111 0.78488 0.91322 0.0
H2014 H 0.86568 0.78707 0.89667 0.0
H2015 H 0.86113 0.80025 0.85834 0.0
H2016 H 0.78905 0.7695 0.85043 0.0
C2017 C 0.80001 0.7415 0.93772 0.0
C2018 C 0.81687 0.7425 0.95673 0.0
C2019 C 0.83949 0.75391 0.95542 0.0
C2020 C 0.84539 0.76387 0.93554 0.0
C2021 C 0.8285 0.76238 0.91706 0.0
C2022 C 0.80624 0.75167 0.91795 0.0
C2023 C 0.79147 0.75287 0.8956 0.0
C2024 C 0.78082 0.72806 0.88088 0.0
C2025 C 0.77323 0.76699 0.90258 0.0
C2026 C 0.80897 0.76592 0.88212 0.0
C2027 C 0.8302 0.77109 0.89489 0.0
C2028 C 0.84915 0.78319 0.8865 0.0
C2029 C 0.84634 0.7906 0.86465 0.0
C2030 C 0.82472 0.78598 0.85131 0.0
C2031 C 0.80582 0.77319 0.86008 0.0
H2032 H 0.91919 0.13078 0.04816 0.0
H2033 H 0.87118 0.06392 0.03619 0.0
H2034 H 0.90238 0.04312 0.02699 0.0
H2035 H 0.95469 0.11548 1.00178 0.0
H2036 H 0.98078 0.1314 0.0196 0.0
H2037 H 0.95472 0.14091 0.02504 0.0
H2038 H 0.96103 0.13836 0.07007 0.0
H2039 H 0.98706 0.12878 0.06468 0.0
H2040 H 0.96526 0.11116 0.07767 0.0
H2041 H 0.93901 0.02959 0.01739 0.0
H2042 H 0.97782 0.02402 1.01237 0.0
H2043 H 1.00305 0.09965 0.03248 0.0
C2044 C 0.91518 0.11173 0.04368 0.0
C2045 C 0.89246 0.09904 0.04284 0.0
C2046 C 0.88824 0.07412 0.03707 0.0
C2047 C 0.90593 0.06215 0.03168 0.0
C2048 C 0.92799 0.07522 0.03237 0.0
C2049 C 0.93272 0.09949 0.03859 0.0
C2050 C 0.95802 0.10937 0.03878 0.0
C2051 C 0.9623 0.12522 0.02019 0.0
C2052 C 0.96845 0.1227 0.06432 0.0
C2053 C 0.96681 0.0869 0.03139 0.0
C2054 C 0.94914 0.06743 0.02761 0.0
C2055 C 0.95291 0.04475 0.02044 0.0
C2056 C 0.97518 0.04179 0.0175 0.0
C2057 C 0.99386 0.06132 0.02186 0.0
C2058 C 0.98936 0.08425 0.02878 0.0
H2059 H 0.41683 0.41457 0.03798 0.0
H2060 H 0.37782 0.46462 0.06976 0.0
H2061 H 0.41152 0.49674 0.07431 0.0
H2062 H 0.47022 0.44239 0.07584 0.0
H2063 H 0.48732 0.4362 0.05147 0.0
H2064 H 0.46047 0.4168 0.05189 0.0
H2065 H 0.44744 0.42209 1.00908 0.0
H2066 H 0.47423 0.44148 1.00855 0.0
H2067 H 0.44824 0.45133 1.00377 0.0
H2068 H 0.44858 0.52379 0.07318 0.0
H2069 H 0.48675 0.54394 0.06687 0.0
H2070 H 0.50217 0.47645 0.03648 0.0
C2071 C 0.41541 0.43224 0.04612 0.0
C2072 C 0.39462 0.43702 0.05353 0.0
C2073 C 0.39351 0.46045 0.06396 0.0
C2074 C 0.41259 0.47885 0.06667 0.0
C2075 C 0.43273 0.47356 0.05899 0.0
C2076 C 0.43434 0.45084 0.04903 0.0
C2077 C 0.45784 0.4501 0.04153 0.0
C2078 C 0.46966 0.43551 0.05606 0.0
C2079 C 0.45687 0.4407 0.01411 0.0
C2080 C 0.46905 0.47601 0.04846 0.0
C2081 C 0.45427 0.4892 0.05858 0.0
C2082 C 0.46038 0.51363 0.06549 0.0
C2083 C 0.48211 0.52492 0.06177 0.0
C2084 C 0.49753 0.5118 0.05129 0.0
C2085 C 0.4909 0.48698 0.04482 0.0
H2086 H 0.42746 0.66748 0.7722 0.0
H2087 H 0.37476 0.61343 0.78851 0.0
H2088 H 0.3492 0.64182 0.79283 0.0
H2089 H 0.41503 0.71744 0.81381 0.0
H2090 H 0.42091 0.73769 0.79374 0.0
H2091 H 0.4349 0.71328 0.79181 0.0
H2092 H 0.42028 0.69959 0.7465 0.0
H2093 H 0.40626 0.72399 0.74836 0.0
H2094 H 0.39033 0.69434 0.73729 0.0
H2095 H 0.32822 0.67797 0.79514 0.0
H2096 H 0.31532 0.71505 0.79539 0.0
H2097 H 0.38129 0.74733 0.77817 0.0
C2098 C 0.41053 0.66135 0.77671 0.0
C2099 C 0.40367 0.63736 0.77995 0.0
C2100 C 0.38106 0.63108 0.78582 0.0
C2101 C 0.36625 0.6474 0.78834 0.0
C2102 C 0.37366 0.67066 0.78504 0.0
C2103 C 0.39544 0.67757 0.7793 0.0
C2104 C 0.39934 0.70358 0.77657 0.0
C2105 C 0.4187 0.7189 0.79508 0.0
C2106 C 0.40436 0.70549 0.75064 0.0
C2107 C 0.37656 0.7105 0.78186 0.0
C2108 C 0.36194 0.69111 0.78657 0.0
C2109 C 0.33985 0.693 0.79152 0.0
C2110 C 0.33255 0.71456 0.79165 0.0
C2111 C 0.34687 0.73515 0.78706 0.0
C2112 C 0.36949 0.7326 0.7821 0.0
H2113 H 0.23987 0.60334 0.57319 0.0
H2114 H 0.2625 0.57805 0.50377 0.0
H2115 H 0.22245 0.56461 0.48592 0.0
H2116 H 0.19023 0.55597 0.56834 0.0
H2117 H 0.17341 0.57518 0.58331 0.0
H2118 H 0.20371 0.58193 0.59051 0.0
H2119 H 0.20571 0.62303 0.58017 0.0
H2120 H 0.17544 0.61636 0.57278 0.0
H2121 H 0.1938 0.62519 0.55082 0.0
H2122 H 0.1792 0.55576 0.47526 0.0
H2123 H 0.13755 0.55037 0.47327 0.0
H2124 H 0.14329 0.58083 0.55004 0.0
C2125 C 0.23651 0.59477 0.55426 0.0
C2126 C 0.25456 0.59175 0.53994 0.0
C2127 C 0.24914 0.58047 0.51522 0.0
C2128 C 0.22637 0.57286 0.5049 0.0
C2129 C 0.20906 0.57646 0.5195 0.0
C2130 C 0.21393 0.58697 0.54374 0.0
C2131 C 0.19234 0.58901 0.55557 0.0
C2132 C 0.18977 0.57467 0.57562 0.0
C2133 C 0.1918 0.61494 0.56541 0.0
C2134 C 0.17447 0.5782 0.5342 0.0
C2135 C 0.18444 0.57112 0.51352 0.0
C2136 C 0.17133 0.56113 0.49143 0.0
C2137 C 0.14758 0.5582 0.49047 0.0
C2138 C 0.13689 0.56508 0.51148 0.0
C2139 C 0.15074 0.57523 0.53362 0.0
H2140 H 0.76139 0.01779 0.77363 0.0
H2141 H 0.70359 0.99156 0.80985 0.0
H2142 H 0.72761 0.97201 0.83286 0.0
H2143 H 0.78462 0.96706 0.76683 0.0
H2144 H 0.81358 0.98325 0.77207 0.0
H2145 H 0.7919 0.99578 0.75952 0.0
H2146 H 0.80343 0.03267 0.7943 0.0
H2147 H 0.82497 0.02006 0.80715 0.0
H2148 H 0.80364 0.02919 0.8253 0.0
H2149 H 0.75759 0.9536 0.85005 0.0
H2150 H 0.79011 0.93571 0.85795 0.0
H2151 H 0.82857 0.97615 0.81202 0.0
C2152 C 0.7537 1.00795 0.78638 0.0
C2153 C 0.73059 1.00613 0.7899 0.0
C2154 C 0.72126 0.99312 0.80682 0.0
C2155 C 0.73479 0.98211 0.82008 0.0
C2156 C 0.75761 0.98453 0.81634 0.0
C2157 C 0.76694 0.99709 0.79984 0.0
C2158 C 0.79163 0.99634 0.79841 0.0
C2159 C 0.79565 0.98492 0.77269 0.0
C2160 C 0.80681 0.02104 0.8068 0.0
C2161 C 0.79465 0.98086 0.81624 0.0
C2162 C 0.77494 0.97441 0.82661 0.0
C2163 C 0.77323 0.95883 0.84236 0.0
C2164 C 0.79191 0.94894 0.84692 0.0
C2165 C 0.81198 0.95464 0.83571 0.0
C2166 C 0.8135 0.97145 0.82088 0.0
H2167 H 0.7892 0.96943 0.51275 0.0
H2168 H 0.75988 0.92099 0.55684 0.0
H2169 H 0.72462 0.93588 0.55505 0.0
H2170 H 0.76473 0.01776 0.5395 0.0
H2171 H 0.75998 0.02703 0.51135 0.0
H2172 H 0.78292 1.01248 0.51597 0.0
H2173 H 0.76727 0.98105 0.47697 0.0
H2174 H 0.74424 0.99547 0.47227 0.0
H2175 H 0.7384 0.96479 0.47388 0.0
H2176 H 0.69239 0.95563 0.54814 0.0
H2177 H 0.66562 0.97942 0.53722 0.0
H2178 H 0.71617 0.01581 0.49854 0.0
C2179 C 0.77538 0.96193 0.52204 0.0
C2180 C 0.77734 0.944 0.53492 0.0
C2181 C 0.75883 0.93474 0.54686 0.0
C2182 C 0.7387 0.94306 0.54593 0.0
C2183 C 0.73732 0.9607 0.53305 0.0
C2184 C 0.75517 0.97009 0.52137 0.0
C2185 C 0.74933 0.98904 0.50893 0.0
C2186 C 0.76518 1.01299 0.51958 0.0
C2187 C 0.74984 0.98217 0.48138 0.0
C2188 C 0.7254 0.98878 0.5154 0.0
C2189 C 0.7188 0.97228 0.52929 0.0
C2190 C 0.69741 0.96871 0.53739 0.0
C2191 C 0.68237 0.98244 0.53121 0.0
C2192 C 0.68878 0.99964 0.51714 0.0
C2193 C 0.71062 1.0027 0.50912 0.0
H2194 H 0.42723 0.46758 0.77897 0.0
H2195 H 0.37133 0.50095 0.76541 0.0
H2196 H 0.34442 0.46314 0.76425 0.0
H2197 H 0.40331 0.41023 0.74077 0.0
H2198 H 0.4142 0.39394 0.76107 0.0
H2199 H 0.42896 0.42339 0.76064 0.0
H2200 H 0.42673 0.43579 0.80659 0.0
H2201 H 0.412 0.40637 0.80716 0.0
H2202 H 0.39957 0.4311 0.81827 0.0
H2203 H 0.32301 0.41995 0.76368 0.0
H2204 H 0.30967 0.37826 0.76537 0.0
H2205 H 0.37908 0.372 0.7808 0.0
C2206 C 0.40932 0.4671 0.77571 0.0
C2207 C 0.40175 0.48791 0.77216 0.0
C2208 C 0.37796 0.48583 0.76816 0.0
C2209 C 0.36244 0.46417 0.76745 0.0
C2210 C 0.37055 0.44419 0.77094 0.0
C2211 C 0.39354 0.44557 0.77515 0.0
C2212 C 0.39793 0.42163 0.77873 0.0
C2213 C 0.41194 0.41171 0.75914 0.0
C2214 C 0.40976 0.42386 0.8042 0.0
C2215 C 0.3739 0.40638 0.77582 0.0
C2216 C 0.35838 0.41979 0.77119 0.0
C2217 C 0.33521 0.40959 0.76741 0.0
C2218 C 0.32771 0.38554 0.76838 0.0
C2219 C 0.34298 0.37107 0.77331 0.0
C2220 C 0.36661 0.38208 0.77712 0.0
H2221 H 0.22979 0.6102 0.21911 0.0
H2222 H 0.2813 0.59586 0.17182 0.0
H2223 H 0.30026 0.63799 0.18241 0.0
H2224 H 0.22652 0.66703 0.20622 0.0
H2225 H 0.22252 0.67914 0.23698 0.0
H2226 H 0.21277 0.6481 0.22484 0.0
H2227 H 0.23646 0.63879 0.26028 0.0
H2228 H 0.24634 0.66978 0.27248 0.0
H2229 H 0.26643 0.65126 0.26578 0.0
H2230 H 0.31426 0.68168 0.19967 0.0
H2231 H 0.32167 0.72321 0.22148 0.0
H2232 H 0.26059 0.7079 0.25697 0.0
C2233 C 0.24497 0.61586 0.21079 0.0
C2234 C 0.25407 0.59975 0.19462 0.0
C2235 C 0.274 0.60793 0.18423 0.0
C2236 C 0.28488 0.6318 0.19013 0.0
C2237 C 0.27554 0.64716 0.20636 0.0
C2238 C 0.25597 0.63949 0.21644 0.0
C2239 C 0.24955 0.65929 0.23377 0.0
C2240 C 0.22647 0.66365 0.22491 0.0
C2241 C 0.24972 0.65449 0.2596 0.0
C2242 C 0.26864 0.67935 0.23203 0.0
C2243 C 0.28348 0.67209 0.21614 0.0
C2244 C 0.30268 0.68758 0.21205 0.0
C2245 C 0.30676 0.7111 0.22454 0.0
C2246 C 0.29168 0.71881 0.24087 0.0
C2247 C 0.2724 0.70264 0.24452 0.0
H2248 H 0.55256 0.79529 0.52546 0.0
H2249 H 0.48949 0.75665 0.48354 0.0
H2250 H 0.48627 0.7276 0.5098 0.0
H2251 H 0.57484 0.74921 0.52811 0.0
H2252 H 0.5891 0.75888 0.55839 0.0
H2253 H 0.58306 0.78016 0.54159 0.0
H2254 H 0.56136 0.79767 0.57614 0.0
H2255 H 0.56736 0.77625 0.59312 0.0
H2256 H 0.53852 0.77879 0.58647 0.0
H2257 H 0.49421 0.69857 0.53312 0.0
H2258 H 0.51369 0.67116 0.5491 0.0
H2259 H 0.57136 0.72825 0.57768 0.0
C2260 C 0.53761 0.78124 0.52248 0.0
C2261 C 0.52123 0.77824 0.50259 0.0
C2262 C 0.50222 0.75929 0.49874 0.0
C2263 C 0.50014 0.74282 0.51373 0.0
C2264 C 0.5171 0.74566 0.5326 0.0
C2265 C 0.53543 0.76453 0.53715 0.0
C2266 C 0.55331 0.76136 0.55553 0.0
C2267 C 0.57641 0.76244 0.54527 0.0
C2268 C 0.55524 0.7796 0.57922 0.0
C2269 C 0.54309 0.73688 0.55897 0.0
C2270 C 0.52182 0.7285 0.54631 0.0
C2271 C 0.51052 0.70515 0.54373 0.0
C2272 C 0.52175 0.68965 0.55304 0.0
C2273 C 0.54417 0.69751 0.56461 0.0
C2274 C 0.55426 0.72173 0.5689 0.0
H2275 H 0.67069 0.3332 0.6815 0.0
H2276 H 0.6191 0.29578 0.71826 0.0
H2277 H 0.64873 0.2927 0.74893 0.0
H2278 H 0.71034 0.29909 0.68802 0.0
H2279 H 0.73475 0.32303 0.69277 0.0
H2280 H 0.70936 0.32474 0.67544 0.0
H2281 H 0.70813 0.36412 0.7041 0.0
H2282 H 0.73363 0.36256 0.72146 0.0
H2283 H 0.70854 0.36546 0.73625 0.0
H2284 H 0.6842 0.29046 0.77321 0.0
H2285 H 0.72282 0.28965 0.78954 0.0
H2286 H 0.75076 0.32856 0.73656 0.0
C2287 C 0.66554 0.32473 0.69623 0.0
C2288 C 0.6426 0.31475 0.69753 0.0
C2289 C 0.63659 0.3036 0.71695 0.0
C2290 C 0.65328 0.30181 0.73448 0.0
C2291 C 0.6758 0.31141 0.73236 0.0
C2292 C 0.68192 0.32278 0.71381 0.0
C2293 C 0.70735 0.33024 0.71465 0.0
C2294 C 0.71594 0.31857 0.69134 0.0
C2295 C 0.71485 0.3572 0.71941 0.0
C2296 C 0.7146 0.32068 0.73617 0.0
C2297 C 0.6962 0.31009 0.74631 0.0
C2298 C 0.69876 0.29896 0.76563 0.0
C2299 C 0.72075 0.29853 0.77471 0.0
C2300 C 0.7398 0.30907 0.76435 0.0
C2301 C 0.73658 0.32048 0.74502 0.0
H2302 H 0.02522 0.3498 0.9202 0.0
H2303 H 0.966 0.33048 0.95739 0.0
H2304 H 0.96602 0.37246 0.97184 0.0
H2305 H 0.05306 0.39842 0.96515 0.0
H2306 H 0.06405 0.41625 0.94426 0.0
H2307 H 0.05852 0.38467 0.93547 0.0
H2308 H 0.03235 0.38613 0.89786 0.0
H2309 H 0.03785 0.41776 0.90652 0.0
H2310 H 1.00912 0.40097 0.90181 0.0
H2311 H 0.97421 0.41623 0.98486 0.0
H2312 H 0.98928 0.45916 0.99435 0.0
H2313 H 0.04243 0.44992 0.94772 0.0
C2314 C 1.01211 0.35438 0.93116 0.0
C2315 C 0.99563 0.33689 0.9377 0.0
C2316 C 0.97879 0.34359 0.95214 0.0
C2317 C 0.97864 0.36738 0.96041 0.0
C2318 C 0.99529 0.38418 0.9539 0.0
C2319 C 1.01162 0.37802 0.93946 0.0
C2320 C 0.02804 0.39953 0.93573 0.0
C2321 C 0.05235 0.39972 0.94576 0.0
C2322 C 0.02675 0.40119 0.90888 0.0
C2323 C 0.01865 0.41873 0.95073 0.0
C2324 C 0.99974 0.40951 0.96102 0.0
C2325 C 0.98883 0.42371 0.97667 0.0
C2326 C 0.99755 0.44803 0.98201 0.0
C2327 C 0.0169 0.45781 0.97162 0.0
C2328 C 0.0274 0.44295 0.95562 0.0
H2329 H 0.02243 0.78001 0.15655 0.0
H2330 H 0.03715 0.71307 0.16572 0.0
H2331 H 1.00325 0.70569 0.18744 0.0
H2332 H 1.00526 0.79581 0.21423 0.0
H2333 H 0.98315 0.8095 0.20447 0.0
H2334 H 1.00729 0.8085 0.18766 0.0
H2335 H 0.98066 0.78781 0.14861 0.0
H2336 H 0.95639 0.78876 0.16533 0.0
H2337 H 0.96038 0.76106 0.14851 0.0
H2338 H 0.96958 0.70698 0.21081 0.0
H2339 H 0.93843 0.71692 0.23417 0.0
H2340 H 0.94589 0.78301 0.20983 0.0
C2341 C 0.01835 0.76362 0.16278 0.0
C2342 C 0.03241 0.74709 0.15939 0.0
C2343 C 0.02662 0.72599 0.16808 0.0
C2344 C 1.00736 0.7216 0.18038 0.0
C2345 C 0.99405 0.73843 0.18372 0.0
C2346 C 0.99923 0.75898 0.1751 0.0
C2347 C 0.98291 0.77481 0.18229 0.0
C2348 C 0.9954 0.79855 0.1981 0.0
C2349 C 0.96928 0.7783 0.15985 0.0
C2350 C 0.96801 0.76016 0.19673 0.0
C2351 C 0.9746 0.73916 0.19718 0.0
C2352 C 0.96411 0.72326 0.21039 0.0
C2353 C 0.94655 0.7291 0.22369 0.0
C2354 C 0.93972 0.75067 0.22369 0.0
C2355 C 0.95045 0.7662 0.20977 0.0
H2356 H 0.53259 0.33527 0.12314 0.0
H2357 H 0.58744 0.30023 0.10357 0.0
H2358 H 0.59649 0.325 0.07345 0.0
H2359 H 0.51511 0.34257 0.0624 0.0
H2360 H 0.50911 0.37114 0.07334 0.0
H2361 H 0.50601 0.34953 0.09214 0.0
H2362 H 0.53333 0.37915 0.12633 0.0
H2363 H 0.53656 0.4008 0.10762 0.0
H2364 H 0.56118 0.39232 0.11997 0.0
H2365 H 0.60082 0.3551 0.04697 0.0
H2366 H 0.60038 0.38855 0.02668 0.0
H2367 H 0.54246 0.40344 0.0634 0.0
C2368 C 0.54634 0.33258 0.11234 0.0
C2369 C 0.55928 0.31577 0.11569 0.0
C2370 C 0.57727 0.31299 0.10132 0.0
C2371 C 0.58252 0.32694 0.08412 0.0
C2372 C 0.56958 0.34353 0.08147 0.0
C2373 C 0.55183 0.34637 0.09515 0.0
C2374 C 0.54118 0.36613 0.08957 0.0
C2375 C 0.51638 0.35677 0.07871 0.0
C2376 C 0.5432 0.38576 0.11222 0.0
C2377 C 0.55596 0.37423 0.07091 0.0
C2378 C 0.57212 0.36088 0.06633 0.0
C2379 C 0.5881 0.36554 0.05025 0.0
C2380 C 0.58765 0.3845 0.03873 0.0
C2381 C 0.5714 0.39862 0.04344 0.0
C2382 C 0.55524 0.39314 0.05957 0.0
H2383 H 0.06327 0.30408 0.32336 0.0
H2384 H 0.03509 0.23612 0.33943 0.0
H2385 H 1.00106 0.2328 0.31134 0.0
H2386 H 0.01656 0.32495 0.32747 0.0
H2387 H 0.01987 0.34139 0.30367 0.0
H2388 H 0.04433 0.33549 0.31899 0.0
H2389 H 0.05577 0.31569 0.27805 0.0
H2390 H 0.03131 0.32174 0.26246 0.0
H2391 H 0.03574 0.29206 0.25825 0.0
H2392 H 0.96738 0.2408 0.28921 0.0
H2393 H 0.93712 0.25967 0.27644 0.0
H2394 H 0.98702 0.32255 0.27469 0.0
C2395 C 0.05034 0.28806 0.32031 0.0
C2396 C 0.05184 0.27034 0.33357 0.0
C2397 C 0.03439 0.24985 0.32934 0.0
C2398 C 1.01502 0.24778 0.31333 0.0
C2399 C 1.01356 0.26622 0.30151 0.0
C2400 C 0.03093 0.28587 0.30462 0.0
C2401 C 0.02394 0.30489 0.29315 0.0
C2402 C 0.02631 0.32801 0.31194 0.0
C2403 C 0.0375 0.30881 0.2717 0.0
C2404 C 0.99941 0.29358 0.2846 0.0
C2405 C 0.9939 0.271 0.28888 0.0
C2406 C 0.97163 0.25819 0.28516 0.0
C2407 C 0.95451 0.26905 0.27781 0.0
C2408 C 0.95968 0.29259 0.27453 0.0
C2409 C 0.98254 0.30453 0.277 0.0
H2410 H 0.99437 0.68367 0.60844 0.0
H2411 H 0.99968 0.72429 0.55181 0.0
H2412 H 0.01609 0.69417 0.52696 0.0
H2413 H 0.04556 0.66727 0.60456 0.0
H2414 H 0.03632 0.63783 0.60947 0.0
H2415 H 0.02186 0.66055 0.62163 0.0
H2416 H 0.98365 0.63556 0.59927 0.0
H2417 H 0.99789 0.61245 0.58751 0.0
H2418 H 0.98148 0.62436 0.56708 0.0
H2419 H 0.03684 0.66307 0.51102 0.0
H2420 H 0.05566 0.62963 0.50203 0.0
H2421 H 0.0363 0.6086 0.56864 0.0
C2422 C 0.99834 0.68591 0.59051 0.0
C2423 C 0.99579 0.70639 0.5821 0.0
C2424 C 1.00139 0.70873 0.55862 0.0
C2425 C 1.01083 0.69176 0.5444 0.0
C2426 C 1.01423 0.67244 0.55379 0.0
C2427 C 1.00768 0.6691 0.57605 0.0
C2428 C 1.01422 0.64737 0.58242 0.0
C2429 C 0.03046 0.65365 0.60591 0.0
C2430 C 0.99305 0.62883 0.58416 0.0
C2431 C 0.02611 0.63945 0.56061 0.0
C2432 C 0.02592 0.65417 0.54434 0.0
C2433 C 0.03678 0.65117 0.5234 0.0
C2434 C 0.04762 0.63223 0.5186 0.0
C2435 C 0.04745 0.61644 0.53463 0.0
C2436 C 0.03668 0.62029 0.55601 0.0
H2437 H 0.68267 0.82888 0.88775 0.0
H2438 H 0.64281 0.84959 0.83208 0.0
H2439 H 0.67655 0.85725 0.81031 0.0
H2440 H 0.73564 0.87238 0.88623 0.0
H2441 H 0.7533 0.85211 0.89116 0.0
H2442 H 0.72651 0.85034 0.90364 0.0
H2443 H 0.71414 0.80649 0.88194 0.0
H2444 H 0.74087 0.80814 0.86951 0.0
H2445 H 0.71482 0.7986 0.84964 0.0
H2446 H 0.7127 0.85725 0.79182 0.0
H2447 H 0.74987 0.85151 0.77897 0.0
H2448 H 0.76724 0.83386 0.84782 0.0
C2449 C 0.68114 0.83534 0.87116 0.0
C2450 C 0.66014 0.8386 0.86157 0.0
C2451 C 0.65876 0.84704 0.8398 0.0
C2452 C 0.67784 0.8515 0.82732 0.0
C2453 C 0.69823 0.84784 0.83708 0.0
C2454 C 0.70011 0.84022 0.85864 0.0
C2455 C 0.72377 0.83662 0.86456 0.0
C2456 C 0.7355 0.8539 0.88778 0.0
C2457 C 0.72336 0.81094 0.86651 0.0
C2458 C 0.73458 0.84249 0.84247 0.0
C2459 C 0.71957 0.84901 0.82688 0.0
C2460 C 0.72484 0.8528 0.80412 0.0
C2461 C 0.74588 0.84947 0.79695 0.0
C2462 C 0.76139 0.84278 0.81267 0.0
C2463 C 0.75588 0.83976 0.83586 0.0
H2464 H 0.45863 0.52531 0.67897 0.0
H2465 H 0.49372 0.59126 0.72521 0.0
H2466 H 0.51996 0.59736 0.69389 0.0
H2467 H 0.50832 0.50756 0.65458 0.0
H2468 H 0.49418 0.49483 0.62462 0.0
H2469 H 0.47822 0.49567 0.65048 0.0
H2470 H 0.45144 0.51763 0.63093 0.0
H2471 H 0.46729 0.51682 0.605 0.0
H2472 H 0.46315 0.54456 0.62155 0.0
H2473 H 0.54302 0.59636 0.65581 0.0
H2474 H 0.55967 0.58882 0.61721 0.0
H2475 H 0.51037 0.52303 0.59447 0.0
C2476 C 0.47182 0.54113 0.68271 0.0
C2477 C 0.47368 0.55781 0.70527 0.0
C2478 C 0.49148 0.57809 0.70864 0.0
C2479 C 0.50662 0.58169 0.69069 0.0
C2480 C 0.50422 0.56495 0.66888 0.0
C2481 C 0.48716 0.545 0.66488 0.0
C2482 C 0.48814 0.52966 0.63986 0.0
C2483 C 0.49247 0.50549 0.64255 0.0
C2484 C 0.4662 0.52701 0.62336 0.0
C2485 C 0.50842 0.54391 0.63026 0.0
C2486 C 0.51739 0.56427 0.64735 0.0
C2487 C 0.53596 0.58037 0.64258 0.0
C2488 C 0.54545 0.57583 0.62026 0.0
C2489 C 0.53689 0.55514 0.60206 0.0
C2490 C 0.51788 0.53896 0.60758 0.0
H2491 H 0.8161 0.20142 0.02458 0.0
H2492 H 0.82705 0.13673 0.98083 0.0
H2493 H 0.82424 0.15356 0.94421 0.0
H2494 H 0.77532 0.21231 0.98278 0.0
H2495 H 0.78546 0.24379 0.98948 0.0
H2496 H 0.7893 0.22705 1.01235 0.0
H2497 H 0.83256 0.2441 0.01739 0.0
H2498 H 0.82884 0.261 0.99461 0.0
H2499 H 0.84812 0.2412 0.99124 0.0
H2500 H 0.81824 0.17677 0.91214 0.0
H2501 H 0.81056 0.20491 0.8872 0.0
H2502 H 0.80499 0.25488 0.95231 0.0
C2503 C 0.81806 0.1908 1.00734 0.0
C2504 C 0.82176 0.16773 1.00557 0.0
C2505 C 0.82423 0.15446 0.98264 0.0
C2506 C 0.82265 0.16386 0.96174 0.0
C2507 C 0.81876 0.18658 0.96411 0.0
C2508 C 0.81664 0.19993 0.98636 0.0
C2509 C 0.81219 0.22373 0.98398 0.0
C2510 C 0.7892 0.22689 0.99266 0.0
C2511 C 0.83159 0.24368 0.99761 0.0
C2512 C 0.81179 0.22158 0.95687 0.0
C2513 C 0.81565 0.20005 0.94573 0.0
C2514 C 0.81547 0.1938 0.9207 0.0
C2515 C 0.81121 0.20998 0.90669 0.0
C2516 C 0.80727 0.23223 0.91774 0.0
C2517 C 0.8077 0.23799 0.94321 0.0
H2518 H 0.16504 0.51762 0.1279 0.0
H2519 H 0.12184 0.5306 0.18515 0.0
H2520 H 0.08969 0.52681 0.15454 0.0
H2521 H 0.14367 0.55142 0.09179 0.0
H2522 H 0.14498 0.53281 0.06307 0.0
H2523 H 0.16444 0.53327 0.08869 0.0
H2524 H 0.15181 0.48842 0.08477 0.0
H2525 H 0.13275 0.48706 0.05846 0.0
H2526 H 0.12216 0.47534 0.08371 0.0
H2527 H 0.06336 0.52554 0.11807 0.0
H2528 H 0.04456 0.52604 0.0781 0.0
H2529 H 0.10472 0.51298 0.04484 0.0
C2530 C 0.14871 0.51919 0.134 0.0
C2531 C 0.14592 0.52432 0.1589 0.0
C2532 C 0.12437 0.52664 0.16616 0.0
C2533 C 0.10598 0.52445 0.14892 0.0
C2534 C 0.1094 0.5198 0.12453 0.0
C2535 C 0.13019 0.51707 0.11705 0.0
C2536 C 0.12983 0.51389 0.08985 0.0
C2537 C 0.14673 0.53403 0.08295 0.0
C2538 C 0.1344 0.48973 0.07854 0.0
C2539 C 0.10562 0.51536 0.08323 0.0
C2540 C 0.09411 0.51881 0.10346 0.0
C2541 C 0.07205 0.52246 0.10203 0.0
C2542 C 0.06155 0.52278 0.07929 0.0
C2543 C 0.07312 0.51935 0.05836 0.0
C2544 C 0.09529 0.51524 0.06041 0.0
H2545 H 0.85732 0.88204 0.46223 0.0
H2546 H 0.79754 0.84542 0.48838 0.0
H2547 H 0.78617 0.82013 0.44757 0.0
H2548 H 0.83223 0.88363 0.40541 0.0
H2549 H 0.85618 0.87873 0.38935 0.0
H2550 H 0.86048 0.89256 0.42095 0.0
H2551 H 0.8817 0.86074 0.43038 0.0
H2552 H 0.87762 0.84688 0.39873 0.0
H2553 H 0.86812 0.83007 0.421 0.0
H2554 H 0.77924 0.80208 0.40255 0.0
H2555 H 0.77915 0.79028 0.35815 0.0
H2556 H 0.84458 0.8373 0.3623 0.0
C2557 C 0.84202 0.86844 0.4595 0.0
C2558 C 0.8283 0.8657 0.47849 0.0
C2559 C 0.80839 0.84773 0.47415 0.0
C2560 C 0.80177 0.83334 0.451 0.0
C2561 C 0.81543 0.8369 0.43253 0.0
C2562 C 0.83535 0.85376 0.43666 0.0
C2563 C 0.84679 0.85449 0.41369 0.0
C2564 C 0.84904 0.87879 0.40696 0.0
C2565 C 0.86993 0.84763 0.4161 0.0
C2566 C 0.82992 0.83581 0.3958 0.0
C2567 C 0.8119 0.8259 0.40696 0.0
C2568 C 0.79348 0.80941 0.39374 0.0
C2569 C 0.79354 0.80288 0.36852 0.0
C2570 C 0.81199 0.81263 0.35683 0.0
C2571 C 0.83045 0.82917 0.37078 0.0
H2572 H 0.46449 0.52547 0.85628 0.0
H2573 H 0.48604 0.599 0.85316 0.0
H2574 H 0.50945 0.60573 0.89265 0.0
H2575 H 0.46091 0.53326 0.92054 0.0
H2576 H 0.47166 0.50754 0.92374 0.0
H2577 H 0.45691 0.50859 0.89538 0.0
H2578 H 0.49124 0.49994 0.87316 0.0
H2579 H 0.50609 0.49879 0.90145 0.0
H2580 H 0.51884 0.5186 0.88314 0.0
H2581 H 0.52977 0.60449 0.93505 0.0
H2582 H 0.54595 0.59546 0.97254 0.0
H2583 H 0.51303 0.52203 0.94784 0.0
C2584 C 0.47417 0.54309 0.86372 0.0
C2585 C 0.47304 0.56174 0.85098 0.0
C2586 C 0.48633 0.5843 0.86193 0.0
C2587 C 0.49973 0.58827 0.88463 0.0
C2588 C 0.50021 0.56954 0.89662 0.0
C2589 C 0.48789 0.54728 0.88627 0.0
C2590 C 0.49146 0.52996 0.90257 0.0
C2591 C 0.46889 0.5192 0.91105 0.0
C2592 C 0.50256 0.51068 0.88929 0.0
C2593 C 0.50757 0.54583 0.92393 0.0
C2594 C 0.51229 0.56867 0.92019 0.0
C2595 C 0.52617 0.58658 0.93776 0.0
C2596 C 0.53537 0.5812 0.95928 0.0
C2597 C 0.53123 0.55792 0.96374 0.0
C2598 C 0.51701 0.54002 0.94538 0.0
H2599 H 0.81658 0.16438 0.12765 0.0
H2600 H 0.87129 0.20825 0.10051 0.0
H2601 H 0.86879 0.242 0.13229 0.0
H2602 H 0.78389 0.20871 0.14385 0.0
H2603 H 0.77573 0.19954 0.17124 0.0
H2604 H 0.78148 0.17841 0.14628 0.0
H2605 H 0.81143 0.16735 0.17433 0.0
H2606 H 0.80558 0.18826 0.19942 0.0
H2607 H 0.83412 0.19016 0.19138 0.0
H2608 H 0.8604 0.27132 0.16642 0.0
H2609 H 0.84868 0.29367 0.20297 0.0
H2610 H 0.7997 0.23141 0.20935 0.0
C2611 C 0.82809 0.18106 0.12846 0.0
C2612 C 0.84413 0.18354 0.11142 0.0
C2613 C 0.85888 0.20573 0.11325 0.0
C2614 C 0.85754 0.22512 0.13122 0.0
C2615 C 0.84143 0.22218 0.14748 0.0
C2616 C 0.82711 0.20069 0.14652 0.0
C2617 C 0.81175 0.20237 0.16675 0.0
C2618 C 0.78673 0.19694 0.1564 0.0
C2619 C 0.81598 0.18607 0.18399 0.0
C2620 C 0.81967 0.22814 0.1791 0.0
C2621 C 0.83672 0.2392 0.16753 0.0
C2622 C 0.84705 0.26285 0.17563 0.0
C2623 C 0.84018 0.27545 0.19643 0.0
C2624 C 0.82313 0.26446 0.2091 0.0
C2625 C 0.81256 0.2405 0.2 0.0
H2626 H 0.18624 0.57877 0.2802 0.0
H2627 H 0.18148 0.50354 0.25763 0.0
H2628 H 0.15825 0.49663 0.29095 0.0
H2629 H 0.1887 0.58072 0.34553 0.0
H2630 H 0.17176 0.60272 0.35043 0.0
H2631 H 0.18958 0.60172 0.32611 0.0
H2632 H 0.15477 0.59873 0.29558 0.0
H2633 H 0.13681 0.59949 0.31973 0.0
H2634 H 0.13022 0.57542 0.29384 0.0
H2635 H 0.13351 0.49786 0.32515 0.0
H2636 H 0.10958 0.50718 0.35791 0.0
H2637 H 0.13071 0.58157 0.35779 0.0
C2638 C 0.18065 0.56085 0.28246 0.0
C2639 C 0.18574 0.54169 0.26635 0.0
C2640 C 0.17785 0.5185 0.2698 0.0
C2641 C 0.16465 0.5144 0.28867 0.0
C2642 C 0.15956 0.53367 0.30392 0.0
C2643 C 0.16743 0.55645 0.3011 0.0
C2644 C 0.15872 0.57402 0.31919 0.0
C2645 C 0.17837 0.59078 0.33633 0.0
C2646 C 0.14427 0.58771 0.3063 0.0
C2647 C 0.14439 0.55755 0.33236 0.0
C2648 C 0.14521 0.53437 0.32344 0.0
C2649 C 0.1329 0.51597 0.33244 0.0
C2650 C 0.11942 0.52144 0.35107 0.0
C2651 C 0.11827 0.5451 0.36039 0.0
C2652 C 0.13103 0.56331 0.35088 0.0
H2653 H 0.80994 0.83686 0.60846 0.0
H2654 H 0.83813 0.91203 0.62777 0.0
H2655 H 0.83975 0.91021 0.67099 0.0
H2656 H 0.77521 0.83394 0.65726 0.0
H2657 H 0.78043 0.80607 0.66198 0.0
H2658 H 0.78156 0.81309 0.63238 0.0
H2659 H 0.82231 0.80562 0.63142 0.0
H2660 H 0.82124 0.79848 0.66097 0.0
H2661 H 0.84377 0.82124 0.65572 0.0
H2662 H 0.83739 0.9006 0.71228 0.0
H2663 H 0.83311 0.88335 0.74864 0.0
H2664 H 0.80732 0.8143 0.70271 0.0
C2665 C 0.81651 0.85293 0.62176 0.0
C2666 C 0.82386 0.8746 0.61462 0.0
C2667 C 0.83242 0.89519 0.63268 0.0
C2668 C 0.83336 0.89437 0.65734 0.0
C2669 C 0.82584 0.8728 0.66375 0.0
C2670 C 0.81774 0.85241 0.64652 0.0
C2671 C 0.81094 0.83147 0.65834 0.0
C2672 C 0.78553 0.82051 0.65212 0.0
C2673 C 0.82543 0.81313 0.65119 0.0
C2674 C 0.81637 0.84334 0.68487 0.0
C2675 C 0.82485 0.8672 0.68759 0.0
C2676 C 0.83084 0.88191 0.71038 0.0
C2677 C 0.82829 0.87195 0.73094 0.0
C2678 C 0.81992 0.84745 0.72861 0.0
C2679 C 0.81384 0.83307 0.70518 0.0
H2680 H 0.70705 0.46808 0.5007 0.0
H2681 H 0.75656 0.53262 0.52992 0.0
H2682 H 0.7255 0.55291 0.54117 0.0
H2683 H 0.66554 0.497 0.47559 0.0
H2684 H 0.64137 0.47688 0.48191 0.0
H2685 H 0.66717 0.467 0.47603 0.0
H2686 H 0.66845 0.45333 0.51664 0.0
H2687 H 0.64275 0.46312 0.52328 0.0
H2688 H 0.66792 0.474 0.54434 0.0
H2689 H 0.68863 0.56601 0.55055 0.0
H2690 H 0.64962 0.57157 0.55468 0.0
H2691 H 0.62342 0.49875 0.51884 0.0
C2692 C 0.71142 0.48654 0.50935 0.0
C2693 C 0.73451 0.49867 0.51442 0.0
C2694 C 0.73921 0.52286 0.52567 0.0
C2695 C 0.7216 0.53454 0.53225 0.0
C2696 C 0.69913 0.52197 0.5273 0.0
C2697 C 0.69399 0.49856 0.51578 0.0
C2698 C 0.6684 0.48926 0.51196 0.0
C2699 C 0.66013 0.4821 0.48477 0.0
C2700 C 0.66148 0.46869 0.52482 0.0
C2701 C 0.65991 0.51082 0.52385 0.0
C2702 C 0.67796 0.52954 0.53244 0.0
C2703 C 0.67445 0.55142 0.54384 0.0
C2704 C 0.65209 0.55439 0.5462 0.0
C2705 C 0.63314 0.53562 0.53737 0.0
C2706 C 0.63734 0.51344 0.5262 0.0
H2707 H 0.20413 0.18287 0.52556 0.0
H2708 H 0.24014 0.13739 0.48083 0.0
H2709 H 0.20709 0.10435 0.47626 0.0
H2710 H 0.17905 0.14106 0.55767 0.0
H2711 H 0.15265 0.15079 0.55908 0.0
H2712 H 0.17832 0.17125 0.55702 0.0
H2713 H 0.15967 0.1811 0.51867 0.0
H2714 H 0.13393 0.16072 0.52082 0.0
H2715 H 0.14745 0.15762 0.49326 0.0
H2716 H 0.1704 0.07552 0.47843 0.0
H2717 H 0.13394 0.05365 0.4881 0.0
H2718 H 0.12287 0.11836 0.53163 0.0
C2719 C 0.205 0.16607 0.51452 0.0
C2720 C 0.22475 0.16278 0.50351 0.0
C2721 C 0.2252 0.14039 0.48942 0.0
C2722 C 0.20648 0.12151 0.48666 0.0
C2723 C 0.18738 0.12529 0.49802 0.0
C2724 C 0.18652 0.14707 0.51162 0.0
C2725 C 0.16453 0.14632 0.52303 0.0
C2726 C 0.16891 0.15273 0.55085 0.0
C2727 C 0.15057 0.16239 0.51335 0.0
C2728 C 0.15337 0.12063 0.51417 0.0
C2729 C 0.16661 0.10877 0.49954 0.0
C2730 C 0.15985 0.08468 0.48977 0.0
C2731 C 0.13913 0.07239 0.49533 0.0
C2732 C 0.12562 0.08421 0.51074 0.0
C2733 C 0.13284 0.1087 0.51994 0.0
H2734 H 0.21057 0.93301 0.79912 0.0
H2735 H 0.25424 0.97998 0.76332 0.0
H2736 H 0.2791 0.95097 0.75653 0.0
H2737 H 0.25534 0.91167 0.82912 0.0
H2738 H 0.23913 0.88204 0.82551 0.0
H2739 H 0.22487 0.90626 0.82746 0.0
H2740 H 0.20108 0.88633 0.78671 0.0
H2741 H 0.21513 0.86195 0.78462 0.0
H2742 H 0.21518 0.87784 0.76038 0.0
H2743 H 0.30053 0.91454 0.75391 0.0
H2744 H 0.31429 0.87809 0.75542 0.0
H2745 H 0.25679 0.85356 0.79254 0.0
C2746 C 0.22535 0.93746 0.78978 0.0
C2747 C 0.22988 0.95965 0.78184 0.0
C2748 C 0.24976 0.96376 0.76976 0.0
C2749 C 0.26418 0.94706 0.76581 0.0
C2750 C 0.25909 0.92559 0.77386 0.0
C2751 C 0.23998 0.92086 0.78566 0.0
C2752 C 0.23811 0.89657 0.79267 0.0
C2753 C 0.23943 0.89929 0.82033 0.0
C2754 C 0.21606 0.87967 0.78037 0.0
C2755 C 0.25894 0.88804 0.78292 0.0
C2756 C 0.27092 0.90514 0.77221 0.0
C2757 C 0.29092 0.90132 0.76226 0.0
C2758 C 0.29875 0.88015 0.76319 0.0
C2759 C 0.28699 0.86191 0.77387 0.0
C2760 C 0.26655 0.86644 0.7839 0.0
H2761 H 0.38359 0.9826 0.98107 0.0
H2762 H 0.36453 0.01899 0.04809 0.0
H2763 H 0.40506 0.03597 0.06214 0.0
H2764 H 0.43296 0.968 1.00545 0.0
H2765 H 0.4493 0.97313 0.98072 0.0
H2766 H 0.41888 0.96462 0.97551 0.0
H2767 H 0.41752 1.00158 0.9577 0.0
H2768 H 0.44798 1.01013 0.96267 0.0
H2769 H 0.43093 0.03026 0.9753 0.0
H2770 H 0.4482 0.04573 0.07049 0.0
H2771 H 0.48976 0.05133 0.07064 0.0
H2772 H 0.48114 1.01131 0.99688 0.0
C2773 C 0.3879 0.99441 0.99859 0.0
C2774 C 0.37072 0.99943 0.01348 0.0
C2775 C 0.37722 0.01499 0.03625 0.0
C2776 C 0.40027 0.02462 0.04443 0.0
C2777 C 0.41675 0.01893 0.02949 0.0
C2778 C 0.41081 1.00454 1.00682 0.0
C2779 C 0.4318 1.00128 0.99422 0.0
C2780 C 0.43332 0.97521 0.98865 0.0
C2781 C 0.43207 1.01142 0.9711 0.0
C2782 C 0.45055 0.01572 0.01348 0.0
C2783 C 0.44148 0.02556 0.03379 0.0
C2784 C 0.45539 0.03841 0.05451 0.0
C2785 C 0.47905 0.04142 0.05447 0.0
C2786 C 0.48883 0.03201 0.03372 0.0
C2787 C 0.47426 0.01909 0.01289 0.0
H2788 H 0.84996 0.59416 0.77805 0.0
H2789 H 0.89138 0.60275 0.71916 0.0
H2790 H 0.86713 0.62761 0.70497 0.0
H2791 H 0.79567 0.59224 0.74464 0.0
H2792 H 0.78558 0.60865 0.77037 0.0
H2793 H 0.80521 0.59015 0.77488 0.0
H2794 H 0.83284 0.62571 0.80262 0.0
H2795 H 0.81323 0.6442 0.7984 0.0
H2796 H 0.84197 0.6522 0.79137 0.0
H2797 H 0.84009 0.65362 0.69898 0.0
H2798 H 0.81372 0.68071 0.70307 0.0
H2799 H 0.78937 0.65405 0.76514 0.0
C2800 C 0.85387 0.60111 0.76206 0.0
C2801 C 0.87253 0.5965 0.74968 0.0
C2802 C 0.87714 0.60605 0.72892 0.0
C2803 C 0.8634 0.62006 0.72063 0.0
C2804 C 0.84507 0.62416 0.73322 0.0
C2805 C 0.84033 0.61502 0.75353 0.0
C2806 C 0.82048 0.62317 0.76466 0.0
C2807 C 0.80056 0.60231 0.76356 0.0
C2808 C 0.82757 0.63716 0.7908 0.0
C2809 C 0.81515 0.63884 0.74781 0.0
C2810 C 0.82932 0.63895 0.72961 0.0
C2811 C 0.82861 0.65336 0.71286 0.0
C2812 C 0.81344 0.66854 0.71521 0.0
C2813 C 0.79934 0.66926 0.73427 0.0
C2814 C 0.79983 0.65373 0.7503 0.0
H2815 H 0.84463 0.66251 0.01939 0.0
H2816 H 0.83131 0.65008 0.94111 0.0
H2817 H 0.86154 0.62751 0.93685 0.0
H2818 H 0.9056 0.66911 0.02181 0.0
H2819 H 0.90735 0.65414 0.04661 0.0
H2820 H 0.88511 0.66998 0.04354 0.0
H2821 H 0.85504 0.6323 0.04374 0.0
H2822 H 0.87717 0.61634 0.0468 0.0
H2823 H 0.85495 0.60567 0.02211 0.0
H2824 H 0.89273 0.60565 0.94103 0.0
H2825 H 0.92204 0.58524 0.95344 0.0
H2826 H 0.91515 0.61198 0.02894 0.0
C2827 C 0.84814 0.65515 1.00134 0.0
C2828 C 0.8356 0.6581 0.98058 0.0
C2829 C 0.84065 0.64805 0.9573 0.0
C2830 C 0.85783 0.63523 0.95468 0.0
C2831 C 0.8698 0.63259 0.9755 0.0
C2832 C 0.86518 0.64222 0.99839 0.0
C2833 C 0.88019 0.63629 0.01781 0.0
C2834 C 0.89547 0.65872 0.03335 0.0
C2835 C 0.86598 0.62178 0.03353 0.0
C2836 C 0.89384 0.62166 1.00225 0.0
C2837 C 0.88769 0.61986 0.9779 0.0
C2838 C 0.89777 0.60704 0.96005 0.0
C2839 C 0.9145 0.59562 0.96728 0.0
C2840 C 0.92093 0.59703 0.99215 0.0
C2841 C 0.91047 0.61037 1.00979 0.0
H2842 H 0.26063 0.10485 0.75628 0.0
H2843 H 0.21375 0.1113 0.81068 0.0
H2844 H 0.22559 0.15481 0.81745 0.0
H2845 H 0.30559 0.15477 0.78782 0.0
H2846 H 0.31378 0.16371 0.76033 0.0
H2847 H 0.30176 0.13325 0.75989 0.0
H2848 H 0.27082 0.13334 0.72623 0.0
H2849 H 0.2827 0.16381 0.72663 0.0
H2850 H 0.25332 0.15483 0.73111 0.0
H2851 H 0.24143 0.19913 0.81642 0.0
H2852 H 0.261 0.23801 0.81048 0.0
H2853 H 0.30006 0.20412 0.75852 0.0
C2854 C 0.25289 0.11531 0.76983 0.0
C2855 C 0.236 0.10393 0.78296 0.0
C2856 C 0.22666 0.11892 0.8004 0.0
C2857 C 0.23331 0.14391 0.80428 0.0
C2858 C 0.24974 0.15437 0.7909 0.0
C2859 C 0.25964 0.14042 0.77421 0.0
C2860 C 0.27717 0.15605 0.76241 0.0
C2861 C 0.30099 0.15168 0.76794 0.0
C2862 C 0.27061 0.15175 0.73496 0.0
C2863 C 0.27556 0.18103 0.7748 0.0
C2864 C 0.25942 0.17958 0.79103 0.0
C2865 C 0.2542 0.20017 0.80391 0.0
C2866 C 0.26553 0.22245 0.80033 0.0
C2867 C 0.28253 0.22488 0.78418 0.0
C2868 C 0.28753 0.20345 0.77132 0.0
H2869 H 0.38226 0.95962 0.33587 0.0
H2870 H 0.31959 0.98429 0.34272 0.0
H2871 H 0.29931 0.94397 0.34343 0.0
H2872 H 0.36113 0.91038 0.29487 0.0
H2873 H 0.37789 0.89186 0.30611 0.0
H2874 H 0.38834 0.92312 0.31199 0.0
H2875 H 0.39285 0.92431 0.35814 0.0
H2876 H 0.38255 0.89286 0.35239 0.0
H2877 H 0.36895 0.91195 0.3725 0.0
H2878 H 0.28482 0.90041 0.33461 0.0
H2879 H 0.27775 0.85733 0.3187 0.0
H2880 H 0.34983 0.86133 0.31832 0.0
C2881 C 0.36441 0.9567 0.33832 0.0
C2882 C 0.35246 0.975 0.33921 0.0
C2883 C 0.32909 0.97051 0.34218 0.0
C2884 C 0.31745 0.94768 0.34265 0.0
C2885 C 0.32957 0.92976 0.34061 0.0
C2886 C 0.35264 0.93412 0.33891 0.0
C2887 C 0.36132 0.9116 0.33395 0.0
C2888 C 0.37282 0.90911 0.31033 0.0
C2889 C 0.37737 0.9101 0.35554 0.0
C2890 C 0.33932 0.89377 0.3315 0.0
C2891 C 0.32122 0.90454 0.33591 0.0
C2892 C 0.29889 0.89173 0.33191 0.0
C2893 C 0.29501 0.8674 0.32287 0.0
C2894 C 0.31336 0.85639 0.31799 0.0
C2895 C 0.33571 0.86954 0.32274 0.0
H2896 H 0.63896 0.38382 0.59789 0.0
H2897 H 0.63371 0.31723 0.54833 0.0
H2898 H 0.62734 0.33603 0.51374 0.0
H2899 H 0.59625 0.3997 0.57305 0.0
H2900 H 0.6078 0.4308 0.57703 0.0
H2901 H 0.61858 0.41429 0.59687 0.0
H2902 H 0.65953 0.42727 0.5856 0.0
H2903 H 0.64848 0.44477 0.5668 0.0
H2904 H 0.6645 0.42358 0.55413 0.0
H2905 H 0.60976 0.35833 0.48721 0.0
H2906 H 0.58756 0.38395 0.47053 0.0
H2907 H 0.60769 0.43704 0.53625 0.0
C2908 C 0.63763 0.37359 0.57964 0.0
C2909 C 0.63694 0.34928 0.57559 0.0
C2910 C 0.63467 0.33605 0.55166 0.0
C2911 C 0.63101 0.34658 0.53192 0.0
C2912 C 0.63042 0.37044 0.53653 0.0
C2913 C 0.63444 0.38397 0.55982 0.0
C2914 C 0.62988 0.40826 0.56044 0.0
C2915 C 0.61207 0.41352 0.57785 0.0
C2916 C 0.65193 0.42707 0.56711 0.0
C2917 C 0.62083 0.40565 0.53432 0.0
C2918 C 0.6215 0.38384 0.52063 0.0
C2919 C 0.61013 0.37587 0.49731 0.0
C2920 C 0.59751 0.39039 0.48798 0.0
C2921 C 0.59675 0.4126 0.50192 0.0
C2922 C 0.60903 0.42051 0.52496 0.0
H2923 H 0.42861 0.77612 0.41195 0.0
H2924 H 0.48323 0.79656 0.36901 0.0
H2925 H 0.45537 0.79421 0.33453 0.0
H2926 H 0.3901 0.73527 0.36222 0.0
H2927 H 0.36515 0.7441 0.3732 0.0
H2928 H 0.38925 0.74533 0.39422 0.0
H2929 H 0.39054 0.78932 0.41121 0.0
H2930 H 0.36659 0.78848 0.39023 0.0
H2931 H 0.39258 0.8096 0.39092 0.0
H2932 H 0.42228 0.79309 0.30605 0.0
H2933 H 0.3853 0.79254 0.28471 0.0
H2934 H 0.35175 0.77214 0.34538 0.0
C2935 C 0.43469 0.77971 0.39517 0.0
C2936 C 0.45809 0.78648 0.39317 0.0
C2937 C 0.46538 0.79137 0.371 0.0
C2938 C 0.4497 0.79 0.35125 0.0
C2939 C 0.42679 0.78362 0.3539 0.0
C2940 C 0.41922 0.77845 0.3752 0.0
C2941 C 0.39358 0.77343 0.37358 0.0
C2942 C 0.38396 0.74802 0.37594 0.0
C2943 C 0.38535 0.79127 0.39262 0.0
C2944 C 0.38805 0.77693 0.34819 0.0
C2945 C 0.40748 0.78274 0.33717 0.0
C2946 C 0.40689 0.78824 0.3143 0.0
C2947 C 0.38583 0.78798 0.30238 0.0
C2948 C 0.36569 0.78215 0.31333 0.0
C2949 C 0.36684 0.77627 0.3364 0.0
H2950 H 0.05412 0.70549 0.05391 0.0
H2951 H 0.11877 0.71665 0.09705 0.0
H2952 H 0.12386 0.67769 0.07618 0.0
H2953 H 0.03617 0.64685 0.05657 0.0
H2954 H 0.02213 0.63781 0.02617 0.0
H2955 H 0.02508 0.66766 0.04224 0.0
H2956 H 0.0451 0.6828 1.00731 0.0
H2957 H 0.04222 0.65291 0.99111 0.0
H2958 H 0.06977 0.67231 0.99771 0.0
H2959 H 0.12011 0.63601 0.0532 0.0
H2960 H 0.10706 0.59469 0.03121 0.0
H2961 H 0.04493 0.61153 1.00366 0.0
C2962 C 0.06955 0.69996 0.05869 0.0
C2963 C 0.08607 0.71409 0.07702 0.0
C2964 C 0.10589 0.70608 0.083 0.0
C2965 C 0.10899 0.68404 0.07117 0.0
C2966 C 0.09217 0.67038 0.05339 0.0
C2967 C 0.07286 0.67807 0.04716 0.0
C2968 C 0.05644 0.65937 0.02896 0.0
C2969 C 0.03362 0.65252 0.0391 0.0
C2970 C 0.05321 0.66733 1.00484 0.0
C2971 C 0.06921 0.63969 0.02647 0.0
C2972 C 0.08994 0.64641 0.04036 0.0
C2973 C 0.10405 0.63063 0.04198 0.0
C2974 C 0.09652 0.60723 0.02944 0.0
C2975 C 0.07501 0.59994 0.01576 0.0
C2976 C 0.06151 0.61657 0.01389 0.0
H2977 H 0.10025 0.31141 0.90143 0.0
H2978 H 0.06108 0.24219 0.8664 0.0
H2979 H 0.09115 0.23683 0.83985 0.0
H2980 H 0.12018 0.32791 0.84896 0.0
H2981 H 0.14798 0.34321 0.86311 0.0
H2982 H 0.12431 0.34097 0.88084 0.0
H2983 H 0.14564 0.32203 0.91046 0.0
H2984 H 0.16946 0.32434 0.89288 0.0
H2985 H 0.1563 0.2962 0.89882 0.0
H2986 H 0.12374 0.24017 0.81495 0.0
H2987 H 0.15781 0.25143 0.79446 0.0
H2988 H 0.17606 0.31817 0.84584 0.0
C2989 C 0.09814 0.29497 0.88845 0.0
C2990 C 0.0783 0.27722 0.88601 0.0
C2991 C 0.07613 0.25604 0.86864 0.0
C2992 C 0.09313 0.2528 0.85347 0.0
C2993 C 0.11225 0.27082 0.85601 0.0
C2994 C 0.11498 0.29141 0.87319 0.0
C2995 C 0.13678 0.30837 0.87151 0.0
C2996 C 0.13202 0.33147 0.86576 0.0
C2997 C 0.153 0.313 0.8948 0.0
C2998 C 0.14563 0.29428 0.85039 0.0
C2999 C 0.13124 0.27265 0.84177 0.0
C3000 C 0.13526 0.25696 0.82167 0.0
C3001 C 0.15453 0.26355 0.81007 0.0
C3002 C 0.16952 0.28561 0.81863 0.0
C3003 C 0.16504 0.30106 0.83915 0.0
H3004 H 0.59667 0.75441 0.94038 0.0
H3005 H 0.62744 0.81465 0.99733 0.0
H3006 H 0.62145 0.78961 0.02771 0.0
H3007 H 0.55374 0.72895 0.97333 0.0
H3008 H 0.5553 0.69905 0.96071 0.0
H3009 H 0.56256 0.72162 0.9435 0.0
H3010 H 0.60194 0.71118 0.93895 0.0
H3011 H 0.59477 0.68854 0.95611 0.0
H3012 H 0.61997 0.71128 0.96565 0.0
H3013 H 0.61096 0.75796 0.05202 0.0
H3014 H 0.59793 0.72197 0.06796 0.0
H3015 H 0.5742 0.68298 0.99483 0.0
C3016 C 0.60226 0.76237 0.95922 0.0
C3017 C 0.61252 0.7865 0.96648 0.0
C3018 C 0.61958 0.79618 0.99133 0.0
C3019 C 0.61623 0.78211 1.00873 0.0
C3020 C 0.6059 0.75841 1.00094 0.0
C3021 C 0.59913 0.74861 0.97676 0.0
C3022 C 0.5883 0.72274 0.97307 0.0
C3023 C 0.56351 0.71781 0.962 0.0
C3024 C 0.60207 0.70755 0.95753 0.0
C3025 C 0.58988 0.71953 0.99897 0.0
C3026 C 0.60006 0.74027 0.01483 0.0
C3027 C 0.60303 0.7416 0.03975 0.0
C3028 C 0.59547 0.72114 0.04865 0.0
C3029 C 0.58515 0.69969 0.03263 0.0
C3030 C 0.58234 0.69902 1.0075 0.0
H3031 H 0.08051 0.80072 0.7057 0.0
H3032 H 0.05135 0.72658 0.67756 0.0
H3033 H 0.08375 0.71599 0.69807 0.0
H3034 H 0.13822 0.79639 0.69876 0.0
H3035 H 0.14976 0.81765 0.72613 0.0
H3036 H 0.12386 0.81961 0.70986 0.0
H3037 H 0.1035 0.81851 0.74868 0.0
H3038 H 0.12934 0.81648 0.76505 0.0
H3039 H 0.10387 0.79452 0.76407 0.0
H3040 H 0.11895 0.71311 0.72116 0.0
H3041 H 0.15634 0.71832 0.74395 0.0
H3042 H 0.16321 0.79417 0.75708 0.0
C3043 C 0.08093 0.78228 0.70393 0.0
C3044 C 0.06337 0.7645 0.69008 0.0
C3045 C 0.06462 0.74055 0.68803 0.0
C3046 C 0.08291 0.73431 0.69968 0.0
C3047 C 0.09989 0.7522 0.71322 0.0
C3048 C 0.09921 0.7757 0.71531 0.0
C3049 C 0.12012 0.7914 0.73039 0.0
C3050 C 0.1338 0.80719 0.71538 0.0
C3051 C 0.11382 0.80609 0.75342 0.0
C3052 C 0.1326 0.77301 0.73636 0.0
C3053 C 0.12051 0.75053 0.7264 0.0
C3054 C 0.12858 0.73061 0.72916 0.0
C3055 C 0.14974 0.73375 0.74227 0.0
C3056 C 0.16261 0.75663 0.75237 0.0
C3057 C 0.15379 0.77648 0.74946 0.0
H3058 H 0.10978 0.38736 0.46567 0.0
H3059 H 0.06748 0.36672 0.39684 0.0
H3060 H 0.05296 0.40306 0.40614 0.0
H3061 H 0.06939 0.41478 0.50027 0.0
H3062 H 0.09116 0.43811 0.51804 0.0
H3063 H 0.09738 0.40974 0.5067 0.0
H3064 H 0.13063 0.42951 0.48584 0.0
H3065 H 0.12448 0.4579 0.49705 0.0
H3066 H 0.12531 0.44795 0.46503 0.0
H3067 H 0.04462 0.44225 0.42144 0.0
H3068 H 0.04248 0.48208 0.44237 0.0
H3069 H 0.08981 0.4774 0.50153 0.0
C3070 C 0.09729 0.39037 0.45267 0.0
C3071 C 0.08977 0.3742 0.43054 0.0
C3072 C 0.0735 0.37884 0.41393 0.0
C3073 C 0.0651 0.39942 0.41904 0.0
C3074 C 0.07304 0.4151 0.44087 0.0
C3075 C 0.08868 0.41083 0.45749 0.0
C3076 C 0.0949 0.43102 0.47924 0.0
C3077 C 0.08778 0.42292 0.50243 0.0
C3078 C 0.12034 0.44226 0.48193 0.0
C3079 C 0.08064 0.44743 0.47197 0.0
C3080 C 0.06808 0.43782 0.44983 0.0
C3081 C 0.0542 0.44993 0.4389 0.0
C3082 C 0.05315 0.47256 0.45092 0.0
C3083 C 0.06593 0.48281 0.47361 0.0
C3084 C 0.07971 0.46996 0.48429 0.0
H3085 H 0.43911 0.25561 0.17601 0.0
H3086 H 0.49278 0.29798 0.23022 0.0
H3087 H 0.46524 0.30177 0.25998 0.0
H3088 H 0.39859 0.28982 0.19256 0.0
H3089 H 0.37467 0.26531 0.18704 0.0
H3090 H 0.39893 0.26357 0.17056 0.0
H3091 H 0.40259 0.2254 0.18525 0.0
H3092 H 0.37843 0.22721 0.20201 0.0
H3093 H 0.40502 0.22564 0.21725 0.0
H3094 H 0.4325 0.30286 0.28332 0.0
H3095 H 0.3954 0.30499 0.29781 0.0
H3096 H 0.36201 0.26325 0.22861 0.0
C3097 C 0.44502 0.26544 0.19423 0.0
C3098 C 0.46807 0.27639 0.20084 0.0
C3099 C 0.47518 0.28948 0.22471 0.0
C3100 C 0.45972 0.29156 0.24185 0.0
C3101 C 0.43715 0.28061 0.23483 0.0
C3102 C 0.42968 0.26804 0.21156 0.0
C3103 C 0.40411 0.25994 0.2083 0.0
C3104 C 0.39346 0.27029 0.18845 0.0
C3105 C 0.39713 0.23294 0.20288 0.0
C3106 C 0.39846 0.27043 0.23319 0.0
C3107 C 0.41787 0.28183 0.2483 0.0
C3108 C 0.41714 0.29388 0.27177 0.0
C3109 C 0.39597 0.29498 0.27982 0.0
C3110 C 0.37581 0.28433 0.26434 0.0
C3111 C 0.37711 0.27134 0.24096 0.0
H3112 H 0.64474 0.49364 0.36575 0.0
H3113 H 0.65943 0.5636 0.35001 0.0
H3114 H 0.64042 0.57809 0.38569 0.0
H3115 H 0.58915 0.49558 0.38584 0.0
H3116 H 0.59244 0.47946 0.40943 0.0
H3117 H 0.6073 0.47464 0.38295 0.0
H3118 H 0.64533 0.48434 0.41014 0.0
H3119 H 0.63051 0.48909 0.43666 0.0
H3120 H 0.65318 0.51188 0.43177 0.0
H3121 H 0.61926 0.58527 0.42491 0.0
H3122 H 0.59897 0.58432 0.46132 0.0
H3123 H 0.59692 0.50956 0.45236 0.0
C3124 C 0.64405 0.51209 0.36967 0.0
C3125 C 0.65397 0.52734 0.35436 0.0
C3126 C 0.65228 0.55129 0.36084 0.0
C3127 C 0.64139 0.55973 0.38133 0.0
C3128 C 0.63189 0.54424 0.39583 0.0
C3129 C 0.63316 0.52083 0.39018 0.0
C3130 C 0.62155 0.50773 0.40866 0.0
C3131 C 0.60142 0.48819 0.39596 0.0
C3132 C 0.63866 0.49766 0.42263 0.0
C3133 C 0.6134 0.52726 0.42559 0.0
C3134 C 0.61966 0.54824 0.41788 0.0
C3135 C 0.61435 0.5688 0.43078 0.0
C3136 C 0.60264 0.56807 0.45173 0.0
C3137 C 0.59576 0.54691 0.46032 0.0
C3138 C 0.60142 0.52616 0.44663 0.0
H3139 H 0.32488 0.90725 0.05176 0.0
H3140 H 0.28165 0.9538 0.08113 0.0
H3141 H 0.27987 0.93624 0.11746 0.0
H3142 H 0.29713 0.85638 0.07333 0.0
H3143 H 0.32316 0.84723 0.07994 0.0
H3144 H 0.32069 0.86323 0.05612 0.0
H3145 H 0.35626 0.89459 0.0765 0.0
H3146 H 0.35881 0.87871 0.10041 0.0
H3147 H 0.35697 0.90923 0.10762 0.0
H3148 H 0.28349 0.9141 0.15102 0.0
H3149 H 0.29221 0.88905 0.17918 0.0
H3150 H 0.33237 0.85651 0.1273 0.0
C3151 C 0.31497 0.91374 0.06577 0.0
C3152 C 0.30341 0.93193 0.06358 0.0
C3153 C 0.29066 0.93989 0.08239 0.0
C3154 C 0.28953 0.93002 0.10309 0.0
C3155 C 0.3012 0.91218 0.1047 0.0
C3156 C 0.31364 0.90408 0.08652 0.0
C3157 C 0.32478 0.88487 0.09275 0.0
C3158 C 0.3159 0.86155 0.07445 0.0
C3159 C 0.35074 0.8923 0.09442 0.0
C3160 C 0.31681 0.88354 0.11736 0.0
C3161 C 0.30319 0.89938 0.12392 0.0
C3162 C 0.29403 0.90152 0.14601 0.0
C3163 C 0.29898 0.88711 0.16183 0.0
C3164 C 0.31296 0.87076 0.15549 0.0
C3165 C 0.32186 0.869 0.13287 0.0
H3166 H 0.93472 0.56067 0.85792 0.0
H3167 H 0.98706 0.5845 0.81384 0.0
H3168 H 0.01633 0.58143 0.84492 0.0
H3169 H 0.96694 0.5891 0.91806 0.0
H3170 H 0.95505 0.56437 0.93094 0.0
H3171 H 0.93887 0.57209 0.90694 0.0
H3172 H 0.93396 0.52942 0.88225 0.0
H3173 H 0.95065 0.52196 0.90596 0.0
H3174 H 0.95875 0.51774 0.87558 0.0
H3175 H 0.03954 0.57123 0.87864 0.0
H3176 H 0.05481 0.55712 0.91349 0.0
H3177 H 0.98682 0.53975 0.93462 0.0
C3178 C 0.95235 0.56587 0.85505 0.0
C3179 C 0.9586 0.57285 0.83347 0.0
C3180 C 0.98186 0.57921 0.8303 0.0
C3181 C 0.99862 0.5775 0.84784 0.0
C3182 C 0.9918 0.56962 0.86847 0.0
C3183 C 0.96921 0.56425 0.8723 0.0
C3184 C 0.96615 0.55459 0.89506 0.0
C3185 C 0.95617 0.57103 0.91386 0.0
C3186 C 0.95152 0.52944 0.88935 0.0
C3187 C 0.99047 0.55474 0.90308 0.0
C3188 C 1.00508 0.56362 0.88768 0.0
C3189 C 0.02829 0.56452 0.891 0.0
C3190 C 0.03678 0.55633 0.91075 0.0
C3191 C 0.02204 0.54727 0.92677 0.0
C3192 C 0.99861 0.54655 0.92276 0.0
H3193 H 0.28225 0.23251 0.58551 0.0
H3194 H 0.35079 0.2647 0.57508 0.0
H3195 H 0.35757 0.28448 0.61804 0.0
H3196 H 0.27206 0.28259 0.63074 0.0
H3197 H 0.2566 0.26375 0.64839 0.0
H3198 H 0.25609 0.25374 0.61617 0.0
H3199 H 0.2703 0.21686 0.62346 0.0
H3200 H 0.27095 0.22678 0.65566 0.0
H3201 H 0.29612 0.22048 0.64287 0.0
H3202 H 0.35837 0.29834 0.66213 0.0
H3203 H 0.35313 0.3059 0.70541 0.0
H3204 H 0.2841 0.26506 0.68892 0.0
C3205 C 0.2985 0.24412 0.59221 0.0
C3206 C 0.31597 0.24716 0.57685 0.0
C3207 C 0.33715 0.26209 0.58643 0.0
C3208 C 0.34116 0.27349 0.61083 0.0
C3209 C 0.32384 0.2698 0.62559 0.0
C3210 C 0.30289 0.25557 0.61675 0.0
C3211 C 0.28779 0.25359 0.63708 0.0
C3212 C 0.26689 0.26405 0.63284 0.0
C3213 C 0.28089 0.2279 0.63993 0.0
C3214 C 0.30371 0.26859 0.65868 0.0
C3215 C 0.32434 0.27785 0.65147 0.0
C3216 C 0.34222 0.2914 0.668 0.0
C3217 C 0.33907 0.29552 0.69262 0.0
C3218 C 0.31818 0.28615 0.70067 0.0
C3219 C 0.30017 0.2727 0.68335 0.0
H3220 H 0.67422 0.51787 0.17856 0.0
H3221 H 0.62921 0.53231 0.23338 0.0
H3222 H 0.60136 0.53773 0.2018 0.0
H3223 H 0.66244 0.55907 0.14278 0.0
H3224 H 0.66337 0.54026 0.11397 0.0
H3225 H 0.67949 0.53711 0.14064 0.0
H3226 H 0.65991 0.49314 0.13326 0.0
H3227 H 0.64378 0.49613 0.1065 0.0
H3228 H 0.62941 0.4849 0.13016 0.0
H3229 H 0.57879 0.54438 0.16324 0.0
H3230 H 0.56313 0.54803 0.123 0.0
H3231 H 0.62121 0.52679 0.09167 0.0
C3232 C 0.65841 0.52195 0.18405 0.0
C3233 C 0.65426 0.52455 0.20905 0.0
C3234 C 0.63313 0.52996 0.21478 0.0
C3235 C 0.61713 0.53321 0.19676 0.0
C3236 C 0.62193 0.53078 0.17251 0.0
C3237 C 0.64202 0.52489 0.16612 0.0
C3238 C 0.64302 0.52296 0.13872 0.0
C3239 C 0.66329 0.54092 0.13374 0.0
C3240 C 0.6441 0.49779 0.12643 0.0
C3241 C 0.62054 0.52896 0.13058 0.0
C3242 C 0.60872 0.5336 0.15046 0.0
C3243 C 0.58798 0.54047 0.14771 0.0
C3244 C 0.57914 0.54257 0.12451 0.0
C3245 C 0.5905 0.53758 0.10349 0.0
C3246 C 0.61164 0.53052 0.10692 0.0
H3247 H 0.31103 0.94228 0.91403 0.0
H3248 H 0.28645 0.90182 0.96708 0.0
H3249 H 0.29047 0.86536 0.93974 0.0
H3250 H 0.28366 0.89823 0.86057 0.0
H3251 H 0.307 0.90483 0.84303 0.0
H3252 H 0.30114 0.92748 0.86636 0.0
H3253 H 0.34233 0.93474 0.88655 0.0
H3254 H 0.34823 0.91195 0.86343 0.0
H3255 H 0.35283 0.91053 0.89488 0.0
H3256 H 0.29782 0.83297 0.90638 0.0
H3257 H 0.30711 0.80784 0.86972 0.0
H3258 H 0.32787 0.86984 0.83942 0.0
C3259 C 0.30625 0.92575 0.91985 0.0
C3260 C 0.29836 0.92502 0.94278 0.0
C3261 C 0.29246 0.90293 0.94962 0.0
C3262 C 0.29473 0.88208 0.93421 0.0
C3263 C 0.30291 0.88349 0.91193 0.0
C3264 C 0.30843 0.90477 0.9047 0.0
C3265 C 0.31712 0.90157 0.87998 0.0
C3266 C 0.30129 0.90844 0.8614 0.0
C3267 C 0.34158 0.91553 0.8813 0.0
C3268 C 0.316 0.87527 0.87462 0.0
C3269 C 0.30758 0.86507 0.89313 0.0
C3270 C 0.30451 0.84084 0.89184 0.0
C3271 C 0.30991 0.82669 0.87099 0.0
C3272 C 0.31853 0.83681 0.85178 0.0
C3273 C 0.32173 0.8615 0.8539 0.0
H3274 H 0.934 0.54144 0.72004 0.0
H3275 H 0.94712 0.48303 0.75115 0.0
H3276 H 0.97252 0.47417 0.71972 0.0
H3277 H 0.93495 0.51401 0.65671 0.0
H3278 H 0.94876 0.54125 0.64929 0.0
H3279 H 0.93028 0.54164 0.67301 0.0
H3280 H 0.96264 0.56975 0.70308 0.0
H3281 H 0.98122 0.56943 0.67951 0.0
H3282 H 0.9894 0.56126 0.70741 0.0
H3283 H 0.9984 0.4735 0.68644 0.0
H3284 H 0.02247 0.48091 0.65384 0.0
H3285 H 0.99239 0.54016 0.64558 0.0
C3286 C 0.94195 0.52657 0.72012 0.0
C3287 C 0.93857 0.51288 0.73801 0.0
C3288 C 0.94944 0.49371 0.73756 0.0
C3289 C 0.96386 0.48852 0.71978 0.0
C3290 C 0.96706 0.50263 0.70261 0.0
C3291 C 0.95632 0.52119 0.70261 0.0
C3292 C 0.9634 0.53443 0.68302 0.0
C3293 C 0.94314 0.53272 0.66441 0.0
C3294 C 0.97485 0.56024 0.69391 0.0
C3295 C 0.98014 0.52068 0.67221 0.0
C3296 C 0.98194 0.50231 0.68361 0.0
C3297 C 0.99702 0.48774 0.67728 0.0
C3298 C 1.01071 0.49217 0.65889 0.0
C3299 C 1.00923 0.51107 0.64717 0.0
C3300 C 0.9936 0.52532 0.65388 0.0
H3301 H 0.29327 0.22446 0.43247 0.0
H3302 H 0.33208 0.28674 0.48218 0.0
H3303 H 0.34016 0.30614 0.44791 0.0
H3304 H 0.32965 0.22678 0.38458 0.0
H3305 H 0.30685 0.21725 0.36043 0.0
H3306 H 0.30357 0.20801 0.38883 0.0
H3307 H 0.26737 0.22504 0.39301 0.0
H3308 H 0.27047 0.23416 0.36454 0.0
H3309 H 0.26866 0.25539 0.39136 0.0
H3310 H 0.3441 0.31912 0.40882 0.0
H3311 H 0.34322 0.32524 0.36695 0.0
H3312 H 0.30257 0.2546 0.34146 0.0
C3313 C 0.30335 0.24223 0.43614 0.0
C3314 C 0.312 0.25406 0.46013 0.0
C3315 C 0.32524 0.27725 0.46407 0.0
C3316 C 0.32997 0.28846 0.44469 0.0
C3317 C 0.32141 0.27628 0.42134 0.0
C3318 C 0.30834 0.25371 0.4169 0.0
C3319 C 0.30134 0.24469 0.38991 0.0
C3320 C 0.31093 0.22289 0.38038 0.0
C3321 C 0.27542 0.23952 0.38439 0.0
C3322 C 0.31252 0.26574 0.37997 0.0
C3323 C 0.32396 0.28373 0.39851 0.0
C3324 C 0.33524 0.30515 0.39413 0.0
C3325 C 0.33462 0.30845 0.37023 0.0
C3326 C 0.32291 0.2904 0.35082 0.0
C3327 C 0.3119 0.26865 0.35583 0.0
H3328 H 0.4222 0.62946 0.55572 0.0
H3329 H 0.37338 0.56354 0.531 0.0
H3330 H 0.40471 0.54346 0.52014 0.0
H3331 H 0.45974 0.62066 0.50997 0.0
H3332 H 0.48537 0.63374 0.52984 0.0
H3333 H 0.45949 0.64328 0.53617 0.0
H3334 H 0.46262 0.63374 0.57883 0.0
H3335 H 0.48888 0.62482 0.57306 0.0
H3336 H 0.46603 0.60486 0.58207 0.0
H3337 H 0.44204 0.53065 0.51097 0.0
H3338 H 0.48132 0.52574 0.50712 0.0
H3339 H 0.50613 0.59989 0.53873 0.0
C3340 C 0.418 0.61075 0.54811 0.0
C3341 C 0.39505 0.59815 0.54425 0.0
C3342 C 0.39062 0.57367 0.53426 0.0
C3343 C 0.4084 0.56212 0.52793 0.0
C3344 C 0.43073 0.57513 0.53177 0.0
C3345 C 0.43557 0.59891 0.54186 0.0
C3346 C 0.46102 0.60886 0.54444 0.0
C3347 C 0.46673 0.62776 0.5292 0.0
C3348 C 0.47017 0.61864 0.57119 0.0
C3349 C 0.46981 0.587 0.53426 0.0
C3350 C 0.45205 0.56775 0.52687 0.0
C3351 C 0.45599 0.54566 0.51677 0.0
C3352 C 0.4785 0.54306 0.51454 0.0
C3353 C 0.49714 0.56237 0.52245 0.0
C3354 C 0.49247 0.58469 0.5323 0.0
H3355 H 0.92035 0.92259 0.54846 0.0
H3356 H 0.87691 0.97331 0.55759 0.0
H3357 H 0.91008 1.00544 0.55924 0.0
H3358 H 0.96913 0.95918 0.5879 0.0
H3359 H 0.98952 0.94925 0.56884 0.0
H3360 H 0.96262 0.92996 0.56925 0.0
H3361 H 0.95465 0.92463 0.5228 0.0
H3362 H 0.98165 0.94364 0.5222 0.0
H3363 H 0.95612 0.95024 0.50954 0.0
H3364 H 0.94741 0.03196 0.55915 0.0
H3365 H 0.98652 0.05125 0.55537 0.0
H3366 H 1.00609 0.98352 0.54563 0.0
C3367 C 0.91784 0.94047 0.55095 0.0
C3368 C 0.89601 0.94544 0.55299 0.0
C3369 C 0.89343 0.96905 0.55599 0.0
C3370 C 0.91219 0.98745 0.55703 0.0
C3371 C 0.93342 0.98197 0.55498 0.0
C3372 C 0.93639 0.95908 0.55188 0.0
C3373 C 0.96099 0.95801 0.54926 0.0
C3374 C 0.97115 0.94854 0.57006 0.0
C3375 C 0.96349 0.94326 0.52447 0.0
C3376 C 0.97127 0.98387 0.55113 0.0
C3377 C 0.95507 0.99735 0.55464 0.0
C3378 C 0.96028 0.02162 0.55647 0.0
C3379 C 0.98259 0.03241 0.55431 0.0
C3380 C 0.99946 0.01895 0.55023 0.0
C3381 C 0.99368 0.99436 0.5489 0.0
H3382 H 0.92691 0.16724 0.27692 0.0
H3383 H 0.87207 0.11069 0.2843 0.0
H3384 H 0.84597 0.13856 0.28702 0.0
H3385 H 0.90961 0.21345 0.31873 0.0
H3386 H 0.91753 0.23618 0.30193 0.0
H3387 H 0.93234 0.21234 0.29977 0.0
H3388 H 0.92354 0.20192 0.25371 0.0
H3389 H 0.90863 0.22554 0.25444 0.0
H3390 H 0.89462 0.19591 0.24026 0.0
H3391 H 0.82487 0.17493 0.28927 0.0
H3392 H 0.81233 0.21235 0.29004 0.0
H3393 H 0.88045 0.24626 0.28068 0.0
C3394 C 0.90939 0.16044 0.27908 0.0
C3395 C 0.90208 0.13594 0.28033 0.0
C3396 C 0.87872 0.12878 0.28324 0.0
C3397 C 0.86359 0.14479 0.28481 0.0
C3398 C 0.87147 0.16859 0.28351 0.0
C3399 C 0.89399 0.17629 0.28067 0.0
C3400 C 0.89843 0.20275 0.2799 0.0
C3401 C 0.91551 0.21703 0.30132 0.0
C3402 C 0.90682 0.20677 0.25565 0.0
C3403 C 0.87496 0.20893 0.28238 0.0
C3404 C 0.85964 0.18894 0.28463 0.0
C3405 C 0.83702 0.19039 0.28746 0.0
C3406 C 0.82993 0.21213 0.28793 0.0
C3407 C 0.84496 0.2332 0.28551 0.0
C3408 C 0.86804 0.23106 0.28265 0.0
H3409 H 0.73729 0.12272 0.03481 0.0
H3410 H 0.76009 0.06467 0.0584 0.0
H3411 H 0.72006 0.04464 0.0583 0.0
H3412 H 0.69043 0.12346 0.06985 0.0
H3413 H 0.67222 0.13024 0.04686 0.0
H3414 H 0.7025 0.13962 0.04809 0.0
H3415 H 0.70116 0.11811 1.00353 0.0
H3416 H 0.67085 0.1087 1.00213 0.0
H3417 H 0.68809 0.08726 0.99476 0.0
H3418 H 0.67714 0.0317 0.05719 0.0
H3419 H 0.6356 0.02606 0.05393 0.0
H3420 H 0.64022 0.09224 0.0301 0.0
C3421 C 0.73396 0.10571 0.03986 0.0
C3422 C 0.7521 0.09533 0.04667 0.0
C3423 C 0.74671 0.07303 0.05306 0.0
C3424 C 0.72395 0.06153 0.05309 0.0
C3425 C 0.70658 0.0724 0.04651 0.0
C3426 C 0.71135 0.09394 0.03982 0.0
C3427 C 0.68961 0.10194 0.0336 0.0
C3428 C 0.68864 0.12519 0.05062 0.0
C3429 C 0.6873 0.10413 1.00692 0.0
C3430 C 0.67176 0.08167 0.03809 0.0
C3431 C 0.68196 0.06484 0.04553 0.0
C3432 C 0.66908 0.04475 0.05126 0.0
C3433 C 0.64534 0.04176 0.04938 0.0
C3434 C 0.6343 0.05865 0.04173 0.0
C3435 C 0.64791 0.07887 0.03591 0.0
H3436 H 0.2302 0.4523 0.2072 0.0
H3437 H 0.27225 0.50542 0.17675 0.0
H3438 H 0.3056 0.48897 0.1856 0.0
H3439 H 0.26612 0.45677 0.25595 0.0
H3440 H 0.26068 0.42608 0.25755 0.0
H3441 H 0.23926 0.43773 0.24337 0.0
H3442 H 0.23727 0.4066 0.20389 0.0
H3443 H 0.25859 0.39458 0.21805 0.0
H3444 H 0.26276 0.4039 0.18982 0.0
H3445 H 0.3353 0.47103 0.20396 0.0
H3446 H 0.35826 0.45332 0.23055 0.0
H3447 H 0.29665 0.41355 0.25007 0.0
C3448 C 0.24622 0.45989 0.20149 0.0
C3449 C 0.24862 0.48003 0.1912 0.0
C3450 C 0.27002 0.48987 0.18458 0.0
C3451 C 0.28905 0.4806 0.18944 0.0
C3452 C 0.28634 0.46141 0.20076 0.0
C3453 C 0.26536 0.451 0.20646 0.0
C3454 C 0.26733 0.43281 0.22153 0.0
C3455 C 0.2578 0.43873 0.24604 0.0
C3456 C 0.2558 0.408 0.20748 0.0
C3457 C 0.29273 0.43564 0.22468 0.0
C3458 C 0.30346 0.45167 0.21203 0.0
C3459 C 0.32706 0.45818 0.21363 0.0
C3460 C 0.33995 0.44822 0.22881 0.0
C3461 C 0.32906 0.43249 0.24247 0.0
C3462 C 0.30527 0.4258 0.23993 0.0
H3463 H 0.24287 0.401 1.00469 0.0
H3464 H 0.28411 0.45397 0.06278 0.0
H3465 H 0.25802 0.48063 0.05872 0.0
H3466 H 0.23059 0.44063 0.96806 0.0
H3467 H 0.202 0.42464 0.95785 0.0
H3468 H 0.22327 0.40927 0.9661 0.0
H3469 H 0.19824 0.3927 0.99699 0.0
H3470 H 0.17684 0.40794 0.98875 0.0
H3471 H 0.18831 0.41272 0.01994 0.0
H3472 H 0.2278 0.50187 0.0477 0.0
H3473 H 0.1961 0.51625 0.03013 0.0
H3474 H 0.17482 0.44944 0.97914 0.0
C3475 C 0.24633 0.41811 0.01673 0.0
C3476 C 0.26551 0.42536 0.03412 0.0
C3477 C 0.26952 0.44802 0.04933 0.0
C3478 C 0.25478 0.46329 0.04718 0.0
C3479 C 0.23614 0.45567 0.0297 0.0
C3480 C 0.23188 0.43362 0.01473 0.0
C3481 C 0.21105 0.42996 0.99695 0.0
C3482 C 0.2171 0.42589 0.97069 0.0
C3483 C 0.19251 0.40963 1.00091 0.0
C3484 C 0.20434 0.45345 1.00415 0.0
C3485 C 0.21895 0.46799 0.02316 0.0
C3486 C 0.21621 0.4906 0.03286 0.0
C3487 C 0.1981 0.49858 0.02282 0.0
C3488 C 0.18298 0.48402 1.00321 0.0
C3489 C 0.18623 0.46114 0.99389 0.0
H3490 H 0.9237 0.96366 0.26569 0.0
H3491 H 0.87163 1.00375 0.2806 0.0
H3492 H 0.84495 0.96709 0.28382 0.0
H3493 H 0.88683 0.91049 0.22948 0.0
H3494 H 0.90175 0.8907 0.24113 0.0
H3495 H 0.91661 0.91989 0.23985 0.0
H3496 H 0.92961 0.92793 0.28564 0.0
H3497 H 0.91479 0.89877 0.28707 0.0
H3498 H 0.90876 0.92407 0.3067 0.0
H3499 H 0.82338 0.92472 0.28581 0.0
H3500 H 0.80949 0.88285 0.28619 0.0
H3501 H 0.87515 0.8688 0.26995 0.0
C3502 C 0.90665 0.9649 0.26956 0.0
C3503 C 0.9001 0.98728 0.27279 0.0
C3504 C 0.87745 0.98737 0.27792 0.0
C3505 C 0.86207 0.9664 0.27982 0.0
C3506 C 0.86917 0.94486 0.27659 0.0
C3507 C 0.89102 0.94402 0.27153 0.0
C3508 C 0.89449 0.91862 0.26895 0.0
C3509 C 0.90027 0.90938 0.24333 0.0
C3510 C 0.91302 0.91727 0.28823 0.0
C3511 C 0.87124 0.90516 0.27334 0.0
C3512 C 0.85691 0.92073 0.27772 0.0
C3513 C 0.83464 0.91262 0.28235 0.0
C3514 C 0.82682 0.88844 0.28253 0.0
C3515 C 0.84087 0.87169 0.27811 0.0
C3516 C 0.86361 0.8806 0.27342 0.0
H3517 H 0.74719 0.12524 0.706 0.0
H3518 H 0.78134 0.10345 0.76486 0.0
H3519 H 0.80361 0.14393 0.77901 0.0
H3520 H 0.79642 0.17387 0.6976 0.0
H3521 H 0.77708 0.19238 0.69208 0.0
H3522 H 0.76833 0.16083 0.68275 0.0
H3523 H 0.73371 0.1619 0.70721 0.0
H3524 H 0.74251 0.19326 0.71701 0.0
H3525 H 0.73818 0.17494 0.7391 0.0
H3526 H 0.81567 0.18676 0.79178 0.0
H3527 H 0.8188 0.22966 0.80117 0.0
H3528 H 0.77682 0.22475 0.7344 0.0
C3529 C 0.7602 0.12884 0.72109 0.0
C3530 C 0.7629 0.11133 0.73418 0.0
C3531 C 0.7793 0.1167 0.75451 0.0
C3532 C 0.79203 0.1396 0.76262 0.0
C3533 C 0.78814 0.15685 0.75016 0.0
C3534 C 0.77286 0.15176 0.72961 0.0
C3535 C 0.7695 0.17407 0.72174 0.0
C3536 C 0.77837 0.17536 0.69708 0.0
C3537 C 0.7445 0.17615 0.72126 0.0
C3538 C 0.78423 0.19244 0.74184 0.0
C3539 C 0.79512 0.18207 0.75777 0.0
C3540 C 0.80772 0.19515 0.77914 0.0
C3541 C 0.80919 0.21946 0.78443 0.0
C3542 C 0.79808 0.23044 0.76844 0.0
C3543 C 0.78579 0.2168 0.74669 0.0
loop_
_geom_bond_atom_site_label_1
_geom_bond_atom_site_label_2
_geom_bond_distance
_geom_bond_site_symmetry_2
_ccdc_geom_bond_type
C0 O1 1.160 . S
C0 O7 1.185 . S
O1 C0 1.160 . S
O2 Zn3 1.899 . S
O2 C10 1.284 . S
Zn3 O2 1.899 . S
Zn3 O4 2.032 . S
Zn3 O7 2.086 . S
Zn3 O12 1.977 . S
O4 Zn3 2.032 . S
O4 C8 1.278 . S
C5 O6 1.203 . S
C5 O12 1.267 . S
O6 C5 1.203 . S
O7 C0 1.185 . S
O7 Zn3 2.086 . S
C8 O4 1.278 . S
C8 O9 1.211 . S
O9 C8 1.211 . S
C10 O2 1.284 . S
C10 O11 1.273 . S
O11 C10 1.273 . S
O12 Zn3 1.977 . S
O12 C5 1.267 . S
C13 O14 1.160 . S
C13 O20 1.185 . S
O14 C13 1.160 . S
O15 Zn16 1.899 . S
O15 C23 1.284 . S
Zn16 O15 1.899 . S
Zn16 O17 2.032 . S
Zn16 O20 2.086 . S
Zn16 O25 1.977 1_655 S
O17 Zn16 2.032 . S
O17 C21 1.278 1_655 S
C18 O19 1.203 . S
C18 O25 1.267 . S
O19 C18 1.203 . S
O20 C13 1.185 . S
O20 Zn16 2.086 . S
C21 O17 1.278 1_455 S
C21 O22 1.211 . S
O22 C21 1.211 . S
C23 O15 1.284 . S
C23 O24 1.273 1_655 S
O24 C23 1.273 1_455 S
O25 Zn16 1.977 1_455 S
O25 C18 1.267 . S
C26 O27 1.160 . S
C26 O33 1.185 . S
O27 C26 1.160 . S
O28 Zn29 1.899 . S
O28 C36 1.284 . S
Zn29 O28 1.899 . S
Zn29 O30 2.032 . S
Zn29 O33 2.086 . S
Zn29 O38 1.977 . S
O30 Zn29 2.032 . S
O30 C34 1.278 . S
C31 O32 1.203 . S
C31 O38 1.267 . S
O32 C31 1.203 . S
O33 C26 1.185 . S
O33 Zn29 2.086 . S
C34 O30 1.278 . S
C34 O35 1.211 . S
O35 C34 1.211 . S
C36 O28 1.284 . S
C36 O37 1.273 . S
O37 C36 1.273 . S
O38 Zn29 1.977 . S
O38 C31 1.267 . S
C39 O40 1.160 . S
C39 O46 1.185 . S
O40 C39 1.160 . S
O41 Zn42 1.899 . S
O41 C49 1.284 . S
Zn42 O41 1.899 . S
Zn42 O43 2.032 . S
Zn42 O46 2.086 . S
Zn42 O51 1.977 . S
O43 Zn42 2.032 . S
O43 C47 1.278 . S
C44 O45 1.203 . S
C44 O51 1.267 . S
O45 C44 1.203 . S
O46 C39 1.185 . S
O46 Zn42 2.086 . S
C47 O43 1.278 . S
C47 O48 1.211 . S
O48 C47 1.211 . S
C49 O41 1.284 . S
C49 O50 1.273 . S
O50 C49 1.273 . S
O51 Zn42 1.977 . S
O51 C44 1.267 . S
C52 O53 1.160 . S
C52 O59 1.185 . S
O53 C52 1.160 . S
O54 Zn55 1.899 . S
O54 C62 1.284 . S
Zn55 O54 1.899 . S
Zn55 O56 2.032 . S
Zn55 O59 2.086 . S
Zn55 O64 1.977 . S
O56 Zn55 2.032 . S
O56 C60 1.278 . S
C57 O58 1.203 . S
C57 O64 1.267 . S
O58 C57 1.203 . S
O59 C52 1.185 . S
O59 Zn55 2.086 . S
C60 O56 1.278 . S
C60 O61 1.211 . S
O61 C60 1.211 . S
C62 O54 1.284 . S
C62 O63 1.273 . S
O63 C62 1.273 . S
O64 Zn55 1.977 . S
O64 C57 1.267 . S
C65 O66 1.160 . S
C65 O72 1.185 . S
O66 C65 1.160 . S
O67 Zn68 1.899 . S
O67 C75 1.284 . S
Zn68 O67 1.899 . S
Zn68 O69 2.032 . S
Zn68 O72 2.086 . S
Zn68 O77 1.977 . S
O69 Zn68 2.032 . S
O69 C73 1.278 . S
C70 O71 1.203 . S
C70 O77 1.267 . S
O71 C70 1.203 . S
O72 C65 1.185 . S
O72 Zn68 2.086 . S
C73 O69 1.278 . S
C73 O74 1.211 . S
O74 C73 1.211 . S
C75 O67 1.284 . S
C75 O76 1.273 . S
O76 C75 1.273 . S
O77 Zn68 1.977 . S
O77 C70 1.267 . S
C78 O79 1.160 . S
C78 O85 1.185 . S
O79 C78 1.160 . S
O80 Zn81 1.899 . S
O80 C88 1.284 . S
Zn81 O80 1.899 . S
Zn81 O82 2.032 . S
Zn81 O85 2.086 . S
Zn81 O90 1.977 . S
O82 Zn81 2.032 . S
O82 C86 1.278 . S
C83 O84 1.203 . S
C83 O90 1.267 . S
O84 C83 1.203 . S
O85 C78 1.185 . S
O85 Zn81 2.086 . S
C86 O82 1.278 . S
C86 O87 1.211 . S
O87 C86 1.211 . S
C88 O80 1.284 . S
C88 O89 1.273 . S
O89 C88 1.273 . S
O90 Zn81 1.977 . S
O90 C83 1.267 . S
C91 O92 1.160 . S
C91 O98 1.185 . S
O92 C91 1.160 . S
O93 Zn94 1.899 . S
O93 C101 1.284 . S
Zn94 O93 1.899 . S
Zn94 O95 2.032 . S
Zn94 O98 2.086 . S
Zn94 O103 1.977 1_455 S
O95 Zn94 2.032 . S
O95 C99 1.278 . S
C96 O97 1.203 . S
C96 O103 1.267 . S
O97 C96 1.203 . S
O98 C91 1.185 . S
O98 Zn94 2.086 . S
C99 O95 1.278 . S
C99 O100 1.211 1_455 S
O100 C99 1.211 1_655 S
C101 O93 1.284 . S
C101 O102 1.273 . S
O102 C101 1.273 . S
O103 Zn94 1.977 1_655 S
O103 C96 1.267 . S
C104 O105 1.160 . S
C104 O111 1.185 . S
O105 C104 1.160 . S
O106 Zn107 1.899 . S
O106 C114 1.292 . S
Zn107 O106 1.899 . S
Zn107 O108 2.032 . S
Zn107 O111 2.086 . S
Zn107 O116 1.977 1_545 S
O108 Zn107 2.032 . S
O108 C112 1.278 . S
C109 O110 1.203 . S
C109 O116 1.267 . S
O110 C109 1.203 . S
O111 C104 1.185 . S
O111 Zn107 2.086 . S
C112 O108 1.278 . S
C112 O113 1.211 1_545 S
O113 C112 1.211 1_565 S
C114 O106 1.292 . S
C114 O115 1.262 1_545 S
O115 C114 1.262 1_565 S
O116 Zn107 1.977 1_565 S
O116 C109 1.267 . S
C117 O118 1.160 . S
C117 O124 1.185 . S
O118 C117 1.160 . S
O119 Zn120 1.899 . S
O119 C127 1.284 . S
Zn120 O119 1.899 . S
Zn120 O121 2.032 . S
Zn120 O124 2.086 . S
Zn120 O129 1.977 . S
O121 Zn120 2.032 . S
O121 C125 1.278 . S
C122 O123 1.203 . S
C122 O129 1.267 . S
O123 C122 1.203 . S
O124 C117 1.185 . S
O124 Zn120 2.086 . S
C125 O121 1.278 . S
C125 O126 1.211 . S
O126 C125 1.211 . S
C127 O119 1.284 . S
C127 O128 1.273 . S
O128 C127 1.273 . S
O129 Zn120 1.977 . S
O129 C122 1.267 . S
C130 O131 1.160 . S
C130 O137 1.185 . S
O131 C130 1.160 . S
O132 Zn133 1.899 . S
O132 C140 1.284 . S
Zn133 O132 1.899 . S
Zn133 O134 2.019 1_545 S
Zn133 O137 2.086 1_545 S
Zn133 O142 1.977 . S
O134 Zn133 2.019 1_565 S
O134 C138 1.248 1_565 S
C135 O136 1.203 . S
C135 O142 1.267 . S
O136 C135 1.203 . S
O137 C130 1.185 . S
O137 Zn133 2.086 1_565 S
C138 O134 1.248 1_545 S
C138 O139 1.211 . S
O139 C138 1.211 . S
C140 O132 1.284 . S
C140 O141 1.273 . S
O141 C140 1.273 . S
O142 Zn133 1.977 . S
O142 C135 1.267 . S
C143 O144 1.160 . S
C143 O150 1.185 . S
O144 C143 1.160 . S
O145 Zn146 1.899 . S
O145 C153 1.284 . S
Zn146 O145 1.899 . S
Zn146 O147 2.032 1_554 S
Zn146 O150 2.086 . S
Zn146 O155 1.977 . S
O147 Zn146 2.032 1_556 S
O147 C151 1.278 . S
C148 O149 1.203 . S
C148 O155 1.267 . S
O149 C148 1.203 . S
O150 C143 1.185 . S
O150 Zn146 2.086 . S
C151 O147 1.278 . S
C151 O152 1.211 . S
O152 C151 1.211 . S
C153 O145 1.284 . S
C153 O154 1.273 . S
O154 C153 1.273 . S
O155 Zn146 1.977 . S
O155 C148 1.267 . S
C156 O157 1.160 . S
C156 O163 1.185 . S
O157 C156 1.160 . S
O158 Zn159 1.899 . S
O158 C166 1.284 . S
Zn159 O158 1.899 . S
Zn159 O160 2.032 1_554 S
Zn159 O163 2.086 . S
Zn159 O168 1.977 . S
O160 Zn159 2.032 1_556 S
O160 C164 1.278 . S
C161 O162 1.203 . S
C161 O168 1.267 . S
O162 C161 1.203 . S
O163 C156 1.185 . S
O163 Zn159 2.086 . S
C164 O160 1.278 . S
C164 O165 1.211 . S
O165 C164 1.211 . S
C166 O158 1.284 . S
C166 O167 1.273 . S
O167 C166 1.273 . S
O168 Zn159 1.977 . S
O168 C161 1.267 . S
C169 O170 1.160 . S
C169 O176 1.185 . S
O170 C169 1.160 . S
O171 Zn172 1.899 . S
O171 C179 1.284 . S
Zn172 O171 1.899 . S
Zn172 O173 2.032 1_554 S
Zn172 O176 2.086 . S
Zn172 O181 1.977 . S
O173 Zn172 2.032 1_556 S
O173 C177 1.278 . S
C174 O175 1.203 . S
C174 O181 1.267 . S
O175 C174 1.203 . S
O176 C169 1.185 . S
O176 Zn172 2.086 . S
C177 O173 1.278 . S
C177 O178 1.211 . S
O178 C177 1.211 . S
C179 O171 1.284 . S
C179 O180 1.273 . S
O180 C179 1.273 . S
O181 Zn172 1.977 . S
O181 C174 1.267 . S
C182 O183 1.160 . S
C182 O189 1.185 . S
O183 C182 1.160 . S
O184 Zn185 1.899 . S
O184 C192 1.284 . S
Zn185 O184 1.899 . S
Zn185 O186 2.032 . S
Zn185 O189 2.086 . S
Zn185 O194 1.977 . S
O186 Zn185 2.032 . S
O186 C190 1.278 . S
C187 O188 1.203 . S
C187 O194 1.267 . S
O188 C187 1.203 . S
O189 C182 1.185 . S
O189 Zn185 2.086 . S
C190 O186 1.278 . S
C190 O191 1.211 . S
O191 C190 1.211 . S
C192 O184 1.284 . S
C192 O193 1.273 . S
O193 C192 1.273 . S
O194 Zn185 1.977 . S
O194 C187 1.267 . S
C195 O196 1.160 . S
C195 O202 1.185 . S
O196 C195 1.160 . S
O197 Zn198 1.899 . S
O197 C205 1.284 . S
Zn198 O197 1.899 . S
Zn198 O199 2.032 . S
Zn198 O202 2.086 . S
Zn198 O207 1.977 . S
O199 Zn198 2.032 . S
O199 C203 1.278 . S
C200 O201 1.203 . S
C200 O207 1.267 . S
O201 C200 1.203 . S
O202 C195 1.185 . S
O202 Zn198 2.086 . S
C203 O199 1.278 . S
C203 O204 1.211 . S
O204 C203 1.211 . S
C205 O197 1.284 . S
C205 O206 1.273 . S
O206 C205 1.273 . S
O207 Zn198 1.977 . S
O207 C200 1.267 . S
C208 O209 1.160 . S
C208 O215 1.185 . S
O209 C208 1.160 . S
O210 Zn211 1.899 . S
O210 C218 1.284 . S
Zn211 O210 1.899 . S
Zn211 O212 2.032 . S
Zn211 O215 2.086 . S
Zn211 O220 1.977 . S
O212 Zn211 2.032 . S
O212 C216 1.278 . S
C213 O214 1.203 . S
C213 O220 1.267 . S
O214 C213 1.203 . S
O215 C208 1.185 . S
O215 Zn211 2.086 . S
C216 O212 1.278 . S
C216 O217 1.211 . S
O217 C216 1.211 . S
C218 O210 1.284 . S
C218 O219 1.273 . S
O219 C218 1.273 . S
O220 Zn211 1.977 . S
O220 C213 1.267 . S
C221 O222 1.160 . S
C221 O228 1.185 . S
O222 C221 1.160 . S
O223 Zn224 1.899 . S
O223 C231 1.284 . S
Zn224 O223 1.899 . S
Zn224 O225 2.032 . S
Zn224 O228 2.086 . S
Zn224 O233 1.977 . S
O225 Zn224 2.032 . S
O225 C229 1.278 . S
C226 O227 1.203 . S
C226 O233 1.267 . S
O227 C226 1.203 . S
O228 C221 1.185 . S
O228 Zn224 2.086 . S
C229 O225 1.278 . S
C229 O230 1.211 . S
O230 C229 1.211 . S
C231 O223 1.284 . S
C231 O232 1.273 . S
O232 C231 1.273 . S
O233 Zn224 1.977 . S
O233 C226 1.267 . S
C234 O235 1.160 . S
C234 O241 1.185 . S
O235 C234 1.160 . S
O236 Zn237 1.899 . S
O236 C244 1.284 . S
Zn237 O236 1.899 . S
Zn237 O238 2.032 . S
Zn237 O241 2.086 . S
Zn237 O246 1.977 . S
O238 Zn237 2.032 . S
O238 C242 1.278 . S
C239 O240 1.203 . S
C239 O246 1.267 . S
O240 C239 1.203 . S
O241 C234 1.185 . S
O241 Zn237 2.086 . S
C242 O238 1.278 . S
C242 O243 1.211 . S
O243 C242 1.211 . S
C244 O236 1.284 . S
C244 O245 1.273 . S
O245 C244 1.273 . S
O246 Zn237 1.977 . S
O246 C239 1.267 . S
C247 O248 1.160 . S
C247 O254 1.185 . S
O248 C247 1.160 . S
O249 Zn250 1.899 . S
O249 C257 1.284 . S
Zn250 O249 1.899 . S
Zn250 O251 2.032 . S
Zn250 O254 2.086 . S
Zn250 O259 1.977 . S
O251 Zn250 2.032 . S
O251 C255 1.278 . S
C252 O253 1.203 . S
C252 O259 1.267 . S
O253 C252 1.203 . S
O254 C247 1.185 . S
O254 Zn250 2.086 . S
C255 O251 1.278 . S
C255 O256 1.211 . S
O256 C255 1.211 . S
C257 O249 1.284 . S
C257 O258 1.273 . S
O258 C257 1.273 . S
O259 Zn250 1.977 . S
O259 C252 1.267 . S
C260 O261 1.160 . S
C260 O267 1.185 . S
O261 C260 1.160 . S
O262 Zn263 1.899 . S
O262 C270 1.284 . S
Zn263 O262 1.899 . S
Zn263 O264 2.032 1_554 S
Zn263 O267 2.086 . S
Zn263 O272 1.979 . S
O264 Zn263 2.032 1_556 S
O264 C268 1.278 . S
C265 O266 1.203 . S
C265 O272 1.271 . S
O266 C265 1.203 . S
O267 C260 1.185 . S
O267 Zn263 2.086 . S
C268 O264 1.278 . S
C268 O269 1.211 . S
O269 C268 1.211 . S
C270 O262 1.284 . S
C270 O271 1.273 . S
O271 C270 1.273 . S
O272 Zn263 1.979 . S
O272 C265 1.271 . S
C273 O274 1.160 . S
C273 O280 1.185 . S
O274 C273 1.160 . S
O275 Zn276 1.899 . S
O275 C283 1.284 . S
Zn276 O275 1.899 . S
Zn276 O277 2.032 . S
Zn276 O280 2.086 . S
Zn276 O285 1.977 . S
O277 Zn276 2.032 . S
O277 C281 1.278 . S
C278 O279 1.203 . S
C278 O285 1.267 . S
O279 C278 1.203 . S
O280 C273 1.185 . S
O280 Zn276 2.086 . S
C281 O277 1.278 . S
C281 O282 1.211 . S
O282 C281 1.211 . S
C283 O275 1.284 . S
C283 O284 1.273 . S
O284 C283 1.273 . S
O285 Zn276 1.977 . S
O285 C278 1.267 . S
C286 O287 1.160 . S
C286 O293 1.185 . S
O287 C286 1.160 . S
O288 Zn289 1.899 . S
O288 C296 1.284 . S
Zn289 O288 1.899 . S
Zn289 O290 2.032 . S
Zn289 O293 2.086 . S
Zn289 O298 1.977 . S
O290 Zn289 2.032 . S
O290 C294 1.278 . S
C291 O292 1.203 . S
C291 O298 1.267 . S
O292 C291 1.203 . S
O293 C286 1.185 . S
O293 Zn289 2.086 . S
C294 O290 1.278 . S
C294 O295 1.211 . S
O295 C294 1.211 . S
C296 O288 1.284 . S
C296 O297 1.273 . S
O297 C296 1.273 . S
O298 Zn289 1.977 . S
O298 C291 1.267 . S
C299 O300 1.160 . S
C299 O306 1.185 . S
O300 C299 1.160 . S
O301 Zn302 1.899 . S
O301 C309 1.284 . S
Zn302 O301 1.899 . S
Zn302 O303 2.032 . S
Zn302 O306 2.086 . S
Zn302 O311 1.977 . S
O303 Zn302 2.032 . S
O303 C307 1.278 . S
C304 O305 1.203 . S
C304 O311 1.267 . S
O305 C304 1.203 . S
O306 C299 1.185 . S
O306 Zn302 2.086 . S
C307 O303 1.278 . S
C307 O308 1.211 . S
O308 C307 1.211 . S
C309 O301 1.284 . S
C309 O310 1.273 . S
O310 C309 1.273 . S
O311 Zn302 1.977 . S
O311 C304 1.267 . S
Eu312 C321 2.828 . S
Eu312 O323 2.392 . S
Eu312 O325 2.418 . S
Eu312 O330 2.373 . S
Eu312 O333 2.488 . S
Eu312 O334 2.471 1_554 S
Eu312 O335 2.349 1_554 S
Eu313 O322 2.373 1_565 S
Eu313 O326 2.488 1_554 S
Eu313 O327 2.471 . S
Eu313 O328 2.349 1_565 S
Eu313 O331 2.392 1_564 S
Eu313 O332 2.418 1_554 S
Eu313 C342 2.828 . S
C314 O332 1.244 1_545 S
C314 O335 1.265 . S
C315 C316 1.381 . S
C315 C319 1.372 1_556 S
C315 C321 1.504 1_556 S
C316 C315 1.381 . S
C316 C318 1.369 . S
C316 H344 0.930 . S
C317 C319 1.383 . S
C317 C320 1.382 1_554 S
C317 H345 0.930 . S
C318 C316 1.369 . S
C318 C320 1.392 . S
C318 H346 0.930 . S
C319 C315 1.372 1_554 S
C319 C317 1.383 . S
C319 H347 0.931 . S
C320 C317 1.382 1_556 S
C320 C318 1.392 . S
C321 Eu312 2.828 . S
C321 C315 1.504 1_554 S
C321 O333 1.249 . S
C321 O334 1.244 1_554 S
O322 Eu313 2.373 1_545 S
O322 C324 1.258 . S
O323 Eu312 2.392 . S
O323 C324 1.242 . S
C324 O322 1.258 . S
C324 O323 1.242 . S
O325 Eu312 2.418 . S
O325 C329 1.244 . S
O326 Eu313 2.488 1_556 S
O326 C342 1.249 1_556 S
O327 Eu313 2.471 . S
O327 C342 1.244 . S
O328 Eu313 2.349 1_545 S
O328 C329 1.265 . S
C329 O325 1.244 . S
C329 O328 1.265 . S
O330 Eu312 2.373 . S
O330 C343 1.256 1_554 S
O331 Eu313 2.392 1_546 S
O331 C343 1.242 . S
O332 Eu313 2.418 1_556 S
O332 C314 1.244 1_565 S
O333 Eu312 2.488 . S
O333 C321 1.249 . S
O334 Eu312 2.471 1_556 S
O334 C321 1.244 1_556 S
O335 Eu312 2.349 1_556 S
O335 C314 1.265 . S
C336 C337 1.379 . S
C336 C340 1.373 . S
C336 C342 1.505 . S
C337 C336 1.379 . S
C337 C339 1.369 . S
C337 H348 0.930 . S
C338 C340 1.383 . S
C338 C341 1.382 . S
C338 H349 0.930 . S
C339 C337 1.369 . S
C339 C341 1.392 . S
C339 H350 0.930 . S
C340 C336 1.373 . S
C340 C338 1.383 . S
C340 H351 0.931 1_554 S
C341 C338 1.382 . S
C341 C339 1.392 . S
C342 Eu313 2.828 . S
C342 O326 1.249 1_554 S
C342 O327 1.244 . S
C342 C336 1.505 . S
C343 O330 1.256 1_556 S
C343 O331 1.242 . S
H344 C316 0.930 . S
H345 C317 0.930 . S
H346 C318 0.930 . S
H347 C319 0.931 . S
H348 C337 0.930 . S
H349 C338 0.930 . S
H350 C339 0.930 . S
H351 C340 0.931 1_556 S
Eu352 C361 2.828 . S
Eu352 O363 2.392 . S
Eu352 O365 2.418 . S
Eu352 O370 2.373 . S
Eu352 O373 2.488 . S
Eu352 O374 2.471 . S
Eu352 O375 2.349 . S
Eu353 O362 2.373 . S
Eu353 O366 2.488 . S
Eu353 O367 2.471 . S
Eu353 O368 2.349 . S
Eu353 O371 2.392 . S
Eu353 O372 2.418 . S
Eu353 C382 2.828 . S
C354 O372 1.244 . S
C354 O375 1.265 . S
C355 C356 1.379 . S
C355 C359 1.373 . S
C355 C361 1.505 . S
C356 C355 1.379 . S
C356 C358 1.369 . S
C356 H384 0.930 . S
C357 C359 1.383 . S
C357 C360 1.382 . S
C357 H385 0.930 . S
C358 C356 1.369 . S
C358 C360 1.392 . S
C358 H386 0.930 . S
C359 C355 1.373 . S
C359 C357 1.383 . S
C359 H387 0.931 . S
C360 C357 1.382 . S
C360 C358 1.392 . S
C361 Eu352 2.828 . S
C361 C355 1.505 . S
C361 O373 1.249 . S
C361 O374 1.244 . S
O362 Eu353 2.373 . S
O362 C364 1.258 . S
O363 Eu352 2.392 . S
O363 C364 1.242 . S
C364 O362 1.258 . S
C364 O363 1.242 . S
O365 Eu352 2.418 . S
O365 C369 1.244 . S
O366 Eu353 2.488 . S
O366 C382 1.249 . S
O367 Eu353 2.471 . S
O367 C382 1.244 . S
O368 Eu353 2.349 . S
O368 C369 1.265 . S
C369 O365 1.244 . S
C369 O368 1.265 . S
O370 Eu352 2.373 . S
O370 C383 1.258 . S
O371 Eu353 2.392 . S
O371 C383 1.242 . S
O372 Eu353 2.418 . S
O372 C354 1.244 . S
O373 Eu352 2.488 . S
O373 C361 1.249 . S
O374 Eu352 2.471 . S
O374 C361 1.244 . S
O375 Eu352 2.349 . S
O375 C354 1.265 . S
C376 C377 1.379 . S
C376 C380 1.373 . S
C376 C382 1.505 . S
C377 C376 1.379 . S
C377 C379 1.369 . S
C377 H388 0.930 . S
C378 C380 1.383 . S
C378 C381 1.382 . S
C378 H389 0.930 . S
C379 C377 1.369 . S
C379 C381 1.392 . S
C379 H390 0.930 . S
C380 C376 1.373 . S
C380 C378 1.383 . S
C380 H391 0.931 . S
C381 C378 1.382 . S
C381 C379 1.392 . S
C382 Eu353 2.828 . S
C382 O366 1.249 . S
C382 O367 1.244 . S
C382 C376 1.505 . S
C383 O370 1.258 . S
C383 O371 1.242 . S
H384 C356 0.930 . S
H385 C357 0.930 . S
H386 C358 0.930 . S
H387 C359 0.931 . S
H388 C377 0.930 . S
H389 C378 0.930 . S
H390 C379 0.930 . S
H391 C380 0.931 . S
Eu392 C401 2.828 . S
Eu392 O403 2.392 . S
Eu392 O405 2.418 . S
Eu392 O410 2.373 . S
Eu392 O413 2.488 . S
Eu392 O414 2.471 . S
Eu392 O415 2.349 . S
Eu393 O402 2.373 . S
Eu393 O406 2.488 . S
Eu393 O407 2.471 . S
Eu393 O408 2.349 . S
Eu393 O411 2.392 1_545 S
Eu393 O412 2.418 . S
Eu393 C422 2.828 . S
C394 O412 1.244 . S
C394 O415 1.265 . S
C395 C396 1.414 . S
C395 C399 1.374 . S
C395 C401 1.471 1_565 S
C396 C395 1.414 . S
C396 C398 1.369 . S
C396 H424 0.930 . S
C397 C399 1.383 . S
C397 C400 1.382 . S
C397 H425 0.930 . S
C398 C396 1.369 . S
C398 C400 1.392 . S
C398 H426 0.930 . S
C399 C395 1.374 . S
C399 C397 1.383 . S
C399 H427 0.931 1_565 S
C400 C397 1.382 . S
C400 C398 1.392 . S
C401 Eu392 2.828 . S
C401 C395 1.471 1_545 S
C401 O413 1.249 . S
C401 O414 1.244 . S
O402 Eu393 2.373 . S
O402 C404 1.258 . S
O403 Eu392 2.392 . S
O403 C404 1.242 . S
C404 O402 1.258 . S
C404 O403 1.242 . S
O405 Eu392 2.418 . S
O405 C409 1.244 . S
O406 Eu393 2.488 . S
O406 C422 1.249 . S
O407 Eu393 2.471 . S
O407 C422 1.244 . S
O408 Eu393 2.349 . S
O408 C409 1.265 . S
C409 O405 1.244 . S
C409 O408 1.265 . S
O410 Eu392 2.373 . S
O410 C423 1.258 1_545 S
O411 Eu393 2.392 1_565 S
O411 C423 1.242 . S
O412 Eu393 2.418 . S
O412 C394 1.244 . S
O413 Eu392 2.488 . S
O413 C401 1.249 . S
O414 Eu392 2.471 . S
O414 C401 1.244 . S
O415 Eu392 2.349 . S
O415 C394 1.265 . S
C416 C417 1.379 . S
C416 C420 1.373 . S
C416 C422 1.505 . S
C417 C416 1.379 . S
C417 C419 1.369 . S
C417 H428 0.930 . S
C418 C420 1.383 . S
C418 C421 1.382 . S
C418 H429 0.930 . S
C419 C417 1.369 . S
C419 C421 1.392 . S
C419 H430 0.930 . S
C420 C416 1.373 . S
C420 C418 1.383 . S
C420 H431 0.931 . S
C421 C418 1.382 . S
C421 C419 1.392 . S
C422 Eu393 2.828 . S
C422 O406 1.249 . S
C422 O407 1.244 . S
C422 C416 1.505 . S
C423 O410 1.258 1_565 S
C423 O411 1.242 . S
H424 C396 0.930 . S
H425 C397 0.930 . S
H426 C398 0.930 . S
H427 C399 0.931 1_545 S
H428 C417 0.930 . S
H429 C418 0.930 . S
H430 C419 0.930 . S
H431 C420 0.931 . S
Eu432 C441 2.828 . S
Eu432 O443 2.392 . S
Eu432 O445 2.418 . S
Eu432 O450 2.373 . S
Eu432 O453 2.488 . S
Eu432 O454 2.471 . S
Eu432 O455 2.349 . S
Eu433 O442 2.373 . S
Eu433 O446 2.488 . S
Eu433 O447 2.471 . S
Eu433 O448 2.349 . S
Eu433 O451 2.392 . S
Eu433 O452 2.418 . S
Eu433 C462 2.828 . S
C434 O452 1.244 . S
C434 O455 1.265 . S
C435 C436 1.379 . S
C435 C439 1.373 . S
C435 C441 1.505 . S
C436 C435 1.379 . S
C436 C438 1.369 . S
C436 H464 0.930 . S
C437 C439 1.383 . S
C437 C440 1.382 . S
C437 H465 0.930 . S
C438 C436 1.369 . S
C438 C440 1.392 . S
C438 H466 0.930 . S
C439 C435 1.373 . S
C439 C437 1.383 . S
C439 H467 0.931 . S
C440 C437 1.382 . S
C440 C438 1.392 . S
C441 Eu432 2.828 . S
C441 C435 1.505 . S
C441 O453 1.249 . S
C441 O454 1.244 . S
O442 Eu433 2.373 . S
O442 C444 1.258 . S
O443 Eu432 2.392 . S
O443 C444 1.242 . S
C444 O442 1.258 . S
C444 O443 1.242 . S
O445 Eu432 2.418 . S
O445 C449 1.244 . S
O446 Eu433 2.488 . S
O446 C462 1.249 . S
O447 Eu433 2.471 . S
O447 C462 1.244 . S
O448 Eu433 2.349 . S
O448 C449 1.265 . S
C449 O445 1.244 . S
C449 O448 1.265 . S
O450 Eu432 2.373 . S
O450 C463 1.258 . S
O451 Eu433 2.392 . S
O451 C463 1.242 . S
O452 Eu433 2.418 . S
O452 C434 1.244 . S
O453 Eu432 2.488 . S
O453 C441 1.249 . S
O454 Eu432 2.471 . S
O454 C441 1.244 . S
O455 Eu432 2.349 . S
O455 C434 1.265 . S
C456 C457 1.379 . S
C456 C460 1.373 . S
C456 C462 1.505 . S
C457 C456 1.379 . S
C457 C459 1.369 . S
C457 H468 0.930 . S
C458 C460 1.383 . S
C458 C461 1.382 . S
C458 H469 0.930 . S
C459 C457 1.369 . S
C459 C461 1.392 . S
C459 H470 0.930 . S
C460 C456 1.373 . S
C460 C458 1.383 . S
C460 H471 0.931 . S
C461 C458 1.382 . S
C461 C459 1.392 . S
C462 Eu433 2.828 . S
C462 O446 1.249 . S
C462 O447 1.244 . S
C462 C456 1.505 . S
C463 O450 1.258 . S
C463 O451 1.242 . S
H464 C436 0.930 . S
H465 C437 0.930 . S
H466 C438 0.930 . S
H467 C439 0.931 . S
H468 C457 0.930 . S
H469 C458 0.930 . S
H470 C459 0.930 . S
H471 C460 0.931 . S
Eu472 C481 2.828 . S
Eu472 O483 2.392 . S
Eu472 O485 2.387 1_455 S
Eu472 O490 2.373 . S
Eu472 O493 2.488 . S
Eu472 O494 2.471 . S
Eu472 O495 2.349 . S
Eu473 O482 2.373 . S
Eu473 O486 2.488 1_545 S
Eu473 O487 2.471 1_545 S
Eu473 O488 2.349 . S
Eu473 O491 2.392 . S
Eu473 O492 2.418 . S
Eu473 C502 2.828 1_545 S
C474 O492 1.244 . S
C474 O495 1.265 . S
C475 C476 1.379 . S
C475 C479 1.373 . S
C475 C481 1.505 . S
C476 C475 1.379 . S
C476 C478 1.369 . S
C476 H504 0.930 . S
C477 C479 1.383 . S
C477 C480 1.382 . S
C477 H505 0.930 1_455 S
C478 C476 1.369 . S
C478 C480 1.392 . S
C478 H506 0.930 . S
C479 C475 1.373 . S
C479 C477 1.383 . S
C479 H507 0.931 . S
C480 C477 1.382 . S
C480 C478 1.392 . S
C481 Eu472 2.828 . S
C481 C475 1.505 . S
C481 O493 1.249 . S
C481 O494 1.244 . S
O482 Eu473 2.373 . S
O482 C484 1.258 . S
O483 Eu472 2.392 . S
O483 C484 1.242 . S
C484 O482 1.258 . S
C484 O483 1.242 . S
O485 Eu472 2.387 1_655 S
O485 C489 1.232 1_655 S
O486 Eu473 2.488 1_565 S
O486 C502 1.249 . S
O487 Eu473 2.471 1_565 S
O487 C502 1.244 . S
O488 Eu473 2.349 . S
O488 C489 1.265 . S
C489 O485 1.232 1_455 S
C489 O488 1.265 . S
O490 Eu472 2.373 . S
O490 C503 1.258 . S
O491 Eu473 2.392 . S
O491 C503 1.242 . S
O492 Eu473 2.418 . S
O492 C474 1.244 . S
O493 Eu472 2.488 . S
O493 C481 1.249 . S
O494 Eu472 2.471 . S
O494 C481 1.244 . S
O495 Eu472 2.349 . S
O495 C474 1.265 . S
C496 C497 1.379 . S
C496 C500 1.373 . S
C496 C502 1.505 . S
C497 C496 1.379 . S
C497 C499 1.369 . S
C497 H508 0.930 . S
C498 C500 1.383 . S
C498 C501 1.382 . S
C498 H509 0.930 . S
C499 C497 1.369 . S
C499 C501 1.392 . S
C499 H510 0.930 . S
C500 C496 1.373 . S
C500 C498 1.383 . S
C500 H511 0.931 . S
C501 C498 1.382 . S
C501 C499 1.392 . S
C502 Eu473 2.828 1_565 S
C502 O486 1.249 . S
C502 O487 1.244 . S
C502 C496 1.505 . S
C503 O490 1.258 . S
C503 O491 1.242 . S
H504 C476 0.930 . S
H505 C477 0.930 1_655 S
H506 C478 0.930 . S
H507 C479 0.931 . S
H508 C497 0.930 . S
H509 C498 0.930 . S
H510 C499 0.930 . S
H511 C500 0.931 . S
Eu512 C521 2.828 . S
Eu512 O523 2.392 . S
Eu512 O525 2.418 . S
Eu512 O530 2.373 . S
Eu512 O533 2.488 . S
Eu512 O534 2.471 . S
Eu512 O535 2.349 . S
Eu513 O522 2.373 . S
Eu513 O526 2.488 . S
Eu513 O527 2.471 . S
Eu513 O528 2.349 . S
Eu513 O531 2.392 . S
Eu513 O532 2.418 . S
Eu513 C542 2.828 . S
C514 O532 1.244 . S
C514 O535 1.265 . S
C515 C516 1.379 . S
C515 C519 1.373 . S
C515 C521 1.505 . S
C516 C515 1.379 . S
C516 C518 1.369 . S
C516 H544 0.930 . S
C517 C519 1.383 . S
C517 C520 1.382 . S
C517 H545 0.930 . S
C518 C516 1.369 . S
C518 C520 1.392 . S
C518 H546 0.930 . S
C519 C515 1.373 . S
C519 C517 1.383 . S
C519 H547 0.931 . S
C520 C517 1.382 . S
C520 C518 1.392 . S
C521 Eu512 2.828 . S
C521 C515 1.505 . S
C521 O533 1.249 . S
C521 O534 1.244 . S
O522 Eu513 2.373 . S
O522 C524 1.258 . S
O523 Eu512 2.392 . S
O523 C524 1.242 . S
C524 O522 1.258 . S
C524 O523 1.242 . S
O525 Eu512 2.418 . S
O525 C529 1.244 . S
O526 Eu513 2.488 . S
O526 C542 1.249 . S
O527 Eu513 2.471 . S
O527 C542 1.244 . S
O528 Eu513 2.349 . S
O528 C529 1.265 . S
C529 O525 1.244 . S
C529 O528 1.265 . S
O530 Eu512 2.373 . S
O530 C543 1.258 . S
O531 Eu513 2.392 . S
O531 C543 1.242 . S
O532 Eu513 2.418 . S
O532 C514 1.244 . S
O533 Eu512 2.488 . S
O533 C521 1.249 . S
O534 Eu512 2.471 . S
O534 C521 1.244 . S
O535 Eu512 2.349 . S
O535 C514 1.265 . S
C536 C537 1.379 . S
C536 C540 1.373 . S
C536 C542 1.505 . S
C537 C536 1.379 . S
C537 C539 1.369 . S
C537 H548 0.930 . S
C538 C540 1.383 . S
C538 C541 1.382 . S
C538 H549 0.930 . S
C539 C537 1.369 . S
C539 C541 1.392 . S
C539 H550 0.930 . S
C540 C536 1.373 . S
C540 C538 1.383 . S
C540 H551 0.931 . S
C541 C538 1.382 . S
C541 C539 1.392 . S
C542 Eu513 2.828 . S
C542 O526 1.249 . S
C542 O527 1.244 . S
C542 C536 1.505 . S
C543 O530 1.258 . S
C543 O531 1.242 . S
H544 C516 0.930 . S
H545 C517 0.930 . S
H546 C518 0.930 . S
H547 C519 0.931 . S
H548 C537 0.930 . S
H549 C538 0.930 . S
H550 C539 0.930 . S
H551 C540 0.931 . S
Eu552 C561 2.828 . S
Eu552 O563 2.392 . S
Eu552 O565 2.418 1_545 S
Eu552 O570 2.373 . S
Eu552 O573 2.488 1_545 S
Eu552 O574 2.471 . S
Eu552 O575 2.349 . S
Eu553 O562 2.369 1_556 S
Eu553 O566 2.488 . S
Eu553 O567 2.471 . S
Eu553 O568 2.349 . S
Eu553 O571 2.392 . S
Eu553 O572 2.418 1_556 S
Eu553 C582 2.828 . S
C554 O572 1.244 . S
C554 O575 1.265 . S
C555 C556 1.379 . S
C555 C559 1.373 1_545 S
C555 C561 1.505 . S
C556 C555 1.379 . S
C556 C558 1.369 . S
C556 H584 0.930 . S
C557 C559 1.383 . S
C557 C560 1.382 . S
C557 H585 0.930 . S
C558 C556 1.369 . S
C558 C560 1.392 1_545 S
C558 H586 0.930 . S
C559 C555 1.373 1_565 S
C559 C557 1.383 . S
C559 H587 0.931 . S
C560 C557 1.382 . S
C560 C558 1.392 1_565 S
C561 Eu552 2.828 . S
C561 C555 1.505 . S
C561 O573 1.249 1_545 S
C561 O574 1.244 . S
O562 Eu553 2.369 1_554 S
O562 C564 1.267 . S
O563 Eu552 2.392 . S
O563 C564 1.242 . S
C564 O562 1.267 . S
C564 O563 1.242 . S
O565 Eu552 2.418 1_565 S
O565 C569 1.244 . S
O566 Eu553 2.488 . S
O566 C582 1.249 . S
O567 Eu553 2.471 . S
O567 C582 1.244 . S
O568 Eu553 2.349 . S
O568 C569 1.265 1_546 S
C569 O565 1.244 . S
C569 O568 1.265 1_564 S
O570 Eu552 2.373 . S
O570 C583 1.258 . S
O571 Eu553 2.392 . S
O571 C583 1.242 1_556 S
O572 Eu553 2.418 1_554 S
O572 C554 1.244 . S
O573 Eu552 2.488 1_565 S
O573 C561 1.249 1_565 S
O574 Eu552 2.471 . S
O574 C561 1.244 . S
O575 Eu552 2.349 . S
O575 C554 1.265 . S
C576 C577 1.379 . S
C576 C580 1.373 . S
C576 C582 1.505 . S
C577 C576 1.379 . S
C577 C579 1.369 . S
C577 H588 0.930 . S
C578 C580 1.383 . S
C578 C581 1.382 . S
C578 H589 0.930 . S
C579 C577 1.369 . S
C579 C581 1.392 . S
C579 H590 0.930 . S
C580 C576 1.373 . S
C580 C578 1.383 . S
C580 H591 0.931 . S
C581 C578 1.382 . S
C581 C579 1.392 . S
C582 Eu553 2.828 . S
C582 O566 1.249 . S
C582 O567 1.244 . S
C582 C576 1.505 . S
C583 O570 1.258 . S
C583 O571 1.242 1_554 S
H584 C556 0.930 . S
H585 C557 0.930 . S
H586 C558 0.930 . S
H587 C559 0.931 . S
H588 C577 0.930 . S
H589 C578 0.930 . S
H590 C579 0.930 . S
H591 C580 0.931 . S
Eu592 C601 2.828 . S
Eu592 O603 2.392 . S
Eu592 O605 2.418 . S
Eu592 O610 2.373 . S
Eu592 O613 2.488 . S
Eu592 O614 2.471 . S
Eu592 O615 2.349 . S
Eu593 O602 2.373 . S
Eu593 O606 2.488 . S
Eu593 O607 2.471 . S
Eu593 O608 2.349 . S
Eu593 O611 2.392 . S
Eu593 O612 2.418 . S
Eu593 C622 2.828 . S
C594 O612 1.244 . S
C594 O615 1.265 . S
C595 C596 1.379 . S
C595 C599 1.373 . S
C595 C601 1.505 . S
C596 C595 1.379 . S
C596 C598 1.369 . S
C596 H624 0.930 . S
C597 C599 1.383 . S
C597 C600 1.382 . S
C597 H625 0.930 . S
C598 C596 1.369 . S
C598 C600 1.392 . S
C598 H626 0.930 . S
C599 C595 1.373 . S
C599 C597 1.383 . S
C599 H627 0.931 . S
C600 C597 1.382 . S
C600 C598 1.392 . S
C601 Eu592 2.828 . S
C601 C595 1.505 . S
C601 O613 1.249 . S
C601 O614 1.244 . S
O602 Eu593 2.373 . S
O602 C604 1.258 . S
O603 Eu592 2.392 . S
O603 C604 1.242 . S
C604 O602 1.258 . S
C604 O603 1.242 . S
O605 Eu592 2.418 . S
O605 C609 1.244 . S
O606 Eu593 2.488 . S
O606 C622 1.249 . S
O607 Eu593 2.471 . S
O607 C622 1.244 . S
O608 Eu593 2.349 . S
O608 C609 1.265 . S
C609 O605 1.244 . S
C609 O608 1.265 . S
O610 Eu592 2.373 . S
O610 C623 1.258 . S
O611 Eu593 2.392 . S
O611 C623 1.242 . S
O612 Eu593 2.418 . S
O612 C594 1.244 . S
O613 Eu592 2.488 . S
O613 C601 1.249 . S
O614 Eu592 2.471 . S
O614 C601 1.244 . S
O615 Eu592 2.349 . S
O615 C594 1.265 . S
C616 C617 1.379 . S
C616 C620 1.373 . S
C616 C622 1.505 . S
C617 C616 1.379 . S
C617 C619 1.369 . S
C617 H628 0.930 . S
C618 C620 1.383 . S
C618 C621 1.382 . S
C618 H629 0.930 . S
C619 C617 1.369 . S
C619 C621 1.392 . S
C619 H630 0.930 . S
C620 C616 1.373 . S
C620 C618 1.383 . S
C620 H631 0.931 . S
C621 C618 1.382 . S
C621 C619 1.392 . S
C622 Eu593 2.828 . S
C622 O606 1.249 . S
C622 O607 1.244 . S
C622 C616 1.505 . S
C623 O610 1.258 . S
C623 O611 1.242 . S
H624 C596 0.930 . S
H625 C597 0.930 . S
H626 C598 0.930 . S
H627 C599 0.931 . S
H628 C617 0.930 . S
H629 C618 0.930 . S
H630 C619 0.930 . S
H631 C620 0.931 . S
Eu632 C641 2.828 . S
Eu632 O643 2.392 . S
Eu632 O645 2.418 . S
Eu632 O650 2.373 1_554 S
Eu632 O653 2.488 . S
Eu632 O654 2.471 . S
Eu632 O655 2.349 . S
Eu633 O642 2.373 . S
Eu633 O646 2.488 . S
Eu633 O647 2.471 . S
Eu633 O648 2.349 . S
Eu633 O651 2.392 1_554 S
Eu633 O652 2.418 . S
Eu633 C662 2.828 . S
C634 O652 1.244 . S
C634 O655 1.265 . S
C635 C636 1.406 . S
C635 C639 1.369 1_556 S
C635 C641 1.484 1_556 S
C636 C635 1.406 . S
C636 C638 1.369 . S
C636 H664 0.930 . S
C637 C639 1.383 1_556 S
C637 C640 1.382 . S
C637 H665 0.930 . S
C638 C636 1.369 . S
C638 C640 1.392 . S
C638 H666 0.930 . S
C639 C635 1.369 1_554 S
C639 C637 1.383 1_554 S
C639 H667 0.931 . S
C640 C637 1.382 . S
C640 C638 1.392 . S
C641 Eu632 2.828 . S
C641 C635 1.484 1_554 S
C641 O653 1.249 . S
C641 O654 1.244 . S
O642 Eu633 2.373 . S
O642 C644 1.258 . S
O643 Eu632 2.392 . S
O643 C644 1.242 . S
C644 O642 1.258 . S
C644 O643 1.242 . S
O645 Eu632 2.418 . S
O645 C649 1.244 . S
O646 Eu633 2.488 . S
O646 C662 1.249 . S
O647 Eu633 2.471 . S
O647 C662 1.244 . S
O648 Eu633 2.349 . S
O648 C649 1.265 . S
C649 O645 1.244 . S
C649 O648 1.265 . S
O650 Eu632 2.373 1_556 S
O650 C663 1.258 . S
O651 Eu633 2.392 1_556 S
O651 C663 1.242 . S
O652 Eu633 2.418 . S
O652 C634 1.244 . S
O653 Eu632 2.488 . S
O653 C641 1.249 . S
O654 Eu632 2.471 . S
O654 C641 1.244 . S
O655 Eu632 2.349 . S
O655 C634 1.265 . S
C656 C657 1.379 . S
C656 C660 1.373 . S
C656 C662 1.505 . S
C657 C656 1.379 . S
C657 C659 1.369 . S
C657 H668 0.930 . S
C658 C660 1.383 . S
C658 C661 1.382 . S
C658 H669 0.930 . S
C659 C657 1.369 . S
C659 C661 1.392 . S
C659 H670 0.930 . S
C660 C656 1.373 . S
C660 C658 1.383 . S
C660 H671 0.931 . S
C661 C658 1.382 . S
C661 C659 1.392 . S
C662 Eu633 2.828 . S
C662 O646 1.249 . S
C662 O647 1.244 . S
C662 C656 1.505 . S
C663 O650 1.258 . S
C663 O651 1.242 . S
H664 C636 0.930 . S
H665 C637 0.930 . S
H666 C638 0.930 . S
H667 C639 0.931 . S
H668 C657 0.930 . S
H669 C658 0.930 . S
H670 C659 0.930 . S
H671 C660 0.931 . S
Eu672 C681 2.828 . S
Eu672 O683 2.392 . S
Eu672 O685 2.418 . S
Eu672 O690 2.373 . S
Eu672 O693 2.488 . S
Eu672 O694 2.471 . S
Eu672 O695 2.349 . S
Eu673 O682 2.373 . S
Eu673 O686 2.488 . S
Eu673 O687 2.471 . S
Eu673 O688 2.349 . S
Eu673 O691 2.392 . S
Eu673 O692 2.418 . S
Eu673 C702 2.828 . S
C674 O692 1.244 . S
C674 O695 1.265 . S
C675 C676 1.379 . S
C675 C679 1.373 . S
C675 C681 1.505 . S
C676 C675 1.379 . S
C676 C678 1.369 . S
C676 H704 0.930 . S
C677 C679 1.383 . S
C677 C680 1.382 . S
C677 H705 0.930 . S
C678 C676 1.369 . S
C678 C680 1.392 . S
C678 H706 0.930 . S
C679 C675 1.373 . S
C679 C677 1.383 . S
C679 H707 0.931 . S
C680 C677 1.382 . S
C680 C678 1.392 . S
C681 Eu672 2.828 . S
C681 C675 1.505 . S
C681 O693 1.249 . S
C681 O694 1.244 . S
O682 Eu673 2.373 . S
O682 C684 1.258 . S
O683 Eu672 2.392 . S
O683 C684 1.242 . S
C684 O682 1.258 . S
C684 O683 1.242 . S
O685 Eu672 2.418 . S
O685 C689 1.244 . S
O686 Eu673 2.488 . S
O686 C702 1.249 . S
O687 Eu673 2.471 . S
O687 C702 1.244 . S
O688 Eu673 2.349 . S
O688 C689 1.265 . S
C689 O685 1.244 . S
C689 O688 1.265 . S
O690 Eu672 2.373 . S
O690 C703 1.258 . S
O691 Eu673 2.392 . S
O691 C703 1.242 . S
O692 Eu673 2.418 . S
O692 C674 1.244 . S
O693 Eu672 2.488 . S
O693 C681 1.249 . S
O694 Eu672 2.471 . S
O694 C681 1.244 . S
O695 Eu672 2.349 . S
O695 C674 1.265 . S
C696 C697 1.379 . S
C696 C700 1.373 . S
C696 C702 1.505 . S
C697 C696 1.379 . S
C697 C699 1.369 . S
C697 H708 0.930 . S
C698 C700 1.383 . S
C698 C701 1.382 . S
C698 H709 0.930 . S
C699 C697 1.369 . S
C699 C701 1.392 . S
C699 H710 0.930 . S
C700 C696 1.373 . S
C700 C698 1.383 . S
C700 H711 0.931 . S
C701 C698 1.382 . S
C701 C699 1.392 . S
C702 Eu673 2.828 . S
C702 O686 1.249 . S
C702 O687 1.244 . S
C702 C696 1.505 . S
C703 O690 1.258 . S
C703 O691 1.242 . S
H704 C676 0.930 . S
H705 C677 0.930 . S
H706 C678 0.930 . S
H707 C679 0.931 . S
H708 C697 0.930 . S
H709 C698 0.930 . S
H710 C699 0.930 . S
H711 C700 0.931 . S
Eu712 C721 2.828 . S
Eu712 O723 2.392 . S
Eu712 O725 2.418 . S
Eu712 O730 2.373 . S
Eu712 O733 2.488 . S
Eu712 O734 2.471 . S
Eu712 O735 2.349 . S
Eu713 O722 2.373 . S
Eu713 O726 2.488 . S
Eu713 O727 2.471 . S
Eu713 O728 2.349 . S
Eu713 O731 2.392 . S
Eu713 O732 2.418 . S
Eu713 C742 2.828 . S
C714 O732 1.244 . S
C714 O735 1.265 . S
C715 C716 1.353 1_455 S
C715 C719 1.373 . S
C715 C721 1.505 . S
C716 C715 1.353 1_655 S
C716 C718 1.390 . S
C716 H744 0.937 . S
C717 C719 1.395 . S
C717 C720 1.367 1_455 S
C717 H745 0.925 . S
C718 C716 1.390 . S
C718 C720 1.392 . S
C718 H746 0.930 . S
C719 C715 1.373 . S
C719 C717 1.395 . S
C719 H747 0.931 . S
C720 C717 1.367 1_655 S
C720 C718 1.392 . S
C721 Eu712 2.828 . S
C721 C715 1.505 . S
C721 O733 1.249 . S
C721 O734 1.244 . S
O722 Eu713 2.373 . S
O722 C724 1.258 . S
O723 Eu712 2.392 . S
O723 C724 1.242 . S
C724 O722 1.258 . S
C724 O723 1.242 . S
O725 Eu712 2.418 . S
O725 C729 1.244 . S
O726 Eu713 2.488 . S
O726 C742 1.249 . S
O727 Eu713 2.471 . S
O727 C742 1.244 . S
O728 Eu713 2.349 . S
O728 C729 1.265 . S
C729 O725 1.244 . S
C729 O728 1.265 . S
O730 Eu712 2.373 . S
O730 C743 1.258 . S
O731 Eu713 2.392 . S
O731 C743 1.242 . S
O732 Eu713 2.418 . S
O732 C714 1.244 . S
O733 Eu712 2.488 . S
O733 C721 1.249 . S
O734 Eu712 2.471 . S
O734 C721 1.244 . S
O735 Eu712 2.349 . S
O735 C714 1.265 . S
C736 C737 1.379 . S
C736 C740 1.373 . S
C736 C742 1.505 . S
C737 C736 1.379 . S
C737 C739 1.369 . S
C737 H748 0.930 . S
C738 C740 1.383 . S
C738 C741 1.382 . S
C738 H749 0.930 . S
C739 C737 1.369 . S
C739 C741 1.392 . S
C739 H750 0.930 . S
C740 C736 1.373 . S
C740 C738 1.383 . S
C740 H751 0.931 . S
C741 C738 1.382 . S
C741 C739 1.392 . S
C742 Eu713 2.828 . S
C742 O726 1.249 . S
C742 O727 1.244 . S
C742 C736 1.505 . S
C743 O730 1.258 . S
C743 O731 1.242 . S
H744 C716 0.937 . S
H745 C717 0.925 . S
H746 C718 0.930 . S
H747 C719 0.931 . S
H748 C737 0.930 . S
H749 C738 0.930 . S
H750 C739 0.930 . S
H751 C740 0.931 . S
Eu752 C761 2.828 . S
Eu752 O763 2.392 . S
Eu752 O765 2.418 . S
Eu752 O770 2.373 . S
Eu752 O773 2.488 . S
Eu752 O774 2.471 . S
Eu752 O775 2.349 . S
Eu753 O762 2.373 . S
Eu753 O766 2.488 . S
Eu753 O767 2.471 . S
Eu753 O768 2.349 . S
Eu753 O771 2.392 . S
Eu753 O772 2.418 . S
Eu753 C782 2.828 . S
C754 O772 1.244 . S
C754 O775 1.265 . S
C755 C756 1.379 . S
C755 C759 1.373 . S
C755 C761 1.505 . S
C756 C755 1.379 . S
C756 C758 1.369 . S
C756 H784 0.930 . S
C757 C759 1.383 . S
C757 C760 1.382 . S
C757 H785 0.930 . S
C758 C756 1.369 . S
C758 C760 1.392 . S
C758 H786 0.930 . S
C759 C755 1.373 . S
C759 C757 1.383 . S
C759 H787 0.931 . S
C760 C757 1.382 . S
C760 C758 1.392 . S
C761 Eu752 2.828 . S
C761 C755 1.505 . S
C761 O773 1.249 . S
C761 O774 1.244 . S
O762 Eu753 2.373 . S
O762 C764 1.258 . S
O763 Eu752 2.392 . S
O763 C764 1.242 . S
C764 O762 1.258 . S
C764 O763 1.242 . S
O765 Eu752 2.418 . S
O765 C769 1.244 . S
O766 Eu753 2.488 . S
O766 C782 1.249 . S
O767 Eu753 2.471 . S
O767 C782 1.244 . S
O768 Eu753 2.349 . S
O768 C769 1.265 . S
C769 O765 1.244 . S
C769 O768 1.265 . S
O770 Eu752 2.373 . S
O770 C783 1.258 . S
O771 Eu753 2.392 . S
O771 C783 1.242 . S
O772 Eu753 2.418 . S
O772 C754 1.244 . S
O773 Eu752 2.488 . S
O773 C761 1.249 . S
O774 Eu752 2.471 . S
O774 C761 1.244 . S
O775 Eu752 2.349 . S
O775 C754 1.265 . S
C776 C777 1.379 . S
C776 C780 1.373 . S
C776 C782 1.505 . S
C777 C776 1.379 . S
C777 C779 1.369 . S
C777 H788 0.930 . S
C778 C780 1.383 . S
C778 C781 1.382 . S
C778 H789 0.930 . S
C779 C777 1.369 . S
C779 C781 1.392 . S
C779 H790 0.930 . S
C780 C776 1.373 . S
C780 C778 1.383 . S
C780 H791 0.931 . S
C781 C778 1.382 . S
C781 C779 1.392 . S
C782 Eu753 2.828 . S
C782 O766 1.249 . S
C782 O767 1.244 . S
C782 C776 1.505 . S
C783 O770 1.258 . S
C783 O771 1.242 . S
H784 C756 0.930 . S
H785 C757 0.930 . S
H786 C758 0.930 . S
H787 C759 0.931 . S
H788 C777 0.930 . S
H789 C778 0.930 . S
H790 C779 0.930 . S
H791 C780 0.931 . S
Eu792 C801 2.828 . S
Eu792 O803 2.392 . S
Eu792 O805 2.418 . S
Eu792 O810 2.373 . S
Eu792 O813 2.488 . S
Eu792 O814 2.471 . S
Eu792 O815 2.349 . S
Eu793 O802 2.373 . S
Eu793 O806 2.488 . S
Eu793 O807 2.471 . S
Eu793 O808 2.349 . S
Eu793 O811 2.392 . S
Eu793 O812 2.418 . S
Eu793 C822 2.828 . S
C794 O812 1.244 . S
C794 O815 1.265 . S
C795 C796 1.379 . S
C795 C799 1.373 . S
C795 C801 1.505 . S
C796 C795 1.379 . S
C796 C798 1.369 . S
C796 H824 0.930 . S
C797 C799 1.383 . S
C797 C800 1.382 . S
C797 H825 0.930 . S
C798 C796 1.369 . S
C798 C800 1.392 . S
C798 H826 0.930 . S
C799 C795 1.373 . S
C799 C797 1.383 . S
C799 H827 0.931 . S
C800 C797 1.382 . S
C800 C798 1.392 . S
C801 Eu792 2.828 . S
C801 C795 1.505 . S
C801 O813 1.249 . S
C801 O814 1.244 . S
O802 Eu793 2.373 . S
O802 C804 1.258 . S
O803 Eu792 2.392 . S
O803 C804 1.242 . S
C804 O802 1.258 . S
C804 O803 1.242 . S
O805 Eu792 2.418 . S
O805 C809 1.244 . S
O806 Eu793 2.488 . S
O806 C822 1.249 . S
O807 Eu793 2.471 . S
O807 C822 1.244 . S
O808 Eu793 2.349 . S
O808 C809 1.265 . S
C809 O805 1.244 . S
C809 O808 1.265 . S
O810 Eu792 2.373 . S
O810 C823 1.258 . S
O811 Eu793 2.392 . S
O811 C823 1.242 . S
O812 Eu793 2.418 . S
O812 C794 1.244 . S
O813 Eu792 2.488 . S
O813 C801 1.249 . S
O814 Eu792 2.471 . S
O814 C801 1.244 . S
O815 Eu792 2.349 . S
O815 C794 1.265 . S
C816 C817 1.379 . S
C816 C820 1.373 . S
C816 C822 1.505 . S
C817 C816 1.379 . S
C817 C819 1.369 . S
C817 H828 0.930 . S
C818 C820 1.383 . S
C818 C821 1.382 . S
C818 H829 0.930 . S
C819 C817 1.369 . S
C819 C821 1.392 . S
C819 H830 0.930 . S
C820 C816 1.373 . S
C820 C818 1.383 . S
C820 H831 0.931 . S
C821 C818 1.382 . S
C821 C819 1.392 . S
C822 Eu793 2.828 . S
C822 O806 1.249 . S
C822 O807 1.244 . S
C822 C816 1.505 . S
C823 O810 1.258 . S
C823 O811 1.242 . S
H824 C796 0.930 . S
H825 C797 0.930 . S
H826 C798 0.930 . S
H827 C799 0.931 . S
H828 C817 0.930 . S
H829 C818 0.930 . S
H830 C819 0.930 . S
H831 C820 0.931 . S
Eu832 C841 2.828 . S
Eu832 O843 2.392 . S
Eu832 O845 2.418 . S
Eu832 O850 2.373 . S
Eu832 O853 2.488 . S
Eu832 O854 2.471 . S
Eu832 O855 2.349 . S
Eu833 O842 2.373 . S
Eu833 O846 2.488 . S
Eu833 O847 2.471 . S
Eu833 O848 2.349 . S
Eu833 O851 2.392 . S
Eu833 O852 2.418 . S
Eu833 C862 2.828 . S
C834 O852 1.244 . S
C834 O855 1.265 . S
C835 C836 1.379 . S
C835 C839 1.373 . S
C835 C841 1.505 . S
C836 C835 1.379 . S
C836 C838 1.369 . S
C836 H864 0.930 . S
C837 C839 1.383 . S
C837 C840 1.382 . S
C837 H865 0.930 . S
C838 C836 1.369 . S
C838 C840 1.392 . S
C838 H866 0.930 . S
C839 C835 1.373 . S
C839 C837 1.383 . S
C839 H867 0.931 . S
C840 C837 1.382 . S
C840 C838 1.392 . S
C841 Eu832 2.828 . S
C841 C835 1.505 . S
C841 O853 1.249 . S
C841 O854 1.244 . S
O842 Eu833 2.373 . S
O842 C844 1.258 . S
O843 Eu832 2.392 . S
O843 C844 1.242 . S
C844 O842 1.258 . S
C844 O843 1.242 . S
O845 Eu832 2.418 . S
O845 C849 1.244 . S
O846 Eu833 2.488 . S
O846 C862 1.249 . S
O847 Eu833 2.471 . S
O847 C862 1.244 . S
O848 Eu833 2.349 . S
O848 C849 1.265 . S
C849 O845 1.244 . S
C849 O848 1.265 . S
O850 Eu832 2.373 . S
O850 C863 1.258 . S
O851 Eu833 2.392 . S
O851 C863 1.242 . S
O852 Eu833 2.418 . S
O852 C834 1.244 . S
O853 Eu832 2.488 . S
O853 C841 1.249 . S
O854 Eu832 2.471 . S
O854 C841 1.244 . S
O855 Eu832 2.349 . S
O855 C834 1.265 . S
C856 C857 1.379 . S
C856 C860 1.373 . S
C856 C862 1.505 . S
C857 C856 1.379 . S
C857 C859 1.369 . S
C857 H868 0.930 . S
C858 C860 1.383 . S
C858 C861 1.382 . S
C858 H869 0.930 . S
C859 C857 1.369 . S
C859 C861 1.392 . S
C859 H870 0.930 . S
C860 C856 1.373 . S
C860 C858 1.383 . S
C860 H871 0.931 . S
C861 C858 1.382 . S
C861 C859 1.392 . S
C862 Eu833 2.828 . S
C862 O846 1.249 . S
C862 O847 1.244 . S
C862 C856 1.505 . S
C863 O850 1.258 . S
C863 O851 1.242 . S
H864 C836 0.930 . S
H865 C837 0.930 . S
H866 C838 0.930 . S
H867 C839 0.931 . S
H868 C857 0.930 . S
H869 C858 0.930 . S
H870 C859 0.930 . S
H871 C860 0.931 . S
Eu872 C881 2.828 . S
Eu872 O883 2.392 . S
Eu872 O885 2.418 . S
Eu872 O890 2.373 . S
Eu872 O893 2.488 . S
Eu872 O894 2.471 . S
Eu872 O895 2.349 . S
Eu873 O882 2.373 . S
Eu873 O886 2.488 . S
Eu873 O887 2.471 . S
Eu873 O888 2.349 . S
Eu873 O891 2.392 . S
Eu873 O892 2.418 . S
Eu873 C902 2.828 . S
C874 O892 1.244 . S
C874 O895 1.265 . S
C875 C876 1.379 . S
C875 C879 1.373 . S
C875 C881 1.505 . S
C876 C875 1.379 . S
C876 C878 1.369 . S
C876 H904 0.930 . S
C877 C879 1.383 . S
C877 C880 1.382 . S
C877 H905 0.930 . S
C878 C876 1.369 . S
C878 C880 1.392 . S
C878 H906 0.930 . S
C879 C875 1.373 . S
C879 C877 1.383 . S
C879 H907 0.931 . S
C880 C877 1.382 . S
C880 C878 1.392 . S
C881 Eu872 2.828 . S
C881 C875 1.505 . S
C881 O893 1.249 . S
C881 O894 1.244 . S
O882 Eu873 2.373 . S
O882 C884 1.258 . S
O883 Eu872 2.392 . S
O883 C884 1.242 . S
C884 O882 1.258 . S
C884 O883 1.242 . S
O885 Eu872 2.418 . S
O885 C889 1.244 . S
O886 Eu873 2.488 . S
O886 C902 1.249 . S
O887 Eu873 2.471 . S
O887 C902 1.244 . S
O888 Eu873 2.349 . S
O888 C889 1.265 . S
C889 O885 1.244 . S
C889 O888 1.265 . S
O890 Eu872 2.373 . S
O890 C903 1.258 . S
O891 Eu873 2.392 . S
O891 C903 1.242 . S
O892 Eu873 2.418 . S
O892 C874 1.244 . S
O893 Eu872 2.488 . S
O893 C881 1.249 . S
O894 Eu872 2.471 . S
O894 C881 1.244 . S
O895 Eu872 2.349 . S
O895 C874 1.265 . S
C896 C897 1.379 . S
C896 C900 1.373 . S
C896 C902 1.505 . S
C897 C896 1.379 . S
C897 C899 1.369 . S
C897 H908 0.930 . S
C898 C900 1.383 . S
C898 C901 1.382 . S
C898 H909 0.930 . S
C899 C897 1.369 . S
C899 C901 1.392 . S
C899 H910 0.930 . S
C900 C896 1.373 . S
C900 C898 1.383 . S
C900 H911 0.931 . S
C901 C898 1.382 . S
C901 C899 1.392 . S
C902 Eu873 2.828 . S
C902 O886 1.249 . S
C902 O887 1.244 . S
C902 C896 1.505 . S
C903 O890 1.258 . S
C903 O891 1.242 . S
H904 C876 0.930 . S
H905 C877 0.930 . S
H906 C878 0.930 . S
H907 C879 0.931 . S
H908 C897 0.930 . S
H909 C898 0.930 . S
H910 C899 0.930 . S
H911 C900 0.931 . S
Eu912 C921 2.828 . S
Eu912 O923 2.392 1_556 S
Eu912 O925 2.418 . S
Eu912 O930 2.373 . S
Eu912 O933 2.488 . S
Eu912 O934 2.471 1_556 S
Eu912 O935 2.349 1_556 S
Eu913 O922 2.373 . S
Eu913 O926 2.488 1_455 S
Eu913 O927 2.471 1_455 S
Eu913 O928 2.349 1_554 S
Eu913 O931 2.392 . S
Eu913 O932 2.418 . S
Eu913 C942 2.828 1_455 S
C914 O932 1.244 . S
C914 O935 1.265 . S
C915 C916 1.343 1_556 S
C915 C919 1.373 . S
C915 C921 1.505 . S
C916 C915 1.343 1_554 S
C916 C918 1.365 1_554 S
C916 H944 0.971 . S
C917 C919 1.383 . S
C917 C920 1.382 . S
C917 H945 0.930 . S
C918 C916 1.365 1_556 S
C918 C920 1.392 . S
C918 H946 0.930 1_556 S
C919 C915 1.373 . S
C919 C917 1.383 . S
C919 H947 0.931 . S
C920 C917 1.382 . S
C920 C918 1.392 . S
C921 Eu912 2.828 . S
C921 C915 1.505 . S
C921 O933 1.249 . S
C921 O934 1.244 1_556 S
O922 Eu913 2.373 . S
O922 C924 1.258 . S
O923 Eu912 2.392 1_554 S
O923 C924 1.242 . S
C924 O922 1.258 . S
C924 O923 1.242 . S
O925 Eu912 2.418 . S
O925 C929 1.244 . S
O926 Eu913 2.488 1_655 S
O926 C942 1.249 . S
O927 Eu913 2.471 1_655 S
O927 C942 1.244 . S
O928 Eu913 2.349 1_556 S
O928 C929 1.265 . S
C929 O925 1.244 . S
C929 O928 1.265 . S
O930 Eu912 2.373 . S
O930 C943 1.258 . S
O931 Eu913 2.392 . S
O931 C943 1.242 1_554 S
O932 Eu913 2.418 . S
O932 C914 1.244 . S
O933 Eu912 2.488 . S
O933 C921 1.249 . S
O934 Eu912 2.471 1_554 S
O934 C921 1.244 1_554 S
O935 Eu912 2.349 1_554 S
O935 C914 1.265 . S
C936 C937 1.379 . S
C936 C940 1.373 . S
C936 C942 1.505 . S
C937 C936 1.379 . S
C937 C939 1.369 . S
C937 H948 0.930 . S
C938 C940 1.383 . S
C938 C941 1.382 . S
C938 H949 0.930 . S
C939 C937 1.369 . S
C939 C941 1.392 . S
C939 H950 0.930 . S
C940 C936 1.373 . S
C940 C938 1.383 . S
C940 H951 0.931 . S
C941 C938 1.382 . S
C941 C939 1.392 . S
C942 Eu913 2.828 1_655 S
C942 O926 1.249 . S
C942 O927 1.244 . S
C942 C936 1.505 . S
C943 O930 1.258 . S
C943 O931 1.242 1_556 S
H944 C916 0.971 . S
H945 C917 0.930 . S
H946 C918 0.930 1_554 S
H947 C919 0.931 . S
H948 C937 0.930 . S
H949 C938 0.930 . S
H950 C939 0.930 . S
H951 C940 0.931 . S
H952 C964 0.930 . S
H953 C966 0.930 . S
H954 C967 0.930 . S
H955 C971 0.959 . S
H956 C971 0.958 . S
H957 C971 0.961 . S
H958 C972 0.960 . S
H959 C972 0.961 . S
H960 C972 0.959 . S
H961 C975 0.929 1_554 S
H962 C976 0.931 . S
H963 C978 0.930 . S
C964 H952 0.930 . S
C964 C965 1.399 . S
C964 C969 1.399 . S
C965 C964 1.399 . S
C965 C966 1.376 . S
C966 H953 0.930 . S
C966 C965 1.376 . S
C966 C967 1.388 . S
C967 H954 0.930 . S
C967 C966 1.388 . S
C967 C968 1.390 . S
C968 C967 1.390 . S
C968 C969 1.394 . S
C968 C974 1.465 . S
C969 C964 1.399 . S
C969 C968 1.394 . S
C969 C970 1.516 . S
C970 C969 1.516 . S
C970 C971 1.502 1_455 S
C970 C972 1.561 . S
C970 C973 1.526 . S
C971 H955 0.959 . S
C971 H956 0.958 . S
C971 H957 0.961 . S
C971 C970 1.502 1_655 S
C972 H958 0.960 . S
C972 H959 0.961 . S
C972 H960 0.959 . S
C972 C970 1.561 . S
C973 C970 1.526 . S
C973 C974 1.396 . S
C973 C978 1.390 . S
C974 C968 1.465 . S
C974 C973 1.396 . S
C974 C975 1.399 . S
C975 H961 0.929 1_556 S
C975 C974 1.399 . S
C975 C976 1.385 1_556 S
C976 H962 0.931 . S
C976 C975 1.385 1_554 S
C976 C977 1.389 1_554 S
C977 C976 1.389 1_556 S
C977 C978 1.387 . S
C978 H963 0.930 . S
C978 C973 1.390 . S
C978 C977 1.387 . S
H979 C991 0.930 . S
H980 C993 0.930 . S
H981 C994 0.930 . S
H982 C998 0.959 . S
H983 C998 0.959 . S
H984 C998 0.961 . S
H985 C999 0.960 . S
H986 C999 0.961 . S
H987 C999 0.959 . S
H988 C1002 0.929 . S
H989 C1003 0.931 . S
H990 C1005 0.930 . S
C991 H979 0.930 . S
C991 C992 1.399 . S
C991 C996 1.399 . S
C992 C991 1.399 . S
C992 C993 1.376 . S
C993 H980 0.930 . S
C993 C992 1.376 . S
C993 C994 1.388 . S
C994 H981 0.930 . S
C994 C993 1.388 . S
C994 C995 1.390 . S
C995 C994 1.390 . S
C995 C996 1.394 . S
C995 C1001 1.465 . S
C996 C991 1.399 . S
C996 C995 1.394 . S
C996 C997 1.516 . S
C997 C996 1.516 . S
C997 C998 1.502 . S
C997 C999 1.561 . S
C997 C1000 1.526 . S
C998 H982 0.959 . S
C998 H983 0.959 . S
C998 H984 0.961 . S
C998 C997 1.502 . S
C999 H985 0.960 . S
C999 H986 0.961 . S
C999 H987 0.959 . S
C999 C997 1.561 . S
C1000 C997 1.526 . S
C1000 C1001 1.396 . S
C1000 C1005 1.390 . S
C1001 C995 1.465 . S
C1001 C1000 1.396 . S
C1001 C1002 1.399 . S
C1002 H988 0.929 . S
C1002 C1001 1.399 . S
C1002 C1003 1.385 . S
C1003 H989 0.931 . S
C1003 C1002 1.385 . S
C1003 C1004 1.389 . S
C1004 C1003 1.389 . S
C1004 C1005 1.387 . S
C1005 H990 0.930 . S
C1005 C1000 1.390 . S
C1005 C1004 1.387 . S
H1006 C1018 0.930 . S
H1007 C1020 0.930 . S
H1008 C1021 0.930 . S
H1009 C1025 0.959 . S
H1010 C1025 0.959 . S
H1011 C1025 0.961 . S
H1012 C1026 0.960 . S
H1013 C1026 0.961 . S
H1014 C1026 0.959 . S
H1015 C1029 0.929 . S
H1016 C1030 0.931 . S
H1017 C1032 0.930 . S
C1018 H1006 0.930 . S
C1018 C1019 1.399 . S
C1018 C1023 1.399 . S
C1019 C1018 1.399 . S
C1019 C1020 1.376 . S
C1020 H1007 0.930 . S
C1020 C1019 1.376 . S
C1020 C1021 1.388 . S
C1021 H1008 0.930 . S
C1021 C1020 1.388 . S
C1021 C1022 1.390 . S
C1022 C1021 1.390 . S
C1022 C1023 1.394 . S
C1022 C1028 1.465 . S
C1023 C1018 1.399 . S
C1023 C1022 1.394 . S
C1023 C1024 1.516 . S
C1024 C1023 1.516 . S
C1024 C1025 1.502 . S
C1024 C1026 1.561 . S
C1024 C1027 1.526 . S
C1025 H1009 0.959 . S
C1025 H1010 0.959 . S
C1025 H1011 0.961 . S
C1025 C1024 1.502 . S
C1026 H1012 0.960 . S
C1026 H1013 0.961 . S
C1026 H1014 0.959 . S
C1026 C1024 1.561 . S
C1027 C1024 1.526 . S
C1027 C1028 1.396 . S
C1027 C1032 1.390 . S
C1028 C1022 1.465 . S
C1028 C1027 1.396 . S
C1028 C1029 1.399 . S
C1029 H1015 0.929 . S
C1029 C1028 1.399 . S
C1029 C1030 1.385 . S
C1030 H1016 0.931 . S
C1030 C1029 1.385 . S
C1030 C1031 1.389 . S
C1031 C1030 1.389 . S
C1031 C1032 1.387 . S
C1032 H1017 0.930 . S
C1032 C1027 1.390 . S
C1032 C1031 1.387 . S
H1033 C1045 0.930 . S
H1034 C1047 0.930 . S
H1035 C1048 0.930 . S
H1036 C1052 0.959 . S
H1037 C1052 0.959 . S
H1038 C1052 0.961 . S
H1039 C1053 0.960 . S
H1040 C1053 0.961 . S
H1041 C1053 0.959 . S
H1042 C1056 0.929 . S
H1043 C1057 0.931 . S
H1044 C1059 0.930 . S
C1045 H1033 0.930 . S
C1045 C1046 1.399 . S
C1045 C1050 1.399 . S
C1046 C1045 1.399 . S
C1046 C1047 1.376 . S
C1047 H1034 0.930 . S
C1047 C1046 1.376 . S
C1047 C1048 1.388 . S
C1048 H1035 0.930 . S
C1048 C1047 1.388 . S
C1048 C1049 1.390 . S
C1049 C1048 1.390 . S
C1049 C1050 1.394 . S
C1049 C1055 1.465 . S
C1050 C1045 1.399 . S
C1050 C1049 1.394 . S
C1050 C1051 1.516 . S
C1051 C1050 1.516 . S
C1051 C1052 1.502 . S
C1051 C1053 1.561 . S
C1051 C1054 1.526 . S
C1052 H1036 0.959 . S
C1052 H1037 0.959 . S
C1052 H1038 0.961 . S
C1052 C1051 1.502 . S
C1053 H1039 0.960 . S
C1053 H1040 0.961 . S
C1053 H1041 0.959 . S
C1053 C1051 1.561 . S
C1054 C1051 1.526 . S
C1054 C1055 1.396 . S
C1054 C1059 1.390 . S
C1055 C1049 1.465 . S
C1055 C1054 1.396 . S
C1055 C1056 1.399 . S
C1056 H1042 0.929 . S
C1056 C1055 1.399 . S
C1056 C1057 1.385 . S
C1057 H1043 0.931 . S
C1057 C1056 1.385 . S
C1057 C1058 1.389 . S
C1058 C1057 1.389 . S
C1058 C1059 1.387 . S
C1059 H1044 0.930 . S
C1059 C1054 1.390 . S
C1059 C1058 1.387 . S
H1060 C1072 0.930 . S
H1061 C1074 0.930 . S
H1062 C1075 0.930 1_655 S
H1063 C1079 0.959 . S
H1064 C1079 0.959 . S
H1065 C1079 0.961 . S
H1066 C1080 0.960 . S
H1067 C1080 0.961 . S
H1068 C1080 0.959 . S
H1069 C1083 0.929 . S
H1070 C1084 0.931 . S
H1071 C1086 0.930 . S
C1072 H1060 0.930 . S
C1072 C1073 1.399 . S
C1072 C1077 1.399 . S
C1073 C1072 1.399 . S
C1073 C1074 1.376 1_455 S
C1074 H1061 0.930 . S
C1074 C1073 1.376 1_655 S
C1074 C1075 1.388 1_655 S
C1075 H1062 0.930 1_455 S
C1075 C1074 1.388 1_455 S
C1075 C1076 1.390 . S
C1076 C1075 1.390 . S
C1076 C1077 1.394 . S
C1076 C1082 1.465 . S
C1077 C1072 1.399 . S
C1077 C1076 1.394 . S
C1077 C1078 1.516 . S
C1078 C1077 1.516 . S
C1078 C1079 1.502 . S
C1078 C1080 1.561 . S
C1078 C1081 1.526 . S
C1079 H1063 0.959 . S
C1079 H1064 0.959 . S
C1079 H1065 0.961 . S
C1079 C1078 1.502 . S
C1080 H1066 0.960 . S
C1080 H1067 0.961 . S
C1080 H1068 0.959 . S
C1080 C1078 1.561 . S
C1081 C1078 1.526 . S
C1081 C1082 1.396 . S
C1081 C1086 1.390 . S
C1082 C1076 1.465 . S
C1082 C1081 1.396 . S
C1082 C1083 1.399 . S
C1083 H1069 0.929 . S
C1083 C1082 1.399 . S
C1083 C1084 1.385 . S
C1084 H1070 0.931 . S
C1084 C1083 1.385 . S
C1084 C1085 1.389 . S
C1085 C1084 1.389 . S
C1085 C1086 1.387 . S
C1086 H1071 0.930 . S
C1086 C1081 1.390 . S
C1086 C1085 1.387 . S
H1087 C1099 0.930 . S
H1088 C1101 0.930 . S
H1089 C1102 0.930 . S
H1090 C1106 0.959 . S
H1091 C1106 0.959 . S
H1092 C1106 0.961 . S
H1093 C1107 0.960 . S
H1094 C1107 0.961 . S
H1095 C1107 0.959 . S
H1096 C1110 0.929 . S
H1097 C1111 0.931 . S
H1098 C1113 0.930 . S
C1099 H1087 0.930 . S
C1099 C1100 1.399 . S
C1099 C1104 1.399 . S
C1100 C1099 1.399 . S
C1100 C1101 1.376 . S
C1101 H1088 0.930 . S
C1101 C1100 1.376 . S
C1101 C1102 1.388 . S
C1102 H1089 0.930 . S
C1102 C1101 1.388 . S
C1102 C1103 1.390 . S
C1103 C1102 1.390 . S
C1103 C1104 1.394 . S
C1103 C1109 1.465 . S
C1104 C1099 1.399 . S
C1104 C1103 1.394 . S
C1104 C1105 1.516 . S
C1105 C1104 1.516 . S
C1105 C1106 1.502 . S
C1105 C1107 1.561 . S
C1105 C1108 1.526 . S
C1106 H1090 0.959 . S
C1106 H1091 0.959 . S
C1106 H1092 0.961 . S
C1106 C1105 1.502 . S
C1107 H1093 0.960 . S
C1107 H1094 0.961 . S
C1107 H1095 0.959 . S
C1107 C1105 1.561 . S
C1108 C1105 1.526 . S
C1108 C1109 1.396 . S
C1108 C1113 1.390 . S
C1109 C1103 1.465 . S
C1109 C1108 1.396 . S
C1109 C1110 1.399 . S
C1110 H1096 0.929 . S
C1110 C1109 1.399 . S
C1110 C1111 1.385 . S
C1111 H1097 0.931 . S
C1111 C1110 1.385 . S
C1111 C1112 1.389 . S
C1112 C1111 1.389 . S
C1112 C1113 1.387 . S
C1113 H1098 0.930 . S
C1113 C1108 1.390 . S
C1113 C1112 1.387 . S
H1114 C1126 0.930 . S
H1115 C1128 0.930 . S
H1116 C1129 0.930 . S
H1117 C1133 0.959 . S
H1118 C1133 0.959 . S
H1119 C1133 0.961 . S
H1120 C1134 0.960 . S
H1121 C1134 0.961 . S
H1122 C1134 0.959 . S
H1123 C1137 0.929 . S
H1124 C1138 0.931 . S
H1125 C1140 0.930 . S
C1126 H1114 0.930 . S
C1126 C1127 1.399 . S
C1126 C1131 1.399 . S
C1127 C1126 1.399 . S
C1127 C1128 1.376 . S
C1128 H1115 0.930 . S
C1128 C1127 1.376 . S
C1128 C1129 1.388 . S
C1129 H1116 0.930 . S
C1129 C1128 1.388 . S
C1129 C1130 1.390 . S
C1130 C1129 1.390 . S
C1130 C1131 1.394 . S
C1130 C1136 1.465 . S
C1131 C1126 1.399 . S
C1131 C1130 1.394 . S
C1131 C1132 1.516 . S
C1132 C1131 1.516 . S
C1132 C1133 1.502 . S
C1132 C1134 1.561 . S
C1132 C1135 1.526 . S
C1133 H1117 0.959 . S
C1133 H1118 0.959 . S
C1133 H1119 0.961 . S
C1133 C1132 1.502 . S
C1134 H1120 0.960 . S
C1134 H1121 0.961 . S
C1134 H1122 0.959 . S
C1134 C1132 1.561 . S
C1135 C1132 1.526 . S
C1135 C1136 1.396 . S
C1135 C1140 1.390 . S
C1136 C1130 1.465 . S
C1136 C1135 1.396 . S
C1136 C1137 1.399 . S
C1137 H1123 0.929 . S
C1137 C1136 1.399 . S
C1137 C1138 1.385 . S
C1138 H1124 0.931 . S
C1138 C1137 1.385 . S
C1138 C1139 1.389 . S
C1139 C1138 1.389 . S
C1139 C1140 1.387 . S
C1140 H1125 0.930 . S
C1140 C1135 1.390 . S
C1140 C1139 1.387 . S
H1141 C1153 0.930 . S
H1142 C1155 0.930 . S
H1143 C1156 0.930 . S
H1144 C1160 0.959 . S
H1145 C1160 0.959 . S
H1146 C1160 0.961 . S
H1147 C1161 0.960 . S
H1148 C1161 0.961 . S
H1149 C1161 0.959 . S
H1150 C1164 0.929 . S
H1151 C1165 0.931 . S
H1152 C1167 0.930 . S
C1153 H1141 0.930 . S
C1153 C1154 1.399 . S
C1153 C1158 1.399 . S
C1154 C1153 1.399 . S
C1154 C1155 1.376 . S
C1155 H1142 0.930 . S
C1155 C1154 1.376 . S
C1155 C1156 1.388 . S
C1156 H1143 0.930 . S
C1156 C1155 1.388 . S
C1156 C1157 1.390 . S
C1157 C1156 1.390 . S
C1157 C1158 1.394 . S
C1157 C1163 1.465 . S
C1158 C1153 1.399 . S
C1158 C1157 1.394 . S
C1158 C1159 1.516 . S
C1159 C1158 1.516 . S
C1159 C1160 1.502 . S
C1159 C1161 1.561 . S
C1159 C1162 1.526 . S
C1160 H1144 0.959 . S
C1160 H1145 0.959 . S
C1160 H1146 0.961 . S
C1160 C1159 1.502 . S
C1161 H1147 0.960 . S
C1161 H1148 0.961 . S
C1161 H1149 0.959 . S
C1161 C1159 1.561 . S
C1162 C1159 1.526 . S
C1162 C1163 1.396 . S
C1162 C1167 1.390 . S
C1163 C1157 1.465 . S
C1163 C1162 1.396 . S
C1163 C1164 1.399 . S
C1164 H1150 0.929 . S
C1164 C1163 1.399 . S
C1164 C1165 1.385 . S
C1165 H1151 0.931 . S
C1165 C1164 1.385 . S
C1165 C1166 1.389 . S
C1166 C1165 1.389 . S
C1166 C1167 1.387 . S
C1167 H1152 0.930 . S
C1167 C1162 1.390 . S
C1167 C1166 1.387 . S
H1168 C1180 0.930 . S
H1169 C1182 0.930 . S
H1170 C1183 0.930 . S
H1171 C1187 0.959 . S
H1172 C1187 0.959 . S
H1173 C1187 0.961 . S
H1174 C1188 0.960 . S
H1175 C1188 0.961 . S
H1176 C1188 0.962 . S
H1177 C1191 0.929 . S
H1178 C1192 0.931 . S
H1179 C1194 0.930 . S
C1180 H1168 0.930 . S
C1180 C1181 1.399 . S
C1180 C1185 1.399 . S
C1181 C1180 1.399 . S
C1181 C1182 1.376 . S
C1182 H1169 0.930 . S
C1182 C1181 1.376 . S
C1182 C1183 1.388 . S
C1183 H1170 0.930 . S
C1183 C1182 1.388 . S
C1183 C1184 1.390 . S
C1184 C1183 1.390 . S
C1184 C1185 1.394 . S
C1184 C1190 1.465 . S
C1185 C1180 1.399 . S
C1185 C1184 1.394 . S
C1185 C1186 1.516 1_655 S
C1186 C1185 1.516 1_455 S
C1186 C1187 1.502 . S
C1186 C1188 1.561 1_445 S
C1186 C1189 1.526 . S
C1187 H1171 0.959 . S
C1187 H1172 0.959 . S
C1187 H1173 0.961 . S
C1187 C1186 1.502 . S
C1188 H1174 0.960 . S
C1188 H1175 0.961 . S
C1188 H1176 0.962 . S
C1188 C1186 1.561 1_665 S
C1189 C1186 1.526 . S
C1189 C1190 1.396 1_455 S
C1189 C1194 1.390 . S
C1190 C1184 1.465 . S
C1190 C1189 1.396 1_655 S
C1190 C1191 1.399 . S
C1191 H1177 0.929 . S
C1191 C1190 1.399 . S
C1191 C1192 1.385 1_655 S
C1192 H1178 0.931 . S
C1192 C1191 1.385 1_455 S
C1192 C1193 1.389 . S
C1193 C1192 1.389 . S
C1193 C1194 1.387 . S
C1194 H1179 0.930 . S
C1194 C1189 1.390 . S
C1194 C1193 1.387 . S
H1195 C1207 0.930 . S
H1196 C1209 0.930 . S
H1197 C1210 0.930 . S
H1198 C1214 0.959 . S
H1199 C1214 0.959 . S
H1200 C1214 0.961 . S
H1201 C1215 0.960 . S
H1202 C1215 0.961 . S
H1203 C1215 0.959 . S
H1204 C1218 0.929 . S
H1205 C1219 0.931 . S
H1206 C1221 0.930 . S
C1207 H1195 0.930 . S
C1207 C1208 1.399 . S
C1207 C1212 1.399 . S
C1208 C1207 1.399 . S
C1208 C1209 1.376 . S
C1209 H1196 0.930 . S
C1209 C1208 1.376 . S
C1209 C1210 1.388 . S
C1210 H1197 0.930 . S
C1210 C1209 1.388 . S
C1210 C1211 1.390 . S
C1211 C1210 1.390 . S
C1211 C1212 1.394 . S
C1211 C1217 1.465 . S
C1212 C1207 1.399 . S
C1212 C1211 1.394 . S
C1212 C1213 1.516 . S
C1213 C1212 1.516 . S
C1213 C1214 1.502 . S
C1213 C1215 1.561 . S
C1213 C1216 1.526 . S
C1214 H1198 0.959 . S
C1214 H1199 0.959 . S
C1214 H1200 0.961 . S
C1214 C1213 1.502 . S
C1215 H1201 0.960 . S
C1215 H1202 0.961 . S
C1215 H1203 0.959 . S
C1215 C1213 1.561 . S
C1216 C1213 1.526 . S
C1216 C1217 1.396 . S
C1216 C1221 1.390 . S
C1217 C1211 1.465 . S
C1217 C1216 1.396 . S
C1217 C1218 1.399 . S
C1218 H1204 0.929 . S
C1218 C1217 1.399 . S
C1218 C1219 1.385 . S
C1219 H1205 0.931 . S
C1219 C1218 1.385 . S
C1219 C1220 1.389 . S
C1220 C1219 1.389 . S
C1220 C1221 1.387 . S
C1221 H1206 0.930 . S
C1221 C1216 1.390 . S
C1221 C1220 1.387 . S
H1222 C1234 0.930 . S
H1223 C1236 0.930 . S
H1224 C1237 0.930 . S
H1225 C1241 0.959 . S
H1226 C1241 0.959 . S
H1227 C1241 0.961 . S
H1228 C1242 0.960 . S
H1229 C1242 0.961 . S
H1230 C1242 0.959 . S
H1231 C1245 0.929 . S
H1232 C1246 0.931 . S
H1233 C1248 0.930 . S
C1234 H1222 0.930 . S
C1234 C1235 1.399 . S
C1234 C1239 1.399 . S
C1235 C1234 1.399 . S
C1235 C1236 1.376 . S
C1236 H1223 0.930 . S
C1236 C1235 1.376 . S
C1236 C1237 1.388 . S
C1237 H1224 0.930 . S
C1237 C1236 1.388 . S
C1237 C1238 1.390 . S
C1238 C1237 1.390 . S
C1238 C1239 1.394 . S
C1238 C1244 1.465 . S
C1239 C1234 1.399 . S
C1239 C1238 1.394 . S
C1239 C1240 1.516 . S
C1240 C1239 1.516 . S
C1240 C1241 1.502 . S
C1240 C1242 1.561 . S
C1240 C1243 1.526 . S
C1241 H1225 0.959 . S
C1241 H1226 0.959 . S
C1241 H1227 0.961 . S
C1241 C1240 1.502 . S
C1242 H1228 0.960 . S
C1242 H1229 0.961 . S
C1242 H1230 0.959 . S
C1242 C1240 1.561 . S
C1243 C1240 1.526 . S
C1243 C1244 1.396 . S
C1243 C1248 1.390 . S
C1244 C1238 1.465 . S
C1244 C1243 1.396 . S
C1244 C1245 1.399 . S
C1245 H1231 0.929 . S
C1245 C1244 1.399 . S
C1245 C1246 1.385 . S
C1246 H1232 0.931 . S
C1246 C1245 1.385 . S
C1246 C1247 1.389 . S
C1247 C1246 1.389 . S
C1247 C1248 1.387 . S
C1248 H1233 0.930 . S
C1248 C1243 1.390 . S
C1248 C1247 1.387 . S
H1249 C1261 0.930 . S
H1250 C1263 0.930 . S
H1251 C1264 0.930 . S
H1252 C1268 0.959 . S
H1253 C1268 0.959 . S
H1254 C1268 0.961 . S
H1255 C1269 0.960 . S
H1256 C1269 0.961 . S
H1257 C1269 0.959 . S
H1258 C1272 0.929 . S
H1259 C1273 0.931 . S
H1260 C1275 0.930 . S
C1261 H1249 0.930 . S
C1261 C1262 1.399 . S
C1261 C1266 1.399 . S
C1262 C1261 1.399 . S
C1262 C1263 1.376 . S
C1263 H1250 0.930 . S
C1263 C1262 1.376 . S
C1263 C1264 1.388 . S
C1264 H1251 0.930 . S
C1264 C1263 1.388 . S
C1264 C1265 1.390 . S
C1265 C1264 1.390 . S
C1265 C1266 1.394 . S
C1265 C1271 1.465 . S
C1266 C1261 1.399 . S
C1266 C1265 1.394 . S
C1266 C1267 1.516 . S
C1267 C1266 1.516 . S
C1267 C1268 1.502 . S
C1267 C1269 1.561 . S
C1267 C1270 1.526 . S
C1268 H1252 0.959 . S
C1268 H1253 0.959 . S
C1268 H1254 0.961 . S
C1268 C1267 1.502 . S
C1269 H1255 0.960 . S
C1269 H1256 0.961 . S
C1269 H1257 0.959 . S
C1269 C1267 1.561 . S
C1270 C1267 1.526 . S
C1270 C1271 1.396 . S
C1270 C1275 1.390 . S
C1271 C1265 1.465 . S
C1271 C1270 1.396 . S
C1271 C1272 1.399 . S
C1272 H1258 0.929 . S
C1272 C1271 1.399 . S
C1272 C1273 1.385 . S
C1273 H1259 0.931 . S
C1273 C1272 1.385 . S
C1273 C1274 1.389 . S
C1274 C1273 1.389 . S
C1274 C1275 1.387 . S
C1275 H1260 0.930 . S
C1275 C1270 1.390 . S
C1275 C1274 1.387 . S
H1276 C1288 0.930 . S
H1277 C1290 0.930 . S
H1278 C1291 0.930 . S
H1279 C1295 0.959 . S
H1280 C1295 0.959 . S
H1281 C1295 0.961 . S
H1282 C1296 0.961 1_565 S
H1283 C1296 0.961 1_565 S
H1284 C1296 0.938 1_455 S
H1285 C1299 0.929 . S
H1286 C1300 0.931 . S
H1287 C1302 0.930 1_655 S
C1288 H1276 0.930 . S
C1288 C1289 1.399 . S
C1288 C1293 1.399 . S
C1289 C1288 1.399 . S
C1289 C1290 1.376 . S
C1290 H1277 0.930 . S
C1290 C1289 1.376 . S
C1290 C1291 1.388 1_655 S
C1291 H1278 0.930 . S
C1291 C1290 1.388 1_455 S
C1291 C1292 1.395 . S
C1292 C1291 1.395 . S
C1292 C1293 1.373 1_455 S
C1292 C1298 1.478 . S
C1293 C1288 1.399 . S
C1293 C1292 1.373 1_655 S
C1293 C1294 1.516 . S
C1294 C1293 1.516 . S
C1294 C1295 1.502 . S
C1294 C1296 1.561 . S
C1294 C1297 1.526 . S
C1295 H1279 0.959 . S
C1295 H1280 0.959 . S
C1295 H1281 0.961 . S
C1295 C1294 1.502 . S
C1296 H1282 0.961 1_545 S
C1296 H1283 0.961 1_545 S
C1296 H1284 0.938 1_655 S
C1296 C1294 1.561 . S
C1297 C1294 1.526 . S
C1297 C1298 1.396 1_655 S
C1297 C1302 1.390 1_655 S
C1298 C1292 1.478 . S
C1298 C1297 1.396 1_455 S
C1298 C1299 1.399 . S
C1299 H1285 0.929 . S
C1299 C1298 1.399 . S
C1299 C1300 1.385 . S
C1300 H1286 0.931 . S
C1300 C1299 1.385 . S
C1300 C1301 1.389 . S
C1301 C1300 1.389 . S
C1301 C1302 1.387 . S
C1302 H1287 0.930 1_455 S
C1302 C1297 1.390 1_455 S
C1302 C1301 1.387 . S
H1303 C1315 0.930 . S
H1304 C1317 0.930 . S
H1305 C1318 0.930 . S
H1306 C1322 0.959 . S
H1307 C1322 0.959 . S
H1308 C1322 0.961 . S
H1309 C1323 0.960 . S
H1310 C1323 0.961 . S
H1311 C1323 0.959 . S
H1312 C1326 0.929 . S
H1313 C1327 0.931 . S
H1314 C1329 0.930 . S
C1315 H1303 0.930 . S
C1315 C1316 1.399 . S
C1315 C1320 1.399 . S
C1316 C1315 1.399 . S
C1316 C1317 1.376 . S
C1317 H1304 0.930 . S
C1317 C1316 1.376 . S
C1317 C1318 1.388 . S
C1318 H1305 0.930 . S
C1318 C1317 1.388 . S
C1318 C1319 1.390 . S
C1319 C1318 1.390 . S
C1319 C1320 1.394 . S
C1319 C1325 1.465 . S
C1320 C1315 1.399 . S
C1320 C1319 1.394 . S
C1320 C1321 1.516 . S
C1321 C1320 1.516 . S
C1321 C1322 1.502 . S
C1321 C1323 1.561 . S
C1321 C1324 1.526 . S
C1322 H1306 0.959 . S
C1322 H1307 0.959 . S
C1322 H1308 0.961 . S
C1322 C1321 1.502 . S
C1323 H1309 0.960 . S
C1323 H1310 0.961 . S
C1323 H1311 0.959 . S
C1323 C1321 1.561 . S
C1324 C1321 1.526 . S
C1324 C1325 1.396 . S
C1324 C1329 1.390 . S
C1325 C1319 1.465 . S
C1325 C1324 1.396 . S
C1325 C1326 1.399 . S
C1326 H1312 0.929 . S
C1326 C1325 1.399 . S
C1326 C1327 1.385 . S
C1327 H1313 0.931 . S
C1327 C1326 1.385 . S
C1327 C1328 1.389 . S
C1328 C1327 1.389 . S
C1328 C1329 1.387 . S
C1329 H1314 0.930 . S
C1329 C1324 1.390 . S
C1329 C1328 1.387 . S
H1330 C1342 0.930 . S
H1331 C1344 0.930 . S
H1332 C1345 0.930 . S
H1333 C1349 0.959 . S
H1334 C1349 0.959 . S
H1335 C1349 0.961 . S
H1336 C1350 0.960 . S
H1337 C1350 0.961 . S
H1338 C1350 0.959 . S
H1339 C1353 0.929 . S
H1340 C1354 0.931 . S
H1341 C1356 0.930 . S
C1342 H1330 0.930 . S
C1342 C1343 1.399 . S
C1342 C1347 1.399 . S
C1343 C1342 1.399 . S
C1343 C1344 1.376 . S
C1344 H1331 0.930 . S
C1344 C1343 1.376 . S
C1344 C1345 1.388 . S
C1345 H1332 0.930 . S
C1345 C1344 1.388 . S
C1345 C1346 1.390 . S
C1346 C1345 1.390 . S
C1346 C1347 1.394 . S
C1346 C1352 1.465 . S
C1347 C1342 1.399 . S
C1347 C1346 1.394 . S
C1347 C1348 1.516 . S
C1348 C1347 1.516 . S
C1348 C1349 1.502 . S
C1348 C1350 1.561 . S
C1348 C1351 1.526 . S
C1349 H1333 0.959 . S
C1349 H1334 0.959 . S
C1349 H1335 0.961 . S
C1349 C1348 1.502 . S
C1350 H1336 0.960 . S
C1350 H1337 0.961 . S
C1350 H1338 0.959 . S
C1350 C1348 1.561 . S
C1351 C1348 1.526 . S
C1351 C1352 1.396 . S
C1351 C1356 1.390 . S
C1352 C1346 1.465 . S
C1352 C1351 1.396 . S
C1352 C1353 1.399 . S
C1353 H1339 0.929 . S
C1353 C1352 1.399 . S
C1353 C1354 1.385 . S
C1354 H1340 0.931 . S
C1354 C1353 1.385 . S
C1354 C1355 1.389 . S
C1355 C1354 1.389 . S
C1355 C1356 1.387 . S
C1356 H1341 0.930 . S
C1356 C1351 1.390 . S
C1356 C1355 1.387 . S
H1357 C1369 0.930 . S
H1358 C1371 0.930 . S
H1359 C1372 0.930 . S
H1360 C1376 0.959 . S
H1361 C1376 0.959 . S
H1362 C1376 0.961 . S
H1363 C1377 0.960 . S
H1364 C1377 0.961 . S
H1365 C1377 0.959 . S
H1366 C1380 0.929 . S
H1367 C1381 0.931 . S
H1368 C1383 0.930 . S
C1369 H1357 0.930 . S
C1369 C1370 1.399 . S
C1369 C1374 1.399 . S
C1370 C1369 1.399 . S
C1370 C1371 1.376 . S
C1371 H1358 0.930 . S
C1371 C1370 1.376 . S
C1371 C1372 1.388 . S
C1372 H1359 0.930 . S
C1372 C1371 1.388 . S
C1372 C1373 1.390 . S
C1373 C1372 1.390 . S
C1373 C1374 1.394 . S
C1373 C1379 1.465 . S
C1374 C1369 1.399 . S
C1374 C1373 1.394 . S
C1374 C1375 1.516 . S
C1375 C1374 1.516 . S
C1375 C1376 1.502 . S
C1375 C1377 1.561 . S
C1375 C1378 1.526 . S
C1376 H1360 0.959 . S
C1376 H1361 0.959 . S
C1376 H1362 0.961 . S
C1376 C1375 1.502 . S
C1377 H1363 0.960 . S
C1377 H1364 0.961 . S
C1377 H1365 0.959 . S
C1377 C1375 1.561 . S
C1378 C1375 1.526 . S
C1378 C1379 1.396 . S
C1378 C1383 1.390 . S
C1379 C1373 1.465 . S
C1379 C1378 1.396 . S
C1379 C1380 1.399 . S
C1380 H1366 0.929 . S
C1380 C1379 1.399 . S
C1380 C1381 1.385 . S
C1381 H1367 0.931 . S
C1381 C1380 1.385 . S
C1381 C1382 1.389 . S
C1382 C1381 1.389 . S
C1382 C1383 1.387 . S
C1383 H1368 0.930 . S
C1383 C1378 1.390 . S
C1383 C1382 1.387 . S
H1384 C1396 0.930 . S
H1385 C1398 0.930 . S
H1386 C1399 0.930 . S
H1387 C1403 0.959 1_556 S
H1388 C1403 0.959 . S
H1389 C1403 0.961 . S
H1390 C1404 0.960 . S
H1391 C1404 0.961 . S
H1392 C1404 0.959 . S
H1393 C1407 0.929 . S
H1394 C1408 0.931 . S
H1395 C1410 0.930 . S
C1396 H1384 0.930 . S
C1396 C1397 1.399 . S
C1396 C1401 1.399 . S
C1397 C1396 1.399 . S
C1397 C1398 1.376 1_565 S
C1398 H1385 0.930 . S
C1398 C1397 1.376 1_545 S
C1398 C1399 1.388 . S
C1399 H1386 0.930 . S
C1399 C1398 1.388 . S
C1399 C1400 1.390 . S
C1400 C1399 1.390 . S
C1400 C1401 1.394 1_545 S
C1400 C1406 1.465 . S
C1401 C1396 1.399 . S
C1401 C1400 1.394 1_565 S
C1401 C1402 1.516 . S
C1402 C1401 1.516 . S
C1402 C1403 1.502 . S
C1402 C1404 1.561 . S
C1402 C1405 1.526 . S
C1403 H1387 0.959 1_554 S
C1403 H1388 0.959 . S
C1403 H1389 0.961 . S
C1403 C1402 1.502 . S
C1404 H1390 0.960 . S
C1404 H1391 0.961 . S
C1404 H1392 0.959 . S
C1404 C1402 1.561 . S
C1405 C1402 1.526 . S
C1405 C1406 1.396 1_565 S
C1405 C1410 1.390 . S
C1406 C1400 1.465 . S
C1406 C1405 1.396 1_545 S
C1406 C1407 1.399 . S
C1407 H1393 0.929 . S
C1407 C1406 1.399 . S
C1407 C1408 1.385 . S
C1408 H1394 0.931 . S
C1408 C1407 1.385 . S
C1408 C1409 1.389 . S
C1409 C1408 1.389 . S
C1409 C1410 1.387 1_545 S
C1410 H1395 0.930 . S
C1410 C1405 1.390 . S
C1410 C1409 1.387 1_565 S
H1411 C1423 0.930 . S
H1412 C1425 0.930 . S
H1413 C1426 0.930 . S
H1414 C1430 0.959 . S
H1415 C1430 0.959 . S
H1416 C1430 0.961 . S
H1417 C1431 0.960 . S
H1418 C1431 0.961 . S
H1419 C1431 0.959 . S
H1420 C1434 0.929 . S
H1421 C1435 0.931 . S
H1422 C1437 0.930 . S
C1423 H1411 0.930 . S
C1423 C1424 1.399 . S
C1423 C1428 1.399 . S
C1424 C1423 1.399 . S
C1424 C1425 1.376 1_554 S
C1425 H1412 0.930 . S
C1425 C1424 1.376 1_556 S
C1425 C1426 1.388 . S
C1426 H1413 0.930 . S
C1426 C1425 1.388 . S
C1426 C1427 1.390 . S
C1427 C1426 1.390 . S
C1427 C1428 1.394 1_556 S
C1427 C1433 1.465 . S
C1428 C1423 1.399 . S
C1428 C1427 1.394 1_554 S
C1428 C1429 1.516 . S
C1429 C1428 1.516 . S
C1429 C1430 1.502 . S
C1429 C1431 1.561 . S
C1429 C1432 1.526 . S
C1430 H1414 0.959 . S
C1430 H1415 0.959 . S
C1430 H1416 0.961 . S
C1430 C1429 1.502 . S
C1431 H1417 0.960 . S
C1431 H1418 0.961 . S
C1431 H1419 0.959 . S
C1431 C1429 1.561 . S
C1432 C1429 1.526 . S
C1432 C1433 1.396 1_554 S
C1432 C1437 1.390 . S
C1433 C1427 1.465 . S
C1433 C1432 1.396 1_556 S
C1433 C1434 1.399 . S
C1434 H1420 0.929 . S
C1434 C1433 1.399 . S
C1434 C1435 1.385 . S
C1435 H1421 0.931 . S
C1435 C1434 1.385 . S
C1435 C1436 1.389 1_556 S
C1436 C1435 1.389 1_554 S
C1436 C1437 1.387 . S
C1437 H1422 0.930 . S
C1437 C1432 1.390 . S
C1437 C1436 1.387 . S
H1438 C1450 0.930 . S
H1439 C1452 0.930 . S
H1440 C1453 0.930 . S
H1441 C1457 0.959 . S
H1442 C1457 0.959 . S
H1443 C1457 0.961 . S
H1444 C1458 0.960 . S
H1445 C1458 0.961 . S
H1446 C1458 0.959 . S
H1447 C1461 0.929 . S
H1448 C1462 0.931 . S
H1449 C1464 0.930 . S
C1450 H1438 0.930 . S
C1450 C1451 1.399 . S
C1450 C1455 1.399 . S
C1451 C1450 1.399 . S
C1451 C1452 1.376 . S
C1452 H1439 0.930 . S
C1452 C1451 1.376 . S
C1452 C1453 1.388 . S
C1453 H1440 0.930 . S
C1453 C1452 1.388 . S
C1453 C1454 1.390 . S
C1454 C1453 1.390 . S
C1454 C1455 1.394 . S
C1454 C1460 1.465 . S
C1455 C1450 1.399 . S
C1455 C1454 1.394 . S
C1455 C1456 1.516 . S
C1456 C1455 1.516 . S
C1456 C1457 1.502 . S
C1456 C1458 1.561 . S
C1456 C1459 1.526 . S
C1457 H1441 0.959 . S
C1457 H1442 0.959 . S
C1457 H1443 0.961 . S
C1457 C1456 1.502 . S
C1458 H1444 0.960 . S
C1458 H1445 0.961 . S
C1458 H1446 0.959 . S
C1458 C1456 1.561 . S
C1459 C1456 1.526 . S
C1459 C1460 1.396 . S
C1459 C1464 1.390 . S
C1460 C1454 1.465 . S
C1460 C1459 1.396 . S
C1460 C1461 1.399 . S
C1461 H1447 0.929 . S
C1461 C1460 1.399 . S
C1461 C1462 1.385 . S
C1462 H1448 0.931 . S
C1462 C1461 1.385 . S
C1462 C1463 1.389 . S
C1463 C1462 1.389 . S
C1463 C1464 1.387 . S
C1464 H1449 0.930 . S
C1464 C1459 1.390 . S
C1464 C1463 1.387 . S
H1465 C1477 0.930 . S
H1466 C1479 0.930 . S
H1467 C1480 0.930 . S
H1468 C1484 0.959 . S
H1469 C1484 0.959 . S
H1470 C1484 0.961 . S
H1471 C1485 0.960 . S
H1472 C1485 0.961 . S
H1473 C1485 0.959 . S
H1474 C1488 0.929 . S
H1475 C1489 0.931 . S
H1476 C1491 0.930 . S
C1477 H1465 0.930 . S
C1477 C1478 1.399 . S
C1477 C1482 1.399 . S
C1478 C1477 1.399 . S
C1478 C1479 1.376 . S
C1479 H1466 0.930 . S
C1479 C1478 1.376 . S
C1479 C1480 1.388 . S
C1480 H1467 0.930 . S
C1480 C1479 1.388 . S
C1480 C1481 1.390 . S
C1481 C1480 1.390 . S
C1481 C1482 1.394 . S
C1481 C1487 1.465 . S
C1482 C1477 1.399 . S
C1482 C1481 1.394 . S
C1482 C1483 1.516 . S
C1483 C1482 1.516 . S
C1483 C1484 1.502 . S
C1483 C1485 1.561 . S
C1483 C1486 1.526 . S
C1484 H1468 0.959 . S
C1484 H1469 0.959 . S
C1484 H1470 0.961 . S
C1484 C1483 1.502 . S
C1485 H1471 0.960 . S
C1485 H1472 0.961 . S
C1485 H1473 0.959 . S
C1485 C1483 1.561 . S
C1486 C1483 1.526 . S
C1486 C1487 1.396 . S
C1486 C1491 1.390 . S
C1487 C1481 1.465 . S
C1487 C1486 1.396 . S
C1487 C1488 1.399 . S
C1488 H1474 0.929 . S
C1488 C1487 1.399 . S
C1488 C1489 1.385 . S
C1489 H1475 0.931 . S
C1489 C1488 1.385 . S
C1489 C1490 1.389 . S
C1490 C1489 1.389 . S
C1490 C1491 1.387 . S
C1491 H1476 0.930 . S
C1491 C1486 1.390 . S
C1491 C1490 1.387 . S
H1492 C1504 0.930 . S
H1493 C1506 0.930 . S
H1494 C1507 0.930 . S
H1495 C1511 0.959 . S
H1496 C1511 0.959 . S
H1497 C1511 0.961 . S
H1498 C1512 0.960 . S
H1499 C1512 0.961 . S
H1500 C1512 0.959 . S
H1501 C1515 0.929 . S
H1502 C1516 0.931 . S
H1503 C1518 0.930 . S
C1504 H1492 0.930 . S
C1504 C1505 1.399 . S
C1504 C1509 1.399 . S
C1505 C1504 1.399 . S
C1505 C1506 1.376 . S
C1506 H1493 0.930 . S
C1506 C1505 1.376 . S
C1506 C1507 1.388 . S
C1507 H1494 0.930 . S
C1507 C1506 1.388 . S
C1507 C1508 1.390 . S
C1508 C1507 1.390 . S
C1508 C1509 1.394 . S
C1508 C1514 1.465 . S
C1509 C1504 1.399 . S
C1509 C1508 1.394 . S
C1509 C1510 1.516 . S
C1510 C1509 1.516 . S
C1510 C1511 1.502 . S
C1510 C1512 1.561 . S
C1510 C1513 1.526 . S
C1511 H1495 0.959 . S
C1511 H1496 0.959 . S
C1511 H1497 0.961 . S
C1511 C1510 1.502 . S
C1512 H1498 0.960 . S
C1512 H1499 0.961 . S
C1512 H1500 0.959 . S
C1512 C1510 1.561 . S
C1513 C1510 1.526 . S
C1513 C1514 1.396 . S
C1513 C1518 1.390 . S
C1514 C1508 1.465 . S
C1514 C1513 1.396 . S
C1514 C1515 1.399 . S
C1515 H1501 0.929 . S
C1515 C1514 1.399 . S
C1515 C1516 1.385 . S
C1516 H1502 0.931 . S
C1516 C1515 1.385 . S
C1516 C1517 1.389 . S
C1517 C1516 1.389 . S
C1517 C1518 1.387 . S
C1518 H1503 0.930 . S
C1518 C1513 1.390 . S
C1518 C1517 1.387 . S
H1519 C1531 0.930 . S
H1520 C1533 0.930 . S
H1521 C1534 0.930 . S
H1522 C1538 0.959 . S
H1523 C1538 0.959 . S
H1524 C1538 0.961 . S
H1525 C1539 0.960 . S
H1526 C1539 0.961 . S
H1527 C1539 0.959 . S
H1528 C1542 0.929 . S
H1529 C1543 0.931 . S
H1530 C1545 0.930 . S
C1531 H1519 0.930 . S
C1531 C1532 1.399 . S
C1531 C1536 1.399 . S
C1532 C1531 1.399 . S
C1532 C1533 1.376 . S
C1533 H1520 0.930 . S
C1533 C1532 1.376 . S
C1533 C1534 1.388 . S
C1534 H1521 0.930 . S
C1534 C1533 1.388 . S
C1534 C1535 1.390 . S
C1535 C1534 1.390 . S
C1535 C1536 1.394 . S
C1535 C1541 1.465 . S
C1536 C1531 1.399 . S
C1536 C1535 1.394 . S
C1536 C1537 1.516 . S
C1537 C1536 1.516 . S
C1537 C1538 1.502 . S
C1537 C1539 1.561 . S
C1537 C1540 1.526 . S
C1538 H1522 0.959 . S
C1538 H1523 0.959 . S
C1538 H1524 0.961 . S
C1538 C1537 1.502 . S
C1539 H1525 0.960 . S
C1539 H1526 0.961 . S
C1539 H1527 0.959 . S
C1539 C1537 1.561 . S
C1540 C1537 1.526 . S
C1540 C1541 1.396 . S
C1540 C1545 1.390 . S
C1541 C1535 1.465 . S
C1541 C1540 1.396 . S
C1541 C1542 1.399 . S
C1542 H1528 0.929 . S
C1542 C1541 1.399 . S
C1542 C1543 1.385 . S
C1543 H1529 0.931 . S
C1543 C1542 1.385 . S
C1543 C1544 1.389 . S
C1544 C1543 1.389 . S
C1544 C1545 1.387 . S
C1545 H1530 0.930 . S
C1545 C1540 1.390 . S
C1545 C1544 1.387 . S
H1546 C1558 0.930 . S
H1547 C1560 0.930 . S
H1548 C1561 0.930 . S
H1549 C1565 0.959 . S
H1550 C1565 0.959 . S
H1551 C1565 0.961 . S
H1552 C1566 0.960 . S
H1553 C1566 0.961 . S
H1554 C1566 0.959 . S
H1555 C1569 0.929 . S
H1556 C1570 0.931 . S
H1557 C1572 0.930 . S
C1558 H1546 0.930 . S
C1558 C1559 1.399 . S
C1558 C1563 1.399 . S
C1559 C1558 1.399 . S
C1559 C1560 1.376 . S
C1560 H1547 0.930 . S
C1560 C1559 1.376 . S
C1560 C1561 1.388 . S
C1561 H1548 0.930 . S
C1561 C1560 1.388 . S
C1561 C1562 1.390 . S
C1562 C1561 1.390 . S
C1562 C1563 1.394 . S
C1562 C1568 1.465 . S
C1563 C1558 1.399 . S
C1563 C1562 1.394 . S
C1563 C1564 1.516 . S
C1564 C1563 1.516 . S
C1564 C1565 1.502 . S
C1564 C1566 1.561 . S
C1564 C1567 1.526 . S
C1565 H1549 0.959 . S
C1565 H1550 0.959 . S
C1565 H1551 0.961 . S
C1565 C1564 1.502 . S
C1566 H1552 0.960 . S
C1566 H1553 0.961 . S
C1566 H1554 0.959 . S
C1566 C1564 1.561 . S
C1567 C1564 1.526 . S
C1567 C1568 1.396 . S
C1567 C1572 1.390 . S
C1568 C1562 1.465 . S
C1568 C1567 1.396 . S
C1568 C1569 1.399 . S
C1569 H1555 0.929 . S
C1569 C1568 1.399 . S
C1569 C1570 1.385 . S
C1570 H1556 0.931 . S
C1570 C1569 1.385 . S
C1570 C1571 1.389 . S
C1571 C1570 1.389 . S
C1571 C1572 1.387 . S
C1572 H1557 0.930 . S
C1572 C1567 1.390 . S
C1572 C1571 1.387 . S
H1573 C1585 0.930 . S
H1574 C1587 0.930 . S
H1575 C1588 0.930 . S
H1576 C1592 0.959 . S
H1577 C1592 0.959 . S
H1578 C1592 0.961 . S
H1579 C1593 0.960 . S
H1580 C1593 0.961 . S
H1581 C1593 0.959 . S
H1582 C1596 0.929 . S
H1583 C1597 0.931 . S
H1584 C1599 0.930 . S
C1585 H1573 0.930 . S
C1585 C1586 1.399 . S
C1585 C1590 1.399 . S
C1586 C1585 1.399 . S
C1586 C1587 1.376 . S
C1587 H1574 0.930 . S
C1587 C1586 1.376 . S
C1587 C1588 1.388 . S
C1588 H1575 0.930 . S
C1588 C1587 1.388 . S
C1588 C1589 1.390 . S
C1589 C1588 1.390 . S
C1589 C1590 1.394 . S
C1589 C1595 1.465 . S
C1590 C1585 1.399 . S
C1590 C1589 1.394 . S
C1590 C1591 1.516 . S
C1591 C1590 1.516 . S
C1591 C1592 1.502 . S
C1591 C1593 1.561 . S
C1591 C1594 1.526 . S
C1592 H1576 0.959 . S
C1592 H1577 0.959 . S
C1592 H1578 0.961 . S
C1592 C1591 1.502 . S
C1593 H1579 0.960 . S
C1593 H1580 0.961 . S
C1593 H1581 0.959 . S
C1593 C1591 1.561 . S
C1594 C1591 1.526 . S
C1594 C1595 1.396 . S
C1594 C1599 1.390 . S
C1595 C1589 1.465 . S
C1595 C1594 1.396 . S
C1595 C1596 1.399 . S
C1596 H1582 0.929 . S
C1596 C1595 1.399 . S
C1596 C1597 1.385 . S
C1597 H1583 0.931 . S
C1597 C1596 1.385 . S
C1597 C1598 1.389 . S
C1598 C1597 1.389 . S
C1598 C1599 1.387 . S
C1599 H1584 0.930 . S
C1599 C1594 1.390 . S
C1599 C1598 1.387 . S
H1600 C1612 0.930 . S
H1601 C1614 0.930 . S
H1602 C1615 0.930 . S
H1603 C1619 0.959 . S
H1604 C1619 0.959 . S
H1605 C1619 0.961 . S
H1606 C1620 0.960 . S
H1607 C1620 0.961 . S
H1608 C1620 0.959 . S
H1609 C1623 0.929 . S
H1610 C1624 0.931 . S
H1611 C1626 0.930 . S
C1612 H1600 0.930 . S
C1612 C1613 1.399 . S
C1612 C1617 1.399 . S
C1613 C1612 1.399 . S
C1613 C1614 1.376 . S
C1614 H1601 0.930 . S
C1614 C1613 1.376 . S
C1614 C1615 1.388 . S
C1615 H1602 0.930 . S
C1615 C1614 1.388 . S
C1615 C1616 1.390 . S
C1616 C1615 1.390 . S
C1616 C1617 1.394 . S
C1616 C1622 1.465 . S
C1617 C1612 1.399 . S
C1617 C1616 1.394 . S
C1617 C1618 1.516 . S
C1618 C1617 1.516 . S
C1618 C1619 1.502 . S
C1618 C1620 1.561 . S
C1618 C1621 1.526 . S
C1619 H1603 0.959 . S
C1619 H1604 0.959 . S
C1619 H1605 0.961 . S
C1619 C1618 1.502 . S
C1620 H1606 0.960 . S
C1620 H1607 0.961 . S
C1620 H1608 0.959 . S
C1620 C1618 1.561 . S
C1621 C1618 1.526 . S
C1621 C1622 1.396 . S
C1621 C1626 1.390 . S
C1622 C1616 1.465 . S
C1622 C1621 1.396 . S
C1622 C1623 1.399 . S
C1623 H1609 0.929 . S
C1623 C1622 1.399 . S
C1623 C1624 1.385 . S
C1624 H1610 0.931 . S
C1624 C1623 1.385 . S
C1624 C1625 1.389 . S
C1625 C1624 1.389 . S
C1625 C1626 1.387 . S
C1626 H1611 0.930 . S
C1626 C1621 1.390 . S
C1626 C1625 1.387 . S
H1627 C1639 0.930 . S
H1628 C1641 0.930 . S
H1629 C1642 0.930 . S
H1630 C1646 0.959 . S
H1631 C1646 0.959 . S
H1632 C1646 0.961 . S
H1633 C1647 0.960 . S
H1634 C1647 0.961 . S
H1635 C1647 0.959 . S
H1636 C1650 0.929 . S
H1637 C1651 0.931 . S
H1638 C1653 0.930 . S
C1639 H1627 0.930 . S
C1639 C1640 1.399 . S
C1639 C1644 1.399 . S
C1640 C1639 1.399 . S
C1640 C1641 1.376 . S
C1641 H1628 0.930 . S
C1641 C1640 1.376 . S
C1641 C1642 1.388 . S
C1642 H1629 0.930 . S
C1642 C1641 1.388 . S
C1642 C1643 1.390 . S
C1643 C1642 1.390 . S
C1643 C1644 1.394 . S
C1643 C1649 1.465 . S
C1644 C1639 1.399 . S
C1644 C1643 1.394 . S
C1644 C1645 1.516 . S
C1645 C1644 1.516 . S
C1645 C1646 1.502 . S
C1645 C1647 1.561 . S
C1645 C1648 1.526 . S
C1646 H1630 0.959 . S
C1646 H1631 0.959 . S
C1646 H1632 0.961 . S
C1646 C1645 1.502 . S
C1647 H1633 0.960 . S
C1647 H1634 0.961 . S
C1647 H1635 0.959 . S
C1647 C1645 1.561 . S
C1648 C1645 1.526 . S
C1648 C1649 1.396 . S
C1648 C1653 1.390 . S
C1649 C1643 1.465 . S
C1649 C1648 1.396 . S
C1649 C1650 1.399 . S
C1650 H1636 0.929 . S
C1650 C1649 1.399 . S
C1650 C1651 1.385 . S
C1651 H1637 0.931 . S
C1651 C1650 1.385 . S
C1651 C1652 1.389 . S
C1652 C1651 1.389 . S
C1652 C1653 1.387 . S
C1653 H1638 0.930 . S
C1653 C1648 1.390 . S
C1653 C1652 1.387 . S
H1654 C1666 0.930 . S
H1655 C1668 0.930 . S
H1656 C1669 0.930 . S
H1657 C1673 0.959 . S
H1658 C1673 0.959 . S
H1659 C1673 0.961 . S
H1660 C1674 0.960 . S
H1661 C1674 0.961 . S
H1662 C1674 0.959 . S
H1663 C1677 0.929 . S
H1664 C1678 0.931 . S
H1665 C1680 0.930 . S
C1666 H1654 0.930 . S
C1666 C1667 1.399 . S
C1666 C1671 1.399 . S
C1667 C1666 1.399 . S
C1667 C1668 1.376 . S
C1668 H1655 0.930 . S
C1668 C1667 1.376 . S
C1668 C1669 1.388 . S
C1669 H1656 0.930 . S
C1669 C1668 1.388 . S
C1669 C1670 1.390 . S
C1670 C1669 1.390 . S
C1670 C1671 1.394 . S
C1670 C1676 1.465 . S
C1671 C1666 1.399 . S
C1671 C1670 1.394 . S
C1671 C1672 1.516 . S
C1672 C1671 1.516 . S
C1672 C1673 1.502 . S
C1672 C1674 1.561 . S
C1672 C1675 1.526 . S
C1673 H1657 0.959 . S
C1673 H1658 0.959 . S
C1673 H1659 0.961 . S
C1673 C1672 1.502 . S
C1674 H1660 0.960 . S
C1674 H1661 0.961 . S
C1674 H1662 0.959 . S
C1674 C1672 1.561 . S
C1675 C1672 1.526 . S
C1675 C1676 1.396 . S
C1675 C1680 1.390 . S
C1676 C1670 1.465 . S
C1676 C1675 1.396 . S
C1676 C1677 1.399 . S
C1677 H1663 0.929 . S
C1677 C1676 1.399 . S
C1677 C1678 1.385 . S
C1678 H1664 0.931 . S
C1678 C1677 1.385 . S
C1678 C1679 1.389 . S
C1679 C1678 1.389 . S
C1679 C1680 1.387 . S
C1680 H1665 0.930 . S
C1680 C1675 1.390 . S
C1680 C1679 1.387 . S
H1681 C1693 0.930 . S
H1682 C1695 0.930 . S
H1683 C1696 0.930 . S
H1684 C1700 0.959 . S
H1685 C1700 0.959 . S
H1686 C1700 0.961 . S
H1687 C1701 0.960 . S
H1688 C1701 0.961 . S
H1689 C1701 0.959 . S
H1690 C1704 0.929 . S
H1691 C1705 0.931 . S
H1692 C1707 0.930 . S
C1693 H1681 0.930 . S
C1693 C1694 1.399 . S
C1693 C1698 1.399 . S
C1694 C1693 1.399 . S
C1694 C1695 1.376 . S
C1695 H1682 0.930 . S
C1695 C1694 1.376 . S
C1695 C1696 1.388 . S
C1696 H1683 0.930 . S
C1696 C1695 1.388 . S
C1696 C1697 1.390 . S
C1697 C1696 1.390 . S
C1697 C1698 1.394 . S
C1697 C1703 1.465 . S
C1698 C1693 1.399 . S
C1698 C1697 1.394 . S
C1698 C1699 1.516 . S
C1699 C1698 1.516 . S
C1699 C1700 1.502 . S
C1699 C1701 1.561 . S
C1699 C1702 1.526 . S
C1700 H1684 0.959 . S
C1700 H1685 0.959 . S
C1700 H1686 0.961 . S
C1700 C1699 1.502 . S
C1701 H1687 0.960 . S
C1701 H1688 0.961 . S
C1701 H1689 0.959 . S
C1701 C1699 1.561 . S
C1702 C1699 1.526 . S
C1702 C1703 1.396 . S
C1702 C1707 1.390 . S
C1703 C1697 1.465 . S
C1703 C1702 1.396 . S
C1703 C1704 1.399 . S
C1704 H1690 0.929 . S
C1704 C1703 1.399 . S
C1704 C1705 1.385 . S
C1705 H1691 0.931 . S
C1705 C1704 1.385 . S
C1705 C1706 1.389 . S
C1706 C1705 1.389 . S
C1706 C1707 1.387 . S
C1707 H1692 0.930 . S
C1707 C1702 1.390 . S
C1707 C1706 1.387 . S
H1708 C1720 0.930 . S
H1709 C1722 0.930 . S
H1710 C1723 0.930 . S
H1711 C1727 0.959 . S
H1712 C1727 0.959 . S
H1713 C1727 0.961 . S
H1714 C1728 0.960 . S
H1715 C1728 0.961 . S
H1716 C1728 0.959 . S
H1717 C1731 0.929 . S
H1718 C1732 0.931 . S
H1719 C1734 0.930 . S
C1720 H1708 0.930 . S
C1720 C1721 1.399 . S
C1720 C1725 1.399 . S
C1721 C1720 1.399 . S
C1721 C1722 1.376 . S
C1722 H1709 0.930 . S
C1722 C1721 1.376 . S
C1722 C1723 1.388 . S
C1723 H1710 0.930 . S
C1723 C1722 1.388 . S
C1723 C1724 1.390 . S
C1724 C1723 1.390 . S
C1724 C1725 1.394 . S
C1724 C1730 1.465 . S
C1725 C1720 1.399 . S
C1725 C1724 1.394 . S
C1725 C1726 1.516 . S
C1726 C1725 1.516 . S
C1726 C1727 1.502 . S
C1726 C1728 1.561 . S
C1726 C1729 1.526 . S
C1727 H1711 0.959 . S
C1727 H1712 0.959 . S
C1727 H1713 0.961 . S
C1727 C1726 1.502 . S
C1728 H1714 0.960 . S
C1728 H1715 0.961 . S
C1728 H1716 0.959 . S
C1728 C1726 1.561 . S
C1729 C1726 1.526 . S
C1729 C1730 1.396 . S
C1729 C1734 1.390 . S
C1730 C1724 1.465 . S
C1730 C1729 1.396 . S
C1730 C1731 1.399 . S
C1731 H1717 0.929 . S
C1731 C1730 1.399 . S
C1731 C1732 1.385 . S
C1732 H1718 0.931 . S
C1732 C1731 1.385 . S
C1732 C1733 1.389 . S
C1733 C1732 1.389 . S
C1733 C1734 1.387 . S
C1734 H1719 0.930 . S
C1734 C1729 1.390 . S
C1734 C1733 1.387 . S
H1735 C1747 0.930 . S
H1736 C1749 0.930 . S
H1737 C1750 0.930 . S
H1738 C1754 0.959 . S
H1739 C1754 0.959 . S
H1740 C1754 0.961 . S
H1741 C1755 0.960 . S
H1742 C1755 0.961 . S
H1743 C1755 0.959 . S
H1744 C1758 0.929 . S
H1745 C1759 0.931 . S
H1746 C1761 0.930 . S
C1747 H1735 0.930 . S
C1747 C1748 1.399 . S
C1747 C1752 1.399 . S
C1748 C1747 1.399 . S
C1748 C1749 1.376 . S
C1749 H1736 0.930 . S
C1749 C1748 1.376 . S
C1749 C1750 1.388 . S
C1750 H1737 0.930 . S
C1750 C1749 1.388 . S
C1750 C1751 1.390 . S
C1751 C1750 1.390 . S
C1751 C1752 1.394 . S
C1751 C1757 1.465 . S
C1752 C1747 1.399 . S
C1752 C1751 1.394 . S
C1752 C1753 1.516 . S
C1753 C1752 1.516 . S
C1753 C1754 1.502 . S
C1753 C1755 1.561 . S
C1753 C1756 1.526 . S
C1754 H1738 0.959 . S
C1754 H1739 0.959 . S
C1754 H1740 0.961 . S
C1754 C1753 1.502 . S
C1755 H1741 0.960 . S
C1755 H1742 0.961 . S
C1755 H1743 0.959 . S
C1755 C1753 1.561 . S
C1756 C1753 1.526 . S
C1756 C1757 1.396 . S
C1756 C1761 1.390 . S
C1757 C1751 1.465 . S
C1757 C1756 1.396 . S
C1757 C1758 1.399 . S
C1758 H1744 0.929 . S
C1758 C1757 1.399 . S
C1758 C1759 1.385 . S
C1759 H1745 0.931 . S
C1759 C1758 1.385 . S
C1759 C1760 1.389 . S
C1760 C1759 1.389 . S
C1760 C1761 1.387 . S
C1761 H1746 0.930 . S
C1761 C1756 1.390 . S
C1761 C1760 1.387 . S
H1762 C1774 0.930 . S
H1763 C1776 0.930 . S
H1764 C1777 0.930 . S
H1765 C1781 0.959 . S
H1766 C1781 0.959 . S
H1767 C1781 0.961 . S
H1768 C1782 0.968 . S
H1769 C1782 0.997 . S
H1770 C1782 0.962 . S
H1771 C1785 0.929 . S
H1772 C1786 0.931 . S
H1773 C1788 0.956 . S
C1774 H1762 0.930 . S
C1774 C1775 1.399 . S
C1774 C1779 1.399 . S
C1775 C1774 1.399 . S
C1775 C1776 1.376 . S
C1776 H1763 0.930 . S
C1776 C1775 1.376 . S
C1776 C1777 1.388 . S
C1777 H1764 0.930 . S
C1777 C1776 1.388 . S
C1777 C1778 1.390 . S
C1778 C1777 1.390 . S
C1778 C1779 1.394 . S
C1778 C1784 1.465 . S
C1779 C1774 1.399 . S
C1779 C1778 1.394 . S
C1779 C1780 1.516 . S
C1780 C1779 1.516 . S
C1780 C1781 1.502 . S
C1780 C1782 1.517 1_556 S
C1780 C1783 1.526 . S
C1781 H1765 0.959 . S
C1781 H1766 0.959 . S
C1781 H1767 0.961 . S
C1781 C1780 1.502 . S
C1782 H1768 0.968 . S
C1782 H1769 0.997 . S
C1782 H1770 0.962 . S
C1782 C1780 1.517 1_554 S
C1783 C1780 1.526 . S
C1783 C1784 1.396 . S
C1783 C1788 1.390 . S
C1784 C1778 1.465 . S
C1784 C1783 1.396 . S
C1784 C1785 1.399 . S
C1785 H1771 0.929 . S
C1785 C1784 1.399 . S
C1785 C1786 1.385 . S
C1786 H1772 0.931 . S
C1786 C1785 1.385 . S
C1786 C1787 1.389 . S
C1787 C1786 1.389 . S
C1787 C1788 1.387 . S
C1788 H1773 0.956 . S
C1788 C1783 1.390 . S
C1788 C1787 1.387 . S
H1789 C1801 0.930 . S
H1790 C1803 0.930 . S
H1791 C1804 0.930 . S
H1792 C1808 0.959 . S
H1793 C1808 0.959 . S
H1794 C1808 0.961 . S
H1795 C1809 0.960 . S
H1796 C1809 0.961 . S
H1797 C1809 0.959 . S
H1798 C1812 0.929 . S
H1799 C1813 0.931 . S
H1800 C1815 0.930 . S
C1801 H1789 0.930 . S
C1801 C1802 1.399 . S
C1801 C1806 1.399 . S
C1802 C1801 1.399 . S
C1802 C1803 1.376 . S
C1803 H1790 0.930 . S
C1803 C1802 1.376 . S
C1803 C1804 1.388 . S
C1804 H1791 0.930 . S
C1804 C1803 1.388 . S
C1804 C1805 1.390 . S
C1805 C1804 1.390 . S
C1805 C1806 1.394 . S
C1805 C1811 1.465 . S
C1806 C1801 1.399 . S
C1806 C1805 1.394 . S
C1806 C1807 1.516 . S
C1807 C1806 1.516 . S
C1807 C1808 1.502 . S
C1807 C1809 1.561 . S
C1807 C1810 1.526 . S
C1808 H1792 0.959 . S
C1808 H1793 0.959 . S
C1808 H1794 0.961 . S
C1808 C1807 1.502 . S
C1809 H1795 0.960 . S
C1809 H1796 0.961 . S
C1809 H1797 0.959 . S
C1809 C1807 1.561 . S
C1810 C1807 1.526 . S
C1810 C1811 1.396 . S
C1810 C1815 1.390 . S
C1811 C1805 1.465 . S
C1811 C1810 1.396 . S
C1811 C1812 1.399 . S
C1812 H1798 0.929 . S
C1812 C1811 1.399 . S
C1812 C1813 1.385 . S
C1813 H1799 0.931 . S
C1813 C1812 1.385 . S
C1813 C1814 1.389 . S
C1814 C1813 1.389 . S
C1814 C1815 1.387 . S
C1815 H1800 0.930 . S
C1815 C1810 1.390 . S
C1815 C1814 1.387 . S
H1816 C1828 0.930 . S
H1817 C1830 0.930 1_565 S
H1818 C1831 0.930 1_565 S
H1819 C1835 0.959 . S
H1820 C1835 0.959 . S
H1821 C1835 0.961 . S
H1822 C1836 0.965 . S
H1823 C1836 0.974 . S
H1824 C1836 0.919 1_565 S
H1825 C1839 0.929 . S
H1826 C1840 0.931 . S
H1827 C1842 0.930 . S
C1828 H1816 0.930 . S
C1828 C1829 1.399 . S
C1828 C1833 1.399 . S
C1829 C1828 1.399 . S
C1829 C1830 1.376 . S
C1830 H1817 0.930 1_545 S
C1830 C1829 1.376 . S
C1830 C1831 1.388 . S
C1831 H1818 0.930 1_545 S
C1831 C1830 1.388 . S
C1831 C1832 1.390 . S
C1832 C1831 1.390 . S
C1832 C1833 1.394 . S
C1832 C1838 1.465 . S
C1833 C1828 1.399 . S
C1833 C1832 1.394 . S
C1833 C1834 1.516 . S
C1834 C1833 1.516 . S
C1834 C1835 1.502 . S
C1834 C1836 1.582 . S
C1834 C1837 1.526 . S
C1835 H1819 0.959 . S
C1835 H1820 0.959 . S
C1835 H1821 0.961 . S
C1835 C1834 1.502 . S
C1836 H1822 0.965 . S
C1836 H1823 0.974 . S
C1836 H1824 0.919 1_545 S
C1836 C1834 1.582 . S
C1837 C1834 1.526 . S
C1837 C1838 1.396 . S
C1837 C1842 1.390 . S
C1838 C1832 1.465 . S
C1838 C1837 1.396 . S
C1838 C1839 1.399 . S
C1839 H1825 0.929 . S
C1839 C1838 1.399 . S
C1839 C1840 1.385 . S
C1840 H1826 0.931 . S
C1840 C1839 1.385 . S
C1840 C1841 1.389 . S
C1841 C1840 1.389 . S
C1841 C1842 1.387 . S
C1842 H1827 0.930 . S
C1842 C1837 1.390 . S
C1842 C1841 1.387 . S
H1843 C1855 0.930 . S
H1844 C1857 0.930 . S
H1845 C1858 0.930 . S
H1846 C1862 0.959 . S
H1847 C1862 0.959 . S
H1848 C1862 0.961 . S
H1849 C1863 0.960 . S
H1850 C1863 0.961 . S
H1851 C1863 0.959 . S
H1852 C1866 0.929 . S
H1853 C1867 0.931 . S
H1854 C1869 0.930 . S
C1855 H1843 0.930 . S
C1855 C1856 1.399 . S
C1855 C1860 1.399 . S
C1856 C1855 1.399 . S
C1856 C1857 1.376 . S
C1857 H1844 0.930 . S
C1857 C1856 1.376 . S
C1857 C1858 1.388 . S
C1858 H1845 0.930 . S
C1858 C1857 1.388 . S
C1858 C1859 1.390 . S
C1859 C1858 1.390 . S
C1859 C1860 1.394 . S
C1859 C1865 1.465 . S
C1860 C1855 1.399 . S
C1860 C1859 1.394 . S
C1860 C1861 1.516 . S
C1861 C1860 1.516 . S
C1861 C1862 1.502 . S
C1861 C1863 1.561 . S
C1861 C1864 1.526 . S
C1862 H1846 0.959 . S
C1862 H1847 0.959 . S
C1862 H1848 0.961 . S
C1862 C1861 1.502 . S
C1863 H1849 0.960 . S
C1863 H1850 0.961 . S
C1863 H1851 0.959 . S
C1863 C1861 1.561 . S
C1864 C1861 1.526 . S
C1864 C1865 1.396 . S
C1864 C1869 1.390 . S
C1865 C1859 1.465 . S
C1865 C1864 1.396 . S
C1865 C1866 1.399 . S
C1866 H1852 0.929 . S
C1866 C1865 1.399 . S
C1866 C1867 1.385 . S
C1867 H1853 0.931 . S
C1867 C1866 1.385 . S
C1867 C1868 1.389 . S
C1868 C1867 1.389 . S
C1868 C1869 1.387 . S
C1869 H1854 0.930 . S
C1869 C1864 1.390 . S
C1869 C1868 1.387 . S
H1870 C1882 0.893 1_565 S
H1871 C1884 0.930 . S
H1872 C1885 0.930 . S
H1873 C1889 0.959 . S
H1874 C1889 0.959 . S
H1875 C1889 0.961 . S
H1876 C1890 0.960 . S
H1877 C1890 0.961 . S
H1878 C1890 0.959 . S
H1879 C1893 0.929 . S
H1880 C1894 0.931 . S
H1881 C1896 0.930 . S
C1882 H1870 0.893 1_545 S
C1882 C1883 1.434 . S
C1882 C1887 1.403 . S
C1883 C1882 1.434 . S
C1883 C1884 1.376 . S
C1884 H1871 0.930 . S
C1884 C1883 1.376 . S
C1884 C1885 1.388 . S
C1885 H1872 0.930 . S
C1885 C1884 1.388 . S
C1885 C1886 1.390 . S
C1886 C1885 1.390 . S
C1886 C1887 1.394 . S
C1886 C1892 1.465 . S
C1887 C1882 1.403 . S
C1887 C1886 1.394 . S
C1887 C1888 1.516 1_545 S
C1888 C1887 1.516 1_565 S
C1888 C1889 1.502 . S
C1888 C1890 1.561 . S
C1888 C1891 1.526 1_565 S
C1889 H1873 0.959 . S
C1889 H1874 0.959 . S
C1889 H1875 0.961 . S
C1889 C1888 1.502 . S
C1890 H1876 0.960 . S
C1890 H1877 0.961 . S
C1890 H1878 0.959 . S
C1890 C1888 1.561 . S
C1891 C1888 1.526 1_545 S
C1891 C1892 1.396 . S
C1891 C1896 1.390 . S
C1892 C1886 1.465 . S
C1892 C1891 1.396 . S
C1892 C1893 1.399 . S
C1893 H1879 0.929 . S
C1893 C1892 1.399 . S
C1893 C1894 1.385 . S
C1894 H1880 0.931 . S
C1894 C1893 1.385 . S
C1894 C1895 1.389 . S
C1895 C1894 1.389 . S
C1895 C1896 1.387 . S
C1896 H1881 0.930 . S
C1896 C1891 1.390 . S
C1896 C1895 1.387 . S
H1897 C1909 0.930 . S
H1898 C1911 0.930 . S
H1899 C1912 0.930 . S
H1900 C1916 0.959 . S
H1901 C1916 0.959 . S
H1902 C1916 0.961 . S
H1903 C1917 0.960 . S
H1904 C1917 0.961 . S
H1905 C1917 0.959 . S
H1906 C1920 0.929 . S
H1907 C1921 0.931 . S
H1908 C1923 0.930 . S
C1909 H1897 0.930 . S
C1909 C1910 1.399 . S
C1909 C1914 1.399 . S
C1910 C1909 1.399 . S
C1910 C1911 1.376 . S
C1911 H1898 0.930 . S
C1911 C1910 1.376 . S
C1911 C1912 1.388 . S
C1912 H1899 0.930 . S
C1912 C1911 1.388 . S
C1912 C1913 1.390 . S
C1913 C1912 1.390 . S
C1913 C1914 1.394 . S
C1913 C1919 1.465 . S
C1914 C1909 1.399 . S
C1914 C1913 1.394 . S
C1914 C1915 1.516 . S
C1915 C1914 1.516 . S
C1915 C1916 1.502 . S
C1915 C1917 1.561 . S
C1915 C1918 1.526 . S
C1916 H1900 0.959 . S
C1916 H1901 0.959 . S
C1916 H1902 0.961 . S
C1916 C1915 1.502 . S
C1917 H1903 0.960 . S
C1917 H1904 0.961 . S
C1917 H1905 0.959 . S
C1917 C1915 1.561 . S
C1918 C1915 1.526 . S
C1918 C1919 1.396 . S
C1918 C1923 1.390 . S
C1919 C1913 1.465 . S
C1919 C1918 1.396 . S
C1919 C1920 1.399 . S
C1920 H1906 0.929 . S
C1920 C1919 1.399 . S
C1920 C1921 1.385 . S
C1921 H1907 0.931 . S
C1921 C1920 1.385 . S
C1921 C1922 1.389 . S
C1922 C1921 1.389 . S
C1922 C1923 1.387 . S
C1923 H1908 0.930 . S
C1923 C1918 1.390 . S
C1923 C1922 1.387 . S
H1924 C1936 0.930 . S
H1925 C1938 0.930 . S
H1926 C1939 0.930 . S
H1927 C1943 0.959 . S
H1928 C1943 0.959 . S
H1929 C1943 0.961 . S
H1930 C1944 0.960 . S
H1931 C1944 0.961 . S
H1932 C1944 1.003 . S
H1933 C1947 0.929 . S
H1934 C1948 0.931 . S
H1935 C1950 0.930 1_565 S
C1936 H1924 0.930 . S
C1936 C1937 1.399 1_565 S
C1936 C1941 1.399 1_565 S
C1937 C1936 1.399 1_545 S
C1937 C1938 1.376 . S
C1938 H1925 0.930 . S
C1938 C1937 1.376 . S
C1938 C1939 1.388 . S
C1939 H1926 0.930 . S
C1939 C1938 1.388 . S
C1939 C1940 1.390 . S
C1940 C1939 1.390 . S
C1940 C1941 1.394 . S
C1940 C1946 1.465 . S
C1941 C1936 1.399 1_545 S
C1941 C1940 1.394 . S
C1941 C1942 1.516 1_545 S
C1942 C1941 1.516 1_565 S
C1942 C1943 1.502 . S
C1942 C1944 1.561 . S
C1942 C1945 1.526 1_565 S
C1943 H1927 0.959 . S
C1943 H1928 0.959 . S
C1943 H1929 0.961 . S
C1943 C1942 1.502 . S
C1944 H1930 0.960 . S
C1944 H1931 0.961 . S
C1944 H1932 1.003 . S
C1944 C1942 1.561 . S
C1945 C1942 1.526 1_545 S
C1945 C1946 1.396 . S
C1945 C1950 1.390 . S
C1946 C1940 1.465 . S
C1946 C1945 1.396 . S
C1946 C1947 1.399 . S
C1947 H1933 0.929 . S
C1947 C1946 1.399 . S
C1947 C1948 1.385 . S
C1948 H1934 0.931 . S
C1948 C1947 1.385 . S
C1948 C1949 1.389 . S
C1949 C1948 1.389 . S
C1949 C1950 1.387 . S
C1950 H1935 0.930 1_545 S
C1950 C1945 1.390 . S
C1950 C1949 1.387 . S
H1951 C1963 0.930 . S
H1952 C1965 0.930 . S
H1953 C1966 0.930 . S
H1954 C1970 0.959 . S
H1955 C1970 0.959 . S
H1956 C1970 0.961 . S
H1957 C1971 0.960 . S
H1958 C1971 0.961 . S
H1959 C1971 0.959 . S
H1960 C1974 0.929 . S
H1961 C1975 0.931 . S
H1962 C1977 0.930 . S
C1963 H1951 0.930 . S
C1963 C1964 1.399 . S
C1963 C1968 1.399 . S
C1964 C1963 1.399 . S
C1964 C1965 1.376 . S
C1965 H1952 0.930 . S
C1965 C1964 1.376 . S
C1965 C1966 1.388 . S
C1966 H1953 0.930 . S
C1966 C1965 1.388 . S
C1966 C1967 1.390 . S
C1967 C1966 1.390 . S
C1967 C1968 1.394 . S
C1967 C1973 1.465 . S
C1968 C1963 1.399 . S
C1968 C1967 1.394 . S
C1968 C1969 1.516 . S
C1969 C1968 1.516 . S
C1969 C1970 1.502 . S
C1969 C1971 1.561 . S
C1969 C1972 1.526 . S
C1970 H1954 0.959 . S
C1970 H1955 0.959 . S
C1970 H1956 0.961 . S
C1970 C1969 1.502 . S
C1971 H1957 0.960 . S
C1971 H1958 0.961 . S
C1971 H1959 0.959 . S
C1971 C1969 1.561 . S
C1972 C1969 1.526 . S
C1972 C1973 1.396 . S
C1972 C1977 1.390 . S
C1973 C1967 1.465 . S
C1973 C1972 1.396 . S
C1973 C1974 1.399 . S
C1974 H1960 0.929 . S
C1974 C1973 1.399 . S
C1974 C1975 1.385 . S
C1975 H1961 0.931 . S
C1975 C1974 1.385 . S
C1975 C1976 1.389 . S
C1976 C1975 1.389 . S
C1976 C1977 1.387 . S
C1977 H1962 0.930 . S
C1977 C1972 1.390 . S
C1977 C1976 1.387 . S
H1978 C1990 0.930 . S
H1979 C1992 0.930 . S
H1980 C1993 0.930 . S
H1981 C1997 0.959 . S
H1982 C1997 0.959 . S
H1983 C1997 0.961 . S
H1984 C1998 0.960 . S
H1985 C1998 0.961 . S
H1986 C1998 0.959 . S
H1987 C2001 0.929 . S
H1988 C2002 0.931 . S
H1989 C2004 0.930 . S
C1990 H1978 0.930 . S
C1990 C1991 1.399 1_545 S
C1990 C1995 1.399 . S
C1991 C1990 1.399 1_565 S
C1991 C1992 1.376 . S
C1992 H1979 0.930 . S
C1992 C1991 1.376 . S
C1992 C1993 1.388 . S
C1993 H1980 0.930 . S
C1993 C1992 1.388 . S
C1993 C1994 1.390 . S
C1994 C1993 1.390 . S
C1994 C1995 1.394 1_565 S
C1994 C2000 1.465 . S
C1995 C1990 1.399 . S
C1995 C1994 1.394 1_545 S
C1995 C1996 1.516 . S
C1996 C1995 1.516 . S
C1996 C1997 1.502 . S
C1996 C1998 1.561 . S
C1996 C1999 1.526 . S
C1997 H1981 0.959 . S
C1997 H1982 0.959 . S
C1997 H1983 0.961 . S
C1997 C1996 1.502 . S
C1998 H1984 0.960 . S
C1998 H1985 0.961 . S
C1998 H1986 0.959 . S
C1998 C1996 1.561 . S
C1999 C1996 1.526 . S
C1999 C2000 1.396 1_545 S
C1999 C2004 1.390 . S
C2000 C1994 1.465 . S
C2000 C1999 1.396 1_565 S
C2000 C2001 1.399 . S
C2001 H1987 0.929 . S
C2001 C2000 1.399 . S
C2001 C2002 1.385 . S
C2002 H1988 0.931 . S
C2002 C2001 1.385 . S
C2002 C2003 1.389 . S
C2003 C2002 1.389 . S
C2003 C2004 1.387 1_565 S
C2004 H1989 0.930 . S
C2004 C1999 1.390 . S
C2004 C2003 1.387 1_545 S
H2005 C2017 0.930 . S
H2006 C2019 0.930 . S
H2007 C2020 0.930 . S
H2008 C2024 0.959 . S
H2009 C2024 0.959 . S
H2010 C2024 0.961 . S
H2011 C2025 0.960 . S
H2012 C2025 0.961 . S
H2013 C2025 0.959 . S
H2014 C2028 0.929 . S
H2015 C2029 0.931 . S
H2016 C2031 0.930 . S
C2017 H2005 0.930 . S
C2017 C2018 1.399 . S
C2017 C2022 1.399 . S
C2018 C2017 1.399 . S
C2018 C2019 1.376 . S
C2019 H2006 0.930 . S
C2019 C2018 1.376 . S
C2019 C2020 1.388 . S
C2020 H2007 0.930 . S
C2020 C2019 1.388 . S
C2020 C2021 1.390 . S
C2021 C2020 1.390 . S
C2021 C2022 1.394 . S
C2021 C2027 1.465 . S
C2022 C2017 1.399 . S
C2022 C2021 1.394 . S
C2022 C2023 1.516 . S
C2023 C2022 1.516 . S
C2023 C2024 1.502 . S
C2023 C2025 1.561 . S
C2023 C2026 1.526 . S
C2024 H2008 0.959 . S
C2024 H2009 0.959 . S
C2024 H2010 0.961 . S
C2024 C2023 1.502 . S
C2025 H2011 0.960 . S
C2025 H2012 0.961 . S
C2025 H2013 0.959 . S
C2025 C2023 1.561 . S
C2026 C2023 1.526 . S
C2026 C2027 1.396 . S
C2026 C2031 1.390 . S
C2027 C2021 1.465 . S
C2027 C2026 1.396 . S
C2027 C2028 1.399 . S
C2028 H2014 0.929 . S
C2028 C2027 1.399 . S
C2028 C2029 1.385 . S
C2029 H2015 0.931 . S
C2029 C2028 1.385 . S
C2029 C2030 1.389 . S
C2030 C2029 1.389 . S
C2030 C2031 1.387 . S
C2031 H2016 0.930 . S
C2031 C2026 1.390 . S
C2031 C2030 1.387 . S
H2032 C2044 0.930 . S
H2033 C2046 0.930 . S
H2034 C2047 0.930 . S
H2035 C2051 0.959 . S
H2036 C2051 0.959 . S
H2037 C2051 0.961 . S
H2038 C2052 0.960 . S
H2039 C2052 0.961 . S
H2040 C2052 0.959 . S
H2041 C2055 0.929 . S
H2042 C2056 0.931 . S
H2043 C2058 0.930 . S
C2044 H2032 0.930 . S
C2044 C2045 1.399 1_556 S
C2044 C2049 1.399 . S
C2045 C2044 1.399 1_554 S
C2045 C2046 1.376 . S
C2046 H2033 0.930 . S
C2046 C2045 1.376 . S
C2046 C2047 1.388 . S
C2047 H2034 0.930 . S
C2047 C2046 1.388 . S
C2047 C2048 1.390 . S
C2048 C2047 1.390 . S
C2048 C2049 1.394 1_554 S
C2048 C2054 1.465 . S
C2049 C2044 1.399 . S
C2049 C2048 1.394 1_556 S
C2049 C2050 1.516 . S
C2050 C2049 1.516 . S
C2050 C2051 1.502 . S
C2050 C2052 1.561 . S
C2050 C2053 1.526 . S
C2051 H2035 0.959 . S
C2051 H2036 0.959 . S
C2051 H2037 0.961 . S
C2051 C2050 1.502 . S
C2052 H2038 0.960 . S
C2052 H2039 0.961 . S
C2052 H2040 0.959 . S
C2052 C2050 1.561 . S
C2053 C2050 1.526 . S
C2053 C2054 1.396 1_556 S
C2053 C2058 1.390 . S
C2054 C2048 1.465 . S
C2054 C2053 1.396 1_554 S
C2054 C2055 1.399 . S
C2055 H2041 0.929 . S
C2055 C2054 1.399 . S
C2055 C2056 1.385 . S
C2056 H2042 0.931 . S
C2056 C2055 1.385 . S
C2056 C2057 1.389 . S
C2057 C2056 1.389 . S
C2057 C2058 1.387 1_554 S
C2058 H2043 0.930 . S
C2058 C2053 1.390 . S
C2058 C2057 1.387 1_556 S
H2059 C2071 0.930 . S
H2060 C2073 0.930 . S
H2061 C2074 0.930 1_556 S
H2062 C2078 0.959 . S
H2063 C2078 0.959 . S
H2064 C2078 0.961 . S
H2065 C2079 0.960 . S
H2066 C2079 0.961 . S
H2067 C2079 0.959 . S
H2068 C2082 0.929 1_556 S
H2069 C2083 0.931 1_556 S
H2070 C2085 0.930 . S
C2071 H2059 0.930 . S
C2071 C2072 1.399 . S
C2071 C2076 1.399 . S
C2072 C2071 1.399 . S
C2072 C2073 1.376 . S
C2073 H2060 0.930 . S
C2073 C2072 1.376 . S
C2073 C2074 1.388 . S
C2074 H2061 0.930 1_554 S
C2074 C2073 1.388 . S
C2074 C2075 1.390 . S
C2075 C2074 1.390 . S
C2075 C2076 1.394 . S
C2075 C2081 1.465 . S
C2076 C2071 1.399 . S
C2076 C2075 1.394 . S
C2076 C2077 1.516 . S
C2077 C2076 1.516 . S
C2077 C2078 1.502 . S
C2077 C2079 1.561 . S
C2077 C2080 1.526 . S
C2078 H2062 0.959 . S
C2078 H2063 0.959 . S
C2078 H2064 0.961 . S
C2078 C2077 1.502 . S
C2079 H2065 0.960 . S
C2079 H2066 0.961 . S
C2079 H2067 0.959 . S
C2079 C2077 1.561 . S
C2080 C2077 1.526 . S
C2080 C2081 1.396 . S
C2080 C2085 1.390 . S
C2081 C2075 1.465 . S
C2081 C2080 1.396 . S
C2081 C2082 1.399 . S
C2082 H2068 0.929 1_554 S
C2082 C2081 1.399 . S
C2082 C2083 1.385 . S
C2083 H2069 0.931 1_554 S
C2083 C2082 1.385 . S
C2083 C2084 1.389 . S
C2084 C2083 1.389 . S
C2084 C2085 1.387 . S
C2085 H2070 0.930 . S
C2085 C2080 1.390 . S
C2085 C2084 1.387 . S
H2086 C2098 0.930 . S
H2087 C2100 0.930 . S
H2088 C2101 0.930 . S
H2089 C2105 0.959 . S
H2090 C2105 0.959 . S
H2091 C2105 0.961 . S
H2092 C2106 0.960 . S
H2093 C2106 0.961 . S
H2094 C2106 0.959 . S
H2095 C2109 0.929 . S
H2096 C2110 0.931 . S
H2097 C2112 0.930 . S
C2098 H2086 0.930 . S
C2098 C2099 1.399 . S
C2098 C2103 1.399 . S
C2099 C2098 1.399 . S
C2099 C2100 1.376 . S
C2100 H2087 0.930 . S
C2100 C2099 1.376 . S
C2100 C2101 1.388 . S
C2101 H2088 0.930 . S
C2101 C2100 1.388 . S
C2101 C2102 1.390 . S
C2102 C2101 1.390 . S
C2102 C2103 1.394 . S
C2102 C2108 1.465 . S
C2103 C2098 1.399 . S
C2103 C2102 1.394 . S
C2103 C2104 1.516 . S
C2104 C2103 1.516 . S
C2104 C2105 1.502 . S
C2104 C2106 1.561 . S
C2104 C2107 1.526 . S
C2105 H2089 0.959 . S
C2105 H2090 0.959 . S
C2105 H2091 0.961 . S
C2105 C2104 1.502 . S
C2106 H2092 0.960 . S
C2106 H2093 0.961 . S
C2106 H2094 0.959 . S
C2106 C2104 1.561 . S
C2107 C2104 1.526 . S
C2107 C2108 1.396 . S
C2107 C2112 1.390 . S
C2108 C2102 1.465 . S
C2108 C2107 1.396 . S
C2108 C2109 1.399 . S
C2109 H2095 0.929 . S
C2109 C2108 1.399 . S
C2109 C2110 1.385 . S
C2110 H2096 0.931 . S
C2110 C2109 1.385 . S
C2110 C2111 1.389 . S
C2111 C2110 1.389 . S
C2111 C2112 1.387 . S
C2112 H2097 0.930 . S
C2112 C2107 1.390 . S
C2112 C2111 1.387 . S
H2113 C2125 0.930 . S
H2114 C2127 0.930 . S
H2115 C2128 0.930 . S
H2116 C2132 0.959 . S
H2117 C2132 0.959 . S
H2118 C2132 0.961 . S
H2119 C2133 0.960 . S
H2120 C2133 0.961 . S
H2121 C2133 0.959 . S
H2122 C2136 0.929 . S
H2123 C2137 0.931 . S
H2124 C2139 0.930 . S
C2125 H2113 0.930 . S
C2125 C2126 1.399 . S
C2125 C2130 1.399 . S
C2126 C2125 1.399 . S
C2126 C2127 1.376 . S
C2127 H2114 0.930 . S
C2127 C2126 1.376 . S
C2127 C2128 1.388 . S
C2128 H2115 0.930 . S
C2128 C2127 1.388 . S
C2128 C2129 1.390 . S
C2129 C2128 1.390 . S
C2129 C2130 1.394 . S
C2129 C2135 1.465 . S
C2130 C2125 1.399 . S
C2130 C2129 1.394 . S
C2130 C2131 1.516 . S
C2131 C2130 1.516 . S
C2131 C2132 1.502 . S
C2131 C2133 1.561 . S
C2131 C2134 1.526 . S
C2132 H2116 0.959 . S
C2132 H2117 0.959 . S
C2132 H2118 0.961 . S
C2132 C2131 1.502 . S
C2133 H2119 0.960 . S
C2133 H2120 0.961 . S
C2133 H2121 0.959 . S
C2133 C2131 1.561 . S
C2134 C2131 1.526 . S
C2134 C2135 1.396 . S
C2134 C2139 1.390 . S
C2135 C2129 1.465 . S
C2135 C2134 1.396 . S
C2135 C2136 1.399 . S
C2136 H2122 0.929 . S
C2136 C2135 1.399 . S
C2136 C2137 1.385 . S
C2137 H2123 0.931 . S
C2137 C2136 1.385 . S
C2137 C2138 1.389 . S
C2138 C2137 1.389 . S
C2138 C2139 1.387 . S
C2139 H2124 0.930 . S
C2139 C2134 1.390 . S
C2139 C2138 1.387 . S
H2140 C2152 0.930 . S
H2141 C2154 0.930 . S
H2142 C2155 0.930 . S
H2143 C2159 0.959 . S
H2144 C2159 0.959 . S
H2145 C2159 0.961 . S
H2146 C2160 0.960 . S
H2147 C2160 0.961 . S
H2148 C2160 0.959 . S
H2149 C2163 0.929 . S
H2150 C2164 0.931 . S
H2151 C2166 0.930 . S
C2152 H2140 0.930 . S
C2152 C2153 1.399 1_565 S
C2152 C2157 1.399 . S
C2153 C2152 1.399 1_545 S
C2153 C2154 1.376 . S
C2154 H2141 0.930 . S
C2154 C2153 1.376 . S
C2154 C2155 1.388 . S
C2155 H2142 0.930 . S
C2155 C2154 1.388 . S
C2155 C2156 1.390 1_545 S
C2156 C2155 1.390 1_565 S
C2156 C2157 1.394 . S
C2156 C2162 1.465 . S
C2157 C2152 1.399 . S
C2157 C2156 1.394 . S
C2157 C2158 1.516 . S
C2158 C2157 1.516 . S
C2158 C2159 1.502 . S
C2158 C2160 1.561 . S
C2158 C2161 1.526 . S
C2159 H2143 0.959 . S
C2159 H2144 0.959 . S
C2159 H2145 0.961 . S
C2159 C2158 1.502 . S
C2160 H2146 0.960 . S
C2160 H2147 0.961 . S
C2160 H2148 0.959 . S
C2160 C2158 1.561 . S
C2161 C2158 1.526 . S
C2161 C2162 1.396 . S
C2161 C2166 1.390 . S
C2162 C2156 1.465 . S
C2162 C2161 1.396 . S
C2162 C2163 1.399 . S
C2163 H2149 0.929 . S
C2163 C2162 1.399 . S
C2163 C2164 1.385 . S
C2164 H2150 0.931 . S
C2164 C2163 1.385 . S
C2164 C2165 1.389 . S
C2165 C2164 1.389 . S
C2165 C2166 1.387 . S
C2166 H2151 0.930 . S
C2166 C2161 1.390 . S
C2166 C2165 1.387 . S
H2167 C2179 0.930 . S
H2168 C2181 0.930 . S
H2169 C2182 0.930 . S
H2170 C2186 0.959 . S
H2171 C2186 0.959 . S
H2172 C2186 0.961 . S
H2173 C2187 0.960 . S
H2174 C2187 0.961 . S
H2175 C2187 0.959 . S
H2176 C2190 0.929 . S
H2177 C2191 0.931 . S
H2178 C2193 0.930 . S
C2179 H2167 0.930 . S
C2179 C2180 1.399 . S
C2179 C2184 1.399 . S
C2180 C2179 1.399 . S
C2180 C2181 1.376 . S
C2181 H2168 0.930 . S
C2181 C2180 1.376 . S
C2181 C2182 1.388 . S
C2182 H2169 0.930 . S
C2182 C2181 1.388 . S
C2182 C2183 1.390 . S
C2183 C2182 1.390 . S
C2183 C2184 1.394 . S
C2183 C2189 1.465 . S
C2184 C2179 1.399 . S
C2184 C2183 1.394 . S
C2184 C2185 1.516 . S
C2185 C2184 1.516 . S
C2185 C2186 1.502 . S
C2185 C2187 1.561 . S
C2185 C2188 1.526 . S
C2186 H2170 0.959 . S
C2186 H2171 0.959 . S
C2186 H2172 0.961 . S
C2186 C2185 1.502 . S
C2187 H2173 0.960 . S
C2187 H2174 0.961 . S
C2187 H2175 0.959 . S
C2187 C2185 1.561 . S
C2188 C2185 1.526 . S
C2188 C2189 1.396 . S
C2188 C2193 1.390 . S
C2189 C2183 1.465 . S
C2189 C2188 1.396 . S
C2189 C2190 1.399 . S
C2190 H2176 0.929 . S
C2190 C2189 1.399 . S
C2190 C2191 1.385 . S
C2191 H2177 0.931 . S
C2191 C2190 1.385 . S
C2191 C2192 1.389 . S
C2192 C2191 1.389 . S
C2192 C2193 1.387 . S
C2193 H2178 0.930 . S
C2193 C2188 1.390 . S
C2193 C2192 1.387 . S
H2194 C2206 0.930 . S
H2195 C2208 0.930 . S
H2196 C2209 0.930 . S
H2197 C2213 0.959 . S
H2198 C2213 0.959 . S
H2199 C2213 0.961 . S
H2200 C2214 0.960 . S
H2201 C2214 0.961 . S
H2202 C2214 0.959 . S
H2203 C2217 0.929 . S
H2204 C2218 0.931 . S
H2205 C2220 0.930 . S
C2206 H2194 0.930 . S
C2206 C2207 1.399 . S
C2206 C2211 1.399 . S
C2207 C2206 1.399 . S
C2207 C2208 1.376 . S
C2208 H2195 0.930 . S
C2208 C2207 1.376 . S
C2208 C2209 1.388 . S
C2209 H2196 0.930 . S
C2209 C2208 1.388 . S
C2209 C2210 1.390 . S
C2210 C2209 1.390 . S
C2210 C2211 1.394 . S
C2210 C2216 1.465 . S
C2211 C2206 1.399 . S
C2211 C2210 1.394 . S
C2211 C2212 1.516 . S
C2212 C2211 1.516 . S
C2212 C2213 1.502 . S
C2212 C2214 1.561 . S
C2212 C2215 1.526 . S
C2213 H2197 0.959 . S
C2213 H2198 0.959 . S
C2213 H2199 0.961 . S
C2213 C2212 1.502 . S
C2214 H2200 0.960 . S
C2214 H2201 0.961 . S
C2214 H2202 0.959 . S
C2214 C2212 1.561 . S
C2215 C2212 1.526 . S
C2215 C2216 1.396 . S
C2215 C2220 1.390 . S
C2216 C2210 1.465 . S
C2216 C2215 1.396 . S
C2216 C2217 1.399 . S
C2217 H2203 0.929 . S
C2217 C2216 1.399 . S
C2217 C2218 1.385 . S
C2218 H2204 0.931 . S
C2218 C2217 1.385 . S
C2218 C2219 1.389 . S
C2219 C2218 1.389 . S
C2219 C2220 1.387 . S
C2220 H2205 0.930 . S
C2220 C2215 1.390 . S
C2220 C2219 1.387 . S
H2221 C2233 0.930 . S
H2222 C2235 0.930 . S
H2223 C2236 0.930 . S
H2224 C2240 0.959 . S
H2225 C2240 0.959 . S
H2226 C2240 0.961 . S
H2227 C2241 0.960 . S
H2228 C2241 0.961 . S
H2229 C2241 0.959 . S
H2230 C2244 0.929 . S
H2231 C2245 0.931 . S
H2232 C2247 0.930 . S
C2233 H2221 0.930 . S
C2233 C2234 1.399 . S
C2233 C2238 1.399 . S
C2234 C2233 1.399 . S
C2234 C2235 1.376 . S
C2235 H2222 0.930 . S
C2235 C2234 1.376 . S
C2235 C2236 1.388 . S
C2236 H2223 0.930 . S
C2236 C2235 1.388 . S
C2236 C2237 1.390 . S
C2237 C2236 1.390 . S
C2237 C2238 1.394 . S
C2237 C2243 1.465 . S
C2238 C2233 1.399 . S
C2238 C2237 1.394 . S
C2238 C2239 1.516 . S
C2239 C2238 1.516 . S
C2239 C2240 1.502 . S
C2239 C2241 1.561 . S
C2239 C2242 1.526 . S
C2240 H2224 0.959 . S
C2240 H2225 0.959 . S
C2240 H2226 0.961 . S
C2240 C2239 1.502 . S
C2241 H2227 0.960 . S
C2241 H2228 0.961 . S
C2241 H2229 0.959 . S
C2241 C2239 1.561 . S
C2242 C2239 1.526 . S
C2242 C2243 1.396 . S
C2242 C2247 1.390 . S
C2243 C2237 1.465 . S
C2243 C2242 1.396 . S
C2243 C2244 1.399 . S
C2244 H2230 0.929 . S
C2244 C2243 1.399 . S
C2244 C2245 1.385 . S
C2245 H2231 0.931 . S
C2245 C2244 1.385 . S
C2245 C2246 1.389 . S
C2246 C2245 1.389 . S
C2246 C2247 1.387 . S
C2247 H2232 0.930 . S
C2247 C2242 1.390 . S
C2247 C2246 1.387 . S
H2248 C2260 0.930 . S
H2249 C2262 0.930 . S
H2250 C2263 0.930 . S
H2251 C2267 0.959 . S
H2252 C2267 0.959 . S
H2253 C2267 0.961 . S
H2254 C2268 0.960 . S
H2255 C2268 0.961 . S
H2256 C2268 0.959 . S
H2257 C2271 0.929 . S
H2258 C2272 0.931 . S
H2259 C2274 0.930 . S
C2260 H2248 0.930 . S
C2260 C2261 1.399 . S
C2260 C2265 1.399 . S
C2261 C2260 1.399 . S
C2261 C2262 1.376 . S
C2262 H2249 0.930 . S
C2262 C2261 1.376 . S
C2262 C2263 1.388 . S
C2263 H2250 0.930 . S
C2263 C2262 1.388 . S
C2263 C2264 1.390 . S
C2264 C2263 1.390 . S
C2264 C2265 1.394 . S
C2264 C2270 1.465 . S
C2265 C2260 1.399 . S
C2265 C2264 1.394 . S
C2265 C2266 1.516 . S
C2266 C2265 1.516 . S
C2266 C2267 1.502 . S
C2266 C2268 1.561 . S
C2266 C2269 1.526 . S
C2267 H2251 0.959 . S
C2267 H2252 0.959 . S
C2267 H2253 0.961 . S
C2267 C2266 1.502 . S
C2268 H2254 0.960 . S
C2268 H2255 0.961 . S
C2268 H2256 0.959 . S
C2268 C2266 1.561 . S
C2269 C2266 1.526 . S
C2269 C2270 1.396 . S
C2269 C2274 1.390 . S
C2270 C2264 1.465 . S
C2270 C2269 1.396 . S
C2270 C2271 1.399 . S
C2271 H2257 0.929 . S
C2271 C2270 1.399 . S
C2271 C2272 1.385 . S
C2272 H2258 0.931 . S
C2272 C2271 1.385 . S
C2272 C2273 1.389 . S
C2273 C2272 1.389 . S
C2273 C2274 1.387 . S
C2274 H2259 0.930 . S
C2274 C2269 1.390 . S
C2274 C2273 1.387 . S
H2275 C2287 0.930 . S
H2276 C2289 0.930 . S
H2277 C2290 0.930 . S
H2278 C2294 0.959 . S
H2279 C2294 0.959 . S
H2280 C2294 0.961 . S
H2281 C2295 0.960 . S
H2282 C2295 0.961 . S
H2283 C2295 0.959 . S
H2284 C2298 0.929 . S
H2285 C2299 0.931 . S
H2286 C2301 0.930 . S
C2287 H2275 0.930 . S
C2287 C2288 1.399 . S
C2287 C2292 1.399 . S
C2288 C2287 1.399 . S
C2288 C2289 1.376 . S
C2289 H2276 0.930 . S
C2289 C2288 1.376 . S
C2289 C2290 1.388 . S
C2290 H2277 0.930 . S
C2290 C2289 1.388 . S
C2290 C2291 1.390 . S
C2291 C2290 1.390 . S
C2291 C2292 1.394 . S
C2291 C2297 1.465 . S
C2292 C2287 1.399 . S
C2292 C2291 1.394 . S
C2292 C2293 1.516 . S
C2293 C2292 1.516 . S
C2293 C2294 1.502 . S
C2293 C2295 1.561 . S
C2293 C2296 1.526 . S
C2294 H2278 0.959 . S
C2294 H2279 0.959 . S
C2294 H2280 0.961 . S
C2294 C2293 1.502 . S
C2295 H2281 0.960 . S
C2295 H2282 0.961 . S
C2295 H2283 0.959 . S
C2295 C2293 1.561 . S
C2296 C2293 1.526 . S
C2296 C2297 1.396 . S
C2296 C2301 1.390 . S
C2297 C2291 1.465 . S
C2297 C2296 1.396 . S
C2297 C2298 1.399 . S
C2298 H2284 0.929 . S
C2298 C2297 1.399 . S
C2298 C2299 1.385 . S
C2299 H2285 0.931 . S
C2299 C2298 1.385 . S
C2299 C2300 1.389 . S
C2300 C2299 1.389 . S
C2300 C2301 1.387 . S
C2301 H2286 0.930 . S
C2301 C2296 1.390 . S
C2301 C2300 1.387 . S
H2302 C2314 0.930 . S
H2303 C2316 0.946 . S
H2304 C2317 0.979 . S
H2305 C2321 0.959 . S
H2306 C2321 0.959 . S
H2307 C2321 0.961 . S
H2308 C2322 0.960 . S
H2309 C2322 0.961 . S
H2310 C2322 0.959 . S
H2311 C2325 0.929 1_655 S
H2312 C2326 0.924 1_554 S
H2313 C2328 0.930 . S
C2314 H2302 0.930 . S
C2314 C2315 1.399 . S
C2314 C2319 1.399 . S
C2315 C2314 1.399 . S
C2315 C2316 1.355 1_455 S
C2316 H2303 0.946 . S
C2316 C2315 1.355 1_655 S
C2316 C2317 1.381 . S
C2317 H2304 0.979 . S
C2317 C2316 1.381 . S
C2317 C2318 1.354 1_655 S
C2318 C2317 1.354 1_455 S
C2318 C2319 1.394 . S
C2318 C2324 1.465 . S
C2319 C2314 1.399 . S
C2319 C2318 1.394 . S
C2319 C2320 1.516 . S
C2320 C2319 1.516 . S
C2320 C2321 1.502 . S
C2320 C2322 1.561 . S
C2320 C2323 1.526 . S
C2321 H2305 0.959 . S
C2321 H2306 0.959 . S
C2321 H2307 0.961 . S
C2321 C2320 1.502 . S
C2322 H2308 0.960 . S
C2322 H2309 0.961 . S
C2322 H2310 0.959 . S
C2322 C2320 1.561 . S
C2323 C2320 1.526 . S
C2323 C2324 1.396 . S
C2323 C2328 1.390 . S
C2324 C2318 1.465 . S
C2324 C2323 1.396 . S
C2324 C2325 1.399 . S
C2325 H2311 0.929 1_455 S
C2325 C2324 1.399 . S
C2325 C2326 1.385 . S
C2326 H2312 0.924 1_556 S
C2326 C2325 1.385 . S
C2326 C2327 1.389 . S
C2327 C2326 1.389 . S
C2327 C2328 1.387 . S
C2328 H2313 0.930 . S
C2328 C2323 1.390 . S
C2328 C2327 1.387 . S
H2329 C2341 0.930 . S
H2330 C2343 0.930 . S
H2331 C2344 0.930 . S
H2332 C2348 0.959 . S
H2333 C2348 0.959 . S
H2334 C2348 0.961 1_455 S
H2335 C2349 0.960 . S
H2336 C2349 0.961 . S
H2337 C2349 0.959 . S
H2338 C2352 0.929 . S
H2339 C2353 0.931 . S
H2340 C2355 0.930 . S
C2341 H2329 0.930 . S
C2341 C2342 1.399 . S
C2341 C2346 1.399 1_455 S
C2342 C2341 1.399 . S
C2342 C2343 1.376 . S
C2343 H2330 0.930 . S
C2343 C2342 1.376 . S
C2343 C2344 1.388 1_455 S
C2344 H2331 0.930 . S
C2344 C2343 1.388 1_655 S
C2344 C2345 1.390 . S
C2345 C2344 1.390 . S
C2345 C2346 1.394 . S
C2345 C2351 1.465 . S
C2346 C2341 1.399 1_655 S
C2346 C2345 1.394 . S
C2346 C2347 1.516 . S
C2347 C2346 1.516 . S
C2347 C2348 1.502 . S
C2347 C2349 1.561 . S
C2347 C2350 1.526 . S
C2348 H2332 0.959 . S
C2348 H2333 0.959 . S
C2348 H2334 0.961 1_655 S
C2348 C2347 1.502 . S
C2349 H2335 0.960 . S
C2349 H2336 0.961 . S
C2349 H2337 0.959 . S
C2349 C2347 1.561 . S
C2350 C2347 1.526 . S
C2350 C2351 1.396 . S
C2350 C2355 1.390 . S
C2351 C2345 1.465 . S
C2351 C2350 1.396 . S
C2351 C2352 1.399 . S
C2352 H2338 0.929 . S
C2352 C2351 1.399 . S
C2352 C2353 1.385 . S
C2353 H2339 0.931 . S
C2353 C2352 1.385 . S
C2353 C2354 1.389 . S
C2354 C2353 1.389 . S
C2354 C2355 1.387 . S
C2355 H2340 0.930 . S
C2355 C2350 1.390 . S
C2355 C2354 1.387 . S
H2356 C2368 0.930 . S
H2357 C2370 0.930 . S
H2358 C2371 0.930 . S
H2359 C2375 0.959 . S
H2360 C2375 0.959 . S
H2361 C2375 0.961 . S
H2362 C2376 0.960 . S
H2363 C2376 0.961 . S
H2364 C2376 0.959 . S
H2365 C2379 0.929 . S
H2366 C2380 0.931 . S
H2367 C2382 0.930 . S
C2368 H2356 0.930 . S
C2368 C2369 1.399 . S
C2368 C2373 1.399 . S
C2369 C2368 1.399 . S
C2369 C2370 1.376 . S
C2370 H2357 0.930 . S
C2370 C2369 1.376 . S
C2370 C2371 1.388 . S
C2371 H2358 0.930 . S
C2371 C2370 1.388 . S
C2371 C2372 1.390 . S
C2372 C2371 1.390 . S
C2372 C2373 1.394 . S
C2372 C2378 1.465 . S
C2373 C2368 1.399 . S
C2373 C2372 1.394 . S
C2373 C2374 1.516 . S
C2374 C2373 1.516 . S
C2374 C2375 1.502 . S
C2374 C2376 1.561 . S
C2374 C2377 1.526 . S
C2375 H2359 0.959 . S
C2375 H2360 0.959 . S
C2375 H2361 0.961 . S
C2375 C2374 1.502 . S
C2376 H2362 0.960 . S
C2376 H2363 0.961 . S
C2376 H2364 0.959 . S
C2376 C2374 1.561 . S
C2377 C2374 1.526 . S
C2377 C2378 1.396 . S
C2377 C2382 1.390 . S
C2378 C2372 1.465 . S
C2378 C2377 1.396 . S
C2378 C2379 1.399 . S
C2379 H2365 0.929 . S
C2379 C2378 1.399 . S
C2379 C2380 1.385 . S
C2380 H2366 0.931 . S
C2380 C2379 1.385 . S
C2380 C2381 1.389 . S
C2381 C2380 1.389 . S
C2381 C2382 1.387 . S
C2382 H2367 0.930 . S
C2382 C2377 1.390 . S
C2382 C2381 1.387 . S
H2383 C2395 0.930 . S
H2384 C2397 0.930 . S
H2385 C2398 0.930 . S
H2386 C2402 0.959 . S
H2387 C2402 0.959 . S
H2388 C2402 0.957 1_455 S
H2389 C2403 0.960 . S
H2390 C2403 0.961 1_655 S
H2391 C2403 0.959 . S
H2392 C2406 0.929 . S
H2393 C2407 0.931 . S
H2394 C2409 0.930 . S
C2395 H2383 0.930 . S
C2395 C2396 1.399 . S
C2395 C2400 1.399 . S
C2396 C2395 1.399 . S
C2396 C2397 1.376 . S
C2397 H2384 0.930 . S
C2397 C2396 1.376 . S
C2397 C2398 1.388 . S
C2398 H2385 0.930 . S
C2398 C2397 1.388 . S
C2398 C2399 1.390 . S
C2399 C2398 1.390 . S
C2399 C2400 1.394 . S
C2399 C2405 1.465 1_455 S
C2400 C2395 1.399 . S
C2400 C2399 1.394 . S
C2400 C2401 1.516 1_455 S
C2401 C2400 1.516 1_655 S
C2401 C2402 1.502 . S
C2401 C2403 1.561 1_655 S
C2401 C2404 1.526 . S
C2402 H2386 0.959 . S
C2402 H2387 0.959 . S
C2402 H2388 0.957 1_655 S
C2402 C2401 1.502 . S
C2403 H2389 0.960 . S
C2403 H2390 0.961 1_455 S
C2403 H2391 0.959 . S
C2403 C2401 1.561 1_455 S
C2404 C2401 1.526 . S
C2404 C2405 1.396 . S
C2404 C2409 1.390 . S
C2405 C2399 1.465 1_655 S
C2405 C2404 1.396 . S
C2405 C2406 1.399 . S
C2406 H2392 0.929 . S
C2406 C2405 1.399 . S
C2406 C2407 1.385 . S
C2407 H2393 0.931 . S
C2407 C2406 1.385 . S
C2407 C2408 1.389 . S
C2408 C2407 1.389 . S
C2408 C2409 1.387 . S
C2409 H2394 0.930 . S
C2409 C2404 1.390 . S
C2409 C2408 1.387 . S
H2410 C2422 0.930 . S
H2411 C2424 0.930 . S
H2412 C2425 0.930 1_655 S
H2413 C2429 0.959 . S
H2414 C2429 0.959 . S
H2415 C2429 0.961 . S
H2416 C2430 0.960 1_655 S
H2417 C2430 0.961 . S
H2418 C2430 0.959 1_655 S
H2419 C2433 0.929 . S
H2420 C2434 0.931 . S
H2421 C2436 0.930 . S
C2422 H2410 0.930 . S
C2422 C2423 1.399 1_455 S
C2422 C2427 1.399 . S
C2423 C2422 1.399 1_655 S
C2423 C2424 1.376 . S
C2424 H2411 0.930 . S
C2424 C2423 1.376 . S
C2424 C2425 1.389 1_655 S
C2425 H2412 0.930 1_455 S
C2425 C2424 1.389 1_455 S
C2425 C2426 1.389 . S
C2426 C2425 1.389 . S
C2426 C2427 1.394 . S
C2426 C2432 1.465 . S
C2427 C2422 1.399 . S
C2427 C2426 1.394 . S
C2427 C2428 1.516 . S
C2428 C2427 1.516 . S
C2428 C2429 1.502 . S
C2428 C2430 1.561 . S
C2428 C2431 1.526 . S
C2429 H2413 0.959 . S
C2429 H2414 0.959 . S
C2429 H2415 0.961 . S
C2429 C2428 1.502 . S
C2430 H2416 0.960 1_455 S
C2430 H2417 0.961 . S
C2430 H2418 0.959 1_455 S
C2430 C2428 1.561 . S
C2431 C2428 1.526 . S
C2431 C2432 1.396 . S
C2431 C2436 1.390 . S
C2432 C2426 1.465 . S
C2432 C2431 1.396 . S
C2432 C2433 1.399 . S
C2433 H2419 0.929 . S
C2433 C2432 1.399 . S
C2433 C2434 1.385 . S
C2434 H2420 0.931 . S
C2434 C2433 1.385 . S
C2434 C2435 1.389 . S
C2435 C2434 1.389 . S
C2435 C2436 1.387 . S
C2436 H2421 0.930 . S
C2436 C2431 1.390 . S
C2436 C2435 1.387 . S
H2437 C2449 0.930 . S
H2438 C2451 0.930 . S
H2439 C2452 0.930 . S
H2440 C2456 0.959 . S
H2441 C2456 0.959 . S
H2442 C2456 0.961 . S
H2443 C2457 0.960 . S
H2444 C2457 0.961 . S
H2445 C2457 0.959 . S
H2446 C2460 0.929 . S
H2447 C2461 0.931 . S
H2448 C2463 0.930 . S
C2449 H2437 0.930 . S
C2449 C2450 1.399 . S
C2449 C2454 1.399 . S
C2450 C2449 1.399 . S
C2450 C2451 1.376 . S
C2451 H2438 0.930 . S
C2451 C2450 1.376 . S
C2451 C2452 1.388 . S
C2452 H2439 0.930 . S
C2452 C2451 1.388 . S
C2452 C2453 1.390 . S
C2453 C2452 1.390 . S
C2453 C2454 1.394 . S
C2453 C2459 1.465 . S
C2454 C2449 1.399 . S
C2454 C2453 1.394 . S
C2454 C2455 1.516 . S
C2455 C2454 1.516 . S
C2455 C2456 1.502 . S
C2455 C2457 1.561 . S
C2455 C2458 1.526 . S
C2456 H2440 0.959 . S
C2456 H2441 0.959 . S
C2456 H2442 0.961 . S
C2456 C2455 1.502 . S
C2457 H2443 0.960 . S
C2457 H2444 0.961 . S
C2457 H2445 0.959 . S
C2457 C2455 1.561 . S
C2458 C2455 1.526 . S
C2458 C2459 1.396 . S
C2458 C2463 1.390 . S
C2459 C2453 1.465 . S
C2459 C2458 1.396 . S
C2459 C2460 1.399 . S
C2460 H2446 0.929 . S
C2460 C2459 1.399 . S
C2460 C2461 1.385 . S
C2461 H2447 0.931 . S
C2461 C2460 1.385 . S
C2461 C2462 1.389 . S
C2462 C2461 1.389 . S
C2462 C2463 1.387 . S
C2463 H2448 0.930 . S
C2463 C2458 1.390 . S
C2463 C2462 1.387 . S
H2464 C2476 0.930 . S
H2465 C2478 0.930 . S
H2466 C2479 0.930 . S
H2467 C2483 0.959 . S
H2468 C2483 0.959 . S
H2469 C2483 0.961 . S
H2470 C2484 0.960 . S
H2471 C2484 0.961 . S
H2472 C2484 0.959 . S
H2473 C2487 0.929 . S
H2474 C2488 0.931 . S
H2475 C2490 0.930 . S
C2476 H2464 0.930 . S
C2476 C2477 1.399 . S
C2476 C2481 1.399 . S
C2477 C2476 1.399 . S
C2477 C2478 1.376 . S
C2478 H2465 0.930 . S
C2478 C2477 1.376 . S
C2478 C2479 1.388 . S
C2479 H2466 0.930 . S
C2479 C2478 1.388 . S
C2479 C2480 1.390 . S
C2480 C2479 1.390 . S
C2480 C2481 1.394 . S
C2480 C2486 1.465 . S
C2481 C2476 1.399 . S
C2481 C2480 1.394 . S
C2481 C2482 1.516 . S
C2482 C2481 1.516 . S
C2482 C2483 1.502 . S
C2482 C2484 1.561 . S
C2482 C2485 1.526 . S
C2483 H2467 0.959 . S
C2483 H2468 0.959 . S
C2483 H2469 0.961 . S
C2483 C2482 1.502 . S
C2484 H2470 0.960 . S
C2484 H2471 0.961 . S
C2484 H2472 0.959 . S
C2484 C2482 1.561 . S
C2485 C2482 1.526 . S
C2485 C2486 1.396 . S
C2485 C2490 1.390 . S
C2486 C2480 1.465 . S
C2486 C2485 1.396 . S
C2486 C2487 1.399 . S
C2487 H2473 0.929 . S
C2487 C2486 1.399 . S
C2487 C2488 1.385 . S
C2488 H2474 0.931 . S
C2488 C2487 1.385 . S
C2488 C2489 1.389 . S
C2489 C2488 1.389 . S
C2489 C2490 1.387 . S
C2490 H2475 0.930 . S
C2490 C2485 1.390 . S
C2490 C2489 1.387 . S
H2491 C2503 0.930 . S
H2492 C2505 0.930 . S
H2493 C2506 0.930 . S
H2494 C2510 0.959 . S
H2495 C2510 0.959 . S
H2496 C2510 0.961 . S
H2497 C2511 0.960 . S
H2498 C2511 0.961 . S
H2499 C2511 0.959 . S
H2500 C2514 0.929 . S
H2501 C2515 0.931 . S
H2502 C2517 0.930 . S
C2503 H2491 0.930 . S
C2503 C2504 1.399 . S
C2503 C2508 1.399 . S
C2504 C2503 1.399 . S
C2504 C2505 1.376 . S
C2505 H2492 0.930 . S
C2505 C2504 1.376 . S
C2505 C2506 1.388 . S
C2506 H2493 0.930 . S
C2506 C2505 1.388 . S
C2506 C2507 1.390 . S
C2507 C2506 1.390 . S
C2507 C2508 1.394 . S
C2507 C2513 1.465 . S
C2508 C2503 1.399 . S
C2508 C2507 1.394 . S
C2508 C2509 1.516 . S
C2509 C2508 1.516 . S
C2509 C2510 1.502 . S
C2509 C2511 1.561 . S
C2509 C2512 1.526 . S
C2510 H2494 0.959 . S
C2510 H2495 0.959 . S
C2510 H2496 0.961 . S
C2510 C2509 1.502 . S
C2511 H2497 0.960 . S
C2511 H2498 0.961 . S
C2511 H2499 0.959 . S
C2511 C2509 1.561 . S
C2512 C2509 1.526 . S
C2512 C2513 1.396 . S
C2512 C2517 1.390 . S
C2513 C2507 1.465 . S
C2513 C2512 1.396 . S
C2513 C2514 1.399 . S
C2514 H2500 0.929 . S
C2514 C2513 1.399 . S
C2514 C2515 1.385 . S
C2515 H2501 0.931 . S
C2515 C2514 1.385 . S
C2515 C2516 1.389 . S
C2516 C2515 1.389 . S
C2516 C2517 1.387 . S
C2517 H2502 0.930 . S
C2517 C2512 1.390 . S
C2517 C2516 1.387 . S
H2518 C2530 0.930 . S
H2519 C2532 0.930 . S
H2520 C2533 0.930 . S
H2521 C2537 0.959 . S
H2522 C2537 0.959 . S
H2523 C2537 0.961 . S
H2524 C2538 0.960 . S
H2525 C2538 0.961 . S
H2526 C2538 0.959 . S
H2527 C2541 0.929 . S
H2528 C2542 0.931 . S
H2529 C2544 0.930 . S
C2530 H2518 0.930 . S
C2530 C2531 1.399 . S
C2530 C2535 1.399 . S
C2531 C2530 1.399 . S
C2531 C2532 1.376 . S
C2532 H2519 0.930 . S
C2532 C2531 1.376 . S
C2532 C2533 1.388 . S
C2533 H2520 0.930 . S
C2533 C2532 1.388 . S
C2533 C2534 1.390 . S
C2534 C2533 1.390 . S
C2534 C2535 1.394 . S
C2534 C2540 1.465 . S
C2535 C2530 1.399 . S
C2535 C2534 1.394 . S
C2535 C2536 1.516 . S
C2536 C2535 1.516 . S
C2536 C2537 1.502 . S
C2536 C2538 1.561 . S
C2536 C2539 1.526 . S
C2537 H2521 0.959 . S
C2537 H2522 0.959 . S
C2537 H2523 0.961 . S
C2537 C2536 1.502 . S
C2538 H2524 0.960 . S
C2538 H2525 0.961 . S
C2538 H2526 0.959 . S
C2538 C2536 1.561 . S
C2539 C2536 1.526 . S
C2539 C2540 1.396 . S
C2539 C2544 1.390 . S
C2540 C2534 1.465 . S
C2540 C2539 1.396 . S
C2540 C2541 1.399 . S
C2541 H2527 0.929 . S
C2541 C2540 1.399 . S
C2541 C2542 1.385 . S
C2542 H2528 0.931 . S
C2542 C2541 1.385 . S
C2542 C2543 1.389 . S
C2543 C2542 1.389 . S
C2543 C2544 1.387 . S
C2544 H2529 0.930 . S
C2544 C2539 1.390 . S
C2544 C2543 1.387 . S
H2545 C2557 0.930 . S
H2546 C2559 0.930 . S
H2547 C2560 0.930 . S
H2548 C2564 0.959 . S
H2549 C2564 0.959 . S
H2550 C2564 0.961 . S
H2551 C2565 0.960 . S
H2552 C2565 0.961 . S
H2553 C2565 0.959 . S
H2554 C2568 0.929 . S
H2555 C2569 0.931 . S
H2556 C2571 0.930 . S
C2557 H2545 0.930 . S
C2557 C2558 1.399 . S
C2557 C2562 1.399 . S
C2558 C2557 1.399 . S
C2558 C2559 1.376 . S
C2559 H2546 0.930 . S
C2559 C2558 1.376 . S
C2559 C2560 1.388 . S
C2560 H2547 0.930 . S
C2560 C2559 1.388 . S
C2560 C2561 1.390 . S
C2561 C2560 1.390 . S
C2561 C2562 1.394 . S
C2561 C2567 1.465 . S
C2562 C2557 1.399 . S
C2562 C2561 1.394 . S
C2562 C2563 1.516 . S
C2563 C2562 1.516 . S
C2563 C2564 1.502 . S
C2563 C2565 1.561 . S
C2563 C2566 1.526 . S
C2564 H2548 0.959 . S
C2564 H2549 0.959 . S
C2564 H2550 0.961 . S
C2564 C2563 1.502 . S
C2565 H2551 0.960 . S
C2565 H2552 0.961 . S
C2565 H2553 0.959 . S
C2565 C2563 1.561 . S
C2566 C2563 1.526 . S
C2566 C2567 1.396 . S
C2566 C2571 1.390 . S
C2567 C2561 1.465 . S
C2567 C2566 1.396 . S
C2567 C2568 1.399 . S
C2568 H2554 0.929 . S
C2568 C2567 1.399 . S
C2568 C2569 1.385 . S
C2569 H2555 0.931 . S
C2569 C2568 1.385 . S
C2569 C2570 1.389 . S
C2570 C2569 1.389 . S
C2570 C2571 1.387 . S
C2571 H2556 0.930 . S
C2571 C2566 1.390 . S
C2571 C2570 1.387 . S
H2572 C2584 0.930 . S
H2573 C2586 0.930 . S
H2574 C2587 0.930 . S
H2575 C2591 0.959 . S
H2576 C2591 0.959 . S
H2577 C2591 0.961 . S
H2578 C2592 0.960 . S
H2579 C2592 0.961 . S
H2580 C2592 0.959 . S
H2581 C2595 0.929 . S
H2582 C2596 0.931 . S
H2583 C2598 0.930 . S
C2584 H2572 0.930 . S
C2584 C2585 1.399 . S
C2584 C2589 1.399 . S
C2585 C2584 1.399 . S
C2585 C2586 1.376 . S
C2586 H2573 0.930 . S
C2586 C2585 1.376 . S
C2586 C2587 1.388 . S
C2587 H2574 0.930 . S
C2587 C2586 1.388 . S
C2587 C2588 1.390 . S
C2588 C2587 1.390 . S
C2588 C2589 1.394 . S
C2588 C2594 1.465 . S
C2589 C2584 1.399 . S
C2589 C2588 1.394 . S
C2589 C2590 1.516 . S
C2590 C2589 1.516 . S
C2590 C2591 1.502 . S
C2590 C2592 1.561 . S
C2590 C2593 1.526 . S
C2591 H2575 0.959 . S
C2591 H2576 0.959 . S
C2591 H2577 0.961 . S
C2591 C2590 1.502 . S
C2592 H2578 0.960 . S
C2592 H2579 0.961 . S
C2592 H2580 0.959 . S
C2592 C2590 1.561 . S
C2593 C2590 1.526 . S
C2593 C2594 1.396 . S
C2593 C2598 1.390 . S
C2594 C2588 1.465 . S
C2594 C2593 1.396 . S
C2594 C2595 1.399 . S
C2595 H2581 0.929 . S
C2595 C2594 1.399 . S
C2595 C2596 1.385 . S
C2596 H2582 0.931 . S
C2596 C2595 1.385 . S
C2596 C2597 1.389 . S
C2597 C2596 1.389 . S
C2597 C2598 1.387 . S
C2598 H2583 0.930 . S
C2598 C2593 1.390 . S
C2598 C2597 1.387 . S
H2599 C2611 0.930 . S
H2600 C2613 0.930 . S
H2601 C2614 0.930 . S
H2602 C2618 0.959 . S
H2603 C2618 0.959 . S
H2604 C2618 0.961 . S
H2605 C2619 0.960 . S
H2606 C2619 0.961 . S
H2607 C2619 0.959 . S
H2608 C2622 0.929 . S
H2609 C2623 0.931 . S
H2610 C2625 0.930 . S
C2611 H2599 0.930 . S
C2611 C2612 1.399 . S
C2611 C2616 1.399 . S
C2612 C2611 1.399 . S
C2612 C2613 1.376 . S
C2613 H2600 0.930 . S
C2613 C2612 1.376 . S
C2613 C2614 1.388 . S
C2614 H2601 0.930 . S
C2614 C2613 1.388 . S
C2614 C2615 1.390 . S
C2615 C2614 1.390 . S
C2615 C2616 1.394 . S
C2615 C2621 1.465 . S
C2616 C2611 1.399 . S
C2616 C2615 1.394 . S
C2616 C2617 1.516 . S
C2617 C2616 1.516 . S
C2617 C2618 1.502 . S
C2617 C2619 1.561 . S
C2617 C2620 1.526 . S
C2618 H2602 0.959 . S
C2618 H2603 0.959 . S
C2618 H2604 0.961 . S
C2618 C2617 1.502 . S
C2619 H2605 0.960 . S
C2619 H2606 0.961 . S
C2619 H2607 0.959 . S
C2619 C2617 1.561 . S
C2620 C2617 1.526 . S
C2620 C2621 1.396 . S
C2620 C2625 1.390 . S
C2621 C2615 1.465 . S
C2621 C2620 1.396 . S
C2621 C2622 1.399 . S
C2622 H2608 0.929 . S
C2622 C2621 1.399 . S
C2622 C2623 1.385 . S
C2623 H2609 0.931 . S
C2623 C2622 1.385 . S
C2623 C2624 1.389 . S
C2624 C2623 1.389 . S
C2624 C2625 1.387 . S
C2625 H2610 0.930 . S
C2625 C2620 1.390 . S
C2625 C2624 1.387 . S
H2626 C2638 0.930 . S
H2627 C2640 0.930 . S
H2628 C2641 0.930 . S
H2629 C2645 0.959 . S
H2630 C2645 0.959 . S
H2631 C2645 0.961 . S
H2632 C2646 0.960 . S
H2633 C2646 0.961 . S
H2634 C2646 0.959 . S
H2635 C2649 0.929 . S
H2636 C2650 0.931 . S
H2637 C2652 0.930 . S
C2638 H2626 0.930 . S
C2638 C2639 1.399 . S
C2638 C2643 1.399 . S
C2639 C2638 1.399 . S
C2639 C2640 1.376 . S
C2640 H2627 0.930 . S
C2640 C2639 1.376 . S
C2640 C2641 1.388 . S
C2641 H2628 0.930 . S
C2641 C2640 1.388 . S
C2641 C2642 1.390 . S
C2642 C2641 1.390 . S
C2642 C2643 1.394 . S
C2642 C2648 1.465 . S
C2643 C2638 1.399 . S
C2643 C2642 1.394 . S
C2643 C2644 1.516 . S
C2644 C2643 1.516 . S
C2644 C2645 1.502 . S
C2644 C2646 1.561 . S
C2644 C2647 1.526 . S
C2645 H2629 0.959 . S
C2645 H2630 0.959 . S
C2645 H2631 0.961 . S
C2645 C2644 1.502 . S
C2646 H2632 0.960 . S
C2646 H2633 0.961 . S
C2646 H2634 0.959 . S
C2646 C2644 1.561 . S
C2647 C2644 1.526 . S
C2647 C2648 1.396 . S
C2647 C2652 1.390 . S
C2648 C2642 1.465 . S
C2648 C2647 1.396 . S
C2648 C2649 1.399 . S
C2649 H2635 0.929 . S
C2649 C2648 1.399 . S
C2649 C2650 1.385 . S
C2650 H2636 0.931 . S
C2650 C2649 1.385 . S
C2650 C2651 1.389 . S
C2651 C2650 1.389 . S
C2651 C2652 1.387 . S
C2652 H2637 0.930 . S
C2652 C2647 1.390 . S
C2652 C2651 1.387 . S
H2653 C2665 0.930 . S
H2654 C2667 0.930 . S
H2655 C2668 0.930 . S
H2656 C2672 0.959 . S
H2657 C2672 0.959 . S
H2658 C2672 0.961 . S
H2659 C2673 0.960 . S
H2660 C2673 0.961 . S
H2661 C2673 0.959 . S
H2662 C2676 0.929 . S
H2663 C2677 0.931 . S
H2664 C2679 0.930 . S
C2665 H2653 0.930 . S
C2665 C2666 1.399 . S
C2665 C2670 1.399 . S
C2666 C2665 1.399 . S
C2666 C2667 1.376 . S
C2667 H2654 0.930 . S
C2667 C2666 1.376 . S
C2667 C2668 1.388 . S
C2668 H2655 0.930 . S
C2668 C2667 1.388 . S
C2668 C2669 1.390 . S
C2669 C2668 1.390 . S
C2669 C2670 1.394 . S
C2669 C2675 1.465 . S
C2670 C2665 1.399 . S
C2670 C2669 1.394 . S
C2670 C2671 1.516 . S
C2671 C2670 1.516 . S
C2671 C2672 1.502 . S
C2671 C2673 1.561 . S
C2671 C2674 1.526 . S
C2672 H2656 0.959 . S
C2672 H2657 0.959 . S
C2672 H2658 0.961 . S
C2672 C2671 1.502 . S
C2673 H2659 0.960 . S
C2673 H2660 0.961 . S
C2673 H2661 0.959 . S
C2673 C2671 1.561 . S
C2674 C2671 1.526 . S
C2674 C2675 1.396 . S
C2674 C2679 1.390 . S
C2675 C2669 1.465 . S
C2675 C2674 1.396 . S
C2675 C2676 1.399 . S
C2676 H2662 0.929 . S
C2676 C2675 1.399 . S
C2676 C2677 1.385 . S
C2677 H2663 0.931 . S
C2677 C2676 1.385 . S
C2677 C2678 1.389 . S
C2678 C2677 1.389 . S
C2678 C2679 1.387 . S
C2679 H2664 0.930 . S
C2679 C2674 1.390 . S
C2679 C2678 1.387 . S
H2680 C2692 0.930 . S
H2681 C2694 0.930 . S
H2682 C2695 0.930 . S
H2683 C2699 0.959 . S
H2684 C2699 0.959 . S
H2685 C2699 0.961 . S
H2686 C2700 0.960 . S
H2687 C2700 0.961 . S
H2688 C2700 0.959 . S
H2689 C2703 0.929 . S
H2690 C2704 0.931 . S
H2691 C2706 0.930 . S
C2692 H2680 0.930 . S
C2692 C2693 1.399 . S
C2692 C2697 1.399 . S
C2693 C2692 1.399 . S
C2693 C2694 1.376 . S
C2694 H2681 0.930 . S
C2694 C2693 1.376 . S
C2694 C2695 1.388 . S
C2695 H2682 0.930 . S
C2695 C2694 1.388 . S
C2695 C2696 1.390 . S
C2696 C2695 1.390 . S
C2696 C2697 1.394 . S
C2696 C2702 1.465 . S
C2697 C2692 1.399 . S
C2697 C2696 1.394 . S
C2697 C2698 1.516 . S
C2698 C2697 1.516 . S
C2698 C2699 1.502 . S
C2698 C2700 1.561 . S
C2698 C2701 1.526 . S
C2699 H2683 0.959 . S
C2699 H2684 0.959 . S
C2699 H2685 0.961 . S
C2699 C2698 1.502 . S
C2700 H2686 0.960 . S
C2700 H2687 0.961 . S
C2700 H2688 0.959 . S
C2700 C2698 1.561 . S
C2701 C2698 1.526 . S
C2701 C2702 1.396 . S
C2701 C2706 1.390 . S
C2702 C2696 1.465 . S
C2702 C2701 1.396 . S
C2702 C2703 1.399 . S
C2703 H2689 0.929 . S
C2703 C2702 1.399 . S
C2703 C2704 1.385 . S
C2704 H2690 0.931 . S
C2704 C2703 1.385 . S
C2704 C2705 1.389 . S
C2705 C2704 1.389 . S
C2705 C2706 1.387 . S
C2706 H2691 0.930 . S
C2706 C2701 1.390 . S
C2706 C2705 1.387 . S
H2707 C2719 0.930 . S
H2708 C2721 0.930 . S
H2709 C2722 0.930 . S
H2710 C2726 0.959 . S
H2711 C2726 0.959 . S
H2712 C2726 0.961 . S
H2713 C2727 0.960 . S
H2714 C2727 0.961 . S
H2715 C2727 0.959 . S
H2716 C2730 0.929 . S
H2717 C2731 0.931 . S
H2718 C2733 0.930 . S
C2719 H2707 0.930 . S
C2719 C2720 1.399 . S
C2719 C2724 1.399 . S
C2720 C2719 1.399 . S
C2720 C2721 1.376 . S
C2721 H2708 0.930 . S
C2721 C2720 1.376 . S
C2721 C2722 1.388 . S
C2722 H2709 0.930 . S
C2722 C2721 1.388 . S
C2722 C2723 1.390 . S
C2723 C2722 1.390 . S
C2723 C2724 1.394 . S
C2723 C2729 1.465 . S
C2724 C2719 1.399 . S
C2724 C2723 1.394 . S
C2724 C2725 1.516 . S
C2725 C2724 1.516 . S
C2725 C2726 1.502 . S
C2725 C2727 1.561 . S
C2725 C2728 1.526 . S
C2726 H2710 0.959 . S
C2726 H2711 0.959 . S
C2726 H2712 0.961 . S
C2726 C2725 1.502 . S
C2727 H2713 0.960 . S
C2727 H2714 0.961 . S
C2727 H2715 0.959 . S
C2727 C2725 1.561 . S
C2728 C2725 1.526 . S
C2728 C2729 1.396 . S
C2728 C2733 1.390 . S
C2729 C2723 1.465 . S
C2729 C2728 1.396 . S
C2729 C2730 1.399 . S
C2730 H2716 0.929 . S
C2730 C2729 1.399 . S
C2730 C2731 1.385 . S
C2731 H2717 0.931 . S
C2731 C2730 1.385 . S
C2731 C2732 1.389 . S
C2732 C2731 1.389 . S
C2732 C2733 1.387 . S
C2733 H2718 0.930 . S
C2733 C2728 1.390 . S
C2733 C2732 1.387 . S
H2734 C2746 0.930 . S
H2735 C2748 0.930 . S
H2736 C2749 0.930 . S
H2737 C2753 0.959 . S
H2738 C2753 0.959 . S
H2739 C2753 0.961 . S
H2740 C2754 0.960 . S
H2741 C2754 0.961 . S
H2742 C2754 0.959 . S
H2743 C2757 0.929 . S
H2744 C2758 0.931 . S
H2745 C2760 0.930 . S
C2746 H2734 0.930 . S
C2746 C2747 1.399 . S
C2746 C2751 1.399 . S
C2747 C2746 1.399 . S
C2747 C2748 1.376 . S
C2748 H2735 0.930 . S
C2748 C2747 1.376 . S
C2748 C2749 1.388 . S
C2749 H2736 0.930 . S
C2749 C2748 1.388 . S
C2749 C2750 1.390 . S
C2750 C2749 1.390 . S
C2750 C2751 1.394 . S
C2750 C2756 1.465 . S
C2751 C2746 1.399 . S
C2751 C2750 1.394 . S
C2751 C2752 1.516 . S
C2752 C2751 1.516 . S
C2752 C2753 1.502 . S
C2752 C2754 1.561 . S
C2752 C2755 1.526 . S
C2753 H2737 0.959 . S
C2753 H2738 0.959 . S
C2753 H2739 0.961 . S
C2753 C2752 1.502 . S
C2754 H2740 0.960 . S
C2754 H2741 0.961 . S
C2754 H2742 0.959 . S
C2754 C2752 1.561 . S
C2755 C2752 1.526 . S
C2755 C2756 1.396 . S
C2755 C2760 1.390 . S
C2756 C2750 1.465 . S
C2756 C2755 1.396 . S
C2756 C2757 1.399 . S
C2757 H2743 0.929 . S
C2757 C2756 1.399 . S
C2757 C2758 1.385 . S
C2758 H2744 0.931 . S
C2758 C2757 1.385 . S
C2758 C2759 1.389 . S
C2759 C2758 1.389 . S
C2759 C2760 1.387 . S
C2760 H2745 0.930 . S
C2760 C2755 1.390 . S
C2760 C2759 1.387 . S
H2761 C2773 0.938 . S
H2762 C2775 0.930 1_545 S
H2763 C2776 0.930 . S
H2764 C2780 0.959 . S
H2765 C2780 0.959 . S
H2766 C2780 0.961 . S
H2767 C2781 0.960 . S
H2768 C2781 0.961 . S
H2769 C2781 0.959 1_545 S
H2770 C2784 0.929 . S
H2771 C2785 0.931 . S
H2772 C2787 0.967 . S
C2773 H2761 0.938 . S
C2773 C2774 1.391 1_556 S
C2773 C2778 1.399 1_556 S
C2774 C2773 1.391 1_554 S
C2774 C2775 1.376 . S
C2775 H2762 0.930 1_565 S
C2775 C2774 1.376 . S
C2775 C2776 1.388 1_565 S
C2776 H2763 0.930 . S
C2776 C2775 1.388 1_545 S
C2776 C2777 1.390 1_545 S
C2777 C2776 1.390 1_565 S
C2777 C2778 1.394 . S
C2777 C2783 1.465 1_565 S
C2778 C2773 1.399 1_554 S
C2778 C2777 1.394 . S
C2778 C2779 1.516 1_554 S
C2779 C2778 1.516 1_556 S
C2779 C2780 1.502 . S
C2779 C2781 1.561 . S
C2779 C2782 1.526 1_556 S
C2780 H2764 0.959 . S
C2780 H2765 0.959 . S
C2780 H2766 0.961 . S
C2780 C2779 1.502 . S
C2781 H2767 0.960 . S
C2781 H2768 0.961 . S
C2781 H2769 0.959 1_565 S
C2781 C2779 1.561 . S
C2782 C2779 1.526 1_554 S
C2782 C2783 1.396 1_565 S
C2782 C2787 1.378 1_554 S
C2783 C2777 1.465 1_545 S
C2783 C2782 1.396 1_545 S
C2783 C2784 1.399 . S
C2784 H2770 0.929 . S
C2784 C2783 1.399 . S
C2784 C2785 1.385 . S
C2785 H2771 0.931 . S
C2785 C2784 1.385 . S
C2785 C2786 1.389 . S
C2786 C2785 1.389 . S
C2786 C2787 1.362 1_544 S
C2787 H2772 0.967 . S
C2787 C2782 1.378 1_556 S
C2787 C2786 1.362 1_566 S
H2788 C2800 0.930 . S
H2789 C2802 0.930 . S
H2790 C2803 0.930 . S
H2791 C2807 0.959 . S
H2792 C2807 0.959 . S
H2793 C2807 0.961 . S
H2794 C2808 0.960 . S
H2795 C2808 0.961 . S
H2796 C2808 0.959 . S
H2797 C2811 0.929 . S
H2798 C2812 0.931 . S
H2799 C2814 0.930 . S
C2800 H2788 0.930 . S
C2800 C2801 1.399 . S
C2800 C2805 1.399 . S
C2801 C2800 1.399 . S
C2801 C2802 1.376 . S
C2802 H2789 0.930 . S
C2802 C2801 1.376 . S
C2802 C2803 1.388 . S
C2803 H2790 0.930 . S
C2803 C2802 1.388 . S
C2803 C2804 1.390 . S
C2804 C2803 1.390 . S
C2804 C2805 1.394 . S
C2804 C2810 1.465 . S
C2805 C2800 1.399 . S
C2805 C2804 1.394 . S
C2805 C2806 1.516 . S
C2806 C2805 1.516 . S
C2806 C2807 1.502 . S
C2806 C2808 1.561 . S
C2806 C2809 1.526 . S
C2807 H2791 0.959 . S
C2807 H2792 0.959 . S
C2807 H2793 0.961 . S
C2807 C2806 1.502 . S
C2808 H2794 0.960 . S
C2808 H2795 0.961 . S
C2808 H2796 0.959 . S
C2808 C2806 1.561 . S
C2809 C2806 1.526 . S
C2809 C2810 1.396 . S
C2809 C2814 1.390 . S
C2810 C2804 1.465 . S
C2810 C2809 1.396 . S
C2810 C2811 1.399 . S
C2811 H2797 0.929 . S
C2811 C2810 1.399 . S
C2811 C2812 1.385 . S
C2812 H2798 0.931 . S
C2812 C2811 1.385 . S
C2812 C2813 1.389 . S
C2813 C2812 1.389 . S
C2813 C2814 1.387 . S
C2814 H2799 0.930 . S
C2814 C2809 1.390 . S
C2814 C2813 1.387 . S
H2815 C2827 0.930 . S
H2816 C2829 0.930 . S
H2817 C2830 0.930 . S
H2818 C2834 0.959 1_554 S
H2819 C2834 0.959 . S
H2820 C2834 0.961 . S
H2821 C2835 0.960 . S
H2822 C2835 0.961 . S
H2823 C2835 0.959 . S
H2824 C2838 0.929 . S
H2825 C2839 0.931 . S
H2826 C2841 0.930 . S
C2827 H2815 0.930 . S
C2827 C2828 1.399 1_556 S
C2827 C2832 1.399 1_556 S
C2828 C2827 1.399 1_554 S
C2828 C2829 1.376 . S
C2829 H2816 0.930 . S
C2829 C2828 1.376 . S
C2829 C2830 1.388 . S
C2830 H2817 0.930 . S
C2830 C2829 1.388 . S
C2830 C2831 1.390 . S
C2831 C2830 1.390 . S
C2831 C2832 1.394 . S
C2831 C2837 1.465 . S
C2832 C2827 1.399 1_554 S
C2832 C2831 1.394 . S
C2832 C2833 1.516 1_554 S
C2833 C2832 1.516 1_556 S
C2833 C2834 1.502 . S
C2833 C2835 1.561 . S
C2833 C2836 1.526 1_556 S
C2834 H2818 0.959 1_556 S
C2834 H2819 0.959 . S
C2834 H2820 0.961 . S
C2834 C2833 1.502 . S
C2835 H2821 0.960 . S
C2835 H2822 0.961 . S
C2835 H2823 0.959 . S
C2835 C2833 1.561 . S
C2836 C2833 1.526 1_554 S
C2836 C2837 1.396 . S
C2836 C2841 1.390 . S
C2837 C2831 1.465 . S
C2837 C2836 1.396 . S
C2837 C2838 1.399 . S
C2838 H2824 0.929 . S
C2838 C2837 1.399 . S
C2838 C2839 1.385 . S
C2839 H2825 0.931 . S
C2839 C2838 1.385 . S
C2839 C2840 1.389 . S
C2840 C2839 1.389 . S
C2840 C2841 1.387 . S
C2841 H2826 0.930 . S
C2841 C2836 1.390 . S
C2841 C2840 1.387 . S
H2842 C2854 0.930 . S
H2843 C2856 0.930 . S
H2844 C2857 0.930 . S
H2845 C2861 0.959 . S
H2846 C2861 0.959 . S
H2847 C2861 0.961 . S
H2848 C2862 0.960 . S
H2849 C2862 0.961 . S
H2850 C2862 0.959 . S
H2851 C2865 0.929 . S
H2852 C2866 0.931 . S
H2853 C2868 0.930 . S
C2854 H2842 0.930 . S
C2854 C2855 1.399 . S
C2854 C2859 1.399 . S
C2855 C2854 1.399 . S
C2855 C2856 1.376 . S
C2856 H2843 0.930 . S
C2856 C2855 1.376 . S
C2856 C2857 1.388 . S
C2857 H2844 0.930 . S
C2857 C2856 1.388 . S
C2857 C2858 1.390 . S
C2858 C2857 1.390 . S
C2858 C2859 1.394 . S
C2858 C2864 1.465 . S
C2859 C2854 1.399 . S
C2859 C2858 1.394 . S
C2859 C2860 1.516 . S
C2860 C2859 1.516 . S
C2860 C2861 1.502 . S
C2860 C2862 1.561 . S
C2860 C2863 1.526 . S
C2861 H2845 0.959 . S
C2861 H2846 0.959 . S
C2861 H2847 0.961 . S
C2861 C2860 1.502 . S
C2862 H2848 0.960 . S
C2862 H2849 0.961 . S
C2862 H2850 0.959 . S
C2862 C2860 1.561 . S
C2863 C2860 1.526 . S
C2863 C2864 1.396 . S
C2863 C2868 1.390 . S
C2864 C2858 1.465 . S
C2864 C2863 1.396 . S
C2864 C2865 1.399 . S
C2865 H2851 0.929 . S
C2865 C2864 1.399 . S
C2865 C2866 1.385 . S
C2866 H2852 0.931 . S
C2866 C2865 1.385 . S
C2866 C2867 1.389 . S
C2867 C2866 1.389 . S
C2867 C2868 1.387 . S
C2868 H2853 0.930 . S
C2868 C2863 1.390 . S
C2868 C2867 1.387 . S
H2869 C2881 0.930 . S
H2870 C2883 0.930 . S
H2871 C2884 0.930 . S
H2872 C2888 0.959 . S
H2873 C2888 0.959 . S
H2874 C2888 0.961 . S
H2875 C2889 0.960 . S
H2876 C2889 0.961 . S
H2877 C2889 0.959 . S
H2878 C2892 0.929 . S
H2879 C2893 0.931 . S
H2880 C2895 0.930 . S
C2881 H2869 0.930 . S
C2881 C2882 1.399 . S
C2881 C2886 1.399 . S
C2882 C2881 1.399 . S
C2882 C2883 1.376 . S
C2883 H2870 0.930 . S
C2883 C2882 1.376 . S
C2883 C2884 1.388 . S
C2884 H2871 0.930 . S
C2884 C2883 1.388 . S
C2884 C2885 1.390 . S
C2885 C2884 1.390 . S
C2885 C2886 1.394 . S
C2885 C2891 1.465 . S
C2886 C2881 1.399 . S
C2886 C2885 1.394 . S
C2886 C2887 1.516 . S
C2887 C2886 1.516 . S
C2887 C2888 1.502 . S
C2887 C2889 1.561 . S
C2887 C2890 1.526 . S
C2888 H2872 0.959 . S
C2888 H2873 0.959 . S
C2888 H2874 0.961 . S
C2888 C2887 1.502 . S
C2889 H2875 0.960 . S
C2889 H2876 0.961 . S
C2889 H2877 0.959 . S
C2889 C2887 1.561 . S
C2890 C2887 1.526 . S
C2890 C2891 1.396 . S
C2890 C2895 1.390 . S
C2891 C2885 1.465 . S
C2891 C2890 1.396 . S
C2891 C2892 1.399 . S
C2892 H2878 0.929 . S
C2892 C2891 1.399 . S
C2892 C2893 1.385 . S
C2893 H2879 0.931 . S
C2893 C2892 1.385 . S
C2893 C2894 1.389 . S
C2894 C2893 1.389 . S
C2894 C2895 1.387 . S
C2895 H2880 0.930 . S
C2895 C2890 1.390 . S
C2895 C2894 1.387 . S
H2896 C2908 0.930 . S
H2897 C2910 0.930 . S
H2898 C2911 0.930 . S
H2899 C2915 0.959 . S
H2900 C2915 0.959 . S
H2901 C2915 0.961 . S
H2902 C2916 0.960 . S
H2903 C2916 0.961 . S
H2904 C2916 0.959 . S
H2905 C2919 0.929 . S
H2906 C2920 0.931 . S
H2907 C2922 0.930 . S
C2908 H2896 0.930 . S
C2908 C2909 1.399 . S
C2908 C2913 1.399 . S
C2909 C2908 1.399 . S
C2909 C2910 1.376 . S
C2910 H2897 0.930 . S
C2910 C2909 1.376 . S
C2910 C2911 1.388 . S
C2911 H2898 0.930 . S
C2911 C2910 1.388 . S
C2911 C2912 1.390 . S
C2912 C2911 1.390 . S
C2912 C2913 1.394 . S
C2912 C2918 1.465 . S
C2913 C2908 1.399 . S
C2913 C2912 1.394 . S
C2913 C2914 1.516 . S
C2914 C2913 1.516 . S
C2914 C2915 1.502 . S
C2914 C2916 1.561 . S
C2914 C2917 1.526 . S
C2915 H2899 0.959 . S
C2915 H2900 0.959 . S
C2915 H2901 0.961 . S
C2915 C2914 1.502 . S
C2916 H2902 0.960 . S
C2916 H2903 0.961 . S
C2916 H2904 0.959 . S
C2916 C2914 1.561 . S
C2917 C2914 1.526 . S
C2917 C2918 1.396 . S
C2917 C2922 1.390 . S
C2918 C2912 1.465 . S
C2918 C2917 1.396 . S
C2918 C2919 1.399 . S
C2919 H2905 0.929 . S
C2919 C2918 1.399 . S
C2919 C2920 1.385 . S
C2920 H2906 0.931 . S
C2920 C2919 1.385 . S
C2920 C2921 1.389 . S
C2921 C2920 1.389 . S
C2921 C2922 1.387 . S
C2922 H2907 0.930 . S
C2922 C2917 1.390 . S
C2922 C2921 1.387 . S
H2923 C2935 0.930 . S
H2924 C2937 0.930 . S
H2925 C2938 0.930 . S
H2926 C2942 0.959 . S
H2927 C2942 0.959 . S
H2928 C2942 0.961 . S
H2929 C2943 0.960 . S
H2930 C2943 0.961 . S
H2931 C2943 0.959 . S
H2932 C2946 0.929 . S
H2933 C2947 0.931 . S
H2934 C2949 0.930 . S
C2935 H2923 0.930 . S
C2935 C2936 1.399 . S
C2935 C2940 1.399 . S
C2936 C2935 1.399 . S
C2936 C2937 1.376 . S
C2937 H2924 0.930 . S
C2937 C2936 1.376 . S
C2937 C2938 1.388 . S
C2938 H2925 0.930 . S
C2938 C2937 1.388 . S
C2938 C2939 1.390 . S
C2939 C2938 1.390 . S
C2939 C2940 1.394 . S
C2939 C2945 1.465 . S
C2940 C2935 1.399 . S
C2940 C2939 1.394 . S
C2940 C2941 1.516 . S
C2941 C2940 1.516 . S
C2941 C2942 1.502 . S
C2941 C2943 1.561 . S
C2941 C2944 1.526 . S
C2942 H2926 0.959 . S
C2942 H2927 0.959 . S
C2942 H2928 0.961 . S
C2942 C2941 1.502 . S
C2943 H2929 0.960 . S
C2943 H2930 0.961 . S
C2943 H2931 0.959 . S
C2943 C2941 1.561 . S
C2944 C2941 1.526 . S
C2944 C2945 1.396 . S
C2944 C2949 1.390 . S
C2945 C2939 1.465 . S
C2945 C2944 1.396 . S
C2945 C2946 1.399 . S
C2946 H2932 0.929 . S
C2946 C2945 1.399 . S
C2946 C2947 1.385 . S
C2947 H2933 0.931 . S
C2947 C2946 1.385 . S
C2947 C2948 1.389 . S
C2948 C2947 1.389 . S
C2948 C2949 1.387 . S
C2949 H2934 0.930 . S
C2949 C2944 1.390 . S
C2949 C2948 1.387 . S
H2950 C2962 0.930 . S
H2951 C2964 0.930 . S
H2952 C2965 0.930 . S
H2953 C2969 0.959 . S
H2954 C2969 0.959 . S
H2955 C2969 0.961 . S
H2956 C2970 0.960 . S
H2957 C2970 0.967 . S
H2958 C2970 0.959 . S
H2959 C2973 0.929 . S
H2960 C2974 0.931 . S
H2961 C2976 0.930 . S
C2962 H2950 0.930 . S
C2962 C2963 1.399 . S
C2962 C2967 1.399 . S
C2963 C2962 1.399 . S
C2963 C2964 1.376 . S
C2964 H2951 0.930 . S
C2964 C2963 1.376 . S
C2964 C2965 1.388 . S
C2965 H2952 0.930 . S
C2965 C2964 1.388 . S
C2965 C2966 1.390 . S
C2966 C2965 1.390 . S
C2966 C2967 1.394 . S
C2966 C2972 1.465 . S
C2967 C2962 1.399 . S
C2967 C2966 1.394 . S
C2967 C2968 1.516 . S
C2968 C2967 1.516 . S
C2968 C2969 1.502 . S
C2968 C2970 1.561 . S
C2968 C2971 1.526 . S
C2969 H2953 0.959 . S
C2969 H2954 0.959 . S
C2969 H2955 0.961 . S
C2969 C2968 1.502 . S
C2970 H2956 0.960 . S
C2970 H2957 0.967 . S
C2970 H2958 0.959 . S
C2970 C2968 1.561 . S
C2971 C2968 1.526 . S
C2971 C2972 1.396 . S
C2971 C2976 1.390 . S
C2972 C2966 1.465 . S
C2972 C2971 1.396 . S
C2972 C2973 1.399 . S
C2973 H2959 0.929 . S
C2973 C2972 1.399 . S
C2973 C2974 1.385 . S
C2974 H2960 0.931 . S
C2974 C2973 1.385 . S
C2974 C2975 1.389 . S
C2975 C2974 1.389 . S
C2975 C2976 1.387 . S
C2976 H2961 0.930 . S
C2976 C2971 1.390 . S
C2976 C2975 1.387 . S
H2977 C2989 0.930 . S
H2978 C2991 0.930 . S
H2979 C2992 0.930 . S
H2980 C2996 0.959 . S
H2981 C2996 0.959 . S
H2982 C2996 0.961 . S
H2983 C2997 0.960 . S
H2984 C2997 0.961 . S
H2985 C2997 0.959 . S
H2986 C3000 0.929 . S
H2987 C3001 0.931 . S
H2988 C3003 0.930 . S
C2989 H2977 0.930 . S
C2989 C2990 1.399 . S
C2989 C2994 1.399 . S
C2990 C2989 1.399 . S
C2990 C2991 1.376 . S
C2991 H2978 0.930 . S
C2991 C2990 1.376 . S
C2991 C2992 1.388 . S
C2992 H2979 0.930 . S
C2992 C2991 1.388 . S
C2992 C2993 1.390 . S
C2993 C2992 1.390 . S
C2993 C2994 1.394 . S
C2993 C2999 1.465 . S
C2994 C2989 1.399 . S
C2994 C2993 1.394 . S
C2994 C2995 1.516 . S
C2995 C2994 1.516 . S
C2995 C2996 1.502 . S
C2995 C2997 1.561 . S
C2995 C2998 1.526 . S
C2996 H2980 0.959 . S
C2996 H2981 0.959 . S
C2996 H2982 0.961 . S
C2996 C2995 1.502 . S
C2997 H2983 0.960 . S
C2997 H2984 0.961 . S
C2997 H2985 0.959 . S
C2997 C2995 1.561 . S
C2998 C2995 1.526 . S
C2998 C2999 1.396 . S
C2998 C3003 1.390 . S
C2999 C2993 1.465 . S
C2999 C2998 1.396 . S
C2999 C3000 1.399 . S
C3000 H2986 0.929 . S
C3000 C2999 1.399 . S
C3000 C3001 1.385 . S
C3001 H2987 0.931 . S
C3001 C3000 1.385 . S
C3001 C3002 1.389 . S
C3002 C3001 1.389 . S
C3002 C3003 1.387 . S
C3003 H2988 0.930 . S
C3003 C2998 1.390 . S
C3003 C3002 1.387 . S
H3004 C3016 0.930 . S
H3005 C3018 0.930 . S
H3006 C3019 0.930 . S
H3007 C3023 0.959 . S
H3008 C3023 0.959 . S
H3009 C3023 0.961 . S
H3010 C3024 0.960 . S
H3011 C3024 0.961 . S
H3012 C3024 0.959 . S
H3013 C3027 0.929 . S
H3014 C3028 0.931 . S
H3015 C3030 0.930 . S
C3016 H3004 0.930 . S
C3016 C3017 1.399 . S
C3016 C3021 1.399 . S
C3017 C3016 1.399 . S
C3017 C3018 1.376 . S
C3018 H3005 0.930 . S
C3018 C3017 1.376 . S
C3018 C3019 1.388 . S
C3019 H3006 0.930 . S
C3019 C3018 1.388 . S
C3019 C3020 1.390 . S
C3020 C3019 1.390 . S
C3020 C3021 1.394 . S
C3020 C3026 1.465 . S
C3021 C3016 1.399 . S
C3021 C3020 1.394 . S
C3021 C3022 1.516 . S
C3022 C3021 1.516 . S
C3022 C3023 1.502 . S
C3022 C3024 1.561 . S
C3022 C3025 1.526 . S
C3023 H3007 0.959 . S
C3023 H3008 0.959 . S
C3023 H3009 0.961 . S
C3023 C3022 1.502 . S
C3024 H3010 0.960 . S
C3024 H3011 0.961 . S
C3024 H3012 0.959 . S
C3024 C3022 1.561 . S
C3025 C3022 1.526 . S
C3025 C3026 1.396 . S
C3025 C3030 1.390 . S
C3026 C3020 1.465 . S
C3026 C3025 1.396 . S
C3026 C3027 1.399 . S
C3027 H3013 0.929 . S
C3027 C3026 1.399 . S
C3027 C3028 1.385 . S
C3028 H3014 0.931 . S
C3028 C3027 1.385 . S
C3028 C3029 1.389 . S
C3029 C3028 1.389 . S
C3029 C3030 1.387 . S
C3030 H3015 0.930 . S
C3030 C3025 1.390 . S
C3030 C3029 1.387 . S
H3031 C3043 0.930 . S
H3032 C3045 0.930 . S
H3033 C3046 0.930 . S
H3034 C3050 0.959 . S
H3035 C3050 0.959 . S
H3036 C3050 0.961 . S
H3037 C3051 0.960 . S
H3038 C3051 0.961 . S
H3039 C3051 0.959 . S
H3040 C3054 0.929 . S
H3041 C3055 0.931 . S
H3042 C3057 0.930 . S
C3043 H3031 0.930 . S
C3043 C3044 1.399 . S
C3043 C3048 1.399 . S
C3044 C3043 1.399 . S
C3044 C3045 1.376 . S
C3045 H3032 0.930 . S
C3045 C3044 1.376 . S
C3045 C3046 1.388 . S
C3046 H3033 0.930 . S
C3046 C3045 1.388 . S
C3046 C3047 1.390 . S
C3047 C3046 1.390 . S
C3047 C3048 1.394 . S
C3047 C3053 1.465 . S
C3048 C3043 1.399 . S
C3048 C3047 1.394 . S
C3048 C3049 1.516 . S
C3049 C3048 1.516 . S
C3049 C3050 1.502 . S
C3049 C3051 1.561 . S
C3049 C3052 1.526 . S
C3050 H3034 0.959 . S
C3050 H3035 0.959 . S
C3050 H3036 0.961 . S
C3050 C3049 1.502 . S
C3051 H3037 0.960 . S
C3051 H3038 0.961 . S
C3051 H3039 0.959 . S
C3051 C3049 1.561 . S
C3052 C3049 1.526 . S
C3052 C3053 1.396 . S
C3052 C3057 1.390 . S
C3053 C3047 1.465 . S
C3053 C3052 1.396 . S
C3053 C3054 1.399 . S
C3054 H3040 0.929 . S
C3054 C3053 1.399 . S
C3054 C3055 1.385 . S
C3055 H3041 0.931 . S
C3055 C3054 1.385 . S
C3055 C3056 1.389 . S
C3056 C3055 1.389 . S
C3056 C3057 1.387 . S
C3057 H3042 0.930 . S
C3057 C3052 1.390 . S
C3057 C3056 1.387 . S
H3058 C3070 0.930 . S
H3059 C3072 0.930 . S
H3060 C3073 0.930 . S
H3061 C3077 0.959 . S
H3062 C3077 0.959 . S
H3063 C3077 0.961 . S
H3064 C3078 0.960 . S
H3065 C3078 0.961 . S
H3066 C3078 0.959 . S
H3067 C3081 0.929 . S
H3068 C3082 0.931 . S
H3069 C3084 0.930 . S
C3070 H3058 0.930 . S
C3070 C3071 1.399 . S
C3070 C3075 1.399 . S
C3071 C3070 1.399 . S
C3071 C3072 1.376 . S
C3072 H3059 0.930 . S
C3072 C3071 1.376 . S
C3072 C3073 1.388 . S
C3073 H3060 0.930 . S
C3073 C3072 1.388 . S
C3073 C3074 1.390 . S
C3074 C3073 1.390 . S
C3074 C3075 1.394 . S
C3074 C3080 1.465 . S
C3075 C3070 1.399 . S
C3075 C3074 1.394 . S
C3075 C3076 1.516 . S
C3076 C3075 1.516 . S
C3076 C3077 1.502 . S
C3076 C3078 1.561 . S
C3076 C3079 1.526 . S
C3077 H3061 0.959 . S
C3077 H3062 0.959 . S
C3077 H3063 0.961 . S
C3077 C3076 1.502 . S
C3078 H3064 0.960 . S
C3078 H3065 0.961 . S
C3078 H3066 0.959 . S
C3078 C3076 1.561 . S
C3079 C3076 1.526 . S
C3079 C3080 1.396 . S
C3079 C3084 1.390 . S
C3080 C3074 1.465 . S
C3080 C3079 1.396 . S
C3080 C3081 1.399 . S
C3081 H3067 0.929 . S
C3081 C3080 1.399 . S
C3081 C3082 1.385 . S
C3082 H3068 0.931 . S
C3082 C3081 1.385 . S
C3082 C3083 1.389 . S
C3083 C3082 1.389 . S
C3083 C3084 1.387 . S
C3084 H3069 0.930 . S
C3084 C3079 1.390 . S
C3084 C3083 1.387 . S
H3085 C3097 0.930 . S
H3086 C3099 0.930 . S
H3087 C3100 0.930 . S
H3088 C3104 0.959 . S
H3089 C3104 0.959 . S
H3090 C3104 0.961 . S
H3091 C3105 0.960 . S
H3092 C3105 0.961 . S
H3093 C3105 0.959 . S
H3094 C3108 0.929 . S
H3095 C3109 0.931 . S
H3096 C3111 0.930 . S
C3097 H3085 0.930 . S
C3097 C3098 1.399 . S
C3097 C3102 1.399 . S
C3098 C3097 1.399 . S
C3098 C3099 1.376 . S
C3099 H3086 0.930 . S
C3099 C3098 1.376 . S
C3099 C3100 1.388 . S
C3100 H3087 0.930 . S
C3100 C3099 1.388 . S
C3100 C3101 1.390 . S
C3101 C3100 1.390 . S
C3101 C3102 1.394 . S
C3101 C3107 1.465 . S
C3102 C3097 1.399 . S
C3102 C3101 1.394 . S
C3102 C3103 1.516 . S
C3103 C3102 1.516 . S
C3103 C3104 1.502 . S
C3103 C3105 1.561 . S
C3103 C3106 1.526 . S
C3104 H3088 0.959 . S
C3104 H3089 0.959 . S
C3104 H3090 0.961 . S
C3104 C3103 1.502 . S
C3105 H3091 0.960 . S
C3105 H3092 0.961 . S
C3105 H3093 0.959 . S
C3105 C3103 1.561 . S
C3106 C3103 1.526 . S
C3106 C3107 1.396 . S
C3106 C3111 1.390 . S
C3107 C3101 1.465 . S
C3107 C3106 1.396 . S
C3107 C3108 1.399 . S
C3108 H3094 0.929 . S
C3108 C3107 1.399 . S
C3108 C3109 1.385 . S
C3109 H3095 0.931 . S
C3109 C3108 1.385 . S
C3109 C3110 1.389 . S
C3110 C3109 1.389 . S
C3110 C3111 1.387 . S
C3111 H3096 0.930 . S
C3111 C3106 1.390 . S
C3111 C3110 1.387 . S
H3112 C3124 0.930 . S
H3113 C3126 0.930 . S
H3114 C3127 0.930 . S
H3115 C3131 0.959 . S
H3116 C3131 0.959 . S
H3117 C3131 0.961 . S
H3118 C3132 0.960 . S
H3119 C3132 0.961 . S
H3120 C3132 0.959 . S
H3121 C3135 0.929 . S
H3122 C3136 0.931 . S
H3123 C3138 0.930 . S
C3124 H3112 0.930 . S
C3124 C3125 1.399 . S
C3124 C3129 1.399 . S
C3125 C3124 1.399 . S
C3125 C3126 1.376 . S
C3126 H3113 0.930 . S
C3126 C3125 1.376 . S
C3126 C3127 1.388 . S
C3127 H3114 0.930 . S
C3127 C3126 1.388 . S
C3127 C3128 1.390 . S
C3128 C3127 1.390 . S
C3128 C3129 1.394 . S
C3128 C3134 1.465 . S
C3129 C3124 1.399 . S
C3129 C3128 1.394 . S
C3129 C3130 1.516 . S
C3130 C3129 1.516 . S
C3130 C3131 1.502 . S
C3130 C3132 1.561 . S
C3130 C3133 1.526 . S
C3131 H3115 0.959 . S
C3131 H3116 0.959 . S
C3131 H3117 0.961 . S
C3131 C3130 1.502 . S
C3132 H3118 0.960 . S
C3132 H3119 0.961 . S
C3132 H3120 0.959 . S
C3132 C3130 1.561 . S
C3133 C3130 1.526 . S
C3133 C3134 1.396 . S
C3133 C3138 1.390 . S
C3134 C3128 1.465 . S
C3134 C3133 1.396 . S
C3134 C3135 1.399 . S
C3135 H3121 0.929 . S
C3135 C3134 1.399 . S
C3135 C3136 1.385 . S
C3136 H3122 0.931 . S
C3136 C3135 1.385 . S
C3136 C3137 1.389 . S
C3137 C3136 1.389 . S
C3137 C3138 1.387 . S
C3138 H3123 0.930 . S
C3138 C3133 1.390 . S
C3138 C3137 1.387 . S
H3139 C3151 0.930 . S
H3140 C3153 0.930 . S
H3141 C3154 0.930 . S
H3142 C3158 0.959 . S
H3143 C3158 0.959 . S
H3144 C3158 0.961 . S
H3145 C3159 0.960 . S
H3146 C3159 0.961 . S
H3147 C3159 0.959 . S
H3148 C3162 0.929 . S
H3149 C3163 0.931 . S
H3150 C3165 0.930 . S
C3151 H3139 0.930 . S
C3151 C3152 1.399 . S
C3151 C3156 1.399 . S
C3152 C3151 1.399 . S
C3152 C3153 1.376 . S
C3153 H3140 0.930 . S
C3153 C3152 1.376 . S
C3153 C3154 1.388 . S
C3154 H3141 0.930 . S
C3154 C3153 1.388 . S
C3154 C3155 1.390 . S
C3155 C3154 1.390 . S
C3155 C3156 1.394 . S
C3155 C3161 1.465 . S
C3156 C3151 1.399 . S
C3156 C3155 1.394 . S
C3156 C3157 1.516 . S
C3157 C3156 1.516 . S
C3157 C3158 1.502 . S
C3157 C3159 1.561 . S
C3157 C3160 1.526 . S
C3158 H3142 0.959 . S
C3158 H3143 0.959 . S
C3158 H3144 0.961 . S
C3158 C3157 1.502 . S
C3159 H3145 0.960 . S
C3159 H3146 0.961 . S
C3159 H3147 0.959 . S
C3159 C3157 1.561 . S
C3160 C3157 1.526 . S
C3160 C3161 1.396 . S
C3160 C3165 1.390 . S
C3161 C3155 1.465 . S
C3161 C3160 1.396 . S
C3161 C3162 1.399 . S
C3162 H3148 0.929 . S
C3162 C3161 1.399 . S
C3162 C3163 1.385 . S
C3163 H3149 0.931 . S
C3163 C3162 1.385 . S
C3163 C3164 1.389 . S
C3164 C3163 1.389 . S
C3164 C3165 1.387 . S
C3165 H3150 0.930 . S
C3165 C3160 1.390 . S
C3165 C3164 1.387 . S
H3166 C3178 0.930 . S
H3167 C3180 0.930 . S
H3168 C3181 0.940 . S
H3169 C3185 0.959 . S
H3170 C3185 0.959 . S
H3171 C3185 0.961 . S
H3172 C3186 0.960 . S
H3173 C3186 0.961 . S
H3174 C3186 0.959 . S
H3175 C3189 0.929 . S
H3176 C3190 0.931 . S
H3177 C3192 0.930 . S
C3178 H3166 0.930 . S
C3178 C3179 1.399 . S
C3178 C3183 1.399 . S
C3179 C3178 1.399 . S
C3179 C3180 1.376 . S
C3180 H3167 0.930 . S
C3180 C3179 1.376 . S
C3180 C3181 1.388 . S
C3181 H3168 0.940 . S
C3181 C3180 1.388 . S
C3181 C3182 1.390 . S
C3182 C3181 1.390 . S
C3182 C3183 1.394 . S
C3182 C3188 1.465 1_655 S
C3183 C3178 1.399 . S
C3183 C3182 1.394 . S
C3183 C3184 1.516 . S
C3184 C3183 1.516 . S
C3184 C3185 1.502 . S
C3184 C3186 1.561 . S
C3184 C3187 1.526 . S
C3185 H3169 0.959 . S
C3185 H3170 0.959 . S
C3185 H3171 0.961 . S
C3185 C3184 1.502 . S
C3186 H3172 0.960 . S
C3186 H3173 0.961 . S
C3186 H3174 0.959 . S
C3186 C3184 1.561 . S
C3187 C3184 1.526 . S
C3187 C3188 1.396 1_655 S
C3187 C3192 1.390 1_655 S
C3188 C3182 1.465 1_455 S
C3188 C3187 1.396 1_455 S
C3188 C3189 1.399 . S
C3189 H3175 0.929 . S
C3189 C3188 1.399 . S
C3189 C3190 1.385 . S
C3190 H3176 0.931 . S
C3190 C3189 1.385 . S
C3190 C3191 1.389 . S
C3191 C3190 1.389 . S
C3191 C3192 1.387 . S
C3192 H3177 0.930 . S
C3192 C3187 1.390 1_455 S
C3192 C3191 1.387 . S
H3193 C3205 0.930 . S
H3194 C3207 0.930 . S
H3195 C3208 0.930 . S
H3196 C3212 0.959 . S
H3197 C3212 0.959 . S
H3198 C3212 0.961 . S
H3199 C3213 0.960 . S
H3200 C3213 0.961 . S
H3201 C3213 0.959 . S
H3202 C3216 0.929 . S
H3203 C3217 0.931 . S
H3204 C3219 0.930 . S
C3205 H3193 0.930 . S
C3205 C3206 1.399 . S
C3205 C3210 1.399 . S
C3206 C3205 1.399 . S
C3206 C3207 1.376 . S
C3207 H3194 0.930 . S
C3207 C3206 1.376 . S
C3207 C3208 1.388 . S
C3208 H3195 0.930 . S
C3208 C3207 1.388 . S
C3208 C3209 1.390 . S
C3209 C3208 1.390 . S
C3209 C3210 1.394 . S
C3209 C3215 1.465 . S
C3210 C3205 1.399 . S
C3210 C3209 1.394 . S
C3210 C3211 1.516 . S
C3211 C3210 1.516 . S
C3211 C3212 1.502 . S
C3211 C3213 1.561 . S
C3211 C3214 1.526 . S
C3212 H3196 0.959 . S
C3212 H3197 0.959 . S
C3212 H3198 0.961 . S
C3212 C3211 1.502 . S
C3213 H3199 0.960 . S
C3213 H3200 0.961 . S
C3213 H3201 0.959 . S
C3213 C3211 1.561 . S
C3214 C3211 1.526 . S
C3214 C3215 1.396 . S
C3214 C3219 1.390 . S
C3215 C3209 1.465 . S
C3215 C3214 1.396 . S
C3215 C3216 1.399 . S
C3216 H3202 0.929 . S
C3216 C3215 1.399 . S
C3216 C3217 1.385 . S
C3217 H3203 0.931 . S
C3217 C3216 1.385 . S
C3217 C3218 1.389 . S
C3218 C3217 1.389 . S
C3218 C3219 1.387 . S
C3219 H3204 0.930 . S
C3219 C3214 1.390 . S
C3219 C3218 1.387 . S
H3220 C3232 0.930 . S
H3221 C3234 0.930 . S
H3222 C3235 0.930 . S
H3223 C3239 0.959 . S
H3224 C3239 0.959 . S
H3225 C3239 0.961 . S
H3226 C3240 0.960 . S
H3227 C3240 0.961 . S
H3228 C3240 0.959 . S
H3229 C3243 0.929 . S
H3230 C3244 0.931 . S
H3231 C3246 0.930 . S
C3232 H3220 0.930 . S
C3232 C3233 1.399 . S
C3232 C3237 1.399 . S
C3233 C3232 1.399 . S
C3233 C3234 1.376 . S
C3234 H3221 0.930 . S
C3234 C3233 1.376 . S
C3234 C3235 1.388 . S
C3235 H3222 0.930 . S
C3235 C3234 1.388 . S
C3235 C3236 1.390 . S
C3236 C3235 1.390 . S
C3236 C3237 1.394 . S
C3236 C3242 1.465 . S
C3237 C3232 1.399 . S
C3237 C3236 1.394 . S
C3237 C3238 1.516 . S
C3238 C3237 1.516 . S
C3238 C3239 1.502 . S
C3238 C3240 1.561 . S
C3238 C3241 1.526 . S
C3239 H3223 0.959 . S
C3239 H3224 0.959 . S
C3239 H3225 0.961 . S
C3239 C3238 1.502 . S
C3240 H3226 0.960 . S
C3240 H3227 0.961 . S
C3240 H3228 0.959 . S
C3240 C3238 1.561 . S
C3241 C3238 1.526 . S
C3241 C3242 1.396 . S
C3241 C3246 1.390 . S
C3242 C3236 1.465 . S
C3242 C3241 1.396 . S
C3242 C3243 1.399 . S
C3243 H3229 0.929 . S
C3243 C3242 1.399 . S
C3243 C3244 1.385 . S
C3244 H3230 0.931 . S
C3244 C3243 1.385 . S
C3244 C3245 1.389 . S
C3245 C3244 1.389 . S
C3245 C3246 1.387 . S
C3246 H3231 0.930 . S
C3246 C3241 1.390 . S
C3246 C3245 1.387 . S
H3247 C3259 0.930 . S
H3248 C3261 0.930 . S
H3249 C3262 0.930 . S
H3250 C3266 0.959 . S
H3251 C3266 0.959 . S
H3252 C3266 0.961 . S
H3253 C3267 0.960 . S
H3254 C3267 0.961 . S
H3255 C3267 0.959 . S
H3256 C3270 0.929 . S
H3257 C3271 0.931 . S
H3258 C3273 0.930 . S
C3259 H3247 0.930 . S
C3259 C3260 1.399 . S
C3259 C3264 1.399 . S
C3260 C3259 1.399 . S
C3260 C3261 1.376 . S
C3261 H3248 0.930 . S
C3261 C3260 1.376 . S
C3261 C3262 1.388 . S
C3262 H3249 0.930 . S
C3262 C3261 1.388 . S
C3262 C3263 1.390 . S
C3263 C3262 1.390 . S
C3263 C3264 1.394 . S
C3263 C3269 1.465 . S
C3264 C3259 1.399 . S
C3264 C3263 1.394 . S
C3264 C3265 1.516 . S
C3265 C3264 1.516 . S
C3265 C3266 1.502 . S
C3265 C3267 1.561 . S
C3265 C3268 1.526 . S
C3266 H3250 0.959 . S
C3266 H3251 0.959 . S
C3266 H3252 0.961 . S
C3266 C3265 1.502 . S
C3267 H3253 0.960 . S
C3267 H3254 0.961 . S
C3267 H3255 0.959 . S
C3267 C3265 1.561 . S
C3268 C3265 1.526 . S
C3268 C3269 1.396 . S
C3268 C3273 1.390 . S
C3269 C3263 1.465 . S
C3269 C3268 1.396 . S
C3269 C3270 1.399 . S
C3270 H3256 0.929 . S
C3270 C3269 1.399 . S
C3270 C3271 1.385 . S
C3271 H3257 0.931 . S
C3271 C3270 1.385 . S
C3271 C3272 1.389 . S
C3272 C3271 1.389 . S
C3272 C3273 1.387 . S
C3273 H3258 0.930 . S
C3273 C3268 1.390 . S
C3273 C3272 1.387 . S
H3274 C3286 0.930 . S
H3275 C3288 0.930 . S
H3276 C3289 0.930 . S
H3277 C3293 0.959 . S
H3278 C3293 0.959 . S
H3279 C3293 0.961 . S
H3280 C3294 0.960 . S
H3281 C3294 0.961 . S
H3282 C3294 0.959 . S
H3283 C3297 0.929 . S
H3284 C3298 0.931 . S
H3285 C3300 0.930 . S
C3286 H3274 0.930 . S
C3286 C3287 1.399 . S
C3286 C3291 1.399 . S
C3287 C3286 1.399 . S
C3287 C3288 1.376 . S
C3288 H3275 0.930 . S
C3288 C3287 1.376 . S
C3288 C3289 1.388 . S
C3289 H3276 0.930 . S
C3289 C3288 1.388 . S
C3289 C3290 1.390 . S
C3290 C3289 1.390 . S
C3290 C3291 1.394 . S
C3290 C3296 1.465 . S
C3291 C3286 1.399 . S
C3291 C3290 1.394 . S
C3291 C3292 1.516 . S
C3292 C3291 1.516 . S
C3292 C3293 1.502 . S
C3292 C3294 1.561 . S
C3292 C3295 1.526 . S
C3293 H3277 0.959 . S
C3293 H3278 0.959 . S
C3293 H3279 0.961 . S
C3293 C3292 1.502 . S
C3294 H3280 0.960 . S
C3294 H3281 0.961 . S
C3294 H3282 0.959 . S
C3294 C3292 1.561 . S
C3295 C3292 1.526 . S
C3295 C3296 1.396 . S
C3295 C3300 1.390 . S
C3296 C3290 1.465 . S
C3296 C3295 1.396 . S
C3296 C3297 1.399 . S
C3297 H3283 0.929 . S
C3297 C3296 1.399 . S
C3297 C3298 1.385 . S
C3298 H3284 0.931 . S
C3298 C3297 1.385 . S
C3298 C3299 1.389 . S
C3299 C3298 1.389 . S
C3299 C3300 1.387 . S
C3300 H3285 0.930 . S
C3300 C3295 1.390 . S
C3300 C3299 1.387 . S
H3301 C3313 0.930 . S
H3302 C3315 0.930 . S
H3303 C3316 0.930 . S
H3304 C3320 0.959 . S
H3305 C3320 0.959 . S
H3306 C3320 0.961 . S
H3307 C3321 0.960 . S
H3308 C3321 0.961 . S
H3309 C3321 0.959 . S
H3310 C3324 0.929 . S
H3311 C3325 0.931 . S
H3312 C3327 0.930 . S
C3313 H3301 0.930 . S
C3313 C3314 1.399 . S
C3313 C3318 1.399 . S
C3314 C3313 1.399 . S
C3314 C3315 1.376 . S
C3315 H3302 0.930 . S
C3315 C3314 1.376 . S
C3315 C3316 1.388 . S
C3316 H3303 0.930 . S
C3316 C3315 1.388 . S
C3316 C3317 1.390 . S
C3317 C3316 1.390 . S
C3317 C3318 1.394 . S
C3317 C3323 1.465 . S
C3318 C3313 1.399 . S
C3318 C3317 1.394 . S
C3318 C3319 1.516 . S
C3319 C3318 1.516 . S
C3319 C3320 1.502 . S
C3319 C3321 1.561 . S
C3319 C3322 1.526 . S
C3320 H3304 0.959 . S
C3320 H3305 0.959 . S
C3320 H3306 0.961 . S
C3320 C3319 1.502 . S
C3321 H3307 0.960 . S
C3321 H3308 0.961 . S
C3321 H3309 0.959 . S
C3321 C3319 1.561 . S
C3322 C3319 1.526 . S
C3322 C3323 1.396 . S
C3322 C3327 1.390 . S
C3323 C3317 1.465 . S
C3323 C3322 1.396 . S
C3323 C3324 1.399 . S
C3324 H3310 0.929 . S
C3324 C3323 1.399 . S
C3324 C3325 1.385 . S
C3325 H3311 0.931 . S
C3325 C3324 1.385 . S
C3325 C3326 1.389 . S
C3326 C3325 1.389 . S
C3326 C3327 1.387 . S
C3327 H3312 0.930 . S
C3327 C3322 1.390 . S
C3327 C3326 1.387 . S
H3328 C3340 0.930 . S
H3329 C3342 0.930 . S
H3330 C3343 0.930 . S
H3331 C3347 0.959 . S
H3332 C3347 0.959 . S
H3333 C3347 0.961 . S
H3334 C3348 0.960 . S
H3335 C3348 0.961 . S
H3336 C3348 0.959 . S
H3337 C3351 0.929 . S
H3338 C3352 0.931 . S
H3339 C3354 0.930 . S
C3340 H3328 0.930 . S
C3340 C3341 1.399 . S
C3340 C3345 1.399 . S
C3341 C3340 1.399 . S
C3341 C3342 1.376 . S
C3342 H3329 0.930 . S
C3342 C3341 1.376 . S
C3342 C3343 1.388 . S
C3343 H3330 0.930 . S
C3343 C3342 1.388 . S
C3343 C3344 1.390 . S
C3344 C3343 1.390 . S
C3344 C3345 1.394 . S
C3344 C3350 1.465 . S
C3345 C3340 1.399 . S
C3345 C3344 1.394 . S
C3345 C3346 1.516 . S
C3346 C3345 1.516 . S
C3346 C3347 1.502 . S
C3346 C3348 1.561 . S
C3346 C3349 1.526 . S
C3347 H3331 0.959 . S
C3347 H3332 0.959 . S
C3347 H3333 0.961 . S
C3347 C3346 1.502 . S
C3348 H3334 0.960 . S
C3348 H3335 0.961 . S
C3348 H3336 0.959 . S
C3348 C3346 1.561 . S
C3349 C3346 1.526 . S
C3349 C3350 1.396 . S
C3349 C3354 1.390 . S
C3350 C3344 1.465 . S
C3350 C3349 1.396 . S
C3350 C3351 1.399 . S
C3351 H3337 0.929 . S
C3351 C3350 1.399 . S
C3351 C3352 1.385 . S
C3352 H3338 0.931 . S
C3352 C3351 1.385 . S
C3352 C3353 1.389 . S
C3353 C3352 1.389 . S
C3353 C3354 1.387 . S
C3354 H3339 0.930 . S
C3354 C3349 1.390 . S
C3354 C3353 1.387 . S
H3355 C3367 0.930 . S
H3356 C3369 0.930 . S
H3357 C3370 0.930 . S
H3358 C3374 0.959 . S
H3359 C3374 0.959 . S
H3360 C3374 0.961 . S
H3361 C3375 0.960 . S
H3362 C3375 0.961 . S
H3363 C3375 0.959 . S
H3364 C3378 0.930 1_545 S
H3365 C3379 0.931 . S
H3366 C3381 0.930 . S
C3367 H3355 0.930 . S
C3367 C3368 1.399 . S
C3367 C3372 1.399 . S
C3368 C3367 1.399 . S
C3368 C3369 1.376 . S
C3369 H3356 0.930 . S
C3369 C3368 1.376 . S
C3369 C3370 1.388 . S
C3370 H3357 0.930 . S
C3370 C3369 1.388 . S
C3370 C3371 1.390 . S
C3371 C3370 1.390 . S
C3371 C3372 1.394 . S
C3371 C3377 1.465 . S
C3372 C3367 1.399 . S
C3372 C3371 1.394 . S
C3372 C3373 1.516 . S
C3373 C3372 1.516 . S
C3373 C3374 1.502 . S
C3373 C3375 1.561 . S
C3373 C3376 1.526 . S
C3374 H3358 0.959 . S
C3374 H3359 0.959 . S
C3374 H3360 0.961 . S
C3374 C3373 1.502 . S
C3375 H3361 0.960 . S
C3375 H3362 0.961 . S
C3375 H3363 0.959 . S
C3375 C3373 1.561 . S
C3376 C3373 1.526 . S
C3376 C3377 1.396 . S
C3376 C3381 1.390 . S
C3377 C3371 1.465 . S
C3377 C3376 1.396 . S
C3377 C3378 1.398 . S
C3378 H3364 0.930 1_565 S
C3378 C3377 1.398 . S
C3378 C3379 1.385 1_565 S
C3379 H3365 0.931 . S
C3379 C3378 1.385 1_545 S
C3379 C3380 1.389 . S
C3380 C3379 1.389 . S
C3380 C3381 1.387 1_545 S
C3381 H3366 0.930 . S
C3381 C3376 1.390 . S
C3381 C3380 1.387 1_565 S
H3382 C3394 0.930 . S
H3383 C3396 0.930 . S
H3384 C3397 0.930 . S
H3385 C3401 0.959 . S
H3386 C3401 0.959 . S
H3387 C3401 0.961 . S
H3388 C3402 0.960 . S
H3389 C3402 0.961 . S
H3390 C3402 0.959 . S
H3391 C3405 0.929 . S
H3392 C3406 0.931 . S
H3393 C3408 0.930 . S
C3394 H3382 0.930 . S
C3394 C3395 1.399 . S
C3394 C3399 1.399 . S
C3395 C3394 1.399 . S
C3395 C3396 1.376 . S
C3396 H3383 0.930 . S
C3396 C3395 1.376 . S
C3396 C3397 1.388 . S
C3397 H3384 0.930 . S
C3397 C3396 1.388 . S
C3397 C3398 1.390 . S
C3398 C3397 1.390 . S
C3398 C3399 1.394 . S
C3398 C3404 1.465 . S
C3399 C3394 1.399 . S
C3399 C3398 1.394 . S
C3399 C3400 1.516 . S
C3400 C3399 1.516 . S
C3400 C3401 1.502 . S
C3400 C3402 1.561 . S
C3400 C3403 1.526 . S
C3401 H3385 0.959 . S
C3401 H3386 0.959 . S
C3401 H3387 0.961 . S
C3401 C3400 1.502 . S
C3402 H3388 0.960 . S
C3402 H3389 0.961 . S
C3402 H3390 0.959 . S
C3402 C3400 1.561 . S
C3403 C3400 1.526 . S
C3403 C3404 1.396 . S
C3403 C3408 1.390 . S
C3404 C3398 1.465 . S
C3404 C3403 1.396 . S
C3404 C3405 1.399 . S
C3405 H3391 0.929 . S
C3405 C3404 1.399 . S
C3405 C3406 1.385 . S
C3406 H3392 0.931 . S
C3406 C3405 1.385 . S
C3406 C3407 1.389 . S
C3407 C3406 1.389 . S
C3407 C3408 1.387 . S
C3408 H3393 0.930 . S
C3408 C3403 1.390 . S
C3408 C3407 1.387 . S
H3409 C3421 0.930 . S
H3410 C3423 0.930 . S
H3411 C3424 0.930 . S
H3412 C3428 0.959 . S
H3413 C3428 0.959 . S
H3414 C3428 0.961 . S
H3415 C3429 0.960 . S
H3416 C3429 0.961 . S
H3417 C3429 0.959 . S
H3418 C3432 0.929 . S
H3419 C3433 0.931 . S
H3420 C3435 0.969 . S
C3421 H3409 0.930 . S
C3421 C3422 1.399 1_556 S
C3421 C3426 1.399 1_556 S
C3422 C3421 1.399 1_554 S
C3422 C3423 1.376 . S
C3423 H3410 0.930 . S
C3423 C3422 1.376 . S
C3423 C3424 1.388 . S
C3424 H3411 0.930 . S
C3424 C3423 1.388 . S
C3424 C3425 1.390 . S
C3425 C3424 1.390 . S
C3425 C3426 1.394 . S
C3425 C3431 1.465 . S
C3426 C3421 1.399 1_554 S
C3426 C3425 1.394 . S
C3426 C3427 1.516 1_554 S
C3427 C3426 1.516 1_556 S
C3427 C3428 1.502 . S
C3427 C3429 1.561 . S
C3427 C3430 1.526 1_556 S
C3428 H3412 0.959 . S
C3428 H3413 0.959 . S
C3428 H3414 0.961 . S
C3428 C3427 1.502 . S
C3429 H3415 0.960 . S
C3429 H3416 0.961 . S
C3429 H3417 0.959 . S
C3429 C3427 1.561 . S
C3430 C3427 1.526 1_554 S
C3430 C3431 1.396 . S
C3430 C3435 1.387 1_554 S
C3431 C3425 1.465 . S
C3431 C3430 1.396 . S
C3431 C3432 1.399 . S
C3432 H3418 0.929 . S
C3432 C3431 1.399 . S
C3432 C3433 1.385 . S
C3433 H3419 0.931 . S
C3433 C3432 1.385 . S
C3433 C3434 1.389 . S
C3434 C3433 1.389 . S
C3434 C3435 1.351 1_554 S
C3435 H3420 0.969 . S
C3435 C3430 1.387 1_556 S
C3435 C3434 1.351 1_556 S
H3436 C3448 0.930 . S
H3437 C3450 0.930 . S
H3438 C3451 0.930 . S
H3439 C3455 0.959 . S
H3440 C3455 0.959 . S
H3441 C3455 0.961 . S
H3442 C3456 0.960 . S
H3443 C3456 0.961 . S
H3444 C3456 0.959 . S
H3445 C3459 0.929 . S
H3446 C3460 0.931 . S
H3447 C3462 0.930 . S
C3448 H3436 0.930 . S
C3448 C3449 1.399 . S
C3448 C3453 1.399 . S
C3449 C3448 1.399 . S
C3449 C3450 1.376 . S
C3450 H3437 0.930 . S
C3450 C3449 1.376 . S
C3450 C3451 1.388 . S
C3451 H3438 0.930 . S
C3451 C3450 1.388 . S
C3451 C3452 1.390 . S
C3452 C3451 1.390 . S
C3452 C3453 1.394 . S
C3452 C3458 1.465 . S
C3453 C3448 1.399 . S
C3453 C3452 1.394 . S
C3453 C3454 1.516 . S
C3454 C3453 1.516 . S
C3454 C3455 1.502 . S
C3454 C3456 1.561 . S
C3454 C3457 1.526 . S
C3455 H3439 0.959 . S
C3455 H3440 0.959 . S
C3455 H3441 0.961 . S
C3455 C3454 1.502 . S
C3456 H3442 0.960 . S
C3456 H3443 0.961 . S
C3456 H3444 0.959 . S
C3456 C3454 1.561 . S
C3457 C3454 1.526 . S
C3457 C3458 1.396 . S
C3457 C3462 1.390 . S
C3458 C3452 1.465 . S
C3458 C3457 1.396 . S
C3458 C3459 1.399 . S
C3459 H3445 0.929 . S
C3459 C3458 1.399 . S
C3459 C3460 1.385 . S
C3460 H3446 0.931 . S
C3460 C3459 1.385 . S
C3460 C3461 1.389 . S
C3461 C3460 1.389 . S
C3461 C3462 1.387 . S
C3462 H3447 0.930 . S
C3462 C3457 1.390 . S
C3462 C3461 1.387 . S
H3463 C3475 0.930 . S
H3464 C3477 0.930 . S
H3465 C3478 0.930 . S
H3466 C3482 0.959 . S
H3467 C3482 0.959 . S
H3468 C3482 0.961 . S
H3469 C3483 0.960 . S
H3470 C3483 0.961 . S
H3471 C3483 0.959 . S
H3472 C3486 0.929 . S
H3473 C3487 0.931 . S
H3474 C3489 0.930 . S
C3475 H3463 0.930 . S
C3475 C3476 1.399 1_556 S
C3475 C3480 1.399 . S
C3476 C3475 1.399 1_554 S
C3476 C3477 1.376 . S
C3477 H3464 0.930 . S
C3477 C3476 1.376 . S
C3477 C3478 1.388 . S
C3478 H3465 0.930 . S
C3478 C3477 1.388 . S
C3478 C3479 1.390 . S
C3479 C3478 1.390 . S
C3479 C3480 1.394 1_554 S
C3479 C3485 1.465 . S
C3480 C3475 1.399 . S
C3480 C3479 1.394 1_556 S
C3480 C3481 1.516 . S
C3481 C3480 1.516 . S
C3481 C3482 1.502 . S
C3481 C3483 1.561 . S
C3481 C3484 1.526 . S
C3482 H3466 0.959 . S
C3482 H3467 0.959 . S
C3482 H3468 0.961 . S
C3482 C3481 1.502 . S
C3483 H3469 0.960 . S
C3483 H3470 0.961 . S
C3483 H3471 0.959 . S
C3483 C3481 1.561 . S
C3484 C3481 1.526 . S
C3484 C3485 1.396 1_556 S
C3484 C3489 1.390 . S
C3485 C3479 1.465 . S
C3485 C3484 1.396 1_554 S
C3485 C3486 1.399 . S
C3486 H3472 0.929 . S
C3486 C3485 1.399 . S
C3486 C3487 1.385 . S
C3487 H3473 0.931 . S
C3487 C3486 1.385 . S
C3487 C3488 1.389 1_554 S
C3488 C3487 1.389 1_556 S
C3488 C3489 1.387 . S
C3489 H3474 0.930 . S
C3489 C3484 1.390 . S
C3489 C3488 1.387 . S
H3490 C3502 0.930 . S
H3491 C3504 0.930 . S
H3492 C3505 0.930 . S
H3493 C3509 0.959 . S
H3494 C3509 0.959 . S
H3495 C3509 0.961 . S
H3496 C3510 0.960 . S
H3497 C3510 0.961 . S
H3498 C3510 0.959 . S
H3499 C3513 0.929 . S
H3500 C3514 0.931 . S
H3501 C3516 0.930 . S
C3502 H3490 0.930 . S
C3502 C3503 1.399 . S
C3502 C3507 1.399 . S
C3503 C3502 1.399 . S
C3503 C3504 1.376 . S
C3504 H3491 0.930 . S
C3504 C3503 1.376 . S
C3504 C3505 1.388 . S
C3505 H3492 0.930 . S
C3505 C3504 1.388 . S
C3505 C3506 1.390 . S
C3506 C3505 1.390 . S
C3506 C3507 1.394 . S
C3506 C3512 1.465 . S
C3507 C3502 1.399 . S
C3507 C3506 1.394 . S
C3507 C3508 1.516 . S
C3508 C3507 1.516 . S
C3508 C3509 1.502 . S
C3508 C3510 1.561 . S
C3508 C3511 1.526 . S
C3509 H3493 0.959 . S
C3509 H3494 0.959 . S
C3509 H3495 0.961 . S
C3509 C3508 1.502 . S
C3510 H3496 0.960 . S
C3510 H3497 0.961 . S
C3510 H3498 0.959 . S
C3510 C3508 1.561 . S
C3511 C3508 1.526 . S
C3511 C3512 1.396 . S
C3511 C3516 1.390 . S
C3512 C3506 1.465 . S
C3512 C3511 1.396 . S
C3512 C3513 1.399 . S
C3513 H3499 0.929 . S
C3513 C3512 1.399 . S
C3513 C3514 1.385 . S
C3514 H3500 0.931 . S
C3514 C3513 1.385 . S
C3514 C3515 1.389 . S
C3515 C3514 1.389 . S
C3515 C3516 1.387 . S
C3516 H3501 0.930 . S
C3516 C3511 1.390 . S
C3516 C3515 1.387 . S
H3517 C3529 0.930 . S
H3518 C3531 0.930 . S
H3519 C3532 0.930 . S
H3520 C3536 0.959 . S
H3521 C3536 0.959 . S
H3522 C3536 0.961 . S
H3523 C3537 0.960 . S
H3524 C3537 0.961 . S
H3525 C3537 0.959 . S
H3526 C3540 0.929 . S
H3527 C3541 0.931 . S
H3528 C3543 0.930 . S
C3529 H3517 0.930 . S
C3529 C3530 1.399 . S
C3529 C3534 1.399 . S
C3530 C3529 1.399 . S
C3530 C3531 1.376 . S
C3531 H3518 0.930 . S
C3531 C3530 1.376 . S
C3531 C3532 1.388 . S
C3532 H3519 0.930 . S
C3532 C3531 1.388 . S
C3532 C3533 1.390 . S
C3533 C3532 1.390 . S
C3533 C3534 1.394 . S
C3533 C3539 1.465 . S
C3534 C3529 1.399 . S
C3534 C3533 1.394 . S
C3534 C3535 1.516 . S
C3535 C3534 1.516 . S
C3535 C3536 1.502 . S
C3535 C3537 1.561 . S
C3535 C3538 1.526 . S
C3536 H3520 0.959 . S
C3536 H3521 0.959 . S
C3536 H3522 0.961 . S
C3536 C3535 1.502 . S
C3537 H3523 0.960 . S
C3537 H3524 0.961 . S
C3537 H3525 0.959 . S
C3537 C3535 1.561 . S
C3538 C3535 1.526 . S
C3538 C3539 1.396 . S
C3538 C3543 1.390 . S
C3539 C3533 1.465 . S
C3539 C3538 1.396 . S
C3539 C3540 1.399 . S
C3540 H3526 0.929 . S
C3540 C3539 1.399 . S
C3540 C3541 1.385 . S
C3541 H3527 0.931 . S
C3541 C3540 1.385 . S
C3541 C3542 1.389 . S
C3542 C3541 1.389 . S
C3542 C3543 1.387 . S
C3543 H3528 0.930 . S
C3543 C3538 1.390 . S
C3543 C3542 1.387 . S
C965 C101 1.041 . S
C977 C320 1.078 . S
C992 C57 1.395 . S
C1004 C354 1.406 . S
C1019 C73 0.646 . S
C1031 C423 0.639 . S
C1058 C461 0.884 . S
C1046 C78 0.938 . S
C1073 C21 1.400 . S
C1085 C501 1.390 . S
C1112 C520 0.338 . S
C1100 C31 0.507 . S
C1139 C554 1.339 . S
C1127 C49 1.266 . S
C1154 C0 1.585 . S
C1166 C623 1.627 . S
C1193 C329 2.432 . S
C1181 C218 2.486 . S
C1208 C229 0.998 . S
C1220 C381 0.991 . S
C1247 C394 1.391 . S
C1235 C257 1.390 . S
C1274 C463 1.421 . S
C1262 C164 1.359 . S
C1289 C216 1.857 . S
C1301 C503 1.953 . S
C1328 C529 1.853 . S
C1316 C231 1.868 . S
C1355 C581 0.297 . S
C1343 C255 0.545 . S
C1382 C594 2.205 . S
C1370 C166 2.224 . S
C1409 C324 2.459 . S
C1397 C143 2.415 . S
C1424 C265 1.965 . S
C1436 C634 1.983 . S
C1463 C684 2.609 . S
C1451 C299 2.621 . S
C1490 C743 1.653 1_655 S
C1478 C291 1.610 . S
C1505 C104 1.334 . S
C1517 C621 1.310 . S
C1532 C117 1.311 . S
C1544 C421 1.404 . S
C1559 C304 2.371 . S
C1571 C754 2.434 . S
C1598 C823 0.784 . S
C1586 C278 0.774 . S
C1625 C341 1.053 . S
C1613 C60 1.030 . S
C1652 C809 1.336 . S
C1640 C96 1.339 . S
C1667 C88 0.546 . S
C1679 C404 0.639 . S
C1694 C65 0.869 . S
C1706 C760 0.785 . S
C1733 C480 1.413 . S
C1721 C10 1.391 . S
C1748 C44 0.424 . S
C1760 C701 0.298 . S
C1787 C569 1.184 1_556 S
C1775 C34 1.154 . S
C1814 C844 1.605 . S
C1802 C13 1.649 . S
C1841 C314 2.413 . S
C1829 C138 2.417 . S
C1868 C800 1.004 . S
C1856 C296 0.991 . S
C1883 C112 1.312 . S
C1895 C409 1.305 . S
C1910 C270 1.327 . S
C1922 C764 1.330 . S
C1937 C140 1.838 . S
C1949 C484 1.876 . S
C1976 C674 1.829 . S
C1964 C294 1.746 . S
C1991 C114 0.244 1_565 S
C2003 C560 0.361 . S
C2018 C268 2.148 . S
C2030 C849 2.148 . S
C2045 C169 2.352 . S
C2057 C343 2.366 1_654 S
C2072 C161 1.910 . S
C2084 C649 1.911 . S
C2099 C234 2.551 . S
C2111 C543 2.563 . S
C2126 C226 1.455 . S
C2138 C724 1.539 . S
C2165 C840 1.405 . S
C2153 C247 1.415 . S
C2180 C195 1.399 . S
C2192 C400 1.340 . S
C2219 C449 2.305 . S
C2207 C239 2.316 . S
C2246 C364 0.729 . S
C2234 C187 0.697 . S
C2261 C75 1.076 . S
C2273 C880 1.059 . S
C2300 C794 1.378 . S
C2288 C83 1.401 . S
C2315 C99 0.618 . S
C2327 C943 0.655 . S
C2342 C52 0.832 . S
C2354 C781 0.913 . S
C2369 C47 1.323 . S
C2381 C661 1.444 . S
C2408 C680 0.384 . S
C2396 C5 0.496 . S
C2435 C714 1.272 . S
C2423 C23 1.315 . S
C2462 C863 1.631 . S
C2450 C26 1.575 . S
C2489 C889 2.431 . S
C2477 C244 2.486 . S
C2504 C177 0.994 . S
C2516 C821 0.994 . S
C2543 C914 1.353 . S
C2531 C192 1.368 . S
C2570 C783 1.436 . S
C2558 C203 1.343 . S
C2597 C663 1.942 . S
C2585 C242 1.839 . S
C2612 C179 1.850 . S
C2624 C689 1.848 . S
C2651 C741 0.359 . S
C2639 C190 0.531 . S
C2666 C205 2.237 . S
C2678 C834 2.213 . S
C2705 C884 2.451 . S
C2693 C286 2.427 . S
C2720 C122 1.970 . S
C2732 C474 1.980 . S
C2759 C524 2.632 . S
C2747 C130 2.591 . S
C2786 C583 1.660 . S
C2774 C148 1.600 . S
C2813 C861 1.392 . S
C2801 C273 1.210 . S
C2828 C260 1.292 . S
C2840 C941 1.412 . S
C2867 C434 2.439 . S
C2855 C135 2.368 . S
C2894 C383 0.794 . S
C2882 C109 0.785 . S
C2909 C86 1.061 . S
C2921 C901 1.071 . S
C2948 C369 1.323 . S
C2936 C70 1.330 . S
C2963 C62 0.601 . S
C2975 C924 0.528 . S
C2990 C91 0.864 . S
C3002 C440 0.783 . S
C3017 C36 1.393 . S
C3029 C640 1.411 . S
C3056 C541 0.326 . S
C3044 C18 0.482 . S
C3071 C8 1.131 . S
C3083 C729 1.197 . S
C3098 C39 1.644 . S
C3110 C604 1.621 . S
C3137 C874 2.429 . S
C3125 C307 2.395 . S
C3152 C153 1.034 . S
C3164 C360 0.950 . S
C3191 C929 1.279 . S
C3179 C281 1.256 . S
C3206 C127 1.334 . S
C3218 C444 1.342 . S
C3233 C309 1.837 . S
C3245 C644 1.878 . S
C3272 C514 1.824 . S
C3260 C151 1.751 . S
C3287 C283 0.253 . S
C3299 C720 0.351 . S
C3326 C609 2.149 . S
C3314 C125 2.152 . S
C3353 C903 2.399 . S
C3341 C221 2.387 . S
C3380 C489 1.905 1_655 S
C3368 C200 1.916 . S
C3395 C208 2.549 . S
C3407 C703 2.562 . S
C3434 C564 1.534 . S
C3422 C174 1.450 . S
C3449 C182 1.425 . S
C3461 C600 1.389 . S
C3476 C156 1.407 . S
C3488 C920 1.331 . S
C3515 C769 2.305 . S
C3503 C213 2.317 1_565 S
C3542 C804 0.694 . S
C3530 C252 0.711 . S
