# Generated by pormake.
# Topology fgl, (4,4)-cn, num edge types: 1
# Building blocks:
#     Node 0, Type 0, BuildingBlock: ESEHIV_clean_sbu_0, # of connection points: 4
#     Node 1, Type 0, BuildingBlock: ESEHIV_clean_sbu_0, # of connection points: 4
#     Node 2, Type 0, BuildingBlock: ESEHIV_clean_sbu_0, # of connection points: 4
#     Node 3, Type 0, BuildingBlock: ESEHIV_clean_sbu_0, # of connection points: 4
#     Node 4, Type 0, BuildingBlock: ESEHIV_clean_sbu_0, # of connection points: 4
#     Node 5, Type 0, BuildingBlock: ESEHIV_clean_sbu_0, # of connection points: 4
#     Node 6, Type 0, BuildingBlock: ESEHIV_clean_sbu_0, # of connection points: 4
#     Node 7, Type 0, BuildingBlock: ESEHIV_clean_sbu_0, # of connection points: 4
#     Node 8, Type 0, BuildingBlock: ESEHIV_clean_sbu_0, # of connection points: 4
#     Node 9, Type 0, BuildingBlock: ESEHIV_clean_sbu_0, # of connection points: 4
#     Node 10, Type 0, BuildingBlock: ESEHIV_clean_sbu_0, # of connection points: 4
#     Node 11, Type 0, BuildingBlock: ESEHIV_clean_sbu_0, # of connection points: 4
#     Node 12, Type 0, BuildingBlock: ESEHIV_clean_sbu_0, # of connection points: 4
#     Node 13, Type 0, BuildingBlock: ESEHIV_clean_sbu_0, # of connection points: 4
#     Node 14, Type 0, BuildingBlock: ESEHIV_clean_sbu_0, # of connection points: 4
#     Node 15, Type 0, BuildingBlock: ESEHIV_clean_sbu_0, # of connection points: 4
#     Node 16, Type 0, BuildingBlock: ESEHIV_clean_sbu_0, # of connection points: 4
#     Node 17, Type 0, BuildingBlock: ESEHIV_clean_sbu_0, # of connection points: 4
#     Node 18, Type 1, BuildingBlock: CEKHIL_clean_sbu_0, # of connection points: 4
#     Node 19, Type 1, BuildingBlock: CEKHIL_clean_sbu_0, # of connection points: 4
#     Node 20, Type 1, BuildingBlock: CEKHIL_clean_sbu_0, # of connection points: 4
#     Node 21, Type 1, BuildingBlock: CEKHIL_clean_sbu_0, # of connection points: 4
#     Node 22, Type 1, BuildingBlock: CEKHIL_clean_sbu_0, # of connection points: 4
#     Node 23, Type 1, BuildingBlock: CEKHIL_clean_sbu_0, # of connection points: 4
#     Node 24, Type 1, BuildingBlock: CEKHIL_clean_sbu_0, # of connection points: 4
#     Node 25, Type 1, BuildingBlock: CEKHIL_clean_sbu_0, # of connection points: 4
#     Node 26, Type 1, BuildingBlock: CEKHIL_clean_sbu_0, # of connection points: 4
#     Node 27, Type 1, BuildingBlock: CEKHIL_clean_sbu_0, # of connection points: 4
#     Node 28, Type 1, BuildingBlock: CEKHIL_clean_sbu_0, # of connection points: 4
#     Node 29, Type 1, BuildingBlock: CEKHIL_clean_sbu_0, # of connection points: 4
#     Node 30, Type 1, BuildingBlock: CEKHIL_clean_sbu_0, # of connection points: 4
#     Node 31, Type 1, BuildingBlock: CEKHIL_clean_sbu_0, # of connection points: 4
#     Node 32, Type 1, BuildingBlock: CEKHIL_clean_sbu_0, # of connection points: 4
#     Node 33, Type 1, BuildingBlock: CEKHIL_clean_sbu_0, # of connection points: 4
#     Node 34, Type 1, BuildingBlock: CEKHIL_clean_sbu_0, # of connection points: 4
#     Node 35, Type 1, BuildingBlock: CEKHIL_clean_sbu_0, # of connection points: 4
#     Edge 36, Type (0, 1), BuildingBlock: KIFKEQ_clean_linker_1, # of connection points: 2
#     Edge 37, Type (0, 1), BuildingBlock: KIFKEQ_clean_linker_1, # of connection points: 2
#     Edge 38, Type (0, 1), BuildingBlock: KIFKEQ_clean_linker_1, # of connection points: 2
#     Edge 39, Type (0, 1), BuildingBlock: KIFKEQ_clean_linker_1, # of connection points: 2
#     Edge 40, Type (0, 1), BuildingBlock: KIFKEQ_clean_linker_1, # of connection points: 2
#     Edge 41, Type (0, 1), BuildingBlock: KIFKEQ_clean_linker_1, # of connection points: 2
#     Edge 42, Type (0, 1), BuildingBlock: KIFKEQ_clean_linker_1, # of connection points: 2
#     Edge 43, Type (0, 1), BuildingBlock: KIFKEQ_clean_linker_1, # of connection points: 2
#     Edge 44, Type (0, 1), BuildingBlock: KIFKEQ_clean_linker_1, # of connection points: 2
#     Edge 45, Type (0, 1), BuildingBlock: KIFKEQ_clean_linker_1, # of connection points: 2
#     Edge 46, Type (0, 1), BuildingBlock: KIFKEQ_clean_linker_1, # of connection points: 2
#     Edge 47, Type (0, 1), BuildingBlock: KIFKEQ_clean_linker_1, # of connection points: 2
#     Edge 48, Type (0, 1), BuildingBlock: KIFKEQ_clean_linker_1, # of connection points: 2
#     Edge 49, Type (0, 1), BuildingBlock: KIFKEQ_clean_linker_1, # of connection points: 2
#     Edge 50, Type (0, 1), BuildingBlock: KIFKEQ_clean_linker_1, # of connection points: 2
#     Edge 51, Type (0, 1), BuildingBlock: KIFKEQ_clean_linker_1, # of connection points: 2
#     Edge 52, Type (0, 1), BuildingBlock: KIFKEQ_clean_linker_1, # of connection points: 2
#     Edge 53, Type (0, 1), BuildingBlock: KIFKEQ_clean_linker_1, # of connection points: 2
#     Edge 54, Type (0, 1), BuildingBlock: KIFKEQ_clean_linker_1, # of connection points: 2
#     Edge 55, Type (0, 1), BuildingBlock: KIFKEQ_clean_linker_1, # of connection points: 2
#     Edge 56, Type (0, 1), BuildingBlock: KIFKEQ_clean_linker_1, # of connection points: 2
#     Edge 57, Type (0, 1), BuildingBlock: KIFKEQ_clean_linker_1, # of connection points: 2
#     Edge 58, Type (0, 1), BuildingBlock: KIFKEQ_clean_linker_1, # of connection points: 2
#     Edge 59, Type (0, 1), BuildingBlock: KIFKEQ_clean_linker_1, # of connection points: 2
#     Edge 60, Type (0, 1), BuildingBlock: KIFKEQ_clean_linker_1, # of connection points: 2
#     Edge 61, Type (0, 1), BuildingBlock: KIFKEQ_clean_linker_1, # of connection points: 2
#     Edge 62, Type (0, 1), BuildingBlock: KIFKEQ_clean_linker_1, # of connection points: 2
#     Edge 63, Type (0, 1), BuildingBlock: KIFKEQ_clean_linker_1, # of connection points: 2
#     Edge 64, Type (0, 1), BuildingBlock: KIFKEQ_clean_linker_1, # of connection points: 2
#     Edge 65, Type (0, 1), BuildingBlock: KIFKEQ_clean_linker_1, # of connection points: 2
#     Edge 66, Type (0, 1), BuildingBlock: KIFKEQ_clean_linker_1, # of connection points: 2
#     Edge 67, Type (0, 1), BuildingBlock: KIFKEQ_clean_linker_1, # of connection points: 2
#     Edge 68, Type (0, 1), BuildingBlock: KIFKEQ_clean_linker_1, # of connection points: 2
#     Edge 69, Type (0, 1), BuildingBlock: KIFKEQ_clean_linker_1, # of connection points: 2
#     Edge 70, Type (0, 1), BuildingBlock: KIFKEQ_clean_linker_1, # of connection points: 2
#     Edge 71, Type (0, 1), BuildingBlock: KIFKEQ_clean_linker_1, # of connection points: 2
#     Edge 72, Type (0, 1), BuildingBlock: KIFKEQ_clean_linker_1, # of connection points: 2
#     Edge 73, Type (0, 1), BuildingBlock: KIFKEQ_clean_linker_1, # of connection points: 2
#     Edge 74, Type (0, 1), BuildingBlock: KIFKEQ_clean_linker_1, # of connection points: 2
#     Edge 75, Type (0, 1), BuildingBlock: KIFKEQ_clean_linker_1, # of connection points: 2
#     Edge 76, Type (0, 1), BuildingBlock: KIFKEQ_clean_linker_1, # of connection points: 2
#     Edge 77, Type (0, 1), BuildingBlock: KIFKEQ_clean_linker_1, # of connection points: 2
#     Edge 78, Type (0, 1), BuildingBlock: KIFKEQ_clean_linker_1, # of connection points: 2
#     Edge 79, Type (0, 1), BuildingBlock: KIFKEQ_clean_linker_1, # of connection points: 2
#     Edge 80, Type (0, 1), BuildingBlock: KIFKEQ_clean_linker_1, # of connection points: 2
#     Edge 81, Type (0, 1), BuildingBlock: KIFKEQ_clean_linker_1, # of connection points: 2
#     Edge 82, Type (0, 1), BuildingBlock: KIFKEQ_clean_linker_1, # of connection points: 2
#     Edge 83, Type (0, 1), BuildingBlock: KIFKEQ_clean_linker_1, # of connection points: 2
#     Edge 84, Type (0, 1), BuildingBlock: KIFKEQ_clean_linker_1, # of connection points: 2
#     Edge 85, Type (0, 1), BuildingBlock: KIFKEQ_clean_linker_1, # of connection points: 2
#     Edge 86, Type (0, 1), BuildingBlock: KIFKEQ_clean_linker_1, # of connection points: 2
#     Edge 87, Type (0, 1), BuildingBlock: KIFKEQ_clean_linker_1, # of connection points: 2
#     Edge 88, Type (0, 1), BuildingBlock: KIFKEQ_clean_linker_1, # of connection points: 2
#     Edge 89, Type (0, 1), BuildingBlock: KIFKEQ_clean_linker_1, # of connection points: 2
#     Edge 90, Type (0, 1), BuildingBlock: KIFKEQ_clean_linker_1, # of connection points: 2
#     Edge 91, Type (0, 1), BuildingBlock: KIFKEQ_clean_linker_1, # of connection points: 2
#     Edge 92, Type (0, 1), BuildingBlock: KIFKEQ_clean_linker_1, # of connection points: 2
#     Edge 93, Type (0, 1), BuildingBlock: KIFKEQ_clean_linker_1, # of connection points: 2
#     Edge 94, Type (0, 1), BuildingBlock: KIFKEQ_clean_linker_1, # of connection points: 2
#     Edge 95, Type (0, 1), BuildingBlock: KIFKEQ_clean_linker_1, # of connection points: 2
#     Edge 96, Type (0, 1), BuildingBlock: KIFKEQ_clean_linker_1, # of connection points: 2
#     Edge 97, Type (0, 1), BuildingBlock: KIFKEQ_clean_linker_1, # of connection points: 2
#     Edge 98, Type (0, 1), BuildingBlock: KIFKEQ_clean_linker_1, # of connection points: 2
#     Edge 99, Type (0, 1), BuildingBlock: KIFKEQ_clean_linker_1, # of connection points: 2
#     Edge 100, Type (0, 1), BuildingBlock: KIFKEQ_clean_linker_1, # of connection points: 2
#     Edge 101, Type (0, 1), BuildingBlock: KIFKEQ_clean_linker_1, # of connection points: 2
#     Edge 102, Type (0, 1), BuildingBlock: KIFKEQ_clean_linker_1, # of connection points: 2
#     Edge 103, Type (0, 1), BuildingBlock: KIFKEQ_clean_linker_1, # of connection points: 2
#     Edge 104, Type (0, 1), BuildingBlock: KIFKEQ_clean_linker_1, # of connection points: 2
#     Edge 105, Type (0, 1), BuildingBlock: KIFKEQ_clean_linker_1, # of connection points: 2
#     Edge 106, Type (0, 1), BuildingBlock: KIFKEQ_clean_linker_1, # of connection points: 2
#     Edge 107, Type (0, 1), BuildingBlock: KIFKEQ_clean_linker_1, # of connection points: 2
# Relax obj value: 0.015
# Max RMSD: 0.135
# Mean RMSD: 0.076
data_MOF--net-fgl--node1-ESEHIV_clean_sbu_0--node2-CEKHIL_clean_sbu_0--edge1-KIFKEQ_clean_linker_1
_symmetry_space_group_name_H-M    P1
_symmetry_Int_Tables_number       1
_symmetry_cell_setting            triclinic
loop_
_symmetry_equiv_pos_as_xyz
'x, y, z'
_cell_length_a     76.721261
_cell_length_b     75.991732
_cell_length_c     51.600349
_cell_angle_alpha  90.705925
_cell_angle_beta   90.722182
_cell_angle_gamma 119.92173
loop_
_atom_site_label
_atom_site_type_symbol
_atom_site_fract_x
_atom_site_fract_y
_atom_site_fract_z
_atom_type_partial_charge
Cu0 Cu 0.01445 0.53852 0.02394 0.0
N1 N 0.99866 0.54032 0.05041 0.0
N2 N 0.99179 0.55394 0.0849 0.0
C3 C 1.00526 0.55661 0.06656 0.0
C4 C 0.97598 0.53519 0.08003 0.0
C5 C 0.98018 0.52688 0.05865 0.0
O6 O 0.02665 0.56507 1.00825 0.0
C7 C 0.02414 0.51462 0.05291 0.0
O8 O 1.00513 0.50724 0.05844 0.0
H9 H 0.02 0.56997 0.06532 0.0
H10 H 0.97066 0.51191 0.05021 0.0
N11 N 1.00076 0.51927 0.99716 0.0
N12 N 0.99746 0.50212 0.96 0.0
C13 C 1.01035 0.51572 0.9778 0.0
C14 C 0.98103 0.50738 0.99158 0.0
C15 C 0.97895 0.49682 0.96865 0.0
C16 C 0.01373 0.56755 0.99548 0.0
O17 O 0.99506 0.55254 0.99382 0.0
H18 H 0.02657 0.52346 0.97652 0.0
H19 H 0.96901 0.50672 1.00301 0.0
O20 O 0.03262 0.53011 0.03858 0.0
H21 H 0.96238 0.52797 0.09117 0.0
H22 H 0.96487 0.48605 0.95916 0.0
Cu23 Cu 0.5396 0.55567 0.02915 0.0
N24 N 0.54131 0.56377 0.99282 0.0
N25 N 0.55247 0.57421 0.95283 0.0
C26 C 0.55668 0.56932 0.97636 0.0
C27 C 0.53376 0.57157 0.95477 0.0
C28 C 0.52695 0.56516 0.97937 0.0
O29 O 0.56108 0.58518 0.03951 0.0
C30 C 0.51684 0.5102 0.0231 0.0
O31 O 0.5326 0.51099 0.03459 0.0
H32 H 0.57054 0.56962 0.98143 0.0
H33 H 0.51262 0.56192 0.98704 0.0
N34 N 0.53793 0.54751 0.06548 0.0
N35 N 0.52599 0.53269 0.10348 0.0
C36 C 0.52143 0.53751 0.08013 0.0
C37 C 0.55335 0.54917 0.08002 0.0
C38 C 0.54607 0.54011 0.10341 0.0
C39 C 0.58004 0.59271 0.03721 0.0
O40 O 0.58686 0.58093 0.0288 0.0
H41 H 0.50636 0.53317 0.07343 0.0
H42 H 0.56875 0.55607 0.0738 0.0
O43 O 0.51689 0.52675 0.01872 0.0
H44 H 0.52567 0.57452 0.9397 0.0
H45 H 0.55492 0.53898 0.11912 0.0
Cu46 Cu 0.53245 0.06604 0.01719 0.0
N47 N 0.52909 0.07863 0.9884 0.0
N48 N 0.51832 0.08201 0.94937 0.0
C49 C 0.51603 0.06914 0.96854 0.0
C50 C 0.53332 0.10037 0.95772 0.0
C51 C 0.53994 0.09822 0.98183 0.0
O52 O 0.50535 0.04526 0.02745 0.0
C53 C 0.56048 0.0598 0.98737 0.0
O54 O 0.55262 0.06378 0.96711 0.0
H55 H 0.50565 0.05294 0.9678 0.0
H56 H 0.55207 0.10998 0.9935 0.0
N57 N 0.54431 0.08481 0.04444 0.0
N58 N 0.56331 0.09859 0.08017 0.0
C59 C 0.55954 0.08633 0.05925 0.0
C60 C 0.53824 0.09668 0.05617 0.0
C61 C 0.54992 0.10517 0.07839 0.0
C62 C 0.49994 0.04164 0.051 0.0
O63 O 0.51376 0.04932 0.06956 0.0
H64 H 0.56668 0.07734 0.0558 0.0
H65 H 0.52551 0.09812 0.04984 0.0
O66 O 0.5522 0.05749 1.00937 0.0
H67 H 0.53914 0.11436 0.94721 0.0
H68 H 0.54816 0.11472 0.09262 0.0
Cu69 Cu 0.52508 0.04197 0.51849 0.0
N70 N 0.52506 0.02974 0.48676 0.0
N71 N 0.53754 0.02537 0.44984 0.0
C72 C 0.54126 0.0368 0.47162 0.0
C73 C 0.51817 0.01045 0.45136 0.0
C74 C 0.51053 0.0131 0.47428 0.0
O75 O 0.55099 0.04756 0.53502 0.0
C76 C 0.50596 0.06134 0.49451 0.0
O77 O 0.49881 0.04488 0.47985 0.0
H78 H 0.55545 0.05031 0.47639 0.0
H79 H 0.49544 1.0037 0.48117 0.0
N80 N 0.50416 0.02473 0.54001 0.0
N81 N 0.48245 0.0164 0.57239 0.0
C82 C 0.49736 0.03163 0.55931 0.0
C83 C 0.49306 1.00433 0.54072 0.0
C84 C 0.47973 0.99915 0.56083 0.0
C85 C 0.55193 0.03158 0.54031 0.0
O86 O 0.53576 0.01383 0.53608 0.0
H87 H 0.50353 0.04761 0.56391 0.0
H88 H 0.49464 0.99395 0.52774 0.0
O89 O 0.51925 0.06439 0.51207 0.0
H90 H 0.51013 0.9984 0.43707 0.0
H91 H 0.46877 0.9839 0.56632 0.0
Cu92 Cu 0.04805 0.56149 0.52574 0.0
N93 N 0.06375 0.55747 0.55101 0.0
N94 N 0.06914 0.5427 0.58545 0.0
C95 C 0.05533 0.54328 0.56943 0.0
C96 C 0.08707 0.55723 0.57665 0.0
C97 C 0.08371 0.56622 0.55539 0.0
O98 O 0.02947 0.53346 0.51419 0.0
C99 C 0.05211 0.59477 0.55083 0.0
O100 O 0.07064 0.59825 0.54963 0.0
H101 H 0.03924 0.53367 0.5711 0.0
H102 H 0.09504 0.57826 0.54402 0.0
N103 N 0.06082 0.57705 0.49635 0.0
N104 N 0.0641 0.5958 0.46124 0.0
C105 C 0.05177 0.584 0.48004 0.0
C106 C 0.07964 0.58473 0.48768 0.0
C107 C 0.08168 0.59619 0.46607 0.0
C108 C 0.03813 0.52595 0.50066 0.0
O109 O 0.05676 0.53801 0.49375 0.0
H110 H 0.0365 0.58083 0.48248 0.0
H111 H 0.09112 0.58231 0.49648 0.0
O112 O 0.03778 0.57777 0.54215 0.0
H113 H 0.10162 0.56093 0.58468 0.0
H114 H 0.09514 0.60412 0.45481 0.0
Cu115 Cu 0.52444 0.56759 0.53897 0.0
N116 N 0.5417 0.5948 0.53084 0.0
N117 N 0.56882 0.62278 0.51706 0.0
C118 C 0.5582 0.60225 0.51611 0.0
C119 C 0.55842 0.62837 0.53284 0.0
C120 C 0.54185 0.61113 0.54141 0.0
O121 O 0.53648 0.5621 0.569 0.0
C122 C 0.51382 0.55581 0.48781 0.0
O123 O 0.5149 0.57362 0.48798 0.0
H124 H 0.56283 0.59274 0.50604 0.0
H125 H 0.53113 0.61056 0.55527 0.0
N126 N 0.49934 0.56329 0.54896 0.0
N127 N 0.4671 0.54565 0.56031 0.0
C128 C 0.48476 0.54585 0.55874 0.0
C129 C 0.49066 0.57456 0.54415 0.0
C130 C 0.4708 0.56376 0.55122 0.0
C131 C 0.55493 0.56693 0.57041 0.0
O132 O 0.56553 0.5722 0.54922 0.0
H133 H 0.48675 0.53302 0.56286 0.0
H134 H 0.49788 0.58908 0.53478 0.0
O135 O 0.51873 0.55007 0.5084 0.0
H136 H 0.56268 0.6438 0.53837 0.0
H137 H 0.45977 0.56858 0.54889 0.0
Cu138 Cu 0.71454 0.90479 0.3395 0.0
N139 N 0.72589 0.93079 0.32605 0.0
N140 N 0.7262 0.95828 0.31103 0.0
C141 C 0.71593 0.94112 0.32439 0.0
C142 C 0.74336 0.95893 0.30398 0.0
C143 C 0.74325 0.94199 0.31358 0.0
O144 O 0.7004 0.90596 0.37128 0.0
C145 C 0.71362 0.88649 0.29232 0.0
O146 O 0.73271 0.89978 0.29652 0.0
H147 H 0.70088 0.93551 0.33148 0.0
H148 H 0.75463 0.93778 0.31066 0.0
N149 N 0.73394 0.89856 0.35082 0.0
N150 N 0.74622 0.87829 0.3607 0.0
C151 C 0.72968 0.87939 0.35455 0.0
C152 C 0.75392 0.9102 0.35487 0.0
C153 C 0.76156 0.89769 0.36111 0.0
C154 C 0.71259 0.91934 0.38789 0.0
O155 O 0.73166 0.92967 0.38184 0.0
H156 H 0.71462 0.86649 0.35261 0.0
H157 H 0.76237 0.92651 0.35299 0.0
O158 O 0.70109 0.88545 0.30943 0.0
H159 H 0.75479 0.97046 0.29212 0.0
H160 H 0.77721 0.90248 0.36503 0.0
Cu161 Cu 0.2053 0.89724 0.3714 0.0
N162 N 0.18111 0.88444 0.35189 0.0
N163 N 0.15394 0.85854 0.33256 0.0
C164 C 0.16912 0.86409 0.35002 0.0
C165 C 0.15639 0.87609 0.32308 0.0
C166 C 0.1731 0.89205 0.33513 0.0
O167 O 0.19899 0.8798 0.40221 0.0
C168 C 0.22962 0.91426 0.32969 0.0
O169 O 0.21864 0.92307 0.33014 0.0
H170 H 0.17207 0.85351 0.36037 0.0
H171 H 0.17928 0.908 0.33127 0.0
N172 N 0.21305 0.92388 0.38303 0.0
N173 N 0.23408 0.95663 0.39377 0.0
C174 C 0.23189 0.93792 0.39092 0.0
C175 C 0.20292 0.93406 0.3811 0.0
C176 C 0.21585 0.95424 0.38762 0.0
C177 C 0.18446 0.87904 0.41514 0.0
O178 O 0.17721 0.89064 0.40766 0.0
H179 H 0.24408 0.9347 0.39294 0.0
H180 H 0.18749 0.92748 0.37429 0.0
O181 O 0.22657 0.90097 0.34682 0.0
H182 H 0.14699 0.87728 0.3082 0.0
H183 H 0.21224 0.96631 0.38729 0.0
Cu184 Cu 0.21193 0.4113 0.35966 0.0
N185 N 0.2065 0.42166 0.33011 0.0
N186 N 0.1909 0.42082 0.29293 0.0
C187 C 0.19296 0.40984 0.31179 0.0
C188 C 0.20379 0.44042 0.29963 0.0
C189 C 0.21336 0.4409 0.32273 0.0
O190 O 0.18501 0.39091 0.37112 0.0
C191 C 0.24771 0.41714 0.34091 0.0
O192 O 0.2488 0.43473 0.33725 0.0
H193 H 0.1846 0.39344 0.31254 0.0
H194 H 0.22419 0.45427 0.33362 0.0
N195 N 0.22429 0.43096 0.38584 0.0
N196 N 0.24138 0.44319 0.42321 0.0
C197 C 0.23797 0.431 0.40234 0.0
C198 C 0.21894 0.44383 0.39633 0.0
C199 C 0.22944 0.45135 0.41959 0.0
C200 C 0.17899 0.38963 0.39436 0.0
O201 O 0.19236 0.39855 0.41323 0.0
H202 H 0.2437 0.42061 0.40038 0.0
H203 H 0.20708 0.44621 0.38877 0.0
O204 O 0.23164 0.4029 0.35058 0.0
H205 H 0.20562 0.45347 0.28915 0.0
H206 H 0.22749 0.461 0.43346 0.0
Cu207 Cu 0.1904 0.35999 0.87123 0.0
N208 N 0.18858 0.34283 0.84388 0.0
N209 N 0.19879 0.33506 0.80738 0.0
C210 C 0.20364 0.34852 0.82715 0.0
C211 C 0.17983 0.32016 0.81179 0.0
C212 C 0.17359 0.32491 0.83456 0.0
O213 O 0.21845 0.37047 0.88425 0.0
C214 C 0.16231 0.36761 0.84863 0.0
O215 O 0.15295 0.34781 0.85098 0.0
H216 H 0.21759 0.36287 0.82878 0.0
H217 H 0.15897 0.31628 0.8431 0.0
N218 N 0.17307 0.34657 0.89838 0.0
N219 N 0.15513 0.34322 0.93368 0.0
C220 C 0.16861 0.35623 0.91688 0.0
C221 C 0.16204 0.32668 0.90352 0.0
C222 C 0.15101 0.32457 0.92539 0.0
C223 C 0.22125 0.35646 0.89359 0.0
O224 O 0.20558 0.33815 0.89508 0.0
H225 H 0.17517 0.37256 0.91786 0.0
H226 H 0.16187 0.31458 0.89207 0.0
O227 O 0.18064 0.37785 0.85689 0.0
H228 H 0.17101 0.30706 0.79921 0.0
H229 H 0.14041 0.31038 0.93408 0.0
Cu230 Cu 0.69375 0.88498 0.84436 0.0
N231 N 0.6761 0.85804 0.83344 0.0
N232 N 0.66741 0.82614 0.8216 0.0
C233 C 0.68256 0.84478 0.82868 0.0
C234 C 0.65067 0.82779 0.82189 0.0
C235 C 0.65605 0.84743 0.82929 0.0
O236 O 0.70891 0.88131 0.87379 0.0
C237 C 0.69198 0.90048 0.79673 0.0
O238 O 0.67317 0.88902 0.80336 0.0
H239 H 0.69822 0.8489 0.83023 0.0
H240 H 0.646 0.85341 0.83147 0.0
N241 N 0.68201 0.89896 0.85968 0.0
N242 N 0.68259 0.9261 0.87807 0.0
C243 C 0.69348 0.9175 0.87064 0.0
C244 C 0.66303 0.89556 0.86022 0.0
C245 C 0.66336 0.91233 0.87154 0.0
C246 C 0.69737 0.87217 0.89288 0.0
O247 O 0.67837 0.86717 0.89062 0.0
H248 H 0.70972 0.92491 0.872 0.0
H249 H 0.64996 0.88224 0.85228 0.0
O250 O 0.70559 0.90104 0.81217 0.0
H251 H 0.63554 0.81561 0.81749 0.0
H252 H 0.65048 0.91431 0.87443 0.0
Cu253 Cu 0.18971 0.8917 0.87065 0.0
N254 N 0.17499 0.89268 0.84176 0.0
N255 N 0.15868 0.88265 0.80326 0.0
C256 C 0.16656 0.87769 0.82356 0.0
C257 C 0.16223 0.90157 0.80899 0.0
C258 C 0.17223 0.90769 0.83276 0.0
O259 O 0.17343 0.86432 0.88372 0.0
C260 C 0.2258 0.91906 0.85317 0.0
O261 O 0.21546 0.92857 0.85395 0.0
H262 H 0.16703 0.86371 0.82471 0.0
H263 H 0.17767 0.9223 0.84228 0.0
N264 N 0.19372 0.90958 0.89865 0.0
N265 N 0.20614 0.9256 0.93699 0.0
C266 C 0.20526 0.91166 0.91969 0.0
C267 C 0.18696 0.92265 0.90268 0.0
C268 C 0.19461 0.93255 0.92628 0.0
C269 C 0.15772 0.86201 0.89501 0.0
O270 O 0.15491 0.87766 0.89698 0.0
H271 H 0.2132 0.90332 0.92191 0.0
H272 H 0.17714 0.9248 0.88951 0.0
O273 O 0.21694 0.90033 0.85904 0.0
H274 H 0.15814 0.91046 0.79675 0.0
H275 H 0.19171 0.94387 0.93492 0.0
Cu276 Cu 0.3489 0.21605 0.69926 0.0
N277 N 0.32747 0.21815 0.6857 0.0
N278 N 0.31194 0.23322 0.66753 0.0
C279 C 0.32698 0.23553 0.68355 0.0
C280 C 0.30254 0.21364 0.65934 0.0
C281 C 0.31214 0.20434 0.67069 0.0
O282 O 0.36046 0.23736 0.72707 0.0
C283 C 0.3776 0.21294 0.66348 0.0
O284 O 0.38674 0.21007 0.68331 0.0
H285 H 0.33848 0.24997 0.6917 0.0
H286 H 0.30912 0.18903 0.6668 0.0
N287 N 0.33843 0.19038 0.71382 0.0
N288 N 0.33347 0.15973 0.72425 0.0
C289 C 0.34373 0.17618 0.70939 0.0
C290 C 0.32415 0.18257 0.73184 0.0
C291 C 0.32109 0.16372 0.73838 0.0
C292 C 0.36635 0.23516 0.7495 0.0
O293 O 0.36854 0.21932 0.7535 0.0
H294 H 0.35525 0.17805 0.6961 0.0
H295 H 0.31672 0.19024 0.73993 0.0
O296 O 0.36385 0.21739 0.66758 0.0
H297 H 0.29031 0.20687 0.64517 0.0
H298 H 0.31066 0.15382 0.75258 0.0
Cu299 Cu 0.87256 0.20735 0.68797 0.0
N300 N 0.89063 0.20832 0.66284 0.0
N301 N 0.9108 0.22205 0.6289 0.0
C302 C 0.89506 0.22049 0.64222 0.0
C303 C 0.91643 0.21017 0.64162 0.0
C304 C 0.90395 0.2017 0.66252 0.0
O305 O 0.88351 0.23661 0.69556 0.0
C306 C 0.84215 0.17087 0.67154 0.0
O307 O 0.85717 0.16783 0.67727 0.0
H308 H 0.88768 0.22916 0.63817 0.0
H309 H 0.9052 0.19225 0.67707 0.0
N310 N 0.87183 0.19518 0.7199 0.0
N311 N 0.85795 0.17936 0.75694 0.0
C312 C 0.85613 0.18885 0.73594 0.0
C313 C 0.88417 0.18956 0.73112 0.0
C314 C 0.87568 0.17984 0.75394 0.0
C315 C 0.90193 0.24471 0.70325 0.0
O316 O 0.90932 0.23268 0.70751 0.0
H317 H 0.84328 0.19065 0.73169 0.0
H318 H 0.8982 0.1921 0.72321 0.0
O319 O 0.84533 0.1891 0.6733 0.0
H320 H 0.929 0.20816 0.63663 0.0
H321 H 0.88214 0.17365 0.76723 0.0
Cu322 Cu 0.87757 0.73158 0.68867 0.0
N323 N 0.87256 0.74686 0.6649 0.0
N324 N 0.85861 0.75225 0.62989 0.0
C325 C 0.8608 0.7385 0.64365 0.0
C326 C 0.86949 0.77005 0.64307 0.0
C327 C 0.87815 0.76669 0.66469 0.0
O328 O 0.85032 0.70931 0.69623 0.0
C329 C 0.9126 0.74064 0.6642 0.0
O330 O 0.91352 0.75835 0.66562 0.0
H331 H 0.85341 0.72242 0.63894 0.0
H332 H 0.88769 0.77785 0.67921 0.0
N333 N 0.89029 0.74594 0.71918 0.0
N334 N 0.90703 0.75162 0.75692 0.0
C335 C 0.90083 0.74043 0.73475 0.0
C336 C 0.8899 0.76137 0.73174 0.0
C337 C 0.90036 0.76499 0.75507 0.0
C338 C 0.84257 0.70673 0.71864 0.0
O339 O 0.85438 0.71576 0.73889 0.0
H340 H 0.90338 0.72798 0.73009 0.0
H341 H 0.88189 0.76885 0.72502 0.0
O342 O 0.897 0.72515 0.67287 0.0
H343 H 0.87099 0.78444 0.6376 0.0
H344 H 0.90206 0.77591 0.77 0.0
Cu345 Cu 0.84921 0.70433 0.17857 0.0
N346 N 0.85104 0.69002 0.14974 0.0
N347 N 0.8658 0.68346 0.11669 0.0
C348 C 0.86824 0.69604 0.13686 0.0
C349 C 0.84622 0.66888 0.11692 0.0
C350 C 0.83718 0.67289 0.13738 0.0
O351 O 0.8755 0.71416 0.1965 0.0
C352 C 0.82336 0.71466 0.15449 0.0
O353 O 0.81447 0.69488 0.15112 0.0
H354 H 0.88223 0.70966 0.14198 0.0
H355 H 0.82159 0.664 0.14266 0.0
N356 N 0.82961 0.6882 0.20239 0.0
N357 N 0.81195 0.68157 0.23878 0.0
C358 C 0.82647 0.69596 0.22425 0.0
C359 C 0.81662 0.66808 0.20296 0.0
C360 C 0.80573 0.66395 0.22544 0.0
C361 C 0.87733 0.69987 0.2068 0.0
O362 O 0.86177 0.68139 0.20572 0.0
H363 H 0.83508 0.71192 0.22954 0.0
H364 H 0.8153 0.65717 0.18833 0.0
O365 O 0.84051 0.72355 0.16636 0.0
H366 H 0.83895 0.65612 0.1034 0.0
H367 H 0.79406 0.64914 0.23135 0.0
Cu368 Cu 0.39289 0.23017 0.19214 0.0
N369 N 0.40261 0.21407 0.17754 0.0
N370 N 0.40318 0.18571 0.16664 0.0
C371 C 0.39505 0.19414 0.182 0.0
C372 C 0.41637 0.20101 0.15185 0.0
C373 C 0.41592 0.21844 0.15855 0.0
O374 O 0.38117 0.21684 0.22571 0.0
C375 C 0.37395 0.2487 0.16137 0.0
O376 O 0.37559 0.25937 0.18236 0.0
H377 H 0.38301 0.18575 0.19532 0.0
H378 H 0.42407 0.233 0.14939 0.0
N379 N 0.41354 0.25641 0.20106 0.0
N380 N 0.42657 0.28854 0.2152 0.0
C381 C 0.41061 0.26958 0.21537 0.0
C382 C 0.43233 0.2673 0.19208 0.0
C383 C 0.44046 0.28718 0.20089 0.0
C384 C 0.39429 0.21582 0.24042 0.0
O385 O 0.41284 0.22423 0.23219 0.0
H386 H 0.39658 0.2655 0.22474 0.0
H387 H 0.43927 0.26154 0.17896 0.0
O388 O 0.37761 0.23402 0.16308 0.0
H389 H 0.42535 0.19965 0.13681 0.0
H390 H 0.45489 0.29984 0.19582 0.0
Cu391 Cu 0.86038 0.23558 0.19649 0.0
N392 N 0.84615 0.23866 0.16889 0.0
N393 N 0.82683 0.22868 0.13277 0.0
C394 C 0.83277 0.22279 0.15409 0.0
C395 C 0.83681 0.24919 0.13436 0.0
C396 C 0.84871 0.25532 0.15673 0.0
O397 O 0.84152 0.20933 0.21078 0.0
C398 C 0.8918 0.24332 0.16123 0.0
O399 O 0.87855 0.23974 0.14262 0.0
H400 H 0.82863 0.20723 0.15799 0.0
H401 H 0.85928 0.27076 0.16287 0.0
N402 N 0.86856 0.25526 0.223 0.0
N403 N 0.88487 0.27173 0.25956 0.0
C404 C 0.88091 0.25649 0.24256 0.0
C405 C 0.86451 0.27032 0.22757 0.0
C406 C 0.87451 0.28047 0.25025 0.0
C407 C 0.82811 0.20918 0.22532 0.0
O408 O 0.82931 0.22653 0.2317 0.0
H409 H 0.8867 0.24616 0.24433 0.0
H410 H 0.855 0.27364 0.21537 0.0
O411 O 0.88587 0.23898 0.18445 0.0
H412 H 0.83611 0.25909 0.12 0.0
H413 H 0.87445 0.29348 0.25891 0.0
Co414 Co 0.02521 0.67148 0.27197 0.0
O415 O 0.04219 0.66271 0.28876 0.0
O416 O 0.01892 0.66612 0.30885 0.0
C417 C 0.01737 0.65009 0.2368 0.0
O418 O 1.00424 0.67963 0.26029 0.0
Co419 Co 0.0368 0.69165 0.21836 0.0
O420 O 1.00963 0.68847 0.21845 0.0
C421 C 0.05662 0.71646 0.2657 0.0
C422 C 0.03281 0.66102 0.31006 0.0
C423 C 0.99934 0.685 0.23887 0.0
O424 O 0.04589 0.70111 0.28009 0.0
O425 O 0.0558 0.71542 0.24089 0.0
O426 O 1.00751 0.64385 0.25813 0.0
O427 O 0.03245 0.6684 0.23797 0.0
Co428 Co 0.42485 0.4478 0.2955 0.0
O429 O 0.45063 0.46047 0.27892 0.0
O430 O 0.42229 0.45482 0.26 0.0
C431 C 0.43687 0.46635 0.33292 0.0
O432 O 0.39541 0.43615 0.30635 0.0
Co433 Co 0.41691 0.42357 0.34577 0.0
O434 O 0.39081 0.42301 0.34609 0.0
C435 C 0.42275 0.40716 0.29654 0.0
C436 C 0.44159 0.46205 0.25841 0.0
C437 C 0.38436 0.42806 0.32629 0.0
O438 O 0.42008 0.42017 0.28385 0.0
O439 O 0.42394 0.40738 0.32133 0.0
O440 O 0.43203 0.47363 0.31316 0.0
O441 O 0.43509 0.44872 0.32907 0.0
Co442 Co 0.64681 0.06675 0.26162 0.0
O443 O 0.62182 0.04814 0.27738 0.0
O444 O 0.64885 0.07129 0.29897 0.0
C445 C 0.63284 0.07602 0.2296 0.0
O446 O 0.67508 0.08873 0.25163 0.0
Co447 Co 0.655 0.05884 0.20484 0.0
O448 O 0.67871 0.08637 0.20872 0.0
C449 C 0.66199 0.03764 0.24806 0.0
C450 C 0.63016 0.05678 0.29943 0.0
C451 C 0.6853 0.09519 0.23074 0.0
O452 O 0.65661 0.04665 0.26476 0.0
O453 O 0.66154 0.03981 0.22353 0.0
O454 O 0.63615 0.08453 0.25247 0.0
O455 O 0.63643 0.06118 0.22749 0.0
Co456 Co 0.03483 0.42024 0.76228 0.0
O457 O 0.02337 0.43312 0.74091 0.0
O458 O 0.05575 0.44394 0.74512 0.0
C459 C 1.01206 0.38804 0.7478 0.0
O460 O 0.05343 0.41137 0.78047 0.0
Co461 Co 1.01208 0.38793 0.80349 0.0
O462 O 0.03569 0.38398 0.80469 0.0
C463 C 0.02248 0.43078 0.81269 0.0
C464 C 0.04158 0.44604 0.73417 0.0
C465 C 0.05222 0.39695 0.7948 0.0
O466 O 0.03514 0.43686 0.79395 0.0
O467 O 1.01086 0.41198 0.81749 0.0
O468 O 0.02794 0.39951 0.73445 0.0
O469 O 1.01042 0.39635 0.76879 0.0
Co470 Co 0.66136 0.66504 0.77068 0.0
O471 O 0.63626 0.65534 0.7883 0.0
O472 O 0.65689 0.64336 0.79429 0.0
C473 C 0.6711 0.69836 0.77797 0.0
O474 O 0.68911 0.67175 0.75687 0.0
Co475 Co 0.67099 0.69148 0.72222 0.0
O476 O 0.69802 0.69429 0.72491 0.0
C477 C 0.64028 0.64801 0.71912 0.0
C478 C 0.64034 0.64301 0.80056 0.0
C479 C 0.70187 0.68349 0.74008 0.0
O480 O 0.6467 0.64501 0.74092 0.0
O481 O 0.64652 0.6657 0.70997 0.0
O482 O 0.67433 0.68806 0.79541 0.0
O483 O 0.66158 0.68811 0.75736 0.0
Co484 Co 0.39587 0.04141 0.75727 0.0
O485 O 0.41698 0.05412 0.73238 0.0
O486 O 0.39914 0.02104 0.73857 0.0
C487 C 0.38042 0.0594 0.74764 0.0
O488 O 0.37242 0.02242 0.7799 0.0
Co489 Co 0.39128 0.06639 0.80235 0.0
O490 O 0.36708 0.04035 0.81068 0.0
C491 C 0.4253 0.05879 0.8024 0.0
C492 C 0.41316 0.03595 0.72587 0.0
C493 C 0.36256 0.0236 0.79924 0.0
O494 O 0.41639 0.04464 0.78492 0.0
O495 O 0.41885 0.07072 0.80934 0.0
O496 O 0.37685 0.04366 0.73339 0.0
O497 O 0.39407 0.06445 0.76547 0.0
Co498 Co 0.6965 0.9947 0.59613 0.0
O499 O 0.71172 0.9845 0.61561 0.0
O500 O 0.68582 0.98582 0.63078 0.0
C501 C 0.69406 0.97736 0.55781 0.0
O502 O 0.67605 1.00316 0.58292 0.0
Co503 Co 0.71147 0.0198 0.54617 0.0
O504 O 0.68465 0.01753 0.54394 0.0
C505 C 0.72788 0.04021 0.59736 0.0
C506 C 0.69955 0.98082 0.63469 0.0
C507 C 0.67267 0.01123 0.56286 0.0
O508 O 0.71567 0.02383 0.60942 0.0
O509 O 0.72916 0.04087 0.57264 0.0
O510 O 0.68174 0.96837 0.57657 0.0
O511 O 0.7078 0.99577 0.56328 0.0
Co512 Co 0.09011 0.77673 0.60262 0.0
O513 O 0.11516 0.78659 0.58418 0.0
O514 O 0.08692 0.78182 0.56628 0.0
C515 C 0.10424 0.79825 0.63769 0.0
O516 O 0.06152 0.76772 0.61542 0.0
Co517 Co 0.08439 0.75752 0.65706 0.0
O518 O 0.05933 0.75891 0.65723 0.0
C519 C 0.07857 0.73225 0.60968 0.0
C520 C 0.106 0.78812 0.56379 0.0
C521 C 0.05177 0.76196 0.63682 0.0
O522 O 0.08187 0.74708 0.59465 0.0
O523 O 0.08033 0.73418 0.63442 0.0
O524 O 0.09952 0.80432 0.61671 0.0
O525 O 0.10171 0.78018 0.63614 0.0
Co526 Co 0.29851 0.38761 0.6101 0.0
O527 O 0.27329 0.36943 0.62546 0.0
O528 O 0.30083 0.3913 0.64748 0.0
C529 C 0.28627 0.39887 0.57854 0.0
O530 O 0.32689 0.40921 0.60013 0.0
Co531 Co 0.30583 0.37812 0.55392 0.0
O532 O 0.32898 0.40627 0.55695 0.0
C533 C 0.305 0.35239 0.59622 0.0
C534 C 0.28203 0.37703 0.64772 0.0
C535 C 0.33595 0.41584 0.57851 0.0
O536 O 0.30644 0.36604 0.61248 0.0
O537 O 0.30251 0.35327 0.57179 0.0
O538 O 0.28927 0.40666 0.60184 0.0
O539 O 0.28849 0.38315 0.57604 0.0
Co540 Co 0.69918 0.77681 0.08648 0.0
O541 O 0.68556 0.78757 0.06512 0.0
O542 O 0.71823 0.79999 0.06606 0.0
C543 C 0.67758 0.74333 0.07501 0.0
O544 O 0.71921 0.7694 0.10386 0.0
Co545 Co 0.67855 0.7466 0.1308 0.0
O546 O 0.70165 0.74188 0.12809 0.0
C547 C 0.69118 0.79009 0.13968 0.0
C548 C 0.70289 0.80043 0.05578 0.0
C549 C 0.71794 0.75456 0.1174 0.0
O550 O 0.70074 0.79486 0.11791 0.0
O551 O 0.68041 0.77165 0.14665 0.0
O552 O 0.69225 0.75504 0.06011 0.0
O553 O 0.67576 0.75238 0.0952 0.0
Co554 Co 0.3264 1.00037 0.13744 0.0
O555 O 0.30467 0.99344 0.1612 0.0
O556 O 0.32124 0.97681 0.15803 0.0
C557 C 0.34268 0.03434 0.14664 0.0
O558 O 0.35064 1.00384 0.11644 0.0
Co559 Co 0.33351 0.02942 0.09151 0.0
O560 O 0.35891 0.02889 0.08794 0.0
C561 C 0.29887 0.98776 0.08965 0.0
C562 C 0.30748 0.97903 0.16967 0.0
C563 C 0.36239 0.01605 0.09913 0.0
O564 O 0.30627 0.98262 0.10888 0.0
O565 O 0.30637 1.00603 0.08201 0.0
O566 O 0.34519 0.02214 0.16166 0.0
O567 O 0.32952 0.02552 0.12824 0.0
Co568 Co 0.06863 0.38386 0.10334 0.0
O569 O 0.09362 0.39539 0.08467 0.0
O570 O 0.07047 0.36283 0.08461 0.0
C571 C 0.06091 0.40787 0.09179 0.0
O572 O 0.04078 0.36542 0.118 0.0
Co573 Co 0.05854 0.40511 0.14737 0.0
O574 O 0.03096 0.38145 0.14582 0.0
C575 C 0.08645 0.38945 0.15742 0.0
C576 C 0.0876 0.37697 0.07631 0.0
C577 C 0.02755 0.36566 0.13286 0.0
O578 O 0.08254 0.38058 0.13493 0.0
O579 O 0.07938 0.4007 0.16501 0.0
O580 O 0.05682 0.39272 0.07605 0.0
O581 O 0.06995 0.40835 0.11323 0.0
Co582 Co 0.37104 0.33003 0.95167 0.0
O583 O 0.38462 0.31862 0.97217 0.0
O584 O 0.3594 0.32187 0.98593 0.0
C585 C 0.36838 0.312 0.91408 0.0
O586 O 0.35168 0.33948 0.93749 0.0
Co587 Co 0.38669 0.35425 0.90161 0.0
O588 O 0.36 0.35221 0.89771 0.0
C589 C 0.4042 0.37481 0.95249 0.0
C590 C 0.37212 0.31568 0.99062 0.0
C591 C 0.34816 0.34674 0.91676 0.0
O592 O 0.39132 0.35893 0.96484 0.0
O593 O 0.40529 0.37511 0.92774 0.0
O594 O 0.35543 0.30381 0.93243 0.0
O595 O 0.3827 0.33022 0.91926 0.0
Co596 Co 0.74621 0.11139 0.94564 0.0
O597 O 0.77198 0.12076 0.93005 0.0
O598 O 0.74489 0.11573 0.90843 0.0
C599 C 0.75847 0.13327 0.98038 0.0
O600 O 0.71707 0.1021 0.95622 0.0
Co601 Co 0.73946 0.09163 0.99964 0.0
O602 O 0.7137 0.09165 0.99749 0.0
C603 C 0.7367 0.06749 0.95301 0.0
C604 C 0.76397 0.12139 0.90812 0.0
C605 C 0.70663 0.09519 0.97696 0.0
O606 O 0.73868 0.0821 0.9386 0.0
O607 O 0.7383 0.06902 0.97778 0.0
O608 O 0.75471 0.13899 0.95842 0.0
O609 O 0.75644 0.11535 0.97991 0.0
Co610 Co 0.98352 0.71206 0.94209 0.0
O611 O 0.95811 0.69441 0.95769 0.0
O612 O 0.98505 0.71754 0.97933 0.0
C613 C 0.97038 0.72125 0.90885 0.0
O614 O 1.01213 0.73327 0.93191 0.0
Co615 Co 0.99144 0.70203 0.88617 0.0
O616 O 0.01561 0.72926 0.88931 0.0
C617 C 0.9961 0.68044 0.93083 0.0
C618 C 0.96613 0.70358 0.9796 0.0
C619 C 0.02234 0.73881 0.91089 0.0
O620 O 0.99237 0.69123 0.94689 0.0
O621 O 0.99508 0.68163 0.90617 0.0
O622 O 0.97374 0.73029 0.93136 0.0
O623 O 0.97338 0.70599 0.90783 0.0
Co624 Co 0.38067 0.12518 0.44529 0.0
O625 O 0.36624 0.13587 0.4254 0.0
O626 O 0.39869 0.14735 0.42305 0.0
C627 C 0.35756 0.09192 0.43586 0.0
O628 O 0.4012 0.11748 0.46042 0.0
Co629 Co 0.36273 0.09702 0.49188 0.0
O630 O 0.38666 0.09359 0.49053 0.0
C631 C 0.37602 0.14063 0.4984 0.0
C632 C 0.38302 0.14791 0.41423 0.0
C633 C 0.40166 0.1048 0.47662 0.0
O634 O 0.38497 0.14443 0.47629 0.0
O635 O 0.36481 0.12259 0.50642 0.0
O636 O 0.37144 0.1028 0.41956 0.0
O637 O 0.35747 0.10157 0.45656 0.0
Co638 Co 1.00085 0.34952 0.46005 0.0
O639 O 0.97614 0.33621 0.47968 0.0
O640 O 0.99937 0.3272 0.47953 0.0
C641 C 1.00814 0.38176 0.47081 0.0
O642 O 0.02872 0.35897 0.4445 0.0
Co643 Co 1.00987 0.37958 0.41539 0.0
O644 O 0.03757 0.38402 0.41621 0.0
C645 C 0.98205 0.33547 0.40632 0.0
C646 C 0.98233 0.32418 0.48826 0.0
C647 C 0.04154 0.37221 0.42904 0.0
O648 O 0.9864 0.33112 0.42876 0.0
O649 O 0.98886 0.35362 0.39854 0.0
O650 O 1.01284 0.37153 0.48671 0.0
O651 O 0.99899 0.37218 0.44976 0.0
Co652 Co 0.74756 0.72474 0.42879 0.0
O653 O 0.77196 0.73133 0.41095 0.0
O654 O 0.74539 0.70056 0.41258 0.0
C655 C 0.74538 0.75108 0.41262 0.0
O656 O 0.71924 0.71186 0.44376 0.0
Co657 Co 0.74383 0.75423 0.46776 0.0
O658 O 0.7146 0.73604 0.46232 0.0
C659 C 0.76395 0.73113 0.48388 0.0
C660 C 0.76317 0.71239 0.40351 0.0
C661 C 0.70782 0.7179 0.45399 0.0
O662 O 0.75927 0.72087 0.46228 0.0
O663 O 0.76004 0.74535 0.48868 0.0
O664 O 0.73868 0.73435 0.39903 0.0
O665 O 0.7537 0.75157 0.43463 0.0
H666 H 0.01784 0.49295 0.09623 0.0
H667 H 0.05107 0.50846 0.0253 0.0
H668 H 0.02793 0.46788 0.10507 0.0
H669 H 0.06122 0.48306 0.03414 0.0
H670 H 0.04814 0.41562 0.04542 0.0
H671 H 0.04223 0.44388 0.03615 0.0
H672 H 0.05842 0.46552 0.1154 0.0
H673 H 0.06419 0.43754 0.12465 0.0
C674 C 0.0277 0.49128 0.08281 0.0
C675 C 0.03381 0.50274 0.06021 0.0
C676 C 0.03345 0.47689 0.08785 0.0
C677 C 0.04526 0.4734 0.07022 0.0
C678 C 0.05196 0.48533 0.04795 0.0
C679 C 0.04642 0.50004 0.04308 0.0
C680 C 0.05034 0.42639 0.06082 0.0
C681 C 0.05646 0.42424 0.0858 0.0
C682 C 0.04719 0.44267 0.05545 0.0
C683 C 0.04992 0.45693 0.07506 0.0
C684 C 0.05607 0.45472 0.09995 0.0
C685 C 0.05935 0.43864 0.10522 0.0
H686 H 0.62094 0.6139 0.031 0.0
H687 H 0.57185 0.62172 0.05668 0.0
H688 H 0.64444 0.64977 0.04007 0.0
H689 H 0.59536 0.65774 0.06543 0.0
H690 H 0.64551 0.71663 0.10327 0.0
H691 H 0.62232 0.68066 0.09442 0.0
H692 H 0.65477 0.68362 0.02533 0.0
H693 H 0.67819 0.71969 0.03446 0.0
C694 C 0.6151 0.62324 0.03858 0.0
C695 C 0.5944 0.61474 0.04314 0.0
C696 C 0.62863 0.64395 0.04361 0.0
C697 C 0.62194 0.65687 0.0535 0.0
C698 C 0.60122 0.64833 0.05815 0.0
C699 C 0.58766 0.62762 0.05299 0.0
C700 C 0.64777 0.70964 0.08619 0.0
C701 C 0.66379 0.72116 0.06959 0.0
C702 C 0.63432 0.68895 0.081 0.0
C703 C 0.63648 0.67904 0.05906 0.0
C704 C 0.65266 0.69056 0.04256 0.0
C705 C 0.66608 0.71132 0.04772 0.0
H706 H 0.48358 0.03481 0.09933 0.0
H707 H 0.4671 0.02773 0.01795 0.0
H708 H 0.44923 0.02523 0.11045 0.0
H709 H 0.4326 0.01767 0.02912 0.0
H710 H 0.38543 0.03358 0.05707 0.0
H711 H 0.41691 0.03584 0.04546 0.0
H712 H 0.41348 0.99994 0.11147 0.0
H713 H 0.38168 0.99793 0.12354 0.0
C714 C 0.47254 0.03079 0.08377 0.0
C715 C 0.47826 0.03229 0.05769 0.0
C716 C 0.45274 0.02518 0.0902 0.0
C717 C 0.43808 0.02092 0.07073 0.0
C718 C 0.44354 0.02125 0.04467 0.0
C719 C 0.46334 0.02687 0.03824 0.0
C720 C 0.3912 0.026 0.06916 0.0
C721 C 0.38093 0.01566 0.09143 0.0
C722 C 0.40929 0.02715 0.06228 0.0
C723 C 0.41785 0.01803 0.0774 0.0
C724 C 0.40743 1.00729 0.09943 0.0
C725 C 0.38913 1.00602 0.10629 0.0
H726 H 0.49816 0.08233 0.53263 0.0
H727 H 0.49028 0.06794 0.45072 0.0
H728 H 0.47557 0.09644 0.52881 0.0
H729 H 0.46783 0.08182 0.44685 0.0
H730 H 0.43402 0.11697 0.4439 0.0
H731 H 0.4625 0.11094 0.44865 0.0
H732 H 0.43939 0.08184 0.52149 0.0
H733 H 0.41126 0.08786 0.51686 0.0
C734 C 0.49211 0.08272 0.5137 0.0
C735 C 0.49615 0.07405 0.49199 0.0
C736 C 0.47892 0.09056 0.51151 0.0
C737 C 0.46961 0.09018 0.4875 0.0
C738 C 0.47471 0.08262 0.46561 0.0
C739 C 0.48762 0.07458 0.46786 0.0
C740 C 0.43514 0.10949 0.46105 0.0
C741 C 0.42011 0.1028 0.47984 0.0
C742 C 0.45146 0.10593 0.46375 0.0
C743 C 0.4534 0.09586 0.48551 0.0
C744 C 0.43871 0.08985 0.50464 0.0
C745 C 0.42237 0.09317 0.50181 0.0
H746 H 0.0432 0.50836 0.458 0.0
H747 H 0.01483 0.49401 0.53237 0.0
H748 H 0.03539 0.47338 0.45197 0.0
H749 H 1.00683 0.45851 0.52633 0.0
H750 H 0.02166 0.40501 0.51616 0.0
H751 H 0.02619 0.43911 0.52384 0.0
H752 H 1.00682 0.43925 0.44498 0.0
H753 H 1.00256 0.40578 0.4373 0.0
C754 C 0.03482 0.49754 0.47282 0.0
C755 C 0.02936 0.50387 0.49546 0.0
C756 C 0.03038 0.47746 0.4694 0.0
C757 C 0.02053 0.46309 0.48869 0.0
C758 C 0.01457 0.46924 0.51118 0.0
C759 C 0.01882 0.48945 0.51446 0.0
C760 C 0.01851 0.41244 0.50049 0.0
C761 C 1.01194 0.40271 0.47606 0.0
C762 C 0.02087 0.43185 0.50496 0.0
C763 C 0.01688 0.44195 0.485 0.0
C764 C 1.01025 0.43208 0.46071 0.0
C765 C 1.0078 0.4128 0.45632 0.0
H766 H 0.59703 0.66037 0.53427 0.0
H767 H 0.58498 0.61505 0.47469 0.0
H768 H 0.62961 0.68247 0.51606 0.0
H769 H 0.61795 0.63738 0.45634 0.0
H770 H 0.68872 0.67608 0.45285 0.0
H771 H 0.65437 0.65242 0.46612 0.0
H772 H 0.64392 0.70273 0.47824 0.0
H773 H 0.67809 0.72624 0.46557 0.0
C774 C 0.60116 0.65518 0.51705 0.0
C775 C 0.58818 0.63592 0.50587 0.0
C776 C 0.61994 0.66791 0.50656 0.0
C777 C 0.62636 0.66182 0.48454 0.0
C778 C 0.61352 0.64249 0.4734 0.0
C779 C 0.59462 0.6297 0.48393 0.0
C780 C 0.67899 0.68204 0.45802 0.0
C781 C 0.68629 0.7031 0.4585 0.0
C782 C 0.65928 0.66847 0.46558 0.0
C783 C 0.64649 0.67571 0.47369 0.0
C784 C 0.65351 0.69666 0.47276 0.0
C785 C 0.67312 0.71016 0.46535 0.0
H786 H 1.00206 0.57271 0.94841 0.0
H787 H 0.03399 0.60558 0.01803 0.0
H788 H 1.00129 0.60243 0.93316 0.0
H789 H 0.03328 0.63578 1.00272 0.0
H790 H 0.99564 0.66821 0.98108 0.0
H791 H 1.00512 0.64366 0.99631 0.0
H792 H 0.02164 0.63712 0.91859 0.0
H793 H 1.01192 0.66109 0.90331 0.0
C794 C 1.00951 0.5866 0.96005 0.0
C795 C 0.01827 0.587 0.9842 0.0
C796 C 1.00906 0.60364 0.95136 0.0
C797 C 0.01715 0.62145 0.96679 0.0
C798 C 0.02682 0.6222 0.99051 0.0
C799 C 0.02751 0.60509 0.99909 0.0
C800 C 1.00139 0.6616 0.9673 0.0
C801 C 1.0026 0.66634 0.94088 0.0
C802 C 1.00702 0.6477 0.97607 0.0
C803 C 0.01401 0.63836 0.9586 0.0
C804 C 0.01602 0.64381 0.93246 0.0
C805 C 1.01035 0.65754 0.92371 0.0
H806 H 0.48172 0.50268 0.99852 0.0
H807 H 0.51126 0.47194 0.03073 0.0
H808 H 0.45307 0.47003 0.98515 0.0
H809 H 0.48268 0.43922 0.01692 0.0
H810 H 0.42054 0.38128 1.00265 0.0
H811 H 0.44663 0.41376 0.02224 0.0
H812 H 0.44637 0.44459 0.95263 0.0
H813 H 0.42061 0.41279 0.93357 0.0
C814 C 0.48214 0.48898 1.00278 0.0
C815 C 0.499 0.4901 0.01552 0.0
C816 C 0.46567 0.47017 0.99503 0.0
C817 C 0.46548 0.45183 0.99974 0.0
C818 C 0.48211 0.45291 0.01313 0.0
C819 C 0.49863 0.47176 0.02085 0.0
C820 C 0.42589 0.39507 0.99178 0.0
C821 C 0.41847 0.39429 0.96645 0.0
C822 C 0.44097 0.41368 1.00288 0.0
C823 C 0.44871 0.43195 0.98907 0.0
C824 C 0.44074 0.43106 0.96412 0.0
C825 C 0.42597 0.41264 0.95305 0.0
H826 H 0.58686 0.06474 0.02692 0.0
H827 H 0.5808 0.06127 0.94344 0.0
H828 H 0.62189 0.07368 0.0236 0.0
H829 H 0.61572 0.06944 0.94003 0.0
H830 H 0.68519 0.10564 0.94276 0.0
H831 H 0.64966 0.09617 0.94491 0.0
H832 H 0.64359 0.06168 0.01354 0.0
H833 H 0.67873 0.07168 1.012 0.0
C834 C 0.59286 0.0654 1.00783 0.0
C835 C 0.5809 0.06218 0.98547 0.0
C836 C 0.61305 0.07056 1.00587 0.0
C837 C 0.62187 0.0724 0.98149 0.0
C838 C 0.6097 0.06859 0.95913 0.0
C839 C 0.58954 0.06362 0.9611 0.0
C840 C 0.67625 0.09612 0.95833 0.0
C841 C 0.68503 0.0897 0.97734 0.0
C842 C 0.65579 0.09054 0.95951 0.0
C843 C 0.6436 0.07823 0.97957 0.0
C844 C 0.65243 0.07158 0.99818 0.0
C845 C 0.67274 0.0773 0.99718 0.0
H846 H 0.5918 0.06026 0.53147 0.0
H847 H 0.55467 1.00263 0.5673 0.0
H848 H 0.62145 0.05652 0.53924 0.0
H849 H 0.58388 0.99872 0.57467 0.0
H850 H 0.64297 1.00199 0.5991 0.0
H851 H 0.61529 0.00932 0.59713 0.0
H852 H 0.63479 0.03599 0.52215 0.0
H853 H 0.66233 0.02896 0.52419 0.0
C854 C 0.59001 0.04703 0.54147 0.0
C855 C 0.57079 0.03178 0.54872 0.0
C856 C 0.60697 0.04471 0.54566 0.0
C857 C 0.60519 0.02717 0.55742 0.0
C858 C 0.58607 0.0125 0.56579 0.0
C859 C 0.56921 0.01474 0.56142 0.0
C860 C 0.64133 0.00937 0.58217 0.0
C861 C 0.65501 0.01472 0.5618 0.0
C862 C 0.62541 0.0136 0.58101 0.0
C863 C 0.62272 0.02344 0.55951 0.0
C864 C 0.63644 0.0288 0.53926 0.0
C865 C 0.65222 0.0245 0.54035 0.0
H866 H 0.06368 0.61355 0.59738 0.0
H867 H 0.03648 0.61504 0.52449 0.0
H868 H 0.06778 0.64642 0.60981 0.0
H869 H 0.04064 0.64839 0.53686 0.0
H870 H 0.0808 0.71959 0.55949 0.0
H871 H 0.07029 0.68468 0.5446 0.0
H872 H 0.04843 0.66285 0.62092 0.0
H873 H 0.05897 0.69704 0.63571 0.0
C874 C 0.05792 0.62066 0.58441 0.0
C875 C 0.04924 0.61152 0.56035 0.0
C876 C 0.06038 0.63959 0.59141 0.0
C877 C 0.05456 0.65012 0.57432 0.0
C878 C 0.04535 0.64072 0.5504 0.0
C879 C 0.04261 0.6215 0.54353 0.0
C880 C 0.07365 0.70728 0.57296 0.0
C881 C 0.07124 0.71131 0.59897 0.0
C882 C 0.0675 0.68727 0.56442 0.0
C883 C 0.05877 0.67098 0.58171 0.0
C884 C 0.0555 0.67502 0.60723 0.0
C885 C 0.06165 0.69478 0.61571 0.0
H886 H 0.4305 0.53693 0.54119 0.0
H887 H 0.45989 0.51515 0.59298 0.0
H888 H 0.39839 0.50637 0.54822 0.0
H889 H 0.42767 0.48426 0.59965 0.0
H890 H 0.36096 0.43827 0.61955 0.0
H891 H 0.3925 0.47084 0.6177 0.0
H892 H 0.38546 0.47037 0.53452 0.0
H893 H 0.35428 0.43821 0.53622 0.0
C894 C 0.43009 0.52579 0.5544 0.0
C895 C 0.44783 0.52846 0.56639 0.0
C896 C 0.4117 0.50817 0.55824 0.0
C897 C 0.41054 0.49283 0.5743 0.0
C898 C 0.42808 0.49584 0.58723 0.0
C899 C 0.44655 0.51344 0.58322 0.0
C900 C 0.36615 0.44517 0.60091 0.0
C901 C 0.35508 0.43556 0.57805 0.0
C902 C 0.38423 0.46376 0.59985 0.0
C903 C 0.39137 0.47322 0.57597 0.0
C904 C 0.38023 0.46363 0.55324 0.0
C905 C 0.36239 0.44506 0.55424 0.0
H906 H 0.77414 0.87494 0.38964 0.0
H907 H 0.7201 0.84011 0.34285 0.0
H908 H 0.77413 0.84379 0.40024 0.0
H909 H 0.71951 0.80894 0.35449 0.0
H910 H 0.73492 0.75796 0.36427 0.0
H911 H 0.73612 0.78909 0.34962 0.0
H912 H 0.75428 0.81517 0.42692 0.0
H913 H 0.75361 0.78458 0.44119 0.0
C914 C 0.76233 0.86069 0.38151 0.0
C915 C 0.74698 0.86006 0.36571 0.0
C916 C 0.76217 0.84279 0.38781 0.0
C917 C 0.74664 0.82383 0.37851 0.0
C918 C 0.73171 0.82326 0.36194 0.0
C919 C 0.73191 0.84116 0.35557 0.0
C920 C 0.73903 0.77034 0.37808 0.0
C921 C 0.74423 0.76887 0.40381 0.0
C922 C 0.73972 0.78815 0.36973 0.0
C923 C 0.74557 0.80473 0.38704 0.0
C924 C 0.75022 0.80292 0.41291 0.0
C925 C 0.74963 0.78527 0.42116 0.0
H926 H 0.24601 0.99339 0.37302 0.0
H927 H 0.26388 0.96262 0.42774 0.0
H928 H 0.27708 0.02534 0.38288 0.0
H929 H 0.29489 0.99473 0.43802 0.0
H930 H 0.33224 0.06335 0.46956 0.0
H931 H 0.30312 0.02992 0.45916 0.0
H932 H 0.31588 0.03978 0.37778 0.0
H933 H 0.3453 0.07302 0.38819 0.0
C934 C 0.25654 0.99349 0.38727 0.0
C935 C 0.25245 0.97549 0.39968 0.0
C936 C 0.27441 0.01175 0.39276 0.0
C937 C 0.28847 0.01258 0.41121 0.0
C938 C 0.28433 0.9946 0.42376 0.0
C939 C 0.26665 0.97622 0.41782 0.0
C940 C 0.329 0.05826 0.44947 0.0
C941 C 0.34112 0.07085 0.42971 0.0
C942 C 0.31234 0.0391 0.44353 0.0
C943 C 0.30712 0.03224 0.41764 0.0
C944 C 0.31943 0.04469 0.3979 0.0
C945 C 0.33636 0.06367 0.40388 0.0
H946 H 0.14823 0.3799 0.359 0.0
H947 H 0.16073 0.38362 0.44134 0.0
H948 H 0.11448 0.37386 0.36762 0.0
H949 H 0.12702 0.37771 0.44991 0.0
H950 H 0.05831 0.35249 0.45515 0.0
H951 H 0.09024 0.35367 0.44666 0.0
H952 H 0.10123 0.39514 0.38441 0.0
H953 H 0.06957 0.39397 0.39272 0.0
C954 C 0.1437 0.37905 0.37895 0.0
C955 C 0.15733 0.38234 0.39945 0.0
C956 C 0.12436 0.37579 0.38391 0.0
C957 C 0.11805 0.37556 0.40949 0.0
C958 C 0.13128 0.37771 0.42999 0.0
C959 C 0.15068 0.38114 0.42504 0.0
C960 C 0.06755 0.36188 0.43968 0.0
C961 C 0.06125 0.37316 0.42471 0.0
C962 C 0.0859 0.36258 0.43483 0.0
C963 C 0.0983 0.37437 0.41468 0.0
C964 C 0.09197 0.38561 0.39978 0.0
C965 C 0.07381 0.38508 0.40476 0.0
H966 H 0.16399 0.40474 0.85863 0.0
H967 H 0.1335 0.34997 0.81148 0.0
H968 H 0.13905 0.41426 0.84389 0.0
H969 H 0.10905 0.3593 0.79708 0.0
H970 H 0.05315 0.36386 0.81278 0.0
H971 H 0.08197 0.36012 0.82368 0.0
H972 H 0.12208 0.42197 0.80204 0.0
H973 H 0.09281 0.42581 0.79075 0.0
C974 C 0.15238 0.39504 0.84466 0.0
C975 C 0.15068 0.37648 0.83646 0.0
C976 C 0.13804 0.40044 0.83627 0.0
C977 C 0.12177 0.38733 0.81964 0.0
C978 C 0.12106 0.36956 0.81025 0.0
C979 C 0.13521 0.36425 0.81849 0.0
C980 C 0.06804 0.37676 0.81022 0.0
C981 C 0.07048 0.39513 0.80068 0.0
C982 C 0.08465 0.37457 0.81646 0.0
C983 C 0.10443 0.3907 0.81367 0.0
C984 C 0.10707 0.40926 0.80451 0.0
C985 C 0.09028 0.41139 0.79784 0.0
H986 H 0.64183 0.79377 0.79113 0.0
H987 H 0.69648 0.81791 0.83755 0.0
H988 H 0.64442 0.76386 0.78037 0.0
H989 H 0.69948 0.78835 0.82603 0.0
H990 H 0.68397 0.72084 0.82331 0.0
H991 H 0.68384 0.75224 0.83372 0.0
H992 H 0.66432 0.75357 0.75523 0.0
H993 H 0.66411 0.72207 0.74503 0.0
C994 C 0.6544 0.79273 0.79907 0.0
C995 C 0.66894 0.80836 0.81519 0.0
C996 C 0.65604 0.77566 0.79263 0.0
C997 C 0.67225 0.7737 0.80217 0.0
C998 C 0.68673 0.78926 0.81843 0.0
C999 C 0.68512 0.80636 0.82482 0.0
C1000 C 0.67994 0.72801 0.80819 0.0
C1001 C 0.67395 0.71888 0.78339 0.0
C1002 C 0.67987 0.74604 0.81414 0.0
C1003 C 0.67382 0.75536 0.79541 0.0
C1004 C 0.66865 0.74662 0.77031 0.0
C1005 C 0.66872 0.72863 0.76438 0.0
H1006 H 0.24972 0.95844 0.86542 0.0
H1007 H 0.25093 0.9075 0.82934 0.0
H1008 H 0.28417 0.98073 0.85376 0.0
H1009 H 0.2863 0.93026 0.81759 0.0
H1010 H 0.33682 0.98841 0.77207 0.0
H1011 H 0.30519 0.96003 0.78736 0.0
H1012 H 0.31798 0.98806 0.86376 0.0
H1013 H 0.34891 0.01649 0.84837 0.0
C1014 C 0.2575 0.95193 0.85519 0.0
C1015 C 0.24758 0.93122 0.84819 0.0
C1016 C 0.27739 0.96474 0.84869 0.0
C1017 C 0.2881 0.95731 0.83487 0.0
C1018 C 0.2784 0.93643 0.82822 0.0
C1019 C 0.25828 0.9234 0.83508 0.0
C1020 C 0.33296 0.98828 0.79221 0.0
C1021 C 0.34508 1.0049 0.80887 0.0
C1022 C 0.31493 0.97197 0.80101 0.0
C1023 C 0.30889 0.97197 0.82666 0.0
C1024 C 0.32193 0.98783 0.84372 0.0
C1025 C 0.33967 1.00415 0.83489 0.0
H1026 H 0.72498 0.96957 0.26229 0.0
H1027 H 0.70954 0.97499 0.34074 0.0
H1028 H 0.70863 0.98802 0.24699 0.0
H1029 H 0.69446 0.99496 0.32615 0.0
H1030 H 0.65156 0.01309 0.29023 0.0
H1031 H 0.66731 0.99394 0.30556 0.0
H1032 H 0.71016 0.01845 0.24372 0.0
H1033 H 0.69335 0.03601 0.22753 0.0
C1034 C 0.71851 0.97528 0.27628 0.0
C1035 C 0.71856 0.97109 0.3026 0.0
C1036 C 0.70917 0.98594 0.26764 0.0
C1037 C 0.70015 0.99316 0.28527 0.0
C1038 C 0.70077 0.98933 0.31182 0.0
C1039 C 0.70962 0.97814 0.32031 0.0
C1040 C 0.66421 0.0141 0.27988 0.0
C1041 C 0.67105 0.02572 0.25751 0.0
C1042 C 0.67344 1.00333 0.28877 0.0
C1043 C 0.6901 1.00449 0.27591 0.0
C1044 C 0.69707 0.01655 0.2538 0.0
C1045 C 0.68748 0.02677 0.24453 0.0
H1046 H 0.14051 0.84554 0.28362 0.0
H1047 H 0.13494 0.82528 0.36223 0.0
H1048 H 0.1172 0.81106 0.26871 0.0
H1049 H 0.11047 0.79069 0.34781 0.0
H1050 H 0.08047 0.72662 0.31003 0.0
H1051 H 0.10407 0.76085 0.32686 0.0
H1052 H 0.0845 0.78618 0.26601 0.0
H1053 H 0.06232 0.75235 0.24853 0.0
C1054 C 0.13393 0.83368 0.29778 0.0
C1055 C 0.13945 0.83812 0.32408 0.0
C1056 C 0.1204 0.81381 0.28931 0.0
C1057 C 0.11153 0.79779 0.30698 0.0
C1058 C 0.11706 0.80236 0.33343 0.0
C1059 C 0.131 0.82223 0.3418 0.0
C1060 C 0.08132 0.7396 0.30038 0.0
C1061 C 0.06979 0.73682 0.27776 0.0
C1062 C 0.09477 0.75928 0.31007 0.0
C1063 C 0.09663 0.7766 0.29766 0.0
C1064 C 0.08427 0.77351 0.2757 0.0
C1065 C 0.07131 0.754 0.26574 0.0
H1066 H 0.27977 0.44256 0.31254 0.0
H1067 H 0.2571 0.38819 0.35746 0.0
H1068 H 0.31144 0.44329 0.30762 0.0
H1069 H 0.28905 0.38858 0.35191 0.0
H1070 H 0.35744 0.41316 0.36579 0.0
H1071 H 0.32353 0.40798 0.36704 0.0
H1072 H 0.3289 0.42836 0.28825 0.0
H1073 H 0.36314 0.43408 0.28723 0.0
C1074 C 0.28142 0.43051 0.32109 0.0
C1075 C 0.26583 0.41536 0.33555 0.0
C1076 C 0.29966 0.43086 0.31806 0.0
C1077 C 0.303 0.41604 0.32936 0.0
C1078 C 0.28716 0.40042 0.34317 0.0
C1079 C 0.26875 0.40005 0.34616 0.0
C1080 C 0.35143 0.4165 0.34864 0.0
C1081 C 0.36325 0.42425 0.32645 0.0
C1082 C 0.33181 0.41332 0.3493 0.0
C1083 C 0.32332 0.41775 0.3278 0.0
C1084 C 0.33496 0.42505 0.30538 0.0
C1085 C 0.35465 0.42829 0.30474 0.0
H1086 H 0.25924 0.38464 0.87629 0.0
H1087 H 0.22881 0.33341 0.92632 0.0
H1088 H 0.29074 0.38414 0.88351 0.0
H1089 H 0.25962 0.33247 0.93291 0.0
H1090 H 0.32068 0.34122 0.95448 0.0
H1091 H 0.29203 0.3468 0.95144 0.0
H1092 H 0.30603 0.36443 0.87179 0.0
H1093 H 0.33489 0.3594 0.87507 0.0
C1094 C 0.25933 0.37354 0.88918 0.0
C1095 C 0.24142 0.3591 0.90071 0.0
C1096 C 0.27734 0.37303 0.89308 0.0
C1097 C 0.27792 0.35813 0.90872 0.0
C1098 C 0.26011 0.34434 0.92102 0.0
C1099 C 0.24226 0.34482 0.91708 0.0
C1100 C 0.31768 0.34628 0.93631 0.0
C1101 C 0.3302 0.34969 0.91503 0.0
C1102 C 0.30113 0.34947 0.93449 0.0
C1103 C 0.29647 0.3561 0.9113 0.0
C1104 C 0.30914 0.35968 0.89013 0.0
C1105 C 0.32569 0.35655 0.89197 0.0
H1106 H 0.66685 0.95099 0.87281 0.0
H1107 H 0.71622 0.94723 0.90796 0.0
H1108 H 0.68094 0.98566 0.89012 0.0
H1109 H 0.73053 0.98193 0.92467 0.0
H1110 H 0.73607 0.03476 0.9755 0.0
H1111 H 0.72302 1.00074 0.95716 0.0
H1112 H 0.71037 0.02019 0.88455 0.0
H1113 H 0.72328 0.05436 0.90298 0.0
C1114 C 0.68064 0.9575 0.88432 0.0
C1115 C 0.6904 0.94631 0.88898 0.0
C1116 C 0.68886 0.97746 0.89396 0.0
C1117 C 0.70692 0.98661 0.90869 0.0
C1118 C 0.71654 0.97533 0.91355 0.0
C1119 C 0.70841 0.95547 0.90378 0.0
C1120 C 0.73069 0.03191 0.95554 0.0
C1121 C 0.73074 0.04738 0.94077 0.0
C1122 C 0.72325 0.01236 0.94499 0.0
C1123 C 0.71554 1.00769 0.91942 0.0
C1124 C 0.71595 0.02323 0.90442 0.0
C1125 C 0.72355 0.04287 0.91492 0.0
H1126 H 0.13019 0.85518 0.93145 0.0
H1127 H 0.14772 0.82397 0.87633 0.0
H1128 H 0.09869 0.82408 0.93817 0.0
H1129 H 0.1161 0.7924 0.88349 0.0
H1130 H 0.04524 0.76191 0.953 0.0
H1131 H 0.08027 0.78949 0.9532 0.0
H1132 H 0.0818 0.78235 0.87023 0.0
H1133 H 0.04729 0.75491 0.86998 0.0
C1134 C 0.12751 0.84147 0.92124 0.0
C1135 C 0.1413 0.84205 0.90311 0.0
C1136 C 0.10946 0.82358 0.92524 0.0
C1137 C 0.1047 0.80579 0.91111 0.0
C1138 C 0.11918 0.80597 0.89436 0.0
C1139 C 0.13738 0.82396 0.89044 0.0
C1140 C 0.05307 0.76625 0.93483 0.0
C1141 C 0.04332 0.75619 0.9115 0.0
C1142 C 0.07316 0.78201 0.93494 0.0
C1143 C 0.08395 0.788 0.91175 0.0
C1144 C 0.07418 0.77786 0.88853 0.0
C1145 C 0.05419 0.76223 0.88839 0.0
H1146 H 0.34752 0.14443 0.68733 0.0
H1147 H 0.32649 0.13585 0.76594 0.0
H1148 H 0.35596 0.11763 0.6925 0.0
H1149 H 0.33436 0.10874 0.77078 0.0
H1150 H 0.38092 0.08761 0.78076 0.0
H1151 H 0.36665 0.10943 0.77418 0.0
H1152 H 0.34235 0.08036 0.69963 0.0
H1153 H 0.35684 0.05827 0.70628 0.0
C1154 C 0.34453 0.13674 0.70562 0.0
C1155 C 0.33654 0.14251 0.72631 0.0
C1156 C 0.34914 0.1212 0.70846 0.0
C1157 C 0.34595 0.11115 0.7321 0.0
C1158 C 0.3372 0.11635 0.75241 0.0
C1159 C 0.33253 0.1318 0.74954 0.0
C1160 C 0.37235 0.08564 0.76306 0.0
C1161 C 0.37004 0.07122 0.74401 0.0
C1162 C 0.36405 0.09811 0.75936 0.0
C1163 C 0.35331 0.09662 0.73641 0.0
C1164 C 0.35065 0.08193 0.71746 0.0
C1165 C 0.35882 0.06922 0.72132 0.0
H1166 H 0.94098 0.26363 0.69076 0.0
H1167 H 0.89568 0.27607 0.71992 0.0
H1168 H 0.96676 0.29859 0.69929 0.0
H1169 H 0.9218 0.31171 0.7283 0.0
H1170 H 0.97761 0.36301 0.77299 0.0
H1171 H 0.94998 0.33001 0.75896 0.0
H1172 H 0.98104 0.33361 0.68827 0.0
H1173 H 1.00898 0.36672 0.70261 0.0
C1174 C 0.93646 0.274 0.69867 0.0
C1175 C 0.91624 0.26699 0.70485 0.0
C1176 C 0.95132 0.29418 0.7034 0.0
C1177 C 0.94654 0.30811 0.71466 0.0
C1178 C 0.92612 0.30136 0.71989 0.0
C1179 C 0.91108 0.28101 0.71486 0.0
C1180 C 0.97863 0.35679 0.75444 0.0
C1181 C 0.99568 0.36752 0.73904 0.0
C1182 C 0.96259 0.3379 0.74624 0.0
C1183 C 0.96308 0.32905 0.72238 0.0
C1184 C 0.98013 0.33982 0.70688 0.0
C1185 C 0.99621 0.35882 0.71508 0.0
H1186 H 0.82139 0.69837 0.76347 0.0
H1187 H 0.81346 0.69542 0.68022 0.0
H1188 H 0.78668 0.69033 0.76855 0.0
H1189 H 0.77854 0.68695 0.68532 0.0
H1190 H 0.73059 0.7042 0.70419 0.0
H1191 H 0.76277 0.70606 0.69882 0.0
H1192 H 0.75074 0.66633 0.76347 0.0
H1193 H 0.71825 0.66463 0.76918 0.0
C1194 C 0.81213 0.69555 0.7462 0.0
C1195 C 0.82039 0.69774 0.72141 0.0
C1196 C 0.79212 0.69086 0.74915 0.0
C1197 C 0.77977 0.68827 0.72739 0.0
C1198 C 0.78768 0.68924 0.70257 0.0
C1199 C 0.80769 0.69389 0.69961 0.0
C1200 C 0.73465 0.69578 0.71736 0.0
C1201 C 0.72166 0.6843 0.73724 0.0
C1202 C 0.75315 0.69669 0.71405 0.0
C1203 C 0.75942 0.68622 0.73051 0.0
C1204 C 0.74649 0.67469 0.75045 0.0
C1205 C 0.72781 0.67368 0.75371 0.0
H1206 H 0.79413 0.70118 0.1174 0.0
H1207 H 0.82662 0.75132 0.17157 0.0
H1208 H 0.77105 0.71332 0.10728 0.0
H1209 H 0.80311 0.76372 0.16105 0.0
H1210 H 0.75897 0.78223 0.11309 0.0
H1211 H 0.78725 0.77594 0.12084 0.0
H1212 H 0.74499 0.71359 0.13795 0.0
H1213 H 0.71722 0.71971 0.13062 0.0
C1214 C 0.79658 0.71503 0.12695 0.0
C1215 C 0.81219 0.72508 0.1456 0.0
C1216 C 0.78325 0.72199 0.12109 0.0
C1217 C 0.78498 0.73933 0.13358 0.0
C1218 C 0.80136 0.75031 0.15104 0.0
C1219 C 0.81485 0.74323 0.15705 0.0
C1220 C 0.75578 0.76719 0.11846 0.0
C1221 C 0.73569 0.7515 0.12114 0.0
C1222 C 0.77198 0.76364 0.1231 0.0
C1223 C 0.76841 0.74422 0.12996 0.0
C1224 C 0.74836 0.72868 0.13254 0.0
C1225 C 0.73236 0.73226 0.12836 0.0
H1226 H 0.40511 0.16521 0.12428 0.0
H1227 H 0.38769 0.15769 0.20441 0.0
H1228 H 0.39293 0.12892 0.12003 0.0
H1229 H 0.375 0.12121 0.19995 0.0
H1230 H 0.36773 0.05761 0.18705 0.0
H1231 H 0.38462 0.09469 0.19253 0.0
H1232 H 0.35952 0.09857 0.11888 0.0
H1233 H 0.34287 0.0619 0.11342 0.0
C1234 C 0.3989 0.15589 0.14109 0.0
C1235 C 0.39727 0.16443 0.16464 0.0
C1236 C 0.39173 0.13501 0.13858 0.0
C1237 C 0.38283 0.1221 0.15958 0.0
C1238 C 0.38186 0.13071 0.18342 0.0
C1239 C 0.38893 0.1516 0.18589 0.0
C1240 C 0.366 0.06645 0.17198 0.0
C1241 C 0.35396 0.05679 0.14981 0.0
C1242 C 0.37557 0.08766 0.17517 0.0
C1243 C 0.37348 0.09964 0.1561 0.0
C1244 C 0.36172 0.08991 0.13378 0.0
C1245 C 0.35206 0.06881 0.13072 0.0
H1246 H 0.92246 0.26278 0.1972 0.0
H1247 H 0.91012 0.25646 0.11461 0.0
H1248 H 0.95605 0.2912 0.18989 0.0
H1249 H 0.94375 0.28499 0.10741 0.0
H1250 H 1.01226 0.32991 0.10464 0.0
H1251 H 0.98085 0.2982 0.11137 0.0
H1252 H 0.96749 0.32638 0.17535 0.0
H1253 H 0.99875 0.35796 0.16877 0.0
C1254 C 0.92703 0.26711 0.17743 0.0
C1255 C 0.91347 0.25739 0.1565 0.0
C1256 C 0.94624 0.28357 0.17328 0.0
C1257 C 0.95244 0.29058 0.14811 0.0
C1258 C 0.93944 0.27996 0.12704 0.0
C1259 C 0.92014 0.2636 0.13119 0.0
C1260 C 1.00262 0.32936 0.12012 0.0
C1261 C 1.00808 0.34656 0.13613 0.0
C1262 C 0.98461 0.31119 0.12394 0.0
C1263 C 0.97177 0.3097 0.14404 0.0
C1264 C 0.97721 0.3269 0.15997 0.0
C1265 C 0.99507 0.34509 0.156 0.0
H1266 H 0.306 0.23912 0.61757 0.0
H1267 H 0.31242 0.26382 0.69492 0.0
H1268 H 0.30464 0.26801 0.60003 0.0
H1269 H 0.30967 0.29219 0.67792 0.0
H1270 H 0.32522 0.35117 0.6394 0.0
H1271 H 0.32653 0.32214 0.65639 0.0
H1272 H 0.28671 0.28433 0.59394 0.0
H1273 H 0.28669 0.31379 0.57612 0.0
C1274 C 0.30662 0.25058 0.63083 0.0
C1275 C 0.30926 0.24931 0.65755 0.0
C1276 C 0.30577 0.26716 0.62085 0.0
C1277 C 0.30707 0.28266 0.63745 0.0
C1278 C 0.30912 0.28094 0.66435 0.0
C1279 C 0.31048 0.2646 0.67422 0.0
C1280 C 0.31687 0.33664 0.62927 0.0
C1281 C 0.30596 0.33477 0.60635 0.0
C1282 C 0.31742 0.31987 0.63915 0.0
C1283 C 0.30664 0.30065 0.62673 0.0
C1284 C 0.29558 0.29885 0.60385 0.0
C1285 C 0.29546 0.31575 0.59364 0.0
H1286 H 0.80941 0.16836 0.64424 0.0
H1287 H 0.82989 0.13191 0.68341 0.0
H1288 H 0.77878 0.13715 0.62977 0.0
H1289 H 0.79998 0.1012 0.66885 0.0
H1290 H 0.73975 0.04669 0.64937 0.0
H1291 H 0.76428 0.07893 0.67065 0.0
H1292 H 0.77088 0.11004 0.59882 0.0
H1293 H 0.74642 0.07836 0.57799 0.0
C1294 C 0.80729 0.15378 0.65003 0.0
C1295 C 0.82228 0.15271 0.66469 0.0
C1296 C 0.78981 0.13585 0.64164 0.0
C1297 C 0.78684 0.11649 0.64799 0.0
C1298 C 0.80145 0.11566 0.66373 0.0
C1299 C 0.81883 0.13341 0.67186 0.0
C1300 C 0.74624 0.06047 0.63828 0.0
C1301 C 0.74124 0.05972 0.61183 0.0
C1302 C 0.7604 0.07898 0.65041 0.0
C1303 C 0.76976 0.09723 0.63646 0.0
C1304 C 0.76396 0.09651 0.61038 0.0
C1305 C 0.75 0.07813 0.59831 0.0
H1306 H 0.92479 0.71283 0.67502 0.0
H1307 H 0.94154 0.76762 0.63305 0.0
H1308 H 0.95749 0.71604 0.66539 0.0
H1309 H 0.97403 0.771 0.62383 0.0
H1310 H 0.02843 0.76634 0.59885 0.0
H1311 H 0.9933 0.75811 0.60169 0.0
H1312 H 0.99182 0.73907 0.68051 0.0
H1313 H 0.02645 0.74698 0.6777 0.0
C1314 C 0.93524 0.72529 0.66332 0.0
C1315 C 0.93059 0.74002 0.65497 0.0
C1316 C 0.95408 0.72728 0.658 0.0
C1317 C 0.96857 0.74393 0.64403 0.0
C1318 C 0.96332 0.75792 0.63445 0.0
C1319 C 0.94466 0.75603 0.63991 0.0
C1320 C 0.0206 0.76039 0.61676 0.0
C1321 C 0.03048 0.75749 0.63804 0.0
C1322 C 1.00043 0.75565 0.61841 0.0
C1323 C 0.98959 0.74775 0.64131 0.0
C1324 C 0.99945 0.74472 0.66241 0.0
C1325 C 0.01953 0.74953 0.66083 0.0
H1326 H 0.91625 0.72772 0.19339 0.0
H1327 H 0.88207 0.67697 0.24293 0.0
H1328 H 0.94675 0.7263 0.20434 0.0
H1329 H 0.91214 0.67524 0.25342 0.0
H1330 H 0.98593 0.69641 0.19654 0.0
H1331 H 0.95847 0.70326 0.1928 0.0
H1332 H 0.94517 0.68932 0.2735 0.0
H1333 H 0.97295 0.68213 0.27731 0.0
C1334 C 0.91533 0.71663 0.20711 0.0
C1335 C 0.8967 0.70244 0.21719 0.0
C1336 C 0.93275 0.71559 0.21316 0.0
C1337 C 0.93195 0.70042 0.22954 0.0
C1338 C 0.91351 0.68718 0.24091 0.0
C1339 C 0.89618 0.68814 0.23475 0.0
C1340 C 0.97728 0.69478 0.21368 0.0
C1341 C 0.9818 0.68857 0.2373 0.0
C1342 C 0.96155 0.69899 0.21153 0.0
C1343 C 0.94961 0.69713 0.23285 0.0
C1344 C 0.95399 0.69088 0.25656 0.0
C1345 C 0.96992 0.68672 0.25878 0.0
H1346 H 0.39581 0.29628 0.21558 0.0
H1347 H 0.4587 0.3221 0.23597 0.0
H1348 H 0.3963 0.32653 0.23295 0.0
H1349 H 0.45924 0.35257 0.25345 0.0
H1350 H 0.44023 0.38591 0.3142 0.0
H1351 H 0.44252 0.35864 0.29227 0.0
H1352 H 0.41218 0.36467 0.22486 0.0
H1353 H 0.40996 0.3923 0.24682 0.0
C1354 C 0.40974 0.30843 0.22386 0.0
C1355 C 0.42717 0.30674 0.22477 0.0
C1356 C 0.41007 0.32586 0.23348 0.0
C1357 C 0.42779 0.3419 0.24455 0.0
C1358 C 0.44534 0.34037 0.24513 0.0
C1359 C 0.44507 0.32302 0.2351 0.0
C1360 C 0.43409 0.38153 0.29465 0.0
C1361 C 0.42474 0.39119 0.28233 0.0
C1362 C 0.43558 0.36601 0.28202 0.0
C1363 C 0.42755 0.35954 0.25687 0.0
C1364 C 0.41842 0.36932 0.24432 0.0
C1365 C 0.41721 0.38515 0.25684 0.0
H1366 H 0.80104 0.2038 0.26216 0.0
H1367 H 0.8123 0.17198 0.20059 0.0
H1368 H 0.76686 0.17557 0.26547 0.0
H1369 H 0.77806 0.1434 0.20426 0.0
H1370 H 0.70867 0.11445 0.27424 0.0
H1371 H 0.74446 0.13998 0.27595 0.0
H1372 H 0.74544 0.13974 0.19228 0.0
H1373 H 0.71003 0.11431 0.19049 0.0
C1374 C 0.79635 0.19053 0.24974 0.0
C1375 C 0.80931 0.1902 0.23093 0.0
C1376 C 0.77675 0.1743 0.25173 0.0
C1377 C 0.76961 0.15737 0.23487 0.0
C1378 C 0.78301 0.15643 0.21721 0.0
C1379 C 0.8027 0.17268 0.2153 0.0
C1380 C 0.71648 0.11999 0.25622 0.0
C1381 C 0.7064 0.11226 0.23224 0.0
C1382 C 0.73702 0.13455 0.2572 0.0
C1383 C 0.7479 0.14164 0.23424 0.0
C1384 C 0.73768 0.13423 0.21034 0.0
C1385 C 0.71725 0.11978 0.20935 0.0
H1386 H 0.9754 0.48876 0.91524 0.0
H1387 H 0.03103 0.49953 0.95126 0.0
H1388 H 0.98296 0.47539 0.87651 0.0
H1389 H 0.03852 0.48584 0.91259 0.0
H1390 H 0.05155 0.46851 0.83248 0.0
H1391 H 0.04675 0.4888 0.86632 0.0
H1392 H 0.98315 0.44508 0.86582 0.0
H1393 H 0.98789 0.42545 0.83231 0.0
C1394 C 0.98921 0.4882 0.91497 0.0
C1395 C 1.00245 0.49501 0.93658 0.0
C1396 C 0.99361 0.48057 0.89268 0.0
C1397 C 1.0113 0.47932 0.89137 0.0
C1398 C 0.02488 0.48676 0.91267 0.0
C1399 C 0.02053 0.49453 0.93496 0.0
C1400 C 0.03654 0.46361 0.83926 0.0
C1401 C 0.02013 0.44534 0.82978 0.0
C1402 C 0.03379 0.47507 0.85884 0.0
C1403 C 0.01453 0.46859 0.86897 0.0
C1404 C 0.99814 0.45081 0.85843 0.0
C1405 C 1.0009 0.43941 0.83924 0.0
H1406 H 0.59347 0.59435 0.9522 0.0
H1407 H 0.54061 0.57059 0.90237 0.0
H1408 H 0.61476 0.60893 0.9146 0.0
H1409 H 0.56176 0.58508 0.86501 0.0
H1410 H 0.60341 0.637 0.81268 0.0
H1411 H 0.58263 0.61885 0.84896 0.0
H1412 H 0.62641 0.60209 0.87306 0.0
H1413 H 0.64753 0.62067 0.83653 0.0
C1414 C 0.58637 0.59197 0.93323 0.0
C1415 C 0.56526 0.58149 0.93047 0.0
C1416 C 0.5986 0.60032 0.91163 0.0
C1417 C 0.59001 0.59841 0.88674 0.0
C1418 C 0.56893 0.58727 0.88392 0.0
C1419 C 0.55676 0.57895 0.90542 0.0
C1420 C 0.60859 0.62932 0.82553 0.0
C1421 C 0.62716 0.6303 0.82162 0.0
C1422 C 0.59658 0.61878 0.84634 0.0
C1423 C 0.60276 0.60891 0.86401 0.0
C1424 C 0.62124 0.60965 0.85997 0.0
C1425 C 0.63327 0.62014 0.83892 0.0
H1426 H 0.4808 0.05051 0.93892 0.0
H1427 H 0.53088 0.10207 0.90416 0.0
H1428 H 0.46148 0.04328 0.89854 0.0
H1429 H 0.51149 0.09484 0.86374 0.0
H1430 H 0.4574 0.09387 0.81941 0.0
H1431 H 0.48239 0.09804 0.85192 0.0
H1432 H 0.45793 0.03304 0.85204 0.0
H1433 H 0.43258 0.02889 0.81926 0.0
C1434 C 0.48784 0.06011 0.92255 0.0
C1435 C 0.50733 0.07704 0.92495 0.0
C1436 C 0.47678 0.05588 0.89932 0.0
C1437 C 0.48493 0.0685 0.87792 0.0
C1438 C 0.5047 0.08497 0.87998 0.0
C1439 C 0.51576 0.0892 0.90322 0.0
C1440 C 0.45768 0.0805 0.82587 0.0
C1441 C 0.44299 0.06105 0.81699 0.0
C1442 C 0.47208 0.08289 0.84444 0.0
C1443 C 0.47204 0.06586 0.85478 0.0
C1444 C 0.45817 0.04643 0.84463 0.0
C1445 C 0.44382 0.04405 0.82571 0.0
H1446 H 0.47449 0.04673 0.58193 0.0
H1447 H 0.46659 0.99067 0.61245 0.0
H1448 H 0.45778 0.05091 0.61929 0.0
H1449 H 0.45021 0.995 0.65034 0.0
H1450 H 0.446 0.06432 0.70054 0.0
H1451 H 0.4628 0.05908 0.66404 0.0
H1452 H 0.42073 0.99456 0.66523 0.0
H1453 H 0.40439 0.99981 0.70245 0.0
C1454 C 0.46934 0.03538 0.59679 0.0
C1455 C 0.47198 0.01842 0.59427 0.0
C1456 C 0.4598 0.0378 0.61832 0.0
C1457 C 0.45277 0.02341 0.63811 0.0
C1458 C 0.4552 1.00629 0.63542 0.0
C1459 C 0.46461 1.00379 0.6137 0.0
C1460 C 0.4404 0.049 0.6931 0.0
C1461 C 0.42383 0.0325 0.70437 0.0
C1462 C 0.44994 0.04599 0.672 0.0
C1463 C 0.44304 0.0264 0.66138 0.0
C1464 C 0.42663 0.00983 0.67298 0.0
C1465 C 0.41718 0.01285 0.69427 0.0
H1466 H 0.03636 0.50543 0.59264 0.0
H1467 H 0.09332 0.54919 0.62789 0.0
H1468 H 0.02991 0.48299 0.62893 0.0
H1469 H 0.0868 0.52684 0.66446 0.0
H1470 H 0.07797 0.47281 0.71344 0.0
H1471 H 0.08469 0.49616 0.67799 0.0
H1472 H 0.02159 0.47779 0.67324 0.0
H1473 H 0.01488 0.45403 0.70821 0.0
C1474 C 0.04745 0.51043 0.60825 0.0
C1475 C 0.06538 0.52929 0.60716 0.0
C1476 C 0.04372 0.4975 0.62924 0.0
C1477 C 0.05775 0.50296 0.64997 0.0
C1478 C 0.0757 0.52183 0.64884 0.0
C1479 C 0.07947 0.53474 0.62777 0.0
C1480 C 0.06553 0.47383 0.70495 0.0
C1481 C 0.04586 0.46145 0.71377 0.0
C1482 C 0.0694 0.48735 0.68459 0.0
C1483 C 0.05372 0.48898 0.6724 0.0
C1484 C 0.03408 0.47682 0.68164 0.0
C1485 C 0.03021 0.46326 0.70194 0.0
H1486 H 0.53945 0.56685 0.618 0.0
H1487 H 0.5942 0.57791 0.5812 0.0
H1488 H 0.55828 0.58176 0.6584 0.0
H1489 H 0.61296 0.59272 0.62179 0.0
H1490 H 0.64029 0.61323 0.70396 0.0
H1491 H 0.61787 0.5881 0.67094 0.0
H1492 H 0.58395 0.61933 0.66548 0.0
H1493 H 0.60643 0.6444 0.69767 0.0
C1494 C 0.55539 0.57193 0.61866 0.0
C1495 C 0.56535 0.57145 0.59617 0.0
C1496 C 0.56618 0.58054 0.64183 0.0
C1497 C 0.58712 0.58861 0.64318 0.0
C1498 C 0.59682 0.58655 0.62139 0.0
C1499 C 0.58606 0.57813 0.59808 0.0
C1500 C 0.62771 0.61432 0.69609 0.0
C1501 C 0.62501 0.63067 0.70332 0.0
C1502 C 0.615 0.60007 0.67713 0.0
C1503 C 0.59912 0.60172 0.66567 0.0
C1504 C 0.59586 0.61747 0.67413 0.0
C1505 C 0.60877 0.63187 0.6925 0.0
H1506 H 1.01175 0.59503 0.08391 0.0
H1507 H 0.97772 0.54447 0.13365 0.0
H1508 H 0.01677 0.61862 0.11947 0.0
H1509 H 0.98341 0.56787 0.16969 0.0
H1510 H 0.98328 0.6137 0.22626 0.0
H1511 H 0.97604 0.59098 0.18888 0.0
H1512 H 0.03414 0.6329 0.15793 0.0
H1513 H 0.04074 0.65597 0.19461 0.0
C1514 C 1.00548 0.58897 0.10257 0.0
C1515 C 0.99434 0.56787 0.10592 0.0
C1516 C 1.00844 0.60251 0.12311 0.0
C1517 C 1.00063 0.59535 0.1478 0.0
C1518 C 0.98938 0.57415 0.15101 0.0
C1519 C 0.98615 0.56063 0.13033 0.0
C1520 C 0.99441 0.61811 0.21131 0.0
C1521 C 1.01258 0.63666 0.21343 0.0
C1522 C 0.99036 0.60497 0.1899 0.0
C1523 C 1.00451 0.60985 0.17016 0.0
C1524 C 0.02263 0.62859 0.17229 0.0
C1525 C 0.02652 0.64186 0.1935 0.0
H1526 H 0.49106 0.53135 0.11646 0.0
H1527 H 0.53016 0.50789 0.13699 0.0
H1528 H 0.46973 0.51383 0.15319 0.0
H1529 H 0.50888 0.49016 0.17308 0.0
H1530 H 0.48215 0.48108 0.25251 0.0
H1531 H 0.50139 0.49762 0.21452 0.0
H1532 H 0.4464 0.48177 0.17211 0.0
H1533 H 0.42706 0.46562 0.21078 0.0
C1534 C 0.49496 0.52227 0.12861 0.0
C1535 C 0.5125 0.5213 0.12399 0.0
C1536 C 0.48272 0.51217 0.14967 0.0
C1537 C 0.48767 0.50075 0.16649 0.0
C1538 C 0.50482 0.49924 0.16113 0.0
C1539 C 0.51707 0.50941 0.14032 0.0
C1540 C 0.47409 0.48106 0.23511 0.0
C1541 C 0.45302 0.47192 0.23473 0.0
C1542 C 0.48516 0.49047 0.21315 0.0
C1543 C 0.47553 0.49093 0.18997 0.0
C1544 C 0.4544 0.4819 0.18961 0.0
C1545 C 0.44328 0.47252 0.21174 0.0
H1546 H 0.55728 0.10224 0.13117 0.0
H1547 H 0.59878 0.09941 0.07795 0.0
H1548 H 0.57652 0.09981 0.16764 0.0
H1549 H 0.61818 0.09722 0.11429 0.0
H1550 H 0.62597 0.06118 0.18 0.0
H1551 H 0.61147 0.07031 0.14405 0.0
H1552 H 0.60811 0.11505 0.19297 0.0
H1553 H 0.62238 0.10559 0.22926 0.0
C1554 C 0.57082 0.10166 0.12731 0.0
C1555 C 0.5764 0.10076 0.10171 0.0
C1556 C 0.58185 0.10024 0.1482 0.0
C1557 C 0.59871 0.09799 0.14386 0.0
C1558 C 0.605 0.09845 0.11828 0.0
C1559 C 0.59394 0.09977 0.09747 0.0
C1560 C 0.62229 0.07307 0.18306 0.0
C1561 C 0.62524 0.08261 0.20748 0.0
C1562 C 0.61411 0.07843 0.16238 0.0
C1563 C 0.60869 0.09347 0.16559 0.0
C1564 C 0.61198 0.10329 0.18993 0.0
C1565 C 0.62023 0.09794 0.21066 0.0
H1566 H 0.52831 0.0163 0.39885 0.0
H1567 H 0.57808 0.04245 0.45387 0.0
H1568 H 0.55157 0.02335 0.36366 0.0
H1569 H 0.60147 0.04909 0.41879 0.0
H1570 H 0.63837 0.07822 0.34548 0.0
H1571 H 0.61632 0.07007 0.38259 0.0
H1572 H 0.57316 0.0136 0.34451 0.0
H1573 H 0.59477 0.02219 0.30725 0.0
C1574 C 0.54422 0.02328 0.40346 0.0
C1575 C 0.55132 0.02883 0.42915 0.0
C1576 C 0.55762 0.0273 0.38327 0.0
C1577 C 0.57851 0.03677 0.38826 0.0
C1578 C 0.58557 0.0421 0.41407 0.0
C1579 C 0.57215 0.03825 0.43423 0.0
C1580 C 0.62426 0.06399 0.34523 0.0
C1581 C 0.61824 0.05094 0.32337 0.0
C1582 C 0.6116 0.05926 0.36654 0.0
C1583 C 0.59274 0.04126 0.36652 0.0
C1584 C 0.58726 0.02784 0.34503 0.0
C1585 C 0.59976 0.03268 0.3237 0.0
H1586 H 0.02706 0.58752 0.44291 0.0
H1587 H 0.09065 0.6277 0.43252 0.0
H1588 H 0.01958 0.60428 0.40807 0.0
H1589 H 0.08313 0.64435 0.39775 0.0
H1590 H 0.06335 0.65293 0.31706 0.0
H1591 H 0.0706 0.63792 0.35395 0.0
H1592 H 0.02043 0.63536 0.39424 0.0
H1593 H 1.01296 0.65029 0.35675 0.0
C1594 C 0.03951 0.60002 0.43347 0.0
C1595 C 0.05954 0.60603 0.44073 0.0
C1596 C 0.03517 0.60971 0.41339 0.0
C1597 C 0.0507 0.62569 0.39981 0.0
C1598 C 0.0707 0.63188 0.40732 0.0
C1599 C 0.07505 0.62225 0.42739 0.0
C1600 C 0.05387 0.64931 0.33379 0.0
C1601 C 0.03754 0.6529 0.3338 0.0
C1602 C 0.05813 0.64076 0.35515 0.0
C1603 C 0.04619 0.63538 0.37733 0.0
C1604 C 0.02989 0.63909 0.37748 0.0
C1605 C 0.02567 0.64781 0.35604 0.0
H1606 H 0.51191 0.56645 0.43828 0.0
H1607 H 0.49379 0.51412 0.48598 0.0
H1608 H 0.49306 0.54444 0.40164 0.0
H1609 H 0.47406 0.49192 0.44958 0.0
H1610 H 0.45495 0.45697 0.37186 0.0
H1611 H 0.47434 0.47808 0.40887 0.0
H1612 H 0.46011 0.52407 0.38575 0.0
H1613 H 0.44148 0.50321 0.34794 0.0
C1614 C 0.50392 0.55017 0.44089 0.0
C1615 C 0.50438 0.54202 0.46502 0.0
C1616 C 0.49286 0.53751 0.41993 0.0
C1617 C 0.48165 0.51631 0.42258 0.0
C1618 C 0.48259 0.50812 0.44661 0.0
C1619 C 0.49393 0.52083 0.46754 0.0
C1620 C 0.45585 0.47155 0.37476 0.0
C1621 C 0.44674 0.47846 0.35686 0.0
C1622 C 0.46694 0.48366 0.39613 0.0
C1623 C 0.46905 0.50296 0.40038 0.0
C1624 C 0.4593 0.50954 0.38288 0.0
C1625 C 0.4484 0.4975 0.3613 0.0
H1626 H 0.73926 0.88718 0.25598 0.0
H1627 H 0.67609 0.8556 0.27359 0.0
H1628 H 0.7327 0.86574 0.21815 0.0
H1629 H 0.66925 0.83418 0.23446 0.0
H1630 H 0.66851 0.78394 0.18264 0.0
H1631 H 0.67246 0.80746 0.21709 0.0
H1632 H 0.72054 0.85626 0.17574 0.0
H1633 H 0.71707 0.83216 0.14122 0.0
C1634 C 0.72379 0.87575 0.25169 0.0
C1635 C 0.70822 0.8732 0.26828 0.0
C1636 C 0.72 0.86347 0.22951 0.0
C1637 C 0.70041 0.84806 0.2227 0.0
C1638 C 0.68464 0.84566 0.23901 0.0
C1639 C 0.68849 0.85803 0.2615 0.0
C1640 C 0.67997 0.7997 0.18058 0.0
C1641 C 0.69267 0.80592 0.15894 0.0
C1642 C 0.68207 0.81337 0.20051 0.0
C1643 C 0.69691 0.83397 0.19973 0.0
C1644 C 0.70914 0.84047 0.17755 0.0
C1645 C 0.70706 0.82667 0.15748 0.0
H1646 H 0.25746 0.95303 0.32178 0.0
H1647 H 0.23698 0.89238 0.29227 0.0
H1648 H 0.27725 0.96713 0.28321 0.0
H1649 H 0.25695 0.90662 0.25302 0.0
H1650 H 0.3094 0.94736 0.19323 0.0
H1651 H 0.29288 0.93006 0.23328 0.0
H1652 H 0.26448 0.96668 0.23825 0.0
H1653 H 0.28064 0.98368 0.19873 0.0
C1654 C 0.25771 0.94268 0.30733 0.0
C1655 C 0.24578 0.92159 0.31021 0.0
C1656 C 0.26888 0.95078 0.28502 0.0
C1657 C 0.26839 0.93805 0.26468 0.0
C1658 C 0.25766 0.91686 0.26831 0.0
C1659 C 0.24636 0.90868 0.29087 0.0
C1660 C 0.29948 0.95156 0.2028 0.0
C1661 C 0.29648 0.96704 0.19272 0.0
C1662 C 0.29 0.94162 0.22573 0.0
C1663 C 0.27758 0.94717 0.23927 0.0
C1664 C 0.27423 0.96225 0.22869 0.0
C1665 C 0.28345 0.97195 0.20583 0.0
H1666 H 0.15456 0.38645 0.29166 0.0
H1667 H 0.19449 0.43775 0.24591 0.0
H1668 H 0.12934 0.37435 0.25679 0.0
H1669 H 0.16895 0.42575 0.21103 0.0
H1670 H 0.12219 0.39142 0.14649 0.0
H1671 H 0.14854 0.39631 0.17816 0.0
H1672 H 0.10878 0.38944 0.24058 0.0
H1673 H 0.08281 0.38484 0.20919 0.0
C1674 C 0.15811 0.39498 0.274 0.0
C1675 C 0.17653 0.41313 0.2716 0.0
C1676 C 0.1436 0.38808 0.25408 0.0
C1677 C 0.14718 0.3991 0.23122 0.0
C1678 C 0.16587 0.41684 0.22834 0.0
C1679 C 0.18037 0.42385 0.24841 0.0
C1680 C 0.11898 0.39039 0.16698 0.0
C1681 C 0.10054 0.38777 0.17549 0.0
C1682 C 0.13408 0.39339 0.18505 0.0
C1683 C 0.13072 0.39336 0.2118 0.0
C1684 C 0.11176 0.38938 0.22012 0.0
C1685 C 0.0969 0.38678 0.20217 0.0
H1686 H 0.13992 0.3217 0.97737 0.0
H1687 H 0.15061 0.37629 0.939 0.0
H1688 H 0.12503 0.33019 0.01351 0.0
H1689 H 0.13573 0.38472 0.97494 0.0
H1690 H 0.12313 0.4033 0.05343 0.0
H1691 H 0.14073 0.39532 0.02021 0.0
H1692 H 0.09514 0.33193 0.02264 0.0
H1693 H 0.07788 0.33982 0.05608 0.0
C1694 C 0.13901 0.33544 0.97656 0.0
C1695 C 0.1465 0.34829 0.95524 0.0
C1696 C 0.1305 0.34034 0.9973 0.0
C1697 C 0.12921 0.35818 0.9972 0.0
C1698 C 0.13681 0.37107 0.97594 0.0
C1699 C 0.14534 0.3662 0.95526 0.0
C1700 C 0.11699 0.38765 0.04701 0.0
C1701 C 0.09909 0.37221 0.05734 0.0
C1702 C 0.127 0.38308 0.02786 0.0
C1703 C 0.11932 0.36298 0.01865 0.0
C1704 C 0.10164 0.34753 0.02946 0.0
C1705 C 0.09167 0.35209 0.04856 0.0
H1706 H 0.72339 0.8568 0.90124 0.0
H1707 H 0.68468 0.87377 0.94084 0.0
H1708 H 0.72655 0.84095 0.94118 0.0
H1709 H 0.68796 0.85849 0.98026 0.0
H1710 H 0.67333 0.80565 0.03321 0.0
H1711 H 0.67492 0.8247 0.99491 0.0
H1712 H 0.73783 0.84382 0.98749 0.0
H1713 H 0.73613 0.82441 0.02609 0.0
C1714 C 0.71607 0.85772 0.91859 0.0
C1715 C 0.70378 0.86663 0.91769 0.0
C1716 C 0.71775 0.8485 0.94154 0.0
C1717 C 0.70713 0.84792 0.96409 0.0
C1718 C 0.69593 0.85798 0.96334 0.0
C1719 C 0.69422 0.86702 0.94065 0.0
C1720 C 0.6876 0.81404 0.02366 0.0
C1721 C 0.70461 0.81351 0.03312 0.0
C1722 C 0.68856 0.82511 1.00156 0.0
C1723 C 0.70657 0.8361 0.98785 0.0
C1724 C 0.72365 0.83556 0.99726 0.0
C1725 C 0.72271 0.82453 0.01962 0.0
H1726 H 0.21834 0.90425 0.96693 0.0
H1727 H 0.21999 0.96175 0.96249 0.0
H1728 H 0.23815 0.91557 1.00732 0.0
H1729 H 0.23979 0.97308 1.00253 0.0
H1730 H 0.26328 0.98627 0.08285 0.0
H1731 H 0.2386 0.9686 0.04801 0.0
H1732 H 0.27161 0.93901 0.02411 0.0
H1733 H 0.29592 0.95632 0.05984 0.0
C1734 C 0.22297 0.91933 0.97445 0.0
C1735 C 0.21748 0.93205 0.96131 0.0
C1736 C 0.23434 0.92582 0.99769 0.0
C1737 C 0.24052 0.94521 1.00846 0.0
C1738 C 0.23494 0.95786 0.99531 0.0
C1739 C 0.22357 0.95137 0.97217 0.0
C1740 C 0.26478 0.97536 0.07075 0.0
C1741 C 0.28133 0.97245 0.07423 0.0
C1742 C 0.25084 0.96549 0.05045 0.0
C1743 C 0.25331 0.95272 0.03272 0.0
C1744 C 0.26913 0.94866 0.03737 0.0
C1745 C 0.28301 0.95845 0.05796 0.0
H1746 H 0.6745 0.90958 0.40657 0.0
H1747 H 0.73767 0.94104 0.42777 0.0
H1748 H 0.6675 0.92218 0.44739 0.0
H1749 H 0.73078 0.95334 0.46745 0.0
H1750 H 0.71869 0.99455 0.51705 0.0
H1751 H 0.72039 0.97882 0.47664 0.0
H1752 H 0.67004 0.92172 0.49902 0.0
H1753 H 0.66826 0.9377 0.54008 0.0
C1754 C 0.68683 0.91892 0.41989 0.0
C1755 C 0.70671 0.92443 0.41345 0.0
C1756 C 0.68283 0.92616 0.4433 0.0
C1757 C 0.69864 0.93918 0.46061 0.0
C1758 C 0.71824 0.94383 0.45448 0.0
C1759 C 0.72217 0.93662 0.43152 0.0
C1760 C 0.70782 0.97867 0.51348 0.0
C1761 C 0.69346 0.96744 0.53216 0.0
C1762 C 0.70884 0.96958 0.49018 0.0
C1763 C 0.69553 0.94886 0.4845 0.0
C1764 C 0.68053 0.9377 0.50263 0.0
C1765 C 0.67957 0.94685 0.52624 0.0
H1766 H 0.15389 0.87629 0.44397 0.0
H1767 H 0.19145 0.84919 0.43587 0.0
H1768 H 0.13538 0.85286 0.47766 0.0
H1769 H 0.17247 0.82523 0.47026 0.0
H1770 H 0.146 0.80276 0.55397 0.0
H1771 H 0.16538 0.82323 0.51759 0.0
H1772 H 0.11114 0.81747 0.48326 0.0
H1773 H 0.09185 0.79727 0.51974 0.0
C1774 C 0.15828 0.86529 0.44931 0.0
C1775 C 0.17428 0.86475 0.4369 0.0
C1776 C 0.14742 0.85163 0.46867 0.0
C1777 C 0.15209 0.83681 0.4766 0.0
C1778 C 0.16839 0.83642 0.46469 0.0
C1779 C 0.1793 0.85016 0.44496 0.0
C1780 C 0.13814 0.80564 0.53849 0.0
C1781 C 0.1173 0.79842 0.53998 0.0
C1782 C 0.14929 0.81735 0.51752 0.0
C1783 C 0.13998 0.82231 0.49748 0.0
C1784 C 0.11898 0.81434 0.4985 0.0
C1785 C 0.10783 0.80258 0.51939 0.0
H1786 H 0.23049 0.44439 0.47271 0.0
H1787 H 0.27497 0.44044 0.42659 0.0
H1788 H 0.24355 0.43623 0.51138 0.0
H1789 H 0.28816 0.43241 0.46516 0.0
H1790 H 0.28216 0.38711 0.5277 0.0
H1791 H 0.27397 0.40168 0.49098 0.0
H1792 H 0.27204 0.44607 0.54218 0.0
H1793 H 0.28004 0.43127 0.57909 0.0
C1794 C 0.24346 0.44241 0.471 0.0
C1795 C 0.25159 0.44283 0.44662 0.0
C1796 C 0.25091 0.43767 0.49312 0.0
C1797 C 0.26665 0.4333 0.49122 0.0
C1798 C 0.27571 0.43522 0.46714 0.0
C1799 C 0.26825 0.43992 0.4451 0.0
C1800 C 0.28006 0.40001 0.53112 0.0
C1801 C 0.28167 0.40799 0.55627 0.0
C1802 C 0.27554 0.40849 0.51005 0.0
C1803 C 0.27247 0.42513 0.51365 0.0
C1804 C 0.2742 0.43319 0.53882 0.0
C1805 C 0.27882 0.42475 0.55992 0.0
H1806 H 0.18572 0.32584 0.75756 0.0
H1807 H 0.23901 0.35125 0.80655 0.0
H1808 H 0.20649 0.33512 0.71922 0.0
H1809 H 0.25995 0.35989 0.76838 0.0
H1810 H 0.2914 0.39536 0.69589 0.0
H1811 H 0.27135 0.38351 0.73486 0.0
H1812 H 0.22775 0.32914 0.69311 0.0
H1813 H 0.24729 0.34151 0.65409 0.0
C1814 C 0.20188 0.33295 0.76006 0.0
C1815 C 0.21078 0.33791 0.78494 0.0
C1816 C 0.21385 0.33829 0.73811 0.0
C1817 C 0.235 0.34845 0.74059 0.0
C1818 C 0.24379 0.35255 0.76563 0.0
C1819 C 0.23182 0.34747 0.78752 0.0
C1820 C 0.27757 0.38086 0.69517 0.0
C1821 C 0.27082 0.36947 0.67193 0.0
C1822 C 0.2661 0.37395 0.71753 0.0
C1823 C 0.24779 0.35535 0.7172 0.0
C1824 C 0.24147 0.34372 0.69404 0.0
C1825 C 0.25276 0.35077 0.67166 0.0
H1826 H 0.66412 0.89693 0.76102 0.0
H1827 H 0.72813 0.93173 0.77646 0.0
H1828 H 0.66766 0.91699 0.72356 0.0
H1829 H 0.7317 0.95224 0.73792 0.0
H1830 H 0.72753 0.96966 0.64941 0.0
H1831 H 0.72788 0.95147 0.68833 0.0
H1832 H 0.67449 0.95102 0.7145 0.0
H1833 H 0.67411 0.96897 0.67587 0.0
C1834 C 0.67911 0.90891 0.75652 0.0
C1835 C 0.69581 0.91262 0.77233 0.0
C1836 C 0.68108 0.92061 0.73483 0.0
C1837 C 0.69989 0.93663 0.72765 0.0
C1838 C 0.7169 0.94007 0.74277 0.0
C1839 C 0.71488 0.92829 0.76492 0.0
C1840 C 0.71593 0.96578 0.66356 0.0
C1841 C 0.70068 0.97075 0.65919 0.0
C1842 C 0.7162 0.95541 0.68603 0.0
C1843 C 0.70111 0.94947 0.70471 0.0
C1844 C 0.68622 0.95494 0.70053 0.0
C1845 C 0.68603 0.96539 0.67828 0.0
H1846 H 0.13715 0.84165 0.79843 0.0
H1847 H 0.15985 0.89649 0.75465 0.0
H1848 H 0.123 0.82136 0.75881 0.0
H1849 H 0.14631 0.8763 0.71474 0.0
H1850 H 0.10577 0.83444 0.64902 0.0
H1851 H 0.11768 0.8547 0.6892 0.0
H1852 H 0.13185 0.81085 0.72108 0.0
H1853 H 0.11918 0.79036 0.68147 0.0
C1854 C 0.13925 0.84938 0.78027 0.0
C1855 C 0.1497 0.87071 0.77976 0.0
C1856 C 0.1312 0.83773 0.75743 0.0
C1857 C 0.13357 0.84706 0.73327 0.0
C1858 C 0.14384 0.86846 0.73287 0.0
C1859 C 0.15169 0.8801 0.7558 0.0
C1860 C 0.11136 0.82913 0.66469 0.0
C1861 C 0.11146 0.81075 0.66203 0.0
C1862 C 0.11834 0.84082 0.68774 0.0
C1863 C 0.12578 0.83452 0.70867 0.0
C1864 C 0.1259 0.81611 0.70579 0.0
C1865 C 0.11875 0.80437 0.6829 0.0
H1866 H 0.40416 0.20083 0.64702 0.0
H1867 H 0.35773 0.21233 0.61842 0.0
H1868 H 0.40573 0.18756 0.60424 0.0
H1869 H 0.35944 0.19924 0.5757 0.0
H1870 H 0.34647 0.14481 0.52032 0.0
H1871 H 0.34902 0.16569 0.55791 0.0
H1872 H 0.41372 0.1936 0.55761 0.0
H1873 H 0.411 0.17245 0.51953 0.0
C1874 C 0.39453 0.20091 0.63154 0.0
C1875 C 0.38072 0.20761 0.63644 0.0
C1876 C 0.39551 0.19334 0.60687 0.0
C1877 C 0.3826 0.1921 0.58635 0.0
C1878 C 0.36943 0.19964 0.591 0.0
C1879 C 0.36854 0.2073 0.61558 0.0
C1880 C 0.36129 0.15589 0.52773 0.0
C1881 C 0.37853 0.15718 0.51661 0.0
C1882 C 0.36278 0.1679 0.54941 0.0
C1883 C 0.38158 0.18139 0.56109 0.0
C1884 C 0.39896 0.1833 0.54933 0.0
C1885 C 0.39746 0.17142 0.52724 0.0
H1886 H 0.89364 0.23441 0.59248 0.0
H1887 H 0.95038 0.24041 0.61678 0.0
H1888 H 0.91025 0.25817 0.55774 0.0
H1889 H 0.96719 0.26456 0.58247 0.0
H1890 H 0.98992 0.29461 0.5051 0.0
H1891 H 0.97226 0.26915 0.53769 0.0
H1892 H 0.93187 0.29267 0.54892 0.0
H1893 H 0.94917 0.31767 0.51555 0.0
C1894 C 0.90971 0.24089 0.59049 0.0
C1895 C 0.92063 0.23544 0.60751 0.0
C1896 C 0.9193 0.25464 0.57057 0.0
C1897 C 0.94019 0.26353 0.56714 0.0
C1898 C 0.95106 0.25788 0.58405 0.0
C1899 C 0.94142 0.24399 0.60385 0.0
C1900 C 0.97719 0.29429 0.51442 0.0
C1901 C 0.97099 0.30823 0.50764 0.0
C1902 C 0.96712 0.27973 0.53335 0.0
C1903 C 0.95059 0.27874 0.54628 0.0
C1904 C 0.9443 0.29263 0.53926 0.0
C1905 C 0.9543 0.30711 0.52016 0.0
H1906 H 0.83924 0.77223 0.61554 0.0
H1907 H 0.84872 0.72275 0.5931 0.0
H1908 H 0.8155 0.76363 0.57935 0.0
H1909 H 0.82454 0.71386 0.55701 0.0
H1910 H 0.79584 0.72441 0.47923 0.0
H1911 H 0.81948 0.72813 0.51439 0.0
H1912 H 0.78112 0.73425 0.56998 0.0
H1913 H 0.75788 0.73077 0.53518 0.0
C1914 C 0.83642 0.75965 0.60274 0.0
C1915 C 0.84577 0.7481 0.60733 0.0
C1916 C 0.82263 0.75455 0.58218 0.0
C1917 C 0.81792 0.73785 0.56561 0.0
C1918 C 0.82782 0.72675 0.56953 0.0
C1919 C 0.84154 0.73176 0.59028 0.0
C1920 C 0.79222 0.72588 0.49908 0.0
C1921 C 0.77519 0.72751 0.50454 0.0
C1922 C 0.80578 0.72815 0.51915 0.0
C1923 C 0.80237 0.73204 0.5448 0.0
C1924 C 0.78442 0.73184 0.55033 0.0
C1925 C 0.77102 0.72965 0.53044 0.0
H1926 H 0.79387 0.65407 0.27689 0.0
H1927 H 0.81386 0.71618 0.25672 0.0
H1928 H 0.78299 0.65997 0.31889 0.0
H1929 H 0.8032 0.72205 0.29841 0.0
H1930 H 0.80033 0.73377 0.38263 0.0
H1931 H 0.81262 0.72505 0.34407 0.0
H1932 H 0.75774 0.6671 0.3382 0.0
H1933 H 0.74553 0.67571 0.37721 0.0
C1934 C 0.79586 0.66892 0.28128 0.0
C1935 C 0.80495 0.68469 0.2634 0.0
C1936 C 0.78966 0.67232 0.3054 0.0
C1937 C 0.79247 0.69156 0.3122 0.0
C1938 C 0.80128 0.70718 0.29414 0.0
C1939 C 0.8074 0.7038 0.27013 0.0
C1940 C 0.791 0.71901 0.37342 0.0
C1941 C 0.77188 0.70551 0.3829 0.0
C1942 C 0.79799 0.71407 0.35115 0.0
C1943 C 0.78601 0.69553 0.33772 0.0
C1944 C 0.76737 0.68149 0.34808 0.0
C1945 C 0.76036 0.68644 0.37044 0.0
H1946 H 0.36386 0.20702 0.27624 0.0
H1947 H 0.41496 0.19933 0.26193 0.0
H1948 H 0.36053 0.19194 0.31926 0.0
H1949 H 0.41143 0.18408 0.30369 0.0
H1950 H 0.41622 0.17589 0.38834 0.0
H1951 H 0.41745 0.19237 0.34769 0.0
H1952 H 0.35257 0.16243 0.34478 0.0
H1953 H 0.35147 0.14646 0.38612 0.0
C1954 C 0.3742 0.20191 0.28204 0.0
C1955 C 0.38983 0.2047 0.26555 0.0
C1956 C 0.37234 0.19326 0.30678 0.0
C1957 C 0.38602 0.18711 0.31559 0.0
C1958 C 0.401 0.18919 0.29842 0.0
C1959 C 0.40291 0.19786 0.2741 0.0
C1960 C 0.4022 0.17298 0.37925 0.0
C1961 C 0.38377 0.15973 0.39068 0.0
C1962 C 0.40285 0.18231 0.35562 0.0
C1963 C 0.38507 0.17856 0.34227 0.0
C1964 C 0.36663 0.16587 0.35425 0.0
C1965 C 0.36599 0.15663 0.37805 0.0
H1966 H 0.8825 0.2903 0.30363 0.0
H1967 H 0.91697 0.26643 0.26724 0.0
H1968 H 0.90533 0.3011 0.34143 0.0
H1969 H 0.93942 0.27676 0.30511 0.0
H1970 H 0.98972 0.32879 0.35752 0.0
H1971 H 0.96499 0.31008 0.3231 0.0
H1972 H 0.91749 0.28876 0.37881 0.0
H1973 H 0.94256 0.30759 0.41344 0.0
C1974 C 0.89486 0.28727 0.30373 0.0
C1975 C 0.8979 0.27756 0.28232 0.0
C1976 C 0.90778 0.29319 0.32554 0.0
C1977 C 0.92416 0.28971 0.32634 0.0
C1978 C 0.92699 0.27972 0.3051 0.0
C1979 C 0.91402 0.27368 0.28343 0.0
C1980 C 0.97407 0.31942 0.36254 0.0
C1981 C 0.96804 0.31934 0.38813 0.0
C1982 C 0.95987 0.30877 0.34282 0.0
C1983 C 0.93923 0.29807 0.34815 0.0
C1984 C 0.93327 0.29702 0.37407 0.0
C1985 C 0.9476 0.30749 0.39394 0.0
H1986 H 0.34536 0.25533 0.75763 0.0
H1987 H 0.39021 0.24446 0.7932 0.0
H1988 H 0.34512 0.2737 0.79709 0.0
H1989 H 0.39049 0.26345 0.83213 0.0
H1990 H 0.39953 0.32034 0.88218 0.0
H1991 H 0.39938 0.30267 0.84214 0.0
H1992 H 0.33564 0.26197 0.84871 0.0
H1993 H 0.33588 0.27925 0.88957 0.0
C1994 C 0.35546 0.25719 0.77363 0.0
C1995 C 0.36793 0.24851 0.77209 0.0
C1996 C 0.35516 0.26754 0.79634 0.0
C1997 C 0.36773 0.26998 0.81783 0.0
C1998 C 0.38064 0.26187 0.81595 0.0
C1999 C 0.38052 0.25103 0.79359 0.0
C2000 C 0.38544 0.30763 0.87516 0.0
C2001 C 0.36771 0.30123 0.88923 0.0
C2002 C 0.38539 0.29747 0.8522 0.0
C2003 C 0.36751 0.28094 0.84214 0.0
C2004 C 0.34965 0.27473 0.85586 0.0
C2005 C 0.3498 0.28457 0.87932 0.0
H2006 H 0.82876 0.18778 0.77154 0.0
H2007 H 0.85426 0.14986 0.78964 0.0
H2008 H 0.80502 0.17264 0.80649 0.0
H2009 H 0.83055 0.13477 0.82456 0.0
H2010 H 0.80293 0.13083 0.90368 0.0
H2011 H 0.82463 0.14405 0.86672 0.0
H2012 H 0.77568 0.14175 0.82168 0.0
H2013 H 0.7538 0.12864 0.85928 0.0
C2014 C 0.82924 0.17609 0.78272 0.0
C2015 C 0.84365 0.17021 0.77764 0.0
C2016 C 0.81552 0.16734 0.80283 0.0
C2017 C 0.81581 0.15248 0.81854 0.0
C2018 C 0.83004 0.14641 0.81323 0.0
C2019 C 0.84373 0.15513 0.79313 0.0
C2020 C 0.79666 0.13302 0.88591 0.0
C2021 C 0.77654 0.12863 0.88455 0.0
C2022 C 0.80915 0.14052 0.86455 0.0
C2023 C 0.80199 0.14394 0.84102 0.0
C2024 C 0.7818 0.13947 0.83952 0.0
C2025 C 0.76919 0.13183 0.86102 0.0
H2026 H 0.90332 0.71591 0.77151 0.0
H2027 H 0.9327 0.77969 0.79225 0.0
H2028 H 0.91995 0.70999 0.80783 0.0
H2029 H 0.94976 0.77384 0.82879 0.0
H2030 H 0.95812 0.7494 0.90745 0.0
H2031 H 0.94359 0.7578 0.87054 0.0
H2032 H 0.95229 0.71621 0.8219 0.0
H2033 H 0.96616 0.70739 0.85892 0.0
C2034 C 0.9136 0.72876 0.78363 0.0
C2035 C 0.91687 0.74833 0.77879 0.0
C2036 C 0.92319 0.72537 0.8045 0.0
C2037 C 0.93642 0.74147 0.82111 0.0
C2038 C 0.93955 0.76106 0.8165 0.0
C2039 C 0.92982 0.76444 0.79558 0.0
C2040 C 0.95702 0.74216 0.88881 0.0
C2041 C 0.9631 0.72759 0.88612 0.0
C2042 C 0.9488 0.74706 0.86761 0.0
C2043 C 0.94657 0.73755 0.84326 0.0
C2044 C 0.95335 0.72351 0.84048 0.0
C2045 C 0.96143 0.71853 0.86167 0.0
H2046 H 0.85972 0.67101 0.06632 0.0
H2047 H 0.90611 0.70086 0.12542 0.0
H2048 H 0.88495 0.6753 0.03512 0.0
H2049 H 0.93149 0.70476 0.09435 0.0
H2050 H 0.97284 0.72785 0.02283 0.0
H2051 H 0.94905 0.72257 0.0571 0.0
H2052 H 0.90702 0.66395 0.0229 0.0
H2053 H 0.93039 0.66968 0.98834 0.0
C2054 C 0.8753 0.67823 0.07276 0.0
C2055 C 0.88084 0.68556 0.0984 0.0
C2056 C 0.88985 0.68066 0.05485 0.0
C2057 C 0.9104 0.69029 0.06211 0.0
C2058 C 0.91592 0.69753 0.08786 0.0
C2059 C 0.90134 0.69525 0.10573 0.0
C2060 C 0.95863 0.71373 0.02293 0.0
C2061 C 0.95344 0.69926 1.00277 0.0
C2062 C 0.94495 0.71066 0.04259 0.0
C2063 C 0.92585 0.69294 0.04266 0.0
C2064 C 0.92126 0.67804 0.02319 0.0
C2065 C 0.93478 0.68123 1.00346 0.0
H2066 H 0.37838 0.23708 0.11173 0.0
H2067 H 0.36377 0.27789 0.15222 0.0
H2068 H 0.37737 0.25233 0.07054 0.0
H2069 H 0.36315 0.2933 0.1115 0.0
H2070 H 0.3472 0.30737 0.03205 0.0
H2071 H 0.34601 0.28975 0.07175 0.0
H2072 H 0.3953 0.2825 0.04541 0.0
H2073 H 0.39617 0.29984 1.00537 0.0
C2074 C 0.3747 0.2491 0.1119 0.0
C2075 C 0.37104 0.25606 0.13555 0.0
C2076 C 0.37436 0.25808 0.0882 0.0
C2077 C 0.37025 0.27426 0.08733 0.0
C2078 C 0.36612 0.28079 0.11098 0.0
C2079 C 0.36653 0.27191 0.13456 0.0
C2080 C 0.35784 0.30207 0.03468 0.0
C2081 C 0.37184 0.30521 0.01534 0.0
C2082 C 0.35722 0.29196 0.05765 0.0
C2083 C 0.37059 0.28457 0.0622 0.0
C2084 C 0.38455 0.28764 0.04273 0.0
C2085 C 0.38518 0.2978 0.01974 0.0
H2086 H 0.79705 0.18947 0.13512 0.0
H2087 H 0.82912 0.23805 0.08177 0.0
H2088 H 0.77873 0.16636 0.09892 0.0
H2089 H 0.811 0.21492 0.04546 0.0
H2090 H 0.76994 0.12575 0.02742 0.0
H2091 H 0.78498 0.14909 0.06442 0.0
H2092 H 0.77924 0.1951 0.02307 0.0
H2093 H 0.76465 0.17185 0.9858 0.0
C2094 C 0.8002 0.19523 0.11564 0.0
C2095 C 0.81468 0.21561 0.1114 0.0
C2096 C 0.78972 0.18195 0.09483 0.0
C2097 C 0.79348 0.18865 0.06914 0.0
C2098 C 0.80751 0.20922 0.06494 0.0
C2099 C 0.81794 0.22254 0.0858 0.0
C2100 C 0.77176 0.1408 0.0263 0.0
C2101 C 0.76616 0.14695 1.00362 0.0
C2102 C 0.7803 0.15419 0.0476 0.0
C2103 C 0.78341 0.17408 0.04683 0.0
C2104 C 0.77738 0.18005 0.02428 0.0
C2105 C 0.76887 0.16665 1.00295 0.0
loop_
_geom_bond_atom_site_label_1
_geom_bond_atom_site_label_2
_geom_bond_distance
_geom_bond_site_symmetry_2
_ccdc_geom_bond_type
Cu0 N1 1.999 . S
Cu0 O6 1.974 1_554 S
Cu0 N11 1.985 1_554 S
Cu0 O20 1.959 . S
N1 Cu0 1.999 . S
N1 C3 1.263 . S
N1 C5 1.389 . S
N2 C3 1.358 . S
N2 C4 1.400 . S
C3 N1 1.263 . S
C3 N2 1.358 . S
C3 H9 0.930 . S
C4 N2 1.400 . S
C4 C5 1.351 . S
C4 H21 0.930 . S
C5 N1 1.389 . S
C5 C4 1.351 . S
C5 H10 0.930 . S
O6 Cu0 1.974 1_556 S
O6 C16 1.282 . S
C7 O8 1.261 . S
C7 O20 1.251 . S
O8 C7 1.261 . S
H9 C3 0.930 . S
H10 C5 0.930 . S
N11 Cu0 1.985 1_556 S
N11 C13 1.335 . S
N11 C14 1.390 . S
N12 C13 1.345 . S
N12 C15 1.336 . S
C13 N11 1.335 . S
C13 N12 1.345 . S
C13 H18 0.930 . S
C14 N11 1.390 . S
C14 C15 1.346 . S
C14 H19 0.930 . S
C15 N12 1.336 . S
C15 C14 1.346 . S
C15 H22 0.929 . S
C16 O6 1.282 . S
C16 O17 1.216 . S
O17 C16 1.216 . S
H18 C13 0.930 . S
H19 C14 0.930 . S
O20 Cu0 1.959 . S
O20 C7 1.251 . S
H21 C4 0.930 . S
H22 C15 0.929 . S
Cu23 N24 1.999 1_554 S
Cu23 O29 1.974 . S
Cu23 N34 1.985 . S
Cu23 O43 1.959 1_554 S
N24 Cu23 1.999 1_556 S
N24 C26 1.263 . S
N24 C28 1.389 . S
N25 C26 1.358 . S
N25 C27 1.400 . S
C26 N24 1.263 . S
C26 N25 1.358 . S
C26 H32 0.930 . S
C27 N25 1.400 . S
C27 C28 1.351 . S
C27 H44 0.930 . S
C28 N24 1.389 . S
C28 C27 1.351 . S
C28 H33 0.930 . S
O29 Cu23 1.974 . S
O29 C39 1.282 . S
C30 O31 1.264 . S
C30 O43 1.251 . S
O31 C30 1.264 . S
H32 C26 0.930 . S
H33 C28 0.930 . S
N34 Cu23 1.985 . S
N34 C36 1.335 . S
N34 C37 1.390 . S
N35 C36 1.345 . S
N35 C38 1.336 . S
C36 N34 1.335 . S
C36 N35 1.345 . S
C36 H41 0.930 . S
C37 N34 1.390 . S
C37 C38 1.346 . S
C37 H42 0.930 . S
C38 N35 1.336 . S
C38 C37 1.346 . S
C38 H45 0.929 . S
C39 O29 1.282 . S
C39 O40 1.216 . S
O40 C39 1.216 . S
H41 C36 0.930 . S
H42 C37 0.930 . S
O43 Cu23 1.959 1_556 S
O43 C30 1.251 . S
H44 C27 0.930 . S
H45 C38 0.929 . S
Cu46 N47 1.999 1_554 S
Cu46 O52 1.970 . S
Cu46 N57 1.985 . S
Cu46 O66 1.959 . S
N47 Cu46 1.999 1_556 S
N47 C49 1.263 . S
N47 C51 1.389 1_545 S
N48 C49 1.358 . S
N48 C50 1.400 1_545 S
C49 N47 1.263 . S
C49 N48 1.358 . S
C49 H55 0.930 . S
C50 N48 1.400 1_565 S
C50 C51 1.351 . S
C50 H67 0.930 . S
C51 N47 1.389 1_565 S
C51 C50 1.351 . S
C51 H56 0.930 . S
O52 Cu46 1.970 . S
O52 C62 1.293 . S
C53 O54 1.261 1_556 S
C53 O66 1.251 1_556 S
O54 C53 1.261 1_554 S
H55 C49 0.930 . S
H56 C51 0.930 . S
N57 Cu46 1.985 . S
N57 C59 1.335 . S
N57 C60 1.390 . S
N58 C59 1.345 . S
N58 C61 1.336 . S
C59 N57 1.335 . S
C59 N58 1.345 . S
C59 H64 0.930 . S
C60 N57 1.390 . S
C60 C61 1.346 . S
C60 H65 0.930 . S
C61 N58 1.336 . S
C61 C60 1.346 . S
C61 H68 0.929 . S
C62 O52 1.293 . S
C62 O63 1.216 . S
O63 C62 1.216 . S
H64 C59 0.930 . S
H65 C60 0.930 . S
O66 Cu46 1.959 . S
O66 C53 1.251 1_554 S
H67 C50 0.930 . S
H68 C61 0.929 . S
Cu69 N70 1.999 . S
Cu69 O75 1.974 . S
Cu69 N80 1.985 . S
Cu69 O89 1.959 . S
N70 Cu69 1.999 . S
N70 C72 1.263 . S
N70 C74 1.389 . S
N71 C72 1.358 . S
N71 C73 1.400 . S
C72 N70 1.263 . S
C72 N71 1.358 . S
C72 H78 0.930 . S
C73 N71 1.400 . S
C73 C74 1.351 . S
C73 H90 0.930 . S
C74 N70 1.389 . S
C74 C73 1.351 . S
C74 H79 0.930 . S
O75 Cu69 1.974 . S
O75 C85 1.303 . S
C76 O77 1.261 . S
C76 O89 1.251 . S
O77 C76 1.261 . S
H78 C72 0.930 . S
H79 C74 0.930 . S
N80 Cu69 1.985 . S
N80 C82 1.335 . S
N80 C83 1.390 . S
N81 C82 1.345 . S
N81 C84 1.336 . S
C82 N80 1.335 . S
C82 N81 1.345 . S
C82 H87 0.930 . S
C83 N80 1.390 . S
C83 C84 1.346 . S
C83 H88 0.889 1_545 S
C84 N81 1.336 . S
C84 C83 1.346 . S
C84 H91 0.929 1_545 S
C85 O75 1.303 . S
C85 O86 1.206 1_545 S
O86 C85 1.206 1_565 S
H87 C82 0.930 . S
H88 C83 0.889 1_565 S
O89 Cu69 1.959 . S
O89 C76 1.251 . S
H90 C73 0.930 . S
H91 C84 0.929 1_565 S
Cu92 N93 1.999 . S
Cu92 O98 1.974 . S
Cu92 N103 1.985 . S
Cu92 O112 1.959 . S
N93 Cu92 1.999 . S
N93 C95 1.263 . S
N93 C97 1.389 . S
N94 C95 1.358 . S
N94 C96 1.400 . S
C95 N93 1.263 . S
C95 N94 1.358 . S
C95 H101 0.930 . S
C96 N94 1.400 . S
C96 C97 1.351 . S
C96 H113 0.930 . S
C97 N93 1.389 . S
C97 C96 1.351 . S
C97 H102 0.930 . S
O98 Cu92 1.974 . S
O98 C108 1.282 . S
C99 O100 1.261 . S
C99 O112 1.251 . S
O100 C99 1.261 . S
H101 C95 0.930 . S
H102 C97 0.930 . S
N103 Cu92 1.985 . S
N103 C105 1.335 . S
N103 C106 1.390 . S
N104 C105 1.345 . S
N104 C107 1.336 . S
C105 N103 1.335 . S
C105 N104 1.345 . S
C105 H110 0.930 . S
C106 N103 1.390 . S
C106 C107 1.346 . S
C106 H111 0.930 . S
C107 N104 1.336 . S
C107 C106 1.346 . S
C107 H114 0.929 . S
C108 O98 1.282 . S
C108 O109 1.216 . S
O109 C108 1.216 . S
H110 C105 0.930 . S
H111 C106 0.930 . S
O112 Cu92 1.959 . S
O112 C99 1.251 . S
H113 C96 0.930 . S
H114 C107 0.929 . S
Cu115 N116 1.999 . S
Cu115 O121 1.974 . S
Cu115 N126 1.985 . S
Cu115 O135 1.959 . S
N116 Cu115 1.999 . S
N116 C118 1.263 . S
N116 C120 1.389 . S
N117 C118 1.358 . S
N117 C119 1.400 . S
C118 N116 1.263 . S
C118 N117 1.358 . S
C118 H124 0.930 . S
C119 N117 1.400 . S
C119 C120 1.351 . S
C119 H136 0.930 . S
C120 N116 1.389 . S
C120 C119 1.351 . S
C120 H125 0.930 . S
O121 Cu115 1.974 . S
O121 C131 1.282 . S
C122 O123 1.261 . S
C122 O135 1.251 . S
O123 C122 1.261 . S
H124 C118 0.930 . S
H125 C120 0.930 . S
N126 Cu115 1.985 . S
N126 C128 1.335 . S
N126 C129 1.390 . S
N127 C128 1.345 . S
N127 C130 1.336 . S
C128 N126 1.335 . S
C128 N127 1.345 . S
C128 H133 0.930 . S
C129 N126 1.390 . S
C129 C130 1.346 . S
C129 H134 0.930 . S
C130 N127 1.336 . S
C130 C129 1.346 . S
C130 H137 0.929 . S
C131 O121 1.282 . S
C131 O132 1.216 . S
O132 C131 1.216 . S
H133 C128 0.930 . S
H134 C129 0.930 . S
O135 Cu115 1.959 . S
O135 C122 1.251 . S
H136 C119 0.930 . S
H137 C130 0.929 . S
Cu138 N139 1.999 . S
Cu138 O144 1.974 . S
Cu138 N149 1.985 . S
Cu138 O158 1.959 . S
N139 Cu138 1.999 . S
N139 C141 1.263 . S
N139 C143 1.389 . S
N140 C141 1.358 . S
N140 C142 1.400 . S
C141 N139 1.263 . S
C141 N140 1.358 . S
C141 H147 0.930 . S
C142 N140 1.400 . S
C142 C143 1.351 . S
C142 H159 0.930 . S
C143 N139 1.389 . S
C143 C142 1.351 . S
C143 H148 0.930 . S
O144 Cu138 1.974 . S
O144 C154 1.282 . S
C145 O146 1.261 . S
C145 O158 1.251 . S
O146 C145 1.261 . S
H147 C141 0.930 . S
H148 C143 0.930 . S
N149 Cu138 1.985 . S
N149 C151 1.335 . S
N149 C152 1.390 . S
N150 C151 1.345 . S
N150 C153 1.336 . S
C151 N149 1.335 . S
C151 N150 1.345 . S
C151 H156 0.930 . S
C152 N149 1.390 . S
C152 C153 1.346 . S
C152 H157 0.930 . S
C153 N150 1.336 . S
C153 C152 1.346 . S
C153 H160 0.929 . S
C154 O144 1.282 . S
C154 O155 1.216 . S
O155 C154 1.216 . S
H156 C151 0.930 . S
H157 C152 0.930 . S
O158 Cu138 1.959 . S
O158 C145 1.251 . S
H159 C142 0.930 . S
H160 C153 0.929 . S
Cu161 N162 1.999 . S
Cu161 O167 1.974 . S
Cu161 N172 1.985 . S
Cu161 O181 1.959 . S
N162 Cu161 1.999 . S
N162 C164 1.263 . S
N162 C166 1.389 . S
N163 C164 1.358 . S
N163 C165 1.400 . S
C164 N162 1.263 . S
C164 N163 1.358 . S
C164 H170 0.930 . S
C165 N163 1.400 . S
C165 C166 1.351 . S
C165 H182 0.930 . S
C166 N162 1.389 . S
C166 C165 1.351 . S
C166 H171 0.930 . S
O167 Cu161 1.974 . S
O167 C177 1.282 . S
C168 O169 1.261 . S
C168 O181 1.251 . S
O169 C168 1.261 . S
H170 C164 0.930 . S
H171 C166 0.930 . S
N172 Cu161 1.985 . S
N172 C174 1.335 . S
N172 C175 1.390 . S
N173 C174 1.345 . S
N173 C176 1.336 . S
C174 N172 1.335 . S
C174 N173 1.345 . S
C174 H179 0.930 . S
C175 N172 1.390 . S
C175 C176 1.346 . S
C175 H180 0.930 . S
C176 N173 1.336 . S
C176 C175 1.346 . S
C176 H183 0.929 . S
C177 O167 1.282 . S
C177 O178 1.216 . S
O178 C177 1.216 . S
H179 C174 0.930 . S
H180 C175 0.930 . S
O181 Cu161 1.959 . S
O181 C168 1.251 . S
H182 C165 0.930 . S
H183 C176 0.929 . S
Cu184 N185 1.999 . S
Cu184 O190 1.974 . S
Cu184 N195 1.985 . S
Cu184 O204 1.959 . S
N185 Cu184 1.999 . S
N185 C187 1.263 . S
N185 C189 1.389 . S
N186 C187 1.358 . S
N186 C188 1.400 . S
C187 N185 1.263 . S
C187 N186 1.358 . S
C187 H193 0.930 . S
C188 N186 1.400 . S
C188 C189 1.351 . S
C188 H205 0.930 . S
C189 N185 1.389 . S
C189 C188 1.351 . S
C189 H194 0.930 . S
O190 Cu184 1.974 . S
O190 C200 1.282 . S
C191 O192 1.261 . S
C191 O204 1.251 . S
O192 C191 1.261 . S
H193 C187 0.930 . S
H194 C189 0.930 . S
N195 Cu184 1.985 . S
N195 C197 1.335 . S
N195 C198 1.390 . S
N196 C197 1.345 . S
N196 C199 1.336 . S
C197 N195 1.335 . S
C197 N196 1.345 . S
C197 H202 0.930 . S
C198 N195 1.390 . S
C198 C199 1.346 . S
C198 H203 0.930 . S
C199 N196 1.336 . S
C199 C198 1.346 . S
C199 H206 0.929 . S
C200 O190 1.282 . S
C200 O201 1.216 . S
O201 C200 1.216 . S
H202 C197 0.930 . S
H203 C198 0.930 . S
O204 Cu184 1.959 . S
O204 C191 1.251 . S
H205 C188 0.930 . S
H206 C199 0.929 . S
Cu207 N208 1.999 . S
Cu207 O213 1.974 . S
Cu207 N218 1.985 . S
Cu207 O227 1.959 . S
N208 Cu207 1.999 . S
N208 C210 1.263 . S
N208 C212 1.389 . S
N209 C210 1.358 . S
N209 C211 1.400 . S
C210 N208 1.263 . S
C210 N209 1.358 . S
C210 H216 0.930 . S
C211 N209 1.400 . S
C211 C212 1.351 . S
C211 H228 0.930 . S
C212 N208 1.389 . S
C212 C211 1.351 . S
C212 H217 0.930 . S
O213 Cu207 1.974 . S
O213 C223 1.282 . S
C214 O215 1.261 . S
C214 O227 1.251 . S
O215 C214 1.261 . S
H216 C210 0.930 . S
H217 C212 0.930 . S
N218 Cu207 1.985 . S
N218 C220 1.335 . S
N218 C221 1.390 . S
N219 C220 1.345 . S
N219 C222 1.336 . S
C220 N218 1.335 . S
C220 N219 1.345 . S
C220 H225 0.930 . S
C221 N218 1.390 . S
C221 C222 1.346 . S
C221 H226 0.930 . S
C222 N219 1.336 . S
C222 C221 1.346 . S
C222 H229 0.929 . S
C223 O213 1.282 . S
C223 O224 1.216 . S
O224 C223 1.216 . S
H225 C220 0.930 . S
H226 C221 0.930 . S
O227 Cu207 1.959 . S
O227 C214 1.251 . S
H228 C211 0.930 . S
H229 C222 0.929 . S
Cu230 N231 1.999 . S
Cu230 O236 1.974 . S
Cu230 N241 1.985 . S
Cu230 O250 1.959 . S
N231 Cu230 1.999 . S
N231 C233 1.263 . S
N231 C235 1.389 . S
N232 C233 1.358 . S
N232 C234 1.400 . S
C233 N231 1.263 . S
C233 N232 1.358 . S
C233 H239 0.930 . S
C234 N232 1.400 . S
C234 C235 1.351 . S
C234 H251 0.930 . S
C235 N231 1.389 . S
C235 C234 1.351 . S
C235 H240 0.930 . S
O236 Cu230 1.974 . S
O236 C246 1.282 . S
C237 O238 1.261 . S
C237 O250 1.251 . S
O238 C237 1.261 . S
H239 C233 0.930 . S
H240 C235 0.930 . S
N241 Cu230 1.985 . S
N241 C243 1.335 . S
N241 C244 1.390 . S
N242 C243 1.345 . S
N242 C245 1.336 . S
C243 N241 1.335 . S
C243 N242 1.345 . S
C243 H248 0.930 . S
C244 N241 1.390 . S
C244 C245 1.346 . S
C244 H249 0.930 . S
C245 N242 1.336 . S
C245 C244 1.346 . S
C245 H252 0.929 . S
C246 O236 1.282 . S
C246 O247 1.216 . S
O247 C246 1.216 . S
H248 C243 0.930 . S
H249 C244 0.930 . S
O250 Cu230 1.959 . S
O250 C237 1.251 . S
H251 C234 0.930 . S
H252 C245 0.929 . S
Cu253 N254 1.999 . S
Cu253 O259 1.974 . S
Cu253 N264 1.985 . S
Cu253 O273 1.959 . S
N254 Cu253 1.999 . S
N254 C256 1.263 . S
N254 C258 1.389 . S
N255 C256 1.358 . S
N255 C257 1.400 . S
C256 N254 1.263 . S
C256 N255 1.358 . S
C256 H262 0.930 . S
C257 N255 1.400 . S
C257 C258 1.351 . S
C257 H274 0.930 . S
C258 N254 1.389 . S
C258 C257 1.351 . S
C258 H263 0.930 . S
O259 Cu253 1.974 . S
O259 C269 1.282 . S
C260 O261 1.261 . S
C260 O273 1.251 . S
O261 C260 1.261 . S
H262 C256 0.930 . S
H263 C258 0.930 . S
N264 Cu253 1.985 . S
N264 C266 1.335 . S
N264 C267 1.390 . S
N265 C266 1.345 . S
N265 C268 1.336 . S
C266 N264 1.335 . S
C266 N265 1.345 . S
C266 H271 0.930 . S
C267 N264 1.390 . S
C267 C268 1.346 . S
C267 H272 0.930 . S
C268 N265 1.336 . S
C268 C267 1.346 . S
C268 H275 0.929 . S
C269 O259 1.282 . S
C269 O270 1.216 . S
O270 C269 1.216 . S
H271 C266 0.930 . S
H272 C267 0.930 . S
O273 Cu253 1.959 . S
O273 C260 1.251 . S
H274 C257 0.930 . S
H275 C268 0.929 . S
Cu276 N277 1.999 . S
Cu276 O282 1.974 . S
Cu276 N287 1.985 . S
Cu276 O296 1.959 . S
N277 Cu276 1.999 . S
N277 C279 1.263 . S
N277 C281 1.389 . S
N278 C279 1.358 . S
N278 C280 1.400 . S
C279 N277 1.263 . S
C279 N278 1.358 . S
C279 H285 0.930 . S
C280 N278 1.400 . S
C280 C281 1.351 . S
C280 H297 0.930 . S
C281 N277 1.389 . S
C281 C280 1.351 . S
C281 H286 0.930 . S
O282 Cu276 1.974 . S
O282 C292 1.282 . S
C283 O284 1.261 . S
C283 O296 1.251 . S
O284 C283 1.261 . S
H285 C279 0.930 . S
H286 C281 0.930 . S
N287 Cu276 1.985 . S
N287 C289 1.335 . S
N287 C290 1.390 . S
N288 C289 1.345 . S
N288 C291 1.336 . S
C289 N287 1.335 . S
C289 N288 1.345 . S
C289 H294 0.930 . S
C290 N287 1.390 . S
C290 C291 1.346 . S
C290 H295 0.930 . S
C291 N288 1.336 . S
C291 C290 1.346 . S
C291 H298 0.929 . S
C292 O282 1.282 . S
C292 O293 1.216 . S
O293 C292 1.216 . S
H294 C289 0.930 . S
H295 C290 0.930 . S
O296 Cu276 1.959 . S
O296 C283 1.251 . S
H297 C280 0.930 . S
H298 C291 0.929 . S
Cu299 N300 1.999 . S
Cu299 O305 1.974 . S
Cu299 N310 1.985 . S
Cu299 O319 1.959 . S
N300 Cu299 1.999 . S
N300 C302 1.263 . S
N300 C304 1.389 . S
N301 C302 1.358 . S
N301 C303 1.400 . S
C302 N300 1.263 . S
C302 N301 1.358 . S
C302 H308 0.930 . S
C303 N301 1.400 . S
C303 C304 1.351 . S
C303 H320 0.930 . S
C304 N300 1.389 . S
C304 C303 1.351 . S
C304 H309 0.930 . S
O305 Cu299 1.974 . S
O305 C315 1.282 . S
C306 O307 1.261 . S
C306 O319 1.251 . S
O307 C306 1.261 . S
H308 C302 0.930 . S
H309 C304 0.930 . S
N310 Cu299 1.985 . S
N310 C312 1.335 . S
N310 C313 1.390 . S
N311 C312 1.345 . S
N311 C314 1.336 . S
C312 N310 1.335 . S
C312 N311 1.345 . S
C312 H317 0.930 . S
C313 N310 1.390 . S
C313 C314 1.346 . S
C313 H318 0.930 . S
C314 N311 1.336 . S
C314 C313 1.346 . S
C314 H321 0.929 . S
C315 O305 1.282 . S
C315 O316 1.216 . S
O316 C315 1.216 . S
H317 C312 0.930 . S
H318 C313 0.930 . S
O319 Cu299 1.959 . S
O319 C306 1.251 . S
H320 C303 0.930 . S
H321 C314 0.929 . S
Cu322 N323 1.999 . S
Cu322 O328 1.974 . S
Cu322 N333 1.985 . S
Cu322 O342 1.959 . S
N323 Cu322 1.999 . S
N323 C325 1.263 . S
N323 C327 1.389 . S
N324 C325 1.358 . S
N324 C326 1.400 . S
C325 N323 1.263 . S
C325 N324 1.358 . S
C325 H331 0.930 . S
C326 N324 1.400 . S
C326 C327 1.351 . S
C326 H343 0.930 . S
C327 N323 1.389 . S
C327 C326 1.351 . S
C327 H332 0.930 . S
O328 Cu322 1.974 . S
O328 C338 1.282 . S
C329 O330 1.261 . S
C329 O342 1.251 . S
O330 C329 1.261 . S
H331 C325 0.930 . S
H332 C327 0.930 . S
N333 Cu322 1.985 . S
N333 C335 1.335 . S
N333 C336 1.390 . S
N334 C335 1.345 . S
N334 C337 1.336 . S
C335 N333 1.335 . S
C335 N334 1.345 . S
C335 H340 0.930 . S
C336 N333 1.390 . S
C336 C337 1.346 . S
C336 H341 0.930 . S
C337 N334 1.336 . S
C337 C336 1.346 . S
C337 H344 0.929 . S
C338 O328 1.282 . S
C338 O339 1.216 . S
O339 C338 1.216 . S
H340 C335 0.930 . S
H341 C336 0.930 . S
O342 Cu322 1.959 . S
O342 C329 1.251 . S
H343 C326 0.930 . S
H344 C337 0.929 . S
Cu345 N346 1.999 . S
Cu345 O351 1.974 . S
Cu345 N356 1.985 . S
Cu345 O365 1.959 . S
N346 Cu345 1.999 . S
N346 C348 1.263 . S
N346 C350 1.389 . S
N347 C348 1.358 . S
N347 C349 1.400 . S
C348 N346 1.263 . S
C348 N347 1.358 . S
C348 H354 0.930 . S
C349 N347 1.400 . S
C349 C350 1.351 . S
C349 H366 0.930 . S
C350 N346 1.389 . S
C350 C349 1.351 . S
C350 H355 0.930 . S
O351 Cu345 1.974 . S
O351 C361 1.282 . S
C352 O353 1.261 . S
C352 O365 1.251 . S
O353 C352 1.261 . S
H354 C348 0.930 . S
H355 C350 0.930 . S
N356 Cu345 1.985 . S
N356 C358 1.335 . S
N356 C359 1.390 . S
N357 C358 1.345 . S
N357 C360 1.336 . S
C358 N356 1.335 . S
C358 N357 1.345 . S
C358 H363 0.930 . S
C359 N356 1.390 . S
C359 C360 1.346 . S
C359 H364 0.930 . S
C360 N357 1.336 . S
C360 C359 1.346 . S
C360 H367 0.929 . S
C361 O351 1.282 . S
C361 O362 1.216 . S
O362 C361 1.216 . S
H363 C358 0.930 . S
H364 C359 0.930 . S
O365 Cu345 1.959 . S
O365 C352 1.251 . S
H366 C349 0.930 . S
H367 C360 0.929 . S
Cu368 N369 1.999 . S
Cu368 O374 1.974 . S
Cu368 N379 1.985 . S
Cu368 O388 1.959 . S
N369 Cu368 1.999 . S
N369 C371 1.263 . S
N369 C373 1.389 . S
N370 C371 1.358 . S
N370 C372 1.400 . S
C371 N369 1.263 . S
C371 N370 1.358 . S
C371 H377 0.930 . S
C372 N370 1.400 . S
C372 C373 1.351 . S
C372 H389 0.930 . S
C373 N369 1.389 . S
C373 C372 1.351 . S
C373 H378 0.930 . S
O374 Cu368 1.974 . S
O374 C384 1.282 . S
C375 O376 1.261 . S
C375 O388 1.251 . S
O376 C375 1.261 . S
H377 C371 0.930 . S
H378 C373 0.930 . S
N379 Cu368 1.985 . S
N379 C381 1.335 . S
N379 C382 1.390 . S
N380 C381 1.345 . S
N380 C383 1.336 . S
C381 N379 1.335 . S
C381 N380 1.345 . S
C381 H386 0.930 . S
C382 N379 1.390 . S
C382 C383 1.346 . S
C382 H387 0.930 . S
C383 N380 1.336 . S
C383 C382 1.346 . S
C383 H390 0.929 . S
C384 O374 1.282 . S
C384 O385 1.216 . S
O385 C384 1.216 . S
H386 C381 0.930 . S
H387 C382 0.930 . S
O388 Cu368 1.959 . S
O388 C375 1.251 . S
H389 C372 0.930 . S
H390 C383 0.929 . S
Cu391 N392 1.999 . S
Cu391 O397 1.974 . S
Cu391 N402 1.985 . S
Cu391 O411 1.959 . S
N392 Cu391 1.999 . S
N392 C394 1.263 . S
N392 C396 1.389 . S
N393 C394 1.358 . S
N393 C395 1.400 . S
C394 N392 1.263 . S
C394 N393 1.358 . S
C394 H400 0.930 . S
C395 N393 1.400 . S
C395 C396 1.351 . S
C395 H412 0.930 . S
C396 N392 1.389 . S
C396 C395 1.351 . S
C396 H401 0.930 . S
O397 Cu391 1.974 . S
O397 C407 1.282 . S
C398 O399 1.261 . S
C398 O411 1.251 . S
O399 C398 1.261 . S
H400 C394 0.930 . S
H401 C396 0.930 . S
N402 Cu391 1.985 . S
N402 C404 1.335 . S
N402 C405 1.390 . S
N403 C404 1.345 . S
N403 C406 1.336 . S
C404 N402 1.335 . S
C404 N403 1.345 . S
C404 H409 0.930 . S
C405 N402 1.390 . S
C405 C406 1.346 . S
C405 H410 0.930 . S
C406 N403 1.336 . S
C406 C405 1.346 . S
C406 H413 0.929 . S
C407 O397 1.282 . S
C407 O408 1.216 . S
O408 C407 1.216 . S
H409 C404 0.930 . S
H410 C405 0.930 . S
O411 Cu391 1.959 . S
O411 C398 1.251 . S
H412 C395 0.930 . S
H413 C406 0.929 . S
Co414 O415 2.216 . S
Co414 O416 2.091 . S
Co414 O418 2.004 1_455 S
Co414 O424 2.021 . S
Co414 O426 2.137 . S
Co414 O427 2.244 . S
O415 Co414 2.216 . S
O415 C422 1.247 . S
O416 Co414 2.091 . S
O416 C422 1.261 . S
C417 O426 1.247 . S
C417 O427 1.272 . S
O418 Co414 2.004 1_655 S
O418 C423 1.259 . S
Co419 O420 2.030 1_455 S
Co419 O425 2.052 . S
Co419 O427 2.135 . S
O420 Co419 2.030 1_655 S
O420 C423 1.251 . S
C421 O424 1.238 . S
C421 O425 1.241 . S
C422 O415 1.247 . S
C422 O416 1.261 . S
C423 O418 1.259 . S
C423 O420 1.251 . S
O424 Co414 2.021 . S
O424 C421 1.238 . S
O425 Co419 2.052 . S
O425 C421 1.241 . S
O426 Co414 2.137 . S
O426 C417 1.247 . S
O427 Co414 2.244 . S
O427 C417 1.272 . S
O427 Co419 2.135 . S
Co428 O429 2.216 . S
Co428 O430 2.091 . S
Co428 O432 2.004 . S
Co428 O438 2.021 . S
Co428 O440 2.137 . S
Co428 O441 2.244 . S
O429 Co428 2.216 . S
O429 C436 1.247 . S
O430 Co428 2.091 . S
O430 C436 1.261 . S
C431 O440 1.247 . S
C431 O441 1.272 . S
O432 Co428 2.004 . S
O432 C437 1.259 . S
Co433 O434 2.061 . S
Co433 O439 2.052 . S
Co433 O441 2.135 . S
O434 Co433 2.061 . S
O434 C437 1.235 . S
C435 O438 1.238 . S
C435 O439 1.241 . S
C436 O429 1.247 . S
C436 O430 1.261 . S
C437 O432 1.259 . S
C437 O434 1.235 . S
O438 Co428 2.021 . S
O438 C435 1.238 . S
O439 Co433 2.052 . S
O439 C435 1.241 . S
O440 Co428 2.137 . S
O440 C431 1.247 . S
O441 Co428 2.244 . S
O441 C431 1.272 . S
O441 Co433 2.135 . S
Co442 O443 2.216 . S
Co442 O444 2.091 . S
Co442 O446 2.004 . S
Co442 O452 2.021 . S
Co442 O454 2.137 . S
Co442 O455 2.244 . S
O443 Co442 2.216 . S
O443 C450 1.247 . S
O444 Co442 2.091 . S
O444 C450 1.261 . S
C445 O454 1.247 . S
C445 O455 1.272 . S
O446 Co442 2.004 . S
O446 C451 1.259 . S
Co447 O448 2.061 . S
Co447 O453 2.052 . S
Co447 O455 2.135 . S
O448 Co447 2.061 . S
O448 C451 1.235 . S
C449 O452 1.238 . S
C449 O453 1.241 . S
C450 O443 1.247 . S
C450 O444 1.261 . S
C451 O446 1.259 . S
C451 O448 1.235 . S
O452 Co442 2.021 . S
O452 C449 1.238 . S
O453 Co447 2.052 . S
O453 C449 1.241 . S
O454 Co442 2.137 . S
O454 C445 1.247 . S
O455 Co442 2.244 . S
O455 C445 1.272 . S
O455 Co447 2.135 . S
Co456 O457 2.216 . S
Co456 O458 2.091 . S
Co456 O460 2.004 . S
Co456 O466 2.021 . S
Co456 O468 2.137 . S
Co456 O469 2.244 1_455 S
O457 Co456 2.216 . S
O457 C464 1.247 . S
O458 Co456 2.091 . S
O458 C464 1.261 . S
C459 O468 1.247 1_655 S
C459 O469 1.272 . S
O460 Co456 2.004 . S
O460 C465 1.259 . S
Co461 O462 2.061 . S
Co461 O467 2.052 . S
Co461 O469 2.135 1_455 S
O462 Co461 2.061 . S
O462 C465 1.235 . S
C463 O466 1.238 . S
C463 O467 1.241 . S
C464 O457 1.247 . S
C464 O458 1.261 . S
C465 O460 1.259 . S
C465 O462 1.235 . S
O466 Co456 2.021 . S
O466 C463 1.238 . S
O467 Co461 2.052 . S
O467 C463 1.241 . S
O468 Co456 2.137 . S
O468 C459 1.247 1_455 S
O469 Co456 2.244 1_655 S
O469 C459 1.272 . S
O469 Co461 2.135 1_655 S
Co470 O471 2.216 . S
Co470 O472 2.091 . S
Co470 O474 2.004 . S
Co470 O480 2.021 . S
Co470 O482 2.137 . S
Co470 O483 2.244 . S
O471 Co470 2.216 . S
O471 C478 1.247 . S
O472 Co470 2.091 . S
O472 C478 1.261 . S
C473 O482 1.247 . S
C473 O483 1.272 . S
O474 Co470 2.004 . S
O474 C479 1.259 . S
Co475 O476 2.061 . S
Co475 O481 2.052 . S
Co475 O483 2.135 . S
O476 Co475 2.061 . S
O476 C479 1.235 . S
C477 O480 1.238 . S
C477 O481 1.241 . S
C478 O471 1.247 . S
C478 O472 1.261 . S
C479 O474 1.259 . S
C479 O476 1.235 . S
O480 Co470 2.021 . S
O480 C477 1.238 . S
O481 Co475 2.052 . S
O481 C477 1.241 . S
O482 Co470 2.137 . S
O482 C473 1.247 . S
O483 Co470 2.244 . S
O483 C473 1.272 . S
O483 Co475 2.135 . S
Co484 O485 2.216 . S
Co484 O486 2.091 . S
Co484 O488 2.004 . S
Co484 O494 2.021 . S
Co484 O496 2.137 . S
Co484 O497 2.244 . S
O485 Co484 2.216 . S
O485 C492 1.247 . S
O486 Co484 2.091 . S
O486 C492 1.261 . S
C487 O496 1.247 . S
C487 O497 1.272 . S
O488 Co484 2.004 . S
O488 C493 1.259 . S
Co489 O490 2.061 . S
Co489 O495 2.052 . S
Co489 O497 2.135 . S
O490 Co489 2.061 . S
O490 C493 1.235 . S
C491 O494 1.238 . S
C491 O495 1.241 . S
C492 O485 1.247 . S
C492 O486 1.261 . S
C493 O488 1.259 . S
C493 O490 1.235 . S
O494 Co484 2.021 . S
O494 C491 1.238 . S
O495 Co489 2.052 . S
O495 C491 1.241 . S
O496 Co484 2.137 . S
O496 C487 1.247 . S
O497 Co484 2.244 . S
O497 C487 1.272 . S
O497 Co489 2.135 . S
Co498 O499 2.216 . S
Co498 O500 2.091 . S
Co498 O502 2.004 . S
Co498 O508 2.021 1_565 S
Co498 O510 2.137 . S
Co498 O511 2.244 . S
O499 Co498 2.216 . S
O499 C506 1.247 . S
O500 Co498 2.091 . S
O500 C506 1.261 . S
C501 O510 1.247 . S
C501 O511 1.327 . S
O502 Co498 2.004 . S
O502 C507 1.259 1_565 S
Co503 O504 2.061 . S
Co503 O509 2.052 . S
Co503 O511 2.076 1_545 S
O504 Co503 2.061 . S
O504 C507 1.235 . S
C505 O508 1.238 . S
C505 O509 1.241 . S
C506 O499 1.247 . S
C506 O500 1.261 . S
C507 O502 1.259 1_545 S
C507 O504 1.235 . S
O508 Co498 2.021 1_545 S
O508 C505 1.238 . S
O509 Co503 2.052 . S
O509 C505 1.241 . S
O510 Co498 2.137 . S
O510 C501 1.247 . S
O511 Co498 2.244 . S
O511 C501 1.327 . S
O511 Co503 2.076 1_565 S
Co512 O513 2.216 . S
Co512 O514 2.091 . S
Co512 O516 2.004 . S
Co512 O522 2.021 . S
Co512 O524 2.137 . S
Co512 O525 2.244 . S
O513 Co512 2.216 . S
O513 C520 1.247 . S
O514 Co512 2.091 . S
O514 C520 1.261 . S
C515 O524 1.247 . S
C515 O525 1.272 . S
O516 Co512 2.004 . S
O516 C521 1.259 . S
Co517 O518 2.061 . S
Co517 O523 2.052 . S
Co517 O525 2.135 . S
O518 Co517 2.061 . S
O518 C521 1.235 . S
C519 O522 1.238 . S
C519 O523 1.241 . S
C520 O513 1.247 . S
C520 O514 1.261 . S
C521 O516 1.259 . S
C521 O518 1.235 . S
O522 Co512 2.021 . S
O522 C519 1.238 . S
O523 Co517 2.052 . S
O523 C519 1.241 . S
O524 Co512 2.137 . S
O524 C515 1.247 . S
O525 Co512 2.244 . S
O525 C515 1.272 . S
O525 Co517 2.135 . S
Co526 O527 2.216 . S
Co526 O528 2.091 . S
Co526 O530 2.004 . S
Co526 O536 2.021 . S
Co526 O538 2.137 . S
Co526 O539 2.244 . S
O527 Co526 2.216 . S
O527 C534 1.247 . S
O528 Co526 2.091 . S
O528 C534 1.261 . S
C529 O538 1.247 . S
C529 O539 1.272 . S
O530 Co526 2.004 . S
O530 C535 1.259 . S
Co531 O532 2.061 . S
Co531 O537 2.052 . S
Co531 O539 2.135 . S
O532 Co531 2.061 . S
O532 C535 1.235 . S
C533 O536 1.238 . S
C533 O537 1.241 . S
C534 O527 1.247 . S
C534 O528 1.261 . S
C535 O530 1.259 . S
C535 O532 1.235 . S
O536 Co526 2.021 . S
O536 C533 1.238 . S
O537 Co531 2.052 . S
O537 C533 1.241 . S
O538 Co526 2.137 . S
O538 C529 1.247 . S
O539 Co526 2.244 . S
O539 C529 1.272 . S
O539 Co531 2.135 . S
Co540 O541 2.216 . S
Co540 O542 2.091 . S
Co540 O544 2.004 . S
Co540 O550 2.021 . S
Co540 O552 2.137 . S
Co540 O553 2.244 . S
O541 Co540 2.216 . S
O541 C548 1.247 . S
O542 Co540 2.091 . S
O542 C548 1.261 . S
C543 O552 1.247 . S
C543 O553 1.272 . S
O544 Co540 2.004 . S
O544 C549 1.259 . S
Co545 O546 2.061 . S
Co545 O551 2.052 . S
Co545 O553 2.135 . S
O546 Co545 2.061 . S
O546 C549 1.235 . S
C547 O550 1.238 . S
C547 O551 1.241 . S
C548 O541 1.247 . S
C548 O542 1.261 . S
C549 O544 1.259 . S
C549 O546 1.235 . S
O550 Co540 2.021 . S
O550 C547 1.238 . S
O551 Co545 2.052 . S
O551 C547 1.241 . S
O552 Co540 2.137 . S
O552 C543 1.247 . S
O553 Co540 2.244 . S
O553 C543 1.272 . S
O553 Co545 2.135 . S
Co554 O555 2.216 . S
Co554 O556 2.091 . S
Co554 O558 2.004 . S
Co554 O564 2.021 . S
Co554 O566 2.137 1_565 S
Co554 O567 2.244 1_565 S
O555 Co554 2.216 . S
O555 C562 1.247 . S
O556 Co554 2.091 . S
O556 C562 1.261 . S
C557 O566 1.247 . S
C557 O567 1.272 . S
O558 Co554 2.004 . S
O558 C563 1.259 1_565 S
Co559 O560 2.061 . S
Co559 O565 2.052 1_545 S
Co559 O567 2.135 . S
O560 Co559 2.061 . S
O560 C563 1.235 . S
C561 O564 1.238 . S
C561 O565 1.241 . S
C562 O555 1.247 . S
C562 O556 1.261 . S
C563 O558 1.259 1_545 S
C563 O560 1.235 . S
O564 Co554 2.021 . S
O564 C561 1.238 . S
O565 Co559 2.052 1_565 S
O565 C561 1.241 . S
O566 Co554 2.137 1_545 S
O566 C557 1.247 . S
O567 Co554 2.244 1_545 S
O567 C557 1.272 . S
O567 Co559 2.135 . S
Co568 O569 2.216 . S
Co568 O570 2.091 . S
Co568 O572 2.004 . S
Co568 O578 2.021 . S
Co568 O580 2.137 . S
Co568 O581 2.244 . S
O569 Co568 2.216 . S
O569 C576 1.247 . S
O570 Co568 2.091 . S
O570 C576 1.261 . S
C571 O580 1.247 . S
C571 O581 1.272 . S
O572 Co568 2.004 . S
O572 C577 1.259 . S
Co573 O574 2.061 . S
Co573 O579 2.052 . S
Co573 O581 2.135 . S
O574 Co573 2.061 . S
O574 C577 1.235 . S
C575 O578 1.238 . S
C575 O579 1.241 . S
C576 O569 1.247 . S
C576 O570 1.261 . S
C577 O572 1.259 . S
C577 O574 1.235 . S
O578 Co568 2.021 . S
O578 C575 1.238 . S
O579 Co573 2.052 . S
O579 C575 1.241 . S
O580 Co568 2.137 . S
O580 C571 1.247 . S
O581 Co568 2.244 . S
O581 C571 1.272 . S
O581 Co573 2.135 . S
Co582 O583 2.216 . S
Co582 O584 2.091 . S
Co582 O586 2.004 . S
Co582 O592 2.021 . S
Co582 O594 2.137 . S
Co582 O595 2.244 . S
O583 Co582 2.216 . S
O583 C590 1.247 . S
O584 Co582 2.091 . S
O584 C590 1.261 . S
C585 O594 1.247 . S
C585 O595 1.272 . S
O586 Co582 2.004 . S
O586 C591 1.259 . S
Co587 O588 2.061 . S
Co587 O593 2.052 . S
Co587 O595 2.135 . S
O588 Co587 2.061 . S
O588 C591 1.235 . S
C589 O592 1.238 . S
C589 O593 1.241 . S
C590 O583 1.247 . S
C590 O584 1.261 . S
C591 O586 1.259 . S
C591 O588 1.235 . S
O592 Co582 2.021 . S
O592 C589 1.238 . S
O593 Co587 2.052 . S
O593 C589 1.241 . S
O594 Co582 2.137 . S
O594 C585 1.247 . S
O595 Co582 2.244 . S
O595 C585 1.272 . S
O595 Co587 2.135 . S
Co596 O597 2.216 . S
Co596 O598 2.091 . S
Co596 O600 2.004 . S
Co596 O606 2.021 . S
Co596 O608 2.137 . S
Co596 O609 2.244 . S
O597 Co596 2.216 . S
O597 C604 1.247 . S
O598 Co596 2.091 . S
O598 C604 1.261 . S
C599 O608 1.247 . S
C599 O609 1.272 . S
O600 Co596 2.004 . S
O600 C605 1.259 . S
Co601 O602 2.061 . S
Co601 O607 2.052 . S
Co601 O609 2.135 . S
O602 Co601 2.061 . S
O602 C605 1.235 . S
C603 O606 1.238 . S
C603 O607 1.241 . S
C604 O597 1.247 . S
C604 O598 1.261 . S
C605 O600 1.259 . S
C605 O602 1.235 . S
O606 Co596 2.021 . S
O606 C603 1.238 . S
O607 Co601 2.052 . S
O607 C603 1.241 . S
O608 Co596 2.137 . S
O608 C599 1.247 . S
O609 Co596 2.244 . S
O609 C599 1.272 . S
O609 Co601 2.135 . S
Co610 O611 2.216 . S
Co610 O612 2.091 . S
Co610 O614 2.004 . S
Co610 O620 2.021 . S
Co610 O622 2.137 . S
Co610 O623 2.244 . S
O611 Co610 2.216 . S
O611 C618 1.247 . S
O612 Co610 2.091 . S
O612 C618 1.261 . S
C613 O622 1.247 . S
C613 O623 1.272 . S
O614 Co610 2.004 . S
O614 C619 1.259 1_655 S
Co615 O616 2.061 1_655 S
Co615 O621 2.052 . S
Co615 O623 2.135 . S
O616 Co615 2.061 1_455 S
O616 C619 1.235 . S
C617 O620 1.238 . S
C617 O621 1.241 . S
C618 O611 1.247 . S
C618 O612 1.261 . S
C619 O614 1.259 1_455 S
C619 O616 1.235 . S
O620 Co610 2.021 . S
O620 C617 1.238 . S
O621 Co615 2.052 . S
O621 C617 1.241 . S
O622 Co610 2.137 . S
O622 C613 1.247 . S
O623 Co610 2.244 . S
O623 C613 1.272 . S
O623 Co615 2.135 . S
Co624 O625 2.216 . S
Co624 O626 2.091 . S
Co624 O628 2.004 . S
Co624 O634 2.021 . S
Co624 O636 2.137 . S
Co624 O637 2.244 . S
O625 Co624 2.216 . S
O625 C632 1.247 . S
O626 Co624 2.091 . S
O626 C632 1.261 . S
C627 O636 1.247 . S
C627 O637 1.272 . S
O628 Co624 2.004 . S
O628 C633 1.259 . S
Co629 O630 2.061 . S
Co629 O635 2.052 . S
Co629 O637 2.135 . S
O630 Co629 2.061 . S
O630 C633 1.235 . S
C631 O634 1.238 . S
C631 O635 1.241 . S
C632 O625 1.247 . S
C632 O626 1.261 . S
C633 O628 1.259 . S
C633 O630 1.235 . S
O634 Co624 2.021 . S
O634 C631 1.238 . S
O635 Co629 2.052 . S
O635 C631 1.241 . S
O636 Co624 2.137 . S
O636 C627 1.247 . S
O637 Co624 2.244 . S
O637 C627 1.272 . S
O637 Co629 2.135 . S
Co638 O639 2.216 . S
Co638 O640 2.091 . S
Co638 O642 2.004 1_655 S
Co638 O648 2.021 . S
Co638 O650 2.137 . S
Co638 O651 2.244 . S
O639 Co638 2.216 . S
O639 C646 1.247 . S
O640 Co638 2.091 . S
O640 C646 1.261 . S
C641 O650 1.247 . S
C641 O651 1.272 . S
O642 Co638 2.004 1_455 S
O642 C647 1.259 . S
Co643 O644 2.061 1_655 S
Co643 O649 2.052 . S
Co643 O651 2.135 . S
O644 Co643 2.061 1_455 S
O644 C647 1.235 . S
C645 O648 1.238 . S
C645 O649 1.241 . S
C646 O639 1.247 . S
C646 O640 1.261 . S
C647 O642 1.259 . S
C647 O644 1.235 . S
O648 Co638 2.021 . S
O648 C645 1.238 . S
O649 Co643 2.052 . S
O649 C645 1.241 . S
O650 Co638 2.137 . S
O650 C641 1.247 . S
O651 Co638 2.244 . S
O651 C641 1.272 . S
O651 Co643 2.135 . S
Co652 O653 2.216 . S
Co652 O654 2.091 . S
Co652 O656 2.004 . S
Co652 O662 2.021 . S
Co652 O664 2.137 . S
Co652 O665 2.244 . S
O653 Co652 2.216 . S
O653 C660 1.247 . S
O654 Co652 2.091 . S
O654 C660 1.261 . S
C655 O664 1.247 . S
C655 O665 1.272 . S
O656 Co652 2.004 . S
O656 C661 1.259 . S
Co657 O658 2.061 . S
Co657 O663 2.052 . S
Co657 O665 2.135 . S
O658 Co657 2.061 . S
O658 C661 1.235 . S
C659 O662 1.238 . S
C659 O663 1.241 . S
C660 O653 1.247 . S
C660 O654 1.261 . S
C661 O656 1.259 . S
C661 O658 1.235 . S
O662 Co652 2.021 . S
O662 C659 1.238 . S
O663 Co657 2.052 . S
O663 C659 1.241 . S
O664 Co652 2.137 . S
O664 C655 1.247 . S
O665 Co652 2.244 . S
O665 C655 1.272 . S
O665 Co657 2.135 . S
H666 C674 0.950 . S
H667 C679 0.950 . S
H668 C676 0.950 . S
H669 C678 0.950 . S
H670 C680 0.950 . S
H671 C682 0.950 . S
H672 C684 0.950 . S
H673 C685 0.950 . S
C674 H666 0.950 . S
C674 C675 1.386 . S
C674 C676 1.391 . S
C675 C674 1.386 . S
C675 C679 1.393 . S
C676 H668 0.950 . S
C676 C674 1.391 . S
C676 C677 1.400 . S
C677 C676 1.400 . S
C677 C678 1.398 . S
C677 C683 1.491 . S
C678 H669 0.950 . S
C678 C677 1.398 . S
C678 C679 1.391 . S
C679 H667 0.950 . S
C679 C675 1.393 . S
C679 C678 1.391 . S
C680 H670 0.950 . S
C680 C681 1.386 . S
C680 C682 1.391 . S
C681 C680 1.386 . S
C681 C685 1.393 . S
C682 H671 0.950 . S
C682 C680 1.391 . S
C682 C683 1.400 . S
C683 C677 1.491 . S
C683 C682 1.400 . S
C683 C684 1.398 . S
C684 H672 0.950 . S
C684 C683 1.398 . S
C684 C685 1.391 . S
C685 H673 0.950 . S
C685 C681 1.393 . S
C685 C684 1.391 . S
H686 C694 0.950 . S
H687 C699 0.950 . S
H688 C696 0.950 . S
H689 C698 0.950 . S
H690 C700 0.950 . S
H691 C702 0.950 . S
H692 C704 0.950 . S
H693 C705 0.950 . S
C694 H686 0.950 . S
C694 C695 1.386 . S
C694 C696 1.391 . S
C695 C694 1.386 . S
C695 C699 1.393 . S
C696 H688 0.950 . S
C696 C694 1.391 . S
C696 C697 1.400 . S
C697 C696 1.400 . S
C697 C698 1.398 . S
C697 C703 1.491 . S
C698 H689 0.950 . S
C698 C697 1.398 . S
C698 C699 1.391 . S
C699 H687 0.950 . S
C699 C695 1.393 . S
C699 C698 1.391 . S
C700 H690 0.950 . S
C700 C701 1.386 . S
C700 C702 1.391 . S
C701 C700 1.386 . S
C701 C705 1.393 . S
C702 H691 0.950 . S
C702 C700 1.391 . S
C702 C703 1.400 . S
C703 C697 1.491 . S
C703 C702 1.400 . S
C703 C704 1.398 . S
C704 H692 0.950 . S
C704 C703 1.398 . S
C704 C705 1.391 . S
C705 H693 0.950 . S
C705 C701 1.393 . S
C705 C704 1.391 . S
H706 C714 0.950 . S
H707 C719 0.950 1_565 S
H708 C716 0.950 . S
H709 C718 0.950 1_565 S
H710 C720 0.950 . S
H711 C722 0.950 . S
H712 C724 0.950 . S
H713 C725 0.950 . S
C714 H706 0.950 . S
C714 C715 1.386 . S
C714 C716 1.391 . S
C715 C714 1.386 . S
C715 C719 1.393 . S
C716 H708 0.950 . S
C716 C714 1.391 . S
C716 C717 1.400 . S
C717 C716 1.400 . S
C717 C718 1.398 . S
C717 C723 1.491 . S
C718 H709 0.950 1_545 S
C718 C717 1.398 . S
C718 C719 1.391 . S
C719 H707 0.950 1_545 S
C719 C715 1.393 . S
C719 C718 1.391 . S
C720 H710 0.950 . S
C720 C721 1.382 1_565 S
C720 C722 1.391 . S
C721 C720 1.382 1_545 S
C721 C725 1.391 . S
C722 H711 0.950 . S
C722 C720 1.391 . S
C722 C723 1.400 1_565 S
C723 C717 1.491 . S
C723 C722 1.400 1_545 S
C723 C724 1.398 . S
C724 H712 0.950 . S
C724 C723 1.398 . S
C724 C725 1.391 . S
C725 H713 0.950 . S
C725 C721 1.391 . S
C725 C724 1.391 . S
H726 C734 0.950 . S
H727 C739 0.950 . S
H728 C736 0.950 . S
H729 C738 0.950 . S
H730 C740 0.950 . S
H731 C742 0.950 . S
H732 C744 0.950 . S
H733 C745 0.950 . S
C734 H726 0.950 . S
C734 C735 1.386 . S
C734 C736 1.391 . S
C735 C734 1.386 . S
C735 C739 1.393 . S
C736 H728 0.950 . S
C736 C734 1.391 . S
C736 C737 1.400 . S
C737 C736 1.400 . S
C737 C738 1.398 . S
C737 C743 1.491 . S
C738 H729 0.950 . S
C738 C737 1.398 . S
C738 C739 1.391 . S
C739 H727 0.950 . S
C739 C735 1.393 . S
C739 C738 1.391 . S
C740 H730 0.950 . S
C740 C741 1.386 . S
C740 C742 1.391 . S
C741 C740 1.386 . S
C741 C745 1.393 . S
C742 H731 0.950 . S
C742 C740 1.391 . S
C742 C743 1.400 . S
C743 C737 1.491 . S
C743 C742 1.400 . S
C743 C744 1.398 . S
C744 H732 0.950 . S
C744 C743 1.398 . S
C744 C745 1.391 . S
C745 H733 0.950 . S
C745 C741 1.393 . S
C745 C744 1.391 . S
H746 C754 0.950 . S
H747 C759 0.950 . S
H748 C756 0.950 . S
H749 C758 0.950 . S
H750 C760 0.950 . S
H751 C762 0.963 . S
H752 C764 0.950 . S
H753 C765 0.950 . S
C754 H746 0.950 . S
C754 C755 1.386 . S
C754 C756 1.391 . S
C755 C754 1.386 . S
C755 C759 1.393 . S
C756 H748 0.950 . S
C756 C754 1.391 . S
C756 C757 1.400 . S
C757 C756 1.400 . S
C757 C758 1.398 . S
C757 C763 1.491 . S
C758 H749 0.950 . S
C758 C757 1.398 . S
C758 C759 1.391 . S
C759 H747 0.950 . S
C759 C755 1.393 . S
C759 C758 1.391 . S
C760 H750 0.950 . S
C760 C761 1.390 . S
C760 C762 1.390 . S
C761 C760 1.390 . S
C761 C765 1.389 1_655 S
C762 H751 0.963 . S
C762 C760 1.390 . S
C762 C763 1.388 1_655 S
C763 C757 1.491 . S
C763 C762 1.388 1_455 S
C763 C764 1.398 . S
C764 H752 0.950 . S
C764 C763 1.398 . S
C764 C765 1.391 . S
C765 H753 0.950 . S
C765 C761 1.389 1_455 S
C765 C764 1.391 . S
H766 C774 0.950 . S
H767 C779 0.950 . S
H768 C776 0.950 . S
H769 C778 0.950 . S
H770 C780 0.950 . S
H771 C782 0.950 . S
H772 C784 0.950 . S
H773 C785 0.950 . S
C774 H766 0.950 . S
C774 C775 1.386 . S
C774 C776 1.391 . S
C775 C774 1.386 . S
C775 C779 1.393 . S
C776 H768 0.950 . S
C776 C774 1.391 . S
C776 C777 1.400 . S
C777 C776 1.400 . S
C777 C778 1.398 . S
C777 C783 1.491 . S
C778 H769 0.950 . S
C778 C777 1.398 . S
C778 C779 1.391 . S
C779 H767 0.950 . S
C779 C775 1.393 . S
C779 C778 1.391 . S
C780 H770 0.950 . S
C780 C781 1.386 . S
C780 C782 1.391 . S
C781 C780 1.386 . S
C781 C785 1.393 . S
C782 H771 0.950 . S
C782 C780 1.391 . S
C782 C783 1.400 . S
C783 C777 1.491 . S
C783 C782 1.400 . S
C783 C784 1.398 . S
C784 H772 0.950 . S
C784 C783 1.398 . S
C784 C785 1.391 . S
C785 H773 0.950 . S
C785 C781 1.393 . S
C785 C784 1.391 . S
H786 C794 0.950 . S
H787 C799 0.950 1_554 S
H788 C796 0.950 . S
H789 C798 0.950 1_554 S
H790 C800 0.950 . S
H791 C802 0.948 . S
H792 C804 0.950 . S
H793 C805 0.950 . S
C794 H786 0.950 . S
C794 C795 1.386 . S
C794 C796 1.391 . S
C795 C794 1.386 . S
C795 C799 1.393 . S
C796 H788 0.950 . S
C796 C794 1.391 . S
C796 C797 1.400 . S
C797 C796 1.400 . S
C797 C798 1.398 . S
C797 C803 1.491 . S
C798 H789 0.950 1_556 S
C798 C797 1.398 . S
C798 C799 1.391 . S
C799 H787 0.950 1_556 S
C799 C795 1.393 . S
C799 C798 1.391 . S
C800 H790 0.950 . S
C800 C801 1.386 . S
C800 C802 1.391 1_655 S
C801 C800 1.386 . S
C801 C805 1.393 1_655 S
C802 H791 0.948 . S
C802 C800 1.391 1_455 S
C802 C803 1.400 . S
C803 C797 1.491 . S
C803 C802 1.400 . S
C803 C804 1.398 . S
C804 H792 0.950 . S
C804 C803 1.398 . S
C804 C805 1.391 . S
C805 H793 0.950 . S
C805 C801 1.393 1_455 S
C805 C804 1.391 . S
H806 C814 0.950 . S
H807 C819 0.950 . S
H808 C816 0.950 . S
H809 C818 0.950 . S
H810 C820 0.950 . S
H811 C822 0.950 1_554 S
H812 C824 0.950 . S
H813 C825 0.950 . S
C814 H806 0.950 . S
C814 C815 1.386 . S
C814 C816 1.391 . S
C815 C814 1.386 . S
C815 C819 1.393 1_556 S
C816 H808 0.950 . S
C816 C814 1.391 . S
C816 C817 1.400 . S
C817 C816 1.400 . S
C817 C818 1.398 1_556 S
C817 C823 1.491 . S
C818 H809 0.950 . S
C818 C817 1.398 1_554 S
C818 C819 1.391 . S
C819 H807 0.950 . S
C819 C815 1.393 1_554 S
C819 C818 1.391 . S
C820 H810 0.950 . S
C820 C821 1.386 . S
C820 C822 1.391 . S
C821 C820 1.386 . S
C821 C825 1.393 . S
C822 H811 0.950 1_556 S
C822 C820 1.391 . S
C822 C823 1.400 . S
C823 C817 1.491 . S
C823 C822 1.400 . S
C823 C824 1.398 . S
C824 H812 0.950 . S
C824 C823 1.398 . S
C824 C825 1.391 . S
C825 H813 0.950 . S
C825 C821 1.393 . S
C825 C824 1.391 . S
H826 C834 0.950 . S
H827 C839 0.950 . S
H828 C836 0.937 1_554 S
H829 C838 0.950 . S
H830 C840 0.950 . S
H831 C842 0.950 . S
H832 C844 0.950 . S
H833 C845 0.950 . S
C834 H826 0.950 . S
C834 C835 1.386 1_554 S
C834 C836 1.384 1_554 S
C835 C834 1.386 1_556 S
C835 C839 1.393 . S
C836 H828 0.937 1_556 S
C836 C834 1.384 1_556 S
C836 C837 1.421 . S
C837 C836 1.421 . S
C837 C838 1.398 . S
C837 C843 1.491 . S
C838 H829 0.950 . S
C838 C837 1.398 . S
C838 C839 1.391 . S
C839 H827 0.950 . S
C839 C835 1.393 . S
C839 C838 1.391 . S
C840 H830 0.950 . S
C840 C841 1.386 . S
C840 C842 1.391 . S
C841 C840 1.386 . S
C841 C845 1.393 . S
C842 H831 0.950 . S
C842 C840 1.391 . S
C842 C843 1.400 . S
C843 C837 1.491 . S
C843 C842 1.400 . S
C843 C844 1.398 . S
C844 H832 0.950 . S
C844 C843 1.398 . S
C844 C845 1.391 . S
C845 H833 0.950 . S
C845 C841 1.393 . S
C845 C844 1.391 . S
H846 C854 0.950 . S
H847 C859 0.950 . S
H848 C856 0.950 . S
H849 C858 0.950 . S
H850 C860 0.950 . S
H851 C862 0.950 . S
H852 C864 0.950 . S
H853 C865 0.950 . S
C854 H846 0.950 . S
C854 C855 1.383 . S
C854 C856 1.391 . S
C855 C854 1.383 . S
C855 C859 1.374 1_545 S
C856 H848 0.950 . S
C856 C854 1.391 . S
C856 C857 1.400 . S
C857 C856 1.400 . S
C857 C858 1.398 1_545 S
C857 C863 1.491 . S
C858 H849 0.950 . S
C858 C857 1.398 1_565 S
C858 C859 1.391 . S
C859 H847 0.950 . S
C859 C855 1.374 1_565 S
C859 C858 1.391 . S
C860 H850 0.950 . S
C860 C861 1.386 1_565 S
C860 C862 1.391 . S
C861 C860 1.386 1_545 S
C861 C865 1.393 . S
C862 H851 0.950 . S
C862 C860 1.391 . S
C862 C863 1.400 1_565 S
C863 C857 1.491 . S
C863 C862 1.400 1_545 S
C863 C864 1.398 . S
C864 H852 0.950 . S
C864 C863 1.398 . S
C864 C865 1.391 . S
C865 H853 0.950 . S
C865 C861 1.393 . S
C865 C864 1.391 . S
H866 C874 0.950 . S
H867 C879 0.950 . S
H868 C876 0.950 . S
H869 C878 0.950 . S
H870 C880 0.950 . S
H871 C882 0.950 . S
H872 C884 0.950 . S
H873 C885 0.950 . S
C874 H866 0.950 . S
C874 C875 1.386 . S
C874 C876 1.391 . S
C875 C874 1.386 . S
C875 C879 1.393 . S
C876 H868 0.950 . S
C876 C874 1.391 . S
C876 C877 1.400 . S
C877 C876 1.400 . S
C877 C878 1.398 . S
C877 C883 1.491 . S
C878 H869 0.950 . S
C878 C877 1.398 . S
C878 C879 1.391 . S
C879 H867 0.950 . S
C879 C875 1.393 . S
C879 C878 1.391 . S
C880 H870 0.950 . S
C880 C881 1.386 . S
C880 C882 1.391 . S
C881 C880 1.386 . S
C881 C885 1.393 . S
C882 H871 0.950 . S
C882 C880 1.391 . S
C882 C883 1.400 . S
C883 C877 1.491 . S
C883 C882 1.400 . S
C883 C884 1.398 . S
C884 H872 0.950 . S
C884 C883 1.398 . S
C884 C885 1.391 . S
C885 H873 0.950 . S
C885 C881 1.393 . S
C885 C884 1.391 . S
H886 C894 0.950 . S
H887 C899 0.950 . S
H888 C896 0.950 . S
H889 C898 0.950 . S
H890 C900 0.950 . S
H891 C902 0.950 . S
H892 C904 0.950 . S
H893 C905 0.950 . S
C894 H886 0.950 . S
C894 C895 1.386 . S
C894 C896 1.391 . S
C895 C894 1.386 . S
C895 C899 1.393 . S
C896 H888 0.950 . S
C896 C894 1.391 . S
C896 C897 1.400 . S
C897 C896 1.400 . S
C897 C898 1.398 . S
C897 C903 1.491 . S
C898 H889 0.950 . S
C898 C897 1.398 . S
C898 C899 1.391 . S
C899 H887 0.950 . S
C899 C895 1.393 . S
C899 C898 1.391 . S
C900 H890 0.950 . S
C900 C901 1.386 . S
C900 C902 1.391 . S
C901 C900 1.386 . S
C901 C905 1.393 . S
C902 H891 0.950 . S
C902 C900 1.391 . S
C902 C903 1.400 . S
C903 C897 1.491 . S
C903 C902 1.400 . S
C903 C904 1.398 . S
C904 H892 0.950 . S
C904 C903 1.398 . S
C904 C905 1.391 . S
C905 H893 0.950 . S
C905 C901 1.393 . S
C905 C904 1.391 . S
H906 C914 0.950 . S
H907 C919 0.950 . S
H908 C916 0.950 . S
H909 C918 0.950 . S
H910 C920 0.950 . S
H911 C922 0.950 . S
H912 C924 0.950 . S
H913 C925 0.950 . S
C914 H906 0.950 . S
C914 C915 1.386 . S
C914 C916 1.391 . S
C915 C914 1.386 . S
C915 C919 1.393 . S
C916 H908 0.950 . S
C916 C914 1.391 . S
C916 C917 1.400 . S
C917 C916 1.400 . S
C917 C918 1.398 . S
C917 C923 1.491 . S
C918 H909 0.950 . S
C918 C917 1.398 . S
C918 C919 1.391 . S
C919 H907 0.950 . S
C919 C915 1.393 . S
C919 C918 1.391 . S
C920 H910 0.950 . S
C920 C921 1.386 . S
C920 C922 1.391 . S
C921 C920 1.386 . S
C921 C925 1.393 . S
C922 H911 0.950 . S
C922 C920 1.391 . S
C922 C923 1.400 . S
C923 C917 1.491 . S
C923 C922 1.400 . S
C923 C924 1.398 . S
C924 H912 0.950 . S
C924 C923 1.398 . S
C924 C925 1.391 . S
C925 H913 0.950 . S
C925 C921 1.393 . S
C925 C924 1.391 . S
H926 C934 0.950 . S
H927 C939 0.950 . S
H928 C936 0.950 . S
H929 C938 0.950 . S
H930 C940 0.950 . S
H931 C942 0.950 . S
H932 C944 0.950 . S
H933 C945 0.950 . S
C934 H926 0.950 . S
C934 C935 1.386 . S
C934 C936 1.391 1_565 S
C935 C934 1.386 . S
C935 C939 1.393 . S
C936 H928 0.950 . S
C936 C934 1.391 1_545 S
C936 C937 1.400 . S
C937 C936 1.400 . S
C937 C938 1.398 1_545 S
C937 C943 1.491 . S
C938 H929 0.950 . S
C938 C937 1.398 1_565 S
C938 C939 1.391 . S
C939 H927 0.950 . S
C939 C935 1.393 . S
C939 C938 1.391 . S
C940 H930 0.950 . S
C940 C941 1.386 . S
C940 C942 1.391 . S
C941 C940 1.386 . S
C941 C945 1.393 . S
C942 H931 0.950 . S
C942 C940 1.391 . S
C942 C943 1.400 . S
C943 C937 1.491 . S
C943 C942 1.400 . S
C943 C944 1.398 . S
C944 H932 0.950 . S
C944 C943 1.398 . S
C944 C945 1.391 . S
C945 H933 0.950 . S
C945 C941 1.393 . S
C945 C944 1.391 . S
H946 C954 0.950 . S
H947 C959 0.950 . S
H948 C956 0.950 . S
H949 C958 0.950 . S
H950 C960 0.950 . S
H951 C962 0.950 . S
H952 C964 0.950 . S
H953 C965 0.950 . S
C954 H946 0.950 . S
C954 C955 1.386 . S
C954 C956 1.391 . S
C955 C954 1.386 . S
C955 C959 1.393 . S
C956 H948 0.950 . S
C956 C954 1.391 . S
C956 C957 1.400 . S
C957 C956 1.400 . S
C957 C958 1.398 . S
C957 C963 1.491 . S
C958 H949 0.950 . S
C958 C957 1.398 . S
C958 C959 1.391 . S
C959 H947 0.950 . S
C959 C955 1.393 . S
C959 C958 1.391 . S
C960 H950 0.950 . S
C960 C961 1.386 . S
C960 C962 1.391 . S
C961 C960 1.386 . S
C961 C965 1.393 . S
C962 H951 0.950 . S
C962 C960 1.391 . S
C962 C963 1.400 . S
C963 C957 1.491 . S
C963 C962 1.400 . S
C963 C964 1.398 . S
C964 H952 0.950 . S
C964 C963 1.398 . S
C964 C965 1.391 . S
C965 H953 0.950 . S
C965 C961 1.393 . S
C965 C964 1.391 . S
H966 C974 0.950 . S
H967 C979 0.950 . S
H968 C976 0.950 . S
H969 C978 0.950 . S
H970 C980 0.950 . S
H971 C982 0.950 . S
H972 C984 0.950 . S
H973 C985 0.950 . S
C974 H966 0.950 . S
C974 C975 1.386 . S
C974 C976 1.391 . S
C975 C974 1.386 . S
C975 C979 1.393 . S
C976 H968 0.950 . S
C976 C974 1.391 . S
C976 C977 1.400 . S
C977 C976 1.400 . S
C977 C978 1.398 . S
C977 C983 1.491 . S
C978 H969 0.950 . S
C978 C977 1.398 . S
C978 C979 1.391 . S
C979 H967 0.950 . S
C979 C975 1.393 . S
C979 C978 1.391 . S
C980 H970 0.950 . S
C980 C981 1.386 . S
C980 C982 1.391 . S
C981 C980 1.386 . S
C981 C985 1.393 . S
C982 H971 0.950 . S
C982 C980 1.391 . S
C982 C983 1.400 . S
C983 C977 1.491 . S
C983 C982 1.400 . S
C983 C984 1.398 . S
C984 H972 0.950 . S
C984 C983 1.398 . S
C984 C985 1.391 . S
C985 H973 0.950 . S
C985 C981 1.393 . S
C985 C984 1.391 . S
H986 C994 0.950 . S
H987 C999 0.950 . S
H988 C996 0.950 . S
H989 C998 0.950 . S
H990 C1000 0.950 . S
H991 C1002 0.950 . S
H992 C1004 0.950 . S
H993 C1005 0.950 . S
C994 H986 0.950 . S
C994 C995 1.386 . S
C994 C996 1.391 . S
C995 C994 1.386 . S
C995 C999 1.393 . S
C996 H988 0.950 . S
C996 C994 1.391 . S
C996 C997 1.400 . S
C997 C996 1.400 . S
C997 C998 1.398 . S
C997 C1003 1.491 . S
C998 H989 0.950 . S
C998 C997 1.398 . S
C998 C999 1.391 . S
C999 H987 0.950 . S
C999 C995 1.393 . S
C999 C998 1.391 . S
C1000 H990 0.950 . S
C1000 C1001 1.386 . S
C1000 C1002 1.391 . S
C1001 C1000 1.386 . S
C1001 C1005 1.393 . S
C1002 H991 0.950 . S
C1002 C1000 1.391 . S
C1002 C1003 1.400 . S
C1003 C997 1.491 . S
C1003 C1002 1.400 . S
C1003 C1004 1.398 . S
C1004 H992 0.950 . S
C1004 C1003 1.398 . S
C1004 C1005 1.391 . S
C1005 H993 0.950 . S
C1005 C1001 1.393 . S
C1005 C1004 1.391 . S
H1006 C1014 0.950 . S
H1007 C1019 0.950 . S
H1008 C1016 0.950 . S
H1009 C1018 0.950 . S
H1010 C1020 0.950 . S
H1011 C1022 0.950 . S
H1012 C1024 0.950 . S
H1013 C1025 0.950 1_545 S
C1014 H1006 0.950 . S
C1014 C1015 1.386 . S
C1014 C1016 1.391 . S
C1015 C1014 1.386 . S
C1015 C1019 1.393 . S
C1016 H1008 0.950 . S
C1016 C1014 1.391 . S
C1016 C1017 1.400 . S
C1017 C1016 1.400 . S
C1017 C1018 1.398 . S
C1017 C1023 1.491 . S
C1018 H1009 0.950 . S
C1018 C1017 1.398 . S
C1018 C1019 1.391 . S
C1019 H1007 0.950 . S
C1019 C1015 1.393 . S
C1019 C1018 1.391 . S
C1020 H1010 0.950 . S
C1020 C1021 1.386 . S
C1020 C1022 1.391 . S
C1021 C1020 1.386 . S
C1021 C1025 1.393 . S
C1022 H1011 0.950 . S
C1022 C1020 1.391 . S
C1022 C1023 1.400 . S
C1023 C1017 1.491 . S
C1023 C1022 1.400 . S
C1023 C1024 1.398 . S
C1024 H1012 0.950 . S
C1024 C1023 1.398 . S
C1024 C1025 1.391 . S
C1025 H1013 0.950 1_565 S
C1025 C1021 1.393 . S
C1025 C1024 1.391 . S
H1026 C1034 0.950 . S
H1027 C1039 0.950 . S
H1028 C1036 0.950 . S
H1029 C1038 0.950 . S
H1030 C1040 0.950 . S
H1031 C1042 0.950 . S
H1032 C1044 0.950 . S
H1033 C1045 0.950 . S
C1034 H1026 0.950 . S
C1034 C1035 1.386 . S
C1034 C1036 1.391 . S
C1035 C1034 1.386 . S
C1035 C1039 1.393 . S
C1036 H1028 0.950 . S
C1036 C1034 1.391 . S
C1036 C1037 1.400 . S
C1037 C1036 1.400 . S
C1037 C1038 1.398 . S
C1037 C1043 1.491 . S
C1038 H1029 0.950 . S
C1038 C1037 1.398 . S
C1038 C1039 1.391 . S
C1039 H1027 0.950 . S
C1039 C1035 1.393 . S
C1039 C1038 1.391 . S
C1040 H1030 0.950 . S
C1040 C1041 1.386 . S
C1040 C1042 1.391 1_545 S
C1041 C1040 1.386 . S
C1041 C1045 1.393 . S
C1042 H1031 0.950 . S
C1042 C1040 1.391 1_565 S
C1042 C1043 1.400 . S
C1043 C1037 1.491 . S
C1043 C1042 1.400 . S
C1043 C1044 1.398 1_565 S
C1044 H1032 0.950 . S
C1044 C1043 1.398 1_545 S
C1044 C1045 1.391 . S
C1045 H1033 0.950 . S
C1045 C1041 1.393 . S
C1045 C1044 1.391 . S
H1046 C1054 0.950 . S
H1047 C1059 0.950 . S
H1048 C1056 0.950 . S
H1049 C1058 0.950 . S
H1050 C1060 0.950 . S
H1051 C1062 0.950 . S
H1052 C1064 0.950 . S
H1053 C1065 0.950 . S
C1054 H1046 0.950 . S
C1054 C1055 1.386 . S
C1054 C1056 1.391 . S
C1055 C1054 1.386 . S
C1055 C1059 1.393 . S
C1056 H1048 0.950 . S
C1056 C1054 1.391 . S
C1056 C1057 1.400 . S
C1057 C1056 1.400 . S
C1057 C1058 1.398 . S
C1057 C1063 1.491 . S
C1058 H1049 0.950 . S
C1058 C1057 1.398 . S
C1058 C1059 1.391 . S
C1059 H1047 0.950 . S
C1059 C1055 1.393 . S
C1059 C1058 1.391 . S
C1060 H1050 0.950 . S
C1060 C1061 1.386 . S
C1060 C1062 1.391 . S
C1061 C1060 1.386 . S
C1061 C1065 1.393 . S
C1062 H1051 0.950 . S
C1062 C1060 1.391 . S
C1062 C1063 1.400 . S
C1063 C1057 1.491 . S
C1063 C1062 1.400 . S
C1063 C1064 1.398 . S
C1064 H1052 0.950 . S
C1064 C1063 1.398 . S
C1064 C1065 1.391 . S
C1065 H1053 0.950 . S
C1065 C1061 1.393 . S
C1065 C1064 1.391 . S
H1066 C1074 0.950 . S
H1067 C1079 0.950 . S
H1068 C1076 0.950 . S
H1069 C1078 0.950 . S
H1070 C1080 0.950 . S
H1071 C1082 0.950 . S
H1072 C1084 0.950 . S
H1073 C1085 0.950 . S
C1074 H1066 0.950 . S
C1074 C1075 1.386 . S
C1074 C1076 1.391 . S
C1075 C1074 1.386 . S
C1075 C1079 1.393 . S
C1076 H1068 0.950 . S
C1076 C1074 1.391 . S
C1076 C1077 1.400 . S
C1077 C1076 1.400 . S
C1077 C1078 1.398 . S
C1077 C1083 1.491 . S
C1078 H1069 0.950 . S
C1078 C1077 1.398 . S
C1078 C1079 1.391 . S
C1079 H1067 0.950 . S
C1079 C1075 1.393 . S
C1079 C1078 1.391 . S
C1080 H1070 0.950 . S
C1080 C1081 1.386 . S
C1080 C1082 1.391 . S
C1081 C1080 1.386 . S
C1081 C1085 1.393 . S
C1082 H1071 0.950 . S
C1082 C1080 1.391 . S
C1082 C1083 1.400 . S
C1083 C1077 1.491 . S
C1083 C1082 1.400 . S
C1083 C1084 1.398 . S
C1084 H1072 0.950 . S
C1084 C1083 1.398 . S
C1084 C1085 1.391 . S
C1085 H1073 0.950 . S
C1085 C1081 1.393 . S
C1085 C1084 1.391 . S
H1086 C1094 0.950 . S
H1087 C1099 0.950 . S
H1088 C1096 0.950 . S
H1089 C1098 0.950 . S
H1090 C1100 0.950 . S
H1091 C1102 0.950 . S
H1092 C1104 0.950 . S
H1093 C1105 0.950 . S
C1094 H1086 0.950 . S
C1094 C1095 1.386 . S
C1094 C1096 1.391 . S
C1095 C1094 1.386 . S
C1095 C1099 1.393 . S
C1096 H1088 0.950 . S
C1096 C1094 1.391 . S
C1096 C1097 1.400 . S
C1097 C1096 1.400 . S
C1097 C1098 1.398 . S
C1097 C1103 1.491 . S
C1098 H1089 0.950 . S
C1098 C1097 1.398 . S
C1098 C1099 1.391 . S
C1099 H1087 0.950 . S
C1099 C1095 1.393 . S
C1099 C1098 1.391 . S
C1100 H1090 0.950 . S
C1100 C1101 1.386 . S
C1100 C1102 1.391 . S
C1101 C1100 1.386 . S
C1101 C1105 1.393 . S
C1102 H1091 0.950 . S
C1102 C1100 1.391 . S
C1102 C1103 1.400 . S
C1103 C1097 1.491 . S
C1103 C1102 1.400 . S
C1103 C1104 1.398 . S
C1104 H1092 0.950 . S
C1104 C1103 1.398 . S
C1104 C1105 1.391 . S
C1105 H1093 0.950 . S
C1105 C1101 1.393 . S
C1105 C1104 1.391 . S
H1106 C1114 0.950 . S
H1107 C1119 0.950 . S
H1108 C1116 0.930 1_545 S
H1109 C1118 0.950 . S
H1110 C1120 0.950 . S
H1111 C1122 0.950 . S
H1112 C1124 0.950 . S
H1113 C1125 0.950 . S
C1114 H1106 0.950 . S
C1114 C1115 1.386 . S
C1114 C1116 1.391 . S
C1115 C1114 1.386 . S
C1115 C1119 1.393 . S
C1116 H1108 0.930 1_565 S
C1116 C1114 1.391 . S
C1116 C1117 1.400 1_565 S
C1117 C1116 1.400 1_545 S
C1117 C1118 1.398 1_545 S
C1117 C1123 1.491 . S
C1118 H1109 0.950 . S
C1118 C1117 1.398 1_565 S
C1118 C1119 1.391 . S
C1119 H1107 0.950 . S
C1119 C1115 1.393 . S
C1119 C1118 1.391 . S
C1120 H1110 0.950 . S
C1120 C1121 1.386 . S
C1120 C1122 1.391 . S
C1121 C1120 1.386 . S
C1121 C1125 1.393 . S
C1122 H1111 0.950 . S
C1122 C1120 1.391 . S
C1122 C1123 1.400 . S
C1123 C1117 1.491 . S
C1123 C1122 1.400 . S
C1123 C1124 1.398 . S
C1124 H1112 0.950 . S
C1124 C1123 1.398 . S
C1124 C1125 1.391 . S
C1125 H1113 0.950 . S
C1125 C1121 1.393 . S
C1125 C1124 1.391 . S
H1126 C1134 0.950 . S
H1127 C1139 0.950 . S
H1128 C1136 0.950 . S
H1129 C1138 0.950 . S
H1130 C1140 0.950 . S
H1131 C1142 0.950 . S
H1132 C1144 0.950 . S
H1133 C1145 0.950 . S
C1134 H1126 0.950 . S
C1134 C1135 1.386 . S
C1134 C1136 1.391 . S
C1135 C1134 1.386 . S
C1135 C1139 1.393 . S
C1136 H1128 0.950 . S
C1136 C1134 1.391 . S
C1136 C1137 1.400 . S
C1137 C1136 1.400 . S
C1137 C1138 1.398 . S
C1137 C1143 1.491 . S
C1138 H1129 0.950 . S
C1138 C1137 1.398 . S
C1138 C1139 1.391 . S
C1139 H1127 0.950 . S
C1139 C1135 1.393 . S
C1139 C1138 1.391 . S
C1140 H1130 0.950 . S
C1140 C1141 1.386 . S
C1140 C1142 1.391 . S
C1141 C1140 1.386 . S
C1141 C1145 1.393 . S
C1142 H1131 0.950 . S
C1142 C1140 1.391 . S
C1142 C1143 1.400 . S
C1143 C1137 1.491 . S
C1143 C1142 1.400 . S
C1143 C1144 1.398 . S
C1144 H1132 0.950 . S
C1144 C1143 1.398 . S
C1144 C1145 1.391 . S
C1145 H1133 0.950 . S
C1145 C1141 1.393 . S
C1145 C1144 1.391 . S
H1146 C1154 0.950 . S
H1147 C1159 0.950 . S
H1148 C1156 0.950 . S
H1149 C1158 0.950 . S
H1150 C1160 0.950 . S
H1151 C1162 0.950 . S
H1152 C1164 0.950 . S
H1153 C1165 0.950 . S
C1154 H1146 0.950 . S
C1154 C1155 1.386 . S
C1154 C1156 1.391 . S
C1155 C1154 1.386 . S
C1155 C1159 1.393 . S
C1156 H1148 0.950 . S
C1156 C1154 1.391 . S
C1156 C1157 1.400 . S
C1157 C1156 1.400 . S
C1157 C1158 1.398 . S
C1157 C1163 1.491 . S
C1158 H1149 0.950 . S
C1158 C1157 1.398 . S
C1158 C1159 1.391 . S
C1159 H1147 0.950 . S
C1159 C1155 1.393 . S
C1159 C1158 1.391 . S
C1160 H1150 0.950 . S
C1160 C1161 1.386 . S
C1160 C1162 1.391 . S
C1161 C1160 1.386 . S
C1161 C1165 1.393 . S
C1162 H1151 0.950 . S
C1162 C1160 1.391 . S
C1162 C1163 1.400 . S
C1163 C1157 1.491 . S
C1163 C1162 1.400 . S
C1163 C1164 1.398 . S
C1164 H1152 0.950 . S
C1164 C1163 1.398 . S
C1164 C1165 1.391 . S
C1165 H1153 0.950 . S
C1165 C1161 1.393 . S
C1165 C1164 1.391 . S
H1166 C1174 0.950 . S
H1167 C1179 0.950 . S
H1168 C1176 0.950 . S
H1169 C1178 0.950 . S
H1170 C1180 0.950 . S
H1171 C1182 0.950 . S
H1172 C1184 0.950 . S
H1173 C1185 0.950 . S
C1174 H1166 0.950 . S
C1174 C1175 1.386 . S
C1174 C1176 1.391 . S
C1175 C1174 1.386 . S
C1175 C1179 1.393 . S
C1176 H1168 0.950 . S
C1176 C1174 1.391 . S
C1176 C1177 1.400 . S
C1177 C1176 1.400 . S
C1177 C1178 1.398 . S
C1177 C1183 1.491 . S
C1178 H1169 0.950 . S
C1178 C1177 1.398 . S
C1178 C1179 1.391 . S
C1179 H1167 0.950 . S
C1179 C1175 1.393 . S
C1179 C1178 1.391 . S
C1180 H1170 0.950 . S
C1180 C1181 1.386 . S
C1180 C1182 1.391 . S
C1181 C1180 1.386 . S
C1181 C1185 1.393 . S
C1182 H1171 0.950 . S
C1182 C1180 1.391 . S
C1182 C1183 1.400 . S
C1183 C1177 1.491 . S
C1183 C1182 1.400 . S
C1183 C1184 1.398 . S
C1184 H1172 0.950 . S
C1184 C1183 1.398 . S
C1184 C1185 1.391 . S
C1185 H1173 0.950 . S
C1185 C1181 1.393 . S
C1185 C1184 1.391 . S
H1186 C1194 0.950 . S
H1187 C1199 0.950 . S
H1188 C1196 0.950 . S
H1189 C1198 0.950 . S
H1190 C1200 0.950 . S
H1191 C1202 0.950 . S
H1192 C1204 0.950 . S
H1193 C1205 0.950 . S
C1194 H1186 0.950 . S
C1194 C1195 1.386 . S
C1194 C1196 1.391 . S
C1195 C1194 1.386 . S
C1195 C1199 1.393 . S
C1196 H1188 0.950 . S
C1196 C1194 1.391 . S
C1196 C1197 1.400 . S
C1197 C1196 1.400 . S
C1197 C1198 1.398 . S
C1197 C1203 1.491 . S
C1198 H1189 0.950 . S
C1198 C1197 1.398 . S
C1198 C1199 1.391 . S
C1199 H1187 0.950 . S
C1199 C1195 1.393 . S
C1199 C1198 1.391 . S
C1200 H1190 0.950 . S
C1200 C1201 1.386 . S
C1200 C1202 1.391 . S
C1201 C1200 1.386 . S
C1201 C1205 1.393 . S
C1202 H1191 0.950 . S
C1202 C1200 1.391 . S
C1202 C1203 1.400 . S
C1203 C1197 1.491 . S
C1203 C1202 1.400 . S
C1203 C1204 1.398 . S
C1204 H1192 0.950 . S
C1204 C1203 1.398 . S
C1204 C1205 1.391 . S
C1205 H1193 0.950 . S
C1205 C1201 1.393 . S
C1205 C1204 1.391 . S
H1206 C1214 0.950 . S
H1207 C1219 0.950 . S
H1208 C1216 0.950 . S
H1209 C1218 0.950 . S
H1210 C1220 0.950 . S
H1211 C1222 0.950 . S
H1212 C1224 0.950 . S
H1213 C1225 0.950 . S
C1214 H1206 0.950 . S
C1214 C1215 1.386 . S
C1214 C1216 1.391 . S
C1215 C1214 1.386 . S
C1215 C1219 1.393 . S
C1216 H1208 0.950 . S
C1216 C1214 1.391 . S
C1216 C1217 1.400 . S
C1217 C1216 1.400 . S
C1217 C1218 1.398 . S
C1217 C1223 1.491 . S
C1218 H1209 0.950 . S
C1218 C1217 1.398 . S
C1218 C1219 1.391 . S
C1219 H1207 0.950 . S
C1219 C1215 1.393 . S
C1219 C1218 1.391 . S
C1220 H1210 0.950 . S
C1220 C1221 1.386 . S
C1220 C1222 1.391 . S
C1221 C1220 1.386 . S
C1221 C1225 1.393 . S
C1222 H1211 0.950 . S
C1222 C1220 1.391 . S
C1222 C1223 1.400 . S
C1223 C1217 1.491 . S
C1223 C1222 1.400 . S
C1223 C1224 1.398 . S
C1224 H1212 0.950 . S
C1224 C1223 1.398 . S
C1224 C1225 1.391 . S
C1225 H1213 0.950 . S
C1225 C1221 1.393 . S
C1225 C1224 1.391 . S
H1226 C1234 0.950 . S
H1227 C1239 0.950 . S
H1228 C1236 0.950 . S
H1229 C1238 0.950 . S
H1230 C1240 0.950 . S
H1231 C1242 0.950 . S
H1232 C1244 0.950 . S
H1233 C1245 0.950 . S
C1234 H1226 0.950 . S
C1234 C1235 1.386 . S
C1234 C1236 1.391 . S
C1235 C1234 1.386 . S
C1235 C1239 1.393 . S
C1236 H1228 0.950 . S
C1236 C1234 1.391 . S
C1236 C1237 1.400 . S
C1237 C1236 1.400 . S
C1237 C1238 1.398 . S
C1237 C1243 1.491 . S
C1238 H1229 0.950 . S
C1238 C1237 1.398 . S
C1238 C1239 1.391 . S
C1239 H1227 0.950 . S
C1239 C1235 1.393 . S
C1239 C1238 1.391 . S
C1240 H1230 0.950 . S
C1240 C1241 1.386 . S
C1240 C1242 1.391 . S
C1241 C1240 1.386 . S
C1241 C1245 1.393 . S
C1242 H1231 0.950 . S
C1242 C1240 1.391 . S
C1242 C1243 1.400 . S
C1243 C1237 1.491 . S
C1243 C1242 1.400 . S
C1243 C1244 1.398 . S
C1244 H1232 0.950 . S
C1244 C1243 1.398 . S
C1244 C1245 1.391 . S
C1245 H1233 0.950 . S
C1245 C1241 1.393 . S
C1245 C1244 1.391 . S
H1246 C1254 0.950 . S
H1247 C1259 0.950 . S
H1248 C1256 0.950 . S
H1249 C1258 0.950 . S
H1250 C1260 0.950 . S
H1251 C1262 0.950 . S
H1252 C1264 0.950 . S
H1253 C1265 0.950 . S
C1254 H1246 0.950 . S
C1254 C1255 1.386 . S
C1254 C1256 1.391 . S
C1255 C1254 1.386 . S
C1255 C1259 1.393 . S
C1256 H1248 0.950 . S
C1256 C1254 1.391 . S
C1256 C1257 1.400 . S
C1257 C1256 1.400 . S
C1257 C1258 1.398 . S
C1257 C1263 1.491 . S
C1258 H1249 0.950 . S
C1258 C1257 1.398 . S
C1258 C1259 1.391 . S
C1259 H1247 0.950 . S
C1259 C1255 1.393 . S
C1259 C1258 1.391 . S
C1260 H1250 0.950 . S
C1260 C1261 1.386 . S
C1260 C1262 1.391 . S
C1261 C1260 1.386 . S
C1261 C1265 1.393 . S
C1262 H1251 0.950 . S
C1262 C1260 1.391 . S
C1262 C1263 1.400 . S
C1263 C1257 1.491 . S
C1263 C1262 1.400 . S
C1263 C1264 1.398 . S
C1264 H1252 0.950 . S
C1264 C1263 1.398 . S
C1264 C1265 1.391 . S
C1265 H1253 0.950 . S
C1265 C1261 1.393 . S
C1265 C1264 1.391 . S
H1266 C1274 0.950 . S
H1267 C1279 0.950 . S
H1268 C1276 0.950 . S
H1269 C1278 0.950 . S
H1270 C1280 0.950 . S
H1271 C1282 0.950 . S
H1272 C1284 0.950 . S
H1273 C1285 0.950 . S
C1274 H1266 0.950 . S
C1274 C1275 1.386 . S
C1274 C1276 1.391 . S
C1275 C1274 1.386 . S
C1275 C1279 1.393 . S
C1276 H1268 0.950 . S
C1276 C1274 1.391 . S
C1276 C1277 1.400 . S
C1277 C1276 1.400 . S
C1277 C1278 1.398 . S
C1277 C1283 1.491 . S
C1278 H1269 0.950 . S
C1278 C1277 1.398 . S
C1278 C1279 1.391 . S
C1279 H1267 0.950 . S
C1279 C1275 1.393 . S
C1279 C1278 1.391 . S
C1280 H1270 0.950 . S
C1280 C1281 1.386 . S
C1280 C1282 1.391 . S
C1281 C1280 1.386 . S
C1281 C1285 1.393 . S
C1282 H1271 0.950 . S
C1282 C1280 1.391 . S
C1282 C1283 1.400 . S
C1283 C1277 1.491 . S
C1283 C1282 1.400 . S
C1283 C1284 1.398 . S
C1284 H1272 0.950 . S
C1284 C1283 1.398 . S
C1284 C1285 1.391 . S
C1285 H1273 0.950 . S
C1285 C1281 1.393 . S
C1285 C1284 1.391 . S
H1286 C1294 0.950 . S
H1287 C1299 0.950 . S
H1288 C1296 0.950 . S
H1289 C1298 0.950 . S
H1290 C1300 0.950 . S
H1291 C1302 0.950 . S
H1292 C1304 0.950 . S
H1293 C1305 0.950 . S
C1294 H1286 0.950 . S
C1294 C1295 1.386 . S
C1294 C1296 1.391 . S
C1295 C1294 1.386 . S
C1295 C1299 1.393 . S
C1296 H1288 0.950 . S
C1296 C1294 1.391 . S
C1296 C1297 1.400 . S
C1297 C1296 1.400 . S
C1297 C1298 1.398 . S
C1297 C1303 1.491 . S
C1298 H1289 0.950 . S
C1298 C1297 1.398 . S
C1298 C1299 1.391 . S
C1299 H1287 0.950 . S
C1299 C1295 1.393 . S
C1299 C1298 1.391 . S
C1300 H1290 0.950 . S
C1300 C1301 1.386 . S
C1300 C1302 1.391 . S
C1301 C1300 1.386 . S
C1301 C1305 1.393 . S
C1302 H1291 0.950 . S
C1302 C1300 1.391 . S
C1302 C1303 1.400 . S
C1303 C1297 1.491 . S
C1303 C1302 1.400 . S
C1303 C1304 1.398 . S
C1304 H1292 0.950 . S
C1304 C1303 1.398 . S
C1304 C1305 1.391 . S
C1305 H1293 0.950 . S
C1305 C1301 1.393 . S
C1305 C1304 1.391 . S
H1306 C1314 0.950 . S
H1307 C1319 0.950 . S
H1308 C1316 0.950 . S
H1309 C1318 0.950 . S
H1310 C1320 0.950 1_455 S
H1311 C1322 0.950 . S
H1312 C1324 0.950 . S
H1313 C1325 0.950 . S
C1314 H1306 0.950 . S
C1314 C1315 1.386 . S
C1314 C1316 1.391 . S
C1315 C1314 1.386 . S
C1315 C1319 1.393 . S
C1316 H1308 0.950 . S
C1316 C1314 1.391 . S
C1316 C1317 1.400 . S
C1317 C1316 1.400 . S
C1317 C1318 1.398 . S
C1317 C1323 1.491 . S
C1318 H1309 0.950 . S
C1318 C1317 1.398 . S
C1318 C1319 1.391 . S
C1319 H1307 0.950 . S
C1319 C1315 1.393 . S
C1319 C1318 1.391 . S
C1320 H1310 0.950 1_655 S
C1320 C1321 1.386 1_655 S
C1320 C1322 1.391 . S
C1321 C1320 1.386 1_455 S
C1321 C1325 1.393 1_455 S
C1322 H1311 0.950 . S
C1322 C1320 1.391 . S
C1322 C1323 1.400 . S
C1323 C1317 1.491 . S
C1323 C1322 1.400 . S
C1323 C1324 1.398 . S
C1324 H1312 0.950 . S
C1324 C1323 1.398 . S
C1324 C1325 1.391 . S
C1325 H1313 0.950 . S
C1325 C1321 1.393 1_655 S
C1325 C1324 1.391 . S
H1326 C1334 0.950 . S
H1327 C1339 0.950 . S
H1328 C1336 0.950 . S
H1329 C1338 0.950 . S
H1330 C1340 0.950 . S
H1331 C1342 0.950 . S
H1332 C1344 0.950 . S
H1333 C1345 0.950 . S
C1334 H1326 0.950 . S
C1334 C1335 1.386 . S
C1334 C1336 1.391 . S
C1335 C1334 1.386 . S
C1335 C1339 1.393 . S
C1336 H1328 0.950 . S
C1336 C1334 1.391 . S
C1336 C1337 1.400 . S
C1337 C1336 1.400 . S
C1337 C1338 1.398 . S
C1337 C1343 1.491 . S
C1338 H1329 0.950 . S
C1338 C1337 1.398 . S
C1338 C1339 1.391 . S
C1339 H1327 0.950 . S
C1339 C1335 1.393 . S
C1339 C1338 1.391 . S
C1340 H1330 0.950 . S
C1340 C1341 1.386 . S
C1340 C1342 1.391 . S
C1341 C1340 1.386 . S
C1341 C1345 1.393 . S
C1342 H1331 0.950 . S
C1342 C1340 1.391 . S
C1342 C1343 1.400 . S
C1343 C1337 1.491 . S
C1343 C1342 1.400 . S
C1343 C1344 1.398 . S
C1344 H1332 0.950 . S
C1344 C1343 1.398 . S
C1344 C1345 1.391 . S
C1345 H1333 0.950 . S
C1345 C1341 1.393 . S
C1345 C1344 1.391 . S
H1346 C1354 0.950 . S
H1347 C1359 0.950 . S
H1348 C1356 0.950 . S
H1349 C1358 0.950 . S
H1350 C1360 0.950 . S
H1351 C1362 0.950 . S
H1352 C1364 0.950 . S
H1353 C1365 0.950 . S
C1354 H1346 0.950 . S
C1354 C1355 1.386 . S
C1354 C1356 1.391 . S
C1355 C1354 1.386 . S
C1355 C1359 1.393 . S
C1356 H1348 0.950 . S
C1356 C1354 1.391 . S
C1356 C1357 1.400 . S
C1357 C1356 1.400 . S
C1357 C1358 1.398 . S
C1357 C1363 1.491 . S
C1358 H1349 0.950 . S
C1358 C1357 1.398 . S
C1358 C1359 1.391 . S
C1359 H1347 0.950 . S
C1359 C1355 1.393 . S
C1359 C1358 1.391 . S
C1360 H1350 0.950 . S
C1360 C1361 1.386 . S
C1360 C1362 1.391 . S
C1361 C1360 1.386 . S
C1361 C1365 1.393 . S
C1362 H1351 0.950 . S
C1362 C1360 1.391 . S
C1362 C1363 1.400 . S
C1363 C1357 1.491 . S
C1363 C1362 1.400 . S
C1363 C1364 1.398 . S
C1364 H1352 0.950 . S
C1364 C1363 1.398 . S
C1364 C1365 1.391 . S
C1365 H1353 0.950 . S
C1365 C1361 1.393 . S
C1365 C1364 1.391 . S
H1366 C1374 0.950 . S
H1367 C1379 0.950 . S
H1368 C1376 0.950 . S
H1369 C1378 0.950 . S
H1370 C1380 0.950 . S
H1371 C1382 0.950 . S
H1372 C1384 0.950 . S
H1373 C1385 0.950 . S
C1374 H1366 0.950 . S
C1374 C1375 1.386 . S
C1374 C1376 1.391 . S
C1375 C1374 1.386 . S
C1375 C1379 1.393 . S
C1376 H1368 0.950 . S
C1376 C1374 1.391 . S
C1376 C1377 1.400 . S
C1377 C1376 1.400 . S
C1377 C1378 1.398 . S
C1377 C1383 1.491 . S
C1378 H1369 0.950 . S
C1378 C1377 1.398 . S
C1378 C1379 1.391 . S
C1379 H1367 0.950 . S
C1379 C1375 1.393 . S
C1379 C1378 1.391 . S
C1380 H1370 0.950 . S
C1380 C1381 1.386 . S
C1380 C1382 1.391 . S
C1381 C1380 1.386 . S
C1381 C1385 1.393 . S
C1382 H1371 0.950 . S
C1382 C1380 1.391 . S
C1382 C1383 1.400 . S
C1383 C1377 1.491 . S
C1383 C1382 1.400 . S
C1383 C1384 1.398 . S
C1384 H1372 0.950 . S
C1384 C1383 1.398 . S
C1384 C1385 1.391 . S
C1385 H1373 0.950 . S
C1385 C1381 1.393 . S
C1385 C1384 1.391 . S
H1386 C1394 0.950 . S
H1387 C1399 0.950 . S
H1388 C1396 0.950 . S
H1389 C1398 0.950 . S
H1390 C1400 0.950 . S
H1391 C1402 0.950 . S
H1392 C1404 0.950 . S
H1393 C1405 0.950 . S
C1394 H1386 0.950 . S
C1394 C1395 1.386 . S
C1394 C1396 1.391 . S
C1395 C1394 1.386 . S
C1395 C1399 1.393 . S
C1396 H1388 0.950 . S
C1396 C1394 1.391 . S
C1396 C1397 1.400 . S
C1397 C1396 1.400 . S
C1397 C1398 1.398 . S
C1397 C1403 1.491 . S
C1398 H1389 0.950 . S
C1398 C1397 1.398 . S
C1398 C1399 1.391 . S
C1399 H1387 0.950 . S
C1399 C1395 1.393 . S
C1399 C1398 1.391 . S
C1400 H1390 0.950 . S
C1400 C1401 1.386 . S
C1400 C1402 1.391 . S
C1401 C1400 1.386 . S
C1401 C1405 1.393 . S
C1402 H1391 0.950 . S
C1402 C1400 1.391 . S
C1402 C1403 1.400 . S
C1403 C1397 1.491 . S
C1403 C1402 1.400 . S
C1403 C1404 1.398 . S
C1404 H1392 0.950 . S
C1404 C1403 1.398 . S
C1404 C1405 1.391 . S
C1405 H1393 0.950 . S
C1405 C1401 1.393 . S
C1405 C1404 1.391 . S
H1406 C1414 0.950 . S
H1407 C1419 0.950 . S
H1408 C1416 0.950 . S
H1409 C1418 0.950 . S
H1410 C1420 0.950 . S
H1411 C1422 0.950 . S
H1412 C1424 0.950 . S
H1413 C1425 0.950 . S
C1414 H1406 0.950 . S
C1414 C1415 1.386 . S
C1414 C1416 1.391 . S
C1415 C1414 1.386 . S
C1415 C1419 1.393 . S
C1416 H1408 0.950 . S
C1416 C1414 1.391 . S
C1416 C1417 1.400 . S
C1417 C1416 1.400 . S
C1417 C1418 1.398 . S
C1417 C1423 1.491 . S
C1418 H1409 0.950 . S
C1418 C1417 1.398 . S
C1418 C1419 1.391 . S
C1419 H1407 0.950 . S
C1419 C1415 1.393 . S
C1419 C1418 1.391 . S
C1420 H1410 0.950 . S
C1420 C1421 1.386 . S
C1420 C1422 1.391 . S
C1421 C1420 1.386 . S
C1421 C1425 1.393 . S
C1422 H1411 0.950 . S
C1422 C1420 1.391 . S
C1422 C1423 1.400 . S
C1423 C1417 1.491 . S
C1423 C1422 1.400 . S
C1423 C1424 1.398 . S
C1424 H1412 0.950 . S
C1424 C1423 1.398 . S
C1424 C1425 1.391 . S
C1425 H1413 0.950 . S
C1425 C1421 1.393 . S
C1425 C1424 1.391 . S
H1426 C1434 0.950 . S
H1427 C1439 0.950 . S
H1428 C1436 0.950 . S
H1429 C1438 0.950 . S
H1430 C1440 0.950 1_565 S
H1431 C1442 0.950 1_565 S
H1432 C1444 0.950 . S
H1433 C1445 0.950 . S
C1434 H1426 0.950 . S
C1434 C1435 1.386 . S
C1434 C1436 1.391 . S
C1435 C1434 1.386 . S
C1435 C1439 1.393 1_545 S
C1436 H1428 0.950 . S
C1436 C1434 1.391 . S
C1436 C1437 1.400 . S
C1437 C1436 1.400 . S
C1437 C1438 1.398 1_545 S
C1437 C1443 1.491 . S
C1438 H1429 0.950 . S
C1438 C1437 1.398 1_565 S
C1438 C1439 1.391 . S
C1439 H1427 0.950 . S
C1439 C1435 1.393 1_565 S
C1439 C1438 1.391 . S
C1440 H1430 0.950 1_545 S
C1440 C1441 1.386 . S
C1440 C1442 1.391 . S
C1441 C1440 1.386 . S
C1441 C1445 1.393 . S
C1442 H1431 0.950 1_545 S
C1442 C1440 1.391 . S
C1442 C1443 1.400 . S
C1443 C1437 1.491 . S
C1443 C1442 1.400 . S
C1443 C1444 1.398 . S
C1444 H1432 0.950 . S
C1444 C1443 1.398 . S
C1444 C1445 1.391 . S
C1445 H1433 0.950 . S
C1445 C1441 1.393 . S
C1445 C1444 1.391 . S
H1446 C1454 0.950 . S
H1447 C1459 0.950 . S
H1448 C1456 0.950 . S
H1449 C1458 0.950 . S
H1450 C1460 0.950 . S
H1451 C1462 0.950 . S
H1452 C1464 0.950 . S
H1453 C1465 0.950 . S
C1454 H1446 0.950 . S
C1454 C1455 1.386 . S
C1454 C1456 1.391 . S
C1455 C1454 1.386 . S
C1455 C1459 1.393 . S
C1456 H1448 0.950 . S
C1456 C1454 1.391 . S
C1456 C1457 1.400 . S
C1457 C1456 1.400 . S
C1457 C1458 1.398 . S
C1457 C1463 1.491 . S
C1458 H1449 0.950 . S
C1458 C1457 1.398 . S
C1458 C1459 1.391 . S
C1459 H1447 0.950 . S
C1459 C1455 1.393 . S
C1459 C1458 1.391 . S
C1460 H1450 0.950 . S
C1460 C1461 1.386 . S
C1460 C1462 1.391 . S
C1461 C1460 1.386 . S
C1461 C1465 1.393 . S
C1462 H1451 0.950 . S
C1462 C1460 1.391 . S
C1462 C1463 1.400 . S
C1463 C1457 1.491 . S
C1463 C1462 1.400 . S
C1463 C1464 1.398 . S
C1464 H1452 0.950 . S
C1464 C1463 1.398 . S
C1464 C1465 1.391 . S
C1465 H1453 0.950 . S
C1465 C1461 1.393 . S
C1465 C1464 1.391 . S
H1466 C1474 0.950 . S
H1467 C1479 0.950 . S
H1468 C1476 0.950 . S
H1469 C1478 0.950 . S
H1470 C1480 0.950 . S
H1471 C1482 0.950 . S
H1472 C1484 0.950 . S
H1473 C1485 0.950 . S
C1474 H1466 0.950 . S
C1474 C1475 1.386 . S
C1474 C1476 1.391 . S
C1475 C1474 1.386 . S
C1475 C1479 1.393 . S
C1476 H1468 0.950 . S
C1476 C1474 1.391 . S
C1476 C1477 1.400 . S
C1477 C1476 1.400 . S
C1477 C1478 1.398 . S
C1477 C1483 1.491 . S
C1478 H1469 0.950 . S
C1478 C1477 1.398 . S
C1478 C1479 1.391 . S
C1479 H1467 0.950 . S
C1479 C1475 1.393 . S
C1479 C1478 1.391 . S
C1480 H1470 0.950 . S
C1480 C1481 1.386 . S
C1480 C1482 1.391 . S
C1481 C1480 1.386 . S
C1481 C1485 1.393 . S
C1482 H1471 0.950 . S
C1482 C1480 1.391 . S
C1482 C1483 1.400 . S
C1483 C1477 1.491 . S
C1483 C1482 1.400 . S
C1483 C1484 1.398 . S
C1484 H1472 0.950 . S
C1484 C1483 1.398 . S
C1484 C1485 1.391 . S
C1485 H1473 0.950 . S
C1485 C1481 1.393 . S
C1485 C1484 1.391 . S
H1486 C1494 0.950 . S
H1487 C1499 0.950 . S
H1488 C1496 0.950 . S
H1489 C1498 0.950 . S
H1490 C1500 0.950 . S
H1491 C1502 0.950 . S
H1492 C1504 0.950 . S
H1493 C1505 0.950 . S
C1494 H1486 0.950 . S
C1494 C1495 1.386 . S
C1494 C1496 1.391 . S
C1495 C1494 1.386 . S
C1495 C1499 1.393 . S
C1496 H1488 0.950 . S
C1496 C1494 1.391 . S
C1496 C1497 1.400 . S
C1497 C1496 1.400 . S
C1497 C1498 1.398 . S
C1497 C1503 1.491 . S
C1498 H1489 0.950 . S
C1498 C1497 1.398 . S
C1498 C1499 1.391 . S
C1499 H1487 0.950 . S
C1499 C1495 1.393 . S
C1499 C1498 1.391 . S
C1500 H1490 0.950 . S
C1500 C1501 1.386 . S
C1500 C1502 1.391 . S
C1501 C1500 1.386 . S
C1501 C1505 1.393 . S
C1502 H1491 0.950 . S
C1502 C1500 1.391 . S
C1502 C1503 1.400 . S
C1503 C1497 1.491 . S
C1503 C1502 1.400 . S
C1503 C1504 1.398 . S
C1504 H1492 0.950 . S
C1504 C1503 1.398 . S
C1504 C1505 1.391 . S
C1505 H1493 0.950 . S
C1505 C1501 1.393 . S
C1505 C1504 1.391 . S
H1506 C1514 0.950 . S
H1507 C1519 0.950 . S
H1508 C1516 0.950 . S
H1509 C1518 0.950 . S
H1510 C1520 0.950 . S
H1511 C1522 0.950 . S
H1512 C1524 0.950 . S
H1513 C1525 0.950 . S
C1514 H1506 0.950 . S
C1514 C1515 1.386 . S
C1514 C1516 1.391 . S
C1515 C1514 1.386 . S
C1515 C1519 1.393 . S
C1516 H1508 0.950 . S
C1516 C1514 1.391 . S
C1516 C1517 1.400 . S
C1517 C1516 1.400 . S
C1517 C1518 1.398 . S
C1517 C1523 1.491 . S
C1518 H1509 0.950 . S
C1518 C1517 1.398 . S
C1518 C1519 1.391 . S
C1519 H1507 0.950 . S
C1519 C1515 1.393 . S
C1519 C1518 1.391 . S
C1520 H1510 0.950 . S
C1520 C1521 1.386 . S
C1520 C1522 1.391 . S
C1521 C1520 1.386 . S
C1521 C1525 1.393 . S
C1522 H1511 0.950 . S
C1522 C1520 1.391 . S
C1522 C1523 1.400 . S
C1523 C1517 1.491 . S
C1523 C1522 1.400 . S
C1523 C1524 1.398 . S
C1524 H1512 0.950 . S
C1524 C1523 1.398 . S
C1524 C1525 1.391 . S
C1525 H1513 0.950 . S
C1525 C1521 1.393 . S
C1525 C1524 1.391 . S
H1526 C1534 0.950 . S
H1527 C1539 0.950 . S
H1528 C1536 0.950 . S
H1529 C1538 0.950 . S
H1530 C1540 0.950 . S
H1531 C1542 0.950 . S
H1532 C1544 0.950 . S
H1533 C1545 0.950 . S
C1534 H1526 0.950 . S
C1534 C1535 1.386 . S
C1534 C1536 1.391 . S
C1535 C1534 1.386 . S
C1535 C1539 1.393 . S
C1536 H1528 0.950 . S
C1536 C1534 1.391 . S
C1536 C1537 1.400 . S
C1537 C1536 1.400 . S
C1537 C1538 1.398 . S
C1537 C1543 1.491 . S
C1538 H1529 0.950 . S
C1538 C1537 1.398 . S
C1538 C1539 1.391 . S
C1539 H1527 0.950 . S
C1539 C1535 1.393 . S
C1539 C1538 1.391 . S
C1540 H1530 0.950 . S
C1540 C1541 1.386 . S
C1540 C1542 1.391 . S
C1541 C1540 1.386 . S
C1541 C1545 1.393 . S
C1542 H1531 0.950 . S
C1542 C1540 1.391 . S
C1542 C1543 1.400 . S
C1543 C1537 1.491 . S
C1543 C1542 1.400 . S
C1543 C1544 1.398 . S
C1544 H1532 0.950 . S
C1544 C1543 1.398 . S
C1544 C1545 1.391 . S
C1545 H1533 0.950 . S
C1545 C1541 1.393 . S
C1545 C1544 1.391 . S
H1546 C1554 0.950 . S
H1547 C1559 0.950 . S
H1548 C1556 0.950 . S
H1549 C1558 0.950 . S
H1550 C1560 0.950 . S
H1551 C1562 0.950 . S
H1552 C1564 0.950 . S
H1553 C1565 0.950 . S
C1554 H1546 0.950 . S
C1554 C1555 1.386 . S
C1554 C1556 1.391 . S
C1555 C1554 1.386 . S
C1555 C1559 1.393 . S
C1556 H1548 0.950 . S
C1556 C1554 1.391 . S
C1556 C1557 1.400 . S
C1557 C1556 1.400 . S
C1557 C1558 1.398 . S
C1557 C1563 1.491 . S
C1558 H1549 0.950 . S
C1558 C1557 1.398 . S
C1558 C1559 1.391 . S
C1559 H1547 0.950 . S
C1559 C1555 1.393 . S
C1559 C1558 1.391 . S
C1560 H1550 0.950 . S
C1560 C1561 1.386 . S
C1560 C1562 1.391 . S
C1561 C1560 1.386 . S
C1561 C1565 1.393 . S
C1562 H1551 0.950 . S
C1562 C1560 1.391 . S
C1562 C1563 1.400 . S
C1563 C1557 1.491 . S
C1563 C1562 1.400 . S
C1563 C1564 1.398 . S
C1564 H1552 0.950 . S
C1564 C1563 1.398 . S
C1564 C1565 1.391 . S
C1565 H1553 0.950 . S
C1565 C1561 1.393 . S
C1565 C1564 1.391 . S
H1566 C1574 0.950 . S
H1567 C1579 0.950 . S
H1568 C1576 0.950 . S
H1569 C1578 0.950 . S
H1570 C1580 0.950 . S
H1571 C1582 0.950 . S
H1572 C1584 0.950 . S
H1573 C1585 0.950 . S
C1574 H1566 0.950 . S
C1574 C1575 1.386 . S
C1574 C1576 1.391 . S
C1575 C1574 1.386 . S
C1575 C1579 1.393 . S
C1576 H1568 0.950 . S
C1576 C1574 1.391 . S
C1576 C1577 1.400 . S
C1577 C1576 1.400 . S
C1577 C1578 1.398 . S
C1577 C1583 1.491 . S
C1578 H1569 0.950 . S
C1578 C1577 1.398 . S
C1578 C1579 1.391 . S
C1579 H1567 0.950 . S
C1579 C1575 1.393 . S
C1579 C1578 1.391 . S
C1580 H1570 0.950 . S
C1580 C1581 1.386 . S
C1580 C1582 1.391 . S
C1581 C1580 1.386 . S
C1581 C1585 1.393 . S
C1582 H1571 0.950 . S
C1582 C1580 1.391 . S
C1582 C1583 1.400 . S
C1583 C1577 1.491 . S
C1583 C1582 1.400 . S
C1583 C1584 1.398 . S
C1584 H1572 0.950 . S
C1584 C1583 1.398 . S
C1584 C1585 1.391 . S
C1585 H1573 0.950 . S
C1585 C1581 1.393 . S
C1585 C1584 1.391 . S
H1586 C1594 0.950 . S
H1587 C1599 0.950 . S
H1588 C1596 0.950 . S
H1589 C1598 0.950 . S
H1590 C1600 0.950 . S
H1591 C1602 0.950 . S
H1592 C1604 0.950 . S
H1593 C1605 0.950 . S
C1594 H1586 0.950 . S
C1594 C1595 1.386 . S
C1594 C1596 1.391 . S
C1595 C1594 1.386 . S
C1595 C1599 1.393 . S
C1596 H1588 0.950 . S
C1596 C1594 1.391 . S
C1596 C1597 1.400 . S
C1597 C1596 1.400 . S
C1597 C1598 1.398 . S
C1597 C1603 1.491 . S
C1598 H1589 0.950 . S
C1598 C1597 1.398 . S
C1598 C1599 1.391 . S
C1599 H1587 0.950 . S
C1599 C1595 1.393 . S
C1599 C1598 1.391 . S
C1600 H1590 0.950 . S
C1600 C1601 1.386 . S
C1600 C1602 1.391 . S
C1601 C1600 1.386 . S
C1601 C1605 1.393 . S
C1602 H1591 0.950 . S
C1602 C1600 1.391 . S
C1602 C1603 1.400 . S
C1603 C1597 1.491 . S
C1603 C1602 1.400 . S
C1603 C1604 1.398 . S
C1604 H1592 0.950 . S
C1604 C1603 1.398 . S
C1604 C1605 1.391 . S
C1605 H1593 0.950 . S
C1605 C1601 1.393 . S
C1605 C1604 1.391 . S
H1606 C1614 0.950 . S
H1607 C1619 0.950 . S
H1608 C1616 0.950 . S
H1609 C1618 0.950 . S
H1610 C1620 0.950 . S
H1611 C1622 0.950 . S
H1612 C1624 0.950 . S
H1613 C1625 0.950 . S
C1614 H1606 0.950 . S
C1614 C1615 1.386 . S
C1614 C1616 1.391 . S
C1615 C1614 1.386 . S
C1615 C1619 1.393 . S
C1616 H1608 0.950 . S
C1616 C1614 1.391 . S
C1616 C1617 1.400 . S
C1617 C1616 1.400 . S
C1617 C1618 1.398 . S
C1617 C1623 1.491 . S
C1618 H1609 0.950 . S
C1618 C1617 1.398 . S
C1618 C1619 1.391 . S
C1619 H1607 0.950 . S
C1619 C1615 1.393 . S
C1619 C1618 1.391 . S
C1620 H1610 0.950 . S
C1620 C1621 1.386 . S
C1620 C1622 1.391 . S
C1621 C1620 1.386 . S
C1621 C1625 1.393 . S
C1622 H1611 0.950 . S
C1622 C1620 1.391 . S
C1622 C1623 1.400 . S
C1623 C1617 1.491 . S
C1623 C1622 1.400 . S
C1623 C1624 1.398 . S
C1624 H1612 0.950 . S
C1624 C1623 1.398 . S
C1624 C1625 1.391 . S
C1625 H1613 0.950 . S
C1625 C1621 1.393 . S
C1625 C1624 1.391 . S
H1626 C1634 0.950 . S
H1627 C1639 0.950 . S
H1628 C1636 0.950 . S
H1629 C1638 0.950 . S
H1630 C1640 0.950 . S
H1631 C1642 0.950 . S
H1632 C1644 0.950 . S
H1633 C1645 0.950 . S
C1634 H1626 0.950 . S
C1634 C1635 1.386 . S
C1634 C1636 1.391 . S
C1635 C1634 1.386 . S
C1635 C1639 1.393 . S
C1636 H1628 0.950 . S
C1636 C1634 1.391 . S
C1636 C1637 1.400 . S
C1637 C1636 1.400 . S
C1637 C1638 1.398 . S
C1637 C1643 1.491 . S
C1638 H1629 0.950 . S
C1638 C1637 1.398 . S
C1638 C1639 1.391 . S
C1639 H1627 0.950 . S
C1639 C1635 1.393 . S
C1639 C1638 1.391 . S
C1640 H1630 0.950 . S
C1640 C1641 1.386 . S
C1640 C1642 1.391 . S
C1641 C1640 1.386 . S
C1641 C1645 1.393 . S
C1642 H1631 0.950 . S
C1642 C1640 1.391 . S
C1642 C1643 1.400 . S
C1643 C1637 1.491 . S
C1643 C1642 1.400 . S
C1643 C1644 1.398 . S
C1644 H1632 0.950 . S
C1644 C1643 1.398 . S
C1644 C1645 1.391 . S
C1645 H1633 0.950 . S
C1645 C1641 1.393 . S
C1645 C1644 1.391 . S
H1646 C1654 0.950 . S
H1647 C1659 0.950 . S
H1648 C1656 0.950 . S
H1649 C1658 0.950 . S
H1650 C1660 0.950 . S
H1651 C1662 0.950 . S
H1652 C1664 0.950 . S
H1653 C1665 0.950 . S
C1654 H1646 0.950 . S
C1654 C1655 1.386 . S
C1654 C1656 1.391 . S
C1655 C1654 1.386 . S
C1655 C1659 1.393 . S
C1656 H1648 0.950 . S
C1656 C1654 1.391 . S
C1656 C1657 1.400 . S
C1657 C1656 1.400 . S
C1657 C1658 1.398 . S
C1657 C1663 1.491 . S
C1658 H1649 0.950 . S
C1658 C1657 1.398 . S
C1658 C1659 1.391 . S
C1659 H1647 0.950 . S
C1659 C1655 1.393 . S
C1659 C1658 1.391 . S
C1660 H1650 0.950 . S
C1660 C1661 1.386 . S
C1660 C1662 1.391 . S
C1661 C1660 1.386 . S
C1661 C1665 1.393 . S
C1662 H1651 0.950 . S
C1662 C1660 1.391 . S
C1662 C1663 1.400 . S
C1663 C1657 1.491 . S
C1663 C1662 1.400 . S
C1663 C1664 1.398 . S
C1664 H1652 0.950 . S
C1664 C1663 1.398 . S
C1664 C1665 1.391 . S
C1665 H1653 0.950 . S
C1665 C1661 1.393 . S
C1665 C1664 1.391 . S
H1666 C1674 0.950 . S
H1667 C1679 0.950 . S
H1668 C1676 0.950 . S
H1669 C1678 0.950 . S
H1670 C1680 0.950 . S
H1671 C1682 0.950 . S
H1672 C1684 0.950 . S
H1673 C1685 0.950 . S
C1674 H1666 0.950 . S
C1674 C1675 1.386 . S
C1674 C1676 1.391 . S
C1675 C1674 1.386 . S
C1675 C1679 1.393 . S
C1676 H1668 0.950 . S
C1676 C1674 1.391 . S
C1676 C1677 1.400 . S
C1677 C1676 1.400 . S
C1677 C1678 1.398 . S
C1677 C1683 1.491 . S
C1678 H1669 0.950 . S
C1678 C1677 1.398 . S
C1678 C1679 1.391 . S
C1679 H1667 0.950 . S
C1679 C1675 1.393 . S
C1679 C1678 1.391 . S
C1680 H1670 0.950 . S
C1680 C1681 1.386 . S
C1680 C1682 1.391 . S
C1681 C1680 1.386 . S
C1681 C1685 1.393 . S
C1682 H1671 0.950 . S
C1682 C1680 1.391 . S
C1682 C1683 1.400 . S
C1683 C1677 1.491 . S
C1683 C1682 1.400 . S
C1683 C1684 1.398 . S
C1684 H1672 0.950 . S
C1684 C1683 1.398 . S
C1684 C1685 1.391 . S
C1685 H1673 0.950 . S
C1685 C1681 1.393 . S
C1685 C1684 1.391 . S
H1686 C1694 0.950 . S
H1687 C1699 0.950 . S
H1688 C1696 0.950 . S
H1689 C1698 0.950 . S
H1690 C1700 0.950 . S
H1691 C1702 0.950 . S
H1692 C1704 0.950 . S
H1693 C1705 0.950 . S
C1694 H1686 0.950 . S
C1694 C1695 1.386 . S
C1694 C1696 1.391 . S
C1695 C1694 1.386 . S
C1695 C1699 1.393 . S
C1696 H1688 0.950 . S
C1696 C1694 1.391 . S
C1696 C1697 1.400 . S
C1697 C1696 1.400 . S
C1697 C1698 1.398 . S
C1697 C1703 1.491 . S
C1698 H1689 0.950 . S
C1698 C1697 1.398 . S
C1698 C1699 1.391 . S
C1699 H1687 0.950 . S
C1699 C1695 1.393 . S
C1699 C1698 1.391 . S
C1700 H1690 0.950 . S
C1700 C1701 1.386 . S
C1700 C1702 1.391 1_554 S
C1701 C1700 1.386 . S
C1701 C1705 1.393 . S
C1702 H1691 0.950 . S
C1702 C1700 1.391 1_556 S
C1702 C1703 1.400 . S
C1703 C1697 1.491 . S
C1703 C1702 1.400 . S
C1703 C1704 1.398 1_556 S
C1704 H1692 0.950 . S
C1704 C1703 1.398 1_554 S
C1704 C1705 1.391 . S
C1705 H1693 0.950 . S
C1705 C1701 1.393 . S
C1705 C1704 1.391 . S
H1706 C1714 0.950 . S
H1707 C1719 0.950 . S
H1708 C1716 0.950 . S
H1709 C1718 0.950 . S
H1710 C1720 0.950 . S
H1711 C1722 0.950 . S
H1712 C1724 0.950 . S
H1713 C1725 0.950 . S
C1714 H1706 0.950 . S
C1714 C1715 1.386 . S
C1714 C1716 1.391 . S
C1715 C1714 1.386 . S
C1715 C1719 1.393 . S
C1716 H1708 0.950 . S
C1716 C1714 1.391 . S
C1716 C1717 1.400 . S
C1717 C1716 1.400 . S
C1717 C1718 1.398 . S
C1717 C1723 1.491 . S
C1718 H1709 0.950 . S
C1718 C1717 1.398 . S
C1718 C1719 1.391 . S
C1719 H1707 0.950 . S
C1719 C1715 1.393 . S
C1719 C1718 1.391 . S
C1720 H1710 0.950 . S
C1720 C1721 1.386 . S
C1720 C1722 1.391 . S
C1721 C1720 1.386 . S
C1721 C1725 1.421 . S
C1722 H1711 0.950 . S
C1722 C1720 1.391 . S
C1722 C1723 1.400 1_554 S
C1723 C1717 1.491 . S
C1723 C1722 1.400 1_556 S
C1723 C1724 1.398 . S
C1724 H1712 0.950 . S
C1724 C1723 1.398 . S
C1724 C1725 1.363 1_556 S
C1725 H1713 0.950 . S
C1725 C1721 1.421 . S
C1725 C1724 1.363 1_554 S
H1726 C1734 0.950 . S
H1727 C1739 0.950 . S
H1728 C1736 0.950 . S
H1729 C1738 0.950 . S
H1730 C1740 0.950 . S
H1731 C1742 0.950 . S
H1732 C1744 0.950 . S
H1733 C1745 0.950 . S
C1734 H1726 0.950 . S
C1734 C1735 1.386 . S
C1734 C1736 1.391 . S
C1735 C1734 1.386 . S
C1735 C1739 1.393 . S
C1736 H1728 0.950 . S
C1736 C1734 1.391 . S
C1736 C1737 1.400 . S
C1737 C1736 1.400 . S
C1737 C1738 1.398 . S
C1737 C1743 1.491 1_556 S
C1738 H1729 0.950 . S
C1738 C1737 1.398 . S
C1738 C1739 1.391 . S
C1739 H1727 0.950 . S
C1739 C1735 1.393 . S
C1739 C1738 1.391 . S
C1740 H1730 0.950 . S
C1740 C1741 1.386 . S
C1740 C1742 1.391 . S
C1741 C1740 1.386 . S
C1741 C1745 1.393 . S
C1742 H1731 0.950 . S
C1742 C1740 1.391 . S
C1742 C1743 1.400 . S
C1743 C1737 1.491 1_554 S
C1743 C1742 1.400 . S
C1743 C1744 1.398 . S
C1744 H1732 0.950 . S
C1744 C1743 1.398 . S
C1744 C1745 1.391 . S
C1745 H1733 0.950 . S
C1745 C1741 1.393 . S
C1745 C1744 1.391 . S
H1746 C1754 0.950 . S
H1747 C1759 0.950 . S
H1748 C1756 0.950 . S
H1749 C1758 0.950 . S
H1750 C1760 0.950 . S
H1751 C1762 0.950 . S
H1752 C1764 0.950 . S
H1753 C1765 0.950 . S
C1754 H1746 0.950 . S
C1754 C1755 1.386 . S
C1754 C1756 1.391 . S
C1755 C1754 1.386 . S
C1755 C1759 1.393 . S
C1756 H1748 0.950 . S
C1756 C1754 1.391 . S
C1756 C1757 1.400 . S
C1757 C1756 1.400 . S
C1757 C1758 1.398 . S
C1757 C1763 1.491 . S
C1758 H1749 0.950 . S
C1758 C1757 1.398 . S
C1758 C1759 1.391 . S
C1759 H1747 0.950 . S
C1759 C1755 1.393 . S
C1759 C1758 1.391 . S
C1760 H1750 0.950 . S
C1760 C1761 1.386 . S
C1760 C1762 1.391 . S
C1761 C1760 1.386 . S
C1761 C1765 1.393 . S
C1762 H1751 0.950 . S
C1762 C1760 1.391 . S
C1762 C1763 1.400 . S
C1763 C1757 1.491 . S
C1763 C1762 1.400 . S
C1763 C1764 1.398 . S
C1764 H1752 0.950 . S
C1764 C1763 1.398 . S
C1764 C1765 1.391 . S
C1765 H1753 0.950 . S
C1765 C1761 1.393 . S
C1765 C1764 1.391 . S
H1766 C1774 0.950 . S
H1767 C1779 0.950 . S
H1768 C1776 0.950 . S
H1769 C1778 0.950 . S
H1770 C1780 0.950 . S
H1771 C1782 0.950 . S
H1772 C1784 0.950 . S
H1773 C1785 0.950 . S
C1774 H1766 0.950 . S
C1774 C1775 1.386 . S
C1774 C1776 1.391 . S
C1775 C1774 1.386 . S
C1775 C1779 1.393 . S
C1776 H1768 0.950 . S
C1776 C1774 1.391 . S
C1776 C1777 1.400 . S
C1777 C1776 1.400 . S
C1777 C1778 1.398 . S
C1777 C1783 1.491 . S
C1778 H1769 0.950 . S
C1778 C1777 1.398 . S
C1778 C1779 1.391 . S
C1779 H1767 0.950 . S
C1779 C1775 1.393 . S
C1779 C1778 1.391 . S
C1780 H1770 0.950 . S
C1780 C1781 1.386 . S
C1780 C1782 1.391 . S
C1781 C1780 1.386 . S
C1781 C1785 1.393 . S
C1782 H1771 0.950 . S
C1782 C1780 1.391 . S
C1782 C1783 1.400 . S
C1783 C1777 1.491 . S
C1783 C1782 1.400 . S
C1783 C1784 1.398 . S
C1784 H1772 0.950 . S
C1784 C1783 1.398 . S
C1784 C1785 1.391 . S
C1785 H1773 0.950 . S
C1785 C1781 1.393 . S
C1785 C1784 1.391 . S
H1786 C1794 0.950 . S
H1787 C1799 0.950 . S
H1788 C1796 0.950 . S
H1789 C1798 0.950 . S
H1790 C1800 0.950 . S
H1791 C1802 0.950 . S
H1792 C1804 0.950 . S
H1793 C1805 0.950 . S
C1794 H1786 0.950 . S
C1794 C1795 1.386 . S
C1794 C1796 1.391 . S
C1795 C1794 1.386 . S
C1795 C1799 1.393 . S
C1796 H1788 0.950 . S
C1796 C1794 1.391 . S
C1796 C1797 1.400 . S
C1797 C1796 1.400 . S
C1797 C1798 1.398 . S
C1797 C1803 1.491 . S
C1798 H1789 0.950 . S
C1798 C1797 1.398 . S
C1798 C1799 1.391 . S
C1799 H1787 0.950 . S
C1799 C1795 1.393 . S
C1799 C1798 1.391 . S
C1800 H1790 0.950 . S
C1800 C1801 1.386 . S
C1800 C1802 1.391 . S
C1801 C1800 1.386 . S
C1801 C1805 1.393 . S
C1802 H1791 0.950 . S
C1802 C1800 1.391 . S
C1802 C1803 1.400 . S
C1803 C1797 1.491 . S
C1803 C1802 1.400 . S
C1803 C1804 1.398 . S
C1804 H1792 0.950 . S
C1804 C1803 1.398 . S
C1804 C1805 1.391 . S
C1805 H1793 0.950 . S
C1805 C1801 1.393 . S
C1805 C1804 1.391 . S
H1806 C1814 0.950 . S
H1807 C1819 0.950 . S
H1808 C1816 0.950 . S
H1809 C1818 0.950 . S
H1810 C1820 0.950 . S
H1811 C1822 0.950 . S
H1812 C1824 0.950 . S
H1813 C1825 0.950 . S
C1814 H1806 0.950 . S
C1814 C1815 1.386 . S
C1814 C1816 1.391 . S
C1815 C1814 1.386 . S
C1815 C1819 1.393 . S
C1816 H1808 0.950 . S
C1816 C1814 1.391 . S
C1816 C1817 1.400 . S
C1817 C1816 1.400 . S
C1817 C1818 1.398 . S
C1817 C1823 1.491 . S
C1818 H1809 0.950 . S
C1818 C1817 1.398 . S
C1818 C1819 1.391 . S
C1819 H1807 0.950 . S
C1819 C1815 1.393 . S
C1819 C1818 1.391 . S
C1820 H1810 0.950 . S
C1820 C1821 1.386 . S
C1820 C1822 1.391 . S
C1821 C1820 1.386 . S
C1821 C1825 1.393 . S
C1822 H1811 0.950 . S
C1822 C1820 1.391 . S
C1822 C1823 1.400 . S
C1823 C1817 1.491 . S
C1823 C1822 1.400 . S
C1823 C1824 1.398 . S
C1824 H1812 0.950 . S
C1824 C1823 1.398 . S
C1824 C1825 1.391 . S
C1825 H1813 0.950 . S
C1825 C1821 1.393 . S
C1825 C1824 1.391 . S
H1826 C1834 0.950 . S
H1827 C1839 0.950 . S
H1828 C1836 0.950 . S
H1829 C1838 0.950 . S
H1830 C1840 0.950 . S
H1831 C1842 0.950 . S
H1832 C1844 0.950 . S
H1833 C1845 0.950 . S
C1834 H1826 0.950 . S
C1834 C1835 1.386 . S
C1834 C1836 1.391 . S
C1835 C1834 1.386 . S
C1835 C1839 1.393 . S
C1836 H1828 0.950 . S
C1836 C1834 1.391 . S
C1836 C1837 1.400 . S
C1837 C1836 1.400 . S
C1837 C1838 1.398 . S
C1837 C1843 1.491 . S
C1838 H1829 0.950 . S
C1838 C1837 1.398 . S
C1838 C1839 1.391 . S
C1839 H1827 0.950 . S
C1839 C1835 1.393 . S
C1839 C1838 1.391 . S
C1840 H1830 0.950 . S
C1840 C1841 1.386 . S
C1840 C1842 1.391 . S
C1841 C1840 1.386 . S
C1841 C1845 1.393 . S
C1842 H1831 0.950 . S
C1842 C1840 1.391 . S
C1842 C1843 1.400 . S
C1843 C1837 1.491 . S
C1843 C1842 1.400 . S
C1843 C1844 1.398 . S
C1844 H1832 0.950 . S
C1844 C1843 1.398 . S
C1844 C1845 1.391 . S
C1845 H1833 0.950 . S
C1845 C1841 1.393 . S
C1845 C1844 1.391 . S
H1846 C1854 0.950 . S
H1847 C1859 0.950 . S
H1848 C1856 0.950 . S
H1849 C1858 0.950 . S
H1850 C1860 0.950 . S
H1851 C1862 0.950 . S
H1852 C1864 0.950 . S
H1853 C1865 0.950 . S
C1854 H1846 0.950 . S
C1854 C1855 1.386 . S
C1854 C1856 1.391 . S
C1855 C1854 1.386 . S
C1855 C1859 1.393 . S
C1856 H1848 0.950 . S
C1856 C1854 1.391 . S
C1856 C1857 1.400 . S
C1857 C1856 1.400 . S
C1857 C1858 1.398 . S
C1857 C1863 1.491 . S
C1858 H1849 0.950 . S
C1858 C1857 1.398 . S
C1858 C1859 1.391 . S
C1859 H1847 0.950 . S
C1859 C1855 1.393 . S
C1859 C1858 1.391 . S
C1860 H1850 0.950 . S
C1860 C1861 1.386 . S
C1860 C1862 1.391 . S
C1861 C1860 1.386 . S
C1861 C1865 1.393 . S
C1862 H1851 0.950 . S
C1862 C1860 1.391 . S
C1862 C1863 1.400 . S
C1863 C1857 1.491 . S
C1863 C1862 1.400 . S
C1863 C1864 1.398 . S
C1864 H1852 0.950 . S
C1864 C1863 1.398 . S
C1864 C1865 1.391 . S
C1865 H1853 0.950 . S
C1865 C1861 1.393 . S
C1865 C1864 1.391 . S
H1866 C1874 0.950 . S
H1867 C1879 0.950 . S
H1868 C1876 0.950 . S
H1869 C1878 0.950 . S
H1870 C1880 0.950 . S
H1871 C1882 0.950 . S
H1872 C1884 0.950 . S
H1873 C1885 0.950 . S
C1874 H1866 0.950 . S
C1874 C1875 1.386 . S
C1874 C1876 1.391 . S
C1875 C1874 1.386 . S
C1875 C1879 1.393 . S
C1876 H1868 0.950 . S
C1876 C1874 1.391 . S
C1876 C1877 1.400 . S
C1877 C1876 1.400 . S
C1877 C1878 1.398 . S
C1877 C1883 1.491 . S
C1878 H1869 0.950 . S
C1878 C1877 1.398 . S
C1878 C1879 1.391 . S
C1879 H1867 0.950 . S
C1879 C1875 1.393 . S
C1879 C1878 1.391 . S
C1880 H1870 0.950 . S
C1880 C1881 1.386 . S
C1880 C1882 1.391 . S
C1881 C1880 1.386 . S
C1881 C1885 1.393 . S
C1882 H1871 0.950 . S
C1882 C1880 1.391 . S
C1882 C1883 1.400 . S
C1883 C1877 1.491 . S
C1883 C1882 1.400 . S
C1883 C1884 1.398 . S
C1884 H1872 0.950 . S
C1884 C1883 1.398 . S
C1884 C1885 1.391 . S
C1885 H1873 0.950 . S
C1885 C1881 1.393 . S
C1885 C1884 1.391 . S
H1886 C1894 0.950 . S
H1887 C1899 0.950 . S
H1888 C1896 0.950 . S
H1889 C1898 0.950 . S
H1890 C1900 0.950 . S
H1891 C1902 0.950 . S
H1892 C1904 0.950 . S
H1893 C1905 0.950 . S
C1894 H1886 0.950 . S
C1894 C1895 1.386 . S
C1894 C1896 1.391 . S
C1895 C1894 1.386 . S
C1895 C1899 1.393 . S
C1896 H1888 0.950 . S
C1896 C1894 1.391 . S
C1896 C1897 1.400 . S
C1897 C1896 1.400 . S
C1897 C1898 1.398 . S
C1897 C1903 1.491 . S
C1898 H1889 0.950 . S
C1898 C1897 1.398 . S
C1898 C1899 1.391 . S
C1899 H1887 0.950 . S
C1899 C1895 1.393 . S
C1899 C1898 1.391 . S
C1900 H1890 0.950 . S
C1900 C1901 1.386 . S
C1900 C1902 1.391 . S
C1901 C1900 1.386 . S
C1901 C1905 1.393 . S
C1902 H1891 0.950 . S
C1902 C1900 1.391 . S
C1902 C1903 1.400 . S
C1903 C1897 1.491 . S
C1903 C1902 1.400 . S
C1903 C1904 1.398 . S
C1904 H1892 0.950 . S
C1904 C1903 1.398 . S
C1904 C1905 1.391 . S
C1905 H1893 0.950 . S
C1905 C1901 1.393 . S
C1905 C1904 1.391 . S
H1906 C1914 0.950 . S
H1907 C1919 0.950 . S
H1908 C1916 0.950 . S
H1909 C1918 0.950 . S
H1910 C1920 0.950 . S
H1911 C1922 0.950 . S
H1912 C1924 0.950 . S
H1913 C1925 0.950 . S
C1914 H1906 0.950 . S
C1914 C1915 1.386 . S
C1914 C1916 1.391 . S
C1915 C1914 1.386 . S
C1915 C1919 1.393 . S
C1916 H1908 0.950 . S
C1916 C1914 1.391 . S
C1916 C1917 1.400 . S
C1917 C1916 1.400 . S
C1917 C1918 1.398 . S
C1917 C1923 1.491 . S
C1918 H1909 0.950 . S
C1918 C1917 1.398 . S
C1918 C1919 1.391 . S
C1919 H1907 0.950 . S
C1919 C1915 1.393 . S
C1919 C1918 1.391 . S
C1920 H1910 0.950 . S
C1920 C1921 1.386 . S
C1920 C1922 1.391 . S
C1921 C1920 1.386 . S
C1921 C1925 1.393 . S
C1922 H1911 0.950 . S
C1922 C1920 1.391 . S
C1922 C1923 1.400 . S
C1923 C1917 1.491 . S
C1923 C1922 1.400 . S
C1923 C1924 1.398 . S
C1924 H1912 0.950 . S
C1924 C1923 1.398 . S
C1924 C1925 1.391 . S
C1925 H1913 0.950 . S
C1925 C1921 1.393 . S
C1925 C1924 1.391 . S
H1926 C1934 0.950 . S
H1927 C1939 0.950 . S
H1928 C1936 0.950 . S
H1929 C1938 0.950 . S
H1930 C1940 0.950 . S
H1931 C1942 0.950 . S
H1932 C1944 0.950 . S
H1933 C1945 0.950 . S
C1934 H1926 0.950 . S
C1934 C1935 1.386 . S
C1934 C1936 1.391 . S
C1935 C1934 1.386 . S
C1935 C1939 1.393 . S
C1936 H1928 0.950 . S
C1936 C1934 1.391 . S
C1936 C1937 1.400 . S
C1937 C1936 1.400 . S
C1937 C1938 1.398 . S
C1937 C1943 1.491 . S
C1938 H1929 0.950 . S
C1938 C1937 1.398 . S
C1938 C1939 1.391 . S
C1939 H1927 0.950 . S
C1939 C1935 1.393 . S
C1939 C1938 1.391 . S
C1940 H1930 0.950 . S
C1940 C1941 1.386 . S
C1940 C1942 1.391 . S
C1941 C1940 1.386 . S
C1941 C1945 1.393 . S
C1942 H1931 0.950 . S
C1942 C1940 1.391 . S
C1942 C1943 1.400 . S
C1943 C1937 1.491 . S
C1943 C1942 1.400 . S
C1943 C1944 1.398 . S
C1944 H1932 0.950 . S
C1944 C1943 1.398 . S
C1944 C1945 1.391 . S
C1945 H1933 0.950 . S
C1945 C1941 1.393 . S
C1945 C1944 1.391 . S
H1946 C1954 0.950 . S
H1947 C1959 0.950 . S
H1948 C1956 0.950 . S
H1949 C1958 0.950 . S
H1950 C1960 0.950 . S
H1951 C1962 0.950 . S
H1952 C1964 0.950 . S
H1953 C1965 0.950 . S
C1954 H1946 0.950 . S
C1954 C1955 1.386 . S
C1954 C1956 1.391 . S
C1955 C1954 1.386 . S
C1955 C1959 1.393 . S
C1956 H1948 0.950 . S
C1956 C1954 1.391 . S
C1956 C1957 1.400 . S
C1957 C1956 1.400 . S
C1957 C1958 1.398 . S
C1957 C1963 1.491 . S
C1958 H1949 0.950 . S
C1958 C1957 1.398 . S
C1958 C1959 1.391 . S
C1959 H1947 0.950 . S
C1959 C1955 1.393 . S
C1959 C1958 1.391 . S
C1960 H1950 0.950 . S
C1960 C1961 1.386 . S
C1960 C1962 1.391 . S
C1961 C1960 1.386 . S
C1961 C1965 1.393 . S
C1962 H1951 0.950 . S
C1962 C1960 1.391 . S
C1962 C1963 1.400 . S
C1963 C1957 1.491 . S
C1963 C1962 1.400 . S
C1963 C1964 1.398 . S
C1964 H1952 0.950 . S
C1964 C1963 1.398 . S
C1964 C1965 1.391 . S
C1965 H1953 0.950 . S
C1965 C1961 1.393 . S
C1965 C1964 1.391 . S
H1966 C1974 0.950 . S
H1967 C1979 0.950 . S
H1968 C1976 0.950 . S
H1969 C1978 0.950 . S
H1970 C1980 0.950 . S
H1971 C1982 0.950 . S
H1972 C1984 0.950 . S
H1973 C1985 0.950 . S
C1974 H1966 0.950 . S
C1974 C1975 1.386 . S
C1974 C1976 1.391 . S
C1975 C1974 1.386 . S
C1975 C1979 1.393 . S
C1976 H1968 0.950 . S
C1976 C1974 1.391 . S
C1976 C1977 1.400 . S
C1977 C1976 1.400 . S
C1977 C1978 1.398 . S
C1977 C1983 1.491 . S
C1978 H1969 0.950 . S
C1978 C1977 1.398 . S
C1978 C1979 1.391 . S
C1979 H1967 0.950 . S
C1979 C1975 1.393 . S
C1979 C1978 1.391 . S
C1980 H1970 0.950 . S
C1980 C1981 1.386 . S
C1980 C1982 1.391 . S
C1981 C1980 1.386 . S
C1981 C1985 1.393 . S
C1982 H1971 0.950 . S
C1982 C1980 1.391 . S
C1982 C1983 1.400 . S
C1983 C1977 1.491 . S
C1983 C1982 1.400 . S
C1983 C1984 1.398 . S
C1984 H1972 0.950 . S
C1984 C1983 1.398 . S
C1984 C1985 1.391 . S
C1985 H1973 0.950 . S
C1985 C1981 1.393 . S
C1985 C1984 1.391 . S
H1986 C1994 0.950 . S
H1987 C1999 0.950 . S
H1988 C1996 0.950 . S
H1989 C1998 0.950 . S
H1990 C2000 0.950 . S
H1991 C2002 0.950 . S
H1992 C2004 0.950 . S
H1993 C2005 0.950 . S
C1994 H1986 0.950 . S
C1994 C1995 1.386 . S
C1994 C1996 1.391 . S
C1995 C1994 1.386 . S
C1995 C1999 1.393 . S
C1996 H1988 0.950 . S
C1996 C1994 1.391 . S
C1996 C1997 1.400 . S
C1997 C1996 1.400 . S
C1997 C1998 1.398 . S
C1997 C2003 1.491 . S
C1998 H1989 0.950 . S
C1998 C1997 1.398 . S
C1998 C1999 1.391 . S
C1999 H1987 0.950 . S
C1999 C1995 1.393 . S
C1999 C1998 1.391 . S
C2000 H1990 0.950 . S
C2000 C2001 1.386 . S
C2000 C2002 1.391 . S
C2001 C2000 1.386 . S
C2001 C2005 1.393 . S
C2002 H1991 0.950 . S
C2002 C2000 1.391 . S
C2002 C2003 1.400 . S
C2003 C1997 1.491 . S
C2003 C2002 1.400 . S
C2003 C2004 1.398 . S
C2004 H1992 0.950 . S
C2004 C2003 1.398 . S
C2004 C2005 1.391 . S
C2005 H1993 0.950 . S
C2005 C2001 1.393 . S
C2005 C2004 1.391 . S
H2006 C2014 0.950 . S
H2007 C2019 0.950 . S
H2008 C2016 0.950 . S
H2009 C2018 0.950 . S
H2010 C2020 0.950 . S
H2011 C2022 0.950 . S
H2012 C2024 0.950 . S
H2013 C2025 0.950 . S
C2014 H2006 0.950 . S
C2014 C2015 1.386 . S
C2014 C2016 1.391 . S
C2015 C2014 1.386 . S
C2015 C2019 1.393 . S
C2016 H2008 0.950 . S
C2016 C2014 1.391 . S
C2016 C2017 1.400 . S
C2017 C2016 1.400 . S
C2017 C2018 1.398 . S
C2017 C2023 1.491 . S
C2018 H2009 0.950 . S
C2018 C2017 1.398 . S
C2018 C2019 1.391 . S
C2019 H2007 0.950 . S
C2019 C2015 1.393 . S
C2019 C2018 1.391 . S
C2020 H2010 0.950 . S
C2020 C2021 1.386 . S
C2020 C2022 1.391 . S
C2021 C2020 1.386 . S
C2021 C2025 1.393 . S
C2022 H2011 0.950 . S
C2022 C2020 1.391 . S
C2022 C2023 1.400 . S
C2023 C2017 1.491 . S
C2023 C2022 1.400 . S
C2023 C2024 1.398 . S
C2024 H2012 0.950 . S
C2024 C2023 1.398 . S
C2024 C2025 1.391 . S
C2025 H2013 0.950 . S
C2025 C2021 1.393 . S
C2025 C2024 1.391 . S
H2026 C2034 0.950 . S
H2027 C2039 0.950 . S
H2028 C2036 0.950 . S
H2029 C2038 0.950 . S
H2030 C2040 0.950 . S
H2031 C2042 0.950 . S
H2032 C2044 0.950 . S
H2033 C2045 0.950 . S
C2034 H2026 0.950 . S
C2034 C2035 1.386 . S
C2034 C2036 1.391 . S
C2035 C2034 1.386 . S
C2035 C2039 1.393 . S
C2036 H2028 0.950 . S
C2036 C2034 1.391 . S
C2036 C2037 1.400 . S
C2037 C2036 1.400 . S
C2037 C2038 1.398 . S
C2037 C2043 1.491 . S
C2038 H2029 0.950 . S
C2038 C2037 1.398 . S
C2038 C2039 1.391 . S
C2039 H2027 0.950 . S
C2039 C2035 1.393 . S
C2039 C2038 1.391 . S
C2040 H2030 0.950 . S
C2040 C2041 1.386 . S
C2040 C2042 1.391 . S
C2041 C2040 1.386 . S
C2041 C2045 1.393 . S
C2042 H2031 0.950 . S
C2042 C2040 1.391 . S
C2042 C2043 1.400 . S
C2043 C2037 1.491 . S
C2043 C2042 1.400 . S
C2043 C2044 1.398 . S
C2044 H2032 0.950 . S
C2044 C2043 1.398 . S
C2044 C2045 1.391 . S
C2045 H2033 0.950 . S
C2045 C2041 1.393 . S
C2045 C2044 1.391 . S
H2046 C2054 0.950 . S
H2047 C2059 0.950 . S
H2048 C2056 0.950 . S
H2049 C2058 0.950 . S
H2050 C2060 0.950 . S
H2051 C2062 0.950 . S
H2052 C2064 0.950 . S
H2053 C2065 0.950 . S
C2054 H2046 0.950 . S
C2054 C2055 1.386 . S
C2054 C2056 1.391 . S
C2055 C2054 1.386 . S
C2055 C2059 1.393 . S
C2056 H2048 0.950 . S
C2056 C2054 1.391 . S
C2056 C2057 1.400 . S
C2057 C2056 1.400 . S
C2057 C2058 1.398 . S
C2057 C2063 1.491 . S
C2058 H2049 0.950 . S
C2058 C2057 1.398 . S
C2058 C2059 1.391 . S
C2059 H2047 0.950 . S
C2059 C2055 1.393 . S
C2059 C2058 1.391 . S
C2060 H2050 0.950 . S
C2060 C2061 1.386 1_554 S
C2060 C2062 1.391 . S
C2061 C2060 1.386 1_556 S
C2061 C2065 1.393 . S
C2062 H2051 0.950 . S
C2062 C2060 1.391 . S
C2062 C2063 1.400 . S
C2063 C2057 1.491 . S
C2063 C2062 1.400 . S
C2063 C2064 1.400 1_554 S
C2064 H2052 0.950 . S
C2064 C2063 1.400 1_556 S
C2064 C2065 1.389 . S
C2065 H2053 0.950 . S
C2065 C2061 1.393 . S
C2065 C2064 1.389 . S
H2066 C2074 0.950 . S
H2067 C2079 0.950 . S
H2068 C2076 0.950 . S
H2069 C2078 0.950 . S
H2070 C2080 0.950 . S
H2071 C2082 0.950 . S
H2072 C2084 0.950 . S
H2073 C2085 0.950 1_556 S
C2074 H2066 0.950 . S
C2074 C2075 1.386 . S
C2074 C2076 1.391 . S
C2075 C2074 1.386 . S
C2075 C2079 1.393 . S
C2076 H2068 0.950 . S
C2076 C2074 1.391 . S
C2076 C2077 1.400 . S
C2077 C2076 1.400 . S
C2077 C2078 1.398 . S
C2077 C2083 1.491 . S
C2078 H2069 0.950 . S
C2078 C2077 1.398 . S
C2078 C2079 1.391 . S
C2079 H2067 0.950 . S
C2079 C2075 1.393 . S
C2079 C2078 1.391 . S
C2080 H2070 0.950 . S
C2080 C2081 1.386 . S
C2080 C2082 1.391 . S
C2081 C2080 1.386 . S
C2081 C2085 1.393 . S
C2082 H2071 0.950 . S
C2082 C2080 1.391 . S
C2082 C2083 1.400 . S
C2083 C2077 1.491 . S
C2083 C2082 1.400 . S
C2083 C2084 1.398 . S
C2084 H2072 0.950 . S
C2084 C2083 1.398 . S
C2084 C2085 1.391 . S
C2085 H2073 0.950 1_554 S
C2085 C2081 1.393 . S
C2085 C2084 1.391 . S
H2086 C2094 0.950 . S
H2087 C2099 0.950 . S
H2088 C2096 0.950 . S
H2089 C2098 0.950 . S
H2090 C2100 0.950 . S
H2091 C2102 0.950 . S
H2092 C2104 0.950 . S
H2093 C2105 0.950 . S
C2094 H2086 0.950 . S
C2094 C2095 1.386 . S
C2094 C2096 1.391 . S
C2095 C2094 1.386 . S
C2095 C2099 1.393 . S
C2096 H2088 0.950 . S
C2096 C2094 1.391 . S
C2096 C2097 1.400 . S
C2097 C2096 1.400 . S
C2097 C2098 1.398 . S
C2097 C2103 1.491 . S
C2098 H2089 0.950 . S
C2098 C2097 1.398 . S
C2098 C2099 1.391 . S
C2099 H2087 0.950 . S
C2099 C2095 1.393 . S
C2099 C2098 1.391 . S
C2100 H2090 0.950 . S
C2100 C2101 1.386 . S
C2100 C2102 1.391 1_556 S
C2101 C2100 1.386 . S
C2101 C2105 1.393 1_556 S
C2102 H2091 0.950 . S
C2102 C2100 1.391 1_554 S
C2102 C2103 1.400 . S
C2103 C2097 1.491 . S
C2103 C2102 1.400 . S
C2103 C2104 1.398 . S
C2104 H2092 0.950 . S
C2104 C2103 1.398 . S
C2104 C2105 1.391 . S
C2105 H2093 0.950 . S
C2105 C2101 1.393 1_554 S
C2105 C2104 1.391 . S
C675 C7 1.498 . S
C681 C571 1.502 . S
C701 C543 1.773 . S
C695 C39 1.758 . S
C721 C563 1.579 . S
C715 C62 1.553 . S
C735 C76 1.812 . S
C741 C633 1.803 . S
C755 C108 1.507 . S
C761 C641 1.505 . S
C775 N117 1.395 . S
C781 C661 1.386 . S
C801 C617 1.456 . S
C795 C16 1.460 . S
C815 C30 1.809 . S
C821 C589 1.774 . S
C841 C605 1.507 . S
C835 C53 1.514 . S
C855 C85 1.797 . S
C861 C507 1.778 . S
C881 C519 1.654 . S
C875 C99 1.684 . S
C895 N127 1.328 . S
C901 C535 1.377 . S
C915 N150 1.197 . S
C921 C655 1.223 . S
C941 C627 1.545 . S
C935 N173 1.521 . S
C961 C647 1.411 . S
C955 C200 1.399 . S
C975 C214 1.645 . S
C981 C465 1.643 . S
C995 N232 1.549 . S
C1001 C473 1.567 . S
C1015 C260 1.530 . S
C1021 C493 1.524 1_565 S
C1041 C449 1.303 . S
C1035 N140 1.266 . S
C1055 N163 1.260 . S
C1061 C421 1.296 . S
C1081 C437 1.595 . S
C1075 C191 1.594 . S
C1101 C591 1.875 . S
C1095 C223 1.885 . S
C1121 C603 1.496 . S
C1115 N242 1.440 . S
C1141 C619 1.543 . S
C1135 C269 1.547 . S
C1155 N288 1.358 . S
C1161 C487 1.370 . S
C1175 C315 1.508 . S
C1181 C459 1.532 . S
C1195 C338 1.633 . S
C1201 C479 1.642 . S
C1215 C352 1.831 . S
C1221 C549 1.832 . S
C1241 C557 1.618 . S
C1235 N370 1.608 . S
C1261 C577 1.601 1_655 S
C1255 C398 1.599 . S
C1281 C533 1.249 . S
C1275 N278 1.213 . S
C1295 C306 1.714 . S
C1301 C505 1.687 . S
C1315 C329 1.614 . S
C1321 C521 1.603 . S
C1341 C423 1.525 . S
C1335 C361 1.537 . S
C1355 N380 1.481 . S
C1361 C435 1.522 . S
C1381 C451 1.512 . S
C1375 C407 1.514 . S
C1401 C463 1.381 . S
C1395 N12 1.374 . S
C1415 N25 1.532 . S
C1421 C478 1.546 . S
C1441 C491 1.316 . S
C1435 N48 1.326 . S
C1461 C492 1.367 . S
C1455 N81 1.348 . S
C1481 C464 1.526 . S
C1475 N94 1.485 . S
C1501 C477 1.553 . S
C1495 C131 1.579 . S
C1521 C417 1.408 . S
C1515 N2 1.398 . S
C1535 N35 1.457 . S
C1541 C436 1.499 . S
C1555 N58 1.321 . S
C1561 C445 1.359 . S
C1581 C450 1.332 . S
C1575 N71 1.272 . S
C1601 C422 1.366 . S
C1595 N104 1.344 . S
C1621 C431 1.604 . S
C1615 C122 1.599 . S
C1635 C145 1.999 . S
C1641 C547 1.963 . S
C1655 C168 1.686 . S
C1661 C562 1.693 . S
C1675 N186 1.443 . S
C1681 C575 1.438 . S
C1701 C576 1.386 . S
C1695 N219 1.376 . S
C1721 C548 1.760 . S
C1715 C246 1.753 . S
C1741 C561 1.479 . S
C1735 N265 1.496 . S
C1761 C501 1.907 . S
C1755 C154 1.903 . S
C1775 C177 1.803 . S
C1781 C520 1.791 . S
C1795 N196 1.315 . S
C1801 C529 1.342 . S
C1815 N209 1.178 . S
C1821 C534 1.252 . S
C1835 C237 1.785 . S
C1841 C506 1.781 . S
C1861 C515 1.454 . S
C1855 N255 1.413 . S
C1875 C283 1.770 . S
C1881 C631 1.734 . S
C1895 N301 1.422 . S
C1901 C646 1.433 . S
C1915 N324 1.326 . S
C1921 C659 1.314 . S
C1941 C660 1.209 . S
C1935 N357 1.192 . S
C1961 C632 1.731 . S
C1955 C384 1.721 . S
C1975 N403 1.356 . S
C1981 C645 1.341 . S
C1995 C292 1.861 . S
C2001 C585 1.865 . S
C2021 C604 1.364 . S
C2015 N311 1.334 . S
C2035 N334 1.405 . S
C2041 C613 1.458 . S
C2055 N347 1.320 . S
C2061 C618 1.372 . S
C2081 C590 1.829 1_554 S
C2075 C375 1.828 . S
C2095 N393 1.360 . S
C2101 C599 1.404 . S
