# Generated by pormake.
# Topology ocu, (6,8)-cn, num edge types: 1
# Building blocks:
#     Node 0, Type 0, BuildingBlock: VOLQOD_clean_sbu_1, # of connection points: 6
#     Node 1, Type 0, BuildingBlock: VOLQOD_clean_sbu_1, # of connection points: 6
#     Node 2, Type 0, BuildingBlock: VOLQOD_clean_sbu_1, # of connection points: 6
#     Node 3, Type 0, BuildingBlock: VOLQOD_clean_sbu_1, # of connection points: 6
#     Node 4, Type 0, BuildingBlock: VOLQOD_clean_sbu_1, # of connection points: 6
#     Node 5, Type 0, BuildingBlock: VOLQOD_clean_sbu_1, # of connection points: 6
#     Node 6, Type 0, BuildingBlock: VOLQOD_clean_sbu_1, # of connection points: 6
#     Node 7, Type 0, BuildingBlock: VOLQOD_clean_sbu_1, # of connection points: 6
#     Node 8, Type 1, BuildingBlock: GIZVER_clean_sbu_0, # of connection points: 8
#     Node 9, Type 1, BuildingBlock: GIZVER_clean_sbu_0, # of connection points: 8
#     Node 10, Type 1, BuildingBlock: GIZVER_clean_sbu_0, # of connection points: 8
#     Node 11, Type 1, BuildingBlock: GIZVER_clean_sbu_0, # of connection points: 8
#     Node 12, Type 1, BuildingBlock: GIZVER_clean_sbu_0, # of connection points: 8
#     Node 13, Type 1, BuildingBlock: GIZVER_clean_sbu_0, # of connection points: 8
#     Edge 14, Type (0, 1), BuildingBlock: AJUNOK_clean_linker_0, # of connection points: 2
#     Edge 15, Type (0, 1), BuildingBlock: AJUNOK_clean_linker_0, # of connection points: 2
#     Edge 16, Type (0, 1), BuildingBlock: AJUNOK_clean_linker_0, # of connection points: 2
#     Edge 17, Type (0, 1), BuildingBlock: AJUNOK_clean_linker_0, # of connection points: 2
#     Edge 18, Type (0, 1), BuildingBlock: AJUNOK_clean_linker_0, # of connection points: 2
#     Edge 19, Type (0, 1), BuildingBlock: AJUNOK_clean_linker_0, # of connection points: 2
#     Edge 20, Type (0, 1), BuildingBlock: AJUNOK_clean_linker_0, # of connection points: 2
#     Edge 21, Type (0, 1), BuildingBlock: AJUNOK_clean_linker_0, # of connection points: 2
#     Edge 22, Type (0, 1), BuildingBlock: AJUNOK_clean_linker_0, # of connection points: 2
#     Edge 23, Type (0, 1), BuildingBlock: AJUNOK_clean_linker_0, # of connection points: 2
#     Edge 24, Type (0, 1), BuildingBlock: AJUNOK_clean_linker_0, # of connection points: 2
#     Edge 25, Type (0, 1), BuildingBlock: AJUNOK_clean_linker_0, # of connection points: 2
#     Edge 26, Type (0, 1), BuildingBlock: AJUNOK_clean_linker_0, # of connection points: 2
#     Edge 27, Type (0, 1), BuildingBlock: AJUNOK_clean_linker_0, # of connection points: 2
#     Edge 28, Type (0, 1), BuildingBlock: AJUNOK_clean_linker_0, # of connection points: 2
#     Edge 29, Type (0, 1), BuildingBlock: AJUNOK_clean_linker_0, # of connection points: 2
#     Edge 30, Type (0, 1), BuildingBlock: AJUNOK_clean_linker_0, # of connection points: 2
#     Edge 31, Type (0, 1), BuildingBlock: AJUNOK_clean_linker_0, # of connection points: 2
#     Edge 32, Type (0, 1), BuildingBlock: AJUNOK_clean_linker_0, # of connection points: 2
#     Edge 33, Type (0, 1), BuildingBlock: AJUNOK_clean_linker_0, # of connection points: 2
#     Edge 34, Type (0, 1), BuildingBlock: AJUNOK_clean_linker_0, # of connection points: 2
#     Edge 35, Type (0, 1), BuildingBlock: AJUNOK_clean_linker_0, # of connection points: 2
#     Edge 36, Type (0, 1), BuildingBlock: AJUNOK_clean_linker_0, # of connection points: 2
#     Edge 37, Type (0, 1), BuildingBlock: AJUNOK_clean_linker_0, # of connection points: 2
#     Edge 38, Type (0, 1), BuildingBlock: AJUNOK_clean_linker_0, # of connection points: 2
#     Edge 39, Type (0, 1), BuildingBlock: AJUNOK_clean_linker_0, # of connection points: 2
#     Edge 40, Type (0, 1), BuildingBlock: AJUNOK_clean_linker_0, # of connection points: 2
#     Edge 41, Type (0, 1), BuildingBlock: AJUNOK_clean_linker_0, # of connection points: 2
#     Edge 42, Type (0, 1), BuildingBlock: AJUNOK_clean_linker_0, # of connection points: 2
#     Edge 43, Type (0, 1), BuildingBlock: AJUNOK_clean_linker_0, # of connection points: 2
#     Edge 44, Type (0, 1), BuildingBlock: AJUNOK_clean_linker_0, # of connection points: 2
#     Edge 45, Type (0, 1), BuildingBlock: AJUNOK_clean_linker_0, # of connection points: 2
#     Edge 46, Type (0, 1), BuildingBlock: AJUNOK_clean_linker_0, # of connection points: 2
#     Edge 47, Type (0, 1), BuildingBlock: AJUNOK_clean_linker_0, # of connection points: 2
#     Edge 48, Type (0, 1), BuildingBlock: AJUNOK_clean_linker_0, # of connection points: 2
#     Edge 49, Type (0, 1), BuildingBlock: AJUNOK_clean_linker_0, # of connection points: 2
#     Edge 50, Type (0, 1), BuildingBlock: AJUNOK_clean_linker_0, # of connection points: 2
#     Edge 51, Type (0, 1), BuildingBlock: AJUNOK_clean_linker_0, # of connection points: 2
#     Edge 52, Type (0, 1), BuildingBlock: AJUNOK_clean_linker_0, # of connection points: 2
#     Edge 53, Type (0, 1), BuildingBlock: AJUNOK_clean_linker_0, # of connection points: 2
#     Edge 54, Type (0, 1), BuildingBlock: AJUNOK_clean_linker_0, # of connection points: 2
#     Edge 55, Type (0, 1), BuildingBlock: AJUNOK_clean_linker_0, # of connection points: 2
#     Edge 56, Type (0, 1), BuildingBlock: AJUNOK_clean_linker_0, # of connection points: 2
#     Edge 57, Type (0, 1), BuildingBlock: AJUNOK_clean_linker_0, # of connection points: 2
#     Edge 58, Type (0, 1), BuildingBlock: AJUNOK_clean_linker_0, # of connection points: 2
#     Edge 59, Type (0, 1), BuildingBlock: AJUNOK_clean_linker_0, # of connection points: 2
#     Edge 60, Type (0, 1), BuildingBlock: AJUNOK_clean_linker_0, # of connection points: 2
#     Edge 61, Type (0, 1), BuildingBlock: AJUNOK_clean_linker_0, # of connection points: 2
# Relax obj value: 0.258
# Max RMSD: 0.365
# Mean RMSD: 0.248
data_MOF--net-ocu--node1-VOLQOD_clean_sbu_1--node2-GIZVER_clean_sbu_0--edge1-AJUNOK_clean_linker_0
_symmetry_space_group_name_H-M    P1
_symmetry_Int_Tables_number       1
_symmetry_cell_setting            triclinic
loop_
_symmetry_equiv_pos_as_xyz
'x, y, z'
_cell_length_a     32.383263
_cell_length_b     33.872303
_cell_length_c     24.107957
_cell_angle_alpha  89.246301
_cell_angle_beta   91.258468
_cell_angle_gamma 103.98756
loop_
_atom_site_label
_atom_site_type_symbol
_atom_site_fract_x
_atom_site_fract_y
_atom_site_fract_z
_atom_type_partial_charge
O0 O 0.33761 0.32989 0.26766 0.0
Zn1 Zn 0.2914 0.28618 0.30559 0.0
O2 O 0.25487 0.25103 0.24774 0.0
Zn3 Zn 0.19577 0.25254 0.2531 0.0
Zn4 Zn 0.2739 0.26829 0.17318 0.0
Zn5 Zn 0.25513 0.19395 0.256 0.0
O6 O 0.15676 0.19954 0.27557 0.0
O7 O 0.19949 0.15759 0.28013 0.0
O8 O 0.2544 0.31672 0.35155 0.0
O9 O 0.19128 0.29152 0.31141 0.0
O10 O 0.17384 0.27428 0.18413 0.0
O11 O 0.22904 0.28763 0.12814 0.0
O12 O 0.29616 0.22497 0.13446 0.0
O13 O 0.32297 0.25076 0.35398 0.0
O14 O 0.27798 0.17114 0.19 0.0
O15 O 0.29584 0.19033 0.3157 0.0
C16 C 0.34484 0.33815 0.21642 0.0
C17 C 0.16304 0.16458 0.28624 0.0
C18 C 0.19087 0.28836 0.13873 0.0
C19 C 0.21442 0.31472 0.34685 0.0
C20 C 0.29545 0.18796 0.14614 0.0
C21 C 0.32045 0.21254 0.35064 0.0
O22 O 0.32253 0.31707 0.17827 0.0
O23 O 0.73476 0.19355 0.16073 0.0
Zn24 Zn 0.78131 0.23174 0.21265 0.0
O25 O 0.75301 0.26346 0.26236 0.0
Zn26 Zn 0.76868 0.32078 0.24609 0.0
Zn27 Zn 0.69181 0.24766 0.25408 0.0
Zn28 Zn 0.76713 0.25703 0.34011 0.0
O29 O 0.79574 0.35401 0.31012 0.0
O30 O 0.79738 0.30918 0.37744 0.0
O31 O 0.82758 0.2734 0.16819 0.0
O32 O 0.81289 0.33193 0.19081 0.0
O33 O 0.7217 0.34221 0.21498 0.0
O34 O 0.6649 0.29136 0.22742 0.0
O35 O 0.66358 0.2191 0.32001 0.0
O36 O 0.81396 0.19813 0.26198 0.0
O37 O 0.71681 0.22356 0.38089 0.0
O38 O 0.80884 0.22376 0.34528 0.0
C39 C 0.69416 0.18878 0.16108 0.0
C40 C 0.80687 0.34545 0.35871 0.0
C41 C 0.682 0.32712 0.21097 0.0
C42 C 0.83458 0.31227 0.16437 0.0
C43 C 0.67793 0.2099 0.36653 0.0
C44 C 0.82392 0.20131 0.31378 0.0
O45 O 0.67694 0.20774 0.19505 0.0
O46 O 0.67868 0.69213 0.26845 0.0
Zn47 Zn 0.72802 0.73237 0.30865 0.0
O48 O 0.76722 0.76378 0.25176 0.0
Zn49 Zn 0.82432 0.75678 0.26188 0.0
Zn50 Zn 0.74936 0.7472 0.17601 0.0
Zn51 Zn 0.77133 0.82164 0.25697 0.0
O52 O 0.86633 0.80663 0.28686 0.0
O53 O 0.82877 0.85311 0.28256 0.0
O54 O 0.76141 0.70046 0.36084 0.0
O55 O 0.82566 0.71957 0.32413 0.0
O56 O 0.8443 0.73128 0.19684 0.0
O57 O 0.79029 0.72051 0.13628 0.0
O58 O 0.73138 0.79149 0.13185 0.0
O59 O 0.70099 0.77208 0.35289 0.0
O60 O 0.74904 0.84434 0.18831 0.0
O61 O 0.73352 0.83153 0.31567 0.0
C62 C 0.67107 0.68661 0.2165 0.0
C63 C 0.86299 0.84264 0.29494 0.0
C64 C 0.82719 0.71683 0.15112 0.0
C65 C 0.80086 0.69994 0.36024 0.0
C66 C 0.73213 0.82824 0.14326 0.0
C67 C 0.70761 0.81091 0.34998 0.0
O68 O 0.69592 0.70572 0.18005 0.0
O69 O 0.31782 0.79054 0.34873 0.0
Zn70 Zn 0.28074 0.74639 0.29695 0.0
O71 O 0.2476 0.77166 0.24271 0.0
Zn72 Zn 0.18758 0.75575 0.25588 0.0
Zn73 Zn 0.26278 0.83015 0.24772 0.0
Zn74 Zn 0.25683 0.75682 0.16741 0.0
O75 O 0.15497 0.72509 0.19235 0.0
O76 O 0.20347 0.72458 0.12901 0.0
O77 O 0.23839 0.70129 0.33934 0.0
O78 O 0.17649 0.71451 0.3148 0.0
O79 O 0.164 0.80148 0.28093 0.0
O80 O 0.21564 0.85613 0.26491 0.0
O81 O 0.29657 0.8558 0.18394 0.0
O82 O 0.31926 0.71729 0.25551 0.0
O83 O 0.29347 0.80463 0.12607 0.0
O84 O 0.29265 0.71763 0.16976 0.0
C85 C 0.32124 0.82901 0.34748 0.0
C86 C 0.16552 0.71293 0.14627 0.0
C87 C 0.17861 0.83985 0.28202 0.0
C88 C 0.1978 0.69376 0.34208 0.0
C89 C 0.30787 0.84175 0.13974 0.0
C90 C 0.31692 0.70604 0.20496 0.0
O91 O 0.30154 0.84537 0.31143 0.0
O92 O 0.25043 0.68508 0.67038 0.0
Zn93 Zn 0.29169 0.72961 0.71625 0.0
O94 O 0.25936 0.75984 0.76228 0.0
Zn95 Zn 0.2785 0.81743 0.75196 0.0
Zn96 Zn 0.20047 0.74604 0.73977 0.0
Zn97 Zn 0.26345 0.74869 0.84166 0.0
O98 O 0.30898 0.84443 0.81892 0.0
O99 O 0.29445 0.79864 0.88673 0.0
O100 O 0.33271 0.76898 0.66483 0.0
O101 O 0.32144 0.82727 0.69475 0.0
O102 O 0.23387 0.84425 0.72146 0.0
O103 O 0.17989 0.79139 0.70529 0.0
O104 O 0.16334 0.71981 0.80018 0.0
O105 O 0.32735 0.70279 0.768 0.0
O106 O 0.20701 0.71304 0.86997 0.0
O107 O 0.30486 0.71547 0.85098 0.0
C108 C 0.21034 0.67986 0.66201 0.0
C109 C 0.31342 0.83397 0.8691 0.0
C110 C 0.19689 0.82916 0.70126 0.0
C111 C 0.34031 0.80775 0.66358 0.0
C112 C 0.16986 0.70513 0.84736 0.0
C113 C 0.32877 0.70055 0.82088 0.0
O114 O 0.19007 0.70274 0.6847 0.0
O115 O 0.18428 0.18777 0.75687 0.0
Zn116 Zn 0.2343 0.22396 0.80137 0.0
O117 O 0.27406 0.25853 0.74815 0.0
Zn118 Zn 0.33139 0.2543 0.763 0.0
Zn119 Zn 0.26001 0.24334 0.67091 0.0
Zn120 Zn 0.27532 0.31519 0.75492 0.0
O121 O 0.37329 0.30629 0.78029 0.0
O122 O 0.33114 0.34873 0.7815 0.0
O123 O 0.26712 0.18871 0.8493 0.0
O124 O 0.33335 0.22101 0.82931 0.0
O125 O 0.35055 0.22181 0.70574 0.0
O126 O 0.30013 0.21141 0.63979 0.0
O127 O 0.24852 0.28933 0.62254 0.0
O128 O 0.20794 0.2614 0.85035 0.0
O129 O 0.25575 0.33785 0.68563 0.0
O130 O 0.23582 0.32189 0.81241 0.0
C131 C 0.17699 0.18622 0.70447 0.0
C132 C 0.3673 0.34122 0.78995 0.0
C133 C 0.33457 0.20525 0.66073 0.0
C134 C 0.30746 0.19458 0.85719 0.0
C135 C 0.24607 0.3248 0.63672 0.0
C136 C 0.2121 0.29998 0.84782 0.0
O137 O 0.20361 0.20586 0.67028 0.0
O138 O 0.81947 0.28231 0.83408 0.0
Zn139 Zn 0.77556 0.23938 0.78934 0.0
O140 O 0.74668 0.26586 0.73086 0.0
Zn141 Zn 0.68563 0.24959 0.73424 0.0
Zn142 Zn 0.76072 0.32312 0.74139 0.0
Zn143 Zn 0.76426 0.25706 0.65642 0.0
O144 O 0.66142 0.21477 0.66796 0.0
O145 O 0.71559 0.22033 0.61102 0.0
O146 O 0.73145 0.20086 0.83749 0.0
O147 O 0.6728 0.21012 0.79501 0.0
O148 O 0.65725 0.29449 0.75898 0.0
O149 O 0.71524 0.34302 0.77591 0.0
O150 O 0.78056 0.355 0.67393 0.0
O151 O 0.80875 0.20402 0.75252 0.0
O152 O 0.80268 0.30994 0.62445 0.0
O153 O 0.80222 0.22044 0.66351 0.0
C154 C 0.82979 0.32088 0.82672 0.0
C155 C 0.67717 0.20386 0.62423 0.0
C156 C 0.67534 0.32934 0.77887 0.0
C157 C 0.69099 0.193 0.83198 0.0
C158 C 0.80456 0.3469 0.63705 0.0
C159 C 0.81635 0.2008 0.70146 0.0
O160 O 0.8094 0.3379 0.7924 0.0
O161 O 0.83941 0.8227 0.76812 0.0
Zn162 Zn 0.79334 0.7773 0.80411 0.0
O163 O 0.75664 0.74424 0.74458 0.0
Zn164 Zn 0.69851 0.74859 0.74833 0.0
Zn165 Zn 0.77772 0.76182 0.67094 0.0
Zn166 Zn 0.75354 0.68636 0.75155 0.0
O167 O 0.65694 0.69694 0.76925 0.0
O168 O 0.69597 0.65169 0.77339 0.0
O169 O 0.75677 0.80638 0.85229 0.0
O170 O 0.69457 0.78679 0.80742 0.0
O171 O 0.67911 0.77171 0.67946 0.0
O172 O 0.73366 0.78064 0.62264 0.0
O173 O 0.80401 0.71948 0.63572 0.0
O174 O 0.82287 0.73948 0.85148 0.0
O175 O 0.77814 0.6639 0.68603 0.0
O176 O 0.79166 0.68 0.81343 0.0
C177 C 0.84601 0.83258 0.71714 0.0
C178 C 0.66052 0.66098 0.77905 0.0
C179 C 0.69612 0.7836 0.6333 0.0
C180 C 0.71756 0.80693 0.84563 0.0
C181 C 0.8002 0.68169 0.64575 0.0
C182 C 0.81709 0.70075 0.84895 0.0
O183 O 0.82427 0.81176 0.6784 0.0
Co184 Co 0.05184 0.94099 0.48381 0.0
Co185 Co 0.063 0.96729 0.58232 0.0
Co186 Co 1.00499 0.01398 0.51947 0.0
O187 O 0.05555 0.99187 0.51789 0.0
H188 H 0.08126 0.01222 0.50958 0.0
O189 O 0.95428 0.03598 0.51952 0.0
Co190 Co 0.95737 0.08874 0.545 0.0
Co191 Co 0.94699 0.05539 0.45064 0.0
H192 H 0.92888 0.01615 0.53056 0.0
O193 O 0.11615 0.9687 0.6031 0.0
O194 O 0.06894 0.9182 0.55651 0.0
O195 O 0.01934 0.95851 0.63678 0.0
O196 O 0.97298 0.97307 0.57556 0.0
O197 O 0.03167 0.05056 0.58005 0.0
O198 O 0.95569 0.13575 0.57248 0.0
O199 O 0.90232 0.0796 0.56057 0.0
O200 O 0.01762 0.10408 0.53794 0.0
O201 O 0.03693 0.05427 0.46301 0.0
O202 O 0.9896 0.05622 0.3961 0.0
O203 O 0.94532 0.10783 0.46672 0.0
O204 O 0.89512 0.05653 0.42599 0.0
C205 C 0.09023 0.91699 0.4373 0.0
C206 C 0.9713 0.93973 0.46237 0.0
C207 C 0.98137 0.95723 0.62173 0.0
C208 C 0.10472 0.93161 0.58473 0.0
C209 C 0.91677 0.11579 0.58135 0.0
C210 C 0.0382 0.08893 0.57505 0.0
C211 C 0.02787 0.06176 0.41272 0.0
C212 C 0.91105 0.09507 0.43504 0.0
O213 O 0.0523 0.89626 0.44953 0.0
O214 O 0.10598 0.95209 0.46087 0.0
O215 O 0.97835 0.97806 0.45914 0.0
O216 O 0.99272 0.92365 0.49724 0.0
Co217 Co 0.56387 0.92742 0.97195 0.0
Co218 Co 0.56085 0.94874 0.07345 0.0
Co219 Co 0.51479 0.00479 -0.00099 0.0
O220 O 0.56351 0.97837 0.00759 0.0
H221 H 0.59069 0.99791 0.00531 0.0
O222 O 0.46471 0.02947 0.99081 0.0
Co223 Co 0.462 0.07856 0.02702 0.0
Co224 Co 0.46308 0.05695 0.92485 0.0
H225 H 0.43813 0.00916 -0.00595 0.0
O226 O 0.611 0.9476 0.10816 0.0
O227 O 0.57342 0.90306 0.0456 0.0
O228 O 0.50684 0.92962 0.1068 0.0
O229 O 0.47597 0.96779 0.052 0.0
O230 O 0.54129 0.04428 0.05857 0.0
O231 O 0.45525 0.12259 0.06055 0.0
O232 O 0.40489 0.06617 0.039 0.0
O233 O 0.52243 0.09781 0.0216 0.0
O234 O 0.55312 0.04274 0.94573 0.0
O235 O 0.5162 0.07539 0.88989 0.0
O236 O 0.45079 0.103 0.95385 0.0
O237 O 0.4112 0.05884 0.89312 0.0
C238 C 0.60908 0.89983 0.94135 0.0
C239 C 0.47715 0.92799 0.95036 0.0
C240 C 0.47412 0.94031 0.08899 0.0
C241 C 0.60687 0.91521 0.07819 0.0
C242 C 0.41541 0.10309 0.05885 0.0
C243 C 0.549 0.08268 0.04962 0.0
C244 C 0.55107 0.06848 0.90721 0.0
C245 C 0.41626 0.09124 0.92307 0.0
O246 O 0.56865 0.88249 0.93947 0.0
O247 O 0.62146 0.93688 0.96064 0.0
O248 O 0.48931 0.9659 0.93926 0.0
O249 O 0.50234 0.91005 0.97655 0.0
Co250 Co 0.05826 0.42277 0.96877 0.0
Co251 Co 0.06541 0.45181 0.07001 0.0
Co252 Co 0.01005 0.50016 -0.00206 0.0
O253 O 0.06058 0.47579 0.00032 0.0
H254 H 0.08667 0.49553 0.99178 0.0
O255 O 0.95862 0.52409 -0.00473 0.0
Co256 Co 0.96219 0.57817 0.02307 0.0
Co257 Co 0.9536 0.54597 0.92447 0.0
H258 H 0.93269 0.50469 0.00531 0.0
O259 O 0.11702 0.44212 0.09442 0.0
O260 O 0.06562 0.40085 0.04358 0.0
O261 O 0.01633 0.43911 0.11562 0.0
O262 O 0.97547 0.45782 0.05006 0.0
O263 O 0.03683 0.53854 0.05911 0.0
O264 O 0.96244 0.62616 0.04922 0.0
O265 O 0.90583 0.57325 0.03742 0.0
O266 O 0.02057 0.59053 0.01448 0.0
O267 O 0.04428 0.54206 0.94556 0.0
O268 O 1.00202 0.5542 0.87717 0.0
O269 O 0.9534 0.59816 0.94729 0.0
O270 O 0.90205 0.55485 0.89919 0.0
C271 C 0.10163 0.39268 0.93988 0.0
C272 C 0.9757 0.42449 0.94179 0.0
C273 C 0.98008 0.43687 0.09331 0.0
C274 C 0.1018 0.40741 0.07053 0.0
C275 C 0.92189 0.6108 0.05324 0.0
C276 C 0.0422 0.57697 0.05131 0.0
C277 C 0.03854 0.56004 0.90021 0.0
C278 C 0.91691 0.59047 0.92088 0.0
O279 O 0.06112 0.37555 0.93966 0.0
O280 O 0.11478 0.43011 0.95744 0.0
O281 O 0.98414 0.46316 0.93623 0.0
O282 O 0.99822 0.40785 0.97413 0.0
Co283 Co 0.55086 0.43879 0.97802 0.0
Co284 Co 0.56348 0.46772 0.07531 0.0
Co285 Co 0.50628 0.51402 0.01733 0.0
O286 O 0.55615 0.49106 0.00944 0.0
H287 H 0.58174 0.51092 -0.0007 0.0
O288 O 0.45647 0.53705 0.025 0.0
Co289 Co 0.46154 0.58991 0.05364 0.0
Co290 Co 0.44811 0.55818 0.95825 0.0
H291 H 0.43106 0.5174 0.03624 0.0
O292 O 0.61585 0.46889 0.09568 0.0
O293 O 0.56632 0.41751 0.0523 0.0
O294 O 0.52178 0.4611 0.13351 0.0
O295 O 0.47491 0.47157 0.07103 0.0
O296 O 0.53563 0.54758 0.07947 0.0
O297 O 0.46177 0.63718 0.08342 0.0
O298 O 0.4065 0.58288 0.07063 0.0
O299 O 0.52134 0.60329 0.04469 0.0
O300 O 0.53705 0.55631 0.96245 0.0
O301 O 0.48719 0.5578 0.89928 0.0
O302 O 0.44962 0.61052 0.97695 0.0
O303 O 0.39628 0.56034 0.93817 0.0
C304 C 0.58844 0.4106 0.93417 0.0
C305 C 0.47109 0.44158 0.95699 0.0
C306 C 0.48355 0.45772 0.11814 0.0
C307 C 0.60045 0.43066 0.08387 0.0
C308 C 0.42228 0.61884 0.09172 0.0
C309 C 0.54179 0.58603 0.0794 0.0
C310 C 0.52607 0.56416 0.91312 0.0
C311 C 0.4149 0.59857 0.94599 0.0
O312 O 0.54973 0.39197 0.94623 0.0
O313 O 0.60511 0.44641 0.95547 0.0
O314 O 0.47698 0.48002 0.9559 0.0
O315 O 0.49211 0.42504 0.99181 0.0
Co316 Co 0.10289 0.4633 0.52076 0.0
Co317 Co 0.06881 0.46046 0.42202 0.0
Co318 Co 0.0183 0.50784 0.50075 0.0
O319 O 0.04529 0.46025 0.49261 0.0
H320 H 0.02587 0.43443 0.50072 0.0
O321 O 0.99207 0.55601 0.50877 0.0
Co322 Co 0.93454 0.55454 0.48241 0.0
Co323 Co 0.97175 0.55766 0.58081 0.0
H324 H 0.0118 0.58151 0.49998 0.0
O325 O 0.07451 0.41214 0.39241 0.0
O326 O 0.12255 0.45584 0.44479 0.0
O327 O 0.08151 0.51048 0.38134 0.0
O328 O 0.05751 0.54431 0.44698 0.0
O329 O 0.97491 0.48407 0.44202 0.0
O330 O 0.883 0.55678 0.45789 0.0
O331 O 0.93985 0.60895 0.47229 0.0
O332 O 0.92116 0.49811 0.48734 0.0
O333 O 0.97802 0.47174 0.5541 0.0
O334 O 0.96424 0.50837 0.624 0.0
O335 O 0.91648 0.55882 0.55934 0.0
O336 O 0.96195 0.60579 0.6097 0.0
C337 C 0.13872 0.42422 0.54832 0.0
C338 C 0.10132 0.54007 0.54964 0.0
C339 C 0.07961 0.5435 0.40396 0.0
C340 C 0.11184 0.42226 0.41632 0.0
C341 C 0.89973 0.59567 0.45746 0.0
C342 C 0.93506 0.47748 0.45176 0.0
C343 C 0.95904 0.47463 0.59925 0.0
C344 C 0.9244 0.59241 0.58746 0.0
O345 O 0.15363 0.46327 0.54672 0.0
O346 O 0.09876 0.40904 0.53398 0.0
O347 O 0.06143 0.53128 0.55979 0.0
O348 O 0.11572 0.52024 0.51335 0.0
Co349 Co 0.59381 0.95559 0.52291 0.0
Co350 Co 0.57321 0.96638 0.42137 0.0
Co351 Co 0.51268 1.00241 0.50074 0.0
O352 O 0.5425 0.95957 0.48527 0.0
H353 H 0.52255 0.93317 0.48389 0.0
O354 O 0.48341 0.04659 0.516 0.0
Co355 Co 0.43563 0.05342 0.47217 0.0
Co356 Co 0.44372 0.03474 0.56925 0.0
H357 H 0.50335 0.07252 0.52212 0.0
O358 O 0.57608 0.92083 0.38235 0.0
O359 O 0.62101 0.95241 0.44989 0.0
O360 O 0.59064 0.02077 0.3956 0.0
O361 O 0.54802 0.04509 0.45065 0.0
O362 O 0.4712 0.97988 0.43961 0.0
O363 O 0.39364 0.06356 0.43125 0.0
O364 O 0.45055 0.10891 0.46633 0.0
O365 O 0.41365 0.99594 0.4707 0.0
O366 O 0.47803 0.95905 0.55173 0.0
O367 O 0.42252 0.97875 0.58524 0.0
O368 O 0.40246 0.0583 0.54079 0.0
O369 O 0.44323 0.07299 0.61974 0.0
C370 C 0.61788 0.90792 0.54947 0.0
C371 C 0.59365 0.03771 0.5523 0.0
C372 C 0.57747 0.05003 0.41503 0.0
C373 C 0.60917 0.92256 0.41454 0.0
C374 C 0.4144 0.10112 0.43845 0.0
C375 C 0.43114 0.97081 0.44716 0.0
C376 C 0.44237 0.95157 0.57635 0.0
C377 C 0.41333 0.07942 0.58644 0.0
O378 O 0.63969 0.94528 0.55718 0.0
O379 O 0.58018 0.90115 0.52629 0.0
O380 O 0.55417 0.0239 0.56182 0.0
O381 O 0.61384 0.01543 0.52647 0.0
C382 C 0.08607 0.1366 0.30596 0.0
C383 C 0.12848 0.13349 0.31225 0.0
C384 C 0.05343 0.11185 0.33674 0.0
C385 C 0.06201 0.08348 0.37577 0.0
H386 H 0.07815 0.1592 0.2782 0.0
H387 H 0.02156 0.11638 0.3317 0.0
S388 S 0.16677 0.06043 0.40431 0.0
N389 N 0.17667 0.09732 0.35742 0.0
N390 N 0.11523 0.05124 0.41576 0.0
C391 C 0.10384 0.07868 0.3807 0.0
C392 C 0.13707 0.10349 0.34872 0.0
C393 C 0.84911 0.13722 0.32262 0.0
C394 C 0.85109 0.17681 0.34065 0.0
C395 C 0.86897 0.11135 0.3534 0.0
C396 C 0.89206 0.12421 0.40305 0.0
H397 H 0.83056 0.1255 0.28587 0.0
H398 H 0.86578 0.08078 0.33823 0.0
S399 S 0.90982 0.22639 0.46558 0.0
N400 N 0.88016 0.22871 0.40959 0.0
N401 N 0.91769 0.18002 0.46685 0.0
C402 C 0.89591 0.16434 0.42016 0.0
C403 C 0.87535 0.1906 0.38914 0.0
C404 C 0.92174 0.85249 0.36608 0.0
C405 C 0.8951 0.86954 0.33093 0.0
C406 C 0.94589 0.87502 0.40903 0.0
C407 C 0.94464 0.91558 0.41814 0.0
H408 H 0.9226 0.82087 0.36215 0.0
H409 H 0.96533 0.86038 0.43544 0.0
S410 S 0.88204 0.97526 0.33542 0.0
N411 N 0.87073 0.93004 0.30629 0.0
N412 N 0.91555 0.97238 0.38696 0.0
C413 C 0.9191 0.93338 0.38213 0.0
C414 C 0.89464 0.91044 0.33846 0.0
C415 C 0.1131 0.84668 0.32814 0.0
C416 C 0.15535 0.86431 0.31378 0.0
C417 C 0.09274 0.86424 0.36789 0.0
C418 C 0.11363 0.90034 0.39508 0.0
H419 H 0.09594 0.81813 0.31007 0.0
H420 H 0.06037 0.84872 0.3778 0.0
S421 S 0.22318 0.96108 0.36875 0.0
N422 N 0.21672 0.92172 0.32699 0.0
N423 N 0.17792 0.95496 0.4018 0.0
C424 C 0.15517 0.91961 0.37921 0.0
C425 C 0.17609 0.90163 0.3384 0.0
C426 C 0.13066 0.84086 0.6559 0.0
C427 C 0.17442 0.85507 0.66861 0.0
C428 C 0.1086 0.86462 0.62477 0.0
C429 C 0.12956 0.90336 0.60541 0.0
H430 H 0.11301 0.81156 0.6712 0.0
H431 H 0.07456 0.85347 0.61837 0.0
S432 S 0.24478 0.95222 0.61974 0.0
N433 N 0.23866 0.90868 0.65386 0.0
N434 N 0.19693 0.9533 0.59575 0.0
C435 C 0.1736 0.91704 0.61513 0.0
C436 C 0.1961 0.89295 0.64676 0.0
C437 C 0.12353 0.12066 0.6879 0.0
C438 C 0.13643 0.16287 0.68041 0.0
C439 C 0.09102 0.09716 0.65434 0.0
C440 C 0.07026 0.11514 0.61228 0.0
H441 H 0.14023 0.10549 0.71751 0.0
H442 H 0.08306 0.06447 0.66045 0.0
S443 S 0.08975 0.22565 0.58138 0.0
N444 N 0.12419 0.22238 0.63174 0.0
N445 N 0.06291 0.17849 0.56908 0.0
C446 C 0.08145 0.15773 0.60686 0.0
C447 C 0.11459 0.1815 0.64082 0.0
C448 C 0.88572 0.18874 0.68001 0.0
C449 C 0.84171 0.17362 0.68349 0.0
C450 C 0.90966 0.16933 0.64722 0.0
C451 C 0.8902 0.13426 0.61672 0.0
H452 H 0.90132 0.21706 0.70002 0.0
H453 H 0.94354 0.18264 0.64483 0.0
S454 S 0.77533 0.08219 0.61499 0.0
N455 N 0.77925 0.12153 0.65624 0.0
N456 N 0.82424 0.08418 0.59485 0.0
C457 C 0.84622 0.11791 0.62202 0.0
C458 C 0.82193 0.13789 0.65536 0.0
C459 C 0.87228 0.89022 0.65195 0.0
C460 C 0.87916 0.86894 0.70047 0.0
C461 C 0.90475 0.92061 0.62906 0.0
C462 C 0.94587 0.93076 0.65323 0.0
H463 H 0.84175 0.88241 0.63028 0.0
H464 H 0.89791 0.93473 0.59047 0.0
S465 S 0.97913 0.88691 0.78425 0.0
N466 N 0.92884 0.86238 0.77485 0.0
N467 N 0.99044 0.91936 0.73182 0.0
C468 C 0.95249 0.91138 0.70382 0.0
C469 C 0.91902 0.88056 0.72746 0.0
C470 C 0.31391 0.12356 0.11622 0.0
C471 C 0.32225 0.16642 0.11471 0.0
C472 C 0.34333 0.10294 0.09611 0.0
C473 C 0.38273 0.12451 0.07551 0.0
H474 H 0.28496 0.10586 0.13457 0.0
H475 H 0.33596 0.07005 0.09902 0.0
S476 S 0.41893 0.23679 0.05883 0.0
N477 N 0.37157 0.22937 0.0867 0.0
N478 N 0.42739 0.19105 0.05162 0.0
C479 C 0.39078 0.16726 0.07201 0.0
C480 C 0.36039 0.18809 0.0908 0.0
C481 C 0.86682 0.37258 0.10685 0.0
C482 C 0.8719 0.33772 0.13607 0.0
C483 C 0.90179 0.40451 0.09378 0.0
C484 C 0.94342 0.4034 0.11039 0.0
H485 H 0.83518 0.376 0.09611 0.0
H486 H 0.89597 0.43072 0.07158 0.0
S487 S 0.97418 0.31734 0.1843 0.0
N488 N 0.92179 0.30281 0.17856 0.0
N489 N 0.98786 0.36257 0.15418 0.0
C490 C 0.94912 0.36786 0.13782 0.0
C491 C 0.91334 0.33507 0.15043 0.0
C492 C 0.71321 0.89232 0.11296 0.0
C493 C 0.70416 0.84963 0.11162 0.0
C494 C 0.68202 0.91321 0.09885 0.0
C495 C 0.64042 0.89228 0.08315 0.0
H496 H 0.74388 0.90962 0.12825 0.0
H497 H 0.69011 0.94602 0.10273 0.0
S498 S 0.60089 0.7806 0.0698 0.0
N499 N 0.65119 0.78718 0.08969 0.0
N500 N 0.59249 0.82667 0.06385 0.0
C501 C 0.63166 0.84983 0.07786 0.0
C502 C 0.6636 0.82845 0.09189 0.0
C503 C 0.09122 0.67235 0.12957 0.0
C504 C 0.13487 0.67875 0.11878 0.0
C505 C 0.06181 0.63757 0.11066 0.0
C506 C 0.07484 0.60736 0.08115 0.0
H507 H 0.07959 0.69444 0.15289 0.0
H508 H 0.02839 0.63457 0.11851 0.0
S509 S 0.18507 0.60824 0.04278 0.0
N510 N 0.18968 0.6511 0.07698 0.0
N511 N 0.13381 0.58552 0.04185 0.0
C512 C 0.11821 0.6128 0.07053 0.0
C513 C 0.14834 0.64859 0.08909 0.0
C514 C 0.3759 0.84229 0.93531 0.0
C515 C 0.34903 0.86011 0.90177 0.0
C516 C 0.41678 0.86459 0.95205 0.0
C517 C 0.43233 0.90571 0.93631 0.0
H518 H 0.36662 0.81016 0.94545 0.0
H519 H 0.43688 0.84896 0.97572 0.0
S520 S 0.37152 0.96781 0.85518 0.0
N521 N 0.33887 0.92226 0.8587 0.0
N522 N 0.41504 0.96418 0.8897 0.0
C523 C 0.40432 0.92454 0.90619 0.0
C524 C 0.36289 0.90181 0.88924 0.0
C525 C 0.1436 0.30318 0.89172 0.0
C526 C 0.18672 0.32092 0.88232 0.0
C527 C 0.1167 0.32651 0.91161 0.0
C528 C 0.1319 0.36842 0.92298 0.0
H529 H 0.12997 0.2718 0.88048 0.0
H530 H 0.08337 0.31169 0.91646 0.0
S531 S 0.24401 0.42761 0.91262 0.0
N532 N 0.24463 0.38158 0.89163 0.0
N533 N 0.19415 0.42533 0.92849 0.0
C534 C 0.17564 0.38572 0.91725 0.0
C535 C 0.20298 0.36198 0.8971 0.0
C536 C 0.62479 0.17101 0.88312 0.0
C537 C 0.66243 0.16188 0.86547 0.0
C538 C 0.58936 0.14025 0.89669 0.0
C539 C 0.59024 0.09908 0.8937 0.0
H540 H 0.62174 0.2022 0.88282 0.0
H541 H 0.56067 0.14884 0.90861 0.0
S542 S 0.68284 0.05908 0.85734 0.0
N543 N 0.69996 0.10898 0.8503 0.0
N544 N 0.6332 0.05066 0.87844 0.0
C545 C 0.62873 0.08943 0.88091 0.0
C546 C 0.66496 0.12102 0.86616 0.0
C547 C 0.82302 0.63604 0.89329 0.0
C548 C 0.84183 0.67751 0.88327 0.0
C549 C 0.84752 0.60869 0.90804 0.0
C550 C 0.89185 0.62167 0.91488 0.0
H551 H 0.78923 0.62393 0.88573 0.0
H552 H 0.83164 0.57676 0.91204 0.0
S553 S 0.95592 0.7282 0.90458 0.0
N554 N 0.9069 0.7312 0.88835 0.0
N555 N 0.95306 0.67975 0.91879 0.0
C556 C 0.91068 0.66371 0.91117 0.0
C557 C 0.88561 0.6917 0.89492 0.0
C558 C 0.12443 0.30517 0.10251 0.0
C559 C 0.16921 0.31453 0.1054 0.0
C560 C 0.10261 0.33481 0.08706 0.0
C561 C 0.12493 0.37502 0.07583 0.0
H562 H 0.10615 0.27546 0.11557 0.0
H563 H 0.06815 0.32696 0.08796 0.0
S564 S 0.24202 0.41382 0.07022 0.0
N565 N 0.23495 0.36562 0.08891 0.0
N566 N 0.19384 0.42164 0.06223 0.0
C567 C 0.16954 0.38402 0.07459 0.0
C568 C 0.19174 0.3536 0.08863 0.0
C569 C 0.14539 0.63772 0.89562 0.0
C570 C 0.13537 0.67121 0.86809 0.0
C571 C 0.11431 0.60126 0.90371 0.0
C572 C 0.072 0.59672 0.88446 0.0
H573 H 0.17785 0.63899 0.90895 0.0
H574 H 0.1236 0.57629 0.92494 0.0
S575 S 0.02852 0.67692 0.81447 0.0
N576 N 0.07944 0.69848 0.82503 0.0
N577 N 0.02133 0.63034 0.83984 0.0
C578 C 0.06138 0.63048 0.85821 0.0
C579 C 0.09288 0.66759 0.85042 0.0
C580 C 0.36827 0.18296 0.91441 0.0
C581 C 0.32736 0.1669 0.89105 0.0
C582 C 0.39607 0.15806 0.92757 0.0
C583 C 0.384 0.11598 0.91847 0.0
H584 H 0.38029 0.21559 0.91825 0.0
H585 H 0.4282 0.17233 0.94132 0.0
S586 S 0.27772 0.05766 0.86812 0.0
N587 N 0.27438 0.10556 0.86612 0.0
N588 N 0.32598 0.05844 0.8925 0.0
C589 C 0.34171 0.09898 0.90044 0.0
C590 C 0.31344 0.12447 0.8867 0.0
C591 C 0.88623 0.33304 0.90244 0.0
C592 C 0.86696 0.34738 0.85608 0.0
C593 C 0.92126 0.35821 0.93013 0.0
C594 C 0.93833 0.39865 0.91251 0.0
H595 H 0.87407 0.30228 0.91767 0.0
H596 H 0.93489 0.34589 0.96587 0.0
S597 S 0.90133 0.45043 0.79143 0.0
N598 N 0.86905 0.40461 0.79244 0.0
N599 N 0.93425 0.45136 0.84478 0.0
C600 C 0.9196 0.41327 0.86606 0.0
C601 C 0.88416 0.38778 0.83777 0.0
C602 C 0.70971 0.87187 0.89005 0.0
C603 C 0.69558 0.82953 0.88268 0.0
C604 C 0.68234 0.89465 0.91126 0.0
C605 C 0.63988 0.87582 0.92478 0.0
H606 H 0.74094 0.88778 0.8761 0.0
H607 H 0.6938 0.92735 0.91437 0.0
S608 S 0.59001 0.76465 0.91937 0.0
N609 N 0.63852 0.76925 0.89635 0.0
N610 N 0.58708 0.81128 0.93425 0.0
C611 C 0.62669 0.83307 0.92071 0.0
C612 C 0.65456 0.81017 0.90024 0.0
C613 C 0.89418 0.69976 0.12398 0.0
C614 C 0.8497 0.69189 0.11867 0.0
C615 C 0.91661 0.67336 0.10223 0.0
C616 C 0.89566 0.63748 0.07453 0.0
H617 H 0.91191 0.7262 0.14641 0.0
H618 H 0.95084 0.68093 0.10853 0.0
S619 S 0.77945 0.60382 0.04642 0.0
N620 N 0.78529 0.64661 0.08117 0.0
N621 N 0.82777 0.59644 0.04054 0.0
C622 C 0.85121 0.62965 0.06735 0.0
C623 C 0.8282 0.65705 0.08912 0.0
C624 C 0.35545 0.90834 0.1131 0.0
C625 C 0.34753 0.86563 0.1153 0.0
C626 C 0.39667 0.9325 0.10521 0.0
C627 C 0.43158 0.91482 0.10155 0.0
H628 H 0.32981 0.92317 0.11939 0.0
H629 H 0.40142 0.96527 0.10327 0.0
S630 S 0.42754 0.80437 0.10154 0.0
N631 N 0.3777 0.80663 0.10978 0.0
N632 N 0.45523 0.85205 0.09681 0.0
C633 C 0.42393 0.87216 0.10216 0.0
C634 C 0.38186 0.84756 0.10838 0.0
C635 C 0.6601 0.12076 0.11734 0.0
C636 C 0.66402 0.16295 0.12095 0.0
C637 C 0.62344 0.09488 0.09284 0.0
C638 C 0.58941 0.11028 0.0712 0.0
H639 H 0.68408 0.10738 0.13663 0.0
H640 H 0.62119 0.06246 0.09252 0.0
S641 S 0.58538 0.2189 0.0686 0.0
N642 N 0.63169 0.21893 0.0985 0.0
N643 N 0.56365 0.17104 0.05326 0.0
C644 C 0.59422 0.15266 0.07234 0.0
C645 C 0.63123 0.17871 0.09695 0.0
C646 C 0.63302 0.60335 0.84484 0.0
C647 C 0.62467 0.63179 0.80567 0.0
C648 C 0.60075 0.58089 0.87862 0.0
C649 C 0.55877 0.58544 0.87376 0.0
H650 H 0.66516 0.59993 0.8516 0.0
H651 H 0.60895 0.56039 0.90952 0.0
S652 S 0.51954 0.6534 0.77425 0.0
N653 N 0.57084 0.66148 0.76172 0.0
N654 N 0.51012 0.61886 0.8243 0.0
C655 C 0.54955 0.61221 0.83271 0.0
C656 C 0.5825 0.63548 0.79894 0.0
C657 C 0.36315 0.64268 0.82708 0.0
C658 C 0.35724 0.67882 0.84938 0.0
C659 C 0.38319 0.61756 0.85853 0.0
C660 C 0.39854 0.62817 0.9128 0.0
H661 H 0.35014 0.6326 0.78646 0.0
H662 H 0.38579 0.58908 0.84066 0.0
S663 S 0.39615 0.7225 0.98689 0.0
N664 N 0.37189 0.72617 0.92672 0.0
N665 N 0.41039 0.67888 0.98535 0.0
C666 C 0.39566 0.66559 0.93403 0.0
C667 C 0.37468 0.69095 0.90238 0.0
C668 C 0.42609 0.35389 0.86017 0.0
C669 C 0.3989 0.36964 0.82449 0.0
C670 C 0.4489 0.37719 0.90319 0.0
C671 C 0.44624 0.41748 0.91149 0.0
H672 H 0.42797 0.32249 0.8571 0.0
H673 H 0.46808 0.36307 0.93068 0.0
S674 S 0.38189 0.47405 0.82676 0.0
N675 N 0.37213 0.42856 0.79838 0.0
N676 N 0.41565 0.47284 0.87867 0.0
C677 C 0.42054 0.43423 0.87459 0.0
C678 C 0.39689 0.41027 0.83112 0.0
C679 C 0.61351 0.33143 0.83849 0.0
C680 C 0.65156 0.35203 0.81354 0.0
C681 C 0.59406 0.35049 0.87814 0.0
C682 C 0.61174 0.39101 0.89459 0.0
H683 H 0.59926 0.29988 0.82875 0.0
H684 H 0.56494 0.33299 0.8963 0.0
S685 S 0.70961 0.45943 0.83903 0.0
N686 N 0.70525 0.41611 0.80621 0.0
N687 N 0.66862 0.45167 0.88073 0.0
C688 C 0.64932 0.41228 0.86918 0.0
C689 C 0.66914 0.39291 0.82863 0.0
C690 C 0.64638 0.38336 0.2042 0.0
C691 C 0.6566 0.34985 0.17982 0.0
C692 C 0.62719 0.4089 0.17253 0.0
C693 C 0.61796 0.40155 0.11573 0.0
H694 H 0.65421 0.39036 0.24748 0.0
H695 H 0.62 0.4349 0.19245 0.0
S696 S 0.64162 0.31932 0.03233 0.0
N697 N 0.6584 0.31142 0.09584 0.0
N698 N 0.62112 0.35932 0.03626 0.0
C699 C 0.62746 0.3678 0.09115 0.0
C700 C 0.64734 0.34195 0.12332 0.0
C701 C 0.60515 0.67664 0.16042 0.0
C702 C 0.63177 0.65952 0.19509 0.0
C703 C 0.57535 0.65253 0.12431 0.0
C704 C 0.57134 0.61033 0.12115 0.0
H705 H 0.60915 0.70934 0.15892 0.0
H706 H 0.55649 0.66742 0.09731 0.0
S707 S 0.63231 0.55067 0.20646 0.0
N708 N 0.65124 0.59816 0.22654 0.0
N709 N 0.59502 0.55213 0.15917 0.0
C710 C 0.59641 0.59256 0.15799 0.0
C711 C 0.62669 0.61734 0.19489 0.0
C712 C 0.32578 0.64914 0.14651 0.0
C713 C 0.34375 0.6804 0.18402 0.0
C714 C 0.35125 0.62856 0.11787 0.0
C715 C 0.39571 0.63923 0.12478 0.0
H716 H 0.29175 0.64123 0.13819 0.0
H717 H 0.33611 0.60518 0.08871 0.0
S718 S 0.45813 0.71853 0.21934 0.0
N719 N 0.40817 0.72036 0.2279 0.0
N720 N 0.45658 0.68225 0.17366 0.0
C721 C 0.414 0.66991 0.16323 0.0
C722 C 0.38787 0.69032 0.19308 0.0
C723 C 0.37292 0.3955 0.15178 0.0
C724 C 0.37952 0.37289 0.19902 0.0
C725 C 0.4063 0.42449 0.12823 0.0
C726 C 0.44811 0.43174 0.15027 0.0
H727 H 0.34176 0.38992 0.13178 0.0
H728 H 0.39938 0.44004 0.0909 0.0
S729 S 0.48149 0.38236 0.2765 0.0
N730 N 0.43003 0.36131 0.26955 0.0
N731 N 0.49344 0.41548 0.22491 0.0
C732 C 0.45476 0.41069 0.19934 0.0
C733 C 0.42033 0.38137 0.22379 0.0
C734 C 0.87305 0.67946 0.61746 0.0
C735 C 0.82942 0.66026 0.61934 0.0
C736 C 0.90336 0.65743 0.60582 0.0
C737 C 0.89118 0.61553 0.59425 0.0
H738 H 0.88419 0.7112 0.62861 0.0
H739 H 0.9367 0.67324 0.60713 0.0
S740 S 0.78022 0.55256 0.58539 0.0
N741 N 0.77514 0.59792 0.60387 0.0
N742 N 0.83181 0.55688 0.57898 0.0
C743 C 0.84735 0.59672 0.5917 0.0
C744 C 0.81657 0.61896 0.60511 0.0
C745 C 0.35232 0.8586 0.58975 0.0
C746 C 0.36968 0.83285 0.62438 0.0
C747 C 0.37694 0.89627 0.57261 0.0
C748 C 0.42014 0.90907 0.58802 0.0
H749 H 0.31834 0.85162 0.58105 0.0
H750 H 0.36138 0.91653 0.54977 0.0
S751 S 0.48261 0.84964 0.66958 0.0
N752 N 0.43363 0.82043 0.66826 0.0
N753 N 0.48093 0.89078 0.63276 0.0
C754 C 0.43921 0.8817 0.61702 0.0
C755 C 0.41368 0.84351 0.63588 0.0
C756 C 0.18252 0.33123 0.58039 0.0
C757 C 0.22385 0.34887 0.60077 0.0
C758 C 0.15517 0.35555 0.56219 0.0
C759 C 0.16848 0.3983 0.56349 0.0
H760 H 0.17022 0.29857 0.58225 0.0
H761 H 0.12305 0.34077 0.54889 0.0
S762 S 0.27679 0.4586 0.60472 0.0
N763 N 0.27847 0.41082 0.61545 0.0
N764 N 0.22839 0.45681 0.5803 0.0
C765 C 0.21117 0.41599 0.57965 0.0
C766 C 0.23853 0.3912 0.5985 0.0
C767 C 0.67602 0.1405 0.56841 0.0
C768 C 0.65374 0.16481 0.59713 0.0
C769 C 0.65674 0.09971 0.55416 0.0
C770 C 0.61422 0.08124 0.56762 0.0
H771 H 0.70933 0.15233 0.55918 0.0
H772 H 0.67573 0.08226 0.53356 0.0
S773 S 0.54125 0.13214 0.64084 0.0
N774 N 0.58594 0.1676 0.63586 0.0
N775 N 0.55045 0.09156 0.6113 0.0
C776 C 0.59139 0.10568 0.59519 0.0
C777 C 0.61083 0.14716 0.60907 0.0
C778 C 0.83337 0.41767 0.38547 0.0
C779 C 0.83766 0.37744 0.38879 0.0
C780 C 0.8657 0.44989 0.40513 0.0
C781 C 0.90401 0.44315 0.427 0.0
H782 H 0.805 0.42431 0.36688 0.0
H783 H 0.86091 0.48044 0.40261 0.0
S784 S 0.93097 0.34363 0.44571 0.0
N785 N 0.88277 0.33242 0.41705 0.0
N786 N 0.94424 0.3936 0.45253 0.0
C787 C 0.90879 0.40319 0.43091 0.0
C788 C 0.87534 0.37013 0.41226 0.0
C789 C 0.70194 0.8731 0.40065 0.0
C790 C 0.68209 0.8338 0.38123 0.0
C791 C 0.67811 0.90093 0.41509 0.0
C792 C 0.63356 0.89083 0.40926 0.0
H793 H 0.73635 0.88324 0.40162 0.0
H794 H 0.69485 0.93135 0.42733 0.0
S795 S 0.56588 0.79017 0.36803 0.0
N796 N 0.61506 0.78485 0.3633 0.0
N797 N 0.5702 0.83714 0.3895 0.0
C798 C 0.6132 0.85068 0.39397 0.0
C799 C 0.63747 0.82212 0.38029 0.0
C800 C 0.13225 0.65581 0.38864 0.0
C801 C 0.17256 0.65596 0.36765 0.0
C802 C 0.10215 0.61937 0.39933 0.0
C803 C 0.11078 0.58155 0.38837 0.0
H804 H 0.12331 0.68424 0.39496 0.0
H805 H 0.07156 0.62087 0.41534 0.0
S806 S 0.21306 0.56512 0.33828 0.0
N807 N 0.22062 0.61509 0.33993 0.0
N808 N 0.16414 0.54639 0.35994 0.0
C809 C 0.15164 0.58119 0.36948 0.0
C810 C 0.18254 0.61841 0.35939 0.0
C811 C 0.32543 0.15253 0.40605 0.0
C812 C 0.34613 0.19118 0.3859 0.0
C813 C 0.34822 0.12431 0.42299 0.0
C814 C 0.39293 0.13357 0.42152 0.0
H815 H 0.29096 0.143 0.4054 0.0
H816 H 0.33037 0.09461 0.43673 0.0
S817 S 0.46286 0.23223 0.3782 0.0
N818 N 0.41411 0.23856 0.36884 0.0
N819 N 0.45749 0.18567 0.40345 0.0
C820 C 0.41444 0.1732 0.40557 0.0
C821 C 0.39091 0.20202 0.3872 0.0
C822 C 0.70038 0.8476 0.58002 0.0
C823 C 0.67561 0.80998 0.59876 0.0
C824 C 0.68134 0.87895 0.56327 0.0
C825 C 0.63688 0.87348 0.5636 0.0
H826 H 0.73481 0.85401 0.5823 0.0
H827 H 0.70169 0.908 0.55124 0.0
S828 S 0.55775 0.77868 0.60148 0.0
N829 N 0.60433 0.76769 0.61182 0.0
N830 N 0.56842 0.82613 0.57845 0.0
C831 C 0.61164 0.83494 0.57793 0.0
C832 C 0.63106 0.8033 0.59597 0.0
C833 C 0.60837 0.16419 0.39211 0.0
C834 C 0.65314 0.17259 0.39307 0.0
C835 C 0.58368 0.12439 0.39975 0.0
C836 C 0.60309 0.09168 0.406 0.0
H837 H 0.5924 0.18824 0.38288 0.0
H838 H 0.5493 0.11897 0.39857 0.0
S839 S 0.71902 0.09794 0.4167 0.0
N840 N 0.71569 0.14532 0.40635 0.0
N841 N 0.66942 0.07054 0.41779 0.0
C842 C 0.64773 0.09992 0.40946 0.0
C843 C 0.67273 0.14044 0.40394 0.0
C844 C 0.80458 0.63263 0.40072 0.0
C845 C 0.82008 0.67501 0.39916 0.0
C846 C 0.83012 0.60744 0.42166 0.0
C847 C 0.87219 0.62367 0.44154 0.0
H848 H 0.77393 0.61871 0.38187 0.0
H849 H 0.81734 0.57484 0.41971 0.0
S850 S 0.92435 0.73347 0.45507 0.0
N851 N 0.87764 0.73254 0.42548 0.0
N852 N 0.92545 0.6854 0.46507 0.0
C853 C 0.88653 0.66621 0.4443 0.0
C854 C 0.86052 0.69177 0.42307 0.0
C855 C 0.33281 0.88787 0.41005 0.0
C856 C 0.34935 0.85753 0.38589 0.0
C857 C 0.35953 0.92356 0.43108 0.0
C858 C 0.40414 0.93075 0.4286 0.0
H859 H 0.29874 0.8851 0.40957 0.0
H860 H 0.34483 0.94638 0.44741 0.0
S861 S 0.46343 0.85882 0.37361 0.0
N862 N 0.41283 0.83537 0.36387 0.0
N863 N 0.46359 0.9024 0.40368 0.0
C864 C 0.42116 0.89944 0.4074 0.0
C865 C 0.39366 0.86282 0.38616 0.0
C866 C 0.14833 0.32702 0.3858 0.0
C867 C 0.19261 0.34091 0.379 0.0
C868 C 0.12323 0.3533 0.40071 0.0
C869 C 0.14112 0.39478 0.41037 0.0
H870 H 0.13229 0.29583 0.37626 0.0
H871 H 0.08911 0.34117 0.40254 0.0
S872 S 0.25633 0.44531 0.40913 0.0
N873 N 0.25413 0.39801 0.39056 0.0
N874 N 0.20674 0.44749 0.4202 0.0
C875 C 0.18583 0.40844 0.40948 0.0
C876 C 0.21164 0.38149 0.39352 0.0
C877 C 0.36396 0.17059 0.585 0.0
C878 C 0.35178 0.17185 0.64021 0.0
C879 C 0.38315 0.13997 0.56757 0.0
C880 C 0.38941 0.10905 0.60389 0.0
H881 H 0.36041 0.19427 0.55592 0.0
H882 H 0.39534 0.14196 0.52651 0.0
S883 S 0.35996 0.09745 0.75188 0.0
N884 N 0.34568 0.13893 0.73099 0.0
N885 N 0.38041 0.08092 0.69721 0.0
C886 C 0.37619 0.1095 0.65881 0.0
C887 C 0.35747 0.14091 0.67703 0.0
C888 C 0.87803 0.37168 0.59726 0.0
C889 C 0.84181 0.38038 0.62093 0.0
C890 C 0.91643 0.40176 0.59245 0.0
C891 C 0.92052 0.44166 0.6119 0.0
H892 H 0.8772 0.34114 0.58368 0.0
H893 H 0.9432 0.39366 0.57344 0.0
S894 S 0.83417 0.48135 0.6729 0.0
N895 N 0.81196 0.43313 0.66014 0.0
N896 N 0.88376 0.48867 0.65271 0.0
C897 C 0.88425 0.45092 0.63457 0.0
C898 C 0.84508 0.42069 0.63841 0.0
C899 C 0.13966 0.6373 0.63111 0.0
C900 C 0.18452 0.64483 0.62999 0.0
C901 C 0.11333 0.60358 0.60512 0.0
C902 C 0.13043 0.5758 0.57619 0.0
H903 H 0.12426 0.65727 0.65318 0.0
H904 H 0.07918 0.59938 0.60788 0.0
S905 S 0.24562 0.58166 0.5585 0.0
N906 N 0.24483 0.62179 0.59628 0.0
N907 N 0.19529 0.55836 0.54652 0.0
C908 C 0.17522 0.58313 0.57353 0.0
C909 C 0.20222 0.61756 0.60062 0.0
loop_
_geom_bond_atom_site_label_1
_geom_bond_atom_site_label_2
_geom_bond_distance
_geom_bond_site_symmetry_2
_ccdc_geom_bond_type
O0 Zn1 1.953 . S
O0 C16 1.225 . S
Zn1 O0 1.953 . S
Zn1 O2 1.949 . S
Zn1 O8 1.919 . S
Zn1 O13 1.924 . S
O2 Zn1 1.949 . S
O2 Zn3 1.923 . S
O2 Zn4 1.950 . S
O2 Zn5 1.945 . S
Zn3 O2 1.923 . S
Zn3 O6 1.933 . S
Zn3 O9 1.941 . S
Zn3 O10 1.965 . S
Zn4 O2 1.950 . S
Zn4 O11 1.938 . S
Zn4 O12 1.906 . S
Zn4 O22 1.953 . S
Zn5 O2 1.945 . S
Zn5 O7 1.932 . S
Zn5 O14 1.977 . S
Zn5 O15 1.910 . S
O6 Zn3 1.933 . S
O6 C17 1.226 . S
O7 Zn5 1.932 . S
O7 C17 1.307 . S
O8 Zn1 1.919 . S
O8 C19 1.253 . S
O9 Zn3 1.941 . S
O9 C19 1.283 . S
O10 Zn3 1.965 . S
O10 C18 1.303 . S
O11 Zn4 1.938 . S
O11 C18 1.247 . S
O12 Zn4 1.906 . S
O12 C20 1.304 . S
O13 Zn1 1.924 . S
O13 C21 1.311 . S
O14 Zn5 1.977 . S
O14 C20 1.272 . S
O15 Zn5 1.910 . S
O15 C21 1.231 . S
C16 O0 1.225 . S
C16 O22 1.298 . S
C17 O6 1.226 . S
C17 O7 1.307 . S
C18 O10 1.303 . S
C18 O11 1.247 . S
C19 O8 1.253 . S
C19 O9 1.283 . S
C20 O12 1.304 . S
C20 O14 1.272 . S
C21 O13 1.311 . S
C21 O15 1.231 . S
O22 Zn4 1.953 . S
O22 C16 1.298 . S
O23 Zn24 1.953 . S
O23 C39 1.225 . S
Zn24 O23 1.953 . S
Zn24 O25 1.949 . S
Zn24 O31 1.919 . S
Zn24 O36 1.924 . S
O25 Zn24 1.949 . S
O25 Zn26 1.923 . S
O25 Zn27 1.950 . S
O25 Zn28 1.945 . S
Zn26 O25 1.923 . S
Zn26 O29 1.933 . S
Zn26 O32 1.941 . S
Zn26 O33 1.965 . S
Zn27 O25 1.950 . S
Zn27 O34 1.938 . S
Zn27 O35 1.906 . S
Zn27 O45 1.953 . S
Zn28 O25 1.945 . S
Zn28 O30 1.932 . S
Zn28 O37 1.977 . S
Zn28 O38 1.910 . S
O29 Zn26 1.933 . S
O29 C40 1.226 . S
O30 Zn28 1.932 . S
O30 C40 1.307 . S
O31 Zn24 1.919 . S
O31 C42 1.253 . S
O32 Zn26 1.941 . S
O32 C42 1.283 . S
O33 Zn26 1.965 . S
O33 C41 1.303 . S
O34 Zn27 1.938 . S
O34 C41 1.247 . S
O35 Zn27 1.906 . S
O35 C43 1.304 . S
O36 Zn24 1.924 . S
O36 C44 1.311 . S
O37 Zn28 1.977 . S
O37 C43 1.272 . S
O38 Zn28 1.910 . S
O38 C44 1.231 . S
C39 O23 1.225 . S
C39 O45 1.298 . S
C40 O29 1.226 . S
C40 O30 1.307 . S
C41 O33 1.303 . S
C41 O34 1.247 . S
C42 O31 1.253 . S
C42 O32 1.283 . S
C43 O35 1.304 . S
C43 O37 1.272 . S
C44 O36 1.311 . S
C44 O38 1.231 . S
O45 Zn27 1.953 . S
O45 C39 1.298 . S
O46 Zn47 1.953 . S
O46 C62 1.225 . S
Zn47 O46 1.953 . S
Zn47 O48 1.949 . S
Zn47 O54 1.919 . S
Zn47 O59 1.924 . S
O48 Zn47 1.949 . S
O48 Zn49 1.923 . S
O48 Zn50 1.950 . S
O48 Zn51 1.945 . S
Zn49 O48 1.923 . S
Zn49 O52 1.933 . S
Zn49 O55 1.941 . S
Zn49 O56 1.965 . S
Zn50 O48 1.950 . S
Zn50 O57 1.938 . S
Zn50 O58 1.906 . S
Zn50 O68 1.953 . S
Zn51 O48 1.945 . S
Zn51 O53 1.932 . S
Zn51 O60 1.977 . S
Zn51 O61 1.910 . S
O52 Zn49 1.933 . S
O52 C63 1.226 . S
O53 Zn51 1.932 . S
O53 C63 1.307 . S
O54 Zn47 1.919 . S
O54 C65 1.253 . S
O55 Zn49 1.941 . S
O55 C65 1.283 . S
O56 Zn49 1.965 . S
O56 C64 1.303 . S
O57 Zn50 1.938 . S
O57 C64 1.247 . S
O58 Zn50 1.906 . S
O58 C66 1.304 . S
O59 Zn47 1.924 . S
O59 C67 1.311 . S
O60 Zn51 1.977 . S
O60 C66 1.272 . S
O61 Zn51 1.910 . S
O61 C67 1.231 . S
C62 O46 1.225 . S
C62 O68 1.298 . S
C63 O52 1.226 . S
C63 O53 1.307 . S
C64 O56 1.303 . S
C64 O57 1.247 . S
C65 O54 1.253 . S
C65 O55 1.283 . S
C66 O58 1.304 . S
C66 O60 1.272 . S
C67 O59 1.311 . S
C67 O61 1.231 . S
O68 Zn50 1.953 . S
O68 C62 1.298 . S
O69 Zn70 1.953 . S
O69 C85 1.225 . S
Zn70 O69 1.953 . S
Zn70 O71 1.949 . S
Zn70 O77 1.919 . S
Zn70 O82 1.924 . S
O71 Zn70 1.949 . S
O71 Zn72 1.923 . S
O71 Zn73 1.950 . S
O71 Zn74 1.945 . S
Zn72 O71 1.923 . S
Zn72 O75 1.933 . S
Zn72 O78 1.941 . S
Zn72 O79 1.965 . S
Zn73 O71 1.950 . S
Zn73 O80 1.938 . S
Zn73 O81 1.906 . S
Zn73 O91 1.953 . S
Zn74 O71 1.945 . S
Zn74 O76 1.932 . S
Zn74 O83 1.977 . S
Zn74 O84 1.910 . S
O75 Zn72 1.933 . S
O75 C86 1.226 . S
O76 Zn74 1.932 . S
O76 C86 1.307 . S
O77 Zn70 1.919 . S
O77 C88 1.253 . S
O78 Zn72 1.941 . S
O78 C88 1.283 . S
O79 Zn72 1.965 . S
O79 C87 1.303 . S
O80 Zn73 1.938 . S
O80 C87 1.247 . S
O81 Zn73 1.906 . S
O81 C89 1.304 . S
O82 Zn70 1.924 . S
O82 C90 1.311 . S
O83 Zn74 1.977 . S
O83 C89 1.272 . S
O84 Zn74 1.910 . S
O84 C90 1.231 . S
C85 O69 1.225 . S
C85 O91 1.298 . S
C86 O75 1.226 . S
C86 O76 1.307 . S
C87 O79 1.303 . S
C87 O80 1.247 . S
C88 O77 1.253 . S
C88 O78 1.283 . S
C89 O81 1.304 . S
C89 O83 1.272 . S
C90 O82 1.311 . S
C90 O84 1.231 . S
O91 Zn73 1.953 . S
O91 C85 1.298 . S
O92 Zn93 1.953 . S
O92 C108 1.225 . S
Zn93 O92 1.953 . S
Zn93 O94 1.949 . S
Zn93 O100 1.919 . S
Zn93 O105 1.924 . S
O94 Zn93 1.949 . S
O94 Zn95 1.923 . S
O94 Zn96 1.950 . S
O94 Zn97 1.945 . S
Zn95 O94 1.923 . S
Zn95 O98 1.933 . S
Zn95 O101 1.941 . S
Zn95 O102 1.965 . S
Zn96 O94 1.950 . S
Zn96 O103 1.938 . S
Zn96 O104 1.906 . S
Zn96 O114 1.953 . S
Zn97 O94 1.945 . S
Zn97 O99 1.932 . S
Zn97 O106 1.977 . S
Zn97 O107 1.910 . S
O98 Zn95 1.933 . S
O98 C109 1.226 . S
O99 Zn97 1.932 . S
O99 C109 1.307 . S
O100 Zn93 1.919 . S
O100 C111 1.253 . S
O101 Zn95 1.941 . S
O101 C111 1.283 . S
O102 Zn95 1.965 . S
O102 C110 1.303 . S
O103 Zn96 1.938 . S
O103 C110 1.247 . S
O104 Zn96 1.906 . S
O104 C112 1.304 . S
O105 Zn93 1.924 . S
O105 C113 1.311 . S
O106 Zn97 1.977 . S
O106 C112 1.272 . S
O107 Zn97 1.910 . S
O107 C113 1.231 . S
C108 O92 1.225 . S
C108 O114 1.298 . S
C109 O98 1.226 . S
C109 O99 1.307 . S
C110 O102 1.303 . S
C110 O103 1.247 . S
C111 O100 1.253 . S
C111 O101 1.283 . S
C112 O104 1.304 . S
C112 O106 1.272 . S
C113 O105 1.311 . S
C113 O107 1.231 . S
O114 Zn96 1.953 . S
O114 C108 1.298 . S
O115 Zn116 1.953 . S
O115 C131 1.225 . S
Zn116 O115 1.953 . S
Zn116 O117 1.949 . S
Zn116 O123 1.919 . S
Zn116 O128 1.924 . S
O117 Zn116 1.949 . S
O117 Zn118 1.923 . S
O117 Zn119 1.950 . S
O117 Zn120 1.945 . S
Zn118 O117 1.923 . S
Zn118 O121 1.933 . S
Zn118 O124 1.941 . S
Zn118 O125 1.965 . S
Zn119 O117 1.950 . S
Zn119 O126 1.938 . S
Zn119 O127 1.906 . S
Zn119 O137 1.953 . S
Zn120 O117 1.945 . S
Zn120 O122 1.932 . S
Zn120 O129 1.977 . S
Zn120 O130 1.910 . S
O121 Zn118 1.933 . S
O121 C132 1.226 . S
O122 Zn120 1.932 . S
O122 C132 1.307 . S
O123 Zn116 1.919 . S
O123 C134 1.253 . S
O124 Zn118 1.941 . S
O124 C134 1.283 . S
O125 Zn118 1.965 . S
O125 C133 1.303 . S
O126 Zn119 1.938 . S
O126 C133 1.247 . S
O127 Zn119 1.906 . S
O127 C135 1.304 . S
O128 Zn116 1.924 . S
O128 C136 1.311 . S
O129 Zn120 1.977 . S
O129 C135 1.272 . S
O130 Zn120 1.910 . S
O130 C136 1.231 . S
C131 O115 1.225 . S
C131 O137 1.298 . S
C132 O121 1.226 . S
C132 O122 1.307 . S
C133 O125 1.303 . S
C133 O126 1.247 . S
C134 O123 1.253 . S
C134 O124 1.283 . S
C135 O127 1.304 . S
C135 O129 1.272 . S
C136 O128 1.311 . S
C136 O130 1.231 . S
O137 Zn119 1.953 . S
O137 C131 1.298 . S
O138 Zn139 1.953 . S
O138 C154 1.225 . S
Zn139 O138 1.953 . S
Zn139 O140 1.949 . S
Zn139 O146 1.919 . S
Zn139 O151 1.924 . S
O140 Zn139 1.949 . S
O140 Zn141 1.923 . S
O140 Zn142 1.950 . S
O140 Zn143 1.945 . S
Zn141 O140 1.923 . S
Zn141 O144 1.933 . S
Zn141 O147 1.941 . S
Zn141 O148 1.965 . S
Zn142 O140 1.950 . S
Zn142 O149 1.938 . S
Zn142 O150 1.906 . S
Zn142 O160 1.953 . S
Zn143 O140 1.945 . S
Zn143 O145 1.932 . S
Zn143 O152 1.977 . S
Zn143 O153 1.910 . S
O144 Zn141 1.933 . S
O144 C155 1.226 . S
O145 Zn143 1.932 . S
O145 C155 1.307 . S
O146 Zn139 1.919 . S
O146 C157 1.253 . S
O147 Zn141 1.941 . S
O147 C157 1.283 . S
O148 Zn141 1.965 . S
O148 C156 1.303 . S
O149 Zn142 1.938 . S
O149 C156 1.247 . S
O150 Zn142 1.906 . S
O150 C158 1.304 . S
O151 Zn139 1.924 . S
O151 C159 1.311 . S
O152 Zn143 1.977 . S
O152 C158 1.272 . S
O153 Zn143 1.910 . S
O153 C159 1.231 . S
C154 O138 1.225 . S
C154 O160 1.298 . S
C155 O144 1.226 . S
C155 O145 1.307 . S
C156 O148 1.303 . S
C156 O149 1.247 . S
C157 O146 1.253 . S
C157 O147 1.283 . S
C158 O150 1.304 . S
C158 O152 1.272 . S
C159 O151 1.311 . S
C159 O153 1.231 . S
O160 Zn142 1.953 . S
O160 C154 1.298 . S
O161 Zn162 1.953 . S
O161 C177 1.225 . S
Zn162 O161 1.953 . S
Zn162 O163 1.949 . S
Zn162 O169 1.919 . S
Zn162 O174 1.924 . S
O163 Zn162 1.949 . S
O163 Zn164 1.923 . S
O163 Zn165 1.950 . S
O163 Zn166 1.945 . S
Zn164 O163 1.923 . S
Zn164 O167 1.933 . S
Zn164 O170 1.941 . S
Zn164 O171 1.965 . S
Zn165 O163 1.950 . S
Zn165 O172 1.938 . S
Zn165 O173 1.906 . S
Zn165 O183 1.953 . S
Zn166 O163 1.945 . S
Zn166 O168 1.932 . S
Zn166 O175 1.977 . S
Zn166 O176 1.910 . S
O167 Zn164 1.933 . S
O167 C178 1.226 . S
O168 Zn166 1.932 . S
O168 C178 1.307 . S
O169 Zn162 1.919 . S
O169 C180 1.253 . S
O170 Zn164 1.941 . S
O170 C180 1.283 . S
O171 Zn164 1.965 . S
O171 C179 1.303 . S
O172 Zn165 1.938 . S
O172 C179 1.247 . S
O173 Zn165 1.906 . S
O173 C181 1.304 . S
O174 Zn162 1.924 . S
O174 C182 1.311 . S
O175 Zn166 1.977 . S
O175 C181 1.272 . S
O176 Zn166 1.910 . S
O176 C182 1.231 . S
C177 O161 1.225 . S
C177 O183 1.298 . S
C178 O167 1.226 . S
C178 O168 1.307 . S
C179 O171 1.303 . S
C179 O172 1.247 . S
C180 O169 1.253 . S
C180 O170 1.283 . S
C181 O173 1.304 . S
C181 O175 1.272 . S
C182 O174 1.311 . S
C182 O176 1.231 . S
O183 Zn165 1.953 . S
O183 C177 1.298 . S
Co184 O187 2.042 . S
Co184 O194 2.264 . S
Co184 O213 2.286 . S
Co184 O214 2.069 . S
Co184 O216 2.015 1_455 S
Co185 O187 2.122 . S
Co185 O193 2.073 . S
Co185 O194 2.327 . S
Co185 O195 1.976 1_455 S
Co186 O187 2.087 1_545 S
Co186 O189 2.087 1_455 S
Co186 O196 2.111 1_445 S
Co186 O197 2.143 . S
Co186 O201 2.111 . S
Co186 O215 2.143 1_445 S
O187 Co184 2.042 . S
O187 Co185 2.122 . S
O187 Co186 2.087 1_565 S
O187 H188 0.980 . S
H188 O187 0.980 . S
O189 Co186 2.087 1_655 S
O189 Co190 2.042 . S
O189 Co191 2.122 . S
O189 H192 0.980 . S
Co190 O189 2.042 . S
Co190 O198 2.286 . S
Co190 O199 2.069 . S
Co190 O200 2.015 1_655 S
Co190 O203 2.264 . S
Co191 O189 2.122 . S
Co191 O202 1.976 1_655 S
Co191 O203 2.327 . S
Co191 O204 2.073 . S
H192 O189 0.980 . S
O193 Co185 2.073 . S
O193 C208 1.245 . S
O194 Co184 2.264 . S
O194 Co185 2.327 . S
O194 C208 1.257 . S
O195 Co185 1.976 1_655 S
O195 C207 1.251 . S
O196 Co186 2.111 1_665 S
O196 C207 1.274 . S
O197 Co186 2.143 . S
O197 C210 1.246 . S
O198 Co190 2.286 . S
O198 C209 1.259 . S
O199 Co190 2.069 . S
O199 C209 1.289 . S
O200 Co190 2.015 1_455 S
O200 C210 1.257 . S
O201 Co186 2.111 . S
O201 C211 1.274 . S
O202 Co191 1.976 1_455 S
O202 C211 1.251 . S
O203 Co190 2.264 . S
O203 Co191 2.327 . S
O203 C212 1.257 . S
O204 Co191 2.073 . S
O204 C212 1.245 . S
C205 O213 1.259 . S
C205 O214 1.289 . S
C206 O215 1.246 . S
C206 O216 1.257 . S
C207 O195 1.251 . S
C207 O196 1.274 . S
C208 O193 1.245 . S
C208 O194 1.257 . S
C209 O198 1.259 . S
C209 O199 1.289 . S
C210 O197 1.246 . S
C210 O200 1.257 . S
C211 O201 1.274 . S
C211 O202 1.251 . S
C212 O203 1.257 . S
C212 O204 1.245 . S
O213 Co184 2.286 . S
O213 C205 1.259 . S
O214 Co184 2.069 . S
O214 C205 1.289 . S
O215 Co186 2.143 1_665 S
O215 C206 1.246 . S
O216 Co184 2.015 1_655 S
O216 C206 1.257 . S
Co217 O220 2.042 1_556 S
Co217 O227 2.264 1_556 S
Co217 O246 2.286 . S
Co217 O247 2.069 . S
Co217 O249 2.015 . S
Co218 O220 2.122 . S
Co218 O226 2.073 . S
Co218 O227 2.327 . S
Co218 O228 1.976 . S
Co219 O220 2.087 1_545 S
Co219 O222 2.087 1_554 S
Co219 O229 2.111 1_545 S
Co219 O230 2.143 . S
Co219 O234 2.111 1_554 S
Co219 O248 2.143 1_544 S
O220 Co217 2.042 1_554 S
O220 Co218 2.122 . S
O220 Co219 2.087 1_565 S
O220 H221 0.980 . S
H221 O220 0.980 . S
O222 Co219 2.087 1_556 S
O222 Co223 2.042 1_556 S
O222 Co224 2.122 . S
O222 H225 0.980 . S
Co223 O222 2.042 1_554 S
Co223 O231 2.286 . S
Co223 O232 2.069 . S
Co223 O233 2.015 . S
Co223 O236 2.264 1_554 S
Co224 O222 2.122 . S
Co224 O235 1.976 . S
Co224 O236 2.327 . S
Co224 O237 2.073 . S
H225 O222 0.980 . S
O226 Co218 2.073 . S
O226 C241 1.245 . S
O227 Co217 2.264 1_554 S
O227 Co218 2.327 . S
O227 C241 1.257 . S
O228 Co218 1.976 . S
O228 C240 1.251 . S
O229 Co219 2.111 1_565 S
O229 C240 1.274 . S
O230 Co219 2.143 . S
O230 C243 1.246 . S
O231 Co223 2.286 . S
O231 C242 1.259 . S
O232 Co223 2.069 . S
O232 C242 1.289 . S
O233 Co223 2.015 . S
O233 C243 1.257 . S
O234 Co219 2.111 1_556 S
O234 C244 1.274 . S
O235 Co224 1.976 . S
O235 C244 1.251 . S
O236 Co223 2.264 1_556 S
O236 Co224 2.327 . S
O236 C245 1.257 . S
O237 Co224 2.073 . S
O237 C245 1.245 . S
C238 O246 1.259 . S
C238 O247 1.289 . S
C239 O248 1.246 . S
C239 O249 1.257 . S
C240 O228 1.251 . S
C240 O229 1.274 . S
C241 O226 1.245 . S
C241 O227 1.257 . S
C242 O231 1.259 . S
C242 O232 1.289 . S
C243 O230 1.246 . S
C243 O233 1.257 . S
C244 O234 1.274 . S
C244 O235 1.251 . S
C245 O236 1.257 . S
C245 O237 1.245 . S
O246 Co217 2.286 . S
O246 C238 1.259 . S
O247 Co217 2.069 . S
O247 C238 1.289 . S
O248 Co219 2.143 1_566 S
O248 C239 1.246 . S
O249 Co217 2.015 . S
O249 C239 1.257 . S
Co250 O253 2.042 1_556 S
Co250 O260 2.264 1_556 S
Co250 O279 2.286 . S
Co250 O280 2.069 . S
Co250 O282 2.015 1_455 S
Co251 O253 2.122 . S
Co251 O259 2.073 . S
Co251 O260 2.327 . S
Co251 O261 1.976 1_455 S
Co252 O253 2.087 . S
Co252 O255 2.087 1_454 S
Co252 O262 2.111 1_455 S
Co252 O263 2.143 . S
Co252 O267 2.111 1_554 S
Co252 O281 2.143 1_454 S
O253 Co250 2.042 1_554 S
O253 Co251 2.122 . S
O253 Co252 2.087 . S
O253 H254 0.980 . S
H254 O253 0.980 . S
O255 Co252 2.087 1_656 S
O255 Co256 2.042 1_556 S
O255 Co257 2.122 . S
O255 H258 0.980 . S
Co256 O255 2.042 1_554 S
Co256 O264 2.286 . S
Co256 O265 2.069 . S
Co256 O266 2.015 1_655 S
Co256 O269 2.264 1_554 S
Co257 O255 2.122 . S
Co257 O268 1.976 1_655 S
Co257 O269 2.327 . S
Co257 O270 2.073 . S
H258 O255 0.980 . S
O259 Co251 2.073 . S
O259 C274 1.245 . S
O260 Co250 2.264 1_554 S
O260 Co251 2.327 . S
O260 C274 1.257 . S
O261 Co251 1.976 1_655 S
O261 C273 1.251 . S
O262 Co252 2.111 1_655 S
O262 C273 1.274 . S
O263 Co252 2.143 . S
O263 C276 1.246 . S
O264 Co256 2.286 . S
O264 C275 1.259 . S
O265 Co256 2.069 . S
O265 C275 1.289 . S
O266 Co256 2.015 1_455 S
O266 C276 1.257 . S
O267 Co252 2.111 1_556 S
O267 C277 1.274 . S
O268 Co257 1.976 1_455 S
O268 C277 1.251 . S
O269 Co256 2.264 1_556 S
O269 Co257 2.327 . S
O269 C278 1.257 . S
O270 Co257 2.073 . S
O270 C278 1.245 . S
C271 O279 1.259 . S
C271 O280 1.289 . S
C272 O281 1.246 . S
C272 O282 1.257 . S
C273 O261 1.251 . S
C273 O262 1.274 . S
C274 O259 1.245 . S
C274 O260 1.257 . S
C275 O264 1.259 . S
C275 O265 1.289 . S
C276 O263 1.246 . S
C276 O266 1.257 . S
C277 O267 1.274 . S
C277 O268 1.251 . S
C278 O269 1.257 . S
C278 O270 1.245 . S
O279 Co250 2.286 . S
O279 C271 1.259 . S
O280 Co250 2.069 . S
O280 C271 1.289 . S
O281 Co252 2.143 1_656 S
O281 C272 1.246 . S
O282 Co250 2.015 1_655 S
O282 C272 1.257 . S
Co283 O286 2.042 1_556 S
Co283 O293 2.264 1_556 S
Co283 O312 2.286 . S
Co283 O313 2.069 . S
Co283 O315 2.015 . S
Co284 O286 2.122 . S
Co284 O292 2.073 . S
Co284 O293 2.327 . S
Co284 O294 1.976 . S
Co285 O286 2.087 . S
Co285 O288 2.087 1_554 S
Co285 O295 2.111 . S
Co285 O296 2.143 . S
Co285 O300 2.111 1_554 S
Co285 O314 2.143 1_554 S
O286 Co283 2.042 1_554 S
O286 Co284 2.122 . S
O286 Co285 2.087 . S
O286 H287 0.980 . S
H287 O286 0.980 . S
O288 Co285 2.087 1_556 S
O288 Co289 2.042 1_556 S
O288 Co290 2.122 . S
O288 H291 0.980 . S
Co289 O288 2.042 1_554 S
Co289 O297 2.286 . S
Co289 O298 2.069 . S
Co289 O299 2.015 . S
Co289 O302 2.264 1_554 S
Co290 O288 2.122 . S
Co290 O301 1.976 . S
Co290 O302 2.327 . S
Co290 O303 2.073 . S
H291 O288 0.980 . S
O292 Co284 2.073 . S
O292 C307 1.245 . S
O293 Co283 2.264 1_554 S
O293 Co284 2.327 . S
O293 C307 1.257 . S
O294 Co284 1.976 . S
O294 C306 1.251 . S
O295 Co285 2.111 . S
O295 C306 1.274 . S
O296 Co285 2.143 . S
O296 C309 1.246 . S
O297 Co289 2.286 . S
O297 C308 1.259 . S
O298 Co289 2.069 . S
O298 C308 1.289 . S
O299 Co289 2.015 . S
O299 C309 1.257 . S
O300 Co285 2.111 1_556 S
O300 C310 1.274 . S
O301 Co290 1.976 . S
O301 C310 1.251 . S
O302 Co289 2.264 1_556 S
O302 Co290 2.327 . S
O302 C311 1.257 . S
O303 Co290 2.073 . S
O303 C311 1.245 . S
C304 O312 1.259 . S
C304 O313 1.289 . S
C305 O314 1.246 . S
C305 O315 1.257 . S
C306 O294 1.251 . S
C306 O295 1.274 . S
C307 O292 1.245 . S
C307 O293 1.257 . S
C308 O297 1.259 . S
C308 O298 1.289 . S
C309 O296 1.246 . S
C309 O299 1.257 . S
C310 O300 1.274 . S
C310 O301 1.251 . S
C311 O302 1.257 . S
C311 O303 1.245 . S
O312 Co283 2.286 . S
O312 C304 1.259 . S
O313 Co283 2.069 . S
O313 C304 1.289 . S
O314 Co285 2.143 1_556 S
O314 C305 1.246 . S
O315 Co283 2.015 . S
O315 C305 1.257 . S
Co316 O319 2.042 . S
Co316 O326 2.264 . S
Co316 O345 2.286 . S
Co316 O346 2.069 . S
Co316 O348 2.015 . S
Co317 O319 2.122 . S
Co317 O325 2.073 . S
Co317 O326 2.327 . S
Co317 O327 1.976 . S
Co318 O319 2.087 . S
Co318 O321 2.087 1_455 S
Co318 O328 2.111 . S
Co318 O329 2.143 1_455 S
Co318 O333 2.111 1_455 S
Co318 O347 2.143 . S
O319 Co316 2.042 . S
O319 Co317 2.122 . S
O319 Co318 2.087 . S
O319 H320 0.980 . S
H320 O319 0.980 . S
O321 Co318 2.087 1_655 S
O321 Co322 2.042 . S
O321 Co323 2.122 . S
O321 H324 0.980 . S
Co322 O321 2.042 . S
Co322 O330 2.286 . S
Co322 O331 2.069 . S
Co322 O332 2.015 . S
Co322 O335 2.264 . S
Co323 O321 2.122 . S
Co323 O334 1.976 . S
Co323 O335 2.327 . S
Co323 O336 2.073 . S
H324 O321 0.980 . S
O325 Co317 2.073 . S
O325 C340 1.245 . S
O326 Co316 2.264 . S
O326 Co317 2.327 . S
O326 C340 1.257 . S
O327 Co317 1.976 . S
O327 C339 1.251 . S
O328 Co318 2.111 . S
O328 C339 1.274 . S
O329 Co318 2.143 1_655 S
O329 C342 1.246 . S
O330 Co322 2.286 . S
O330 C341 1.259 . S
O331 Co322 2.069 . S
O331 C341 1.289 . S
O332 Co322 2.015 . S
O332 C342 1.257 . S
O333 Co318 2.111 1_655 S
O333 C343 1.274 . S
O334 Co323 1.976 . S
O334 C343 1.251 . S
O335 Co322 2.264 . S
O335 Co323 2.327 . S
O335 C344 1.257 . S
O336 Co323 2.073 . S
O336 C344 1.245 . S
C337 O345 1.259 . S
C337 O346 1.289 . S
C338 O347 1.246 . S
C338 O348 1.257 . S
C339 O327 1.251 . S
C339 O328 1.274 . S
C340 O325 1.245 . S
C340 O326 1.257 . S
C341 O330 1.259 . S
C341 O331 1.289 . S
C342 O329 1.246 . S
C342 O332 1.257 . S
C343 O333 1.274 . S
C343 O334 1.251 . S
C344 O335 1.257 . S
C344 O336 1.245 . S
O345 Co316 2.286 . S
O345 C337 1.259 . S
O346 Co316 2.069 . S
O346 C337 1.289 . S
O347 Co318 2.143 . S
O347 C338 1.246 . S
O348 Co316 2.015 . S
O348 C338 1.257 . S
Co349 O352 2.042 . S
Co349 O359 2.264 . S
Co349 O378 2.286 . S
Co349 O379 2.069 . S
Co349 O381 2.015 1_565 S
Co350 O352 2.122 . S
Co350 O358 2.073 . S
Co350 O359 2.327 . S
Co350 O360 1.976 1_565 S
Co351 O352 2.087 1_545 S
Co351 O354 2.087 . S
Co351 O361 2.111 . S
Co351 O362 2.143 1_545 S
Co351 O366 2.111 1_545 S
Co351 O380 2.143 . S
O352 Co349 2.042 . S
O352 Co350 2.122 . S
O352 Co351 2.087 1_565 S
O352 H353 0.980 . S
H353 O352 0.980 . S
O354 Co351 2.087 . S
O354 Co355 2.042 . S
O354 Co356 2.122 . S
O354 H357 0.980 . S
Co355 O354 2.042 . S
Co355 O363 2.286 . S
Co355 O364 2.069 . S
Co355 O365 2.015 1_545 S
Co355 O368 2.264 . S
Co356 O354 2.122 . S
Co356 O367 1.976 1_545 S
Co356 O368 2.327 . S
Co356 O369 2.073 . S
H357 O354 0.980 . S
O358 Co350 2.073 . S
O358 C373 1.245 . S
O359 Co349 2.264 . S
O359 Co350 2.327 . S
O359 C373 1.257 . S
O360 Co350 1.976 1_545 S
O360 C372 1.251 . S
O361 Co351 2.111 . S
O361 C372 1.274 . S
O362 Co351 2.143 1_565 S
O362 C375 1.246 . S
O363 Co355 2.286 . S
O363 C374 1.259 . S
O364 Co355 2.069 . S
O364 C374 1.289 . S
O365 Co355 2.015 1_565 S
O365 C375 1.257 . S
O366 Co351 2.111 1_565 S
O366 C376 1.274 . S
O367 Co356 1.976 1_565 S
O367 C376 1.251 . S
O368 Co355 2.264 . S
O368 Co356 2.327 . S
O368 C377 1.257 . S
O369 Co356 2.073 . S
O369 C377 1.245 . S
C370 O378 1.259 . S
C370 O379 1.289 . S
C371 O380 1.246 . S
C371 O381 1.257 . S
C372 O360 1.251 . S
C372 O361 1.274 . S
C373 O358 1.245 . S
C373 O359 1.257 . S
C374 O363 1.259 . S
C374 O364 1.289 . S
C375 O362 1.246 . S
C375 O365 1.257 . S
C376 O366 1.274 . S
C376 O367 1.251 . S
C377 O368 1.257 . S
C377 O369 1.245 . S
O378 Co349 2.286 . S
O378 C370 1.259 . S
O379 Co349 2.069 . S
O379 C370 1.289 . S
O380 Co351 2.143 . S
O380 C371 1.246 . S
O381 Co349 2.015 1_545 S
O381 C371 1.257 . S
C382 C383 1.369 . S
C382 C384 1.419 . S
C382 H386 0.930 . S
C383 C382 1.369 . S
C383 C392 1.429 . S
C384 C382 1.419 . S
C384 C385 1.363 . S
C384 H387 0.929 . S
C385 C384 1.363 . S
C385 C391 1.428 . S
H386 C382 0.930 . S
H387 C384 0.929 . S
S388 N389 1.613 . S
S388 N390 1.610 . S
N389 S388 1.613 . S
N389 C392 1.350 . S
N390 S388 1.610 . S
N390 C391 1.351 . S
C391 C385 1.428 . S
C391 N390 1.351 . S
C391 C392 1.434 . S
C392 C383 1.429 . S
C392 N389 1.350 . S
C392 C391 1.434 . S
C393 C394 1.369 . S
C393 C395 1.419 . S
C393 H397 0.930 . S
C394 C393 1.369 . S
C394 C403 1.429 . S
C395 C393 1.419 . S
C395 C396 1.363 . S
C395 H398 0.929 . S
C396 C395 1.363 . S
C396 C402 1.428 . S
H397 C393 0.930 . S
H398 C395 0.929 . S
S399 N400 1.613 . S
S399 N401 1.610 . S
N400 S399 1.613 . S
N400 C403 1.350 . S
N401 S399 1.610 . S
N401 C402 1.351 . S
C402 C396 1.428 . S
C402 N401 1.351 . S
C402 C403 1.434 . S
C403 C394 1.429 . S
C403 N400 1.350 . S
C403 C402 1.434 . S
C404 C405 1.369 . S
C404 C406 1.419 . S
C404 H408 0.930 . S
C405 C404 1.369 . S
C405 C414 1.429 . S
C406 C404 1.419 . S
C406 C407 1.363 . S
C406 H409 0.929 . S
C407 C406 1.363 . S
C407 C413 1.428 . S
H408 C404 0.930 . S
H409 C406 0.929 . S
S410 N411 1.613 . S
S410 N412 1.610 . S
N411 S410 1.613 . S
N411 C414 1.350 . S
N412 S410 1.610 . S
N412 C413 1.351 . S
C413 C407 1.428 . S
C413 N412 1.351 . S
C413 C414 1.434 . S
C414 C405 1.429 . S
C414 N411 1.350 . S
C414 C413 1.434 . S
C415 C416 1.369 . S
C415 C417 1.419 . S
C415 H419 0.930 . S
C416 C415 1.369 . S
C416 C425 1.429 . S
C417 C415 1.419 . S
C417 C418 1.363 . S
C417 H420 0.929 . S
C418 C417 1.363 . S
C418 C424 1.428 . S
H419 C415 0.930 . S
H420 C417 0.929 . S
S421 N422 1.613 . S
S421 N423 1.610 . S
N422 S421 1.613 . S
N422 C425 1.350 . S
N423 S421 1.610 . S
N423 C424 1.351 . S
C424 C418 1.428 . S
C424 N423 1.351 . S
C424 C425 1.434 . S
C425 C416 1.429 . S
C425 N422 1.350 . S
C425 C424 1.434 . S
C426 C427 1.369 . S
C426 C428 1.419 . S
C426 H430 0.930 . S
C427 C426 1.369 . S
C427 C436 1.429 . S
C428 C426 1.419 . S
C428 C429 1.363 . S
C428 H431 0.929 . S
C429 C428 1.363 . S
C429 C435 1.428 . S
H430 C426 0.930 . S
H431 C428 0.929 . S
S432 N433 1.613 . S
S432 N434 1.610 . S
N433 S432 1.613 . S
N433 C436 1.350 . S
N434 S432 1.610 . S
N434 C435 1.351 . S
C435 C429 1.428 . S
C435 N434 1.351 . S
C435 C436 1.434 . S
C436 C427 1.429 . S
C436 N433 1.350 . S
C436 C435 1.434 . S
C437 C438 1.369 . S
C437 C439 1.419 . S
C437 H441 0.930 . S
C438 C437 1.369 . S
C438 C447 1.429 . S
C439 C437 1.419 . S
C439 C440 1.363 . S
C439 H442 0.929 . S
C440 C439 1.363 . S
C440 C446 1.428 . S
H441 C437 0.930 . S
H442 C439 0.929 . S
S443 N444 1.613 . S
S443 N445 1.610 . S
N444 S443 1.613 . S
N444 C447 1.350 . S
N445 S443 1.610 . S
N445 C446 1.351 . S
C446 C440 1.428 . S
C446 N445 1.351 . S
C446 C447 1.434 . S
C447 C438 1.429 . S
C447 N444 1.350 . S
C447 C446 1.434 . S
C448 C449 1.369 . S
C448 C450 1.419 . S
C448 H452 0.930 . S
C449 C448 1.369 . S
C449 C458 1.429 . S
C450 C448 1.419 . S
C450 C451 1.363 . S
C450 H453 0.929 . S
C451 C450 1.363 . S
C451 C457 1.428 . S
H452 C448 0.930 . S
H453 C450 0.929 . S
S454 N455 1.613 . S
S454 N456 1.610 . S
N455 S454 1.613 . S
N455 C458 1.350 . S
N456 S454 1.610 . S
N456 C457 1.351 . S
C457 C451 1.428 . S
C457 N456 1.351 . S
C457 C458 1.434 . S
C458 C449 1.429 . S
C458 N455 1.350 . S
C458 C457 1.434 . S
C459 C460 1.369 . S
C459 C461 1.419 . S
C459 H463 0.930 . S
C460 C459 1.369 . S
C460 C469 1.429 . S
C461 C459 1.419 . S
C461 C462 1.363 . S
C461 H464 0.929 . S
C462 C461 1.363 . S
C462 C468 1.428 . S
H463 C459 0.930 . S
H464 C461 0.929 . S
S465 N466 1.613 . S
S465 N467 1.610 . S
N466 S465 1.613 . S
N466 C469 1.350 . S
N467 S465 1.610 . S
N467 C468 1.351 . S
C468 C462 1.428 . S
C468 N467 1.351 . S
C468 C469 1.434 . S
C469 C460 1.429 . S
C469 N466 1.350 . S
C469 C468 1.434 . S
C470 C471 1.369 . S
C470 C472 1.419 . S
C470 H474 0.930 . S
C471 C470 1.369 . S
C471 C480 1.429 . S
C472 C470 1.419 . S
C472 C473 1.363 . S
C472 H475 0.929 . S
C473 C472 1.363 . S
C473 C479 1.428 . S
H474 C470 0.930 . S
H475 C472 0.929 . S
S476 N477 1.613 . S
S476 N478 1.610 . S
N477 S476 1.613 . S
N477 C480 1.350 . S
N478 S476 1.610 . S
N478 C479 1.351 . S
C479 C473 1.428 . S
C479 N478 1.351 . S
C479 C480 1.434 . S
C480 C471 1.429 . S
C480 N477 1.350 . S
C480 C479 1.434 . S
C481 C482 1.369 . S
C481 C483 1.419 . S
C481 H485 0.930 . S
C482 C481 1.369 . S
C482 C491 1.429 . S
C483 C481 1.419 . S
C483 C484 1.363 . S
C483 H486 0.929 . S
C484 C483 1.363 . S
C484 C490 1.428 . S
H485 C481 0.930 . S
H486 C483 0.929 . S
S487 N488 1.613 . S
S487 N489 1.610 . S
N488 S487 1.613 . S
N488 C491 1.350 . S
N489 S487 1.610 . S
N489 C490 1.351 . S
C490 C484 1.428 . S
C490 N489 1.351 . S
C490 C491 1.434 . S
C491 C482 1.429 . S
C491 N488 1.350 . S
C491 C490 1.434 . S
C492 C493 1.369 . S
C492 C494 1.419 . S
C492 H496 0.930 . S
C493 C492 1.369 . S
C493 C502 1.429 . S
C494 C492 1.419 . S
C494 C495 1.363 . S
C494 H497 0.929 . S
C495 C494 1.363 . S
C495 C501 1.428 . S
H496 C492 0.930 . S
H497 C494 0.929 . S
S498 N499 1.613 . S
S498 N500 1.610 . S
N499 S498 1.613 . S
N499 C502 1.350 . S
N500 S498 1.610 . S
N500 C501 1.351 . S
C501 C495 1.428 . S
C501 N500 1.351 . S
C501 C502 1.434 . S
C502 C493 1.429 . S
C502 N499 1.350 . S
C502 C501 1.434 . S
C503 C504 1.369 . S
C503 C505 1.419 . S
C503 H507 0.930 . S
C504 C503 1.369 . S
C504 C513 1.429 . S
C505 C503 1.419 . S
C505 C506 1.363 . S
C505 H508 0.929 . S
C506 C505 1.363 . S
C506 C512 1.428 . S
H507 C503 0.930 . S
H508 C505 0.929 . S
S509 N510 1.613 . S
S509 N511 1.610 . S
N510 S509 1.613 . S
N510 C513 1.350 . S
N511 S509 1.610 . S
N511 C512 1.351 . S
C512 C506 1.428 . S
C512 N511 1.351 . S
C512 C513 1.434 . S
C513 C504 1.429 . S
C513 N510 1.350 . S
C513 C512 1.434 . S
C514 C515 1.369 . S
C514 C516 1.419 . S
C514 H518 0.930 . S
C515 C514 1.369 . S
C515 C524 1.429 . S
C516 C514 1.419 . S
C516 C517 1.363 . S
C516 H519 0.929 . S
C517 C516 1.363 . S
C517 C523 1.428 . S
H518 C514 0.930 . S
H519 C516 0.929 . S
S520 N521 1.613 . S
S520 N522 1.610 . S
N521 S520 1.613 . S
N521 C524 1.350 . S
N522 S520 1.610 . S
N522 C523 1.351 . S
C523 C517 1.428 . S
C523 N522 1.351 . S
C523 C524 1.434 . S
C524 C515 1.429 . S
C524 N521 1.350 . S
C524 C523 1.434 . S
C525 C526 1.369 . S
C525 C527 1.419 . S
C525 H529 0.930 . S
C526 C525 1.369 . S
C526 C535 1.429 . S
C527 C525 1.419 . S
C527 C528 1.363 . S
C527 H530 0.929 . S
C528 C527 1.363 . S
C528 C534 1.428 . S
H529 C525 0.930 . S
H530 C527 0.929 . S
S531 N532 1.613 . S
S531 N533 1.610 . S
N532 S531 1.613 . S
N532 C535 1.350 . S
N533 S531 1.610 . S
N533 C534 1.351 . S
C534 C528 1.428 . S
C534 N533 1.351 . S
C534 C535 1.434 . S
C535 C526 1.429 . S
C535 N532 1.350 . S
C535 C534 1.434 . S
C536 C537 1.369 . S
C536 C538 1.419 . S
C536 H540 0.930 . S
C537 C536 1.369 . S
C537 C546 1.429 . S
C538 C536 1.419 . S
C538 C539 1.363 . S
C538 H541 0.929 . S
C539 C538 1.363 . S
C539 C545 1.428 . S
H540 C536 0.930 . S
H541 C538 0.929 . S
S542 N543 1.613 . S
S542 N544 1.610 . S
N543 S542 1.613 . S
N543 C546 1.350 . S
N544 S542 1.610 . S
N544 C545 1.351 . S
C545 C539 1.428 . S
C545 N544 1.351 . S
C545 C546 1.434 . S
C546 C537 1.429 . S
C546 N543 1.350 . S
C546 C545 1.434 . S
C547 C548 1.369 . S
C547 C549 1.419 . S
C547 H551 0.930 . S
C548 C547 1.369 . S
C548 C557 1.429 . S
C549 C547 1.419 . S
C549 C550 1.363 . S
C549 H552 0.929 . S
C550 C549 1.363 . S
C550 C556 1.428 . S
H551 C547 0.930 . S
H552 C549 0.929 . S
S553 N554 1.613 . S
S553 N555 1.610 . S
N554 S553 1.613 . S
N554 C557 1.350 . S
N555 S553 1.610 . S
N555 C556 1.351 . S
C556 C550 1.428 . S
C556 N555 1.351 . S
C556 C557 1.434 . S
C557 C548 1.429 . S
C557 N554 1.350 . S
C557 C556 1.434 . S
C558 C559 1.369 . S
C558 C560 1.419 . S
C558 H562 0.930 . S
C559 C558 1.369 . S
C559 C568 1.429 . S
C560 C558 1.419 . S
C560 C561 1.363 . S
C560 H563 0.929 . S
C561 C560 1.363 . S
C561 C567 1.428 . S
H562 C558 0.930 . S
H563 C560 0.929 . S
S564 N565 1.613 1_556 S
S564 N566 1.610 . S
N565 S564 1.613 1_554 S
N565 C568 1.350 . S
N566 S564 1.610 . S
N566 C567 1.351 1_556 S
C567 C561 1.428 . S
C567 N566 1.351 1_554 S
C567 C568 1.434 . S
C568 C559 1.429 . S
C568 N565 1.350 . S
C568 C567 1.434 . S
C569 C570 1.369 . S
C569 C571 1.419 . S
C569 H573 0.930 . S
C570 C569 1.369 . S
C570 C579 1.429 . S
C571 C569 1.419 . S
C571 C572 1.363 . S
C571 H574 0.929 . S
C572 C571 1.363 . S
C572 C578 1.428 . S
H573 C569 0.930 . S
H574 C571 0.929 . S
S575 N576 1.613 1_554 S
S575 N577 1.610 . S
N576 S575 1.613 1_556 S
N576 C579 1.350 . S
N577 S575 1.610 . S
N577 C578 1.351 1_554 S
C578 C572 1.428 . S
C578 N577 1.351 1_556 S
C578 C579 1.434 . S
C579 C570 1.429 . S
C579 N576 1.350 . S
C579 C578 1.434 . S
C580 C581 1.369 . S
C580 C582 1.419 . S
C580 H584 0.930 . S
C581 C580 1.369 . S
C581 C590 1.429 . S
C582 C580 1.419 . S
C582 C583 1.363 . S
C582 H585 0.929 . S
C583 C582 1.363 . S
C583 C589 1.428 . S
H584 C580 0.930 . S
H585 C582 0.929 . S
S586 N587 1.613 1_554 S
S586 N588 1.610 1_554 S
N587 S586 1.613 1_556 S
N587 C590 1.350 . S
N588 S586 1.610 1_556 S
N588 C589 1.351 . S
C589 C583 1.428 . S
C589 N588 1.351 . S
C589 C590 1.434 . S
C590 C581 1.429 . S
C590 N587 1.350 . S
C590 C589 1.434 . S
C591 C592 1.369 . S
C591 C593 1.419 . S
C591 H595 0.930 . S
C592 C591 1.369 . S
C592 C601 1.429 . S
C593 C591 1.419 . S
C593 C594 1.363 . S
C593 H596 0.929 1_556 S
C594 C593 1.363 . S
C594 C600 1.428 . S
H595 C591 0.930 . S
H596 C593 0.929 1_554 S
S597 N598 1.613 . S
S597 N599 1.610 . S
N598 S597 1.613 . S
N598 C601 1.350 . S
N599 S597 1.610 . S
N599 C600 1.351 . S
C600 C594 1.428 . S
C600 N599 1.351 . S
C600 C601 1.434 . S
C601 C592 1.429 . S
C601 N598 1.350 . S
C601 C600 1.434 . S
C602 C603 1.369 . S
C602 C604 1.419 . S
C602 H606 0.930 . S
C603 C602 1.369 . S
C603 C612 1.429 . S
C604 C602 1.419 . S
C604 C605 1.363 . S
C604 H607 0.929 . S
C605 C604 1.363 . S
C605 C611 1.428 . S
H606 C602 0.930 . S
H607 C604 0.929 . S
S608 N609 1.613 . S
S608 N610 1.610 . S
N609 S608 1.613 . S
N609 C612 1.350 . S
N610 S608 1.610 . S
N610 C611 1.351 . S
C611 C605 1.428 . S
C611 N610 1.351 . S
C611 C612 1.434 . S
C612 C603 1.429 . S
C612 N609 1.350 . S
C612 C611 1.434 . S
C613 C614 1.369 . S
C613 C615 1.419 . S
C613 H617 0.930 . S
C614 C613 1.369 . S
C614 C623 1.429 . S
C615 C613 1.419 . S
C615 C616 1.363 . S
C615 H618 0.929 . S
C616 C615 1.363 . S
C616 C622 1.428 . S
H617 C613 0.930 . S
H618 C615 0.929 . S
S619 N620 1.613 1_556 S
S619 N621 1.610 . S
N620 S619 1.613 1_554 S
N620 C623 1.350 . S
N621 S619 1.610 . S
N621 C622 1.351 1_556 S
C622 C616 1.428 . S
C622 N621 1.351 1_554 S
C622 C623 1.434 . S
C623 C614 1.429 . S
C623 N620 1.350 . S
C623 C622 1.434 . S
C624 C625 1.369 . S
C624 C626 1.419 . S
C624 H628 0.930 . S
C625 C624 1.369 . S
C625 C634 1.429 . S
C626 C624 1.419 . S
C626 C627 1.363 . S
C626 H629 0.929 . S
C627 C626 1.363 . S
C627 C633 1.428 . S
H628 C624 0.930 . S
H629 C626 0.929 . S
S630 N631 1.613 1_556 S
S630 N632 1.610 1_556 S
N631 S630 1.613 1_554 S
N631 C634 1.350 . S
N632 S630 1.610 1_554 S
N632 C633 1.351 . S
C633 C627 1.428 . S
C633 N632 1.351 . S
C633 C634 1.434 . S
C634 C625 1.429 . S
C634 N631 1.350 . S
C634 C633 1.434 . S
C635 C636 1.369 . S
C635 C637 1.419 . S
C635 H639 0.930 . S
C636 C635 1.369 . S
C636 C645 1.429 . S
C637 C635 1.419 . S
C637 C638 1.363 . S
C637 H640 0.929 . S
C638 C637 1.363 . S
C638 C644 1.428 . S
H639 C635 0.930 . S
H640 C637 0.929 . S
S641 N642 1.613 . S
S641 N643 1.610 . S
N642 S641 1.613 . S
N642 C645 1.350 . S
N643 S641 1.610 . S
N643 C644 1.351 . S
C644 C638 1.428 . S
C644 N643 1.351 . S
C644 C645 1.434 . S
C645 C636 1.429 . S
C645 N642 1.350 . S
C645 C644 1.434 . S
C646 C647 1.369 . S
C646 C648 1.419 . S
C646 H650 0.930 . S
C647 C646 1.369 . S
C647 C656 1.429 . S
C648 C646 1.419 . S
C648 C649 1.363 . S
C648 H651 0.929 . S
C649 C648 1.363 . S
C649 C655 1.428 . S
H650 C646 0.930 . S
H651 C648 0.929 . S
S652 N653 1.613 . S
S652 N654 1.610 . S
N653 S652 1.613 . S
N653 C656 1.350 . S
N654 S652 1.610 . S
N654 C655 1.351 . S
C655 C649 1.428 . S
C655 N654 1.351 . S
C655 C656 1.434 . S
C656 C647 1.429 . S
C656 N653 1.350 . S
C656 C655 1.434 . S
C657 C658 1.369 . S
C657 C659 1.419 . S
C657 H661 0.930 . S
C658 C657 1.369 . S
C658 C667 1.429 . S
C659 C657 1.419 . S
C659 C660 1.363 . S
C659 H662 0.929 . S
C660 C659 1.363 . S
C660 C666 1.428 . S
H661 C657 0.930 . S
H662 C659 0.929 . S
S663 N664 1.613 . S
S663 N665 1.610 . S
N664 S663 1.613 . S
N664 C667 1.350 . S
N665 S663 1.610 . S
N665 C666 1.351 . S
C666 C660 1.428 . S
C666 N665 1.351 . S
C666 C667 1.434 . S
C667 C658 1.429 . S
C667 N664 1.350 . S
C667 C666 1.434 . S
C668 C669 1.369 . S
C668 C670 1.419 . S
C668 H672 0.930 . S
C669 C668 1.369 . S
C669 C678 1.429 . S
C670 C668 1.419 . S
C670 C671 1.363 . S
C670 H673 0.929 . S
C671 C670 1.363 . S
C671 C677 1.428 . S
H672 C668 0.930 . S
H673 C670 0.929 . S
S674 N675 1.613 . S
S674 N676 1.610 . S
N675 S674 1.613 . S
N675 C678 1.350 . S
N676 S674 1.610 . S
N676 C677 1.351 . S
C677 C671 1.428 . S
C677 N676 1.351 . S
C677 C678 1.434 . S
C678 C669 1.429 . S
C678 N675 1.350 . S
C678 C677 1.434 . S
C679 C680 1.369 . S
C679 C681 1.419 . S
C679 H683 0.930 . S
C680 C679 1.369 . S
C680 C689 1.429 . S
C681 C679 1.419 . S
C681 C682 1.363 . S
C681 H684 0.929 . S
C682 C681 1.363 . S
C682 C688 1.428 . S
H683 C679 0.930 . S
H684 C681 0.929 . S
S685 N686 1.613 . S
S685 N687 1.610 . S
N686 S685 1.613 . S
N686 C689 1.350 . S
N687 S685 1.610 . S
N687 C688 1.351 . S
C688 C682 1.428 . S
C688 N687 1.351 . S
C688 C689 1.434 . S
C689 C680 1.429 . S
C689 N686 1.350 . S
C689 C688 1.434 . S
C690 C691 1.369 . S
C690 C692 1.419 . S
C690 H694 0.930 . S
C691 C690 1.369 . S
C691 C700 1.429 . S
C692 C690 1.419 . S
C692 C693 1.363 . S
C692 H695 0.929 . S
C693 C692 1.363 . S
C693 C699 1.428 . S
H694 C690 0.930 . S
H695 C692 0.929 . S
S696 N697 1.613 . S
S696 N698 1.610 . S
N697 S696 1.613 . S
N697 C700 1.350 . S
N698 S696 1.610 . S
N698 C699 1.351 . S
C699 C693 1.428 . S
C699 N698 1.351 . S
C699 C700 1.434 . S
C700 C691 1.429 . S
C700 N697 1.350 . S
C700 C699 1.434 . S
C701 C702 1.369 . S
C701 C703 1.419 . S
C701 H705 0.930 . S
C702 C701 1.369 . S
C702 C711 1.429 . S
C703 C701 1.419 . S
C703 C704 1.363 . S
C703 H706 0.929 . S
C704 C703 1.363 . S
C704 C710 1.428 . S
H705 C701 0.930 . S
H706 C703 0.929 . S
S707 N708 1.613 . S
S707 N709 1.610 . S
N708 S707 1.613 . S
N708 C711 1.350 . S
N709 S707 1.610 . S
N709 C710 1.351 . S
C710 C704 1.428 . S
C710 N709 1.351 . S
C710 C711 1.434 . S
C711 C702 1.429 . S
C711 N708 1.350 . S
C711 C710 1.434 . S
C712 C713 1.369 . S
C712 C714 1.419 . S
C712 H716 0.930 . S
C713 C712 1.369 . S
C713 C722 1.429 . S
C714 C712 1.419 . S
C714 C715 1.363 . S
C714 H717 0.929 . S
C715 C714 1.363 . S
C715 C721 1.428 . S
H716 C712 0.930 . S
H717 C714 0.929 . S
S718 N719 1.613 . S
S718 N720 1.610 . S
N719 S718 1.613 . S
N719 C722 1.350 . S
N720 S718 1.610 . S
N720 C721 1.351 . S
C721 C715 1.428 . S
C721 N720 1.351 . S
C721 C722 1.434 . S
C722 C713 1.429 . S
C722 N719 1.350 . S
C722 C721 1.434 . S
C723 C724 1.369 . S
C723 C725 1.419 . S
C723 H727 0.930 . S
C724 C723 1.369 . S
C724 C733 1.429 . S
C725 C723 1.419 . S
C725 C726 1.363 . S
C725 H728 0.929 . S
C726 C725 1.363 . S
C726 C732 1.428 . S
H727 C723 0.930 . S
H728 C725 0.929 . S
S729 N730 1.613 . S
S729 N731 1.610 . S
N730 S729 1.613 . S
N730 C733 1.350 . S
N731 S729 1.610 . S
N731 C732 1.351 . S
C732 C726 1.428 . S
C732 N731 1.351 . S
C732 C733 1.434 . S
C733 C724 1.429 . S
C733 N730 1.350 . S
C733 C732 1.434 . S
C734 C735 1.369 . S
C734 C736 1.419 . S
C734 H738 0.930 . S
C735 C734 1.369 . S
C735 C744 1.429 . S
C736 C734 1.419 . S
C736 C737 1.363 . S
C736 H739 0.929 . S
C737 C736 1.363 . S
C737 C743 1.428 . S
H738 C734 0.930 . S
H739 C736 0.929 . S
S740 N741 1.613 . S
S740 N742 1.610 . S
N741 S740 1.613 . S
N741 C744 1.350 . S
N742 S740 1.610 . S
N742 C743 1.351 . S
C743 C737 1.428 . S
C743 N742 1.351 . S
C743 C744 1.434 . S
C744 C735 1.429 . S
C744 N741 1.350 . S
C744 C743 1.434 . S
C745 C746 1.369 . S
C745 C747 1.419 . S
C745 H749 0.930 . S
C746 C745 1.369 . S
C746 C755 1.429 . S
C747 C745 1.419 . S
C747 C748 1.363 . S
C747 H750 0.929 . S
C748 C747 1.363 . S
C748 C754 1.428 . S
H749 C745 0.930 . S
H750 C747 0.929 . S
S751 N752 1.613 . S
S751 N753 1.610 . S
N752 S751 1.613 . S
N752 C755 1.350 . S
N753 S751 1.610 . S
N753 C754 1.351 . S
C754 C748 1.428 . S
C754 N753 1.351 . S
C754 C755 1.434 . S
C755 C746 1.429 . S
C755 N752 1.350 . S
C755 C754 1.434 . S
C756 C757 1.369 . S
C756 C758 1.419 . S
C756 H760 0.930 . S
C757 C756 1.369 . S
C757 C766 1.429 . S
C758 C756 1.419 . S
C758 C759 1.363 . S
C758 H761 0.929 . S
C759 C758 1.363 . S
C759 C765 1.428 . S
H760 C756 0.930 . S
H761 C758 0.929 . S
S762 N763 1.613 . S
S762 N764 1.610 . S
N763 S762 1.613 . S
N763 C766 1.350 . S
N764 S762 1.610 . S
N764 C765 1.351 . S
C765 C759 1.428 . S
C765 N764 1.351 . S
C765 C766 1.434 . S
C766 C757 1.429 . S
C766 N763 1.350 . S
C766 C765 1.434 . S
C767 C768 1.369 . S
C767 C769 1.419 . S
C767 H771 0.930 . S
C768 C767 1.369 . S
C768 C777 1.429 . S
C769 C767 1.419 . S
C769 C770 1.363 . S
C769 H772 0.929 . S
C770 C769 1.363 . S
C770 C776 1.428 . S
H771 C767 0.930 . S
H772 C769 0.929 . S
S773 N774 1.613 . S
S773 N775 1.610 . S
N774 S773 1.613 . S
N774 C777 1.350 . S
N775 S773 1.610 . S
N775 C776 1.351 . S
C776 C770 1.428 . S
C776 N775 1.351 . S
C776 C777 1.434 . S
C777 C768 1.429 . S
C777 N774 1.350 . S
C777 C776 1.434 . S
C778 C779 1.369 . S
C778 C780 1.419 . S
C778 H782 0.930 . S
C779 C778 1.369 . S
C779 C788 1.429 . S
C780 C778 1.419 . S
C780 C781 1.363 . S
C780 H783 0.929 . S
C781 C780 1.363 . S
C781 C787 1.428 . S
H782 C778 0.930 . S
H783 C780 0.929 . S
S784 N785 1.613 . S
S784 N786 1.610 . S
N785 S784 1.613 . S
N785 C788 1.350 . S
N786 S784 1.610 . S
N786 C787 1.351 . S
C787 C781 1.428 . S
C787 N786 1.351 . S
C787 C788 1.434 . S
C788 C779 1.429 . S
C788 N785 1.350 . S
C788 C787 1.434 . S
C789 C790 1.369 . S
C789 C791 1.419 . S
C789 H793 0.930 . S
C790 C789 1.369 . S
C790 C799 1.429 . S
C791 C789 1.419 . S
C791 C792 1.363 . S
C791 H794 0.929 . S
C792 C791 1.363 . S
C792 C798 1.428 . S
H793 C789 0.930 . S
H794 C791 0.929 . S
S795 N796 1.613 . S
S795 N797 1.610 . S
N796 S795 1.613 . S
N796 C799 1.350 . S
N797 S795 1.610 . S
N797 C798 1.351 . S
C798 C792 1.428 . S
C798 N797 1.351 . S
C798 C799 1.434 . S
C799 C790 1.429 . S
C799 N796 1.350 . S
C799 C798 1.434 . S
C800 C801 1.369 . S
C800 C802 1.419 . S
C800 H804 0.930 . S
C801 C800 1.369 . S
C801 C810 1.429 . S
C802 C800 1.419 . S
C802 C803 1.363 . S
C802 H805 0.929 . S
C803 C802 1.363 . S
C803 C809 1.428 . S
H804 C800 0.930 . S
H805 C802 0.929 . S
S806 N807 1.613 . S
S806 N808 1.610 . S
N807 S806 1.613 . S
N807 C810 1.350 . S
N808 S806 1.610 . S
N808 C809 1.351 . S
C809 C803 1.428 . S
C809 N808 1.351 . S
C809 C810 1.434 . S
C810 C801 1.429 . S
C810 N807 1.350 . S
C810 C809 1.434 . S
C811 C812 1.369 . S
C811 C813 1.419 . S
C811 H815 0.930 . S
C812 C811 1.369 . S
C812 C821 1.429 . S
C813 C811 1.419 . S
C813 C814 1.363 . S
C813 H816 0.929 . S
C814 C813 1.363 . S
C814 C820 1.428 . S
H815 C811 0.930 . S
H816 C813 0.929 . S
S817 N818 1.613 . S
S817 N819 1.610 . S
N818 S817 1.613 . S
N818 C821 1.350 . S
N819 S817 1.610 . S
N819 C820 1.351 . S
C820 C814 1.428 . S
C820 N819 1.351 . S
C820 C821 1.434 . S
C821 C812 1.429 . S
C821 N818 1.350 . S
C821 C820 1.434 . S
C822 C823 1.369 . S
C822 C824 1.419 . S
C822 H826 0.930 . S
C823 C822 1.369 . S
C823 C832 1.429 . S
C824 C822 1.419 . S
C824 C825 1.363 . S
C824 H827 0.929 . S
C825 C824 1.363 . S
C825 C831 1.428 . S
H826 C822 0.930 . S
H827 C824 0.929 . S
S828 N829 1.613 . S
S828 N830 1.610 . S
N829 S828 1.613 . S
N829 C832 1.350 . S
N830 S828 1.610 . S
N830 C831 1.351 . S
C831 C825 1.428 . S
C831 N830 1.351 . S
C831 C832 1.434 . S
C832 C823 1.429 . S
C832 N829 1.350 . S
C832 C831 1.434 . S
C833 C834 1.369 . S
C833 C835 1.419 . S
C833 H837 0.930 . S
C834 C833 1.369 . S
C834 C843 1.429 . S
C835 C833 1.419 . S
C835 C836 1.363 . S
C835 H838 0.929 . S
C836 C835 1.363 . S
C836 C842 1.428 . S
H837 C833 0.930 . S
H838 C835 0.929 . S
S839 N840 1.613 . S
S839 N841 1.610 . S
N840 S839 1.613 . S
N840 C843 1.350 . S
N841 S839 1.610 . S
N841 C842 1.351 . S
C842 C836 1.428 . S
C842 N841 1.351 . S
C842 C843 1.434 . S
C843 C834 1.429 . S
C843 N840 1.350 . S
C843 C842 1.434 . S
C844 C845 1.369 . S
C844 C846 1.419 . S
C844 H848 0.930 . S
C845 C844 1.369 . S
C845 C854 1.429 . S
C846 C844 1.419 . S
C846 C847 1.363 . S
C846 H849 0.929 . S
C847 C846 1.363 . S
C847 C853 1.428 . S
H848 C844 0.930 . S
H849 C846 0.929 . S
S850 N851 1.613 . S
S850 N852 1.610 . S
N851 S850 1.613 . S
N851 C854 1.350 . S
N852 S850 1.610 . S
N852 C853 1.351 . S
C853 C847 1.428 . S
C853 N852 1.351 . S
C853 C854 1.434 . S
C854 C845 1.429 . S
C854 N851 1.350 . S
C854 C853 1.434 . S
C855 C856 1.369 . S
C855 C857 1.419 . S
C855 H859 0.930 . S
C856 C855 1.369 . S
C856 C865 1.429 . S
C857 C855 1.419 . S
C857 C858 1.363 . S
C857 H860 0.929 . S
C858 C857 1.363 . S
C858 C864 1.428 . S
H859 C855 0.930 . S
H860 C857 0.929 . S
S861 N862 1.613 . S
S861 N863 1.610 . S
N862 S861 1.613 . S
N862 C865 1.350 . S
N863 S861 1.610 . S
N863 C864 1.351 . S
C864 C858 1.428 . S
C864 N863 1.351 . S
C864 C865 1.434 . S
C865 C856 1.429 . S
C865 N862 1.350 . S
C865 C864 1.434 . S
C866 C867 1.369 . S
C866 C868 1.419 . S
C866 H870 0.930 . S
C867 C866 1.369 . S
C867 C876 1.429 . S
C868 C866 1.419 . S
C868 C869 1.363 . S
C868 H871 0.929 . S
C869 C868 1.363 . S
C869 C875 1.428 . S
H870 C866 0.930 . S
H871 C868 0.929 . S
S872 N873 1.613 . S
S872 N874 1.610 . S
N873 S872 1.613 . S
N873 C876 1.350 . S
N874 S872 1.610 . S
N874 C875 1.351 . S
C875 C869 1.428 . S
C875 N874 1.351 . S
C875 C876 1.434 . S
C876 C867 1.429 . S
C876 N873 1.350 . S
C876 C875 1.434 . S
C877 C878 1.369 . S
C877 C879 1.419 . S
C877 H881 0.930 . S
C878 C877 1.369 . S
C878 C887 1.429 . S
C879 C877 1.419 . S
C879 C880 1.363 . S
C879 H882 0.929 . S
C880 C879 1.363 . S
C880 C886 1.428 . S
H881 C877 0.930 . S
H882 C879 0.929 . S
S883 N884 1.613 . S
S883 N885 1.610 . S
N884 S883 1.613 . S
N884 C887 1.350 . S
N885 S883 1.610 . S
N885 C886 1.351 . S
C886 C880 1.428 . S
C886 N885 1.351 . S
C886 C887 1.434 . S
C887 C878 1.429 . S
C887 N884 1.350 . S
C887 C886 1.434 . S
C888 C889 1.369 . S
C888 C890 1.419 . S
C888 H892 0.930 . S
C889 C888 1.369 . S
C889 C898 1.429 . S
C890 C888 1.419 . S
C890 C891 1.363 . S
C890 H893 0.929 . S
C891 C890 1.363 . S
C891 C897 1.428 . S
H892 C888 0.930 . S
H893 C890 0.929 . S
S894 N895 1.613 . S
S894 N896 1.610 . S
N895 S894 1.613 . S
N895 C898 1.350 . S
N896 S894 1.610 . S
N896 C897 1.351 . S
C897 C891 1.428 . S
C897 N896 1.351 . S
C897 C898 1.434 . S
C898 C889 1.429 . S
C898 N895 1.350 . S
C898 C897 1.434 . S
C899 C900 1.369 . S
C899 C901 1.419 . S
C899 H903 0.930 . S
C900 C899 1.369 . S
C900 C909 1.429 . S
C901 C899 1.419 . S
C901 C902 1.363 . S
C901 H904 0.929 . S
C902 C901 1.363 . S
C902 C908 1.428 . S
H903 C899 0.930 . S
H904 C901 0.929 . S
S905 N906 1.613 . S
S905 N907 1.610 . S
N906 S905 1.613 . S
N906 C909 1.350 . S
N907 S905 1.610 . S
N907 C908 1.351 . S
C908 C902 1.428 . S
C908 N907 1.351 . S
C908 C909 1.434 . S
C909 C900 1.429 . S
C909 N906 1.350 . S
C909 C908 1.434 . S
C385 C211 1.185 . S
C383 C17 1.311 . S
C396 C212 1.714 . S
C394 C44 1.734 . S
C407 C206 1.349 . S
C405 C63 1.374 . S
C416 C87 1.175 . S
C418 C205 1.147 . S
C427 C110 1.650 . S
C429 C208 1.535 . S
C440 C210 1.357 . S
C438 C131 1.379 . S
C449 C159 1.244 . S
C451 C209 1.335 . S
C460 C177 1.325 . S
C462 C207 1.201 . S
C473 C242 1.696 . S
C471 C20 1.429 . S
C482 C42 1.496 . S
C484 C273 1.409 . S
C495 C241 1.661 . S
C493 C66 1.426 . S
C506 C276 1.262 . S
C504 C86 1.284 . S
C515 C109 1.422 . S
C517 C239 1.427 . S
C528 C271 1.592 . S
C526 C136 1.470 . S
C537 C157 1.328 . S
C539 C244 1.307 . S
C548 C182 1.420 . S
C550 C278 1.483 . S
C559 C18 1.446 . S
C561 C274 1.413 . S
C570 C112 1.457 . S
C572 C277 1.585 . S
C583 C245 1.414 . S
C581 C134 1.384 . S
C594 C272 1.407 . S
C592 C154 1.411 . S
C603 C180 1.430 . S
C605 C238 1.518 . S
C614 C64 1.482 . S
C616 C275 1.496 . S
C627 C240 1.633 . S
C625 C89 1.333 . S
C636 C39 1.565 . S
C638 C243 1.591 . S
C647 C178 1.301 . S
C649 C310 1.180 . S
C658 C113 1.489 . S
C660 C311 1.494 . S
C671 C305 1.329 . S
C669 C132 1.358 . S
C682 C304 1.438 . S
C680 C156 1.447 . S
C691 C41 1.368 . S
C693 C307 1.240 . S
C704 C309 1.341 . S
C702 C62 1.371 . S
C713 C90 1.477 . S
C715 C308 1.542 . S
C724 C16 1.321 . S
C726 C306 1.204 . S
C735 C181 1.507 . S
C737 C344 1.609 . S
C748 C376 1.339 . S
C746 C111 1.350 . S
C757 C135 1.246 . S
C759 C337 1.392 . S
C768 C155 1.491 . S
C770 C371 1.517 . S
C781 C342 1.264 . S
C779 C40 1.267 . S
C790 C67 1.731 . S
C792 C373 1.916 . S
C803 C339 1.414 . S
C801 C88 1.495 . S
C814 C374 1.629 . S
C812 C21 1.399 . S
C825 C370 1.410 . S
C823 C179 1.402 . S
C834 C43 1.331 . S
C836 C372 1.645 . S
C845 C65 1.259 . S
C847 C341 1.369 . S
C858 C375 1.667 . S
C856 C85 1.616 . S
C867 C19 1.537 . S
C869 C340 1.574 . S
C878 C133 1.682 . S
C880 C377 1.626 . S
C891 C343 1.595 . S
C889 C158 1.469 . S
C902 C338 1.414 . S
C900 C108 1.408 . S
