# Generated by pormake.
# Topology pyr, (3,6)-cn, num edge types: 1
# Building blocks:
#     Node 0, Type 0, BuildingBlock: OLANEW_clean_sbu_2, # of connection points: 3
#     Node 1, Type 0, BuildingBlock: OLANEW_clean_sbu_2, # of connection points: 3
#     Node 2, Type 0, BuildingBlock: OLANEW_clean_sbu_2, # of connection points: 3
#     Node 3, Type 0, BuildingBlock: OLANEW_clean_sbu_2, # of connection points: 3
#     Node 4, Type 0, BuildingBlock: OLANEW_clean_sbu_2, # of connection points: 3
#     Node 5, Type 0, BuildingBlock: OLANEW_clean_sbu_2, # of connection points: 3
#     Node 6, Type 0, BuildingBlock: OLANEW_clean_sbu_2, # of connection points: 3
#     Node 7, Type 0, BuildingBlock: OLANEW_clean_sbu_2, # of connection points: 3
#     Node 8, Type 1, BuildingBlock: BETGAK_clean_sbu_0, # of connection points: 6
#     Node 9, Type 1, BuildingBlock: BETGAK_clean_sbu_0, # of connection points: 6
#     Node 10, Type 1, BuildingBlock: BETGAK_clean_sbu_0, # of connection points: 6
#     Node 11, Type 1, BuildingBlock: BETGAK_clean_sbu_0, # of connection points: 6
#     Edge 12, Type (0, 1), BuildingBlock: UVAHIK_clean_linker_0, # of connection points: 2
#     Edge 13, Type (0, 1), BuildingBlock: UVAHIK_clean_linker_0, # of connection points: 2
#     Edge 14, Type (0, 1), BuildingBlock: UVAHIK_clean_linker_0, # of connection points: 2
#     Edge 15, Type (0, 1), BuildingBlock: UVAHIK_clean_linker_0, # of connection points: 2
#     Edge 16, Type (0, 1), BuildingBlock: UVAHIK_clean_linker_0, # of connection points: 2
#     Edge 17, Type (0, 1), BuildingBlock: UVAHIK_clean_linker_0, # of connection points: 2
#     Edge 18, Type (0, 1), BuildingBlock: UVAHIK_clean_linker_0, # of connection points: 2
#     Edge 19, Type (0, 1), BuildingBlock: UVAHIK_clean_linker_0, # of connection points: 2
#     Edge 20, Type (0, 1), BuildingBlock: UVAHIK_clean_linker_0, # of connection points: 2
#     Edge 21, Type (0, 1), BuildingBlock: UVAHIK_clean_linker_0, # of connection points: 2
#     Edge 22, Type (0, 1), BuildingBlock: UVAHIK_clean_linker_0, # of connection points: 2
#     Edge 23, Type (0, 1), BuildingBlock: UVAHIK_clean_linker_0, # of connection points: 2
#     Edge 24, Type (0, 1), BuildingBlock: UVAHIK_clean_linker_0, # of connection points: 2
#     Edge 25, Type (0, 1), BuildingBlock: UVAHIK_clean_linker_0, # of connection points: 2
#     Edge 26, Type (0, 1), BuildingBlock: UVAHIK_clean_linker_0, # of connection points: 2
#     Edge 27, Type (0, 1), BuildingBlock: UVAHIK_clean_linker_0, # of connection points: 2
#     Edge 28, Type (0, 1), BuildingBlock: UVAHIK_clean_linker_0, # of connection points: 2
#     Edge 29, Type (0, 1), BuildingBlock: UVAHIK_clean_linker_0, # of connection points: 2
#     Edge 30, Type (0, 1), BuildingBlock: UVAHIK_clean_linker_0, # of connection points: 2
#     Edge 31, Type (0, 1), BuildingBlock: UVAHIK_clean_linker_0, # of connection points: 2
#     Edge 32, Type (0, 1), BuildingBlock: UVAHIK_clean_linker_0, # of connection points: 2
#     Edge 33, Type (0, 1), BuildingBlock: UVAHIK_clean_linker_0, # of connection points: 2
#     Edge 34, Type (0, 1), BuildingBlock: UVAHIK_clean_linker_0, # of connection points: 2
#     Edge 35, Type (0, 1), BuildingBlock: UVAHIK_clean_linker_0, # of connection points: 2
# Relax obj value: 0.097
# Max RMSD: 0.163
# Mean RMSD: 0.119
data_MOF--net-pyr--node1-OLANEW_clean_sbu_2--node2-BETGAK_clean_sbu_0--edge1-UVAHIK_clean_linker_0
_symmetry_space_group_name_H-M    P1
_symmetry_Int_Tables_number       1
_symmetry_cell_setting            triclinic
loop_
_symmetry_equiv_pos_as_xyz
'x, y, z'
_cell_length_a     51.569783
_cell_length_b     55.940885
_cell_length_c     49.449771
_cell_angle_alpha  94.888073
_cell_angle_beta   88.323308
_cell_angle_gamma 102.74892
loop_
_atom_site_label
_atom_site_type_symbol
_atom_site_fract_x
_atom_site_fract_y
_atom_site_fract_z
_atom_type_partial_charge
O0 O 0.36577 0.28294 0.17595 0.0
Cd1 Cd 0.34954 0.31969 0.19275 0.0
O2 O 0.33742 0.26171 0.20334 0.0
Cd3 Cd 0.31883 0.23101 0.22689 0.0
O4 O 0.29196 0.20941 0.25509 0.0
C5 C 0.29079 0.21832 0.2795 0.0
O6 O 0.30657 0.23957 0.28698 0.0
C7 C 0.3564 0.26267 0.18619 0.0
C8 C 0.30768 0.33179 0.16607 0.0
O9 O 0.33188 0.3394 0.15851 0.0
O10 O 0.30318 0.31761 0.18553 0.0
O11 O 0.32488 0.90048 0.6816 0.0
Cd12 Cd 0.30258 0.89387 0.63755 0.0
O13 O 0.29959 0.8679 0.69835 0.0
Cd14 Cd 0.27062 0.86335 0.6664 0.0
O15 O 0.23918 0.8703 0.64199 0.0
C16 C 0.22155 0.87919 0.65522 0.0
O17 O 0.22322 0.88252 0.68179 0.0
C18 C 0.31954 0.88593 0.70045 0.0
C19 C 0.31731 0.85381 0.60874 0.0
O20 O 0.29649 0.85108 0.62387 0.0
O21 O 0.33077 0.8757 0.60624 0.0
O22 O 0.70274 0.4039 0.86569 0.0
Cd23 Cd 0.66231 0.39082 0.83706 0.0
O24 O 0.69305 0.37046 0.88759 0.0
Cd25 Cd 0.69136 0.34128 0.91596 0.0
O26 O 0.67648 0.30688 0.93666 0.0
C27 C 0.65151 0.29982 0.94058 0.0
O28 O 0.63583 0.31346 0.93275 0.0
C29 C 0.70867 0.39112 0.88387 0.0
C30 C 0.65118 0.42036 0.79694 0.0
O31 O 0.64358 0.42345 0.82167 0.0
O32 O 0.66505 0.40413 0.79132 0.0
O33 O 0.89734 0.73609 0.35862 0.0
Cd34 Cd 0.87021 0.69836 0.33587 0.0
O35 O 0.8897 0.72294 0.39944 0.0
Cd36 Cd 0.86207 0.68834 0.3875 0.0
O37 O 0.82478 0.66395 0.39877 0.0
C38 C 0.82113 0.66216 0.42412 0.0
O39 O 0.84012 0.67365 0.44074 0.0
C40 C 0.90067 0.73957 0.38418 0.0
C41 C 0.89545 0.6721 0.29645 0.0
O42 O 0.88739 0.69118 0.29085 0.0
O43 O 0.89231 0.66578 0.32086 0.0
O44 O 0.72379 0.75944 0.79447 0.0
Cd45 Cd 0.69484 0.72772 0.81914 0.0
O46 O 0.70897 0.78793 0.81928 0.0
Cd47 Cd 0.70269 0.82421 0.83457 0.0
O48 O 0.68802 0.85395 0.85728 0.0
C49 C 0.66359 0.85432 0.85536 0.0
O50 O 0.64848 0.83743 0.83913 0.0
C51 C 0.72447 0.7821 0.80058 0.0
C52 C 0.72581 0.70302 0.84689 0.0
O53 O 0.7176 0.69515 0.82286 0.0
O54 O 0.71899 0.72232 0.85791 0.0
O55 O 0.72002 0.1843 0.46757 0.0
Cd56 Cd 0.73777 0.20168 0.51183 0.0
O57 O 0.75516 0.2055 0.44731 0.0
Cd58 Cd 0.76362 0.23219 0.48241 0.0
O59 O 0.75069 0.26318 0.50414 0.0
C60 C 0.72638 0.25951 0.51142 0.0
O61 O 0.71131 0.23736 0.50703 0.0
C62 C 0.73397 0.18874 0.44618 0.0
C63 C 0.77673 0.17703 0.52359 0.0
O64 O 0.75321 0.17094 0.53356 0.0
O65 O 0.78201 0.19522 0.50877 0.0
O66 O 0.40773 0.76251 0.23121 0.0
Cd67 Cd 0.38945 0.72126 0.24806 0.0
O68 O 0.37362 0.76192 0.20466 0.0
Cd69 Cd 0.34769 0.72494 0.20645 0.0
O70 O 0.31345 0.6962 0.19073 0.0
C71 C 0.29598 0.70359 0.17798 0.0
O72 O 0.29919 0.7273 0.17566 0.0
C73 C 0.39595 0.77299 0.21484 0.0
C74 C 0.41376 0.70438 0.29137 0.0
O75 O 0.42034 0.69985 0.26656 0.0
O76 O 0.3966 0.71776 0.29591 0.0
O77 O 0.1767 0.4134 0.75743 0.0
Cd78 Cd 0.198 0.39166 0.72091 0.0
O79 O 0.14733 0.37965 0.76569 0.0
Cd80 Cd 0.15859 0.35454 0.73334 0.0
O81 O 0.15264 0.31997 0.70751 0.0
C82 C 0.14987 0.30005 0.71899 0.0
O83 O 0.15207 0.30121 0.74551 0.0
C84 C 0.15709 0.40245 0.77125 0.0
C85 C 0.24182 0.42032 0.69521 0.0
O86 O 0.21842 0.41664 0.68534 0.0
O87 O 0.24442 0.41092 0.71746 0.0
La88 La 0.01097 0.03154 0.52877 0.0
La89 La 1.00425 1.01045 0.58328 0.0
C90 C 0.01226 0.05706 0.48892 0.0
C91 C 0.03324 0.07525 0.47677 0.0
C92 C 0.0573 0.08472 0.49035 0.0
C93 C 0.07841 0.09974 0.47735 0.0
C94 C 0.07586 0.10542 0.45051 0.0
C95 C 0.05136 0.09649 0.43737 0.0
C96 C 0.03025 0.0815 0.45041 0.0
C97 C 0.04861 1.00925 0.54152 0.0
C98 C 0.03537 0.06467 0.5815 0.0
C99 C 1.00215 0.98479 0.62313 0.0
C100 C 0.98007 0.96997 0.63816 0.0
C101 C 0.95729 0.97898 0.6457 0.0
C102 C 0.93635 0.96467 0.65963 0.0
C103 C 0.93761 0.94096 0.66601 0.0
C104 C 0.96033 0.9319 0.65829 0.0
C105 C 0.98143 0.94634 0.64458 0.0
C106 C 0.96631 0.03251 0.57132 0.0
C107 C 0.98297 0.97714 0.52953 0.0
O108 O 0.01635 0.03474 0.48697 0.0
O109 O 1.00401 0.06337 0.51322 0.0
O110 O 0.04164 1.01057 0.51692 0.0
O111 O 0.03682 0.02218 0.55711 0.0
O112 O 0.02542 0.06397 0.55699 0.0
O113 O 0.03375 0.04424 0.59379 0.0
O114 O 1.00399 1.00855 0.62542 0.0
O115 O 0.00582 0.97657 0.59808 0.0
O116 O 0.97321 0.03025 0.59565 0.0
O117 O 0.97791 0.01986 0.55499 0.0
O118 O 0.99318 0.97811 0.55398 0.0
O119 O 0.98256 0.99748 0.51792 0.0
H120 H 0.05998 0.07992 0.5107 0.0
H121 H 0.09688 0.10657 0.48816 0.0
H122 H 0.04883 0.10024 0.4166 0.0
H123 H 0.01188 0.07412 0.43958 0.0
H124 H 0.95553 0.99704 0.64071 0.0
H125 H 0.91894 0.97199 0.66498 0.0
H126 H 0.96188 0.91374 0.66309 0.0
H127 H 0.99877 0.93903 0.63887 0.0
La128 La 0.54277 0.04907 0.09201 0.0
La129 La 0.48882 0.02857 0.06225 0.0
C130 C 0.5862 0.07598 0.10784 0.0
C131 C 0.59863 0.08354 0.13441 0.0
C132 C 0.59034 0.06966 0.15665 0.0
C133 C 0.6025 0.07672 0.18178 0.0
C134 C 0.62303 0.09792 0.18519 0.0
C135 C 0.63108 0.1119 0.16284 0.0
C136 C 0.61897 0.10472 0.13763 0.0
C137 C 0.51343 1.01087 0.11618 0.0
C138 C 0.48996 0.06622 0.11181 0.0
C139 C 0.44774 1.00187 0.04048 0.0
C140 C 0.44242 0.98823 0.01387 0.0
C141 C 0.46158 0.99177 0.99302 0.0
C142 C 0.45595 0.97971 0.96729 0.0
C143 C 0.43102 0.96397 0.96197 0.0
C144 C 0.41211 0.9601 0.98316 0.0
C145 C 0.4178 0.97216 1.00893 0.0
C146 C 0.51715 0.0713 0.04795 0.0
C147 C 0.54106 1.01126 0.03991 0.0
O148 O 0.58312 0.05257 0.09984 0.0
O149 O 0.56507 0.08449 0.10349 0.0
O150 O 0.53646 0.02314 0.1246 0.0
O151 O 0.50839 0.02124 0.09614 0.0
O152 O 0.51623 0.07234 0.10898 0.0
O153 O 0.47555 0.04592 0.09942 0.0
O154 O 0.45413 0.02581 0.04012 0.0
O155 O 0.46319 0.99377 0.05634 0.0
O156 O 0.49143 0.06484 0.04727 0.0
O157 O 0.52602 0.05327 0.05419 0.0
O158 O 0.51495 1.00873 0.03851 0.0
O159 O 0.55591 0.02722 0.05769 0.0
H160 H 0.5746 0.05326 0.15456 0.0
H161 H 0.59605 0.06535 0.19843 0.0
H162 H 0.64653 0.12853 0.16487 0.0
H163 H 0.62547 0.11571 0.12067 0.0
H164 H 0.48071 1.00419 0.99652 0.0
H165 H 0.47104 0.98284 0.9515 0.0
H166 H 0.39261 0.94834 0.97963 0.0
H167 H 0.4028 0.96929 0.02484 0.0
La168 La 0.52586 0.53762 0.52599 0.0
La169 La 0.51647 0.57677 0.56838 0.0
C170 C 0.5469 0.50809 0.49638 0.0
C171 C 0.56048 0.48866 0.5021 0.0
C172 C 0.55523 0.47686 0.52623 0.0
C173 C 0.56923 0.45927 0.53213 0.0
C174 C 0.58874 0.45322 0.51401 0.0
C175 C 0.59388 0.46509 0.48982 0.0
C176 C 0.57987 0.48269 0.48395 0.0
C177 C 0.47849 0.52939 0.54931 0.0
C178 C 0.54397 0.53715 0.58802 0.0
C179 C 0.49431 0.60466 0.59924 0.0
C180 C 0.4777 0.62224 0.5953 0.0
C181 C 0.47701 0.64148 0.61521 0.0
C182 C 0.46186 0.65874 0.61128 0.0
C183 C 0.44764 0.65717 0.58717 0.0
C184 C 0.44823 0.63783 0.56732 0.0
C185 C 0.46287 0.6203 0.57155 0.0
C186 C 0.56412 0.58451 0.54631 0.0
C187 C 0.50113 0.57868 0.50556 0.0
O188 O 0.52147 0.50411 0.50221 0.0
O189 O 0.55936 0.53042 0.5045 0.0
O190 O 0.48274 0.52293 0.52405 0.0
O191 O 0.50035 0.53862 0.56054 0.0
O192 O 0.54609 0.52961 0.56199 0.0
O193 O 0.53042 0.5541 0.59585 0.0
O194 O 0.51898 0.61085 0.59074 0.0
O195 O 0.48357 0.58153 0.59241 0.0
O196 O 0.55946 0.5913 0.57143 0.0
O197 O 0.54249 0.57558 0.53444 0.0
O198 O 0.49775 0.58558 0.53163 0.0
O199 O 0.51447 0.56148 0.49819 0.0
H200 H 0.54049 0.48141 0.54065 0.0
H201 H 0.56505 0.45068 0.55107 0.0
H202 H 0.60856 0.46059 0.4753 0.0
H203 H 0.58426 0.49175 0.46531 0.0
H204 H 0.48826 0.6432 0.6337 0.0
H205 H 0.46164 0.67357 0.62682 0.0
H206 H 0.43713 0.63615 0.54873 0.0
H207 H 0.46256 0.60521 0.5563 0.0
La208 La 0.01538 0.5028 0.03906 0.0
La209 La 0.00574 0.55109 0.0234 0.0
C210 C 0.03466 0.46545 0.0426 0.0
C211 C 0.05817 0.45835 0.0533 0.0
C212 C 0.06159 0.45752 0.0813 0.0
C213 C 0.08266 0.44855 0.09073 0.0
C214 C 0.10075 0.44021 0.07239 0.0
C215 C 0.09759 0.44154 0.04445 0.0
C216 C 0.07649 0.45041 0.03504 0.0
C217 C 0.99081 0.52686 0.0761 0.0
C218 C 0.05979 0.55285 0.05125 0.0
C219 C 0.9859 0.58786 0.01897 0.0
C220 C 0.96329 0.59352 1.00508 0.0
C221 C 0.96056 0.58979 0.97675 0.0
C222 C 0.93943 0.59622 0.96412 0.0
C223 C 0.92056 0.60639 0.97957 0.0
C224 C 0.92312 0.60959 1.00798 0.0
C225 C 0.94431 0.60333 0.02055 0.0
C226 C 0.03159 0.52805 0.98705 0.0
C227 C 0.96092 0.50127 0.01169 0.0
O228 O 0.0176 0.47226 0.06009 0.0
O229 O 0.03872 0.47895 0.02187 0.0
O230 O 0.98671 0.50307 0.07288 0.0
O231 O 0.00935 0.53588 0.06049 0.0
O232 O 0.05414 0.5284 0.04801 0.0
O233 O 0.04199 0.56566 0.04619 0.0
O234 O 0.0056 0.58287 1.00381 0.0
O235 O 0.97979 0.57325 0.03861 0.0
O236 O 0.03532 0.55177 0.99079 0.0
O237 O 0.01245 0.51829 1.00174 0.0
O238 O 0.96739 0.52567 0.01378 0.0
O239 O 0.97792 0.48804 0.01798 0.0
H240 H 0.04777 0.4634 0.09594 0.0
H241 H 0.08471 0.44803 0.11239 0.0
H242 H 0.11093 0.43497 0.02976 0.0
H243 H 0.07416 0.45052 0.01334 0.0
H244 H 0.97486 0.58219 0.96427 0.0
H245 H 0.93827 0.59375 0.9422 0.0
H246 H 0.9087 0.61693 0.02057 0.0
H247 H 0.94595 0.60627 0.04243 0.0
C248 C 0.26884 0.2163 0.32537 0.0
C249 C 0.27062 0.20597 0.29863 0.0
C250 C 0.24869 0.20559 0.34292 0.0
C251 C 0.18166 0.16566 0.34201 0.0
H252 H 0.19466 0.1608 0.41799 0.0
C253 C 0.09587 0.1367 0.41787 0.0
C254 C 0.09905 0.11927 0.43565 0.0
C255 C 0.11733 0.14829 0.40235 0.0
C256 C 0.19074 0.16195 0.39679 0.0
H257 H 0.25306 0.17585 0.26962 0.0
H258 H 0.21804 0.15707 0.30032 0.0
H259 H 0.23159 0.17777 0.38825 0.0
H260 H 0.12743 0.10058 0.45125 0.0
H261 H 0.16486 0.12089 0.42431 0.0
H262 H 0.14093 0.14949 0.35037 0.0
C263 C 0.23201 0.17367 0.30757 0.0
C264 C 0.21185 0.17185 0.37982 0.0
C265 C 0.25219 0.18435 0.29004 0.0
C266 C 0.12437 0.11419 0.43808 0.0
C267 C 0.14583 0.12581 0.4226 0.0
C268 C 0.16057 0.15585 0.35897 0.0
C269 C 0.22984 0.18434 0.3341 0.0
C270 C 0.20754 0.17373 0.35222 0.0
C271 C 0.14247 0.14274 0.40429 0.0
C272 C 0.16486 0.15383 0.38654 0.0
H273 H 0.28272 0.23295 0.33265 0.0
H274 H 0.24744 0.21436 0.36316 0.0
H275 H 0.17762 0.16714 0.32092 0.0
H276 H 0.07673 0.1413 0.41584 0.0
H277 H 0.11422 0.16157 0.38877 0.0
C278 C 0.33083 0.87354 0.74531 0.0
C279 C 0.33562 0.89054 0.7254 0.0
C280 C 0.34436 0.87871 0.76987 0.0
C281 C 0.40199 0.91992 0.80502 0.0
H282 H 0.35781 0.90662 0.86919 0.0
C283 C 0.4313 0.96656 0.91162 0.0
C284 C 0.42422 0.95265 0.93413 0.0
C285 C 0.42322 0.9566 0.88558 0.0
C286 C 0.37056 0.91007 0.85151 0.0
H287 H 0.35913 0.92589 0.71527 0.0
H288 H 0.38244 0.93509 0.75837 0.0
H289 H 0.33888 0.89351 0.82451 0.0
H290 H 0.40419 0.91701 0.94682 0.0
H291 H 0.39001 0.89961 0.90128 0.0
H292 H 0.43351 0.93707 0.83221 0.0
C293 C 0.36844 0.91763 0.75485 0.0
C294 C 0.35971 0.90255 0.82587 0.0
C295 C 0.35496 0.91242 0.7302 0.0
C296 C 0.40958 0.92831 0.92993 0.0
C297 C 0.40149 0.91835 0.90387 0.0
C298 C 0.41286 0.92749 0.83073 0.0
C299 C 0.36292 0.90102 0.77515 0.0
C300 C 0.3752 0.9076 0.80232 0.0
C301 C 0.40787 0.93253 0.88148 0.0
C302 C 0.39716 0.92288 0.85423 0.0
H303 H 0.31625 0.85639 0.74216 0.0
H304 H 0.34002 0.86533 0.7849 0.0
H305 H 0.41453 0.92379 0.78727 0.0
H306 H 0.44225 0.98548 0.91422 0.0
H307 H 0.42813 0.96812 0.86882 0.0
C308 C 0.62751 0.4517 0.7817 0.0
C309 C 0.64298 0.43413 0.77531 0.0
C310 C 0.61831 0.46349 0.76119 0.0
C311 C 0.60403 0.45633 0.68734 0.0
H312 H 0.60112 0.52512 0.69821 0.0
C313 C 0.57211 0.50855 0.6016 0.0
C314 C 0.55637 0.52571 0.60902 0.0
C315 C 0.58357 0.49773 0.62145 0.0
C316 C 0.60147 0.50581 0.69489 0.0
H317 H 0.6612 0.41556 0.74214 0.0
H318 H 0.64535 0.43621 0.70647 0.0
H319 H 0.6196 0.50603 0.73339 0.0
H320 H 0.54041 0.54482 0.6434 0.0
H321 H 0.56002 0.52586 0.67779 0.0
H322 H 0.58567 0.45603 0.64895 0.0
C323 C 0.64005 0.4407 0.72735 0.0
C324 C 0.61214 0.49484 0.71513 0.0
C325 C 0.64934 0.42897 0.74787 0.0
C326 C 0.55248 0.53179 0.63683 0.0
C327 C 0.56391 0.52098 0.65664 0.0
C328 C 0.5933 0.46728 0.66711 0.0
C329 C 0.62422 0.458 0.73368 0.0
C330 C 0.61348 0.4699 0.71173 0.0
C331 C 0.57965 0.50378 0.6493 0.0
C332 C 0.59172 0.49218 0.67061 0.0
H333 H 0.62211 0.4561 0.80256 0.0
H334 H 0.60595 0.47648 0.76691 0.0
H335 H 0.60433 0.437 0.68409 0.0
H336 H 0.57573 0.5035 0.58043 0.0
H337 H 0.59582 0.48485 0.6149 0.0
C338 C 0.90704 0.63249 0.27821 0.0
C339 C 0.90702 0.65724 0.27506 0.0
C340 C 0.91635 0.61798 0.25727 0.0
C341 C 0.96096 0.62043 0.19873 0.0
H342 H 0.9146 0.55937 0.17118 0.0
C343 C 0.98826 0.56692 0.10129 0.0
C344 C 0.98043 0.54116 0.09881 0.0
C345 C 0.97911 0.58066 0.12296 0.0
C346 C 0.92808 0.5761 0.17886 0.0
H347 H 0.91737 0.68633 0.2478 0.0
H348 H 0.93446 0.66114 0.21158 0.0
H349 H 0.89994 0.58392 0.20934 0.0
H350 H 0.95727 0.5095 0.11737 0.0
H351 H 0.94222 0.53331 0.15599 0.0
H352 H 0.98953 0.61249 0.16919 0.0
C353 C 0.92695 0.65296 0.23013 0.0
C354 C 0.91955 0.59023 0.20066 0.0
C355 C 0.91711 0.66733 0.25082 0.0
C356 C 0.96344 0.52937 0.11864 0.0
C357 C 0.95466 0.5431 0.14069 0.0
C358 C 0.96972 0.6061 0.17731 0.0
C359 C 0.92636 0.62808 0.23303 0.0
C360 C 0.9358 0.61264 0.21062 0.0
C361 C 0.9624 0.569 0.1432 0.0
C362 C 0.95331 0.58384 0.16678 0.0
H363 H 0.89927 0.62416 0.2966 0.0
H364 H 0.91583 0.59888 0.26006 0.0
H365 H 0.97399 0.63752 0.20624 0.0
H366 H 1.00162 0.57655 0.08653 0.0
H367 H 0.98513 0.6005 0.12365 0.0
C368 C 0.39627 0.24564 0.17347 0.0
C369 C 0.36898 0.24147 0.17967 0.0
C370 C 0.40875 0.22597 0.16798 0.0
C371 C 0.40037 0.15888 0.17515 0.0
H372 H 0.4575 0.16542 0.12169 0.0
C373 C 0.44826 0.07884 0.12934 0.0
C374 C 0.47608 0.08442 0.12587 0.0
C375 C 0.43482 0.09724 0.13853 0.0
C376 C 0.44176 0.16341 0.13689 0.0
H377 H 0.33311 0.21333 0.18384 0.0
H378 H 0.35475 0.17884 0.17374 0.0
H379 H 0.43422 0.19861 0.13102 0.0
H380 H 0.51163 0.11355 0.13076 0.0
H381 H 0.48817 0.14548 0.1466 0.0
H382 H 0.40768 0.12319 0.18025 0.0
C383 C 0.36675 0.19737 0.174 0.0
C384 C 0.42841 0.18248 0.14232 0.0
C385 C 0.3543 0.21713 0.17982 0.0
C386 C 0.49021 0.10853 0.13311 0.0
C387 C 0.47677 0.12692 0.14201 0.0
C388 C 0.41358 0.13962 0.16945 0.0
C389 C 0.39419 0.20153 0.16804 0.0
C390 C 0.40769 0.18064 0.16172 0.0
C391 C 0.44889 0.12162 0.14416 0.0
C392 C 0.4346 0.14181 0.15044 0.0
H393 H 0.40816 0.26421 0.1734 0.0
H394 H 0.42997 0.23002 0.16404 0.0
H395 H 0.38475 0.15686 0.19045 0.0
H396 H 0.43673 0.06046 0.124 0.0
H397 H 0.41332 0.09262 0.13997 0.0
C398 C 0.19929 0.88485 0.61252 0.0
C399 C 0.20064 0.88737 0.64101 0.0
C400 C 0.18062 0.89422 0.5992 0.0
C401 C 0.1187 0.91737 0.61069 0.0
H402 H 0.14417 0.95565 0.54965 0.0
C403 C 0.06893 0.99205 0.57817 0.0
C404 C 0.06514 0.99314 0.55037 0.0
C405 C 0.08376 0.97622 0.58695 0.0
C406 C 0.13665 0.94471 0.56639 0.0
H407 H 0.18303 0.90111 0.67786 0.0
H408 H 0.15089 0.91772 0.65472 0.0
H409 H 0.17288 0.93246 0.56921 0.0
H410 H 0.07395 0.97888 0.50985 0.0
H411 H 0.10046 0.95131 0.52527 0.0
H412 H 0.08285 0.93039 0.60846 0.0
C413 C 0.16392 0.90821 0.64261 0.0
C414 C 0.15304 0.93137 0.57757 0.0
C415 C 0.18251 0.89883 0.6559 0.0
C416 C 0.07668 0.97836 0.53141 0.0
C417 C 0.0918 0.96265 0.54021 0.0
C418 C 0.10241 0.9308 0.59963 0.0
C419 C 0.16294 0.90627 0.61411 0.0
C420 C 0.14446 0.918 0.60023 0.0
C421 C 0.0953 0.96134 0.56809 0.0
C422 C 0.11145 0.94502 0.57776 0.0
H423 H 0.21293 0.87601 0.60048 0.0
H424 H 0.18015 0.89219 0.57723 0.0
H425 H 0.11129 0.90684 0.62777 0.0
H426 H 0.06033 1.00335 0.5932 0.0
H427 H 0.0865 0.97589 0.60854 0.0
C428 C 0.74578 0.38533 0.91351 0.0
C429 C 0.73322 0.40083 0.90013 0.0
C430 C 0.7697 0.3949 0.92746 0.0
C431 C 0.81075 0.45325 0.95881 0.0
H432 H 0.86956 0.42052 0.94817 0.0
C433 C 0.91743 0.50237 0.99053 0.0
C434 C 0.93435 0.48867 1.00057 0.0
C435 C 0.8926 0.49071 0.97975 0.0
C436 C 0.85328 0.42977 0.95176 0.0
H437 H 0.73597 0.43864 0.89129 0.0
H438 H 0.7772 0.45518 0.91559 0.0
H439 H 0.82664 0.40166 0.92757 0.0
H440 H 0.93804 0.45175 1.0072 0.0
H441 H 0.89453 0.43144 0.9889 0.0
H442 H 0.8371 0.48128 0.98304 0.0
C443 C 0.76863 0.43566 0.91548 0.0
C444 C 0.82861 0.41892 0.93989 0.0
C445 C 0.745 0.42611 0.90137 0.0
C446 C 0.92564 0.46293 0.99959 0.0
C447 C 0.90067 0.45124 0.98891 0.0
C448 C 0.83529 0.464 0.97082 0.0
C449 C 0.78143 0.42022 0.92862 0.0
C450 C 0.80713 0.4307 0.94292 0.0
C451 C 0.88374 0.46496 0.97881 0.0
C452 C 0.85709 0.45265 0.96716 0.0
H453 H 0.73754 0.36575 0.91269 0.0
H454 H 0.77897 0.38248 0.93743 0.0
H455 H 0.79454 0.46265 0.96201 0.0
H456 H 0.92344 0.5222 0.99072 0.0
H457 H 0.88051 0.50197 0.97174 0.0
C458 C 0.79136 0.64851 0.4633 0.0
C459 C 0.79523 0.64934 0.43511 0.0
C460 C 0.76643 0.63831 0.47405 0.0
C461 C 0.69534 0.62533 0.45755 0.0
H462 H 0.68756 0.58892 0.52171 0.0
C463 C 0.59254 0.58577 0.50447 0.0
C464 C 0.59042 0.58919 0.53284 0.0
C465 C 0.61742 0.59074 0.49161 0.0
C466 C 0.68943 0.5992 0.50389 0.0
H467 H 0.77611 0.6393 0.39603 0.0
H468 H 0.73255 0.6212 0.41483 0.0
H469 H 0.73129 0.60105 0.50051 0.0
H470 H 0.61249 0.60028 0.57008 0.0
H471 H 0.65603 0.60922 0.54765 0.0
H472 H 0.65355 0.62374 0.46112 0.0
C473 C 0.74877 0.62881 0.42863 0.0
C474 C 0.71448 0.60614 0.49173 0.0
C475 C 0.77377 0.63903 0.41785 0.0
C476 C 0.61361 0.59748 0.54817 0.0
C477 C 0.63852 0.6024 0.53533 0.0
C478 C 0.67029 0.61835 0.46968 0.0
C479 C 0.74473 0.62864 0.45689 0.0
C480 C 0.7178 0.61955 0.4686 0.0
C481 C 0.6407 0.59923 0.50688 0.0
C482 C 0.66709 0.60545 0.49318 0.0
H483 H 0.80745 0.65628 0.4772 0.0
H484 H 0.76398 0.63877 0.4959 0.0
H485 H 0.69722 0.63597 0.44002 0.0
H486 H 0.57493 0.5795 0.49215 0.0
H487 H 0.61843 0.58788 0.4697 0.0
C488 C 0.29109 0.35654 0.1331 0.0
C489 C 0.28578 0.34042 0.15388 0.0
C490 C 0.27091 0.36645 0.12327 0.0
C491 C 0.19755 0.35875 0.12117 0.0
H492 H 0.21515 0.42795 0.10838 0.0
C493 C 0.11713 0.41295 0.10275 0.0
C494 C 0.12227 0.42933 0.08221 0.0
C495 C 0.13702 0.40191 0.11119 0.0
C496 C 0.20995 0.40855 0.11157 0.0
H497 H 0.25487 0.32158 0.18011 0.0
H498 H 0.21976 0.33901 0.16315 0.0
H499 H 0.24966 0.40842 0.12282 0.0
H500 H 0.15257 0.44731 0.05482 0.0
H501 H 0.18721 0.42788 0.06936 0.0
H502 H 0.15776 0.35898 0.11009 0.0
C503 C 0.23946 0.34382 0.15423 0.0
C504 C 0.22976 0.39732 0.1198 0.0
C505 C 0.25964 0.33389 0.16405 0.0
C506 C 0.14789 0.43463 0.07054 0.0
C507 C 0.16781 0.42366 0.07905 0.0
C508 C 0.17772 0.37001 0.11298 0.0
C509 C 0.24492 0.36051 0.13399 0.0
C510 C 0.22383 0.37227 0.12471 0.0
C511 C 0.16258 0.40705 0.09937 0.0
C512 C 0.18367 0.39505 0.1081 0.0
H513 H 0.31097 0.36189 0.12472 0.0
H514 H 0.27572 0.37889 0.10733 0.0
H515 H 0.19234 0.33936 0.12441 0.0
H516 H 0.09755 0.40827 0.11197 0.0
H517 H 0.13241 0.38942 0.1271 0.0
C518 C 0.65567 0.26049 0.96036 0.0
C519 C 0.6398 0.27634 0.95295 0.0
C520 C 0.64405 0.23808 0.97116 0.0
C521 C 0.57921 0.19305 0.97442 0.0
H522 H 0.61043 0.16899 0.03411 0.0
C523 C 0.51999 0.11279 0.03156 0.0
C524 C 0.53303 0.09481 0.03889 0.0
C525 C 0.53431 0.13458 0.02162 0.0
C526 C 0.60159 0.17529 0.01723 0.0
H527 H 0.59922 0.28107 0.95174 0.0
H528 H 0.57921 0.24253 0.97063 0.0
H529 H 0.63311 0.20749 0.01568 0.0
H530 H 0.57151 0.08584 0.04221 0.0
H531 H 0.59673 0.12404 0.02467 0.0
H532 H 0.54772 0.16109 0.97589 0.0
C533 C 0.60057 0.24706 0.9677 0.0
C534 C 0.61462 0.1974 1.00664 0.0
C535 C 0.61213 0.26935 0.95699 0.0
C536 C 0.56091 0.09937 0.03668 0.0
C537 C 0.57534 0.1213 0.02672 0.0
C538 C 0.56624 0.17106 0.98497 0.0
C539 C 0.61627 0.23094 0.97472 0.0
C540 C 0.6034 0.20676 0.98531 0.0
C541 C 0.56216 0.13907 0.01868 0.0
C542 C 0.577 0.16199 1.00678 0.0
H543 H 0.67704 0.26525 0.95755 0.0
H544 H 0.65678 0.22612 0.97617 0.0
H545 H 0.57023 0.19926 0.95756 0.0
H546 H 0.49855 0.10994 0.03326 0.0
H547 H 0.52347 0.14799 0.01625 0.0
C548 C 0.92077 0.76666 0.42459 0.0
C549 C 0.91476 0.76382 0.39677 0.0
C550 C 0.93049 0.78998 0.43757 0.0
C551 C 0.92874 0.85453 0.43241 0.0
H552 H 0.98277 0.8672 0.48785 0.0
C553 C 0.96708 0.95138 0.48669 0.0
C554 C 0.97338 0.95291 0.51434 0.0
C555 C 0.9605 0.92856 0.47168 0.0
C556 C 0.9674 0.86391 0.47268 0.0
H557 H 0.91538 0.78327 0.36056 0.0
H558 H 0.9324 0.82407 0.38332 0.0
H559 H 0.97214 0.82714 0.4622 0.0
H560 H 0.97689 0.93151 0.5481 0.0
H561 H 0.96474 0.89175 0.52217 0.0
H562 H 0.92353 0.89104 0.44322 0.0
C563 C 0.92934 0.80818 0.39507 0.0
C564 C 0.96142 0.84097 0.45788 0.0
C565 C 0.91981 0.78479 0.382 0.0
C566 C 0.97225 0.93103 0.52681 0.0
C567 C 0.96552 0.90821 0.51185 0.0
C568 C 0.9346 0.87743 0.44733 0.0
C569 C 0.93429 0.81107 0.42312 0.0
C570 C 0.94191 0.83595 0.43767 0.0
C571 C 0.95992 0.90667 0.48399 0.0
C572 C 0.95389 0.88238 0.46779 0.0
H573 H 0.91716 0.75091 0.43659 0.0
H574 H 0.93394 0.79155 0.45922 0.0
H575 H 0.9133 0.85112 0.41729 0.0
H576 H 0.96795 0.96786 0.47636 0.0
H577 H 0.9566 0.92816 0.45023 0.0
C578 C 0.31567 0.80883 0.60549 0.0
C579 C 0.32671 0.83214 0.59666 0.0
C580 C 0.3268 0.78879 0.59732 0.0
C581 C 0.39087 0.77549 0.57281 0.0
H582 H 0.35029 0.70824 0.57244 0.0
C583 C 0.43734 0.68941 0.55988 0.0
C584 C 0.4322 0.67571 0.58271 0.0
C585 C 0.42335 0.70762 0.55623 0.0
C586 C 0.36178 0.72695 0.57228 0.0
H587 H 0.35693 0.85243 0.57084 0.0
H588 H 0.37582 0.81716 0.55564 0.0
H589 H 0.327 0.74184 0.57325 0.0
H590 H 0.40818 0.66953 0.61914 0.0
H591 H 0.3831 0.70098 0.61234 0.0
H592 H 0.42562 0.76029 0.57166 0.0
C593 C 0.35908 0.81451 0.56964 0.0
C594 C 0.34853 0.74623 0.57293 0.0
C595 C 0.34815 0.83471 0.57817 0.0
C596 C 0.41248 0.67999 0.60146 0.0
C597 C 0.39809 0.69778 0.59749 0.0
C598 C 0.40408 0.75615 0.57157 0.0
C599 C 0.34903 0.79145 0.57975 0.0
C600 C 0.3629 0.77082 0.57419 0.0
C601 C 0.40361 0.71188 0.57501 0.0
C602 C 0.38963 0.73183 0.57215 0.0
H603 H 0.29919 0.80624 0.61983 0.0
H604 H 0.3187 0.77153 0.60598 0.0
H605 H 0.40269 0.79411 0.57412 0.0
H606 H 0.45256 0.68639 0.54524 0.0
H607 H 0.42792 0.71837 0.5388 0.0
C608 C 0.75339 0.79412 0.76048 0.0
C609 C 0.74337 0.80079 0.78608 0.0
C610 C 0.77285 0.81077 0.74736 0.0
C611 C 0.82548 0.86686 0.76142 0.0
H612 H 0.82727 0.86701 0.68297 0.0
C613 C 0.9029 0.93582 0.70294 0.0
C614 C 0.91506 0.92567 0.6803 0.0
C615 C 0.88127 0.92156 0.71606 0.0
C616 C 0.82709 0.86705 0.70489 0.0
H617 H 0.74655 0.83015 0.81819 0.0
H618 H 0.77958 0.85962 0.79479 0.0
H619 H 0.78977 0.8412 0.70518 0.0
H620 H 0.91401 0.89273 0.65353 0.0
H621 H 0.87615 0.8678 0.67642 0.0
H622 H 0.86279 0.89292 0.76099 0.0
C623 C 0.77249 0.84139 0.78491 0.0
C624 C 0.80563 0.85225 0.71764 0.0
C625 C 0.75308 0.82464 0.79813 0.0
C626 C 0.90517 0.90097 0.67106 0.0
C627 C 0.88336 0.88679 0.68399 0.0
C628 C 0.84683 0.88185 0.74866 0.0
C629 C 0.78283 0.83457 0.75947 0.0
C630 C 0.80471 0.85169 0.74606 0.0
C631 C 0.87117 0.89695 0.7066 0.0
C632 C 0.848 0.88186 0.72024 0.0
H633 H 0.74649 0.77582 0.7507 0.0
H634 H 0.78064 0.80465 0.72805 0.0
H635 H 0.8257 0.86664 0.78329 0.0
H636 H 0.91024 0.95477 0.71061 0.0
H637 H 0.87219 0.9299 0.73335 0.0
C638 C 0.74162 0.17835 0.3968 0.0
C639 C 0.7249 0.17555 0.4198 0.0
C640 C 0.73234 0.16756 0.3714 0.0
C641 C 0.67767 0.12137 0.33711 0.0
H642 H 0.6964 0.16206 0.27674 0.0
C643 C 0.6208 0.103 0.23608 0.0
C644 C 0.63596 0.10536 0.21196 0.0
C645 C 0.63292 0.10992 0.26126 0.0
C646 C 0.69127 0.15035 0.29332 0.0
H647 H 0.68559 0.15862 0.43433 0.0
H648 H 0.66921 0.14028 0.38995 0.0
H649 H 0.71548 0.17663 0.32115 0.0
H650 H 0.67588 0.11645 0.19548 0.0
H651 H 0.69695 0.12896 0.23951 0.0
H652 H 0.65283 0.09541 0.30924 0.0
C653 C 0.68964 0.15045 0.39157 0.0
C654 C 0.70225 0.15865 0.31877 0.0
C655 C 0.69899 0.16109 0.41701 0.0
C656 C 0.66355 0.11479 0.21363 0.0
C657 C 0.67565 0.12186 0.23882 0.0
C658 C 0.66654 0.11315 0.31166 0.0
C659 C 0.70608 0.15389 0.36839 0.0
C660 C 0.69545 0.14434 0.34103 0.0
C661 C 0.66044 0.11951 0.26287 0.0
C662 C 0.67309 0.12765 0.28957 0.0
H663 H 0.76179 0.18918 0.39831 0.0
H664 H 0.7457 0.17015 0.35407 0.0
H665 H 0.67233 0.10972 0.35371 0.0
H666 H 0.59945 0.09619 0.23551 0.0
H667 H 0.62066 0.10827 0.27946 0.0
C668 C 0.4181 0.69932 0.34116 0.0
C669 C 0.42456 0.69344 0.31392 0.0
C670 C 0.42693 0.68788 0.36223 0.0
C671 C 0.4758 0.65038 0.3779 0.0
H672 H 0.42875 0.63386 0.43935 0.0
C673 C 0.49596 0.58541 0.45639 0.0
C674 C 0.4915 0.59176 0.48405 0.0
C675 C 0.48796 0.59822 0.4361 0.0
C676 C 0.44228 0.63855 0.42249 0.0
H677 H 0.44564 0.67092 0.28766 0.0
H678 H 0.46057 0.65073 0.32412 0.0
H679 H 0.415 0.65551 0.40343 0.0
H680 H 0.47502 0.61688 0.51171 0.0
H681 H 0.46082 0.63897 0.47642 0.0
H682 H 0.50287 0.63303 0.39683 0.0
C683 C 0.44909 0.66452 0.32941 0.0
C684 C 0.43441 0.65107 0.40182 0.0
C685 C 0.44039 0.67606 0.30837 0.0
C686 C 0.47857 0.6112 0.49075 0.0
C687 C 0.47038 0.62391 0.47042 0.0
C688 C 0.48357 0.63772 0.39847 0.0
C689 C 0.44236 0.6701 0.3567 0.0
C690 C 0.45101 0.65715 0.37913 0.0
C691 C 0.47512 0.61771 0.44279 0.0
C692 C 0.4669 0.63154 0.42104 0.0
H693 H 0.40602 0.71266 0.34626 0.0
H694 H 0.42168 0.69309 0.38292 0.0
H695 H 0.48944 0.65508 0.36115 0.0
H696 H 0.50584 0.57058 0.45031 0.0
H697 H 0.49166 0.59267 0.41508 0.0
C698 C 0.12387 0.4034 0.80913 0.0
C699 C 0.14534 0.41591 0.79393 0.0
C700 C 0.11258 0.41575 0.83051 0.0
C701 C 0.10561 0.47763 0.85749 0.0
H702 H 0.08384 0.44538 0.92345 0.0
C703 C 0.06728 0.52802 0.95196 0.0
C704 C 0.04538 0.51494 0.96602 0.0
C705 C 0.08019 0.51604 0.93155 0.0
C706 C 0.08954 0.45454 0.90507 0.0
H707 H 0.17178 0.45135 0.78945 0.0
H708 H 0.1521 0.47294 0.82697 0.0
H709 H 0.10543 0.42464 0.8869 0.0
H710 H 0.01966 0.47909 0.96975 0.0
H711 H 0.04215 0.45804 0.93398 0.0
H712 H 0.0896 0.50748 0.8756 0.0
C713 C 0.14387 0.45355 0.82211 0.0
C714 C 0.10195 0.44267 0.8841 0.0
C715 C 0.15524 0.44115 0.80068 0.0
C716 C 0.03667 0.48957 0.9594 0.0
C717 C 0.04961 0.47754 0.93896 0.0
C718 C 0.0932 0.48951 0.87846 0.0
C719 C 0.12241 0.44097 0.83731 0.0
C720 C 0.11003 0.45401 0.85999 0.0
C721 C 0.07145 0.49067 0.92467 0.0
C722 C 0.08492 0.47808 0.90248 0.0
H723 H 0.11563 0.38397 0.80451 0.0
H724 H 0.09582 0.40555 0.84146 0.0
H725 H 0.1112 0.48675 0.83907 0.0
H726 H 0.07449 0.54759 0.95673 0.0
H727 H 0.09717 0.52666 0.92128 0.0
C728 C 0.62466 0.8722 0.87064 0.0
C729 C 0.65187 0.87244 0.87238 0.0
C730 C 0.61314 0.88825 0.88776 0.0
C731 C 0.62858 0.94573 0.93286 0.0
H732 H 0.56024 0.91876 0.96552 0.0
C733 C 0.58181 0.99811 0.0206 0.0
C734 C 0.5542 0.99636 0.01995 0.0
C735 C 0.59404 0.98371 1.00199 0.0
C736 C 0.57916 0.92669 0.95633 0.0
H737 H 0.68846 0.89017 0.8931 0.0
H738 H 0.66828 0.91807 0.92313 0.0
H739 H 0.58101 0.89269 0.93389 0.0
H740 H 0.51788 0.97819 0.9989 0.0
H741 H 0.53922 0.95341 0.96639 0.0
H742 H 0.62671 0.97975 0.95542 0.0
C743 C 0.6559 0.90559 0.90835 0.0
C744 C 0.59108 0.91173 0.93818 0.0
C745 C 0.66744 0.88951 0.89122 0.0
C746 C 0.53917 0.98 1.00012 0.0
C747 C 0.55139 0.96565 0.98153 0.0
C748 C 0.61663 0.96073 0.95103 0.0
C749 C 0.62854 0.90493 0.90704 0.0
C750 C 0.61591 0.92106 0.92619 0.0
C751 C 0.57895 0.96721 0.98232 0.0
C752 C 0.59176 0.95138 0.96296 0.0
H753 H 0.61211 0.8594 0.85626 0.0
H754 H 0.59211 0.88756 0.88591 0.0
H755 H 0.64757 0.95356 0.92374 0.0
H756 H 0.59401 1.01046 0.03562 0.0
H757 H 0.61526 0.98516 1.00337 0.0
C758 C 0.81803 0.16269 0.50956 0.0
C759 C 0.79695 0.16289 0.52819 0.0
C760 C 0.83649 0.14836 0.51315 0.0
C761 C 0.86905 0.12372 0.56355 0.0
H762 H 0.87724 0.07147 0.50936 0.0
C763 C 0.93115 0.05485 0.58583 0.0
C764 C 0.94599 0.0458 0.56473 0.0
C765 C 0.91276 0.06863 0.58039 0.0
C766 C 0.87561 0.08624 0.52449 0.0
H767 H 0.77884 0.14872 0.56536 0.0
H768 H 0.81186 0.12436 0.57216 0.0
H769 H 0.84622 0.09745 0.50162 0.0
H770 H 0.95281 0.04331 0.5213 0.0
H771 H 0.9217 0.06868 0.51173 0.0
H772 H 0.89897 0.11353 0.58606 0.0
C773 C 0.81373 0.135 0.55462 0.0
C774 C 0.85772 0.10097 0.52008 0.0
C775 C 0.7949 0.14886 0.5507 0.0
C776 C 0.94178 0.05035 0.53794 0.0
C777 C 0.92374 0.06468 0.5325 0.0
C778 C 0.88732 0.1094 0.56772 0.0
C779 C 0.83449 0.1345 0.53574 0.0
C780 C 0.85411 0.11958 0.53976 0.0
C781 C 0.90919 0.07423 0.55374 0.0
C782 C 0.89056 0.09018 0.54847 0.0
H783 H 0.81995 0.17321 0.49192 0.0
H784 H 0.85247 0.14826 0.49844 0.0
H785 H 0.86675 0.13821 0.57882 0.0
H786 H 0.93377 0.05132 0.60667 0.0
H787 H 0.90137 0.0749 0.59721 0.0
C788 C 0.26929 0.6605 0.16569 0.0
C789 C 0.27269 0.68613 0.16516 0.0
C790 C 0.24754 0.6444 0.15277 0.0
C791 C 0.19719 0.64245 0.09966 0.0
H792 H 0.15781 0.58495 0.1331 0.0
C793 C 0.09264 0.59214 0.06414 0.0
C794 C 0.08581 0.5663 0.06278 0.0
C795 C 0.1166 0.60515 0.07562 0.0
C796 C 0.16881 0.60075 0.1233 0.0
H797 H 0.25546 0.7148 0.151 0.0
H798 H 0.21773 0.687 0.129 0.0
H799 H 0.19732 0.61055 0.15535 0.0
H800 H 0.09913 0.5339 0.07249 0.0
H801 H 0.14114 0.55674 0.09264 0.0
H802 H 0.16858 0.63296 0.06787 0.0
C803 C 0.23204 0.6792 0.13886 0.0
C804 C 0.19148 0.61544 0.13607 0.0
C805 C 0.25367 0.6952 0.15171 0.0
C806 C 0.10374 0.55379 0.07315 0.0
C807 C 0.12775 0.56688 0.08486 0.0
C808 C 0.17457 0.62785 0.08699 0.0
C809 C 0.22873 0.65356 0.13897 0.0
C810 C 0.20572 0.63675 0.12464 0.0
C811 C 0.13448 0.59276 0.08621 0.0
C812 C 0.15979 0.60704 0.09883 0.0
H813 H 0.28356 0.65287 0.17584 0.0
H814 H 0.24573 0.62478 0.15315 0.0
H815 H 0.20798 0.65833 0.08987 0.0
H816 H 0.07938 0.60246 0.05642 0.0
H817 H 0.12089 0.62505 0.07665 0.0
C818 C 0.28991 0.44187 0.69395 0.0
C819 C 0.26529 0.43423 0.68088 0.0
C820 C 0.31238 0.45393 0.68007 0.0
C821 C 0.334 0.48597 0.61713 0.0
H822 H 0.40172 0.47125 0.63304 0.0
C823 C 0.4295 0.51124 0.55029 0.0
C824 C 0.45327 0.52119 0.56424 0.0
C825 C 0.40601 0.50218 0.56459 0.0
C826 C 0.38299 0.47572 0.62854 0.0
H827 H 0.24494 0.43345 0.64297 0.0
H828 H 0.28423 0.45373 0.61847 0.0
H829 H 0.36198 0.45239 0.65768 0.0
H830 H 0.47112 0.52985 0.60403 0.0
H831 H 0.43026 0.51381 0.62893 0.0
H832 H 0.35523 0.50876 0.5873 0.0
C833 C 0.28615 0.451 0.63967 0.0
C834 C 0.36016 0.46499 0.64276 0.0
C835 C 0.26359 0.43922 0.65369 0.0
C836 C 0.45307 0.52229 0.59273 0.0
C837 C 0.42973 0.51298 0.60698 0.0
C838 C 0.35685 0.49647 0.60264 0.0
C839 C 0.31095 0.45836 0.65259 0.0
C840 C 0.33531 0.47001 0.63738 0.0
C841 C 0.40599 0.50261 0.59308 0.0
C842 C 0.38161 0.49153 0.60829 0.0
H843 H 0.29186 0.4385 0.71497 0.0
H844 H 0.33091 0.45978 0.69096 0.0
H845 H 0.31538 0.49062 0.61264 0.0
H846 H 0.42912 0.5102 0.52832 0.0
H847 H 0.38805 0.49417 0.55333 0.0
C848 C 0.74987 0.66892 0.84949 0.0
C849 C 0.74329 0.69063 0.86121 0.0
C850 C 0.76728 0.65783 0.86254 0.0
C851 C 0.79781 0.6566 0.92939 0.0
H852 H 0.85142 0.63161 0.88603 0.0
C853 C 0.89077 0.63592 0.97591 0.0
C854 C 0.8987 0.61424 0.96615 0.0
C855 C 0.87047 0.64353 0.96328 0.0
C856 C 0.83635 0.63823 0.89837 0.0
H857 H 0.74965 0.71758 0.89594 0.0
H858 H 0.78029 0.69853 0.91844 0.0
H859 H 0.81826 0.64799 0.86375 0.0
H860 H 0.89113 0.58341 0.93553 0.0
H861 H 0.85591 0.597 0.91319 0.0
H862 H 0.81634 0.64733 0.96404 0.0
C863 C 0.77168 0.68979 0.8994 0.0
C864 C 0.81731 0.64758 0.88561 0.0
C865 C 0.75421 0.70082 0.88641 0.0
C866 C 0.8858 0.60038 0.94336 0.0
C867 C 0.86558 0.60812 0.9306 0.0
C868 C 0.81693 0.64739 0.94213 0.0
C869 C 0.77856 0.66823 0.88756 0.0
C870 C 0.79795 0.6571 0.90099 0.0
C871 C 0.8577 0.62976 0.94045 0.0
C872 C 0.83656 0.63832 0.92678 0.0
H873 H 0.74171 0.66055 0.83013 0.0
H874 H 0.77184 0.64105 0.85303 0.0
H875 H 0.78289 0.66333 0.94182 0.0
H876 H 0.9006 0.64734 0.99304 0.0
H877 H 0.86514 0.66052 0.97106 0.0
C878 C 0.39194 0.81234 0.19614 0.0
C879 C 0.40805 0.79822 0.20683 0.0
C880 C 0.40295 0.83554 0.1872 0.0
C881 C 0.46513 0.88553 0.189 0.0
H882 H 0.43098 0.90653 0.12925 0.0
C883 C 0.5002 0.98398 0.15427 0.0
C884 C 0.49856 0.98762 0.12669 0.0
C885 C 0.48848 0.96133 0.16426 0.0
C886 C 0.44108 0.90099 0.14573 0.0
H887 H 0.44857 0.7977 0.21655 0.0
H888 H 0.46804 0.83779 0.20005 0.0
H889 H 0.41334 0.86641 0.14544 0.0
H890 H 0.4843 0.97003 0.08772 0.0
H891 H 0.46425 0.93037 0.10471 0.0
H892 H 0.49373 0.91957 0.1883 0.0
C893 C 0.44668 0.83125 0.19919 0.0
C894 C 0.4306 0.87794 0.15544 0.0
C895 C 0.43554 0.80812 0.2086 0.0
C896 C 0.48497 0.96808 0.10923 0.0
C897 C 0.4736 0.94523 0.11909 0.0
C898 C 0.47585 0.90845 0.17902 0.0
C899 C 0.43056 0.84531 0.18813 0.0
C900 C 0.44228 0.86985 0.17741 0.0
C901 C 0.4753 0.94138 0.14679 0.0
C902 C 0.46392 0.91669 0.15732 0.0
H903 H 0.37063 0.80548 0.19472 0.0
H904 H 0.3896 0.84584 0.17965 0.0
H905 H 0.47469 0.88032 0.20608 0.0
H906 H 0.51072 0.9987 0.16819 0.0
H907 H 0.48985 0.95955 0.18576 0.0
C908 C 0.13882 0.25399 0.71621 0.0
C909 C 0.14211 0.27587 0.7032 0.0
C910 C 0.12963 0.23117 0.70189 0.0
C911 C 0.09061 0.20306 0.6417 0.0
H912 H 0.11819 0.14586 0.65419 0.0
C913 C 0.05422 0.10986 0.58027 0.0
C914 C 0.04974 0.08859 0.59451 0.0
C915 C 0.06709 0.1326 0.59265 0.0
C916 C 0.11008 0.1616 0.65067 0.0
H917 H 0.13906 0.29085 0.66467 0.0
H918 H 0.12315 0.25099 0.63963 0.0
H919 H 0.13829 0.18579 0.67704 0.0
H920 H 0.05551 0.07455 0.63292 0.0
H921 H 0.07764 0.11432 0.65467 0.0
H922 H 0.06216 0.17891 0.61568 0.0
C923 C 0.12738 0.25153 0.66102 0.0
C924 C 0.12165 0.1845 0.66373 0.0
C925 C 0.13665 0.27437 0.67534 0.0
C926 C 0.05872 0.09055 0.62134 0.0
C927 C 0.07154 0.11335 0.63377 0.0
C928 C 0.07902 0.18018 0.6287 0.0
C929 C 0.12344 0.22967 0.67421 0.0
C930 C 0.11197 0.20548 0.65949 0.0
C931 C 0.07573 0.13469 0.61963 0.0
C932 C 0.08853 0.15913 0.63309 0.0
H933 H 0.14283 0.25446 0.73765 0.0
H934 H 0.12658 0.21474 0.71273 0.0
H935 H 0.08236 0.21875 0.63834 0.0
H936 H 0.04775 0.10902 0.55949 0.0
H937 H 0.07036 0.14856 0.58099 0.0
C938 C 0.72769 0.30467 0.51803 0.0
C939 C 0.71418 0.2803 0.52097 0.0
C940 C 0.71456 0.32397 0.52314 0.0
C941 C 0.64666 0.33428 0.52287 0.0
H942 H 0.68032 0.40054 0.55029 0.0
C943 C 0.59003 0.41237 0.53055 0.0
C944 C 0.60347 0.43438 0.52009 0.0
C945 C 0.60363 0.3941 0.53503 0.0
C946 C 0.67071 0.38212 0.54253 0.0
H947 H 0.67702 0.25722 0.5336 0.0
H948 H 0.65434 0.29089 0.5431 0.0
H949 H 0.70425 0.36748 0.55148 0.0
H950 H 0.64191 0.45491 0.50718 0.0
H951 H 0.66559 0.42281 0.51457 0.0
H952 H 0.61335 0.34888 0.51348 0.0
C953 C 0.67482 0.29506 0.5361 0.0
C954 C 0.6844 0.36321 0.54319 0.0
C955 C 0.68786 0.27577 0.53079 0.0
C956 C 0.63095 0.438 0.51491 0.0
C957 C 0.64457 0.41975 0.51947 0.0
C958 C 0.63298 0.35312 0.5223 0.0
C959 C 0.68772 0.31927 0.53148 0.0
C960 C 0.67263 0.33911 0.53308 0.0
C961 C 0.63098 0.39748 0.52922 0.0
C962 C 0.64496 0.3773 0.5318 0.0
H963 H 0.74799 0.30874 0.51049 0.0
H964 H 0.72505 0.34237 0.5192 0.0
H965 H 0.63718 0.31606 0.51438 0.0
H966 H 0.56883 0.40897 0.5346 0.0
H967 H 0.59267 0.37721 0.5428 0.0
loop_
_geom_bond_atom_site_label_1
_geom_bond_atom_site_label_2
_geom_bond_distance
_geom_bond_site_symmetry_2
_ccdc_geom_bond_type
O0 Cd1 2.300 . S
O0 C7 1.275 . S
Cd1 O0 2.300 . S
Cd1 O9 2.381 . S
Cd1 O10 2.378 . S
O2 Cd3 2.385 . S
O2 C7 1.255 . S
Cd3 O2 2.385 . S
Cd3 O4 2.317 . S
O4 Cd3 2.317 . S
O4 C5 1.232 . S
C5 O4 1.232 . S
C5 O6 1.218 . S
O6 C5 1.218 . S
C7 O0 1.275 . S
C7 O2 1.255 . S
C8 O9 1.258 . S
C8 O10 1.256 . S
O9 Cd1 2.381 . S
O9 C8 1.258 . S
O10 Cd1 2.378 . S
O10 C8 1.256 . S
O11 Cd12 2.300 . S
O11 C18 1.275 . S
Cd12 O11 2.300 . S
Cd12 O20 2.381 . S
Cd12 O21 2.378 . S
O13 Cd14 2.385 . S
O13 C18 1.255 . S
Cd14 O13 2.385 . S
Cd14 O15 2.317 . S
O15 Cd14 2.317 . S
O15 C16 1.232 . S
C16 O15 1.232 . S
C16 O17 1.218 . S
O17 C16 1.218 . S
C18 O11 1.275 . S
C18 O13 1.255 . S
C19 O20 1.258 . S
C19 O21 1.256 . S
O20 Cd12 2.381 . S
O20 C19 1.258 . S
O21 Cd12 2.378 . S
O21 C19 1.256 . S
O22 Cd23 2.300 . S
O22 C29 1.275 . S
Cd23 O22 2.300 . S
Cd23 O31 2.381 . S
Cd23 O32 2.378 . S
O24 Cd25 2.385 . S
O24 C29 1.255 . S
Cd25 O24 2.385 . S
Cd25 O26 2.317 . S
O26 Cd25 2.317 . S
O26 C27 1.232 . S
C27 O26 1.232 . S
C27 O28 1.218 . S
O28 C27 1.218 . S
C29 O22 1.275 . S
C29 O24 1.255 . S
C30 O31 1.258 . S
C30 O32 1.256 . S
O31 Cd23 2.381 . S
O31 C30 1.258 . S
O32 Cd23 2.378 . S
O32 C30 1.256 . S
O33 Cd34 2.300 . S
O33 C40 1.275 . S
Cd34 O33 2.300 . S
Cd34 O42 2.381 . S
Cd34 O43 2.378 . S
O35 Cd36 2.385 . S
O35 C40 1.255 . S
Cd36 O35 2.385 . S
Cd36 O37 2.317 . S
O37 Cd36 2.317 . S
O37 C38 1.232 . S
C38 O37 1.232 . S
C38 O39 1.218 . S
O39 C38 1.218 . S
C40 O33 1.275 . S
C40 O35 1.255 . S
C41 O42 1.258 . S
C41 O43 1.256 . S
O42 Cd34 2.381 . S
O42 C41 1.258 . S
O43 Cd34 2.378 . S
O43 C41 1.256 . S
O44 Cd45 2.300 . S
O44 C51 1.275 . S
Cd45 O44 2.300 . S
Cd45 O53 2.381 . S
Cd45 O54 2.378 . S
O46 Cd47 2.385 . S
O46 C51 1.255 . S
Cd47 O46 2.385 . S
Cd47 O48 2.317 . S
O48 Cd47 2.317 . S
O48 C49 1.232 . S
C49 O48 1.232 . S
C49 O50 1.218 . S
O50 C49 1.218 . S
C51 O44 1.275 . S
C51 O46 1.255 . S
C52 O53 1.258 . S
C52 O54 1.256 . S
O53 Cd45 2.381 . S
O53 C52 1.258 . S
O54 Cd45 2.378 . S
O54 C52 1.256 . S
O55 Cd56 2.300 . S
O55 C62 1.275 . S
Cd56 O55 2.300 . S
Cd56 O64 2.381 . S
Cd56 O65 2.378 . S
O57 Cd58 2.385 . S
O57 C62 1.255 . S
Cd58 O57 2.385 . S
Cd58 O59 2.317 . S
O59 Cd58 2.317 . S
O59 C60 1.232 . S
C60 O59 1.232 . S
C60 O61 1.218 . S
O61 C60 1.218 . S
C62 O55 1.275 . S
C62 O57 1.255 . S
C63 O64 1.258 . S
C63 O65 1.256 . S
O64 Cd56 2.381 . S
O64 C63 1.258 . S
O65 Cd56 2.378 . S
O65 C63 1.256 . S
O66 Cd67 2.300 . S
O66 C73 1.275 . S
Cd67 O66 2.300 . S
Cd67 O75 2.381 . S
Cd67 O76 2.378 . S
O68 Cd69 2.385 . S
O68 C73 1.255 . S
Cd69 O68 2.385 . S
Cd69 O70 2.317 . S
O70 Cd69 2.317 . S
O70 C71 1.232 . S
C71 O70 1.232 . S
C71 O72 1.218 . S
O72 C71 1.218 . S
C73 O66 1.275 . S
C73 O68 1.255 . S
C74 O75 1.258 . S
C74 O76 1.256 . S
O75 Cd67 2.381 . S
O75 C74 1.258 . S
O76 Cd67 2.378 . S
O76 C74 1.256 . S
O77 Cd78 2.300 . S
O77 C84 1.275 . S
Cd78 O77 2.300 . S
Cd78 O86 2.381 . S
Cd78 O87 2.378 . S
O79 Cd80 2.385 . S
O79 C84 1.255 . S
Cd80 O79 2.385 . S
Cd80 O81 2.317 . S
O81 Cd80 2.317 . S
O81 C82 1.232 . S
C82 O81 1.232 . S
C82 O83 1.218 . S
O83 C82 1.218 . S
C84 O77 1.275 . S
C84 O79 1.255 . S
C85 O86 1.258 . S
C85 O87 1.256 . S
O86 Cd78 2.381 . S
O86 C85 1.258 . S
O87 Cd78 2.378 . S
O87 C85 1.256 . S
La88 C90 2.928 . S
La88 O108 2.521 . S
La88 O109 2.628 . S
La88 O110 2.554 1_545 S
La88 O111 2.757 1_545 S
La88 O112 2.470 . S
La88 O117 2.482 1_455 S
La88 O119 2.503 1_445 S
La89 C99 2.928 1_545 S
La89 O111 2.482 1_645 S
La89 O113 2.503 1_655 S
La89 O114 2.521 1_545 S
La89 O115 2.628 1_545 S
La89 O116 2.554 . S
La89 O117 2.757 . S
La89 O118 2.470 1_545 S
C90 La88 2.928 . S
C90 C91 1.503 . S
C90 O108 1.261 . S
C90 O109 1.243 . S
C91 C90 1.503 . S
C91 C92 1.394 . S
C91 C96 1.373 . S
C92 C91 1.394 . S
C92 C93 1.380 . S
C92 H120 0.930 . S
C93 C92 1.380 . S
C93 C94 1.376 . S
C93 H121 0.930 . S
C94 C93 1.376 . S
C94 C95 1.370 . S
C95 C94 1.370 . S
C95 C96 1.396 . S
C95 H122 0.929 . S
C96 C91 1.373 . S
C96 C95 1.396 . S
C96 H123 0.929 . S
C97 O110 1.240 . S
C97 O111 1.289 . S
C98 O112 1.258 . S
C98 O113 1.256 . S
C99 La89 2.928 1_565 S
C99 C100 1.503 . S
C99 O114 1.261 . S
C99 O115 1.243 . S
C100 C99 1.503 . S
C100 C101 1.394 . S
C100 C105 1.373 . S
C101 C100 1.394 . S
C101 C102 1.380 . S
C101 H124 0.930 . S
C102 C101 1.380 . S
C102 C103 1.376 . S
C102 H125 0.930 . S
C103 C102 1.376 . S
C103 C104 1.370 . S
C104 C103 1.370 . S
C104 C105 1.396 . S
C104 H126 0.929 . S
C105 C100 1.373 . S
C105 C104 1.396 . S
C105 H127 0.929 . S
C106 O116 1.240 . S
C106 O117 1.289 . S
C107 O118 1.258 . S
C107 O119 1.256 . S
O108 La88 2.521 . S
O108 C90 1.261 . S
O109 La88 2.628 . S
O109 C90 1.243 . S
O110 La88 2.554 1_565 S
O110 C97 1.240 . S
O111 La88 2.757 1_565 S
O111 La89 2.482 1_465 S
O111 C97 1.289 . S
O112 La88 2.470 . S
O112 C98 1.258 . S
O113 La89 2.503 1_455 S
O113 C98 1.256 . S
O114 La89 2.521 1_565 S
O114 C99 1.261 . S
O115 La89 2.628 1_565 S
O115 C99 1.243 . S
O116 La89 2.554 . S
O116 C106 1.240 . S
O117 La88 2.482 1_655 S
O117 La89 2.757 . S
O117 C106 1.289 . S
O118 La89 2.470 1_565 S
O118 C107 1.258 . S
O119 La88 2.503 1_665 S
O119 C107 1.256 . S
H120 C92 0.930 . S
H121 C93 0.930 . S
H122 C95 0.929 . S
H123 C96 0.929 . S
H124 C101 0.930 . S
H125 C102 0.930 . S
H126 C104 0.929 . S
H127 C105 0.929 . S
La128 C130 2.928 . S
La128 O148 2.521 . S
La128 O149 2.628 . S
La128 O150 2.554 1_545 S
La128 O151 2.757 . S
La128 O152 2.470 . S
La128 O157 2.482 . S
La128 O159 2.503 . S
La129 C139 2.928 1_544 S
La129 O151 2.482 . S
La129 O153 2.503 . S
La129 O154 2.521 1_554 S
La129 O155 2.628 1_544 S
La129 O156 2.554 . S
La129 O157 2.757 . S
La129 O158 2.470 . S
C130 La128 2.928 . S
C130 C131 1.503 . S
C130 O148 1.261 . S
C130 O149 1.243 . S
C131 C130 1.503 . S
C131 C132 1.394 . S
C131 C136 1.373 . S
C132 C131 1.394 . S
C132 C133 1.380 . S
C132 H160 0.930 . S
C133 C132 1.380 . S
C133 C134 1.376 . S
C133 H161 0.930 . S
C134 C133 1.376 . S
C134 C135 1.370 . S
C135 C134 1.370 . S
C135 C136 1.396 . S
C135 H162 0.929 . S
C136 C131 1.373 . S
C136 C135 1.396 . S
C136 H163 0.929 . S
C137 O150 1.240 . S
C137 O151 1.289 1_565 S
C138 O152 1.258 . S
C138 O153 1.256 . S
C139 La129 2.928 1_566 S
C139 C140 1.503 . S
C139 O154 1.261 1_565 S
C139 O155 1.243 . S
C140 C139 1.503 . S
C140 C141 1.394 . S
C140 C145 1.373 . S
C141 C140 1.394 . S
C141 C142 1.380 . S
C141 H164 0.930 1_565 S
C142 C141 1.380 . S
C142 C143 1.376 . S
C142 H165 0.930 . S
C143 C142 1.376 . S
C143 C144 1.370 . S
C144 C143 1.370 . S
C144 C145 1.396 . S
C144 H166 0.929 . S
C145 C140 1.373 . S
C145 C144 1.396 . S
C145 H167 0.929 . S
C146 O156 1.240 . S
C146 O157 1.289 . S
C147 O158 1.263 . S
C147 O159 1.256 . S
O148 La128 2.521 . S
O148 C130 1.261 . S
O149 La128 2.628 . S
O149 C130 1.243 . S
O150 La128 2.554 1_565 S
O150 C137 1.240 . S
O151 La128 2.757 . S
O151 La129 2.482 . S
O151 C137 1.289 1_545 S
O152 La128 2.470 . S
O152 C138 1.258 . S
O153 La129 2.503 . S
O153 C138 1.256 . S
O154 La129 2.521 1_556 S
O154 C139 1.261 1_545 S
O155 La129 2.628 1_566 S
O155 C139 1.243 . S
O156 La129 2.554 . S
O156 C146 1.240 . S
O157 La128 2.482 . S
O157 La129 2.757 . S
O157 C146 1.289 . S
O158 La129 2.470 . S
O158 C147 1.263 . S
O159 La128 2.503 . S
O159 C147 1.256 . S
H160 C132 0.930 . S
H161 C133 0.930 . S
H162 C135 0.929 . S
H163 C136 0.929 . S
H164 C141 0.930 1_545 S
H165 C142 0.930 . S
H166 C144 0.929 . S
H167 C145 0.929 . S
La168 C170 2.928 . S
La168 O188 2.521 . S
La168 O189 2.628 . S
La168 O190 2.554 . S
La168 O191 2.757 . S
La168 O192 2.470 . S
La168 O197 2.482 . S
La168 O199 2.503 . S
La169 C179 2.928 . S
La169 O191 2.482 . S
La169 O193 2.503 . S
La169 O194 2.521 . S
La169 O195 2.628 . S
La169 O196 2.554 . S
La169 O197 2.757 . S
La169 O198 2.470 . S
C170 La168 2.928 . S
C170 C171 1.503 . S
C170 O188 1.261 . S
C170 O189 1.243 . S
C171 C170 1.503 . S
C171 C172 1.394 . S
C171 C176 1.373 . S
C172 C171 1.394 . S
C172 C173 1.380 . S
C172 H200 0.930 . S
C173 C172 1.380 . S
C173 C174 1.376 . S
C173 H201 0.930 . S
C174 C173 1.376 . S
C174 C175 1.370 . S
C175 C174 1.370 . S
C175 C176 1.396 . S
C175 H202 0.929 . S
C176 C171 1.373 . S
C176 C175 1.396 . S
C176 H203 0.929 . S
C177 O190 1.240 . S
C177 O191 1.289 . S
C178 O192 1.258 . S
C178 O193 1.256 . S
C179 La169 2.928 . S
C179 C180 1.503 . S
C179 O194 1.261 . S
C179 O195 1.243 . S
C180 C179 1.503 . S
C180 C181 1.394 . S
C180 C185 1.373 . S
C181 C180 1.394 . S
C181 C182 1.380 . S
C181 H204 0.930 . S
C182 C181 1.380 . S
C182 C183 1.376 . S
C182 H205 0.930 . S
C183 C182 1.376 . S
C183 C184 1.370 . S
C184 C183 1.370 . S
C184 C185 1.396 . S
C184 H206 0.929 . S
C185 C180 1.373 . S
C185 C184 1.396 . S
C185 H207 0.929 . S
C186 O196 1.240 . S
C186 O197 1.289 . S
C187 O198 1.258 . S
C187 O199 1.256 . S
O188 La168 2.521 . S
O188 C170 1.261 . S
O189 La168 2.628 . S
O189 C170 1.243 . S
O190 La168 2.554 . S
O190 C177 1.240 . S
O191 La168 2.757 . S
O191 La169 2.482 . S
O191 C177 1.289 . S
O192 La168 2.470 . S
O192 C178 1.258 . S
O193 La169 2.503 . S
O193 C178 1.256 . S
O194 La169 2.521 . S
O194 C179 1.261 . S
O195 La169 2.628 . S
O195 C179 1.243 . S
O196 La169 2.554 . S
O196 C186 1.240 . S
O197 La168 2.482 . S
O197 La169 2.757 . S
O197 C186 1.289 . S
O198 La169 2.470 . S
O198 C187 1.258 . S
O199 La168 2.503 . S
O199 C187 1.256 . S
H200 C172 0.930 . S
H201 C173 0.930 . S
H202 C175 0.929 . S
H203 C176 0.929 . S
H204 C181 0.930 . S
H205 C182 0.930 . S
H206 C184 0.929 . S
H207 C185 0.929 . S
La208 C210 2.928 . S
La208 O228 2.521 . S
La208 O229 2.628 . S
La208 O230 2.561 . S
La208 O231 2.767 . S
La208 O232 2.470 . S
La208 O237 2.482 1_554 S
La208 O239 2.503 1_455 S
La209 C219 2.928 1_455 S
La209 O231 2.487 1_556 S
La209 O233 2.503 1_556 S
La209 O234 2.521 1_455 S
La209 O235 2.628 1_455 S
La209 O236 2.554 . S
La209 O237 2.757 . S
La209 O238 2.470 1_455 S
C210 La208 2.928 . S
C210 C211 1.503 . S
C210 O228 1.261 . S
C210 O229 1.243 . S
C211 C210 1.503 . S
C211 C212 1.394 . S
C211 C216 1.373 . S
C212 C211 1.394 . S
C212 C213 1.380 . S
C212 H240 0.930 . S
C213 C212 1.380 . S
C213 C214 1.376 . S
C213 H241 0.930 . S
C214 C213 1.376 . S
C214 C215 1.370 . S
C215 C214 1.370 . S
C215 C216 1.396 . S
C215 H242 0.929 . S
C216 C211 1.373 . S
C216 C215 1.396 . S
C216 H243 0.929 . S
C217 O230 1.234 1_655 S
C217 O231 1.287 1_655 S
C218 O232 1.258 . S
C218 O233 1.256 . S
C219 La209 2.928 1_655 S
C219 C220 1.503 . S
C219 O234 1.261 . S
C219 O235 1.243 . S
C220 C219 1.503 . S
C220 C221 1.394 . S
C220 C225 1.373 . S
C221 C220 1.394 . S
C221 C222 1.380 . S
C221 H244 0.930 . S
C222 C221 1.380 . S
C222 C223 1.376 . S
C222 H245 0.930 . S
C223 C222 1.376 . S
C223 C224 1.370 . S
C224 C223 1.370 . S
C224 C225 1.396 . S
C224 H246 0.929 . S
C225 C220 1.373 . S
C225 C224 1.396 . S
C225 H247 0.929 . S
C226 O236 1.240 . S
C226 O237 1.289 . S
C227 O238 1.258 . S
C227 O239 1.256 1_556 S
O228 La208 2.521 . S
O228 C210 1.261 . S
O229 La208 2.628 . S
O229 C210 1.243 . S
O230 La208 2.561 . S
O230 C217 1.234 1_455 S
O231 La208 2.767 . S
O231 La209 2.487 1_554 S
O231 C217 1.287 1_455 S
O232 La208 2.470 . S
O232 C218 1.258 . S
O233 La209 2.503 1_554 S
O233 C218 1.256 . S
O234 La209 2.521 1_655 S
O234 C219 1.261 . S
O235 La209 2.628 1_655 S
O235 C219 1.243 . S
O236 La209 2.554 . S
O236 C226 1.240 . S
O237 La208 2.482 1_556 S
O237 La209 2.757 . S
O237 C226 1.289 . S
O238 La209 2.470 1_655 S
O238 C227 1.258 . S
O239 La208 2.503 1_655 S
O239 C227 1.256 1_554 S
H240 C212 0.930 . S
H241 C213 0.930 . S
H242 C215 0.929 . S
H243 C216 0.929 . S
H244 C221 0.930 . S
H245 C222 0.930 . S
H246 C224 0.929 . S
H247 C225 0.929 . S
C248 C249 1.349 . S
C248 C250 1.327 . S
C248 H273 0.950 . S
C249 C248 1.349 . S
C249 C265 1.349 . S
C250 C248 1.327 . S
C250 C269 1.429 . S
C250 H274 0.950 . S
C251 C268 1.574 . S
C251 C270 1.368 . S
C251 H275 0.949 . S
H252 C256 0.949 . S
C253 C254 1.349 . S
C253 C255 1.327 . S
C253 H276 0.950 . S
C254 C253 1.349 . S
C254 C266 1.349 . S
C255 C253 1.327 . S
C255 C271 1.429 . S
C255 H277 0.950 . S
C256 H252 0.949 . S
C256 C264 1.574 . S
C256 C272 1.368 . S
H257 C265 0.950 . S
H258 C263 0.950 . S
H259 C264 0.949 . S
H260 C266 0.950 . S
H261 C267 0.950 . S
H262 C268 0.949 . S
C263 H258 0.950 . S
C263 C265 1.327 . S
C263 C269 1.429 . S
C264 C256 1.574 . S
C264 H259 0.949 . S
C264 C270 1.368 . S
C265 C249 1.349 . S
C265 H257 0.950 . S
C265 C263 1.327 . S
C266 C254 1.349 . S
C266 H260 0.950 . S
C266 C267 1.327 . S
C267 H261 0.950 . S
C267 C266 1.327 . S
C267 C271 1.429 . S
C268 C251 1.574 . S
C268 H262 0.949 . S
C268 C272 1.368 . S
C269 C250 1.429 . S
C269 C263 1.429 . S
C269 C270 1.523 . S
C270 C251 1.368 . S
C270 C264 1.368 . S
C270 C269 1.523 . S
C271 C255 1.429 . S
C271 C267 1.429 . S
C271 C272 1.523 . S
C272 C256 1.368 . S
C272 C268 1.368 . S
C272 C271 1.523 . S
H273 C248 0.950 . S
H274 C250 0.950 . S
H275 C251 0.949 . S
H276 C253 0.950 . S
H277 C255 0.950 . S
C278 C279 1.349 . S
C278 C280 1.327 . S
C278 H303 0.950 . S
C279 C278 1.349 . S
C279 C295 1.349 . S
C280 C278 1.327 . S
C280 C299 1.429 . S
C280 H304 0.950 . S
C281 C298 1.574 . S
C281 C300 1.368 . S
C281 H305 0.949 . S
H282 C286 0.949 . S
C283 C284 1.349 . S
C283 C285 1.327 . S
C283 H306 0.950 . S
C284 C283 1.349 . S
C284 C296 1.349 . S
C285 C283 1.327 . S
C285 C301 1.429 . S
C285 H307 0.950 . S
C286 H282 0.949 . S
C286 C294 1.574 . S
C286 C302 1.368 . S
H287 C295 0.950 . S
H288 C293 0.950 . S
H289 C294 0.949 . S
H290 C296 0.950 . S
H291 C297 0.950 . S
H292 C298 0.949 . S
C293 H288 0.950 . S
C293 C295 1.327 . S
C293 C299 1.429 . S
C294 C286 1.574 . S
C294 H289 0.949 . S
C294 C300 1.368 . S
C295 C279 1.349 . S
C295 H287 0.950 . S
C295 C293 1.327 . S
C296 C284 1.349 . S
C296 H290 0.950 . S
C296 C297 1.327 . S
C297 H291 0.950 . S
C297 C296 1.327 . S
C297 C301 1.429 . S
C298 C281 1.574 . S
C298 H292 0.949 . S
C298 C302 1.368 . S
C299 C280 1.429 . S
C299 C293 1.429 . S
C299 C300 1.523 . S
C300 C281 1.368 . S
C300 C294 1.368 . S
C300 C299 1.523 . S
C301 C285 1.429 . S
C301 C297 1.429 . S
C301 C302 1.523 . S
C302 C286 1.368 . S
C302 C298 1.368 . S
C302 C301 1.523 . S
H303 C278 0.950 . S
H304 C280 0.950 . S
H305 C281 0.949 . S
H306 C283 0.950 . S
H307 C285 0.950 . S
C308 C309 1.349 . S
C308 C310 1.327 . S
C308 H333 0.950 . S
C309 C308 1.349 . S
C309 C325 1.349 . S
C310 C308 1.327 . S
C310 C329 1.429 . S
C310 H334 0.950 . S
C311 C328 1.574 . S
C311 C330 1.368 . S
C311 H335 0.949 . S
H312 C316 0.949 . S
C313 C314 1.349 . S
C313 C315 1.327 . S
C313 H336 0.950 . S
C314 C313 1.349 . S
C314 C326 1.349 . S
C315 C313 1.327 . S
C315 C331 1.429 . S
C315 H337 0.950 . S
C316 H312 0.949 . S
C316 C324 1.574 . S
C316 C332 1.368 . S
H317 C325 0.950 . S
H318 C323 0.950 . S
H319 C324 0.949 . S
H320 C326 0.950 . S
H321 C327 0.950 . S
H322 C328 0.949 . S
C323 H318 0.950 . S
C323 C325 1.327 . S
C323 C329 1.429 . S
C324 C316 1.574 . S
C324 H319 0.949 . S
C324 C330 1.368 . S
C325 C309 1.349 . S
C325 H317 0.950 . S
C325 C323 1.327 . S
C326 C314 1.349 . S
C326 H320 0.950 . S
C326 C327 1.327 . S
C327 H321 0.950 . S
C327 C326 1.327 . S
C327 C331 1.429 . S
C328 C311 1.574 . S
C328 H322 0.949 . S
C328 C332 1.368 . S
C329 C310 1.429 . S
C329 C323 1.429 . S
C329 C330 1.523 . S
C330 C311 1.368 . S
C330 C324 1.368 . S
C330 C329 1.523 . S
C331 C315 1.429 . S
C331 C327 1.429 . S
C331 C332 1.523 . S
C332 C316 1.368 . S
C332 C328 1.368 . S
C332 C331 1.523 . S
H333 C308 0.950 . S
H334 C310 0.950 . S
H335 C311 0.949 . S
H336 C313 0.950 . S
H337 C315 0.950 . S
C338 C339 1.349 . S
C338 C340 1.327 . S
C338 H363 0.950 . S
C339 C338 1.349 . S
C339 C355 1.349 . S
C340 C338 1.327 . S
C340 C359 1.429 . S
C340 H364 0.950 . S
C341 C358 1.574 . S
C341 C360 1.368 . S
C341 H365 0.949 . S
H342 C346 0.949 . S
C343 C344 1.349 . S
C343 C345 1.327 . S
C343 H366 0.950 1_655 S
C344 C343 1.349 . S
C344 C356 1.349 . S
C345 C343 1.327 . S
C345 C361 1.429 . S
C345 H367 0.950 . S
C346 H342 0.949 . S
C346 C354 1.574 . S
C346 C362 1.368 . S
H347 C355 0.950 . S
H348 C353 0.950 . S
H349 C354 0.949 . S
H350 C356 0.950 . S
H351 C357 0.950 . S
H352 C358 0.949 . S
C353 H348 0.950 . S
C353 C355 1.327 . S
C353 C359 1.429 . S
C354 C346 1.574 . S
C354 H349 0.949 . S
C354 C360 1.368 . S
C355 C339 1.349 . S
C355 H347 0.950 . S
C355 C353 1.327 . S
C356 C344 1.349 . S
C356 H350 0.950 . S
C356 C357 1.327 . S
C357 H351 0.950 . S
C357 C356 1.327 . S
C357 C361 1.429 . S
C358 C341 1.574 . S
C358 H352 0.949 . S
C358 C362 1.368 . S
C359 C340 1.429 . S
C359 C353 1.429 . S
C359 C360 1.523 . S
C360 C341 1.368 . S
C360 C354 1.368 . S
C360 C359 1.523 . S
C361 C345 1.429 . S
C361 C357 1.429 . S
C361 C362 1.523 . S
C362 C346 1.368 . S
C362 C358 1.368 . S
C362 C361 1.523 . S
H363 C338 0.950 . S
H364 C340 0.950 . S
H365 C341 0.949 . S
H366 C343 0.950 1_455 S
H367 C345 0.950 . S
C368 C369 1.349 . S
C368 C370 1.327 . S
C368 H393 0.950 . S
C369 C368 1.349 . S
C369 C385 1.349 . S
C370 C368 1.327 . S
C370 C389 1.429 . S
C370 H394 0.950 . S
C371 C388 1.574 . S
C371 C390 1.368 . S
C371 H395 0.949 . S
H372 C376 0.949 . S
C373 C374 1.349 . S
C373 C375 1.327 . S
C373 H396 0.950 . S
C374 C373 1.349 . S
C374 C386 1.349 . S
C375 C373 1.327 . S
C375 C391 1.429 . S
C375 H397 0.950 . S
C376 H372 0.949 . S
C376 C384 1.574 . S
C376 C392 1.368 . S
H377 C385 0.950 . S
H378 C383 0.950 . S
H379 C384 0.949 . S
H380 C386 0.950 . S
H381 C387 0.950 . S
H382 C388 0.949 . S
C383 H378 0.950 . S
C383 C385 1.327 . S
C383 C389 1.429 . S
C384 C376 1.574 . S
C384 H379 0.949 . S
C384 C390 1.368 . S
C385 C369 1.349 . S
C385 H377 0.950 . S
C385 C383 1.327 . S
C386 C374 1.349 . S
C386 H380 0.950 . S
C386 C387 1.327 . S
C387 H381 0.950 . S
C387 C386 1.327 . S
C387 C391 1.429 . S
C388 C371 1.574 . S
C388 H382 0.949 . S
C388 C392 1.368 . S
C389 C370 1.429 . S
C389 C383 1.429 . S
C389 C390 1.523 . S
C390 C371 1.368 . S
C390 C384 1.368 . S
C390 C389 1.523 . S
C391 C375 1.429 . S
C391 C387 1.429 . S
C391 C392 1.523 . S
C392 C376 1.368 . S
C392 C388 1.368 . S
C392 C391 1.523 . S
H393 C368 0.950 . S
H394 C370 0.950 . S
H395 C371 0.949 . S
H396 C373 0.950 . S
H397 C375 0.950 . S
C398 C399 1.349 . S
C398 C400 1.327 . S
C398 H423 0.950 . S
C399 C398 1.349 . S
C399 C415 1.349 . S
C400 C398 1.327 . S
C400 C419 1.429 . S
C400 H424 0.950 . S
C401 C418 1.574 . S
C401 C420 1.368 . S
C401 H425 0.949 . S
H402 C406 0.949 . S
C403 C404 1.349 . S
C403 C405 1.327 . S
C403 H426 0.950 1_565 S
C404 C403 1.349 . S
C404 C416 1.349 . S
C405 C403 1.327 . S
C405 C421 1.429 . S
C405 H427 0.950 . S
C406 H402 0.949 . S
C406 C414 1.574 . S
C406 C422 1.368 . S
H407 C415 0.950 . S
H408 C413 0.950 . S
H409 C414 0.949 . S
H410 C416 0.950 . S
H411 C417 0.950 . S
H412 C418 0.949 . S
C413 H408 0.950 . S
C413 C415 1.327 . S
C413 C419 1.429 . S
C414 C406 1.574 . S
C414 H409 0.949 . S
C414 C420 1.368 . S
C415 C399 1.349 . S
C415 H407 0.950 . S
C415 C413 1.327 . S
C416 C404 1.349 . S
C416 H410 0.950 . S
C416 C417 1.327 . S
C417 H411 0.950 . S
C417 C416 1.327 . S
C417 C421 1.429 . S
C418 C401 1.574 . S
C418 H412 0.949 . S
C418 C422 1.368 . S
C419 C400 1.429 . S
C419 C413 1.429 . S
C419 C420 1.523 . S
C420 C401 1.368 . S
C420 C414 1.368 . S
C420 C419 1.523 . S
C421 C405 1.429 . S
C421 C417 1.429 . S
C421 C422 1.523 . S
C422 C406 1.368 . S
C422 C418 1.368 . S
C422 C421 1.523 . S
H423 C398 0.950 . S
H424 C400 0.950 . S
H425 C401 0.949 . S
H426 C403 0.950 1_545 S
H427 C405 0.950 . S
C428 C429 1.349 . S
C428 C430 1.327 . S
C428 H453 0.950 . S
C429 C428 1.349 . S
C429 C445 1.349 . S
C430 C428 1.327 . S
C430 C449 1.429 . S
C430 H454 0.950 . S
C431 C448 1.574 . S
C431 C450 1.368 . S
C431 H455 0.949 . S
H432 C436 0.949 . S
C433 C434 1.349 . S
C433 C435 1.327 . S
C433 H456 0.950 . S
C434 C433 1.349 . S
C434 C446 1.349 . S
C435 C433 1.327 . S
C435 C451 1.429 . S
C435 H457 0.950 . S
C436 H432 0.949 . S
C436 C444 1.574 . S
C436 C452 1.368 . S
H437 C445 0.950 . S
H438 C443 0.950 . S
H439 C444 0.949 . S
H440 C446 0.950 . S
H441 C447 0.950 . S
H442 C448 0.949 . S
C443 H438 0.950 . S
C443 C445 1.327 . S
C443 C449 1.429 . S
C444 C436 1.574 . S
C444 H439 0.949 . S
C444 C450 1.368 . S
C445 C429 1.349 . S
C445 H437 0.950 . S
C445 C443 1.327 . S
C446 C434 1.349 . S
C446 H440 0.950 . S
C446 C447 1.327 . S
C447 H441 0.950 . S
C447 C446 1.327 . S
C447 C451 1.429 . S
C448 C431 1.574 . S
C448 H442 0.949 . S
C448 C452 1.368 . S
C449 C430 1.429 . S
C449 C443 1.429 . S
C449 C450 1.523 . S
C450 C431 1.368 . S
C450 C444 1.368 . S
C450 C449 1.523 . S
C451 C435 1.429 . S
C451 C447 1.429 . S
C451 C452 1.523 . S
C452 C436 1.368 . S
C452 C448 1.368 . S
C452 C451 1.523 . S
H453 C428 0.950 . S
H454 C430 0.950 . S
H455 C431 0.949 . S
H456 C433 0.950 . S
H457 C435 0.950 . S
C458 C459 1.349 . S
C458 C460 1.327 . S
C458 H483 0.950 . S
C459 C458 1.349 . S
C459 C475 1.349 . S
C460 C458 1.327 . S
C460 C479 1.429 . S
C460 H484 0.950 . S
C461 C478 1.574 . S
C461 C480 1.368 . S
C461 H485 0.949 . S
H462 C466 0.949 . S
C463 C464 1.349 . S
C463 C465 1.327 . S
C463 H486 0.950 . S
C464 C463 1.349 . S
C464 C476 1.349 . S
C465 C463 1.327 . S
C465 C481 1.429 . S
C465 H487 0.950 . S
C466 H462 0.949 . S
C466 C474 1.574 . S
C466 C482 1.368 . S
H467 C475 0.950 . S
H468 C473 0.950 . S
H469 C474 0.949 . S
H470 C476 0.950 . S
H471 C477 0.950 . S
H472 C478 0.949 . S
C473 H468 0.950 . S
C473 C475 1.327 . S
C473 C479 1.429 . S
C474 C466 1.574 . S
C474 H469 0.949 . S
C474 C480 1.368 . S
C475 C459 1.349 . S
C475 H467 0.950 . S
C475 C473 1.327 . S
C476 C464 1.349 . S
C476 H470 0.950 . S
C476 C477 1.327 . S
C477 H471 0.950 . S
C477 C476 1.327 . S
C477 C481 1.429 . S
C478 C461 1.574 . S
C478 H472 0.949 . S
C478 C482 1.368 . S
C479 C460 1.429 . S
C479 C473 1.429 . S
C479 C480 1.523 . S
C480 C461 1.368 . S
C480 C474 1.368 . S
C480 C479 1.523 . S
C481 C465 1.429 . S
C481 C477 1.429 . S
C481 C482 1.523 . S
C482 C466 1.368 . S
C482 C478 1.368 . S
C482 C481 1.523 . S
H483 C458 0.950 . S
H484 C460 0.950 . S
H485 C461 0.949 . S
H486 C463 0.950 . S
H487 C465 0.950 . S
C488 C489 1.349 . S
C488 C490 1.327 . S
C488 H513 0.950 . S
C489 C488 1.349 . S
C489 C505 1.349 . S
C490 C488 1.327 . S
C490 C509 1.429 . S
C490 H514 0.950 . S
C491 C508 1.574 . S
C491 C510 1.368 . S
C491 H515 0.949 . S
H492 C496 0.949 . S
C493 C494 1.349 . S
C493 C495 1.327 . S
C493 H516 0.950 . S
C494 C493 1.349 . S
C494 C506 1.349 . S
C495 C493 1.327 . S
C495 C511 1.429 . S
C495 H517 0.950 . S
C496 H492 0.949 . S
C496 C504 1.574 . S
C496 C512 1.368 . S
H497 C505 0.950 . S
H498 C503 0.950 . S
H499 C504 0.949 . S
H500 C506 0.950 . S
H501 C507 0.950 . S
H502 C508 0.949 . S
C503 H498 0.950 . S
C503 C505 1.327 . S
C503 C509 1.429 . S
C504 C496 1.574 . S
C504 H499 0.949 . S
C504 C510 1.368 . S
C505 C489 1.349 . S
C505 H497 0.950 . S
C505 C503 1.327 . S
C506 C494 1.349 . S
C506 H500 0.950 . S
C506 C507 1.327 . S
C507 H501 0.950 . S
C507 C506 1.327 . S
C507 C511 1.429 . S
C508 C491 1.574 . S
C508 H502 0.949 . S
C508 C512 1.368 . S
C509 C490 1.429 . S
C509 C503 1.429 . S
C509 C510 1.523 . S
C510 C491 1.368 . S
C510 C504 1.368 . S
C510 C509 1.523 . S
C511 C495 1.429 . S
C511 C507 1.429 . S
C511 C512 1.523 . S
C512 C496 1.368 . S
C512 C508 1.368 . S
C512 C511 1.523 . S
H513 C488 0.950 . S
H514 C490 0.950 . S
H515 C491 0.949 . S
H516 C493 0.950 . S
H517 C495 0.950 . S
C518 C519 1.349 . S
C518 C520 1.327 . S
C518 H543 0.950 . S
C519 C518 1.349 . S
C519 C535 1.349 . S
C520 C518 1.327 . S
C520 C539 1.429 . S
C520 H544 0.950 . S
C521 C538 1.574 . S
C521 C540 1.368 . S
C521 H545 0.949 . S
H522 C526 0.949 . S
C523 C524 1.349 . S
C523 C525 1.327 . S
C523 H546 0.950 . S
C524 C523 1.349 . S
C524 C536 1.349 1_554 S
C525 C523 1.327 . S
C525 C541 1.429 1_554 S
C525 H547 0.950 . S
C526 H522 0.949 . S
C526 C534 1.574 . S
C526 C542 1.368 . S
H527 C535 0.950 . S
H528 C533 0.950 . S
H529 C534 0.949 . S
H530 C536 0.950 . S
H531 C537 0.950 . S
H532 C538 0.949 . S
C533 H528 0.950 . S
C533 C535 1.327 . S
C533 C539 1.429 . S
C534 C526 1.574 . S
C534 H529 0.949 . S
C534 C540 1.368 . S
C535 C519 1.349 . S
C535 H527 0.950 . S
C535 C533 1.327 . S
C536 C524 1.349 1_556 S
C536 H530 0.950 . S
C536 C537 1.327 . S
C537 H531 0.950 . S
C537 C536 1.327 . S
C537 C541 1.429 . S
C538 C521 1.574 . S
C538 H532 0.949 . S
C538 C542 1.368 . S
C539 C520 1.429 . S
C539 C533 1.429 . S
C539 C540 1.523 . S
C540 C521 1.368 . S
C540 C534 1.368 . S
C540 C539 1.523 . S
C541 C525 1.429 1_556 S
C541 C537 1.429 . S
C541 C542 1.523 . S
C542 C526 1.368 . S
C542 C538 1.368 . S
C542 C541 1.523 . S
H543 C518 0.950 . S
H544 C520 0.950 . S
H545 C521 0.949 . S
H546 C523 0.950 . S
H547 C525 0.950 . S
C548 C549 1.349 . S
C548 C550 1.327 . S
C548 H573 0.950 . S
C549 C548 1.349 . S
C549 C565 1.349 . S
C550 C548 1.327 . S
C550 C569 1.429 . S
C550 H574 0.950 . S
C551 C568 1.574 . S
C551 C570 1.368 . S
C551 H575 0.949 . S
H552 C556 0.949 . S
C553 C554 1.349 . S
C553 C555 1.327 . S
C553 H576 0.950 . S
C554 C553 1.349 . S
C554 C566 1.349 . S
C555 C553 1.327 . S
C555 C571 1.429 . S
C555 H577 0.950 . S
C556 H552 0.949 . S
C556 C564 1.574 . S
C556 C572 1.368 . S
H557 C565 0.950 . S
H558 C563 0.950 . S
H559 C564 0.949 . S
H560 C566 0.950 . S
H561 C567 0.950 . S
H562 C568 0.949 . S
C563 H558 0.950 . S
C563 C565 1.327 . S
C563 C569 1.429 . S
C564 C556 1.574 . S
C564 H559 0.949 . S
C564 C570 1.368 . S
C565 C549 1.349 . S
C565 H557 0.950 . S
C565 C563 1.327 . S
C566 C554 1.349 . S
C566 H560 0.950 . S
C566 C567 1.327 . S
C567 H561 0.950 . S
C567 C566 1.327 . S
C567 C571 1.429 . S
C568 C551 1.574 . S
C568 H562 0.949 . S
C568 C572 1.368 . S
C569 C550 1.429 . S
C569 C563 1.429 . S
C569 C570 1.523 . S
C570 C551 1.368 . S
C570 C564 1.368 . S
C570 C569 1.523 . S
C571 C555 1.429 . S
C571 C567 1.429 . S
C571 C572 1.523 . S
C572 C556 1.368 . S
C572 C568 1.368 . S
C572 C571 1.523 . S
H573 C548 0.950 . S
H574 C550 0.950 . S
H575 C551 0.949 . S
H576 C553 0.950 . S
H577 C555 0.950 . S
C578 C579 1.349 . S
C578 C580 1.327 . S
C578 H603 0.950 . S
C579 C578 1.349 . S
C579 C595 1.349 . S
C580 C578 1.327 . S
C580 C599 1.429 . S
C580 H604 0.950 . S
C581 C598 1.574 . S
C581 C600 1.368 . S
C581 H605 0.949 . S
H582 C586 0.949 . S
C583 C584 1.349 . S
C583 C585 1.327 . S
C583 H606 0.950 . S
C584 C583 1.349 . S
C584 C596 1.349 . S
C585 C583 1.327 . S
C585 C601 1.429 . S
C585 H607 0.950 . S
C586 H582 0.949 . S
C586 C594 1.574 . S
C586 C602 1.368 . S
H587 C595 0.950 . S
H588 C593 0.950 . S
H589 C594 0.949 . S
H590 C596 0.950 . S
H591 C597 0.950 . S
H592 C598 0.949 . S
C593 H588 0.950 . S
C593 C595 1.327 . S
C593 C599 1.429 . S
C594 C586 1.574 . S
C594 H589 0.949 . S
C594 C600 1.368 . S
C595 C579 1.349 . S
C595 H587 0.950 . S
C595 C593 1.327 . S
C596 C584 1.349 . S
C596 H590 0.950 . S
C596 C597 1.327 . S
C597 H591 0.950 . S
C597 C596 1.327 . S
C597 C601 1.429 . S
C598 C581 1.574 . S
C598 H592 0.949 . S
C598 C602 1.368 . S
C599 C580 1.429 . S
C599 C593 1.429 . S
C599 C600 1.523 . S
C600 C581 1.368 . S
C600 C594 1.368 . S
C600 C599 1.523 . S
C601 C585 1.429 . S
C601 C597 1.429 . S
C601 C602 1.523 . S
C602 C586 1.368 . S
C602 C598 1.368 . S
C602 C601 1.523 . S
H603 C578 0.950 . S
H604 C580 0.950 . S
H605 C581 0.949 . S
H606 C583 0.950 . S
H607 C585 0.950 . S
C608 C609 1.349 . S
C608 C610 1.327 . S
C608 H633 0.950 . S
C609 C608 1.349 . S
C609 C625 1.349 . S
C610 C608 1.327 . S
C610 C629 1.429 . S
C610 H634 0.950 . S
C611 C628 1.574 . S
C611 C630 1.368 . S
C611 H635 0.949 . S
H612 C616 0.949 . S
C613 C614 1.349 . S
C613 C615 1.327 . S
C613 H636 0.950 . S
C614 C613 1.349 . S
C614 C626 1.349 . S
C615 C613 1.327 . S
C615 C631 1.429 . S
C615 H637 0.950 . S
C616 H612 0.949 . S
C616 C624 1.574 . S
C616 C632 1.368 . S
H617 C625 0.950 . S
H618 C623 0.950 . S
H619 C624 0.949 . S
H620 C626 0.950 . S
H621 C627 0.950 . S
H622 C628 0.949 . S
C623 H618 0.950 . S
C623 C625 1.327 . S
C623 C629 1.429 . S
C624 C616 1.574 . S
C624 H619 0.949 . S
C624 C630 1.368 . S
C625 C609 1.349 . S
C625 H617 0.950 . S
C625 C623 1.327 . S
C626 C614 1.349 . S
C626 H620 0.950 . S
C626 C627 1.327 . S
C627 H621 0.950 . S
C627 C626 1.327 . S
C627 C631 1.429 . S
C628 C611 1.574 . S
C628 H622 0.949 . S
C628 C632 1.368 . S
C629 C610 1.429 . S
C629 C623 1.429 . S
C629 C630 1.523 . S
C630 C611 1.368 . S
C630 C624 1.368 . S
C630 C629 1.523 . S
C631 C615 1.429 . S
C631 C627 1.429 . S
C631 C632 1.523 . S
C632 C616 1.368 . S
C632 C628 1.368 . S
C632 C631 1.523 . S
H633 C608 0.950 . S
H634 C610 0.950 . S
H635 C611 0.949 . S
H636 C613 0.950 . S
H637 C615 0.950 . S
C638 C639 1.349 . S
C638 C640 1.327 . S
C638 H663 0.950 . S
C639 C638 1.349 . S
C639 C655 1.349 . S
C640 C638 1.327 . S
C640 C659 1.429 . S
C640 H664 0.950 . S
C641 C658 1.574 . S
C641 C660 1.368 . S
C641 H665 0.949 . S
H642 C646 0.949 . S
C643 C644 1.349 . S
C643 C645 1.327 . S
C643 H666 0.950 . S
C644 C643 1.349 . S
C644 C656 1.349 . S
C645 C643 1.327 . S
C645 C661 1.429 . S
C645 H667 0.950 . S
C646 H642 0.949 . S
C646 C654 1.574 . S
C646 C662 1.368 . S
H647 C655 0.950 . S
H648 C653 0.950 . S
H649 C654 0.949 . S
H650 C656 0.950 . S
H651 C657 0.950 . S
H652 C658 0.949 . S
C653 H648 0.950 . S
C653 C655 1.327 . S
C653 C659 1.429 . S
C654 C646 1.574 . S
C654 H649 0.949 . S
C654 C660 1.368 . S
C655 C639 1.349 . S
C655 H647 0.950 . S
C655 C653 1.327 . S
C656 C644 1.349 . S
C656 H650 0.950 . S
C656 C657 1.327 . S
C657 H651 0.950 . S
C657 C656 1.327 . S
C657 C661 1.429 . S
C658 C641 1.574 . S
C658 H652 0.949 . S
C658 C662 1.368 . S
C659 C640 1.429 . S
C659 C653 1.429 . S
C659 C660 1.523 . S
C660 C641 1.368 . S
C660 C654 1.368 . S
C660 C659 1.523 . S
C661 C645 1.429 . S
C661 C657 1.429 . S
C661 C662 1.523 . S
C662 C646 1.368 . S
C662 C658 1.368 . S
C662 C661 1.523 . S
H663 C638 0.950 . S
H664 C640 0.950 . S
H665 C641 0.949 . S
H666 C643 0.950 . S
H667 C645 0.950 . S
C668 C669 1.349 . S
C668 C670 1.327 . S
C668 H693 0.950 . S
C669 C668 1.349 . S
C669 C685 1.349 . S
C670 C668 1.327 . S
C670 C689 1.429 . S
C670 H694 0.950 . S
C671 C688 1.574 . S
C671 C690 1.368 . S
C671 H695 0.949 . S
H672 C676 0.949 . S
C673 C674 1.349 . S
C673 C675 1.327 . S
C673 H696 0.950 . S
C674 C673 1.349 . S
C674 C686 1.349 . S
C675 C673 1.327 . S
C675 C691 1.429 . S
C675 H697 0.950 . S
C676 H672 0.949 . S
C676 C684 1.574 . S
C676 C692 1.368 . S
H677 C685 0.950 . S
H678 C683 0.950 . S
H679 C684 0.949 . S
H680 C686 0.950 . S
H681 C687 0.950 . S
H682 C688 0.949 . S
C683 H678 0.950 . S
C683 C685 1.327 . S
C683 C689 1.429 . S
C684 C676 1.574 . S
C684 H679 0.949 . S
C684 C690 1.368 . S
C685 C669 1.349 . S
C685 H677 0.950 . S
C685 C683 1.327 . S
C686 C674 1.349 . S
C686 H680 0.950 . S
C686 C687 1.327 . S
C687 H681 0.950 . S
C687 C686 1.327 . S
C687 C691 1.429 . S
C688 C671 1.574 . S
C688 H682 0.949 . S
C688 C692 1.368 . S
C689 C670 1.429 . S
C689 C683 1.429 . S
C689 C690 1.523 . S
C690 C671 1.368 . S
C690 C684 1.368 . S
C690 C689 1.523 . S
C691 C675 1.429 . S
C691 C687 1.429 . S
C691 C692 1.523 . S
C692 C676 1.368 . S
C692 C688 1.368 . S
C692 C691 1.523 . S
H693 C668 0.950 . S
H694 C670 0.950 . S
H695 C671 0.949 . S
H696 C673 0.950 . S
H697 C675 0.950 . S
C698 C699 1.349 . S
C698 C700 1.327 . S
C698 H723 0.950 . S
C699 C698 1.349 . S
C699 C715 1.349 . S
C700 C698 1.327 . S
C700 C719 1.429 . S
C700 H724 0.950 . S
C701 C718 1.574 . S
C701 C720 1.368 . S
C701 H725 0.949 . S
H702 C706 0.949 . S
C703 C704 1.349 . S
C703 C705 1.327 . S
C703 H726 0.950 . S
C704 C703 1.349 . S
C704 C716 1.349 . S
C705 C703 1.327 . S
C705 C721 1.429 . S
C705 H727 0.950 . S
C706 H702 0.949 . S
C706 C714 1.574 . S
C706 C722 1.368 . S
H707 C715 0.950 . S
H708 C713 0.950 . S
H709 C714 0.949 . S
H710 C716 0.950 . S
H711 C717 0.950 . S
H712 C718 0.949 . S
C713 H708 0.950 . S
C713 C715 1.327 . S
C713 C719 1.429 . S
C714 C706 1.574 . S
C714 H709 0.949 . S
C714 C720 1.368 . S
C715 C699 1.349 . S
C715 H707 0.950 . S
C715 C713 1.327 . S
C716 C704 1.349 . S
C716 H710 0.950 . S
C716 C717 1.327 . S
C717 H711 0.950 . S
C717 C716 1.327 . S
C717 C721 1.429 . S
C718 C701 1.574 . S
C718 H712 0.949 . S
C718 C722 1.368 . S
C719 C700 1.429 . S
C719 C713 1.429 . S
C719 C720 1.523 . S
C720 C701 1.368 . S
C720 C714 1.368 . S
C720 C719 1.523 . S
C721 C705 1.429 . S
C721 C717 1.429 . S
C721 C722 1.523 . S
C722 C706 1.368 . S
C722 C718 1.368 . S
C722 C721 1.523 . S
H723 C698 0.950 . S
H724 C700 0.950 . S
H725 C701 0.949 . S
H726 C703 0.950 . S
H727 C705 0.950 . S
C728 C729 1.349 . S
C728 C730 1.327 . S
C728 H753 0.950 . S
C729 C728 1.349 . S
C729 C745 1.349 . S
C730 C728 1.327 . S
C730 C749 1.429 . S
C730 H754 0.950 . S
C731 C748 1.574 . S
C731 C750 1.368 . S
C731 H755 0.949 . S
H732 C736 0.949 . S
C733 C734 1.349 . S
C733 C735 1.327 . S
C733 H756 0.950 1_556 S
C734 C733 1.349 . S
C734 C746 1.349 . S
C735 C733 1.327 . S
C735 C751 1.429 . S
C735 H757 0.950 . S
C736 H732 0.949 . S
C736 C744 1.574 . S
C736 C752 1.368 . S
H737 C745 0.950 . S
H738 C743 0.950 . S
H739 C744 0.949 . S
H740 C746 0.950 . S
H741 C747 0.950 . S
H742 C748 0.949 . S
C743 H738 0.950 . S
C743 C745 1.327 . S
C743 C749 1.429 . S
C744 C736 1.574 . S
C744 H739 0.949 . S
C744 C750 1.368 . S
C745 C729 1.349 . S
C745 H737 0.950 . S
C745 C743 1.327 . S
C746 C734 1.349 . S
C746 H740 0.950 . S
C746 C747 1.327 . S
C747 H741 0.950 . S
C747 C746 1.327 . S
C747 C751 1.429 . S
C748 C731 1.574 . S
C748 H742 0.949 . S
C748 C752 1.368 . S
C749 C730 1.429 . S
C749 C743 1.429 . S
C749 C750 1.523 . S
C750 C731 1.368 . S
C750 C744 1.368 . S
C750 C749 1.523 . S
C751 C735 1.429 . S
C751 C747 1.429 . S
C751 C752 1.523 . S
C752 C736 1.368 . S
C752 C748 1.368 . S
C752 C751 1.523 . S
H753 C728 0.950 . S
H754 C730 0.950 . S
H755 C731 0.949 . S
H756 C733 0.950 1_554 S
H757 C735 0.950 . S
C758 C759 1.349 . S
C758 C760 1.327 . S
C758 H783 0.950 . S
C759 C758 1.349 . S
C759 C775 1.349 . S
C760 C758 1.327 . S
C760 C779 1.429 . S
C760 H784 0.950 . S
C761 C778 1.574 . S
C761 C780 1.368 . S
C761 H785 0.949 . S
H762 C766 0.949 . S
C763 C764 1.349 . S
C763 C765 1.327 . S
C763 H786 0.950 . S
C764 C763 1.349 . S
C764 C776 1.349 . S
C765 C763 1.327 . S
C765 C781 1.429 . S
C765 H787 0.950 . S
C766 H762 0.949 . S
C766 C774 1.574 . S
C766 C782 1.368 . S
H767 C775 0.950 . S
H768 C773 0.950 . S
H769 C774 0.949 . S
H770 C776 0.950 . S
H771 C777 0.950 . S
H772 C778 0.949 . S
C773 H768 0.950 . S
C773 C775 1.327 . S
C773 C779 1.429 . S
C774 C766 1.574 . S
C774 H769 0.949 . S
C774 C780 1.368 . S
C775 C759 1.349 . S
C775 H767 0.950 . S
C775 C773 1.327 . S
C776 C764 1.349 . S
C776 H770 0.950 . S
C776 C777 1.327 . S
C777 H771 0.950 . S
C777 C776 1.327 . S
C777 C781 1.429 . S
C778 C761 1.574 . S
C778 H772 0.949 . S
C778 C782 1.368 . S
C779 C760 1.429 . S
C779 C773 1.429 . S
C779 C780 1.523 . S
C780 C761 1.368 . S
C780 C774 1.368 . S
C780 C779 1.523 . S
C781 C765 1.429 . S
C781 C777 1.429 . S
C781 C782 1.523 . S
C782 C766 1.368 . S
C782 C778 1.368 . S
C782 C781 1.523 . S
H783 C758 0.950 . S
H784 C760 0.950 . S
H785 C761 0.949 . S
H786 C763 0.950 . S
H787 C765 0.950 . S
C788 C789 1.349 . S
C788 C790 1.327 . S
C788 H813 0.950 . S
C789 C788 1.349 . S
C789 C805 1.349 . S
C790 C788 1.327 . S
C790 C809 1.429 . S
C790 H814 0.950 . S
C791 C808 1.574 . S
C791 C810 1.368 . S
C791 H815 0.949 . S
H792 C796 0.949 . S
C793 C794 1.349 . S
C793 C795 1.327 . S
C793 H816 0.950 . S
C794 C793 1.349 . S
C794 C806 1.349 . S
C795 C793 1.327 . S
C795 C811 1.429 . S
C795 H817 0.950 . S
C796 H792 0.949 . S
C796 C804 1.574 . S
C796 C812 1.368 . S
H797 C805 0.950 . S
H798 C803 0.950 . S
H799 C804 0.949 . S
H800 C806 0.950 . S
H801 C807 0.950 . S
H802 C808 0.949 . S
C803 H798 0.950 . S
C803 C805 1.327 . S
C803 C809 1.429 . S
C804 C796 1.574 . S
C804 H799 0.949 . S
C804 C810 1.368 . S
C805 C789 1.349 . S
C805 H797 0.950 . S
C805 C803 1.327 . S
C806 C794 1.349 . S
C806 H800 0.950 . S
C806 C807 1.327 . S
C807 H801 0.950 . S
C807 C806 1.327 . S
C807 C811 1.429 . S
C808 C791 1.574 . S
C808 H802 0.949 . S
C808 C812 1.368 . S
C809 C790 1.429 . S
C809 C803 1.429 . S
C809 C810 1.523 . S
C810 C791 1.368 . S
C810 C804 1.368 . S
C810 C809 1.523 . S
C811 C795 1.429 . S
C811 C807 1.429 . S
C811 C812 1.523 . S
C812 C796 1.368 . S
C812 C808 1.368 . S
C812 C811 1.523 . S
H813 C788 0.950 . S
H814 C790 0.950 . S
H815 C791 0.949 . S
H816 C793 0.950 . S
H817 C795 0.950 . S
C818 C819 1.349 . S
C818 C820 1.327 . S
C818 H843 0.950 . S
C819 C818 1.349 . S
C819 C835 1.349 . S
C820 C818 1.327 . S
C820 C839 1.429 . S
C820 H844 0.950 . S
C821 C838 1.574 . S
C821 C840 1.368 . S
C821 H845 0.949 . S
H822 C826 0.949 . S
C823 C824 1.349 . S
C823 C825 1.327 . S
C823 H846 0.950 . S
C824 C823 1.349 . S
C824 C836 1.349 . S
C825 C823 1.327 . S
C825 C841 1.429 . S
C825 H847 0.950 . S
C826 H822 0.949 . S
C826 C834 1.574 . S
C826 C842 1.368 . S
H827 C835 0.950 . S
H828 C833 0.950 . S
H829 C834 0.949 . S
H830 C836 0.950 . S
H831 C837 0.950 . S
H832 C838 0.949 . S
C833 H828 0.950 . S
C833 C835 1.327 . S
C833 C839 1.429 . S
C834 C826 1.574 . S
C834 H829 0.949 . S
C834 C840 1.368 . S
C835 C819 1.349 . S
C835 H827 0.950 . S
C835 C833 1.327 . S
C836 C824 1.349 . S
C836 H830 0.950 . S
C836 C837 1.327 . S
C837 H831 0.950 . S
C837 C836 1.327 . S
C837 C841 1.429 . S
C838 C821 1.574 . S
C838 H832 0.949 . S
C838 C842 1.368 . S
C839 C820 1.429 . S
C839 C833 1.429 . S
C839 C840 1.523 . S
C840 C821 1.368 . S
C840 C834 1.368 . S
C840 C839 1.523 . S
C841 C825 1.429 . S
C841 C837 1.429 . S
C841 C842 1.523 . S
C842 C826 1.368 . S
C842 C838 1.368 . S
C842 C841 1.523 . S
H843 C818 0.950 . S
H844 C820 0.950 . S
H845 C821 0.949 . S
H846 C823 0.950 . S
H847 C825 0.950 . S
C848 C849 1.349 . S
C848 C850 1.327 . S
C848 H873 0.950 . S
C849 C848 1.349 . S
C849 C865 1.349 . S
C850 C848 1.327 . S
C850 C869 1.429 . S
C850 H874 0.950 . S
C851 C868 1.574 . S
C851 C870 1.368 . S
C851 H875 0.949 . S
H852 C856 0.949 . S
C853 C854 1.349 . S
C853 C855 1.327 . S
C853 H876 0.950 . S
C854 C853 1.349 . S
C854 C866 1.349 . S
C855 C853 1.327 . S
C855 C871 1.429 . S
C855 H877 0.950 . S
C856 H852 0.949 . S
C856 C864 1.574 . S
C856 C872 1.368 . S
H857 C865 0.950 . S
H858 C863 0.950 . S
H859 C864 0.949 . S
H860 C866 0.950 . S
H861 C867 0.950 . S
H862 C868 0.949 . S
C863 H858 0.950 . S
C863 C865 1.327 . S
C863 C869 1.429 . S
C864 C856 1.574 . S
C864 H859 0.949 . S
C864 C870 1.368 . S
C865 C849 1.349 . S
C865 H857 0.950 . S
C865 C863 1.327 . S
C866 C854 1.349 . S
C866 H860 0.950 . S
C866 C867 1.327 . S
C867 H861 0.950 . S
C867 C866 1.327 . S
C867 C871 1.429 . S
C868 C851 1.574 . S
C868 H862 0.949 . S
C868 C872 1.368 . S
C869 C850 1.429 . S
C869 C863 1.429 . S
C869 C870 1.523 . S
C870 C851 1.368 . S
C870 C864 1.368 . S
C870 C869 1.523 . S
C871 C855 1.429 . S
C871 C867 1.429 . S
C871 C872 1.523 . S
C872 C856 1.368 . S
C872 C868 1.368 . S
C872 C871 1.523 . S
H873 C848 0.950 . S
H874 C850 0.950 . S
H875 C851 0.949 . S
H876 C853 0.950 . S
H877 C855 0.950 . S
C878 C879 1.349 . S
C878 C880 1.327 . S
C878 H903 0.950 . S
C879 C878 1.349 . S
C879 C895 1.349 . S
C880 C878 1.327 . S
C880 C899 1.429 . S
C880 H904 0.950 . S
C881 C898 1.574 . S
C881 C900 1.368 . S
C881 H905 0.949 . S
H882 C886 0.949 . S
C883 C884 1.349 . S
C883 C885 1.327 . S
C883 H906 0.950 . S
C884 C883 1.349 . S
C884 C896 1.349 . S
C885 C883 1.327 . S
C885 C901 1.429 . S
C885 H907 0.950 . S
C886 H882 0.949 . S
C886 C894 1.574 . S
C886 C902 1.368 . S
H887 C895 0.950 . S
H888 C893 0.950 . S
H889 C894 0.949 . S
H890 C896 0.950 . S
H891 C897 0.950 . S
H892 C898 0.949 . S
C893 H888 0.950 . S
C893 C895 1.327 . S
C893 C899 1.429 . S
C894 C886 1.574 . S
C894 H889 0.949 . S
C894 C900 1.368 . S
C895 C879 1.349 . S
C895 H887 0.950 . S
C895 C893 1.327 . S
C896 C884 1.349 . S
C896 H890 0.950 . S
C896 C897 1.327 . S
C897 H891 0.950 . S
C897 C896 1.327 . S
C897 C901 1.429 . S
C898 C881 1.574 . S
C898 H892 0.949 . S
C898 C902 1.368 . S
C899 C880 1.429 . S
C899 C893 1.429 . S
C899 C900 1.523 . S
C900 C881 1.368 . S
C900 C894 1.368 . S
C900 C899 1.523 . S
C901 C885 1.429 . S
C901 C897 1.429 . S
C901 C902 1.523 . S
C902 C886 1.368 . S
C902 C898 1.368 . S
C902 C901 1.523 . S
H903 C878 0.950 . S
H904 C880 0.950 . S
H905 C881 0.949 . S
H906 C883 0.950 . S
H907 C885 0.950 . S
C908 C909 1.349 . S
C908 C910 1.327 . S
C908 H933 0.950 . S
C909 C908 1.349 . S
C909 C925 1.349 . S
C910 C908 1.327 . S
C910 C929 1.429 . S
C910 H934 0.950 . S
C911 C928 1.574 . S
C911 C930 1.368 . S
C911 H935 0.949 . S
H912 C916 0.949 . S
C913 C914 1.349 . S
C913 C915 1.327 . S
C913 H936 0.950 . S
C914 C913 1.349 . S
C914 C926 1.349 . S
C915 C913 1.327 . S
C915 C931 1.429 . S
C915 H937 0.950 . S
C916 H912 0.949 . S
C916 C924 1.574 . S
C916 C932 1.368 . S
H917 C925 0.950 . S
H918 C923 0.950 . S
H919 C924 0.949 . S
H920 C926 0.950 . S
H921 C927 0.950 . S
H922 C928 0.949 . S
C923 H918 0.950 . S
C923 C925 1.327 . S
C923 C929 1.429 . S
C924 C916 1.574 . S
C924 H919 0.949 . S
C924 C930 1.368 . S
C925 C909 1.349 . S
C925 H917 0.950 . S
C925 C923 1.327 . S
C926 C914 1.349 . S
C926 H920 0.950 . S
C926 C927 1.327 . S
C927 H921 0.950 . S
C927 C926 1.327 . S
C927 C931 1.429 . S
C928 C911 1.574 . S
C928 H922 0.949 . S
C928 C932 1.368 . S
C929 C910 1.429 . S
C929 C923 1.429 . S
C929 C930 1.523 . S
C930 C911 1.368 . S
C930 C924 1.368 . S
C930 C929 1.523 . S
C931 C915 1.429 . S
C931 C927 1.429 . S
C931 C932 1.523 . S
C932 C916 1.368 . S
C932 C928 1.368 . S
C932 C931 1.523 . S
H933 C908 0.950 . S
H934 C910 0.950 . S
H935 C911 0.949 . S
H936 C913 0.950 . S
H937 C915 0.950 . S
C938 C939 1.349 . S
C938 C940 1.327 . S
C938 H963 0.950 . S
C939 C938 1.349 . S
C939 C955 1.349 . S
C940 C938 1.327 . S
C940 C959 1.429 . S
C940 H964 0.950 . S
C941 C958 1.574 . S
C941 C960 1.368 . S
C941 H965 0.949 . S
H942 C946 0.949 . S
C943 C944 1.349 . S
C943 C945 1.327 . S
C943 H966 0.950 . S
C944 C943 1.349 . S
C944 C956 1.349 . S
C945 C943 1.327 . S
C945 C961 1.429 . S
C945 H967 0.950 . S
C946 H942 0.949 . S
C946 C954 1.574 . S
C946 C962 1.368 . S
H947 C955 0.950 . S
H948 C953 0.950 . S
H949 C954 0.949 . S
H950 C956 0.950 . S
H951 C957 0.950 . S
H952 C958 0.949 . S
C953 H948 0.950 . S
C953 C955 1.327 . S
C953 C959 1.429 . S
C954 C946 1.574 . S
C954 H949 0.949 . S
C954 C960 1.368 . S
C955 C939 1.349 . S
C955 H947 0.950 . S
C955 C953 1.327 . S
C956 C944 1.349 . S
C956 H950 0.950 . S
C956 C957 1.327 . S
C957 H951 0.950 . S
C957 C956 1.327 . S
C957 C961 1.429 . S
C958 C941 1.574 . S
C958 H952 0.949 . S
C958 C962 1.368 . S
C959 C940 1.429 . S
C959 C953 1.429 . S
C959 C960 1.523 . S
C960 C941 1.368 . S
C960 C954 1.368 . S
C960 C959 1.523 . S
C961 C945 1.429 . S
C961 C957 1.429 . S
C961 C962 1.523 . S
C962 C946 1.368 . S
C962 C958 1.368 . S
C962 C961 1.523 . S
H963 C938 0.950 . S
H964 C940 0.950 . S
H965 C941 0.949 . S
H966 C943 0.950 . S
H967 C945 0.950 . S
C249 C5 1.003 . S
C254 C94 1.250 . S
C279 C18 0.980 . S
C284 C143 1.039 . S
C314 C178 2.287 . S
C309 C30 2.329 . S
C339 C41 1.961 . S
C344 C217 1.911 . S
C374 C138 2.427 . S
C369 C7 2.264 . S
C404 C97 1.047 . S
C399 C16 0.949 . S
C434 C227 1.902 . S
C429 C29 1.868 . S
C464 C186 1.074 . S
C459 C38 0.996 . S
C489 C8 1.558 . S
C494 C214 1.631 . S
C524 C146 2.574 . S
C519 C27 2.404 . S
C549 C40 2.428 . S
C554 C107 2.447 . S
C579 C19 0.500 . S
C584 C183 0.484 . S
C614 C103 1.090 . S
C609 C51 0.981 . S
C639 C62 1.328 . S
C644 C134 1.328 . S
C669 C74 2.420 . S
C674 C187 2.390 . S
C699 C84 2.102 . S
C704 C226 2.150 . S
C729 C49 2.130 . S
C734 C147 2.660 1_566 S
C764 C106 1.003 . S
C759 C63 1.022 . S
C794 C218 1.761 . S
C789 C71 1.633 . S
C824 C177 1.207 . S
C819 C85 1.218 . S
C849 C52 1.533 . S
C854 C223 1.611 . S
C884 C137 2.635 . S
C879 C73 2.688 . S
C914 C98 1.888 . S
C909 C82 1.620 . S
C939 C60 0.743 . S
C944 C174 0.734 . S
