# Generated by pormake.
# Topology ssb, (4,4)-cn, num edge types: 1
# Building blocks:
#     Node 0, Type 0, BuildingBlock: NAWXER_clean_sbu_0, # of connection points: 4
#     Node 1, Type 0, BuildingBlock: NAWXER_clean_sbu_0, # of connection points: 4
#     Node 2, Type 0, BuildingBlock: NAWXER_clean_sbu_0, # of connection points: 4
#     Node 3, Type 0, BuildingBlock: NAWXER_clean_sbu_0, # of connection points: 4
#     Node 4, Type 0, BuildingBlock: NAWXER_clean_sbu_0, # of connection points: 4
#     Node 5, Type 0, BuildingBlock: NAWXER_clean_sbu_0, # of connection points: 4
#     Node 6, Type 0, BuildingBlock: NAWXER_clean_sbu_0, # of connection points: 4
#     Node 7, Type 0, BuildingBlock: NAWXER_clean_sbu_0, # of connection points: 4
#     Node 8, Type 1, BuildingBlock: NAWXER_clean_sbu_0, # of connection points: 4
#     Node 9, Type 1, BuildingBlock: NAWXER_clean_sbu_0, # of connection points: 4
#     Node 10, Type 1, BuildingBlock: NAWXER_clean_sbu_0, # of connection points: 4
#     Node 11, Type 1, BuildingBlock: NAWXER_clean_sbu_0, # of connection points: 4
#     Node 12, Type 1, BuildingBlock: NAWXER_clean_sbu_0, # of connection points: 4
#     Node 13, Type 1, BuildingBlock: NAWXER_clean_sbu_0, # of connection points: 4
#     Node 14, Type 1, BuildingBlock: NAWXER_clean_sbu_0, # of connection points: 4
#     Node 15, Type 1, BuildingBlock: NAWXER_clean_sbu_0, # of connection points: 4
#     Edge 16, Type (0, 1), BuildingBlock: EZIPEK_clean_linker_0, # of connection points: 2
#     Edge 17, Type (0, 1), BuildingBlock: EZIPEK_clean_linker_0, # of connection points: 2
#     Edge 18, Type (0, 1), BuildingBlock: EZIPEK_clean_linker_0, # of connection points: 2
#     Edge 19, Type (0, 1), BuildingBlock: EZIPEK_clean_linker_0, # of connection points: 2
#     Edge 20, Type (0, 1), BuildingBlock: EZIPEK_clean_linker_0, # of connection points: 2
#     Edge 21, Type (0, 1), BuildingBlock: EZIPEK_clean_linker_0, # of connection points: 2
#     Edge 22, Type (0, 1), BuildingBlock: EZIPEK_clean_linker_0, # of connection points: 2
#     Edge 23, Type (0, 1), BuildingBlock: EZIPEK_clean_linker_0, # of connection points: 2
#     Edge 24, Type (0, 1), BuildingBlock: EZIPEK_clean_linker_0, # of connection points: 2
#     Edge 25, Type (0, 1), BuildingBlock: EZIPEK_clean_linker_0, # of connection points: 2
#     Edge 26, Type (0, 1), BuildingBlock: EZIPEK_clean_linker_0, # of connection points: 2
#     Edge 27, Type (0, 1), BuildingBlock: EZIPEK_clean_linker_0, # of connection points: 2
#     Edge 28, Type (0, 1), BuildingBlock: EZIPEK_clean_linker_0, # of connection points: 2
#     Edge 29, Type (0, 1), BuildingBlock: EZIPEK_clean_linker_0, # of connection points: 2
#     Edge 30, Type (0, 1), BuildingBlock: EZIPEK_clean_linker_0, # of connection points: 2
#     Edge 31, Type (0, 1), BuildingBlock: EZIPEK_clean_linker_0, # of connection points: 2
#     Edge 32, Type (0, 1), BuildingBlock: EZIPEK_clean_linker_0, # of connection points: 2
#     Edge 33, Type (0, 1), BuildingBlock: EZIPEK_clean_linker_0, # of connection points: 2
#     Edge 34, Type (0, 1), BuildingBlock: EZIPEK_clean_linker_0, # of connection points: 2
#     Edge 35, Type (0, 1), BuildingBlock: EZIPEK_clean_linker_0, # of connection points: 2
#     Edge 36, Type (0, 1), BuildingBlock: EZIPEK_clean_linker_0, # of connection points: 2
#     Edge 37, Type (0, 1), BuildingBlock: EZIPEK_clean_linker_0, # of connection points: 2
#     Edge 38, Type (0, 1), BuildingBlock: EZIPEK_clean_linker_0, # of connection points: 2
#     Edge 39, Type (0, 1), BuildingBlock: EZIPEK_clean_linker_0, # of connection points: 2
#     Edge 40, Type (0, 1), BuildingBlock: EZIPEK_clean_linker_0, # of connection points: 2
#     Edge 41, Type (0, 1), BuildingBlock: EZIPEK_clean_linker_0, # of connection points: 2
#     Edge 42, Type (0, 1), BuildingBlock: EZIPEK_clean_linker_0, # of connection points: 2
#     Edge 43, Type (0, 1), BuildingBlock: EZIPEK_clean_linker_0, # of connection points: 2
#     Edge 44, Type (0, 1), BuildingBlock: EZIPEK_clean_linker_0, # of connection points: 2
#     Edge 45, Type (0, 1), BuildingBlock: EZIPEK_clean_linker_0, # of connection points: 2
#     Edge 46, Type (0, 1), BuildingBlock: EZIPEK_clean_linker_0, # of connection points: 2
#     Edge 47, Type (0, 1), BuildingBlock: EZIPEK_clean_linker_0, # of connection points: 2
# Relax obj value: 0.002
# Max RMSD: 0.009
# Mean RMSD: 0.008
data_MOF--net-ssb--node1-NAWXER_clean_sbu_0--node2-NAWXER_clean_sbu_0--edge1-EZIPEK_clean_linker_0
_symmetry_space_group_name_H-M    P1
_symmetry_Int_Tables_number       1
_symmetry_cell_setting            triclinic
loop_
_symmetry_equiv_pos_as_xyz
'x, y, z'
_cell_length_a     32.194332
_cell_length_b     31.970971
_cell_length_c     27.320107
_cell_angle_alpha  89.574069
_cell_angle_beta   90.641347
_cell_angle_gamma 89.880396
loop_
_atom_site_label
_atom_site_type_symbol
_atom_site_fract_x
_atom_site_fract_y
_atom_site_fract_z
_atom_type_partial_charge
C0 C 0.18255 0.31419 0.29427 0.0
C1 C 0.29455 0.26623 0.18477 0.0
O2 O 0.17708 0.30267 0.25 0.0
Zn3 Zn 0.23522 0.29151 0.23411 0.0
O4 O 0.21948 0.31882 0.31114 0.0
Zn5 Zn 0.28179 0.30923 0.28845 0.0
O6 O 0.30632 0.36542 0.28165 0.0
O7 O 0.26078 0.35137 0.22299 0.0
O8 O 0.30597 0.28183 0.22551 0.0
O9 O 0.25589 0.26368 0.17424 0.0
O10 O 0.24726 0.24549 0.28873 0.0
O11 O 0.29895 0.26593 0.33567 0.0
C12 C 0.28766 0.37585 0.24197 0.0
C13 C 0.27171 0.2384 0.32493 0.0
C14 C 0.7227 0.21883 0.19278 0.0
C15 C 0.85764 0.23623 0.27667 0.0
O16 O 0.72339 0.24495 0.22795 0.0
Zn17 Zn 0.76662 0.27623 0.27382 0.0
O18 O 0.75695 0.20335 0.17838 0.0
Zn19 Zn 0.79406 0.23062 0.22585 0.0
O20 O 0.77014 0.2073 0.2933 0.0
O21 O 0.74467 0.25924 0.33737 0.0
O22 O 0.8521 0.21411 0.23847 0.0
O23 O 0.82926 0.2613 0.29056 0.0
O24 O 0.76665 0.33423 0.24883 0.0
O25 O 0.79682 0.29221 0.19653 0.0
C26 C 0.75358 0.22051 0.33261 0.0
C27 C 0.78445 0.32888 0.20799 0.0
C28 C 0.76298 0.70491 0.22593 0.0
C29 C 0.72992 0.8178 0.34183 0.0
O30 O 0.74369 0.69327 0.26421 0.0
Zn31 Zn 0.71921 0.71822 0.32947 0.0
O32 O 0.77544 0.74267 0.22206 0.0
Zn33 Zn 0.74977 0.76244 0.28252 0.0
O34 O 0.78958 0.73449 0.33674 0.0
O35 O 0.7533 0.68753 0.37739 0.0
O36 O 0.74724 0.82118 0.30035 0.0
O37 O 0.71851 0.78142 0.35665 0.0
O38 O 0.66092 0.70375 0.31401 0.0
O39 O 0.68759 0.74904 0.26168 0.0
C40 C 0.78785 0.70558 0.36938 0.0
C41 C 0.6578 0.72531 0.27466 0.0
C42 C 0.20189 0.72331 0.16714 0.0
C43 C 0.23601 0.84716 0.26997 0.0
O44 O 0.18597 0.75962 0.16121 0.0
Zn45 Zn 0.21302 0.78775 0.2172 0.0
O46 O 0.22607 0.71622 0.20381 0.0
Zn47 Zn 0.25237 0.74911 0.26439 0.0
O48 O 0.22742 0.72386 0.32221 0.0
O49 O 0.18287 0.76282 0.27961 0.0
O50 O 0.25075 0.81217 0.28438 0.0
O51 O 0.21218 0.84856 0.23226 0.0
O52 O 0.27514 0.78349 0.19514 0.0
O53 O 0.31128 0.74811 0.25045 0.0
C54 C 0.19129 0.73964 0.31678 0.0
C55 C 0.30997 0.76979 0.21103 0.0
C56 C 0.30927 0.77617 0.83327 0.0
C57 C 0.18618 0.74495 0.73089 0.0
O58 O 0.27191 0.78563 0.84365 0.0
Zn59 Zn 0.245 0.76791 0.782 0.0
O60 O 0.31788 0.76367 0.79027 0.0
Zn61 Zn 0.28636 0.74658 0.72505 0.0
O62 O 0.30137 0.78871 0.67565 0.0
O63 O 0.25586 0.81444 0.72694 0.0
O64 O 0.22141 0.73907 0.71065 0.0
O65 O 0.18468 0.76059 0.77368 0.0
O66 O 0.26303 0.70434 0.7851 0.0
O67 O 0.30453 0.68744 0.72432 0.0
C68 C 0.27721 0.81839 0.68788 0.0
C69 C 0.28556 0.67738 0.76349 0.0
C70 C 0.31359 0.19581 0.70293 0.0
C71 C 0.26663 0.30672 0.81563 0.0
O72 O 0.28728 0.18333 0.73456 0.0
Zn73 Zn 0.25426 0.20798 0.79579 0.0
O74 O 0.32494 0.23398 0.70303 0.0
Zn75 Zn 0.28908 0.2527 0.75577 0.0
O76 O 0.32192 0.22349 0.81507 0.0
O77 O 0.2817 0.1748 0.84685 0.0
O78 O 0.2861 0.3111 0.77565 0.0
O79 O 0.2537 0.27006 0.82745 0.0
O80 O 0.19669 0.19722 0.77441 0.0
O81 O 0.22874 0.24093 0.72481 0.0
C82 C 0.31676 0.1932 0.84522 0.0
C83 C 0.19669 0.21918 0.73536 0.0
C84 C 0.70606 0.24153 0.68701 0.0
C85 C 0.72712 0.37215 0.77715 0.0
O86 O 0.68992 0.27666 0.67518 0.0
Zn87 Zn 0.7178 0.30873 0.72695 0.0
O88 O 0.73123 0.23916 0.72363 0.0
Zn89 Zn 0.75891 0.27771 0.77826 0.0
O90 O 0.73703 0.25194 0.83747 0.0
O91 O 0.68889 0.28234 0.79085 0.0
O92 O 0.7474 0.34099 0.79462 0.0
O93 O 0.70678 0.36849 0.7372 0.0
O94 O 0.78127 0.30518 0.70301 0.0
O95 O 0.81803 0.27583 0.76236 0.0
C96 C 0.6992 0.26225 0.82991 0.0
C97 C 0.81632 0.29173 0.71954 0.0
C98 C 0.8198 0.7773 0.7183 0.0
C99 C 0.70306 0.79882 0.83038 0.0
O100 O 0.78315 0.76312 0.71165 0.0
Zn101 Zn 0.75982 0.78491 0.77234 0.0
O102 O 0.82881 0.79617 0.75798 0.0
Zn103 Zn 0.80118 0.81549 0.82374 0.0
O104 O 0.831 0.77965 0.87096 0.0
O105 O 0.78701 0.74385 0.82524 0.0
O106 O 0.73819 0.81139 0.84718 0.0
O107 O 0.70107 0.78327 0.78764 0.0
O108 O 0.76943 0.84924 0.75855 0.0
O109 O 0.81141 0.87579 0.81484 0.0
C110 C 0.81399 0.74493 0.85995 0.0
C111 C 0.79001 0.88007 0.77553 0.0
C112 C 0.95465 0.28934 0.58093 0.0
C113 C 0.06667 0.29878 0.45639 0.0
O114 O 0.97323 0.32235 0.56672 0.0
Zn115 Zn 0.01257 0.29691 0.52103 0.0
O116 O 0.96642 0.25409 0.5637 0.0
Zn117 Zn 0.01477 0.23061 0.51733 0.0
O118 O 0.05087 0.20025 0.56379 0.0
O119 O 0.0566 0.26857 0.57131 0.0
O120 O 0.05883 0.26181 0.47185 0.0
O121 O 0.0476 0.32939 0.47578 0.0
O122 O 0.97278 0.27053 0.46571 0.0
O123 O 0.98385 0.20262 0.46462 0.0
C124 C 0.06748 0.23157 0.58477 0.0
C125 C 0.96647 0.23493 0.44582 0.0
C126 C 0.69998 0.08273 0.58556 0.0
C127 C 0.71456 0.96037 0.47463 0.0
O128 O 0.73626 0.07323 0.57093 0.0
Zn129 Zn 0.76963 0.02831 0.53115 0.0
O130 O 0.66974 0.05897 0.5736 0.0
Zn131 Zn 0.70315 0.02016 0.53281 0.0
O132 O 0.73636 0.98806 0.59042 0.0
O133 O 0.80273 1.00395 0.58421 0.0
O134 O 0.68066 0.97568 0.49027 0.0
O135 O 0.74886 0.97676 0.48885 0.0
O136 O 0.79325 0.06635 0.48295 0.0
O137 O 0.7246 0.06476 0.48005 0.0
C138 C 0.77365 0.98576 0.60725 0.0
C139 C 0.75898 0.08018 0.46538 0.0
C140 C 0.9465 0.76804 0.57222 0.0
C141 C 0.05461 0.74305 0.4522 0.0
O142 O 0.96221 0.79572 0.54426 0.0
Zn143 Zn 0.99907 0.75741 0.51135 0.0
O144 O 0.95896 0.73006 0.57083 0.0
Zn145 Zn 1.00079 0.69195 0.53078 0.0
O146 O 0.03764 0.67284 0.58407 0.0
O147 O 0.04112 0.74084 0.56947 0.0
O148 O 0.04437 0.70973 0.47552 0.0
O149 O 0.03528 0.77701 0.46 0.0
O150 O 0.95371 0.72075 0.47536 0.0
O151 O 0.96049 0.65476 0.49874 0.0
C152 C 0.05288 0.70856 0.5941 0.0
C153 C 0.9412 0.6829 0.47428 0.0
C154 C 0.31606 0.06757 0.55573 0.0
C155 C 0.28104 0.96833 0.41913 0.0
O156 O 0.34448 0.04974 0.53084 0.0
Zn157 Zn 0.30811 0.01402 0.48809 0.0
O158 O 0.27837 0.05769 0.54816 0.0
Zn159 Zn 0.24042 0.02496 0.50075 0.0
O160 O 0.21629 0.98291 0.54757 0.0
O161 O 0.28351 0.97243 0.53907 0.0
O162 O 0.25216 0.98762 0.4409 0.0
O163 O 0.31846 0.97336 0.43435 0.0
O164 O 0.28371 0.06369 0.44714 0.0
O165 O 0.21802 0.07513 0.46467 0.0
C166 C 0.24924 0.96231 0.55868 0.0
C167 C 0.25096 0.0856 0.44166 0.0
C168 C 0.45549 0.79731 0.09286 0.0
C169 C 0.56709 0.79938 0.96973 0.0
O170 O 0.47479 0.83066 0.08069 0.0
Zn171 Zn 0.51165 0.80385 0.03273 0.0
O172 O 0.46546 0.76267 0.07365 0.0
Zn173 Zn 0.50758 0.73581 0.02646 0.0
O174 O 0.53781 0.70393 0.07827 0.0
O175 O 0.55019 0.77135 0.08376 0.0
O176 O 0.55441 0.76311 0.98291 0.0
O177 O 0.55059 0.83167 0.98859 0.0
O178 O 0.46589 0.78388 0.9822 0.0
O179 O 0.46634 0.71513 0.97736 0.0
C180 C 0.55524 0.7343 0.10066 0.0
C181 C 0.45092 0.75038 0.96412 0.0
C182 C 0.21712 0.5787 0.04289 0.0
C183 C 0.24513 0.449 0.94856 0.0
O184 O 0.2557 0.57121 0.03621 0.0
Zn185 Zn 0.29381 0.52545 1.00185 0.0
O186 O 0.19026 0.5533 0.02589 0.0
Zn187 Zn 0.22885 0.512 0.99723 0.0
O188 O 0.26005 0.48635 0.06066 0.0
O189 O 0.32622 0.50437 0.05753 0.0
O190 O 0.2097 0.46256 0.96166 0.0
O191 O 0.27785 0.46876 0.96258 0.0
O192 O 0.3187 0.56017 0.95029 0.0
O193 O 0.25334 0.54511 0.93617 0.0
C194 C 0.29676 0.48578 0.07944 0.0
C195 C 0.28689 0.56258 0.92226 0.0
C196 C 0.5618 0.23927 0.96269 0.0
C197 C 0.44664 0.2408 0.07886 0.0
O198 O 0.54138 0.27091 0.9771 0.0
Zn199 Zn 0.50646 0.24162 0.02309 0.0
O200 O 0.55307 0.20265 0.97919 0.0
Zn201 Zn 0.51059 0.17534 0.03175 0.0
O202 O 0.47699 0.13829 0.99168 0.0
O203 O 0.46667 0.20584 0.97683 0.0
O204 O 0.4612 0.204 0.07207 0.0
O205 O 0.46516 0.27218 0.0604 0.0
O206 O 0.55238 0.22083 0.0742 0.0
O207 O 0.54852 0.15232 0.08145 0.0
C208 C 0.45754 0.1675 0.96921 0.0
C209 C 0.56612 0.18652 0.09273 0.0
C210 C 0.75275 0.5822 0.07251 0.0
C211 C 0.74156 0.49022 0.93222 0.0
O212 O 0.78756 0.56564 0.06121 0.0
Zn213 Zn 0.8112 0.52328 1.0077 0.0
O214 O 0.71951 0.57197 0.05003 0.0
Zn215 Zn 0.74599 0.53437 1.00518 0.0
O216 O 0.76442 0.48305 0.05239 0.0
O217 O 0.83271 0.47797 0.04898 0.0
O218 O 0.71274 0.50947 0.95404 0.0
O219 O 0.77907 0.49269 0.94835 0.0
O220 O 0.84922 0.56125 0.97432 0.0
O221 O 0.78307 0.57933 0.96696 0.0
C222 C 0.7984 0.46531 0.06621 0.0
C223 C 0.82145 0.58661 0.95877 0.0
C224 C 0.12701 0.27481 0.3391 0.0
C225 C 0.14825 0.3129 0.33048 0.0
C226 C 0.12022 0.34034 0.40744 0.0
C227 C 0.09455 0.3043 0.41268 0.0
N228 N 0.06686 0.24187 0.37259 0.0
N229 N 0.15918 0.38487 0.35208 0.0
C230 C 0.09583 0.27301 0.37533 0.0
C231 C 0.14272 0.34668 0.36319 0.0
N232 N 0.13813 0.23912 0.31515 0.0
N233 N 0.12582 0.36704 0.44574 0.0
H234 H 0.17561 0.3904 0.31994 0.0
H235 H 0.15295 0.41172 0.37214 0.0
H236 H 0.11325 0.36189 0.48021 0.0
H237 H 0.14712 0.39153 0.44518 0.0
H238 H 0.12712 0.20963 0.32511 0.0
H239 H 0.16138 0.23778 0.28905 0.0
H240 H 0.06444 0.22201 0.34259 0.0
H241 H 0.04226 0.23817 0.39633 0.0
C242 C 0.72498 0.15315 0.36187 0.0
C243 C 0.74853 0.1894 0.37237 0.0
C244 C 0.77564 0.15571 0.44709 0.0
C245 C 0.75727 0.11729 0.43234 0.0
N246 N 0.71803 0.0783 0.37224 0.0
N247 N 0.80094 0.22362 0.42161 0.0
C248 C 0.73264 0.11577 0.3889 0.0
C249 C 0.77497 0.19044 0.41425 0.0
N250 N 0.69509 0.15472 0.32594 0.0
N251 N 0.79203 0.15982 0.49319 0.0
H252 H 0.8011 0.25001 0.39898 0.0
H253 H 0.82436 0.22366 0.44824 0.0
H254 H 0.79198 0.13583 0.51922 0.0
H255 H 0.80185 0.18837 0.50732 0.0
H256 H 0.67413 0.13059 0.31935 0.0
H257 H 0.68861 0.18197 0.30595 0.0
H258 H 0.70372 0.07463 0.33818 0.0
H259 H 0.72358 0.05004 0.39039 0.0
C260 C 0.86337 0.68273 0.3706 0.0
C261 C 0.82659 0.69329 0.39676 0.0
C262 C 0.86405 0.68061 0.47453 0.0
C263 C 0.90136 0.67482 0.44842 0.0
N264 N 0.93759 0.66782 0.37299 0.0
N265 N 0.79373 0.70788 0.47388 0.0
C266 C 0.90105 0.67443 0.39678 0.0
C267 C 0.82716 0.69297 0.44888 0.0
N268 N 0.86242 0.68051 0.32068 0.0
N269 N 0.86432 0.67501 0.52419 0.0
H270 H 0.76688 0.71924 0.45673 0.0
H271 H 0.79379 0.71281 0.51149 0.0
H272 H 0.89108 0.66643 0.54372 0.0
H273 H 0.83767 0.675 0.5454 0.0
H274 H 0.88595 0.66748 0.29989 0.0
H275 H 0.83744 0.69052 0.29935 0.0
H276 H 0.94191 0.67285 0.33574 0.0
H277 H 0.96439 0.65782 0.39151 0.0
C278 C 0.21544 0.89969 0.33244 0.0
C279 C 0.24597 0.88425 0.30056 0.0
C280 C 0.29701 0.93095 0.33936 0.0
C281 C 0.26894 0.93978 0.37767 0.0
N282 N 0.20241 0.9212 0.41477 0.0
N283 N 0.31943 0.87799 0.28335 0.0
C284 C 0.22818 0.92145 0.37526 0.0
C285 C 0.28784 0.89775 0.30673 0.0
N286 N 0.17435 0.89182 0.32357 0.0
N287 N 0.33161 0.9548 0.33248 0.0
H288 H 0.3148 0.85183 0.26169 0.0
H289 H 0.35062 0.88475 0.29023 0.0
H290 H 0.33771 0.98188 0.35222 0.0
H291 H 0.3511 0.95081 0.30261 0.0
H292 H 0.15066 0.90598 0.34325 0.0
H293 H 0.16381 0.87453 0.29375 0.0
H294 H 0.17456 0.90465 0.41534 0.0
H295 H 0.2103 0.93213 0.44926 0.0
C296 C 0.1166 0.70941 0.71415 0.0
C297 C 0.14835 0.73782 0.70031 0.0
C298 C 0.12183 0.73778 0.6164 0.0
C299 C 0.08697 0.714 0.63076 0.0
N300 N 0.04739 0.68296 0.69622 0.0
N301 N 0.1714 0.78951 0.64194 0.0
C302 C 0.08317 0.70126 0.68055 0.0
C303 C 0.1479 0.75522 0.65256 0.0
N304 N 0.11896 0.68921 0.75828 0.0
N305 N 0.13126 0.74237 0.56807 0.0
H306 H 0.18889 0.80494 0.66856 0.0
H307 H 0.16915 0.80536 0.6085 0.0
H308 H 0.11448 0.72752 0.54034 0.0
H309 H 0.15862 0.75654 0.55642 0.0
H310 H 0.09901 0.665 0.76805 0.0
H311 H 0.1428 0.6946 0.7836 0.0
H312 H 0.04145 0.67692 0.73301 0.0
H313 H 0.02228 0.67698 0.67289 0.0
C314 C 0.31061 0.17568 0.61502 0.0
C315 C 0.32509 0.16659 0.6629 0.0
C316 C 0.34639 0.09669 0.63424 0.0
C317 C 0.32382 0.10315 0.59001 0.0
N318 N 0.27126 0.14699 0.54922 0.0
N319 N 0.34884 0.11317 0.72029 0.0
C320 C 0.30241 0.14213 0.58309 0.0
C321 C 0.34126 0.12573 0.67321 0.0
N322 N 0.30183 0.2157 0.60025 0.0
N323 N 0.3705 0.06185 0.64053 0.0
H324 H 0.34245 0.13177 0.75023 0.0
H325 H 0.35687 0.08256 0.72984 0.0
H326 H 0.37329 0.03887 0.6139 0.0
H327 H 0.39035 0.05773 0.67059 0.0
H328 H 0.29434 0.22311 0.56394 0.0
H329 H 0.30609 0.24188 0.62202 0.0
H330 H 0.25217 0.17339 0.54778 0.0
H331 H 0.26144 0.12398 0.52547 0.0
C332 C 0.86186 0.32764 0.65682 0.0
C333 C 0.85359 0.29217 0.68684 0.0
C334 C 0.91574 0.25823 0.65356 0.0
C335 C 0.92012 0.29085 0.61794 0.0
N336 N 0.88847 0.35164 0.57922 0.0
N337 N 0.86776 0.21891 0.70309 0.0
C338 C 0.8908 0.32432 0.61783 0.0
C339 C 0.87917 0.25613 0.68235 0.0
N340 N 0.84297 0.36499 0.6661 0.0
N341 N 0.94683 0.22979 0.66171 0.0
H342 H 0.84026 0.21467 0.72217 0.0
H343 H 0.88325 0.19092 0.69621 0.0
H344 H 0.975 0.23023 0.64357 0.0
H345 H 0.94643 0.20844 0.69074 0.0
H346 H 0.85078 0.39263 0.64796 0.0
H347 H 0.8232 0.36934 0.69563 0.0
H348 H 0.86514 0.37416 0.57574 0.0
H349 H 0.90623 0.34858 0.54781 0.0
C350 C 0.76123 0.94581 0.73903 0.0
C351 C 0.79413 0.91666 0.74241 0.0
C352 C 0.81463 0.93327 0.65822 0.0
C353 C 0.78199 0.96324 0.65459 0.0
N354 N 0.72914 1.00382 0.6957 0.0
N355 N 0.85836 0.89009 0.71114 0.0
C356 C 0.75684 0.97137 0.69632 0.0
C357 C 0.82314 0.91337 0.70402 0.0
N358 N 0.73308 0.94767 0.77602 0.0
N359 N 0.83523 0.92107 0.61718 0.0
H360 H 0.86516 0.87524 0.74442 0.0
H361 H 0.88253 0.88899 0.68615 0.0
H362 H 0.82854 0.93288 0.58233 0.0
H363 H 0.85597 0.89604 0.6167 0.0
H364 H 0.70493 0.96366 0.77338 0.0
H365 H 0.73745 0.93145 0.80898 0.0
H366 H 0.71387 0.01429 0.72671 0.0
H367 H 0.72331 0.02253 0.66515 0.0
C368 C 0.89409 0.76707 0.69324 0.0
C369 C 0.85203 0.77611 0.67977 0.0
C370 C 0.87311 0.78521 0.59431 0.0
C371 C 0.91497 0.77838 0.60868 0.0
N372 N 0.96676 0.77364 0.67251 0.0
N373 N 0.80493 0.80718 0.61988 0.0
C374 C 0.92584 0.77291 0.65846 0.0
C375 C 0.84235 0.78897 0.63093 0.0
N376 N 0.90389 0.75126 0.73854 0.0
N377 N 0.86243 0.78677 0.54579 0.0
H378 H 0.78237 0.81322 0.64595 0.0
H379 H 0.79822 0.8207 0.58587 0.0
H380 H 0.88427 0.78513 0.51794 0.0
H381 H 0.8317 0.78675 0.53337 0.0
H382 H 0.93307 0.73922 0.74767 0.0
H383 H 0.88236 0.74666 0.766 0.0
H384 H 0.9766 0.77409 0.70896 0.0
H385 H 0.99078 0.77823 0.6477 0.0
C386 C 0.2612 0.84924 0.60384 0.0
C387 C 0.26927 0.85534 0.65461 0.0
C388 C 0.2523 0.93034 0.64343 0.0
C389 C 0.24987 0.9249 0.59198 0.0
N390 N 0.26136 0.87977 0.52279 0.0
N391 N 0.27928 0.90381 0.72104 0.0
C392 C 0.25706 0.88453 0.57212 0.0
C393 C 0.26631 0.89649 0.67407 0.0
N394 N 0.25532 0.80988 0.58579 0.0
N395 N 0.24196 0.9681 0.66298 0.0
H396 H 0.29189 0.88054 0.74367 0.0
H397 H 0.2817 0.93362 0.73588 0.0
H398 H 0.23263 0.99361 0.64146 0.0
H399 H 0.23914 0.97303 0.70044 0.0
H400 H 0.24497 0.80434 0.55014 0.0
H401 H 0.25562 0.78298 0.60751 0.0
H402 H 0.27132 0.85198 0.50698 0.0
H403 H 0.25884 0.90452 0.49804 0.0
C404 C 0.16487 0.19526 0.65595 0.0
C405 C 0.16112 0.21839 0.69988 0.0
C406 C 0.09368 0.24587 0.67098 0.0
C407 C 0.09929 0.22597 0.62492 0.0
N408 N 0.144 0.18746 0.57092 0.0
N409 N 0.12443 0.26895 0.7478 0.0
C410 C 0.13575 0.20186 0.61683 0.0
C411 C 0.12606 0.24438 0.70711 0.0
N412 N 0.19616 0.16656 0.65186 0.0
N413 N 0.0569 0.26529 0.68091 0.0
H414 H 0.14663 0.26738 0.77585 0.0
H415 H 0.10268 0.2927 0.75245 0.0
H416 H 0.03288 0.2685 0.6554 0.0
H417 H 0.04883 0.27564 0.71557 0.0
H418 H 0.19827 0.14553 0.62307 0.0
H419 H 0.21806 0.1611 0.67962 0.0
H420 H 0.17206 0.17368 0.56139 0.0
H421 H 0.12441 0.19274 0.54087 0.0
C422 C 0.66191 0.1869 0.64229 0.0
C423 C 0.7011 0.20344 0.65654 0.0
C424 C 0.73335 0.13693 0.63825 0.0
C425 C 0.6963 0.12201 0.61528 0.0
N426 N 0.62592 0.13926 0.5881 0.0
N427 N 0.7755 0.19799 0.64878 0.0
C428 C 0.66046 0.14865 0.61521 0.0
C429 C 0.73721 0.17971 0.64814 0.0
N430 N 0.62618 0.20661 0.65554 0.0
N431 N 0.76472 0.1105 0.6524 0.0
H432 H 0.77943 0.23019 0.65246 0.0
H433 H 0.80238 0.18176 0.63933 0.0
H434 H 0.76245 0.07812 0.65065 0.0
H435 H 0.79078 0.12081 0.67188 0.0
H436 H 0.59688 0.19345 0.65027 0.0
H437 H 0.62607 0.23427 0.67551 0.0
H438 H 0.60118 0.16008 0.58364 0.0
H439 H 0.62316 0.11289 0.56637 0.0
C440 C 0.92142 0.26274 0.31841 0.0
C441 C 0.89307 0.22966 0.31116 0.0
C442 C 0.91151 0.20052 0.39223 0.0
C443 C 0.94157 0.23263 0.39895 0.0
N444 N 0.98005 0.2905 0.36282 0.0
N445 N 0.8665 0.1626 0.33617 0.0
C446 C 0.948 0.26258 0.36042 0.0
C447 C 0.89036 0.19684 0.34626 0.0
N448 N 0.92173 0.29544 0.28583 0.0
N449 N 0.90051 0.17565 0.43091 0.0
H450 H 0.84998 0.15933 0.30339 0.0
H451 H 0.86614 0.13582 0.35808 0.0
H452 H 0.91287 0.17904 0.46605 0.0
H453 H 0.87578 0.15474 0.42978 0.0
H454 H 0.93673 0.32369 0.29249 0.0
H455 H 0.90491 0.29509 0.25293 0.0
H456 H 0.98958 0.30846 0.33306 0.0
H457 H 0.99964 0.29389 0.39284 0.0
C458 C 0.6881 0.85996 0.40298 0.0
C459 C 0.72435 0.8553 0.37407 0.0
C460 C 0.74749 0.92408 0.40256 0.0
C461 C 0.71567 0.925 0.43843 0.0
N462 N 0.66066 0.88665 0.47862 0.0
N463 N 0.79436 0.87947 0.35875 0.0
C464 C 0.68718 0.891 0.44028 0.0
C465 C 0.75572 0.88638 0.37726 0.0
N466 N 0.65384 0.83599 0.39395 0.0
N467 N 0.76909 0.95943 0.3909 0.0
H468 H 0.80348 0.85104 0.34385 0.0
H469 H 0.81893 0.9002 0.36414 0.0
H470 H 0.76217 0.98869 0.40519 0.0
H471 H 0.79017 0.96054 0.3622 0.0
H472 H 0.62563 0.84081 0.41144 0.0
H473 H 0.65198 0.81499 0.365 0.0
H474 H 0.6421 0.86027 0.48333 0.0
H475 H 0.66065 0.90657 0.50859 0.0
C476 C 0.12703 0.70743 0.35083 0.0
C477 C 0.1598 0.73656 0.3557 0.0
C478 C 0.12519 0.76845 0.42596 0.0
C479 C 0.09037 0.74187 0.41808 0.0
N480 N 0.05523 0.69079 0.36811 0.0
N481 N 0.18912 0.7975 0.39425 0.0
C482 C 0.09063 0.71235 0.37939 0.0
C483 C 0.15868 0.76774 0.3924 0.0
N484 N 0.13092 0.67492 0.31897 0.0
N485 N 0.12706 0.79331 0.46645 0.0
H486 H 0.21541 0.79662 0.37234 0.0
H487 H 0.18736 0.82431 0.41552 0.0
H488 H 0.10334 0.79519 0.49195 0.0
H489 H 0.15358 0.80954 0.47726 0.0
H490 H 0.10998 0.65021 0.31686 0.0
H491 H 0.15726 0.67074 0.29761 0.0
H492 H 0.05199 0.67192 0.33743 0.0
H493 H 0.02753 0.69497 0.38683 0.0
C494 C 0.28091 0.19642 0.4036 0.0
C495 C 0.26607 0.19902 0.35467 0.0
C496 C 0.23331 0.12989 0.36698 0.0
C497 C 0.25454 0.12512 0.41235 0.0
N498 N 0.31457 0.14955 0.45962 0.0
N499 N 0.23914 0.15902 0.28567 0.0
C500 C 0.28338 0.1568 0.42644 0.0
C501 C 0.24494 0.16332 0.33499 0.0
N502 N 0.29097 0.23121 0.42982 0.0
N503 N 0.20389 0.1016 0.35299 0.0
H504 H 0.2526 0.17874 0.2599 0.0
H505 H 0.22642 0.1322 0.2701 0.0
H506 H 0.19622 0.07556 0.37424 0.0
H507 H 0.18507 0.10604 0.32207 0.0
H508 H 0.30001 0.22937 0.4666 0.0
H509 H 0.28427 0.2615 0.41789 0.0
H510 H 0.33728 0.17191 0.46725 0.0
H511 H 0.32047 0.12067 0.47578 0.0
C512 C 0.63749 0.7672 0.86527 0.0
C513 C 0.66573 0.80111 0.86231 0.0
C514 C 0.6311 0.83363 0.93223 0.0
C515 C 0.59977 0.80231 0.93109 0.0
N516 N 0.56725 0.74734 0.88318 0.0
N517 N 0.68048 0.87275 0.88418 0.0
C518 C 0.60104 0.77163 0.89346 0.0
C519 C 0.65973 0.83631 0.893 0.0
N520 N 0.64616 0.7297 0.84395 0.0
N521 N 0.63561 0.85926 0.97169 0.0
H522 H 0.69975 0.87682 0.8541 0.0
H523 H 0.67449 0.90023 0.90319 0.0
H524 H 0.61791 0.85654 1.00319 0.0
H525 H 0.66045 0.87992 0.97546 0.0
H526 H 0.62785 0.70321 0.84932 0.0
H527 H 0.67389 0.72335 0.8262 0.0
H528 H 0.56612 0.72724 0.85329 0.0
H529 H 0.53874 0.7509 0.90022 0.0
C530 C 0.3264 0.62125 0.80884 0.0
C531 C 0.28857 0.6358 0.78777 0.0
C532 C 0.24984 0.60208 0.85286 0.0
C533 C 0.28743 0.58567 0.87402 0.0
N534 N 0.35903 0.56678 0.85775 0.0
N535 N 0.21535 0.62477 0.77805 0.0
C536 C 0.32511 0.59115 0.84762 0.0
C537 C 0.25082 0.61973 0.80529 0.0
N538 N 0.36337 0.63724 0.79372 0.0
N539 N 0.214 0.60523 0.879 0.0
H540 H 0.21571 0.63872 0.74334 0.0
H541 H 0.18712 0.61131 0.78784 0.0
H542 H 0.21186 0.5993 0.91628 0.0
H543 H 0.18742 0.61998 0.86511 0.0
H544 H 0.39132 0.63124 0.81214 0.0
H545 H 0.36567 0.65802 0.76433 0.0
H546 H 0.38604 0.56813 0.8371 0.0
H547 H 0.35824 0.54149 0.88198 0.0
C548 C 0.34738 0.17591 0.92836 0.0
C549 C 0.35245 0.17964 0.87684 0.0
C550 C 0.42679 0.16194 0.88626 0.0
C551 C 0.4214 0.15924 0.93726 0.0
N552 N 0.37667 0.15325 1.00657 0.0
N553 N 0.39682 0.17289 0.80585 0.0
C554 C 0.3815 0.1624 0.95802 0.0
C555 C 0.39207 0.17142 0.85548 0.0
N556 N 0.31128 0.18889 0.94949 0.0
N557 N 0.46588 0.15747 0.86784 0.0
H558 H 0.37452 0.18447 0.78165 0.0
H559 H 0.42264 0.16138 0.78776 0.0
H560 H 0.49091 0.14736 0.88953 0.0
H561 H 0.4741 0.16463 0.83205 0.0
H562 H 0.30743 0.19142 0.98712 0.0
H563 H 0.28622 0.20119 0.92964 0.0
H564 H 0.34794 0.1513 0.02354 0.0
H565 H 0.40146 0.14358 0.0289 0.0
C566 C 0.69703 0.40448 0.85088 0.0
C567 C 0.72249 0.40895 0.80918 0.0
C568 C 0.75194 0.4731 0.84349 0.0
C569 C 0.73209 0.46426 0.88862 0.0
N570 N 0.68862 0.41883 0.93707 0.0
N571 N 0.77498 0.4465 0.7652 0.0
C572 C 0.70485 0.42957 0.89267 0.0
C573 C 0.74988 0.4433 0.80502 0.0
N574 N 0.66556 0.37586 0.85045 0.0
N575 N 0.77183 0.51042 0.83713 0.0
H576 H 0.77267 0.42613 0.73561 0.0
H577 H 0.79921 0.46791 0.76258 0.0
H578 H 0.77265 0.5333 0.86414 0.0
H579 H 0.78391 0.52031 0.80381 0.0
H580 H 0.64363 0.37332 0.87804 0.0
H581 H 0.65891 0.35751 0.81994 0.0
H582 H 0.67231 0.39124 0.94326 0.0
H583 H 0.69438 0.43558 0.96901 0.0
C584 C 0.6481 0.237 0.16989 0.0
C585 C 0.68168 0.20773 0.16969 0.0
C586 C 0.63821 0.16092 0.11992 0.0
C587 C 0.60372 0.18844 0.12507 0.0
N588 N 0.57354 0.24433 0.17172 0.0
N589 N 0.70102 0.13502 0.15881 0.0
C590 C 0.60792 0.22354 0.1559 0.0
C591 C 0.67455 0.16753 0.1491 0.0
N592 N 0.65424 0.27835 0.17994 0.0
N593 N 0.63781 0.12989 0.08586 0.0
H594 H 0.72573 0.13704 0.18361 0.0
H595 H 0.69494 0.10459 0.14731 0.0
H596 H 0.61303 0.12442 0.06205 0.0
H597 H 0.66412 0.11213 0.07815 0.0
H598 H 0.6306 0.30057 0.17638 0.0
H599 H 0.68328 0.29181 0.18513 0.0
H600 H 0.57522 0.26838 0.19726 0.0
H601 H 0.54343 0.23411 0.16389 0.0
C602 C 0.77472 0.63248 0.19418 0.0
C603 C 0.7637 0.67499 0.18455 0.0
C604 C 0.74463 0.65632 0.10023 0.0
C605 C 0.75256 0.61371 0.11152 0.0
N606 N 0.76622 0.55988 0.17152 0.0
N607 N 0.72645 0.72409 0.13191 0.0
C608 C 0.76511 0.60142 0.15916 0.0
C609 C 0.74561 0.68621 0.13843 0.0
N610 N 0.79489 0.62162 0.23663 0.0
N611 N 0.73705 0.66853 0.05291 0.0
H612 H 0.7242 0.7465 0.15919 0.0
H613 H 0.70872 0.73151 0.10089 0.0
H614 H 0.73557 0.64757 0.02387 0.0
H615 H 0.73566 0.69981 0.04199 0.0
H616 H 0.80832 0.59235 0.24278 0.0
H617 H 0.8011 0.64272 0.26436 0.0
H618 H 0.77076 0.54895 0.20719 0.0
H619 H 0.75839 0.53626 0.14693 0.0
C620 C 0.37987 0.7489 0.18012 0.0
C621 C 0.34806 0.77932 0.18265 0.0
C622 C 0.387 0.82368 0.12502 0.0
C623 C 0.42116 0.7958 0.12868 0.0
N624 N 0.4527 0.73625 0.1708 0.0
N625 N 0.32569 0.85074 0.16294 0.0
C626 C 0.41853 0.76017 0.16023 0.0
C627 C 0.3529 0.81832 0.15703 0.0
N628 N 0.37245 0.7081 0.19263 0.0
N629 N 0.3852 0.85342 0.08881 0.0
H630 H 0.29906 0.8495 0.18386 0.0
H631 H 0.33168 0.88085 0.14993 0.0
H632 H 0.40845 0.85805 0.06324 0.0
H633 H 0.35846 0.87081 0.081 0.0
H634 H 0.39394 0.68422 0.18689 0.0
H635 H 0.34323 0.69689 0.20201 0.0
H636 H 0.45273 0.71286 0.19764 0.0
H637 H 0.48177 0.74201 0.15636 0.0
C638 C 0.33055 0.40368 0.17428 0.0
C639 C 0.30106 0.41173 0.21126 0.0
C640 C 0.27996 0.47611 0.16826 0.0
C641 C 0.30361 0.46376 0.12714 0.0
N642 N 0.35049 0.41468 0.0898 0.0
N643 N 0.24794 0.45536 0.2449 0.0
C644 C 0.32946 0.42774 0.13015 0.0
C645 C 0.2763 0.44833 0.20905 0.0
N646 N 0.3588 0.37214 0.18104 0.0
N647 N 0.26129 0.51455 0.16825 0.0
H648 H 0.24625 0.4365 0.27619 0.0
H649 H 0.22523 0.47854 0.24281 0.0
H650 H 0.26406 0.53574 0.13923 0.0
H651 H 0.24631 0.52696 0.19845 0.0
H652 H 0.38332 0.36646 0.15746 0.0
H653 H 0.35994 0.35399 0.21293 0.0
H654 H 0.36572 0.38601 0.08778 0.0
H655 H 0.35044 0.4312 0.05678 0.0
C656 C 0.35952 0.226 0.17096 0.0
C657 C 0.32824 0.25287 0.1514 0.0
C658 C 0.3722 0.26633 0.08014 0.0
C659 C 0.40602 0.24553 0.10405 0.0
N660 N 0.43295 0.20981 0.17582 0.0
N661 N 0.30708 0.30328 0.08972 0.0
C662 C 0.39987 0.22616 0.1503 0.0
C663 C 0.33498 0.27409 0.10637 0.0
N664 N 0.35042 0.20019 0.20945 0.0
N665 N 0.37479 0.27717 0.03179 0.0
H666 H 0.27928 0.30968 0.10736 0.0
H667 H 0.31303 0.32325 0.0603 0.0
H668 H 0.40071 0.27069 1.01058 0.0
H669 H 0.34953 0.28852 1.01149 0.0
H670 H 0.37062 0.17711 0.22261 0.0
H671 H 0.32091 0.19902 0.22482 0.0
H672 H 0.43101 0.19916 0.21185 0.0
H673 H 0.4633 0.21069 0.1629 0.0
C674 C 0.77087 0.36011 0.12399 0.0
C675 C 0.78878 0.36394 0.17173 0.0
C676 C 0.81283 0.43483 0.15039 0.0
C677 C 0.79704 0.42986 0.10197 0.0
N678 N 0.7676 0.38537 0.03996 0.0
N679 N 0.83343 0.4017 0.22724 0.0
C680 C 0.77789 0.3918 0.08806 0.0
C681 C 0.81151 0.40049 0.18412 0.0
N682 N 0.74571 0.32691 0.11334 0.0
N683 N 0.82785 0.47284 0.1647 0.0
H684 H 0.83368 0.37708 0.2525 0.0
H685 H 0.85424 0.42541 0.23612 0.0
H686 H 0.83022 0.49837 0.14091 0.0
H687 H 0.83507 0.48008 0.2009 0.0
H688 H 0.72749 0.32507 0.0817 0.0
H689 H 0.74033 0.30242 0.13771 0.0
H690 H 0.7579 0.35667 0.02624 0.0
H691 H 0.77226 0.40778 1.01262 0.0
C692 C 0.63029 0.69051 0.19946 0.0
C693 C 0.62393 0.71913 0.23808 0.0
C694 C 0.57071 0.75571 0.1893 0.0
C695 C 0.57829 0.7283 0.14866 0.0
N696 N 0.62108 0.67438 0.11337 0.0
N697 N 0.58207 0.77112 0.27568 0.0
C698 C 0.6091 0.69636 0.15364 0.0
C699 C 0.59226 0.74931 0.23461 0.0
N700 N 0.65667 0.65748 0.20707 0.0
N701 N 0.54473 0.78946 0.18452 0.0
H702 H 0.59753 0.76653 0.30911 0.0
H703 H 0.55601 0.79024 0.27835 0.0
H704 H 0.52522 0.79528 0.15488 0.0
H705 H 0.54383 0.81385 0.20949 0.0
H706 H 0.66051 0.63307 0.18254 0.0
H707 H 0.672 0.65244 0.24044 0.0
H708 H 0.6463 0.654 0.11304 0.0
H709 H 0.60856 0.67936 0.0785 0.0
C710 C 0.17673 0.65185 0.143 0.0
C711 C 0.19699 0.68962 0.12985 0.0
C712 C 0.22022 0.65689 0.05359 0.0
C713 C 0.20522 0.61744 0.07013 0.0
N714 N 0.17236 0.57654 0.13336 0.0
N715 N 0.24139 0.72736 0.0745 0.0
C716 C 0.1837 0.61477 0.11526 0.0
C717 C 0.21914 0.69214 0.08527 0.0
N718 N 0.15067 0.6516 0.18214 0.0
N719 N 0.2352 0.66078 1.00716 0.0
H720 H 0.24078 0.75419 0.09594 0.0
H721 H 0.26268 0.7291 0.04614 0.0
H722 H 0.23687 0.63571 0.98313 0.0
H723 H 0.24243 0.68938 0.99093 0.0
H724 H 0.13184 0.62635 0.19127 0.0
H725 H 0.14499 0.67833 0.20277 0.0
H726 H 0.1612 0.57196 0.16861 0.0
H727 H 0.17705 0.5487 0.11461 0.0
C728 C 0.37926 0.79665 0.86539 0.0
C729 C 0.3427 0.77275 0.87127 0.0
C730 C 0.37632 0.73404 0.93937 0.0
C731 C 0.41452 0.75467 0.92971 0.0
N732 N 0.45366 0.80111 0.87747 0.0
N733 N 0.30897 0.71292 0.90793 0.0
C734 C 0.41627 0.78482 0.89105 0.0
C735 C 0.34186 0.73987 0.90668 0.0
N736 N 0.37837 0.83127 0.83572 0.0
N737 N 0.37197 0.71058 0.98101 0.0
H738 H 0.28273 0.71626 0.88554 0.0
H739 H 0.3092 0.68535 0.92854 0.0
H740 H 0.39581 0.70612 1.00663 0.0
H741 H 0.34348 0.69882 0.99245 0.0
H742 H 0.40265 0.85265 0.83366 0.0
H743 H 0.35162 0.84085 0.81676 0.0
H744 H 0.45758 0.81961 0.84634 0.0
H745 H 0.48161 0.79293 0.89453 0.0
C746 C 0.22407 0.3466 0.8788 0.0
C747 C 0.2603 0.34328 0.84944 0.0
C748 C 0.28106 0.41283 0.87817 0.0
C749 C 0.24929 0.41264 0.91406 0.0
N750 N 0.19646 0.37203 0.95503 0.0
N751 N 0.32986 0.36959 0.83549 0.0
C752 C 0.22241 0.37742 0.91634 0.0
C753 C 0.29078 0.37529 0.85323 0.0
N754 N 0.1903 0.32197 0.86979 0.0
N755 N 0.30085 0.44905 0.86567 0.0
H756 H 0.34023 0.34122 0.82159 0.0
H757 H 0.35355 0.39133 0.84097 0.0
H758 H 0.29194 0.47824 0.87861 0.0
H759 H 0.32212 0.45062 0.83718 0.0
H760 H 0.16221 0.32585 0.88785 0.0
H761 H 0.18843 0.30162 0.84029 0.0
H762 H 0.17899 0.34493 0.95998 0.0
H763 H 0.19612 0.39199 0.98499 0.0
C764 C 0.66769 0.27116 0.91335 0.0
C765 C 0.66632 0.25282 0.86613 0.0
C766 C 0.59501 0.22891 0.88086 0.0
C767 C 0.5975 0.24457 0.92921 0.0
N768 N 0.63889 0.27331 0.99496 0.0
N769 N 0.63203 0.20753 0.80831 0.0
C770 C 0.63467 0.26356 0.94651 0.0
C771 C 0.63091 0.22967 0.85091 0.0
N772 N 0.69938 0.29761 0.92572 0.0
N773 N 0.55783 0.21483 0.86291 0.0
H774 H 0.65809 0.20675 0.78594 0.0
H775 H 0.60883 0.18682 0.79746 0.0
H776 H 0.53084 0.21461 0.88365 0.0
H777 H 0.5528 0.207 0.8264 0.0
H778 H 0.69959 0.31552 0.9574 0.0
H779 H 0.72395 0.30446 0.90249 0.0
H780 H 0.66686 0.28281 1.01083 0.0
H781 H 0.61538 0.26851 0.02034 0.0
C782 C 0.83425 0.66851 0.85945 0.0
C783 C 0.82432 0.70518 0.88661 0.0
C784 C 0.82864 0.66389 0.96274 0.0
C785 C 0.83212 0.62686 0.93496 0.0
N786 N 0.83947 0.59261 0.85778 0.0
N787 N 0.80703 0.73641 0.96421 0.0
C788 C 0.83599 0.6289 0.88359 0.0
C789 C 0.82095 0.70274 0.93845 0.0
N790 N 0.84231 0.67151 0.81056 0.0
N791 N 0.83238 0.66163 1.01257 0.0
H792 H 0.79914 0.76498 0.94806 0.0
H793 H 0.7996 0.73505 1.00117 0.0
H794 H 0.83803 0.63347 0.03106 0.0
H795 H 0.83396 0.68777 0.03502 0.0
H796 H 0.85464 0.64726 0.79005 0.0
H797 H 0.83913 0.69912 0.79065 0.0
H798 H 0.83651 0.59083 0.81988 0.0
H799 H 0.84377 0.56359 0.87485 0.0
loop_
_geom_bond_atom_site_label_1
_geom_bond_atom_site_label_2
_geom_bond_distance
_geom_bond_site_symmetry_2
_ccdc_geom_bond_type
C0 O2 1.247 . S
C0 O4 1.258 . S
C1 O8 1.247 . S
C1 O9 1.258 . S
O2 C0 1.247 . S
O2 Zn3 2.028 . S
Zn3 O2 2.028 . S
Zn3 O7 2.035 . S
Zn3 O9 2.035 . S
Zn3 O10 2.028 . S
O4 C0 1.258 . S
O4 Zn5 2.035 . S
Zn5 O4 2.035 . S
Zn5 O6 2.028 . S
Zn5 O8 2.028 . S
Zn5 O11 2.035 . S
O6 Zn5 2.028 . S
O6 C12 1.247 . S
O7 Zn3 2.035 . S
O7 C12 1.258 . S
O8 C1 1.247 . S
O8 Zn5 2.028 . S
O9 C1 1.258 . S
O9 Zn3 2.035 . S
O10 Zn3 2.028 . S
O10 C13 1.247 . S
O11 Zn5 2.035 . S
O11 C13 1.258 . S
C12 O6 1.247 . S
C12 O7 1.258 . S
C13 O10 1.247 . S
C13 O11 1.258 . S
C14 O16 1.247 . S
C14 O18 1.258 . S
C15 O22 1.247 . S
C15 O23 1.258 . S
O16 C14 1.247 . S
O16 Zn17 2.028 . S
Zn17 O16 2.028 . S
Zn17 O21 2.035 . S
Zn17 O23 2.035 . S
Zn17 O24 2.028 . S
O18 C14 1.258 . S
O18 Zn19 2.035 . S
Zn19 O18 2.035 . S
Zn19 O20 2.028 . S
Zn19 O22 2.028 . S
Zn19 O25 2.035 . S
O20 Zn19 2.028 . S
O20 C26 1.247 . S
O21 Zn17 2.035 . S
O21 C26 1.258 . S
O22 C15 1.247 . S
O22 Zn19 2.028 . S
O23 C15 1.258 . S
O23 Zn17 2.035 . S
O24 Zn17 2.028 . S
O24 C27 1.247 . S
O25 Zn19 2.035 . S
O25 C27 1.258 . S
C26 O20 1.247 . S
C26 O21 1.258 . S
C27 O24 1.247 . S
C27 O25 1.258 . S
C28 O30 1.247 . S
C28 O32 1.258 . S
C29 O36 1.247 . S
C29 O37 1.258 . S
O30 C28 1.247 . S
O30 Zn31 2.028 . S
Zn31 O30 2.028 . S
Zn31 O35 2.035 . S
Zn31 O37 2.035 . S
Zn31 O38 2.028 . S
O32 C28 1.258 . S
O32 Zn33 2.035 . S
Zn33 O32 2.035 . S
Zn33 O34 2.028 . S
Zn33 O36 2.028 . S
Zn33 O39 2.035 . S
O34 Zn33 2.028 . S
O34 C40 1.247 . S
O35 Zn31 2.035 . S
O35 C40 1.258 . S
O36 C29 1.247 . S
O36 Zn33 2.028 . S
O37 C29 1.258 . S
O37 Zn31 2.035 . S
O38 Zn31 2.028 . S
O38 C41 1.247 . S
O39 Zn33 2.035 . S
O39 C41 1.258 . S
C40 O34 1.247 . S
C40 O35 1.258 . S
C41 O38 1.247 . S
C41 O39 1.258 . S
C42 O44 1.247 . S
C42 O46 1.258 . S
C43 O50 1.247 . S
C43 O51 1.258 . S
O44 C42 1.247 . S
O44 Zn45 2.028 . S
Zn45 O44 2.028 . S
Zn45 O49 2.035 . S
Zn45 O51 2.035 . S
Zn45 O52 2.028 . S
O46 C42 1.258 . S
O46 Zn47 2.035 . S
Zn47 O46 2.035 . S
Zn47 O48 2.028 . S
Zn47 O50 2.028 . S
Zn47 O53 2.035 . S
O48 Zn47 2.028 . S
O48 C54 1.247 . S
O49 Zn45 2.035 . S
O49 C54 1.258 . S
O50 C43 1.247 . S
O50 Zn47 2.028 . S
O51 C43 1.258 . S
O51 Zn45 2.035 . S
O52 Zn45 2.028 . S
O52 C55 1.247 . S
O53 Zn47 2.035 . S
O53 C55 1.258 . S
C54 O48 1.247 . S
C54 O49 1.258 . S
C55 O52 1.247 . S
C55 O53 1.258 . S
C56 O58 1.247 . S
C56 O60 1.258 . S
C57 O64 1.247 . S
C57 O65 1.258 . S
O58 C56 1.247 . S
O58 Zn59 2.028 . S
Zn59 O58 2.028 . S
Zn59 O63 2.035 . S
Zn59 O65 2.035 . S
Zn59 O66 2.028 . S
O60 C56 1.258 . S
O60 Zn61 2.035 . S
Zn61 O60 2.035 . S
Zn61 O62 2.028 . S
Zn61 O64 2.028 . S
Zn61 O67 2.035 . S
O62 Zn61 2.028 . S
O62 C68 1.247 . S
O63 Zn59 2.035 . S
O63 C68 1.258 . S
O64 C57 1.247 . S
O64 Zn61 2.028 . S
O65 C57 1.258 . S
O65 Zn59 2.035 . S
O66 Zn59 2.028 . S
O66 C69 1.247 . S
O67 Zn61 2.035 . S
O67 C69 1.258 . S
C68 O62 1.247 . S
C68 O63 1.258 . S
C69 O66 1.247 . S
C69 O67 1.258 . S
C70 O72 1.247 . S
C70 O74 1.258 . S
C71 O78 1.247 . S
C71 O79 1.258 . S
O72 C70 1.247 . S
O72 Zn73 2.028 . S
Zn73 O72 2.028 . S
Zn73 O77 2.035 . S
Zn73 O79 2.035 . S
Zn73 O80 2.028 . S
O74 C70 1.258 . S
O74 Zn75 2.035 . S
Zn75 O74 2.035 . S
Zn75 O76 2.028 . S
Zn75 O78 2.028 . S
Zn75 O81 2.035 . S
O76 Zn75 2.028 . S
O76 C82 1.247 . S
O77 Zn73 2.035 . S
O77 C82 1.258 . S
O78 C71 1.247 . S
O78 Zn75 2.028 . S
O79 C71 1.258 . S
O79 Zn73 2.035 . S
O80 Zn73 2.028 . S
O80 C83 1.247 . S
O81 Zn75 2.035 . S
O81 C83 1.258 . S
C82 O76 1.247 . S
C82 O77 1.258 . S
C83 O80 1.247 . S
C83 O81 1.258 . S
C84 O86 1.247 . S
C84 O88 1.258 . S
C85 O92 1.247 . S
C85 O93 1.258 . S
O86 C84 1.247 . S
O86 Zn87 2.028 . S
Zn87 O86 2.028 . S
Zn87 O91 2.035 . S
Zn87 O93 2.035 . S
Zn87 O94 2.028 . S
O88 C84 1.258 . S
O88 Zn89 2.035 . S
Zn89 O88 2.035 . S
Zn89 O90 2.028 . S
Zn89 O92 2.028 . S
Zn89 O95 2.035 . S
O90 Zn89 2.028 . S
O90 C96 1.247 . S
O91 Zn87 2.035 . S
O91 C96 1.258 . S
O92 C85 1.247 . S
O92 Zn89 2.028 . S
O93 C85 1.258 . S
O93 Zn87 2.035 . S
O94 Zn87 2.028 . S
O94 C97 1.247 . S
O95 Zn89 2.035 . S
O95 C97 1.258 . S
C96 O90 1.247 . S
C96 O91 1.258 . S
C97 O94 1.247 . S
C97 O95 1.258 . S
C98 O100 1.247 . S
C98 O102 1.258 . S
C99 O106 1.247 . S
C99 O107 1.258 . S
O100 C98 1.247 . S
O100 Zn101 2.028 . S
Zn101 O100 2.028 . S
Zn101 O105 2.035 . S
Zn101 O107 2.035 . S
Zn101 O108 2.028 . S
O102 C98 1.258 . S
O102 Zn103 2.035 . S
Zn103 O102 2.035 . S
Zn103 O104 2.028 . S
Zn103 O106 2.028 . S
Zn103 O109 2.035 . S
O104 Zn103 2.028 . S
O104 C110 1.247 . S
O105 Zn101 2.035 . S
O105 C110 1.258 . S
O106 C99 1.247 . S
O106 Zn103 2.028 . S
O107 C99 1.258 . S
O107 Zn101 2.035 . S
O108 Zn101 2.028 . S
O108 C111 1.247 . S
O109 Zn103 2.035 . S
O109 C111 1.258 . S
C110 O104 1.247 . S
C110 O105 1.258 . S
C111 O108 1.247 . S
C111 O109 1.258 . S
C112 O114 1.247 . S
C112 O116 1.258 . S
C113 O120 1.247 . S
C113 O121 1.258 . S
O114 C112 1.247 . S
O114 Zn115 2.031 . S
Zn115 O114 2.031 . S
Zn115 O119 2.032 1_655 S
Zn115 O121 2.032 1_655 S
Zn115 O122 2.031 . S
O116 C112 1.258 . S
O116 Zn117 2.028 1_655 S
Zn117 O116 2.028 1_455 S
Zn117 O118 2.035 . S
Zn117 O120 2.035 . S
Zn117 O123 2.028 1_455 S
O118 Zn117 2.035 . S
O118 C124 1.247 . S
O119 Zn115 2.032 1_455 S
O119 C124 1.258 . S
O120 C113 1.247 . S
O120 Zn117 2.035 . S
O121 C113 1.258 . S
O121 Zn115 2.032 1_455 S
O122 Zn115 2.031 . S
O122 C125 1.247 . S
O123 Zn117 2.028 1_655 S
O123 C125 1.258 . S
C124 O118 1.247 . S
C124 O119 1.258 . S
C125 O122 1.247 . S
C125 O123 1.258 . S
C126 O128 1.247 . S
C126 O130 1.258 . S
C127 O134 1.247 . S
C127 O135 1.258 . S
O128 C126 1.247 . S
O128 Zn129 2.035 . S
Zn129 O128 2.035 . S
Zn129 O133 2.028 1_545 S
Zn129 O135 2.028 1_545 S
Zn129 O136 2.035 . S
O130 C126 1.258 . S
O130 Zn131 2.032 1_545 S
Zn131 O130 2.032 1_565 S
Zn131 O132 2.031 . S
Zn131 O134 2.031 . S
Zn131 O137 2.032 1_565 S
O132 Zn131 2.031 . S
O132 C138 1.247 . S
O133 Zn129 2.028 1_565 S
O133 C138 1.258 . S
O134 C127 1.247 . S
O134 Zn131 2.031 . S
O135 C127 1.258 . S
O135 Zn129 2.028 1_565 S
O136 Zn129 2.035 . S
O136 C139 1.247 . S
O137 Zn131 2.032 1_545 S
O137 C139 1.258 . S
C138 O132 1.247 . S
C138 O133 1.258 . S
C139 O136 1.247 . S
C139 O137 1.258 . S
C140 O142 1.247 . S
C140 O144 1.258 . S
C141 O148 1.247 . S
C141 O149 1.258 . S
O142 C140 1.247 . S
O142 Zn143 2.031 . S
Zn143 O142 2.031 . S
Zn143 O147 2.032 1_655 S
Zn143 O149 2.032 1_655 S
Zn143 O150 2.031 . S
O144 C140 1.258 . S
O144 Zn145 2.028 1_655 S
Zn145 O144 2.028 1_455 S
Zn145 O146 2.035 . S
Zn145 O148 2.035 . S
Zn145 O151 2.028 1_455 S
O146 Zn145 2.035 . S
O146 C152 1.247 . S
O147 Zn143 2.032 1_455 S
O147 C152 1.258 . S
O148 C141 1.247 . S
O148 Zn145 2.035 . S
O149 C141 1.258 . S
O149 Zn143 2.032 1_455 S
O150 Zn143 2.031 . S
O150 C153 1.247 . S
O151 Zn145 2.028 1_655 S
O151 C153 1.258 . S
C152 O146 1.247 . S
C152 O147 1.258 . S
C153 O150 1.247 . S
C153 O151 1.258 . S
C154 O156 1.247 . S
C154 O158 1.258 . S
C155 O162 1.247 . S
C155 O163 1.258 . S
O156 C154 1.247 . S
O156 Zn157 2.035 . S
Zn157 O156 2.035 . S
Zn157 O161 2.028 1_545 S
Zn157 O163 2.028 1_545 S
Zn157 O164 2.035 . S
O158 C154 1.258 . S
O158 Zn159 2.032 1_545 S
Zn159 O158 2.032 1_565 S
Zn159 O160 2.031 . S
Zn159 O162 2.031 . S
Zn159 O165 2.032 1_565 S
O160 Zn159 2.031 . S
O160 C166 1.247 . S
O161 Zn157 2.028 1_565 S
O161 C166 1.258 . S
O162 C155 1.247 . S
O162 Zn159 2.031 . S
O163 C155 1.258 . S
O163 Zn157 2.028 1_565 S
O164 Zn157 2.035 . S
O164 C167 1.247 . S
O165 Zn159 2.032 1_545 S
O165 C167 1.258 . S
C166 O160 1.247 . S
C166 O161 1.258 . S
C167 O164 1.247 . S
C167 O165 1.258 . S
C168 O170 1.247 . S
C168 O172 1.258 . S
C169 O176 1.247 . S
C169 O177 1.258 . S
O170 C168 1.247 . S
O170 Zn171 2.028 . S
Zn171 O170 2.028 . S
Zn171 O175 2.035 . S
Zn171 O177 2.035 1_554 S
Zn171 O178 2.028 1_554 S
O172 C168 1.258 . S
O172 Zn173 2.035 . S
Zn173 O172 2.035 . S
Zn173 O174 2.028 . S
Zn173 O176 2.028 1_554 S
Zn173 O179 2.035 1_554 S
O174 Zn173 2.028 . S
O174 C180 1.247 . S
O175 Zn171 2.035 . S
O175 C180 1.258 . S
O176 C169 1.247 . S
O176 Zn173 2.028 1_556 S
O177 C169 1.258 . S
O177 Zn171 2.035 1_556 S
O178 Zn171 2.028 1_556 S
O178 C181 1.247 . S
O179 Zn173 2.035 1_556 S
O179 C181 1.258 . S
C180 O174 1.247 . S
C180 O175 1.258 . S
C181 O178 1.247 . S
C181 O179 1.258 . S
C182 O184 1.247 . S
C182 O186 1.258 . S
C183 O190 1.247 . S
C183 O191 1.258 . S
O184 C182 1.247 . S
O184 Zn185 2.028 . S
Zn185 O184 2.028 . S
Zn185 O189 2.035 . S
Zn185 O191 2.035 1_554 S
Zn185 O192 2.028 1_554 S
O186 C182 1.258 . S
O186 Zn187 2.035 . S
Zn187 O186 2.035 . S
Zn187 O188 2.028 . S
Zn187 O190 2.028 1_554 S
Zn187 O193 2.035 1_554 S
O188 Zn187 2.028 . S
O188 C194 1.247 . S
O189 Zn185 2.035 . S
O189 C194 1.258 . S
O190 C183 1.247 . S
O190 Zn187 2.028 1_556 S
O191 C183 1.258 . S
O191 Zn185 2.035 1_556 S
O192 Zn185 2.028 1_556 S
O192 C195 1.247 . S
O193 Zn187 2.035 1_556 S
O193 C195 1.258 . S
C194 O188 1.247 . S
C194 O189 1.258 . S
C195 O192 1.247 . S
C195 O193 1.258 . S
C196 O198 1.247 . S
C196 O200 1.258 . S
C197 O204 1.247 . S
C197 O205 1.258 . S
O198 C196 1.247 . S
O198 Zn199 2.028 1_556 S
Zn199 O198 2.028 1_554 S
Zn199 O203 2.035 1_554 S
Zn199 O205 2.035 . S
Zn199 O206 2.028 . S
O200 C196 1.258 . S
O200 Zn201 2.035 1_556 S
Zn201 O200 2.035 1_554 S
Zn201 O202 2.028 1_554 S
Zn201 O204 2.028 . S
Zn201 O207 2.035 . S
O202 Zn201 2.028 1_556 S
O202 C208 1.247 . S
O203 Zn199 2.035 1_556 S
O203 C208 1.258 . S
O204 C197 1.247 . S
O204 Zn201 2.028 . S
O205 C197 1.258 . S
O205 Zn199 2.035 . S
O206 Zn199 2.028 . S
O206 C209 1.247 . S
O207 Zn201 2.035 . S
O207 C209 1.258 . S
C208 O202 1.247 . S
C208 O203 1.258 . S
C209 O206 1.247 . S
C209 O207 1.258 . S
C210 O212 1.247 . S
C210 O214 1.258 . S
C211 O218 1.247 . S
C211 O219 1.258 . S
O212 C210 1.247 . S
O212 Zn213 2.028 . S
Zn213 O212 2.028 . S
Zn213 O217 2.035 . S
Zn213 O219 2.035 1_554 S
Zn213 O220 2.028 1_554 S
O214 C210 1.258 . S
O214 Zn215 2.035 . S
Zn215 O214 2.035 . S
Zn215 O216 2.028 . S
Zn215 O218 2.028 1_554 S
Zn215 O221 2.035 1_554 S
O216 Zn215 2.028 . S
O216 C222 1.247 . S
O217 Zn213 2.035 . S
O217 C222 1.258 . S
O218 C211 1.247 . S
O218 Zn215 2.028 1_556 S
O219 C211 1.258 . S
O219 Zn213 2.035 1_556 S
O220 Zn213 2.028 1_556 S
O220 C223 1.247 . S
O221 Zn215 2.035 1_556 S
O221 C223 1.258 . S
C222 O216 1.247 . S
C222 O217 1.258 . S
C223 O220 1.247 . S
C223 O221 1.258 . S
C224 C225 1.363 . S
C224 C230 1.379 . S
C224 N232 1.356 . S
C225 C224 1.363 . S
C225 C231 1.363 . S
C226 C227 1.363 . S
C226 C231 1.379 . S
C226 N233 1.356 . S
C227 C226 1.363 . S
C227 C230 1.363 . S
N228 C230 1.356 . S
N228 H240 0.984 . S
N228 H241 0.985 . S
N229 C231 1.356 . S
N229 H234 0.984 . S
N229 H235 0.985 . S
C230 C224 1.379 . S
C230 C227 1.363 . S
C230 N228 1.356 . S
C231 C225 1.363 . S
C231 C226 1.379 . S
C231 N229 1.356 . S
N232 C224 1.356 . S
N232 H238 0.984 . S
N232 H239 0.984 . S
N233 C226 1.356 . S
N233 H236 0.984 . S
N233 H237 0.985 . S
H234 N229 0.984 . S
H235 N229 0.985 . S
H236 N233 0.984 . S
H237 N233 0.985 . S
H238 N232 0.984 . S
H239 N232 0.984 . S
H240 N228 0.984 . S
H241 N228 0.985 . S
C242 C243 1.363 . S
C242 C248 1.379 . S
C242 N250 1.356 . S
C243 C242 1.363 . S
C243 C249 1.363 . S
C244 C245 1.363 . S
C244 C249 1.379 . S
C244 N251 1.356 . S
C245 C244 1.363 . S
C245 C248 1.363 . S
N246 C248 1.356 . S
N246 H258 0.984 . S
N246 H259 0.985 . S
N247 C249 1.356 . S
N247 H252 0.984 . S
N247 H253 0.985 . S
C248 C242 1.379 . S
C248 C245 1.363 . S
C248 N246 1.356 . S
C249 C243 1.363 . S
C249 C244 1.379 . S
C249 N247 1.356 . S
N250 C242 1.356 . S
N250 H256 0.984 . S
N250 H257 0.984 . S
N251 C244 1.356 . S
N251 H254 0.984 . S
N251 H255 0.985 . S
H252 N247 0.984 . S
H253 N247 0.985 . S
H254 N251 0.984 . S
H255 N251 0.985 . S
H256 N250 0.984 . S
H257 N250 0.984 . S
H258 N246 0.984 . S
H259 N246 0.985 . S
C260 C261 1.363 . S
C260 C266 1.379 . S
C260 N268 1.356 . S
C261 C260 1.363 . S
C261 C267 1.363 . S
C262 C263 1.363 . S
C262 C267 1.379 . S
C262 N269 1.356 . S
C263 C262 1.363 . S
C263 C266 1.363 . S
N264 C266 1.356 . S
N264 H276 0.984 . S
N264 H277 0.985 . S
N265 C267 1.356 . S
N265 H270 0.984 . S
N265 H271 0.985 . S
C266 C260 1.379 . S
C266 C263 1.363 . S
C266 N264 1.356 . S
C267 C261 1.363 . S
C267 C262 1.379 . S
C267 N265 1.356 . S
N268 C260 1.356 . S
N268 H274 0.984 . S
N268 H275 0.984 . S
N269 C262 1.356 . S
N269 H272 0.984 . S
N269 H273 0.985 . S
H270 N265 0.984 . S
H271 N265 0.985 . S
H272 N269 0.984 . S
H273 N269 0.985 . S
H274 N268 0.984 . S
H275 N268 0.984 . S
H276 N264 0.984 . S
H277 N264 0.985 . S
C278 C279 1.363 . S
C278 C284 1.379 . S
C278 N286 1.356 . S
C279 C278 1.363 . S
C279 C285 1.363 . S
C280 C281 1.363 . S
C280 C285 1.379 . S
C280 N287 1.356 . S
C281 C280 1.363 . S
C281 C284 1.363 . S
N282 C284 1.356 . S
N282 H294 0.984 . S
N282 H295 0.985 . S
N283 C285 1.356 . S
N283 H288 0.984 . S
N283 H289 0.985 . S
C284 C278 1.379 . S
C284 C281 1.363 . S
C284 N282 1.356 . S
C285 C279 1.363 . S
C285 C280 1.379 . S
C285 N283 1.356 . S
N286 C278 1.356 . S
N286 H292 0.984 . S
N286 H293 0.984 . S
N287 C280 1.356 . S
N287 H290 0.984 . S
N287 H291 0.985 . S
H288 N283 0.984 . S
H289 N283 0.985 . S
H290 N287 0.984 . S
H291 N287 0.985 . S
H292 N286 0.984 . S
H293 N286 0.984 . S
H294 N282 0.984 . S
H295 N282 0.985 . S
C296 C297 1.363 . S
C296 C302 1.379 . S
C296 N304 1.356 . S
C297 C296 1.363 . S
C297 C303 1.363 . S
C298 C299 1.363 . S
C298 C303 1.379 . S
C298 N305 1.356 . S
C299 C298 1.363 . S
C299 C302 1.363 . S
N300 C302 1.356 . S
N300 H312 0.984 . S
N300 H313 0.985 . S
N301 C303 1.356 . S
N301 H306 0.984 . S
N301 H307 0.985 . S
C302 C296 1.379 . S
C302 C299 1.363 . S
C302 N300 1.356 . S
C303 C297 1.363 . S
C303 C298 1.379 . S
C303 N301 1.356 . S
N304 C296 1.356 . S
N304 H310 0.984 . S
N304 H311 0.984 . S
N305 C298 1.356 . S
N305 H308 0.984 . S
N305 H309 0.985 . S
H306 N301 0.984 . S
H307 N301 0.985 . S
H308 N305 0.984 . S
H309 N305 0.985 . S
H310 N304 0.984 . S
H311 N304 0.984 . S
H312 N300 0.984 . S
H313 N300 0.985 . S
C314 C315 1.363 . S
C314 C320 1.379 . S
C314 N322 1.356 . S
C315 C314 1.363 . S
C315 C321 1.363 . S
C316 C317 1.363 . S
C316 C321 1.379 . S
C316 N323 1.356 . S
C317 C316 1.363 . S
C317 C320 1.363 . S
N318 C320 1.356 . S
N318 H330 0.984 . S
N318 H331 0.985 . S
N319 C321 1.356 . S
N319 H324 0.984 . S
N319 H325 0.985 . S
C320 C314 1.379 . S
C320 C317 1.363 . S
C320 N318 1.356 . S
C321 C315 1.363 . S
C321 C316 1.379 . S
C321 N319 1.356 . S
N322 C314 1.356 . S
N322 H328 0.984 . S
N322 H329 0.984 . S
N323 C316 1.356 . S
N323 H326 0.984 . S
N323 H327 0.985 . S
H324 N319 0.984 . S
H325 N319 0.985 . S
H326 N323 0.984 . S
H327 N323 0.985 . S
H328 N322 0.984 . S
H329 N322 0.984 . S
H330 N318 0.984 . S
H331 N318 0.985 . S
C332 C333 1.363 . S
C332 C338 1.379 . S
C332 N340 1.356 . S
C333 C332 1.363 . S
C333 C339 1.363 . S
C334 C335 1.363 . S
C334 C339 1.379 . S
C334 N341 1.356 . S
C335 C334 1.363 . S
C335 C338 1.363 . S
N336 C338 1.356 . S
N336 H348 0.984 . S
N336 H349 0.985 . S
N337 C339 1.356 . S
N337 H342 0.984 . S
N337 H343 0.985 . S
C338 C332 1.379 . S
C338 C335 1.363 . S
C338 N336 1.356 . S
C339 C333 1.363 . S
C339 C334 1.379 . S
C339 N337 1.356 . S
N340 C332 1.356 . S
N340 H346 0.984 . S
N340 H347 0.984 . S
N341 C334 1.356 . S
N341 H344 0.984 . S
N341 H345 0.985 . S
H342 N337 0.984 . S
H343 N337 0.985 . S
H344 N341 0.984 . S
H345 N341 0.985 . S
H346 N340 0.984 . S
H347 N340 0.984 . S
H348 N336 0.984 . S
H349 N336 0.985 . S
C350 C351 1.363 . S
C350 C356 1.379 . S
C350 N358 1.356 . S
C351 C350 1.363 . S
C351 C357 1.363 . S
C352 C353 1.363 . S
C352 C357 1.379 . S
C352 N359 1.356 . S
C353 C352 1.363 . S
C353 C356 1.363 . S
N354 C356 1.356 . S
N354 H366 0.984 . S
N354 H367 0.985 . S
N355 C357 1.356 . S
N355 H360 0.984 . S
N355 H361 0.985 . S
C356 C350 1.379 . S
C356 C353 1.363 . S
C356 N354 1.356 . S
C357 C351 1.363 . S
C357 C352 1.379 . S
C357 N355 1.356 . S
N358 C350 1.356 . S
N358 H364 0.984 . S
N358 H365 0.984 . S
N359 C352 1.356 . S
N359 H362 0.984 . S
N359 H363 0.985 . S
H360 N355 0.984 . S
H361 N355 0.985 . S
H362 N359 0.984 . S
H363 N359 0.985 . S
H364 N358 0.984 . S
H365 N358 0.984 . S
H366 N354 0.984 . S
H367 N354 0.985 . S
C368 C369 1.363 . S
C368 C374 1.379 . S
C368 N376 1.356 . S
C369 C368 1.363 . S
C369 C375 1.363 . S
C370 C371 1.363 . S
C370 C375 1.379 . S
C370 N377 1.356 . S
C371 C370 1.363 . S
C371 C374 1.363 . S
N372 C374 1.356 . S
N372 H384 0.984 . S
N372 H385 0.985 . S
N373 C375 1.356 . S
N373 H378 0.984 . S
N373 H379 0.985 . S
C374 C368 1.379 . S
C374 C371 1.363 . S
C374 N372 1.356 . S
C375 C369 1.363 . S
C375 C370 1.379 . S
C375 N373 1.356 . S
N376 C368 1.356 . S
N376 H382 0.984 . S
N376 H383 0.984 . S
N377 C370 1.356 . S
N377 H380 0.984 . S
N377 H381 0.985 . S
H378 N373 0.984 . S
H379 N373 0.985 . S
H380 N377 0.984 . S
H381 N377 0.985 . S
H382 N376 0.984 . S
H383 N376 0.984 . S
H384 N372 0.984 . S
H385 N372 0.985 . S
C386 C387 1.363 . S
C386 C392 1.379 . S
C386 N394 1.356 . S
C387 C386 1.363 . S
C387 C393 1.363 . S
C388 C389 1.363 . S
C388 C393 1.379 . S
C388 N395 1.356 . S
C389 C388 1.363 . S
C389 C392 1.363 . S
N390 C392 1.356 . S
N390 H402 0.984 . S
N390 H403 0.985 . S
N391 C393 1.356 . S
N391 H396 0.984 . S
N391 H397 0.985 . S
C392 C386 1.379 . S
C392 C389 1.363 . S
C392 N390 1.356 . S
C393 C387 1.363 . S
C393 C388 1.379 . S
C393 N391 1.356 . S
N394 C386 1.356 . S
N394 H400 0.984 . S
N394 H401 0.984 . S
N395 C388 1.356 . S
N395 H398 0.984 . S
N395 H399 0.985 . S
H396 N391 0.984 . S
H397 N391 0.985 . S
H398 N395 0.984 . S
H399 N395 0.985 . S
H400 N394 0.984 . S
H401 N394 0.984 . S
H402 N390 0.984 . S
H403 N390 0.985 . S
C404 C405 1.363 . S
C404 C410 1.379 . S
C404 N412 1.356 . S
C405 C404 1.363 . S
C405 C411 1.363 . S
C406 C407 1.363 . S
C406 C411 1.379 . S
C406 N413 1.356 . S
C407 C406 1.363 . S
C407 C410 1.363 . S
N408 C410 1.356 . S
N408 H420 0.984 . S
N408 H421 0.985 . S
N409 C411 1.356 . S
N409 H414 0.984 . S
N409 H415 0.985 . S
C410 C404 1.379 . S
C410 C407 1.363 . S
C410 N408 1.356 . S
C411 C405 1.363 . S
C411 C406 1.379 . S
C411 N409 1.356 . S
N412 C404 1.356 . S
N412 H418 0.984 . S
N412 H419 0.984 . S
N413 C406 1.356 . S
N413 H416 0.984 . S
N413 H417 0.985 . S
H414 N409 0.984 . S
H415 N409 0.985 . S
H416 N413 0.984 . S
H417 N413 0.985 . S
H418 N412 0.984 . S
H419 N412 0.984 . S
H420 N408 0.984 . S
H421 N408 0.985 . S
C422 C423 1.363 . S
C422 C428 1.379 . S
C422 N430 1.356 . S
C423 C422 1.363 . S
C423 C429 1.363 . S
C424 C425 1.363 . S
C424 C429 1.379 . S
C424 N431 1.356 . S
C425 C424 1.363 . S
C425 C428 1.363 . S
N426 C428 1.356 . S
N426 H438 0.984 . S
N426 H439 0.985 . S
N427 C429 1.356 . S
N427 H432 0.984 . S
N427 H433 0.985 . S
C428 C422 1.379 . S
C428 C425 1.363 . S
C428 N426 1.356 . S
C429 C423 1.363 . S
C429 C424 1.379 . S
C429 N427 1.356 . S
N430 C422 1.356 . S
N430 H436 0.984 . S
N430 H437 0.984 . S
N431 C424 1.356 . S
N431 H434 0.984 . S
N431 H435 0.985 . S
H432 N427 0.984 . S
H433 N427 0.985 . S
H434 N431 0.984 . S
H435 N431 0.985 . S
H436 N430 0.984 . S
H437 N430 0.984 . S
H438 N426 0.984 . S
H439 N426 0.985 . S
C440 C441 1.363 . S
C440 C446 1.379 . S
C440 N448 1.356 . S
C441 C440 1.363 . S
C441 C447 1.363 . S
C442 C443 1.363 . S
C442 C447 1.379 . S
C442 N449 1.356 . S
C443 C442 1.363 . S
C443 C446 1.363 . S
N444 C446 1.356 . S
N444 H456 0.984 . S
N444 H457 0.985 . S
N445 C447 1.356 . S
N445 H450 0.984 . S
N445 H451 0.985 . S
C446 C440 1.379 . S
C446 C443 1.363 . S
C446 N444 1.356 . S
C447 C441 1.363 . S
C447 C442 1.379 . S
C447 N445 1.356 . S
N448 C440 1.356 . S
N448 H454 0.984 . S
N448 H455 0.984 . S
N449 C442 1.356 . S
N449 H452 0.984 . S
N449 H453 0.985 . S
H450 N445 0.984 . S
H451 N445 0.985 . S
H452 N449 0.984 . S
H453 N449 0.985 . S
H454 N448 0.984 . S
H455 N448 0.984 . S
H456 N444 0.984 . S
H457 N444 0.985 . S
C458 C459 1.363 . S
C458 C464 1.379 . S
C458 N466 1.356 . S
C459 C458 1.363 . S
C459 C465 1.363 . S
C460 C461 1.363 . S
C460 C465 1.379 . S
C460 N467 1.356 . S
C461 C460 1.363 . S
C461 C464 1.363 . S
N462 C464 1.356 . S
N462 H474 0.984 . S
N462 H475 0.985 . S
N463 C465 1.356 . S
N463 H468 0.984 . S
N463 H469 0.985 . S
C464 C458 1.379 . S
C464 C461 1.363 . S
C464 N462 1.356 . S
C465 C459 1.363 . S
C465 C460 1.379 . S
C465 N463 1.356 . S
N466 C458 1.356 . S
N466 H472 0.984 . S
N466 H473 0.984 . S
N467 C460 1.356 . S
N467 H470 0.984 . S
N467 H471 0.985 . S
H468 N463 0.984 . S
H469 N463 0.985 . S
H470 N467 0.984 . S
H471 N467 0.985 . S
H472 N466 0.984 . S
H473 N466 0.984 . S
H474 N462 0.984 . S
H475 N462 0.985 . S
C476 C477 1.363 . S
C476 C482 1.379 . S
C476 N484 1.356 . S
C477 C476 1.363 . S
C477 C483 1.363 . S
C478 C479 1.363 . S
C478 C483 1.379 . S
C478 N485 1.356 . S
C479 C478 1.363 . S
C479 C482 1.363 . S
N480 C482 1.356 . S
N480 H492 0.984 . S
N480 H493 0.985 . S
N481 C483 1.356 . S
N481 H486 0.984 . S
N481 H487 0.985 . S
C482 C476 1.379 . S
C482 C479 1.363 . S
C482 N480 1.356 . S
C483 C477 1.363 . S
C483 C478 1.379 . S
C483 N481 1.356 . S
N484 C476 1.356 . S
N484 H490 0.984 . S
N484 H491 0.984 . S
N485 C478 1.356 . S
N485 H488 0.984 . S
N485 H489 0.985 . S
H486 N481 0.984 . S
H487 N481 0.985 . S
H488 N485 0.984 . S
H489 N485 0.985 . S
H490 N484 0.984 . S
H491 N484 0.984 . S
H492 N480 0.984 . S
H493 N480 0.985 . S
C494 C495 1.363 . S
C494 C500 1.379 . S
C494 N502 1.356 . S
C495 C494 1.363 . S
C495 C501 1.363 . S
C496 C497 1.363 . S
C496 C501 1.379 . S
C496 N503 1.356 . S
C497 C496 1.363 . S
C497 C500 1.363 . S
N498 C500 1.356 . S
N498 H510 0.984 . S
N498 H511 0.985 . S
N499 C501 1.356 . S
N499 H504 0.984 . S
N499 H505 0.985 . S
C500 C494 1.379 . S
C500 C497 1.363 . S
C500 N498 1.356 . S
C501 C495 1.363 . S
C501 C496 1.379 . S
C501 N499 1.356 . S
N502 C494 1.356 . S
N502 H508 0.984 . S
N502 H509 0.984 . S
N503 C496 1.356 . S
N503 H506 0.984 . S
N503 H507 0.985 . S
H504 N499 0.984 . S
H505 N499 0.985 . S
H506 N503 0.984 . S
H507 N503 0.985 . S
H508 N502 0.984 . S
H509 N502 0.984 . S
H510 N498 0.984 . S
H511 N498 0.985 . S
C512 C513 1.363 . S
C512 C518 1.379 . S
C512 N520 1.356 . S
C513 C512 1.363 . S
C513 C519 1.363 . S
C514 C515 1.363 . S
C514 C519 1.379 . S
C514 N521 1.356 . S
C515 C514 1.363 . S
C515 C518 1.363 . S
N516 C518 1.356 . S
N516 H528 0.984 . S
N516 H529 0.985 . S
N517 C519 1.356 . S
N517 H522 0.984 . S
N517 H523 0.985 . S
C518 C512 1.379 . S
C518 C515 1.363 . S
C518 N516 1.356 . S
C519 C513 1.363 . S
C519 C514 1.379 . S
C519 N517 1.356 . S
N520 C512 1.356 . S
N520 H526 0.984 . S
N520 H527 0.984 . S
N521 C514 1.356 . S
N521 H524 0.984 . S
N521 H525 0.985 . S
H522 N517 0.984 . S
H523 N517 0.985 . S
H524 N521 0.984 . S
H525 N521 0.985 . S
H526 N520 0.984 . S
H527 N520 0.984 . S
H528 N516 0.984 . S
H529 N516 0.985 . S
C530 C531 1.363 . S
C530 C536 1.379 . S
C530 N538 1.356 . S
C531 C530 1.363 . S
C531 C537 1.363 . S
C532 C533 1.363 . S
C532 C537 1.379 . S
C532 N539 1.356 . S
C533 C532 1.363 . S
C533 C536 1.363 . S
N534 C536 1.356 . S
N534 H546 0.984 . S
N534 H547 0.985 . S
N535 C537 1.356 . S
N535 H540 0.984 . S
N535 H541 0.985 . S
C536 C530 1.379 . S
C536 C533 1.363 . S
C536 N534 1.356 . S
C537 C531 1.363 . S
C537 C532 1.379 . S
C537 N535 1.356 . S
N538 C530 1.356 . S
N538 H544 0.984 . S
N538 H545 0.984 . S
N539 C532 1.356 . S
N539 H542 0.984 . S
N539 H543 0.985 . S
H540 N535 0.984 . S
H541 N535 0.985 . S
H542 N539 0.984 . S
H543 N539 0.985 . S
H544 N538 0.984 . S
H545 N538 0.984 . S
H546 N534 0.984 . S
H547 N534 0.985 . S
C548 C549 1.363 . S
C548 C554 1.379 . S
C548 N556 1.356 . S
C549 C548 1.363 . S
C549 C555 1.363 . S
C550 C551 1.363 . S
C550 C555 1.379 . S
C550 N557 1.356 . S
C551 C550 1.363 . S
C551 C554 1.363 . S
N552 C554 1.356 . S
N552 H564 0.984 . S
N552 H565 0.985 . S
N553 C555 1.356 . S
N553 H558 0.984 . S
N553 H559 0.985 . S
C554 C548 1.379 . S
C554 C551 1.363 . S
C554 N552 1.356 . S
C555 C549 1.363 . S
C555 C550 1.379 . S
C555 N553 1.356 . S
N556 C548 1.356 . S
N556 H562 0.984 . S
N556 H563 0.984 . S
N557 C550 1.356 . S
N557 H560 0.984 . S
N557 H561 0.985 . S
H558 N553 0.984 . S
H559 N553 0.985 . S
H560 N557 0.984 . S
H561 N557 0.985 . S
H562 N556 0.984 . S
H563 N556 0.984 . S
H564 N552 0.984 . S
H565 N552 0.985 . S
C566 C567 1.363 . S
C566 C572 1.379 . S
C566 N574 1.356 . S
C567 C566 1.363 . S
C567 C573 1.363 . S
C568 C569 1.363 . S
C568 C573 1.379 . S
C568 N575 1.356 . S
C569 C568 1.363 . S
C569 C572 1.363 . S
N570 C572 1.356 . S
N570 H582 0.984 . S
N570 H583 0.985 . S
N571 C573 1.356 . S
N571 H576 0.984 . S
N571 H577 0.985 . S
C572 C566 1.379 . S
C572 C569 1.363 . S
C572 N570 1.356 . S
C573 C567 1.363 . S
C573 C568 1.379 . S
C573 N571 1.356 . S
N574 C566 1.356 . S
N574 H580 0.984 . S
N574 H581 0.984 . S
N575 C568 1.356 . S
N575 H578 0.984 . S
N575 H579 0.985 . S
H576 N571 0.984 . S
H577 N571 0.985 . S
H578 N575 0.984 . S
H579 N575 0.985 . S
H580 N574 0.984 . S
H581 N574 0.984 . S
H582 N570 0.984 . S
H583 N570 0.985 . S
C584 C585 1.363 . S
C584 C590 1.379 . S
C584 N592 1.356 . S
C585 C584 1.363 . S
C585 C591 1.363 . S
C586 C587 1.363 . S
C586 C591 1.379 . S
C586 N593 1.356 . S
C587 C586 1.363 . S
C587 C590 1.363 . S
N588 C590 1.356 . S
N588 H600 0.984 . S
N588 H601 0.985 . S
N589 C591 1.356 . S
N589 H594 0.984 . S
N589 H595 0.985 . S
C590 C584 1.379 . S
C590 C587 1.363 . S
C590 N588 1.356 . S
C591 C585 1.363 . S
C591 C586 1.379 . S
C591 N589 1.356 . S
N592 C584 1.356 . S
N592 H598 0.984 . S
N592 H599 0.984 . S
N593 C586 1.356 . S
N593 H596 0.984 . S
N593 H597 0.985 . S
H594 N589 0.984 . S
H595 N589 0.985 . S
H596 N593 0.984 . S
H597 N593 0.985 . S
H598 N592 0.984 . S
H599 N592 0.984 . S
H600 N588 0.984 . S
H601 N588 0.985 . S
C602 C603 1.363 . S
C602 C608 1.379 . S
C602 N610 1.356 . S
C603 C602 1.363 . S
C603 C609 1.363 . S
C604 C605 1.363 . S
C604 C609 1.379 . S
C604 N611 1.356 . S
C605 C604 1.363 . S
C605 C608 1.363 . S
N606 C608 1.356 . S
N606 H618 0.984 . S
N606 H619 0.985 . S
N607 C609 1.356 . S
N607 H612 0.984 . S
N607 H613 0.985 . S
C608 C602 1.379 . S
C608 C605 1.363 . S
C608 N606 1.356 . S
C609 C603 1.363 . S
C609 C604 1.379 . S
C609 N607 1.356 . S
N610 C602 1.356 . S
N610 H616 0.984 . S
N610 H617 0.984 . S
N611 C604 1.356 . S
N611 H614 0.984 . S
N611 H615 0.985 . S
H612 N607 0.984 . S
H613 N607 0.985 . S
H614 N611 0.984 . S
H615 N611 0.985 . S
H616 N610 0.984 . S
H617 N610 0.984 . S
H618 N606 0.984 . S
H619 N606 0.985 . S
C620 C621 1.363 . S
C620 C626 1.379 . S
C620 N628 1.356 . S
C621 C620 1.363 . S
C621 C627 1.363 . S
C622 C623 1.363 . S
C622 C627 1.379 . S
C622 N629 1.356 . S
C623 C622 1.363 . S
C623 C626 1.363 . S
N624 C626 1.356 . S
N624 H636 0.984 . S
N624 H637 0.985 . S
N625 C627 1.356 . S
N625 H630 0.984 . S
N625 H631 0.985 . S
C626 C620 1.379 . S
C626 C623 1.363 . S
C626 N624 1.356 . S
C627 C621 1.363 . S
C627 C622 1.379 . S
C627 N625 1.356 . S
N628 C620 1.356 . S
N628 H634 0.984 . S
N628 H635 0.984 . S
N629 C622 1.356 . S
N629 H632 0.984 . S
N629 H633 0.985 . S
H630 N625 0.984 . S
H631 N625 0.985 . S
H632 N629 0.984 . S
H633 N629 0.985 . S
H634 N628 0.984 . S
H635 N628 0.984 . S
H636 N624 0.984 . S
H637 N624 0.985 . S
C638 C639 1.363 . S
C638 C644 1.379 . S
C638 N646 1.356 . S
C639 C638 1.363 . S
C639 C645 1.363 . S
C640 C641 1.363 . S
C640 C645 1.379 . S
C640 N647 1.356 . S
C641 C640 1.363 . S
C641 C644 1.363 . S
N642 C644 1.356 . S
N642 H654 0.984 . S
N642 H655 0.985 . S
N643 C645 1.356 . S
N643 H648 0.984 . S
N643 H649 0.985 . S
C644 C638 1.379 . S
C644 C641 1.363 . S
C644 N642 1.356 . S
C645 C639 1.363 . S
C645 C640 1.379 . S
C645 N643 1.356 . S
N646 C638 1.356 . S
N646 H652 0.984 . S
N646 H653 0.984 . S
N647 C640 1.356 . S
N647 H650 0.984 . S
N647 H651 0.985 . S
H648 N643 0.984 . S
H649 N643 0.985 . S
H650 N647 0.984 . S
H651 N647 0.985 . S
H652 N646 0.984 . S
H653 N646 0.984 . S
H654 N642 0.984 . S
H655 N642 0.985 . S
C656 C657 1.363 . S
C656 C662 1.379 . S
C656 N664 1.356 . S
C657 C656 1.363 . S
C657 C663 1.363 . S
C658 C659 1.363 . S
C658 C663 1.379 . S
C658 N665 1.356 . S
C659 C658 1.363 . S
C659 C662 1.363 . S
N660 C662 1.356 . S
N660 H672 0.984 . S
N660 H673 0.985 . S
N661 C663 1.356 . S
N661 H666 0.984 . S
N661 H667 0.985 . S
C662 C656 1.379 . S
C662 C659 1.363 . S
C662 N660 1.356 . S
C663 C657 1.363 . S
C663 C658 1.379 . S
C663 N661 1.356 . S
N664 C656 1.356 . S
N664 H670 0.984 . S
N664 H671 0.984 . S
N665 C658 1.356 . S
N665 H668 0.984 . S
N665 H669 0.985 . S
H666 N661 0.984 . S
H667 N661 0.985 . S
H668 N665 0.984 . S
H669 N665 0.985 . S
H670 N664 0.984 . S
H671 N664 0.984 . S
H672 N660 0.984 . S
H673 N660 0.985 . S
C674 C675 1.363 . S
C674 C680 1.379 . S
C674 N682 1.356 . S
C675 C674 1.363 . S
C675 C681 1.363 . S
C676 C677 1.363 . S
C676 C681 1.379 . S
C676 N683 1.356 . S
C677 C676 1.363 . S
C677 C680 1.363 . S
N678 C680 1.356 . S
N678 H690 0.984 . S
N678 H691 0.985 . S
N679 C681 1.356 . S
N679 H684 0.984 . S
N679 H685 0.985 . S
C680 C674 1.379 . S
C680 C677 1.363 . S
C680 N678 1.356 . S
C681 C675 1.363 . S
C681 C676 1.379 . S
C681 N679 1.356 . S
N682 C674 1.356 . S
N682 H688 0.984 . S
N682 H689 0.984 . S
N683 C676 1.356 . S
N683 H686 0.984 . S
N683 H687 0.985 . S
H684 N679 0.984 . S
H685 N679 0.985 . S
H686 N683 0.984 . S
H687 N683 0.985 . S
H688 N682 0.984 . S
H689 N682 0.984 . S
H690 N678 0.984 . S
H691 N678 0.985 . S
C692 C693 1.363 . S
C692 C698 1.379 . S
C692 N700 1.356 . S
C693 C692 1.363 . S
C693 C699 1.363 . S
C694 C695 1.363 . S
C694 C699 1.379 . S
C694 N701 1.356 . S
C695 C694 1.363 . S
C695 C698 1.363 . S
N696 C698 1.356 . S
N696 H708 0.984 . S
N696 H709 0.985 . S
N697 C699 1.356 . S
N697 H702 0.984 . S
N697 H703 0.985 . S
C698 C692 1.379 . S
C698 C695 1.363 . S
C698 N696 1.356 . S
C699 C693 1.363 . S
C699 C694 1.379 . S
C699 N697 1.356 . S
N700 C692 1.356 . S
N700 H706 0.984 . S
N700 H707 0.984 . S
N701 C694 1.356 . S
N701 H704 0.984 . S
N701 H705 0.985 . S
H702 N697 0.984 . S
H703 N697 0.985 . S
H704 N701 0.984 . S
H705 N701 0.985 . S
H706 N700 0.984 . S
H707 N700 0.984 . S
H708 N696 0.984 . S
H709 N696 0.985 . S
C710 C711 1.363 . S
C710 C716 1.379 . S
C710 N718 1.356 . S
C711 C710 1.363 . S
C711 C717 1.363 . S
C712 C713 1.363 . S
C712 C717 1.379 . S
C712 N719 1.356 . S
C713 C712 1.363 . S
C713 C716 1.363 . S
N714 C716 1.356 . S
N714 H726 0.984 . S
N714 H727 0.985 . S
N715 C717 1.356 . S
N715 H720 0.984 . S
N715 H721 0.985 . S
C716 C710 1.379 . S
C716 C713 1.363 . S
C716 N714 1.356 . S
C717 C711 1.363 . S
C717 C712 1.379 . S
C717 N715 1.356 . S
N718 C710 1.356 . S
N718 H724 0.984 . S
N718 H725 0.984 . S
N719 C712 1.356 . S
N719 H722 0.984 . S
N719 H723 0.985 . S
H720 N715 0.984 . S
H721 N715 0.985 . S
H722 N719 0.984 . S
H723 N719 0.985 . S
H724 N718 0.984 . S
H725 N718 0.984 . S
H726 N714 0.984 . S
H727 N714 0.985 . S
C728 C729 1.363 . S
C728 C734 1.379 . S
C728 N736 1.356 . S
C729 C728 1.363 . S
C729 C735 1.363 . S
C730 C731 1.363 . S
C730 C735 1.379 . S
C730 N737 1.356 . S
C731 C730 1.363 . S
C731 C734 1.363 . S
N732 C734 1.356 . S
N732 H744 0.984 . S
N732 H745 0.985 . S
N733 C735 1.356 . S
N733 H738 0.984 . S
N733 H739 0.985 . S
C734 C728 1.379 . S
C734 C731 1.363 . S
C734 N732 1.356 . S
C735 C729 1.363 . S
C735 C730 1.379 . S
C735 N733 1.356 . S
N736 C728 1.356 . S
N736 H742 0.984 . S
N736 H743 0.984 . S
N737 C730 1.356 . S
N737 H740 0.984 . S
N737 H741 0.985 . S
H738 N733 0.984 . S
H739 N733 0.985 . S
H740 N737 0.984 . S
H741 N737 0.985 . S
H742 N736 0.984 . S
H743 N736 0.984 . S
H744 N732 0.984 . S
H745 N732 0.985 . S
C746 C747 1.363 . S
C746 C752 1.379 . S
C746 N754 1.356 . S
C747 C746 1.363 . S
C747 C753 1.363 . S
C748 C749 1.363 . S
C748 C753 1.379 . S
C748 N755 1.356 . S
C749 C748 1.363 . S
C749 C752 1.363 . S
N750 C752 1.356 . S
N750 H762 0.984 . S
N750 H763 0.985 . S
N751 C753 1.356 . S
N751 H756 0.984 . S
N751 H757 0.985 . S
C752 C746 1.379 . S
C752 C749 1.363 . S
C752 N750 1.356 . S
C753 C747 1.363 . S
C753 C748 1.379 . S
C753 N751 1.356 . S
N754 C746 1.356 . S
N754 H760 0.984 . S
N754 H761 0.984 . S
N755 C748 1.356 . S
N755 H758 0.984 . S
N755 H759 0.985 . S
H756 N751 0.984 . S
H757 N751 0.985 . S
H758 N755 0.984 . S
H759 N755 0.985 . S
H760 N754 0.984 . S
H761 N754 0.984 . S
H762 N750 0.984 . S
H763 N750 0.985 . S
C764 C765 1.363 . S
C764 C770 1.379 . S
C764 N772 1.356 . S
C765 C764 1.363 . S
C765 C771 1.363 . S
C766 C767 1.363 . S
C766 C771 1.379 . S
C766 N773 1.356 . S
C767 C766 1.363 . S
C767 C770 1.363 . S
N768 C770 1.356 . S
N768 H780 0.984 . S
N768 H781 0.985 . S
N769 C771 1.356 . S
N769 H774 0.984 . S
N769 H775 0.985 . S
C770 C764 1.379 . S
C770 C767 1.363 . S
C770 N768 1.356 . S
C771 C765 1.363 . S
C771 C766 1.379 . S
C771 N769 1.356 . S
N772 C764 1.356 . S
N772 H778 0.984 . S
N772 H779 0.984 . S
N773 C766 1.356 . S
N773 H776 0.984 . S
N773 H777 0.985 . S
H774 N769 0.984 . S
H775 N769 0.985 . S
H776 N773 0.984 . S
H777 N773 0.985 . S
H778 N772 0.984 . S
H779 N772 0.984 . S
H780 N768 0.984 . S
H781 N768 0.985 . S
C782 C783 1.363 . S
C782 C788 1.379 . S
C782 N790 1.356 . S
C783 C782 1.363 . S
C783 C789 1.363 . S
C784 C785 1.363 . S
C784 C789 1.379 . S
C784 N791 1.356 . S
C785 C784 1.363 . S
C785 C788 1.363 . S
N786 C788 1.356 . S
N786 H798 0.984 . S
N786 H799 0.985 . S
N787 C789 1.356 . S
N787 H792 0.984 . S
N787 H793 0.985 . S
C788 C782 1.379 . S
C788 C785 1.363 . S
C788 N786 1.356 . S
C789 C783 1.363 . S
C789 C784 1.379 . S
C789 N787 1.356 . S
N790 C782 1.356 . S
N790 H796 0.984 . S
N790 H797 0.984 . S
N791 C784 1.356 . S
N791 H794 0.984 . S
N791 H795 0.985 . S
H792 N787 0.984 . S
H793 N787 0.985 . S
H794 N791 0.984 . S
H795 N791 0.985 . S
H796 N790 0.984 . S
H797 N790 0.984 . S
H798 N786 0.984 . S
H799 N786 0.985 . S
C227 C113 1.546 . S
C225 C0 1.556 . S
C245 C139 1.546 . S
C243 C26 1.557 . S
C263 C153 1.546 . S
C261 C40 1.559 . S
C281 C155 1.546 . S
C279 C43 1.559 . S
C297 C57 1.558 . S
C299 C152 1.546 . S
C317 C154 1.547 . S
C315 C70 1.556 . S
C335 C112 1.547 . S
C333 C97 1.559 . S
C353 C138 1.547 . S
C351 C111 1.559 . S
C371 C140 1.546 . S
C369 C98 1.559 . S
C389 C166 1.546 . S
C387 C68 1.559 . S
C407 C124 1.546 . S
C405 C83 1.556 . S
C425 C126 1.546 . S
C423 C84 1.557 . S
C443 C125 1.547 . S
C441 C15 1.560 . S
C461 C127 1.547 . S
C459 C29 1.559 . S
C479 C141 1.547 . S
C477 C54 1.557 . S
C497 C167 1.547 . S
C495 C13 1.556 . S
C515 C169 1.546 . S
C513 C99 1.559 . S
C531 C69 1.558 . S
C533 C195 1.547 . S
C549 C82 1.558 . S
C551 C208 1.548 . S
C567 C85 1.558 . S
C569 C211 1.547 . S
C585 C14 1.558 . S
C587 C209 1.544 . S
C603 C28 1.558 . S
C605 C210 1.546 . S
C621 C55 1.558 . S
C623 C168 1.546 . S
C641 C194 1.547 . S
C639 C12 1.557 . S
C659 C197 1.547 . S
C657 C1 1.557 . S
C675 C27 1.558 . S
C677 C222 1.544 . S
C693 C41 1.558 . S
C695 C180 1.544 . S
C711 C42 1.558 . S
C713 C182 1.544 . S
C731 C181 1.547 . S
C729 C56 1.559 . S
C749 C183 1.547 . S
C747 C71 1.559 . S
C765 C96 1.558 . S
C767 C196 1.547 . S
C785 C223 1.547 . S
C783 C110 1.559 . S
