# Generated by pormake.
# Topology iac, (4,6)-cn, num edge types: 1
# Building blocks:
#     Node 0, Type 0, BuildingBlock: CEKHIL_clean_sbu_0, # of connection points: 4
#     Node 1, Type 0, BuildingBlock: CEKHIL_clean_sbu_0, # of connection points: 4
#     Node 2, Type 0, BuildingBlock: CEKHIL_clean_sbu_0, # of connection points: 4
#     Node 3, Type 0, BuildingBlock: CEKHIL_clean_sbu_0, # of connection points: 4
#     Node 4, Type 0, BuildingBlock: CEKHIL_clean_sbu_0, # of connection points: 4
#     Node 5, Type 0, BuildingBlock: CEKHIL_clean_sbu_0, # of connection points: 4
#     Node 6, Type 0, BuildingBlock: CEKHIL_clean_sbu_0, # of connection points: 4
#     Node 7, Type 0, BuildingBlock: CEKHIL_clean_sbu_0, # of connection points: 4
#     Node 8, Type 0, BuildingBlock: CEKHIL_clean_sbu_0, # of connection points: 4
#     Node 9, Type 0, BuildingBlock: CEKHIL_clean_sbu_0, # of connection points: 4
#     Node 10, Type 0, BuildingBlock: CEKHIL_clean_sbu_0, # of connection points: 4
#     Node 11, Type 0, BuildingBlock: CEKHIL_clean_sbu_0, # of connection points: 4
#     Node 12, Type 0, BuildingBlock: CEKHIL_clean_sbu_0, # of connection points: 4
#     Node 13, Type 0, BuildingBlock: CEKHIL_clean_sbu_0, # of connection points: 4
#     Node 14, Type 0, BuildingBlock: CEKHIL_clean_sbu_0, # of connection points: 4
#     Node 15, Type 0, BuildingBlock: CEKHIL_clean_sbu_0, # of connection points: 4
#     Node 16, Type 0, BuildingBlock: CEKHIL_clean_sbu_0, # of connection points: 4
#     Node 17, Type 0, BuildingBlock: CEKHIL_clean_sbu_0, # of connection points: 4
#     Node 18, Type 0, BuildingBlock: CEKHIL_clean_sbu_0, # of connection points: 4
#     Node 19, Type 0, BuildingBlock: CEKHIL_clean_sbu_0, # of connection points: 4
#     Node 20, Type 0, BuildingBlock: CEKHIL_clean_sbu_0, # of connection points: 4
#     Node 21, Type 0, BuildingBlock: CEKHIL_clean_sbu_0, # of connection points: 4
#     Node 22, Type 0, BuildingBlock: CEKHIL_clean_sbu_0, # of connection points: 4
#     Node 23, Type 0, BuildingBlock: CEKHIL_clean_sbu_0, # of connection points: 4
#     Node 24, Type 1, BuildingBlock: VOLQOD_clean_sbu_1, # of connection points: 6
#     Node 25, Type 1, BuildingBlock: VOLQOD_clean_sbu_1, # of connection points: 6
#     Node 26, Type 1, BuildingBlock: VOLQOD_clean_sbu_1, # of connection points: 6
#     Node 27, Type 1, BuildingBlock: VOLQOD_clean_sbu_1, # of connection points: 6
#     Node 28, Type 1, BuildingBlock: VOLQOD_clean_sbu_1, # of connection points: 6
#     Node 29, Type 1, BuildingBlock: VOLQOD_clean_sbu_1, # of connection points: 6
#     Node 30, Type 1, BuildingBlock: VOLQOD_clean_sbu_1, # of connection points: 6
#     Node 31, Type 1, BuildingBlock: VOLQOD_clean_sbu_1, # of connection points: 6
#     Node 32, Type 1, BuildingBlock: VOLQOD_clean_sbu_1, # of connection points: 6
#     Node 33, Type 1, BuildingBlock: VOLQOD_clean_sbu_1, # of connection points: 6
#     Node 34, Type 1, BuildingBlock: VOLQOD_clean_sbu_1, # of connection points: 6
#     Node 35, Type 1, BuildingBlock: VOLQOD_clean_sbu_1, # of connection points: 6
#     Node 36, Type 1, BuildingBlock: VOLQOD_clean_sbu_1, # of connection points: 6
#     Node 37, Type 1, BuildingBlock: VOLQOD_clean_sbu_1, # of connection points: 6
#     Node 38, Type 1, BuildingBlock: VOLQOD_clean_sbu_1, # of connection points: 6
#     Node 39, Type 1, BuildingBlock: VOLQOD_clean_sbu_1, # of connection points: 6
#     Edge 40, Type (0, 1), BuildingBlock: XUDNAN_clean_linker_2, # of connection points: 2
#     Edge 41, Type (0, 1), BuildingBlock: XUDNAN_clean_linker_2, # of connection points: 2
#     Edge 42, Type (0, 1), BuildingBlock: XUDNAN_clean_linker_2, # of connection points: 2
#     Edge 43, Type (0, 1), BuildingBlock: XUDNAN_clean_linker_2, # of connection points: 2
#     Edge 44, Type (0, 1), BuildingBlock: XUDNAN_clean_linker_2, # of connection points: 2
#     Edge 45, Type (0, 1), BuildingBlock: XUDNAN_clean_linker_2, # of connection points: 2
#     Edge 46, Type (0, 1), BuildingBlock: XUDNAN_clean_linker_2, # of connection points: 2
#     Edge 47, Type (0, 1), BuildingBlock: XUDNAN_clean_linker_2, # of connection points: 2
#     Edge 48, Type (0, 1), BuildingBlock: XUDNAN_clean_linker_2, # of connection points: 2
#     Edge 49, Type (0, 1), BuildingBlock: XUDNAN_clean_linker_2, # of connection points: 2
#     Edge 50, Type (0, 1), BuildingBlock: XUDNAN_clean_linker_2, # of connection points: 2
#     Edge 51, Type (0, 1), BuildingBlock: XUDNAN_clean_linker_2, # of connection points: 2
#     Edge 52, Type (0, 1), BuildingBlock: XUDNAN_clean_linker_2, # of connection points: 2
#     Edge 53, Type (0, 1), BuildingBlock: XUDNAN_clean_linker_2, # of connection points: 2
#     Edge 54, Type (0, 1), BuildingBlock: XUDNAN_clean_linker_2, # of connection points: 2
#     Edge 55, Type (0, 1), BuildingBlock: XUDNAN_clean_linker_2, # of connection points: 2
#     Edge 56, Type (0, 1), BuildingBlock: XUDNAN_clean_linker_2, # of connection points: 2
#     Edge 57, Type (0, 1), BuildingBlock: XUDNAN_clean_linker_2, # of connection points: 2
#     Edge 58, Type (0, 1), BuildingBlock: XUDNAN_clean_linker_2, # of connection points: 2
#     Edge 59, Type (0, 1), BuildingBlock: XUDNAN_clean_linker_2, # of connection points: 2
#     Edge 60, Type (0, 1), BuildingBlock: XUDNAN_clean_linker_2, # of connection points: 2
#     Edge 61, Type (0, 1), BuildingBlock: XUDNAN_clean_linker_2, # of connection points: 2
#     Edge 62, Type (0, 1), BuildingBlock: XUDNAN_clean_linker_2, # of connection points: 2
#     Edge 63, Type (0, 1), BuildingBlock: XUDNAN_clean_linker_2, # of connection points: 2
#     Edge 64, Type (0, 1), BuildingBlock: XUDNAN_clean_linker_2, # of connection points: 2
#     Edge 65, Type (0, 1), BuildingBlock: XUDNAN_clean_linker_2, # of connection points: 2
#     Edge 66, Type (0, 1), BuildingBlock: XUDNAN_clean_linker_2, # of connection points: 2
#     Edge 67, Type (0, 1), BuildingBlock: XUDNAN_clean_linker_2, # of connection points: 2
#     Edge 68, Type (0, 1), BuildingBlock: XUDNAN_clean_linker_2, # of connection points: 2
#     Edge 69, Type (0, 1), BuildingBlock: XUDNAN_clean_linker_2, # of connection points: 2
#     Edge 70, Type (0, 1), BuildingBlock: XUDNAN_clean_linker_2, # of connection points: 2
#     Edge 71, Type (0, 1), BuildingBlock: XUDNAN_clean_linker_2, # of connection points: 2
#     Edge 72, Type (0, 1), BuildingBlock: XUDNAN_clean_linker_2, # of connection points: 2
#     Edge 73, Type (0, 1), BuildingBlock: XUDNAN_clean_linker_2, # of connection points: 2
#     Edge 74, Type (0, 1), BuildingBlock: XUDNAN_clean_linker_2, # of connection points: 2
#     Edge 75, Type (0, 1), BuildingBlock: XUDNAN_clean_linker_2, # of connection points: 2
#     Edge 76, Type (0, 1), BuildingBlock: XUDNAN_clean_linker_2, # of connection points: 2
#     Edge 77, Type (0, 1), BuildingBlock: XUDNAN_clean_linker_2, # of connection points: 2
#     Edge 78, Type (0, 1), BuildingBlock: XUDNAN_clean_linker_2, # of connection points: 2
#     Edge 79, Type (0, 1), BuildingBlock: XUDNAN_clean_linker_2, # of connection points: 2
#     Edge 80, Type (0, 1), BuildingBlock: XUDNAN_clean_linker_2, # of connection points: 2
#     Edge 81, Type (0, 1), BuildingBlock: XUDNAN_clean_linker_2, # of connection points: 2
#     Edge 82, Type (0, 1), BuildingBlock: XUDNAN_clean_linker_2, # of connection points: 2
#     Edge 83, Type (0, 1), BuildingBlock: XUDNAN_clean_linker_2, # of connection points: 2
#     Edge 84, Type (0, 1), BuildingBlock: XUDNAN_clean_linker_2, # of connection points: 2
#     Edge 85, Type (0, 1), BuildingBlock: XUDNAN_clean_linker_2, # of connection points: 2
#     Edge 86, Type (0, 1), BuildingBlock: XUDNAN_clean_linker_2, # of connection points: 2
#     Edge 87, Type (0, 1), BuildingBlock: XUDNAN_clean_linker_2, # of connection points: 2
#     Edge 88, Type (0, 1), BuildingBlock: XUDNAN_clean_linker_2, # of connection points: 2
#     Edge 89, Type (0, 1), BuildingBlock: XUDNAN_clean_linker_2, # of connection points: 2
#     Edge 90, Type (0, 1), BuildingBlock: XUDNAN_clean_linker_2, # of connection points: 2
#     Edge 91, Type (0, 1), BuildingBlock: XUDNAN_clean_linker_2, # of connection points: 2
#     Edge 92, Type (0, 1), BuildingBlock: XUDNAN_clean_linker_2, # of connection points: 2
#     Edge 93, Type (0, 1), BuildingBlock: XUDNAN_clean_linker_2, # of connection points: 2
#     Edge 94, Type (0, 1), BuildingBlock: XUDNAN_clean_linker_2, # of connection points: 2
#     Edge 95, Type (0, 1), BuildingBlock: XUDNAN_clean_linker_2, # of connection points: 2
#     Edge 96, Type (0, 1), BuildingBlock: XUDNAN_clean_linker_2, # of connection points: 2
#     Edge 97, Type (0, 1), BuildingBlock: XUDNAN_clean_linker_2, # of connection points: 2
#     Edge 98, Type (0, 1), BuildingBlock: XUDNAN_clean_linker_2, # of connection points: 2
#     Edge 99, Type (0, 1), BuildingBlock: XUDNAN_clean_linker_2, # of connection points: 2
#     Edge 100, Type (0, 1), BuildingBlock: XUDNAN_clean_linker_2, # of connection points: 2
#     Edge 101, Type (0, 1), BuildingBlock: XUDNAN_clean_linker_2, # of connection points: 2
#     Edge 102, Type (0, 1), BuildingBlock: XUDNAN_clean_linker_2, # of connection points: 2
#     Edge 103, Type (0, 1), BuildingBlock: XUDNAN_clean_linker_2, # of connection points: 2
#     Edge 104, Type (0, 1), BuildingBlock: XUDNAN_clean_linker_2, # of connection points: 2
#     Edge 105, Type (0, 1), BuildingBlock: XUDNAN_clean_linker_2, # of connection points: 2
#     Edge 106, Type (0, 1), BuildingBlock: XUDNAN_clean_linker_2, # of connection points: 2
#     Edge 107, Type (0, 1), BuildingBlock: XUDNAN_clean_linker_2, # of connection points: 2
#     Edge 108, Type (0, 1), BuildingBlock: XUDNAN_clean_linker_2, # of connection points: 2
#     Edge 109, Type (0, 1), BuildingBlock: XUDNAN_clean_linker_2, # of connection points: 2
#     Edge 110, Type (0, 1), BuildingBlock: XUDNAN_clean_linker_2, # of connection points: 2
#     Edge 111, Type (0, 1), BuildingBlock: XUDNAN_clean_linker_2, # of connection points: 2
#     Edge 112, Type (0, 1), BuildingBlock: XUDNAN_clean_linker_2, # of connection points: 2
#     Edge 113, Type (0, 1), BuildingBlock: XUDNAN_clean_linker_2, # of connection points: 2
#     Edge 114, Type (0, 1), BuildingBlock: XUDNAN_clean_linker_2, # of connection points: 2
#     Edge 115, Type (0, 1), BuildingBlock: XUDNAN_clean_linker_2, # of connection points: 2
#     Edge 116, Type (0, 1), BuildingBlock: XUDNAN_clean_linker_2, # of connection points: 2
#     Edge 117, Type (0, 1), BuildingBlock: XUDNAN_clean_linker_2, # of connection points: 2
#     Edge 118, Type (0, 1), BuildingBlock: XUDNAN_clean_linker_2, # of connection points: 2
#     Edge 119, Type (0, 1), BuildingBlock: XUDNAN_clean_linker_2, # of connection points: 2
#     Edge 120, Type (0, 1), BuildingBlock: XUDNAN_clean_linker_2, # of connection points: 2
#     Edge 121, Type (0, 1), BuildingBlock: XUDNAN_clean_linker_2, # of connection points: 2
#     Edge 122, Type (0, 1), BuildingBlock: XUDNAN_clean_linker_2, # of connection points: 2
#     Edge 123, Type (0, 1), BuildingBlock: XUDNAN_clean_linker_2, # of connection points: 2
#     Edge 124, Type (0, 1), BuildingBlock: XUDNAN_clean_linker_2, # of connection points: 2
#     Edge 125, Type (0, 1), BuildingBlock: XUDNAN_clean_linker_2, # of connection points: 2
#     Edge 126, Type (0, 1), BuildingBlock: XUDNAN_clean_linker_2, # of connection points: 2
#     Edge 127, Type (0, 1), BuildingBlock: XUDNAN_clean_linker_2, # of connection points: 2
#     Edge 128, Type (0, 1), BuildingBlock: XUDNAN_clean_linker_2, # of connection points: 2
#     Edge 129, Type (0, 1), BuildingBlock: XUDNAN_clean_linker_2, # of connection points: 2
#     Edge 130, Type (0, 1), BuildingBlock: XUDNAN_clean_linker_2, # of connection points: 2
#     Edge 131, Type (0, 1), BuildingBlock: XUDNAN_clean_linker_2, # of connection points: 2
#     Edge 132, Type (0, 1), BuildingBlock: XUDNAN_clean_linker_2, # of connection points: 2
#     Edge 133, Type (0, 1), BuildingBlock: XUDNAN_clean_linker_2, # of connection points: 2
#     Edge 134, Type (0, 1), BuildingBlock: XUDNAN_clean_linker_2, # of connection points: 2
#     Edge 135, Type (0, 1), BuildingBlock: XUDNAN_clean_linker_2, # of connection points: 2
# Relax obj value: 0.303
# Max RMSD: 0.289
# Mean RMSD: 0.141
data_MOF--net-iac--node1-CEKHIL_clean_sbu_0--node2-VOLQOD_clean_sbu_1--edge1-XUDNAN_clean_linker_2
_symmetry_space_group_name_H-M    P1
_symmetry_Int_Tables_number       1
_symmetry_cell_setting            triclinic
loop_
_symmetry_equiv_pos_as_xyz
'x, y, z'
_cell_length_a     55.126468
_cell_length_b     54.494623
_cell_length_c     53.765289
_cell_angle_alpha  89.989762
_cell_angle_beta   90.325442
_cell_angle_gamma 90.739042
loop_
_atom_site_label
_atom_site_type_symbol
_atom_site_fract_x
_atom_site_fract_y
_atom_site_fract_z
_atom_type_partial_charge
Co0 Co 0.98948 0.25473 0.11889 0.0
O1 O 0.95693 0.25704 0.10612 0.0
O2 O 0.96685 0.24495 0.14422 0.0
C3 C 0.00427 0.29084 0.1057 0.0
O4 O 0.0208 0.25109 0.1386 0.0
Co5 Co 0.03219 0.25153 0.08167 0.0
O6 O 0.05178 0.25747 0.11219 0.0
C7 C 0.0006 0.20862 0.08884 0.0
C8 C 0.95 0.24902 0.12773 0.0
C9 C 0.04348 0.25472 0.13413 0.0
O10 O 0.99075 0.21976 0.10714 0.0
O11 O 0.01634 0.21885 0.07468 0.0
O12 O 0.99094 0.28977 0.12554 0.0
O13 O 0.00495 0.27092 0.09262 0.0
Co14 Co 0.01357 0.74892 0.3875 0.0
O15 O 0.04792 0.74624 0.38244 0.0
O16 O 0.01927 0.72874 0.35883 0.0
C17 C 0.01198 0.78944 0.39439 0.0
O18 O 0.97669 0.7482 0.38604 0.0
Co19 Co 0.99211 0.76557 0.43801 0.0
O20 O 0.96168 0.76887 0.41855 0.0
C21 C 0.01562 0.71778 0.43387 0.0
C22 C 0.04215 0.73228 0.36368 0.0
C23 C 0.95907 0.75854 0.39744 0.0
O24 O 0.01498 0.7194 0.41 0.0
O25 O 0.00915 0.7351 0.44834 0.0
O26 O 0.01299 0.78134 0.37165 0.0
O27 O 0.01483 0.77322 0.41159 0.0
Co28 Co 0.50209 0.79747 0.62947 0.0
O29 O 0.46753 0.79874 0.63335 0.0
O30 O 0.49352 0.78651 0.66236 0.0
C31 C 0.50845 0.83388 0.61131 0.0
O32 O 0.53877 0.79442 0.63212 0.0
Co33 Co 0.5235 0.79552 0.57623 0.0
O34 O 0.55477 0.80059 0.59415 0.0
C35 C 0.49644 0.75334 0.59557 0.0
C36 C 0.47111 0.78948 0.65533 0.0
C37 C 0.55703 0.79786 0.6176 0.0
O38 O 0.49831 0.76281 0.61733 0.0
O39 O 0.50341 0.76454 0.5759 0.0
O40 O 0.50574 0.83268 0.63531 0.0
O41 O 0.50367 0.81389 0.59922 0.0
Co42 Co 0.52249 0.28381 0.88566 0.0
O43 O 0.55691 0.27909 0.88405 0.0
O44 O 0.53009 0.26503 0.85634 0.0
C45 C 0.52377 0.32381 0.89553 0.0
O46 O 0.48592 0.28547 0.88064 0.0
Co47 Co 0.49766 0.29935 0.93502 0.0
O48 O 0.46871 0.30386 0.91342 0.0
C49 C 0.52148 0.2516 0.93019 0.0
C50 C 0.55249 0.26662 0.86392 0.0
C51 C 0.46755 0.29505 0.89147 0.0
O52 O 0.51991 0.25319 0.90636 0.0
O53 O 0.51584 0.26915 0.94479 0.0
O54 O 0.52557 0.31729 0.87231 0.0
O55 O 0.52326 0.30622 0.91146 0.0
Co56 Co 0.12555 0.99505 0.28263 0.0
O57 O 0.12873 0.9601 0.28224 0.0
O58 O 0.15684 0.98655 0.26928 0.0
C59 C 0.11049 -0.00128 0.3209 0.0
O60 O 0.12897 0.0323 0.28169 0.0
Co61 Co 0.07458 0.01848 0.28652 0.0
O62 O 0.09428 0.04762 0.29663 0.0
C63 C 0.08892 0.99409 0.24031 0.0
C64 C 0.14996 0.96384 0.27251 0.0
C65 C 0.11666 0.04994 0.2911 0.0
O66 O 0.11091 0.99351 0.24832 0.0
O67 O 0.07127 0.00171 0.25347 0.0
O68 O 0.13376 0.99643 0.31791 0.0
O69 O 0.09725 0.99565 0.30124 0.0
Co70 Co 0.25824 0.88865 0.49214 0.0
O71 O 0.22643 0.87423 0.49387 0.0
O72 O 0.2356 0.91285 0.50355 0.0
C73 C 0.26741 0.8734 0.45489 0.0
O74 O 0.28895 0.90979 0.49174 0.0
Co75 Co 0.30344 0.8549 0.48987 0.0
O76 O 0.32061 0.886 0.48204 0.0
C77 C 0.27366 0.85761 0.53503 0.0
C78 C 0.21929 0.89544 0.5017 0.0
C79 C 0.31138 0.90697 0.48591 0.0
O80 O 0.26439 0.87769 0.52717 0.0
O81 O 0.28796 0.84463 0.52193 0.0
O82 O 0.2546 0.89323 0.45626 0.0
O83 O 0.27221 0.86268 0.47565 0.0
Co84 Co 0.38203 0.99299 0.76177 0.0
O85 O 0.38603 0.02852 0.76194 0.0
O86 O 0.3556 0.00786 0.74446 0.0
C87 C 0.3912 0.98665 0.80188 0.0
O88 O 0.36925 0.95789 0.75866 0.0
Co89 Co 0.42183 0.95489 0.77325 0.0
O90 O 0.39477 0.93068 0.77532 0.0
C91 C 0.42491 0.98701 0.72904 0.0
C92 C 0.36558 0.02891 0.74968 0.0
C93 C 0.37405 0.93621 0.76657 0.0
O94 O 0.402 0.99129 0.73044 0.0
O95 O 0.43631 0.97462 0.7455 0.0
O96 O 0.36961 0.99409 0.79585 0.0
O97 O 0.40663 0.98502 0.78411 0.0
Co98 Co 0.24171 0.13781 -0.00162 0.0
O99 O 0.27402 0.15082 -0.00079 0.0
O100 O 0.26444 0.11139 0.0034 0.0
C101 C 0.23014 0.15903 0.96475 0.0
O102 O 0.21005 0.11819 -0.003 0.0
Co103 Co 0.1987 0.17312 0.006 0.0
O104 O 0.18073 0.1457 0.98965 0.0
C105 C 0.23043 0.16016 0.04809 0.0
C106 C 0.28116 0.12848 0.00229 0.0
C107 C 0.18843 0.12375 0.99001 0.0
O108 O 0.23925 0.14259 0.03527 0.0
O109 O 0.21559 0.17581 0.03916 0.0
O110 O 0.24174 0.13858 0.96227 0.0
O111 O 0.22785 0.16695 0.98724 0.0
Co112 Co 0.74851 0.38722 0.98802 0.0
O113 O 0.71592 0.39801 0.9833 0.0
O114 O 0.74494 0.41919 0.00288 0.0
C115 C 0.75491 0.37348 0.94949 0.0
O116 O 0.78421 0.38222 0.99559 0.0
Co117 Co 0.76075 0.33185 0.98253 0.0
O118 O 0.79479 0.34423 0.98382 0.0
C119 C 0.73302 0.34885 0.02561 0.0
C120 C 0.72237 0.41743 0.99582 0.0
C121 C 0.80025 0.36581 0.99137 0.0
O122 O 0.73847 0.37119 0.02009 0.0
O123 O 0.73828 0.33065 0.01168 0.0
O124 O 0.75742 0.39681 0.95418 0.0
O125 O 0.74613 0.36022 0.9672 0.0
Co126 Co 0.88564 0.49541 0.26333 0.0
O127 O 0.8894 0.52941 0.25481 0.0
O128 O 0.85985 0.50488 0.24086 0.0
C129 C 0.89175 0.50019 0.30433 0.0
O130 O 0.87556 0.45961 0.26886 0.0
Co131 Co 0.9289 0.46695 0.2863 0.0
O132 O 0.90389 0.44129 0.29246 0.0
C133 C 0.93084 0.4859 0.2351 0.0
C134 C 0.87005 0.52654 0.24124 0.0
C135 C 0.88312 0.44134 0.2819 0.0
O136 O 0.90754 0.48708 0.23481 0.0
O137 O 0.94294 0.48042 0.25467 0.0
O138 O 0.87041 0.50412 0.29482 0.0
O139 O 0.90871 0.49562 0.28866 0.0
Co140 Co 0.74797 0.63251 0.50146 0.0
O141 O 0.78192 0.62602 0.50146 0.0
O142 O 0.75404 0.60176 0.5185 0.0
C143 C 0.7444 0.64345 0.4615 0.0
O144 O 0.71108 0.6335 0.50375 0.0
Co145 Co 0.73164 0.68602 0.49274 0.0
O146 O 0.69941 0.66988 0.48821 0.0
C147 C 0.75457 0.67299 0.54007 0.0
C148 C 0.77687 0.60636 0.5141 0.0
C149 C 0.6946 0.64816 0.49571 0.0
O150 O 0.75223 0.65036 0.53386 0.0
O151 O 0.74917 0.69063 0.52539 0.0
O152 O 0.74438 0.62038 0.46767 0.0
O153 O 0.74969 0.65877 0.47916 0.0
Co154 Co 0.62855 0.51316 0.78454 0.0
O155 O 0.63289 0.47829 0.78472 0.0
O156 O 0.65886 0.50542 0.76883 0.0
C157 C 0.61638 0.51742 0.82396 0.0
O158 O 0.63104 0.55029 0.78216 0.0
Co159 Co 0.57783 0.53604 0.7927 0.0
O160 O 0.59754 0.5662 0.79907 0.0
C161 C 0.58886 0.51213 0.74506 0.0
C162 C 0.65318 0.4826 0.77322 0.0
C163 C 0.61925 0.56841 0.79123 0.0
O164 O 0.61128 0.5106 0.75153 0.0
O165 O 0.57236 0.52001 0.75958 0.0
O166 O 0.6394 0.51573 0.81909 0.0
O167 O 0.6018 0.51356 0.80549 0.0
Co168 Co 0.01028 0.73206 0.87663 0.0
O169 O 0.04323 0.72262 0.87118 0.0
O170 O 0.01354 0.71872 0.84346 0.0
C171 C 0.02018 0.76935 0.89205 0.0
O172 O 0.97433 0.74025 0.87542 0.0
Co173 Co 0.99211 0.74327 0.92985 0.0
O174 O 0.96216 0.75386 0.91271 0.0
C175 C 0.99564 0.69174 0.9129 0.0
C176 C 0.03652 0.71691 0.84875 0.0
C177 C 0.958 0.74888 0.88992 0.0
O178 O 0.00205 0.69893 0.89107 0.0
O179 O 0.99258 0.70644 0.93117 0.0
O180 O 0.01876 0.76574 0.86826 0.0
O181 O 0.0172 0.7501 0.90581 0.0
Co182 Co 0.00164 0.24738 0.62475 0.0
O183 O 0.96982 0.23932 0.61276 0.0
O184 O 0.98172 0.23551 0.65193 0.0
C185 C 0.00193 0.28381 0.60526 0.0
O186 O 0.03294 0.25434 0.64391 0.0
Co187 Co 0.04405 0.25736 0.58881 0.0
O188 O 0.06088 0.27067 0.61845 0.0
C189 C 0.03069 0.20624 0.60293 0.0
C190 C 0.96416 0.23454 0.63561 0.0
C191 C 0.05388 0.26425 0.64003 0.0
O192 O 0.01339 0.21374 0.61682 0.0
O193 O 0.04408 0.22053 0.58979 0.0
O194 O 0.99256 0.28145 0.62721 0.0
O195 O 0.01045 0.2641 0.59543 0.0
Co196 Co 0.49999 0.2954 0.3816 0.0
O197 O 0.5346 0.29195 0.37957 0.0
O198 O 0.50774 0.27396 0.35439 0.0
C199 C 0.50234 0.33651 0.38541 0.0
O200 O 0.46335 0.29417 0.37704 0.0
Co201 Co 0.47453 0.31795 0.42697 0.0
O202 O 0.44368 0.30854 0.41035 0.0
C203 C 0.49382 0.2677 0.42959 0.0
C204 C 0.53029 0.27847 0.36011 0.0
C205 C 0.44376 0.29816 0.38916 0.0
O206 O 0.49777 0.26752 0.406 0.0
O207 O 0.48731 0.28685 0.44147 0.0
O208 O 0.50256 0.32645 0.36355 0.0
O209 O 0.5012 0.3217 0.40406 0.0
Co210 Co 0.50343 0.79371 0.15799 0.0
O211 O 0.46916 0.78845 0.15488 0.0
O212 O 0.49131 0.77905 0.18808 0.0
C213 C 0.50243 0.83194 0.14272 0.0
O214 O 0.53866 0.79629 0.16837 0.0
Co215 Co 0.53584 0.80372 0.11238 0.0
O216 O 0.56281 0.80686 0.13664 0.0
C217 C 0.52023 0.75301 0.12411 0.0
C218 C 0.47014 0.77972 0.17732 0.0
C219 C 0.55971 0.8009 0.15931 0.0
O220 O 0.50975 0.76063 0.14384 0.0
O221 O 0.53025 0.76738 0.10823 0.0
O222 O 0.49811 0.82789 0.16611 0.0
O223 O 0.5063 0.81282 0.12918 0.0
Co224 Co 0.89471 0.02873 0.76288 0.0
O225 O 0.89804 0.06316 0.75557 0.0
O226 O 0.87281 0.03715 0.73655 0.0
C227 C 0.89331 0.03334 0.80416 0.0
O228 O 0.88498 0.99317 0.76485 0.0
Co229 Co 0.93099 -0.00131 0.79461 0.0
O230 O 0.90796 0.97052 0.79025 0.0
C231 C 0.93918 0.00583 0.74057 0.0
C232 C 0.88049 0.05957 0.73964 0.0
C233 C 0.89039 0.97269 0.77496 0.0
O234 O 0.92033 0.01942 0.73856 0.0
O235 O 0.94707 -0.00262 0.76127 0.0
O236 O 0.87383 0.03629 0.7909 0.0
O237 O 0.91308 0.02901 0.79227 0.0
Co238 Co 0.77416 0.14043 0.49212 0.0
O239 O 0.80571 0.13622 0.50653 0.0
O240 O 0.77283 0.11454 0.51647 0.0
C241 C 0.78747 0.14103 0.45288 0.0
O242 O 0.739 0.13872 0.48128 0.0
Co243 Co 0.76074 0.18555 0.45972 0.0
O244 O 0.72924 0.16834 0.45419 0.0
C245 C 0.76014 0.18894 0.51489 0.0
C246 C 0.79613 0.11795 0.51867 0.0
C247 C 0.72369 0.14944 0.46701 0.0
O248 O 0.76564 0.16615 0.51723 0.0
O249 O 0.75917 0.20008 0.49393 0.0
O250 O 0.78333 0.12023 0.46387 0.0
O251 O 0.78458 0.16058 0.46597 0.0
Co252 Co 0.62789 0.98225 0.26442 0.0
O253 O 0.63111 0.94712 0.26457 0.0
O254 O 0.65419 0.97298 0.24304 0.0
C255 C 0.62432 0.98626 0.3057 0.0
O256 O 0.63096 0.01918 0.26013 0.0
Co257 Co 0.58122 0.00759 0.28432 0.0
O258 O 0.59774 0.0385 0.27394 0.0
C259 C 0.58051 0.98257 0.23593 0.0
C260 C 0.64952 0.95056 0.24994 0.0
C261 C 0.61856 0.03866 0.26375 0.0
O262 O 0.60382 0.98087 0.23602 0.0
O263 O 0.56827 0.98906 0.25492 0.0
O264 O 0.64576 0.9841 0.29611 0.0
O265 O 0.60623 0.98396 0.29067 0.0
Co266 Co 0.73615 0.88601 0.00906 0.0
O267 O 0.70321 0.88876 0.01933 0.0
O268 O 0.73268 0.9147 0.03001 0.0
C269 C 0.72636 0.87995 0.96874 0.0
O270 O 0.77222 0.88874 0.00179 0.0
Co271 Co 0.75293 0.83712 0.98481 0.0
O272 O 0.78446 0.85467 0.98204 0.0
C273 C 0.75249 0.84259 0.03983 0.0
C274 C 0.70963 0.90909 0.0301 0.0
C275 C 0.78883 0.87548 0.99207 0.0
O276 O 0.74445 0.86462 0.03825 0.0
O277 O 0.7552 0.82846 0.02102 0.0
O278 O 0.72821 0.90198 0.97766 0.0
O279 O 0.72896 0.8624 0.98459 0.0
Co280 Co 0.26182 0.62286 -0.00313 0.0
O281 O 0.29333 0.62435 0.01193 0.0
O282 O 0.26462 0.59703 0.02124 0.0
C283 C 0.27592 0.62602 0.95807 0.0
O284 O 0.22763 0.61512 0.98501 0.0
Co285 Co 0.24169 0.66513 0.96429 0.0
O286 O 0.21476 0.64193 0.95627 0.0
C287 C 0.2421 0.66918 0.01929 0.0
C288 C 0.28692 0.60471 0.02396 0.0
C289 C 0.21176 0.62258 0.96923 0.0
O290 O 0.24901 0.64681 0.02165 0.0
O291 O 0.24015 0.68014 -0.00169 0.0
O292 O 0.275 0.60476 0.96891 0.0
O293 O 0.26928 0.6446 0.97114 0.0
Co294 Co 0.13755 0.49807 0.78308 0.0
O295 O 0.13304 0.46368 0.77591 0.0
O296 O 0.16133 0.48797 0.75945 0.0
C297 C 0.13323 0.49183 0.82433 0.0
O298 O 0.1497 0.53308 0.78596 0.0
Co299 Co 0.10133 0.5315 0.80861 0.0
O300 O 0.11825 0.5579 0.78976 0.0
C301 C 0.09141 0.51245 0.75852 0.0
C302 C 0.15198 0.46612 0.76178 0.0
C303 C 0.1394 0.55359 0.78182 0.0
O304 O 0.11392 0.50699 0.75603 0.0
O305 O 0.08235 0.51931 0.77919 0.0
O306 O 0.15428 0.48903 0.81393 0.0
O307 O 0.11611 0.49924 0.80985 0.0
Co308 Co 0.23542 0.38086 0.51156 0.0
O309 O 0.20339 0.36675 0.51214 0.0
O310 O 0.21634 0.39643 0.53714 0.0
C311 C 0.23552 0.3861 0.47004 0.0
O312 O 0.26688 0.40028 0.51582 0.0
Co313 Co 0.27627 0.35495 0.48166 0.0
O314 O 0.29575 0.38416 0.49152 0.0
C315 C 0.26219 0.33636 0.53117 0.0
C316 C 0.19833 0.38299 0.52887 0.0
C317 C 0.28863 0.39996 0.5073 0.0
O318 O 0.24833 0.35494 0.53489 0.0
O319 O 0.27244 0.33188 0.51038 0.0
O320 O 0.22533 0.40221 0.48416 0.0
O321 O 0.24365 0.36693 0.48114 0.0
Co322 Co 0.37917 0.50427 0.27148 0.0
O323 O 0.38992 0.53787 0.27103 0.0
O324 O 0.36312 0.52144 0.24485 0.0
C325 C 0.3727 0.50391 0.31276 0.0
O326 O 0.36266 0.47129 0.26617 0.0
Co327 Co 0.40591 0.46414 0.30045 0.0
O328 O 0.37924 0.44198 0.28981 0.0
C329 C 0.42463 0.47996 0.25185 0.0
C330 C 0.37445 0.54091 0.25303 0.0
C331 C 0.36369 0.44907 0.27388 0.0
O332 O 0.40658 0.49452 0.24934 0.0
O333 O 0.42831 0.46691 0.27126 0.0
O334 O 0.35637 0.51211 0.29753 0.0
O335 O 0.39283 0.497 0.30283 0.0
O336 O 0.99573 0.03456 0.01745 0.0
Zn337 Zn 0.00297 0.00708 0.99458 0.0
O338 O 0.00171 0.97671 0.0126 0.0
Zn339 Zn 0.03446 0.96455 0.01689 0.0
Zn340 Zn 0.98434 0.98112 0.04377 0.0
Zn341 Zn 0.98349 0.9537 0.99316 0.0
O342 O 0.03949 0.93308 -0.00253 0.0
O343 O 0.00486 0.93014 0.97608 0.0
O344 O 0.036 0.01385 0.98098 0.0
O345 O 0.05904 0.98914 0.00364 0.0
O346 O 0.04086 0.95934 0.05328 0.0
O347 O 0.00634 0.96999 0.07152 0.0
O348 O 0.95259 0.96105 0.04426 0.0
O349 O 0.9779 0.00819 0.96773 0.0
O350 O 0.96126 0.93451 0.01433 0.0
O351 O 0.9622 0.97054 0.96841 0.0
C352 C 0.98526 0.03631 0.03837 0.0
C353 C 0.02622 0.92296 0.98083 0.0
C354 C 0.0281 0.96231 0.07274 0.0
C355 C 0.05678 0.00659 0.98805 0.0
C356 C 0.94816 0.9412 0.03237 0.0
C357 C 0.9624 0.99238 0.96014 0.0
O358 O 0.97828 0.01728 0.05032 0.0
O359 O 0.22297 0.71367 0.20238 0.0
Zn360 Zn 0.22943 0.70971 0.23886 0.0
O361 O 0.24184 0.74065 0.25149 0.0
Zn362 Zn 0.26773 0.73233 0.27365 0.0
Zn363 Zn 0.25337 0.76235 0.22547 0.0
Zn364 Zn 0.21754 0.75777 0.26941 0.0
O365 O 0.26569 0.74972 0.30567 0.0
O366 O 0.23059 0.76892 0.30259 0.0
O367 O 0.25526 0.68373 0.2428 0.0
O368 O 0.27147 0.69647 0.27836 0.0
O369 O 0.2989 0.74254 0.25891 0.0
O370 O 0.29006 0.76244 0.22408 0.0
O371 O 0.24111 0.797 0.23007 0.0
O372 O 0.19814 0.70022 0.25654 0.0
O373 O 0.20834 0.78889 0.25254 0.0
O374 O 0.18863 0.73608 0.27381 0.0
C375 C 0.22838 0.73049 0.1868 0.0
C376 C 0.25012 0.76433 0.31434 0.0
C377 C 0.30551 0.75376 0.23937 0.0
C378 C 0.2699 0.68076 0.26094 0.0
C379 C 0.22123 0.80374 0.2398 0.0
C380 C 0.18365 0.71378 0.26865 0.0
O381 O 0.24009 0.74982 0.19317 0.0
O382 O 0.52008 0.98757 0.5252 0.0
Zn383 Zn 0.50556 0.01073 0.50123 0.0
O384 O 0.51076 0.04339 0.51293 0.0
Zn385 Zn 0.48119 0.05677 0.52506 0.0
Zn386 Zn 0.53575 0.04439 0.53866 0.0
Zn387 Zn 0.51887 0.06288 0.48463 0.0
O388 O 0.47853 0.09173 0.51387 0.0
O389 O 0.4936 0.08733 0.47603 0.0
O390 O 0.46989 0.00397 0.49633 0.0
O391 O 0.45278 0.03729 0.51199 0.0
O392 O 0.48102 0.05483 0.56212 0.0
O393 O 0.52018 0.05225 0.57176 0.0
O394 O 0.56292 0.06866 0.52908 0.0
O395 O 0.52392 0.00509 0.46978 0.0
O396 O 0.54797 0.08246 0.49324 0.0
O397 O 0.52914 0.04289 0.45545 0.0
C398 C 0.53849 0.98951 0.53947 0.0
C399 C 0.48249 0.10005 0.49211 0.0
C400 C 0.49799 0.05381 0.57822 0.0
C401 C 0.45111 0.01646 0.50131 0.0
C402 C 0.56406 0.08294 0.51023 0.0
C403 C 0.53175 0.01984 0.45328 0.0
O404 O 0.54862 0.01011 0.54447 0.0
O405 O 0.24908 0.25935 0.80371 0.0
Zn406 Zn 0.26801 0.27604 0.7767 0.0
O407 O 0.27073 0.25489 0.74785 0.0
Zn408 Zn 0.30453 0.24671 0.74022 0.0
Zn409 Zn 0.25113 0.22535 0.75262 0.0
Zn410 Zn 0.25716 0.27264 0.72061 0.0
O411 O 0.31389 0.25846 0.70505 0.0
O412 O 0.27793 0.27125 0.69163 0.0
O413 O 0.30137 0.28264 0.79027 0.0
O414 O 0.32699 0.26196 0.76648 0.0
O415 O 0.30825 0.20964 0.74051 0.0
O416 O 0.27016 0.19558 0.7428 0.0
O417 O 0.21882 0.22699 0.73446 0.0
O418 O 0.252 0.3084 0.76889 0.0
O419 O 0.2242 0.26059 0.71191 0.0
O420 O 0.25289 0.30795 0.72772 0.0
C421 C 0.24105 0.23749 0.80613 0.0
C422 C 0.3001 0.26672 0.68792 0.0
C423 C 0.29283 0.19196 0.74016 0.0
C424 C 0.32281 0.27591 0.78504 0.0
C425 C 0.21093 0.24274 0.71901 0.0
C426 C 0.24899 0.31898 0.74802 0.0
O427 O 0.24228 0.22197 0.78851 0.0
O428 O -0.00011 0.0141 0.46809 0.0
Zn429 Zn 0.97938 0.99332 0.49133 0.0
O430 O 0.99704 0.98733 0.52252 0.0
Zn431 Zn -0.00052 0.95213 0.52917 0.0
Zn432 Zn 0.02941 0.00157 0.52154 0.0
Zn433 Zn 0.9801 0.00301 0.54915 0.0
O434 O 0.9857 0.94243 0.56261 0.0
O435 O 0.97178 0.9786 0.57463 0.0
O436 O 0.97353 0.96146 0.47331 0.0
O437 O 0.98351 0.9334 0.50146 0.0
O438 O 0.03428 0.94143 0.52928 0.0
O439 O 0.05495 0.97624 0.52466 0.0
O440 O 0.03543 0.02667 0.5478 0.0
O441 O 0.94662 0.00897 0.49761 0.0
O442 O -0.0004 0.02936 0.56584 0.0
O443 O 0.94937 0.01767 0.53794 0.0
C444 C 0.02172 0.02197 0.46985 0.0
C445 C 0.97477 0.95582 0.57822 0.0
C446 C 0.05432 0.95309 0.52743 0.0
C447 C 0.97533 0.93917 0.48005 0.0
C448 C 0.0216 0.03626 0.56379 0.0
C449 C 0.93796 0.01815 0.51742 0.0
O450 O 0.03451 0.01805 0.48915 0.0
O451 O 0.31299 0.73276 0.74367 0.0
Zn452 Zn 0.2828 0.73705 0.76298 0.0
O453 O 0.25487 0.72975 0.74191 0.0
Zn454 Zn 0.23358 0.75814 0.74002 0.0
Zn455 Zn 0.26532 0.719 0.70864 0.0
Zn456 Zn 0.23724 0.70371 0.75764 0.0
O457 O 0.19988 0.75064 0.75354 0.0
O458 O 0.20497 0.71388 0.7705 0.0
O459 O 0.28337 0.77238 0.77306 0.0
O460 O 0.24931 0.78735 0.7573 0.0
O461 O 0.23029 0.76907 0.70464 0.0
O462 O 0.2537 0.74343 0.6838 0.0
O463 O 0.25098 0.68542 0.69881 0.0
O464 O 0.28592 0.71443 0.79237 0.0
O465 O 0.23061 0.67777 0.73357 0.0
O466 O 0.25613 0.68784 0.78426 0.0
C467 C 0.31841 0.72613 0.72177 0.0
C468 C 0.19184 0.73239 0.766 0.0
C469 C 0.23996 0.76201 0.68448 0.0
C470 C 0.26933 0.79032 0.76899 0.0
C471 C 0.23689 0.6719 0.71178 0.0
C472 C 0.27469 0.69437 0.79673 0.0
O473 O 0.30215 0.71991 0.70593 0.0
O474 O 0.52724 0.04508 0.06637 0.0
Zn475 Zn 0.53036 0.04602 0.02923 0.0
O476 O 0.5026 0.03022 0.01387 0.0
Zn477 Zn 0.51105 -0.00164 0.00075 0.0
Zn478 Zn 0.47644 0.02627 0.03752 0.0
Zn479 Zn 0.49181 0.05101 0.98772 0.0
O480 O 0.49629 0.99348 0.96641 0.0
O481 O 0.48241 0.0308 0.95842 0.0
O482 O 0.55999 0.02665 0.02267 0.0
O483 O 0.54744 0.99313 0.00257 0.0
O484 O 0.49619 0.9728 0.02271 0.0
O485 O 0.46469 0.99158 0.03929 0.0
O486 O 0.44847 0.04854 0.03077 0.0
O487 O 0.53626 0.07995 0.01547 0.0
O488 O 0.46178 0.06872 -0.00245 0.0
O489 O 0.5166 0.07659 0.9794 0.0
C490 C 0.51006 0.03811 0.08056 0.0
C491 C 0.48478 0.00836 0.95248 0.0
C492 C 0.47693 0.9723 0.03565 0.0
C493 C 0.56432 0.00612 0.01251 0.0
C494 C 0.44596 0.06512 0.01433 0.0
C495 C 0.53135 0.08798 0.99376 0.0
O496 O 0.48949 0.03158 0.0718 0.0
O497 O 0.18669 0.25872 0.26803 0.0
Zn498 Zn 0.21528 0.25294 0.2905 0.0
O499 O 0.24526 0.25166 0.27143 0.0
Zn500 Zn 0.25955 0.21876 0.27235 0.0
Zn501 Zn 0.23887 0.26309 0.23784 0.0
Zn502 Zn 0.26831 0.27421 0.28508 0.0
O503 O 0.29124 0.21804 0.29287 0.0
O504 O 0.2957 0.25783 0.30091 0.0
O505 O 0.20818 0.21996 0.30585 0.0
O506 O 0.23522 0.19566 0.28803 0.0
O507 O 0.26538 0.20674 0.23699 0.0
O508 O 0.25102 0.2379 0.21484 0.0
O509 O 0.25544 0.2953 0.22891 0.0
O510 O 0.21591 0.28065 0.31561 0.0
O511 O 0.28218 0.2961 0.25976 0.0
O512 O 0.25323 0.29549 0.31022 0.0
C513 C 0.18469 0.26345 0.24496 0.0
C514 C 0.30297 0.23596 0.30265 0.0
C515 C 0.26076 0.2169 0.21612 0.0
C516 C 0.21642 0.19865 0.30138 0.0
C517 C 0.27442 0.30423 0.23915 0.0
C518 C 0.23264 0.29625 0.32065 0.0
O519 O 0.2033 0.2658 0.23124 0.0
O520 O 0.5119 0.54963 0.97351 0.0
Zn521 Zn 0.49493 0.52864 -0.00072 0.0
O522 O 0.51354 0.52818 0.03035 0.0
Zn523 Zn 0.52201 0.49436 0.03948 0.0
Zn524 Zn 0.54258 0.549 0.02789 0.0
Zn525 Zn 0.49379 0.54173 0.05578 0.0
O526 O 0.50969 0.48424 0.07402 0.0
O527 O 0.49179 0.51906 0.08367 0.0
O528 O 0.49472 0.49526 0.98415 0.0
O529 O 0.51074 0.47073 0.01267 0.0
O530 O 0.55825 0.49163 0.03984 0.0
O531 O 0.57261 0.52959 0.03472 0.0
O532 O 0.54227 0.57859 0.05042 0.0
O533 O 0.45965 0.53773 0.00464 0.0
O534 O 0.50742 0.57223 0.06989 0.0
O535 O 0.46019 0.54801 0.04462 0.0
C536 C 0.53282 0.55992 0.97353 0.0
C537 C 0.4982 0.49753 0.08938 0.0
C538 C 0.57596 0.50677 0.03815 0.0
C539 C 0.50119 0.47408 0.99128 0.0
C540 C 0.52663 0.58475 0.06646 0.0
C541 C 0.44898 0.5452 0.02414 0.0
O542 O 0.54599 0.56057 0.99302 0.0
O543 O 0.79341 0.23649 0.22202 0.0
Zn544 Zn 0.77271 0.24491 0.25078 0.0
O545 O 0.739 0.24556 0.24071 0.0
Zn546 Zn 0.7273 0.27931 0.24215 0.0
Zn547 Zn 0.73511 0.23228 0.20691 0.0
Zn548 Zn 0.72116 0.22537 0.26407 0.0
O549 O 0.6962 0.28041 0.26168 0.0
O550 O 0.69374 0.24355 0.27936 0.0
O551 O 0.78357 0.27778 0.2633 0.0
O552 O 0.75273 0.30287 0.25661 0.0
O553 O 0.7186 0.29109 0.20801 0.0
O554 O 0.71927 0.25727 0.18497 0.0
O555 O 0.71476 0.2008 0.20641 0.0
O556 O 0.77927 0.22056 0.27779 0.0
O557 O 0.70658 0.19667 0.24668 0.0
O558 O 0.74216 0.21085 0.29029 0.0
C559 C 0.78951 0.22938 0.19981 0.0
C560 C 0.68551 0.26496 0.27579 0.0
C561 C 0.71496 0.28005 0.18744 0.0
C562 C 0.77428 0.29901 0.26429 0.0
C563 C 0.70512 0.18908 0.22441 0.0
C564 C 0.76504 0.20918 0.29244 0.0
O565 O 0.76803 0.22642 0.19133 0.0
O566 O 0.02441 0.51846 0.58018 0.0
Zn567 Zn 0.0241 0.51639 0.54313 0.0
O568 O 0.99181 0.50727 0.53196 0.0
Zn569 Zn 0.99487 0.4826 0.5061 0.0
Zn570 Zn 0.97179 0.49536 0.55904 0.0
Zn571 Zn 0.97627 0.5359 0.51946 0.0
O572 O 0.97943 0.49343 0.47373 0.0
O573 O 0.96378 0.52901 0.48534 0.0
O574 O 0.04791 0.49062 0.53402 0.0
O575 O 0.02952 0.47062 0.50313 0.0
O576 O 0.97777 0.45204 0.51676 0.0
O577 O 0.96782 0.45894 0.55609 0.0
O578 O 0.93845 0.5107 0.5591 0.0
O579 O 0.03508 0.54867 0.52838 0.0
O580 O 0.94679 0.54495 0.53851 0.0
O581 O -0.00062 0.56411 0.51748 0.0
C582 C 0.00927 0.51215 0.59689 0.0
C583 C 0.96644 0.51215 0.46927 0.0
C584 C 0.96981 0.44452 0.5376 0.0
C585 C 0.04791 0.47415 0.51727 0.0
C586 C 0.9323 0.53182 0.55135 0.0
C587 C 0.02224 0.5662 0.52025 0.0
O588 O 0.98851 0.50302 0.59145 0.0
O589 O 0.74569 0.73768 0.29634 0.0
Zn590 Zn 0.76465 0.75842 0.27173 0.0
O591 O 0.7702 0.74001 0.24187 0.0
Zn592 Zn 0.80417 0.73676 0.23451 0.0
Zn593 Zn 0.75217 0.70942 0.2422 0.0
Zn594 Zn 0.75901 0.75813 0.21445 0.0
O595 O 0.81446 0.75885 0.20544 0.0
O596 O 0.77981 0.75393 0.18522 0.0
O597 O 0.79676 0.76439 0.28873 0.0
O598 O 0.82378 0.74544 0.26512 0.0
O599 O 0.80926 0.70154 0.22467 0.0
O600 O 0.77321 0.68264 0.22794 0.0
O601 O 0.71937 0.71298 0.22497 0.0
O602 O 0.74865 0.791 0.26357 0.0
O603 O 0.72605 0.74812 0.20533 0.0
O604 O 0.75642 0.79364 0.22307 0.0
C605 C 0.74075 0.71473 0.29646 0.0
C606 C 0.80208 0.75992 0.18541 0.0
C607 C 0.79575 0.68243 0.22245 0.0
C608 C 0.81831 0.75717 0.28481 0.0
C609 C 0.71218 0.73026 0.21089 0.0
C610 C 0.74917 0.8032 0.24326 0.0
O611 O 0.74416 0.70135 0.2774 0.0
O612 O 0.7226 0.23446 0.69368 0.0
Zn613 Zn 0.73236 0.23187 0.72956 0.0
O614 O 0.74998 0.26152 0.73967 0.0
Zn615 Zn 0.78165 0.25327 0.75332 0.0
Zn616 Zn 0.7545 0.28384 0.71169 0.0
Zn617 Zn 0.73172 0.27777 0.76474 0.0
O618 O 0.78862 0.26939 0.78632 0.0
O619 O 0.75178 0.28292 0.79517 0.0
O620 O 0.75466 0.20318 0.73176 0.0
O621 O 0.78563 0.21684 0.75476 0.0
O622 O 0.8078 0.26294 0.72992 0.0
O623 O 0.78907 0.28261 0.6994 0.0
O624 O 0.74411 0.31851 0.71971 0.0
O625 O 0.70244 0.22527 0.75064 0.0
O626 O 0.72228 0.31116 0.75357 0.0
O627 O 0.70216 0.25882 0.7742 0.0
C628 C 0.72436 0.25158 0.67764 0.0
C629 C 0.7739 0.27976 0.80095 0.0
C630 C 0.80818 0.27347 0.70887 0.0
C631 C 0.77472 0.19963 0.74298 0.0
C632 C 0.72962 0.32564 0.73656 0.0
C633 C 0.69291 0.23841 0.76745 0.0
O634 O 0.7349 0.2719 0.6827 0.0
O635 O 0.70108 0.78116 0.73757 0.0
Zn636 Zn 0.72044 0.77185 0.7676 0.0
O637 O 0.75479 0.77123 0.7598 0.0
Zn638 Zn 0.76773 0.73777 0.7615 0.0
Zn639 Zn 0.76014 0.78608 0.7273 0.0
Zn640 Zn 0.77125 0.79089 0.78414 0.0
O641 O 0.79649 0.73604 0.78594 0.0
O642 O 0.79104 0.77076 0.80679 0.0
O643 O 0.70957 0.73875 0.7785 0.0
O644 O 0.74114 0.71421 0.77343 0.0
O645 O 0.77774 0.72678 0.72697 0.0
O646 O 0.77329 0.76074 0.70458 0.0
O647 O 0.78381 0.81484 0.72854 0.0
O648 O 0.71221 0.79575 0.7948 0.0
O649 O 0.79381 0.8145 0.76852 0.0
O650 O 0.74875 0.81068 0.80422 0.0
C651 C 0.70654 0.79133 0.717 0.0
C652 C 0.80145 0.75028 0.80419 0.0
C653 C 0.77892 0.73823 0.70629 0.0
C654 C 0.71914 0.71767 0.77972 0.0
C655 C 0.79648 0.82298 0.74672 0.0
C656 C 0.72591 0.81049 0.80682 0.0
O657 O 0.72853 0.79591 0.71125 0.0
O658 O 0.47017 0.58266 0.5276 0.0
Zn659 Zn 0.48214 0.55662 0.50488 0.0
O660 O 0.48536 0.52659 0.52392 0.0
Zn661 Zn 0.51862 0.51555 0.52385 0.0
Zn662 Zn 0.47197 0.5296 0.55701 0.0
Zn663 Zn 0.46663 0.50143 0.50888 0.0
O664 O 0.52452 0.48891 0.49806 0.0
O665 O 0.48642 0.48042 0.48778 0.0
O666 O 0.51543 0.56918 0.49406 0.0
O667 O 0.53996 0.54367 0.51411 0.0
O668 O 0.528 0.50488 0.55839 0.0
O669 O 0.4965 0.51637 0.58127 0.0
O670 O 0.44011 0.51039 0.56031 0.0
O671 O 0.45772 0.5526 0.47639 0.0
O672 O 0.44798 0.48139 0.53288 0.0
O673 O 0.44321 0.51546 0.48546 0.0
C674 C 0.46531 0.58404 0.55067 0.0
C675 C 0.50896 0.47736 0.48477 0.0
C676 C 0.51753 0.50701 0.57937 0.0
C677 C 0.53663 0.56295 0.50121 0.0
C678 C 0.43507 0.4897 0.55037 0.0
C679 C 0.4426 0.53502 0.47268 0.0
O680 O 0.46595 0.56521 0.56472 0.0
O681 O 0.02985 0.43557 0.03997 0.0
Zn682 Zn 0.01545 0.44841 0.0092 0.0
O683 O 0.01447 0.48333 0.0111 0.0
Zn684 Zn 0.98235 0.49455 0.01843 0.0
Zn685 Zn 0.03826 0.49425 0.03567 0.0
Zn686 Zn 0.0214 0.49537 0.97864 0.0
O687 O 0.97415 0.52357 -0.00372 0.0
O688 O 0.99336 0.51166 0.96236 0.0
O689 O 0.98186 0.43462 0.00518 0.0
O690 O 0.95833 0.4667 0.01254 0.0
O691 O 0.98129 0.50456 0.05433 0.0
O692 O 0.02032 0.50904 0.06447 0.0
O693 O 0.06188 0.51869 0.02013 0.0
O694 O 0.03755 0.4372 0.98181 0.0
O695 O 0.04756 0.52071 0.9814 0.0
O696 O 0.03488 0.46955 0.95694 0.0
C697 C 0.04756 0.44335 0.05311 0.0
C698 C 0.97852 0.52576 0.9731 0.0
C699 C 0.99788 0.51039 0.06996 0.0
C700 C 0.96092 0.444 0.00742 0.0
C701 C 0.06246 0.52768 -0.00181 0.0
C702 C 0.0421 0.44794 0.96137 0.0
O703 O 0.05589 0.4652 0.05123 0.0
H704 H 0.01407 0.17902 0.05008 0.0
H705 H 0.97168 0.17919 0.11797 0.0
H706 H 0.96151 0.13544 0.1117 0.0
H707 H 0.97405 0.13791 0.01524 0.0
H708 H -0.0012 0.1229 -7e-05 0.0
H709 H 0.00193 0.15452 0.00932 0.0
H710 H 0.0406 0.14394 0.03461 0.0
H711 H 0.03759 0.11233 0.02531 0.0
H712 H 0.03912 0.12013 0.05786 0.0
H713 H 0.95789 0.09079 0.0992 0.0
H714 H 0.96044 0.04931 0.08066 0.0
H715 H 0.00427 0.07932 0.02076 0.0
C716 C 0.00253 0.16996 0.06359 0.0
C717 C 0.99376 0.1826 0.08454 0.0
C718 C 0.97866 0.16996 0.10173 0.0
C719 C 0.97274 0.14508 0.09835 0.0
C720 C 0.98188 0.13314 0.0776 0.0
C721 C 0.99632 0.14521 0.06044 0.0
C722 C 0.00422 0.12813 0.03997 0.0
C723 C 0.99414 0.13636 0.01462 0.0
C724 C 0.03202 0.12601 0.03943 0.0
C725 C 0.99228 0.10449 0.04852 0.0
C726 C 0.97944 0.10768 0.07022 0.0
C727 C 0.9677 0.08811 0.08205 0.0
C728 C 0.96927 0.06463 0.07143 0.0
C729 C 0.98241 0.06105 0.04919 0.0
C730 C 0.99384 0.08139 0.03762 0.0
H731 H 0.05462 0.74243 0.31615 0.0
H732 H 0.0723 0.69647 0.37912 0.0
H733 H 0.10624 0.67851 0.35561 0.0
H734 H 0.07561 0.6999 0.26493 0.0
H735 H 0.08827 0.72527 0.2476 0.0
H736 H 0.06175 0.72963 0.26652 0.0
H737 H 0.08369 0.76507 0.29016 0.0
H738 H 0.10997 0.76099 0.27117 0.0
H739 H 0.11273 0.75951 0.30456 0.0
H740 H 0.1413 0.67011 0.32806 0.0
H741 H 0.17773 0.67681 0.30207 0.0
H742 H 0.13902 0.73054 0.25851 0.0
C743 C 0.06522 0.72797 0.3245 0.0
C744 C 0.06083 0.72029 0.34903 0.0
C745 C 0.07541 0.70215 0.36009 0.0
C746 C 0.09451 0.69175 0.34681 0.0
C747 C 0.09883 0.69996 0.32264 0.0
C748 C 0.08472 0.71789 0.31169 0.0
C749 C 0.0957 0.72687 0.28759 0.0
C750 C 0.07935 0.72 0.26534 0.0
C751 C 0.10084 0.75474 0.28845 0.0
C752 C 0.11885 0.71227 0.28742 0.0
C753 C 0.11986 0.69607 0.3072 0.0
C754 C 0.14052 0.6823 0.31219 0.0
C755 C 0.16106 0.68607 0.29731 0.0
C756 C 0.16077 0.70384 0.27821 0.0
C757 C 0.13924 0.71639 0.27266 0.0
H758 H 0.5124 0.88095 0.62896 0.0
H759 H 0.5302 0.835 0.56592 0.0
H760 H 0.54996 0.87011 0.5455 0.0
H761 H 0.49381 0.92969 0.59371 0.0
H762 H 0.50496 0.95342 0.61433 0.0
H763 H 0.4973 0.92367 0.62651 0.0
H764 H 0.5406 0.92056 0.6453 0.0
H765 H 0.54845 0.95025 0.63265 0.0
H766 H 0.5666 0.92396 0.62535 0.0
H767 H 0.56213 0.90994 0.52905 0.0
H768 H 0.56021 0.95295 0.51502 0.0
H769 H 0.53376 0.97465 0.58726 0.0
C770 C 0.52099 0.87825 0.61112 0.0
C771 C 0.52018 0.85516 0.59924 0.0
C772 C 0.53087 0.8524 0.57557 0.0
C773 C 0.54239 0.87222 0.56389 0.0
C774 C 0.54286 0.8948 0.57599 0.0
C775 C 0.53214 0.89807 0.59892 0.0
C776 C 0.53156 0.92501 0.60587 0.0
C777 C 0.50536 0.93343 0.61034 0.0
C778 C 0.54777 0.93025 0.62865 0.0
C779 C 0.54225 0.93638 0.58257 0.0
C780 C 0.54951 0.9185 0.56602 0.0
C781 C 0.55718 0.92417 0.54203 0.0
C782 C 0.55615 0.9486 0.53424 0.0
C783 C 0.54754 0.96688 0.5504 0.0
C784 C 0.54143 0.96097 0.5751 0.0
H785 H 0.4545 0.27096 0.84824 0.0
H786 H 0.42745 0.32136 0.90391 0.0
H787 H 0.38848 0.32335 0.88141 0.0
H788 H 0.42492 0.29861 0.79491 0.0
H789 H 0.41806 0.26963 0.78016 0.0
H790 H 0.44432 0.2727 0.80008 0.0
H791 H 0.4289 0.2363 0.82695 0.0
H792 H 0.40266 0.23305 0.80707 0.0
H793 H 0.3989 0.23728 0.84007 0.0
H794 H 0.35241 0.31954 0.85365 0.0
H795 H 0.32053 0.30878 0.82327 0.0
H796 H 0.37036 0.26033 0.7855 0.0
C797 C 0.44044 0.28253 0.85564 0.0
C798 C 0.44411 0.29604 0.87787 0.0
C799 C 0.42512 0.31077 0.887 0.0
C800 C 0.40292 0.31212 0.87429 0.0
C801 C 0.39993 0.29859 0.8525 0.0
C802 C 0.41807 0.28398 0.84327 0.0
C803 C 0.40975 0.27063 0.81991 0.0
C804 C 0.42519 0.27836 0.79744 0.0
C805 C 0.41007 0.24266 0.82374 0.0
C806 C 0.38404 0.27995 0.81757 0.0
C807 C 0.37888 0.29618 0.8365 0.0
C808 C 0.35624 0.3069 0.8387 0.0
C809 C 0.33823 0.30063 0.8213 0.0
C810 C 0.34286 0.28368 0.80192 0.0
C811 C 0.36624 0.27346 0.79994 0.0
H812 H -0.00036 0.80522 0.44015 0.0
H813 H 0.00419 0.82921 0.36338 0.0
H814 H 0.98871 0.87005 0.3759 0.0
H815 H 0.9432 0.83761 0.4545 0.0
H816 H 0.95317 0.84355 0.48595 0.0
H817 H 0.96273 0.81619 0.47013 0.0
H818 H 0.00784 0.82805 0.47841 0.0
H819 H 0.99843 0.85516 0.49442 0.0
H820 H 0.01899 0.85773 0.46858 0.0
H821 H 0.97703 0.90956 0.39877 0.0
H822 H 0.97216 0.94328 0.42906 0.0
H823 H 0.97205 0.89037 0.48934 0.0
C824 C 0.99703 0.81875 0.42572 0.0
C825 C 0.00305 0.81402 0.40077 0.0
C826 C -0.00034 0.83252 0.38265 0.0
C827 C 0.9907 0.85563 0.38957 0.0
C828 C 0.9847 0.85948 0.41449 0.0
C829 C 0.98758 0.84132 0.43213 0.0
C830 C 0.98116 0.8499 0.45787 0.0
C831 C 0.95873 0.83599 0.46768 0.0
C832 C 0.0029 0.84759 0.47585 0.0
C833 C 0.97544 0.87629 0.45238 0.0
C834 C 0.97718 0.88156 0.42725 0.0
C835 C 0.97512 0.9055 0.41837 0.0
C836 C 0.97225 0.92453 0.43572 0.0
C837 C 0.97173 0.9194 0.46158 0.0
C838 C 0.97221 0.89487 0.46972 0.0
H839 H 0.42404 0.78344 0.64013 0.0
H840 H 0.47229 0.77194 0.70304 0.0
H841 H 0.43896 0.75104 0.72559 0.0
H842 H 0.37001 0.79516 0.67506 0.0
H843 H 0.35042 0.77922 0.65331 0.0
H844 H 0.3781 0.79349 0.64266 0.0
H845 H 0.39131 0.75183 0.62413 0.0
H846 H 0.36387 0.73736 0.63526 0.0
H847 H 0.39298 0.72527 0.64402 0.0
H848 H 0.40033 0.73234 0.74149 0.0
H849 H 0.35829 0.71929 0.75076 0.0
H850 H 0.33578 0.74117 0.67666 0.0
C851 C 0.42755 0.77681 0.65877 0.0
C852 C 0.4507 0.77947 0.66995 0.0
C853 C 0.45464 0.77022 0.69422 0.0
C854 C 0.43588 0.75819 0.70708 0.0
C855 C 0.41343 0.75539 0.69528 0.0
C856 C 0.40915 0.76455 0.67174 0.0
C857 C 0.38335 0.75923 0.66328 0.0
C858 C 0.36967 0.7832 0.6583 0.0
C859 C 0.38286 0.74242 0.64031 0.0
C860 C 0.37363 0.74601 0.68597 0.0
C861 C 0.39134 0.74388 0.70414 0.0
C862 C 0.38638 0.73366 0.72732 0.0
C863 C 0.36251 0.72623 0.73238 0.0
C864 C 0.34396 0.7289 0.71428 0.0
C865 C 0.34976 0.73828 0.69056 0.0
H866 H 0.5203 0.20527 0.91044 0.0
H867 H 0.54281 0.24675 0.97567 0.0
H868 H 0.55583 0.20861 0.99603 0.0
H869 H 0.49332 0.15843 0.94213 0.0
H870 H 0.50196 0.13417 0.92132 0.0
H871 H 0.49934 0.16497 0.90985 0.0
H872 H 0.54363 0.16356 0.89391 0.0
H873 H 0.5464 0.13267 0.90554 0.0
H874 H 0.56781 0.15612 0.9152 0.0
H875 H 0.56093 0.16633 0.0116 0.0
H876 H 0.55422 0.12285 0.02254 0.0
H877 H 0.52776 0.10856 0.94765 0.0
C878 C 0.52857 0.20634 0.92873 0.0
C879 C 0.53058 0.22887 0.94148 0.0
C880 C 0.54099 0.22959 0.96563 0.0
C881 C 0.54872 0.20808 0.97724 0.0
C882 C 0.54599 0.18603 0.96443 0.0
C883 C 0.53611 0.18497 0.94072 0.0
C884 C 0.53198 0.15872 0.93248 0.0
C885 C 0.50506 0.1538 0.9261 0.0
C886 C 0.54844 0.1524 0.91048 0.0
C887 C 0.53968 0.14531 0.95581 0.0
C888 C 0.54846 0.16133 0.97372 0.0
C889 C 0.55453 0.15349 -0.00239 0.0
C890 C 0.55064 0.12876 0.00366 0.0
C891 C 0.54037 0.11237 0.98598 0.0
C892 C 0.53576 0.12063 0.96152 0.0
H893 H 0.09229 0.26356 0.13164 0.0
H894 H 0.03411 0.24959 0.18417 0.0
H895 H 0.06365 0.2527 0.21886 0.0
H896 H 0.13706 0.22867 0.1624 0.0
H897 H 0.1615 0.24966 0.15497 0.0
H898 H 0.13553 0.24722 0.13467 0.0
H899 H 0.12877 0.29407 0.13867 0.0
H900 H 0.15468 0.29663 0.15912 0.0
H901 H 0.12557 0.3075 0.1691 0.0
H902 H 0.10013 0.25603 0.24762 0.0
H903 H 0.14046 0.25817 0.26786 0.0
H904 H 0.17383 0.27033 0.19582 0.0
C905 C 0.08562 0.26117 0.1504 0.0
C906 C 0.06085 0.25627 0.15515 0.0
C907 C 0.05301 0.25331 0.18005 0.0
C908 C 0.06963 0.25513 0.19987 0.0
C909 C 0.09391 0.26 0.19444 0.0
C910 C 0.10184 0.26296 0.17028 0.0
C911 C 0.12891 0.26742 0.1692 0.0
C912 C 0.14148 0.24703 0.15445 0.0
C913 C 0.13482 0.29292 0.15839 0.0
C914 C 0.13511 0.26617 0.19654 0.0
C915 C 0.11473 0.26204 0.21087 0.0
C916 C 0.1162 0.25942 0.2366 0.0
C917 C 0.13918 0.26069 0.24792 0.0
C918 C 0.16033 0.26448 0.23344 0.0
C919 C 0.15807 0.26759 0.20748 0.0
H920 H 0.04578 0.99598 0.2148 0.0
H921 H 0.12025 0.97172 0.20821 0.0
H922 H 0.11136 0.95658 0.16586 0.0
H923 H 0.01762 0.94545 0.17978 0.0
H924 H 0.99552 0.96508 0.1654 0.0
H925 H 0.0072 0.97228 0.19595 0.0
H926 H 0.02056 0.0155 0.18066 0.0
H927 H 0.00875 0.00851 0.1502 0.0
H928 H 0.03996 0.01817 0.15388 0.0
H929 H 0.09512 0.94657 0.12335 0.0
H930 H 0.0734 0.94457 0.08315 0.0
H931 H 0.00956 0.97502 0.11798 0.0
C932 C 0.06021 0.9873 0.20459 0.0
C933 C 0.08372 0.98508 0.21486 0.0
C934 C 0.1021 0.97375 0.20073 0.0
C935 C 0.0972 0.96491 0.17672 0.0
C936 C 0.07382 0.96744 0.16718 0.0
C937 C 0.05565 0.97841 0.18066 0.0
C938 C 0.03248 0.98025 0.16563 0.0
C939 C 0.012 0.96484 0.1774 0.0
C940 C 0.02502 0.0072 0.1624 0.0
C941 C 0.04065 0.96921 0.14134 0.0
C942 C 0.06444 0.96162 0.1427 0.0
C943 C 0.07639 0.95219 0.12212 0.0
C944 C 0.06389 0.95113 0.09936 0.0
C945 C 0.03974 0.95959 0.09739 0.0
C946 C 0.02788 0.96811 0.11888 0.0
H947 H 0.23992 0.87259 0.41271 0.0
H948 H 0.30637 0.84541 0.44553 0.0
H949 H 0.31037 0.81596 0.4111 0.0
H950 H 0.21613 0.8173 0.39755 0.0
H951 H 0.20242 0.82549 0.36823 0.0
H952 H 0.20714 0.8485 0.3918 0.0
H953 H 0.23214 0.87539 0.36128 0.0
H954 H 0.22678 0.85284 0.33728 0.0
H955 H 0.25737 0.86221 0.34506 0.0
H956 H 0.30354 0.78523 0.37834 0.0
H957 H 0.28919 0.75777 0.34492 0.0
H958 H 0.22645 0.80405 0.33344 0.0
C959 C 0.25588 0.86124 0.41189 0.0
C960 C 0.27299 0.86126 0.43144 0.0
C961 C 0.29322 0.84562 0.4305 0.0
C962 C 0.29561 0.82886 0.41108 0.0
C963 C 0.27761 0.82811 0.39285 0.0
C964 C 0.25838 0.84417 0.39272 0.0
C965 C 0.24026 0.83771 0.3724 0.0
C966 C 0.21501 0.8319 0.38316 0.0
C967 C 0.23908 0.85826 0.35284 0.0
C968 C 0.25185 0.81495 0.36195 0.0
C969 C 0.27346 0.80992 0.37389 0.0
C970 C 0.2869 0.7892 0.36845 0.0
C971 C 0.27844 0.77359 0.34961 0.0
C972 C 0.25671 0.77879 0.33654 0.0
C973 C 0.24309 0.79955 0.34312 0.0
H974 H 0.40915 0.00856 0.68521 0.0
H975 H 0.47413 0.99144 0.72763 0.0
H976 H 0.49924 0.01161 0.69596 0.0
H977 H 0.43479 0.99638 0.62602 0.0
H978 H 0.4191 0.02071 0.61023 0.0
H979 H 0.40591 0.00664 0.63733 0.0
H980 H 0.40313 0.04943 0.65815 0.0
H981 H 0.41667 0.06357 0.63119 0.0
H982 H 0.43014 0.06816 0.66148 0.0
H983 H 0.5178 0.03194 0.65946 0.0
H984 H 0.52879 0.04703 0.61778 0.0
H985 H 0.45232 0.0507 0.59821 0.0
C986 C 0.42864 0.00917 0.68787 0.0
C987 C 0.43956 -0.00163 0.70897 0.0
C988 C 0.4652 -0.0006 0.71161 0.0
C989 C 0.47971 0.01106 0.69383 0.0
C990 C 0.46842 0.02161 0.67338 0.0
C991 C 0.44352 0.02057 0.67009 0.0
C992 C 0.4363 0.03181 0.6454 0.0
C993 C 0.42326 0.01275 0.62876 0.0
C994 C 0.42063 0.0546 0.6493 0.0
C995 C 0.46106 0.03877 0.63522 0.0
C996 C 0.47928 0.03313 0.65189 0.0
C997 C 0.50371 0.03665 0.64626 0.0
C998 C 0.50978 0.04532 0.62254 0.0
C999 C 0.49147 0.05011 0.60466 0.0
C1000 C 0.46678 0.0475 0.61148 0.0
H1001 H 0.2289 0.14423 0.91649 0.0
H1002 H 0.21468 0.20646 0.96427 0.0
H1003 H 0.20889 0.2326 0.92726 0.0
H1004 H 0.26443 0.17341 0.87576 0.0
H1005 H 0.25388 0.15797 0.84801 0.0
H1006 H 0.25134 0.14297 0.87761 0.0
H1007 H 0.20504 0.13701 0.87085 0.0
H1008 H 0.20746 0.15182 0.84096 0.0
H1009 H 0.18656 0.16318 0.86377 0.0
H1010 H 0.21352 0.25336 0.88631 0.0
H1011 H 0.22552 0.26666 0.84419 0.0
H1012 H 0.23532 0.19062 0.82294 0.0
C1013 C 0.22377 0.16317 0.91912 0.0
C1014 C 0.22229 0.17341 0.94311 0.0
C1015 C 0.21579 0.19828 0.94596 0.0
C1016 C 0.2124 0.21323 0.92506 0.0
C1017 C 0.21509 0.20283 0.90157 0.0
C1018 C 0.22014 0.17823 0.89849 0.0
C1019 C 0.22478 0.17211 0.87152 0.0
C1020 C 0.25011 0.16098 0.86805 0.0
C1021 C 0.20476 0.15502 0.86116 0.0
C1022 C 0.22327 0.19742 0.86018 0.0
C1023 C 0.21722 0.21484 0.8777 0.0
C1024 C 0.21758 0.23984 0.87225 0.0
C1025 C 0.2246 0.24722 0.84836 0.0
C1026 C 0.2312 0.22963 0.83031 0.0
C1027 C 0.2299 0.20444 0.8362 0.0
H1028 H 0.06322 -0.00271 0.3346 0.0
H1029 H 0.13438 0.02311 0.3584 0.0
H1030 H 0.11627 0.04097 0.39617 0.0
H1031 H 0.02744 0.04886 0.36096 0.0
H1032 H 0.00314 0.02844 0.37021 0.0
H1033 H 0.02086 0.02159 0.34305 0.0
H1034 H 0.03136 0.97888 0.36127 0.0
H1035 H 0.01329 0.98545 0.38806 0.0
H1036 H 0.04461 0.97705 0.39195 0.0
H1037 H 0.09164 0.05153 0.43297 0.0
H1038 H 0.06407 0.04837 0.4687 0.0
H1039 H 0.00882 0.01523 0.42126 0.0
C1040 C 0.0749 0.00706 0.3476 0.0
C1041 C 0.10012 0.00891 0.34372 0.0
C1042 C 0.11499 0.02142 0.36121 0.0
C1043 C 0.10482 0.03192 0.38248 0.0
C1044 C 0.0798 0.02975 0.38581 0.0
C1045 C 0.06508 0.01741 0.36896 0.0
C1046 C 0.03941 0.01467 0.37843 0.0
C1047 C 0.02167 0.02927 0.36219 0.0
C1048 C 0.03175 0.98741 0.38004 0.0
C1049 C 0.04228 0.02616 0.40389 0.0
C1050 C 0.06551 0.03551 0.40743 0.0
C1051 C 0.0733 0.04466 0.43032 0.0
C1052 C 0.05749 0.0428 0.45051 0.0
C1053 C 0.03433 0.03151 0.4477 0.0
C1054 C 0.02619 0.0244 0.42382 0.0
H1055 H 0.2882 0.81518 0.55723 0.0
H1056 H 0.24093 0.87754 0.56751 0.0
H1057 H 0.22494 0.85856 0.60589 0.0
H1058 H 0.24606 0.76941 0.57704 0.0
H1059 H 0.26866 0.75105 0.59233 0.0
H1060 H 0.27692 0.76986 0.56609 0.0
H1061 H 0.31039 0.79171 0.59241 0.0
H1062 H 0.30257 0.77262 0.61853 0.0
H1063 H 0.30248 0.80554 0.62167 0.0
H1064 H 0.21416 0.83241 0.64317 0.0
H1065 H 0.21164 0.80268 0.6778 0.0
H1066 H 0.26503 0.75735 0.64126 0.0
C1067 C 0.27465 0.82505 0.5676 0.0
C1068 C 0.26589 0.84789 0.55937 0.0
C1069 C 0.24805 0.86008 0.57352 0.0
C1070 C 0.23874 0.84938 0.59524 0.0
C1071 C 0.2474 0.82653 0.60242 0.0
C1072 C 0.26509 0.81464 0.5891 0.0
C1073 C 0.27148 0.79032 0.60068 0.0
C1074 C 0.26541 0.7689 0.58298 0.0
C1075 C 0.29831 0.79005 0.60881 0.0
C1076 C 0.25473 0.79042 0.62275 0.0
C1077 C 0.24089 0.81137 0.62345 0.0
C1078 C 0.22481 0.81588 0.64276 0.0
C1079 C 0.22345 0.79885 0.66228 0.0
C1080 C 0.23808 0.77765 0.6622 0.0
C1081 C 0.25338 0.77319 0.6418 0.0
H1082 H 0.39035 0.01795 0.84093 0.0
H1083 H 0.41221 0.94523 0.81876 0.0
H1084 H 0.43606 0.9411 0.85745 0.0
H1085 H 0.44585 0.03628 0.86048 0.0
H1086 H 0.43658 0.05462 0.88657 0.0
H1087 H 0.4162 0.04987 0.86076 0.0
H1088 H 0.38323 0.03215 0.89012 0.0
H1089 H 0.40325 0.03753 0.91623 0.0
H1090 H 0.39065 0.0073 0.91084 0.0
H1091 H 0.46243 0.94741 0.89508 0.0
H1092 H 0.48763 0.96303 0.93006 0.0
H1093 H 0.45048 0.03273 0.92576 0.0
C1094 C 0.39909 0.00071 0.845 0.0
C1095 C 0.39896 0.9816 0.82742 0.0
C1096 C 0.41169 0.95977 0.83243 0.0
C1097 C 0.42535 0.95732 0.85429 0.0
C1098 C 0.42625 0.97703 0.87075 0.0
C1099 C 0.41324 -0.00177 0.86652 0.0
C1100 C 0.41986 0.0179 0.88529 0.0
C1101 C 0.43024 0.04102 0.8725 0.0
C1102 C 0.39795 0.02407 0.90159 0.0
C1103 C 0.43918 0.00478 0.90007 0.0
C1104 C 0.44235 0.9811 0.89173 0.0
C1105 C 0.45989 0.96583 0.90202 0.0
C1106 C 0.47425 0.9749 0.92171 0.0
C1107 C 0.47119 -0.00087 0.93055 0.0
C1108 C 0.45346 0.01417 0.91939 0.0
H1109 H 0.23552 0.20295 0.0733 0.0
H1110 H 0.24478 0.12441 0.08084 0.0
H1111 H 0.2587 0.13035 0.12441 0.0
H1112 H 0.28879 0.22047 0.11083 0.0
H1113 H 0.2739 0.24686 0.12357 0.0
H1114 H 0.26615 0.23622 0.09277 0.0
H1115 H 0.22083 0.23254 0.10531 0.0
H1116 H 0.22842 0.24344 0.13594 0.0
H1117 H 0.21262 0.21451 0.13217 0.0
H1118 H 0.26743 0.14527 0.16878 0.0
H1119 H 0.26999 0.16762 0.20891 0.0
H1120 H 0.25805 0.23613 0.16978 0.0
C1121 C 0.24049 0.18699 0.0841 0.0
C1122 C 0.2388 0.16323 0.07395 0.0
C1123 C 0.24588 0.14279 0.08845 0.0
C1124 C 0.2539 0.14601 0.11311 0.0
C1125 C 0.25527 0.1698 0.12261 0.0
C1126 C 0.24899 0.18991 0.10837 0.0
C1127 C 0.25134 0.21351 0.12284 0.0
C1128 C 0.27123 0.23024 0.11184 0.0
C1129 C 0.22685 0.22676 0.12415 0.0
C1130 C 0.25886 0.20352 0.14783 0.0
C1131 C 0.2613 0.17832 0.14747 0.0
C1132 C 0.26603 0.16506 0.16916 0.0
C1133 C 0.26754 0.17789 0.19185 0.0
C1134 C 0.26422 0.20361 0.19249 0.0
C1135 C 0.26077 0.21648 0.17 0.0
H1136 H 0.17967 0.07916 0.01198 0.0
H1137 H 0.15858 0.12535 0.9501 0.0
H1138 H 0.12661 0.0954 0.93836 0.0
H1139 H 0.16388 0.01794 0.98219 0.0
H1140 H 0.15207 0.00593 0.01099 0.0
H1141 H 0.17668 0.02805 0.01143 0.0
H1142 H 0.15171 0.05621 0.04017 0.0
H1143 H 0.12711 0.03426 0.03979 0.0
H1144 H 0.12185 0.06552 0.03043 0.0
H1145 H 0.09365 0.06473 0.93703 0.0
H1146 H 0.06035 0.036 0.9472 0.0
H1147 H 0.10148 0.0095 0.01061 0.0
C1148 C 0.16881 0.08241 0.99549 0.0
C1149 C 0.1716 0.10428 0.98172 0.0
C1150 C 0.15664 0.10856 0.96076 0.0
C1151 C 0.13861 0.0916 0.95385 0.0
C1152 C 0.13572 0.0705 0.96819 0.0
C1153 C 0.15036 0.06578 0.98859 0.0
C1154 C 0.14118 0.04356 0.00284 0.0
C1155 C 0.15955 0.02263 0.00179 0.0
C1156 C 0.13509 0.0503 0.0299 0.0
C1157 C 0.11851 0.0373 0.98793 0.0
C1158 C 0.11608 0.05273 0.96769 0.0
C1159 C 0.09555 0.05218 0.9525 0.0
C1160 C 0.07668 0.03587 0.95849 0.0
C1161 C 0.0784 0.02044 0.97961 0.0
C1162 C 0.0999 0.02069 0.99405 0.0
H1163 H 0.67365 0.41028 -0.00317 0.0
H1164 H 0.72993 0.46434 0.0133 0.0
H1165 H 0.6986 0.49308 0.02813 0.0
H1166 H 0.62835 0.4514 0.97532 0.0
H1167 H 0.6038 0.4343 0.98937 0.0
H1168 H 0.63079 0.41874 0.97983 0.0
H1169 H 0.63591 0.40155 0.02454 0.0
H1170 H 0.60909 0.41736 0.03425 0.0
H1171 H 0.6374 0.42249 0.05048 0.0
H1172 H 0.66036 0.51633 0.03931 0.0
H1173 H 0.61889 0.53166 0.04662 0.0
H1174 H 0.58903 0.46059 0.02536 0.0
C1175 C 0.67943 0.42824 0.00334 0.0
C1176 C 0.70412 0.43528 0.00368 0.0
C1177 C 0.71101 0.45873 0.01279 0.0
C1178 C 0.69339 0.47509 0.02128 0.0
C1179 C 0.66913 0.46744 0.02087 0.0
C1180 C 0.66223 0.4445 0.01224 0.0
C1181 C 0.63515 0.44039 0.01399 0.0
C1182 C 0.62387 0.43596 0.98809 0.0
C1183 C 0.62904 0.4192 0.03189 0.0
C1184 C 0.62775 0.46478 0.02461 0.0
C1185 C 0.64751 0.48023 0.0284 0.0
C1186 C 0.6448 0.50427 0.03672 0.0
C1187 C 0.62123 0.51281 0.04084 0.0
C1188 C 0.60081 0.4972 0.0369 0.0
C1189 C 0.60428 0.47279 0.02911 0.0
H1190 H 0.83944 0.43045 0.25841 0.0
H1191 H 0.89135 0.40178 0.31183 0.0
H1192 H 0.86671 0.36416 0.31586 0.0
H1193 H 0.78478 0.40368 0.28789 0.0
H1194 H 0.77033 0.39677 0.25852 0.0
H1195 H 0.79092 0.42263 0.26111 0.0
H1196 H 0.81663 0.40538 0.22508 0.0
H1197 H 0.79612 0.37955 0.22233 0.0
H1198 H 0.82806 0.3746 0.22723 0.0
H1199 H 0.83907 0.32843 0.31175 0.0
H1200 H 0.80962 0.29623 0.29941 0.0
H1201 H 0.77439 0.34742 0.2495 0.0
C1202 C 0.84546 0.4164 0.27119 0.0
C1203 C 0.86742 0.41918 0.28476 0.0
C1204 C 0.8747 0.40019 0.30113 0.0
C1205 C 0.86075 0.37873 0.30368 0.0
C1206 C 0.83942 0.37647 0.28989 0.0
C1207 C 0.83169 0.39474 0.27401 0.0
C1208 C 0.80866 0.38692 0.26039 0.0
C1209 C 0.78741 0.40349 0.2674 0.0
C1210 C 0.81262 0.38659 0.23208 0.0
C1211 C 0.8051 0.36118 0.27065 0.0
C1212 C 0.82301 0.35569 0.28779 0.0
C1213 C 0.82472 0.33259 0.29864 0.0
C1214 C 0.80795 0.31441 0.29148 0.0
C1215 C 0.78961 0.31943 0.27373 0.0
C1216 C 0.78789 0.34327 0.26355 0.0
H1217 H 0.82475 0.6179 0.51386 0.0
H1218 H 0.77395 0.5612 0.53749 0.0
H1219 H 0.80833 0.53699 0.55415 0.0
H1220 H 0.87056 0.57922 0.49331 0.0
H1221 H 0.89492 0.59909 0.50381 0.0
H1222 H 0.8661 0.61187 0.49548 0.0
H1223 H 0.86356 0.63221 0.53902 0.0
H1224 H 0.89231 0.61922 0.54758 0.0
H1225 H 0.86597 0.61345 0.56652 0.0
H1226 H 0.8495 0.51803 0.56545 0.0
H1227 H 0.89254 0.50581 0.56875 0.0
H1228 H 0.91462 0.57654 0.53876 0.0
C1229 C 0.8207 0.60043 0.5226 0.0
C1230 C 0.79671 0.59133 0.52426 0.0
C1231 C 0.79227 0.56845 0.53598 0.0
C1232 C 0.81165 0.55468 0.54558 0.0
C1233 C 0.83518 0.56429 0.54355 0.0
C1234 C 0.83963 0.58672 0.53238 0.0
C1235 C 0.86637 0.59284 0.53147 0.0
C1236 C 0.87498 0.59592 0.50442 0.0
C1237 C 0.8724 0.61579 0.54708 0.0
C1238 C 0.87653 0.57004 0.54327 0.0
C1239 C 0.85839 0.55379 0.55038 0.0
C1240 C 0.86379 0.53078 0.56023 0.0
C1241 C 0.8883 0.52403 0.56213 0.0
C1242 C 0.907 0.54022 0.55406 0.0
C1243 C 0.90086 0.56375 0.54526 0.0
H1244 H 0.16234 0.06533 0.27704 0.0
H1245 H 0.09924 0.0877 0.31903 0.0
H1246 H 0.12025 0.12622 0.33052 0.0
H1247 H 0.20812 0.09201 0.31886 0.0
H1248 H 0.22758 0.1017 0.29378 0.0
H1249 H 0.20833 0.07493 0.29015 0.0
H1250 H 0.18902 0.09374 0.25051 0.0
H1251 H 0.20844 0.12032 0.25384 0.0
H1252 H 0.17601 0.12388 0.25208 0.0
H1253 H 0.14705 0.1631 0.33583 0.0
H1254 H 0.17636 0.19733 0.33137 0.0
H1255 H 0.22211 0.15107 0.28611 0.0
C1256 C 0.15297 0.07826 0.28875 0.0
C1257 C 0.12911 0.07346 0.29706 0.0
C1258 C 0.11746 0.09098 0.31224 0.0
C1259 C 0.12932 0.11285 0.3191 0.0
C1260 C 0.15285 0.11694 0.31069 0.0
C1261 C 0.16451 0.10025 0.29571 0.0
C1262 C 0.1892 0.10985 0.28789 0.0
C1263 C 0.20951 0.09365 0.2983 0.0
C1264 C 0.19074 0.11209 0.2594 0.0
C1265 C 0.18932 0.1348 0.30031 0.0
C1266 C 0.16835 0.13835 0.3137 0.0
C1267 C 0.16366 0.16048 0.32559 0.0
C1268 C 0.18047 0.17981 0.32299 0.0
C1269 C 0.2016 0.17693 0.30844 0.0
C1270 C 0.20635 0.15382 0.29766 0.0
H1271 H 0.35901 0.90795 0.47236 0.0
H1272 H 0.30108 0.95491 0.49775 0.0
H1273 H 0.33007 0.98984 0.49999 0.0
H1274 H 0.40297 0.93008 0.51232 0.0
H1275 H 0.42767 0.92793 0.49065 0.0
H1276 H 0.40177 0.90777 0.48757 0.0
H1277 H 0.39527 0.92248 0.44217 0.0
H1278 H 0.4213 0.94264 0.44506 0.0
H1279 H 0.39236 0.9548 0.43584 0.0
H1280 H 0.36643 0.01817 0.50403 0.0
H1281 H 0.40685 0.03752 0.50943 0.0
H1282 H 0.44039 0.97141 0.48145 0.0
C1283 C 0.35219 0.92565 0.47796 0.0
C1284 C 0.32774 0.92866 0.4849 0.0
C1285 C 0.31971 0.95215 0.49226 0.0
C1286 C 0.33603 0.97211 0.49354 0.0
C1287 C 0.36018 0.96826 0.48717 0.0
C1288 C 0.36815 0.94563 0.47935 0.0
C1289 C 0.39527 0.94561 0.47547 0.0
C1290 C 0.40763 0.92674 0.49252 0.0
C1291 C 0.4014 0.94113 0.448 0.0
C1292 C 0.40151 0.97158 0.48315 0.0
C1293 C 0.38104 0.9845 0.48952 0.0
C1294 C 0.38254 0.00836 0.49873 0.0
C1295 C 0.4056 0.01916 0.50179 0.0
C1296 C 0.42681 0.00599 0.49582 0.0
C1297 C 0.42457 0.98207 0.48598 0.0
H1298 H 0.82328 0.54205 0.24116 0.0
H1299 H 0.89496 0.55903 0.21295 0.0
H1300 H 0.88038 0.59874 0.19707 0.0
H1301 H 0.78691 0.57755 0.19231 0.0
H1302 H 0.76595 0.58782 0.21559 0.0
H1303 H 0.7799 0.5582 0.21857 0.0
H1304 H 0.79577 0.57025 0.26239 0.0
H1305 H 0.78212 0.59986 0.2595 0.0
H1306 H 0.81413 0.59767 0.26601 0.0
H1307 H 0.86103 0.63876 0.19172 0.0
H1308 H 0.8386 0.67699 0.19808 0.0
H1309 H 0.77929 0.63544 0.23106 0.0
C1310 C 0.83547 0.55373 0.23058 0.0
C1311 C 0.86003 0.5475 0.22771 0.0
C1312 C 0.87597 0.56352 0.21492 0.0
C1313 C 0.86781 0.58601 0.20576 0.0
C1314 C 0.8437 0.59223 0.20976 0.0
C1315 C 0.82767 0.57654 0.22179 0.0
C1316 C 0.804 0.58927 0.22736 0.0
C1317 C 0.78294 0.57751 0.21257 0.0
C1318 C 0.79872 0.58926 0.25547 0.0
C1319 C 0.80978 0.61488 0.21791 0.0
C1320 C 0.83253 0.61597 0.20723 0.0
C1321 C 0.84298 0.63807 0.19952 0.0
C1322 C 0.83015 0.65972 0.20335 0.0
C1323 C 0.80715 0.65918 0.21498 0.0
C1324 C 0.79659 0.63636 0.22166 0.0
H1325 H 0.64794 0.43423 0.78482 0.0
H1326 H 0.69278 0.485 0.7425 0.0
H1327 H 0.71704 0.45021 0.72719 0.0
H1328 H 0.69586 0.39433 0.80358 0.0
H1329 H 0.67719 0.36702 0.80126 0.0
H1330 H 0.66359 0.396 0.80846 0.0
H1331 H 0.63427 0.39069 0.77087 0.0
H1332 H 0.6479 0.36176 0.76347 0.0
H1333 H 0.64652 0.38562 0.74031 0.0
H1334 H 0.73581 0.40906 0.71596 0.0
H1335 H 0.74887 0.36586 0.71212 0.0
H1336 H 0.69158 0.34341 0.76266 0.0
C1337 C 0.66288 0.43809 0.77236 0.0
C1338 C 0.66848 0.46226 0.76478 0.0
C1339 C 0.68824 0.46657 0.74856 0.0
C1340 C 0.70204 0.44694 0.73971 0.0
C1341 C 0.69585 0.42324 0.7474 0.0
C1342 C 0.67683 0.41885 0.76352 0.0
C1343 C 0.674 0.39188 0.7694 0.0
C1344 C 0.67791 0.38703 0.79732 0.0
C1345 C 0.6492 0.38191 0.76047 0.0
C1346 C 0.69441 0.38171 0.75409 0.0
C1347 C 0.70677 0.39994 0.74135 0.0
C1348 C 0.72628 0.39465 0.72591 0.0
C1349 C 0.73351 0.37009 0.72377 0.0
C1350 C 0.72132 0.3513 0.73717 0.0
C1351 C 0.70142 0.35733 0.75229 0.0
H1352 H 0.01651 0.78456 0.94046 0.0
H1353 H 0.03773 0.80898 0.86681 0.0
H1354 H 0.04798 0.84993 0.88362 0.0
H1355 H 0.98701 0.8384 0.95688 0.0
H1356 H 0.99608 0.83783 0.98914 0.0
H1357 H 0.99356 0.80964 0.97192 0.0
H1358 H 0.03808 0.79955 0.98346 0.0
H1359 H 0.04079 0.82796 0.0005 0.0
H1360 H 0.06193 0.82124 0.97605 0.0
H1361 H 0.05219 0.88896 0.90715 0.0
H1362 H 0.0468 0.92433 0.9354 0.0
H1363 H 0.02269 0.87509 0.99367 0.0
C1364 C 0.02368 0.79844 0.928 0.0
C1365 C 0.02646 0.79364 0.9024 0.0
C1366 C 0.03546 0.81233 0.88651 0.0
C1367 C 0.04154 0.83557 0.89591 0.0
C1368 C 0.03852 0.8398 0.92123 0.0
C1369 C 0.02965 0.82183 0.93705 0.0
C1370 C 0.02581 0.83187 0.96296 0.0
C1371 C -0.00097 0.82929 0.97066 0.0
C1372 C 0.04266 0.81941 0.98186 0.0
C1373 C 0.03311 0.85846 0.959 0.0
C1374 C 0.04089 0.86252 0.93491 0.0
C1375 C 0.04667 0.88596 0.92621 0.0
C1376 C 0.0437 0.90588 0.94232 0.0
C1377 C 0.03508 0.90208 0.9667 0.0
C1378 C 0.03019 0.87814 0.97533 0.0
H1379 H 0.94486 0.23585 0.6827 0.0
H1380 H 0.9252 0.23305 0.60441 0.0
H1381 H 0.88327 0.24372 0.61478 0.0
H1382 H 0.885 0.21059 0.70539 0.0
H1383 H 0.886 0.22985 0.73262 0.0
H1384 H 0.91377 0.21907 0.7192 0.0
H1385 H 0.92922 0.26408 0.71586 0.0
H1386 H 0.90124 0.2751 0.7285 0.0
H1387 H 0.91157 0.28605 0.6987 0.0
H1388 H 0.84546 0.26088 0.63264 0.0
H1389 H 0.81105 0.27449 0.65814 0.0
H1390 H 0.85442 0.26449 0.72498 0.0
C1391 C 0.93153 0.23658 0.66785 0.0
C1392 C 0.93836 0.23376 0.64275 0.0
C1393 C 0.92043 0.23518 0.6238 0.0
C1394 C 0.89656 0.24139 0.62946 0.0
C1395 C 0.89077 0.24563 0.6542 0.0
C1396 C 0.90746 0.24249 0.67321 0.0
C1397 C 0.8965 0.2486 0.69819 0.0
C1398 C 0.89524 0.22567 0.71483 0.0
C1399 C 0.91047 0.26971 0.71106 0.0
C1400 C 0.87143 0.25652 0.69007 0.0
C1401 C 0.86857 0.2548 0.66461 0.0
C1402 C 0.8473 0.26194 0.65266 0.0
C1403 C 0.82799 0.27 0.66727 0.0
C1404 C 0.83006 0.27059 0.69353 0.0
C1405 C 0.85229 0.26425 0.70494 0.0
H1406 H 0.49643 0.22087 0.41089 0.0
H1407 H 0.49113 0.26185 0.47998 0.0
H1408 H 0.48477 0.22331 0.50292 0.0
H1409 H 0.45087 0.1767 0.42425 0.0
H1410 H 0.46644 0.15127 0.41042 0.0
H1411 H 0.47174 0.18196 0.39906 0.0
H1412 H 0.51796 0.17783 0.40702 0.0
H1413 H 0.51286 0.1469 0.41773 0.0
H1414 H 0.52857 0.16874 0.4374 0.0
H1415 H 0.47642 0.18098 0.5181 0.0
H1416 H 0.47341 0.13644 0.52565 0.0
H1417 H 0.48465 0.12296 0.44692 0.0
C1418 C 0.49437 0.22174 0.43089 0.0
C1419 C 0.49408 0.24441 0.44357 0.0
C1420 C 0.49123 0.24472 0.46978 0.0
C1421 C 0.48748 0.22294 0.48301 0.0
C1422 C 0.48679 0.20104 0.4698 0.0
C1423 C 0.49065 0.20017 0.44444 0.0
C1424 C 0.48925 0.17411 0.43484 0.0
C1425 C 0.46833 0.17083 0.41603 0.0
C1426 C 0.51361 0.16645 0.4236 0.0
C1427 C 0.48401 0.16055 0.4588 0.0
C1428 C 0.48236 0.17646 0.47868 0.0
C1429 C 0.47776 0.16826 0.50273 0.0
C1430 C 0.47585 0.14295 0.50678 0.0
C1431 C 0.47883 0.12625 0.48688 0.0
C1432 C 0.48225 0.13528 0.4625 0.0
H1433 H 0.60746 0.80311 0.14549 0.0
H1434 H 0.56021 0.77988 0.20572 0.0
H1435 H 0.59364 0.75622 0.22401 0.0
H1436 H 0.63594 0.74787 0.1368 0.0
H1437 H 0.66572 0.76054 0.13088 0.0
H1438 H 0.63922 0.77823 0.12381 0.0
H1439 H 0.6547 0.81393 0.15186 0.0
H1440 H 0.68178 0.79681 0.15811 0.0
H1441 H 0.66359 0.80761 0.18352 0.0
H1442 H 0.63116 0.73145 0.23331 0.0
H1443 H 0.67262 0.7149 0.23762 0.0
H1444 H 0.69409 0.75373 0.17068 0.0
C1445 C 0.60426 0.7937 0.16292 0.0
C1446 C 0.5811 0.79325 0.17398 0.0
C1447 C 0.57777 0.78056 0.19681 0.0
C1448 C 0.59658 0.76681 0.20725 0.0
C1449 C 0.61863 0.7662 0.19481 0.0
C1450 C 0.62276 0.7799 0.17357 0.0
C1451 C 0.64795 0.77594 0.16358 0.0
C1452 C 0.64714 0.76499 0.13721 0.0
C1453 C 0.66289 0.79999 0.16433 0.0
C1454 C 0.6572 0.75756 0.18228 0.0
C1455 C 0.64004 0.752 0.20009 0.0
C1456 C 0.64479 0.73573 0.21952 0.0
C1457 C 0.66823 0.72608 0.2216 0.0
C1458 C 0.68642 0.73295 0.2044 0.0
C1459 C 0.68043 0.74801 0.18397 0.0
H1460 H -0.00056 0.16836 0.61321 0.0
H1461 H 0.07351 0.18474 0.59116 0.0
H1462 H 0.08163 0.14052 0.58798 0.0
H1463 H 0.01229 0.10885 0.64701 0.0
H1464 H 0.98463 0.09502 0.63529 0.0
H1465 H 0.98607 0.12754 0.64144 0.0
H1466 H 0.97239 0.13646 0.59612 0.0
H1467 H 0.97073 0.10412 0.58999 0.0
H1468 H 0.98931 0.12372 0.5707 0.0
H1469 H 0.08005 0.09607 0.58058 0.0
H1470 H 0.06786 0.05498 0.56579 0.0
H1471 H 0.9947 0.06703 0.59225 0.0
C1472 C 0.01755 0.16258 0.6084 0.0
C1473 C 0.03586 0.17986 0.60247 0.0
C1474 C 0.05918 0.17173 0.59566 0.0
C1475 C 0.06406 0.14667 0.59414 0.0
C1476 C 0.04547 0.13003 0.59958 0.0
C1477 C 0.02264 0.13763 0.60654 0.0
C1478 C 0.00485 0.11631 0.60762 0.0
C1479 C 0.99648 0.11165 0.63444 0.0
C1480 C 0.98306 0.1204 0.59005 0.0
C1481 C 0.02086 0.09586 0.59858 0.0
C1482 C 0.04442 0.104 0.59487 0.0
C1483 C 0.06182 0.08927 0.58389 0.0
C1484 C 0.0547 0.06599 0.57546 0.0
C1485 C 0.03031 0.05788 0.57779 0.0
C1486 C 0.01354 0.07259 0.59052 0.0
H1487 H 0.57481 0.25937 0.37059 0.0
H1488 H 0.53003 0.28766 0.31088 0.0
H1489 H 0.56551 0.28831 0.28295 0.0
H1490 H 0.62781 0.29192 0.35868 0.0
H1491 H 0.64854 0.26723 0.36451 0.0
H1492 H 0.61949 0.26742 0.37963 0.0
H1493 H 0.60905 0.22436 0.36182 0.0
H1494 H 0.63836 0.22372 0.34718 0.0
H1495 H 0.61124 0.21913 0.3288 0.0
H1496 H 0.60672 0.29176 0.26396 0.0
H1497 H 0.64953 0.2883 0.25111 0.0
H1498 H 0.66673 0.25307 0.32126 0.0
C1499 C 0.57246 0.265 0.35141 0.0
C1500 C 0.54987 0.27333 0.34267 0.0
C1501 C 0.54723 0.28084 0.31764 0.0
C1502 C 0.56728 0.28152 0.30178 0.0
C1503 C 0.58956 0.27395 0.31115 0.0
C1504 C 0.5921 0.26493 0.33506 0.0
C1505 C 0.61797 0.25729 0.34019 0.0
C1506 C 0.6291 0.27185 0.36205 0.0
C1507 C 0.61923 0.22947 0.34476 0.0
C1508 C 0.62972 0.26434 0.31579 0.0
C1509 C 0.61307 0.27427 0.29946 0.0
C1510 C 0.61986 0.28355 0.27635 0.0
C1511 C 0.6442 0.28179 0.26935 0.0
C1512 C 0.66123 0.27041 0.28523 0.0
C1513 C 0.65394 0.26177 0.3088 0.0
H1514 H 0.51652 0.84758 0.097 0.0
H1515 H 0.47472 0.86864 0.16157 0.0
H1516 H 0.45947 0.90469 0.13868 0.0
H1517 H 0.53412 0.90916 0.07941 0.0
H1518 H 0.53256 0.9025 0.0466 0.0
H1519 H 0.53965 0.87852 0.06835 0.0
H1520 H 0.50377 0.85252 0.05057 0.0
H1521 H 0.49614 0.87681 0.0293 0.0
H1522 H 0.47364 0.865 0.05051 0.0
H1523 H 0.4478 0.93735 0.10835 0.0
H1524 H 0.44686 0.9692 0.07589 0.0
H1525 H 0.49702 0.92695 0.03151 0.0
C1526 C 0.50436 0.85995 0.10639 0.0
C1527 C 0.4967 0.85543 0.13094 0.0
C1528 C 0.48091 0.87197 0.14277 0.0
C1529 C 0.47192 0.89226 0.12984 0.0
C1530 C 0.47912 0.89569 0.10528 0.0
C1531 C 0.49544 0.88035 0.09388 0.0
C1532 C 0.50132 0.88882 0.06783 0.0
C1533 C 0.52851 0.89514 0.06542 0.0
C1534 C 0.49323 0.86964 0.04841 0.0
C1535 C 0.48589 0.91149 0.06641 0.0
C1536 C 0.47285 0.91485 0.088 0.0
C1537 C 0.45791 0.93496 0.09134 0.0
C1538 C 0.45734 0.95284 0.07267 0.0
C1539 C 0.47197 0.95059 0.0512 0.0
C1540 C 0.48557 0.92913 0.04765 0.0
H1541 H 0.93983 0.73698 0.84336 0.0
H1542 H 0.91849 0.76425 0.91592 0.0
H1543 H 0.87575 0.76289 0.90276 0.0
H1544 H 0.89581 0.77138 0.80831 0.0
H1545 H 0.89044 0.74726 0.78593 0.0
H1546 H 0.91945 0.74995 0.80129 0.0
H1547 H 0.91518 0.70487 0.8162 0.0
H1548 H 0.88588 0.70224 0.80132 0.0
H1549 H 0.889 0.69568 0.83403 0.0
H1550 H 0.83569 0.75906 0.88234 0.0
H1551 H 0.80059 0.7578 0.85374 0.0
H1552 H 0.84689 0.73282 0.79419 0.0
C1553 C 0.92621 0.74282 0.85645 0.0
C1554 C 0.93265 0.75062 0.88076 0.0
C1555 C 0.91416 0.75815 0.89722 0.0
C1556 C 0.88975 0.75729 0.89 0.0
C1557 C 0.88402 0.74889 0.86623 0.0
C1558 C 0.90166 0.74214 0.84953 0.0
C1559 C 0.89047 0.73484 0.82471 0.0
C1560 C 0.89958 0.75188 0.80383 0.0
C1561 C 0.89543 0.7078 0.81872 0.0
C1562 C 0.86381 0.73878 0.83007 0.0
C1563 C 0.86059 0.74662 0.85428 0.0
C1564 C 0.8379 0.75275 0.86342 0.0
C1565 C 0.81808 0.75184 0.8471 0.0
C1566 C 0.82104 0.74482 0.82197 0.0
C1567 C 0.84406 0.73751 0.81352 0.0
H1568 H 0.92461 0.05529 0.8355 0.0
H1569 H 0.86255 0.00594 0.83268 0.0
H1570 H 0.8697 0.99451 0.87672 0.0
H1571 H 0.96191 0.01946 0.86542 0.0
H1572 H 0.97676 0.04204 0.88493 0.0
H1573 H 0.96321 0.05123 0.85606 0.0
H1574 H 0.93661 0.08285 0.87888 0.0
H1575 H 0.95051 0.07419 0.90797 0.0
H1576 H 0.91796 0.07305 0.90456 0.0
H1577 H 0.88993 0.98106 0.91609 0.0
H1578 H 0.91856 0.97027 0.9498 0.0
H1579 H 0.96616 0.03024 0.92752 0.0
C1580 C 0.9119 0.04299 0.84465 0.0
C1581 C 0.89297 0.0316 0.8312 0.0
C1582 C 0.87686 0.01513 0.84314 0.0
C1583 C 0.88085 0.00854 0.86803 0.0
C1584 C 0.90057 0.01918 0.88059 0.0
C1585 C 0.9154 0.03666 0.86948 0.0
C1586 C 0.93696 0.04326 0.88571 0.0
C1587 C 0.9611 0.0387 0.87222 0.0
C1588 C 0.9354 0.06992 0.89483 0.0
C1589 C 0.93307 0.02539 0.90677 0.0
C1590 C 0.91183 0.01188 0.90375 0.0
C1591 C 0.90616 0.99205 0.91913 0.0
C1592 C 0.92264 0.98589 0.93801 0.0
C1593 C 0.94445 -0.00044 0.94126 0.0
C1594 C 0.94938 0.01981 0.92575 0.0
H1595 H 0.75058 0.17059 0.56141 0.0
H1596 H 0.75108 0.23813 0.5184 0.0
H1597 H 0.73437 0.26025 0.5542 0.0
H1598 H 0.69461 0.18261 0.59577 0.0
H1599 H 0.70612 0.16932 0.62411 0.0
H1600 H 0.71623 0.15812 0.59443 0.0
H1601 H 0.76107 0.16667 0.60705 0.0
H1602 H 0.75106 0.17722 0.63689 0.0
H1603 H 0.76982 0.19687 0.61781 0.0
H1604 H 0.72096 0.27573 0.59521 0.0
H1605 H 0.71641 0.28424 0.63998 0.0
H1606 H 0.72308 0.20655 0.65589 0.0
C1607 C 0.7472 0.19003 0.55948 0.0
C1608 C 0.75216 0.20258 0.53706 0.0
C1609 C 0.74742 0.22805 0.53536 0.0
C1610 C 0.73769 0.24076 0.55551 0.0
C1611 C 0.73258 0.22772 0.57714 0.0
C1612 C 0.73735 0.20298 0.57933 0.0
C1613 C 0.73194 0.19369 0.60523 0.0
C1614 C 0.71097 0.17482 0.60485 0.0
C1615 C 0.75483 0.18301 0.61746 0.0
C1616 C 0.72439 0.21734 0.61755 0.0
C1617 C 0.72439 0.23665 0.60088 0.0
C1618 C 0.72048 0.26073 0.6084 0.0
C1619 C 0.71783 0.26539 0.63383 0.0
C1620 C 0.71923 0.24603 0.65133 0.0
C1621 C 0.72131 0.22162 0.64291 0.0
H1622 H 0.60151 0.02515 0.32476 0.0
H1623 H 0.63504 0.95645 0.34459 0.0
H1624 H 0.61577 0.95816 0.38612 0.0
H1625 H 0.6046 0.05331 0.38918 0.0
H1626 H 0.57587 0.06804 0.38435 0.0
H1627 H 0.59584 0.06316 0.35844 0.0
H1628 H 0.56088 0.04036 0.33533 0.0
H1629 H 0.54106 0.04431 0.36143 0.0
H1630 H 0.54669 0.01396 0.34965 0.0
H1631 H 0.58676 0.96375 0.42167 0.0
H1632 H 0.5563 0.97656 0.4524 0.0
H1633 H 0.54299 0.04253 0.40942 0.0
C1634 C 0.60564 0.01112 0.33835 0.0
C1635 C 0.61996 0.99092 0.33199 0.0
C1636 C 0.62457 0.97237 0.34965 0.0
C1637 C 0.61351 0.9731 0.37308 0.0
C1638 C 0.59837 0.99272 0.37839 0.0
C1639 C 0.59507 0.01181 0.36181 0.0
C1640 C 0.57683 0.03001 0.37128 0.0
C1641 C 0.58902 0.05511 0.37611 0.0
C1642 C 0.55509 0.03227 0.35335 0.0
C1643 C 0.56954 0.01766 0.39528 0.0
C1644 C 0.5821 0.99617 0.39907 0.0
C1645 C 0.57721 0.98081 0.41918 0.0
C1646 C 0.55965 0.98808 0.43633 0.0
C1647 C 0.54733 0.01057 0.43328 0.0
C1648 C 0.55222 0.02533 0.41232 0.0
H1649 H 0.76121 0.79543 0.05428 0.0
H1650 H 0.76805 0.87106 0.07894 0.0
H1651 H 0.79129 0.85748 0.11576 0.0
H1652 H 0.75094 0.77014 0.11352 0.0
H1653 H 0.76719 0.7424 0.10697 0.0
H1654 H 0.75321 0.75907 0.08203 0.0
H1655 H 0.79494 0.76114 0.05983 0.0
H1656 H 0.80915 0.74538 0.08543 0.0
H1657 H 0.82066 0.77491 0.0756 0.0
H1658 H 0.81198 0.8355 0.1508 0.0
H1659 H 0.81944 0.80666 0.18536 0.0
H1660 H 0.79933 0.74575 0.13765 0.0
C1661 C 0.76756 0.80916 0.06743 0.0
C1662 C 0.76281 0.83428 0.06374 0.0
C1663 C 0.77125 0.85165 0.08151 0.0
C1664 C 0.78487 0.84417 0.10223 0.0
C1665 C 0.78991 0.8193 0.10485 0.0
C1666 C 0.78104 0.80204 0.08819 0.0
C1667 C 0.78665 0.77625 0.09652 0.0
C1668 C 0.76311 0.76109 0.09999 0.0
C1669 C 0.80388 0.76369 0.07825 0.0
C1670 C 0.79922 0.7816 0.12104 0.0
C1671 C 0.8017 0.80658 0.12515 0.0
C1672 C 0.81056 0.81592 0.14764 0.0
C1673 C 0.81515 0.7994 0.16708 0.0
C1674 C 0.81032 0.77407 0.16385 0.0
C1675 C 0.80386 0.765 0.14016 0.0
H1676 H 0.91651 0.00221 0.69577 0.0
H1677 H 0.98324 0.98358 0.73422 0.0
H1678 H 0.99565 0.95884 0.69796 0.0
H1679 H 0.90717 0.94267 0.66605 0.0
H1680 H 0.89513 0.95612 0.63803 0.0
H1681 H 0.89101 0.97116 0.66755 0.0
H1682 H 0.91132 0.01115 0.65071 0.0
H1683 H 0.91426 0.99652 0.62103 0.0
H1684 H 0.94069 0.00944 0.63628 0.0
H1685 H 0.00194 0.93909 0.65627 0.0
H1686 H 0.00477 0.93305 0.61084 0.0
H1687 H 0.93259 0.9619 0.60152 0.0
C1688 C 0.93392 0.99325 0.69653 0.0
C1689 C 0.94904 0.99505 0.71769 0.0
C1690 C 0.97146 0.98261 0.71805 0.0
C1691 C 0.97846 0.9682 0.69775 0.0
C1692 C 0.96258 0.96606 0.67757 0.0
C1693 C 0.94091 0.9785 0.67678 0.0
C1694 C 0.92772 0.97466 0.65244 0.0
C1695 C 0.90385 0.9603 0.65626 0.0
C1696 C 0.92327 -0.00061 0.63934 0.0
C1697 C 0.94607 0.95932 0.63892 0.0
C1698 C 0.96577 0.95386 0.65393 0.0
C1699 C 0.98641 0.94271 0.64448 0.0
C1700 C 0.98776 0.93897 0.6187 0.0
C1701 C 0.96872 0.94679 0.60302 0.0
C1702 C 0.947 0.95519 0.61341 0.0
H1703 H 0.75447 0.13395 0.41652 0.0
H1704 H 0.82926 0.15473 0.43062 0.0
H1705 H 0.83385 0.16727 0.38666 0.0
H1706 H 0.76105 0.11618 0.34769 0.0
H1707 H 0.73232 0.12998 0.34046 0.0
H1708 H 0.73705 0.11568 0.37032 0.0
H1709 H 0.72474 0.15602 0.3921 0.0
H1710 H 0.72036 0.17056 0.3625 0.0
H1711 H 0.74095 0.18407 0.38495 0.0
H1712 H 0.82808 0.18495 0.34476 0.0
H1713 H 0.81232 0.20731 0.30832 0.0
H1714 H 0.74041 0.17705 0.32223 0.0
C1715 C 0.77209 0.13992 0.40982 0.0
C1716 C 0.79177 0.14279 0.42629 0.0
C1717 C 0.81428 0.1519 0.41775 0.0
C1718 C 0.81701 0.15898 0.3929 0.0
C1719 C 0.79693 0.15697 0.37712 0.0
C1720 C 0.77489 0.1475 0.38519 0.0
C1721 C 0.75503 0.15147 0.36615 0.0
C1722 C 0.74583 0.12686 0.35552 0.0
C1723 C 0.73406 0.16643 0.37708 0.0
C1724 C 0.76899 0.16596 0.34687 0.0
C1725 C 0.79325 0.16829 0.35314 0.0
C1726 C 0.80924 0.1828 0.33933 0.0
C1727 C 0.8001 0.19554 0.31876 0.0
C1728 C 0.77514 0.19398 0.31255 0.0
C1729 C 0.7596 0.17856 0.3265 0.0
H1730 H 0.59727 -0.00239 0.1908 0.0
H1731 H 0.5333 0.96925 0.22825 0.0
H1732 H 0.50795 0.98148 0.1925 0.0
H1733 H 0.57144 0.04977 0.16833 0.0
H1734 H 0.58647 0.05038 0.13864 0.0
H1735 H 0.60064 0.03569 0.16484 0.0
H1736 H 0.60379 0.99487 0.14038 0.0
H1737 H 0.59056 0.00971 0.1137 0.0
H1738 H 0.57704 0.9819 0.12577 0.0
H1739 H 0.48904 0.00174 0.15573 0.0
H1740 H 0.47838 0.02213 0.11632 0.0
H1741 H 0.5547 0.03821 0.10335 0.0
C1742 C 0.57812 0.99291 0.19094 0.0
C1743 C 0.56723 0.98229 0.21213 0.0
C1744 C 0.54196 0.97719 0.21204 0.0
C1745 C 0.52741 0.98425 0.19194 0.0
C1746 C 0.53846 0.99628 0.1721 0.0
C1747 C 0.5633 3e-05 0.17111 0.0
C1748 C 0.57039 0.01468 0.1483 0.0
C1749 C 0.58297 0.03907 0.15548 0.0
C1750 C 0.58638 -0.00063 0.13101 0.0
C1751 C 0.54564 0.01899 0.13695 0.0
C1752 C 0.52748 0.00827 0.15099 0.0
C1753 C 0.50311 0.00997 0.14439 0.0
C1754 C 0.49723 0.02185 0.1221 0.0
C1755 C 0.51568 0.0318 0.10667 0.0
C1756 C 0.54011 0.03101 0.11474 0.0
H1757 H 0.71337 0.83632 0.94759 0.0
H1758 H 0.72736 0.91299 0.93054 0.0
H1759 H 0.7202 0.9045 0.88595 0.0
H1760 H 0.7438 0.81197 0.89871 0.0
H1761 H 0.72289 0.78688 0.89294 0.0
H1762 H 0.7252 0.79997 0.9235 0.0
H1763 H 0.67894 0.80817 0.92292 0.0
H1764 H 0.67659 0.7953 0.89209 0.0
H1765 H 0.66599 0.8259 0.89797 0.0
H1766 H 0.71919 0.88649 0.84359 0.0
H1767 H 0.72461 0.8601 0.80667 0.0
H1768 H 0.70826 0.79575 0.8509 0.0
C1769 C 0.71449 0.85139 0.9345 0.0
C1770 C 0.72098 0.87526 0.94236 0.0
C1771 C 0.72238 0.89455 0.9248 0.0
C1772 C 0.71816 0.88994 0.8995 0.0
C1773 C 0.71207 0.86608 0.89226 0.0
C1774 C 0.71001 0.84716 0.90928 0.0
C1775 C 0.70559 0.82276 0.89656 0.0
C1776 C 0.72556 0.80433 0.90332 0.0
C1777 C 0.68026 0.81243 0.90276 0.0
C1778 C 0.70702 0.83065 0.86965 0.0
C1779 C 0.71032 0.8558 0.86754 0.0
C1780 C 0.71572 0.86694 0.84485 0.0
C1781 C 0.7187 0.8519 0.824 0.0
C1782 C 0.71596 0.8262 0.82608 0.0
C1783 C 0.70925 0.81552 0.84886 0.0
H1784 H 0.80845 0.92068 0.0054 0.0
H1785 H 0.82731 0.84475 0.99123 0.0
H1786 H 0.86846 0.85281 0.00698 0.0
H1787 H 0.86649 0.94564 0.98528 0.0
H1788 H 0.86675 0.96988 0.00809 0.0
H1789 H 0.83833 0.95776 -0.00345 0.0
H1790 H 0.82528 0.94865 0.04193 0.0
H1791 H 0.85406 0.96001 0.05348 0.0
H1792 H 0.84393 0.92938 0.06123 0.0
H1793 H 0.9069 0.86796 0.02467 0.0
H1794 H 0.94394 0.89198 0.03417 0.0
H1795 H 0.902 0.95871 0.03571 0.0
C1796 C 0.82133 0.90585 0.00537 0.0
C1797 C 0.81452 0.88206 -0.00287 0.0
C1798 C 0.832 0.86318 -0.00275 0.0
C1799 C 0.85538 0.86745 0.00653 0.0
C1800 C 0.86122 0.89076 0.01535 0.0
C1801 C 0.84505 0.90988 0.01417 0.0
C1802 C 0.85688 0.93366 0.02297 0.0
C1803 C 0.85714 0.95286 0.00197 0.0
C1804 C 0.84428 0.9435 0.04629 0.0
C1805 C 0.88225 0.92485 0.02904 0.0
C1806 C 0.88404 0.89987 0.02506 0.0
C1807 C 0.90577 0.88749 0.02801 0.0
C1808 C 0.92665 0.90123 0.03364 0.0
C1809 C 0.92565 0.92703 0.03606 0.0
C1810 C 0.90304 0.93889 0.03479 0.0
H1811 H 0.32875 0.61895 0.04689 0.0
H1812 H 0.28866 0.55512 0.02055 0.0
H1813 H 0.32637 0.53124 0.02051 0.0
H1814 H 0.37655 0.61414 0.01134 0.0
H1815 H 0.39998 0.62273 0.0333 0.0
H1816 H 0.3696 0.63339 0.03757 0.0
H1817 H 0.36773 0.61432 0.08162 0.0
H1818 H 0.39862 0.60448 0.07808 0.0
H1819 H 0.37519 0.58248 0.08591 0.0
H1820 H 0.36921 0.51855 0.01216 0.0
H1821 H 0.41363 0.51407 0.00695 0.0
H1822 H 0.42554 0.58485 0.04193 0.0
C1823 C 0.32775 0.59955 0.04256 0.0
C1824 C 0.30593 0.58877 0.03388 0.0
C1825 C 0.30519 0.56354 0.02771 0.0
C1826 C 0.32658 0.54992 0.02735 0.0
C1827 C 0.34825 0.56167 0.03404 0.0
C1828 C 0.34884 0.5856 0.04265 0.0
C1829 C 0.37462 0.59456 0.04698 0.0
C1830 C 0.38051 0.61756 0.03136 0.0
C1831 C 0.37932 0.59922 0.0748 0.0
C1832 C 0.38843 0.57257 0.03789 0.0
C1833 C 0.37295 0.55379 0.03041 0.0
C1834 C 0.38154 0.53277 0.01872 0.0
C1835 C 0.40666 0.53055 0.01545 0.0
C1836 C 0.42272 0.54912 0.02409 0.0
C1837 C 0.41349 0.57034 0.03538 0.0
H1838 H 0.1882 0.56014 0.77505 0.0
H1839 H 0.11807 0.58631 0.7505 0.0
H1840 H 0.13815 0.61206 0.71868 0.0
H1841 H 0.21746 0.61716 0.77197 0.0
H1842 H 0.24613 0.60478 0.76248 0.0
H1843 H 0.22539 0.58617 0.7801 0.0
H1844 H 0.22713 0.55317 0.74524 0.0
H1845 H 0.24699 0.57255 0.72704 0.0
H1846 H 0.21886 0.56128 0.71384 0.0
H1847 H 0.16551 0.63743 0.69238 0.0
H1848 H 0.19713 0.66819 0.68261 0.0
H1849 H 0.24967 0.62625 0.72395 0.0
C1850 C 0.1771 0.57122 0.76286 0.0
C1851 C 0.15162 0.5713 0.7652 0.0
C1852 C 0.13767 0.58623 0.74919 0.0
C1853 C 0.14888 0.6005 0.73073 0.0
C1854 C 0.17405 0.59965 0.72854 0.0
C1855 C 0.18802 0.58585 0.7446 0.0
C1856 C 0.21479 0.59098 0.74096 0.0
C1857 C 0.22661 0.60035 0.7653 0.0
C1858 C 0.2277 0.56813 0.73119 0.0
C1859 C 0.21369 0.6108 0.72122 0.0
C1860 C 0.19006 0.61476 0.71351 0.0
C1861 C 0.18413 0.63421 0.69784 0.0
C1862 C 0.20233 0.6514 0.69191 0.0
C1863 C 0.2258 0.64927 0.70228 0.0
C1864 C 0.23204 0.62767 0.7151 0.0
H1865 H 0.18083 0.42587 0.54825 0.0
H1866 H 0.15814 0.35599 0.51654 0.0
H1867 H 0.11671 0.37156 0.51103 0.0
H1868 H 0.12133 0.4392 0.57995 0.0
H1869 H 0.12428 0.4715 0.57321 0.0
H1870 H 0.15099 0.45343 0.57838 0.0
H1871 H 0.16763 0.46789 0.5358 0.0
H1872 H 0.14069 0.48537 0.5301 0.0
H1873 H 0.14986 0.46242 0.50803 0.0
H1874 H 0.07997 0.39672 0.50232 0.0
H1875 H 0.04788 0.42766 0.49799 0.0
H1876 H 0.09384 0.48099 0.53627 0.0
C1877 C 0.1669 0.41349 0.5412 0.0
C1878 C 0.17272 0.38967 0.53292 0.0
C1879 C 0.15409 0.37425 0.52314 0.0
C1880 C 0.1305 0.38298 0.51979 0.0
C1881 C 0.12573 0.40707 0.52662 0.0
C1882 C 0.14318 0.42192 0.53778 0.0
C1883 C 0.13362 0.44753 0.5421 0.0
C1884 C 0.13248 0.45324 0.57007 0.0
C1885 C 0.14886 0.46693 0.52817 0.0
C1886 C 0.10844 0.44494 0.53087 0.0
C1887 C 0.10427 0.42148 0.522 0.0
C1888 C 0.08284 0.41504 0.50961 0.0
C1889 C 0.06484 0.43284 0.50694 0.0
C1890 C 0.06832 0.45675 0.51677 0.0
C1891 C 0.09057 0.46285 0.52864 0.0
H1892 H 0.88428 0.92774 0.79791 0.0
H1893 H 0.86738 0.96811 0.73045 0.0
H1894 H 0.84583 0.93204 0.71361 0.0
H1895 H 0.89165 0.86721 0.76812 0.0
H1896 H 0.87721 0.85101 0.79337 0.0
H1897 H 0.89375 0.87917 0.79933 0.0
H1898 H 0.85567 0.89774 0.81984 0.0
H1899 H 0.83916 0.8696 0.81414 0.0
H1900 H 0.82749 0.89823 0.80267 0.0
H1901 H 0.82378 0.89296 0.70493 0.0
H1902 H 0.79991 0.8543 0.70682 0.0
H1903 H 0.83063 0.8394 0.77977 0.0
C1904 C 0.87624 0.92883 0.77953 0.0
C1905 C 0.87739 0.95073 0.76562 0.0
C1906 C 0.86646 0.9516 0.74166 0.0
C1907 C 0.8544 0.93112 0.73174 0.0
C1908 C 0.85338 0.90987 0.74595 0.0
C1909 C 0.86385 0.90857 0.76938 0.0
C1910 C 0.8583 0.88415 0.78156 0.0
C1911 C 0.88162 0.86952 0.78584 0.0
C1912 C 0.84432 0.88765 0.80598 0.0
C1913 C 0.8425 0.87238 0.76163 0.0
C1914 C 0.84029 0.88729 0.74104 0.0
C1915 C 0.82553 0.88092 0.72083 0.0
C1916 C 0.81209 0.85894 0.72203 0.0
C1917 C 0.81335 0.84391 0.74344 0.0
C1918 C 0.82929 0.85048 0.76311 0.0
H1919 H 0.70474 0.11108 0.49394 0.0
H1920 H 0.68424 0.17055 0.44453 0.0
H1921 H 0.6411 0.16166 0.4531 0.0
H1922 H 0.65493 0.06981 0.4776 0.0
H1923 H 0.65192 0.05841 0.50892 0.0
H1924 H 0.68101 0.06905 0.49796 0.0
H1925 H 0.68375 0.0992 0.53518 0.0
H1926 H 0.65437 0.08912 0.5459 0.0
H1927 H 0.66002 0.12119 0.5397 0.0
H1928 H 0.60062 0.1477 0.46837 0.0
H1929 H 0.56475 0.12574 0.48458 0.0
H1930 H 0.61145 0.07536 0.52431 0.0
C1931 C 0.69123 0.12206 0.48458 0.0
C1932 C 0.69795 0.1416 0.46859 0.0
C1933 C 0.67961 0.15547 0.4568 0.0
C1934 C 0.65505 0.15069 0.46172 0.0
C1935 C 0.64919 0.13197 0.47838 0.0
C1936 C 0.66669 0.11758 0.48929 0.0
C1937 C 0.65552 0.09842 0.50631 0.0
C1938 C 0.66117 0.07238 0.49714 0.0
C1939 C 0.66392 0.10222 0.53338 0.0
C1940 C 0.62891 0.10423 0.5032 0.0
C1941 C 0.62574 0.12383 0.48719 0.0
C1942 C 0.60286 0.13233 0.48088 0.0
C1943 C 0.58262 0.11979 0.4903 0.0
C1944 C 0.58537 0.09892 0.50577 0.0
C1945 C 0.60883 0.09152 0.51291 0.0
H1946 H 0.15305 0.42073 0.78236 0.0
H1947 H 0.18151 0.46421 0.72133 0.0
H1948 H 0.20934 0.43061 0.71055 0.0
H1949 H 0.20875 0.39923 0.80227 0.0
H1950 H 0.19814 0.36906 0.81111 0.0
H1951 H 0.1777 0.39454 0.81171 0.0
H1952 H 0.14781 0.37149 0.78225 0.0
H1953 H 0.16785 0.34564 0.78206 0.0
H1954 H 0.15864 0.35954 0.75315 0.0
H1955 H 0.23543 0.3933 0.70802 0.0
H1956 H 0.25767 0.35452 0.7135 0.0
H1957 H 0.21455 0.33748 0.77864 0.0
C1958 C 0.16453 0.42278 0.76619 0.0
C1959 C 0.16492 0.44473 0.75232 0.0
C1960 C 0.18081 0.44728 0.7319 0.0
C1961 C 0.19669 0.42838 0.72572 0.0
C1962 C 0.19656 0.40731 0.74041 0.0
C1963 C 0.18084 0.40437 0.76017 0.0
C1964 C 0.18572 0.38092 0.7743 0.0
C1965 C 0.19301 0.38628 0.80145 0.0
C1966 C 0.1637 0.36336 0.77284 0.0
C1967 C 0.20687 0.37129 0.75962 0.0
C1968 C 0.21263 0.3866 0.73995 0.0
C1969 C 0.23114 0.38121 0.72339 0.0
C1970 C 0.24374 0.35928 0.72673 0.0
C1971 C 0.23804 0.34337 0.74674 0.0
C1972 C 0.21963 0.34966 0.76357 0.0
H1973 H 0.33223 0.55357 0.22963 0.0
H1974 H 0.39739 0.58409 0.26387 0.0
H1975 H 0.3783 0.62461 0.26561 0.0
H1976 H 0.31438 0.61223 0.19445 0.0
H1977 H 0.28269 0.60596 0.20005 0.0
H1978 H 0.3034 0.58096 0.19592 0.0
H1979 H 0.28952 0.56289 0.23809 0.0
H1980 H 0.26943 0.58814 0.24287 0.0
H1981 H 0.29232 0.58133 0.26583 0.0
H1982 H 0.3499 0.65799 0.27299 0.0
H1983 H 0.31569 0.68578 0.27867 0.0
H1984 H 0.2684 0.63517 0.23832 0.0
C1985 C 0.34291 0.56907 0.23629 0.0
C1986 C 0.3663 0.56576 0.24657 0.0
C1987 C 0.37949 0.58628 0.25581 0.0
C1988 C 0.36877 0.60935 0.25693 0.0
C1989 C 0.34502 0.61163 0.24837 0.0
C1990 C 0.33242 0.5923 0.23752 0.0
C1991 C 0.30629 0.59915 0.23213 0.0
C1992 C 0.30141 0.59961 0.20396 0.0
C1993 C 0.28835 0.58185 0.24554 0.0
C1994 C 0.30586 0.62477 0.24305 0.0
C1995 C 0.32848 0.63155 0.25217 0.0
C1996 C 0.33227 0.65321 0.26534 0.0
C1997 C 0.31258 0.66868 0.26881 0.0
C1998 C 0.28935 0.66255 0.25901 0.0
C1999 C 0.286 0.64034 0.24585 0.0
H2000 H 0.48909 0.72646 0.55304 0.0
H2001 H 0.48051 0.72337 0.63327 0.0
H2002 H 0.46549 0.68072 0.62983 0.0
H2003 H 0.43559 0.68687 0.53745 0.0
H2004 H 0.45119 0.67277 0.5119 0.0
H2005 H 0.4581 0.70411 0.52034 0.0
H2006 H 0.50358 0.69332 0.52525 0.0
H2007 H 0.49683 0.66209 0.51673 0.0
H2008 H 0.5121 0.66866 0.54575 0.0
H2009 H 0.45668 0.63692 0.61826 0.0
H2010 H 0.45537 0.59559 0.59937 0.0
H2011 H 0.46839 0.62808 0.52681 0.0
C2012 C 0.4837 0.717 0.56988 0.0
C2013 C 0.48614 0.72825 0.5934 0.0
C2014 C 0.47894 0.71513 0.61499 0.0
C2015 C 0.4702 0.69093 0.61324 0.0
C2016 C 0.46845 0.68025 0.58978 0.0
C2017 C 0.47484 0.69294 0.56847 0.0
C2018 C 0.47317 0.67673 0.54572 0.0
C2019 C 0.45332 0.68566 0.5278 0.0
C2020 C 0.49788 0.6751 0.53262 0.0
C2021 C 0.46599 0.65266 0.55772 0.0
C2022 C 0.46295 0.65508 0.58308 0.0
C2023 C 0.45853 0.63485 0.59834 0.0
C2024 C 0.45784 0.61145 0.58746 0.0
C2025 C 0.46172 0.60858 0.5616 0.0
C2026 C 0.46505 0.6296 0.54657 0.0
H2027 H 0.5625 0.26681 0.81427 0.0
H2028 H 0.58689 0.23858 0.8853 0.0
H2029 H 0.62201 0.21952 0.86489 0.0
H2030 H 0.58645 0.21597 0.77352 0.0
H2031 H 0.5959 0.23752 0.74993 0.0
H2032 H 0.56968 0.24377 0.76871 0.0
H2033 H 0.58872 0.28557 0.78193 0.0
H2034 H 0.61475 0.27951 0.76309 0.0
H2035 H 0.61863 0.28627 0.7957 0.0
H2036 H 0.65695 0.20889 0.83865 0.0
H2037 H 0.69157 0.21189 0.80974 0.0
H2038 H 0.64632 0.24901 0.756 0.0
C2039 C 0.57489 0.25591 0.82524 0.0
C2040 C 0.57203 0.25374 0.85117 0.0
C2041 C 0.5889 0.24022 0.86533 0.0
C2042 C 0.6087 0.22916 0.85386 0.0
C2043 C 0.61146 0.23203 0.82827 0.0
C2044 C 0.59515 0.24529 0.81413 0.0
C2045 C 0.60444 0.24921 0.78794 0.0
C2046 C 0.58814 0.23581 0.7689 0.0
C2047 C 0.60679 0.27676 0.78183 0.0
C2048 C 0.62902 0.23721 0.78995 0.0
C2049 C 0.63232 0.22662 0.8131 0.0
C2050 C 0.6544 0.21653 0.82026 0.0
C2051 C 0.67391 0.21818 0.80374 0.0
C2052 C 0.67117 0.22998 0.78054 0.0
C2053 C 0.64838 0.23903 0.77329 0.0
H2054 H 0.00081 0.33649 0.12563 0.0
H2055 H 0.04333 0.29351 0.07441 0.0
H2056 H 0.06942 0.32965 0.06612 0.0
H2057 H 0.99643 0.38591 0.0889 0.0
H2058 H 0.99768 0.40854 0.11337 0.0
H2059 H 0.98725 0.37803 0.12007 0.0
H2060 H 0.02007 0.37509 0.15476 0.0
H2061 H 0.03103 0.40554 0.14735 0.0
H2062 H 0.05156 0.38006 0.14716 0.0
H2063 H 0.08575 0.3709 0.05745 0.0
H2064 H 0.08472 0.4136 0.04257 0.0
H2065 H 0.03149 0.43087 0.09827 0.0
C2066 C 0.01605 0.33457 0.11318 0.0
C2067 C 0.02025 0.31219 0.10087 0.0
C2068 C 0.03989 0.31045 0.08418 0.0
C2069 C 0.05502 0.33082 0.07964 0.0
C2070 C 0.05027 0.35279 0.09191 0.0
C2071 C 0.03103 0.35483 0.10815 0.0
C2072 C 0.02674 0.38131 0.11515 0.0
C2073 C 0.0005 0.38887 0.10896 0.0
C2074 C 0.03271 0.38575 0.14275 0.0
C2075 C 0.04515 0.39404 0.09861 0.0
C2076 C 0.05946 0.37721 0.08638 0.0
C2077 C 0.07522 0.3843 0.0674 0.0
C2078 C 0.07479 0.4087 0.05923 0.0
C2079 C 0.05844 0.4254 0.06978 0.0
C2080 C 0.04484 0.41851 0.09079 0.0
H2081 H 0.9467 0.74086 0.35122 0.0
H2082 H 0.9173 0.77898 0.41509 0.0
H2083 H 0.87832 0.78333 0.39292 0.0
H2084 H 0.91838 0.7774 0.3049 0.0
H2085 H 0.91264 0.75218 0.28391 0.0
H2086 H 0.93805 0.75123 0.30507 0.0
H2087 H 0.92231 0.70982 0.32289 0.0
H2088 H 0.89698 0.71051 0.30161 0.0
H2089 H 0.89176 0.7076 0.33455 0.0
H2090 H 0.84293 0.78447 0.36345 0.0
H2091 H 0.81292 0.78066 0.32948 0.0
H2092 H 0.86566 0.74201 0.28483 0.0
C2093 C 0.93203 0.74992 0.36071 0.0
C2094 C 0.9351 0.75951 0.38496 0.0
C2095 C 0.91542 0.77139 0.39656 0.0
C2096 C 0.89321 0.77402 0.3841 0.0
C2097 C 0.89097 0.76468 0.36008 0.0
C2098 C 0.90978 0.75274 0.34856 0.0
C2099 C 0.90275 0.74457 0.32257 0.0
C2100 C 0.91892 0.7571 0.30296 0.0
C2101 C 0.90349 0.71646 0.32028 0.0
C2102 C 0.87703 0.75383 0.32126 0.0
C2103 C 0.8706 0.76541 0.34306 0.0
C2104 C 0.84773 0.77541 0.34629 0.0
C2105 C 0.83084 0.7732 0.32683 0.0
C2106 C 0.83691 0.76106 0.30442 0.0
C2107 C 0.86043 0.75148 0.30164 0.0
H2108 H 0.53053 0.34075 0.94211 0.0
H2109 H 0.50815 0.36366 0.86829 0.0
H2110 H 0.49826 0.40485 0.88506 0.0
H2111 H 0.48496 0.37087 0.97578 0.0
H2112 H 0.5046 0.37903 0.00148 0.0
H2113 H 0.51059 0.35201 0.98338 0.0
H2114 H 0.55411 0.36811 0.97409 0.0
H2115 H 0.54841 0.39498 0.99252 0.0
H2116 H 0.55821 0.39822 0.96075 0.0
H2117 H 0.48967 0.44299 0.91101 0.0
H2118 H 0.48634 0.47573 0.94246 0.0
H2119 H 0.51458 0.42643 -0.00119 0.0
C2120 C 0.52369 0.35446 0.92936 0.0
C2121 C 0.52001 0.34915 0.90394 0.0
C2122 C 0.5112 0.36754 0.88782 0.0
C2123 C 0.50541 0.39084 0.89723 0.0
C2124 C 0.50876 0.39523 0.92264 0.0
C2125 C 0.51799 0.37757 0.93835 0.0
C2126 C 0.52015 0.38661 0.96483 0.0
C2127 C 0.50411 0.37121 0.98239 0.0
C2128 C 0.5468 0.38701 0.97355 0.0
C2129 C 0.51053 0.41221 0.96176 0.0
C2130 C 0.50396 0.41689 0.93736 0.0
C2131 C 0.49479 0.43949 0.93013 0.0
C2132 C 0.49286 0.45793 0.9482 0.0
C2133 C 0.50016 0.45365 0.97319 0.0
C2134 C 0.50872 0.43031 0.97997 0.0
H2135 H 0.92998 0.23663 0.17239 0.0
H2136 H 0.9118 0.25011 0.09499 0.0
H2137 H 0.86857 0.24163 0.10402 0.0
H2138 H 0.88518 0.18767 0.18329 0.0
H2139 H 0.87883 0.19814 0.21435 0.0
H2140 H 0.90852 0.20306 0.20125 0.0
H2141 H 0.90536 0.24979 0.20962 0.0
H2142 H 0.87584 0.24497 0.22292 0.0
H2143 H 0.8797 0.26625 0.19754 0.0
H2144 H 0.82693 0.23385 0.12223 0.0
H2145 H 0.79041 0.23092 0.14871 0.0
H2146 H 0.83648 0.22304 0.21387 0.0
C2147 C 0.91696 0.23755 0.15727 0.0
C2148 C 0.92421 0.24394 0.133 0.0
C2149 C 0.90659 0.24523 0.11376 0.0
C2150 C 0.88204 0.24029 0.11867 0.0
C2151 C 0.87547 0.23406 0.14286 0.0
C2152 C 0.89244 0.2328 0.16185 0.0
C2153 C 0.88061 0.22747 0.18657 0.0
C2154 C 0.88877 0.2026 0.19697 0.0
C2155 C 0.88567 0.24837 0.20525 0.0
C2156 C 0.85427 0.22656 0.17867 0.0
C2157 C 0.85162 0.22995 0.15334 0.0
C2158 C 0.8288 0.23095 0.14205 0.0
C2159 C 0.80817 0.22916 0.1572 0.0
C2160 C 0.81064 0.22676 0.18332 0.0
C2161 C 0.834 0.22481 0.19396 0.0
H2162 H 0.00501 0.70108 0.48017 0.0
H2163 H 0.04517 0.68293 0.41367 0.0
H2164 H 0.05929 0.64483 0.43384 0.0
H2165 H 0.04703 0.67329 0.52666 0.0
H2166 H 0.02206 0.66227 0.54525 0.0
H2167 H 0.01918 0.69023 0.5276 0.0
H2168 H 0.98069 0.67269 0.50556 0.0
H2169 H 0.98324 0.64505 0.52343 0.0
H2170 H 0.98223 0.64348 0.48995 0.0
H2171 H 0.06541 0.60695 0.45954 0.0
H2172 H 0.05701 0.56991 0.48489 0.0
H2173 H 0.01109 0.61236 0.53314 0.0
C2174 C 0.01723 0.68938 0.47003 0.0
C2175 C 0.02423 0.69501 0.44549 0.0
C2176 C 0.03966 0.67892 0.43255 0.0
C2177 C 0.04801 0.65744 0.44397 0.0
C2178 C 0.0407 0.6524 0.46826 0.0
C2179 C 0.02538 0.66782 0.48098 0.0
C2180 C 0.01706 0.65669 0.50524 0.0
C2181 C 0.02693 0.6715 0.5275 0.0
C2182 C 0.98917 0.65432 0.50606 0.0
C2183 C 0.02901 0.63198 0.50361 0.0
C2184 C 0.04339 0.63017 0.48268 0.0
C2185 C 0.05459 0.60828 0.47621 0.0
C2186 C 0.04989 0.5874 0.49075 0.0
C2187 C 0.03371 0.58867 0.51098 0.0
C2188 C 0.02396 0.61131 0.51803 0.0
H2189 H 0.57084 0.78744 0.66561 0.0
H2190 H 0.59918 0.81137 0.59423 0.0
H2191 H 0.64027 0.81416 0.61238 0.0
H2192 H 0.60953 0.82593 0.70391 0.0
H2193 H 0.61329 0.80292 0.72766 0.0
H2194 H 0.58591 0.80338 0.70923 0.0
H2195 H 0.59269 0.75819 0.69619 0.0
H2196 H 0.62001 0.75756 0.71467 0.0
H2197 H 0.62102 0.74985 0.68209 0.0
H2198 H 0.67844 0.81382 0.63812 0.0
H2199 H 0.71109 0.80869 0.66926 0.0
H2200 H 0.65764 0.78487 0.72354 0.0
C2201 C 0.58564 0.79334 0.65378 0.0
C2202 C 0.58172 0.79918 0.62849 0.0
C2203 C 0.60168 0.8067 0.61365 0.0
C2204 C 0.62511 0.80845 0.6238 0.0
C2205 C 0.6283 0.80261 0.64879 0.0
C2206 C 0.60914 0.79511 0.66356 0.0
C2207 C 0.61756 0.78922 0.68968 0.0
C2208 C 0.60588 0.80639 0.70874 0.0
C2209 C 0.61253 0.76209 0.69602 0.0
C2210 C 0.64446 0.79445 0.68723 0.0
C2211 C 0.65029 0.80229 0.66356 0.0
C2212 C 0.6741 0.80779 0.65677 0.0
C2213 C 0.69251 0.80486 0.6746 0.0
C2214 C 0.68696 0.79642 0.69888 0.0
C2215 C 0.66253 0.79144 0.70521 0.0
H2216 H 0.54401 0.51596 0.72351 0.0
H2217 H 0.6177 0.4932 0.70831 0.0
H2218 H 0.60607 0.48459 0.66471 0.0
H2219 H 0.51298 0.47171 0.68185 0.0
H2220 H 0.49054 0.49379 0.67276 0.0
H2221 H 0.50399 0.49522 0.70337 0.0
H2222 H 0.51716 0.54041 0.69553 0.0
H2223 H 0.50378 0.53913 0.66499 0.0
H2224 H 0.53528 0.54773 0.66865 0.0
H2225 H 0.58731 0.48251 0.62189 0.0
H2226 H 0.56337 0.48805 0.58339 0.0
H2227 H 0.5022 0.51202 0.62734 0.0
C2228 C 0.55768 0.50875 0.71121 0.0
C2229 C 0.58178 0.50526 0.71938 0.0
C2230 C 0.5991 0.49604 0.70251 0.0
C2231 C 0.59265 0.49097 0.67773 0.0
C2232 C 0.56879 0.49505 0.67023 0.0
C2233 C 0.55158 0.50364 0.68654 0.0
C2234 C 0.52772 0.50837 0.67354 0.0
C2235 C 0.50762 0.49124 0.68347 0.0
C2236 C 0.52059 0.53551 0.67581 0.0
C2237 C 0.53439 0.50185 0.64718 0.0
C2238 C 0.55803 0.49387 0.64564 0.0
C2239 C 0.56867 0.48839 0.6229 0.0
C2240 C 0.55492 0.49162 0.60113 0.0
C2241 C 0.53086 0.50044 0.60232 0.0
C2242 C 0.52042 0.50503 0.62574 0.0
H2243 H 0.74299 0.3284 0.93249 0.0
H2244 H 0.78795 0.39213 0.91596 0.0
H2245 H 0.80422 0.37069 0.87901 0.0
H2246 H 0.78506 0.28104 0.91098 0.0
H2247 H 0.76071 0.26251 0.89818 0.0
H2248 H 0.75544 0.28153 0.92499 0.0
H2249 H 0.72 0.30296 0.90196 0.0
H2250 H 0.72488 0.28368 0.87544 0.0
H2251 H 0.72539 0.31658 0.87189 0.0
H2252 H 0.81307 0.34306 0.84233 0.0
H2253 H 0.80862 0.3152 0.8061 0.0
H2254 H 0.7565 0.27101 0.84674 0.0
C2255 C 0.75652 0.33775 0.92129 0.0
C2256 C 0.76436 0.36179 0.927 0.0
C2257 C 0.78171 0.37367 0.91174 0.0
C2258 C 0.79124 0.36152 0.89097 0.0
C2259 C 0.78316 0.33763 0.88594 0.0
C2260 C 0.76593 0.32606 0.90057 0.0
C2261 C 0.75794 0.30168 0.88983 0.0
C2262 C 0.76523 0.28044 0.90702 0.0
C2263 C 0.73044 0.30122 0.88445 0.0
C2264 C 0.77258 0.30167 0.86623 0.0
C2265 C 0.78767 0.32212 0.86463 0.0
C2266 C 0.80164 0.32681 0.84357 0.0
C2267 C 0.79919 0.31084 0.8232 0.0
C2268 C 0.78253 0.29093 0.82409 0.0
C2269 C 0.76976 0.28584 0.84606 0.0
H2270 H 0.91354 0.49055 0.18716 0.0
H2271 H 0.97914 0.49703 0.23199 0.0
H2272 H 0.00201 0.51006 0.19505 0.0
H2273 H 0.94159 0.46453 0.13495 0.0
H2274 H 0.92305 0.48015 0.11239 0.0
H2275 H 0.91132 0.47381 0.14289 0.0
H2276 H 0.90242 0.52008 0.14869 0.0
H2277 H 0.91449 0.52657 0.11826 0.0
H2278 H 0.92664 0.54232 0.14514 0.0
H2279 H 0.0184 0.52017 0.15342 0.0
H2280 H 0.02827 0.52178 0.10886 0.0
H2281 H 0.95243 0.50806 0.09053 0.0
C2282 C 0.93267 0.49488 0.18923 0.0
C2283 C 0.9445 0.49275 0.2125 0.0
C2284 C 0.96964 0.49836 0.21436 0.0
C2285 C 0.98278 0.50605 0.19353 0.0
C2286 C 0.97058 0.50805 0.17093 0.0
C2287 C 0.94617 0.50239 0.16855 0.0
C2288 C 0.93796 0.50403 0.14168 0.0
C2289 C 0.9279 0.47915 0.13244 0.0
C2290 C 0.91927 0.52447 0.13825 0.0
C2291 C 0.96178 0.51068 0.1293 0.0
C2292 C 0.98022 0.51348 0.1466 0.0
C2293 C 0.00411 0.51823 0.13965 0.0
C2294 C 0.00952 0.51915 0.11426 0.0
C2295 C 0.99116 0.51499 0.09613 0.0
C2296 C 0.96686 0.51157 0.10386 0.0
H2297 H 0.75053 0.68911 0.44104 0.0
H2298 H 0.72334 0.61569 0.42504 0.0
H2299 H 0.71385 0.62822 0.38203 0.0
H2300 H 0.70733 0.72269 0.40022 0.0
H2301 H 0.73027 0.74454 0.39066 0.0
H2302 H 0.73173 0.73094 0.4212 0.0
H2303 H 0.77525 0.71591 0.41225 0.0
H2304 H 0.77395 0.72953 0.38183 0.0
H2305 H 0.78057 0.69738 0.38509 0.0
H2306 H 0.71157 0.64692 0.34011 0.0
H2307 H 0.71826 0.67012 0.30136 0.0
H2308 H 0.74701 0.7316 0.34412 0.0
C2309 C 0.74213 0.67585 0.42859 0.0
C2310 C 0.73759 0.65148 0.4363 0.0
C2311 C 0.72698 0.63446 0.41945 0.0
C2312 C 0.72136 0.64145 0.39506 0.0
C2313 C 0.72641 0.66552 0.38787 0.0
C2314 C 0.73656 0.68249 0.4041 0.0
C2315 C 0.74235 0.70645 0.39099 0.0
C2316 C 0.727 0.72739 0.40139 0.0
C2317 C 0.76965 0.71266 0.39264 0.0
C2318 C 0.73471 0.69995 0.36468 0.0
C2319 C 0.72517 0.6764 0.36341 0.0
C2320 C 0.71864 0.66553 0.34088 0.0
C2321 C 0.72258 0.67883 0.31897 0.0
C2322 C 0.73303 0.7027 0.31976 0.0
C2323 C 0.73853 0.71359 0.34298 0.0
H2324 H 0.57062 0.51441 0.84196 0.0
H2325 H 0.64172 0.54605 0.85732 0.0
H2326 H 0.62509 0.56756 0.89392 0.0
H2327 H 0.53446 0.56671 0.86191 0.0
H2328 H 0.51139 0.54742 0.87573 0.0
H2329 H 0.52825 0.53659 0.84937 0.0
H2330 H 0.5414 0.49807 0.87422 0.0
H2331 H 0.52404 0.50849 0.90025 0.0
H2332 H 0.55581 0.502 0.90417 0.0
H2333 H 0.6013 0.58341 0.92992 0.0
H2334 H 0.57454 0.58663 0.96628 0.0
H2335 H 0.51898 0.54435 0.92726 0.0
C2336 C 0.58265 0.52598 0.85298 0.0
C2337 C 0.6074 0.52864 0.84694 0.0
C2338 C 0.62272 0.54366 0.86185 0.0
C2339 C 0.61336 0.5562 0.8824 0.0
C2340 C 0.58871 0.55345 0.88765 0.0
C2341 C 0.57367 0.5384 0.87358 0.0
C2342 C 0.54851 0.53649 0.88452 0.0
C2343 C 0.52953 0.54746 0.86682 0.0
C2344 C 0.54208 0.50969 0.8912 0.0
C2345 C 0.55191 0.55221 0.90748 0.0
C2346 C 0.57503 0.56234 0.90862 0.0
C2347 C 0.58309 0.57581 0.92913 0.0
C2348 C 0.56769 0.57762 0.94966 0.0
C2349 C 0.54467 0.56571 0.94963 0.0
C2350 C 0.53625 0.55406 0.92771 0.0
H2351 H 0.72059 0.304 0.04462 0.0
H2352 H 0.72032 0.38185 0.06181 0.0
H2353 H 0.70703 0.37228 0.10448 0.0
H2354 H 0.66875 0.28538 0.08717 0.0
H2355 H 0.68381 0.25724 0.09508 0.0
H2356 H 0.68744 0.27038 0.06452 0.0
H2357 H 0.73416 0.27035 0.07042 0.0
H2358 H 0.7307 0.2574 0.10087 0.0
H2359 H 0.74743 0.28576 0.09697 0.0
H2360 H 0.70192 0.35425 0.14672 0.0
H2361 H 0.70588 0.32941 0.18481 0.0
H2362 H 0.70936 0.26338 0.13987 0.0
C2363 C 0.71703 0.31913 0.05707 0.0
C2364 C 0.72161 0.34365 0.04989 0.0
C2365 C 0.71697 0.36288 0.06688 0.0
C2366 C 0.70925 0.35763 0.09113 0.0
C2367 C 0.70591 0.33314 0.09792 0.0
C2368 C 0.70939 0.31421 0.08125 0.0
C2369 C 0.70789 0.28945 0.09387 0.0
C2370 C 0.68564 0.27475 0.08461 0.0
C2371 C 0.73144 0.27492 0.09033 0.0
C2372 C 0.70475 0.29745 0.12054 0.0
C2373 C 0.70295 0.32267 0.12245 0.0
C2374 C 0.7027 0.33446 0.14544 0.0
C2375 C 0.70507 0.32018 0.16698 0.0
C2376 C 0.70797 0.29443 0.16531 0.0
C2377 C 0.7069 0.28297 0.1418 0.0
H2378 H 0.92974 0.48037 0.32934 0.0
H2379 H 0.86614 0.52533 0.33922 0.0
H2380 H 0.87835 0.5331 0.38295 0.0
H2381 H 0.92878 0.45304 0.39179 0.0
H2382 H 0.96141 0.45278 0.39402 0.0
H2383 H 0.94677 0.44989 0.3641 0.0
H2384 H 0.97186 0.48717 0.34809 0.0
H2385 H 0.9863 0.49043 0.37805 0.0
H2386 H 0.97053 0.51597 0.36449 0.0
H2387 H 0.89972 0.53913 0.42384 0.0
H2388 H 0.92573 0.53889 0.46123 0.0
H2389 H 0.97436 0.48807 0.42518 0.0
C2390 C 0.91821 0.49158 0.34081 0.0
C2391 C 0.89707 0.50236 0.33104 0.0
C2392 C 0.88234 0.51683 0.34653 0.0
C2393 C 0.8892 0.52142 0.37127 0.0
C2394 C 0.91055 0.51102 0.38016 0.0
C2395 C 0.92456 0.49599 0.36556 0.0
C2396 C 0.94669 0.4871 0.37952 0.0
C2397 C 0.94585 0.45904 0.38254 0.0
C2398 C 0.97023 0.49569 0.36677 0.0
C2399 C 0.94324 0.49992 0.40415 0.0
C2400 C 0.92238 0.51376 0.40405 0.0
C2401 C 0.91592 0.52812 0.42426 0.0
C2402 C 0.93094 0.52799 0.44533 0.0
C2403 C 0.95205 0.51339 0.44611 0.0
C2404 C 0.95826 0.49925 0.42518 0.0
H2405 H 0.76008 0.71821 0.56229 0.0
H2406 H 0.76947 0.64025 0.57554 0.0
H2407 H 0.78252 0.64908 0.61851 0.0
H2408 H 0.81163 0.7395 0.60191 0.0
H2409 H 0.79523 0.76583 0.61263 0.0
H2410 H 0.78947 0.75367 0.58195 0.0
H2411 H 0.74371 0.74904 0.5922 0.0
H2412 H 0.74932 0.7613 0.62275 0.0
H2413 H 0.73466 0.73173 0.61926 0.0
H2414 H 0.78986 0.66585 0.66141 0.0
H2415 H 0.7899 0.68935 0.70072 0.0
H2416 H 0.77707 0.75622 0.65895 0.0
C2417 C 0.76525 0.70301 0.57406 0.0
C2418 C 0.76364 0.67856 0.56547 0.0
C2419 C 0.77043 0.65918 0.58163 0.0
C2420 C 0.77805 0.66399 0.60607 0.0
C2421 C 0.77907 0.68827 0.61405 0.0
C2422 C 0.77298 0.70747 0.59848 0.0
C2423 C 0.77384 0.73172 0.61214 0.0
C2424 C 0.79373 0.74867 0.60152 0.0
C2425 C 0.7489 0.74416 0.61156 0.0
C2426 C 0.78037 0.72302 0.63802 0.0
C2427 C 0.78368 0.69796 0.63873 0.0
C2428 C 0.78776 0.68556 0.66104 0.0
C2429 C 0.78776 0.69906 0.68328 0.0
C2430 C 0.78359 0.72465 0.68298 0.0
C2431 C 0.78064 0.73674 0.6599 0.0
H2432 H 0.67584 0.60315 0.50966 0.0
H2433 H 0.6553 0.67348 0.47839 0.0
H2434 H 0.61299 0.65884 0.47469 0.0
H2435 H 0.63629 0.56585 0.47133 0.0
H2436 H 0.62907 0.54454 0.49592 0.0
H2437 H 0.65793 0.56043 0.49592 0.0
H2438 H 0.64959 0.57714 0.54016 0.0
H2439 H 0.6208 0.56117 0.54036 0.0
H2440 H 0.62212 0.59379 0.54584 0.0
H2441 H 0.57261 0.63661 0.47458 0.0
H2442 H 0.53713 0.6089 0.4799 0.0
H2443 H 0.58432 0.5534 0.51106 0.0
C2444 C 0.66249 0.61552 0.50207 0.0
C2445 C 0.66901 0.63949 0.49436 0.0
C2446 C 0.65085 0.65503 0.48451 0.0
C2447 C 0.62673 0.64688 0.48223 0.0
C2448 C 0.62098 0.62313 0.48986 0.0
C2449 C 0.63831 0.60771 0.49968 0.0
C2450 C 0.62729 0.58318 0.50688 0.0
C2451 C 0.6383 0.56227 0.49159 0.0
C2452 C 0.63011 0.57856 0.53498 0.0
C2453 C 0.60106 0.5873 0.49975 0.0
C2454 C 0.59777 0.61038 0.48983 0.0
C2455 C 0.57497 0.61843 0.48226 0.0
C2456 C 0.55494 0.60255 0.48528 0.0
C2457 C 0.55788 0.57896 0.49586 0.0
C2458 C 0.58137 0.57128 0.50287 0.0
H2459 H 0.19669 0.93901 0.51079 0.0
H2460 H 0.18417 0.86027 0.50715 0.0
H2461 H 0.14095 0.86626 0.51663 0.0
H2462 H 0.1537 0.95148 0.56095 0.0
H2463 H 0.14405 0.97993 0.54722 0.0
H2464 H 0.17447 0.96933 0.54226 0.0
H2465 H 0.16777 0.97177 0.49455 0.0
H2466 H 0.13738 0.98236 0.49937 0.0
H2467 H 0.14245 0.9555 0.48064 0.0
H2468 H 0.09881 0.88082 0.52415 0.0
H2469 H 0.06035 0.90318 0.52788 0.0
H2470 H 0.10037 0.97238 0.52606 0.0
C2471 C 0.1849 0.92303 0.51232 0.0
C2472 C 0.19373 0.8992 0.50831 0.0
C2473 C 0.17774 0.87873 0.51014 0.0
C2474 C 0.15319 0.88191 0.51562 0.0
C2475 C 0.14497 0.90567 0.51922 0.0
C2476 C 0.16031 0.92589 0.51763 0.0
C2477 C 0.14658 0.94952 0.52081 0.0
C2478 C 0.15522 0.96337 0.54421 0.0
C2479 C 0.14867 0.96573 0.49745 0.0
C2480 C 0.1211 0.93941 0.52395 0.0
C2481 C 0.12058 0.91408 0.52327 0.0
C2482 C 0.09897 0.90066 0.52492 0.0
C2483 C 0.07723 0.91353 0.52704 0.0
C2484 C 0.07733 0.93952 0.52728 0.0
C2485 C 0.09964 0.95251 0.52602 0.0
H2486 H 0.3766 0.88774 0.78079 0.0
H2487 H 0.32652 0.94225 0.75276 0.0
H2488 H 0.29309 0.91189 0.75505 0.0
H2489 H 0.35135 0.83724 0.74716 0.0
H2490 H 0.3563 0.81544 0.77183 0.0
H2491 H 0.37588 0.84194 0.76903 0.0
H2492 H 0.36608 0.85389 0.81455 0.0
H2493 H 0.3461 0.8276 0.81728 0.0
H2494 H 0.33494 0.8579 0.8236 0.0
H2495 H 0.26526 0.87518 0.75899 0.0
H2496 H 0.24622 0.83396 0.76045 0.0
H2497 H 0.31437 0.80376 0.78641 0.0
C2498 C 0.35862 0.89336 0.77514 0.0
C2499 C 0.35428 0.91746 0.76661 0.0
C2500 C 0.33042 0.92392 0.75932 0.0
C2501 C 0.31122 0.90685 0.76072 0.0
C2502 C 0.3161 0.88338 0.76951 0.0
C2503 C 0.33925 0.87656 0.7764 0.0
C2504 C 0.33988 0.84983 0.78399 0.0
C2505 C 0.35685 0.83526 0.76698 0.0
C2506 C 0.34718 0.84716 0.81149 0.0
C2507 C 0.31355 0.84257 0.77987 0.0
C2508 C 0.30005 0.86224 0.77181 0.0
C2509 C 0.27559 0.85967 0.76549 0.0
C2510 C 0.2649 0.83618 0.76649 0.0
C2511 C 0.27871 0.81555 0.77362 0.0
C2512 C 0.30314 0.8191 0.78119 0.0
H2513 H 0.3033 0.08646 0.01906 0.0
H2514 H 0.31794 0.15903 0.98883 0.0
H2515 H 0.36175 0.15134 0.99068 0.0
H2516 H 0.35487 0.08634 0.06189 0.0
H2517 H 0.36092 0.05422 0.05738 0.0
H2518 H 0.33043 0.06536 0.05411 0.0
H2519 H 0.32778 0.04706 0.00965 0.0
H2520 H 0.35819 0.03578 0.01284 0.0
H2521 H 0.3505 0.05545 0.9871 0.0
H2522 H 0.40344 0.13531 0.99312 0.0
H2523 H 0.44127 0.11192 -0.00241 0.0
H2524 H 0.40045 0.05063 0.02855 0.0
C2525 C 0.31577 0.10069 0.0129 0.0
C2526 C 0.30727 0.1233 0.00379 0.0
C2527 C 0.32408 0.14158 0.99598 0.0
C2528 C 0.34901 0.13742 -0.00306 0.0
C2529 C 0.35686 0.11501 0.00605 0.0
C2530 C 0.34085 0.09697 0.01406 0.0
C2531 C 0.35427 0.07448 0.0229 0.0
C2532 C 0.34986 0.06984 0.05072 0.0
C2533 C 0.34727 0.05186 0.00718 0.0
C2534 C 0.38022 0.08263 0.01817 0.0
C2535 C 0.38124 0.10605 0.00839 0.0
C2536 C 0.40298 0.11708 0.00109 0.0
C2537 C 0.42432 0.10368 0.00365 0.0
C2538 C 0.42371 0.07968 0.01368 0.0
C2539 C 0.40143 0.06917 0.02133 0.0
H2540 H 0.664 0.58204 0.77302 0.0
H2541 H 0.60257 0.6095 0.81449 0.0
H2542 H 0.62338 0.64951 0.81898 0.0
H2543 H 0.71102 0.61457 0.80838 0.0
H2544 H 0.72934 0.62077 0.78139 0.0
H2545 H 0.71026 0.59368 0.78238 0.0
H2546 H 0.68928 0.60676 0.74129 0.0
H2547 H 0.70841 0.63374 0.74008 0.0
H2548 H 0.67588 0.6367 0.73915 0.0
H2549 H 0.64952 0.68678 0.81746 0.0
H2550 H 0.67881 0.72001 0.80837 0.0
H2551 H 0.72378 0.66872 0.76824 0.0
C2552 C 0.65493 0.59642 0.78313 0.0
C2553 C 0.63158 0.5926 0.79333 0.0
C2554 C 0.62037 0.61197 0.80636 0.0
C2555 C 0.63211 0.63473 0.80918 0.0
C2556 C 0.65508 0.63783 0.79894 0.0
C2557 C 0.66638 0.61929 0.78611 0.0
C2558 C 0.69067 0.62785 0.776 0.0
C2559 C 0.71155 0.61335 0.78775 0.0
C2560 C 0.69107 0.62617 0.74744 0.0
C2561 C 0.691 0.65428 0.78475 0.0
C2562 C 0.67037 0.6595 0.79815 0.0
C2563 C 0.66584 0.6829 0.80716 0.0
C2564 C 0.68257 0.70165 0.80186 0.0
C2565 C 0.70358 0.69691 0.78766 0.0
C2566 C 0.70808 0.67278 0.77946 0.0
H2567 H 0.81964 0.4111 0.00275 0.0
H2568 H 0.83959 0.3358 0.987 0.0
H2569 H 0.88283 0.34757 0.99018 0.0
H2570 H 0.86629 0.43946 0.96752 0.0
H2571 H 0.87132 0.46437 0.98907 0.0
H2572 H 0.84187 0.44986 0.98685 0.0
H2573 H 0.84283 0.44061 0.03414 0.0
H2574 H 0.87225 0.45522 0.03654 0.0
H2575 H 0.86802 0.42409 0.04717 0.0
H2576 H 0.92375 0.36769 0.99353 0.0
H2577 H 0.95975 0.39468 -0.00239 0.0
H2578 H 0.91301 0.45688 0.01097 0.0
C2579 C 0.83304 0.39698 0.00022 0.0
C2580 C 0.82616 0.37249 0.99467 0.0
C2581 C 0.84436 0.35468 0.99129 0.0
C2582 C 0.86899 0.36117 0.99306 0.0
C2583 C 0.87509 0.38551 -0.00177 0.0
C2584 C 0.85767 0.40312 0.00186 0.0
C2585 C 0.86908 0.42812 0.00658 0.0
C2586 C 0.8617 0.44653 0.98629 0.0
C2587 C 0.86267 0.43755 0.03266 0.0
C2588 C 0.89566 0.42183 0.00484 0.0
C2589 C 0.89872 0.39715 8e-05 0.0
C2590 C 0.9216 0.38704 -0.00265 0.0
C2591 C 0.94193 0.40256 -0.00035 0.0
C2592 C 0.93925 0.42795 0.00459 0.0
C2593 C 0.91573 0.4376 0.00719 0.0
H2594 H 0.37949 0.07682 0.76023 0.0
H2595 H 0.32314 0.03292 0.72419 0.0
H2596 H 0.29986 0.07018 0.71578 0.0
H2597 H 0.34064 0.1181 0.79012 0.0
H2598 H 0.35952 0.14496 0.7856 0.0
H2599 H 0.37303 0.11511 0.78724 0.0
H2600 H 0.39314 0.12223 0.74436 0.0
H2601 H 0.37977 0.15219 0.74265 0.0
H2602 H 0.37456 0.13032 0.71798 0.0
H2603 H 0.28061 0.11093 0.71493 0.0
H2604 H 0.26767 0.15387 0.71927 0.0
H2605 H 0.33675 0.17258 0.75397 0.0
C2606 C 0.36245 0.07514 0.75022 0.0
C2607 C 0.35316 0.05192 0.74291 0.0
C2608 C 0.33068 0.05047 0.73001 0.0
C2609 C 0.31728 0.07155 0.72509 0.0
C2610 C 0.32666 0.09407 0.73295 0.0
C2611 C 0.34882 0.09614 0.74497 0.0
C2612 C 0.35419 0.12263 0.75209 0.0
C2613 C 0.357 0.12535 0.78045 0.0
C2614 C 0.37676 0.13242 0.73845 0.0
C2615 C 0.33131 0.13489 0.74272 0.0
C2616 C 0.31572 0.118 0.73175 0.0
C2617 C 0.2928 0.12444 0.72311 0.0
C2618 C 0.28557 0.14883 0.72576 0.0
C2619 C 0.30127 0.16656 0.73673 0.0
C2620 C 0.32455 0.15949 0.74509 0.0
H2621 H 0.13889 0.91538 0.27758 0.0
H2622 H 0.19442 0.96501 0.24933 0.0
H2623 H 0.21817 0.92932 0.23518 0.0
H2624 H 0.17874 0.86986 0.30068 0.0
H2625 H 0.15873 0.84474 0.29233 0.0
H2626 H 0.1464 0.87431 0.29944 0.0
H2627 H 0.12445 0.87462 0.2566 0.0
H2628 H 0.13697 0.84514 0.24928 0.0
H2629 H 0.14185 0.87076 0.22861 0.0
H2630 H 0.23603 0.88733 0.22498 0.0
H2631 H 0.24705 0.84353 0.2216 0.0
H2632 H 0.17885 0.82286 0.25629 0.0
C2633 C 0.15604 0.91885 0.26841 0.0
C2634 C 0.16484 0.94295 0.26455 0.0
C2635 C 0.18738 0.94664 0.25251 0.0
C2636 C 0.20092 0.92651 0.24433 0.0
C2637 C 0.19156 0.90292 0.24832 0.0
C2638 C 0.16965 0.89911 0.26017 0.0
C2639 C 0.16367 0.87214 0.26287 0.0
C2640 C 0.16179 0.86484 0.29046 0.0
C2641 C 0.14036 0.86527 0.24847 0.0
C2642 C 0.18573 0.86124 0.25087 0.0
C2643 C 0.20162 0.87915 0.24244 0.0
C2644 C 0.22363 0.87317 0.23141 0.0
C2645 C 0.22969 0.84825 0.22947 0.0
C2646 C 0.21382 0.82973 0.23864 0.0
C2647 C 0.1914 0.83648 0.24901 0.0
H2648 H 0.47682 0.37878 0.38488 0.0
H2649 H 0.54791 0.34876 0.39824 0.0
H2650 H 0.56103 0.38728 0.41866 0.0
H2651 H 0.49981 0.44659 0.37862 0.0
H2652 H 0.47357 0.45795 0.39437 0.0
H2653 H 0.47078 0.43155 0.37425 0.0
H2654 H 0.45238 0.40535 0.40934 0.0
H2655 H 0.45381 0.43125 0.42981 0.0
H2656 H 0.46819 0.40301 0.4387 0.0
H2657 H 0.5626 0.4232 0.447 0.0
H2658 H 0.55307 0.45487 0.4784 0.0
H2659 H 0.48132 0.46211 0.44585 0.0
C2660 C 0.49553 0.38109 0.39078 0.0
C2661 C 0.51161 0.36137 0.38965 0.0
C2662 C 0.53565 0.36415 0.39854 0.0
C2663 C 0.54323 0.38592 0.41014 0.0
C2664 C 0.52656 0.40476 0.41236 0.0
C2665 C 0.50336 0.40284 0.40232 0.0
C2666 C 0.48791 0.42413 0.41028 0.0
C2667 C 0.4827 0.44104 0.38805 0.0
C2668 C 0.46421 0.41539 0.42279 0.0
C2669 C 0.50502 0.43651 0.42859 0.0
C2670 C 0.52754 0.42572 0.4289 0.0
C2671 C 0.54529 0.43233 0.44642 0.0
C2672 C 0.53971 0.45018 0.46428 0.0
C2673 C 0.51643 0.46072 0.46467 0.0
C2674 C 0.49928 0.45427 0.44609 0.0
H2675 H 0.42377 0.78341 0.16023 0.0
H2676 H 0.46633 0.75921 0.22366 0.0
H2677 H 0.42851 0.74899 0.24612 0.0
H2678 H 0.37801 0.81233 0.19436 0.0
H2679 H 0.35366 0.80329 0.17366 0.0
H2680 H 0.38398 0.80702 0.16188 0.0
H2681 H 0.38265 0.76253 0.14479 0.0
H2682 H 0.35222 0.75872 0.15632 0.0
H2683 H 0.37542 0.73749 0.16549 0.0
H2684 H 0.38639 0.74314 0.26204 0.0
H2685 H 0.34262 0.74135 0.27055 0.0
H2686 H 0.32768 0.77021 0.19674 0.0
C2687 C 0.42518 0.77568 0.17873 0.0
C2688 C 0.44791 0.77203 0.19025 0.0
C2689 C 0.44903 0.76209 0.21453 0.0
C2690 C 0.4277 0.75624 0.2274 0.0
C2691 C 0.40556 0.76046 0.21562 0.0
C2692 C 0.40415 0.76986 0.19181 0.0
C2693 C 0.37813 0.77347 0.18368 0.0
C2694 C 0.37317 0.80064 0.17808 0.0
C2695 C 0.37173 0.75707 0.16124 0.0
C2696 C 0.36509 0.76499 0.20682 0.0
C2697 C 0.38124 0.75741 0.22493 0.0
C2698 C 0.37355 0.74895 0.24799 0.0
C2699 C 0.34863 0.74807 0.25263 0.0
C2700 C 0.33171 0.75574 0.23431 0.0
C2701 C 0.34014 0.76436 0.21115 0.0
H2702 H 0.98609 0.66841 0.95708 0.0
H2703 H 0.99217 0.65537 0.87765 0.0
H2704 H 0.98102 0.61188 0.8842 0.0
H2705 H 0.01292 0.61365 0.97604 0.0
H2706 H 0.99364 0.60934 0.0027 0.0
H2707 H -0.00036 0.63974 0.99114 0.0
H2708 H 0.95332 0.6467 0.98694 0.0
H2709 H 0.94725 0.61602 -0.00198 0.0
H2710 H 0.93512 0.62578 0.96849 0.0
H2711 H 0.97262 0.56946 0.89957 0.0
H2712 H 0.97219 0.53057 0.92306 0.0
H2713 H 0.97079 0.57124 0.99233 0.0
C2714 C 0.98488 0.65651 0.94098 0.0
C2715 C 0.98997 0.66539 0.91683 0.0
C2716 C 0.98843 0.64905 0.89636 0.0
C2717 C 0.98185 0.62435 0.89985 0.0
C2718 C 0.97674 0.61631 0.92388 0.0
C2719 C 0.97837 0.63185 0.94412 0.0
C2720 C 0.97409 0.61819 0.96825 0.0
C2721 C 0.9964 0.62035 0.98553 0.0
C2722 C 0.95107 0.62722 0.98118 0.0
C2723 C 0.97062 0.59232 0.95849 0.0
C2724 C 0.97173 0.59172 0.9328 0.0
C2725 C 0.9713 0.56971 0.91964 0.0
C2726 C 0.97096 0.54772 0.93313 0.0
C2727 C 0.97116 0.54795 0.95947 0.0
C2728 C 0.96989 0.57052 0.97222 0.0
H2729 H 0.09771 0.28811 0.64101 0.0
H2730 H 0.05275 0.23718 0.68307 0.0
H2731 H 0.08798 0.22705 0.7095 0.0
H2732 H 0.14717 0.25215 0.63721 0.0
H2733 H 0.16974 0.27617 0.64057 0.0
H2734 H 0.14034 0.28314 0.628 0.0
H2735 H 0.13395 0.31621 0.66189 0.0
H2736 H 0.16372 0.30993 0.67415 0.0
H2737 H 0.13767 0.3082 0.69421 0.0
H2738 H 0.12977 0.21762 0.72679 0.0
H2739 H 0.1734 0.21425 0.73734 0.0
H2740 H 0.19016 0.27096 0.6831 0.0
C2741 C 0.09501 0.27546 0.65633 0.0
C2742 C 0.07248 0.26343 0.65993 0.0
C2743 C 0.06978 0.24683 0.68007 0.0
C2744 C 0.08975 0.2408 0.69508 0.0
C2745 C 0.11211 0.25183 0.68993 0.0
C2746 C 0.11467 0.26928 0.67142 0.0
C2747 C 0.14084 0.27724 0.66839 0.0
C2748 C 0.15004 0.27184 0.64198 0.0
C2749 C 0.14424 0.30451 0.67507 0.0
C2750 C 0.15274 0.26088 0.68743 0.0
C2751 C 0.13597 0.24643 0.6998 0.0
C2752 C 0.14303 0.22915 0.71749 0.0
C2753 C 0.16785 0.22716 0.72315 0.0
C2754 C 0.18521 0.24234 0.71108 0.0
C2755 C 0.1774 0.25913 0.69279 0.0
H2756 H 0.53901 0.72825 0.08411 0.0
H2757 H 0.50528 0.71716 0.15625 0.0
H2758 H 0.50876 0.67259 0.15123 0.0
H2759 H 0.50918 0.67939 0.05404 0.0
H2760 H 0.5347 0.67073 0.03532 0.0
H2761 H 0.53188 0.70196 0.0456 0.0
H2762 H 0.57464 0.7 0.06579 0.0
H2763 H 0.57747 0.66861 0.05575 0.0
H2764 H 0.58108 0.6763 0.08818 0.0
H2765 H 0.51227 0.62997 0.13749 0.0
H2766 H 0.51361 0.59102 0.11435 0.0
H2767 H 0.54581 0.62879 0.05138 0.0
C2768 C 0.53254 0.71647 0.09894 0.0
C2769 C 0.52188 0.72626 0.12056 0.0
C2770 C 0.51347 0.71017 0.13946 0.0
C2771 C 0.51555 0.6848 0.13692 0.0
C2772 C 0.52618 0.67579 0.11546 0.0
C2773 C 0.53446 0.69103 0.09673 0.0
C2774 C 0.54344 0.67641 0.07475 0.0
C2775 C 0.52892 0.68248 0.05104 0.0
C2776 C 0.57079 0.68058 0.0709 0.0
C2777 C 0.53807 0.65061 0.08377 0.0
C2778 C 0.52848 0.65075 0.10749 0.0
C2779 C 0.52012 0.6295 0.1191 0.0
C2780 C 0.5209 0.60753 0.10582 0.0
C2781 C 0.53001 0.60707 0.08128 0.0
C2782 C 0.53935 0.62869 0.07037 0.0
H2783 H 0.08172 0.69829 0.85475 0.0
H2784 H 0.03361 0.73029 0.79996 0.0
H2785 H 0.06827 0.73631 0.77149 0.0
H2786 H 0.1294 0.73723 0.84749 0.0
H2787 H 0.15324 0.71508 0.85052 0.0
H2788 H 0.12438 0.70942 0.865 0.0
H2789 H 0.11962 0.66806 0.84161 0.0
H2790 H 0.14887 0.67318 0.82759 0.0
H2791 H 0.12261 0.66735 0.80825 0.0
H2792 H 0.10932 0.74621 0.75294 0.0
H2793 H 0.15262 0.75155 0.74181 0.0
H2794 H 0.17336 0.71056 0.80755 0.0
C2795 C 0.07835 0.70564 0.83635 0.0
C2796 C 0.05505 0.7137 0.82943 0.0
C2797 C 0.05129 0.72362 0.80541 0.0
C2798 C 0.07091 0.72732 0.78923 0.0
C2799 C 0.09396 0.72042 0.79719 0.0
C2800 C 0.09762 0.709 0.81985 0.0
C2801 C 0.12426 0.70427 0.82451 0.0
C2802 C 0.13333 0.71728 0.84828 0.0
C2803 C 0.12912 0.67657 0.82554 0.0
C2804 C 0.13514 0.71581 0.80148 0.0
C2805 C 0.11742 0.72515 0.78598 0.0
C2806 C 0.1233 0.73844 0.76462 0.0
C2807 C 0.14791 0.74166 0.75862 0.0
C2808 C 0.16622 0.73138 0.77378 0.0
C2809 C 0.15967 0.71838 0.79549 0.0
H2810 H 0.98572 0.32783 0.62176 0.0
H2811 H 0.00831 0.28942 0.55522 0.0
H2812 H 0.99646 0.32503 0.52966 0.0
H2813 H 0.93393 0.35839 0.59483 0.0
H2814 H 0.93924 0.38641 0.61194 0.0
H2815 H 0.94834 0.35747 0.625 0.0
H2816 H 0.99256 0.37373 0.63008 0.0
H2817 H 0.9834 0.40284 0.61768 0.0
H2818 H 0.00799 0.38655 0.60351 0.0
H2819 H 0.98279 0.36468 0.51165 0.0
H2820 H 0.97485 0.40818 0.50293 0.0
H2821 H 0.9614 0.42059 0.58146 0.0
C2822 C 0.98823 0.32694 0.60181 0.0
C2823 C 0.9978 0.30594 0.59039 0.0
C2824 C 0.00103 0.30544 0.5643 0.0
C2825 C 0.99409 0.32541 0.54963 0.0
C2826 C 0.98404 0.34559 0.56142 0.0
C2827 C 0.98151 0.34668 0.58695 0.0
C2828 C 0.97184 0.37115 0.5952 0.0
C2829 C 0.94685 0.36816 0.60746 0.0
C2830 C 0.99003 0.38435 0.61263 0.0
C2831 C 0.96986 0.38391 0.57034 0.0
C2832 C 0.97647 0.36867 0.55105 0.0
C2833 C 0.97744 0.37678 0.52654 0.0
C2834 C 0.97281 0.40152 0.52179 0.0
C2835 C 0.96764 0.41783 0.54156 0.0
C2836 C 0.96508 0.40858 0.56593 0.0
H2837 H 0.42911 0.29156 0.34066 0.0
H2838 H 0.40773 0.27775 0.41696 0.0
H2839 H 0.37266 0.2531 0.40211 0.0
H2840 H 0.36834 0.30001 0.31809 0.0
H2841 H 0.37436 0.28647 0.28822 0.0
H2842 H 0.3985 0.30132 0.30534 0.0
H2843 H 0.42342 0.2613 0.3025 0.0
H2844 H 0.39887 0.24613 0.2861 0.0
H2845 H 0.41072 0.23302 0.31438 0.0
H2846 H 0.33966 0.23033 0.3791 0.0
H2847 H 0.30649 0.21907 0.34988 0.0
H2848 H 0.34813 0.24914 0.28883 0.0
C2849 C 0.41695 0.28342 0.35419 0.0
C2850 C 0.42108 0.28656 0.37993 0.0
C2851 C 0.40472 0.27581 0.39713 0.0
C2852 C 0.38497 0.26145 0.38889 0.0
C2853 C 0.38168 0.25824 0.36338 0.0
C2854 C 0.39683 0.26947 0.34628 0.0
C2855 C 0.38786 0.26518 0.31995 0.0
C2856 C 0.3819 0.28969 0.30716 0.0
C2857 C 0.40633 0.25053 0.30485 0.0
C2858 C 0.36517 0.25001 0.32495 0.0
C2859 C 0.36227 0.24564 0.35009 0.0
C2860 C 0.34187 0.23334 0.35934 0.0
C2861 C 0.32329 0.22664 0.34262 0.0
C2862 C 0.32524 0.23253 0.31712 0.0
C2863 C 0.34677 0.24353 0.30811 0.0
H2864 H 0.38659 0.47619 0.35209 0.0
H2865 H 0.36011 0.54794 0.33173 0.0
H2866 H 0.37063 0.56359 0.37361 0.0
H2867 H 0.36648 0.48045 0.42055 0.0
H2868 H 0.3927 0.46346 0.43031 0.0
H2869 H 0.37858 0.45702 0.40065 0.0
H2870 H 0.41997 0.46429 0.37905 0.0
H2871 H 0.43389 0.47115 0.40852 0.0
H2872 H 0.43581 0.49314 0.38352 0.0
H2873 H 0.39369 0.57346 0.41311 0.0
H2874 H 0.42056 0.5747 0.45038 0.0
H2875 H 0.42774 0.49565 0.44624 0.0
C2876 C 0.382 0.49484 0.35697 0.0
C2877 C 0.37242 0.51085 0.33905 0.0
C2878 C 0.36706 0.53534 0.34555 0.0
C2879 C 0.37307 0.5444 0.36922 0.0
C2880 C 0.38363 0.52845 0.38626 0.0
C2881 C 0.38716 0.50392 0.38073 0.0
C2882 C 0.40022 0.49098 0.40161 0.0
C2883 C 0.38349 0.47185 0.41402 0.0
C2884 C 0.42387 0.47924 0.3926 0.0
C2885 C 0.40523 0.51245 0.41873 0.0
C2886 C 0.39546 0.53393 0.40976 0.0
C2887 C 0.40066 0.55662 0.42086 0.0
C2888 C 0.41608 0.55723 0.4418 0.0
C2889 C 0.42576 0.53525 0.45136 0.0
C2890 C 0.41997 0.51269 0.43977 0.0
H2891 H 0.23285 0.65059 0.06555 0.0
H2892 H 0.23681 0.71883 0.0239 0.0
H2893 H 0.22734 0.7419 0.06197 0.0
H2894 H 0.18326 0.66954 0.10786 0.0
H2895 H 0.19642 0.6535 0.13386 0.0
H2896 H 0.20042 0.64209 0.1027 0.0
H2897 H 0.24712 0.64315 0.10893 0.0
H2898 H 0.24324 0.65436 0.14005 0.0
H2899 H 0.26184 0.67139 0.11845 0.0
H2900 H 0.22323 0.75773 0.10501 0.0
H2901 H 0.22486 0.76516 0.15029 0.0
H2902 H 0.22172 0.68662 0.1635 0.0
C2903 C 0.23144 0.67037 0.06435 0.0
C2904 C 0.23564 0.68292 0.04182 0.0
C2905 C 0.2336 0.70881 0.04099 0.0
C2906 C 0.2281 0.72207 0.06246 0.0
C2907 C 0.2243 0.70913 0.08444 0.0
C2908 C 0.22571 0.68384 0.0855 0.0
C2909 C 0.22266 0.67449 0.11176 0.0
C2910 C 0.1993 0.65899 0.11418 0.0
C2911 C 0.24505 0.66001 0.12029 0.0
C2912 C 0.22062 0.69856 0.12548 0.0
C2913 C 0.22122 0.71832 0.10935 0.0
C2914 C 0.22218 0.74245 0.11784 0.0
C2915 C 0.22319 0.74648 0.14353 0.0
C2916 C 0.2232 0.72644 0.16028 0.0
C2917 C 0.22114 0.70227 0.15111 0.0
H2918 H 0.08959 0.47125 0.83273 0.0
H2919 H 0.16095 0.48045 0.86597 0.0
H2920 H 0.14648 0.45807 0.90359 0.0
H2921 H 0.05682 0.48467 0.88261 0.0
H2922 H 0.03265 0.46292 0.87624 0.0
H2923 H 0.0506 0.47468 0.85122 0.0
H2924 H 0.06099 0.43004 0.83853 0.0
H2925 H 0.04338 0.41823 0.86414 0.0
H2926 H 0.07473 0.40983 0.86095 0.0
H2927 H 0.12166 0.44173 0.93972 0.0
H2928 H 0.08923 0.4382 0.97113 0.0
H2929 H 0.03499 0.43923 0.91289 0.0
C2930 C 0.10241 0.46837 0.84775 0.0
C2931 C 0.12627 0.4779 0.84672 0.0
C2932 C 0.14251 0.47338 0.86658 0.0
C2933 C 0.1345 0.46047 0.88779 0.0
C2934 C 0.11051 0.45169 0.8883 0.0
C2935 C 0.09484 0.45542 0.86858 0.0
C2936 C 0.06922 0.44737 0.87438 0.0
C2937 C 0.05131 0.46868 0.87094 0.0
C2938 C 0.06165 0.42503 0.85856 0.0
C2939 C 0.07227 0.44034 0.90131 0.0
C2940 C 0.09635 0.44197 0.90887 0.0
C2941 C 0.10294 0.43967 0.93385 0.0
C2942 C 0.08443 0.4374 0.95157 0.0
C2943 C 0.05981 0.43799 0.9441 0.0
C2944 C 0.05377 0.43791 0.91873 0.0
H2945 H 0.26927 0.35131 0.57901 0.0
H2946 H 0.27385 0.28777 0.53081 0.0
H2947 H 0.29258 0.26415 0.56505 0.0
H2948 H 0.32697 0.34195 0.61052 0.0
H2949 H 0.31591 0.3524 0.64012 0.0
H2950 H 0.3033 0.36443 0.61168 0.0
H2951 H 0.25991 0.35107 0.62519 0.0
H2952 H 0.27238 0.34007 0.65397 0.0
H2953 H 0.25445 0.31974 0.63461 0.0
H2954 H 0.30756 0.24668 0.60577 0.0
H2955 H 0.31303 0.23613 0.65025 0.0
H2956 H 0.30277 0.31214 0.67011 0.0
C2957 C 0.27388 0.33231 0.57579 0.0
C2958 C 0.2698 0.32121 0.55245 0.0
C2959 C 0.27663 0.2965 0.54871 0.0
C2960 C 0.28753 0.28306 0.56793 0.0
C2961 C 0.29199 0.2948 0.59054 0.0
C2962 C 0.28526 0.31885 0.59454 0.0
C2963 C 0.29123 0.32703 0.62071 0.0
C2964 C 0.3105 0.34768 0.62074 0.0
C2965 C 0.26813 0.33491 0.63443 0.0
C2966 C 0.30141 0.30352 0.6312 0.0
C2967 C 0.30208 0.28517 0.61346 0.0
C2968 C 0.3078 0.26102 0.61969 0.0
C2969 C 0.3113 0.2552 0.64492 0.0
C2970 C 0.3091 0.27352 0.66331 0.0
C2971 C 0.3056 0.29811 0.65617 0.0
H2972 H 0.43777 0.51593 0.21997 0.0
H2973 H 0.44843 0.43889 0.23607 0.0
H2974 H 0.47195 0.43464 0.19709 0.0
H2975 H 0.42742 0.51037 0.15742 0.0
H2976 H 0.44324 0.53823 0.1488 0.0
H2977 H 0.4301 0.53544 0.17918 0.0
H2978 H 0.47191 0.54519 0.19959 0.0
H2979 H 0.48517 0.54827 0.16918 0.0
H2980 H 0.49785 0.52716 0.19138 0.0
H2981 H 0.49006 0.43854 0.15292 0.0
H2982 H 0.50257 0.45095 0.11025 0.0
H2983 H 0.48028 0.52542 0.12624 0.0
C2984 C 0.44545 0.49827 0.21552 0.0
C2985 C 0.44134 0.47775 0.23081 0.0
C2986 C 0.45164 0.45489 0.22453 0.0
C2987 C 0.46493 0.45231 0.20246 0.0
C2988 C 0.46808 0.47289 0.18733 0.0
C2989 C 0.45895 0.49551 0.19395 0.0
C2990 C 0.4636 0.51464 0.17433 0.0
C2991 C 0.43967 0.52527 0.16435 0.0
C2992 C 0.48065 0.53501 0.18421 0.0
C2993 C 0.47592 0.49913 0.15511 0.0
C2994 C 0.47864 0.47513 0.16273 0.0
C2995 C 0.48835 0.45741 0.14695 0.0
C2996 C 0.49534 0.46455 0.12277 0.0
C2997 C 0.49233 0.48909 0.11481 0.0
C2998 C 0.48283 0.50644 0.13151 0.0
H2999 H 0.29343 0.66747 0.93712 0.0
H3000 H 0.27418 0.59177 0.92092 0.0
H3001 H 0.2806 0.5996 0.87609 0.0
H3002 H 0.26252 0.69331 0.89167 0.0
H3003 H 0.28396 0.71734 0.88393 0.0
H3004 H 0.284 0.70442 0.9146 0.0
H3005 H 0.32939 0.69345 0.91024 0.0
H3006 H 0.32959 0.70659 0.87945 0.0
H3007 H 0.3391 0.6754 0.88412 0.0
H3008 H 0.27892 0.6179 0.83414 0.0
H3009 H 0.27167 0.64463 0.79793 0.0
H3010 H 0.29439 0.70813 0.84107 0.0
C3011 C 0.29132 0.65239 0.92415 0.0
C3012 C 0.28322 0.62912 0.93216 0.0
C3013 C 0.2805 0.60971 0.91493 0.0
C3014 C 0.28423 0.61398 0.88954 0.0
C3015 C 0.29128 0.63752 0.88203 0.0
C3016 C 0.29531 0.65628 0.89892 0.0
C3017 C 0.29976 0.68059 0.8861 0.0
C3018 C 0.28146 0.70002 0.89457 0.0
C3019 C 0.32603 0.68953 0.89022 0.0
C3020 C 0.29552 0.67303 0.85942 0.0
C3021 C 0.29119 0.648 0.8574 0.0
C3022 C 0.28313 0.63732 0.83528 0.0
C3023 C 0.27886 0.65265 0.81492 0.0
C3024 C 0.28275 0.6783 0.81688 0.0
C3025 C 0.29198 0.68847 0.83906 0.0
H3026 H 0.10379 0.51449 0.7092 0.0
H3027 H 0.04211 0.5089 0.75892 0.0
H3028 H 0.01428 0.50948 0.72295 0.0
H3029 H 0.07619 0.55613 0.66606 0.0
H3030 H 0.08973 0.54247 0.63904 0.0
H3031 H 0.10503 0.54111 0.6687 0.0
H3032 H 0.10675 0.49368 0.66549 0.0
H3033 H 0.09165 0.49491 0.63575 0.0
H3034 H 0.0791 0.47633 0.66038 0.0
H3035 H 0.99317 0.50994 0.68193 0.0
H3036 H 0.98011 0.51023 0.63791 0.0
H3037 H 0.05539 0.51706 0.61514 0.0
C3038 C 0.08444 0.51317 0.71248 0.0
C3039 C 0.0751 0.5116 0.73679 0.0
C3040 C 0.04966 0.51021 0.7404 0.0
C3041 C 0.03369 0.51052 0.72013 0.0
C3042 C 0.04346 0.5124 0.69643 0.0
C3043 C 0.0682 0.51373 0.69246 0.0
C3044 C 0.0739 0.51592 0.66508 0.0
C3045 C 0.08698 0.54036 0.6594 0.0
C3046 C 0.08872 0.4939 0.65615 0.0
C3047 C 0.04848 0.51538 0.65433 0.0
C3048 C 0.0312 0.51332 0.67272 0.0
C3049 C 0.00649 0.51169 0.6673 0.0
C3050 C -0.00074 0.51187 0.6423 0.0
C3051 C 0.01672 0.51383 0.62317 0.0
C3052 C 0.04159 0.51589 0.62937 0.0
H3053 H 0.26969 0.37474 0.43666 0.0
H3054 H 0.19434 0.39456 0.44379 0.0
H3055 H 0.186 0.37884 0.40144 0.0
H3056 H 0.27321 0.38544 0.36492 0.0
H3057 H 0.29338 0.3598 0.36234 0.0
H3058 H 0.29451 0.3791 0.38958 0.0
H3059 H 0.28838 0.34055 0.41709 0.0
H3060 H 0.28635 0.32124 0.39016 0.0
H3061 H 0.26192 0.32126 0.41231 0.0
H3062 H 0.18379 0.34995 0.36531 0.0
H3063 H 0.18953 0.31728 0.33389 0.0
H3064 H 0.26686 0.31873 0.34912 0.0
C3065 C 0.25183 0.37708 0.42857 0.0
C3066 C 0.2327 0.38597 0.44303 0.0
C3067 C 0.20928 0.38824 0.43256 0.0
C3068 C 0.20438 0.37921 0.40862 0.0
C3069 C 0.22332 0.36878 0.39536 0.0
C3070 C 0.24685 0.36861 0.40459 0.0
C3071 C 0.26336 0.35381 0.38821 0.0
C3072 C 0.28222 0.37054 0.3755 0.0
C3073 C 0.27569 0.33299 0.40282 0.0
C3074 C 0.24509 0.34389 0.36966 0.0
C3075 C 0.22213 0.35288 0.37381 0.0
C3076 C 0.20182 0.34352 0.36121 0.0
C3077 C 0.20517 0.32476 0.3437 0.0
C3078 C 0.22865 0.31576 0.33901 0.0
C3079 C 0.24877 0.3257 0.35196 0.0
H3080 H 0.3375 0.39457 0.50597 0.0
H3081 H 0.28171 0.44249 0.53416 0.0
H3082 H 0.31351 0.46851 0.55419 0.0
H3083 H 0.37679 0.39782 0.56022 0.0
H3084 H 0.404 0.39704 0.54181 0.0
H3085 H 0.37672 0.38194 0.5308 0.0
H3086 H 0.37847 0.40705 0.48976 0.0
H3087 H 0.40598 0.42172 0.50042 0.0
H3088 H 0.38046 0.44007 0.49128 0.0
H3089 H 0.35247 0.49091 0.56814 0.0
H3090 H 0.39403 0.50837 0.57213 0.0
H3091 H 0.42273 0.44326 0.53714 0.0
C3092 C 0.33183 0.41058 0.51624 0.0
C3093 C 0.30713 0.41666 0.51827 0.0
C3094 C 0.30058 0.43758 0.53225 0.0
C3095 C 0.31848 0.45233 0.54383 0.0
C3096 C 0.34271 0.44556 0.54161 0.0
C3097 C 0.34927 0.42511 0.52815 0.0
C3098 C 0.3764 0.42202 0.52759 0.0
C3099 C 0.38391 0.3983 0.5409 0.0
C3100 C 0.38587 0.42278 0.50068 0.0
C3101 C 0.3843 0.44442 0.54214 0.0
C3102 C 0.36474 0.45775 0.55035 0.0
C3103 C 0.36791 0.48039 0.56217 0.0
C3104 C 0.39159 0.49009 0.56454 0.0
C3105 C 0.41161 0.47714 0.55498 0.0
C3106 C 0.40785 0.45354 0.54482 0.0
H3107 H 0.84234 0.1232 0.53605 0.0
H3108 H 0.78601 0.06904 0.52054 0.0
H3109 H 0.81655 0.03639 0.52095 0.0
H3110 H 0.88424 0.10216 0.49817 0.0
H3111 H 0.91069 0.10691 0.51753 0.0
H3112 H 0.88439 0.12551 0.52194 0.0
H3113 H 0.88172 0.11267 0.56822 0.0
H3114 H 0.90872 0.09479 0.56434 0.0
H3115 H 0.88149 0.08056 0.5763 0.0
H3116 H 0.8539 0.01201 0.51233 0.0
H3117 H 0.89513 0.99538 0.50598 0.0
H3118 H 0.92675 0.0646 0.53014 0.0
C3119 C 0.83632 0.1043 0.53406 0.0
C3120 C 0.81192 0.09857 0.52831 0.0
C3121 C 0.80461 0.07375 0.52532 0.0
C3122 C 0.82187 0.0551 0.52528 0.0
C3123 C 0.84613 0.0616 0.52903 0.0
C3124 C 0.85326 0.08545 0.53446 0.0
C3125 C 0.88059 0.08789 0.53618 0.0
C3126 C 0.89054 0.10673 0.51733 0.0
C3127 C 0.8886 0.09435 0.56285 0.0
C3128 C 0.88773 0.06209 0.52934 0.0
C3129 C 0.86764 0.04718 0.52519 0.0
C3130 C 0.86978 0.02328 0.51623 0.0
C3131 C 0.89313 0.01413 0.51228 0.0
C3132 C 0.91379 0.02886 0.51751 0.0
C3133 C 0.91106 0.05307 0.52609 0.0
H3134 H 0.66525 0.05597 0.26587 0.0
H3135 H 0.59324 0.07369 0.23914 0.0
H3136 H 0.60941 0.11186 0.22016 0.0
H3137 H 0.68052 0.11686 0.28402 0.0
H3138 H 0.71208 0.11442 0.27591 0.0
H3139 H 0.69511 0.08744 0.28477 0.0
H3140 H 0.70701 0.06666 0.24326 0.0
H3141 H 0.72363 0.09386 0.23408 0.0
H3142 H 0.70001 0.08156 0.2142 0.0
H3143 H 0.63328 0.14852 0.20497 0.0
H3144 H 0.66141 0.18421 0.20125 0.0
H3145 H 0.71688 0.14386 0.2405 0.0
C3146 C 0.65299 0.06786 0.25585 0.0
C3147 C 0.62809 0.06199 0.25379 0.0
C3148 C 0.61239 0.07806 0.24098 0.0
C3149 C 0.62145 0.09958 0.22991 0.0
C3150 C 0.64618 0.10484 0.23213 0.0
C3151 C 0.66163 0.08969 0.24523 0.0
C3152 C 0.68685 0.1008 0.24721 0.0
C3153 C 0.69405 0.10515 0.2746 0.0
C3154 C 0.70547 0.08476 0.23389 0.0
C3155 C 0.68309 0.12473 0.23351 0.0
C3156 C 0.65969 0.12643 0.22434 0.0
C3157 C 0.65172 0.14732 0.21185 0.0
C3158 C 0.6678 0.16737 0.20959 0.0
C3159 C 0.69128 0.16635 0.22014 0.0
C3160 C 0.69916 0.14466 0.23174 0.0
H3161 H 0.66098 0.90096 0.03056 0.0
H3162 H 0.7157 0.9578 0.04229 0.0
H3163 H 0.68372 0.98922 0.04085 0.0
H3164 H 0.62987 0.93071 0.98558 0.0
H3165 H 0.59991 0.92055 0.99448 0.0
H3166 H 0.62574 0.90205 0.00187 0.0
H3167 H 0.61477 0.90254 0.04867 0.0
H3168 H 0.58834 0.92033 0.04136 0.0
H3169 H 0.61001 0.93146 0.06405 0.0
H3170 H 0.64654 0.01452 0.03219 0.0
H3171 H 0.6066 0.03158 0.0211 0.0
H3172 H 0.5772 0.95779 0.01243 0.0
C3173 C 0.6662 0.91993 0.03378 0.0
C3174 C 0.69082 0.92696 0.03665 0.0
C3175 C 0.69692 0.952 0.04039 0.0
C3176 C 0.67888 0.96997 0.0394 0.0
C3177 C 0.65496 0.96248 0.03481 0.0
C3178 C 0.64856 0.93799 0.03252 0.0
C3179 C 0.62211 0.93472 0.02536 0.0
C3180 C 0.61927 0.92122 0.00034 0.0
C3181 C 0.60797 0.92149 0.0461 0.0
C3182 C 0.61477 0.96124 0.02314 0.0
C3183 C 0.63384 0.97698 0.02896 0.0
C3184 C 0.63143 0.00236 0.02784 0.0
C3185 C 0.60875 0.01185 0.02132 0.0
C3186 C 0.58887 0.996 0.01567 0.0
C3187 C 0.59213 0.97038 0.01627 0.0
H3188 H 0.37228 0.40037 0.26948 0.0
H3189 H 0.31982 0.45616 0.25072 0.0
H3190 H 0.29398 0.42461 0.2301 0.0
H3191 H 0.36372 0.36322 0.21176 0.0
H3192 H 0.36768 0.33493 0.22858 0.0
H3193 H 0.38336 0.36244 0.23866 0.0
H3194 H 0.36466 0.35793 0.28269 0.0
H3195 H 0.34959 0.33024 0.27284 0.0
H3196 H 0.33219 0.35495 0.28568 0.0
H3197 H 0.27138 0.38606 0.21757 0.0
H3198 H 0.2532 0.34429 0.21775 0.0
H3199 H 0.32198 0.3147 0.24174 0.0
C3200 C 0.35542 0.40601 0.2609 0.0
C3201 C 0.34786 0.43057 0.26189 0.0
C3202 C 0.32585 0.43733 0.25021 0.0
C3203 C 0.31122 0.41961 0.23825 0.0
C3204 C 0.31924 0.39546 0.23761 0.0
C3205 C 0.34093 0.38874 0.24857 0.0
C3206 C 0.34462 0.36141 0.24742 0.0
C3207 C 0.36612 0.35514 0.23059 0.0
C3208 C 0.34793 0.35051 0.2737 0.0
C3209 C 0.32085 0.35352 0.23566 0.0
C3210 C 0.30662 0.37338 0.2295 0.0
C3211 C 0.28256 0.37037 0.22163 0.0
C3212 C 0.27241 0.34659 0.22157 0.0
C3213 C 0.28635 0.32649 0.22963 0.0
C3214 C 0.31116 0.32986 0.23513 0.0
H3215 H 0.1943 0.58851 0.00209 0.0
H3216 H 0.17541 0.62769 0.93446 0.0
H3217 H 0.13456 0.60846 0.93525 0.0
H3218 H 0.16168 0.53226 0.98825 0.0
H3219 H 0.15249 0.52764 0.02005 0.0
H3220 H 0.1804 0.54379 0.01336 0.0
H3221 H 0.16573 0.58079 0.03933 0.0
H3222 H 0.13762 0.5649 0.04579 0.0
H3223 H 0.13725 0.59487 0.03161 0.0
H3224 H 0.0958 0.58534 0.94379 0.0
H3225 H 0.06222 0.55887 0.9585 0.0
H3226 H 0.10631 0.53599 0.02134 0.0
C3227 C 0.18175 0.59284 0.9872 0.0
C3228 C 0.18811 0.60952 0.96811 0.0
C3229 C 0.17096 0.61492 0.94923 0.0
C3230 C 0.14771 0.60415 0.94956 0.0
C3231 C 0.14193 0.58819 0.96897 0.0
C3232 C 0.15848 0.58249 0.98738 0.0
C3233 C 0.14764 0.56517 0.00644 0.0
C3234 C 0.16137 0.54077 0.00704 0.0
C3235 C 0.14703 0.57716 0.03232 0.0
C3236 C 0.12238 0.56185 0.9958 0.0
C3237 C 0.11946 0.5753 0.97419 0.0
C3238 C 0.09786 0.57476 0.96069 0.0
C3239 C 0.07891 0.55968 0.96923 0.0
C3240 C 0.08165 0.54543 0.99111 0.0
C3241 C 0.10357 0.54689 0.00474 0.0
H3242 H 0.65165 0.90556 0.2721 0.0
H3243 H 0.68496 0.95014 0.21443 0.0
H3244 H 0.71485 0.91751 0.20696 0.0
H3245 H 0.70641 0.88291 0.29746 0.0
H3246 H 0.69436 0.85273 0.30415 0.0
H3247 H 0.67454 0.87874 0.30382 0.0
H3248 H 0.64687 0.8573 0.27101 0.0
H3249 H 0.66639 0.83105 0.27157 0.0
H3250 H 0.65997 0.84626 0.24254 0.0
H3251 H 0.74109 0.87994 0.20599 0.0
H3252 H 0.76159 0.84018 0.21138 0.0
H3253 H 0.71256 0.82158 0.27154 0.0
C3254 C 0.66498 0.90832 0.25761 0.0
C3255 C 0.66589 0.93027 0.24367 0.0
C3256 C 0.68389 0.93338 0.22522 0.0
C3257 C 0.70095 0.91499 0.22089 0.0
C3258 C 0.69986 0.89377 0.23536 0.0
C3259 C 0.68231 0.89034 0.25331 0.0
C3260 C 0.68552 0.86623 0.26686 0.0
C3261 C 0.69051 0.87042 0.29472 0.0
C3262 C 0.66338 0.8492 0.26274 0.0
C3263 C 0.7077 0.85663 0.2538 0.0
C3264 C 0.71558 0.87268 0.23555 0.0
C3265 C 0.73518 0.86732 0.22034 0.0
C3266 C 0.74674 0.84476 0.22358 0.0
C3267 C 0.73886 0.82803 0.24212 0.0
C3268 C 0.71932 0.83427 0.25762 0.0
H3269 H 0.88492 0.10783 0.75242 0.0
H3270 H 0.84298 0.05737 0.70629 0.0
H3271 H 0.81202 0.08907 0.70002 0.0
H3272 H 0.83834 0.13006 0.78468 0.0
H3273 H 0.84848 0.16159 0.78665 0.0
H3274 H 0.87025 0.13759 0.78311 0.0
H3275 H 0.88739 0.15818 0.74336 0.0
H3276 H 0.86622 0.18281 0.74719 0.0
H3277 H 0.86704 0.16604 0.71833 0.0
H3278 H 0.78245 0.12304 0.70517 0.0
H3279 H 0.75882 0.15954 0.71631 0.0
H3280 H 0.81995 0.18731 0.75979 0.0
C3281 C 0.86978 0.10381 0.74009 0.0
C3282 C 0.86632 0.08019 0.72983 0.0
C3283 C 0.84601 0.07542 0.71425 0.0
C3284 C 0.82828 0.09327 0.71065 0.0
C3285 C 0.83137 0.11581 0.72252 0.0
C3286 C 0.85191 0.12138 0.73641 0.0
C3287 C 0.8498 0.14604 0.74909 0.0
C3288 C 0.85183 0.14365 0.77756 0.0
C3289 C 0.86873 0.16435 0.73888 0.0
C3290 C 0.82443 0.15287 0.74116 0.0
C3291 C 0.81419 0.13536 0.72564 0.0
C3292 C 0.79044 0.13713 0.71692 0.0
C3293 C 0.77707 0.15779 0.7236 0.0
C3294 C 0.78749 0.17631 0.73897 0.0
C3295 C 0.81139 0.17352 0.74806 0.0
loop_
_geom_bond_atom_site_label_1
_geom_bond_atom_site_label_2
_geom_bond_distance
_geom_bond_site_symmetry_2
_ccdc_geom_bond_type
Co0 O1 2.212 1_455 S
Co0 O2 2.088 1_455 S
Co0 O4 2.008 . S
Co0 O10 2.021 . S
Co0 O12 2.137 1_455 S
Co0 O13 2.245 . S
O1 Co0 2.212 1_655 S
O1 C8 1.247 . S
O2 Co0 2.088 1_655 S
O2 C8 1.261 . S
C3 O12 1.247 1_455 S
C3 O13 1.272 . S
O4 Co0 2.008 . S
O4 C9 1.259 . S
Co5 O6 2.061 . S
Co5 O11 2.052 . S
Co5 O13 2.135 . S
O6 Co5 2.061 . S
O6 C9 1.235 . S
C7 O10 1.238 . S
C7 O11 1.241 . S
C8 O1 1.247 . S
C8 O2 1.261 . S
C9 O4 1.259 . S
C9 O6 1.235 . S
O10 Co0 2.021 . S
O10 C7 1.238 . S
O11 Co5 2.052 . S
O11 C7 1.241 . S
O12 Co0 2.137 1_655 S
O12 C3 1.247 1_655 S
O13 Co0 2.245 . S
O13 C3 1.272 . S
O13 Co5 2.135 . S
Co14 O15 2.216 . S
Co14 O16 2.091 . S
Co14 O18 2.004 1_455 S
Co14 O24 2.021 . S
Co14 O26 2.137 . S
Co14 O27 2.244 1_455 S
O15 Co14 2.216 . S
O15 C22 1.247 . S
O16 Co14 2.091 . S
O16 C22 1.261 . S
C17 O26 1.247 . S
C17 O27 1.272 1_455 S
O18 Co14 2.004 1_655 S
O18 C23 1.259 . S
Co19 O20 2.061 . S
Co19 O25 2.052 . S
Co19 O27 2.135 . S
O20 Co19 2.061 . S
O20 C23 1.235 . S
C21 O24 1.238 . S
C21 O25 1.241 1_455 S
C22 O15 1.247 . S
C22 O16 1.261 . S
C23 O18 1.259 . S
C23 O20 1.235 . S
O24 Co14 2.021 . S
O24 C21 1.238 . S
O25 Co19 2.052 . S
O25 C21 1.241 1_655 S
O26 Co14 2.137 . S
O26 C17 1.247 . S
O27 Co14 2.244 1_655 S
O27 C17 1.272 1_655 S
O27 Co19 2.135 . S
Co28 O29 2.216 . S
Co28 O30 2.091 . S
Co28 O32 2.004 . S
Co28 O38 2.021 . S
Co28 O40 2.137 . S
Co28 O41 2.244 . S
O29 Co28 2.216 . S
O29 C36 1.247 . S
O30 Co28 2.091 . S
O30 C36 1.261 . S
C31 O40 1.247 . S
C31 O41 1.272 . S
O32 Co28 2.004 . S
O32 C37 1.259 . S
Co33 O34 2.061 . S
Co33 O39 2.052 . S
Co33 O41 2.135 . S
O34 Co33 2.061 . S
O34 C37 1.235 . S
C35 O38 1.238 . S
C35 O39 1.241 . S
C36 O29 1.247 . S
C36 O30 1.261 . S
C37 O32 1.259 . S
C37 O34 1.235 . S
O38 Co28 2.021 . S
O38 C35 1.238 . S
O39 Co33 2.052 . S
O39 C35 1.241 . S
O40 Co28 2.137 . S
O40 C31 1.247 . S
O41 Co28 2.244 . S
O41 C31 1.272 . S
O41 Co33 2.135 . S
Co42 O43 2.216 . S
Co42 O44 2.091 . S
Co42 O46 2.004 . S
Co42 O52 2.021 . S
Co42 O54 2.137 . S
Co42 O55 2.244 . S
O43 Co42 2.216 . S
O43 C50 1.247 . S
O44 Co42 2.091 . S
O44 C50 1.261 . S
C45 O54 1.247 . S
C45 O55 1.272 . S
O46 Co42 2.004 . S
O46 C51 1.259 . S
Co47 O48 2.061 . S
Co47 O53 2.052 . S
Co47 O55 2.135 . S
O48 Co47 2.061 . S
O48 C51 1.235 . S
C49 O52 1.238 . S
C49 O53 1.241 . S
C50 O43 1.247 . S
C50 O44 1.261 . S
C51 O46 1.259 . S
C51 O48 1.235 . S
O52 Co42 2.021 . S
O52 C49 1.238 . S
O53 Co47 2.052 . S
O53 C49 1.241 . S
O54 Co42 2.137 . S
O54 C45 1.247 . S
O55 Co42 2.244 . S
O55 C45 1.272 . S
O55 Co47 2.135 . S
Co56 O57 2.216 1_545 S
Co56 O58 2.091 1_545 S
Co56 O60 2.004 . S
Co56 O66 2.021 . S
Co56 O68 2.137 . S
Co56 O69 2.244 . S
O57 Co56 2.216 1_565 S
O57 C64 1.247 . S
O58 Co56 2.091 1_565 S
O58 C64 1.261 . S
C59 O68 1.247 . S
C59 O69 1.272 . S
O60 Co56 2.004 . S
O60 C65 1.259 . S
Co61 O62 2.061 . S
Co61 O67 2.052 . S
Co61 O69 2.135 . S
O62 Co61 2.061 . S
O62 C65 1.235 . S
C63 O66 1.238 . S
C63 O67 1.241 . S
C64 O57 1.247 . S
C64 O58 1.261 . S
C65 O60 1.259 . S
C65 O62 1.235 . S
O66 Co56 2.021 . S
O66 C63 1.238 . S
O67 Co61 2.052 . S
O67 C63 1.241 . S
O68 Co56 2.137 . S
O68 C59 1.247 . S
O69 Co56 2.244 . S
O69 C59 1.272 . S
O69 Co61 2.135 . S
Co70 O71 2.216 . S
Co70 O72 2.091 . S
Co70 O74 2.004 . S
Co70 O80 2.021 . S
Co70 O82 2.137 . S
Co70 O83 2.244 . S
O71 Co70 2.216 . S
O71 C78 1.247 . S
O72 Co70 2.091 . S
O72 C78 1.261 . S
C73 O82 1.247 . S
C73 O83 1.272 . S
O74 Co70 2.004 . S
O74 C79 1.259 . S
Co75 O76 2.061 . S
Co75 O81 2.052 . S
Co75 O83 2.135 . S
O76 Co75 2.061 . S
O76 C79 1.235 . S
C77 O80 1.238 . S
C77 O81 1.241 . S
C78 O71 1.247 . S
C78 O72 1.261 . S
C79 O74 1.259 . S
C79 O76 1.235 . S
O80 Co70 2.021 . S
O80 C77 1.238 . S
O81 Co75 2.052 . S
O81 C77 1.241 . S
O82 Co70 2.137 . S
O82 C73 1.247 . S
O83 Co70 2.244 . S
O83 C73 1.272 . S
O83 Co75 2.135 . S
Co84 O85 2.216 . S
Co84 O86 2.091 . S
Co84 O88 2.004 1_545 S
Co84 O94 2.021 . S
Co84 O96 2.137 . S
Co84 O97 2.244 1_545 S
O85 Co84 2.216 . S
O85 C92 1.247 . S
O86 Co84 2.091 . S
O86 C92 1.261 . S
C87 O96 1.250 . S
C87 O97 1.269 1_545 S
O88 Co84 2.004 1_565 S
O88 C93 1.259 . S
Co89 O90 2.061 . S
Co89 O95 2.052 . S
Co89 O97 2.135 . S
O90 Co89 2.061 . S
O90 C93 1.235 . S
C91 O94 1.238 1_565 S
C91 O95 1.241 . S
C92 O85 1.247 . S
C92 O86 1.261 . S
C93 O88 1.259 . S
C93 O90 1.235 . S
O94 Co84 2.021 . S
O94 C91 1.238 1_545 S
O95 Co89 2.052 . S
O95 C91 1.241 . S
O96 Co84 2.137 . S
O96 C87 1.250 . S
O97 Co84 2.244 1_565 S
O97 C87 1.269 1_565 S
O97 Co89 2.135 . S
Co98 O99 2.216 . S
Co98 O100 2.091 . S
Co98 O102 2.004 . S
Co98 O108 2.021 . S
Co98 O110 2.137 1_554 S
Co98 O111 2.244 1_554 S
O99 Co98 2.216 . S
O99 C106 1.247 . S
O100 Co98 2.091 . S
O100 C106 1.261 . S
C101 O110 1.247 . S
C101 O111 1.272 . S
O102 Co98 2.004 . S
O102 C107 1.259 . S
Co103 O104 2.061 . S
Co103 O109 2.052 . S
Co103 O111 2.135 1_554 S
O104 Co103 2.061 . S
O104 C107 1.235 . S
C105 O108 1.238 . S
C105 O109 1.241 . S
C106 O99 1.247 . S
C106 O100 1.261 . S
C107 O102 1.259 . S
C107 O104 1.235 . S
O108 Co98 2.021 . S
O108 C105 1.238 . S
O109 Co103 2.052 . S
O109 C105 1.241 . S
O110 Co98 2.137 1_556 S
O110 C101 1.247 . S
O111 Co98 2.244 1_556 S
O111 C101 1.272 . S
O111 Co103 2.135 1_556 S
Co112 O113 2.216 . S
Co112 O114 2.091 . S
Co112 O116 2.004 . S
Co112 O122 2.021 . S
Co112 O124 2.137 1_554 S
Co112 O125 2.244 1_554 S
O113 Co112 2.216 . S
O113 C120 1.247 . S
O114 Co112 2.091 . S
O114 C120 1.261 . S
C115 O124 1.247 . S
C115 O125 1.272 . S
O116 Co112 2.004 . S
O116 C121 1.259 . S
Co117 O118 2.061 . S
Co117 O123 2.052 . S
Co117 O125 2.135 1_554 S
O118 Co117 2.061 . S
O118 C121 1.235 . S
C119 O122 1.238 . S
C119 O123 1.241 . S
C120 O113 1.247 . S
C120 O114 1.261 . S
C121 O116 1.259 . S
C121 O118 1.235 . S
O122 Co112 2.021 . S
O122 C119 1.238 . S
O123 Co117 2.052 . S
O123 C119 1.241 . S
O124 Co112 2.137 1_556 S
O124 C115 1.247 . S
O125 Co112 2.244 1_556 S
O125 C115 1.272 . S
O125 Co117 2.135 1_556 S
Co126 O127 2.216 . S
Co126 O128 2.091 . S
Co126 O130 2.004 . S
Co126 O136 2.021 . S
Co126 O138 2.137 . S
Co126 O139 2.244 . S
O127 Co126 2.216 . S
O127 C134 1.247 . S
O128 Co126 2.091 . S
O128 C134 1.261 . S
C129 O138 1.247 . S
C129 O139 1.272 . S
O130 Co126 2.004 . S
O130 C135 1.259 . S
Co131 O132 2.061 . S
Co131 O137 2.052 . S
Co131 O139 2.135 . S
O132 Co131 2.061 . S
O132 C135 1.235 . S
C133 O136 1.238 . S
C133 O137 1.241 . S
C134 O127 1.247 . S
C134 O128 1.261 . S
C135 O130 1.259 . S
C135 O132 1.235 . S
O136 Co126 2.021 . S
O136 C133 1.238 . S
O137 Co131 2.052 . S
O137 C133 1.241 . S
O138 Co126 2.137 . S
O138 C129 1.247 . S
O139 Co126 2.244 . S
O139 C129 1.272 . S
O139 Co131 2.135 . S
Co140 O141 2.216 . S
Co140 O142 2.091 . S
Co140 O144 2.004 . S
Co140 O150 2.021 . S
Co140 O152 2.137 . S
Co140 O153 2.244 . S
O141 Co140 2.216 . S
O141 C148 1.247 . S
O142 Co140 2.091 . S
O142 C148 1.261 . S
C143 O152 1.247 . S
C143 O153 1.272 . S
O144 Co140 2.004 . S
O144 C149 1.259 . S
Co145 O146 2.061 . S
Co145 O151 2.052 . S
Co145 O153 2.135 . S
O146 Co145 2.061 . S
O146 C149 1.235 . S
C147 O150 1.238 . S
C147 O151 1.241 . S
C148 O141 1.247 . S
C148 O142 1.261 . S
C149 O144 1.259 . S
C149 O146 1.235 . S
O150 Co140 2.021 . S
O150 C147 1.238 . S
O151 Co145 2.052 . S
O151 C147 1.241 . S
O152 Co140 2.137 . S
O152 C143 1.247 . S
O153 Co140 2.244 . S
O153 C143 1.272 . S
O153 Co145 2.135 . S
Co154 O155 2.216 . S
Co154 O156 2.091 . S
Co154 O158 2.004 . S
Co154 O164 2.021 . S
Co154 O166 2.137 . S
Co154 O167 2.244 . S
O155 Co154 2.216 . S
O155 C162 1.247 . S
O156 Co154 2.091 . S
O156 C162 1.261 . S
C157 O166 1.247 . S
C157 O167 1.272 . S
O158 Co154 2.004 . S
O158 C163 1.259 . S
Co159 O160 2.061 . S
Co159 O165 2.052 . S
Co159 O167 2.135 . S
O160 Co159 2.061 . S
O160 C163 1.235 . S
C161 O164 1.238 . S
C161 O165 1.241 . S
C162 O155 1.247 . S
C162 O156 1.261 . S
C163 O158 1.259 . S
C163 O160 1.235 . S
O164 Co154 2.021 . S
O164 C161 1.238 . S
O165 Co159 2.052 . S
O165 C161 1.241 . S
O166 Co154 2.137 . S
O166 C157 1.247 . S
O167 Co154 2.244 . S
O167 C157 1.272 . S
O167 Co159 2.135 . S
Co168 O169 2.216 . S
Co168 O170 2.091 . S
Co168 O172 2.004 1_455 S
Co168 O178 2.021 . S
Co168 O180 2.137 . S
Co168 O181 2.244 1_455 S
O169 Co168 2.216 . S
O169 C176 1.247 . S
O170 Co168 2.091 . S
O170 C176 1.261 . S
C171 O180 1.247 . S
C171 O181 1.272 1_455 S
O172 Co168 2.004 1_655 S
O172 C177 1.259 . S
Co173 O174 2.061 . S
Co173 O179 2.052 . S
Co173 O181 2.135 . S
O174 Co173 2.061 . S
O174 C177 1.235 . S
C175 O178 1.249 . S
C175 O179 1.222 1_455 S
C176 O169 1.247 . S
C176 O170 1.261 . S
C177 O172 1.259 . S
C177 O174 1.235 . S
O178 Co168 2.021 . S
O178 C175 1.249 . S
O179 Co173 2.052 . S
O179 C175 1.222 1_655 S
O180 Co168 2.137 . S
O180 C171 1.247 . S
O181 Co168 2.244 1_655 S
O181 C171 1.272 1_655 S
O181 Co173 2.135 . S
Co182 O183 2.174 1_455 S
Co182 O184 2.064 1_455 S
Co182 O186 2.042 . S
Co182 O192 2.024 . S
Co182 O194 2.135 1_455 S
Co182 O195 2.257 . S
O183 Co182 2.174 1_655 S
O183 C190 1.247 . S
O184 Co182 2.064 1_655 S
O184 C190 1.261 . S
C185 O194 1.247 1_455 S
C185 O195 1.272 . S
O186 Co182 2.042 . S
O186 C191 1.259 . S
Co187 O188 2.061 . S
Co187 O193 2.052 . S
Co187 O195 2.135 . S
O188 Co187 2.061 . S
O188 C191 1.235 . S
C189 O192 1.238 . S
C189 O193 1.241 . S
C190 O183 1.247 . S
C190 O184 1.261 . S
C191 O186 1.259 . S
C191 O188 1.235 . S
O192 Co182 2.024 . S
O192 C189 1.238 . S
O193 Co187 2.052 . S
O193 C189 1.241 . S
O194 Co182 2.135 1_655 S
O194 C185 1.247 1_655 S
O195 Co182 2.257 . S
O195 C185 1.272 . S
O195 Co187 2.135 . S
Co196 O197 2.216 . S
Co196 O198 2.091 . S
Co196 O200 2.004 . S
Co196 O206 2.021 . S
Co196 O208 2.137 . S
Co196 O209 2.244 . S
O197 Co196 2.216 . S
O197 C204 1.247 . S
O198 Co196 2.091 . S
O198 C204 1.261 . S
C199 O208 1.247 . S
C199 O209 1.272 . S
O200 Co196 2.004 . S
O200 C205 1.259 . S
Co201 O202 2.061 . S
Co201 O207 2.052 . S
Co201 O209 2.135 . S
O202 Co201 2.061 . S
O202 C205 1.235 . S
C203 O206 1.238 . S
C203 O207 1.241 . S
C204 O197 1.247 . S
C204 O198 1.261 . S
C205 O200 1.259 . S
C205 O202 1.235 . S
O206 Co196 2.021 . S
O206 C203 1.238 . S
O207 Co201 2.052 . S
O207 C203 1.241 . S
O208 Co196 2.137 . S
O208 C199 1.247 . S
O209 Co196 2.244 . S
O209 C199 1.272 . S
O209 Co201 2.135 . S
Co210 O211 2.216 . S
Co210 O212 2.091 . S
Co210 O214 2.004 . S
Co210 O220 2.021 . S
Co210 O222 2.137 . S
Co210 O223 2.244 . S
O211 Co210 2.216 . S
O211 C218 1.247 . S
O212 Co210 2.091 . S
O212 C218 1.261 . S
C213 O222 1.247 . S
C213 O223 1.272 . S
O214 Co210 2.004 . S
O214 C219 1.259 . S
Co215 O216 2.061 . S
Co215 O221 2.052 . S
Co215 O223 2.135 . S
O216 Co215 2.061 . S
O216 C219 1.235 . S
C217 O220 1.238 . S
C217 O221 1.241 . S
C218 O211 1.247 . S
C218 O212 1.261 . S
C219 O214 1.259 . S
C219 O216 1.235 . S
O220 Co210 2.021 . S
O220 C217 1.238 . S
O221 Co215 2.052 . S
O221 C217 1.241 . S
O222 Co210 2.137 . S
O222 C213 1.247 . S
O223 Co210 2.244 . S
O223 C213 1.272 . S
O223 Co215 2.135 . S
Co224 O225 2.216 . S
Co224 O226 2.091 . S
Co224 O228 2.004 1_545 S
Co224 O234 2.021 . S
Co224 O236 2.137 . S
Co224 O237 2.244 . S
O225 Co224 2.216 . S
O225 C232 1.247 . S
O226 Co224 2.091 . S
O226 C232 1.261 . S
C227 O236 1.247 . S
C227 O237 1.272 . S
O228 Co224 2.004 1_565 S
O228 C233 1.259 . S
Co229 O230 2.061 . S
Co229 O235 2.052 1_565 S
Co229 O237 2.135 1_565 S
O230 Co229 2.061 . S
O230 C233 1.235 . S
C231 O234 1.238 . S
C231 O235 1.241 . S
C232 O225 1.247 . S
C232 O226 1.261 . S
C233 O228 1.259 . S
C233 O230 1.235 . S
O234 Co224 2.021 . S
O234 C231 1.238 . S
O235 Co229 2.052 1_545 S
O235 C231 1.241 . S
O236 Co224 2.137 . S
O236 C227 1.247 . S
O237 Co224 2.244 . S
O237 C227 1.272 . S
O237 Co229 2.135 1_545 S
Co238 O239 2.216 . S
Co238 O240 2.091 . S
Co238 O242 2.004 . S
Co238 O248 2.021 . S
Co238 O250 2.137 . S
Co238 O251 2.244 . S
O239 Co238 2.216 . S
O239 C246 1.247 . S
O240 Co238 2.091 . S
O240 C246 1.261 . S
C241 O250 1.247 . S
C241 O251 1.272 . S
O242 Co238 2.004 . S
O242 C247 1.259 . S
Co243 O244 2.061 . S
Co243 O249 2.052 . S
Co243 O251 2.135 . S
O244 Co243 2.061 . S
O244 C247 1.235 . S
C245 O248 1.238 . S
C245 O249 1.241 . S
C246 O239 1.247 . S
C246 O240 1.261 . S
C247 O242 1.259 . S
C247 O244 1.235 . S
O248 Co238 2.021 . S
O248 C245 1.238 . S
O249 Co243 2.052 . S
O249 C245 1.241 . S
O250 Co238 2.137 . S
O250 C241 1.247 . S
O251 Co238 2.244 . S
O251 C241 1.272 . S
O251 Co243 2.135 . S
Co252 O253 2.216 . S
Co252 O254 2.091 . S
Co252 O256 2.004 1_565 S
Co252 O262 2.021 . S
Co252 O264 2.137 . S
Co252 O265 2.244 1_565 S
O253 Co252 2.216 . S
O253 C260 1.247 . S
O254 Co252 2.091 . S
O254 C260 1.261 . S
C255 O264 1.247 1_545 S
C255 O265 1.272 . S
O256 Co252 2.004 1_545 S
O256 C261 1.259 . S
Co257 O258 2.061 . S
Co257 O263 2.052 . S
Co257 O265 2.135 . S
O258 Co257 2.061 . S
O258 C261 1.235 . S
C259 O262 1.238 1_545 S
C259 O263 1.241 . S
C260 O253 1.247 . S
C260 O254 1.261 . S
C261 O256 1.259 . S
C261 O258 1.235 . S
O262 Co252 2.021 . S
O262 C259 1.238 1_565 S
O263 Co257 2.052 . S
O263 C259 1.241 . S
O264 Co252 2.137 . S
O264 C255 1.247 1_565 S
O265 Co252 2.244 1_545 S
O265 C255 1.272 . S
O265 Co257 2.135 . S
Co266 O267 2.215 1_556 S
Co266 O268 2.087 1_556 S
Co266 O270 2.004 . S
Co266 O276 1.986 1_556 S
Co266 O278 2.174 . S
Co266 O279 2.261 . S
O267 Co266 2.215 1_554 S
O267 C274 1.248 . S
O268 Co266 2.087 1_554 S
O268 C274 1.261 . S
C269 O278 1.247 . S
C269 O279 1.272 . S
O270 Co266 2.004 . S
O270 C275 1.254 1_556 S
Co271 O272 2.061 . S
Co271 O277 2.052 . S
Co271 O279 2.135 1_554 S
O272 Co271 2.061 . S
O272 C275 1.235 . S
C273 O276 1.238 . S
C273 O277 1.241 . S
C274 O267 1.248 . S
C274 O268 1.261 . S
C275 O270 1.254 1_554 S
C275 O272 1.235 . S
O276 Co266 1.986 1_554 S
O276 C273 1.238 . S
O277 Co271 2.052 . S
O277 C273 1.241 . S
O278 Co266 2.174 . S
O278 C269 1.247 . S
O279 Co266 2.261 . S
O279 C269 1.272 . S
O279 Co271 2.135 1_556 S
Co280 O281 2.216 . S
Co280 O282 2.091 1_556 S
Co280 O284 2.004 . S
Co280 O290 2.021 1_556 S
Co280 O292 2.137 . S
Co280 O293 2.244 . S
O281 Co280 2.216 . S
O281 C288 1.246 1_556 S
O282 Co280 2.091 1_554 S
O282 C288 1.261 . S
C283 O292 1.247 . S
C283 O293 1.272 . S
O284 Co280 2.004 . S
O284 C289 1.259 1_556 S
Co285 O286 2.061 . S
Co285 O291 2.052 . S
Co285 O293 2.135 1_554 S
O286 Co285 2.061 . S
O286 C289 1.235 . S
C287 O290 1.238 . S
C287 O291 1.241 . S
C288 O281 1.246 1_554 S
C288 O282 1.261 . S
C289 O284 1.259 1_554 S
C289 O286 1.235 . S
O290 Co280 2.021 1_554 S
O290 C287 1.238 . S
O291 Co285 2.052 . S
O291 C287 1.241 . S
O292 Co280 2.137 . S
O292 C283 1.247 . S
O293 Co280 2.244 . S
O293 C283 1.272 . S
O293 Co285 2.135 1_556 S
Co294 O295 2.216 . S
Co294 O296 2.091 . S
Co294 O298 2.004 . S
Co294 O304 2.021 . S
Co294 O306 2.137 . S
Co294 O307 2.244 . S
O295 Co294 2.216 . S
O295 C302 1.247 . S
O296 Co294 2.091 . S
O296 C302 1.261 . S
C297 O306 1.247 . S
C297 O307 1.272 . S
O298 Co294 2.004 . S
O298 C303 1.259 . S
Co299 O300 2.061 . S
Co299 O305 2.052 . S
Co299 O307 2.135 . S
O300 Co299 2.061 . S
O300 C303 1.235 . S
C301 O304 1.238 . S
C301 O305 1.241 . S
C302 O295 1.247 . S
C302 O296 1.261 . S
C303 O298 1.259 . S
C303 O300 1.235 . S
O304 Co294 2.021 . S
O304 C301 1.238 . S
O305 Co299 2.052 . S
O305 C301 1.241 . S
O306 Co294 2.137 . S
O306 C297 1.247 . S
O307 Co294 2.244 . S
O307 C297 1.272 . S
O307 Co299 2.135 . S
Co308 O309 2.216 . S
Co308 O310 2.091 . S
Co308 O312 2.004 . S
Co308 O318 2.021 . S
Co308 O320 2.137 . S
Co308 O321 2.244 . S
O309 Co308 2.216 . S
O309 C316 1.247 . S
O310 Co308 2.091 . S
O310 C316 1.261 . S
C311 O320 1.247 . S
C311 O321 1.272 . S
O312 Co308 2.004 . S
O312 C317 1.259 . S
Co313 O314 2.061 . S
Co313 O319 2.052 . S
Co313 O321 2.135 . S
O314 Co313 2.061 . S
O314 C317 1.235 . S
C315 O318 1.238 . S
C315 O319 1.241 . S
C316 O309 1.247 . S
C316 O310 1.261 . S
C317 O312 1.259 . S
C317 O314 1.235 . S
O318 Co308 2.021 . S
O318 C315 1.238 . S
O319 Co313 2.052 . S
O319 C315 1.241 . S
O320 Co308 2.137 . S
O320 C311 1.247 . S
O321 Co308 2.244 . S
O321 C311 1.272 . S
O321 Co313 2.135 . S
Co322 O323 2.216 . S
Co322 O324 2.091 . S
Co322 O326 2.004 . S
Co322 O332 2.021 . S
Co322 O334 2.137 . S
Co322 O335 2.244 . S
O323 Co322 2.216 . S
O323 C330 1.247 . S
O324 Co322 2.091 . S
O324 C330 1.261 . S
C325 O334 1.247 . S
C325 O335 1.272 . S
O326 Co322 2.004 . S
O326 C331 1.259 . S
Co327 O328 2.061 . S
Co327 O333 2.052 . S
Co327 O335 2.135 . S
O328 Co327 2.061 . S
O328 C331 1.235 . S
C329 O332 1.238 . S
C329 O333 1.241 . S
C330 O323 1.247 . S
C330 O324 1.261 . S
C331 O326 1.259 . S
C331 O328 1.235 . S
O332 Co322 2.021 . S
O332 C329 1.238 . S
O333 Co327 2.052 . S
O333 C329 1.241 . S
O334 Co322 2.137 . S
O334 C325 1.247 . S
O335 Co322 2.244 . S
O335 C325 1.272 . S
O335 Co327 2.135 . S
O336 Zn337 1.953 . S
O336 C352 1.225 1_455 S
Zn337 O336 1.953 . S
Zn337 O338 1.953 . S
Zn337 O344 1.919 1_554 S
Zn337 O349 1.924 1_454 S
O338 Zn337 1.953 . S
O338 Zn339 1.934 1_545 S
O338 Zn340 1.941 1_455 S
O338 Zn341 1.938 1_444 S
Zn339 O338 1.934 1_565 S
Zn339 O342 1.933 . S
Zn339 O345 1.941 1_565 S
Zn339 O346 1.965 . S
Zn340 O338 1.941 1_655 S
Zn340 O347 1.938 . S
Zn340 O348 1.906 1_545 S
Zn340 O358 1.953 . S
Zn341 O338 1.938 1_666 S
Zn341 O343 1.932 . S
Zn341 O350 1.977 1_556 S
Zn341 O351 1.910 1_565 S
O342 Zn339 1.933 . S
O342 C353 1.226 1_554 S
O343 Zn341 1.932 . S
O343 C353 1.307 1_655 S
O344 Zn337 1.919 1_556 S
O344 C355 1.253 1_556 S
O345 Zn339 1.941 1_545 S
O345 C355 1.283 . S
O346 Zn339 1.965 . S
O346 C354 1.302 1_565 S
O347 Zn340 1.938 . S
O347 C354 1.248 1_655 S
O348 Zn340 1.906 1_565 S
O348 C356 1.304 . S
O349 Zn337 1.924 1_656 S
O349 C357 1.311 . S
O350 Zn341 1.977 1_554 S
O350 C356 1.272 . S
O351 Zn341 1.910 1_545 S
O351 C357 1.231 . S
C352 O336 1.225 1_655 S
C352 O358 1.298 . S
C353 O342 1.226 1_556 S
C353 O343 1.307 1_455 S
C354 O346 1.302 1_545 S
C354 O347 1.248 1_455 S
C355 O344 1.253 1_554 S
C355 O345 1.283 . S
C356 O348 1.304 . S
C356 O350 1.272 . S
C357 O349 1.311 . S
C357 O351 1.231 . S
O358 Zn340 1.953 . S
O358 C352 1.298 . S
O359 Zn360 1.953 . S
O359 C375 1.225 . S
Zn360 O359 1.953 . S
Zn360 O361 1.949 . S
Zn360 O367 1.919 . S
Zn360 O372 1.924 . S
O361 Zn360 1.949 . S
O361 Zn362 1.923 . S
O361 Zn363 1.950 . S
O361 Zn364 1.945 . S
Zn362 O361 1.923 . S
Zn362 O365 1.933 . S
Zn362 O368 1.941 . S
Zn362 O369 1.965 . S
Zn363 O361 1.950 . S
Zn363 O370 1.938 . S
Zn363 O371 1.906 . S
Zn363 O381 1.953 . S
Zn364 O361 1.945 . S
Zn364 O366 1.932 . S
Zn364 O373 1.977 . S
Zn364 O374 1.910 . S
O365 Zn362 1.933 . S
O365 C376 1.226 . S
O366 Zn364 1.932 . S
O366 C376 1.307 . S
O367 Zn360 1.919 . S
O367 C378 1.253 . S
O368 Zn362 1.941 . S
O368 C378 1.283 . S
O369 Zn362 1.965 . S
O369 C377 1.303 . S
O370 Zn363 1.938 . S
O370 C377 1.247 . S
O371 Zn363 1.906 . S
O371 C379 1.304 . S
O372 Zn360 1.924 . S
O372 C380 1.311 . S
O373 Zn364 1.977 . S
O373 C379 1.272 . S
O374 Zn364 1.910 . S
O374 C380 1.231 . S
C375 O359 1.225 . S
C375 O381 1.298 . S
C376 O365 1.226 . S
C376 O366 1.307 . S
C377 O369 1.303 . S
C377 O370 1.247 . S
C378 O367 1.253 . S
C378 O368 1.283 . S
C379 O371 1.304 . S
C379 O373 1.272 . S
C380 O372 1.311 . S
C380 O374 1.231 . S
O381 Zn363 1.953 . S
O381 C375 1.298 . S
O382 Zn383 1.953 . S
O382 C398 1.225 . S
Zn383 O382 1.953 . S
Zn383 O384 1.949 1_565 S
Zn383 O390 1.919 . S
Zn383 O395 1.924 . S
O384 Zn383 1.949 1_545 S
O384 Zn385 1.923 . S
O384 Zn386 1.950 . S
O384 Zn387 1.945 . S
Zn385 O384 1.923 . S
Zn385 O388 1.933 . S
Zn385 O391 1.941 . S
Zn385 O392 1.965 . S
Zn386 O384 1.950 . S
Zn386 O393 1.938 . S
Zn386 O394 1.906 . S
Zn386 O404 1.953 1_545 S
Zn387 O384 1.945 . S
Zn387 O389 1.932 . S
Zn387 O396 1.977 . S
Zn387 O397 1.910 . S
O388 Zn385 1.933 . S
O388 C399 1.226 . S
O389 Zn387 1.932 . S
O389 C399 1.307 . S
O390 Zn383 1.919 . S
O390 C401 1.253 . S
O391 Zn385 1.941 . S
O391 C401 1.283 1_545 S
O392 Zn385 1.965 . S
O392 C400 1.303 . S
O393 Zn386 1.938 . S
O393 C400 1.247 . S
O394 Zn386 1.906 . S
O394 C402 1.304 . S
O395 Zn383 1.924 . S
O395 C403 1.311 . S
O396 Zn387 1.977 . S
O396 C402 1.272 . S
O397 Zn387 1.910 . S
O397 C403 1.231 1_545 S
C398 O382 1.225 . S
C398 O404 1.298 . S
C399 O388 1.226 . S
C399 O389 1.307 . S
C400 O392 1.303 . S
C400 O393 1.247 . S
C401 O390 1.253 . S
C401 O391 1.283 1_565 S
C402 O394 1.304 . S
C402 O396 1.272 . S
C403 O395 1.311 . S
C403 O397 1.231 1_565 S
O404 Zn386 1.953 1_565 S
O404 C398 1.298 . S
O405 Zn406 1.953 . S
O405 C421 1.225 . S
Zn406 O405 1.953 . S
Zn406 O407 1.949 . S
Zn406 O413 1.919 . S
Zn406 O418 1.924 . S
O407 Zn406 1.949 . S
O407 Zn408 1.923 . S
O407 Zn409 1.950 . S
O407 Zn410 1.945 . S
Zn408 O407 1.923 . S
Zn408 O411 1.933 . S
Zn408 O414 1.941 . S
Zn408 O415 1.965 . S
Zn409 O407 1.950 . S
Zn409 O416 1.938 . S
Zn409 O417 1.906 . S
Zn409 O427 1.953 . S
Zn410 O407 1.945 . S
Zn410 O412 1.932 . S
Zn410 O419 1.977 . S
Zn410 O420 1.910 . S
O411 Zn408 1.933 . S
O411 C422 1.226 . S
O412 Zn410 1.932 . S
O412 C422 1.307 . S
O413 Zn406 1.919 . S
O413 C424 1.253 . S
O414 Zn408 1.941 . S
O414 C424 1.283 . S
O415 Zn408 1.965 . S
O415 C423 1.303 . S
O416 Zn409 1.938 . S
O416 C423 1.247 . S
O417 Zn409 1.906 . S
O417 C425 1.304 . S
O418 Zn406 1.924 . S
O418 C426 1.311 . S
O419 Zn410 1.977 . S
O419 C425 1.272 . S
O420 Zn410 1.910 . S
O420 C426 1.231 . S
C421 O405 1.225 . S
C421 O427 1.298 . S
C422 O411 1.226 . S
C422 O412 1.307 . S
C423 O415 1.303 . S
C423 O416 1.247 . S
C424 O413 1.253 . S
C424 O414 1.283 . S
C425 O417 1.304 . S
C425 O419 1.272 . S
C426 O418 1.311 . S
C426 O420 1.231 . S
O427 Zn409 1.953 . S
O427 C421 1.298 . S
O428 Zn429 1.953 1_455 S
O428 C444 1.225 . S
Zn429 O428 1.953 1_655 S
Zn429 O430 1.949 1_655 S
Zn429 O436 1.919 1_545 S
Zn429 O441 1.924 . S
O430 Zn429 1.949 1_455 S
O430 Zn431 1.923 1_545 S
O430 Zn432 1.950 . S
O430 Zn433 1.945 1_455 S
Zn431 O430 1.923 1_565 S
Zn431 O434 1.933 . S
Zn431 O437 1.941 . S
Zn431 O438 1.965 . S
Zn432 O430 1.950 . S
Zn432 O439 1.938 . S
Zn432 O440 1.906 . S
Zn432 O450 1.953 . S
Zn433 O430 1.945 1_655 S
Zn433 O435 1.932 . S
Zn433 O442 1.977 . S
Zn433 O443 1.910 . S
O434 Zn431 1.933 . S
O434 C445 1.226 1_455 S
O435 Zn433 1.932 . S
O435 C445 1.307 1_545 S
O436 Zn429 1.919 1_565 S
O436 C447 1.253 . S
O437 Zn431 1.941 . S
O437 C447 1.283 1_455 S
O438 Zn431 1.965 . S
O438 C446 1.303 . S
O439 Zn432 1.938 . S
O439 C446 1.247 1_545 S
O440 Zn432 1.906 . S
O440 C448 1.304 . S
O441 Zn429 1.924 . S
O441 C449 1.311 . S
O442 Zn433 1.977 . S
O442 C448 1.272 1_655 S
O443 Zn433 1.910 . S
O443 C449 1.231 . S
C444 O428 1.225 . S
C444 O450 1.298 . S
C445 O434 1.226 1_655 S
C445 O435 1.307 1_565 S
C446 O438 1.303 . S
C446 O439 1.247 1_565 S
C447 O436 1.253 . S
C447 O437 1.283 1_655 S
C448 O440 1.304 . S
C448 O442 1.272 1_455 S
C449 O441 1.311 . S
C449 O443 1.231 . S
O450 Zn432 1.953 . S
O450 C444 1.298 . S
O451 Zn452 1.953 . S
O451 C467 1.225 . S
Zn452 O451 1.953 . S
Zn452 O453 1.949 . S
Zn452 O459 1.919 . S
Zn452 O464 1.924 . S
O453 Zn452 1.949 . S
O453 Zn454 1.923 . S
O453 Zn455 1.950 . S
O453 Zn456 1.945 . S
Zn454 O453 1.923 . S
Zn454 O457 1.933 . S
Zn454 O460 1.941 . S
Zn454 O461 1.965 . S
Zn455 O453 1.950 . S
Zn455 O462 1.938 . S
Zn455 O463 1.906 . S
Zn455 O473 1.953 . S
Zn456 O453 1.945 . S
Zn456 O458 1.932 . S
Zn456 O465 1.977 . S
Zn456 O466 1.910 . S
O457 Zn454 1.933 . S
O457 C468 1.226 . S
O458 Zn456 1.932 . S
O458 C468 1.307 . S
O459 Zn452 1.919 . S
O459 C470 1.253 . S
O460 Zn454 1.941 . S
O460 C470 1.283 . S
O461 Zn454 1.965 . S
O461 C469 1.303 . S
O462 Zn455 1.938 . S
O462 C469 1.247 . S
O463 Zn455 1.906 . S
O463 C471 1.304 . S
O464 Zn452 1.924 . S
O464 C472 1.311 . S
O465 Zn456 1.977 . S
O465 C471 1.272 . S
O466 Zn456 1.910 . S
O466 C472 1.231 . S
C467 O451 1.225 . S
C467 O473 1.298 . S
C468 O457 1.226 . S
C468 O458 1.307 . S
C469 O461 1.303 . S
C469 O462 1.247 . S
C470 O459 1.253 . S
C470 O460 1.283 . S
C471 O463 1.304 . S
C471 O465 1.272 . S
C472 O464 1.311 . S
C472 O466 1.231 . S
O473 Zn455 1.953 . S
O473 C467 1.298 . S
O474 Zn475 1.953 . S
O474 C490 1.225 . S
Zn475 O474 1.953 . S
Zn475 O476 1.949 . S
Zn475 O482 1.919 1_545 S
Zn475 O487 1.924 . S
O476 Zn475 1.949 . S
O476 Zn477 1.932 1_545 S
O476 Zn478 1.950 . S
O476 Zn479 1.945 1_554 S
Zn477 O476 1.932 1_565 S
Zn477 O480 1.915 1_554 S
Zn477 O483 1.939 1_554 S
Zn477 O484 1.978 . S
Zn478 O476 1.950 . S
Zn478 O485 1.938 1_545 S
Zn478 O486 1.906 . S
Zn478 O496 1.953 . S
Zn479 O476 1.945 1_556 S
Zn479 O481 1.932 . S
Zn479 O488 1.977 1_556 S
Zn479 O489 1.910 . S
O480 Zn477 1.915 1_556 S
O480 C491 1.226 . S
O481 Zn479 1.932 . S
O481 C491 1.307 1_545 S
O482 Zn475 1.919 1_565 S
O482 C493 1.253 1_554 S
O483 Zn477 1.939 1_556 S
O483 C493 1.283 . S
O484 Zn477 1.978 . S
O484 C492 1.303 . S
O485 Zn478 1.938 1_565 S
O485 C492 1.247 . S
O486 Zn478 1.906 . S
O486 C494 1.304 . S
O487 Zn475 1.924 . S
O487 C495 1.311 . S
O488 Zn479 1.977 1_554 S
O488 C494 1.272 . S
O489 Zn479 1.910 . S
O489 C495 1.231 1_556 S
C490 O474 1.225 . S
C490 O496 1.298 . S
C491 O480 1.226 . S
C491 O481 1.307 1_565 S
C492 O484 1.303 . S
C492 O485 1.247 . S
C493 O482 1.253 1_556 S
C493 O483 1.283 . S
C494 O486 1.304 . S
C494 O488 1.272 . S
C495 O487 1.311 . S
C495 O489 1.231 1_554 S
O496 Zn478 1.953 . S
O496 C490 1.298 . S
O497 Zn498 1.953 . S
O497 C513 1.225 . S
Zn498 O497 1.953 . S
Zn498 O499 1.949 . S
Zn498 O505 1.919 . S
Zn498 O510 1.924 . S
O499 Zn498 1.949 . S
O499 Zn500 1.923 . S
O499 Zn501 1.950 . S
O499 Zn502 1.945 . S
Zn500 O499 1.923 . S
Zn500 O503 1.933 . S
Zn500 O506 1.941 . S
Zn500 O507 1.965 . S
Zn501 O499 1.950 . S
Zn501 O508 1.938 . S
Zn501 O509 1.906 . S
Zn501 O519 1.953 . S
Zn502 O499 1.945 . S
Zn502 O504 1.932 . S
Zn502 O511 1.977 . S
Zn502 O512 1.910 . S
O503 Zn500 1.933 . S
O503 C514 1.226 . S
O504 Zn502 1.932 . S
O504 C514 1.307 . S
O505 Zn498 1.919 . S
O505 C516 1.253 . S
O506 Zn500 1.941 . S
O506 C516 1.283 . S
O507 Zn500 1.965 . S
O507 C515 1.303 . S
O508 Zn501 1.938 . S
O508 C515 1.247 . S
O509 Zn501 1.906 . S
O509 C517 1.304 . S
O510 Zn498 1.924 . S
O510 C518 1.311 . S
O511 Zn502 1.977 . S
O511 C517 1.272 . S
O512 Zn502 1.910 . S
O512 C518 1.231 . S
C513 O497 1.225 . S
C513 O519 1.298 . S
C514 O503 1.226 . S
C514 O504 1.307 . S
C515 O507 1.303 . S
C515 O508 1.247 . S
C516 O505 1.253 . S
C516 O506 1.283 . S
C517 O509 1.304 . S
C517 O511 1.272 . S
C518 O510 1.311 . S
C518 O512 1.231 . S
O519 Zn501 1.953 . S
O519 C513 1.298 . S
O520 Zn521 1.953 . S
O520 C536 1.225 . S
Zn521 O520 1.953 . S
Zn521 O522 1.949 1_556 S
Zn521 O528 1.919 . S
Zn521 O533 1.924 . S
O522 Zn521 1.949 1_554 S
O522 Zn523 1.923 . S
O522 Zn524 1.950 . S
O522 Zn525 1.945 . S
Zn523 O522 1.923 . S
Zn523 O526 1.933 . S
Zn523 O529 1.941 . S
Zn523 O530 1.965 . S
Zn524 O522 1.950 . S
Zn524 O531 1.938 . S
Zn524 O532 1.906 . S
Zn524 O542 1.953 1_554 S
Zn525 O522 1.945 . S
Zn525 O527 1.932 . S
Zn525 O534 1.977 . S
Zn525 O535 1.910 . S
O526 Zn523 1.933 . S
O526 C537 1.226 . S
O527 Zn525 1.932 . S
O527 C537 1.307 . S
O528 Zn521 1.919 . S
O528 C539 1.253 1_556 S
O529 Zn523 1.941 . S
O529 C539 1.283 . S
O530 Zn523 1.965 . S
O530 C538 1.303 . S
O531 Zn524 1.938 . S
O531 C538 1.247 . S
O532 Zn524 1.906 . S
O532 C540 1.304 . S
O533 Zn521 1.924 . S
O533 C541 1.311 . S
O534 Zn525 1.977 . S
O534 C540 1.272 . S
O535 Zn525 1.910 . S
O535 C541 1.231 1_554 S
C536 O520 1.225 . S
C536 O542 1.298 . S
C537 O526 1.226 . S
C537 O527 1.307 . S
C538 O530 1.303 . S
C538 O531 1.247 . S
C539 O528 1.253 1_554 S
C539 O529 1.283 . S
C540 O532 1.304 . S
C540 O534 1.272 . S
C541 O533 1.311 . S
C541 O535 1.231 1_556 S
O542 Zn524 1.953 1_556 S
O542 C536 1.298 . S
O543 Zn544 1.953 . S
O543 C559 1.225 . S
Zn544 O543 1.953 . S
Zn544 O545 1.949 . S
Zn544 O551 1.919 . S
Zn544 O556 1.924 . S
O545 Zn544 1.949 . S
O545 Zn546 1.923 . S
O545 Zn547 1.950 . S
O545 Zn548 1.945 . S
Zn546 O545 1.923 . S
Zn546 O549 1.933 . S
Zn546 O552 1.941 . S
Zn546 O553 1.965 . S
Zn547 O545 1.950 . S
Zn547 O554 1.938 . S
Zn547 O555 1.906 . S
Zn547 O565 1.953 . S
Zn548 O545 1.945 . S
Zn548 O550 1.932 . S
Zn548 O557 1.977 . S
Zn548 O558 1.910 . S
O549 Zn546 1.933 . S
O549 C560 1.226 . S
O550 Zn548 1.932 . S
O550 C560 1.307 . S
O551 Zn544 1.919 . S
O551 C562 1.253 . S
O552 Zn546 1.941 . S
O552 C562 1.283 . S
O553 Zn546 1.965 . S
O553 C561 1.303 . S
O554 Zn547 1.938 . S
O554 C561 1.247 . S
O555 Zn547 1.906 . S
O555 C563 1.304 . S
O556 Zn544 1.924 . S
O556 C564 1.311 . S
O557 Zn548 1.977 . S
O557 C563 1.272 . S
O558 Zn548 1.910 . S
O558 C564 1.231 . S
C559 O543 1.225 . S
C559 O565 1.298 . S
C560 O549 1.226 . S
C560 O550 1.307 . S
C561 O553 1.303 . S
C561 O554 1.247 . S
C562 O551 1.253 . S
C562 O552 1.283 . S
C563 O555 1.304 . S
C563 O557 1.272 . S
C564 O556 1.311 . S
C564 O558 1.231 . S
O565 Zn547 1.953 . S
O565 C559 1.298 . S
O566 Zn567 1.953 . S
O566 C582 1.225 . S
Zn567 O566 1.953 . S
Zn567 O568 1.957 . S
Zn567 O574 1.919 . S
Zn567 O579 1.924 . S
O568 Zn567 1.957 . S
O568 Zn569 1.923 . S
O568 Zn570 1.945 1_455 S
O568 Zn571 1.940 1_455 S
Zn569 O568 1.923 . S
Zn569 O572 1.933 1_455 S
Zn569 O575 1.941 . S
Zn569 O576 1.965 1_455 S
Zn570 O568 1.945 1_655 S
Zn570 O577 1.938 . S
Zn570 O578 1.906 . S
Zn570 O588 1.931 1_655 S
Zn571 O568 1.940 1_655 S
Zn571 O573 1.932 . S
Zn571 O580 1.977 . S
Zn571 O581 1.894 1_655 S
O572 Zn569 1.933 1_655 S
O572 C583 1.226 . S
O573 Zn571 1.932 . S
O573 C583 1.307 . S
O574 Zn567 1.919 . S
O574 C585 1.253 . S
O575 Zn569 1.941 . S
O575 C585 1.283 . S
O576 Zn569 1.965 1_655 S
O576 C584 1.303 . S
O577 Zn570 1.938 . S
O577 C584 1.247 . S
O578 Zn570 1.906 . S
O578 C586 1.304 . S
O579 Zn567 1.924 . S
O579 C587 1.311 . S
O580 Zn571 1.977 . S
O580 C586 1.272 . S
O581 Zn571 1.894 1_455 S
O581 C587 1.262 . S
C582 O566 1.225 . S
C582 O588 1.340 . S
C583 O572 1.226 . S
C583 O573 1.307 . S
C584 O576 1.303 . S
C584 O577 1.247 . S
C585 O574 1.253 . S
C585 O575 1.283 . S
C586 O578 1.304 . S
C586 O580 1.272 . S
C587 O579 1.311 . S
C587 O581 1.262 . S
O588 Zn570 1.931 1_455 S
O588 C582 1.340 . S
O589 Zn590 1.953 . S
O589 C605 1.225 . S
Zn590 O589 1.953 . S
Zn590 O591 1.949 . S
Zn590 O597 1.919 . S
Zn590 O602 1.924 . S
O591 Zn590 1.949 . S
O591 Zn592 1.923 . S
O591 Zn593 1.950 . S
O591 Zn594 1.945 . S
Zn592 O591 1.923 . S
Zn592 O595 1.933 . S
Zn592 O598 1.941 . S
Zn592 O599 1.965 . S
Zn593 O591 1.950 . S
Zn593 O600 1.938 . S
Zn593 O601 1.906 . S
Zn593 O611 1.953 . S
Zn594 O591 1.945 . S
Zn594 O596 1.932 . S
Zn594 O603 1.977 . S
Zn594 O604 1.910 . S
O595 Zn592 1.933 . S
O595 C606 1.226 . S
O596 Zn594 1.932 . S
O596 C606 1.307 . S
O597 Zn590 1.919 . S
O597 C608 1.253 . S
O598 Zn592 1.941 . S
O598 C608 1.283 . S
O599 Zn592 1.965 . S
O599 C607 1.303 . S
O600 Zn593 1.938 . S
O600 C607 1.247 . S
O601 Zn593 1.906 . S
O601 C609 1.304 . S
O602 Zn590 1.924 . S
O602 C610 1.311 . S
O603 Zn594 1.977 . S
O603 C609 1.272 . S
O604 Zn594 1.910 . S
O604 C610 1.231 . S
C605 O589 1.225 . S
C605 O611 1.298 . S
C606 O595 1.226 . S
C606 O596 1.307 . S
C607 O599 1.303 . S
C607 O600 1.247 . S
C608 O597 1.253 . S
C608 O598 1.283 . S
C609 O601 1.304 . S
C609 O603 1.272 . S
C610 O602 1.311 . S
C610 O604 1.231 . S
O611 Zn593 1.953 . S
O611 C605 1.298 . S
O612 Zn613 1.953 . S
O612 C628 1.225 . S
Zn613 O612 1.953 . S
Zn613 O614 1.949 . S
Zn613 O620 1.919 . S
Zn613 O625 1.924 . S
O614 Zn613 1.949 . S
O614 Zn615 1.923 . S
O614 Zn616 1.950 . S
O614 Zn617 1.945 . S
Zn615 O614 1.923 . S
Zn615 O618 1.933 . S
Zn615 O621 1.941 . S
Zn615 O622 1.965 . S
Zn616 O614 1.950 . S
Zn616 O623 1.938 . S
Zn616 O624 1.906 . S
Zn616 O634 1.953 . S
Zn617 O614 1.945 . S
Zn617 O619 1.932 . S
Zn617 O626 1.977 . S
Zn617 O627 1.910 . S
O618 Zn615 1.933 . S
O618 C629 1.226 . S
O619 Zn617 1.932 . S
O619 C629 1.307 . S
O620 Zn613 1.919 . S
O620 C631 1.253 . S
O621 Zn615 1.941 . S
O621 C631 1.283 . S
O622 Zn615 1.965 . S
O622 C630 1.303 . S
O623 Zn616 1.938 . S
O623 C630 1.247 . S
O624 Zn616 1.906 . S
O624 C632 1.304 . S
O625 Zn613 1.924 . S
O625 C633 1.311 . S
O626 Zn617 1.977 . S
O626 C632 1.272 . S
O627 Zn617 1.910 . S
O627 C633 1.231 . S
C628 O612 1.225 . S
C628 O634 1.298 . S
C629 O618 1.226 . S
C629 O619 1.307 . S
C630 O622 1.303 . S
C630 O623 1.247 . S
C631 O620 1.253 . S
C631 O621 1.283 . S
C632 O624 1.304 . S
C632 O626 1.272 . S
C633 O625 1.311 . S
C633 O627 1.231 . S
O634 Zn616 1.953 . S
O634 C628 1.298 . S
O635 Zn636 1.953 . S
O635 C651 1.225 . S
Zn636 O635 1.953 . S
Zn636 O637 1.949 . S
Zn636 O643 1.919 . S
Zn636 O648 1.924 . S
O637 Zn636 1.949 . S
O637 Zn638 1.923 . S
O637 Zn639 1.950 . S
O637 Zn640 1.945 . S
Zn638 O637 1.923 . S
Zn638 O641 1.933 . S
Zn638 O644 1.941 . S
Zn638 O645 1.965 . S
Zn639 O637 1.950 . S
Zn639 O646 1.938 . S
Zn639 O647 1.906 . S
Zn639 O657 1.953 . S
Zn640 O637 1.945 . S
Zn640 O642 1.932 . S
Zn640 O649 1.977 . S
Zn640 O650 1.910 . S
O641 Zn638 1.933 . S
O641 C652 1.226 . S
O642 Zn640 1.932 . S
O642 C652 1.307 . S
O643 Zn636 1.919 . S
O643 C654 1.253 . S
O644 Zn638 1.941 . S
O644 C654 1.283 . S
O645 Zn638 1.965 . S
O645 C653 1.303 . S
O646 Zn639 1.938 . S
O646 C653 1.247 . S
O647 Zn639 1.906 . S
O647 C655 1.304 . S
O648 Zn636 1.924 . S
O648 C656 1.311 . S
O649 Zn640 1.977 . S
O649 C655 1.272 . S
O650 Zn640 1.910 . S
O650 C656 1.231 . S
C651 O635 1.225 . S
C651 O657 1.298 . S
C652 O641 1.226 . S
C652 O642 1.307 . S
C653 O645 1.303 . S
C653 O646 1.247 . S
C654 O643 1.253 . S
C654 O644 1.283 . S
C655 O647 1.304 . S
C655 O649 1.272 . S
C656 O648 1.311 . S
C656 O650 1.231 . S
O657 Zn639 1.953 . S
O657 C651 1.298 . S
O658 Zn659 1.953 . S
O658 C674 1.225 . S
Zn659 O658 1.953 . S
Zn659 O660 1.949 . S
Zn659 O666 1.919 . S
Zn659 O671 1.924 . S
O660 Zn659 1.949 . S
O660 Zn661 1.923 . S
O660 Zn662 1.950 . S
O660 Zn663 1.945 . S
Zn661 O660 1.923 . S
Zn661 O664 1.933 . S
Zn661 O667 1.941 . S
Zn661 O668 1.965 . S
Zn662 O660 1.950 . S
Zn662 O669 1.938 . S
Zn662 O670 1.906 . S
Zn662 O680 1.953 . S
Zn663 O660 1.945 . S
Zn663 O665 1.932 . S
Zn663 O672 1.977 . S
Zn663 O673 1.910 . S
O664 Zn661 1.933 . S
O664 C675 1.226 . S
O665 Zn663 1.932 . S
O665 C675 1.307 . S
O666 Zn659 1.919 . S
O666 C677 1.253 . S
O667 Zn661 1.941 . S
O667 C677 1.283 . S
O668 Zn661 1.965 . S
O668 C676 1.303 . S
O669 Zn662 1.938 . S
O669 C676 1.247 . S
O670 Zn662 1.906 . S
O670 C678 1.304 . S
O671 Zn659 1.924 . S
O671 C679 1.311 . S
O672 Zn663 1.977 . S
O672 C678 1.272 . S
O673 Zn663 1.910 . S
O673 C679 1.231 . S
C674 O658 1.225 . S
C674 O680 1.298 . S
C675 O664 1.226 . S
C675 O665 1.307 . S
C676 O668 1.303 . S
C676 O669 1.247 . S
C677 O666 1.253 . S
C677 O667 1.283 . S
C678 O670 1.304 . S
C678 O672 1.272 . S
C679 O671 1.311 . S
C679 O673 1.231 . S
O680 Zn662 1.953 . S
O680 C674 1.298 . S
O681 Zn682 1.953 1_455 S
O681 C697 1.225 . S
Zn682 O681 1.953 1_655 S
Zn682 O683 1.949 1_655 S
Zn682 O689 1.919 1_554 S
Zn682 O694 1.924 1_654 S
O683 Zn682 1.949 1_455 S
O683 Zn684 1.923 1_455 S
O683 Zn685 1.950 . S
O683 Zn686 1.945 1_554 S
Zn684 O683 1.923 1_655 S
Zn684 O687 1.933 . S
Zn684 O690 1.941 . S
Zn684 O691 1.965 . S
Zn685 O683 1.950 . S
Zn685 O692 1.938 . S
Zn685 O693 1.906 . S
Zn685 O703 1.953 . S
Zn686 O683 1.945 1_556 S
Zn686 O688 1.932 . S
Zn686 O695 1.977 1_556 S
Zn686 O696 1.910 . S
O687 Zn684 1.933 . S
O687 C698 1.226 1_554 S
O688 Zn686 1.932 . S
O688 C698 1.307 1_455 S
O689 Zn682 1.919 1_556 S
O689 C700 1.253 1_556 S
O690 Zn684 1.941 . S
O690 C700 1.283 . S
O691 Zn684 1.965 . S
O691 C699 1.303 . S
O692 Zn685 1.938 . S
O692 C699 1.247 1_455 S
O693 Zn685 1.906 . S
O693 C701 1.304 . S
O694 Zn682 1.924 1_456 S
O694 C702 1.311 . S
O695 Zn686 1.977 1_554 S
O695 C701 1.272 . S
O696 Zn686 1.910 . S
O696 C702 1.231 . S
C697 O681 1.225 . S
C697 O703 1.298 . S
C698 O687 1.226 1_556 S
C698 O688 1.307 1_655 S
C699 O691 1.303 . S
C699 O692 1.247 1_655 S
C700 O689 1.253 1_554 S
C700 O690 1.283 . S
C701 O693 1.304 . S
C701 O695 1.272 . S
C702 O694 1.311 . S
C702 O696 1.231 . S
O703 Zn685 1.953 . S
O703 C697 1.298 . S
H704 C716 0.930 . S
H705 C718 0.930 . S
H706 C719 0.930 . S
H707 C723 0.959 . S
H708 C723 0.959 . S
H709 C723 0.961 . S
H710 C724 0.970 . S
H711 C724 0.968 . S
H712 C724 0.933 1_655 S
H713 C727 0.929 . S
H714 C728 0.931 . S
H715 C730 0.930 1_455 S
C716 H704 0.930 . S
C716 C717 1.418 . S
C716 C721 1.399 . S
C717 C716 1.418 . S
C717 C718 1.346 1_455 S
C718 H705 0.930 . S
C718 C717 1.346 1_655 S
C718 C719 1.388 . S
C719 H706 0.930 . S
C719 C718 1.388 . S
C719 C720 1.390 . S
C720 C719 1.390 . S
C720 C721 1.394 1_655 S
C720 C726 1.465 . S
C721 C716 1.399 . S
C721 C720 1.394 1_455 S
C721 C722 1.516 . S
C722 C721 1.516 . S
C722 C723 1.502 . S
C722 C724 1.571 . S
C722 C725 1.526 1_455 S
C723 H707 0.959 . S
C723 H708 0.959 . S
C723 H709 0.961 . S
C723 C722 1.502 . S
C724 H710 0.970 . S
C724 H711 0.968 . S
C724 H712 0.933 1_455 S
C724 C722 1.571 . S
C725 C722 1.526 1_655 S
C725 C726 1.396 . S
C725 C730 1.390 . S
C726 C720 1.465 . S
C726 C725 1.396 . S
C726 C727 1.399 . S
C727 H713 0.929 . S
C727 C726 1.399 . S
C727 C728 1.385 . S
C728 H714 0.931 . S
C728 C727 1.385 . S
C728 C729 1.389 . S
C729 C728 1.389 . S
C729 C730 1.387 . S
C730 H715 0.930 1_655 S
C730 C725 1.390 . S
C730 C729 1.387 . S
H731 C743 0.930 . S
H732 C745 0.930 . S
H733 C746 0.930 . S
H734 C750 0.959 . S
H735 C750 0.959 . S
H736 C750 0.961 . S
H737 C751 0.960 . S
H738 C751 0.961 . S
H739 C751 0.959 . S
H740 C754 0.929 . S
H741 C755 0.931 . S
H742 C757 0.930 . S
C743 H731 0.930 . S
C743 C744 1.399 . S
C743 C748 1.399 . S
C744 C743 1.399 . S
C744 C745 1.376 . S
C745 H732 0.930 . S
C745 C744 1.376 . S
C745 C746 1.388 . S
C746 H733 0.930 . S
C746 C745 1.388 . S
C746 C747 1.390 . S
C747 C746 1.390 . S
C747 C748 1.394 . S
C747 C753 1.465 . S
C748 C743 1.399 . S
C748 C747 1.394 . S
C748 C749 1.516 . S
C749 C748 1.516 . S
C749 C750 1.502 . S
C749 C751 1.561 . S
C749 C752 1.526 . S
C750 H734 0.959 . S
C750 H735 0.959 . S
C750 H736 0.961 . S
C750 C749 1.502 . S
C751 H737 0.960 . S
C751 H738 0.961 . S
C751 H739 0.959 . S
C751 C749 1.561 . S
C752 C749 1.526 . S
C752 C753 1.396 . S
C752 C757 1.390 . S
C753 C747 1.465 . S
C753 C752 1.396 . S
C753 C754 1.399 . S
C754 H740 0.929 . S
C754 C753 1.399 . S
C754 C755 1.385 . S
C755 H741 0.931 . S
C755 C754 1.385 . S
C755 C756 1.389 . S
C756 C755 1.389 . S
C756 C757 1.387 . S
C757 H742 0.930 . S
C757 C752 1.390 . S
C757 C756 1.387 . S
H758 C770 0.930 . S
H759 C772 0.930 . S
H760 C773 0.930 . S
H761 C777 0.959 . S
H762 C777 0.959 . S
H763 C777 0.961 . S
H764 C778 0.960 . S
H765 C778 0.961 . S
H766 C778 0.959 . S
H767 C781 0.929 . S
H768 C782 0.931 . S
H769 C784 0.930 . S
C770 H758 0.930 . S
C770 C771 1.399 . S
C770 C775 1.399 . S
C771 C770 1.399 . S
C771 C772 1.376 . S
C772 H759 0.930 . S
C772 C771 1.376 . S
C772 C773 1.388 . S
C773 H760 0.930 . S
C773 C772 1.388 . S
C773 C774 1.390 . S
C774 C773 1.390 . S
C774 C775 1.394 . S
C774 C780 1.465 . S
C775 C770 1.399 . S
C775 C774 1.394 . S
C775 C776 1.516 . S
C776 C775 1.516 . S
C776 C777 1.502 . S
C776 C778 1.561 . S
C776 C779 1.526 . S
C777 H761 0.959 . S
C777 H762 0.959 . S
C777 H763 0.961 . S
C777 C776 1.502 . S
C778 H764 0.960 . S
C778 H765 0.961 . S
C778 H766 0.959 . S
C778 C776 1.561 . S
C779 C776 1.526 . S
C779 C780 1.396 . S
C779 C784 1.390 . S
C780 C774 1.465 . S
C780 C779 1.396 . S
C780 C781 1.399 . S
C781 H767 0.929 . S
C781 C780 1.399 . S
C781 C782 1.385 . S
C782 H768 0.931 . S
C782 C781 1.385 . S
C782 C783 1.389 . S
C783 C782 1.389 . S
C783 C784 1.387 . S
C784 H769 0.930 . S
C784 C779 1.390 . S
C784 C783 1.387 . S
H785 C797 0.930 . S
H786 C799 0.930 . S
H787 C800 0.930 . S
H788 C804 0.959 . S
H789 C804 0.959 . S
H790 C804 0.961 . S
H791 C805 0.960 . S
H792 C805 0.961 . S
H793 C805 0.959 . S
H794 C808 0.929 . S
H795 C809 0.931 . S
H796 C811 0.930 . S
C797 H785 0.930 . S
C797 C798 1.399 . S
C797 C802 1.399 . S
C798 C797 1.399 . S
C798 C799 1.376 . S
C799 H786 0.930 . S
C799 C798 1.376 . S
C799 C800 1.388 . S
C800 H787 0.930 . S
C800 C799 1.388 . S
C800 C801 1.390 . S
C801 C800 1.390 . S
C801 C802 1.394 . S
C801 C807 1.465 . S
C802 C797 1.399 . S
C802 C801 1.394 . S
C802 C803 1.516 . S
C803 C802 1.516 . S
C803 C804 1.502 . S
C803 C805 1.561 . S
C803 C806 1.526 . S
C804 H788 0.959 . S
C804 H789 0.959 . S
C804 H790 0.961 . S
C804 C803 1.502 . S
C805 H791 0.960 . S
C805 H792 0.961 . S
C805 H793 0.959 . S
C805 C803 1.561 . S
C806 C803 1.526 . S
C806 C807 1.396 . S
C806 C811 1.390 . S
C807 C801 1.465 . S
C807 C806 1.396 . S
C807 C808 1.399 . S
C808 H794 0.929 . S
C808 C807 1.399 . S
C808 C809 1.385 . S
C809 H795 0.931 . S
C809 C808 1.385 . S
C809 C810 1.389 . S
C810 C809 1.389 . S
C810 C811 1.387 . S
C811 H796 0.930 . S
C811 C806 1.390 . S
C811 C810 1.387 . S
H812 C824 0.930 . S
H813 C826 0.930 . S
H814 C827 0.930 . S
H815 C831 0.959 . S
H816 C831 0.959 . S
H817 C831 0.961 . S
H818 C832 0.960 . S
H819 C832 0.961 . S
H820 C832 0.959 . S
H821 C835 0.929 . S
H822 C836 0.931 . S
H823 C838 0.930 . S
C824 H812 0.930 . S
C824 C825 1.399 1_655 S
C824 C829 1.399 . S
C825 C824 1.399 1_455 S
C825 C826 1.376 . S
C826 H813 0.930 . S
C826 C825 1.376 . S
C826 C827 1.388 . S
C827 H814 0.930 . S
C827 C826 1.388 . S
C827 C828 1.390 . S
C828 C827 1.390 . S
C828 C829 1.394 1_455 S
C828 C834 1.465 . S
C829 C824 1.399 . S
C829 C828 1.394 1_655 S
C829 C830 1.516 . S
C830 C829 1.516 . S
C830 C831 1.502 . S
C830 C832 1.561 1_655 S
C830 C833 1.526 . S
C831 H815 0.959 . S
C831 H816 0.959 . S
C831 H817 0.961 . S
C831 C830 1.502 . S
C832 H818 0.960 . S
C832 H819 0.961 . S
C832 H820 0.959 . S
C832 C830 1.561 1_455 S
C833 C830 1.526 . S
C833 C834 1.396 1_655 S
C833 C838 1.390 . S
C834 C828 1.465 . S
C834 C833 1.396 1_455 S
C834 C835 1.399 . S
C835 H821 0.929 . S
C835 C834 1.399 . S
C835 C836 1.385 . S
C836 H822 0.931 . S
C836 C835 1.385 . S
C836 C837 1.389 1_455 S
C837 C836 1.389 1_655 S
C837 C838 1.387 . S
C838 H823 0.930 . S
C838 C833 1.390 . S
C838 C837 1.387 . S
H839 C851 0.930 . S
H840 C853 0.930 . S
H841 C854 0.930 . S
H842 C858 0.959 . S
H843 C858 0.959 . S
H844 C858 0.961 . S
H845 C859 0.960 . S
H846 C859 0.961 . S
H847 C859 0.959 . S
H848 C862 0.929 . S
H849 C863 0.931 . S
H850 C865 0.930 . S
C851 H839 0.930 . S
C851 C852 1.399 . S
C851 C856 1.399 . S
C852 C851 1.399 . S
C852 C853 1.376 . S
C853 H840 0.930 . S
C853 C852 1.376 . S
C853 C854 1.388 . S
C854 H841 0.930 . S
C854 C853 1.388 . S
C854 C855 1.390 . S
C855 C854 1.390 . S
C855 C856 1.394 . S
C855 C861 1.465 . S
C856 C851 1.399 . S
C856 C855 1.394 . S
C856 C857 1.516 . S
C857 C856 1.516 . S
C857 C858 1.502 . S
C857 C859 1.561 . S
C857 C860 1.526 . S
C858 H842 0.959 . S
C858 H843 0.959 . S
C858 H844 0.961 . S
C858 C857 1.502 . S
C859 H845 0.960 . S
C859 H846 0.961 . S
C859 H847 0.959 . S
C859 C857 1.561 . S
C860 C857 1.526 . S
C860 C861 1.396 . S
C860 C865 1.390 . S
C861 C855 1.465 . S
C861 C860 1.396 . S
C861 C862 1.399 . S
C862 H848 0.929 . S
C862 C861 1.399 . S
C862 C863 1.385 . S
C863 H849 0.931 . S
C863 C862 1.385 . S
C863 C864 1.389 . S
C864 C863 1.389 . S
C864 C865 1.387 . S
C865 H850 0.930 . S
C865 C860 1.390 . S
C865 C864 1.387 . S
H866 C878 0.930 . S
H867 C880 0.930 . S
H868 C881 0.930 . S
H869 C885 0.959 . S
H870 C885 0.959 . S
H871 C885 0.961 . S
H872 C886 0.960 . S
H873 C886 0.961 . S
H874 C886 0.959 . S
H875 C889 0.917 1_554 S
H876 C890 0.931 . S
H877 C892 0.930 . S
C878 H866 0.930 . S
C878 C879 1.399 . S
C878 C883 1.399 . S
C879 C878 1.399 . S
C879 C880 1.376 . S
C880 H867 0.930 . S
C880 C879 1.376 . S
C880 C881 1.388 . S
C881 H868 0.930 . S
C881 C880 1.388 . S
C881 C882 1.390 . S
C882 C881 1.390 . S
C882 C883 1.394 . S
C882 C888 1.465 . S
C883 C878 1.399 . S
C883 C882 1.394 . S
C883 C884 1.516 . S
C884 C883 1.516 . S
C884 C885 1.502 . S
C884 C886 1.561 . S
C884 C887 1.526 . S
C885 H869 0.959 . S
C885 H870 0.959 . S
C885 H871 0.961 . S
C885 C884 1.502 . S
C886 H872 0.960 . S
C886 H873 0.961 . S
C886 H874 0.959 . S
C886 C884 1.561 . S
C887 C884 1.526 . S
C887 C888 1.396 . S
C887 C892 1.390 . S
C888 C882 1.465 . S
C888 C887 1.396 . S
C888 C889 1.423 . S
C889 H875 0.917 1_556 S
C889 C888 1.423 . S
C889 C890 1.374 1_556 S
C890 H876 0.931 . S
C890 C889 1.374 1_554 S
C890 C891 1.389 1_554 S
C891 C890 1.389 1_556 S
C891 C892 1.387 . S
C892 H877 0.930 . S
C892 C887 1.390 . S
C892 C891 1.387 . S
H893 C905 0.930 . S
H894 C907 0.930 . S
H895 C908 0.930 . S
H896 C912 0.959 . S
H897 C912 0.959 . S
H898 C912 0.961 . S
H899 C913 0.960 . S
H900 C913 0.961 . S
H901 C913 0.959 . S
H902 C916 0.929 . S
H903 C917 0.931 . S
H904 C919 0.930 . S
C905 H893 0.930 . S
C905 C906 1.399 . S
C905 C910 1.399 . S
C906 C905 1.399 . S
C906 C907 1.376 . S
C907 H894 0.930 . S
C907 C906 1.376 . S
C907 C908 1.388 . S
C908 H895 0.930 . S
C908 C907 1.388 . S
C908 C909 1.390 . S
C909 C908 1.390 . S
C909 C910 1.394 . S
C909 C915 1.465 . S
C910 C905 1.399 . S
C910 C909 1.394 . S
C910 C911 1.516 . S
C911 C910 1.516 . S
C911 C912 1.502 . S
C911 C913 1.561 . S
C911 C914 1.526 . S
C912 H896 0.959 . S
C912 H897 0.959 . S
C912 H898 0.961 . S
C912 C911 1.502 . S
C913 H899 0.960 . S
C913 H900 0.961 . S
C913 H901 0.959 . S
C913 C911 1.561 . S
C914 C911 1.526 . S
C914 C915 1.396 . S
C914 C919 1.390 . S
C915 C909 1.465 . S
C915 C914 1.396 . S
C915 C916 1.399 . S
C916 H902 0.929 . S
C916 C915 1.399 . S
C916 C917 1.385 . S
C917 H903 0.931 . S
C917 C916 1.385 . S
C917 C918 1.389 . S
C918 C917 1.389 . S
C918 C919 1.387 . S
C919 H904 0.930 . S
C919 C914 1.390 . S
C919 C918 1.387 . S
H920 C932 0.930 . S
H921 C934 0.930 . S
H922 C935 0.930 . S
H923 C939 0.959 . S
H924 C939 0.959 . S
H925 C939 0.961 . S
H926 C940 0.960 . S
H927 C940 0.961 . S
H928 C940 0.959 . S
H929 C943 0.929 . S
H930 C944 0.931 . S
H931 C946 0.930 . S
C932 H920 0.930 . S
C932 C933 1.399 . S
C932 C937 1.399 . S
C933 C932 1.399 . S
C933 C934 1.376 1_545 S
C934 H921 0.930 . S
C934 C933 1.376 1_565 S
C934 C935 1.388 . S
C935 H922 0.930 . S
C935 C934 1.388 . S
C935 C936 1.406 . S
C936 C935 1.406 . S
C936 C937 1.371 1_565 S
C936 C942 1.468 . S
C937 C932 1.399 . S
C937 C936 1.371 1_545 S
C937 C938 1.516 . S
C938 C937 1.516 . S
C938 C939 1.502 . S
C938 C940 1.561 . S
C938 C941 1.526 . S
C939 H923 0.959 . S
C939 H924 0.959 . S
C939 H925 0.961 . S
C939 C938 1.502 . S
C940 H926 0.960 . S
C940 H927 0.961 . S
C940 H928 0.959 . S
C940 C938 1.561 . S
C941 C938 1.526 . S
C941 C942 1.396 1_545 S
C941 C946 1.390 . S
C942 C936 1.468 . S
C942 C941 1.396 1_565 S
C942 C943 1.399 . S
C943 H929 0.929 . S
C943 C942 1.399 . S
C943 C944 1.385 . S
C944 H930 0.931 . S
C944 C943 1.385 . S
C944 C945 1.389 1_565 S
C945 C944 1.389 1_545 S
C945 C946 1.387 . S
C946 H931 0.930 . S
C946 C941 1.390 . S
C946 C945 1.387 . S
H947 C959 0.930 . S
H948 C961 0.930 . S
H949 C962 0.930 . S
H950 C966 0.959 . S
H951 C966 0.959 . S
H952 C966 0.961 . S
H953 C967 0.960 . S
H954 C967 0.961 . S
H955 C967 0.959 . S
H956 C970 0.929 . S
H957 C971 0.931 . S
H958 C973 0.930 . S
C959 H947 0.930 . S
C959 C960 1.399 . S
C959 C964 1.399 . S
C960 C959 1.399 . S
C960 C961 1.376 . S
C961 H948 0.930 . S
C961 C960 1.376 . S
C961 C962 1.388 . S
C962 H949 0.930 . S
C962 C961 1.388 . S
C962 C963 1.390 . S
C963 C962 1.390 . S
C963 C964 1.394 . S
C963 C969 1.465 . S
C964 C959 1.399 . S
C964 C963 1.394 . S
C964 C965 1.516 . S
C965 C964 1.516 . S
C965 C966 1.502 . S
C965 C967 1.561 . S
C965 C968 1.526 . S
C966 H950 0.959 . S
C966 H951 0.959 . S
C966 H952 0.961 . S
C966 C965 1.502 . S
C967 H953 0.960 . S
C967 H954 0.961 . S
C967 H955 0.959 . S
C967 C965 1.561 . S
C968 C965 1.526 . S
C968 C969 1.396 . S
C968 C973 1.390 . S
C969 C963 1.465 . S
C969 C968 1.396 . S
C969 C970 1.399 . S
C970 H956 0.929 . S
C970 C969 1.399 . S
C970 C971 1.385 . S
C971 H957 0.931 . S
C971 C970 1.385 . S
C971 C972 1.389 . S
C972 C971 1.389 . S
C972 C973 1.387 . S
C973 H958 0.930 . S
C973 C968 1.390 . S
C973 C972 1.387 . S
H974 C986 0.930 . S
H975 C988 0.930 . S
H976 C989 0.930 . S
H977 C993 0.959 . S
H978 C993 0.959 . S
H979 C993 0.961 . S
H980 C994 0.960 . S
H981 C994 0.961 . S
H982 C994 0.959 . S
H983 C997 0.929 . S
H984 C998 0.931 . S
H985 C1000 0.930 . S
C986 H974 0.930 . S
C986 C987 1.399 . S
C986 C991 1.399 . S
C987 C986 1.399 . S
C987 C988 1.376 1_545 S
C988 H975 0.930 . S
C988 C987 1.376 1_565 S
C988 C989 1.388 . S
C989 H976 0.930 . S
C989 C988 1.388 . S
C989 C990 1.390 1_565 S
C990 C989 1.390 1_545 S
C990 C991 1.394 . S
C990 C996 1.465 . S
C991 C986 1.399 . S
C991 C990 1.394 . S
C991 C992 1.516 . S
C992 C991 1.516 . S
C992 C993 1.502 . S
C992 C994 1.561 . S
C992 C995 1.526 . S
C993 H977 0.959 . S
C993 H978 0.959 . S
C993 H979 0.961 . S
C993 C992 1.502 . S
C994 H980 0.960 . S
C994 H981 0.961 . S
C994 H982 0.959 . S
C994 C992 1.561 . S
C995 C992 1.526 . S
C995 C996 1.396 . S
C995 C1000 1.390 . S
C996 C990 1.465 . S
C996 C995 1.396 . S
C996 C997 1.399 1_545 S
C997 H983 0.929 . S
C997 C996 1.399 1_565 S
C997 C998 1.385 . S
C998 H984 0.931 . S
C998 C997 1.385 . S
C998 C999 1.389 1_565 S
C999 C998 1.389 1_545 S
C999 C1000 1.387 . S
C1000 H985 0.930 . S
C1000 C995 1.390 . S
C1000 C999 1.387 . S
H1001 C1013 0.930 . S
H1002 C1015 0.930 . S
H1003 C1016 0.930 . S
H1004 C1020 0.959 . S
H1005 C1020 0.959 . S
H1006 C1020 0.961 . S
H1007 C1021 0.960 . S
H1008 C1021 0.961 . S
H1009 C1021 0.959 . S
H1010 C1024 0.929 . S
H1011 C1025 0.931 . S
H1012 C1027 0.930 . S
C1013 H1001 0.930 . S
C1013 C1014 1.399 . S
C1013 C1018 1.399 . S
C1014 C1013 1.399 . S
C1014 C1015 1.376 . S
C1015 H1002 0.930 . S
C1015 C1014 1.376 . S
C1015 C1016 1.388 . S
C1016 H1003 0.930 . S
C1016 C1015 1.388 . S
C1016 C1017 1.390 . S
C1017 C1016 1.390 . S
C1017 C1018 1.394 . S
C1017 C1023 1.465 . S
C1018 C1013 1.399 . S
C1018 C1017 1.394 . S
C1018 C1019 1.516 . S
C1019 C1018 1.516 . S
C1019 C1020 1.502 . S
C1019 C1021 1.561 . S
C1019 C1022 1.526 . S
C1020 H1004 0.959 . S
C1020 H1005 0.959 . S
C1020 H1006 0.961 . S
C1020 C1019 1.502 . S
C1021 H1007 0.960 . S
C1021 H1008 0.961 . S
C1021 H1009 0.959 . S
C1021 C1019 1.561 . S
C1022 C1019 1.526 . S
C1022 C1023 1.396 . S
C1022 C1027 1.390 . S
C1023 C1017 1.465 . S
C1023 C1022 1.396 . S
C1023 C1024 1.399 . S
C1024 H1010 0.929 . S
C1024 C1023 1.399 . S
C1024 C1025 1.385 . S
C1025 H1011 0.931 . S
C1025 C1024 1.385 . S
C1025 C1026 1.389 . S
C1026 C1025 1.389 . S
C1026 C1027 1.387 . S
C1027 H1012 0.930 . S
C1027 C1022 1.390 . S
C1027 C1026 1.387 . S
H1028 C1040 0.930 1_565 S
H1029 C1042 0.930 . S
H1030 C1043 0.930 . S
H1031 C1047 0.959 . S
H1032 C1047 0.959 . S
H1033 C1047 0.961 . S
H1034 C1048 0.960 . S
H1035 C1048 0.961 . S
H1036 C1048 0.959 . S
H1037 C1051 0.929 . S
H1038 C1052 0.931 . S
H1039 C1054 0.930 1_565 S
C1040 H1028 0.930 1_545 S
C1040 C1041 1.399 . S
C1040 C1045 1.399 . S
C1041 C1040 1.399 . S
C1041 C1042 1.376 . S
C1042 H1029 0.930 . S
C1042 C1041 1.376 . S
C1042 C1043 1.388 . S
C1043 H1030 0.930 . S
C1043 C1042 1.388 . S
C1043 C1044 1.390 . S
C1044 C1043 1.390 . S
C1044 C1045 1.394 . S
C1044 C1050 1.465 . S
C1045 C1040 1.399 . S
C1045 C1044 1.394 . S
C1045 C1046 1.516 1_545 S
C1046 C1045 1.516 1_565 S
C1046 C1047 1.502 . S
C1046 C1048 1.561 . S
C1046 C1049 1.526 1_565 S
C1047 H1031 0.959 . S
C1047 H1032 0.959 . S
C1047 H1033 0.961 . S
C1047 C1046 1.502 . S
C1048 H1034 0.960 . S
C1048 H1035 0.961 . S
C1048 H1036 0.959 . S
C1048 C1046 1.561 . S
C1049 C1046 1.526 1_545 S
C1049 C1050 1.396 . S
C1049 C1054 1.390 . S
C1050 C1044 1.465 . S
C1050 C1049 1.396 . S
C1050 C1051 1.399 . S
C1051 H1037 0.929 . S
C1051 C1050 1.399 . S
C1051 C1052 1.385 . S
C1052 H1038 0.931 . S
C1052 C1051 1.385 . S
C1052 C1053 1.389 . S
C1053 C1052 1.389 . S
C1053 C1054 1.387 . S
C1054 H1039 0.930 1_545 S
C1054 C1049 1.390 . S
C1054 C1053 1.387 . S
H1055 C1067 0.930 . S
H1056 C1069 0.930 . S
H1057 C1070 0.930 . S
H1058 C1074 0.959 . S
H1059 C1074 0.959 . S
H1060 C1074 0.961 . S
H1061 C1075 0.960 . S
H1062 C1075 0.961 . S
H1063 C1075 0.959 . S
H1064 C1078 0.929 . S
H1065 C1079 0.931 . S
H1066 C1081 0.930 . S
C1067 H1055 0.930 . S
C1067 C1068 1.399 . S
C1067 C1072 1.399 . S
C1068 C1067 1.399 . S
C1068 C1069 1.376 . S
C1069 H1056 0.930 . S
C1069 C1068 1.376 . S
C1069 C1070 1.388 . S
C1070 H1057 0.930 . S
C1070 C1069 1.388 . S
C1070 C1071 1.390 . S
C1071 C1070 1.390 . S
C1071 C1072 1.394 . S
C1071 C1077 1.465 . S
C1072 C1067 1.399 . S
C1072 C1071 1.394 . S
C1072 C1073 1.516 . S
C1073 C1072 1.516 . S
C1073 C1074 1.502 . S
C1073 C1075 1.561 . S
C1073 C1076 1.526 . S
C1074 H1058 0.959 . S
C1074 H1059 0.959 . S
C1074 H1060 0.961 . S
C1074 C1073 1.502 . S
C1075 H1061 0.960 . S
C1075 H1062 0.961 . S
C1075 H1063 0.959 . S
C1075 C1073 1.561 . S
C1076 C1073 1.526 . S
C1076 C1077 1.396 . S
C1076 C1081 1.390 . S
C1077 C1071 1.465 . S
C1077 C1076 1.396 . S
C1077 C1078 1.399 . S
C1078 H1064 0.929 . S
C1078 C1077 1.399 . S
C1078 C1079 1.385 . S
C1079 H1065 0.931 . S
C1079 C1078 1.385 . S
C1079 C1080 1.389 . S
C1080 C1079 1.389 . S
C1080 C1081 1.387 . S
C1081 H1066 0.930 . S
C1081 C1076 1.390 . S
C1081 C1080 1.387 . S
H1082 C1094 0.930 . S
H1083 C1096 0.930 . S
H1084 C1097 0.930 . S
H1085 C1101 0.959 . S
H1086 C1101 0.959 . S
H1087 C1101 0.961 . S
H1088 C1102 0.960 . S
H1089 C1102 0.961 . S
H1090 C1102 0.959 . S
H1091 C1105 0.929 . S
H1092 C1106 0.931 . S
H1093 C1108 0.925 1_545 S
C1094 H1082 0.930 . S
C1094 C1095 1.399 1_545 S
C1094 C1099 1.399 1_545 S
C1095 C1094 1.399 1_565 S
C1095 C1096 1.376 . S
C1096 H1083 0.930 . S
C1096 C1095 1.376 . S
C1096 C1097 1.388 . S
C1097 H1084 0.930 . S
C1097 C1096 1.388 . S
C1097 C1098 1.390 . S
C1098 C1097 1.390 . S
C1098 C1099 1.394 . S
C1098 C1104 1.465 . S
C1099 C1094 1.399 1_565 S
C1099 C1098 1.394 . S
C1099 C1100 1.516 1_565 S
C1100 C1099 1.516 1_545 S
C1100 C1101 1.502 . S
C1100 C1102 1.561 1_545 S
C1100 C1103 1.526 1_545 S
C1101 H1085 0.959 . S
C1101 H1086 0.959 . S
C1101 H1087 0.961 . S
C1101 C1100 1.502 . S
C1102 H1088 0.960 . S
C1102 H1089 0.961 . S
C1102 H1090 0.959 . S
C1102 C1100 1.561 1_565 S
C1103 C1100 1.526 1_565 S
C1103 C1104 1.396 . S
C1103 C1108 1.390 . S
C1104 C1098 1.465 . S
C1104 C1103 1.396 . S
C1104 C1105 1.399 . S
C1105 H1091 0.929 . S
C1105 C1104 1.399 . S
C1105 C1106 1.385 . S
C1106 H1092 0.931 . S
C1106 C1105 1.385 . S
C1106 C1107 1.389 . S
C1107 C1106 1.389 . S
C1107 C1108 1.387 . S
C1108 H1093 0.925 1_565 S
C1108 C1103 1.390 . S
C1108 C1107 1.387 . S
H1109 C1121 0.930 . S
H1110 C1123 0.930 . S
H1111 C1124 0.930 . S
H1112 C1128 0.959 . S
H1113 C1128 0.959 . S
H1114 C1128 0.961 . S
H1115 C1129 0.960 . S
H1116 C1129 0.961 . S
H1117 C1129 0.959 . S
H1118 C1132 0.929 . S
H1119 C1133 0.931 . S
H1120 C1135 0.930 . S
C1121 H1109 0.930 . S
C1121 C1122 1.399 . S
C1121 C1126 1.399 . S
C1122 C1121 1.399 . S
C1122 C1123 1.376 . S
C1123 H1110 0.930 . S
C1123 C1122 1.376 . S
C1123 C1124 1.388 . S
C1124 H1111 0.930 . S
C1124 C1123 1.388 . S
C1124 C1125 1.390 . S
C1125 C1124 1.390 . S
C1125 C1126 1.394 . S
C1125 C1131 1.465 . S
C1126 C1121 1.399 . S
C1126 C1125 1.394 . S
C1126 C1127 1.516 . S
C1127 C1126 1.516 . S
C1127 C1128 1.502 . S
C1127 C1129 1.561 . S
C1127 C1130 1.526 . S
C1128 H1112 0.959 . S
C1128 H1113 0.959 . S
C1128 H1114 0.961 . S
C1128 C1127 1.502 . S
C1129 H1115 0.960 . S
C1129 H1116 0.961 . S
C1129 H1117 0.959 . S
C1129 C1127 1.561 . S
C1130 C1127 1.526 . S
C1130 C1131 1.396 . S
C1130 C1135 1.390 . S
C1131 C1125 1.465 . S
C1131 C1130 1.396 . S
C1131 C1132 1.399 . S
C1132 H1118 0.929 . S
C1132 C1131 1.399 . S
C1132 C1133 1.385 . S
C1133 H1119 0.931 . S
C1133 C1132 1.385 . S
C1133 C1134 1.389 . S
C1134 C1133 1.389 . S
C1134 C1135 1.387 . S
C1135 H1120 0.930 . S
C1135 C1130 1.390 . S
C1135 C1134 1.387 . S
H1136 C1148 0.930 . S
H1137 C1150 0.930 . S
H1138 C1151 0.930 . S
H1139 C1155 0.959 . S
H1140 C1155 0.959 . S
H1141 C1155 0.961 . S
H1142 C1156 0.960 . S
H1143 C1156 0.961 . S
H1144 C1156 0.959 . S
H1145 C1159 0.929 . S
H1146 C1160 0.931 . S
H1147 C1162 0.930 . S
C1148 H1136 0.930 . S
C1148 C1149 1.399 . S
C1148 C1153 1.399 . S
C1149 C1148 1.399 . S
C1149 C1150 1.376 1_554 S
C1150 H1137 0.930 . S
C1150 C1149 1.376 1_556 S
C1150 C1151 1.388 . S
C1151 H1138 0.930 . S
C1151 C1150 1.388 . S
C1151 C1152 1.390 . S
C1152 C1151 1.390 . S
C1152 C1153 1.394 1_556 S
C1152 C1158 1.465 . S
C1153 C1148 1.399 . S
C1153 C1152 1.394 1_554 S
C1153 C1154 1.516 . S
C1154 C1153 1.516 . S
C1154 C1155 1.502 . S
C1154 C1156 1.561 . S
C1154 C1157 1.526 . S
C1155 H1139 0.959 . S
C1155 H1140 0.959 . S
C1155 H1141 0.961 . S
C1155 C1154 1.502 . S
C1156 H1142 0.960 . S
C1156 H1143 0.961 . S
C1156 H1144 0.959 . S
C1156 C1154 1.561 . S
C1157 C1154 1.526 . S
C1157 C1158 1.396 1_554 S
C1157 C1162 1.390 . S
C1158 C1152 1.465 . S
C1158 C1157 1.396 1_556 S
C1158 C1159 1.399 . S
C1159 H1145 0.929 . S
C1159 C1158 1.399 . S
C1159 C1160 1.385 . S
C1160 H1146 0.931 . S
C1160 C1159 1.385 . S
C1160 C1161 1.389 . S
C1161 C1160 1.389 . S
C1161 C1162 1.387 1_556 S
C1162 H1147 0.930 . S
C1162 C1157 1.390 . S
C1162 C1161 1.387 1_554 S
H1163 C1175 0.930 . S
H1164 C1177 0.930 . S
H1165 C1178 0.930 . S
H1166 C1182 0.959 . S
H1167 C1182 0.959 . S
H1168 C1182 0.961 . S
H1169 C1183 0.960 . S
H1170 C1183 0.961 . S
H1171 C1183 0.959 . S
H1172 C1186 0.929 . S
H1173 C1187 0.931 . S
H1174 C1189 0.930 . S
C1175 H1163 0.930 . S
C1175 C1176 1.399 . S
C1175 C1180 1.399 . S
C1176 C1175 1.399 . S
C1176 C1177 1.376 1_554 S
C1177 H1164 0.930 . S
C1177 C1176 1.376 1_556 S
C1177 C1178 1.388 . S
C1178 H1165 0.930 . S
C1178 C1177 1.388 . S
C1178 C1179 1.355 1_556 S
C1179 C1178 1.355 1_554 S
C1179 C1180 1.434 . S
C1179 C1185 1.470 . S
C1180 C1175 1.399 . S
C1180 C1179 1.434 . S
C1180 C1181 1.516 . S
C1181 C1180 1.516 . S
C1181 C1182 1.502 . S
C1181 C1183 1.561 . S
C1181 C1184 1.526 . S
C1182 H1166 0.959 . S
C1182 H1167 0.959 . S
C1182 H1168 0.961 . S
C1182 C1181 1.502 . S
C1183 H1169 0.960 . S
C1183 H1170 0.961 . S
C1183 H1171 0.959 . S
C1183 C1181 1.561 . S
C1184 C1181 1.526 . S
C1184 C1185 1.396 . S
C1184 C1189 1.390 . S
C1185 C1179 1.470 . S
C1185 C1184 1.396 . S
C1185 C1186 1.399 1_554 S
C1186 H1172 0.929 . S
C1186 C1185 1.399 1_556 S
C1186 C1187 1.385 . S
C1187 H1173 0.931 . S
C1187 C1186 1.385 . S
C1187 C1188 1.389 1_556 S
C1188 C1187 1.389 1_554 S
C1188 C1189 1.387 . S
C1189 H1174 0.930 . S
C1189 C1184 1.390 . S
C1189 C1188 1.387 . S
H1190 C1202 0.930 . S
H1191 C1204 0.930 . S
H1192 C1205 0.930 . S
H1193 C1209 0.959 . S
H1194 C1209 0.959 . S
H1195 C1209 0.961 . S
H1196 C1210 0.960 . S
H1197 C1210 0.961 . S
H1198 C1210 0.959 . S
H1199 C1213 0.929 . S
H1200 C1214 0.931 . S
H1201 C1216 0.930 . S
C1202 H1190 0.930 . S
C1202 C1203 1.399 . S
C1202 C1207 1.399 . S
C1203 C1202 1.399 . S
C1203 C1204 1.376 . S
C1204 H1191 0.930 . S
C1204 C1203 1.376 . S
C1204 C1205 1.388 . S
C1205 H1192 0.930 . S
C1205 C1204 1.388 . S
C1205 C1206 1.390 . S
C1206 C1205 1.390 . S
C1206 C1207 1.394 . S
C1206 C1212 1.465 . S
C1207 C1202 1.399 . S
C1207 C1206 1.394 . S
C1207 C1208 1.516 . S
C1208 C1207 1.516 . S
C1208 C1209 1.502 . S
C1208 C1210 1.561 . S
C1208 C1211 1.526 . S
C1209 H1193 0.959 . S
C1209 H1194 0.959 . S
C1209 H1195 0.961 . S
C1209 C1208 1.502 . S
C1210 H1196 0.960 . S
C1210 H1197 0.961 . S
C1210 H1198 0.959 . S
C1210 C1208 1.561 . S
C1211 C1208 1.526 . S
C1211 C1212 1.396 . S
C1211 C1216 1.390 . S
C1212 C1206 1.465 . S
C1212 C1211 1.396 . S
C1212 C1213 1.399 . S
C1213 H1199 0.929 . S
C1213 C1212 1.399 . S
C1213 C1214 1.385 . S
C1214 H1200 0.931 . S
C1214 C1213 1.385 . S
C1214 C1215 1.389 . S
C1215 C1214 1.389 . S
C1215 C1216 1.387 . S
C1216 H1201 0.930 . S
C1216 C1211 1.390 . S
C1216 C1215 1.387 . S
H1217 C1229 0.930 . S
H1218 C1231 0.930 . S
H1219 C1232 0.930 . S
H1220 C1236 0.959 . S
H1221 C1236 0.959 . S
H1222 C1236 0.961 . S
H1223 C1237 0.960 . S
H1224 C1237 0.961 . S
H1225 C1237 0.959 . S
H1226 C1240 0.929 . S
H1227 C1241 0.931 . S
H1228 C1243 0.930 . S
C1229 H1217 0.930 . S
C1229 C1230 1.399 . S
C1229 C1234 1.399 . S
C1230 C1229 1.399 . S
C1230 C1231 1.376 . S
C1231 H1218 0.930 . S
C1231 C1230 1.376 . S
C1231 C1232 1.388 . S
C1232 H1219 0.930 . S
C1232 C1231 1.388 . S
C1232 C1233 1.390 . S
C1233 C1232 1.390 . S
C1233 C1234 1.394 . S
C1233 C1239 1.465 . S
C1234 C1229 1.399 . S
C1234 C1233 1.394 . S
C1234 C1235 1.516 . S
C1235 C1234 1.516 . S
C1235 C1236 1.502 . S
C1235 C1237 1.561 . S
C1235 C1238 1.526 . S
C1236 H1220 0.959 . S
C1236 H1221 0.959 . S
C1236 H1222 0.961 . S
C1236 C1235 1.502 . S
C1237 H1223 0.960 . S
C1237 H1224 0.961 . S
C1237 H1225 0.959 . S
C1237 C1235 1.561 . S
C1238 C1235 1.526 . S
C1238 C1239 1.396 . S
C1238 C1243 1.390 . S
C1239 C1233 1.465 . S
C1239 C1238 1.396 . S
C1239 C1240 1.399 . S
C1240 H1226 0.929 . S
C1240 C1239 1.399 . S
C1240 C1241 1.385 . S
C1241 H1227 0.931 . S
C1241 C1240 1.385 . S
C1241 C1242 1.389 . S
C1242 C1241 1.389 . S
C1242 C1243 1.387 . S
C1243 H1228 0.930 . S
C1243 C1238 1.390 . S
C1243 C1242 1.387 . S
H1244 C1256 0.930 . S
H1245 C1258 0.930 . S
H1246 C1259 0.930 . S
H1247 C1263 0.959 . S
H1248 C1263 0.959 . S
H1249 C1263 0.961 . S
H1250 C1264 0.960 . S
H1251 C1264 0.961 . S
H1252 C1264 0.959 . S
H1253 C1267 0.929 . S
H1254 C1268 0.931 . S
H1255 C1270 0.930 . S
C1256 H1244 0.930 . S
C1256 C1257 1.399 . S
C1256 C1261 1.399 . S
C1257 C1256 1.399 . S
C1257 C1258 1.376 . S
C1258 H1245 0.930 . S
C1258 C1257 1.376 . S
C1258 C1259 1.388 . S
C1259 H1246 0.930 . S
C1259 C1258 1.388 . S
C1259 C1260 1.390 . S
C1260 C1259 1.390 . S
C1260 C1261 1.394 . S
C1260 C1266 1.465 . S
C1261 C1256 1.399 . S
C1261 C1260 1.394 . S
C1261 C1262 1.516 . S
C1262 C1261 1.516 . S
C1262 C1263 1.502 . S
C1262 C1264 1.561 . S
C1262 C1265 1.526 . S
C1263 H1247 0.959 . S
C1263 H1248 0.959 . S
C1263 H1249 0.961 . S
C1263 C1262 1.502 . S
C1264 H1250 0.960 . S
C1264 H1251 0.961 . S
C1264 H1252 0.959 . S
C1264 C1262 1.561 . S
C1265 C1262 1.526 . S
C1265 C1266 1.396 . S
C1265 C1270 1.390 . S
C1266 C1260 1.465 . S
C1266 C1265 1.396 . S
C1266 C1267 1.399 . S
C1267 H1253 0.929 . S
C1267 C1266 1.399 . S
C1267 C1268 1.385 . S
C1268 H1254 0.931 . S
C1268 C1267 1.385 . S
C1268 C1269 1.389 . S
C1269 C1268 1.389 . S
C1269 C1270 1.387 . S
C1270 H1255 0.930 . S
C1270 C1265 1.390 . S
C1270 C1269 1.387 . S
H1271 C1283 0.930 . S
H1272 C1285 0.930 . S
H1273 C1286 0.930 . S
H1274 C1290 0.959 . S
H1275 C1290 0.959 . S
H1276 C1290 0.961 . S
H1277 C1291 0.960 . S
H1278 C1291 0.961 . S
H1279 C1291 0.959 . S
H1280 C1294 0.914 1_545 S
H1281 C1295 0.931 . S
H1282 C1297 0.930 . S
C1283 H1271 0.930 . S
C1283 C1284 1.399 . S
C1283 C1288 1.399 . S
C1284 C1283 1.399 . S
C1284 C1285 1.376 . S
C1285 H1272 0.930 . S
C1285 C1284 1.376 . S
C1285 C1286 1.388 . S
C1286 H1273 0.930 . S
C1286 C1285 1.388 . S
C1286 C1287 1.390 . S
C1287 C1286 1.390 . S
C1287 C1288 1.394 . S
C1287 C1293 1.465 . S
C1288 C1283 1.399 . S
C1288 C1287 1.394 . S
C1288 C1289 1.516 . S
C1289 C1288 1.516 . S
C1289 C1290 1.502 . S
C1289 C1291 1.561 . S
C1289 C1292 1.526 . S
C1290 H1274 0.959 . S
C1290 H1275 0.959 . S
C1290 H1276 0.961 . S
C1290 C1289 1.502 . S
C1291 H1277 0.960 . S
C1291 H1278 0.961 . S
C1291 H1279 0.959 . S
C1291 C1289 1.561 . S
C1292 C1289 1.526 . S
C1292 C1293 1.396 . S
C1292 C1297 1.390 . S
C1293 C1287 1.465 . S
C1293 C1292 1.396 . S
C1293 C1294 1.428 . S
C1294 H1280 0.914 1_565 S
C1294 C1293 1.428 . S
C1294 C1295 1.373 1_565 S
C1295 H1281 0.931 . S
C1295 C1294 1.373 1_545 S
C1295 C1296 1.389 1_545 S
C1296 C1295 1.389 1_565 S
C1296 C1297 1.387 . S
C1297 H1282 0.930 . S
C1297 C1292 1.390 . S
C1297 C1296 1.387 . S
H1298 C1310 0.930 . S
H1299 C1312 0.930 . S
H1300 C1313 0.930 . S
H1301 C1317 0.959 . S
H1302 C1317 0.959 . S
H1303 C1317 0.961 . S
H1304 C1318 0.960 . S
H1305 C1318 0.961 . S
H1306 C1318 0.959 . S
H1307 C1321 0.929 . S
H1308 C1322 0.931 . S
H1309 C1324 0.930 . S
C1310 H1298 0.930 . S
C1310 C1311 1.399 . S
C1310 C1315 1.399 . S
C1311 C1310 1.399 . S
C1311 C1312 1.376 . S
C1312 H1299 0.930 . S
C1312 C1311 1.376 . S
C1312 C1313 1.388 . S
C1313 H1300 0.930 . S
C1313 C1312 1.388 . S
C1313 C1314 1.390 . S
C1314 C1313 1.390 . S
C1314 C1315 1.394 . S
C1314 C1320 1.465 . S
C1315 C1310 1.399 . S
C1315 C1314 1.394 . S
C1315 C1316 1.516 . S
C1316 C1315 1.516 . S
C1316 C1317 1.502 . S
C1316 C1318 1.561 . S
C1316 C1319 1.526 . S
C1317 H1301 0.959 . S
C1317 H1302 0.959 . S
C1317 H1303 0.961 . S
C1317 C1316 1.502 . S
C1318 H1304 0.960 . S
C1318 H1305 0.961 . S
C1318 H1306 0.959 . S
C1318 C1316 1.561 . S
C1319 C1316 1.526 . S
C1319 C1320 1.396 . S
C1319 C1324 1.390 . S
C1320 C1314 1.465 . S
C1320 C1319 1.396 . S
C1320 C1321 1.399 . S
C1321 H1307 0.929 . S
C1321 C1320 1.399 . S
C1321 C1322 1.385 . S
C1322 H1308 0.931 . S
C1322 C1321 1.385 . S
C1322 C1323 1.389 . S
C1323 C1322 1.389 . S
C1323 C1324 1.387 . S
C1324 H1309 0.930 . S
C1324 C1319 1.390 . S
C1324 C1323 1.387 . S
H1325 C1337 0.930 . S
H1326 C1339 0.930 . S
H1327 C1340 0.930 . S
H1328 C1344 0.959 . S
H1329 C1344 0.959 . S
H1330 C1344 0.961 . S
H1331 C1345 0.960 . S
H1332 C1345 0.961 . S
H1333 C1345 0.959 . S
H1334 C1348 0.929 . S
H1335 C1349 0.931 . S
H1336 C1351 0.930 . S
C1337 H1325 0.930 . S
C1337 C1338 1.399 . S
C1337 C1342 1.399 . S
C1338 C1337 1.399 . S
C1338 C1339 1.376 . S
C1339 H1326 0.930 . S
C1339 C1338 1.376 . S
C1339 C1340 1.388 . S
C1340 H1327 0.930 . S
C1340 C1339 1.388 . S
C1340 C1341 1.390 . S
C1341 C1340 1.390 . S
C1341 C1342 1.394 . S
C1341 C1347 1.465 . S
C1342 C1337 1.399 . S
C1342 C1341 1.394 . S
C1342 C1343 1.516 . S
C1343 C1342 1.516 . S
C1343 C1344 1.502 . S
C1343 C1345 1.561 . S
C1343 C1346 1.526 . S
C1344 H1328 0.959 . S
C1344 H1329 0.959 . S
C1344 H1330 0.961 . S
C1344 C1343 1.502 . S
C1345 H1331 0.960 . S
C1345 H1332 0.961 . S
C1345 H1333 0.959 . S
C1345 C1343 1.561 . S
C1346 C1343 1.526 . S
C1346 C1347 1.396 . S
C1346 C1351 1.390 . S
C1347 C1341 1.465 . S
C1347 C1346 1.396 . S
C1347 C1348 1.399 . S
C1348 H1334 0.929 . S
C1348 C1347 1.399 . S
C1348 C1349 1.385 . S
C1349 H1335 0.931 . S
C1349 C1348 1.385 . S
C1349 C1350 1.389 . S
C1350 C1349 1.389 . S
C1350 C1351 1.387 . S
C1351 H1336 0.930 . S
C1351 C1346 1.390 . S
C1351 C1350 1.387 . S
H1352 C1364 0.930 . S
H1353 C1366 0.930 . S
H1354 C1367 0.930 . S
H1355 C1371 0.959 . S
H1356 C1371 0.959 1_554 S
H1357 C1371 0.961 . S
H1358 C1372 0.960 . S
H1359 C1372 0.961 1_554 S
H1360 C1372 0.959 . S
H1361 C1375 0.929 . S
H1362 C1376 0.931 . S
H1363 C1378 0.930 1_554 S
C1364 H1352 0.930 . S
C1364 C1365 1.399 . S
C1364 C1369 1.399 . S
C1365 C1364 1.399 . S
C1365 C1366 1.376 . S
C1366 H1353 0.930 . S
C1366 C1365 1.376 . S
C1366 C1367 1.388 . S
C1367 H1354 0.930 . S
C1367 C1366 1.388 . S
C1367 C1368 1.390 . S
C1368 C1367 1.390 . S
C1368 C1369 1.394 . S
C1368 C1374 1.465 . S
C1369 C1364 1.399 . S
C1369 C1368 1.394 . S
C1369 C1370 1.516 . S
C1370 C1369 1.516 . S
C1370 C1371 1.502 1_455 S
C1370 C1372 1.561 . S
C1370 C1373 1.526 . S
C1371 H1355 0.959 . S
C1371 H1356 0.959 1_556 S
C1371 H1357 0.961 . S
C1371 C1370 1.502 1_655 S
C1372 H1358 0.960 . S
C1372 H1359 0.961 1_556 S
C1372 H1360 0.959 . S
C1372 C1370 1.561 . S
C1373 C1370 1.526 . S
C1373 C1374 1.396 . S
C1373 C1378 1.390 . S
C1374 C1368 1.465 . S
C1374 C1373 1.396 . S
C1374 C1375 1.399 . S
C1375 H1361 0.929 . S
C1375 C1374 1.399 . S
C1375 C1376 1.385 . S
C1376 H1362 0.931 . S
C1376 C1375 1.385 . S
C1376 C1377 1.389 . S
C1377 C1376 1.389 . S
C1377 C1378 1.387 . S
C1378 H1363 0.930 1_556 S
C1378 C1373 1.390 . S
C1378 C1377 1.387 . S
H1379 C1391 0.930 . S
H1380 C1393 0.930 . S
H1381 C1394 0.930 . S
H1382 C1398 0.959 . S
H1383 C1398 0.959 . S
H1384 C1398 0.961 . S
H1385 C1399 0.960 . S
H1386 C1399 0.961 . S
H1387 C1399 0.959 . S
H1388 C1402 0.929 . S
H1389 C1403 0.931 . S
H1390 C1405 0.930 . S
C1391 H1379 0.930 . S
C1391 C1392 1.399 . S
C1391 C1396 1.399 . S
C1392 C1391 1.399 . S
C1392 C1393 1.376 . S
C1393 H1380 0.930 . S
C1393 C1392 1.376 . S
C1393 C1394 1.388 . S
C1394 H1381 0.930 . S
C1394 C1393 1.388 . S
C1394 C1395 1.390 . S
C1395 C1394 1.390 . S
C1395 C1396 1.394 . S
C1395 C1401 1.465 . S
C1396 C1391 1.399 . S
C1396 C1395 1.394 . S
C1396 C1397 1.516 . S
C1397 C1396 1.516 . S
C1397 C1398 1.502 . S
C1397 C1399 1.561 . S
C1397 C1400 1.526 . S
C1398 H1382 0.959 . S
C1398 H1383 0.959 . S
C1398 H1384 0.961 . S
C1398 C1397 1.502 . S
C1399 H1385 0.960 . S
C1399 H1386 0.961 . S
C1399 H1387 0.959 . S
C1399 C1397 1.561 . S
C1400 C1397 1.526 . S
C1400 C1401 1.396 . S
C1400 C1405 1.390 . S
C1401 C1395 1.465 . S
C1401 C1400 1.396 . S
C1401 C1402 1.399 . S
C1402 H1388 0.929 . S
C1402 C1401 1.399 . S
C1402 C1403 1.385 . S
C1403 H1389 0.931 . S
C1403 C1402 1.385 . S
C1403 C1404 1.389 . S
C1404 C1403 1.389 . S
C1404 C1405 1.387 . S
C1405 H1390 0.930 . S
C1405 C1400 1.390 . S
C1405 C1404 1.387 . S
H1406 C1418 0.930 . S
H1407 C1420 0.930 . S
H1408 C1421 0.930 . S
H1409 C1425 0.959 . S
H1410 C1425 0.959 . S
H1411 C1425 0.961 . S
H1412 C1426 0.960 . S
H1413 C1426 0.961 . S
H1414 C1426 0.959 . S
H1415 C1429 0.929 . S
H1416 C1430 0.931 . S
H1417 C1432 0.930 . S
C1418 H1406 0.930 . S
C1418 C1419 1.399 . S
C1418 C1423 1.399 . S
C1419 C1418 1.399 . S
C1419 C1420 1.376 . S
C1420 H1407 0.930 . S
C1420 C1419 1.376 . S
C1420 C1421 1.388 . S
C1421 H1408 0.930 . S
C1421 C1420 1.388 . S
C1421 C1422 1.390 . S
C1422 C1421 1.390 . S
C1422 C1423 1.394 . S
C1422 C1428 1.465 . S
C1423 C1418 1.399 . S
C1423 C1422 1.394 . S
C1423 C1424 1.516 . S
C1424 C1423 1.516 . S
C1424 C1425 1.502 . S
C1424 C1426 1.561 . S
C1424 C1427 1.526 . S
C1425 H1409 0.959 . S
C1425 H1410 0.959 . S
C1425 H1411 0.961 . S
C1425 C1424 1.502 . S
C1426 H1412 0.960 . S
C1426 H1413 0.961 . S
C1426 H1414 0.959 . S
C1426 C1424 1.561 . S
C1427 C1424 1.526 . S
C1427 C1428 1.396 . S
C1427 C1432 1.390 . S
C1428 C1422 1.465 . S
C1428 C1427 1.396 . S
C1428 C1429 1.399 . S
C1429 H1415 0.929 . S
C1429 C1428 1.399 . S
C1429 C1430 1.385 . S
C1430 H1416 0.931 . S
C1430 C1429 1.385 . S
C1430 C1431 1.389 . S
C1431 C1430 1.389 . S
C1431 C1432 1.387 . S
C1432 H1417 0.930 . S
C1432 C1427 1.390 . S
C1432 C1431 1.387 . S
H1433 C1445 0.930 . S
H1434 C1447 0.930 . S
H1435 C1448 0.930 . S
H1436 C1452 0.959 . S
H1437 C1452 0.959 . S
H1438 C1452 0.961 . S
H1439 C1453 0.960 . S
H1440 C1453 0.961 . S
H1441 C1453 0.959 . S
H1442 C1456 0.929 . S
H1443 C1457 0.931 . S
H1444 C1459 0.930 . S
C1445 H1433 0.930 . S
C1445 C1446 1.399 . S
C1445 C1450 1.399 . S
C1446 C1445 1.399 . S
C1446 C1447 1.376 . S
C1447 H1434 0.930 . S
C1447 C1446 1.376 . S
C1447 C1448 1.388 . S
C1448 H1435 0.930 . S
C1448 C1447 1.388 . S
C1448 C1449 1.390 . S
C1449 C1448 1.390 . S
C1449 C1450 1.394 . S
C1449 C1455 1.465 . S
C1450 C1445 1.399 . S
C1450 C1449 1.394 . S
C1450 C1451 1.516 . S
C1451 C1450 1.516 . S
C1451 C1452 1.502 . S
C1451 C1453 1.561 . S
C1451 C1454 1.526 . S
C1452 H1436 0.959 . S
C1452 H1437 0.959 . S
C1452 H1438 0.961 . S
C1452 C1451 1.502 . S
C1453 H1439 0.960 . S
C1453 H1440 0.961 . S
C1453 H1441 0.959 . S
C1453 C1451 1.561 . S
C1454 C1451 1.526 . S
C1454 C1455 1.396 . S
C1454 C1459 1.390 . S
C1455 C1449 1.465 . S
C1455 C1454 1.396 . S
C1455 C1456 1.399 . S
C1456 H1442 0.929 . S
C1456 C1455 1.399 . S
C1456 C1457 1.385 . S
C1457 H1443 0.931 . S
C1457 C1456 1.385 . S
C1457 C1458 1.389 . S
C1458 C1457 1.389 . S
C1458 C1459 1.387 . S
C1459 H1444 0.930 . S
C1459 C1454 1.390 . S
C1459 C1458 1.387 . S
H1460 C1472 0.930 . S
H1461 C1474 0.930 . S
H1462 C1475 0.930 . S
H1463 C1479 0.959 . S
H1464 C1479 0.959 . S
H1465 C1479 0.961 . S
H1466 C1480 0.960 . S
H1467 C1480 0.961 . S
H1468 C1480 0.919 1_455 S
H1469 C1483 0.929 . S
H1470 C1484 0.931 . S
H1471 C1486 0.930 1_655 S
C1472 H1460 0.930 . S
C1472 C1473 1.399 1_655 S
C1472 C1477 1.399 1_655 S
C1473 C1472 1.399 1_455 S
C1473 C1474 1.376 . S
C1474 H1461 0.930 . S
C1474 C1473 1.376 . S
C1474 C1475 1.388 . S
C1475 H1462 0.930 . S
C1475 C1474 1.388 . S
C1475 C1476 1.390 . S
C1476 C1475 1.390 . S
C1476 C1477 1.394 . S
C1476 C1482 1.465 . S
C1477 C1472 1.399 1_455 S
C1477 C1476 1.394 . S
C1477 C1478 1.516 1_455 S
C1478 C1477 1.516 1_655 S
C1478 C1479 1.502 . S
C1478 C1480 1.561 . S
C1478 C1481 1.526 1_655 S
C1479 H1463 0.959 . S
C1479 H1464 0.959 . S
C1479 H1465 0.961 . S
C1479 C1478 1.502 . S
C1480 H1466 0.960 . S
C1480 H1467 0.961 . S
C1480 H1468 0.919 1_655 S
C1480 C1478 1.561 . S
C1481 C1478 1.526 1_455 S
C1481 C1482 1.396 . S
C1481 C1486 1.390 . S
C1482 C1476 1.465 . S
C1482 C1481 1.396 . S
C1482 C1483 1.399 . S
C1483 H1469 0.929 . S
C1483 C1482 1.399 . S
C1483 C1484 1.385 . S
C1484 H1470 0.931 . S
C1484 C1483 1.385 . S
C1484 C1485 1.389 . S
C1485 C1484 1.389 . S
C1485 C1486 1.387 . S
C1486 H1471 0.930 1_455 S
C1486 C1481 1.390 . S
C1486 C1485 1.387 . S
H1487 C1499 0.930 . S
H1488 C1501 0.930 . S
H1489 C1502 0.930 . S
H1490 C1506 0.959 . S
H1491 C1506 0.959 . S
H1492 C1506 0.961 . S
H1493 C1507 0.960 . S
H1494 C1507 0.961 . S
H1495 C1507 0.959 . S
H1496 C1510 0.929 . S
H1497 C1511 0.931 . S
H1498 C1513 0.930 . S
C1499 H1487 0.930 . S
C1499 C1500 1.399 . S
C1499 C1504 1.399 . S
C1500 C1499 1.399 . S
C1500 C1501 1.376 . S
C1501 H1488 0.930 . S
C1501 C1500 1.376 . S
C1501 C1502 1.388 . S
C1502 H1489 0.930 . S
C1502 C1501 1.388 . S
C1502 C1503 1.390 . S
C1503 C1502 1.390 . S
C1503 C1504 1.394 . S
C1503 C1509 1.465 . S
C1504 C1499 1.399 . S
C1504 C1503 1.394 . S
C1504 C1505 1.516 . S
C1505 C1504 1.516 . S
C1505 C1506 1.502 . S
C1505 C1507 1.561 . S
C1505 C1508 1.526 . S
C1506 H1490 0.959 . S
C1506 H1491 0.959 . S
C1506 H1492 0.961 . S
C1506 C1505 1.502 . S
C1507 H1493 0.960 . S
C1507 H1494 0.961 . S
C1507 H1495 0.959 . S
C1507 C1505 1.561 . S
C1508 C1505 1.526 . S
C1508 C1509 1.396 . S
C1508 C1513 1.390 . S
C1509 C1503 1.465 . S
C1509 C1508 1.396 . S
C1509 C1510 1.399 . S
C1510 H1496 0.929 . S
C1510 C1509 1.399 . S
C1510 C1511 1.385 . S
C1511 H1497 0.931 . S
C1511 C1510 1.385 . S
C1511 C1512 1.389 . S
C1512 C1511 1.389 . S
C1512 C1513 1.387 . S
C1513 H1498 0.930 . S
C1513 C1508 1.390 . S
C1513 C1512 1.387 . S
H1514 C1526 0.930 . S
H1515 C1528 0.930 . S
H1516 C1529 0.930 . S
H1517 C1533 0.959 . S
H1518 C1533 0.959 . S
H1519 C1533 0.961 . S
H1520 C1534 0.960 . S
H1521 C1534 0.961 . S
H1522 C1534 0.959 . S
H1523 C1537 0.929 . S
H1524 C1538 0.931 . S
H1525 C1540 0.930 . S
C1526 H1514 0.930 . S
C1526 C1527 1.399 . S
C1526 C1531 1.399 . S
C1527 C1526 1.399 . S
C1527 C1528 1.376 . S
C1528 H1515 0.930 . S
C1528 C1527 1.376 . S
C1528 C1529 1.388 . S
C1529 H1516 0.930 . S
C1529 C1528 1.388 . S
C1529 C1530 1.390 . S
C1530 C1529 1.390 . S
C1530 C1531 1.394 . S
C1530 C1536 1.465 . S
C1531 C1526 1.399 . S
C1531 C1530 1.394 . S
C1531 C1532 1.516 . S
C1532 C1531 1.516 . S
C1532 C1533 1.502 . S
C1532 C1534 1.561 . S
C1532 C1535 1.526 . S
C1533 H1517 0.959 . S
C1533 H1518 0.959 . S
C1533 H1519 0.961 . S
C1533 C1532 1.502 . S
C1534 H1520 0.960 . S
C1534 H1521 0.961 . S
C1534 H1522 0.959 . S
C1534 C1532 1.561 . S
C1535 C1532 1.526 . S
C1535 C1536 1.396 . S
C1535 C1540 1.390 . S
C1536 C1530 1.465 . S
C1536 C1535 1.396 . S
C1536 C1537 1.399 . S
C1537 H1523 0.929 . S
C1537 C1536 1.399 . S
C1537 C1538 1.385 . S
C1538 H1524 0.931 . S
C1538 C1537 1.385 . S
C1538 C1539 1.389 . S
C1539 C1538 1.389 . S
C1539 C1540 1.387 . S
C1540 H1525 0.930 . S
C1540 C1535 1.390 . S
C1540 C1539 1.387 . S
H1541 C1553 0.930 . S
H1542 C1555 0.930 . S
H1543 C1556 0.930 . S
H1544 C1560 0.959 . S
H1545 C1560 0.959 . S
H1546 C1560 0.961 . S
H1547 C1561 0.960 . S
H1548 C1561 0.961 . S
H1549 C1561 0.959 . S
H1550 C1564 0.929 . S
H1551 C1565 0.931 . S
H1552 C1567 0.930 . S
C1553 H1541 0.930 . S
C1553 C1554 1.399 . S
C1553 C1558 1.399 . S
C1554 C1553 1.399 . S
C1554 C1555 1.376 . S
C1555 H1542 0.930 . S
C1555 C1554 1.376 . S
C1555 C1556 1.388 . S
C1556 H1543 0.930 . S
C1556 C1555 1.388 . S
C1556 C1557 1.390 . S
C1557 C1556 1.390 . S
C1557 C1558 1.394 . S
C1557 C1563 1.465 . S
C1558 C1553 1.399 . S
C1558 C1557 1.394 . S
C1558 C1559 1.516 . S
C1559 C1558 1.516 . S
C1559 C1560 1.502 . S
C1559 C1561 1.561 . S
C1559 C1562 1.526 . S
C1560 H1544 0.959 . S
C1560 H1545 0.959 . S
C1560 H1546 0.961 . S
C1560 C1559 1.502 . S
C1561 H1547 0.960 . S
C1561 H1548 0.961 . S
C1561 H1549 0.959 . S
C1561 C1559 1.561 . S
C1562 C1559 1.526 . S
C1562 C1563 1.396 . S
C1562 C1567 1.390 . S
C1563 C1557 1.465 . S
C1563 C1562 1.396 . S
C1563 C1564 1.399 . S
C1564 H1550 0.929 . S
C1564 C1563 1.399 . S
C1564 C1565 1.385 . S
C1565 H1551 0.931 . S
C1565 C1564 1.385 . S
C1565 C1566 1.389 . S
C1566 C1565 1.389 . S
C1566 C1567 1.387 . S
C1567 H1552 0.930 . S
C1567 C1562 1.390 . S
C1567 C1566 1.387 . S
H1568 C1580 0.930 . S
H1569 C1582 0.930 1_565 S
H1570 C1583 0.930 1_565 S
H1571 C1587 0.959 . S
H1572 C1587 0.959 . S
H1573 C1587 0.961 . S
H1574 C1588 0.960 . S
H1575 C1588 0.961 . S
H1576 C1588 0.959 . S
H1577 C1591 0.912 1_565 S
H1578 C1592 0.931 . S
H1579 C1594 0.930 . S
C1580 H1568 0.930 . S
C1580 C1581 1.399 . S
C1580 C1585 1.399 . S
C1581 C1580 1.399 . S
C1581 C1582 1.376 . S
C1582 H1569 0.930 1_545 S
C1582 C1581 1.376 . S
C1582 C1583 1.388 . S
C1583 H1570 0.930 1_545 S
C1583 C1582 1.388 . S
C1583 C1584 1.390 . S
C1584 C1583 1.390 . S
C1584 C1585 1.394 . S
C1584 C1590 1.465 . S
C1585 C1580 1.399 . S
C1585 C1584 1.394 . S
C1585 C1586 1.516 . S
C1586 C1585 1.516 . S
C1586 C1587 1.502 . S
C1586 C1588 1.561 . S
C1586 C1589 1.526 . S
C1587 H1571 0.959 . S
C1587 H1572 0.959 . S
C1587 H1573 0.961 . S
C1587 C1586 1.502 . S
C1588 H1574 0.960 . S
C1588 H1575 0.961 . S
C1588 H1576 0.959 . S
C1588 C1586 1.561 . S
C1589 C1586 1.526 . S
C1589 C1590 1.396 . S
C1589 C1594 1.390 . S
C1590 C1584 1.465 . S
C1590 C1589 1.396 . S
C1590 C1591 1.399 . S
C1591 H1577 0.912 1_545 S
C1591 C1590 1.399 . S
C1591 C1592 1.385 . S
C1592 H1578 0.931 . S
C1592 C1591 1.385 . S
C1592 C1593 1.389 . S
C1593 C1592 1.389 . S
C1593 C1594 1.387 . S
C1594 H1579 0.930 . S
C1594 C1589 1.390 . S
C1594 C1593 1.387 . S
H1595 C1607 0.930 . S
H1596 C1609 0.930 . S
H1597 C1610 0.930 . S
H1598 C1614 0.959 . S
H1599 C1614 0.959 . S
H1600 C1614 0.961 . S
H1601 C1615 0.960 . S
H1602 C1615 0.961 . S
H1603 C1615 0.959 . S
H1604 C1618 0.929 . S
H1605 C1619 0.931 . S
H1606 C1621 0.930 . S
C1607 H1595 0.930 . S
C1607 C1608 1.399 . S
C1607 C1612 1.399 . S
C1608 C1607 1.399 . S
C1608 C1609 1.376 . S
C1609 H1596 0.930 . S
C1609 C1608 1.376 . S
C1609 C1610 1.388 . S
C1610 H1597 0.930 . S
C1610 C1609 1.388 . S
C1610 C1611 1.390 . S
C1611 C1610 1.390 . S
C1611 C1612 1.394 . S
C1611 C1617 1.465 . S
C1612 C1607 1.399 . S
C1612 C1611 1.394 . S
C1612 C1613 1.516 . S
C1613 C1612 1.516 . S
C1613 C1614 1.502 . S
C1613 C1615 1.561 . S
C1613 C1616 1.526 . S
C1614 H1598 0.959 . S
C1614 H1599 0.959 . S
C1614 H1600 0.961 . S
C1614 C1613 1.502 . S
C1615 H1601 0.960 . S
C1615 H1602 0.961 . S
C1615 H1603 0.959 . S
C1615 C1613 1.561 . S
C1616 C1613 1.526 . S
C1616 C1617 1.396 . S
C1616 C1621 1.390 . S
C1617 C1611 1.465 . S
C1617 C1616 1.396 . S
C1617 C1618 1.399 . S
C1618 H1604 0.929 . S
C1618 C1617 1.399 . S
C1618 C1619 1.385 . S
C1619 H1605 0.931 . S
C1619 C1618 1.385 . S
C1619 C1620 1.389 . S
C1620 C1619 1.389 . S
C1620 C1621 1.387 . S
C1621 H1606 0.930 . S
C1621 C1616 1.390 . S
C1621 C1620 1.387 . S
H1622 C1634 0.930 . S
H1623 C1636 0.930 . S
H1624 C1637 0.930 . S
H1625 C1641 0.959 . S
H1626 C1641 0.959 . S
H1627 C1641 0.961 . S
H1628 C1642 0.960 . S
H1629 C1642 0.961 . S
H1630 C1642 0.959 . S
H1631 C1645 0.929 . S
H1632 C1646 0.931 . S
H1633 C1648 0.933 1_545 S
C1634 H1622 0.930 . S
C1634 C1635 1.384 1_545 S
C1634 C1639 1.399 . S
C1635 C1634 1.384 1_565 S
C1635 C1636 1.400 . S
C1636 H1623 0.930 . S
C1636 C1635 1.400 . S
C1636 C1637 1.388 . S
C1637 H1624 0.930 . S
C1637 C1636 1.388 . S
C1637 C1638 1.390 . S
C1638 C1637 1.390 . S
C1638 C1639 1.394 1_565 S
C1638 C1644 1.465 . S
C1639 C1634 1.399 . S
C1639 C1638 1.394 1_545 S
C1639 C1640 1.516 . S
C1640 C1639 1.516 . S
C1640 C1641 1.502 . S
C1640 C1642 1.561 . S
C1640 C1643 1.512 1_545 S
C1641 H1625 0.959 . S
C1641 H1626 0.959 . S
C1641 H1627 0.961 . S
C1641 C1640 1.502 . S
C1642 H1628 0.960 . S
C1642 H1629 0.961 . S
C1642 H1630 0.959 . S
C1642 C1640 1.561 . S
C1643 C1640 1.512 1_565 S
C1643 C1644 1.412 . S
C1643 C1648 1.389 . S
C1644 C1638 1.465 . S
C1644 C1643 1.412 . S
C1644 C1645 1.399 . S
C1645 H1631 0.929 . S
C1645 C1644 1.399 . S
C1645 C1646 1.385 . S
C1646 H1632 0.931 . S
C1646 C1645 1.385 . S
C1646 C1647 1.389 . S
C1647 C1646 1.389 . S
C1647 C1648 1.383 . S
C1648 H1633 0.933 1_565 S
C1648 C1643 1.389 . S
C1648 C1647 1.383 . S
H1649 C1661 0.930 . S
H1650 C1663 0.930 . S
H1651 C1664 0.930 . S
H1652 C1668 0.959 . S
H1653 C1668 0.959 . S
H1654 C1668 0.961 . S
H1655 C1669 0.960 . S
H1656 C1669 0.961 . S
H1657 C1669 0.959 . S
H1658 C1672 0.929 . S
H1659 C1673 0.931 . S
H1660 C1675 0.930 . S
C1661 H1649 0.930 . S
C1661 C1662 1.399 . S
C1661 C1666 1.399 . S
C1662 C1661 1.399 . S
C1662 C1663 1.376 . S
C1663 H1650 0.930 . S
C1663 C1662 1.376 . S
C1663 C1664 1.388 . S
C1664 H1651 0.930 . S
C1664 C1663 1.388 . S
C1664 C1665 1.390 . S
C1665 C1664 1.390 . S
C1665 C1666 1.394 . S
C1665 C1671 1.465 . S
C1666 C1661 1.399 . S
C1666 C1665 1.394 . S
C1666 C1667 1.516 . S
C1667 C1666 1.516 . S
C1667 C1668 1.502 . S
C1667 C1669 1.561 . S
C1667 C1670 1.526 . S
C1668 H1652 0.959 . S
C1668 H1653 0.959 . S
C1668 H1654 0.961 . S
C1668 C1667 1.502 . S
C1669 H1655 0.960 . S
C1669 H1656 0.961 . S
C1669 H1657 0.959 . S
C1669 C1667 1.561 . S
C1670 C1667 1.526 . S
C1670 C1671 1.396 . S
C1670 C1675 1.390 . S
C1671 C1665 1.465 . S
C1671 C1670 1.396 . S
C1671 C1672 1.399 . S
C1672 H1658 0.929 . S
C1672 C1671 1.399 . S
C1672 C1673 1.385 . S
C1673 H1659 0.931 . S
C1673 C1672 1.385 . S
C1673 C1674 1.389 . S
C1674 C1673 1.389 . S
C1674 C1675 1.387 . S
C1675 H1660 0.930 . S
C1675 C1670 1.390 . S
C1675 C1674 1.387 . S
H1676 C1688 0.930 1_565 S
H1677 C1690 0.930 . S
H1678 C1691 0.930 . S
H1679 C1695 0.959 . S
H1680 C1695 0.959 . S
H1681 C1695 0.961 . S
H1682 C1696 0.960 . S
H1683 C1696 0.961 . S
H1684 C1696 0.959 1_545 S
H1685 C1699 0.929 . S
H1686 C1700 0.931 1_455 S
H1687 C1702 0.930 . S
C1688 H1676 0.930 1_545 S
C1688 C1689 1.399 . S
C1688 C1693 1.399 . S
C1689 C1688 1.399 . S
C1689 C1690 1.376 . S
C1690 H1677 0.930 . S
C1690 C1689 1.376 . S
C1690 C1691 1.388 . S
C1691 H1678 0.930 . S
C1691 C1690 1.388 . S
C1691 C1692 1.390 . S
C1692 C1691 1.390 . S
C1692 C1693 1.394 . S
C1692 C1698 1.465 . S
C1693 C1688 1.399 . S
C1693 C1692 1.394 . S
C1693 C1694 1.516 1_545 S
C1694 C1693 1.516 1_565 S
C1694 C1695 1.502 . S
C1694 C1696 1.561 . S
C1694 C1697 1.526 . S
C1695 H1679 0.959 . S
C1695 H1680 0.959 . S
C1695 H1681 0.961 . S
C1695 C1694 1.502 . S
C1696 H1682 0.960 . S
C1696 H1683 0.961 . S
C1696 H1684 0.959 1_565 S
C1696 C1694 1.561 . S
C1697 C1694 1.526 . S
C1697 C1698 1.396 1_565 S
C1697 C1702 1.390 . S
C1698 C1692 1.465 . S
C1698 C1697 1.396 1_545 S
C1698 C1699 1.399 . S
C1699 H1685 0.929 . S
C1699 C1698 1.399 . S
C1699 C1700 1.385 . S
C1700 H1686 0.931 1_655 S
C1700 C1699 1.385 . S
C1700 C1701 1.389 1_545 S
C1701 C1700 1.389 1_565 S
C1701 C1702 1.387 . S
C1702 H1687 0.930 . S
C1702 C1697 1.390 . S
C1702 C1701 1.387 . S
H1703 C1715 0.930 . S
H1704 C1717 0.930 . S
H1705 C1718 0.930 . S
H1706 C1722 0.959 . S
H1707 C1722 0.959 . S
H1708 C1722 0.961 . S
H1709 C1723 0.960 . S
H1710 C1723 0.961 . S
H1711 C1723 0.959 . S
H1712 C1726 0.929 . S
H1713 C1727 0.931 . S
H1714 C1729 0.930 . S
C1715 H1703 0.930 . S
C1715 C1716 1.399 . S
C1715 C1720 1.399 . S
C1716 C1715 1.399 . S
C1716 C1717 1.376 . S
C1717 H1704 0.930 . S
C1717 C1716 1.376 . S
C1717 C1718 1.388 . S
C1718 H1705 0.930 . S
C1718 C1717 1.388 . S
C1718 C1719 1.390 . S
C1719 C1718 1.390 . S
C1719 C1720 1.394 . S
C1719 C1725 1.465 . S
C1720 C1715 1.399 . S
C1720 C1719 1.394 . S
C1720 C1721 1.516 . S
C1721 C1720 1.516 . S
C1721 C1722 1.502 . S
C1721 C1723 1.561 . S
C1721 C1724 1.526 . S
C1722 H1706 0.959 . S
C1722 H1707 0.959 . S
C1722 H1708 0.961 . S
C1722 C1721 1.502 . S
C1723 H1709 0.960 . S
C1723 H1710 0.961 . S
C1723 H1711 0.959 . S
C1723 C1721 1.561 . S
C1724 C1721 1.526 . S
C1724 C1725 1.396 . S
C1724 C1729 1.390 . S
C1725 C1719 1.465 . S
C1725 C1724 1.396 . S
C1725 C1726 1.399 . S
C1726 H1712 0.929 . S
C1726 C1725 1.399 . S
C1726 C1727 1.385 . S
C1727 H1713 0.931 . S
C1727 C1726 1.385 . S
C1727 C1728 1.389 . S
C1728 C1727 1.389 . S
C1728 C1729 1.387 . S
C1729 H1714 0.930 . S
C1729 C1724 1.390 . S
C1729 C1728 1.387 . S
H1730 C1742 0.930 . S
H1731 C1744 0.930 . S
H1732 C1745 0.930 . S
H1733 C1749 0.959 . S
H1734 C1749 0.959 . S
H1735 C1749 0.961 . S
H1736 C1750 0.960 . S
H1737 C1750 0.961 . S
H1738 C1750 0.959 . S
H1739 C1753 0.929 . S
H1740 C1754 0.931 . S
H1741 C1756 0.930 1_565 S
C1742 H1730 0.930 . S
C1742 C1743 1.399 1_565 S
C1742 C1747 1.399 . S
C1743 C1742 1.399 1_545 S
C1743 C1744 1.376 . S
C1744 H1731 0.930 . S
C1744 C1743 1.376 . S
C1744 C1745 1.388 . S
C1745 H1732 0.930 . S
C1745 C1744 1.388 . S
C1745 C1746 1.390 . S
C1746 C1745 1.390 . S
C1746 C1747 1.394 1_545 S
C1746 C1752 1.465 . S
C1747 C1742 1.399 . S
C1747 C1746 1.394 1_565 S
C1747 C1748 1.516 . S
C1748 C1747 1.516 . S
C1748 C1749 1.502 . S
C1748 C1750 1.561 . S
C1748 C1751 1.526 1_565 S
C1749 H1733 0.959 . S
C1749 H1734 0.959 . S
C1749 H1735 0.961 . S
C1749 C1748 1.502 . S
C1750 H1736 0.960 . S
C1750 H1737 0.961 . S
C1750 H1738 0.959 . S
C1750 C1748 1.561 . S
C1751 C1748 1.526 1_545 S
C1751 C1752 1.396 . S
C1751 C1756 1.390 . S
C1752 C1746 1.465 . S
C1752 C1751 1.396 . S
C1752 C1753 1.399 . S
C1753 H1739 0.929 . S
C1753 C1752 1.399 . S
C1753 C1754 1.385 . S
C1754 H1740 0.931 . S
C1754 C1753 1.385 . S
C1754 C1755 1.389 . S
C1755 C1754 1.389 . S
C1755 C1756 1.387 . S
C1756 H1741 0.930 1_545 S
C1756 C1751 1.390 . S
C1756 C1755 1.387 . S
H1757 C1769 0.930 . S
H1758 C1771 0.930 . S
H1759 C1772 0.930 . S
H1760 C1776 0.959 . S
H1761 C1776 0.959 . S
H1762 C1776 0.961 . S
H1763 C1777 0.960 . S
H1764 C1777 0.961 . S
H1765 C1777 0.959 . S
H1766 C1780 0.929 . S
H1767 C1781 0.931 . S
H1768 C1783 0.930 . S
C1769 H1757 0.930 . S
C1769 C1770 1.399 . S
C1769 C1774 1.399 . S
C1770 C1769 1.399 . S
C1770 C1771 1.376 . S
C1771 H1758 0.930 . S
C1771 C1770 1.376 . S
C1771 C1772 1.388 . S
C1772 H1759 0.930 . S
C1772 C1771 1.388 . S
C1772 C1773 1.390 . S
C1773 C1772 1.390 . S
C1773 C1774 1.394 . S
C1773 C1779 1.465 . S
C1774 C1769 1.399 . S
C1774 C1773 1.394 . S
C1774 C1775 1.516 . S
C1775 C1774 1.516 . S
C1775 C1776 1.502 . S
C1775 C1777 1.561 . S
C1775 C1778 1.526 . S
C1776 H1760 0.959 . S
C1776 H1761 0.959 . S
C1776 H1762 0.961 . S
C1776 C1775 1.502 . S
C1777 H1763 0.960 . S
C1777 H1764 0.961 . S
C1777 H1765 0.959 . S
C1777 C1775 1.561 . S
C1778 C1775 1.526 . S
C1778 C1779 1.396 . S
C1778 C1783 1.390 . S
C1779 C1773 1.465 . S
C1779 C1778 1.396 . S
C1779 C1780 1.399 . S
C1780 H1766 0.929 . S
C1780 C1779 1.399 . S
C1780 C1781 1.385 . S
C1781 H1767 0.931 . S
C1781 C1780 1.385 . S
C1781 C1782 1.389 . S
C1782 C1781 1.389 . S
C1782 C1783 1.387 . S
C1783 H1768 0.930 . S
C1783 C1778 1.390 . S
C1783 C1782 1.387 . S
H1784 C1796 0.930 . S
H1785 C1798 0.930 . S
H1786 C1799 0.930 . S
H1787 C1803 0.959 . S
H1788 C1803 0.959 . S
H1789 C1803 0.961 . S
H1790 C1804 0.960 . S
H1791 C1804 0.961 . S
H1792 C1804 0.959 . S
H1793 C1807 0.929 . S
H1794 C1808 0.931 1_556 S
H1795 C1810 0.930 . S
C1796 H1784 0.930 . S
C1796 C1797 1.399 . S
C1796 C1801 1.399 . S
C1797 C1796 1.399 . S
C1797 C1798 1.376 1_554 S
C1798 H1785 0.930 . S
C1798 C1797 1.376 1_556 S
C1798 C1799 1.388 . S
C1799 H1786 0.930 . S
C1799 C1798 1.388 . S
C1799 C1800 1.390 1_556 S
C1800 C1799 1.390 1_554 S
C1800 C1801 1.394 . S
C1800 C1806 1.465 . S
C1801 C1796 1.399 . S
C1801 C1800 1.394 . S
C1801 C1802 1.516 . S
C1802 C1801 1.516 . S
C1802 C1803 1.502 . S
C1802 C1804 1.561 . S
C1802 C1805 1.526 . S
C1803 H1787 0.959 . S
C1803 H1788 0.959 . S
C1803 H1789 0.961 . S
C1803 C1802 1.502 . S
C1804 H1790 0.960 . S
C1804 H1791 0.961 . S
C1804 H1792 0.959 . S
C1804 C1802 1.561 . S
C1805 C1802 1.526 . S
C1805 C1806 1.396 . S
C1805 C1810 1.390 . S
C1806 C1800 1.465 . S
C1806 C1805 1.396 . S
C1806 C1807 1.399 1_554 S
C1807 H1793 0.929 . S
C1807 C1806 1.399 1_556 S
C1807 C1808 1.385 1_556 S
C1808 H1794 0.931 1_554 S
C1808 C1807 1.385 1_554 S
C1808 C1809 1.389 . S
C1809 C1808 1.389 . S
C1809 C1810 1.387 . S
C1810 H1795 0.930 . S
C1810 C1805 1.390 . S
C1810 C1809 1.387 . S
H1811 C1823 0.930 . S
H1812 C1825 0.930 . S
H1813 C1826 0.930 . S
H1814 C1830 0.959 . S
H1815 C1830 0.959 . S
H1816 C1830 0.961 . S
H1817 C1831 0.960 . S
H1818 C1831 0.961 . S
H1819 C1831 0.959 . S
H1820 C1834 0.929 . S
H1821 C1835 0.931 . S
H1822 C1837 0.930 . S
C1823 H1811 0.930 . S
C1823 C1824 1.415 . S
C1823 C1828 1.399 . S
C1824 C1823 1.415 . S
C1824 C1825 1.353 1_554 S
C1825 H1812 0.930 . S
C1825 C1824 1.353 1_556 S
C1825 C1826 1.388 . S
C1826 H1813 0.930 . S
C1826 C1825 1.388 . S
C1826 C1827 1.390 . S
C1827 C1826 1.390 . S
C1827 C1828 1.394 1_556 S
C1827 C1833 1.465 . S
C1828 C1823 1.399 . S
C1828 C1827 1.394 1_554 S
C1828 C1829 1.516 . S
C1829 C1828 1.516 . S
C1829 C1830 1.502 . S
C1829 C1831 1.561 . S
C1829 C1832 1.526 . S
C1830 H1814 0.959 . S
C1830 H1815 0.959 . S
C1830 H1816 0.961 . S
C1830 C1829 1.502 . S
C1831 H1817 0.960 . S
C1831 H1818 0.961 . S
C1831 H1819 0.959 . S
C1831 C1829 1.561 . S
C1832 C1829 1.526 . S
C1832 C1833 1.396 1_554 S
C1832 C1837 1.390 . S
C1833 C1827 1.465 . S
C1833 C1832 1.396 1_556 S
C1833 C1834 1.399 . S
C1834 H1820 0.929 . S
C1834 C1833 1.399 . S
C1834 C1835 1.385 . S
C1835 H1821 0.931 . S
C1835 C1834 1.385 . S
C1835 C1836 1.389 . S
C1836 C1835 1.389 . S
C1836 C1837 1.387 1_556 S
C1837 H1822 0.930 . S
C1837 C1832 1.390 . S
C1837 C1836 1.387 1_554 S
H1838 C1850 0.930 . S
H1839 C1852 0.930 . S
H1840 C1853 0.930 . S
H1841 C1857 0.959 . S
H1842 C1857 0.959 . S
H1843 C1857 0.961 . S
H1844 C1858 0.960 . S
H1845 C1858 0.961 . S
H1846 C1858 0.959 . S
H1847 C1861 0.929 . S
H1848 C1862 0.931 . S
H1849 C1864 0.930 . S
C1850 H1838 0.930 . S
C1850 C1851 1.399 . S
C1850 C1855 1.399 . S
C1851 C1850 1.399 . S
C1851 C1852 1.376 . S
C1852 H1839 0.930 . S
C1852 C1851 1.376 . S
C1852 C1853 1.388 . S
C1853 H1840 0.930 . S
C1853 C1852 1.388 . S
C1853 C1854 1.390 . S
C1854 C1853 1.390 . S
C1854 C1855 1.394 . S
C1854 C1860 1.465 . S
C1855 C1850 1.399 . S
C1855 C1854 1.394 . S
C1855 C1856 1.516 . S
C1856 C1855 1.516 . S
C1856 C1857 1.502 . S
C1856 C1858 1.561 . S
C1856 C1859 1.526 . S
C1857 H1841 0.959 . S
C1857 H1842 0.959 . S
C1857 H1843 0.961 . S
C1857 C1856 1.502 . S
C1858 H1844 0.960 . S
C1858 H1845 0.961 . S
C1858 H1846 0.959 . S
C1858 C1856 1.561 . S
C1859 C1856 1.526 . S
C1859 C1860 1.396 . S
C1859 C1864 1.390 . S
C1860 C1854 1.465 . S
C1860 C1859 1.396 . S
C1860 C1861 1.399 . S
C1861 H1847 0.929 . S
C1861 C1860 1.399 . S
C1861 C1862 1.385 . S
C1862 H1848 0.931 . S
C1862 C1861 1.385 . S
C1862 C1863 1.389 . S
C1863 C1862 1.389 . S
C1863 C1864 1.387 . S
C1864 H1849 0.930 . S
C1864 C1859 1.390 . S
C1864 C1863 1.387 . S
H1865 C1877 0.930 . S
H1866 C1879 0.930 . S
H1867 C1880 0.930 . S
H1868 C1884 0.959 . S
H1869 C1884 0.959 . S
H1870 C1884 0.961 . S
H1871 C1885 0.960 . S
H1872 C1885 0.961 . S
H1873 C1885 0.959 . S
H1874 C1888 0.929 . S
H1875 C1889 0.931 . S
H1876 C1891 0.930 . S
C1877 H1865 0.930 . S
C1877 C1878 1.399 . S
C1877 C1882 1.399 . S
C1878 C1877 1.399 . S
C1878 C1879 1.376 . S
C1879 H1866 0.930 . S
C1879 C1878 1.376 . S
C1879 C1880 1.388 . S
C1880 H1867 0.930 . S
C1880 C1879 1.388 . S
C1880 C1881 1.390 . S
C1881 C1880 1.390 . S
C1881 C1882 1.394 . S
C1881 C1887 1.465 . S
C1882 C1877 1.399 . S
C1882 C1881 1.394 . S
C1882 C1883 1.516 . S
C1883 C1882 1.516 . S
C1883 C1884 1.502 . S
C1883 C1885 1.561 . S
C1883 C1886 1.526 . S
C1884 H1868 0.959 . S
C1884 H1869 0.959 . S
C1884 H1870 0.961 . S
C1884 C1883 1.502 . S
C1885 H1871 0.960 . S
C1885 H1872 0.961 . S
C1885 H1873 0.959 . S
C1885 C1883 1.561 . S
C1886 C1883 1.526 . S
C1886 C1887 1.396 . S
C1886 C1891 1.390 . S
C1887 C1881 1.465 . S
C1887 C1886 1.396 . S
C1887 C1888 1.399 . S
C1888 H1874 0.929 . S
C1888 C1887 1.399 . S
C1888 C1889 1.385 . S
C1889 H1875 0.931 . S
C1889 C1888 1.385 . S
C1889 C1890 1.389 . S
C1890 C1889 1.389 . S
C1890 C1891 1.387 . S
C1891 H1876 0.930 . S
C1891 C1886 1.390 . S
C1891 C1890 1.387 . S
H1892 C1904 0.930 . S
H1893 C1906 0.930 . S
H1894 C1907 0.930 . S
H1895 C1911 0.959 . S
H1896 C1911 0.959 . S
H1897 C1911 0.961 . S
H1898 C1912 0.960 . S
H1899 C1912 0.961 . S
H1900 C1912 0.959 . S
H1901 C1915 0.929 . S
H1902 C1916 0.931 . S
H1903 C1918 0.930 . S
C1904 H1892 0.930 . S
C1904 C1905 1.399 . S
C1904 C1909 1.399 . S
C1905 C1904 1.399 . S
C1905 C1906 1.376 . S
C1906 H1893 0.930 . S
C1906 C1905 1.376 . S
C1906 C1907 1.388 . S
C1907 H1894 0.930 . S
C1907 C1906 1.388 . S
C1907 C1908 1.390 . S
C1908 C1907 1.390 . S
C1908 C1909 1.394 . S
C1908 C1914 1.465 . S
C1909 C1904 1.399 . S
C1909 C1908 1.394 . S
C1909 C1910 1.516 . S
C1910 C1909 1.516 . S
C1910 C1911 1.502 . S
C1910 C1912 1.561 . S
C1910 C1913 1.526 . S
C1911 H1895 0.959 . S
C1911 H1896 0.959 . S
C1911 H1897 0.961 . S
C1911 C1910 1.502 . S
C1912 H1898 0.960 . S
C1912 H1899 0.961 . S
C1912 H1900 0.959 . S
C1912 C1910 1.561 . S
C1913 C1910 1.526 . S
C1913 C1914 1.396 . S
C1913 C1918 1.390 . S
C1914 C1908 1.465 . S
C1914 C1913 1.396 . S
C1914 C1915 1.399 . S
C1915 H1901 0.929 . S
C1915 C1914 1.399 . S
C1915 C1916 1.385 . S
C1916 H1902 0.931 . S
C1916 C1915 1.385 . S
C1916 C1917 1.389 . S
C1917 C1916 1.389 . S
C1917 C1918 1.387 . S
C1918 H1903 0.930 . S
C1918 C1913 1.390 . S
C1918 C1917 1.387 . S
H1919 C1931 0.930 . S
H1920 C1933 0.930 . S
H1921 C1934 0.930 . S
H1922 C1938 0.959 . S
H1923 C1938 0.959 . S
H1924 C1938 0.961 . S
H1925 C1939 0.960 . S
H1926 C1939 0.961 . S
H1927 C1939 0.959 . S
H1928 C1942 0.929 . S
H1929 C1943 0.931 . S
H1930 C1945 0.930 . S
C1931 H1919 0.930 . S
C1931 C1932 1.399 . S
C1931 C1936 1.399 . S
C1932 C1931 1.399 . S
C1932 C1933 1.376 . S
C1933 H1920 0.930 . S
C1933 C1932 1.376 . S
C1933 C1934 1.388 . S
C1934 H1921 0.930 . S
C1934 C1933 1.388 . S
C1934 C1935 1.390 . S
C1935 C1934 1.390 . S
C1935 C1936 1.394 . S
C1935 C1941 1.465 . S
C1936 C1931 1.399 . S
C1936 C1935 1.394 . S
C1936 C1937 1.516 . S
C1937 C1936 1.516 . S
C1937 C1938 1.502 . S
C1937 C1939 1.561 . S
C1937 C1940 1.526 . S
C1938 H1922 0.959 . S
C1938 H1923 0.959 . S
C1938 H1924 0.961 . S
C1938 C1937 1.502 . S
C1939 H1925 0.960 . S
C1939 H1926 0.961 . S
C1939 H1927 0.959 . S
C1939 C1937 1.561 . S
C1940 C1937 1.526 . S
C1940 C1941 1.396 . S
C1940 C1945 1.390 . S
C1941 C1935 1.465 . S
C1941 C1940 1.396 . S
C1941 C1942 1.399 . S
C1942 H1928 0.929 . S
C1942 C1941 1.399 . S
C1942 C1943 1.385 . S
C1943 H1929 0.931 . S
C1943 C1942 1.385 . S
C1943 C1944 1.389 . S
C1944 C1943 1.389 . S
C1944 C1945 1.387 . S
C1945 H1930 0.930 . S
C1945 C1940 1.390 . S
C1945 C1944 1.387 . S
H1946 C1958 0.930 . S
H1947 C1960 0.930 . S
H1948 C1961 0.930 . S
H1949 C1965 0.959 . S
H1950 C1965 0.959 . S
H1951 C1965 0.961 . S
H1952 C1966 0.960 . S
H1953 C1966 0.961 . S
H1954 C1966 0.959 . S
H1955 C1969 0.929 . S
H1956 C1970 0.931 . S
H1957 C1972 0.930 . S
C1958 H1946 0.930 . S
C1958 C1959 1.399 . S
C1958 C1963 1.399 . S
C1959 C1958 1.399 . S
C1959 C1960 1.376 . S
C1960 H1947 0.930 . S
C1960 C1959 1.376 . S
C1960 C1961 1.388 . S
C1961 H1948 0.930 . S
C1961 C1960 1.388 . S
C1961 C1962 1.390 . S
C1962 C1961 1.390 . S
C1962 C1963 1.394 . S
C1962 C1968 1.465 . S
C1963 C1958 1.399 . S
C1963 C1962 1.394 . S
C1963 C1964 1.516 . S
C1964 C1963 1.516 . S
C1964 C1965 1.502 . S
C1964 C1966 1.561 . S
C1964 C1967 1.526 . S
C1965 H1949 0.959 . S
C1965 H1950 0.959 . S
C1965 H1951 0.961 . S
C1965 C1964 1.502 . S
C1966 H1952 0.960 . S
C1966 H1953 0.961 . S
C1966 H1954 0.959 . S
C1966 C1964 1.561 . S
C1967 C1964 1.526 . S
C1967 C1968 1.396 . S
C1967 C1972 1.390 . S
C1968 C1962 1.465 . S
C1968 C1967 1.396 . S
C1968 C1969 1.399 . S
C1969 H1955 0.929 . S
C1969 C1968 1.399 . S
C1969 C1970 1.385 . S
C1970 H1956 0.931 . S
C1970 C1969 1.385 . S
C1970 C1971 1.389 . S
C1971 C1970 1.389 . S
C1971 C1972 1.387 . S
C1972 H1957 0.930 . S
C1972 C1967 1.390 . S
C1972 C1971 1.387 . S
H1973 C1985 0.930 . S
H1974 C1987 0.930 . S
H1975 C1988 0.930 . S
H1976 C1992 0.959 . S
H1977 C1992 0.959 . S
H1978 C1992 0.961 . S
H1979 C1993 0.960 . S
H1980 C1993 0.961 . S
H1981 C1993 0.959 . S
H1982 C1996 0.929 . S
H1983 C1997 0.931 . S
H1984 C1999 0.930 . S
C1985 H1973 0.930 . S
C1985 C1986 1.399 . S
C1985 C1990 1.399 . S
C1986 C1985 1.399 . S
C1986 C1987 1.376 . S
C1987 H1974 0.930 . S
C1987 C1986 1.376 . S
C1987 C1988 1.388 . S
C1988 H1975 0.930 . S
C1988 C1987 1.388 . S
C1988 C1989 1.390 . S
C1989 C1988 1.390 . S
C1989 C1990 1.394 . S
C1989 C1995 1.465 . S
C1990 C1985 1.399 . S
C1990 C1989 1.394 . S
C1990 C1991 1.516 . S
C1991 C1990 1.516 . S
C1991 C1992 1.502 . S
C1991 C1993 1.561 . S
C1991 C1994 1.526 . S
C1992 H1976 0.959 . S
C1992 H1977 0.959 . S
C1992 H1978 0.961 . S
C1992 C1991 1.502 . S
C1993 H1979 0.960 . S
C1993 H1980 0.961 . S
C1993 H1981 0.959 . S
C1993 C1991 1.561 . S
C1994 C1991 1.526 . S
C1994 C1995 1.396 . S
C1994 C1999 1.390 . S
C1995 C1989 1.465 . S
C1995 C1994 1.396 . S
C1995 C1996 1.399 . S
C1996 H1982 0.929 . S
C1996 C1995 1.399 . S
C1996 C1997 1.385 . S
C1997 H1983 0.931 . S
C1997 C1996 1.385 . S
C1997 C1998 1.389 . S
C1998 C1997 1.389 . S
C1998 C1999 1.387 . S
C1999 H1984 0.930 . S
C1999 C1994 1.390 . S
C1999 C1998 1.387 . S
H2000 C2012 0.930 . S
H2001 C2014 0.930 . S
H2002 C2015 0.930 . S
H2003 C2019 0.959 . S
H2004 C2019 0.959 . S
H2005 C2019 0.961 . S
H2006 C2020 0.960 . S
H2007 C2020 0.961 . S
H2008 C2020 0.959 . S
H2009 C2023 0.929 . S
H2010 C2024 0.931 . S
H2011 C2026 0.930 . S
C2012 H2000 0.930 . S
C2012 C2013 1.399 . S
C2012 C2017 1.399 . S
C2013 C2012 1.399 . S
C2013 C2014 1.376 . S
C2014 H2001 0.930 . S
C2014 C2013 1.376 . S
C2014 C2015 1.388 . S
C2015 H2002 0.930 . S
C2015 C2014 1.388 . S
C2015 C2016 1.390 . S
C2016 C2015 1.390 . S
C2016 C2017 1.394 . S
C2016 C2022 1.465 . S
C2017 C2012 1.399 . S
C2017 C2016 1.394 . S
C2017 C2018 1.516 . S
C2018 C2017 1.516 . S
C2018 C2019 1.502 . S
C2018 C2020 1.561 . S
C2018 C2021 1.526 . S
C2019 H2003 0.959 . S
C2019 H2004 0.959 . S
C2019 H2005 0.961 . S
C2019 C2018 1.502 . S
C2020 H2006 0.960 . S
C2020 H2007 0.961 . S
C2020 H2008 0.959 . S
C2020 C2018 1.561 . S
C2021 C2018 1.526 . S
C2021 C2022 1.396 . S
C2021 C2026 1.390 . S
C2022 C2016 1.465 . S
C2022 C2021 1.396 . S
C2022 C2023 1.399 . S
C2023 H2009 0.929 . S
C2023 C2022 1.399 . S
C2023 C2024 1.385 . S
C2024 H2010 0.931 . S
C2024 C2023 1.385 . S
C2024 C2025 1.389 . S
C2025 C2024 1.389 . S
C2025 C2026 1.387 . S
C2026 H2011 0.930 . S
C2026 C2021 1.390 . S
C2026 C2025 1.387 . S
H2027 C2039 0.930 . S
H2028 C2041 0.930 . S
H2029 C2042 0.930 . S
H2030 C2046 0.959 . S
H2031 C2046 0.959 . S
H2032 C2046 0.961 . S
H2033 C2047 0.960 . S
H2034 C2047 0.961 . S
H2035 C2047 0.959 . S
H2036 C2050 0.929 . S
H2037 C2051 0.931 . S
H2038 C2053 0.930 . S
C2039 H2027 0.930 . S
C2039 C2040 1.399 . S
C2039 C2044 1.399 . S
C2040 C2039 1.399 . S
C2040 C2041 1.376 . S
C2041 H2028 0.930 . S
C2041 C2040 1.376 . S
C2041 C2042 1.388 . S
C2042 H2029 0.930 . S
C2042 C2041 1.388 . S
C2042 C2043 1.390 . S
C2043 C2042 1.390 . S
C2043 C2044 1.394 . S
C2043 C2049 1.465 . S
C2044 C2039 1.399 . S
C2044 C2043 1.394 . S
C2044 C2045 1.516 . S
C2045 C2044 1.516 . S
C2045 C2046 1.502 . S
C2045 C2047 1.561 . S
C2045 C2048 1.526 . S
C2046 H2030 0.959 . S
C2046 H2031 0.959 . S
C2046 H2032 0.961 . S
C2046 C2045 1.502 . S
C2047 H2033 0.960 . S
C2047 H2034 0.961 . S
C2047 H2035 0.959 . S
C2047 C2045 1.561 . S
C2048 C2045 1.526 . S
C2048 C2049 1.396 . S
C2048 C2053 1.390 . S
C2049 C2043 1.465 . S
C2049 C2048 1.396 . S
C2049 C2050 1.399 . S
C2050 H2036 0.929 . S
C2050 C2049 1.399 . S
C2050 C2051 1.385 . S
C2051 H2037 0.931 . S
C2051 C2050 1.385 . S
C2051 C2052 1.389 . S
C2052 C2051 1.389 . S
C2052 C2053 1.387 . S
C2053 H2038 0.930 . S
C2053 C2048 1.390 . S
C2053 C2052 1.387 . S
H2054 C2066 0.930 1_655 S
H2055 C2068 0.930 . S
H2056 C2069 0.930 . S
H2057 C2073 0.959 . S
H2058 C2073 0.959 . S
H2059 C2073 0.961 . S
H2060 C2074 0.960 . S
H2061 C2074 0.961 . S
H2062 C2074 0.959 . S
H2063 C2077 0.929 . S
H2064 C2078 0.931 . S
H2065 C2080 0.930 . S
C2066 H2054 0.930 1_455 S
C2066 C2067 1.399 . S
C2066 C2071 1.399 . S
C2067 C2066 1.399 . S
C2067 C2068 1.376 . S
C2068 H2055 0.930 . S
C2068 C2067 1.376 . S
C2068 C2069 1.388 . S
C2069 H2056 0.930 . S
C2069 C2068 1.388 . S
C2069 C2070 1.390 . S
C2070 C2069 1.390 . S
C2070 C2071 1.394 . S
C2070 C2076 1.465 . S
C2071 C2066 1.399 . S
C2071 C2070 1.394 . S
C2071 C2072 1.516 . S
C2072 C2071 1.516 . S
C2072 C2073 1.502 1_455 S
C2072 C2074 1.561 . S
C2072 C2075 1.526 . S
C2073 H2057 0.959 . S
C2073 H2058 0.959 . S
C2073 H2059 0.961 . S
C2073 C2072 1.502 1_655 S
C2074 H2060 0.960 . S
C2074 H2061 0.961 . S
C2074 H2062 0.959 . S
C2074 C2072 1.561 . S
C2075 C2072 1.526 . S
C2075 C2076 1.396 . S
C2075 C2080 1.390 . S
C2076 C2070 1.465 . S
C2076 C2075 1.396 . S
C2076 C2077 1.399 . S
C2077 H2063 0.929 . S
C2077 C2076 1.399 . S
C2077 C2078 1.385 . S
C2078 H2064 0.931 . S
C2078 C2077 1.385 . S
C2078 C2079 1.389 . S
C2079 C2078 1.389 . S
C2079 C2080 1.387 . S
C2080 H2065 0.930 . S
C2080 C2075 1.390 . S
C2080 C2079 1.387 . S
H2081 C2093 0.930 . S
H2082 C2095 0.930 . S
H2083 C2096 0.930 . S
H2084 C2100 0.959 . S
H2085 C2100 0.959 . S
H2086 C2100 0.961 . S
H2087 C2101 0.960 . S
H2088 C2101 0.961 . S
H2089 C2101 0.959 . S
H2090 C2104 0.929 . S
H2091 C2105 0.931 . S
H2092 C2107 0.930 . S
C2093 H2081 0.930 . S
C2093 C2094 1.399 . S
C2093 C2098 1.399 . S
C2094 C2093 1.399 . S
C2094 C2095 1.376 . S
C2095 H2082 0.930 . S
C2095 C2094 1.376 . S
C2095 C2096 1.388 . S
C2096 H2083 0.930 . S
C2096 C2095 1.388 . S
C2096 C2097 1.390 . S
C2097 C2096 1.390 . S
C2097 C2098 1.394 . S
C2097 C2103 1.465 . S
C2098 C2093 1.399 . S
C2098 C2097 1.394 . S
C2098 C2099 1.516 . S
C2099 C2098 1.516 . S
C2099 C2100 1.502 . S
C2099 C2101 1.561 . S
C2099 C2102 1.526 . S
C2100 H2084 0.959 . S
C2100 H2085 0.959 . S
C2100 H2086 0.961 . S
C2100 C2099 1.502 . S
C2101 H2087 0.960 . S
C2101 H2088 0.961 . S
C2101 H2089 0.959 . S
C2101 C2099 1.561 . S
C2102 C2099 1.526 . S
C2102 C2103 1.396 . S
C2102 C2107 1.390 . S
C2103 C2097 1.465 . S
C2103 C2102 1.396 . S
C2103 C2104 1.399 . S
C2104 H2090 0.929 . S
C2104 C2103 1.399 . S
C2104 C2105 1.385 . S
C2105 H2091 0.931 . S
C2105 C2104 1.385 . S
C2105 C2106 1.389 . S
C2106 C2105 1.389 . S
C2106 C2107 1.387 . S
C2107 H2092 0.930 . S
C2107 C2102 1.390 . S
C2107 C2106 1.387 . S
H2108 C2120 0.930 . S
H2109 C2122 0.930 . S
H2110 C2123 0.930 . S
H2111 C2127 0.959 . S
H2112 C2127 0.959 1_554 S
H2113 C2127 0.961 . S
H2114 C2128 0.959 1_556 S
H2115 C2128 0.986 . S
H2116 C2128 0.951 1_556 S
H2117 C2131 0.929 . S
H2118 C2132 0.931 . S
H2119 C2134 0.904 1_554 S
C2120 H2108 0.930 . S
C2120 C2121 1.399 . S
C2120 C2125 1.399 . S
C2121 C2120 1.399 . S
C2121 C2122 1.376 . S
C2122 H2109 0.930 . S
C2122 C2121 1.376 . S
C2122 C2123 1.388 . S
C2123 H2110 0.930 . S
C2123 C2122 1.388 . S
C2123 C2124 1.390 . S
C2124 C2123 1.390 . S
C2124 C2125 1.394 . S
C2124 C2130 1.465 . S
C2125 C2120 1.399 . S
C2125 C2124 1.394 . S
C2125 C2126 1.516 . S
C2126 C2125 1.516 . S
C2126 C2127 1.502 . S
C2126 C2128 1.546 1_556 S
C2126 C2129 1.526 . S
C2127 H2111 0.959 . S
C2127 H2112 0.959 1_556 S
C2127 H2113 0.961 . S
C2127 C2126 1.502 . S
C2128 H2114 0.959 1_554 S
C2128 H2115 0.986 . S
C2128 H2116 0.951 1_554 S
C2128 C2126 1.546 1_554 S
C2129 C2126 1.526 . S
C2129 C2130 1.396 . S
C2129 C2134 1.409 . S
C2130 C2124 1.465 . S
C2130 C2129 1.396 . S
C2130 C2131 1.399 . S
C2131 H2117 0.929 . S
C2131 C2130 1.399 . S
C2131 C2132 1.385 . S
C2132 H2118 0.931 . S
C2132 C2131 1.385 . S
C2132 C2133 1.389 . S
C2133 C2132 1.389 . S
C2133 C2134 1.394 . S
C2134 H2119 0.904 1_556 S
C2134 C2129 1.409 . S
C2134 C2133 1.394 . S
H2135 C2147 0.930 . S
H2136 C2149 0.930 . S
H2137 C2150 0.930 . S
H2138 C2154 0.959 . S
H2139 C2154 0.959 . S
H2140 C2154 0.961 . S
H2141 C2155 0.960 . S
H2142 C2155 0.961 . S
H2143 C2155 0.959 . S
H2144 C2158 0.929 . S
H2145 C2159 0.931 . S
H2146 C2161 0.930 . S
C2147 H2135 0.930 . S
C2147 C2148 1.399 . S
C2147 C2152 1.399 . S
C2148 C2147 1.399 . S
C2148 C2149 1.376 . S
C2149 H2136 0.930 . S
C2149 C2148 1.376 . S
C2149 C2150 1.388 . S
C2150 H2137 0.930 . S
C2150 C2149 1.388 . S
C2150 C2151 1.390 . S
C2151 C2150 1.390 . S
C2151 C2152 1.394 . S
C2151 C2157 1.465 . S
C2152 C2147 1.399 . S
C2152 C2151 1.394 . S
C2152 C2153 1.516 . S
C2153 C2152 1.516 . S
C2153 C2154 1.502 . S
C2153 C2155 1.561 . S
C2153 C2156 1.526 . S
C2154 H2138 0.959 . S
C2154 H2139 0.959 . S
C2154 H2140 0.961 . S
C2154 C2153 1.502 . S
C2155 H2141 0.960 . S
C2155 H2142 0.961 . S
C2155 H2143 0.959 . S
C2155 C2153 1.561 . S
C2156 C2153 1.526 . S
C2156 C2157 1.396 . S
C2156 C2161 1.390 . S
C2157 C2151 1.465 . S
C2157 C2156 1.396 . S
C2157 C2158 1.399 . S
C2158 H2144 0.929 . S
C2158 C2157 1.399 . S
C2158 C2159 1.385 . S
C2159 H2145 0.931 . S
C2159 C2158 1.385 . S
C2159 C2160 1.389 . S
C2160 C2159 1.389 . S
C2160 C2161 1.387 . S
C2161 H2146 0.930 . S
C2161 C2156 1.390 . S
C2161 C2160 1.387 . S
H2162 C2174 0.930 . S
H2163 C2176 0.930 . S
H2164 C2177 0.930 . S
H2165 C2181 0.959 . S
H2166 C2181 0.959 . S
H2167 C2181 0.961 . S
H2168 C2182 0.960 . S
H2169 C2182 0.961 . S
H2170 C2182 0.959 . S
H2171 C2185 0.929 . S
H2172 C2186 0.919 1_655 S
H2173 C2188 0.930 . S
C2174 H2162 0.930 . S
C2174 C2175 1.399 . S
C2174 C2179 1.399 . S
C2175 C2174 1.399 . S
C2175 C2176 1.376 1_455 S
C2176 H2163 0.930 . S
C2176 C2175 1.376 1_655 S
C2176 C2177 1.388 . S
C2177 H2164 0.930 . S
C2177 C2176 1.388 . S
C2177 C2178 1.390 1_655 S
C2178 C2177 1.390 1_455 S
C2178 C2179 1.394 . S
C2178 C2184 1.465 . S
C2179 C2174 1.399 . S
C2179 C2178 1.394 . S
C2179 C2180 1.516 . S
C2180 C2179 1.516 . S
C2180 C2181 1.502 . S
C2180 C2182 1.561 . S
C2180 C2183 1.526 . S
C2181 H2165 0.959 . S
C2181 H2166 0.959 . S
C2181 H2167 0.961 . S
C2181 C2180 1.502 . S
C2182 H2168 0.960 . S
C2182 H2169 0.961 . S
C2182 H2170 0.959 . S
C2182 C2180 1.561 . S
C2183 C2180 1.526 . S
C2183 C2184 1.396 . S
C2183 C2188 1.390 . S
C2184 C2178 1.465 . S
C2184 C2183 1.396 . S
C2184 C2185 1.399 1_455 S
C2185 H2171 0.929 . S
C2185 C2184 1.399 1_655 S
C2185 C2186 1.377 1_655 S
C2186 H2172 0.919 1_455 S
C2186 C2185 1.377 1_455 S
C2186 C2187 1.409 . S
C2187 C2186 1.409 . S
C2187 C2188 1.387 . S
C2188 H2173 0.930 . S
C2188 C2183 1.390 . S
C2188 C2187 1.387 . S
H2189 C2201 0.930 . S
H2190 C2203 0.930 . S
H2191 C2204 0.930 . S
H2192 C2208 0.959 . S
H2193 C2208 0.959 . S
H2194 C2208 0.961 . S
H2195 C2209 0.960 . S
H2196 C2209 0.961 . S
H2197 C2209 0.959 . S
H2198 C2212 0.929 . S
H2199 C2213 0.931 . S
H2200 C2215 0.930 . S
C2201 H2189 0.930 . S
C2201 C2202 1.399 . S
C2201 C2206 1.399 . S
C2202 C2201 1.399 . S
C2202 C2203 1.376 . S
C2203 H2190 0.930 . S
C2203 C2202 1.376 . S
C2203 C2204 1.388 . S
C2204 H2191 0.930 . S
C2204 C2203 1.388 . S
C2204 C2205 1.390 . S
C2205 C2204 1.390 . S
C2205 C2206 1.394 . S
C2205 C2211 1.465 . S
C2206 C2201 1.399 . S
C2206 C2205 1.394 . S
C2206 C2207 1.516 . S
C2207 C2206 1.516 . S
C2207 C2208 1.502 . S
C2207 C2209 1.561 . S
C2207 C2210 1.526 . S
C2208 H2192 0.959 . S
C2208 H2193 0.959 . S
C2208 H2194 0.961 . S
C2208 C2207 1.502 . S
C2209 H2195 0.960 . S
C2209 H2196 0.961 . S
C2209 H2197 0.959 . S
C2209 C2207 1.561 . S
C2210 C2207 1.526 . S
C2210 C2211 1.396 . S
C2210 C2215 1.390 . S
C2211 C2205 1.465 . S
C2211 C2210 1.396 . S
C2211 C2212 1.399 . S
C2212 H2198 0.929 . S
C2212 C2211 1.399 . S
C2212 C2213 1.385 . S
C2213 H2199 0.931 . S
C2213 C2212 1.385 . S
C2213 C2214 1.389 . S
C2214 C2213 1.389 . S
C2214 C2215 1.387 . S
C2215 H2200 0.930 . S
C2215 C2210 1.390 . S
C2215 C2214 1.387 . S
H2216 C2228 0.930 . S
H2217 C2230 0.930 . S
H2218 C2231 0.930 . S
H2219 C2235 0.959 . S
H2220 C2235 0.959 . S
H2221 C2235 0.961 . S
H2222 C2236 0.960 . S
H2223 C2236 0.961 . S
H2224 C2236 0.959 . S
H2225 C2239 0.929 . S
H2226 C2240 0.931 . S
H2227 C2242 0.930 . S
C2228 H2216 0.930 . S
C2228 C2229 1.399 . S
C2228 C2233 1.399 . S
C2229 C2228 1.399 . S
C2229 C2230 1.376 . S
C2230 H2217 0.930 . S
C2230 C2229 1.376 . S
C2230 C2231 1.388 . S
C2231 H2218 0.930 . S
C2231 C2230 1.388 . S
C2231 C2232 1.390 . S
C2232 C2231 1.390 . S
C2232 C2233 1.394 . S
C2232 C2238 1.465 . S
C2233 C2228 1.399 . S
C2233 C2232 1.394 . S
C2233 C2234 1.516 . S
C2234 C2233 1.516 . S
C2234 C2235 1.502 . S
C2234 C2236 1.561 . S
C2234 C2237 1.526 . S
C2235 H2219 0.959 . S
C2235 H2220 0.959 . S
C2235 H2221 0.961 . S
C2235 C2234 1.502 . S
C2236 H2222 0.960 . S
C2236 H2223 0.961 . S
C2236 H2224 0.959 . S
C2236 C2234 1.561 . S
C2237 C2234 1.526 . S
C2237 C2238 1.396 . S
C2237 C2242 1.390 . S
C2238 C2232 1.465 . S
C2238 C2237 1.396 . S
C2238 C2239 1.399 . S
C2239 H2225 0.929 . S
C2239 C2238 1.399 . S
C2239 C2240 1.385 . S
C2240 H2226 0.931 . S
C2240 C2239 1.385 . S
C2240 C2241 1.389 . S
C2241 C2240 1.389 . S
C2241 C2242 1.387 . S
C2242 H2227 0.930 . S
C2242 C2237 1.390 . S
C2242 C2241 1.387 . S
H2243 C2255 0.930 . S
H2244 C2257 0.930 . S
H2245 C2258 0.930 . S
H2246 C2262 0.959 . S
H2247 C2262 0.959 . S
H2248 C2262 0.961 . S
H2249 C2263 0.960 . S
H2250 C2263 0.961 . S
H2251 C2263 0.959 . S
H2252 C2266 0.929 . S
H2253 C2267 0.931 . S
H2254 C2269 0.930 . S
C2255 H2243 0.930 . S
C2255 C2256 1.399 . S
C2255 C2260 1.399 . S
C2256 C2255 1.399 . S
C2256 C2257 1.376 . S
C2257 H2244 0.930 . S
C2257 C2256 1.376 . S
C2257 C2258 1.388 . S
C2258 H2245 0.930 . S
C2258 C2257 1.388 . S
C2258 C2259 1.390 . S
C2259 C2258 1.390 . S
C2259 C2260 1.394 . S
C2259 C2265 1.465 . S
C2260 C2255 1.399 . S
C2260 C2259 1.394 . S
C2260 C2261 1.516 . S
C2261 C2260 1.516 . S
C2261 C2262 1.502 . S
C2261 C2263 1.561 . S
C2261 C2264 1.526 . S
C2262 H2246 0.959 . S
C2262 H2247 0.959 . S
C2262 H2248 0.961 . S
C2262 C2261 1.502 . S
C2263 H2249 0.960 . S
C2263 H2250 0.961 . S
C2263 H2251 0.959 . S
C2263 C2261 1.561 . S
C2264 C2261 1.526 . S
C2264 C2265 1.396 . S
C2264 C2269 1.390 . S
C2265 C2259 1.465 . S
C2265 C2264 1.396 . S
C2265 C2266 1.399 . S
C2266 H2252 0.929 . S
C2266 C2265 1.399 . S
C2266 C2267 1.385 . S
C2267 H2253 0.931 . S
C2267 C2266 1.385 . S
C2267 C2268 1.389 . S
C2268 C2267 1.389 . S
C2268 C2269 1.387 . S
C2269 H2254 0.930 . S
C2269 C2264 1.390 . S
C2269 C2268 1.387 . S
H2270 C2282 0.930 . S
H2271 C2284 0.930 . S
H2272 C2285 0.930 . S
H2273 C2289 0.959 . S
H2274 C2289 0.959 . S
H2275 C2289 0.961 . S
H2276 C2290 0.960 . S
H2277 C2290 0.961 . S
H2278 C2290 0.959 . S
H2279 C2293 0.929 . S
H2280 C2294 0.931 1_455 S
H2281 C2296 0.930 . S
C2282 H2270 0.930 . S
C2282 C2283 1.399 . S
C2282 C2287 1.399 . S
C2283 C2282 1.399 . S
C2283 C2284 1.376 . S
C2284 H2271 0.930 . S
C2284 C2283 1.376 . S
C2284 C2285 1.388 . S
C2285 H2272 0.930 . S
C2285 C2284 1.388 . S
C2285 C2286 1.390 . S
C2286 C2285 1.390 . S
C2286 C2287 1.394 . S
C2286 C2292 1.465 . S
C2287 C2282 1.399 . S
C2287 C2286 1.394 . S
C2287 C2288 1.516 . S
C2288 C2287 1.516 . S
C2288 C2289 1.502 . S
C2288 C2290 1.561 . S
C2288 C2291 1.526 . S
C2289 H2273 0.959 . S
C2289 H2274 0.959 . S
C2289 H2275 0.961 . S
C2289 C2288 1.502 . S
C2290 H2276 0.960 . S
C2290 H2277 0.961 . S
C2290 H2278 0.959 . S
C2290 C2288 1.561 . S
C2291 C2288 1.526 . S
C2291 C2292 1.396 . S
C2291 C2296 1.390 . S
C2292 C2286 1.465 . S
C2292 C2291 1.396 . S
C2292 C2293 1.399 . S
C2293 H2279 0.929 . S
C2293 C2292 1.399 . S
C2293 C2294 1.385 . S
C2294 H2280 0.931 1_655 S
C2294 C2293 1.385 . S
C2294 C2295 1.389 . S
C2295 C2294 1.389 . S
C2295 C2296 1.387 . S
C2296 H2281 0.930 . S
C2296 C2291 1.390 . S
C2296 C2295 1.387 . S
H2297 C2309 0.930 . S
H2298 C2311 0.930 . S
H2299 C2312 0.930 . S
H2300 C2316 0.959 . S
H2301 C2316 0.959 . S
H2302 C2316 0.961 . S
H2303 C2317 0.960 . S
H2304 C2317 0.961 . S
H2305 C2317 0.959 . S
H2306 C2320 0.929 . S
H2307 C2321 0.931 . S
H2308 C2323 0.930 . S
C2309 H2297 0.930 . S
C2309 C2310 1.399 . S
C2309 C2314 1.399 . S
C2310 C2309 1.399 . S
C2310 C2311 1.376 . S
C2311 H2298 0.930 . S
C2311 C2310 1.376 . S
C2311 C2312 1.388 . S
C2312 H2299 0.930 . S
C2312 C2311 1.388 . S
C2312 C2313 1.390 . S
C2313 C2312 1.390 . S
C2313 C2314 1.394 . S
C2313 C2319 1.465 . S
C2314 C2309 1.399 . S
C2314 C2313 1.394 . S
C2314 C2315 1.516 . S
C2315 C2314 1.516 . S
C2315 C2316 1.502 . S
C2315 C2317 1.561 . S
C2315 C2318 1.526 . S
C2316 H2300 0.959 . S
C2316 H2301 0.959 . S
C2316 H2302 0.961 . S
C2316 C2315 1.502 . S
C2317 H2303 0.960 . S
C2317 H2304 0.961 . S
C2317 H2305 0.959 . S
C2317 C2315 1.561 . S
C2318 C2315 1.526 . S
C2318 C2319 1.396 . S
C2318 C2323 1.390 . S
C2319 C2313 1.465 . S
C2319 C2318 1.396 . S
C2319 C2320 1.399 . S
C2320 H2306 0.929 . S
C2320 C2319 1.399 . S
C2320 C2321 1.385 . S
C2321 H2307 0.931 . S
C2321 C2320 1.385 . S
C2321 C2322 1.389 . S
C2322 C2321 1.389 . S
C2322 C2323 1.387 . S
C2323 H2308 0.930 . S
C2323 C2318 1.390 . S
C2323 C2322 1.387 . S
H2324 C2336 0.930 . S
H2325 C2338 0.930 . S
H2326 C2339 0.930 . S
H2327 C2343 0.959 . S
H2328 C2343 0.959 . S
H2329 C2343 0.961 . S
H2330 C2344 0.960 . S
H2331 C2344 0.961 . S
H2332 C2344 0.959 . S
H2333 C2347 0.929 . S
H2334 C2348 0.931 . S
H2335 C2350 0.930 . S
C2336 H2324 0.930 . S
C2336 C2337 1.399 . S
C2336 C2341 1.399 . S
C2337 C2336 1.399 . S
C2337 C2338 1.376 . S
C2338 H2325 0.930 . S
C2338 C2337 1.376 . S
C2338 C2339 1.388 . S
C2339 H2326 0.930 . S
C2339 C2338 1.388 . S
C2339 C2340 1.390 . S
C2340 C2339 1.390 . S
C2340 C2341 1.394 . S
C2340 C2346 1.465 . S
C2341 C2336 1.399 . S
C2341 C2340 1.394 . S
C2341 C2342 1.516 . S
C2342 C2341 1.516 . S
C2342 C2343 1.502 . S
C2342 C2344 1.561 . S
C2342 C2345 1.526 . S
C2343 H2327 0.959 . S
C2343 H2328 0.959 . S
C2343 H2329 0.961 . S
C2343 C2342 1.502 . S
C2344 H2330 0.960 . S
C2344 H2331 0.961 . S
C2344 H2332 0.959 . S
C2344 C2342 1.561 . S
C2345 C2342 1.526 . S
C2345 C2346 1.396 . S
C2345 C2350 1.390 . S
C2346 C2340 1.465 . S
C2346 C2345 1.396 . S
C2346 C2347 1.399 . S
C2347 H2333 0.929 . S
C2347 C2346 1.399 . S
C2347 C2348 1.385 . S
C2348 H2334 0.931 . S
C2348 C2347 1.385 . S
C2348 C2349 1.389 . S
C2349 C2348 1.389 . S
C2349 C2350 1.387 . S
C2350 H2335 0.930 . S
C2350 C2345 1.390 . S
C2350 C2349 1.387 . S
H2351 C2363 0.930 . S
H2352 C2365 0.930 . S
H2353 C2366 0.930 . S
H2354 C2370 0.959 . S
H2355 C2370 0.959 . S
H2356 C2370 0.961 . S
H2357 C2371 0.960 . S
H2358 C2371 0.961 . S
H2359 C2371 0.959 . S
H2360 C2374 0.929 . S
H2361 C2375 0.931 . S
H2362 C2377 0.930 . S
C2363 H2351 0.930 . S
C2363 C2364 1.399 . S
C2363 C2368 1.399 . S
C2364 C2363 1.399 . S
C2364 C2365 1.376 . S
C2365 H2352 0.930 . S
C2365 C2364 1.376 . S
C2365 C2366 1.388 . S
C2366 H2353 0.930 . S
C2366 C2365 1.388 . S
C2366 C2367 1.390 . S
C2367 C2366 1.390 . S
C2367 C2368 1.394 . S
C2367 C2373 1.465 . S
C2368 C2363 1.399 . S
C2368 C2367 1.394 . S
C2368 C2369 1.516 . S
C2369 C2368 1.516 . S
C2369 C2370 1.502 . S
C2369 C2371 1.561 . S
C2369 C2372 1.526 . S
C2370 H2354 0.959 . S
C2370 H2355 0.959 . S
C2370 H2356 0.961 . S
C2370 C2369 1.502 . S
C2371 H2357 0.960 . S
C2371 H2358 0.961 . S
C2371 H2359 0.959 . S
C2371 C2369 1.561 . S
C2372 C2369 1.526 . S
C2372 C2373 1.396 . S
C2372 C2377 1.390 . S
C2373 C2367 1.465 . S
C2373 C2372 1.396 . S
C2373 C2374 1.399 . S
C2374 H2360 0.929 . S
C2374 C2373 1.399 . S
C2374 C2375 1.385 . S
C2375 H2361 0.931 . S
C2375 C2374 1.385 . S
C2375 C2376 1.389 . S
C2376 C2375 1.389 . S
C2376 C2377 1.387 . S
C2377 H2362 0.930 . S
C2377 C2372 1.390 . S
C2377 C2376 1.387 . S
H2378 C2390 0.930 . S
H2379 C2392 0.930 . S
H2380 C2393 0.930 . S
H2381 C2397 0.959 . S
H2382 C2397 0.959 . S
H2383 C2397 0.961 . S
H2384 C2398 0.960 . S
H2385 C2398 0.961 . S
H2386 C2398 0.959 . S
H2387 C2401 0.929 . S
H2388 C2402 0.931 . S
H2389 C2404 0.930 . S
C2390 H2378 0.930 . S
C2390 C2391 1.399 . S
C2390 C2395 1.399 . S
C2391 C2390 1.399 . S
C2391 C2392 1.376 . S
C2392 H2379 0.930 . S
C2392 C2391 1.376 . S
C2392 C2393 1.388 . S
C2393 H2380 0.930 . S
C2393 C2392 1.388 . S
C2393 C2394 1.390 . S
C2394 C2393 1.390 . S
C2394 C2395 1.394 . S
C2394 C2400 1.465 . S
C2395 C2390 1.399 . S
C2395 C2394 1.394 . S
C2395 C2396 1.516 . S
C2396 C2395 1.516 . S
C2396 C2397 1.502 . S
C2396 C2398 1.561 . S
C2396 C2399 1.526 . S
C2397 H2381 0.959 . S
C2397 H2382 0.959 . S
C2397 H2383 0.961 . S
C2397 C2396 1.502 . S
C2398 H2384 0.960 . S
C2398 H2385 0.961 . S
C2398 H2386 0.959 . S
C2398 C2396 1.561 . S
C2399 C2396 1.526 . S
C2399 C2400 1.396 . S
C2399 C2404 1.390 . S
C2400 C2394 1.465 . S
C2400 C2399 1.396 . S
C2400 C2401 1.399 . S
C2401 H2387 0.929 . S
C2401 C2400 1.399 . S
C2401 C2402 1.385 . S
C2402 H2388 0.931 . S
C2402 C2401 1.385 . S
C2402 C2403 1.389 . S
C2403 C2402 1.389 . S
C2403 C2404 1.387 . S
C2404 H2389 0.930 . S
C2404 C2399 1.390 . S
C2404 C2403 1.387 . S
H2405 C2417 0.930 . S
H2406 C2419 0.930 . S
H2407 C2420 0.930 . S
H2408 C2424 0.959 . S
H2409 C2424 0.959 . S
H2410 C2424 0.961 . S
H2411 C2425 0.960 . S
H2412 C2425 0.961 . S
H2413 C2425 0.959 . S
H2414 C2428 0.929 . S
H2415 C2429 0.931 . S
H2416 C2431 0.930 . S
C2417 H2405 0.930 . S
C2417 C2418 1.399 . S
C2417 C2422 1.399 . S
C2418 C2417 1.399 . S
C2418 C2419 1.376 . S
C2419 H2406 0.930 . S
C2419 C2418 1.376 . S
C2419 C2420 1.388 . S
C2420 H2407 0.930 . S
C2420 C2419 1.388 . S
C2420 C2421 1.390 . S
C2421 C2420 1.390 . S
C2421 C2422 1.394 . S
C2421 C2427 1.465 . S
C2422 C2417 1.399 . S
C2422 C2421 1.394 . S
C2422 C2423 1.516 . S
C2423 C2422 1.516 . S
C2423 C2424 1.502 . S
C2423 C2425 1.561 . S
C2423 C2426 1.526 . S
C2424 H2408 0.959 . S
C2424 H2409 0.959 . S
C2424 H2410 0.961 . S
C2424 C2423 1.502 . S
C2425 H2411 0.960 . S
C2425 H2412 0.961 . S
C2425 H2413 0.959 . S
C2425 C2423 1.561 . S
C2426 C2423 1.526 . S
C2426 C2427 1.396 . S
C2426 C2431 1.390 . S
C2427 C2421 1.465 . S
C2427 C2426 1.396 . S
C2427 C2428 1.399 . S
C2428 H2414 0.929 . S
C2428 C2427 1.399 . S
C2428 C2429 1.385 . S
C2429 H2415 0.931 . S
C2429 C2428 1.385 . S
C2429 C2430 1.389 . S
C2430 C2429 1.389 . S
C2430 C2431 1.387 . S
C2431 H2416 0.930 . S
C2431 C2426 1.390 . S
C2431 C2430 1.387 . S
H2432 C2444 0.930 . S
H2433 C2446 0.930 . S
H2434 C2447 0.930 . S
H2435 C2451 0.959 . S
H2436 C2451 0.959 . S
H2437 C2451 0.961 . S
H2438 C2452 0.960 . S
H2439 C2452 0.961 . S
H2440 C2452 0.959 . S
H2441 C2455 0.929 . S
H2442 C2456 0.931 . S
H2443 C2458 0.930 . S
C2444 H2432 0.930 . S
C2444 C2445 1.399 . S
C2444 C2449 1.399 . S
C2445 C2444 1.399 . S
C2445 C2446 1.376 . S
C2446 H2433 0.930 . S
C2446 C2445 1.376 . S
C2446 C2447 1.388 . S
C2447 H2434 0.930 . S
C2447 C2446 1.388 . S
C2447 C2448 1.390 . S
C2448 C2447 1.390 . S
C2448 C2449 1.394 . S
C2448 C2454 1.465 . S
C2449 C2444 1.399 . S
C2449 C2448 1.394 . S
C2449 C2450 1.516 . S
C2450 C2449 1.516 . S
C2450 C2451 1.502 . S
C2450 C2452 1.561 . S
C2450 C2453 1.526 . S
C2451 H2435 0.959 . S
C2451 H2436 0.959 . S
C2451 H2437 0.961 . S
C2451 C2450 1.502 . S
C2452 H2438 0.960 . S
C2452 H2439 0.961 . S
C2452 H2440 0.959 . S
C2452 C2450 1.561 . S
C2453 C2450 1.526 . S
C2453 C2454 1.396 . S
C2453 C2458 1.390 . S
C2454 C2448 1.465 . S
C2454 C2453 1.396 . S
C2454 C2455 1.399 . S
C2455 H2441 0.929 . S
C2455 C2454 1.399 . S
C2455 C2456 1.385 . S
C2456 H2442 0.931 . S
C2456 C2455 1.385 . S
C2456 C2457 1.389 . S
C2457 C2456 1.389 . S
C2457 C2458 1.387 . S
C2458 H2443 0.930 . S
C2458 C2453 1.390 . S
C2458 C2457 1.387 . S
H2459 C2471 0.930 . S
H2460 C2473 0.930 . S
H2461 C2474 0.930 . S
H2462 C2478 0.959 . S
H2463 C2478 0.959 . S
H2464 C2478 0.961 . S
H2465 C2479 0.960 . S
H2466 C2479 0.961 . S
H2467 C2479 0.959 . S
H2468 C2482 0.929 . S
H2469 C2483 0.931 . S
H2470 C2485 0.930 . S
C2471 H2459 0.930 . S
C2471 C2472 1.399 . S
C2471 C2476 1.399 . S
C2472 C2471 1.399 . S
C2472 C2473 1.376 . S
C2473 H2460 0.930 . S
C2473 C2472 1.376 . S
C2473 C2474 1.388 . S
C2474 H2461 0.930 . S
C2474 C2473 1.388 . S
C2474 C2475 1.390 . S
C2475 C2474 1.390 . S
C2475 C2476 1.394 . S
C2475 C2481 1.465 . S
C2476 C2471 1.399 . S
C2476 C2475 1.394 . S
C2476 C2477 1.516 . S
C2477 C2476 1.516 . S
C2477 C2478 1.502 . S
C2477 C2479 1.561 . S
C2477 C2480 1.526 . S
C2478 H2462 0.959 . S
C2478 H2463 0.959 . S
C2478 H2464 0.961 . S
C2478 C2477 1.502 . S
C2479 H2465 0.960 . S
C2479 H2466 0.961 . S
C2479 H2467 0.959 . S
C2479 C2477 1.561 . S
C2480 C2477 1.526 . S
C2480 C2481 1.396 . S
C2480 C2485 1.390 . S
C2481 C2475 1.465 . S
C2481 C2480 1.396 . S
C2481 C2482 1.399 . S
C2482 H2468 0.929 . S
C2482 C2481 1.399 . S
C2482 C2483 1.385 . S
C2483 H2469 0.931 . S
C2483 C2482 1.385 . S
C2483 C2484 1.389 . S
C2484 C2483 1.389 . S
C2484 C2485 1.387 . S
C2485 H2470 0.930 . S
C2485 C2480 1.390 . S
C2485 C2484 1.387 . S
H2486 C2498 0.930 . S
H2487 C2500 0.930 . S
H2488 C2501 0.930 . S
H2489 C2505 0.959 . S
H2490 C2505 0.959 . S
H2491 C2505 0.961 . S
H2492 C2506 0.960 . S
H2493 C2506 0.961 . S
H2494 C2506 0.959 . S
H2495 C2509 0.929 . S
H2496 C2510 0.931 . S
H2497 C2512 0.930 . S
C2498 H2486 0.930 . S
C2498 C2499 1.399 . S
C2498 C2503 1.399 . S
C2499 C2498 1.399 . S
C2499 C2500 1.376 . S
C2500 H2487 0.930 . S
C2500 C2499 1.376 . S
C2500 C2501 1.388 . S
C2501 H2488 0.930 . S
C2501 C2500 1.388 . S
C2501 C2502 1.390 . S
C2502 C2501 1.390 . S
C2502 C2503 1.394 . S
C2502 C2508 1.465 . S
C2503 C2498 1.399 . S
C2503 C2502 1.394 . S
C2503 C2504 1.516 . S
C2504 C2503 1.516 . S
C2504 C2505 1.502 . S
C2504 C2506 1.561 . S
C2504 C2507 1.526 . S
C2505 H2489 0.959 . S
C2505 H2490 0.959 . S
C2505 H2491 0.961 . S
C2505 C2504 1.502 . S
C2506 H2492 0.960 . S
C2506 H2493 0.961 . S
C2506 H2494 0.959 . S
C2506 C2504 1.561 . S
C2507 C2504 1.526 . S
C2507 C2508 1.396 . S
C2507 C2512 1.390 . S
C2508 C2502 1.465 . S
C2508 C2507 1.396 . S
C2508 C2509 1.399 . S
C2509 H2495 0.929 . S
C2509 C2508 1.399 . S
C2509 C2510 1.385 . S
C2510 H2496 0.931 . S
C2510 C2509 1.385 . S
C2510 C2511 1.389 . S
C2511 C2510 1.389 . S
C2511 C2512 1.387 . S
C2512 H2497 0.930 . S
C2512 C2507 1.390 . S
C2512 C2511 1.387 . S
H2513 C2525 0.930 . S
H2514 C2527 0.930 . S
H2515 C2528 0.930 . S
H2516 C2532 0.959 . S
H2517 C2532 0.959 . S
H2518 C2532 0.961 . S
H2519 C2533 0.960 . S
H2520 C2533 0.961 . S
H2521 C2533 0.959 . S
H2522 C2536 0.929 . S
H2523 C2537 0.931 . S
H2524 C2539 0.930 . S
C2525 H2513 0.930 . S
C2525 C2526 1.399 . S
C2525 C2530 1.399 . S
C2526 C2525 1.399 . S
C2526 C2527 1.376 1_554 S
C2527 H2514 0.930 . S
C2527 C2526 1.376 1_556 S
C2527 C2528 1.388 . S
C2528 H2515 0.930 . S
C2528 C2527 1.388 . S
C2528 C2529 1.390 1_556 S
C2529 C2528 1.390 1_554 S
C2529 C2530 1.394 . S
C2529 C2535 1.465 . S
C2530 C2525 1.399 . S
C2530 C2529 1.394 . S
C2530 C2531 1.516 . S
C2531 C2530 1.516 . S
C2531 C2532 1.502 . S
C2531 C2533 1.561 . S
C2531 C2534 1.526 . S
C2532 H2516 0.959 . S
C2532 H2517 0.959 . S
C2532 H2518 0.961 . S
C2532 C2531 1.502 . S
C2533 H2519 0.960 . S
C2533 H2520 0.961 . S
C2533 H2521 0.959 . S
C2533 C2531 1.561 . S
C2534 C2531 1.526 . S
C2534 C2535 1.396 . S
C2534 C2539 1.390 . S
C2535 C2529 1.465 . S
C2535 C2534 1.396 . S
C2535 C2536 1.399 1_554 S
C2536 H2522 0.929 . S
C2536 C2535 1.399 1_556 S
C2536 C2537 1.385 . S
C2537 H2523 0.931 . S
C2537 C2536 1.385 . S
C2537 C2538 1.389 1_556 S
C2538 C2537 1.389 1_554 S
C2538 C2539 1.387 . S
C2539 H2524 0.930 . S
C2539 C2534 1.390 . S
C2539 C2538 1.387 . S
H2540 C2552 0.930 . S
H2541 C2554 0.930 . S
H2542 C2555 0.930 . S
H2543 C2559 0.959 . S
H2544 C2559 0.959 . S
H2545 C2559 0.961 . S
H2546 C2560 0.960 . S
H2547 C2560 0.961 . S
H2548 C2560 0.959 . S
H2549 C2563 0.929 . S
H2550 C2564 0.931 . S
H2551 C2566 0.930 . S
C2552 H2540 0.930 . S
C2552 C2553 1.399 . S
C2552 C2557 1.399 . S
C2553 C2552 1.399 . S
C2553 C2554 1.376 . S
C2554 H2541 0.930 . S
C2554 C2553 1.376 . S
C2554 C2555 1.388 . S
C2555 H2542 0.930 . S
C2555 C2554 1.388 . S
C2555 C2556 1.390 . S
C2556 C2555 1.390 . S
C2556 C2557 1.394 . S
C2556 C2562 1.465 . S
C2557 C2552 1.399 . S
C2557 C2556 1.394 . S
C2557 C2558 1.516 . S
C2558 C2557 1.516 . S
C2558 C2559 1.502 . S
C2558 C2560 1.561 . S
C2558 C2561 1.526 . S
C2559 H2543 0.959 . S
C2559 H2544 0.959 . S
C2559 H2545 0.961 . S
C2559 C2558 1.502 . S
C2560 H2546 0.960 . S
C2560 H2547 0.961 . S
C2560 H2548 0.959 . S
C2560 C2558 1.561 . S
C2561 C2558 1.526 . S
C2561 C2562 1.396 . S
C2561 C2566 1.390 . S
C2562 C2556 1.465 . S
C2562 C2561 1.396 . S
C2562 C2563 1.399 . S
C2563 H2549 0.929 . S
C2563 C2562 1.399 . S
C2563 C2564 1.385 . S
C2564 H2550 0.931 . S
C2564 C2563 1.385 . S
C2564 C2565 1.389 . S
C2565 C2564 1.389 . S
C2565 C2566 1.387 . S
C2566 H2551 0.930 . S
C2566 C2561 1.390 . S
C2566 C2565 1.387 . S
H2567 C2579 0.930 . S
H2568 C2581 0.930 . S
H2569 C2582 0.930 . S
H2570 C2586 0.959 . S
H2571 C2586 0.959 . S
H2572 C2586 0.961 . S
H2573 C2587 0.960 . S
H2574 C2587 0.961 . S
H2575 C2587 0.959 1_554 S
H2576 C2590 0.929 . S
H2577 C2591 0.931 . S
H2578 C2593 0.930 . S
C2579 H2567 0.930 . S
C2579 C2580 1.399 1_556 S
C2579 C2584 1.399 . S
C2580 C2579 1.399 1_554 S
C2580 C2581 1.376 . S
C2581 H2568 0.930 . S
C2581 C2580 1.376 . S
C2581 C2582 1.388 . S
C2582 H2569 0.930 . S
C2582 C2581 1.388 . S
C2582 C2583 1.390 . S
C2583 C2582 1.390 . S
C2583 C2584 1.394 1_554 S
C2583 C2589 1.465 . S
C2584 C2579 1.399 . S
C2584 C2583 1.394 1_556 S
C2584 C2585 1.516 . S
C2585 C2584 1.516 . S
C2585 C2586 1.502 . S
C2585 C2587 1.561 . S
C2585 C2588 1.526 . S
C2586 H2570 0.959 . S
C2586 H2571 0.959 . S
C2586 H2572 0.961 . S
C2586 C2585 1.502 . S
C2587 H2573 0.960 . S
C2587 H2574 0.961 . S
C2587 H2575 0.959 1_556 S
C2587 C2585 1.561 . S
C2588 C2585 1.526 . S
C2588 C2589 1.396 1_556 S
C2588 C2593 1.390 . S
C2589 C2583 1.465 . S
C2589 C2588 1.396 1_554 S
C2589 C2590 1.399 . S
C2590 H2576 0.929 . S
C2590 C2589 1.399 . S
C2590 C2591 1.385 . S
C2591 H2577 0.931 . S
C2591 C2590 1.385 . S
C2591 C2592 1.375 1_554 S
C2592 C2591 1.375 1_556 S
C2592 C2593 1.396 . S
C2593 H2578 0.930 . S
C2593 C2588 1.390 . S
C2593 C2592 1.396 . S
H2594 C2606 0.930 . S
H2595 C2608 0.930 . S
H2596 C2609 0.930 . S
H2597 C2613 0.959 . S
H2598 C2613 0.959 . S
H2599 C2613 0.961 . S
H2600 C2614 0.960 . S
H2601 C2614 0.961 . S
H2602 C2614 0.959 . S
H2603 C2617 0.929 . S
H2604 C2618 0.931 . S
H2605 C2620 0.930 . S
C2606 H2594 0.930 . S
C2606 C2607 1.399 . S
C2606 C2611 1.399 . S
C2607 C2606 1.399 . S
C2607 C2608 1.376 . S
C2608 H2595 0.930 . S
C2608 C2607 1.376 . S
C2608 C2609 1.388 . S
C2609 H2596 0.930 . S
C2609 C2608 1.388 . S
C2609 C2610 1.390 . S
C2610 C2609 1.390 . S
C2610 C2611 1.394 . S
C2610 C2616 1.465 . S
C2611 C2606 1.399 . S
C2611 C2610 1.394 . S
C2611 C2612 1.516 . S
C2612 C2611 1.516 . S
C2612 C2613 1.502 . S
C2612 C2614 1.561 . S
C2612 C2615 1.526 . S
C2613 H2597 0.959 . S
C2613 H2598 0.959 . S
C2613 H2599 0.961 . S
C2613 C2612 1.502 . S
C2614 H2600 0.960 . S
C2614 H2601 0.961 . S
C2614 H2602 0.959 . S
C2614 C2612 1.561 . S
C2615 C2612 1.526 . S
C2615 C2616 1.396 . S
C2615 C2620 1.390 . S
C2616 C2610 1.465 . S
C2616 C2615 1.396 . S
C2616 C2617 1.399 . S
C2617 H2603 0.929 . S
C2617 C2616 1.399 . S
C2617 C2618 1.385 . S
C2618 H2604 0.931 . S
C2618 C2617 1.385 . S
C2618 C2619 1.389 . S
C2619 C2618 1.389 . S
C2619 C2620 1.387 . S
C2620 H2605 0.930 . S
C2620 C2615 1.390 . S
C2620 C2619 1.387 . S
H2621 C2633 0.930 . S
H2622 C2635 0.930 . S
H2623 C2636 0.930 . S
H2624 C2640 0.959 . S
H2625 C2640 0.959 . S
H2626 C2640 0.961 . S
H2627 C2641 0.960 . S
H2628 C2641 0.961 . S
H2629 C2641 0.959 . S
H2630 C2644 0.929 . S
H2631 C2645 0.931 . S
H2632 C2647 0.930 . S
C2633 H2621 0.930 . S
C2633 C2634 1.399 . S
C2633 C2638 1.399 . S
C2634 C2633 1.399 . S
C2634 C2635 1.376 . S
C2635 H2622 0.930 . S
C2635 C2634 1.376 . S
C2635 C2636 1.388 . S
C2636 H2623 0.930 . S
C2636 C2635 1.388 . S
C2636 C2637 1.390 . S
C2637 C2636 1.390 . S
C2637 C2638 1.394 . S
C2637 C2643 1.465 . S
C2638 C2633 1.399 . S
C2638 C2637 1.394 . S
C2638 C2639 1.516 . S
C2639 C2638 1.516 . S
C2639 C2640 1.502 . S
C2639 C2641 1.561 . S
C2639 C2642 1.526 . S
C2640 H2624 0.959 . S
C2640 H2625 0.959 . S
C2640 H2626 0.961 . S
C2640 C2639 1.502 . S
C2641 H2627 0.960 . S
C2641 H2628 0.961 . S
C2641 H2629 0.959 . S
C2641 C2639 1.561 . S
C2642 C2639 1.526 . S
C2642 C2643 1.396 . S
C2642 C2647 1.390 . S
C2643 C2637 1.465 . S
C2643 C2642 1.396 . S
C2643 C2644 1.399 . S
C2644 H2630 0.929 . S
C2644 C2643 1.399 . S
C2644 C2645 1.385 . S
C2645 H2631 0.931 . S
C2645 C2644 1.385 . S
C2645 C2646 1.389 . S
C2646 C2645 1.389 . S
C2646 C2647 1.387 . S
C2647 H2632 0.930 . S
C2647 C2642 1.390 . S
C2647 C2646 1.387 . S
H2648 C2660 0.930 . S
H2649 C2662 0.930 . S
H2650 C2663 0.930 . S
H2651 C2667 0.959 . S
H2652 C2667 0.959 . S
H2653 C2667 0.961 . S
H2654 C2668 0.960 . S
H2655 C2668 0.961 . S
H2656 C2668 0.959 . S
H2657 C2671 0.929 . S
H2658 C2672 0.931 . S
H2659 C2674 0.930 . S
C2660 H2648 0.930 . S
C2660 C2661 1.399 . S
C2660 C2665 1.399 . S
C2661 C2660 1.399 . S
C2661 C2662 1.376 . S
C2662 H2649 0.930 . S
C2662 C2661 1.376 . S
C2662 C2663 1.388 . S
C2663 H2650 0.930 . S
C2663 C2662 1.388 . S
C2663 C2664 1.390 . S
C2664 C2663 1.390 . S
C2664 C2665 1.394 . S
C2664 C2670 1.465 . S
C2665 C2660 1.399 . S
C2665 C2664 1.394 . S
C2665 C2666 1.516 . S
C2666 C2665 1.516 . S
C2666 C2667 1.502 . S
C2666 C2668 1.561 . S
C2666 C2669 1.526 . S
C2667 H2651 0.959 . S
C2667 H2652 0.959 . S
C2667 H2653 0.961 . S
C2667 C2666 1.502 . S
C2668 H2654 0.960 . S
C2668 H2655 0.961 . S
C2668 H2656 0.959 . S
C2668 C2666 1.561 . S
C2669 C2666 1.526 . S
C2669 C2670 1.396 . S
C2669 C2674 1.390 . S
C2670 C2664 1.465 . S
C2670 C2669 1.396 . S
C2670 C2671 1.399 . S
C2671 H2657 0.929 . S
C2671 C2670 1.399 . S
C2671 C2672 1.385 . S
C2672 H2658 0.931 . S
C2672 C2671 1.385 . S
C2672 C2673 1.389 . S
C2673 C2672 1.389 . S
C2673 C2674 1.387 . S
C2674 H2659 0.930 . S
C2674 C2669 1.390 . S
C2674 C2673 1.387 . S
H2675 C2687 0.930 . S
H2676 C2689 0.930 . S
H2677 C2690 0.930 . S
H2678 C2694 0.959 . S
H2679 C2694 0.959 . S
H2680 C2694 0.961 . S
H2681 C2695 0.960 . S
H2682 C2695 0.961 . S
H2683 C2695 0.959 . S
H2684 C2698 0.929 . S
H2685 C2699 0.931 . S
H2686 C2701 0.930 . S
C2687 H2675 0.930 . S
C2687 C2688 1.399 . S
C2687 C2692 1.399 . S
C2688 C2687 1.399 . S
C2688 C2689 1.376 . S
C2689 H2676 0.930 . S
C2689 C2688 1.376 . S
C2689 C2690 1.388 . S
C2690 H2677 0.930 . S
C2690 C2689 1.388 . S
C2690 C2691 1.390 . S
C2691 C2690 1.390 . S
C2691 C2692 1.394 . S
C2691 C2697 1.465 . S
C2692 C2687 1.399 . S
C2692 C2691 1.394 . S
C2692 C2693 1.516 . S
C2693 C2692 1.516 . S
C2693 C2694 1.502 . S
C2693 C2695 1.561 . S
C2693 C2696 1.526 . S
C2694 H2678 0.959 . S
C2694 H2679 0.959 . S
C2694 H2680 0.961 . S
C2694 C2693 1.502 . S
C2695 H2681 0.960 . S
C2695 H2682 0.961 . S
C2695 H2683 0.959 . S
C2695 C2693 1.561 . S
C2696 C2693 1.526 . S
C2696 C2697 1.396 . S
C2696 C2701 1.390 . S
C2697 C2691 1.465 . S
C2697 C2696 1.396 . S
C2697 C2698 1.399 . S
C2698 H2684 0.929 . S
C2698 C2697 1.399 . S
C2698 C2699 1.385 . S
C2699 H2685 0.931 . S
C2699 C2698 1.385 . S
C2699 C2700 1.389 . S
C2700 C2699 1.389 . S
C2700 C2701 1.387 . S
C2701 H2686 0.930 . S
C2701 C2696 1.390 . S
C2701 C2700 1.387 . S
H2702 C2714 0.930 . S
H2703 C2716 0.930 . S
H2704 C2717 0.930 . S
H2705 C2721 0.959 . S
H2706 C2721 0.959 1_554 S
H2707 C2721 0.961 . S
H2708 C2722 0.960 . S
H2709 C2722 0.961 1_554 S
H2710 C2722 0.959 . S
H2711 C2725 0.929 . S
H2712 C2726 0.931 . S
H2713 C2728 0.930 1_554 S
C2714 H2702 0.930 . S
C2714 C2715 1.399 . S
C2714 C2719 1.397 1_455 S
C2715 C2714 1.399 . S
C2715 C2716 1.376 1_455 S
C2716 H2703 0.930 . S
C2716 C2715 1.376 1_655 S
C2716 C2717 1.388 . S
C2717 H2704 0.930 . S
C2717 C2716 1.388 . S
C2717 C2718 1.390 . S
C2718 C2717 1.390 . S
C2718 C2719 1.396 . S
C2718 C2724 1.465 . S
C2719 C2714 1.397 1_655 S
C2719 C2718 1.396 . S
C2719 C2720 1.516 . S
C2720 C2719 1.516 . S
C2720 C2721 1.484 1_655 S
C2720 C2722 1.578 . S
C2720 C2723 1.529 . S
C2721 H2705 0.959 . S
C2721 H2706 0.959 1_556 S
C2721 H2707 0.961 . S
C2721 C2720 1.484 1_455 S
C2722 H2708 0.960 . S
C2722 H2709 0.961 1_556 S
C2722 H2710 0.959 . S
C2722 C2720 1.578 . S
C2723 C2720 1.529 . S
C2723 C2724 1.396 . S
C2723 C2728 1.390 . S
C2724 C2718 1.465 . S
C2724 C2723 1.396 . S
C2724 C2725 1.399 . S
C2725 H2711 0.929 . S
C2725 C2724 1.399 . S
C2725 C2726 1.385 . S
C2726 H2712 0.931 . S
C2726 C2725 1.385 . S
C2726 C2727 1.389 . S
C2727 C2726 1.389 . S
C2727 C2728 1.387 . S
C2728 H2713 0.930 1_556 S
C2728 C2723 1.390 . S
C2728 C2727 1.387 . S
H2729 C2741 0.930 . S
H2730 C2743 0.930 . S
H2731 C2744 0.930 . S
H2732 C2748 0.959 . S
H2733 C2748 0.959 . S
H2734 C2748 0.961 . S
H2735 C2749 0.960 . S
H2736 C2749 0.961 . S
H2737 C2749 0.959 . S
H2738 C2752 0.929 . S
H2739 C2753 0.931 . S
H2740 C2755 0.930 . S
C2741 H2729 0.930 . S
C2741 C2742 1.399 . S
C2741 C2746 1.399 . S
C2742 C2741 1.399 . S
C2742 C2743 1.376 . S
C2743 H2730 0.930 . S
C2743 C2742 1.376 . S
C2743 C2744 1.388 . S
C2744 H2731 0.930 . S
C2744 C2743 1.388 . S
C2744 C2745 1.390 . S
C2745 C2744 1.390 . S
C2745 C2746 1.394 . S
C2745 C2751 1.465 . S
C2746 C2741 1.399 . S
C2746 C2745 1.394 . S
C2746 C2747 1.516 . S
C2747 C2746 1.516 . S
C2747 C2748 1.502 . S
C2747 C2749 1.561 . S
C2747 C2750 1.526 . S
C2748 H2732 0.959 . S
C2748 H2733 0.959 . S
C2748 H2734 0.961 . S
C2748 C2747 1.502 . S
C2749 H2735 0.960 . S
C2749 H2736 0.961 . S
C2749 H2737 0.959 . S
C2749 C2747 1.561 . S
C2750 C2747 1.526 . S
C2750 C2751 1.396 . S
C2750 C2755 1.390 . S
C2751 C2745 1.465 . S
C2751 C2750 1.396 . S
C2751 C2752 1.399 . S
C2752 H2738 0.929 . S
C2752 C2751 1.399 . S
C2752 C2753 1.385 . S
C2753 H2739 0.931 . S
C2753 C2752 1.385 . S
C2753 C2754 1.389 . S
C2754 C2753 1.389 . S
C2754 C2755 1.387 . S
C2755 H2740 0.930 . S
C2755 C2750 1.390 . S
C2755 C2754 1.387 . S
H2756 C2768 0.930 . S
H2757 C2770 0.930 . S
H2758 C2771 0.930 . S
H2759 C2775 0.959 . S
H2760 C2775 0.959 . S
H2761 C2775 0.961 . S
H2762 C2776 0.960 . S
H2763 C2776 0.961 . S
H2764 C2776 0.959 . S
H2765 C2779 0.929 . S
H2766 C2780 0.931 . S
H2767 C2782 0.930 . S
C2768 H2756 0.930 . S
C2768 C2769 1.399 . S
C2768 C2773 1.399 . S
C2769 C2768 1.399 . S
C2769 C2770 1.376 . S
C2770 H2757 0.930 . S
C2770 C2769 1.376 . S
C2770 C2771 1.388 . S
C2771 H2758 0.930 . S
C2771 C2770 1.388 . S
C2771 C2772 1.390 . S
C2772 C2771 1.390 . S
C2772 C2773 1.394 . S
C2772 C2778 1.465 . S
C2773 C2768 1.399 . S
C2773 C2772 1.394 . S
C2773 C2774 1.516 . S
C2774 C2773 1.516 . S
C2774 C2775 1.502 . S
C2774 C2776 1.561 . S
C2774 C2777 1.526 . S
C2775 H2759 0.959 . S
C2775 H2760 0.959 . S
C2775 H2761 0.961 . S
C2775 C2774 1.502 . S
C2776 H2762 0.960 . S
C2776 H2763 0.961 . S
C2776 H2764 0.959 . S
C2776 C2774 1.561 . S
C2777 C2774 1.526 . S
C2777 C2778 1.396 . S
C2777 C2782 1.390 . S
C2778 C2772 1.465 . S
C2778 C2777 1.396 . S
C2778 C2779 1.399 . S
C2779 H2765 0.929 . S
C2779 C2778 1.399 . S
C2779 C2780 1.385 . S
C2780 H2766 0.931 . S
C2780 C2779 1.385 . S
C2780 C2781 1.389 . S
C2781 C2780 1.389 . S
C2781 C2782 1.387 . S
C2782 H2767 0.930 . S
C2782 C2777 1.390 . S
C2782 C2781 1.387 . S
H2783 C2795 0.930 . S
H2784 C2797 0.930 . S
H2785 C2798 0.930 . S
H2786 C2802 0.959 . S
H2787 C2802 0.959 . S
H2788 C2802 0.961 . S
H2789 C2803 0.960 . S
H2790 C2803 0.961 . S
H2791 C2803 0.959 . S
H2792 C2806 0.929 . S
H2793 C2807 0.931 . S
H2794 C2809 0.930 . S
C2795 H2783 0.930 . S
C2795 C2796 1.399 . S
C2795 C2800 1.399 . S
C2796 C2795 1.399 . S
C2796 C2797 1.376 . S
C2797 H2784 0.930 . S
C2797 C2796 1.376 . S
C2797 C2798 1.388 . S
C2798 H2785 0.930 . S
C2798 C2797 1.388 . S
C2798 C2799 1.390 . S
C2799 C2798 1.390 . S
C2799 C2800 1.394 . S
C2799 C2805 1.465 . S
C2800 C2795 1.399 . S
C2800 C2799 1.394 . S
C2800 C2801 1.516 . S
C2801 C2800 1.516 . S
C2801 C2802 1.502 . S
C2801 C2803 1.561 . S
C2801 C2804 1.526 . S
C2802 H2786 0.959 . S
C2802 H2787 0.959 . S
C2802 H2788 0.961 . S
C2802 C2801 1.502 . S
C2803 H2789 0.960 . S
C2803 H2790 0.961 . S
C2803 H2791 0.959 . S
C2803 C2801 1.561 . S
C2804 C2801 1.526 . S
C2804 C2805 1.396 . S
C2804 C2809 1.390 . S
C2805 C2799 1.465 . S
C2805 C2804 1.396 . S
C2805 C2806 1.399 . S
C2806 H2792 0.929 . S
C2806 C2805 1.399 . S
C2806 C2807 1.385 . S
C2807 H2793 0.931 . S
C2807 C2806 1.385 . S
C2807 C2808 1.389 . S
C2808 C2807 1.389 . S
C2808 C2809 1.387 . S
C2809 H2794 0.930 . S
C2809 C2804 1.390 . S
C2809 C2808 1.387 . S
H2810 C2822 0.930 . S
H2811 C2824 0.930 . S
H2812 C2825 0.930 . S
H2813 C2829 0.959 . S
H2814 C2829 0.959 . S
H2815 C2829 0.961 . S
H2816 C2830 0.960 . S
H2817 C2830 0.961 . S
H2818 C2830 0.959 . S
H2819 C2833 0.929 . S
H2820 C2834 0.931 . S
H2821 C2836 0.930 . S
C2822 H2810 0.930 . S
C2822 C2823 1.399 . S
C2822 C2827 1.399 . S
C2823 C2822 1.399 . S
C2823 C2824 1.376 . S
C2824 H2811 0.930 . S
C2824 C2823 1.376 . S
C2824 C2825 1.388 . S
C2825 H2812 0.930 . S
C2825 C2824 1.388 . S
C2825 C2826 1.390 . S
C2826 C2825 1.390 . S
C2826 C2827 1.394 . S
C2826 C2832 1.465 1_455 S
C2827 C2822 1.399 . S
C2827 C2826 1.394 . S
C2827 C2828 1.516 . S
C2828 C2827 1.516 . S
C2828 C2829 1.502 1_455 S
C2828 C2830 1.561 . S
C2828 C2831 1.526 1_455 S
C2829 H2813 0.959 . S
C2829 H2814 0.959 . S
C2829 H2815 0.961 . S
C2829 C2828 1.502 1_655 S
C2830 H2816 0.960 . S
C2830 H2817 0.961 . S
C2830 H2818 0.959 . S
C2830 C2828 1.561 . S
C2831 C2828 1.526 1_655 S
C2831 C2832 1.396 . S
C2831 C2836 1.390 . S
C2832 C2826 1.465 1_655 S
C2832 C2831 1.396 . S
C2832 C2833 1.399 . S
C2833 H2819 0.929 . S
C2833 C2832 1.399 . S
C2833 C2834 1.385 . S
C2834 H2820 0.931 . S
C2834 C2833 1.385 . S
C2834 C2835 1.389 . S
C2835 C2834 1.389 . S
C2835 C2836 1.387 . S
C2836 H2821 0.930 . S
C2836 C2831 1.390 . S
C2836 C2835 1.387 . S
H2837 C2849 0.930 . S
H2838 C2851 0.930 . S
H2839 C2852 0.930 . S
H2840 C2856 0.959 . S
H2841 C2856 0.959 . S
H2842 C2856 0.961 . S
H2843 C2857 0.960 . S
H2844 C2857 0.961 . S
H2845 C2857 0.959 . S
H2846 C2860 0.929 . S
H2847 C2861 0.931 . S
H2848 C2863 0.930 . S
C2849 H2837 0.930 . S
C2849 C2850 1.399 . S
C2849 C2854 1.399 . S
C2850 C2849 1.399 . S
C2850 C2851 1.376 . S
C2851 H2838 0.930 . S
C2851 C2850 1.376 . S
C2851 C2852 1.388 . S
C2852 H2839 0.930 . S
C2852 C2851 1.388 . S
C2852 C2853 1.390 . S
C2853 C2852 1.390 . S
C2853 C2854 1.394 . S
C2853 C2859 1.465 . S
C2854 C2849 1.399 . S
C2854 C2853 1.394 . S
C2854 C2855 1.516 . S
C2855 C2854 1.516 . S
C2855 C2856 1.502 . S
C2855 C2857 1.561 . S
C2855 C2858 1.526 . S
C2856 H2840 0.959 . S
C2856 H2841 0.959 . S
C2856 H2842 0.961 . S
C2856 C2855 1.502 . S
C2857 H2843 0.960 . S
C2857 H2844 0.961 . S
C2857 H2845 0.959 . S
C2857 C2855 1.561 . S
C2858 C2855 1.526 . S
C2858 C2859 1.396 . S
C2858 C2863 1.390 . S
C2859 C2853 1.465 . S
C2859 C2858 1.396 . S
C2859 C2860 1.399 . S
C2860 H2846 0.929 . S
C2860 C2859 1.399 . S
C2860 C2861 1.385 . S
C2861 H2847 0.931 . S
C2861 C2860 1.385 . S
C2861 C2862 1.389 . S
C2862 C2861 1.389 . S
C2862 C2863 1.387 . S
C2863 H2848 0.930 . S
C2863 C2858 1.390 . S
C2863 C2862 1.387 . S
H2864 C2876 0.930 . S
H2865 C2878 0.930 . S
H2866 C2879 0.930 . S
H2867 C2883 0.959 . S
H2868 C2883 0.959 . S
H2869 C2883 0.961 . S
H2870 C2884 0.960 . S
H2871 C2884 0.961 . S
H2872 C2884 0.959 . S
H2873 C2887 0.929 . S
H2874 C2888 0.931 . S
H2875 C2890 0.930 . S
C2876 H2864 0.930 . S
C2876 C2877 1.399 . S
C2876 C2881 1.399 . S
C2877 C2876 1.399 . S
C2877 C2878 1.376 . S
C2878 H2865 0.930 . S
C2878 C2877 1.376 . S
C2878 C2879 1.388 . S
C2879 H2866 0.930 . S
C2879 C2878 1.388 . S
C2879 C2880 1.390 . S
C2880 C2879 1.390 . S
C2880 C2881 1.394 . S
C2880 C2886 1.465 . S
C2881 C2876 1.399 . S
C2881 C2880 1.394 . S
C2881 C2882 1.516 . S
C2882 C2881 1.516 . S
C2882 C2883 1.502 . S
C2882 C2884 1.561 . S
C2882 C2885 1.526 . S
C2883 H2867 0.959 . S
C2883 H2868 0.959 . S
C2883 H2869 0.961 . S
C2883 C2882 1.502 . S
C2884 H2870 0.960 . S
C2884 H2871 0.961 . S
C2884 H2872 0.959 . S
C2884 C2882 1.561 . S
C2885 C2882 1.526 . S
C2885 C2886 1.396 . S
C2885 C2890 1.390 . S
C2886 C2880 1.465 . S
C2886 C2885 1.396 . S
C2886 C2887 1.399 . S
C2887 H2873 0.929 . S
C2887 C2886 1.399 . S
C2887 C2888 1.385 . S
C2888 H2874 0.931 . S
C2888 C2887 1.385 . S
C2888 C2889 1.389 . S
C2889 C2888 1.389 . S
C2889 C2890 1.387 . S
C2890 H2875 0.930 . S
C2890 C2885 1.390 . S
C2890 C2889 1.387 . S
H2891 C2903 0.930 . S
H2892 C2905 0.930 . S
H2893 C2906 0.930 . S
H2894 C2910 0.959 . S
H2895 C2910 0.959 . S
H2896 C2910 0.961 . S
H2897 C2911 0.960 . S
H2898 C2911 0.961 . S
H2899 C2911 0.959 . S
H2900 C2914 0.929 . S
H2901 C2915 0.931 . S
H2902 C2917 0.930 . S
C2903 H2891 0.930 . S
C2903 C2904 1.399 . S
C2903 C2908 1.399 . S
C2904 C2903 1.399 . S
C2904 C2905 1.376 . S
C2905 H2892 0.930 . S
C2905 C2904 1.376 . S
C2905 C2906 1.388 . S
C2906 H2893 0.930 . S
C2906 C2905 1.388 . S
C2906 C2907 1.390 . S
C2907 C2906 1.390 . S
C2907 C2908 1.394 . S
C2907 C2913 1.465 . S
C2908 C2903 1.399 . S
C2908 C2907 1.394 . S
C2908 C2909 1.516 . S
C2909 C2908 1.516 . S
C2909 C2910 1.502 . S
C2909 C2911 1.561 . S
C2909 C2912 1.526 . S
C2910 H2894 0.959 . S
C2910 H2895 0.959 . S
C2910 H2896 0.961 . S
C2910 C2909 1.502 . S
C2911 H2897 0.960 . S
C2911 H2898 0.961 . S
C2911 H2899 0.959 . S
C2911 C2909 1.561 . S
C2912 C2909 1.526 . S
C2912 C2913 1.396 . S
C2912 C2917 1.390 . S
C2913 C2907 1.465 . S
C2913 C2912 1.396 . S
C2913 C2914 1.399 . S
C2914 H2900 0.929 . S
C2914 C2913 1.399 . S
C2914 C2915 1.385 . S
C2915 H2901 0.931 . S
C2915 C2914 1.385 . S
C2915 C2916 1.389 . S
C2916 C2915 1.389 . S
C2916 C2917 1.387 . S
C2917 H2902 0.930 . S
C2917 C2912 1.390 . S
C2917 C2916 1.387 . S
H2918 C2930 0.930 . S
H2919 C2932 0.930 . S
H2920 C2933 0.930 . S
H2921 C2937 0.959 . S
H2922 C2937 0.959 . S
H2923 C2937 0.961 . S
H2924 C2938 0.960 . S
H2925 C2938 0.961 . S
H2926 C2938 0.959 . S
H2927 C2941 0.929 . S
H2928 C2942 0.931 . S
H2929 C2944 0.930 . S
C2930 H2918 0.930 . S
C2930 C2931 1.399 . S
C2930 C2935 1.399 . S
C2931 C2930 1.399 . S
C2931 C2932 1.376 . S
C2932 H2919 0.930 . S
C2932 C2931 1.376 . S
C2932 C2933 1.388 . S
C2933 H2920 0.930 . S
C2933 C2932 1.388 . S
C2933 C2934 1.390 . S
C2934 C2933 1.390 . S
C2934 C2935 1.394 . S
C2934 C2940 1.465 . S
C2935 C2930 1.399 . S
C2935 C2934 1.394 . S
C2935 C2936 1.516 . S
C2936 C2935 1.516 . S
C2936 C2937 1.502 . S
C2936 C2938 1.561 . S
C2936 C2939 1.526 . S
C2937 H2921 0.959 . S
C2937 H2922 0.959 . S
C2937 H2923 0.961 . S
C2937 C2936 1.502 . S
C2938 H2924 0.960 . S
C2938 H2925 0.961 . S
C2938 H2926 0.959 . S
C2938 C2936 1.561 . S
C2939 C2936 1.526 . S
C2939 C2940 1.396 . S
C2939 C2944 1.390 . S
C2940 C2934 1.465 . S
C2940 C2939 1.396 . S
C2940 C2941 1.399 . S
C2941 H2927 0.929 . S
C2941 C2940 1.399 . S
C2941 C2942 1.385 . S
C2942 H2928 0.931 . S
C2942 C2941 1.385 . S
C2942 C2943 1.389 . S
C2943 C2942 1.389 . S
C2943 C2944 1.387 . S
C2944 H2929 0.930 . S
C2944 C2939 1.390 . S
C2944 C2943 1.387 . S
H2945 C2957 0.930 . S
H2946 C2959 0.930 . S
H2947 C2960 0.930 . S
H2948 C2964 0.959 . S
H2949 C2964 0.959 . S
H2950 C2964 0.961 . S
H2951 C2965 0.960 . S
H2952 C2965 0.961 . S
H2953 C2965 0.959 . S
H2954 C2968 0.929 . S
H2955 C2969 0.931 . S
H2956 C2971 0.930 . S
C2957 H2945 0.930 . S
C2957 C2958 1.399 . S
C2957 C2962 1.399 . S
C2958 C2957 1.399 . S
C2958 C2959 1.376 . S
C2959 H2946 0.930 . S
C2959 C2958 1.376 . S
C2959 C2960 1.388 . S
C2960 H2947 0.930 . S
C2960 C2959 1.388 . S
C2960 C2961 1.390 . S
C2961 C2960 1.390 . S
C2961 C2962 1.394 . S
C2961 C2967 1.465 . S
C2962 C2957 1.399 . S
C2962 C2961 1.394 . S
C2962 C2963 1.516 . S
C2963 C2962 1.516 . S
C2963 C2964 1.502 . S
C2963 C2965 1.561 . S
C2963 C2966 1.526 . S
C2964 H2948 0.959 . S
C2964 H2949 0.959 . S
C2964 H2950 0.961 . S
C2964 C2963 1.502 . S
C2965 H2951 0.960 . S
C2965 H2952 0.961 . S
C2965 H2953 0.959 . S
C2965 C2963 1.561 . S
C2966 C2963 1.526 . S
C2966 C2967 1.396 . S
C2966 C2971 1.390 . S
C2967 C2961 1.465 . S
C2967 C2966 1.396 . S
C2967 C2968 1.399 . S
C2968 H2954 0.929 . S
C2968 C2967 1.399 . S
C2968 C2969 1.385 . S
C2969 H2955 0.931 . S
C2969 C2968 1.385 . S
C2969 C2970 1.389 . S
C2970 C2969 1.389 . S
C2970 C2971 1.387 . S
C2971 H2956 0.930 . S
C2971 C2966 1.390 . S
C2971 C2970 1.387 . S
H2972 C2984 0.930 . S
H2973 C2986 0.930 . S
H2974 C2987 0.930 . S
H2975 C2991 0.959 . S
H2976 C2991 0.959 . S
H2977 C2991 0.961 . S
H2978 C2992 0.960 . S
H2979 C2992 0.961 . S
H2980 C2992 0.959 . S
H2981 C2995 0.929 . S
H2982 C2996 0.931 . S
H2983 C2998 0.930 . S
C2984 H2972 0.930 . S
C2984 C2985 1.399 . S
C2984 C2989 1.399 . S
C2985 C2984 1.399 . S
C2985 C2986 1.376 . S
C2986 H2973 0.930 . S
C2986 C2985 1.376 . S
C2986 C2987 1.388 . S
C2987 H2974 0.930 . S
C2987 C2986 1.388 . S
C2987 C2988 1.390 . S
C2988 C2987 1.390 . S
C2988 C2989 1.394 . S
C2988 C2994 1.465 . S
C2989 C2984 1.399 . S
C2989 C2988 1.394 . S
C2989 C2990 1.516 . S
C2990 C2989 1.516 . S
C2990 C2991 1.502 . S
C2990 C2992 1.561 . S
C2990 C2993 1.526 . S
C2991 H2975 0.959 . S
C2991 H2976 0.959 . S
C2991 H2977 0.961 . S
C2991 C2990 1.502 . S
C2992 H2978 0.960 . S
C2992 H2979 0.961 . S
C2992 H2980 0.959 . S
C2992 C2990 1.561 . S
C2993 C2990 1.526 . S
C2993 C2994 1.396 . S
C2993 C2998 1.390 . S
C2994 C2988 1.465 . S
C2994 C2993 1.396 . S
C2994 C2995 1.399 . S
C2995 H2981 0.929 . S
C2995 C2994 1.399 . S
C2995 C2996 1.385 . S
C2996 H2982 0.931 . S
C2996 C2995 1.385 . S
C2996 C2997 1.389 . S
C2997 C2996 1.389 . S
C2997 C2998 1.387 . S
C2998 H2983 0.930 . S
C2998 C2993 1.390 . S
C2998 C2997 1.387 . S
H2999 C3011 0.930 . S
H3000 C3013 0.930 . S
H3001 C3014 0.930 . S
H3002 C3018 0.959 . S
H3003 C3018 0.959 . S
H3004 C3018 0.961 . S
H3005 C3019 0.960 . S
H3006 C3019 0.961 . S
H3007 C3019 0.959 . S
H3008 C3022 0.929 . S
H3009 C3023 0.931 . S
H3010 C3025 0.930 . S
C3011 H2999 0.930 . S
C3011 C3012 1.399 . S
C3011 C3016 1.399 . S
C3012 C3011 1.399 . S
C3012 C3013 1.376 . S
C3013 H3000 0.930 . S
C3013 C3012 1.376 . S
C3013 C3014 1.388 . S
C3014 H3001 0.930 . S
C3014 C3013 1.388 . S
C3014 C3015 1.390 . S
C3015 C3014 1.390 . S
C3015 C3016 1.394 . S
C3015 C3021 1.465 . S
C3016 C3011 1.399 . S
C3016 C3015 1.394 . S
C3016 C3017 1.516 . S
C3017 C3016 1.516 . S
C3017 C3018 1.502 . S
C3017 C3019 1.561 . S
C3017 C3020 1.526 . S
C3018 H3002 0.959 . S
C3018 H3003 0.959 . S
C3018 H3004 0.961 . S
C3018 C3017 1.502 . S
C3019 H3005 0.960 . S
C3019 H3006 0.961 . S
C3019 H3007 0.959 . S
C3019 C3017 1.561 . S
C3020 C3017 1.526 . S
C3020 C3021 1.396 . S
C3020 C3025 1.390 . S
C3021 C3015 1.465 . S
C3021 C3020 1.396 . S
C3021 C3022 1.399 . S
C3022 H3008 0.929 . S
C3022 C3021 1.399 . S
C3022 C3023 1.385 . S
C3023 H3009 0.931 . S
C3023 C3022 1.385 . S
C3023 C3024 1.389 . S
C3024 C3023 1.389 . S
C3024 C3025 1.387 . S
C3025 H3010 0.930 . S
C3025 C3020 1.390 . S
C3025 C3024 1.387 . S
H3026 C3038 0.930 . S
H3027 C3040 0.930 . S
H3028 C3041 0.930 . S
H3029 C3045 0.959 . S
H3030 C3045 0.959 . S
H3031 C3045 0.961 . S
H3032 C3046 0.960 . S
H3033 C3046 0.961 . S
H3034 C3046 0.959 . S
H3035 C3049 0.929 . S
H3036 C3050 0.931 . S
H3037 C3052 0.930 . S
C3038 H3026 0.930 . S
C3038 C3039 1.399 . S
C3038 C3043 1.399 . S
C3039 C3038 1.399 . S
C3039 C3040 1.376 . S
C3040 H3027 0.930 . S
C3040 C3039 1.376 . S
C3040 C3041 1.388 . S
C3041 H3028 0.930 . S
C3041 C3040 1.388 . S
C3041 C3042 1.390 . S
C3042 C3041 1.390 . S
C3042 C3043 1.394 . S
C3042 C3048 1.465 . S
C3043 C3038 1.399 . S
C3043 C3042 1.394 . S
C3043 C3044 1.516 . S
C3044 C3043 1.516 . S
C3044 C3045 1.502 . S
C3044 C3046 1.561 . S
C3044 C3047 1.526 . S
C3045 H3029 0.959 . S
C3045 H3030 0.959 . S
C3045 H3031 0.961 . S
C3045 C3044 1.502 . S
C3046 H3032 0.960 . S
C3046 H3033 0.961 . S
C3046 H3034 0.959 . S
C3046 C3044 1.561 . S
C3047 C3044 1.526 . S
C3047 C3048 1.396 . S
C3047 C3052 1.390 . S
C3048 C3042 1.465 . S
C3048 C3047 1.396 . S
C3048 C3049 1.399 . S
C3049 H3035 0.929 . S
C3049 C3048 1.399 . S
C3049 C3050 1.385 . S
C3050 H3036 0.931 . S
C3050 C3049 1.385 . S
C3050 C3051 1.389 . S
C3051 C3050 1.389 . S
C3051 C3052 1.387 . S
C3052 H3037 0.930 . S
C3052 C3047 1.390 . S
C3052 C3051 1.387 . S
H3053 C3065 0.930 . S
H3054 C3067 0.930 . S
H3055 C3068 0.930 . S
H3056 C3072 0.959 . S
H3057 C3072 0.959 . S
H3058 C3072 0.961 . S
H3059 C3073 0.960 . S
H3060 C3073 0.961 . S
H3061 C3073 0.959 . S
H3062 C3076 0.929 . S
H3063 C3077 0.931 . S
H3064 C3079 0.930 . S
C3065 H3053 0.930 . S
C3065 C3066 1.399 . S
C3065 C3070 1.399 . S
C3066 C3065 1.399 . S
C3066 C3067 1.376 . S
C3067 H3054 0.930 . S
C3067 C3066 1.376 . S
C3067 C3068 1.388 . S
C3068 H3055 0.930 . S
C3068 C3067 1.388 . S
C3068 C3069 1.390 . S
C3069 C3068 1.390 . S
C3069 C3070 1.394 . S
C3069 C3075 1.465 . S
C3070 C3065 1.399 . S
C3070 C3069 1.394 . S
C3070 C3071 1.516 . S
C3071 C3070 1.516 . S
C3071 C3072 1.502 . S
C3071 C3073 1.561 . S
C3071 C3074 1.526 . S
C3072 H3056 0.959 . S
C3072 H3057 0.959 . S
C3072 H3058 0.961 . S
C3072 C3071 1.502 . S
C3073 H3059 0.960 . S
C3073 H3060 0.961 . S
C3073 H3061 0.959 . S
C3073 C3071 1.561 . S
C3074 C3071 1.526 . S
C3074 C3075 1.396 . S
C3074 C3079 1.390 . S
C3075 C3069 1.465 . S
C3075 C3074 1.396 . S
C3075 C3076 1.399 . S
C3076 H3062 0.929 . S
C3076 C3075 1.399 . S
C3076 C3077 1.385 . S
C3077 H3063 0.931 . S
C3077 C3076 1.385 . S
C3077 C3078 1.389 . S
C3078 C3077 1.389 . S
C3078 C3079 1.387 . S
C3079 H3064 0.930 . S
C3079 C3074 1.390 . S
C3079 C3078 1.387 . S
H3080 C3092 0.930 . S
H3081 C3094 0.930 . S
H3082 C3095 0.930 . S
H3083 C3099 0.959 . S
H3084 C3099 0.959 . S
H3085 C3099 0.961 . S
H3086 C3100 0.960 . S
H3087 C3100 0.961 . S
H3088 C3100 0.959 . S
H3089 C3103 0.929 . S
H3090 C3104 0.931 . S
H3091 C3106 0.930 . S
C3092 H3080 0.930 . S
C3092 C3093 1.399 . S
C3092 C3097 1.399 . S
C3093 C3092 1.399 . S
C3093 C3094 1.376 . S
C3094 H3081 0.930 . S
C3094 C3093 1.376 . S
C3094 C3095 1.388 . S
C3095 H3082 0.930 . S
C3095 C3094 1.388 . S
C3095 C3096 1.390 . S
C3096 C3095 1.390 . S
C3096 C3097 1.394 . S
C3096 C3102 1.465 . S
C3097 C3092 1.399 . S
C3097 C3096 1.394 . S
C3097 C3098 1.516 . S
C3098 C3097 1.516 . S
C3098 C3099 1.502 . S
C3098 C3100 1.561 . S
C3098 C3101 1.526 . S
C3099 H3083 0.959 . S
C3099 H3084 0.959 . S
C3099 H3085 0.961 . S
C3099 C3098 1.502 . S
C3100 H3086 0.960 . S
C3100 H3087 0.961 . S
C3100 H3088 0.959 . S
C3100 C3098 1.561 . S
C3101 C3098 1.526 . S
C3101 C3102 1.396 . S
C3101 C3106 1.390 . S
C3102 C3096 1.465 . S
C3102 C3101 1.396 . S
C3102 C3103 1.399 . S
C3103 H3089 0.929 . S
C3103 C3102 1.399 . S
C3103 C3104 1.385 . S
C3104 H3090 0.931 . S
C3104 C3103 1.385 . S
C3104 C3105 1.389 . S
C3105 C3104 1.389 . S
C3105 C3106 1.387 . S
C3106 H3091 0.930 . S
C3106 C3101 1.390 . S
C3106 C3105 1.387 . S
H3107 C3119 0.930 . S
H3108 C3121 0.930 . S
H3109 C3122 0.930 . S
H3110 C3126 0.959 . S
H3111 C3126 0.959 . S
H3112 C3126 0.961 . S
H3113 C3127 0.960 . S
H3114 C3127 0.961 . S
H3115 C3127 0.959 . S
H3116 C3130 0.929 . S
H3117 C3131 0.931 . S
H3118 C3133 0.930 . S
C3119 H3107 0.930 . S
C3119 C3120 1.399 . S
C3119 C3124 1.399 . S
C3120 C3119 1.399 . S
C3120 C3121 1.376 . S
C3121 H3108 0.930 . S
C3121 C3120 1.376 . S
C3121 C3122 1.388 . S
C3122 H3109 0.930 . S
C3122 C3121 1.388 . S
C3122 C3123 1.390 . S
C3123 C3122 1.390 . S
C3123 C3124 1.394 . S
C3123 C3129 1.465 . S
C3124 C3119 1.399 . S
C3124 C3123 1.394 . S
C3124 C3125 1.516 . S
C3125 C3124 1.516 . S
C3125 C3126 1.502 . S
C3125 C3127 1.561 . S
C3125 C3128 1.526 . S
C3126 H3110 0.959 . S
C3126 H3111 0.959 . S
C3126 H3112 0.961 . S
C3126 C3125 1.502 . S
C3127 H3113 0.960 . S
C3127 H3114 0.961 . S
C3127 H3115 0.959 . S
C3127 C3125 1.561 . S
C3128 C3125 1.526 . S
C3128 C3129 1.396 . S
C3128 C3133 1.390 . S
C3129 C3123 1.465 . S
C3129 C3128 1.396 . S
C3129 C3130 1.399 . S
C3130 H3116 0.929 . S
C3130 C3129 1.399 . S
C3130 C3131 1.385 . S
C3131 H3117 0.931 . S
C3131 C3130 1.385 . S
C3131 C3132 1.389 . S
C3132 C3131 1.389 . S
C3132 C3133 1.387 . S
C3133 H3118 0.930 . S
C3133 C3128 1.390 . S
C3133 C3132 1.387 . S
H3134 C3146 0.930 . S
H3135 C3148 0.930 . S
H3136 C3149 0.930 . S
H3137 C3153 0.959 . S
H3138 C3153 0.959 . S
H3139 C3153 0.961 . S
H3140 C3154 0.960 . S
H3141 C3154 0.961 . S
H3142 C3154 0.959 . S
H3143 C3157 0.929 . S
H3144 C3158 0.931 . S
H3145 C3160 0.930 . S
C3146 H3134 0.930 . S
C3146 C3147 1.399 . S
C3146 C3151 1.399 . S
C3147 C3146 1.399 . S
C3147 C3148 1.376 . S
C3148 H3135 0.930 . S
C3148 C3147 1.376 . S
C3148 C3149 1.388 . S
C3149 H3136 0.930 . S
C3149 C3148 1.388 . S
C3149 C3150 1.390 . S
C3150 C3149 1.390 . S
C3150 C3151 1.394 . S
C3150 C3156 1.465 . S
C3151 C3146 1.399 . S
C3151 C3150 1.394 . S
C3151 C3152 1.516 . S
C3152 C3151 1.516 . S
C3152 C3153 1.502 . S
C3152 C3154 1.561 . S
C3152 C3155 1.526 . S
C3153 H3137 0.959 . S
C3153 H3138 0.959 . S
C3153 H3139 0.961 . S
C3153 C3152 1.502 . S
C3154 H3140 0.960 . S
C3154 H3141 0.961 . S
C3154 H3142 0.959 . S
C3154 C3152 1.561 . S
C3155 C3152 1.526 . S
C3155 C3156 1.396 . S
C3155 C3160 1.390 . S
C3156 C3150 1.465 . S
C3156 C3155 1.396 . S
C3156 C3157 1.399 . S
C3157 H3143 0.929 . S
C3157 C3156 1.399 . S
C3157 C3158 1.385 . S
C3158 H3144 0.931 . S
C3158 C3157 1.385 . S
C3158 C3159 1.389 . S
C3159 C3158 1.389 . S
C3159 C3160 1.387 . S
C3160 H3145 0.930 . S
C3160 C3155 1.390 . S
C3160 C3159 1.387 . S
H3161 C3173 0.930 . S
H3162 C3175 0.930 . S
H3163 C3176 0.930 . S
H3164 C3180 0.959 . S
H3165 C3180 0.959 . S
H3166 C3180 0.961 . S
H3167 C3181 0.960 . S
H3168 C3181 0.961 . S
H3169 C3181 0.959 . S
H3170 C3184 0.929 . S
H3171 C3185 0.931 . S
H3172 C3187 0.930 . S
C3173 H3161 0.930 . S
C3173 C3174 1.399 . S
C3173 C3178 1.399 . S
C3174 C3173 1.399 . S
C3174 C3175 1.376 1_554 S
C3175 H3162 0.930 . S
C3175 C3174 1.376 1_556 S
C3175 C3176 1.388 . S
C3176 H3163 0.930 . S
C3176 C3175 1.388 . S
C3176 C3177 1.390 . S
C3177 C3176 1.390 . S
C3177 C3178 1.394 1_556 S
C3177 C3183 1.465 . S
C3178 C3173 1.399 . S
C3178 C3177 1.394 1_554 S
C3178 C3179 1.516 . S
C3179 C3178 1.516 . S
C3179 C3180 1.502 . S
C3179 C3181 1.561 . S
C3179 C3182 1.526 . S
C3180 H3164 0.959 . S
C3180 H3165 0.959 . S
C3180 H3166 0.961 . S
C3180 C3179 1.502 . S
C3181 H3167 0.960 . S
C3181 H3168 0.961 . S
C3181 H3169 0.959 . S
C3181 C3179 1.561 . S
C3182 C3179 1.526 . S
C3182 C3183 1.396 1_554 S
C3182 C3187 1.390 . S
C3183 C3177 1.465 . S
C3183 C3182 1.396 1_556 S
C3183 C3184 1.399 . S
C3184 H3170 0.929 . S
C3184 C3183 1.399 . S
C3184 C3185 1.385 . S
C3185 H3171 0.931 . S
C3185 C3184 1.385 . S
C3185 C3186 1.389 . S
C3186 C3185 1.389 . S
C3186 C3187 1.387 1_556 S
C3187 H3172 0.930 . S
C3187 C3182 1.390 . S
C3187 C3186 1.387 1_554 S
H3188 C3200 0.930 . S
H3189 C3202 0.930 . S
H3190 C3203 0.930 . S
H3191 C3207 0.959 . S
H3192 C3207 0.959 . S
H3193 C3207 0.961 . S
H3194 C3208 0.960 . S
H3195 C3208 0.961 . S
H3196 C3208 0.959 . S
H3197 C3211 0.929 . S
H3198 C3212 0.931 . S
H3199 C3214 0.930 . S
C3200 H3188 0.930 . S
C3200 C3201 1.399 . S
C3200 C3205 1.399 . S
C3201 C3200 1.399 . S
C3201 C3202 1.376 . S
C3202 H3189 0.930 . S
C3202 C3201 1.376 . S
C3202 C3203 1.388 . S
C3203 H3190 0.930 . S
C3203 C3202 1.388 . S
C3203 C3204 1.390 . S
C3204 C3203 1.390 . S
C3204 C3205 1.394 . S
C3204 C3210 1.465 . S
C3205 C3200 1.399 . S
C3205 C3204 1.394 . S
C3205 C3206 1.516 . S
C3206 C3205 1.516 . S
C3206 C3207 1.502 . S
C3206 C3208 1.561 . S
C3206 C3209 1.526 . S
C3207 H3191 0.959 . S
C3207 H3192 0.959 . S
C3207 H3193 0.961 . S
C3207 C3206 1.502 . S
C3208 H3194 0.960 . S
C3208 H3195 0.961 . S
C3208 H3196 0.959 . S
C3208 C3206 1.561 . S
C3209 C3206 1.526 . S
C3209 C3210 1.396 . S
C3209 C3214 1.390 . S
C3210 C3204 1.465 . S
C3210 C3209 1.396 . S
C3210 C3211 1.399 . S
C3211 H3197 0.929 . S
C3211 C3210 1.399 . S
C3211 C3212 1.385 . S
C3212 H3198 0.931 . S
C3212 C3211 1.385 . S
C3212 C3213 1.389 . S
C3213 C3212 1.389 . S
C3213 C3214 1.387 . S
C3214 H3199 0.930 . S
C3214 C3209 1.390 . S
C3214 C3213 1.387 . S
H3215 C3227 0.930 . S
H3216 C3229 0.930 . S
H3217 C3230 0.930 . S
H3218 C3234 0.959 . S
H3219 C3234 0.959 . S
H3220 C3234 0.961 . S
H3221 C3235 0.960 . S
H3222 C3235 0.961 . S
H3223 C3235 0.959 . S
H3224 C3238 0.929 . S
H3225 C3239 0.931 1_556 S
H3226 C3241 0.930 . S
C3227 H3215 0.930 . S
C3227 C3228 1.399 . S
C3227 C3232 1.399 . S
C3228 C3227 1.399 . S
C3228 C3229 1.376 1_554 S
C3229 H3216 0.930 . S
C3229 C3228 1.376 1_556 S
C3229 C3230 1.388 . S
C3230 H3217 0.930 . S
C3230 C3229 1.388 . S
C3230 C3231 1.390 1_556 S
C3231 C3230 1.390 1_554 S
C3231 C3232 1.394 . S
C3231 C3237 1.465 . S
C3232 C3227 1.399 . S
C3232 C3231 1.394 . S
C3232 C3233 1.516 . S
C3233 C3232 1.516 . S
C3233 C3234 1.502 . S
C3233 C3235 1.561 . S
C3233 C3236 1.526 . S
C3234 H3218 0.959 . S
C3234 H3219 0.959 . S
C3234 H3220 0.961 . S
C3234 C3233 1.502 . S
C3235 H3221 0.960 . S
C3235 H3222 0.961 . S
C3235 H3223 0.959 . S
C3235 C3233 1.561 . S
C3236 C3233 1.526 . S
C3236 C3237 1.396 . S
C3236 C3241 1.390 . S
C3237 C3231 1.465 . S
C3237 C3236 1.396 . S
C3237 C3238 1.399 1_554 S
C3238 H3224 0.929 . S
C3238 C3237 1.399 1_556 S
C3238 C3239 1.385 1_556 S
C3239 H3225 0.931 1_554 S
C3239 C3238 1.385 1_554 S
C3239 C3240 1.389 . S
C3240 C3239 1.389 . S
C3240 C3241 1.387 . S
C3241 H3226 0.930 . S
C3241 C3236 1.390 . S
C3241 C3240 1.387 . S
H3242 C3254 0.930 . S
H3243 C3256 0.930 . S
H3244 C3257 0.930 . S
H3245 C3261 0.959 . S
H3246 C3261 0.959 . S
H3247 C3261 0.961 . S
H3248 C3262 0.960 . S
H3249 C3262 0.961 . S
H3250 C3262 0.959 . S
H3251 C3265 0.929 . S
H3252 C3266 0.931 . S
H3253 C3268 0.930 . S
C3254 H3242 0.930 . S
C3254 C3255 1.399 . S
C3254 C3259 1.399 . S
C3255 C3254 1.399 . S
C3255 C3256 1.376 . S
C3256 H3243 0.930 . S
C3256 C3255 1.376 . S
C3256 C3257 1.388 . S
C3257 H3244 0.930 . S
C3257 C3256 1.388 . S
C3257 C3258 1.390 . S
C3258 C3257 1.390 . S
C3258 C3259 1.394 . S
C3258 C3264 1.465 . S
C3259 C3254 1.399 . S
C3259 C3258 1.394 . S
C3259 C3260 1.516 . S
C3260 C3259 1.516 . S
C3260 C3261 1.502 . S
C3260 C3262 1.561 . S
C3260 C3263 1.526 . S
C3261 H3245 0.959 . S
C3261 H3246 0.959 . S
C3261 H3247 0.961 . S
C3261 C3260 1.502 . S
C3262 H3248 0.960 . S
C3262 H3249 0.961 . S
C3262 H3250 0.959 . S
C3262 C3260 1.561 . S
C3263 C3260 1.526 . S
C3263 C3264 1.396 . S
C3263 C3268 1.390 . S
C3264 C3258 1.465 . S
C3264 C3263 1.396 . S
C3264 C3265 1.399 . S
C3265 H3251 0.929 . S
C3265 C3264 1.399 . S
C3265 C3266 1.385 . S
C3266 H3252 0.931 . S
C3266 C3265 1.385 . S
C3266 C3267 1.389 . S
C3267 C3266 1.389 . S
C3267 C3268 1.387 . S
C3268 H3253 0.930 . S
C3268 C3263 1.390 . S
C3268 C3267 1.387 . S
H3269 C3281 0.930 . S
H3270 C3283 0.930 . S
H3271 C3284 0.930 . S
H3272 C3288 0.959 . S
H3273 C3288 0.959 . S
H3274 C3288 0.961 . S
H3275 C3289 0.960 . S
H3276 C3289 0.961 . S
H3277 C3289 0.959 . S
H3278 C3292 0.929 . S
H3279 C3293 0.931 . S
H3280 C3295 0.930 . S
C3281 H3269 0.930 . S
C3281 C3282 1.399 . S
C3281 C3286 1.399 . S
C3282 C3281 1.399 . S
C3282 C3283 1.376 . S
C3283 H3270 0.930 . S
C3283 C3282 1.376 . S
C3283 C3284 1.388 . S
C3284 H3271 0.930 . S
C3284 C3283 1.388 . S
C3284 C3285 1.390 . S
C3285 C3284 1.390 . S
C3285 C3286 1.394 . S
C3285 C3291 1.465 . S
C3286 C3281 1.399 . S
C3286 C3285 1.394 . S
C3286 C3287 1.516 . S
C3287 C3286 1.516 . S
C3287 C3288 1.502 . S
C3287 C3289 1.561 . S
C3287 C3290 1.526 . S
C3288 H3272 0.959 . S
C3288 H3273 0.959 . S
C3288 H3274 0.961 . S
C3288 C3287 1.502 . S
C3289 H3275 0.960 . S
C3289 H3276 0.961 . S
C3289 H3277 0.959 . S
C3289 C3287 1.561 . S
C3290 C3287 1.526 . S
C3290 C3291 1.396 . S
C3290 C3295 1.390 . S
C3291 C3285 1.465 . S
C3291 C3290 1.396 . S
C3291 C3292 1.399 . S
C3292 H3278 0.929 . S
C3292 C3291 1.399 . S
C3292 C3293 1.385 . S
C3293 H3279 0.931 . S
C3293 C3292 1.385 . S
C3293 C3294 1.389 . S
C3294 C3293 1.389 . S
C3294 C3295 1.387 . S
C3295 H3280 0.930 . S
C3295 C3290 1.390 . S
C3295 C3294 1.387 . S
C729 C352 1.196 . S
C717 C7 1.193 . S
C744 C22 1.415 . S
C756 C380 1.253 . S
C771 C31 1.186 . S
C783 C398 1.170 . S
C810 C424 1.316 . S
C798 C51 1.467 . S
C825 C17 1.505 . S
C837 C447 1.294 . S
C864 C467 1.073 . S
C852 C36 1.123 . S
C891 C495 1.422 1_556 S
C879 C49 1.439 . S
C906 C9 1.180 . S
C918 C513 1.107 . S
C933 C63 1.388 . S
C945 C354 1.395 . S
C960 C73 1.112 . S
C972 C376 1.138 . S
C999 C400 1.428 . S
C987 C91 1.350 1_545 S
C1026 C421 1.167 . S
C1014 C101 1.149 . S
C1041 C59 1.172 . S
C1053 C444 1.167 . S
C1080 C469 1.392 . S
C1068 C77 1.405 . S
C1107 C491 1.134 . S
C1095 C87 1.107 1_565 S
C1134 C515 1.401 . S
C1122 C105 1.376 . S
C1161 C355 1.013 1_556 S
C1149 C107 1.053 . S
C1188 C538 1.197 . S
C1176 C120 1.184 . S
C1203 C135 1.055 . S
C1215 C562 0.998 . S
C1242 C586 1.132 . S
C1230 C148 1.168 . S
C1257 C65 1.021 . S
C1269 C516 0.986 . S
C1296 C401 1.034 . S
C1284 C79 1.112 . S
C1311 C134 1.149 . S
C1323 C607 1.130 . S
C1350 C632 1.105 . S
C1338 C162 1.120 . S
C1365 C171 1.161 . S
C1377 C353 1.153 . S
C1404 C630 1.043 . S
C1392 C190 1.051 . S
C1419 C203 1.168 . S
C1431 C399 1.146 . S
C1446 C219 1.019 . S
C1458 C609 0.943 . S
C1485 C448 1.060 . S
C1473 C189 0.967 . S
C1512 C560 1.144 . S
C1500 C204 1.094 . S
C1539 C492 1.086 . S
C1527 C213 1.061 . S
C1566 C652 1.103 . S
C1554 C177 1.148 . S
C1593 C357 0.912 . S
C1581 C227 0.989 . S
C1608 C245 1.305 . S
C1620 C628 1.296 . S
C1647 C403 1.007 . S
C1635 C255 0.984 1_565 S
C1662 C273 1.253 . S
C1674 C606 1.306 . S
C1689 C231 1.310 . S
C1701 C445 1.274 . S
C1716 C241 0.982 . S
C1728 C564 0.989 . S
C1755 C490 1.336 . S
C1743 C259 1.242 . S
C1770 C269 0.963 . S
C1782 C656 1.004 . S
C1797 C275 1.329 . S
C1809 C356 1.283 . S
C1824 C288 1.214 . S
C1836 C541 1.214 . S
C1851 C303 1.295 . S
C1863 C471 1.262 . S
C1878 C316 1.250 . S
C1890 C585 1.114 . S
C1917 C655 1.265 . S
C1905 C233 1.309 . S
C1944 C402 1.285 . S
C1932 C247 1.341 . S
C1971 C426 1.107 . S
C1959 C302 1.188 . S
C1998 C378 1.177 . S
C1986 C330 1.175 . S
C2013 C35 1.183 . S
C2025 C674 1.141 . S
C2052 C633 1.245 . S
C2040 C50 1.422 . S
C2079 C697 1.188 . S
C2067 C3 1.181 . S
C2094 C23 1.482 . S
C2106 C608 1.267 . S
C2121 C45 1.505 . S
C2133 C539 1.297 1_556 S
C2160 C559 1.110 . S
C2148 C8 1.139 . S
C2187 C587 1.316 . S
C2175 C21 1.442 . S
C2214 C651 1.159 . S
C2202 C37 1.133 . S
C2241 C676 1.389 . S
C2229 C161 1.404 . S
C2256 C115 1.127 . S
C2268 C629 1.070 . S
C2283 C133 1.348 . S
C2295 C699 1.428 . S
C2322 C605 1.168 . S
C2310 C143 1.153 . S
C2349 C536 1.108 . S
C2337 C157 1.172 . S
C2364 C119 1.372 . S
C2376 C561 1.405 . S
C2403 C583 1.077 . S
C2391 C129 1.114 . S
C2418 C147 1.404 . S
C2430 C653 1.389 . S
C2457 C677 1.005 . S
C2445 C149 1.054 . S
C2484 C446 1.197 . S
C2472 C78 1.180 . S
C2511 C470 0.952 . S
C2499 C93 1.083 . S
C2526 C106 1.158 . S
C2538 C494 1.139 . S
C2565 C654 0.975 . S
C2553 C163 1.022 . S
C2580 C121 1.112 . S
C2592 C700 0.929 1_556 S
C2619 C423 1.150 . S
C2607 C92 1.126 . S
C2646 C379 1.108 . S
C2634 C64 1.119 . S
C2661 C199 1.185 . S
C2673 C675 1.128 . S
C2700 C377 1.023 . S
C2688 C218 1.005 . S
C2727 C698 1.164 . S
C2715 C175 1.154 . S
C2742 C191 1.012 . S
C2754 C425 1.030 . S
C2769 C217 0.997 . S
C2781 C540 1.062 . S
C2796 C176 1.093 . S
C2808 C468 1.145 . S
C2823 C185 1.103 . S
C2835 C584 1.070 . S
C2850 C205 1.144 . S
C2862 C514 1.108 . S
C2889 C679 1.002 . S
C2877 C325 0.976 . S
C2904 C287 1.299 . S
C2916 C375 1.302 . S
C2943 C702 0.900 . S
C2931 C297 1.006 . S
C2958 C315 1.288 . S
C2970 C422 1.273 . S
C2985 C329 1.241 . S
C2997 C537 1.332 . S
C3024 C472 1.003 . S
C3012 C283 0.964 . S
C3039 C301 1.241 . S
C3051 C582 1.337 . S
C3078 C518 0.891 . S
C3066 C311 1.010 . S
C3105 C678 1.264 . S
C3093 C317 1.359 . S
C3132 C449 1.228 . S
C3120 C246 1.213 . S
C3147 C261 1.305 . S
C3159 C563 1.234 . S
C3186 C493 1.196 . S
C3174 C274 1.215 . S
C3213 C517 1.265 . S
C3201 C331 1.309 . S
C3228 C289 1.351 . S
C3240 C701 1.269 . S
C3267 C610 1.182 . S
C3255 C260 1.173 . S
C3294 C631 1.062 . S
C3282 C232 1.210 . S
