# Generated by pormake.
# Topology ssa, (4,4)-cn, num edge types: 1
# Building blocks:
#     Node 0, Type 0, BuildingBlock: ESEHIV_clean_sbu_0, # of connection points: 4
#     Node 1, Type 0, BuildingBlock: ESEHIV_clean_sbu_0, # of connection points: 4
#     Node 2, Type 0, BuildingBlock: ESEHIV_clean_sbu_0, # of connection points: 4
#     Node 3, Type 0, BuildingBlock: ESEHIV_clean_sbu_0, # of connection points: 4
#     Node 4, Type 0, BuildingBlock: ESEHIV_clean_sbu_0, # of connection points: 4
#     Node 5, Type 0, BuildingBlock: ESEHIV_clean_sbu_0, # of connection points: 4
#     Node 6, Type 1, BuildingBlock: ESEHIV_clean_sbu_0, # of connection points: 4
#     Node 7, Type 1, BuildingBlock: ESEHIV_clean_sbu_0, # of connection points: 4
#     Node 8, Type 1, BuildingBlock: ESEHIV_clean_sbu_0, # of connection points: 4
#     Node 9, Type 1, BuildingBlock: ESEHIV_clean_sbu_0, # of connection points: 4
#     Node 10, Type 1, BuildingBlock: ESEHIV_clean_sbu_0, # of connection points: 4
#     Node 11, Type 1, BuildingBlock: ESEHIV_clean_sbu_0, # of connection points: 4
#     Edge 12, Type (0, 1), BuildingBlock: EZIPEK_clean_linker_0, # of connection points: 2
#     Edge 13, Type (0, 1), BuildingBlock: EZIPEK_clean_linker_0, # of connection points: 2
#     Edge 14, Type (0, 1), BuildingBlock: EZIPEK_clean_linker_0, # of connection points: 2
#     Edge 15, Type (0, 1), BuildingBlock: EZIPEK_clean_linker_0, # of connection points: 2
#     Edge 16, Type (0, 1), BuildingBlock: EZIPEK_clean_linker_0, # of connection points: 2
#     Edge 17, Type (0, 1), BuildingBlock: EZIPEK_clean_linker_0, # of connection points: 2
#     Edge 18, Type (0, 1), BuildingBlock: EZIPEK_clean_linker_0, # of connection points: 2
#     Edge 19, Type (0, 1), BuildingBlock: EZIPEK_clean_linker_0, # of connection points: 2
#     Edge 20, Type (0, 1), BuildingBlock: EZIPEK_clean_linker_0, # of connection points: 2
#     Edge 21, Type (0, 1), BuildingBlock: EZIPEK_clean_linker_0, # of connection points: 2
#     Edge 22, Type (0, 1), BuildingBlock: EZIPEK_clean_linker_0, # of connection points: 2
#     Edge 23, Type (0, 1), BuildingBlock: EZIPEK_clean_linker_0, # of connection points: 2
#     Edge 24, Type (0, 1), BuildingBlock: EZIPEK_clean_linker_0, # of connection points: 2
#     Edge 25, Type (0, 1), BuildingBlock: EZIPEK_clean_linker_0, # of connection points: 2
#     Edge 26, Type (0, 1), BuildingBlock: EZIPEK_clean_linker_0, # of connection points: 2
#     Edge 27, Type (0, 1), BuildingBlock: EZIPEK_clean_linker_0, # of connection points: 2
#     Edge 28, Type (0, 1), BuildingBlock: EZIPEK_clean_linker_0, # of connection points: 2
#     Edge 29, Type (0, 1), BuildingBlock: EZIPEK_clean_linker_0, # of connection points: 2
#     Edge 30, Type (0, 1), BuildingBlock: EZIPEK_clean_linker_0, # of connection points: 2
#     Edge 31, Type (0, 1), BuildingBlock: EZIPEK_clean_linker_0, # of connection points: 2
#     Edge 32, Type (0, 1), BuildingBlock: EZIPEK_clean_linker_0, # of connection points: 2
#     Edge 33, Type (0, 1), BuildingBlock: EZIPEK_clean_linker_0, # of connection points: 2
#     Edge 34, Type (0, 1), BuildingBlock: EZIPEK_clean_linker_0, # of connection points: 2
#     Edge 35, Type (0, 1), BuildingBlock: EZIPEK_clean_linker_0, # of connection points: 2
# Relax obj value: 0.055
# Max RMSD: 0.107
# Mean RMSD: 0.097
data_MOF--net-ssa--node1-ESEHIV_clean_sbu_0--node2-ESEHIV_clean_sbu_0--edge1-EZIPEK_clean_linker_0
_symmetry_space_group_name_H-M    P1
_symmetry_Int_Tables_number       1
_symmetry_cell_setting            triclinic
loop_
_symmetry_equiv_pos_as_xyz
'x, y, z'
_cell_length_a     36.239385
_cell_length_b     39.388028
_cell_length_c     27.440986
_cell_angle_alpha  87.441421
_cell_angle_beta   91.102895
_cell_angle_gamma 123.06549
loop_
_atom_site_label
_atom_site_type_symbol
_atom_site_fract_x
_atom_site_fract_y
_atom_site_fract_z
_atom_type_partial_charge
Cu0 Cu 1.02814 0.53449 0.05397 0.0
N1 N 0.99113 0.47988 0.07174 0.0
N2 N 0.95693 0.41329 0.06565 0.0
C3 C 0.98045 0.44969 0.0421 0.0
C4 C 0.9527 0.42051 0.11208 0.0
C5 C 0.97384 0.46194 0.11571 0.0
O6 O 1.00635 0.54413 0.98987 0.0
C7 C 0.09781 0.5378 0.10628 0.0
O8 O 0.06809 0.52614 0.1407 0.0
H9 H 0.99027 0.45432 1.00411 0.0
H10 H 0.97727 0.47787 0.1483 0.0
N11 N 1.02295 0.56554 0.09905 0.0
N12 N 0.04325 0.61451 0.15089 0.0
C13 C 0.05681 0.59976 0.11728 0.0
C14 C 0.98662 0.55867 0.12155 0.0
C15 C 0.99915 0.58903 0.15386 0.0
C16 C 0.96446 0.5268 0.98407 0.0
O17 O 0.93814 0.50167 1.01893 0.0
H18 H 0.09087 0.61315 0.10694 0.0
H19 H 0.95356 0.53299 0.11559 0.0
O20 O 0.08875 0.54523 0.06296 0.0
H21 H 0.93564 0.39754 0.14092 0.0
H22 H 0.97792 0.59178 0.17832 0.0
Cu23 Cu 0.57113 0.03995 0.55592 0.0
N24 N 0.58752 0.02634 0.49771 0.0
N25 N 0.5932 0.98753 0.44405 0.0
C26 C 0.57607 0.98842 0.48711 0.0
C27 C 0.61612 0.02639 0.42669 0.0
C28 C 0.61253 0.05016 0.45965 0.0
O29 O 0.5089 0.99934 0.56353 0.0
C30 C 0.64517 0.04889 0.603 0.0
O31 O 0.65686 0.04582 0.55928 0.0
H32 H 0.55645 0.96204 0.51112 0.0
H33 H 0.62776 0.08263 0.45643 0.0
N34 N 0.57901 0.09176 0.55869 0.0
N35 N 0.58449 0.14537 0.593 0.0
C36 C 0.57893 0.10864 0.60075 0.0
C37 C 0.58486 0.11899 0.5231 0.0
C38 C 0.58818 0.15197 0.54413 0.0
C39 C 0.48685 0.99691 0.52571 0.0
O40 O 0.50681 0.02391 0.48966 0.0
H41 H 0.57437 0.09402 0.63646 0.0
H42 H 0.58613 0.11503 0.48456 0.0
O43 O 0.60631 0.0402 0.61016 0.0
H44 H 0.63477 0.03695 0.39291 0.0
H45 H 0.59243 0.17853 0.525 0.0
Cu46 Cu 0.56957 0.54419 1.02817 0.0
N47 N 0.58011 0.50182 1.02513 0.0
N48 N 0.58619 0.45458 0.98868 0.0
C49 C 0.59327 0.49222 0.98476 0.0
C50 C 0.56857 0.44028 1.03363 0.0
C51 C 0.56487 0.46917 0.05581 0.0
O52 O 0.59574 0.57704 0.96904 0.0
C53 C 0.48722 0.50337 0.06903 0.0
O54 O 0.51015 0.50273 0.10627 0.0
H55 H 0.60504 0.51127 0.95185 0.0
H56 H 0.54946 0.46536 0.0907 0.0
N57 N 0.58992 0.57722 0.08369 0.0
N58 N 0.59611 0.62136 0.13812 0.0
C59 C 0.58022 0.60492 0.09421 0.0
C60 C 0.61258 0.57615 0.12256 0.0
C61 C 0.61654 0.60334 0.15597 0.0
C62 C 0.63549 0.60707 0.96817 0.0
O63 O 0.65604 0.61947 1.00992 0.0
H64 H 0.56153 0.61263 0.07031 0.0
H65 H 0.62471 0.55646 0.12672 0.0
O66 O 0.50644 0.5191 1.02826 0.0
H67 H 0.55737 0.41024 0.04861 0.0
H68 H 0.63306 0.60935 0.1908 0.0
Cu69 Cu 1.02566 0.50538 0.53488 0.0
N70 N 1.02112 0.46907 0.48995 0.0
N71 N 0.03981 0.43863 0.43861 0.0
C72 C 0.05298 0.46397 0.47559 0.0
C73 C 0.99768 0.42631 0.42974 0.0
C74 C 0.98619 0.4452 0.46167 0.0
O75 O 0.08214 0.55977 0.5239 0.0
C76 C 0.99436 0.44131 0.61173 0.0
O77 O 1.01763 0.43047 0.58878 0.0
H78 H 0.08555 0.47903 0.49078 0.0
H79 H 0.9551 0.44294 0.46296 0.0
N80 N 0.98686 0.51998 0.51534 0.0
N81 N 0.95302 0.55243 0.52378 0.0
C82 C 0.96771 0.53112 0.54658 0.0
C83 C 0.98406 0.53462 0.47106 0.0
C84 C 0.96304 0.55482 0.4762 0.0
C85 C 0.12153 0.57069 0.51304 0.0
O86 O 0.13393 0.54524 0.52049 0.0
H87 H 0.96876 0.52752 0.58584 0.0
H88 H 0.99997 0.53413 0.43839 0.0
O89 O 0.99937 0.47534 0.59898 0.0
H90 H 0.97761 0.40668 0.4009 0.0
H91 H 0.95863 0.57253 0.44819 0.0
Cu92 Cu 0.52815 1.00831 0.04407 0.0
N93 N 0.48587 1.0007 0.99834 0.0
N94 N 0.45513 1.02103 0.94343 0.0
C95 C 0.48137 0.03097 0.98257 0.0
C96 C 0.44138 0.98244 0.93459 0.0
C97 C 0.46053 0.96985 0.96885 0.0
O98 O 0.57915 0.06568 1.03127 0.0
C99 C 0.47049 0.94971 0.1166 0.0
O100 O 0.46548 0.92551 0.0821 0.0
H101 H 0.50003 0.06102 0.99696 0.0
H102 H 0.45861 0.94144 0.97 0.0
N103 N 0.55097 0.97714 1.03175 0.0
N104 N 0.58878 0.94837 0.04622 0.0
C105 C 0.57046 0.96655 0.06575 0.0
C106 C 0.55742 0.96543 0.98906 0.0
C107 C 0.58097 0.94761 0.99793 0.0
C108 C 0.59267 0.07622 0.98667 0.0
O109 O 0.5714 0.04971 0.95293 0.0
H110 H 0.57222 0.97303 0.10396 0.0
H111 H 0.54688 0.9705 0.95389 0.0
O112 O 0.49719 0.98826 0.10897 0.0
H113 H 0.42191 0.96591 0.90357 0.0
H114 H 0.59188 0.93544 0.97124 0.0
Cu115 Cu 0.52559 0.52062 0.54308 0.0
N116 N 0.54411 0.57307 0.55876 0.0
N117 N 0.57776 0.63983 0.54629 0.0
C118 C 0.56187 0.60414 0.52559 0.0
C119 C 0.56994 0.63123 0.59454 0.0
C120 C 0.54895 0.58969 0.60219 0.0
O121 O 0.49852 0.51407 0.4767 0.0
C122 C 0.58918 0.5174 0.60152 0.0
O123 O 0.56511 0.519 0.63535 0.0
H124 H 0.56453 0.60082 0.48709 0.0
H125 H 0.53931 0.57307 0.63697 0.0
N126 N 0.48197 0.4815 0.58543 0.0
N127 N 0.44862 0.42555 0.63365 0.0
C128 C 0.47757 0.44595 0.597 0.0
C129 C 0.45411 0.48339 0.61528 0.0
C130 C 0.4332 0.44858 0.64514 0.0
C131 C 0.46495 0.51722 0.47379 0.0
O132 O 0.45052 0.52282 0.51425 0.0
H133 H 0.49739 0.43641 0.58097 0.0
H134 H 0.45107 0.50914 0.6171 0.0
O135 O 0.57816 0.5171 0.55644 0.0
H136 H 0.57957 0.6534 0.62208 0.0
H137 H 0.41077 0.44192 0.67493 0.0
Cu138 Cu 0.27697 0.49099 0.25418 0.0
N139 N 0.28652 0.46507 0.20546 0.0
N140 N 0.32291 0.45569 0.14888 0.0
C141 C 0.3261 0.47836 0.18597 0.0
C142 C 0.27979 0.42704 0.14437 0.0
C143 C 0.25729 0.4328 0.17966 0.0
O144 O 0.33086 0.51588 0.29645 0.0
C145 C 0.22148 0.50617 0.19646 0.0
O146 O 0.19959 0.46647 0.19659 0.0
H147 H 0.3566 0.50474 0.19794 0.0
H148 H 0.22205 0.41514 0.1853 0.0
N149 N 0.22879 0.45302 0.29245 0.0
N150 N 0.1673 0.42803 0.33586 0.0
C151 C 0.20432 0.46181 0.31865 0.0
C152 C 0.20679 0.41224 0.2937 0.0
C153 C 0.1685 0.39667 0.32035 0.0
C154 C 0.33843 0.49193 0.32165 0.0
O155 O 0.30966 0.45272 0.31922 0.0
H156 H 0.21204 0.49227 0.32243 0.0
H157 H 0.21678 0.39503 0.27472 0.0
O158 O 0.25811 0.52519 0.21987 0.0
H159 H 0.26576 0.40414 0.11723 0.0
H160 H 0.1428 0.36497 0.32635 0.0
Cu161 Cu 0.82067 0.25315 0.82122 0.0
N162 N 0.81245 0.21314 0.78042 0.0
N163 N 0.77904 0.16181 0.73055 0.0
C164 C 0.77538 0.18831 0.75585 0.0
C165 C 0.81993 0.17028 0.73887 0.0
C166 C 0.84059 0.20214 0.76994 0.0
O167 O 0.76378 0.23112 0.85744 0.0
C168 C 0.8503 0.31192 0.73733 0.0
O169 O 0.81551 0.28326 0.71474 0.0
H170 H 0.74637 0.18971 0.75633 0.0
H171 H 0.87375 0.21635 0.78383 0.0
N172 N 0.85896 0.25943 0.87104 0.0
N173 N 0.89517 0.28555 0.93978 0.0
C174 C 0.87731 0.29143 0.89953 0.0
C175 C 0.86577 0.23228 0.89382 0.0
C176 C 0.88811 0.24839 0.93672 0.0
C177 C 0.74672 0.19529 0.87737 0.0
O178 O 0.76566 0.17565 0.86906 0.0
H179 H 0.87427 0.31713 0.89302 0.0
H180 H 0.85251 0.20186 0.88213 0.0
O181 O 0.8541 0.30648 0.78312 0.0
H182 H 0.83382 0.1549 0.72313 0.0
H183 H 0.89598 0.23317 0.96481 0.0
Cu184 Cu 0.61597 0.81293 0.29659 0.0
N185 N 0.65141 0.85219 0.24906 0.0
N186 N 0.66205 0.88974 0.18122 0.0
C187 C 0.63491 0.86843 0.21894 0.0
C188 C 0.69739 0.88705 0.18755 0.0
C189 C 0.69077 0.86379 0.22988 0.0
O190 O 0.58416 0.83489 0.32786 0.0
C191 C 0.6111 0.74962 0.24791 0.0
O192 O 0.65278 0.77145 0.26017 0.0
H193 H 0.60207 0.86224 0.22266 0.0
H194 H 0.7117 0.85391 0.24375 0.0
N195 N 0.64638 0.80603 0.34746 0.0
N196 N 0.65209 0.7761 0.41543 0.0
C197 C 0.62723 0.77223 0.37643 0.0
C198 C 0.685 0.83237 0.36879 0.0
C199 C 0.68854 0.81389 0.41115 0.0
C200 C 0.60934 0.87078 0.34395 0.0
O201 O 0.65204 0.88921 0.33784 0.0
H202 H 0.59451 0.74597 0.3704 0.0
H203 H 0.70784 0.86333 0.35586 0.0
O204 O 0.58578 0.76109 0.26121 0.0
H205 H 0.72463 0.8991 0.16215 0.0
H206 H 0.71485 0.82747 0.43756 0.0
Cu207 Cu 0.80988 0.5671 0.7719 0.0
N208 N 0.85058 0.59893 0.72307 0.0
N209 N 0.89123 0.61375 0.65635 0.0
C210 C 0.86879 0.58619 0.69272 0.0
C211 C 0.88755 0.64532 0.66395 0.0
C212 C 0.86229 0.63604 0.70551 0.0
O213 O 0.83316 0.53953 0.81389 0.0
C214 C 0.7434 0.52987 0.69433 0.0
O215 O 0.77478 0.53355 0.66699 0.0
H216 H 0.86346 0.55631 0.6955 0.0
H217 H 0.85122 0.65401 0.72034 0.0
N218 N 0.80483 0.60077 0.81291 0.0
N219 N 0.76766 0.61983 0.85528 0.0
C220 C 0.77034 0.6049 0.81318 0.0
C221 C 0.82584 0.61534 0.85531 0.0
C222 C 0.80283 0.62699 0.88165 0.0
C223 C 0.8741 0.55944 0.8262 0.0
O224 O 0.90041 0.59624 0.8073 0.0
H225 H 0.74516 0.59329 0.78539 0.0
H226 H 0.85372 0.61446 0.86801 0.0
O227 O 0.75047 0.53646 0.74004 0.0
H228 H 0.90033 0.67202 0.63999 0.0
H229 H 0.80956 0.6372 0.91865 0.0
Cu230 Cu 0.27836 0.79419 0.33906 0.0
N231 N 0.22949 0.78411 0.30329 0.0
N232 N 0.16875 0.74902 0.25913 0.0
C233 C 0.2047 0.75106 0.27703 0.0
C234 C 0.17095 0.78218 0.27422 0.0
C235 C 0.20886 0.80406 0.30134 0.0
O236 O 0.25962 0.74088 0.37297 0.0
C237 C 0.34346 0.85813 0.27622 0.0
O238 O 0.32563 0.8763 0.29436 0.0
H239 H 0.2119 0.72805 0.27275 0.0
H240 H 0.21984 0.83182 0.31951 0.0
N241 N 0.28943 0.82978 0.38842 0.0
N242 N 0.32568 0.87511 0.44534 0.0
C243 C 0.32898 0.8559 0.40789 0.0
C244 C 0.26019 0.83256 0.41475 0.0
C245 C 0.28252 0.86044 0.45019 0.0
C246 C 0.2236 0.72323 0.39802 0.0
O247 O 0.2015 0.74069 0.39935 0.0
H248 H 0.35953 0.8603 0.39542 0.0
H249 H 0.225 0.81512 0.40921 0.0
O250 O 0.32927 0.82164 0.29179 0.0
H251 H 0.14647 0.78941 0.26704 0.0
H252 H 0.26837 0.86916 0.47748 0.0
Cu253 Cu 0.53555 0.27408 0.79352 0.0
N254 N 0.48762 0.2708 0.76272 0.0
N255 N 0.4511 0.29528 0.72571 0.0
C256 C 0.49088 0.30181 0.73613 0.0
C257 C 0.4214 0.25867 0.74641 0.0
C258 C 0.44414 0.2435 0.76929 0.0
O259 O 0.55867 0.32373 0.83174 0.0
C260 C 0.57983 0.24182 0.74482 0.0
O261 O 0.58301 0.22879 0.78856 0.0
H262 H 0.52186 0.33 0.72776 0.0
H263 H 0.43009 0.21593 0.7918 0.0
N264 N 0.51548 0.23047 0.83841 0.0
N265 N 0.48917 0.16804 0.86954 0.0
C266 C 0.48982 0.19044 0.83046 0.0
C267 C 0.53058 0.23325 0.88417 0.0
C268 C 0.51439 0.19477 0.90347 0.0
C269 C 0.59504 0.34989 0.8515 0.0
O270 O 0.63014 0.34878 0.84464 0.0
H271 H 0.47431 0.17813 0.79593 0.0
H272 H 0.55367 0.26141 0.9013 0.0
O273 O 0.56803 0.26721 0.74077 0.0
H274 H 0.38618 0.24514 0.74734 0.0
H275 H 0.52197 0.18693 0.93892 0.0
C276 C 0.15456 0.51858 0.09724 0.0
C277 C 0.1401 0.54088 0.12068 0.0
C278 C 0.18782 0.54888 0.19114 0.0
C279 C 0.20192 0.52633 0.16786 0.0
N280 N 0.20913 0.50097 0.09293 0.0
N281 N 0.15402 0.58779 0.1828 0.0
C282 C 0.18876 0.51511 0.11886 0.0
C283 C 0.1606 0.55956 0.16524 0.0
N284 N 0.13369 0.49813 0.05632 0.0
N285 N 0.19783 0.55787 0.239 0.0
H286 H 0.13532 0.59695 0.16414 0.0
H287 H 0.17073 0.60506 0.21273 0.0
H288 H 0.21802 0.55119 0.25893 0.0
H289 H 0.18375 0.5695 0.25979 0.0
H290 H 0.13893 0.47724 0.04137 0.0
H291 H 0.10882 0.49975 0.03908 0.0
H292 H 0.20412 0.49566 0.0558 0.0
H293 H 0.23456 0.4987 0.10755 0.0
C294 C 0.70623 0.11917 0.62175 0.0
C295 C 0.68006 0.0773 0.63617 0.0
C296 C 0.71853 0.0918 0.7144 0.0
C297 C 0.74675 0.13279 0.69815 0.0
N298 N 0.77254 0.18501 0.63503 0.0
N299 N 0.6631 1.02258 0.6936 0.0
C300 C 0.74206 0.14628 0.65132 0.0
C301 C 0.68666 0.06321 0.68188 0.0
N302 N 0.69559 0.13336 0.58101 0.0
N303 N 0.72159 0.08076 0.76144 0.0
H304 H 0.6391 1.00111 0.67074 0.0
H305 H 0.66914 1.00985 0.72429 0.0
H306 H 0.74511 0.10123 0.78552 0.0
H307 H 0.69935 0.05235 0.77755 0.0
H308 H 0.7105 0.16404 0.57164 0.0
H309 H 0.66916 0.11481 0.55851 0.0
H310 H 0.77393 0.19572 0.59928 0.0
H311 H 0.79887 0.20562 0.65637 0.0
C312 C 0.56598 0.64262 0.20266 0.0
C313 C 0.5935 0.65264 0.16118 0.0
C314 C 0.62 0.7246 0.16899 0.0
C315 C 0.59741 0.71536 0.21439 0.0
N316 N 0.54965 0.6654 0.27558 0.0
N317 N 0.64901 0.7033 0.10642 0.0
C318 C 0.56999 0.67417 0.23119 0.0
C319 C 0.62065 0.69367 0.14438 0.0
N320 N 0.5357 0.60271 0.21427 0.0
N321 N 0.64081 0.76325 0.14933 0.0
H322 H 0.65032 0.68146 0.08784 0.0
H323 H 0.67339 0.7329 0.09555 0.0
H324 H 0.64116 0.78646 0.16662 0.0
H325 H 0.65423 0.77153 0.11431 0.0
H326 H 0.51176 0.59277 0.24128 0.0
H327 H 0.53239 0.57947 0.19386 0.0
H328 H 0.53328 0.63672 0.2928 0.0
H329 H 0.55101 0.68756 0.29644 0.0
C330 C 0.8948 0.56293 0.5472 0.0
C331 C 0.93953 0.57552 0.54799 0.0
C332 C 0.95439 0.6209 0.6141 0.0
C333 C 0.90934 0.60704 0.61466 0.0
N334 N 0.8393 0.57434 0.57487 0.0
N335 N 1.01412 0.62371 0.57139 0.0
C336 C 0.88044 0.58126 0.57854 0.0
C337 C 0.97015 0.60717 0.57789 0.0
N338 N 0.86586 0.53188 0.51866 0.0
N339 N 0.98131 0.64539 0.64981 0.0
H340 H 1.02609 0.61427 0.54436 0.0
H341 H 0.03859 0.64887 0.5895 0.0
H342 H 0.97037 0.65636 0.67609 0.0
H343 H 1.01352 0.65317 0.65488 0.0
H344 H 0.8319 0.51822 0.52011 0.0
H345 H 0.87587 0.51826 0.49516 0.0
H346 H 0.81729 0.55808 0.54725 0.0
H347 H 0.82889 0.58828 0.59728 0.0
C348 C 0.39969 0.92626 0.16145 0.0
C349 C 0.44128 0.93072 0.16123 0.0
C350 C 0.41956 0.88719 0.23715 0.0
C351 C 0.37655 0.87996 0.23487 0.0
N352 N 0.32319 0.8855 0.18743 0.0
N353 N 0.48849 0.91041 0.19508 0.0
C354 C 0.36608 0.89775 0.19503 0.0
C355 C 0.45045 0.90964 0.19801 0.0
N356 N 0.39209 0.94925 0.12924 0.0
N357 N 0.4317 0.87413 0.27758 0.0
H358 H 0.51278 0.92819 0.16889 0.0
H359 H 0.49462 0.89154 0.21653 0.0
H360 H 0.41037 0.85799 0.3068 0.0
H361 H 0.46375 0.88181 0.2838 0.0
H362 H 0.36431 0.95073 0.1308 0.0
H363 H 0.41548 0.96976 0.10367 0.0
H364 H 0.31258 0.89408 0.15654 0.0
H365 H 0.29728 0.86305 0.20918 0.0
C366 C 0.4226 0.35318 0.63682 0.0
C367 C 0.44292 0.39061 0.66013 0.0
C368 C 0.45769 0.36048 0.73152 0.0
C369 C 0.44342 0.32522 0.70545 0.0
N370 N 0.41465 0.28801 0.63244 0.0
N371 N 0.48642 0.43217 0.72643 0.0
C372 C 0.42597 0.3213 0.65796 0.0
C373 C 0.46186 0.39483 0.70693 0.0
N374 N 0.40007 0.34841 0.59456 0.0
N375 N 0.46677 0.36077 0.78005 0.0
H376 H 0.49171 0.45841 0.70868 0.0
H377 H 0.50488 0.43767 0.75808 0.0
H378 H 0.46351 0.3357 0.79902 0.0
H379 H 0.47296 0.3841 0.80221 0.0
H380 H 0.38134 0.32092 0.5775 0.0
H381 H 0.39728 0.37152 0.57877 0.0
H382 H 0.40587 0.285 0.59579 0.0
H383 H 0.41678 0.2643 0.64734 0.0
C384 C 0.56917 0.93946 0.37641 0.0
C385 C 0.59035 0.95309 0.42208 0.0
C386 C 0.60884 0.90138 0.42207 0.0
C387 C 0.59364 0.89201 0.37333 0.0
N388 N 0.56114 0.9038 0.30274 0.0
N389 N 0.63469 0.94986 0.48613 0.0
C390 C 0.57369 0.91112 0.35033 0.0
C391 C 0.61079 0.93435 0.44466 0.0
N392 N 0.54412 0.9533 0.35846 0.0
N393 N 0.62163 0.87859 0.44672 0.0
H394 H 0.63803 0.97466 0.50275 0.0
H395 H 0.65437 0.94057 0.50168 0.0
H396 H 0.62066 0.85449 0.43097 0.0
H397 H 0.62908 0.88097 0.48374 0.0
H398 H 0.52469 0.94235 0.32747 0.0
H399 H 0.53992 0.97345 0.37722 0.0
H400 H 0.55186 0.92059 0.28175 0.0
H401 H 0.56238 0.8822 0.28346 0.0
C402 C 0.70477 0.65492 0.92036 0.0
C403 C 0.66247 0.61845 0.92272 0.0
C404 C 0.6876 0.58533 0.87315 0.0
C405 C 0.73096 0.62067 0.873 0.0
N406 N 0.77753 0.69261 0.88266 0.0
N407 N 0.61037 0.56077 0.87647 0.0
C408 C 0.73846 0.65682 0.89205 0.0
C409 C 0.65263 0.58766 0.89044 0.0
N410 N 0.71258 0.68709 0.946 0.0
N411 N 0.67988 0.54874 0.86114 0.0
H412 H 0.58475 0.56428 0.88512 0.0
H413 H 0.60231 0.53886 0.85104 0.0
H414 H 0.70488 0.54419 0.85362 0.0
H415 H 0.64888 0.52189 0.86477 0.0
H416 H 0.74377 0.71303 0.95069 0.0
H417 H 0.68715 0.6871 0.96326 0.0
H418 H 0.78422 0.7206 0.8927 0.0
H419 H 0.80191 0.69449 0.86084 0.0
C420 C 0.1577 0.60908 0.43291 0.0
C421 C 0.1512 0.60988 0.48394 0.0
C422 C 0.20265 0.68443 0.47913 0.0
C423 C 0.20548 0.68399 0.4275 0.0
N424 N 0.18277 0.64616 0.35448 0.0
N425 N 0.16508 0.64862 0.55508 0.0
C426 C 0.18265 0.64629 0.40428 0.0
C427 C 0.17315 0.64771 0.50686 0.0
N428 N 0.13969 0.57261 0.41155 0.0
N429 N 0.2291 0.7202 0.50172 0.0
H430 H 0.14509 0.62241 0.57671 0.0
H431 H 0.17579 0.67518 0.57302 0.0
H432 H 0.25128 0.74724 0.48251 0.0
H433 H 0.23212 0.72262 0.53938 0.0
H434 H 0.14732 0.56957 0.3763 0.0
H435 H 0.1188 0.54486 0.42998 0.0
H436 H 0.1623 0.62058 0.33452 0.0
H437 H 0.20186 0.67246 0.3327 0.0
C438 C 0.48506 0.07155 0.87488 0.0
C439 C 0.45301 0.05019 0.91219 0.0
C440 C 0.43525 0.10191 0.90869 0.0
C441 C 0.4699 0.12495 0.87456 0.0
N442 N 0.51861 0.12712 0.81435 0.0
N443 N 0.39139 0.03902 0.95748 0.0
C444 C 0.49145 0.10797 0.85369 0.0
C445 C 0.42561 0.06331 0.9262 0.0
N446 N 0.51165 0.05861 0.86262 0.0
N447 N 0.41319 0.11818 0.92554 0.0
H448 H 0.38457 1.0108 0.97043 0.0
H449 H 0.36839 0.04527 0.96815 0.0
H450 H 0.41892 0.1457 0.91127 0.0
H451 H 0.38999 0.10515 0.95357 0.0
H452 H 0.53957 0.07549 0.84064 0.0
H453 H 0.50717 0.03159 0.87672 0.0
H454 H 0.53274 0.11487 0.79491 0.0
H455 H 0.52361 0.15362 0.79801 0.0
C456 C 0.4268 0.48566 0.39264 0.0
C457 C 0.44196 0.51677 0.42663 0.0
C458 C 0.39391 0.53675 0.38729 0.0
C459 C 0.37908 0.50592 0.35291 0.0
N460 N 0.39474 0.46172 0.31307 0.0
N461 N 0.45154 0.58069 0.44339 0.0
C462 C 0.39987 0.48384 0.35253 0.0
C463 C 0.42922 0.54512 0.41964 0.0
N464 N 0.43571 0.45631 0.39972 0.0
N465 N 0.37288 0.55656 0.39158 0.0
H466 H 0.47868 0.58862 0.46544 0.0
H467 H 0.4465 0.60411 0.43661 0.0
H468 H 0.34662 0.55124 0.36968 0.0
H469 H 0.37918 0.57587 0.41979 0.0
H470 H 0.42112 0.4304 0.37929 0.0
H471 H 0.45484 0.45607 0.42835 0.0
H472 H 0.41203 0.44788 0.30866 0.0
H473 H 0.3773 0.46136 0.28216 0.0
C474 C 0.96983 0.36592 1.02625 0.0
C475 C 0.9399 0.37507 0.04393 0.0
C476 C 0.879 0.31551 1.00586 0.0
C477 C 0.90975 0.31079 0.98114 0.0
N478 N 0.98428 0.33094 0.96636 0.0
N479 N 0.86645 0.3608 0.04858 0.0
C480 C 0.95518 0.33535 0.99166 0.0
C481 C 0.89438 0.34997 0.03409 0.0
N482 N 1.01222 0.38696 0.04251 0.0
N483 N 0.83509 0.28707 1.00157 0.0
H484 H 0.87679 0.38629 0.06872 0.0
H485 H 0.83373 0.34625 0.03771 0.0
H486 H 0.82338 0.2617 0.98073 0.0
H487 H 0.81086 0.28663 1.02192 0.0
H488 H 1.03522 0.38004 0.03402 0.0
H489 H 1.0232 0.40936 0.06809 0.0
H490 H 1.01831 0.35066 0.96841 0.0
H491 H 0.97411 0.30851 0.94107 0.0
C492 C 0.94942 0.53085 0.89249 0.0
C493 C 0.94369 0.53678 0.9419 0.0
C494 C 0.88386 0.54616 0.91536 0.0
C495 C 0.89282 0.54484 0.86556 0.0
N496 N 0.93755 0.53964 0.80637 0.0
N497 N 0.91188 0.55952 0.99797 0.0
C498 C 0.92675 0.53837 0.85413 0.0
C499 C 0.91254 0.54691 0.95255 0.0
N500 N 0.97498 0.51635 0.88223 0.0
N501 N 0.84774 0.54658 0.92747 0.0
H502 H 0.9338 0.56274 1.02537 0.0
H503 H 0.89322 0.57124 1.00675 0.0
H504 H 0.8258 0.54561 0.90162 0.0
H505 H 0.83697 0.5435 0.96328 0.0
H506 H 0.97666 0.50701 0.8479 0.0
H507 H 0.99202 0.51075 0.909 0.0
H508 H 0.96516 0.54007 0.79538 0.0
H509 H 0.91992 0.54229 0.77758 0.0
C510 C 0.41108 0.97397 0.49951 0.0
C511 C 0.44025 0.9635 0.51911 0.0
C512 C 0.38545 0.89219 0.50333 0.0
C513 C 0.36131 0.90427 0.47484 0.0
N514 N 0.35224 0.95706 0.44244 0.0
N515 N 0.45565 0.91176 0.5386 0.0
C516 C 0.37394 0.9452 0.47264 0.0
C517 C 0.42729 0.92222 0.52175 0.0
N518 N 0.41914 1.01155 0.50666 0.0
N519 N 0.36799 0.85186 0.51281 0.0
H520 H 0.48606 0.93207 0.55385 0.0
H521 H 0.44998 0.88307 0.53498 0.0
H522 H 0.33711 0.82948 0.49998 0.0
H523 H 0.38193 0.8409 0.53709 0.0
H524 H 0.39717 1.01989 0.4967 0.0
H525 H 0.44571 0.03283 0.52728 0.0
H526 H 0.36297 0.9873 0.43534 0.0
H527 H 0.32557 0.93689 0.42122 0.0
C528 C 0.57143 0.42499 0.90564 0.0
C529 C 0.5921 0.432 0.95203 0.0
C530 C 0.61372 0.38434 0.93333 0.0
C531 C 0.59636 0.37996 0.88529 0.0
N532 N 0.56854 0.40498 0.82251 0.0
N533 N 0.64272 0.42624 1.00393 0.0
C534 C 0.57823 0.40303 0.87049 0.0
C535 C 0.61629 0.41407 0.96386 0.0
N536 N 0.54309 0.43706 0.89594 0.0
N537 N 0.62535 0.35857 0.95133 0.0
H538 H 0.6465 0.4489 1.02585 0.0
H539 H 0.66438 0.41717 1.01211 0.0
H540 H 0.62207 0.33505 0.93166 0.0
H541 H 0.63383 0.35779 0.98767 0.0
H542 H 0.52413 0.42964 0.86446 0.0
H543 H 0.53496 0.45076 0.92147 0.0
H544 H 0.55993 0.42482 0.80873 0.0
H545 H 0.57368 0.39005 0.79565 0.0
C546 C 0.08185 0.45028 0.36318 0.0
C547 C 0.06796 0.43177 0.4104 0.0
C548 C 0.11976 0.41023 0.40848 0.0
C549 C 0.13144 0.4264 0.36 0.0
N550 N 0.11607 0.45272 0.28708 0.0
N551 N 0.06731 0.38838 0.47507 0.0
C552 C 0.11006 0.44362 0.33604 0.0
C553 C 0.0849 0.40978 0.43206 0.0
N554 N 0.07011 0.47601 0.3454 0.0
N555 N 0.14353 0.3974 0.43272 0.0
H556 H 0.04165 0.38772 0.49277 0.0
H557 H 0.07539 0.36876 0.49086 0.0
H558 H 0.16993 0.39829 0.41669 0.0
H559 H 0.13948 0.389 0.46971 0.0
H560 H 0.08321 0.49376 0.31338 0.0
H561 H 0.05045 0.48251 0.36494 0.0
H562 H 0.09863 0.46237 0.26675 0.0
H563 H 0.13515 0.44649 0.26594 0.0
C564 C 0.62915 0.13947 0.93166 0.0
C565 C 0.63318 0.11636 0.97041 0.0
C566 C 0.71367 0.15828 0.95811 0.0
C567 C 0.7087 0.17536 0.91343 0.0
N568 N 0.66038 0.1812 0.85716 0.0
N569 N 0.68019 0.10331 1.01967 0.0
C570 C 0.66615 0.16636 0.90056 0.0
C571 C 0.67581 0.12628 0.98411 0.0
N572 N 0.58964 0.1356 0.92481 0.0
N573 N 0.75498 0.17276 0.97575 0.0
H574 H 0.65374 0.08043 0.04034 0.0
H575 H 0.70962 0.10527 1.02673 0.0
H576 H 0.78328 0.19573 0.9576 0.0
H577 H 0.76103 0.16484 1.01031 0.0
H578 H 0.58503 0.15392 0.90031 0.0
H579 H 0.56254 0.11667 0.94744 0.0
H580 H 0.62957 0.17183 0.8428 0.0
H581 H 0.68645 0.2012 0.83393 0.0
C582 C 0.58012 0.70033 0.51335 0.0
C583 C 0.6009 0.67886 0.52101 0.0
C584 C 0.65928 0.72513 0.46289 0.0
C585 C 0.63871 0.74687 0.45559 0.0
N586 N 0.58661 0.76196 0.48207 0.0
N587 N 0.66461 0.67547 0.51282 0.0
C588 C 0.60137 0.73663 0.48373 0.0
C589 C 0.64212 0.69299 0.49895 0.0
N590 N 0.53898 0.6847 0.53202 0.0
N591 N 0.6935 0.73372 0.4334 0.0
H592 H 0.65259 0.65215 0.53962 0.0
H593 H 0.69652 0.68633 0.50123 0.0
H594 H 0.70651 0.75695 0.4065 0.0
H595 H 0.70699 0.7162 0.43331 0.0
H596 H 0.51996 0.69654 0.52331 0.0
H597 H 0.52251 0.65798 0.5536 0.0
H598 H 0.56179 0.75819 0.50471 0.0
H599 H 0.6023 0.78902 0.4611 0.0
C600 C 0.62285 0.19781 0.65538 0.0
C601 C 0.58408 0.17121 0.62916 0.0
C602 C 0.54448 0.19582 0.67282 0.0
C603 C 0.58274 0.22102 0.70131 0.0
N604 N 0.65773 0.24421 0.72167 0.0
N605 N 0.50717 0.14152 0.61523 0.0
C606 C 0.62176 0.22145 0.69301 0.0
C607 C 0.54481 0.16967 0.63826 0.0
N608 N 0.661 0.20091 0.64325 0.0
N609 N 0.5074 0.19625 0.67931 0.0
H610 H 0.50672 0.12241 0.58976 0.0
H611 H 0.47595 0.13499 0.62323 0.0
H612 H 0.50391 0.21176 0.70666 0.0
H613 H 0.48041 0.18274 0.65618 0.0
H614 H 0.69176 0.22205 0.65719 0.0
H615 H 0.66219 0.1835 0.61653 0.0
H616 H 0.68536 0.24248 0.72215 0.0
H617 H 0.6594 0.26417 0.7467 0.0
C618 C 0.41329 0.44766 0.09851 0.0
C619 C 0.44005 0.48714 0.0767 0.0
C620 C 0.38114 0.49876 0.08892 0.0
C621 C 0.35877 0.463 0.11893 0.0
N622 N 0.35374 0.40388 0.15508 0.0
N623 N 0.45055 0.5518 0.05289 0.0
C624 C 0.37444 0.43711 0.12384 0.0
C625 C 0.424 0.51293 0.07133 0.0
N626 N 0.42523 0.4204 0.09486 0.0
N627 N 0.36118 0.51912 0.0777 0.0
H628 H 0.48213 0.56363 0.03939 0.0
H629 H 0.44236 0.57332 0.05387 0.0
H630 H 0.32963 0.50893 0.09031 0.0
H631 H 0.37388 0.5435 0.05246 0.0
H632 H 0.40527 0.39007 0.1065 0.0
H633 H 0.45326 0.42729 0.07564 0.0
H634 H 0.36643 0.38629 0.16446 0.0
H635 H 0.32535 0.39558 0.17446 0.0
C636 C 0.948 0.41879 0.6914 0.0
C637 C 0.95649 0.4099 0.64462 0.0
C638 C 0.90095 0.33743 0.66324 0.0
C639 C 0.88828 0.34638 0.70722 0.0
N640 N 0.89636 0.39785 0.75911 0.0
N641 N 0.92895 0.36109 0.5813 0.0
C642 C 0.91097 0.38777 0.72026 0.0
C643 C 0.9294 0.36933 0.62924 0.0
N644 N 0.97603 0.45632 0.7092 0.0
N645 N 0.8878 0.29848 0.6546 0.0
H646 H 0.94628 0.3836 0.55414 0.0
H647 H 0.9069 0.33255 0.56769 0.0
H648 H 0.87027 0.27447 0.68002 0.0
H649 H 0.89934 0.29105 0.62501 0.0
H650 H 0.97438 0.46349 0.74484 0.0
H651 H 1.0033 0.47934 0.68961 0.0
H652 H 0.90849 0.42769 0.76755 0.0
H653 H 0.86939 0.37639 0.78038 0.0
C654 C 0.6524 0.96179 0.09584 0.0
C655 C 0.6124 0.93375 0.07264 0.0
C656 C 0.61484 0.87756 0.11002 0.0
C657 C 0.65046 0.90524 0.13932 0.0
N658 N 0.70266 0.97349 0.16242 0.0
N659 N 0.55301 0.86493 0.06017 0.0
C660 C 0.66966 0.94746 0.13233 0.0
C661 C 0.59324 0.89154 0.07973 0.0
N662 N 0.67363 1.00202 0.08261 0.0
N663 N 0.60179 0.83783 0.11163 0.0
H664 H 0.53593 0.87425 0.0385 0.0
H665 H 0.53505 0.83385 0.06839 0.0
H666 H 0.6176 0.82726 0.13349 0.0
H667 H 0.57849 0.8165 0.08823 0.0
H668 H 0.70472 0.02393 0.09519 0.0
H669 H 0.66156 1.01285 0.0555 0.0
H670 H 0.71501 1.00433 0.16285 0.0
H671 H 0.71598 0.96361 0.18914 0.0
C672 C 0.62397 0.48602 0.65061 0.0
C673 C 0.62943 0.51786 0.61825 0.0
C674 C 0.7094 0.55683 0.63511 0.0
C675 C 0.70356 0.52596 0.66961 0.0
N676 N 0.65475 0.46274 0.71339 0.0
N677 N 0.67658 0.58547 0.58366 0.0
C678 C 0.6606 0.49101 0.67826 0.0
C679 C 0.6721 0.55352 0.61104 0.0
N680 N 0.58359 0.45041 0.65385 0.0
N681 N 0.75084 0.59003 0.62596 0.0
H682 H 0.6506 0.58394 0.56458 0.0
H683 H 0.70526 0.61433 0.58178 0.0
H684 H 0.77804 0.59669 0.64706 0.0
H685 H 0.75876 0.6105 0.59652 0.0
H686 H 0.57727 0.42447 0.67326 0.0
H687 H 0.55663 0.44565 0.63361 0.0
H688 H 0.62413 0.43869 0.72568 0.0
H689 H 0.68082 0.46458 0.73268 0.0
C690 C 0.08054 0.64276 0.22863 0.0
C691 C 0.07129 0.64886 0.17988 0.0
C692 C 0.12615 0.72171 0.18355 0.0
C693 C 0.13357 0.7159 0.23319 0.0
N694 N 0.11185 0.67297 0.30605 0.0
N695 N 0.07895 0.69362 0.11296 0.0
C696 C 0.10883 0.67694 0.2567 0.0
C697 C 0.09212 0.68833 0.15802 0.0
N698 N 0.06389 0.6043 0.24719 0.0
N699 N 0.15318 0.75857 0.16029 0.0
H700 H 0.05408 0.66938 0.09371 0.0
H701 H 0.0899 0.72193 0.09654 0.0
H702 H 0.17891 0.78336 0.17794 0.0
H703 H 0.15239 0.7638 0.12288 0.0
H704 H 0.07327 0.5979 0.28068 0.0
H705 H 0.04329 0.57865 0.22721 0.0
H706 H 0.09201 0.64587 0.32608 0.0
H707 H 0.13146 0.69782 0.3276 0.0
loop_
_geom_bond_atom_site_label_1
_geom_bond_atom_site_label_2
_geom_bond_distance
_geom_bond_site_symmetry_2
_ccdc_geom_bond_type
Cu0 N1 1.999 1_454 S
Cu0 O6 1.974 1_454 S
Cu0 N11 1.985 . S
Cu0 O20 1.959 . S
N1 Cu0 1.999 1_656 S
N1 C3 1.263 . S
N1 C5 1.389 1_556 S
N2 C3 1.358 . S
N2 C4 1.400 . S
C3 N1 1.263 . S
C3 N2 1.358 . S
C3 H9 0.930 . S
C4 N2 1.400 . S
C4 C5 1.351 1_556 S
C4 H21 0.930 . S
C5 N1 1.389 1_554 S
C5 C4 1.351 1_554 S
C5 H10 0.930 . S
O6 Cu0 1.974 1_656 S
O6 C16 1.282 . S
C7 O8 1.262 1_554 S
C7 O20 1.251 . S
O8 C7 1.262 1_556 S
H9 C3 0.930 . S
H10 C5 0.930 . S
N11 Cu0 1.985 . S
N11 C13 1.335 . S
N11 C14 1.390 . S
N12 C13 1.345 . S
N12 C15 1.336 . S
C13 N11 1.335 . S
C13 N12 1.345 . S
C13 H18 0.930 . S
C14 N11 1.390 . S
C14 C15 1.346 . S
C14 H19 0.930 1_554 S
C15 N12 1.336 . S
C15 C14 1.346 . S
C15 H22 0.929 . S
C16 O6 1.282 . S
C16 O17 1.216 1_655 S
O17 C16 1.216 1_455 S
H18 C13 0.930 . S
H19 C14 0.930 1_556 S
O20 Cu0 1.959 . S
O20 C7 1.251 . S
H21 C4 0.930 . S
H22 C15 0.929 . S
Cu23 N24 1.999 . S
Cu23 O29 1.974 . S
Cu23 N34 1.985 1_565 S
Cu23 O43 1.959 1_565 S
N24 Cu23 1.999 . S
N24 C26 1.263 . S
N24 C28 1.389 . S
N25 C26 1.358 . S
N25 C27 1.400 . S
C26 N24 1.263 . S
C26 N25 1.358 . S
C26 H32 0.930 . S
C27 N25 1.400 . S
C27 C28 1.351 . S
C27 H44 0.930 . S
C28 N24 1.389 . S
C28 C27 1.351 . S
C28 H33 0.930 . S
O29 Cu23 1.974 . S
O29 C39 1.282 . S
C30 O31 1.261 . S
C30 O43 1.251 . S
O31 C30 1.261 . S
H32 C26 0.930 . S
H33 C28 0.930 . S
N34 Cu23 1.985 1_545 S
N34 C36 1.335 . S
N34 C37 1.390 . S
N35 C36 1.345 . S
N35 C38 1.336 . S
C36 N34 1.335 . S
C36 N35 1.345 . S
C36 H41 0.930 . S
C37 N34 1.390 . S
C37 C38 1.346 . S
C37 H42 0.930 . S
C38 N35 1.336 . S
C38 C37 1.346 . S
C38 H45 0.929 . S
C39 O29 1.282 . S
C39 O40 1.214 . S
O40 C39 1.214 . S
H41 C36 0.930 . S
H42 C37 0.930 . S
O43 Cu23 1.959 1_545 S
O43 C30 1.251 . S
H44 C27 0.930 . S
H45 C38 0.929 . S
Cu46 N47 2.004 . S
Cu46 O52 1.979 . S
Cu46 N57 1.979 1_556 S
Cu46 O66 1.954 1_556 S
N47 Cu46 2.004 . S
N47 C49 1.263 . S
N47 C51 1.389 . S
N48 C49 1.358 . S
N48 C50 1.400 . S
C49 N47 1.263 . S
C49 N48 1.358 . S
C49 H55 0.930 . S
C50 N48 1.400 . S
C50 C51 1.351 . S
C50 H67 0.930 . S
C51 N47 1.389 . S
C51 C50 1.351 . S
C51 H56 0.930 . S
O52 Cu46 1.979 . S
O52 C62 1.282 . S
C53 O54 1.261 . S
C53 O66 1.251 . S
O54 C53 1.261 . S
H55 C49 0.930 . S
H56 C51 0.930 . S
N57 Cu46 1.979 1_554 S
N57 C59 1.335 . S
N57 C60 1.390 . S
N58 C59 1.345 . S
N58 C61 1.336 . S
C59 N57 1.335 . S
C59 N58 1.345 . S
C59 H64 0.930 . S
C60 N57 1.390 . S
C60 C61 1.346 . S
C60 H65 0.930 . S
C61 N58 1.336 . S
C61 C60 1.346 . S
C61 H68 0.929 . S
C62 O52 1.282 . S
C62 O63 1.216 1_556 S
O63 C62 1.216 1_554 S
H64 C59 0.930 . S
H65 C60 0.930 . S
O66 Cu46 1.954 1_554 S
O66 C53 1.251 . S
H67 C50 0.930 . S
H68 C61 0.929 . S
Cu69 N70 1.999 1_655 S
Cu69 O75 1.974 1_655 S
Cu69 N80 1.985 . S
Cu69 O89 1.959 . S
N70 Cu69 1.999 1_455 S
N70 C72 1.263 . S
N70 C74 1.389 1_455 S
N71 C72 1.358 . S
N71 C73 1.400 . S
C72 N70 1.263 . S
C72 N71 1.358 . S
C72 H78 0.930 . S
C73 N71 1.400 . S
C73 C74 1.351 1_455 S
C73 H90 0.930 . S
C74 N70 1.389 1_655 S
C74 C73 1.351 1_655 S
C74 H79 0.930 . S
O75 Cu69 1.974 1_455 S
O75 C85 1.282 . S
C76 O77 1.261 1_655 S
C76 O89 1.251 . S
O77 C76 1.261 1_455 S
H78 C72 0.930 . S
H79 C74 0.930 . S
N80 Cu69 1.985 . S
N80 C82 1.335 . S
N80 C83 1.390 . S
N81 C82 1.345 . S
N81 C84 1.336 . S
C82 N80 1.335 . S
C82 N81 1.345 . S
C82 H87 0.930 . S
C83 N80 1.390 . S
C83 C84 1.346 . S
C83 H88 0.930 1_655 S
C84 N81 1.336 . S
C84 C83 1.346 . S
C84 H91 0.929 . S
C85 O75 1.282 . S
C85 O86 1.216 . S
O86 C85 1.216 . S
H87 C82 0.930 . S
H88 C83 0.930 1_455 S
O89 Cu69 1.959 . S
O89 C76 1.251 . S
H90 C73 0.930 . S
H91 C84 0.929 . S
Cu92 N93 1.999 . S
Cu92 O98 1.974 1_554 S
Cu92 N103 1.985 1_545 S
Cu92 O112 1.959 1_545 S
N93 Cu92 1.999 . S
N93 C95 1.263 1_554 S
N93 C97 1.389 . S
N94 C95 1.358 . S
N94 C96 1.400 . S
C95 N93 1.263 1_556 S
C95 N94 1.358 . S
C95 H101 0.930 . S
C96 N94 1.400 . S
C96 C97 1.351 1_556 S
C96 H113 0.930 1_556 S
C97 N93 1.389 . S
C97 C96 1.351 1_554 S
C97 H102 0.930 . S
O98 Cu92 1.974 1_556 S
O98 C108 1.282 . S
C99 O100 1.261 . S
C99 O112 1.251 . S
O100 C99 1.261 . S
H101 C95 0.930 . S
H102 C97 0.930 . S
N103 Cu92 1.985 1_565 S
N103 C105 1.335 . S
N103 C106 1.390 . S
N104 C105 1.345 . S
N104 C107 1.336 . S
C105 N103 1.335 . S
C105 N104 1.345 . S
C105 H110 0.930 . S
C106 N103 1.390 . S
C106 C107 1.346 . S
C106 H111 0.932 . S
C107 N104 1.336 . S
C107 C106 1.346 . S
C107 H114 0.929 . S
C108 O98 1.282 . S
C108 O109 1.216 . S
O109 C108 1.216 . S
H110 C105 0.930 . S
H111 C106 0.932 . S
O112 Cu92 1.959 1_565 S
O112 C99 1.251 . S
H113 C96 0.930 1_554 S
H114 C107 0.929 . S
Cu115 N116 1.999 . S
Cu115 O121 1.974 . S
Cu115 N126 1.985 . S
Cu115 O135 1.959 . S
N116 Cu115 1.999 . S
N116 C118 1.263 . S
N116 C120 1.389 . S
N117 C118 1.358 . S
N117 C119 1.400 . S
C118 N116 1.263 . S
C118 N117 1.358 . S
C118 H124 0.930 . S
C119 N117 1.400 . S
C119 C120 1.351 . S
C119 H136 0.930 . S
C120 N116 1.389 . S
C120 C119 1.351 . S
C120 H125 0.930 . S
O121 Cu115 1.974 . S
O121 C131 1.282 . S
C122 O123 1.261 . S
C122 O135 1.251 . S
O123 C122 1.261 . S
H124 C118 0.930 . S
H125 C120 0.930 . S
N126 Cu115 1.985 . S
N126 C128 1.335 . S
N126 C129 1.390 . S
N127 C128 1.345 . S
N127 C130 1.336 . S
C128 N126 1.335 . S
C128 N127 1.345 . S
C128 H133 0.930 . S
C129 N126 1.390 . S
C129 C130 1.346 . S
C129 H134 0.930 . S
C130 N127 1.336 . S
C130 C129 1.346 . S
C130 H137 0.929 . S
C131 O121 1.282 . S
C131 O132 1.216 . S
O132 C131 1.216 . S
H133 C128 0.930 . S
H134 C129 0.930 . S
O135 Cu115 1.959 . S
O135 C122 1.251 . S
H136 C119 0.930 . S
H137 C130 0.929 . S
Cu138 N139 1.999 . S
Cu138 O144 1.974 . S
Cu138 N149 1.985 . S
Cu138 O158 1.959 . S
N139 Cu138 1.999 . S
N139 C141 1.263 . S
N139 C143 1.389 . S
N140 C141 1.358 . S
N140 C142 1.400 . S
C141 N139 1.263 . S
C141 N140 1.358 . S
C141 H147 0.930 . S
C142 N140 1.400 . S
C142 C143 1.351 . S
C142 H159 0.930 . S
C143 N139 1.389 . S
C143 C142 1.351 . S
C143 H148 0.930 . S
O144 Cu138 1.974 . S
O144 C154 1.282 . S
C145 O146 1.261 . S
C145 O158 1.251 . S
O146 C145 1.261 . S
H147 C141 0.930 . S
H148 C143 0.930 . S
N149 Cu138 1.985 . S
N149 C151 1.335 . S
N149 C152 1.390 . S
N150 C151 1.345 . S
N150 C153 1.336 . S
C151 N149 1.335 . S
C151 N150 1.345 . S
C151 H156 0.930 . S
C152 N149 1.390 . S
C152 C153 1.346 . S
C152 H157 0.930 . S
C153 N150 1.336 . S
C153 C152 1.346 . S
C153 H160 0.929 . S
C154 O144 1.282 . S
C154 O155 1.216 . S
O155 C154 1.216 . S
H156 C151 0.930 . S
H157 C152 0.930 . S
O158 Cu138 1.959 . S
O158 C145 1.251 . S
H159 C142 0.930 . S
H160 C153 0.929 . S
Cu161 N162 1.999 . S
Cu161 O167 1.974 . S
Cu161 N172 1.985 . S
Cu161 O181 1.959 . S
N162 Cu161 1.999 . S
N162 C164 1.263 . S
N162 C166 1.389 . S
N163 C164 1.358 . S
N163 C165 1.400 . S
C164 N162 1.263 . S
C164 N163 1.358 . S
C164 H170 0.930 . S
C165 N163 1.400 . S
C165 C166 1.351 . S
C165 H182 0.930 . S
C166 N162 1.389 . S
C166 C165 1.351 . S
C166 H171 0.930 . S
O167 Cu161 1.974 . S
O167 C177 1.282 . S
C168 O169 1.261 . S
C168 O181 1.251 . S
O169 C168 1.261 . S
H170 C164 0.930 . S
H171 C166 0.930 . S
N172 Cu161 1.985 . S
N172 C174 1.335 . S
N172 C175 1.390 . S
N173 C174 1.345 . S
N173 C176 1.336 . S
C174 N172 1.335 . S
C174 N173 1.345 . S
C174 H179 0.930 . S
C175 N172 1.390 . S
C175 C176 1.346 . S
C175 H180 0.930 . S
C176 N173 1.336 . S
C176 C175 1.346 . S
C176 H183 0.929 . S
C177 O167 1.282 . S
C177 O178 1.216 . S
O178 C177 1.216 . S
H179 C174 0.930 . S
H180 C175 0.930 . S
O181 Cu161 1.959 . S
O181 C168 1.251 . S
H182 C165 0.930 . S
H183 C176 0.929 . S
Cu184 N185 1.999 . S
Cu184 O190 1.974 . S
Cu184 N195 1.985 . S
Cu184 O204 1.959 . S
N185 Cu184 1.999 . S
N185 C187 1.263 . S
N185 C189 1.389 . S
N186 C187 1.358 . S
N186 C188 1.400 . S
C187 N185 1.263 . S
C187 N186 1.358 . S
C187 H193 0.930 . S
C188 N186 1.400 . S
C188 C189 1.351 . S
C188 H205 0.930 . S
C189 N185 1.389 . S
C189 C188 1.351 . S
C189 H194 0.930 . S
O190 Cu184 1.974 . S
O190 C200 1.282 . S
C191 O192 1.261 . S
C191 O204 1.251 . S
O192 C191 1.261 . S
H193 C187 0.930 . S
H194 C189 0.930 . S
N195 Cu184 1.985 . S
N195 C197 1.335 . S
N195 C198 1.390 . S
N196 C197 1.345 . S
N196 C199 1.336 . S
C197 N195 1.335 . S
C197 N196 1.345 . S
C197 H202 0.930 . S
C198 N195 1.390 . S
C198 C199 1.346 . S
C198 H203 0.930 . S
C199 N196 1.336 . S
C199 C198 1.346 . S
C199 H206 0.929 . S
C200 O190 1.282 . S
C200 O201 1.216 . S
O201 C200 1.216 . S
H202 C197 0.930 . S
H203 C198 0.930 . S
O204 Cu184 1.959 . S
O204 C191 1.251 . S
H205 C188 0.930 . S
H206 C199 0.929 . S
Cu207 N208 1.999 . S
Cu207 O213 1.974 . S
Cu207 N218 1.985 . S
Cu207 O227 1.959 . S
N208 Cu207 1.999 . S
N208 C210 1.263 . S
N208 C212 1.389 . S
N209 C210 1.358 . S
N209 C211 1.400 . S
C210 N208 1.263 . S
C210 N209 1.358 . S
C210 H216 0.930 . S
C211 N209 1.400 . S
C211 C212 1.351 . S
C211 H228 0.930 . S
C212 N208 1.389 . S
C212 C211 1.351 . S
C212 H217 0.930 . S
O213 Cu207 1.974 . S
O213 C223 1.282 . S
C214 O215 1.261 . S
C214 O227 1.251 . S
O215 C214 1.261 . S
H216 C210 0.930 . S
H217 C212 0.930 . S
N218 Cu207 1.985 . S
N218 C220 1.335 . S
N218 C221 1.390 . S
N219 C220 1.345 . S
N219 C222 1.336 . S
C220 N218 1.335 . S
C220 N219 1.345 . S
C220 H225 0.930 . S
C221 N218 1.390 . S
C221 C222 1.346 . S
C221 H226 0.930 . S
C222 N219 1.336 . S
C222 C221 1.346 . S
C222 H229 0.929 . S
C223 O213 1.282 . S
C223 O224 1.216 . S
O224 C223 1.216 . S
H225 C220 0.930 . S
H226 C221 0.930 . S
O227 Cu207 1.959 . S
O227 C214 1.251 . S
H228 C211 0.930 . S
H229 C222 0.929 . S
Cu230 N231 1.999 . S
Cu230 O236 1.974 . S
Cu230 N241 1.985 . S
Cu230 O250 1.959 . S
N231 Cu230 1.999 . S
N231 C233 1.263 . S
N231 C235 1.389 . S
N232 C233 1.358 . S
N232 C234 1.400 . S
C233 N231 1.263 . S
C233 N232 1.358 . S
C233 H239 0.930 . S
C234 N232 1.400 . S
C234 C235 1.351 . S
C234 H251 0.930 . S
C235 N231 1.389 . S
C235 C234 1.351 . S
C235 H240 0.930 . S
O236 Cu230 1.974 . S
O236 C246 1.282 . S
C237 O238 1.261 . S
C237 O250 1.251 . S
O238 C237 1.261 . S
H239 C233 0.930 . S
H240 C235 0.930 . S
N241 Cu230 1.985 . S
N241 C243 1.335 . S
N241 C244 1.390 . S
N242 C243 1.345 . S
N242 C245 1.336 . S
C243 N241 1.335 . S
C243 N242 1.345 . S
C243 H248 0.930 . S
C244 N241 1.390 . S
C244 C245 1.346 . S
C244 H249 0.930 . S
C245 N242 1.336 . S
C245 C244 1.346 . S
C245 H252 0.929 . S
C246 O236 1.282 . S
C246 O247 1.216 . S
O247 C246 1.216 . S
H248 C243 0.930 . S
H249 C244 0.930 . S
O250 Cu230 1.959 . S
O250 C237 1.251 . S
H251 C234 0.930 . S
H252 C245 0.929 . S
Cu253 N254 1.999 . S
Cu253 O259 1.974 . S
Cu253 N264 1.985 . S
Cu253 O273 1.959 . S
N254 Cu253 1.999 . S
N254 C256 1.263 . S
N254 C258 1.389 . S
N255 C256 1.358 . S
N255 C257 1.400 . S
C256 N254 1.263 . S
C256 N255 1.358 . S
C256 H262 0.930 . S
C257 N255 1.400 . S
C257 C258 1.351 . S
C257 H274 0.930 . S
C258 N254 1.389 . S
C258 C257 1.351 . S
C258 H263 0.930 . S
O259 Cu253 1.974 . S
O259 C269 1.282 . S
C260 O261 1.261 . S
C260 O273 1.251 . S
O261 C260 1.261 . S
H262 C256 0.930 . S
H263 C258 0.930 . S
N264 Cu253 1.985 . S
N264 C266 1.335 . S
N264 C267 1.390 . S
N265 C266 1.345 . S
N265 C268 1.336 . S
C266 N264 1.335 . S
C266 N265 1.345 . S
C266 H271 0.930 . S
C267 N264 1.390 . S
C267 C268 1.346 . S
C267 H272 0.930 . S
C268 N265 1.336 . S
C268 C267 1.346 . S
C268 H275 0.929 . S
C269 O259 1.282 . S
C269 O270 1.216 . S
O270 C269 1.216 . S
H271 C266 0.930 . S
H272 C267 0.930 . S
O273 Cu253 1.959 . S
O273 C260 1.251 . S
H274 C257 0.930 . S
H275 C268 0.929 . S
C276 C277 1.363 . S
C276 C282 1.379 . S
C276 N284 1.356 . S
C277 C276 1.363 . S
C277 C283 1.363 . S
C278 C279 1.363 . S
C278 C283 1.379 . S
C278 N285 1.356 . S
C279 C278 1.363 . S
C279 C282 1.363 . S
N280 C282 1.356 . S
N280 H292 0.984 . S
N280 H293 0.985 . S
N281 C283 1.356 . S
N281 H286 0.984 . S
N281 H287 0.985 . S
C282 C276 1.379 . S
C282 C279 1.363 . S
C282 N280 1.356 . S
C283 C277 1.363 . S
C283 C278 1.379 . S
C283 N281 1.356 . S
N284 C276 1.356 . S
N284 H290 0.984 . S
N284 H291 0.984 . S
N285 C278 1.356 . S
N285 H288 0.984 . S
N285 H289 0.985 . S
H286 N281 0.984 . S
H287 N281 0.985 . S
H288 N285 0.984 . S
H289 N285 0.985 . S
H290 N284 0.984 . S
H291 N284 0.984 . S
H292 N280 0.984 . S
H293 N280 0.985 . S
C294 C295 1.363 . S
C294 C300 1.379 . S
C294 N302 1.356 . S
C295 C294 1.363 . S
C295 C301 1.363 . S
C296 C297 1.363 . S
C296 C301 1.379 . S
C296 N303 1.356 . S
C297 C296 1.363 . S
C297 C300 1.363 . S
N298 C300 1.356 . S
N298 H310 0.984 . S
N298 H311 0.985 . S
N299 C301 1.356 . S
N299 H304 0.984 . S
N299 H305 0.985 . S
C300 C294 1.379 . S
C300 C297 1.363 . S
C300 N298 1.356 . S
C301 C295 1.363 . S
C301 C296 1.379 . S
C301 N299 1.356 . S
N302 C294 1.356 . S
N302 H308 0.984 . S
N302 H309 0.984 . S
N303 C296 1.356 . S
N303 H306 0.984 . S
N303 H307 0.985 . S
H304 N299 0.984 . S
H305 N299 0.985 . S
H306 N303 0.984 . S
H307 N303 0.985 . S
H308 N302 0.984 . S
H309 N302 0.984 . S
H310 N298 0.984 . S
H311 N298 0.985 . S
C312 C313 1.363 . S
C312 C318 1.379 . S
C312 N320 1.356 . S
C313 C312 1.363 . S
C313 C319 1.363 . S
C314 C315 1.363 . S
C314 C319 1.379 . S
C314 N321 1.356 . S
C315 C314 1.363 . S
C315 C318 1.363 . S
N316 C318 1.356 . S
N316 H328 0.984 . S
N316 H329 0.985 . S
N317 C319 1.356 . S
N317 H322 0.984 . S
N317 H323 0.985 . S
C318 C312 1.379 . S
C318 C315 1.363 . S
C318 N316 1.356 . S
C319 C313 1.363 . S
C319 C314 1.379 . S
C319 N317 1.356 . S
N320 C312 1.356 . S
N320 H326 0.984 . S
N320 H327 0.984 . S
N321 C314 1.356 . S
N321 H324 0.984 . S
N321 H325 0.985 . S
H322 N317 0.984 . S
H323 N317 0.985 . S
H324 N321 0.984 . S
H325 N321 0.985 . S
H326 N320 0.984 . S
H327 N320 0.984 . S
H328 N316 0.984 . S
H329 N316 0.985 . S
C330 C331 1.363 . S
C330 C336 1.379 . S
C330 N338 1.356 . S
C331 C330 1.363 . S
C331 C337 1.363 . S
C332 C333 1.363 . S
C332 C337 1.379 . S
C332 N339 1.356 . S
C333 C332 1.363 . S
C333 C336 1.363 . S
N334 C336 1.356 . S
N334 H346 0.984 . S
N334 H347 0.985 . S
N335 C337 1.356 . S
N335 H340 0.984 . S
N335 H341 0.985 1_655 S
C336 C330 1.379 . S
C336 C333 1.363 . S
C336 N334 1.356 . S
C337 C331 1.363 . S
C337 C332 1.379 . S
C337 N335 1.356 . S
N338 C330 1.356 . S
N338 H344 0.984 . S
N338 H345 0.984 . S
N339 C332 1.356 . S
N339 H342 0.984 . S
N339 H343 0.985 . S
H340 N335 0.984 . S
H341 N335 0.985 1_455 S
H342 N339 0.984 . S
H343 N339 0.985 . S
H344 N338 0.984 . S
H345 N338 0.984 . S
H346 N334 0.984 . S
H347 N334 0.985 . S
C348 C349 1.363 . S
C348 C354 1.379 . S
C348 N356 1.356 . S
C349 C348 1.363 . S
C349 C355 1.363 . S
C350 C351 1.363 . S
C350 C355 1.379 . S
C350 N357 1.356 . S
C351 C350 1.363 . S
C351 C354 1.363 . S
N352 C354 1.356 . S
N352 H364 0.984 . S
N352 H365 0.985 . S
N353 C355 1.356 . S
N353 H358 0.984 . S
N353 H359 0.985 . S
C354 C348 1.379 . S
C354 C351 1.363 . S
C354 N352 1.356 . S
C355 C349 1.363 . S
C355 C350 1.379 . S
C355 N353 1.356 . S
N356 C348 1.356 . S
N356 H362 0.984 . S
N356 H363 0.984 . S
N357 C350 1.356 . S
N357 H360 0.984 . S
N357 H361 0.985 . S
H358 N353 0.984 . S
H359 N353 0.985 . S
H360 N357 0.984 . S
H361 N357 0.985 . S
H362 N356 0.984 . S
H363 N356 0.984 . S
H364 N352 0.984 . S
H365 N352 0.985 . S
C366 C367 1.363 . S
C366 C372 1.379 . S
C366 N374 1.356 . S
C367 C366 1.363 . S
C367 C373 1.363 . S
C368 C369 1.363 . S
C368 C373 1.379 . S
C368 N375 1.356 . S
C369 C368 1.363 . S
C369 C372 1.363 . S
N370 C372 1.356 . S
N370 H382 0.984 . S
N370 H383 0.985 . S
N371 C373 1.356 . S
N371 H376 0.984 . S
N371 H377 0.985 . S
C372 C366 1.379 . S
C372 C369 1.363 . S
C372 N370 1.356 . S
C373 C367 1.363 . S
C373 C368 1.379 . S
C373 N371 1.356 . S
N374 C366 1.356 . S
N374 H380 0.984 . S
N374 H381 0.984 . S
N375 C368 1.356 . S
N375 H378 0.984 . S
N375 H379 0.985 . S
H376 N371 0.984 . S
H377 N371 0.985 . S
H378 N375 0.984 . S
H379 N375 0.985 . S
H380 N374 0.984 . S
H381 N374 0.984 . S
H382 N370 0.984 . S
H383 N370 0.985 . S
C384 C385 1.363 . S
C384 C390 1.379 . S
C384 N392 1.356 . S
C385 C384 1.363 . S
C385 C391 1.363 . S
C386 C387 1.363 . S
C386 C391 1.379 . S
C386 N393 1.356 . S
C387 C386 1.363 . S
C387 C390 1.363 . S
N388 C390 1.356 . S
N388 H400 0.984 . S
N388 H401 0.985 . S
N389 C391 1.356 . S
N389 H394 0.984 . S
N389 H395 0.985 . S
C390 C384 1.379 . S
C390 C387 1.363 . S
C390 N388 1.356 . S
C391 C385 1.363 . S
C391 C386 1.379 . S
C391 N389 1.356 . S
N392 C384 1.356 . S
N392 H398 0.984 . S
N392 H399 0.984 . S
N393 C386 1.356 . S
N393 H396 0.984 . S
N393 H397 0.985 . S
H394 N389 0.984 . S
H395 N389 0.985 . S
H396 N393 0.984 . S
H397 N393 0.985 . S
H398 N392 0.984 . S
H399 N392 0.984 . S
H400 N388 0.984 . S
H401 N388 0.985 . S
C402 C403 1.363 . S
C402 C408 1.379 . S
C402 N410 1.356 . S
C403 C402 1.363 . S
C403 C409 1.363 . S
C404 C405 1.363 . S
C404 C409 1.379 . S
C404 N411 1.356 . S
C405 C404 1.363 . S
C405 C408 1.363 . S
N406 C408 1.356 . S
N406 H418 0.984 . S
N406 H419 0.985 . S
N407 C409 1.356 . S
N407 H412 0.984 . S
N407 H413 0.985 . S
C408 C402 1.379 . S
C408 C405 1.363 . S
C408 N406 1.356 . S
C409 C403 1.363 . S
C409 C404 1.379 . S
C409 N407 1.356 . S
N410 C402 1.356 . S
N410 H416 0.984 . S
N410 H417 0.984 . S
N411 C404 1.356 . S
N411 H414 0.984 . S
N411 H415 0.985 . S
H412 N407 0.984 . S
H413 N407 0.985 . S
H414 N411 0.984 . S
H415 N411 0.985 . S
H416 N410 0.984 . S
H417 N410 0.984 . S
H418 N406 0.984 . S
H419 N406 0.985 . S
C420 C421 1.363 . S
C420 C426 1.379 . S
C420 N428 1.356 . S
C421 C420 1.363 . S
C421 C427 1.363 . S
C422 C423 1.363 . S
C422 C427 1.379 . S
C422 N429 1.356 . S
C423 C422 1.363 . S
C423 C426 1.363 . S
N424 C426 1.356 . S
N424 H436 0.984 . S
N424 H437 0.985 . S
N425 C427 1.356 . S
N425 H430 0.984 . S
N425 H431 0.985 . S
C426 C420 1.379 . S
C426 C423 1.363 . S
C426 N424 1.356 . S
C427 C421 1.363 . S
C427 C422 1.379 . S
C427 N425 1.356 . S
N428 C420 1.356 . S
N428 H434 0.984 . S
N428 H435 0.984 . S
N429 C422 1.356 . S
N429 H432 0.984 . S
N429 H433 0.985 . S
H430 N425 0.984 . S
H431 N425 0.985 . S
H432 N429 0.984 . S
H433 N429 0.985 . S
H434 N428 0.984 . S
H435 N428 0.984 . S
H436 N424 0.984 . S
H437 N424 0.985 . S
C438 C439 1.363 . S
C438 C444 1.379 . S
C438 N446 1.356 . S
C439 C438 1.363 . S
C439 C445 1.363 . S
C440 C441 1.363 . S
C440 C445 1.379 . S
C440 N447 1.356 . S
C441 C440 1.363 . S
C441 C444 1.363 . S
N442 C444 1.356 . S
N442 H454 0.984 . S
N442 H455 0.985 . S
N443 C445 1.356 . S
N443 H448 0.984 . S
N443 H449 0.985 1_556 S
C444 C438 1.379 . S
C444 C441 1.363 . S
C444 N442 1.356 . S
C445 C439 1.363 . S
C445 C440 1.379 . S
C445 N443 1.356 . S
N446 C438 1.356 . S
N446 H452 0.984 . S
N446 H453 0.984 . S
N447 C440 1.356 . S
N447 H450 0.984 . S
N447 H451 0.985 . S
H448 N443 0.984 . S
H449 N443 0.985 1_554 S
H450 N447 0.984 . S
H451 N447 0.985 . S
H452 N446 0.984 . S
H453 N446 0.984 . S
H454 N442 0.984 . S
H455 N442 0.985 . S
C456 C457 1.363 . S
C456 C462 1.379 . S
C456 N464 1.356 . S
C457 C456 1.363 . S
C457 C463 1.363 . S
C458 C459 1.363 . S
C458 C463 1.379 . S
C458 N465 1.356 . S
C459 C458 1.363 . S
C459 C462 1.363 . S
N460 C462 1.356 . S
N460 H472 0.984 . S
N460 H473 0.985 . S
N461 C463 1.356 . S
N461 H466 0.984 . S
N461 H467 0.985 . S
C462 C456 1.379 . S
C462 C459 1.363 . S
C462 N460 1.356 . S
C463 C457 1.363 . S
C463 C458 1.379 . S
C463 N461 1.356 . S
N464 C456 1.356 . S
N464 H470 0.984 . S
N464 H471 0.984 . S
N465 C458 1.356 . S
N465 H468 0.984 . S
N465 H469 0.985 . S
H466 N461 0.984 . S
H467 N461 0.985 . S
H468 N465 0.984 . S
H469 N465 0.985 . S
H470 N464 0.984 . S
H471 N464 0.984 . S
H472 N460 0.984 . S
H473 N460 0.985 . S
C474 C475 1.363 . S
C474 C480 1.379 . S
C474 N482 1.356 . S
C475 C474 1.363 . S
C475 C481 1.363 . S
C476 C477 1.363 . S
C476 C481 1.379 . S
C476 N483 1.356 . S
C477 C476 1.363 . S
C477 C480 1.363 . S
N478 C480 1.356 . S
N478 H490 0.984 . S
N478 H491 0.985 . S
N479 C481 1.356 . S
N479 H484 0.984 . S
N479 H485 0.985 . S
C480 C474 1.379 . S
C480 C477 1.363 . S
C480 N478 1.356 . S
C481 C475 1.363 . S
C481 C476 1.379 . S
C481 N479 1.356 . S
N482 C474 1.356 . S
N482 H488 0.984 1_655 S
N482 H489 0.984 . S
N483 C476 1.356 . S
N483 H486 0.984 . S
N483 H487 0.985 . S
H484 N479 0.984 . S
H485 N479 0.985 . S
H486 N483 0.984 . S
H487 N483 0.985 . S
H488 N482 0.984 1_455 S
H489 N482 0.984 . S
H490 N478 0.984 . S
H491 N478 0.985 . S
C492 C493 1.363 . S
C492 C498 1.379 . S
C492 N500 1.356 . S
C493 C492 1.363 . S
C493 C499 1.363 . S
C494 C495 1.363 . S
C494 C499 1.379 . S
C494 N501 1.356 . S
C495 C494 1.363 . S
C495 C498 1.363 . S
N496 C498 1.356 . S
N496 H508 0.984 . S
N496 H509 0.985 . S
N497 C499 1.356 . S
N497 H502 0.984 . S
N497 H503 0.985 . S
C498 C492 1.379 . S
C498 C495 1.363 . S
C498 N496 1.356 . S
C499 C493 1.363 . S
C499 C494 1.379 . S
C499 N497 1.356 . S
N500 C492 1.356 . S
N500 H506 0.984 1_655 S
N500 H507 0.984 1_655 S
N501 C494 1.356 . S
N501 H504 0.984 . S
N501 H505 0.985 . S
H502 N497 0.984 . S
H503 N497 0.985 . S
H504 N501 0.984 . S
H505 N501 0.985 . S
H506 N500 0.984 1_455 S
H507 N500 0.984 1_455 S
H508 N496 0.984 . S
H509 N496 0.985 . S
C510 C511 1.363 . S
C510 C516 1.379 . S
C510 N518 1.378 . S
C511 C510 1.363 . S
C511 C517 1.363 . S
C512 C513 1.363 . S
C512 C517 1.379 . S
C512 N519 1.356 . S
C513 C512 1.363 . S
C513 C516 1.363 . S
N514 C516 1.356 . S
N514 H526 0.984 . S
N514 H527 0.985 . S
N515 C517 1.356 . S
N515 H520 0.984 . S
N515 H521 0.985 . S
C516 C510 1.379 . S
C516 C513 1.363 . S
C516 N514 1.356 . S
C517 C511 1.363 . S
C517 C512 1.379 . S
C517 N515 1.356 . S
N518 C510 1.378 . S
N518 H524 0.958 1_565 S
N518 H525 0.989 1_565 S
N519 C512 1.356 . S
N519 H522 0.984 . S
N519 H523 0.985 . S
H520 N515 0.984 . S
H521 N515 0.985 . S
H522 N519 0.984 . S
H523 N519 0.985 . S
H524 N518 0.958 1_545 S
H525 N518 0.989 1_545 S
H526 N514 0.984 . S
H527 N514 0.985 . S
C528 C529 1.363 . S
C528 C534 1.379 . S
C528 N536 1.356 . S
C529 C528 1.363 . S
C529 C535 1.363 . S
C530 C531 1.363 . S
C530 C535 1.379 . S
C530 N537 1.356 . S
C531 C530 1.363 . S
C531 C534 1.363 . S
N532 C534 1.356 . S
N532 H544 0.984 . S
N532 H545 0.985 . S
N533 C535 1.356 . S
N533 H538 0.984 . S
N533 H539 0.985 . S
C534 C528 1.379 . S
C534 C531 1.363 . S
C534 N532 1.356 . S
C535 C529 1.363 . S
C535 C530 1.379 . S
C535 N533 1.356 . S
N536 C528 1.356 . S
N536 H542 0.984 . S
N536 H543 0.984 . S
N537 C530 1.356 . S
N537 H540 0.984 . S
N537 H541 0.985 . S
H538 N533 0.984 . S
H539 N533 0.985 . S
H540 N537 0.984 . S
H541 N537 0.985 . S
H542 N536 0.984 . S
H543 N536 0.984 . S
H544 N532 0.984 . S
H545 N532 0.985 . S
C546 C547 1.363 . S
C546 C552 1.379 . S
C546 N554 1.356 . S
C547 C546 1.363 . S
C547 C553 1.363 . S
C548 C549 1.363 . S
C548 C553 1.379 . S
C548 N555 1.356 . S
C549 C548 1.363 . S
C549 C552 1.363 . S
N550 C552 1.356 . S
N550 H562 0.984 . S
N550 H563 0.985 . S
N551 C553 1.356 . S
N551 H556 0.984 . S
N551 H557 0.985 . S
C552 C546 1.379 . S
C552 C549 1.363 . S
C552 N550 1.356 . S
C553 C547 1.363 . S
C553 C548 1.379 . S
C553 N551 1.356 . S
N554 C546 1.356 . S
N554 H560 0.984 1_455 S
N554 H561 0.984 . S
N555 C548 1.356 . S
N555 H558 0.984 . S
N555 H559 0.985 . S
H556 N551 0.984 . S
H557 N551 0.985 . S
H558 N555 0.984 . S
H559 N555 0.985 . S
H560 N554 0.984 1_655 S
H561 N554 0.984 . S
H562 N550 0.984 . S
H563 N550 0.985 . S
C564 C565 1.363 . S
C564 C570 1.379 . S
C564 N572 1.356 . S
C565 C564 1.363 . S
C565 C571 1.363 . S
C566 C567 1.363 . S
C566 C571 1.379 . S
C566 N573 1.356 . S
C567 C566 1.363 . S
C567 C570 1.363 . S
N568 C570 1.356 . S
N568 H580 0.984 . S
N568 H581 0.985 . S
N569 C571 1.356 . S
N569 H574 0.984 . S
N569 H575 0.985 . S
C570 C564 1.379 . S
C570 C567 1.363 . S
C570 N568 1.356 . S
C571 C565 1.363 . S
C571 C566 1.379 . S
C571 N569 1.356 . S
N572 C564 1.356 . S
N572 H578 0.984 . S
N572 H579 0.984 . S
N573 C566 1.356 . S
N573 H576 0.984 . S
N573 H577 0.985 . S
H574 N569 0.984 . S
H575 N569 0.985 . S
H576 N573 0.984 . S
H577 N573 0.985 . S
H578 N572 0.984 . S
H579 N572 0.984 . S
H580 N568 0.984 . S
H581 N568 0.985 . S
C582 C583 1.363 . S
C582 C588 1.379 . S
C582 N590 1.356 . S
C583 C582 1.363 . S
C583 C589 1.363 . S
C584 C585 1.363 . S
C584 C589 1.379 . S
C584 N591 1.356 . S
C585 C584 1.363 . S
C585 C588 1.363 . S
N586 C588 1.356 . S
N586 H598 0.984 . S
N586 H599 0.985 . S
N587 C589 1.356 . S
N587 H592 0.984 . S
N587 H593 0.985 . S
C588 C582 1.379 . S
C588 C585 1.363 . S
C588 N586 1.356 . S
C589 C583 1.363 . S
C589 C584 1.379 . S
C589 N587 1.356 . S
N590 C582 1.356 . S
N590 H596 0.984 . S
N590 H597 0.984 . S
N591 C584 1.356 . S
N591 H594 0.984 . S
N591 H595 0.985 . S
H592 N587 0.984 . S
H593 N587 0.985 . S
H594 N591 0.984 . S
H595 N591 0.985 . S
H596 N590 0.984 . S
H597 N590 0.984 . S
H598 N586 0.984 . S
H599 N586 0.985 . S
C600 C601 1.363 . S
C600 C606 1.379 . S
C600 N608 1.356 . S
C601 C600 1.363 . S
C601 C607 1.363 . S
C602 C603 1.363 . S
C602 C607 1.379 . S
C602 N609 1.356 . S
C603 C602 1.363 . S
C603 C606 1.363 . S
N604 C606 1.356 . S
N604 H616 0.984 . S
N604 H617 0.985 . S
N605 C607 1.356 . S
N605 H610 0.984 . S
N605 H611 0.985 . S
C606 C600 1.379 . S
C606 C603 1.363 . S
C606 N604 1.356 . S
C607 C601 1.363 . S
C607 C602 1.379 . S
C607 N605 1.356 . S
N608 C600 1.356 . S
N608 H614 0.984 . S
N608 H615 0.984 . S
N609 C602 1.356 . S
N609 H612 0.984 . S
N609 H613 0.985 . S
H610 N605 0.984 . S
H611 N605 0.985 . S
H612 N609 0.984 . S
H613 N609 0.985 . S
H614 N608 0.984 . S
H615 N608 0.984 . S
H616 N604 0.984 . S
H617 N604 0.985 . S
C618 C619 1.363 . S
C618 C624 1.379 . S
C618 N626 1.356 . S
C619 C618 1.363 . S
C619 C625 1.363 . S
C620 C621 1.363 . S
C620 C625 1.379 . S
C620 N627 1.356 . S
C621 C620 1.363 . S
C621 C624 1.363 . S
N622 C624 1.356 . S
N622 H634 0.984 . S
N622 H635 0.985 . S
N623 C625 1.356 . S
N623 H628 0.984 . S
N623 H629 0.985 . S
C624 C618 1.379 . S
C624 C621 1.363 . S
C624 N622 1.356 . S
C625 C619 1.363 . S
C625 C620 1.379 . S
C625 N623 1.356 . S
N626 C618 1.356 . S
N626 H632 0.984 . S
N626 H633 0.984 . S
N627 C620 1.356 . S
N627 H630 0.984 . S
N627 H631 0.985 . S
H628 N623 0.984 . S
H629 N623 0.985 . S
H630 N627 0.984 . S
H631 N627 0.985 . S
H632 N626 0.984 . S
H633 N626 0.984 . S
H634 N622 0.984 . S
H635 N622 0.985 . S
C636 C637 1.363 . S
C636 C642 1.379 . S
C636 N644 1.356 . S
C637 C636 1.363 . S
C637 C643 1.363 . S
C638 C639 1.363 . S
C638 C643 1.379 . S
C638 N645 1.356 . S
C639 C638 1.363 . S
C639 C642 1.363 . S
N640 C642 1.356 . S
N640 H652 0.984 . S
N640 H653 0.985 . S
N641 C643 1.356 . S
N641 H646 0.984 . S
N641 H647 0.985 . S
C642 C636 1.379 . S
C642 C639 1.363 . S
C642 N640 1.356 . S
C643 C637 1.363 . S
C643 C638 1.379 . S
C643 N641 1.356 . S
N644 C636 1.356 . S
N644 H650 0.984 . S
N644 H651 0.984 . S
N645 C638 1.356 . S
N645 H648 0.984 . S
N645 H649 0.985 . S
H646 N641 0.984 . S
H647 N641 0.985 . S
H648 N645 0.984 . S
H649 N645 0.985 . S
H650 N644 0.984 . S
H651 N644 0.984 . S
H652 N640 0.984 . S
H653 N640 0.985 . S
C654 C655 1.363 . S
C654 C660 1.379 . S
C654 N662 1.356 . S
C655 C654 1.363 . S
C655 C661 1.363 . S
C656 C657 1.363 . S
C656 C661 1.379 . S
C656 N663 1.356 . S
C657 C656 1.363 . S
C657 C660 1.363 . S
N658 C660 1.356 . S
N658 H670 0.984 . S
N658 H671 0.985 . S
N659 C661 1.356 . S
N659 H664 0.984 . S
N659 H665 0.985 . S
C660 C654 1.379 . S
C660 C657 1.363 . S
C660 N658 1.356 . S
C661 C655 1.363 . S
C661 C656 1.379 . S
C661 N659 1.356 . S
N662 C654 1.356 . S
N662 H668 0.984 1_565 S
N662 H669 0.984 . S
N663 C656 1.356 . S
N663 H666 0.984 . S
N663 H667 0.985 . S
H664 N659 0.984 . S
H665 N659 0.985 . S
H666 N663 0.984 . S
H667 N663 0.985 . S
H668 N662 0.984 1_545 S
H669 N662 0.984 . S
H670 N658 0.984 . S
H671 N658 0.985 . S
C672 C673 1.363 . S
C672 C678 1.379 . S
C672 N680 1.356 . S
C673 C672 1.363 . S
C673 C679 1.363 . S
C674 C675 1.363 . S
C674 C679 1.379 . S
C674 N681 1.356 . S
C675 C674 1.363 . S
C675 C678 1.363 . S
N676 C678 1.356 . S
N676 H688 0.984 . S
N676 H689 0.985 . S
N677 C679 1.356 . S
N677 H682 0.984 . S
N677 H683 0.985 . S
C678 C672 1.379 . S
C678 C675 1.363 . S
C678 N676 1.356 . S
C679 C673 1.363 . S
C679 C674 1.379 . S
C679 N677 1.356 . S
N680 C672 1.356 . S
N680 H686 0.984 . S
N680 H687 0.984 . S
N681 C674 1.356 . S
N681 H684 0.984 . S
N681 H685 0.985 . S
H682 N677 0.984 . S
H683 N677 0.985 . S
H684 N681 0.984 . S
H685 N681 0.985 . S
H686 N680 0.984 . S
H687 N680 0.984 . S
H688 N676 0.984 . S
H689 N676 0.985 . S
C690 C691 1.363 . S
C690 C696 1.379 . S
C690 N698 1.356 . S
C691 C690 1.363 . S
C691 C697 1.363 . S
C692 C693 1.363 . S
C692 C697 1.379 . S
C692 N699 1.356 . S
C693 C692 1.363 . S
C693 C696 1.363 . S
N694 C696 1.356 . S
N694 H706 0.984 . S
N694 H707 0.985 . S
N695 C697 1.356 . S
N695 H700 0.984 . S
N695 H701 0.985 . S
C696 C690 1.379 . S
C696 C693 1.363 . S
C696 N694 1.356 . S
C697 C691 1.363 . S
C697 C692 1.379 . S
C697 N695 1.356 . S
N698 C690 1.356 . S
N698 H704 0.984 . S
N698 H705 0.984 . S
N699 C692 1.356 . S
N699 H702 0.984 . S
N699 H703 0.985 . S
H700 N695 0.984 . S
H701 N695 0.985 . S
H702 N699 0.984 . S
H703 N699 0.985 . S
H704 N698 0.984 . S
H705 N698 0.984 . S
H706 N694 0.984 . S
H707 N694 0.985 . S
C277 C7 2.266 . S
C279 C145 2.235 . S
C295 C30 1.371 . S
C297 N163 1.367 . S
C315 C191 2.067 . S
C313 N58 2.035 . S
C333 N209 1.280 . S
C331 N81 1.210 . S
C351 C237 2.147 . S
C349 C99 2.188 . S
C369 N255 1.339 . S
C367 N127 1.265 . S
C385 N25 2.058 . S
C387 C200 2.096 . S
C403 C62 1.385 . S
C405 N219 1.275 . S
C423 C246 2.203 . S
C421 C85 2.196 . S
C441 N265 1.231 . S
C439 N94 1.299 . S
C457 C131 2.200 . S
C459 C154 2.182 . S
C477 N173 1.176 . S
C475 N2 1.231 . S
C495 C223 2.059 . S
C493 C16 2.095 . S
C511 C39 1.182 . S
C513 N242 1.172 . S
C531 C269 1.906 . S
C529 N48 1.919 . S
C547 N71 1.075 . S
C549 N150 1.089 . S
C565 C108 2.043 . S
C567 C177 2.001 . S
C583 N117 1.093 . S
C585 N196 1.118 . S
C601 N35 1.910 . S
C603 C260 1.942 . S
C621 N140 1.134 . S
C619 C53 1.198 . S
C637 C76 2.124 . S
C639 C168 2.112 . S
C655 N104 1.086 . S
C657 N186 1.053 . S
C673 C122 2.061 . S
C675 C214 2.046 . S
C691 N12 1.049 . S
C693 N232 1.025 . S
