# Generated by pormake.
# Topology ocu, (6,8)-cn, num edge types: 1
# Building blocks:
#     Node 0, Type 0, BuildingBlock: KUMBOL_clean_sbu_1, # of connection points: 6
#     Node 1, Type 0, BuildingBlock: KUMBOL_clean_sbu_1, # of connection points: 6
#     Node 2, Type 0, BuildingBlock: KUMBOL_clean_sbu_1, # of connection points: 6
#     Node 3, Type 0, BuildingBlock: KUMBOL_clean_sbu_1, # of connection points: 6
#     Node 4, Type 0, BuildingBlock: KUMBOL_clean_sbu_1, # of connection points: 6
#     Node 5, Type 0, BuildingBlock: KUMBOL_clean_sbu_1, # of connection points: 6
#     Node 6, Type 0, BuildingBlock: KUMBOL_clean_sbu_1, # of connection points: 6
#     Node 7, Type 0, BuildingBlock: KUMBOL_clean_sbu_1, # of connection points: 6
#     Node 8, Type 1, BuildingBlock: GIZVER_clean_sbu_0, # of connection points: 8
#     Node 9, Type 1, BuildingBlock: GIZVER_clean_sbu_0, # of connection points: 8
#     Node 10, Type 1, BuildingBlock: GIZVER_clean_sbu_0, # of connection points: 8
#     Node 11, Type 1, BuildingBlock: GIZVER_clean_sbu_0, # of connection points: 8
#     Node 12, Type 1, BuildingBlock: GIZVER_clean_sbu_0, # of connection points: 8
#     Node 13, Type 1, BuildingBlock: GIZVER_clean_sbu_0, # of connection points: 8
#     Edge 14, Type (0, 1), BuildingBlock: KIFKEQ_clean_linker_1, # of connection points: 2
#     Edge 15, Type (0, 1), BuildingBlock: KIFKEQ_clean_linker_1, # of connection points: 2
#     Edge 16, Type (0, 1), BuildingBlock: KIFKEQ_clean_linker_1, # of connection points: 2
#     Edge 17, Type (0, 1), BuildingBlock: KIFKEQ_clean_linker_1, # of connection points: 2
#     Edge 18, Type (0, 1), BuildingBlock: KIFKEQ_clean_linker_1, # of connection points: 2
#     Edge 19, Type (0, 1), BuildingBlock: KIFKEQ_clean_linker_1, # of connection points: 2
#     Edge 20, Type (0, 1), BuildingBlock: KIFKEQ_clean_linker_1, # of connection points: 2
#     Edge 21, Type (0, 1), BuildingBlock: KIFKEQ_clean_linker_1, # of connection points: 2
#     Edge 22, Type (0, 1), BuildingBlock: KIFKEQ_clean_linker_1, # of connection points: 2
#     Edge 23, Type (0, 1), BuildingBlock: KIFKEQ_clean_linker_1, # of connection points: 2
#     Edge 24, Type (0, 1), BuildingBlock: KIFKEQ_clean_linker_1, # of connection points: 2
#     Edge 25, Type (0, 1), BuildingBlock: KIFKEQ_clean_linker_1, # of connection points: 2
#     Edge 26, Type (0, 1), BuildingBlock: KIFKEQ_clean_linker_1, # of connection points: 2
#     Edge 27, Type (0, 1), BuildingBlock: KIFKEQ_clean_linker_1, # of connection points: 2
#     Edge 28, Type (0, 1), BuildingBlock: KIFKEQ_clean_linker_1, # of connection points: 2
#     Edge 29, Type (0, 1), BuildingBlock: KIFKEQ_clean_linker_1, # of connection points: 2
#     Edge 30, Type (0, 1), BuildingBlock: KIFKEQ_clean_linker_1, # of connection points: 2
#     Edge 31, Type (0, 1), BuildingBlock: KIFKEQ_clean_linker_1, # of connection points: 2
#     Edge 32, Type (0, 1), BuildingBlock: KIFKEQ_clean_linker_1, # of connection points: 2
#     Edge 33, Type (0, 1), BuildingBlock: KIFKEQ_clean_linker_1, # of connection points: 2
#     Edge 34, Type (0, 1), BuildingBlock: KIFKEQ_clean_linker_1, # of connection points: 2
#     Edge 35, Type (0, 1), BuildingBlock: KIFKEQ_clean_linker_1, # of connection points: 2
#     Edge 36, Type (0, 1), BuildingBlock: KIFKEQ_clean_linker_1, # of connection points: 2
#     Edge 37, Type (0, 1), BuildingBlock: KIFKEQ_clean_linker_1, # of connection points: 2
#     Edge 38, Type (0, 1), BuildingBlock: KIFKEQ_clean_linker_1, # of connection points: 2
#     Edge 39, Type (0, 1), BuildingBlock: KIFKEQ_clean_linker_1, # of connection points: 2
#     Edge 40, Type (0, 1), BuildingBlock: KIFKEQ_clean_linker_1, # of connection points: 2
#     Edge 41, Type (0, 1), BuildingBlock: KIFKEQ_clean_linker_1, # of connection points: 2
#     Edge 42, Type (0, 1), BuildingBlock: KIFKEQ_clean_linker_1, # of connection points: 2
#     Edge 43, Type (0, 1), BuildingBlock: KIFKEQ_clean_linker_1, # of connection points: 2
#     Edge 44, Type (0, 1), BuildingBlock: KIFKEQ_clean_linker_1, # of connection points: 2
#     Edge 45, Type (0, 1), BuildingBlock: KIFKEQ_clean_linker_1, # of connection points: 2
#     Edge 46, Type (0, 1), BuildingBlock: KIFKEQ_clean_linker_1, # of connection points: 2
#     Edge 47, Type (0, 1), BuildingBlock: KIFKEQ_clean_linker_1, # of connection points: 2
#     Edge 48, Type (0, 1), BuildingBlock: KIFKEQ_clean_linker_1, # of connection points: 2
#     Edge 49, Type (0, 1), BuildingBlock: KIFKEQ_clean_linker_1, # of connection points: 2
#     Edge 50, Type (0, 1), BuildingBlock: KIFKEQ_clean_linker_1, # of connection points: 2
#     Edge 51, Type (0, 1), BuildingBlock: KIFKEQ_clean_linker_1, # of connection points: 2
#     Edge 52, Type (0, 1), BuildingBlock: KIFKEQ_clean_linker_1, # of connection points: 2
#     Edge 53, Type (0, 1), BuildingBlock: KIFKEQ_clean_linker_1, # of connection points: 2
#     Edge 54, Type (0, 1), BuildingBlock: KIFKEQ_clean_linker_1, # of connection points: 2
#     Edge 55, Type (0, 1), BuildingBlock: KIFKEQ_clean_linker_1, # of connection points: 2
#     Edge 56, Type (0, 1), BuildingBlock: KIFKEQ_clean_linker_1, # of connection points: 2
#     Edge 57, Type (0, 1), BuildingBlock: KIFKEQ_clean_linker_1, # of connection points: 2
#     Edge 58, Type (0, 1), BuildingBlock: KIFKEQ_clean_linker_1, # of connection points: 2
#     Edge 59, Type (0, 1), BuildingBlock: KIFKEQ_clean_linker_1, # of connection points: 2
#     Edge 60, Type (0, 1), BuildingBlock: KIFKEQ_clean_linker_1, # of connection points: 2
#     Edge 61, Type (0, 1), BuildingBlock: KIFKEQ_clean_linker_1, # of connection points: 2
# Relax obj value: 0.163
# Max RMSD: 0.212
# Mean RMSD: 0.172
data_MOF--net-ocu--node1-KUMBOL_clean_sbu_1--node2-GIZVER_clean_sbu_0--edge1-KIFKEQ_clean_linker_1
_symmetry_space_group_name_H-M    P1
_symmetry_Int_Tables_number       1
_symmetry_cell_setting            triclinic
loop_
_symmetry_equiv_pos_as_xyz
'x, y, z'
_cell_length_a     43.217821
_cell_length_b     45.377427
_cell_length_c     35.290639
_cell_angle_alpha  100.56733
_cell_angle_beta   79.769172
_cell_angle_gamma 111.41525
loop_
_atom_site_label
_atom_site_type_symbol
_atom_site_fract_x
_atom_site_fract_y
_atom_site_fract_z
_atom_type_partial_charge
C0 C 0.34305 0.36176 0.3512 0.0
C1 C 0.29906 0.35307 0.40569 0.0
C2 C 0.31451 0.34147 0.37048 0.0
C3 C 0.31242 0.38534 0.42097 0.0
C4 C 0.35672 0.3941 0.3667 0.0
C5 C 0.34116 0.40579 0.40153 0.0
N6 N 0.35747 0.34984 0.3174 0.0
C7 C 0.38623 0.36861 0.29844 0.0
C8 C 0.38572 0.41371 0.34676 0.0
C9 C 0.40065 0.40084 0.3126 0.0
Gd10 Gd 0.26951 0.26685 0.21442 0.0
Gd11 Gd 0.33098 0.29573 0.29569 0.0
N12 N 0.30159 0.3105 0.35441 0.0
C13 C 0.27067 0.33185 0.42454 0.0
C14 C 0.27499 0.28942 0.3737 0.0
C15 C 0.25883 0.29981 0.40868 0.0
H16 H 0.26647 0.26449 0.36277 0.0
H17 H 0.23745 0.28303 0.42359 0.0
H18 H 0.3353 0.29609 0.14789 0.0
H19 H 0.39852 0.35854 0.27291 0.0
H20 H 0.36468 0.27595 0.08838 0.0
H21 H 0.25808 0.33982 0.45165 0.0
H22 H 0.30079 0.39469 0.4479 0.0
H23 H 0.20106 0.20516 0.23827 0.0
H24 H 0.397 0.43868 0.35772 0.0
H25 H 0.42341 0.41567 0.29736 0.0
H26 H 0.30002 0.16437 0.06687 0.0
H27 H 0.35124 0.4306 0.41379 0.0
H28 H 0.20231 0.12324 0.15645 0.0
H29 H 0.17567 0.14775 0.21538 0.0
N30 N 0.24244 0.21258 0.19414 0.0
C31 C 0.25707 0.19981 0.16113 0.0
C32 C 0.21336 0.19446 0.21327 0.0
C33 C 0.21376 0.14835 0.16667 0.0
C34 C 0.1987 0.16206 0.20002 0.0
C35 C 0.24318 0.16727 0.14662 0.0
H36 H 0.24873 0.1297 0.10115 0.0
N37 N 0.29925 0.25063 0.15691 0.0
C38 C 0.28613 0.21941 0.14176 0.0
C39 C 0.33072 0.22745 0.08847 0.0
C40 C 0.30183 0.2069 0.10744 0.0
C41 C 0.32642 0.27104 0.13752 0.0
C42 C 0.34284 0.25972 0.10337 0.0
O43 O 0.29621 0.32465 0.29717 0.0
O44 O 0.24876 0.28924 0.27191 0.0
O45 O 0.26318 0.29887 0.17992 0.0
O46 O 0.22182 0.25617 0.19311 0.0
O47 O 0.29141 0.24612 0.29383 0.0
O48 O 0.24594 0.2497 0.27216 0.0
O49 O 0.30379 0.23782 0.21457 0.0
O50 O 0.35157 0.274 0.23773 0.0
O51 O 0.3381 0.26345 0.3293 0.0
O52 O 0.37922 0.3061 0.31519 0.0
O53 O 0.30872 0.31652 0.21631 0.0
O54 O 0.35454 0.31395 0.23831 0.0
C55 C 0.26407 0.31614 0.29327 0.0
C56 C 0.25897 0.23647 0.29229 0.0
C57 C 0.22366 0.27613 0.13482 0.0
C58 C 0.19949 0.29177 0.0873 0.0
C59 C 0.22214 0.24858 0.06904 0.0
C60 C 0.23047 0.25251 0.10655 0.0
C61 C 0.20677 0.26801 0.05938 0.0
C62 C 0.20827 0.2957 0.12505 0.0
C63 C 0.23252 0.28098 0.17453 0.0
C64 C 0.28821 0.17443 0.09312 0.0
C65 C 0.25899 0.15468 0.11265 0.0
H66 H 0.34353 0.21876 0.06202 0.0
C67 C 0.33609 0.24663 0.21748 0.0
C68 C 0.34118 0.32657 0.21776 0.0
C69 C 0.37927 0.28602 0.37267 0.0
C70 C 0.40243 0.26802 0.41911 0.0
C71 C 0.39029 0.31761 0.43528 0.0
C72 C 0.37905 0.31303 0.39921 0.0
C73 C 0.40209 0.29548 0.44514 0.0
C74 C 0.39056 0.26347 0.3829 0.0
C75 C 0.36897 0.28128 0.3337 0.0
H76 H 0.22743 0.23024 0.04739 0.0
H77 H 0.24207 0.23707 0.11342 0.0
H78 H 0.20007 0.26404 0.03025 0.0
H79 H 0.20342 0.3142 0.14686 0.0
H80 H 0.39029 0.33865 0.45552 0.0
H81 H 0.37061 0.33074 0.39195 0.0
H82 H 0.41152 0.30031 0.47289 0.0
H83 H 0.39002 0.24238 0.36245 0.0
C84 C 0.866 0.24966 0.16808 0.0
C85 C 0.91497 0.29778 0.16453 0.0
C86 C 0.8851 0.27941 0.18503 0.0
C87 C 0.92511 0.28595 0.12659 0.0
C88 C 0.87635 0.23747 0.13023 0.0
C89 C 0.90585 0.25588 0.10949 0.0
N90 N 0.8376 0.23241 0.18885 0.0
C91 C 0.81888 0.20245 0.17408 0.0
C92 C 0.85682 0.20705 0.11448 0.0
C93 C 0.82808 0.18939 0.1366 0.0
Gd94 Gd 0.75193 0.29665 0.28149 0.0
Gd95 Gd 0.8233 0.25711 0.2503 0.0
N96 N 0.87427 0.29051 0.22149 0.0
C97 C 0.93377 0.32747 0.18284 0.0
C98 C 0.89317 0.31882 0.24008 0.0
C99 C 0.92295 0.33789 0.2209 0.0
H100 H 0.88511 0.32701 0.26943 0.0
H101 H 0.93753 0.36063 0.23546 0.0
H102 H 0.69371 0.24091 0.22904 0.0
H103 H 0.79705 0.18846 0.1914 0.0
H104 H 0.64168 0.19568 0.24035 0.0
H105 H 0.9568 0.34235 0.16802 0.0
H106 H 0.94789 0.29978 0.1103 0.0
H107 H 0.77088 0.33594 0.36911 0.0
H108 H 0.86392 0.19685 0.08548 0.0
H109 H 0.81309 0.16569 0.12488 0.0
H110 H 0.6178 0.20376 0.37906 0.0
H111 H 0.91413 0.24698 0.0803 0.0
H112 H 0.69362 0.28943 0.45461 0.0
H113 H 0.74711 0.33219 0.43777 0.0
N114 N 0.73165 0.29533 0.34747 0.0
C115 C 0.70174 0.27216 0.35594 0.0
C116 C 0.74774 0.31701 0.37616 0.0
C117 C 0.70393 0.29096 0.42442 0.0
C118 C 0.73421 0.31507 0.41505 0.0
C119 C 0.68727 0.26915 0.39476 0.0
H120 H 0.64561 0.24149 0.43245 0.0
N121 N 0.70108 0.25378 0.28849 0.0
C122 C 0.6862 0.25066 0.32567 0.0
C123 C 0.63999 0.20534 0.30261 0.0
C124 C 0.65552 0.22596 0.33371 0.0
C125 C 0.68453 0.23552 0.25816 0.0
C126 C 0.65429 0.21051 0.26464 0.0
O127 O 0.82785 0.29547 0.21461 0.0
O128 O 0.7987 0.32819 0.24869 0.0
O129 O 0.71807 0.30806 0.25271 0.0
O130 O 0.73673 0.3376 0.30488 0.0
O131 O 0.82933 0.29493 0.30324 0.0
O132 O 0.80087 0.32931 0.30168 0.0
O133 O 0.76019 0.26411 0.31803 0.0
O134 O 0.77172 0.22672 0.27189 0.0
O135 O 0.84038 0.25174 0.30206 0.0
O136 O 0.84728 0.22222 0.24784 0.0
O137 O 0.75519 0.27007 0.22008 0.0
O138 O 0.77374 0.2302 0.22735 0.0
C139 C 0.82132 0.32223 0.22106 0.0
C140 C 0.82426 0.32242 0.31374 0.0
C141 C 0.73032 0.36307 0.25573 0.0
C142 C 0.71679 0.3921 0.21308 0.0
C143 C 0.77191 0.41193 0.23519 0.0
C144 C 0.76258 0.38612 0.25604 0.0
C145 C 0.74923 0.41498 0.21386 0.0
C146 C 0.7075 0.36619 0.23431 0.0
C147 C 0.72093 0.33469 0.27552 0.0
C148 C 0.64119 0.22276 0.37237 0.0
C149 C 0.65698 0.2443 0.40279 0.0
H150 H 0.61648 0.18603 0.30757 0.0
C151 C 0.75647 0.23412 0.30563 0.0
C152 C 0.75779 0.24163 0.20863 0.0
C153 C 0.8349 0.19879 0.30541 0.0
C154 C 0.84053 0.16681 0.35077 0.0
C155 C 0.7902 0.14934 0.31851 0.0
C156 C 0.8033 0.17619 0.29904 0.0
C157 C 0.80868 0.14449 0.34396 0.0
C158 C 0.85323 0.19424 0.33152 0.0
C159 C 0.84879 0.22722 0.28511 0.0
H160 H 0.79679 0.42961 0.23554 0.0
H161 H 0.78065 0.38407 0.27216 0.0
H162 H 0.75697 0.43554 0.19841 0.0
H163 H 0.68281 0.3481 0.23358 0.0
H164 H 0.76584 0.13195 0.31339 0.0
H165 H 0.78889 0.17913 0.27879 0.0
H166 H 0.79828 0.12279 0.35745 0.0
H167 H 0.87737 0.2121 0.33668 0.0
C168 C 0.87436 0.80696 0.16541 0.0
C169 C 0.85897 0.76867 0.10812 0.0
C170 C 0.84979 0.78429 0.14442 0.0
C171 C 0.89296 0.77579 0.09358 0.0
C172 C 0.90849 0.81452 0.15056 0.0
C173 C 0.91764 0.79869 0.11468 0.0
N174 N 0.86488 0.82114 0.20072 0.0
C175 C 0.88805 0.84467 0.22127 0.0
C176 C 0.93246 0.83771 0.17229 0.0
C177 C 0.92215 0.85306 0.20762 0.0
Gd178 Gd 0.77647 0.74764 0.30232 0.0
Gd179 Gd 0.80712 0.80551 0.22089 0.0
N180 N 0.81702 0.77754 0.15946 0.0
C181 C 0.83368 0.74653 0.08731 0.0
C182 C 0.79235 0.75733 0.13819 0.0
C183 C 0.80023 0.74115 0.10221 0.0
H184 H 0.76662 0.75426 0.1481 0.0
H185 H 0.78045 0.72486 0.08574 0.0
H186 H 0.81147 0.79677 0.37725 0.0
H187 H 0.88042 0.85751 0.24789 0.0
H188 H 0.79396 0.82065 0.4426 0.0
H189 H 0.8397 0.73403 0.05935 0.0
H190 H 0.90043 0.76389 0.06585 0.0
H191 H 0.70724 0.68629 0.27597 0.0
H192 H 0.95892 0.84421 0.16185 0.0
H193 H 0.94044 0.87152 0.22423 0.0
H194 H 0.67389 0.77588 0.4559 0.0
H195 H 0.94375 0.80405 0.10295 0.0
H196 H 0.62332 0.69453 0.35589 0.0
H197 H 0.64658 0.66784 0.29623 0.0
N198 N 0.7182 0.7259 0.32047 0.0
C199 C 0.70614 0.7396 0.3547 0.0
C200 C 0.6974 0.6995 0.30057 0.0
C201 C 0.64995 0.70349 0.34634 0.0
C202 C 0.66297 0.68842 0.31259 0.0
C203 C 0.67168 0.72883 0.36847 0.0
H204 H 0.63377 0.73493 0.41541 0.0
N205 N 0.76174 0.77204 0.36394 0.0
C206 C 0.72862 0.7629 0.37746 0.0
C207 C 0.74126 0.79722 0.43789 0.0
C208 C 0.71743 0.77573 0.41458 0.0
C209 C 0.78519 0.79154 0.3873 0.0
C210 C 0.77532 0.80479 0.42438 0.0
O211 O 0.83516 0.7712 0.22293 0.0
O212 O 0.79395 0.72643 0.24246 0.0
O213 O 0.81494 0.73586 0.32193 0.0
O214 O 0.76322 0.70533 0.33085 0.0
O215 O 0.75463 0.76948 0.21753 0.0
O216 O 0.75253 0.72647 0.24586 0.0
O217 O 0.76736 0.79551 0.31707 0.0
O218 O 0.75774 0.80279 0.25871 0.0
O219 O 0.79659 0.82585 0.17534 0.0
O220 O 0.82053 0.85675 0.22388 0.0
O221 O 0.8291 0.78402 0.29991 0.0
O222 O 0.82547 0.82774 0.27965 0.0
C223 C 0.82299 0.73984 0.22237 0.0
C224 C 0.74169 0.73897 0.22205 0.0
C225 C 0.7981 0.71066 0.37858 0.0
C226 C 0.83049 0.70165 0.42293 0.0
C227 C 0.78053 0.71544 0.44801 0.0
C228 C 0.77554 0.71652 0.41036 0.0
C229 C 0.80763 0.70789 0.45434 0.0
C230 C 0.82567 0.70366 0.38509 0.0
C231 C 0.79358 0.71179 0.33844 0.0
C232 C 0.68302 0.76606 0.42762 0.0
C233 C 0.66018 0.74276 0.40454 0.0
H234 H 0.73367 0.80743 0.46669 0.0
C235 C 0.75331 0.80776 0.29685 0.0
C236 C 0.83809 0.81514 0.30123 0.0
C237 C 0.7802 0.87082 0.20033 0.0
C238 C 0.73786 0.88439 0.17609 0.0
C239 C 0.74804 0.90028 0.24374 0.0
C240 C 0.77248 0.88609 0.23735 0.0
C241 C 0.73075 0.89934 0.21353 0.0
C242 C 0.76296 0.87036 0.16959 0.0
C243 C 0.80527 0.85455 0.19419 0.0
H244 H 0.76299 0.71992 0.47237 0.0
H245 H 0.75399 0.72177 0.40618 0.0
H246 H 0.81 0.70602 0.48377 0.0
H247 H 0.84323 0.69962 0.36046 0.0
H248 H 0.74234 0.91196 0.27236 0.0
H249 H 0.78504 0.88687 0.26167 0.0
H250 H 0.71213 0.91088 0.21938 0.0
H251 H 0.76864 0.85864 0.14095 0.0
C252 C 0.38103 0.73963 0.30076 0.0
C253 C 0.35545 0.68685 0.32056 0.0
C254 C 0.35542 0.71059 0.29982 0.0
C255 C 0.38103 0.69359 0.34385 0.0
C256 C 0.40754 0.74618 0.32278 0.0
C257 C 0.40703 0.72325 0.345 0.0
N258 N 0.38093 0.76079 0.27832 0.0
C259 C 0.40758 0.78842 0.27483 0.0
C260 C 0.43414 0.7752 0.32089 0.0
C261 C 0.43433 0.79625 0.29644 0.0
Gd262 Gd 0.26694 0.79088 0.25117 0.0
Gd263 Gd 0.33358 0.74752 0.24594 0.0
N264 N 0.33147 0.70494 0.27671 0.0
C265 C 0.33032 0.65684 0.31633 0.0
C266 C 0.30778 0.67532 0.27108 0.0
C267 C 0.30664 0.65092 0.29105 0.0
H268 H 0.28907 0.67073 0.25208 0.0
H269 H 0.28737 0.62767 0.28713 0.0
H270 H 0.24323 0.80836 0.34598 0.0
H271 H 0.40804 0.80476 0.25587 0.0
H272 H 0.23469 0.85394 0.39103 0.0
H273 H 0.32943 0.63792 0.33176 0.0
H274 H 0.38136 0.67579 0.36032 0.0
H275 H 0.27368 0.80883 0.16241 0.0
H276 H 0.45497 0.78121 0.33742 0.0
H277 H 0.45507 0.81848 0.29417 0.0
H278 H 0.25484 0.93403 0.30861 0.0
H279 H 0.42702 0.7279 0.36238 0.0
H280 H 0.27575 0.90502 0.17112 0.0
H281 H 0.27874 0.85511 0.13084 0.0
N282 N 0.26934 0.83294 0.21958 0.0
C283 C 0.26665 0.85966 0.24211 0.0
C284 C 0.27274 0.83071 0.18009 0.0
C285 C 0.27385 0.88492 0.18502 0.0
C286 C 0.27549 0.85678 0.16219 0.0
C287 C 0.26886 0.88647 0.22555 0.0
H288 H 0.26701 0.93444 0.23776 0.0
N289 N 0.25672 0.83263 0.29608 0.0
C290 C 0.25999 0.85947 0.28175 0.0
C291 C 0.24638 0.88411 0.34616 0.0
C292 C 0.2551 0.88604 0.30632 0.0
C293 C 0.24703 0.83017 0.33476 0.0
C294 C 0.24207 0.85593 0.36038 0.0
O295 O 0.28208 0.7255 0.27764 0.0
O296 O 0.26363 0.76731 0.30425 0.0
O297 O 0.22704 0.74487 0.25292 0.0
O298 O 0.21794 0.78401 0.23601 0.0
O299 O 0.28259 0.72276 0.22619 0.0
O300 O 0.28465 0.76343 0.19776 0.0
O301 O 0.3126 0.80248 0.20614 0.0
O302 O 0.35436 0.79949 0.23544 0.0
O303 O 0.34629 0.75251 0.18441 0.0
O304 O 0.35953 0.71838 0.20755 0.0
O305 O 0.30261 0.81547 0.29664 0.0
O306 O 0.34121 0.78949 0.29404 0.0
C307 C 0.26503 0.73896 0.30552 0.0
C308 C 0.2748 0.73265 0.19785 0.0
C309 C 0.17452 0.74828 0.27313 0.0
C310 C 0.14792 0.76529 0.3355 0.0
C311 C 0.12669 0.71015 0.30597 0.0
C312 C 0.15162 0.71712 0.27432 0.0
C313 C 0.1251 0.73404 0.33687 0.0
C314 C 0.17187 0.77218 0.30315 0.0
C315 C 0.20474 0.75498 0.24511 0.0
C316 C 0.25829 0.91328 0.29021 0.0
C317 C 0.26521 0.91351 0.24988 0.0
H318 H 0.24225 0.90394 0.36603 0.0
C319 C 0.34355 0.81423 0.21468 0.0
C320 C 0.32823 0.81211 0.30894 0.0
C321 C 0.33858 0.70287 0.14673 0.0
C322 C 0.333 0.68118 0.07862 0.0
C323 C 0.28912 0.65832 0.12924 0.0
C324 C 0.30814 0.67921 0.15743 0.0
C325 C 0.30105 0.65971 0.09006 0.0
C326 C 0.35114 0.70355 0.10737 0.0
C327 C 0.35606 0.72791 0.17636 0.0
H328 H 0.10924 0.68603 0.30712 0.0
H329 H 0.15378 0.69811 0.25161 0.0
H330 H 0.10627 0.72815 0.36165 0.0
H331 H 0.18997 0.79602 0.30243 0.0
H332 H 0.2652 0.64073 0.13779 0.0
H333 H 0.29859 0.67729 0.18756 0.0
H334 H 0.28586 0.64292 0.06884 0.0
H335 H 0.37565 0.72063 0.0996 0.0
C336 C 0.40033 0.78031 0.68355 0.0
C337 C 0.44371 0.82249 0.71655 0.0
C338 C 0.41213 0.79798 0.7177 0.0
C339 C 0.46254 0.82965 0.68053 0.0
C340 C 0.41955 0.78672 0.64739 0.0
C341 C 0.45054 0.81174 0.64604 0.0
N342 N 0.36964 0.7571 0.68573 0.0
C343 C 0.3576 0.73795 0.65311 0.0
C344 C 0.40689 0.76789 0.61368 0.0
C345 C 0.37591 0.74324 0.6166 0.0
Gd346 Gd 0.26612 0.78583 0.76524 0.0
Gd347 Gd 0.34098 0.74931 0.74822 0.0
N348 N 0.39329 0.79044 0.75207 0.0
C349 C 0.4558 0.83845 0.75167 0.0
C350 C 0.40645 0.80378 0.78611 0.0
C351 C 0.43735 0.82861 0.78662 0.0
H352 H 0.39366 0.79459 0.81279 0.0
H353 H 0.44722 0.83964 0.81389 0.0
H354 H 0.20171 0.726 0.73133 0.0
H355 H 0.33383 0.7187 0.65534 0.0
H356 H 0.1473 0.68809 0.75681 0.0
H357 H 0.47991 0.85745 0.75206 0.0
H358 H 0.48671 0.84859 0.67907 0.0
H359 H 0.28648 0.84792 0.83728 0.0
H360 H 0.4209 0.77205 0.58533 0.0
H361 H 0.36614 0.72831 0.59075 0.0
H362 H 0.139 0.72157 0.89452 0.0
H363 H 0.46552 0.81729 0.6185 0.0
H364 H 0.22154 0.8196 0.94062 0.0
H365 H 0.26991 0.85903 0.90732 0.0
N366 N 0.2501 0.80105 0.83138 0.0
C367 C 0.2221 0.78014 0.84861 0.0
C368 C 0.26621 0.82983 0.8516 0.0
C369 C 0.2292 0.8142 0.90997 0.0
C370 C 0.25653 0.8365 0.89129 0.0
C371 C 0.21103 0.78597 0.88842 0.0
H372 H 0.17285 0.76799 0.93563 0.0
N373 N 0.2137 0.75014 0.78719 0.0
C374 C 0.203 0.75408 0.82566 0.0
C375 C 0.15254 0.70863 0.81649 0.0
C376 C 0.17241 0.73305 0.84156 0.0
C377 C 0.19348 0.72782 0.76218 0.0
C378 C 0.16284 0.7064 0.77652 0.0
O379 O 0.33722 0.78149 0.7079 0.0
O380 O 0.31811 0.81863 0.74691 0.0
O381 O 0.24496 0.78947 0.71595 0.0
O382 O 0.24324 0.82203 0.76841 0.0
O383 O 0.33299 0.77746 0.8072 0.0
O384 O 0.31333 0.81501 0.79419 0.0
O385 O 0.25464 0.73603 0.77972 0.0
O386 O 0.30224 0.7373 0.80106 0.0
O387 O 0.37316 0.73289 0.77283 0.0
O388 O 0.34314 0.70154 0.72891 0.0
O389 O 0.27391 0.75475 0.70836 0.0
O390 O 0.29413 0.71745 0.72156 0.0
C391 C 0.33895 0.81122 0.71827 0.0
C392 C 0.33041 0.80605 0.81462 0.0
C393 C 0.24573 0.83983 0.70851 0.0
C394 C 0.22752 0.86978 0.67173 0.0
C395 C 0.28649 0.87638 0.66658 0.0
C396 C 0.27898 0.85437 0.69273 0.0
C397 C 0.26091 0.88389 0.65584 0.0
C398 C 0.22014 0.84788 0.69834 0.0
C399 C 0.23689 0.81409 0.73254 0.0
C400 C 0.16222 0.7377 0.88159 0.0
C401 C 0.18152 0.76411 0.905 0.0
H402 H 0.12884 0.69197 0.82757 0.0
C403 C 0.26959 0.72576 0.80098 0.0
C404 C 0.27498 0.72556 0.70318 0.0
C405 C 0.39618 0.69772 0.73198 0.0
C406 C 0.44163 0.68063 0.74028 0.0
C407 C 0.44023 0.69698 0.67893 0.0
C408 C 0.41045 0.70274 0.69374 0.0
C409 C 0.45587 0.68605 0.70205 0.0
C410 C 0.41188 0.68678 0.75499 0.0
C411 C 0.36663 0.70599 0.75014 0.0
H412 H 0.31216 0.88741 0.65432 0.0
H413 H 0.29896 0.84826 0.70004 0.0
H414 H 0.26722 0.90101 0.63549 0.0
H415 H 0.19438 0.83641 0.71021 0.0
H416 H 0.4512 0.70094 0.64944 0.0
H417 H 0.39889 0.7113 0.67547 0.0
H418 H 0.47863 0.68125 0.68983 0.0
H419 H 0.4011 0.68354 0.78479 0.0
C420 C 0.38618 0.31194 0.6661 0.0
C421 C 0.37841 0.2698 0.61137 0.0
C422 C 0.36539 0.28472 0.64588 0.0
C423 C 0.41253 0.28249 0.59757 0.0
C424 C 0.42044 0.32478 0.65222 0.0
C425 C 0.43349 0.30988 0.61794 0.0
N426 N 0.37296 0.32572 0.69941 0.0
C427 C 0.39237 0.35285 0.71959 0.0
C428 C 0.44062 0.35224 0.67322 0.0
C429 C 0.42647 0.3664 0.70694 0.0
Gd430 Gd 0.28119 0.24315 0.79722 0.0
Gd431 Gd 0.31561 0.3008 0.71809 0.0
N432 N 0.33263 0.27237 0.66058 0.0
C433 C 0.35672 0.2425 0.59179 0.0
C434 C 0.31111 0.24663 0.6407 0.0
C435 C 0.32288 0.23104 0.60637 0.0
H436 H 0.28486 0.23816 0.65091 0.0
H437 H 0.30577 0.21033 0.59101 0.0
H438 H 0.30506 0.30519 0.86656 0.0
H439 H 0.38151 0.36452 0.74501 0.0
H440 H 0.27951 0.32987 0.92604 0.0
H441 H 0.36576 0.23033 0.56521 0.0
H442 H 0.42297 0.27129 0.57115 0.0
H443 H 0.22076 0.17545 0.76688 0.0
H444 H 0.46705 0.36283 0.66351 0.0
H445 H 0.44179 0.38788 0.72308 0.0
H446 H 0.16431 0.26147 0.93837 0.0
H447 H 0.45976 0.31939 0.6069 0.0
H448 H 0.1304 0.16969 0.84293 0.0
H449 H 0.16054 0.14766 0.78508 0.0
N450 N 0.22431 0.21383 0.81267 0.0
C451 C 0.20843 0.22593 0.84513 0.0
C452 C 0.20769 0.18582 0.79152 0.0
C453 C 0.15675 0.18224 0.83479 0.0
C454 C 0.17365 0.16977 0.80205 0.0
C455 C 0.17416 0.2105 0.85699 0.0
H456 H 0.13209 0.21215 0.90009 0.0
N457 N 0.25942 0.26842 0.85415 0.0
C458 C 0.22658 0.25375 0.86681 0.0
C459 C 0.23022 0.29479 0.92189 0.0
C460 C 0.21096 0.26684 0.90075 0.0
C461 C 0.27869 0.29473 0.87564 0.0
C462 C 0.2643 0.3086 0.90949 0.0
O463 O 0.34341 0.2659 0.71838 0.0
O464 O 0.30322 0.22127 0.74031 0.0
O465 O 0.31415 0.24029 0.83502 0.0
O466 O 0.27091 0.19903 0.82068 0.0
O467 O 0.26186 0.26557 0.71841 0.0
O468 O 0.26349 0.22118 0.73861 0.0
O469 O 0.25435 0.27927 0.79919 0.0
O470 O 0.29382 0.32328 0.7745 0.0
O471 O 0.28406 0.30646 0.6805 0.0
O472 O 0.32884 0.34568 0.69526 0.0
O473 O 0.334 0.27993 0.7989 0.0
O474 O 0.33378 0.32404 0.7763 0.0
C475 C 0.33219 0.23484 0.7201 0.0
C476 C 0.25023 0.23449 0.71891 0.0
C477 C 0.32006 0.19029 0.82799 0.0
C478 C 0.36181 0.17344 0.84736 0.0
C479 C 0.34577 0.15667 0.78199 0.0
C480 C 0.32331 0.17325 0.79096 0.0
C481 C 0.36499 0.15679 0.80991 0.0
C482 C 0.33921 0.1902 0.85617 0.0
C483 C 0.29852 0.20991 0.83676 0.0
C484 C 0.17677 0.25171 0.91243 0.0
C485 C 0.15842 0.22363 0.89061 0.0
H486 H 0.21909 0.30568 0.94798 0.0
C487 C 0.26546 0.31012 0.79596 0.0
C488 C 0.34473 0.31108 0.79913 0.0
C489 C 0.28118 0.35793 0.69009 0.0
C490 C 0.23921 0.37666 0.67456 0.0
C491 C 0.26149 0.39563 0.73668 0.0
C492 C 0.28197 0.37706 0.72625 0.0
C493 C 0.24025 0.39549 0.71109 0.0
C494 C 0.25977 0.35777 0.66439 0.0
C495 C 0.30111 0.33673 0.67974 0.0
H496 H 0.34822 0.14363 0.75334 0.0
H497 H 0.30861 0.17288 0.76898 0.0
H498 H 0.38185 0.1433 0.80244 0.0
H499 H 0.33689 0.20359 0.88468 0.0
H500 H 0.26223 0.41034 0.7646 0.0
H501 H 0.29832 0.37758 0.74648 0.0
H502 H 0.22523 0.41074 0.71958 0.0
H503 H 0.25891 0.34268 0.63668 0.0
C504 C 0.79881 0.19736 0.81971 0.0
C505 C 0.75758 0.14656 0.79835 0.0
C506 C 0.77975 0.17725 0.79101 0.0
C507 C 0.75464 0.13655 0.8346 0.0
C508 C 0.79597 0.18727 0.85608 0.0
C509 C 0.77385 0.15678 0.8633 0.0
N510 N 0.81953 0.22712 0.81237 0.0
C511 C 0.8389 0.24744 0.83948 0.0
C512 C 0.81524 0.20826 0.88429 0.0
C513 C 0.83681 0.23844 0.87592 0.0
Gd514 Gd 0.77677 0.29625 0.74531 0.0
Gd515 Gd 0.82457 0.23777 0.74868 0.0
N516 N 0.78325 0.1874 0.7559 0.0
C517 C 0.73944 0.12651 0.76876 0.0
C518 C 0.76806 0.16663 0.72601 0.0
C519 C 0.74499 0.13648 0.73231 0.0
H520 H 0.77485 0.17231 0.69681 0.0
H521 H 0.73252 0.12045 0.70857 0.0
H522 H 0.84442 0.36139 0.76046 0.0
H523 H 0.85648 0.27031 0.83276 0.0
H524 H 0.8779 0.40981 0.72982 0.0
H525 H 0.72208 0.10284 0.77331 0.0
H526 H 0.7377 0.11308 0.84064 0.0
H527 H 0.70936 0.26032 0.69846 0.0
H528 H 0.81375 0.20136 0.91255 0.0
H529 H 0.85213 0.25465 0.89738 0.0
H530 H 0.81978 0.40223 0.62235 0.0
H531 H 0.7713 0.14866 0.89108 0.0
H532 H 0.71845 0.3129 0.60544 0.0
H533 H 0.68743 0.26671 0.64149 0.0
N534 N 0.75268 0.30183 0.69379 0.0
C535 C 0.76983 0.32756 0.67478 0.0
C536 C 0.72329 0.28023 0.68248 0.0
C537 C 0.72828 0.31007 0.63021 0.0
C538 C 0.7107 0.28394 0.65046 0.0
C539 C 0.75815 0.3324 0.64242 0.0
H540 H 0.76802 0.36343 0.59843 0.0
N541 N 0.80956 0.34358 0.71913 0.0
C542 C 0.79902 0.34929 0.68809 0.0
C543 C 0.84615 0.39848 0.6847 0.0
C544 C 0.81725 0.37668 0.66966 0.0
C545 C 0.8369 0.36535 0.73491 0.0
C546 C 0.85582 0.39292 0.71771 0.0
O547 O 0.7853 0.24597 0.79841 0.0
O548 O 0.7461 0.24901 0.76626 0.0
O549 O 0.77149 0.32494 0.80026 0.0
O550 O 0.732 0.30898 0.76265 0.0
O551 O 0.79881 0.22947 0.69439 0.0
O552 O 0.75375 0.2451 0.72 0.0
O553 O 0.81777 0.29667 0.69542 0.0
O554 O 0.85608 0.2804 0.7164 0.0
O555 O 0.84517 0.20448 0.7103 0.0
O556 O 0.86973 0.23189 0.75997 0.0
O557 O 0.8127 0.3098 0.79108 0.0
O558 O 0.85434 0.28824 0.76846 0.0
C559 C 0.75364 0.23891 0.79458 0.0
C560 C 0.76819 0.22865 0.69298 0.0
C561 C 0.7166 0.30649 0.83038 0.0
C562 C 0.70078 0.30961 0.90063 0.0
C563 C 0.66801 0.26533 0.85714 0.0
C564 C 0.68918 0.27817 0.82504 0.0
C565 C 0.6733 0.28112 0.8946 0.0
C566 C 0.72307 0.321 0.86804 0.0
C567 C 0.7403 0.32041 0.7976 0.0
C568 C 0.806 0.38145 0.63707 0.0
C569 C 0.77652 0.35935 0.62346 0.0
H570 H 0.86098 0.41975 0.6713 0.0
C571 C 0.84841 0.29719 0.69493 0.0
C572 C 0.84336 0.30994 0.79025 0.0
C573 C 0.85923 0.17634 0.75077 0.0
C574 C 0.83052 0.11852 0.74648 0.0
C575 C 0.8528 0.14843 0.80595 0.0
C576 C 0.86483 0.17668 0.78897 0.0
C577 C 0.83549 0.1195 0.785 0.0
C578 C 0.84288 0.14706 0.72964 0.0
C579 C 0.86524 0.2063 0.73491 0.0
H580 H 0.64684 0.24351 0.85293 0.0
H581 H 0.68427 0.26581 0.79624 0.0
H582 H 0.65493 0.27149 0.91835 0.0
H583 H 0.7455 0.34168 0.87147 0.0
H584 H 0.85665 0.14904 0.8356 0.0
H585 H 0.87727 0.19887 0.80629 0.0
H586 H 0.82656 0.09787 0.7986 0.0
H587 H 0.8399 0.14663 0.69967 0.0
C588 C 0.83309 0.85055 0.84914 0.0
C589 C 0.78809 0.83715 0.90207 0.0
C590 C 0.80561 0.8279 0.86696 0.0
C591 C 0.7982 0.86928 0.91865 0.0
C592 C 0.84332 0.88282 0.86584 0.0
C593 C 0.82572 0.89203 0.9006 0.0
N594 N 0.84918 0.84117 0.81492 0.0
C595 C 0.87638 0.86253 0.79676 0.0
C596 C 0.87077 0.90497 0.84686 0.0
C597 C 0.88745 0.89474 0.81227 0.0
Gd598 Gd 0.76996 0.75759 0.70778 0.0
Gd599 Gd 0.82872 0.78663 0.79168 0.0
N600 N 0.79569 0.79702 0.84966 0.0
C601 C 0.76098 0.81378 0.91961 0.0
C602 C 0.7707 0.77394 0.86805 0.0
C603 C 0.75256 0.78199 0.90279 0.0
H604 H 0.76524 0.74921 0.85701 0.0
H605 H 0.73243 0.76356 0.9169 0.0
H606 H 0.8359 0.79002 0.64258 0.0
H607 H 0.89013 0.8546 0.77092 0.0
H608 H 0.86691 0.7722 0.58302 0.0
H609 H 0.7469 0.81992 0.94658 0.0
H610 H 0.78493 0.87679 0.9455 0.0
H611 H 0.7027 0.69389 0.72829 0.0
H612 H 0.87938 0.92997 0.85876 0.0
H613 H 0.90901 0.9116 0.79769 0.0
H614 H 0.80571 0.66025 0.55684 0.0
H615 H 0.83316 0.91673 0.91376 0.0
H616 H 0.70752 0.61457 0.64364 0.0
H617 H 0.67919 0.63677 0.70304 0.0
N618 N 0.74478 0.70342 0.68515 0.0
C619 C 0.76031 0.69193 0.65191 0.0
C620 C 0.71578 0.68419 0.70317 0.0
C621 C 0.71817 0.63955 0.65494 0.0
C622 C 0.70216 0.65196 0.68855 0.0
C623 C 0.74748 0.65961 0.636 0.0
H624 H 0.75472 0.62359 0.58919 0.0
N625 N 0.80124 0.74362 0.65011 0.0
C626 C 0.7892 0.71264 0.63368 0.0
C627 C 0.83442 0.72309 0.58119 0.0
C628 C 0.80578 0.70148 0.59908 0.0
C629 C 0.82806 0.76509 0.63161 0.0
C630 C 0.84535 0.75511 0.59727 0.0
O631 O 0.79506 0.81561 0.78924 0.0
O632 O 0.74799 0.77899 0.7651 0.0
O633 O 0.76296 0.7897 0.67386 0.0
O634 O 0.72231 0.74628 0.68624 0.0
O635 O 0.79031 0.7364 0.78882 0.0
O636 O 0.74532 0.73886 0.76468 0.0
O637 O 0.80393 0.72853 0.70855 0.0
O638 O 0.85071 0.76378 0.73524 0.0
O639 O 0.83953 0.75766 0.82695 0.0
O640 O 0.87604 0.80341 0.81533 0.0
O641 O 0.80966 0.80725 0.71008 0.0
O642 O 0.85414 0.80425 0.73466 0.0
C643 C 0.76282 0.80635 0.78583 0.0
C644 C 0.75811 0.72561 0.78514 0.0
C645 C 0.72365 0.76658 0.6284 0.0
C646 C 0.70081 0.78355 0.58095 0.0
C647 C 0.71726 0.73649 0.56413 0.0
C648 C 0.72688 0.74085 0.60112 0.0
C649 C 0.7041 0.75755 0.55409 0.0
C650 C 0.71088 0.78799 0.61804 0.0
C651 C 0.73256 0.77127 0.66807 0.0
C652 C 0.79322 0.66924 0.58335 0.0
C653 C 0.76417 0.64837 0.60177 0.0
H654 H 0.84791 0.71542 0.55465 0.0
C655 C 0.83582 0.73702 0.71337 0.0
C656 C 0.84187 0.8173 0.71343 0.0
C657 C 0.89656 0.76302 0.82032 0.0
C658 C 0.92648 0.73202 0.83782 0.0
C659 C 0.94122 0.75154 0.77493 0.0
C660 C 0.91663 0.76565 0.78429 0.0
C661 C 0.94612 0.73478 0.80141 0.0
C662 C 0.90172 0.74638 0.84716 0.0
C663 C 0.87004 0.77725 0.82982 0.0
H664 H 0.71984 0.71659 0.54322 0.0
H665 H 0.73653 0.72403 0.60844 0.0
H666 H 0.6968 0.75374 0.52526 0.0
H667 H 0.7081 0.80773 0.6392 0.0
H668 H 0.95653 0.7536 0.74705 0.0
H669 H 0.91332 0.77869 0.76344 0.0
H670 H 0.96551 0.72417 0.79353 0.0
H671 H 0.8861 0.74412 0.87489 0.0
Co672 Co 0.07572 0.96309 0.50341 0.0
Co673 Co 0.07573 1.00582 0.56452 0.0
Co674 Co 0.0491 0.02488 0.50438 0.0
O675 O 0.0834 1.00819 0.51122 0.0
H676 H 0.10601 0.02155 0.50324 0.0
O677 O 1.01328 0.03922 0.49796 0.0
Co678 Co 0.99666 0.06764 0.53342 0.0
Co679 Co 1.01825 0.0646 0.46327 0.0
H680 H 0.99466 1.02031 0.49094 0.0
O681 O 0.10809 1.00551 0.58972 0.0
O682 O 0.06837 0.96271 0.56169 0.0
O683 O 1.03747 1.01353 0.59617 0.0
O684 O 1.0137 0.99782 0.54258 0.0
O685 O 0.06579 0.05995 0.54716 0.0
O686 O 0.97442 0.09014 0.56649 0.0
O687 O 0.95455 0.04433 0.52658 0.0
O688 O 1.04121 0.09546 0.54662 0.0
O689 O 0.0845 0.05221 0.46539 0.0
O690 O 0.06185 0.07951 0.43825 0.0
O691 O 1.00008 0.09366 0.49127 0.0
O692 O 0.98299 0.05852 0.43784 0.0
C693 C 0.10484 0.936 0.49839 0.0
C694 C 1.01997 0.96058 0.4689 0.0
C695 C 1.01154 0.99913 0.57937 0.0
C696 C 0.09249 0.97485 0.58413 0.0
C697 C 0.94925 0.06604 0.55366 0.0
C698 C 0.06418 0.08792 0.5566 0.0
C699 C 0.08645 0.07186 0.44211 0.0
C700 C 0.98127 0.08293 0.46298 0.0
O701 O 0.07286 0.92312 0.49652 0.0
O702 O 0.11888 0.96702 0.50391 0.0
O703 O 1.03346 0.98948 0.46207 0.0
O704 O 1.02839 0.95169 0.49688 0.0
Co705 Co 0.58557 0.96491 0.96389 0.0
Co706 Co 0.59188 0.99283 0.03439 0.0
Co707 Co 0.54888 0.02483 1.00508 0.0
O708 O 0.58759 1.00775 0.99117 0.0
H709 H 0.60838 0.02405 0.98325 0.0
O710 O 0.51007 0.04171 0.01825 0.0
Co711 Co 0.51153 0.08418 0.04621 0.0
Co712 Co 0.50685 0.05706 0.97433 0.0
H713 H 0.48919 0.02524 0.0255 0.0
O714 O 0.63264 0.99389 0.04173 0.0
O715 O 0.59198 0.95239 0.01326 0.0
O716 O 0.55708 0.98784 0.07752 0.0
O717 O 0.5216 0.99334 0.04335 0.0
O718 O 0.57267 0.05713 0.04677 0.0
O719 O 0.50934 0.1218 0.07296 0.0
O720 O 0.46574 0.07711 0.06151 0.0
O721 O 0.5595 0.09824 0.03665 0.0
O722 O 0.57635 0.05691 0.96759 0.0
O723 O 0.54243 0.06252 0.93131 0.0
O724 O 0.50743 0.09748 0.9969 0.0
O725 O 0.46662 0.0577 0.96673 0.0
C726 C 0.61951 0.94175 0.93253 0.0
C727 C 0.51845 0.96215 0.96143 0.0
C728 C 0.52743 0.98356 0.07225 0.0
C729 C 0.62036 0.96379 0.02843 0.0
C730 C 0.47708 0.10712 0.07701 0.0
C731 C 0.57822 0.08722 0.04997 0.0
C732 C 0.57166 0.06713 0.9384 0.0
C733 C 0.47927 0.08731 0.98173 0.0
O734 O 0.58731 0.92697 0.93796 0.0
O735 O 0.63102 0.97207 0.94673 0.0
O736 O 0.52507 0.99237 0.96348 0.0
O737 O 0.53713 0.95088 0.97466 0.0
Co738 Co 0.08484 0.46594 0.9634 0.0
Co739 Co 0.06065 0.46657 0.03086 0.0
Co740 Co 1.04493 0.5249 0.01167 0.0
O741 O 0.07888 0.50123 1.00463 0.0
H742 H 0.1 0.51506 0.01343 0.0
O743 O 1.01095 0.54827 0.01929 0.0
Co744 Co 1.00743 0.58602 0.05683 0.0
Co745 Co 1.02557 0.57943 0.98822 0.0
H746 H 0.989 0.53363 0.01395 0.0
O747 O 0.0869 0.46154 0.0617 0.0
O748 O 0.07445 0.43531 1.00199 0.0
O749 O 1.01383 0.45278 0.04555 0.0
O750 O 1.01429 0.50275 0.05734 0.0
O751 O 0.07365 0.55878 0.04836 0.0
O752 O 1.00142 0.61875 0.09126 0.0
O753 O 0.96108 0.57847 0.06301 0.0
O754 O 0.05478 0.60011 0.05765 0.0
O755 O 0.0762 0.54709 0.9661 0.0
O756 O 0.07167 0.59492 0.97134 0.0
O757 O 1.01226 0.61176 0.01402 0.0
O758 O 0.99597 0.57891 0.95852 0.0
C759 C 0.1229 0.44695 0.93521 0.0
C760 C 1.01472 0.46329 0.95937 0.0
C761 C 0.99972 0.47287 0.0603 0.0
C762 C 0.08865 0.43916 0.03335 0.0
C763 C 0.96996 0.60555 0.08637 0.0
C764 C 0.07737 0.58837 0.0587 0.0
C765 C 0.08836 0.57654 0.9603 0.0
C766 C 0.99541 0.6035 0.98393 0.0
O767 O 0.09247 0.4357 0.92642 0.0
O768 O 0.13061 0.47202 0.96192 0.0
O769 O 1.01558 0.49132 0.97491 0.0
O770 O 1.03918 0.45353 0.9573 0.0
Co771 Co 0.57425 0.4667 0.01571 0.0
Co772 Co 0.56858 0.51238 0.07212 0.0
Co773 Co 0.54953 0.52685 1.00252 0.0
O774 O 0.58087 0.51105 0.01855 0.0
H775 H 0.60397 0.52424 0.01267 0.0
O776 O 0.51836 0.54285 0.98614 0.0
Co777 Co 0.52533 0.58709 0.98644 0.0
Co778 Co 0.53179 0.54091 0.93292 0.0
H779 H 0.49519 0.52967 0.99163 0.0
O780 O 0.59763 0.51439 0.10384 0.0
O781 O 0.56141 0.46989 0.07388 0.0
O782 O 0.52929 0.52211 0.09588 0.0
O783 O 0.51032 0.50247 0.03965 0.0
O784 O 0.56304 0.56462 0.04239 0.0
O785 O 0.52672 0.62665 0.98546 0.0
O786 O 0.485 0.57991 0.97301 0.0
O787 O 0.56953 0.6015 1.00495 0.0
O788 O 0.58867 0.55145 0.96547 0.0
O789 O 0.56988 0.52848 0.91011 0.0
O790 O 0.54281 0.58377 0.92918 0.0
O791 O 0.50495 0.54021 0.89956 0.0
C792 C 0.60386 0.44216 0.02127 0.0
C793 C 0.52148 0.46041 0.97197 0.0
C794 C 0.50517 0.50591 0.07675 0.0
C795 C 0.58402 0.48348 0.09805 0.0
C796 C 0.49686 0.61096 0.97551 0.0
C797 C 0.57646 0.59319 0.03443 0.0
C798 C 0.5939 0.54646 0.92845 0.0
C799 C 0.52279 0.57046 0.9021 0.0
O800 O 0.57295 0.42711 0.01452 0.0
O801 O 0.61616 0.4732 0.02371 0.0
O802 O 0.53593 0.48865 0.96288 0.0
O803 O 0.52817 0.453 1.0023 0.0
Co804 Co 0.10904 0.49145 0.50655 0.0
Co805 Co 0.09388 0.48952 0.44092 0.0
Co806 Co 0.04963 0.52572 0.5075 0.0
O807 O 0.06856 0.48978 0.48891 0.0
H808 H 0.05119 0.46917 0.4906 0.0
O809 O 1.03024 0.56149 0.52658 0.0
Co810 Co 0.98943 0.55919 0.5085 0.0
Co811 Co 1.00378 0.56013 0.57456 0.0
H812 H 0.04738 0.58228 0.52532 0.0
O813 O 0.09496 0.4516 0.41038 0.0
O814 O 0.13167 0.48259 0.45163 0.0
O815 O 0.10673 0.52897 0.42039 0.0
O816 O 0.08006 0.55484 0.46727 0.0
O817 O 1.01492 0.50396 0.47114 0.0
O818 O 0.95456 0.55954 0.49001 0.0
O819 O 1.00082 0.60137 0.50366 0.0
O820 O 0.9724 0.51431 0.50908 0.0
O821 O 1.01951 0.49658 0.54744 0.0
O822 O 0.99112 0.52003 0.59519 0.0
O823 O 0.96635 0.56735 0.56316 0.0
O824 O 1.00225 0.59785 0.60547 0.0
C825 C 0.12561 0.45995 0.52386 0.0
C826 C 0.11589 0.55393 0.5339 0.0
C827 C 0.1002 0.55404 0.43567 0.0
C828 C 0.12264 0.45776 0.42483 0.0
C829 C 0.97158 0.58981 0.49071 0.0
C830 C 0.98346 0.49701 0.48139 0.0
C831 C 0.99908 0.49588 0.5789 0.0
C832 C 0.97517 0.59217 0.58997 0.0
O833 O 0.14382 0.48997 0.52448 0.0
O834 O 0.09618 0.44947 0.51165 0.0
O835 O 0.0844 0.54722 0.54389 0.0
O836 O 0.12706 0.53669 0.50612 0.0
Co837 Co 0.59539 0.97895 0.51035 0.0
Co838 Co 0.58501 0.98098 0.44349 0.0
Co839 Co 0.54272 0.02155 0.50633 0.0
O840 O 0.55847 0.98322 0.49032 0.0
H841 H 0.53943 0.96363 0.49088 0.0
O842 O 0.52665 0.05967 0.5222 0.0
Co843 Co 0.48993 0.06392 0.50141 0.0
Co844 Co 0.49951 0.06193 0.56854 0.0
H845 H 0.54565 0.0793 0.52191 0.0
O846 O 0.58406 0.94232 0.4137 0.0
O847 O 0.62019 0.97146 0.45649 0.0
O848 O 0.6012 1.01971 0.42122 0.0
O849 O 0.5746 0.04776 0.46482 0.0
O850 O 0.50814 1.00042 0.46982 0.0
O851 O 0.45956 0.07162 0.48046 0.0
O852 O 0.50755 0.10677 0.5012 0.0
O853 O 0.46674 1.01847 0.49739 0.0
O854 O 0.51094 0.99541 0.54812 0.0
O855 O 0.48389 0.02339 0.59123 0.0
O856 O 0.46433 0.0712 0.55502 0.0
O857 O 0.50016 0.10072 0.59798 0.0
C858 C 0.60575 0.94238 0.52567 0.0
C859 C 0.60875 0.0458 0.53484 0.0
C860 C 0.59532 0.04541 0.43435 0.0
C861 C 0.61101 0.94722 0.42905 0.0
C862 C 0.48027 0.10081 0.48566 0.0
C863 C 0.47708 0.99709 0.47611 0.0
C864 C 0.49022 0.99784 0.57861 0.0
C865 C 0.47323 0.09556 0.58245 0.0
O866 O 0.62624 0.97165 0.5306 0.0
O867 O 0.57802 0.93604 0.51088 0.0
O868 O 0.57775 0.04281 0.54243 0.0
O869 O 0.61839 0.02403 0.51358 0.0
H870 H 0.19063 0.2163 0.30684 0.0
H871 H 0.27628 0.1973 0.32911 0.0
H872 H 0.15354 0.17203 0.34104 0.0
H873 H 0.23877 0.15329 0.36458 0.0
H874 H 0.09412 0.07358 0.3653 0.0
H875 H 0.13912 0.11151 0.32829 0.0
H876 H 0.19425 0.14498 0.42756 0.0
H877 H 0.1487 0.10651 0.46491 0.0
C878 C 0.2016 0.20248 0.31857 0.0
C879 C 0.23646 0.20992 0.31422 0.0
C880 C 0.1803 0.17714 0.33837 0.0
C881 C 0.19324 0.15887 0.355 0.0
C882 C 0.22811 0.16687 0.35191 0.0
C883 C 0.24952 0.19203 0.33151 0.0
C884 C 0.11636 0.08827 0.37883 0.0
C885 C 0.11799 0.08712 0.41791 0.0
C886 C 0.14196 0.11021 0.35777 0.0
C887 C 0.16983 0.13168 0.3753 0.0
C888 C 0.17299 0.12871 0.41336 0.0
C889 C 0.14712 0.10657 0.43463 0.0
H890 H 0.81885 0.13774 0.41732 0.0
H891 H 0.90876 0.18133 0.34198 0.0
H892 H 0.8515 0.12083 0.45315 0.0
H893 H 0.94128 0.16586 0.37932 0.0
H894 H 0.99221 0.14687 0.47152 0.0
H895 H 0.95717 0.17232 0.45185 0.0
H896 H 0.88345 0.07954 0.42418 0.0
H897 H 0.91872 0.05425 0.4426 0.0
C898 C 0.84553 0.14406 0.40857 0.0
C899 C 0.86096 0.16053 0.37622 0.0
C900 C 0.86421 0.13465 0.42942 0.0
C901 C 0.89882 0.14213 0.41897 0.0
C902 C 0.91466 0.1602 0.38827 0.0
C903 C 0.89593 0.1691 0.36692 0.0
C904 C 0.96817 0.13209 0.46203 0.0
C905 C 0.95814 0.09869 0.45822 0.0
C906 C 0.94828 0.14658 0.45068 0.0
C907 C 0.91771 0.12781 0.43653 0.0
C908 C 0.90678 0.09452 0.43527 0.0
C909 C 0.927 0.08008 0.4456 0.0
H910 H 0.87818 0.79805 0.33894 0.0
H911 H 0.85702 0.88023 0.3218 0.0
H912 H 0.9209 0.8322 0.37989 0.0
H913 H 0.89906 0.91437 0.3637 0.0
H914 H 1.00026 0.97209 0.40532 0.0
H915 H 0.95685 0.93728 0.36626 0.0
H916 H 0.93296 0.86408 0.44038 0.0
H917 H 0.97757 0.89897 0.4791 0.0
C918 C 0.8825 0.82343 0.34401 0.0
C919 C 0.86417 0.8363 0.32662 0.0
C920 C 0.90695 0.8431 0.3679 0.0
C921 C 0.91387 0.87633 0.37535 0.0
C922 C 0.89517 0.88909 0.35826 0.0
C923 C 0.87081 0.86942 0.33423 0.0
C924 C 0.98582 0.94859 0.41351 0.0
C925 C 0.99267 0.9385 0.44559 0.0
C926 C 0.96054 0.92856 0.39108 0.0
C927 C 0.94088 0.89766 0.39995 0.0
C928 C 0.94767 0.88749 0.43213 0.0
C929 C 0.97322 0.90759 0.45458 0.0
H930 H 0.14482 0.76282 0.41313 0.0
H931 H 0.15437 0.82611 0.3306 0.0
H932 H 0.14921 0.8072 0.46601 0.0
H933 H 0.15975 0.86999 0.38246 0.0
H934 H 0.17006 0.94761 0.46682 0.0
H935 H 0.19338 0.90593 0.43661 0.0
H936 H 0.10636 0.835 0.48785 0.0
H937 H 0.08291 0.87586 0.51657 0.0
C938 C 0.14787 0.78614 0.40638 0.0
C939 C 0.1488 0.79103 0.36798 0.0
C940 C 0.15113 0.81155 0.43636 0.0
C941 C 0.15569 0.84213 0.42814 0.0
C942 C 0.15738 0.84697 0.38958 0.0
C943 C 0.15371 0.82169 0.35994 0.0
C944 C 0.15679 0.92333 0.47303 0.0
C945 C 0.12436 0.91472 0.49299 0.0
C946 C 0.17015 0.89955 0.45594 0.0
C947 C 0.15117 0.86727 0.45918 0.0
C948 C 0.12147 0.85963 0.48474 0.0
C949 C 0.10789 0.88314 0.50101 0.0
H950 H 0.21331 0.86804 0.59885 0.0
H951 H 0.18137 0.89093 0.72016 0.0
H952 H 0.1724 0.88738 0.58095 0.0
H953 H 0.14109 0.91094 0.7022 0.0
H954 H 0.13708 0.99429 0.63681 0.0
H955 H 0.16255 0.96271 0.66047 0.0
H956 H 0.10152 0.87749 0.59562 0.0
H957 H 0.07395 0.90916 0.57356 0.0
C958 C 0.19721 0.87681 0.6216 0.0
C959 C 0.20057 0.87827 0.66086 0.0
C960 C 0.17366 0.88752 0.61138 0.0
C961 C 0.15359 0.90039 0.64026 0.0
C962 C 0.15613 0.90082 0.6795 0.0
C963 C 0.17917 0.88949 0.68972 0.0
C964 C 0.12853 0.96876 0.62788 0.0
C965 C 0.10425 0.95433 0.60202 0.0
C966 C 0.1431 0.9507 0.64166 0.0
C967 C 0.1342 0.91785 0.62951 0.0
C968 C 0.10893 0.90293 0.60507 0.0
C969 C 0.09346 0.92101 0.59219 0.0
H970 H 0.20299 0.25136 0.69357 0.0
H971 H 0.23459 0.1711 0.6905 0.0
H972 H 0.1572 0.21752 0.6563 0.0
H973 H 0.1904 0.13767 0.65155 0.0
H974 H 0.09286 0.07419 0.61048 0.0
H975 H 0.1354 0.10951 0.65011 0.0
H976 H 0.13731 0.18978 0.59877 0.0
H977 H 0.09263 0.15397 0.56059 0.0
C978 C 0.2003 0.22648 0.68471 0.0
C979 C 0.22234 0.21394 0.69559 0.0
C980 C 0.17404 0.20697 0.66293 0.0
C981 C 0.16928 0.17433 0.6507 0.0
C982 C 0.19202 0.16218 0.66107 0.0
C983 C 0.21778 0.18152 0.68338 0.0
C984 C 0.10216 0.09943 0.60772 0.0
C985 C 0.08921 0.11108 0.58208 0.0
C986 C 0.12711 0.11989 0.63033 0.0
C987 C 0.14092 0.1529 0.62762 0.0
C988 C 0.12748 0.16472 0.60234 0.0
C989 C 0.1018 0.14415 0.58018 0.0
H990 H 0.84445 0.06403 0.7434 0.0
H991 H 0.78781 0.10358 0.69115 0.0
H992 H 0.85289 0.03228 0.6822 0.0
H993 H 0.79817 0.07308 0.62914 0.0
H994 H 0.92223 0.11233 0.58213 0.0
H995 H 0.86825 0.10539 0.62146 0.0
H996 H 0.84538 1.0033 0.60534 0.0
H997 H 0.89897 1.01017 0.56439 0.0
C998 C 0.83187 0.06447 0.71968 0.0
C999 C 0.81751 0.08792 0.72118 0.0
C1000 C 0.83663 0.04606 0.68439 0.0
C1001 C 0.82782 0.05185 0.65075 0.0
C1002 C 0.80594 0.06894 0.65465 0.0
C1003 C 0.80038 0.0867 0.69018 0.0
C1004 C 0.90514 0.0884 0.58588 0.0
C1005 C 0.91476 0.06189 0.57103 0.0
C1006 C 0.87405 0.08429 0.60777 0.0
C1007 C 0.85262 0.05369 0.61603 0.0
C1008 C 0.86123 0.02695 0.59875 0.0
C1009 C 0.89196 0.03102 0.57578 0.0
H1010 H 0.82576 0.85616 0.67482 0.0
H1011 H 0.91054 0.83976 0.70415 0.0
H1012 H 0.86391 0.90183 0.64273 0.0
H1013 H 0.94833 0.88577 0.67313 0.0
H1014 H 0.95338 0.95698 0.5517 0.0
H1015 H 0.91045 0.91362 0.58392 0.0
H1016 H 0.96086 0.94602 0.68682 0.0
H1017 H 1.00334 0.98932 0.65524 0.0
C1018 C 0.85247 0.86228 0.67458 0.0
C1019 C 0.86499 0.84457 0.69287 0.0
C1020 C 0.87429 0.88843 0.6561 0.0
C1021 C 0.9091 0.89769 0.65589 0.0
C1022 C 0.9216 0.87963 0.67348 0.0
C1023 C 0.89988 0.85325 0.69134 0.0
C1024 C 0.95491 0.9553 0.5815 0.0
C1025 C 0.98207 0.97662 0.60069 0.0
C1026 C 0.93033 0.9304 0.5999 0.0
C1027 C 0.93261 0.9261 0.63767 0.0
C1028 C 0.95874 0.94836 0.65747 0.0
C1029 C 0.98299 0.97337 0.63936 0.0
H1030 H 0.40449 0.26247 0.1988 0.0
H1031 H 0.31283 0.18264 0.18682 0.0
H1032 H 0.43648 0.2293 0.16452 0.0
H1033 H 0.34476 0.14864 0.15394 0.0
H1034 H 0.40994 0.09632 0.07142 0.0
H1035 H 0.3761 0.12922 0.10301 0.0
H1036 H 0.45932 0.19211 0.16378 0.0
H1037 H 0.49301 0.16041 0.1307 0.0
C1038 C 0.39103 0.23765 0.18923 0.0
C1039 C 0.3558 0.22558 0.19605 0.0
C1040 C 0.40958 0.21818 0.16956 0.0
C1041 C 0.39389 0.18543 0.15628 0.0
C1042 C 0.35844 0.17348 0.1629 0.0
C1043 C 0.33986 0.19314 0.18218 0.0
C1044 C 0.4209 0.11714 0.09165 0.0
C1045 C 0.45449 0.12544 0.09821 0.0
C1046 C 0.40135 0.13623 0.11011 0.0
C1047 C 0.41443 0.1642 0.13633 0.0
C1048 C 0.44788 0.17175 0.1433 0.0
C1049 C 0.46744 0.15309 0.12442 0.0
H1050 H 0.85423 0.31483 0.14863 0.0
H1051 H 0.83716 0.38729 0.2391 0.0
H1052 H 0.89302 0.3559 0.11096 0.0
H1053 H 0.87546 0.42885 0.2005 0.0
H1054 H 0.98408 0.48524 0.13894 0.0
H1055 H 0.93642 0.45112 0.1785 0.0
H1056 H 0.89541 0.39655 0.07391 0.0
H1057 H 0.94331 0.43001 0.0349 0.0
C1058 C 0.85845 0.33959 0.16032 0.0
C1059 C 0.84248 0.3477 0.1969 0.0
C1060 C 0.88049 0.36325 0.13847 0.0
C1061 C 0.88722 0.39583 0.15243 0.0
C1062 C 0.87091 0.40403 0.18886 0.0
C1063 C 0.84867 0.38021 0.21079 0.0
C1064 C 0.96412 0.46675 0.12465 0.0
C1065 C 0.96711 0.46037 0.08396 0.0
C1066 C 0.93691 0.44704 0.14723 0.0
C1067 C 0.91236 0.42063 0.12939 0.0
C1068 C 0.91417 0.41616 0.08865 0.0
C1069 C 0.94134 0.43561 0.06626 0.0
H1070 H 0.67075 0.87188 0.17856 0.0
H1071 H 0.76334 0.89805 0.10177 0.0
H1072 H 0.64236 0.88295 0.13209 0.0
H1073 H 0.73462 0.90819 0.05437 0.0
H1074 H 0.68695 0.97939 0.02904 0.0
H1075 H 0.71484 0.95151 0.05559 0.0
H1076 H 0.62159 0.87281 0.06972 0.0
H1077 H 0.59343 0.90136 0.0433 0.0
C1078 C 0.6849 0.87939 0.15131 0.0
C1079 C 0.71949 0.88474 0.14425 0.0
C1080 C 0.66849 0.88536 0.12436 0.0
C1081 C 0.68621 0.89687 0.08955 0.0
C1082 C 0.72028 0.89984 0.08115 0.0
C1083 C 0.73672 0.89378 0.10817 0.0
C1084 C 0.67254 0.95575 0.03686 0.0
C1085 C 0.6379 0.94277 0.03463 0.0
C1086 C 0.68862 0.93959 0.0519 0.0
C1087 C 0.67045 0.91002 0.0654 0.0
C1088 C 0.63626 0.89578 0.06016 0.0
C1089 C 0.62015 0.91195 0.04469 0.0
H1090 H 0.25407 0.74492 0.1356 0.0
H1091 H 0.23278 0.67244 0.20999 0.0
H1092 H 0.20801 0.71008 0.09923 0.0
H1093 H 0.18671 0.63776 0.17384 0.0
H1094 H 0.12755 0.57208 0.07741 0.0
H1095 H 0.17645 0.60694 0.10892 0.0
H1096 H 0.14626 0.68793 0.10998 0.0
H1097 H 0.09761 0.65332 0.07816 0.0
C1098 C 0.23953 0.72157 0.14419 0.0
C1099 C 0.24711 0.7114 0.17557 0.0
C1100 C 0.21312 0.70166 0.12343 0.0
C1101 C 0.19376 0.6711 0.13356 0.0
C1102 C 0.20144 0.66095 0.16492 0.0
C1103 C 0.22774 0.6809 0.18577 0.0
C1104 C 0.13141 0.59735 0.08408 0.0
C1105 C 0.10838 0.60977 0.07549 0.0
C1106 C 0.15935 0.61729 0.10237 0.0
C1107 C 0.16511 0.65016 0.11221 0.0
C1108 C 0.14268 0.66275 0.10256 0.0
C1109 C 0.11464 0.64282 0.08451 0.0
H1110 H 0.35182 0.79593 0.87809 0.0
H1111 H 0.35689 0.87102 0.81553 0.0
H1112 H 0.3944 0.8339 0.91701 0.0
H1113 H 0.40054 0.90878 0.85292 0.0
H1114 H 0.46679 0.97582 0.9418 0.0
H1115 H 0.4178 0.93923 0.91182 0.0
H1116 H 0.45269 0.86095 0.90975 0.0
H1117 H 0.50093 0.89733 0.94096 0.0
C1118 C 0.3619 0.82065 0.87282 0.0
C1119 C 0.35161 0.83022 0.84288 0.0
C1120 C 0.38667 0.84243 0.89484 0.0
C1121 C 0.40181 0.87447 0.88767 0.0
C1122 C 0.38972 0.88443 0.85949 0.0
C1123 C 0.36473 0.86266 0.83771 0.0
C1124 C 0.46394 0.95076 0.93514 0.0
C1125 C 0.48799 0.93964 0.94388 0.0
C1126 C 0.43582 0.92971 0.91768 0.0
C1127 C 0.43096 0.8969 0.90815 0.0
C1128 C 0.45496 0.88582 0.91722 0.0
C1129 C 0.48292 0.90682 0.93495 0.0
H1130 H 0.28744 0.3757 0.81688 0.0
H1131 H 0.19916 0.29194 0.8277 0.0
H1132 H 0.25529 0.40933 0.85144 0.0
H1133 H 0.16729 0.32526 0.86305 0.0
H1134 H 0.10926 0.39372 0.88159 0.0
H1135 H 0.14378 0.36231 0.85095 0.0
H1136 H 0.22513 0.42629 0.91339 0.0
H1137 H 0.18992 0.45844 0.94465 0.0
C1138 C 0.26114 0.36434 0.8265 0.0
C1139 C 0.24599 0.33088 0.81863 0.0
C1140 C 0.24269 0.38374 0.84689 0.0
C1141 C 0.20829 0.37043 0.86008 0.0
C1142 C 0.19344 0.33683 0.85295 0.0
C1143 C 0.21189 0.3175 0.83276 0.0
C1144 C 0.13451 0.40148 0.88909 0.0
C1145 C 0.14646 0.4291 0.91591 0.0
C1146 C 0.15442 0.38301 0.87149 0.0
C1147 C 0.18749 0.39116 0.87958 0.0
C1148 C 0.19991 0.41907 0.90603 0.0
C1149 C 0.17965 0.43762 0.92411 0.0
H1150 H 0.69173 0.20096 0.77511 0.0
H1151 H 0.7535 0.22493 0.8672 0.0
H1152 H 0.64887 0.1605 0.80992 0.0
H1153 H 0.71264 0.18184 0.90038 0.0
H1154 H 0.62308 0.11614 0.96882 0.0
H1155 H 0.6655 0.15873 0.93642 0.0
H1156 H 0.62882 0.11171 0.82654 0.0
H1157 H 0.5844 0.07108 0.86031 0.0
C1158 C 0.69638 0.19724 0.80271 0.0
C1159 C 0.72666 0.21553 0.8177 0.0
C1160 C 0.67186 0.17338 0.82261 0.0
C1161 C 0.67698 0.16647 0.85797 0.0
C1162 C 0.70699 0.18586 0.87355 0.0
C1163 C 0.73104 0.2104 0.85409 0.0
C1164 C 0.62437 0.11489 0.93764 0.0
C1165 C 0.60044 0.09018 0.9171 0.0
C1166 C 0.64897 0.13943 0.91873 0.0
C1167 C 0.65114 0.13955 0.87832 0.0
C1168 C 0.62784 0.11372 0.85769 0.0
C1169 C 0.60249 0.08985 0.87692 0.0
H1170 H 0.93265 0.67344 0.82149 0.0
H1171 H 0.932 0.74874 0.91591 0.0
H1172 H 0.94446 0.64383 0.86455 0.0
H1173 H 0.94345 0.71859 0.95969 0.0
H1174 H 1.01301 0.6689 0.99737 0.0
H1175 H 0.99152 0.70114 0.96733 0.0
H1176 H 0.91708 0.6151 0.92071 0.0
H1177 H 0.93891 0.58322 0.94971 0.0
C1178 C 0.93489 0.68359 0.85159 0.0
C1179 C 0.93157 0.71346 0.86526 0.0
C1180 C 0.94131 0.66647 0.87642 0.0
C1181 C 0.94466 0.67876 0.91566 0.0
C1182 C 0.94105 0.70856 0.9296 0.0
C1183 C 0.93428 0.72566 0.90466 0.0
C1184 C 0.99148 0.65708 0.98161 0.0
C1185 C 0.97801 0.6236 0.97517 0.0
C1186 C 0.97917 0.67548 0.96441 0.0
C1187 C 0.95314 0.66056 0.94084 0.0
C1188 C 0.93772 0.62724 0.9378 0.0
C1189 C 0.95013 0.609 0.95457 0.0
H1190 H 0.20987 0.31801 0.01977 0.0
H1191 H 0.15016 0.31133 0.13192 0.0
H1192 H 0.1824 0.35206 1.00414 0.0
H1193 H 0.12322 0.34559 0.11657 0.0
H1194 H 0.11481 0.43827 0.09762 0.0
H1195 H 0.14099 0.40205 0.10823 0.0
H1196 H 0.12679 0.35294 0.99225 0.0
H1197 H 0.10024 0.38963 0.98133 0.0
C1198 C 0.19067 0.32351 0.04093 0.0
C1199 C 0.18246 0.3121 0.07726 0.0
C1200 C 0.17495 0.34303 0.03195 0.0
C1201 C 0.15082 0.35177 0.05923 0.0
C1202 C 0.14216 0.33982 0.09518 0.0
C1203 C 0.15772 0.32025 0.10406 0.0
C1204 C 0.11712 0.41981 0.0742 0.0
C1205 C 0.10515 0.41684 0.03862 0.0
C1206 C 0.13204 0.39887 0.08045 0.0
C1207 C 0.13563 0.37434 0.05131 0.0
C1208 C 0.1244 0.37163 0.0153 0.0
C1209 C 0.1091 0.39258 0.00909 0.0
H1210 H 0.27905 0.71229 0.87005 0.0
H1211 H 0.21296 0.67782 0.78105 0.0
H1212 H 0.24069 0.67064 0.90862 0.0
H1213 H 0.17433 0.63713 0.81964 0.0
H1214 H 0.11414 0.5561 0.88727 0.0
H1215 H 0.16332 0.58823 0.84739 0.0
H1216 H 0.18556 0.66221 0.94514 0.0
H1217 H 0.13701 0.63014 0.98443 0.0
C1218 C 0.25653 0.69563 0.85857 0.0
C1219 C 0.2487 0.69874 0.82289 0.0
C1220 C 0.23443 0.67187 0.8807 0.0
C1221 C 0.20422 0.65049 0.8674 0.0
C1222 C 0.19739 0.6528 0.83077 0.0
C1223 C 0.21932 0.67655 0.80887 0.0
C1224 C 0.13034 0.57869 0.90042 0.0
C1225 C 0.12191 0.5906 0.93891 0.0
C1226 C 0.15824 0.59733 0.87754 0.0
C1227 C 0.17833 0.62805 0.89289 0.0
C1228 C 0.17105 0.63868 0.9323 0.0
C1229 C 0.14314 0.62029 0.95487 0.0
H1230 H 0.4281 0.18073 0.83939 0.0
H1231 H 0.33933 0.16305 0.92289 0.0
H1232 H 0.45745 0.16924 0.8846 0.0
H1233 H 0.36898 0.15219 0.96862 0.0
H1234 H 0.41267 0.07379 0.9846 0.0
H1235 H 0.38533 0.10465 0.96253 0.0
H1236 H 0.48014 0.18144 0.94817 0.0
H1237 H 0.50762 0.15019 0.97056 0.0
C1238 C 0.4151 0.175 0.86775 0.0
C1239 C 0.38125 0.17215 0.87732 0.0
C1240 C 0.43205 0.16887 0.89389 0.0
C1241 C 0.41544 0.15959 0.9301 0.0
C1242 C 0.38232 0.15905 0.94079 0.0
C1243 C 0.36541 0.16537 0.91467 0.0
C1244 C 0.4275 0.09765 0.9778 0.0
C1245 C 0.46229 0.10942 0.9785 0.0
C1246 C 0.4118 0.11548 0.96545 0.0
C1247 C 0.43067 0.14532 0.95306 0.0
C1248 C 0.46507 0.15834 0.95713 0.0
C1249 C 0.48074 0.14058 0.97011 0.0
H1250 H 0.90972 0.32117 0.7897 0.0
H1251 H 0.82983 0.35455 0.8491 0.0
H1252 H 0.94771 0.35881 0.83317 0.0
H1253 H 0.86841 0.39248 0.89342 0.0
H1254 H 0.965 0.47759 0.93523 0.0
H1255 H 0.92117 0.44153 0.89587 0.0
H1256 H 0.95393 0.36341 0.90163 0.0
H1257 H 0.99756 0.39905 0.93998 0.0
C1258 C 0.90014 0.33649 0.81213 0.0
C1259 C 0.86649 0.33445 0.81612 0.0
C1260 C 0.922 0.35805 0.83726 0.0
C1261 C 0.91098 0.37828 0.86725 0.0
C1262 C 0.87763 0.37716 0.87063 0.0
C1263 C 0.85555 0.35538 0.84532 0.0
C1264 C 0.96251 0.45263 0.92844 0.0
C1265 C 0.98524 0.44138 0.9401 0.0
C1266 C 0.93738 0.43198 0.90598 0.0
C1267 C 0.93454 0.39976 0.89493 0.0
C1268 C 0.956 0.38827 0.9087 0.0
C1269 C 0.981 0.40876 0.93084 0.0
H1270 H 0.69434 0.79277 0.79346 0.0
H1271 H 0.7847 0.86783 0.82507 0.0
H1272 H 0.66159 0.82554 0.82697 0.0
H1273 H 0.752 0.89985 0.86134 0.0
H1274 H 0.68695 0.9638 0.90163 0.0
H1275 H 0.72122 0.93252 0.866 0.0
H1276 H 0.63737 0.84567 0.88259 0.0
H1277 H 0.60329 0.87688 0.91601 0.0
C1278 C 0.70737 0.81614 0.80801 0.0
C1279 C 0.74249 0.82701 0.80681 0.0
C1280 C 0.68835 0.83512 0.82792 0.0
C1281 C 0.70347 0.86583 0.84804 0.0
C1282 C 0.73876 0.87676 0.8464 0.0
C1283 C 0.75779 0.85792 0.82594 0.0
C1284 C 0.67584 0.93802 0.89753 0.0
C1285 C 0.64197 0.9232 0.91166 0.0
C1286 C 0.69568 0.91979 0.87711 0.0
C1287 C 0.68257 0.88594 0.87042 0.0
C1288 C 0.64881 0.87138 0.88552 0.0
C1289 C 0.62902 0.88953 0.90532 0.0
H1290 H 0.80281 0.674 0.20404 0.0
H1291 H 0.88977 0.75868 0.19192 0.0
H1292 H 0.83607 0.64098 0.17096 0.0
H1293 H 0.92264 0.72609 0.15778 0.0
H1294 H 0.98402 0.66076 0.13708 0.0
H1295 H 0.94864 0.6914 0.16782 0.0
H1296 H 0.86573 0.62238 0.11178 0.0
H1297 H 0.90168 0.59101 0.0809 0.0
C1298 C 0.82898 0.68574 0.19412 0.0
C1299 C 0.84328 0.71937 0.20083 0.0
C1300 C 0.84814 0.66665 0.17471 0.0
C1301 C 0.88251 0.68039 0.16145 0.0
C1302 C 0.89658 0.7141 0.16782 0.0
C1303 C 0.87745 0.73309 0.18713 0.0
C1304 C 0.95824 0.65177 0.13109 0.0
C1305 C 0.9461 0.623 0.10614 0.0
C1306 C 0.93777 0.66978 0.14871 0.0
C1307 C 0.90397 0.66005 0.14239 0.0
C1308 C 0.89145 0.63093 0.11786 0.0
C1309 C 0.91217 0.6128 0.09994 0.0
H1310 H 0.34242 0.8344 0.14632 0.0
H1311 H 0.40067 0.85668 0.24173 0.0
H1312 H 0.38537 0.87748 0.11438 0.0
H1313 H 0.44292 0.90063 0.211 0.0
H1314 H 0.53112 0.94892 0.12596 0.0
H1315 H 0.48597 0.91028 0.16092 0.0
H1316 H 0.41378 0.932 0.11071 0.0
H1317 H 0.45953 0.96988 0.07394 0.0
C1318 C 0.36416 0.84888 0.16079 0.0
C1319 C 0.36831 0.84187 0.19634 0.0
C1320 C 0.38884 0.87379 0.14255 0.0
C1321 C 0.41813 0.89265 0.15968 0.0
C1322 C 0.42139 0.88626 0.19612 0.0
C1323 C 0.39702 0.86108 0.21397 0.0
C1324 C 0.50565 0.94582 0.12256 0.0
C1325 C 0.49915 0.9627 0.09699 0.0
C1326 C 0.47951 0.92361 0.14296 0.0
C1327 C 0.44584 0.91774 0.139 0.0
C1328 C 0.43926 0.93531 0.1142 0.0
C1329 C 0.46556 0.95736 0.09333 0.0
H1330 H 0.73202 0.25611 0.15164 0.0
H1331 H 0.7345 0.17653 0.20035 0.0
H1332 H 0.69188 0.21919 0.10892 0.0
H1333 H 0.69354 0.13992 0.15938 0.0
H1334 H 0.63307 0.07649 0.06529 0.0
H1335 H 0.68006 0.11414 0.09795 0.0
H1336 H 0.63535 0.18718 0.11191 0.0
H1337 H 0.58943 0.15003 0.07775 0.0
C1338 C 0.72416 0.23073 0.15302 0.0
C1339 C 0.73644 0.21933 0.17946 0.0
C1340 C 0.70087 0.20951 0.12882 0.0
C1341 C 0.68899 0.17638 0.13077 0.0
C1342 C 0.70227 0.16507 0.1564 0.0
C1343 C 0.72581 0.1862 0.18015 0.0
C1344 C 0.63343 0.10066 0.07515 0.0
C1345 C 0.60739 0.11016 0.06897 0.0
C1346 C 0.66033 0.12229 0.0941 0.0
C1347 C 0.66168 0.15388 0.10789 0.0
C1348 C 0.63574 0.16337 0.10119 0.0
C1349 C 0.60913 0.1419 0.0818 0.0
H1350 H 0.68924 0.70193 0.79556 0.0
H1351 H 0.77578 0.68826 0.82431 0.0
H1352 H 0.6527 0.65681 0.82919 0.0
H1353 H 0.73889 0.64405 0.85961 0.0
H1354 H 0.60339 0.55175 0.85102 0.0
H1355 H 0.64409 0.5947 0.81733 0.0
H1356 H 0.69077 0.63679 0.92192 0.0
H1357 H 0.64917 0.59399 0.95658 0.0
C1358 C 0.70056 0.68915 0.80856 0.0
C1359 C 0.73559 0.69835 0.80619 0.0
C1360 C 0.67956 0.66344 0.82815 0.0
C1361 C 0.69297 0.64681 0.84682 0.0
C1362 C 0.72789 0.65646 0.8455 0.0
C1363 C 0.74896 0.68173 0.82513 0.0
C1364 C 0.62254 0.56978 0.86696 0.0
C1365 C 0.62279 0.56931 0.90675 0.0
C1366 C 0.64575 0.59455 0.84757 0.0
C1367 C 0.67034 0.61925 0.86707 0.0
C1368 C 0.67202 0.61801 0.90619 0.0
C1369 C 0.64828 0.59343 0.92596 0.0
H1370 H 0.40916 0.6337 0.78584 0.0
H1371 H 0.50803 0.69781 0.74988 0.0
H1372 H 0.43299 0.61096 0.82547 0.0
H1373 H 0.53212 0.67414 0.78928 0.0
H1374 H 0.5458 0.63615 0.90361 0.0
H1375 H 0.52894 0.6661 0.86442 0.0
H1376 H 0.47103 0.57738 0.80233 0.0
H1377 H 0.48717 0.54778 0.84086 0.0
C1378 C 0.43599 0.64314 0.78667 0.0
C1379 C 0.45674 0.66748 0.76466 0.0
C1380 C 0.44963 0.62999 0.80918 0.0
C1381 C 0.48436 0.6407 0.81012 0.0
C1382 C 0.50524 0.66561 0.78903 0.0
C1383 C 0.49151 0.67881 0.76623 0.0
C1384 C 0.52978 0.62317 0.88129 0.0
C1385 C 0.51719 0.58959 0.87601 0.0
C1386 C 0.52026 0.64027 0.85888 0.0
C1387 C 0.49822 0.6239 0.83098 0.0
C1388 C 0.48746 0.59052 0.82426 0.0
C1389 C 0.49682 0.5736 0.8464 0.0
H1390 H 0.36491 0.37627 0.81733 0.0
H1391 H 0.38181 0.29399 0.84178 0.0
H1392 H 0.40589 0.41083 0.85997 0.0
H1393 H 0.42358 0.32873 0.88401 0.0
H1394 H 0.47785 0.39942 0.98422 0.0
H1395 H 0.43479 0.36311 0.94409 0.0
H1396 H 0.46353 0.43266 0.86402 0.0
H1397 H 0.50538 0.46878 0.90417 0.0
C1398 C 0.37764 0.36549 0.83143 0.0
C1399 C 0.37017 0.33221 0.82545 0.0
C1400 C 0.40138 0.38544 0.856 0.0
C1401 C 0.41868 0.3729 0.8755 0.0
C1402 C 0.41079 0.33949 0.86998 0.0
C1403 C 0.38689 0.31948 0.84542 0.0
C1404 C 0.47492 0.40692 0.95806 0.0
C1405 C 0.49525 0.43726 0.94778 0.0
C1406 C 0.45025 0.38599 0.93482 0.0
C1407 C 0.44517 0.39477 0.9006 0.0
C1408 C 0.46583 0.42501 0.89037 0.0
C1409 C 0.49025 0.44582 0.91349 0.0
H1410 H 0.67632 0.29173 0.97475 0.0
H1411 H 0.73179 0.37502 0.91606 0.0
H1412 H 0.66133 0.32647 0.03049 0.0
H1413 H 0.71898 0.40847 0.97129 0.0
H1414 H 0.66929 0.46529 0.03562 0.0
H1415 H 0.70514 0.43399 0.03336 0.0
H1416 H 0.61951 0.34722 0.02055 0.0
H1417 H 0.58398 0.37829 0.02382 0.0
C1418 C 0.68614 0.31722 0.97374 0.0
C1419 C 0.70326 0.32995 0.93926 0.0
C1420 C 0.67809 0.33717 1.00615 0.0
C1421 C 0.68742 0.37007 1.00453 0.0
C1422 C 0.71056 0.38319 0.97353 0.0
C1423 C 0.71792 0.36342 0.94103 0.0
C1424 C 0.65812 0.43952 0.03314 0.0
C1425 C 0.6243 0.42408 0.02754 0.0
C1426 C 0.67854 0.42162 0.0324 0.0
C1427 C 0.66552 0.38809 0.02524 0.0
C1428 C 0.63069 0.37296 0.02567 0.0
C1429 C 0.6103 0.39082 0.02658 0.0
H1430 H 0.64994 0.38249 0.23481 0.0
H1431 H 0.72923 0.41033 0.14081 0.0
H1432 H 0.61332 0.39758 0.20245 0.0
H1433 H 0.693 0.42618 0.10944 0.0
H1434 H 0.64561 0.50458 0.12092 0.0
H1435 H 0.6736 0.47482 0.14328 0.0
H1436 H 0.58623 0.38973 0.13324 0.0
H1437 H 0.55758 0.41987 0.10976 0.0
C1438 C 0.65926 0.391 0.20681 0.0
C1439 C 0.69274 0.39593 0.19077 0.0
C1440 C 0.63824 0.3995 0.18829 0.0
C1441 C 0.65048 0.41316 0.15365 0.0
C1442 C 0.68303 0.41574 0.13618 0.0
C1443 C 0.70388 0.40706 0.15442 0.0
C1444 C 0.632 0.4796 0.12364 0.0
C1445 C 0.59923 0.46461 0.11376 0.0
C1446 C 0.64828 0.46249 0.13606 0.0
C1447 C 0.63218 0.42999 0.1395 0.0
C1448 C 0.5991 0.41483 0.13061 0.0
C1449 C 0.58278 0.432 0.11736 0.0
H1450 H 0.70759 0.75641 0.17647 0.0
H1451 H 0.7168 0.67301 0.20866 0.0
H1452 H 0.67034 0.723 0.12983 0.0
H1453 H 0.67641 0.6391 0.16542 0.0
H1454 H 0.62535 0.58182 0.06197 0.0
H1455 H 0.66462 0.61671 0.10602 0.0
H1456 H 0.62168 0.69013 0.11085 0.0
H1457 H 0.58457 0.65567 0.06377 0.0
C1458 C 0.70108 0.73078 0.17429 0.0
C1459 C 0.71551 0.71765 0.19668 0.0
C1460 C 0.67916 0.71131 0.14749 0.0
C1461 C 0.6698 0.67774 0.14286 0.0
C1462 C 0.68326 0.66464 0.16661 0.0
C1463 C 0.70608 0.68422 0.1925 0.0
C1464 C 0.62475 0.60566 0.07208 0.0
C1465 C 0.60199 0.61603 0.05911 0.0
C1466 C 0.64705 0.62575 0.09809 0.0
C1467 C 0.64664 0.65668 0.11332 0.0
C1468 C 0.62378 0.667 0.09985 0.0
C1469 C 0.60216 0.64715 0.07275 0.0
H1470 H 0.32525 0.62485 0.03102 0.0
H1471 H 0.37921 0.72635 0.03455 0.0
H1472 H 0.36586 0.61428 0.98062 0.0
H1473 H 0.42115 0.71542 0.98345 0.0
H1474 H 0.50201 0.67252 1.00126 0.0
H1475 H 0.46039 0.69639 1.00091 0.0
H1476 H 0.40577 0.61338 0.92656 0.0
H1477 H 0.4469 0.58875 0.92895 0.0
C1478 C 0.34491 0.6452 0.01989 0.0
C1479 C 0.34981 0.67646 0.03852 0.0
C1480 C 0.36855 0.63904 0.99039 0.0
C1481 C 0.39786 0.66394 0.97926 0.0
C1482 C 0.39952 0.6956 0.99263 0.0
C1483 C 0.37563 0.70183 0.02217 0.0
C1484 C 0.48151 0.6597 0.98413 0.0
C1485 C 0.47654 0.6282 0.96692 0.0
C1486 C 0.45778 0.67361 0.98331 0.0
C1487 C 0.42886 0.65626 0.96492 0.0
C1488 C 0.42705 0.62685 0.94226 0.0
C1489 C 0.45039 0.61262 0.94389 0.0
H1490 H 0.40995 0.35031 0.20594 0.0
H1491 H 0.32246 0.36226 0.17716 0.0
H1492 H 0.44573 0.39568 0.17234 0.0
H1493 H 0.35867 0.40666 0.14173 0.0
H1494 H 0.49133 0.50198 0.15458 0.0
H1495 H 0.45011 0.45845 0.18692 0.0
H1496 H 0.40971 0.41429 0.07898 0.0
H1497 H 0.45188 0.45762 0.04571 0.0
C1498 C 0.39825 0.36272 0.19288 0.0
C1499 C 0.3632 0.35316 0.19548 0.0
C1500 C 0.41881 0.38853 0.17329 0.0
C1501 C 0.4049 0.40481 0.15478 0.0
C1502 C 0.36999 0.39454 0.15585 0.0
C1503 C 0.34933 0.36915 0.17626 0.0
C1504 C 0.47341 0.48339 0.1376 0.0
C1505 C 0.47524 0.48333 0.09731 0.0
C1506 C 0.44991 0.45834 0.15623 0.0
C1507 C 0.42709 0.43287 0.13534 0.0
C1508 C 0.42713 0.4337 0.09569 0.0
C1509 C 0.45117 0.45859 0.07674 0.0
H1510 H 0.81286 0.674 0.67882 0.0
H1511 H 0.90448 0.75171 0.69979 0.0
H1512 H 0.84505 0.63967 0.64747 0.0
H1513 H 0.93668 0.71761 0.66899 0.0
H1514 H 0.98587 0.6418 0.64937 0.0
H1515 H 0.95268 0.67537 0.67671 0.0
H1516 H 0.88212 0.62496 0.59423 0.0
H1517 H 0.91551 0.59049 0.56709 0.0
C1518 C 0.8399 0.68396 0.67673 0.0
C1519 C 0.85574 0.71586 0.6928 0.0
C1520 C 0.85856 0.6641 0.65848 0.0
C1521 C 0.89392 0.67522 0.65569 0.0
C1522 C 0.90966 0.70738 0.6711 0.0
C1523 C 0.89102 0.72721 0.68907 0.0
C1524 C 0.96333 0.63764 0.63675 0.0
C1525 C 0.95372 0.61295 0.60575 0.0
C1526 C 0.94416 0.65735 0.65247 0.0
C1527 C 0.91433 0.65355 0.63798 0.0
C1528 C 0.90458 0.62881 0.60684 0.0
C1529 C 0.92392 0.60895 0.59099 0.0
H1530 H 0.37328 0.871 0.74925 0.0
H1531 H 0.36104 0.80947 0.64034 0.0
H1532 H 0.41325 0.91459 0.71604 0.0
H1533 H 0.40068 0.85351 0.60632 0.0
H1534 H 0.49243 0.93653 0.56143 0.0
H1535 H 0.45851 0.89018 0.595 0.0
H1536 H 0.41001 0.94886 0.67495 0.0
H1537 H 0.44404 0.99471 0.64273 0.0
C1538 C 0.37912 0.86688 0.7181 0.0
C1539 C 0.36402 0.83695 0.69741 0.0
C1540 C 0.402 0.89188 0.69894 0.0
C1541 C 0.40996 0.88781 0.65832 0.0
C1542 C 0.39539 0.8575 0.63761 0.0
C1543 C 0.3726 0.83231 0.65702 0.0
C1544 C 0.47475 0.93953 0.58644 0.0
C1545 C 0.4712 0.96953 0.59937 0.0
C1546 C 0.45513 0.91291 0.6055 0.0
C1547 C 0.43161 0.91575 0.6379 0.0
C1548 C 0.4283 0.94578 0.6507 0.0
C1549 C 0.44781 0.97219 0.6319 0.0
H1550 H 0.25505 0.3784 0.59621 0.0
H1551 H 0.17539 0.3784 0.68955 0.0
H1552 H 0.22376 0.38871 0.55222 0.0
H1553 H 0.14478 0.3901 0.6459 0.0
H1554 H 0.09129 0.40452 0.5562 0.0
H1555 H 0.11544 0.37486 0.58694 0.0
H1556 H 0.21472 0.43845 0.55148 0.0
H1557 H 0.19084 0.46754 0.52109 0.0
C1558 C 0.23057 0.37994 0.6072 0.0
C1559 C 0.21799 0.37815 0.6466 0.0
C1560 C 0.21274 0.38608 0.58202 0.0
C1561 C 0.18202 0.39068 0.59571 0.0
C1562 C 0.1683 0.38656 0.63438 0.0
C1563 C 0.1861 0.38034 0.65956 0.0
C1564 C 0.11826 0.41155 0.55433 0.0
C1565 C 0.13921 0.43852 0.53678 0.0
C1566 C 0.13206 0.39474 0.57204 0.0
C1567 C 0.16698 0.40439 0.57179 0.0
C1568 C 0.18778 0.4301 0.55189 0.0
C1569 C 0.17405 0.44701 0.53477 0.0
H1570 H 0.7868 0.19679 0.62324 0.0
H1571 H 0.70023 0.20358 0.70197 0.0
H1572 H 0.74985 0.15436 0.58102 0.0
H1573 H 0.66387 0.16133 0.661 0.0
H1574 H 0.67355 0.05413 0.54302 0.0
H1575 H 0.71335 0.0996 0.5778 0.0
H1576 H 0.64147 0.14842 0.60167 0.0
H1577 H 0.60136 0.10255 0.56825 0.0
C1578 C 0.75997 0.18939 0.6314 0.0
C1579 C 0.74654 0.2039 0.66576 0.0
C1580 C 0.73877 0.16494 0.60739 0.0
C1581 C 0.70371 0.15445 0.61731 0.0
C1582 C 0.69055 0.16917 0.65168 0.0
C1583 C 0.71157 0.19352 0.67538 0.0
C1584 C 0.66632 0.07466 0.55551 0.0
C1585 C 0.63403 0.07446 0.55328 0.0
C1586 C 0.68928 0.10088 0.57529 0.0
C1587 C 0.68064 0.1277 0.59304 0.0
C1588 C 0.64881 0.12794 0.58928 0.0
C1589 C 0.62578 0.10164 0.56992 0.0
H1590 H 0.87432 0.31762 0.34778 0.0
H1591 H 0.82512 0.38351 0.33987 0.0
H1592 H 0.91188 0.35862 0.38982 0.0
H1593 H 0.8629 0.42448 0.38171 0.0
H1594 H 0.99727 0.45224 0.42425 0.0
H1595 H 0.95824 0.40961 0.38523 0.0
H1596 H 0.87624 0.43762 0.44902 0.0
H1597 H 0.91526 0.48052 0.48778 0.0
C1598 C 0.87141 0.34079 0.355 0.0
C1599 C 0.84657 0.34715 0.34033 0.0
C1600 C 0.89312 0.36437 0.37899 0.0
C1601 C 0.89046 0.39487 0.38913 0.0
C1602 C 0.86539 0.40113 0.37487 0.0
C1603 C 0.84379 0.37762 0.3507 0.0
C1604 C 0.9709 0.44927 0.43009 0.0
C1605 C 0.95947 0.46995 0.45908 0.0
C1606 C 0.94849 0.42468 0.40783 0.0
C1607 C 0.9141 0.42025 0.41388 0.0
C1608 C 0.90261 0.44063 0.44326 0.0
C1609 C 0.92499 0.46511 0.46566 0.0
H1610 H 0.71072 0.82774 0.26662 0.0
H1611 H 0.74929 0.83507 0.37374 0.0
H1612 H 0.67809 0.86109 0.29895 0.0
H1613 H 0.71545 0.86733 0.40685 0.0
H1614 H 0.67215 0.9499 0.44836 0.0
H1615 H 0.70637 0.91701 0.41774 0.0
H1616 H 0.6312 0.86346 0.34155 0.0
H1617 H 0.59789 0.89646 0.37121 0.0
C1618 C 0.71208 0.83616 0.29726 0.0
C1619 C 0.73267 0.82811 0.31737 0.0
C1620 C 0.69294 0.85527 0.31615 0.0
C1621 C 0.69343 0.86716 0.35611 0.0
C1622 C 0.71424 0.85919 0.37617 0.0
C1623 C 0.73346 0.84012 0.35716 0.0
C1624 C 0.66295 0.93113 0.42504 0.0
C1625 C 0.63212 0.9264 0.41229 0.0
C1626 C 0.68259 0.91197 0.40744 0.0
C1627 C 0.67219 0.88738 0.37636 0.0
C1628 C 0.64098 0.8824 0.36444 0.0
C1629 C 0.6215 0.90141 0.38192 0.0
H1630 H 0.27415 0.69334 0.33769 0.0
H1631 H 0.20162 0.73795 0.33826 0.0
H1632 H 0.23164 0.65075 0.37053 0.0
H1633 H 0.15862 0.69539 0.37239 0.0
H1634 H 0.104 0.61661 0.46318 0.0
H1635 H 0.14289 0.66536 0.43676 0.0
H1636 H 0.18018 0.60761 0.34206 0.0
H1637 H 0.14174 0.55955 0.36747 0.0
C1638 C 0.24903 0.69396 0.3447 0.0
C1639 C 0.24091 0.71812 0.33358 0.0
C1640 C 0.22468 0.66971 0.36388 0.0
C1641 C 0.19149 0.66917 0.37309 0.0
C1642 C 0.18389 0.69495 0.36528 0.0
C1643 C 0.20846 0.71927 0.3457 0.0
C1644 C 0.12009 0.61435 0.43636 0.0
C1645 C 0.11978 0.58394 0.41779 0.0
C1646 C 0.14239 0.64229 0.42131 0.0
C1647 C 0.16504 0.64032 0.38773 0.0
C1648 C 0.16355 0.60999 0.36839 0.0
C1649 C 0.14126 0.58232 0.38302 0.0
H1650 H 0.43709 0.2327 0.3706 0.0
H1651 H 0.3983 0.25012 0.49113 0.0
H1652 H 0.45713 0.19346 0.38687 0.0
H1653 H 0.42009 0.21197 0.50734 0.0
H1654 H 0.49685 0.16308 0.5197 0.0
H1655 H 0.47908 0.20482 0.50448 0.0
H1656 H 0.42642 0.13856 0.41333 0.0
H1657 H 0.44346 0.09689 0.42895 0.0
C1658 C 0.4326 0.22818 0.40051 0.0
C1659 C 0.41564 0.24459 0.42937 0.0
C1660 C 0.44442 0.20584 0.40982 0.0
C1661 C 0.4402 0.19972 0.44833 0.0
C1662 C 0.424 0.2165 0.47745 0.0
C1663 C 0.41161 0.23846 0.46806 0.0
C1664 C 0.48175 0.15762 0.49621 0.0
C1665 C 0.47169 0.12683 0.47533 0.0
C1666 C 0.47138 0.18137 0.48773 0.0
C1667 C 0.45147 0.1749 0.45765 0.0
C1668 C 0.44197 0.14427 0.43644 0.0
C1669 C 0.45165 0.12042 0.44546 0.0
H1670 H 0.64325 0.76885 0.54826 0.0
H1671 H 0.7264 0.84852 0.59005 0.0
H1672 H 0.61811 0.80566 0.53524 0.0
H1673 H 0.70247 0.88543 0.57538 0.0
H1674 H 0.63864 0.94532 0.58539 0.0
H1675 H 0.66016 0.90604 0.59811 0.0
H1676 H 0.61944 0.84346 0.49714 0.0
H1677 H 0.5961 0.88244 0.48609 0.0
C1678 C 0.65634 0.7943 0.55415 0.0
C1679 C 0.68656 0.80586 0.57062 0.0
C1680 C 0.64203 0.81547 0.54654 0.0
C1681 C 0.65788 0.84872 0.55471 0.0
C1682 C 0.68882 0.86009 0.56984 0.0
C1683 C 0.70277 0.83895 0.57804 0.0
C1684 C 0.63391 0.92294 0.56627 0.0
C1685 C 0.61557 0.9168 0.53494 0.0
C1686 C 0.64664 0.9005 0.57321 0.0
C1687 C 0.6422 0.87159 0.54832 0.0
C1688 C 0.62315 0.86521 0.51727 0.0
C1689 C 0.60972 0.8875 0.51086 0.0
H1690 H 0.73695 0.23233 0.3839 0.0
H1691 H 0.71753 0.17748 0.27175 0.0
H1692 H 0.69501 0.18783 0.41544 0.0
H1693 H 0.67547 0.13375 0.30264 0.0
H1694 H 0.63908 0.04819 0.36808 0.0
H1695 H 0.67614 0.09475 0.33888 0.0
H1696 H 0.63505 0.15506 0.42628 0.0
H1697 H 0.59811 0.10793 0.45676 0.0
C1698 C 0.72351 0.21087 0.36608 0.0
C1699 C 0.73067 0.20818 0.32546 0.0
C1700 C 0.69939 0.18549 0.38404 0.0
C1701 C 0.68207 0.15702 0.3616 0.0
C1702 C 0.6888 0.15495 0.32092 0.0
C1703 C 0.71295 0.18004 0.30314 0.0
C1704 C 0.63756 0.07124 0.38114 0.0
C1705 C 0.61541 0.07413 0.41486 0.0
C1706 C 0.65882 0.09807 0.36414 0.0
C1707 C 0.65854 0.12873 0.38004 0.0
C1708 C 0.63611 0.1318 0.41348 0.0
C1709 C 0.61472 0.10476 0.43071 0.0
H1710 H 0.86797 0.72068 0.48453 0.0
H1711 H 0.8551 0.65799 0.37592 0.0
H1712 H 0.90629 0.6969 0.49891 0.0
H1713 H 0.89516 0.63638 0.38881 0.0
H1714 H 0.91827 0.56951 0.45064 0.0
H1715 H 0.8893 0.60031 0.43279 0.0
H1716 H 0.96039 0.68729 0.48302 0.0
H1717 H 0.98949 0.65573 0.50221 0.0
C1718 C 0.87353 0.70214 0.46351 0.0
C1719 C 0.85775 0.69089 0.42938 0.0
C1720 C 0.89599 0.68891 0.47148 0.0
C1721 C 0.90343 0.66436 0.4453 0.0
C1722 C 0.88945 0.65476 0.41005 0.0
C1723 C 0.86672 0.66757 0.40238 0.0
C1724 C 0.92806 0.59523 0.45783 0.0
C1725 C 0.95631 0.61014 0.47785 0.0
C1726 C 0.91151 0.613 0.44718 0.0
C1727 C 0.92269 0.64638 0.45597 0.0
C1728 C 0.95114 0.66158 0.47583 0.0
C1729 C 0.96793 0.64359 0.48655 0.0
H1730 H 0.32318 0.87145 0.33325 0.0
H1731 H 0.37387 0.81016 0.35251 0.0
H1732 H 0.35701 0.91474 0.37658 0.0
H1733 H 0.40729 0.85324 0.39631 0.0
H1734 H 0.49044 0.94749 0.42802 0.0
H1735 H 0.45239 0.90233 0.39157 0.0
H1736 H 0.37045 0.93569 0.44164 0.0
H1737 H 0.40896 0.98169 0.47757 0.0
C1738 C 0.34109 0.86695 0.34723 0.0
C1739 C 0.34594 0.83728 0.33896 0.0
C1740 C 0.36053 0.89186 0.37225 0.0
C1741 C 0.38527 0.88776 0.38977 0.0
C1742 C 0.38907 0.85762 0.38272 0.0
C1743 C 0.36975 0.83278 0.35765 0.0
C1744 C 0.4643 0.94527 0.4315 0.0
C1745 C 0.45293 0.96849 0.45573 0.0
C1746 C 0.44232 0.91908 0.41072 0.0
C1747 C 0.40818 0.91514 0.41357 0.0
C1748 C 0.39662 0.93808 0.43829 0.0
C1749 C 0.4187 0.9644 0.45912 0.0
H1750 H 0.28659 0.3781 0.33179 0.0
H1751 H 0.19556 0.30214 0.30377 0.0
H1752 H 0.25409 0.41172 0.36474 0.0
H1753 H 0.16304 0.33522 0.33708 0.0
H1754 H 0.11242 0.40959 0.36371 0.0
H1755 H 0.14621 0.37715 0.33411 0.0
H1756 H 0.21697 0.42601 0.41682 0.0
H1757 H 0.1831 0.45964 0.44595 0.0
C1758 C 0.25961 0.36829 0.33289 0.0
C1759 C 0.24406 0.33703 0.31468 0.0
C1760 C 0.24073 0.38775 0.35208 0.0
C1761 C 0.20542 0.37688 0.35379 0.0
C1762 C 0.19 0.34536 0.33604 0.0
C1763 C 0.20884 0.32601 0.31688 0.0
C1764 C 0.13514 0.41365 0.37592 0.0
C1765 C 0.14459 0.43765 0.40764 0.0
C1766 C 0.15468 0.39454 0.35888 0.0
C1767 C 0.18473 0.39814 0.37276 0.0
C1768 C 0.19437 0.42226 0.40458 0.0
C1769 C 0.17471 0.44162 0.42165 0.0
H1770 H 0.39907 0.25387 0.69013 0.0
H1771 H 0.31112 0.16945 0.69728 0.0
H1772 H 0.43174 0.22136 0.65439 0.0
H1773 H 0.34397 0.13667 0.66224 0.0
H1774 H 0.40818 0.08773 0.57039 0.0
H1775 H 0.37409 0.12088 0.60104 0.0
H1776 H 0.45613 0.18394 0.66305 0.0
H1777 H 0.48979 0.15127 0.63264 0.0
C1778 C 0.38657 0.22834 0.6842 0.0
C1779 C 0.35226 0.21455 0.69736 0.0
C1780 C 0.40551 0.20946 0.66375 0.0
C1781 C 0.39096 0.17592 0.65528 0.0
C1782 C 0.3564 0.16224 0.66768 0.0
C1783 C 0.33749 0.18115 0.68834 0.0
C1784 C 0.41903 0.10876 0.59038 0.0
C1785 C 0.45201 0.11641 0.59884 0.0
C1786 C 0.3993 0.12781 0.60831 0.0
C1787 C 0.41197 0.15549 0.63495 0.0
C1788 C 0.44519 0.16331 0.64259 0.0
C1789 C 0.46464 0.14421 0.62511 0.0
H1790 H 0.84744 0.31582 0.62592 0.0
H1791 H 0.90967 0.33508 0.71681 0.0
H1792 H 0.8875 0.36229 0.59673 0.0
H1793 H 0.94924 0.38222 0.68825 0.0
H1794 H 0.97231 0.4867 0.65419 0.0
H1795 H 0.9398 0.43618 0.67982 0.0
H1796 H 0.95239 0.38461 0.5661 0.0
H1797 H 0.98567 0.43506 0.5405 0.0
C1798 C 0.8701 0.32952 0.63911 0.0
C1799 C 0.8756 0.32146 0.67337 0.0
C1800 C 0.893 0.35619 0.62245 0.0
C1801 C 0.92151 0.37597 0.64022 0.0
C1802 C 0.9275 0.36744 0.67391 0.0
C1803 C 0.90503 0.34025 0.69001 0.0
C1804 C 0.96859 0.46458 0.63473 0.0
C1805 C 0.98181 0.46502 0.59529 0.0
C1806 C 0.95006 0.43564 0.64948 0.0
C1807 C 0.94359 0.40641 0.62501 0.0
C1808 C 0.95698 0.40675 0.58566 0.0
C1809 C 0.97621 0.43565 0.57108 0.0
H1810 H 0.25395 0.73315 0.63803 0.0
H1811 H 0.24607 0.66197 0.70881 0.0
H1812 H 0.21627 0.69188 0.59532 0.0
H1813 H 0.20759 0.62111 0.66689 0.0
H1814 H 0.10467 0.57724 0.61 0.0
H1815 H 0.1443 0.61887 0.64979 0.0
H1816 H 0.22016 0.63234 0.55076 0.0
H1817 H 0.18083 0.58983 0.51093 0.0
C1818 C 0.2442 0.70873 0.64441 0.0
C1819 C 0.25309 0.70072 0.67659 0.0
C1820 C 0.22278 0.68518 0.61996 0.0
C1821 C 0.20914 0.65342 0.62791 0.0
C1822 C 0.21785 0.64545 0.66018 0.0
C1823 C 0.23994 0.66879 0.684 0.0
C1824 C 0.12976 0.58911 0.59661 0.0
C1825 C 0.13965 0.58019 0.55732 0.0
C1826 C 0.15241 0.61281 0.61945 0.0
C1827 C 0.18518 0.62869 0.60328 0.0
C1828 C 0.19497 0.62042 0.56381 0.0
C1829 C 0.17253 0.59608 0.54114 0.0
loop_
_geom_bond_atom_site_label_1
_geom_bond_atom_site_label_2
_geom_bond_distance
_geom_bond_site_symmetry_2
_ccdc_geom_bond_type
C0 C2 1.422 . S
C0 C4 1.415 . S
C0 N6 1.369 . S
C1 C2 1.421 . S
C1 C3 1.417 . S
C1 C13 1.422 . S
C2 C0 1.422 . S
C2 C1 1.421 . S
C2 N12 1.359 . S
C3 C1 1.417 . S
C3 C5 1.329 . S
C3 H22 0.930 . S
C4 C0 1.415 . S
C4 C5 1.437 . S
C4 C8 1.413 . S
C5 C3 1.329 . S
C5 C4 1.437 . S
C5 H27 0.929 . S
N6 C0 1.369 . S
N6 C7 1.338 . S
N6 Gd11 2.622 . S
C7 N6 1.338 . S
C7 C9 1.378 . S
C7 H19 0.929 . S
C8 C4 1.413 . S
C8 C9 1.348 . S
C8 H24 0.931 . S
C9 C7 1.378 . S
C9 C8 1.348 . S
C9 H25 0.930 . S
Gd10 N30 2.622 . S
Gd10 N37 2.570 . S
Gd10 O44 2.353 . S
Gd10 O45 2.468 . S
Gd10 O46 2.427 . S
Gd10 O48 2.388 . S
Gd10 O49 2.386 . S
Gd10 O53 2.307 . S
Gd10 C63 2.805 . S
Gd11 N6 2.622 . S
Gd11 N12 2.570 . S
Gd11 O43 2.386 . S
Gd11 O47 2.307 . S
Gd11 O50 2.353 . S
Gd11 O51 2.468 . S
Gd11 O52 2.427 . S
Gd11 O54 2.388 . S
Gd11 C75 2.805 . S
N12 C2 1.359 . S
N12 Gd11 2.570 . S
N12 C14 1.343 . S
C13 C1 1.422 . S
C13 C15 1.321 . S
C13 H21 0.931 . S
C14 N12 1.343 . S
C14 C15 1.390 . S
C14 H16 0.931 . S
C15 C13 1.321 . S
C15 C14 1.390 . S
C15 H17 0.930 . S
H16 C14 0.931 . S
H17 C15 0.930 . S
H18 C41 0.931 . S
H19 C7 0.929 . S
H20 C42 0.930 . S
H21 C13 0.931 . S
H22 C3 0.930 . S
H23 C32 0.929 . S
H24 C8 0.931 . S
H25 C9 0.930 . S
H26 C64 0.930 . S
H27 C5 0.929 . S
H28 C33 0.931 . S
H29 C34 0.930 . S
N30 Gd10 2.622 . S
N30 C31 1.369 . S
N30 C32 1.338 . S
C31 N30 1.369 . S
C31 C35 1.415 . S
C31 C38 1.422 . S
C32 H23 0.929 . S
C32 N30 1.338 . S
C32 C34 1.378 . S
C33 H28 0.931 . S
C33 C34 1.348 . S
C33 C35 1.413 . S
C34 H29 0.930 . S
C34 C32 1.378 . S
C34 C33 1.348 . S
C35 C31 1.415 . S
C35 C33 1.413 . S
C35 C65 1.437 . S
H36 C65 0.929 . S
N37 Gd10 2.570 . S
N37 C38 1.359 . S
N37 C41 1.343 . S
C38 C31 1.422 . S
C38 N37 1.359 . S
C38 C40 1.421 . S
C39 C40 1.422 . S
C39 C42 1.321 . S
C39 H66 0.931 . S
C40 C38 1.421 . S
C40 C39 1.422 . S
C40 C64 1.417 . S
C41 H18 0.931 . S
C41 N37 1.343 . S
C41 C42 1.390 . S
C42 H20 0.930 . S
C42 C39 1.321 . S
C42 C41 1.390 . S
O43 Gd11 2.386 . S
O43 C55 1.265 . S
O44 Gd10 2.353 . S
O44 C55 1.242 . S
O45 Gd10 2.468 . S
O45 C63 1.263 . S
O46 Gd10 2.427 . S
O46 C63 1.252 . S
O47 Gd11 2.307 . S
O47 C56 1.261 . S
O48 Gd10 2.388 . S
O48 C56 1.252 . S
O49 Gd10 2.386 . S
O49 C67 1.265 . S
O50 Gd11 2.353 . S
O50 C67 1.242 . S
O51 Gd11 2.468 . S
O51 C75 1.263 . S
O52 Gd11 2.427 . S
O52 C75 1.252 . S
O53 Gd10 2.307 . S
O53 C68 1.261 . S
O54 Gd11 2.388 . S
O54 C68 1.252 . S
C55 O43 1.265 . S
C55 O44 1.242 . S
C56 O47 1.261 . S
C56 O48 1.252 . S
C57 C60 1.394 . S
C57 C62 1.370 . S
C57 C63 1.500 . S
C58 C61 1.383 . S
C58 C62 1.395 . S
C59 C60 1.396 . S
C59 C61 1.365 . S
C59 H76 0.929 . S
C60 C57 1.394 . S
C60 C59 1.396 . S
C60 H77 0.930 . S
C61 C58 1.383 . S
C61 C59 1.365 . S
C61 H78 0.931 . S
C62 C57 1.370 . S
C62 C58 1.395 . S
C62 H79 0.930 . S
C63 Gd10 2.805 . S
C63 O45 1.263 . S
C63 O46 1.252 . S
C63 C57 1.500 . S
C64 H26 0.930 . S
C64 C40 1.417 . S
C64 C65 1.329 . S
C65 C35 1.437 . S
C65 H36 0.929 . S
C65 C64 1.329 . S
H66 C39 0.931 . S
C67 O49 1.265 . S
C67 O50 1.242 . S
C68 O53 1.261 . S
C68 O54 1.252 . S
C69 C72 1.394 . S
C69 C74 1.370 . S
C69 C75 1.500 . S
C70 C73 1.383 . S
C70 C74 1.395 . S
C71 C72 1.396 . S
C71 C73 1.365 . S
C71 H80 0.929 . S
C72 C69 1.394 . S
C72 C71 1.396 . S
C72 H81 0.930 . S
C73 C70 1.383 . S
C73 C71 1.365 . S
C73 H82 0.931 . S
C74 C69 1.370 . S
C74 C70 1.395 . S
C74 H83 0.930 . S
C75 Gd11 2.805 . S
C75 O51 1.263 . S
C75 O52 1.252 . S
C75 C69 1.500 . S
H76 C59 0.929 . S
H77 C60 0.930 . S
H78 C61 0.931 . S
H79 C62 0.930 . S
H80 C71 0.929 . S
H81 C72 0.930 . S
H82 C73 0.931 . S
H83 C74 0.930 . S
C84 C86 1.422 . S
C84 C88 1.415 . S
C84 N90 1.369 . S
C85 C86 1.421 . S
C85 C87 1.417 . S
C85 C97 1.422 . S
C86 C84 1.422 . S
C86 C85 1.421 . S
C86 N96 1.359 . S
C87 C85 1.417 . S
C87 C89 1.329 . S
C87 H106 0.930 . S
C88 C84 1.415 . S
C88 C89 1.437 . S
C88 C92 1.413 . S
C89 C87 1.329 . S
C89 C88 1.437 . S
C89 H111 0.929 . S
N90 C84 1.369 . S
N90 C91 1.338 . S
N90 Gd95 2.622 . S
C91 N90 1.338 . S
C91 C93 1.378 . S
C91 H103 0.929 . S
C92 C88 1.413 . S
C92 C93 1.348 . S
C92 H108 0.931 . S
C93 C91 1.378 . S
C93 C92 1.348 . S
C93 H109 0.930 . S
Gd94 N114 2.622 . S
Gd94 N121 2.570 . S
Gd94 O128 2.353 . S
Gd94 O129 2.468 . S
Gd94 O130 2.427 . S
Gd94 O132 2.388 . S
Gd94 O133 2.386 . S
Gd94 O137 2.307 . S
Gd94 C147 2.805 . S
Gd95 N90 2.622 . S
Gd95 N96 2.570 . S
Gd95 O127 2.386 . S
Gd95 O131 2.307 . S
Gd95 O134 2.353 . S
Gd95 O135 2.468 . S
Gd95 O136 2.427 . S
Gd95 O138 2.388 . S
Gd95 C159 2.805 . S
N96 C86 1.359 . S
N96 Gd95 2.570 . S
N96 C98 1.343 . S
C97 C85 1.422 . S
C97 C99 1.321 . S
C97 H105 0.931 . S
C98 N96 1.343 . S
C98 C99 1.390 . S
C98 H100 0.931 . S
C99 C97 1.321 . S
C99 C98 1.390 . S
C99 H101 0.930 . S
H100 C98 0.931 . S
H101 C99 0.930 . S
H102 C125 0.931 . S
H103 C91 0.929 . S
H104 C126 0.930 . S
H105 C97 0.931 . S
H106 C87 0.930 . S
H107 C116 0.929 . S
H108 C92 0.931 . S
H109 C93 0.930 . S
H110 C148 0.930 . S
H111 C89 0.929 . S
H112 C117 0.931 . S
H113 C118 0.930 . S
N114 Gd94 2.622 . S
N114 C115 1.369 . S
N114 C116 1.338 . S
C115 N114 1.369 . S
C115 C119 1.415 . S
C115 C122 1.422 . S
C116 H107 0.929 . S
C116 N114 1.338 . S
C116 C118 1.378 . S
C117 H112 0.931 . S
C117 C118 1.348 . S
C117 C119 1.413 . S
C118 H113 0.930 . S
C118 C116 1.378 . S
C118 C117 1.348 . S
C119 C115 1.415 . S
C119 C117 1.413 . S
C119 C149 1.437 . S
H120 C149 0.929 . S
N121 Gd94 2.570 . S
N121 C122 1.359 . S
N121 C125 1.343 . S
C122 C115 1.422 . S
C122 N121 1.359 . S
C122 C124 1.421 . S
C123 C124 1.422 . S
C123 C126 1.321 . S
C123 H150 0.931 . S
C124 C122 1.421 . S
C124 C123 1.422 . S
C124 C148 1.417 . S
C125 H102 0.931 . S
C125 N121 1.343 . S
C125 C126 1.390 . S
C126 H104 0.930 . S
C126 C123 1.321 . S
C126 C125 1.390 . S
O127 Gd95 2.386 . S
O127 C139 1.265 . S
O128 Gd94 2.353 . S
O128 C139 1.242 . S
O129 Gd94 2.468 . S
O129 C147 1.263 . S
O130 Gd94 2.427 . S
O130 C147 1.252 . S
O131 Gd95 2.307 . S
O131 C140 1.261 . S
O132 Gd94 2.388 . S
O132 C140 1.252 . S
O133 Gd94 2.386 . S
O133 C151 1.265 . S
O134 Gd95 2.353 . S
O134 C151 1.242 . S
O135 Gd95 2.468 . S
O135 C159 1.263 . S
O136 Gd95 2.427 . S
O136 C159 1.252 . S
O137 Gd94 2.307 . S
O137 C152 1.261 . S
O138 Gd95 2.388 . S
O138 C152 1.252 . S
C139 O127 1.265 . S
C139 O128 1.242 . S
C140 O131 1.261 . S
C140 O132 1.252 . S
C141 C144 1.394 . S
C141 C146 1.370 . S
C141 C147 1.500 . S
C142 C145 1.383 . S
C142 C146 1.395 . S
C143 C144 1.396 . S
C143 C145 1.365 . S
C143 H160 0.929 . S
C144 C141 1.394 . S
C144 C143 1.396 . S
C144 H161 0.930 . S
C145 C142 1.383 . S
C145 C143 1.365 . S
C145 H162 0.931 . S
C146 C141 1.370 . S
C146 C142 1.395 . S
C146 H163 0.930 . S
C147 Gd94 2.805 . S
C147 O129 1.263 . S
C147 O130 1.252 . S
C147 C141 1.500 . S
C148 H110 0.930 . S
C148 C124 1.417 . S
C148 C149 1.329 . S
C149 C119 1.437 . S
C149 H120 0.929 . S
C149 C148 1.329 . S
H150 C123 0.931 . S
C151 O133 1.265 . S
C151 O134 1.242 . S
C152 O137 1.261 . S
C152 O138 1.252 . S
C153 C156 1.394 . S
C153 C158 1.370 . S
C153 C159 1.500 . S
C154 C157 1.383 . S
C154 C158 1.395 . S
C155 C156 1.396 . S
C155 C157 1.365 . S
C155 H164 0.929 . S
C156 C153 1.394 . S
C156 C155 1.396 . S
C156 H165 0.930 . S
C157 C154 1.383 . S
C157 C155 1.365 . S
C157 H166 0.931 . S
C158 C153 1.370 . S
C158 C154 1.395 . S
C158 H167 0.930 . S
C159 Gd95 2.805 . S
C159 O135 1.263 . S
C159 O136 1.252 . S
C159 C153 1.500 . S
H160 C143 0.929 . S
H161 C144 0.930 . S
H162 C145 0.931 . S
H163 C146 0.930 . S
H164 C155 0.929 . S
H165 C156 0.930 . S
H166 C157 0.931 . S
H167 C158 0.930 . S
C168 C170 1.422 . S
C168 C172 1.415 . S
C168 N174 1.369 . S
C169 C170 1.421 . S
C169 C171 1.417 . S
C169 C181 1.422 . S
C170 C168 1.422 . S
C170 C169 1.421 . S
C170 N180 1.359 . S
C171 C169 1.417 . S
C171 C173 1.329 . S
C171 H190 0.930 . S
C172 C168 1.415 . S
C172 C173 1.437 . S
C172 C176 1.413 . S
C173 C171 1.329 . S
C173 C172 1.437 . S
C173 H195 0.929 . S
N174 C168 1.369 . S
N174 C175 1.338 . S
N174 Gd179 2.622 . S
C175 N174 1.338 . S
C175 C177 1.378 . S
C175 H187 0.929 . S
C176 C172 1.413 . S
C176 C177 1.348 . S
C176 H192 0.931 . S
C177 C175 1.378 . S
C177 C176 1.348 . S
C177 H193 0.930 . S
Gd178 N198 2.622 . S
Gd178 N205 2.570 . S
Gd178 O212 2.353 . S
Gd178 O213 2.468 . S
Gd178 O214 2.427 . S
Gd178 O216 2.388 . S
Gd178 O217 2.386 . S
Gd178 O221 2.307 . S
Gd178 C231 2.805 . S
Gd179 N174 2.622 . S
Gd179 N180 2.570 . S
Gd179 O211 2.386 . S
Gd179 O215 2.307 . S
Gd179 O218 2.353 . S
Gd179 O219 2.468 . S
Gd179 O220 2.427 . S
Gd179 O222 2.388 . S
Gd179 C243 2.805 . S
N180 C170 1.359 . S
N180 Gd179 2.570 . S
N180 C182 1.343 . S
C181 C169 1.422 . S
C181 C183 1.321 . S
C181 H189 0.931 . S
C182 N180 1.343 . S
C182 C183 1.390 . S
C182 H184 0.931 . S
C183 C181 1.321 . S
C183 C182 1.390 . S
C183 H185 0.930 . S
H184 C182 0.931 . S
H185 C183 0.930 . S
H186 C209 0.931 . S
H187 C175 0.929 . S
H188 C210 0.930 . S
H189 C181 0.931 . S
H190 C171 0.930 . S
H191 C200 0.929 . S
H192 C176 0.931 . S
H193 C177 0.930 . S
H194 C232 0.930 . S
H195 C173 0.929 . S
H196 C201 0.931 . S
H197 C202 0.930 . S
N198 Gd178 2.622 . S
N198 C199 1.369 . S
N198 C200 1.338 . S
C199 N198 1.369 . S
C199 C203 1.415 . S
C199 C206 1.422 . S
C200 H191 0.929 . S
C200 N198 1.338 . S
C200 C202 1.378 . S
C201 H196 0.931 . S
C201 C202 1.348 . S
C201 C203 1.413 . S
C202 H197 0.930 . S
C202 C200 1.378 . S
C202 C201 1.348 . S
C203 C199 1.415 . S
C203 C201 1.413 . S
C203 C233 1.437 . S
H204 C233 0.929 . S
N205 Gd178 2.570 . S
N205 C206 1.359 . S
N205 C209 1.343 . S
C206 C199 1.422 . S
C206 N205 1.359 . S
C206 C208 1.421 . S
C207 C208 1.422 . S
C207 C210 1.321 . S
C207 H234 0.931 . S
C208 C206 1.421 . S
C208 C207 1.422 . S
C208 C232 1.417 . S
C209 H186 0.931 . S
C209 N205 1.343 . S
C209 C210 1.390 . S
C210 H188 0.930 . S
C210 C207 1.321 . S
C210 C209 1.390 . S
O211 Gd179 2.386 . S
O211 C223 1.265 . S
O212 Gd178 2.353 . S
O212 C223 1.242 . S
O213 Gd178 2.468 . S
O213 C231 1.263 . S
O214 Gd178 2.427 . S
O214 C231 1.252 . S
O215 Gd179 2.307 . S
O215 C224 1.261 . S
O216 Gd178 2.388 . S
O216 C224 1.252 . S
O217 Gd178 2.386 . S
O217 C235 1.265 . S
O218 Gd179 2.353 . S
O218 C235 1.242 . S
O219 Gd179 2.468 . S
O219 C243 1.263 . S
O220 Gd179 2.427 . S
O220 C243 1.252 . S
O221 Gd178 2.307 . S
O221 C236 1.261 . S
O222 Gd179 2.388 . S
O222 C236 1.252 . S
C223 O211 1.265 . S
C223 O212 1.242 . S
C224 O215 1.261 . S
C224 O216 1.252 . S
C225 C228 1.394 . S
C225 C230 1.370 . S
C225 C231 1.500 . S
C226 C229 1.383 . S
C226 C230 1.395 . S
C227 C228 1.396 . S
C227 C229 1.365 . S
C227 H244 0.929 . S
C228 C225 1.394 . S
C228 C227 1.396 . S
C228 H245 0.930 . S
C229 C226 1.383 . S
C229 C227 1.365 . S
C229 H246 0.931 . S
C230 C225 1.370 . S
C230 C226 1.395 . S
C230 H247 0.930 . S
C231 Gd178 2.805 . S
C231 O213 1.263 . S
C231 O214 1.252 . S
C231 C225 1.500 . S
C232 H194 0.930 . S
C232 C208 1.417 . S
C232 C233 1.329 . S
C233 C203 1.437 . S
C233 H204 0.929 . S
C233 C232 1.329 . S
H234 C207 0.931 . S
C235 O217 1.265 . S
C235 O218 1.242 . S
C236 O221 1.261 . S
C236 O222 1.252 . S
C237 C240 1.394 . S
C237 C242 1.370 . S
C237 C243 1.500 . S
C238 C241 1.383 . S
C238 C242 1.395 . S
C239 C240 1.396 . S
C239 C241 1.365 . S
C239 H248 0.929 . S
C240 C237 1.394 . S
C240 C239 1.396 . S
C240 H249 0.930 . S
C241 C238 1.383 . S
C241 C239 1.365 . S
C241 H250 0.931 . S
C242 C237 1.370 . S
C242 C238 1.395 . S
C242 H251 0.930 . S
C243 Gd179 2.805 . S
C243 O219 1.263 . S
C243 O220 1.252 . S
C243 C237 1.500 . S
H244 C227 0.929 . S
H245 C228 0.930 . S
H246 C229 0.931 . S
H247 C230 0.930 . S
H248 C239 0.929 . S
H249 C240 0.930 . S
H250 C241 0.931 . S
H251 C242 0.930 . S
C252 C254 1.422 . S
C252 C256 1.415 . S
C252 N258 1.369 . S
C253 C254 1.421 . S
C253 C255 1.417 . S
C253 C265 1.422 . S
C254 C252 1.422 . S
C254 C253 1.421 . S
C254 N264 1.359 . S
C255 C253 1.417 . S
C255 C257 1.329 . S
C255 H274 0.930 . S
C256 C252 1.415 . S
C256 C257 1.437 . S
C256 C260 1.413 . S
C257 C255 1.329 . S
C257 C256 1.437 . S
C257 H279 0.929 . S
N258 C252 1.369 . S
N258 C259 1.338 . S
N258 Gd263 2.622 . S
C259 N258 1.338 . S
C259 C261 1.378 . S
C259 H271 0.929 . S
C260 C256 1.413 . S
C260 C261 1.348 . S
C260 H276 0.931 . S
C261 C259 1.378 . S
C261 C260 1.348 . S
C261 H277 0.930 . S
Gd262 N282 2.622 . S
Gd262 N289 2.570 . S
Gd262 O296 2.353 . S
Gd262 O297 2.468 . S
Gd262 O298 2.427 . S
Gd262 O300 2.388 . S
Gd262 O301 2.386 . S
Gd262 O305 2.307 . S
Gd262 C315 2.805 . S
Gd263 N258 2.622 . S
Gd263 N264 2.570 . S
Gd263 O295 2.386 . S
Gd263 O299 2.307 . S
Gd263 O302 2.353 . S
Gd263 O303 2.468 . S
Gd263 O304 2.427 . S
Gd263 O306 2.388 . S
Gd263 C327 2.805 . S
N264 C254 1.359 . S
N264 Gd263 2.570 . S
N264 C266 1.343 . S
C265 C253 1.422 . S
C265 C267 1.321 . S
C265 H273 0.931 . S
C266 N264 1.343 . S
C266 C267 1.390 . S
C266 H268 0.931 . S
C267 C265 1.321 . S
C267 C266 1.390 . S
C267 H269 0.930 . S
H268 C266 0.931 . S
H269 C267 0.930 . S
H270 C293 0.931 . S
H271 C259 0.929 . S
H272 C294 0.930 . S
H273 C265 0.931 . S
H274 C255 0.930 . S
H275 C284 0.929 . S
H276 C260 0.931 . S
H277 C261 0.930 . S
H278 C316 0.930 . S
H279 C257 0.929 . S
H280 C285 0.931 . S
H281 C286 0.930 . S
N282 Gd262 2.622 . S
N282 C283 1.369 . S
N282 C284 1.338 . S
C283 N282 1.369 . S
C283 C287 1.415 . S
C283 C290 1.422 . S
C284 H275 0.929 . S
C284 N282 1.338 . S
C284 C286 1.378 . S
C285 H280 0.931 . S
C285 C286 1.348 . S
C285 C287 1.413 . S
C286 H281 0.930 . S
C286 C284 1.378 . S
C286 C285 1.348 . S
C287 C283 1.415 . S
C287 C285 1.413 . S
C287 C317 1.437 . S
H288 C317 0.929 . S
N289 Gd262 2.570 . S
N289 C290 1.359 . S
N289 C293 1.343 . S
C290 C283 1.422 . S
C290 N289 1.359 . S
C290 C292 1.421 . S
C291 C292 1.422 . S
C291 C294 1.321 . S
C291 H318 0.931 . S
C292 C290 1.421 . S
C292 C291 1.422 . S
C292 C316 1.417 . S
C293 H270 0.931 . S
C293 N289 1.343 . S
C293 C294 1.390 . S
C294 H272 0.930 . S
C294 C291 1.321 . S
C294 C293 1.390 . S
O295 Gd263 2.386 . S
O295 C307 1.265 . S
O296 Gd262 2.353 . S
O296 C307 1.242 . S
O297 Gd262 2.468 . S
O297 C315 1.263 . S
O298 Gd262 2.427 . S
O298 C315 1.252 . S
O299 Gd263 2.307 . S
O299 C308 1.261 . S
O300 Gd262 2.388 . S
O300 C308 1.252 . S
O301 Gd262 2.386 . S
O301 C319 1.265 . S
O302 Gd263 2.353 . S
O302 C319 1.242 . S
O303 Gd263 2.468 . S
O303 C327 1.263 . S
O304 Gd263 2.427 . S
O304 C327 1.252 . S
O305 Gd262 2.307 . S
O305 C320 1.261 . S
O306 Gd263 2.388 . S
O306 C320 1.252 . S
C307 O295 1.265 . S
C307 O296 1.242 . S
C308 O299 1.261 . S
C308 O300 1.252 . S
C309 C312 1.394 . S
C309 C314 1.370 . S
C309 C315 1.500 . S
C310 C313 1.383 . S
C310 C314 1.395 . S
C311 C312 1.396 . S
C311 C313 1.365 . S
C311 H328 0.929 . S
C312 C309 1.394 . S
C312 C311 1.396 . S
C312 H329 0.930 . S
C313 C310 1.383 . S
C313 C311 1.365 . S
C313 H330 0.931 . S
C314 C309 1.370 . S
C314 C310 1.395 . S
C314 H331 0.930 . S
C315 Gd262 2.805 . S
C315 O297 1.263 . S
C315 O298 1.252 . S
C315 C309 1.500 . S
C316 H278 0.930 . S
C316 C292 1.417 . S
C316 C317 1.329 . S
C317 C287 1.437 . S
C317 H288 0.929 . S
C317 C316 1.329 . S
H318 C291 0.931 . S
C319 O301 1.265 . S
C319 O302 1.242 . S
C320 O305 1.261 . S
C320 O306 1.252 . S
C321 C324 1.394 . S
C321 C326 1.370 . S
C321 C327 1.500 . S
C322 C325 1.383 . S
C322 C326 1.395 . S
C323 C324 1.396 . S
C323 C325 1.365 . S
C323 H332 0.929 . S
C324 C321 1.394 . S
C324 C323 1.396 . S
C324 H333 0.930 . S
C325 C322 1.383 . S
C325 C323 1.365 . S
C325 H334 0.931 . S
C326 C321 1.370 . S
C326 C322 1.395 . S
C326 H335 0.930 . S
C327 Gd263 2.805 . S
C327 O303 1.263 . S
C327 O304 1.252 . S
C327 C321 1.500 . S
H328 C311 0.929 . S
H329 C312 0.930 . S
H330 C313 0.931 . S
H331 C314 0.930 . S
H332 C323 0.929 . S
H333 C324 0.930 . S
H334 C325 0.931 . S
H335 C326 0.930 . S
C336 C338 1.422 . S
C336 C340 1.415 . S
C336 N342 1.369 . S
C337 C338 1.421 . S
C337 C339 1.417 . S
C337 C349 1.422 . S
C338 C336 1.422 . S
C338 C337 1.421 . S
C338 N348 1.359 . S
C339 C337 1.417 . S
C339 C341 1.329 . S
C339 H358 0.930 . S
C340 C336 1.415 . S
C340 C341 1.437 . S
C340 C344 1.413 . S
C341 C339 1.329 . S
C341 C340 1.437 . S
C341 H363 0.929 . S
N342 C336 1.369 . S
N342 C343 1.338 . S
N342 Gd347 2.622 . S
C343 N342 1.338 . S
C343 C345 1.378 . S
C343 H355 0.929 . S
C344 C340 1.413 . S
C344 C345 1.348 . S
C344 H360 0.931 . S
C345 C343 1.378 . S
C345 C344 1.348 . S
C345 H361 0.930 . S
Gd346 N366 2.622 . S
Gd346 N373 2.570 . S
Gd346 O380 2.353 . S
Gd346 O381 2.468 . S
Gd346 O382 2.427 . S
Gd346 O384 2.388 . S
Gd346 O385 2.386 . S
Gd346 O389 2.307 . S
Gd346 C399 2.805 . S
Gd347 N342 2.622 . S
Gd347 N348 2.570 . S
Gd347 O379 2.386 . S
Gd347 O383 2.307 . S
Gd347 O386 2.353 . S
Gd347 O387 2.468 . S
Gd347 O388 2.427 . S
Gd347 O390 2.388 . S
Gd347 C411 2.805 . S
N348 C338 1.359 . S
N348 Gd347 2.570 . S
N348 C350 1.343 . S
C349 C337 1.422 . S
C349 C351 1.321 . S
C349 H357 0.931 . S
C350 N348 1.343 . S
C350 C351 1.390 . S
C350 H352 0.931 . S
C351 C349 1.321 . S
C351 C350 1.390 . S
C351 H353 0.930 . S
H352 C350 0.931 . S
H353 C351 0.930 . S
H354 C377 0.931 . S
H355 C343 0.929 . S
H356 C378 0.930 . S
H357 C349 0.931 . S
H358 C339 0.930 . S
H359 C368 0.929 . S
H360 C344 0.931 . S
H361 C345 0.930 . S
H362 C400 0.930 . S
H363 C341 0.929 . S
H364 C369 0.931 . S
H365 C370 0.930 . S
N366 Gd346 2.622 . S
N366 C367 1.369 . S
N366 C368 1.338 . S
C367 N366 1.369 . S
C367 C371 1.415 . S
C367 C374 1.422 . S
C368 H359 0.929 . S
C368 N366 1.338 . S
C368 C370 1.378 . S
C369 H364 0.931 . S
C369 C370 1.348 . S
C369 C371 1.413 . S
C370 H365 0.930 . S
C370 C368 1.378 . S
C370 C369 1.348 . S
C371 C367 1.415 . S
C371 C369 1.413 . S
C371 C401 1.437 . S
H372 C401 0.929 . S
N373 Gd346 2.570 . S
N373 C374 1.359 . S
N373 C377 1.343 . S
C374 C367 1.422 . S
C374 N373 1.359 . S
C374 C376 1.421 . S
C375 C376 1.422 . S
C375 C378 1.321 . S
C375 H402 0.931 . S
C376 C374 1.421 . S
C376 C375 1.422 . S
C376 C400 1.417 . S
C377 H354 0.931 . S
C377 N373 1.343 . S
C377 C378 1.390 . S
C378 H356 0.930 . S
C378 C375 1.321 . S
C378 C377 1.390 . S
O379 Gd347 2.386 . S
O379 C391 1.265 . S
O380 Gd346 2.353 . S
O380 C391 1.242 . S
O381 Gd346 2.468 . S
O381 C399 1.263 . S
O382 Gd346 2.427 . S
O382 C399 1.252 . S
O383 Gd347 2.307 . S
O383 C392 1.261 . S
O384 Gd346 2.388 . S
O384 C392 1.252 . S
O385 Gd346 2.386 . S
O385 C403 1.265 . S
O386 Gd347 2.353 . S
O386 C403 1.242 . S
O387 Gd347 2.468 . S
O387 C411 1.263 . S
O388 Gd347 2.427 . S
O388 C411 1.252 . S
O389 Gd346 2.307 . S
O389 C404 1.261 . S
O390 Gd347 2.388 . S
O390 C404 1.252 . S
C391 O379 1.265 . S
C391 O380 1.242 . S
C392 O383 1.261 . S
C392 O384 1.252 . S
C393 C396 1.394 . S
C393 C398 1.370 . S
C393 C399 1.500 . S
C394 C397 1.383 . S
C394 C398 1.395 . S
C395 C396 1.396 . S
C395 C397 1.365 . S
C395 H412 0.929 . S
C396 C393 1.394 . S
C396 C395 1.396 . S
C396 H413 0.930 . S
C397 C394 1.383 . S
C397 C395 1.365 . S
C397 H414 0.931 . S
C398 C393 1.370 . S
C398 C394 1.395 . S
C398 H415 0.930 . S
C399 Gd346 2.805 . S
C399 O381 1.263 . S
C399 O382 1.252 . S
C399 C393 1.500 . S
C400 H362 0.930 . S
C400 C376 1.417 . S
C400 C401 1.329 . S
C401 C371 1.437 . S
C401 H372 0.929 . S
C401 C400 1.329 . S
H402 C375 0.931 . S
C403 O385 1.265 . S
C403 O386 1.242 . S
C404 O389 1.261 . S
C404 O390 1.252 . S
C405 C408 1.394 . S
C405 C410 1.370 . S
C405 C411 1.500 . S
C406 C409 1.383 . S
C406 C410 1.395 . S
C407 C408 1.396 . S
C407 C409 1.365 . S
C407 H416 0.929 . S
C408 C405 1.394 . S
C408 C407 1.396 . S
C408 H417 0.930 . S
C409 C406 1.383 . S
C409 C407 1.365 . S
C409 H418 0.931 . S
C410 C405 1.370 . S
C410 C406 1.395 . S
C410 H419 0.930 . S
C411 Gd347 2.805 . S
C411 O387 1.263 . S
C411 O388 1.252 . S
C411 C405 1.500 . S
H412 C395 0.929 . S
H413 C396 0.930 . S
H414 C397 0.931 . S
H415 C398 0.930 . S
H416 C407 0.929 . S
H417 C408 0.930 . S
H418 C409 0.931 . S
H419 C410 0.930 . S
C420 C422 1.422 . S
C420 C424 1.415 . S
C420 N426 1.369 . S
C421 C422 1.421 . S
C421 C423 1.417 . S
C421 C433 1.422 . S
C422 C420 1.422 . S
C422 C421 1.421 . S
C422 N432 1.359 . S
C423 C421 1.417 . S
C423 C425 1.329 . S
C423 H442 0.930 . S
C424 C420 1.415 . S
C424 C425 1.437 . S
C424 C428 1.413 . S
C425 C423 1.329 . S
C425 C424 1.437 . S
C425 H447 0.929 . S
N426 C420 1.369 . S
N426 C427 1.338 . S
N426 Gd431 2.622 . S
C427 N426 1.338 . S
C427 C429 1.378 . S
C427 H439 0.929 . S
C428 C424 1.413 . S
C428 C429 1.348 . S
C428 H444 0.931 . S
C429 C427 1.378 . S
C429 C428 1.348 . S
C429 H445 0.930 . S
Gd430 N450 2.622 . S
Gd430 N457 2.570 . S
Gd430 O464 2.353 . S
Gd430 O465 2.468 . S
Gd430 O466 2.427 . S
Gd430 O468 2.388 . S
Gd430 O469 2.386 . S
Gd430 O473 2.307 . S
Gd430 C483 2.805 . S
Gd431 N426 2.622 . S
Gd431 N432 2.570 . S
Gd431 O463 2.386 . S
Gd431 O467 2.307 . S
Gd431 O470 2.353 . S
Gd431 O471 2.468 . S
Gd431 O472 2.427 . S
Gd431 O474 2.388 . S
Gd431 C495 2.805 . S
N432 C422 1.359 . S
N432 Gd431 2.570 . S
N432 C434 1.343 . S
C433 C421 1.422 . S
C433 C435 1.321 . S
C433 H441 0.931 . S
C434 N432 1.343 . S
C434 C435 1.390 . S
C434 H436 0.931 . S
C435 C433 1.321 . S
C435 C434 1.390 . S
C435 H437 0.930 . S
H436 C434 0.931 . S
H437 C435 0.930 . S
H438 C461 0.931 . S
H439 C427 0.929 . S
H440 C462 0.930 . S
H441 C433 0.931 . S
H442 C423 0.930 . S
H443 C452 0.929 . S
H444 C428 0.931 . S
H445 C429 0.930 . S
H446 C484 0.930 . S
H447 C425 0.929 . S
H448 C453 0.931 . S
H449 C454 0.930 . S
N450 Gd430 2.622 . S
N450 C451 1.369 . S
N450 C452 1.338 . S
C451 N450 1.369 . S
C451 C455 1.415 . S
C451 C458 1.422 . S
C452 H443 0.929 . S
C452 N450 1.338 . S
C452 C454 1.378 . S
C453 H448 0.931 . S
C453 C454 1.348 . S
C453 C455 1.413 . S
C454 H449 0.930 . S
C454 C452 1.378 . S
C454 C453 1.348 . S
C455 C451 1.415 . S
C455 C453 1.413 . S
C455 C485 1.437 . S
H456 C485 0.929 . S
N457 Gd430 2.570 . S
N457 C458 1.359 . S
N457 C461 1.343 . S
C458 C451 1.422 . S
C458 N457 1.359 . S
C458 C460 1.421 . S
C459 C460 1.422 . S
C459 C462 1.321 . S
C459 H486 0.931 . S
C460 C458 1.421 . S
C460 C459 1.422 . S
C460 C484 1.417 . S
C461 H438 0.931 . S
C461 N457 1.343 . S
C461 C462 1.390 . S
C462 H440 0.930 . S
C462 C459 1.321 . S
C462 C461 1.390 . S
O463 Gd431 2.386 . S
O463 C475 1.265 . S
O464 Gd430 2.353 . S
O464 C475 1.242 . S
O465 Gd430 2.468 . S
O465 C483 1.263 . S
O466 Gd430 2.427 . S
O466 C483 1.252 . S
O467 Gd431 2.307 . S
O467 C476 1.261 . S
O468 Gd430 2.388 . S
O468 C476 1.252 . S
O469 Gd430 2.386 . S
O469 C487 1.265 . S
O470 Gd431 2.353 . S
O470 C487 1.242 . S
O471 Gd431 2.468 . S
O471 C495 1.263 . S
O472 Gd431 2.427 . S
O472 C495 1.252 . S
O473 Gd430 2.307 . S
O473 C488 1.261 . S
O474 Gd431 2.388 . S
O474 C488 1.252 . S
C475 O463 1.265 . S
C475 O464 1.242 . S
C476 O467 1.261 . S
C476 O468 1.252 . S
C477 C480 1.394 . S
C477 C482 1.370 . S
C477 C483 1.500 . S
C478 C481 1.383 . S
C478 C482 1.395 . S
C479 C480 1.396 . S
C479 C481 1.365 . S
C479 H496 0.929 . S
C480 C477 1.394 . S
C480 C479 1.396 . S
C480 H497 0.930 . S
C481 C478 1.383 . S
C481 C479 1.365 . S
C481 H498 0.931 . S
C482 C477 1.370 . S
C482 C478 1.395 . S
C482 H499 0.930 . S
C483 Gd430 2.805 . S
C483 O465 1.263 . S
C483 O466 1.252 . S
C483 C477 1.500 . S
C484 H446 0.930 . S
C484 C460 1.417 . S
C484 C485 1.329 . S
C485 C455 1.437 . S
C485 H456 0.929 . S
C485 C484 1.329 . S
H486 C459 0.931 . S
C487 O469 1.265 . S
C487 O470 1.242 . S
C488 O473 1.261 . S
C488 O474 1.252 . S
C489 C492 1.394 . S
C489 C494 1.370 . S
C489 C495 1.500 . S
C490 C493 1.383 . S
C490 C494 1.395 . S
C491 C492 1.396 . S
C491 C493 1.365 . S
C491 H500 0.929 . S
C492 C489 1.394 . S
C492 C491 1.396 . S
C492 H501 0.930 . S
C493 C490 1.383 . S
C493 C491 1.365 . S
C493 H502 0.931 . S
C494 C489 1.370 . S
C494 C490 1.395 . S
C494 H503 0.930 . S
C495 Gd431 2.805 . S
C495 O471 1.263 . S
C495 O472 1.252 . S
C495 C489 1.500 . S
H496 C479 0.929 . S
H497 C480 0.930 . S
H498 C481 0.931 . S
H499 C482 0.930 . S
H500 C491 0.929 . S
H501 C492 0.930 . S
H502 C493 0.931 . S
H503 C494 0.930 . S
C504 C506 1.422 . S
C504 C508 1.415 . S
C504 N510 1.369 . S
C505 C506 1.421 . S
C505 C507 1.417 . S
C505 C517 1.422 . S
C506 C504 1.422 . S
C506 C505 1.421 . S
C506 N516 1.359 . S
C507 C505 1.417 . S
C507 C509 1.329 . S
C507 H526 0.930 . S
C508 C504 1.415 . S
C508 C509 1.437 . S
C508 C512 1.413 . S
C509 C507 1.329 . S
C509 C508 1.437 . S
C509 H531 0.929 . S
N510 C504 1.369 . S
N510 C511 1.338 . S
N510 Gd515 2.622 . S
C511 N510 1.338 . S
C511 C513 1.378 . S
C511 H523 0.929 . S
C512 C508 1.413 . S
C512 C513 1.348 . S
C512 H528 0.931 . S
C513 C511 1.378 . S
C513 C512 1.348 . S
C513 H529 0.930 . S
Gd514 N534 2.622 . S
Gd514 N541 2.570 . S
Gd514 O548 2.353 . S
Gd514 O549 2.468 . S
Gd514 O550 2.427 . S
Gd514 O552 2.388 . S
Gd514 O553 2.386 . S
Gd514 O557 2.307 . S
Gd514 C567 2.805 . S
Gd515 N510 2.622 . S
Gd515 N516 2.570 . S
Gd515 O547 2.386 . S
Gd515 O551 2.307 . S
Gd515 O554 2.353 . S
Gd515 O555 2.468 . S
Gd515 O556 2.427 . S
Gd515 O558 2.388 . S
Gd515 C579 2.805 . S
N516 C506 1.359 . S
N516 Gd515 2.570 . S
N516 C518 1.343 . S
C517 C505 1.422 . S
C517 C519 1.321 . S
C517 H525 0.931 . S
C518 N516 1.343 . S
C518 C519 1.390 . S
C518 H520 0.931 . S
C519 C517 1.321 . S
C519 C518 1.390 . S
C519 H521 0.930 . S
H520 C518 0.931 . S
H521 C519 0.930 . S
H522 C545 0.931 . S
H523 C511 0.929 . S
H524 C546 0.930 . S
H525 C517 0.931 . S
H526 C507 0.930 . S
H527 C536 0.929 . S
H528 C512 0.931 . S
H529 C513 0.930 . S
H530 C568 0.930 . S
H531 C509 0.929 . S
H532 C537 0.931 . S
H533 C538 0.930 . S
N534 Gd514 2.622 . S
N534 C535 1.369 . S
N534 C536 1.338 . S
C535 N534 1.369 . S
C535 C539 1.415 . S
C535 C542 1.422 . S
C536 H527 0.929 . S
C536 N534 1.338 . S
C536 C538 1.378 . S
C537 H532 0.931 . S
C537 C538 1.348 . S
C537 C539 1.413 . S
C538 H533 0.930 . S
C538 C536 1.378 . S
C538 C537 1.348 . S
C539 C535 1.415 . S
C539 C537 1.413 . S
C539 C569 1.437 . S
H540 C569 0.929 . S
N541 Gd514 2.570 . S
N541 C542 1.359 . S
N541 C545 1.343 . S
C542 C535 1.422 . S
C542 N541 1.359 . S
C542 C544 1.421 . S
C543 C544 1.422 . S
C543 C546 1.321 . S
C543 H570 0.931 . S
C544 C542 1.421 . S
C544 C543 1.422 . S
C544 C568 1.417 . S
C545 H522 0.931 . S
C545 N541 1.343 . S
C545 C546 1.390 . S
C546 H524 0.930 . S
C546 C543 1.321 . S
C546 C545 1.390 . S
O547 Gd515 2.386 . S
O547 C559 1.265 . S
O548 Gd514 2.353 . S
O548 C559 1.242 . S
O549 Gd514 2.468 . S
O549 C567 1.263 . S
O550 Gd514 2.427 . S
O550 C567 1.252 . S
O551 Gd515 2.307 . S
O551 C560 1.261 . S
O552 Gd514 2.388 . S
O552 C560 1.252 . S
O553 Gd514 2.386 . S
O553 C571 1.265 . S
O554 Gd515 2.353 . S
O554 C571 1.242 . S
O555 Gd515 2.468 . S
O555 C579 1.263 . S
O556 Gd515 2.427 . S
O556 C579 1.252 . S
O557 Gd514 2.307 . S
O557 C572 1.261 . S
O558 Gd515 2.388 . S
O558 C572 1.252 . S
C559 O547 1.265 . S
C559 O548 1.242 . S
C560 O551 1.261 . S
C560 O552 1.252 . S
C561 C564 1.394 . S
C561 C566 1.370 . S
C561 C567 1.500 . S
C562 C565 1.383 . S
C562 C566 1.395 . S
C563 C564 1.396 . S
C563 C565 1.365 . S
C563 H580 0.929 . S
C564 C561 1.394 . S
C564 C563 1.396 . S
C564 H581 0.930 . S
C565 C562 1.383 . S
C565 C563 1.365 . S
C565 H582 0.931 . S
C566 C561 1.370 . S
C566 C562 1.395 . S
C566 H583 0.930 . S
C567 Gd514 2.805 . S
C567 O549 1.263 . S
C567 O550 1.252 . S
C567 C561 1.500 . S
C568 H530 0.930 . S
C568 C544 1.417 . S
C568 C569 1.329 . S
C569 C539 1.437 . S
C569 H540 0.929 . S
C569 C568 1.329 . S
H570 C543 0.931 . S
C571 O553 1.265 . S
C571 O554 1.242 . S
C572 O557 1.261 . S
C572 O558 1.252 . S
C573 C576 1.394 . S
C573 C578 1.370 . S
C573 C579 1.500 . S
C574 C577 1.383 . S
C574 C578 1.395 . S
C575 C576 1.396 . S
C575 C577 1.365 . S
C575 H584 0.929 . S
C576 C573 1.394 . S
C576 C575 1.396 . S
C576 H585 0.930 . S
C577 C574 1.383 . S
C577 C575 1.365 . S
C577 H586 0.931 . S
C578 C573 1.370 . S
C578 C574 1.395 . S
C578 H587 0.930 . S
C579 Gd515 2.805 . S
C579 O555 1.263 . S
C579 O556 1.252 . S
C579 C573 1.500 . S
H580 C563 0.929 . S
H581 C564 0.930 . S
H582 C565 0.931 . S
H583 C566 0.930 . S
H584 C575 0.929 . S
H585 C576 0.930 . S
H586 C577 0.931 . S
H587 C578 0.930 . S
C588 C590 1.422 . S
C588 C592 1.415 . S
C588 N594 1.369 . S
C589 C590 1.421 . S
C589 C591 1.417 . S
C589 C601 1.422 . S
C590 C588 1.422 . S
C590 C589 1.421 . S
C590 N600 1.359 . S
C591 C589 1.417 . S
C591 C593 1.329 . S
C591 H610 0.930 . S
C592 C588 1.415 . S
C592 C593 1.437 . S
C592 C596 1.413 . S
C593 C591 1.329 . S
C593 C592 1.437 . S
C593 H615 0.929 . S
N594 C588 1.369 . S
N594 C595 1.338 . S
N594 Gd599 2.622 . S
C595 N594 1.338 . S
C595 C597 1.378 . S
C595 H607 0.929 . S
C596 C592 1.413 . S
C596 C597 1.348 . S
C596 H612 0.931 . S
C597 C595 1.378 . S
C597 C596 1.348 . S
C597 H613 0.930 . S
Gd598 N618 2.622 . S
Gd598 N625 2.570 . S
Gd598 O632 2.353 . S
Gd598 O633 2.468 . S
Gd598 O634 2.427 . S
Gd598 O636 2.388 . S
Gd598 O637 2.386 . S
Gd598 O641 2.307 . S
Gd598 C651 2.805 . S
Gd599 N594 2.622 . S
Gd599 N600 2.570 . S
Gd599 O631 2.386 . S
Gd599 O635 2.307 . S
Gd599 O638 2.353 . S
Gd599 O639 2.468 . S
Gd599 O640 2.427 . S
Gd599 O642 2.388 . S
Gd599 C663 2.805 . S
N600 C590 1.359 . S
N600 Gd599 2.570 . S
N600 C602 1.343 . S
C601 C589 1.422 . S
C601 C603 1.321 . S
C601 H609 0.931 . S
C602 N600 1.343 . S
C602 C603 1.390 . S
C602 H604 0.931 . S
C603 C601 1.321 . S
C603 C602 1.390 . S
C603 H605 0.930 . S
H604 C602 0.931 . S
H605 C603 0.930 . S
H606 C629 0.931 . S
H607 C595 0.929 . S
H608 C630 0.930 . S
H609 C601 0.931 . S
H610 C591 0.930 . S
H611 C620 0.929 . S
H612 C596 0.931 . S
H613 C597 0.930 . S
H614 C652 0.930 . S
H615 C593 0.929 . S
H616 C621 0.931 . S
H617 C622 0.930 . S
N618 Gd598 2.622 . S
N618 C619 1.369 . S
N618 C620 1.338 . S
C619 N618 1.369 . S
C619 C623 1.415 . S
C619 C626 1.422 . S
C620 H611 0.929 . S
C620 N618 1.338 . S
C620 C622 1.378 . S
C621 H616 0.931 . S
C621 C622 1.348 . S
C621 C623 1.413 . S
C622 H617 0.930 . S
C622 C620 1.378 . S
C622 C621 1.348 . S
C623 C619 1.415 . S
C623 C621 1.413 . S
C623 C653 1.437 . S
H624 C653 0.929 . S
N625 Gd598 2.570 . S
N625 C626 1.359 . S
N625 C629 1.343 . S
C626 C619 1.422 . S
C626 N625 1.359 . S
C626 C628 1.421 . S
C627 C628 1.422 . S
C627 C630 1.321 . S
C627 H654 0.931 . S
C628 C626 1.421 . S
C628 C627 1.422 . S
C628 C652 1.417 . S
C629 H606 0.931 . S
C629 N625 1.343 . S
C629 C630 1.390 . S
C630 H608 0.930 . S
C630 C627 1.321 . S
C630 C629 1.390 . S
O631 Gd599 2.386 . S
O631 C643 1.265 . S
O632 Gd598 2.353 . S
O632 C643 1.242 . S
O633 Gd598 2.468 . S
O633 C651 1.263 . S
O634 Gd598 2.427 . S
O634 C651 1.252 . S
O635 Gd599 2.307 . S
O635 C644 1.261 . S
O636 Gd598 2.388 . S
O636 C644 1.252 . S
O637 Gd598 2.386 . S
O637 C655 1.265 . S
O638 Gd599 2.353 . S
O638 C655 1.242 . S
O639 Gd599 2.468 . S
O639 C663 1.263 . S
O640 Gd599 2.427 . S
O640 C663 1.252 . S
O641 Gd598 2.307 . S
O641 C656 1.261 . S
O642 Gd599 2.388 . S
O642 C656 1.252 . S
C643 O631 1.265 . S
C643 O632 1.242 . S
C644 O635 1.261 . S
C644 O636 1.252 . S
C645 C648 1.394 . S
C645 C650 1.370 . S
C645 C651 1.500 . S
C646 C649 1.383 . S
C646 C650 1.395 . S
C647 C648 1.396 . S
C647 C649 1.365 . S
C647 H664 0.929 . S
C648 C645 1.394 . S
C648 C647 1.396 . S
C648 H665 0.930 . S
C649 C646 1.383 . S
C649 C647 1.365 . S
C649 H666 0.931 . S
C650 C645 1.370 . S
C650 C646 1.395 . S
C650 H667 0.930 . S
C651 Gd598 2.805 . S
C651 O633 1.263 . S
C651 O634 1.252 . S
C651 C645 1.500 . S
C652 H614 0.930 . S
C652 C628 1.417 . S
C652 C653 1.329 . S
C653 C623 1.437 . S
C653 H624 0.929 . S
C653 C652 1.329 . S
H654 C627 0.931 . S
C655 O637 1.265 . S
C655 O638 1.242 . S
C656 O641 1.261 . S
C656 O642 1.252 . S
C657 C660 1.394 . S
C657 C662 1.370 . S
C657 C663 1.500 . S
C658 C661 1.383 . S
C658 C662 1.395 . S
C659 C660 1.396 . S
C659 C661 1.365 . S
C659 H668 0.929 . S
C660 C657 1.394 . S
C660 C659 1.396 . S
C660 H669 0.930 . S
C661 C658 1.383 . S
C661 C659 1.365 . S
C661 H670 0.931 . S
C662 C657 1.370 . S
C662 C658 1.395 . S
C662 H671 0.930 . S
C663 Gd599 2.805 . S
C663 O639 1.263 . S
C663 O640 1.252 . S
C663 C657 1.500 . S
H664 C647 0.929 . S
H665 C648 0.930 . S
H666 C649 0.931 . S
H667 C650 0.930 . S
H668 C659 0.929 . S
H669 C660 0.930 . S
H670 C661 0.931 . S
H671 C662 0.930 . S
Co672 O675 2.042 . S
Co672 O682 2.264 . S
Co672 O701 2.286 . S
Co672 O702 2.069 . S
Co672 O704 2.015 1_455 S
Co673 O675 2.122 . S
Co673 O681 2.073 . S
Co673 O682 2.327 . S
Co673 O683 1.976 1_455 S
Co674 O675 2.094 1_545 S
Co674 O677 2.080 1_455 S
Co674 O684 2.107 1_445 S
Co674 O685 2.147 . S
Co674 O689 2.115 . S
Co674 O703 2.140 1_445 S
O675 Co672 2.042 . S
O675 Co673 2.122 . S
O675 Co674 2.094 1_565 S
O675 H676 0.980 . S
H676 O675 0.980 . S
O677 Co674 2.080 1_655 S
O677 Co678 2.042 . S
O677 Co679 2.122 . S
O677 H680 0.980 . S
Co678 O677 2.042 . S
Co678 O686 2.286 . S
Co678 O687 2.069 . S
Co678 O688 2.015 1_655 S
Co678 O691 2.264 . S
Co679 O677 2.122 . S
Co679 O690 1.976 1_655 S
Co679 O691 2.327 . S
Co679 O692 2.073 . S
H680 O677 0.980 . S
O681 Co673 2.073 . S
O681 C696 1.245 . S
O682 Co672 2.264 . S
O682 Co673 2.327 . S
O682 C696 1.257 . S
O683 Co673 1.976 1_655 S
O683 C695 1.251 . S
O684 Co674 2.107 1_665 S
O684 C695 1.274 . S
O685 Co674 2.147 . S
O685 C698 1.246 . S
O686 Co678 2.286 . S
O686 C697 1.259 . S
O687 Co678 2.069 . S
O687 C697 1.289 . S
O688 Co678 2.015 1_455 S
O688 C698 1.257 . S
O689 Co674 2.115 . S
O689 C699 1.274 . S
O690 Co679 1.976 1_455 S
O690 C699 1.251 . S
O691 Co678 2.264 . S
O691 Co679 2.327 . S
O691 C700 1.257 . S
O692 Co679 2.073 . S
O692 C700 1.245 . S
C693 O701 1.259 . S
C693 O702 1.289 . S
C694 O703 1.246 . S
C694 O704 1.257 . S
C695 O683 1.251 . S
C695 O684 1.274 . S
C696 O681 1.245 . S
C696 O682 1.257 . S
C697 O686 1.259 . S
C697 O687 1.289 . S
C698 O685 1.246 . S
C698 O688 1.257 . S
C699 O689 1.274 . S
C699 O690 1.251 . S
C700 O691 1.257 . S
C700 O692 1.245 . S
O701 Co672 2.286 . S
O701 C693 1.259 . S
O702 Co672 2.069 . S
O702 C693 1.289 . S
O703 Co674 2.140 1_665 S
O703 C694 1.246 . S
O704 Co672 2.015 1_655 S
O704 C694 1.257 . S
Co705 O708 2.042 1_556 S
Co705 O715 2.264 1_556 S
Co705 O734 2.286 . S
Co705 O735 2.069 . S
Co705 O737 2.015 . S
Co706 O708 2.122 . S
Co706 O714 2.073 . S
Co706 O715 2.327 . S
Co706 O716 1.976 . S
Co707 O708 2.087 1_545 S
Co707 O710 2.087 1_554 S
Co707 O717 2.111 1_545 S
Co707 O718 2.143 . S
Co707 O722 2.111 1_554 S
Co707 O736 2.143 1_544 S
O708 Co705 2.042 1_554 S
O708 Co706 2.122 . S
O708 Co707 2.087 1_565 S
O708 H709 0.980 . S
H709 O708 0.980 . S
O710 Co707 2.087 1_556 S
O710 Co711 2.042 1_556 S
O710 Co712 2.122 . S
O710 H713 0.980 . S
Co711 O710 2.042 1_554 S
Co711 O719 2.286 . S
Co711 O720 2.069 . S
Co711 O721 2.015 . S
Co711 O724 2.264 1_554 S
Co712 O710 2.122 . S
Co712 O723 1.976 . S
Co712 O724 2.327 . S
Co712 O725 2.073 . S
H713 O710 0.980 . S
O714 Co706 2.073 . S
O714 C729 1.245 . S
O715 Co705 2.264 1_554 S
O715 Co706 2.327 . S
O715 C729 1.257 . S
O716 Co706 1.976 . S
O716 C728 1.251 . S
O717 Co707 2.111 1_565 S
O717 C728 1.274 . S
O718 Co707 2.143 . S
O718 C731 1.246 . S
O719 Co711 2.286 . S
O719 C730 1.259 . S
O720 Co711 2.069 . S
O720 C730 1.289 . S
O721 Co711 2.015 . S
O721 C731 1.257 . S
O722 Co707 2.111 1_556 S
O722 C732 1.274 . S
O723 Co712 1.976 . S
O723 C732 1.251 . S
O724 Co711 2.264 1_556 S
O724 Co712 2.327 . S
O724 C733 1.257 . S
O725 Co712 2.073 . S
O725 C733 1.245 . S
C726 O734 1.259 . S
C726 O735 1.289 . S
C727 O736 1.246 . S
C727 O737 1.257 . S
C728 O716 1.251 . S
C728 O717 1.274 . S
C729 O714 1.245 . S
C729 O715 1.257 . S
C730 O719 1.259 . S
C730 O720 1.289 . S
C731 O718 1.246 . S
C731 O721 1.257 . S
C732 O722 1.274 . S
C732 O723 1.251 . S
C733 O724 1.257 . S
C733 O725 1.245 . S
O734 Co705 2.286 . S
O734 C726 1.259 . S
O735 Co705 2.069 . S
O735 C726 1.289 . S
O736 Co707 2.143 1_566 S
O736 C727 1.246 . S
O737 Co705 2.015 . S
O737 C727 1.257 . S
Co738 O741 2.042 1_556 S
Co738 O748 2.264 1_556 S
Co738 O767 2.286 . S
Co738 O768 2.069 . S
Co738 O770 2.015 1_455 S
Co739 O741 2.122 . S
Co739 O747 2.073 . S
Co739 O748 2.327 . S
Co739 O749 1.976 1_455 S
Co740 O741 2.094 . S
Co740 O743 2.080 1_454 S
Co740 O750 2.107 1_455 S
Co740 O751 2.146 . S
Co740 O755 2.115 1_554 S
Co740 O769 2.141 1_454 S
O741 Co738 2.042 1_554 S
O741 Co739 2.122 . S
O741 Co740 2.094 . S
O741 H742 0.980 . S
H742 O741 0.980 . S
O743 Co740 2.080 1_656 S
O743 Co744 2.042 1_556 S
O743 Co745 2.122 . S
O743 H746 0.980 . S
Co744 O743 2.042 1_554 S
Co744 O752 2.286 . S
Co744 O753 2.069 . S
Co744 O754 2.015 1_655 S
Co744 O757 2.264 1_554 S
Co745 O743 2.122 . S
Co745 O756 1.976 1_655 S
Co745 O757 2.327 . S
Co745 O758 2.073 . S
H746 O743 0.980 . S
O747 Co739 2.073 . S
O747 C762 1.245 . S
O748 Co738 2.264 1_554 S
O748 Co739 2.327 . S
O748 C762 1.257 . S
O749 Co739 1.976 1_655 S
O749 C761 1.251 . S
O750 Co740 2.107 1_655 S
O750 C761 1.274 . S
O751 Co740 2.146 . S
O751 C764 1.246 . S
O752 Co744 2.286 . S
O752 C763 1.259 . S
O753 Co744 2.069 . S
O753 C763 1.289 . S
O754 Co744 2.015 1_455 S
O754 C764 1.257 . S
O755 Co740 2.115 1_556 S
O755 C765 1.274 . S
O756 Co745 1.976 1_455 S
O756 C765 1.251 . S
O757 Co744 2.264 1_556 S
O757 Co745 2.327 . S
O757 C766 1.257 . S
O758 Co745 2.073 . S
O758 C766 1.245 . S
C759 O767 1.259 . S
C759 O768 1.289 . S
C760 O769 1.246 . S
C760 O770 1.257 . S
C761 O749 1.251 . S
C761 O750 1.274 . S
C762 O747 1.245 . S
C762 O748 1.257 . S
C763 O752 1.259 . S
C763 O753 1.289 . S
C764 O751 1.246 . S
C764 O754 1.257 . S
C765 O755 1.274 . S
C765 O756 1.251 . S
C766 O757 1.257 . S
C766 O758 1.245 . S
O767 Co738 2.286 . S
O767 C759 1.259 . S
O768 Co738 2.069 . S
O768 C759 1.289 . S
O769 Co740 2.141 1_656 S
O769 C760 1.246 . S
O770 Co738 2.015 1_655 S
O770 C760 1.257 . S
Co771 O774 2.042 1_556 S
Co771 O781 2.264 1_556 S
Co771 O800 2.286 . S
Co771 O801 2.069 . S
Co771 O803 2.015 . S
Co772 O774 2.122 . S
Co772 O780 2.073 . S
Co772 O781 2.327 . S
Co772 O782 1.976 . S
Co773 O774 2.087 . S
Co773 O776 2.087 1_554 S
Co773 O783 2.111 . S
Co773 O784 2.143 . S
Co773 O788 2.111 1_554 S
Co773 O802 2.143 1_554 S
O774 Co771 2.042 1_554 S
O774 Co772 2.122 . S
O774 Co773 2.087 . S
O774 H775 0.980 . S
H775 O774 0.980 . S
O776 Co773 2.087 1_556 S
O776 Co777 2.042 1_556 S
O776 Co778 2.122 . S
O776 H779 0.980 . S
Co777 O776 2.042 1_554 S
Co777 O785 2.286 . S
Co777 O786 2.069 . S
Co777 O787 2.015 . S
Co777 O790 2.264 1_554 S
Co778 O776 2.122 . S
Co778 O789 1.976 . S
Co778 O790 2.327 . S
Co778 O791 2.073 . S
H779 O776 0.980 . S
O780 Co772 2.073 . S
O780 C795 1.245 . S
O781 Co771 2.264 1_554 S
O781 Co772 2.327 . S
O781 C795 1.257 . S
O782 Co772 1.976 . S
O782 C794 1.251 . S
O783 Co773 2.111 . S
O783 C794 1.274 . S
O784 Co773 2.143 . S
O784 C797 1.246 . S
O785 Co777 2.286 . S
O785 C796 1.259 . S
O786 Co777 2.069 . S
O786 C796 1.289 . S
O787 Co777 2.015 . S
O787 C797 1.257 . S
O788 Co773 2.111 1_556 S
O788 C798 1.274 . S
O789 Co778 1.976 . S
O789 C798 1.251 . S
O790 Co777 2.264 1_556 S
O790 Co778 2.327 . S
O790 C799 1.257 . S
O791 Co778 2.073 . S
O791 C799 1.245 . S
C792 O800 1.259 . S
C792 O801 1.289 . S
C793 O802 1.246 . S
C793 O803 1.257 . S
C794 O782 1.251 . S
C794 O783 1.274 . S
C795 O780 1.245 . S
C795 O781 1.257 . S
C796 O785 1.259 . S
C796 O786 1.289 . S
C797 O784 1.246 . S
C797 O787 1.257 . S
C798 O788 1.274 . S
C798 O789 1.251 . S
C799 O790 1.257 . S
C799 O791 1.245 . S
O800 Co771 2.286 . S
O800 C792 1.259 . S
O801 Co771 2.069 . S
O801 C792 1.289 . S
O802 Co773 2.143 1_556 S
O802 C793 1.246 . S
O803 Co771 2.015 . S
O803 C793 1.257 . S
Co804 O807 2.042 . S
Co804 O814 2.264 . S
Co804 O833 2.286 . S
Co804 O834 2.069 . S
Co804 O836 2.015 . S
Co805 O807 2.122 . S
Co805 O813 2.073 . S
Co805 O814 2.327 . S
Co805 O815 1.976 . S
Co806 O807 2.094 . S
Co806 O809 2.080 1_455 S
Co806 O816 2.113 . S
Co806 O817 2.139 1_455 S
Co806 O821 2.110 1_455 S
Co806 O835 2.148 . S
O807 Co804 2.042 . S
O807 Co805 2.122 . S
O807 Co806 2.094 . S
O807 H808 0.980 . S
H808 O807 0.980 . S
O809 Co806 2.080 1_655 S
O809 Co810 2.042 . S
O809 Co811 2.122 . S
O809 H812 0.980 . S
Co810 O809 2.042 . S
Co810 O818 2.286 . S
Co810 O819 2.069 . S
Co810 O820 2.015 . S
Co810 O823 2.264 . S
Co811 O809 2.122 . S
Co811 O822 1.976 . S
Co811 O823 2.327 . S
Co811 O824 2.073 . S
H812 O809 0.980 . S
O813 Co805 2.073 . S
O813 C828 1.245 . S
O814 Co804 2.264 . S
O814 Co805 2.327 . S
O814 C828 1.257 . S
O815 Co805 1.976 . S
O815 C827 1.251 . S
O816 Co806 2.113 . S
O816 C827 1.274 . S
O817 Co806 2.139 1_655 S
O817 C830 1.246 . S
O818 Co810 2.286 . S
O818 C829 1.259 . S
O819 Co810 2.069 . S
O819 C829 1.289 . S
O820 Co810 2.015 . S
O820 C830 1.257 . S
O821 Co806 2.110 1_655 S
O821 C831 1.274 . S
O822 Co811 1.976 . S
O822 C831 1.251 . S
O823 Co810 2.264 . S
O823 Co811 2.327 . S
O823 C832 1.257 . S
O824 Co811 2.073 . S
O824 C832 1.245 . S
C825 O833 1.259 . S
C825 O834 1.289 . S
C826 O835 1.246 . S
C826 O836 1.257 . S
C827 O815 1.251 . S
C827 O816 1.274 . S
C828 O813 1.245 . S
C828 O814 1.257 . S
C829 O818 1.259 . S
C829 O819 1.289 . S
C830 O817 1.246 . S
C830 O820 1.257 . S
C831 O821 1.274 . S
C831 O822 1.251 . S
C832 O823 1.257 . S
C832 O824 1.245 . S
O833 Co804 2.286 . S
O833 C825 1.259 . S
O834 Co804 2.069 . S
O834 C825 1.289 . S
O835 Co806 2.148 . S
O835 C826 1.246 . S
O836 Co804 2.015 . S
O836 C826 1.257 . S
Co837 O840 2.042 . S
Co837 O847 2.264 . S
Co837 O866 2.286 . S
Co837 O867 2.069 . S
Co837 O869 2.015 1_565 S
Co838 O840 2.122 . S
Co838 O846 2.073 . S
Co838 O847 2.327 . S
Co838 O848 1.976 1_565 S
Co839 O840 2.087 1_545 S
Co839 O842 2.087 . S
Co839 O849 2.111 . S
Co839 O850 2.143 1_545 S
Co839 O854 2.111 1_545 S
Co839 O868 2.143 . S
O840 Co837 2.042 . S
O840 Co838 2.122 . S
O840 Co839 2.087 1_565 S
O840 H841 0.980 . S
H841 O840 0.980 . S
O842 Co839 2.087 . S
O842 Co843 2.042 . S
O842 Co844 2.122 . S
O842 H845 0.980 . S
Co843 O842 2.042 . S
Co843 O851 2.286 . S
Co843 O852 2.069 . S
Co843 O853 2.015 1_545 S
Co843 O856 2.264 . S
Co844 O842 2.122 . S
Co844 O855 1.976 1_545 S
Co844 O856 2.327 . S
Co844 O857 2.073 . S
H845 O842 0.980 . S
O846 Co838 2.073 . S
O846 C861 1.245 . S
O847 Co837 2.264 . S
O847 Co838 2.327 . S
O847 C861 1.257 . S
O848 Co838 1.976 1_545 S
O848 C860 1.251 . S
O849 Co839 2.111 . S
O849 C860 1.274 . S
O850 Co839 2.143 1_565 S
O850 C863 1.246 . S
O851 Co843 2.286 . S
O851 C862 1.259 . S
O852 Co843 2.069 . S
O852 C862 1.289 . S
O853 Co843 2.015 1_565 S
O853 C863 1.257 . S
O854 Co839 2.111 1_565 S
O854 C864 1.274 . S
O855 Co844 1.976 1_565 S
O855 C864 1.251 . S
O856 Co843 2.264 . S
O856 Co844 2.327 . S
O856 C865 1.257 . S
O857 Co844 2.073 . S
O857 C865 1.245 . S
C858 O866 1.259 . S
C858 O867 1.289 . S
C859 O868 1.246 . S
C859 O869 1.257 . S
C860 O848 1.251 . S
C860 O849 1.274 . S
C861 O846 1.245 . S
C861 O847 1.257 . S
C862 O851 1.259 . S
C862 O852 1.289 . S
C863 O850 1.246 . S
C863 O853 1.257 . S
C864 O854 1.274 . S
C864 O855 1.251 . S
C865 O856 1.257 . S
C865 O857 1.245 . S
O866 Co837 2.286 . S
O866 C858 1.259 . S
O867 Co837 2.069 . S
O867 C858 1.289 . S
O868 Co839 2.143 . S
O868 C859 1.246 . S
O869 Co837 2.015 1_545 S
O869 C859 1.257 . S
H870 C878 0.950 . S
H871 C883 0.950 . S
H872 C880 0.950 . S
H873 C882 0.950 . S
H874 C884 0.950 . S
H875 C886 0.950 . S
H876 C888 0.950 . S
H877 C889 0.950 . S
C878 H870 0.950 . S
C878 C879 1.386 . S
C878 C880 1.391 . S
C879 C878 1.386 . S
C879 C883 1.393 . S
C880 H872 0.950 . S
C880 C878 1.391 . S
C880 C881 1.400 . S
C881 C880 1.400 . S
C881 C882 1.398 . S
C881 C887 1.491 . S
C882 H873 0.950 . S
C882 C881 1.398 . S
C882 C883 1.391 . S
C883 H871 0.950 . S
C883 C879 1.393 . S
C883 C882 1.391 . S
C884 H874 0.950 . S
C884 C885 1.386 . S
C884 C886 1.391 . S
C885 C884 1.386 . S
C885 C889 1.393 . S
C886 H875 0.950 . S
C886 C884 1.391 . S
C886 C887 1.400 . S
C887 C881 1.491 . S
C887 C886 1.400 . S
C887 C888 1.398 . S
C888 H876 0.950 . S
C888 C887 1.398 . S
C888 C889 1.391 . S
C889 H877 0.950 . S
C889 C885 1.393 . S
C889 C888 1.391 . S
H890 C898 0.950 . S
H891 C903 0.950 . S
H892 C900 0.950 . S
H893 C902 0.950 . S
H894 C904 0.950 . S
H895 C906 0.950 . S
H896 C908 0.950 . S
H897 C909 0.950 . S
C898 H890 0.950 . S
C898 C899 1.386 . S
C898 C900 1.391 . S
C899 C898 1.386 . S
C899 C903 1.393 . S
C900 H892 0.950 . S
C900 C898 1.391 . S
C900 C901 1.400 . S
C901 C900 1.400 . S
C901 C902 1.398 . S
C901 C907 1.491 . S
C902 H893 0.950 . S
C902 C901 1.398 . S
C902 C903 1.391 . S
C903 H891 0.950 . S
C903 C899 1.393 . S
C903 C902 1.391 . S
C904 H894 0.950 . S
C904 C905 1.386 . S
C904 C906 1.391 . S
C905 C904 1.386 . S
C905 C909 1.393 . S
C906 H895 0.950 . S
C906 C904 1.391 . S
C906 C907 1.400 . S
C907 C901 1.491 . S
C907 C906 1.400 . S
C907 C908 1.398 . S
C908 H896 0.950 . S
C908 C907 1.398 . S
C908 C909 1.391 . S
C909 H897 0.950 . S
C909 C905 1.393 . S
C909 C908 1.391 . S
H910 C918 0.950 . S
H911 C923 0.950 . S
H912 C920 0.950 . S
H913 C922 0.950 . S
H914 C924 0.950 . S
H915 C926 0.950 . S
H916 C928 0.950 . S
H917 C929 0.950 . S
C918 H910 0.950 . S
C918 C919 1.386 . S
C918 C920 1.391 . S
C919 C918 1.386 . S
C919 C923 1.393 . S
C920 H912 0.950 . S
C920 C918 1.391 . S
C920 C921 1.400 . S
C921 C920 1.400 . S
C921 C922 1.398 . S
C921 C927 1.491 . S
C922 H913 0.950 . S
C922 C921 1.398 . S
C922 C923 1.391 . S
C923 H911 0.950 . S
C923 C919 1.393 . S
C923 C922 1.391 . S
C924 H914 0.950 . S
C924 C925 1.386 . S
C924 C926 1.391 . S
C925 C924 1.386 . S
C925 C929 1.393 . S
C926 H915 0.950 . S
C926 C924 1.391 . S
C926 C927 1.400 . S
C927 C921 1.491 . S
C927 C926 1.400 . S
C927 C928 1.398 . S
C928 H916 0.950 . S
C928 C927 1.398 . S
C928 C929 1.391 . S
C929 H917 0.950 . S
C929 C925 1.393 . S
C929 C928 1.391 . S
H930 C938 0.950 . S
H931 C943 0.950 . S
H932 C940 0.950 . S
H933 C942 0.950 . S
H934 C944 0.950 . S
H935 C946 0.950 . S
H936 C948 0.950 . S
H937 C949 0.950 . S
C938 H930 0.950 . S
C938 C939 1.386 . S
C938 C940 1.391 . S
C939 C938 1.386 . S
C939 C943 1.393 . S
C940 H932 0.950 . S
C940 C938 1.391 . S
C940 C941 1.400 . S
C941 C940 1.400 . S
C941 C942 1.398 . S
C941 C947 1.491 . S
C942 H933 0.950 . S
C942 C941 1.398 . S
C942 C943 1.391 . S
C943 H931 0.950 . S
C943 C939 1.393 . S
C943 C942 1.391 . S
C944 H934 0.950 . S
C944 C945 1.386 . S
C944 C946 1.391 . S
C945 C944 1.386 . S
C945 C949 1.393 . S
C946 H935 0.950 . S
C946 C944 1.391 . S
C946 C947 1.400 . S
C947 C941 1.491 . S
C947 C946 1.400 . S
C947 C948 1.398 . S
C948 H936 0.950 . S
C948 C947 1.398 . S
C948 C949 1.391 . S
C949 H937 0.950 . S
C949 C945 1.393 . S
C949 C948 1.391 . S
H950 C958 0.950 . S
H951 C963 0.950 . S
H952 C960 0.950 . S
H953 C962 0.950 . S
H954 C964 0.950 . S
H955 C966 0.950 . S
H956 C968 0.950 . S
H957 C969 0.950 . S
C958 H950 0.950 . S
C958 C959 1.386 . S
C958 C960 1.391 . S
C959 C958 1.386 . S
C959 C963 1.393 . S
C960 H952 0.950 . S
C960 C958 1.391 . S
C960 C961 1.400 . S
C961 C960 1.400 . S
C961 C962 1.398 . S
C961 C967 1.491 . S
C962 H953 0.950 . S
C962 C961 1.398 . S
C962 C963 1.391 . S
C963 H951 0.950 . S
C963 C959 1.393 . S
C963 C962 1.391 . S
C964 H954 0.950 . S
C964 C965 1.386 . S
C964 C966 1.391 . S
C965 C964 1.386 . S
C965 C969 1.393 . S
C966 H955 0.950 . S
C966 C964 1.391 . S
C966 C967 1.400 . S
C967 C961 1.491 . S
C967 C966 1.400 . S
C967 C968 1.398 . S
C968 H956 0.950 . S
C968 C967 1.398 . S
C968 C969 1.391 . S
C969 H957 0.950 . S
C969 C965 1.393 . S
C969 C968 1.391 . S
H970 C978 0.950 . S
H971 C983 0.950 . S
H972 C980 0.950 . S
H973 C982 0.950 . S
H974 C984 0.950 . S
H975 C986 0.950 . S
H976 C988 0.950 . S
H977 C989 0.950 . S
C978 H970 0.950 . S
C978 C979 1.386 . S
C978 C980 1.391 . S
C979 C978 1.386 . S
C979 C983 1.393 . S
C980 H972 0.950 . S
C980 C978 1.391 . S
C980 C981 1.400 . S
C981 C980 1.400 . S
C981 C982 1.398 . S
C981 C987 1.491 . S
C982 H973 0.950 . S
C982 C981 1.398 . S
C982 C983 1.391 . S
C983 H971 0.950 . S
C983 C979 1.393 . S
C983 C982 1.391 . S
C984 H974 0.950 . S
C984 C985 1.386 . S
C984 C986 1.391 . S
C985 C984 1.386 . S
C985 C989 1.393 . S
C986 H975 0.950 . S
C986 C984 1.391 . S
C986 C987 1.400 . S
C987 C981 1.491 . S
C987 C986 1.400 . S
C987 C988 1.398 . S
C988 H976 0.950 . S
C988 C987 1.398 . S
C988 C989 1.391 . S
C989 H977 0.950 . S
C989 C985 1.393 . S
C989 C988 1.391 . S
H990 C998 0.950 . S
H991 C1003 0.950 . S
H992 C1000 0.950 . S
H993 C1002 0.950 . S
H994 C1004 0.950 . S
H995 C1006 0.950 . S
H996 C1008 0.950 . S
H997 C1009 0.950 . S
C998 H990 0.950 . S
C998 C999 1.386 . S
C998 C1000 1.391 . S
C999 C998 1.386 . S
C999 C1003 1.393 . S
C1000 H992 0.950 . S
C1000 C998 1.391 . S
C1000 C1001 1.400 . S
C1001 C1000 1.400 . S
C1001 C1002 1.398 . S
C1001 C1007 1.491 . S
C1002 H993 0.950 . S
C1002 C1001 1.398 . S
C1002 C1003 1.391 . S
C1003 H991 0.950 . S
C1003 C999 1.393 . S
C1003 C1002 1.391 . S
C1004 H994 0.950 . S
C1004 C1005 1.386 . S
C1004 C1006 1.391 . S
C1005 C1004 1.386 . S
C1005 C1009 1.393 . S
C1006 H995 0.950 . S
C1006 C1004 1.391 . S
C1006 C1007 1.400 . S
C1007 C1001 1.491 . S
C1007 C1006 1.400 . S
C1007 C1008 1.398 . S
C1008 H996 0.950 . S
C1008 C1007 1.398 . S
C1008 C1009 1.391 . S
C1009 H997 0.950 . S
C1009 C1005 1.393 . S
C1009 C1008 1.391 . S
H1010 C1018 0.950 . S
H1011 C1023 0.950 . S
H1012 C1020 0.950 . S
H1013 C1022 0.950 . S
H1014 C1024 0.950 . S
H1015 C1026 0.950 . S
H1016 C1028 0.950 . S
H1017 C1029 0.950 . S
C1018 H1010 0.950 . S
C1018 C1019 1.386 . S
C1018 C1020 1.391 . S
C1019 C1018 1.386 . S
C1019 C1023 1.393 . S
C1020 H1012 0.950 . S
C1020 C1018 1.391 . S
C1020 C1021 1.400 . S
C1021 C1020 1.400 . S
C1021 C1022 1.398 . S
C1021 C1027 1.491 . S
C1022 H1013 0.950 . S
C1022 C1021 1.398 . S
C1022 C1023 1.391 . S
C1023 H1011 0.950 . S
C1023 C1019 1.393 . S
C1023 C1022 1.391 . S
C1024 H1014 0.950 . S
C1024 C1025 1.386 . S
C1024 C1026 1.391 . S
C1025 C1024 1.386 . S
C1025 C1029 1.393 . S
C1026 H1015 0.950 . S
C1026 C1024 1.391 . S
C1026 C1027 1.400 . S
C1027 C1021 1.491 . S
C1027 C1026 1.400 . S
C1027 C1028 1.398 . S
C1028 H1016 0.950 . S
C1028 C1027 1.398 . S
C1028 C1029 1.391 . S
C1029 H1017 0.950 . S
C1029 C1025 1.393 . S
C1029 C1028 1.391 . S
H1030 C1038 0.950 . S
H1031 C1043 0.950 . S
H1032 C1040 0.950 . S
H1033 C1042 0.950 . S
H1034 C1044 0.950 . S
H1035 C1046 0.950 . S
H1036 C1048 0.950 . S
H1037 C1049 0.950 . S
C1038 H1030 0.950 . S
C1038 C1039 1.386 . S
C1038 C1040 1.391 . S
C1039 C1038 1.386 . S
C1039 C1043 1.393 . S
C1040 H1032 0.950 . S
C1040 C1038 1.391 . S
C1040 C1041 1.400 . S
C1041 C1040 1.400 . S
C1041 C1042 1.398 . S
C1041 C1047 1.491 . S
C1042 H1033 0.950 . S
C1042 C1041 1.398 . S
C1042 C1043 1.391 . S
C1043 H1031 0.950 . S
C1043 C1039 1.393 . S
C1043 C1042 1.391 . S
C1044 H1034 0.950 . S
C1044 C1045 1.386 . S
C1044 C1046 1.391 . S
C1045 C1044 1.386 . S
C1045 C1049 1.393 . S
C1046 H1035 0.950 . S
C1046 C1044 1.391 . S
C1046 C1047 1.400 . S
C1047 C1041 1.491 . S
C1047 C1046 1.400 . S
C1047 C1048 1.398 . S
C1048 H1036 0.950 . S
C1048 C1047 1.398 . S
C1048 C1049 1.391 . S
C1049 H1037 0.950 . S
C1049 C1045 1.393 . S
C1049 C1048 1.391 . S
H1050 C1058 0.950 . S
H1051 C1063 0.950 . S
H1052 C1060 0.950 . S
H1053 C1062 0.950 . S
H1054 C1064 0.950 . S
H1055 C1066 0.950 . S
H1056 C1068 0.950 . S
H1057 C1069 0.950 . S
C1058 H1050 0.950 . S
C1058 C1059 1.386 . S
C1058 C1060 1.391 . S
C1059 C1058 1.386 . S
C1059 C1063 1.393 . S
C1060 H1052 0.950 . S
C1060 C1058 1.391 . S
C1060 C1061 1.400 . S
C1061 C1060 1.400 . S
C1061 C1062 1.398 . S
C1061 C1067 1.491 . S
C1062 H1053 0.950 . S
C1062 C1061 1.398 . S
C1062 C1063 1.391 . S
C1063 H1051 0.950 . S
C1063 C1059 1.393 . S
C1063 C1062 1.391 . S
C1064 H1054 0.950 . S
C1064 C1065 1.386 . S
C1064 C1066 1.391 . S
C1065 C1064 1.386 . S
C1065 C1069 1.393 . S
C1066 H1055 0.950 . S
C1066 C1064 1.391 . S
C1066 C1067 1.400 . S
C1067 C1061 1.491 . S
C1067 C1066 1.400 . S
C1067 C1068 1.398 . S
C1068 H1056 0.950 . S
C1068 C1067 1.398 . S
C1068 C1069 1.391 . S
C1069 H1057 0.950 . S
C1069 C1065 1.393 . S
C1069 C1068 1.391 . S
H1070 C1078 0.950 . S
H1071 C1083 0.950 . S
H1072 C1080 0.950 . S
H1073 C1082 0.950 . S
H1074 C1084 0.950 . S
H1075 C1086 0.950 . S
H1076 C1088 0.950 . S
H1077 C1089 0.950 . S
C1078 H1070 0.950 . S
C1078 C1079 1.386 . S
C1078 C1080 1.391 . S
C1079 C1078 1.386 . S
C1079 C1083 1.393 . S
C1080 H1072 0.950 . S
C1080 C1078 1.391 . S
C1080 C1081 1.400 . S
C1081 C1080 1.400 . S
C1081 C1082 1.398 . S
C1081 C1087 1.491 . S
C1082 H1073 0.950 . S
C1082 C1081 1.398 . S
C1082 C1083 1.391 . S
C1083 H1071 0.950 . S
C1083 C1079 1.393 . S
C1083 C1082 1.391 . S
C1084 H1074 0.950 . S
C1084 C1085 1.386 . S
C1084 C1086 1.391 . S
C1085 C1084 1.386 . S
C1085 C1089 1.393 . S
C1086 H1075 0.950 . S
C1086 C1084 1.391 . S
C1086 C1087 1.400 . S
C1087 C1081 1.491 . S
C1087 C1086 1.400 . S
C1087 C1088 1.398 . S
C1088 H1076 0.950 . S
C1088 C1087 1.398 . S
C1088 C1089 1.391 . S
C1089 H1077 0.950 . S
C1089 C1085 1.393 . S
C1089 C1088 1.391 . S
H1090 C1098 0.950 . S
H1091 C1103 0.950 . S
H1092 C1100 0.950 . S
H1093 C1102 0.950 . S
H1094 C1104 0.950 . S
H1095 C1106 0.950 . S
H1096 C1108 0.950 . S
H1097 C1109 0.950 . S
C1098 H1090 0.950 . S
C1098 C1099 1.386 . S
C1098 C1100 1.391 . S
C1099 C1098 1.386 . S
C1099 C1103 1.393 . S
C1100 H1092 0.950 . S
C1100 C1098 1.391 . S
C1100 C1101 1.400 . S
C1101 C1100 1.400 . S
C1101 C1102 1.398 . S
C1101 C1107 1.491 . S
C1102 H1093 0.950 . S
C1102 C1101 1.398 . S
C1102 C1103 1.391 . S
C1103 H1091 0.950 . S
C1103 C1099 1.393 . S
C1103 C1102 1.391 . S
C1104 H1094 0.950 . S
C1104 C1105 1.386 . S
C1104 C1106 1.391 . S
C1105 C1104 1.386 . S
C1105 C1109 1.393 . S
C1106 H1095 0.950 . S
C1106 C1104 1.391 . S
C1106 C1107 1.400 . S
C1107 C1101 1.491 . S
C1107 C1106 1.400 . S
C1107 C1108 1.398 . S
C1108 H1096 0.950 . S
C1108 C1107 1.398 . S
C1108 C1109 1.391 . S
C1109 H1097 0.950 . S
C1109 C1105 1.393 . S
C1109 C1108 1.391 . S
H1110 C1118 0.950 . S
H1111 C1123 0.950 . S
H1112 C1120 0.950 . S
H1113 C1122 0.950 . S
H1114 C1124 0.950 . S
H1115 C1126 0.950 . S
H1116 C1128 0.950 . S
H1117 C1129 0.950 . S
C1118 H1110 0.950 . S
C1118 C1119 1.386 . S
C1118 C1120 1.391 . S
C1119 C1118 1.386 . S
C1119 C1123 1.393 . S
C1120 H1112 0.950 . S
C1120 C1118 1.391 . S
C1120 C1121 1.400 . S
C1121 C1120 1.400 . S
C1121 C1122 1.398 . S
C1121 C1127 1.491 . S
C1122 H1113 0.950 . S
C1122 C1121 1.398 . S
C1122 C1123 1.391 . S
C1123 H1111 0.950 . S
C1123 C1119 1.393 . S
C1123 C1122 1.391 . S
C1124 H1114 0.950 . S
C1124 C1125 1.386 . S
C1124 C1126 1.391 . S
C1125 C1124 1.386 . S
C1125 C1129 1.393 . S
C1126 H1115 0.950 . S
C1126 C1124 1.391 . S
C1126 C1127 1.400 . S
C1127 C1121 1.491 . S
C1127 C1126 1.400 . S
C1127 C1128 1.398 . S
C1128 H1116 0.950 . S
C1128 C1127 1.398 . S
C1128 C1129 1.391 . S
C1129 H1117 0.950 . S
C1129 C1125 1.393 . S
C1129 C1128 1.391 . S
H1130 C1138 0.950 . S
H1131 C1143 0.950 . S
H1132 C1140 0.950 . S
H1133 C1142 0.950 . S
H1134 C1144 0.950 . S
H1135 C1146 0.950 . S
H1136 C1148 0.950 . S
H1137 C1149 0.950 . S
C1138 H1130 0.950 . S
C1138 C1139 1.386 . S
C1138 C1140 1.391 . S
C1139 C1138 1.386 . S
C1139 C1143 1.393 . S
C1140 H1132 0.950 . S
C1140 C1138 1.391 . S
C1140 C1141 1.400 . S
C1141 C1140 1.400 . S
C1141 C1142 1.398 . S
C1141 C1147 1.491 . S
C1142 H1133 0.950 . S
C1142 C1141 1.398 . S
C1142 C1143 1.391 . S
C1143 H1131 0.950 . S
C1143 C1139 1.393 . S
C1143 C1142 1.391 . S
C1144 H1134 0.950 . S
C1144 C1145 1.386 . S
C1144 C1146 1.391 . S
C1145 C1144 1.386 . S
C1145 C1149 1.393 . S
C1146 H1135 0.950 . S
C1146 C1144 1.391 . S
C1146 C1147 1.400 . S
C1147 C1141 1.491 . S
C1147 C1146 1.400 . S
C1147 C1148 1.398 . S
C1148 H1136 0.950 . S
C1148 C1147 1.398 . S
C1148 C1149 1.391 . S
C1149 H1137 0.950 . S
C1149 C1145 1.393 . S
C1149 C1148 1.391 . S
H1150 C1158 0.950 . S
H1151 C1163 0.950 . S
H1152 C1160 0.950 . S
H1153 C1162 0.950 . S
H1154 C1164 0.950 . S
H1155 C1166 0.950 . S
H1156 C1168 0.950 . S
H1157 C1169 0.950 . S
C1158 H1150 0.950 . S
C1158 C1159 1.386 . S
C1158 C1160 1.391 . S
C1159 C1158 1.386 . S
C1159 C1163 1.393 . S
C1160 H1152 0.950 . S
C1160 C1158 1.391 . S
C1160 C1161 1.400 . S
C1161 C1160 1.400 . S
C1161 C1162 1.398 . S
C1161 C1167 1.491 . S
C1162 H1153 0.950 . S
C1162 C1161 1.398 . S
C1162 C1163 1.391 . S
C1163 H1151 0.950 . S
C1163 C1159 1.393 . S
C1163 C1162 1.391 . S
C1164 H1154 0.950 . S
C1164 C1165 1.386 . S
C1164 C1166 1.391 . S
C1165 C1164 1.386 . S
C1165 C1169 1.393 . S
C1166 H1155 0.950 . S
C1166 C1164 1.391 . S
C1166 C1167 1.400 . S
C1167 C1161 1.491 . S
C1167 C1166 1.400 . S
C1167 C1168 1.398 . S
C1168 H1156 0.950 . S
C1168 C1167 1.398 . S
C1168 C1169 1.391 . S
C1169 H1157 0.950 . S
C1169 C1165 1.393 . S
C1169 C1168 1.391 . S
H1170 C1178 0.950 . S
H1171 C1183 0.950 . S
H1172 C1180 0.950 . S
H1173 C1182 0.950 . S
H1174 C1184 0.950 . S
H1175 C1186 0.950 . S
H1176 C1188 0.950 . S
H1177 C1189 0.950 . S
C1178 H1170 0.950 . S
C1178 C1179 1.386 . S
C1178 C1180 1.391 . S
C1179 C1178 1.386 . S
C1179 C1183 1.393 . S
C1180 H1172 0.950 . S
C1180 C1178 1.391 . S
C1180 C1181 1.400 . S
C1181 C1180 1.400 . S
C1181 C1182 1.398 . S
C1181 C1187 1.491 . S
C1182 H1173 0.950 . S
C1182 C1181 1.398 . S
C1182 C1183 1.391 . S
C1183 H1171 0.950 . S
C1183 C1179 1.393 . S
C1183 C1182 1.391 . S
C1184 H1174 0.950 . S
C1184 C1185 1.386 . S
C1184 C1186 1.391 . S
C1185 C1184 1.386 . S
C1185 C1189 1.393 . S
C1186 H1175 0.950 . S
C1186 C1184 1.391 . S
C1186 C1187 1.400 . S
C1187 C1181 1.491 . S
C1187 C1186 1.400 . S
C1187 C1188 1.398 . S
C1188 H1176 0.950 . S
C1188 C1187 1.398 . S
C1188 C1189 1.391 . S
C1189 H1177 0.950 . S
C1189 C1185 1.393 . S
C1189 C1188 1.391 . S
H1190 C1198 0.950 . S
H1191 C1203 0.950 . S
H1192 C1200 0.950 . S
H1193 C1202 0.950 . S
H1194 C1204 0.950 . S
H1195 C1206 0.950 . S
H1196 C1208 0.950 . S
H1197 C1209 0.950 1_556 S
C1198 H1190 0.950 . S
C1198 C1199 1.386 . S
C1198 C1200 1.391 . S
C1199 C1198 1.386 . S
C1199 C1203 1.393 . S
C1200 H1192 0.950 . S
C1200 C1198 1.391 . S
C1200 C1201 1.400 . S
C1201 C1200 1.400 . S
C1201 C1202 1.398 . S
C1201 C1207 1.491 . S
C1202 H1193 0.950 . S
C1202 C1201 1.398 . S
C1202 C1203 1.391 . S
C1203 H1191 0.950 . S
C1203 C1199 1.393 . S
C1203 C1202 1.391 . S
C1204 H1194 0.950 . S
C1204 C1205 1.386 . S
C1204 C1206 1.391 . S
C1205 C1204 1.386 . S
C1205 C1209 1.393 . S
C1206 H1195 0.950 . S
C1206 C1204 1.391 . S
C1206 C1207 1.400 . S
C1207 C1201 1.491 . S
C1207 C1206 1.400 . S
C1207 C1208 1.398 . S
C1208 H1196 0.950 . S
C1208 C1207 1.398 . S
C1208 C1209 1.391 . S
C1209 H1197 0.950 1_554 S
C1209 C1205 1.393 . S
C1209 C1208 1.391 . S
H1210 C1218 0.950 . S
H1211 C1223 0.950 . S
H1212 C1220 0.950 . S
H1213 C1222 0.950 . S
H1214 C1224 0.950 . S
H1215 C1226 0.950 . S
H1216 C1228 0.950 . S
H1217 C1229 0.950 . S
C1218 H1210 0.950 . S
C1218 C1219 1.386 . S
C1218 C1220 1.391 . S
C1219 C1218 1.386 . S
C1219 C1223 1.393 . S
C1220 H1212 0.950 . S
C1220 C1218 1.391 . S
C1220 C1221 1.400 . S
C1221 C1220 1.400 . S
C1221 C1222 1.398 . S
C1221 C1227 1.491 . S
C1222 H1213 0.950 . S
C1222 C1221 1.398 . S
C1222 C1223 1.391 . S
C1223 H1211 0.950 . S
C1223 C1219 1.393 . S
C1223 C1222 1.391 . S
C1224 H1214 0.950 . S
C1224 C1225 1.386 . S
C1224 C1226 1.391 . S
C1225 C1224 1.386 . S
C1225 C1229 1.393 . S
C1226 H1215 0.950 . S
C1226 C1224 1.391 . S
C1226 C1227 1.400 . S
C1227 C1221 1.491 . S
C1227 C1226 1.400 . S
C1227 C1228 1.398 . S
C1228 H1216 0.950 . S
C1228 C1227 1.398 . S
C1228 C1229 1.391 . S
C1229 H1217 0.950 . S
C1229 C1225 1.393 . S
C1229 C1228 1.391 . S
H1230 C1238 0.950 . S
H1231 C1243 0.950 . S
H1232 C1240 0.950 . S
H1233 C1242 0.950 . S
H1234 C1244 0.950 . S
H1235 C1246 0.950 . S
H1236 C1248 0.950 . S
H1237 C1249 0.950 . S
C1238 H1230 0.950 . S
C1238 C1239 1.386 . S
C1238 C1240 1.391 . S
C1239 C1238 1.386 . S
C1239 C1243 1.393 . S
C1240 H1232 0.950 . S
C1240 C1238 1.391 . S
C1240 C1241 1.400 . S
C1241 C1240 1.400 . S
C1241 C1242 1.398 . S
C1241 C1247 1.491 . S
C1242 H1233 0.950 . S
C1242 C1241 1.398 . S
C1242 C1243 1.391 . S
C1243 H1231 0.950 . S
C1243 C1239 1.393 . S
C1243 C1242 1.391 . S
C1244 H1234 0.950 . S
C1244 C1245 1.386 . S
C1244 C1246 1.391 . S
C1245 C1244 1.386 . S
C1245 C1249 1.393 . S
C1246 H1235 0.950 . S
C1246 C1244 1.391 . S
C1246 C1247 1.400 . S
C1247 C1241 1.491 . S
C1247 C1246 1.400 . S
C1247 C1248 1.398 . S
C1248 H1236 0.950 . S
C1248 C1247 1.398 . S
C1248 C1249 1.391 . S
C1249 H1237 0.950 . S
C1249 C1245 1.393 . S
C1249 C1248 1.391 . S
H1250 C1258 0.950 . S
H1251 C1263 0.950 . S
H1252 C1260 0.950 . S
H1253 C1262 0.950 . S
H1254 C1264 0.950 . S
H1255 C1266 0.950 . S
H1256 C1268 0.950 . S
H1257 C1269 0.950 . S
C1258 H1250 0.950 . S
C1258 C1259 1.386 . S
C1258 C1260 1.391 . S
C1259 C1258 1.386 . S
C1259 C1263 1.393 . S
C1260 H1252 0.950 . S
C1260 C1258 1.391 . S
C1260 C1261 1.400 . S
C1261 C1260 1.400 . S
C1261 C1262 1.398 . S
C1261 C1267 1.491 . S
C1262 H1253 0.950 . S
C1262 C1261 1.398 . S
C1262 C1263 1.391 . S
C1263 H1251 0.950 . S
C1263 C1259 1.393 . S
C1263 C1262 1.391 . S
C1264 H1254 0.950 . S
C1264 C1265 1.386 . S
C1264 C1266 1.391 . S
C1265 C1264 1.386 . S
C1265 C1269 1.393 . S
C1266 H1255 0.950 . S
C1266 C1264 1.391 . S
C1266 C1267 1.400 . S
C1267 C1261 1.491 . S
C1267 C1266 1.400 . S
C1267 C1268 1.398 . S
C1268 H1256 0.950 . S
C1268 C1267 1.398 . S
C1268 C1269 1.391 . S
C1269 H1257 0.950 . S
C1269 C1265 1.393 . S
C1269 C1268 1.391 . S
H1270 C1278 0.950 . S
H1271 C1283 0.950 . S
H1272 C1280 0.950 . S
H1273 C1282 0.950 . S
H1274 C1284 0.950 . S
H1275 C1286 0.950 . S
H1276 C1288 0.950 . S
H1277 C1289 0.950 . S
C1278 H1270 0.950 . S
C1278 C1279 1.386 . S
C1278 C1280 1.391 . S
C1279 C1278 1.386 . S
C1279 C1283 1.393 . S
C1280 H1272 0.950 . S
C1280 C1278 1.391 . S
C1280 C1281 1.400 . S
C1281 C1280 1.400 . S
C1281 C1282 1.398 . S
C1281 C1287 1.491 . S
C1282 H1273 0.950 . S
C1282 C1281 1.398 . S
C1282 C1283 1.391 . S
C1283 H1271 0.950 . S
C1283 C1279 1.393 . S
C1283 C1282 1.391 . S
C1284 H1274 0.950 . S
C1284 C1285 1.386 . S
C1284 C1286 1.391 . S
C1285 C1284 1.386 . S
C1285 C1289 1.393 . S
C1286 H1275 0.950 . S
C1286 C1284 1.391 . S
C1286 C1287 1.400 . S
C1287 C1281 1.491 . S
C1287 C1286 1.400 . S
C1287 C1288 1.398 . S
C1288 H1276 0.950 . S
C1288 C1287 1.398 . S
C1288 C1289 1.391 . S
C1289 H1277 0.950 . S
C1289 C1285 1.393 . S
C1289 C1288 1.391 . S
H1290 C1298 0.950 . S
H1291 C1303 0.950 . S
H1292 C1300 0.950 . S
H1293 C1302 0.950 . S
H1294 C1304 0.950 . S
H1295 C1306 0.950 . S
H1296 C1308 0.950 . S
H1297 C1309 0.950 . S
C1298 H1290 0.950 . S
C1298 C1299 1.386 . S
C1298 C1300 1.391 . S
C1299 C1298 1.386 . S
C1299 C1303 1.393 . S
C1300 H1292 0.950 . S
C1300 C1298 1.391 . S
C1300 C1301 1.400 . S
C1301 C1300 1.400 . S
C1301 C1302 1.398 . S
C1301 C1307 1.491 . S
C1302 H1293 0.950 . S
C1302 C1301 1.398 . S
C1302 C1303 1.391 . S
C1303 H1291 0.950 . S
C1303 C1299 1.393 . S
C1303 C1302 1.391 . S
C1304 H1294 0.950 . S
C1304 C1305 1.386 . S
C1304 C1306 1.391 . S
C1305 C1304 1.386 . S
C1305 C1309 1.393 . S
C1306 H1295 0.950 . S
C1306 C1304 1.391 . S
C1306 C1307 1.400 . S
C1307 C1301 1.491 . S
C1307 C1306 1.400 . S
C1307 C1308 1.398 . S
C1308 H1296 0.950 . S
C1308 C1307 1.398 . S
C1308 C1309 1.391 . S
C1309 H1297 0.950 . S
C1309 C1305 1.393 . S
C1309 C1308 1.391 . S
H1310 C1318 0.950 . S
H1311 C1323 0.950 . S
H1312 C1320 0.950 . S
H1313 C1322 0.950 . S
H1314 C1324 0.950 . S
H1315 C1326 0.950 . S
H1316 C1328 0.950 . S
H1317 C1329 0.950 . S
C1318 H1310 0.950 . S
C1318 C1319 1.386 . S
C1318 C1320 1.391 . S
C1319 C1318 1.386 . S
C1319 C1323 1.393 . S
C1320 H1312 0.950 . S
C1320 C1318 1.391 . S
C1320 C1321 1.400 . S
C1321 C1320 1.400 . S
C1321 C1322 1.398 . S
C1321 C1327 1.491 . S
C1322 H1313 0.950 . S
C1322 C1321 1.398 . S
C1322 C1323 1.391 . S
C1323 H1311 0.950 . S
C1323 C1319 1.393 . S
C1323 C1322 1.391 . S
C1324 H1314 0.950 . S
C1324 C1325 1.386 . S
C1324 C1326 1.391 . S
C1325 C1324 1.386 . S
C1325 C1329 1.393 . S
C1326 H1315 0.950 . S
C1326 C1324 1.391 . S
C1326 C1327 1.400 . S
C1327 C1321 1.491 . S
C1327 C1326 1.400 . S
C1327 C1328 1.398 . S
C1328 H1316 0.950 . S
C1328 C1327 1.398 . S
C1328 C1329 1.391 . S
C1329 H1317 0.950 . S
C1329 C1325 1.393 . S
C1329 C1328 1.391 . S
H1330 C1338 0.950 . S
H1331 C1343 0.950 . S
H1332 C1340 0.950 . S
H1333 C1342 0.950 . S
H1334 C1344 0.950 . S
H1335 C1346 0.950 . S
H1336 C1348 0.950 . S
H1337 C1349 0.950 . S
C1338 H1330 0.950 . S
C1338 C1339 1.386 . S
C1338 C1340 1.391 . S
C1339 C1338 1.386 . S
C1339 C1343 1.393 . S
C1340 H1332 0.950 . S
C1340 C1338 1.391 . S
C1340 C1341 1.400 . S
C1341 C1340 1.400 . S
C1341 C1342 1.398 . S
C1341 C1347 1.491 . S
C1342 H1333 0.950 . S
C1342 C1341 1.398 . S
C1342 C1343 1.391 . S
C1343 H1331 0.950 . S
C1343 C1339 1.393 . S
C1343 C1342 1.391 . S
C1344 H1334 0.950 . S
C1344 C1345 1.386 . S
C1344 C1346 1.391 . S
C1345 C1344 1.386 . S
C1345 C1349 1.393 . S
C1346 H1335 0.950 . S
C1346 C1344 1.391 . S
C1346 C1347 1.400 . S
C1347 C1341 1.491 . S
C1347 C1346 1.400 . S
C1347 C1348 1.398 . S
C1348 H1336 0.950 . S
C1348 C1347 1.398 . S
C1348 C1349 1.391 . S
C1349 H1337 0.950 . S
C1349 C1345 1.393 . S
C1349 C1348 1.391 . S
H1350 C1358 0.950 . S
H1351 C1363 0.950 . S
H1352 C1360 0.950 . S
H1353 C1362 0.950 . S
H1354 C1364 0.950 . S
H1355 C1366 0.950 . S
H1356 C1368 0.950 . S
H1357 C1369 0.950 . S
C1358 H1350 0.950 . S
C1358 C1359 1.386 . S
C1358 C1360 1.391 . S
C1359 C1358 1.386 . S
C1359 C1363 1.393 . S
C1360 H1352 0.950 . S
C1360 C1358 1.391 . S
C1360 C1361 1.400 . S
C1361 C1360 1.400 . S
C1361 C1362 1.398 . S
C1361 C1367 1.491 . S
C1362 H1353 0.950 . S
C1362 C1361 1.398 . S
C1362 C1363 1.391 . S
C1363 H1351 0.950 . S
C1363 C1359 1.393 . S
C1363 C1362 1.391 . S
C1364 H1354 0.950 . S
C1364 C1365 1.386 . S
C1364 C1366 1.391 . S
C1365 C1364 1.386 . S
C1365 C1369 1.393 . S
C1366 H1355 0.950 . S
C1366 C1364 1.391 . S
C1366 C1367 1.400 . S
C1367 C1361 1.491 . S
C1367 C1366 1.400 . S
C1367 C1368 1.398 . S
C1368 H1356 0.950 . S
C1368 C1367 1.398 . S
C1368 C1369 1.391 . S
C1369 H1357 0.950 . S
C1369 C1365 1.393 . S
C1369 C1368 1.391 . S
H1370 C1378 0.950 . S
H1371 C1383 0.950 . S
H1372 C1380 0.950 . S
H1373 C1382 0.950 . S
H1374 C1384 0.950 . S
H1375 C1386 0.950 . S
H1376 C1388 0.950 . S
H1377 C1389 0.950 . S
C1378 H1370 0.950 . S
C1378 C1379 1.386 . S
C1378 C1380 1.391 . S
C1379 C1378 1.386 . S
C1379 C1383 1.393 . S
C1380 H1372 0.950 . S
C1380 C1378 1.391 . S
C1380 C1381 1.400 . S
C1381 C1380 1.400 . S
C1381 C1382 1.398 . S
C1381 C1387 1.491 . S
C1382 H1373 0.950 . S
C1382 C1381 1.398 . S
C1382 C1383 1.391 . S
C1383 H1371 0.950 . S
C1383 C1379 1.393 . S
C1383 C1382 1.391 . S
C1384 H1374 0.950 . S
C1384 C1385 1.386 . S
C1384 C1386 1.391 . S
C1385 C1384 1.386 . S
C1385 C1389 1.393 . S
C1386 H1375 0.950 . S
C1386 C1384 1.391 . S
C1386 C1387 1.400 . S
C1387 C1381 1.491 . S
C1387 C1386 1.400 . S
C1387 C1388 1.398 . S
C1388 H1376 0.950 . S
C1388 C1387 1.398 . S
C1388 C1389 1.391 . S
C1389 H1377 0.950 . S
C1389 C1385 1.393 . S
C1389 C1388 1.391 . S
H1390 C1398 0.950 . S
H1391 C1403 0.950 . S
H1392 C1400 0.950 . S
H1393 C1402 0.950 . S
H1394 C1404 0.950 . S
H1395 C1406 0.950 . S
H1396 C1408 0.950 . S
H1397 C1409 0.950 . S
C1398 H1390 0.950 . S
C1398 C1399 1.386 . S
C1398 C1400 1.391 . S
C1399 C1398 1.386 . S
C1399 C1403 1.393 . S
C1400 H1392 0.950 . S
C1400 C1398 1.391 . S
C1400 C1401 1.400 . S
C1401 C1400 1.400 . S
C1401 C1402 1.398 . S
C1401 C1407 1.491 . S
C1402 H1393 0.950 . S
C1402 C1401 1.398 . S
C1402 C1403 1.391 . S
C1403 H1391 0.950 . S
C1403 C1399 1.393 . S
C1403 C1402 1.391 . S
C1404 H1394 0.950 . S
C1404 C1405 1.386 . S
C1404 C1406 1.391 . S
C1405 C1404 1.386 . S
C1405 C1409 1.393 . S
C1406 H1395 0.950 . S
C1406 C1404 1.391 . S
C1406 C1407 1.400 . S
C1407 C1401 1.491 . S
C1407 C1406 1.400 . S
C1407 C1408 1.398 . S
C1408 H1396 0.950 . S
C1408 C1407 1.398 . S
C1408 C1409 1.391 . S
C1409 H1397 0.950 . S
C1409 C1405 1.393 . S
C1409 C1408 1.391 . S
H1410 C1418 0.950 . S
H1411 C1423 0.950 . S
H1412 C1420 0.950 . S
H1413 C1422 0.950 . S
H1414 C1424 0.950 . S
H1415 C1426 0.950 . S
H1416 C1428 0.950 . S
H1417 C1429 0.950 . S
C1418 H1410 0.950 . S
C1418 C1419 1.386 . S
C1418 C1420 1.391 . S
C1419 C1418 1.386 . S
C1419 C1423 1.393 . S
C1420 H1412 0.950 . S
C1420 C1418 1.391 . S
C1420 C1421 1.400 . S
C1421 C1420 1.400 . S
C1421 C1422 1.398 . S
C1421 C1427 1.491 . S
C1422 H1413 0.950 . S
C1422 C1421 1.398 . S
C1422 C1423 1.391 . S
C1423 H1411 0.950 . S
C1423 C1419 1.393 . S
C1423 C1422 1.391 . S
C1424 H1414 0.950 . S
C1424 C1425 1.386 . S
C1424 C1426 1.391 . S
C1425 C1424 1.386 . S
C1425 C1429 1.393 . S
C1426 H1415 0.950 . S
C1426 C1424 1.391 . S
C1426 C1427 1.400 . S
C1427 C1421 1.491 . S
C1427 C1426 1.400 . S
C1427 C1428 1.398 . S
C1428 H1416 0.950 . S
C1428 C1427 1.398 . S
C1428 C1429 1.391 . S
C1429 H1417 0.950 . S
C1429 C1425 1.393 . S
C1429 C1428 1.391 . S
H1430 C1438 0.950 . S
H1431 C1443 0.950 . S
H1432 C1440 0.950 . S
H1433 C1442 0.950 . S
H1434 C1444 0.950 . S
H1435 C1446 0.950 . S
H1436 C1448 0.950 . S
H1437 C1449 0.950 . S
C1438 H1430 0.950 . S
C1438 C1439 1.386 . S
C1438 C1440 1.391 . S
C1439 C1438 1.386 . S
C1439 C1443 1.393 . S
C1440 H1432 0.950 . S
C1440 C1438 1.391 . S
C1440 C1441 1.400 . S
C1441 C1440 1.400 . S
C1441 C1442 1.398 . S
C1441 C1447 1.491 . S
C1442 H1433 0.950 . S
C1442 C1441 1.398 . S
C1442 C1443 1.391 . S
C1443 H1431 0.950 . S
C1443 C1439 1.393 . S
C1443 C1442 1.391 . S
C1444 H1434 0.950 . S
C1444 C1445 1.386 . S
C1444 C1446 1.391 . S
C1445 C1444 1.386 . S
C1445 C1449 1.393 . S
C1446 H1435 0.950 . S
C1446 C1444 1.391 . S
C1446 C1447 1.400 . S
C1447 C1441 1.491 . S
C1447 C1446 1.400 . S
C1447 C1448 1.398 . S
C1448 H1436 0.950 . S
C1448 C1447 1.398 . S
C1448 C1449 1.391 . S
C1449 H1437 0.950 . S
C1449 C1445 1.393 . S
C1449 C1448 1.391 . S
H1450 C1458 0.950 . S
H1451 C1463 0.950 . S
H1452 C1460 0.950 . S
H1453 C1462 0.950 . S
H1454 C1464 0.950 . S
H1455 C1466 0.950 . S
H1456 C1468 0.950 . S
H1457 C1469 0.950 . S
C1458 H1450 0.950 . S
C1458 C1459 1.386 . S
C1458 C1460 1.391 . S
C1459 C1458 1.386 . S
C1459 C1463 1.393 . S
C1460 H1452 0.950 . S
C1460 C1458 1.391 . S
C1460 C1461 1.400 . S
C1461 C1460 1.400 . S
C1461 C1462 1.398 . S
C1461 C1467 1.491 . S
C1462 H1453 0.950 . S
C1462 C1461 1.398 . S
C1462 C1463 1.391 . S
C1463 H1451 0.950 . S
C1463 C1459 1.393 . S
C1463 C1462 1.391 . S
C1464 H1454 0.950 . S
C1464 C1465 1.386 . S
C1464 C1466 1.391 . S
C1465 C1464 1.386 . S
C1465 C1469 1.393 . S
C1466 H1455 0.950 . S
C1466 C1464 1.391 . S
C1466 C1467 1.400 . S
C1467 C1461 1.491 . S
C1467 C1466 1.400 . S
C1467 C1468 1.398 . S
C1468 H1456 0.950 . S
C1468 C1467 1.398 . S
C1468 C1469 1.391 . S
C1469 H1457 0.950 . S
C1469 C1465 1.393 . S
C1469 C1468 1.391 . S
H1470 C1478 0.950 . S
H1471 C1483 0.950 . S
H1472 C1480 0.950 . S
H1473 C1482 0.950 . S
H1474 C1484 0.950 . S
H1475 C1486 0.950 . S
H1476 C1488 0.950 . S
H1477 C1489 0.950 . S
C1478 H1470 0.950 . S
C1478 C1479 1.386 . S
C1478 C1480 1.391 . S
C1479 C1478 1.386 . S
C1479 C1483 1.393 . S
C1480 H1472 0.950 . S
C1480 C1478 1.391 . S
C1480 C1481 1.400 . S
C1481 C1480 1.400 . S
C1481 C1482 1.398 . S
C1481 C1487 1.491 . S
C1482 H1473 0.950 . S
C1482 C1481 1.398 . S
C1482 C1483 1.391 . S
C1483 H1471 0.950 . S
C1483 C1479 1.393 . S
C1483 C1482 1.391 . S
C1484 H1474 0.950 . S
C1484 C1485 1.386 . S
C1484 C1486 1.391 . S
C1485 C1484 1.386 . S
C1485 C1489 1.393 . S
C1486 H1475 0.950 . S
C1486 C1484 1.391 . S
C1486 C1487 1.400 . S
C1487 C1481 1.491 . S
C1487 C1486 1.400 . S
C1487 C1488 1.398 . S
C1488 H1476 0.950 . S
C1488 C1487 1.398 . S
C1488 C1489 1.391 . S
C1489 H1477 0.950 . S
C1489 C1485 1.393 . S
C1489 C1488 1.391 . S
H1490 C1498 0.950 . S
H1491 C1503 0.950 . S
H1492 C1500 0.950 . S
H1493 C1502 0.950 . S
H1494 C1504 0.950 . S
H1495 C1506 0.950 . S
H1496 C1508 0.950 . S
H1497 C1509 0.950 . S
C1498 H1490 0.950 . S
C1498 C1499 1.386 . S
C1498 C1500 1.391 . S
C1499 C1498 1.386 . S
C1499 C1503 1.393 . S
C1500 H1492 0.950 . S
C1500 C1498 1.391 . S
C1500 C1501 1.400 . S
C1501 C1500 1.400 . S
C1501 C1502 1.398 . S
C1501 C1507 1.491 . S
C1502 H1493 0.950 . S
C1502 C1501 1.398 . S
C1502 C1503 1.391 . S
C1503 H1491 0.950 . S
C1503 C1499 1.393 . S
C1503 C1502 1.391 . S
C1504 H1494 0.950 . S
C1504 C1505 1.386 . S
C1504 C1506 1.391 . S
C1505 C1504 1.386 . S
C1505 C1509 1.393 . S
C1506 H1495 0.950 . S
C1506 C1504 1.391 . S
C1506 C1507 1.400 . S
C1507 C1501 1.491 . S
C1507 C1506 1.400 . S
C1507 C1508 1.398 . S
C1508 H1496 0.950 . S
C1508 C1507 1.398 . S
C1508 C1509 1.391 . S
C1509 H1497 0.950 . S
C1509 C1505 1.393 . S
C1509 C1508 1.391 . S
H1510 C1518 0.950 . S
H1511 C1523 0.950 . S
H1512 C1520 0.950 . S
H1513 C1522 0.950 . S
H1514 C1524 0.950 . S
H1515 C1526 0.950 . S
H1516 C1528 0.950 . S
H1517 C1529 0.950 . S
C1518 H1510 0.950 . S
C1518 C1519 1.386 . S
C1518 C1520 1.391 . S
C1519 C1518 1.386 . S
C1519 C1523 1.393 . S
C1520 H1512 0.950 . S
C1520 C1518 1.391 . S
C1520 C1521 1.400 . S
C1521 C1520 1.400 . S
C1521 C1522 1.398 . S
C1521 C1527 1.491 . S
C1522 H1513 0.950 . S
C1522 C1521 1.398 . S
C1522 C1523 1.391 . S
C1523 H1511 0.950 . S
C1523 C1519 1.393 . S
C1523 C1522 1.391 . S
C1524 H1514 0.950 . S
C1524 C1525 1.386 . S
C1524 C1526 1.391 . S
C1525 C1524 1.386 . S
C1525 C1529 1.393 . S
C1526 H1515 0.950 . S
C1526 C1524 1.391 . S
C1526 C1527 1.400 . S
C1527 C1521 1.491 . S
C1527 C1526 1.400 . S
C1527 C1528 1.398 . S
C1528 H1516 0.950 . S
C1528 C1527 1.398 . S
C1528 C1529 1.391 . S
C1529 H1517 0.950 . S
C1529 C1525 1.393 . S
C1529 C1528 1.391 . S
H1530 C1538 0.950 . S
H1531 C1543 0.950 . S
H1532 C1540 0.950 . S
H1533 C1542 0.950 . S
H1534 C1544 0.950 . S
H1535 C1546 0.950 . S
H1536 C1548 0.950 . S
H1537 C1549 0.950 . S
C1538 H1530 0.950 . S
C1538 C1539 1.386 . S
C1538 C1540 1.391 . S
C1539 C1538 1.386 . S
C1539 C1543 1.393 . S
C1540 H1532 0.950 . S
C1540 C1538 1.391 . S
C1540 C1541 1.400 . S
C1541 C1540 1.400 . S
C1541 C1542 1.398 . S
C1541 C1547 1.491 . S
C1542 H1533 0.950 . S
C1542 C1541 1.398 . S
C1542 C1543 1.391 . S
C1543 H1531 0.950 . S
C1543 C1539 1.393 . S
C1543 C1542 1.391 . S
C1544 H1534 0.950 . S
C1544 C1545 1.386 . S
C1544 C1546 1.391 . S
C1545 C1544 1.386 . S
C1545 C1549 1.393 . S
C1546 H1535 0.950 . S
C1546 C1544 1.391 . S
C1546 C1547 1.400 . S
C1547 C1541 1.491 . S
C1547 C1546 1.400 . S
C1547 C1548 1.398 . S
C1548 H1536 0.950 . S
C1548 C1547 1.398 . S
C1548 C1549 1.391 . S
C1549 H1537 0.950 . S
C1549 C1545 1.393 . S
C1549 C1548 1.391 . S
H1550 C1558 0.950 . S
H1551 C1563 0.950 . S
H1552 C1560 0.950 . S
H1553 C1562 0.950 . S
H1554 C1564 0.950 . S
H1555 C1566 0.950 . S
H1556 C1568 0.950 . S
H1557 C1569 0.950 . S
C1558 H1550 0.950 . S
C1558 C1559 1.386 . S
C1558 C1560 1.391 . S
C1559 C1558 1.386 . S
C1559 C1563 1.393 . S
C1560 H1552 0.950 . S
C1560 C1558 1.391 . S
C1560 C1561 1.400 . S
C1561 C1560 1.400 . S
C1561 C1562 1.398 . S
C1561 C1567 1.491 . S
C1562 H1553 0.950 . S
C1562 C1561 1.398 . S
C1562 C1563 1.391 . S
C1563 H1551 0.950 . S
C1563 C1559 1.393 . S
C1563 C1562 1.391 . S
C1564 H1554 0.950 . S
C1564 C1565 1.386 . S
C1564 C1566 1.391 . S
C1565 C1564 1.386 . S
C1565 C1569 1.393 . S
C1566 H1555 0.950 . S
C1566 C1564 1.391 . S
C1566 C1567 1.400 . S
C1567 C1561 1.491 . S
C1567 C1566 1.400 . S
C1567 C1568 1.398 . S
C1568 H1556 0.950 . S
C1568 C1567 1.398 . S
C1568 C1569 1.391 . S
C1569 H1557 0.950 . S
C1569 C1565 1.393 . S
C1569 C1568 1.391 . S
H1570 C1578 0.950 . S
H1571 C1583 0.950 . S
H1572 C1580 0.950 . S
H1573 C1582 0.950 . S
H1574 C1584 0.950 . S
H1575 C1586 0.950 . S
H1576 C1588 0.950 . S
H1577 C1589 0.950 . S
C1578 H1570 0.950 . S
C1578 C1579 1.386 . S
C1578 C1580 1.391 . S
C1579 C1578 1.386 . S
C1579 C1583 1.393 . S
C1580 H1572 0.950 . S
C1580 C1578 1.391 . S
C1580 C1581 1.400 . S
C1581 C1580 1.400 . S
C1581 C1582 1.398 . S
C1581 C1587 1.491 . S
C1582 H1573 0.950 . S
C1582 C1581 1.398 . S
C1582 C1583 1.391 . S
C1583 H1571 0.950 . S
C1583 C1579 1.393 . S
C1583 C1582 1.391 . S
C1584 H1574 0.950 . S
C1584 C1585 1.386 . S
C1584 C1586 1.391 . S
C1585 C1584 1.386 . S
C1585 C1589 1.393 . S
C1586 H1575 0.950 . S
C1586 C1584 1.391 . S
C1586 C1587 1.400 . S
C1587 C1581 1.491 . S
C1587 C1586 1.400 . S
C1587 C1588 1.398 . S
C1588 H1576 0.950 . S
C1588 C1587 1.398 . S
C1588 C1589 1.391 . S
C1589 H1577 0.950 . S
C1589 C1585 1.393 . S
C1589 C1588 1.391 . S
H1590 C1598 0.950 . S
H1591 C1603 0.950 . S
H1592 C1600 0.950 . S
H1593 C1602 0.950 . S
H1594 C1604 0.950 . S
H1595 C1606 0.950 . S
H1596 C1608 0.950 . S
H1597 C1609 0.950 . S
C1598 H1590 0.950 . S
C1598 C1599 1.386 . S
C1598 C1600 1.391 . S
C1599 C1598 1.386 . S
C1599 C1603 1.393 . S
C1600 H1592 0.950 . S
C1600 C1598 1.391 . S
C1600 C1601 1.400 . S
C1601 C1600 1.400 . S
C1601 C1602 1.398 . S
C1601 C1607 1.491 . S
C1602 H1593 0.950 . S
C1602 C1601 1.398 . S
C1602 C1603 1.391 . S
C1603 H1591 0.950 . S
C1603 C1599 1.393 . S
C1603 C1602 1.391 . S
C1604 H1594 0.950 . S
C1604 C1605 1.386 . S
C1604 C1606 1.391 . S
C1605 C1604 1.386 . S
C1605 C1609 1.393 . S
C1606 H1595 0.950 . S
C1606 C1604 1.391 . S
C1606 C1607 1.400 . S
C1607 C1601 1.491 . S
C1607 C1606 1.400 . S
C1607 C1608 1.398 . S
C1608 H1596 0.950 . S
C1608 C1607 1.398 . S
C1608 C1609 1.391 . S
C1609 H1597 0.950 . S
C1609 C1605 1.393 . S
C1609 C1608 1.391 . S
H1610 C1618 0.950 . S
H1611 C1623 0.950 . S
H1612 C1620 0.950 . S
H1613 C1622 0.950 . S
H1614 C1624 0.950 . S
H1615 C1626 0.950 . S
H1616 C1628 0.950 . S
H1617 C1629 0.950 . S
C1618 H1610 0.950 . S
C1618 C1619 1.386 . S
C1618 C1620 1.391 . S
C1619 C1618 1.386 . S
C1619 C1623 1.393 . S
C1620 H1612 0.950 . S
C1620 C1618 1.391 . S
C1620 C1621 1.400 . S
C1621 C1620 1.400 . S
C1621 C1622 1.398 . S
C1621 C1627 1.491 . S
C1622 H1613 0.950 . S
C1622 C1621 1.398 . S
C1622 C1623 1.391 . S
C1623 H1611 0.950 . S
C1623 C1619 1.393 . S
C1623 C1622 1.391 . S
C1624 H1614 0.950 . S
C1624 C1625 1.386 . S
C1624 C1626 1.391 . S
C1625 C1624 1.386 . S
C1625 C1629 1.393 . S
C1626 H1615 0.950 . S
C1626 C1624 1.391 . S
C1626 C1627 1.400 . S
C1627 C1621 1.491 . S
C1627 C1626 1.400 . S
C1627 C1628 1.398 . S
C1628 H1616 0.950 . S
C1628 C1627 1.398 . S
C1628 C1629 1.391 . S
C1629 H1617 0.950 . S
C1629 C1625 1.393 . S
C1629 C1628 1.391 . S
H1630 C1638 0.950 . S
H1631 C1643 0.950 . S
H1632 C1640 0.950 . S
H1633 C1642 0.950 . S
H1634 C1644 0.950 . S
H1635 C1646 0.950 . S
H1636 C1648 0.950 . S
H1637 C1649 0.950 . S
C1638 H1630 0.950 . S
C1638 C1639 1.386 . S
C1638 C1640 1.391 . S
C1639 C1638 1.386 . S
C1639 C1643 1.393 . S
C1640 H1632 0.950 . S
C1640 C1638 1.391 . S
C1640 C1641 1.400 . S
C1641 C1640 1.400 . S
C1641 C1642 1.398 . S
C1641 C1647 1.491 . S
C1642 H1633 0.950 . S
C1642 C1641 1.398 . S
C1642 C1643 1.391 . S
C1643 H1631 0.950 . S
C1643 C1639 1.393 . S
C1643 C1642 1.391 . S
C1644 H1634 0.950 . S
C1644 C1645 1.386 . S
C1644 C1646 1.391 . S
C1645 C1644 1.386 . S
C1645 C1649 1.393 . S
C1646 H1635 0.950 . S
C1646 C1644 1.391 . S
C1646 C1647 1.400 . S
C1647 C1641 1.491 . S
C1647 C1646 1.400 . S
C1647 C1648 1.398 . S
C1648 H1636 0.950 . S
C1648 C1647 1.398 . S
C1648 C1649 1.391 . S
C1649 H1637 0.950 . S
C1649 C1645 1.393 . S
C1649 C1648 1.391 . S
H1650 C1658 0.950 . S
H1651 C1663 0.950 . S
H1652 C1660 0.950 . S
H1653 C1662 0.950 . S
H1654 C1664 0.950 . S
H1655 C1666 0.950 . S
H1656 C1668 0.950 . S
H1657 C1669 0.950 . S
C1658 H1650 0.950 . S
C1658 C1659 1.386 . S
C1658 C1660 1.391 . S
C1659 C1658 1.386 . S
C1659 C1663 1.393 . S
C1660 H1652 0.950 . S
C1660 C1658 1.391 . S
C1660 C1661 1.400 . S
C1661 C1660 1.400 . S
C1661 C1662 1.398 . S
C1661 C1667 1.491 . S
C1662 H1653 0.950 . S
C1662 C1661 1.398 . S
C1662 C1663 1.391 . S
C1663 H1651 0.950 . S
C1663 C1659 1.393 . S
C1663 C1662 1.391 . S
C1664 H1654 0.950 . S
C1664 C1665 1.386 . S
C1664 C1666 1.391 . S
C1665 C1664 1.386 . S
C1665 C1669 1.393 . S
C1666 H1655 0.950 . S
C1666 C1664 1.391 . S
C1666 C1667 1.400 . S
C1667 C1661 1.491 . S
C1667 C1666 1.400 . S
C1667 C1668 1.398 . S
C1668 H1656 0.950 . S
C1668 C1667 1.398 . S
C1668 C1669 1.391 . S
C1669 H1657 0.950 . S
C1669 C1665 1.393 . S
C1669 C1668 1.391 . S
H1670 C1678 0.950 . S
H1671 C1683 0.950 . S
H1672 C1680 0.950 . S
H1673 C1682 0.950 . S
H1674 C1684 0.950 . S
H1675 C1686 0.950 . S
H1676 C1688 0.950 . S
H1677 C1689 0.950 . S
C1678 H1670 0.950 . S
C1678 C1679 1.386 . S
C1678 C1680 1.391 . S
C1679 C1678 1.386 . S
C1679 C1683 1.393 . S
C1680 H1672 0.950 . S
C1680 C1678 1.391 . S
C1680 C1681 1.400 . S
C1681 C1680 1.400 . S
C1681 C1682 1.398 . S
C1681 C1687 1.491 . S
C1682 H1673 0.950 . S
C1682 C1681 1.398 . S
C1682 C1683 1.391 . S
C1683 H1671 0.950 . S
C1683 C1679 1.393 . S
C1683 C1682 1.391 . S
C1684 H1674 0.950 . S
C1684 C1685 1.386 . S
C1684 C1686 1.391 . S
C1685 C1684 1.386 . S
C1685 C1689 1.393 . S
C1686 H1675 0.950 . S
C1686 C1684 1.391 . S
C1686 C1687 1.400 . S
C1687 C1681 1.491 . S
C1687 C1686 1.400 . S
C1687 C1688 1.398 . S
C1688 H1676 0.950 . S
C1688 C1687 1.398 . S
C1688 C1689 1.391 . S
C1689 H1677 0.950 . S
C1689 C1685 1.393 . S
C1689 C1688 1.391 . S
H1690 C1698 0.950 . S
H1691 C1703 0.950 . S
H1692 C1700 0.950 . S
H1693 C1702 0.950 . S
H1694 C1704 0.950 . S
H1695 C1706 0.950 . S
H1696 C1708 0.950 . S
H1697 C1709 0.950 . S
C1698 H1690 0.950 . S
C1698 C1699 1.386 . S
C1698 C1700 1.391 . S
C1699 C1698 1.386 . S
C1699 C1703 1.393 . S
C1700 H1692 0.950 . S
C1700 C1698 1.391 . S
C1700 C1701 1.400 . S
C1701 C1700 1.400 . S
C1701 C1702 1.398 . S
C1701 C1707 1.491 . S
C1702 H1693 0.950 . S
C1702 C1701 1.398 . S
C1702 C1703 1.391 . S
C1703 H1691 0.950 . S
C1703 C1699 1.393 . S
C1703 C1702 1.391 . S
C1704 H1694 0.950 . S
C1704 C1705 1.386 . S
C1704 C1706 1.391 . S
C1705 C1704 1.386 . S
C1705 C1709 1.393 . S
C1706 H1695 0.950 . S
C1706 C1704 1.391 . S
C1706 C1707 1.400 . S
C1707 C1701 1.491 . S
C1707 C1706 1.400 . S
C1707 C1708 1.398 . S
C1708 H1696 0.950 . S
C1708 C1707 1.398 . S
C1708 C1709 1.391 . S
C1709 H1697 0.950 . S
C1709 C1705 1.393 . S
C1709 C1708 1.391 . S
H1710 C1718 0.950 . S
H1711 C1723 0.950 . S
H1712 C1720 0.950 . S
H1713 C1722 0.950 . S
H1714 C1724 0.950 . S
H1715 C1726 0.950 . S
H1716 C1728 0.950 . S
H1717 C1729 0.950 . S
C1718 H1710 0.950 . S
C1718 C1719 1.386 . S
C1718 C1720 1.391 . S
C1719 C1718 1.386 . S
C1719 C1723 1.393 . S
C1720 H1712 0.950 . S
C1720 C1718 1.391 . S
C1720 C1721 1.400 . S
C1721 C1720 1.400 . S
C1721 C1722 1.398 . S
C1721 C1727 1.491 . S
C1722 H1713 0.950 . S
C1722 C1721 1.398 . S
C1722 C1723 1.391 . S
C1723 H1711 0.950 . S
C1723 C1719 1.393 . S
C1723 C1722 1.391 . S
C1724 H1714 0.950 . S
C1724 C1725 1.386 . S
C1724 C1726 1.391 . S
C1725 C1724 1.386 . S
C1725 C1729 1.393 . S
C1726 H1715 0.950 . S
C1726 C1724 1.391 . S
C1726 C1727 1.400 . S
C1727 C1721 1.491 . S
C1727 C1726 1.400 . S
C1727 C1728 1.398 . S
C1728 H1716 0.950 . S
C1728 C1727 1.398 . S
C1728 C1729 1.391 . S
C1729 H1717 0.950 . S
C1729 C1725 1.393 . S
C1729 C1728 1.391 . S
H1730 C1738 0.950 . S
H1731 C1743 0.950 . S
H1732 C1740 0.950 . S
H1733 C1742 0.950 . S
H1734 C1744 0.950 . S
H1735 C1746 0.950 . S
H1736 C1748 0.950 . S
H1737 C1749 0.950 . S
C1738 H1730 0.950 . S
C1738 C1739 1.386 . S
C1738 C1740 1.391 . S
C1739 C1738 1.386 . S
C1739 C1743 1.393 . S
C1740 H1732 0.950 . S
C1740 C1738 1.391 . S
C1740 C1741 1.400 . S
C1741 C1740 1.400 . S
C1741 C1742 1.398 . S
C1741 C1747 1.491 . S
C1742 H1733 0.950 . S
C1742 C1741 1.398 . S
C1742 C1743 1.391 . S
C1743 H1731 0.950 . S
C1743 C1739 1.393 . S
C1743 C1742 1.391 . S
C1744 H1734 0.950 . S
C1744 C1745 1.386 . S
C1744 C1746 1.391 . S
C1745 C1744 1.386 . S
C1745 C1749 1.393 . S
C1746 H1735 0.950 . S
C1746 C1744 1.391 . S
C1746 C1747 1.400 . S
C1747 C1741 1.491 . S
C1747 C1746 1.400 . S
C1747 C1748 1.398 . S
C1748 H1736 0.950 . S
C1748 C1747 1.398 . S
C1748 C1749 1.391 . S
C1749 H1737 0.950 . S
C1749 C1745 1.393 . S
C1749 C1748 1.391 . S
H1750 C1758 0.950 . S
H1751 C1763 0.950 . S
H1752 C1760 0.950 . S
H1753 C1762 0.950 . S
H1754 C1764 0.950 . S
H1755 C1766 0.950 . S
H1756 C1768 0.950 . S
H1757 C1769 0.950 . S
C1758 H1750 0.950 . S
C1758 C1759 1.386 . S
C1758 C1760 1.391 . S
C1759 C1758 1.386 . S
C1759 C1763 1.393 . S
C1760 H1752 0.950 . S
C1760 C1758 1.391 . S
C1760 C1761 1.400 . S
C1761 C1760 1.400 . S
C1761 C1762 1.398 . S
C1761 C1767 1.491 . S
C1762 H1753 0.950 . S
C1762 C1761 1.398 . S
C1762 C1763 1.391 . S
C1763 H1751 0.950 . S
C1763 C1759 1.393 . S
C1763 C1762 1.391 . S
C1764 H1754 0.950 . S
C1764 C1765 1.386 . S
C1764 C1766 1.391 . S
C1765 C1764 1.386 . S
C1765 C1769 1.393 . S
C1766 H1755 0.950 . S
C1766 C1764 1.391 . S
C1766 C1767 1.400 . S
C1767 C1761 1.491 . S
C1767 C1766 1.400 . S
C1767 C1768 1.398 . S
C1768 H1756 0.950 . S
C1768 C1767 1.398 . S
C1768 C1769 1.391 . S
C1769 H1757 0.950 . S
C1769 C1765 1.393 . S
C1769 C1768 1.391 . S
H1770 C1778 0.950 . S
H1771 C1783 0.950 . S
H1772 C1780 0.950 . S
H1773 C1782 0.950 . S
H1774 C1784 0.950 . S
H1775 C1786 0.950 . S
H1776 C1788 0.950 . S
H1777 C1789 0.950 . S
C1778 H1770 0.950 . S
C1778 C1779 1.386 . S
C1778 C1780 1.391 . S
C1779 C1778 1.386 . S
C1779 C1783 1.393 . S
C1780 H1772 0.950 . S
C1780 C1778 1.391 . S
C1780 C1781 1.400 . S
C1781 C1780 1.400 . S
C1781 C1782 1.398 . S
C1781 C1787 1.491 . S
C1782 H1773 0.950 . S
C1782 C1781 1.398 . S
C1782 C1783 1.391 . S
C1783 H1771 0.950 . S
C1783 C1779 1.393 . S
C1783 C1782 1.391 . S
C1784 H1774 0.950 . S
C1784 C1785 1.386 . S
C1784 C1786 1.391 . S
C1785 C1784 1.386 . S
C1785 C1789 1.393 . S
C1786 H1775 0.950 . S
C1786 C1784 1.391 . S
C1786 C1787 1.400 . S
C1787 C1781 1.491 . S
C1787 C1786 1.400 . S
C1787 C1788 1.398 . S
C1788 H1776 0.950 . S
C1788 C1787 1.398 . S
C1788 C1789 1.391 . S
C1789 H1777 0.950 . S
C1789 C1785 1.393 . S
C1789 C1788 1.391 . S
H1790 C1798 0.950 . S
H1791 C1803 0.950 . S
H1792 C1800 0.950 . S
H1793 C1802 0.950 . S
H1794 C1804 0.950 . S
H1795 C1806 0.950 . S
H1796 C1808 0.950 . S
H1797 C1809 0.950 . S
C1798 H1790 0.950 . S
C1798 C1799 1.386 . S
C1798 C1800 1.391 . S
C1799 C1798 1.386 . S
C1799 C1803 1.393 . S
C1800 H1792 0.950 . S
C1800 C1798 1.391 . S
C1800 C1801 1.400 . S
C1801 C1800 1.400 . S
C1801 C1802 1.398 . S
C1801 C1807 1.491 . S
C1802 H1793 0.950 . S
C1802 C1801 1.398 . S
C1802 C1803 1.391 . S
C1803 H1791 0.950 . S
C1803 C1799 1.393 . S
C1803 C1802 1.391 . S
C1804 H1794 0.950 . S
C1804 C1805 1.386 . S
C1804 C1806 1.391 . S
C1805 C1804 1.386 . S
C1805 C1809 1.393 . S
C1806 H1795 0.950 . S
C1806 C1804 1.391 . S
C1806 C1807 1.400 . S
C1807 C1801 1.491 . S
C1807 C1806 1.400 . S
C1807 C1808 1.398 . S
C1808 H1796 0.950 . S
C1808 C1807 1.398 . S
C1808 C1809 1.391 . S
C1809 H1797 0.950 . S
C1809 C1805 1.393 . S
C1809 C1808 1.391 . S
H1810 C1818 0.950 . S
H1811 C1823 0.950 . S
H1812 C1820 0.950 . S
H1813 C1822 0.950 . S
H1814 C1824 0.950 . S
H1815 C1826 0.950 . S
H1816 C1828 0.950 . S
H1817 C1829 0.950 . S
C1818 H1810 0.950 . S
C1818 C1819 1.386 . S
C1818 C1820 1.391 . S
C1819 C1818 1.386 . S
C1819 C1823 1.393 . S
C1820 H1812 0.950 . S
C1820 C1818 1.391 . S
C1820 C1821 1.400 . S
C1821 C1820 1.400 . S
C1821 C1822 1.398 . S
C1821 C1827 1.491 . S
C1822 H1813 0.950 . S
C1822 C1821 1.398 . S
C1822 C1823 1.391 . S
C1823 H1811 0.950 . S
C1823 C1819 1.393 . S
C1823 C1822 1.391 . S
C1824 H1814 0.950 . S
C1824 C1825 1.386 . S
C1824 C1826 1.391 . S
C1825 C1824 1.386 . S
C1825 C1829 1.393 . S
C1826 H1815 0.950 . S
C1826 C1824 1.391 . S
C1826 C1827 1.400 . S
C1827 C1821 1.491 . S
C1827 C1826 1.400 . S
C1827 C1828 1.398 . S
C1828 H1816 0.950 . S
C1828 C1827 1.398 . S
C1828 C1829 1.391 . S
C1829 H1817 0.950 . S
C1829 C1825 1.393 . S
C1829 C1828 1.391 . S
C885 C699 1.375 . S
C879 C56 1.461 . S
C905 C700 1.619 . S
C899 C154 1.528 . S
C925 C694 1.581 . S
C919 C236 1.597 . S
C939 C310 0.932 . S
C945 C693 0.309 . S
C959 C394 1.532 . S
C965 C696 1.617 . S
C985 C698 1.562 . S
C979 C476 1.579 . S
C999 C574 0.930 . S
C1005 C697 0.310 . S
C1019 C656 1.459 . S
C1025 C695 1.370 . S
C1045 C730 2.617 . S
C1039 C67 2.615 . S
C1059 C139 1.621 . S
C1065 C761 1.481 . S
C1085 C729 1.377 . S
C1079 C238 1.258 . S
C1105 C764 1.348 . S
C1099 C308 1.338 . S
C1119 C392 1.613 . S
C1125 C727 1.630 . S
C1145 C759 2.629 . S
C1139 C487 2.630 . S
C1159 C559 1.341 . S
C1165 C732 1.236 . S
C1179 C658 1.242 . S
C1185 C766 1.350 . S
C1199 C58 1.236 . S
C1205 C762 1.335 . S
C1219 C403 1.617 . S
C1225 C765 1.510 . S
C1245 C733 1.358 . S
C1239 C478 1.284 . S
C1265 C760 1.356 . S
C1259 C572 1.322 . S
C1279 C643 2.616 . S
C1285 C726 2.621 . S
C1299 C223 2.633 . S
C1305 C763 2.623 . S
C1325 C728 1.264 . S
C1319 C319 1.343 . S
C1339 C152 1.621 . S
C1345 C731 1.618 . S
C1359 C644 1.514 . S
C1365 C798 1.425 . S
C1379 C406 1.226 . S
C1385 C799 1.274 . S
C1405 C793 1.389 . S
C1399 C488 1.398 . S
C1425 C792 0.293 . S
C1419 C562 0.777 . S
C1439 C142 1.218 . S
C1445 C795 1.268 . S
C1465 C797 1.402 . S
C1459 C224 1.415 . S
C1479 C322 0.766 . S
C1485 C796 0.317 . S
C1499 C68 1.522 . S
C1505 C794 1.393 . S
C1519 C655 2.824 . S
C1525 C832 2.732 . S
C1545 C864 1.335 . S
C1539 C391 1.390 . S
C1559 C490 1.170 . S
C1565 C825 1.307 . S
C1579 C560 1.637 . S
C1585 C859 1.622 . S
C1605 C830 1.333 . S
C1599 C140 1.335 . S
C1619 C235 2.845 . S
C1625 C861 2.763 . S
C1645 C827 1.641 . S
C1639 C307 1.727 . S
C1665 C862 1.316 . S
C1659 C70 1.189 . S
C1685 C858 1.322 . S
C1679 C646 1.219 . S
C1699 C151 1.389 . S
C1705 C860 1.336 . S
C1719 C226 1.147 . S
C1725 C829 1.310 . S
C1745 C863 1.624 . S
C1739 C320 1.638 . S
C1759 C55 2.823 . S
C1765 C828 2.732 . S
C1779 C475 2.841 . S
C1785 C865 2.770 . S
C1805 C831 1.655 . S
C1799 C571 1.715 . S
C1825 C826 1.353 . S
C1819 C404 1.323 . S
