# Generated by pormake.
# Topology scu, (8,4)-cn, num edge types: 1
# Building blocks:
#     Node 0, Type 0, BuildingBlock: GIZVER_clean_sbu_0, # of connection points: 8
#     Node 1, Type 1, BuildingBlock: KOZSID_clean_sbu_0, # of connection points: 4
#     Node 2, Type 1, BuildingBlock: KOZSID_clean_sbu_0, # of connection points: 4
#     Edge 3, Type (0, 1), BuildingBlock: UVAHIK_clean_linker_0, # of connection points: 2
#     Edge 4, Type (0, 1), BuildingBlock: UVAHIK_clean_linker_0, # of connection points: 2
#     Edge 5, Type (0, 1), BuildingBlock: UVAHIK_clean_linker_0, # of connection points: 2
#     Edge 6, Type (0, 1), BuildingBlock: UVAHIK_clean_linker_0, # of connection points: 2
#     Edge 7, Type (0, 1), BuildingBlock: UVAHIK_clean_linker_0, # of connection points: 2
#     Edge 8, Type (0, 1), BuildingBlock: UVAHIK_clean_linker_0, # of connection points: 2
#     Edge 9, Type (0, 1), BuildingBlock: UVAHIK_clean_linker_0, # of connection points: 2
#     Edge 10, Type (0, 1), BuildingBlock: UVAHIK_clean_linker_0, # of connection points: 2
# Relax obj value: 0.045
# Max RMSD: 0.114
# Mean RMSD: 0.104
data_MOF--net-scu--node1-GIZVER_clean_sbu_0--node2-KOZSID_clean_sbu_0--edge1-UVAHIK_clean_linker_0
_symmetry_space_group_name_H-M    P1
_symmetry_Int_Tables_number       1
_symmetry_cell_setting            triclinic
loop_
_symmetry_equiv_pos_as_xyz
'x, y, z'
_cell_length_a     33.222058
_cell_length_b     33.834764
_cell_length_c     29.99523
_cell_angle_alpha  94.482583
_cell_angle_beta   80.979796
_cell_angle_gamma 112.01416
loop_
_atom_site_label
_atom_site_type_symbol
_atom_site_fract_x
_atom_site_fract_y
_atom_site_fract_z
_atom_type_partial_charge
Co0 Co 0.01307 0.9577 0.10099 0.0
Co1 Co 0.08334 0.01712 0.06326 0.0
Co2 Co 0.00445 0.01041 0.01064 0.0
O3 O 0.03368 0.97955 0.04067 0.0
H4 H 0.04164 0.9593 0.02025 0.0
O5 O 0.9752 0.04137 0.98077 0.0
Co6 Co 0.99677 0.06493 0.92133 0.0
Co7 Co 0.92742 1.0045 0.95572 0.0
H8 H 0.96625 0.06078 1.00161 0.0
O9 O 0.12779 0.99959 0.0725 0.0
O10 O 0.06836 0.99751 0.12171 0.0
O11 O 0.09109 0.07633 0.06765 0.0
O12 O 0.02581 0.06516 0.04783 0.0
O13 O 0.05796 0.03065 0.96446 0.0
O14 O 0.01554 0.0905 0.86832 0.0
O15 O 0.97622 0.10858 0.92883 0.0
O16 O 0.02297 0.02352 0.90531 0.0
O17 O 0.98323 0.95549 0.97351 0.0
O18 O 0.92033 0.9458 0.94896 0.0
O19 O 0.9411 0.02713 0.89873 0.0
O20 O 0.88192 0.02073 0.95078 0.0
C21 C 0.01587 0.90881 0.1367 0.0
C22 C 0.95209 0.99578 0.09922 0.0
C23 C 0.06004 0.08885 0.06503 0.0
C24 C 0.10598 0.99272 0.11285 0.0
C25 C 0.99609 0.11571 0.88731 0.0
C26 C 0.05659 0.0251 0.922 0.0
C27 C 0.95028 0.93258 0.95393 0.0
C28 C 0.90258 0.02994 0.91015 0.0
O29 O 0.99595 0.93386 0.15508 0.0
O30 O 0.03451 0.91473 0.09468 0.0
O31 O 0.95083 0.9902 0.05675 0.0
O32 O 0.98609 0.99848 0.11582 0.0
C33 C 0.05293 0.58779 0.44706 0.0
C34 C 0.09421 0.61769 0.43292 0.0
C35 C 0.12321 0.60848 0.45374 0.0
C36 C 0.09816 0.5738 0.47955 0.0
N37 N 0.05481 0.56016 0.47654 0.0
Co38 Co 0.00684 0.51135 0.50986 0.0
N39 N 0.04971 0.49782 0.54045 0.0
C40 C 0.09381 0.51793 0.53457 0.0
C41 C 0.11497 0.50106 0.55884 0.0
C42 C 0.08253 0.46816 0.5817 0.0
C43 C 0.04314 0.467 0.57034 0.0
N44 N 0.95882 0.46289 0.54357 0.0
C45 C 0.96055 0.43597 0.57398 0.0
C46 C 0.91894 0.40802 0.59051 0.0
C47 C 0.89001 0.41705 0.56942 0.0
C48 C 0.91534 0.4501 0.5416 0.0
N49 N 0.96401 0.5246 0.47892 0.0
C50 C 0.9201 0.50341 0.48336 0.0
C51 C 0.89917 0.51896 0.45736 0.0
C52 C 0.93159 0.55215 0.43489 0.0
C53 C 0.97062 0.55515 0.44873 0.0
N54 N 0.01326 0.47153 0.45915 0.0
C55 C 0.02258 0.41479 0.38737 0.0
C56 C 0.98116 0.41226 0.40877 0.0
C57 C 0.9773 0.44071 0.44412 0.0
C58 C 0.0592 0.44643 0.40255 0.0
C59 C 0.05386 0.47404 0.43816 0.0
N60 N 1.00045 0.55114 0.56055 0.0
C61 C 0.95481 0.57855 0.61499 0.0
C62 C 0.99151 0.60765 0.63246 0.0
C63 C 0.03275 0.60793 0.61336 0.0
C64 C 0.03642 0.57953 0.57795 0.0
C65 C 0.95999 0.55102 0.57919 0.0
H66 H 0.06873 0.58113 0.56531 0.0
H67 H 0.93076 0.53005 0.5671 0.0
H68 H 0.94482 0.43697 0.45884 0.0
H69 H 0.08316 0.49718 0.44799 0.0
C70 C 0.1144 0.55296 0.50647 0.0
C71 C 0.01302 0.58743 0.43188 0.0
C72 C 1.00053 0.4357 0.5885 0.0
C73 C 0.89933 0.46958 0.51296 0.0
H74 H 0.10256 0.64362 0.41002 0.0
H75 H 0.15838 0.6251 0.45047 0.0
H76 H 0.14987 0.51143 0.55975 0.0
H77 H 0.08745 0.44731 0.60409 0.0
H78 H 0.91026 0.38364 0.61538 0.0
H79 H 0.85467 0.40144 0.57391 0.0
H80 H 0.86444 0.50757 0.45511 0.0
H81 H 0.92697 0.57188 0.41095 0.0
H82 H 0.95166 0.38801 0.39887 0.0
H83 H 0.09207 0.45034 0.38678 0.0
H84 H 0.92217 0.57747 0.62834 0.0
H85 H 0.06216 0.62962 0.62607 0.0
C86 C 0.42993 0.97271 0.58757 0.0
C87 C 0.40291 0.93404 0.60685 0.0
C88 C 0.41542 0.9034 0.58339 0.0
C89 C 0.44916 0.92499 0.55123 0.0
N90 N 0.45951 0.96769 0.55312 0.0
Co91 Co 0.50426 0.01059 0.51043 0.0
N92 N 0.52228 0.96541 0.47556 0.0
C93 C 0.50697 0.92346 0.48498 0.0
C94 C 0.527 0.90052 0.45655 0.0
C95 C 0.55747 0.92966 0.42761 0.0
C96 C 0.55419 0.96884 0.44012 0.0
N97 N 0.54718 0.05313 0.46621 0.0
C98 C 0.5752 0.04792 0.43022 0.0
C99 C 0.5989 0.08597 0.40813 0.0
C100 C 0.58561 0.11636 0.43112 0.0
C101 C 0.55461 0.09524 0.46575 0.0
N102 N 0.48802 0.0561 0.54684 0.0
C103 C 0.50642 0.09857 0.54002 0.0
C104 C 0.48894 0.12203 0.57072 0.0
C105 C 0.45735 0.0928 0.59877 0.0
C106 C 0.45733 0.05302 0.58341 0.0
N107 N 0.55055 0.01938 0.54898 0.0
C108 C 0.61681 0.03155 0.60269 0.0
C109 C 0.61716 0.06492 0.57794 0.0
C110 C 0.58375 0.05833 0.55188 0.0
C111 C 0.58288 0.99201 0.60017 0.0
C112 C 0.55058 0.98654 0.57302 0.0
N113 N 0.45797 1.00183 0.47196 0.0
C114 C 0.413 0.02943 0.43754 0.0
C115 C 0.38986 0.989 0.42059 0.0
C116 C 0.4017 0.95517 0.42917 0.0
C117 C 0.43537 0.96215 0.455 0.0
C118 C 0.44693 0.03518 0.46254 0.0
H119 H 0.44223 0.93487 0.46108 0.0
H120 H 0.46363 0.06692 0.47398 0.0
H121 H 0.58553 0.08532 0.53449 0.0
H122 H 0.52608 0.95539 0.57197 0.0
C123 C 0.47267 0.90635 0.51971 0.0
C124 C 0.42594 0.0132 0.60305 0.0
C125 C 0.58235 1.00832 0.41742 0.0
C126 C 0.53601 0.11479 0.50137 0.0
H127 H 0.37674 0.92857 0.63489 0.0
H128 H 0.40153 0.86942 0.58903 0.0
H129 H 0.52023 0.86665 0.45683 0.0
H130 H 0.57969 0.92289 0.40041 0.0
H131 H 0.62412 0.09147 0.37917 0.0
H132 H 0.59829 0.15014 0.42446 0.0
H133 H 0.49699 0.15616 0.57153 0.0
H134 H 0.4359 0.09986 0.6266 0.0
H135 H 0.64266 0.09624 0.57935 0.0
H136 H 0.58158 0.96518 0.61863 0.0
H137 H 0.40532 0.0567 0.43106 0.0
H138 H 0.38447 0.92324 0.41674 0.0
C139 C 0.09382 0.15226 0.11479 0.0
C140 C 0.06064 0.12945 0.08837 0.0
C141 C 0.09112 0.18687 0.1421 0.0
C142 C 0.0089 0.23018 0.19938 0.0
H143 H 0.11178 0.3267 0.22551 0.0
C144 C 0.99798 0.37059 0.31796 0.0
C145 C 0.02761 0.38458 0.34984 0.0
C146 C 1.00253 0.34192 0.28309 0.0
C147 C 0.08276 0.29981 0.21873 0.0
H148 H 0.99972 0.12686 0.06823 0.0
H149 H 0.99561 0.18783 0.11498 0.0
H150 H 0.11949 0.27387 0.16808 0.0
H151 H 0.08507 0.37866 0.36995 0.0
H152 H 0.09325 0.32926 0.30887 0.0
H153 H 0.97225 0.25619 0.25015 0.0
C154 C 0.02321 0.17827 0.11546 0.0
C155 C 0.08716 0.26947 0.18582 0.0
C156 C 0.02579 0.14349 0.08828 0.0
C157 C 0.06207 0.36931 0.34565 0.0
C158 C 0.06677 0.34089 0.31062 0.0
C159 C 0.00449 0.26068 0.23206 0.0
C160 C 0.05531 0.1998 0.14355 0.0
C161 C 0.05036 0.23393 0.17608 0.0
C162 C 0.03698 0.32673 0.27901 0.0
C163 C 0.04143 0.29557 0.24252 0.0
H164 H 0.1211 0.14237 0.11591 0.0
H165 H 0.11625 0.20227 0.16355 0.0
H166 H 0.97989 0.20292 0.19346 0.0
H167 H 0.97149 0.38216 0.31957 0.0
H168 H 0.97932 0.332 0.25897 0.0
C169 C 0.91382 1.00114 0.1771 0.0
C170 C 0.9137 0.99886 0.13008 0.0
C171 C 0.87743 1.00257 0.20664 0.0
C172 C 0.77759 0.02775 0.21446 0.0
H173 H 0.74135 0.95864 0.3213 0.0
C174 C 0.61807 1.00948 0.33705 0.0
C175 C 0.62006 1.00854 0.38329 0.0
C176 C 0.65329 1.00852 0.30506 0.0
C177 C 0.75129 0.97856 0.29196 0.0
H178 H 0.87518 0.99713 0.07735 0.0
H179 H 0.81143 0.99964 0.12918 0.0
H180 H 0.80361 0.95681 0.26746 0.0
H181 H 0.65977 1.0062 0.43284 0.0
H182 H 0.72173 1.00518 0.37727 0.0
H183 H 0.72539 0.04979 0.23926 0.0
C184 C 0.83993 1.00043 0.14304 0.0
C185 C 0.787 0.97745 0.26101 0.0
C186 C 0.87639 0.99878 0.11336 0.0
C187 C 0.6577 1.00687 0.39723 0.0
C188 C 0.69293 1.00598 0.36536 0.0
C189 C 0.74187 0.02899 0.24558 0.0
C190 C 0.83988 1.00191 0.19007 0.0
C191 C 0.80084 1.00225 0.22204 0.0
C192 C 0.69113 1.00654 0.3188 0.0
C193 C 0.72845 1.00463 0.28493 0.0
H194 H 0.94197 1.00142 0.1913 0.0
H195 H 0.87881 1.00441 0.24262 0.0
H196 H 0.78764 0.04755 0.18501 0.0
H197 H 0.58909 0.01056 0.32575 0.0
H198 H 0.65051 1.00851 0.26957 0.0
C199 C 0.03916 0.84707 0.14674 0.0
C200 C 0.01849 0.87546 0.16465 0.0
C201 C 0.04124 0.81607 0.17405 0.0
C202 C 0.03225 0.79033 0.29481 0.0
H203 H 0.00935 0.67454 0.24972 0.0
C204 C 0.99858 0.65223 0.41484 0.0
C205 C 0.01543 0.62042 0.39999 0.0
C206 C 1.0009 0.68328 0.38516 0.0
C207 C 0.01639 0.70683 0.26278 0.0
H208 H 0.98412 0.89341 0.22567 0.0
H209 H 0.98751 0.83981 0.27258 0.0
H210 H 0.01104 0.72881 0.19952 0.0
H211 H 0.04779 0.59589 0.34261 0.0
H212 H 0.05248 0.65039 0.29063 0.0
H213 H 0.0375 0.76857 0.358 0.0
C214 C 1.00254 0.84152 0.23767 0.0
C215 C 0.01738 0.73803 0.23388 0.0
C216 C 1.0003 0.87219 0.2105 0.0
C217 C 0.03456 0.62014 0.35481 0.0
C218 C 0.03694 0.65122 0.32505 0.0
C219 C 0.03132 0.75924 0.32361 0.0
C220 C 0.02303 0.81297 0.21999 0.0
C221 C 0.02478 0.78013 0.24965 0.0
C222 C 0.02024 0.68337 0.3398 0.0
C223 C 0.02287 0.71686 0.30826 0.0
H224 H 0.05374 0.84878 0.11168 0.0
H225 H 0.05762 0.79489 0.15931 0.0
H226 H 0.03896 0.82255 0.30801 0.0
H227 H 0.98356 0.653 0.44951 0.0
H228 H 0.987 0.70695 0.39772 0.0
C229 C 0.16021 0.96736 0.1381 0.0
C230 C 0.12524 0.98175 0.14906 0.0
C231 C 0.18133 0.96077 0.17195 0.0
C232 C 0.2099 1.00276 0.28171 0.0
H233 H 0.2459 0.90656 0.28474 0.0
C234 C 0.32122 0.99913 0.4094 0.0
C235 C 0.35381 0.98237 0.3939 0.0
C236 C 0.28794 0.99402 0.38363 0.0
C237 C 0.23654 0.93388 0.28412 0.0
H238 H 0.08353 0.99851 0.20424 0.0
H239 H 0.12135 0.98799 0.2635 0.0
H240 H 0.19631 0.90534 0.2321 0.0
H241 H 0.37722 0.94708 0.33951 0.0
H242 H 0.32022 0.93942 0.29365 0.0
H243 H 0.25166 0.03251 0.33169 0.0
C244 C 0.13223 0.98178 0.22861 0.0
C245 C 0.20786 0.93297 0.25418 0.0
C246 C 0.11059 0.9877 0.19474 0.0
C247 C 0.35224 0.95998 0.3524 0.0
C248 C 0.31934 0.95541 0.32629 0.0
C249 C 0.23904 1.00397 0.31116 0.0
C250 C 0.16829 0.96898 0.21743 0.0
C251 C 0.19471 0.96762 0.25234 0.0
C252 C 0.28686 0.9726 0.3414 0.0
C253 C 0.25326 0.9698 0.31237 0.0
H254 H 0.17194 0.96205 0.10323 0.0
H255 H 0.20917 0.9511 0.16238 0.0
H256 H 0.20078 0.03018 0.28051 0.0
H257 H 0.32137 0.01603 0.44161 0.0
H258 H 0.26308 1.00694 0.39691 0.0
C259 C 0.91836 0.8701 0.90249 0.0
C260 C 0.95003 0.89197 0.93091 0.0
C261 C 0.92153 0.83548 0.87559 0.0
C262 C 0.92523 0.75289 0.83221 0.0
H263 H 0.0419 0.76306 0.77607 0.0
C264 C 0.95441 0.6237 0.70753 0.0
C265 C 0.98689 0.63775 0.67 0.0
C266 C 0.95 0.65213 0.74272 0.0
C267 C 0.00902 0.75981 0.79114 0.0
H268 H 0.00865 0.89282 0.95497 0.0
H269 H 0.01345 0.83165 0.90897 0.0
H270 H 0.03285 0.81625 0.83185 0.0
H271 H 0.0398 0.69279 0.63969 0.0
H272 H 0.03158 0.74257 0.70033 0.0
H273 H 0.90128 0.6977 0.78979 0.0
C274 C 0.98675 0.84203 0.90661 0.0
C275 C 0.00385 0.79003 0.8238 0.0
C276 C 0.98376 0.87692 0.93335 0.0
C277 C 0.01484 0.68086 0.66845 0.0
C278 C 0.01019 0.70937 0.70338 0.0
C279 C 0.93038 0.72287 0.79927 0.0
C280 C 0.95625 0.82146 0.87656 0.0
C281 C 0.96185 0.78728 0.84445 0.0
C282 C 0.97772 0.69544 0.74106 0.0
C283 C 0.97233 0.72617 0.77788 0.0
H284 H 0.89198 0.88077 0.89951 0.0
H285 H 0.8977 0.82094 0.85256 0.0
H286 H 0.8924 0.74931 0.84777 0.0
H287 H 0.93273 0.59054 0.70997 0.0
H288 H 0.9251 0.64 0.77143 0.0
C289 C 0.09188 0.0114 0.84511 0.0
C290 C 0.09452 0.02073 0.89135 0.0
C291 C 0.12785 1.00865 0.81571 0.0
C292 C 0.24833 0.04427 0.80273 0.0
H293 H 0.23159 0.95682 0.70833 0.0
C294 C 0.39427 0.02348 0.68271 0.0
C295 C 0.38855 0.01357 0.63731 0.0
C296 C 0.35878 0.02322 0.71495 0.0
C297 C 0.23684 0.98177 0.73415 0.0
H298 H 0.13721 0.03395 0.9429 0.0
H299 H 0.20009 0.02913 0.89145 0.0
H300 H 0.16908 0.95782 0.76249 0.0
H301 H 0.34208 0.99572 0.58948 0.0
H302 H 0.28 0.99588 0.64543 0.0
H303 H 0.31598 0.06861 0.77405 0.0
C304 C 0.17015 0.02428 0.87797 0.0
C305 C 0.20096 0.98227 0.7653 0.0
C306 C 0.13401 0.02679 0.9075 0.0
C307 C 0.347 1.00339 0.62446 0.0
C308 C 0.31152 1.00321 0.65659 0.0
C309 C 0.28423 0.04387 0.77146 0.0
C310 C 0.16754 0.01532 0.83166 0.0
C311 C 0.20617 0.0137 0.79979 0.0
C312 C 0.31687 0.01303 0.70233 0.0
C313 C 0.27892 0.01279 0.73653 0.0
H314 H 0.06205 1.00653 0.8314 0.0
H315 H 0.12482 1.0022 0.7802 0.0
H316 H 0.25343 0.06926 0.82851 0.0
H317 H 0.42616 0.03118 0.69319 0.0
H318 H 0.36406 0.03041 0.74986 0.0
C319 C 0.02558 0.16343 0.82074 0.0
C320 C 0.9956 0.15068 0.86037 0.0
C321 C 0.02448 0.19442 0.79324 0.0
C322 C 0.9811 0.28109 0.78988 0.0
H323 H 0.01023 0.26717 0.66083 0.0
C324 C 0.00998 0.41489 0.66414 0.0
C325 C 0.99787 0.40289 0.62084 0.0
C326 C 0.0078 0.38412 0.69419 0.0
C327 C 1.00145 0.27152 0.69667 0.0
H328 H 0.94082 0.16088 0.90213 0.0
H329 H 0.93824 0.2147 0.85353 0.0
H330 H 0.00821 0.21369 0.71126 0.0
H331 H 0.9734 0.34939 0.57519 0.0
H332 H 0.96819 0.29548 0.62773 0.0
H333 H 0.973 0.33839 0.77493 0.0
C334 C 0.96327 0.20117 0.84416 0.0
C335 C 1.00098 0.24097 0.72588 0.0
C336 C 0.96466 0.17024 0.87207 0.0
C337 C 0.98306 0.35948 0.60835 0.0
C338 C 0.98047 0.32866 0.63846 0.0
C339 C 0.98129 0.31161 0.76055 0.0
C340 C 0.99297 0.21343 0.80402 0.0
C341 C 0.9913 0.24543 0.77302 0.0
C342 C 0.99309 0.34045 0.68182 0.0
C343 C 0.99176 0.30747 0.71343 0.0
H344 H 0.05015 0.14939 0.81077 0.0
H345 H 0.04869 0.20356 0.76345 0.0
H346 H 0.97375 0.28594 0.82588 0.0
H347 H 0.02144 0.44819 0.6746 0.0
H348 H 0.01844 0.39476 0.72684 0.0
C349 C 0.83678 0.03805 0.8881 0.0
C350 C 0.88025 0.04045 0.8763 0.0
C351 C 0.814 0.04496 0.85618 0.0
C352 C 0.81229 0.04183 0.73332 0.0
H353 H 0.72149 0.08835 0.77055 0.0
C354 C 0.69579 0.05712 0.61445 0.0
C355 C 0.65114 0.03811 0.63162 0.0
C356 C 0.72806 0.06287 0.6419 0.0
C357 C 0.74681 0.07539 0.75968 0.0
H358 H 0.93449 0.05368 0.82182 0.0
H359 H 0.8948 0.06679 0.76595 0.0
H360 H 0.77222 0.09169 0.82256 0.0
H361 H 0.60511 0.01089 0.69085 0.0
H362 H 0.66144 0.02171 0.73907 0.0
H363 H 0.78651 0.02572 0.67023 0.0
C364 C 0.8781 0.05861 0.79988 0.0
C365 C 0.77579 0.07711 0.78947 0.0
C366 C 0.90092 0.05132 0.83195 0.0
C367 C 0.63931 0.0254 0.67676 0.0
C368 C 0.67147 0.03186 0.70437 0.0
C369 C 0.78361 0.04068 0.70323 0.0
C370 C 0.83411 0.05499 0.81153 0.0
C371 C 0.808 0.05911 0.77726 0.0
C372 C 0.71613 0.05053 0.68719 0.0
C373 C 0.74985 0.05635 0.71667 0.0
H374 H 0.81969 0.02968 0.92188 0.0
H375 H 0.77999 0.04099 0.86634 0.0
H376 H 0.83639 0.02733 0.72283 0.0
H377 H 0.7057 0.06699 0.57965 0.0
H378 H 0.76228 0.07737 0.62793 0.0
loop_
_geom_bond_atom_site_label_1
_geom_bond_atom_site_label_2
_geom_bond_distance
_geom_bond_site_symmetry_2
_ccdc_geom_bond_type
Co0 O3 2.046 . S
Co0 O10 2.276 . S
Co0 O29 2.287 1_455 S
Co0 O30 2.083 . S
Co0 O32 1.999 1_455 S
Co1 O3 2.122 1_545 S
Co1 O9 2.073 . S
Co1 O10 2.327 1_545 S
Co1 O11 1.976 . S
Co2 O3 2.093 1_545 S
Co2 O5 2.081 1_454 S
Co2 O12 2.143 . S
Co2 O13 2.129 1_554 S
Co2 O17 2.080 1_444 S
Co2 O31 2.158 1_445 S
O3 Co0 2.046 . S
O3 Co1 2.122 1_565 S
O3 Co2 2.093 1_565 S
O3 H4 0.980 . S
H4 O3 0.980 . S
O5 Co2 2.081 1_656 S
O5 Co6 2.042 1_655 S
O5 Co7 2.122 1_545 S
O5 H8 0.980 . S
Co6 O5 2.042 1_455 S
Co6 O14 2.286 . S
Co6 O15 2.069 1_455 S
Co6 O16 2.015 . S
Co6 O19 2.264 1_455 S
Co7 O5 2.122 1_565 S
Co7 O18 1.976 . S
Co7 O19 2.327 1_565 S
Co7 O20 2.073 . S
H8 O5 0.980 . S
O9 Co1 2.073 . S
O9 C24 1.245 1_545 S
O10 Co0 2.276 . S
O10 Co1 2.327 1_565 S
O10 C24 1.257 . S
O11 Co1 1.976 . S
O11 C23 1.251 . S
O12 Co2 2.143 . S
O12 C23 1.274 . S
O13 Co2 2.129 1_556 S
O13 C26 1.246 . S
O14 Co6 2.286 . S
O14 C25 1.259 1_455 S
O15 Co6 2.069 1_655 S
O15 C25 1.289 . S
O16 Co6 2.015 . S
O16 C26 1.257 . S
O17 Co2 2.080 1_666 S
O17 C27 1.274 . S
O18 Co7 1.976 . S
O18 C27 1.251 . S
O19 Co6 2.264 1_655 S
O19 Co7 2.327 1_545 S
O19 C28 1.257 . S
O20 Co7 2.073 . S
O20 C28 1.245 1_565 S
C21 O29 1.259 1_455 S
C21 O30 1.289 . S
C22 O31 1.246 . S
C22 O32 1.257 . S
C23 O11 1.251 . S
C23 O12 1.274 . S
C24 O9 1.245 1_565 S
C24 O10 1.257 . S
C25 O14 1.259 1_655 S
C25 O15 1.289 . S
C26 O13 1.246 . S
C26 O16 1.257 . S
C27 O17 1.274 . S
C27 O18 1.251 . S
C28 O19 1.257 . S
C28 O20 1.245 1_545 S
O29 Co0 2.287 1_655 S
O29 C21 1.259 1_655 S
O30 Co0 2.083 . S
O30 C21 1.289 . S
O31 Co2 2.158 1_665 S
O31 C22 1.246 . S
O32 Co0 1.999 1_655 S
O32 C22 1.257 . S
C33 C34 1.443 . S
C33 N37 1.376 . S
C33 C71 1.389 . S
C34 C33 1.443 . S
C34 C35 1.340 . S
C34 H74 0.951 . S
C35 C34 1.340 . S
C35 C36 1.439 . S
C35 H75 0.950 . S
C36 C35 1.439 . S
C36 N37 1.374 . S
C36 C70 1.395 . S
N37 C33 1.376 . S
N37 C36 1.374 . S
N37 Co38 2.008 . S
Co38 N37 2.008 . S
Co38 N39 1.995 . S
Co38 N44 2.008 1_455 S
Co38 N49 1.995 1_455 S
Co38 N54 2.282 . S
Co38 N60 2.282 1_455 S
N39 Co38 1.995 . S
N39 C40 1.376 . S
N39 C43 1.383 . S
C40 N39 1.376 . S
C40 C41 1.446 . S
C40 C70 1.391 . S
C41 C40 1.446 . S
C41 C42 1.339 . S
C41 H76 0.949 . S
C42 C41 1.339 . S
C42 C43 1.439 . S
C42 H77 0.950 . S
C43 N39 1.383 . S
C43 C42 1.439 . S
C43 C72 1.404 . S
N44 Co38 2.008 1_655 S
N44 C45 1.376 . S
N44 C48 1.374 . S
C45 N44 1.376 . S
C45 C46 1.443 . S
C45 C72 1.370 1_655 S
C46 C45 1.443 . S
C46 C47 1.340 . S
C46 H78 0.951 . S
C47 C46 1.340 . S
C47 C48 1.439 . S
C47 H79 0.950 . S
C48 N44 1.374 . S
C48 C47 1.439 . S
C48 C73 1.395 . S
N49 Co38 1.995 1_655 S
N49 C50 1.376 . S
N49 C53 1.383 . S
C50 N49 1.376 . S
C50 C51 1.446 . S
C50 C73 1.391 . S
C51 C50 1.446 . S
C51 C52 1.339 . S
C51 H80 0.949 . S
C52 C51 1.339 . S
C52 C53 1.439 . S
C52 H81 0.950 . S
C53 N49 1.383 . S
C53 C52 1.439 . S
C53 C71 1.392 1_655 S
N54 Co38 2.282 . S
N54 C57 1.332 1_455 S
N54 C59 1.332 . S
C55 C56 1.386 1_455 S
C55 C58 1.388 . S
C56 C55 1.386 1_655 S
C56 C57 1.382 . S
C56 H82 0.950 . S
C57 N54 1.332 1_655 S
C57 C56 1.382 . S
C57 H68 0.952 . S
C58 C55 1.388 . S
C58 C59 1.382 . S
C58 H83 0.950 . S
C59 N54 1.332 . S
C59 C58 1.382 . S
C59 H69 0.948 . S
N60 Co38 2.282 1_655 S
N60 C64 1.332 1_655 S
N60 C65 1.332 . S
C61 C62 1.372 1_655 S
C61 C65 1.382 . S
C61 H84 0.950 . S
C62 C61 1.372 1_455 S
C62 C63 1.407 . S
C63 C62 1.407 . S
C63 C64 1.382 . S
C63 H85 0.950 . S
C64 N60 1.332 1_455 S
C64 C63 1.382 . S
C64 H66 0.952 . S
C65 N60 1.332 . S
C65 C61 1.382 . S
C65 H67 0.948 . S
H66 C64 0.952 . S
H67 C65 0.948 . S
H68 C57 0.952 . S
H69 C59 0.948 . S
C70 C36 1.395 . S
C70 C40 1.391 . S
C71 C33 1.389 . S
C71 C53 1.392 1_455 S
C72 C43 1.404 . S
C72 C45 1.370 1_455 S
C73 C48 1.395 . S
C73 C50 1.391 . S
H74 C34 0.951 . S
H75 C35 0.950 . S
H76 C41 0.949 . S
H77 C42 0.950 . S
H78 C46 0.951 . S
H79 C47 0.950 . S
H80 C51 0.949 . S
H81 C52 0.950 . S
H82 C56 0.950 . S
H83 C58 0.950 . S
H84 C61 0.950 . S
H85 C63 0.950 . S
C86 C87 1.443 . S
C86 N90 1.376 . S
C86 C124 1.381 1_565 S
C87 C86 1.443 . S
C87 C88 1.340 . S
C87 H127 0.951 . S
C88 C87 1.340 . S
C88 C89 1.439 . S
C88 H128 0.950 . S
C89 C88 1.439 . S
C89 N90 1.374 . S
C89 C123 1.395 . S
N90 C86 1.376 . S
N90 C89 1.374 . S
N90 Co91 1.996 1_565 S
Co91 N90 1.996 1_545 S
Co91 N92 1.974 1_545 S
Co91 N97 2.021 . S
Co91 N102 2.016 . S
Co91 N107 2.273 1_545 S
Co91 N113 2.293 . S
N92 Co91 1.974 1_565 S
N92 C93 1.376 . S
N92 C96 1.383 . S
C93 N92 1.376 . S
C93 C94 1.446 . S
C93 C123 1.391 . S
C94 C93 1.446 . S
C94 C95 1.339 . S
C94 H129 0.949 . S
C95 C94 1.339 . S
C95 C96 1.439 . S
C95 H130 0.950 . S
C96 N92 1.383 . S
C96 C95 1.439 . S
C96 C125 1.392 1_565 S
N97 Co91 2.021 . S
N97 C98 1.376 . S
N97 C101 1.374 . S
C98 N97 1.376 . S
C98 C99 1.443 . S
C98 C125 1.389 . S
C99 C98 1.443 . S
C99 C100 1.340 . S
C99 H131 0.951 . S
C100 C99 1.340 . S
C100 C101 1.439 . S
C100 H132 0.950 . S
C101 N97 1.374 . S
C101 C100 1.439 . S
C101 C126 1.395 . S
N102 Co91 2.016 . S
N102 C103 1.376 . S
N102 C106 1.383 . S
C103 N102 1.376 . S
C103 C104 1.446 . S
C103 C126 1.391 . S
C104 C103 1.446 . S
C104 C105 1.339 . S
C104 H133 0.949 . S
C105 C104 1.339 . S
C105 C106 1.439 . S
C105 H134 0.950 . S
C106 N102 1.383 . S
C106 C105 1.439 . S
C106 C124 1.398 . S
N107 Co91 2.273 1_565 S
N107 C110 1.332 1_565 S
N107 C112 1.332 . S
C108 C109 1.397 . S
C108 C111 1.381 1_545 S
C109 C108 1.397 . S
C109 C110 1.382 . S
C109 H135 0.950 . S
C110 N107 1.332 1_545 S
C110 C109 1.382 . S
C110 H121 0.952 . S
C111 C108 1.381 1_565 S
C111 C112 1.382 . S
C111 H136 0.950 . S
C112 N107 1.332 . S
C112 C111 1.382 . S
C112 H122 0.948 . S
N113 Co91 2.293 . S
N113 C117 1.332 1_545 S
N113 C118 1.332 . S
C114 C115 1.388 . S
C114 C118 1.382 . S
C114 H137 0.950 . S
C115 C114 1.388 . S
C115 C116 1.386 1_545 S
C116 C115 1.386 1_565 S
C116 C117 1.382 . S
C116 H138 0.950 . S
C117 N113 1.332 1_565 S
C117 C116 1.382 . S
C117 H119 0.952 . S
C118 N113 1.332 . S
C118 C114 1.382 . S
C118 H120 0.948 . S
H119 C117 0.952 . S
H120 C118 0.948 . S
H121 C110 0.952 . S
H122 C112 0.948 . S
C123 C89 1.395 . S
C123 C93 1.391 . S
C124 C86 1.381 1_545 S
C124 C106 1.398 . S
C125 C96 1.392 1_545 S
C125 C98 1.389 . S
C126 C101 1.395 . S
C126 C103 1.391 . S
H127 C87 0.951 . S
H128 C88 0.950 . S
H129 C94 0.949 . S
H130 C95 0.950 . S
H131 C99 0.951 . S
H132 C100 0.950 . S
H133 C104 0.949 . S
H134 C105 0.950 . S
H135 C109 0.950 . S
H136 C111 0.950 . S
H137 C114 0.950 . S
H138 C116 0.950 . S
C139 C140 1.349 . S
C139 C141 1.327 . S
C139 H164 0.950 . S
C140 C139 1.349 . S
C140 C156 1.349 1_455 S
C141 C139 1.327 . S
C141 C160 1.429 . S
C141 H165 0.950 . S
C142 C159 1.574 . S
C142 C161 1.368 1_655 S
C142 H166 0.949 . S
H143 C147 0.949 . S
C144 C145 1.349 1_655 S
C144 C146 1.327 . S
C144 H167 0.950 . S
C145 C144 1.349 1_455 S
C145 C157 1.349 . S
C146 C144 1.327 . S
C146 C162 1.429 1_655 S
C146 H168 0.950 . S
C147 H143 0.949 . S
C147 C155 1.574 . S
C147 C163 1.368 . S
H148 C156 0.950 . S
H149 C154 0.950 . S
H150 C155 0.949 . S
H151 C157 0.950 . S
H152 C158 0.950 . S
H153 C159 0.949 . S
C154 H149 0.950 . S
C154 C156 1.327 . S
C154 C160 1.429 1_655 S
C155 C147 1.574 . S
C155 H150 0.949 . S
C155 C161 1.368 . S
C156 C140 1.349 1_655 S
C156 H148 0.950 . S
C156 C154 1.327 . S
C157 C145 1.349 . S
C157 H151 0.950 . S
C157 C158 1.327 . S
C158 H152 0.950 . S
C158 C157 1.327 . S
C158 C162 1.429 . S
C159 C142 1.574 . S
C159 H153 0.949 . S
C159 C163 1.368 1_655 S
C160 C141 1.429 . S
C160 C154 1.429 1_455 S
C160 C161 1.523 . S
C161 C142 1.368 1_455 S
C161 C155 1.368 . S
C161 C160 1.523 . S
C162 C146 1.429 1_455 S
C162 C158 1.429 . S
C162 C163 1.523 . S
C163 C147 1.368 . S
C163 C159 1.368 1_455 S
C163 C162 1.523 . S
H164 C139 0.950 . S
H165 C141 0.950 . S
H166 C142 0.949 . S
H167 C144 0.950 . S
H168 C146 0.950 . S
C169 C170 1.349 . S
C169 C171 1.327 . S
C169 H194 0.950 . S
C170 C169 1.349 . S
C170 C186 1.349 1_565 S
C171 C169 1.327 . S
C171 C190 1.429 . S
C171 H195 0.950 . S
C172 C189 1.574 . S
C172 C191 1.368 1_545 S
C172 H196 0.949 . S
H173 C177 0.949 . S
C174 C175 1.353 . S
C174 C176 1.327 . S
C174 H197 0.950 . S
C175 C174 1.353 . S
C175 C187 1.343 1_545 S
C176 C174 1.327 . S
C176 C192 1.429 1_545 S
C176 H198 0.950 . S
C177 H173 0.949 . S
C177 C185 1.574 . S
C177 C193 1.368 . S
H178 C186 0.950 . S
H179 C184 0.950 . S
H180 C185 0.949 . S
H181 C187 0.950 . S
H182 C188 0.950 . S
H183 C189 0.949 . S
C184 H179 0.950 . S
C184 C186 1.327 . S
C184 C190 1.429 1_545 S
C185 C177 1.574 . S
C185 H180 0.949 . S
C185 C191 1.368 . S
C186 C170 1.349 1_545 S
C186 H178 0.950 . S
C186 C184 1.327 . S
C187 C175 1.343 1_565 S
C187 H181 0.950 . S
C187 C188 1.327 . S
C188 H182 0.950 . S
C188 C187 1.327 . S
C188 C192 1.429 . S
C189 C172 1.574 . S
C189 H183 0.949 . S
C189 C193 1.368 1_545 S
C190 C171 1.429 . S
C190 C184 1.429 1_565 S
C190 C191 1.523 . S
C191 C172 1.368 1_565 S
C191 C185 1.368 . S
C191 C190 1.523 . S
C192 C176 1.429 1_565 S
C192 C188 1.429 . S
C192 C193 1.523 . S
C193 C177 1.368 . S
C193 C189 1.368 1_565 S
C193 C192 1.523 . S
H194 C169 0.950 . S
H195 C171 0.950 . S
H196 C172 0.949 . S
H197 C174 0.950 . S
H198 C176 0.950 . S
C199 C200 1.349 . S
C199 C201 1.327 . S
C199 H224 0.950 . S
C200 C199 1.349 . S
C200 C216 1.346 1_455 S
C201 C199 1.327 . S
C201 C220 1.429 . S
C201 H225 0.950 . S
C202 C219 1.574 . S
C202 C221 1.368 1_655 S
C202 H226 0.949 . S
H203 C207 0.949 . S
C204 C205 1.349 1_655 S
C204 C206 1.327 . S
C204 H227 0.950 . S
C205 C204 1.349 1_455 S
C205 C217 1.349 . S
C206 C204 1.327 . S
C206 C222 1.429 1_655 S
C206 H228 0.950 . S
C207 H203 0.949 . S
C207 C215 1.574 . S
C207 C223 1.368 . S
H208 C216 0.963 . S
H209 C214 0.950 . S
H210 C215 0.949 . S
H211 C217 0.950 . S
H212 C218 0.950 . S
H213 C219 0.949 . S
C214 H209 0.950 . S
C214 C216 1.318 . S
C214 C220 1.429 1_655 S
C215 C207 1.574 . S
C215 H210 0.949 . S
C215 C221 1.368 . S
C216 C200 1.346 1_655 S
C216 H208 0.963 . S
C216 C214 1.318 . S
C217 C205 1.349 . S
C217 H211 0.950 . S
C217 C218 1.327 . S
C218 H212 0.950 . S
C218 C217 1.327 . S
C218 C222 1.429 . S
C219 C202 1.574 . S
C219 H213 0.949 . S
C219 C223 1.368 1_655 S
C220 C201 1.429 . S
C220 C214 1.429 1_455 S
C220 C221 1.523 . S
C221 C202 1.368 1_455 S
C221 C215 1.368 . S
C221 C220 1.523 . S
C222 C206 1.429 1_455 S
C222 C218 1.429 . S
C222 C223 1.523 . S
C223 C207 1.368 . S
C223 C219 1.368 1_455 S
C223 C222 1.523 . S
H224 C199 0.950 . S
H225 C201 0.950 . S
H226 C202 0.949 . S
H227 C204 0.950 . S
H228 C206 0.950 . S
C229 C230 1.349 . S
C229 C231 1.327 . S
C229 H254 0.950 . S
C230 C229 1.349 . S
C230 C246 1.349 1_565 S
C231 C229 1.327 . S
C231 C250 1.429 . S
C231 H255 0.950 . S
C232 C249 1.574 . S
C232 C251 1.368 1_545 S
C232 H256 0.949 . S
H233 C237 0.949 . S
C234 C235 1.337 1_545 S
C234 C236 1.327 . S
C234 H257 0.950 . S
C235 C234 1.337 1_565 S
C235 C247 1.357 . S
C236 C234 1.327 . S
C236 C252 1.429 1_545 S
C236 H258 0.950 . S
C237 H233 0.949 . S
C237 C245 1.574 . S
C237 C253 1.368 . S
H238 C246 0.950 . S
H239 C244 0.950 . S
H240 C245 0.949 . S
H241 C247 0.950 . S
H242 C248 0.950 . S
H243 C249 0.949 . S
C244 H239 0.950 . S
C244 C246 1.327 . S
C244 C250 1.429 1_545 S
C245 C237 1.574 . S
C245 H240 0.949 . S
C245 C251 1.368 . S
C246 C230 1.349 1_545 S
C246 H238 0.950 . S
C246 C244 1.327 . S
C247 C235 1.357 . S
C247 H241 0.950 . S
C247 C248 1.327 . S
C248 H242 0.950 . S
C248 C247 1.327 . S
C248 C252 1.429 . S
C249 C232 1.574 . S
C249 H243 0.949 . S
C249 C253 1.368 1_545 S
C250 C231 1.429 . S
C250 C244 1.429 1_565 S
C250 C251 1.523 . S
C251 C232 1.368 1_565 S
C251 C245 1.368 . S
C251 C250 1.523 . S
C252 C236 1.429 1_565 S
C252 C248 1.429 . S
C252 C253 1.523 . S
C253 C237 1.368 . S
C253 C249 1.368 1_565 S
C253 C252 1.523 . S
H254 C229 0.950 . S
H255 C231 0.950 . S
H256 C232 0.949 . S
H257 C234 0.950 . S
H258 C236 0.950 . S
C259 C260 1.352 . S
C259 C261 1.327 . S
C259 H284 0.950 . S
C260 C259 1.352 . S
C260 C276 1.347 1_455 S
C261 C259 1.327 . S
C261 C280 1.431 . S
C261 H285 0.950 . S
C262 C279 1.574 . S
C262 C281 1.364 1_655 S
C262 H286 0.949 . S
H263 C267 0.949 . S
C264 C265 1.349 1_655 S
C264 C266 1.327 . S
C264 H287 0.950 . S
C265 C264 1.349 1_455 S
C265 C277 1.349 . S
C266 C264 1.327 . S
C266 C282 1.424 1_655 S
C266 H288 0.950 . S
C267 H263 0.949 . S
C267 C275 1.574 . S
C267 C283 1.374 . S
H268 C276 0.950 . S
H269 C274 0.950 . S
H270 C275 0.949 . S
H271 C277 0.950 . S
H272 C278 0.950 . S
H273 C279 0.949 . S
C274 H269 0.950 . S
C274 C276 1.327 . S
C274 C280 1.423 1_655 S
C275 C267 1.574 . S
C275 H270 0.949 . S
C275 C281 1.375 . S
C276 C260 1.347 1_655 S
C276 H268 0.950 . S
C276 C274 1.327 . S
C277 C265 1.349 . S
C277 H271 0.950 . S
C277 C278 1.327 . S
C278 H272 0.950 . S
C278 C277 1.327 . S
C278 C282 1.439 . S
C279 C262 1.574 . S
C279 H273 0.949 . S
C279 C283 1.360 1_655 S
C280 C261 1.431 . S
C280 C274 1.423 1_455 S
C280 C281 1.522 . S
C281 C262 1.364 1_455 S
C281 C275 1.375 . S
C281 C280 1.522 . S
C282 C266 1.424 1_455 S
C282 C278 1.439 . S
C282 C283 1.522 . S
C283 C267 1.374 . S
C283 C279 1.360 1_455 S
C283 C282 1.522 . S
H284 C259 0.950 . S
H285 C261 0.950 . S
H286 C262 0.949 . S
H287 C264 0.950 . S
H288 C266 0.950 . S
C289 C290 1.349 1_565 S
C289 C291 1.327 . S
C289 H314 0.950 . S
C290 C289 1.349 1_545 S
C290 C306 1.349 . S
C291 C289 1.327 . S
C291 C310 1.429 1_565 S
C291 H315 0.950 . S
C292 C309 1.574 . S
C292 C311 1.368 . S
C292 H316 0.949 . S
H293 C297 0.949 . S
C294 C295 1.349 . S
C294 C296 1.327 . S
C294 H317 0.950 . S
C295 C294 1.349 . S
C295 C307 1.349 1_545 S
C296 C294 1.327 . S
C296 C312 1.429 . S
C296 H318 0.950 . S
C297 H293 0.949 . S
C297 C305 1.574 . S
C297 C313 1.368 1_565 S
H298 C306 0.950 . S
H299 C304 0.950 . S
H300 C305 0.949 . S
H301 C307 0.950 . S
H302 C308 0.950 . S
H303 C309 0.949 . S
C304 H299 0.950 . S
C304 C306 1.327 . S
C304 C310 1.429 . S
C305 C297 1.574 . S
C305 H300 0.949 . S
C305 C311 1.368 1_565 S
C306 C290 1.349 . S
C306 H298 0.950 . S
C306 C304 1.327 . S
C307 C295 1.349 1_565 S
C307 H301 0.950 . S
C307 C308 1.327 . S
C308 H302 0.950 . S
C308 C307 1.327 . S
C308 C312 1.429 1_565 S
C309 C292 1.574 . S
C309 H303 0.949 . S
C309 C313 1.368 . S
C310 C291 1.429 1_545 S
C310 C304 1.429 . S
C310 C311 1.523 . S
C311 C292 1.368 . S
C311 C305 1.368 1_545 S
C311 C310 1.523 . S
C312 C296 1.429 . S
C312 C308 1.429 1_545 S
C312 C313 1.523 . S
C313 C297 1.368 1_545 S
C313 C309 1.368 . S
C313 C312 1.523 . S
H314 C289 0.950 . S
H315 C291 0.950 . S
H316 C292 0.949 . S
H317 C294 0.950 . S
H318 C296 0.950 . S
C319 C320 1.349 . S
C319 C321 1.327 . S
C319 H344 0.950 . S
C320 C319 1.349 . S
C320 C336 1.349 1_655 S
C321 C319 1.327 . S
C321 C340 1.429 . S
C321 H345 0.950 . S
C322 C339 1.574 . S
C322 C341 1.368 1_455 S
C322 H346 0.949 . S
H323 C327 0.949 . S
C324 C325 1.357 . S
C324 C326 1.327 . S
C324 H347 0.950 . S
C325 C324 1.357 . S
C325 C337 1.346 1_455 S
C326 C324 1.327 . S
C326 C342 1.429 1_455 S
C326 H348 0.950 . S
C327 H323 0.949 . S
C327 C335 1.574 . S
C327 C343 1.368 . S
H328 C336 0.950 . S
H329 C334 0.950 . S
H330 C335 0.949 . S
H331 C337 0.950 . S
H332 C338 0.950 . S
H333 C339 0.949 . S
C334 H329 0.950 . S
C334 C336 1.327 . S
C334 C340 1.429 1_455 S
C335 C327 1.574 . S
C335 H330 0.949 . S
C335 C341 1.368 . S
C336 C320 1.349 1_455 S
C336 H328 0.950 . S
C336 C334 1.327 . S
C337 C325 1.346 1_655 S
C337 H331 0.950 . S
C337 C338 1.327 . S
C338 H332 0.950 . S
C338 C337 1.327 . S
C338 C342 1.429 . S
C339 C322 1.574 . S
C339 H333 0.949 . S
C339 C343 1.368 1_455 S
C340 C321 1.429 . S
C340 C334 1.429 1_655 S
C340 C341 1.523 . S
C341 C322 1.368 1_655 S
C341 C335 1.368 . S
C341 C340 1.523 . S
C342 C326 1.429 1_655 S
C342 C338 1.429 . S
C342 C343 1.523 . S
C343 C327 1.368 . S
C343 C339 1.368 1_655 S
C343 C342 1.523 . S
H344 C319 0.950 . S
H345 C321 0.950 . S
H346 C322 0.949 . S
H347 C324 0.950 . S
H348 C326 0.950 . S
C349 C350 1.349 1_565 S
C349 C351 1.327 . S
C349 H374 0.950 . S
C350 C349 1.349 1_545 S
C350 C366 1.349 . S
C351 C349 1.327 . S
C351 C370 1.429 1_565 S
C351 H375 0.950 . S
C352 C369 1.574 . S
C352 C371 1.368 . S
C352 H376 0.949 . S
H353 C357 0.949 . S
C354 C355 1.349 . S
C354 C356 1.327 . S
C354 H377 0.950 . S
C355 C354 1.349 . S
C355 C367 1.349 1_545 S
C356 C354 1.327 . S
C356 C372 1.429 . S
C356 H378 0.950 . S
C357 H353 0.949 . S
C357 C365 1.574 . S
C357 C373 1.368 1_565 S
H358 C366 0.950 . S
H359 C364 0.950 . S
H360 C365 0.949 . S
H361 C367 0.950 . S
H362 C368 0.950 . S
H363 C369 0.949 . S
C364 H359 0.950 . S
C364 C366 1.327 . S
C364 C370 1.429 . S
C365 C357 1.574 . S
C365 H360 0.949 . S
C365 C371 1.368 1_565 S
C366 C350 1.349 . S
C366 H358 0.950 . S
C366 C364 1.327 . S
C367 C355 1.349 1_565 S
C367 H361 0.950 . S
C367 C368 1.327 . S
C368 H362 0.950 . S
C368 C367 1.327 . S
C368 C372 1.429 1_565 S
C369 C352 1.574 . S
C369 H363 0.949 . S
C369 C373 1.368 . S
C370 C351 1.429 1_545 S
C370 C364 1.429 . S
C370 C371 1.523 . S
C371 C352 1.368 . S
C371 C365 1.368 1_545 S
C371 C370 1.523 . S
C372 C356 1.429 . S
C372 C368 1.429 1_545 S
C372 C373 1.523 . S
C373 C357 1.368 1_545 S
C373 C369 1.368 . S
C373 C372 1.523 . S
H374 C349 0.950 . S
H375 C351 0.950 . S
H376 C352 0.949 . S
H377 C354 0.950 . S
H378 C356 0.950 . S
C140 C23 1.262 . S
C145 C55 1.343 . S
C170 C22 1.532 . S
C175 C125 1.574 . S
C200 C21 1.991 . S
C205 C71 2.000 . S
C230 C24 1.467 . S
C235 C115 1.541 1_565 S
C260 C27 1.258 1_455 S
C265 C62 1.339 . S
C290 C26 1.532 . S
C295 C124 1.574 . S
C325 C72 2.003 . S
C320 C25 1.991 . S
C350 C28 1.467 . S
C355 C108 1.533 . S
