# Generated by pormake.
# Topology iac, (4,6)-cn, num edge types: 1
# Building blocks:
#     Node 0, Type 0, BuildingBlock: QUQFOY_clean_sbu_3, # of connection points: 4
#     Node 1, Type 0, BuildingBlock: QUQFOY_clean_sbu_3, # of connection points: 4
#     Node 2, Type 0, BuildingBlock: QUQFOY_clean_sbu_3, # of connection points: 4
#     Node 3, Type 0, BuildingBlock: QUQFOY_clean_sbu_3, # of connection points: 4
#     Node 4, Type 0, BuildingBlock: QUQFOY_clean_sbu_3, # of connection points: 4
#     Node 5, Type 0, BuildingBlock: QUQFOY_clean_sbu_3, # of connection points: 4
#     Node 6, Type 0, BuildingBlock: QUQFOY_clean_sbu_3, # of connection points: 4
#     Node 7, Type 0, BuildingBlock: QUQFOY_clean_sbu_3, # of connection points: 4
#     Node 8, Type 0, BuildingBlock: QUQFOY_clean_sbu_3, # of connection points: 4
#     Node 9, Type 0, BuildingBlock: QUQFOY_clean_sbu_3, # of connection points: 4
#     Node 10, Type 0, BuildingBlock: QUQFOY_clean_sbu_3, # of connection points: 4
#     Node 11, Type 0, BuildingBlock: QUQFOY_clean_sbu_3, # of connection points: 4
#     Node 12, Type 0, BuildingBlock: QUQFOY_clean_sbu_3, # of connection points: 4
#     Node 13, Type 0, BuildingBlock: QUQFOY_clean_sbu_3, # of connection points: 4
#     Node 14, Type 0, BuildingBlock: QUQFOY_clean_sbu_3, # of connection points: 4
#     Node 15, Type 0, BuildingBlock: QUQFOY_clean_sbu_3, # of connection points: 4
#     Node 16, Type 0, BuildingBlock: QUQFOY_clean_sbu_3, # of connection points: 4
#     Node 17, Type 0, BuildingBlock: QUQFOY_clean_sbu_3, # of connection points: 4
#     Node 18, Type 0, BuildingBlock: QUQFOY_clean_sbu_3, # of connection points: 4
#     Node 19, Type 0, BuildingBlock: QUQFOY_clean_sbu_3, # of connection points: 4
#     Node 20, Type 0, BuildingBlock: QUQFOY_clean_sbu_3, # of connection points: 4
#     Node 21, Type 0, BuildingBlock: QUQFOY_clean_sbu_3, # of connection points: 4
#     Node 22, Type 0, BuildingBlock: QUQFOY_clean_sbu_3, # of connection points: 4
#     Node 23, Type 0, BuildingBlock: QUQFOY_clean_sbu_3, # of connection points: 4
#     Node 24, Type 1, BuildingBlock: JUFBIX_clean_sbu_0, # of connection points: 6
#     Node 25, Type 1, BuildingBlock: JUFBIX_clean_sbu_0, # of connection points: 6
#     Node 26, Type 1, BuildingBlock: JUFBIX_clean_sbu_0, # of connection points: 6
#     Node 27, Type 1, BuildingBlock: JUFBIX_clean_sbu_0, # of connection points: 6
#     Node 28, Type 1, BuildingBlock: JUFBIX_clean_sbu_0, # of connection points: 6
#     Node 29, Type 1, BuildingBlock: JUFBIX_clean_sbu_0, # of connection points: 6
#     Node 30, Type 1, BuildingBlock: JUFBIX_clean_sbu_0, # of connection points: 6
#     Node 31, Type 1, BuildingBlock: JUFBIX_clean_sbu_0, # of connection points: 6
#     Node 32, Type 1, BuildingBlock: JUFBIX_clean_sbu_0, # of connection points: 6
#     Node 33, Type 1, BuildingBlock: JUFBIX_clean_sbu_0, # of connection points: 6
#     Node 34, Type 1, BuildingBlock: JUFBIX_clean_sbu_0, # of connection points: 6
#     Node 35, Type 1, BuildingBlock: JUFBIX_clean_sbu_0, # of connection points: 6
#     Node 36, Type 1, BuildingBlock: JUFBIX_clean_sbu_0, # of connection points: 6
#     Node 37, Type 1, BuildingBlock: JUFBIX_clean_sbu_0, # of connection points: 6
#     Node 38, Type 1, BuildingBlock: JUFBIX_clean_sbu_0, # of connection points: 6
#     Node 39, Type 1, BuildingBlock: JUFBIX_clean_sbu_0, # of connection points: 6
#     Edge 40, Type (0, 1), BuildingBlock: MIFKUJ_clean_linker_0, # of connection points: 2
#     Edge 41, Type (0, 1), BuildingBlock: MIFKUJ_clean_linker_0, # of connection points: 2
#     Edge 42, Type (0, 1), BuildingBlock: MIFKUJ_clean_linker_0, # of connection points: 2
#     Edge 43, Type (0, 1), BuildingBlock: MIFKUJ_clean_linker_0, # of connection points: 2
#     Edge 44, Type (0, 1), BuildingBlock: MIFKUJ_clean_linker_0, # of connection points: 2
#     Edge 45, Type (0, 1), BuildingBlock: MIFKUJ_clean_linker_0, # of connection points: 2
#     Edge 46, Type (0, 1), BuildingBlock: MIFKUJ_clean_linker_0, # of connection points: 2
#     Edge 47, Type (0, 1), BuildingBlock: MIFKUJ_clean_linker_0, # of connection points: 2
#     Edge 48, Type (0, 1), BuildingBlock: MIFKUJ_clean_linker_0, # of connection points: 2
#     Edge 49, Type (0, 1), BuildingBlock: MIFKUJ_clean_linker_0, # of connection points: 2
#     Edge 50, Type (0, 1), BuildingBlock: MIFKUJ_clean_linker_0, # of connection points: 2
#     Edge 51, Type (0, 1), BuildingBlock: MIFKUJ_clean_linker_0, # of connection points: 2
#     Edge 52, Type (0, 1), BuildingBlock: MIFKUJ_clean_linker_0, # of connection points: 2
#     Edge 53, Type (0, 1), BuildingBlock: MIFKUJ_clean_linker_0, # of connection points: 2
#     Edge 54, Type (0, 1), BuildingBlock: MIFKUJ_clean_linker_0, # of connection points: 2
#     Edge 55, Type (0, 1), BuildingBlock: MIFKUJ_clean_linker_0, # of connection points: 2
#     Edge 56, Type (0, 1), BuildingBlock: MIFKUJ_clean_linker_0, # of connection points: 2
#     Edge 57, Type (0, 1), BuildingBlock: MIFKUJ_clean_linker_0, # of connection points: 2
#     Edge 58, Type (0, 1), BuildingBlock: MIFKUJ_clean_linker_0, # of connection points: 2
#     Edge 59, Type (0, 1), BuildingBlock: MIFKUJ_clean_linker_0, # of connection points: 2
#     Edge 60, Type (0, 1), BuildingBlock: MIFKUJ_clean_linker_0, # of connection points: 2
#     Edge 61, Type (0, 1), BuildingBlock: MIFKUJ_clean_linker_0, # of connection points: 2
#     Edge 62, Type (0, 1), BuildingBlock: MIFKUJ_clean_linker_0, # of connection points: 2
#     Edge 63, Type (0, 1), BuildingBlock: MIFKUJ_clean_linker_0, # of connection points: 2
#     Edge 64, Type (0, 1), BuildingBlock: MIFKUJ_clean_linker_0, # of connection points: 2
#     Edge 65, Type (0, 1), BuildingBlock: MIFKUJ_clean_linker_0, # of connection points: 2
#     Edge 66, Type (0, 1), BuildingBlock: MIFKUJ_clean_linker_0, # of connection points: 2
#     Edge 67, Type (0, 1), BuildingBlock: MIFKUJ_clean_linker_0, # of connection points: 2
#     Edge 68, Type (0, 1), BuildingBlock: MIFKUJ_clean_linker_0, # of connection points: 2
#     Edge 69, Type (0, 1), BuildingBlock: MIFKUJ_clean_linker_0, # of connection points: 2
#     Edge 70, Type (0, 1), BuildingBlock: MIFKUJ_clean_linker_0, # of connection points: 2
#     Edge 71, Type (0, 1), BuildingBlock: MIFKUJ_clean_linker_0, # of connection points: 2
#     Edge 72, Type (0, 1), BuildingBlock: MIFKUJ_clean_linker_0, # of connection points: 2
#     Edge 73, Type (0, 1), BuildingBlock: MIFKUJ_clean_linker_0, # of connection points: 2
#     Edge 74, Type (0, 1), BuildingBlock: MIFKUJ_clean_linker_0, # of connection points: 2
#     Edge 75, Type (0, 1), BuildingBlock: MIFKUJ_clean_linker_0, # of connection points: 2
#     Edge 76, Type (0, 1), BuildingBlock: MIFKUJ_clean_linker_0, # of connection points: 2
#     Edge 77, Type (0, 1), BuildingBlock: MIFKUJ_clean_linker_0, # of connection points: 2
#     Edge 78, Type (0, 1), BuildingBlock: MIFKUJ_clean_linker_0, # of connection points: 2
#     Edge 79, Type (0, 1), BuildingBlock: MIFKUJ_clean_linker_0, # of connection points: 2
#     Edge 80, Type (0, 1), BuildingBlock: MIFKUJ_clean_linker_0, # of connection points: 2
#     Edge 81, Type (0, 1), BuildingBlock: MIFKUJ_clean_linker_0, # of connection points: 2
#     Edge 82, Type (0, 1), BuildingBlock: MIFKUJ_clean_linker_0, # of connection points: 2
#     Edge 83, Type (0, 1), BuildingBlock: MIFKUJ_clean_linker_0, # of connection points: 2
#     Edge 84, Type (0, 1), BuildingBlock: MIFKUJ_clean_linker_0, # of connection points: 2
#     Edge 85, Type (0, 1), BuildingBlock: MIFKUJ_clean_linker_0, # of connection points: 2
#     Edge 86, Type (0, 1), BuildingBlock: MIFKUJ_clean_linker_0, # of connection points: 2
#     Edge 87, Type (0, 1), BuildingBlock: MIFKUJ_clean_linker_0, # of connection points: 2
#     Edge 88, Type (0, 1), BuildingBlock: MIFKUJ_clean_linker_0, # of connection points: 2
#     Edge 89, Type (0, 1), BuildingBlock: MIFKUJ_clean_linker_0, # of connection points: 2
#     Edge 90, Type (0, 1), BuildingBlock: MIFKUJ_clean_linker_0, # of connection points: 2
#     Edge 91, Type (0, 1), BuildingBlock: MIFKUJ_clean_linker_0, # of connection points: 2
#     Edge 92, Type (0, 1), BuildingBlock: MIFKUJ_clean_linker_0, # of connection points: 2
#     Edge 93, Type (0, 1), BuildingBlock: MIFKUJ_clean_linker_0, # of connection points: 2
#     Edge 94, Type (0, 1), BuildingBlock: MIFKUJ_clean_linker_0, # of connection points: 2
#     Edge 95, Type (0, 1), BuildingBlock: MIFKUJ_clean_linker_0, # of connection points: 2
#     Edge 96, Type (0, 1), BuildingBlock: MIFKUJ_clean_linker_0, # of connection points: 2
#     Edge 97, Type (0, 1), BuildingBlock: MIFKUJ_clean_linker_0, # of connection points: 2
#     Edge 98, Type (0, 1), BuildingBlock: MIFKUJ_clean_linker_0, # of connection points: 2
#     Edge 99, Type (0, 1), BuildingBlock: MIFKUJ_clean_linker_0, # of connection points: 2
#     Edge 100, Type (0, 1), BuildingBlock: MIFKUJ_clean_linker_0, # of connection points: 2
#     Edge 101, Type (0, 1), BuildingBlock: MIFKUJ_clean_linker_0, # of connection points: 2
#     Edge 102, Type (0, 1), BuildingBlock: MIFKUJ_clean_linker_0, # of connection points: 2
#     Edge 103, Type (0, 1), BuildingBlock: MIFKUJ_clean_linker_0, # of connection points: 2
#     Edge 104, Type (0, 1), BuildingBlock: MIFKUJ_clean_linker_0, # of connection points: 2
#     Edge 105, Type (0, 1), BuildingBlock: MIFKUJ_clean_linker_0, # of connection points: 2
#     Edge 106, Type (0, 1), BuildingBlock: MIFKUJ_clean_linker_0, # of connection points: 2
#     Edge 107, Type (0, 1), BuildingBlock: MIFKUJ_clean_linker_0, # of connection points: 2
#     Edge 108, Type (0, 1), BuildingBlock: MIFKUJ_clean_linker_0, # of connection points: 2
#     Edge 109, Type (0, 1), BuildingBlock: MIFKUJ_clean_linker_0, # of connection points: 2
#     Edge 110, Type (0, 1), BuildingBlock: MIFKUJ_clean_linker_0, # of connection points: 2
#     Edge 111, Type (0, 1), BuildingBlock: MIFKUJ_clean_linker_0, # of connection points: 2
#     Edge 112, Type (0, 1), BuildingBlock: MIFKUJ_clean_linker_0, # of connection points: 2
#     Edge 113, Type (0, 1), BuildingBlock: MIFKUJ_clean_linker_0, # of connection points: 2
#     Edge 114, Type (0, 1), BuildingBlock: MIFKUJ_clean_linker_0, # of connection points: 2
#     Edge 115, Type (0, 1), BuildingBlock: MIFKUJ_clean_linker_0, # of connection points: 2
#     Edge 116, Type (0, 1), BuildingBlock: MIFKUJ_clean_linker_0, # of connection points: 2
#     Edge 117, Type (0, 1), BuildingBlock: MIFKUJ_clean_linker_0, # of connection points: 2
#     Edge 118, Type (0, 1), BuildingBlock: MIFKUJ_clean_linker_0, # of connection points: 2
#     Edge 119, Type (0, 1), BuildingBlock: MIFKUJ_clean_linker_0, # of connection points: 2
#     Edge 120, Type (0, 1), BuildingBlock: MIFKUJ_clean_linker_0, # of connection points: 2
#     Edge 121, Type (0, 1), BuildingBlock: MIFKUJ_clean_linker_0, # of connection points: 2
#     Edge 122, Type (0, 1), BuildingBlock: MIFKUJ_clean_linker_0, # of connection points: 2
#     Edge 123, Type (0, 1), BuildingBlock: MIFKUJ_clean_linker_0, # of connection points: 2
#     Edge 124, Type (0, 1), BuildingBlock: MIFKUJ_clean_linker_0, # of connection points: 2
#     Edge 125, Type (0, 1), BuildingBlock: MIFKUJ_clean_linker_0, # of connection points: 2
#     Edge 126, Type (0, 1), BuildingBlock: MIFKUJ_clean_linker_0, # of connection points: 2
#     Edge 127, Type (0, 1), BuildingBlock: MIFKUJ_clean_linker_0, # of connection points: 2
#     Edge 128, Type (0, 1), BuildingBlock: MIFKUJ_clean_linker_0, # of connection points: 2
#     Edge 129, Type (0, 1), BuildingBlock: MIFKUJ_clean_linker_0, # of connection points: 2
#     Edge 130, Type (0, 1), BuildingBlock: MIFKUJ_clean_linker_0, # of connection points: 2
#     Edge 131, Type (0, 1), BuildingBlock: MIFKUJ_clean_linker_0, # of connection points: 2
#     Edge 132, Type (0, 1), BuildingBlock: MIFKUJ_clean_linker_0, # of connection points: 2
#     Edge 133, Type (0, 1), BuildingBlock: MIFKUJ_clean_linker_0, # of connection points: 2
#     Edge 134, Type (0, 1), BuildingBlock: MIFKUJ_clean_linker_0, # of connection points: 2
#     Edge 135, Type (0, 1), BuildingBlock: MIFKUJ_clean_linker_0, # of connection points: 2
# Relax obj value: 0.213
# Max RMSD: 0.226
# Mean RMSD: 0.110
data_MOF--net-iac--node1-QUQFOY_clean_sbu_3--node2-JUFBIX_clean_sbu_0--edge1-MIFKUJ_clean_linker_0
_symmetry_space_group_name_H-M    P1
_symmetry_Int_Tables_number       1
_symmetry_cell_setting            triclinic
loop_
_symmetry_equiv_pos_as_xyz
'x, y, z'
_cell_length_a     70.397119
_cell_length_b     72.988876
_cell_length_c     71.59483
_cell_angle_alpha  90.37789
_cell_angle_beta   88.759069
_cell_angle_gamma 89.616775
loop_
_atom_site_label
_atom_site_type_symbol
_atom_site_fract_x
_atom_site_fract_y
_atom_site_fract_z
_atom_type_partial_charge
C0 C 0.98448 0.26624 0.16883 0.0
O1 O -0.00432 0.25811 0.17974 0.0
Cd2 Cd 0.02661 0.24846 0.17023 0.0
O3 O 0.99014 0.27115 0.15254 0.0
Cd4 Cd 0.02108 0.27226 0.13369 0.0
C5 C 0.01768 0.22579 0.12839 0.0
O6 O 0.04144 0.27622 0.16062 0.0
O7 O 0.0565 0.26912 0.13519 0.0
O8 O 0.01065 0.30409 0.12905 0.0
C9 C 0.05726 0.27383 0.15224 0.0
O10 O 0.02165 0.22551 0.14567 0.0
C11 C 0.01609 0.30551 0.11213 0.0
O12 O 0.01617 0.24105 0.11985 0.0
O13 O 0.02361 0.29125 0.10469 0.0
C14 C 0.0216 0.75746 0.35692 0.0
O15 O 0.03726 0.76411 0.35112 0.0
Cd16 Cd 0.06503 0.7648 0.36979 0.0
O17 O 0.02007 0.75064 0.37322 0.0
Cd18 Cd 0.03969 0.74483 0.40063 0.0
C19 C 0.04759 0.78996 0.40688 0.0
O20 O 0.06672 0.73452 0.3826 0.0
O21 O 0.07215 0.73882 0.41171 0.0
O22 O 0.02166 0.71703 0.40461 0.0
C23 C 0.07814 0.73311 0.39589 0.0
O24 O 0.05924 0.78921 0.39303 0.0
C25 C 0.01967 0.71865 0.42221 0.0
O26 O 0.038 0.77599 0.41166 0.0
O27 O 0.02629 0.73302 0.42967 0.0
C28 C 0.48553 0.76329 0.66765 0.0
O29 O 0.49655 0.75367 0.67747 0.0
Cd30 Cd 0.52897 0.74696 0.67015 0.0
O31 O 0.49164 0.77075 0.65258 0.0
Cd32 Cd 0.5229 0.77361 0.63469 0.0
C33 C 0.52405 0.72713 0.62639 0.0
O34 O 0.54167 0.77613 0.66291 0.0
O35 O 0.55835 0.77307 0.63769 0.0
O36 O 0.51085 0.80504 0.63 0.0
C37 C 0.55799 0.77552 0.65524 0.0
O38 O 0.52858 0.72595 0.64347 0.0
C39 C 0.51776 0.80714 0.61364 0.0
O40 O 0.51996 0.74268 0.61931 0.0
O41 O 0.5267 0.79347 0.6066 0.0
C42 C 0.51325 0.26327 0.85665 0.0
O43 O 0.52821 0.27155 0.85137 0.0
Cd44 Cd 0.55652 0.27049 0.86895 0.0
O45 O 0.51303 0.25372 0.87148 0.0
Cd46 Cd 0.53452 0.24405 0.89627 0.0
C47 C 0.53831 0.28755 0.9106 0.0
O48 O 0.56108 0.23877 0.87588 0.0
O49 O 0.56827 0.24116 0.90489 0.0
O50 O 0.5207 0.21394 0.89381 0.0
C51 C 0.57337 0.23691 0.88833 0.0
O52 O 0.54941 0.28967 0.8965 0.0
C53 C 0.51915 0.21144 0.91129 0.0
O54 O 0.52988 0.27241 0.91333 0.0
O55 O 0.52376 0.22467 0.92184 0.0
C56 C 0.10506 0.00622 0.30613 0.0
O57 O 0.09635 0.01498 0.29361 0.0
Cd58 Cd 0.10839 0.01752 0.262 0.0
O59 O 0.12102 -0.00141 0.30253 0.0
Cd60 Cd 0.14389 0.99446 0.27672 0.0
C61 C 0.14984 0.03989 0.27035 0.0
O62 O 0.12076 0.98791 0.25332 0.0
O63 O 0.14972 0.99095 0.24322 0.0
O64 O 0.15028 0.96394 0.28778 0.0
C65 C 0.13261 0.98713 0.23974 0.0
O66 O 0.13355 0.04031 0.26298 0.0
C67 C 0.16808 0.96609 0.28903 0.0
O68 O 0.15625 0.02525 0.27748 0.0
O69 O 0.17463 0.9818 0.28509 0.0
C70 C 0.26658 0.9228 0.52045 0.0
O71 O 0.25213 0.93204 0.51577 0.0
Cd72 Cd 0.22186 0.91794 0.51446 0.0
O73 O 0.26494 0.90654 0.52661 0.0
Cd74 Cd 0.24019 0.88437 0.53575 0.0
C75 C 0.23529 0.87885 0.48979 0.0
O76 O 0.21724 0.90689 0.54561 0.0
O77 O 0.20602 0.87968 0.54211 0.0
O78 O 0.25771 0.88112 0.56411 0.0
C79 C 0.20347 0.89602 0.5478 0.0
O80 O 0.22732 0.89457 0.48998 0.0
C81 C 0.25643 0.86381 0.56479 0.0
O82 O 0.24141 0.87185 0.50472 0.0
O83 O 0.2482 0.85589 0.55137 0.0
C84 C 0.43016 0.02151 0.77172 0.0
O85 O 0.43885 0.01734 0.75654 0.0
Cd86 Cd 0.42355 0.02157 0.72713 0.0
O87 O 0.41415 0.02968 0.77163 0.0
Cd88 Cd 0.39146 0.04332 0.75034 0.0
C89 C 0.38089 0.00042 0.73704 0.0
O90 O 0.41369 0.05313 0.72645 0.0
O91 O 0.38407 0.05385 0.71916 0.0
O92 O 0.39113 0.07034 0.76994 0.0
C93 C 0.40115 0.0576 0.71484 0.0
O94 O 0.39691 -3e-05 0.72839 0.0
C95 C 0.37316 0.07166 0.77102 0.0
O96 O 0.37571 0.01445 0.74651 0.0
O97 O 0.36369 0.05896 0.76343 0.0
C98 C 0.29602 0.11464 0.02487 0.0
O99 O 0.28543 0.10436 0.03477 0.0
Cd100 Cd 0.25324 0.11114 0.04337 0.0
O101 O 0.28945 0.12944 0.01803 0.0
Cd102 Cd 0.25804 0.14598 0.01663 0.0
C103 C 0.2584 0.15384 0.06396 0.0
O104 O 0.23867 0.11838 0.01455 0.0
O105 O 0.2229 0.14347 0.01852 0.0
O106 O 0.26494 0.14914 0.98328 0.0
C107 C 0.22265 0.12633 0.01559 0.0
O108 O 0.25485 0.13681 0.06531 0.0
C109 C 0.26235 0.16631 0.98233 0.0
O110 O 0.26092 0.16112 0.04791 0.0
O111 O 0.25807 0.17453 -0.00241 0.0
C112 C 0.76204 0.42895 0.02138 0.0
O113 O 0.74776 0.43634 0.01385 0.0
Cd114 Cd 0.71714 0.42222 0.01481 0.0
O115 O 0.7603 0.41401 0.0303 0.0
Cd116 Cd 0.73548 0.39216 0.03944 0.0
C117 C 0.72871 0.3811 0.9944 0.0
O118 O 0.71103 0.41445 0.04707 0.0
O119 O 0.70181 0.38629 0.04583 0.0
O120 O 0.75007 0.38949 0.06966 0.0
C121 C 0.69811 0.4028 0.05024 0.0
O122 O 0.72017 0.39642 0.99279 0.0
C123 C 0.75077 0.37211 0.06937 0.0
O124 O 0.73615 0.37662 0.00973 0.0
O125 O 0.74506 0.36414 0.05473 0.0
C126 C 0.92865 0.52322 0.26687 0.0
O127 O 0.93479 0.51466 0.25244 0.0
Cd128 Cd 0.9183 0.51378 0.22356 0.0
O129 O 0.91301 0.53208 0.26661 0.0
Cd130 Cd 0.88788 0.53879 0.24421 0.0
C131 C 0.87729 0.49415 0.23927 0.0
O132 O 0.90903 0.54494 0.21815 0.0
O133 O 0.87938 0.54295 0.21147 0.0
O134 O 0.88419 0.56898 0.25808 0.0
C135 C 0.89613 0.54702 0.20628 0.0
O136 O 0.89194 0.49251 0.22863 0.0
C137 C 0.86617 0.56842 0.25913 0.0
O138 O 0.87344 0.50923 0.2475 0.0
O139 O 0.85836 0.55358 0.25419 0.0
C140 C 0.7957 0.61544 0.52572 0.0
O141 O 0.78517 0.60663 0.53709 0.0
Cd142 Cd 0.7525 0.61369 0.54361 0.0
O143 O 0.78918 0.62932 0.51712 0.0
Cd144 Cd 0.75853 0.64686 0.51557 0.0
C145 C 0.75798 0.65654 0.56241 0.0
O146 O 0.73961 0.61898 0.51346 0.0
O147 O 0.72327 0.64383 0.51642 0.0
O148 O 0.77063 0.65258 0.48369 0.0
C149 C 0.72345 0.62664 0.51376 0.0
O150 O 0.75241 0.64013 0.56472 0.0
C151 C 0.76425 0.66882 0.4826 0.0
O152 O 0.76256 0.66235 0.54617 0.0
O153 O 0.75527 0.67506 0.49688 0.0
C154 C 0.602 0.50963 0.8042 0.0
O155 O 0.59268 0.51433 0.79001 0.0
Cd156 Cd 0.60797 0.51333 0.75946 0.0
O157 O 0.61863 0.50289 0.80234 0.0
Cd158 Cd 0.64257 0.49344 0.77934 0.0
C159 C 0.64881 0.53748 0.76797 0.0
O160 O 0.62195 0.48344 0.75485 0.0
O161 O 0.65148 0.4874 0.74697 0.0
O162 O 0.6466 0.4643 0.79447 0.0
C163 C 0.63507 0.48215 0.74245 0.0
O164 O 0.63284 0.53675 0.75993 0.0
C165 C 0.66418 0.4663 0.79742 0.0
O166 O 0.65515 0.52383 0.77692 0.0
O167 O 0.67165 0.48135 0.79246 0.0
C168 C 0.98351 0.77799 0.8659 0.0
O169 O -0.00401 0.78726 0.85714 0.0
Cd170 Cd 0.02802 0.79191 0.86643 0.0
O171 O 0.98766 0.76984 0.88105 0.0
Cd172 Cd 0.01687 0.76572 0.90074 0.0
C173 C 0.02024 0.81186 0.90986 0.0
O174 O 0.04008 0.76274 0.87486 0.0
O175 O 0.05203 0.76676 0.90191 0.0
O176 O 0.00923 0.73302 0.90251 0.0
C177 C 0.0548 0.76354 0.88466 0.0
O178 O 0.02677 0.81269 0.89316 0.0
C179 C 0.01048 0.73136 0.92007 0.0
O180 O 0.01387 0.79676 0.91641 0.0
O181 O 0.01391 0.74597 0.92916 0.0
C182 C 0.99124 0.29208 0.67903 0.0
O183 O 0.00551 0.28674 0.68813 0.0
Cd184 Cd 0.03575 0.28284 0.67225 0.0
O185 O 0.99314 0.29692 0.66209 0.0
Cd186 Cd 0.01482 0.30227 0.63591 0.0
C187 C 0.02071 0.25647 0.63465 0.0
O188 O 0.04144 0.30956 0.65405 0.0
O189 O 0.04793 0.3044 0.62491 0.0
O190 O 0.00113 0.33217 0.63365 0.0
C191 C 0.05394 0.30793 0.64113 0.0
O192 O 0.02943 0.25799 0.65002 0.0
C193 C 0.99502 0.33012 0.61723 0.0
O194 O 0.01341 0.27037 0.62676 0.0
O195 O -0.00145 0.31491 0.60902 0.0
C196 C 0.48154 0.27768 0.36476 0.0
O197 O 0.49395 0.28652 0.35544 0.0
Cd198 Cd 0.52605 0.29147 0.36382 0.0
O199 O 0.48591 0.26986 0.38006 0.0
Cd200 Cd 0.51552 0.2657 0.39947 0.0
C201 C 0.51813 0.31237 0.40686 0.0
O202 O 0.53744 0.26215 0.37263 0.0
O203 O 0.55072 0.26349 0.39936 0.0
O204 O 0.50506 0.23383 0.40373 0.0
C205 C 0.55255 0.26139 0.38184 0.0
O206 O 0.52334 0.31299 0.38974 0.0
C207 C 0.50864 0.23277 0.421 0.0
O208 O 0.51377 0.29708 0.41442 0.0
O209 O 0.5145 0.24736 0.42872 0.0
C210 C 0.46813 0.76953 0.159 0.0
O211 O 0.47809 0.76019 0.17012 0.0
Cd212 Cd 0.51221 0.75974 0.16988 0.0
O213 O 0.47595 0.78026 0.14725 0.0
Cd214 Cd 0.50712 0.7914 0.13673 0.0
C215 C 0.51875 0.74837 0.12298 0.0
O216 O 0.52215 0.79044 0.16633 0.0
O217 O 0.54085 0.79567 0.14276 0.0
O218 O 0.49511 0.82233 0.13787 0.0
C219 C 0.53892 0.79309 0.1602 0.0
O220 O 0.51972 0.74463 0.14031 0.0
C221 C 0.49778 0.82544 0.1206 0.0
O222 O 0.51363 0.76422 0.11754 0.0
O223 O 0.50489 0.81253 0.11062 0.0
C224 C 0.90902 0.04101 0.77358 0.0
O225 O 0.92013 0.03785 0.75969 0.0
Cd226 Cd 0.91048 0.03565 0.72799 0.0
O227 O 0.89139 0.04419 0.77132 0.0
Cd228 Cd 0.86864 0.04741 0.74566 0.0
C229 C 0.87616 0.00286 0.73383 0.0
O230 O 0.89055 0.06202 0.72456 0.0
O231 O 0.864 0.05458 0.71256 0.0
O232 O 0.85325 0.07176 0.76345 0.0
C233 C 0.88017 0.06185 0.71037 0.0
O234 O 0.89257 0.0069 0.72731 0.0
C235 C 0.83646 0.06617 0.76075 0.0
O236 O 0.86546 0.01492 0.74158 0.0
O237 O 0.8347 0.05139 0.75152 0.0
C238 C 0.80639 0.10248 0.50352 0.0
O239 O 0.79302 0.09292 0.51051 0.0
Cd240 Cd 0.76056 0.1037 0.5125 0.0
O241 O 0.80311 0.11804 0.49635 0.0
Cd242 Cd 0.77808 0.13969 0.48866 0.0
C243 C 0.76641 0.14552 0.5348 0.0
O244 O 0.7559 0.11634 0.48239 0.0
O245 O 0.74442 0.14361 0.48062 0.0
O246 O 0.79452 0.14346 0.45907 0.0
C247 C 0.74154 0.12648 0.47998 0.0
O248 O 0.75998 0.12922 0.53513 0.0
C249 C 0.79633 0.1607 0.46057 0.0
O250 O 0.77431 0.15198 0.52009 0.0
O251 O 0.78949 0.16829 0.47529 0.0
C252 C 0.60167 0.0096 0.30623 0.0
O253 O 0.59065 0.01459 0.29336 0.0
Cd254 Cd 0.59976 0.01434 0.2608 0.0
O255 O 0.61794 0.00262 0.30253 0.0
Cd256 Cd 0.63877 0.99286 0.27654 0.0
C257 C 0.64226 0.03761 0.26425 0.0
O258 O 0.61368 0.98486 0.25655 0.0
O259 O 0.64132 0.98369 0.24331 0.0
O260 O 0.64616 0.96509 0.29311 0.0
C261 C 0.62347 0.98228 0.24174 0.0
O262 O 0.62521 0.03723 0.25857 0.0
C263 C 0.66398 0.96779 0.2931 0.0
O264 O 0.64983 0.02368 0.27179 0.0
O265 O 0.67006 0.98223 0.28521 0.0
C266 C 0.79177 0.92485 0.00987 0.0
O267 O 0.7795 0.93276 -9e-05 0.0
Cd268 Cd 0.748 0.92275 0.99417 0.0
O269 O 0.78774 0.90998 0.01842 0.0
Cd270 Cd 0.75931 0.88921 0.02262 0.0
C271 C 0.75768 0.87964 0.97554 0.0
O272 O 0.73623 0.91402 0.02395 0.0
O273 O 0.72407 0.88704 0.02398 0.0
O274 O 0.76496 0.88762 0.05609 0.0
C275 C 0.72148 0.90424 0.02476 0.0
O276 O 0.75202 0.89616 0.97398 0.0
C277 C 0.76576 0.8703 0.05723 0.0
O278 O 0.76207 0.87326 0.99149 0.0
O279 O 0.76449 0.8614 0.04197 0.0
C280 C 0.31331 0.6042 0.00575 0.0
O281 O 0.30047 0.5941 0.01288 0.0
Cd282 Cd 0.26823 0.60444 0.01809 0.0
O283 O 0.30951 0.62033 0.00032 0.0
Cd284 Cd 0.28346 0.64198 -0.00353 0.0
C285 C 0.27406 0.64511 0.0428 0.0
O286 O 0.26074 0.61907 0.98969 0.0
O287 O 0.24913 0.64631 0.99263 0.0
O288 O 0.29649 0.64581 0.96566 0.0
C289 C 0.24623 0.62939 0.98986 0.0
O290 O 0.26785 0.62876 0.04183 0.0
C291 C 0.29845 0.66303 0.96671 0.0
O292 O 0.28186 0.65279 0.02867 0.0
O293 O 0.29342 0.67081 0.982 0.0
C294 C 0.11282 0.51885 0.80721 0.0
O295 O 0.10249 0.52638 0.79507 0.0
Cd296 Cd 0.10887 0.5227 0.76213 0.0
O297 O 0.1266 0.50839 0.80232 0.0
Cd298 Cd 0.14342 0.49462 0.77561 0.0
C299 C 0.15574 0.53703 0.76152 0.0
O300 O 0.11498 0.49077 0.75878 0.0
O301 O 0.14044 0.4843 0.74295 0.0
O302 O 0.14403 0.46803 0.79543 0.0
C303 C 0.12246 0.48556 0.74343 0.0
O304 O 0.13851 0.53937 0.75689 0.0
C305 C 0.16128 0.46396 0.79181 0.0
O306 O 0.16114 0.52243 0.76956 0.0
O307 O 0.17041 0.47447 0.78079 0.0
C308 C 0.29552 0.42716 0.51315 0.0
O309 O 0.2833 0.43619 0.50415 0.0
Cd310 Cd 0.25181 0.4266 0.49827 0.0
O311 O 0.29116 0.41172 0.52038 0.0
Cd312 Cd 0.26172 0.39186 0.52313 0.0
C313 C 0.26076 0.38515 0.47584 0.0
O314 O 0.23902 0.41716 0.52774 0.0
O315 O 0.22663 0.39098 0.52179 0.0
O316 O 0.27058 0.38715 0.55574 0.0
C317 C 0.22415 0.40764 0.52635 0.0
O318 O 0.25512 0.40176 0.47546 0.0
C319 C 0.26752 0.37005 0.55618 0.0
O320 O 0.26518 0.37773 0.49129 0.0
O321 O 0.26239 0.36269 0.54097 0.0
C322 C 0.42227 0.54272 0.27055 0.0
O323 O 0.43118 0.53753 0.25582 0.0
Cd324 Cd 0.41639 0.534 0.22625 0.0
O325 O 0.40452 0.5462 0.27038 0.0
Cd326 Cd 0.37792 0.54593 0.24865 0.0
C327 C 0.38506 0.50081 0.23993 0.0
O328 O 0.39548 0.55981 0.22335 0.0
O329 O 0.36852 0.54867 0.21583 0.0
O330 O 0.36511 0.5715 0.26669 0.0
C331 C 0.38328 0.55739 0.21088 0.0
O332 O 0.39903 0.50522 0.2293 0.0
C333 C 0.34811 0.56577 0.26713 0.0
O334 O 0.37595 0.51284 0.24952 0.0
O335 O 0.34499 0.55049 0.25921 0.0
Co336 Co 0.00657 0.02775 0.00315 0.0
C337 C 0.00348 0.04997 0.03527 0.0
Co338 Co 0.01263 0.01356 0.02923 0.0
C339 C 0.9908 0.03607 0.96759 0.0
C340 C 0.01033 0.05658 0.97645 0.0
N341 N 0.00217 0.0407 0.98173 0.0
N342 N 0.99169 0.04834 0.95363 0.0
C343 C 0.004 0.06125 0.95907 0.0
H344 H 0.98248 0.02365 0.96728 0.0
H345 H 0.02045 0.06413 0.9846 0.0
C346 C 0.01568 0.99129 -0.00288 0.0
N347 N 0.01715 0.00016 0.05033 0.0
C348 C 0.03005 0.00322 0.06358 0.0
C349 C 0.01023 0.98332 0.05397 0.0
N350 N 0.03171 0.98878 0.07506 0.0
C351 C 0.01925 0.97624 0.06915 0.0
C352 C 0.97472 0.01166 0.01877 0.0
O353 O 0.01046 0.00572 0.98874 0.0
O354 O 0.01824 0.99208 0.0146 0.0
O355 O 0.98671 0.0066 0.0307 0.0
O356 O 0.98018 0.02197 0.00549 0.0
O357 O 0.00704 0.03516 0.04389 0.0
H358 H 9e-05 0.97619 0.04547 0.0
H359 H 0.03899 0.01522 0.06403 0.0
O360 O 0.00262 0.04959 0.01755 0.0
O361 O 0.03297 0.03351 0.00088 0.0
O362 O 0.03869 0.02067 0.02769 0.0
C363 C 0.04458 0.02975 0.01367 0.0
H364 H 0.0081 0.07316 0.95105 0.0
H365 H 0.01733 0.96271 0.07497 0.0
Co366 Co 0.27349 0.76945 0.27419 0.0
C367 C 0.26679 0.73283 0.26945 0.0
Co368 Co 0.25237 0.76407 0.25259 0.0
C369 C 0.28482 0.78886 0.30592 0.0
C370 C 0.30386 0.76628 0.30119 0.0
N371 N 0.28906 0.77524 0.29373 0.0
N372 N 0.29599 0.7887 0.32089 0.0
C373 C 0.30808 0.77449 0.31805 0.0
H374 H 0.27257 0.79778 0.30464 0.0
H375 H 0.31031 0.75395 0.29539 0.0
C376 C 0.25896 0.80064 0.25753 0.0
N377 N 0.23609 0.75888 0.23333 0.0
C378 C 0.24109 0.75071 0.21703 0.0
C379 C 0.21738 0.76275 0.23181 0.0
N380 N 0.22645 0.74952 0.2054 0.0
C381 C 0.21135 0.75683 0.21457 0.0
C382 C 0.23568 0.76717 0.28694 0.0
O383 O 0.27068 0.79455 0.26917 0.0
O384 O 0.2487 0.78947 0.24864 0.0
O385 O 0.23181 0.76395 0.27002 0.0
O386 O 0.2527 0.77033 0.2912 0.0
O387 O 0.25594 0.73861 0.25675 0.0
H388 H 0.20874 0.76969 0.24238 0.0
H389 H 0.25523 0.74565 0.2136 0.0
O390 O 0.2762 0.74424 0.27895 0.0
O391 O 0.29418 0.76847 0.2574 0.0
O392 O 0.27343 0.76422 0.23541 0.0
C393 C 0.29055 0.76618 0.24026 0.0
H394 H 0.31856 0.76984 0.32782 0.0
H395 H 0.19724 0.75822 0.20902 0.0
Co396 Co 0.49906 0.01751 0.51217 0.0
C397 C 0.51063 0.05317 0.5056 0.0
Co398 Co 0.52407 0.02487 0.52813 0.0
C399 C 0.46173 0.00457 0.50511 0.0
C400 C 0.47676 0.01108 0.47973 0.0
N401 N 0.47839 0.011 0.49849 0.0
N402 N 0.44982 0.00054 0.49126 0.0
C403 C 0.45917 0.00449 0.47522 0.0
H404 H 0.45853 0.00248 0.5198 0.0
H405 H 0.4877 0.01553 0.46996 0.0
C406 C 0.51227 0.98915 0.53461 0.0
N407 N 0.54506 0.03164 0.54141 0.0
C408 C 0.55805 0.04386 0.53552 0.0
C409 C 0.55144 0.0256 0.55794 0.0
N410 N 0.57222 0.04579 0.54762 0.0
C411 C 0.56838 0.03418 0.5617 0.0
C412 C 0.4901 0.03294 0.54635 0.0
O413 O 0.49881 0.99404 0.52413 0.0
O414 O 0.52548 0.00047 0.53792 0.0
O415 O 0.50798 0.03227 0.54835 0.0
O416 O 0.48306 0.02724 0.53124 0.0
O417 O 0.52237 0.04918 0.51819 0.0
H418 H 0.54445 0.01539 0.5665 0.0
H419 H 0.5576 0.05073 0.52218 0.0
O420 O 0.49922 0.04091 0.50022 0.0
O421 O 0.51511 0.00801 0.49325 0.0
O422 O 0.54021 0.01773 0.50771 0.0
C423 C 0.53294 0.01012 0.4936 0.0
H424 H 0.45361 0.00285 0.46133 0.0
H425 H 0.57724 0.03197 0.57366 0.0
Co426 Co 0.27824 0.27526 0.77224 0.0
C427 C 0.26555 0.28257 0.73661 0.0
Co428 Co 0.25302 0.25936 0.76519 0.0
C429 C 0.31563 0.28185 0.785 0.0
C430 C 0.30234 0.30656 0.77579 0.0
N431 N 0.29933 0.28849 0.7782 0.0
N432 N 0.32881 0.295 0.78681 0.0
C433 C 0.32053 0.3106 0.78104 0.0
H434 H 0.31798 0.26748 0.78791 0.0
H435 H 0.29209 0.31607 0.77024 0.0
C436 C 0.2659 0.25194 0.80076 0.0
N437 N 0.23179 0.24633 0.75889 0.0
C438 C 0.21654 0.25367 0.75072 0.0
C439 C 0.22852 0.22814 0.75924 0.0
N440 N 0.20391 0.24089 0.74572 0.0
C441 C 0.21136 0.22472 0.75094 0.0
C442 C 0.28663 0.24197 0.75541 0.0
O443 O 0.27865 0.26339 0.79604 0.0
O444 O 0.25293 0.24819 0.78925 0.0
O445 O 0.26869 0.24034 0.75561 0.0
O446 O 0.29388 0.2565 0.76185 0.0
O447 O 0.25329 0.27054 0.74098 0.0
H448 H 0.23831 0.218 0.76446 0.0
H449 H 0.21528 0.26808 0.74744 0.0
O450 O 0.2778 0.28704 0.74854 0.0
O451 O 0.26269 0.29383 0.78266 0.0
O452 O 0.23733 0.27858 0.77501 0.0
C453 C 0.24476 0.29257 0.78243 0.0
H454 H 0.32716 0.32393 0.78053 0.0
H455 H 0.20513 0.21143 0.74847 0.0
Co456 Co 0.01286 0.00582 0.52311 0.0
C457 C -0.0002 0.0224 0.5551 0.0
Co458 Co 0.02649 0.03232 0.52786 0.0
C459 C 0.0123 0.96894 0.51098 0.0
C460 C 0.98421 0.97784 0.51881 0.0
N461 N 0.00246 0.98333 0.5181 0.0
N462 N 0.001 0.95478 0.50681 0.0
C463 C 0.98327 0.96019 0.51188 0.0
H464 H 0.02752 0.96904 0.5085 0.0
H465 H 0.97233 0.98635 0.52339 0.0
C466 C 0.03955 0.01607 0.49584 0.0
N467 N 0.03733 0.0546 0.5327 0.0
C468 C 0.02856 0.06972 0.5396 0.0
C469 C 0.05576 0.05919 0.53069 0.0
N470 N 0.0408 0.08361 0.54209 0.0
C471 C 0.05794 0.07704 0.53645 0.0
C472 C 0.04501 0.00328 0.54395 0.0
O473 O 0.02887 0.00324 0.50146 0.0
O474 O 0.0404 0.03076 0.50525 0.0
O475 O 0.04655 0.02027 0.54057 0.0
O476 O 0.0311 0.99446 0.53765 0.0
O477 O 0.0124 0.03398 0.55051 0.0
H478 H 0.06692 0.05004 0.52565 0.0
H479 H 0.01347 0.07044 0.54276 0.0
O480 O -0.00297 0.00863 0.5446 0.0
O481 O 0.99435 0.01722 0.50869 0.0
O482 O 0.00627 0.04413 0.51518 0.0
C483 C 0.99364 0.03453 0.50738 0.0
H484 H 0.97049 0.95231 0.50992 0.0
H485 H 0.07123 0.08438 0.53698 0.0
Co486 Co 0.27266 0.78509 0.77892 0.0
C487 C 0.23719 0.77276 0.79041 0.0
Co488 Co 0.26486 0.75888 0.76594 0.0
C489 C 0.2889 0.82049 0.78098 0.0
C490 C 0.27563 0.81343 0.80711 0.0
N491 N 0.27941 0.80696 0.7897 0.0
N492 N 0.29118 0.83516 0.79214 0.0
C493 C 0.28277 0.83092 0.8086 0.0
H494 H 0.29357 0.81982 0.76648 0.0
H495 H 0.268 0.80601 0.8179 0.0
C496 C 0.30018 0.77118 0.754 0.0
N497 N 0.25808 0.73719 0.75468 0.0
C498 C 0.25038 0.72213 0.76253 0.0
C499 C 0.25892 0.73354 0.73618 0.0
N500 N 0.24619 0.70936 0.7496 0.0
C501 C 0.25154 0.71646 0.73301 0.0
C502 C 0.25427 0.7893 0.74575 0.0
O503 O 0.29621 0.7844 0.76507 0.0
O504 O 0.28841 0.75818 0.75251 0.0
O505 O 0.25396 0.77194 0.74615 0.0
O506 O 0.26144 0.798 0.75923 0.0
O507 O 0.24119 0.7597 0.77917 0.0
H508 H 0.26434 0.74281 0.72565 0.0
H509 H 0.24745 0.72077 0.77737 0.0
O510 O 0.24912 0.78553 0.79269 0.0
O511 O 0.28404 0.77234 0.79832 0.0
O512 O 0.2761 0.74596 0.78596 0.0
C513 C 0.28413 0.75498 0.79882 0.0
H514 H 0.2819 0.8398 0.82077 0.0
H515 H 0.25028 0.70973 0.71958 0.0
Co516 Co 0.50948 0.01154 0.0059 0.0
C517 C 0.54301 -3e-05 0.02185 0.0
Co518 Co 0.51668 0.02728 0.03102 0.0
C519 C 0.4987 0.00441 0.96833 0.0
C520 C 0.50473 0.97967 0.98302 0.0
N521 N 0.50364 -0.00198 0.98513 0.0
N522 N 0.49684 0.99082 0.95566 0.0
C523 C 0.50055 0.97519 0.96489 0.0
H524 H 0.49663 0.01883 0.96552 0.0
H525 H 0.50877 0.97022 0.99384 0.0
C526 C 0.48312 0.03874 0.01507 0.0
N527 N 0.52291 0.04059 0.05199 0.0
C528 C 0.5333 0.03426 0.06614 0.0
C529 C 0.51883 0.05818 0.05664 0.0
N530 N 0.53602 0.04711 0.07927 0.0
C531 C 0.5268 0.0622 0.07364 0.0
C532 C 0.531 0.04198 -0.00177 0.0
O533 O 0.48706 0.02614 0.00322 0.0
O534 O 0.49421 0.04138 0.02856 0.0
O535 O 0.52996 0.04417 0.01584 0.0
O536 O 0.52325 0.02812 0.9909 0.0
O537 O 0.53921 0.01294 0.03322 0.0
H538 H 0.51074 0.06751 0.04819 0.0
H539 H 0.53871 0.02037 0.06699 0.0
O540 O 0.5318 -0.00303 0.00857 0.0
O541 O 0.49567 -0.0048 0.02094 0.0
O542 O 0.50322 0.01034 0.04622 0.0
C543 C 0.49465 -0.00289 0.03855 0.0
H544 H 0.50076 0.96154 0.95891 0.0
H545 H 0.5262 0.07516 0.08107 0.0
Co546 Co 0.26035 0.25931 0.27574 0.0
C547 C 0.29818 0.26922 0.27896 0.0
Co548 Co 0.26742 0.2847 0.26107 0.0
C549 C 0.24475 0.22393 0.28244 0.0
C550 C 0.25982 0.23384 0.30606 0.0
N551 N 0.25459 0.23838 0.28867 0.0
N552 N 0.24368 0.21046 0.29519 0.0
C553 C 0.25316 0.2166 0.3101 0.0
H554 H 0.23895 0.22313 0.26858 0.0
H555 H 0.26814 0.24242 0.31511 0.0
C556 C 0.22955 0.27476 0.25792 0.0
N557 N 0.27335 0.30557 0.24802 0.0
C558 C 0.28513 0.3191 0.25311 0.0
C559 C 0.26812 0.30978 0.23054 0.0
N560 N 0.28766 0.33145 0.23939 0.0
C561 C 0.27699 0.32568 0.22515 0.0
C562 C 0.27078 0.25319 0.23869 0.0
O563 O 0.23466 0.26131 0.26788 0.0
O564 O 0.24162 0.28706 0.25388 0.0
O565 O 0.27255 0.2705 0.23897 0.0
O566 O 0.26618 0.2451 0.25377 0.0
O567 O 0.29333 0.28226 0.26835 0.0
H568 H 0.25888 0.30153 0.22207 0.0
H569 H 0.29232 0.31946 0.26632 0.0
O570 O 0.2859 0.25732 0.28354 0.0
O571 O 0.25458 0.27347 0.29756 0.0
O572 O 0.26224 0.29888 0.28325 0.0
C573 C 0.25694 0.29071 0.2981 0.0
H574 H 0.25513 0.20921 0.32297 0.0
H575 H 0.27582 0.33238 0.21178 0.0
Co576 Co 0.50916 0.50393 0.01956 0.0
C577 C 0.49557 0.52482 0.04905 0.0
Co578 Co 0.52493 0.52956 0.02325 0.0
C579 C 0.50528 0.46617 0.01178 0.0
C580 C 0.47789 0.47838 0.0166 0.0
N581 N 0.49663 0.48212 0.01636 0.0
N582 N 0.4928 0.45264 0.00876 0.0
C583 C 0.47549 0.46017 0.01194 0.0
H584 H 0.52054 0.46462 0.01031 0.0
H585 H 0.46674 0.48837 0.01934 0.0
C586 C 0.53823 0.50884 0.99348 0.0
N587 N 0.538 0.55109 0.02608 0.0
C588 C 0.53068 0.56803 0.02862 0.0
C589 C 0.55699 0.55337 0.02535 0.0
N590 N 0.54434 0.58087 0.02947 0.0
C591 C 0.56094 0.57168 0.02744 0.0
C592 C 0.53926 0.50083 0.04337 0.0
O593 O 0.52547 0.49787 -0.00094 0.0
O594 O 0.54052 0.52375 0.00229 0.0
O595 O 0.54219 0.51746 0.03919 0.0
O596 O 0.52556 0.49238 0.03613 0.0
O597 O 0.50906 0.53542 0.04425 0.0
H598 H 0.56728 0.54241 0.02338 0.0
H599 H 0.51558 0.57086 0.02957 0.0
O600 O 0.49294 0.51016 0.03984 0.0
O601 O 0.49262 0.51556 0.00308 0.0
O602 O 0.50749 0.54151 0.0073 0.0
C603 C 0.49434 0.53251 -0.00037 0.0
H604 H 0.46208 0.45325 0.01018 0.0
H605 H 0.57494 0.57768 0.02783 0.0
Co606 Co 0.76705 0.27888 0.27444 0.0
C607 C 0.73418 0.26126 0.28608 0.0
Co608 Co 0.76414 0.2515 0.26194 0.0
C609 C 0.77555 0.3166 0.27534 0.0
C610 C 0.76798 0.3073 0.30275 0.0
N611 N 0.76981 0.30173 0.28482 0.0
N612 N 0.77772 0.33128 0.28656 0.0
C613 C 0.77285 0.32553 0.30387 0.0
H614 H 0.77832 0.3165 0.26041 0.0
H615 H 0.7639 0.29855 0.31428 0.0
C616 C 0.79695 0.26926 0.25026 0.0
N617 N 0.76152 0.22891 0.25074 0.0
C618 C 0.75382 0.21351 0.2578 0.0
C619 C 0.76497 0.22515 0.23249 0.0
N620 N 0.75205 0.20046 0.24456 0.0
C621 C 0.75903 0.20768 0.22862 0.0
C622 C 0.74839 0.27938 0.24121 0.0
O623 O 0.79064 0.28179 0.26113 0.0
O624 O 0.78752 0.25462 0.24861 0.0
O625 O 0.75106 0.2622 0.24185 0.0
O626 O 0.7541 0.28933 0.25448 0.0
O627 O 0.74057 0.24854 0.2754 0.0
H628 H 0.77057 0.23482 0.22243 0.0
H629 H 0.74852 0.21229 0.27204 0.0
O630 O 0.74366 0.27593 0.28767 0.0
O631 O 0.78008 0.26844 0.29427 0.0
O632 O 0.77746 0.24091 0.28212 0.0
C633 C 0.78341 0.25137 0.295 0.0
H634 H 0.77346 0.33366 0.31654 0.0
H635 H 0.75917 0.20103 0.21506 0.0
Co636 Co 0.01013 0.51095 0.50117 0.0
C637 C 0.04375 0.50087 0.51818 0.0
Co638 Co 0.01371 0.52366 0.52878 0.0
C639 C 0.00176 0.50769 0.46235 0.0
C640 C 0.01171 0.48237 0.47361 0.0
N641 N 0.00754 0.49991 0.47826 0.0
N642 N 0.00226 0.49575 0.44792 0.0
C643 C 0.00854 0.47978 0.4549 0.0
H644 H -0.00235 0.52196 0.46131 0.0
H645 H 0.01685 0.47217 0.4832 0.0
C646 C 0.98015 0.53371 0.51161 0.0
N647 N 0.01652 0.53461 0.55183 0.0
C648 C 0.02669 0.52786 0.56594 0.0
C649 C 0.00972 0.55089 0.55822 0.0
N650 N 0.02667 0.53925 0.58074 0.0
C651 C 0.01586 0.55372 0.57617 0.0
C652 C 0.02794 0.5444 0.4998 0.0
O653 O 0.98651 0.52342 0.4985 0.0
O654 O 0.98975 0.53546 0.52633 0.0
O655 O 0.02557 0.54377 0.51739 0.0
O656 O 0.02275 0.53094 0.48984 0.0
O657 O 0.03781 0.51179 0.53089 0.0
H658 H 0.00111 0.56023 0.55027 0.0
H659 H 0.034 0.51476 0.56546 0.0
O660 O 0.03371 0.49845 0.50388 0.0
O661 O -0.00277 0.49138 0.51253 0.0
O662 O 0.00149 0.50346 0.54024 0.0
C663 C 0.99479 0.4908 0.53011 0.0
H664 H 0.0105 0.46714 0.44709 0.0
H665 H 0.01305 0.5656 0.58496 0.0
Co666 Co 0.78683 0.77979 0.27417 0.0
C667 C 0.76901 0.7878 0.2404 0.0
Co668 Co 0.75696 0.77132 0.27316 0.0
C669 C 0.82713 0.77785 0.27923 0.0
C670 C 0.81851 0.80311 0.26685 0.0
N671 N 0.81172 0.78722 0.27372 0.0
N672 N 0.8433 0.78721 0.27596 0.0
C673 C 0.83795 0.80313 0.26817 0.0
H674 H 0.82651 0.76426 0.28518 0.0
H675 H 0.80986 0.81392 0.26112 0.0
C676 C 0.77488 0.7632 0.30677 0.0
N677 N 0.73189 0.76418 0.27363 0.0
C678 C 0.72121 0.75891 0.25919 0.0
C679 C 0.71988 0.76454 0.28855 0.0
N680 N 0.70292 0.7562 0.26444 0.0
C681 C 0.70209 0.75962 0.28296 0.0
C682 C 0.78201 0.74452 0.26095 0.0
O683 O 0.78937 0.77048 0.29902 0.0
O684 O 0.75954 0.76232 0.29784 0.0
O685 O 0.76445 0.74807 0.26353 0.0
O686 O 0.79418 0.75677 0.26444 0.0
O687 O 0.75458 0.78054 0.24827 0.0
H688 H 0.72359 0.76892 0.30245 0.0
H689 H 0.72665 0.75767 0.24498 0.0
O690 O 0.78433 0.78882 0.24938 0.0
O691 O 0.77934 0.80282 0.28411 0.0
O692 O 0.74958 0.79442 0.28297 0.0
C693 C 0.76187 0.80636 0.28706 0.0
H694 H 0.84738 0.81408 0.26398 0.0
H695 H 0.68931 0.75976 0.29165 0.0
Co696 Co 0.77293 0.27092 0.77627 0.0
C697 C 0.76995 0.23715 0.7604 0.0
Co698 Co 0.76109 0.27239 0.74806 0.0
C699 C 0.77268 0.28108 0.81428 0.0
C700 C 0.79479 0.26136 0.80904 0.0
N701 N 0.78095 0.27088 0.80061 0.0
N702 N 0.78075 0.2785 0.83091 0.0
C703 C 0.79465 0.26599 0.8278 0.0
H704 H 0.76059 0.28999 0.81211 0.0
H705 H 0.80425 0.25166 0.80204 0.0
C706 C 0.76362 0.30607 0.76458 0.0
N707 N 0.75239 0.27267 0.72399 0.0
C708 C 0.75849 0.26186 0.70975 0.0
C709 C 0.73768 0.28228 0.71718 0.0
N710 N 0.74806 0.26411 0.69436 0.0
C711 C 0.73493 0.27698 0.69894 0.0
C712 C 0.73368 0.26782 0.77472 0.0
O713 O 0.77025 0.29652 0.77765 0.0
O714 O 0.7586 0.29826 0.7496 0.0
O715 O 0.73581 0.26991 0.75726 0.0
O716 O 0.74795 0.26791 0.78515 0.0
O717 O 0.7633 0.24627 0.74694 0.0
H718 H 0.72914 0.29206 0.72515 0.0
H719 H 0.76983 0.25187 0.71098 0.0
O720 O 0.7756 0.2455 0.77483 0.0
O721 O 0.79772 0.27367 0.76739 0.0
O722 O 0.78668 0.27485 0.73894 0.0
C723 C 0.80068 0.27513 0.74993 0.0
H724 H 0.80411 0.26072 0.83824 0.0
H725 H 0.72395 0.28197 0.68989 0.0
Co726 Co 0.76358 0.7546 0.77464 0.0
C727 C 0.80087 0.76641 0.77853 0.0
Co728 Co 0.76928 0.78119 0.76167 0.0
C729 C 0.7511 0.71777 0.778 0.0
C730 C 0.76378 0.72709 0.80323 0.0
N731 N 0.75932 0.73242 0.78585 0.0
N732 N 0.75024 0.70345 0.78973 0.0
C733 C 0.75809 0.70923 0.8057 0.0
H734 H 0.74556 0.71773 0.76401 0.0
H735 H 0.77075 0.7356 0.81339 0.0
C736 C 0.73182 0.76943 0.75808 0.0
N737 N 0.77348 0.80328 0.75005 0.0
C738 C 0.78603 0.81643 0.75439 0.0
C739 C 0.76474 0.80946 0.73469 0.0
N740 N 0.78532 0.83056 0.74241 0.0
C741 C 0.7719 0.82631 0.73005 0.0
C742 C 0.77441 0.75167 0.73724 0.0
O743 O 0.73768 0.75549 0.76689 0.0
O744 O 0.74327 0.78248 0.75502 0.0
O745 O 0.77499 0.769 0.73865 0.0
O746 O 0.77042 0.74236 0.75172 0.0
O747 O 0.7954 0.77972 0.76856 0.0
H748 H 0.75402 0.80207 0.72717 0.0
H749 H 0.79543 0.81572 0.76614 0.0
O750 O 0.78921 0.75373 0.78244 0.0
O751 O 0.75688 0.76689 0.79737 0.0
O752 O 0.76348 0.79346 0.78478 0.0
C753 C 0.75844 0.78416 0.799 0.0
H754 H 0.75977 0.70109 0.81815 0.0
H755 H 0.7679 0.83462 0.71828 0.0
Co756 Co 0.51017 0.52674 0.50415 0.0
C757 C 0.51122 0.55001 0.53575 0.0
Co758 Co 0.51774 0.51301 0.53017 0.0
C759 C 0.49668 0.53366 0.46703 0.0
C760 C 0.5085 0.55752 0.47975 0.0
N761 N 0.50474 0.53965 0.48283 0.0
N762 N 0.49514 0.54713 0.45438 0.0
C763 C 0.50246 0.56218 0.4623 0.0
H764 H 0.49197 0.51973 0.46484 0.0
H765 H 0.51546 0.56656 0.48943 0.0
C766 C 0.51704 0.48972 0.49878 0.0
N767 N 0.52323 0.50008 0.55136 0.0
C768 C 0.53746 0.50262 0.56337 0.0
C769 C 0.51446 0.48469 0.55716 0.0
N770 N 0.53794 0.48937 0.5764 0.0
C771 C 0.52343 0.47811 0.57258 0.0
C772 C 0.47886 0.5127 0.52256 0.0
O773 O 0.51316 0.50432 0.48999 0.0
O774 O 0.51963 0.49074 0.51624 0.0
O775 O 0.49129 0.5085 0.53444 0.0
O776 O 0.48398 0.52137 0.50798 0.0
O777 O 0.51609 0.53551 0.54426 0.0
H778 H 0.5027 0.47828 0.55023 0.0
H779 H 0.54741 0.51383 0.56241 0.0
O780 O 0.50724 0.54887 0.51857 0.0
O781 O 0.5363 0.53207 0.50023 0.0
O782 O 0.54404 0.51748 0.5256 0.0
C783 C 0.54898 0.52676 0.51137 0.0
H784 H 0.50382 0.57544 0.45572 0.0
H785 H 0.51998 0.46562 0.57995 0.0
Co786 Co -0.00043 0.51388 0.00578 0.0
C787 C 0.01195 0.54914 -0.00146 0.0
Co788 Co 0.02422 0.52121 0.02244 0.0
C789 C 0.96256 0.50025 2e-05 0.0
C790 C 0.97486 0.51001 0.97441 0.0
N791 N 0.97853 0.50746 0.99261 0.0
N792 N 0.94886 0.49841 0.98732 0.0
C793 C 0.95658 0.50442 0.97109 0.0
H794 H 0.96103 0.49665 0.01461 0.0
H795 H 0.98465 0.51602 0.96437 0.0
C796 C 0.01188 0.48605 0.02968 0.0
N797 N 0.04526 0.52807 0.03546 0.0
C798 C 0.05964 0.53786 0.02808 0.0
C799 C 0.04972 0.52563 0.0535 0.0
N800 N 0.07286 0.54188 0.04071 0.0
C801 C 0.06685 0.53408 0.05677 0.0
C802 C 0.99032 0.53058 0.03955 0.0
O803 O -0.00076 0.49049 0.01808 0.0
O804 O 0.02472 0.4975 0.03366 0.0
O805 O 0.00814 0.53025 0.04201 0.0
O806 O 0.98375 0.52393 0.02466 0.0
O807 O 0.02371 0.54494 0.01104 0.0
H808 H 0.041 0.51842 0.06363 0.0
H809 H 0.06041 0.5419 0.01356 0.0
O810 O -0.00012 0.53725 0.99366 0.0
O811 O 0.01545 0.50405 0.98677 0.0
O812 O 0.04017 0.51236 0.00277 0.0
C813 C 0.03333 0.50522 0.9882 0.0
H814 H 0.94936 0.50534 0.95794 0.0
H815 H 0.07406 0.53477 0.06995 0.0
H816 H 0.02024 0.21791 0.09066 0.0
H817 H 0.01614 0.18806 0.0754 0.0
H818 H 0.00284 0.1638 0.12888 0.0
H819 H 0.00786 0.19323 0.14415 0.0
H820 H 0.02362 0.14128 0.11173 0.0
H821 H 0.96826 0.17408 0.09366 0.0
H822 H 0.94969 0.19945 0.08042 0.0
H823 H 0.97719 0.19071 0.02696 0.0
H824 H -0.0039 0.16541 0.03994 0.0
H825 H 0.99332 0.05645 0.0721 0.0
H826 H 0.99226 0.08607 0.08856 0.0
H827 H 0.01025 0.11313 0.03783 0.0
H828 H 0.01017 0.08388 0.02121 0.0
H829 H 0.98541 0.13368 0.0549 0.0
H830 H 0.03927 0.09767 0.07571 0.0
H831 H 0.05358 0.07079 0.09082 0.0
H832 H 0.02483 0.08485 0.14246 0.0
H833 H 0.00972 0.11136 0.12747 0.0
C834 C 0.01638 0.20621 0.09912 0.0
C835 C 0.01441 0.20801 0.11864 0.0
C836 C 0.01392 0.18911 0.09038 0.0
C837 C 0.0089 0.17351 0.10088 0.0
C838 C 0.00679 0.17544 0.12036 0.0
C839 C 0.00961 0.19237 0.1291 0.0
C840 C 0.00618 0.15514 0.09179 0.0
C841 C 0.01504 0.13964 0.09944 0.0
C842 C -0.00494 0.15277 0.07568 0.0
C843 C 0.98373 0.16797 0.06782 0.0
C844 C 0.97044 0.17765 0.07911 0.0
C845 C 0.95984 0.19201 0.07165 0.0
C846 C 0.96229 0.19672 0.05287 0.0
C847 C 0.97532 0.18706 0.0415 0.0
C848 C 0.98598 0.1727 0.0489 0.0
C849 C -0.00315 0.06877 0.06446 0.0
C850 C 0.00188 0.06779 0.04537 0.0
C851 C -0.00366 0.08571 0.07389 0.0
C852 C 0.00159 0.10193 0.0646 0.0
C853 C 0.00616 0.10093 0.04541 0.0
C854 C 0.00617 0.08413 0.0359 0.0
C855 C 0.00304 0.11991 0.0747 0.0
C856 C 0.99394 0.13535 0.06723 0.0
C857 C 0.01355 0.1221 0.09126 0.0
C858 C 0.02323 0.10646 0.10038 0.0
C859 C 0.03592 0.09499 0.09026 0.0
C860 C 0.04411 0.07976 0.09878 0.0
C861 C 0.04015 0.07613 0.11759 0.0
C862 C 0.0279 0.08767 0.12789 0.0
C863 C 0.01945 0.10276 0.11935 0.0
H864 H 0.04658 0.06439 0.12418 0.0
H865 H 0.95407 0.20784 0.04712 0.0
H866 H 0.10846 0.74208 0.41742 0.0
H867 H 0.14162 0.74374 0.40646 0.0
H868 H 0.12638 0.71843 0.35429 0.0
H869 H 0.09349 0.71654 0.36517 0.0
H870 H 0.16281 0.71029 0.36276 0.0
H871 H 0.1209 0.76373 0.36003 0.0
H872 H 0.09981 0.78729 0.37433 0.0
H873 H 0.14542 0.80597 0.40831 0.0
H874 H 0.1667 0.78228 0.3944 0.0
H875 H 0.19938 0.75479 0.28384 0.0
H876 H 0.17756 0.74667 0.30949 0.0
H877 H 0.2179 0.7658 0.34951 0.0
H878 H 0.23978 0.77421 0.32406 0.0
H879 H 0.1755 0.77663 0.35429 0.0
H880 H 0.21925 0.72605 0.34821 0.0
H881 H 0.23815 0.70348 0.32984 0.0
H882 H 0.18698 0.68003 0.30891 0.0
H883 H 0.16778 0.70272 0.32685 0.0
C884 C 0.11235 0.73627 0.4039 0.0
C885 C 0.09841 0.72964 0.39189 0.0
C886 C 0.13127 0.73722 0.39768 0.0
C887 C 0.13629 0.73158 0.37943 0.0
C888 C 0.12277 0.72293 0.36839 0.0
C889 C 0.10394 0.72201 0.37455 0.0
C890 C 0.15409 0.73776 0.37032 0.0
C891 C 0.16578 0.72477 0.36113 0.0
C892 C 0.15794 0.75669 0.36824 0.0
C893 C 0.14529 0.7711 0.3764 0.0
C894 C 0.12638 0.7728 0.37064 0.0
C895 C 0.1144 0.78616 0.37867 0.0
C896 C 0.12125 0.79807 0.39227 0.0
C897 C 0.14012 0.79669 0.39782 0.0
C898 C 0.15215 0.78329 0.38989 0.0
C899 C 0.20346 0.75762 0.29807 0.0
C900 C 0.2213 0.76502 0.30195 0.0
C901 C 0.19106 0.7529 0.31266 0.0
C902 C 0.19632 0.7556 0.33125 0.0
C903 C 0.21368 0.76377 0.33519 0.0
C904 C 0.22613 0.76846 0.32063 0.0
C905 C 0.1838 0.74916 0.34646 0.0
C906 C 0.17306 0.76214 0.35662 0.0
C907 C 0.18062 0.73026 0.34913 0.0
C908 C 0.19207 0.71617 0.3388 0.0
C909 C 0.21203 0.71616 0.3396 0.0
C910 C 0.2228 0.70334 0.32927 0.0
C911 C 0.21378 0.69035 0.31819 0.0
C912 C 0.19395 0.6901 0.31749 0.0
C913 C 0.18311 0.70293 0.32776 0.0
H914 H 0.22214 0.68046 0.31016 0.0
H915 H 0.11195 0.80841 0.39848 0.0
H916 H 0.49164 0.83451 0.62003 0.0
H917 H 0.49022 0.86473 0.60525 0.0
H918 H 0.53938 0.85085 0.57104 0.0
H919 H 0.54052 0.82034 0.5853 0.0
H920 H 0.53665 0.88795 0.59686 0.0
H921 H 0.50816 0.85156 0.54726 0.0
H922 H 0.48448 0.82997 0.53526 0.0
H923 H 0.43934 0.86596 0.55394 0.0
H924 H 0.46276 0.8876 0.56637 0.0
H925 H 0.54336 0.96812 0.5422 0.0
H926 H 0.54408 0.93687 0.55421 0.0
H927 H 0.48276 0.93702 0.55819 0.0
H928 H 0.4821 0.96773 0.54471 0.0
H929 H 0.49144 0.90599 0.54799 0.0
H930 H 0.51573 0.94187 0.59781 0.0
H931 H 0.53639 0.96419 0.61335 0.0
H932 H 0.58534 0.93097 0.59953 0.0
H933 H 0.56499 0.90856 0.5837 0.0
C934 C 0.50202 0.8378 0.6092 0.0
C935 C 0.51617 0.82498 0.6038 0.0
C936 C 0.50119 0.85508 0.60078 0.0
C937 C 0.51468 0.86003 0.58705 0.0
C938 C 0.52879 0.84728 0.58157 0.0
C939 C 0.52938 0.82983 0.58968 0.0
C940 C 0.51447 0.87879 0.57898 0.0
C941 C 0.52698 0.8919 0.58597 0.0
C942 C 0.50126 0.88411 0.56542 0.0
C943 C 0.48721 0.87106 0.55799 0.0
C944 C 0.49318 0.85475 0.54904 0.0
C945 C 0.4798 0.84253 0.54211 0.0
C946 C 0.46041 0.84655 0.54391 0.0
C947 C 0.45436 0.86283 0.5526 0.0
C948 C 0.46768 0.87507 0.55959 0.0
C949 C 0.53005 0.96146 0.54569 0.0
C950 C 0.51268 0.97042 0.54261 0.0
C951 C 0.53045 0.94359 0.55274 0.0
C952 C 0.51349 0.93448 0.55768 0.0
C953 C 0.49611 0.94353 0.55458 0.0
C954 C 0.49571 0.96118 0.54693 0.0
C955 C 0.51383 0.91549 0.56572 0.0
C956 C 0.50123 0.90226 0.55884 0.0
C957 C 0.52658 0.91021 0.57988 0.0
C958 C 0.53886 0.92364 0.58941 0.0
C959 C 0.53092 0.93939 0.59798 0.0
C960 C 0.54257 0.95204 0.60685 0.0
C961 C 0.56217 0.94902 0.60738 0.0
C962 C 0.57016 0.93331 0.59908 0.0
C963 C 0.55857 0.92062 0.59017 0.0
H964 H 0.57117 0.95884 0.61426 0.0
H965 H 0.45008 0.83708 0.53851 0.0
H966 H 0.50665 0.28651 0.82765 0.0
H967 H 0.47655 0.29158 0.81198 0.0
H968 H 0.4502 0.24982 0.84591 0.0
H969 H 0.48015 0.24458 0.86159 0.0
H970 H 0.43934 0.2483 0.80903 0.0
H971 H 0.44504 0.29271 0.85882 0.0
H972 H 0.46085 0.31741 0.87611 0.0
H973 H 0.4594 0.35169 0.82763 0.0
H974 H 0.44381 0.32704 0.80995 0.0
H975 H 0.34175 0.26946 0.8106 0.0
H976 H 0.37472 0.26394 0.81891 0.0
H977 H 0.39253 0.30901 0.78411 0.0
H978 H 0.3595 0.31459 0.77572 0.0
H979 H 0.40941 0.30964 0.81757 0.0
H980 H 0.3982 0.2653 0.76962 0.0
H981 H 0.38151 0.24005 0.75405 0.0
H982 H 0.39282 0.20475 0.80029 0.0
H983 H 0.40896 0.22993 0.81644 0.0
C984 C 0.49451 0.27826 0.83162 0.0
C985 C 0.49569 0.26529 0.846 0.0
C986 C 0.47735 0.28119 0.82268 0.0
C987 C 0.4612 0.27118 0.82796 0.0
C988 C 0.46256 0.25766 0.84168 0.0
C989 C 0.47965 0.25478 0.85069 0.0
C990 C 0.44253 0.27554 0.82015 0.0
C991 C 0.43269 0.26166 0.81092 0.0
C992 C 0.43418 0.29311 0.82239 0.0
C993 C 0.44348 0.30796 0.833 0.0
C994 C 0.44824 0.30546 0.8518 0.0
C995 C 0.45713 0.31946 0.86168 0.0
C996 C 0.46117 0.33609 0.85296 0.0
C997 C 0.45629 0.33878 0.83435 0.0
C998 C 0.44743 0.3248 0.8244 0.0
C999 C 0.35269 0.27812 0.80464 0.0
C1000 C 0.34808 0.2924 0.79243 0.0
C1001 C 0.3715 0.27495 0.80938 0.0
C1002 C 0.38604 0.28588 0.80184 0.0
C1003 C 0.38147 0.3004 0.78999 0.0
C1004 C 0.36262 0.30363 0.7853 0.0
C1005 C 0.40598 0.28229 0.80666 0.0
C1006 C 0.41609 0.29634 0.81535 0.0
C1007 C 0.41447 0.2648 0.80407 0.0
C1008 C 0.4047 0.2496 0.79432 0.0
C1009 C 0.39694 0.25222 0.77658 0.0
C1010 C 0.38755 0.23791 0.76765 0.0
C1011 C 0.38604 0.22082 0.7762 0.0
C1012 C 0.39391 0.21801 0.7937 0.0
C1013 C 0.40316 0.23231 0.80276 0.0
H1014 H 0.37883 0.20974 0.76924 0.0
H1015 H 0.46804 0.34692 0.86064 0.0
H1016 H 0.02237 0.79649 0.43558 0.0
H1017 H 0.01624 0.82527 0.45202 0.0
H1018 H 0.0597 0.85159 0.41858 0.0
H1019 H 0.0661 0.82264 0.40196 0.0
H1020 H 0.06075 0.86071 0.45672 0.0
H1021 H 0.01553 0.85907 0.40783 0.0
H1022 H 0.99063 0.84539 0.38858 0.0
H1023 H 0.95394 0.84097 0.43702 0.0
H1024 H 0.97874 0.85438 0.45662 0.0
H1025 H 0.02983 0.95096 0.48149 0.0
H1026 H 0.03971 0.92303 0.46506 0.0
H1027 H 0.9947 0.89335 0.49306 0.0
H1028 H 0.9849 0.92136 0.50985 0.0
H1029 H -0.00447 0.88692 0.45608 0.0
H1030 H 0.04106 0.88631 0.50531 0.0
H1031 H 0.06653 0.89787 0.52528 0.0
H1032 H 0.10237 0.90623 0.47685 0.0
H1033 H 0.07711 0.89469 0.45657 0.0
C1034 C 0.03072 0.80833 0.43171 0.0
C1035 C 0.04463 0.8073 0.41733 0.0
C1036 C 0.02714 0.82479 0.44111 0.0
C1037 C 0.03734 0.84055 0.4363 0.0
C1038 C 0.05164 0.83953 0.42238 0.0
C1039 C 0.05522 0.82302 0.41288 0.0
C1040 C 0.03266 0.85811 0.44573 0.0
C1041 C 0.0466 0.86666 0.45635 0.0
C1042 C 0.01407 0.86555 0.44549 0.0
C1043 C -0.00094 0.8576 0.43372 0.0
C1044 C 0.00221 0.85505 0.41441 0.0
C1045 C 0.9881 0.84737 0.40343 0.0
C1046 C 0.97073 0.84227 0.41158 0.0
C1047 C 0.96741 0.8449 0.43073 0.0
C1048 C 0.98148 0.85257 0.44177 0.0
C1049 C 0.02226 0.93842 0.48444 0.0
C1050 C 0.00672 0.93826 0.49714 0.0
C1051 C 0.02791 0.92248 0.47501 0.0
C1052 C 0.0181 0.9061 0.47804 0.0
C1053 C 0.00249 0.90589 0.49059 0.0
C1054 C -0.00315 0.92186 0.50009 0.0
C1055 C 0.02352 0.88939 0.46739 0.0
C1056 C 0.00972 0.88105 0.45642 0.0
C1057 C 0.04222 0.88215 0.46735 0.0
C1058 C 0.05716 0.88975 0.47942 0.0
C1059 C 0.05432 0.89075 0.4989 0.0
C1060 C 0.06876 0.89718 0.51028 0.0
C1061 C 0.08609 0.90268 0.50234 0.0
C1062 C 0.08897 0.90188 0.48299 0.0
C1063 C 0.07462 0.89535 0.47155 0.0
H1064 H 0.09726 0.90762 0.51118 0.0
H1065 H 0.95983 0.83632 0.40306 0.0
H1066 H 0.47081 0.75661 0.70234 0.0
H1067 H 0.43793 0.75915 0.71315 0.0
H1068 H 0.42159 0.77777 0.6587 0.0
H1069 H 0.45491 0.77574 0.64781 0.0
H1070 H 0.40209 0.79626 0.6853 0.0
H1071 H 0.41354 0.73357 0.67147 0.0
H1072 H 0.43056 0.70394 0.6716 0.0
H1073 H 0.42331 0.7011 0.73121 0.0
H1074 H 0.40649 0.73085 0.73147 0.0
H1075 H 0.31102 0.74676 0.72666 0.0
H1076 H 0.34028 0.74663 0.70772 0.0
H1077 H 0.35904 0.7951 0.73662 0.0
H1078 H 0.32956 0.79557 0.75532 0.0
H1079 H 0.37482 0.74186 0.71699 0.0
H1080 H 0.38775 0.82046 0.70891 0.0
H1081 H 0.36869 0.84865 0.70516 0.0
H1082 H 0.32328 0.81717 0.68238 0.0
H1083 H 0.34213 0.78884 0.68577 0.0
C1084 C 0.46029 0.76129 0.6926 0.0
C1085 C 0.46549 0.76575 0.67411 0.0
C1086 C 0.44144 0.7627 0.69882 0.0
C1087 C 0.42718 0.76826 0.68664 0.0
C1088 C 0.43233 0.77334 0.66832 0.0
C1089 C 0.45136 0.77213 0.6621 0.0
C1090 C 0.40696 0.76821 0.69318 0.0
C1091 C 0.39608 0.78436 0.69216 0.0
C1092 C 0.39883 0.75249 0.70156 0.0
C1093 C 0.40885 0.73451 0.70149 0.0
C1094 C 0.41568 0.72669 0.68462 0.0
C1095 C 0.42528 0.70986 0.68462 0.0
C1096 C 0.42804 0.70066 0.70141 0.0
C1097 C 0.42117 0.70825 0.71822 0.0
C1098 C 0.41157 0.72508 0.7183 0.0
C1099 C 0.32134 0.75744 0.72896 0.0
C1100 C 0.31799 0.77113 0.74258 0.0
C1101 C 0.33807 0.75736 0.71808 0.0
C1102 C 0.35183 0.77094 0.72058 0.0
C1103 C 0.3485 0.78466 0.73415 0.0
C1104 C 0.3317 0.78482 0.74496 0.0
C1105 C 0.37015 0.77012 0.7098 0.0
C1106 C 0.3807 0.75375 0.71 0.0
C1107 C 0.37763 0.78544 0.70012 0.0
C1108 C 0.36632 0.80249 0.69777 0.0
C1109 C 0.37374 0.81956 0.70302 0.0
C1110 C 0.36296 0.83556 0.70098 0.0
C1111 C 0.34477 0.83469 0.69361 0.0
C1112 C 0.33734 0.81782 0.68817 0.0
C1113 C 0.34806 0.80178 0.69018 0.0
H1114 H 0.33644 0.84709 0.69209 0.0
H1115 H 0.43548 0.68763 0.70138 0.0
H1116 H 0.51883 0.20113 0.94781 0.0
H1117 H 0.52151 0.16982 0.95926 0.0
H1118 H 0.51436 0.14887 0.90341 0.0
H1119 H 0.51153 0.18017 0.89178 0.0
H1120 H 0.49802 0.12643 0.93223 0.0
H1121 H 0.55692 0.15496 0.91503 0.0
H1122 H 0.58018 0.18006 0.91474 0.0
H1123 H 0.58576 0.17556 0.97414 0.0
H1124 H 0.56224 0.15064 0.97483 0.0
H1125 H 0.53411 0.04227 0.96012 0.0
H1126 H 0.53597 0.0696 0.94069 0.0
H1127 H 0.54427 0.10291 0.98981 0.0
H1128 H 0.54295 0.07571 0.00926 0.0
H1129 H 0.56192 0.11738 0.95905 0.0
H1130 H 0.49896 0.09313 0.97638 0.0
H1131 H 0.47631 0.06755 0.97725 0.0
H1132 H 0.47952 0.06324 0.91742 0.0
H1133 H 0.50215 0.0889 0.91622 0.0
C1134 C 0.51723 0.18987 0.93804 0.0
C1135 C 0.51538 0.19308 0.91885 0.0
C1136 C 0.51882 0.17201 0.9446 0.0
C1137 C 0.5186 0.15718 0.93205 0.0
C1138 C 0.51471 0.16022 0.91323 0.0
C1139 C 0.51313 0.1781 0.90664 0.0
C1140 C 0.52486 0.13894 0.93822 0.0
C1141 C 0.51208 0.12434 0.9378 0.0
C1142 C 0.54326 0.13629 0.94539 0.0
C1143 C 0.5577 0.15102 0.945 0.0
C1144 C 0.56301 0.1594 0.92805 0.0
C1145 C 0.57625 0.17359 0.92781 0.0
C1146 C 0.58442 0.17942 0.94442 0.0
C1147 C 0.5794 0.17103 0.96129 0.0
C1148 C 0.56613 0.15687 0.96161 0.0
C1149 C 0.53704 0.05533 0.96671 0.0
C1150 C 0.53788 0.05695 0.98626 0.0
C1151 C 0.53804 0.07092 0.95559 0.0
C1152 C 0.53965 0.08826 0.96393 0.0
C1153 C 0.54283 0.08963 0.98315 0.0
C1154 C 0.54201 0.07405 0.99426 0.0
C1155 C 0.53493 0.105 0.95354 0.0
C1156 C 0.548 0.11937 0.95314 0.0
C1157 C 0.51683 0.10741 0.94559 0.0
C1158 C 0.50228 0.09284 0.94621 0.0
C1159 C 0.49475 0.08676 0.96341 0.0
C1160 C 0.48193 0.07223 0.96397 0.0
C1161 C 0.47643 0.06375 0.94741 0.0
C1162 C 0.48366 0.06988 0.93024 0.0
C1163 C 0.49645 0.08445 0.9296 0.0
H1164 H 0.46658 0.05243 0.94789 0.0
H1165 H 0.59466 0.19042 0.94421 0.0
H1166 H 0.09216 0.25998 0.14132 0.0
H1167 H 0.12123 0.25919 0.15956 0.0
H1168 H 0.09234 0.28875 0.20431 0.0
H1169 H 0.06317 0.28889 0.1865 0.0
H1170 H 0.14448 0.28253 0.17262 0.0
H1171 H 0.10793 0.27689 0.2462 0.0
H1172 H 0.07892 0.26367 0.26044 0.0
H1173 H 0.07577 0.22495 0.21521 0.0
H1174 H 0.10489 0.23776 0.20085 0.0
H1175 H 0.21265 0.30308 0.23958 0.0
H1176 H 0.18315 0.3024 0.22224 0.0
H1177 H 0.17445 0.24621 0.2385 0.0
H1178 H 0.20364 0.247 0.25639 0.0
H1179 H 0.14188 0.26266 0.23878 0.0
H1180 H 0.19306 0.25757 0.19489 0.0
H1181 H 0.22344 0.26591 0.17952 0.0
H1182 H 0.19942 0.31733 0.16279 0.0
H1183 H 0.16897 0.30942 0.17834 0.0
C1184 C 0.09204 0.26632 0.15504 0.0
C1185 C 0.07532 0.27434 0.16254 0.0
C1186 C 0.10868 0.26589 0.16546 0.0
C1187 C 0.10897 0.27359 0.18352 0.0
C1188 C 0.09243 0.28224 0.19067 0.0
C1189 C 0.07576 0.28242 0.18041 0.0
C1190 C 0.12643 0.27254 0.19496 0.0
C1191 C 0.14387 0.27819 0.18708 0.0
C1192 C 0.12591 0.26634 0.21371 0.0
C1193 C 0.10849 0.25842 0.22237 0.0
C1194 C 0.10109 0.2655 0.23934 0.0
C1195 C 0.08462 0.25809 0.24742 0.0
C1196 C 0.07548 0.24352 0.2387 0.0
C1197 C 0.08282 0.23628 0.22192 0.0
C1198 C 0.0993 0.24363 0.21379 0.0
C1199 C 0.20432 0.29065 0.23969 0.0
C1200 C 0.21055 0.27508 0.24934 0.0
C1201 C 0.18751 0.29023 0.22963 0.0
C1202 C 0.17673 0.27412 0.22868 0.0
C1203 C 0.18251 0.25879 0.23894 0.0
C1204 C 0.19923 0.25927 0.24919 0.0
C1205 C 0.15976 0.27313 0.21659 0.0
C1206 C 0.14246 0.26704 0.22433 0.0
C1207 C 0.16057 0.27822 0.19751 0.0
C1208 C 0.17878 0.28296 0.18793 0.0
C1209 C 0.19429 0.2707 0.18804 0.0
C1210 C 0.21152 0.27535 0.17929 0.0
C1211 C 0.21337 0.29216 0.17022 0.0
C1212 C 0.19797 0.30433 0.16984 0.0
C1213 C 0.18072 0.29976 0.17861 0.0
H1214 H 0.22672 0.29573 0.16346 0.0
H1215 H 0.06272 0.23782 0.24498 0.0
H1216 H 0.0965 0.98185 0.2284 0.0
H1217 H 0.08577 0.97755 0.19663 0.0
H1218 H 0.14374 0.97978 0.1759 0.0
H1219 H 0.15464 0.98451 0.20786 0.0
H1220 H 0.12146 0.00072 0.15557 0.0
H1221 H 0.12045 0.93927 0.17474 0.0
H1222 H 0.11449 0.91298 0.19544 0.0
H1223 H 0.05439 0.92279 0.1931 0.0
H1224 H 0.05997 0.94931 0.1726 0.0
H1225 H 0.05203 0.95814 0.08133 0.0
H1226 H 0.07632 0.95401 0.10492 0.0
H1227 H 0.06674 0.00966 0.12401 0.0
H1228 H 0.04312 0.01395 0.09986 0.0
H1229 H 0.07358 0.95376 0.13998 0.0
H1230 H 0.10386 0.02833 0.14256 0.0
H1231 H 0.11127 0.05304 0.12028 0.0
H1232 H 0.11746 0.01356 0.07581 0.0
H1233 H 0.11036 0.98858 0.09785 0.0
C1234 C 0.10701 0.98127 0.21713 0.0
C1235 C 0.1264 0.98352 0.22059 0.0
C1236 C 0.10087 0.97869 0.19898 0.0
C1237 C 0.114 0.97805 0.18396 0.0
C1238 C 0.13342 0.98013 0.18735 0.0
C1239 C 0.1396 0.98281 0.20557 0.0
C1240 C 0.10701 0.97634 0.16475 0.0
C1241 C 0.11119 0.99033 0.15199 0.0
C1242 C 0.09417 0.96237 0.15988 0.0
C1243 C 0.09065 0.94633 0.17214 0.0
C1244 C 0.10596 0.93589 0.17871 0.0
C1245 C 0.10265 0.92094 0.19041 0.0
C1246 C 0.08408 0.91622 0.19559 0.0
C1247 C 0.06877 0.92644 0.18906 0.0
C1248 C 0.072 0.94142 0.17736 0.0
C1249 C 0.05523 0.96944 0.09058 0.0
C1250 C 0.04577 0.98633 0.08897 0.0
C1251 C 0.06912 0.96713 0.10395 0.0
C1252 C 0.07358 0.9816 0.11604 0.0
C1253 C 0.06398 -0.00154 0.11447 0.0
C1254 C 0.05039 0.00088 0.10085 0.0
C1255 C 0.08715 0.97878 0.13125 0.0
C1256 C 0.08423 0.96389 0.14324 0.0
C1257 C 0.10157 0.99161 0.13511 0.0
C1258 C 0.10651 0.00656 0.12189 0.0
C1259 C 0.10698 0.02488 0.12807 0.0
C1260 C 0.11107 0.03895 0.11547 0.0
C1261 C 0.11481 0.03486 0.09665 0.0
C1262 C 0.11453 0.0167 0.09039 0.0
C1263 C 0.11046 0.00259 0.10293 0.0
H1264 H 0.11795 0.04576 0.08691 0.0
H1265 H 0.08155 0.90464 0.20465 0.0
H1266 H 0.24896 0.84409 0.4844 0.0
H1267 H 0.25974 0.83003 0.45501 0.0
H1268 H 0.24265 0.87842 0.42524 0.0
H1269 H 0.23147 0.8925 0.45456 0.0
H1270 H 0.23331 0.84825 0.40688 0.0
H1271 H 0.28918 0.87095 0.43529 0.0
H1272 H 0.31203 0.87519 0.46056 0.0
H1273 H 0.32349 0.81733 0.46076 0.0
H1274 H 0.30048 0.8127 0.43567 0.0
H1275 H 0.28277 0.82342 0.32313 0.0
H1276 H 0.27212 0.83977 0.35137 0.0
H1277 H 0.28974 0.79397 0.38484 0.0
H1278 H 0.3005 0.77761 0.35656 0.0
H1279 H 0.29946 0.82479 0.40081 0.0
H1280 H 0.23996 0.80219 0.37564 0.0
H1281 H 0.2128 0.79828 0.35473 0.0
H1282 H 0.20787 0.85655 0.34898 0.0
H1283 H 0.23473 0.86088 0.37012 0.0
C1284 C 0.2473 0.85169 0.47158 0.0
C1285 C 0.23947 0.86947 0.47182 0.0
C1286 C 0.25361 0.84368 0.45483 0.0
C1287 C 0.25242 0.85338 0.43804 0.0
C1288 C 0.24384 0.87079 0.43809 0.0
C1289 C 0.2374 0.87878 0.45485 0.0
C1290 C 0.2601 0.8453 0.42043 0.0
C1291 C 0.24788 0.8434 0.4054 0.0
C1292 C 0.27901 0.83872 0.41872 0.0
C1293 C 0.29298 0.84146 0.4337 0.0
C1294 C 0.29647 0.85911 0.44081 0.0
C1295 C 0.30946 0.86159 0.45509 0.0
C1296 C 0.31917 0.84653 0.46229 0.0
C1297 C 0.31594 0.82898 0.45518 0.0
C1298 C 0.30294 0.82642 0.44092 0.0
C1299 C 0.28448 0.81691 0.33654 0.0
C1300 C 0.29242 0.79922 0.33766 0.0
C1301 C 0.27825 0.82619 0.35264 0.0
C1302 C 0.27972 0.81792 0.37018 0.0
C1303 C 0.28837 0.80057 0.37142 0.0
C1304 C 0.29468 0.79129 0.35529 0.0
C1305 C 0.27254 0.82743 0.38727 0.0
C1306 C 0.28493 0.82972 0.40221 0.0
C1307 C 0.25378 0.8345 0.38888 0.0
C1308 C 0.23942 0.83184 0.37432 0.0
C1309 C 0.23329 0.81415 0.36965 0.0
C1310 C 0.21785 0.81186 0.35791 0.0
C1311 C 0.20856 0.82713 0.35068 0.0
C1312 C 0.21497 0.84474 0.35475 0.0
C1313 C 0.23027 0.84712 0.36662 0.0
H1314 H 0.19638 0.82532 0.34191 0.0
H1315 H 0.32922 0.84848 0.47334 0.0
H1316 H 0.37757 0.06653 0.68638 0.0
H1317 H 0.38697 0.07253 0.65387 0.0
H1318 H 0.446 0.06972 0.66873 0.0
H1319 H 0.43677 0.06402 0.70112 0.0
H1320 H 0.44018 0.09431 0.64055 0.0
H1321 H 0.4224 0.03102 0.65679 0.0
H1322 H 0.3995 0.00797 0.66816 0.0
H1323 H 0.36071 0.02347 0.62546 0.0
H1324 H 0.38333 0.04678 0.61401 0.0
H1325 H 0.50027 0.04507 0.58078 0.0
H1326 H 0.47967 0.05834 0.60514 0.0
H1327 H 0.43137 0.05295 0.56943 0.0
H1328 H 0.45186 0.03923 0.54505 0.0
H1329 H 0.42376 0.03972 0.60265 0.0
H1330 H 0.44826 0.0957 0.58049 0.0
H1331 H 0.4725 0.11747 0.56928 0.0
H1332 H 0.49947 0.11567 0.62246 0.0
H1333 H 0.47559 0.09366 0.63392 0.0
C1334 C 0.39253 0.06759 0.68276 0.0
C1335 C 0.40648 0.06433 0.69613 0.0
C1336 C 0.39786 0.07111 0.66423 0.0
C1337 C 0.41716 0.07126 0.65891 0.0
C1338 C 0.43102 0.06965 0.67258 0.0
C1339 C 0.42573 0.0662 0.69106 0.0
C1340 C 0.42317 0.06997 0.63908 0.0
C1341 C 0.43651 0.08251 0.6321 0.0
C1342 C 0.41789 0.05484 0.62793 0.0
C1343 C 0.4044 0.04076 0.63471 0.0
C1344 C 0.40893 0.02957 0.64991 0.0
C1345 C 0.39602 0.01646 0.65636 0.0
C1346 C 0.37863 0.0143 0.64758 0.0
C1347 C 0.37415 0.0252 0.63229 0.0
C1348 C 0.387 0.03836 0.62581 0.0
C1349 C 0.48529 0.04678 0.57806 0.0
C1350 C 0.47767 0.04103 0.56106 0.0
C1351 C 0.47356 0.05459 0.5919 0.0
C1352 C 0.45406 0.05699 0.58892 0.0
C1353 C 0.44642 0.05138 0.57191 0.0
C1354 C 0.45813 0.04347 0.55806 0.0
C1355 C 0.44153 0.06359 0.60439 0.0
C1356 C 0.42694 0.052 0.61058 0.0
C1357 C 0.44576 0.07956 0.61479 0.0
C1358 C 0.4601 0.09297 0.60806 0.0
C1359 C 0.45941 0.09987 0.58978 0.0
C1360 C 0.47309 0.11226 0.58338 0.0
C1361 C 0.48752 0.11795 0.59515 0.0
C1362 C 0.48827 0.11127 0.61336 0.0
C1363 C 0.47463 0.09886 0.61983 0.0
H1364 H 0.4981 0.12754 0.59016 0.0
H1365 H 0.36865 0.00414 0.65259 0.0
H1366 H 0.262 0.20344 0.97562 0.0
H1367 H 0.26368 0.21873 0.94522 0.0
H1368 H 0.26664 0.16607 0.91751 0.0
H1369 H 0.26568 0.15086 0.94768 0.0
H1370 H 0.2899 0.1871 0.90072 0.0
H1371 H 0.22464 0.1934 0.92098 0.0
H1372 H 0.1982 0.20253 0.9423 0.0
H1373 H 0.21523 0.25879 0.93848 0.0
H1374 H 0.24192 0.24995 0.91731 0.0
H1375 H 0.23834 0.23069 0.81708 0.0
H1376 H 0.23855 0.21643 0.84794 0.0
H1377 H 0.29413 0.2386 0.8575 0.0
H1378 H 0.29384 0.25333 0.82685 0.0
H1379 H 0.24165 0.23333 0.88315 0.0
H1380 H 0.31851 0.2045 0.88068 0.0
H1381 H 0.34137 0.18931 0.85888 0.0
H1382 H 0.29545 0.17121 0.82501 0.0
H1383 H 0.27237 0.18645 0.84648 0.0
C1384 C 0.26309 0.19515 0.96303 0.0
C1385 C 0.26369 0.17592 0.9641 0.0
C1386 C 0.26394 0.20391 0.94563 0.0
C1387 C 0.26506 0.1936 0.92894 0.0
C1388 C 0.26585 0.1744 0.93009 0.0
C1389 C 0.26524 0.16569 0.94741 0.0
C1390 C 0.26531 0.20257 0.91022 0.0
C1391 C 0.27941 0.19732 0.89701 0.0
C1392 C 0.25142 0.21564 0.90504 0.0
C1393 C 0.23538 0.22099 0.91774 0.0
C1394 C 0.22282 0.2077 0.9248 0.0
C1395 C 0.20778 0.21282 0.93684 0.0
C1396 C 0.20507 0.23122 0.94179 0.0
C1397 C 0.21737 0.24454 0.93467 0.0
C1398 C 0.23244 0.23948 0.92264 0.0
C1399 C 0.25061 0.23258 0.82574 0.0
C1400 C 0.26607 0.24318 0.81946 0.0
C1401 C 0.25069 0.22442 0.84339 0.0
C1402 C 0.26637 0.22638 0.85501 0.0
C1403 C 0.28191 0.23682 0.84874 0.0
C1404 C 0.28168 0.2453 0.83124 0.0
C1405 C 0.26627 0.21788 0.87385 0.0
C1406 C 0.25226 0.22329 0.88705 0.0
C1407 C 0.27987 0.20455 0.87885 0.0
C1408 C 0.29376 0.19676 0.86508 0.0
C1409 C 0.31333 0.19742 0.86848 0.0
C1410 C 0.32631 0.18876 0.85622 0.0
C1411 C 0.31985 0.17922 0.84064 0.0
C1412 C 0.30042 0.17858 0.83711 0.0
C1413 C 0.2874 0.18737 0.84922 0.0
H1414 H 0.3299 0.17238 0.83125 0.0
H1415 H 0.19342 0.23516 0.95111 0.0
H1416 H 0.07877 0.02913 0.32273 0.0
H1417 H 0.06835 0.02929 0.35561 0.0
H1418 H 0.10303 0.98156 0.36557 0.0
H1419 H 0.11371 0.9814 0.33285 0.0
H1420 H 0.06482 0.98138 0.38263 0.0
H1421 H 0.12127 0.01901 0.37666 0.0
H1422 H 0.1401 0.04407 0.3628 0.0
H1423 H 0.09696 0.08296 0.37976 0.0
H1424 H 0.07774 0.05809 0.39347 0.0
H1425 H 0.05781 0.98629 0.48088 0.0
H1426 H 0.07161 0.98343 0.44926 0.0
H1427 H 0.05488 0.0393 0.43794 0.0
H1428 H 0.04274 0.04256 0.46995 0.0
H1429 H 0.08569 0.03392 0.42128 0.0
H1430 H 0.02793 -0.00158 0.42504 0.0
H1431 H 0.00707 0.97459 0.43839 0.0
H1432 H 0.04907 0.9334 0.42488 0.0
H1433 H 0.07027 0.95703 0.4116 0.0
C1434 C 0.08397 0.01854 0.33187 0.0
C1435 C 0.09716 0.00535 0.32531 0.0
C1436 C 0.07805 0.01867 0.3506 0.0
C1437 C 0.08507 0.0055 0.3629 0.0
C1438 C 0.09751 0.99181 0.35621 0.0
C1439 C 0.10364 0.99182 0.33757 0.0
C1440 C 0.08038 0.00666 0.38301 0.0
C1441 C 0.06948 0.99275 0.3912 0.0
C1442 C 0.08627 0.02167 0.39393 0.0
C1443 C 0.09799 0.03666 0.38593 0.0
C1444 C 0.11574 0.03289 0.37731 0.0
C1445 C 0.12649 0.04706 0.3695 0.0
C1446 C 0.11971 0.06509 0.37036 0.0
C1447 C 0.10219 0.06899 0.37909 0.0
C1448 C 0.09137 0.05486 0.38689 0.0
C1449 C 0.05746 -0.00202 0.47163 0.0
C1450 C 0.04926 0.01461 0.47763 0.0
C1451 C 0.06513 -0.00368 0.45356 0.0
C1452 C 0.06378 0.01098 0.44099 0.0
C1453 C 0.05609 0.02777 0.44731 0.0
C1454 C 0.04912 0.02964 0.46557 0.0
C1455 C 0.06964 0.00882 0.42108 0.0
C1456 C 0.08092 0.02251 0.41285 0.0
C1457 C 0.06369 0.9938 0.41003 0.0
C1458 C 0.05073 0.9795 0.41745 0.0
C1459 C 0.03272 0.98428 0.42494 0.0
C1460 C 0.02085 0.97082 0.4325 0.0
C1461 C 0.02675 0.9525 0.43249 0.0
C1462 C 0.04452 0.9476 0.42486 0.0
C1463 C 0.05645 0.96101 0.41729 0.0
H1464 H 0.01755 0.9421 0.43836 0.0
H1465 H 0.12804 0.07604 0.36429 0.0
H1466 H 0.27452 0.87732 0.59512 0.0
H1467 H 0.27603 0.86318 0.6258 0.0
H1468 H 0.25156 0.81375 0.60367 0.0
H1469 H 0.24981 0.82789 0.5729 0.0
H1470 H 0.23066 0.82806 0.63225 0.0
H1471 H 0.2962 0.81316 0.62069 0.0
H1472 H 0.32977 0.81841 0.61188 0.0
H1473 H 0.33427 0.85792 0.65623 0.0
H1474 H 0.30068 0.85302 0.66523 0.0
H1475 H 0.23768 0.77499 0.71492 0.0
H1476 H 0.23771 0.78843 0.68383 0.0
H1477 H 0.26116 0.83835 0.70592 0.0
H1478 H 0.26128 0.82499 0.73711 0.0
H1479 H 0.28285 0.82363 0.67745 0.0
H1480 H 0.21757 0.83895 0.6889 0.0
H1481 H 0.18417 0.83357 0.69826 0.0
H1482 H 0.17925 0.79367 0.65432 0.0
H1483 H 0.21272 0.79862 0.64485 0.0
C1484 C 0.26996 0.86325 0.59665 0.0
C1485 C 0.26175 0.8538 0.58171 0.0
C1486 C 0.27092 0.85516 0.61418 0.0
C1487 C 0.26379 0.83748 0.61699 0.0
C1488 C 0.25705 0.82746 0.60174 0.0
C1489 C 0.25611 0.83554 0.58418 0.0
C1490 C 0.26083 0.83061 0.63616 0.0
C1491 C 0.24213 0.82674 0.64205 0.0
C1492 C 0.2757 0.82965 0.64907 0.0
C1493 C 0.29584 0.83286 0.6435 0.0
C1494 C 0.30428 0.82311 0.62845 0.0
C1495 C 0.32334 0.82597 0.62346 0.0
C1496 C 0.33413 0.83852 0.63347 0.0
C1497 C 0.32589 0.84822 0.64848 0.0
C1498 C 0.30685 0.84538 0.65355 0.0
C1499 C 0.24233 0.78902 0.71327 0.0
C1500 C 0.24967 0.79887 0.72839 0.0
C1501 C 0.24233 0.79668 0.6955 0.0
C1502 C 0.24957 0.81431 0.69263 0.0
C1503 C 0.25561 0.82467 0.70792 0.0
C1504 C 0.25554 0.81706 0.72572 0.0
C1505 C 0.25272 0.82105 0.67346 0.0
C1506 C 0.27141 0.82493 0.66761 0.0
C1507 C 0.23785 0.82209 0.66059 0.0
C1508 C 0.21772 0.81903 0.66628 0.0
C1509 C 0.20942 0.8289 0.68134 0.0
C1510 C 0.19047 0.82596 0.68664 0.0
C1511 C 0.17961 0.81325 0.67692 0.0
C1512 C 0.18768 0.80349 0.66185 0.0
C1513 C 0.20664 0.80638 0.6565 0.0
H1514 H 0.16493 0.811 0.68104 0.0
H1515 H 0.34889 0.84069 0.6296 0.0
H1516 H 0.46768 0.01753 0.78022 0.0
H1517 H 0.48069 0.0112 0.81103 0.0
H1518 H 0.42373 0.00748 0.8343 0.0
H1519 H 0.41082 0.01469 0.80393 0.0
H1520 H 0.44295 0.02641 0.85634 0.0
H1521 H 0.45343 0.9689 0.82508 0.0
H1522 H 0.46527 0.94806 0.80012 0.0
H1523 H 0.52261 0.96404 0.81091 0.0
H1524 H 0.51109 0.98515 0.83579 0.0
H1525 H 0.48197 0.96492 0.93297 0.0
H1526 H 0.47284 0.9687 0.90053 0.0
H1527 H 0.49181 0.02475 0.90189 0.0
H1528 H 0.50143 0.02103 0.9341 0.0
H1529 H 0.49174 0.97866 0.86785 0.0
H1530 H 0.45669 0.05033 0.88105 0.0
H1531 H 0.44147 0.06742 0.9073 0.0
H1532 H 0.42689 0.01683 0.93408 0.0
H1533 H 0.44149 -0.00054 0.90782 0.0
C1534 C 0.45801 0.01527 0.79195 0.0
C1535 C 0.43828 0.01669 0.78979 0.0
C1536 C 0.46542 0.01158 0.8095 0.0
C1537 C 0.45318 0.00874 0.82497 0.0
C1538 C 0.43347 0.00977 0.82263 0.0
C1539 C 0.4261 0.01385 0.80527 0.0
C1540 C 0.4607 0.00526 0.84378 0.0
C1541 C 0.45365 0.01599 0.85878 0.0
C1542 C 0.4744 0.99143 0.8471 0.0
C1543 C 0.48138 0.97874 0.83216 0.0
C1544 C 0.46855 0.96807 0.82203 0.0
C1545 C 0.47521 0.95619 0.80792 0.0
C1546 C 0.49467 0.95476 0.8039 0.0
C1547 C 0.50753 0.96518 0.81402 0.0
C1548 C 0.50095 0.97709 0.82814 0.0
C1549 C 0.48453 0.97795 0.92632 0.0
C1550 C 0.49224 0.99272 0.93627 0.0
C1551 C 0.47932 0.98007 0.90777 0.0
C1552 C 0.48156 -0.00299 0.89895 0.0
C1553 C 0.48982 0.0116 0.90858 0.0
C1554 C 0.49513 0.00948 0.92707 0.0
C1555 C 0.47402 -0.00013 0.88013 0.0
C1556 C 0.48112 0.98911 0.86523 0.0
C1557 C 0.45979 0.01317 0.87698 0.0
C1558 C 0.45047 0.0236 0.89258 0.0
C1559 C 0.45013 0.04286 0.89248 0.0
C1560 C 0.44156 0.05259 0.90735 0.0
C1561 C 0.43332 0.0432 0.92238 0.0
C1562 C 0.43338 0.02408 0.92248 0.0
C1563 C 0.44177 0.01429 0.9076 0.0
H1564 H 0.42689 0.0507 0.93398 0.0
H1565 H 0.4998 0.94556 0.79297 0.0
H1566 H 0.25787 0.14132 0.09981 0.0
H1567 H 0.26073 0.15872 0.12866 0.0
H1568 H 0.26526 0.20877 0.09726 0.0
H1569 H 0.26284 0.19125 0.068 0.0
H1570 H 0.29042 0.20852 0.12452 0.0
H1571 H 0.22353 0.19671 0.12172 0.0
H1572 H 0.1947 0.17799 0.11873 0.0
H1573 H 0.20982 0.14722 0.16719 0.0
H1574 H 0.23892 0.16552 0.17024 0.0
H1575 H 0.27522 0.2672 0.20352 0.0
H1576 H 0.274 0.25082 0.17376 0.0
H1577 H 0.26792 0.19964 0.20303 0.0
H1578 H 0.26861 0.21604 0.23294 0.0
H1579 H 0.24328 0.20121 0.17639 0.0
H1580 H 0.31017 0.21237 0.17918 0.0
H1581 H 0.339 0.23097 0.18267 0.0
H1582 H 0.32413 0.26269 0.13478 0.0
H1583 H 0.29506 0.24442 0.13115 0.0
C1584 C 0.2594 0.15605 0.09892 0.0
C1585 C 0.25999 0.16486 0.08147 0.0
C1586 C 0.26095 0.16602 0.11554 0.0
C1587 C 0.26285 0.18515 0.11526 0.0
C1588 C 0.26369 0.19404 0.09788 0.0
C1589 C 0.26226 0.18401 0.08115 0.0
C1590 C 0.26425 0.19567 0.13316 0.0
C1591 C 0.27993 0.20715 0.13575 0.0
C1592 C 0.25089 0.19355 0.14808 0.0
C1593 C 0.23347 0.18242 0.14614 0.0
C1594 C 0.22079 0.18585 0.13164 0.0
C1595 C 0.20439 0.17532 0.12994 0.0
C1596 C 0.20044 0.1614 0.14274 0.0
C1597 C 0.21289 0.15799 0.15727 0.0
C1598 C 0.22933 0.16845 0.159 0.0
C1599 C 0.2739 0.25242 0.20367 0.0
C1600 C 0.27214 0.24294 0.22068 0.0
C1601 C 0.27325 0.24304 0.18658 0.0
C1602 C 0.2711 0.22392 0.18604 0.0
C1603 C 0.26963 0.21438 0.20302 0.0
C1604 C 0.27013 0.22378 0.22014 0.0
C1605 C 0.26951 0.21398 0.16783 0.0
C1606 C 0.25376 0.20262 0.16517 0.0
C1607 C 0.28284 0.21617 0.15289 0.0
C1608 C 0.30034 0.22713 0.155 0.0
C1609 C 0.31297 0.2234 0.16948 0.0
C1610 C 0.32937 0.23387 0.17146 0.0
C1611 C 0.33337 0.24803 0.15898 0.0
C1612 C 0.321 0.25173 0.14445 0.0
C1613 C 0.30457 0.24131 0.14241 0.0
H1614 H 0.34607 0.25612 0.16054 0.0
H1615 H 0.18773 0.15328 0.1414 0.0
H1616 H 0.21855 0.08939 0.01084 0.0
H1617 H 0.18903 0.07202 0.00963 0.0
H1618 H 0.15669 0.12213 0.01635 0.0
H1619 H 0.18619 0.13958 0.01784 0.0
H1620 H 0.14302 0.09665 0.03876 0.0
H1621 H 0.16073 0.09978 0.97387 0.0
H1622 H 0.18193 0.09588 0.94623 0.0
H1623 H 0.18445 0.03788 0.95564 0.0
H1624 H 0.16346 0.04147 0.98349 0.0
H1625 H 0.06131 0.04959 0.98563 0.0
H1626 H 0.09199 0.06495 0.98582 0.0
H1627 H 0.10276 0.043 0.04041 0.0
H1628 H 0.07189 0.02773 0.04043 0.0
H1629 H 0.12751 0.05416 0.98704 0.0
H1630 H 0.12862 0.07407 0.06527 0.0
H1631 H 0.10761 0.08413 0.09144 0.0
H1632 H 0.06568 0.10178 0.05262 0.0
H1633 H 0.08643 0.0918 0.02625 0.0
C1634 C 0.20515 0.09674 0.012 0.0
C1635 C 0.20472 0.11588 0.01446 0.0
C1636 C 0.18827 0.08677 0.01121 0.0
C1637 C 0.1706 0.09575 0.01273 0.0
C1638 C 0.17015 0.11488 0.01515 0.0
C1639 C 0.18702 0.12486 0.01596 0.0
C1640 C 0.15258 0.0852 0.01242 0.0
C1641 C 0.13968 0.08728 0.02749 0.0
C1642 C 0.14809 0.07313 -0.00237 0.0
C1643 C 0.16068 0.07093 0.98087 0.0
C1644 C 0.16593 0.08622 0.97013 0.0
C1645 C 0.17788 0.08406 0.95441 0.0
C1646 C 0.18457 0.06665 0.94921 0.0
C1647 C 0.17928 0.05136 0.9597 0.0
C1648 C 0.16734 0.05345 0.97544 0.0
C1649 C 0.07025 0.04786 -0.00238 0.0
C1650 C 0.06409 0.03742 0.01302 0.0
C1651 C 0.08784 0.05667 -0.0023 0.0
C1652 C 0.09965 0.05536 0.01321 0.0
C1653 C 0.09379 0.04449 0.02839 0.0
C1654 C 0.07619 0.03563 0.02832 0.0
C1655 C 0.11791 0.06559 0.01346 0.0
C1656 C 0.13092 0.06337 -0.00158 0.0
C1657 C 0.12239 0.07781 0.02814 0.0
C1658 C 0.109 0.08203 0.04383 0.0
C1659 C 0.11482 0.0799 0.06235 0.0
C1660 C 0.10299 0.08564 0.07721 0.0
C1661 C 0.08538 0.09366 0.07369 0.0
C1662 C 0.07932 0.09553 0.05533 0.0
C1663 C 0.09107 0.08975 0.04042 0.0
H1664 H 0.07657 0.09862 0.08521 0.0
H1665 H 0.19382 0.06501 0.93704 0.0
H1666 H 0.68833 0.43606 0.06477 0.0
H1667 H 0.65687 0.4466 0.07481 0.0
H1668 H 0.63401 0.39312 0.06315 0.0
H1669 H 0.66569 0.38239 0.05297 0.0
H1670 H 0.61562 0.42004 0.04523 0.0
H1671 H 0.63194 0.40875 0.10763 0.0
H1672 H 0.65196 0.40834 0.13544 0.0
H1673 H 0.65236 0.46715 0.13656 0.0
H1674 H 0.6326 0.46795 0.10858 0.0
H1675 H 0.5308 0.4719 0.06557 0.0
H1676 H 0.55359 0.45063 0.07923 0.0
H1677 H 0.59971 0.48508 0.06074 0.0
H1678 H 0.57701 0.50676 0.04763 0.0
H1679 H 0.59942 0.45906 0.10046 0.0
H1680 H 0.60812 0.45193 0.02352 0.0
H1681 H 0.5896 0.45496 -0.00521 0.0
H1682 H 0.54054 0.43299 0.02315 0.0
H1683 H 0.55896 0.42931 0.05185 0.0
C1684 C 0.67669 0.42644 0.06459 0.0
C1685 C 0.67938 0.40848 0.05786 0.0
C1686 C 0.65875 0.43242 0.07056 0.0
C1687 C 0.64317 0.42056 0.06995 0.0
C1688 C 0.64592 0.4024 0.06388 0.0
C1689 C 0.66397 0.39634 0.058 0.0
C1690 C 0.62386 0.42818 0.07292 0.0
C1691 C 0.61176 0.42799 0.05762 0.0
C1692 C 0.61893 0.43871 0.08901 0.0
C1693 C 0.63076 0.43839 0.10595 0.0
C1694 C 0.63638 0.4216 0.11373 0.0
C1695 C 0.64768 0.4213 0.12954 0.0
C1696 C 0.65343 0.43771 0.13777 0.0
C1697 C 0.64787 0.45445 0.1302 0.0
C1698 C 0.63657 0.45484 0.11438 0.0
C1699 C 0.54578 0.47524 0.06503 0.0
C1700 C 0.55229 0.49071 0.05528 0.0
C1701 C 0.5587 0.46317 0.07293 0.0
C1702 C 0.5782 0.46627 0.07071 0.0
C1703 C 0.58463 0.4826 0.0626 0.0
C1704 C 0.5717 0.49489 0.05504 0.0
C1705 C 0.59176 0.45109 0.07269 0.0
C1706 C 0.60286 0.45019 0.08864 0.0
C1707 C 0.59577 0.43939 0.0573 0.0
C1708 C 0.58483 0.44058 0.03986 0.0
C1709 C 0.59342 0.44762 0.02356 0.0
C1710 C 0.58295 0.44944 0.00729 0.0
C1711 C 0.56388 0.44426 0.00717 0.0
C1712 C 0.55527 0.43712 0.02329 0.0
C1713 C 0.56574 0.43512 0.03955 0.0
H1714 H 0.55583 0.44573 0.99457 0.0
H1715 H 0.66218 0.43744 0.15 0.0
H1716 H 0.84918 0.49119 0.2658 0.0
H1717 H 0.82989 0.4644 0.27293 0.0
H1718 H 0.85788 0.43439 0.22801 0.0
H1719 H 0.87745 0.46117 0.22076 0.0
H1720 H 0.81728 0.43024 0.23026 0.0
H1721 H 0.87229 0.42621 0.26877 0.0
H1722 H 0.89545 0.43754 0.29138 0.0
H1723 H 0.85074 0.44515 0.3325 0.0
H1724 H 0.82724 0.43412 0.31001 0.0
H1725 H 0.79985 0.33865 0.25603 0.0
H1726 H 0.81319 0.36798 0.24723 0.0
H1727 H 0.787 0.39319 0.29608 0.0
H1728 H 0.77307 0.36375 0.30488 0.0
H1729 H 0.82476 0.4011 0.29215 0.0
H1730 H 0.77007 0.40188 0.2543 0.0
H1731 H 0.74719 0.39032 0.23155 0.0
H1732 H 0.79101 0.38882 0.18891 0.0
H1733 H 0.8143 0.39989 0.21152 0.0
C1734 C 0.85117 0.47896 0.25731 0.0
C1735 C 0.86493 0.47824 0.24277 0.0
C1736 C 0.84015 0.46368 0.26144 0.0
C1737 C 0.84261 0.44748 0.25106 0.0
C1738 C 0.85584 0.44685 0.23615 0.0
C1739 C 0.86704 0.46209 0.2321 0.0
C1740 C 0.83188 0.43099 0.25635 0.0
C1741 C 0.81901 0.42369 0.24369 0.0
C1742 C 0.83389 0.4229 0.27408 0.0
C1743 C 0.84798 0.42955 0.28763 0.0
C1744 C 0.86736 0.43047 0.28257 0.0
C1745 C 0.88056 0.4368 0.29537 0.0
C1746 C 0.87456 0.44212 0.31335 0.0
C1747 C 0.85536 0.44106 0.31856 0.0
C1748 C 0.8421 0.43476 0.30579 0.0
C1749 C 0.7965 0.35042 0.26477 0.0
C1750 C 0.78524 0.34881 0.28116 0.0
C1751 C 0.80423 0.36721 0.2597 0.0
C1752 C 0.80089 0.38274 0.2709 0.0
C1753 C 0.78966 0.3813 0.28725 0.0
C1754 C 0.78181 0.36447 0.2923 0.0
C1755 C 0.81015 0.40018 0.26603 0.0
C1756 C 0.82284 0.40768 0.27877 0.0
C1757 C 0.80796 0.4084 0.24834 0.0
C1758 C 0.79401 0.40157 0.23469 0.0
C1759 C 0.7749 0.39888 0.24013 0.0
C1760 C 0.76184 0.39244 0.22725 0.0
C1761 C 0.76765 0.38882 0.2088 0.0
C1762 C 0.78653 0.39165 0.2032 0.0
C1763 C 0.79968 0.39797 0.21606 0.0
H1764 H 0.75751 0.38384 0.19884 0.0
H1765 H 0.8848 0.447 0.32325 0.0
H1766 H 0.82145 0.62777 0.49931 0.0
H1767 H 0.85341 0.61557 0.4924 0.0
H1768 H 0.84669 0.57681 0.53725 0.0
H1769 H 0.81484 0.5886 0.54401 0.0
H1770 H 0.88555 0.6128 0.51169 0.0
H1771 H 0.86592 0.5365 0.5254 0.0
H1772 H 0.83831 0.51621 0.52207 0.0
H1773 H 0.81638 0.55105 0.4794 0.0
H1774 H 0.84399 0.5714 0.48227 0.0
H1775 H 0.9641 0.55847 0.53607 0.0
H1776 H 0.9337 0.57441 0.53355 0.0
H1777 H 0.92443 0.54762 0.48067 0.0
H1778 H 0.95489 0.53148 0.48312 0.0
H1779 H 0.89362 0.54568 0.50279 0.0
H1780 H 0.93484 0.59192 0.4818 0.0
H1781 H 0.96274 0.61202 0.48198 0.0
H1782 H 0.94173 0.63817 0.53225 0.0
H1783 H 0.91397 0.61774 0.53279 0.0
C1784 C 0.82682 0.61669 0.50773 0.0
C1785 C 0.81549 0.60905 0.5221 0.0
C1786 C 0.84509 0.60976 0.50378 0.0
C1787 C 0.8523 0.59506 0.51409 0.0
C1788 C 0.84127 0.58788 0.52883 0.0
C1789 C 0.82305 0.59471 0.53273 0.0
C1790 C 0.87123 0.58692 0.50948 0.0
C1791 C 0.88735 0.59815 0.50966 0.0
C1792 C 0.87352 0.56787 0.50616 0.0
C1793 C 0.85697 0.55555 0.50416 0.0
C1794 C 0.85526 0.53978 0.51523 0.0
C1795 C 0.8396 0.52827 0.51344 0.0
C1796 C 0.82557 0.53236 0.50056 0.0
C1797 C 0.82722 0.54793 0.48941 0.0
C1798 C 0.84286 0.55946 0.49113 0.0
C1799 C 0.95566 0.556 0.52385 0.0
C1800 C 0.96189 0.54364 0.50982 0.0
C1801 C 0.93832 0.56522 0.52237 0.0
C1802 C 0.92688 0.56234 0.50683 0.0
C1803 C 0.93308 0.55008 0.49275 0.0
C1804 C 0.95048 0.54088 0.49418 0.0
C1805 C 0.908 0.57142 0.5059 0.0
C1806 C 0.89187 0.56036 0.50462 0.0
C1807 C 0.90575 0.59066 0.5077 0.0
C1808 C 0.92235 0.60315 0.50741 0.0
C1809 C 0.93623 0.60182 0.49301 0.0
C1810 C 0.95203 0.61331 0.49297 0.0
C1811 C 0.95401 0.6264 0.50708 0.0
C1812 C 0.94018 0.62802 0.52131 0.0
C1813 C 0.92441 0.61645 0.52151 0.0
H1814 H 0.96625 0.6353 0.50699 0.0
H1815 H 0.81345 0.52344 0.49921 0.0
H1816 H 0.18376 0.04472 0.28748 0.0
H1817 H 0.20172 0.07305 0.29026 0.0
H1818 H 0.16003 0.10142 0.25772 0.0
H1819 H 0.14194 0.07312 0.25475 0.0
H1820 H 0.19784 0.1108 0.24839 0.0
H1821 H 0.15677 0.10496 0.30301 0.0
H1822 H 0.14358 0.08878 0.33046 0.0
H1823 H 0.19909 0.08585 0.35399 0.0
H1824 H 0.21267 0.10178 0.32653 0.0
H1825 H 0.21344 0.20272 0.27403 0.0
H1826 H 0.19946 0.17266 0.26882 0.0
H1827 H 0.24007 0.14836 0.30573 0.0
H1828 H 0.25415 0.17846 0.31098 0.0
H1829 H 0.20474 0.1359 0.3125 0.0
H1830 H 0.24569 0.14378 0.25925 0.0
H1831 H 0.25911 0.16019 0.23208 0.0
H1832 H 0.20489 0.15908 0.2058 0.0
H1833 H 0.19101 0.14297 0.233 0.0
C1834 C 0.17845 0.05693 0.28077 0.0
C1835 C 0.1613 0.05672 0.27106 0.0
C1836 C 0.18875 0.07308 0.28238 0.0
C1837 C 0.18205 0.08928 0.27434 0.0
C1838 C 0.16537 0.089 0.26401 0.0
C1839 C 0.15502 0.07286 0.26244 0.0
C1840 C 0.19182 0.10675 0.27769 0.0
C1841 C 0.19924 0.11642 0.26236 0.0
C1842 C 0.19396 0.11373 0.29599 0.0
C1843 C 0.18576 0.10439 0.31263 0.0
C1844 C 0.16618 0.10075 0.31398 0.0
C1845 C 0.15863 0.09164 0.32954 0.0
C1846 C 0.1705 0.08624 0.34393 0.0
C1847 C 0.18993 0.09001 0.34282 0.0
C1848 C 0.19755 0.09909 0.32726 0.0
C1849 C 0.21947 0.19096 0.28093 0.0
C1850 C 0.23496 0.1929 0.29281 0.0
C1851 C 0.21148 0.17382 0.27795 0.0
C1852 C 0.21896 0.15829 0.28666 0.0
C1853 C 0.23416 0.16021 0.29885 0.0
C1854 C 0.24212 0.17739 0.3019 0.0
C1855 C 0.2107 0.14009 0.28319 0.0
C1856 C 0.20352 0.13026 0.29851 0.0
C1857 C 0.20888 0.13297 0.26488 0.0
C1858 C 0.21726 0.14231 0.24828 0.0
C1859 C 0.23658 0.14714 0.24774 0.0
C1860 C 0.24428 0.15639 0.23233 0.0
C1861 C 0.23284 0.16073 0.21726 0.0
C1862 C 0.21371 0.15574 0.21752 0.0
C1863 C 0.20592 0.14654 0.23293 0.0
H1864 H 0.23882 0.16796 0.20539 0.0
H1865 H 0.16464 0.07917 0.35596 0.0
H1866 H 0.27651 0.95855 0.52408 0.0
H1867 H 0.30809 0.97166 0.51927 0.0
H1868 H 0.33061 0.91793 0.50544 0.0
H1869 H 0.2993 0.90468 0.51144 0.0
H1870 H 0.3549 0.93411 0.52467 0.0
H1871 H 0.31973 0.95167 0.47139 0.0
H1872 H 0.29307 0.96488 0.45407 0.0
H1873 H 0.30362 0.0177 0.47835 0.0
H1874 H 0.3302 0.00474 0.496 0.0
H1875 H 0.43427 0.974 0.47036 0.0
H1876 H 0.40272 0.96033 0.47528 0.0
H1877 H 0.39178 -0.00274 0.52159 0.0
H1878 H 0.42344 0.01059 0.51704 0.0
H1879 H 0.36269 0.98896 0.48465 0.0
H1880 H 0.39704 0.96691 0.54067 0.0
H1881 H 0.42495 0.95182 0.55425 0.0
H1882 H 0.41671 0.90471 0.51919 0.0
H1883 H 0.38894 0.9197 0.50516 0.0
C1884 C 0.28827 0.94959 0.5201 0.0
C1885 C 0.28558 0.93067 0.51805 0.0
C1886 C 0.30625 0.95707 0.51723 0.0
C1887 C 0.32164 0.94584 0.51156 0.0
C1888 C 0.31896 0.92688 0.50978 0.0
C1889 C 0.3011 0.91932 0.51318 0.0
C1890 C 0.34052 0.95385 0.50748 0.0
C1891 C 0.35652 0.94601 0.51578 0.0
C1892 C 0.34278 0.96933 0.4958 0.0
C1893 C 0.32685 0.97719 0.48514 0.0
C1894 C 0.31629 0.96607 0.47313 0.0
C1895 C 0.3012 0.97352 0.46324 0.0
C1896 C 0.29663 0.99211 0.46514 0.0
C1897 C 0.30717 0.0033 0.4769 0.0
C1898 C 0.32226 -0.00409 0.48684 0.0
C1899 C 0.42502 0.97921 0.48148 0.0
C1900 C 0.43112 0.99322 0.49339 0.0
C1901 C 0.40716 0.9714 0.4843 0.0
C1902 C 0.3952 0.97779 0.49885 0.0
C1903 C 0.40102 0.99215 0.5104 0.0
C1904 C 0.41899 -0.00032 0.50783 0.0
C1905 C 0.3766 0.96939 0.50212 0.0
C1906 C 0.36081 0.97709 0.49355 0.0
C1907 C 0.37457 0.95356 0.51312 0.0
C1908 C 0.39111 0.94452 0.5217 0.0
C1909 C 0.40133 0.95343 0.53571 0.0
C1910 C 0.41708 0.94488 0.54352 0.0
C1911 C 0.42265 0.92734 0.53754 0.0
C1912 C 0.41242 0.9183 0.52377 0.0
C1913 C 0.39667 0.92682 0.51589 0.0
H1914 H 0.43485 0.92074 0.54361 0.0
H1915 H 0.28494 -0.00215 0.45748 0.0
H1916 H 0.87919 0.60212 0.26885 0.0
H1917 H 0.86131 0.63086 0.26873 0.0
H1918 H 0.80983 0.6013 0.2578 0.0
H1919 H 0.82759 0.57239 0.25802 0.0
H1920 H 0.8434 0.64204 0.23677 0.0
H1921 H 0.77209 0.62928 0.27464 0.0
H1922 H 0.75872 0.61065 0.30032 0.0
H1923 H 0.81293 0.60987 0.32668 0.0
H1924 H 0.82655 0.62869 0.3013 0.0
H1925 H 0.76021 0.71447 0.25353 0.0
H1926 H 0.77126 0.68268 0.25031 0.0
H1927 H 0.82922 0.70062 0.25556 0.0
H1928 H 0.81846 0.73219 0.25816 0.0
H1929 H 0.78841 0.66336 0.27576 0.0
H1930 H 0.86018 0.67319 0.23463 0.0
H1931 H 0.87279 0.69156 0.20844 0.0
H1932 H 0.81655 0.69776 0.18722 0.0
H1933 H 0.80361 0.67921 0.21312 0.0
C1934 C 0.86399 0.60167 0.26689 0.0
C1935 C 0.85482 0.58504 0.26323 0.0
C1936 C 0.85382 0.6181 0.26674 0.0
C1937 C 0.83434 0.61815 0.26307 0.0
C1938 C 0.82486 0.60149 0.26072 0.0
C1939 C 0.83503 0.58501 0.26086 0.0
C1940 C 0.82451 0.63572 0.25986 0.0
C1941 C 0.83148 0.64683 0.24539 0.0
C1942 C 0.80838 0.6414 0.27051 0.0
C1943 C 0.80038 0.63019 0.28594 0.0
C1944 C 0.78114 0.62516 0.28594 0.0
C1945 C 0.77352 0.61457 0.30044 0.0
C1946 C 0.78499 0.60902 0.31508 0.0
C1947 C 0.80409 0.6141 0.31528 0.0
C1948 C 0.81177 0.6247 0.30082 0.0
C1949 C 0.77534 0.71164 0.25353 0.0
C1950 C 0.78847 0.72581 0.25613 0.0
C1951 C 0.7816 0.69349 0.25178 0.0
C1952 C 0.80106 0.6893 0.25255 0.0
C1953 C 0.81418 0.70353 0.2545 0.0
C1954 C 0.80797 0.72161 0.25608 0.0
C1955 C 0.80776 0.67007 0.25307 0.0
C1956 C 0.80015 0.65853 0.26693 0.0
C1957 C 0.82321 0.66388 0.24171 0.0
C1958 C 0.83091 0.67488 0.22591 0.0
C1959 C 0.8505 0.67837 0.22432 0.0
C1960 C 0.85771 0.68885 0.20954 0.0
C1961 C 0.84547 0.69586 0.1962 0.0
C1962 C 0.826 0.69237 0.19759 0.0
C1963 C 0.81872 0.6819 0.21234 0.0
H1964 H 0.85108 0.70397 0.18477 0.0
H1965 H 0.77907 0.60082 0.32629 0.0
H1966 H 0.70018 0.46724 0.81105 0.0
H1967 H 0.72186 0.44105 0.81362 0.0
H1968 H 0.6765 0.40457 0.79867 0.0
H1969 H 0.65468 0.43038 0.79732 0.0
H1970 H 0.69906 0.38647 0.81827 0.0
H1971 H 0.70672 0.42652 0.76506 0.0
H1972 H 0.71276 0.45606 0.74954 0.0
H1973 H 0.76766 0.45876 0.7744 0.0
H1974 H 0.76181 0.4293 0.79024 0.0
H1975 H 0.73747 0.3276 0.74762 0.0
H1976 H 0.72573 0.35744 0.75887 0.0
H1977 H 0.76854 0.35813 0.80101 0.0
H1978 H 0.78017 0.32815 0.79015 0.0
H1979 H 0.75261 0.39472 0.77285 0.0
H1980 H 0.74056 0.34854 0.8242 0.0
H1981 H 0.73059 0.31703 0.83196 0.0
H1982 H 0.67909 0.32473 0.80197 0.0
H1983 H 0.6888 0.35619 0.79384 0.0
C1984 C 0.69475 0.45355 0.80896 0.0
C1985 C 0.67591 0.45082 0.80357 0.0
C1986 C 0.70714 0.43862 0.81034 0.0
C1987 C 0.70098 0.42093 0.80566 0.0
C1988 C 0.68167 0.41808 0.8022 0.0
C1989 C 0.66919 0.4329 0.80134 0.0
C1990 C 0.71475 0.40594 0.80152 0.0
C1991 C 0.71097 0.38842 0.80863 0.0
C1992 C 0.73012 0.40828 0.78861 0.0
C1993 C 0.73374 0.42587 0.779 0.0
C1994 C 0.72003 0.43347 0.76727 0.0
C1995 C 0.72342 0.45019 0.75843 0.0
C1996 C 0.74056 0.45931 0.76104 0.0
C1997 C 0.75437 0.4517 0.77244 0.0
C1998 C 0.75103 0.435 0.78135 0.0
C1999 C 0.74475 0.33436 0.75889 0.0
C2000 C 0.75959 0.32556 0.76813 0.0
C2001 C 0.73801 0.35133 0.76531 0.0
C2002 C 0.74625 0.35971 0.7808 0.0
C2003 C 0.76207 0.35172 0.78905 0.0
C2004 C 0.76864 0.33465 0.78283 0.0
C2005 C 0.73678 0.37561 0.78964 0.0
C2006 C 0.74126 0.39311 0.7832 0.0
C2007 C 0.72162 0.37317 0.80258 0.0
C2008 C 0.71545 0.35464 0.80833 0.0
C2009 C 0.72715 0.34348 0.8192 0.0
C2010 C 0.72159 0.32563 0.82361 0.0
C2011 C 0.70432 0.31889 0.81734 0.0
C2012 C 0.69248 0.32999 0.80677 0.0
C2013 C 0.69799 0.34782 0.80228 0.0
H2014 H 0.70003 0.30512 0.82078 0.0
H2015 H 0.74316 0.47226 0.75418 0.0
H2016 H -0.00458 0.82233 0.93852 0.0
H2017 H 0.99323 0.85261 0.95382 0.0
H2018 H 0.04268 0.87015 0.92229 0.0
H2019 H 0.04441 0.8405 0.90659 0.0
H2020 H 0.01314 0.87329 0.97526 0.0
H2021 H 0.04056 0.91375 0.91001 0.0
H2022 H 0.03945 0.91147 0.87565 0.0
H2023 H 0.98921 0.8786 0.88006 0.0
H2024 H 0.98986 0.8809 0.91441 0.0
H2025 H 0.0374 0.96164 0.00613 0.0
H2026 H 0.03757 0.93121 0.99168 0.0
H2027 H -0.00411 0.94945 0.9524 0.0
H2028 H -0.00329 0.98024 0.9661 0.0
H2029 H 0.01709 0.92816 0.93486 0.0
H2030 H 0.98546 0.92188 0.99362 0.0
H2031 H 0.98092 0.92472 0.02777 0.0
H2032 H 0.02926 0.88975 0.03603 0.0
H2033 H 0.03427 0.88692 0.00192 0.0
C2034 C 0.00588 0.83264 0.935 0.0
C2035 C 0.01993 0.82907 0.92116 0.0
C2036 C 0.00463 0.84996 0.94373 0.0
C2037 C 0.01749 0.86396 0.93888 0.0
C2038 C 0.03217 0.85992 0.92588 0.0
C2039 C 0.03323 0.84284 0.91698 0.0
C2040 C 0.01553 0.8829 0.94695 0.0
C2041 C 0.01397 0.88527 0.96641 0.0
C2042 C 0.01594 0.89869 0.93549 0.0
C2043 C 0.01538 0.89736 0.9148 0.0
C2044 C 0.02924 0.9061 0.90364 0.0
C2045 C 0.02869 0.90479 0.88417 0.0
C2046 C 0.0143 0.89485 0.87568 0.0
C2047 C 0.00039 0.88624 0.88665 0.0
C2048 C 0.00085 0.88753 0.90612 0.0
C2049 C 0.02846 0.9592 0.99425 0.0
C2050 C 0.01706 0.97335 0.98724 0.0
C2051 C 0.02837 0.94169 0.98611 0.0
C2052 C 0.01632 0.93768 0.97121 0.0
C2053 C 0.00529 0.95201 0.9639 0.0
C2054 C 0.00578 0.96967 0.97172 0.0
C2055 C 0.01525 0.91863 0.96326 0.0
C2056 C 0.01621 0.91623 0.94377 0.0
C2057 C 0.01344 0.90286 0.97468 0.0
C2058 C 0.01033 0.90431 -0.00479 0.0
C2059 C -0.00482 0.91487 0.00272 0.0
C2060 C 0.99252 0.91648 0.02207 0.0
C2061 C 0.00482 0.90745 0.03406 0.0
C2062 C 0.01976 0.89675 0.02672 0.0
C2063 C 0.02251 0.89512 0.00738 0.0
H2064 H 0.00275 0.90873 0.04904 0.0
H2065 H 0.01391 0.89385 0.86061 0.0
H2066 H 0.98086 0.28449 0.71535 0.0
H2067 H 0.94848 0.2828 0.72844 0.0
H2068 H 0.926 0.29719 0.67483 0.0
H2069 H 0.95803 0.29944 0.66186 0.0
H2070 H 0.90707 0.31455 0.70124 0.0
H2071 H 0.92752 0.25254 0.68976 0.0
H2072 H 0.94851 0.22552 0.69221 0.0
H2073 H 0.93945 0.22518 0.75172 0.0
H2074 H 0.9186 0.25237 0.74963 0.0
H2075 H 0.81245 0.28158 0.71387 0.0
H2076 H 0.84521 0.28538 0.70236 0.0
H2077 H 0.86566 0.27714 0.75808 0.0
H2078 H 0.83316 0.27327 0.76968 0.0
H2079 H 0.88555 0.25703 0.73131 0.0
H2080 H 0.86338 0.31927 0.74128 0.0
H2081 H 0.84151 0.34538 0.73706 0.0
H2082 H 0.85292 0.34403 0.67791 0.0
H2083 H 0.87465 0.31773 0.68175 0.0
C2084 C 0.969 0.28744 0.70643 0.0
C2085 C 0.972 0.29199 0.68757 0.0
C2086 C 0.95054 0.28639 0.71388 0.0
C2087 C 0.93487 0.28963 0.7025 0.0
C2088 C 0.93789 0.29465 0.68384 0.0
C2089 C 0.95625 0.29586 0.67645 0.0
C2090 C 0.91524 0.28738 0.70974 0.0
C2091 C 0.90232 0.30192 0.70767 0.0
C2092 C 0.90914 0.27095 0.71827 0.0
C2093 C 0.92168 0.25461 0.71956 0.0
C2094 C 0.93013 0.24679 0.70338 0.0
C2095 C 0.94198 0.23143 0.7047 0.0
C2096 C 0.94536 0.22367 0.72212 0.0
C2097 C 0.93685 0.23123 0.73824 0.0
C2098 C 0.92501 0.24661 0.737 0.0
C2099 C 0.82394 0.28057 0.72364 0.0
C2100 C 0.82025 0.27719 0.74267 0.0
C2101 C 0.84259 0.28279 0.71707 0.0
C2102 C 0.85773 0.28167 0.72945 0.0
C2103 C 0.8541 0.27806 0.74836 0.0
C2104 C 0.83552 0.27591 0.75495 0.0
C2105 C 0.87746 0.28417 0.72277 0.0
C2106 C 0.89037 0.26967 0.72494 0.0
C2107 C 0.88347 0.30052 0.71408 0.0
C2108 C 0.8705 0.31642 0.71179 0.0
C2109 C 0.86111 0.32445 0.72736 0.0
C2110 C 0.84876 0.3393 0.72504 0.0
C2111 C 0.84579 0.34633 0.70722 0.0
C2112 C 0.85521 0.33856 0.69169 0.0
C2113 C 0.86756 0.32369 0.69394 0.0
H2114 H 0.83623 0.35783 0.70546 0.0
H2115 H 0.95453 0.21177 0.72311 0.0
H2116 H 0.49385 0.20047 0.40852 0.0
H2117 H 0.49383 0.17073 0.42401 0.0
H2118 H 0.5208 0.19479 0.4717 0.0
H2119 H 0.52088 0.22469 0.45622 0.0
H2120 H 0.53795 0.16222 0.46086 0.0
H2121 H 0.4745 0.1836 0.47439 0.0
H2122 H 0.44292 0.19607 0.46701 0.0
H2123 H 0.43241 0.14948 0.43189 0.0
H2124 H 0.46405 0.13684 0.43885 0.0
H2125 H 0.52722 0.08426 0.51903 0.0
H2126 H 0.52623 0.11508 0.50597 0.0
H2127 H 0.49275 0.09521 0.46039 0.0
H2128 H 0.493 0.0645 0.47389 0.0
H2129 H 0.47905 0.1264 0.47115 0.0
H2130 H 0.54248 0.10513 0.45661 0.0
H2131 H 0.57374 0.09199 0.46416 0.0
H2132 H 0.58451 0.13766 0.50042 0.0
H2133 H 0.55318 0.15096 0.4933 0.0
C2134 C 0.49961 0.19952 0.42238 0.0
C2135 C 0.50728 0.21504 0.43114 0.0
C2136 C 0.49958 0.18246 0.43125 0.0
C2137 C 0.50723 0.18046 0.4491 0.0
C2138 C 0.51482 0.19595 0.45793 0.0
C2139 C 0.51474 0.21308 0.44911 0.0
C2140 C 0.50752 0.16215 0.45832 0.0
C2141 C 0.52505 0.15449 0.46335 0.0
C2142 C 0.49077 0.15181 0.4612 0.0
C2143 C 0.47172 0.15936 0.45701 0.0
C2144 C 0.46552 0.17609 0.46497 0.0
C2145 C 0.4476 0.18317 0.46089 0.0
C2146 C 0.43569 0.1736 0.44895 0.0
C2147 C 0.44166 0.15689 0.44111 0.0
C2148 C 0.45958 0.14975 0.44514 0.0
C2149 C 0.51965 0.08644 0.50621 0.0
C2150 C 0.51023 0.07187 0.49748 0.0
C2151 C 0.51918 0.1041 0.49867 0.0
C2152 C 0.50971 0.10755 0.48194 0.0
C2153 C 0.5002 0.093 0.47327 0.0
C2154 C 0.50039 0.0754 0.48098 0.0
C2155 C 0.50951 0.12629 0.47356 0.0
C2156 C 0.492 0.13407 0.46868 0.0
C2157 C 0.5263 0.13665 0.47069 0.0
C2158 C 0.5454 0.12897 0.47454 0.0
C2159 C 0.55148 0.11235 0.46625 0.0
C2160 C 0.56921 0.10486 0.47046 0.0
C2161 C 0.58108 0.11396 0.4828 0.0
C2162 C 0.57529 0.13062 0.49088 0.0
C2163 C 0.55755 0.13815 0.48674 0.0
H2164 H 0.59478 0.10813 0.48609 0.0
H2165 H 0.42181 0.17911 0.44581 0.0
H2166 H 0.53898 0.77858 0.19519 0.0
H2167 H 0.56655 0.76889 0.2128 0.0
H2168 H 0.60383 0.78878 0.1689 0.0
H2169 H 0.57627 0.7981 0.15096 0.0
H2170 H 0.61449 0.75548 0.1795 0.0
H2171 H 0.59767 0.81219 0.21039 0.0
H2172 H 0.57645 0.83424 0.22687 0.0
H2173 H 0.5669 0.79546 0.27087 0.0
H2174 H 0.5879 0.77308 0.25453 0.0
H2175 H 0.70051 0.7662 0.22812 0.0
H2176 H 0.67182 0.76735 0.20985 0.0
H2177 H 0.64004 0.74283 0.25528 0.0
H2178 H 0.66888 0.74134 0.27366 0.0
H2179 H 0.6253 0.77553 0.24472 0.0
H2180 H 0.64546 0.71997 0.21459 0.0
H2181 H 0.66766 0.69894 0.19796 0.0
H2182 H 0.67213 0.73663 0.1523 0.0
H2183 H 0.65016 0.75801 0.16877 0.0
C2184 C 0.55305 0.78109 0.18938 0.0
C2185 C 0.5555 0.78911 0.17171 0.0
C2186 C 0.56878 0.77553 0.19946 0.0
C2187 C 0.58722 0.77819 0.19218 0.0
C2188 C 0.5897 0.78654 0.17471 0.0
C2189 C 0.57397 0.79195 0.16455 0.0
C2190 C 0.60393 0.77197 0.20261 0.0
C2191 C 0.61699 0.76 0.1937 0.0
C2192 C 0.60684 0.77746 0.2213 0.0
C2193 C 0.59418 0.79089 0.23114 0.0
C2194 C 0.59092 0.80831 0.22351 0.0
C2195 C 0.57896 0.82088 0.23284 0.0
C2196 C 0.57029 0.81623 0.24988 0.0
C2197 C 0.5736 0.79903 0.25765 0.0
C2198 C 0.58554 0.7864 0.24837 0.0
C2199 C 0.68761 0.76047 0.23406 0.0
C2200 C 0.68693 0.75388 0.25248 0.0
C2201 C 0.67118 0.76117 0.22356 0.0
C2202 C 0.65383 0.7552 0.23125 0.0
C2203 C 0.65332 0.74756 0.24916 0.0
C2204 C 0.66976 0.74682 0.25966 0.0
C2205 C 0.63599 0.75919 0.22156 0.0
C2206 C 0.62271 0.7708 0.2306 0.0
C2207 C 0.63301 0.7535 0.20296 0.0
C2208 C 0.64625 0.74066 0.19299 0.0
C2209 C 0.65129 0.72385 0.20107 0.0
C2210 C 0.66381 0.71185 0.19165 0.0
C2211 C 0.67132 0.71646 0.1741 0.0
C2212 C 0.6663 0.73308 0.1659 0.0
C2213 C 0.65379 0.74513 0.17526 0.0
H2214 H 0.68101 0.70715 0.16683 0.0
H2215 H 0.56103 0.82599 0.25709 0.0
H2216 H 0.02681 0.22296 0.65022 0.0
H2217 H 0.02743 0.19321 0.63442 0.0
H2218 H 0.01346 0.21932 0.58254 0.0
H2219 H 0.0123 0.24907 0.59835 0.0
H2220 H -0.0048 0.18783 0.58576 0.0
H2221 H 0.05973 0.20846 0.59343 0.0
H2222 H 0.08739 0.21898 0.61105 0.0
H2223 H 0.08667 0.16931 0.64285 0.0
H2224 H 0.05882 0.15861 0.62562 0.0
H2225 H 0.06054 0.11486 0.53658 0.0
H2226 H 0.0547 0.14446 0.55174 0.0
H2227 H 0.00577 0.12238 0.58084 0.0
H2228 H 0.01163 0.09265 0.56596 0.0
H2229 H 0.05513 0.15188 0.58864 0.0
H2230 H 0.97325 0.15761 0.58723 0.0
H2231 H 0.94681 0.14779 0.56752 0.0
H2232 H 0.9843 0.14626 0.51942 0.0
H2233 H 0.01088 0.15636 0.53877 0.0
C2234 C 0.02376 0.22236 0.63548 0.0
C2235 C 0.01973 0.23837 0.62548 0.0
C2236 C 0.02412 0.20535 0.62648 0.0
C2237 C 0.02082 0.20412 0.60725 0.0
C2238 C 0.01607 0.21999 0.59739 0.0
C2239 C 0.01547 0.23698 0.60643 0.0
C2240 C 0.02326 0.18649 0.59718 0.0
C2241 C 0.00827 0.17993 0.58643 0.0
C2242 C 0.04042 0.17631 0.59789 0.0
C2243 C 0.0571 0.1828 0.60833 0.0
C2244 C 0.06539 0.19984 0.60427 0.0
C2245 C 0.08112 0.20582 0.61417 0.0
C2246 C 0.08881 0.1948 0.62802 0.0
C2247 C 0.08073 0.17781 0.63208 0.0
C2248 C 0.06497 0.17179 0.62226 0.0
C2249 C 0.04857 0.11626 0.54623 0.0
C2250 C 0.03664 0.10134 0.55013 0.0
C2251 C 0.04521 0.1332 0.55481 0.0
C2252 C 0.0298 0.13557 0.56735 0.0
C2253 C 0.01761 0.12086 0.57101 0.0
C2254 C 0.02097 0.10388 0.56245 0.0
C2255 C 0.0271 0.15324 0.57724 0.0
C2256 C 0.04202 0.15974 0.58804 0.0
C2257 C 0.01002 0.16346 0.57632 0.0
C2258 C 0.99408 0.15757 0.5645 0.0
C2259 C 0.97582 0.15527 0.57243 0.0
C2260 C 0.96081 0.14967 0.56132 0.0
C2261 C 0.96388 0.14637 0.54224 0.0
C2262 C 0.98196 0.14875 0.53421 0.0
C2263 C -0.003 0.1544 0.54525 0.0
H2264 H 0.95225 0.14197 0.53367 0.0
H2265 H 0.101 0.19945 0.63565 0.0
H2266 H 0.56271 0.27162 0.34654 0.0
H2267 H 0.59398 0.26906 0.33128 0.0
H2268 H 0.61592 0.24307 0.38044 0.0
H2269 H 0.58489 0.24683 0.39616 0.0
H2270 H 0.64102 0.26396 0.36908 0.0
H2271 H 0.60527 0.2191 0.33717 0.0
H2272 H 0.57847 0.20638 0.31979 0.0
H2273 H 0.58964 0.24378 0.27489 0.0
H2274 H 0.61637 0.25689 0.29211 0.0
H2275 H 0.71164 0.23079 0.28854 0.0
H2276 H 0.68157 0.2276 0.30605 0.0
H2277 H 0.68512 0.28393 0.32422 0.0
H2278 H 0.71528 0.28707 0.30722 0.0
H2279 H 0.64842 0.24286 0.30331 0.0
H2280 H 0.66596 0.29004 0.3669 0.0
H2281 H 0.69366 0.2978 0.38586 0.0
H2282 H 0.72048 0.24679 0.37022 0.0
H2283 H 0.69284 0.23861 0.35139 0.0
C2284 C 0.57422 0.26533 0.35405 0.0
C2285 C 0.57139 0.25936 0.3725 0.0
C2286 C 0.59209 0.26372 0.34527 0.0
C2287 C 0.60736 0.25546 0.35448 0.0
C2288 C 0.60446 0.24947 0.37296 0.0
C2289 C 0.58671 0.25157 0.38194 0.0
C2290 C 0.62642 0.25363 0.34505 0.0
C2291 C 0.64257 0.25926 0.35472 0.0
C2292 C 0.62875 0.24697 0.32647 0.0
C2293 C 0.61274 0.23906 0.316 0.0
C2294 C 0.60194 0.22468 0.32364 0.0
C2295 C 0.58677 0.2174 0.31381 0.0
C2296 C 0.58233 0.2243 0.29626 0.0
C2297 C 0.59309 0.23846 0.28849 0.0
C2298 C 0.60827 0.24581 0.29827 0.0
C2299 C 0.70604 0.24247 0.29634 0.0
C2300 C 0.71591 0.25916 0.29654 0.0
C2301 C 0.68883 0.24064 0.30631 0.0
C2302 C 0.68116 0.25545 0.31668 0.0
C2303 C 0.6909 0.27217 0.31668 0.0
C2304 C 0.70814 0.27398 0.30685 0.0
C2305 C 0.66278 0.25367 0.32719 0.0
C2306 C 0.6468 0.24739 0.31771 0.0
C2307 C 0.66073 0.259 0.34618 0.0
C2308 C 0.67738 0.2638 0.35759 0.0
C2309 C 0.67773 0.28045 0.36757 0.0
C2310 C 0.69343 0.28492 0.37828 0.0
C2311 C 0.70884 0.27282 0.3792 0.0
C2312 C 0.70857 0.25619 0.36944 0.0
C2313 C 0.6929 0.25164 0.35872 0.0
H2314 H 0.72098 0.27631 0.3875 0.0
H2315 H 0.57057 0.21864 0.28868 0.0
H2316 H 0.49104 0.85728 0.13955 0.0
H2317 H 0.48427 0.88734 0.12657 0.0
H2318 H 0.48633 0.86417 0.0709 0.0
H2319 H 0.49394 0.83411 0.08383 0.0
H2320 H 0.50531 0.894 0.07104 0.0
H2321 H 0.44352 0.87774 0.09375 0.0
H2322 H 0.41929 0.86711 0.1165 0.0
H2323 H 0.43069 0.91307 0.15219 0.0
H2324 H 0.45519 0.92385 0.12977 0.0
H2325 H 0.472 0.96982 0.02618 0.0
H2326 H 0.46408 0.94182 0.04286 0.0
H2327 H 0.48837 0.96381 0.09288 0.0
H2328 H 0.49655 0.99202 0.07632 0.0
H2329 H 0.45337 0.9349 0.09482 0.0
H2330 H 0.52003 0.94625 0.07291 0.0
H2331 H 0.54058 0.95881 0.04781 0.0
H2332 H 0.51619 0.92177 0.00829 0.0
H2333 H 0.49529 0.90918 0.03316 0.0
C2334 C 0.48995 0.85857 0.12454 0.0
C2335 C 0.49302 0.84339 0.11267 0.0
C2336 C 0.48592 0.87574 0.11715 0.0
C2337 C 0.48445 0.87795 0.09778 0.0
C2338 C 0.48735 0.86275 0.0859 0.0
C2339 C 0.49169 0.84561 0.09328 0.0
C2340 C 0.481 0.89634 0.08991 0.0
C2341 C 0.49377 0.90274 0.07614 0.0
C2342 C 0.46606 0.90795 0.09662 0.0
C2343 C 0.45132 0.90152 0.11014 0.0
C2344 C 0.44097 0.88551 0.10652 0.0
C2345 C 0.42717 0.87947 0.11934 0.0
C2346 C 0.42348 0.88939 0.1358 0.0
C2347 C 0.43357 0.9054 0.13944 0.0
C2348 C 0.4474 0.91149 0.12667 0.0
C2349 C 0.47509 0.969 0.04092 0.0
C2350 C 0.48536 0.98286 0.04985 0.0
C2351 C 0.47034 0.95308 0.05045 0.0
C2352 C 0.47582 0.95085 0.06897 0.0
C2353 C 0.48397 0.96549 0.0786 0.0
C2354 C 0.48877 0.98149 0.06906 0.0
C2355 C 0.47768 0.93221 0.07633 0.0
C2356 C 0.46476 0.92591 0.08987 0.0
C2357 C 0.49229 0.92055 0.06934 0.0
C2358 C 0.50607 0.92685 0.05483 0.0
C2359 C 0.5191 0.94078 0.05886 0.0
C2360 C 0.53072 0.94797 0.04467 0.0
C2361 C 0.52955 0.94123 0.02642 0.0
C2362 C 0.51698 0.92706 0.02241 0.0
C2363 C 0.50528 0.91985 0.03655 0.0
H2364 H 0.53852 0.94681 0.01543 0.0
H2365 H 0.41279 0.88469 0.14571 0.0
H2366 H 0.97094 0.79272 0.83342 0.0
H2367 H 0.9396 0.79038 0.82 0.0
H2368 H 0.92049 0.75801 0.86685 0.0
H2369 H 0.95217 0.76003 0.88036 0.0
H2370 H 0.90879 0.74355 0.83432 0.0
H2371 H 0.90699 0.80321 0.86268 0.0
H2372 H 0.91852 0.83434 0.86941 0.0
H2373 H 0.91542 0.84793 0.81129 0.0
H2374 H 0.90412 0.81679 0.80416 0.0
H2375 H 0.81177 0.74809 0.80956 0.0
H2376 H 0.84193 0.75006 0.82552 0.0
H2377 H 0.86318 0.78684 0.7831 0.0
H2378 H 0.8325 0.78566 0.76759 0.0
H2379 H 0.87313 0.79895 0.81519 0.0
H2380 H 0.87664 0.73912 0.78636 0.0
H2381 H 0.86547 0.70794 0.77922 0.0
H2382 H 0.8658 0.69461 0.83754 0.0
H2383 H 0.87675 0.72579 0.84505 0.0
C2384 C 0.96012 0.78513 0.84099 0.0
C2385 C 0.96414 0.77662 0.85807 0.0
C2386 C 0.94211 0.78389 0.83329 0.0
C2387 C 0.92754 0.77427 0.84252 0.0
C2388 C 0.93148 0.76559 0.8595 0.0
C2389 C 0.94958 0.76679 0.86723 0.0
C2390 C 0.90838 0.77304 0.83414 0.0
C2391 C 0.90085 0.75567 0.83041 0.0
C2392 C 0.89817 0.78883 0.8286 0.0
C2393 C 0.90485 0.80761 0.83287 0.0
C2394 C 0.90889 0.81279 0.85131 0.0
C2395 C 0.91537 0.83045 0.8552 0.0
C2396 C 0.91774 0.84309 0.84078 0.0
C2397 C 0.91359 0.83812 0.82244 0.0
C2398 C 0.90713 0.82047 0.81848 0.0
C2399 C 0.82294 0.75643 0.80348 0.0
C2400 C 0.81983 0.76654 0.78715 0.0
C2401 C 0.84025 0.75751 0.81262 0.0
C2402 C 0.8551 0.76829 0.80536 0.0
C2403 C 0.85202 0.77836 0.78899 0.0
C2404 C 0.83453 0.7776 0.78005 0.0
C2405 C 0.87364 0.76943 0.81506 0.0
C2406 C 0.88103 0.7868 0.81911 0.0
C2407 C 0.88376 0.75364 0.82079 0.0
C2408 C 0.87736 0.73484 0.81627 0.0
C2409 C 0.87422 0.72957 0.79767 0.0
C2410 C 0.86794 0.7119 0.79355 0.0
C2411 C 0.86488 0.69932 0.80792 0.0
C2412 C 0.86815 0.70437 0.82643 0.0
C2413 C 0.87442 0.72204 0.83062 0.0
H2414 H 0.86001 0.68565 0.80471 0.0
H2415 H 0.92276 0.85675 0.84382 0.0
H2416 H 0.88915 0.03935 0.80673 0.0
H2417 H 0.90196 0.03922 0.83816 0.0
H2418 H 0.95886 0.04291 0.81486 0.0
H2419 H 0.94621 0.04243 0.7834 0.0
H2420 H 0.9583 0.01933 0.8421 0.0
H2421 H 0.93483 0.08065 0.83393 0.0
H2422 H 0.91101 0.10436 0.82675 0.0
H2423 H 0.87539 0.0859 0.87219 0.0
H2424 H 0.8989 0.06191 0.87949 0.0
H2425 H 0.00627 0.05717 0.91984 0.0
H2426 H 0.99048 0.0544 0.88976 0.0
H2427 H 0.94001 0.03447 0.91792 0.0
H2428 H 0.95592 0.03692 0.94805 0.0
H2429 H 0.93581 0.06481 0.8896 0.0
H2430 H 0.96156 0.00423 0.89828 0.0
H2431 H 0.98689 0.98199 0.90531 0.0
H2432 H 0.02 0.00104 0.85835 0.0
H2433 H 0.99498 0.02363 0.85122 0.0
C2434 C 0.90439 0.04015 0.8083 0.0
C2435 C 0.91667 0.04099 0.7926 0.0
C2436 C 0.91168 0.04012 0.82627 0.0
C2437 C 0.93134 0.04131 0.82885 0.0
C2438 C 0.94364 0.04197 0.81319 0.0
C2439 C 0.93638 0.04175 0.79522 0.0
C2440 C 0.93918 0.04199 0.84785 0.0
C2441 C 0.95348 0.02939 0.85241 0.0
C2442 C 0.93265 0.0549 0.86143 0.0
C2443 C 0.91853 0.06936 0.85713 0.0
C2444 C 0.92185 0.08156 0.8423 0.0
C2445 C 0.90842 0.09506 0.83822 0.0
C2446 C 0.89167 0.0966 0.84897 0.0
C2447 C 0.88835 0.08467 0.86386 0.0
C2448 C 0.90173 0.07113 0.86798 0.0
C2449 C 0.99178 0.05232 0.91957 0.0
C2450 C 0.98225 0.04725 0.93614 0.0
C2451 C 0.98285 0.05066 0.90246 0.0
C2452 C 0.96418 0.04419 0.90176 0.0
C2453 C 0.95446 0.03947 0.9183 0.0
C2454 C 0.96353 0.04078 0.93539 0.0
C2455 C 0.95493 0.04231 0.88363 0.0
C2456 C 0.94044 0.05469 0.87927 0.0
C2457 C 0.96145 0.02939 0.87016 0.0
C2458 C 0.97647 0.01575 0.87434 0.0
C2459 C 0.97432 0.0038 0.88956 0.0
C2460 C 0.9886 0.99111 0.89354 0.0
C2461 C 0.00506 0.99014 0.88231 0.0
C2462 C 0.00725 0.00183 0.86705 0.0
C2463 C 0.99301 0.01457 0.86302 0.0
H2464 H 0.0161 0.98029 0.88541 0.0
H2465 H 0.88129 0.10706 0.84579 0.0
H2466 H 0.78012 0.18007 0.53959 0.0
H2467 H 0.77635 0.1999 0.56693 0.0
H2468 H 0.74397 0.15804 0.59523 0.0
H2469 H 0.74786 0.1379 0.56793 0.0
H2470 H 0.74508 0.21404 0.58308 0.0
H2471 H 0.75355 0.16248 0.6436 0.0
H2472 H 0.76934 0.13302 0.65012 0.0
H2473 H 0.81083 0.1433 0.60666 0.0
H2474 H 0.79553 0.17298 0.60014 0.0
H2475 H 0.71957 0.25482 0.67133 0.0
H2476 H 0.72197 0.23471 0.6439 0.0
H2477 H 0.7823 0.22893 0.65179 0.0
H2478 H 0.77997 0.24899 0.67919 0.0
H2479 H 0.76641 0.19645 0.6461 0.0
H2480 H 0.76478 0.25588 0.61722 0.0
H2481 H 0.75147 0.28651 0.61092 0.0
H2482 H 0.70057 0.26202 0.59055 0.0
H2483 H 0.71349 0.23123 0.59696 0.0
C2484 C 0.77224 0.175 0.55162 0.0
C2485 C 0.76435 0.15735 0.55158 0.0
C2486 C 0.77004 0.1864 0.56722 0.0
C2487 C 0.75997 0.18041 0.58312 0.0
C2488 C 0.75199 0.16284 0.58317 0.0
C2489 C 0.75421 0.15137 0.56754 0.0
C2490 C 0.75777 0.19276 0.59952 0.0
C2491 C 0.74968 0.21016 0.59688 0.0
C2492 C 0.76387 0.18772 0.61749 0.0
C2493 C 0.77316 0.16982 0.62116 0.0
C2494 C 0.76603 0.15845 0.63542 0.0
C2495 C 0.77492 0.14173 0.63915 0.0
C2496 C 0.79101 0.13624 0.62873 0.0
C2497 C 0.7983 0.14751 0.61464 0.0
C2498 C 0.7895 0.16429 0.61091 0.0
C2499 C 0.73338 0.2495 0.66704 0.0
C2500 C 0.74959 0.25345 0.67742 0.0
C2501 C 0.73472 0.23797 0.65141 0.0
C2502 C 0.75232 0.23037 0.64581 0.0
C2503 C 0.76856 0.23455 0.65597 0.0
C2504 C 0.76721 0.246 0.67161 0.0
C2505 C 0.75386 0.21773 0.6296 0.0
C2506 C 0.7617 0.20025 0.63231 0.0
C2507 C 0.74778 0.22278 0.61165 0.0
C2508 C 0.74002 0.24127 0.60775 0.0
C2509 C 0.75069 0.25704 0.61154 0.0
C2510 C 0.74323 0.27442 0.60792 0.0
C2511 C 0.72517 0.27621 0.60039 0.0
C2512 C 0.71455 0.26061 0.59641 0.0
C2513 C 0.72194 0.24319 0.60002 0.0
H2514 H 0.71942 0.28968 0.5976 0.0
H2515 H 0.79786 0.12328 0.63163 0.0
H2516 H 0.56679 0.00262 0.32128 0.0
H2517 H 0.55769 0.00289 0.3544 0.0
H2518 H 0.6137 0.02196 0.36819 0.0
H2519 H 0.62317 0.02029 0.33516 0.0
H2520 H 0.60522 -0.00164 0.39152 0.0
H2521 H 0.57165 0.05028 0.37035 0.0
H2522 H 0.55082 0.06883 0.35057 0.0
H2523 H 0.50358 0.03432 0.36475 0.0
H2524 H 0.52418 0.0154 0.38443 0.0
H2525 H 0.56829 0.02287 0.48442 0.0
H2526 H 0.58309 0.02251 0.45305 0.0
H2527 H 0.53785 0.98859 0.43312 0.0
H2528 H 0.52282 0.98909 0.46412 0.0
H2529 H 0.54297 0.02266 0.41442 0.0
H2530 H 0.58094 0.97068 0.43595 0.0
H2531 H 0.60328 0.95664 0.45784 0.0
H2532 H 0.64438 -0.00181 0.44515 0.0
H2533 H 0.6222 0.0126 0.42332 0.0
C2534 C 0.57703 0.00702 0.33143 0.0
C2535 C 0.5956 0.01148 0.32583 0.0
C2536 C 0.57184 0.00729 0.35033 0.0
C2537 C 0.58491 0.01278 0.36383 0.0
C2538 C 0.60338 0.01764 0.35809 0.0
C2539 C 0.60875 0.01678 0.33926 0.0
C2540 C 0.57952 0.01263 0.38395 0.0
C2541 C 0.59172 0.00397 0.39651 0.0
C2542 C 0.56199 0.02002 0.39063 0.0
C2543 C 0.54951 0.03133 0.37876 0.0
C2544 C 0.55685 0.04656 0.36915 0.0
C2545 C 0.54508 0.05716 0.35797 0.0
C2546 C 0.5259 0.05273 0.35637 0.0
C2547 C 0.51844 0.03772 0.36599 0.0
C2548 C 0.53016 0.02707 0.37718 0.0
C2549 C 0.56184 0.01489 0.47348 0.0
C2550 C 0.54432 0.0062 0.47659 0.0
C2551 C 0.5703 0.0147 0.45565 0.0
C2552 C 0.56147 0.0056 0.44093 0.0
C2553 C 0.54477 -0.00424 0.44437 0.0
C2554 C 0.53626 -0.00398 0.46207 0.0
C2555 C 0.56834 0.00792 0.42155 0.0
C2556 C 0.55647 0.01717 0.40926 0.0
C2557 C 0.58642 0.00172 0.41533 0.0
C2558 C 0.59988 0.99277 0.4281 0.0
C2559 C 0.59471 0.97686 0.43789 0.0
C2560 C 0.60735 0.96883 0.45027 0.0
C2561 C 0.62523 0.97653 0.4529 0.0
C2562 C 0.63054 0.99223 0.44308 0.0
C2563 C 0.61796 0.00031 0.43068 0.0
H2564 H 0.63497 0.97032 0.46253 0.0
H2565 H 0.51681 0.06096 0.34771 0.0
H2566 H 0.7751 0.83443 0.06474 0.0
H2567 H 0.77579 0.81963 0.09538 0.0
H2568 H 0.75833 0.87054 0.12178 0.0
H2569 H 0.75863 0.88548 0.09148 0.0
H2570 H 0.78253 0.85672 0.14221 0.0
H2571 H 0.72731 0.83199 0.11372 0.0
H2572 H 0.70908 0.8162 0.08945 0.0
H2573 H 0.74265 0.7675 0.09655 0.0
H2574 H 0.76123 0.78308 0.12071 0.0
H2575 H 0.73769 0.79273 0.21858 0.0
H2576 H 0.73676 0.80605 0.18723 0.0
H2577 H 0.79772 0.81184 0.18696 0.0
H2578 H 0.79867 0.79917 0.21833 0.0
H2579 H 0.75036 0.79752 0.15391 0.0
H2580 H 0.81145 0.84953 0.16443 0.0
H2581 H 0.82538 0.86752 0.18996 0.0
H2582 H 0.77241 0.8658 0.22075 0.0
H2583 H 0.75809 0.84803 0.19531 0.0
C2584 C 0.77154 0.84246 0.07712 0.0
C2585 C 0.76686 0.86114 0.07566 0.0
C2586 C 0.77177 0.83395 0.09465 0.0
C2587 C 0.76681 0.84383 0.11104 0.0
C2588 C 0.76228 0.86254 0.10949 0.0
C2589 C 0.76243 0.8711 0.09208 0.0
C2590 C 0.76643 0.83493 0.12983 0.0
C2591 C 0.77549 0.84376 0.14467 0.0
C2592 C 0.75694 0.81818 0.13338 0.0
C2593 C 0.74577 0.80876 0.11889 0.0
C2594 C 0.73088 0.81795 0.11001 0.0
C2595 C 0.72048 0.80904 0.09629 0.0
C2596 C 0.72474 0.79087 0.09143 0.0
C2597 C 0.73938 0.78158 0.10031 0.0
C2598 C 0.74984 0.79044 0.11403 0.0
C2599 C 0.75089 0.79686 0.21182 0.0
C2600 C 0.76823 0.79508 0.22108 0.0
C2601 C 0.75035 0.80441 0.19386 0.0
C2602 C 0.76713 0.81027 0.18477 0.0
C2603 C 0.7845 0.80786 0.19377 0.0
C2604 C 0.78503 0.80053 0.21175 0.0
C2605 C 0.76656 0.81928 0.16611 0.0
C2606 C 0.75739 0.81046 0.15135 0.0
C2607 C 0.77535 0.83639 0.16276 0.0
C2608 C 0.78378 0.84729 0.17803 0.0
C2609 C 0.80276 0.85306 0.17661 0.0
C2610 C 0.81073 0.8632 0.19108 0.0
C2611 C 0.79981 0.86774 0.20699 0.0
C2612 C 0.78087 0.86221 0.20845 0.0
C2613 C 0.77284 0.85209 0.19402 0.0
H2614 H 0.80601 0.87558 0.21818 0.0
H2615 H 0.71667 0.78399 0.0808 0.0
H2616 H 0.86617 0.05029 0.67709 0.0
H2617 H 0.88417 0.04722 0.64766 0.0
H2618 H 0.93125 0.07573 0.67179 0.0
H2619 H 0.91346 0.07868 0.70139 0.0
H2620 H 0.92477 0.08164 0.63075 0.0
H2621 H 0.93422 0.03423 0.67803 0.0
H2622 H 0.9222 0.01153 0.70065 0.0
H2623 H 0.89232 0.98406 0.65706 0.0
H2624 H 0.90417 0.00669 0.63417 0.0
H2625 H 0.00457 0.04846 0.58191 0.0
H2626 H 0.98235 0.05697 0.60704 0.0
H2627 H 0.94482 0.01354 0.59039 0.0
H2628 H 0.96767 0.00419 0.5659 0.0
H2629 H 0.94373 0.01607 0.62575 0.0
H2630 H 0.93782 0.06084 0.57724 0.0
H2631 H 0.95094 0.08278 0.55433 0.0
H2632 H 0.97276 0.11555 0.5989 0.0
H2633 H 0.96013 0.09358 0.62204 0.0
C2634 C 0.8801 0.05645 0.67596 0.0
C2635 C 0.88862 0.06439 0.6916 0.0
C2636 C 0.89032 0.05472 0.65914 0.0
C2637 C 0.90903 0.06108 0.65776 0.0
C2638 C 0.91678 0.07078 0.67268 0.0
C2639 C 0.90666 0.07234 0.68958 0.0
C2640 C 0.92161 0.05469 0.64236 0.0
C2641 C 0.92898 0.06735 0.62957 0.0
C2642 C 0.92678 0.03599 0.64083 0.0
C2643 C 0.9199 0.02222 0.65446 0.0
C2644 C 0.92499 0.02341 0.67331 0.0
C2645 C 0.91822 0.01055 0.68617 0.0
C2646 C 0.9064 -0.00358 0.68033 0.0
C2647 C 0.90143 -0.00496 0.66157 0.0
C2648 C 0.90821 0.00785 0.64864 0.0
C2649 C 0.9917 0.04055 0.58375 0.0
C2650 C 0.98761 0.0259 0.5717 0.0
C2651 C 0.97891 0.04557 0.59799 0.0
C2652 C 0.96154 0.03641 0.60007 0.0
C2653 C 0.958 0.02101 0.58884 0.0
C2654 C 0.97105 0.01568 0.57486 0.0
C2655 C 0.94707 0.04298 0.61388 0.0
C2656 C 0.93935 0.03034 0.62654 0.0
C2657 C 0.94147 0.06168 0.61511 0.0
C2658 C 0.94821 0.07545 0.60133 0.0
C2659 C 0.9455 0.07268 0.58212 0.0
C2660 C 0.95286 0.0851 0.56911 0.0
C2661 C 0.96277 0.10048 0.57516 0.0
C2662 C 0.96514 0.10359 0.59424 0.0
C2663 C 0.95787 0.09116 0.60731 0.0
H2664 H 0.96862 0.10998 0.56506 0.0
H2665 H 0.90114 0.9865 0.69032 0.0
H2666 H 0.80525 0.1971 0.46076 0.0
H2667 H 0.81405 0.21572 0.43367 0.0
H2668 H 0.81456 0.16734 0.39868 0.0
H2669 H 0.80647 0.14861 0.4257 0.0
H2670 H 0.83995 0.19158 0.38559 0.0
H2671 H 0.77375 0.19197 0.40613 0.0
H2672 H 0.7472 0.19696 0.42869 0.0
H2673 H 0.76256 0.25356 0.4342 0.0
H2674 H 0.78938 0.2488 0.41184 0.0
H2675 H 0.7924 0.21554 0.30219 0.0
H2676 H 0.80536 0.2034 0.33109 0.0
H2677 H 0.80987 0.2583 0.35315 0.0
H2678 H 0.79704 0.27056 0.32445 0.0
H2679 H 0.78737 0.23552 0.37447 0.0
H2680 H 0.84914 0.23519 0.34658 0.0
H2681 H 0.87333 0.22889 0.32194 0.0
H2682 H 0.86445 0.17107 0.328 0.0
H2683 H 0.83996 0.17702 0.35248 0.0
C2684 C 0.80768 0.1904 0.44737 0.0
C2685 C 0.80472 0.1715 0.44521 0.0
C2686 C 0.81277 0.20102 0.43194 0.0
C2687 C 0.81452 0.19294 0.41412 0.0
C2688 C 0.81322 0.17386 0.41229 0.0
C2689 C 0.80841 0.1632 0.42773 0.0
C2690 C 0.81457 0.20434 0.39715 0.0
C2691 C 0.82853 0.20126 0.38313 0.0
C2692 C 0.79976 0.21711 0.39407 0.0
C2693 C 0.7837 0.21997 0.40755 0.0
C2694 C 0.77155 0.20543 0.41228 0.0
C2695 C 0.75645 0.20822 0.42501 0.0
C2696 C 0.75324 0.22555 0.43293 0.0
C2697 C 0.7651 0.24013 0.4281 0.0
C2698 C 0.78026 0.2374 0.41541 0.0
C2699 C 0.7965 0.22503 0.31305 0.0
C2700 C 0.79341 0.24395 0.31119 0.0
C2701 C 0.80405 0.2181 0.32946 0.0
C2702 C 0.8086 0.23001 0.34416 0.0
C2703 C 0.8065 0.24894 0.3419 0.0
C2704 C 0.79906 0.25588 0.32552 0.0
C2705 C 0.81256 0.2226 0.36277 0.0
C2706 C 0.79919 0.22633 0.37708 0.0
C2707 C 0.8277 0.21027 0.36588 0.0
C2708 C 0.8426 0.20657 0.35131 0.0
C2709 C 0.85223 0.22113 0.34257 0.0
C2710 C 0.86602 0.21762 0.32864 0.0
C2711 C 0.8704 0.19959 0.32338 0.0
C2712 C 0.86104 0.18503 0.33209 0.0
C2713 C 0.84722 0.18846 0.34602 0.0
H2714 H 0.88106 0.19691 0.31257 0.0
H2715 H 0.74153 0.22769 0.44276 0.0
H2716 H 0.64104 0.9828 0.20727 0.0
H2717 H 0.62676 0.99232 0.178 0.0
H2718 H 0.57175 -0.00445 0.20566 0.0
H2719 H 0.58576 0.98562 0.23474 0.0
H2720 H 0.56811 0.98462 0.17053 0.0
H2721 H 0.59995 0.03254 0.20297 0.0
H2722 H 0.62696 0.04707 0.21837 0.0
H2723 H 0.6591 0.04571 0.16672 0.0
H2724 H 0.63238 0.03069 0.15108 0.0
H2725 H 0.52371 0.05165 0.11478 0.0
H2726 H 0.54005 0.04044 0.14261 0.0
H2727 H 0.58868 0.02511 0.10812 0.0
H2728 H 0.57213 0.03583 0.08038 0.0
H2729 H 0.596 0.0422 0.14592 0.0
H2730 H 0.56165 0.99373 0.11409 0.0
H2731 H 0.53278 0.98086 0.10028 0.0
H2732 H 0.50324 0.98593 0.15319 0.0
H2733 H 0.53183 -0.00085 0.16721 0.0
C2734 C 0.62583 0.98507 0.20698 0.0
C2735 C 0.61457 0.98383 0.22336 0.0
C2736 C 0.61771 0.99058 0.19029 0.0
C2737 C 0.59831 -0.00489 0.18984 0.0
C2738 C 0.58679 0.99227 0.20575 0.0
C2739 C 0.59484 0.98664 0.22238 0.0
C2740 C 0.59034 0.00452 0.17353 0.0
C2741 C 0.57417 -0.00277 0.16522 0.0
C2742 C 0.59823 0.02104 0.16665 0.0
C2743 C 0.61425 0.0303 0.17591 0.0
C2744 C 0.61283 0.03521 0.19492 0.0
C2745 C 0.62809 0.04354 0.2037 0.0
C2746 C 0.64476 0.04732 0.19355 0.0
C2747 C 0.64619 0.04276 0.17458 0.0
C2748 C 0.631 0.0343 0.16575 0.0
C2749 C 0.5381 0.0464 0.11338 0.0
C2750 C 0.54682 0.04454 0.09569 0.0
C2751 C 0.54734 0.03995 0.12913 0.0
C2752 C 0.56546 0.03191 0.12725 0.0
C2753 C 0.57473 0.03135 0.10976 0.0
C2754 C 0.56534 0.03742 0.09402 0.0
C2755 C 0.5739 0.02223 0.14304 0.0
C2756 C 0.5901 0.0295 0.15121 0.0
C2757 C 0.56586 0.00589 0.15001 0.0
C2758 C 0.54881 -0.00239 0.14164 0.0
C2759 C 0.54895 0.99225 0.12273 0.0
C2760 C 0.53265 0.98487 0.11487 0.0
C2761 C 0.51618 0.98263 0.12585 0.0
C2762 C 0.516 0.9877 0.14471 0.0
C2763 C 0.53224 -0.00487 0.15261 0.0
H2764 H 0.50357 0.97694 0.11978 0.0
H2765 H 0.65655 0.0538 0.20039 0.0
H2766 H 0.75469 0.89111 0.93965 0.0
H2767 H 0.75459 0.87283 0.91122 0.0
H2768 H 0.76309 0.82373 0.94322 0.0
H2769 H 0.76346 0.84217 0.97214 0.0
H2770 H 0.78452 0.82356 0.91017 0.0
H2771 H 0.71961 0.8334 0.92803 0.0
H2772 H 0.69135 0.85122 0.93828 0.0
H2773 H 0.69475 0.88303 0.8881 0.0
H2774 H 0.72322 0.86558 0.87767 0.0
H2775 H 0.75704 0.76748 0.83303 0.0
H2776 H 0.75656 0.78204 0.8639 0.0
H2777 H 0.75454 0.83527 0.83825 0.0
H2778 H 0.75531 0.82082 0.80722 0.0
H2779 H 0.72873 0.83066 0.8695 0.0
H2780 H 0.79476 0.82154 0.85265 0.0
H2781 H 0.82233 0.80291 0.84203 0.0
H2782 H 0.81613 0.76879 0.89037 0.0
H2783 H 0.78827 0.78702 0.9011 0.0
C2784 C 0.75659 0.87643 0.94079 0.0
C2785 C 0.75885 0.86812 0.95831 0.0
C2786 C 0.75649 0.86597 0.92444 0.0
C2787 C 0.75845 0.84686 0.92507 0.0
C2788 C 0.76143 0.83846 0.94241 0.0
C2789 C 0.76161 0.84901 0.95892 0.0
C2790 C 0.75684 0.83592 0.90754 0.0
C2791 C 0.77218 0.82484 0.90145 0.0
C2792 C 0.74085 0.83778 0.89597 0.0
C2793 C 0.72365 0.84826 0.90213 0.0
C2794 C 0.71442 0.84428 0.91924 0.0
C2795 C 0.69835 0.8543 0.92508 0.0
C2796 C 0.69128 0.86827 0.91387 0.0
C2797 C 0.70025 0.87222 0.89678 0.0
C2798 C 0.71634 0.86225 0.89088 0.0
C2799 C 0.75628 0.78229 0.83392 0.0
C2800 C 0.75621 0.79301 0.81764 0.0
C2801 C 0.7561 0.79058 0.85159 0.0
C2802 C 0.75567 0.80973 0.85336 0.0
C2803 C 0.7549 0.82046 0.83718 0.0
C2804 C 0.75535 0.81219 0.81947 0.0
C2805 C 0.75649 0.81858 0.87206 0.0
C2806 C 0.74099 0.82926 0.87833 0.0
C2807 C 0.77226 0.81625 0.88378 0.0
C2808 C 0.78928 0.80552 0.87758 0.0
C2809 C 0.79917 0.80998 0.86095 0.0
C2810 C 0.81487 0.7995 0.85491 0.0
C2811 C 0.82094 0.78464 0.86549 0.0
C2812 C 0.81138 0.78029 0.88217 0.0
C2813 C 0.79564 0.79069 0.88824 0.0
H2814 H 0.83308 0.77654 0.86078 0.0
H2815 H 0.67884 0.87602 0.91841 0.0
H2816 H 0.8045 0.95602 0.99305 0.0
H2817 H 0.83541 0.9704 -0.00443 0.0
H2818 H 0.85342 0.92767 0.03268 0.0
H2819 H 0.82218 0.91314 0.03042 0.0
H2820 H 0.86348 0.96183 0.04514 0.0
H2821 H 0.86902 0.92785 0.98763 0.0
H2822 H 0.85936 0.91779 0.95631 0.0
H2823 H 0.86294 0.97315 0.93667 0.0
H2824 H 0.87237 0.98359 0.96795 0.0
H2825 H 0.96141 0.98393 0.04064 0.0
H2826 H 0.93038 0.96945 0.03993 0.0
H2827 H 0.91258 0.00783 -0.00194 0.0
H2828 H 0.94404 0.02197 -0.00183 0.0
H2829 H 0.90247 0.97517 0.98835 0.0
H2830 H 0.8963 0.00958 0.04548 0.0
H2831 H 0.90554 0.02019 0.07675 0.0
H2832 H 0.90261 0.96506 0.09712 0.0
H2833 H 0.89359 0.95407 0.0659 0.0
C2834 C 0.81498 0.94957 0.00175 0.0
C2835 C 0.81082 0.93332 0.01148 0.0
C2836 C 0.83272 0.95782 0.00311 0.0
C2837 C 0.84683 0.95 0.01411 0.0
C2838 C 0.84274 0.93391 0.02405 0.0
C2839 C 0.82491 0.92559 0.02269 0.0
C2840 C 0.86575 0.95883 0.01525 0.0
C2841 C 0.87216 0.96451 0.03277 0.0
C2842 C 0.87683 0.96278 -0.00096 0.0
C2843 C 0.87125 0.95652 0.98019 0.0
C2844 C 0.86761 0.9379 0.97667 0.0
C2845 C 0.8622 0.93213 0.95891 0.0
C2846 C 0.8605 0.94483 0.94452 0.0
C2847 C 0.86425 0.96333 0.94784 0.0
C2848 C 0.86965 0.96918 0.96557 0.0
C2849 C 0.95084 0.98947 0.03143 0.0
C2850 C 0.95519 0.00419 0.01952 0.0
C2851 C 0.93302 0.98119 0.0311 0.0
C2852 C 0.91895 0.98768 0.01915 0.0
C2853 C 0.92316 0.00257 0.00744 0.0
C2854 C 0.94112 0.01072 0.00757 0.0
C2855 C 0.90021 0.97837 0.01826 0.0
C2856 C 0.89383 0.97254 0.00076 0.0
C2857 C 0.88912 0.97439 0.03449 0.0
C2858 C 0.89443 0.98099 0.0533 0.0
C2859 C 0.89775 -0.0003 0.05659 0.0
C2860 C 0.90293 0.00579 0.07431 0.0
C2861 C 0.90471 0.9933 0.0889 0.0
C2862 C 0.90125 0.97471 0.0858 0.0
C2863 C 0.89609 0.96855 0.0681 0.0
H2864 H 0.90872 -0.00196 0.1026 0.0
H2865 H 0.85631 0.94033 0.93078 0.0
H2866 H 0.34601 0.62343 0.00131 0.0
H2867 H 0.37741 0.61152 0.99247 0.0
H2868 H 0.35499 0.5566 0.99125 0.0
H2869 H 0.3237 0.56841 0.00094 0.0
H2870 H 0.38629 0.55644 0.00817 0.0
H2871 H 0.36694 0.58164 0.95033 0.0
H2872 H 0.35431 0.60531 0.92946 0.0
H2873 H 0.40165 0.63997 0.94127 0.0
H2874 H 0.41444 0.61663 0.96245 0.0
H2875 H 0.46849 0.51694 0.97683 0.0
H2876 H 0.4385 0.53078 0.96771 0.0
H2877 H 0.45639 0.58291 0.98956 0.0
H2878 H 0.48659 0.56923 -0.00138 0.0
H2879 H 0.42691 0.583 0.95775 0.0
H2880 H 0.43844 0.56164 0.02216 0.0
H2881 H 0.45107 0.53885 0.0438 0.0
H2882 H 0.41801 0.49683 0.01793 0.0
H2883 H 0.40506 0.51962 -0.00389 0.0
C2884 C 0.34782 0.6088 -0.00074 0.0
C2885 C 0.33248 0.59681 0.00187 0.0
C2886 C 0.3657 0.60204 0.99395 0.0
C2887 C 0.36844 0.58322 0.9907 0.0
C2888 C 0.35316 0.5712 0.99354 0.0
C2889 C 0.33534 0.57792 -0.0008 0.0
C2890 C 0.38755 0.57594 0.98566 0.0
C2891 C 0.39488 0.562 -0.00319 0.0
C2892 C 0.39903 0.58344 0.9711 0.0
C2893 C 0.39158 0.59741 0.9581 0.0
C2894 C 0.37461 0.59435 0.94856 0.0
C2895 C 0.36743 0.60771 0.93667 0.0
C2896 C 0.37715 0.62415 0.93408 0.0
C2897 C 0.39413 0.62723 0.94331 0.0
C2898 C 0.40137 0.61392 0.95524 0.0
C2899 C 0.46638 0.53152 0.97902 0.0
C2900 C 0.47957 0.54191 0.98895 0.0
C2901 C 0.44932 0.53944 0.97361 0.0
C2902 C 0.44522 0.55775 0.97823 0.0
C2903 C 0.45939 0.56876 0.98584 0.0
C2904 C 0.47657 0.56087 0.99116 0.0
C2905 C 0.42522 0.56362 0.98021 0.0
C2906 C 0.41791 0.57728 0.9687 0.0
C2907 C 0.41354 0.55588 0.99432 0.0
C2908 C 0.42092 0.54223 0.00752 0.0
C2909 C 0.43392 0.54753 0.02109 0.0
C2910 C 0.44113 0.5346 0.03338 0.0
C2911 C 0.43544 0.51632 0.03223 0.0
C2912 C 0.42242 0.51098 0.01881 0.0
C2913 C 0.41508 0.52391 0.00651 0.0
H2914 H 0.44104 0.5063 0.04175 0.0
H2915 H 0.37152 0.63449 0.92492 0.0
H2916 H 0.15315 0.56528 0.73703 0.0
H2917 H 0.17321 0.59243 0.73538 0.0
H2918 H 0.20848 0.57051 0.77853 0.0
H2919 H 0.18855 0.54315 0.78016 0.0
H2920 H 0.1941 0.60607 0.78592 0.0
H2921 H 0.22776 0.57378 0.73742 0.0
H2922 H 0.23142 0.5554 0.70854 0.0
H2923 H 0.20599 0.59871 0.67716 0.0
H2924 H 0.20192 0.61725 0.7059 0.0
H2925 H 0.25274 0.68615 0.778 0.0
H2926 H 0.24047 0.65497 0.78133 0.0
H2927 H 0.20768 0.66217 0.73159 0.0
H2928 H 0.22054 0.69297 0.72792 0.0
H2929 H 0.22579 0.6314 0.7293 0.0
H2930 H 0.18094 0.65592 0.77911 0.0
H2931 H 0.17292 0.67258 0.80843 0.0
H2932 H 0.21819 0.64483 0.83608 0.0
H2933 H 0.22581 0.62731 0.80719 0.0
C2934 C 0.16535 0.56611 0.74596 0.0
C2935 C 0.16923 0.55218 0.75881 0.0
C2936 C 0.17684 0.58156 0.74494 0.0
C2937 C 0.1923 0.58339 0.75682 0.0
C2938 C 0.19661 0.56926 0.76923 0.0
C2939 C 0.18527 0.55365 0.77008 0.0
C2940 C 0.20278 0.60082 0.75734 0.0
C2941 C 0.20142 0.61148 0.77367 0.0
C2942 C 0.21191 0.60793 0.74123 0.0
C2943 C 0.21442 0.59687 0.72386 0.0
C2944 C 0.22281 0.57934 0.72439 0.0
C2945 C 0.22499 0.5689 0.70803 0.0
C2946 C 0.21892 0.57587 0.69103 0.0
C2947 C 0.21069 0.59332 0.69034 0.0
C2948 C 0.20847 0.60382 0.70666 0.0
C2949 C 0.2427 0.68108 0.76799 0.0
C2950 C 0.23766 0.6918 0.75263 0.0
C2951 C 0.23561 0.66333 0.76994 0.0
C2952 C 0.22302 0.65624 0.75678 0.0
C2953 C 0.21748 0.66727 0.74184 0.0
C2954 C 0.22481 0.68483 0.73972 0.0
C2955 C 0.21653 0.63698 0.75771 0.0
C2956 C 0.21873 0.62592 0.74165 0.0
C2957 C 0.20799 0.62953 0.77399 0.0
C2958 C 0.20412 0.6406 0.791 0.0
C2959 C 0.18926 0.65352 0.79142 0.0
C2960 C 0.18472 0.66303 0.80796 0.0
C2961 C 0.19525 0.66003 0.82399 0.0
C2962 C 0.21013 0.64724 0.82362 0.0
C2963 C 0.21444 0.63739 0.80724 0.0
H2964 H 0.19178 0.66749 0.83674 0.0
H2965 H 0.22061 0.56776 0.67838 0.0
H2966 H 0.21433 0.44102 0.54115 0.0
H2967 H 0.18303 0.4559 0.54135 0.0
H2968 H 0.15962 0.40885 0.51359 0.0
H2969 H 0.19082 0.39371 0.51363 0.0
H2970 H 0.15162 0.44383 0.49669 0.0
H2971 H 0.14835 0.41428 0.55673 0.0
H2972 H 0.15971 0.40686 0.58814 0.0
H2973 H 0.15733 0.46382 0.60346 0.0
H2974 H 0.14623 0.47162 0.57203 0.0
H2975 H 0.05523 0.46974 0.49987 0.0
H2976 H 0.08522 0.45317 0.50278 0.0
H2977 H 0.1038 0.49318 0.54301 0.0
H2978 H 0.0733 0.50928 0.54086 0.0
H2979 H 0.11471 0.46161 0.55387 0.0
H2980 H 0.11954 0.49233 0.49528 0.0
H2981 H 0.10971 0.50165 0.46386 0.0
H2982 H 0.11133 0.4455 0.44557 0.0
H2983 H 0.12092 0.43581 0.47697 0.0
C2984 C 0.20248 0.43378 0.53522 0.0
C2985 C 0.20503 0.4162 0.52735 0.0
C2986 C 0.18462 0.44228 0.53539 0.0
C2987 C 0.16904 0.43345 0.52751 0.0
C2988 C 0.17149 0.41586 0.51975 0.0
C2989 C 0.18929 0.40723 0.51984 0.0
C2990 C 0.15036 0.44288 0.52671 0.0
C2991 C 0.14338 0.44749 0.50916 0.0
C2992 C 0.14003 0.44824 0.54303 0.0
C2993 C 0.14665 0.44355 0.56195 0.0
C2994 C 0.15042 0.42525 0.56674 0.0
C2995 C 0.15678 0.42097 0.58456 0.0
C2996 C 0.15929 0.43486 0.59778 0.0
C2997 C 0.15541 0.45307 0.59321 0.0
C2998 C 0.14907 0.45743 0.57539 0.0
C2999 C 0.06571 0.47501 0.50933 0.0
C3000 C 0.06199 0.49091 0.52 0.0
C3001 C 0.08292 0.46558 0.51092 0.0
C3002 C 0.09705 0.47212 0.52279 0.0
C3003 C 0.09321 0.48786 0.5337 0.0
C3004 C 0.0758 0.4971 0.53241 0.0
C3005 C 0.11579 0.46257 0.52376 0.0
C3006 C 0.12286 0.45797 0.54134 0.0
C3007 C 0.12644 0.45755 0.50745 0.0
C3008 C 0.12078 0.46333 0.48852 0.0
C3009 C 0.11768 0.48196 0.48459 0.0
C3010 C 0.11217 0.48731 0.46678 0.0
C3011 C 0.10985 0.47417 0.45275 0.0
C3012 C 0.1131 0.45566 0.45647 0.0
C3013 C 0.11859 0.45023 0.47426 0.0
H3014 H 0.10558 0.47835 0.43897 0.0
H3015 H 0.16421 0.43152 0.61157 0.0
H3016 H 0.83964 0.99144 0.73586 0.0
H3017 H 0.82824 0.96011 0.73777 0.0
H3018 H 0.88585 0.93979 0.73259 0.0
H3019 H 0.8974 0.97137 0.73003 0.0
H3020 H 0.86216 0.91848 0.71351 0.0
H3021 H 0.86407 0.94176 0.77532 0.0
H3022 H 0.85889 0.96392 0.80109 0.0
H3023 H 0.79851 0.9595 0.79529 0.0
H3024 H 0.80332 0.93751 0.76929 0.0
H3025 H 0.82272 0.83257 0.74959 0.0
H3026 H 0.8424 0.86031 0.74862 0.0
H3027 H 0.79315 0.89249 0.7347 0.0
H3028 H 0.77361 0.86482 0.73525 0.0
H3029 H 0.81812 0.90504 0.76671 0.0
H3030 H 0.81834 0.88477 0.70125 0.0
H3031 H 0.82473 0.86197 0.67629 0.0
H3032 H 0.88344 0.85955 0.69124 0.0
H3033 H 0.87731 0.88216 0.7165 0.0
C3034 C 0.8499 0.98032 0.735 0.0
C3035 C 0.86943 0.98382 0.73309 0.0
C3036 C 0.84338 0.96243 0.73617 0.0
C3037 C 0.85626 0.94768 0.73589 0.0
C3038 C 0.87572 0.95103 0.73305 0.0
C3039 C 0.88228 0.96903 0.73159 0.0
C3040 C 0.84914 0.92893 0.739 0.0
C3041 C 0.85286 0.91542 0.72534 0.0
C3042 C 0.83708 0.92491 0.75451 0.0
C3043 C 0.83407 0.93804 0.77027 0.0
C3044 C 0.84968 0.94559 0.77946 0.0
C3045 C 0.84681 0.95811 0.79412 0.0
C3046 C 0.82838 0.96313 0.79981 0.0
C3047 C 0.81278 0.9556 0.79087 0.0
C3048 C 0.81557 0.94308 0.77618 0.0
C3049 C 0.81618 0.84562 0.74642 0.0
C3050 C 0.79674 0.84671 0.74247 0.0
C3051 C 0.82738 0.86134 0.74579 0.0
C3052 C 0.81913 0.87829 0.74155 0.0
C3053 C 0.79967 0.87944 0.73795 0.0
C3054 C 0.78859 0.86372 0.7382 0.0
C3055 C 0.8306 0.89502 0.7409 0.0
C3056 C 0.82774 0.90806 0.7551 0.0
C3057 C 0.84366 0.89846 0.7261 0.0
C3058 C 0.84731 0.88494 0.71091 0.0
C3059 C 0.83256 0.87922 0.69935 0.0
C3060 C 0.83615 0.86637 0.68511 0.0
C3061 C 0.85446 0.85926 0.68222 0.0
C3062 C 0.86925 0.86503 0.69353 0.0
C3063 C 0.86573 0.87786 0.70779 0.0
H3064 H 0.85721 0.84932 0.67119 0.0
H3065 H 0.82619 0.97283 0.81116 0.0
H3066 H 0.70782 0.14535 0.48184 0.0
H3067 H 0.67694 0.1332 0.49179 0.0
H3068 H 0.70107 0.07874 0.49351 0.0
H3069 H 0.73175 0.09066 0.48321 0.0
H3070 H 0.66554 0.07746 0.48207 0.0
H3071 H 0.69927 0.10529 0.5322 0.0
H3072 H 0.71627 0.1302 0.548 0.0
H3073 H 0.66607 0.16392 0.54719 0.0
H3074 H 0.64886 0.13929 0.53107 0.0
H3075 H 0.60853 0.03509 0.55181 0.0
H3076 H 0.63673 0.05129 0.53985 0.0
H3077 H 0.60136 0.09675 0.52376 0.0
H3078 H 0.57316 0.0804 0.53532 0.0
H3079 H 0.64101 0.10397 0.54204 0.0
H3080 H 0.608 0.07362 0.49097 0.0
H3081 H 0.59264 0.04678 0.47696 0.0
H3082 H 0.64408 0.01542 0.48225 0.0
H3083 H 0.65969 0.04213 0.49651 0.0
C3084 C 0.70641 0.13073 0.4839 0.0
C3085 C 0.72225 0.11899 0.48208 0.0
C3086 C 0.68881 0.12384 0.48967 0.0
C3087 C 0.6869 0.10516 0.49381 0.0
C3088 C 0.7023 0.09322 0.49051 0.0
C3089 C 0.71984 0.10007 0.48466 0.0
C3090 C 0.66951 0.09823 0.50316 0.0
C3091 C 0.66022 0.08326 0.49518 0.0
C3092 C 0.66262 0.10578 0.52032 0.0
C3093 C 0.67284 0.12053 0.53023 0.0
C3094 C 0.69189 0.11807 0.53527 0.0
C3095 C 0.70157 0.13213 0.54429 0.0
C3096 C 0.69227 0.14865 0.54856 0.0
C3097 C 0.67326 0.15112 0.54385 0.0
C3098 C 0.66354 0.13712 0.53476 0.0
C3099 C 0.60694 0.04876 0.54624 0.0
C3100 C 0.58885 0.05658 0.5444 0.0
C3101 C 0.62294 0.05792 0.53937 0.0
C3102 C 0.62097 0.07511 0.53092 0.0
C3103 C 0.60307 0.08352 0.53032 0.0
C3104 C 0.58706 0.07421 0.53685 0.0
C3105 C 0.63721 0.08332 0.52089 0.0
C3106 C 0.64626 0.09842 0.5288 0.0
C3107 C 0.64415 0.0757 0.50388 0.0
C3108 C 0.63492 0.05977 0.495 0.0
C3109 C 0.61598 0.06095 0.48929 0.0
C3110 C 0.60724 0.04576 0.48128 0.0
C3111 C 0.61734 0.02934 0.47882 0.0
C3112 C 0.63626 0.02813 0.48422 0.0
C3113 C 0.64506 0.0433 0.49224 0.0
H3114 H 0.61056 0.01753 0.47273 0.0
H3115 H 0.69979 0.15952 0.55555 0.0
H3116 H 0.19508 0.44846 0.78107 0.0
H3117 H 0.20569 0.41724 0.78737 0.0
H3118 H 0.15697 0.40919 0.82386 0.0
H3119 H 0.14608 0.44045 0.81753 0.0
H3120 H 0.19501 0.3917 0.83473 0.0
H3121 H 0.14854 0.39497 0.78626 0.0
H3122 H 0.13472 0.40831 0.75801 0.0
H3123 H 0.18608 0.39609 0.72681 0.0
H3124 H 0.20033 0.38298 0.75498 0.0
H3125 H 0.20602 0.29583 0.78193 0.0
H3126 H 0.18687 0.32235 0.7921 0.0
H3127 H 0.23755 0.34957 0.81025 0.0
H3128 H 0.25664 0.32319 0.80047 0.0
H3129 H 0.19043 0.35471 0.77656 0.0
H3130 H 0.22793 0.38048 0.84379 0.0
H3131 H 0.24176 0.36732 0.8721 0.0
H3132 H 0.20668 0.31977 0.86667 0.0
H3133 H 0.19242 0.33274 0.83848 0.0
C3134 C 0.18686 0.44024 0.7908 0.0
C3135 C 0.1696 0.44674 0.79856 0.0
C3136 C 0.19296 0.42245 0.79441 0.0
C3137 C 0.18196 0.411 0.80591 0.0
C3138 C 0.16559 0.41792 0.81496 0.0
C3139 C 0.15937 0.4357 0.81123 0.0
C3140 C 0.18623 0.39126 0.80614 0.0
C3141 C 0.19391 0.38345 0.82214 0.0
C3142 C 0.18417 0.38055 0.78982 0.0
C3143 C 0.17554 0.38812 0.77276 0.0
C3144 C 0.15693 0.39526 0.77341 0.0
C3145 C 0.14902 0.40276 0.75741 0.0
C3146 C 0.15953 0.40308 0.74064 0.0
C3147 C 0.17796 0.39585 0.73982 0.0
C3148 C 0.18596 0.38836 0.75579 0.0
C3149 C 0.213 0.30734 0.78843 0.0
C3150 C 0.23284 0.30755 0.79021 0.0
C3151 C 0.20206 0.32242 0.79428 0.0
C3152 C 0.21078 0.33783 0.80209 0.0
C3153 C 0.23047 0.33769 0.80463 0.0
C3154 C 0.2414 0.32266 0.79881 0.0
C3155 C 0.20001 0.35508 0.80498 0.0
C3156 C 0.19112 0.36259 0.78943 0.0
C3157 C 0.20084 0.36535 0.82179 0.0
C3158 C 0.20915 0.35758 0.83894 0.0
C3159 C 0.22305 0.36728 0.8487 0.0
C3160 C 0.231 0.35983 0.86471 0.0
C3161 C 0.22512 0.34271 0.87116 0.0
C3162 C 0.21126 0.33301 0.86163 0.0
C3163 C 0.20326 0.3404 0.84561 0.0
H3164 H 0.23131 0.33697 0.88355 0.0
H3165 H 0.15338 0.40889 0.72827 0.0
H3166 H 0.35105 0.5955 0.28991 0.0
H3167 H 0.32648 0.61833 0.2969 0.0
H3168 H 0.28545 0.58543 0.2682 0.0
H3169 H 0.31008 0.56238 0.26119 0.0
H3170 H 0.28993 0.61902 0.25305 0.0
H3171 H 0.27661 0.59623 0.31333 0.0
H3172 H 0.28328 0.58372 0.34441 0.0
H3173 H 0.31173 0.63339 0.35931 0.0
H3174 H 0.30551 0.64613 0.32822 0.0
H3175 H 0.24377 0.70544 0.25717 0.0
H3176 H 0.24721 0.67254 0.26268 0.0
H3177 H 0.29664 0.68282 0.29572 0.0
H3178 H 0.29293 0.71565 0.29079 0.0
H3179 H 0.27661 0.65559 0.31054 0.0
H3180 H 0.30071 0.67174 0.24818 0.0
H3181 H 0.29793 0.68418 0.21641 0.0
H3182 H 0.25229 0.64711 0.20554 0.0
H3183 H 0.25486 0.63443 0.23731 0.0
C3184 C 0.33668 0.59286 0.28556 0.0
C3185 C 0.33252 0.57733 0.27477 0.0
C3186 C 0.32258 0.60584 0.28972 0.0
C3187 C 0.30412 0.60354 0.28311 0.0
C3188 C 0.29959 0.58738 0.27351 0.0
C3189 C 0.31368 0.57426 0.2695 0.0
C3190 C 0.29108 0.6195 0.28311 0.0
C3191 C 0.28638 0.62671 0.26569 0.0
C3192 C 0.28683 0.62967 0.29957 0.0
C3193 C 0.29059 0.62213 0.31838 0.0
C3194 C 0.28439 0.60446 0.32318 0.0
C3195 C 0.28808 0.59733 0.34082 0.0
C3196 C 0.29792 0.60775 0.35382 0.0
C3197 C 0.30408 0.62534 0.34923 0.0
C3198 C 0.30043 0.63254 0.3316 0.0
C3199 C 0.25529 0.70067 0.26571 0.0
C3200 C 0.26829 0.71307 0.27329 0.0
C3201 C 0.25719 0.68189 0.2689 0.0
C3202 C 0.27232 0.67523 0.27942 0.0
C3203 C 0.28481 0.68767 0.28762 0.0
C3204 C 0.28279 0.70642 0.28464 0.0
C3205 C 0.27647 0.65536 0.28046 0.0
C3206 C 0.27945 0.6475 0.29801 0.0
C3207 C 0.2795 0.64464 0.26412 0.0
C3208 C 0.2778 0.65233 0.24514 0.0
C3209 C 0.29 0.66635 0.23904 0.0
C3210 C 0.28848 0.67342 0.22104 0.0
C3211 C 0.27486 0.66652 0.20899 0.0
C3212 C 0.26279 0.65247 0.21491 0.0
C3213 C 0.26429 0.64532 0.23289 0.0
H3214 H 0.27371 0.67197 0.19504 0.0
H3215 H 0.30077 0.6022 0.36747 0.0
H3216 H 0.50458 0.7204 0.59395 0.0
H3217 H 0.50173 0.69095 0.57733 0.0
H3218 H 0.53854 0.66547 0.61705 0.0
H3219 H 0.5413 0.69454 0.63369 0.0
H3220 H 0.54796 0.6562 0.58036 0.0
H3221 H 0.49198 0.65903 0.62061 0.0
H3222 H 0.46217 0.6729 0.63289 0.0
H3223 H 0.43838 0.67044 0.57821 0.0
H3224 H 0.46817 0.65679 0.56555 0.0
H3225 H 0.53132 0.56044 0.56648 0.0
H3226 H 0.534 0.59134 0.57989 0.0
H3227 H 0.49502 0.61196 0.53929 0.0
H3228 H 0.49263 0.58125 0.52559 0.0
H3229 H 0.48614 0.62473 0.57455 0.0
H3230 H 0.53976 0.62225 0.53372 0.0
H3231 H 0.57029 0.61424 0.51816 0.0
H3232 H 0.59865 0.61887 0.57043 0.0
H3233 H 0.56823 0.62667 0.58639 0.0
C3234 C 0.51217 0.70855 0.59903 0.0
C3235 C 0.52314 0.70987 0.61519 0.0
C3236 C 0.51043 0.69169 0.5896 0.0
C3237 C 0.5198 0.67592 0.59603 0.0
C3238 C 0.53113 0.67739 0.61183 0.0
C3239 C 0.53266 0.69407 0.62136 0.0
C3240 C 0.51798 0.6578 0.58646 0.0
C3241 C 0.53449 0.64916 0.57934 0.0
C3242 C 0.5003 0.64894 0.58448 0.0
C3243 C 0.48238 0.65709 0.59209 0.0
C3244 C 0.48045 0.6616 0.61117 0.0
C3245 C 0.46355 0.66939 0.61821 0.0
C3246 C 0.44841 0.6726 0.60633 0.0
C3247 C 0.45013 0.66797 0.58739 0.0
C3248 C 0.46702 0.6602 0.58028 0.0
C3249 C 0.52318 0.57152 0.56053 0.0
C3250 C 0.51164 0.56832 0.54505 0.0
C3251 C 0.52487 0.58923 0.56809 0.0
C3252 C 0.5148 0.60406 0.56054 0.0
C3253 C 0.50296 0.60079 0.54536 0.0
C3254 C 0.50157 0.5832 0.53756 0.0
C3255 C 0.51626 0.62288 0.56873 0.0
C3256 C 0.49966 0.63166 0.57561 0.0
C3257 C 0.53387 0.632 0.57028 0.0
C3258 C 0.55165 0.62491 0.56129 0.0
C3259 C 0.55241 0.62119 0.54199 0.0
C3260 C 0.56974 0.61688 0.53305 0.0
C3261 C 0.58643 0.61635 0.54326 0.0
C3262 C 0.58574 0.61954 0.56252 0.0
C3263 C 0.56845 0.62383 0.57152 0.0
H3264 H 0.59987 0.61327 0.53627 0.0
H3265 H 0.43533 0.67863 0.6118 0.0
H3266 H 0.60321 0.25713 0.90019 0.0
H3267 H 0.63315 0.2611 0.88253 0.0
H3268 H 0.61794 0.21687 0.84559 0.0
H3269 H 0.58786 0.21331 0.86276 0.0
H3270 H 0.66492 0.24146 0.86775 0.0
H3271 H 0.61901 0.23293 0.80252 0.0
H3272 H 0.58531 0.2355 0.794 0.0
H3273 H 0.57563 0.2751 0.83784 0.0
H3274 H 0.60927 0.27283 0.84656 0.0
H3275 H 0.72444 0.23566 0.78969 0.0
H3276 H 0.69706 0.22945 0.8102 0.0
H3277 H 0.67532 0.28391 0.80028 0.0
H3278 H 0.70271 0.28998 0.77932 0.0
H3279 H 0.64706 0.25844 0.80331 0.0
H3280 H 0.70188 0.27631 0.83551 0.0
H3281 H 0.73532 0.27581 0.84462 0.0
H3282 H 0.7279 0.2223 0.86813 0.0
H3283 H 0.6944 0.22234 0.85876 0.0
C3284 C 0.6067 0.24777 0.8888 0.0
C3285 C 0.59332 0.23508 0.88257 0.0
C3286 C 0.62374 0.25007 0.87872 0.0
C3287 C 0.6274 0.23956 0.86255 0.0
C3288 C 0.61512 0.22528 0.85788 0.0
C3289 C 0.59803 0.22322 0.86769 0.0
C3290 C 0.64197 0.24538 0.84881 0.0
C3291 C 0.66113 0.24513 0.85365 0.0
C3292 C 0.63677 0.25083 0.83066 0.0
C3293 C 0.61661 0.2526 0.82526 0.0
C3294 C 0.60969 0.24224 0.81028 0.0
C3295 C 0.5906 0.2436 0.80546 0.0
C3296 C 0.57831 0.25538 0.81544 0.0
C3297 C 0.58512 0.26588 0.83022 0.0
C3298 C 0.60419 0.26455 0.83512 0.0
C3299 C 0.71345 0.24604 0.79148 0.0
C3300 C 0.71536 0.2632 0.78305 0.0
C3301 C 0.69797 0.24255 0.80323 0.0
C3302 C 0.6845 0.25637 0.807 0.0
C3303 C 0.68568 0.27314 0.79752 0.0
C3304 C 0.70117 0.27657 0.78556 0.0
C3305 C 0.67014 0.25372 0.82195 0.0
C3306 C 0.65096 0.25476 0.81738 0.0
C3307 C 0.67539 0.24937 0.84043 0.0
C3308 C 0.69558 0.24929 0.84624 0.0
C3309 C 0.70741 0.26432 0.84236 0.0
C3310 C 0.7264 0.26414 0.84764 0.0
C3311 C 0.73378 0.249 0.85691 0.0
C3312 C 0.72215 0.23403 0.86095 0.0
C3313 C 0.70314 0.23415 0.85567 0.0
H3314 H 0.74848 0.24885 0.86099 0.0
H3315 H 0.56353 0.25642 0.8117 0.0
H3316 H 0.03435 0.31618 0.07966 0.0
H3317 H 0.03307 0.34634 0.0647 0.0
H3318 H 0.99258 0.36503 0.10676 0.0
H3319 H 0.994 0.33511 0.12192 0.0
H3320 H 0.9832 0.37558 0.06978 0.0
H3321 H 0.03663 0.37701 0.11112 0.0
H3322 H 0.067 0.36571 0.12333 0.0
H3323 H 0.09367 0.37253 0.06933 0.0
H3324 H 0.06337 0.38364 0.05674 0.0
H3325 H 0.98576 0.47132 0.05374 0.0
H3326 H 0.98614 0.44067 0.06752 0.0
H3327 H 0.03801 0.42801 0.03659 0.0
H3328 H 0.03835 0.45923 0.02417 0.0
H3329 H 0.04145 0.4134 0.06726 0.0
H3330 H 0.98924 0.41224 0.02516 0.0
H3331 H 0.95922 0.42321 0.01192 0.0
H3332 H 0.93041 0.41472 0.0646 0.0
H3333 H 0.96034 0.40396 0.07824 0.0
C3334 C 0.02505 0.32666 0.08562 0.0
C3335 C 0.01432 0.32322 0.10203 0.0
C3336 C 0.02438 0.34392 0.07709 0.0
C3337 C 0.0128 0.35803 0.08465 0.0
C3338 C 0.00161 0.35441 0.10065 0.0
C3339 C 0.00249 0.33728 0.10934 0.0
C3340 C 0.01282 0.37676 0.07636 0.0
C3341 C -0.00412 0.38393 0.06932 0.0
C3342 C 0.02945 0.38752 0.07535 0.0
C3343 C 0.04769 0.38097 0.08294 0.0
C3344 C 0.04894 0.37596 0.10181 0.0
C3345 C 0.06614 0.36961 0.10881 0.0
C3346 C 0.08224 0.36835 0.0971 0.0
C3347 C 0.08118 0.37349 0.07838 0.0
C3348 C 0.064 0.37982 0.07131 0.0
C3349 C -0.00276 0.46194 0.05001 0.0
C3350 C 0.012 0.46753 0.03791 0.0
C3351 C -0.00262 0.44431 0.05771 0.0
C3352 C 0.01184 0.43158 0.05279 0.0
C3353 C 0.02664 0.43737 0.04069 0.0
C3354 C 0.02682 0.4552 0.03351 0.0
C3355 C 0.01177 0.41242 0.06039 0.0
C3356 C 0.02872 0.40511 0.06743 0.0
C3357 C -0.00482 0.40141 0.06108 0.0
C3358 C 0.97707 0.40745 0.05276 0.0
C3359 C 0.97652 0.41278 0.03394 0.0
C3360 C 0.95951 0.41896 0.02636 0.0
C3361 C 0.94292 0.4197 0.03743 0.0
C3362 C 0.94328 0.41416 0.05606 0.0
C3363 C 0.96025 0.408 0.06371 0.0
H3364 H 0.92978 0.42456 0.03158 0.0
H3365 H 0.09555 0.36344 0.10254 0.0
H3366 H 0.98611 0.74452 0.36497 0.0
H3367 H 0.95801 0.7467 0.34586 0.0
H3368 H 0.99091 0.77325 0.30242 0.0
H3369 H 0.01918 0.77138 0.32161 0.0
H3370 H 0.95879 0.79172 0.31083 0.0
H3371 H 0.97507 0.72978 0.29594 0.0
H3372 H 0.98421 0.69779 0.30228 0.0
H3373 H 0.93213 0.69006 0.33347 0.0
H3374 H 0.92279 0.72209 0.32756 0.0
H3375 H 0.87562 0.79569 0.25699 0.0
H3376 H 0.90809 0.78773 0.26561 0.0
H3377 H 0.88625 0.75833 0.31349 0.0
H3378 H 0.85384 0.76604 0.30477 0.0
H3379 H 0.9154 0.7402 0.29743 0.0
H3380 H 0.90197 0.80272 0.31712 0.0
H3381 H 0.89267 0.83495 0.3123 0.0
H3382 H 0.9394 0.84158 0.27343 0.0
H3383 H 0.94883 0.80929 0.27786 0.0
C3384 C 0.98746 0.75069 0.35129 0.0
C3385 C 0.00487 0.75786 0.34484 0.0
C3386 C 0.9714 0.75179 0.34032 0.0
C3387 C 0.97246 0.75992 0.32264 0.0
C3388 C 0.98986 0.76683 0.316 0.0
C3389 C 0.00597 0.76576 0.32699 0.0
C3390 C 0.955 0.76247 0.31185 0.0
C3391 C 0.94951 0.78041 0.30748 0.0
C3392 C 0.94276 0.74772 0.30787 0.0
C3393 C 0.94828 0.72839 0.31138 0.0
C3394 C 0.96562 0.7213 0.30426 0.0
C3395 C 0.97083 0.70315 0.30776 0.0
C3396 C 0.95877 0.69191 0.31829 0.0
C3397 C 0.94146 0.69879 0.32531 0.0
C3398 C 0.93618 0.71693 0.32186 0.0
C3399 C 0.8778 0.7875 0.26932 0.0
C3400 C 0.86227 0.78162 0.28033 0.0
C3401 C 0.8963 0.78292 0.27419 0.0
C3402 C 0.89955 0.77266 0.29033 0.0
C3403 C 0.88404 0.76623 0.30096 0.0
C3404 C 0.86554 0.77065 0.29598 0.0
C3405 C 0.91906 0.76947 0.29685 0.0
C3406 C 0.9249 0.75144 0.30043 0.0
C3407 C 0.93159 0.78414 0.30026 0.0
C3408 C 0.92596 0.80355 0.29765 0.0
C3409 C 0.91017 0.81102 0.30744 0.0
C3410 C 0.90489 0.8293 0.3048 0.0
C3411 C 0.9154 0.84029 0.29252 0.0
C3412 C 0.93125 0.83304 0.2829 0.0
C3413 C 0.93657 0.81475 0.28548 0.0
H3414 H 0.91129 0.85444 0.29049 0.0
H3415 H 0.96283 0.67786 0.32099 0.0
H3416 H 0.51148 0.2898 0.93872 0.0
H3417 H 0.50385 0.3163 0.9586 0.0
H3418 H 0.54867 0.34694 0.93151 0.0
H3419 H 0.55645 0.32053 0.91155 0.0
H3420 H 0.54757 0.3515 0.97007 0.0
H3421 H 0.50508 0.35395 0.91847 0.0
H3422 H 0.48105 0.34191 0.89714 0.0
H3423 H 0.44208 0.33464 0.94342 0.0
H3424 H 0.466 0.34641 0.96508 0.0
H3425 H 0.52217 0.44356 0.98567 0.0
H3426 H 0.5302 0.41333 0.97329 0.0
H3427 H 0.48135 0.39072 0.00211 0.0
H3428 H 0.47339 0.42122 0.01491 0.0
H3429 H 0.4836 0.38 0.96592 0.0
H3430 H 0.52619 0.38041 0.01728 0.0
H3431 H 0.55107 0.39199 0.03794 0.0
H3432 H 0.59026 0.39479 0.99128 0.0
H3433 H 0.56562 0.38324 0.97033 0.0
C3434 C 0.51983 0.30211 0.93708 0.0
C3435 C 0.5345 0.30311 0.92347 0.0
C3436 C 0.51541 0.31724 0.94841 0.0
C3437 C 0.5256 0.33356 0.94636 0.0
C3438 C 0.54065 0.33442 0.93326 0.0
C3439 C 0.54501 0.31935 0.92183 0.0
C3440 C 0.52016 0.34999 0.95742 0.0
C3441 C 0.53364 0.35784 0.96911 0.0
C3442 C 0.50183 0.35791 0.95641 0.0
C3443 C 0.48741 0.35085 0.94342 0.0
C3444 C 0.49145 0.34962 0.92412 0.0
C3445 C 0.47784 0.34288 0.91196 0.0
C3446 C 0.46007 0.33745 0.91892 0.0
C3447 C 0.45586 0.33881 0.93805 0.0
C3448 C 0.46944 0.34553 0.95028 0.0
C3449 C 0.51338 0.43211 0.98976 0.0
C3450 C 0.49733 0.43468 0.00153 0.0
C3451 C 0.51797 0.41482 0.98263 0.0
C3452 C 0.50659 0.39972 0.98709 0.0
C3453 C 0.4904 0.40221 -0.00134 0.0
C3454 C 0.48581 0.41959 0.00587 0.0
C3455 C 0.51107 0.38167 0.97853 0.0
C3456 C 0.49743 0.37353 0.96718 0.0
C3457 C 0.52932 0.37356 0.97976 0.0
C3458 C 0.54402 0.381 0.99223 0.0
C3459 C 0.54007 0.3836 0.0114 0.0
C3460 C 0.55417 0.39006 0.02318 0.0
C3461 C 0.57226 0.39402 0.01594 0.0
C3462 C 0.57627 0.39162 -0.00311 0.0
C3463 C 0.56226 0.38506 0.98507 0.0
H3464 H 0.58316 0.39901 0.02508 0.0
H3465 H 0.44954 0.33225 0.90949 0.0
H3466 H 0.95184 0.26596 0.14862 0.0
H3467 H 0.91913 0.26883 0.16083 0.0
H3468 H 0.94036 0.27871 0.21613 0.0
H3469 H 0.9728 0.27467 0.20416 0.0
H3470 H 0.91426 0.25641 0.2198 0.0
H3471 H 0.91847 0.31301 0.18681 0.0
H3472 H 0.92442 0.33341 0.16002 0.0
H3473 H 0.88066 0.30656 0.12946 0.0
H3474 H 0.87461 0.28583 0.15598 0.0
H3475 H 0.82508 0.29398 0.25696 0.0
H3476 H 0.85618 0.29602 0.241 0.0
H3477 H 0.84079 0.25221 0.20376 0.0
H3478 H 0.80991 0.24966 0.21994 0.0
H3479 H 0.8628 0.2926 0.191 0.0
H3480 H 0.86397 0.23296 0.22528 0.0
H3481 H 0.85771 0.2157 0.25428 0.0
H3482 H 0.89203 0.25343 0.28482 0.0
H3483 H 0.89824 0.27105 0.256 0.0
C3484 C 0.94944 0.26893 0.16333 0.0
C3485 C 0.96481 0.27001 0.17547 0.0
C3486 C 0.93075 0.27068 0.17032 0.0
C3487 C 0.92714 0.27415 0.18946 0.0
C3488 C 0.94263 0.27589 0.20137 0.0
C3489 C 0.96121 0.27364 0.19451 0.0
C3490 C 0.90736 0.27488 0.19741 0.0
C3491 C 0.90318 0.26453 0.21348 0.0
C3492 C 0.89262 0.28531 0.18929 0.0
C3493 C 0.89622 0.29774 0.17331 0.0
C3494 C 0.91022 0.31136 0.17432 0.0
C3495 C 0.91359 0.323 0.15919 0.0
C3496 C 0.90296 0.32124 0.14303 0.0
C3497 C 0.8889 0.30788 0.14197 0.0
C3498 C 0.88548 0.29619 0.15706 0.0
C3499 C 0.82827 0.28486 0.2453 0.0
C3500 C 0.81516 0.27149 0.23986 0.0
C3501 C 0.84598 0.28611 0.23617 0.0
C3502 C 0.85068 0.27426 0.22126 0.0
C3503 C 0.83734 0.26147 0.21524 0.0
C3504 C 0.81979 0.25996 0.22459 0.0
C3505 C 0.87011 0.27414 0.21302 0.0
C3506 C 0.8741 0.28458 0.19708 0.0
C3507 C 0.88483 0.26414 0.22139 0.0
C3508 C 0.88139 0.25339 0.23858 0.0
C3509 C 0.87004 0.23764 0.23822 0.0
C3510 C 0.86653 0.22779 0.2546 0.0
C3511 C 0.87442 0.2335 0.27139 0.0
C3512 C 0.8859 0.24904 0.27181 0.0
C3513 C 0.88942 0.25896 0.25546 0.0
H3514 H 0.87169 0.22585 0.28406 0.0
H3515 H 0.9056 0.33027 0.13133 0.0
H3516 H 0.00301 0.68732 0.41009 0.0
H3517 H 0.00131 0.65855 0.42707 0.0
H3518 H 0.02024 0.68586 0.47689 0.0
H3519 H 0.02202 0.71476 0.45995 0.0
H3520 H 0.04443 0.65912 0.4652 0.0
H3521 H 0.97834 0.66407 0.47848 0.0
H3522 H 0.94421 0.66912 0.47329 0.0
H3523 H 0.94419 0.62469 0.4337 0.0
H3524 H 0.97839 0.6195 0.43847 0.0
H3525 H 0.04168 0.57495 0.51675 0.0
H3526 H 0.04011 0.60607 0.50462 0.0
H3527 H 0.02261 0.58501 0.45129 0.0
H3528 H 0.02408 0.55381 0.46328 0.0
H3529 H -0.0032 0.60943 0.46785 0.0
H3530 H 0.06389 0.60588 0.45407 0.0
H3531 H 0.09758 0.60035 0.46102 0.0
H3532 H 0.09517 0.64249 0.50315 0.0
H3533 H 0.06136 0.64811 0.49663 0.0
C3534 C 0.00616 0.68734 0.42483 0.0
C3535 C 0.01305 0.70316 0.4336 0.0
C3536 C 0.00509 0.6709 0.43456 0.0
C3537 C 0.01085 0.67009 0.45316 0.0
C3538 C 0.01583 0.68625 0.46249 0.0
C3539 C 0.0168 0.70275 0.4528 0.0
C3540 C 0.01501 0.65211 0.46148 0.0
C3541 C 0.0339 0.64836 0.46621 0.0
C3542 C 0.0014 0.638 0.46222 0.0
C3543 C 0.98099 0.64151 0.45871 0.0
C3544 C 0.97113 0.65554 0.46847 0.0
C3545 C 0.95174 0.65838 0.46566 0.0
C3546 C 0.94205 0.64727 0.45314 0.0
C3547 C 0.95172 0.63331 0.44337 0.0
C3548 C 0.97111 0.6304 0.44613 0.0
C3549 C 0.03811 0.57689 0.50224 0.0
C3550 C 0.03274 0.56199 0.49103 0.0
C3551 C 0.03721 0.59467 0.49535 0.0
C3552 C 0.03101 0.59775 0.47717 0.0
C3553 C 0.02728 0.58281 0.46543 0.0
C3554 C 0.02829 0.56501 0.47226 0.0
C3555 C 0.02621 0.61646 0.47122 0.0
C3556 C 0.00723 0.62029 0.46698 0.0
C3557 C 0.03971 0.63066 0.47103 0.0
C3558 C 0.06003 0.62727 0.475 0.0
C3559 C 0.07049 0.61385 0.46494 0.0
C3560 C 0.08962 0.61073 0.46877 0.0
C3561 C 0.0985 0.62103 0.48255 0.0
C3562 C 0.08827 0.63451 0.4925 0.0
C3563 C 0.06912 0.63767 0.48873 0.0
H3564 H 0.11332 0.6186 0.48549 0.0
H3565 H 0.92702 0.64945 0.45104 0.0
H3566 H 0.59513 0.77294 0.6429 0.0
H3567 H 0.62365 0.77134 0.66186 0.0
H3568 H 0.58879 0.77508 0.71206 0.0
H3569 H 0.56035 0.77703 0.69323 0.0
H3570 H 0.61847 0.79595 0.71568 0.0
H3571 H 0.60852 0.73387 0.69706 0.0
H3572 H 0.60329 0.70846 0.67492 0.0
H3573 H 0.65695 0.71927 0.64772 0.0
H3574 H 0.66244 0.74487 0.66958 0.0
H3575 H 0.70469 0.74249 0.7584 0.0
H3576 H 0.67397 0.74292 0.74288 0.0
H3577 H 0.68502 0.79773 0.72348 0.0
H3578 H 0.71544 0.79752 0.7391 0.0
H3579 H 0.66573 0.74574 0.70679 0.0
H3580 H 0.64411 0.82171 0.72051 0.0
H3581 H 0.64755 0.84534 0.74497 0.0
H3582 H 0.65383 0.8035 0.78631 0.0
H3583 H 0.65017 0.77963 0.76215 0.0
C3584 C 0.59356 0.77347 0.65797 0.0
C3585 C 0.57545 0.77507 0.66653 0.0
C3586 C 0.60987 0.77246 0.66882 0.0
C3587 C 0.60841 0.77285 0.68845 0.0
C3588 C 0.59034 0.77473 0.69697 0.0
C3589 C 0.57406 0.77581 0.68616 0.0
C3590 C 0.62564 0.77141 0.70013 0.0
C3591 C 0.6288 0.78497 0.7137 0.0
C3592 C 0.63895 0.75686 0.69794 0.0
C3593 C 0.63581 0.74139 0.68486 0.0
C3594 C 0.61916 0.73089 0.68628 0.0
C3595 C 0.61616 0.71644 0.6738 0.0
C3596 C 0.62977 0.71227 0.6599 0.0
C3597 C 0.64644 0.72251 0.65849 0.0
C3598 C 0.64951 0.73698 0.67094 0.0
C3599 C 0.70045 0.75472 0.75104 0.0
C3600 C 0.71251 0.77 0.7501 0.0
C3601 C 0.68294 0.7549 0.74207 0.0
C3602 C 0.67707 0.7704 0.73209 0.0
C3603 C 0.68903 0.78571 0.73131 0.0
C3604 C 0.70649 0.78554 0.74025 0.0
C3605 C 0.65874 0.77051 0.72204 0.0
C3606 C 0.65539 0.75671 0.70877 0.0
C3607 C 0.64503 0.78461 0.7248 0.0
C3608 C 0.64704 0.79889 0.73947 0.0
C3609 C 0.64615 0.81755 0.73483 0.0
C3610 C 0.64815 0.83099 0.74864 0.0
C3611 C 0.65097 0.82593 0.76717 0.0
C3612 C 0.65173 0.80741 0.77194 0.0
C3613 C 0.64971 0.79392 0.75819 0.0
H3614 H 0.65253 0.83635 0.77784 0.0
H3615 H 0.62743 0.70109 0.65024 0.0
H3616 H 0.60279 0.46677 0.72953 0.0
H3617 H 0.59378 0.46327 0.69699 0.0
H3618 H 0.64829 0.48408 0.67881 0.0
H3619 H 0.65751 0.48751 0.71142 0.0
H3620 H 0.61767 0.50355 0.66552 0.0
H3621 H 0.63832 0.44174 0.66703 0.0
H3622 H 0.64182 0.41062 0.67971 0.0
H3623 H 0.58157 0.4027 0.67684 0.0
H3624 H 0.57764 0.43388 0.6644 0.0
H3625 H 0.57478 0.50005 0.57556 0.0
H3626 H 0.59806 0.49541 0.60004 0.0
H3627 H 0.55535 0.46858 0.63405 0.0
H3628 H 0.53214 0.47317 0.60974 0.0
H3629 H 0.58833 0.45012 0.63453 0.0
H3630 H 0.56711 0.51328 0.64004 0.0
H3631 H 0.56252 0.54529 0.63022 0.0
H3632 H 0.62281 0.5513 0.62257 0.0
H3633 H 0.62772 0.51915 0.63181 0.0
C3634 C 0.613 0.47025 0.7186 0.0
C3635 C 0.63075 0.47761 0.72296 0.0
C3636 C 0.6079 0.4681 0.70003 0.0
C3637 C 0.62043 0.47333 0.68556 0.0
C3638 C 0.63851 0.47988 0.68984 0.0
C3639 C 0.64371 0.48185 0.70844 0.0
C3640 C 0.61343 0.47437 0.66634 0.0
C3641 C 0.61175 0.4918 0.6584 0.0
C3642 C 0.60543 0.45905 0.6574 0.0
C3643 C 0.60769 0.44022 0.66483 0.0
C3644 C 0.62579 0.43343 0.66922 0.0
C3645 C 0.62786 0.41576 0.67635 0.0
C3646 C 0.61193 0.4047 0.67909 0.0
C3647 C 0.5939 0.41128 0.67469 0.0
C3648 C 0.59175 0.42894 0.66756 0.0
C3649 C 0.57036 0.49329 0.58832 0.0
C3650 C 0.55163 0.487 0.59078 0.0
C3651 C 0.58368 0.49055 0.60222 0.0
C3652 C 0.5784 0.48165 0.61883 0.0
C3653 C 0.55976 0.4753 0.62124 0.0
C3654 C 0.5465 0.47796 0.60736 0.0
C3655 C 0.59189 0.47942 0.63416 0.0
C3656 C 0.59479 0.46178 0.64133 0.0
C3657 C 0.60082 0.4946 0.64256 0.0
C3658 C 0.59776 0.51371 0.6363 0.0
C3659 C 0.57936 0.52133 0.63595 0.0
C3660 C 0.5767 0.53951 0.63052 0.0
C3661 C 0.59235 0.5503 0.62569 0.0
C3662 C 0.61069 0.5429 0.6262 0.0
C3663 C 0.61341 0.52469 0.63147 0.0
H3664 H 0.59028 0.56442 0.62165 0.0
H3665 H 0.61356 0.39102 0.68462 0.0
H3666 H 0.74071 0.3455 0.99417 0.0
H3667 H 0.74765 0.32604 0.96701 0.0
H3668 H 0.72978 0.36945 0.93057 0.0
H3669 H 0.72235 0.3889 0.95773 0.0
H3670 H 0.71761 0.33713 0.91843 0.0
H3671 H 0.77697 0.36154 0.93888 0.0
H3672 H 0.80198 0.36809 0.96153 0.0
H3673 H 0.81062 0.31043 0.96975 0.0
H3674 H 0.78547 0.30355 0.94732 0.0
H3675 H 0.76602 0.31252 0.83481 0.0
H3676 H 0.75426 0.32712 0.86349 0.0
H3677 H 0.77131 0.27978 0.89494 0.0
H3678 H 0.7829 0.26487 0.86597 0.0
H3679 H 0.78295 0.31189 0.91049 0.0
H3680 H 0.72008 0.28815 0.89437 0.0
H3681 H 0.69267 0.28204 0.8744 0.0
H3682 H 0.69178 0.33835 0.85744 0.0
H3683 H 0.71859 0.34497 0.87809 0.0
C3684 C 0.7381 0.35087 0.98038 0.0
C3685 C 0.73114 0.3688 0.97807 0.0
C3686 C 0.74215 0.33975 0.96488 0.0
C3687 C 0.73961 0.34645 0.94679 0.0
C3688 C 0.73193 0.36407 0.94444 0.0
C3689 C 0.7277 0.37515 0.95996 0.0
C3690 C 0.74542 0.33529 0.9303 0.0
C3691 C 0.73196 0.33177 0.91662 0.0
C3692 C 0.76401 0.32793 0.92816 0.0
C3693 C 0.77921 0.33204 0.94157 0.0
C3694 C 0.78411 0.35026 0.94562 0.0
C3695 C 0.79832 0.35403 0.9584 0.0
C3696 C 0.80785 0.33969 0.96711 0.0
C3697 C 0.80321 0.32153 0.96301 0.0
C3698 C 0.78899 0.31769 0.95026 0.0
C3699 C 0.76701 0.30508 0.84778 0.0
C3700 C 0.77512 0.28744 0.84813 0.0
C3701 C 0.76022 0.31342 0.86415 0.0
C3702 C 0.76149 0.30434 0.88126 0.0
C3703 C 0.77002 0.2869 0.8818 0.0
C3704 C 0.77679 0.27849 0.86533 0.0
C3705 C 0.75515 0.31378 0.89864 0.0
C3706 C 0.76857 0.31709 0.91244 0.0
C3707 C 0.73658 0.32105 0.90088 0.0
C3708 C 0.72141 0.31698 0.88755 0.0
C3709 C 0.71412 0.29917 0.88624 0.0
C3710 C 0.69862 0.29566 0.87492 0.0
C3711 C 0.69066 0.30973 0.86443 0.0
C3712 C 0.69799 0.32745 0.86552 0.0
C3713 C 0.71322 0.33112 0.87715 0.0
H3714 H 0.67877 0.30692 0.85554 0.0
H3715 H 0.81885 0.34263 0.977 0.0
H3716 H 0.93077 0.55638 0.19225 0.0
H3717 H 0.93953 0.56236 0.15991 0.0
H3718 H 0.88112 0.55585 0.14407 0.0
H3719 H 0.87222 0.54947 0.17669 0.0
H3720 H 0.904 0.53521 0.12303 0.0
H3721 H 0.90253 0.59773 0.13885 0.0
H3722 H 0.90751 0.62562 0.15766 0.0
H3723 H 0.96793 0.6184 0.15201 0.0
H3724 H 0.96336 0.59031 0.13341 0.0
H3725 H 0.95267 0.53798 0.03568 0.0
H3726 H 0.93039 0.54982 0.05948 0.0
H3727 H 0.97592 0.55347 0.09871 0.0
H3728 H -0.00157 0.54203 0.07485 0.0
H3729 H 0.95017 0.58238 0.10226 0.0
H3730 H 0.94908 0.51486 0.09625 0.0
H3731 H 0.94464 0.48699 0.07716 0.0
H3732 H 0.88824 0.50483 0.06407 0.0
H3733 H 0.89246 0.5329 0.08298 0.0
C3734 C 0.91971 0.55645 0.18197 0.0
C3735 C 0.90085 0.55228 0.18694 0.0
C3736 C 0.9247 0.5601 0.16349 0.0
C3737 C 0.91091 0.55986 0.14963 0.0
C3738 C 0.89192 0.55626 0.15461 0.0
C3739 C 0.88689 0.55257 0.1732 0.0
C3740 C 0.91712 0.56098 0.12984 0.0
C3741 C 0.91357 0.54587 0.11824 0.0
C3742 C 0.92964 0.57486 0.1236 0.0
C3743 C 0.93257 0.59186 0.1347 0.0
C3744 C 0.91689 0.60203 0.14169 0.0
C3745 C 0.91964 0.61789 0.15232 0.0
C3746 C 0.93802 0.62378 0.15602 0.0
C3747 C 0.9537 0.61384 0.14909 0.0
C3748 C 0.95103 0.59796 0.13846 0.0
C3749 C 0.95799 0.54149 0.04933 0.0
C3750 C 0.97723 0.53879 0.05357 0.0
C3751 C 0.94526 0.54834 0.06283 0.0
C3752 C 0.95152 0.55232 0.08083 0.0
C3753 C 0.97087 0.55052 0.08483 0.0
C3754 C 0.98367 0.54382 0.07127 0.0
C3755 C 0.93781 0.55619 0.09621 0.0
C3756 C 0.93996 0.5722 0.10684 0.0
C3757 C 0.92394 0.5432 0.10156 0.0
C3758 C 0.92113 0.526 0.09087 0.0
C3759 C 0.93575 0.51282 0.08929 0.0
C3760 C 0.93328 0.49701 0.0785 0.0
C3761 C 0.91618 0.49416 0.06938 0.0
C3762 C 0.90148 0.50706 0.07113 0.0
C3763 C 0.90389 0.52291 0.0819 0.0
H3764 H 0.91432 0.48195 0.06097 0.0
H3765 H 0.94012 0.63606 0.16427 0.0
H3766 H 0.79074 0.66372 0.45455 0.0
H3767 H 0.79424 0.68109 0.42545 0.0
H3768 H 0.74667 0.71536 0.44213 0.0
H3769 H 0.74342 0.69843 0.47152 0.0
H3770 H 0.74719 0.69649 0.40328 0.0
H3771 H 0.78343 0.73534 0.44477 0.0
H3772 H 0.80874 0.74098 0.46734 0.0
H3773 H 0.85068 0.7218 0.42725 0.0
H3774 H 0.82556 0.71578 0.40453 0.0
H3775 H 0.74591 0.76131 0.33224 0.0
H3776 H 0.74582 0.7466 0.36271 0.0
H3777 H 0.8049 0.7318 0.3544 0.0
H3778 H 0.80527 0.74759 0.32419 0.0
H3779 H 0.79977 0.73948 0.38899 0.0
H3780 H 0.76681 0.70061 0.34749 0.0
H3781 H 0.7434 0.69207 0.32389 0.0
H3782 H 0.69779 0.70673 0.36201 0.0
H3783 H 0.72094 0.7156 0.38577 0.0
C3784 C 0.78111 0.67505 0.45208 0.0
C3785 C 0.7668 0.67972 0.46532 0.0
C3786 C 0.78316 0.68496 0.43548 0.0
C3787 C 0.77072 0.69949 0.43168 0.0
C3788 C 0.75642 0.7042 0.44485 0.0
C3789 C 0.75462 0.69455 0.46163 0.0
C3790 C 0.77224 0.70938 0.41368 0.0
C3791 C 0.75851 0.7061 0.4002 0.0
C3792 C 0.78751 0.72123 0.40942 0.0
C3793 C 0.8026 0.72492 0.42304 0.0
C3794 C 0.79803 0.73215 0.44084 0.0
C3795 C 0.81235 0.73545 0.45364 0.0
C3796 C 0.8313 0.7317 0.44876 0.0
C3797 C 0.83599 0.72467 0.43103 0.0
C3798 C 0.82172 0.72133 0.41818 0.0
C3799 C 0.75893 0.75505 0.33698 0.0
C3800 C 0.77556 0.75545 0.32579 0.0
C3801 C 0.75884 0.7465 0.35436 0.0
C3802 C 0.77519 0.73752 0.36071 0.0
C3803 C 0.79204 0.73848 0.34982 0.0
C3804 C 0.79226 0.74749 0.33256 0.0
C3805 C 0.77444 0.72693 0.3785 0.0
C3806 C 0.78838 0.72992 0.39194 0.0
C3807 C 0.75962 0.71437 0.38255 0.0
C3808 C 0.74562 0.70892 0.36835 0.0
C3809 C 0.75179 0.70212 0.3508 0.0
C3810 C 0.73857 0.69721 0.3374 0.0
C3811 C 0.71913 0.69889 0.34143 0.0
C3812 C 0.71286 0.70545 0.3589 0.0
C3813 C 0.72602 0.7104 0.37235 0.0
H3814 H 0.70891 0.69509 0.33103 0.0
H3815 H 0.84237 0.73427 0.45868 0.0
H3816 H 0.62124 0.51324 0.83622 0.0
H3817 H 0.60854 0.5121 0.86806 0.0
H3818 H 0.55163 0.50833 0.84722 0.0
H3819 H 0.56433 0.5099 0.81499 0.0
H3820 H 0.55356 0.52997 0.87899 0.0
H3821 H 0.5731 0.47002 0.85951 0.0
H3822 H 0.59497 0.44718 0.84515 0.0
H3823 H 0.63612 0.45846 0.88703 0.0
H3824 H 0.61461 0.48157 0.90148 0.0
H3825 H 0.53603 0.47876 0.97071 0.0
H3826 H 0.54616 0.47694 0.93783 0.0
H3827 H 0.57225 0.53003 0.94238 0.0
H3828 H 0.56221 0.53205 0.97514 0.0
H3829 H 0.58059 0.48005 0.91734 0.0
H3830 H 0.55621 0.55516 0.90557 0.0
H3831 H 0.53355 0.57733 0.91991 0.0
H3832 H 0.49882 0.53315 0.93988 0.0
H3833 H 0.52103 0.51074 0.92532 0.0
C3834 C 0.60599 0.51235 0.83838 0.0
C3835 C 0.59376 0.51134 0.82318 0.0
C3836 C 0.59877 0.51169 0.85657 0.0
C3837 C 0.57923 0.50965 0.8599 0.0
C3838 C 0.56679 0.50974 0.84484 0.0
C3839 C 0.57403 0.51064 0.8265 0.0
C3840 C 0.5722 0.50645 0.87916 0.0
C3841 C 0.55934 0.519 0.88735 0.0
C3842 C 0.57946 0.49184 0.88988 0.0
C3843 C 0.59226 0.47759 0.88153 0.0
C3844 C 0.58684 0.46768 0.86561 0.0
C3845 C 0.59918 0.45469 0.85745 0.0
C3846 C 0.61693 0.45139 0.86516 0.0
C3847 C 0.62236 0.46103 0.88108 0.0
C3848 C 0.61008 0.47406 0.88928 0.0
C3849 C 0.54431 0.48986 0.96482 0.0
C3850 C 0.54803 0.50571 0.97537 0.0
C3851 C 0.55007 0.48878 0.94607 0.0
C3852 C 0.5595 0.50355 0.9377 0.0
C3853 C 0.56466 0.51866 0.94861 0.0
C3854 C 0.55899 0.51973 0.96733 0.0
C3855 C 0.56259 0.50399 0.91731 0.0
C3856 C 0.57465 0.49088 0.90891 0.0
C3857 C 0.55427 0.51784 0.90634 0.0
C3858 C 0.5404 0.53127 0.91448 0.0
C3859 C 0.54366 0.55018 0.91289 0.0
C3860 C 0.5309 0.56279 0.92107 0.0
C3861 C 0.51478 0.55665 0.93084 0.0
C3862 C 0.51132 0.53789 0.93235 0.0
C3863 C 0.524 0.52523 0.92413 0.0
H3864 H 0.50496 0.56643 0.93723 0.0
H3865 H 0.62648 0.44135 0.8588 0.0
H3866 H 0.75311 0.33498 0.07285 0.0
H3867 H 0.75368 0.31785 0.10203 0.0
H3868 H 0.75883 0.36839 0.13304 0.0
H3869 H 0.75862 0.38561 0.10393 0.0
H3870 H 0.77849 0.34031 0.14911 0.0
H3871 H 0.71578 0.35159 0.12554 0.0
H3872 H 0.69098 0.3508 0.10174 0.0
H3873 H 0.69432 0.29204 0.09996 0.0
H3874 H 0.71936 0.29251 0.12356 0.0
H3875 H 0.74157 0.31564 0.23543 0.0
H3876 H 0.74034 0.33064 0.20516 0.0
H3877 H 0.74033 0.27796 0.17752 0.0
H3878 H 0.74148 0.26273 0.20778 0.0
H3879 H 0.71844 0.30607 0.15957 0.0
H3880 H 0.78146 0.29491 0.18292 0.0
H3881 H 0.80504 0.2957 0.20787 0.0
H3882 H 0.80002 0.35427 0.21109 0.0
H3883 H 0.77634 0.35382 0.18606 0.0
C3884 C 0.75486 0.34241 0.08584 0.0
C3885 C 0.75546 0.36164 0.08617 0.0
C3886 C 0.75514 0.33261 0.10248 0.0
C3887 C 0.75581 0.34194 0.11964 0.0
C3888 C 0.75816 0.36099 0.1199 0.0
C3889 C 0.75799 0.3708 0.10326 0.0
C3890 C 0.75192 0.33217 0.13727 0.0
C3891 C 0.76533 0.33292 0.15143 0.0
C3892 C 0.73478 0.32242 0.14019 0.0
C3893 C 0.71958 0.3221 0.12616 0.0
C3894 C 0.71132 0.33851 0.11997 0.0
C3895 C 0.69721 0.33812 0.10653 0.0
C3896 C 0.69112 0.32138 0.09931 0.0
C3897 C 0.69908 0.305 0.10555 0.0
C3898 C 0.71322 0.30532 0.11896 0.0
C3899 C 0.74069 0.30721 0.22297 0.0
C3900 C 0.74204 0.28802 0.22391 0.0
C3901 C 0.74002 0.31581 0.20571 0.0
C3902 C 0.74071 0.30534 0.18924 0.0
C3903 C 0.73992 0.2862 0.19017 0.0
C3904 C 0.74059 0.27754 0.20746 0.0
C3905 C 0.74497 0.31426 0.17129 0.0
C3906 C 0.73163 0.31336 0.15713 0.0
C3907 C 0.76215 0.32389 0.16838 0.0
C3908 C 0.77706 0.32433 0.18272 0.0
C3909 C 0.78538 0.30796 0.18895 0.0
C3910 C 0.79875 0.30835 0.2031 0.0
C3911 C 0.80397 0.32502 0.2111 0.0
C3912 C 0.79594 0.34138 0.20485 0.0
C3913 C 0.7826 0.34108 0.19064 0.0
H3914 H 0.81426 0.32528 0.22212 0.0
H3915 H 0.68019 0.32111 0.0889 0.0
H3916 H 0.91939 0.53934 0.3004 0.0
H3917 H 0.93578 0.53606 0.32984 0.0
H3918 H 0.97843 0.50194 0.30255 0.0
H3919 H 0.96198 0.50492 0.273 0.0
H3920 H 0.96449 0.48661 0.33409 0.0
H3921 H 0.98921 0.54512 0.3165 0.0
H3922 H 0.9876 0.57718 0.30597 0.0
H3923 H 0.95404 0.59168 0.35471 0.0
H3924 H 0.95522 0.55965 0.36541 0.0
H3925 H 0.01817 0.48092 0.41662 0.0
H3926 H 0.00912 0.48688 0.3844 0.0
H3927 H 0.96556 0.5245 0.4044 0.0
H3928 H 0.97485 0.51883 0.43655 0.0
H3929 H 0.98346 0.53818 0.37499 0.0
H3930 H 0.95537 0.48006 0.39083 0.0
H3931 H 0.95549 0.44805 0.40164 0.0
H3932 H 0.99374 0.43296 0.35651 0.0
H3933 H 0.99402 0.46495 0.34556 0.0
C3934 C 0.93235 0.53128 0.30058 0.0
C3935 C 0.93934 0.52233 0.28436 0.0
C3936 C 0.94177 0.52951 0.31741 0.0
C3937 C 0.9584 0.51891 0.3183 0.0
C3938 C 0.96562 0.51023 0.3021 0.0
C3939 C 0.95621 0.51197 0.28524 0.0
C3940 C 0.96746 0.51589 0.33645 0.0
C3941 C 0.96902 0.49786 0.34289 0.0
C3942 C 0.97286 0.53063 0.34805 0.0
C3943 C 0.9722 0.54994 0.34169 0.0
C3944 C 0.98136 0.55511 0.32491 0.0
C3945 C 0.98055 0.57329 0.31892 0.0
C3946 C 0.97069 0.58645 0.32965 0.0
C3947 C 0.96166 0.58147 0.34641 0.0
C3948 C 0.96242 0.56331 0.35245 0.0
C3949 C 0.00664 0.4904 0.41409 0.0
C3950 C -0.00287 0.49935 0.42901 0.0
C3951 C 0.0015 0.49381 0.39572 0.0
C3952 C 0.98652 0.50596 0.39204 0.0
C3953 C 0.9772 0.51511 0.40694 0.0
C3954 C 0.98249 0.51187 0.42527 0.0
C3955 C 0.98023 0.50892 0.37273 0.0
C3956 C 0.97917 0.52693 0.36608 0.0
C3957 C 0.9751 0.49417 0.36098 0.0
C3958 C 0.97488 0.47493 0.36751 0.0
C3959 C 0.96391 0.46994 0.3833 0.0
C3960 C 0.96389 0.4518 0.38943 0.0
C3961 C 0.97466 0.43849 0.3798 0.0
C3962 C 0.98543 0.44329 0.36397 0.0
C3963 C 0.98552 0.46142 0.35779 0.0
H3964 H 0.97463 0.42445 0.38458 0.0
H3965 H 0.97008 0.60051 0.32499 0.0
H3966 H 0.73868 0.65422 0.59573 0.0
H3967 H 0.74328 0.67251 0.62404 0.0
H3968 H 0.78683 0.70357 0.59558 0.0
H3969 H 0.78195 0.68562 0.56693 0.0
H3970 H 0.79577 0.68713 0.63366 0.0
H3971 H 0.75121 0.72584 0.60154 0.0
H3972 H 0.72158 0.73211 0.58491 0.0
H3973 H 0.68878 0.71433 0.6326 0.0
H3974 H 0.71823 0.70774 0.64944 0.0
H3975 H 0.77595 0.76817 0.70313 0.0
H3976 H 0.77533 0.75352 0.67236 0.0
H3977 H 0.77619 0.70033 0.69816 0.0
H3978 H 0.77657 0.71488 0.72912 0.0
H3979 H 0.74682 0.72993 0.65979 0.0
H3980 H 0.80176 0.67167 0.66691 0.0
H3981 H 0.83125 0.66513 0.68371 0.0
H3982 H 0.84371 0.72261 0.68585 0.0
H3983 H 0.81444 0.72947 0.66884 0.0
C3984 C 0.74913 0.66505 0.59542 0.0
C3985 C 0.75994 0.66851 0.57907 0.0
C3986 C 0.75174 0.67546 0.61161 0.0
C3987 C 0.76544 0.68932 0.61189 0.0
C3988 C 0.77622 0.69289 0.59562 0.0
C3989 C 0.77333 0.68273 0.57925 0.0
C3990 C 0.76854 0.69984 0.62934 0.0
C3991 C 0.78513 0.69656 0.63936 0.0
C3992 C 0.75465 0.7121 0.63673 0.0
C3993 C 0.73692 0.71613 0.62667 0.0
C3994 C 0.73768 0.72311 0.60842 0.0
C3995 C 0.72091 0.72677 0.59897 0.0
C3996 C 0.7033 0.7236 0.60768 0.0
C3997 C 0.70242 0.7168 0.62588 0.0
C3998 C 0.71915 0.71311 0.63538 0.0
C3999 C 0.77627 0.75335 0.7023 0.0
C4000 C 0.77634 0.7427 0.71862 0.0
C4001 C 0.77581 0.74501 0.68468 0.0
C4002 C 0.77571 0.72586 0.68296 0.0
C4003 C 0.77638 0.71515 0.69917 0.0
C4004 C 0.77661 0.72348 0.71685 0.0
C4005 C 0.774 0.71715 0.66426 0.0
C4006 C 0.75757 0.72063 0.65406 0.0
C4007 C 0.78803 0.70504 0.65676 0.0
C4008 C 0.80581 0.70108 0.66676 0.0
C4009 C 0.81084 0.6829 0.6709 0.0
C4010 C 0.82751 0.67914 0.68047 0.0
C4011 C 0.83931 0.69345 0.6859 0.0
C4012 C 0.83451 0.71154 0.68171 0.0
C4013 C 0.81786 0.71538 0.67213 0.0
H4014 H 0.85221 0.69051 0.69332 0.0
H4015 H 0.69033 0.72643 0.60035 0.0
H4016 H 0.72035 0.59027 0.50556 0.0
H4017 H 0.69145 0.57199 0.50421 0.0
H4018 H 0.65769 0.61976 0.51856 0.0
H4019 H 0.68664 0.63823 0.5199 0.0
H4020 H 0.6464 0.58903 0.53843 0.0
H4021 H 0.65887 0.60572 0.47487 0.0
H4022 H 0.67814 0.60898 0.44593 0.0
H4023 H 0.68599 0.55064 0.44292 0.0
H4024 H 0.66697 0.54705 0.47202 0.0
H4025 H 0.56278 0.55036 0.48508 0.0
H4026 H 0.59385 0.56487 0.48413 0.0
H4027 H 0.61139 0.5319 0.53056 0.0
H4028 H 0.58002 0.51761 0.53197 0.0
H4029 H 0.6305 0.55578 0.48018 0.0
H4030 H 0.63702 0.56242 0.56087 0.0
H4031 H 0.61642 0.56043 0.58901 0.0
H4032 H 0.56783 0.57487 0.55689 0.0
H4033 H 0.58818 0.5775 0.52868 0.0
C4034 C 0.70679 0.59692 0.50842 0.0
C4035 C 0.70579 0.61573 0.51278 0.0
C4036 C 0.69028 0.58644 0.50762 0.0
C4037 C 0.67241 0.59452 0.51119 0.0
C4038 C 0.67134 0.61325 0.51577 0.0
C4039 C 0.68788 0.6238 0.51644 0.0
C4040 C 0.65487 0.58339 0.50988 0.0
C4041 C 0.64293 0.5817 0.52574 0.0
C4042 C 0.65023 0.57404 0.49323 0.0
C4043 C 0.66166 0.57614 0.47573 0.0
C4044 C 0.66484 0.5936 0.46813 0.0
C4045 C 0.67569 0.5955 0.45168 0.0
C4046 C 0.68333 0.58003 0.44262 0.0
C4047 C 0.68009 0.56261 0.44997 0.0
C4048 C 0.66926 0.56063 0.46643 0.0
C4049 C 0.57332 0.54593 0.49491 0.0
C4050 C 0.56881 0.53303 0.5088 0.0
C4051 C 0.59115 0.55419 0.49427 0.0
C4052 C 0.60483 0.54972 0.50747 0.0
C4053 C 0.60092 0.53577 0.52042 0.0
C4054 C 0.58299 0.52761 0.5212 0.0
C4055 C 0.62221 0.56105 0.50885 0.0
C4056 C 0.63406 0.5629 0.49297 0.0
C4057 C 0.62656 0.57075 0.52544 0.0
C4058 C 0.61418 0.56993 0.54253 0.0
C4059 C 0.62197 0.5653 0.55981 0.0
C4060 C 0.6103 0.56405 0.5758 0.0
C4061 C 0.59079 0.5674 0.57473 0.0
C4062 C 0.58292 0.57212 0.55769 0.0
C4063 C 0.59453 0.57351 0.54169 0.0
H4064 H 0.58177 0.56638 0.58711 0.0
H4065 H 0.69172 0.58153 0.42988 0.0
H4066 H 0.19624 0.92862 0.56481 0.0
H4067 H 0.16542 0.94195 0.57293 0.0
H4068 H 0.13783 0.89251 0.55476 0.0
H4069 H 0.16891 0.87901 0.54636 0.0
H4070 H 0.12389 0.92211 0.53803 0.0
H4071 H 0.13432 0.90525 0.60053 0.0
H4072 H 0.15194 0.90119 0.6296 0.0
H4073 H 0.15781 0.95949 0.63498 0.0
H4074 H 0.14048 0.96392 0.60579 0.0
H4075 H 0.03963 0.97518 0.56783 0.0
H4076 H 0.0639 0.95345 0.57802 0.0
H4077 H 0.10735 0.98617 0.5514 0.0
H4078 H 0.08318 0.00829 0.54167 0.0
H4079 H 0.10695 0.9582 0.59513 0.0
H4080 H 0.11864 0.95303 0.51636 0.0
H4081 H 0.10062 0.95741 0.48748 0.0
H4082 H 0.04938 0.94081 0.51605 0.0
H4083 H 0.06715 0.93594 0.54488 0.0
C4084 C 0.18365 0.92044 0.5628 0.0
C4085 C 0.18492 0.90287 0.55474 0.0
C4086 C 0.16605 0.92801 0.56766 0.0
C4087 C 0.14937 0.91814 0.56464 0.0
C4088 C 0.15059 0.90027 0.55731 0.0
C4089 C 0.1683 0.89261 0.55251 0.0
C4090 C 0.13088 0.92767 0.56672 0.0
C4091 C 0.11996 0.9296 0.55068 0.0
C4092 C 0.12571 0.93744 0.58325 0.0
C4093 C 0.13611 0.93491 0.6009 0.0
C4094 C 0.13946 0.91721 0.60784 0.0
C4095 C 0.14939 0.91485 0.62436 0.0
C4096 C 0.156 0.93007 0.63413 0.0
C4097 C 0.15267 0.94771 0.62741 0.0
C4098 C 0.14275 0.95015 0.61089 0.0
C4099 C 0.05446 0.97805 0.56479 0.0
C4100 C 0.05967 0.9932 0.55386 0.0
C4101 C 0.06824 0.96573 0.57069 0.0
C4102 C 0.08723 0.96825 0.56528 0.0
C4103 C 0.09266 0.98416 0.55571 0.0
C4104 C 0.07892 -0.00326 0.55017 0.0
C4105 C 0.10073 0.95292 0.56634 0.0
C4106 C 0.11065 0.95011 0.5828 0.0
C4107 C 0.10485 0.94209 0.55034 0.0
C4108 C 0.09418 0.94438 0.53284 0.0
C4109 C 0.10354 0.95025 0.51643 0.0
C4110 C 0.09337 0.95283 0.50007 0.0
C4111 C 0.07384 0.94952 0.49995 0.0
C4112 C 0.06445 0.94355 0.51617 0.0
C4113 C 0.07458 0.94088 0.53253 0.0
H4114 H 0.06602 0.95146 0.48726 0.0
H4115 H 0.16369 0.92821 0.64691 0.0
H4116 H 0.39035 0.96566 0.72539 0.0
H4117 H 0.37272 0.93763 0.73197 0.0
H4118 H 0.32699 0.96962 0.75696 0.0
H4119 H 0.34457 -0.00234 0.7507 0.0
H4120 H 0.33999 0.94419 0.78034 0.0
H4121 H 0.3216 0.94599 0.71608 0.0
H4122 H 0.32648 0.94734 0.68192 0.0
H4123 H 0.35879 0.89726 0.68291 0.0
H4124 H 0.35441 0.89578 0.71713 0.0
H4125 H 0.27954 0.86935 0.80143 0.0
H4126 H 0.29325 0.89806 0.79001 0.0
H4127 H 0.33678 0.86741 0.75971 0.0
H4128 H 0.32262 0.83879 0.77058 0.0
H4129 H 0.32379 0.89259 0.73837 0.0
H4130 H 0.34532 0.89144 0.80148 0.0
H4131 H 0.34215 0.88933 0.83577 0.0
H4132 H 0.30644 0.93726 0.83706 0.0
H4133 H 0.3092 0.93952 0.80274 0.0
C4134 C 0.37635 0.96677 0.7319 0.0
C4135 C 0.36897 0.98386 0.73776 0.0
C4136 C 0.36627 0.95073 0.7356 0.0
C4137 C 0.34858 0.95158 0.745 0.0
C4138 C 0.34067 0.9687 0.74978 0.0
C4139 C 0.35075 0.9847 0.74618 0.0
C4140 C 0.33936 0.93468 0.7518 0.0
C4141 C 0.33612 0.93303 0.77112 0.0
C4142 C 0.33503 0.91989 0.73981 0.0
C4143 C 0.33784 0.92089 0.71923 0.0
C4144 C 0.32993 0.93537 0.70906 0.0
C4145 C 0.33257 0.93614 0.68967 0.0
C4146 C 0.34298 0.92243 0.68026 0.0
C4147 C 0.35076 0.9079 0.69022 0.0
C4148 C 0.3482 0.90709 0.70961 0.0
C4149 C 0.29217 0.86886 0.79253 0.0
C4150 C 0.30009 0.85199 0.78687 0.0
C4151 C 0.29999 0.8852 0.78601 0.0
C4152 C 0.31616 0.88488 0.77413 0.0
C4153 C 0.32426 0.86799 0.76878 0.0
C4154 C 0.31624 0.85168 0.77502 0.0
C4155 C 0.32444 0.9021 0.76692 0.0
C4156 C 0.32756 0.9038 0.74756 0.0
C4157 C 0.32898 0.91686 0.77888 0.0
C4158 C 0.32731 0.91553 0.79953 0.0
C4159 C 0.33668 0.90145 0.80907 0.0
C4160 C 0.33497 0.90024 0.82851 0.0
C4161 C 0.32406 0.91312 0.83858 0.0
C4162 C 0.31486 0.92728 0.82924 0.0
C4163 C 0.31651 0.92853 0.80979 0.0
H4164 H 0.32276 0.91217 0.85364 0.0
H4165 H 0.34499 0.92304 0.66524 0.0
H4166 H 0.31238 0.08153 0.03178 0.0
H4167 H 0.34558 0.07264 0.02772 0.0
H4168 H 0.35879 0.12631 0.00643 0.0
H4169 H 0.32522 0.13528 0.01005 0.0
H4170 H 0.37866 0.10034 0.98727 0.0
H4171 H 0.36871 0.11632 0.05101 0.0
H4172 H 0.35277 0.11655 0.08202 0.0
H4173 H 0.36314 0.0588 0.08724 0.0
H4174 H 0.37891 0.05816 0.05613 0.0
H4175 H 0.47284 0.06859 0.03611 0.0
H4176 H 0.4433 0.08615 0.03514 0.0
H4177 H 0.42427 0.05217 0.98979 0.0
H4178 H 0.45397 0.03455 0.99056 0.0
H4179 H 0.40944 0.07398 0.0428 0.0
H4180 H 0.39296 0.07807 0.96282 0.0
H4181 H 0.41041 0.0824 0.93296 0.0
H4182 H 0.45653 0.10707 0.96196 0.0
H4183 H 0.43925 0.10328 0.99195 0.0
C4184 C 0.32227 0.09148 0.02617 0.0
C4185 C 0.31615 0.10921 0.02145 0.0
C4186 C 0.34129 0.08637 0.02387 0.0
C4187 C 0.35476 0.09891 0.01711 0.0
C4188 C 0.34866 0.11643 0.01175 0.0
C4189 C 0.32949 0.12155 0.01389 0.0
C4190 C 0.37521 0.09372 0.01641 0.0
C4191 C 0.38546 0.09459 -0.00062 0.0
C4192 C 0.38429 0.08687 0.0324 0.0
C4193 C 0.37488 0.08717 0.05117 0.0
C4194 C 0.36748 0.10364 0.05872 0.0
C4195 C 0.35849 0.10385 0.07632 0.0
C4196 C 0.35691 0.08769 0.08658 0.0
C4197 C 0.36436 0.0713 0.07927 0.0
C4198 C 0.37335 0.07101 0.06166 0.0
C4199 C 0.46245 0.0649 0.02582 0.0
C4200 C 0.46567 0.05003 0.01355 0.0
C4201 C 0.44558 0.075 0.02526 0.0
C4202 C 0.43156 0.07051 0.0124 0.0
C4203 C 0.43496 0.05603 -0.00029 0.0
C4204 C 0.45188 0.04587 0.00027 0.0
C4205 C 0.41276 0.07986 0.01346 0.0
C4206 C 0.40279 0.07979 0.03064 0.0
C4207 C 0.40426 0.08796 -0.00226 0.0
C4208 C 0.41486 0.09014 0.97972 0.0
C4209 C 0.40681 0.08445 0.96285 0.0
C4210 C 0.41668 0.08683 0.94588 0.0
C4211 C 0.43465 0.09483 0.94558 0.0
C4212 C 0.4427 0.10069 0.96223 0.0
C4213 C 0.43287 0.09841 0.97922 0.0
H4214 H 0.44231 0.09656 0.93245 0.0
H4215 H 0.34994 0.08788 0.1002 0.0
H4216 H 0.64101 0.56897 0.74892 0.0
H4217 H 0.65959 0.59717 0.74836 0.0
H4218 H 0.70041 0.57254 0.78481 0.0
H4219 H 0.68223 0.54429 0.78519 0.0
H4220 H 0.66732 0.61944 0.77643 0.0
H4221 H 0.74409 0.58918 0.77593 0.0
H4222 H 0.7616 0.56255 0.76275 0.0
H4223 H 0.7212 0.55807 0.7189 0.0
H4224 H 0.70359 0.58483 0.73165 0.0
H4225 H 0.7318 0.68161 0.81431 0.0
H4226 H 0.71553 0.65294 0.80716 0.0
H4227 H 0.73355 0.65724 0.74938 0.0
H4228 H 0.75003 0.68579 0.75651 0.0
H4229 H 0.73676 0.62186 0.76317 0.0
H4230 H 0.6907 0.66986 0.75956 0.0
H4231 H 0.67296 0.69727 0.7705 0.0
H4232 H 0.65109 0.6674 0.81766 0.0
H4233 H 0.66895 0.63988 0.80716 0.0
C4234 C 0.65401 0.56952 0.7567 0.0
C4235 C 0.66013 0.55441 0.76712 0.0
C4236 C 0.6646 0.58562 0.75636 0.0
C4237 C 0.68146 0.58684 0.76637 0.0
C4238 C 0.68763 0.57175 0.77669 0.0
C4239 C 0.67713 0.55565 0.77698 0.0
C4240 C 0.69209 0.60419 0.76701 0.0
C4241 C 0.68247 0.61999 0.77341 0.0
C4242 C 0.7118 0.60493 0.76277 0.0
C4243 C 0.72244 0.58894 0.75485 0.0
C4244 C 0.73899 0.58258 0.76342 0.0
C4245 C 0.74892 0.56744 0.75603 0.0
C4246 C 0.74249 0.5586 0.74003 0.0
C4247 C 0.72613 0.5649 0.73134 0.0
C4248 C 0.71615 0.58003 0.73866 0.0
C4249 C 0.73252 0.67628 0.80017 0.0
C4250 C 0.74199 0.68595 0.78592 0.0
C4251 C 0.72315 0.66002 0.79608 0.0
C4252 C 0.7232 0.65319 0.77771 0.0
C4253 C 0.73331 0.66239 0.76361 0.0
C4254 C 0.74256 0.67872 0.76767 0.0
C4255 C 0.71206 0.63682 0.77313 0.0
C4256 C 0.72158 0.62127 0.76602 0.0
C4257 C 0.69219 0.63638 0.77635 0.0
C4258 C 0.68129 0.65285 0.78265 0.0
C4259 C 0.68223 0.66917 0.77234 0.0
C4260 C 0.67213 0.68472 0.77845 0.0
C4261 C 0.66093 0.68409 0.79479 0.0
C4262 C 0.65978 0.66788 0.80502 0.0
C4263 C 0.66987 0.65229 0.79899 0.0
H4264 H 0.65313 0.69614 0.7995 0.0
H4265 H 0.75019 0.54687 0.73434 0.0
H4266 H 0.7955 0.41616 0.0349 0.0
H4267 H 0.82711 0.42899 0.03013 0.0
H4268 H 0.80333 0.47311 -0.00187 0.0
H4269 H 0.77153 0.46047 0.00294 0.0
H4270 H 0.84645 0.43376 -0.00217 0.0
H4271 H 0.83036 0.51147 0.00562 0.0
H4272 H 0.8082 0.53203 0.02298 0.0
H4273 H 0.80128 0.49162 0.06587 0.0
H4274 H 0.82358 0.47094 0.04891 0.0
H4275 H 0.92476 0.48391 0.96221 0.0
H4276 H 0.89246 0.47315 0.96846 0.0
H4277 H 0.89757 0.4876 0.02667 0.0
H4278 H 0.92932 0.49921 0.02042 0.0
H4279 H 0.86402 0.49732 0.01494 0.0
H4280 H 0.90323 0.44318 0.011 0.0
H4281 H 0.92632 0.42169 -0.00377 0.0
H4282 H 0.88865 0.41294 0.95074 0.0
H4283 H 0.86546 0.43462 0.96504 0.0
C4284 C 0.79693 0.42867 0.02695 0.0
C4285 C 0.781 0.43729 0.01927 0.0
C4286 C 0.81502 0.43593 0.0242 0.0
C4287 C 0.8175 0.45198 0.01383 0.0
C4288 C 0.80164 0.46079 0.00633 0.0
C4289 C 0.78351 0.45352 0.00906 0.0
C4290 C 0.8368 0.45916 0.0104 0.0
C4291 C 0.85031 0.44766 0.00155 0.0
C4292 C 0.84182 0.4772 0.0155 0.0
C4293 C 0.82847 0.48958 0.02587 0.0
C4294 C 0.82414 0.507 0.01878 0.0
C4295 C 0.81156 0.51867 0.02855 0.0
C4296 C 0.80329 0.51311 0.04548 0.0
C4297 C 0.80763 0.49588 0.05271 0.0
C4298 C 0.82021 0.48417 0.04301 0.0
C4299 C 0.91894 0.48499 0.97628 0.0
C4300 C 0.92975 0.49224 0.99082 0.0
C4301 C 0.90055 0.47869 0.97987 0.0
C4302 C 0.89277 0.47933 -0.00192 0.0
C4303 C 0.90336 0.48689 0.01253 0.0
C4304 C 0.92164 0.49332 0.00895 0.0
C4305 C 0.87366 0.47197 0.00221 0.0
C4306 C 0.86015 0.48344 0.01115 0.0
C4307 C 0.86877 0.45376 -0.00243 0.0
C4308 C 0.88268 0.44066 0.98901 0.0
C4309 C 0.89993 0.43678 -0.00222 0.0
C4310 C 0.91302 0.42455 0.98951 0.0
C4311 C 0.90896 0.41599 0.97256 0.0
C4312 C 0.89178 0.41961 0.96386 0.0
C4313 C 0.87866 0.43186 0.97203 0.0
H4314 H 0.91912 0.40652 0.9662 0.0
H4315 H 0.79355 0.52216 0.05302 0.0
H4316 H 0.33544 0.08027 0.77039 0.0
H4317 H 0.32244 0.11129 0.76934 0.0
H4318 H 0.37699 0.13325 0.78361 0.0
H4319 H 0.39016 0.10226 0.78481 0.0
H4320 H 0.34453 0.15506 0.79643 0.0
H4321 H 0.3718 0.12714 0.74085 0.0
H4322 H 0.37623 0.10195 0.718 0.0
H4323 H 0.31725 0.10533 0.70423 0.0
H4324 H 0.31239 0.13031 0.72728 0.0
H4325 H 0.32531 0.23953 0.75718 0.0
H4326 H 0.34391 0.21119 0.7576 0.0
H4327 H 0.29414 0.18035 0.74342 0.0
H4328 H 0.27549 0.20855 0.74267 0.0
H4329 H 0.32805 0.16421 0.72993 0.0
H4330 H 0.30081 0.1909 0.78707 0.0
H4331 H 0.29678 0.21707 0.80856 0.0
H4332 H 0.35661 0.21655 0.81907 0.0
H4333 H 0.361 0.1904 0.79723 0.0
C4334 C 0.34449 0.09162 0.77407 0.0
C4335 C 0.36394 0.08891 0.77713 0.0
C4336 C 0.33704 0.10933 0.77343 0.0
C4337 C 0.34896 0.12444 0.77586 0.0
C4338 C 0.36768 0.12169 0.78151 0.0
C4339 C 0.37516 0.10397 0.78215 0.0
C4340 C 0.34299 0.14256 0.76917 0.0
C4341 C 0.34117 0.15716 0.78188 0.0
C4342 C 0.33873 0.14521 0.75012 0.0
C4343 C 0.34169 0.13048 0.73592 0.0
C4344 C 0.35974 0.12243 0.73304 0.0
C4345 C 0.36234 0.10819 0.72005 0.0
C4346 C 0.34702 0.10202 0.7097 0.0
C4347 C 0.3291 0.11011 0.71228 0.0
C4348 C 0.32641 0.12431 0.7253 0.0
C4349 C 0.31847 0.2268 0.75349 0.0
C4350 C 0.29882 0.22615 0.75043 0.0
C4351 C 0.32914 0.21064 0.7537 0.0
C4352 C 0.32022 0.19373 0.75102 0.0
C4353 C 0.3012 0.1933 0.74566 0.0
C4354 C 0.29054 0.20943 0.74538 0.0
C4355 C 0.32928 0.17664 0.75722 0.0
C4356 C 0.33167 0.16219 0.74443 0.0
C4357 C 0.33414 0.17417 0.77616 0.0
C4358 C 0.3313 0.18894 0.79029 0.0
C4359 C 0.31313 0.19643 0.79387 0.0
C4360 C 0.31078 0.21132 0.80607 0.0
C4361 C 0.32645 0.21863 0.81509 0.0
C4362 C 0.3445 0.21095 0.812 0.0
C4363 C 0.34693 0.1961 0.79969 0.0
H4364 H 0.32459 0.23013 0.82459 0.0
H4365 H 0.34906 0.09099 0.69965 0.0
H4366 H 0.20617 0.9666 0.29592 0.0
H4367 H 0.22789 0.94024 0.29479 0.0
H4368 H 0.18025 0.90413 0.28746 0.0
H4369 H 0.15858 0.93013 0.28951 0.0
H4370 H 0.20581 0.88667 0.30523 0.0
H4371 H 0.20535 0.92475 0.24958 0.0
H4372 H 0.20973 0.95363 0.23233 0.0
H4373 H 0.26812 0.95534 0.24841 0.0
H4374 H 0.26399 0.92656 0.26594 0.0
H4375 H 0.22865 0.81854 0.24292 0.0
H4376 H 0.21995 0.85056 0.24879 0.0
H4377 H 0.27349 0.85955 0.27535 0.0
H4378 H 0.28234 0.82754 0.26967 0.0
H4379 H 0.2513 0.89177 0.25147 0.0
H4380 H 0.24928 0.8494 0.3058 0.0
H4381 H 0.24273 0.81759 0.31538 0.0
H4382 H 0.18559 0.82264 0.29618 0.0
H4383 H 0.19192 0.85437 0.28618 0.0
C4384 C 0.20034 0.95296 0.29461 0.0
C4385 C 0.18075 0.9504 0.29242 0.0
C4386 C 0.21275 0.93795 0.29389 0.0
C4387 C 0.20572 0.9203 0.29048 0.0
C4388 C 0.18602 0.91763 0.28999 0.0
C4389 C 0.17363 0.93254 0.29108 0.0
C4390 C 0.21858 0.90497 0.28503 0.0
C4391 C 0.21595 0.88793 0.29369 0.0
C4392 C 0.23179 0.90647 0.26985 0.0
C4393 C 0.23431 0.92367 0.25923 0.0
C4394 C 0.21909 0.93135 0.24951 0.0
C4395 C 0.22152 0.94769 0.23968 0.0
C4396 C 0.23917 0.95635 0.23933 0.0
C4397 C 0.25444 0.94865 0.24874 0.0
C4398 C 0.25207 0.93233 0.25862 0.0
C4399 C 0.23888 0.82749 0.24935 0.0
C4400 C 0.25595 0.82052 0.25624 0.0
C4401 C 0.23394 0.84577 0.2526 0.0
C4402 C 0.24607 0.85719 0.26261 0.0
C4403 C 0.26405 0.85086 0.26754 0.0
C4404 C 0.26896 0.83255 0.26444 0.0
C4405 C 0.2382 0.87381 0.27154 0.0
C4406 C 0.24173 0.89087 0.26351 0.0
C4407 C 0.22556 0.87232 0.28703 0.0
C4408 C 0.22108 0.8542 0.29521 0.0
C4409 C 0.2353 0.84373 0.3037 0.0
C4410 C 0.23169 0.82568 0.30904 0.0
C4411 C 0.21383 0.81804 0.30615 0.0
C4412 C 0.19945 0.82855 0.29827 0.0
C4413 C 0.20302 0.84658 0.29282 0.0
H4414 H 0.21102 0.8041 0.31031 0.0
H4415 H 0.24103 0.96899 0.23171 0.0
H4416 H 0.51772 0.31817 0.44513 0.0
H4417 H 0.51755 0.3478 0.46166 0.0
H4418 H 0.51494 0.37587 0.40891 0.0
H4419 H 0.51578 0.34665 0.3925 0.0
H4420 H 0.53937 0.39217 0.42856 0.0
H4421 H 0.47562 0.37153 0.44105 0.0
H4422 H 0.4509 0.35032 0.45245 0.0
H4423 H 0.47302 0.35358 0.50779 0.0
H4424 H 0.49803 0.37465 0.49666 0.0
H4425 H 0.51276 0.48171 0.46143 0.0
H4426 H 0.51276 0.45133 0.44652 0.0
H4427 H 0.52244 0.42614 0.49982 0.0
H4428 H 0.52239 0.45627 0.51477 0.0
H4429 H 0.49505 0.40824 0.48097 0.0
H4430 H 0.55835 0.42991 0.46779 0.0
H4431 H 0.5822 0.45175 0.45585 0.0
H4432 H 0.55959 0.44706 0.40081 0.0
H4433 H 0.53544 0.42536 0.41248 0.0
C4434 C 0.51701 0.33068 0.43712 0.0
C4435 C 0.51687 0.32998 0.41748 0.0
C4436 C 0.51684 0.34765 0.44657 0.0
C4437 C 0.51613 0.36423 0.43659 0.0
C4438 C 0.51565 0.36341 0.41702 0.0
C4439 C 0.51609 0.34659 0.40762 0.0
C4440 C 0.51637 0.38251 0.4462 0.0
C4441 C 0.52948 0.39568 0.43986 0.0
C4442 C 0.50382 0.38717 0.46126 0.0
C4443 C 0.48881 0.3745 0.46797 0.0
C4444 C 0.4753 0.36761 0.45562 0.0
C4445 C 0.46122 0.35564 0.46204 0.0
C4446 C 0.46043 0.35056 0.48082 0.0
C4447 C 0.47368 0.3575 0.49324 0.0
C4448 C 0.4878 0.36946 0.48688 0.0
C4449 C 0.51499 0.46971 0.46995 0.0
C4450 C 0.51768 0.47149 0.48929 0.0
C4451 C 0.51501 0.45233 0.46141 0.0
C4452 C 0.51771 0.43639 0.47203 0.0
C4453 C 0.5203 0.43818 0.49132 0.0
C4454 C 0.52037 0.45548 0.49983 0.0
C4455 C 0.51784 0.41783 0.46312 0.0
C4456 C 0.50489 0.40464 0.46964 0.0
C4457 C 0.5304 0.41319 0.44811 0.0
C4458 C 0.54498 0.42615 0.44105 0.0
C4459 C 0.55838 0.43364 0.45317 0.0
C4460 C 0.57197 0.44598 0.44645 0.0
C4461 C 0.57238 0.45083 0.42759 0.0
C4462 C 0.55924 0.44331 0.41541 0.0
C4463 C 0.54561 0.43098 0.42207 0.0
H4464 H 0.58291 0.46038 0.42242 0.0
H4465 H 0.44951 0.3413 0.48577 0.0
H4466 H 0.44651 0.74596 0.17978 0.0
H4467 H 0.41197 0.74539 0.18283 0.0
H4468 H 0.40781 0.78939 0.14314 0.0
H4469 H 0.44243 0.79014 0.14004 0.0
H4470 H 0.38864 0.79713 0.17451 0.0
H4471 H 0.39006 0.74845 0.13162 0.0
H4472 H 0.40073 0.71965 0.11648 0.0
H4473 H 0.38434 0.68959 0.16552 0.0
H4474 H 0.37387 0.71822 0.18111 0.0
H4475 H 0.28802 0.75995 0.20259 0.0
H4476 H 0.31377 0.76173 0.17905 0.0
H4477 H 0.35333 0.77465 0.22231 0.0
H4478 H 0.3279 0.77306 0.2458 0.0
H4479 H 0.34835 0.7416 0.17673 0.0
H4480 H 0.38108 0.80836 0.20737 0.0
H4481 H 0.36965 0.83724 0.22185 0.0
H4482 H 0.31646 0.83185 0.19417 0.0
H4483 H 0.32767 0.80309 0.17927 0.0
C4484 C 0.43827 0.75537 0.17152 0.0
C4485 C 0.44722 0.76822 0.15982 0.0
C4486 C 0.41851 0.75489 0.17311 0.0
C4487 C 0.40735 0.76721 0.16303 0.0
C4488 C 0.4162 0.77969 0.15092 0.0
C4489 C 0.43597 0.78013 0.14924 0.0
C4490 C 0.38675 0.76851 0.16719 0.0
C4491 C 0.3797 0.78508 0.17467 0.0
C4492 C 0.37493 0.75291 0.16683 0.0
C4493 C 0.38121 0.73556 0.15757 0.0
C4494 C 0.38885 0.73572 0.13925 0.0
C4495 C 0.39485 0.71941 0.13057 0.0
C4496 C 0.39323 0.7028 0.14003 0.0
C4497 C 0.38558 0.70247 0.15819 0.0
C4498 C 0.37957 0.71874 0.16695 0.0
C4499 C 0.30222 0.76317 0.20707 0.0
C4500 C 0.30596 0.76646 0.22604 0.0
C4501 C 0.31685 0.76415 0.19362 0.0
C4502 C 0.33529 0.76856 0.19899 0.0
C4503 C 0.33907 0.77152 0.21791 0.0
C4504 C 0.32455 0.77051 0.23132 0.0
C4505 C 0.351 0.76979 0.18517 0.0
C4506 C 0.35709 0.75376 0.17592 0.0
C4507 C 0.36187 0.78594 0.18365 0.0
C4508 C 0.35523 0.80352 0.19221 0.0
C4509 C 0.36701 0.81341 0.20422 0.0
C4510 C 0.36055 0.82974 0.21255 0.0
C4511 C 0.34233 0.83636 0.20895 0.0
C4512 C 0.33055 0.82669 0.19697 0.0
C4513 C 0.33695 0.81036 0.1886 0.0
H4514 H 0.33735 0.84899 0.21543 0.0
H4515 H 0.39788 0.69019 0.13329 0.0
H4516 H 0.01203 0.72293 0.95749 0.0
H4517 H 0.01225 0.69234 0.9716 0.0
H4518 H 0.00644 0.66775 0.91713 0.0
H4519 H 0.00618 0.6981 0.90299 0.0
H4520 H 0.98667 0.66355 0.97212 0.0
H4521 H 0.03415 0.62871 0.91514 0.0
H4522 H 0.05927 0.63691 0.89219 0.0
H4523 H 0.0752 0.68249 0.92656 0.0
H4524 H 0.05037 0.6744 0.94984 0.0
H4525 H 0.98445 0.56553 0.97765 0.0
H4526 H 0.98421 0.5968 0.96531 0.0
H4527 H 0.03949 0.60619 0.98811 0.0
H4528 H 0.03976 0.57506 0.00069 0.0
H4529 H 0.03594 0.61864 0.95086 0.0
H4530 H 0.00387 0.62384 0.01044 0.0
H4531 H 0.97985 0.61571 0.0345 0.0
H4532 H 0.93523 0.6302 -0.00271 0.0
H4533 H 0.95901 0.63814 0.97288 0.0
C4534 C 0.01064 0.71101 0.94854 0.0
C4535 C 0.00916 0.71303 0.92908 0.0
C4536 C 0.01074 0.69352 0.95663 0.0
C4537 C 0.00959 0.67768 0.94543 0.0
C4538 C 0.0076 0.67971 0.92607 0.0
C4539 C 0.00738 0.69713 0.91801 0.0
C4540 C 0.01093 0.65902 0.95379 0.0
C4541 C -0.00257 0.65376 0.96744 0.0
C4542 C 0.0251 0.6462 0.94791 0.0
C4543 C 0.04025 0.65106 0.93413 0.0
C4544 C 0.04306 0.64044 0.91783 0.0
C4545 C 0.05724 0.64507 0.90476 0.0
C4546 C 0.06878 0.66025 0.90788 0.0
C4547 C 0.0662 0.67078 0.92412 0.0
C4548 C 0.05206 0.66619 0.93724 0.0
C4549 C -0.00341 0.57422 0.97998 0.0
C4550 C 0.01208 0.56779 0.99025 0.0
C4551 C -0.00359 0.59211 0.97297 0.0
C4552 C 0.01179 0.6039 0.97588 0.0
C4553 C 0.02745 0.59738 0.98573 0.0
C4554 C 0.02755 0.57958 0.99296 0.0
C4555 C 0.01144 0.62309 0.96885 0.0
C4556 C 0.02513 0.62844 0.95547 0.0
C4557 C -0.00245 0.63601 0.97508 0.0
C4558 C 0.98322 0.63141 0.98977 0.0
C4559 C 0.98894 0.62514 0.00733 0.0
C4560 C 0.97537 0.6206 0.02104 0.0
C4561 C 0.95603 0.6224 0.01741 0.0
C4562 C 0.95022 0.62879 7e-05 0.0
C4563 C 0.96374 0.63333 0.9863 0.0
H4564 H 0.94554 0.61887 0.02804 0.0
H4565 H 0.07974 0.66382 0.89774 0.0
H4566 H 0.07792 0.28349 0.62382 0.0
H4567 H 0.10675 0.27036 0.63703 0.0
H4568 H 0.10272 0.3089 0.68287 0.0
H4569 H 0.07357 0.32173 0.67007 0.0
H4570 H 0.14227 0.29949 0.66621 0.0
H4571 H 0.08418 0.27399 0.69542 0.0
H4572 H 0.05262 0.25962 0.69396 0.0
H4573 H 0.07606 0.216 0.66005 0.0
H4574 H 0.10786 0.23011 0.66135 0.0
H4575 H 0.18064 0.27009 0.74828 0.0
H4576 H 0.15707 0.27925 0.7256 0.0
H4577 H 0.16673 0.2288 0.69503 0.0
H4578 H 0.19062 0.2196 0.71778 0.0
H4579 H 0.12747 0.24076 0.69794 0.0
H4580 H 0.18786 0.26299 0.67824 0.0
H4581 H 0.2189 0.27747 0.68229 0.0
H4582 H 0.19142 0.32815 0.69797 0.0
H4583 H 0.16006 0.31379 0.69436 0.0
C4584 C 0.08356 0.28958 0.63636 0.0
C4585 C 0.07358 0.30358 0.64602 0.0
C4586 C 0.09993 0.28201 0.64389 0.0
C4587 C 0.10666 0.28867 0.66089 0.0
C4588 C 0.09768 0.3037 0.66967 0.0
C4589 C 0.08109 0.311 0.66238 0.0
C4590 C 0.12137 0.27856 0.67089 0.0
C4591 C 0.13916 0.28662 0.67308 0.0
C4592 C 0.11728 0.2616 0.67943 0.0
C4593 C 0.09828 0.25317 0.67834 0.0
C4594 C 0.08256 0.26141 0.68753 0.0
C4595 C 0.06466 0.2533 0.68675 0.0
C4596 C 0.06234 0.23697 0.67681 0.0
C4597 C 0.07792 0.22868 0.66766 0.0
C4598 C 0.09589 0.23669 0.66846 0.0
C4599 C 0.17754 0.26085 0.73687 0.0
C4600 C 0.18759 0.24429 0.73458 0.0
C4601 C 0.16413 0.26609 0.72394 0.0
C4602 C 0.16056 0.25487 0.70848 0.0
C4603 C 0.16947 0.23766 0.70685 0.0
C4604 C 0.18298 0.23239 0.71986 0.0
C4605 C 0.14833 0.26188 0.69364 0.0
C4606 C 0.13092 0.2533 0.69059 0.0
C4607 C 0.15282 0.27837 0.68427 0.0
C4608 C 0.1716 0.28726 0.68615 0.0
C4609 C 0.18841 0.27719 0.68267 0.0
C4610 C 0.20609 0.2854 0.68488 0.0
C4611 C 0.20719 0.30374 0.69042 0.0
C4612 C 0.19056 0.31393 0.69369 0.0
C4613 C 0.17281 0.30577 0.69155 0.0
H4614 H 0.2209 0.31007 0.69218 0.0
H4615 H 0.04848 0.23068 0.67629 0.0
H4616 H 0.51988 0.7506 0.08461 0.0
H4617 H 0.5266 0.7256 0.06228 0.0
H4618 H 0.53399 0.68826 0.10809 0.0
H4619 H 0.52775 0.71291 0.13026 0.0
H4620 H 0.56085 0.68291 0.08244 0.0
H4621 H 0.49202 0.69116 0.08422 0.0
H4622 H 0.46242 0.70881 0.08006 0.0
H4623 H 0.47733 0.71718 0.02227 0.0
H4624 H 0.50714 0.69974 0.02618 0.0
H4625 H 0.5146 0.59741 0.04749 0.0
H4626 H 0.51178 0.62964 0.05609 0.0
H4627 H 0.56538 0.64056 0.02816 0.0
H4628 H 0.56825 0.60822 0.0193 0.0
H4629 H 0.51125 0.66279 0.03873 0.0
H4630 H 0.58981 0.66907 0.05756 0.0
H4631 H 0.61712 0.64942 0.06552 0.0
H4632 H 0.57909 0.60891 0.08781 0.0
H4633 H 0.55161 0.62842 0.08022 0.0
C4634 C 0.52305 0.73707 0.08987 0.0
C4635 C 0.52323 0.73374 0.10921 0.0
C4636 C 0.52686 0.72283 0.07712 0.0
C4637 C 0.53075 0.7051 0.08356 0.0
C4638 C 0.53117 0.70188 0.10282 0.0
C4639 C 0.5275 0.71601 0.1155 0.0
C4640 C 0.53378 0.68948 0.07058 0.0
C4641 C 0.55017 0.67869 0.07262 0.0
C4642 C 0.51978 0.68393 0.05788 0.0
C4643 C 0.50189 0.69437 0.05555 0.0
C4644 C 0.48904 0.69689 0.07067 0.0
C4645 C 0.47222 0.70683 0.06835 0.0
C4646 C 0.46803 0.71417 0.05093 0.0
C4647 C 0.48062 0.71153 0.03577 0.0
C4648 C 0.49747 0.70162 0.03803 0.0
C4649 C 0.52559 0.60669 0.04277 0.0
C4650 C 0.54179 0.60018 0.03291 0.0
C4651 C 0.52393 0.62514 0.04767 0.0
C4652 C 0.53844 0.63742 0.04287 0.0
C4653 C 0.55412 0.63122 0.03213 0.0
C4654 C 0.55581 0.61273 0.02723 0.0
C4655 C 0.53803 0.65604 0.05106 0.0
C4656 C 0.52223 0.66737 0.04806 0.0
C4657 C 0.55229 0.66187 0.06334 0.0
C4658 C 0.56869 0.65008 0.06805 0.0
C4659 C 0.58731 0.65597 0.06417 0.0
C4660 C 0.6028 0.64487 0.06863 0.0
C4661 C 0.59983 0.62789 0.07708 0.0
C4662 C 0.58137 0.62202 0.08118 0.0
C4663 C 0.56583 0.63308 0.07679 0.0
H4664 H 0.61185 0.61931 0.08051 0.0
H4665 H 0.45499 0.72185 0.04915 0.0
H4666 H 0.08886 0.76896 0.90164 0.0
H4667 H 0.12055 0.77 0.88676 0.0
H4668 H 0.09603 0.75854 0.83326 0.0
H4669 H 0.0644 0.75733 0.84797 0.0
H4670 H 0.12862 0.73914 0.83769 0.0
H4671 H 0.1077 0.80175 0.84517 0.0
H4672 H 0.09565 0.82869 0.86282 0.0
H4673 H 0.14492 0.8275 0.89712 0.0
H4674 H 0.15714 0.80036 0.87983 0.0
H4675 H 0.20287 0.76394 0.77671 0.0
H4676 H 0.17229 0.76339 0.79346 0.0
H4677 H 0.1996 0.78046 0.84407 0.0
H4678 H 0.23006 0.7824 0.82681 0.0
H4679 H 0.16636 0.79611 0.84271 0.0
H4680 H 0.18783 0.73351 0.83386 0.0
H4681 H 0.20088 0.70904 0.81326 0.0
H4682 H 0.15067 0.71104 0.78033 0.0
H4683 H 0.1374 0.73565 0.80061 0.0
C4684 C 0.09023 0.76655 0.88669 0.0
C4685 C 0.07411 0.76319 0.87595 0.0
C4686 C 0.10831 0.76719 0.8782 0.0
C4687 C 0.11062 0.76454 0.85882 0.0
C4688 C 0.09461 0.76064 0.84819 0.0
C4689 C 0.07654 0.76003 0.85666 0.0
C4690 C 0.12959 0.76635 0.84948 0.0
C4691 C 0.13683 0.75162 0.83873 0.0
C4692 C 0.14048 0.78253 0.85103 0.0
C4693 C 0.13323 0.79891 0.86135 0.0
C4694 C 0.11589 0.80715 0.85657 0.0
C4695 C 0.10904 0.82246 0.86649 0.0
C4696 C 0.11949 0.82977 0.88112 0.0
C4697 C 0.13683 0.8218 0.88581 0.0
C4698 C 0.14373 0.80646 0.87595 0.0
C4699 C 0.20228 0.76769 0.79138 0.0
C4700 C 0.21876 0.77305 0.80055 0.0
C4701 C 0.18483 0.76726 0.801 0.0
C4702 C 0.18367 0.77128 0.82023 0.0
C4703 C 0.20011 0.77714 0.8293 0.0
C4704 C 0.21749 0.7782 0.81947 0.0
C4705 C 0.16541 0.76892 0.83088 0.0
C4706 C 0.1583 0.78352 0.84188 0.0
C4707 C 0.15465 0.75261 0.82959 0.0
C4708 C 0.16169 0.7365 0.81867 0.0
C4709 C 0.17953 0.72864 0.82229 0.0
C4710 C 0.187 0.71483 0.81062 0.0
C4711 C 0.1767 0.70867 0.79537 0.0
C4712 C 0.15868 0.71594 0.79207 0.0
C4713 C 0.15114 0.72977 0.80369 0.0
H4714 H 0.18264 0.69821 0.78614 0.0
H4715 H 0.11416 0.84163 0.88878 0.0
H4716 H 0.97398 0.32853 0.5855 0.0
H4717 H 0.95949 0.35443 0.56927 0.0
H4718 H 0.97935 0.39123 0.612 0.0
H4719 H 0.99291 0.36554 0.62855 0.0
H4720 H 0.94709 0.40355 0.59996 0.0
H4721 H 0.00648 0.37979 0.57065 0.0
H4722 H 0.02587 0.35581 0.55476 0.0
H4723 H 0.98437 0.35134 0.5119 0.0
H4724 H 0.96467 0.3752 0.52766 0.0
H4725 H 0.99386 0.48062 0.56671 0.0
H4726 H 0.97985 0.45291 0.57973 0.0
H4727 H 0.95776 0.43887 0.52573 0.0
H4728 H 0.97225 0.46631 0.51249 0.0
H4729 H 0.9786 0.41249 0.53812 0.0
H4730 H 0.92704 0.44675 0.5641 0.0
H4731 H 0.91115 0.47254 0.58062 0.0
H4732 H 0.94067 0.45932 0.63068 0.0
H4733 H 0.95692 0.4336 0.61443 0.0
C4734 C 0.97495 0.34214 0.59151 0.0
C4735 C 0.98486 0.34513 0.60806 0.0
C4736 C 0.96663 0.35688 0.58229 0.0
C4737 C 0.96862 0.37479 0.58926 0.0
C4738 C 0.97755 0.37755 0.60636 0.0
C4739 C 0.9855 0.36285 0.61572 0.0
C4740 C 0.96401 0.39099 0.57788 0.0
C4741 C 0.95379 0.40554 0.58634 0.0
C4742 C 0.97223 0.39335 0.55986 0.0
C4743 C 0.98402 0.37903 0.55044 0.0
C4744 C 0.00147 0.37359 0.55789 0.0
C4745 C 0.01251 0.36005 0.54891 0.0
C4746 C 0.00632 0.35201 0.53237 0.0
C4747 C 0.98911 0.35754 0.52474 0.0
C4748 C 0.978 0.37106 0.53369 0.0
C4749 C 0.98571 0.4718 0.55771 0.0
C4750 C 0.98442 0.47541 0.53855 0.0
C4751 C 0.97749 0.45608 0.5652 0.0
C4752 C 0.96757 0.44392 0.55372 0.0
C4753 C 0.9653 0.44812 0.53482 0.0
C4754 C 0.9737 0.46371 0.52727 0.0
C4755 C 0.96271 0.42549 0.5607 0.0
C4756 C 0.9711 0.41046 0.55134 0.0
C4757 C 0.95315 0.42288 0.57804 0.0
C4758 C 0.9432 0.4382 0.58801 0.0
C4759 C 0.9302 0.44937 0.57862 0.0
C4760 C 0.92112 0.46398 0.58794 0.0
C4761 C 0.92488 0.46756 0.60669 0.0
C4762 C 0.93772 0.4565 0.61617 0.0
C4763 C 0.94683 0.44187 0.60692 0.0
H4764 H 0.91786 0.47889 0.61388 0.0
H4765 H 0.01489 0.34153 0.52543 0.0
H4766 H 0.46781 0.29456 0.33391 0.0
H4767 H 0.43613 0.29281 0.3212 0.0
H4768 H 0.41875 0.25695 0.36594 0.0
H4769 H 0.45078 0.25847 0.37881 0.0
H4770 H 0.40712 0.24446 0.33224 0.0
H4771 H 0.40426 0.3016 0.36532 0.0
H4772 H 0.41428 0.33261 0.37454 0.0
H4773 H 0.40851 0.35094 0.31806 0.0
H4774 H 0.39881 0.31995 0.30842 0.0
H4775 H 0.3096 0.24882 0.30854 0.0
H4776 H 0.33989 0.25005 0.32436 0.0
H4777 H 0.36026 0.2899 0.28457 0.0
H4778 H 0.3296 0.28927 0.26908 0.0
H4779 H 0.36947 0.30012 0.31792 0.0
H4780 H 0.37497 0.24317 0.28405 0.0
H4781 H 0.36501 0.21235 0.27407 0.0
H4782 H 0.36613 0.19395 0.33088 0.0
H4783 H 0.37586 0.22474 0.34124 0.0
C4784 C 0.45731 0.28631 0.34118 0.0
C4785 C 0.46192 0.27666 0.35746 0.0
C4786 C 0.4391 0.28543 0.3339 0.0
C4787 C 0.42493 0.27496 0.34273 0.0
C4788 C 0.42944 0.2652 0.35893 0.0
C4789 C 0.44774 0.2661 0.3663 0.0
C4790 C 0.40569 0.27386 0.33456 0.0
C4791 C 0.39874 0.25661 0.3294 0.0
C4792 C 0.39494 0.28975 0.33037 0.0
C4793 C 0.40099 0.30837 0.33611 0.0
C4794 C 0.40532 0.31218 0.35482 0.0
C4795 C 0.41092 0.32977 0.36013 0.0
C4796 C 0.41209 0.34372 0.34689 0.0
C4797 C 0.40765 0.34011 0.3283 0.0
C4798 C 0.4021 0.32254 0.32291 0.0
C4799 C 0.3206 0.25769 0.30298 0.0
C4800 C 0.31724 0.26882 0.2874 0.0
C4801 C 0.33797 0.25835 0.31206 0.0
C4802 C 0.35257 0.26984 0.30553 0.0
C4803 C 0.34928 0.28088 0.28988 0.0
C4804 C 0.33178 0.28043 0.28095 0.0
C4805 C 0.37104 0.27074 0.3153 0.0
C4806 C 0.37782 0.28795 0.3208 0.0
C4807 C 0.38171 0.25484 0.31965 0.0
C4808 C 0.37597 0.2363 0.31344 0.0
C4809 C 0.37296 0.23258 0.29443 0.0
C4810 C 0.36738 0.21511 0.28871 0.0
C4811 C 0.36489 0.20121 0.30184 0.0
C4812 C 0.36804 0.20474 0.32073 0.0
C4813 C 0.37361 0.22219 0.32653 0.0
H4814 H 0.36057 0.1877 0.29738 0.0
H4815 H 0.41639 0.35734 0.35104 0.0
H4816 H 0.41221 0.56314 0.30115 0.0
H4817 H 0.42765 0.56359 0.33144 0.0
H4818 H 0.46988 0.52507 0.31066 0.0
H4819 H 0.45477 0.52483 0.2801 0.0
H4820 H 0.44892 0.51626 0.34647 0.0
H4821 H 0.48578 0.56334 0.31616 0.0
H4822 H 0.49013 0.59168 0.29804 0.0
H4823 H 0.4593 0.62226 0.34036 0.0
H4824 H 0.45452 0.59405 0.35861 0.0
H4825 H 0.50235 0.51992 0.42963 0.0
H4826 H 0.4922 0.51861 0.39713 0.0
H4827 H 0.46149 0.5696 0.40525 0.0
H4828 H 0.47255 0.5713 0.43738 0.0
H4829 H 0.47926 0.57097 0.3741 0.0
H4830 H 0.43946 0.52566 0.40325 0.0
H4831 H 0.43235 0.49807 0.42177 0.0
H4832 H 0.46488 0.46505 0.3827 0.0
H4833 H 0.47237 0.49249 0.36406 0.0
C4834 C 0.42489 0.5549 0.30298 0.0
C4835 C 0.43231 0.54394 0.28833 0.0
C4836 C 0.43368 0.5552 0.32023 0.0
C4837 C 0.44983 0.54437 0.32314 0.0
C4838 C 0.45741 0.53352 0.30854 0.0
C4839 C 0.44883 0.53347 0.29114 0.0
C4840 C 0.45825 0.54389 0.34176 0.0
C4841 C 0.45589 0.52806 0.35249 0.0
C4842 C 0.46672 0.55954 0.34958 0.0
C4843 C 0.46965 0.57655 0.33867 0.0
C4844 C 0.47978 0.57608 0.32152 0.0
C4845 C 0.48236 0.59213 0.31125 0.0
C4846 C 0.47496 0.60875 0.31802 0.0
C4847 C 0.46501 0.60937 0.33512 0.0
C4848 C 0.46238 0.59336 0.34544 0.0
C4849 C 0.49329 0.53071 0.42441 0.0
C4850 C 0.48813 0.54569 0.43583 0.0
C4851 C 0.48747 0.52995 0.40592 0.0
C4852 C 0.47588 0.5439 0.3988 0.0
C4853 C 0.47049 0.55873 0.41039 0.0
C4854 C 0.47671 0.55968 0.4287 0.0
C4855 C 0.46969 0.54338 0.37916 0.0
C4856 C 0.47245 0.55905 0.36817 0.0
C4857 C 0.4612 0.52768 0.37123 0.0
C4858 C 0.45664 0.51115 0.38237 0.0
C4859 C 0.4452 0.51253 0.39868 0.0
C4860 C 0.44109 0.49692 0.40919 0.0
C4861 C 0.4482 0.47983 0.40345 0.0
C4862 C 0.4594 0.4783 0.38715 0.0
C4863 C 0.46357 0.49387 0.3766 0.0
H4864 H 0.44501 0.46776 0.4116 0.0
H4865 H 0.47697 0.62116 0.31005 0.0
H4866 H 0.25018 0.63673 0.072 0.0
H4867 H 0.24147 0.65612 0.09878 0.0
H4868 H 0.28069 0.69736 0.07944 0.0
H4869 H 0.28947 0.67808 0.05246 0.0
H4870 H 0.28176 0.69104 0.11814 0.0
H4871 H 0.2363 0.70228 0.07058 0.0
H4872 H 0.21216 0.69421 0.04757 0.0
H4873 H 0.17611 0.67306 0.09139 0.0
H4874 H 0.20033 0.68038 0.11457 0.0
H4875 H 0.25005 0.76082 0.17821 0.0
H4876 H 0.25675 0.74509 0.14844 0.0
H4877 H 0.21329 0.7055 0.16178 0.0
H4878 H 0.20604 0.72193 0.19121 0.0
H4879 H 0.21467 0.71178 0.1253 0.0
H4880 H 0.26007 0.69953 0.1728 0.0
H4881 H 0.28361 0.70809 0.19623 0.0
H4882 H 0.31975 0.73046 0.15318 0.0
H4883 H 0.29603 0.72277 0.12953 0.0
C4884 C 0.25717 0.6498 0.07354 0.0
C4885 C 0.27048 0.65591 0.06006 0.0
C4886 C 0.25209 0.6609 0.0888 0.0
C4887 C 0.26029 0.67822 0.09091 0.0
C4888 C 0.27418 0.68404 0.07797 0.0
C4889 C 0.27914 0.67302 0.06257 0.0
C4890 C 0.25392 0.69048 0.10632 0.0
C4891 C 0.26716 0.6958 0.11961 0.0
C4892 C 0.23476 0.6963 0.10832 0.0
C4893 C 0.22027 0.69168 0.09431 0.0
C4894 C 0.22336 0.69565 0.07528 0.0
C4895 C 0.20965 0.69121 0.06219 0.0
C4896 C 0.19265 0.68304 0.06799 0.0
C4897 C 0.18933 0.67929 0.08689 0.0
C4898 C 0.20307 0.68354 0.1 0.0
C4899 C 0.24163 0.74906 0.17441 0.0
C4900 C 0.22763 0.74242 0.18678 0.0
C4901 C 0.24551 0.74003 0.15756 0.0
C4902 C 0.23589 0.72384 0.15318 0.0
C4903 C 0.22096 0.71791 0.16497 0.0
C4904 C 0.21679 0.72724 0.18169 0.0
C4905 C 0.24247 0.71228 0.13722 0.0
C4906 C 0.22928 0.70707 0.12383 0.0
C4907 C 0.26167 0.70644 0.1352 0.0
C4908 C 0.27616 0.71071 0.14939 0.0
C4909 C 0.27296 0.7064 0.16832 0.0
C4910 C 0.28634 0.7111 0.18165 0.0
C4911 C 0.30321 0.7197 0.17619 0.0
C4912 C 0.30668 0.72375 0.15739 0.0
C4913 C 0.29324 0.7193 0.14402 0.0
H4914 H 0.31359 0.72322 0.18653 0.0
H4915 H 0.18202 0.67965 0.05784 0.0
H4916 H 0.1341 0.50787 0.83644 0.0
H4917 H 0.12387 0.5056 0.86907 0.0
H4918 H 0.07027 0.53097 0.8561 0.0
H4919 H 0.08043 0.53346 0.82331 0.0
H4920 H 0.08403 0.5418 0.8907 0.0
H4921 H 0.07262 0.48625 0.85581 0.0
H4922 H 0.08216 0.46056 0.83504 0.0
H4923 H 0.12276 0.44258 0.87502 0.0
H4924 H 0.11363 0.46834 0.89593 0.0
H4925 H 0.02395 0.48724 0.95625 0.0
H4926 H 0.04184 0.48763 0.92665 0.0
H4927 H 0.08831 0.51446 0.95363 0.0
H4928 H 0.07063 0.51416 0.98332 0.0
H4929 H 0.07898 0.47746 0.91243 0.0
H4930 H 0.09609 0.55384 0.9241 0.0
H4931 H 0.08533 0.57981 0.94401 0.0
H4932 H 0.02974 0.55626 0.94889 0.0
H4933 H 0.04007 0.53038 0.92873 0.0
C4934 C 0.12025 0.51327 0.84055 0.0
C4935 C 0.1079 0.52055 0.82726 0.0
C4936 C 0.11446 0.51196 0.85919 0.0
C4937 C 0.09622 0.5178 0.8648 0.0
C4938 C 0.08439 0.52633 0.85191 0.0
C4939 C 0.09019 0.5277 0.83321 0.0
C4940 C 0.08886 0.51341 0.88364 0.0
C4941 C 0.08303 0.52777 0.89553 0.0
C4942 C 0.08737 0.49504 0.88971 0.0
C4943 C 0.09258 0.47932 0.87735 0.0
C4944 C 0.08366 0.47688 0.86012 0.0
C4945 C 0.08898 0.4623 0.84833 0.0
C4946 C 0.1031 0.44998 0.85368 0.0
C4947 C 0.11185 0.45216 0.87088 0.0
C4948 C 0.1066 0.46673 0.88272 0.0
C4949 C 0.03821 0.49274 0.956 0.0
C4950 C 0.04575 0.50102 0.97196 0.0
C4951 C 0.04842 0.49287 0.93912 0.0
C4952 C 0.06615 0.50145 0.93802 0.0
C4953 C 0.07451 0.50804 0.95429 0.0
C4954 C 0.0644 0.5078 0.97121 0.0
C4955 C 0.07443 0.50587 0.9196 0.0
C4956 C 0.08029 0.49151 0.90772 0.0
C4957 C 0.07566 0.52424 0.91345 0.0
C4958 C 0.06903 0.53995 0.92525 0.0
C4959 C 0.08159 0.55421 0.92944 0.0
C4960 C 0.07555 0.56892 0.94073 0.0
C4961 C 0.0569 0.56961 0.9478 0.0
C4962 C 0.04422 0.55564 0.9435 0.0
C4963 C 0.05018 0.54093 0.93216 0.0
H4964 H 0.05227 0.58104 0.95649 0.0
H4965 H 0.10723 0.43872 0.84452 0.0
H4966 H 0.25578 0.33491 0.56331 0.0
H4967 H 0.256 0.31877 0.59326 0.0
H4968 H 0.28234 0.36544 0.61902 0.0
H4969 H 0.28215 0.38161 0.58923 0.0
H4970 H 0.29869 0.33322 0.62986 0.0
H4971 H 0.23558 0.35815 0.62452 0.0
H4972 H 0.2045 0.36303 0.61005 0.0
H4973 H 0.19328 0.30535 0.6129 0.0
H4974 H 0.22445 0.30008 0.6271 0.0
H4975 H 0.2821 0.31471 0.72587 0.0
H4976 H 0.28306 0.32825 0.6947 0.0
H4977 H 0.25191 0.28231 0.67323 0.0
H4978 H 0.24997 0.26919 0.70463 0.0
H4979 H 0.23818 0.31266 0.65938 0.0
H4980 H 0.30046 0.28732 0.66504 0.0
H4981 H 0.3313 0.28185 0.67976 0.0
H4982 H 0.34408 0.33918 0.67627 0.0
H4983 H 0.31317 0.34504 0.66176 0.0
C4984 C 0.26177 0.34167 0.57532 0.0
C4985 C 0.26891 0.35958 0.57386 0.0
C4986 C 0.26179 0.33247 0.59246 0.0
C4987 C 0.26901 0.34095 0.60848 0.0
C4988 C 0.27667 0.3586 0.6069 0.0
C4989 C 0.27651 0.36785 0.58984 0.0
C4990 C 0.26837 0.33167 0.62698 0.0
C4991 C 0.28544 0.32889 0.6364 0.0
C4992 C 0.25114 0.32555 0.63534 0.0
C4993 C 0.23248 0.32869 0.62661 0.0
C4994 C 0.22659 0.34647 0.62185 0.0
C4995 C 0.20893 0.34932 0.61375 0.0
C4996 C 0.19696 0.3345 0.61049 0.0
C4997 C 0.2026 0.31681 0.61537 0.0
C4998 C 0.22026 0.31388 0.62344 0.0
C4999 C 0.27537 0.30753 0.71452 0.0
C5000 C 0.26593 0.29089 0.71774 0.0
C5001 C 0.27603 0.31523 0.69666 0.0
C5002 C 0.26769 0.30624 0.68149 0.0
C5003 C 0.2583 0.2896 0.6847 0.0
C5004 C 0.25726 0.28208 0.70265 0.0
C5005 C 0.2685 0.31432 0.66237 0.0
C5006 C 0.25146 0.31688 0.65283 0.0
C5007 C 0.28577 0.32012 0.65384 0.0
C5008 C 0.30442 0.31664 0.66246 0.0
C5009 C 0.30978 0.29878 0.66753 0.0
C5010 C 0.32729 0.29561 0.67582 0.0
C5011 C 0.33962 0.31016 0.67899 0.0
C5012 C 0.3345 0.32792 0.67382 0.0
C5013 C 0.31699 0.33118 0.66555 0.0
H5014 H 0.35317 0.30768 0.68541 0.0
H5015 H 0.18328 0.33673 0.60423 0.0
H5016 H 0.40961 0.58039 0.19596 0.0
H5017 H 0.42425 0.57817 0.16468 0.0
H5018 H 0.38504 0.53549 0.15027 0.0
H5019 H 0.36997 0.53795 0.18132 0.0
H5020 H 0.42686 0.52694 0.15144 0.0
H5021 H 0.38144 0.56845 0.12542 0.0
H5022 H 0.36323 0.59732 0.12352 0.0
H5023 H 0.41509 0.6274 0.11661 0.0
H5024 H 0.43364 0.59872 0.11875 0.0
H5025 H 0.46783 0.50364 0.06452 0.0
H5026 H 0.4453 0.51198 0.08945 0.0
H5027 H 0.47213 0.56469 0.09499 0.0
H5028 H 0.49421 0.55678 0.06926 0.0
H5029 H 0.43489 0.56869 0.09748 0.0
H5030 H 0.48064 0.52984 0.12581 0.0
H5031 H 0.5007 0.50233 0.12944 0.0
H5032 H 0.45086 0.46899 0.13467 0.0
H5033 H 0.43049 0.49629 0.1308 0.0
C5034 C 0.4037 0.571 0.18588 0.0
C5035 C 0.38882 0.55922 0.19106 0.0
C5036 C 0.41201 0.5698 0.16805 0.0
C5037 C 0.4057 0.55665 0.15532 0.0
C5038 C 0.38997 0.54578 0.15997 0.0
C5039 C 0.3814 0.54722 0.17767 0.0
C5040 C 0.41759 0.55203 0.13878 0.0
C5041 C 0.42836 0.53585 0.13942 0.0
C5042 C 0.42006 0.56417 0.12367 0.0
C5043 C 0.40894 0.58144 0.12245 0.0
C5044 C 0.38898 0.58124 0.1237 0.0
C5045 C 0.37859 0.59756 0.12253 0.0
C5046 C 0.38799 0.61419 0.12 0.0
C5047 C 0.40782 0.61451 0.11859 0.0
C5048 C 0.41828 0.59822 0.11977 0.0
C5049 C 0.46894 0.51704 0.07099 0.0
C5050 C 0.48277 0.52957 0.06492 0.0
C5051 C 0.45609 0.52175 0.0853 0.0
C5052 C 0.45719 0.53887 0.09422 0.0
C5053 C 0.47103 0.55142 0.08825 0.0
C5054 C 0.48374 0.54681 0.0737 0.0
C5055 C 0.4441 0.54345 0.11003 0.0
C5056 C 0.43327 0.55966 0.10938 0.0
C5057 C 0.44184 0.53155 0.12543 0.0
C5058 C 0.45405 0.51509 0.12782 0.0
C5059 C 0.47396 0.51663 0.12759 0.0
C5060 C 0.48538 0.50107 0.12971 0.0
C5061 C 0.47706 0.48392 0.13223 0.0
C5062 C 0.45729 0.48229 0.13268 0.0
C5063 C 0.4458 0.4978 0.13054 0.0
H5064 H 0.48593 0.47189 0.13387 0.0
H5065 H 0.37992 0.62681 0.11909 0.0
H5066 H 0.30446 0.64999 0.93151 0.0
H5067 H 0.31093 0.66749 0.90345 0.0
H5068 H 0.3146 0.71701 0.93649 0.0
H5069 H 0.30721 0.69951 0.96479 0.0
H5070 H 0.29141 0.72204 0.91008 0.0
H5071 H 0.354 0.69789 0.91121 0.0
H5072 H 0.37913 0.67446 0.91415 0.0
H5073 H 0.3589 0.64645 0.86564 0.0
H5074 H 0.33343 0.6695 0.86257 0.0
H5075 H 0.30349 0.7708 0.82706 0.0
H5076 H 0.3148 0.7562 0.85526 0.0
H5077 H 0.29637 0.70369 0.83479 0.0
H5078 H 0.28491 0.7182 0.80633 0.0
H5079 H 0.33239 0.70378 0.85571 0.0
H5080 H 0.26642 0.72468 0.8597 0.0
H5081 H 0.2415 0.74829 0.85638 0.0
H5082 H 0.26952 0.78273 0.89593 0.0
H5083 H 0.2948 0.75943 0.89921 0.0
C5084 C 0.30696 0.66456 0.9329 0.0
C5085 C 0.30511 0.67344 0.95031 0.0
C5086 C 0.31089 0.67454 0.91681 0.0
C5087 C 0.3135 0.69355 0.91785 0.0
C5088 C 0.31268 0.70233 0.93538 0.0
C5089 C 0.30843 0.69235 0.95152 0.0
C5090 C 0.31435 0.70435 0.90044 0.0
C5091 C 0.30079 0.71834 0.89841 0.0
C5092 C 0.32629 0.6993 0.88503 0.0
C5093 C 0.34173 0.68544 0.8867 0.0
C5094 C 0.35482 0.68668 0.90122 0.0
C5095 C 0.36915 0.67346 0.9029 0.0
C5096 C 0.37061 0.65899 0.89008 0.0
C5097 C 0.35776 0.65769 0.87555 0.0
C5098 C 0.34339 0.67085 0.87381 0.0
C5099 C 0.30208 0.75609 0.82837 0.0
C5100 C 0.29298 0.74566 0.81464 0.0
C5101 C 0.30869 0.74779 0.84443 0.0
C5102 C 0.30628 0.72896 0.84705 0.0
C5103 C 0.29839 0.71826 0.83287 0.0
C5104 C 0.29172 0.72658 0.81674 0.0
C5105 C 0.30935 0.72101 0.86558 0.0
C5106 C 0.32348 0.70763 0.86767 0.0
C5107 C 0.29804 0.72661 0.88115 0.0
C5108 C 0.28259 0.74042 0.87954 0.0
C5109 C 0.26733 0.73734 0.86758 0.0
C5110 C 0.25314 0.75065 0.86572 0.0
C5111 C 0.25395 0.76702 0.8759 0.0
C5112 C 0.26893 0.77006 0.88802 0.0
C5113 C 0.28319 0.75681 0.88989 0.0
H5114 H 0.24296 0.77732 0.87442 0.0
H5115 H 0.38171 0.64877 0.89141 0.0
H5116 H 0.13593 0.48271 0.70743 0.0
H5117 H 0.11861 0.4904 0.67927 0.0
H5118 H 0.06719 0.49813 0.71234 0.0
H5119 H 0.08429 0.49027 0.74051 0.0
H5120 H 0.06024 0.48315 0.67783 0.0
H5121 H 0.0938 0.53374 0.7041 0.0
H5122 H 0.12188 0.54936 0.71645 0.0
H5123 H 0.15057 0.54353 0.66319 0.0
H5124 H 0.12277 0.52754 0.65061 0.0
H5125 H 0.01327 0.54391 0.616 0.0
H5126 H 0.02944 0.53457 0.64461 0.0
H5127 H 0.07896 0.51875 0.61161 0.0
H5128 H 0.06271 0.52772 0.58313 0.0
H5129 H 0.08614 0.5385 0.64661 0.0
H5130 H 0.05187 0.48693 0.62107 0.0
H5131 H 0.02314 0.47191 0.60941 0.0
H5132 H 0.99481 0.48091 0.66243 0.0
H5133 H 0.0233 0.49629 0.6743 0.0
C5134 C 0.12084 0.4856 0.70864 0.0
C5135 C 0.11152 0.48625 0.72618 0.0
C5136 C 0.111 0.49003 0.69257 0.0
C5137 C 0.09178 0.49521 0.69388 0.0
C5138 C 0.08207 0.49428 0.71112 0.0
C5139 C 0.09188 0.48986 0.72719 0.0
C5140 C 0.08235 0.50343 0.67775 0.0
C5141 C 0.06579 0.49533 0.6711 0.0
C5142 C 0.08965 0.51935 0.66906 0.0
C5143 C 0.10627 0.52928 0.67647 0.0
C5144 C 0.10614 0.53567 0.69505 0.0
C5145 C 0.122 0.5446 0.7021 0.0
C5146 C 0.13801 0.54739 0.69063 0.0
C5147 C 0.13817 0.54132 0.67207 0.0
C5148 C 0.12236 0.53233 0.66497 0.0
C5149 C 0.02773 0.53877 0.61503 0.0
C5150 C 0.03681 0.53635 0.59756 0.0
C5151 C 0.03688 0.53341 0.63124 0.0
C5152 C 0.05529 0.52591 0.63006 0.0
C5153 C 0.06476 0.52453 0.61271 0.0
C5154 C 0.05549 0.52954 0.59653 0.0
C5155 C 0.06419 0.5181 0.64663 0.0
C5156 C 0.08062 0.52633 0.65338 0.0
C5157 C 0.05666 0.50243 0.65552 0.0
C5158 C 0.03963 0.49295 0.6485 0.0
C5159 C 0.03946 0.48586 0.63019 0.0
C5160 C 0.02323 0.47725 0.62354 0.0
C5161 C 0.00714 0.4755 0.63515 0.0
C5162 C 0.00727 0.4823 0.65344 0.0
C5163 C 0.02346 0.49096 0.66013 0.0
H5164 H 0.99458 0.46884 0.62998 0.0
H5165 H 0.15028 0.5543 0.69611 0.0
H5166 H 0.26066 0.39898 0.44061 0.0
H5167 H 0.26031 0.38241 0.41103 0.0
H5168 H 0.26254 0.33104 0.44037 0.0
H5169 H 0.26341 0.34771 0.4703 0.0
H5170 H 0.28445 0.32941 0.40917 0.0
H5171 H 0.22036 0.34791 0.42327 0.0
H5172 H 0.19447 0.36944 0.43202 0.0
H5173 H 0.20636 0.40106 0.38283 0.0
H5174 H 0.23249 0.37985 0.37391 0.0
H5175 H 0.25233 0.27599 0.33286 0.0
H5176 H 0.25308 0.29177 0.36301 0.0
H5177 H 0.25912 0.34358 0.335 0.0
H5178 H 0.25859 0.32783 0.30461 0.0
H5179 H 0.2326 0.34414 0.3657 0.0
H5180 H 0.29686 0.32534 0.3518 0.0
H5181 H 0.32186 0.303 0.34266 0.0
H5182 H 0.30883 0.27113 0.39142 0.0
H5183 H 0.2835 0.29312 0.40068 0.0
C5184 C 0.26115 0.38414 0.44087 0.0
C5185 C 0.26184 0.37468 0.45792 0.0
C5186 C 0.26087 0.37466 0.42387 0.0
C5187 C 0.26094 0.35544 0.42341 0.0
C5188 C 0.26234 0.34588 0.44034 0.0
C5189 C 0.26282 0.35542 0.45745 0.0
C5190 C 0.2591 0.34551 0.40523 0.0
C5191 C 0.27295 0.33245 0.39982 0.0
C5192 C 0.24429 0.34966 0.39276 0.0
C5193 C 0.22849 0.36237 0.39801 0.0
C5194 C 0.21753 0.35952 0.41439 0.0
C5195 C 0.20281 0.37166 0.41936 0.0
C5196 C 0.1988 0.38663 0.40801 0.0
C5197 C 0.20949 0.38947 0.39162 0.0
C5198 C 0.22425 0.37738 0.38659 0.0
C5199 C 0.25361 0.29077 0.33304 0.0
C5200 C 0.25541 0.30064 0.31627 0.0
C5201 C 0.25414 0.29976 0.35033 0.0
C5202 C 0.25635 0.31882 0.35127 0.0
C5203 C 0.25744 0.32884 0.33459 0.0
C5204 C 0.25713 0.31982 0.31724 0.0
C5205 C 0.25796 0.32819 0.36968 0.0
C5206 C 0.24407 0.34111 0.37511 0.0
C5207 C 0.27265 0.32384 0.38216 0.0
C5208 C 0.28815 0.31079 0.37684 0.0
C5209 C 0.29923 0.3135 0.36051 0.0
C5210 C 0.31347 0.30091 0.3553 0.0
C5211 C 0.3169 0.28563 0.36642 0.0
C5212 C 0.30614 0.28296 0.3828 0.0
C5213 C 0.29184 0.29549 0.38804 0.0
H5214 H 0.32791 0.27589 0.36236 0.0
H5215 H 0.1874 0.39602 0.41189 0.0
H5216 H 0.309 0.4589 0.49819 0.0
H5217 H 0.34022 0.4724 0.50148 0.0
H5218 H 0.35731 0.42725 0.53598 0.0
H5219 H 0.32572 0.41354 0.5329 0.0
H5220 H 0.36828 0.46083 0.55028 0.0
H5221 H 0.37318 0.42926 0.49151 0.0
H5222 H 0.36338 0.42044 0.45985 0.0
H5223 H 0.36749 0.47644 0.44231 0.0
H5224 H 0.37705 0.48564 0.47394 0.0
H5225 H 0.46631 0.48534 0.54543 0.0
H5226 H 0.43545 0.47041 0.54539 0.0
H5227 H 0.41602 0.50882 0.50426 0.0
H5228 H 0.44728 0.52327 0.5036 0.0
H5229 H 0.40687 0.47656 0.49392 0.0
H5230 H 0.40048 0.50865 0.55271 0.0
H5231 H 0.40984 0.5179 0.58439 0.0
H5232 H 0.40814 0.46179 0.60195 0.0
H5233 H 0.399 0.45217 0.57031 0.0
C5234 C 0.31933 0.45172 0.50648 0.0
C5235 C 0.3148 0.43503 0.51522 0.0
C5236 C 0.33726 0.45948 0.50829 0.0
C5237 C 0.35121 0.45075 0.51877 0.0
C5238 C 0.34677 0.4342 0.52775 0.0
C5239 C 0.32874 0.42635 0.52592 0.0
C5240 C 0.37034 0.45912 0.52028 0.0
C5241 C 0.37689 0.46402 0.53799 0.0
C5242 C 0.38136 0.46367 0.50422 0.0
C5243 C 0.37569 0.45816 0.48515 0.0
C5244 C 0.37186 0.43972 0.48094 0.0
C5245 C 0.36637 0.43465 0.46299 0.0
C5246 C 0.36478 0.44788 0.44909 0.0
C5247 C 0.36871 0.46621 0.4531 0.0
C5248 C 0.37419 0.47135 0.47103 0.0
C5249 C 0.45538 0.49083 0.5366 0.0
C5250 C 0.45926 0.50555 0.52454 0.0
C5251 C 0.43765 0.48228 0.53664 0.0
C5252 C 0.42321 0.48854 0.52497 0.0
C5253 C 0.42689 0.50366 0.51338 0.0
C5254 C 0.44474 0.512 0.51308 0.0
C5255 C 0.40474 0.4787 0.52394 0.0
C5256 C 0.39833 0.47341 0.50627 0.0
C5257 C 0.39383 0.4739 0.54004 0.0
C5258 C 0.39923 0.47968 0.55909 0.0
C5259 C 0.40223 0.49827 0.5633 0.0
C5260 C 0.40747 0.50358 0.58125 0.0
C5261 C 0.40963 0.49043 0.59516 0.0
C5262 C 0.40649 0.47195 0.59116 0.0
C5263 C 0.40126 0.46657 0.57322 0.0
H5264 H 0.4137 0.49457 0.60905 0.0
H5265 H 0.36053 0.44392 0.4352 0.0
H5266 H 0.83888 0.1222 0.5019 0.0
H5267 H 0.87129 0.11066 0.49794 0.0
H5268 H 0.85045 0.05515 0.4979 0.0
H5269 H 0.81795 0.06667 0.50273 0.0
H5270 H 0.88034 0.05674 0.51747 0.0
H5271 H 0.86529 0.07779 0.45677 0.0
H5272 H 0.8538 0.09955 0.43329 0.0
H5273 H 0.89842 0.13685 0.44686 0.0
H5274 H 0.91003 0.11543 0.47062 0.0
H5275 H 0.96568 0.01759 0.4883 0.0
H5276 H 0.93448 0.03021 0.48149 0.0
H5277 H 0.95219 0.0834 0.50068 0.0
H5278 H 0.98357 0.07087 0.50774 0.0
H5279 H 0.9239 0.08181 0.46862 0.0
H5280 H 0.93585 0.06072 0.53176 0.0
H5281 H 0.94767 0.03776 0.55361 0.0
H5282 H 0.90742 -0.00127 0.53347 0.0
H5283 H 0.8958 0.02144 0.51091 0.0
C5284 C 0.84123 0.10752 0.50115 0.0
C5285 C 0.82595 0.0953 0.50257 0.0
C5286 C 0.85973 0.10096 0.49869 0.0
C5287 C 0.86324 0.08207 0.49709 0.0
C5288 C 0.84803 0.0698 0.49895 0.0
C5289 C 0.82951 0.07636 0.50178 0.0
C5290 C 0.88289 0.07516 0.49414 0.0
C5291 C 0.88968 0.06201 0.50655 0.0
C5292 C 0.89523 0.08221 0.48003 0.0
C5293 C 0.88844 0.09505 0.46559 0.0
C5294 C 0.87259 0.09068 0.45483 0.0
C5295 C 0.86606 0.10295 0.44146 0.0
C5296 C 0.87535 0.11959 0.43861 0.0
C5297 C 0.89123 0.12396 0.44909 0.0
C5298 C 0.89781 0.11175 0.4625 0.0
C5299 C 0.96318 0.0321 0.49058 0.0
C5300 C 0.97693 0.04317 0.49895 0.0
C5301 C 0.94538 0.03928 0.48656 0.0
C5302 C 0.94108 0.05762 0.4908 0.0
C5303 C 0.95536 0.0692 0.49728 0.0
C5304 C 0.97322 0.062 0.5014 0.0
C5305 C 0.92107 0.06359 0.49197 0.0
C5306 C 0.91432 0.0765 0.47933 0.0
C5307 C 0.9086 0.05618 0.50565 0.0
C5308 C 0.91514 0.04269 0.51952 0.0
C5309 C 0.92965 0.0472 0.53187 0.0
C5310 C 0.9363 0.03421 0.5444 0.0
C5311 C 0.9283 0.01674 0.54499 0.0
C5312 C 0.91362 0.01225 0.53299 0.0
C5313 C 0.90703 0.02517 0.52029 0.0
H5314 H 0.93342 0.00669 0.55475 0.0
H5315 H 0.87026 0.12907 0.42826 0.0
H5316 H 0.67585 0.04546 0.28066 0.0
H5317 H 0.69468 0.07327 0.27738 0.0
H5318 H 0.65342 0.09559 0.23999 0.0
H5319 H 0.63413 0.068 0.24354 0.0
H5320 H 0.69431 0.09671 0.22792 0.0
H5321 H 0.65154 0.11224 0.27977 0.0
H5322 H 0.6363 0.10679 0.31055 0.0
H5323 H 0.69093 0.10626 0.33609 0.0
H5324 H 0.70652 0.11144 0.3054 0.0
H5325 H 0.72585 0.18754 0.22132 0.0
H5326 H 0.70754 0.15944 0.22487 0.0
H5327 H 0.73765 0.14699 0.27524 0.0
H5328 H 0.75519 0.17582 0.27213 0.0
H5329 H 0.70293 0.1398 0.28093 0.0
H5330 H 0.74654 0.12428 0.23141 0.0
H5331 H 0.76385 0.1278 0.20134 0.0
H5332 H 0.71125 0.12566 0.17217 0.0
H5333 H 0.69359 0.12238 0.20208 0.0
C5334 C 0.67073 0.05626 0.27173 0.0
C5335 C 0.65353 0.05448 0.26225 0.0
C5336 C 0.6815 0.07212 0.26992 0.0
C5337 C 0.67536 0.08636 0.25847 0.0
C5338 C 0.65833 0.08464 0.24886 0.0
C5339 C 0.64736 0.06889 0.25091 0.0
C5340 C 0.68683 0.10304 0.25653 0.0
C5341 C 0.69605 0.10632 0.23938 0.0
C5342 C 0.68959 0.11502 0.27179 0.0
C5343 C 0.68021 0.11204 0.29026 0.0
C5344 C 0.66032 0.1108 0.29192 0.0
C5345 C 0.65161 0.10779 0.30936 0.0
C5346 C 0.66264 0.10613 0.32526 0.0
C5347 C 0.6824 0.10753 0.32376 0.0
C5348 C 0.69118 0.11051 0.30635 0.0
C5349 C 0.72861 0.17867 0.23303 0.0
C5350 C 0.74197 0.18359 0.24637 0.0
C5351 C 0.71824 0.1626 0.23503 0.0
C5352 C 0.72152 0.15084 0.25009 0.0
C5353 C 0.73492 0.15579 0.26346 0.0
C5354 C 0.74495 0.17216 0.2617 0.0
C5355 C 0.71049 0.13372 0.25216 0.0
C5356 C 0.70134 0.13027 0.26939 0.0
C5357 C 0.70816 0.12134 0.23706 0.0
C5358 C 0.71873 0.12325 0.21901 0.0
C5359 C 0.73865 0.12469 0.21859 0.0
C5360 C 0.74853 0.12662 0.20157 0.0
C5361 C 0.73865 0.127 0.18486 0.0
C5362 C 0.71888 0.12539 0.18513 0.0
C5363 C 0.70893 0.12347 0.20211 0.0
H5364 H 0.74632 0.1285 0.1717 0.0
H5365 H 0.65588 0.1038 0.33875 0.0
H5366 H 0.71092 0.93712 0.01072 0.0
H5367 H 0.67949 0.95141 0.01213 0.0
H5368 H 0.65765 0.90499 0.0427 0.0
H5369 H 0.68893 0.8901 0.04012 0.0
H5370 H 0.63211 0.91482 0.02126 0.0
H5371 H 0.66901 0.94825 0.06412 0.0
H5372 H 0.69633 0.96574 0.07552 0.0
H5373 H 0.68587 0.00778 0.03529 0.0
H5374 H 0.65863 0.99043 0.02347 0.0
H5375 H 0.56598 -0.00162 0.05209 0.0
H5376 H 0.59451 0.97962 0.05576 0.0
H5377 H 0.58766 0.95723 0.00037 0.0
H5378 H 0.5588 0.97549 -0.00311 0.0
H5379 H 0.62649 0.98043 0.03914 0.0
H5380 H 0.60526 0.91681 -0.00498 0.0
H5381 H 0.57723 0.89731 0.99023 0.0
H5382 H 0.55504 0.91254 0.04451 0.0
H5383 H 0.5827 0.93243 0.04944 0.0
C5384 C 0.69938 0.92996 0.01769 0.0
C5385 C 0.70234 0.91259 0.02544 0.0
C5386 C 0.68143 0.93819 0.01863 0.0
C5387 C 0.66622 0.92956 0.02799 0.0
C5388 C 0.66912 0.91201 0.03547 0.0
C5389 C 0.68699 0.90352 0.03404 0.0
C5390 C 0.64735 0.93887 0.02987 0.0
C5391 C 0.63093 0.92915 0.02524 0.0
C5392 C 0.64553 0.95741 0.03572 0.0
C5393 C 0.66186 0.96796 0.04282 0.0
C5394 C 0.6726 0.96117 0.05763 0.0
C5395 C 0.68807 0.97107 0.06418 0.0
C5396 C 0.69286 0.98784 0.05611 0.0
C5397 C 0.68215 -0.00522 0.04151 0.0
C5398 C 0.66668 0.98493 0.0349 0.0
C5399 C 0.5705 0.98938 0.04073 0.0
C5400 C 0.56018 0.98847 0.02416 0.0
C5401 C 0.58681 0.97863 0.04286 0.0
C5402 C 0.59321 0.96684 0.02843 0.0
C5403 C 0.58283 0.96588 0.0119 0.0
C5404 C 0.56642 0.97648 0.00984 0.0
C5405 C 0.61138 0.9565 0.03009 0.0
C5406 C 0.62768 0.96606 0.03533 0.0
C5407 C 0.61294 0.93761 0.02571 0.0
C5408 C 0.59598 0.92618 0.02252 0.0
C5409 C 0.59435 0.91604 0.00588 0.0
C5410 C 0.57849 0.90499 0.00312 0.0
C5411 C 0.56431 0.90377 0.01702 0.0
C5412 C 0.56595 0.91362 0.03369 0.0
C5413 C 0.58163 0.9249 0.03641 0.0
H5414 H 0.55208 0.89515 0.01489 0.0
H5415 H 0.70484 -0.00452 0.06119 0.0
H5416 H 0.3929 0.4734 0.2147 0.0
H5417 H 0.38035 0.44219 0.21499 0.0
H5418 H 0.35123 0.45344 0.26747 0.0
H5419 H 0.36346 0.48472 0.2672 0.0
H5420 H 0.36999 0.41715 0.2639 0.0
H5421 H 0.32635 0.4582 0.23245 0.0
H5422 H 0.31839 0.48127 0.20879 0.0
H5423 H 0.33708 0.44438 0.16507 0.0
H5424 H 0.34541 0.42119 0.18852 0.0
H5425 H 0.29508 0.35326 0.26884 0.0
H5426 H 0.31582 0.38001 0.26899 0.0
H5427 H 0.32958 0.37088 0.21058 0.0
H5428 H 0.3084 0.34446 0.21033 0.0
H5429 H 0.32182 0.40486 0.21587 0.0
H5430 H 0.36177 0.36203 0.24619 0.0
H5431 H 0.37062 0.33862 0.26916 0.0
H5432 H 0.36095 0.3773 0.31385 0.0
H5433 H 0.35172 0.40087 0.29118 0.0
C5434 C 0.38403 0.46915 0.22642 0.0
C5435 C 0.37898 0.48154 0.24083 0.0
C5436 C 0.37692 0.45135 0.22656 0.0
C5437 C 0.36489 0.44564 0.24123 0.0
C5438 C 0.36058 0.45765 0.25609 0.0
C5439 C 0.36744 0.47553 0.25582 0.0
C5440 C 0.35528 0.4278 0.24024 0.0
C5441 C 0.35938 0.41438 0.2535 0.0
C5442 C 0.34187 0.4242 0.22633 0.0
C5443 C 0.33671 0.43806 0.21223 0.0
C5444 C 0.32892 0.45508 0.2178 0.0
C5445 C 0.32431 0.46816 0.20443 0.0
C5446 C 0.32729 0.46432 0.18544 0.0
C5447 C 0.33482 0.44736 0.17979 0.0
C5448 C 0.33948 0.43424 0.19311 0.0
C5449 C 0.30268 0.35692 0.25611 0.0
C5450 C 0.30013 0.34691 0.23956 0.0
C5451 C 0.3146 0.37211 0.25621 0.0
C5452 C 0.32449 0.37729 0.23985 0.0
C5453 C 0.3221 0.36713 0.22336 0.0
C5454 C 0.30995 0.35212 0.2232 0.0
C5455 C 0.33635 0.39396 0.23965 0.0
C5456 C 0.33262 0.40731 0.22616 0.0
C5457 C 0.35026 0.39733 0.25324 0.0
C5458 C 0.35589 0.3832 0.26696 0.0
C5459 C 0.36138 0.36552 0.26092 0.0
C5460 C 0.36649 0.35222 0.27389 0.0
C5461 C 0.36631 0.35646 0.29295 0.0
C5462 C 0.36107 0.37403 0.29908 0.0
C5463 C 0.35591 0.38737 0.28617 0.0
H5464 H 0.37024 0.34614 0.30297 0.0
H5465 H 0.32371 0.47446 0.17511 0.0
H5466 H 0.21318 0.64716 -0.0002 0.0
H5467 H 0.18276 0.63298 0.00813 0.0
H5468 H 0.20597 0.57982 0.99345 0.0
H5469 H 0.23628 0.59383 0.98496 0.0
H5470 H 0.16983 0.58412 0.98192 0.0
H5471 H 0.20578 0.59437 0.0374 0.0
H5472 H 0.22328 0.61341 0.0597 0.0
H5473 H 0.17266 0.64482 0.07185 0.0
H5474 H 0.15505 0.62639 0.04919 0.0
H5475 H 0.10682 0.53831 0.05749 0.0
H5476 H 0.13632 0.55421 0.04885 0.0
H5477 H 0.10635 0.58503 0.0074 0.0
H5478 H 0.07697 0.56946 0.01607 0.0
H5479 H 0.14677 0.59081 0.04764 0.0
H5480 H 0.13637 0.58673 0.96752 0.0
H5481 H 0.12139 0.56734 0.94385 0.0
H5482 H 0.12226 0.52163 0.98127 0.0
H5483 H 0.13794 0.54059 0.00497 0.0
C5484 C 0.21167 0.6325 -0.00199 0.0
C5485 C 0.22712 0.62155 0.99192 0.0
C5486 C 0.19436 0.62444 0.00288 0.0
C5487 C 0.19233 0.60536 0.00171 0.0
C5488 C 0.20735 0.59456 0.99454 0.0
C5489 C 0.22464 0.60259 0.98972 0.0
C5490 C 0.17489 0.59644 0.0087 0.0
C5491 C 0.16468 0.58564 -0.00375 0.0
C5492 C 0.16855 0.59822 0.02752 0.0
C5493 C 0.17913 0.60911 0.04142 0.0
C5494 C 0.19843 0.60546 0.04468 0.0
C5495 C 0.20839 0.61618 0.05739 0.0
C5496 C 0.19914 0.63042 0.06712 0.0
C5497 C 0.17989 0.6339 0.06423 0.0
C5498 C 0.16991 0.62334 0.05144 0.0
C5499 C 0.10651 0.54868 0.04677 0.0
C5500 C 0.08972 0.55241 0.03722 0.0
C5501 C 0.12332 0.5577 0.04182 0.0
C5502 C 0.12349 0.57049 0.02726 0.0
C5503 C 0.10654 0.57491 0.01841 0.0
C5504 C 0.08981 0.56595 0.02333 0.0
C5505 C 0.14148 0.57874 0.02073 0.0
C5506 C 0.15183 0.58937 0.03328 0.0
C5507 C 0.14805 0.57671 0.00199 0.0
C5508 C 0.13814 0.56519 0.98812 0.0
C5509 C 0.13338 0.57254 0.97072 0.0
C5510 C 0.1248 0.56161 0.95727 0.0
C5511 C 0.12078 0.54328 0.96108 0.0
C5512 C 0.12532 0.53585 0.97837 0.0
C5513 C 0.13409 0.5467 0.99182 0.0
H5514 H 0.11432 0.53482 0.95055 0.0
H5515 H 0.20687 0.63871 0.07695 0.0
H5516 H 0.70196 0.97158 0.29914 0.0
H5517 H 0.72429 0.9475 0.30806 0.0
H5518 H 0.67796 0.90925 0.31288 0.0
H5519 H 0.65559 0.93331 0.30466 0.0
H5520 H 0.70401 0.90157 0.33797 0.0
H5521 H 0.70344 0.91521 0.2712 0.0
H5522 H 0.70749 0.93534 0.24387 0.0
H5523 H 0.76523 0.94564 0.25879 0.0
H5524 H 0.76141 0.92571 0.28635 0.0
H5525 H 0.72604 0.8169 0.29763 0.0
H5526 H 0.71554 0.84712 0.30829 0.0
H5527 H 0.77333 0.8664 0.30519 0.0
H5528 H 0.78401 0.83611 0.29427 0.0
H5529 H 0.74957 0.88755 0.28591 0.0
H5530 H 0.75065 0.86429 0.34747 0.0
H5531 H 0.74493 0.84201 0.37267 0.0
H5532 H 0.68471 0.84761 0.36604 0.0
H5533 H 0.69004 0.86971 0.34061 0.0
C5534 C 0.69653 0.95812 0.30246 0.0
C5535 C 0.67711 0.95419 0.30086 0.0
C5536 C 0.70928 0.9444 0.30758 0.0
C5537 C 0.70281 0.92652 0.31078 0.0
C5538 C 0.68326 0.92295 0.31047 0.0
C5539 C 0.6705 0.93669 0.30562 0.0
C5540 C 0.71627 0.91096 0.31196 0.0
C5541 C 0.71408 0.8985 0.32668 0.0
C5542 C 0.72977 0.90725 0.29746 0.0
C5543 C 0.73206 0.91921 0.28094 0.0
C5544 C 0.71695 0.92188 0.26871 0.0
C5545 C 0.71921 0.93323 0.25318 0.0
C5546 C 0.73659 0.94182 0.24964 0.0
C5547 C 0.75176 0.93902 0.26159 0.0
C5548 C 0.74956 0.92771 0.27716 0.0
C5549 C 0.73657 0.82748 0.29943 0.0
C5550 C 0.75582 0.8242 0.29494 0.0
C5551 C 0.73058 0.84469 0.30574 0.0
C5552 C 0.74371 0.8589 0.30778 0.0
C5553 C 0.76303 0.85553 0.30386 0.0
C5554 C 0.76907 0.83827 0.29757 0.0
C5555 C 0.73671 0.87772 0.31149 0.0
C5556 C 0.7401 0.89084 0.29764 0.0
C5557 C 0.72411 0.88182 0.32661 0.0
C5558 C 0.72077 0.86867 0.34208 0.0
C5559 C 0.73618 0.86071 0.35131 0.0
C5560 C 0.733 0.84811 0.36565 0.0
C5561 C 0.71447 0.8434 0.37095 0.0
C5562 C 0.69906 0.8513 0.36194 0.0
C5563 C 0.70215 0.86389 0.34758 0.0
H5564 H 0.71204 0.83363 0.38205 0.0
H5565 H 0.73831 0.9506 0.2376 0.0
H5566 H 0.83536 0.09485 0.78511 0.0
H5567 H 0.81086 0.11843 0.78748 0.0
H5568 H 0.77582 0.08762 0.74998 0.0
H5569 H 0.80045 0.06382 0.74754 0.0
H5570 H 0.78412 0.12098 0.73667 0.0
H5571 H 0.75752 0.09894 0.79292 0.0
H5572 H 0.75676 0.0857 0.82451 0.0
H5573 H 0.78538 0.13291 0.84588 0.0
H5574 H 0.78659 0.14634 0.81441 0.0
H5575 H 0.74903 0.21429 0.73855 0.0
H5576 H 0.74807 0.1807 0.73991 0.0
H5577 H 0.7906 0.1814 0.78248 0.0
H5578 H 0.79112 0.21468 0.78164 0.0
H5579 H 0.76347 0.15825 0.79165 0.0
H5580 H 0.80001 0.17301 0.73399 0.0
H5581 H 0.80325 0.18574 0.70224 0.0
H5582 H 0.75773 0.15167 0.68382 0.0
H5583 H 0.75407 0.13892 0.71556 0.0
C5584 C 0.82218 0.09279 0.77786 0.0
C5585 C 0.81991 0.07769 0.76592 0.0
C5586 C 0.80808 0.10621 0.77934 0.0
C5587 C 0.79149 0.10476 0.76891 0.0
C5588 C 0.7885 0.08893 0.75819 0.0
C5589 C 0.80257 0.07537 0.75683 0.0
C5590 C 0.77955 0.12128 0.76657 0.0
C5591 C 0.77897 0.12892 0.74863 0.0
C5592 C 0.77288 0.1316 0.78215 0.0
C5593 C 0.7721 0.12367 0.80124 0.0
C5594 C 0.76373 0.10648 0.80433 0.0
C5595 C 0.76322 0.09894 0.82223 0.0
C5596 C 0.771 0.10846 0.83719 0.0
C5597 C 0.77931 0.12556 0.83429 0.0
C5598 C 0.77986 0.13317 0.81642 0.0
C5599 C 0.75822 0.20719 0.74811 0.0
C5600 C 0.7702 0.21702 0.75996 0.0
C5601 C 0.75759 0.18806 0.74892 0.0
C5602 C 0.76923 0.17857 0.76132 0.0
C5603 C 0.78131 0.18844 0.77297 0.0
C5604 C 0.78172 0.20746 0.77237 0.0
C5605 C 0.76971 0.15833 0.76206 0.0
C5606 C 0.76788 0.15001 0.77964 0.0
C5607 C 0.77441 0.14744 0.74619 0.0
C5608 C 0.77657 0.15523 0.72719 0.0
C5609 C 0.79059 0.16836 0.72321 0.0
C5610 C 0.79251 0.17556 0.70521 0.0
C5611 C 0.78065 0.16957 0.69104 0.0
C5612 C 0.76686 0.15634 0.69483 0.0
C5613 C 0.76485 0.14914 0.71281 0.0
H5614 H 0.78217 0.17514 0.67711 0.0
H5615 H 0.7706 0.10259 0.85104 0.0
loop_
_geom_bond_atom_site_label_1
_geom_bond_atom_site_label_2
_geom_bond_distance
_geom_bond_site_symmetry_2
_ccdc_geom_bond_type
C0 O1 1.306 . S
C0 O3 1.160 . S
O1 C0 1.306 . S
O1 Cd2 2.228 1_655 S
Cd2 O1 2.228 1_455 S
Cd2 O6 2.273 . S
Cd2 O10 2.277 . S
O3 C0 1.160 . S
O3 Cd4 2.203 1_655 S
Cd4 O3 2.203 1_455 S
Cd4 O6 2.411 . S
Cd4 O7 2.333 . S
Cd4 O8 2.352 . S
Cd4 O12 2.277 . S
Cd4 O13 2.356 . S
C5 O10 1.209 . S
C5 O12 1.226 . S
O6 Cd2 2.273 . S
O6 Cd4 2.411 . S
O6 C9 1.320 . S
O7 Cd4 2.333 . S
O7 C9 1.214 . S
O8 Cd4 2.352 . S
O8 C11 1.258 . S
C9 O6 1.320 . S
C9 O7 1.214 . S
O10 Cd2 2.277 . S
O10 C5 1.209 . S
C11 O8 1.258 . S
C11 O13 1.282 . S
O12 Cd4 2.277 . S
O12 C5 1.226 . S
O13 Cd4 2.356 . S
O13 C11 1.282 . S
C14 O15 1.306 . S
C14 O17 1.160 . S
O15 C14 1.306 . S
O15 Cd16 2.228 . S
Cd16 O15 2.228 . S
Cd16 O20 2.273 . S
Cd16 O24 2.277 . S
O17 C14 1.160 . S
O17 Cd18 2.203 . S
Cd18 O17 2.203 . S
Cd18 O20 2.411 . S
Cd18 O21 2.333 . S
Cd18 O22 2.352 . S
Cd18 O26 2.277 . S
Cd18 O27 2.356 . S
C19 O24 1.209 . S
C19 O26 1.226 . S
O20 Cd16 2.273 . S
O20 Cd18 2.411 . S
O20 C23 1.320 . S
O21 Cd18 2.333 . S
O21 C23 1.214 . S
O22 Cd18 2.352 . S
O22 C25 1.258 . S
C23 O20 1.320 . S
C23 O21 1.214 . S
O24 Cd16 2.277 . S
O24 C19 1.209 . S
C25 O22 1.258 . S
C25 O27 1.282 . S
O26 Cd18 2.277 . S
O26 C19 1.226 . S
O27 Cd18 2.356 . S
O27 C25 1.282 . S
C28 O29 1.306 . S
C28 O31 1.160 . S
O29 C28 1.306 . S
O29 Cd30 2.228 . S
Cd30 O29 2.228 . S
Cd30 O34 2.273 . S
Cd30 O38 2.277 . S
O31 C28 1.160 . S
O31 Cd32 2.203 . S
Cd32 O31 2.203 . S
Cd32 O34 2.411 . S
Cd32 O35 2.333 . S
Cd32 O36 2.352 . S
Cd32 O40 2.277 . S
Cd32 O41 2.356 . S
C33 O38 1.209 . S
C33 O40 1.226 . S
O34 Cd30 2.273 . S
O34 Cd32 2.411 . S
O34 C37 1.320 . S
O35 Cd32 2.333 . S
O35 C37 1.214 . S
O36 Cd32 2.352 . S
O36 C39 1.258 . S
C37 O34 1.320 . S
C37 O35 1.214 . S
O38 Cd30 2.277 . S
O38 C33 1.209 . S
C39 O36 1.258 . S
C39 O41 1.282 . S
O40 Cd32 2.277 . S
O40 C33 1.226 . S
O41 Cd32 2.356 . S
O41 C39 1.282 . S
C42 O43 1.306 . S
C42 O45 1.160 . S
O43 C42 1.306 . S
O43 Cd44 2.228 . S
Cd44 O43 2.228 . S
Cd44 O48 2.273 . S
Cd44 O52 2.277 . S
O45 C42 1.160 . S
O45 Cd46 2.203 . S
Cd46 O45 2.203 . S
Cd46 O48 2.411 . S
Cd46 O49 2.333 . S
Cd46 O50 2.352 . S
Cd46 O54 2.277 . S
Cd46 O55 2.356 . S
C47 O52 1.209 . S
C47 O54 1.226 . S
O48 Cd44 2.273 . S
O48 Cd46 2.411 . S
O48 C51 1.320 . S
O49 Cd46 2.333 . S
O49 C51 1.214 . S
O50 Cd46 2.352 . S
O50 C53 1.258 . S
C51 O48 1.320 . S
C51 O49 1.214 . S
O52 Cd44 2.277 . S
O52 C47 1.209 . S
C53 O50 1.258 . S
C53 O55 1.282 . S
O54 Cd46 2.277 . S
O54 C47 1.226 . S
O55 Cd46 2.356 . S
O55 C53 1.282 . S
C56 O57 1.306 . S
C56 O59 1.160 . S
O57 C56 1.306 . S
O57 Cd58 2.228 . S
Cd58 O57 2.228 . S
Cd58 O62 2.273 . S
Cd58 O66 2.277 . S
O59 C56 1.160 . S
O59 Cd60 2.203 . S
Cd60 O59 2.203 . S
Cd60 O62 2.411 . S
Cd60 O63 2.333 . S
Cd60 O64 2.352 1_545 S
Cd60 O68 2.277 . S
Cd60 O69 2.356 1_545 S
C61 O66 1.209 . S
C61 O68 1.226 . S
O62 Cd58 2.273 . S
O62 Cd60 2.411 . S
O62 C65 1.320 . S
O63 Cd60 2.333 . S
O63 C65 1.214 . S
O64 Cd60 2.352 1_565 S
O64 C67 1.258 . S
C65 O62 1.320 . S
C65 O63 1.214 . S
O66 Cd58 2.277 . S
O66 C61 1.209 . S
C67 O64 1.258 . S
C67 O69 1.282 . S
O68 Cd60 2.277 . S
O68 C61 1.226 . S
O69 Cd60 2.356 1_565 S
O69 C67 1.282 . S
C70 O71 1.306 . S
C70 O73 1.160 . S
O71 C70 1.306 . S
O71 Cd72 2.228 . S
Cd72 O71 2.228 . S
Cd72 O76 2.273 . S
Cd72 O80 2.277 . S
O73 C70 1.160 . S
O73 Cd74 2.203 . S
Cd74 O73 2.203 . S
Cd74 O76 2.411 . S
Cd74 O77 2.333 . S
Cd74 O78 2.352 . S
Cd74 O82 2.277 . S
Cd74 O83 2.356 . S
C75 O80 1.209 . S
C75 O82 1.226 . S
O76 Cd72 2.273 . S
O76 Cd74 2.411 . S
O76 C79 1.320 . S
O77 Cd74 2.333 . S
O77 C79 1.214 . S
O78 Cd74 2.352 . S
O78 C81 1.258 . S
C79 O76 1.320 . S
C79 O77 1.214 . S
O80 Cd72 2.277 . S
O80 C75 1.209 . S
C81 O78 1.258 . S
C81 O83 1.282 . S
O82 Cd74 2.277 . S
O82 C75 1.226 . S
O83 Cd74 2.356 . S
O83 C81 1.282 . S
C84 O85 1.306 . S
C84 O87 1.160 . S
O85 C84 1.306 . S
O85 Cd86 2.228 . S
Cd86 O85 2.228 . S
Cd86 O90 2.273 . S
Cd86 O94 2.277 . S
O87 C84 1.160 . S
O87 Cd88 2.203 . S
Cd88 O87 2.203 . S
Cd88 O90 2.411 . S
Cd88 O91 2.333 . S
Cd88 O92 2.352 . S
Cd88 O96 2.277 . S
Cd88 O97 2.356 . S
C89 O94 1.209 . S
C89 O96 1.226 . S
O90 Cd86 2.273 . S
O90 Cd88 2.411 . S
O90 C93 1.320 . S
O91 Cd88 2.333 . S
O91 C93 1.214 . S
O92 Cd88 2.352 . S
O92 C95 1.258 . S
C93 O90 1.320 . S
C93 O91 1.214 . S
O94 Cd86 2.277 . S
O94 C89 1.209 . S
C95 O92 1.258 . S
C95 O97 1.282 . S
O96 Cd88 2.277 . S
O96 C89 1.226 . S
O97 Cd88 2.356 . S
O97 C95 1.282 . S
C98 O99 1.306 . S
C98 O101 1.160 . S
O99 C98 1.306 . S
O99 Cd100 2.228 . S
Cd100 O99 2.228 . S
Cd100 O104 2.273 . S
Cd100 O108 2.277 . S
O101 C98 1.160 . S
O101 Cd102 2.203 . S
Cd102 O101 2.203 . S
Cd102 O104 2.411 . S
Cd102 O105 2.333 . S
Cd102 O106 2.352 1_554 S
Cd102 O110 2.277 . S
Cd102 O111 2.328 1_554 S
C103 O108 1.209 . S
C103 O110 1.226 . S
O104 Cd100 2.273 . S
O104 Cd102 2.411 . S
O104 C107 1.320 . S
O105 Cd102 2.333 . S
O105 C107 1.214 . S
O106 Cd102 2.352 1_556 S
O106 C109 1.258 . S
C107 O104 1.320 . S
C107 O105 1.214 . S
O108 Cd100 2.277 . S
O108 C103 1.209 . S
C109 O106 1.258 . S
C109 O111 1.314 . S
O110 Cd102 2.277 . S
O110 C103 1.226 . S
O111 Cd102 2.328 1_556 S
O111 C109 1.314 . S
C112 O113 1.306 . S
C112 O115 1.160 . S
O113 C112 1.306 . S
O113 Cd114 2.228 . S
Cd114 O113 2.228 . S
Cd114 O118 2.273 . S
Cd114 O122 2.277 . S
O115 C112 1.160 . S
O115 Cd116 2.203 . S
Cd116 O115 2.203 . S
Cd116 O118 2.411 . S
Cd116 O119 2.333 . S
Cd116 O120 2.352 . S
Cd116 O124 2.277 . S
Cd116 O125 2.356 . S
C117 O122 1.209 . S
C117 O124 1.226 . S
O118 Cd114 2.273 . S
O118 Cd116 2.411 . S
O118 C121 1.320 . S
O119 Cd116 2.333 . S
O119 C121 1.214 . S
O120 Cd116 2.352 . S
O120 C123 1.258 . S
C121 O118 1.320 . S
C121 O119 1.214 . S
O122 Cd114 2.277 . S
O122 C117 1.209 . S
C123 O120 1.258 . S
C123 O125 1.282 . S
O124 Cd116 2.277 . S
O124 C117 1.226 . S
O125 Cd116 2.356 . S
O125 C123 1.282 . S
C126 O127 1.306 . S
C126 O129 1.160 . S
O127 C126 1.306 . S
O127 Cd128 2.228 . S
Cd128 O127 2.228 . S
Cd128 O132 2.273 . S
Cd128 O136 2.277 . S
O129 C126 1.160 . S
O129 Cd130 2.203 . S
Cd130 O129 2.203 . S
Cd130 O132 2.411 . S
Cd130 O133 2.333 . S
Cd130 O134 2.352 . S
Cd130 O138 2.277 . S
Cd130 O139 2.356 . S
C131 O136 1.209 . S
C131 O138 1.226 . S
O132 Cd128 2.273 . S
O132 Cd130 2.411 . S
O132 C135 1.320 . S
O133 Cd130 2.333 . S
O133 C135 1.214 . S
O134 Cd130 2.352 . S
O134 C137 1.258 . S
C135 O132 1.320 . S
C135 O133 1.214 . S
O136 Cd128 2.277 . S
O136 C131 1.209 . S
C137 O134 1.258 . S
C137 O139 1.282 . S
O138 Cd130 2.277 . S
O138 C131 1.226 . S
O139 Cd130 2.356 . S
O139 C137 1.282 . S
C140 O141 1.306 . S
C140 O143 1.160 . S
O141 C140 1.306 . S
O141 Cd142 2.228 . S
Cd142 O141 2.228 . S
Cd142 O146 2.273 . S
Cd142 O150 2.277 . S
O143 C140 1.160 . S
O143 Cd144 2.203 . S
Cd144 O143 2.203 . S
Cd144 O146 2.411 . S
Cd144 O147 2.333 . S
Cd144 O148 2.352 . S
Cd144 O152 2.277 . S
Cd144 O153 2.356 . S
C145 O150 1.209 . S
C145 O152 1.226 . S
O146 Cd142 2.273 . S
O146 Cd144 2.411 . S
O146 C149 1.320 . S
O147 Cd144 2.333 . S
O147 C149 1.214 . S
O148 Cd144 2.352 . S
O148 C151 1.258 . S
C149 O146 1.320 . S
C149 O147 1.214 . S
O150 Cd142 2.277 . S
O150 C145 1.209 . S
C151 O148 1.258 . S
C151 O153 1.282 . S
O152 Cd144 2.277 . S
O152 C145 1.226 . S
O153 Cd144 2.356 . S
O153 C151 1.282 . S
C154 O155 1.306 . S
C154 O157 1.160 . S
O155 C154 1.306 . S
O155 Cd156 2.228 . S
Cd156 O155 2.228 . S
Cd156 O160 2.273 . S
Cd156 O164 2.277 . S
O157 C154 1.160 . S
O157 Cd158 2.203 . S
Cd158 O157 2.203 . S
Cd158 O160 2.411 . S
Cd158 O161 2.333 . S
Cd158 O162 2.352 . S
Cd158 O166 2.277 . S
Cd158 O167 2.356 . S
C159 O164 1.209 . S
C159 O166 1.226 . S
O160 Cd156 2.273 . S
O160 Cd158 2.411 . S
O160 C163 1.320 . S
O161 Cd158 2.333 . S
O161 C163 1.214 . S
O162 Cd158 2.352 . S
O162 C165 1.258 . S
C163 O160 1.320 . S
C163 O161 1.214 . S
O164 Cd156 2.277 . S
O164 C159 1.209 . S
C165 O162 1.258 . S
C165 O167 1.282 . S
O166 Cd158 2.277 . S
O166 C159 1.226 . S
O167 Cd158 2.356 . S
O167 C165 1.282 . S
C168 O169 1.306 . S
C168 O171 1.160 . S
O169 C168 1.306 . S
O169 Cd170 2.228 1_655 S
Cd170 O169 2.228 1_455 S
Cd170 O174 2.273 . S
Cd170 O178 2.277 . S
O171 C168 1.160 . S
O171 Cd172 2.203 1_655 S
Cd172 O171 2.203 1_455 S
Cd172 O174 2.411 . S
Cd172 O175 2.333 . S
Cd172 O176 2.352 . S
Cd172 O180 2.277 . S
Cd172 O181 2.356 . S
C173 O178 1.209 . S
C173 O180 1.226 . S
O174 Cd170 2.273 . S
O174 Cd172 2.411 . S
O174 C177 1.320 . S
O175 Cd172 2.333 . S
O175 C177 1.214 . S
O176 Cd172 2.352 . S
O176 C179 1.258 . S
C177 O174 1.320 . S
C177 O175 1.214 . S
O178 Cd170 2.277 . S
O178 C173 1.209 . S
C179 O176 1.258 . S
C179 O181 1.282 . S
O180 Cd172 2.277 . S
O180 C173 1.226 . S
O181 Cd172 2.356 . S
O181 C179 1.282 . S
C182 O183 1.306 . S
C182 O185 1.160 . S
O183 C182 1.306 . S
O183 Cd184 2.228 1_655 S
Cd184 O183 2.228 1_455 S
Cd184 O188 2.273 . S
Cd184 O192 2.277 . S
O185 C182 1.160 . S
O185 Cd186 2.203 1_655 S
Cd186 O185 2.203 1_455 S
Cd186 O188 2.411 . S
Cd186 O189 2.333 . S
Cd186 O190 2.351 1_455 S
Cd186 O194 2.276 1_455 S
Cd186 O195 2.356 . S
C187 O192 1.212 . S
C187 O194 1.225 1_455 S
O188 Cd184 2.273 . S
O188 Cd186 2.411 . S
O188 C191 1.320 . S
O189 Cd186 2.333 . S
O189 C191 1.214 . S
O190 Cd186 2.351 1_655 S
O190 C193 1.256 1_655 S
C191 O188 1.320 . S
C191 O189 1.214 . S
O192 Cd184 2.277 . S
O192 C187 1.212 . S
C193 O190 1.256 1_455 S
C193 O195 1.282 . S
O194 Cd186 2.276 1_655 S
O194 C187 1.225 1_655 S
O195 Cd186 2.356 . S
O195 C193 1.282 . S
C196 O197 1.306 . S
C196 O199 1.160 . S
O197 C196 1.306 . S
O197 Cd198 2.228 . S
Cd198 O197 2.228 . S
Cd198 O202 2.273 . S
Cd198 O206 2.277 . S
O199 C196 1.160 . S
O199 Cd200 2.203 . S
Cd200 O199 2.203 . S
Cd200 O202 2.411 . S
Cd200 O203 2.333 . S
Cd200 O204 2.352 . S
Cd200 O208 2.277 . S
Cd200 O209 2.356 . S
C201 O206 1.209 . S
C201 O208 1.226 . S
O202 Cd198 2.273 . S
O202 Cd200 2.411 . S
O202 C205 1.320 . S
O203 Cd200 2.333 . S
O203 C205 1.214 . S
O204 Cd200 2.352 . S
O204 C207 1.258 . S
C205 O202 1.320 . S
C205 O203 1.214 . S
O206 Cd198 2.277 . S
O206 C201 1.209 . S
C207 O204 1.258 . S
C207 O209 1.282 . S
O208 Cd200 2.277 . S
O208 C201 1.226 . S
O209 Cd200 2.356 . S
O209 C207 1.282 . S
C210 O211 1.306 . S
C210 O213 1.160 . S
O211 C210 1.306 . S
O211 Cd212 2.228 . S
Cd212 O211 2.228 . S
Cd212 O216 2.273 . S
Cd212 O220 2.277 . S
O213 C210 1.160 . S
O213 Cd214 2.203 . S
Cd214 O213 2.203 . S
Cd214 O216 2.411 . S
Cd214 O217 2.333 . S
Cd214 O218 2.352 . S
Cd214 O222 2.277 . S
Cd214 O223 2.356 . S
C215 O220 1.209 . S
C215 O222 1.226 . S
O216 Cd212 2.273 . S
O216 Cd214 2.411 . S
O216 C219 1.320 . S
O217 Cd214 2.333 . S
O217 C219 1.214 . S
O218 Cd214 2.352 . S
O218 C221 1.258 . S
C219 O216 1.320 . S
C219 O217 1.214 . S
O220 Cd212 2.277 . S
O220 C215 1.209 . S
C221 O218 1.258 . S
C221 O223 1.282 . S
O222 Cd214 2.277 . S
O222 C215 1.226 . S
O223 Cd214 2.356 . S
O223 C221 1.282 . S
C224 O225 1.306 . S
C224 O227 1.160 . S
O225 C224 1.306 . S
O225 Cd226 2.228 . S
Cd226 O225 2.228 . S
Cd226 O230 2.273 . S
Cd226 O234 2.277 . S
O227 C224 1.160 . S
O227 Cd228 2.203 . S
Cd228 O227 2.203 . S
Cd228 O230 2.411 . S
Cd228 O231 2.333 . S
Cd228 O232 2.352 . S
Cd228 O236 2.277 . S
Cd228 O237 2.356 . S
C229 O234 1.209 . S
C229 O236 1.226 . S
O230 Cd226 2.273 . S
O230 Cd228 2.411 . S
O230 C233 1.320 . S
O231 Cd228 2.333 . S
O231 C233 1.214 . S
O232 Cd228 2.352 . S
O232 C235 1.258 . S
C233 O230 1.320 . S
C233 O231 1.214 . S
O234 Cd226 2.277 . S
O234 C229 1.209 . S
C235 O232 1.258 . S
C235 O237 1.282 . S
O236 Cd228 2.277 . S
O236 C229 1.226 . S
O237 Cd228 2.356 . S
O237 C235 1.282 . S
C238 O239 1.306 . S
C238 O241 1.160 . S
O239 C238 1.306 . S
O239 Cd240 2.228 . S
Cd240 O239 2.228 . S
Cd240 O244 2.273 . S
Cd240 O248 2.277 . S
O241 C238 1.160 . S
O241 Cd242 2.203 . S
Cd242 O241 2.203 . S
Cd242 O244 2.411 . S
Cd242 O245 2.333 . S
Cd242 O246 2.352 . S
Cd242 O250 2.277 . S
Cd242 O251 2.356 . S
C243 O248 1.209 . S
C243 O250 1.226 . S
O244 Cd240 2.273 . S
O244 Cd242 2.411 . S
O244 C247 1.320 . S
O245 Cd242 2.333 . S
O245 C247 1.214 . S
O246 Cd242 2.352 . S
O246 C249 1.258 . S
C247 O244 1.320 . S
C247 O245 1.214 . S
O248 Cd240 2.277 . S
O248 C243 1.209 . S
C249 O246 1.258 . S
C249 O251 1.282 . S
O250 Cd242 2.277 . S
O250 C243 1.226 . S
O251 Cd242 2.356 . S
O251 C249 1.282 . S
C252 O253 1.306 . S
C252 O255 1.160 . S
O253 C252 1.306 . S
O253 Cd254 2.228 . S
Cd254 O253 2.228 . S
Cd254 O258 2.273 . S
Cd254 O262 2.277 . S
O255 C252 1.160 . S
O255 Cd256 2.203 . S
Cd256 O255 2.203 . S
Cd256 O258 2.411 . S
Cd256 O259 2.333 . S
Cd256 O260 2.352 1_545 S
Cd256 O264 2.277 . S
Cd256 O265 2.356 1_545 S
C257 O262 1.209 . S
C257 O264 1.226 . S
O258 Cd254 2.273 . S
O258 Cd256 2.411 . S
O258 C261 1.320 . S
O259 Cd256 2.333 . S
O259 C261 1.214 . S
O260 Cd256 2.352 1_565 S
O260 C263 1.258 . S
C261 O258 1.320 . S
C261 O259 1.214 . S
O262 Cd254 2.277 . S
O262 C257 1.209 . S
C263 O260 1.258 . S
C263 O265 1.282 . S
O264 Cd256 2.277 . S
O264 C257 1.226 . S
O265 Cd256 2.356 1_565 S
O265 C263 1.282 . S
C266 O267 1.306 . S
C266 O269 1.160 . S
O267 C266 1.306 . S
O267 Cd268 2.228 1_554 S
Cd268 O267 2.228 1_556 S
Cd268 O272 2.273 1_556 S
Cd268 O276 2.277 . S
O269 C266 1.160 . S
O269 Cd270 2.203 . S
Cd270 O269 2.203 . S
Cd270 O272 2.411 . S
Cd270 O273 2.333 . S
Cd270 O274 2.352 . S
Cd270 O278 2.277 1_554 S
Cd270 O279 2.356 . S
C271 O276 1.209 . S
C271 O278 1.226 . S
O272 Cd268 2.273 1_554 S
O272 Cd270 2.411 . S
O272 C275 1.320 . S
O273 Cd270 2.333 . S
O273 C275 1.214 . S
O274 Cd270 2.352 . S
O274 C277 1.258 . S
C275 O272 1.320 . S
C275 O273 1.214 . S
O276 Cd268 2.277 . S
O276 C271 1.209 . S
C277 O274 1.258 . S
C277 O279 1.282 . S
O278 Cd270 2.277 1_556 S
O278 C271 1.226 . S
O279 Cd270 2.356 . S
O279 C277 1.282 . S
C280 O281 1.306 . S
C280 O283 1.160 1_554 S
O281 C280 1.306 . S
O281 Cd282 2.228 . S
Cd282 O281 2.228 . S
Cd282 O286 2.273 . S
Cd282 O290 2.277 . S
O283 C280 1.160 1_556 S
O283 Cd284 2.203 . S
Cd284 O283 2.203 . S
Cd284 O286 2.411 1_556 S
Cd284 O287 2.333 . S
Cd284 O288 2.352 . S
Cd284 O292 2.277 1_556 S
Cd284 O293 2.356 . S
C285 O290 1.209 . S
C285 O292 1.226 . S
O286 Cd282 2.273 . S
O286 Cd284 2.411 1_554 S
O286 C289 1.322 . S
O287 Cd284 2.333 . S
O287 C289 1.212 1_556 S
O288 Cd284 2.352 . S
O288 C291 1.258 . S
C289 O286 1.322 . S
C289 O287 1.212 1_554 S
O290 Cd282 2.277 . S
O290 C285 1.209 . S
C291 O288 1.258 . S
C291 O293 1.282 . S
O292 Cd284 2.277 1_554 S
O292 C285 1.226 . S
O293 Cd284 2.356 . S
O293 C291 1.282 . S
C294 O295 1.306 . S
C294 O297 1.160 . S
O295 C294 1.306 . S
O295 Cd296 2.228 . S
Cd296 O295 2.228 . S
Cd296 O300 2.273 . S
Cd296 O304 2.277 . S
O297 C294 1.160 . S
O297 Cd298 2.203 . S
Cd298 O297 2.203 . S
Cd298 O300 2.411 . S
Cd298 O301 2.333 . S
Cd298 O302 2.352 . S
Cd298 O306 2.277 . S
Cd298 O307 2.356 . S
C299 O304 1.209 . S
C299 O306 1.226 . S
O300 Cd296 2.273 . S
O300 Cd298 2.411 . S
O300 C303 1.320 . S
O301 Cd298 2.333 . S
O301 C303 1.214 . S
O302 Cd298 2.352 . S
O302 C305 1.258 . S
C303 O300 1.320 . S
C303 O301 1.214 . S
O304 Cd296 2.277 . S
O304 C299 1.209 . S
C305 O302 1.258 . S
C305 O307 1.282 . S
O306 Cd298 2.277 . S
O306 C299 1.226 . S
O307 Cd298 2.356 . S
O307 C305 1.282 . S
C308 O309 1.306 . S
C308 O311 1.160 . S
O309 C308 1.306 . S
O309 Cd310 2.228 . S
Cd310 O309 2.228 . S
Cd310 O314 2.273 . S
Cd310 O318 2.277 . S
O311 C308 1.160 . S
O311 Cd312 2.203 . S
Cd312 O311 2.203 . S
Cd312 O314 2.411 . S
Cd312 O315 2.333 . S
Cd312 O316 2.352 . S
Cd312 O320 2.277 . S
Cd312 O321 2.356 . S
C313 O318 1.209 . S
C313 O320 1.226 . S
O314 Cd310 2.273 . S
O314 Cd312 2.411 . S
O314 C317 1.320 . S
O315 Cd312 2.333 . S
O315 C317 1.214 . S
O316 Cd312 2.352 . S
O316 C319 1.258 . S
C317 O314 1.320 . S
C317 O315 1.214 . S
O318 Cd310 2.277 . S
O318 C313 1.209 . S
C319 O316 1.258 . S
C319 O321 1.282 . S
O320 Cd312 2.277 . S
O320 C313 1.226 . S
O321 Cd312 2.356 . S
O321 C319 1.282 . S
C322 O323 1.306 . S
C322 O325 1.160 . S
O323 C322 1.306 . S
O323 Cd324 2.228 . S
Cd324 O323 2.228 . S
Cd324 O328 2.273 . S
Cd324 O332 2.277 . S
O325 C322 1.160 . S
O325 Cd326 2.203 . S
Cd326 O325 2.203 . S
Cd326 O328 2.411 . S
Cd326 O329 2.333 . S
Cd326 O330 2.352 . S
Cd326 O334 2.277 . S
Cd326 O335 2.356 . S
C327 O332 1.209 . S
C327 O334 1.226 . S
O328 Cd324 2.273 . S
O328 Cd326 2.411 . S
O328 C331 1.320 . S
O329 Cd326 2.333 . S
O329 C331 1.214 . S
O330 Cd326 2.352 . S
O330 C333 1.258 . S
C331 O328 1.320 . S
C331 O329 1.214 . S
O332 Cd324 2.277 . S
O332 C327 1.209 . S
C333 O330 1.258 . S
C333 O335 1.282 . S
O334 Cd326 2.277 . S
O334 C327 1.226 . S
O335 Cd326 2.356 . S
O335 C333 1.282 . S
Co336 N341 2.057 1_554 S
Co336 O353 2.021 1_554 S
Co336 O356 2.062 1_455 S
Co336 O360 2.117 . S
Co336 O361 2.020 . S
C337 O357 1.259 . S
C337 O360 1.258 . S
Co338 N347 2.057 . S
Co338 O354 2.117 1_545 S
Co338 O355 2.020 1_455 S
Co338 O357 2.021 . S
Co338 O362 2.062 . S
C339 N341 1.333 . S
C339 N342 1.320 1_455 S
C339 H344 0.943 . S
C340 N341 1.362 1_655 S
C340 C343 1.370 . S
C340 H345 0.923 1_655 S
N341 Co336 2.057 1_556 S
N341 C339 1.333 . S
N341 C340 1.362 1_455 S
N342 C339 1.320 1_655 S
N342 C343 1.373 . S
C343 C340 1.370 . S
C343 N342 1.373 . S
C343 H364 0.931 . S
H344 C339 0.943 . S
H345 C340 0.923 1_455 S
C346 O353 1.259 1_564 S
C346 O354 1.258 . S
N347 Co338 2.057 . S
N347 C348 1.316 . S
N347 C349 1.375 1_545 S
C348 N347 1.316 . S
C348 N350 1.347 . S
C348 H359 0.931 . S
C349 N347 1.375 1_565 S
C349 C351 1.350 . S
C349 H358 0.930 . S
N350 C348 1.347 . S
N350 C351 1.373 1_545 S
C351 C349 1.350 . S
C351 N350 1.373 1_565 S
C351 H365 0.931 . S
C352 O355 1.256 . S
C352 O356 1.255 . S
O353 Co336 2.021 1_556 S
O353 C346 1.259 1_546 S
O354 Co338 2.117 1_565 S
O354 C346 1.258 . S
O355 Co338 2.020 1_655 S
O355 C352 1.256 . S
O356 Co336 2.062 1_655 S
O356 C352 1.255 . S
O357 C337 1.259 . S
O357 Co338 2.021 . S
H358 C349 0.930 . S
H359 C348 0.931 . S
O360 Co336 2.117 . S
O360 C337 1.258 . S
O361 Co336 2.020 . S
O361 C363 1.256 . S
O362 Co338 2.062 . S
O362 C363 1.255 . S
C363 O361 1.256 . S
C363 O362 1.255 . S
H364 C343 0.931 . S
H365 C351 0.931 . S
Co366 N371 2.057 . S
Co366 O383 2.021 . S
Co366 O386 2.062 . S
Co366 O390 2.117 . S
Co366 O391 2.020 . S
C367 O387 1.259 . S
C367 O390 1.258 . S
Co368 N377 2.057 . S
Co368 O384 2.117 . S
Co368 O385 2.020 . S
Co368 O387 2.021 . S
Co368 O392 2.062 . S
C369 N371 1.316 . S
C369 N372 1.347 . S
C369 H374 0.931 . S
C370 N371 1.375 . S
C370 C373 1.350 . S
C370 H375 0.930 . S
N371 Co366 2.057 . S
N371 C369 1.316 . S
N371 C370 1.375 . S
N372 C369 1.347 . S
N372 C373 1.373 . S
C373 C370 1.350 . S
C373 N372 1.373 . S
C373 H394 0.931 . S
H374 C369 0.931 . S
H375 C370 0.930 . S
C376 O383 1.259 . S
C376 O384 1.258 . S
N377 Co368 2.057 . S
N377 C378 1.316 . S
N377 C379 1.375 . S
C378 N377 1.316 . S
C378 N380 1.347 . S
C378 H389 0.931 . S
C379 N377 1.375 . S
C379 C381 1.350 . S
C379 H388 0.930 . S
N380 C378 1.347 . S
N380 C381 1.373 . S
C381 C379 1.350 . S
C381 N380 1.373 . S
C381 H395 0.931 . S
C382 O385 1.256 . S
C382 O386 1.255 . S
O383 Co366 2.021 . S
O383 C376 1.259 . S
O384 Co368 2.117 . S
O384 C376 1.258 . S
O385 Co368 2.020 . S
O385 C382 1.256 . S
O386 Co366 2.062 . S
O386 C382 1.255 . S
O387 C367 1.259 . S
O387 Co368 2.021 . S
H388 C379 0.930 . S
H389 C378 0.931 . S
O390 Co366 2.117 . S
O390 C367 1.258 . S
O391 Co366 2.020 . S
O391 C393 1.256 . S
O392 Co368 2.062 . S
O392 C393 1.255 . S
C393 O391 1.256 . S
C393 O392 1.255 . S
H394 C373 0.931 . S
H395 C381 0.931 . S
Co396 N401 2.057 . S
Co396 O413 2.021 1_545 S
Co396 O416 2.062 . S
Co396 O420 2.117 . S
Co396 O421 2.020 . S
C397 O417 1.259 . S
C397 O420 1.258 . S
Co398 N407 2.057 . S
Co398 O414 2.117 . S
Co398 O415 2.020 . S
Co398 O417 2.021 . S
Co398 O422 2.062 . S
C399 N401 1.269 1_565 S
C399 N402 1.338 1_565 S
C399 H404 0.982 . S
C400 N401 1.375 . S
C400 C403 1.350 . S
C400 H405 0.930 . S
N401 Co396 2.057 . S
N401 C399 1.269 1_545 S
N401 C400 1.375 . S
N402 C399 1.338 1_545 S
N402 C403 1.373 . S
C403 C400 1.350 . S
C403 N402 1.373 . S
C403 H424 0.931 . S
H404 C399 0.982 . S
H405 C400 0.930 . S
C406 O413 1.259 . S
C406 O414 1.258 1_565 S
N407 Co398 2.057 . S
N407 C408 1.316 . S
N407 C409 1.375 . S
C408 N407 1.316 . S
C408 N410 1.347 . S
C408 H419 0.931 . S
C409 N407 1.375 . S
C409 C411 1.350 . S
C409 H418 0.930 . S
N410 C408 1.347 . S
N410 C411 1.373 . S
C411 C409 1.350 . S
C411 N410 1.373 . S
C411 H425 0.931 . S
C412 O415 1.256 . S
C412 O416 1.255 . S
O413 Co396 2.021 1_565 S
O413 C406 1.259 . S
O414 Co398 2.117 . S
O414 C406 1.258 1_545 S
O415 Co398 2.020 . S
O415 C412 1.256 . S
O416 Co396 2.062 . S
O416 C412 1.255 . S
O417 C397 1.259 . S
O417 Co398 2.021 . S
H418 C409 0.930 . S
H419 C408 0.931 . S
O420 Co396 2.117 . S
O420 C397 1.258 . S
O421 Co396 2.020 . S
O421 C423 1.256 . S
O422 Co398 2.062 . S
O422 C423 1.255 . S
C423 O421 1.256 . S
C423 O422 1.255 . S
H424 C403 0.931 . S
H425 C411 0.931 . S
Co426 N431 2.057 . S
Co426 O443 2.021 . S
Co426 O446 2.062 . S
Co426 O450 2.117 . S
Co426 O451 2.020 . S
C427 O447 1.259 . S
C427 O450 1.258 . S
Co428 N437 2.057 . S
Co428 O444 2.117 . S
Co428 O445 2.020 . S
Co428 O447 2.021 . S
Co428 O452 2.062 . S
C429 N431 1.316 . S
C429 N432 1.347 . S
C429 H434 0.931 . S
C430 N431 1.375 . S
C430 C433 1.350 . S
C430 H435 0.930 . S
N431 Co426 2.057 . S
N431 C429 1.316 . S
N431 C430 1.375 . S
N432 C429 1.347 . S
N432 C433 1.373 . S
C433 C430 1.350 . S
C433 N432 1.373 . S
C433 H454 0.931 . S
H434 C429 0.931 . S
H435 C430 0.930 . S
C436 O443 1.259 . S
C436 O444 1.258 . S
N437 Co428 2.057 . S
N437 C438 1.316 . S
N437 C439 1.375 . S
C438 N437 1.316 . S
C438 N440 1.347 . S
C438 H449 0.931 . S
C439 N437 1.375 . S
C439 C441 1.350 . S
C439 H448 0.930 . S
N440 C438 1.347 . S
N440 C441 1.373 . S
C441 C439 1.350 . S
C441 N440 1.373 . S
C441 H455 0.931 . S
C442 O445 1.256 . S
C442 O446 1.255 . S
O443 Co426 2.021 . S
O443 C436 1.259 . S
O444 Co428 2.117 . S
O444 C436 1.258 . S
O445 Co428 2.020 . S
O445 C442 1.256 . S
O446 Co426 2.062 . S
O446 C442 1.255 . S
O447 C427 1.259 . S
O447 Co428 2.021 . S
H448 C439 0.930 . S
H449 C438 0.931 . S
O450 Co426 2.117 . S
O450 C427 1.258 . S
O451 Co426 2.020 . S
O451 C453 1.256 . S
O452 Co428 2.062 . S
O452 C453 1.255 . S
C453 O451 1.256 . S
C453 O452 1.255 . S
H454 C433 0.931 . S
H455 C441 0.931 . S
Co456 N461 2.057 1_545 S
Co456 O473 2.021 . S
Co456 O476 2.061 1_545 S
Co456 O480 2.117 . S
Co456 O481 2.020 1_455 S
C457 O477 1.259 . S
C457 O480 1.258 . S
Co458 N467 2.057 . S
Co458 O474 2.117 . S
Co458 O475 2.020 . S
Co458 O477 2.021 . S
Co458 O482 2.062 1_455 S
C459 N461 1.316 . S
C459 N462 1.347 . S
C459 H464 0.931 . S
C460 N461 1.375 1_655 S
C460 C463 1.350 . S
C460 H465 0.930 . S
N461 Co456 2.057 1_565 S
N461 C459 1.316 . S
N461 C460 1.375 1_455 S
N462 C459 1.347 . S
N462 C463 1.373 1_455 S
C463 C460 1.350 . S
C463 N462 1.373 1_655 S
C463 H484 0.931 . S
H464 C459 0.931 . S
H465 C460 0.930 . S
C466 O473 1.259 . S
C466 O474 1.258 . S
N467 Co458 2.057 . S
N467 C468 1.316 . S
N467 C469 1.375 . S
C468 N467 1.316 . S
C468 N470 1.347 . S
C468 H479 0.931 . S
C469 N467 1.375 . S
C469 C471 1.350 . S
C469 H478 0.930 . S
N470 C468 1.347 . S
N470 C471 1.373 . S
C471 C469 1.350 . S
C471 N470 1.373 . S
C471 H485 0.931 . S
C472 O475 1.256 . S
C472 O476 1.254 1_545 S
O473 Co456 2.021 . S
O473 C466 1.259 . S
O474 Co458 2.117 . S
O474 C466 1.258 . S
O475 Co458 2.020 . S
O475 C472 1.256 . S
O476 Co456 2.061 1_565 S
O476 C472 1.254 1_565 S
O477 C457 1.259 . S
O477 Co458 2.021 . S
H478 C469 0.930 . S
H479 C468 0.931 . S
O480 Co456 2.117 . S
O480 C457 1.258 . S
O481 Co456 2.020 1_655 S
O481 C483 1.256 . S
O482 Co458 2.062 1_655 S
O482 C483 1.255 . S
C483 O481 1.256 . S
C483 O482 1.255 . S
H484 C463 0.931 . S
H485 C471 0.931 . S
Co486 N491 2.057 . S
Co486 O503 2.021 . S
Co486 O506 2.062 . S
Co486 O510 2.117 . S
Co486 O511 2.020 . S
C487 O507 1.259 . S
C487 O510 1.258 . S
Co488 N497 2.057 . S
Co488 O504 2.117 . S
Co488 O505 2.020 . S
Co488 O507 2.021 . S
Co488 O512 2.062 . S
C489 N491 1.316 . S
C489 N492 1.347 . S
C489 H494 0.931 . S
C490 N491 1.375 . S
C490 C493 1.350 . S
C490 H495 0.930 . S
N491 Co486 2.057 . S
N491 C489 1.316 . S
N491 C490 1.375 . S
N492 C489 1.347 . S
N492 C493 1.373 . S
C493 C490 1.350 . S
C493 N492 1.373 . S
C493 H514 0.931 . S
H494 C489 0.931 . S
H495 C490 0.930 . S
C496 O503 1.259 . S
C496 O504 1.258 . S
N497 Co488 2.057 . S
N497 C498 1.316 . S
N497 C499 1.375 . S
C498 N497 1.316 . S
C498 N500 1.347 . S
C498 H509 0.931 . S
C499 N497 1.375 . S
C499 C501 1.350 . S
C499 H508 0.930 . S
N500 C498 1.347 . S
N500 C501 1.373 . S
C501 C499 1.350 . S
C501 N500 1.373 . S
C501 H515 0.931 . S
C502 O505 1.256 . S
C502 O506 1.255 . S
O503 Co486 2.021 . S
O503 C496 1.259 . S
O504 Co488 2.117 . S
O504 C496 1.258 . S
O505 Co488 2.020 . S
O505 C502 1.256 . S
O506 Co486 2.062 . S
O506 C502 1.255 . S
O507 C487 1.259 . S
O507 Co488 2.021 . S
H508 C499 0.930 . S
H509 C498 0.931 . S
O510 Co486 2.117 . S
O510 C487 1.258 . S
O511 Co486 2.020 . S
O511 C513 1.256 . S
O512 Co488 2.062 . S
O512 C513 1.255 . S
C513 O511 1.256 . S
C513 O512 1.255 . S
H514 C493 0.931 . S
H515 C501 0.931 . S
Co516 N521 2.057 1_554 S
Co516 O533 2.021 . S
Co516 O536 2.062 1_554 S
Co516 O540 2.117 . S
Co516 O541 2.020 1_545 S
C517 O537 1.259 . S
C517 O540 1.258 . S
Co518 N527 2.057 . S
Co518 O534 2.117 . S
Co518 O535 2.020 . S
Co518 O537 2.021 . S
Co518 O542 2.062 . S
C519 N521 1.316 . S
C519 N522 1.347 . S
C519 H524 0.931 . S
C520 N521 1.375 . S
C520 C523 1.350 . S
C520 H525 0.930 1_545 S
N521 Co516 2.057 1_556 S
N521 C519 1.316 . S
N521 C520 1.375 . S
N522 C519 1.347 . S
N522 C523 1.373 . S
C523 C520 1.350 . S
C523 N522 1.373 . S
C523 H544 0.931 1_545 S
H524 C519 0.931 . S
H525 C520 0.930 1_565 S
C526 O533 1.259 . S
C526 O534 1.258 . S
N527 Co518 2.057 . S
N527 C528 1.316 . S
N527 C529 1.375 . S
C528 N527 1.316 . S
C528 N530 1.347 . S
C528 H539 0.931 . S
C529 N527 1.375 . S
C529 C531 1.350 . S
C529 H538 0.930 . S
N530 C528 1.347 . S
N530 C531 1.373 . S
C531 C529 1.350 . S
C531 N530 1.373 . S
C531 H545 0.931 . S
C532 O535 1.256 . S
C532 O536 1.255 1_554 S
O533 Co516 2.021 . S
O533 C526 1.259 . S
O534 Co518 2.117 . S
O534 C526 1.258 . S
O535 Co518 2.020 . S
O535 C532 1.256 . S
O536 Co516 2.062 1_556 S
O536 C532 1.255 1_556 S
O537 C517 1.259 . S
O537 Co518 2.021 . S
H538 C529 0.930 . S
H539 C528 0.931 . S
O540 Co516 2.117 . S
O540 C517 1.258 . S
O541 Co516 2.020 1_565 S
O541 C543 1.256 . S
O542 Co518 2.062 . S
O542 C543 1.255 1_545 S
C543 O541 1.256 . S
C543 O542 1.255 1_565 S
H544 C523 0.931 1_565 S
H545 C531 0.931 . S
Co546 N551 2.057 . S
Co546 O563 2.021 . S
Co546 O566 2.062 . S
Co546 O570 2.117 . S
Co546 O571 2.020 . S
C547 O567 1.259 . S
C547 O570 1.258 . S
Co548 N557 2.057 . S
Co548 O564 2.117 . S
Co548 O565 2.020 . S
Co548 O567 2.021 . S
Co548 O572 2.062 . S
C549 N551 1.316 . S
C549 N552 1.347 . S
C549 H554 0.931 . S
C550 N551 1.375 . S
C550 C553 1.350 . S
C550 H555 0.930 . S
N551 Co546 2.057 . S
N551 C549 1.316 . S
N551 C550 1.375 . S
N552 C549 1.347 . S
N552 C553 1.373 . S
C553 C550 1.350 . S
C553 N552 1.373 . S
C553 H574 0.931 . S
H554 C549 0.931 . S
H555 C550 0.930 . S
C556 O563 1.259 . S
C556 O564 1.258 . S
N557 Co548 2.057 . S
N557 C558 1.316 . S
N557 C559 1.375 . S
C558 N557 1.316 . S
C558 N560 1.347 . S
C558 H569 0.931 . S
C559 N557 1.375 . S
C559 C561 1.350 . S
C559 H568 0.930 . S
N560 C558 1.347 . S
N560 C561 1.373 . S
C561 C559 1.350 . S
C561 N560 1.373 . S
C561 H575 0.931 . S
C562 O565 1.256 . S
C562 O566 1.255 . S
O563 Co546 2.021 . S
O563 C556 1.259 . S
O564 Co548 2.117 . S
O564 C556 1.258 . S
O565 Co548 2.020 . S
O565 C562 1.256 . S
O566 Co546 2.062 . S
O566 C562 1.255 . S
O567 C547 1.259 . S
O567 Co548 2.021 . S
H568 C559 0.930 . S
H569 C558 0.931 . S
O570 Co546 2.117 . S
O570 C547 1.258 . S
O571 Co546 2.020 . S
O571 C573 1.256 . S
O572 Co548 2.062 . S
O572 C573 1.255 . S
C573 O571 1.256 . S
C573 O572 1.255 . S
H574 C553 0.931 . S
H575 C561 0.931 . S
Co576 N581 2.057 . S
Co576 O593 2.021 1_554 S
Co576 O596 2.062 . S
Co576 O600 2.117 . S
Co576 O601 2.020 . S
C577 O597 1.259 . S
C577 O600 1.258 . S
Co578 N587 2.057 . S
Co578 O594 2.117 . S
Co578 O595 2.020 . S
Co578 O597 2.021 . S
Co578 O602 2.062 . S
C579 N581 1.316 1_556 S
C579 N582 1.347 1_556 S
C579 H584 0.931 . S
C580 N581 1.375 . S
C580 C583 1.350 . S
C580 H585 0.930 . S
N581 Co576 2.057 . S
N581 C579 1.316 1_554 S
N581 C580 1.375 . S
N582 C579 1.347 1_554 S
N582 C583 1.373 . S
C583 C580 1.350 . S
C583 N582 1.373 . S
C583 H604 0.931 . S
H584 C579 0.931 . S
H585 C580 0.930 . S
C586 O593 1.259 . S
C586 O594 1.258 1_556 S
N587 Co578 2.057 . S
N587 C588 1.316 . S
N587 C589 1.375 . S
C588 N587 1.316 . S
C588 N590 1.347 . S
C588 H599 0.931 . S
C589 N587 1.375 . S
C589 C591 1.350 . S
C589 H598 0.930 . S
N590 C588 1.347 . S
N590 C591 1.373 . S
C591 C589 1.350 . S
C591 N590 1.373 . S
C591 H605 0.931 . S
C592 O595 1.256 . S
C592 O596 1.255 . S
O593 Co576 2.021 1_556 S
O593 C586 1.259 . S
O594 Co578 2.117 . S
O594 C586 1.258 1_554 S
O595 Co578 2.020 . S
O595 C592 1.256 . S
O596 Co576 2.062 . S
O596 C592 1.255 . S
O597 C577 1.259 . S
O597 Co578 2.021 . S
H598 C589 0.930 . S
H599 C588 0.931 . S
O600 Co576 2.117 . S
O600 C577 1.258 . S
O601 Co576 2.020 . S
O601 C603 1.256 . S
O602 Co578 2.062 . S
O602 C603 1.255 . S
C603 O601 1.256 . S
C603 O602 1.255 . S
H604 C583 0.931 . S
H605 C591 0.931 . S
Co606 N611 2.057 . S
Co606 O623 2.021 . S
Co606 O626 2.062 . S
Co606 O630 2.117 . S
Co606 O631 2.020 . S
C607 O627 1.259 . S
C607 O630 1.258 . S
Co608 N617 2.057 . S
Co608 O624 2.117 . S
Co608 O625 2.020 . S
Co608 O627 2.021 . S
Co608 O632 2.062 . S
C609 N611 1.316 . S
C609 N612 1.347 . S
C609 H614 0.931 . S
C610 N611 1.375 . S
C610 C613 1.350 . S
C610 H615 0.930 . S
N611 Co606 2.057 . S
N611 C609 1.316 . S
N611 C610 1.375 . S
N612 C609 1.347 . S
N612 C613 1.373 . S
C613 C610 1.350 . S
C613 N612 1.373 . S
C613 H634 0.931 . S
H614 C609 0.931 . S
H615 C610 0.930 . S
C616 O623 1.259 . S
C616 O624 1.258 . S
N617 Co608 2.057 . S
N617 C618 1.316 . S
N617 C619 1.375 . S
C618 N617 1.316 . S
C618 N620 1.347 . S
C618 H629 0.931 . S
C619 N617 1.375 . S
C619 C621 1.350 . S
C619 H628 0.930 . S
N620 C618 1.347 . S
N620 C621 1.373 . S
C621 C619 1.350 . S
C621 N620 1.373 . S
C621 H635 0.931 . S
C622 O625 1.256 . S
C622 O626 1.255 . S
O623 Co606 2.021 . S
O623 C616 1.259 . S
O624 Co608 2.117 . S
O624 C616 1.258 . S
O625 Co608 2.020 . S
O625 C622 1.256 . S
O626 Co606 2.062 . S
O626 C622 1.255 . S
O627 C607 1.259 . S
O627 Co608 2.021 . S
H628 C619 0.930 . S
H629 C618 0.931 . S
O630 Co606 2.117 . S
O630 C607 1.258 . S
O631 Co606 2.020 . S
O631 C633 1.256 . S
O632 Co608 2.062 . S
O632 C633 1.255 . S
C633 O631 1.256 . S
C633 O632 1.255 . S
H634 C613 0.931 . S
H635 C621 0.931 . S
Co636 N641 2.057 . S
Co636 O653 2.021 1_455 S
Co636 O656 2.062 . S
Co636 O660 2.117 . S
Co636 O661 2.020 . S
C637 O657 1.259 . S
C637 O660 1.258 . S
Co638 N647 2.057 . S
Co638 O654 2.153 . S
Co638 O655 2.020 . S
Co638 O657 2.021 . S
Co638 O662 2.062 . S
C639 N641 1.316 1_655 S
C639 N642 1.355 . S
C639 H644 0.931 . S
C640 N641 1.375 . S
C640 C643 1.350 . S
C640 H645 0.930 . S
N641 Co636 2.057 . S
N641 C639 1.316 1_455 S
N641 C640 1.375 . S
N642 C639 1.355 . S
N642 C643 1.330 1_655 S
C643 C640 1.350 . S
C643 N642 1.330 1_455 S
C643 H664 0.931 . S
H644 C639 0.931 . S
H645 C640 0.930 . S
C646 O653 1.259 . S
C646 O654 1.229 1_655 S
N647 Co638 2.057 . S
N647 C648 1.316 . S
N647 C649 1.375 . S
C648 N647 1.316 . S
C648 N650 1.347 . S
C648 H659 0.931 . S
C649 N647 1.375 . S
C649 C651 1.350 . S
C649 H658 0.930 . S
N650 C648 1.347 . S
N650 C651 1.373 . S
C651 C649 1.350 . S
C651 N650 1.373 . S
C651 H665 0.931 . S
C652 O655 1.256 . S
C652 O656 1.255 . S
O653 Co636 2.021 1_655 S
O653 C646 1.259 . S
O654 Co638 2.153 . S
O654 C646 1.229 1_455 S
O655 Co638 2.020 . S
O655 C652 1.256 . S
O656 Co636 2.062 . S
O656 C652 1.255 . S
O657 C637 1.259 . S
O657 Co638 2.021 . S
H658 C649 0.930 . S
H659 C648 0.931 . S
O660 Co636 2.117 . S
O660 C637 1.258 . S
O661 Co636 2.020 . S
O661 C663 1.256 . S
O662 Co638 2.062 . S
O662 C663 1.255 . S
C663 O661 1.256 . S
C663 O662 1.255 . S
H664 C643 0.931 . S
H665 C651 0.931 . S
Co666 N671 2.057 . S
Co666 O683 2.021 . S
Co666 O686 2.062 . S
Co666 O690 2.117 . S
Co666 O691 2.020 . S
C667 O687 1.259 . S
C667 O690 1.258 . S
Co668 N677 2.057 . S
Co668 O684 2.117 . S
Co668 O685 2.020 . S
Co668 O687 2.021 . S
Co668 O692 2.062 . S
C669 N671 1.316 . S
C669 N672 1.347 . S
C669 H674 0.931 . S
C670 N671 1.375 . S
C670 C673 1.350 . S
C670 H675 0.930 . S
N671 Co666 2.057 . S
N671 C669 1.316 . S
N671 C670 1.375 . S
N672 C669 1.347 . S
N672 C673 1.373 . S
C673 C670 1.350 . S
C673 N672 1.373 . S
C673 H694 0.931 . S
H674 C669 0.931 . S
H675 C670 0.930 . S
C676 O683 1.259 . S
C676 O684 1.258 . S
N677 Co668 2.057 . S
N677 C678 1.316 . S
N677 C679 1.375 . S
C678 N677 1.316 . S
C678 N680 1.347 . S
C678 H689 0.931 . S
C679 N677 1.375 . S
C679 C681 1.350 . S
C679 H688 0.930 . S
N680 C678 1.347 . S
N680 C681 1.373 . S
C681 C679 1.350 . S
C681 N680 1.373 . S
C681 H695 0.931 . S
C682 O685 1.256 . S
C682 O686 1.255 . S
O683 Co666 2.021 . S
O683 C676 1.259 . S
O684 Co668 2.117 . S
O684 C676 1.258 . S
O685 Co668 2.020 . S
O685 C682 1.256 . S
O686 Co666 2.062 . S
O686 C682 1.255 . S
O687 C667 1.259 . S
O687 Co668 2.021 . S
H688 C679 0.930 . S
H689 C678 0.931 . S
O690 Co666 2.117 . S
O690 C667 1.258 . S
O691 Co666 2.020 . S
O691 C693 1.256 . S
O692 Co668 2.062 . S
O692 C693 1.255 . S
C693 O691 1.256 . S
C693 O692 1.255 . S
H694 C673 0.931 . S
H695 C681 0.931 . S
Co696 N701 2.057 . S
Co696 O713 2.021 . S
Co696 O716 2.062 . S
Co696 O720 2.117 . S
Co696 O721 2.020 . S
C697 O717 1.259 . S
C697 O720 1.258 . S
Co698 N707 2.057 . S
Co698 O714 2.117 . S
Co698 O715 2.020 . S
Co698 O717 2.021 . S
Co698 O722 2.062 . S
C699 N701 1.316 . S
C699 N702 1.347 . S
C699 H704 0.931 . S
C700 N701 1.375 . S
C700 C703 1.350 . S
C700 H705 0.930 . S
N701 Co696 2.057 . S
N701 C699 1.316 . S
N701 C700 1.375 . S
N702 C699 1.347 . S
N702 C703 1.373 . S
C703 C700 1.350 . S
C703 N702 1.373 . S
C703 H724 0.931 . S
H704 C699 0.931 . S
H705 C700 0.930 . S
C706 O713 1.259 . S
C706 O714 1.258 . S
N707 Co698 2.057 . S
N707 C708 1.316 . S
N707 C709 1.375 . S
C708 N707 1.316 . S
C708 N710 1.347 . S
C708 H719 0.931 . S
C709 N707 1.375 . S
C709 C711 1.350 . S
C709 H718 0.930 . S
N710 C708 1.347 . S
N710 C711 1.373 . S
C711 C709 1.350 . S
C711 N710 1.373 . S
C711 H725 0.931 . S
C712 O715 1.256 . S
C712 O716 1.255 . S
O713 Co696 2.021 . S
O713 C706 1.259 . S
O714 Co698 2.117 . S
O714 C706 1.258 . S
O715 Co698 2.020 . S
O715 C712 1.256 . S
O716 Co696 2.062 . S
O716 C712 1.255 . S
O717 C697 1.259 . S
O717 Co698 2.021 . S
H718 C709 0.930 . S
H719 C708 0.931 . S
O720 Co696 2.117 . S
O720 C697 1.258 . S
O721 Co696 2.020 . S
O721 C723 1.256 . S
O722 Co698 2.062 . S
O722 C723 1.255 . S
C723 O721 1.256 . S
C723 O722 1.255 . S
H724 C703 0.931 . S
H725 C711 0.931 . S
Co726 N731 2.057 . S
Co726 O743 2.021 . S
Co726 O746 2.062 . S
Co726 O750 2.117 . S
Co726 O751 2.020 . S
C727 O747 1.259 . S
C727 O750 1.258 . S
Co728 N737 2.057 . S
Co728 O744 2.117 . S
Co728 O745 2.020 . S
Co728 O747 2.021 . S
Co728 O752 2.062 . S
C729 N731 1.316 . S
C729 N732 1.347 . S
C729 H734 0.931 . S
C730 N731 1.375 . S
C730 C733 1.350 . S
C730 H735 0.930 . S
N731 Co726 2.057 . S
N731 C729 1.316 . S
N731 C730 1.375 . S
N732 C729 1.347 . S
N732 C733 1.373 . S
C733 C730 1.350 . S
C733 N732 1.373 . S
C733 H754 0.931 . S
H734 C729 0.931 . S
H735 C730 0.930 . S
C736 O743 1.259 . S
C736 O744 1.258 . S
N737 Co728 2.057 . S
N737 C738 1.316 . S
N737 C739 1.375 . S
C738 N737 1.316 . S
C738 N740 1.347 . S
C738 H749 0.931 . S
C739 N737 1.375 . S
C739 C741 1.350 . S
C739 H748 0.930 . S
N740 C738 1.347 . S
N740 C741 1.373 . S
C741 C739 1.350 . S
C741 N740 1.373 . S
C741 H755 0.931 . S
C742 O745 1.256 . S
C742 O746 1.255 . S
O743 Co726 2.021 . S
O743 C736 1.259 . S
O744 Co728 2.117 . S
O744 C736 1.258 . S
O745 Co728 2.020 . S
O745 C742 1.256 . S
O746 Co726 2.062 . S
O746 C742 1.255 . S
O747 C727 1.259 . S
O747 Co728 2.021 . S
H748 C739 0.930 . S
H749 C738 0.931 . S
O750 Co726 2.117 . S
O750 C727 1.258 . S
O751 Co726 2.020 . S
O751 C753 1.256 . S
O752 Co728 2.062 . S
O752 C753 1.255 . S
C753 O751 1.256 . S
C753 O752 1.255 . S
H754 C733 0.931 . S
H755 C741 0.931 . S
Co756 N761 2.057 . S
Co756 O773 2.021 . S
Co756 O776 2.062 . S
Co756 O780 2.117 . S
Co756 O781 2.020 . S
C757 O777 1.259 . S
C757 O780 1.258 . S
Co758 N767 2.057 . S
Co758 O774 2.117 . S
Co758 O775 2.020 . S
Co758 O777 2.021 . S
Co758 O782 2.062 . S
C759 N761 1.316 . S
C759 N762 1.347 . S
C759 H764 0.931 . S
C760 N761 1.375 . S
C760 C763 1.350 . S
C760 H765 0.930 . S
N761 Co756 2.057 . S
N761 C759 1.316 . S
N761 C760 1.375 . S
N762 C759 1.347 . S
N762 C763 1.373 . S
C763 C760 1.350 . S
C763 N762 1.373 . S
C763 H784 0.931 . S
H764 C759 0.931 . S
H765 C760 0.930 . S
C766 O773 1.259 . S
C766 O774 1.258 . S
N767 Co758 2.057 . S
N767 C768 1.316 . S
N767 C769 1.375 . S
C768 N767 1.316 . S
C768 N770 1.347 . S
C768 H779 0.931 . S
C769 N767 1.375 . S
C769 C771 1.350 . S
C769 H778 0.930 . S
N770 C768 1.347 . S
N770 C771 1.373 . S
C771 C769 1.350 . S
C771 N770 1.373 . S
C771 H785 0.931 . S
C772 O775 1.256 . S
C772 O776 1.255 . S
O773 Co756 2.021 . S
O773 C766 1.259 . S
O774 Co758 2.117 . S
O774 C766 1.258 . S
O775 Co758 2.020 . S
O775 C772 1.256 . S
O776 Co756 2.062 . S
O776 C772 1.255 . S
O777 C757 1.259 . S
O777 Co758 2.021 . S
H778 C769 0.930 . S
H779 C768 0.931 . S
O780 Co756 2.117 . S
O780 C757 1.258 . S
O781 Co756 2.020 . S
O781 C783 1.256 . S
O782 Co758 2.062 . S
O782 C783 1.255 . S
C783 O781 1.256 . S
C783 O782 1.255 . S
H784 C763 0.931 . S
H785 C771 0.931 . S
Co786 N791 2.057 1_455 S
Co786 O803 2.021 . S
Co786 O806 2.062 1_455 S
Co786 O810 2.117 . S
Co786 O811 2.020 1_554 S
C787 O807 1.259 . S
C787 O810 1.258 . S
Co788 N797 2.057 . S
Co788 O804 2.117 . S
Co788 O805 2.020 . S
Co788 O807 2.021 . S
Co788 O812 2.049 1_554 S
C789 N791 1.316 . S
C789 N792 1.347 . S
C789 H794 0.931 . S
C790 N791 1.387 . S
C790 C793 1.349 . S
C790 H795 0.921 1_554 S
N791 Co786 2.057 1_655 S
N791 C789 1.316 . S
N791 C790 1.387 . S
N792 C789 1.347 . S
N792 C793 1.373 . S
C793 C790 1.349 . S
C793 N792 1.373 . S
C793 H814 0.931 1_554 S
H794 C789 0.931 . S
H795 C790 0.921 1_556 S
C796 O803 1.259 . S
C796 O804 1.258 . S
N797 Co788 2.057 . S
N797 C798 1.316 . S
N797 C799 1.375 . S
C798 N797 1.316 . S
C798 N800 1.347 . S
C798 H809 0.931 . S
C799 N797 1.375 . S
C799 C801 1.350 . S
C799 H808 0.930 . S
N800 C798 1.347 . S
N800 C801 1.373 . S
C801 C799 1.350 . S
C801 N800 1.373 . S
C801 H815 0.931 . S
C802 O805 1.256 . S
C802 O806 1.255 1_455 S
O803 Co786 2.021 . S
O803 C796 1.259 . S
O804 Co788 2.117 . S
O804 C796 1.258 . S
O805 Co788 2.020 . S
O805 C802 1.256 . S
O806 Co786 2.062 1_655 S
O806 C802 1.255 1_655 S
O807 C787 1.259 . S
O807 Co788 2.021 . S
H808 C799 0.930 . S
H809 C798 0.931 . S
O810 Co786 2.117 . S
O810 C787 1.258 . S
O811 Co786 2.020 1_556 S
O811 C813 1.256 . S
O812 Co788 2.049 1_556 S
O812 C813 1.264 . S
C813 O811 1.256 . S
C813 O812 1.264 . S
H814 C793 0.931 1_556 S
H815 C801 0.931 . S
H816 C834 0.951 . S
H817 C836 0.951 . S
H818 C838 0.950 . S
H819 C839 0.950 . S
H820 C841 0.950 . S
H821 C844 0.950 . S
H822 C845 0.950 . S
H823 C847 0.950 . S
H824 C848 0.950 1_455 S
H825 C849 0.951 . S
H826 C851 0.951 . S
H827 C853 0.950 . S
H828 C854 0.950 . S
H829 C856 0.944 1_655 S
H830 C859 0.950 . S
H831 C860 0.950 . S
H832 C862 0.950 . S
H833 C863 0.950 . S
C834 H816 0.951 . S
C834 C835 1.366 . S
C834 C836 1.388 . S
C835 C834 1.366 . S
C835 C839 1.385 . S
C836 H817 0.951 . S
C836 C834 1.388 . S
C836 C837 1.366 . S
C837 C836 1.366 . S
C837 C838 1.414 . S
C837 C840 1.499 . S
C838 H818 0.950 . S
C838 C837 1.414 . S
C838 C839 1.374 . S
C839 H819 0.950 . S
C839 C835 1.385 . S
C839 C838 1.374 . S
C840 C837 1.499 . S
C840 C841 1.373 . S
C840 C842 1.389 . S
C841 H820 0.950 . S
C841 C840 1.373 . S
C841 C857 1.377 . S
C842 C840 1.389 . S
C842 C843 1.524 1_455 S
C842 C856 1.377 . S
C843 C842 1.524 1_655 S
C843 C844 1.397 . S
C843 C848 1.363 . S
C844 H821 0.950 . S
C844 C843 1.397 . S
C844 C845 1.334 . S
C845 H822 0.950 . S
C845 C844 1.334 . S
C845 C846 1.287 . S
C846 C845 1.287 . S
C846 C847 1.524 . S
C846 H865 0.913 . S
C847 H823 0.950 . S
C847 C846 1.524 . S
C847 C848 1.415 . S
C848 H824 0.950 1_655 S
C848 C843 1.363 . S
C848 C847 1.415 . S
C849 H825 0.951 . S
C849 C850 1.366 . S
C849 C851 1.388 . S
C850 C849 1.366 . S
C850 C854 1.385 . S
C851 H826 0.951 . S
C851 C849 1.388 . S
C851 C852 1.366 . S
C852 C851 1.366 . S
C852 C853 1.414 . S
C852 C855 1.499 . S
C853 H827 0.950 . S
C853 C852 1.414 . S
C853 C854 1.374 . S
C854 H828 0.950 . S
C854 C850 1.385 . S
C854 C853 1.374 . S
C855 C852 1.499 . S
C855 C856 1.373 . S
C855 C857 1.389 . S
C856 H829 0.944 1_455 S
C856 C842 1.377 . S
C856 C855 1.373 . S
C857 C841 1.377 . S
C857 C855 1.389 . S
C857 C858 1.524 . S
C858 C857 1.524 . S
C858 C859 1.397 . S
C858 C863 1.363 . S
C859 H830 0.950 . S
C859 C858 1.397 . S
C859 C860 1.334 . S
C860 H831 0.950 . S
C860 C859 1.334 . S
C860 C861 1.287 . S
C861 C860 1.287 . S
C861 C862 1.524 . S
C861 H864 0.999 . S
C862 H832 0.950 . S
C862 C861 1.524 . S
C862 C863 1.415 . S
C863 H833 0.950 . S
C863 C858 1.363 . S
C863 C862 1.415 . S
H864 C861 0.999 . S
H865 C846 0.913 . S
H866 C884 0.951 . S
H867 C886 0.951 . S
H868 C888 0.950 . S
H869 C889 0.950 . S
H870 C891 0.950 . S
H871 C894 0.950 . S
H872 C895 0.950 . S
H873 C897 0.950 . S
H874 C898 0.950 . S
H875 C899 0.951 . S
H876 C901 0.951 . S
H877 C903 0.950 . S
H878 C904 0.950 . S
H879 C906 0.950 . S
H880 C909 0.950 . S
H881 C910 0.950 . S
H882 C912 0.950 . S
H883 C913 0.950 . S
C884 H866 0.951 . S
C884 C885 1.366 . S
C884 C886 1.388 . S
C885 C884 1.366 . S
C885 C889 1.385 . S
C886 H867 0.951 . S
C886 C884 1.388 . S
C886 C887 1.366 . S
C887 C886 1.366 . S
C887 C888 1.414 . S
C887 C890 1.499 . S
C888 H868 0.950 . S
C888 C887 1.414 . S
C888 C889 1.374 . S
C889 H869 0.950 . S
C889 C885 1.385 . S
C889 C888 1.374 . S
C890 C887 1.499 . S
C890 C891 1.373 . S
C890 C892 1.389 . S
C891 H870 0.950 . S
C891 C890 1.373 . S
C891 C907 1.377 . S
C892 C890 1.389 . S
C892 C893 1.524 . S
C892 C906 1.377 . S
C893 C892 1.524 . S
C893 C894 1.397 . S
C893 C898 1.363 . S
C894 H871 0.950 . S
C894 C893 1.397 . S
C894 C895 1.334 . S
C895 H872 0.950 . S
C895 C894 1.334 . S
C895 C896 1.287 . S
C896 C895 1.287 . S
C896 C897 1.524 . S
C896 H915 0.913 . S
C897 H873 0.950 . S
C897 C896 1.524 . S
C897 C898 1.415 . S
C898 H874 0.950 . S
C898 C893 1.363 . S
C898 C897 1.415 . S
C899 H875 0.951 . S
C899 C900 1.366 . S
C899 C901 1.388 . S
C900 C899 1.366 . S
C900 C904 1.385 . S
C901 H876 0.951 . S
C901 C899 1.388 . S
C901 C902 1.366 . S
C902 C901 1.366 . S
C902 C903 1.414 . S
C902 C905 1.499 . S
C903 H877 0.950 . S
C903 C902 1.414 . S
C903 C904 1.374 . S
C904 H878 0.950 . S
C904 C900 1.385 . S
C904 C903 1.374 . S
C905 C902 1.499 . S
C905 C906 1.373 . S
C905 C907 1.389 . S
C906 H879 0.950 . S
C906 C892 1.377 . S
C906 C905 1.373 . S
C907 C891 1.377 . S
C907 C905 1.389 . S
C907 C908 1.524 . S
C908 C907 1.524 . S
C908 C909 1.397 . S
C908 C913 1.363 . S
C909 H880 0.950 . S
C909 C908 1.397 . S
C909 C910 1.334 . S
C910 H881 0.950 . S
C910 C909 1.334 . S
C910 C911 1.287 . S
C911 C910 1.287 . S
C911 C912 1.524 . S
C911 H914 0.999 . S
C912 H882 0.950 . S
C912 C911 1.524 . S
C912 C913 1.415 . S
C913 H883 0.950 . S
C913 C908 1.363 . S
C913 C912 1.415 . S
H914 C911 0.999 . S
H915 C896 0.913 . S
H916 C934 0.951 . S
H917 C936 0.951 . S
H918 C938 0.950 . S
H919 C939 0.950 . S
H920 C941 0.950 . S
H921 C944 0.950 . S
H922 C945 0.950 . S
H923 C947 0.950 . S
H924 C948 0.950 . S
H925 C949 0.951 . S
H926 C951 0.951 . S
H927 C953 0.950 . S
H928 C954 0.950 . S
H929 C956 0.950 . S
H930 C959 0.950 . S
H931 C960 0.950 . S
H932 C962 0.950 . S
H933 C963 0.950 . S
C934 H916 0.951 . S
C934 C935 1.366 . S
C934 C936 1.388 . S
C935 C934 1.366 . S
C935 C939 1.385 . S
C936 H917 0.951 . S
C936 C934 1.388 . S
C936 C937 1.366 . S
C937 C936 1.366 . S
C937 C938 1.414 . S
C937 C940 1.499 . S
C938 H918 0.950 . S
C938 C937 1.414 . S
C938 C939 1.374 . S
C939 H919 0.950 . S
C939 C935 1.385 . S
C939 C938 1.374 . S
C940 C937 1.499 . S
C940 C941 1.373 . S
C940 C942 1.389 . S
C941 H920 0.950 . S
C941 C940 1.373 . S
C941 C957 1.377 . S
C942 C940 1.389 . S
C942 C943 1.524 . S
C942 C956 1.377 . S
C943 C942 1.524 . S
C943 C944 1.397 . S
C943 C948 1.363 . S
C944 H921 0.950 . S
C944 C943 1.397 . S
C944 C945 1.334 . S
C945 H922 0.950 . S
C945 C944 1.334 . S
C945 C946 1.287 . S
C946 C945 1.287 . S
C946 C947 1.524 . S
C946 H965 0.913 . S
C947 H923 0.950 . S
C947 C946 1.524 . S
C947 C948 1.415 . S
C948 H924 0.950 . S
C948 C943 1.363 . S
C948 C947 1.415 . S
C949 H925 0.951 . S
C949 C950 1.366 . S
C949 C951 1.388 . S
C950 C949 1.366 . S
C950 C954 1.385 . S
C951 H926 0.951 . S
C951 C949 1.388 . S
C951 C952 1.366 . S
C952 C951 1.366 . S
C952 C953 1.414 . S
C952 C955 1.499 . S
C953 H927 0.950 . S
C953 C952 1.414 . S
C953 C954 1.374 . S
C954 H928 0.950 . S
C954 C950 1.385 . S
C954 C953 1.374 . S
C955 C952 1.499 . S
C955 C956 1.373 . S
C955 C957 1.389 . S
C956 H929 0.950 . S
C956 C942 1.377 . S
C956 C955 1.373 . S
C957 C941 1.377 . S
C957 C955 1.389 . S
C957 C958 1.524 . S
C958 C957 1.524 . S
C958 C959 1.397 . S
C958 C963 1.363 . S
C959 H930 0.950 . S
C959 C958 1.397 . S
C959 C960 1.334 . S
C960 H931 0.950 . S
C960 C959 1.334 . S
C960 C961 1.287 . S
C961 C960 1.287 . S
C961 C962 1.524 . S
C961 H964 0.999 . S
C962 H932 0.950 . S
C962 C961 1.524 . S
C962 C963 1.415 . S
C963 H933 0.950 . S
C963 C958 1.363 . S
C963 C962 1.415 . S
H964 C961 0.999 . S
H965 C946 0.913 . S
H966 C984 0.951 . S
H967 C986 0.951 . S
H968 C988 0.950 . S
H969 C989 0.950 . S
H970 C991 0.950 . S
H971 C994 0.950 . S
H972 C995 0.950 . S
H973 C997 0.950 . S
H974 C998 0.950 . S
H975 C999 0.951 . S
H976 C1001 0.951 . S
H977 C1003 0.950 . S
H978 C1004 0.950 . S
H979 C1006 0.950 . S
H980 C1009 0.950 . S
H981 C1010 0.950 . S
H982 C1012 0.950 . S
H983 C1013 0.950 . S
C984 H966 0.951 . S
C984 C985 1.366 . S
C984 C986 1.388 . S
C985 C984 1.366 . S
C985 C989 1.385 . S
C986 H967 0.951 . S
C986 C984 1.388 . S
C986 C987 1.366 . S
C987 C986 1.366 . S
C987 C988 1.414 . S
C987 C990 1.499 . S
C988 H968 0.950 . S
C988 C987 1.414 . S
C988 C989 1.374 . S
C989 H969 0.950 . S
C989 C985 1.385 . S
C989 C988 1.374 . S
C990 C987 1.499 . S
C990 C991 1.373 . S
C990 C992 1.389 . S
C991 H970 0.950 . S
C991 C990 1.373 . S
C991 C1007 1.377 . S
C992 C990 1.389 . S
C992 C993 1.524 . S
C992 C1006 1.377 . S
C993 C992 1.524 . S
C993 C994 1.397 . S
C993 C998 1.363 . S
C994 H971 0.950 . S
C994 C993 1.397 . S
C994 C995 1.334 . S
C995 H972 0.950 . S
C995 C994 1.334 . S
C995 C996 1.287 . S
C996 C995 1.287 . S
C996 C997 1.524 . S
C996 H1015 0.913 . S
C997 H973 0.950 . S
C997 C996 1.524 . S
C997 C998 1.415 . S
C998 H974 0.950 . S
C998 C993 1.363 . S
C998 C997 1.415 . S
C999 H975 0.951 . S
C999 C1000 1.366 . S
C999 C1001 1.388 . S
C1000 C999 1.366 . S
C1000 C1004 1.385 . S
C1001 H976 0.951 . S
C1001 C999 1.388 . S
C1001 C1002 1.366 . S
C1002 C1001 1.366 . S
C1002 C1003 1.414 . S
C1002 C1005 1.499 . S
C1003 H977 0.950 . S
C1003 C1002 1.414 . S
C1003 C1004 1.374 . S
C1004 H978 0.950 . S
C1004 C1000 1.385 . S
C1004 C1003 1.374 . S
C1005 C1002 1.499 . S
C1005 C1006 1.373 . S
C1005 C1007 1.389 . S
C1006 H979 0.950 . S
C1006 C992 1.377 . S
C1006 C1005 1.373 . S
C1007 C991 1.377 . S
C1007 C1005 1.389 . S
C1007 C1008 1.524 . S
C1008 C1007 1.524 . S
C1008 C1009 1.397 . S
C1008 C1013 1.363 . S
C1009 H980 0.950 . S
C1009 C1008 1.397 . S
C1009 C1010 1.334 . S
C1010 H981 0.950 . S
C1010 C1009 1.334 . S
C1010 C1011 1.287 . S
C1011 C1010 1.287 . S
C1011 C1012 1.524 . S
C1011 H1014 0.999 . S
C1012 H982 0.950 . S
C1012 C1011 1.524 . S
C1012 C1013 1.415 . S
C1013 H983 0.950 . S
C1013 C1008 1.363 . S
C1013 C1012 1.415 . S
H1014 C1011 0.999 . S
H1015 C996 0.913 . S
H1016 C1034 0.951 . S
H1017 C1036 0.951 . S
H1018 C1038 0.950 . S
H1019 C1039 0.950 . S
H1020 C1041 0.950 . S
H1021 C1044 0.950 1_455 S
H1022 C1045 0.950 . S
H1023 C1047 0.950 . S
H1024 C1048 0.950 . S
H1025 C1049 0.951 . S
H1026 C1051 0.951 . S
H1027 C1053 0.981 . S
H1028 C1054 0.950 . S
H1029 C1056 0.950 1_655 S
H1030 C1059 0.950 . S
H1031 C1060 0.950 . S
H1032 C1062 0.950 . S
H1033 C1063 0.950 . S
C1034 H1016 0.951 . S
C1034 C1035 1.366 . S
C1034 C1036 1.388 . S
C1035 C1034 1.366 . S
C1035 C1039 1.385 . S
C1036 H1017 0.951 . S
C1036 C1034 1.388 . S
C1036 C1037 1.366 . S
C1037 C1036 1.366 . S
C1037 C1038 1.414 . S
C1037 C1040 1.499 . S
C1038 H1018 0.950 . S
C1038 C1037 1.414 . S
C1038 C1039 1.374 . S
C1039 H1019 0.950 . S
C1039 C1035 1.385 . S
C1039 C1038 1.374 . S
C1040 C1037 1.499 . S
C1040 C1041 1.373 . S
C1040 C1042 1.389 . S
C1041 H1020 0.950 . S
C1041 C1040 1.373 . S
C1041 C1057 1.377 . S
C1042 C1040 1.389 . S
C1042 C1043 1.524 1_455 S
C1042 C1056 1.377 . S
C1043 C1042 1.524 1_655 S
C1043 C1044 1.397 . S
C1043 C1048 1.363 . S
C1044 H1021 0.950 1_655 S
C1044 C1043 1.397 . S
C1044 C1045 1.334 . S
C1045 H1022 0.950 . S
C1045 C1044 1.334 . S
C1045 C1046 1.287 . S
C1046 C1045 1.287 . S
C1046 C1047 1.524 . S
C1046 H1065 0.913 . S
C1047 H1023 0.950 . S
C1047 C1046 1.524 . S
C1047 C1048 1.415 . S
C1048 H1024 0.950 . S
C1048 C1043 1.363 . S
C1048 C1047 1.415 . S
C1049 H1025 0.951 . S
C1049 C1050 1.366 . S
C1049 C1051 1.388 . S
C1050 C1049 1.366 . S
C1050 C1054 1.385 1_455 S
C1051 H1026 0.951 . S
C1051 C1049 1.388 . S
C1051 C1052 1.366 . S
C1052 C1051 1.366 . S
C1052 C1053 1.377 1_455 S
C1052 C1055 1.499 . S
C1053 H1027 0.981 . S
C1053 C1052 1.377 1_655 S
C1053 C1054 1.383 . S
C1054 H1028 0.950 . S
C1054 C1050 1.385 1_655 S
C1054 C1053 1.383 . S
C1055 C1052 1.499 . S
C1055 C1056 1.373 . S
C1055 C1057 1.389 . S
C1056 H1029 0.950 1_455 S
C1056 C1042 1.377 . S
C1056 C1055 1.373 . S
C1057 C1041 1.377 . S
C1057 C1055 1.389 . S
C1057 C1058 1.524 . S
C1058 C1057 1.524 . S
C1058 C1059 1.397 . S
C1058 C1063 1.363 . S
C1059 H1030 0.950 . S
C1059 C1058 1.397 . S
C1059 C1060 1.334 . S
C1060 H1031 0.950 . S
C1060 C1059 1.334 . S
C1060 C1061 1.287 . S
C1061 C1060 1.287 . S
C1061 C1062 1.524 . S
C1061 H1064 0.999 . S
C1062 H1032 0.950 . S
C1062 C1061 1.524 . S
C1062 C1063 1.415 . S
C1063 H1033 0.950 . S
C1063 C1058 1.363 . S
C1063 C1062 1.415 . S
H1064 C1061 0.999 . S
H1065 C1046 0.913 . S
H1066 C1084 0.951 . S
H1067 C1086 0.951 . S
H1068 C1088 0.950 . S
H1069 C1089 0.950 . S
H1070 C1091 0.950 . S
H1071 C1094 0.950 . S
H1072 C1095 0.950 . S
H1073 C1097 0.950 . S
H1074 C1098 0.950 . S
H1075 C1099 0.951 . S
H1076 C1101 0.951 . S
H1077 C1103 0.950 . S
H1078 C1104 0.950 . S
H1079 C1106 0.950 . S
H1080 C1109 0.950 . S
H1081 C1110 0.950 . S
H1082 C1112 0.950 . S
H1083 C1113 0.950 . S
C1084 H1066 0.951 . S
C1084 C1085 1.366 . S
C1084 C1086 1.388 . S
C1085 C1084 1.366 . S
C1085 C1089 1.385 . S
C1086 H1067 0.951 . S
C1086 C1084 1.388 . S
C1086 C1087 1.366 . S
C1087 C1086 1.366 . S
C1087 C1088 1.414 . S
C1087 C1090 1.499 . S
C1088 H1068 0.950 . S
C1088 C1087 1.414 . S
C1088 C1089 1.374 . S
C1089 H1069 0.950 . S
C1089 C1085 1.385 . S
C1089 C1088 1.374 . S
C1090 C1087 1.499 . S
C1090 C1091 1.373 . S
C1090 C1092 1.389 . S
C1091 H1070 0.950 . S
C1091 C1090 1.373 . S
C1091 C1107 1.377 . S
C1092 C1090 1.389 . S
C1092 C1093 1.524 . S
C1092 C1106 1.377 . S
C1093 C1092 1.524 . S
C1093 C1094 1.397 . S
C1093 C1098 1.363 . S
C1094 H1071 0.950 . S
C1094 C1093 1.397 . S
C1094 C1095 1.334 . S
C1095 H1072 0.950 . S
C1095 C1094 1.334 . S
C1095 C1096 1.287 . S
C1096 C1095 1.287 . S
C1096 C1097 1.524 . S
C1096 H1115 0.913 . S
C1097 H1073 0.950 . S
C1097 C1096 1.524 . S
C1097 C1098 1.415 . S
C1098 H1074 0.950 . S
C1098 C1093 1.363 . S
C1098 C1097 1.415 . S
C1099 H1075 0.951 . S
C1099 C1100 1.366 . S
C1099 C1101 1.388 . S
C1100 C1099 1.366 . S
C1100 C1104 1.385 . S
C1101 H1076 0.951 . S
C1101 C1099 1.388 . S
C1101 C1102 1.366 . S
C1102 C1101 1.366 . S
C1102 C1103 1.414 . S
C1102 C1105 1.499 . S
C1103 H1077 0.950 . S
C1103 C1102 1.414 . S
C1103 C1104 1.374 . S
C1104 H1078 0.950 . S
C1104 C1100 1.385 . S
C1104 C1103 1.374 . S
C1105 C1102 1.499 . S
C1105 C1106 1.373 . S
C1105 C1107 1.389 . S
C1106 H1079 0.950 . S
C1106 C1092 1.377 . S
C1106 C1105 1.373 . S
C1107 C1091 1.377 . S
C1107 C1105 1.389 . S
C1107 C1108 1.524 . S
C1108 C1107 1.524 . S
C1108 C1109 1.397 . S
C1108 C1113 1.363 . S
C1109 H1080 0.950 . S
C1109 C1108 1.397 . S
C1109 C1110 1.334 . S
C1110 H1081 0.950 . S
C1110 C1109 1.334 . S
C1110 C1111 1.287 . S
C1111 C1110 1.287 . S
C1111 C1112 1.524 . S
C1111 H1114 0.999 . S
C1112 H1082 0.950 . S
C1112 C1111 1.524 . S
C1112 C1113 1.415 . S
C1113 H1083 0.950 . S
C1113 C1108 1.363 . S
C1113 C1112 1.415 . S
H1114 C1111 0.999 . S
H1115 C1096 0.913 . S
H1116 C1134 0.951 . S
H1117 C1136 0.951 . S
H1118 C1138 0.950 . S
H1119 C1139 0.950 . S
H1120 C1141 0.950 . S
H1121 C1144 0.950 . S
H1122 C1145 0.950 . S
H1123 C1147 0.950 . S
H1124 C1148 0.926 1_554 S
H1125 C1149 0.951 . S
H1126 C1151 0.951 . S
H1127 C1153 0.950 . S
H1128 C1154 0.950 . S
H1129 C1156 0.950 . S
H1130 C1159 0.950 . S
H1131 C1160 0.950 . S
H1132 C1162 0.950 . S
H1133 C1163 0.950 . S
C1134 H1116 0.951 . S
C1134 C1135 1.366 . S
C1134 C1136 1.388 . S
C1135 C1134 1.366 . S
C1135 C1139 1.385 . S
C1136 H1117 0.951 . S
C1136 C1134 1.388 . S
C1136 C1137 1.366 . S
C1137 C1136 1.366 . S
C1137 C1138 1.414 . S
C1137 C1140 1.499 . S
C1138 H1118 0.950 . S
C1138 C1137 1.414 . S
C1138 C1139 1.374 . S
C1139 H1119 0.950 . S
C1139 C1135 1.385 . S
C1139 C1138 1.374 . S
C1140 C1137 1.499 . S
C1140 C1141 1.373 . S
C1140 C1142 1.389 . S
C1141 H1120 0.950 . S
C1141 C1140 1.373 . S
C1141 C1157 1.377 . S
C1142 C1140 1.389 . S
C1142 C1143 1.524 . S
C1142 C1156 1.377 . S
C1143 C1142 1.524 . S
C1143 C1144 1.397 . S
C1143 C1148 1.418 . S
C1144 H1121 0.950 . S
C1144 C1143 1.397 . S
C1144 C1145 1.334 . S
C1145 H1122 0.950 . S
C1145 C1144 1.334 . S
C1145 C1146 1.287 . S
C1146 C1145 1.287 . S
C1146 C1147 1.524 1_556 S
C1146 H1165 0.913 1_556 S
C1147 H1123 0.950 . S
C1147 C1146 1.524 1_554 S
C1147 C1148 1.386 1_554 S
C1148 H1124 0.926 1_556 S
C1148 C1143 1.418 . S
C1148 C1147 1.386 1_556 S
C1149 H1125 0.951 . S
C1149 C1150 1.366 1_556 S
C1149 C1151 1.388 . S
C1150 C1149 1.366 1_554 S
C1150 C1154 1.385 . S
C1151 H1126 0.951 . S
C1151 C1149 1.388 . S
C1151 C1152 1.366 . S
C1152 C1151 1.366 . S
C1152 C1153 1.414 1_556 S
C1152 C1155 1.499 . S
C1153 H1127 0.950 . S
C1153 C1152 1.414 1_554 S
C1153 C1154 1.374 . S
C1154 H1128 0.950 . S
C1154 C1150 1.385 . S
C1154 C1153 1.374 . S
C1155 C1152 1.499 . S
C1155 C1156 1.373 . S
C1155 C1157 1.389 . S
C1156 H1129 0.950 . S
C1156 C1142 1.377 . S
C1156 C1155 1.373 . S
C1157 C1141 1.377 . S
C1157 C1155 1.389 . S
C1157 C1158 1.524 . S
C1158 C1157 1.524 . S
C1158 C1159 1.397 . S
C1158 C1163 1.363 . S
C1159 H1130 0.950 . S
C1159 C1158 1.397 . S
C1159 C1160 1.334 . S
C1160 H1131 0.950 . S
C1160 C1159 1.334 . S
C1160 C1161 1.287 . S
C1161 C1160 1.287 . S
C1161 C1162 1.524 . S
C1161 H1164 0.999 . S
C1162 H1132 0.950 . S
C1162 C1161 1.524 . S
C1162 C1163 1.415 . S
C1163 H1133 0.950 . S
C1163 C1158 1.363 . S
C1163 C1162 1.415 . S
H1164 C1161 0.999 . S
H1165 C1146 0.913 1_554 S
H1166 C1184 0.951 . S
H1167 C1186 0.951 . S
H1168 C1188 0.950 . S
H1169 C1189 0.950 . S
H1170 C1191 0.950 . S
H1171 C1194 0.950 . S
H1172 C1195 0.950 . S
H1173 C1197 0.950 . S
H1174 C1198 0.950 . S
H1175 C1199 0.951 . S
H1176 C1201 0.951 . S
H1177 C1203 0.950 . S
H1178 C1204 0.950 . S
H1179 C1206 0.950 . S
H1180 C1209 0.950 . S
H1181 C1210 0.950 . S
H1182 C1212 0.950 . S
H1183 C1213 0.950 . S
C1184 H1166 0.951 . S
C1184 C1185 1.366 . S
C1184 C1186 1.388 . S
C1185 C1184 1.366 . S
C1185 C1189 1.385 . S
C1186 H1167 0.951 . S
C1186 C1184 1.388 . S
C1186 C1187 1.366 . S
C1187 C1186 1.366 . S
C1187 C1188 1.414 . S
C1187 C1190 1.499 . S
C1188 H1168 0.950 . S
C1188 C1187 1.414 . S
C1188 C1189 1.374 . S
C1189 H1169 0.950 . S
C1189 C1185 1.385 . S
C1189 C1188 1.374 . S
C1190 C1187 1.499 . S
C1190 C1191 1.373 . S
C1190 C1192 1.389 . S
C1191 H1170 0.950 . S
C1191 C1190 1.373 . S
C1191 C1207 1.377 . S
C1192 C1190 1.389 . S
C1192 C1193 1.524 . S
C1192 C1206 1.377 . S
C1193 C1192 1.524 . S
C1193 C1194 1.397 . S
C1193 C1198 1.363 . S
C1194 H1171 0.950 . S
C1194 C1193 1.397 . S
C1194 C1195 1.334 . S
C1195 H1172 0.950 . S
C1195 C1194 1.334 . S
C1195 C1196 1.287 . S
C1196 C1195 1.287 . S
C1196 C1197 1.524 . S
C1196 H1215 0.913 . S
C1197 H1173 0.950 . S
C1197 C1196 1.524 . S
C1197 C1198 1.415 . S
C1198 H1174 0.950 . S
C1198 C1193 1.363 . S
C1198 C1197 1.415 . S
C1199 H1175 0.951 . S
C1199 C1200 1.366 . S
C1199 C1201 1.388 . S
C1200 C1199 1.366 . S
C1200 C1204 1.385 . S
C1201 H1176 0.951 . S
C1201 C1199 1.388 . S
C1201 C1202 1.366 . S
C1202 C1201 1.366 . S
C1202 C1203 1.414 . S
C1202 C1205 1.499 . S
C1203 H1177 0.950 . S
C1203 C1202 1.414 . S
C1203 C1204 1.374 . S
C1204 H1178 0.950 . S
C1204 C1200 1.385 . S
C1204 C1203 1.374 . S
C1205 C1202 1.499 . S
C1205 C1206 1.373 . S
C1205 C1207 1.389 . S
C1206 H1179 0.950 . S
C1206 C1192 1.377 . S
C1206 C1205 1.373 . S
C1207 C1191 1.377 . S
C1207 C1205 1.389 . S
C1207 C1208 1.524 . S
C1208 C1207 1.524 . S
C1208 C1209 1.397 . S
C1208 C1213 1.363 . S
C1209 H1180 0.950 . S
C1209 C1208 1.397 . S
C1209 C1210 1.334 . S
C1210 H1181 0.950 . S
C1210 C1209 1.334 . S
C1210 C1211 1.287 . S
C1211 C1210 1.287 . S
C1211 C1212 1.524 . S
C1211 H1214 0.999 . S
C1212 H1182 0.950 . S
C1212 C1211 1.524 . S
C1212 C1213 1.415 . S
C1213 H1183 0.950 . S
C1213 C1208 1.363 . S
C1213 C1212 1.415 . S
H1214 C1211 0.999 . S
H1215 C1196 0.913 . S
H1216 C1234 0.951 . S
H1217 C1236 0.951 . S
H1218 C1238 0.951 1_565 S
H1219 C1239 0.955 . S
H1220 C1241 0.950 . S
H1221 C1244 0.950 . S
H1222 C1245 0.950 . S
H1223 C1247 0.950 . S
H1224 C1248 0.950 . S
H1225 C1249 0.951 1_565 S
H1226 C1251 0.952 1_565 S
H1227 C1253 0.950 . S
H1228 C1254 0.950 . S
H1229 C1256 0.950 . S
H1230 C1259 0.950 . S
H1231 C1260 0.950 . S
H1232 C1262 0.950 . S
H1233 C1263 0.950 . S
C1234 H1216 0.951 . S
C1234 C1235 1.366 . S
C1234 C1236 1.388 . S
C1235 C1234 1.366 . S
C1235 C1239 1.385 . S
C1236 H1217 0.951 . S
C1236 C1234 1.388 . S
C1236 C1237 1.366 . S
C1237 C1236 1.366 . S
C1237 C1238 1.414 . S
C1237 C1240 1.499 . S
C1238 H1218 0.951 1_545 S
C1238 C1237 1.414 . S
C1238 C1239 1.374 . S
C1239 H1219 0.955 . S
C1239 C1235 1.385 . S
C1239 C1238 1.374 . S
C1240 C1237 1.499 . S
C1240 C1241 1.373 . S
C1240 C1242 1.389 1_545 S
C1241 H1220 0.950 . S
C1241 C1240 1.373 . S
C1241 C1257 1.377 . S
C1242 C1240 1.389 1_565 S
C1242 C1243 1.524 . S
C1242 C1256 1.377 . S
C1243 C1242 1.524 . S
C1243 C1244 1.397 . S
C1243 C1248 1.363 . S
C1244 H1221 0.950 . S
C1244 C1243 1.397 . S
C1244 C1245 1.334 . S
C1245 H1222 0.950 . S
C1245 C1244 1.334 . S
C1245 C1246 1.287 . S
C1246 C1245 1.287 . S
C1246 C1247 1.524 . S
C1246 H1265 0.913 . S
C1247 H1223 0.950 . S
C1247 C1246 1.524 . S
C1247 C1248 1.415 . S
C1248 H1224 0.950 . S
C1248 C1243 1.363 . S
C1248 C1247 1.415 . S
C1249 H1225 0.951 1_545 S
C1249 C1250 1.366 . S
C1249 C1251 1.388 . S
C1250 C1249 1.366 . S
C1250 C1254 1.385 . S
C1251 H1226 0.952 1_545 S
C1251 C1249 1.388 . S
C1251 C1252 1.366 . S
C1252 C1251 1.366 . S
C1252 C1253 1.414 . S
C1252 C1255 1.499 . S
C1253 H1227 0.950 . S
C1253 C1252 1.414 . S
C1253 C1254 1.374 . S
C1254 H1228 0.950 . S
C1254 C1250 1.385 . S
C1254 C1253 1.374 . S
C1255 C1252 1.499 . S
C1255 C1256 1.373 1_545 S
C1255 C1257 1.389 . S
C1256 H1229 0.950 . S
C1256 C1242 1.377 . S
C1256 C1255 1.373 1_565 S
C1257 C1241 1.377 . S
C1257 C1255 1.389 . S
C1257 C1258 1.524 . S
C1258 C1257 1.524 . S
C1258 C1259 1.397 . S
C1258 C1263 1.363 . S
C1259 H1230 0.950 . S
C1259 C1258 1.397 . S
C1259 C1260 1.334 . S
C1260 H1231 0.950 . S
C1260 C1259 1.334 . S
C1260 C1261 1.287 . S
C1261 C1260 1.287 . S
C1261 C1262 1.524 . S
C1261 H1264 0.999 . S
C1262 H1232 0.950 . S
C1262 C1261 1.524 . S
C1262 C1263 1.415 . S
C1263 H1233 0.950 . S
C1263 C1258 1.363 . S
C1263 C1262 1.415 . S
H1264 C1261 0.999 . S
H1265 C1246 0.913 . S
H1266 C1284 0.951 . S
H1267 C1286 0.951 . S
H1268 C1288 0.950 . S
H1269 C1289 0.950 . S
H1270 C1291 0.950 . S
H1271 C1294 0.950 . S
H1272 C1295 0.950 . S
H1273 C1297 0.950 . S
H1274 C1298 0.950 . S
H1275 C1299 0.951 . S
H1276 C1301 0.951 . S
H1277 C1303 0.950 . S
H1278 C1304 0.950 . S
H1279 C1306 0.950 . S
H1280 C1309 0.950 . S
H1281 C1310 0.950 . S
H1282 C1312 0.950 . S
H1283 C1313 0.950 . S
C1284 H1266 0.951 . S
C1284 C1285 1.366 . S
C1284 C1286 1.388 . S
C1285 C1284 1.366 . S
C1285 C1289 1.385 . S
C1286 H1267 0.951 . S
C1286 C1284 1.388 . S
C1286 C1287 1.366 . S
C1287 C1286 1.366 . S
C1287 C1288 1.414 . S
C1287 C1290 1.499 . S
C1288 H1268 0.950 . S
C1288 C1287 1.414 . S
C1288 C1289 1.374 . S
C1289 H1269 0.950 . S
C1289 C1285 1.385 . S
C1289 C1288 1.374 . S
C1290 C1287 1.499 . S
C1290 C1291 1.373 . S
C1290 C1292 1.389 . S
C1291 H1270 0.950 . S
C1291 C1290 1.373 . S
C1291 C1307 1.377 . S
C1292 C1290 1.389 . S
C1292 C1293 1.524 . S
C1292 C1306 1.377 . S
C1293 C1292 1.524 . S
C1293 C1294 1.397 . S
C1293 C1298 1.363 . S
C1294 H1271 0.950 . S
C1294 C1293 1.397 . S
C1294 C1295 1.334 . S
C1295 H1272 0.950 . S
C1295 C1294 1.334 . S
C1295 C1296 1.287 . S
C1296 C1295 1.287 . S
C1296 C1297 1.524 . S
C1296 H1315 0.913 . S
C1297 H1273 0.950 . S
C1297 C1296 1.524 . S
C1297 C1298 1.415 . S
C1298 H1274 0.950 . S
C1298 C1293 1.363 . S
C1298 C1297 1.415 . S
C1299 H1275 0.951 . S
C1299 C1300 1.366 . S
C1299 C1301 1.388 . S
C1300 C1299 1.366 . S
C1300 C1304 1.385 . S
C1301 H1276 0.951 . S
C1301 C1299 1.388 . S
C1301 C1302 1.366 . S
C1302 C1301 1.366 . S
C1302 C1303 1.414 . S
C1302 C1305 1.499 . S
C1303 H1277 0.950 . S
C1303 C1302 1.414 . S
C1303 C1304 1.374 . S
C1304 H1278 0.950 . S
C1304 C1300 1.385 . S
C1304 C1303 1.374 . S
C1305 C1302 1.499 . S
C1305 C1306 1.373 . S
C1305 C1307 1.389 . S
C1306 H1279 0.950 . S
C1306 C1292 1.377 . S
C1306 C1305 1.373 . S
C1307 C1291 1.377 . S
C1307 C1305 1.389 . S
C1307 C1308 1.524 . S
C1308 C1307 1.524 . S
C1308 C1309 1.397 . S
C1308 C1313 1.363 . S
C1309 H1280 0.950 . S
C1309 C1308 1.397 . S
C1309 C1310 1.334 . S
C1310 H1281 0.950 . S
C1310 C1309 1.334 . S
C1310 C1311 1.287 . S
C1311 C1310 1.287 . S
C1311 C1312 1.524 . S
C1311 H1314 0.999 . S
C1312 H1282 0.950 . S
C1312 C1311 1.524 . S
C1312 C1313 1.415 . S
C1313 H1283 0.950 . S
C1313 C1308 1.363 . S
C1313 C1312 1.415 . S
H1314 C1311 0.999 . S
H1315 C1296 0.913 . S
H1316 C1334 0.951 . S
H1317 C1336 0.951 . S
H1318 C1338 0.950 . S
H1319 C1339 0.950 . S
H1320 C1341 0.950 . S
H1321 C1344 0.950 . S
H1322 C1345 0.950 . S
H1323 C1347 0.950 . S
H1324 C1348 0.950 . S
H1325 C1349 0.951 . S
H1326 C1351 0.951 . S
H1327 C1353 0.950 . S
H1328 C1354 0.950 . S
H1329 C1356 0.950 . S
H1330 C1359 0.950 . S
H1331 C1360 0.950 . S
H1332 C1362 0.950 . S
H1333 C1363 0.950 . S
C1334 H1316 0.951 . S
C1334 C1335 1.366 . S
C1334 C1336 1.388 . S
C1335 C1334 1.366 . S
C1335 C1339 1.385 . S
C1336 H1317 0.951 . S
C1336 C1334 1.388 . S
C1336 C1337 1.366 . S
C1337 C1336 1.366 . S
C1337 C1338 1.414 . S
C1337 C1340 1.499 . S
C1338 H1318 0.950 . S
C1338 C1337 1.414 . S
C1338 C1339 1.374 . S
C1339 H1319 0.950 . S
C1339 C1335 1.385 . S
C1339 C1338 1.374 . S
C1340 C1337 1.499 . S
C1340 C1341 1.373 . S
C1340 C1342 1.389 . S
C1341 H1320 0.950 . S
C1341 C1340 1.373 . S
C1341 C1357 1.377 . S
C1342 C1340 1.389 . S
C1342 C1343 1.524 . S
C1342 C1356 1.377 . S
C1343 C1342 1.524 . S
C1343 C1344 1.397 . S
C1343 C1348 1.363 . S
C1344 H1321 0.950 . S
C1344 C1343 1.397 . S
C1344 C1345 1.334 . S
C1345 H1322 0.950 . S
C1345 C1344 1.334 . S
C1345 C1346 1.287 . S
C1346 C1345 1.287 . S
C1346 C1347 1.524 . S
C1346 H1365 0.913 . S
C1347 H1323 0.950 . S
C1347 C1346 1.524 . S
C1347 C1348 1.415 . S
C1348 H1324 0.950 . S
C1348 C1343 1.363 . S
C1348 C1347 1.415 . S
C1349 H1325 0.951 . S
C1349 C1350 1.366 . S
C1349 C1351 1.388 . S
C1350 C1349 1.366 . S
C1350 C1354 1.385 . S
C1351 H1326 0.951 . S
C1351 C1349 1.388 . S
C1351 C1352 1.366 . S
C1352 C1351 1.366 . S
C1352 C1353 1.414 . S
C1352 C1355 1.499 . S
C1353 H1327 0.950 . S
C1353 C1352 1.414 . S
C1353 C1354 1.374 . S
C1354 H1328 0.950 . S
C1354 C1350 1.385 . S
C1354 C1353 1.374 . S
C1355 C1352 1.499 . S
C1355 C1356 1.373 . S
C1355 C1357 1.389 . S
C1356 H1329 0.950 . S
C1356 C1342 1.377 . S
C1356 C1355 1.373 . S
C1357 C1341 1.377 . S
C1357 C1355 1.389 . S
C1357 C1358 1.524 . S
C1358 C1357 1.524 . S
C1358 C1359 1.397 . S
C1358 C1363 1.363 . S
C1359 H1330 0.950 . S
C1359 C1358 1.397 . S
C1359 C1360 1.334 . S
C1360 H1331 0.950 . S
C1360 C1359 1.334 . S
C1360 C1361 1.287 . S
C1361 C1360 1.287 . S
C1361 C1362 1.524 . S
C1361 H1364 0.999 . S
C1362 H1332 0.950 . S
C1362 C1361 1.524 . S
C1362 C1363 1.415 . S
C1363 H1333 0.950 . S
C1363 C1358 1.363 . S
C1363 C1362 1.415 . S
H1364 C1361 0.999 . S
H1365 C1346 0.913 . S
H1366 C1384 0.951 . S
H1367 C1386 0.951 . S
H1368 C1388 0.950 . S
H1369 C1389 0.950 . S
H1370 C1391 0.950 . S
H1371 C1394 0.950 . S
H1372 C1395 0.950 . S
H1373 C1397 0.950 . S
H1374 C1398 0.950 . S
H1375 C1399 0.951 . S
H1376 C1401 0.951 . S
H1377 C1403 0.950 . S
H1378 C1404 0.950 . S
H1379 C1406 0.950 . S
H1380 C1409 0.950 . S
H1381 C1410 0.950 . S
H1382 C1412 0.950 . S
H1383 C1413 0.950 . S
C1384 H1366 0.951 . S
C1384 C1385 1.366 . S
C1384 C1386 1.388 . S
C1385 C1384 1.366 . S
C1385 C1389 1.385 . S
C1386 H1367 0.951 . S
C1386 C1384 1.388 . S
C1386 C1387 1.366 . S
C1387 C1386 1.366 . S
C1387 C1388 1.414 . S
C1387 C1390 1.499 . S
C1388 H1368 0.950 . S
C1388 C1387 1.414 . S
C1388 C1389 1.374 . S
C1389 H1369 0.950 . S
C1389 C1385 1.385 . S
C1389 C1388 1.374 . S
C1390 C1387 1.499 . S
C1390 C1391 1.373 . S
C1390 C1392 1.389 . S
C1391 H1370 0.950 . S
C1391 C1390 1.373 . S
C1391 C1407 1.377 . S
C1392 C1390 1.389 . S
C1392 C1393 1.524 . S
C1392 C1406 1.377 . S
C1393 C1392 1.524 . S
C1393 C1394 1.397 . S
C1393 C1398 1.363 . S
C1394 H1371 0.950 . S
C1394 C1393 1.397 . S
C1394 C1395 1.334 . S
C1395 H1372 0.950 . S
C1395 C1394 1.334 . S
C1395 C1396 1.287 . S
C1396 C1395 1.287 . S
C1396 C1397 1.524 . S
C1396 H1415 0.913 . S
C1397 H1373 0.950 . S
C1397 C1396 1.524 . S
C1397 C1398 1.415 . S
C1398 H1374 0.950 . S
C1398 C1393 1.363 . S
C1398 C1397 1.415 . S
C1399 H1375 0.951 . S
C1399 C1400 1.366 . S
C1399 C1401 1.388 . S
C1400 C1399 1.366 . S
C1400 C1404 1.385 . S
C1401 H1376 0.951 . S
C1401 C1399 1.388 . S
C1401 C1402 1.366 . S
C1402 C1401 1.366 . S
C1402 C1403 1.414 . S
C1402 C1405 1.499 . S
C1403 H1377 0.950 . S
C1403 C1402 1.414 . S
C1403 C1404 1.374 . S
C1404 H1378 0.950 . S
C1404 C1400 1.385 . S
C1404 C1403 1.374 . S
C1405 C1402 1.499 . S
C1405 C1406 1.373 . S
C1405 C1407 1.389 . S
C1406 H1379 0.950 . S
C1406 C1392 1.377 . S
C1406 C1405 1.373 . S
C1407 C1391 1.377 . S
C1407 C1405 1.389 . S
C1407 C1408 1.524 . S
C1408 C1407 1.524 . S
C1408 C1409 1.397 . S
C1408 C1413 1.363 . S
C1409 H1380 0.950 . S
C1409 C1408 1.397 . S
C1409 C1410 1.334 . S
C1410 H1381 0.950 . S
C1410 C1409 1.334 . S
C1410 C1411 1.287 . S
C1411 C1410 1.287 . S
C1411 C1412 1.524 . S
C1411 H1414 0.999 . S
C1412 H1382 0.950 . S
C1412 C1411 1.524 . S
C1412 C1413 1.415 . S
C1413 H1383 0.950 . S
C1413 C1408 1.363 . S
C1413 C1412 1.415 . S
H1414 C1411 0.999 . S
H1415 C1396 0.913 . S
H1416 C1434 0.951 . S
H1417 C1436 0.951 . S
H1418 C1438 0.949 . S
H1419 C1439 0.950 1_565 S
H1420 C1441 0.950 1_565 S
H1421 C1444 0.950 . S
H1422 C1445 0.950 . S
H1423 C1447 0.950 . S
H1424 C1448 0.950 . S
H1425 C1449 0.951 . S
H1426 C1451 0.951 . S
H1427 C1453 0.950 . S
H1428 C1454 0.950 . S
H1429 C1456 0.950 . S
H1430 C1459 0.950 . S
H1431 C1460 0.950 . S
H1432 C1462 0.950 . S
H1433 C1463 0.950 . S
C1434 H1416 0.951 . S
C1434 C1435 1.366 . S
C1434 C1436 1.388 . S
C1435 C1434 1.366 . S
C1435 C1439 1.385 . S
C1436 H1417 0.951 . S
C1436 C1434 1.388 . S
C1436 C1437 1.366 . S
C1437 C1436 1.366 . S
C1437 C1438 1.414 . S
C1437 C1440 1.499 . S
C1438 H1418 0.949 . S
C1438 C1437 1.414 . S
C1438 C1439 1.374 . S
C1439 H1419 0.950 1_545 S
C1439 C1435 1.385 . S
C1439 C1438 1.374 . S
C1440 C1437 1.499 . S
C1440 C1441 1.373 . S
C1440 C1442 1.389 . S
C1441 H1420 0.950 1_545 S
C1441 C1440 1.373 . S
C1441 C1457 1.377 . S
C1442 C1440 1.389 . S
C1442 C1443 1.524 . S
C1442 C1456 1.377 . S
C1443 C1442 1.524 . S
C1443 C1444 1.397 . S
C1443 C1448 1.363 . S
C1444 H1421 0.950 . S
C1444 C1443 1.397 . S
C1444 C1445 1.334 . S
C1445 H1422 0.950 . S
C1445 C1444 1.334 . S
C1445 C1446 1.287 . S
C1446 C1445 1.287 . S
C1446 C1447 1.524 . S
C1446 H1465 0.913 . S
C1447 H1423 0.950 . S
C1447 C1446 1.524 . S
C1447 C1448 1.415 . S
C1448 H1424 0.950 . S
C1448 C1443 1.363 . S
C1448 C1447 1.415 . S
C1449 H1425 0.951 . S
C1449 C1450 1.366 . S
C1449 C1451 1.388 . S
C1450 C1449 1.366 . S
C1450 C1454 1.385 . S
C1451 H1426 0.951 . S
C1451 C1449 1.388 . S
C1451 C1452 1.366 . S
C1452 C1451 1.366 . S
C1452 C1453 1.414 . S
C1452 C1455 1.499 . S
C1453 H1427 0.950 . S
C1453 C1452 1.414 . S
C1453 C1454 1.374 . S
C1454 H1428 0.950 . S
C1454 C1450 1.385 . S
C1454 C1453 1.374 . S
C1455 C1452 1.499 . S
C1455 C1456 1.373 . S
C1455 C1457 1.389 . S
C1456 H1429 0.950 . S
C1456 C1442 1.377 . S
C1456 C1455 1.373 . S
C1457 C1441 1.377 . S
C1457 C1455 1.389 . S
C1457 C1458 1.524 1_545 S
C1458 C1457 1.524 1_565 S
C1458 C1459 1.397 . S
C1458 C1463 1.363 . S
C1459 H1430 0.950 . S
C1459 C1458 1.397 . S
C1459 C1460 1.334 . S
C1460 H1431 0.950 . S
C1460 C1459 1.334 . S
C1460 C1461 1.287 . S
C1461 C1460 1.287 . S
C1461 C1462 1.524 . S
C1461 H1464 0.999 . S
C1462 H1432 0.950 . S
C1462 C1461 1.524 . S
C1462 C1463 1.415 . S
C1463 H1433 0.950 . S
C1463 C1458 1.363 . S
C1463 C1462 1.415 . S
H1464 C1461 0.999 . S
H1465 C1446 0.913 . S
H1466 C1484 0.951 . S
H1467 C1486 0.951 . S
H1468 C1488 0.950 . S
H1469 C1489 0.950 . S
H1470 C1491 0.950 . S
H1471 C1494 0.950 . S
H1472 C1495 0.950 . S
H1473 C1497 0.950 . S
H1474 C1498 0.950 . S
H1475 C1499 0.951 . S
H1476 C1501 0.951 . S
H1477 C1503 0.950 . S
H1478 C1504 0.950 . S
H1479 C1506 0.950 . S
H1480 C1509 0.950 . S
H1481 C1510 0.950 . S
H1482 C1512 0.950 . S
H1483 C1513 0.950 . S
C1484 H1466 0.951 . S
C1484 C1485 1.366 . S
C1484 C1486 1.388 . S
C1485 C1484 1.366 . S
C1485 C1489 1.385 . S
C1486 H1467 0.951 . S
C1486 C1484 1.388 . S
C1486 C1487 1.366 . S
C1487 C1486 1.366 . S
C1487 C1488 1.414 . S
C1487 C1490 1.499 . S
C1488 H1468 0.950 . S
C1488 C1487 1.414 . S
C1488 C1489 1.374 . S
C1489 H1469 0.950 . S
C1489 C1485 1.385 . S
C1489 C1488 1.374 . S
C1490 C1487 1.499 . S
C1490 C1491 1.373 . S
C1490 C1492 1.389 . S
C1491 H1470 0.950 . S
C1491 C1490 1.373 . S
C1491 C1507 1.377 . S
C1492 C1490 1.389 . S
C1492 C1493 1.524 . S
C1492 C1506 1.377 . S
C1493 C1492 1.524 . S
C1493 C1494 1.397 . S
C1493 C1498 1.363 . S
C1494 H1471 0.950 . S
C1494 C1493 1.397 . S
C1494 C1495 1.334 . S
C1495 H1472 0.950 . S
C1495 C1494 1.334 . S
C1495 C1496 1.287 . S
C1496 C1495 1.287 . S
C1496 C1497 1.524 . S
C1496 H1515 0.913 . S
C1497 H1473 0.950 . S
C1497 C1496 1.524 . S
C1497 C1498 1.415 . S
C1498 H1474 0.950 . S
C1498 C1493 1.363 . S
C1498 C1497 1.415 . S
C1499 H1475 0.951 . S
C1499 C1500 1.366 . S
C1499 C1501 1.388 . S
C1500 C1499 1.366 . S
C1500 C1504 1.385 . S
C1501 H1476 0.951 . S
C1501 C1499 1.388 . S
C1501 C1502 1.366 . S
C1502 C1501 1.366 . S
C1502 C1503 1.414 . S
C1502 C1505 1.499 . S
C1503 H1477 0.950 . S
C1503 C1502 1.414 . S
C1503 C1504 1.374 . S
C1504 H1478 0.950 . S
C1504 C1500 1.385 . S
C1504 C1503 1.374 . S
C1505 C1502 1.499 . S
C1505 C1506 1.373 . S
C1505 C1507 1.389 . S
C1506 H1479 0.950 . S
C1506 C1492 1.377 . S
C1506 C1505 1.373 . S
C1507 C1491 1.377 . S
C1507 C1505 1.389 . S
C1507 C1508 1.524 . S
C1508 C1507 1.524 . S
C1508 C1509 1.397 . S
C1508 C1513 1.363 . S
C1509 H1480 0.950 . S
C1509 C1508 1.397 . S
C1509 C1510 1.334 . S
C1510 H1481 0.950 . S
C1510 C1509 1.334 . S
C1510 C1511 1.287 . S
C1511 C1510 1.287 . S
C1511 C1512 1.524 . S
C1511 H1514 0.999 . S
C1512 H1482 0.950 . S
C1512 C1511 1.524 . S
C1512 C1513 1.415 . S
C1513 H1483 0.950 . S
C1513 C1508 1.363 . S
C1513 C1512 1.415 . S
H1514 C1511 0.999 . S
H1515 C1496 0.913 . S
H1516 C1534 0.951 . S
H1517 C1536 0.951 . S
H1518 C1538 0.950 . S
H1519 C1539 0.950 . S
H1520 C1541 0.950 . S
H1521 C1544 0.950 . S
H1522 C1545 0.950 . S
H1523 C1547 0.950 . S
H1524 C1548 0.950 . S
H1525 C1549 0.951 1_565 S
H1526 C1551 0.951 1_565 S
H1527 C1553 0.950 . S
H1528 C1554 0.950 . S
H1529 C1556 0.950 . S
H1530 C1559 0.950 . S
H1531 C1560 0.950 . S
H1532 C1562 0.950 . S
H1533 C1563 0.950 . S
C1534 H1516 0.951 . S
C1534 C1535 1.366 . S
C1534 C1536 1.388 . S
C1535 C1534 1.366 . S
C1535 C1539 1.385 . S
C1536 H1517 0.951 . S
C1536 C1534 1.388 . S
C1536 C1537 1.366 . S
C1537 C1536 1.366 . S
C1537 C1538 1.414 . S
C1537 C1540 1.499 . S
C1538 H1518 0.950 . S
C1538 C1537 1.414 . S
C1538 C1539 1.374 . S
C1539 H1519 0.950 . S
C1539 C1535 1.385 . S
C1539 C1538 1.374 . S
C1540 C1537 1.499 . S
C1540 C1541 1.373 . S
C1540 C1542 1.389 . S
C1541 H1520 0.950 . S
C1541 C1540 1.373 . S
C1541 C1557 1.377 . S
C1542 C1540 1.389 . S
C1542 C1543 1.524 . S
C1542 C1556 1.377 . S
C1543 C1542 1.524 . S
C1543 C1544 1.397 . S
C1543 C1548 1.363 . S
C1544 H1521 0.950 . S
C1544 C1543 1.397 . S
C1544 C1545 1.334 . S
C1545 H1522 0.950 . S
C1545 C1544 1.334 . S
C1545 C1546 1.287 . S
C1546 C1545 1.287 . S
C1546 C1547 1.524 . S
C1546 H1565 0.913 . S
C1547 H1523 0.950 . S
C1547 C1546 1.524 . S
C1547 C1548 1.415 . S
C1548 H1524 0.950 . S
C1548 C1543 1.363 . S
C1548 C1547 1.415 . S
C1549 H1525 0.951 1_545 S
C1549 C1550 1.366 . S
C1549 C1551 1.388 . S
C1550 C1549 1.366 . S
C1550 C1554 1.385 . S
C1551 H1526 0.951 1_545 S
C1551 C1549 1.388 . S
C1551 C1552 1.366 . S
C1552 C1551 1.366 . S
C1552 C1553 1.414 . S
C1552 C1555 1.499 . S
C1553 H1527 0.950 . S
C1553 C1552 1.414 . S
C1553 C1554 1.374 . S
C1554 H1528 0.950 . S
C1554 C1550 1.385 . S
C1554 C1553 1.374 . S
C1555 C1552 1.499 . S
C1555 C1556 1.373 . S
C1555 C1557 1.389 . S
C1556 H1529 0.950 . S
C1556 C1542 1.377 . S
C1556 C1555 1.373 . S
C1557 C1541 1.377 . S
C1557 C1555 1.389 . S
C1557 C1558 1.524 . S
C1558 C1557 1.524 . S
C1558 C1559 1.397 . S
C1558 C1563 1.363 . S
C1559 H1530 0.950 . S
C1559 C1558 1.397 . S
C1559 C1560 1.334 . S
C1560 H1531 0.950 . S
C1560 C1559 1.334 . S
C1560 C1561 1.287 . S
C1561 C1560 1.287 . S
C1561 C1562 1.524 . S
C1561 H1564 0.999 . S
C1562 H1532 0.950 . S
C1562 C1561 1.524 . S
C1562 C1563 1.415 . S
C1563 H1533 0.950 . S
C1563 C1558 1.363 . S
C1563 C1562 1.415 . S
H1564 C1561 0.999 . S
H1565 C1546 0.913 . S
H1566 C1584 0.951 . S
H1567 C1586 0.951 . S
H1568 C1588 0.950 . S
H1569 C1589 0.950 . S
H1570 C1591 0.950 . S
H1571 C1594 0.950 . S
H1572 C1595 0.950 . S
H1573 C1597 0.950 . S
H1574 C1598 0.950 . S
H1575 C1599 0.951 . S
H1576 C1601 0.951 . S
H1577 C1603 0.950 . S
H1578 C1604 0.950 . S
H1579 C1606 0.950 . S
H1580 C1609 0.950 . S
H1581 C1610 0.950 . S
H1582 C1612 0.950 . S
H1583 C1613 0.950 . S
C1584 H1566 0.951 . S
C1584 C1585 1.366 . S
C1584 C1586 1.388 . S
C1585 C1584 1.366 . S
C1585 C1589 1.385 . S
C1586 H1567 0.951 . S
C1586 C1584 1.388 . S
C1586 C1587 1.366 . S
C1587 C1586 1.366 . S
C1587 C1588 1.414 . S
C1587 C1590 1.499 . S
C1588 H1568 0.950 . S
C1588 C1587 1.414 . S
C1588 C1589 1.374 . S
C1589 H1569 0.950 . S
C1589 C1585 1.385 . S
C1589 C1588 1.374 . S
C1590 C1587 1.499 . S
C1590 C1591 1.373 . S
C1590 C1592 1.389 . S
C1591 H1570 0.950 . S
C1591 C1590 1.373 . S
C1591 C1607 1.377 . S
C1592 C1590 1.389 . S
C1592 C1593 1.524 . S
C1592 C1606 1.377 . S
C1593 C1592 1.524 . S
C1593 C1594 1.397 . S
C1593 C1598 1.363 . S
C1594 H1571 0.950 . S
C1594 C1593 1.397 . S
C1594 C1595 1.334 . S
C1595 H1572 0.950 . S
C1595 C1594 1.334 . S
C1595 C1596 1.287 . S
C1596 C1595 1.287 . S
C1596 C1597 1.524 . S
C1596 H1615 0.913 . S
C1597 H1573 0.950 . S
C1597 C1596 1.524 . S
C1597 C1598 1.415 . S
C1598 H1574 0.950 . S
C1598 C1593 1.363 . S
C1598 C1597 1.415 . S
C1599 H1575 0.951 . S
C1599 C1600 1.366 . S
C1599 C1601 1.388 . S
C1600 C1599 1.366 . S
C1600 C1604 1.385 . S
C1601 H1576 0.951 . S
C1601 C1599 1.388 . S
C1601 C1602 1.366 . S
C1602 C1601 1.366 . S
C1602 C1603 1.414 . S
C1602 C1605 1.499 . S
C1603 H1577 0.950 . S
C1603 C1602 1.414 . S
C1603 C1604 1.374 . S
C1604 H1578 0.950 . S
C1604 C1600 1.385 . S
C1604 C1603 1.374 . S
C1605 C1602 1.499 . S
C1605 C1606 1.373 . S
C1605 C1607 1.389 . S
C1606 H1579 0.950 . S
C1606 C1592 1.377 . S
C1606 C1605 1.373 . S
C1607 C1591 1.377 . S
C1607 C1605 1.389 . S
C1607 C1608 1.524 . S
C1608 C1607 1.524 . S
C1608 C1609 1.397 . S
C1608 C1613 1.363 . S
C1609 H1580 0.950 . S
C1609 C1608 1.397 . S
C1609 C1610 1.334 . S
C1610 H1581 0.950 . S
C1610 C1609 1.334 . S
C1610 C1611 1.287 . S
C1611 C1610 1.287 . S
C1611 C1612 1.524 . S
C1611 H1614 0.999 . S
C1612 H1582 0.950 . S
C1612 C1611 1.524 . S
C1612 C1613 1.415 . S
C1613 H1583 0.950 . S
C1613 C1608 1.363 . S
C1613 C1612 1.415 . S
H1614 C1611 0.999 . S
H1615 C1596 0.913 . S
H1616 C1634 0.951 . S
H1617 C1636 0.951 . S
H1618 C1638 0.950 . S
H1619 C1639 0.950 . S
H1620 C1641 0.950 . S
H1621 C1644 0.950 . S
H1622 C1645 0.950 . S
H1623 C1647 0.950 . S
H1624 C1648 0.950 . S
H1625 C1649 0.951 . S
H1626 C1651 0.951 . S
H1627 C1653 0.950 . S
H1628 C1654 0.950 . S
H1629 C1656 0.950 1_556 S
H1630 C1659 0.950 . S
H1631 C1660 0.950 . S
H1632 C1662 0.950 . S
H1633 C1663 0.950 . S
C1634 H1616 0.951 . S
C1634 C1635 1.366 . S
C1634 C1636 1.388 . S
C1635 C1634 1.366 . S
C1635 C1639 1.385 . S
C1636 H1617 0.951 . S
C1636 C1634 1.388 . S
C1636 C1637 1.366 . S
C1637 C1636 1.366 . S
C1637 C1638 1.414 . S
C1637 C1640 1.499 . S
C1638 H1618 0.950 . S
C1638 C1637 1.414 . S
C1638 C1639 1.374 . S
C1639 H1619 0.950 . S
C1639 C1635 1.385 . S
C1639 C1638 1.374 . S
C1640 C1637 1.499 . S
C1640 C1641 1.373 . S
C1640 C1642 1.389 . S
C1641 H1620 0.950 . S
C1641 C1640 1.373 . S
C1641 C1657 1.377 . S
C1642 C1640 1.389 . S
C1642 C1643 1.524 1_554 S
C1642 C1656 1.377 . S
C1643 C1642 1.524 1_556 S
C1643 C1644 1.397 . S
C1643 C1648 1.363 . S
C1644 H1621 0.950 . S
C1644 C1643 1.397 . S
C1644 C1645 1.334 . S
C1645 H1622 0.950 . S
C1645 C1644 1.334 . S
C1645 C1646 1.287 . S
C1646 C1645 1.287 . S
C1646 C1647 1.524 . S
C1646 H1665 0.913 . S
C1647 H1623 0.950 . S
C1647 C1646 1.524 . S
C1647 C1648 1.415 . S
C1648 H1624 0.950 . S
C1648 C1643 1.363 . S
C1648 C1647 1.415 . S
C1649 H1625 0.951 . S
C1649 C1650 1.366 . S
C1649 C1651 1.388 . S
C1650 C1649 1.366 . S
C1650 C1654 1.385 . S
C1651 H1626 0.951 . S
C1651 C1649 1.388 . S
C1651 C1652 1.366 . S
C1652 C1651 1.366 . S
C1652 C1653 1.414 . S
C1652 C1655 1.499 . S
C1653 H1627 0.950 . S
C1653 C1652 1.414 . S
C1653 C1654 1.374 . S
C1654 H1628 0.950 . S
C1654 C1650 1.385 . S
C1654 C1653 1.374 . S
C1655 C1652 1.499 . S
C1655 C1656 1.373 . S
C1655 C1657 1.389 . S
C1656 H1629 0.950 1_554 S
C1656 C1642 1.377 . S
C1656 C1655 1.373 . S
C1657 C1641 1.377 . S
C1657 C1655 1.389 . S
C1657 C1658 1.524 . S
C1658 C1657 1.524 . S
C1658 C1659 1.397 . S
C1658 C1663 1.363 . S
C1659 H1630 0.950 . S
C1659 C1658 1.397 . S
C1659 C1660 1.334 . S
C1660 H1631 0.950 . S
C1660 C1659 1.334 . S
C1660 C1661 1.287 . S
C1661 C1660 1.287 . S
C1661 C1662 1.524 . S
C1661 H1664 0.999 . S
C1662 H1632 0.950 . S
C1662 C1661 1.524 . S
C1662 C1663 1.415 . S
C1663 H1633 0.950 . S
C1663 C1658 1.363 . S
C1663 C1662 1.415 . S
H1664 C1661 0.999 . S
H1665 C1646 0.913 . S
H1666 C1684 0.951 . S
H1667 C1686 0.951 . S
H1668 C1688 0.950 . S
H1669 C1689 0.950 . S
H1670 C1691 0.950 . S
H1671 C1694 0.950 . S
H1672 C1695 0.950 . S
H1673 C1697 0.950 . S
H1674 C1698 0.950 . S
H1675 C1699 0.951 . S
H1676 C1701 0.951 . S
H1677 C1703 0.950 . S
H1678 C1704 0.950 . S
H1679 C1706 0.950 . S
H1680 C1709 0.950 . S
H1681 C1710 0.950 . S
H1682 C1712 0.950 . S
H1683 C1713 0.950 . S
C1684 H1666 0.951 . S
C1684 C1685 1.366 . S
C1684 C1686 1.388 . S
C1685 C1684 1.366 . S
C1685 C1689 1.385 . S
C1686 H1667 0.951 . S
C1686 C1684 1.388 . S
C1686 C1687 1.366 . S
C1687 C1686 1.366 . S
C1687 C1688 1.414 . S
C1687 C1690 1.499 . S
C1688 H1668 0.950 . S
C1688 C1687 1.414 . S
C1688 C1689 1.374 . S
C1689 H1669 0.950 . S
C1689 C1685 1.385 . S
C1689 C1688 1.374 . S
C1690 C1687 1.499 . S
C1690 C1691 1.373 . S
C1690 C1692 1.389 . S
C1691 H1670 0.950 . S
C1691 C1690 1.373 . S
C1691 C1707 1.377 . S
C1692 C1690 1.389 . S
C1692 C1693 1.524 . S
C1692 C1706 1.377 . S
C1693 C1692 1.524 . S
C1693 C1694 1.397 . S
C1693 C1698 1.363 . S
C1694 H1671 0.950 . S
C1694 C1693 1.397 . S
C1694 C1695 1.334 . S
C1695 H1672 0.950 . S
C1695 C1694 1.334 . S
C1695 C1696 1.287 . S
C1696 C1695 1.287 . S
C1696 C1697 1.524 . S
C1696 H1715 0.913 . S
C1697 H1673 0.950 . S
C1697 C1696 1.524 . S
C1697 C1698 1.415 . S
C1698 H1674 0.950 . S
C1698 C1693 1.363 . S
C1698 C1697 1.415 . S
C1699 H1675 0.951 . S
C1699 C1700 1.366 . S
C1699 C1701 1.388 . S
C1700 C1699 1.366 . S
C1700 C1704 1.385 . S
C1701 H1676 0.951 . S
C1701 C1699 1.388 . S
C1701 C1702 1.366 . S
C1702 C1701 1.366 . S
C1702 C1703 1.414 . S
C1702 C1705 1.499 . S
C1703 H1677 0.950 . S
C1703 C1702 1.414 . S
C1703 C1704 1.374 . S
C1704 H1678 0.950 . S
C1704 C1700 1.385 . S
C1704 C1703 1.374 . S
C1705 C1702 1.499 . S
C1705 C1706 1.373 . S
C1705 C1707 1.389 . S
C1706 H1679 0.950 . S
C1706 C1692 1.377 . S
C1706 C1705 1.373 . S
C1707 C1691 1.377 . S
C1707 C1705 1.389 . S
C1707 C1708 1.524 . S
C1708 C1707 1.524 . S
C1708 C1709 1.397 1_554 S
C1708 C1713 1.363 . S
C1709 H1680 0.950 . S
C1709 C1708 1.397 1_556 S
C1709 C1710 1.334 . S
C1710 H1681 0.950 . S
C1710 C1709 1.334 . S
C1710 C1711 1.287 . S
C1711 C1710 1.287 . S
C1711 C1712 1.524 . S
C1711 H1714 0.999 . S
C1712 H1682 0.950 . S
C1712 C1711 1.524 . S
C1712 C1713 1.415 1_556 S
C1713 H1683 0.950 . S
C1713 C1708 1.363 . S
C1713 C1712 1.415 1_554 S
H1714 C1711 0.999 . S
H1715 C1696 0.913 . S
H1716 C1734 0.951 . S
H1717 C1736 0.951 . S
H1718 C1738 0.950 . S
H1719 C1739 0.950 . S
H1720 C1741 0.950 . S
H1721 C1744 0.950 . S
H1722 C1745 0.950 . S
H1723 C1747 0.950 . S
H1724 C1748 0.950 . S
H1725 C1749 0.951 . S
H1726 C1751 0.951 . S
H1727 C1753 0.950 . S
H1728 C1754 0.950 . S
H1729 C1756 0.950 . S
H1730 C1759 0.950 . S
H1731 C1760 0.950 . S
H1732 C1762 0.950 . S
H1733 C1763 0.950 . S
C1734 H1716 0.951 . S
C1734 C1735 1.366 . S
C1734 C1736 1.388 . S
C1735 C1734 1.366 . S
C1735 C1739 1.385 . S
C1736 H1717 0.951 . S
C1736 C1734 1.388 . S
C1736 C1737 1.366 . S
C1737 C1736 1.366 . S
C1737 C1738 1.414 . S
C1737 C1740 1.499 . S
C1738 H1718 0.950 . S
C1738 C1737 1.414 . S
C1738 C1739 1.374 . S
C1739 H1719 0.950 . S
C1739 C1735 1.385 . S
C1739 C1738 1.374 . S
C1740 C1737 1.499 . S
C1740 C1741 1.373 . S
C1740 C1742 1.389 . S
C1741 H1720 0.950 . S
C1741 C1740 1.373 . S
C1741 C1757 1.377 . S
C1742 C1740 1.389 . S
C1742 C1743 1.524 . S
C1742 C1756 1.377 . S
C1743 C1742 1.524 . S
C1743 C1744 1.397 . S
C1743 C1748 1.363 . S
C1744 H1721 0.950 . S
C1744 C1743 1.397 . S
C1744 C1745 1.334 . S
C1745 H1722 0.950 . S
C1745 C1744 1.334 . S
C1745 C1746 1.287 . S
C1746 C1745 1.287 . S
C1746 C1747 1.524 . S
C1746 H1765 0.913 . S
C1747 H1723 0.950 . S
C1747 C1746 1.524 . S
C1747 C1748 1.415 . S
C1748 H1724 0.950 . S
C1748 C1743 1.363 . S
C1748 C1747 1.415 . S
C1749 H1725 0.951 . S
C1749 C1750 1.366 . S
C1749 C1751 1.388 . S
C1750 C1749 1.366 . S
C1750 C1754 1.385 . S
C1751 H1726 0.951 . S
C1751 C1749 1.388 . S
C1751 C1752 1.366 . S
C1752 C1751 1.366 . S
C1752 C1753 1.414 . S
C1752 C1755 1.499 . S
C1753 H1727 0.950 . S
C1753 C1752 1.414 . S
C1753 C1754 1.374 . S
C1754 H1728 0.950 . S
C1754 C1750 1.385 . S
C1754 C1753 1.374 . S
C1755 C1752 1.499 . S
C1755 C1756 1.373 . S
C1755 C1757 1.389 . S
C1756 H1729 0.950 . S
C1756 C1742 1.377 . S
C1756 C1755 1.373 . S
C1757 C1741 1.377 . S
C1757 C1755 1.389 . S
C1757 C1758 1.524 . S
C1758 C1757 1.524 . S
C1758 C1759 1.397 . S
C1758 C1763 1.363 . S
C1759 H1730 0.950 . S
C1759 C1758 1.397 . S
C1759 C1760 1.334 . S
C1760 H1731 0.950 . S
C1760 C1759 1.334 . S
C1760 C1761 1.287 . S
C1761 C1760 1.287 . S
C1761 C1762 1.524 . S
C1761 H1764 0.999 . S
C1762 H1732 0.950 . S
C1762 C1761 1.524 . S
C1762 C1763 1.415 . S
C1763 H1733 0.950 . S
C1763 C1758 1.363 . S
C1763 C1762 1.415 . S
H1764 C1761 0.999 . S
H1765 C1746 0.913 . S
H1766 C1784 0.951 . S
H1767 C1786 0.951 . S
H1768 C1788 0.950 . S
H1769 C1789 0.950 . S
H1770 C1791 0.950 . S
H1771 C1794 0.950 . S
H1772 C1795 0.950 . S
H1773 C1797 0.950 . S
H1774 C1798 0.950 . S
H1775 C1799 0.951 . S
H1776 C1801 0.951 . S
H1777 C1803 0.950 . S
H1778 C1804 0.950 . S
H1779 C1806 0.950 . S
H1780 C1809 0.950 . S
H1781 C1810 0.950 . S
H1782 C1812 0.950 . S
H1783 C1813 0.950 . S
C1784 H1766 0.951 . S
C1784 C1785 1.366 . S
C1784 C1786 1.388 . S
C1785 C1784 1.366 . S
C1785 C1789 1.385 . S
C1786 H1767 0.951 . S
C1786 C1784 1.388 . S
C1786 C1787 1.366 . S
C1787 C1786 1.366 . S
C1787 C1788 1.414 . S
C1787 C1790 1.499 . S
C1788 H1768 0.950 . S
C1788 C1787 1.414 . S
C1788 C1789 1.374 . S
C1789 H1769 0.950 . S
C1789 C1785 1.385 . S
C1789 C1788 1.374 . S
C1790 C1787 1.499 . S
C1790 C1791 1.373 . S
C1790 C1792 1.389 . S
C1791 H1770 0.950 . S
C1791 C1790 1.373 . S
C1791 C1807 1.377 . S
C1792 C1790 1.389 . S
C1792 C1793 1.524 . S
C1792 C1806 1.377 . S
C1793 C1792 1.524 . S
C1793 C1794 1.397 . S
C1793 C1798 1.363 . S
C1794 H1771 0.950 . S
C1794 C1793 1.397 . S
C1794 C1795 1.334 . S
C1795 H1772 0.950 . S
C1795 C1794 1.334 . S
C1795 C1796 1.287 . S
C1796 C1795 1.287 . S
C1796 C1797 1.524 . S
C1796 H1815 0.913 . S
C1797 H1773 0.950 . S
C1797 C1796 1.524 . S
C1797 C1798 1.415 . S
C1798 H1774 0.950 . S
C1798 C1793 1.363 . S
C1798 C1797 1.415 . S
C1799 H1775 0.951 . S
C1799 C1800 1.366 . S
C1799 C1801 1.388 . S
C1800 C1799 1.366 . S
C1800 C1804 1.385 . S
C1801 H1776 0.951 . S
C1801 C1799 1.388 . S
C1801 C1802 1.366 . S
C1802 C1801 1.366 . S
C1802 C1803 1.414 . S
C1802 C1805 1.499 . S
C1803 H1777 0.950 . S
C1803 C1802 1.414 . S
C1803 C1804 1.374 . S
C1804 H1778 0.950 . S
C1804 C1800 1.385 . S
C1804 C1803 1.374 . S
C1805 C1802 1.499 . S
C1805 C1806 1.373 . S
C1805 C1807 1.389 . S
C1806 H1779 0.950 . S
C1806 C1792 1.377 . S
C1806 C1805 1.373 . S
C1807 C1791 1.377 . S
C1807 C1805 1.389 . S
C1807 C1808 1.524 . S
C1808 C1807 1.524 . S
C1808 C1809 1.397 . S
C1808 C1813 1.363 . S
C1809 H1780 0.950 . S
C1809 C1808 1.397 . S
C1809 C1810 1.334 . S
C1810 H1781 0.950 . S
C1810 C1809 1.334 . S
C1810 C1811 1.287 . S
C1811 C1810 1.287 . S
C1811 C1812 1.524 . S
C1811 H1814 0.999 . S
C1812 H1782 0.950 . S
C1812 C1811 1.524 . S
C1812 C1813 1.415 . S
C1813 H1783 0.950 . S
C1813 C1808 1.363 . S
C1813 C1812 1.415 . S
H1814 C1811 0.999 . S
H1815 C1796 0.913 . S
H1816 C1834 0.951 . S
H1817 C1836 0.951 . S
H1818 C1838 0.950 . S
H1819 C1839 0.950 . S
H1820 C1841 0.950 . S
H1821 C1844 0.950 . S
H1822 C1845 0.950 . S
H1823 C1847 0.950 . S
H1824 C1848 0.950 . S
H1825 C1849 0.951 . S
H1826 C1851 0.951 . S
H1827 C1853 0.950 . S
H1828 C1854 0.950 . S
H1829 C1856 0.950 . S
H1830 C1859 0.950 . S
H1831 C1860 0.950 . S
H1832 C1862 0.950 . S
H1833 C1863 0.950 . S
C1834 H1816 0.951 . S
C1834 C1835 1.366 . S
C1834 C1836 1.388 . S
C1835 C1834 1.366 . S
C1835 C1839 1.385 . S
C1836 H1817 0.951 . S
C1836 C1834 1.388 . S
C1836 C1837 1.366 . S
C1837 C1836 1.366 . S
C1837 C1838 1.414 . S
C1837 C1840 1.499 . S
C1838 H1818 0.950 . S
C1838 C1837 1.414 . S
C1838 C1839 1.374 . S
C1839 H1819 0.950 . S
C1839 C1835 1.385 . S
C1839 C1838 1.374 . S
C1840 C1837 1.499 . S
C1840 C1841 1.373 . S
C1840 C1842 1.389 . S
C1841 H1820 0.950 . S
C1841 C1840 1.373 . S
C1841 C1857 1.377 . S
C1842 C1840 1.389 . S
C1842 C1843 1.524 . S
C1842 C1856 1.377 . S
C1843 C1842 1.524 . S
C1843 C1844 1.397 . S
C1843 C1848 1.363 . S
C1844 H1821 0.950 . S
C1844 C1843 1.397 . S
C1844 C1845 1.334 . S
C1845 H1822 0.950 . S
C1845 C1844 1.334 . S
C1845 C1846 1.287 . S
C1846 C1845 1.287 . S
C1846 C1847 1.524 . S
C1846 H1865 0.913 . S
C1847 H1823 0.950 . S
C1847 C1846 1.524 . S
C1847 C1848 1.415 . S
C1848 H1824 0.950 . S
C1848 C1843 1.363 . S
C1848 C1847 1.415 . S
C1849 H1825 0.951 . S
C1849 C1850 1.366 . S
C1849 C1851 1.388 . S
C1850 C1849 1.366 . S
C1850 C1854 1.385 . S
C1851 H1826 0.951 . S
C1851 C1849 1.388 . S
C1851 C1852 1.366 . S
C1852 C1851 1.366 . S
C1852 C1853 1.414 . S
C1852 C1855 1.499 . S
C1853 H1827 0.950 . S
C1853 C1852 1.414 . S
C1853 C1854 1.374 . S
C1854 H1828 0.950 . S
C1854 C1850 1.385 . S
C1854 C1853 1.374 . S
C1855 C1852 1.499 . S
C1855 C1856 1.373 . S
C1855 C1857 1.389 . S
C1856 H1829 0.950 . S
C1856 C1842 1.377 . S
C1856 C1855 1.373 . S
C1857 C1841 1.377 . S
C1857 C1855 1.389 . S
C1857 C1858 1.524 . S
C1858 C1857 1.524 . S
C1858 C1859 1.397 . S
C1858 C1863 1.363 . S
C1859 H1830 0.950 . S
C1859 C1858 1.397 . S
C1859 C1860 1.334 . S
C1860 H1831 0.950 . S
C1860 C1859 1.334 . S
C1860 C1861 1.287 . S
C1861 C1860 1.287 . S
C1861 C1862 1.524 . S
C1861 H1864 0.999 . S
C1862 H1832 0.950 . S
C1862 C1861 1.524 . S
C1862 C1863 1.415 . S
C1863 H1833 0.950 . S
C1863 C1858 1.363 . S
C1863 C1862 1.415 . S
H1864 C1861 0.999 . S
H1865 C1846 0.913 . S
H1866 C1884 0.951 . S
H1867 C1886 0.951 . S
H1868 C1888 0.950 . S
H1869 C1889 0.950 . S
H1870 C1891 0.950 . S
H1871 C1894 0.950 . S
H1872 C1895 0.950 . S
H1873 C1897 0.950 . S
H1874 C1898 0.951 1_545 S
H1875 C1899 0.951 . S
H1876 C1901 0.951 . S
H1877 C1903 0.950 . S
H1878 C1904 0.950 . S
H1879 C1906 0.950 . S
H1880 C1909 0.950 . S
H1881 C1910 0.950 . S
H1882 C1912 0.950 . S
H1883 C1913 0.950 . S
C1884 H1866 0.951 . S
C1884 C1885 1.366 . S
C1884 C1886 1.388 . S
C1885 C1884 1.366 . S
C1885 C1889 1.385 . S
C1886 H1867 0.951 . S
C1886 C1884 1.388 . S
C1886 C1887 1.366 . S
C1887 C1886 1.366 . S
C1887 C1888 1.414 . S
C1887 C1890 1.499 . S
C1888 H1868 0.950 . S
C1888 C1887 1.414 . S
C1888 C1889 1.374 . S
C1889 H1869 0.950 . S
C1889 C1885 1.385 . S
C1889 C1888 1.374 . S
C1890 C1887 1.499 . S
C1890 C1891 1.373 . S
C1890 C1892 1.389 . S
C1891 H1870 0.950 . S
C1891 C1890 1.373 . S
C1891 C1907 1.377 . S
C1892 C1890 1.389 . S
C1892 C1893 1.524 . S
C1892 C1906 1.377 . S
C1893 C1892 1.524 . S
C1893 C1894 1.397 . S
C1893 C1898 1.363 . S
C1894 H1871 0.950 . S
C1894 C1893 1.397 . S
C1894 C1895 1.334 . S
C1895 H1872 0.950 . S
C1895 C1894 1.334 . S
C1895 C1896 1.255 1_565 S
C1896 C1895 1.255 1_545 S
C1896 C1897 1.538 . S
C1896 H1915 0.933 . S
C1897 H1873 0.950 . S
C1897 C1896 1.538 . S
C1897 C1898 1.415 1_545 S
C1898 H1874 0.951 1_565 S
C1898 C1893 1.363 . S
C1898 C1897 1.415 1_565 S
C1899 H1875 0.951 . S
C1899 C1900 1.366 . S
C1899 C1901 1.388 . S
C1900 C1899 1.366 . S
C1900 C1904 1.385 1_565 S
C1901 H1876 0.951 . S
C1901 C1899 1.388 . S
C1901 C1902 1.366 . S
C1902 C1901 1.366 . S
C1902 C1903 1.414 . S
C1902 C1905 1.499 . S
C1903 H1877 0.950 . S
C1903 C1902 1.414 . S
C1903 C1904 1.374 1_565 S
C1904 H1878 0.950 . S
C1904 C1900 1.385 1_545 S
C1904 C1903 1.374 1_545 S
C1905 C1902 1.499 . S
C1905 C1906 1.373 . S
C1905 C1907 1.389 . S
C1906 H1879 0.950 . S
C1906 C1892 1.377 . S
C1906 C1905 1.373 . S
C1907 C1891 1.377 . S
C1907 C1905 1.389 . S
C1907 C1908 1.524 . S
C1908 C1907 1.524 . S
C1908 C1909 1.397 . S
C1908 C1913 1.363 . S
C1909 H1880 0.950 . S
C1909 C1908 1.397 . S
C1909 C1910 1.334 . S
C1910 H1881 0.950 . S
C1910 C1909 1.334 . S
C1910 C1911 1.287 . S
C1911 C1910 1.287 . S
C1911 C1912 1.524 . S
C1911 H1914 0.999 . S
C1912 H1882 0.950 . S
C1912 C1911 1.524 . S
C1912 C1913 1.415 . S
C1913 H1883 0.950 . S
C1913 C1908 1.363 . S
C1913 C1912 1.415 . S
H1914 C1911 0.999 . S
H1915 C1896 0.933 . S
H1916 C1934 0.951 . S
H1917 C1936 0.951 . S
H1918 C1938 0.950 . S
H1919 C1939 0.950 . S
H1920 C1941 0.950 . S
H1921 C1944 0.950 . S
H1922 C1945 0.950 . S
H1923 C1947 0.950 . S
H1924 C1948 0.950 . S
H1925 C1949 0.951 . S
H1926 C1951 0.951 . S
H1927 C1953 0.950 . S
H1928 C1954 0.950 . S
H1929 C1956 0.950 . S
H1930 C1959 0.950 . S
H1931 C1960 0.950 . S
H1932 C1962 0.950 . S
H1933 C1963 0.950 . S
C1934 H1916 0.951 . S
C1934 C1935 1.366 . S
C1934 C1936 1.388 . S
C1935 C1934 1.366 . S
C1935 C1939 1.385 . S
C1936 H1917 0.951 . S
C1936 C1934 1.388 . S
C1936 C1937 1.366 . S
C1937 C1936 1.366 . S
C1937 C1938 1.414 . S
C1937 C1940 1.499 . S
C1938 H1918 0.950 . S
C1938 C1937 1.414 . S
C1938 C1939 1.374 . S
C1939 H1919 0.950 . S
C1939 C1935 1.385 . S
C1939 C1938 1.374 . S
C1940 C1937 1.499 . S
C1940 C1941 1.373 . S
C1940 C1942 1.389 . S
C1941 H1920 0.950 . S
C1941 C1940 1.373 . S
C1941 C1957 1.377 . S
C1942 C1940 1.389 . S
C1942 C1943 1.524 . S
C1942 C1956 1.377 . S
C1943 C1942 1.524 . S
C1943 C1944 1.397 . S
C1943 C1948 1.363 . S
C1944 H1921 0.950 . S
C1944 C1943 1.397 . S
C1944 C1945 1.334 . S
C1945 H1922 0.950 . S
C1945 C1944 1.334 . S
C1945 C1946 1.287 . S
C1946 C1945 1.287 . S
C1946 C1947 1.524 . S
C1946 H1965 0.913 . S
C1947 H1923 0.950 . S
C1947 C1946 1.524 . S
C1947 C1948 1.415 . S
C1948 H1924 0.950 . S
C1948 C1943 1.363 . S
C1948 C1947 1.415 . S
C1949 H1925 0.951 . S
C1949 C1950 1.366 . S
C1949 C1951 1.388 . S
C1950 C1949 1.366 . S
C1950 C1954 1.385 . S
C1951 H1926 0.951 . S
C1951 C1949 1.388 . S
C1951 C1952 1.366 . S
C1952 C1951 1.366 . S
C1952 C1953 1.414 . S
C1952 C1955 1.499 . S
C1953 H1927 0.950 . S
C1953 C1952 1.414 . S
C1953 C1954 1.374 . S
C1954 H1928 0.950 . S
C1954 C1950 1.385 . S
C1954 C1953 1.374 . S
C1955 C1952 1.499 . S
C1955 C1956 1.373 . S
C1955 C1957 1.389 . S
C1956 H1929 0.950 . S
C1956 C1942 1.377 . S
C1956 C1955 1.373 . S
C1957 C1941 1.377 . S
C1957 C1955 1.389 . S
C1957 C1958 1.524 . S
C1958 C1957 1.524 . S
C1958 C1959 1.397 . S
C1958 C1963 1.363 . S
C1959 H1930 0.950 . S
C1959 C1958 1.397 . S
C1959 C1960 1.334 . S
C1960 H1931 0.950 . S
C1960 C1959 1.334 . S
C1960 C1961 1.287 . S
C1961 C1960 1.287 . S
C1961 C1962 1.524 . S
C1961 H1964 0.999 . S
C1962 H1932 0.950 . S
C1962 C1961 1.524 . S
C1962 C1963 1.415 . S
C1963 H1933 0.950 . S
C1963 C1958 1.363 . S
C1963 C1962 1.415 . S
H1964 C1961 0.999 . S
H1965 C1946 0.913 . S
H1966 C1984 0.951 . S
H1967 C1986 0.951 . S
H1968 C1988 0.950 . S
H1969 C1989 0.950 . S
H1970 C1991 0.950 . S
H1971 C1994 0.950 . S
H1972 C1995 0.950 . S
H1973 C1997 0.950 . S
H1974 C1998 0.950 . S
H1975 C1999 0.951 . S
H1976 C2001 0.951 . S
H1977 C2003 0.950 . S
H1978 C2004 0.950 . S
H1979 C2006 0.950 . S
H1980 C2009 0.950 . S
H1981 C2010 0.950 . S
H1982 C2012 0.950 . S
H1983 C2013 0.950 . S
C1984 H1966 0.951 . S
C1984 C1985 1.366 . S
C1984 C1986 1.388 . S
C1985 C1984 1.366 . S
C1985 C1989 1.385 . S
C1986 H1967 0.951 . S
C1986 C1984 1.388 . S
C1986 C1987 1.366 . S
C1987 C1986 1.366 . S
C1987 C1988 1.414 . S
C1987 C1990 1.499 . S
C1988 H1968 0.950 . S
C1988 C1987 1.414 . S
C1988 C1989 1.374 . S
C1989 H1969 0.950 . S
C1989 C1985 1.385 . S
C1989 C1988 1.374 . S
C1990 C1987 1.499 . S
C1990 C1991 1.373 . S
C1990 C1992 1.389 . S
C1991 H1970 0.950 . S
C1991 C1990 1.373 . S
C1991 C2007 1.377 . S
C1992 C1990 1.389 . S
C1992 C1993 1.524 . S
C1992 C2006 1.377 . S
C1993 C1992 1.524 . S
C1993 C1994 1.397 . S
C1993 C1998 1.363 . S
C1994 H1971 0.950 . S
C1994 C1993 1.397 . S
C1994 C1995 1.334 . S
C1995 H1972 0.950 . S
C1995 C1994 1.334 . S
C1995 C1996 1.287 . S
C1996 C1995 1.287 . S
C1996 C1997 1.524 . S
C1996 H2015 0.913 . S
C1997 H1973 0.950 . S
C1997 C1996 1.524 . S
C1997 C1998 1.415 . S
C1998 H1974 0.950 . S
C1998 C1993 1.363 . S
C1998 C1997 1.415 . S
C1999 H1975 0.951 . S
C1999 C2000 1.366 . S
C1999 C2001 1.388 . S
C2000 C1999 1.366 . S
C2000 C2004 1.385 . S
C2001 H1976 0.951 . S
C2001 C1999 1.388 . S
C2001 C2002 1.366 . S
C2002 C2001 1.366 . S
C2002 C2003 1.414 . S
C2002 C2005 1.499 . S
C2003 H1977 0.950 . S
C2003 C2002 1.414 . S
C2003 C2004 1.374 . S
C2004 H1978 0.950 . S
C2004 C2000 1.385 . S
C2004 C2003 1.374 . S
C2005 C2002 1.499 . S
C2005 C2006 1.373 . S
C2005 C2007 1.389 . S
C2006 H1979 0.950 . S
C2006 C1992 1.377 . S
C2006 C2005 1.373 . S
C2007 C1991 1.377 . S
C2007 C2005 1.389 . S
C2007 C2008 1.524 . S
C2008 C2007 1.524 . S
C2008 C2009 1.397 . S
C2008 C2013 1.363 . S
C2009 H1980 0.950 . S
C2009 C2008 1.397 . S
C2009 C2010 1.334 . S
C2010 H1981 0.950 . S
C2010 C2009 1.334 . S
C2010 C2011 1.287 . S
C2011 C2010 1.287 . S
C2011 C2012 1.524 . S
C2011 H2014 0.999 . S
C2012 H1982 0.950 . S
C2012 C2011 1.524 . S
C2012 C2013 1.415 . S
C2013 H1983 0.950 . S
C2013 C2008 1.363 . S
C2013 C2012 1.415 . S
H2014 C2011 0.999 . S
H2015 C1996 0.913 . S
H2016 C2034 0.951 1_655 S
H2017 C2036 0.951 1_655 S
H2018 C2038 0.950 . S
H2019 C2039 0.950 . S
H2020 C2041 0.950 . S
H2021 C2044 0.950 . S
H2022 C2045 0.978 . S
H2023 C2047 0.950 . S
H2024 C2048 0.950 . S
H2025 C2049 0.951 . S
H2026 C2051 0.951 . S
H2027 C2053 0.950 1_655 S
H2028 C2054 1.000 . S
H2029 C2056 0.950 . S
H2030 C2059 0.950 . S
H2031 C2060 0.950 . S
H2032 C2062 0.950 . S
H2033 C2063 0.950 . S
C2034 H2016 0.951 1_455 S
C2034 C2035 1.366 . S
C2034 C2036 1.388 . S
C2035 C2034 1.366 . S
C2035 C2039 1.385 . S
C2036 H2017 0.951 1_455 S
C2036 C2034 1.388 . S
C2036 C2037 1.366 . S
C2037 C2036 1.366 . S
C2037 C2038 1.414 . S
C2037 C2040 1.499 . S
C2038 H2018 0.950 . S
C2038 C2037 1.414 . S
C2038 C2039 1.374 . S
C2039 H2019 0.950 . S
C2039 C2035 1.385 . S
C2039 C2038 1.374 . S
C2040 C2037 1.499 . S
C2040 C2041 1.373 . S
C2040 C2042 1.389 . S
C2041 H2020 0.950 . S
C2041 C2040 1.373 . S
C2041 C2057 1.377 . S
C2042 C2040 1.389 . S
C2042 C2043 1.548 . S
C2042 C2056 1.377 . S
C2043 C2042 1.548 . S
C2043 C2044 1.415 . S
C2043 C2048 1.325 1_455 S
C2044 H2021 0.950 . S
C2044 C2043 1.415 . S
C2044 C2045 1.366 . S
C2045 H2022 0.978 . S
C2045 C2044 1.366 . S
C2045 C2046 1.230 1_455 S
C2046 C2045 1.230 1_655 S
C2046 C2047 1.524 . S
C2046 H2065 0.913 . S
C2047 H2023 0.950 . S
C2047 C2046 1.524 . S
C2047 C2048 1.415 . S
C2048 H2024 0.950 . S
C2048 C2043 1.325 1_655 S
C2048 C2047 1.415 . S
C2049 H2025 0.951 . S
C2049 C2050 1.366 . S
C2049 C2051 1.388 . S
C2050 C2049 1.366 . S
C2050 C2054 1.385 . S
C2051 H2026 0.951 . S
C2051 C2049 1.388 . S
C2051 C2052 1.366 . S
C2052 C2051 1.366 . S
C2052 C2053 1.414 . S
C2052 C2055 1.499 . S
C2053 H2027 0.950 1_455 S
C2053 C2052 1.414 . S
C2053 C2054 1.374 . S
C2054 H2028 1.000 . S
C2054 C2050 1.385 . S
C2054 C2053 1.374 . S
C2055 C2052 1.499 . S
C2055 C2056 1.373 . S
C2055 C2057 1.389 . S
C2056 H2029 0.950 . S
C2056 C2042 1.377 . S
C2056 C2055 1.373 . S
C2057 C2041 1.377 . S
C2057 C2055 1.389 . S
C2057 C2058 1.524 . S
C2058 C2057 1.524 . S
C2058 C2059 1.397 1_556 S
C2058 C2063 1.363 . S
C2059 H2030 0.950 . S
C2059 C2058 1.397 1_554 S
C2059 C2060 1.334 . S
C2060 H2031 0.950 . S
C2060 C2059 1.334 . S
C2060 C2061 1.287 . S
C2061 C2060 1.287 . S
C2061 C2062 1.524 . S
C2061 H2064 0.999 . S
C2062 H2032 0.950 . S
C2062 C2061 1.524 . S
C2062 C2063 1.415 1_554 S
C2063 H2033 0.950 . S
C2063 C2058 1.363 . S
C2063 C2062 1.415 1_556 S
H2064 C2061 0.999 . S
H2065 C2046 0.913 . S
H2066 C2084 0.951 . S
H2067 C2086 0.951 . S
H2068 C2088 0.950 . S
H2069 C2089 0.950 . S
H2070 C2091 0.950 . S
H2071 C2094 0.950 . S
H2072 C2095 0.950 . S
H2073 C2097 0.950 . S
H2074 C2098 0.950 . S
H2075 C2099 0.951 . S
H2076 C2101 0.951 . S
H2077 C2103 0.950 . S
H2078 C2104 0.950 . S
H2079 C2106 0.950 . S
H2080 C2109 0.950 . S
H2081 C2110 0.950 . S
H2082 C2112 0.950 . S
H2083 C2113 0.950 . S
C2084 H2066 0.951 . S
C2084 C2085 1.366 . S
C2084 C2086 1.388 . S
C2085 C2084 1.366 . S
C2085 C2089 1.385 . S
C2086 H2067 0.951 . S
C2086 C2084 1.388 . S
C2086 C2087 1.366 . S
C2087 C2086 1.366 . S
C2087 C2088 1.414 . S
C2087 C2090 1.499 . S
C2088 H2068 0.950 . S
C2088 C2087 1.414 . S
C2088 C2089 1.374 . S
C2089 H2069 0.950 . S
C2089 C2085 1.385 . S
C2089 C2088 1.374 . S
C2090 C2087 1.499 . S
C2090 C2091 1.373 . S
C2090 C2092 1.389 . S
C2091 H2070 0.950 . S
C2091 C2090 1.373 . S
C2091 C2107 1.377 . S
C2092 C2090 1.389 . S
C2092 C2093 1.524 . S
C2092 C2106 1.377 . S
C2093 C2092 1.524 . S
C2093 C2094 1.397 . S
C2093 C2098 1.363 . S
C2094 H2071 0.950 . S
C2094 C2093 1.397 . S
C2094 C2095 1.334 . S
C2095 H2072 0.950 . S
C2095 C2094 1.334 . S
C2095 C2096 1.287 . S
C2096 C2095 1.287 . S
C2096 C2097 1.524 . S
C2096 H2115 0.913 . S
C2097 H2073 0.950 . S
C2097 C2096 1.524 . S
C2097 C2098 1.415 . S
C2098 H2074 0.950 . S
C2098 C2093 1.363 . S
C2098 C2097 1.415 . S
C2099 H2075 0.951 . S
C2099 C2100 1.366 . S
C2099 C2101 1.388 . S
C2100 C2099 1.366 . S
C2100 C2104 1.385 . S
C2101 H2076 0.951 . S
C2101 C2099 1.388 . S
C2101 C2102 1.366 . S
C2102 C2101 1.366 . S
C2102 C2103 1.414 . S
C2102 C2105 1.499 . S
C2103 H2077 0.950 . S
C2103 C2102 1.414 . S
C2103 C2104 1.374 . S
C2104 H2078 0.950 . S
C2104 C2100 1.385 . S
C2104 C2103 1.374 . S
C2105 C2102 1.499 . S
C2105 C2106 1.373 . S
C2105 C2107 1.389 . S
C2106 H2079 0.950 . S
C2106 C2092 1.377 . S
C2106 C2105 1.373 . S
C2107 C2091 1.377 . S
C2107 C2105 1.389 . S
C2107 C2108 1.524 . S
C2108 C2107 1.524 . S
C2108 C2109 1.397 . S
C2108 C2113 1.363 . S
C2109 H2080 0.950 . S
C2109 C2108 1.397 . S
C2109 C2110 1.334 . S
C2110 H2081 0.950 . S
C2110 C2109 1.334 . S
C2110 C2111 1.287 . S
C2111 C2110 1.287 . S
C2111 C2112 1.524 . S
C2111 H2114 0.999 . S
C2112 H2082 0.950 . S
C2112 C2111 1.524 . S
C2112 C2113 1.415 . S
C2113 H2083 0.950 . S
C2113 C2108 1.363 . S
C2113 C2112 1.415 . S
H2114 C2111 0.999 . S
H2115 C2096 0.913 . S
H2116 C2134 0.951 . S
H2117 C2136 0.951 . S
H2118 C2138 0.950 . S
H2119 C2139 0.950 . S
H2120 C2141 0.950 . S
H2121 C2144 0.950 . S
H2122 C2145 0.950 . S
H2123 C2147 0.950 . S
H2124 C2148 0.950 . S
H2125 C2149 0.951 . S
H2126 C2151 0.951 . S
H2127 C2153 0.950 . S
H2128 C2154 0.950 . S
H2129 C2156 0.950 . S
H2130 C2159 0.950 . S
H2131 C2160 0.950 . S
H2132 C2162 0.950 . S
H2133 C2163 0.950 . S
C2134 H2116 0.951 . S
C2134 C2135 1.366 . S
C2134 C2136 1.388 . S
C2135 C2134 1.366 . S
C2135 C2139 1.385 . S
C2136 H2117 0.951 . S
C2136 C2134 1.388 . S
C2136 C2137 1.366 . S
C2137 C2136 1.366 . S
C2137 C2138 1.414 . S
C2137 C2140 1.499 . S
C2138 H2118 0.950 . S
C2138 C2137 1.414 . S
C2138 C2139 1.374 . S
C2139 H2119 0.950 . S
C2139 C2135 1.385 . S
C2139 C2138 1.374 . S
C2140 C2137 1.499 . S
C2140 C2141 1.373 . S
C2140 C2142 1.389 . S
C2141 H2120 0.950 . S
C2141 C2140 1.373 . S
C2141 C2157 1.377 . S
C2142 C2140 1.389 . S
C2142 C2143 1.524 . S
C2142 C2156 1.377 . S
C2143 C2142 1.524 . S
C2143 C2144 1.397 . S
C2143 C2148 1.363 . S
C2144 H2121 0.950 . S
C2144 C2143 1.397 . S
C2144 C2145 1.334 . S
C2145 H2122 0.950 . S
C2145 C2144 1.334 . S
C2145 C2146 1.287 . S
C2146 C2145 1.287 . S
C2146 C2147 1.524 . S
C2146 H2165 0.913 . S
C2147 H2123 0.950 . S
C2147 C2146 1.524 . S
C2147 C2148 1.415 . S
C2148 H2124 0.950 . S
C2148 C2143 1.363 . S
C2148 C2147 1.415 . S
C2149 H2125 0.951 . S
C2149 C2150 1.366 . S
C2149 C2151 1.388 . S
C2150 C2149 1.366 . S
C2150 C2154 1.385 . S
C2151 H2126 0.951 . S
C2151 C2149 1.388 . S
C2151 C2152 1.366 . S
C2152 C2151 1.366 . S
C2152 C2153 1.414 . S
C2152 C2155 1.499 . S
C2153 H2127 0.950 . S
C2153 C2152 1.414 . S
C2153 C2154 1.374 . S
C2154 H2128 0.950 . S
C2154 C2150 1.385 . S
C2154 C2153 1.374 . S
C2155 C2152 1.499 . S
C2155 C2156 1.373 . S
C2155 C2157 1.389 . S
C2156 H2129 0.950 . S
C2156 C2142 1.377 . S
C2156 C2155 1.373 . S
C2157 C2141 1.377 . S
C2157 C2155 1.389 . S
C2157 C2158 1.524 . S
C2158 C2157 1.524 . S
C2158 C2159 1.397 . S
C2158 C2163 1.363 . S
C2159 H2130 0.950 . S
C2159 C2158 1.397 . S
C2159 C2160 1.334 . S
C2160 H2131 0.950 . S
C2160 C2159 1.334 . S
C2160 C2161 1.287 . S
C2161 C2160 1.287 . S
C2161 C2162 1.524 . S
C2161 H2164 0.999 . S
C2162 H2132 0.950 . S
C2162 C2161 1.524 . S
C2162 C2163 1.415 . S
C2163 H2133 0.950 . S
C2163 C2158 1.363 . S
C2163 C2162 1.415 . S
H2164 C2161 0.999 . S
H2165 C2146 0.913 . S
H2166 C2184 0.951 . S
H2167 C2186 0.951 . S
H2168 C2188 0.950 . S
H2169 C2189 0.950 . S
H2170 C2191 0.950 . S
H2171 C2194 0.950 . S
H2172 C2195 0.950 . S
H2173 C2197 0.950 . S
H2174 C2198 0.950 . S
H2175 C2199 0.951 . S
H2176 C2201 0.951 . S
H2177 C2203 0.950 . S
H2178 C2204 0.950 . S
H2179 C2206 0.950 . S
H2180 C2209 0.950 . S
H2181 C2210 0.950 . S
H2182 C2212 0.950 . S
H2183 C2213 0.950 . S
C2184 H2166 0.951 . S
C2184 C2185 1.366 . S
C2184 C2186 1.388 . S
C2185 C2184 1.366 . S
C2185 C2189 1.385 . S
C2186 H2167 0.951 . S
C2186 C2184 1.388 . S
C2186 C2187 1.366 . S
C2187 C2186 1.366 . S
C2187 C2188 1.414 . S
C2187 C2190 1.499 . S
C2188 H2168 0.950 . S
C2188 C2187 1.414 . S
C2188 C2189 1.374 . S
C2189 H2169 0.950 . S
C2189 C2185 1.385 . S
C2189 C2188 1.374 . S
C2190 C2187 1.499 . S
C2190 C2191 1.373 . S
C2190 C2192 1.389 . S
C2191 H2170 0.950 . S
C2191 C2190 1.373 . S
C2191 C2207 1.377 . S
C2192 C2190 1.389 . S
C2192 C2193 1.524 . S
C2192 C2206 1.377 . S
C2193 C2192 1.524 . S
C2193 C2194 1.397 . S
C2193 C2198 1.363 . S
C2194 H2171 0.950 . S
C2194 C2193 1.397 . S
C2194 C2195 1.334 . S
C2195 H2172 0.950 . S
C2195 C2194 1.334 . S
C2195 C2196 1.287 . S
C2196 C2195 1.287 . S
C2196 C2197 1.524 . S
C2196 H2215 0.913 . S
C2197 H2173 0.950 . S
C2197 C2196 1.524 . S
C2197 C2198 1.415 . S
C2198 H2174 0.950 . S
C2198 C2193 1.363 . S
C2198 C2197 1.415 . S
C2199 H2175 0.951 . S
C2199 C2200 1.366 . S
C2199 C2201 1.388 . S
C2200 C2199 1.366 . S
C2200 C2204 1.385 . S
C2201 H2176 0.951 . S
C2201 C2199 1.388 . S
C2201 C2202 1.366 . S
C2202 C2201 1.366 . S
C2202 C2203 1.414 . S
C2202 C2205 1.499 . S
C2203 H2177 0.950 . S
C2203 C2202 1.414 . S
C2203 C2204 1.374 . S
C2204 H2178 0.950 . S
C2204 C2200 1.385 . S
C2204 C2203 1.374 . S
C2205 C2202 1.499 . S
C2205 C2206 1.373 . S
C2205 C2207 1.389 . S
C2206 H2179 0.950 . S
C2206 C2192 1.377 . S
C2206 C2205 1.373 . S
C2207 C2191 1.377 . S
C2207 C2205 1.389 . S
C2207 C2208 1.524 . S
C2208 C2207 1.524 . S
C2208 C2209 1.397 . S
C2208 C2213 1.363 . S
C2209 H2180 0.950 . S
C2209 C2208 1.397 . S
C2209 C2210 1.334 . S
C2210 H2181 0.950 . S
C2210 C2209 1.334 . S
C2210 C2211 1.287 . S
C2211 C2210 1.287 . S
C2211 C2212 1.524 . S
C2211 H2214 0.999 . S
C2212 H2182 0.950 . S
C2212 C2211 1.524 . S
C2212 C2213 1.415 . S
C2213 H2183 0.950 . S
C2213 C2208 1.363 . S
C2213 C2212 1.415 . S
H2214 C2211 0.999 . S
H2215 C2196 0.913 . S
H2216 C2234 0.951 . S
H2217 C2236 0.951 . S
H2218 C2238 0.950 . S
H2219 C2239 0.957 . S
H2220 C2241 0.950 1_655 S
H2221 C2244 0.950 . S
H2222 C2245 0.950 . S
H2223 C2247 0.950 . S
H2224 C2248 0.950 . S
H2225 C2249 0.951 . S
H2226 C2251 0.951 . S
H2227 C2253 0.950 . S
H2228 C2254 0.950 . S
H2229 C2256 0.950 . S
H2230 C2259 0.950 . S
H2231 C2260 0.950 . S
H2232 C2262 0.950 . S
H2233 C2263 0.950 . S
C2234 H2216 0.951 . S
C2234 C2235 1.366 . S
C2234 C2236 1.388 . S
C2235 C2234 1.366 . S
C2235 C2239 1.385 . S
C2236 H2217 0.951 . S
C2236 C2234 1.388 . S
C2236 C2237 1.366 . S
C2237 C2236 1.366 . S
C2237 C2238 1.414 . S
C2237 C2240 1.499 . S
C2238 H2218 0.950 . S
C2238 C2237 1.414 . S
C2238 C2239 1.374 . S
C2239 H2219 0.957 . S
C2239 C2235 1.385 . S
C2239 C2238 1.374 . S
C2240 C2237 1.499 . S
C2240 C2241 1.373 . S
C2240 C2242 1.389 . S
C2241 H2220 0.950 1_455 S
C2241 C2240 1.373 . S
C2241 C2257 1.377 . S
C2242 C2240 1.389 . S
C2242 C2243 1.524 . S
C2242 C2256 1.377 . S
C2243 C2242 1.524 . S
C2243 C2244 1.397 . S
C2243 C2248 1.363 . S
C2244 H2221 0.950 . S
C2244 C2243 1.397 . S
C2244 C2245 1.334 . S
C2245 H2222 0.950 . S
C2245 C2244 1.334 . S
C2245 C2246 1.287 . S
C2246 C2245 1.287 . S
C2246 C2247 1.524 . S
C2246 H2265 0.913 . S
C2247 H2223 0.950 . S
C2247 C2246 1.524 . S
C2247 C2248 1.415 . S
C2248 H2224 0.950 . S
C2248 C2243 1.363 . S
C2248 C2247 1.415 . S
C2249 H2225 0.951 . S
C2249 C2250 1.366 . S
C2249 C2251 1.388 . S
C2250 C2249 1.366 . S
C2250 C2254 1.385 . S
C2251 H2226 0.951 . S
C2251 C2249 1.388 . S
C2251 C2252 1.366 . S
C2252 C2251 1.366 . S
C2252 C2253 1.414 . S
C2252 C2255 1.499 . S
C2253 H2227 0.950 . S
C2253 C2252 1.414 . S
C2253 C2254 1.374 . S
C2254 H2228 0.950 . S
C2254 C2250 1.385 . S
C2254 C2253 1.374 . S
C2255 C2252 1.499 . S
C2255 C2256 1.373 . S
C2255 C2257 1.389 . S
C2256 H2229 0.950 . S
C2256 C2242 1.377 . S
C2256 C2255 1.373 . S
C2257 C2241 1.377 . S
C2257 C2255 1.389 . S
C2257 C2258 1.524 1_455 S
C2258 C2257 1.524 1_655 S
C2258 C2259 1.397 . S
C2258 C2263 1.363 . S
C2259 H2230 0.950 . S
C2259 C2258 1.397 . S
C2259 C2260 1.334 . S
C2260 H2231 0.950 . S
C2260 C2259 1.334 . S
C2260 C2261 1.287 . S
C2261 C2260 1.287 . S
C2261 C2262 1.524 . S
C2261 H2264 0.999 . S
C2262 H2232 0.950 . S
C2262 C2261 1.524 . S
C2262 C2263 1.415 . S
C2263 H2233 0.950 . S
C2263 C2258 1.363 . S
C2263 C2262 1.415 . S
H2264 C2261 0.999 . S
H2265 C2246 0.913 . S
H2266 C2284 0.951 . S
H2267 C2286 0.951 . S
H2268 C2288 0.950 . S
H2269 C2289 0.950 . S
H2270 C2291 0.950 . S
H2271 C2294 0.950 . S
H2272 C2295 0.950 . S
H2273 C2297 0.950 . S
H2274 C2298 0.950 . S
H2275 C2299 0.951 . S
H2276 C2301 0.951 . S
H2277 C2303 0.950 . S
H2278 C2304 0.950 . S
H2279 C2306 0.950 . S
H2280 C2309 0.950 . S
H2281 C2310 0.950 . S
H2282 C2312 0.950 . S
H2283 C2313 0.950 . S
C2284 H2266 0.951 . S
C2284 C2285 1.366 . S
C2284 C2286 1.388 . S
C2285 C2284 1.366 . S
C2285 C2289 1.385 . S
C2286 H2267 0.951 . S
C2286 C2284 1.388 . S
C2286 C2287 1.366 . S
C2287 C2286 1.366 . S
C2287 C2288 1.414 . S
C2287 C2290 1.499 . S
C2288 H2268 0.950 . S
C2288 C2287 1.414 . S
C2288 C2289 1.374 . S
C2289 H2269 0.950 . S
C2289 C2285 1.385 . S
C2289 C2288 1.374 . S
C2290 C2287 1.499 . S
C2290 C2291 1.373 . S
C2290 C2292 1.389 . S
C2291 H2270 0.950 . S
C2291 C2290 1.373 . S
C2291 C2307 1.377 . S
C2292 C2290 1.389 . S
C2292 C2293 1.524 . S
C2292 C2306 1.377 . S
C2293 C2292 1.524 . S
C2293 C2294 1.397 . S
C2293 C2298 1.363 . S
C2294 H2271 0.950 . S
C2294 C2293 1.397 . S
C2294 C2295 1.334 . S
C2295 H2272 0.950 . S
C2295 C2294 1.334 . S
C2295 C2296 1.287 . S
C2296 C2295 1.287 . S
C2296 C2297 1.524 . S
C2296 H2315 0.913 . S
C2297 H2273 0.950 . S
C2297 C2296 1.524 . S
C2297 C2298 1.415 . S
C2298 H2274 0.950 . S
C2298 C2293 1.363 . S
C2298 C2297 1.415 . S
C2299 H2275 0.951 . S
C2299 C2300 1.366 . S
C2299 C2301 1.388 . S
C2300 C2299 1.366 . S
C2300 C2304 1.385 . S
C2301 H2276 0.951 . S
C2301 C2299 1.388 . S
C2301 C2302 1.366 . S
C2302 C2301 1.366 . S
C2302 C2303 1.414 . S
C2302 C2305 1.499 . S
C2303 H2277 0.950 . S
C2303 C2302 1.414 . S
C2303 C2304 1.374 . S
C2304 H2278 0.950 . S
C2304 C2300 1.385 . S
C2304 C2303 1.374 . S
C2305 C2302 1.499 . S
C2305 C2306 1.373 . S
C2305 C2307 1.389 . S
C2306 H2279 0.950 . S
C2306 C2292 1.377 . S
C2306 C2305 1.373 . S
C2307 C2291 1.377 . S
C2307 C2305 1.389 . S
C2307 C2308 1.524 . S
C2308 C2307 1.524 . S
C2308 C2309 1.397 . S
C2308 C2313 1.363 . S
C2309 H2280 0.950 . S
C2309 C2308 1.397 . S
C2309 C2310 1.334 . S
C2310 H2281 0.950 . S
C2310 C2309 1.334 . S
C2310 C2311 1.287 . S
C2311 C2310 1.287 . S
C2311 C2312 1.524 . S
C2311 H2314 0.999 . S
C2312 H2282 0.950 . S
C2312 C2311 1.524 . S
C2312 C2313 1.415 . S
C2313 H2283 0.950 . S
C2313 C2308 1.363 . S
C2313 C2312 1.415 . S
H2314 C2311 0.999 . S
H2315 C2296 0.913 . S
H2316 C2334 0.951 . S
H2317 C2336 0.951 . S
H2318 C2338 0.950 . S
H2319 C2339 0.950 . S
H2320 C2341 0.950 . S
H2321 C2344 0.950 . S
H2322 C2345 0.950 . S
H2323 C2347 0.950 . S
H2324 C2348 0.950 . S
H2325 C2349 0.951 . S
H2326 C2351 0.951 . S
H2327 C2353 0.950 . S
H2328 C2354 0.950 . S
H2329 C2356 0.950 . S
H2330 C2359 0.950 . S
H2331 C2360 0.950 . S
H2332 C2362 0.950 . S
H2333 C2363 0.950 . S
C2334 H2316 0.951 . S
C2334 C2335 1.366 . S
C2334 C2336 1.388 . S
C2335 C2334 1.366 . S
C2335 C2339 1.385 . S
C2336 H2317 0.951 . S
C2336 C2334 1.388 . S
C2336 C2337 1.366 . S
C2337 C2336 1.366 . S
C2337 C2338 1.414 . S
C2337 C2340 1.499 . S
C2338 H2318 0.950 . S
C2338 C2337 1.414 . S
C2338 C2339 1.374 . S
C2339 H2319 0.950 . S
C2339 C2335 1.385 . S
C2339 C2338 1.374 . S
C2340 C2337 1.499 . S
C2340 C2341 1.373 . S
C2340 C2342 1.389 . S
C2341 H2320 0.950 . S
C2341 C2340 1.373 . S
C2341 C2357 1.377 . S
C2342 C2340 1.389 . S
C2342 C2343 1.524 . S
C2342 C2356 1.377 . S
C2343 C2342 1.524 . S
C2343 C2344 1.397 . S
C2343 C2348 1.363 . S
C2344 H2321 0.950 . S
C2344 C2343 1.397 . S
C2344 C2345 1.334 . S
C2345 H2322 0.950 . S
C2345 C2344 1.334 . S
C2345 C2346 1.287 . S
C2346 C2345 1.287 . S
C2346 C2347 1.524 . S
C2346 H2365 0.913 . S
C2347 H2323 0.950 . S
C2347 C2346 1.524 . S
C2347 C2348 1.415 . S
C2348 H2324 0.950 . S
C2348 C2343 1.363 . S
C2348 C2347 1.415 . S
C2349 H2325 0.951 . S
C2349 C2350 1.366 . S
C2349 C2351 1.388 . S
C2350 C2349 1.366 . S
C2350 C2354 1.385 . S
C2351 H2326 0.951 . S
C2351 C2349 1.388 . S
C2351 C2352 1.366 . S
C2352 C2351 1.366 . S
C2352 C2353 1.414 . S
C2352 C2355 1.499 . S
C2353 H2327 0.950 . S
C2353 C2352 1.414 . S
C2353 C2354 1.374 . S
C2354 H2328 0.950 . S
C2354 C2350 1.385 . S
C2354 C2353 1.374 . S
C2355 C2352 1.499 . S
C2355 C2356 1.373 . S
C2355 C2357 1.389 . S
C2356 H2329 0.950 . S
C2356 C2342 1.377 . S
C2356 C2355 1.373 . S
C2357 C2341 1.377 . S
C2357 C2355 1.389 . S
C2357 C2358 1.524 . S
C2358 C2357 1.524 . S
C2358 C2359 1.397 . S
C2358 C2363 1.363 . S
C2359 H2330 0.950 . S
C2359 C2358 1.397 . S
C2359 C2360 1.334 . S
C2360 H2331 0.950 . S
C2360 C2359 1.334 . S
C2360 C2361 1.287 . S
C2361 C2360 1.287 . S
C2361 C2362 1.524 . S
C2361 H2364 0.999 1_554 S
C2362 H2332 0.950 . S
C2362 C2361 1.524 . S
C2362 C2363 1.415 . S
C2363 H2333 0.950 . S
C2363 C2358 1.363 . S
C2363 C2362 1.415 . S
H2364 C2361 0.999 1_556 S
H2365 C2346 0.913 . S
H2366 C2384 0.951 . S
H2367 C2386 0.951 . S
H2368 C2388 0.950 . S
H2369 C2389 0.950 . S
H2370 C2391 0.950 . S
H2371 C2394 0.950 . S
H2372 C2395 0.950 . S
H2373 C2397 0.950 . S
H2374 C2398 0.950 . S
H2375 C2399 0.951 . S
H2376 C2401 0.951 . S
H2377 C2403 0.950 . S
H2378 C2404 0.950 . S
H2379 C2406 0.950 . S
H2380 C2409 0.950 . S
H2381 C2410 0.950 . S
H2382 C2412 0.950 . S
H2383 C2413 0.950 . S
C2384 H2366 0.951 . S
C2384 C2385 1.366 . S
C2384 C2386 1.388 . S
C2385 C2384 1.366 . S
C2385 C2389 1.385 . S
C2386 H2367 0.951 . S
C2386 C2384 1.388 . S
C2386 C2387 1.366 . S
C2387 C2386 1.366 . S
C2387 C2388 1.414 . S
C2387 C2390 1.499 . S
C2388 H2368 0.950 . S
C2388 C2387 1.414 . S
C2388 C2389 1.374 . S
C2389 H2369 0.950 . S
C2389 C2385 1.385 . S
C2389 C2388 1.374 . S
C2390 C2387 1.499 . S
C2390 C2391 1.373 . S
C2390 C2392 1.389 . S
C2391 H2370 0.950 . S
C2391 C2390 1.373 . S
C2391 C2407 1.377 . S
C2392 C2390 1.389 . S
C2392 C2393 1.524 . S
C2392 C2406 1.377 . S
C2393 C2392 1.524 . S
C2393 C2394 1.397 . S
C2393 C2398 1.363 . S
C2394 H2371 0.950 . S
C2394 C2393 1.397 . S
C2394 C2395 1.334 . S
C2395 H2372 0.950 . S
C2395 C2394 1.334 . S
C2395 C2396 1.287 . S
C2396 C2395 1.287 . S
C2396 C2397 1.524 . S
C2396 H2415 0.913 . S
C2397 H2373 0.950 . S
C2397 C2396 1.524 . S
C2397 C2398 1.415 . S
C2398 H2374 0.950 . S
C2398 C2393 1.363 . S
C2398 C2397 1.415 . S
C2399 H2375 0.951 . S
C2399 C2400 1.366 . S
C2399 C2401 1.388 . S
C2400 C2399 1.366 . S
C2400 C2404 1.385 . S
C2401 H2376 0.951 . S
C2401 C2399 1.388 . S
C2401 C2402 1.366 . S
C2402 C2401 1.366 . S
C2402 C2403 1.414 . S
C2402 C2405 1.499 . S
C2403 H2377 0.950 . S
C2403 C2402 1.414 . S
C2403 C2404 1.374 . S
C2404 H2378 0.950 . S
C2404 C2400 1.385 . S
C2404 C2403 1.374 . S
C2405 C2402 1.499 . S
C2405 C2406 1.373 . S
C2405 C2407 1.389 . S
C2406 H2379 0.950 . S
C2406 C2392 1.377 . S
C2406 C2405 1.373 . S
C2407 C2391 1.377 . S
C2407 C2405 1.389 . S
C2407 C2408 1.524 . S
C2408 C2407 1.524 . S
C2408 C2409 1.397 . S
C2408 C2413 1.363 . S
C2409 H2380 0.950 . S
C2409 C2408 1.397 . S
C2409 C2410 1.334 . S
C2410 H2381 0.950 . S
C2410 C2409 1.334 . S
C2410 C2411 1.287 . S
C2411 C2410 1.287 . S
C2411 C2412 1.524 . S
C2411 H2414 0.999 . S
C2412 H2382 0.950 . S
C2412 C2411 1.524 . S
C2412 C2413 1.415 . S
C2413 H2383 0.950 . S
C2413 C2408 1.363 . S
C2413 C2412 1.415 . S
H2414 C2411 0.999 . S
H2415 C2396 0.913 . S
H2416 C2434 0.951 . S
H2417 C2436 0.951 . S
H2418 C2438 0.950 . S
H2419 C2439 0.950 . S
H2420 C2441 0.950 . S
H2421 C2444 0.950 . S
H2422 C2445 0.950 . S
H2423 C2447 0.950 . S
H2424 C2448 0.950 . S
H2425 C2449 0.951 1_455 S
H2426 C2451 0.951 . S
H2427 C2453 0.950 . S
H2428 C2454 0.950 . S
H2429 C2456 0.950 . S
H2430 C2459 0.955 . S
H2431 C2460 0.950 . S
H2432 C2462 0.950 . S
H2433 C2463 0.950 . S
C2434 H2416 0.951 . S
C2434 C2435 1.366 . S
C2434 C2436 1.388 . S
C2435 C2434 1.366 . S
C2435 C2439 1.385 . S
C2436 H2417 0.951 . S
C2436 C2434 1.388 . S
C2436 C2437 1.366 . S
C2437 C2436 1.366 . S
C2437 C2438 1.414 . S
C2437 C2440 1.499 . S
C2438 H2418 0.950 . S
C2438 C2437 1.414 . S
C2438 C2439 1.374 . S
C2439 H2419 0.950 . S
C2439 C2435 1.385 . S
C2439 C2438 1.374 . S
C2440 C2437 1.499 . S
C2440 C2441 1.373 . S
C2440 C2442 1.389 . S
C2441 H2420 0.950 . S
C2441 C2440 1.373 . S
C2441 C2457 1.377 . S
C2442 C2440 1.389 . S
C2442 C2443 1.524 . S
C2442 C2456 1.377 . S
C2443 C2442 1.524 . S
C2443 C2444 1.397 . S
C2443 C2448 1.363 . S
C2444 H2421 0.950 . S
C2444 C2443 1.397 . S
C2444 C2445 1.334 . S
C2445 H2422 0.950 . S
C2445 C2444 1.334 . S
C2445 C2446 1.287 . S
C2446 C2445 1.287 . S
C2446 C2447 1.524 . S
C2446 H2465 0.913 . S
C2447 H2423 0.950 . S
C2447 C2446 1.524 . S
C2447 C2448 1.415 . S
C2448 H2424 0.950 . S
C2448 C2443 1.363 . S
C2448 C2447 1.415 . S
C2449 H2425 0.951 1_655 S
C2449 C2450 1.366 . S
C2449 C2451 1.388 . S
C2450 C2449 1.366 . S
C2450 C2454 1.385 . S
C2451 H2426 0.951 . S
C2451 C2449 1.388 . S
C2451 C2452 1.366 . S
C2452 C2451 1.366 . S
C2452 C2453 1.414 . S
C2452 C2455 1.499 . S
C2453 H2427 0.950 . S
C2453 C2452 1.414 . S
C2453 C2454 1.374 . S
C2454 H2428 0.950 . S
C2454 C2450 1.385 . S
C2454 C2453 1.374 . S
C2455 C2452 1.499 . S
C2455 C2456 1.373 . S
C2455 C2457 1.389 . S
C2456 H2429 0.950 . S
C2456 C2442 1.377 . S
C2456 C2455 1.373 . S
C2457 C2441 1.377 . S
C2457 C2455 1.389 . S
C2457 C2458 1.524 . S
C2458 C2457 1.524 . S
C2458 C2459 1.412 . S
C2458 C2463 1.363 . S
C2459 H2430 0.955 . S
C2459 C2458 1.412 . S
C2459 C2460 1.314 1_545 S
C2460 H2431 0.950 . S
C2460 C2459 1.314 1_565 S
C2460 C2461 1.287 . S
C2461 C2460 1.287 . S
C2461 C2462 1.524 1_655 S
C2461 H2464 0.999 1_655 S
C2462 H2432 0.950 . S
C2462 C2461 1.524 1_455 S
C2462 C2463 1.415 1_465 S
C2463 H2433 0.950 . S
C2463 C2458 1.363 . S
C2463 C2462 1.415 1_645 S
H2464 C2461 0.999 1_455 S
H2465 C2446 0.913 . S
H2466 C2484 0.951 . S
H2467 C2486 0.951 . S
H2468 C2488 0.950 . S
H2469 C2489 0.950 . S
H2470 C2491 0.950 . S
H2471 C2494 0.950 . S
H2472 C2495 0.950 . S
H2473 C2497 0.950 . S
H2474 C2498 0.950 . S
H2475 C2499 0.951 . S
H2476 C2501 0.951 . S
H2477 C2503 0.950 . S
H2478 C2504 0.950 . S
H2479 C2506 0.950 . S
H2480 C2509 0.950 . S
H2481 C2510 0.950 . S
H2482 C2512 0.950 . S
H2483 C2513 0.950 . S
C2484 H2466 0.951 . S
C2484 C2485 1.366 . S
C2484 C2486 1.388 . S
C2485 C2484 1.366 . S
C2485 C2489 1.385 . S
C2486 H2467 0.951 . S
C2486 C2484 1.388 . S
C2486 C2487 1.366 . S
C2487 C2486 1.366 . S
C2487 C2488 1.414 . S
C2487 C2490 1.499 . S
C2488 H2468 0.950 . S
C2488 C2487 1.414 . S
C2488 C2489 1.374 . S
C2489 H2469 0.950 . S
C2489 C2485 1.385 . S
C2489 C2488 1.374 . S
C2490 C2487 1.499 . S
C2490 C2491 1.373 . S
C2490 C2492 1.389 . S
C2491 H2470 0.950 . S
C2491 C2490 1.373 . S
C2491 C2507 1.377 . S
C2492 C2490 1.389 . S
C2492 C2493 1.524 . S
C2492 C2506 1.377 . S
C2493 C2492 1.524 . S
C2493 C2494 1.397 . S
C2493 C2498 1.363 . S
C2494 H2471 0.950 . S
C2494 C2493 1.397 . S
C2494 C2495 1.334 . S
C2495 H2472 0.950 . S
C2495 C2494 1.334 . S
C2495 C2496 1.287 . S
C2496 C2495 1.287 . S
C2496 C2497 1.524 . S
C2496 H2515 0.913 . S
C2497 H2473 0.950 . S
C2497 C2496 1.524 . S
C2497 C2498 1.415 . S
C2498 H2474 0.950 . S
C2498 C2493 1.363 . S
C2498 C2497 1.415 . S
C2499 H2475 0.951 . S
C2499 C2500 1.366 . S
C2499 C2501 1.388 . S
C2500 C2499 1.366 . S
C2500 C2504 1.385 . S
C2501 H2476 0.951 . S
C2501 C2499 1.388 . S
C2501 C2502 1.366 . S
C2502 C2501 1.366 . S
C2502 C2503 1.414 . S
C2502 C2505 1.499 . S
C2503 H2477 0.950 . S
C2503 C2502 1.414 . S
C2503 C2504 1.374 . S
C2504 H2478 0.950 . S
C2504 C2500 1.385 . S
C2504 C2503 1.374 . S
C2505 C2502 1.499 . S
C2505 C2506 1.373 . S
C2505 C2507 1.389 . S
C2506 H2479 0.950 . S
C2506 C2492 1.377 . S
C2506 C2505 1.373 . S
C2507 C2491 1.377 . S
C2507 C2505 1.389 . S
C2507 C2508 1.524 . S
C2508 C2507 1.524 . S
C2508 C2509 1.397 . S
C2508 C2513 1.363 . S
C2509 H2480 0.950 . S
C2509 C2508 1.397 . S
C2509 C2510 1.334 . S
C2510 H2481 0.950 . S
C2510 C2509 1.334 . S
C2510 C2511 1.287 . S
C2511 C2510 1.287 . S
C2511 C2512 1.524 . S
C2511 H2514 0.999 . S
C2512 H2482 0.950 . S
C2512 C2511 1.524 . S
C2512 C2513 1.415 . S
C2513 H2483 0.950 . S
C2513 C2508 1.363 . S
C2513 C2512 1.415 . S
H2514 C2511 0.999 . S
H2515 C2496 0.913 . S
H2516 C2534 0.935 1_565 S
H2517 C2536 0.951 1_565 S
H2518 C2538 0.950 . S
H2519 C2539 0.950 . S
H2520 C2541 0.942 1_565 S
H2521 C2544 0.950 . S
H2522 C2545 0.950 . S
H2523 C2547 0.950 . S
H2524 C2548 0.950 . S
H2525 C2549 0.951 . S
H2526 C2551 0.951 . S
H2527 C2553 0.957 . S
H2528 C2554 0.950 . S
H2529 C2556 0.950 . S
H2530 C2559 0.950 . S
H2531 C2560 0.950 . S
H2532 C2562 0.950 . S
H2533 C2563 0.950 1_545 S
C2534 H2516 0.935 1_545 S
C2534 C2535 1.380 . S
C2534 C2536 1.391 . S
C2535 C2534 1.380 . S
C2535 C2539 1.385 . S
C2536 H2517 0.951 1_545 S
C2536 C2534 1.391 . S
C2536 C2537 1.366 . S
C2537 C2536 1.366 . S
C2537 C2538 1.414 . S
C2537 C2540 1.499 . S
C2538 H2518 0.950 . S
C2538 C2537 1.414 . S
C2538 C2539 1.374 . S
C2539 H2519 0.950 . S
C2539 C2535 1.385 . S
C2539 C2538 1.374 . S
C2540 C2537 1.499 . S
C2540 C2541 1.373 . S
C2540 C2542 1.389 . S
C2541 H2520 0.942 1_545 S
C2541 C2540 1.373 . S
C2541 C2557 1.377 . S
C2542 C2540 1.389 . S
C2542 C2543 1.524 . S
C2542 C2556 1.377 . S
C2543 C2542 1.524 . S
C2543 C2544 1.397 . S
C2543 C2548 1.363 . S
C2544 H2521 0.950 . S
C2544 C2543 1.397 . S
C2544 C2545 1.334 . S
C2545 H2522 0.950 . S
C2545 C2544 1.334 . S
C2545 C2546 1.287 . S
C2546 C2545 1.287 . S
C2546 C2547 1.524 . S
C2546 H2565 0.913 . S
C2547 H2523 0.950 . S
C2547 C2546 1.524 . S
C2547 C2548 1.415 . S
C2548 H2524 0.950 . S
C2548 C2543 1.363 . S
C2548 C2547 1.415 . S
C2549 H2525 0.951 . S
C2549 C2550 1.366 . S
C2549 C2551 1.388 . S
C2550 C2549 1.366 . S
C2550 C2554 1.385 . S
C2551 H2526 0.951 . S
C2551 C2549 1.388 . S
C2551 C2552 1.366 . S
C2552 C2551 1.366 . S
C2552 C2553 1.414 . S
C2552 C2555 1.499 . S
C2553 H2527 0.957 . S
C2553 C2552 1.414 . S
C2553 C2554 1.374 . S
C2554 H2528 0.950 . S
C2554 C2550 1.385 . S
C2554 C2553 1.374 . S
C2555 C2552 1.499 . S
C2555 C2556 1.373 . S
C2555 C2557 1.389 . S
C2556 H2529 0.950 . S
C2556 C2542 1.377 . S
C2556 C2555 1.373 . S
C2557 C2541 1.377 . S
C2557 C2555 1.389 . S
C2557 C2558 1.524 1_545 S
C2558 C2557 1.524 1_565 S
C2558 C2559 1.397 . S
C2558 C2563 1.363 . S
C2559 H2530 0.950 . S
C2559 C2558 1.397 . S
C2559 C2560 1.334 . S
C2560 H2531 0.950 . S
C2560 C2559 1.334 . S
C2560 C2561 1.287 . S
C2561 C2560 1.287 . S
C2561 C2562 1.524 . S
C2561 H2564 0.999 . S
C2562 H2532 0.950 . S
C2562 C2561 1.524 . S
C2562 C2563 1.415 . S
C2563 H2533 0.950 1_565 S
C2563 C2558 1.363 . S
C2563 C2562 1.415 . S
H2564 C2561 0.999 . S
H2565 C2546 0.913 . S
H2566 C2584 0.951 . S
H2567 C2586 0.951 . S
H2568 C2588 0.950 . S
H2569 C2589 0.950 . S
H2570 C2591 0.950 . S
H2571 C2594 0.950 . S
H2572 C2595 0.950 . S
H2573 C2597 0.950 . S
H2574 C2598 0.950 . S
H2575 C2599 0.951 . S
H2576 C2601 0.951 . S
H2577 C2603 0.950 . S
H2578 C2604 0.950 . S
H2579 C2606 0.950 . S
H2580 C2609 0.950 . S
H2581 C2610 0.950 . S
H2582 C2612 0.950 . S
H2583 C2613 0.950 . S
C2584 H2566 0.951 . S
C2584 C2585 1.366 . S
C2584 C2586 1.388 . S
C2585 C2584 1.366 . S
C2585 C2589 1.385 . S
C2586 H2567 0.951 . S
C2586 C2584 1.388 . S
C2586 C2587 1.366 . S
C2587 C2586 1.366 . S
C2587 C2588 1.414 . S
C2587 C2590 1.499 . S
C2588 H2568 0.950 . S
C2588 C2587 1.414 . S
C2588 C2589 1.374 . S
C2589 H2569 0.950 . S
C2589 C2585 1.385 . S
C2589 C2588 1.374 . S
C2590 C2587 1.499 . S
C2590 C2591 1.373 . S
C2590 C2592 1.389 . S
C2591 H2570 0.950 . S
C2591 C2590 1.373 . S
C2591 C2607 1.377 . S
C2592 C2590 1.389 . S
C2592 C2593 1.524 . S
C2592 C2606 1.377 . S
C2593 C2592 1.524 . S
C2593 C2594 1.397 . S
C2593 C2598 1.363 . S
C2594 H2571 0.950 . S
C2594 C2593 1.397 . S
C2594 C2595 1.334 . S
C2595 H2572 0.950 . S
C2595 C2594 1.334 . S
C2595 C2596 1.287 . S
C2596 C2595 1.287 . S
C2596 C2597 1.524 . S
C2596 H2615 0.913 . S
C2597 H2573 0.950 . S
C2597 C2596 1.524 . S
C2597 C2598 1.415 . S
C2598 H2574 0.950 . S
C2598 C2593 1.363 . S
C2598 C2597 1.415 . S
C2599 H2575 0.951 . S
C2599 C2600 1.366 . S
C2599 C2601 1.388 . S
C2600 C2599 1.366 . S
C2600 C2604 1.385 . S
C2601 H2576 0.951 . S
C2601 C2599 1.388 . S
C2601 C2602 1.366 . S
C2602 C2601 1.366 . S
C2602 C2603 1.414 . S
C2602 C2605 1.499 . S
C2603 H2577 0.950 . S
C2603 C2602 1.414 . S
C2603 C2604 1.374 . S
C2604 H2578 0.950 . S
C2604 C2600 1.385 . S
C2604 C2603 1.374 . S
C2605 C2602 1.499 . S
C2605 C2606 1.373 . S
C2605 C2607 1.389 . S
C2606 H2579 0.950 . S
C2606 C2592 1.377 . S
C2606 C2605 1.373 . S
C2607 C2591 1.377 . S
C2607 C2605 1.389 . S
C2607 C2608 1.524 . S
C2608 C2607 1.524 . S
C2608 C2609 1.397 . S
C2608 C2613 1.363 . S
C2609 H2580 0.950 . S
C2609 C2608 1.397 . S
C2609 C2610 1.334 . S
C2610 H2581 0.950 . S
C2610 C2609 1.334 . S
C2610 C2611 1.287 . S
C2611 C2610 1.287 . S
C2611 C2612 1.524 . S
C2611 H2614 0.999 . S
C2612 H2582 0.950 . S
C2612 C2611 1.524 . S
C2612 C2613 1.415 . S
C2613 H2583 0.950 . S
C2613 C2608 1.363 . S
C2613 C2612 1.415 . S
H2614 C2611 0.999 . S
H2615 C2596 0.913 . S
H2616 C2634 0.951 . S
H2617 C2636 0.951 . S
H2618 C2638 0.950 . S
H2619 C2639 0.950 . S
H2620 C2641 0.950 . S
H2621 C2644 0.976 . S
H2622 C2645 0.950 . S
H2623 C2647 0.950 . S
H2624 C2648 0.950 . S
H2625 C2649 0.965 . S
H2626 C2651 0.951 . S
H2627 C2653 0.946 . S
H2628 C2654 0.950 1_565 S
H2629 C2656 0.949 1_565 S
H2630 C2659 0.950 . S
H2631 C2660 0.950 . S
H2632 C2662 0.950 . S
H2633 C2663 0.950 . S
C2634 H2616 0.951 . S
C2634 C2635 1.366 . S
C2634 C2636 1.388 . S
C2635 C2634 1.366 . S
C2635 C2639 1.385 . S
C2636 H2617 0.951 . S
C2636 C2634 1.388 . S
C2636 C2637 1.366 . S
C2637 C2636 1.366 . S
C2637 C2638 1.414 . S
C2637 C2640 1.499 . S
C2638 H2618 0.950 . S
C2638 C2637 1.414 . S
C2638 C2639 1.374 . S
C2639 H2619 0.950 . S
C2639 C2635 1.385 . S
C2639 C2638 1.374 . S
C2640 C2637 1.499 . S
C2640 C2641 1.373 . S
C2640 C2642 1.389 . S
C2641 H2620 0.950 . S
C2641 C2640 1.373 . S
C2641 C2657 1.377 . S
C2642 C2640 1.389 . S
C2642 C2643 1.524 1_545 S
C2642 C2656 1.377 . S
C2643 C2642 1.524 1_565 S
C2643 C2644 1.393 1_565 S
C2643 C2648 1.363 . S
C2644 H2621 0.976 . S
C2644 C2643 1.393 1_545 S
C2644 C2645 1.313 1_545 S
C2645 H2622 0.950 . S
C2645 C2644 1.313 1_565 S
C2645 C2646 1.287 . S
C2646 C2645 1.287 . S
C2646 C2647 1.524 . S
C2646 H2665 0.913 . S
C2647 H2623 0.950 . S
C2647 C2646 1.524 . S
C2647 C2648 1.415 . S
C2648 H2624 0.950 . S
C2648 C2643 1.363 . S
C2648 C2647 1.415 . S
C2649 H2625 0.965 . S
C2649 C2650 1.362 1_455 S
C2649 C2651 1.379 1_455 S
C2650 C2649 1.362 1_655 S
C2650 C2654 1.385 . S
C2651 H2626 0.951 . S
C2651 C2649 1.379 1_655 S
C2651 C2652 1.366 . S
C2652 C2651 1.366 . S
C2652 C2653 1.414 . S
C2652 C2655 1.499 . S
C2653 H2627 0.946 . S
C2653 C2652 1.414 . S
C2653 C2654 1.374 . S
C2654 H2628 0.950 1_545 S
C2654 C2650 1.385 . S
C2654 C2653 1.374 . S
C2655 C2652 1.499 . S
C2655 C2656 1.373 . S
C2655 C2657 1.389 . S
C2656 H2629 0.949 1_545 S
C2656 C2642 1.377 . S
C2656 C2655 1.373 . S
C2657 C2641 1.377 . S
C2657 C2655 1.389 . S
C2657 C2658 1.524 . S
C2658 C2657 1.524 . S
C2658 C2659 1.397 . S
C2658 C2663 1.363 . S
C2659 H2630 0.950 . S
C2659 C2658 1.397 . S
C2659 C2660 1.334 . S
C2660 H2631 0.950 . S
C2660 C2659 1.334 . S
C2660 C2661 1.287 . S
C2661 C2660 1.287 . S
C2661 C2662 1.524 . S
C2661 H2664 0.999 . S
C2662 H2632 0.950 . S
C2662 C2661 1.524 . S
C2662 C2663 1.415 . S
C2663 H2633 0.950 . S
C2663 C2658 1.363 . S
C2663 C2662 1.415 . S
H2664 C2661 0.999 . S
H2665 C2646 0.913 . S
H2666 C2684 0.951 . S
H2667 C2686 0.951 . S
H2668 C2688 0.950 . S
H2669 C2689 0.950 . S
H2670 C2691 0.950 . S
H2671 C2694 0.950 . S
H2672 C2695 0.950 . S
H2673 C2697 0.950 . S
H2674 C2698 0.950 . S
H2675 C2699 0.951 . S
H2676 C2701 0.951 . S
H2677 C2703 0.950 . S
H2678 C2704 0.950 . S
H2679 C2706 0.950 . S
H2680 C2709 0.950 . S
H2681 C2710 0.950 . S
H2682 C2712 0.950 . S
H2683 C2713 0.950 . S
C2684 H2666 0.951 . S
C2684 C2685 1.366 . S
C2684 C2686 1.388 . S
C2685 C2684 1.366 . S
C2685 C2689 1.385 . S
C2686 H2667 0.951 . S
C2686 C2684 1.388 . S
C2686 C2687 1.366 . S
C2687 C2686 1.366 . S
C2687 C2688 1.414 . S
C2687 C2690 1.499 . S
C2688 H2668 0.950 . S
C2688 C2687 1.414 . S
C2688 C2689 1.374 . S
C2689 H2669 0.950 . S
C2689 C2685 1.385 . S
C2689 C2688 1.374 . S
C2690 C2687 1.499 . S
C2690 C2691 1.373 . S
C2690 C2692 1.389 . S
C2691 H2670 0.950 . S
C2691 C2690 1.373 . S
C2691 C2707 1.377 . S
C2692 C2690 1.389 . S
C2692 C2693 1.524 . S
C2692 C2706 1.377 . S
C2693 C2692 1.524 . S
C2693 C2694 1.397 . S
C2693 C2698 1.363 . S
C2694 H2671 0.950 . S
C2694 C2693 1.397 . S
C2694 C2695 1.334 . S
C2695 H2672 0.950 . S
C2695 C2694 1.334 . S
C2695 C2696 1.287 . S
C2696 C2695 1.287 . S
C2696 C2697 1.524 . S
C2696 H2715 0.913 . S
C2697 H2673 0.950 . S
C2697 C2696 1.524 . S
C2697 C2698 1.415 . S
C2698 H2674 0.950 . S
C2698 C2693 1.363 . S
C2698 C2697 1.415 . S
C2699 H2675 0.951 . S
C2699 C2700 1.366 . S
C2699 C2701 1.388 . S
C2700 C2699 1.366 . S
C2700 C2704 1.385 . S
C2701 H2676 0.951 . S
C2701 C2699 1.388 . S
C2701 C2702 1.366 . S
C2702 C2701 1.366 . S
C2702 C2703 1.414 . S
C2702 C2705 1.499 . S
C2703 H2677 0.950 . S
C2703 C2702 1.414 . S
C2703 C2704 1.374 . S
C2704 H2678 0.950 . S
C2704 C2700 1.385 . S
C2704 C2703 1.374 . S
C2705 C2702 1.499 . S
C2705 C2706 1.373 . S
C2705 C2707 1.389 . S
C2706 H2679 0.950 . S
C2706 C2692 1.377 . S
C2706 C2705 1.373 . S
C2707 C2691 1.377 . S
C2707 C2705 1.389 . S
C2707 C2708 1.524 . S
C2708 C2707 1.524 . S
C2708 C2709 1.397 . S
C2708 C2713 1.363 . S
C2709 H2680 0.950 . S
C2709 C2708 1.397 . S
C2709 C2710 1.334 . S
C2710 H2681 0.950 . S
C2710 C2709 1.334 . S
C2710 C2711 1.287 . S
C2711 C2710 1.287 . S
C2711 C2712 1.524 . S
C2711 H2714 0.999 . S
C2712 H2682 0.950 . S
C2712 C2711 1.524 . S
C2712 C2713 1.415 . S
C2713 H2683 0.950 . S
C2713 C2708 1.363 . S
C2713 C2712 1.415 . S
H2714 C2711 0.999 . S
H2715 C2696 0.913 . S
H2716 C2734 0.975 . S
H2717 C2736 0.951 1_565 S
H2718 C2738 0.950 . S
H2719 C2739 0.950 . S
H2720 C2741 0.950 . S
H2721 C2744 0.950 . S
H2722 C2745 0.950 . S
H2723 C2747 0.950 . S
H2724 C2748 0.950 . S
H2725 C2749 0.951 . S
H2726 C2751 0.951 . S
H2727 C2753 0.950 . S
H2728 C2754 0.950 . S
H2729 C2756 0.950 . S
H2730 C2759 0.950 . S
H2731 C2760 0.950 . S
H2732 C2762 0.950 . S
H2733 C2763 0.950 . S
C2734 H2716 0.975 . S
C2734 C2735 1.351 1_565 S
C2734 C2736 1.380 1_565 S
C2735 C2734 1.351 1_545 S
C2735 C2739 1.385 . S
C2736 H2717 0.951 1_545 S
C2736 C2734 1.380 1_545 S
C2736 C2737 1.366 . S
C2737 C2736 1.366 . S
C2737 C2738 1.414 . S
C2737 C2740 1.499 . S
C2738 H2718 0.950 . S
C2738 C2737 1.414 . S
C2738 C2739 1.374 . S
C2739 H2719 0.950 . S
C2739 C2735 1.385 . S
C2739 C2738 1.374 . S
C2740 C2737 1.499 . S
C2740 C2741 1.373 . S
C2740 C2742 1.389 . S
C2741 H2720 0.950 . S
C2741 C2740 1.373 . S
C2741 C2757 1.377 . S
C2742 C2740 1.389 . S
C2742 C2743 1.524 . S
C2742 C2756 1.377 . S
C2743 C2742 1.524 . S
C2743 C2744 1.397 . S
C2743 C2748 1.363 . S
C2744 H2721 0.950 . S
C2744 C2743 1.397 . S
C2744 C2745 1.334 . S
C2745 H2722 0.950 . S
C2745 C2744 1.334 . S
C2745 C2746 1.287 . S
C2746 C2745 1.287 . S
C2746 C2747 1.524 . S
C2746 H2765 0.913 . S
C2747 H2723 0.950 . S
C2747 C2746 1.524 . S
C2747 C2748 1.415 . S
C2748 H2724 0.950 . S
C2748 C2743 1.363 . S
C2748 C2747 1.415 . S
C2749 H2725 0.951 . S
C2749 C2750 1.366 . S
C2749 C2751 1.388 . S
C2750 C2749 1.366 . S
C2750 C2754 1.385 . S
C2751 H2726 0.951 . S
C2751 C2749 1.388 . S
C2751 C2752 1.366 . S
C2752 C2751 1.366 . S
C2752 C2753 1.414 . S
C2752 C2755 1.499 . S
C2753 H2727 0.950 . S
C2753 C2752 1.414 . S
C2753 C2754 1.374 . S
C2754 H2728 0.950 . S
C2754 C2750 1.385 . S
C2754 C2753 1.374 . S
C2755 C2752 1.499 . S
C2755 C2756 1.373 . S
C2755 C2757 1.389 . S
C2756 H2729 0.950 . S
C2756 C2742 1.377 . S
C2756 C2755 1.373 . S
C2757 C2741 1.377 . S
C2757 C2755 1.389 . S
C2757 C2758 1.524 . S
C2758 C2757 1.524 . S
C2758 C2759 1.397 1_545 S
C2758 C2763 1.363 . S
C2759 H2730 0.950 . S
C2759 C2758 1.397 1_565 S
C2759 C2760 1.334 . S
C2760 H2731 0.950 . S
C2760 C2759 1.334 . S
C2760 C2761 1.287 . S
C2761 C2760 1.287 . S
C2761 C2762 1.524 1_565 S
C2761 H2764 0.999 . S
C2762 H2732 0.950 . S
C2762 C2761 1.524 1_545 S
C2762 C2763 1.415 . S
C2763 H2733 0.950 . S
C2763 C2758 1.363 . S
C2763 C2762 1.415 . S
H2764 C2761 0.999 . S
H2765 C2746 0.913 . S
H2766 C2784 0.951 . S
H2767 C2786 0.951 . S
H2768 C2788 0.950 . S
H2769 C2789 0.950 . S
H2770 C2791 0.950 . S
H2771 C2794 0.950 . S
H2772 C2795 0.950 . S
H2773 C2797 0.950 . S
H2774 C2798 0.950 . S
H2775 C2799 0.951 . S
H2776 C2801 0.951 . S
H2777 C2803 0.950 . S
H2778 C2804 0.950 . S
H2779 C2806 0.950 . S
H2780 C2809 0.950 . S
H2781 C2810 0.950 . S
H2782 C2812 0.950 . S
H2783 C2813 0.950 . S
C2784 H2766 0.951 . S
C2784 C2785 1.366 . S
C2784 C2786 1.388 . S
C2785 C2784 1.366 . S
C2785 C2789 1.385 . S
C2786 H2767 0.951 . S
C2786 C2784 1.388 . S
C2786 C2787 1.366 . S
C2787 C2786 1.366 . S
C2787 C2788 1.414 . S
C2787 C2790 1.499 . S
C2788 H2768 0.950 . S
C2788 C2787 1.414 . S
C2788 C2789 1.374 . S
C2789 H2769 0.950 . S
C2789 C2785 1.385 . S
C2789 C2788 1.374 . S
C2790 C2787 1.499 . S
C2790 C2791 1.373 . S
C2790 C2792 1.389 . S
C2791 H2770 0.950 . S
C2791 C2790 1.373 . S
C2791 C2807 1.377 . S
C2792 C2790 1.389 . S
C2792 C2793 1.524 . S
C2792 C2806 1.377 . S
C2793 C2792 1.524 . S
C2793 C2794 1.397 . S
C2793 C2798 1.363 . S
C2794 H2771 0.950 . S
C2794 C2793 1.397 . S
C2794 C2795 1.334 . S
C2795 H2772 0.950 . S
C2795 C2794 1.334 . S
C2795 C2796 1.287 . S
C2796 C2795 1.287 . S
C2796 C2797 1.524 . S
C2796 H2815 0.913 . S
C2797 H2773 0.950 . S
C2797 C2796 1.524 . S
C2797 C2798 1.415 . S
C2798 H2774 0.950 . S
C2798 C2793 1.363 . S
C2798 C2797 1.415 . S
C2799 H2775 0.951 . S
C2799 C2800 1.366 . S
C2799 C2801 1.388 . S
C2800 C2799 1.366 . S
C2800 C2804 1.385 . S
C2801 H2776 0.951 . S
C2801 C2799 1.388 . S
C2801 C2802 1.366 . S
C2802 C2801 1.366 . S
C2802 C2803 1.414 . S
C2802 C2805 1.499 . S
C2803 H2777 0.950 . S
C2803 C2802 1.414 . S
C2803 C2804 1.374 . S
C2804 H2778 0.950 . S
C2804 C2800 1.385 . S
C2804 C2803 1.374 . S
C2805 C2802 1.499 . S
C2805 C2806 1.373 . S
C2805 C2807 1.389 . S
C2806 H2779 0.950 . S
C2806 C2792 1.377 . S
C2806 C2805 1.373 . S
C2807 C2791 1.377 . S
C2807 C2805 1.389 . S
C2807 C2808 1.524 . S
C2808 C2807 1.524 . S
C2808 C2809 1.397 . S
C2808 C2813 1.363 . S
C2809 H2780 0.950 . S
C2809 C2808 1.397 . S
C2809 C2810 1.334 . S
C2810 H2781 0.950 . S
C2810 C2809 1.334 . S
C2810 C2811 1.287 . S
C2811 C2810 1.287 . S
C2811 C2812 1.524 . S
C2811 H2814 0.999 . S
C2812 H2782 0.950 . S
C2812 C2811 1.524 . S
C2812 C2813 1.415 . S
C2813 H2783 0.950 . S
C2813 C2808 1.363 . S
C2813 C2812 1.415 . S
H2814 C2811 0.999 . S
H2815 C2796 0.913 . S
H2816 C2834 0.951 . S
H2817 C2836 0.951 . S
H2818 C2838 0.950 . S
H2819 C2839 0.950 . S
H2820 C2841 0.950 . S
H2821 C2844 0.950 . S
H2822 C2845 0.950 . S
H2823 C2847 0.950 . S
H2824 C2848 0.927 1_544 S
H2825 C2849 0.951 . S
H2826 C2851 0.951 . S
H2827 C2853 0.950 . S
H2828 C2854 0.950 . S
H2829 C2856 0.950 . S
H2830 C2859 0.950 . S
H2831 C2860 0.950 . S
H2832 C2862 0.950 . S
H2833 C2863 0.950 . S
C2834 H2816 0.951 . S
C2834 C2835 1.366 . S
C2834 C2836 1.388 . S
C2835 C2834 1.366 . S
C2835 C2839 1.385 . S
C2836 H2817 0.951 . S
C2836 C2834 1.388 . S
C2836 C2837 1.366 . S
C2837 C2836 1.366 . S
C2837 C2838 1.414 . S
C2837 C2840 1.499 . S
C2838 H2818 0.950 . S
C2838 C2837 1.414 . S
C2838 C2839 1.374 . S
C2839 H2819 0.950 . S
C2839 C2835 1.385 . S
C2839 C2838 1.374 . S
C2840 C2837 1.499 . S
C2840 C2841 1.373 . S
C2840 C2842 1.389 . S
C2841 H2820 0.950 . S
C2841 C2840 1.373 . S
C2841 C2857 1.377 . S
C2842 C2840 1.389 . S
C2842 C2843 1.524 1_554 S
C2842 C2856 1.377 . S
C2843 C2842 1.524 1_556 S
C2843 C2844 1.397 . S
C2843 C2848 1.373 . S
C2844 H2821 0.950 . S
C2844 C2843 1.397 . S
C2844 C2845 1.334 . S
C2845 H2822 0.950 . S
C2845 C2844 1.334 . S
C2845 C2846 1.287 . S
C2846 C2845 1.287 . S
C2846 C2847 1.524 1_565 S
C2846 H2865 0.913 . S
C2847 H2823 0.950 . S
C2847 C2846 1.524 1_545 S
C2847 C2848 1.428 1_545 S
C2848 H2824 0.927 1_566 S
C2848 C2843 1.373 . S
C2848 C2847 1.428 1_565 S
C2849 H2825 0.951 . S
C2849 C2850 1.366 1_565 S
C2849 C2851 1.388 . S
C2850 C2849 1.366 1_545 S
C2850 C2854 1.385 . S
C2851 H2826 0.951 . S
C2851 C2849 1.388 . S
C2851 C2852 1.366 . S
C2852 C2851 1.366 . S
C2852 C2853 1.414 1_565 S
C2852 C2855 1.499 . S
C2853 H2827 0.950 . S
C2853 C2852 1.414 1_545 S
C2853 C2854 1.374 . S
C2854 H2828 0.950 . S
C2854 C2850 1.385 . S
C2854 C2853 1.374 . S
C2855 C2852 1.499 . S
C2855 C2856 1.373 . S
C2855 C2857 1.389 . S
C2856 H2829 0.950 . S
C2856 C2842 1.377 . S
C2856 C2855 1.373 . S
C2857 C2841 1.377 . S
C2857 C2855 1.389 . S
C2857 C2858 1.524 . S
C2858 C2857 1.524 . S
C2858 C2859 1.397 . S
C2858 C2863 1.363 . S
C2859 H2830 0.950 . S
C2859 C2858 1.397 . S
C2859 C2860 1.334 . S
C2860 H2831 0.950 . S
C2860 C2859 1.334 . S
C2860 C2861 1.287 . S
C2861 C2860 1.287 . S
C2861 C2862 1.524 . S
C2861 H2864 0.999 . S
C2862 H2832 0.950 . S
C2862 C2861 1.524 . S
C2862 C2863 1.415 . S
C2863 H2833 0.950 . S
C2863 C2858 1.363 . S
C2863 C2862 1.415 . S
H2864 C2861 0.999 . S
H2865 C2846 0.913 . S
H2866 C2884 0.951 . S
H2867 C2886 0.951 . S
H2868 C2888 0.950 . S
H2869 C2889 0.950 . S
H2870 C2891 0.950 . S
H2871 C2894 0.950 . S
H2872 C2895 0.950 . S
H2873 C2897 0.950 . S
H2874 C2898 0.950 . S
H2875 C2899 0.951 . S
H2876 C2901 0.951 . S
H2877 C2903 0.950 . S
H2878 C2904 0.950 . S
H2879 C2906 0.950 . S
H2880 C2909 0.950 . S
H2881 C2910 0.950 . S
H2882 C2912 0.950 . S
H2883 C2913 0.950 . S
C2884 H2866 0.951 . S
C2884 C2885 1.366 . S
C2884 C2886 1.388 . S
C2885 C2884 1.366 . S
C2885 C2889 1.385 1_554 S
C2886 H2867 0.951 . S
C2886 C2884 1.388 . S
C2886 C2887 1.366 . S
C2887 C2886 1.366 . S
C2887 C2888 1.414 1_554 S
C2887 C2890 1.499 . S
C2888 H2868 0.950 . S
C2888 C2887 1.414 1_556 S
C2888 C2889 1.374 . S
C2889 H2869 0.950 . S
C2889 C2885 1.385 1_556 S
C2889 C2888 1.374 . S
C2890 C2887 1.499 . S
C2890 C2891 1.373 . S
C2890 C2892 1.389 1_554 S
C2891 H2870 0.950 . S
C2891 C2890 1.373 . S
C2891 C2907 1.377 . S
C2892 C2890 1.389 1_556 S
C2892 C2893 1.524 . S
C2892 C2906 1.377 . S
C2893 C2892 1.524 . S
C2893 C2894 1.397 . S
C2893 C2898 1.363 . S
C2894 H2871 0.950 . S
C2894 C2893 1.397 . S
C2894 C2895 1.334 . S
C2895 H2872 0.950 . S
C2895 C2894 1.334 . S
C2895 C2896 1.287 . S
C2896 C2895 1.287 . S
C2896 C2897 1.524 . S
C2896 H2915 0.913 . S
C2897 H2873 0.950 . S
C2897 C2896 1.524 . S
C2897 C2898 1.415 . S
C2898 H2874 0.950 . S
C2898 C2893 1.363 . S
C2898 C2897 1.415 . S
C2899 H2875 0.951 . S
C2899 C2900 1.366 . S
C2899 C2901 1.388 . S
C2900 C2899 1.366 . S
C2900 C2904 1.385 . S
C2901 H2876 0.951 . S
C2901 C2899 1.388 . S
C2901 C2902 1.366 . S
C2902 C2901 1.366 . S
C2902 C2903 1.414 . S
C2902 C2905 1.499 . S
C2903 H2877 0.950 . S
C2903 C2902 1.414 . S
C2903 C2904 1.374 . S
C2904 H2878 0.950 . S
C2904 C2900 1.385 . S
C2904 C2903 1.374 . S
C2905 C2902 1.499 . S
C2905 C2906 1.373 1_554 S
C2905 C2907 1.389 . S
C2906 H2879 0.950 . S
C2906 C2892 1.377 . S
C2906 C2905 1.373 1_556 S
C2907 C2891 1.377 . S
C2907 C2905 1.389 . S
C2907 C2908 1.524 . S
C2908 C2907 1.524 . S
C2908 C2909 1.397 . S
C2908 C2913 1.363 . S
C2909 H2880 0.950 . S
C2909 C2908 1.397 . S
C2909 C2910 1.334 . S
C2910 H2881 0.950 . S
C2910 C2909 1.334 . S
C2910 C2911 1.287 . S
C2911 C2910 1.287 . S
C2911 C2912 1.524 . S
C2911 H2914 0.999 . S
C2912 H2882 0.950 . S
C2912 C2911 1.524 . S
C2912 C2913 1.415 . S
C2913 H2883 0.950 . S
C2913 C2908 1.363 . S
C2913 C2912 1.415 . S
H2914 C2911 0.999 . S
H2915 C2896 0.913 . S
H2916 C2934 0.951 . S
H2917 C2936 0.951 . S
H2918 C2938 0.950 . S
H2919 C2939 0.950 . S
H2920 C2941 0.950 . S
H2921 C2944 0.950 . S
H2922 C2945 0.950 . S
H2923 C2947 0.950 . S
H2924 C2948 0.950 . S
H2925 C2949 0.951 . S
H2926 C2951 0.951 . S
H2927 C2953 0.950 . S
H2928 C2954 0.950 . S
H2929 C2956 0.950 . S
H2930 C2959 0.950 . S
H2931 C2960 0.950 . S
H2932 C2962 0.950 . S
H2933 C2963 0.950 . S
C2934 H2916 0.951 . S
C2934 C2935 1.366 . S
C2934 C2936 1.388 . S
C2935 C2934 1.366 . S
C2935 C2939 1.385 . S
C2936 H2917 0.951 . S
C2936 C2934 1.388 . S
C2936 C2937 1.366 . S
C2937 C2936 1.366 . S
C2937 C2938 1.414 . S
C2937 C2940 1.499 . S
C2938 H2918 0.950 . S
C2938 C2937 1.414 . S
C2938 C2939 1.374 . S
C2939 H2919 0.950 . S
C2939 C2935 1.385 . S
C2939 C2938 1.374 . S
C2940 C2937 1.499 . S
C2940 C2941 1.373 . S
C2940 C2942 1.389 . S
C2941 H2920 0.950 . S
C2941 C2940 1.373 . S
C2941 C2957 1.377 . S
C2942 C2940 1.389 . S
C2942 C2943 1.524 . S
C2942 C2956 1.377 . S
C2943 C2942 1.524 . S
C2943 C2944 1.397 . S
C2943 C2948 1.363 . S
C2944 H2921 0.950 . S
C2944 C2943 1.397 . S
C2944 C2945 1.334 . S
C2945 H2922 0.950 . S
C2945 C2944 1.334 . S
C2945 C2946 1.287 . S
C2946 C2945 1.287 . S
C2946 C2947 1.524 . S
C2946 H2965 0.913 . S
C2947 H2923 0.950 . S
C2947 C2946 1.524 . S
C2947 C2948 1.415 . S
C2948 H2924 0.950 . S
C2948 C2943 1.363 . S
C2948 C2947 1.415 . S
C2949 H2925 0.951 . S
C2949 C2950 1.366 . S
C2949 C2951 1.388 . S
C2950 C2949 1.366 . S
C2950 C2954 1.385 . S
C2951 H2926 0.951 . S
C2951 C2949 1.388 . S
C2951 C2952 1.366 . S
C2952 C2951 1.366 . S
C2952 C2953 1.414 . S
C2952 C2955 1.499 . S
C2953 H2927 0.950 . S
C2953 C2952 1.414 . S
C2953 C2954 1.374 . S
C2954 H2928 0.950 . S
C2954 C2950 1.385 . S
C2954 C2953 1.374 . S
C2955 C2952 1.499 . S
C2955 C2956 1.373 . S
C2955 C2957 1.389 . S
C2956 H2929 0.950 . S
C2956 C2942 1.377 . S
C2956 C2955 1.373 . S
C2957 C2941 1.377 . S
C2957 C2955 1.389 . S
C2957 C2958 1.524 . S
C2958 C2957 1.524 . S
C2958 C2959 1.397 . S
C2958 C2963 1.363 . S
C2959 H2930 0.950 . S
C2959 C2958 1.397 . S
C2959 C2960 1.334 . S
C2960 H2931 0.950 . S
C2960 C2959 1.334 . S
C2960 C2961 1.287 . S
C2961 C2960 1.287 . S
C2961 C2962 1.524 . S
C2961 H2964 0.999 . S
C2962 H2932 0.950 . S
C2962 C2961 1.524 . S
C2962 C2963 1.415 . S
C2963 H2933 0.950 . S
C2963 C2958 1.363 . S
C2963 C2962 1.415 . S
H2964 C2961 0.999 . S
H2965 C2946 0.913 . S
H2966 C2984 0.951 . S
H2967 C2986 0.951 . S
H2968 C2988 0.950 . S
H2969 C2989 0.950 . S
H2970 C2991 0.950 . S
H2971 C2994 0.950 . S
H2972 C2995 0.950 . S
H2973 C2997 0.950 . S
H2974 C2998 0.950 . S
H2975 C2999 0.951 . S
H2976 C3001 0.951 . S
H2977 C3003 0.950 . S
H2978 C3004 0.950 . S
H2979 C3006 0.950 . S
H2980 C3009 0.950 . S
H2981 C3010 0.950 . S
H2982 C3012 0.950 . S
H2983 C3013 0.950 . S
C2984 H2966 0.951 . S
C2984 C2985 1.366 . S
C2984 C2986 1.388 . S
C2985 C2984 1.366 . S
C2985 C2989 1.385 . S
C2986 H2967 0.951 . S
C2986 C2984 1.388 . S
C2986 C2987 1.366 . S
C2987 C2986 1.366 . S
C2987 C2988 1.414 . S
C2987 C2990 1.499 . S
C2988 H2968 0.950 . S
C2988 C2987 1.414 . S
C2988 C2989 1.374 . S
C2989 H2969 0.950 . S
C2989 C2985 1.385 . S
C2989 C2988 1.374 . S
C2990 C2987 1.499 . S
C2990 C2991 1.373 . S
C2990 C2992 1.389 . S
C2991 H2970 0.950 . S
C2991 C2990 1.373 . S
C2991 C3007 1.377 . S
C2992 C2990 1.389 . S
C2992 C2993 1.524 . S
C2992 C3006 1.377 . S
C2993 C2992 1.524 . S
C2993 C2994 1.397 . S
C2993 C2998 1.363 . S
C2994 H2971 0.950 . S
C2994 C2993 1.397 . S
C2994 C2995 1.334 . S
C2995 H2972 0.950 . S
C2995 C2994 1.334 . S
C2995 C2996 1.287 . S
C2996 C2995 1.287 . S
C2996 C2997 1.524 . S
C2996 H3015 0.913 . S
C2997 H2973 0.950 . S
C2997 C2996 1.524 . S
C2997 C2998 1.415 . S
C2998 H2974 0.950 . S
C2998 C2993 1.363 . S
C2998 C2997 1.415 . S
C2999 H2975 0.951 . S
C2999 C3000 1.366 . S
C2999 C3001 1.388 . S
C3000 C2999 1.366 . S
C3000 C3004 1.385 . S
C3001 H2976 0.951 . S
C3001 C2999 1.388 . S
C3001 C3002 1.366 . S
C3002 C3001 1.366 . S
C3002 C3003 1.414 . S
C3002 C3005 1.499 . S
C3003 H2977 0.950 . S
C3003 C3002 1.414 . S
C3003 C3004 1.374 . S
C3004 H2978 0.950 . S
C3004 C3000 1.385 . S
C3004 C3003 1.374 . S
C3005 C3002 1.499 . S
C3005 C3006 1.373 . S
C3005 C3007 1.389 . S
C3006 H2979 0.950 . S
C3006 C2992 1.377 . S
C3006 C3005 1.373 . S
C3007 C2991 1.377 . S
C3007 C3005 1.389 . S
C3007 C3008 1.524 . S
C3008 C3007 1.524 . S
C3008 C3009 1.397 . S
C3008 C3013 1.363 . S
C3009 H2980 0.950 . S
C3009 C3008 1.397 . S
C3009 C3010 1.334 . S
C3010 H2981 0.950 . S
C3010 C3009 1.334 . S
C3010 C3011 1.287 . S
C3011 C3010 1.287 . S
C3011 C3012 1.524 . S
C3011 H3014 0.999 . S
C3012 H2982 0.950 . S
C3012 C3011 1.524 . S
C3012 C3013 1.415 . S
C3013 H2983 0.950 . S
C3013 C3008 1.363 . S
C3013 C3012 1.415 . S
H3014 C3011 0.999 . S
H3015 C2996 0.913 . S
H3016 C3034 0.951 1_545 S
H3017 C3036 0.951 . S
H3018 C3038 0.950 . S
H3019 C3039 0.950 . S
H3020 C3041 0.950 . S
H3021 C3044 0.950 . S
H3022 C3045 0.950 . S
H3023 C3047 0.950 . S
H3024 C3048 0.950 . S
H3025 C3049 0.951 . S
H3026 C3051 0.951 . S
H3027 C3053 0.950 . S
H3028 C3054 0.950 . S
H3029 C3056 0.950 . S
H3030 C3059 0.950 . S
H3031 C3060 0.950 . S
H3032 C3062 0.950 . S
H3033 C3063 0.950 . S
C3034 H3016 0.951 1_565 S
C3034 C3035 1.366 . S
C3034 C3036 1.388 . S
C3035 C3034 1.366 . S
C3035 C3039 1.385 . S
C3036 H3017 0.951 . S
C3036 C3034 1.388 . S
C3036 C3037 1.366 . S
C3037 C3036 1.366 . S
C3037 C3038 1.414 . S
C3037 C3040 1.499 . S
C3038 H3018 0.950 . S
C3038 C3037 1.414 . S
C3038 C3039 1.374 . S
C3039 H3019 0.950 . S
C3039 C3035 1.385 . S
C3039 C3038 1.374 . S
C3040 C3037 1.499 . S
C3040 C3041 1.373 . S
C3040 C3042 1.389 . S
C3041 H3020 0.950 . S
C3041 C3040 1.373 . S
C3041 C3057 1.377 . S
C3042 C3040 1.389 . S
C3042 C3043 1.524 . S
C3042 C3056 1.377 . S
C3043 C3042 1.524 . S
C3043 C3044 1.397 . S
C3043 C3048 1.363 . S
C3044 H3021 0.950 . S
C3044 C3043 1.397 . S
C3044 C3045 1.334 . S
C3045 H3022 0.950 . S
C3045 C3044 1.334 . S
C3045 C3046 1.287 . S
C3046 C3045 1.287 . S
C3046 C3047 1.524 . S
C3046 H3065 0.913 . S
C3047 H3023 0.950 . S
C3047 C3046 1.524 . S
C3047 C3048 1.415 . S
C3048 H3024 0.950 . S
C3048 C3043 1.363 . S
C3048 C3047 1.415 . S
C3049 H3025 0.951 . S
C3049 C3050 1.366 . S
C3049 C3051 1.388 . S
C3050 C3049 1.366 . S
C3050 C3054 1.385 . S
C3051 H3026 0.951 . S
C3051 C3049 1.388 . S
C3051 C3052 1.366 . S
C3052 C3051 1.366 . S
C3052 C3053 1.414 . S
C3052 C3055 1.499 . S
C3053 H3027 0.950 . S
C3053 C3052 1.414 . S
C3053 C3054 1.374 . S
C3054 H3028 0.950 . S
C3054 C3050 1.385 . S
C3054 C3053 1.374 . S
C3055 C3052 1.499 . S
C3055 C3056 1.373 . S
C3055 C3057 1.389 . S
C3056 H3029 0.950 . S
C3056 C3042 1.377 . S
C3056 C3055 1.373 . S
C3057 C3041 1.377 . S
C3057 C3055 1.389 . S
C3057 C3058 1.524 . S
C3058 C3057 1.524 . S
C3058 C3059 1.397 . S
C3058 C3063 1.363 . S
C3059 H3030 0.950 . S
C3059 C3058 1.397 . S
C3059 C3060 1.334 . S
C3060 H3031 0.950 . S
C3060 C3059 1.334 . S
C3060 C3061 1.287 . S
C3061 C3060 1.287 . S
C3061 C3062 1.524 . S
C3061 H3064 0.999 . S
C3062 H3032 0.950 . S
C3062 C3061 1.524 . S
C3062 C3063 1.415 . S
C3063 H3033 0.950 . S
C3063 C3058 1.363 . S
C3063 C3062 1.415 . S
H3064 C3061 0.999 . S
H3065 C3046 0.913 . S
H3066 C3084 0.951 . S
H3067 C3086 0.951 . S
H3068 C3088 0.950 . S
H3069 C3089 0.950 . S
H3070 C3091 0.950 . S
H3071 C3094 0.950 . S
H3072 C3095 0.950 . S
H3073 C3097 0.950 . S
H3074 C3098 0.950 . S
H3075 C3099 0.951 . S
H3076 C3101 0.951 . S
H3077 C3103 0.950 . S
H3078 C3104 0.950 . S
H3079 C3106 0.950 . S
H3080 C3109 0.950 . S
H3081 C3110 0.950 . S
H3082 C3112 0.950 . S
H3083 C3113 0.950 . S
C3084 H3066 0.951 . S
C3084 C3085 1.366 . S
C3084 C3086 1.388 . S
C3085 C3084 1.366 . S
C3085 C3089 1.385 . S
C3086 H3067 0.951 . S
C3086 C3084 1.388 . S
C3086 C3087 1.366 . S
C3087 C3086 1.366 . S
C3087 C3088 1.414 . S
C3087 C3090 1.499 . S
C3088 H3068 0.950 . S
C3088 C3087 1.414 . S
C3088 C3089 1.374 . S
C3089 H3069 0.950 . S
C3089 C3085 1.385 . S
C3089 C3088 1.374 . S
C3090 C3087 1.499 . S
C3090 C3091 1.373 . S
C3090 C3092 1.389 . S
C3091 H3070 0.950 . S
C3091 C3090 1.373 . S
C3091 C3107 1.377 . S
C3092 C3090 1.389 . S
C3092 C3093 1.524 . S
C3092 C3106 1.377 . S
C3093 C3092 1.524 . S
C3093 C3094 1.397 . S
C3093 C3098 1.363 . S
C3094 H3071 0.950 . S
C3094 C3093 1.397 . S
C3094 C3095 1.334 . S
C3095 H3072 0.950 . S
C3095 C3094 1.334 . S
C3095 C3096 1.287 . S
C3096 C3095 1.287 . S
C3096 C3097 1.524 . S
C3096 H3115 0.913 . S
C3097 H3073 0.950 . S
C3097 C3096 1.524 . S
C3097 C3098 1.415 . S
C3098 H3074 0.950 . S
C3098 C3093 1.363 . S
C3098 C3097 1.415 . S
C3099 H3075 0.951 . S
C3099 C3100 1.366 . S
C3099 C3101 1.388 . S
C3100 C3099 1.366 . S
C3100 C3104 1.385 . S
C3101 H3076 0.951 . S
C3101 C3099 1.388 . S
C3101 C3102 1.366 . S
C3102 C3101 1.366 . S
C3102 C3103 1.414 . S
C3102 C3105 1.499 . S
C3103 H3077 0.950 . S
C3103 C3102 1.414 . S
C3103 C3104 1.374 . S
C3104 H3078 0.950 . S
C3104 C3100 1.385 . S
C3104 C3103 1.374 . S
C3105 C3102 1.499 . S
C3105 C3106 1.373 . S
C3105 C3107 1.389 . S
C3106 H3079 0.950 . S
C3106 C3092 1.377 . S
C3106 C3105 1.373 . S
C3107 C3091 1.377 . S
C3107 C3105 1.389 . S
C3107 C3108 1.524 . S
C3108 C3107 1.524 . S
C3108 C3109 1.397 . S
C3108 C3113 1.363 . S
C3109 H3080 0.950 . S
C3109 C3108 1.397 . S
C3109 C3110 1.334 . S
C3110 H3081 0.950 . S
C3110 C3109 1.334 . S
C3110 C3111 1.287 . S
C3111 C3110 1.287 . S
C3111 C3112 1.524 . S
C3111 H3114 0.999 . S
C3112 H3082 0.950 . S
C3112 C3111 1.524 . S
C3112 C3113 1.415 . S
C3113 H3083 0.950 . S
C3113 C3108 1.363 . S
C3113 C3112 1.415 . S
H3114 C3111 0.999 . S
H3115 C3096 0.913 . S
H3116 C3134 0.951 . S
H3117 C3136 0.951 . S
H3118 C3138 0.950 . S
H3119 C3139 0.950 . S
H3120 C3141 0.950 . S
H3121 C3144 0.950 . S
H3122 C3145 0.950 . S
H3123 C3147 0.950 . S
H3124 C3148 0.950 . S
H3125 C3149 0.951 . S
H3126 C3151 0.951 . S
H3127 C3153 0.950 . S
H3128 C3154 0.950 . S
H3129 C3156 0.950 . S
H3130 C3159 0.950 . S
H3131 C3160 0.950 . S
H3132 C3162 0.950 . S
H3133 C3163 0.950 . S
C3134 H3116 0.951 . S
C3134 C3135 1.366 . S
C3134 C3136 1.388 . S
C3135 C3134 1.366 . S
C3135 C3139 1.385 . S
C3136 H3117 0.951 . S
C3136 C3134 1.388 . S
C3136 C3137 1.366 . S
C3137 C3136 1.366 . S
C3137 C3138 1.414 . S
C3137 C3140 1.499 . S
C3138 H3118 0.950 . S
C3138 C3137 1.414 . S
C3138 C3139 1.374 . S
C3139 H3119 0.950 . S
C3139 C3135 1.385 . S
C3139 C3138 1.374 . S
C3140 C3137 1.499 . S
C3140 C3141 1.373 . S
C3140 C3142 1.389 . S
C3141 H3120 0.950 . S
C3141 C3140 1.373 . S
C3141 C3157 1.377 . S
C3142 C3140 1.389 . S
C3142 C3143 1.524 . S
C3142 C3156 1.377 . S
C3143 C3142 1.524 . S
C3143 C3144 1.397 . S
C3143 C3148 1.363 . S
C3144 H3121 0.950 . S
C3144 C3143 1.397 . S
C3144 C3145 1.334 . S
C3145 H3122 0.950 . S
C3145 C3144 1.334 . S
C3145 C3146 1.287 . S
C3146 C3145 1.287 . S
C3146 C3147 1.524 . S
C3146 H3165 0.913 . S
C3147 H3123 0.950 . S
C3147 C3146 1.524 . S
C3147 C3148 1.415 . S
C3148 H3124 0.950 . S
C3148 C3143 1.363 . S
C3148 C3147 1.415 . S
C3149 H3125 0.951 . S
C3149 C3150 1.366 . S
C3149 C3151 1.388 . S
C3150 C3149 1.366 . S
C3150 C3154 1.385 . S
C3151 H3126 0.951 . S
C3151 C3149 1.388 . S
C3151 C3152 1.366 . S
C3152 C3151 1.366 . S
C3152 C3153 1.414 . S
C3152 C3155 1.499 . S
C3153 H3127 0.950 . S
C3153 C3152 1.414 . S
C3153 C3154 1.374 . S
C3154 H3128 0.950 . S
C3154 C3150 1.385 . S
C3154 C3153 1.374 . S
C3155 C3152 1.499 . S
C3155 C3156 1.373 . S
C3155 C3157 1.389 . S
C3156 H3129 0.950 . S
C3156 C3142 1.377 . S
C3156 C3155 1.373 . S
C3157 C3141 1.377 . S
C3157 C3155 1.389 . S
C3157 C3158 1.524 . S
C3158 C3157 1.524 . S
C3158 C3159 1.397 . S
C3158 C3163 1.363 . S
C3159 H3130 0.950 . S
C3159 C3158 1.397 . S
C3159 C3160 1.334 . S
C3160 H3131 0.950 . S
C3160 C3159 1.334 . S
C3160 C3161 1.287 . S
C3161 C3160 1.287 . S
C3161 C3162 1.524 . S
C3161 H3164 0.999 . S
C3162 H3132 0.950 . S
C3162 C3161 1.524 . S
C3162 C3163 1.415 . S
C3163 H3133 0.950 . S
C3163 C3158 1.363 . S
C3163 C3162 1.415 . S
H3164 C3161 0.999 . S
H3165 C3146 0.913 . S
H3166 C3184 0.951 . S
H3167 C3186 0.951 . S
H3168 C3188 0.950 . S
H3169 C3189 0.950 . S
H3170 C3191 0.950 . S
H3171 C3194 0.950 . S
H3172 C3195 0.950 . S
H3173 C3197 0.950 . S
H3174 C3198 0.950 . S
H3175 C3199 0.951 . S
H3176 C3201 0.951 . S
H3177 C3203 0.950 . S
H3178 C3204 0.950 . S
H3179 C3206 0.950 . S
H3180 C3209 0.950 . S
H3181 C3210 0.950 . S
H3182 C3212 0.950 . S
H3183 C3213 0.950 . S
C3184 H3166 0.951 . S
C3184 C3185 1.366 . S
C3184 C3186 1.388 . S
C3185 C3184 1.366 . S
C3185 C3189 1.385 . S
C3186 H3167 0.951 . S
C3186 C3184 1.388 . S
C3186 C3187 1.366 . S
C3187 C3186 1.366 . S
C3187 C3188 1.414 . S
C3187 C3190 1.499 . S
C3188 H3168 0.950 . S
C3188 C3187 1.414 . S
C3188 C3189 1.374 . S
C3189 H3169 0.950 . S
C3189 C3185 1.385 . S
C3189 C3188 1.374 . S
C3190 C3187 1.499 . S
C3190 C3191 1.373 . S
C3190 C3192 1.389 . S
C3191 H3170 0.950 . S
C3191 C3190 1.373 . S
C3191 C3207 1.377 . S
C3192 C3190 1.389 . S
C3192 C3193 1.524 . S
C3192 C3206 1.377 . S
C3193 C3192 1.524 . S
C3193 C3194 1.397 . S
C3193 C3198 1.363 . S
C3194 H3171 0.950 . S
C3194 C3193 1.397 . S
C3194 C3195 1.334 . S
C3195 H3172 0.950 . S
C3195 C3194 1.334 . S
C3195 C3196 1.287 . S
C3196 C3195 1.287 . S
C3196 C3197 1.524 . S
C3196 H3215 0.913 . S
C3197 H3173 0.950 . S
C3197 C3196 1.524 . S
C3197 C3198 1.415 . S
C3198 H3174 0.950 . S
C3198 C3193 1.363 . S
C3198 C3197 1.415 . S
C3199 H3175 0.951 . S
C3199 C3200 1.366 . S
C3199 C3201 1.388 . S
C3200 C3199 1.366 . S
C3200 C3204 1.385 . S
C3201 H3176 0.951 . S
C3201 C3199 1.388 . S
C3201 C3202 1.366 . S
C3202 C3201 1.366 . S
C3202 C3203 1.414 . S
C3202 C3205 1.499 . S
C3203 H3177 0.950 . S
C3203 C3202 1.414 . S
C3203 C3204 1.374 . S
C3204 H3178 0.950 . S
C3204 C3200 1.385 . S
C3204 C3203 1.374 . S
C3205 C3202 1.499 . S
C3205 C3206 1.373 . S
C3205 C3207 1.389 . S
C3206 H3179 0.950 . S
C3206 C3192 1.377 . S
C3206 C3205 1.373 . S
C3207 C3191 1.377 . S
C3207 C3205 1.389 . S
C3207 C3208 1.524 . S
C3208 C3207 1.524 . S
C3208 C3209 1.397 . S
C3208 C3213 1.363 . S
C3209 H3180 0.950 . S
C3209 C3208 1.397 . S
C3209 C3210 1.334 . S
C3210 H3181 0.950 . S
C3210 C3209 1.334 . S
C3210 C3211 1.287 . S
C3211 C3210 1.287 . S
C3211 C3212 1.524 . S
C3211 H3214 0.999 . S
C3212 H3182 0.950 . S
C3212 C3211 1.524 . S
C3212 C3213 1.415 . S
C3213 H3183 0.950 . S
C3213 C3208 1.363 . S
C3213 C3212 1.415 . S
H3214 C3211 0.999 . S
H3215 C3196 0.913 . S
H3216 C3234 0.951 . S
H3217 C3236 0.951 . S
H3218 C3238 0.950 . S
H3219 C3239 0.950 . S
H3220 C3241 0.950 . S
H3221 C3244 0.950 . S
H3222 C3245 0.950 . S
H3223 C3247 0.950 . S
H3224 C3248 0.950 . S
H3225 C3249 0.951 . S
H3226 C3251 0.951 . S
H3227 C3253 0.950 . S
H3228 C3254 0.950 . S
H3229 C3256 0.950 . S
H3230 C3259 0.950 . S
H3231 C3260 0.950 . S
H3232 C3262 0.950 . S
H3233 C3263 0.950 . S
C3234 H3216 0.951 . S
C3234 C3235 1.366 . S
C3234 C3236 1.388 . S
C3235 C3234 1.366 . S
C3235 C3239 1.385 . S
C3236 H3217 0.951 . S
C3236 C3234 1.388 . S
C3236 C3237 1.366 . S
C3237 C3236 1.366 . S
C3237 C3238 1.414 . S
C3237 C3240 1.499 . S
C3238 H3218 0.950 . S
C3238 C3237 1.414 . S
C3238 C3239 1.374 . S
C3239 H3219 0.950 . S
C3239 C3235 1.385 . S
C3239 C3238 1.374 . S
C3240 C3237 1.499 . S
C3240 C3241 1.373 . S
C3240 C3242 1.389 . S
C3241 H3220 0.950 . S
C3241 C3240 1.373 . S
C3241 C3257 1.377 . S
C3242 C3240 1.389 . S
C3242 C3243 1.524 . S
C3242 C3256 1.377 . S
C3243 C3242 1.524 . S
C3243 C3244 1.397 . S
C3243 C3248 1.363 . S
C3244 H3221 0.950 . S
C3244 C3243 1.397 . S
C3244 C3245 1.334 . S
C3245 H3222 0.950 . S
C3245 C3244 1.334 . S
C3245 C3246 1.287 . S
C3246 C3245 1.287 . S
C3246 C3247 1.524 . S
C3246 H3265 0.913 . S
C3247 H3223 0.950 . S
C3247 C3246 1.524 . S
C3247 C3248 1.415 . S
C3248 H3224 0.950 . S
C3248 C3243 1.363 . S
C3248 C3247 1.415 . S
C3249 H3225 0.951 . S
C3249 C3250 1.366 . S
C3249 C3251 1.388 . S
C3250 C3249 1.366 . S
C3250 C3254 1.385 . S
C3251 H3226 0.951 . S
C3251 C3249 1.388 . S
C3251 C3252 1.366 . S
C3252 C3251 1.366 . S
C3252 C3253 1.414 . S
C3252 C3255 1.499 . S
C3253 H3227 0.950 . S
C3253 C3252 1.414 . S
C3253 C3254 1.374 . S
C3254 H3228 0.950 . S
C3254 C3250 1.385 . S
C3254 C3253 1.374 . S
C3255 C3252 1.499 . S
C3255 C3256 1.373 . S
C3255 C3257 1.389 . S
C3256 H3229 0.950 . S
C3256 C3242 1.377 . S
C3256 C3255 1.373 . S
C3257 C3241 1.377 . S
C3257 C3255 1.389 . S
C3257 C3258 1.524 . S
C3258 C3257 1.524 . S
C3258 C3259 1.397 . S
C3258 C3263 1.363 . S
C3259 H3230 0.950 . S
C3259 C3258 1.397 . S
C3259 C3260 1.334 . S
C3260 H3231 0.950 . S
C3260 C3259 1.334 . S
C3260 C3261 1.287 . S
C3261 C3260 1.287 . S
C3261 C3262 1.524 . S
C3261 H3264 0.999 . S
C3262 H3232 0.950 . S
C3262 C3261 1.524 . S
C3262 C3263 1.415 . S
C3263 H3233 0.950 . S
C3263 C3258 1.363 . S
C3263 C3262 1.415 . S
H3264 C3261 0.999 . S
H3265 C3246 0.913 . S
H3266 C3284 0.951 . S
H3267 C3286 0.951 . S
H3268 C3288 0.950 . S
H3269 C3289 0.950 . S
H3270 C3291 0.950 . S
H3271 C3294 0.950 . S
H3272 C3295 0.950 . S
H3273 C3297 0.950 . S
H3274 C3298 0.950 . S
H3275 C3299 0.951 . S
H3276 C3301 0.951 . S
H3277 C3303 0.950 . S
H3278 C3304 0.950 . S
H3279 C3306 0.950 . S
H3280 C3309 0.950 . S
H3281 C3310 0.950 . S
H3282 C3312 0.950 . S
H3283 C3313 0.950 . S
C3284 H3266 0.951 . S
C3284 C3285 1.366 . S
C3284 C3286 1.388 . S
C3285 C3284 1.366 . S
C3285 C3289 1.385 . S
C3286 H3267 0.951 . S
C3286 C3284 1.388 . S
C3286 C3287 1.366 . S
C3287 C3286 1.366 . S
C3287 C3288 1.414 . S
C3287 C3290 1.499 . S
C3288 H3268 0.950 . S
C3288 C3287 1.414 . S
C3288 C3289 1.374 . S
C3289 H3269 0.950 . S
C3289 C3285 1.385 . S
C3289 C3288 1.374 . S
C3290 C3287 1.499 . S
C3290 C3291 1.373 . S
C3290 C3292 1.389 . S
C3291 H3270 0.950 . S
C3291 C3290 1.373 . S
C3291 C3307 1.377 . S
C3292 C3290 1.389 . S
C3292 C3293 1.524 . S
C3292 C3306 1.377 . S
C3293 C3292 1.524 . S
C3293 C3294 1.397 . S
C3293 C3298 1.363 . S
C3294 H3271 0.950 . S
C3294 C3293 1.397 . S
C3294 C3295 1.334 . S
C3295 H3272 0.950 . S
C3295 C3294 1.334 . S
C3295 C3296 1.287 . S
C3296 C3295 1.287 . S
C3296 C3297 1.524 . S
C3296 H3315 0.913 . S
C3297 H3273 0.950 . S
C3297 C3296 1.524 . S
C3297 C3298 1.415 . S
C3298 H3274 0.950 . S
C3298 C3293 1.363 . S
C3298 C3297 1.415 . S
C3299 H3275 0.951 . S
C3299 C3300 1.366 . S
C3299 C3301 1.388 . S
C3300 C3299 1.366 . S
C3300 C3304 1.385 . S
C3301 H3276 0.951 . S
C3301 C3299 1.388 . S
C3301 C3302 1.366 . S
C3302 C3301 1.366 . S
C3302 C3303 1.414 . S
C3302 C3305 1.499 . S
C3303 H3277 0.950 . S
C3303 C3302 1.414 . S
C3303 C3304 1.374 . S
C3304 H3278 0.950 . S
C3304 C3300 1.385 . S
C3304 C3303 1.374 . S
C3305 C3302 1.499 . S
C3305 C3306 1.373 . S
C3305 C3307 1.389 . S
C3306 H3279 0.950 . S
C3306 C3292 1.377 . S
C3306 C3305 1.373 . S
C3307 C3291 1.377 . S
C3307 C3305 1.389 . S
C3307 C3308 1.524 . S
C3308 C3307 1.524 . S
C3308 C3309 1.397 . S
C3308 C3313 1.363 . S
C3309 H3280 0.950 . S
C3309 C3308 1.397 . S
C3309 C3310 1.334 . S
C3310 H3281 0.950 . S
C3310 C3309 1.334 . S
C3310 C3311 1.287 . S
C3311 C3310 1.287 . S
C3311 C3312 1.524 . S
C3311 H3314 0.999 . S
C3312 H3282 0.950 . S
C3312 C3311 1.524 . S
C3312 C3313 1.415 . S
C3313 H3283 0.950 . S
C3313 C3308 1.363 . S
C3313 C3312 1.415 . S
H3314 C3311 0.999 . S
H3315 C3296 0.913 . S
H3316 C3334 0.951 . S
H3317 C3336 0.951 . S
H3318 C3338 0.950 . S
H3319 C3339 0.950 . S
H3320 C3341 0.950 1_655 S
H3321 C3344 0.950 . S
H3322 C3345 0.950 . S
H3323 C3347 0.950 . S
H3324 C3348 0.950 . S
H3325 C3349 0.951 . S
H3326 C3351 0.951 . S
H3327 C3353 0.950 . S
H3328 C3354 0.950 . S
H3329 C3356 0.950 . S
H3330 C3359 0.950 . S
H3331 C3360 0.950 . S
H3332 C3362 0.950 . S
H3333 C3363 0.950 . S
C3334 H3316 0.951 . S
C3334 C3335 1.366 . S
C3334 C3336 1.388 . S
C3335 C3334 1.366 . S
C3335 C3339 1.385 . S
C3336 H3317 0.951 . S
C3336 C3334 1.388 . S
C3336 C3337 1.366 . S
C3337 C3336 1.366 . S
C3337 C3338 1.414 . S
C3337 C3340 1.499 . S
C3338 H3318 0.950 . S
C3338 C3337 1.414 . S
C3338 C3339 1.374 . S
C3339 H3319 0.950 . S
C3339 C3335 1.385 . S
C3339 C3338 1.374 . S
C3340 C3337 1.499 . S
C3340 C3341 1.373 . S
C3340 C3342 1.389 . S
C3341 H3320 0.950 1_455 S
C3341 C3340 1.373 . S
C3341 C3357 1.377 . S
C3342 C3340 1.389 . S
C3342 C3343 1.524 . S
C3342 C3356 1.377 . S
C3343 C3342 1.524 . S
C3343 C3344 1.397 . S
C3343 C3348 1.363 . S
C3344 H3321 0.950 . S
C3344 C3343 1.397 . S
C3344 C3345 1.334 . S
C3345 H3322 0.950 . S
C3345 C3344 1.334 . S
C3345 C3346 1.287 . S
C3346 C3345 1.287 . S
C3346 C3347 1.524 . S
C3346 H3365 0.913 . S
C3347 H3323 0.950 . S
C3347 C3346 1.524 . S
C3347 C3348 1.415 . S
C3348 H3324 0.950 . S
C3348 C3343 1.363 . S
C3348 C3347 1.415 . S
C3349 H3325 0.951 . S
C3349 C3350 1.366 . S
C3349 C3351 1.388 . S
C3350 C3349 1.366 . S
C3350 C3354 1.385 . S
C3351 H3326 0.951 . S
C3351 C3349 1.388 . S
C3351 C3352 1.366 . S
C3352 C3351 1.366 . S
C3352 C3353 1.414 . S
C3352 C3355 1.499 . S
C3353 H3327 0.950 . S
C3353 C3352 1.414 . S
C3353 C3354 1.374 . S
C3354 H3328 0.950 . S
C3354 C3350 1.385 . S
C3354 C3353 1.374 . S
C3355 C3352 1.499 . S
C3355 C3356 1.373 . S
C3355 C3357 1.389 . S
C3356 H3329 0.950 . S
C3356 C3342 1.377 . S
C3356 C3355 1.373 . S
C3357 C3341 1.377 . S
C3357 C3355 1.389 . S
C3357 C3358 1.524 1_455 S
C3358 C3357 1.524 1_655 S
C3358 C3359 1.397 . S
C3358 C3363 1.363 . S
C3359 H3330 0.950 . S
C3359 C3358 1.397 . S
C3359 C3360 1.334 . S
C3360 H3331 0.950 . S
C3360 C3359 1.334 . S
C3360 C3361 1.287 . S
C3361 C3360 1.287 . S
C3361 C3362 1.524 . S
C3361 H3364 0.999 . S
C3362 H3332 0.950 . S
C3362 C3361 1.524 . S
C3362 C3363 1.415 . S
C3363 H3333 0.950 . S
C3363 C3358 1.363 . S
C3363 C3362 1.415 . S
H3364 C3361 0.999 . S
H3365 C3346 0.913 . S
H3366 C3384 0.951 . S
H3367 C3386 0.951 . S
H3368 C3388 0.950 . S
H3369 C3389 0.950 1_455 S
H3370 C3391 0.950 . S
H3371 C3394 0.950 . S
H3372 C3395 0.950 . S
H3373 C3397 0.950 . S
H3374 C3398 0.950 . S
H3375 C3399 0.951 . S
H3376 C3401 0.951 . S
H3377 C3403 0.950 . S
H3378 C3404 0.950 . S
H3379 C3406 0.950 . S
H3380 C3409 0.950 . S
H3381 C3410 0.950 . S
H3382 C3412 0.950 . S
H3383 C3413 0.950 . S
C3384 H3366 0.951 . S
C3384 C3385 1.366 . S
C3384 C3386 1.388 . S
C3385 C3384 1.366 . S
C3385 C3389 1.385 . S
C3386 H3367 0.951 . S
C3386 C3384 1.388 . S
C3386 C3387 1.366 . S
C3387 C3386 1.366 . S
C3387 C3388 1.414 . S
C3387 C3390 1.499 . S
C3388 H3368 0.950 . S
C3388 C3387 1.414 . S
C3388 C3389 1.374 . S
C3389 H3369 0.950 1_655 S
C3389 C3385 1.385 . S
C3389 C3388 1.374 . S
C3390 C3387 1.499 . S
C3390 C3391 1.373 . S
C3390 C3392 1.389 . S
C3391 H3370 0.950 . S
C3391 C3390 1.373 . S
C3391 C3407 1.377 . S
C3392 C3390 1.389 . S
C3392 C3393 1.524 . S
C3392 C3406 1.377 . S
C3393 C3392 1.524 . S
C3393 C3394 1.397 . S
C3393 C3398 1.363 . S
C3394 H3371 0.950 . S
C3394 C3393 1.397 . S
C3394 C3395 1.334 . S
C3395 H3372 0.950 . S
C3395 C3394 1.334 . S
C3395 C3396 1.287 . S
C3396 C3395 1.287 . S
C3396 C3397 1.524 . S
C3396 H3415 0.913 . S
C3397 H3373 0.950 . S
C3397 C3396 1.524 . S
C3397 C3398 1.415 . S
C3398 H3374 0.950 . S
C3398 C3393 1.363 . S
C3398 C3397 1.415 . S
C3399 H3375 0.951 . S
C3399 C3400 1.366 . S
C3399 C3401 1.388 . S
C3400 C3399 1.366 . S
C3400 C3404 1.385 . S
C3401 H3376 0.951 . S
C3401 C3399 1.388 . S
C3401 C3402 1.366 . S
C3402 C3401 1.366 . S
C3402 C3403 1.414 . S
C3402 C3405 1.499 . S
C3403 H3377 0.950 . S
C3403 C3402 1.414 . S
C3403 C3404 1.374 . S
C3404 H3378 0.950 . S
C3404 C3400 1.385 . S
C3404 C3403 1.374 . S
C3405 C3402 1.499 . S
C3405 C3406 1.373 . S
C3405 C3407 1.389 . S
C3406 H3379 0.950 . S
C3406 C3392 1.377 . S
C3406 C3405 1.373 . S
C3407 C3391 1.377 . S
C3407 C3405 1.389 . S
C3407 C3408 1.524 . S
C3408 C3407 1.524 . S
C3408 C3409 1.397 . S
C3408 C3413 1.363 . S
C3409 H3380 0.950 . S
C3409 C3408 1.397 . S
C3409 C3410 1.334 . S
C3410 H3381 0.950 . S
C3410 C3409 1.334 . S
C3410 C3411 1.287 . S
C3411 C3410 1.287 . S
C3411 C3412 1.524 . S
C3411 H3414 0.999 . S
C3412 H3382 0.950 . S
C3412 C3411 1.524 . S
C3412 C3413 1.415 . S
C3413 H3383 0.950 . S
C3413 C3408 1.363 . S
C3413 C3412 1.415 . S
H3414 C3411 0.999 . S
H3415 C3396 0.913 . S
H3416 C3434 0.951 . S
H3417 C3436 0.951 . S
H3418 C3438 0.950 . S
H3419 C3439 0.950 . S
H3420 C3441 0.950 . S
H3421 C3444 0.950 . S
H3422 C3445 0.950 . S
H3423 C3447 0.950 . S
H3424 C3448 0.950 . S
H3425 C3449 0.951 . S
H3426 C3451 0.951 . S
H3427 C3453 0.950 . S
H3428 C3454 0.950 . S
H3429 C3456 0.950 . S
H3430 C3459 0.950 . S
H3431 C3460 0.950 1_554 S
H3432 C3462 0.950 . S
H3433 C3463 0.950 . S
C3434 H3416 0.951 . S
C3434 C3435 1.366 . S
C3434 C3436 1.388 . S
C3435 C3434 1.366 . S
C3435 C3439 1.385 . S
C3436 H3417 0.951 . S
C3436 C3434 1.388 . S
C3436 C3437 1.366 . S
C3437 C3436 1.366 . S
C3437 C3438 1.414 . S
C3437 C3440 1.499 . S
C3438 H3418 0.950 . S
C3438 C3437 1.414 . S
C3438 C3439 1.374 . S
C3439 H3419 0.950 . S
C3439 C3435 1.385 . S
C3439 C3438 1.374 . S
C3440 C3437 1.499 . S
C3440 C3441 1.373 . S
C3440 C3442 1.389 . S
C3441 H3420 0.950 . S
C3441 C3440 1.373 . S
C3441 C3457 1.377 . S
C3442 C3440 1.389 . S
C3442 C3443 1.524 . S
C3442 C3456 1.377 . S
C3443 C3442 1.524 . S
C3443 C3444 1.397 . S
C3443 C3448 1.363 . S
C3444 H3421 0.950 . S
C3444 C3443 1.397 . S
C3444 C3445 1.334 . S
C3445 H3422 0.950 . S
C3445 C3444 1.334 . S
C3445 C3446 1.287 . S
C3446 C3445 1.287 . S
C3446 C3447 1.524 . S
C3446 H3465 0.913 . S
C3447 H3423 0.950 . S
C3447 C3446 1.524 . S
C3447 C3448 1.415 . S
C3448 H3424 0.950 . S
C3448 C3443 1.363 . S
C3448 C3447 1.415 . S
C3449 H3425 0.951 . S
C3449 C3450 1.366 . S
C3449 C3451 1.388 . S
C3450 C3449 1.366 . S
C3450 C3454 1.385 1_556 S
C3451 H3426 0.951 . S
C3451 C3449 1.388 . S
C3451 C3452 1.366 . S
C3452 C3451 1.366 . S
C3452 C3453 1.414 . S
C3452 C3455 1.499 . S
C3453 H3427 0.950 . S
C3453 C3452 1.414 . S
C3453 C3454 1.374 1_556 S
C3454 H3428 0.950 . S
C3454 C3450 1.385 1_554 S
C3454 C3453 1.374 1_554 S
C3455 C3452 1.499 . S
C3455 C3456 1.373 . S
C3455 C3457 1.389 . S
C3456 H3429 0.950 . S
C3456 C3442 1.377 . S
C3456 C3455 1.373 . S
C3457 C3441 1.377 . S
C3457 C3455 1.389 . S
C3457 C3458 1.524 . S
C3458 C3457 1.524 . S
C3458 C3459 1.397 . S
C3458 C3463 1.363 . S
C3459 H3430 0.950 . S
C3459 C3458 1.397 . S
C3459 C3460 1.334 . S
C3460 H3431 0.950 1_556 S
C3460 C3459 1.334 . S
C3460 C3461 1.287 . S
C3461 C3460 1.287 . S
C3461 C3462 1.524 . S
C3461 H3464 0.999 . S
C3462 H3432 0.950 . S
C3462 C3461 1.524 . S
C3462 C3463 1.415 . S
C3463 H3433 0.950 . S
C3463 C3458 1.363 . S
C3463 C3462 1.415 . S
H3464 C3461 0.999 . S
H3465 C3446 0.913 . S
H3466 C3484 0.951 . S
H3467 C3486 0.951 . S
H3468 C3488 0.950 . S
H3469 C3489 0.950 . S
H3470 C3491 0.950 . S
H3471 C3494 0.950 . S
H3472 C3495 0.950 . S
H3473 C3497 0.950 . S
H3474 C3498 0.950 . S
H3475 C3499 0.951 . S
H3476 C3501 0.951 . S
H3477 C3503 0.950 . S
H3478 C3504 0.950 . S
H3479 C3506 0.950 . S
H3480 C3509 0.950 . S
H3481 C3510 0.950 . S
H3482 C3512 0.950 . S
H3483 C3513 0.950 . S
C3484 H3466 0.951 . S
C3484 C3485 1.366 . S
C3484 C3486 1.388 . S
C3485 C3484 1.366 . S
C3485 C3489 1.385 . S
C3486 H3467 0.951 . S
C3486 C3484 1.388 . S
C3486 C3487 1.366 . S
C3487 C3486 1.366 . S
C3487 C3488 1.414 . S
C3487 C3490 1.499 . S
C3488 H3468 0.950 . S
C3488 C3487 1.414 . S
C3488 C3489 1.374 . S
C3489 H3469 0.950 . S
C3489 C3485 1.385 . S
C3489 C3488 1.374 . S
C3490 C3487 1.499 . S
C3490 C3491 1.373 . S
C3490 C3492 1.389 . S
C3491 H3470 0.950 . S
C3491 C3490 1.373 . S
C3491 C3507 1.377 . S
C3492 C3490 1.389 . S
C3492 C3493 1.524 . S
C3492 C3506 1.377 . S
C3493 C3492 1.524 . S
C3493 C3494 1.397 . S
C3493 C3498 1.363 . S
C3494 H3471 0.950 . S
C3494 C3493 1.397 . S
C3494 C3495 1.334 . S
C3495 H3472 0.950 . S
C3495 C3494 1.334 . S
C3495 C3496 1.287 . S
C3496 C3495 1.287 . S
C3496 C3497 1.524 . S
C3496 H3515 0.913 . S
C3497 H3473 0.950 . S
C3497 C3496 1.524 . S
C3497 C3498 1.415 . S
C3498 H3474 0.950 . S
C3498 C3493 1.363 . S
C3498 C3497 1.415 . S
C3499 H3475 0.951 . S
C3499 C3500 1.366 . S
C3499 C3501 1.388 . S
C3500 C3499 1.366 . S
C3500 C3504 1.385 . S
C3501 H3476 0.951 . S
C3501 C3499 1.388 . S
C3501 C3502 1.366 . S
C3502 C3501 1.366 . S
C3502 C3503 1.414 . S
C3502 C3505 1.499 . S
C3503 H3477 0.950 . S
C3503 C3502 1.414 . S
C3503 C3504 1.374 . S
C3504 H3478 0.950 . S
C3504 C3500 1.385 . S
C3504 C3503 1.374 . S
C3505 C3502 1.499 . S
C3505 C3506 1.373 . S
C3505 C3507 1.389 . S
C3506 H3479 0.950 . S
C3506 C3492 1.377 . S
C3506 C3505 1.373 . S
C3507 C3491 1.377 . S
C3507 C3505 1.389 . S
C3507 C3508 1.524 . S
C3508 C3507 1.524 . S
C3508 C3509 1.397 . S
C3508 C3513 1.363 . S
C3509 H3480 0.950 . S
C3509 C3508 1.397 . S
C3509 C3510 1.334 . S
C3510 H3481 0.950 . S
C3510 C3509 1.334 . S
C3510 C3511 1.287 . S
C3511 C3510 1.287 . S
C3511 C3512 1.524 . S
C3511 H3514 0.999 . S
C3512 H3482 0.950 . S
C3512 C3511 1.524 . S
C3512 C3513 1.415 . S
C3513 H3483 0.950 . S
C3513 C3508 1.363 . S
C3513 C3512 1.415 . S
H3514 C3511 0.999 . S
H3515 C3496 0.913 . S
H3516 C3534 0.951 . S
H3517 C3536 0.951 . S
H3518 C3538 0.950 . S
H3519 C3539 0.950 . S
H3520 C3541 0.950 . S
H3521 C3544 0.948 . S
H3522 C3545 0.950 . S
H3523 C3547 0.950 . S
H3524 C3548 0.950 . S
H3525 C3549 0.951 . S
H3526 C3551 0.951 . S
H3527 C3553 0.950 . S
H3528 C3554 0.950 . S
H3529 C3556 0.950 . S
H3530 C3559 0.950 . S
H3531 C3560 0.950 . S
H3532 C3562 0.950 . S
H3533 C3563 0.950 . S
C3534 H3516 0.951 . S
C3534 C3535 1.366 . S
C3534 C3536 1.388 . S
C3535 C3534 1.366 . S
C3535 C3539 1.385 . S
C3536 H3517 0.951 . S
C3536 C3534 1.388 . S
C3536 C3537 1.366 . S
C3537 C3536 1.366 . S
C3537 C3538 1.414 . S
C3537 C3540 1.499 . S
C3538 H3518 0.950 . S
C3538 C3537 1.414 . S
C3538 C3539 1.374 . S
C3539 H3519 0.950 . S
C3539 C3535 1.385 . S
C3539 C3538 1.374 . S
C3540 C3537 1.499 . S
C3540 C3541 1.373 . S
C3540 C3542 1.389 . S
C3541 H3520 0.950 . S
C3541 C3540 1.373 . S
C3541 C3557 1.377 . S
C3542 C3540 1.389 . S
C3542 C3543 1.524 . S
C3542 C3556 1.377 . S
C3543 C3542 1.524 . S
C3543 C3544 1.397 1_455 S
C3543 C3548 1.363 1_455 S
C3544 H3521 0.948 . S
C3544 C3543 1.397 1_655 S
C3544 C3545 1.334 . S
C3545 H3522 0.950 . S
C3545 C3544 1.334 . S
C3545 C3546 1.287 . S
C3546 C3545 1.287 . S
C3546 C3547 1.524 . S
C3546 H3565 0.913 . S
C3547 H3523 0.950 . S
C3547 C3546 1.524 . S
C3547 C3548 1.415 . S
C3548 H3524 0.950 . S
C3548 C3543 1.363 1_655 S
C3548 C3547 1.415 . S
C3549 H3525 0.951 . S
C3549 C3550 1.366 . S
C3549 C3551 1.388 . S
C3550 C3549 1.366 . S
C3550 C3554 1.385 . S
C3551 H3526 0.951 . S
C3551 C3549 1.388 . S
C3551 C3552 1.366 . S
C3552 C3551 1.366 . S
C3552 C3553 1.414 . S
C3552 C3555 1.499 . S
C3553 H3527 0.950 . S
C3553 C3552 1.414 . S
C3553 C3554 1.374 . S
C3554 H3528 0.950 . S
C3554 C3550 1.385 . S
C3554 C3553 1.374 . S
C3555 C3552 1.499 . S
C3555 C3556 1.373 . S
C3555 C3557 1.389 . S
C3556 H3529 0.950 . S
C3556 C3542 1.377 . S
C3556 C3555 1.373 . S
C3557 C3541 1.377 . S
C3557 C3555 1.389 . S
C3557 C3558 1.524 . S
C3558 C3557 1.524 . S
C3558 C3559 1.397 . S
C3558 C3563 1.363 . S
C3559 H3530 0.950 . S
C3559 C3558 1.397 . S
C3559 C3560 1.334 . S
C3560 H3531 0.950 . S
C3560 C3559 1.334 . S
C3560 C3561 1.287 . S
C3561 C3560 1.287 . S
C3561 C3562 1.524 . S
C3561 H3564 0.999 . S
C3562 H3532 0.950 . S
C3562 C3561 1.524 . S
C3562 C3563 1.415 . S
C3563 H3533 0.950 . S
C3563 C3558 1.363 . S
C3563 C3562 1.415 . S
H3564 C3561 0.999 . S
H3565 C3546 0.913 . S
H3566 C3584 0.951 . S
H3567 C3586 0.951 . S
H3568 C3588 0.950 . S
H3569 C3589 0.950 . S
H3570 C3591 0.950 . S
H3571 C3594 0.950 . S
H3572 C3595 0.950 . S
H3573 C3597 0.950 . S
H3574 C3598 0.950 . S
H3575 C3599 0.951 . S
H3576 C3601 0.951 . S
H3577 C3603 0.950 . S
H3578 C3604 0.950 . S
H3579 C3606 0.950 . S
H3580 C3609 0.950 . S
H3581 C3610 0.950 . S
H3582 C3612 0.950 . S
H3583 C3613 0.950 . S
C3584 H3566 0.951 . S
C3584 C3585 1.366 . S
C3584 C3586 1.388 . S
C3585 C3584 1.366 . S
C3585 C3589 1.385 . S
C3586 H3567 0.951 . S
C3586 C3584 1.388 . S
C3586 C3587 1.366 . S
C3587 C3586 1.366 . S
C3587 C3588 1.414 . S
C3587 C3590 1.499 . S
C3588 H3568 0.950 . S
C3588 C3587 1.414 . S
C3588 C3589 1.374 . S
C3589 H3569 0.950 . S
C3589 C3585 1.385 . S
C3589 C3588 1.374 . S
C3590 C3587 1.499 . S
C3590 C3591 1.373 . S
C3590 C3592 1.389 . S
C3591 H3570 0.950 . S
C3591 C3590 1.373 . S
C3591 C3607 1.377 . S
C3592 C3590 1.389 . S
C3592 C3593 1.524 . S
C3592 C3606 1.377 . S
C3593 C3592 1.524 . S
C3593 C3594 1.397 . S
C3593 C3598 1.363 . S
C3594 H3571 0.950 . S
C3594 C3593 1.397 . S
C3594 C3595 1.334 . S
C3595 H3572 0.950 . S
C3595 C3594 1.334 . S
C3595 C3596 1.287 . S
C3596 C3595 1.287 . S
C3596 C3597 1.524 . S
C3596 H3615 0.913 . S
C3597 H3573 0.950 . S
C3597 C3596 1.524 . S
C3597 C3598 1.415 . S
C3598 H3574 0.950 . S
C3598 C3593 1.363 . S
C3598 C3597 1.415 . S
C3599 H3575 0.951 . S
C3599 C3600 1.366 . S
C3599 C3601 1.388 . S
C3600 C3599 1.366 . S
C3600 C3604 1.385 . S
C3601 H3576 0.951 . S
C3601 C3599 1.388 . S
C3601 C3602 1.366 . S
C3602 C3601 1.366 . S
C3602 C3603 1.414 . S
C3602 C3605 1.499 . S
C3603 H3577 0.950 . S
C3603 C3602 1.414 . S
C3603 C3604 1.374 . S
C3604 H3578 0.950 . S
C3604 C3600 1.385 . S
C3604 C3603 1.374 . S
C3605 C3602 1.499 . S
C3605 C3606 1.373 . S
C3605 C3607 1.389 . S
C3606 H3579 0.950 . S
C3606 C3592 1.377 . S
C3606 C3605 1.373 . S
C3607 C3591 1.377 . S
C3607 C3605 1.389 . S
C3607 C3608 1.524 . S
C3608 C3607 1.524 . S
C3608 C3609 1.397 . S
C3608 C3613 1.363 . S
C3609 H3580 0.950 . S
C3609 C3608 1.397 . S
C3609 C3610 1.334 . S
C3610 H3581 0.950 . S
C3610 C3609 1.334 . S
C3610 C3611 1.287 . S
C3611 C3610 1.287 . S
C3611 C3612 1.524 . S
C3611 H3614 0.999 . S
C3612 H3582 0.950 . S
C3612 C3611 1.524 . S
C3612 C3613 1.415 . S
C3613 H3583 0.950 . S
C3613 C3608 1.363 . S
C3613 C3612 1.415 . S
H3614 C3611 0.999 . S
H3615 C3596 0.913 . S
H3616 C3634 0.951 . S
H3617 C3636 0.951 . S
H3618 C3638 0.950 . S
H3619 C3639 0.950 . S
H3620 C3641 0.950 . S
H3621 C3644 0.950 . S
H3622 C3645 0.950 . S
H3623 C3647 0.950 . S
H3624 C3648 0.950 . S
H3625 C3649 0.951 . S
H3626 C3651 0.951 . S
H3627 C3653 0.950 . S
H3628 C3654 0.950 . S
H3629 C3656 0.950 . S
H3630 C3659 0.950 . S
H3631 C3660 0.950 . S
H3632 C3662 0.950 . S
H3633 C3663 0.950 . S
C3634 H3616 0.951 . S
C3634 C3635 1.366 . S
C3634 C3636 1.388 . S
C3635 C3634 1.366 . S
C3635 C3639 1.385 . S
C3636 H3617 0.951 . S
C3636 C3634 1.388 . S
C3636 C3637 1.366 . S
C3637 C3636 1.366 . S
C3637 C3638 1.414 . S
C3637 C3640 1.499 . S
C3638 H3618 0.950 . S
C3638 C3637 1.414 . S
C3638 C3639 1.374 . S
C3639 H3619 0.950 . S
C3639 C3635 1.385 . S
C3639 C3638 1.374 . S
C3640 C3637 1.499 . S
C3640 C3641 1.373 . S
C3640 C3642 1.389 . S
C3641 H3620 0.950 . S
C3641 C3640 1.373 . S
C3641 C3657 1.377 . S
C3642 C3640 1.389 . S
C3642 C3643 1.524 . S
C3642 C3656 1.377 . S
C3643 C3642 1.524 . S
C3643 C3644 1.397 . S
C3643 C3648 1.363 . S
C3644 H3621 0.950 . S
C3644 C3643 1.397 . S
C3644 C3645 1.334 . S
C3645 H3622 0.950 . S
C3645 C3644 1.334 . S
C3645 C3646 1.287 . S
C3646 C3645 1.287 . S
C3646 C3647 1.524 . S
C3646 H3665 0.913 . S
C3647 H3623 0.950 . S
C3647 C3646 1.524 . S
C3647 C3648 1.415 . S
C3648 H3624 0.950 . S
C3648 C3643 1.363 . S
C3648 C3647 1.415 . S
C3649 H3625 0.951 . S
C3649 C3650 1.366 . S
C3649 C3651 1.388 . S
C3650 C3649 1.366 . S
C3650 C3654 1.385 . S
C3651 H3626 0.951 . S
C3651 C3649 1.388 . S
C3651 C3652 1.366 . S
C3652 C3651 1.366 . S
C3652 C3653 1.414 . S
C3652 C3655 1.499 . S
C3653 H3627 0.950 . S
C3653 C3652 1.414 . S
C3653 C3654 1.374 . S
C3654 H3628 0.950 . S
C3654 C3650 1.385 . S
C3654 C3653 1.374 . S
C3655 C3652 1.499 . S
C3655 C3656 1.373 . S
C3655 C3657 1.389 . S
C3656 H3629 0.950 . S
C3656 C3642 1.377 . S
C3656 C3655 1.373 . S
C3657 C3641 1.377 . S
C3657 C3655 1.389 . S
C3657 C3658 1.524 . S
C3658 C3657 1.524 . S
C3658 C3659 1.397 . S
C3658 C3663 1.363 . S
C3659 H3630 0.950 . S
C3659 C3658 1.397 . S
C3659 C3660 1.334 . S
C3660 H3631 0.950 . S
C3660 C3659 1.334 . S
C3660 C3661 1.287 . S
C3661 C3660 1.287 . S
C3661 C3662 1.524 . S
C3661 H3664 0.999 . S
C3662 H3632 0.950 . S
C3662 C3661 1.524 . S
C3662 C3663 1.415 . S
C3663 H3633 0.950 . S
C3663 C3658 1.363 . S
C3663 C3662 1.415 . S
H3664 C3661 0.999 . S
H3665 C3646 0.913 . S
H3666 C3684 0.951 1_554 S
H3667 C3686 0.951 . S
H3668 C3688 0.950 . S
H3669 C3689 0.950 . S
H3670 C3691 0.950 . S
H3671 C3694 0.950 . S
H3672 C3695 0.950 . S
H3673 C3697 0.950 . S
H3674 C3698 0.950 . S
H3675 C3699 0.951 . S
H3676 C3701 0.951 . S
H3677 C3703 0.950 . S
H3678 C3704 0.950 . S
H3679 C3706 0.950 . S
H3680 C3709 0.950 . S
H3681 C3710 0.950 . S
H3682 C3712 0.950 . S
H3683 C3713 0.950 . S
C3684 H3666 0.951 1_556 S
C3684 C3685 1.366 . S
C3684 C3686 1.388 . S
C3685 C3684 1.366 . S
C3685 C3689 1.385 . S
C3686 H3667 0.951 . S
C3686 C3684 1.388 . S
C3686 C3687 1.366 . S
C3687 C3686 1.366 . S
C3687 C3688 1.414 . S
C3687 C3690 1.499 . S
C3688 H3668 0.950 . S
C3688 C3687 1.414 . S
C3688 C3689 1.374 . S
C3689 H3669 0.950 . S
C3689 C3685 1.385 . S
C3689 C3688 1.374 . S
C3690 C3687 1.499 . S
C3690 C3691 1.373 . S
C3690 C3692 1.389 . S
C3691 H3670 0.950 . S
C3691 C3690 1.373 . S
C3691 C3707 1.377 . S
C3692 C3690 1.389 . S
C3692 C3693 1.524 . S
C3692 C3706 1.377 . S
C3693 C3692 1.524 . S
C3693 C3694 1.397 . S
C3693 C3698 1.363 . S
C3694 H3671 0.950 . S
C3694 C3693 1.397 . S
C3694 C3695 1.334 . S
C3695 H3672 0.950 . S
C3695 C3694 1.334 . S
C3695 C3696 1.287 . S
C3696 C3695 1.287 . S
C3696 C3697 1.524 . S
C3696 H3715 0.913 . S
C3697 H3673 0.950 . S
C3697 C3696 1.524 . S
C3697 C3698 1.415 . S
C3698 H3674 0.950 . S
C3698 C3693 1.363 . S
C3698 C3697 1.415 . S
C3699 H3675 0.951 . S
C3699 C3700 1.366 . S
C3699 C3701 1.388 . S
C3700 C3699 1.366 . S
C3700 C3704 1.385 . S
C3701 H3676 0.951 . S
C3701 C3699 1.388 . S
C3701 C3702 1.366 . S
C3702 C3701 1.366 . S
C3702 C3703 1.414 . S
C3702 C3705 1.499 . S
C3703 H3677 0.950 . S
C3703 C3702 1.414 . S
C3703 C3704 1.374 . S
C3704 H3678 0.950 . S
C3704 C3700 1.385 . S
C3704 C3703 1.374 . S
C3705 C3702 1.499 . S
C3705 C3706 1.373 . S
C3705 C3707 1.389 . S
C3706 H3679 0.950 . S
C3706 C3692 1.377 . S
C3706 C3705 1.373 . S
C3707 C3691 1.377 . S
C3707 C3705 1.389 . S
C3707 C3708 1.524 . S
C3708 C3707 1.524 . S
C3708 C3709 1.397 . S
C3708 C3713 1.363 . S
C3709 H3680 0.950 . S
C3709 C3708 1.397 . S
C3709 C3710 1.334 . S
C3710 H3681 0.950 . S
C3710 C3709 1.334 . S
C3710 C3711 1.287 . S
C3711 C3710 1.287 . S
C3711 C3712 1.524 . S
C3711 H3714 0.999 . S
C3712 H3682 0.950 . S
C3712 C3711 1.524 . S
C3712 C3713 1.415 . S
C3713 H3683 0.950 . S
C3713 C3708 1.363 . S
C3713 C3712 1.415 . S
H3714 C3711 0.999 . S
H3715 C3696 0.913 . S
H3716 C3734 0.951 . S
H3717 C3736 0.951 . S
H3718 C3738 0.950 . S
H3719 C3739 0.950 . S
H3720 C3741 0.950 . S
H3721 C3744 0.950 . S
H3722 C3745 0.950 . S
H3723 C3747 0.950 . S
H3724 C3748 0.928 1_455 S
H3725 C3749 0.951 . S
H3726 C3751 0.951 . S
H3727 C3753 0.925 1_455 S
H3728 C3754 0.950 . S
H3729 C3756 0.950 . S
H3730 C3759 0.950 . S
H3731 C3760 0.950 . S
H3732 C3762 0.950 . S
H3733 C3763 0.950 . S
C3734 H3716 0.951 . S
C3734 C3735 1.366 . S
C3734 C3736 1.388 . S
C3735 C3734 1.366 . S
C3735 C3739 1.385 . S
C3736 H3717 0.951 . S
C3736 C3734 1.388 . S
C3736 C3737 1.366 . S
C3737 C3736 1.366 . S
C3737 C3738 1.414 . S
C3737 C3740 1.499 . S
C3738 H3718 0.950 . S
C3738 C3737 1.414 . S
C3738 C3739 1.374 . S
C3739 H3719 0.950 . S
C3739 C3735 1.385 . S
C3739 C3738 1.374 . S
C3740 C3737 1.499 . S
C3740 C3741 1.373 . S
C3740 C3742 1.389 . S
C3741 H3720 0.950 . S
C3741 C3740 1.373 . S
C3741 C3757 1.377 . S
C3742 C3740 1.389 . S
C3742 C3743 1.524 . S
C3742 C3756 1.377 . S
C3743 C3742 1.524 . S
C3743 C3744 1.397 . S
C3743 C3748 1.363 . S
C3744 H3721 0.950 . S
C3744 C3743 1.397 . S
C3744 C3745 1.334 . S
C3745 H3722 0.950 . S
C3745 C3744 1.334 . S
C3745 C3746 1.287 . S
C3746 C3745 1.287 . S
C3746 C3747 1.524 1_655 S
C3746 H3765 0.913 . S
C3747 H3723 0.950 . S
C3747 C3746 1.524 1_455 S
C3747 C3748 1.415 1_455 S
C3748 H3724 0.928 1_655 S
C3748 C3743 1.363 . S
C3748 C3747 1.415 1_655 S
C3749 H3725 0.951 . S
C3749 C3750 1.370 1_655 S
C3749 C3751 1.388 . S
C3750 C3749 1.370 1_455 S
C3750 C3754 1.383 . S
C3751 H3726 0.951 . S
C3751 C3749 1.388 . S
C3751 C3752 1.366 . S
C3752 C3751 1.366 . S
C3752 C3753 1.466 . S
C3752 C3755 1.499 . S
C3753 H3727 0.925 1_655 S
C3753 C3752 1.466 . S
C3753 C3754 1.349 1_655 S
C3754 H3728 0.950 . S
C3754 C3750 1.383 . S
C3754 C3753 1.349 1_455 S
C3755 C3752 1.499 . S
C3755 C3756 1.373 . S
C3755 C3757 1.389 . S
C3756 H3729 0.950 . S
C3756 C3742 1.377 . S
C3756 C3755 1.373 . S
C3757 C3741 1.377 . S
C3757 C3755 1.389 . S
C3757 C3758 1.524 . S
C3758 C3757 1.524 . S
C3758 C3759 1.397 . S
C3758 C3763 1.363 . S
C3759 H3730 0.950 . S
C3759 C3758 1.397 . S
C3759 C3760 1.334 . S
C3760 H3731 0.950 . S
C3760 C3759 1.334 . S
C3760 C3761 1.287 . S
C3761 C3760 1.287 . S
C3761 C3762 1.524 . S
C3761 H3764 0.999 . S
C3762 H3732 0.950 . S
C3762 C3761 1.524 . S
C3762 C3763 1.415 . S
C3763 H3733 0.950 . S
C3763 C3758 1.363 . S
C3763 C3762 1.415 . S
H3764 C3761 0.999 . S
H3765 C3746 0.913 . S
H3766 C3784 0.951 . S
H3767 C3786 0.951 . S
H3768 C3788 0.950 . S
H3769 C3789 0.950 . S
H3770 C3791 0.950 . S
H3771 C3794 0.950 . S
H3772 C3795 0.950 . S
H3773 C3797 0.950 . S
H3774 C3798 0.950 . S
H3775 C3799 0.951 . S
H3776 C3801 0.951 . S
H3777 C3803 0.950 . S
H3778 C3804 0.950 . S
H3779 C3806 0.950 . S
H3780 C3809 0.950 . S
H3781 C3810 0.950 . S
H3782 C3812 0.950 . S
H3783 C3813 0.950 . S
C3784 H3766 0.951 . S
C3784 C3785 1.366 . S
C3784 C3786 1.388 . S
C3785 C3784 1.366 . S
C3785 C3789 1.385 . S
C3786 H3767 0.951 . S
C3786 C3784 1.388 . S
C3786 C3787 1.366 . S
C3787 C3786 1.366 . S
C3787 C3788 1.414 . S
C3787 C3790 1.499 . S
C3788 H3768 0.950 . S
C3788 C3787 1.414 . S
C3788 C3789 1.374 . S
C3789 H3769 0.950 . S
C3789 C3785 1.385 . S
C3789 C3788 1.374 . S
C3790 C3787 1.499 . S
C3790 C3791 1.373 . S
C3790 C3792 1.389 . S
C3791 H3770 0.950 . S
C3791 C3790 1.373 . S
C3791 C3807 1.377 . S
C3792 C3790 1.389 . S
C3792 C3793 1.524 . S
C3792 C3806 1.377 . S
C3793 C3792 1.524 . S
C3793 C3794 1.397 . S
C3793 C3798 1.363 . S
C3794 H3771 0.950 . S
C3794 C3793 1.397 . S
C3794 C3795 1.334 . S
C3795 H3772 0.950 . S
C3795 C3794 1.334 . S
C3795 C3796 1.287 . S
C3796 C3795 1.287 . S
C3796 C3797 1.524 . S
C3796 H3815 0.913 . S
C3797 H3773 0.950 . S
C3797 C3796 1.524 . S
C3797 C3798 1.415 . S
C3798 H3774 0.950 . S
C3798 C3793 1.363 . S
C3798 C3797 1.415 . S
C3799 H3775 0.951 . S
C3799 C3800 1.366 . S
C3799 C3801 1.388 . S
C3800 C3799 1.366 . S
C3800 C3804 1.385 . S
C3801 H3776 0.951 . S
C3801 C3799 1.388 . S
C3801 C3802 1.366 . S
C3802 C3801 1.366 . S
C3802 C3803 1.414 . S
C3802 C3805 1.499 . S
C3803 H3777 0.950 . S
C3803 C3802 1.414 . S
C3803 C3804 1.374 . S
C3804 H3778 0.950 . S
C3804 C3800 1.385 . S
C3804 C3803 1.374 . S
C3805 C3802 1.499 . S
C3805 C3806 1.373 . S
C3805 C3807 1.389 . S
C3806 H3779 0.950 . S
C3806 C3792 1.377 . S
C3806 C3805 1.373 . S
C3807 C3791 1.377 . S
C3807 C3805 1.389 . S
C3807 C3808 1.524 . S
C3808 C3807 1.524 . S
C3808 C3809 1.397 . S
C3808 C3813 1.363 . S
C3809 H3780 0.950 . S
C3809 C3808 1.397 . S
C3809 C3810 1.334 . S
C3810 H3781 0.950 . S
C3810 C3809 1.334 . S
C3810 C3811 1.287 . S
C3811 C3810 1.287 . S
C3811 C3812 1.524 . S
C3811 H3814 0.999 . S
C3812 H3782 0.950 . S
C3812 C3811 1.524 . S
C3812 C3813 1.415 . S
C3813 H3783 0.950 . S
C3813 C3808 1.363 . S
C3813 C3812 1.415 . S
H3814 C3811 0.999 . S
H3815 C3796 0.913 . S
H3816 C3834 0.951 . S
H3817 C3836 0.951 . S
H3818 C3838 0.950 . S
H3819 C3839 0.950 . S
H3820 C3841 0.950 . S
H3821 C3844 0.950 . S
H3822 C3845 0.950 . S
H3823 C3847 0.950 . S
H3824 C3848 0.950 . S
H3825 C3849 0.951 . S
H3826 C3851 0.951 . S
H3827 C3853 0.950 . S
H3828 C3854 0.950 . S
H3829 C3856 0.950 . S
H3830 C3859 0.950 . S
H3831 C3860 0.950 . S
H3832 C3862 0.950 . S
H3833 C3863 0.950 . S
C3834 H3816 0.951 . S
C3834 C3835 1.366 . S
C3834 C3836 1.388 . S
C3835 C3834 1.366 . S
C3835 C3839 1.385 . S
C3836 H3817 0.951 . S
C3836 C3834 1.388 . S
C3836 C3837 1.366 . S
C3837 C3836 1.366 . S
C3837 C3838 1.414 . S
C3837 C3840 1.499 . S
C3838 H3818 0.950 . S
C3838 C3837 1.414 . S
C3838 C3839 1.374 . S
C3839 H3819 0.950 . S
C3839 C3835 1.385 . S
C3839 C3838 1.374 . S
C3840 C3837 1.499 . S
C3840 C3841 1.373 . S
C3840 C3842 1.389 . S
C3841 H3820 0.950 . S
C3841 C3840 1.373 . S
C3841 C3857 1.377 . S
C3842 C3840 1.389 . S
C3842 C3843 1.524 . S
C3842 C3856 1.377 . S
C3843 C3842 1.524 . S
C3843 C3844 1.397 . S
C3843 C3848 1.363 . S
C3844 H3821 0.950 . S
C3844 C3843 1.397 . S
C3844 C3845 1.334 . S
C3845 H3822 0.950 . S
C3845 C3844 1.334 . S
C3845 C3846 1.287 . S
C3846 C3845 1.287 . S
C3846 C3847 1.524 . S
C3846 H3865 0.913 . S
C3847 H3823 0.950 . S
C3847 C3846 1.524 . S
C3847 C3848 1.415 . S
C3848 H3824 0.950 . S
C3848 C3843 1.363 . S
C3848 C3847 1.415 . S
C3849 H3825 0.951 . S
C3849 C3850 1.366 . S
C3849 C3851 1.388 . S
C3850 C3849 1.366 . S
C3850 C3854 1.385 . S
C3851 H3826 0.951 . S
C3851 C3849 1.388 . S
C3851 C3852 1.366 . S
C3852 C3851 1.366 . S
C3852 C3853 1.414 . S
C3852 C3855 1.499 . S
C3853 H3827 0.950 . S
C3853 C3852 1.414 . S
C3853 C3854 1.374 . S
C3854 H3828 0.950 . S
C3854 C3850 1.385 . S
C3854 C3853 1.374 . S
C3855 C3852 1.499 . S
C3855 C3856 1.373 . S
C3855 C3857 1.389 . S
C3856 H3829 0.950 . S
C3856 C3842 1.377 . S
C3856 C3855 1.373 . S
C3857 C3841 1.377 . S
C3857 C3855 1.389 . S
C3857 C3858 1.524 . S
C3858 C3857 1.524 . S
C3858 C3859 1.397 . S
C3858 C3863 1.363 . S
C3859 H3830 0.950 . S
C3859 C3858 1.397 . S
C3859 C3860 1.334 . S
C3860 H3831 0.950 . S
C3860 C3859 1.334 . S
C3860 C3861 1.287 . S
C3861 C3860 1.287 . S
C3861 C3862 1.524 . S
C3861 H3864 0.999 . S
C3862 H3832 0.950 . S
C3862 C3861 1.524 . S
C3862 C3863 1.415 . S
C3863 H3833 0.950 . S
C3863 C3858 1.363 . S
C3863 C3862 1.415 . S
H3864 C3861 0.999 . S
H3865 C3846 0.913 . S
H3866 C3884 0.951 . S
H3867 C3886 0.951 . S
H3868 C3888 0.950 . S
H3869 C3889 0.950 . S
H3870 C3891 0.950 . S
H3871 C3894 0.950 . S
H3872 C3895 0.950 . S
H3873 C3897 0.950 . S
H3874 C3898 0.950 . S
H3875 C3899 0.951 . S
H3876 C3901 0.951 . S
H3877 C3903 0.950 . S
H3878 C3904 0.950 . S
H3879 C3906 0.950 . S
H3880 C3909 0.950 . S
H3881 C3910 0.950 . S
H3882 C3912 0.950 . S
H3883 C3913 0.950 . S
C3884 H3866 0.951 . S
C3884 C3885 1.366 . S
C3884 C3886 1.388 . S
C3885 C3884 1.366 . S
C3885 C3889 1.385 . S
C3886 H3867 0.951 . S
C3886 C3884 1.388 . S
C3886 C3887 1.366 . S
C3887 C3886 1.366 . S
C3887 C3888 1.414 . S
C3887 C3890 1.499 . S
C3888 H3868 0.950 . S
C3888 C3887 1.414 . S
C3888 C3889 1.374 . S
C3889 H3869 0.950 . S
C3889 C3885 1.385 . S
C3889 C3888 1.374 . S
C3890 C3887 1.499 . S
C3890 C3891 1.373 . S
C3890 C3892 1.389 . S
C3891 H3870 0.950 . S
C3891 C3890 1.373 . S
C3891 C3907 1.377 . S
C3892 C3890 1.389 . S
C3892 C3893 1.524 . S
C3892 C3906 1.377 . S
C3893 C3892 1.524 . S
C3893 C3894 1.397 . S
C3893 C3898 1.363 . S
C3894 H3871 0.950 . S
C3894 C3893 1.397 . S
C3894 C3895 1.334 . S
C3895 H3872 0.950 . S
C3895 C3894 1.334 . S
C3895 C3896 1.287 . S
C3896 C3895 1.287 . S
C3896 C3897 1.524 . S
C3896 H3915 0.913 . S
C3897 H3873 0.950 . S
C3897 C3896 1.524 . S
C3897 C3898 1.415 . S
C3898 H3874 0.950 . S
C3898 C3893 1.363 . S
C3898 C3897 1.415 . S
C3899 H3875 0.951 . S
C3899 C3900 1.366 . S
C3899 C3901 1.388 . S
C3900 C3899 1.366 . S
C3900 C3904 1.385 . S
C3901 H3876 0.951 . S
C3901 C3899 1.388 . S
C3901 C3902 1.366 . S
C3902 C3901 1.366 . S
C3902 C3903 1.414 . S
C3902 C3905 1.499 . S
C3903 H3877 0.950 . S
C3903 C3902 1.414 . S
C3903 C3904 1.374 . S
C3904 H3878 0.950 . S
C3904 C3900 1.385 . S
C3904 C3903 1.374 . S
C3905 C3902 1.499 . S
C3905 C3906 1.373 . S
C3905 C3907 1.389 . S
C3906 H3879 0.950 . S
C3906 C3892 1.377 . S
C3906 C3905 1.373 . S
C3907 C3891 1.377 . S
C3907 C3905 1.389 . S
C3907 C3908 1.524 . S
C3908 C3907 1.524 . S
C3908 C3909 1.397 . S
C3908 C3913 1.363 . S
C3909 H3880 0.950 . S
C3909 C3908 1.397 . S
C3909 C3910 1.334 . S
C3910 H3881 0.950 . S
C3910 C3909 1.334 . S
C3910 C3911 1.287 . S
C3911 C3910 1.287 . S
C3911 C3912 1.524 . S
C3911 H3914 0.999 . S
C3912 H3882 0.950 . S
C3912 C3911 1.524 . S
C3912 C3913 1.415 . S
C3913 H3883 0.950 . S
C3913 C3908 1.363 . S
C3913 C3912 1.415 . S
H3914 C3911 0.999 . S
H3915 C3896 0.913 . S
H3916 C3934 0.951 . S
H3917 C3936 0.951 . S
H3918 C3938 0.950 . S
H3919 C3939 0.950 . S
H3920 C3941 0.950 . S
H3921 C3944 0.950 . S
H3922 C3945 0.950 . S
H3923 C3947 0.950 . S
H3924 C3948 0.950 . S
H3925 C3949 0.951 . S
H3926 C3951 0.946 1_455 S
H3927 C3953 0.950 . S
H3928 C3954 0.950 . S
H3929 C3956 0.950 . S
H3930 C3959 0.950 . S
H3931 C3960 0.950 . S
H3932 C3962 0.950 . S
H3933 C3963 0.950 . S
C3934 H3916 0.951 . S
C3934 C3935 1.366 . S
C3934 C3936 1.388 . S
C3935 C3934 1.366 . S
C3935 C3939 1.385 . S
C3936 H3917 0.951 . S
C3936 C3934 1.388 . S
C3936 C3937 1.366 . S
C3937 C3936 1.366 . S
C3937 C3938 1.414 . S
C3937 C3940 1.499 . S
C3938 H3918 0.950 . S
C3938 C3937 1.414 . S
C3938 C3939 1.374 . S
C3939 H3919 0.950 . S
C3939 C3935 1.385 . S
C3939 C3938 1.374 . S
C3940 C3937 1.499 . S
C3940 C3941 1.373 . S
C3940 C3942 1.389 . S
C3941 H3920 0.950 . S
C3941 C3940 1.373 . S
C3941 C3957 1.377 . S
C3942 C3940 1.389 . S
C3942 C3943 1.524 . S
C3942 C3956 1.377 . S
C3943 C3942 1.524 . S
C3943 C3944 1.397 . S
C3943 C3948 1.363 . S
C3944 H3921 0.950 . S
C3944 C3943 1.397 . S
C3944 C3945 1.334 . S
C3945 H3922 0.950 . S
C3945 C3944 1.334 . S
C3945 C3946 1.287 . S
C3946 C3945 1.287 . S
C3946 C3947 1.524 . S
C3946 H3965 0.913 . S
C3947 H3923 0.950 . S
C3947 C3946 1.524 . S
C3947 C3948 1.415 . S
C3948 H3924 0.950 . S
C3948 C3943 1.363 . S
C3948 C3947 1.415 . S
C3949 H3925 0.951 . S
C3949 C3950 1.366 1_455 S
C3949 C3951 1.388 1_455 S
C3950 C3949 1.366 1_655 S
C3950 C3954 1.385 . S
C3951 H3926 0.946 1_655 S
C3951 C3949 1.388 1_655 S
C3951 C3952 1.366 . S
C3952 C3951 1.366 . S
C3952 C3953 1.414 . S
C3952 C3955 1.499 . S
C3953 H3927 0.950 . S
C3953 C3952 1.414 . S
C3953 C3954 1.374 . S
C3954 H3928 0.950 . S
C3954 C3950 1.385 . S
C3954 C3953 1.374 . S
C3955 C3952 1.499 . S
C3955 C3956 1.373 . S
C3955 C3957 1.389 . S
C3956 H3929 0.950 . S
C3956 C3942 1.377 . S
C3956 C3955 1.373 . S
C3957 C3941 1.377 . S
C3957 C3955 1.389 . S
C3957 C3958 1.524 . S
C3958 C3957 1.524 . S
C3958 C3959 1.397 . S
C3958 C3963 1.363 . S
C3959 H3930 0.950 . S
C3959 C3958 1.397 . S
C3959 C3960 1.334 . S
C3960 H3931 0.950 . S
C3960 C3959 1.334 . S
C3960 C3961 1.284 1_655 S
C3961 C3960 1.284 1_455 S
C3961 C3962 1.525 . S
C3961 H3964 1.001 . S
C3962 H3932 0.950 . S
C3962 C3961 1.525 . S
C3962 C3963 1.415 1_455 S
C3963 H3933 0.950 . S
C3963 C3958 1.363 . S
C3963 C3962 1.415 1_655 S
H3964 C3961 1.001 . S
H3965 C3946 0.913 . S
H3966 C3984 0.951 . S
H3967 C3986 0.951 . S
H3968 C3988 0.950 . S
H3969 C3989 0.950 . S
H3970 C3991 0.950 . S
H3971 C3994 0.950 . S
H3972 C3995 0.950 . S
H3973 C3997 0.950 . S
H3974 C3998 0.950 . S
H3975 C3999 0.951 . S
H3976 C4001 0.951 . S
H3977 C4003 0.950 . S
H3978 C4004 0.950 . S
H3979 C4006 0.950 . S
H3980 C4009 0.950 . S
H3981 C4010 0.950 . S
H3982 C4012 0.950 . S
H3983 C4013 0.950 . S
C3984 H3966 0.951 . S
C3984 C3985 1.366 . S
C3984 C3986 1.388 . S
C3985 C3984 1.366 . S
C3985 C3989 1.385 . S
C3986 H3967 0.951 . S
C3986 C3984 1.388 . S
C3986 C3987 1.366 . S
C3987 C3986 1.366 . S
C3987 C3988 1.414 . S
C3987 C3990 1.499 . S
C3988 H3968 0.950 . S
C3988 C3987 1.414 . S
C3988 C3989 1.374 . S
C3989 H3969 0.950 . S
C3989 C3985 1.385 . S
C3989 C3988 1.374 . S
C3990 C3987 1.499 . S
C3990 C3991 1.373 . S
C3990 C3992 1.389 . S
C3991 H3970 0.950 . S
C3991 C3990 1.373 . S
C3991 C4007 1.377 . S
C3992 C3990 1.389 . S
C3992 C3993 1.524 . S
C3992 C4006 1.377 . S
C3993 C3992 1.524 . S
C3993 C3994 1.397 . S
C3993 C3998 1.363 . S
C3994 H3971 0.950 . S
C3994 C3993 1.397 . S
C3994 C3995 1.334 . S
C3995 H3972 0.950 . S
C3995 C3994 1.334 . S
C3995 C3996 1.287 . S
C3996 C3995 1.287 . S
C3996 C3997 1.524 . S
C3996 H4015 0.913 . S
C3997 H3973 0.950 . S
C3997 C3996 1.524 . S
C3997 C3998 1.415 . S
C3998 H3974 0.950 . S
C3998 C3993 1.363 . S
C3998 C3997 1.415 . S
C3999 H3975 0.951 . S
C3999 C4000 1.366 . S
C3999 C4001 1.388 . S
C4000 C3999 1.366 . S
C4000 C4004 1.385 . S
C4001 H3976 0.951 . S
C4001 C3999 1.388 . S
C4001 C4002 1.366 . S
C4002 C4001 1.366 . S
C4002 C4003 1.414 . S
C4002 C4005 1.499 . S
C4003 H3977 0.950 . S
C4003 C4002 1.414 . S
C4003 C4004 1.374 . S
C4004 H3978 0.950 . S
C4004 C4000 1.385 . S
C4004 C4003 1.374 . S
C4005 C4002 1.499 . S
C4005 C4006 1.373 . S
C4005 C4007 1.389 . S
C4006 H3979 0.950 . S
C4006 C3992 1.377 . S
C4006 C4005 1.373 . S
C4007 C3991 1.377 . S
C4007 C4005 1.389 . S
C4007 C4008 1.524 . S
C4008 C4007 1.524 . S
C4008 C4009 1.397 . S
C4008 C4013 1.363 . S
C4009 H3980 0.950 . S
C4009 C4008 1.397 . S
C4009 C4010 1.334 . S
C4010 H3981 0.950 . S
C4010 C4009 1.334 . S
C4010 C4011 1.287 . S
C4011 C4010 1.287 . S
C4011 C4012 1.524 . S
C4011 H4014 0.999 . S
C4012 H3982 0.950 . S
C4012 C4011 1.524 . S
C4012 C4013 1.415 . S
C4013 H3983 0.950 . S
C4013 C4008 1.363 . S
C4013 C4012 1.415 . S
H4014 C4011 0.999 . S
H4015 C3996 0.913 . S
H4016 C4034 0.951 . S
H4017 C4036 0.951 . S
H4018 C4038 0.950 . S
H4019 C4039 0.950 . S
H4020 C4041 0.950 . S
H4021 C4044 0.950 . S
H4022 C4045 0.950 . S
H4023 C4047 0.950 . S
H4024 C4048 0.950 . S
H4025 C4049 0.951 . S
H4026 C4051 0.951 . S
H4027 C4053 0.950 . S
H4028 C4054 0.950 . S
H4029 C4056 0.950 . S
H4030 C4059 0.950 . S
H4031 C4060 0.950 . S
H4032 C4062 0.950 . S
H4033 C4063 0.950 . S
C4034 H4016 0.951 . S
C4034 C4035 1.366 . S
C4034 C4036 1.388 . S
C4035 C4034 1.366 . S
C4035 C4039 1.385 . S
C4036 H4017 0.951 . S
C4036 C4034 1.388 . S
C4036 C4037 1.366 . S
C4037 C4036 1.366 . S
C4037 C4038 1.414 . S
C4037 C4040 1.499 . S
C4038 H4018 0.950 . S
C4038 C4037 1.414 . S
C4038 C4039 1.374 . S
C4039 H4019 0.950 . S
C4039 C4035 1.385 . S
C4039 C4038 1.374 . S
C4040 C4037 1.499 . S
C4040 C4041 1.373 . S
C4040 C4042 1.389 . S
C4041 H4020 0.950 . S
C4041 C4040 1.373 . S
C4041 C4057 1.377 . S
C4042 C4040 1.389 . S
C4042 C4043 1.524 . S
C4042 C4056 1.377 . S
C4043 C4042 1.524 . S
C4043 C4044 1.397 . S
C4043 C4048 1.363 . S
C4044 H4021 0.950 . S
C4044 C4043 1.397 . S
C4044 C4045 1.334 . S
C4045 H4022 0.950 . S
C4045 C4044 1.334 . S
C4045 C4046 1.287 . S
C4046 C4045 1.287 . S
C4046 C4047 1.524 . S
C4046 H4065 0.913 . S
C4047 H4023 0.950 . S
C4047 C4046 1.524 . S
C4047 C4048 1.415 . S
C4048 H4024 0.950 . S
C4048 C4043 1.363 . S
C4048 C4047 1.415 . S
C4049 H4025 0.951 . S
C4049 C4050 1.366 . S
C4049 C4051 1.388 . S
C4050 C4049 1.366 . S
C4050 C4054 1.385 . S
C4051 H4026 0.951 . S
C4051 C4049 1.388 . S
C4051 C4052 1.366 . S
C4052 C4051 1.366 . S
C4052 C4053 1.414 . S
C4052 C4055 1.499 . S
C4053 H4027 0.950 . S
C4053 C4052 1.414 . S
C4053 C4054 1.374 . S
C4054 H4028 0.950 . S
C4054 C4050 1.385 . S
C4054 C4053 1.374 . S
C4055 C4052 1.499 . S
C4055 C4056 1.373 . S
C4055 C4057 1.389 . S
C4056 H4029 0.950 . S
C4056 C4042 1.377 . S
C4056 C4055 1.373 . S
C4057 C4041 1.377 . S
C4057 C4055 1.389 . S
C4057 C4058 1.524 . S
C4058 C4057 1.524 . S
C4058 C4059 1.397 . S
C4058 C4063 1.363 . S
C4059 H4030 0.950 . S
C4059 C4058 1.397 . S
C4059 C4060 1.334 . S
C4060 H4031 0.950 . S
C4060 C4059 1.334 . S
C4060 C4061 1.287 . S
C4061 C4060 1.287 . S
C4061 C4062 1.524 . S
C4061 H4064 0.999 . S
C4062 H4032 0.950 . S
C4062 C4061 1.524 . S
C4062 C4063 1.415 . S
C4063 H4033 0.950 . S
C4063 C4058 1.363 . S
C4063 C4062 1.415 . S
H4064 C4061 0.999 . S
H4065 C4046 0.913 . S
H4066 C4084 0.951 . S
H4067 C4086 0.951 . S
H4068 C4088 0.950 . S
H4069 C4089 0.950 . S
H4070 C4091 0.950 . S
H4071 C4094 0.950 . S
H4072 C4095 0.950 . S
H4073 C4097 0.950 1_545 S
H4074 C4098 0.950 . S
H4075 C4099 0.951 . S
H4076 C4101 0.951 . S
H4077 C4103 0.950 . S
H4078 C4104 0.950 . S
H4079 C4106 0.950 . S
H4080 C4109 0.950 . S
H4081 C4110 0.950 . S
H4082 C4112 0.950 . S
H4083 C4113 0.950 . S
C4084 H4066 0.951 . S
C4084 C4085 1.366 . S
C4084 C4086 1.388 . S
C4085 C4084 1.366 . S
C4085 C4089 1.385 . S
C4086 H4067 0.951 . S
C4086 C4084 1.388 . S
C4086 C4087 1.366 . S
C4087 C4086 1.366 . S
C4087 C4088 1.414 . S
C4087 C4090 1.499 . S
C4088 H4068 0.950 . S
C4088 C4087 1.414 . S
C4088 C4089 1.374 . S
C4089 H4069 0.950 . S
C4089 C4085 1.385 . S
C4089 C4088 1.374 . S
C4090 C4087 1.499 . S
C4090 C4091 1.373 . S
C4090 C4092 1.389 . S
C4091 H4070 0.950 . S
C4091 C4090 1.373 . S
C4091 C4107 1.377 . S
C4092 C4090 1.389 . S
C4092 C4093 1.524 . S
C4092 C4106 1.377 . S
C4093 C4092 1.524 . S
C4093 C4094 1.397 . S
C4093 C4098 1.363 . S
C4094 H4071 0.950 . S
C4094 C4093 1.397 . S
C4094 C4095 1.334 . S
C4095 H4072 0.950 . S
C4095 C4094 1.334 . S
C4095 C4096 1.287 . S
C4096 C4095 1.287 . S
C4096 C4097 1.524 . S
C4096 H4115 0.913 . S
C4097 H4073 0.950 1_565 S
C4097 C4096 1.524 . S
C4097 C4098 1.415 . S
C4098 H4074 0.950 . S
C4098 C4093 1.363 . S
C4098 C4097 1.415 . S
C4099 H4075 0.951 . S
C4099 C4100 1.366 1_565 S
C4099 C4101 1.388 . S
C4100 C4099 1.366 1_545 S
C4100 C4104 1.385 . S
C4101 H4076 0.951 . S
C4101 C4099 1.388 . S
C4101 C4102 1.366 . S
C4102 C4101 1.366 . S
C4102 C4103 1.414 1_565 S
C4102 C4105 1.499 . S
C4103 H4077 0.950 . S
C4103 C4102 1.414 1_545 S
C4103 C4104 1.374 . S
C4104 H4078 0.950 . S
C4104 C4100 1.385 . S
C4104 C4103 1.374 . S
C4105 C4102 1.499 . S
C4105 C4106 1.373 . S
C4105 C4107 1.389 . S
C4106 H4079 0.950 . S
C4106 C4092 1.377 . S
C4106 C4105 1.373 . S
C4107 C4091 1.377 . S
C4107 C4105 1.389 . S
C4107 C4108 1.524 . S
C4108 C4107 1.524 . S
C4108 C4109 1.397 . S
C4108 C4113 1.363 . S
C4109 H4080 0.950 . S
C4109 C4108 1.397 . S
C4109 C4110 1.334 . S
C4110 H4081 0.950 . S
C4110 C4109 1.334 . S
C4110 C4111 1.287 . S
C4111 C4110 1.287 . S
C4111 C4112 1.524 . S
C4111 H4114 0.999 . S
C4112 H4082 0.950 . S
C4112 C4111 1.524 . S
C4112 C4113 1.415 . S
C4113 H4083 0.950 . S
C4113 C4108 1.363 . S
C4113 C4112 1.415 . S
H4114 C4111 0.999 . S
H4115 C4096 0.913 . S
H4116 C4134 0.951 . S
H4117 C4136 0.951 . S
H4118 C4138 0.950 . S
H4119 C4139 0.950 1_545 S
H4120 C4141 0.950 . S
H4121 C4144 0.950 . S
H4122 C4145 0.950 . S
H4123 C4147 0.950 . S
H4124 C4148 0.950 . S
H4125 C4149 0.951 . S
H4126 C4151 0.951 . S
H4127 C4153 0.950 . S
H4128 C4154 0.950 . S
H4129 C4156 0.950 . S
H4130 C4159 0.950 . S
H4131 C4160 0.950 . S
H4132 C4162 0.950 . S
H4133 C4163 0.950 . S
C4134 H4116 0.951 . S
C4134 C4135 1.366 . S
C4134 C4136 1.388 . S
C4135 C4134 1.366 . S
C4135 C4139 1.385 . S
C4136 H4117 0.951 . S
C4136 C4134 1.388 . S
C4136 C4137 1.366 . S
C4137 C4136 1.366 . S
C4137 C4138 1.414 . S
C4137 C4140 1.499 . S
C4138 H4118 0.950 . S
C4138 C4137 1.414 . S
C4138 C4139 1.374 . S
C4139 H4119 0.950 1_565 S
C4139 C4135 1.385 . S
C4139 C4138 1.374 . S
C4140 C4137 1.499 . S
C4140 C4141 1.373 . S
C4140 C4142 1.389 . S
C4141 H4120 0.950 . S
C4141 C4140 1.373 . S
C4141 C4157 1.377 . S
C4142 C4140 1.389 . S
C4142 C4143 1.524 . S
C4142 C4156 1.377 . S
C4143 C4142 1.524 . S
C4143 C4144 1.397 . S
C4143 C4148 1.363 . S
C4144 H4121 0.950 . S
C4144 C4143 1.397 . S
C4144 C4145 1.334 . S
C4145 H4122 0.950 . S
C4145 C4144 1.334 . S
C4145 C4146 1.287 . S
C4146 C4145 1.287 . S
C4146 C4147 1.524 . S
C4146 H4165 0.913 . S
C4147 H4123 0.950 . S
C4147 C4146 1.524 . S
C4147 C4148 1.415 . S
C4148 H4124 0.950 . S
C4148 C4143 1.363 . S
C4148 C4147 1.415 . S
C4149 H4125 0.951 . S
C4149 C4150 1.366 . S
C4149 C4151 1.388 . S
C4150 C4149 1.366 . S
C4150 C4154 1.385 . S
C4151 H4126 0.951 . S
C4151 C4149 1.388 . S
C4151 C4152 1.366 . S
C4152 C4151 1.366 . S
C4152 C4153 1.414 . S
C4152 C4155 1.499 . S
C4153 H4127 0.950 . S
C4153 C4152 1.414 . S
C4153 C4154 1.374 . S
C4154 H4128 0.950 . S
C4154 C4150 1.385 . S
C4154 C4153 1.374 . S
C4155 C4152 1.499 . S
C4155 C4156 1.373 . S
C4155 C4157 1.389 . S
C4156 H4129 0.950 . S
C4156 C4142 1.377 . S
C4156 C4155 1.373 . S
C4157 C4141 1.377 . S
C4157 C4155 1.389 . S
C4157 C4158 1.524 . S
C4158 C4157 1.524 . S
C4158 C4159 1.397 . S
C4158 C4163 1.363 . S
C4159 H4130 0.950 . S
C4159 C4158 1.397 . S
C4159 C4160 1.334 . S
C4160 H4131 0.950 . S
C4160 C4159 1.334 . S
C4160 C4161 1.287 . S
C4161 C4160 1.287 . S
C4161 C4162 1.524 . S
C4161 H4164 0.999 . S
C4162 H4132 0.950 . S
C4162 C4161 1.524 . S
C4162 C4163 1.415 . S
C4163 H4133 0.950 . S
C4163 C4158 1.363 . S
C4163 C4162 1.415 . S
H4164 C4161 0.999 . S
H4165 C4146 0.913 . S
H4166 C4184 0.951 . S
H4167 C4186 0.951 . S
H4168 C4188 0.950 . S
H4169 C4189 0.950 . S
H4170 C4191 0.952 . S
H4171 C4194 0.950 . S
H4172 C4195 0.950 . S
H4173 C4197 0.950 . S
H4174 C4198 0.950 . S
H4175 C4199 0.951 . S
H4176 C4201 0.951 . S
H4177 C4203 0.950 . S
H4178 C4204 0.950 . S
H4179 C4206 0.950 . S
H4180 C4209 0.965 . S
H4181 C4210 0.950 . S
H4182 C4212 0.950 . S
H4183 C4213 0.950 . S
C4184 H4166 0.951 . S
C4184 C4185 1.366 . S
C4184 C4186 1.388 . S
C4185 C4184 1.366 . S
C4185 C4189 1.385 . S
C4186 H4167 0.951 . S
C4186 C4184 1.388 . S
C4186 C4187 1.366 . S
C4187 C4186 1.366 . S
C4187 C4188 1.414 . S
C4187 C4190 1.499 . S
C4188 H4168 0.950 . S
C4188 C4187 1.414 . S
C4188 C4189 1.374 . S
C4189 H4169 0.950 . S
C4189 C4185 1.385 . S
C4189 C4188 1.374 . S
C4190 C4187 1.499 . S
C4190 C4191 1.373 . S
C4190 C4192 1.389 . S
C4191 H4170 0.952 . S
C4191 C4190 1.373 . S
C4191 C4207 1.377 . S
C4192 C4190 1.389 . S
C4192 C4193 1.524 . S
C4192 C4206 1.377 . S
C4193 C4192 1.524 . S
C4193 C4194 1.397 . S
C4193 C4198 1.363 . S
C4194 H4171 0.950 . S
C4194 C4193 1.397 . S
C4194 C4195 1.334 . S
C4195 H4172 0.950 . S
C4195 C4194 1.334 . S
C4195 C4196 1.287 . S
C4196 C4195 1.287 . S
C4196 C4197 1.524 . S
C4196 H4215 0.913 . S
C4197 H4173 0.950 . S
C4197 C4196 1.524 . S
C4197 C4198 1.415 . S
C4198 H4174 0.950 . S
C4198 C4193 1.363 . S
C4198 C4197 1.415 . S
C4199 H4175 0.951 . S
C4199 C4200 1.366 . S
C4199 C4201 1.388 . S
C4200 C4199 1.366 . S
C4200 C4204 1.385 . S
C4201 H4176 0.951 . S
C4201 C4199 1.388 . S
C4201 C4202 1.366 . S
C4202 C4201 1.366 . S
C4202 C4203 1.414 . S
C4202 C4205 1.499 . S
C4203 H4177 0.950 . S
C4203 C4202 1.414 . S
C4203 C4204 1.374 . S
C4204 H4178 0.950 . S
C4204 C4200 1.385 . S
C4204 C4203 1.374 . S
C4205 C4202 1.499 . S
C4205 C4206 1.373 . S
C4205 C4207 1.389 . S
C4206 H4179 0.950 . S
C4206 C4192 1.377 . S
C4206 C4205 1.373 . S
C4207 C4191 1.377 . S
C4207 C4205 1.389 . S
C4207 C4208 1.524 1_554 S
C4208 C4207 1.524 1_556 S
C4208 C4209 1.397 . S
C4208 C4213 1.363 . S
C4209 H4180 0.965 . S
C4209 C4208 1.397 . S
C4209 C4210 1.334 . S
C4210 H4181 0.950 . S
C4210 C4209 1.334 . S
C4210 C4211 1.287 . S
C4211 C4210 1.287 . S
C4211 C4212 1.524 . S
C4211 H4214 0.999 . S
C4212 H4182 0.950 . S
C4212 C4211 1.524 . S
C4212 C4213 1.415 . S
C4213 H4183 0.950 . S
C4213 C4208 1.363 . S
C4213 C4212 1.415 . S
H4214 C4211 0.999 . S
H4215 C4196 0.913 . S
H4216 C4234 0.951 . S
H4217 C4236 0.951 . S
H4218 C4238 0.950 . S
H4219 C4239 0.950 . S
H4220 C4241 0.950 . S
H4221 C4244 0.950 . S
H4222 C4245 0.950 . S
H4223 C4247 0.950 . S
H4224 C4248 0.950 . S
H4225 C4249 0.951 . S
H4226 C4251 0.951 . S
H4227 C4253 0.950 . S
H4228 C4254 0.950 . S
H4229 C4256 0.950 . S
H4230 C4259 0.950 . S
H4231 C4260 0.950 . S
H4232 C4262 0.950 . S
H4233 C4263 0.950 . S
C4234 H4216 0.951 . S
C4234 C4235 1.366 . S
C4234 C4236 1.388 . S
C4235 C4234 1.366 . S
C4235 C4239 1.385 . S
C4236 H4217 0.951 . S
C4236 C4234 1.388 . S
C4236 C4237 1.366 . S
C4237 C4236 1.366 . S
C4237 C4238 1.414 . S
C4237 C4240 1.499 . S
C4238 H4218 0.950 . S
C4238 C4237 1.414 . S
C4238 C4239 1.374 . S
C4239 H4219 0.950 . S
C4239 C4235 1.385 . S
C4239 C4238 1.374 . S
C4240 C4237 1.499 . S
C4240 C4241 1.373 . S
C4240 C4242 1.389 . S
C4241 H4220 0.950 . S
C4241 C4240 1.373 . S
C4241 C4257 1.377 . S
C4242 C4240 1.389 . S
C4242 C4243 1.524 . S
C4242 C4256 1.377 . S
C4243 C4242 1.524 . S
C4243 C4244 1.397 . S
C4243 C4248 1.363 . S
C4244 H4221 0.950 . S
C4244 C4243 1.397 . S
C4244 C4245 1.334 . S
C4245 H4222 0.950 . S
C4245 C4244 1.334 . S
C4245 C4246 1.287 . S
C4246 C4245 1.287 . S
C4246 C4247 1.524 . S
C4246 H4265 0.913 . S
C4247 H4223 0.950 . S
C4247 C4246 1.524 . S
C4247 C4248 1.415 . S
C4248 H4224 0.950 . S
C4248 C4243 1.363 . S
C4248 C4247 1.415 . S
C4249 H4225 0.951 . S
C4249 C4250 1.366 . S
C4249 C4251 1.388 . S
C4250 C4249 1.366 . S
C4250 C4254 1.385 . S
C4251 H4226 0.951 . S
C4251 C4249 1.388 . S
C4251 C4252 1.366 . S
C4252 C4251 1.366 . S
C4252 C4253 1.414 . S
C4252 C4255 1.499 . S
C4253 H4227 0.950 . S
C4253 C4252 1.414 . S
C4253 C4254 1.374 . S
C4254 H4228 0.950 . S
C4254 C4250 1.385 . S
C4254 C4253 1.374 . S
C4255 C4252 1.499 . S
C4255 C4256 1.373 . S
C4255 C4257 1.389 . S
C4256 H4229 0.950 . S
C4256 C4242 1.377 . S
C4256 C4255 1.373 . S
C4257 C4241 1.377 . S
C4257 C4255 1.389 . S
C4257 C4258 1.524 . S
C4258 C4257 1.524 . S
C4258 C4259 1.397 . S
C4258 C4263 1.363 . S
C4259 H4230 0.950 . S
C4259 C4258 1.397 . S
C4259 C4260 1.334 . S
C4260 H4231 0.950 . S
C4260 C4259 1.334 . S
C4260 C4261 1.287 . S
C4261 C4260 1.287 . S
C4261 C4262 1.524 . S
C4261 H4264 0.999 . S
C4262 H4232 0.950 . S
C4262 C4261 1.524 . S
C4262 C4263 1.415 . S
C4263 H4233 0.950 . S
C4263 C4258 1.363 . S
C4263 C4262 1.415 . S
H4264 C4261 0.999 . S
H4265 C4246 0.913 . S
H4266 C4284 0.951 . S
H4267 C4286 0.951 . S
H4268 C4288 0.950 . S
H4269 C4289 0.950 . S
H4270 C4291 0.950 . S
H4271 C4294 0.950 . S
H4272 C4295 0.950 . S
H4273 C4297 0.950 . S
H4274 C4298 0.950 . S
H4275 C4299 0.951 . S
H4276 C4301 0.927 1_556 S
H4277 C4303 0.950 . S
H4278 C4304 0.950 . S
H4279 C4306 0.950 . S
H4280 C4309 0.950 . S
H4281 C4310 0.950 . S
H4282 C4312 0.950 . S
H4283 C4313 0.950 . S
C4284 H4266 0.951 . S
C4284 C4285 1.366 . S
C4284 C4286 1.388 . S
C4285 C4284 1.366 . S
C4285 C4289 1.385 . S
C4286 H4267 0.951 . S
C4286 C4284 1.388 . S
C4286 C4287 1.366 . S
C4287 C4286 1.366 . S
C4287 C4288 1.414 . S
C4287 C4290 1.499 . S
C4288 H4268 0.950 . S
C4288 C4287 1.414 . S
C4288 C4289 1.374 . S
C4289 H4269 0.950 . S
C4289 C4285 1.385 . S
C4289 C4288 1.374 . S
C4290 C4287 1.499 . S
C4290 C4291 1.373 . S
C4290 C4292 1.389 . S
C4291 H4270 0.950 . S
C4291 C4290 1.373 . S
C4291 C4307 1.377 . S
C4292 C4290 1.389 . S
C4292 C4293 1.524 . S
C4292 C4306 1.377 . S
C4293 C4292 1.524 . S
C4293 C4294 1.397 . S
C4293 C4298 1.363 . S
C4294 H4271 0.950 . S
C4294 C4293 1.397 . S
C4294 C4295 1.334 . S
C4295 H4272 0.950 . S
C4295 C4294 1.334 . S
C4295 C4296 1.287 . S
C4296 C4295 1.287 . S
C4296 C4297 1.524 . S
C4296 H4315 0.913 . S
C4297 H4273 0.950 . S
C4297 C4296 1.524 . S
C4297 C4298 1.415 . S
C4298 H4274 0.950 . S
C4298 C4293 1.363 . S
C4298 C4297 1.415 . S
C4299 H4275 0.951 . S
C4299 C4300 1.366 1_556 S
C4299 C4301 1.383 1_556 S
C4300 C4299 1.366 1_554 S
C4300 C4304 1.385 . S
C4301 H4276 0.927 1_554 S
C4301 C4299 1.383 1_554 S
C4301 C4302 1.394 . S
C4302 C4301 1.394 . S
C4302 C4303 1.414 . S
C4302 C4305 1.499 . S
C4303 H4277 0.950 . S
C4303 C4302 1.414 . S
C4303 C4304 1.374 . S
C4304 H4278 0.950 . S
C4304 C4300 1.385 . S
C4304 C4303 1.374 . S
C4305 C4302 1.499 . S
C4305 C4306 1.373 . S
C4305 C4307 1.389 . S
C4306 H4279 0.950 . S
C4306 C4292 1.377 . S
C4306 C4305 1.373 . S
C4307 C4291 1.377 . S
C4307 C4305 1.389 . S
C4307 C4308 1.524 . S
C4308 C4307 1.524 . S
C4308 C4309 1.397 . S
C4308 C4313 1.363 1_554 S
C4309 H4280 0.950 . S
C4309 C4308 1.397 . S
C4309 C4310 1.334 . S
C4310 H4281 0.950 . S
C4310 C4309 1.334 . S
C4310 C4311 1.287 1_554 S
C4311 C4310 1.287 1_556 S
C4311 C4312 1.524 . S
C4311 H4314 0.999 . S
C4312 H4282 0.950 . S
C4312 C4311 1.524 . S
C4312 C4313 1.415 . S
C4313 H4283 0.950 . S
C4313 C4308 1.363 1_556 S
C4313 C4312 1.415 . S
H4314 C4311 0.999 . S
H4315 C4296 0.913 . S
H4316 C4334 0.951 . S
H4317 C4336 0.951 . S
H4318 C4338 0.950 . S
H4319 C4339 0.950 . S
H4320 C4341 0.950 . S
H4321 C4344 0.950 . S
H4322 C4345 0.950 . S
H4323 C4347 0.950 . S
H4324 C4348 0.950 . S
H4325 C4349 0.951 . S
H4326 C4351 0.951 . S
H4327 C4353 0.950 . S
H4328 C4354 0.950 . S
H4329 C4356 0.950 . S
H4330 C4359 0.950 . S
H4331 C4360 0.950 . S
H4332 C4362 0.950 . S
H4333 C4363 0.950 . S
C4334 H4316 0.951 . S
C4334 C4335 1.366 . S
C4334 C4336 1.388 . S
C4335 C4334 1.366 . S
C4335 C4339 1.385 . S
C4336 H4317 0.951 . S
C4336 C4334 1.388 . S
C4336 C4337 1.366 . S
C4337 C4336 1.366 . S
C4337 C4338 1.414 . S
C4337 C4340 1.499 . S
C4338 H4318 0.950 . S
C4338 C4337 1.414 . S
C4338 C4339 1.374 . S
C4339 H4319 0.950 . S
C4339 C4335 1.385 . S
C4339 C4338 1.374 . S
C4340 C4337 1.499 . S
C4340 C4341 1.373 . S
C4340 C4342 1.389 . S
C4341 H4320 0.950 . S
C4341 C4340 1.373 . S
C4341 C4357 1.377 . S
C4342 C4340 1.389 . S
C4342 C4343 1.524 . S
C4342 C4356 1.377 . S
C4343 C4342 1.524 . S
C4343 C4344 1.397 . S
C4343 C4348 1.363 . S
C4344 H4321 0.950 . S
C4344 C4343 1.397 . S
C4344 C4345 1.334 . S
C4345 H4322 0.950 . S
C4345 C4344 1.334 . S
C4345 C4346 1.287 . S
C4346 C4345 1.287 . S
C4346 C4347 1.524 . S
C4346 H4365 0.913 . S
C4347 H4323 0.950 . S
C4347 C4346 1.524 . S
C4347 C4348 1.415 . S
C4348 H4324 0.950 . S
C4348 C4343 1.363 . S
C4348 C4347 1.415 . S
C4349 H4325 0.951 . S
C4349 C4350 1.366 . S
C4349 C4351 1.388 . S
C4350 C4349 1.366 . S
C4350 C4354 1.385 . S
C4351 H4326 0.951 . S
C4351 C4349 1.388 . S
C4351 C4352 1.366 . S
C4352 C4351 1.366 . S
C4352 C4353 1.414 . S
C4352 C4355 1.499 . S
C4353 H4327 0.950 . S
C4353 C4352 1.414 . S
C4353 C4354 1.374 . S
C4354 H4328 0.950 . S
C4354 C4350 1.385 . S
C4354 C4353 1.374 . S
C4355 C4352 1.499 . S
C4355 C4356 1.373 . S
C4355 C4357 1.389 . S
C4356 H4329 0.950 . S
C4356 C4342 1.377 . S
C4356 C4355 1.373 . S
C4357 C4341 1.377 . S
C4357 C4355 1.389 . S
C4357 C4358 1.524 . S
C4358 C4357 1.524 . S
C4358 C4359 1.397 . S
C4358 C4363 1.363 . S
C4359 H4330 0.950 . S
C4359 C4358 1.397 . S
C4359 C4360 1.334 . S
C4360 H4331 0.950 . S
C4360 C4359 1.334 . S
C4360 C4361 1.287 . S
C4361 C4360 1.287 . S
C4361 C4362 1.524 . S
C4361 H4364 0.999 . S
C4362 H4332 0.950 . S
C4362 C4361 1.524 . S
C4362 C4363 1.415 . S
C4363 H4333 0.950 . S
C4363 C4358 1.363 . S
C4363 C4362 1.415 . S
H4364 C4361 0.999 . S
H4365 C4346 0.913 . S
H4366 C4384 0.951 . S
H4367 C4386 0.951 . S
H4368 C4388 0.950 . S
H4369 C4389 0.950 . S
H4370 C4391 0.950 . S
H4371 C4394 0.950 . S
H4372 C4395 0.950 . S
H4373 C4397 0.950 . S
H4374 C4398 0.950 . S
H4375 C4399 0.951 . S
H4376 C4401 0.951 . S
H4377 C4403 0.950 . S
H4378 C4404 0.950 . S
H4379 C4406 0.950 . S
H4380 C4409 0.950 . S
H4381 C4410 0.950 . S
H4382 C4412 0.950 . S
H4383 C4413 0.950 . S
C4384 H4366 0.951 . S
C4384 C4385 1.366 . S
C4384 C4386 1.388 . S
C4385 C4384 1.366 . S
C4385 C4389 1.385 . S
C4386 H4367 0.951 . S
C4386 C4384 1.388 . S
C4386 C4387 1.366 . S
C4387 C4386 1.366 . S
C4387 C4388 1.414 . S
C4387 C4390 1.499 . S
C4388 H4368 0.950 . S
C4388 C4387 1.414 . S
C4388 C4389 1.374 . S
C4389 H4369 0.950 . S
C4389 C4385 1.385 . S
C4389 C4388 1.374 . S
C4390 C4387 1.499 . S
C4390 C4391 1.373 . S
C4390 C4392 1.389 . S
C4391 H4370 0.950 . S
C4391 C4390 1.373 . S
C4391 C4407 1.377 . S
C4392 C4390 1.389 . S
C4392 C4393 1.524 . S
C4392 C4406 1.377 . S
C4393 C4392 1.524 . S
C4393 C4394 1.397 . S
C4393 C4398 1.363 . S
C4394 H4371 0.950 . S
C4394 C4393 1.397 . S
C4394 C4395 1.334 . S
C4395 H4372 0.950 . S
C4395 C4394 1.334 . S
C4395 C4396 1.287 . S
C4396 C4395 1.287 . S
C4396 C4397 1.524 . S
C4396 H4415 0.913 . S
C4397 H4373 0.950 . S
C4397 C4396 1.524 . S
C4397 C4398 1.415 . S
C4398 H4374 0.950 . S
C4398 C4393 1.363 . S
C4398 C4397 1.415 . S
C4399 H4375 0.951 . S
C4399 C4400 1.366 . S
C4399 C4401 1.388 . S
C4400 C4399 1.366 . S
C4400 C4404 1.385 . S
C4401 H4376 0.951 . S
C4401 C4399 1.388 . S
C4401 C4402 1.366 . S
C4402 C4401 1.366 . S
C4402 C4403 1.414 . S
C4402 C4405 1.499 . S
C4403 H4377 0.950 . S
C4403 C4402 1.414 . S
C4403 C4404 1.374 . S
C4404 H4378 0.950 . S
C4404 C4400 1.385 . S
C4404 C4403 1.374 . S
C4405 C4402 1.499 . S
C4405 C4406 1.373 . S
C4405 C4407 1.389 . S
C4406 H4379 0.950 . S
C4406 C4392 1.377 . S
C4406 C4405 1.373 . S
C4407 C4391 1.377 . S
C4407 C4405 1.389 . S
C4407 C4408 1.524 . S
C4408 C4407 1.524 . S
C4408 C4409 1.397 . S
C4408 C4413 1.363 . S
C4409 H4380 0.950 . S
C4409 C4408 1.397 . S
C4409 C4410 1.334 . S
C4410 H4381 0.950 . S
C4410 C4409 1.334 . S
C4410 C4411 1.287 . S
C4411 C4410 1.287 . S
C4411 C4412 1.524 . S
C4411 H4414 0.999 . S
C4412 H4382 0.950 . S
C4412 C4411 1.524 . S
C4412 C4413 1.415 . S
C4413 H4383 0.950 . S
C4413 C4408 1.363 . S
C4413 C4412 1.415 . S
H4414 C4411 0.999 . S
H4415 C4396 0.913 . S
H4416 C4434 0.951 . S
H4417 C4436 0.951 . S
H4418 C4438 0.950 . S
H4419 C4439 0.950 . S
H4420 C4441 0.950 . S
H4421 C4444 0.950 . S
H4422 C4445 0.950 . S
H4423 C4447 0.950 . S
H4424 C4448 0.950 . S
H4425 C4449 0.951 . S
H4426 C4451 0.951 . S
H4427 C4453 0.950 . S
H4428 C4454 0.950 . S
H4429 C4456 0.950 . S
H4430 C4459 0.950 . S
H4431 C4460 0.950 . S
H4432 C4462 0.950 . S
H4433 C4463 0.950 . S
C4434 H4416 0.951 . S
C4434 C4435 1.366 . S
C4434 C4436 1.388 . S
C4435 C4434 1.366 . S
C4435 C4439 1.385 . S
C4436 H4417 0.951 . S
C4436 C4434 1.388 . S
C4436 C4437 1.366 . S
C4437 C4436 1.366 . S
C4437 C4438 1.414 . S
C4437 C4440 1.499 . S
C4438 H4418 0.950 . S
C4438 C4437 1.414 . S
C4438 C4439 1.374 . S
C4439 H4419 0.950 . S
C4439 C4435 1.385 . S
C4439 C4438 1.374 . S
C4440 C4437 1.499 . S
C4440 C4441 1.373 . S
C4440 C4442 1.389 . S
C4441 H4420 0.950 . S
C4441 C4440 1.373 . S
C4441 C4457 1.377 . S
C4442 C4440 1.389 . S
C4442 C4443 1.524 . S
C4442 C4456 1.377 . S
C4443 C4442 1.524 . S
C4443 C4444 1.397 . S
C4443 C4448 1.363 . S
C4444 H4421 0.950 . S
C4444 C4443 1.397 . S
C4444 C4445 1.334 . S
C4445 H4422 0.950 . S
C4445 C4444 1.334 . S
C4445 C4446 1.287 . S
C4446 C4445 1.287 . S
C4446 C4447 1.524 . S
C4446 H4465 0.913 . S
C4447 H4423 0.950 . S
C4447 C4446 1.524 . S
C4447 C4448 1.415 . S
C4448 H4424 0.950 . S
C4448 C4443 1.363 . S
C4448 C4447 1.415 . S
C4449 H4425 0.951 . S
C4449 C4450 1.366 . S
C4449 C4451 1.388 . S
C4450 C4449 1.366 . S
C4450 C4454 1.385 . S
C4451 H4426 0.951 . S
C4451 C4449 1.388 . S
C4451 C4452 1.366 . S
C4452 C4451 1.366 . S
C4452 C4453 1.414 . S
C4452 C4455 1.499 . S
C4453 H4427 0.950 . S
C4453 C4452 1.414 . S
C4453 C4454 1.374 . S
C4454 H4428 0.950 . S
C4454 C4450 1.385 . S
C4454 C4453 1.374 . S
C4455 C4452 1.499 . S
C4455 C4456 1.373 . S
C4455 C4457 1.389 . S
C4456 H4429 0.950 . S
C4456 C4442 1.377 . S
C4456 C4455 1.373 . S
C4457 C4441 1.377 . S
C4457 C4455 1.389 . S
C4457 C4458 1.524 . S
C4458 C4457 1.524 . S
C4458 C4459 1.397 . S
C4458 C4463 1.363 . S
C4459 H4430 0.950 . S
C4459 C4458 1.397 . S
C4459 C4460 1.334 . S
C4460 H4431 0.950 . S
C4460 C4459 1.334 . S
C4460 C4461 1.287 . S
C4461 C4460 1.287 . S
C4461 C4462 1.524 . S
C4461 H4464 0.999 . S
C4462 H4432 0.950 . S
C4462 C4461 1.524 . S
C4462 C4463 1.415 . S
C4463 H4433 0.950 . S
C4463 C4458 1.363 . S
C4463 C4462 1.415 . S
H4464 C4461 0.999 . S
H4465 C4446 0.913 . S
H4466 C4484 0.951 . S
H4467 C4486 0.951 . S
H4468 C4488 0.950 . S
H4469 C4489 0.950 . S
H4470 C4491 0.950 . S
H4471 C4494 0.950 . S
H4472 C4495 0.950 . S
H4473 C4497 0.950 . S
H4474 C4498 0.950 . S
H4475 C4499 0.951 . S
H4476 C4501 0.951 . S
H4477 C4503 0.950 . S
H4478 C4504 0.950 . S
H4479 C4506 0.950 . S
H4480 C4509 0.950 . S
H4481 C4510 0.950 . S
H4482 C4512 0.950 . S
H4483 C4513 0.950 . S
C4484 H4466 0.951 . S
C4484 C4485 1.366 . S
C4484 C4486 1.388 . S
C4485 C4484 1.366 . S
C4485 C4489 1.385 . S
C4486 H4467 0.951 . S
C4486 C4484 1.388 . S
C4486 C4487 1.366 . S
C4487 C4486 1.366 . S
C4487 C4488 1.414 . S
C4487 C4490 1.499 . S
C4488 H4468 0.950 . S
C4488 C4487 1.414 . S
C4488 C4489 1.374 . S
C4489 H4469 0.950 . S
C4489 C4485 1.385 . S
C4489 C4488 1.374 . S
C4490 C4487 1.499 . S
C4490 C4491 1.373 . S
C4490 C4492 1.389 . S
C4491 H4470 0.950 . S
C4491 C4490 1.373 . S
C4491 C4507 1.377 . S
C4492 C4490 1.389 . S
C4492 C4493 1.524 . S
C4492 C4506 1.377 . S
C4493 C4492 1.524 . S
C4493 C4494 1.397 . S
C4493 C4498 1.363 . S
C4494 H4471 0.950 . S
C4494 C4493 1.397 . S
C4494 C4495 1.334 . S
C4495 H4472 0.950 . S
C4495 C4494 1.334 . S
C4495 C4496 1.287 . S
C4496 C4495 1.287 . S
C4496 C4497 1.524 . S
C4496 H4515 0.913 . S
C4497 H4473 0.950 . S
C4497 C4496 1.524 . S
C4497 C4498 1.415 . S
C4498 H4474 0.950 . S
C4498 C4493 1.363 . S
C4498 C4497 1.415 . S
C4499 H4475 0.951 . S
C4499 C4500 1.366 . S
C4499 C4501 1.388 . S
C4500 C4499 1.366 . S
C4500 C4504 1.385 . S
C4501 H4476 0.951 . S
C4501 C4499 1.388 . S
C4501 C4502 1.366 . S
C4502 C4501 1.366 . S
C4502 C4503 1.414 . S
C4502 C4505 1.499 . S
C4503 H4477 0.950 . S
C4503 C4502 1.414 . S
C4503 C4504 1.374 . S
C4504 H4478 0.950 . S
C4504 C4500 1.385 . S
C4504 C4503 1.374 . S
C4505 C4502 1.499 . S
C4505 C4506 1.373 . S
C4505 C4507 1.389 . S
C4506 H4479 0.950 . S
C4506 C4492 1.377 . S
C4506 C4505 1.373 . S
C4507 C4491 1.377 . S
C4507 C4505 1.389 . S
C4507 C4508 1.524 . S
C4508 C4507 1.524 . S
C4508 C4509 1.397 . S
C4508 C4513 1.363 . S
C4509 H4480 0.950 . S
C4509 C4508 1.397 . S
C4509 C4510 1.334 . S
C4510 H4481 0.950 . S
C4510 C4509 1.334 . S
C4510 C4511 1.287 . S
C4511 C4510 1.287 . S
C4511 C4512 1.524 . S
C4511 H4514 0.999 . S
C4512 H4482 0.950 . S
C4512 C4511 1.524 . S
C4512 C4513 1.415 . S
C4513 H4483 0.950 . S
C4513 C4508 1.363 . S
C4513 C4512 1.415 . S
H4514 C4511 0.999 . S
H4515 C4496 0.913 . S
H4516 C4534 0.951 . S
H4517 C4536 0.951 . S
H4518 C4538 1.000 . S
H4519 C4539 0.943 1_655 S
H4520 C4541 0.950 1_655 S
H4521 C4544 0.950 . S
H4522 C4545 0.950 . S
H4523 C4547 0.950 . S
H4524 C4548 0.950 . S
H4525 C4549 0.951 1_554 S
H4526 C4551 0.951 . S
H4527 C4553 0.950 . S
H4528 C4554 0.950 . S
H4529 C4556 0.950 . S
H4530 C4559 0.950 . S
H4531 C4560 0.935 1_455 S
H4532 C4562 0.950 . S
H4533 C4563 0.950 1_556 S
C4534 H4516 0.951 . S
C4534 C4535 1.366 . S
C4534 C4536 1.388 . S
C4535 C4534 1.366 . S
C4535 C4539 1.392 . S
C4536 H4517 0.951 . S
C4536 C4534 1.388 . S
C4536 C4537 1.366 . S
C4537 C4536 1.366 . S
C4537 C4538 1.368 1_455 S
C4537 C4540 1.499 . S
C4538 H4518 1.000 . S
C4538 C4537 1.368 1_655 S
C4538 C4539 1.372 1_655 S
C4539 H4519 0.943 1_455 S
C4539 C4535 1.392 . S
C4539 C4538 1.372 1_455 S
C4540 C4537 1.499 . S
C4540 C4541 1.373 . S
C4540 C4542 1.389 . S
C4541 H4520 0.950 1_455 S
C4541 C4540 1.373 . S
C4541 C4557 1.377 . S
C4542 C4540 1.389 . S
C4542 C4543 1.524 . S
C4542 C4556 1.377 . S
C4543 C4542 1.524 . S
C4543 C4544 1.397 . S
C4543 C4548 1.363 . S
C4544 H4521 0.950 . S
C4544 C4543 1.397 . S
C4544 C4545 1.334 . S
C4545 H4522 0.950 . S
C4545 C4544 1.334 . S
C4545 C4546 1.287 . S
C4546 C4545 1.287 . S
C4546 C4547 1.524 . S
C4546 H4565 0.913 . S
C4547 H4523 0.950 . S
C4547 C4546 1.524 . S
C4547 C4548 1.415 . S
C4548 H4524 0.950 . S
C4548 C4543 1.363 . S
C4548 C4547 1.415 . S
C4549 H4525 0.951 1_556 S
C4549 C4550 1.374 1_655 S
C4549 C4551 1.388 . S
C4550 C4549 1.374 1_455 S
C4550 C4554 1.400 . S
C4551 H4526 0.951 . S
C4551 C4549 1.388 . S
C4551 C4552 1.366 1_655 S
C4552 C4551 1.366 1_455 S
C4552 C4553 1.414 . S
C4552 C4555 1.499 . S
C4553 H4527 0.950 . S
C4553 C4552 1.414 . S
C4553 C4554 1.374 . S
C4554 H4528 0.950 . S
C4554 C4550 1.400 . S
C4554 C4553 1.374 . S
C4555 C4552 1.499 . S
C4555 C4556 1.373 . S
C4555 C4557 1.389 . S
C4556 H4529 0.950 . S
C4556 C4542 1.377 . S
C4556 C4555 1.373 . S
C4557 C4541 1.377 . S
C4557 C4555 1.389 . S
C4557 C4558 1.522 1_455 S
C4558 C4557 1.522 1_655 S
C4558 C4559 1.399 1_656 S
C4558 C4563 1.363 1_556 S
C4559 H4530 0.950 . S
C4559 C4558 1.399 1_454 S
C4559 C4560 1.325 1_455 S
C4560 H4531 0.935 1_655 S
C4560 C4559 1.325 1_655 S
C4560 C4561 1.313 . S
C4561 C4560 1.313 . S
C4561 C4562 1.524 . S
C4561 H4564 0.999 . S
C4562 H4532 0.950 . S
C4562 C4561 1.524 . S
C4562 C4563 1.415 . S
C4563 H4533 0.950 1_554 S
C4563 C4558 1.363 1_554 S
C4563 C4562 1.415 . S
H4564 C4561 0.999 . S
H4565 C4546 0.913 . S
H4566 C4584 0.951 . S
H4567 C4586 0.951 . S
H4568 C4588 0.950 . S
H4569 C4589 0.950 . S
H4570 C4591 0.950 . S
H4571 C4594 0.950 . S
H4572 C4595 0.950 . S
H4573 C4597 0.950 . S
H4574 C4598 0.950 . S
H4575 C4599 0.951 . S
H4576 C4601 0.951 . S
H4577 C4603 0.950 . S
H4578 C4604 0.950 . S
H4579 C4606 0.950 . S
H4580 C4609 0.950 . S
H4581 C4610 0.950 . S
H4582 C4612 0.950 . S
H4583 C4613 0.950 . S
C4584 H4566 0.951 . S
C4584 C4585 1.366 . S
C4584 C4586 1.388 . S
C4585 C4584 1.366 . S
C4585 C4589 1.385 . S
C4586 H4567 0.951 . S
C4586 C4584 1.388 . S
C4586 C4587 1.366 . S
C4587 C4586 1.366 . S
C4587 C4588 1.414 . S
C4587 C4590 1.499 . S
C4588 H4568 0.950 . S
C4588 C4587 1.414 . S
C4588 C4589 1.374 . S
C4589 H4569 0.950 . S
C4589 C4585 1.385 . S
C4589 C4588 1.374 . S
C4590 C4587 1.499 . S
C4590 C4591 1.373 . S
C4590 C4592 1.389 . S
C4591 H4570 0.950 . S
C4591 C4590 1.373 . S
C4591 C4607 1.377 . S
C4592 C4590 1.389 . S
C4592 C4593 1.524 . S
C4592 C4606 1.377 . S
C4593 C4592 1.524 . S
C4593 C4594 1.397 . S
C4593 C4598 1.363 . S
C4594 H4571 0.950 . S
C4594 C4593 1.397 . S
C4594 C4595 1.334 . S
C4595 H4572 0.950 . S
C4595 C4594 1.334 . S
C4595 C4596 1.287 . S
C4596 C4595 1.287 . S
C4596 C4597 1.524 . S
C4596 H4615 0.913 . S
C4597 H4573 0.950 . S
C4597 C4596 1.524 . S
C4597 C4598 1.415 . S
C4598 H4574 0.950 . S
C4598 C4593 1.363 . S
C4598 C4597 1.415 . S
C4599 H4575 0.951 . S
C4599 C4600 1.366 . S
C4599 C4601 1.388 . S
C4600 C4599 1.366 . S
C4600 C4604 1.385 . S
C4601 H4576 0.951 . S
C4601 C4599 1.388 . S
C4601 C4602 1.366 . S
C4602 C4601 1.366 . S
C4602 C4603 1.414 . S
C4602 C4605 1.499 . S
C4603 H4577 0.950 . S
C4603 C4602 1.414 . S
C4603 C4604 1.374 . S
C4604 H4578 0.950 . S
C4604 C4600 1.385 . S
C4604 C4603 1.374 . S
C4605 C4602 1.499 . S
C4605 C4606 1.373 . S
C4605 C4607 1.389 . S
C4606 H4579 0.950 . S
C4606 C4592 1.377 . S
C4606 C4605 1.373 . S
C4607 C4591 1.377 . S
C4607 C4605 1.389 . S
C4607 C4608 1.524 . S
C4608 C4607 1.524 . S
C4608 C4609 1.397 . S
C4608 C4613 1.363 . S
C4609 H4580 0.950 . S
C4609 C4608 1.397 . S
C4609 C4610 1.334 . S
C4610 H4581 0.950 . S
C4610 C4609 1.334 . S
C4610 C4611 1.287 . S
C4611 C4610 1.287 . S
C4611 C4612 1.524 . S
C4611 H4614 0.999 . S
C4612 H4582 0.950 . S
C4612 C4611 1.524 . S
C4612 C4613 1.415 . S
C4613 H4583 0.950 . S
C4613 C4608 1.363 . S
C4613 C4612 1.415 . S
H4614 C4611 0.999 . S
H4615 C4596 0.913 . S
H4616 C4634 0.951 . S
H4617 C4636 0.951 . S
H4618 C4638 0.950 . S
H4619 C4639 0.950 . S
H4620 C4641 0.950 . S
H4621 C4644 0.950 . S
H4622 C4645 0.950 . S
H4623 C4647 0.950 . S
H4624 C4648 0.950 . S
H4625 C4649 0.951 . S
H4626 C4651 0.951 . S
H4627 C4653 0.950 . S
H4628 C4654 0.950 . S
H4629 C4656 0.950 . S
H4630 C4659 0.950 . S
H4631 C4660 0.950 . S
H4632 C4662 0.950 . S
H4633 C4663 0.950 . S
C4634 H4616 0.951 . S
C4634 C4635 1.366 . S
C4634 C4636 1.388 . S
C4635 C4634 1.366 . S
C4635 C4639 1.385 . S
C4636 H4617 0.951 . S
C4636 C4634 1.388 . S
C4636 C4637 1.366 . S
C4637 C4636 1.366 . S
C4637 C4638 1.414 . S
C4637 C4640 1.499 . S
C4638 H4618 0.950 . S
C4638 C4637 1.414 . S
C4638 C4639 1.374 . S
C4639 H4619 0.950 . S
C4639 C4635 1.385 . S
C4639 C4638 1.374 . S
C4640 C4637 1.499 . S
C4640 C4641 1.373 . S
C4640 C4642 1.389 . S
C4641 H4620 0.950 . S
C4641 C4640 1.373 . S
C4641 C4657 1.377 . S
C4642 C4640 1.389 . S
C4642 C4643 1.524 . S
C4642 C4656 1.377 . S
C4643 C4642 1.524 . S
C4643 C4644 1.397 . S
C4643 C4648 1.363 . S
C4644 H4621 0.950 . S
C4644 C4643 1.397 . S
C4644 C4645 1.334 . S
C4645 H4622 0.950 . S
C4645 C4644 1.334 . S
C4645 C4646 1.287 . S
C4646 C4645 1.287 . S
C4646 C4647 1.524 . S
C4646 H4665 0.913 . S
C4647 H4623 0.950 . S
C4647 C4646 1.524 . S
C4647 C4648 1.415 . S
C4648 H4624 0.950 . S
C4648 C4643 1.363 . S
C4648 C4647 1.415 . S
C4649 H4625 0.951 . S
C4649 C4650 1.366 . S
C4649 C4651 1.388 . S
C4650 C4649 1.366 . S
C4650 C4654 1.385 . S
C4651 H4626 0.951 . S
C4651 C4649 1.388 . S
C4651 C4652 1.366 . S
C4652 C4651 1.366 . S
C4652 C4653 1.414 . S
C4652 C4655 1.499 . S
C4653 H4627 0.950 . S
C4653 C4652 1.414 . S
C4653 C4654 1.374 . S
C4654 H4628 0.950 . S
C4654 C4650 1.385 . S
C4654 C4653 1.374 . S
C4655 C4652 1.499 . S
C4655 C4656 1.373 . S
C4655 C4657 1.389 . S
C4656 H4629 0.950 . S
C4656 C4642 1.377 . S
C4656 C4655 1.373 . S
C4657 C4641 1.377 . S
C4657 C4655 1.389 . S
C4657 C4658 1.524 . S
C4658 C4657 1.524 . S
C4658 C4659 1.397 . S
C4658 C4663 1.363 . S
C4659 H4630 0.950 . S
C4659 C4658 1.397 . S
C4659 C4660 1.334 . S
C4660 H4631 0.950 . S
C4660 C4659 1.334 . S
C4660 C4661 1.287 . S
C4661 C4660 1.287 . S
C4661 C4662 1.524 . S
C4661 H4664 0.999 . S
C4662 H4632 0.950 . S
C4662 C4661 1.524 . S
C4662 C4663 1.415 . S
C4663 H4633 0.950 . S
C4663 C4658 1.363 . S
C4663 C4662 1.415 . S
H4664 C4661 0.999 . S
H4665 C4646 0.913 . S
H4666 C4684 0.951 . S
H4667 C4686 0.951 . S
H4668 C4688 0.950 . S
H4669 C4689 0.950 . S
H4670 C4691 0.950 . S
H4671 C4694 0.950 . S
H4672 C4695 0.950 . S
H4673 C4697 0.950 . S
H4674 C4698 0.950 . S
H4675 C4699 0.951 . S
H4676 C4701 0.951 . S
H4677 C4703 0.950 . S
H4678 C4704 0.950 . S
H4679 C4706 0.950 . S
H4680 C4709 0.950 . S
H4681 C4710 0.950 . S
H4682 C4712 0.950 . S
H4683 C4713 0.950 . S
C4684 H4666 0.951 . S
C4684 C4685 1.366 . S
C4684 C4686 1.388 . S
C4685 C4684 1.366 . S
C4685 C4689 1.385 . S
C4686 H4667 0.951 . S
C4686 C4684 1.388 . S
C4686 C4687 1.366 . S
C4687 C4686 1.366 . S
C4687 C4688 1.414 . S
C4687 C4690 1.499 . S
C4688 H4668 0.950 . S
C4688 C4687 1.414 . S
C4688 C4689 1.374 . S
C4689 H4669 0.950 . S
C4689 C4685 1.385 . S
C4689 C4688 1.374 . S
C4690 C4687 1.499 . S
C4690 C4691 1.373 . S
C4690 C4692 1.389 . S
C4691 H4670 0.950 . S
C4691 C4690 1.373 . S
C4691 C4707 1.377 . S
C4692 C4690 1.389 . S
C4692 C4693 1.524 . S
C4692 C4706 1.377 . S
C4693 C4692 1.524 . S
C4693 C4694 1.397 . S
C4693 C4698 1.363 . S
C4694 H4671 0.950 . S
C4694 C4693 1.397 . S
C4694 C4695 1.334 . S
C4695 H4672 0.950 . S
C4695 C4694 1.334 . S
C4695 C4696 1.287 . S
C4696 C4695 1.287 . S
C4696 C4697 1.524 . S
C4696 H4715 0.913 . S
C4697 H4673 0.950 . S
C4697 C4696 1.524 . S
C4697 C4698 1.415 . S
C4698 H4674 0.950 . S
C4698 C4693 1.363 . S
C4698 C4697 1.415 . S
C4699 H4675 0.951 . S
C4699 C4700 1.366 . S
C4699 C4701 1.388 . S
C4700 C4699 1.366 . S
C4700 C4704 1.385 . S
C4701 H4676 0.951 . S
C4701 C4699 1.388 . S
C4701 C4702 1.366 . S
C4702 C4701 1.366 . S
C4702 C4703 1.414 . S
C4702 C4705 1.499 . S
C4703 H4677 0.950 . S
C4703 C4702 1.414 . S
C4703 C4704 1.374 . S
C4704 H4678 0.950 . S
C4704 C4700 1.385 . S
C4704 C4703 1.374 . S
C4705 C4702 1.499 . S
C4705 C4706 1.373 . S
C4705 C4707 1.389 . S
C4706 H4679 0.950 . S
C4706 C4692 1.377 . S
C4706 C4705 1.373 . S
C4707 C4691 1.377 . S
C4707 C4705 1.389 . S
C4707 C4708 1.524 . S
C4708 C4707 1.524 . S
C4708 C4709 1.397 . S
C4708 C4713 1.363 . S
C4709 H4680 0.950 . S
C4709 C4708 1.397 . S
C4709 C4710 1.334 . S
C4710 H4681 0.950 . S
C4710 C4709 1.334 . S
C4710 C4711 1.287 . S
C4711 C4710 1.287 . S
C4711 C4712 1.524 . S
C4711 H4714 0.999 . S
C4712 H4682 0.950 . S
C4712 C4711 1.524 . S
C4712 C4713 1.415 . S
C4713 H4683 0.950 . S
C4713 C4708 1.363 . S
C4713 C4712 1.415 . S
H4714 C4711 0.999 . S
H4715 C4696 0.913 . S
H4716 C4734 0.951 . S
H4717 C4736 0.951 . S
H4718 C4738 0.950 . S
H4719 C4739 0.950 . S
H4720 C4741 0.950 . S
H4721 C4744 0.950 . S
H4722 C4745 0.950 . S
H4723 C4747 0.950 . S
H4724 C4748 0.950 . S
H4725 C4749 0.951 . S
H4726 C4751 0.951 . S
H4727 C4753 0.950 . S
H4728 C4754 0.950 . S
H4729 C4756 0.950 . S
H4730 C4759 0.950 . S
H4731 C4760 0.950 . S
H4732 C4762 0.950 . S
H4733 C4763 0.950 . S
C4734 H4716 0.951 . S
C4734 C4735 1.366 1_655 S
C4734 C4736 1.388 . S
C4735 C4734 1.366 1_455 S
C4735 C4739 1.385 . S
C4736 H4717 0.951 . S
C4736 C4734 1.388 . S
C4736 C4737 1.366 1_655 S
C4737 C4736 1.366 1_455 S
C4737 C4738 1.414 . S
C4737 C4740 1.499 . S
C4738 H4718 0.950 . S
C4738 C4737 1.414 . S
C4738 C4739 1.374 . S
C4739 H4719 0.950 . S
C4739 C4735 1.385 . S
C4739 C4738 1.374 . S
C4740 C4737 1.499 . S
C4740 C4741 1.373 . S
C4740 C4742 1.389 . S
C4741 H4720 0.950 . S
C4741 C4740 1.373 . S
C4741 C4757 1.377 . S
C4742 C4740 1.389 . S
C4742 C4743 1.524 . S
C4742 C4756 1.377 . S
C4743 C4742 1.524 . S
C4743 C4744 1.397 . S
C4743 C4748 1.363 1_455 S
C4744 H4721 0.950 . S
C4744 C4743 1.397 . S
C4744 C4745 1.334 . S
C4745 H4722 0.950 . S
C4745 C4744 1.334 . S
C4745 C4746 1.287 . S
C4746 C4745 1.287 . S
C4746 C4747 1.524 1_455 S
C4746 H4765 0.913 . S
C4747 H4723 0.950 . S
C4747 C4746 1.524 1_655 S
C4747 C4748 1.415 . S
C4748 H4724 0.950 . S
C4748 C4743 1.363 1_655 S
C4748 C4747 1.415 . S
C4749 H4725 0.951 . S
C4749 C4750 1.366 . S
C4749 C4751 1.388 . S
C4750 C4749 1.366 . S
C4750 C4754 1.385 1_455 S
C4751 H4726 0.951 . S
C4751 C4749 1.388 . S
C4751 C4752 1.366 . S
C4752 C4751 1.366 . S
C4752 C4753 1.414 1_455 S
C4752 C4755 1.499 . S
C4753 H4727 0.950 . S
C4753 C4752 1.414 1_655 S
C4753 C4754 1.374 . S
C4754 H4728 0.950 . S
C4754 C4750 1.385 1_655 S
C4754 C4753 1.374 . S
C4755 C4752 1.499 . S
C4755 C4756 1.373 . S
C4755 C4757 1.389 . S
C4756 H4729 0.950 . S
C4756 C4742 1.377 . S
C4756 C4755 1.373 . S
C4757 C4741 1.377 . S
C4757 C4755 1.389 . S
C4757 C4758 1.524 . S
C4758 C4757 1.524 . S
C4758 C4759 1.397 1_455 S
C4758 C4763 1.363 . S
C4759 H4730 0.950 . S
C4759 C4758 1.397 1_655 S
C4759 C4760 1.334 . S
C4760 H4731 0.950 . S
C4760 C4759 1.334 . S
C4760 C4761 1.287 . S
C4761 C4760 1.287 . S
C4761 C4762 1.524 1_655 S
C4761 H4764 0.999 . S
C4762 H4732 0.950 . S
C4762 C4761 1.524 1_455 S
C4762 C4763 1.415 . S
C4763 H4733 0.950 . S
C4763 C4758 1.363 . S
C4763 C4762 1.415 . S
H4764 C4761 0.999 . S
H4765 C4746 0.913 . S
H4766 C4784 0.951 . S
H4767 C4786 0.951 . S
H4768 C4788 0.950 . S
H4769 C4789 0.950 . S
H4770 C4791 0.950 . S
H4771 C4794 0.950 . S
H4772 C4795 0.950 . S
H4773 C4797 0.950 . S
H4774 C4798 0.950 . S
H4775 C4799 0.951 . S
H4776 C4801 0.951 . S
H4777 C4803 0.950 . S
H4778 C4804 0.950 . S
H4779 C4806 0.950 . S
H4780 C4809 0.950 . S
H4781 C4810 0.950 . S
H4782 C4812 0.950 . S
H4783 C4813 0.950 . S
C4784 H4766 0.951 . S
C4784 C4785 1.366 . S
C4784 C4786 1.388 . S
C4785 C4784 1.366 . S
C4785 C4789 1.385 . S
C4786 H4767 0.951 . S
C4786 C4784 1.388 . S
C4786 C4787 1.366 . S
C4787 C4786 1.366 . S
C4787 C4788 1.414 . S
C4787 C4790 1.499 . S
C4788 H4768 0.950 . S
C4788 C4787 1.414 . S
C4788 C4789 1.374 . S
C4789 H4769 0.950 . S
C4789 C4785 1.385 . S
C4789 C4788 1.374 . S
C4790 C4787 1.499 . S
C4790 C4791 1.373 . S
C4790 C4792 1.389 . S
C4791 H4770 0.950 . S
C4791 C4790 1.373 . S
C4791 C4807 1.377 . S
C4792 C4790 1.389 . S
C4792 C4793 1.524 . S
C4792 C4806 1.377 . S
C4793 C4792 1.524 . S
C4793 C4794 1.397 . S
C4793 C4798 1.363 . S
C4794 H4771 0.950 . S
C4794 C4793 1.397 . S
C4794 C4795 1.334 . S
C4795 H4772 0.950 . S
C4795 C4794 1.334 . S
C4795 C4796 1.287 . S
C4796 C4795 1.287 . S
C4796 C4797 1.524 . S
C4796 H4815 0.913 . S
C4797 H4773 0.950 . S
C4797 C4796 1.524 . S
C4797 C4798 1.415 . S
C4798 H4774 0.950 . S
C4798 C4793 1.363 . S
C4798 C4797 1.415 . S
C4799 H4775 0.951 . S
C4799 C4800 1.366 . S
C4799 C4801 1.388 . S
C4800 C4799 1.366 . S
C4800 C4804 1.385 . S
C4801 H4776 0.951 . S
C4801 C4799 1.388 . S
C4801 C4802 1.366 . S
C4802 C4801 1.366 . S
C4802 C4803 1.414 . S
C4802 C4805 1.499 . S
C4803 H4777 0.950 . S
C4803 C4802 1.414 . S
C4803 C4804 1.374 . S
C4804 H4778 0.950 . S
C4804 C4800 1.385 . S
C4804 C4803 1.374 . S
C4805 C4802 1.499 . S
C4805 C4806 1.373 . S
C4805 C4807 1.389 . S
C4806 H4779 0.950 . S
C4806 C4792 1.377 . S
C4806 C4805 1.373 . S
C4807 C4791 1.377 . S
C4807 C4805 1.389 . S
C4807 C4808 1.524 . S
C4808 C4807 1.524 . S
C4808 C4809 1.397 . S
C4808 C4813 1.363 . S
C4809 H4780 0.950 . S
C4809 C4808 1.397 . S
C4809 C4810 1.334 . S
C4810 H4781 0.950 . S
C4810 C4809 1.334 . S
C4810 C4811 1.287 . S
C4811 C4810 1.287 . S
C4811 C4812 1.524 . S
C4811 H4814 0.999 . S
C4812 H4782 0.950 . S
C4812 C4811 1.524 . S
C4812 C4813 1.415 . S
C4813 H4783 0.950 . S
C4813 C4808 1.363 . S
C4813 C4812 1.415 . S
H4814 C4811 0.999 . S
H4815 C4796 0.913 . S
H4816 C4834 0.951 . S
H4817 C4836 0.951 . S
H4818 C4838 0.950 . S
H4819 C4839 0.950 . S
H4820 C4841 0.950 . S
H4821 C4844 0.950 . S
H4822 C4845 0.950 . S
H4823 C4847 0.950 . S
H4824 C4848 0.950 . S
H4825 C4849 0.951 . S
H4826 C4851 0.951 . S
H4827 C4853 0.950 . S
H4828 C4854 0.950 . S
H4829 C4856 0.950 . S
H4830 C4859 0.950 . S
H4831 C4860 0.950 . S
H4832 C4862 0.950 . S
H4833 C4863 0.950 . S
C4834 H4816 0.951 . S
C4834 C4835 1.366 . S
C4834 C4836 1.388 . S
C4835 C4834 1.366 . S
C4835 C4839 1.385 . S
C4836 H4817 0.951 . S
C4836 C4834 1.388 . S
C4836 C4837 1.366 . S
C4837 C4836 1.366 . S
C4837 C4838 1.414 . S
C4837 C4840 1.499 . S
C4838 H4818 0.950 . S
C4838 C4837 1.414 . S
C4838 C4839 1.374 . S
C4839 H4819 0.950 . S
C4839 C4835 1.385 . S
C4839 C4838 1.374 . S
C4840 C4837 1.499 . S
C4840 C4841 1.373 . S
C4840 C4842 1.389 . S
C4841 H4820 0.950 . S
C4841 C4840 1.373 . S
C4841 C4857 1.377 . S
C4842 C4840 1.389 . S
C4842 C4843 1.524 . S
C4842 C4856 1.377 . S
C4843 C4842 1.524 . S
C4843 C4844 1.397 . S
C4843 C4848 1.363 . S
C4844 H4821 0.950 . S
C4844 C4843 1.397 . S
C4844 C4845 1.334 . S
C4845 H4822 0.950 . S
C4845 C4844 1.334 . S
C4845 C4846 1.287 . S
C4846 C4845 1.287 . S
C4846 C4847 1.524 . S
C4846 H4865 0.913 . S
C4847 H4823 0.950 . S
C4847 C4846 1.524 . S
C4847 C4848 1.415 . S
C4848 H4824 0.950 . S
C4848 C4843 1.363 . S
C4848 C4847 1.415 . S
C4849 H4825 0.951 . S
C4849 C4850 1.366 . S
C4849 C4851 1.388 . S
C4850 C4849 1.366 . S
C4850 C4854 1.385 . S
C4851 H4826 0.951 . S
C4851 C4849 1.388 . S
C4851 C4852 1.366 . S
C4852 C4851 1.366 . S
C4852 C4853 1.414 . S
C4852 C4855 1.499 . S
C4853 H4827 0.950 . S
C4853 C4852 1.414 . S
C4853 C4854 1.374 . S
C4854 H4828 0.950 . S
C4854 C4850 1.385 . S
C4854 C4853 1.374 . S
C4855 C4852 1.499 . S
C4855 C4856 1.373 . S
C4855 C4857 1.389 . S
C4856 H4829 0.950 . S
C4856 C4842 1.377 . S
C4856 C4855 1.373 . S
C4857 C4841 1.377 . S
C4857 C4855 1.389 . S
C4857 C4858 1.524 . S
C4858 C4857 1.524 . S
C4858 C4859 1.397 . S
C4858 C4863 1.363 . S
C4859 H4830 0.950 . S
C4859 C4858 1.397 . S
C4859 C4860 1.334 . S
C4860 H4831 0.950 . S
C4860 C4859 1.334 . S
C4860 C4861 1.287 . S
C4861 C4860 1.287 . S
C4861 C4862 1.524 . S
C4861 H4864 0.999 . S
C4862 H4832 0.950 . S
C4862 C4861 1.524 . S
C4862 C4863 1.415 . S
C4863 H4833 0.950 . S
C4863 C4858 1.363 . S
C4863 C4862 1.415 . S
H4864 C4861 0.999 . S
H4865 C4846 0.913 . S
H4866 C4884 0.951 . S
H4867 C4886 0.951 . S
H4868 C4888 0.950 . S
H4869 C4889 0.950 . S
H4870 C4891 0.950 . S
H4871 C4894 0.950 . S
H4872 C4895 0.950 . S
H4873 C4897 0.950 . S
H4874 C4898 0.950 . S
H4875 C4899 0.951 . S
H4876 C4901 0.951 . S
H4877 C4903 0.950 . S
H4878 C4904 0.950 . S
H4879 C4906 0.950 . S
H4880 C4909 0.950 . S
H4881 C4910 0.950 . S
H4882 C4912 0.950 . S
H4883 C4913 0.950 . S
C4884 H4866 0.951 . S
C4884 C4885 1.366 . S
C4884 C4886 1.388 . S
C4885 C4884 1.366 . S
C4885 C4889 1.385 . S
C4886 H4867 0.951 . S
C4886 C4884 1.388 . S
C4886 C4887 1.366 . S
C4887 C4886 1.366 . S
C4887 C4888 1.414 . S
C4887 C4890 1.499 . S
C4888 H4868 0.950 . S
C4888 C4887 1.414 . S
C4888 C4889 1.374 . S
C4889 H4869 0.950 . S
C4889 C4885 1.385 . S
C4889 C4888 1.374 . S
C4890 C4887 1.499 . S
C4890 C4891 1.373 . S
C4890 C4892 1.389 . S
C4891 H4870 0.950 . S
C4891 C4890 1.373 . S
C4891 C4907 1.377 . S
C4892 C4890 1.389 . S
C4892 C4893 1.524 . S
C4892 C4906 1.377 . S
C4893 C4892 1.524 . S
C4893 C4894 1.397 . S
C4893 C4898 1.363 . S
C4894 H4871 0.950 . S
C4894 C4893 1.397 . S
C4894 C4895 1.334 . S
C4895 H4872 0.950 . S
C4895 C4894 1.334 . S
C4895 C4896 1.287 . S
C4896 C4895 1.287 . S
C4896 C4897 1.524 . S
C4896 H4915 0.913 . S
C4897 H4873 0.950 . S
C4897 C4896 1.524 . S
C4897 C4898 1.415 . S
C4898 H4874 0.950 . S
C4898 C4893 1.363 . S
C4898 C4897 1.415 . S
C4899 H4875 0.951 . S
C4899 C4900 1.366 . S
C4899 C4901 1.388 . S
C4900 C4899 1.366 . S
C4900 C4904 1.385 . S
C4901 H4876 0.951 . S
C4901 C4899 1.388 . S
C4901 C4902 1.366 . S
C4902 C4901 1.366 . S
C4902 C4903 1.414 . S
C4902 C4905 1.499 . S
C4903 H4877 0.950 . S
C4903 C4902 1.414 . S
C4903 C4904 1.374 . S
C4904 H4878 0.950 . S
C4904 C4900 1.385 . S
C4904 C4903 1.374 . S
C4905 C4902 1.499 . S
C4905 C4906 1.373 . S
C4905 C4907 1.389 . S
C4906 H4879 0.950 . S
C4906 C4892 1.377 . S
C4906 C4905 1.373 . S
C4907 C4891 1.377 . S
C4907 C4905 1.389 . S
C4907 C4908 1.524 . S
C4908 C4907 1.524 . S
C4908 C4909 1.397 . S
C4908 C4913 1.363 . S
C4909 H4880 0.950 . S
C4909 C4908 1.397 . S
C4909 C4910 1.334 . S
C4910 H4881 0.950 . S
C4910 C4909 1.334 . S
C4910 C4911 1.287 . S
C4911 C4910 1.287 . S
C4911 C4912 1.524 . S
C4911 H4914 0.999 . S
C4912 H4882 0.950 . S
C4912 C4911 1.524 . S
C4912 C4913 1.415 . S
C4913 H4883 0.950 . S
C4913 C4908 1.363 . S
C4913 C4912 1.415 . S
H4914 C4911 0.999 . S
H4915 C4896 0.913 . S
H4916 C4934 0.951 . S
H4917 C4936 0.951 . S
H4918 C4938 0.950 . S
H4919 C4939 0.950 . S
H4920 C4941 0.950 . S
H4921 C4944 0.950 . S
H4922 C4945 0.950 . S
H4923 C4947 0.950 . S
H4924 C4948 0.950 . S
H4925 C4949 0.951 . S
H4926 C4951 0.951 . S
H4927 C4953 0.950 . S
H4928 C4954 0.950 . S
H4929 C4956 0.950 . S
H4930 C4959 0.950 . S
H4931 C4960 0.950 . S
H4932 C4962 0.950 . S
H4933 C4963 0.950 . S
C4934 H4916 0.951 . S
C4934 C4935 1.366 . S
C4934 C4936 1.388 . S
C4935 C4934 1.366 . S
C4935 C4939 1.385 . S
C4936 H4917 0.951 . S
C4936 C4934 1.388 . S
C4936 C4937 1.366 . S
C4937 C4936 1.366 . S
C4937 C4938 1.414 . S
C4937 C4940 1.499 . S
C4938 H4918 0.950 . S
C4938 C4937 1.414 . S
C4938 C4939 1.374 . S
C4939 H4919 0.950 . S
C4939 C4935 1.385 . S
C4939 C4938 1.374 . S
C4940 C4937 1.499 . S
C4940 C4941 1.373 . S
C4940 C4942 1.389 . S
C4941 H4920 0.950 . S
C4941 C4940 1.373 . S
C4941 C4957 1.377 . S
C4942 C4940 1.389 . S
C4942 C4943 1.524 . S
C4942 C4956 1.377 . S
C4943 C4942 1.524 . S
C4943 C4944 1.397 . S
C4943 C4948 1.363 . S
C4944 H4921 0.950 . S
C4944 C4943 1.397 . S
C4944 C4945 1.334 . S
C4945 H4922 0.950 . S
C4945 C4944 1.334 . S
C4945 C4946 1.287 . S
C4946 C4945 1.287 . S
C4946 C4947 1.524 . S
C4946 H4965 0.913 . S
C4947 H4923 0.950 . S
C4947 C4946 1.524 . S
C4947 C4948 1.415 . S
C4948 H4924 0.950 . S
C4948 C4943 1.363 . S
C4948 C4947 1.415 . S
C4949 H4925 0.951 . S
C4949 C4950 1.366 . S
C4949 C4951 1.388 . S
C4950 C4949 1.366 . S
C4950 C4954 1.385 . S
C4951 H4926 0.951 . S
C4951 C4949 1.388 . S
C4951 C4952 1.366 . S
C4952 C4951 1.366 . S
C4952 C4953 1.414 . S
C4952 C4955 1.499 . S
C4953 H4927 0.950 . S
C4953 C4952 1.414 . S
C4953 C4954 1.374 . S
C4954 H4928 0.950 . S
C4954 C4950 1.385 . S
C4954 C4953 1.374 . S
C4955 C4952 1.499 . S
C4955 C4956 1.373 . S
C4955 C4957 1.389 . S
C4956 H4929 0.950 . S
C4956 C4942 1.377 . S
C4956 C4955 1.373 . S
C4957 C4941 1.377 . S
C4957 C4955 1.389 . S
C4957 C4958 1.524 . S
C4958 C4957 1.524 . S
C4958 C4959 1.397 . S
C4958 C4963 1.363 . S
C4959 H4930 0.950 . S
C4959 C4958 1.397 . S
C4959 C4960 1.334 . S
C4960 H4931 0.950 . S
C4960 C4959 1.334 . S
C4960 C4961 1.287 . S
C4961 C4960 1.287 . S
C4961 C4962 1.524 . S
C4961 H4964 0.999 . S
C4962 H4932 0.950 . S
C4962 C4961 1.524 . S
C4962 C4963 1.415 . S
C4963 H4933 0.950 . S
C4963 C4958 1.363 . S
C4963 C4962 1.415 . S
H4964 C4961 0.999 . S
H4965 C4946 0.913 . S
H4966 C4984 0.951 . S
H4967 C4986 0.951 . S
H4968 C4988 0.950 . S
H4969 C4989 0.950 . S
H4970 C4991 0.950 . S
H4971 C4994 0.950 . S
H4972 C4995 0.950 . S
H4973 C4997 0.950 . S
H4974 C4998 0.950 . S
H4975 C4999 0.951 . S
H4976 C5001 0.951 . S
H4977 C5003 0.950 . S
H4978 C5004 0.950 . S
H4979 C5006 0.950 . S
H4980 C5009 0.950 . S
H4981 C5010 0.950 . S
H4982 C5012 0.950 . S
H4983 C5013 0.950 . S
C4984 H4966 0.951 . S
C4984 C4985 1.366 . S
C4984 C4986 1.388 . S
C4985 C4984 1.366 . S
C4985 C4989 1.385 . S
C4986 H4967 0.951 . S
C4986 C4984 1.388 . S
C4986 C4987 1.366 . S
C4987 C4986 1.366 . S
C4987 C4988 1.414 . S
C4987 C4990 1.499 . S
C4988 H4968 0.950 . S
C4988 C4987 1.414 . S
C4988 C4989 1.374 . S
C4989 H4969 0.950 . S
C4989 C4985 1.385 . S
C4989 C4988 1.374 . S
C4990 C4987 1.499 . S
C4990 C4991 1.373 . S
C4990 C4992 1.389 . S
C4991 H4970 0.950 . S
C4991 C4990 1.373 . S
C4991 C5007 1.377 . S
C4992 C4990 1.389 . S
C4992 C4993 1.524 . S
C4992 C5006 1.377 . S
C4993 C4992 1.524 . S
C4993 C4994 1.397 . S
C4993 C4998 1.363 . S
C4994 H4971 0.950 . S
C4994 C4993 1.397 . S
C4994 C4995 1.334 . S
C4995 H4972 0.950 . S
C4995 C4994 1.334 . S
C4995 C4996 1.287 . S
C4996 C4995 1.287 . S
C4996 C4997 1.524 . S
C4996 H5015 0.913 . S
C4997 H4973 0.950 . S
C4997 C4996 1.524 . S
C4997 C4998 1.415 . S
C4998 H4974 0.950 . S
C4998 C4993 1.363 . S
C4998 C4997 1.415 . S
C4999 H4975 0.951 . S
C4999 C5000 1.366 . S
C4999 C5001 1.388 . S
C5000 C4999 1.366 . S
C5000 C5004 1.385 . S
C5001 H4976 0.951 . S
C5001 C4999 1.388 . S
C5001 C5002 1.366 . S
C5002 C5001 1.366 . S
C5002 C5003 1.414 . S
C5002 C5005 1.499 . S
C5003 H4977 0.950 . S
C5003 C5002 1.414 . S
C5003 C5004 1.374 . S
C5004 H4978 0.950 . S
C5004 C5000 1.385 . S
C5004 C5003 1.374 . S
C5005 C5002 1.499 . S
C5005 C5006 1.373 . S
C5005 C5007 1.389 . S
C5006 H4979 0.950 . S
C5006 C4992 1.377 . S
C5006 C5005 1.373 . S
C5007 C4991 1.377 . S
C5007 C5005 1.389 . S
C5007 C5008 1.524 . S
C5008 C5007 1.524 . S
C5008 C5009 1.397 . S
C5008 C5013 1.363 . S
C5009 H4980 0.950 . S
C5009 C5008 1.397 . S
C5009 C5010 1.334 . S
C5010 H4981 0.950 . S
C5010 C5009 1.334 . S
C5010 C5011 1.287 . S
C5011 C5010 1.287 . S
C5011 C5012 1.524 . S
C5011 H5014 0.999 . S
C5012 H4982 0.950 . S
C5012 C5011 1.524 . S
C5012 C5013 1.415 . S
C5013 H4983 0.950 . S
C5013 C5008 1.363 . S
C5013 C5012 1.415 . S
H5014 C5011 0.999 . S
H5015 C4996 0.913 . S
H5016 C5034 0.951 . S
H5017 C5036 0.951 . S
H5018 C5038 0.950 . S
H5019 C5039 0.950 . S
H5020 C5041 0.950 . S
H5021 C5044 0.950 . S
H5022 C5045 0.950 . S
H5023 C5047 0.950 . S
H5024 C5048 0.950 . S
H5025 C5049 0.951 . S
H5026 C5051 0.951 . S
H5027 C5053 0.950 . S
H5028 C5054 0.950 . S
H5029 C5056 0.950 . S
H5030 C5059 0.950 . S
H5031 C5060 0.950 . S
H5032 C5062 0.950 . S
H5033 C5063 0.950 . S
C5034 H5016 0.951 . S
C5034 C5035 1.366 . S
C5034 C5036 1.388 . S
C5035 C5034 1.366 . S
C5035 C5039 1.385 . S
C5036 H5017 0.951 . S
C5036 C5034 1.388 . S
C5036 C5037 1.366 . S
C5037 C5036 1.366 . S
C5037 C5038 1.414 . S
C5037 C5040 1.499 . S
C5038 H5018 0.950 . S
C5038 C5037 1.414 . S
C5038 C5039 1.374 . S
C5039 H5019 0.950 . S
C5039 C5035 1.385 . S
C5039 C5038 1.374 . S
C5040 C5037 1.499 . S
C5040 C5041 1.373 . S
C5040 C5042 1.389 . S
C5041 H5020 0.950 . S
C5041 C5040 1.373 . S
C5041 C5057 1.377 . S
C5042 C5040 1.389 . S
C5042 C5043 1.524 . S
C5042 C5056 1.377 . S
C5043 C5042 1.524 . S
C5043 C5044 1.397 . S
C5043 C5048 1.363 . S
C5044 H5021 0.950 . S
C5044 C5043 1.397 . S
C5044 C5045 1.334 . S
C5045 H5022 0.950 . S
C5045 C5044 1.334 . S
C5045 C5046 1.287 . S
C5046 C5045 1.287 . S
C5046 C5047 1.524 . S
C5046 H5065 0.913 . S
C5047 H5023 0.950 . S
C5047 C5046 1.524 . S
C5047 C5048 1.415 . S
C5048 H5024 0.950 . S
C5048 C5043 1.363 . S
C5048 C5047 1.415 . S
C5049 H5025 0.951 . S
C5049 C5050 1.366 . S
C5049 C5051 1.388 . S
C5050 C5049 1.366 . S
C5050 C5054 1.385 . S
C5051 H5026 0.951 . S
C5051 C5049 1.388 . S
C5051 C5052 1.366 . S
C5052 C5051 1.366 . S
C5052 C5053 1.414 . S
C5052 C5055 1.499 . S
C5053 H5027 0.950 . S
C5053 C5052 1.414 . S
C5053 C5054 1.374 . S
C5054 H5028 0.950 . S
C5054 C5050 1.385 . S
C5054 C5053 1.374 . S
C5055 C5052 1.499 . S
C5055 C5056 1.373 . S
C5055 C5057 1.389 . S
C5056 H5029 0.950 . S
C5056 C5042 1.377 . S
C5056 C5055 1.373 . S
C5057 C5041 1.377 . S
C5057 C5055 1.389 . S
C5057 C5058 1.524 . S
C5058 C5057 1.524 . S
C5058 C5059 1.397 . S
C5058 C5063 1.363 . S
C5059 H5030 0.950 . S
C5059 C5058 1.397 . S
C5059 C5060 1.334 . S
C5060 H5031 0.950 . S
C5060 C5059 1.334 . S
C5060 C5061 1.287 . S
C5061 C5060 1.287 . S
C5061 C5062 1.524 . S
C5061 H5064 0.999 . S
C5062 H5032 0.950 . S
C5062 C5061 1.524 . S
C5062 C5063 1.415 . S
C5063 H5033 0.950 . S
C5063 C5058 1.363 . S
C5063 C5062 1.415 . S
H5064 C5061 0.999 . S
H5065 C5046 0.913 . S
H5066 C5084 0.951 . S
H5067 C5086 0.951 . S
H5068 C5088 0.950 . S
H5069 C5089 0.950 . S
H5070 C5091 0.950 . S
H5071 C5094 0.950 . S
H5072 C5095 0.950 . S
H5073 C5097 0.950 . S
H5074 C5098 0.950 . S
H5075 C5099 0.951 . S
H5076 C5101 0.951 . S
H5077 C5103 0.950 . S
H5078 C5104 0.950 . S
H5079 C5106 0.950 . S
H5080 C5109 0.950 . S
H5081 C5110 0.950 . S
H5082 C5112 0.950 . S
H5083 C5113 0.950 . S
C5084 H5066 0.951 . S
C5084 C5085 1.366 . S
C5084 C5086 1.388 . S
C5085 C5084 1.366 . S
C5085 C5089 1.385 . S
C5086 H5067 0.951 . S
C5086 C5084 1.388 . S
C5086 C5087 1.366 . S
C5087 C5086 1.366 . S
C5087 C5088 1.414 . S
C5087 C5090 1.499 . S
C5088 H5068 0.950 . S
C5088 C5087 1.414 . S
C5088 C5089 1.374 . S
C5089 H5069 0.950 . S
C5089 C5085 1.385 . S
C5089 C5088 1.374 . S
C5090 C5087 1.499 . S
C5090 C5091 1.373 . S
C5090 C5092 1.389 . S
C5091 H5070 0.950 . S
C5091 C5090 1.373 . S
C5091 C5107 1.377 . S
C5092 C5090 1.389 . S
C5092 C5093 1.524 . S
C5092 C5106 1.377 . S
C5093 C5092 1.524 . S
C5093 C5094 1.397 . S
C5093 C5098 1.363 . S
C5094 H5071 0.950 . S
C5094 C5093 1.397 . S
C5094 C5095 1.334 . S
C5095 H5072 0.950 . S
C5095 C5094 1.334 . S
C5095 C5096 1.287 . S
C5096 C5095 1.287 . S
C5096 C5097 1.524 . S
C5096 H5115 0.913 . S
C5097 H5073 0.950 . S
C5097 C5096 1.524 . S
C5097 C5098 1.415 . S
C5098 H5074 0.950 . S
C5098 C5093 1.363 . S
C5098 C5097 1.415 . S
C5099 H5075 0.951 . S
C5099 C5100 1.366 . S
C5099 C5101 1.388 . S
C5100 C5099 1.366 . S
C5100 C5104 1.385 . S
C5101 H5076 0.951 . S
C5101 C5099 1.388 . S
C5101 C5102 1.366 . S
C5102 C5101 1.366 . S
C5102 C5103 1.414 . S
C5102 C5105 1.499 . S
C5103 H5077 0.950 . S
C5103 C5102 1.414 . S
C5103 C5104 1.374 . S
C5104 H5078 0.950 . S
C5104 C5100 1.385 . S
C5104 C5103 1.374 . S
C5105 C5102 1.499 . S
C5105 C5106 1.373 . S
C5105 C5107 1.389 . S
C5106 H5079 0.950 . S
C5106 C5092 1.377 . S
C5106 C5105 1.373 . S
C5107 C5091 1.377 . S
C5107 C5105 1.389 . S
C5107 C5108 1.524 . S
C5108 C5107 1.524 . S
C5108 C5109 1.397 . S
C5108 C5113 1.363 . S
C5109 H5080 0.950 . S
C5109 C5108 1.397 . S
C5109 C5110 1.334 . S
C5110 H5081 0.950 . S
C5110 C5109 1.334 . S
C5110 C5111 1.287 . S
C5111 C5110 1.287 . S
C5111 C5112 1.524 . S
C5111 H5114 0.999 . S
C5112 H5082 0.950 . S
C5112 C5111 1.524 . S
C5112 C5113 1.415 . S
C5113 H5083 0.950 . S
C5113 C5108 1.363 . S
C5113 C5112 1.415 . S
H5114 C5111 0.999 . S
H5115 C5096 0.913 . S
H5116 C5134 0.951 . S
H5117 C5136 0.951 . S
H5118 C5138 0.950 . S
H5119 C5139 0.950 . S
H5120 C5141 0.950 . S
H5121 C5144 0.950 . S
H5122 C5145 0.950 . S
H5123 C5147 0.950 . S
H5124 C5148 0.950 . S
H5125 C5149 0.951 . S
H5126 C5151 0.951 . S
H5127 C5153 0.950 . S
H5128 C5154 0.950 . S
H5129 C5156 0.950 . S
H5130 C5159 0.950 . S
H5131 C5160 0.950 . S
H5132 C5162 0.950 . S
H5133 C5163 0.950 . S
C5134 H5116 0.951 . S
C5134 C5135 1.366 . S
C5134 C5136 1.388 . S
C5135 C5134 1.366 . S
C5135 C5139 1.385 . S
C5136 H5117 0.951 . S
C5136 C5134 1.388 . S
C5136 C5137 1.366 . S
C5137 C5136 1.366 . S
C5137 C5138 1.414 . S
C5137 C5140 1.499 . S
C5138 H5118 0.950 . S
C5138 C5137 1.414 . S
C5138 C5139 1.374 . S
C5139 H5119 0.950 . S
C5139 C5135 1.385 . S
C5139 C5138 1.374 . S
C5140 C5137 1.499 . S
C5140 C5141 1.373 . S
C5140 C5142 1.389 . S
C5141 H5120 0.950 . S
C5141 C5140 1.373 . S
C5141 C5157 1.377 . S
C5142 C5140 1.389 . S
C5142 C5143 1.524 . S
C5142 C5156 1.377 . S
C5143 C5142 1.524 . S
C5143 C5144 1.397 . S
C5143 C5148 1.363 . S
C5144 H5121 0.950 . S
C5144 C5143 1.397 . S
C5144 C5145 1.334 . S
C5145 H5122 0.950 . S
C5145 C5144 1.334 . S
C5145 C5146 1.287 . S
C5146 C5145 1.287 . S
C5146 C5147 1.524 . S
C5146 H5165 0.913 . S
C5147 H5123 0.950 . S
C5147 C5146 1.524 . S
C5147 C5148 1.415 . S
C5148 H5124 0.950 . S
C5148 C5143 1.363 . S
C5148 C5147 1.415 . S
C5149 H5125 0.951 . S
C5149 C5150 1.366 . S
C5149 C5151 1.388 . S
C5150 C5149 1.366 . S
C5150 C5154 1.385 . S
C5151 H5126 0.951 . S
C5151 C5149 1.388 . S
C5151 C5152 1.366 . S
C5152 C5151 1.366 . S
C5152 C5153 1.414 . S
C5152 C5155 1.499 . S
C5153 H5127 0.950 . S
C5153 C5152 1.414 . S
C5153 C5154 1.374 . S
C5154 H5128 0.950 . S
C5154 C5150 1.385 . S
C5154 C5153 1.374 . S
C5155 C5152 1.499 . S
C5155 C5156 1.373 . S
C5155 C5157 1.389 . S
C5156 H5129 0.950 . S
C5156 C5142 1.377 . S
C5156 C5155 1.373 . S
C5157 C5141 1.377 . S
C5157 C5155 1.389 . S
C5157 C5158 1.524 . S
C5158 C5157 1.524 . S
C5158 C5159 1.397 . S
C5158 C5163 1.363 . S
C5159 H5130 0.950 . S
C5159 C5158 1.397 . S
C5159 C5160 1.334 . S
C5160 H5131 0.950 . S
C5160 C5159 1.334 . S
C5160 C5161 1.287 . S
C5161 C5160 1.287 . S
C5161 C5162 1.524 . S
C5161 H5164 0.999 . S
C5162 H5132 0.950 . S
C5162 C5161 1.524 . S
C5162 C5163 1.415 . S
C5163 H5133 0.950 . S
C5163 C5158 1.363 . S
C5163 C5162 1.415 . S
H5164 C5161 0.999 . S
H5165 C5146 0.913 . S
H5166 C5184 0.951 . S
H5167 C5186 0.951 . S
H5168 C5188 0.950 . S
H5169 C5189 0.950 . S
H5170 C5191 0.950 . S
H5171 C5194 0.950 . S
H5172 C5195 0.950 . S
H5173 C5197 0.950 . S
H5174 C5198 0.950 . S
H5175 C5199 0.951 . S
H5176 C5201 0.951 . S
H5177 C5203 0.950 . S
H5178 C5204 0.950 . S
H5179 C5206 0.950 . S
H5180 C5209 0.950 . S
H5181 C5210 0.950 . S
H5182 C5212 0.950 . S
H5183 C5213 0.950 . S
C5184 H5166 0.951 . S
C5184 C5185 1.366 . S
C5184 C5186 1.388 . S
C5185 C5184 1.366 . S
C5185 C5189 1.385 . S
C5186 H5167 0.951 . S
C5186 C5184 1.388 . S
C5186 C5187 1.366 . S
C5187 C5186 1.366 . S
C5187 C5188 1.414 . S
C5187 C5190 1.499 . S
C5188 H5168 0.950 . S
C5188 C5187 1.414 . S
C5188 C5189 1.374 . S
C5189 H5169 0.950 . S
C5189 C5185 1.385 . S
C5189 C5188 1.374 . S
C5190 C5187 1.499 . S
C5190 C5191 1.373 . S
C5190 C5192 1.389 . S
C5191 H5170 0.950 . S
C5191 C5190 1.373 . S
C5191 C5207 1.377 . S
C5192 C5190 1.389 . S
C5192 C5193 1.524 . S
C5192 C5206 1.377 . S
C5193 C5192 1.524 . S
C5193 C5194 1.397 . S
C5193 C5198 1.363 . S
C5194 H5171 0.950 . S
C5194 C5193 1.397 . S
C5194 C5195 1.334 . S
C5195 H5172 0.950 . S
C5195 C5194 1.334 . S
C5195 C5196 1.287 . S
C5196 C5195 1.287 . S
C5196 C5197 1.524 . S
C5196 H5215 0.913 . S
C5197 H5173 0.950 . S
C5197 C5196 1.524 . S
C5197 C5198 1.415 . S
C5198 H5174 0.950 . S
C5198 C5193 1.363 . S
C5198 C5197 1.415 . S
C5199 H5175 0.951 . S
C5199 C5200 1.366 . S
C5199 C5201 1.388 . S
C5200 C5199 1.366 . S
C5200 C5204 1.385 . S
C5201 H5176 0.951 . S
C5201 C5199 1.388 . S
C5201 C5202 1.366 . S
C5202 C5201 1.366 . S
C5202 C5203 1.414 . S
C5202 C5205 1.499 . S
C5203 H5177 0.950 . S
C5203 C5202 1.414 . S
C5203 C5204 1.374 . S
C5204 H5178 0.950 . S
C5204 C5200 1.385 . S
C5204 C5203 1.374 . S
C5205 C5202 1.499 . S
C5205 C5206 1.373 . S
C5205 C5207 1.389 . S
C5206 H5179 0.950 . S
C5206 C5192 1.377 . S
C5206 C5205 1.373 . S
C5207 C5191 1.377 . S
C5207 C5205 1.389 . S
C5207 C5208 1.524 . S
C5208 C5207 1.524 . S
C5208 C5209 1.397 . S
C5208 C5213 1.363 . S
C5209 H5180 0.950 . S
C5209 C5208 1.397 . S
C5209 C5210 1.334 . S
C5210 H5181 0.950 . S
C5210 C5209 1.334 . S
C5210 C5211 1.287 . S
C5211 C5210 1.287 . S
C5211 C5212 1.524 . S
C5211 H5214 0.999 . S
C5212 H5182 0.950 . S
C5212 C5211 1.524 . S
C5212 C5213 1.415 . S
C5213 H5183 0.950 . S
C5213 C5208 1.363 . S
C5213 C5212 1.415 . S
H5214 C5211 0.999 . S
H5215 C5196 0.913 . S
H5216 C5234 0.951 . S
H5217 C5236 0.951 . S
H5218 C5238 0.950 . S
H5219 C5239 0.950 . S
H5220 C5241 0.950 . S
H5221 C5244 0.950 . S
H5222 C5245 0.950 . S
H5223 C5247 0.950 . S
H5224 C5248 0.950 . S
H5225 C5249 0.951 . S
H5226 C5251 0.951 . S
H5227 C5253 0.950 . S
H5228 C5254 0.950 . S
H5229 C5256 0.950 . S
H5230 C5259 0.950 . S
H5231 C5260 0.950 . S
H5232 C5262 0.950 . S
H5233 C5263 0.950 . S
C5234 H5216 0.951 . S
C5234 C5235 1.366 . S
C5234 C5236 1.388 . S
C5235 C5234 1.366 . S
C5235 C5239 1.385 . S
C5236 H5217 0.951 . S
C5236 C5234 1.388 . S
C5236 C5237 1.366 . S
C5237 C5236 1.366 . S
C5237 C5238 1.414 . S
C5237 C5240 1.499 . S
C5238 H5218 0.950 . S
C5238 C5237 1.414 . S
C5238 C5239 1.374 . S
C5239 H5219 0.950 . S
C5239 C5235 1.385 . S
C5239 C5238 1.374 . S
C5240 C5237 1.499 . S
C5240 C5241 1.373 . S
C5240 C5242 1.389 . S
C5241 H5220 0.950 . S
C5241 C5240 1.373 . S
C5241 C5257 1.377 . S
C5242 C5240 1.389 . S
C5242 C5243 1.524 . S
C5242 C5256 1.377 . S
C5243 C5242 1.524 . S
C5243 C5244 1.397 . S
C5243 C5248 1.363 . S
C5244 H5221 0.950 . S
C5244 C5243 1.397 . S
C5244 C5245 1.334 . S
C5245 H5222 0.950 . S
C5245 C5244 1.334 . S
C5245 C5246 1.287 . S
C5246 C5245 1.287 . S
C5246 C5247 1.524 . S
C5246 H5265 0.913 . S
C5247 H5223 0.950 . S
C5247 C5246 1.524 . S
C5247 C5248 1.415 . S
C5248 H5224 0.950 . S
C5248 C5243 1.363 . S
C5248 C5247 1.415 . S
C5249 H5225 0.951 . S
C5249 C5250 1.366 . S
C5249 C5251 1.388 . S
C5250 C5249 1.366 . S
C5250 C5254 1.385 . S
C5251 H5226 0.951 . S
C5251 C5249 1.388 . S
C5251 C5252 1.366 . S
C5252 C5251 1.366 . S
C5252 C5253 1.414 . S
C5252 C5255 1.499 . S
C5253 H5227 0.950 . S
C5253 C5252 1.414 . S
C5253 C5254 1.374 . S
C5254 H5228 0.950 . S
C5254 C5250 1.385 . S
C5254 C5253 1.374 . S
C5255 C5252 1.499 . S
C5255 C5256 1.373 . S
C5255 C5257 1.389 . S
C5256 H5229 0.950 . S
C5256 C5242 1.377 . S
C5256 C5255 1.373 . S
C5257 C5241 1.377 . S
C5257 C5255 1.389 . S
C5257 C5258 1.524 . S
C5258 C5257 1.524 . S
C5258 C5259 1.397 . S
C5258 C5263 1.363 . S
C5259 H5230 0.950 . S
C5259 C5258 1.397 . S
C5259 C5260 1.334 . S
C5260 H5231 0.950 . S
C5260 C5259 1.334 . S
C5260 C5261 1.287 . S
C5261 C5260 1.287 . S
C5261 C5262 1.524 . S
C5261 H5264 0.999 . S
C5262 H5232 0.950 . S
C5262 C5261 1.524 . S
C5262 C5263 1.415 . S
C5263 H5233 0.950 . S
C5263 C5258 1.363 . S
C5263 C5262 1.415 . S
H5264 C5261 0.999 . S
H5265 C5246 0.913 . S
H5266 C5284 0.951 . S
H5267 C5286 0.951 . S
H5268 C5288 0.950 . S
H5269 C5289 0.950 . S
H5270 C5291 0.950 . S
H5271 C5294 0.950 . S
H5272 C5295 0.950 . S
H5273 C5297 0.950 . S
H5274 C5298 0.950 . S
H5275 C5299 0.951 . S
H5276 C5301 0.951 . S
H5277 C5303 0.950 . S
H5278 C5304 0.950 . S
H5279 C5306 0.950 . S
H5280 C5309 0.950 . S
H5281 C5310 0.950 . S
H5282 C5312 0.950 . S
H5283 C5313 0.950 . S
C5284 H5266 0.951 . S
C5284 C5285 1.366 . S
C5284 C5286 1.388 . S
C5285 C5284 1.366 . S
C5285 C5289 1.385 . S
C5286 H5267 0.951 . S
C5286 C5284 1.388 . S
C5286 C5287 1.366 . S
C5287 C5286 1.366 . S
C5287 C5288 1.414 . S
C5287 C5290 1.499 . S
C5288 H5268 0.950 . S
C5288 C5287 1.414 . S
C5288 C5289 1.374 . S
C5289 H5269 0.950 . S
C5289 C5285 1.385 . S
C5289 C5288 1.374 . S
C5290 C5287 1.499 . S
C5290 C5291 1.373 . S
C5290 C5292 1.389 . S
C5291 H5270 0.950 . S
C5291 C5290 1.373 . S
C5291 C5307 1.377 . S
C5292 C5290 1.389 . S
C5292 C5293 1.524 . S
C5292 C5306 1.377 . S
C5293 C5292 1.524 . S
C5293 C5294 1.397 . S
C5293 C5298 1.363 . S
C5294 H5271 0.950 . S
C5294 C5293 1.397 . S
C5294 C5295 1.334 . S
C5295 H5272 0.950 . S
C5295 C5294 1.334 . S
C5295 C5296 1.287 . S
C5296 C5295 1.287 . S
C5296 C5297 1.524 . S
C5296 H5315 0.913 . S
C5297 H5273 0.950 . S
C5297 C5296 1.524 . S
C5297 C5298 1.415 . S
C5298 H5274 0.950 . S
C5298 C5293 1.363 . S
C5298 C5297 1.415 . S
C5299 H5275 0.951 . S
C5299 C5300 1.366 . S
C5299 C5301 1.388 . S
C5300 C5299 1.366 . S
C5300 C5304 1.385 . S
C5301 H5276 0.951 . S
C5301 C5299 1.388 . S
C5301 C5302 1.366 . S
C5302 C5301 1.366 . S
C5302 C5303 1.414 . S
C5302 C5305 1.499 . S
C5303 H5277 0.950 . S
C5303 C5302 1.414 . S
C5303 C5304 1.374 . S
C5304 H5278 0.950 . S
C5304 C5300 1.385 . S
C5304 C5303 1.374 . S
C5305 C5302 1.499 . S
C5305 C5306 1.373 . S
C5305 C5307 1.389 . S
C5306 H5279 0.950 . S
C5306 C5292 1.377 . S
C5306 C5305 1.373 . S
C5307 C5291 1.377 . S
C5307 C5305 1.389 . S
C5307 C5308 1.524 . S
C5308 C5307 1.524 . S
C5308 C5309 1.397 . S
C5308 C5313 1.363 . S
C5309 H5280 0.950 . S
C5309 C5308 1.397 . S
C5309 C5310 1.334 . S
C5310 H5281 0.950 . S
C5310 C5309 1.334 . S
C5310 C5311 1.287 . S
C5311 C5310 1.287 . S
C5311 C5312 1.524 . S
C5311 H5314 0.999 . S
C5312 H5282 0.950 . S
C5312 C5311 1.524 . S
C5312 C5313 1.415 . S
C5313 H5283 0.950 . S
C5313 C5308 1.363 . S
C5313 C5312 1.415 . S
H5314 C5311 0.999 . S
H5315 C5296 0.913 . S
H5316 C5334 0.951 . S
H5317 C5336 0.951 . S
H5318 C5338 0.950 . S
H5319 C5339 0.950 . S
H5320 C5341 0.950 . S
H5321 C5344 0.950 . S
H5322 C5345 0.950 . S
H5323 C5347 0.950 . S
H5324 C5348 0.950 . S
H5325 C5349 0.951 . S
H5326 C5351 0.951 . S
H5327 C5353 0.950 . S
H5328 C5354 0.950 . S
H5329 C5356 0.950 . S
H5330 C5359 0.950 . S
H5331 C5360 0.950 . S
H5332 C5362 0.950 . S
H5333 C5363 0.950 . S
C5334 H5316 0.951 . S
C5334 C5335 1.366 . S
C5334 C5336 1.388 . S
C5335 C5334 1.366 . S
C5335 C5339 1.385 . S
C5336 H5317 0.951 . S
C5336 C5334 1.388 . S
C5336 C5337 1.366 . S
C5337 C5336 1.366 . S
C5337 C5338 1.414 . S
C5337 C5340 1.499 . S
C5338 H5318 0.950 . S
C5338 C5337 1.414 . S
C5338 C5339 1.374 . S
C5339 H5319 0.950 . S
C5339 C5335 1.385 . S
C5339 C5338 1.374 . S
C5340 C5337 1.499 . S
C5340 C5341 1.373 . S
C5340 C5342 1.389 . S
C5341 H5320 0.950 . S
C5341 C5340 1.373 . S
C5341 C5357 1.377 . S
C5342 C5340 1.389 . S
C5342 C5343 1.524 . S
C5342 C5356 1.377 . S
C5343 C5342 1.524 . S
C5343 C5344 1.397 . S
C5343 C5348 1.363 . S
C5344 H5321 0.950 . S
C5344 C5343 1.397 . S
C5344 C5345 1.334 . S
C5345 H5322 0.950 . S
C5345 C5344 1.334 . S
C5345 C5346 1.287 . S
C5346 C5345 1.287 . S
C5346 C5347 1.524 . S
C5346 H5365 0.913 . S
C5347 H5323 0.950 . S
C5347 C5346 1.524 . S
C5347 C5348 1.415 . S
C5348 H5324 0.950 . S
C5348 C5343 1.363 . S
C5348 C5347 1.415 . S
C5349 H5325 0.951 . S
C5349 C5350 1.366 . S
C5349 C5351 1.388 . S
C5350 C5349 1.366 . S
C5350 C5354 1.385 . S
C5351 H5326 0.951 . S
C5351 C5349 1.388 . S
C5351 C5352 1.366 . S
C5352 C5351 1.366 . S
C5352 C5353 1.414 . S
C5352 C5355 1.499 . S
C5353 H5327 0.950 . S
C5353 C5352 1.414 . S
C5353 C5354 1.374 . S
C5354 H5328 0.950 . S
C5354 C5350 1.385 . S
C5354 C5353 1.374 . S
C5355 C5352 1.499 . S
C5355 C5356 1.373 . S
C5355 C5357 1.389 . S
C5356 H5329 0.950 . S
C5356 C5342 1.377 . S
C5356 C5355 1.373 . S
C5357 C5341 1.377 . S
C5357 C5355 1.389 . S
C5357 C5358 1.524 . S
C5358 C5357 1.524 . S
C5358 C5359 1.397 . S
C5358 C5363 1.363 . S
C5359 H5330 0.950 . S
C5359 C5358 1.397 . S
C5359 C5360 1.334 . S
C5360 H5331 0.950 . S
C5360 C5359 1.334 . S
C5360 C5361 1.287 . S
C5361 C5360 1.287 . S
C5361 C5362 1.524 . S
C5361 H5364 0.999 . S
C5362 H5332 0.950 . S
C5362 C5361 1.524 . S
C5362 C5363 1.415 . S
C5363 H5333 0.950 . S
C5363 C5358 1.363 . S
C5363 C5362 1.415 . S
H5364 C5361 0.999 . S
H5365 C5346 0.913 . S
H5366 C5384 0.951 1_556 S
H5367 C5386 0.951 1_556 S
H5368 C5388 0.950 . S
H5369 C5389 0.950 . S
H5370 C5391 0.950 . S
H5371 C5394 0.950 . S
H5372 C5395 0.953 . S
H5373 C5397 0.950 . S
H5374 C5398 0.950 . S
H5375 C5399 0.951 . S
H5376 C5401 0.951 . S
H5377 C5403 0.950 . S
H5378 C5404 0.950 . S
H5379 C5406 0.950 . S
H5380 C5409 0.950 1_556 S
H5381 C5410 0.950 1_556 S
H5382 C5412 0.950 . S
H5383 C5413 0.950 . S
C5384 H5366 0.951 1_554 S
C5384 C5385 1.366 . S
C5384 C5386 1.388 . S
C5385 C5384 1.366 . S
C5385 C5389 1.385 . S
C5386 H5367 0.951 1_554 S
C5386 C5384 1.388 . S
C5386 C5387 1.366 . S
C5387 C5386 1.366 . S
C5387 C5388 1.414 . S
C5387 C5390 1.499 . S
C5388 H5368 0.950 . S
C5388 C5387 1.414 . S
C5388 C5389 1.374 . S
C5389 H5369 0.950 . S
C5389 C5385 1.385 . S
C5389 C5388 1.374 . S
C5390 C5387 1.499 . S
C5390 C5391 1.373 . S
C5390 C5392 1.389 . S
C5391 H5370 0.950 . S
C5391 C5390 1.373 . S
C5391 C5407 1.377 . S
C5392 C5390 1.389 . S
C5392 C5393 1.524 . S
C5392 C5406 1.377 . S
C5393 C5392 1.524 . S
C5393 C5394 1.397 . S
C5393 C5398 1.363 1_554 S
C5394 H5371 0.950 . S
C5394 C5393 1.397 . S
C5394 C5395 1.334 . S
C5395 H5372 0.953 . S
C5395 C5394 1.334 . S
C5395 C5396 1.287 1_565 S
C5396 C5395 1.287 1_545 S
C5396 C5397 1.524 1_554 S
C5396 H5415 0.913 . S
C5397 H5373 0.950 . S
C5397 C5396 1.524 1_556 S
C5397 C5398 1.415 1_545 S
C5398 H5374 0.950 . S
C5398 C5393 1.363 1_556 S
C5398 C5397 1.415 1_565 S
C5399 H5375 0.951 . S
C5399 C5400 1.339 1_565 S
C5399 C5401 1.388 . S
C5400 C5399 1.339 1_545 S
C5400 C5404 1.389 1_554 S
C5401 H5376 0.951 . S
C5401 C5399 1.388 . S
C5401 C5402 1.366 . S
C5402 C5401 1.366 . S
C5402 C5403 1.414 1_554 S
C5402 C5405 1.499 . S
C5403 H5377 0.950 . S
C5403 C5402 1.414 1_556 S
C5403 C5404 1.374 1_565 S
C5404 H5378 0.950 . S
C5404 C5400 1.389 1_556 S
C5404 C5403 1.374 1_545 S
C5405 C5402 1.499 . S
C5405 C5406 1.373 . S
C5405 C5407 1.389 . S
C5406 H5379 0.950 . S
C5406 C5392 1.377 . S
C5406 C5405 1.373 . S
C5407 C5391 1.377 . S
C5407 C5405 1.389 . S
C5407 C5408 1.524 . S
C5408 C5407 1.524 . S
C5408 C5409 1.397 . S
C5408 C5413 1.363 . S
C5409 H5380 0.950 1_554 S
C5409 C5408 1.397 . S
C5409 C5410 1.334 . S
C5410 H5381 0.950 1_554 S
C5410 C5409 1.334 . S
C5410 C5411 1.287 . S
C5411 C5410 1.287 . S
C5411 C5412 1.524 . S
C5411 H5414 0.999 . S
C5412 H5382 0.950 . S
C5412 C5411 1.524 . S
C5412 C5413 1.415 . S
C5413 H5383 0.950 . S
C5413 C5408 1.363 . S
C5413 C5412 1.415 . S
H5414 C5411 0.999 . S
H5415 C5396 0.913 . S
H5416 C5434 0.951 . S
H5417 C5436 0.951 . S
H5418 C5438 0.950 . S
H5419 C5439 0.950 . S
H5420 C5441 0.950 . S
H5421 C5444 0.950 . S
H5422 C5445 0.950 . S
H5423 C5447 0.950 . S
H5424 C5448 0.950 . S
H5425 C5449 0.951 . S
H5426 C5451 0.951 . S
H5427 C5453 0.950 . S
H5428 C5454 0.950 . S
H5429 C5456 0.950 . S
H5430 C5459 0.950 . S
H5431 C5460 0.950 . S
H5432 C5462 0.950 . S
H5433 C5463 0.950 . S
C5434 H5416 0.951 . S
C5434 C5435 1.366 . S
C5434 C5436 1.388 . S
C5435 C5434 1.366 . S
C5435 C5439 1.385 . S
C5436 H5417 0.951 . S
C5436 C5434 1.388 . S
C5436 C5437 1.366 . S
C5437 C5436 1.366 . S
C5437 C5438 1.414 . S
C5437 C5440 1.499 . S
C5438 H5418 0.950 . S
C5438 C5437 1.414 . S
C5438 C5439 1.374 . S
C5439 H5419 0.950 . S
C5439 C5435 1.385 . S
C5439 C5438 1.374 . S
C5440 C5437 1.499 . S
C5440 C5441 1.373 . S
C5440 C5442 1.389 . S
C5441 H5420 0.950 . S
C5441 C5440 1.373 . S
C5441 C5457 1.377 . S
C5442 C5440 1.389 . S
C5442 C5443 1.524 . S
C5442 C5456 1.377 . S
C5443 C5442 1.524 . S
C5443 C5444 1.397 . S
C5443 C5448 1.363 . S
C5444 H5421 0.950 . S
C5444 C5443 1.397 . S
C5444 C5445 1.334 . S
C5445 H5422 0.950 . S
C5445 C5444 1.334 . S
C5445 C5446 1.287 . S
C5446 C5445 1.287 . S
C5446 C5447 1.524 . S
C5446 H5465 0.913 . S
C5447 H5423 0.950 . S
C5447 C5446 1.524 . S
C5447 C5448 1.415 . S
C5448 H5424 0.950 . S
C5448 C5443 1.363 . S
C5448 C5447 1.415 . S
C5449 H5425 0.951 . S
C5449 C5450 1.366 . S
C5449 C5451 1.388 . S
C5450 C5449 1.366 . S
C5450 C5454 1.385 . S
C5451 H5426 0.951 . S
C5451 C5449 1.388 . S
C5451 C5452 1.366 . S
C5452 C5451 1.366 . S
C5452 C5453 1.414 . S
C5452 C5455 1.499 . S
C5453 H5427 0.950 . S
C5453 C5452 1.414 . S
C5453 C5454 1.374 . S
C5454 H5428 0.950 . S
C5454 C5450 1.385 . S
C5454 C5453 1.374 . S
C5455 C5452 1.499 . S
C5455 C5456 1.373 . S
C5455 C5457 1.389 . S
C5456 H5429 0.950 . S
C5456 C5442 1.377 . S
C5456 C5455 1.373 . S
C5457 C5441 1.377 . S
C5457 C5455 1.389 . S
C5457 C5458 1.524 . S
C5458 C5457 1.524 . S
C5458 C5459 1.397 . S
C5458 C5463 1.363 . S
C5459 H5430 0.950 . S
C5459 C5458 1.397 . S
C5459 C5460 1.334 . S
C5460 H5431 0.950 . S
C5460 C5459 1.334 . S
C5460 C5461 1.287 . S
C5461 C5460 1.287 . S
C5461 C5462 1.524 . S
C5461 H5464 0.999 . S
C5462 H5432 0.950 . S
C5462 C5461 1.524 . S
C5462 C5463 1.415 . S
C5463 H5433 0.950 . S
C5463 C5458 1.363 . S
C5463 C5462 1.415 . S
H5464 C5461 0.999 . S
H5465 C5446 0.913 . S
H5466 C5484 0.951 . S
H5467 C5486 0.951 1_556 S
H5468 C5488 0.950 . S
H5469 C5489 0.950 . S
H5470 C5491 0.950 . S
H5471 C5494 0.950 . S
H5472 C5495 0.950 . S
H5473 C5497 0.950 . S
H5474 C5498 0.950 . S
H5475 C5499 0.951 . S
H5476 C5501 0.951 . S
H5477 C5503 0.950 . S
H5478 C5504 0.950 . S
H5479 C5506 0.950 . S
H5480 C5509 0.950 . S
H5481 C5510 0.950 . S
H5482 C5512 0.947 1_554 S
H5483 C5513 0.950 . S
C5484 H5466 0.951 . S
C5484 C5485 1.366 1_556 S
C5484 C5486 1.388 1_556 S
C5485 C5484 1.366 1_554 S
C5485 C5489 1.385 . S
C5486 H5467 0.951 1_554 S
C5486 C5484 1.388 1_554 S
C5486 C5487 1.366 . S
C5487 C5486 1.366 . S
C5487 C5488 1.414 . S
C5487 C5490 1.499 . S
C5488 H5468 0.950 . S
C5488 C5487 1.414 . S
C5488 C5489 1.374 . S
C5489 H5469 0.950 . S
C5489 C5485 1.385 . S
C5489 C5488 1.374 . S
C5490 C5487 1.499 . S
C5490 C5491 1.373 . S
C5490 C5492 1.389 . S
C5491 H5470 0.950 . S
C5491 C5490 1.373 . S
C5491 C5507 1.377 . S
C5492 C5490 1.389 . S
C5492 C5493 1.524 . S
C5492 C5506 1.377 . S
C5493 C5492 1.524 . S
C5493 C5494 1.397 . S
C5493 C5498 1.363 . S
C5494 H5471 0.950 . S
C5494 C5493 1.397 . S
C5494 C5495 1.334 . S
C5495 H5472 0.950 . S
C5495 C5494 1.334 . S
C5495 C5496 1.287 . S
C5496 C5495 1.287 . S
C5496 C5497 1.524 . S
C5496 H5515 0.913 . S
C5497 H5473 0.950 . S
C5497 C5496 1.524 . S
C5497 C5498 1.415 . S
C5498 H5474 0.950 . S
C5498 C5493 1.363 . S
C5498 C5497 1.415 . S
C5499 H5475 0.951 . S
C5499 C5500 1.366 . S
C5499 C5501 1.388 . S
C5500 C5499 1.366 . S
C5500 C5504 1.385 . S
C5501 H5476 0.951 . S
C5501 C5499 1.388 . S
C5501 C5502 1.366 . S
C5502 C5501 1.366 . S
C5502 C5503 1.414 . S
C5502 C5505 1.499 . S
C5503 H5477 0.950 . S
C5503 C5502 1.414 . S
C5503 C5504 1.374 . S
C5504 H5478 0.950 . S
C5504 C5500 1.385 . S
C5504 C5503 1.374 . S
C5505 C5502 1.499 . S
C5505 C5506 1.373 . S
C5505 C5507 1.389 . S
C5506 H5479 0.950 . S
C5506 C5492 1.377 . S
C5506 C5505 1.373 . S
C5507 C5491 1.377 . S
C5507 C5505 1.389 . S
C5507 C5508 1.524 . S
C5508 C5507 1.524 . S
C5508 C5509 1.397 1_554 S
C5508 C5513 1.363 . S
C5509 H5480 0.950 . S
C5509 C5508 1.397 1_556 S
C5509 C5510 1.334 . S
C5510 H5481 0.950 . S
C5510 C5509 1.334 . S
C5510 C5511 1.287 . S
C5511 C5510 1.287 . S
C5511 C5512 1.524 . S
C5511 H5514 0.999 . S
C5512 H5482 0.947 1_556 S
C5512 C5511 1.524 . S
C5512 C5513 1.415 1_556 S
C5513 H5483 0.950 . S
C5513 C5508 1.363 . S
C5513 C5512 1.415 1_554 S
H5514 C5511 0.999 . S
H5515 C5496 0.913 . S
H5516 C5534 0.951 . S
H5517 C5536 0.951 . S
H5518 C5538 0.950 . S
H5519 C5539 0.950 . S
H5520 C5541 0.950 . S
H5521 C5544 0.950 . S
H5522 C5545 0.950 . S
H5523 C5547 0.950 . S
H5524 C5548 0.950 . S
H5525 C5549 0.951 . S
H5526 C5551 0.951 . S
H5527 C5553 0.950 . S
H5528 C5554 0.950 . S
H5529 C5556 0.950 . S
H5530 C5559 0.950 . S
H5531 C5560 0.950 . S
H5532 C5562 0.950 . S
H5533 C5563 0.950 . S
C5534 H5516 0.951 . S
C5534 C5535 1.366 . S
C5534 C5536 1.388 . S
C5535 C5534 1.366 . S
C5535 C5539 1.385 . S
C5536 H5517 0.951 . S
C5536 C5534 1.388 . S
C5536 C5537 1.366 . S
C5537 C5536 1.366 . S
C5537 C5538 1.414 . S
C5537 C5540 1.499 . S
C5538 H5518 0.950 . S
C5538 C5537 1.414 . S
C5538 C5539 1.374 . S
C5539 H5519 0.950 . S
C5539 C5535 1.385 . S
C5539 C5538 1.374 . S
C5540 C5537 1.499 . S
C5540 C5541 1.373 . S
C5540 C5542 1.389 . S
C5541 H5520 0.950 . S
C5541 C5540 1.373 . S
C5541 C5557 1.377 . S
C5542 C5540 1.389 . S
C5542 C5543 1.524 . S
C5542 C5556 1.377 . S
C5543 C5542 1.524 . S
C5543 C5544 1.397 . S
C5543 C5548 1.363 . S
C5544 H5521 0.950 . S
C5544 C5543 1.397 . S
C5544 C5545 1.334 . S
C5545 H5522 0.950 . S
C5545 C5544 1.334 . S
C5545 C5546 1.287 . S
C5546 C5545 1.287 . S
C5546 C5547 1.524 . S
C5546 H5565 0.913 . S
C5547 H5523 0.950 . S
C5547 C5546 1.524 . S
C5547 C5548 1.415 . S
C5548 H5524 0.950 . S
C5548 C5543 1.363 . S
C5548 C5547 1.415 . S
C5549 H5525 0.951 . S
C5549 C5550 1.366 . S
C5549 C5551 1.388 . S
C5550 C5549 1.366 . S
C5550 C5554 1.385 . S
C5551 H5526 0.951 . S
C5551 C5549 1.388 . S
C5551 C5552 1.366 . S
C5552 C5551 1.366 . S
C5552 C5553 1.414 . S
C5552 C5555 1.499 . S
C5553 H5527 0.950 . S
C5553 C5552 1.414 . S
C5553 C5554 1.374 . S
C5554 H5528 0.950 . S
C5554 C5550 1.385 . S
C5554 C5553 1.374 . S
C5555 C5552 1.499 . S
C5555 C5556 1.373 . S
C5555 C5557 1.389 . S
C5556 H5529 0.950 . S
C5556 C5542 1.377 . S
C5556 C5555 1.373 . S
C5557 C5541 1.377 . S
C5557 C5555 1.389 . S
C5557 C5558 1.524 . S
C5558 C5557 1.524 . S
C5558 C5559 1.397 . S
C5558 C5563 1.363 . S
C5559 H5530 0.950 . S
C5559 C5558 1.397 . S
C5559 C5560 1.334 . S
C5560 H5531 0.950 . S
C5560 C5559 1.334 . S
C5560 C5561 1.287 . S
C5561 C5560 1.287 . S
C5561 C5562 1.524 . S
C5561 H5564 0.999 . S
C5562 H5532 0.950 . S
C5562 C5561 1.524 . S
C5562 C5563 1.415 . S
C5563 H5533 0.950 . S
C5563 C5558 1.363 . S
C5563 C5562 1.415 . S
H5564 C5561 0.999 . S
H5565 C5546 0.913 . S
H5566 C5584 0.951 . S
H5567 C5586 0.951 . S
H5568 C5588 0.950 . S
H5569 C5589 0.950 . S
H5570 C5591 0.950 . S
H5571 C5594 0.950 . S
H5572 C5595 0.950 . S
H5573 C5597 0.950 . S
H5574 C5598 0.950 . S
H5575 C5599 0.951 . S
H5576 C5601 0.951 . S
H5577 C5603 0.950 . S
H5578 C5604 0.950 . S
H5579 C5606 0.950 . S
H5580 C5609 0.950 . S
H5581 C5610 0.950 . S
H5582 C5612 0.950 . S
H5583 C5613 0.950 . S
C5584 H5566 0.951 . S
C5584 C5585 1.366 . S
C5584 C5586 1.388 . S
C5585 C5584 1.366 . S
C5585 C5589 1.385 . S
C5586 H5567 0.951 . S
C5586 C5584 1.388 . S
C5586 C5587 1.366 . S
C5587 C5586 1.366 . S
C5587 C5588 1.414 . S
C5587 C5590 1.499 . S
C5588 H5568 0.950 . S
C5588 C5587 1.414 . S
C5588 C5589 1.374 . S
C5589 H5569 0.950 . S
C5589 C5585 1.385 . S
C5589 C5588 1.374 . S
C5590 C5587 1.499 . S
C5590 C5591 1.373 . S
C5590 C5592 1.389 . S
C5591 H5570 0.950 . S
C5591 C5590 1.373 . S
C5591 C5607 1.377 . S
C5592 C5590 1.389 . S
C5592 C5593 1.524 . S
C5592 C5606 1.377 . S
C5593 C5592 1.524 . S
C5593 C5594 1.397 . S
C5593 C5598 1.363 . S
C5594 H5571 0.950 . S
C5594 C5593 1.397 . S
C5594 C5595 1.334 . S
C5595 H5572 0.950 . S
C5595 C5594 1.334 . S
C5595 C5596 1.287 . S
C5596 C5595 1.287 . S
C5596 C5597 1.524 . S
C5596 H5615 0.913 . S
C5597 H5573 0.950 . S
C5597 C5596 1.524 . S
C5597 C5598 1.415 . S
C5598 H5574 0.950 . S
C5598 C5593 1.363 . S
C5598 C5597 1.415 . S
C5599 H5575 0.951 . S
C5599 C5600 1.366 . S
C5599 C5601 1.388 . S
C5600 C5599 1.366 . S
C5600 C5604 1.385 . S
C5601 H5576 0.951 . S
C5601 C5599 1.388 . S
C5601 C5602 1.366 . S
C5602 C5601 1.366 . S
C5602 C5603 1.414 . S
C5602 C5605 1.499 . S
C5603 H5577 0.950 . S
C5603 C5602 1.414 . S
C5603 C5604 1.374 . S
C5604 H5578 0.950 . S
C5604 C5600 1.385 . S
C5604 C5603 1.374 . S
C5605 C5602 1.499 . S
C5605 C5606 1.373 . S
C5605 C5607 1.389 . S
C5606 H5579 0.950 . S
C5606 C5592 1.377 . S
C5606 C5605 1.373 . S
C5607 C5591 1.377 . S
C5607 C5605 1.389 . S
C5607 C5608 1.524 . S
C5608 C5607 1.524 . S
C5608 C5609 1.397 . S
C5608 C5613 1.363 . S
C5609 H5580 0.950 . S
C5609 C5608 1.397 . S
C5609 C5610 1.334 . S
C5610 H5581 0.950 . S
C5610 C5609 1.334 . S
C5610 C5611 1.287 . S
C5611 C5610 1.287 . S
C5611 C5612 1.524 . S
C5611 H5614 0.999 . S
C5612 H5582 0.950 . S
C5612 C5611 1.524 . S
C5612 C5613 1.415 . S
C5613 H5583 0.950 . S
C5613 C5608 1.363 . S
C5613 C5612 1.415 . S
H5614 C5611 0.999 . S
H5615 C5596 0.913 . S
C850 C337 1.707 . S
C835 C5 1.733 . S
C885 C23 0.917 . S
C900 C382 0.913 . S
C935 C39 1.595 . S
C950 C406 1.573 . S
C1000 N432 0.912 . S
C985 C42 0.905 . S
C1035 C19 0.999 . S
C1050 N462 1.001 . S
C1100 C496 1.516 . S
C1085 C28 1.531 . S
C1150 C532 1.026 . S
C1135 C53 1.029 . S
C1185 C9 1.659 . S
C1200 C556 1.638 . S
C1235 C65 0.895 . S
C1250 N350 0.894 . S
C1285 C75 0.987 . S
C1300 N372 0.989 . S
C1350 C412 0.978 . S
C1335 C93 0.982 . S
C1400 C436 1.661 . S
C1385 C109 1.683 . S
C1435 C56 1.159 . S
C1450 C466 1.150 . S
C1500 C502 0.915 . S
C1485 C81 0.916 . S
C1550 N522 0.992 . S
C1535 C84 0.983 . S
C1600 C562 1.606 . S
C1585 C103 1.621 . S
C1650 C363 1.524 . S
C1635 C107 1.535 . S
C1700 C592 0.929 . S
C1685 C121 0.933 . S
C1735 C131 1.042 . S
C1750 N612 1.044 . S
C1800 C646 1.527 . S
C1785 C140 1.545 . S
C1835 C61 0.854 . S
C1850 N552 0.852 . S
C1900 N402 0.921 1_565 S
C1885 C70 0.915 . S
C1935 C137 0.950 . S
C1950 C682 0.948 . S
C2000 C706 0.904 . S
C1985 C165 0.912 . S
C2035 C173 1.694 . S
C2050 C346 1.667 1_556 S
C2100 C723 0.862 . S
C2085 C182 0.869 . S
C2135 C207 1.562 . S
C2150 C397 1.540 . S
C2185 C219 0.891 . S
C2200 N680 0.891 . S
C2250 N470 0.964 . S
C2235 C187 0.962 . S
C2300 C607 1.491 . S
C2285 C205 1.513 . S
C2350 C543 0.994 . S
C2335 C221 0.995 . S
C2400 C727 1.596 . S
C2385 C168 1.616 . S
C2450 N342 0.853 . S
C2435 C224 0.854 . S
C2485 C243 0.946 . S
C2500 N710 0.949 . S
C2550 C423 0.913 . S
C2535 C252 0.914 . S
C2585 C277 1.642 . S
C2600 C667 1.618 . S
C2635 C233 1.159 . S
C2650 C457 1.137 1_655 S
C2685 C249 0.891 . S
C2700 C633 0.891 . S
C2750 N530 0.973 . S
C2735 C261 0.973 . S
C2785 C271 1.588 . S
C2800 C753 1.572 . S
C2835 C266 1.497 . S
C2850 C352 1.484 . S
C2885 C280 0.875 . S
C2900 C603 0.875 . S
C2935 C299 0.993 . S
C2950 N500 0.995 . S
C2985 C317 1.514 . S
C3000 C637 1.490 . S
C3050 N740 0.824 . S
C3035 C229 0.825 1_565 S
C3100 N410 0.912 . S
C3085 C247 0.912 . S
C3150 C453 0.914 . S
C3135 C305 0.916 . S
C3200 C367 0.887 . S
C3185 C333 0.895 . S
C3235 C33 1.733 . S
C3250 C757 1.706 . S
C3300 C712 0.913 . S
C3285 C51 0.917 . S
C3350 C796 1.573 . S
C3335 C11 1.595 . S
C3385 C14 0.904 1_655 S
C3400 N672 0.912 . S
C3435 C47 0.999 . S
C3450 N582 1.001 1_556 S
C3500 C616 1.515 . S
C3485 C0 1.530 . S
C3550 C652 1.025 . S
C3535 C25 1.028 . S
C3600 C736 1.638 . S
C3585 C37 1.659 . S
C3650 N770 0.893 . S
C3635 C163 0.895 . S
C3685 C117 0.987 1_556 S
C3700 N702 0.989 . S
C3735 C135 0.982 . S
C3750 C802 0.977 . S
C3800 C676 1.660 . S
C3785 C151 1.683 . S
C3850 C586 1.148 . S
C3835 C154 1.158 . S
C3885 C123 0.916 . S
C3900 C622 0.915 . S
C3950 N642 1.019 . S
C3935 C126 0.982 . S
C3985 C145 1.622 . S
C4000 C742 1.606 . S
C4050 C783 1.524 . S
C4035 C149 1.535 . S
C4100 C472 0.929 . S
C4085 C79 0.933 . S
C4150 N492 1.044 . S
C4135 C89 1.041 1_565 S
C4185 C98 1.545 . S
C4200 C526 1.528 . S
C4250 N732 0.852 . S
C4235 C159 0.854 . S
C4285 C112 0.914 . S
C4300 N792 0.921 . S
C4350 C442 0.948 . S
C4335 C95 0.950 . S
C4400 C376 0.904 . S
C4385 C67 0.912 . S
C4435 C201 1.694 . S
C4450 C766 1.668 . S
C4500 C393 0.862 . S
C4485 C210 0.862 . S
C4550 C787 1.517 1_556 S
C4535 C179 1.562 . S
C4585 C191 0.891 . S
C4600 N440 0.885 . S
C4635 C215 0.961 . S
C4650 N590 0.964 . S
C4685 C177 1.513 . S
C4700 C487 1.492 . S
C4735 C193 0.996 . S
C4750 C663 0.993 . S
C4785 C196 1.616 . S
C4800 C547 1.596 . S
C4850 N762 0.853 . S
C4835 C322 0.854 . S
C4885 C285 0.946 . S
C4900 N380 0.945 . S
C4950 C813 0.914 . S
C4935 C294 0.914 . S
C4985 C319 1.642 . S
C5000 C427 1.618 . S
C5035 C331 1.159 . S
C5050 C577 1.137 . S
C5100 C513 0.891 . S
C5085 C291 0.895 . S
C5135 C303 0.973 . S
C5150 N650 0.973 . S
C5200 C573 1.572 . S
C5185 C313 1.588 . S
C5250 C772 1.484 . S
C5235 C308 1.497 . S
C5300 C483 0.877 . S
C5285 C238 0.875 . S
C5335 C257 0.993 . S
C5350 N620 0.996 . S
C5400 C517 1.514 . S
C5385 C275 1.514 . S
C5450 N560 0.823 . S
C5435 C327 0.825 . S
C5485 C289 0.914 . S
C5500 N800 0.911 . S
C5550 C693 0.914 . S
C5535 C263 0.917 . S
C5600 C697 0.887 . S
C5585 C235 0.895 . S
