# Generated by pormake.
# Topology anh, (6,3)-cn, num edge types: 1
# Building blocks:
#     Node 0, Type 0, BuildingBlock: BETDEL_clean_sbu_0, # of connection points: 6
#     Node 1, Type 0, BuildingBlock: BETDEL_clean_sbu_0, # of connection points: 6
#     Node 2, Type 0, BuildingBlock: BETDEL_clean_sbu_0, # of connection points: 6
#     Node 3, Type 1, BuildingBlock: OLANEW_clean_sbu_2, # of connection points: 3
#     Node 4, Type 1, BuildingBlock: OLANEW_clean_sbu_2, # of connection points: 3
#     Node 5, Type 1, BuildingBlock: OLANEW_clean_sbu_2, # of connection points: 3
#     Node 6, Type 1, BuildingBlock: OLANEW_clean_sbu_2, # of connection points: 3
#     Node 7, Type 1, BuildingBlock: OLANEW_clean_sbu_2, # of connection points: 3
#     Node 8, Type 1, BuildingBlock: OLANEW_clean_sbu_2, # of connection points: 3
#     Edge 9, Type (0, 1), BuildingBlock: KIFKEQ_clean_linker_1, # of connection points: 2
#     Edge 10, Type (0, 1), BuildingBlock: KIFKEQ_clean_linker_1, # of connection points: 2
#     Edge 11, Type (0, 1), BuildingBlock: KIFKEQ_clean_linker_1, # of connection points: 2
#     Edge 12, Type (0, 1), BuildingBlock: KIFKEQ_clean_linker_1, # of connection points: 2
#     Edge 13, Type (0, 1), BuildingBlock: KIFKEQ_clean_linker_1, # of connection points: 2
#     Edge 14, Type (0, 1), BuildingBlock: KIFKEQ_clean_linker_1, # of connection points: 2
#     Edge 15, Type (0, 1), BuildingBlock: KIFKEQ_clean_linker_1, # of connection points: 2
#     Edge 16, Type (0, 1), BuildingBlock: KIFKEQ_clean_linker_1, # of connection points: 2
#     Edge 17, Type (0, 1), BuildingBlock: KIFKEQ_clean_linker_1, # of connection points: 2
#     Edge 18, Type (0, 1), BuildingBlock: KIFKEQ_clean_linker_1, # of connection points: 2
#     Edge 19, Type (0, 1), BuildingBlock: KIFKEQ_clean_linker_1, # of connection points: 2
#     Edge 20, Type (0, 1), BuildingBlock: KIFKEQ_clean_linker_1, # of connection points: 2
#     Edge 21, Type (0, 1), BuildingBlock: KIFKEQ_clean_linker_1, # of connection points: 2
#     Edge 22, Type (0, 1), BuildingBlock: KIFKEQ_clean_linker_1, # of connection points: 2
#     Edge 23, Type (0, 1), BuildingBlock: KIFKEQ_clean_linker_1, # of connection points: 2
#     Edge 24, Type (0, 1), BuildingBlock: KIFKEQ_clean_linker_1, # of connection points: 2
#     Edge 25, Type (0, 1), BuildingBlock: KIFKEQ_clean_linker_1, # of connection points: 2
#     Edge 26, Type (0, 1), BuildingBlock: KIFKEQ_clean_linker_1, # of connection points: 2
# Relax obj value: 0.082
# Max RMSD: 0.105
# Mean RMSD: 0.101
data_MOF--net-anh--node1-BETDEL_clean_sbu_0--node2-OLANEW_clean_sbu_2--edge1-KIFKEQ_clean_linker_1
_symmetry_space_group_name_H-M    P1
_symmetry_Int_Tables_number       1
_symmetry_cell_setting            triclinic
loop_
_symmetry_equiv_pos_as_xyz
'x, y, z'
_cell_length_a     33.741222
_cell_length_b     33.72249
_cell_length_c     50.302946
_cell_angle_alpha  89.632164
_cell_angle_beta   89.794551
_cell_angle_gamma 119.95335
loop_
_atom_site_label
_atom_site_type_symbol
_atom_site_fract_x
_atom_site_fract_y
_atom_site_fract_z
_atom_type_partial_charge
Dy0 Dy 0.03115 0.46774 0.1574 0.0
C1 C 0.89605 0.52642 0.17634 0.0
C2 C 0.09213 0.44477 0.13783 0.0
Dy3 Dy 0.96494 0.51008 0.16269 0.0
O4 O 0.06316 0.42326 0.15706 0.0
O5 O 0.08677 0.47802 0.12877 0.0
O6 O 0.04528 0.46661 0.20141 0.0
O7 O 0.00166 0.48856 0.18806 0.0
C8 C 0.01893 0.48256 0.20862 0.0
C9 C 0.99917 0.51143 0.11439 0.0
O10 O 0.0313 0.56918 0.17543 0.0
O11 O 0.0779 0.54425 0.15588 0.0
O12 O 0.91992 0.54027 0.15448 0.0
O13 O 0.91065 0.50462 0.19102 0.0
O14 O 0.98961 0.54233 0.12241 0.0
O15 O 0.98654 0.47995 0.13155 0.0
O16 O 0.96307 0.40359 0.15328 0.0
O17 O 0.91529 0.43475 0.15987 0.0
C18 C 0.07187 0.5766 0.16701 0.0
C19 C 0.92194 0.39953 0.15599 0.0
Dy20 Dy 0.4744 0.01822 0.49367 0.0
C21 C 0.66044 0.14918 0.51724 0.0
C22 C 0.3922 0.94864 0.47667 0.0
Dy23 Dy 0.57661 0.08098 0.50147 0.0
O24 O 0.39716 0.97952 0.49372 0.0
O25 O 0.43201 0.9566 0.46846 0.0
O26 O 0.45903 0.03372 0.5346 0.0
O27 O 0.52061 0.035 0.52726 0.0
C28 C 0.49879 0.0442 0.54403 0.0
C29 C 0.55249 0.05209 0.45165 0.0
O30 O 0.57266 0.01534 0.51379 0.0
O31 O 0.50151 0.96903 0.49512 0.0
O32 O 0.6531 0.1222 0.4973 0.0
O33 O 0.62194 0.13813 0.52904 0.0
O34 O 0.59102 0.06063 0.4621 0.0
O35 O 0.53065 0.06345 0.46734 0.0
O36 O 0.47762 0.08431 0.48273 0.0
O37 O 0.55066 0.13067 0.49932 0.0
C38 C 0.54008 0.97475 0.50559 0.0
C39 C 0.5115 0.12493 0.48991 0.0
Dy40 Dy 0.57053 0.56738 0.83373 0.0
C41 C 0.50376 0.37772 0.86603 0.0
C42 C 0.58712 0.65416 0.82482 0.0
Dy43 Dy 0.52552 0.45952 0.84299 0.0
O44 O 0.57237 0.63121 0.84688 0.0
O45 O 0.59375 0.62984 0.80714 0.0
O46 O 0.60448 0.5766 0.87323 0.0
O47 O 0.53997 0.51874 0.86678 0.0
C48 C 0.57236 0.53805 0.88301 0.0
C49 C 0.53638 0.48046 0.79072 0.0
O50 O 0.46345 0.46683 0.84763 0.0
O51 O 0.49517 0.54037 0.82918 0.0
O52 O 0.47988 0.38348 0.84771 0.0
O53 O 0.5386 0.41701 0.87232 0.0
O54 O 0.51937 0.43892 0.79982 0.0
O55 O 0.54642 0.50681 0.81017 0.0
O56 O 0.63102 0.55965 0.82399 0.0
O57 O 0.60156 0.48763 0.84429 0.0
C58 C 0.45975 0.50183 0.83833 0.0
C59 C 0.63588 0.52549 0.83359 0.0
O60 O 0.5421 0.02049 0.2392 0.0
Cd61 Cd 0.54705 0.02003 0.19076 0.0
O62 O 0.46716 0.98027 0.2444 0.0
Cd63 Cd 0.44754 0.95762 0.20363 0.0
O64 O 0.38789 0.89958 0.18595 0.0
C65 C 0.35313 0.88197 0.2013 0.0
O66 O 0.35632 0.90088 0.22455 0.0
C67 C 0.50686 0.00374 0.25418 0.0
C68 C 0.62787 0.09895 0.17542 0.0
O69 O 0.59039 0.09936 0.17868 0.0
O70 O 0.62701 0.06079 0.17863 0.0
O71 O 0.50721 0.49991 0.57929 0.0
Cd72 Cd 0.50205 0.4956 0.53075 0.0
O73 O 0.54872 0.57485 0.58408 0.0
Cd74 Cd 0.54513 0.59729 0.54382 0.0
O75 O 0.54627 0.65755 0.52644 0.0
C76 C 0.56253 0.69176 0.54189 0.0
O77 O 0.57766 0.68792 0.56526 0.0
C78 C 0.52911 0.53469 0.59402 0.0
C79 C 0.5013 0.41574 0.51462 0.0
O80 O 0.53885 0.45306 0.51861 0.0
O81 O 0.46379 0.41617 0.51766 0.0
O82 O 0.07678 0.51535 0.90578 0.0
Cd83 Cd 0.08235 0.50823 0.85781 0.0
O84 O 0.00136 0.47778 0.90677 0.0
Cd85 Cd 0.98953 0.48695 0.865 0.0
O86 O 0.94217 0.50443 0.84535 0.0
C87 C 0.93193 0.52928 0.85944 0.0
O88 O 0.95227 0.54361 0.88247 0.0
C89 C 0.0394 0.49581 0.91885 0.0
C90 C 0.15994 0.50082 0.84748 0.0
O91 O 0.16106 0.53922 0.84495 0.0
O92 O 0.12192 0.46567 0.8543 0.0
O93 O 0.01502 0.53307 0.4182 0.0
Cd94 Cd 0.02696 0.55452 0.46494 0.0
O95 O 0.96285 0.55262 0.41099 0.0
Cd96 Cd 0.94737 0.5444 0.45356 0.0
O97 O 0.90683 0.49078 0.4828 0.0
C98 C 0.91812 0.46072 0.48775 0.0
O99 O 0.9558 0.46548 0.47697 0.0
C100 C 0.99029 0.54028 0.40211 0.0
C101 C 0.10353 0.64187 0.46739 0.0
O102 O 0.10758 0.6063 0.46483 0.0
O103 O 0.06323 0.63635 0.46958 0.0
O104 O 0.54211 0.02752 0.75394 0.0
Cd105 Cd 0.5606 0.01959 0.79972 0.0
O106 O 0.60359 0.09518 0.74921 0.0
Cd107 Cd 0.61071 0.10503 0.79215 0.0
O108 O 0.59764 0.13981 0.82458 0.0
C109 C 0.5567 0.12512 0.83237 0.0
O110 O 0.52397 0.0867 0.82252 0.0
C111 C 0.56903 0.06099 0.73912 0.0
C112 C 0.5701 0.94214 0.80345 0.0
O113 O 0.53194 0.94012 0.80876 0.0
O114 O 0.60417 0.98108 0.79678 0.0
O115 O 0.50392 0.43092 0.08761 0.0
Cd116 Cd 0.4895 0.42059 0.13554 0.0
O117 O 0.5319 0.505 0.09171 0.0
Cd118 Cd 0.49271 0.49447 0.1281 0.0
O119 O 0.42231 0.4758 0.13733 0.0
C120 C 0.397 0.4656 0.11693 0.0
O121 O 0.41489 0.46641 0.09354 0.0
C122 C 0.52541 0.47108 0.07766 0.0
C123 C 0.57399 0.45001 0.1595 0.0
O124 O 0.54737 0.40771 0.15409 0.0
O125 O 0.55993 0.47821 0.15448 0.0
H126 H 0.15619 0.48852 0.09904 0.0
H127 H 0.11695 0.38824 0.1622 0.0
H128 H 0.22763 0.48776 0.09287 0.0
H129 H 0.1884 0.38732 0.15599 0.0
H130 H 0.34756 0.45706 0.16208 0.0
H131 H 0.27009 0.44514 0.16499 0.0
H132 H 0.26063 0.43932 0.07936 0.0
H133 H 0.33804 0.45146 0.07638 0.0
C134 C 0.16247 0.46563 0.11121 0.0
C135 C 0.13123 0.43857 0.13114 0.0
C136 C 0.20331 0.46512 0.10767 0.0
C137 C 0.21376 0.43777 0.12413 0.0
C138 C 0.18149 0.40917 0.14327 0.0
C139 C 0.14049 0.40942 0.14666 0.0
C140 C 0.32883 0.45288 0.1439 0.0
C141 C 0.34908 0.4555 0.11901 0.0
C142 C 0.28435 0.44575 0.14556 0.0
C143 C 0.25935 0.44137 0.12238 0.0
C144 C 0.27924 0.443 0.09754 0.0
C145 C 0.32354 0.44981 0.09588 0.0
H146 H 0.67668 0.21808 0.55151 0.0
H147 H 0.74172 0.17694 0.49238 0.0
H148 H 0.74418 0.29469 0.55207 0.0
H149 H 0.80856 0.25325 0.49253 0.0
H150 H 0.93121 0.38925 0.50065 0.0
H151 H 0.87357 0.31289 0.51557 0.0
H152 H 0.77348 0.35697 0.51965 0.0
H153 H 0.83126 0.43347 0.50533 0.0
C154 C 0.70584 0.22514 0.5391 0.0
C155 C 0.70395 0.19182 0.52173 0.0
C156 C 0.74432 0.26906 0.53927 0.0
C157 C 0.7816 0.2803 0.52215 0.0
C158 C 0.78075 0.24578 0.50617 0.0
C159 C 0.74231 0.20203 0.50597 0.0
C160 C 0.89714 0.38292 0.50526 0.0
C161 C 0.88565 0.41728 0.50137 0.0
C162 C 0.86406 0.33907 0.51371 0.0
C163 C 0.81873 0.32858 0.51843 0.0
C164 C 0.80811 0.36387 0.51639 0.0
C165 C 0.84123 0.40776 0.508 0.0
H166 H 0.57 0.70225 0.8611 0.0
H167 H 0.61138 0.70722 0.77921 0.0
H168 H 0.5679 0.77257 0.85453 0.0
H169 H 0.60942 0.77868 0.77263 0.0
H170 H 0.64173 0.93176 0.78648 0.0
H171 H 0.64892 0.86308 0.79008 0.0
H172 H 0.51557 0.79046 0.82733 0.0
H173 H 0.5082 0.85855 0.82374 0.0
C174 C 0.57904 0.71863 0.84169 0.0
C175 C 0.5906 0.69914 0.82059 0.0
C176 C 0.57758 0.7588 0.83793 0.0
C177 C 0.58791 0.78072 0.81301 0.0
C178 C 0.60131 0.76237 0.79206 0.0
C179 C 0.6024 0.72162 0.79579 0.0
C180 C 0.61394 0.90107 0.79539 0.0
C181 C 0.57452 0.90067 0.80503 0.0
C182 C 0.61798 0.86176 0.79726 0.0
C183 C 0.58294 0.82163 0.80911 0.0
C184 C 0.54334 0.82112 0.81837 0.0
C185 C 0.53908 0.8601 0.81625 0.0
H186 H 0.86084 0.56897 0.14659 0.0
H187 H 0.83311 0.48207 0.21565 0.0
H188 H 0.78288 0.55573 0.14844 0.0
H189 H 0.75498 0.46885 0.21759 0.0
H190 H 0.6104 0.39823 0.17683 0.0
H191 H 0.69022 0.42412 0.18676 0.0
H192 H 0.72393 0.56431 0.17384 0.0
H193 H 0.64388 0.53839 0.16378 0.0
C194 C 0.83839 0.54801 0.16258 0.0
C195 C 0.85276 0.5262 0.18083 0.0
C196 C 0.79379 0.54054 0.16371 0.0
C197 C 0.76267 0.51087 0.18301 0.0
C198 C 0.77807 0.49145 0.20231 0.0
C199 C 0.82282 0.49922 0.2013 0.0
C200 C 0.63465 0.43463 0.17656 0.0
C201 C 0.62089 0.46621 0.16928 0.0
C202 C 0.68036 0.44951 0.18243 0.0
C203 C 0.71338 0.49627 0.18097 0.0
C204 C 0.69927 0.52805 0.17491 0.0
C205 C 0.65342 0.51318 0.16926 0.0
H206 H 0.30508 0.93355 0.48171 0.0
H207 H 0.38227 0.86769 0.46101 0.0
H208 H 0.2339 0.86104 0.47671 0.0
H209 H 0.31225 0.79471 0.45824 0.0
H210 H 0.18073 0.67068 0.43806 0.0
H211 H 0.24804 0.74642 0.43656 0.0
H212 H 0.18667 0.79183 0.49605 0.0
H213 H 0.11775 0.71679 0.49546 0.0
C214 C 0.30665 0.90342 0.47607 0.0
C215 C 0.34895 0.90613 0.47154 0.0
C216 C 0.26591 0.8616 0.47353 0.0
C217 C 0.26672 0.8213 0.46721 0.0
C218 C 0.30951 0.82466 0.46246 0.0
C219 C 0.34997 0.86663 0.46421 0.0
C220 C 0.18176 0.69708 0.4507 0.0
C221 C 0.14431 0.68796 0.46699 0.0
C222 C 0.22057 0.74059 0.45005 0.0
C223 C 0.22365 0.77577 0.46644 0.0
C224 C 0.18573 0.76633 0.48272 0.0
C225 C 0.14624 0.72311 0.48266 0.0
H226 H 0.55678 0.36147 0.90008 0.0
H227 H 0.44386 0.29435 0.84583 0.0
H228 H 0.56453 0.29326 0.90135 0.0
H229 H 0.45228 0.22685 0.84638 0.0
H230 H 0.47206 0.10758 0.84911 0.0
H231 H 0.45201 0.16241 0.86699 0.0
H232 H 0.5952 0.26579 0.86788 0.0
H233 H 0.61518 0.2109 0.85079 0.0
C234 C 0.53283 0.33166 0.889 0.0
C235 C 0.50018 0.33334 0.87254 0.0
C236 C 0.53749 0.29272 0.88955 0.0
C237 C 0.50973 0.25489 0.87352 0.0
C238 C 0.47418 0.25515 0.85909 0.0
C239 C 0.4694 0.29399 0.85866 0.0
C240 C 0.49932 0.14172 0.85374 0.0
C241 C 0.54518 0.1551 0.84806 0.0
C242 C 0.48778 0.17321 0.86388 0.0
C243 C 0.52187 0.21875 0.86853 0.0
C244 C 0.56797 0.23098 0.8648 0.0
C245 C 0.57948 0.1995 0.85476 0.0
H246 H 0.47902 0.88579 0.49332 0.0
H247 H 0.61369 0.97153 0.52592 0.0
H248 H 0.48685 0.81863 0.50053 0.0
H249 H 0.62187 0.90431 0.53256 0.0
H250 H 0.59411 0.7691 0.57136 0.0
H251 H 0.5904 0.83767 0.5612 0.0
H252 H 0.52772 0.78037 0.48578 0.0
H253 H 0.53052 0.71092 0.49626 0.0
C254 C 0.51047 0.89043 0.50186 0.0
C255 C 0.54562 0.93412 0.50922 0.0
C256 C 0.51508 0.85186 0.50579 0.0
C257 C 0.55496 0.856 0.51715 0.0
C258 C 0.59042 0.8998 0.5241 0.0
C259 C 0.5858 0.9384 0.5202 0.0
C260 C 0.57973 0.7711 0.55252 0.0
C261 C 0.56245 0.7344 0.53466 0.0
C262 C 0.57788 0.81065 0.54662 0.0
C263 C 0.55878 0.81461 0.52267 0.0
C264 C 0.54216 0.7782 0.50456 0.0
C265 C 0.544 0.73852 0.51048 0.0
H266 H 0.66504 0.48487 0.86886 0.0
H267 H 0.71081 0.57706 0.80115 0.0
H268 H 0.74034 0.49232 0.87215 0.0
H269 H 0.78681 0.58359 0.80427 0.0
H270 H 0.88336 0.50776 0.81273 0.0
H271 H 0.81438 0.51267 0.80369 0.0
H272 H 0.8251 0.57231 0.88075 0.0
H273 H 0.89396 0.56842 0.88973 0.0
C274 C 0.69107 0.50646 0.8545 0.0
C275 C 0.68193 0.53033 0.83468 0.0
C276 C 0.73422 0.51081 0.8565 0.0
C277 C 0.76913 0.5385 0.83849 0.0
C278 C 0.7602 0.56197 0.81833 0.0
C279 C 0.71696 0.55837 0.81664 0.0
C280 C 0.87149 0.52274 0.82751 0.0
C281 C 0.89392 0.53725 0.85206 0.0
C282 C 0.83225 0.52574 0.82225 0.0
C283 C 0.81465 0.54277 0.84158 0.0
C284 C 0.83815 0.55908 0.86556 0.0
C285 C 0.87753 0.55672 0.87066 0.0
H286 H 0.07435 0.65351 0.18649 0.0
H287 H 0.1612 0.60455 0.15471 0.0
H288 H 0.14112 0.72895 0.19248 0.0
H289 H 0.22796 0.67968 0.1613 0.0
H290 H 0.33529 0.83096 0.15599 0.0
H291 H 0.26627 0.75872 0.14589 0.0
H292 H 0.20682 0.76421 0.22103 0.0
H293 H 0.27494 0.8365 0.2308 0.0
C294 C 0.10763 0.65874 0.1808 0.0
C295 C 0.11233 0.62281 0.17022 0.0
C296 C 0.14597 0.702 0.18434 0.0
C297 C 0.18995 0.71037 0.17745 0.0
C298 C 0.19456 0.67462 0.1665 0.0
C299 C 0.15622 0.63138 0.16291 0.0
C300 C 0.3073 0.81689 0.17022 0.0
C301 C 0.31068 0.83946 0.19421 0.0
C302 C 0.26787 0.77536 0.16452 0.0
C303 C 0.23102 0.7556 0.18268 0.0
C304 C 0.23422 0.7787 0.20642 0.0
C305 C 0.2735 0.8201 0.2121 0.0
H306 H 0.43491 0.13146 0.49893 0.0
H307 H 0.57736 0.21099 0.47667 0.0
H308 H 0.43109 0.20174 0.5027 0.0
H309 H 0.57325 0.28079 0.47867 0.0
H310 H 0.57165 0.39864 0.51965 0.0
H311 H 0.57166 0.32809 0.51088 0.0
H312 H 0.43169 0.26586 0.48404 0.0
H313 H 0.43118 0.33631 0.49434 0.0
C314 C 0.46502 0.16394 0.49413 0.0
C315 C 0.50651 0.16592 0.48778 0.0
C316 C 0.46292 0.20432 0.49622 0.0
C317 C 0.50212 0.24741 0.4915 0.0
C318 C 0.54273 0.24866 0.4834 0.0
C319 C 0.54504 0.20855 0.48194 0.0
C320 C 0.54093 0.37001 0.51174 0.0
C321 C 0.50145 0.37314 0.50768 0.0
C322 C 0.54097 0.32943 0.50646 0.0
C323 C 0.50177 0.29095 0.49645 0.0
C324 C 0.46237 0.29437 0.49204 0.0
C325 C 0.46212 0.33489 0.49777 0.0
H326 H 0.44346 0.57294 0.83904 0.0
H327 H 0.37419 0.42525 0.83892 0.0
H328 H 0.37057 0.57048 0.84026 0.0
H329 H 0.30041 0.42252 0.83869 0.0
H330 H 0.1773 0.43517 0.86682 0.0
H331 H 0.24868 0.43373 0.86402 0.0
H332 H 0.3076 0.55679 0.81554 0.0
H333 H 0.23714 0.55945 0.81979 0.0
C334 C 0.4125 0.53981 0.83889 0.0
C335 C 0.41463 0.49926 0.8388 0.0
C336 C 0.37047 0.53837 0.83937 0.0
C337 C 0.32918 0.49631 0.83926 0.0
C338 C 0.33133 0.4556 0.83912 0.0
C339 C 0.37362 0.45708 0.83912 0.0
C340 C 0.20551 0.46175 0.85546 0.0
C341 C 0.20179 0.49766 0.84372 0.0
C342 C 0.24646 0.46082 0.85371 0.0
C343 C 0.28442 0.49539 0.83977 0.0
C344 C 0.27977 0.53024 0.82711 0.0
C345 C 0.23918 0.53163 0.82932 0.0
H346 H 0.83781 0.37908 0.13869 0.0
H347 H 0.91282 0.31669 0.17007 0.0
H348 H 0.76776 0.30544 0.13986 0.0
H349 H 0.84201 0.24289 0.17266 0.0
H350 H 0.70997 0.10851 0.15926 0.0
H351 H 0.78177 0.17961 0.15106 0.0
H352 H 0.71545 0.25693 0.17151 0.0
H353 H 0.64379 0.18625 0.17837 0.0
C354 C 0.83924 0.34948 0.1459 0.0
C355 C 0.8807 0.35369 0.15451 0.0
C356 C 0.79895 0.30721 0.14678 0.0
C357 C 0.79877 0.26811 0.15686 0.0
C358 C 0.84071 0.27204 0.16458 0.0
C359 C 0.88134 0.31437 0.1632 0.0
C360 C 0.71078 0.14079 0.16172 0.0
C361 C 0.67114 0.14174 0.16935 0.0
C362 C 0.75203 0.1816 0.15721 0.0
C363 C 0.75467 0.22428 0.16052 0.0
C364 C 0.71478 0.22494 0.1681 0.0
C365 C 0.67355 0.18427 0.17223 0.0
H366 H 0.03685 0.58032 0.07789 0.0
H367 H 0.99441 0.43755 0.08951 0.0
H368 H 0.05332 0.57494 0.03108 0.0
H369 H 0.01014 0.43199 0.04247 0.0
H370 H 0.971 0.43724 0.9522 0.0
H371 H 0.96858 0.44004 0.00062 0.0
H372 H 0.10527 0.55667 0.00047 0.0
H373 H 0.10816 0.55353 0.95188 0.0
C374 C 0.03161 0.54797 0.07046 0.0
C375 C 0.014 0.50925 0.08714 0.0
C376 C 0.04126 0.54497 0.04377 0.0
C377 C 0.03278 0.50301 0.03321 0.0
C378 C 0.01672 0.46465 0.05015 0.0
C379 C 0.00784 0.46787 0.07699 0.0
C380 C 1.00077 0.46315 0.96249 0.0
C381 C 0.03968 0.49532 0.94824 0.0
C382 C 0.99948 0.46452 0.9902 0.0
C383 C 0.03675 0.49856 0.00421 0.0
C384 C 0.07609 0.53015 0.99007 0.0
C385 C 0.07774 0.52824 0.96233 0.0
H386 H 0.48246 0.0499 0.42302 0.0
H387 H 0.5993 0.03051 0.41645 0.0
H388 H 0.4701 0.03824 0.37505 0.0
H389 H 0.58657 0.01798 0.36893 0.0
H390 H 0.58594 0.05342 0.28201 0.0
H391 H 0.59446 0.06393 0.32988 0.0
H392 H 0.44811 0.98037 0.34025 0.0
H393 H 0.43937 0.97053 0.29224 0.0
C394 C 0.50516 0.04272 0.41135 0.0
C395 C 0.5421 0.04157 0.42331 0.0
C396 C 0.49804 0.0359 0.38395 0.0
C397 C 0.52774 0.02778 0.36814 0.0
C398 C 0.56372 0.02521 0.38042 0.0
C399 C 0.57084 0.03207 0.40768 0.0
C400 C 0.55552 0.03735 0.29445 0.0
C401 C 0.512 0.01098 0.28326 0.0
C402 C 0.56046 0.04318 0.32192 0.0
C403 C 0.52199 0.02269 0.33889 0.0
C404 C 0.47839 0.9969 0.3277 0.0
C405 C 0.47342 0.99107 0.30019 0.0
H406 H 0.53314 0.42756 0.75006 0.0
H407 H 0.54934 0.55998 0.76741 0.0
H408 H 0.53408 0.44265 0.70275 0.0
H409 H 0.5485 0.57479 0.71965 0.0
H410 H 0.58346 0.59919 0.63023 0.0
H411 H 0.5886 0.58868 0.67785 0.0
H412 H 0.48442 0.44637 0.67111 0.0
H413 H 0.48051 0.45648 0.62352 0.0
C414 C 0.53693 0.46002 0.74365 0.0
C415 C 0.54098 0.49257 0.76229 0.0
C416 C 0.53705 0.46854 0.71652 0.0
C417 C 0.54052 0.50959 0.70732 0.0
C418 C 0.546 0.54289 0.72603 0.0
C419 C 0.54642 0.53449 0.75334 0.0
C420 C 0.56171 0.56563 0.63893 0.0
C421 C 0.53178 0.52857 0.62302 0.0
C422 C 0.56447 0.5597 0.66628 0.0
C423 C 0.53718 0.51663 0.67835 0.0
C424 C 0.50675 0.4798 0.66244 0.0
C425 C 0.50428 0.48563 0.63511 0.0
H426 H 0.57896 0.06207 0.56678 0.0
H427 H 0.44536 0.04301 0.58511 0.0
H428 H 0.59678 0.06864 0.61414 0.0
H429 H 0.46314 0.04949 0.63253 0.0
H430 H 0.62486 0.12043 0.70052 0.0
H431 H 0.60864 0.11993 0.65319 0.0
H432 H 0.47575 1.00033 0.66551 0.0
H433 H 0.49175 1.0007 0.71276 0.0
C434 C 0.55362 0.05975 0.58095 0.0
C435 C 0.51073 0.05182 0.57238 0.0
C436 C 0.56386 0.06365 0.60801 0.0
C437 C 0.53122 0.05929 0.62698 0.0
C438 C 0.4887 0.05243 0.61832 0.0
C439 C 0.47864 0.04897 0.59123 0.0
C440 C 0.59218 0.09403 0.69313 0.0
C441 C 0.55962 0.06055 0.71039 0.0
C442 C 0.583 0.09371 0.66604 0.0
C443 C 0.5409 0.06021 0.65574 0.0
C444 C 0.50828 0.02689 0.67299 0.0
C445 C 0.51761 0.02692 0.7 0.0
H446 H 0.50249 0.46441 0.90827 0.0
H447 H 0.63899 0.57776 0.92005 0.0
H448 H 0.49677 0.44518 0.95553 0.0
H449 H 0.63375 0.55811 0.9672 0.0
H450 H 0.57447 0.55244 0.05124 0.0
H451 H 0.59042 0.56466 0.00386 0.0
H452 H 0.52513 0.41856 0.9924 0.0
H453 H 0.50833 0.40615 0.04 0.0
C454 C 0.53153 0.48469 0.92092 0.0
C455 C 0.57092 0.52292 0.91068 0.0
C456 C 0.52841 0.47353 0.94794 0.0
C457 C 0.56467 0.50041 0.96516 0.0
C458 C 0.60495 0.53724 0.95453 0.0
C459 C 0.60802 0.54839 0.92754 0.0
C460 C 0.56395 0.52286 0.03872 0.0
C461 C 0.53977 0.4783 0.04939 0.0
C462 C 0.5734 0.5299 0.01154 0.0
C463 C 0.55891 0.49256 0.99434 0.0
C464 C 0.53625 0.44799 0.00512 0.0
C465 C 0.52687 0.44092 0.03239 0.0
H466 H 0.9488 0.49007 0.23099 0.0
H467 H 0.07995 0.50317 0.24788 0.0
H468 H 0.94085 0.50555 0.27762 0.0
H469 H 0.07344 0.52053 0.29391 0.0
H470 H 0.02689 0.49333 0.37884 0.0
H471 H 0.03236 0.48101 0.33192 0.0
H472 H 0.96721 0.56011 0.3129 0.0
H473 H 0.95988 0.57071 0.36038 0.0
C474 C 0.97624 0.4972 0.24459 0.0
C475 C 0.01481 0.49529 0.23598 0.0
C476 C 0.97183 0.50612 0.27129 0.0
C477 C 0.00625 0.51373 0.2897 0.0
C478 C 0.04562 0.51355 0.28057 0.0
C479 C 0.04957 0.50393 0.25413 0.0
C480 C 0.01376 0.5082 0.3647 0.0
C481 C 0.99324 0.53327 0.37333 0.0
C482 C 0.01717 0.50139 0.33769 0.0
C483 C 1.00087 0.52014 0.31849 0.0
C484 C 0.97985 0.5449 0.32712 0.0
C485 C 0.97586 0.5512 0.3543 0.0
loop_
_geom_bond_atom_site_label_1
_geom_bond_atom_site_label_2
_geom_bond_distance
_geom_bond_site_symmetry_2
_ccdc_geom_bond_type
Dy0 O4 2.398 . S
Dy0 O5 2.491 . S
Dy0 O6 2.403 . S
Dy0 O7 2.664 . S
Dy0 O11 2.326 . S
Dy0 O15 2.310 . S
Dy0 O16 2.351 1_455 S
C1 O12 1.185 . S
C1 O13 1.355 . S
C2 O4 1.185 . S
C2 O5 1.355 . S
Dy3 O7 2.310 1_655 S
Dy3 O10 2.351 1_655 S
Dy3 O12 2.398 . S
Dy3 O13 2.491 . S
Dy3 O14 2.403 . S
Dy3 O15 2.664 1_655 S
Dy3 O17 2.326 . S
O4 Dy0 2.398 . S
O4 C2 1.185 . S
O5 Dy0 2.491 . S
O5 C2 1.355 . S
O6 Dy0 2.403 . S
O6 C8 1.254 . S
O7 Dy0 2.664 . S
O7 Dy3 2.310 1_455 S
O7 C8 1.268 . S
C8 O6 1.254 . S
C8 O7 1.268 . S
C9 O14 1.254 1_455 S
C9 O15 1.268 . S
O10 Dy3 2.351 1_455 S
O10 C18 1.249 . S
O11 Dy0 2.326 . S
O11 C18 1.267 . S
O12 C1 1.185 . S
O12 Dy3 2.398 . S
O13 C1 1.355 . S
O13 Dy3 2.491 . S
O14 Dy3 2.403 . S
O14 C9 1.254 1_655 S
O15 Dy0 2.310 . S
O15 Dy3 2.664 1_455 S
O15 C9 1.268 . S
O16 Dy0 2.351 1_655 S
O16 C19 1.249 . S
O17 Dy3 2.326 . S
O17 C19 1.267 . S
C18 O10 1.249 . S
C18 O11 1.267 . S
C19 O16 1.249 . S
C19 O17 1.267 . S
Dy20 O24 2.398 . S
Dy20 O25 2.491 . S
Dy20 O26 2.403 . S
Dy20 O27 2.664 1_565 S
Dy20 O31 2.326 . S
Dy20 O35 2.310 1_565 S
Dy20 O36 2.351 1_565 S
C21 O32 1.185 . S
C21 O33 1.355 . S
C22 O24 1.185 . S
C22 O25 1.355 . S
Dy23 O27 2.310 . S
Dy23 O30 2.351 1_545 S
Dy23 O32 2.398 . S
Dy23 O33 2.491 . S
Dy23 O34 2.403 . S
Dy23 O35 2.664 . S
Dy23 O37 2.326 . S
O24 Dy20 2.398 . S
O24 C22 1.185 . S
O25 Dy20 2.491 . S
O25 C22 1.355 . S
O26 Dy20 2.403 . S
O26 C28 1.254 1_565 S
O27 Dy20 2.664 1_545 S
O27 Dy23 2.310 . S
O27 C28 1.268 . S
C28 O26 1.254 1_545 S
C28 O27 1.268 . S
C29 O34 1.254 . S
C29 O35 1.268 . S
O30 Dy23 2.351 1_565 S
O30 C38 1.249 . S
O31 Dy20 2.326 . S
O31 C38 1.267 . S
O32 C21 1.185 . S
O32 Dy23 2.398 . S
O33 C21 1.355 . S
O33 Dy23 2.491 . S
O34 Dy23 2.403 . S
O34 C29 1.254 . S
O35 Dy20 2.310 1_545 S
O35 Dy23 2.664 . S
O35 C29 1.268 . S
O36 Dy20 2.351 1_545 S
O36 C39 1.249 . S
O37 Dy23 2.326 . S
O37 C39 1.267 . S
C38 O30 1.249 . S
C38 O31 1.267 . S
C39 O36 1.249 . S
C39 O37 1.267 . S
Dy40 O44 2.398 . S
Dy40 O45 2.491 . S
Dy40 O46 2.403 . S
Dy40 O47 2.664 . S
Dy40 O51 2.326 . S
Dy40 O55 2.310 . S
Dy40 O56 2.351 . S
C41 O52 1.185 . S
C41 O53 1.355 . S
C42 O44 1.185 . S
C42 O45 1.355 . S
Dy43 O47 2.310 . S
Dy43 O50 2.351 . S
Dy43 O52 2.398 . S
Dy43 O53 2.491 . S
Dy43 O54 2.403 . S
Dy43 O55 2.664 . S
Dy43 O57 2.326 . S
O44 Dy40 2.398 . S
O44 C42 1.185 . S
O45 Dy40 2.491 . S
O45 C42 1.355 . S
O46 Dy40 2.403 . S
O46 C48 1.254 . S
O47 Dy40 2.664 . S
O47 Dy43 2.310 . S
O47 C48 1.268 . S
C48 O46 1.254 . S
C48 O47 1.268 . S
C49 O54 1.254 . S
C49 O55 1.268 . S
O50 Dy43 2.351 . S
O50 C58 1.249 . S
O51 Dy40 2.326 . S
O51 C58 1.267 . S
O52 C41 1.185 . S
O52 Dy43 2.398 . S
O53 C41 1.355 . S
O53 Dy43 2.491 . S
O54 Dy43 2.403 . S
O54 C49 1.254 . S
O55 Dy40 2.310 . S
O55 Dy43 2.664 . S
O55 C49 1.268 . S
O56 Dy40 2.351 . S
O56 C59 1.249 . S
O57 Dy43 2.326 . S
O57 C59 1.267 . S
C58 O50 1.249 . S
C58 O51 1.267 . S
C59 O56 1.249 . S
C59 O57 1.267 . S
O60 Cd61 2.300 . S
O60 C67 1.254 1_545 S
Cd61 O60 2.300 . S
Cd61 O69 2.381 . S
Cd61 O70 2.378 . S
O62 Cd63 2.385 . S
O62 C67 1.280 . S
Cd63 O62 2.385 . S
Cd63 O64 2.317 . S
O64 Cd63 2.317 . S
O64 C65 1.232 . S
C65 O64 1.232 . S
C65 O66 1.218 . S
O66 C65 1.218 . S
C67 O60 1.254 1_565 S
C67 O62 1.280 . S
C68 O69 1.258 . S
C68 O70 1.256 . S
O69 Cd61 2.381 . S
O69 C68 1.258 . S
O70 Cd61 2.378 . S
O70 C68 1.256 . S
O71 Cd72 2.300 . S
O71 C78 1.275 . S
Cd72 O71 2.300 . S
Cd72 O80 2.381 . S
Cd72 O81 2.378 . S
O73 Cd74 2.385 . S
O73 C78 1.255 . S
Cd74 O73 2.385 . S
Cd74 O75 2.317 . S
O75 Cd74 2.317 . S
O75 C76 1.232 . S
C76 O75 1.232 . S
C76 O77 1.218 . S
O77 C76 1.218 . S
C78 O71 1.275 . S
C78 O73 1.255 . S
C79 O80 1.258 . S
C79 O81 1.256 . S
O80 Cd72 2.381 . S
O80 C79 1.258 . S
O81 Cd72 2.378 . S
O81 C79 1.256 . S
O82 Cd83 2.300 . S
O82 C89 1.275 . S
Cd83 O82 2.300 . S
Cd83 O91 2.381 . S
Cd83 O92 2.378 . S
O84 Cd85 2.385 1_455 S
O84 C89 1.255 . S
Cd85 O84 2.385 1_655 S
Cd85 O86 2.317 . S
O86 Cd85 2.317 . S
O86 C87 1.232 . S
C87 O86 1.232 . S
C87 O88 1.218 . S
O88 C87 1.218 . S
C89 O82 1.275 . S
C89 O84 1.255 . S
C90 O91 1.258 . S
C90 O92 1.256 . S
O91 Cd83 2.381 . S
O91 C90 1.258 . S
O92 Cd83 2.378 . S
O92 C90 1.256 . S
O93 Cd94 2.300 . S
O93 C100 1.294 . S
Cd94 O93 2.300 . S
Cd94 O102 2.381 . S
Cd94 O103 2.378 . S
O95 Cd96 2.385 . S
O95 C100 1.234 1_655 S
Cd96 O95 2.385 . S
Cd96 O97 2.317 . S
O97 Cd96 2.317 . S
O97 C98 1.232 . S
C98 O97 1.232 . S
C98 O99 1.218 . S
O99 C98 1.218 . S
C100 O93 1.294 . S
C100 O95 1.234 1_455 S
C101 O102 1.258 . S
C101 O103 1.256 . S
O102 Cd94 2.381 . S
O102 C101 1.258 . S
O103 Cd94 2.378 . S
O103 C101 1.256 . S
O104 Cd105 2.300 1_565 S
O104 C111 1.275 1_565 S
Cd105 O104 2.300 1_545 S
Cd105 O113 2.381 1_545 S
Cd105 O114 2.378 1_545 S
O106 Cd107 2.385 . S
O106 C111 1.255 . S
Cd107 O106 2.385 . S
Cd107 O108 2.317 . S
O108 Cd107 2.317 . S
O108 C109 1.232 . S
C109 O108 1.232 . S
C109 O110 1.218 . S
O110 C109 1.218 . S
C111 O104 1.275 1_545 S
C111 O106 1.255 . S
C112 O113 1.258 . S
C112 O114 1.256 . S
O113 Cd105 2.381 1_565 S
O113 C112 1.258 . S
O114 Cd105 2.378 1_565 S
O114 C112 1.256 . S
O115 Cd116 2.300 . S
O115 C122 1.275 . S
Cd116 O115 2.300 . S
Cd116 O124 2.381 . S
Cd116 O125 2.378 . S
O117 Cd118 2.385 . S
O117 C122 1.255 . S
Cd118 O117 2.385 . S
Cd118 O119 2.317 . S
O119 Cd118 2.317 . S
O119 C120 1.232 . S
C120 O119 1.232 . S
C120 O121 1.218 . S
O121 C120 1.218 . S
C122 O115 1.275 . S
C122 O117 1.255 . S
C123 O124 1.258 . S
C123 O125 1.256 . S
O124 Cd116 2.381 . S
O124 C123 1.258 . S
O125 Cd116 2.378 . S
O125 C123 1.256 . S
H126 C134 0.950 . S
H127 C139 0.950 . S
H128 C136 0.950 . S
H129 C138 0.950 . S
H130 C140 0.950 . S
H131 C142 0.950 . S
H132 C144 0.950 . S
H133 C145 0.950 . S
C134 H126 0.950 . S
C134 C135 1.386 . S
C134 C136 1.391 . S
C135 C134 1.386 . S
C135 C139 1.393 . S
C136 H128 0.950 . S
C136 C134 1.391 . S
C136 C137 1.400 . S
C137 C136 1.400 . S
C137 C138 1.398 . S
C137 C143 1.491 . S
C138 H129 0.950 . S
C138 C137 1.398 . S
C138 C139 1.391 . S
C139 H127 0.950 . S
C139 C135 1.393 . S
C139 C138 1.391 . S
C140 H130 0.950 . S
C140 C141 1.386 . S
C140 C142 1.391 . S
C141 C140 1.386 . S
C141 C145 1.393 . S
C142 H131 0.950 . S
C142 C140 1.391 . S
C142 C143 1.400 . S
C143 C137 1.491 . S
C143 C142 1.400 . S
C143 C144 1.398 . S
C144 H132 0.950 . S
C144 C143 1.398 . S
C144 C145 1.391 . S
C145 H133 0.950 . S
C145 C141 1.393 . S
C145 C144 1.391 . S
H146 C154 0.950 . S
H147 C159 0.950 . S
H148 C156 0.950 . S
H149 C158 0.950 . S
H150 C160 0.950 . S
H151 C162 0.950 . S
H152 C164 0.950 . S
H153 C165 0.950 . S
C154 H146 0.950 . S
C154 C155 1.386 . S
C154 C156 1.391 . S
C155 C154 1.386 . S
C155 C159 1.393 . S
C156 H148 0.950 . S
C156 C154 1.391 . S
C156 C157 1.400 . S
C157 C156 1.400 . S
C157 C158 1.398 . S
C157 C163 1.491 . S
C158 H149 0.950 . S
C158 C157 1.398 . S
C158 C159 1.391 . S
C159 H147 0.950 . S
C159 C155 1.393 . S
C159 C158 1.391 . S
C160 H150 0.950 . S
C160 C161 1.386 . S
C160 C162 1.391 . S
C161 C160 1.386 . S
C161 C165 1.393 . S
C162 H151 0.950 . S
C162 C160 1.391 . S
C162 C163 1.400 . S
C163 C157 1.491 . S
C163 C162 1.400 . S
C163 C164 1.398 . S
C164 H152 0.950 . S
C164 C163 1.398 . S
C164 C165 1.391 . S
C165 H153 0.950 . S
C165 C161 1.393 . S
C165 C164 1.391 . S
H166 C174 0.950 . S
H167 C179 0.950 . S
H168 C176 0.950 . S
H169 C178 0.950 . S
H170 C180 0.950 . S
H171 C182 0.950 . S
H172 C184 0.950 . S
H173 C185 0.950 . S
C174 H166 0.950 . S
C174 C175 1.386 . S
C174 C176 1.391 . S
C175 C174 1.386 . S
C175 C179 1.393 . S
C176 H168 0.950 . S
C176 C174 1.391 . S
C176 C177 1.400 . S
C177 C176 1.400 . S
C177 C178 1.398 . S
C177 C183 1.491 . S
C178 H169 0.950 . S
C178 C177 1.398 . S
C178 C179 1.391 . S
C179 H167 0.950 . S
C179 C175 1.393 . S
C179 C178 1.391 . S
C180 H170 0.950 . S
C180 C181 1.386 . S
C180 C182 1.391 . S
C181 C180 1.386 . S
C181 C185 1.393 . S
C182 H171 0.950 . S
C182 C180 1.391 . S
C182 C183 1.400 . S
C183 C177 1.491 . S
C183 C182 1.400 . S
C183 C184 1.398 . S
C184 H172 0.950 . S
C184 C183 1.398 . S
C184 C185 1.391 . S
C185 H173 0.950 . S
C185 C181 1.393 . S
C185 C184 1.391 . S
H186 C194 0.950 . S
H187 C199 0.950 . S
H188 C196 0.950 . S
H189 C198 0.950 . S
H190 C200 0.950 . S
H191 C202 0.950 . S
H192 C204 0.950 . S
H193 C205 0.950 . S
C194 H186 0.950 . S
C194 C195 1.386 . S
C194 C196 1.391 . S
C195 C194 1.386 . S
C195 C199 1.393 . S
C196 H188 0.950 . S
C196 C194 1.391 . S
C196 C197 1.400 . S
C197 C196 1.400 . S
C197 C198 1.398 . S
C197 C203 1.491 . S
C198 H189 0.950 . S
C198 C197 1.398 . S
C198 C199 1.391 . S
C199 H187 0.950 . S
C199 C195 1.393 . S
C199 C198 1.391 . S
C200 H190 0.950 . S
C200 C201 1.386 . S
C200 C202 1.391 . S
C201 C200 1.386 . S
C201 C205 1.393 . S
C202 H191 0.950 . S
C202 C200 1.391 . S
C202 C203 1.400 . S
C203 C197 1.491 . S
C203 C202 1.400 . S
C203 C204 1.398 . S
C204 H192 0.950 . S
C204 C203 1.398 . S
C204 C205 1.391 . S
C205 H193 0.950 . S
C205 C201 1.393 . S
C205 C204 1.391 . S
H206 C214 0.950 . S
H207 C219 0.950 . S
H208 C216 0.950 . S
H209 C218 0.950 . S
H210 C220 0.950 . S
H211 C222 0.950 . S
H212 C224 0.950 . S
H213 C225 0.950 . S
C214 H206 0.950 . S
C214 C215 1.386 . S
C214 C216 1.391 . S
C215 C214 1.386 . S
C215 C219 1.393 . S
C216 H208 0.950 . S
C216 C214 1.391 . S
C216 C217 1.400 . S
C217 C216 1.400 . S
C217 C218 1.398 . S
C217 C223 1.491 . S
C218 H209 0.950 . S
C218 C217 1.398 . S
C218 C219 1.391 . S
C219 H207 0.950 . S
C219 C215 1.393 . S
C219 C218 1.391 . S
C220 H210 0.950 . S
C220 C221 1.386 . S
C220 C222 1.391 . S
C221 C220 1.386 . S
C221 C225 1.393 . S
C222 H211 0.950 . S
C222 C220 1.391 . S
C222 C223 1.400 . S
C223 C217 1.491 . S
C223 C222 1.400 . S
C223 C224 1.398 . S
C224 H212 0.950 . S
C224 C223 1.398 . S
C224 C225 1.391 . S
C225 H213 0.950 . S
C225 C221 1.393 . S
C225 C224 1.391 . S
H226 C234 0.950 . S
H227 C239 0.950 . S
H228 C236 0.950 . S
H229 C238 0.950 . S
H230 C240 0.950 . S
H231 C242 0.950 . S
H232 C244 0.950 . S
H233 C245 0.950 . S
C234 H226 0.950 . S
C234 C235 1.386 . S
C234 C236 1.391 . S
C235 C234 1.386 . S
C235 C239 1.393 . S
C236 H228 0.950 . S
C236 C234 1.391 . S
C236 C237 1.400 . S
C237 C236 1.400 . S
C237 C238 1.398 . S
C237 C243 1.491 . S
C238 H229 0.950 . S
C238 C237 1.398 . S
C238 C239 1.391 . S
C239 H227 0.950 . S
C239 C235 1.393 . S
C239 C238 1.391 . S
C240 H230 0.950 . S
C240 C241 1.386 . S
C240 C242 1.391 . S
C241 C240 1.386 . S
C241 C245 1.393 . S
C242 H231 0.950 . S
C242 C240 1.391 . S
C242 C243 1.400 . S
C243 C237 1.491 . S
C243 C242 1.400 . S
C243 C244 1.398 . S
C244 H232 0.950 . S
C244 C243 1.398 . S
C244 C245 1.391 . S
C245 H233 0.950 . S
C245 C241 1.393 . S
C245 C244 1.391 . S
H246 C254 0.950 . S
H247 C259 0.950 . S
H248 C256 0.950 . S
H249 C258 0.950 . S
H250 C260 0.950 . S
H251 C262 0.950 . S
H252 C264 0.950 . S
H253 C265 0.950 . S
C254 H246 0.950 . S
C254 C255 1.386 . S
C254 C256 1.391 . S
C255 C254 1.386 . S
C255 C259 1.393 . S
C256 H248 0.950 . S
C256 C254 1.391 . S
C256 C257 1.400 . S
C257 C256 1.400 . S
C257 C258 1.398 . S
C257 C263 1.491 . S
C258 H249 0.950 . S
C258 C257 1.398 . S
C258 C259 1.391 . S
C259 H247 0.950 . S
C259 C255 1.393 . S
C259 C258 1.391 . S
C260 H250 0.950 . S
C260 C261 1.386 . S
C260 C262 1.391 . S
C261 C260 1.386 . S
C261 C265 1.393 . S
C262 H251 0.950 . S
C262 C260 1.391 . S
C262 C263 1.400 . S
C263 C257 1.491 . S
C263 C262 1.400 . S
C263 C264 1.398 . S
C264 H252 0.950 . S
C264 C263 1.398 . S
C264 C265 1.391 . S
C265 H253 0.950 . S
C265 C261 1.393 . S
C265 C264 1.391 . S
H266 C274 0.950 . S
H267 C279 0.950 . S
H268 C276 0.950 . S
H269 C278 0.950 . S
H270 C280 0.950 . S
H271 C282 0.950 . S
H272 C284 0.950 . S
H273 C285 0.950 . S
C274 H266 0.950 . S
C274 C275 1.386 . S
C274 C276 1.391 . S
C275 C274 1.386 . S
C275 C279 1.393 . S
C276 H268 0.950 . S
C276 C274 1.391 . S
C276 C277 1.400 . S
C277 C276 1.400 . S
C277 C278 1.398 . S
C277 C283 1.491 . S
C278 H269 0.950 . S
C278 C277 1.398 . S
C278 C279 1.391 . S
C279 H267 0.950 . S
C279 C275 1.393 . S
C279 C278 1.391 . S
C280 H270 0.950 . S
C280 C281 1.386 . S
C280 C282 1.391 . S
C281 C280 1.386 . S
C281 C285 1.393 . S
C282 H271 0.950 . S
C282 C280 1.391 . S
C282 C283 1.400 . S
C283 C277 1.491 . S
C283 C282 1.400 . S
C283 C284 1.398 . S
C284 H272 0.950 . S
C284 C283 1.398 . S
C284 C285 1.391 . S
C285 H273 0.950 . S
C285 C281 1.393 . S
C285 C284 1.391 . S
H286 C294 0.950 . S
H287 C299 0.950 . S
H288 C296 0.950 . S
H289 C298 0.950 . S
H290 C300 0.950 . S
H291 C302 0.950 . S
H292 C304 0.950 . S
H293 C305 0.950 . S
C294 H286 0.950 . S
C294 C295 1.386 . S
C294 C296 1.391 . S
C295 C294 1.386 . S
C295 C299 1.393 . S
C296 H288 0.950 . S
C296 C294 1.391 . S
C296 C297 1.400 . S
C297 C296 1.400 . S
C297 C298 1.398 . S
C297 C303 1.491 . S
C298 H289 0.950 . S
C298 C297 1.398 . S
C298 C299 1.391 . S
C299 H287 0.950 . S
C299 C295 1.393 . S
C299 C298 1.391 . S
C300 H290 0.950 . S
C300 C301 1.386 . S
C300 C302 1.391 . S
C301 C300 1.386 . S
C301 C305 1.393 . S
C302 H291 0.950 . S
C302 C300 1.391 . S
C302 C303 1.400 . S
C303 C297 1.491 . S
C303 C302 1.400 . S
C303 C304 1.398 . S
C304 H292 0.950 . S
C304 C303 1.398 . S
C304 C305 1.391 . S
C305 H293 0.950 . S
C305 C301 1.393 . S
C305 C304 1.391 . S
H306 C314 0.950 . S
H307 C319 0.950 . S
H308 C316 0.950 . S
H309 C318 0.950 . S
H310 C320 0.950 . S
H311 C322 0.950 . S
H312 C324 0.950 . S
H313 C325 0.950 . S
C314 H306 0.950 . S
C314 C315 1.386 . S
C314 C316 1.391 . S
C315 C314 1.386 . S
C315 C319 1.393 . S
C316 H308 0.950 . S
C316 C314 1.391 . S
C316 C317 1.400 . S
C317 C316 1.400 . S
C317 C318 1.398 . S
C317 C323 1.491 . S
C318 H309 0.950 . S
C318 C317 1.398 . S
C318 C319 1.391 . S
C319 H307 0.950 . S
C319 C315 1.393 . S
C319 C318 1.391 . S
C320 H310 0.950 . S
C320 C321 1.386 . S
C320 C322 1.391 . S
C321 C320 1.386 . S
C321 C325 1.393 . S
C322 H311 0.950 . S
C322 C320 1.391 . S
C322 C323 1.400 . S
C323 C317 1.491 . S
C323 C322 1.400 . S
C323 C324 1.398 . S
C324 H312 0.950 . S
C324 C323 1.398 . S
C324 C325 1.391 . S
C325 H313 0.950 . S
C325 C321 1.393 . S
C325 C324 1.391 . S
H326 C334 0.950 . S
H327 C339 0.950 . S
H328 C336 0.950 . S
H329 C338 0.950 . S
H330 C340 0.950 . S
H331 C342 0.950 . S
H332 C344 0.950 . S
H333 C345 0.950 . S
C334 H326 0.950 . S
C334 C335 1.386 . S
C334 C336 1.391 . S
C335 C334 1.386 . S
C335 C339 1.393 . S
C336 H328 0.950 . S
C336 C334 1.391 . S
C336 C337 1.400 . S
C337 C336 1.400 . S
C337 C338 1.398 . S
C337 C343 1.491 . S
C338 H329 0.950 . S
C338 C337 1.398 . S
C338 C339 1.391 . S
C339 H327 0.950 . S
C339 C335 1.393 . S
C339 C338 1.391 . S
C340 H330 0.950 . S
C340 C341 1.386 . S
C340 C342 1.391 . S
C341 C340 1.386 . S
C341 C345 1.393 . S
C342 H331 0.950 . S
C342 C340 1.391 . S
C342 C343 1.400 . S
C343 C337 1.491 . S
C343 C342 1.400 . S
C343 C344 1.398 . S
C344 H332 0.950 . S
C344 C343 1.398 . S
C344 C345 1.391 . S
C345 H333 0.950 . S
C345 C341 1.393 . S
C345 C344 1.391 . S
H346 C354 0.950 . S
H347 C359 0.950 . S
H348 C356 0.950 . S
H349 C358 0.950 . S
H350 C360 0.950 . S
H351 C362 0.950 . S
H352 C364 0.950 . S
H353 C365 0.950 . S
C354 H346 0.950 . S
C354 C355 1.386 . S
C354 C356 1.391 . S
C355 C354 1.386 . S
C355 C359 1.393 . S
C356 H348 0.950 . S
C356 C354 1.391 . S
C356 C357 1.400 . S
C357 C356 1.400 . S
C357 C358 1.398 . S
C357 C363 1.491 . S
C358 H349 0.950 . S
C358 C357 1.398 . S
C358 C359 1.391 . S
C359 H347 0.950 . S
C359 C355 1.393 . S
C359 C358 1.391 . S
C360 H350 0.950 . S
C360 C361 1.386 . S
C360 C362 1.391 . S
C361 C360 1.386 . S
C361 C365 1.393 . S
C362 H351 0.950 . S
C362 C360 1.391 . S
C362 C363 1.400 . S
C363 C357 1.491 . S
C363 C362 1.400 . S
C363 C364 1.398 . S
C364 H352 0.950 . S
C364 C363 1.398 . S
C364 C365 1.391 . S
C365 H353 0.950 . S
C365 C361 1.393 . S
C365 C364 1.391 . S
H366 C374 0.950 . S
H367 C379 0.950 . S
H368 C376 0.950 . S
H369 C378 0.950 . S
H370 C380 0.950 . S
H371 C382 0.950 . S
H372 C384 0.950 . S
H373 C385 0.950 . S
C374 H366 0.950 . S
C374 C375 1.386 . S
C374 C376 1.391 . S
C375 C374 1.386 . S
C375 C379 1.393 1_455 S
C376 H368 0.950 . S
C376 C374 1.391 . S
C376 C377 1.400 . S
C377 C376 1.400 . S
C377 C378 1.398 1_455 S
C377 C383 1.491 . S
C378 H369 0.950 . S
C378 C377 1.398 1_655 S
C378 C379 1.391 . S
C379 H367 0.950 . S
C379 C375 1.393 1_655 S
C379 C378 1.391 . S
C380 H370 0.950 . S
C380 C381 1.386 1_655 S
C380 C382 1.391 . S
C381 C380 1.386 1_455 S
C381 C385 1.393 . S
C382 H371 0.950 . S
C382 C380 1.391 . S
C382 C383 1.400 1_656 S
C383 C377 1.491 . S
C383 C382 1.400 1_454 S
C383 C384 1.398 1_554 S
C384 H372 0.950 . S
C384 C383 1.398 1_556 S
C384 C385 1.391 . S
C385 H373 0.950 . S
C385 C381 1.393 . S
C385 C384 1.391 . S
H386 C394 0.950 . S
H387 C399 0.950 . S
H388 C396 0.950 . S
H389 C398 0.950 . S
H390 C400 0.950 . S
H391 C402 0.950 . S
H392 C404 0.950 . S
H393 C405 0.950 . S
C394 H386 0.950 . S
C394 C395 1.386 . S
C394 C396 1.391 . S
C395 C394 1.386 . S
C395 C399 1.393 . S
C396 H388 0.950 . S
C396 C394 1.391 . S
C396 C397 1.400 . S
C397 C396 1.400 . S
C397 C398 1.398 . S
C397 C403 1.491 . S
C398 H389 0.950 . S
C398 C397 1.398 . S
C398 C399 1.391 . S
C399 H387 0.950 . S
C399 C395 1.393 . S
C399 C398 1.391 . S
C400 H390 0.950 . S
C400 C401 1.386 . S
C400 C402 1.391 1_565 S
C401 C400 1.386 . S
C401 C405 1.393 . S
C402 H391 0.950 . S
C402 C400 1.391 1_545 S
C402 C403 1.400 . S
C403 C397 1.491 . S
C403 C402 1.400 . S
C403 C404 1.398 1_545 S
C404 H392 0.950 . S
C404 C403 1.398 1_565 S
C404 C405 1.391 . S
C405 H393 0.950 . S
C405 C401 1.393 . S
C405 C404 1.391 . S
H406 C414 0.950 . S
H407 C419 0.950 . S
H408 C416 0.950 . S
H409 C418 0.950 . S
H410 C420 0.950 . S
H411 C422 0.950 . S
H412 C424 0.950 . S
H413 C425 0.950 . S
C414 H406 0.950 . S
C414 C415 1.386 . S
C414 C416 1.391 . S
C415 C414 1.386 . S
C415 C419 1.393 . S
C416 H408 0.950 . S
C416 C414 1.391 . S
C416 C417 1.400 . S
C417 C416 1.400 . S
C417 C418 1.398 . S
C417 C423 1.491 . S
C418 H409 0.950 . S
C418 C417 1.398 . S
C418 C419 1.391 . S
C419 H407 0.950 . S
C419 C415 1.393 . S
C419 C418 1.391 . S
C420 H410 0.950 . S
C420 C421 1.386 . S
C420 C422 1.391 . S
C421 C420 1.386 . S
C421 C425 1.393 . S
C422 H411 0.950 . S
C422 C420 1.391 . S
C422 C423 1.400 . S
C423 C417 1.491 . S
C423 C422 1.400 . S
C423 C424 1.398 . S
C424 H412 0.950 . S
C424 C423 1.398 . S
C424 C425 1.391 . S
C425 H413 0.950 . S
C425 C421 1.393 . S
C425 C424 1.391 . S
H426 C434 0.950 . S
H427 C439 0.950 . S
H428 C436 0.950 . S
H429 C438 0.950 . S
H430 C440 0.950 . S
H431 C442 0.950 . S
H432 C444 0.950 . S
H433 C445 0.950 . S
C434 H426 0.950 . S
C434 C435 1.386 1_565 S
C434 C436 1.391 . S
C435 C434 1.386 1_545 S
C435 C439 1.393 . S
C436 H428 0.950 . S
C436 C434 1.391 . S
C436 C437 1.400 1_565 S
C437 C436 1.400 1_545 S
C437 C438 1.398 . S
C437 C443 1.491 . S
C438 H429 0.950 . S
C438 C437 1.398 . S
C438 C439 1.391 . S
C439 H427 0.950 . S
C439 C435 1.393 . S
C439 C438 1.391 . S
C440 H430 0.950 . S
C440 C441 1.386 . S
C440 C442 1.391 . S
C441 C440 1.386 . S
C441 C445 1.393 1_545 S
C442 H431 0.950 . S
C442 C440 1.391 . S
C442 C443 1.400 . S
C443 C437 1.491 . S
C443 C442 1.400 . S
C443 C444 1.398 1_545 S
C444 H432 0.950 . S
C444 C443 1.398 1_565 S
C444 C445 1.391 . S
C445 H433 0.950 . S
C445 C441 1.393 1_565 S
C445 C444 1.391 . S
H446 C454 0.950 . S
H447 C459 0.950 . S
H448 C456 0.950 . S
H449 C458 0.950 . S
H450 C460 0.950 . S
H451 C462 0.950 . S
H452 C464 0.949 1_556 S
H453 C465 0.950 . S
C454 H446 0.950 . S
C454 C455 1.386 . S
C454 C456 1.391 . S
C455 C454 1.386 . S
C455 C459 1.393 . S
C456 H448 0.950 . S
C456 C454 1.391 . S
C456 C457 1.400 . S
C457 C456 1.400 . S
C457 C458 1.398 . S
C457 C463 1.491 . S
C458 H449 0.950 . S
C458 C457 1.398 . S
C458 C459 1.391 . S
C459 H447 0.950 . S
C459 C455 1.393 . S
C459 C458 1.391 . S
C460 H450 0.950 . S
C460 C461 1.386 . S
C460 C462 1.391 . S
C461 C460 1.386 . S
C461 C465 1.393 . S
C462 H451 0.950 . S
C462 C460 1.391 . S
C462 C463 1.400 1_554 S
C463 C457 1.491 . S
C463 C462 1.400 1_556 S
C463 C464 1.398 1_556 S
C464 H452 0.949 1_554 S
C464 C463 1.398 1_554 S
C464 C465 1.391 . S
C465 H453 0.950 . S
C465 C461 1.393 . S
C465 C464 1.391 . S
H466 C474 0.950 . S
H467 C479 0.950 . S
H468 C476 0.950 . S
H469 C478 0.950 . S
H470 C480 0.950 . S
H471 C482 0.950 . S
H472 C484 0.950 . S
H473 C485 0.950 . S
C474 H466 0.950 . S
C474 C475 1.386 1_655 S
C474 C476 1.391 . S
C475 C474 1.386 1_455 S
C475 C479 1.393 . S
C476 H468 0.950 . S
C476 C474 1.391 . S
C476 C477 1.400 1_655 S
C477 C476 1.400 1_455 S
C477 C478 1.398 . S
C477 C483 1.491 . S
C478 H469 0.950 . S
C478 C477 1.398 . S
C478 C479 1.391 . S
C479 H467 0.950 . S
C479 C475 1.393 . S
C479 C478 1.391 . S
C480 H470 0.950 . S
C480 C481 1.361 1_455 S
C480 C482 1.391 . S
C481 C480 1.361 1_655 S
C481 C485 1.415 . S
C482 H471 0.950 . S
C482 C480 1.391 . S
C482 C483 1.400 . S
C483 C477 1.491 . S
C483 C482 1.400 . S
C483 C484 1.398 1_455 S
C484 H472 0.950 . S
C484 C483 1.398 1_655 S
C484 C485 1.391 . S
C485 H473 0.950 . S
C485 C481 1.415 . S
C485 C484 1.391 . S
C135 C2 1.215 . S
C141 C120 1.068 . S
C155 C21 1.125 . S
C161 C98 0.965 . S
C175 C42 0.937 . S
C181 C112 0.935 . S
C195 C1 0.886 . S
C201 C123 0.859 . S
C221 C101 0.951 . S
C215 C22 0.949 . S
C241 C109 0.964 . S
C235 C41 1.122 . S
C255 C38 2.018 . S
C261 C76 1.726 . S
C275 C59 2.096 . S
C281 C87 1.812 . S
C295 C18 2.010 . S
C301 C65 1.762 . S
C321 C79 1.768 . S
C315 C39 1.820 . S
C341 C90 1.699 . S
C335 C58 1.750 . S
C355 C19 1.813 . S
C361 C68 1.755 . S
C381 C89 1.518 . S
C375 C9 1.524 . S
C395 C29 1.521 . S
C401 C67 1.515 . S
C415 C49 1.515 . S
C421 C78 1.519 . S
C441 C111 1.402 . S
C435 C28 1.432 . S
C461 C122 1.400 . S
C455 C48 1.423 . S
C475 C8 1.415 . S
C481 C100 1.383 1_655 S
