# Generated by pormake.
# Topology ocu, (6,8)-cn, num edge types: 1
# Building blocks:
#     Node 0, Type 0, BuildingBlock: KUMJIN_clean_sbu_0, # of connection points: 6
#     Node 1, Type 0, BuildingBlock: KUMJIN_clean_sbu_0, # of connection points: 6
#     Node 2, Type 0, BuildingBlock: KUMJIN_clean_sbu_0, # of connection points: 6
#     Node 3, Type 0, BuildingBlock: KUMJIN_clean_sbu_0, # of connection points: 6
#     Node 4, Type 0, BuildingBlock: KUMJIN_clean_sbu_0, # of connection points: 6
#     Node 5, Type 0, BuildingBlock: KUMJIN_clean_sbu_0, # of connection points: 6
#     Node 6, Type 0, BuildingBlock: KUMJIN_clean_sbu_0, # of connection points: 6
#     Node 7, Type 0, BuildingBlock: KUMJIN_clean_sbu_0, # of connection points: 6
#     Node 8, Type 1, BuildingBlock: GIZVER_clean_sbu_0, # of connection points: 8
#     Node 9, Type 1, BuildingBlock: GIZVER_clean_sbu_0, # of connection points: 8
#     Node 10, Type 1, BuildingBlock: GIZVER_clean_sbu_0, # of connection points: 8
#     Node 11, Type 1, BuildingBlock: GIZVER_clean_sbu_0, # of connection points: 8
#     Node 12, Type 1, BuildingBlock: GIZVER_clean_sbu_0, # of connection points: 8
#     Node 13, Type 1, BuildingBlock: GIZVER_clean_sbu_0, # of connection points: 8
#     Edge 14, Type (0, 1), BuildingBlock: ZUJKAS_clean_linker_0, # of connection points: 2
#     Edge 15, Type (0, 1), BuildingBlock: ZUJKAS_clean_linker_0, # of connection points: 2
#     Edge 16, Type (0, 1), BuildingBlock: ZUJKAS_clean_linker_0, # of connection points: 2
#     Edge 17, Type (0, 1), BuildingBlock: ZUJKAS_clean_linker_0, # of connection points: 2
#     Edge 18, Type (0, 1), BuildingBlock: ZUJKAS_clean_linker_0, # of connection points: 2
#     Edge 19, Type (0, 1), BuildingBlock: ZUJKAS_clean_linker_0, # of connection points: 2
#     Edge 20, Type (0, 1), BuildingBlock: ZUJKAS_clean_linker_0, # of connection points: 2
#     Edge 21, Type (0, 1), BuildingBlock: ZUJKAS_clean_linker_0, # of connection points: 2
#     Edge 22, Type (0, 1), BuildingBlock: ZUJKAS_clean_linker_0, # of connection points: 2
#     Edge 23, Type (0, 1), BuildingBlock: ZUJKAS_clean_linker_0, # of connection points: 2
#     Edge 24, Type (0, 1), BuildingBlock: ZUJKAS_clean_linker_0, # of connection points: 2
#     Edge 25, Type (0, 1), BuildingBlock: ZUJKAS_clean_linker_0, # of connection points: 2
#     Edge 26, Type (0, 1), BuildingBlock: ZUJKAS_clean_linker_0, # of connection points: 2
#     Edge 27, Type (0, 1), BuildingBlock: ZUJKAS_clean_linker_0, # of connection points: 2
#     Edge 28, Type (0, 1), BuildingBlock: ZUJKAS_clean_linker_0, # of connection points: 2
#     Edge 29, Type (0, 1), BuildingBlock: ZUJKAS_clean_linker_0, # of connection points: 2
#     Edge 30, Type (0, 1), BuildingBlock: ZUJKAS_clean_linker_0, # of connection points: 2
#     Edge 31, Type (0, 1), BuildingBlock: ZUJKAS_clean_linker_0, # of connection points: 2
#     Edge 32, Type (0, 1), BuildingBlock: ZUJKAS_clean_linker_0, # of connection points: 2
#     Edge 33, Type (0, 1), BuildingBlock: ZUJKAS_clean_linker_0, # of connection points: 2
#     Edge 34, Type (0, 1), BuildingBlock: ZUJKAS_clean_linker_0, # of connection points: 2
#     Edge 35, Type (0, 1), BuildingBlock: ZUJKAS_clean_linker_0, # of connection points: 2
#     Edge 36, Type (0, 1), BuildingBlock: ZUJKAS_clean_linker_0, # of connection points: 2
#     Edge 37, Type (0, 1), BuildingBlock: ZUJKAS_clean_linker_0, # of connection points: 2
#     Edge 38, Type (0, 1), BuildingBlock: ZUJKAS_clean_linker_0, # of connection points: 2
#     Edge 39, Type (0, 1), BuildingBlock: ZUJKAS_clean_linker_0, # of connection points: 2
#     Edge 40, Type (0, 1), BuildingBlock: ZUJKAS_clean_linker_0, # of connection points: 2
#     Edge 41, Type (0, 1), BuildingBlock: ZUJKAS_clean_linker_0, # of connection points: 2
#     Edge 42, Type (0, 1), BuildingBlock: ZUJKAS_clean_linker_0, # of connection points: 2
#     Edge 43, Type (0, 1), BuildingBlock: ZUJKAS_clean_linker_0, # of connection points: 2
#     Edge 44, Type (0, 1), BuildingBlock: ZUJKAS_clean_linker_0, # of connection points: 2
#     Edge 45, Type (0, 1), BuildingBlock: ZUJKAS_clean_linker_0, # of connection points: 2
#     Edge 46, Type (0, 1), BuildingBlock: ZUJKAS_clean_linker_0, # of connection points: 2
#     Edge 47, Type (0, 1), BuildingBlock: ZUJKAS_clean_linker_0, # of connection points: 2
#     Edge 48, Type (0, 1), BuildingBlock: ZUJKAS_clean_linker_0, # of connection points: 2
#     Edge 49, Type (0, 1), BuildingBlock: ZUJKAS_clean_linker_0, # of connection points: 2
#     Edge 50, Type (0, 1), BuildingBlock: ZUJKAS_clean_linker_0, # of connection points: 2
#     Edge 51, Type (0, 1), BuildingBlock: ZUJKAS_clean_linker_0, # of connection points: 2
#     Edge 52, Type (0, 1), BuildingBlock: ZUJKAS_clean_linker_0, # of connection points: 2
#     Edge 53, Type (0, 1), BuildingBlock: ZUJKAS_clean_linker_0, # of connection points: 2
#     Edge 54, Type (0, 1), BuildingBlock: ZUJKAS_clean_linker_0, # of connection points: 2
#     Edge 55, Type (0, 1), BuildingBlock: ZUJKAS_clean_linker_0, # of connection points: 2
#     Edge 56, Type (0, 1), BuildingBlock: ZUJKAS_clean_linker_0, # of connection points: 2
#     Edge 57, Type (0, 1), BuildingBlock: ZUJKAS_clean_linker_0, # of connection points: 2
#     Edge 58, Type (0, 1), BuildingBlock: ZUJKAS_clean_linker_0, # of connection points: 2
#     Edge 59, Type (0, 1), BuildingBlock: ZUJKAS_clean_linker_0, # of connection points: 2
#     Edge 60, Type (0, 1), BuildingBlock: ZUJKAS_clean_linker_0, # of connection points: 2
#     Edge 61, Type (0, 1), BuildingBlock: ZUJKAS_clean_linker_0, # of connection points: 2
# Relax obj value: 0.163
# Max RMSD: 0.304
# Mean RMSD: 0.215
data_MOF--net-ocu--node1-KUMJIN_clean_sbu_0--node2-GIZVER_clean_sbu_0--edge1-ZUJKAS_clean_linker_0
_symmetry_space_group_name_H-M    P1
_symmetry_Int_Tables_number       1
_symmetry_cell_setting            triclinic
loop_
_symmetry_equiv_pos_as_xyz
'x, y, z'
_cell_length_a     53.657766
_cell_length_b     55.840928
_cell_length_c     43.494822
_cell_angle_alpha  80.001176
_cell_angle_beta   99.631142
_cell_angle_gamma 108.69016
loop_
_atom_site_label
_atom_site_type_symbol
_atom_site_fract_x
_atom_site_fract_y
_atom_site_fract_z
_atom_type_partial_charge
Eu0 Eu 0.26662 0.24541 0.21735 0.0
C1 C 0.32134 0.27171 0.33801 0.0
C2 C 0.30687 0.23137 0.37096 0.0
C3 C 0.3522 0.25841 0.38003 0.0
C4 C 0.30175 0.24931 0.34545 0.0
C5 C 0.34655 0.27688 0.35598 0.0
C6 C 0.33237 0.23569 0.38754 0.0
C7 C 0.3573 0.31969 0.32888 0.0
N8 N 0.31504 0.28943 0.31519 0.0
C9 C 0.33195 0.3138 0.31218 0.0
C10 C 0.36489 0.30095 0.35037 0.0
Eu11 Eu 0.27228 0.27713 0.28532 0.0
N12 N 0.27732 0.24561 0.32883 0.0
C13 C 0.25667 0.22529 0.33841 0.0
C14 C 0.28606 0.20988 0.37957 0.0
C15 C 0.26076 0.20706 0.36351 0.0
H16 H 0.32602 0.32888 0.29671 0.0
H17 H 0.24431 0.1909 0.37056 0.0
H18 H 0.33674 0.22192 0.4068 0.0
H19 H 0.37082 0.3388 0.3255 0.0
H20 H 0.23677 0.22297 0.32741 0.0
H21 H 0.29088 0.33349 0.13457 0.0
H22 H 0.28918 0.19572 0.39901 0.0
H23 H 0.21638 0.19163 0.2049 0.0
H24 H 0.29988 0.30176 0.17749 0.0
H25 H 0.17249 0.17891 0.17395 0.0
H26 H 0.37154 0.26191 0.39373 0.0
H27 H 0.24639 0.3259 0.10438 0.0
H28 H 0.20019 0.29681 0.09447 0.0
H29 H 0.38442 0.30564 0.36364 0.0
H30 H 0.1676 0.25488 0.10577 0.0
N31 N 0.26042 0.27654 0.17402 0.0
C32 C 0.28013 0.29818 0.16557 0.0
C33 C 0.2501 0.31191 0.12372 0.0
C34 C 0.23037 0.28913 0.13118 0.0
C35 C 0.27521 0.31625 0.14071 0.0
C36 C 0.23629 0.27146 0.15655 0.0
H37 H 0.15719 0.21071 0.13506 0.0
N38 N 0.22498 0.23091 0.18617 0.0
C39 C 0.18484 0.19854 0.17098 0.0
C40 C 0.21789 0.24804 0.16311 0.0
C41 C 0.20963 0.20593 0.18876 0.0
C42 C 0.17629 0.21653 0.14908 0.0
C43 C 0.19318 0.24144 0.14422 0.0
O44 O 0.26862 0.21107 0.20136 0.0
O45 O 0.28828 0.25006 0.26651 0.0
O46 O 0.30477 0.30189 0.25685 0.0
O47 O 0.30751 0.2741 0.22444 0.0
O48 O 0.27149 0.2132 0.25507 0.0
O49 O 0.29588 0.24729 0.18654 0.0
O50 O 0.27394 0.31117 0.30499 0.0
O51 O 0.25049 0.27262 0.23607 0.0
O52 O 0.23262 0.22148 0.24407 0.0
O53 O 0.23142 0.24818 0.27897 0.0
O54 O 0.26667 0.30933 0.24818 0.0
O55 O 0.24227 0.27673 0.3142 0.0
C56 C 0.28617 0.2266 0.27647 0.0
C57 C 0.28467 0.21532 0.15272 0.0
C58 C 0.2982 0.19445 0.11575 0.0
C59 C 0.3015 0.20258 0.14567 0.0
C60 C 0.27752 0.19921 0.09337 0.0
C61 C 0.26458 0.22006 0.12975 0.0
C62 C 0.26103 0.21199 0.1003 0.0
C63 C 0.31699 0.29555 0.2372 0.0
C64 C 0.28772 0.22297 0.18432 0.0
C65 C 0.18663 0.25949 0.12018 0.0
C66 C 0.20521 0.28331 0.11366 0.0
C67 C 0.25225 0.29612 0.22646 0.0
C68 C 0.2561 0.30499 0.35282 0.0
C69 C 0.23982 0.31735 0.36189 0.0
C70 C 0.24292 0.32282 0.39314 0.0
C71 C 0.26273 0.31568 0.41488 0.0
C72 C 0.27538 0.29789 0.37512 0.0
C73 C 0.27865 0.30323 0.40593 0.0
C74 C 0.22129 0.22722 0.26521 0.0
C75 C 0.25333 0.30017 0.31992 0.0
H76 H 0.31724 0.19927 0.16338 0.0
H77 H 0.27374 0.19277 0.07048 0.0
H78 H 0.25153 0.22983 0.13464 0.0
H79 H 0.24528 0.2155 0.08279 0.0
H80 H 0.22471 0.32249 0.34465 0.0
H81 H 0.26631 0.32005 0.43882 0.0
H82 H 0.28806 0.28844 0.36865 0.0
H83 H 0.29377 0.2979 0.42293 0.0
Eu84 Eu 0.79574 0.25204 0.24971 0.0
C85 C 0.69374 0.26669 0.27621 0.0
C86 C 0.65661 0.26026 0.23494 0.0
C87 C 0.64849 0.24801 0.2895 0.0
C88 C 0.68416 0.26807 0.2446 0.0
C89 C 0.67582 0.25696 0.29903 0.0
C90 C 0.6389 0.24972 0.25752 0.0
C91 C 0.71286 0.26682 0.33925 0.0
N92 N 0.72039 0.27536 0.2847 0.0
C93 C 0.72988 0.27632 0.31597 0.0
C94 C 0.68578 0.25676 0.3308 0.0
Eu95 Eu 0.74739 0.28823 0.24214 0.0
N96 N 0.70166 0.27815 0.22324 0.0
C97 C 0.69292 0.28308 0.19208 0.0
C98 C 0.64761 0.26384 0.20287 0.0
C99 C 0.66585 0.27571 0.18139 0.0
H100 H 0.75057 0.28351 0.32406 0.0
H101 H 0.65911 0.27908 0.1566 0.0
H102 H 0.61771 0.24332 0.25053 0.0
H103 H 0.72075 0.26712 0.36382 0.0
H104 H 0.70705 0.29209 0.17535 0.0
H105 H 0.89617 0.28161 0.31121 0.0
H106 H 0.62662 0.2581 0.19455 0.0
H107 H 0.77809 0.24597 0.17038 0.0
H108 H 0.84781 0.26102 0.30594 0.0
H109 H 0.79841 0.25816 0.12211 0.0
H110 H 0.63457 0.24023 0.30673 0.0
H111 H 0.91884 0.30018 0.26369 0.0
H112 H 0.91618 0.30703 0.20495 0.0
H113 H 0.67269 0.24932 0.34897 0.0
H114 H 0.8897 0.29984 0.15369 0.0
N115 N 0.84274 0.26963 0.25612 0.0
C116 C 0.85742 0.26966 0.28506 0.0
C117 C 0.89755 0.29147 0.2613 0.0
C118 C 0.88278 0.28945 0.23165 0.0
C119 C 0.88485 0.28104 0.28815 0.0
C120 C 0.85506 0.27791 0.22981 0.0
H121 H 0.84613 0.28092 0.12281 0.0
N122 N 0.81366 0.26179 0.20028 0.0
C123 C 0.8104 0.26276 0.14414 0.0
C124 C 0.84015 0.27367 0.20106 0.0
C125 C 0.7989 0.25579 0.17217 0.0
C126 C 0.83731 0.27567 0.14461 0.0
C127 C 0.85259 0.28121 0.17324 0.0
O128 O 0.78432 0.21264 0.23952 0.0
O129 O 0.7572 0.25236 0.26221 0.0
O130 O 0.77674 0.29701 0.28537 0.0
O131 O 0.81283 0.28327 0.2814 0.0
O132 O 0.78177 0.2393 0.29823 0.0
O133 O 0.81425 0.22487 0.27812 0.0
O134 O 0.77125 0.32689 0.25095 0.0
O135 O 0.78533 0.28733 0.22895 0.0
O136 O 0.75977 0.2346 0.21643 0.0
O137 O 0.72901 0.25731 0.21042 0.0
O138 O 0.75968 0.29853 0.19275 0.0
O139 O 0.7331 0.32113 0.2237 0.0
C140 C 0.75852 0.24225 0.29046 0.0
C141 C 0.78429 0.18371 0.28684 0.0
C142 C 0.78449 0.15852 0.3389 0.0
C143 C 0.79672 0.17911 0.31738 0.0
C144 C 0.75888 0.1429 0.32962 0.0
C145 C 0.75876 0.16783 0.27805 0.0
C146 C 0.74613 0.14766 0.29945 0.0
C147 C 0.8014 0.29643 0.29399 0.0
C148 C 0.79815 0.2055 0.26502 0.0
C149 C 0.87993 0.29372 0.17483 0.0
C150 C 0.89499 0.29787 0.20399 0.0
C151 C 0.78322 0.29629 0.20032 0.0
C152 C 0.76864 0.35556 0.20479 0.0
C153 C 0.75613 0.35461 0.17373 0.0
C154 C 0.7693 0.36931 0.14827 0.0
C155 C 0.79517 0.38558 0.15417 0.0
C156 C 0.79454 0.37195 0.21019 0.0
C157 C 0.80767 0.38684 0.18499 0.0
C158 C 0.73703 0.23881 0.20415 0.0
C159 C 0.75591 0.33756 0.23095 0.0
H160 H 0.8161 0.19179 0.32438 0.0
H161 H 0.74892 0.12658 0.34523 0.0
H162 H 0.74852 0.17097 0.25477 0.0
H163 H 0.72653 0.13539 0.29246 0.0
H164 H 0.73603 0.34231 0.16925 0.0
H165 H 0.80576 0.39715 0.13497 0.0
H166 H 0.80482 0.37284 0.23382 0.0
H167 H 0.82771 0.39924 0.18935 0.0
Eu168 Eu 0.75549 0.75828 0.28534 0.0
C169 C 0.78942 0.81498 0.16589 0.0
C170 C 0.74858 0.80076 0.13157 0.0
C171 C 0.77704 0.84426 0.12209 0.0
C172 C 0.7664 0.79607 0.15805 0.0
C173 C 0.79535 0.8391 0.14741 0.0
C174 C 0.75375 0.82507 0.1141 0.0
C175 C 0.83862 0.85006 0.17729 0.0
N176 N 0.80698 0.80919 0.18999 0.0
C177 C 0.83199 0.8258 0.19454 0.0
C178 C 0.82001 0.85695 0.15401 0.0
Eu179 Eu 0.79336 0.76822 0.22021 0.0
N180 N 0.76205 0.7727 0.1753 0.0
C181 C 0.74128 0.75275 0.16564 0.0
C182 C 0.72646 0.7807 0.12287 0.0
C183 C 0.72304 0.75649 0.13972 0.0
H184 H 0.84694 0.82044 0.21175 0.0
H185 H 0.70642 0.74062 0.13263 0.0
H186 H 0.74017 0.82903 0.09388 0.0
H187 H 0.8582 0.86331 0.18172 0.0
H188 H 0.73856 0.73373 0.17741 0.0
H189 H 0.84215 0.7855 0.37359 0.0
H190 H 0.71232 0.78354 0.10274 0.0
H191 H 0.70226 0.70552 0.29343 0.0
H192 H 0.80971 0.79275 0.32941 0.0
H193 H 0.69178 0.66213 0.32208 0.0
H194 H 0.78112 0.86275 0.10789 0.0
H195 H 0.83719 0.74214 0.40184 0.0
H196 H 0.81022 0.69618 0.4091 0.0
H197 H 0.82529 0.87566 0.14039 0.0
H198 H 0.76959 0.66237 0.39447 0.0
N199 N 0.78689 0.7536 0.33017 0.0
C200 C 0.80735 0.77356 0.34044 0.0
C201 C 0.82288 0.74515 0.38199 0.0
C202 C 0.80102 0.72503 0.37279 0.0
C203 C 0.82578 0.7696 0.36606 0.0
C204 C 0.78295 0.72997 0.34669 0.0
H205 H 0.72524 0.64954 0.36232 0.0
N206 N 0.74235 0.71688 0.31475 0.0
C207 C 0.71125 0.67552 0.32663 0.0
C208 C 0.76015 0.71095 0.33845 0.0
C209 C 0.71746 0.70008 0.31012 0.0
C210 C 0.73017 0.6685 0.3493 0.0
C211 C 0.75468 0.6865 0.35614 0.0
O212 O 0.72052 0.7542 0.3081 0.0
O213 O 0.76129 0.77999 0.23663 0.0
O214 O 0.81503 0.8004 0.2489 0.0
O215 O 0.78352 0.79845 0.28075 0.0
O216 O 0.7226 0.76178 0.24615 0.0
O217 O 0.75264 0.78904 0.30832 0.0
O218 O 0.82912 0.77103 0.19993 0.0
O219 O 0.78774 0.74672 0.26896 0.0
O220 O 0.73339 0.72668 0.25584 0.0
O221 O 0.76584 0.72785 0.22591 0.0
O222 O 0.82636 0.7655 0.25939 0.0
O223 O 0.79534 0.73773 0.19604 0.0
C224 C 0.73698 0.777 0.22545 0.0
C225 C 0.72794 0.7774 0.35139 0.0
C226 C 0.71666 0.79737 0.39102 0.0
C227 C 0.71728 0.79531 0.35923 0.0
C228 C 0.72666 0.78103 0.41466 0.0
C229 C 0.73767 0.76134 0.37547 0.0
C230 C 0.73698 0.76316 0.40689 0.0
C231 C 0.80593 0.81009 0.26858 0.0
C232 C 0.72994 0.77636 0.3182 0.0
C233 C 0.7733 0.68112 0.38092 0.0
C234 C 0.79641 0.70037 0.38928 0.0
C235 C 0.81213 0.7501 0.28009 0.0
C236 C 0.82335 0.74883 0.1561 0.0
C237 C 0.83295 0.72979 0.14931 0.0
C238 C 0.83655 0.72867 0.11817 0.0
C239 C 0.83052 0.74715 0.09417 0.0
C240 C 0.81732 0.76679 0.13167 0.0
C241 C 0.82097 0.76595 0.10091 0.0
C242 C 0.74304 0.71647 0.23727 0.0
C243 C 0.81912 0.74939 0.18861 0.0
H244 H 0.70998 0.80792 0.34066 0.0
H245 H 0.72618 0.78183 0.43925 0.0
H246 H 0.7459 0.74748 0.37001 0.0
H247 H 0.74453 0.75067 0.42533 0.0
H248 H 0.8372 0.71569 0.16819 0.0
H249 H 0.83351 0.74734 0.07011 0.0
H250 H 0.80981 0.78145 0.13637 0.0
H251 H 0.81642 0.77998 0.08218 0.0
Eu252 Eu 0.2911 0.73548 0.26793 0.0
C253 C 0.24347 0.80754 0.16327 0.0
C254 C 0.27856 0.84675 0.15263 0.0
C255 C 0.24312 0.83199 0.11124 0.0
C256 C 0.26707 0.82489 0.17317 0.0
C257 C 0.23074 0.81133 0.13251 0.0
C258 C 0.26701 0.8497 0.1213 0.0
C259 C 0.19292 0.77617 0.14744 0.0
N260 N 0.23171 0.78828 0.18471 0.0
C261 C 0.20633 0.77324 0.17767 0.0
C262 C 0.20538 0.795 0.12457 0.0
Eu263 Eu 0.25554 0.78411 0.23546 0.0
N264 N 0.27726 0.82178 0.2038 0.0
C265 C 0.29719 0.84112 0.21612 0.0
C266 C 0.30038 0.86569 0.16465 0.0
C267 C 0.30933 0.86312 0.19671 0.0
H268 H 0.19665 0.7585 0.19513 0.0
H269 H 0.32562 0.87804 0.2065 0.0
H270 H 0.27577 0.86618 0.10507 0.0
H271 H 0.17308 0.76382 0.14176 0.0
H272 H 0.30426 0.83951 0.24088 0.0
H273 H 0.2154 0.64317 0.28534 0.0
H274 H 0.30972 0.88281 0.1497 0.0
H275 H 0.34904 0.75391 0.31175 0.0
H276 H 0.23868 0.68356 0.25635 0.0
H277 H 0.3699 0.74487 0.36594 0.0
H278 H 0.23383 0.83505 0.08739 0.0
H279 H 0.22999 0.63261 0.34155 0.0
H280 H 0.26228 0.64471 0.3893 0.0
H281 H 0.19492 0.7973 0.10121 0.0
H282 H 0.30414 0.6732 0.41186 0.0
N283 N 0.26581 0.69711 0.29574 0.0
C284 C 0.24528 0.67973 0.28086 0.0
C285 C 0.24012 0.65076 0.32901 0.0
C286 C 0.26186 0.66803 0.34393 0.0
C287 C 0.23192 0.65658 0.29728 0.0
C288 C 0.27465 0.69118 0.3263 0.0
H289 H 0.34476 0.71043 0.40315 0.0
N290 N 0.31186 0.72667 0.31936 0.0
C291 C 0.34964 0.73416 0.35875 0.0
C292 C 0.29835 0.70679 0.33872 0.0
C293 C 0.33775 0.73934 0.32822 0.0
C294 C 0.33536 0.7148 0.37971 0.0
C295 C 0.30971 0.70023 0.36945 0.0
O296 O 0.32674 0.72739 0.26016 0.0
O297 O 0.29041 0.77071 0.23531 0.0
O298 O 0.25283 0.76035 0.19686 0.0
O299 O 0.25789 0.72355 0.22825 0.0
O300 O 0.32751 0.76767 0.25439 0.0
O301 O 0.2889 0.70814 0.23639 0.0
O302 O 0.21946 0.78961 0.24617 0.0
O303 O 0.25704 0.74973 0.27052 0.0
O304 O 0.30045 0.76359 0.30385 0.0
O305 O 0.28894 0.79854 0.27373 0.0
O306 O 0.21998 0.75095 0.24883 0.0
O307 O 0.25767 0.81508 0.26122 0.0
C308 C 0.31501 0.78165 0.23561 0.0
C309 C 0.31963 0.68505 0.25087 0.0
C310 C 0.32874 0.64889 0.23536 0.0
C311 C 0.32475 0.67311 0.22764 0.0
C312 C 0.32769 0.63699 0.26662 0.0
C313 C 0.31888 0.67283 0.28186 0.0
C314 C 0.32287 0.64894 0.28965 0.0
C315 C 0.25028 0.73565 0.20108 0.0
C316 C 0.31387 0.70963 0.24252 0.0
C317 C 0.29589 0.67841 0.3881 0.0
C318 C 0.27208 0.6622 0.37525 0.0
C319 C 0.23254 0.738 0.26922 0.0
C320 C 0.22225 0.83249 0.24787 0.0
C321 C 0.21582 0.84487 0.26958 0.0
C322 C 0.20685 0.8664 0.25925 0.0
C323 C 0.20487 0.87549 0.22691 0.0
C324 C 0.21985 0.84178 0.21578 0.0
C325 C 0.2113 0.86321 0.20541 0.0
C326 C 0.3005 0.78781 0.29934 0.0
C327 C 0.23209 0.81036 0.25888 0.0
H328 H 0.32521 0.68244 0.20361 0.0
H329 H 0.33107 0.61858 0.27341 0.0
H330 H 0.31517 0.6817 0.30006 0.0
H331 H 0.32226 0.63967 0.31365 0.0
H332 H 0.21742 0.8375 0.29435 0.0
H333 H 0.19852 0.89225 0.21821 0.0
H334 H 0.22461 0.83253 0.19875 0.0
H335 H 0.20966 0.87035 0.18061 0.0
Eu336 Eu 0.30081 0.73991 0.75442 0.0
C337 C 0.22138 0.7658 0.79786 0.0
C338 C 0.18042 0.73191 0.78886 0.0
C339 C 0.19113 0.75001 0.83796 0.0
C340 C 0.20456 0.74841 0.77883 0.0
C341 C 0.21438 0.76726 0.82728 0.0
C342 C 0.17411 0.73247 0.81869 0.0
C343 C 0.25115 0.80545 0.83119 0.0
N344 N 0.24349 0.78256 0.78669 0.0
C345 C 0.25687 0.8035 0.80172 0.0
C346 C 0.23021 0.78684 0.84446 0.0
Eu347 Eu 0.25354 0.77623 0.73752 0.0
N348 N 0.21123 0.74821 0.75008 0.0
C349 C 0.19325 0.73353 0.7293 0.0
C350 C 0.163 0.71564 0.76839 0.0
C351 C 0.16928 0.71678 0.7383 0.0
H352 H 0.27187 0.81919 0.79108 0.0
H353 H 0.1555 0.70494 0.72181 0.0
H354 H 0.15572 0.71993 0.8267 0.0
H355 H 0.26254 0.82164 0.8433 0.0
H356 H 0.19662 0.73477 0.70535 0.0
H357 H 0.39801 0.79766 0.805 0.0
H358 H 0.14437 0.70268 0.77527 0.0
H359 H 0.29155 0.71002 0.68864 0.0
H360 H 0.35399 0.76644 0.80649 0.0
H361 H 0.31021 0.71712 0.63933 0.0
H362 H 0.18563 0.75073 0.86057 0.0
H363 H 0.4174 0.81239 0.75483 0.0
H364 H 0.41443 0.80762 0.69808 0.0
H365 H 0.22551 0.78859 0.86709 0.0
H366 H 0.39052 0.78545 0.65284 0.0
N367 N 0.34612 0.7661 0.75671 0.0
C368 C 0.36121 0.77377 0.78397 0.0
C369 C 0.39755 0.79923 0.75515 0.0
C370 C 0.3834 0.78898 0.72804 0.0
C371 C 0.38665 0.79105 0.78345 0.0
C372 C 0.35749 0.77202 0.72967 0.0
H373 H 0.35187 0.7515 0.63083 0.0
N374 N 0.31974 0.7425 0.70718 0.0
C375 C 0.31964 0.7297 0.65702 0.0
C376 C 0.34402 0.75964 0.70423 0.0
C377 C 0.30858 0.72627 0.68495 0.0
C378 C 0.34322 0.74898 0.65241 0.0
C379 C 0.35617 0.76371 0.67653 0.0
O380 O 0.28928 0.69848 0.75629 0.0
O381 O 0.25961 0.73899 0.76005 0.0
O382 O 0.29132 0.79663 0.76716 0.0
O383 O 0.30972 0.76507 0.7926 0.0
O384 O 0.28364 0.73073 0.80057 0.0
O385 O 0.32605 0.71824 0.78208 0.0
O386 O 0.25764 0.81691 0.72988 0.0
O387 O 0.29408 0.77636 0.73088 0.0
O388 O 0.26717 0.72261 0.71786 0.0
O389 O 0.24108 0.74973 0.70069 0.0
O390 O 0.27057 0.78581 0.691 0.0
O391 O 0.22412 0.79089 0.70588 0.0
C392 C 0.25994 0.73129 0.78925 0.0
C393 C 0.30009 0.67935 0.80745 0.0
C394 C 0.30533 0.66974 0.86488 0.0
C395 C 0.31211 0.68631 0.83722 0.0
C396 C 0.28473 0.64667 0.86221 0.0
C397 C 0.27974 0.65625 0.80549 0.0
C398 C 0.27189 0.64023 0.83277 0.0
C399 C 0.30675 0.78782 0.79033 0.0
C400 C 0.30827 0.69636 0.7785 0.0
C401 C 0.38117 0.78174 0.67413 0.0
C402 C 0.39475 0.79439 0.69985 0.0
C403 C 0.29381 0.78386 0.70178 0.0
C404 C 0.24484 0.82974 0.67628 0.0
C405 C 0.22587 0.82598 0.64968 0.0
C406 C 0.23234 0.8383 0.61973 0.0
C407 C 0.25814 0.85463 0.61667 0.0
C408 C 0.27048 0.84638 0.6727 0.0
C409 C 0.27698 0.85872 0.64307 0.0
C410 C 0.24797 0.72946 0.69883 0.0
C411 C 0.23837 0.81458 0.70692 0.0
H412 H 0.32714 0.70454 0.83879 0.0
H413 H 0.27915 0.63294 0.8826 0.0
H414 H 0.26992 0.6506 0.78286 0.0
H415 H 0.25628 0.62236 0.83106 0.0
H416 H 0.20615 0.81304 0.65222 0.0
H417 H 0.26357 0.86477 0.59401 0.0
H418 H 0.28568 0.84958 0.69264 0.0
H419 H 0.29669 0.87158 0.64061 0.0
Eu420 Eu 0.25965 0.25213 0.78545 0.0
C421 C 0.32379 0.3233 0.68003 0.0
C422 C 0.29043 0.33134 0.6382 0.0
C423 C 0.33358 0.36307 0.6446 0.0
C424 C 0.29844 0.3157 0.66457 0.0
C425 C 0.34184 0.34688 0.66988 0.0
C426 C 0.30791 0.3553 0.62875 0.0
C427 C 0.37546 0.33578 0.70884 0.0
N428 N 0.33121 0.30707 0.70406 0.0
C429 C 0.35687 0.31258 0.71794 0.0
C430 C 0.36785 0.35314 0.68494 0.0
Eu431 Eu 0.29843 0.26859 0.71925 0.0
N432 N 0.2822 0.2923 0.67407 0.0
C433 C 0.25842 0.28264 0.65674 0.0
C434 C 0.26545 0.32206 0.62144 0.0
C435 C 0.24951 0.29746 0.63053 0.0
H436 H 0.36288 0.29935 0.73657 0.0
H437 H 0.23035 0.2899 0.61739 0.0
H438 H 0.30201 0.36767 0.60876 0.0
H439 H 0.39562 0.34027 0.72032 0.0
H440 H 0.24581 0.2637 0.66339 0.0
H441 H 0.32862 0.23146 0.88674 0.0
H442 H 0.25863 0.33342 0.60096 0.0
H443 H 0.19511 0.22105 0.7692 0.0
H444 H 0.3124 0.25768 0.84136 0.0
H445 H 0.16284 0.17986 0.78559 0.0
H446 H 0.34709 0.38135 0.63661 0.0
H447 H 0.30114 0.18751 0.90277 0.0
H448 H 0.25783 0.15299 0.89544 0.0
H449 H 0.38231 0.37107 0.67786 0.0
H450 H 0.21257 0.13902 0.86812 0.0
N451 N 0.27625 0.22874 0.83073 0.0
C452 C 0.30006 0.2386 0.84792 0.0
C453 C 0.29388 0.19895 0.88269 0.0
C454 C 0.26878 0.18952 0.86625 0.0
C455 C 0.3094 0.22376 0.87378 0.0
C456 C 0.26035 0.20517 0.84018 0.0
H457 H 0.17683 0.14909 0.82753 0.0
N458 N 0.2272 0.21353 0.80112 0.0
C459 C 0.18309 0.18449 0.7968 0.0
C460 C 0.23496 0.19734 0.82494 0.0
C461 C 0.20142 0.20784 0.78763 0.0
C462 C 0.19108 0.16715 0.82041 0.0
C463 C 0.21719 0.1736 0.83513 0.0
O464 O 0.22866 0.26592 0.7966 0.0
O465 O 0.26654 0.27775 0.73904 0.0
O466 O 0.31085 0.30315 0.74518 0.0
O467 O 0.29928 0.28218 0.794 0.0
O468 O 0.22778 0.26055 0.74759 0.0
O469 O 0.26747 0.2762 0.82283 0.0
O470 O 0.32947 0.2559 0.70599 0.0
O471 O 0.2913 0.24308 0.76541 0.0
O472 O 0.24704 0.21767 0.75945 0.0
O473 O 0.25874 0.23871 0.71064 0.0
O474 O 0.33008 0.25927 0.75716 0.0
O475 O 0.28965 0.24347 0.68288 0.0
C476 C 0.24254 0.27632 0.72786 0.0
C477 C 0.23132 0.27456 0.84868 0.0
C478 C 0.21207 0.29158 0.88429 0.0
C479 C 0.22304 0.29432 0.85601 0.0
C480 C 0.20926 0.26859 0.9047 0.0
C481 C 0.22823 0.25193 0.86949 0.0
C482 C 0.21722 0.249 0.89728 0.0
C483 C 0.31216 0.3024 0.77591 0.0
C484 C 0.24345 0.2778 0.81955 0.0
C485 C 0.22584 0.15743 0.86013 0.0
C486 C 0.25161 0.16537 0.87566 0.0
C487 C 0.31502 0.2438 0.7768 0.0
C488 C 0.32419 0.24566 0.654 0.0
C489 C 0.33241 0.22602 0.64612 0.0
C490 C 0.34088 0.22806 0.61637 0.0
C491 C 0.34132 0.25022 0.59506 0.0
C492 C 0.32501 0.2675 0.63225 0.0
C493 C 0.33357 0.26974 0.60303 0.0
C494 C 0.24557 0.2186 0.72867 0.0
C495 C 0.3139 0.2429 0.68435 0.0
H496 H 0.22556 0.31189 0.84001 0.0
H497 H 0.20054 0.26559 0.92631 0.0
H498 H 0.23439 0.23657 0.86427 0.0
H499 H 0.21484 0.23143 0.9132 0.0
H500 H 0.33167 0.20903 0.6628 0.0
H501 H 0.348 0.25262 0.57224 0.0
H502 H 0.31885 0.28275 0.63779 0.0
H503 H 0.33411 0.28669 0.58638 0.0
Eu504 Eu 0.79701 0.22984 0.75946 0.0
C505 C 0.74879 0.30608 0.67549 0.0
C506 C 0.78571 0.34471 0.67166 0.0
C507 C 0.75067 0.33661 0.62801 0.0
C508 C 0.77282 0.32109 0.68824 0.0
C509 C 0.73704 0.31402 0.64558 0.0
C510 C 0.77489 0.35203 0.64112 0.0
C511 C 0.69735 0.27929 0.65497 0.0
N512 N 0.7356 0.28516 0.69378 0.0
C513 C 0.70964 0.27257 0.68471 0.0
C514 C 0.71128 0.29986 0.63506 0.0
Eu515 Eu 0.75762 0.27443 0.74393 0.0
N516 N 0.78223 0.31381 0.71813 0.0
C517 C 0.80353 0.33 0.73353 0.0
C518 C 0.80829 0.36086 0.68689 0.0
C519 C 0.81702 0.3536 0.7181 0.0
H520 H 0.69879 0.25669 0.70016 0.0
H521 H 0.83414 0.36616 0.73032 0.0
H522 H 0.78457 0.37002 0.62792 0.0
H523 H 0.67711 0.26871 0.64751 0.0
H524 H 0.81042 0.3248 0.75769 0.0
H525 H 0.77517 0.14289 0.70577 0.0
H526 H 0.81861 0.37929 0.67514 0.0
H527 H 0.79643 0.23668 0.8349 0.0
H528 H 0.79004 0.18939 0.70795 0.0
H529 H 0.78551 0.2097 0.8847 0.0
H530 H 0.74207 0.34293 0.60489 0.0
H531 H 0.75891 0.11305 0.75229 0.0
H532 H 0.75127 0.10641 0.80891 0.0
H533 H 0.70158 0.3053 0.61221 0.0
H534 H 0.75483 0.12451 0.85769 0.0
N535 N 0.78064 0.18581 0.75447 0.0
C536 C 0.78257 0.17643 0.72819 0.0
C537 C 0.76515 0.13341 0.75324 0.0
C538 C 0.76519 0.14308 0.78086 0.0
C539 C 0.7743 0.15017 0.72693 0.0
C540 C 0.7736 0.16975 0.78091 0.0
H541 H 0.76829 0.16288 0.88633 0.0
N542 N 0.78518 0.20567 0.80805 0.0
C543 C 0.78269 0.20108 0.86344 0.0
C544 C 0.77604 0.17995 0.80851 0.0
C545 C 0.78887 0.21637 0.83504 0.0
C546 C 0.7729 0.17466 0.86423 0.0
C547 C 0.76949 0.16375 0.83661 0.0
O548 O 0.83338 0.22652 0.78865 0.0
O549 O 0.79607 0.26915 0.73774 0.0
O550 O 0.74666 0.24943 0.70394 0.0
O551 O 0.76125 0.21411 0.72526 0.0
O552 O 0.80563 0.24746 0.70996 0.0
O553 O 0.82898 0.22438 0.73885 0.0
O554 O 0.72075 0.27814 0.75518 0.0
O555 O 0.76364 0.23932 0.77397 0.0
O556 O 0.81868 0.26237 0.78788 0.0
O557 O 0.78783 0.28403 0.78669 0.0
O558 O 0.72475 0.23863 0.75632 0.0
O559 O 0.75815 0.30175 0.77465 0.0
C560 C 0.80324 0.2695 0.71132 0.0
C561 C 0.84878 0.19576 0.77223 0.0
C562 C 0.86264 0.1637 0.75326 0.0
C563 C 0.85888 0.18798 0.749 0.0
C564 C 0.85655 0.14747 0.78132 0.0
C565 C 0.84301 0.17914 0.80012 0.0
C566 C 0.84691 0.15521 0.80454 0.0
C567 C 0.74688 0.2257 0.7039 0.0
C568 C 0.84227 0.22016 0.76607 0.0
C569 C 0.76009 0.13723 0.83637 0.0
C570 C 0.75798 0.12692 0.80857 0.0
C571 C 0.73952 0.22581 0.77289 0.0
C572 C 0.72281 0.31932 0.76442 0.0
C573 C 0.7133 0.32732 0.78794 0.0
C574 C 0.70565 0.34979 0.78171 0.0
C575 C 0.70731 0.36383 0.75156 0.0
C576 C 0.72416 0.33363 0.73455 0.0
C577 C 0.71638 0.3557 0.72817 0.0
C578 C 0.81067 0.27959 0.79742 0.0
C579 C 0.73258 0.2969 0.77158 0.0
H580 H 0.86302 0.20051 0.72725 0.0
H581 H 0.85955 0.12883 0.78551 0.0
H582 H 0.83506 0.18439 0.81837 0.0
H583 H 0.84227 0.14252 0.82603 0.0
H584 H 0.71245 0.31645 0.81116 0.0
H585 H 0.7013 0.381 0.74598 0.0
H586 H 0.73142 0.32788 0.71624 0.0
H587 H 0.71753 0.36663 0.70504 0.0
Eu588 Eu 0.76644 0.74053 0.7161 0.0
C589 C 0.83967 0.79734 0.82387 0.0
C590 C 0.84736 0.76362 0.86388 0.0
C591 C 0.88085 0.80499 0.85921 0.0
C592 C 0.83132 0.77249 0.83822 0.0
C593 C 0.86427 0.81405 0.83465 0.0
C594 C 0.87242 0.7798 0.87378 0.0
C595 C 0.85325 0.84799 0.79794 0.0
N596 N 0.82305 0.80555 0.80045 0.0
C597 C 0.82903 0.8307 0.78814 0.0
C598 C 0.8711 0.83956 0.82103 0.0
Eu599 Eu 0.78278 0.77504 0.78426 0.0
N600 N 0.80682 0.75752 0.82841 0.0
C601 C 0.79642 0.73411 0.84472 0.0
C602 C 0.83739 0.73904 0.87946 0.0
C603 C 0.81164 0.72438 0.87011 0.0
H604 H 0.81539 0.83733 0.77017 0.0
H605 H 0.80353 0.70552 0.88236 0.0
H606 H 0.88512 0.77324 0.89324 0.0
H607 H 0.85815 0.86776 0.78764 0.0
H608 H 0.77666 0.72246 0.83774 0.0
H609 H 0.74597 0.80957 0.61733 0.0
H610 H 0.84911 0.73147 0.89918 0.0
H611 H 0.73414 0.67806 0.72905 0.0
H612 H 0.77306 0.79231 0.66156 0.0
H613 H 0.69106 0.64782 0.71203 0.0
H614 H 0.89993 0.81747 0.86763 0.0
H615 H 0.69962 0.78453 0.60218 0.0
H616 H 0.66302 0.74326 0.60918 0.0
H617 H 0.88982 0.85301 0.82865 0.0
H618 H 0.64815 0.69898 0.6347 0.0
N619 N 0.74222 0.7581 0.67222 0.0
C620 C 0.75293 0.78109 0.65524 0.0
C621 C 0.71143 0.77685 0.6217 0.0
C622 C 0.70121 0.75249 0.63772 0.0
C623 C 0.73761 0.79099 0.6301 0.0
C624 C 0.7174 0.74345 0.66304 0.0
H625 H 0.65874 0.66304 0.67253 0.0
N626 N 0.72602 0.71013 0.69997 0.0
C627 C 0.69582 0.6677 0.70216 0.0
C628 C 0.70907 0.71859 0.67726 0.0
C629 C 0.72022 0.68486 0.71169 0.0
C630 C 0.67759 0.67639 0.67995 0.0
C631 C 0.68427 0.70202 0.66679 0.0
O632 O 0.78077 0.71127 0.70367 0.0
O633 O 0.79269 0.74575 0.76255 0.0
O634 O 0.81913 0.78755 0.75923 0.0
O635 O 0.79878 0.77858 0.70927 0.0
O636 O 0.77544 0.70893 0.75256 0.0
O637 O 0.78959 0.74847 0.67652 0.0
O638 O 0.76786 0.80435 0.79542 0.0
O639 O 0.75654 0.76975 0.73781 0.0
O640 O 0.73035 0.72697 0.74206 0.0
O641 O 0.75082 0.73705 0.79159 0.0
O642 O 0.77423 0.80665 0.74729 0.0
O643 O 0.76021 0.76785 0.82424 0.0
C644 C 0.79154 0.72258 0.77279 0.0
C645 C 0.78519 0.71332 0.65006 0.0
C646 C 0.7975 0.69113 0.61359 0.0
C647 C 0.80336 0.70291 0.64135 0.0
C648 C 0.77299 0.68981 0.59511 0.0
C649 C 0.76111 0.71185 0.63096 0.0
C650 C 0.75507 0.70013 0.60372 0.0
C651 C 0.81906 0.79058 0.72848 0.0
C652 C 0.79123 0.72538 0.6792 0.0
C653 C 0.66741 0.71134 0.64284 0.0
C654 C 0.67586 0.73655 0.62834 0.0
C655 C 0.75803 0.79293 0.72721 0.0
C656 C 0.76434 0.80395 0.84888 0.0
C657 C 0.74677 0.81577 0.85617 0.0
C658 C 0.753 0.82877 0.88297 0.0
C659 C 0.7773 0.82993 0.90187 0.0
C660 C 0.78817 0.80523 0.86845 0.0
C661 C 0.79461 0.81819 0.89469 0.0
C662 C 0.73065 0.72442 0.77285 0.0
C663 C 0.75805 0.79082 0.82054 0.0
H664 H 0.82209 0.70427 0.65599 0.0
H665 H 0.7674 0.68044 0.5741 0.0
H666 H 0.74693 0.71972 0.63712 0.0
H667 H 0.73632 0.69893 0.58925 0.0
H668 H 0.72822 0.81455 0.84121 0.0
H669 H 0.7832 0.84022 0.92213 0.0
H670 H 0.80186 0.79626 0.86342 0.0
H671 H 0.81317 0.81924 0.90949 0.0
Co672 Co 0.06047 0.98881 0.45225 0.0
Co673 Co 0.04766 0.96175 0.50237 0.0
Co674 Co 0.02728 1.00808 0.5013 0.0
O675 O 0.05645 0.99605 0.49297 0.0
H676 H 0.07327 1.00415 0.50442 0.0
O677 O 0.99842 0.0198 0.51095 0.0
Co678 Co 1.00535 0.04991 0.53059 0.0
Co679 Co 0.9841 0.0366 0.47557 0.0
H680 H 0.98453 1.00579 0.51983 0.0
O681 O 0.07517 0.94919 0.51785 0.0
O682 O 0.05436 0.95154 0.46802 0.0
O683 O 1.01556 0.94514 0.5216 0.0
O684 O 1.01815 0.98134 0.53849 0.0
O685 O 0.05361 0.03069 0.52954 0.0
O686 O 1.00912 0.07652 0.55019 0.0
O687 O 0.97552 0.03994 0.54978 0.0
O688 O 0.0383 0.06367 0.5143 0.0
O689 O 0.03761 0.03486 0.46434 0.0
O690 O 1.00278 0.04649 0.43911 0.0
O691 O 0.98662 0.06528 0.49271 0.0
O692 O 0.94963 0.03621 0.47332 0.0
C693 C 0.09136 0.98819 0.43065 0.0
C694 C 1.00188 0.97927 0.44747 0.0
C695 C 1.00947 0.95705 0.54016 0.0
C696 C 0.07112 0.94345 0.48932 0.0
C697 C 0.98634 0.06247 0.55896 0.0
C698 C 0.05646 0.0543 0.52864 0.0
C699 C 0.0265 0.04624 0.44061 0.0
C700 C 0.96095 0.05731 0.4855 0.0
O701 O 0.06736 0.9834 0.41627 0.0
O702 O 0.09615 0.99444 0.45915 0.0
O703 O 0.99979 0.98594 0.47315 0.0
O704 O 1.02418 0.98148 0.43935 0.0
Co705 Co 0.55666 0.96466 0.99501 0.0
Co706 Co 0.56026 0.97507 0.04938 0.0
Co707 Co 0.5238 1.00886 0.00058 0.0
O708 O 0.55623 0.99517 0.01105 0.0
H709 H 0.57244 1.00884 0.00824 0.0
O710 O 0.49137 0.02257 0.98991 0.0
Co711 Co 0.49082 0.05317 0.0056 0.0
Co712 Co 0.48749 0.04252 0.9513 0.0
H713 H 0.47512 1.00888 0.99271 0.0
O714 O 0.59334 0.97343 0.0709 0.0
O715 O 0.56636 0.94637 0.03836 0.0
O716 O 0.52869 0.96384 0.0691 0.0
O717 O 0.50405 0.98575 0.03642 0.0
O718 O 0.54249 0.03579 0.02831 0.0
O719 O 0.48818 0.07909 0.02214 0.0
O720 O 0.45585 0.04316 0.01175 0.0
O721 O 0.52756 0.06747 0.00229 0.0
O722 O 0.54337 0.03166 0.96459 0.0
O723 O 0.51868 0.05254 0.93043 0.0
O724 O 0.48163 0.0714 0.96208 0.0
O725 O 0.45429 0.04417 0.93 0.0
C726 C 0.58379 0.95284 0.97763 0.0
C727 C 0.50222 0.95825 0.98036 0.0
C728 C 0.50718 0.96943 0.06041 0.0
C729 C 0.58763 0.95226 0.05897 0.0
C730 C 0.4636 0.06518 0.02258 0.0
C731 C 0.54516 0.05956 0.02078 0.0
C732 C 0.54022 0.04704 0.93959 0.0
C733 C 0.4602 0.06544 0.94176 0.0
O734 O 0.55924 0.93887 0.97824 0.0
O735 O 0.59152 0.97488 0.98843 0.0
O736 O 0.50522 0.98206 0.97284 0.0
O737 O 0.51983 0.9501 0.99856 0.0
Co738 Co 0.05425 0.46445 0.99679 0.0
Co739 Co 0.05954 0.47797 0.05042 0.0
Co740 Co 0.02561 0.51248 0.9989 0.0
O741 O 0.05662 0.49685 0.01048 0.0
H742 H 0.07333 0.50957 0.00687 0.0
O743 O 0.99445 0.52783 0.98779 0.0
Co744 Co 0.99661 0.56004 0.00159 0.0
Co745 Co 0.99082 0.54638 0.94823 0.0
H746 H 0.97784 0.515 0.99161 0.0
O747 O 0.09228 0.47473 0.07171 0.0
O748 O 0.06313 0.44748 0.04107 0.0
O749 O 0.02824 0.46989 0.07123 0.0
O750 O 1.00502 0.49059 0.03462 0.0
O751 O 0.04554 0.53981 0.02596 0.0
O752 O 0.99652 0.58772 0.01626 0.0
O753 O 0.96224 0.55242 0.00949 0.0
O754 O 0.03332 0.57203 0.99682 0.0
O755 O 0.04604 0.53436 0.96291 0.0
O756 O 1.02153 0.55421 0.92692 0.0
O757 O 0.98668 0.57674 0.95729 0.0
O758 O 0.9579 0.54865 0.92722 0.0
C759 C 0.0792 0.44887 0.98067 0.0
C760 C 1.00138 0.46148 0.98051 0.0
C761 C 1.00704 0.47563 0.06037 0.0
C762 C 0.08503 0.45302 0.06071 0.0
C763 C 0.97175 0.57517 0.01845 0.0
C764 C 0.04998 0.56369 0.01667 0.0
C765 C 0.04308 0.54892 0.93701 0.0
C766 C 0.96475 0.57056 0.9377 0.0
O767 O 0.05426 0.43662 0.9822 0.0
O768 O 0.08878 0.47158 0.98974 0.0
O769 O 1.00584 0.48537 0.97158 0.0
O770 O 1.01746 0.45296 0.00102 0.0
Co771 Co 0.5486 0.46547 0.9831 0.0
Co772 Co 0.56669 0.47565 0.04032 0.0
Co773 Co 0.52687 0.50805 0.01181 0.0
O774 O 0.55528 0.49455 0.00454 0.0
H775 H 0.5703 0.5082 0.99752 0.0
O776 O 0.49831 0.52195 0.0183 0.0
Co777 Co 0.49388 0.53097 0.05815 0.0
Co778 Co 0.50905 0.55639 0.00795 0.0
H779 H 0.48149 0.51431 0.00644 0.0
O780 O 0.60016 0.47208 0.04575 0.0
O781 O 0.56265 0.4471 0.0219 0.0
O782 O 0.54604 0.4666 0.07479 0.0
O783 O 0.51371 0.48136 0.04779 0.0
O784 O 0.55434 0.52892 0.04145 0.0
O785 O 0.4871 0.53837 0.09307 0.0
O786 O 0.45808 0.52548 0.05115 0.0
O787 O 0.5299 0.53826 0.07119 0.0
O788 O 0.53886 0.53476 0.97536 0.0
O789 O 0.54278 0.57145 0.99186 0.0
O790 O 0.50031 0.56776 0.04003 0.0
O791 O 0.48303 0.56987 0.98859 0.0
C792 C 0.56971 0.45315 0.95703 0.0
C793 C 0.49689 0.46327 0.98074 0.0
C794 C 0.52293 0.46876 0.07191 0.0
C795 C 0.58787 0.45203 0.03175 0.0
C796 C 0.46311 0.53355 0.07871 0.0
C797 C 0.55212 0.53825 0.06511 0.0
C798 C 0.54875 0.55897 0.97391 0.0
C799 C 0.48482 0.57563 0.01676 0.0
O800 O 0.54558 0.43975 0.96195 0.0
O801 O 0.58034 0.47482 0.96839 0.0
O802 O 0.50057 0.48682 0.98173 0.0
O803 O 0.51396 0.45252 0.99505 0.0
Co804 Co 0.0738 0.47791 0.53263 0.0
Co805 Co 0.05434 0.48013 0.47406 0.0
Co806 Co 1.02361 0.51008 0.50431 0.0
O807 O 0.0387 0.47971 0.50922 0.0
H808 H 0.02512 0.46368 0.51278 0.0
O809 O 1.00872 0.54055 0.49953 0.0
Co810 Co 0.97436 0.54335 0.4752 0.0
Co811 Co 0.99252 0.54017 0.53424 0.0
H812 H 1.02262 0.55659 0.49651 0.0
O813 O 0.05442 0.45038 0.46197 0.0
O814 O 0.0866 0.47579 0.4928 0.0
O815 O 0.06161 0.51072 0.44502 0.0
O816 O 0.04728 0.533 0.47211 0.0
O817 O 0.99575 0.49508 0.47091 0.0
O818 O 0.94427 0.54834 0.45253 0.0
O819 O 0.98133 0.57902 0.46559 0.0
O820 O 0.96155 0.50683 0.47982 0.0
O821 O 0.99983 0.48717 0.53647 0.0
O822 O 0.98455 0.5093 0.56275 0.0
O823 O 0.9606 0.5448 0.51464 0.0
O824 O 0.99212 0.56998 0.54627 0.0
C825 C 0.09249 0.4495 0.55642 0.0
C826 C 0.07624 0.53026 0.53507 0.0
C827 C 0.05963 0.5317 0.44999 0.0
C828 C 0.07832 0.45636 0.47667 0.0
C829 C 0.95682 0.57257 0.45165 0.0
C830 C 0.9709 0.49107 0.47095 0.0
C831 C 0.98694 0.4884 0.55813 0.0
C832 C 0.96849 0.56416 0.53085 0.0
O833 O 0.10461 0.47387 0.55454 0.0
O834 O 0.06772 0.44241 0.5434 0.0
O835 O 0.05159 0.52497 0.53757 0.0
O836 O 0.08583 0.51449 0.52662 0.0
Co837 Co 0.57311 0.97745 0.52933 0.0
Co838 Co 0.55898 0.98284 0.47028 0.0
Co839 Co 0.52518 0.01217 0.49697 0.0
O840 O 0.54009 0.98164 0.50231 0.0
H841 H 0.52595 0.96571 0.50358 0.0
O842 O 0.51021 0.04248 0.49241 0.0
Co843 Co 0.47621 0.0458 0.46802 0.0
Co844 Co 0.49343 0.04137 0.52668 0.0
H845 H 0.52411 0.05849 0.48992 0.0
O846 O 0.55733 0.95356 0.45649 0.0
O847 O 0.58905 0.97543 0.49143 0.0
O848 O 0.56931 0.01404 0.44387 0.0
O849 O 0.54964 0.03566 0.4652 0.0
O850 O 0.49751 0.99732 0.46295 0.0
O851 O 0.4466 0.05136 0.44456 0.0
O852 O 0.48369 0.08141 0.45961 0.0
O853 O 0.46307 1.00902 0.4714 0.0
O854 O 0.50099 0.98893 0.5284 0.0
O855 O 0.48619 0.01071 0.5557 0.0
O856 O 0.46185 0.04726 0.50773 0.0
O857 O 0.49477 0.07078 0.54001 0.0
C858 C 0.58842 0.94709 0.55421 0.0
C859 C 0.57744 0.03104 0.53146 0.0
C860 C 0.56514 0.03466 0.44622 0.0
C861 C 0.58032 0.9571 0.47342 0.0
C862 C 0.45957 0.07542 0.44459 0.0
C863 C 0.47254 0.99337 0.46233 0.0
C864 C 0.48857 0.98995 0.55059 0.0
C865 C 0.47082 0.06587 0.52538 0.0
O866 O 0.60168 0.97104 0.55484 0.0
O867 O 0.56475 0.94168 0.53798 0.0
O868 O 0.55251 0.02682 0.53109 0.0
O869 O 0.58719 0.0143 0.5257 0.0
H870 H 0.1864 0.23494 0.29877 0.0
H871 H 0.14952 0.20263 0.32238 0.0
H872 H 0.16401 0.14492 0.2798 0.0
H873 H 0.20099 0.17698 0.25618 0.0
H874 H 0.10822 0.14072 0.27928 0.0
H875 H 0.16756 0.15037 0.39664 0.0
H876 H 0.16369 0.17964 0.3748 0.0
H877 H 0.18201 0.16294 0.36038 0.0
C878 C 0.18153 0.21545 0.29403 0.0
C879 C 0.19674 0.20853 0.27568 0.0
C880 C 0.16047 0.19703 0.30756 0.0
C881 C 0.15434 0.17141 0.3031 0.0
C882 C 0.16848 0.16464 0.28345 0.0
H883 H 0.07439 0.04379 0.43051 0.0
H884 H 0.10395 0.07217 0.39368 0.0
C885 C 0.18956 0.18304 0.26988 0.0
C886 C 0.13467 0.15144 0.32099 0.0
H887 H 0.12326 0.12377 0.39564 0.0
C888 C 0.11142 0.13693 0.30471 0.0
C889 C 0.13927 0.14631 0.35408 0.0
C890 C 0.16457 0.16044 0.37258 0.0
C891 C 0.09228 0.11768 0.32087 0.0
C892 C 0.09652 0.11314 0.35406 0.0
C893 C 0.12001 0.12739 0.37019 0.0
C894 C 0.07697 0.09384 0.3729 0.0
C895 C 0.06793 0.10215 0.30233 0.0
C896 C 0.05176 0.0963 0.37297 0.0
C897 C 0.03472 0.08004 0.394 0.0
C898 C 0.0428 0.06128 0.41555 0.0
C899 C 0.06765 0.05823 0.41447 0.0
C900 C 0.08457 0.07438 0.39338 0.0
H901 H 0.07091 0.10333 0.27737 0.0
H902 H 0.06238 0.08181 0.31276 0.0
H903 H 0.05112 0.10955 0.30275 0.0
H904 H 0.0457 0.11149 0.35775 0.0
H905 H 1.01575 0.08293 0.3943 0.0
H906 H 0.76504 0.13758 0.39589 0.0
H907 H 0.78972 0.12401 0.445 0.0
H908 H 0.86204 0.1537 0.40184 0.0
H909 H 0.83784 0.16543 0.35265 0.0
H910 H 0.82005 0.08909 0.44191 0.0
H911 H 0.88305 0.17561 0.49299 0.0
H912 H 0.85154 0.17388 0.46924 0.0
H913 H 0.88093 0.17961 0.45085 0.0
C914 C 0.78621 0.1413 0.39686 0.0
C915 C 0.79931 0.15268 0.37004 0.0
C916 C 0.80031 0.13393 0.42512 0.0
C917 C 0.82777 0.13851 0.42721 0.0
C918 C 0.84098 0.15079 0.40102 0.0
H919 H 0.96296 0.10612 0.46248 0.0
H920 H 0.92827 0.12589 0.46225 0.0
C921 C 0.82696 0.15752 0.37274 0.0
C922 C 0.84237 0.12637 0.45381 0.0
H923 H 0.90243 0.14078 0.49858 0.0
C924 C 0.83761 0.10007 0.45541 0.0
C925 C 0.86507 0.14089 0.47129 0.0
C926 C 0.87035 0.16906 0.47128 0.0
C927 C 0.85687 0.08847 0.47019 0.0
C928 C 0.88105 0.10359 0.48503 0.0
C929 C 0.88412 0.12927 0.48695 0.0
C930 C 0.90485 0.09461 0.4925 0.0
C931 C 0.85225 0.06093 0.46634 0.0
C932 C 0.90413 0.07124 0.51106 0.0
C933 C 0.92322 0.05946 0.50981 0.0
C934 C 0.94417 0.07167 0.4917 0.0
C935 C 0.94685 0.09642 0.4765 0.0
C936 C 0.92711 0.10773 0.47658 0.0
H937 H 0.83428 0.05346 0.44981 0.0
H938 H 0.86946 0.05865 0.45741 0.0
H939 H 0.84949 0.04896 0.48942 0.0
H940 H 0.88779 0.06126 0.52461 0.0
H941 H 0.9211 0.0404 0.52203 0.0
H942 H 0.85896 0.83365 0.26612 0.0
H943 H 0.88667 0.87014 0.2926 0.0
H944 H 0.8175 0.87768 0.32331 0.0
H945 H 0.78962 0.84136 0.2969 0.0
H946 H 0.88376 0.92318 0.29072 0.0
H947 H 0.86631 0.861 0.40499 0.0
H948 H 0.8594 0.8481 0.36813 0.0
H949 H 0.83771 0.86354 0.37795 0.0
C950 C 0.84956 0.84345 0.27781 0.0
C951 C 0.82217 0.83445 0.27975 0.0
C952 C 0.8654 0.86424 0.29296 0.0
C953 C 0.85406 0.87624 0.31018 0.0
C954 C 0.82656 0.86839 0.31041 0.0
H955 H 0.9497 0.97131 0.45459 0.0
H956 H 0.91041 0.95062 0.41995 0.0
C957 C 0.81072 0.84763 0.29534 0.0
C958 C 0.87132 0.89522 0.33031 0.0
H959 H 0.89668 0.90175 0.40674 0.0
C960 C 0.88638 0.91872 0.31612 0.0
C961 C 0.87436 0.88932 0.36342 0.0
C962 C 0.85875 0.8641 0.37969 0.0
C963 C 0.90525 0.9362 0.33422 0.0
C964 C 0.90948 0.92962 0.36718 0.0
C965 C 0.89335 0.90672 0.38147 0.0
C966 C 0.93276 0.94435 0.38664 0.0
C967 C 0.92084 0.96131 0.31781 0.0
C968 C 0.95818 0.94736 0.37951 0.0
C969 C 0.98047 0.95901 0.3991 0.0
C970 C 0.97787 0.96767 0.42656 0.0
C971 C 0.95236 0.96481 0.43365 0.0
C972 C 0.92993 0.95311 0.41386 0.0
H973 H 0.90915 0.96735 0.29596 0.0
H974 H 0.92687 0.97657 0.33328 0.0
H975 H 0.93896 0.95913 0.31102 0.0
H976 H 0.96081 0.94001 0.3592 0.0
H977 H 0.99977 0.96077 0.3929 0.0
H978 H 0.16422 0.88432 0.25134 0.0
H979 H 0.15197 0.90682 0.28683 0.0
H980 H 0.21863 0.89928 0.35426 0.0
H981 H 0.23164 0.87736 0.31817 0.0
H982 H 0.139 0.88886 0.34751 0.0
H983 H 0.22649 0.97591 0.34609 0.0
H984 H 0.21887 0.95408 0.3173 0.0
H985 H 0.23298 0.94567 0.35651 0.0
C986 C 0.17654 0.88771 0.27351 0.0
C987 C 0.19909 0.87926 0.28173 0.0
C988 C 0.1694 0.90045 0.29389 0.0
C989 C 0.18459 0.90508 0.323 0.0
C990 C 0.2069 0.89634 0.33166 0.0
H991 H 0.13851 0.98002 0.45843 0.0
H992 H 0.16559 0.96129 0.43529 0.0
C993 C 0.21411 0.88355 0.31117 0.0
C994 C 0.17621 0.91845 0.3442 0.0
H995 H 0.19226 0.97487 0.37441 0.0
C996 C 0.15081 0.90753 0.35367 0.0
C997 C 0.19171 0.94274 0.35246 0.0
C998 C 0.21898 0.95548 0.34248 0.0
C999 C 0.14001 0.92066 0.36991 0.0
C1000 C 0.15492 0.94547 0.37676 0.0
C1001 C 0.1809 0.95589 0.36894 0.0
C1002 C 0.14257 0.96132 0.38942 0.0
C1003 C 0.11234 0.90806 0.37878 0.0
C1004 C 0.12172 0.9688 0.37079 0.0
C1005 C 0.1064 0.97949 0.38381 0.0
C1006 C 0.11161 0.98294 0.41577 0.0
C1007 C 0.13395 0.9775 0.43377 0.0
C1008 C 0.14937 0.96671 0.42064 0.0
H1009 H 0.10752 0.88696 0.38231 0.0
H1010 H 0.10973 0.91434 0.40054 0.0
H1011 H 0.09794 0.91334 0.35948 0.0
H1012 H 0.11639 0.96509 0.34654 0.0
H1013 H 0.08954 0.98376 0.36916 0.0
H1014 H 0.18154 0.83866 0.6171 0.0
H1015 H 0.1498 0.8406 0.57086 0.0
H1016 H 0.20449 0.83357 0.51304 0.0
H1017 H 0.23684 0.83196 0.55982 0.0
H1018 H 0.19073 0.87317 0.4907 0.0
H1019 H 0.0974 0.79983 0.51019 0.0
H1020 H 0.10881 0.81294 0.5465 0.0
H1021 H 0.12834 0.79712 0.53212 0.0
C1022 C 0.18654 0.83661 0.59477 0.0
C1023 C 0.21177 0.83536 0.59209 0.0
C1024 C 0.16816 0.83743 0.56821 0.0
C1025 C 0.1744 0.83669 0.53833 0.0
C1026 C 0.19908 0.83392 0.53582 0.0
H1027 H 0.05517 0.9072 0.44891 0.0
H1028 H 0.07911 0.87745 0.44328 0.0
C1029 C 0.21763 0.83326 0.5625 0.0
C1030 C 0.15752 0.8444 0.51016 0.0
H1031 H 0.09346 0.84491 0.4927 0.0
C1032 C 0.16934 0.86624 0.49009 0.0
C1033 C 0.12954 0.83497 0.50778 0.0
C1034 C 0.11543 0.8097 0.52513 0.0
C1035 C 0.15429 0.88147 0.47272 0.0
C1036 C 0.1271 0.87487 0.47615 0.0
C1037 C 0.11455 0.85056 0.49102 0.0
C1038 C 0.11408 0.89492 0.47386 0.0
C1039 C 0.16822 0.90599 0.45386 0.0
C1040 C 0.12581 0.9145 0.49283 0.0
C1041 C 0.11204 0.9308 0.49672 0.0
C1042 C 0.08637 0.92816 0.48138 0.0
C1043 C 0.07504 0.90959 0.46089 0.0
C1044 C 0.08865 0.89267 0.45764 0.0
H1045 H 0.18278 0.9029 0.44076 0.0
H1046 H 0.15399 0.91376 0.43699 0.0
H1047 H 0.17935 0.92025 0.47 0.0
H1048 H 0.14508 0.91624 0.50628 0.0
H1049 H 0.12126 0.94508 0.51248 0.0
H1050 H 0.23374 0.21712 0.66571 0.0
H1051 H 0.20223 0.18356 0.63849 0.0
H1052 H 0.18378 0.13788 0.72717 0.0
H1053 H 0.2157 0.17186 0.75519 0.0
H1054 H 0.20146 0.13248 0.64194 0.0
H1055 H 0.11105 0.14234 0.67909 0.0
H1056 H 0.14275 0.1665 0.68326 0.0
H1057 H 0.13681 0.13713 0.70932 0.0
C1058 C 0.22311 0.20004 0.6797 0.0
C1059 C 0.22697 0.19738 0.71275 0.0
C1060 C 0.20511 0.18081 0.66398 0.0
C1061 C 0.19058 0.15843 0.68083 0.0
C1062 C 0.19463 0.15526 0.71382 0.0
H1063 H 0.0931 0.03733 0.57012 0.0
H1064 H 0.12554 0.06025 0.60943 0.0
C1065 C 0.21279 0.17466 0.72974 0.0
C1066 C 0.17105 0.13898 0.66303 0.0
H1067 H 0.10475 0.11549 0.64067 0.0
C1068 C 0.18028 0.12835 0.64195 0.0
C1069 C 0.14354 0.13407 0.663 0.0
C1070 C 0.13277 0.14565 0.6847 0.0
C1071 C 0.16271 0.11381 0.61973 0.0
C1072 C 0.13519 0.10936 0.6192 0.0
C1073 C 0.1259 0.11909 0.64117 0.0
C1074 C 0.11575 0.09556 0.59517 0.0
C1075 C 0.17383 0.10452 0.59601 0.0
C1076 C 0.09931 0.1078 0.57437 0.0
C1077 C 0.08049 0.09469 0.55198 0.0
C1078 C 0.07785 0.06911 0.55013 0.0
C1079 C 0.0947 0.05708 0.57075 0.0
C1080 C 0.11332 0.07013 0.59323 0.0
H1081 H 0.19521 0.11477 0.59485 0.0
H1082 H 0.1717 0.08394 0.60284 0.0
H1083 H 0.16295 0.10694 0.57217 0.0
H1084 H 0.10097 0.12749 0.57556 0.0
H1085 H 0.06777 0.10446 0.53651 0.0
H1086 H 0.84484 0.11715 0.73186 0.0
H1087 H 0.86443 0.10158 0.69542 0.0
H1088 H 0.92298 0.17514 0.68231 0.0
H1089 H 0.90376 0.19077 0.7192 0.0
H1090 H 0.87547 0.12077 0.6304 0.0
H1091 H 0.96599 0.12354 0.71529 0.0
H1092 H 0.93581 0.12506 0.72688 0.0
H1093 H 0.95713 0.15264 0.70619 0.0
C1094 C 0.86188 0.13004 0.72121 0.0
C1095 C 0.87297 0.15511 0.72876 0.0
C1096 C 0.87292 0.12116 0.70021 0.0
C1097 C 0.89535 0.1371 0.68649 0.0
C1098 C 0.90584 0.16244 0.69294 0.0
H1099 H 1.00203 0.11013 0.57658 0.0
H1100 H 0.97882 0.12827 0.60558 0.0
C1101 C 0.89473 0.17139 0.71385 0.0
C1102 C 0.90854 0.12673 0.66684 0.0
H1103 H 0.96505 0.11135 0.66581 0.0
C1104 C 0.89505 0.11869 0.63808 0.0
C1105 C 0.93407 0.12401 0.67697 0.0
C1106 C 0.94911 0.13155 0.70811 0.0
C1107 C 0.90663 0.10833 0.61895 0.0
C1108 C 0.93206 0.10541 0.62929 0.0
C1109 C 0.94553 0.11354 0.65798 0.0
C1110 C 0.94537 0.09428 0.61064 0.0
C1111 C 0.89185 0.10114 0.58755 0.0
C1112 C 0.93441 0.06898 0.60409 0.0
C1113 C 0.94775 0.05842 0.58758 0.0
C1114 C 0.9723 0.073 0.57737 0.0
C1115 C 0.98321 0.09829 0.58413 0.0
C1116 C 0.96993 0.10876 0.60065 0.0
H1117 H 0.87585 0.11026 0.57971 0.0
H1118 H 0.90552 0.10669 0.56922 0.0
H1119 H 0.88264 0.08017 0.58955 0.0
H1120 H 0.91572 0.05728 0.61212 0.0
H1121 H 0.93883 0.03888 0.58284 0.0
H1122 H 0.86723 0.81505 0.75883 0.0
H1123 H 0.90353 0.8487 0.73567 0.0
H1124 H 0.85889 0.84205 0.64373 0.0
H1125 H 0.82236 0.80915 0.66658 0.0
H1126 H 0.93292 0.84642 0.69067 0.0
H1127 H 0.88023 0.9184 0.64817 0.0
H1128 H 0.86808 0.89116 0.67674 0.0
H1129 H 0.86166 0.88816 0.63537 0.0
C1130 C 0.865 0.82101 0.73374 0.0
C1131 C 0.84169 0.80978 0.71462 0.0
C1132 C 0.88578 0.84014 0.72058 0.0
C1133 C 0.88352 0.84826 0.68816 0.0
C1134 C 0.86064 0.83655 0.66896 0.0
H1135 H 0.98703 0.90547 0.551 0.0
H1136 H 0.95986 0.88158 0.59235 0.0
C1137 C 0.83988 0.81755 0.68205 0.0
C1138 C 0.90545 0.86805 0.67372 0.0
H1139 H 0.9178 0.92231 0.62152 0.0
C1140 C 0.92986 0.86331 0.67604 0.0
C1141 C 0.90161 0.89036 0.65533 0.0
C1142 C 0.87656 0.89748 0.65403 0.0
C1143 C 0.94985 0.87932 0.65838 0.0
C1144 C 0.94493 0.90016 0.6375 0.0
C1145 C 0.92133 0.90602 0.63712 0.0
C1146 C 0.9628 0.91472 0.61386 0.0
C1147 C 0.97578 0.87341 0.66171 0.0
C1148 C 0.97282 0.94134 0.61174 0.0
C1149 C 0.98808 0.95512 0.58783 0.0
C1150 C 0.99349 0.94247 0.56559 0.0
C1151 C 0.9834 0.91578 0.56785 0.0
C1152 C 0.96808 0.90206 0.59167 0.0
H1153 H 0.97994 0.86325 0.68541 0.0
H1154 H 0.97463 0.86076 0.64412 0.0
H1155 H 0.99255 0.89103 0.65774 0.0
H1156 H 0.96866 0.95145 0.62845 0.0
H1157 H 0.9955 0.97569 0.58672 0.0
H1158 H 0.32047 0.15957 0.15372 0.0
H1159 H 0.34829 0.13703 0.13926 0.0
H1160 H 0.34237 0.17474 0.04426 0.0
H1161 H 0.31612 0.19841 0.05883 0.0
H1162 H 0.33879 0.10356 0.09825 0.0
H1163 H 0.4206 0.18819 0.06161 0.0
H1164 H 0.39494 0.1903 0.08205 0.0
H1165 H 0.38934 0.18934 0.04019 0.0
C1166 C 0.32551 0.1635 0.1299 0.0
C1167 C 0.31591 0.18098 0.10755 0.0
C1168 C 0.34124 0.15034 0.12155 0.0
C1169 C 0.34786 0.15435 0.09071 0.0
C1170 C 0.33815 0.17162 0.06837 0.0
H1171 H 0.40919 0.0534 0.00872 0.0
H1172 H 0.38007 0.07379 0.02519 0.0
C1173 C 0.3227 0.18492 0.07671 0.0
C1174 C 0.36452 0.14029 0.08166 0.0
H1175 H 0.41989 0.14884 0.04682 0.0
C1176 C 0.35663 0.11348 0.08718 0.0
C1177 C 0.38801 0.1531 0.06749 0.0
C1178 C 0.39888 0.18181 0.06279 0.0
C1179 C 0.37131 0.09924 0.07866 0.0
C1180 C 0.39426 0.11206 0.06344 0.0
C1181 C 0.4022 0.13886 0.05816 0.0
C1182 C 0.41124 0.09842 0.05417 0.0
C1183 C 0.36243 0.07065 0.08684 0.0
C1184 C 0.43855 0.10559 0.06436 0.0
C1185 C 0.45517 0.09432 0.05455 0.0
C1186 C 0.445 0.07533 0.03443 0.0
C1187 C 0.41759 0.06769 0.0246 0.0
C1188 C 0.4009 0.0793 0.03413 0.0
H1189 H 0.34944 0.06456 0.10593 0.0
H1190 H 0.35092 0.06185 0.06582 0.0
H1191 H 0.37965 0.06318 0.09434 0.0
H1192 H 0.44714 0.12019 0.0798 0.0
H1193 H 0.47617 0.10067 0.06265 0.0
H1194 H 0.78389 0.31521 0.13817 0.0
H1195 H 0.81977 0.34815 0.11318 0.0
H1196 H 0.86907 0.35178 0.2025 0.0
H1197 H 0.83265 0.32022 0.22771 0.0
H1198 H 0.87411 0.39765 0.17465 0.0
H1199 H 0.85154 0.34552 0.082 0.0
H1200 H 0.86308 0.32777 0.117 0.0
H1201 H 0.88399 0.34185 0.08623 0.0
C1202 C 0.80252 0.32287 0.15231 0.0
C1203 C 0.80576 0.31448 0.18468 0.0
C1204 C 0.82315 0.34158 0.13798 0.0
C1205 C 0.84759 0.35209 0.15566 0.0
C1206 C 0.85061 0.34392 0.18814 0.0
H1207 H 1.004 0.4503 0.12028 0.0
H1208 H 0.96429 0.42263 0.14325 0.0
C1209 C 0.82985 0.32559 0.20252 0.0
C1210 C 0.86978 0.37217 0.14079 0.0
H1211 H 0.90878 0.38574 0.08145 0.0
C1212 C 0.88169 0.39492 0.15433 0.0
C1213 C 0.87979 0.36888 0.11411 0.0
C1214 C 0.86911 0.34459 0.09915 0.0
C1215 C 0.9032 0.4142 0.14214 0.0
C1216 C 0.91315 0.41079 0.11564 0.0
C1217 C 0.90103 0.38837 0.10169 0.0
C1218 C 0.93689 0.4297 0.10283 0.0
C1219 C 0.91514 0.43818 0.15758 0.0
C1220 C 0.93471 0.44311 0.07254 0.0
C1221 C 0.9574 0.45921 0.05942 0.0
C1222 C 0.98281 0.46186 0.07611 0.0
C1223 C 0.98481 0.44883 0.10677 0.0
C1224 C 0.9621 0.43301 0.11999 0.0
H1225 H 0.90203 0.4402 0.1736 0.0
H1226 H 0.9343 0.43766 0.17157 0.0
H1227 H 0.91916 0.45525 0.13958 0.0
H1228 H 0.91548 0.44073 0.0588 0.0
H1229 H 0.95506 0.46866 0.03564 0.0
H1230 H 0.6892 0.76686 0.18905 0.0
H1231 H 0.6665 0.79623 0.15777 0.0
H1232 H 0.73387 0.85979 0.1821 0.0
H1233 H 0.75715 0.83005 0.21201 0.0
H1234 H 0.64686 0.8273 0.17022 0.0
H1235 H 0.72228 0.88858 0.09504 0.0
H1236 H 0.72625 0.86005 0.11901 0.0
H1237 H 0.73465 0.88934 0.13586 0.0
C1238 C 0.69954 0.7871 0.18707 0.0
C1239 C 0.72543 0.79578 0.20266 0.0
C1240 C 0.68632 0.80412 0.16923 0.0
C1241 C 0.69807 0.83083 0.16659 0.0
C1242 C 0.72412 0.83957 0.18226 0.0
H1243 H 0.63544 0.96169 0.09691 0.0
H1244 H 0.66111 0.93264 0.12097 0.0
C1245 C 0.73761 0.82241 0.19971 0.0
C1246 C 0.68231 0.84891 0.14912 0.0
H1247 H 0.68561 0.90352 0.09657 0.0
C1248 C 0.65552 0.84374 0.15388 0.0
C1249 C 0.69284 0.87086 0.12752 0.0
C1250 C 0.72049 0.87743 0.11878 0.0
C1251 C 0.63964 0.8595 0.13862 0.0
C1252 C 0.6503 0.8815 0.1174 0.0
C1253 C 0.67703 0.88683 0.11264 0.0
C1254 C 0.63442 0.89956 0.10096 0.0
C1255 C 0.61158 0.85277 0.14613 0.0
C1256 C 0.61065 0.8914 0.08062 0.0
C1257 C 0.5958 0.9083 0.06632 0.0
C1258 C 0.60401 0.93402 0.07199 0.0
C1259 C 0.62807 0.94217 0.09182 0.0
C1260 C 0.64298 0.92541 0.10576 0.0
H1261 H 0.60815 0.83902 0.16789 0.0
H1262 H 0.60675 0.8701 0.14901 0.0
H1263 H 0.59773 0.84389 0.12642 0.0
H1264 H 0.6035 0.87184 0.07569 0.0
H1265 H 0.57761 0.90106 0.05122 0.0
H1266 H 0.22933 0.7509 0.14113 0.0
H1267 H 0.19721 0.72339 0.10505 0.0
H1268 H 0.20754 0.65699 0.16649 0.0
H1269 H 0.23833 0.684 0.20298 0.0
H1270 H 0.19792 0.68335 0.07302 0.0
H1271 H 0.12829 0.64758 0.16321 0.0
H1272 H 0.15686 0.67538 0.1663 0.0
H1273 H 0.16045 0.64395 0.17716 0.0
C1274 C 0.22436 0.73046 0.14721 0.0
C1275 C 0.23507 0.71975 0.17606 0.0
C1276 C 0.20633 0.71476 0.12634 0.0
C1277 C 0.19922 0.68813 0.13375 0.0
C1278 C 0.21197 0.67749 0.1609 0.0
H1279 H 0.08722 0.55403 0.06442 0.0
H1280 H 0.1247 0.58511 0.09006 0.0
C1281 C 0.22962 0.69308 0.18183 0.0
C1282 C 0.17759 0.67121 0.11431 0.0
H1283 H 0.11809 0.62491 0.11898 0.0
C1284 C 0.18035 0.67071 0.08291 0.0
C1285 C 0.15459 0.65486 0.12725 0.0
C1286 C 0.14967 0.65559 0.16022 0.0
C1287 C 0.16109 0.65356 0.06447 0.0
C1288 C 0.13854 0.63672 0.07781 0.0
C1289 C 0.13558 0.63763 0.10896 0.0
C1290 C 0.11752 0.61799 0.06003 0.0
C1291 C 0.16528 0.65309 0.03118 0.0
C1292 C 0.10116 0.62621 0.03454 0.0
C1293 C 0.07962 0.60852 0.01993 0.0
C1294 C 0.07399 0.58225 0.0306 0.0
C1295 C 0.09091 0.57408 0.05561 0.0
C1296 C 0.11237 0.5918 0.07028 0.0
H1297 H 0.18601 0.66345 0.02655 0.0
H1298 H 0.16035 0.63315 0.02614 0.0
H1299 H 0.15193 0.66232 0.01465 0.0
H1300 H 0.10454 0.64635 0.02659 0.0
H1301 H 0.06705 0.61551 0.0007 0.0
H1302 H 0.33051 0.77436 0.84828 0.0
H1303 H 0.36104 0.8027 0.88413 0.0
H1304 H 0.3505 0.86801 0.82027 0.0
H1305 H 0.32078 0.8398 0.78362 0.0
H1306 H 0.40241 0.87113 0.83853 0.0
H1307 H 0.34775 0.84493 0.94305 0.0
H1308 H 0.35243 0.81826 0.92952 0.0
H1309 H 0.33221 0.83597 0.90488 0.0
C1310 C 0.33461 0.79477 0.84193 0.0
C1311 C 0.32334 0.8049 0.8131 0.0
C1312 C 0.3518 0.81091 0.86262 0.0
C1313 C 0.35767 0.83741 0.85507 0.0
C1314 C 0.34602 0.84757 0.8266 0.0
H1315 H 0.46279 0.96876 0.93701 0.0
H1316 H 0.4267 0.93865 0.90841 0.0
C1317 C 0.32898 0.83144 0.80577 0.0
C1318 C 0.37757 0.85461 0.8756 0.0
H1319 H 0.39271 0.87108 0.95005 0.0
C1320 C 0.40018 0.87125 0.86284 0.0
C1321 C 0.37467 0.8545 0.90738 0.0
C1322 C 0.35035 0.83762 0.92198 0.0
C1323 C 0.4201 0.88774 0.88106 0.0
C1324 C 0.41718 0.88768 0.91273 0.0
C1325 C 0.39474 0.87095 0.92569 0.0
C1326 C 0.43724 0.90533 0.93239 0.0
C1327 C 0.44432 0.90496 0.86646 0.0
C1328 C 0.45453 0.89631 0.95589 0.0
C1329 C 0.4753 0.91345 0.97225 0.0
C1330 C 0.47893 0.93983 0.96536 0.0
C1331 C 0.46072 0.9486 0.94274 0.0
C1332 C 0.44008 0.93147 0.92637 0.0
H1333 H 0.44577 0.8994 0.84366 0.0
H1334 H 0.44334 0.92484 0.86222 0.0
H1335 H 0.46261 0.90465 0.88261 0.0
H1336 H 0.45249 0.87612 0.9608 0.0
H1337 H 0.48885 0.90607 0.98969 0.0
H1338 H 0.18352 0.3212 0.84671 0.0
H1339 H 0.1654 0.35162 0.86276 0.0
H1340 H 0.20256 0.33904 0.9575 0.0
H1341 H 0.22037 0.30849 0.9417 0.0
H1342 H 0.15248 0.33544 0.95819 0.0
H1343 H 0.19692 0.42402 0.88167 0.0
H1344 H 0.17925 0.39798 0.85974 0.0
H1345 H 0.2083 0.39632 0.88651 0.0
C1346 C 0.18825 0.32529 0.87081 0.0
C1347 C 0.20332 0.31223 0.89291 0.0
C1348 C 0.17793 0.34279 0.87999 0.0
C1349 C 0.18275 0.34797 0.91137 0.0
C1350 C 0.19844 0.33547 0.93319 0.0
H1351 H 0.13383 0.46394 0.9818 0.0
H1352 H 0.16067 0.44072 0.96591 0.0
C1353 C 0.20858 0.3179 0.92411 0.0
C1354 C 0.16997 0.36481 0.92215 0.0
H1355 H 0.16075 0.4239 0.90754 0.0
C1356 C 0.15453 0.35484 0.94719 0.0
C1357 C 0.17283 0.39036 0.90833 0.0
C1358 C 0.19045 0.40292 0.8828 0.0
C1359 C 0.14136 0.36926 0.95807 0.0
C1360 C 0.14305 0.39429 0.94314 0.0
C1361 C 0.15916 0.40465 0.9188 0.0
C1362 C 0.12713 0.4093 0.9516 0.0
C1363 C 0.12579 0.35752 0.98566 0.0
C1364 C 0.09938 0.39975 0.94824 0.0
C1365 C 0.08413 0.41287 0.95729 0.0
C1366 C 0.09611 0.43612 0.96975 0.0
C1367 C 0.12393 0.44613 0.97232 0.0
C1368 C 0.13928 0.43286 0.96324 0.0
H1369 H 0.1328 0.34193 1.00011 0.0
H1370 H 0.12724 0.372 0.00098 0.0
H1371 H 0.10461 0.34926 0.97683 0.0
H1372 H 0.08944 0.38195 0.93871 0.0
H1373 H 0.06279 0.4046 0.95463 0.0
H1374 H 0.73126 0.22078 0.83349 0.0
H1375 H 0.70219 0.18391 0.86259 0.0
H1376 H 0.6908 0.14066 0.78546 0.0
H1377 H 0.71839 0.17832 0.75567 0.0
H1378 H 0.64615 0.13564 0.79989 0.0
H1379 H 0.70552 0.11926 0.9131 0.0
H1380 H 0.70599 0.15195 0.90576 0.0
H1381 H 0.7202 0.13947 0.8797 0.0
C1382 C 0.72325 0.20307 0.82332 0.0
C1383 C 0.72786 0.20198 0.79288 0.0
C1384 C 0.7067 0.18189 0.84002 0.0
C1385 C 0.69462 0.15906 0.82672 0.0
C1386 C 0.69996 0.15785 0.79652 0.0
H1387 H 0.58666 0.0352 0.94169 0.0
H1388 H 0.62457 0.05886 0.91269 0.0
C1389 C 0.71596 0.17927 0.77955 0.0
C1390 C 0.67372 0.13797 0.84231 0.0
H1391 H 0.65775 0.10482 0.91376 0.0
C1392 C 0.64898 0.1286 0.82467 0.0
C1393 C 0.6772 0.12811 0.87451 0.0
C1394 C 0.70379 0.13503 0.89422 0.0
C1395 C 0.62745 0.1109 0.83857 0.0
C1396 C 0.63022 0.10307 0.87141 0.0
C1397 C 0.65532 0.1112 0.88874 0.0
C1398 C 0.607 0.08792 0.88836 0.0
C1399 C 0.60195 0.10086 0.81773 0.0
C1400 C 0.58461 0.09643 0.88475 0.0
C1401 C 0.56286 0.08277 0.90078 0.0
C1402 C 0.5631 0.0605 0.92156 0.0
C1403 C 0.58573 0.05217 0.92572 0.0
C1404 C 0.60744 0.06572 0.9092 0.0
H1405 H 0.60588 0.1005 0.79355 0.0
H1406 H 0.59058 0.08132 0.82715 0.0
H1407 H 0.58953 0.11368 0.8159 0.0
H1408 H 0.58407 0.11397 0.86983 0.0
H1409 H 0.54605 0.0901 0.8974 0.0
H1410 H 0.84581 0.74523 0.79234 0.0
H1411 H 0.87769 0.72369 0.82286 0.0
H1412 H 0.8148 0.6529 0.83157 0.0
H1413 H 0.78316 0.67419 0.80192 0.0
H1414 H 0.86919 0.68248 0.89163 0.0
H1415 H 0.8808 0.64655 0.78509 0.0
H1416 H 0.8736 0.67634 0.78281 0.0
H1417 H 0.84828 0.64675 0.79049 0.0
C1418 C 0.83866 0.72523 0.80139 0.0
C1419 C 0.81157 0.71168 0.79485 0.0
C1420 C 0.85701 0.71278 0.81876 0.0
C1421 C 0.84894 0.68637 0.82977 0.0
C1422 C 0.82187 0.67313 0.82365 0.0
H1423 H 0.91818 0.56175 0.89766 0.0
H1424 H 0.89238 0.59051 0.87384 0.0
C1425 C 0.80366 0.68548 0.80658 0.0
C1426 C 0.86839 0.672 0.84618 0.0
H1427 H 0.90031 0.63072 0.83355 0.0
C1428 C 0.87627 0.67143 0.87883 0.0
C1429 C 0.87751 0.65702 0.83003 0.0
C1430 C 0.86982 0.65658 0.79513 0.0
C1431 C 0.89223 0.65612 0.89552 0.0
C1432 C 0.90144 0.64104 0.87934 0.0
C1433 C 0.89371 0.64199 0.84654 0.0
C1434 C 0.91778 0.62325 0.89572 0.0
C1435 C 0.89794 0.65538 0.93072 0.0
C1436 C 0.94125 0.63128 0.91664 0.0
C1437 C 0.95627 0.61445 0.93079 0.0
C1438 C 0.9486 0.58896 0.92433 0.0
C1439 C 0.92512 0.58106 0.90351 0.0
C1440 C 0.91017 0.59774 0.88958 0.0
H1441 H 0.8835 0.66161 0.94046 0.0
H1442 H 0.89741 0.63591 0.94233 0.0
H1443 H 0.91797 0.66855 0.93676 0.0
H1444 H 0.94843 0.6508 0.92164 0.0
H1445 H 0.97414 0.62157 0.94643 0.0
H1446 H 0.19807 0.27501 0.20541 0.0
H1447 H 0.16782 0.29748 0.17301 0.0
H1448 H 0.23287 0.36681 0.16582 0.0
H1449 H 0.26278 0.34442 0.19684 0.0
H1450 H 0.15102 0.33586 0.18104 0.0
H1451 H 0.20374 0.37097 0.07619 0.0
H1452 H 0.21163 0.34709 0.10636 0.0
H1453 H 0.22576 0.38048 0.11067 0.0
C1454 C 0.20604 0.29484 0.1961 0.0
C1455 C 0.23329 0.30755 0.20315 0.0
C1456 C 0.18859 0.30791 0.17773 0.0
C1457 C 0.19773 0.33413 0.16586 0.0
C1458 C 0.22492 0.34661 0.17326 0.0
H1459 H 0.13417 0.46175 0.09559 0.0
H1460 H 0.15913 0.43185 0.11868 0.0
C1461 C 0.2422 0.33366 0.19138 0.0
C1462 C 0.17917 0.34896 0.14727 0.0
H1463 H 0.1738 0.39347 0.08271 0.0
C1464 C 0.15595 0.34809 0.15929 0.0
C1465 C 0.18486 0.36515 0.11849 0.0
C1466 C 0.20769 0.36579 0.10199 0.0
C1467 C 0.13943 0.36339 0.14446 0.0
C1468 C 0.14592 0.38041 0.11663 0.0
C1469 C 0.16865 0.38081 0.10412 0.0
C1470 C 0.13018 0.39873 0.10123 0.0
C1471 C 0.11541 0.36193 0.15918 0.0
C1472 C 0.10534 0.39066 0.08287 0.0
C1473 C 0.09091 0.40804 0.06905 0.0
C1474 C 0.10064 0.43409 0.07343 0.0
C1475 C 0.12565 0.44201 0.09154 0.0
C1476 C 0.14013 0.42478 0.10493 0.0
H1477 H 0.11357 0.34889 0.18164 0.0
H1478 H 0.11641 0.38122 0.16367 0.0
H1479 H 0.09729 0.35511 0.14262 0.0
H1480 H 0.09702 0.37082 0.07921 0.0
H1481 H 0.07189 0.40094 0.05536 0.0
H1482 H 0.24998 0.72514 0.84963 0.0
H1483 H 0.21463 0.69173 0.87528 0.0
H1484 H 0.18517 0.66028 0.78777 0.0
H1485 H 0.22047 0.69369 0.76212 0.0
H1486 H 0.15877 0.68067 0.85869 0.0
H1487 H 0.19368 0.59835 0.85261 0.0
H1488 H 0.21487 0.63093 0.84859 0.0
H1489 H 0.19137 0.61887 0.81616 0.0
C1490 C 0.23579 0.71116 0.83591 0.0
C1491 C 0.23745 0.71232 0.80379 0.0
C1492 C 0.21571 0.69207 0.85055 0.0
C1493 C 0.1974 0.67334 0.83354 0.0
C1494 C 0.19925 0.67432 0.80147 0.0
H1495 H 0.04335 0.57593 0.87815 0.0
H1496 H 0.08152 0.60459 0.85344 0.0
C1497 C 0.21917 0.69359 0.78674 0.0
C1498 C 0.17594 0.65324 0.84915 0.0
H1499 H 0.15104 0.58876 0.86904 0.0
C1500 C 0.15707 0.66061 0.86086 0.0
C1501 C 0.17406 0.62705 0.85268 0.0
C1502 C 0.19466 0.6182 0.84213 0.0
C1503 C 0.13591 0.64252 0.87508 0.0
C1504 C 0.13344 0.61625 0.87758 0.0
C1505 C 0.15277 0.60886 0.86676 0.0
C1506 C 0.11064 0.5964 0.89107 0.0
C1507 C 0.11642 0.65168 0.88753 0.0
C1508 C 0.11434 0.58133 0.91987 0.0
C1509 C 0.09244 0.56471 0.93416 0.0
C1510 C 0.06644 0.56286 0.91982 0.0
C1511 C 0.063 0.57696 0.89009 0.0
C1512 C 0.08483 0.59347 0.87591 0.0
H1513 H 0.12441 0.67224 0.89043 0.0
H1514 H 0.09804 0.64896 0.87072 0.0
H1515 H 0.11106 0.64059 0.91053 0.0
H1516 H 0.13412 0.58321 0.93192 0.0
H1517 H 0.09589 0.55426 0.95706 0.0
H1518 H 0.36292 0.25192 0.81221 0.0
H1519 H 0.38418 0.22113 0.84301 0.0
H1520 H 0.31325 0.15991 0.82273 0.0
H1521 H 0.29166 0.19104 0.79191 0.0
H1522 H 0.37117 0.18276 0.89683 0.0
H1523 H 0.37201 0.13894 0.79194 0.0
H1524 H 0.36612 0.16941 0.78873 0.0
H1525 H 0.34043 0.14054 0.79867 0.0
C1526 C 0.35156 0.23193 0.81468 0.0
C1527 C 0.32533 0.22425 0.79961 0.0
C1528 C 0.36388 0.21419 0.83239 0.0
C1529 C 0.35079 0.18781 0.83524 0.0
C1530 C 0.32424 0.17999 0.82085 0.0
H1531 H 0.41172 0.05565 0.90527 0.0
H1532 H 0.38555 0.08433 0.88222 0.0
C1533 C 0.31168 0.1979 0.80339 0.0
C1534 C 0.36547 0.16894 0.85225 0.0
H1535 H 0.39062 0.12225 0.84035 0.0
C1536 C 0.37531 0.16948 0.88441 0.0
C1537 C 0.37119 0.15134 0.83659 0.0
C1538 C 0.36213 0.14997 0.80203 0.0
C1539 C 0.38996 0.15298 0.9011 0.0
C1540 C 0.39626 0.13572 0.88526 0.0
C1541 C 0.38625 0.13519 0.85307 0.0
C1542 C 0.41257 0.11779 0.90132 0.0
C1543 C 0.39769 0.15379 0.93597 0.0
C1544 C 0.43706 0.12621 0.92041 0.0
C1545 C 0.45214 0.10942 0.93428 0.0
C1546 C 0.44367 0.08359 0.92912 0.0
C1547 C 0.41925 0.07525 0.91004 0.0
C1548 C 0.4041 0.09189 0.89656 0.0
H1549 H 0.38423 0.16096 0.94619 0.0
H1550 H 0.39734 0.13466 0.94867 0.0
H1551 H 0.41801 0.16702 0.94008 0.0
H1552 H 0.44501 0.14603 0.92413 0.0
H1553 H 0.47081 0.11689 0.94844 0.0
H1554 H 0.79786 0.301 0.84193 0.0
H1555 H 0.8282 0.3305 0.87684 0.0
H1556 H 0.89467 0.32605 0.83666 0.0
H1557 H 0.8645 0.29544 0.80311 0.0
H1558 H 0.90694 0.32615 0.89636 0.0
H1559 H 0.86209 0.40407 0.85234 0.0
H1560 H 0.83881 0.37593 0.86908 0.0
H1561 H 0.85251 0.37526 0.83425 0.0
C1562 C 0.81899 0.30623 0.84079 0.0
C1563 C 0.8289 0.29603 0.81986 0.0
C1564 C 0.83628 0.32328 0.86049 0.0
C1565 C 0.8637 0.3311 0.8588 0.0
C1566 C 0.8736 0.32042 0.83834 0.0
H1567 H 0.97797 0.46773 0.9203 0.0
H1568 H 0.94381 0.43555 0.89226 0.0
C1569 C 0.85637 0.30289 0.81922 0.0
C1570 C 0.8822 0.35036 0.87825 0.0
H1571 H 0.89465 0.41039 0.89684 0.0
C1572 C 0.90428 0.34461 0.89638 0.0
C1573 C 0.87899 0.37462 0.87793 0.0
C1574 C 0.85698 0.38296 0.8571 0.0
C1575 C 0.92332 0.36242 0.91394 0.0
C1576 C 0.91955 0.38629 0.91462 0.0
C1577 C 0.89738 0.39199 0.89667 0.0
C1578 C 0.93907 0.40615 0.93242 0.0
C1579 C 0.94777 0.35574 0.93047 0.0
C1580 C 0.94726 0.40063 0.96455 0.0
C1581 C 0.96724 0.41882 0.98039 0.0
C1582 C 0.97874 0.4431 0.96462 0.0
C1583 C 0.96943 0.44914 0.93301 0.0
C1584 C 0.94992 0.43075 0.91698 0.0
H1585 H 0.95137 0.34061 0.91986 0.0
H1586 H 0.96565 0.37264 0.92961 0.0
H1587 H 0.94502 0.34842 0.95546 0.0
H1588 H 0.93851 0.38214 0.9773 0.0
H1589 H 0.97378 0.41385 0.00494 0.0
H1590 H 0.72163 0.85505 0.84375 0.0
H1591 H 0.69349 0.87702 0.85874 0.0
H1592 H 0.71552 0.85381 0.95663 0.0
H1593 H 0.7424 0.83077 0.94191 0.0
H1594 H 0.66457 0.84821 0.94656 0.0
H1595 H 0.71671 0.94471 0.89159 0.0
H1596 H 0.70427 0.92188 0.86408 0.0
H1597 H 0.72972 0.91813 0.89555 0.0
C1598 C 0.72027 0.85436 0.86847 0.0
C1599 C 0.73467 0.8413 0.89157 0.0
C1600 C 0.70446 0.86732 0.87704 0.0
C1601 C 0.70285 0.86774 0.90891 0.0
C1602 C 0.71661 0.85412 0.93191 0.0
H1603 H 0.6386 0.96894 0.98544 0.0
H1604 H 0.66829 0.949 0.96918 0.0
C1605 C 0.73221 0.84107 0.92339 0.0
C1606 C 0.68641 0.88171 0.91858 0.0
H1607 H 0.67628 0.94009 0.91117 0.0
C1608 C 0.66725 0.86832 0.93884 0.0
C1609 C 0.69012 0.90813 0.90913 0.0
C1610 C 0.7115 0.92414 0.88916 0.0
C1611 C 0.65147 0.88035 0.94939 0.0
C1612 C 0.65432 0.90645 0.93878 0.0
C1613 C 0.67385 0.92004 0.91906 0.0
C1614 C 0.63669 0.91963 0.94733 0.0
C1615 C 0.63219 0.86499 0.97231 0.0
C1616 C 0.60915 0.91029 0.93974 0.0
C1617 C 0.59227 0.9215 0.94909 0.0
C1618 C 0.60244 0.94266 0.96594 0.0
C1619 C 0.63011 0.95272 0.97249 0.0
C1620 C 0.64708 0.9413 0.96324 0.0
H1621 H 0.63808 0.8483 0.98536 0.0
H1622 H 0.63069 0.8768 0.98959 0.0
H1623 H 0.61228 0.85769 0.95919 0.0
H1624 H 0.60061 0.89408 0.92676 0.0
H1625 H 0.5711 0.91338 0.94326 0.0
H1626 H 0.82086 0.70292 0.06646 0.0
H1627 H 0.84004 0.67322 0.05111 0.0
H1628 H 0.89437 0.67886 0.13644 0.0
H1629 H 0.87555 0.709 0.15183 0.0
H1630 H 0.89247 0.68392 0.04076 0.0
H1631 H 0.8657 0.60135 0.13335 0.0
H1632 H 0.84972 0.62613 0.12561 0.0
H1633 H 0.88192 0.63142 0.14796 0.0
C1634 C 0.83689 0.69791 0.08206 0.0
C1635 C 0.84674 0.70865 0.11034 0.0
C1636 C 0.84773 0.68074 0.07329 0.0
C1637 C 0.86853 0.67356 0.09268 0.0
C1638 C 0.87801 0.68368 0.12132 0.0
H1639 H 0.98766 0.62149 0.03958 0.0
H1640 H 0.96111 0.64338 0.05713 0.0
C1641 C 0.8672 0.70096 0.1301 0.0
C1642 C 0.88144 0.65702 0.08172 0.0
H1643 H 0.89684 0.60085 0.10039 0.0
C1644 C 0.89323 0.66568 0.05373 0.0
C1645 C 0.88227 0.63306 0.09839 0.0
C1646 C 0.86904 0.62225 0.12786 0.0
C1647 C 0.90642 0.65149 0.04248 0.0
C1648 C 0.90811 0.62797 0.05971 0.0
C1649 C 0.89565 0.61889 0.08721 0.0
C1650 C 0.92407 0.6135 0.0503 0.0
C1651 C 0.9186 0.66195 0.01223 0.0
C1652 C 0.91227 0.58894 0.04129 0.0
C1653 C 0.92756 0.57615 0.03114 0.0
C1654 C 0.95496 0.58764 0.03007 0.0
C1655 C 0.96664 0.61199 0.03983 0.0
C1656 C 0.95144 0.62466 0.04986 0.0
H1657 H 0.90889 0.67547 0.99725 0.0
H1658 H 0.93986 0.67243 0.0178 0.0
H1659 H 0.91725 0.6464 0.99865 0.0
H1660 H 0.89117 0.57989 0.04154 0.0
H1661 H 0.91791 0.55745 0.02386 0.0
H1662 H 0.30941 0.79401 0.17187 0.0
H1663 H 0.33928 0.82972 0.14129 0.0
H1664 H 0.38162 0.85803 0.22754 0.0
H1665 H 0.35306 0.8215 0.25786 0.0
H1666 H 0.35403 0.88018 0.13286 0.0
H1667 H 0.44065 0.84961 0.1915 0.0
H1668 H 0.40722 0.83078 0.19729 0.0
H1669 H 0.42406 0.85724 0.2192 0.0
C1670 C 0.32492 0.80813 0.18409 0.0
C1671 C 0.3289 0.80533 0.21707 0.0
C1672 C 0.342 0.82847 0.1667 0.0
C1673 C 0.36321 0.84627 0.18209 0.0
C1674 C 0.36605 0.84415 0.21508 0.0
H1675 H 0.46806 0.98353 0.08009 0.0
H1676 H 0.43164 0.95545 0.1094 0.0
C1677 C 0.34956 0.82348 0.2324 0.0
C1678 C 0.38333 0.86603 0.16396 0.0
H1679 H 0.44986 0.88936 0.15939 0.0
C1680 C 0.375 0.88216 0.13855 0.0
C1681 C 0.41071 0.86843 0.17102 0.0
C1682 C 0.42116 0.85042 0.196 0.0
C1683 C 0.39324 0.90045 0.12 0.0
C1684 C 0.42067 0.90326 0.12771 0.0
C1685 C 0.4289 0.8874 0.15346 0.0
C1686 C 0.44133 0.92079 0.10828 0.0
C1687 C 0.38281 0.91584 0.09174 0.0
C1688 C 0.45915 0.91092 0.09824 0.0
C1689 C 0.48028 0.92694 0.08271 0.0
C1690 C 0.48395 0.95328 0.07615 0.0
C1691 C 0.46564 0.96327 0.08494 0.0
C1692 C 0.4447 0.94718 0.10139 0.0
H1693 H 0.36148 0.9067 0.08427 0.0
H1694 H 0.38491 0.93494 0.09782 0.0
H1695 H 0.39407 0.91843 0.07158 0.0
H1696 H 0.45698 0.89069 0.10288 0.0
H1697 H 0.49382 0.91864 0.07569 0.0
H1698 H 0.69598 0.24589 0.16046 0.0
H1699 H 0.66564 0.21519 0.12711 0.0
H1700 H 0.70811 0.16085 0.16548 0.0
H1701 H 0.73822 0.19118 0.19923 0.0
H1702 H 0.67937 0.18877 0.08175 0.0
H1703 H 0.62877 0.12383 0.18004 0.0
H1704 H 0.64785 0.15661 0.18344 0.0
H1705 H 0.66439 0.13299 0.18532 0.0
C1706 C 0.69869 0.22735 0.16211 0.0
C1707 C 0.71921 0.22086 0.18296 0.0
C1708 C 0.68151 0.20993 0.14282 0.0
C1709 C 0.68454 0.18574 0.14423 0.0
C1710 C 0.70533 0.17937 0.16443 0.0
H1711 H 0.58735 0.05055 0.06061 0.0
H1712 H 0.62344 0.08145 0.08833 0.0
C1713 C 0.72255 0.19679 0.1836 0.0
C1714 C 0.66573 0.16695 0.12488 0.0
H1715 H 0.61657 0.1103 0.12976 0.0
C1716 C 0.6656 0.17159 0.09214 0.0
C1717 C 0.648 0.14459 0.13871 0.0
C1718 C 0.64699 0.13916 0.17379 0.0
C1719 C 0.64817 0.15423 0.07271 0.0
C1720 C 0.63016 0.13201 0.08651 0.0
C1721 C 0.63051 0.12732 0.11931 0.0
C1722 C 0.6099 0.11387 0.06741 0.0
C1723 C 0.64943 0.15964 0.0377 0.0
C1724 C 0.59048 0.12195 0.0464 0.0
C1725 C 0.56988 0.1044 0.0305 0.0
C1726 C 0.56818 0.07837 0.03562 0.0
C1727 C 0.58803 0.07043 0.05621 0.0
C1728 C 0.60867 0.08804 0.07204 0.0
H1729 H 0.66895 0.17293 0.03199 0.0
H1730 H 0.64577 0.1418 0.02737 0.0
H1731 H 0.63397 0.16869 0.0264 0.0
H1732 H 0.59076 0.14171 0.04303 0.0
H1733 H 0.5549 0.11117 0.01489 0.0
H1734 H 0.68259 0.69717 0.74429 0.0
H1735 H 0.64732 0.66373 0.76982 0.0
H1736 H 0.69303 0.67577 0.86035 0.0
H1737 H 0.72836 0.70837 0.83534 0.0
H1738 H 0.672 0.62381 0.84967 0.0
H1739 H 0.59654 0.67609 0.82353 0.0
H1740 H 0.61124 0.67224 0.79114 0.0
H1741 H 0.63116 0.69208 0.81995 0.0
C1742 C 0.68521 0.69249 0.76958 0.0
C1743 C 0.7085 0.70519 0.78769 0.0
C1744 C 0.66496 0.67356 0.78411 0.0
C1745 C 0.66768 0.66735 0.81692 0.0
C1746 C 0.6907 0.6802 0.83496 0.0
H1747 H 0.57549 0.60982 0.96529 0.0
H1748 H 0.60205 0.63304 0.92305 0.0
C1749 C 0.71085 0.69895 0.82055 0.0
C1750 C 0.64675 0.6477 0.83323 0.0
H1751 H 0.58684 0.63793 0.858 0.0
C1752 C 0.65313 0.62655 0.85111 0.0
C1753 C 0.62229 0.65156 0.83499 0.0
C1754 C 0.61477 0.67425 0.81656 0.0
C1755 C 0.63634 0.60989 0.87222 0.0
C1756 C 0.61237 0.61435 0.87498 0.0
C1757 C 0.6053 0.63467 0.85577 0.0
C1758 C 0.59578 0.59989 0.89993 0.0
C1759 C 0.64517 0.58865 0.89277 0.0
C1760 C 0.5835 0.57357 0.90085 0.0
C1761 C 0.56851 0.56016 0.92517 0.0
C1762 C 0.56532 0.57296 0.94874 0.0
C1763 C 0.57753 0.59938 0.94754 0.0
C1764 C 0.59262 0.6127 0.92335 0.0
H1765 H 0.66633 0.59077 0.89171 0.0
H1766 H 0.64231 0.58801 0.91763 0.0
H1767 H 0.63305 0.57013 0.88479 0.0
H1768 H 0.58543 0.56343 0.88272 0.0
H1769 H 0.55922 0.53983 0.92529 0.0
H1770 H 0.35847 0.69631 0.87497 0.0
H1771 H 0.38794 0.6914 0.92211 0.0
H1772 H 0.32158 0.64782 0.97207 0.0
H1773 H 0.2911 0.65441 0.92533 0.0
H1774 H 0.38655 0.67849 0.00625 0.0
H1775 H 0.36322 0.60528 0.92446 0.0
H1776 H 0.36792 0.63796 0.90772 0.0
H1777 H 0.33951 0.62101 0.92783 0.0
C1778 C 0.3496 0.68707 0.89618 0.0
C1779 C 0.32214 0.6746 0.89559 0.0
C1780 C 0.36678 0.68445 0.92346 0.0
C1781 C 0.35693 0.66872 0.9502 0.0
C1782 C 0.32952 0.6599 0.95146 0.0
H1783 H 0.43268 0.55546 0.01896 0.0
H1784 H 0.40049 0.578 0.0169 0.0
C1785 C 0.31216 0.6631 0.92434 0.0
C1786 C 0.37377 0.65419 0.96963 0.0
H1787 H 0.3973 0.60546 0.9649 0.0
C1788 C 0.38866 0.66218 0.99778 0.0
C1789 C 0.37641 0.63304 0.95825 0.0
C1790 C 0.36092 0.62365 0.928 0.0
C1791 C 0.40661 0.6495 0.01471 0.0
C1792 C 0.40982 0.62884 0.00261 0.0
C1793 C 0.39455 0.62094 0.97463 0.0
C1794 C 0.42953 0.61536 0.01675 0.0
C1795 C 0.42194 0.65847 0.04505 0.0
C1796 C 0.45679 0.62856 0.01995 0.0
C1797 C 0.47543 0.61525 0.02319 0.0
C1798 C 0.46682 0.58884 0.02238 0.0
C1799 C 0.43979 0.57564 0.02095 0.0
C1800 C 0.42138 0.58862 0.0194 0.0
H1801 H 0.41045 0.66676 0.05693 0.0
H1802 H 0.42722 0.64279 0.06147 0.0
H1803 H 0.44053 0.67362 0.03977 0.0
H1804 H 0.46361 0.64919 0.01721 0.0
H1805 H 0.49628 0.62578 0.02354 0.0
H1806 H 0.32166 0.3055 0.83871 0.0
H1807 H 0.35132 0.34024 0.86563 0.0
H1808 H 0.37273 0.38387 0.77683 0.0
H1809 H 0.3425 0.34885 0.74913 0.0
H1810 H 0.41629 0.38085 0.82308 0.0
H1811 H 0.34295 0.40974 0.87147 0.0
H1812 H 0.33707 0.37587 0.87857 0.0
H1813 H 0.33416 0.39136 0.8388 0.0
C1814 C 0.33241 0.32245 0.82463 0.0
C1815 C 0.32982 0.32423 0.79165 0.0
C1816 C 0.34926 0.34243 0.84017 0.0
C1817 C 0.36383 0.36475 0.8232 0.0
C1818 C 0.36141 0.36681 0.79027 0.0
H1819 H 0.46099 0.48236 0.94018 0.0
H1820 H 0.4293 0.46177 0.89828 0.0
C1821 C 0.3443 0.34674 0.77454 0.0
C1822 C 0.38281 0.38484 0.84067 0.0
H1823 H 0.38698 0.41881 0.90035 0.0
C1824 C 0.40994 0.38965 0.83949 0.0
C1825 C 0.37444 0.39656 0.8617 0.0
C1826 C 0.34554 0.39333 0.8625 0.0
C1827 C 0.42897 0.40441 0.8605 0.0
C1828 C 0.42048 0.4141 0.88354 0.0
C1829 C 0.39342 0.4109 0.88309 0.0
C1830 C 0.43924 0.42639 0.90929 0.0
C1831 C 0.45793 0.40899 0.85827 0.0
C1832 C 0.45463 0.41295 0.93 0.0
C1833 C 0.47274 0.42461 0.95397 0.0
C1834 C 0.47563 0.44988 0.95781 0.0
C1835 C 0.45935 0.46291 0.93782 0.0
C1836 C 0.44129 0.45123 0.91378 0.0
H1837 H 0.46122 0.40765 0.83415 0.0
H1838 H 0.47011 0.428 0.86481 0.0
H1839 H 0.46492 0.39422 0.8746 0.0
H1840 H 0.45274 0.39346 0.9275 0.0
H1841 H 0.48482 0.41397 0.96908 0.0
H1842 H 0.72164 0.3977 0.79844 0.0
H1843 H 0.70228 0.41428 0.83397 0.0
H1844 H 0.64745 0.33949 0.85467 0.0
H1845 H 0.66732 0.3227 0.81963 0.0
H1846 H 0.65313 0.41636 0.82551 0.0
H1847 H 0.66871 0.36049 0.94157 0.0
H1848 H 0.68608 0.36128 0.90907 0.0
H1849 H 0.65265 0.34076 0.91117 0.0
C1850 C 0.70573 0.38471 0.81097 0.0
C1851 C 0.69592 0.35892 0.80619 0.0
C1852 C 0.6947 0.39419 0.83132 0.0
C1853 C 0.67351 0.37816 0.8473 0.0
C1854 C 0.66418 0.35217 0.84329 0.0
H1855 H 0.55446 0.40717 0.9345 0.0
H1856 H 0.58103 0.38914 0.90997 0.0
C1857 C 0.67545 0.34259 0.82313 0.0
C1858 C 0.65963 0.38927 0.86541 0.0
H1859 H 0.63764 0.384 0.93649 0.0
C1860 C 0.65006 0.40942 0.84989 0.0
C1861 C 0.65551 0.38026 0.89726 0.0
C1862 C 0.6665 0.35968 0.91586 0.0
C1863 C 0.63612 0.42043 0.86502 0.0
C1864 C 0.63157 0.41109 0.89653 0.0
C1865 C 0.64119 0.39107 0.91227 0.0
C1866 C 0.61618 0.4216 0.91302 0.0
C1867 C 0.62581 0.44167 0.84706 0.0
C1868 C 0.62726 0.44579 0.923 0.0
C1869 C 0.61212 0.45622 0.937 0.0
C1870 C 0.58559 0.44266 0.94112 0.0
C1871 C 0.57471 0.41829 0.93135 0.0
C1872 C 0.5899 0.40784 0.91755 0.0
H1873 H 0.62829 0.44472 0.82168 0.0
H1874 H 0.60448 0.43743 0.8494 0.0
H1875 H 0.63666 0.45966 0.85711 0.0
H1876 H 0.64758 0.45664 0.91979 0.0
H1877 H 0.62124 0.47486 0.94463 0.0
H1878 H 0.73901 0.32744 0.12006 0.0
H1879 H 0.70629 0.32716 0.0735 0.0
H1880 H 0.73394 0.40939 0.05818 0.0
H1881 H 0.76663 0.40968 0.10414 0.0
H1882 H 0.66883 0.34512 0.07757 0.0
H1883 H 0.70929 0.39645 0.96939 0.0
H1884 H 0.72904 0.38274 0.00108 0.0
H1885 H 0.72745 0.41468 1.00035 0.0
C1886 C 0.73866 0.3454 0.10602 0.0
C1887 C 0.75498 0.36864 0.11602 0.0
C1888 C 0.72011 0.34519 0.07927 0.0
C1889 C 0.71758 0.36822 0.06213 0.0
C1890 C 0.73579 0.3913 0.07036 0.0
H1891 H 0.64134 0.46256 0.03806 0.0
H1892 H 0.66669 0.43511 0.03162 0.0
C1893 C 0.75442 0.3915 0.09695 0.0
C1894 C 0.69254 0.36897 0.04197 0.0
H1895 H 0.67125 0.40896 0.98263 0.0
C1896 C 0.66898 0.35817 0.05594 0.0
C1897 C 0.69234 0.38534 0.01328 0.0
C1898 C 0.71592 0.39515 0.99507 0.0
C1899 C 0.6469 0.36688 0.0453 0.0
C1900 C 0.64851 0.38668 0.01986 0.0
C1901 C 0.67032 0.39424 0.00267 0.0
C1902 C 0.63248 0.40427 0.01726 0.0
C1903 C 0.62352 0.35727 0.06399 0.0
C1904 C 0.60476 0.39627 0.0107 0.0
C1905 C 0.59006 0.41185 0.01506 0.0
C1906 C 0.60296 0.43572 0.02566 0.0
C1907 C 0.63075 0.44414 0.03042 0.0
C1908 C 0.64532 0.42859 0.02626 0.0
H1909 H 0.62581 0.34221 0.08364 0.0
H1910 H 0.62096 0.37324 0.07393 0.0
H1911 H 0.60518 0.34924 0.04837 0.0
H1912 H 0.5945 0.37768 0.00335 0.0
H1913 H 0.56865 0.40501 0.01076 0.0
H1914 H 0.69027 0.69143 0.24068 0.0
H1915 H 0.66371 0.65327 0.21678 0.0
H1916 H 0.73352 0.64778 0.18534 0.0
H1917 H 0.76028 0.68562 0.20939 0.0
H1918 H 0.69134 0.65043 0.13748 0.0
H1919 H 0.6577 0.57622 0.23694 0.0
H1920 H 0.65365 0.60652 0.23946 0.0
H1921 H 0.6864 0.60384 0.24143 0.0
C1922 C 0.70011 0.68171 0.22949 0.0
C1923 C 0.72735 0.69164 0.22683 0.0
C1924 C 0.68491 0.65988 0.21589 0.0
C1925 C 0.69677 0.64766 0.19957 0.0
C1926 C 0.7241 0.65691 0.198 0.0
H1927 H 0.60438 0.54302 0.06172 0.0
H1928 H 0.64335 0.56567 0.09535 0.0
C1929 C 0.73929 0.67862 0.21165 0.0
C1930 C 0.68015 0.62729 0.18091 0.0
H1931 H 0.63289 0.56945 0.18627 0.0
C1932 C 0.6789 0.63246 0.14805 0.0
C1933 C 0.66416 0.60395 0.19493 0.0
C1934 C 0.66565 0.59712 0.23015 0.0
C1935 C 0.66061 0.61563 0.12868 0.0
C1936 C 0.6436 0.5928 0.1427 0.0
C1937 C 0.646 0.58696 0.17561 0.0
C1938 C 0.62067 0.57682 0.12403 0.0
C1939 C 0.65839 0.62326 0.09351 0.0
C1940 C 0.59516 0.57495 0.12974 0.0
C1941 C 0.57306 0.562 0.11091 0.0
C1942 C 0.57594 0.55064 0.0858 0.0
C1943 C 0.60153 0.5518 0.08066 0.0
C1944 C 0.62377 0.56475 0.09977 0.0
H1945 H 0.67003 0.6434 0.08694 0.0
H1946 H 0.66595 0.61093 0.08244 0.0
H1947 H 0.63738 0.62072 0.0836 0.0
H1948 H 0.59234 0.58416 0.14831 0.0
H1949 H 0.5537 0.56139 0.11578 0.0
H1950 H 0.30685 0.59918 0.22493 0.0
H1951 H 0.32163 0.57619 0.19207 0.0
H1952 H 0.3792 0.64605 0.15953 0.0
H1953 H 0.3643 0.66927 0.19222 0.0
H1954 H 0.35473 0.61264 0.11202 0.0
H1955 H 0.39349 0.56303 0.22281 0.0
H1956 H 0.35876 0.55987 0.21892 0.0
H1957 H 0.38275 0.59061 0.22208 0.0
C1958 C 0.32244 0.60972 0.21046 0.0
C1959 C 0.33473 0.63597 0.21155 0.0
C1960 C 0.33083 0.59655 0.19168 0.0
C1961 C 0.35186 0.6093 0.17384 0.0
C1962 C 0.36298 0.63582 0.1732 0.0
H1963 H 0.47286 0.56234 0.12594 0.0
H1964 H 0.44252 0.57821 0.14596 0.0
C1965 C 0.35445 0.64907 0.19186 0.0
C1966 C 0.36401 0.59466 0.15855 0.0
H1967 H 0.39933 0.55189 0.17554 0.0
C1968 C 0.36429 0.59917 0.1258 0.0
C1969 C 0.37666 0.57725 0.17664 0.0
C1970 C 0.37818 0.57248 0.21207 0.0
C1971 C 0.37735 0.58707 0.11075 0.0
C1972 C 0.39025 0.56988 0.12895 0.0
C1973 C 0.38926 0.56489 0.16156 0.0
C1974 C 0.40795 0.5595 0.11576 0.0
C1975 C 0.37838 0.5937 0.0758 0.0
C1976 C 0.39864 0.54329 0.09218 0.0
C1977 C 0.41619 0.53396 0.08051 0.0
C1978 C 0.44326 0.54072 0.09231 0.0
C1979 C 0.45217 0.55648 0.11635 0.0
C1980 C 0.43481 0.56576 0.1278 0.0
H1981 H 0.37138 0.6105 0.06604 0.0
H1982 H 0.39891 0.59777 0.07044 0.0
H1983 H 0.36566 0.57725 0.06375 0.0
H1984 H 0.37788 0.53783 0.08287 0.0
H1985 H 0.40869 0.52184 0.06202 0.0
H1986 H 0.35401 0.28596 0.20922 0.0
H1987 H 0.39298 0.31693 0.18829 0.0
H1988 H 0.37511 0.3773 0.22152 0.0
H1989 H 0.33612 0.34649 0.24263 0.0
H1990 H 0.3892 0.35685 0.14228 0.0
H1991 H 0.4553 0.39264 0.24785 0.0
H1992 H 0.42832 0.36327 0.24997 0.0
H1993 H 0.42181 0.39336 0.24573 0.0
C1994 C 0.35858 0.30577 0.21252 0.0
C1995 C 0.34202 0.31378 0.22763 0.0
C1996 C 0.38089 0.3234 0.20064 0.0
C1997 C 0.38705 0.34932 0.2037 0.0
C1998 C 0.37102 0.3573 0.21957 0.0
H1999 H 0.47453 0.47283 0.07735 0.0
H2000 H 0.44256 0.44544 0.11218 0.0
C2001 C 0.34871 0.33965 0.23156 0.0
C2002 C 0.40848 0.36821 0.18729 0.0
H2003 H 0.46694 0.4155 0.19807 0.0
C2004 C 0.40626 0.3696 0.15449 0.0
C2005 C 0.43068 0.38472 0.20337 0.0
C2006 C 0.43439 0.38336 0.23871 0.0
C2007 C 0.42557 0.38721 0.13721 0.0
C2008 C 0.44744 0.40415 0.15315 0.0
C2009 C 0.44993 0.40262 0.186 0.0
C2010 C 0.46814 0.42308 0.13576 0.0
C2011 C 0.42257 0.38737 0.10203 0.0
C2012 C 0.49344 0.42017 0.13857 0.0
C2013 C 0.51182 0.43579 0.11871 0.0
C2014 C 0.50507 0.4545 0.09575 0.0
C2015 C 0.48021 0.45832 0.09441 0.0
C2016 C 0.46193 0.44275 0.11431 0.0
H2017 H 0.40781 0.36971 0.0944 0.0
H2018 H 0.41578 0.40384 0.09017 0.0
H2019 H 0.44182 0.38941 0.09401 0.0
H2020 H 0.49853 0.40508 0.15512 0.0
H2021 H 0.53085 0.43246 0.12049 0.0
H2022 H 0.80852 0.6922 0.55383 0.0
H2023 H 0.83599 0.67073 0.53695 0.0
H2024 H 0.85813 0.64422 0.63365 0.0
H2025 H 0.82957 0.66466 0.65072 0.0
H2026 H 0.88755 0.67592 0.54684 0.0
H2027 H 0.83345 0.57823 0.59625 0.0
H2028 H 0.82091 0.60495 0.59384 0.0
H2029 H 0.84572 0.59969 0.62539 0.0
C2030 C 0.81894 0.68156 0.5716 0.0
C2031 C 0.81636 0.67988 0.6037 0.0
C2032 C 0.83487 0.66942 0.56186 0.0
C2033 C 0.84873 0.65528 0.58389 0.0
C2034 C 0.84709 0.65439 0.61605 0.0
H2035 H 0.98046 0.60686 0.55961 0.0
H2036 H 0.95056 0.62898 0.56896 0.0
C2037 C 0.83102 0.66645 0.62584 0.0
C2038 C 0.86497 0.6417 0.57307 0.0
H2039 H 0.87455 0.58336 0.57789 0.0
C2040 C 0.88458 0.65565 0.55355 0.0
C2041 C 0.86081 0.6151 0.58109 0.0
C2042 C 0.8389 0.59855 0.60001 0.0
C2043 C 0.9006 0.64398 0.54278 0.0
C2044 C 0.89737 0.61769 0.55223 0.0
C2045 C 0.87723 0.60355 0.57087 0.0
C2046 C 0.91561 0.60485 0.5445 0.0
C2047 C 0.92073 0.65987 0.52114 0.0
C2048 C 0.90599 0.58367 0.52772 0.0
C2049 C 0.92318 0.57081 0.52229 0.0
C2050 C 0.95025 0.57868 0.53395 0.0
C2051 C 0.95978 0.60015 0.55027 0.0
C2052 C 0.94269 0.613 0.55552 0.0
H2053 H 0.91547 0.67706 0.50874 0.0
H2054 H 0.94037 0.66636 0.53518 0.0
H2055 H 0.92254 0.64866 0.50333 0.0
H2056 H 0.88515 0.57696 0.51904 0.0
H2057 H 0.91515 0.5544 0.50961 0.0
H2058 H 0.3348 0.82031 0.7284 0.0
H2059 H 0.37029 0.85265 0.7022 0.0
H2060 H 0.34042 0.81906 0.61602 0.0
H2061 H 0.30389 0.78776 0.64181 0.0
H2062 H 0.41006 0.85259 0.67613 0.0
H2063 H 0.34301 0.88984 0.583 0.0
H2064 H 0.3307 0.8662 0.61509 0.0
H2065 H 0.33906 0.85697 0.5814 0.0
C2066 C 0.33594 0.81984 0.70388 0.0
C2067 C 0.31688 0.80145 0.6871 0.0
C2068 C 0.3562 0.83833 0.68888 0.0
C2069 C 0.35785 0.83876 0.65684 0.0
C2070 C 0.33918 0.81978 0.64041 0.0
H2071 H 0.4727 0.94155 0.53431 0.0
H2072 H 0.44313 0.9031 0.56076 0.0
C2073 C 0.3185 0.80171 0.6552 0.0
C2074 C 0.37885 0.85927 0.64075 0.0
H2075 H 0.38896 0.90598 0.57774 0.0
C2076 C 0.40536 0.86419 0.6546 0.0
C2077 C 0.37288 0.87469 0.61267 0.0
C2078 C 0.34485 0.87185 0.59736 0.0
C2079 C 0.42586 0.88398 0.64127 0.0
C2080 C 0.41979 0.89914 0.61327 0.0
C2081 C 0.39351 0.89408 0.59909 0.0
C2082 C 0.4401 0.92145 0.59926 0.0
C2083 C 0.4539 0.88878 0.65718 0.0
C2084 C 0.44835 0.94438 0.61236 0.0
C2085 C 0.465 0.96641 0.5972 0.0
C2086 C 0.47389 0.9659 0.56872 0.0
C2087 C 0.46643 0.94258 0.55634 0.0
C2088 C 0.44947 0.92061 0.57134 0.0
H2089 H 0.45594 0.87332 0.67638 0.0
H2090 H 0.46757 0.89062 0.63976 0.0
H2091 H 0.4601 0.90703 0.66729 0.0
H2092 H 0.44114 0.94543 0.63377 0.0
H2093 H 0.47035 0.98402 0.60739 0.0
H2094 H 0.19355 0.26635 0.69544 0.0
H2095 H 0.17038 0.2955 0.66493 0.0
H2096 H 0.24088 0.35871 0.67897 0.0
H2097 H 0.2644 0.3291 0.70945 0.0
H2098 H 0.1562 0.33137 0.68149 0.0
H2099 H 0.22049 0.37883 0.58783 0.0
H2100 H 0.2238 0.35047 0.61303 0.0
H2101 H 0.23774 0.38115 0.6268 0.0
C2102 C 0.20444 0.28642 0.69156 0.0
C2103 C 0.23116 0.29504 0.70477 0.0
C2104 C 0.19096 0.30328 0.6741 0.0
C2105 C 0.20344 0.32976 0.66894 0.0
C2106 C 0.23047 0.33852 0.6816 0.0
H2107 H 0.14472 0.46043 0.5822 0.0
H2108 H 0.17019 0.43181 0.60822 0.0
C2109 C 0.24411 0.32147 0.69919 0.0
C2110 C 0.18746 0.34764 0.65192 0.0
H2111 H 0.18588 0.39583 0.59088 0.0
C2112 C 0.16281 0.34534 0.66158 0.0
C2113 C 0.19548 0.36623 0.62573 0.0
C2114 C 0.22068 0.36926 0.61246 0.0
C2115 C 0.14663 0.36087 0.64662 0.0
C2116 C 0.15458 0.37939 0.62037 0.0
C2117 C 0.17929 0.38182 0.61077 0.0
C2118 C 0.13818 0.3969 0.6034 0.0
C2119 C 0.12138 0.35771 0.65993 0.0
C2120 C 0.11122 0.38748 0.59098 0.0
C2121 C 0.09628 0.40411 0.57582 0.0
C2122 C 0.10772 0.43086 0.5724 0.0
C2123 C 0.13477 0.44012 0.58436 0.0
C2124 C 0.14962 0.42358 0.59934 0.0
H2125 H 0.12175 0.34837 0.68466 0.0
H2126 H 0.11792 0.37639 0.6591 0.0
H2127 H 0.10443 0.3455 0.64581 0.0
H2128 H 0.10163 0.36712 0.5927 0.0
H2129 H 0.07575 0.39595 0.56677 0.0
H2130 H 0.72432 0.2424 0.64564 0.0
H2131 H 0.69403 0.21577 0.60705 0.0
H2132 H 0.70028 0.14812 0.66876 0.0
H2133 H 0.72966 0.17407 0.70712 0.0
H2134 H 0.70389 0.17127 0.58001 0.0
H2135 H 0.61832 0.14413 0.64856 0.0
H2136 H 0.64566 0.17296 0.6523 0.0
H2137 H 0.64917 0.14279 0.67138 0.0
C2138 C 0.71903 0.22186 0.65101 0.0
C2139 C 0.72927 0.21042 0.67965 0.0
C2140 C 0.70196 0.20672 0.62887 0.0
C2141 C 0.69488 0.18003 0.63528 0.0
C2142 C 0.70544 0.16869 0.6635 0.0
H2143 H 0.63112 0.04416 0.54995 0.0
H2144 H 0.65933 0.08385 0.56941 0.0
C2145 C 0.72238 0.18366 0.6854 0.0
C2146 C 0.67593 0.16337 0.61338 0.0
H2147 H 0.61629 0.11711 0.61077 0.0
C2148 C 0.68448 0.15975 0.58624 0.0
C2149 C 0.65062 0.14856 0.62153 0.0
C2150 C 0.64021 0.15238 0.64989 0.0
C2151 C 0.6688 0.14062 0.56791 0.0
C2152 C 0.64428 0.12454 0.57744 0.0
C2153 C 0.63518 0.12925 0.60358 0.0
C2154 C 0.6282 0.10188 0.56192 0.0
C2155 C 0.67877 0.13761 0.53882 0.0
C2156 C 0.6013 0.09869 0.55144 0.0
C2157 C 0.58508 0.07591 0.54086 0.0
C2158 C 0.59539 0.05575 0.5405 0.0
C2159 C 0.62257 0.0593 0.54989 0.0
C2160 C 0.63878 0.0821 0.56074 0.0
H2161 H 0.69275 0.15578 0.52926 0.0
H2162 H 0.68958 0.12316 0.5449 0.0
H2163 H 0.66217 0.13115 0.5202 0.0
H2164 H 0.59267 0.11364 0.55222 0.0
H2165 H 0.56429 0.07398 0.53347 0.0
H2166 H 0.84969 0.29613 0.32711 0.0
H2167 H 0.87711 0.32528 0.36357 0.0
H2168 H 0.81662 0.36259 0.35293 0.0
H2169 H 0.78893 0.3334 0.3165 0.0
H2170 H 0.89501 0.37775 0.34693 0.0
H2171 H 0.83698 0.35343 0.44837 0.0
H2172 H 0.83116 0.33235 0.41902 0.0
H2173 H 0.81839 0.35917 0.41097 0.0
C2174 C 0.84205 0.31031 0.33252 0.0
C2175 C 0.81718 0.31245 0.31844 0.0
C2176 C 0.85772 0.32691 0.3536 0.0
C2177 C 0.84875 0.34587 0.36116 0.0
C2178 C 0.82366 0.34771 0.3479 0.0
H2179 H 0.9179 0.48154 0.4512 0.0
H2180 H 0.88835 0.44468 0.42675 0.0
C2181 C 0.80795 0.33106 0.32687 0.0
C2182 C 0.86665 0.36526 0.38044 0.0
H2183 H 0.87267 0.39221 0.447 0.0
C2184 C 0.8903 0.38075 0.369 0.0
C2185 C 0.86023 0.36918 0.40902 0.0
C2186 C 0.83542 0.35252 0.42277 0.0
C2187 C 0.90749 0.40059 0.38497 0.0
C2188 C 0.90106 0.40462 0.41351 0.0
C2189 C 0.87751 0.38897 0.42514 0.0
C2190 C 0.91826 0.42554 0.431 0.0
C2191 C 0.9319 0.41759 0.37054 0.0
C2192 C 0.94457 0.4265 0.44228 0.0
C2193 C 0.96155 0.44761 0.45589 0.0
C2194 C 0.95236 0.46792 0.45886 0.0
C2195 C 0.92559 0.46624 0.44909 0.0
C2196 C 0.90868 0.44521 0.43518 0.0
H2197 H 0.93038 0.41598 0.34514 0.0
H2198 H 0.93534 0.43786 0.3732 0.0
H2199 H 0.94943 0.4119 0.38266 0.0
H2200 H 0.95211 0.41118 0.43992 0.0
H2201 H 0.98196 0.44814 0.46373 0.0
H2202 H 0.67045 0.80834 0.36591 0.0
H2203 H 0.6507 0.8368 0.38377 0.0
H2204 H 0.71761 0.85709 0.45457 0.0
H2205 H 0.73748 0.82877 0.43688 0.0
H2206 H 0.64085 0.83258 0.45269 0.0
H2207 H 0.70605 0.9268 0.4052 0.0
H2208 H 0.70109 0.89813 0.38801 0.0
H2209 H 0.72123 0.90291 0.42501 0.0
C2210 C 0.68114 0.81914 0.38496 0.0
C2211 C 0.70553 0.8162 0.39998 0.0
C2212 C 0.66976 0.83529 0.39527 0.0
C2213 C 0.68272 0.84914 0.42045 0.0
C2214 C 0.70733 0.84672 0.435 0.0
H2215 H 0.6322 0.96037 0.49868 0.0
H2216 H 0.6587 0.93383 0.49012 0.0
C2217 C 0.71858 0.8304 0.42494 0.0
C2218 C 0.66996 0.86525 0.43235 0.0
H2219 H 0.67254 0.92708 0.43377 0.0
C2220 C 0.64782 0.85324 0.44863 0.0
C2221 C 0.6794 0.8922 0.42766 0.0
C2222 C 0.70318 0.90596 0.41042 0.0
C2223 C 0.63457 0.86742 0.45983 0.0
C2224 C 0.64315 0.89441 0.45377 0.0
C2225 C 0.66588 0.90644 0.4384 0.0
C2226 C 0.6273 0.91016 0.46044 0.0
C2227 C 0.61152 0.85331 0.47822 0.0
C2228 C 0.60098 0.90587 0.44656 0.0
C2229 C 0.58592 0.92082 0.45145 0.0
C2230 C 0.59676 0.94081 0.47014 0.0
C2231 C 0.62319 0.94517 0.48418 0.0
C2232 C 0.63836 0.93003 0.47927 0.0
H2233 H 0.61327 0.83452 0.49007 0.0
H2234 H 0.61007 0.86448 0.49628 0.0
H2235 H 0.59286 0.84976 0.46187 0.0
H2236 H 0.59212 0.89114 0.43135 0.0
H2237 H 0.56572 0.91681 0.44009 0.0
H2238 H 0.24185 0.73195 0.33375 0.0
H2239 H 0.21263 0.70148 0.37011 0.0
H2240 H 0.16236 0.66671 0.29126 0.0
H2241 H 0.19001 0.69859 0.25528 0.0
H2242 H 0.1325 0.67109 0.32611 0.0
H2243 H 0.20578 0.63205 0.40727 0.0
H2244 H 0.21006 0.6648 0.41029 0.0
H2245 H 0.21555 0.65614 0.37479 0.0
C2246 C 0.22475 0.71746 0.32444 0.0
C2247 C 0.21843 0.71717 0.29181 0.0
C2248 C 0.20805 0.69993 0.34522 0.0
C2249 C 0.18527 0.68123 0.33377 0.0
C2250 C 0.17957 0.68083 0.30103 0.0
H2251 H 0.08741 0.53633 0.40082 0.0
H2252 H 0.11666 0.57509 0.37526 0.0
C2253 C 0.19554 0.6989 0.28038 0.0
C2254 C 0.16634 0.66267 0.35489 0.0
H2255 H 0.16112 0.61544 0.41754 0.0
C2256 C 0.13897 0.65902 0.3461 0.0
C2257 C 0.17437 0.6472 0.38182 0.0
C2258 C 0.20302 0.65009 0.39402 0.0
C2259 C 0.11975 0.63958 0.36194 0.0
C2260 C 0.12793 0.62341 0.38748 0.0
C2261 C 0.15503 0.6278 0.39761 0.0
C2262 C 0.1088 0.60042 0.40213 0.0
C2263 C 0.09076 0.63568 0.35061 0.0
C2264 C 0.09436 0.60191 0.42545 0.0
C2265 C 0.0775 0.5797 0.44024 0.0
C2266 C 0.07483 0.55561 0.43192 0.0
C2267 C 0.08887 0.55445 0.40788 0.0
C2268 C 0.1057 0.57659 0.39325 0.0
H2269 H 0.08754 0.64997 0.33038 0.0
H2270 H 0.0816 0.61631 0.34346 0.0
H2271 H 0.08043 0.63695 0.37008 0.0
H2272 H 0.09657 0.62018 0.43263 0.0
H2273 H 0.06718 0.58135 0.45878 0.0
H2274 H 0.276 0.18155 0.31482 0.0
H2275 H 0.30671 0.1602 0.34625 0.0
H2276 H 0.3725 0.22325 0.31555 0.0
H2277 H 0.34137 0.24567 0.28664 0.0
H2278 H 0.33545 0.13913 0.33583 0.0
H2279 H 0.4079 0.21453 0.39893 0.0
H2280 H 0.37776 0.21893 0.37718 0.0
H2281 H 0.40648 0.22433 0.35742 0.0
C2282 C 0.29706 0.19128 0.31561 0.0
C2283 C 0.30596 0.21579 0.29883 0.0
C2284 C 0.31489 0.1788 0.33343 0.0
C2285 C 0.34266 0.18968 0.33425 0.0
C2286 C 0.35159 0.21426 0.31702 0.0
H2287 H 0.43472 0.07816 0.3845 0.0
H2288 H 0.40905 0.10648 0.35796 0.0
C2289 C 0.33361 0.22722 0.30006 0.0
C2290 C 0.36143 0.17435 0.35122 0.0
H2291 H 0.42124 0.17791 0.3971 0.0
C2292 C 0.35401 0.14789 0.34948 0.0
C2293 C 0.38592 0.1848 0.36983 0.0
C2294 C 0.39485 0.21213 0.37627 0.0
C2295 C 0.3696 0.13209 0.36519 0.0
C2296 C 0.39492 0.14281 0.38193 0.0
C2297 C 0.40235 0.16922 0.38402 0.0
C2298 C 0.41353 0.127 0.39752 0.0
C2299 C 0.35773 0.1037 0.36465 0.0
C2300 C 0.42728 0.1299 0.42812 0.0
C2301 C 0.44347 0.11436 0.44286 0.0
C2302 C 0.44614 0.09501 0.42781 0.0
C2303 C 0.43311 0.09264 0.39705 0.0
C2304 C 0.41781 0.1087 0.38195 0.0
H2305 H 0.33573 0.09805 0.36207 0.0
H2306 H 0.36341 0.09826 0.34408 0.0
H2307 H 0.36447 0.09272 0.38645 0.0
H2308 H 0.42497 0.14377 0.44113 0.0
H2309 H 0.45297 0.11679 0.4666 0.0
H2310 H 0.76891 0.83743 0.68809 0.0
H2311 H 0.73888 0.85955 0.65665 0.0
H2312 H 0.67196 0.79758 0.68636 0.0
H2313 H 0.70247 0.77432 0.71597 0.0
H2314 H 0.65551 0.81558 0.63238 0.0
H2315 H 0.70752 0.90266 0.68702 0.0
H2316 H 0.72992 0.89569 0.66629 0.0
H2317 H 0.71656 0.87384 0.69957 0.0
C2318 C 0.74777 0.82824 0.6876 0.0
C2319 C 0.73838 0.80388 0.70464 0.0
C2320 C 0.73037 0.84127 0.66991 0.0
C2321 C 0.70262 0.8313 0.66981 0.0
C2322 C 0.69307 0.80637 0.68595 0.0
H2323 H 0.61289 0.94394 0.61463 0.0
H2324 H 0.63716 0.91461 0.64186 0.0
C2325 C 0.71063 0.79286 0.70297 0.0
C2326 C 0.68407 0.84701 0.65338 0.0
H2327 H 0.67794 0.90756 0.64076 0.0
C2328 C 0.66041 0.83565 0.63459 0.0
C2329 C 0.68935 0.87331 0.65625 0.0
C2330 C 0.71203 0.88697 0.67866 0.0
C2331 C 0.64268 0.84946 0.6187 0.0
C2332 C 0.64894 0.8762 0.61989 0.0
C2333 C 0.67252 0.88738 0.63894 0.0
C2334 C 0.63141 0.89293 0.60302 0.0
C2335 C 0.6169 0.83464 0.60187 0.0
C2336 C 0.61881 0.89112 0.57172 0.0
C2337 C 0.6035 0.90739 0.55653 0.0
C2338 C 0.60111 0.92696 0.57141 0.0
C2339 C 0.61391 0.92905 0.60233 0.0
C2340 C 0.62824 0.91222 0.61792 0.0
H2341 H 0.61099 0.81427 0.61216 0.0
H2342 H 0.60059 0.84256 0.60296 0.0
H2343 H 0.61935 0.83529 0.57688 0.0
H2344 H 0.62134 0.87762 0.55837 0.0
H2345 H 0.59454 0.90537 0.53252 0.0
H2346 H 0.75813 0.22074 0.35153 0.0
H2347 H 0.72158 0.18846 0.37603 0.0
H2348 H 0.67024 0.1923 0.28883 0.0
H2349 H 0.7073 0.22308 0.26376 0.0
H2350 H 0.67471 0.18624 0.38855 0.0
H2351 H 0.66033 0.11813 0.30387 0.0
H2352 H 0.68748 0.14717 0.30415 0.0
H2353 H 0.65512 0.14762 0.28501 0.0
C2354 C 0.73899 0.21473 0.33766 0.0
C2355 C 0.73548 0.2248 0.30587 0.0
C2356 C 0.71804 0.19633 0.35171 0.0
C2357 C 0.69308 0.18753 0.33428 0.0
C2358 C 0.68937 0.19817 0.30271 0.0
H2359 H 0.559 0.08312 0.4349 0.0
H2360 H 0.58733 0.12166 0.40667 0.0
C2361 C 0.71049 0.21615 0.28848 0.0
C2362 C 0.67143 0.16658 0.34894 0.0
H2363 H 0.62917 0.10693 0.34034 0.0
C2364 C 0.66474 0.16888 0.378 0.0
C2365 C 0.6585 0.14373 0.33545 0.0
C2366 C 0.66589 0.13885 0.30559 0.0
C2367 C 0.64602 0.14892 0.39415 0.0
C2368 C 0.63281 0.12625 0.38038 0.0
C2369 C 0.63903 0.12429 0.35093 0.0
C2370 C 0.61467 0.10321 0.39719 0.0
C2371 C 0.6416 0.15193 0.42645 0.0
C2372 C 0.61985 0.07976 0.40048 0.0
C2373 C 0.60339 0.05776 0.41569 0.0
C2374 C 0.58122 0.05842 0.42854 0.0
C2375 C 0.57587 0.08188 0.42533 0.0
C2376 C 0.59226 0.10401 0.40947 0.0
H2377 H 0.65791 0.16742 0.43678 0.0
H2378 H 0.6229 0.15684 0.42472 0.0
H2379 H 0.63991 0.13397 0.44275 0.0
H2380 H 0.63695 0.07844 0.39148 0.0
H2381 H 0.60849 0.04023 0.41788 0.0
H2382 H 0.79185 0.69714 0.29503 0.0
H2383 H 0.81513 0.66764 0.32635 0.0
H2384 H 0.88403 0.73135 0.34495 0.0
H2385 H 0.86082 0.76055 0.31426 0.0
H2386 H 0.85968 0.6575 0.31754 0.0
H2387 H 0.88078 0.69393 0.43224 0.0
H2388 H 0.85803 0.7034 0.40069 0.0
H2389 H 0.89316 0.71847 0.4012 0.0
C2390 C 0.81171 0.7049 0.30648 0.0
C2391 C 0.82406 0.73151 0.3026 0.0
C2392 C 0.82523 0.68792 0.32428 0.0
C2393 C 0.85156 0.6969 0.33892 0.0
C2394 C 0.8637 0.7235 0.33501 0.0
H2395 H 0.97429 0.6262 0.44395 0.0
H2396 H 0.94949 0.65589 0.41723 0.0
C2397 C 0.85031 0.74035 0.31717 0.0
C2398 C 0.86688 0.67872 0.35657 0.0
H2399 H 0.90488 0.66607 0.42602 0.0
C2400 C 0.8693 0.65935 0.34137 0.0
C2401 C 0.88003 0.68081 0.38774 0.0
C2402 C 0.8777 0.7001 0.40656 0.0
C2403 C 0.88456 0.64282 0.35575 0.0
C2404 C 0.89765 0.64483 0.38697 0.0
C2405 C 0.89522 0.66419 0.40221 0.0
C2406 C 0.91318 0.62669 0.40421 0.0
C2407 C 0.88717 0.62384 0.33663 0.0
C2408 C 0.90144 0.60005 0.40697 0.0
C2409 C 0.91565 0.58306 0.42214 0.0
C2410 C 0.94232 0.59177 0.43565 0.0
C2411 C 0.95401 0.61847 0.43371 0.0
C2412 C 0.93967 0.63559 0.41839 0.0
H2413 H 0.88384 0.63006 0.31099 0.0
H2414 H 0.90704 0.62094 0.34217 0.0
H2415 H 0.87199 0.60527 0.34197 0.0
H2416 H 0.88096 0.59219 0.3975 0.0
H2417 H 0.90547 0.56281 0.42329 0.0
H2418 H 0.34734 0.78752 0.33628 0.0
H2419 H 0.37511 0.81942 0.36951 0.0
H2420 H 0.31737 0.86048 0.3471 0.0
H2421 H 0.28931 0.82835 0.31422 0.0
H2422 H 0.39459 0.87271 0.34459 0.0
H2423 H 0.33656 0.85812 0.4444 0.0
H2424 H 0.33176 0.83366 0.4198 0.0
H2425 H 0.31836 0.85973 0.40581 0.0
C2426 C 0.34007 0.80274 0.3392 0.0
C2427 C 0.31591 0.80507 0.32281 0.0
C2428 C 0.35613 0.82118 0.35799 0.0
C2429 C 0.34819 0.84219 0.36105 0.0
C2430 C 0.32372 0.84422 0.3455 0.0
H2431 H 0.41928 0.98332 0.44276 0.0
H2432 H 0.38953 0.94603 0.41923 0.0
C2433 C 0.30777 0.82589 0.32654 0.0
C2434 C 0.36649 0.86315 0.37806 0.0
H2435 H 0.37341 0.89545 0.44039 0.0
C2436 C 0.39011 0.87757 0.3657 0.0
C2437 C 0.36039 0.8696 0.40534 0.0
C2438 C 0.33549 0.8544 0.41986 0.0
C2439 C 0.40758 0.89865 0.37947 0.0
C2440 C 0.40164 0.90506 0.40695 0.0
C2441 C 0.37802 0.89051 0.41941 0.0
C2442 C 0.41949 0.92705 0.42273 0.0
C2443 C 0.43174 0.91435 0.36371 0.0
C2444 C 0.44608 0.92855 0.43326 0.0
C2445 C 0.46321 0.94995 0.44637 0.0
C2446 C 0.454 0.97017 0.44975 0.0
C2447 C 0.42707 0.96816 0.4404 0.0
C2448 C 0.41002 0.94683 0.42696 0.0
H2449 H 0.42937 0.91149 0.33861 0.0
H2450 H 0.43592 0.93498 0.36497 0.0
H2451 H 0.44917 0.90846 0.37578 0.0
H2452 H 0.45369 0.91321 0.43113 0.0
H2453 H 0.4837 0.95065 0.45381 0.0
H2454 H 0.22319 0.36088 0.35929 0.0
H2455 H 0.19668 0.38311 0.37686 0.0
H2456 H 0.19897 0.33841 0.4681 0.0
H2457 H 0.22386 0.31496 0.45016 0.0
H2458 H 0.15159 0.34208 0.45112 0.0
H2459 H 0.22129 0.43909 0.43095 0.0
H2460 H 0.21121 0.42428 0.39562 0.0
H2461 H 0.23004 0.41093 0.42847 0.0
C2462 C 0.21781 0.3555 0.38298 0.0
C2463 C 0.22603 0.33617 0.4033 0.0
C2464 C 0.203 0.36862 0.39322 0.0
C2465 C 0.19637 0.36304 0.42417 0.0
C2466 C 0.20405 0.34339 0.44425 0.0
H2467 H 0.13006 0.46177 0.50351 0.0
H2468 H 0.15953 0.43851 0.49444 0.0
C2469 C 0.21857 0.33011 0.43396 0.0
C2470 C 0.1807 0.37696 0.43543 0.0
H2471 H 0.17767 0.43648 0.44028 0.0
C2472 C 0.15748 0.36273 0.44894 0.0
C2473 C 0.18854 0.40392 0.43342 0.0
C2474 C 0.21428 0.42043 0.42166 0.0
C2475 C 0.14153 0.37462 0.45938 0.0
C2476 C 0.14843 0.40158 0.45539 0.0
C2477 C 0.17213 0.41584 0.44299 0.0
C2478 C 0.13053 0.4152 0.46219 0.0
C2479 C 0.11751 0.35808 0.47484 0.0
C2480 C 0.1045 0.41002 0.44705 0.0
C2481 C 0.08764 0.42305 0.45238 0.0
C2482 C 0.09643 0.44198 0.47266 0.0
C2483 C 0.12258 0.44729 0.48782 0.0
C2484 C 0.13947 0.43404 0.48259 0.0
H2485 H 0.12001 0.33934 0.48576 0.0
H2486 H 0.11351 0.36745 0.49321 0.0
H2487 H 0.09995 0.3544 0.45678 0.0
H2488 H 0.09726 0.39612 0.43059 0.0
H2489 H 0.06776 0.41849 0.44004 0.0
H2490 H 0.37468 0.20222 0.65033 0.0
H2491 H 0.3923 0.17231 0.63207 0.0
H2492 H 0.34353 0.17722 0.54314 0.0
H2493 H 0.32646 0.20748 0.56095 0.0
H2494 H 0.3716 0.12612 0.61228 0.0
H2495 H 0.41449 0.19533 0.51287 0.0
H2496 H 0.40139 0.20451 0.54303 0.0
H2497 H 0.37942 0.18916 0.51134 0.0
C2498 C 0.36755 0.19673 0.627 0.0
C2499 C 0.34941 0.20756 0.60699 0.0
C2500 C 0.3777 0.17967 0.61649 0.0
C2501 C 0.36989 0.17293 0.5858 0.0
C2502 C 0.35069 0.18269 0.56647 0.0
H2503 H 0.4186 0.06268 0.5011 0.0
H2504 H 0.39133 0.08715 0.51349 0.0
C2505 C 0.34078 0.19992 0.57679 0.0
C2506 C 0.38205 0.15607 0.57392 0.0
H2507 H 0.41692 0.1534 0.51592 0.0
C2508 C 0.38135 0.1321 0.59111 0.0
C2509 C 0.39501 0.16374 0.54629 0.0
C2510 C 0.39789 0.18967 0.52746 0.0
C2511 C 0.39325 0.11586 0.5816 0.0
C2512 C 0.40617 0.1236 0.55414 0.0
C2513 C 0.4066 0.14731 0.53667 0.0
C2514 C 0.42217 0.10879 0.54561 0.0
C2515 C 0.39262 0.09071 0.60134 0.0
C2516 C 0.44853 0.11304 0.55916 0.0
C2517 C 0.46406 0.09933 0.55207 0.0
C2518 C 0.4537 0.08079 0.53122 0.0
C2519 C 0.42724 0.07668 0.51731 0.0
C2520 C 0.41164 0.09065 0.52437 0.0
H2521 H 0.37968 0.08624 0.62031 0.0
H2522 H 0.3855 0.07512 0.58628 0.0
H2523 H 0.41302 0.09126 0.61223 0.0
H2524 H 0.45711 0.12698 0.57549 0.0
H2525 H 0.48428 0.10321 0.56334 0.0
H2526 H 0.84539 0.30546 0.73624 0.0
H2527 H 0.87669 0.34123 0.70822 0.0
H2528 H 0.83405 0.31809 0.61964 0.0
H2529 H 0.80185 0.28305 0.64796 0.0
H2530 H 0.91033 0.34248 0.67125 0.0
H2531 H 0.83992 0.39138 0.60227 0.0
H2532 H 0.82947 0.3638 0.6307 0.0
H2533 H 0.83389 0.36009 0.59198 0.0
C2534 C 0.84229 0.30853 0.71078 0.0
C2535 C 0.82056 0.29229 0.6942 0.0
C2536 C 0.86039 0.32877 0.69472 0.0
C2537 C 0.85758 0.33287 0.66166 0.0
C2538 C 0.83627 0.31602 0.64507 0.0
H2539 H 0.9822 0.43877 0.55194 0.0
H2540 H 0.95229 0.39975 0.57689 0.0
C2541 C 0.81791 0.29595 0.66121 0.0
C2542 C 0.87752 0.35431 0.64501 0.0
H2543 H 0.88465 0.40791 0.59119 0.0
C2544 C 0.90463 0.35674 0.65373 0.0
C2545 C 0.87029 0.37298 0.62187 0.0
C2546 C 0.84182 0.3721 0.61132 0.0
C2547 C 0.92449 0.37738 0.64053 0.0
C2548 C 0.91716 0.39609 0.61788 0.0
C2549 C 0.8902 0.3935 0.60864 0.0
C2550 C 0.93705 0.4193 0.60465 0.0
C2551 C 0.95322 0.37952 0.65149 0.0
C2552 C 0.93863 0.44317 0.61225 0.0
C2553 C 0.95575 0.46545 0.59825 0.0
C2554 C 0.97158 0.46442 0.57601 0.0
C2555 C 0.97048 0.44034 0.56908 0.0
C2556 C 0.95337 0.41799 0.58329 0.0
H2557 H 0.95565 0.36523 0.67208 0.0
H2558 H 0.96249 0.37654 0.63206 0.0
H2559 H 0.96408 0.3989 0.65787 0.0
H2560 H 0.9262 0.4446 0.62867 0.0
H2561 H 0.95595 0.48355 0.60423 0.0
H2562 H 0.24925 0.68178 0.69402 0.0
H2563 H 0.2222 0.65323 0.65687 0.0
H2564 H 0.18204 0.70892 0.6153 0.0
H2565 H 0.21065 0.73863 0.65083 0.0
H2566 H 0.171 0.6336 0.65583 0.0
H2567 H 0.19219 0.6855 0.53749 0.0
H2568 H 0.21261 0.69576 0.57306 0.0
H2569 H 0.18166 0.70279 0.56133 0.0
C2570 C 0.23538 0.68843 0.67631 0.0
C2571 C 0.23236 0.71265 0.67524 0.0
C2572 C 0.21974 0.67195 0.65521 0.0
C2573 C 0.20032 0.67904 0.63306 0.0
C2574 C 0.19736 0.70329 0.63163 0.0
H2575 H 0.06287 0.56968 0.55018 0.0
H2576 H 0.09295 0.6088 0.569 0.0
C2577 C 0.21349 0.72009 0.65231 0.0
C2578 C 0.18149 0.65986 0.61411 0.0
H2579 H 0.15609 0.647 0.53923 0.0
C2580 C 0.16788 0.63656 0.63033 0.0
C2581 C 0.17731 0.66385 0.58083 0.0
C2582 C 0.19188 0.68824 0.56211 0.0
C2583 C 0.1505 0.61698 0.61427 0.0
C2584 C 0.14628 0.62097 0.58116 0.0
C2585 C 0.15948 0.64426 0.56471 0.0
C2586 C 0.12854 0.60044 0.56377 0.0
C2587 C 0.137 0.59191 0.63269 0.0
C2588 C 0.13884 0.58331 0.55401 0.0
C2589 C 0.1218 0.5608 0.54355 0.0
C2590 C 0.09423 0.55517 0.54288 0.0
C2591 C 0.08402 0.57325 0.55089 0.0
C2592 C 0.10109 0.59572 0.56133 0.0
H2593 H 0.14351 0.5915 0.65835 0.0
H2594 H 0.11521 0.58841 0.62871 0.0
H2595 H 0.14123 0.57607 0.62438 0.0
H2596 H 0.16007 0.58672 0.55606 0.0
H2597 H 0.13027 0.54742 0.53722 0.0
loop_
_geom_bond_atom_site_label_1
_geom_bond_atom_site_label_2
_geom_bond_distance
_geom_bond_site_symmetry_2
_ccdc_geom_bond_type
Eu0 N31 2.657 . S
Eu0 N38 2.609 . S
Eu0 O44 2.558 . S
Eu0 O45 2.612 . S
Eu0 O47 2.339 . S
Eu0 O48 2.563 . S
Eu0 O49 2.419 . S
Eu0 O51 2.380 . S
Eu0 O52 2.432 . S
Eu0 C64 2.848 . S
C1 C4 1.429 . S
C1 C5 1.411 . S
C1 N8 1.377 . S
C2 C4 1.420 . S
C2 C6 1.423 . S
C2 C14 1.392 . S
C3 C5 1.420 . S
C3 C6 1.351 . S
C3 H26 0.931 . S
C4 C1 1.429 . S
C4 C2 1.420 . S
C4 N12 1.362 . S
C5 C1 1.411 . S
C5 C3 1.420 . S
C5 C10 1.395 . S
C6 C2 1.423 . S
C6 C3 1.351 . S
C6 H18 0.930 . S
C7 C9 1.400 . S
C7 C10 1.386 . S
C7 H19 0.930 . S
N8 C1 1.377 . S
N8 C9 1.321 . S
N8 Eu11 2.609 . S
C9 C7 1.400 . S
C9 N8 1.321 . S
C9 H16 0.930 . S
C10 C5 1.395 . S
C10 C7 1.386 . S
C10 H29 0.930 . S
Eu11 N8 2.609 . S
Eu11 N12 2.657 . S
Eu11 O45 2.380 . S
Eu11 O46 2.432 . S
Eu11 O50 2.558 . S
Eu11 O51 2.612 . S
Eu11 O53 2.339 . S
Eu11 O54 2.563 . S
Eu11 O55 2.419 . S
Eu11 C75 2.848 . S
N12 C4 1.362 . S
N12 Eu11 2.657 . S
N12 C13 1.334 . S
C13 N12 1.334 . S
C13 C15 1.413 . S
C13 H20 0.929 . S
C14 C2 1.392 . S
C14 C15 1.367 . S
C14 H22 0.930 . S
C15 C13 1.413 . S
C15 C14 1.367 . S
C15 H17 0.930 . S
H16 C9 0.930 . S
H17 C15 0.930 . S
H18 C6 0.930 . S
H19 C7 0.930 . S
H20 C13 0.929 . S
H21 C35 0.930 . S
H22 C14 0.930 . S
H23 C41 0.930 . S
H24 C32 0.929 . S
H25 C39 0.930 . S
H26 C3 0.931 . S
H27 C33 0.930 . S
H28 C66 0.930 . S
H29 C10 0.930 . S
H30 C65 0.931 . S
N31 Eu0 2.657 . S
N31 C32 1.334 . S
N31 C36 1.362 . S
C32 H24 0.929 . S
C32 N31 1.334 . S
C32 C35 1.413 . S
C33 H27 0.930 . S
C33 C34 1.392 . S
C33 C35 1.367 . S
C34 C33 1.392 . S
C34 C36 1.420 . S
C34 C66 1.423 . S
C35 H21 0.930 . S
C35 C32 1.413 . S
C35 C33 1.367 . S
C36 N31 1.362 . S
C36 C34 1.420 . S
C36 C40 1.429 . S
H37 C42 0.930 . S
N38 Eu0 2.609 . S
N38 C40 1.377 . S
N38 C41 1.321 . S
C39 H25 0.930 . S
C39 C41 1.400 . S
C39 C42 1.386 . S
C40 C36 1.429 . S
C40 N38 1.377 . S
C40 C43 1.411 . S
C41 H23 0.930 . S
C41 N38 1.321 . S
C41 C39 1.400 . S
C42 H37 0.930 . S
C42 C39 1.386 . S
C42 C43 1.395 . S
C43 C40 1.411 . S
C43 C42 1.395 . S
C43 C65 1.420 . S
O44 Eu0 2.558 . S
O44 C64 1.257 . S
O45 Eu0 2.612 . S
O45 Eu11 2.380 . S
O45 C56 1.276 . S
O46 Eu11 2.432 . S
O46 C63 1.264 . S
O47 Eu0 2.339 . S
O47 C63 1.254 . S
O48 Eu0 2.563 . S
O48 C56 1.235 . S
O49 Eu0 2.419 . S
O49 C64 1.249 . S
O50 Eu11 2.558 . S
O50 C75 1.257 . S
O51 Eu0 2.380 . S
O51 Eu11 2.612 . S
O51 C67 1.276 . S
O52 Eu0 2.432 . S
O52 C74 1.264 . S
O53 Eu11 2.339 . S
O53 C74 1.254 . S
O54 Eu11 2.563 . S
O54 C67 1.235 . S
O55 Eu11 2.419 . S
O55 C75 1.249 . S
C56 O45 1.276 . S
C56 O48 1.235 . S
C57 C59 1.393 . S
C57 C61 1.395 . S
C57 C64 1.492 . S
C58 C59 1.392 . S
C58 C60 1.386 . S
C59 C57 1.393 . S
C59 C58 1.392 . S
C59 H76 0.930 . S
C60 C58 1.386 . S
C60 C62 1.395 . S
C60 H77 0.930 . S
C61 C57 1.395 . S
C61 C62 1.379 . S
C61 H78 0.930 . S
C62 C60 1.395 . S
C62 C61 1.379 . S
C62 H79 0.930 . S
C63 O46 1.264 . S
C63 O47 1.254 . S
C64 Eu0 2.848 . S
C64 O44 1.257 . S
C64 O49 1.249 . S
C64 C57 1.492 . S
C65 H30 0.931 . S
C65 C43 1.420 . S
C65 C66 1.351 . S
C66 H28 0.930 . S
C66 C34 1.423 . S
C66 C65 1.351 . S
C67 O51 1.276 . S
C67 O54 1.235 . S
C68 C69 1.393 . S
C68 C72 1.395 . S
C68 C75 1.492 . S
C69 C68 1.393 . S
C69 C70 1.392 . S
C69 H80 0.930 . S
C70 C69 1.392 . S
C70 C71 1.386 . S
C71 C70 1.386 . S
C71 C73 1.395 . S
C71 H81 0.930 . S
C72 C68 1.395 . S
C72 C73 1.379 . S
C72 H82 0.930 . S
C73 C71 1.395 . S
C73 C72 1.379 . S
C73 H83 0.930 . S
C74 O52 1.264 . S
C74 O53 1.254 . S
C75 Eu11 2.848 . S
C75 O50 1.257 . S
C75 O55 1.249 . S
C75 C68 1.492 . S
H76 C59 0.930 . S
H77 C60 0.930 . S
H78 C61 0.930 . S
H79 C62 0.930 . S
H80 C69 0.930 . S
H81 C71 0.930 . S
H82 C72 0.930 . S
H83 C73 0.930 . S
Eu84 N115 2.657 . S
Eu84 N122 2.609 . S
Eu84 O128 2.558 . S
Eu84 O129 2.612 . S
Eu84 O131 2.339 . S
Eu84 O132 2.563 . S
Eu84 O133 2.419 . S
Eu84 O135 2.380 . S
Eu84 O136 2.432 . S
Eu84 C148 2.848 . S
C85 C88 1.429 . S
C85 C89 1.411 . S
C85 N92 1.377 . S
C86 C88 1.420 . S
C86 C90 1.423 . S
C86 C98 1.392 . S
C87 C89 1.420 . S
C87 C90 1.351 . S
C87 H110 0.931 . S
C88 C85 1.429 . S
C88 C86 1.420 . S
C88 N96 1.362 . S
C89 C85 1.411 . S
C89 C87 1.420 . S
C89 C94 1.395 . S
C90 C86 1.423 . S
C90 C87 1.351 . S
C90 H102 0.930 . S
C91 C93 1.400 . S
C91 C94 1.386 . S
C91 H103 0.930 . S
N92 C85 1.377 . S
N92 C93 1.321 . S
N92 Eu95 2.609 . S
C93 C91 1.400 . S
C93 N92 1.321 . S
C93 H100 0.930 . S
C94 C89 1.395 . S
C94 C91 1.386 . S
C94 H113 0.930 . S
Eu95 N92 2.609 . S
Eu95 N96 2.657 . S
Eu95 O129 2.380 . S
Eu95 O130 2.432 . S
Eu95 O134 2.558 . S
Eu95 O135 2.612 . S
Eu95 O137 2.339 . S
Eu95 O138 2.563 . S
Eu95 O139 2.419 . S
Eu95 C159 2.848 . S
N96 C88 1.362 . S
N96 Eu95 2.657 . S
N96 C97 1.334 . S
C97 N96 1.334 . S
C97 C99 1.413 . S
C97 H104 0.929 . S
C98 C86 1.392 . S
C98 C99 1.367 . S
C98 H106 0.930 . S
C99 C97 1.413 . S
C99 C98 1.367 . S
C99 H101 0.930 . S
H100 C93 0.930 . S
H101 C99 0.930 . S
H102 C90 0.930 . S
H103 C91 0.930 . S
H104 C97 0.929 . S
H105 C119 0.930 . S
H106 C98 0.930 . S
H107 C125 0.930 . S
H108 C116 0.929 . S
H109 C123 0.930 . S
H110 C87 0.931 . S
H111 C117 0.930 . S
H112 C150 0.930 . S
H113 C94 0.930 . S
H114 C149 0.931 . S
N115 Eu84 2.657 . S
N115 C116 1.334 . S
N115 C120 1.362 . S
C116 H108 0.929 . S
C116 N115 1.334 . S
C116 C119 1.413 . S
C117 H111 0.930 . S
C117 C118 1.392 . S
C117 C119 1.367 . S
C118 C117 1.392 . S
C118 C120 1.420 . S
C118 C150 1.423 . S
C119 H105 0.930 . S
C119 C116 1.413 . S
C119 C117 1.367 . S
C120 N115 1.362 . S
C120 C118 1.420 . S
C120 C124 1.429 . S
H121 C126 0.930 . S
N122 Eu84 2.609 . S
N122 C124 1.377 . S
N122 C125 1.321 . S
C123 H109 0.930 . S
C123 C125 1.400 . S
C123 C126 1.386 . S
C124 C120 1.429 . S
C124 N122 1.377 . S
C124 C127 1.411 . S
C125 H107 0.930 . S
C125 N122 1.321 . S
C125 C123 1.400 . S
C126 H121 0.930 . S
C126 C123 1.386 . S
C126 C127 1.395 . S
C127 C124 1.411 . S
C127 C126 1.395 . S
C127 C149 1.420 . S
O128 Eu84 2.558 . S
O128 C148 1.257 . S
O129 Eu84 2.612 . S
O129 Eu95 2.380 . S
O129 C140 1.276 . S
O130 Eu95 2.432 . S
O130 C147 1.264 . S
O131 Eu84 2.339 . S
O131 C147 1.254 . S
O132 Eu84 2.563 . S
O132 C140 1.235 . S
O133 Eu84 2.419 . S
O133 C148 1.249 . S
O134 Eu95 2.558 . S
O134 C159 1.257 . S
O135 Eu84 2.380 . S
O135 Eu95 2.612 . S
O135 C151 1.276 . S
O136 Eu84 2.432 . S
O136 C158 1.264 . S
O137 Eu95 2.339 . S
O137 C158 1.254 . S
O138 Eu95 2.563 . S
O138 C151 1.235 . S
O139 Eu95 2.419 . S
O139 C159 1.249 . S
C140 O129 1.276 . S
C140 O132 1.235 . S
C141 C143 1.393 . S
C141 C145 1.395 . S
C141 C148 1.492 . S
C142 C143 1.392 . S
C142 C144 1.386 . S
C143 C141 1.393 . S
C143 C142 1.392 . S
C143 H160 0.930 . S
C144 C142 1.386 . S
C144 C146 1.395 . S
C144 H161 0.930 . S
C145 C141 1.395 . S
C145 C146 1.379 . S
C145 H162 0.930 . S
C146 C144 1.395 . S
C146 C145 1.379 . S
C146 H163 0.930 . S
C147 O130 1.264 . S
C147 O131 1.254 . S
C148 Eu84 2.848 . S
C148 O128 1.257 . S
C148 O133 1.249 . S
C148 C141 1.492 . S
C149 H114 0.931 . S
C149 C127 1.420 . S
C149 C150 1.351 . S
C150 H112 0.930 . S
C150 C118 1.423 . S
C150 C149 1.351 . S
C151 O135 1.276 . S
C151 O138 1.235 . S
C152 C153 1.393 . S
C152 C156 1.395 . S
C152 C159 1.492 . S
C153 C152 1.393 . S
C153 C154 1.392 . S
C153 H164 0.930 . S
C154 C153 1.392 . S
C154 C155 1.386 . S
C155 C154 1.386 . S
C155 C157 1.395 . S
C155 H165 0.930 . S
C156 C152 1.395 . S
C156 C157 1.379 . S
C156 H166 0.930 . S
C157 C155 1.395 . S
C157 C156 1.379 . S
C157 H167 0.930 . S
C158 O136 1.264 . S
C158 O137 1.254 . S
C159 Eu95 2.848 . S
C159 O134 1.257 . S
C159 O139 1.249 . S
C159 C152 1.492 . S
H160 C143 0.930 . S
H161 C144 0.930 . S
H162 C145 0.930 . S
H163 C146 0.930 . S
H164 C153 0.930 . S
H165 C155 0.930 . S
H166 C156 0.930 . S
H167 C157 0.930 . S
Eu168 N199 2.657 . S
Eu168 N206 2.609 . S
Eu168 O212 2.558 . S
Eu168 O213 2.612 . S
Eu168 O215 2.339 . S
Eu168 O216 2.563 . S
Eu168 O217 2.419 . S
Eu168 O219 2.380 . S
Eu168 O220 2.432 . S
Eu168 C232 2.848 . S
C169 C172 1.429 . S
C169 C173 1.411 . S
C169 N176 1.377 . S
C170 C172 1.420 . S
C170 C174 1.423 . S
C170 C182 1.392 . S
C171 C173 1.420 . S
C171 C174 1.351 . S
C171 H194 0.931 . S
C172 C169 1.429 . S
C172 C170 1.420 . S
C172 N180 1.362 . S
C173 C169 1.411 . S
C173 C171 1.420 . S
C173 C178 1.395 . S
C174 C170 1.423 . S
C174 C171 1.351 . S
C174 H186 0.930 . S
C175 C177 1.400 . S
C175 C178 1.386 . S
C175 H187 0.930 . S
N176 C169 1.377 . S
N176 C177 1.321 . S
N176 Eu179 2.609 . S
C177 C175 1.400 . S
C177 N176 1.321 . S
C177 H184 0.930 . S
C178 C173 1.395 . S
C178 C175 1.386 . S
C178 H197 0.930 . S
Eu179 N176 2.609 . S
Eu179 N180 2.657 . S
Eu179 O213 2.380 . S
Eu179 O214 2.432 . S
Eu179 O218 2.558 . S
Eu179 O219 2.612 . S
Eu179 O221 2.339 . S
Eu179 O222 2.563 . S
Eu179 O223 2.419 . S
Eu179 C243 2.848 . S
N180 C172 1.362 . S
N180 Eu179 2.657 . S
N180 C181 1.334 . S
C181 N180 1.334 . S
C181 C183 1.413 . S
C181 H188 0.929 . S
C182 C170 1.392 . S
C182 C183 1.367 . S
C182 H190 0.930 . S
C183 C181 1.413 . S
C183 C182 1.367 . S
C183 H185 0.930 . S
H184 C177 0.930 . S
H185 C183 0.930 . S
H186 C174 0.930 . S
H187 C175 0.930 . S
H188 C181 0.929 . S
H189 C203 0.930 . S
H190 C182 0.930 . S
H191 C209 0.930 . S
H192 C200 0.929 . S
H193 C207 0.930 . S
H194 C171 0.931 . S
H195 C201 0.930 . S
H196 C234 0.930 . S
H197 C178 0.930 . S
H198 C233 0.931 . S
N199 Eu168 2.657 . S
N199 C200 1.334 . S
N199 C204 1.362 . S
C200 H192 0.929 . S
C200 N199 1.334 . S
C200 C203 1.413 . S
C201 H195 0.930 . S
C201 C202 1.392 . S
C201 C203 1.367 . S
C202 C201 1.392 . S
C202 C204 1.420 . S
C202 C234 1.423 . S
C203 H189 0.930 . S
C203 C200 1.413 . S
C203 C201 1.367 . S
C204 N199 1.362 . S
C204 C202 1.420 . S
C204 C208 1.429 . S
H205 C210 0.930 . S
N206 Eu168 2.609 . S
N206 C208 1.377 . S
N206 C209 1.321 . S
C207 H193 0.930 . S
C207 C209 1.400 . S
C207 C210 1.386 . S
C208 C204 1.429 . S
C208 N206 1.377 . S
C208 C211 1.411 . S
C209 H191 0.930 . S
C209 N206 1.321 . S
C209 C207 1.400 . S
C210 H205 0.930 . S
C210 C207 1.386 . S
C210 C211 1.395 . S
C211 C208 1.411 . S
C211 C210 1.395 . S
C211 C233 1.420 . S
O212 Eu168 2.558 . S
O212 C232 1.257 . S
O213 Eu168 2.612 . S
O213 Eu179 2.380 . S
O213 C224 1.276 . S
O214 Eu179 2.432 . S
O214 C231 1.264 . S
O215 Eu168 2.339 . S
O215 C231 1.254 . S
O216 Eu168 2.563 . S
O216 C224 1.235 . S
O217 Eu168 2.419 . S
O217 C232 1.249 . S
O218 Eu179 2.558 . S
O218 C243 1.257 . S
O219 Eu168 2.380 . S
O219 Eu179 2.612 . S
O219 C235 1.276 . S
O220 Eu168 2.432 . S
O220 C242 1.264 . S
O221 Eu179 2.339 . S
O221 C242 1.254 . S
O222 Eu179 2.563 . S
O222 C235 1.235 . S
O223 Eu179 2.419 . S
O223 C243 1.249 . S
C224 O213 1.276 . S
C224 O216 1.235 . S
C225 C227 1.393 . S
C225 C229 1.395 . S
C225 C232 1.492 . S
C226 C227 1.392 . S
C226 C228 1.386 . S
C227 C225 1.393 . S
C227 C226 1.392 . S
C227 H244 0.930 . S
C228 C226 1.386 . S
C228 C230 1.395 . S
C228 H245 0.930 . S
C229 C225 1.395 . S
C229 C230 1.379 . S
C229 H246 0.930 . S
C230 C228 1.395 . S
C230 C229 1.379 . S
C230 H247 0.930 . S
C231 O214 1.264 . S
C231 O215 1.254 . S
C232 Eu168 2.848 . S
C232 O212 1.257 . S
C232 O217 1.249 . S
C232 C225 1.492 . S
C233 H198 0.931 . S
C233 C211 1.420 . S
C233 C234 1.351 . S
C234 H196 0.930 . S
C234 C202 1.423 . S
C234 C233 1.351 . S
C235 O219 1.276 . S
C235 O222 1.235 . S
C236 C237 1.393 . S
C236 C240 1.395 . S
C236 C243 1.492 . S
C237 C236 1.393 . S
C237 C238 1.392 . S
C237 H248 0.930 . S
C238 C237 1.392 . S
C238 C239 1.386 . S
C239 C238 1.386 . S
C239 C241 1.395 . S
C239 H249 0.930 . S
C240 C236 1.395 . S
C240 C241 1.379 . S
C240 H250 0.930 . S
C241 C239 1.395 . S
C241 C240 1.379 . S
C241 H251 0.930 . S
C242 O220 1.264 . S
C242 O221 1.254 . S
C243 Eu179 2.848 . S
C243 O218 1.257 . S
C243 O223 1.249 . S
C243 C236 1.492 . S
H244 C227 0.930 . S
H245 C228 0.930 . S
H246 C229 0.930 . S
H247 C230 0.930 . S
H248 C237 0.930 . S
H249 C239 0.930 . S
H250 C240 0.930 . S
H251 C241 0.930 . S
Eu252 N283 2.657 . S
Eu252 N290 2.609 . S
Eu252 O296 2.558 . S
Eu252 O297 2.612 . S
Eu252 O299 2.339 . S
Eu252 O300 2.563 . S
Eu252 O301 2.419 . S
Eu252 O303 2.380 . S
Eu252 O304 2.432 . S
Eu252 C316 2.848 . S
C253 C256 1.429 . S
C253 C257 1.411 . S
C253 N260 1.377 . S
C254 C256 1.420 . S
C254 C258 1.423 . S
C254 C266 1.392 . S
C255 C257 1.420 . S
C255 C258 1.351 . S
C255 H278 0.931 . S
C256 C253 1.429 . S
C256 C254 1.420 . S
C256 N264 1.362 . S
C257 C253 1.411 . S
C257 C255 1.420 . S
C257 C262 1.395 . S
C258 C254 1.423 . S
C258 C255 1.351 . S
C258 H270 0.930 . S
C259 C261 1.400 . S
C259 C262 1.386 . S
C259 H271 0.930 . S
N260 C253 1.377 . S
N260 C261 1.321 . S
N260 Eu263 2.609 . S
C261 C259 1.400 . S
C261 N260 1.321 . S
C261 H268 0.930 . S
C262 C257 1.395 . S
C262 C259 1.386 . S
C262 H281 0.930 . S
Eu263 N260 2.609 . S
Eu263 N264 2.657 . S
Eu263 O297 2.380 . S
Eu263 O298 2.432 . S
Eu263 O302 2.558 . S
Eu263 O303 2.612 . S
Eu263 O305 2.339 . S
Eu263 O306 2.563 . S
Eu263 O307 2.419 . S
Eu263 C327 2.848 . S
N264 C256 1.362 . S
N264 Eu263 2.657 . S
N264 C265 1.334 . S
C265 N264 1.334 . S
C265 C267 1.413 . S
C265 H272 0.929 . S
C266 C254 1.392 . S
C266 C267 1.367 . S
C266 H274 0.930 . S
C267 C265 1.413 . S
C267 C266 1.367 . S
C267 H269 0.930 . S
H268 C261 0.930 . S
H269 C267 0.930 . S
H270 C258 0.930 . S
H271 C259 0.930 . S
H272 C265 0.929 . S
H273 C287 0.930 . S
H274 C266 0.930 . S
H275 C293 0.930 . S
H276 C284 0.929 . S
H277 C291 0.930 . S
H278 C255 0.931 . S
H279 C285 0.930 . S
H280 C318 0.930 . S
H281 C262 0.930 . S
H282 C317 0.931 . S
N283 Eu252 2.657 . S
N283 C284 1.334 . S
N283 C288 1.362 . S
C284 H276 0.929 . S
C284 N283 1.334 . S
C284 C287 1.413 . S
C285 H279 0.930 . S
C285 C286 1.392 . S
C285 C287 1.367 . S
C286 C285 1.392 . S
C286 C288 1.420 . S
C286 C318 1.423 . S
C287 H273 0.930 . S
C287 C284 1.413 . S
C287 C285 1.367 . S
C288 N283 1.362 . S
C288 C286 1.420 . S
C288 C292 1.429 . S
H289 C294 0.930 . S
N290 Eu252 2.609 . S
N290 C292 1.377 . S
N290 C293 1.321 . S
C291 H277 0.930 . S
C291 C293 1.400 . S
C291 C294 1.386 . S
C292 C288 1.429 . S
C292 N290 1.377 . S
C292 C295 1.411 . S
C293 H275 0.930 . S
C293 N290 1.321 . S
C293 C291 1.400 . S
C294 H289 0.930 . S
C294 C291 1.386 . S
C294 C295 1.395 . S
C295 C292 1.411 . S
C295 C294 1.395 . S
C295 C317 1.420 . S
O296 Eu252 2.558 . S
O296 C316 1.257 . S
O297 Eu252 2.612 . S
O297 Eu263 2.380 . S
O297 C308 1.276 . S
O298 Eu263 2.432 . S
O298 C315 1.264 . S
O299 Eu252 2.339 . S
O299 C315 1.254 . S
O300 Eu252 2.563 . S
O300 C308 1.235 . S
O301 Eu252 2.419 . S
O301 C316 1.249 . S
O302 Eu263 2.558 . S
O302 C327 1.257 . S
O303 Eu252 2.380 . S
O303 Eu263 2.612 . S
O303 C319 1.276 . S
O304 Eu252 2.432 . S
O304 C326 1.264 . S
O305 Eu263 2.339 . S
O305 C326 1.254 . S
O306 Eu263 2.563 . S
O306 C319 1.235 . S
O307 Eu263 2.419 . S
O307 C327 1.249 . S
C308 O297 1.276 . S
C308 O300 1.235 . S
C309 C311 1.393 . S
C309 C313 1.395 . S
C309 C316 1.492 . S
C310 C311 1.392 . S
C310 C312 1.386 . S
C311 C309 1.393 . S
C311 C310 1.392 . S
C311 H328 0.930 . S
C312 C310 1.386 . S
C312 C314 1.395 . S
C312 H329 0.930 . S
C313 C309 1.395 . S
C313 C314 1.379 . S
C313 H330 0.930 . S
C314 C312 1.395 . S
C314 C313 1.379 . S
C314 H331 0.930 . S
C315 O298 1.264 . S
C315 O299 1.254 . S
C316 Eu252 2.848 . S
C316 O296 1.257 . S
C316 O301 1.249 . S
C316 C309 1.492 . S
C317 H282 0.931 . S
C317 C295 1.420 . S
C317 C318 1.351 . S
C318 H280 0.930 . S
C318 C286 1.423 . S
C318 C317 1.351 . S
C319 O303 1.276 . S
C319 O306 1.235 . S
C320 C321 1.393 . S
C320 C324 1.395 . S
C320 C327 1.492 . S
C321 C320 1.393 . S
C321 C322 1.392 . S
C321 H332 0.930 . S
C322 C321 1.392 . S
C322 C323 1.386 . S
C323 C322 1.386 . S
C323 C325 1.395 . S
C323 H333 0.930 . S
C324 C320 1.395 . S
C324 C325 1.379 . S
C324 H334 0.930 . S
C325 C323 1.395 . S
C325 C324 1.379 . S
C325 H335 0.930 . S
C326 O304 1.264 . S
C326 O305 1.254 . S
C327 Eu263 2.848 . S
C327 O302 1.257 . S
C327 O307 1.249 . S
C327 C320 1.492 . S
H328 C311 0.930 . S
H329 C312 0.930 . S
H330 C313 0.930 . S
H331 C314 0.930 . S
H332 C321 0.930 . S
H333 C323 0.930 . S
H334 C324 0.930 . S
H335 C325 0.930 . S
Eu336 N367 2.657 . S
Eu336 N374 2.609 . S
Eu336 O380 2.558 . S
Eu336 O381 2.612 . S
Eu336 O383 2.339 . S
Eu336 O384 2.563 . S
Eu336 O385 2.419 . S
Eu336 O387 2.380 . S
Eu336 O388 2.432 . S
Eu336 C400 2.848 . S
C337 C340 1.429 . S
C337 C341 1.411 . S
C337 N344 1.377 . S
C338 C340 1.420 . S
C338 C342 1.423 . S
C338 C350 1.392 . S
C339 C341 1.420 . S
C339 C342 1.351 . S
C339 H362 0.931 . S
C340 C337 1.429 . S
C340 C338 1.420 . S
C340 N348 1.362 . S
C341 C337 1.411 . S
C341 C339 1.420 . S
C341 C346 1.395 . S
C342 C338 1.423 . S
C342 C339 1.351 . S
C342 H354 0.930 . S
C343 C345 1.400 . S
C343 C346 1.386 . S
C343 H355 0.930 . S
N344 C337 1.377 . S
N344 C345 1.321 . S
N344 Eu347 2.609 . S
C345 C343 1.400 . S
C345 N344 1.321 . S
C345 H352 0.930 . S
C346 C341 1.395 . S
C346 C343 1.386 . S
C346 H365 0.930 . S
Eu347 N344 2.609 . S
Eu347 N348 2.657 . S
Eu347 O381 2.380 . S
Eu347 O382 2.432 . S
Eu347 O386 2.558 . S
Eu347 O387 2.612 . S
Eu347 O389 2.339 . S
Eu347 O390 2.563 . S
Eu347 O391 2.419 . S
Eu347 C411 2.848 . S
N348 C340 1.362 . S
N348 Eu347 2.657 . S
N348 C349 1.334 . S
C349 N348 1.334 . S
C349 C351 1.413 . S
C349 H356 0.929 . S
C350 C338 1.392 . S
C350 C351 1.367 . S
C350 H358 0.930 . S
C351 C349 1.413 . S
C351 C350 1.367 . S
C351 H353 0.930 . S
H352 C345 0.930 . S
H353 C351 0.930 . S
H354 C342 0.930 . S
H355 C343 0.930 . S
H356 C349 0.929 . S
H357 C371 0.930 . S
H358 C350 0.930 . S
H359 C377 0.930 . S
H360 C368 0.929 . S
H361 C375 0.930 . S
H362 C339 0.931 . S
H363 C369 0.930 . S
H364 C402 0.930 . S
H365 C346 0.930 . S
H366 C401 0.931 . S
N367 Eu336 2.657 . S
N367 C368 1.334 . S
N367 C372 1.362 . S
C368 H360 0.929 . S
C368 N367 1.334 . S
C368 C371 1.413 . S
C369 H363 0.930 . S
C369 C370 1.392 . S
C369 C371 1.367 . S
C370 C369 1.392 . S
C370 C372 1.420 . S
C370 C402 1.423 . S
C371 H357 0.930 . S
C371 C368 1.413 . S
C371 C369 1.367 . S
C372 N367 1.362 . S
C372 C370 1.420 . S
C372 C376 1.429 . S
H373 C378 0.930 . S
N374 Eu336 2.609 . S
N374 C376 1.377 . S
N374 C377 1.321 . S
C375 H361 0.930 . S
C375 C377 1.400 . S
C375 C378 1.386 . S
C376 C372 1.429 . S
C376 N374 1.377 . S
C376 C379 1.411 . S
C377 H359 0.930 . S
C377 N374 1.321 . S
C377 C375 1.400 . S
C378 H373 0.930 . S
C378 C375 1.386 . S
C378 C379 1.395 . S
C379 C376 1.411 . S
C379 C378 1.395 . S
C379 C401 1.420 . S
O380 Eu336 2.558 . S
O380 C400 1.257 . S
O381 Eu336 2.612 . S
O381 Eu347 2.380 . S
O381 C392 1.276 . S
O382 Eu347 2.432 . S
O382 C399 1.264 . S
O383 Eu336 2.339 . S
O383 C399 1.254 . S
O384 Eu336 2.563 . S
O384 C392 1.235 . S
O385 Eu336 2.419 . S
O385 C400 1.249 . S
O386 Eu347 2.558 . S
O386 C411 1.257 . S
O387 Eu336 2.380 . S
O387 Eu347 2.612 . S
O387 C403 1.276 . S
O388 Eu336 2.432 . S
O388 C410 1.264 . S
O389 Eu347 2.339 . S
O389 C410 1.254 . S
O390 Eu347 2.563 . S
O390 C403 1.235 . S
O391 Eu347 2.419 . S
O391 C411 1.249 . S
C392 O381 1.276 . S
C392 O384 1.235 . S
C393 C395 1.393 . S
C393 C397 1.395 . S
C393 C400 1.492 . S
C394 C395 1.392 . S
C394 C396 1.386 . S
C395 C393 1.393 . S
C395 C394 1.392 . S
C395 H412 0.930 . S
C396 C394 1.386 . S
C396 C398 1.395 . S
C396 H413 0.930 . S
C397 C393 1.395 . S
C397 C398 1.379 . S
C397 H414 0.930 . S
C398 C396 1.395 . S
C398 C397 1.379 . S
C398 H415 0.930 . S
C399 O382 1.264 . S
C399 O383 1.254 . S
C400 Eu336 2.848 . S
C400 O380 1.257 . S
C400 O385 1.249 . S
C400 C393 1.492 . S
C401 H366 0.931 . S
C401 C379 1.420 . S
C401 C402 1.351 . S
C402 H364 0.930 . S
C402 C370 1.423 . S
C402 C401 1.351 . S
C403 O387 1.276 . S
C403 O390 1.235 . S
C404 C405 1.393 . S
C404 C408 1.395 . S
C404 C411 1.492 . S
C405 C404 1.393 . S
C405 C406 1.392 . S
C405 H416 0.930 . S
C406 C405 1.392 . S
C406 C407 1.386 . S
C407 C406 1.386 . S
C407 C409 1.395 . S
C407 H417 0.930 . S
C408 C404 1.395 . S
C408 C409 1.379 . S
C408 H418 0.930 . S
C409 C407 1.395 . S
C409 C408 1.379 . S
C409 H419 0.930 . S
C410 O388 1.264 . S
C410 O389 1.254 . S
C411 Eu347 2.848 . S
C411 O386 1.257 . S
C411 O391 1.249 . S
C411 C404 1.492 . S
H412 C395 0.930 . S
H413 C396 0.930 . S
H414 C397 0.930 . S
H415 C398 0.930 . S
H416 C405 0.930 . S
H417 C407 0.930 . S
H418 C408 0.930 . S
H419 C409 0.930 . S
Eu420 N451 2.657 . S
Eu420 N458 2.609 . S
Eu420 O464 2.558 . S
Eu420 O465 2.612 . S
Eu420 O467 2.339 . S
Eu420 O468 2.563 . S
Eu420 O469 2.419 . S
Eu420 O471 2.380 . S
Eu420 O472 2.432 . S
Eu420 C484 2.848 . S
C421 C424 1.429 . S
C421 C425 1.411 . S
C421 N428 1.377 . S
C422 C424 1.420 . S
C422 C426 1.423 . S
C422 C434 1.392 . S
C423 C425 1.420 . S
C423 C426 1.351 . S
C423 H446 0.931 . S
C424 C421 1.429 . S
C424 C422 1.420 . S
C424 N432 1.362 . S
C425 C421 1.411 . S
C425 C423 1.420 . S
C425 C430 1.395 . S
C426 C422 1.423 . S
C426 C423 1.351 . S
C426 H438 0.930 . S
C427 C429 1.400 . S
C427 C430 1.386 . S
C427 H439 0.930 . S
N428 C421 1.377 . S
N428 C429 1.321 . S
N428 Eu431 2.609 . S
C429 C427 1.400 . S
C429 N428 1.321 . S
C429 H436 0.930 . S
C430 C425 1.395 . S
C430 C427 1.386 . S
C430 H449 0.930 . S
Eu431 N428 2.609 . S
Eu431 N432 2.657 . S
Eu431 O465 2.380 . S
Eu431 O466 2.432 . S
Eu431 O470 2.558 . S
Eu431 O471 2.612 . S
Eu431 O473 2.339 . S
Eu431 O474 2.563 . S
Eu431 O475 2.419 . S
Eu431 C495 2.848 . S
N432 C424 1.362 . S
N432 Eu431 2.657 . S
N432 C433 1.334 . S
C433 N432 1.334 . S
C433 C435 1.413 . S
C433 H440 0.929 . S
C434 C422 1.392 . S
C434 C435 1.367 . S
C434 H442 0.930 . S
C435 C433 1.413 . S
C435 C434 1.367 . S
C435 H437 0.930 . S
H436 C429 0.930 . S
H437 C435 0.930 . S
H438 C426 0.930 . S
H439 C427 0.930 . S
H440 C433 0.929 . S
H441 C455 0.930 . S
H442 C434 0.930 . S
H443 C461 0.930 . S
H444 C452 0.929 . S
H445 C459 0.930 . S
H446 C423 0.931 . S
H447 C453 0.930 . S
H448 C486 0.930 . S
H449 C430 0.930 . S
H450 C485 0.931 . S
N451 Eu420 2.657 . S
N451 C452 1.334 . S
N451 C456 1.362 . S
C452 H444 0.929 . S
C452 N451 1.334 . S
C452 C455 1.413 . S
C453 H447 0.930 . S
C453 C454 1.392 . S
C453 C455 1.367 . S
C454 C453 1.392 . S
C454 C456 1.420 . S
C454 C486 1.423 . S
C455 H441 0.930 . S
C455 C452 1.413 . S
C455 C453 1.367 . S
C456 N451 1.362 . S
C456 C454 1.420 . S
C456 C460 1.429 . S
H457 C462 0.930 . S
N458 Eu420 2.609 . S
N458 C460 1.377 . S
N458 C461 1.321 . S
C459 H445 0.930 . S
C459 C461 1.400 . S
C459 C462 1.386 . S
C460 C456 1.429 . S
C460 N458 1.377 . S
C460 C463 1.411 . S
C461 H443 0.930 . S
C461 N458 1.321 . S
C461 C459 1.400 . S
C462 H457 0.930 . S
C462 C459 1.386 . S
C462 C463 1.395 . S
C463 C460 1.411 . S
C463 C462 1.395 . S
C463 C485 1.420 . S
O464 Eu420 2.558 . S
O464 C484 1.257 . S
O465 Eu420 2.612 . S
O465 Eu431 2.380 . S
O465 C476 1.276 . S
O466 Eu431 2.432 . S
O466 C483 1.264 . S
O467 Eu420 2.339 . S
O467 C483 1.254 . S
O468 Eu420 2.563 . S
O468 C476 1.235 . S
O469 Eu420 2.419 . S
O469 C484 1.249 . S
O470 Eu431 2.558 . S
O470 C495 1.257 . S
O471 Eu420 2.380 . S
O471 Eu431 2.612 . S
O471 C487 1.276 . S
O472 Eu420 2.432 . S
O472 C494 1.264 . S
O473 Eu431 2.339 . S
O473 C494 1.254 . S
O474 Eu431 2.563 . S
O474 C487 1.235 . S
O475 Eu431 2.419 . S
O475 C495 1.249 . S
C476 O465 1.276 . S
C476 O468 1.235 . S
C477 C479 1.393 . S
C477 C481 1.395 . S
C477 C484 1.492 . S
C478 C479 1.392 . S
C478 C480 1.386 . S
C479 C477 1.393 . S
C479 C478 1.392 . S
C479 H496 0.930 . S
C480 C478 1.386 . S
C480 C482 1.395 . S
C480 H497 0.930 . S
C481 C477 1.395 . S
C481 C482 1.379 . S
C481 H498 0.930 . S
C482 C480 1.395 . S
C482 C481 1.379 . S
C482 H499 0.930 . S
C483 O466 1.264 . S
C483 O467 1.254 . S
C484 Eu420 2.848 . S
C484 O464 1.257 . S
C484 O469 1.249 . S
C484 C477 1.492 . S
C485 H450 0.931 . S
C485 C463 1.420 . S
C485 C486 1.351 . S
C486 H448 0.930 . S
C486 C454 1.423 . S
C486 C485 1.351 . S
C487 O471 1.276 . S
C487 O474 1.235 . S
C488 C489 1.393 . S
C488 C492 1.395 . S
C488 C495 1.492 . S
C489 C488 1.393 . S
C489 C490 1.392 . S
C489 H500 0.930 . S
C490 C489 1.392 . S
C490 C491 1.386 . S
C491 C490 1.386 . S
C491 C493 1.395 . S
C491 H501 0.930 . S
C492 C488 1.395 . S
C492 C493 1.379 . S
C492 H502 0.930 . S
C493 C491 1.395 . S
C493 C492 1.379 . S
C493 H503 0.930 . S
C494 O472 1.264 . S
C494 O473 1.254 . S
C495 Eu431 2.848 . S
C495 O470 1.257 . S
C495 O475 1.249 . S
C495 C488 1.492 . S
H496 C479 0.930 . S
H497 C480 0.930 . S
H498 C481 0.930 . S
H499 C482 0.930 . S
H500 C489 0.930 . S
H501 C491 0.930 . S
H502 C492 0.930 . S
H503 C493 0.930 . S
Eu504 N535 2.657 . S
Eu504 N542 2.609 . S
Eu504 O548 2.558 . S
Eu504 O549 2.612 . S
Eu504 O551 2.339 . S
Eu504 O552 2.563 . S
Eu504 O553 2.419 . S
Eu504 O555 2.380 . S
Eu504 O556 2.432 . S
Eu504 C568 2.848 . S
C505 C508 1.429 . S
C505 C509 1.411 . S
C505 N512 1.377 . S
C506 C508 1.420 . S
C506 C510 1.423 . S
C506 C518 1.392 . S
C507 C509 1.420 . S
C507 C510 1.351 . S
C507 H530 0.931 . S
C508 C505 1.429 . S
C508 C506 1.420 . S
C508 N516 1.362 . S
C509 C505 1.411 . S
C509 C507 1.420 . S
C509 C514 1.395 . S
C510 C506 1.423 . S
C510 C507 1.351 . S
C510 H522 0.930 . S
C511 C513 1.400 . S
C511 C514 1.386 . S
C511 H523 0.930 . S
N512 C505 1.377 . S
N512 C513 1.321 . S
N512 Eu515 2.609 . S
C513 C511 1.400 . S
C513 N512 1.321 . S
C513 H520 0.930 . S
C514 C509 1.395 . S
C514 C511 1.386 . S
C514 H533 0.930 . S
Eu515 N512 2.609 . S
Eu515 N516 2.657 . S
Eu515 O549 2.380 . S
Eu515 O550 2.432 . S
Eu515 O554 2.558 . S
Eu515 O555 2.612 . S
Eu515 O557 2.339 . S
Eu515 O558 2.563 . S
Eu515 O559 2.419 . S
Eu515 C579 2.848 . S
N516 C508 1.362 . S
N516 Eu515 2.657 . S
N516 C517 1.334 . S
C517 N516 1.334 . S
C517 C519 1.413 . S
C517 H524 0.929 . S
C518 C506 1.392 . S
C518 C519 1.367 . S
C518 H526 0.930 . S
C519 C517 1.413 . S
C519 C518 1.367 . S
C519 H521 0.930 . S
H520 C513 0.930 . S
H521 C519 0.930 . S
H522 C510 0.930 . S
H523 C511 0.930 . S
H524 C517 0.929 . S
H525 C539 0.930 . S
H526 C518 0.930 . S
H527 C545 0.930 . S
H528 C536 0.929 . S
H529 C543 0.930 . S
H530 C507 0.931 . S
H531 C537 0.930 . S
H532 C570 0.930 . S
H533 C514 0.930 . S
H534 C569 0.931 . S
N535 Eu504 2.657 . S
N535 C536 1.334 . S
N535 C540 1.362 . S
C536 H528 0.929 . S
C536 N535 1.334 . S
C536 C539 1.413 . S
C537 H531 0.930 . S
C537 C538 1.392 . S
C537 C539 1.367 . S
C538 C537 1.392 . S
C538 C540 1.420 . S
C538 C570 1.423 . S
C539 H525 0.930 . S
C539 C536 1.413 . S
C539 C537 1.367 . S
C540 N535 1.362 . S
C540 C538 1.420 . S
C540 C544 1.429 . S
H541 C546 0.930 . S
N542 Eu504 2.609 . S
N542 C544 1.377 . S
N542 C545 1.321 . S
C543 H529 0.930 . S
C543 C545 1.400 . S
C543 C546 1.386 . S
C544 C540 1.429 . S
C544 N542 1.377 . S
C544 C547 1.411 . S
C545 H527 0.930 . S
C545 N542 1.321 . S
C545 C543 1.400 . S
C546 H541 0.930 . S
C546 C543 1.386 . S
C546 C547 1.395 . S
C547 C544 1.411 . S
C547 C546 1.395 . S
C547 C569 1.420 . S
O548 Eu504 2.558 . S
O548 C568 1.257 . S
O549 Eu504 2.612 . S
O549 Eu515 2.380 . S
O549 C560 1.276 . S
O550 Eu515 2.432 . S
O550 C567 1.264 . S
O551 Eu504 2.339 . S
O551 C567 1.254 . S
O552 Eu504 2.563 . S
O552 C560 1.235 . S
O553 Eu504 2.419 . S
O553 C568 1.249 . S
O554 Eu515 2.558 . S
O554 C579 1.257 . S
O555 Eu504 2.380 . S
O555 Eu515 2.612 . S
O555 C571 1.276 . S
O556 Eu504 2.432 . S
O556 C578 1.264 . S
O557 Eu515 2.339 . S
O557 C578 1.254 . S
O558 Eu515 2.563 . S
O558 C571 1.235 . S
O559 Eu515 2.419 . S
O559 C579 1.249 . S
C560 O549 1.276 . S
C560 O552 1.235 . S
C561 C563 1.393 . S
C561 C565 1.395 . S
C561 C568 1.492 . S
C562 C563 1.392 . S
C562 C564 1.386 . S
C563 C561 1.393 . S
C563 C562 1.392 . S
C563 H580 0.930 . S
C564 C562 1.386 . S
C564 C566 1.395 . S
C564 H581 0.930 . S
C565 C561 1.395 . S
C565 C566 1.379 . S
C565 H582 0.930 . S
C566 C564 1.395 . S
C566 C565 1.379 . S
C566 H583 0.930 . S
C567 O550 1.264 . S
C567 O551 1.254 . S
C568 Eu504 2.848 . S
C568 O548 1.257 . S
C568 O553 1.249 . S
C568 C561 1.492 . S
C569 H534 0.931 . S
C569 C547 1.420 . S
C569 C570 1.351 . S
C570 H532 0.930 . S
C570 C538 1.423 . S
C570 C569 1.351 . S
C571 O555 1.276 . S
C571 O558 1.235 . S
C572 C573 1.393 . S
C572 C576 1.395 . S
C572 C579 1.492 . S
C573 C572 1.393 . S
C573 C574 1.392 . S
C573 H584 0.930 . S
C574 C573 1.392 . S
C574 C575 1.386 . S
C575 C574 1.386 . S
C575 C577 1.395 . S
C575 H585 0.930 . S
C576 C572 1.395 . S
C576 C577 1.379 . S
C576 H586 0.930 . S
C577 C575 1.395 . S
C577 C576 1.379 . S
C577 H587 0.930 . S
C578 O556 1.264 . S
C578 O557 1.254 . S
C579 Eu515 2.848 . S
C579 O554 1.257 . S
C579 O559 1.249 . S
C579 C572 1.492 . S
H580 C563 0.930 . S
H581 C564 0.930 . S
H582 C565 0.930 . S
H583 C566 0.930 . S
H584 C573 0.930 . S
H585 C575 0.930 . S
H586 C576 0.930 . S
H587 C577 0.930 . S
Eu588 N619 2.657 . S
Eu588 N626 2.609 . S
Eu588 O632 2.558 . S
Eu588 O633 2.612 . S
Eu588 O635 2.339 . S
Eu588 O636 2.563 . S
Eu588 O637 2.419 . S
Eu588 O639 2.380 . S
Eu588 O640 2.432 . S
Eu588 C652 2.848 . S
C589 C592 1.429 . S
C589 C593 1.411 . S
C589 N596 1.377 . S
C590 C592 1.420 . S
C590 C594 1.423 . S
C590 C602 1.392 . S
C591 C593 1.420 . S
C591 C594 1.351 . S
C591 H614 0.931 . S
C592 C589 1.429 . S
C592 C590 1.420 . S
C592 N600 1.362 . S
C593 C589 1.411 . S
C593 C591 1.420 . S
C593 C598 1.395 . S
C594 C590 1.423 . S
C594 C591 1.351 . S
C594 H606 0.930 . S
C595 C597 1.400 . S
C595 C598 1.386 . S
C595 H607 0.930 . S
N596 C589 1.377 . S
N596 C597 1.321 . S
N596 Eu599 2.609 . S
C597 C595 1.400 . S
C597 N596 1.321 . S
C597 H604 0.930 . S
C598 C593 1.395 . S
C598 C595 1.386 . S
C598 H617 0.930 . S
Eu599 N596 2.609 . S
Eu599 N600 2.657 . S
Eu599 O633 2.380 . S
Eu599 O634 2.432 . S
Eu599 O638 2.558 . S
Eu599 O639 2.612 . S
Eu599 O641 2.339 . S
Eu599 O642 2.563 . S
Eu599 O643 2.419 . S
Eu599 C663 2.848 . S
N600 C592 1.362 . S
N600 Eu599 2.657 . S
N600 C601 1.334 . S
C601 N600 1.334 . S
C601 C603 1.413 . S
C601 H608 0.929 . S
C602 C590 1.392 . S
C602 C603 1.367 . S
C602 H610 0.930 . S
C603 C601 1.413 . S
C603 C602 1.367 . S
C603 H605 0.930 . S
H604 C597 0.930 . S
H605 C603 0.930 . S
H606 C594 0.930 . S
H607 C595 0.930 . S
H608 C601 0.929 . S
H609 C623 0.930 . S
H610 C602 0.930 . S
H611 C629 0.930 . S
H612 C620 0.929 . S
H613 C627 0.930 . S
H614 C591 0.931 . S
H615 C621 0.930 . S
H616 C654 0.930 . S
H617 C598 0.930 . S
H618 C653 0.931 . S
N619 Eu588 2.657 . S
N619 C620 1.334 . S
N619 C624 1.362 . S
C620 H612 0.929 . S
C620 N619 1.334 . S
C620 C623 1.413 . S
C621 H615 0.930 . S
C621 C622 1.392 . S
C621 C623 1.367 . S
C622 C621 1.392 . S
C622 C624 1.420 . S
C622 C654 1.423 . S
C623 H609 0.930 . S
C623 C620 1.413 . S
C623 C621 1.367 . S
C624 N619 1.362 . S
C624 C622 1.420 . S
C624 C628 1.429 . S
H625 C630 0.930 . S
N626 Eu588 2.609 . S
N626 C628 1.377 . S
N626 C629 1.321 . S
C627 H613 0.930 . S
C627 C629 1.400 . S
C627 C630 1.386 . S
C628 C624 1.429 . S
C628 N626 1.377 . S
C628 C631 1.411 . S
C629 H611 0.930 . S
C629 N626 1.321 . S
C629 C627 1.400 . S
C630 H625 0.930 . S
C630 C627 1.386 . S
C630 C631 1.395 . S
C631 C628 1.411 . S
C631 C630 1.395 . S
C631 C653 1.420 . S
O632 Eu588 2.558 . S
O632 C652 1.257 . S
O633 Eu588 2.612 . S
O633 Eu599 2.380 . S
O633 C644 1.276 . S
O634 Eu599 2.432 . S
O634 C651 1.264 . S
O635 Eu588 2.339 . S
O635 C651 1.254 . S
O636 Eu588 2.563 . S
O636 C644 1.235 . S
O637 Eu588 2.419 . S
O637 C652 1.249 . S
O638 Eu599 2.558 . S
O638 C663 1.257 . S
O639 Eu588 2.380 . S
O639 Eu599 2.612 . S
O639 C655 1.276 . S
O640 Eu588 2.432 . S
O640 C662 1.264 . S
O641 Eu599 2.339 . S
O641 C662 1.254 . S
O642 Eu599 2.563 . S
O642 C655 1.235 . S
O643 Eu599 2.419 . S
O643 C663 1.249 . S
C644 O633 1.276 . S
C644 O636 1.235 . S
C645 C647 1.393 . S
C645 C649 1.395 . S
C645 C652 1.492 . S
C646 C647 1.392 . S
C646 C648 1.386 . S
C647 C645 1.393 . S
C647 C646 1.392 . S
C647 H664 0.930 . S
C648 C646 1.386 . S
C648 C650 1.395 . S
C648 H665 0.930 . S
C649 C645 1.395 . S
C649 C650 1.379 . S
C649 H666 0.930 . S
C650 C648 1.395 . S
C650 C649 1.379 . S
C650 H667 0.930 . S
C651 O634 1.264 . S
C651 O635 1.254 . S
C652 Eu588 2.848 . S
C652 O632 1.257 . S
C652 O637 1.249 . S
C652 C645 1.492 . S
C653 H618 0.931 . S
C653 C631 1.420 . S
C653 C654 1.351 . S
C654 H616 0.930 . S
C654 C622 1.423 . S
C654 C653 1.351 . S
C655 O639 1.276 . S
C655 O642 1.235 . S
C656 C657 1.393 . S
C656 C660 1.395 . S
C656 C663 1.492 . S
C657 C656 1.393 . S
C657 C658 1.392 . S
C657 H668 0.930 . S
C658 C657 1.392 . S
C658 C659 1.386 . S
C659 C658 1.386 . S
C659 C661 1.395 . S
C659 H669 0.930 . S
C660 C656 1.395 . S
C660 C661 1.379 . S
C660 H670 0.930 . S
C661 C659 1.395 . S
C661 C660 1.379 . S
C661 H671 0.930 . S
C662 O640 1.264 . S
C662 O641 1.254 . S
C663 Eu599 2.848 . S
C663 O638 1.257 . S
C663 O643 1.249 . S
C663 C656 1.492 . S
H664 C647 0.930 . S
H665 C648 0.930 . S
H666 C649 0.930 . S
H667 C650 0.930 . S
H668 C657 0.930 . S
H669 C659 0.930 . S
H670 C660 0.930 . S
H671 C661 0.930 . S
Co672 O675 2.042 . S
Co672 O682 2.264 . S
Co672 O701 2.286 . S
Co672 O702 2.069 . S
Co672 O704 2.015 1_455 S
Co673 O675 2.122 . S
Co673 O681 2.073 . S
Co673 O682 2.327 . S
Co673 O683 1.976 1_455 S
Co674 O675 2.082 1_545 S
Co674 O677 2.092 1_455 S
Co674 O684 2.109 1_445 S
Co674 O685 2.148 . S
Co674 O689 2.114 . S
Co674 O703 2.139 1_445 S
O675 Co672 2.042 . S
O675 Co673 2.122 . S
O675 Co674 2.082 1_565 S
O675 H676 0.980 . S
H676 O675 0.980 . S
O677 Co674 2.092 1_655 S
O677 Co678 2.042 . S
O677 Co679 2.122 . S
O677 H680 0.980 . S
Co678 O677 2.042 . S
Co678 O686 2.286 . S
Co678 O687 2.069 . S
Co678 O688 2.015 1_655 S
Co678 O691 2.264 . S
Co679 O677 2.122 . S
Co679 O690 1.976 1_655 S
Co679 O691 2.327 . S
Co679 O692 2.073 . S
H680 O677 0.980 . S
O681 Co673 2.073 . S
O681 C696 1.245 . S
O682 Co672 2.264 . S
O682 Co673 2.327 . S
O682 C696 1.257 . S
O683 Co673 1.976 1_655 S
O683 C695 1.251 . S
O684 Co674 2.109 1_665 S
O684 C695 1.274 . S
O685 Co674 2.148 . S
O685 C698 1.246 . S
O686 Co678 2.286 . S
O686 C697 1.259 . S
O687 Co678 2.069 . S
O687 C697 1.289 . S
O688 Co678 2.015 1_455 S
O688 C698 1.257 . S
O689 Co674 2.114 . S
O689 C699 1.274 . S
O690 Co679 1.976 1_455 S
O690 C699 1.251 . S
O691 Co678 2.264 . S
O691 Co679 2.327 . S
O691 C700 1.257 . S
O692 Co679 2.073 . S
O692 C700 1.245 . S
C693 O701 1.259 . S
C693 O702 1.289 . S
C694 O703 1.246 . S
C694 O704 1.257 . S
C695 O683 1.251 . S
C695 O684 1.274 . S
C696 O681 1.245 . S
C696 O682 1.257 . S
C697 O686 1.259 . S
C697 O687 1.289 . S
C698 O685 1.246 . S
C698 O688 1.257 . S
C699 O689 1.274 . S
C699 O690 1.251 . S
C700 O691 1.257 . S
C700 O692 1.245 . S
O701 Co672 2.286 . S
O701 C693 1.259 . S
O702 Co672 2.069 . S
O702 C693 1.289 . S
O703 Co674 2.139 1_665 S
O703 C694 1.246 . S
O704 Co672 2.015 1_655 S
O704 C694 1.257 . S
Co705 O708 2.042 1_556 S
Co705 O715 2.264 1_556 S
Co705 O734 2.286 . S
Co705 O735 2.069 . S
Co705 O737 2.015 . S
Co706 O708 2.122 . S
Co706 O714 2.073 . S
Co706 O715 2.327 . S
Co706 O716 1.976 . S
Co707 O708 2.081 1_545 S
Co707 O710 2.093 1_554 S
Co707 O717 2.110 1_545 S
Co707 O718 2.148 . S
Co707 O722 2.113 1_554 S
Co707 O736 2.139 1_544 S
O708 Co705 2.042 1_554 S
O708 Co706 2.122 . S
O708 Co707 2.081 1_565 S
O708 H709 0.980 . S
H709 O708 0.980 . S
O710 Co707 2.093 1_556 S
O710 Co711 2.042 1_556 S
O710 Co712 2.122 . S
O710 H713 0.980 . S
Co711 O710 2.042 1_554 S
Co711 O719 2.286 . S
Co711 O720 2.069 . S
Co711 O721 2.015 . S
Co711 O724 2.264 1_554 S
Co712 O710 2.122 . S
Co712 O723 1.976 . S
Co712 O724 2.327 . S
Co712 O725 2.073 . S
H713 O710 0.980 . S
O714 Co706 2.073 . S
O714 C729 1.245 . S
O715 Co705 2.264 1_554 S
O715 Co706 2.327 . S
O715 C729 1.257 . S
O716 Co706 1.976 . S
O716 C728 1.251 . S
O717 Co707 2.110 1_565 S
O717 C728 1.274 . S
O718 Co707 2.148 . S
O718 C731 1.246 . S
O719 Co711 2.286 . S
O719 C730 1.259 . S
O720 Co711 2.069 . S
O720 C730 1.289 . S
O721 Co711 2.015 . S
O721 C731 1.257 . S
O722 Co707 2.113 1_556 S
O722 C732 1.274 . S
O723 Co712 1.976 . S
O723 C732 1.251 . S
O724 Co711 2.264 1_556 S
O724 Co712 2.327 . S
O724 C733 1.257 . S
O725 Co712 2.073 . S
O725 C733 1.245 . S
C726 O734 1.259 . S
C726 O735 1.289 . S
C727 O736 1.246 . S
C727 O737 1.257 . S
C728 O716 1.251 . S
C728 O717 1.274 . S
C729 O714 1.245 . S
C729 O715 1.257 . S
C730 O719 1.259 . S
C730 O720 1.289 . S
C731 O718 1.246 . S
C731 O721 1.257 . S
C732 O722 1.274 . S
C732 O723 1.251 . S
C733 O724 1.257 . S
C733 O725 1.245 . S
O734 Co705 2.286 . S
O734 C726 1.259 . S
O735 Co705 2.069 . S
O735 C726 1.289 . S
O736 Co707 2.139 1_566 S
O736 C727 1.246 . S
O737 Co705 2.015 . S
O737 C727 1.257 . S
Co738 O741 2.042 1_556 S
Co738 O748 2.264 1_556 S
Co738 O767 2.286 . S
Co738 O768 2.069 . S
Co738 O770 2.015 1_455 S
Co739 O741 2.122 . S
Co739 O747 2.073 . S
Co739 O748 2.327 . S
Co739 O749 1.976 1_455 S
Co740 O741 2.088 . S
Co740 O743 2.086 1_454 S
Co740 O750 2.110 1_455 S
Co740 O751 2.144 . S
Co740 O755 2.112 1_554 S
Co740 O769 2.143 1_454 S
O741 Co738 2.042 1_554 S
O741 Co739 2.122 . S
O741 Co740 2.088 . S
O741 H742 0.980 . S
H742 O741 0.980 . S
O743 Co740 2.086 1_656 S
O743 Co744 2.042 1_556 S
O743 Co745 2.122 . S
O743 H746 0.980 . S
Co744 O743 2.042 1_554 S
Co744 O752 2.286 . S
Co744 O753 2.069 . S
Co744 O754 2.015 1_655 S
Co744 O757 2.264 1_554 S
Co745 O743 2.122 . S
Co745 O756 1.976 1_655 S
Co745 O757 2.327 . S
Co745 O758 2.073 . S
H746 O743 0.980 . S
O747 Co739 2.073 . S
O747 C762 1.245 . S
O748 Co738 2.264 1_554 S
O748 Co739 2.327 . S
O748 C762 1.257 . S
O749 Co739 1.976 1_655 S
O749 C761 1.251 . S
O750 Co740 2.110 1_655 S
O750 C761 1.274 . S
O751 Co740 2.144 . S
O751 C764 1.246 . S
O752 Co744 2.286 . S
O752 C763 1.259 . S
O753 Co744 2.069 . S
O753 C763 1.289 . S
O754 Co744 2.015 1_455 S
O754 C764 1.257 . S
O755 Co740 2.112 1_556 S
O755 C765 1.274 . S
O756 Co745 1.976 1_455 S
O756 C765 1.251 . S
O757 Co744 2.264 1_556 S
O757 Co745 2.327 . S
O757 C766 1.257 . S
O758 Co745 2.073 . S
O758 C766 1.245 . S
C759 O767 1.259 . S
C759 O768 1.289 . S
C760 O769 1.246 . S
C760 O770 1.257 . S
C761 O749 1.251 . S
C761 O750 1.274 . S
C762 O747 1.245 . S
C762 O748 1.257 . S
C763 O752 1.259 . S
C763 O753 1.289 . S
C764 O751 1.246 . S
C764 O754 1.257 . S
C765 O755 1.274 . S
C765 O756 1.251 . S
C766 O757 1.257 . S
C766 O758 1.245 . S
O767 Co738 2.286 . S
O767 C759 1.259 . S
O768 Co738 2.069 . S
O768 C759 1.289 . S
O769 Co740 2.143 1_656 S
O769 C760 1.246 . S
O770 Co738 2.015 1_655 S
O770 C760 1.257 . S
Co771 O774 2.042 1_556 S
Co771 O781 2.264 1_556 S
Co771 O800 2.286 . S
Co771 O801 2.069 . S
Co771 O803 2.015 . S
Co772 O774 2.122 . S
Co772 O780 2.073 . S
Co772 O781 2.327 . S
Co772 O782 1.976 . S
Co773 O774 2.087 . S
Co773 O776 2.087 1_554 S
Co773 O783 2.111 . S
Co773 O784 2.143 . S
Co773 O788 2.111 1_554 S
Co773 O802 2.143 1_554 S
O774 Co771 2.042 1_554 S
O774 Co772 2.122 . S
O774 Co773 2.087 . S
O774 H775 0.980 . S
H775 O774 0.980 . S
O776 Co773 2.087 1_556 S
O776 Co777 2.042 1_556 S
O776 Co778 2.122 . S
O776 H779 0.980 . S
Co777 O776 2.042 1_554 S
Co777 O785 2.286 . S
Co777 O786 2.069 . S
Co777 O787 2.015 . S
Co777 O790 2.264 1_554 S
Co778 O776 2.122 . S
Co778 O789 1.976 . S
Co778 O790 2.327 . S
Co778 O791 2.073 . S
H779 O776 0.980 . S
O780 Co772 2.073 . S
O780 C795 1.245 . S
O781 Co771 2.264 1_554 S
O781 Co772 2.327 . S
O781 C795 1.257 . S
O782 Co772 1.976 . S
O782 C794 1.251 . S
O783 Co773 2.111 . S
O783 C794 1.274 . S
O784 Co773 2.143 . S
O784 C797 1.246 . S
O785 Co777 2.286 . S
O785 C796 1.259 . S
O786 Co777 2.069 . S
O786 C796 1.289 . S
O787 Co777 2.015 . S
O787 C797 1.257 . S
O788 Co773 2.111 1_556 S
O788 C798 1.274 . S
O789 Co778 1.976 . S
O789 C798 1.251 . S
O790 Co777 2.264 1_556 S
O790 Co778 2.327 . S
O790 C799 1.257 . S
O791 Co778 2.073 . S
O791 C799 1.245 . S
C792 O800 1.259 . S
C792 O801 1.289 . S
C793 O802 1.246 . S
C793 O803 1.257 . S
C794 O782 1.251 . S
C794 O783 1.274 . S
C795 O780 1.245 . S
C795 O781 1.257 . S
C796 O785 1.259 . S
C796 O786 1.289 . S
C797 O784 1.246 . S
C797 O787 1.257 . S
C798 O788 1.274 . S
C798 O789 1.251 . S
C799 O790 1.257 . S
C799 O791 1.245 . S
O800 Co771 2.286 . S
O800 C792 1.259 . S
O801 Co771 2.069 . S
O801 C792 1.289 . S
O802 Co773 2.143 1_556 S
O802 C793 1.246 . S
O803 Co771 2.015 . S
O803 C793 1.257 . S
Co804 O807 2.042 . S
Co804 O814 2.264 . S
Co804 O833 2.286 . S
Co804 O834 2.069 . S
Co804 O836 2.015 . S
Co805 O807 2.122 . S
Co805 O813 2.073 . S
Co805 O814 2.327 . S
Co805 O815 1.976 . S
Co806 O807 2.088 . S
Co806 O809 2.086 1_455 S
Co806 O816 2.112 . S
Co806 O817 2.143 1_455 S
Co806 O821 2.111 1_455 S
Co806 O835 2.144 . S
O807 Co804 2.042 . S
O807 Co805 2.122 . S
O807 Co806 2.088 . S
O807 H808 0.980 . S
H808 O807 0.980 . S
O809 Co806 2.086 1_655 S
O809 Co810 2.042 . S
O809 Co811 2.122 . S
O809 H812 0.980 . S
Co810 O809 2.042 . S
Co810 O818 2.286 . S
Co810 O819 2.069 . S
Co810 O820 2.015 . S
Co810 O823 2.264 . S
Co811 O809 2.122 . S
Co811 O822 1.976 . S
Co811 O823 2.327 . S
Co811 O824 2.073 . S
H812 O809 0.980 . S
O813 Co805 2.073 . S
O813 C828 1.245 . S
O814 Co804 2.264 . S
O814 Co805 2.327 . S
O814 C828 1.257 . S
O815 Co805 1.976 . S
O815 C827 1.251 . S
O816 Co806 2.112 . S
O816 C827 1.274 . S
O817 Co806 2.143 1_655 S
O817 C830 1.246 . S
O818 Co810 2.286 . S
O818 C829 1.259 . S
O819 Co810 2.069 . S
O819 C829 1.289 . S
O820 Co810 2.015 . S
O820 C830 1.257 . S
O821 Co806 2.111 1_655 S
O821 C831 1.274 . S
O822 Co811 1.976 . S
O822 C831 1.251 . S
O823 Co810 2.264 . S
O823 Co811 2.327 . S
O823 C832 1.257 . S
O824 Co811 2.073 . S
O824 C832 1.245 . S
C825 O833 1.259 . S
C825 O834 1.289 . S
C826 O835 1.246 . S
C826 O836 1.257 . S
C827 O815 1.251 . S
C827 O816 1.274 . S
C828 O813 1.245 . S
C828 O814 1.257 . S
C829 O818 1.259 . S
C829 O819 1.289 . S
C830 O817 1.246 . S
C830 O820 1.257 . S
C831 O821 1.274 . S
C831 O822 1.251 . S
C832 O823 1.257 . S
C832 O824 1.245 . S
O833 Co804 2.286 . S
O833 C825 1.259 . S
O834 Co804 2.069 . S
O834 C825 1.289 . S
O835 Co806 2.144 . S
O835 C826 1.246 . S
O836 Co804 2.015 . S
O836 C826 1.257 . S
Co837 O840 2.042 . S
Co837 O847 2.264 . S
Co837 O866 2.286 . S
Co837 O867 2.069 . S
Co837 O869 2.015 1_565 S
Co838 O840 2.122 . S
Co838 O846 2.073 . S
Co838 O847 2.327 . S
Co838 O848 1.976 1_565 S
Co839 O840 2.081 1_545 S
Co839 O842 2.093 . S
Co839 O849 2.115 . S
Co839 O850 2.141 1_545 S
Co839 O854 2.107 1_545 S
Co839 O868 2.146 . S
O840 Co837 2.042 . S
O840 Co838 2.122 . S
O840 Co839 2.081 1_565 S
O840 H841 0.980 . S
H841 O840 0.980 . S
O842 Co839 2.093 . S
O842 Co843 2.042 . S
O842 Co844 2.122 . S
O842 H845 0.980 . S
Co843 O842 2.042 . S
Co843 O851 2.286 . S
Co843 O852 2.069 . S
Co843 O853 2.015 1_545 S
Co843 O856 2.264 . S
Co844 O842 2.122 . S
Co844 O855 1.976 1_545 S
Co844 O856 2.327 . S
Co844 O857 2.073 . S
H845 O842 0.980 . S
O846 Co838 2.073 . S
O846 C861 1.245 . S
O847 Co837 2.264 . S
O847 Co838 2.327 . S
O847 C861 1.257 . S
O848 Co838 1.976 1_545 S
O848 C860 1.251 . S
O849 Co839 2.115 . S
O849 C860 1.274 . S
O850 Co839 2.141 1_565 S
O850 C863 1.246 . S
O851 Co843 2.286 . S
O851 C862 1.259 . S
O852 Co843 2.069 . S
O852 C862 1.289 . S
O853 Co843 2.015 1_565 S
O853 C863 1.257 . S
O854 Co839 2.107 1_565 S
O854 C864 1.274 . S
O855 Co844 1.976 1_565 S
O855 C864 1.251 . S
O856 Co843 2.264 . S
O856 Co844 2.327 . S
O856 C865 1.257 . S
O857 Co844 2.073 . S
O857 C865 1.245 . S
C858 O866 1.259 . S
C858 O867 1.289 . S
C859 O868 1.246 . S
C859 O869 1.257 . S
C860 O848 1.251 . S
C860 O849 1.274 . S
C861 O846 1.245 . S
C861 O847 1.257 . S
C862 O851 1.259 . S
C862 O852 1.289 . S
C863 O850 1.246 . S
C863 O853 1.257 . S
C864 O854 1.274 . S
C864 O855 1.251 . S
C865 O856 1.257 . S
C865 O857 1.245 . S
O866 Co837 2.286 . S
O866 C858 1.259 . S
O867 Co837 2.069 . S
O867 C858 1.289 . S
O868 Co839 2.146 . S
O868 C859 1.246 . S
O869 Co837 2.015 1_545 S
O869 C859 1.257 . S
H870 C878 0.929 . S
H871 C880 0.930 . S
H872 C882 0.930 . S
H873 C885 0.929 . S
H874 C888 0.930 . S
H875 C890 0.960 . S
H876 C890 0.960 . S
H877 C890 0.960 . S
C878 H870 0.929 . S
C878 C879 1.377 . S
C878 C880 1.384 . S
C879 C878 1.377 . S
C879 C885 1.390 . S
C880 H871 0.930 . S
C880 C878 1.384 . S
C880 C881 1.372 . S
C881 C880 1.372 . S
C881 C882 1.400 . S
C881 C886 1.490 . S
C882 H872 0.930 . S
C882 C881 1.400 . S
C882 C885 1.386 . S
H883 C899 0.930 . S
H884 C900 0.931 . S
C885 H873 0.929 . S
C885 C879 1.390 . S
C885 C882 1.386 . S
C886 C881 1.490 . S
C886 C888 1.395 . S
C886 C889 1.403 . S
H887 C893 0.930 . S
C888 H874 0.930 . S
C888 C886 1.395 . S
C888 C891 1.403 . S
C889 C886 1.403 . S
C889 C890 1.524 . S
C889 C893 1.400 . S
C890 H875 0.960 . S
C890 H876 0.960 . S
C890 H877 0.960 . S
C890 C889 1.524 . S
C891 C888 1.403 . S
C891 C892 1.392 . S
C891 C895 1.495 . S
C892 C891 1.392 . S
C892 C893 1.385 . S
C892 C894 1.478 . S
C893 H887 0.930 . S
C893 C889 1.400 . S
C893 C892 1.385 . S
C894 C892 1.478 . S
C894 C896 1.381 . S
C894 C900 1.383 . S
C895 C891 1.495 . S
C895 H901 0.959 . S
C895 H902 0.961 . S
C895 H903 0.960 . S
C896 C894 1.381 . S
C896 C897 1.394 . S
C896 H904 0.930 . S
C897 C896 1.394 . S
C897 C898 1.383 . S
C897 H905 0.929 . S
C898 C897 1.383 . S
C898 C899 1.377 . S
C899 H883 0.930 . S
C899 C898 1.377 . S
C899 C900 1.379 . S
C900 H884 0.931 . S
C900 C894 1.383 . S
C900 C899 1.379 . S
H901 C895 0.959 . S
H902 C895 0.961 . S
H903 C895 0.960 . S
H904 C896 0.930 . S
H905 C897 0.929 . S
H906 C914 0.929 . S
H907 C916 0.930 . S
H908 C918 0.930 . S
H909 C921 0.929 . S
H910 C924 0.930 . S
H911 C926 0.960 . S
H912 C926 0.960 . S
H913 C926 0.960 . S
C914 H906 0.929 . S
C914 C915 1.377 . S
C914 C916 1.384 . S
C915 C914 1.377 . S
C915 C921 1.390 . S
C916 H907 0.930 . S
C916 C914 1.384 . S
C916 C917 1.372 . S
C917 C916 1.372 . S
C917 C918 1.400 . S
C917 C922 1.490 . S
C918 H908 0.930 . S
C918 C917 1.400 . S
C918 C921 1.386 . S
H919 C935 0.930 . S
H920 C936 0.931 . S
C921 H909 0.929 . S
C921 C915 1.390 . S
C921 C918 1.386 . S
C922 C917 1.490 . S
C922 C924 1.395 . S
C922 C925 1.403 . S
H923 C929 0.930 . S
C924 H910 0.930 . S
C924 C922 1.395 . S
C924 C927 1.403 . S
C925 C922 1.403 . S
C925 C926 1.524 . S
C925 C929 1.400 . S
C926 H911 0.960 . S
C926 H912 0.960 . S
C926 H913 0.960 . S
C926 C925 1.524 . S
C927 C924 1.403 . S
C927 C928 1.392 . S
C927 C931 1.495 . S
C928 C927 1.392 . S
C928 C929 1.385 . S
C928 C930 1.478 . S
C929 H923 0.930 . S
C929 C925 1.400 . S
C929 C928 1.385 . S
C930 C928 1.478 . S
C930 C932 1.381 . S
C930 C936 1.383 . S
C931 C927 1.495 . S
C931 H937 0.959 . S
C931 H938 0.961 . S
C931 H939 0.960 . S
C932 C930 1.381 . S
C932 C933 1.394 . S
C932 H940 0.930 . S
C933 C932 1.394 . S
C933 C934 1.383 . S
C933 H941 0.929 . S
C934 C933 1.383 . S
C934 C935 1.377 . S
C935 H919 0.930 . S
C935 C934 1.377 . S
C935 C936 1.379 . S
C936 H920 0.931 . S
C936 C930 1.383 . S
C936 C935 1.379 . S
H937 C931 0.959 . S
H938 C931 0.961 . S
H939 C931 0.960 . S
H940 C932 0.930 . S
H941 C933 0.929 . S
H942 C950 0.929 . S
H943 C952 0.930 . S
H944 C954 0.930 . S
H945 C957 0.929 . S
H946 C960 0.930 . S
H947 C962 0.960 . S
H948 C962 0.960 . S
H949 C962 0.960 . S
C950 H942 0.929 . S
C950 C951 1.377 . S
C950 C952 1.384 . S
C951 C950 1.377 . S
C951 C957 1.390 . S
C952 H943 0.930 . S
C952 C950 1.384 . S
C952 C953 1.372 . S
C953 C952 1.372 . S
C953 C954 1.400 . S
C953 C958 1.490 . S
C954 H944 0.930 . S
C954 C953 1.400 . S
C954 C957 1.386 . S
H955 C971 0.930 . S
H956 C972 0.931 . S
C957 H945 0.929 . S
C957 C951 1.390 . S
C957 C954 1.386 . S
C958 C953 1.490 . S
C958 C960 1.395 . S
C958 C961 1.403 . S
H959 C965 0.930 . S
C960 H946 0.930 . S
C960 C958 1.395 . S
C960 C963 1.403 . S
C961 C958 1.403 . S
C961 C962 1.524 . S
C961 C965 1.400 . S
C962 H947 0.960 . S
C962 H948 0.960 . S
C962 H949 0.960 . S
C962 C961 1.524 . S
C963 C960 1.403 . S
C963 C964 1.392 . S
C963 C967 1.495 . S
C964 C963 1.392 . S
C964 C965 1.385 . S
C964 C966 1.478 . S
C965 H959 0.930 . S
C965 C961 1.400 . S
C965 C964 1.385 . S
C966 C964 1.478 . S
C966 C968 1.381 . S
C966 C972 1.383 . S
C967 C963 1.495 . S
C967 H973 0.959 . S
C967 H974 0.961 . S
C967 H975 0.960 . S
C968 C966 1.381 . S
C968 C969 1.394 . S
C968 H976 0.930 . S
C969 C968 1.394 . S
C969 C970 1.383 . S
C969 H977 0.929 . S
C970 C969 1.383 . S
C970 C971 1.377 . S
C971 H955 0.930 . S
C971 C970 1.377 . S
C971 C972 1.379 . S
C972 H956 0.931 . S
C972 C966 1.383 . S
C972 C971 1.379 . S
H973 C967 0.959 . S
H974 C967 0.961 . S
H975 C967 0.960 . S
H976 C968 0.930 . S
H977 C969 0.929 . S
H978 C986 0.929 . S
H979 C988 0.930 . S
H980 C990 0.930 . S
H981 C993 0.929 . S
H982 C996 0.930 . S
H983 C998 0.960 . S
H984 C998 0.960 . S
H985 C998 0.960 . S
C986 H978 0.929 . S
C986 C987 1.377 . S
C986 C988 1.384 . S
C987 C986 1.377 . S
C987 C993 1.390 . S
C988 H979 0.930 . S
C988 C986 1.384 . S
C988 C989 1.372 . S
C989 C988 1.372 . S
C989 C990 1.400 . S
C989 C994 1.490 . S
C990 H980 0.930 . S
C990 C989 1.400 . S
C990 C993 1.386 . S
H991 C1007 0.930 . S
H992 C1008 0.931 . S
C993 H981 0.929 . S
C993 C987 1.390 . S
C993 C990 1.386 . S
C994 C989 1.490 . S
C994 C996 1.395 . S
C994 C997 1.403 . S
H995 C1001 0.930 . S
C996 H982 0.930 . S
C996 C994 1.395 . S
C996 C999 1.403 . S
C997 C994 1.403 . S
C997 C998 1.524 . S
C997 C1001 1.400 . S
C998 H983 0.960 . S
C998 H984 0.960 . S
C998 H985 0.960 . S
C998 C997 1.524 . S
C999 C996 1.403 . S
C999 C1000 1.392 . S
C999 C1003 1.495 . S
C1000 C999 1.392 . S
C1000 C1001 1.385 . S
C1000 C1002 1.478 . S
C1001 H995 0.930 . S
C1001 C997 1.400 . S
C1001 C1000 1.385 . S
C1002 C1000 1.478 . S
C1002 C1004 1.381 . S
C1002 C1008 1.383 . S
C1003 C999 1.495 . S
C1003 H1009 0.959 . S
C1003 H1010 0.961 . S
C1003 H1011 0.960 . S
C1004 C1002 1.381 . S
C1004 C1005 1.394 . S
C1004 H1012 0.930 . S
C1005 C1004 1.394 . S
C1005 C1006 1.383 . S
C1005 H1013 0.929 . S
C1006 C1005 1.383 . S
C1006 C1007 1.377 . S
C1007 H991 0.930 . S
C1007 C1006 1.377 . S
C1007 C1008 1.379 . S
C1008 H992 0.931 . S
C1008 C1002 1.383 . S
C1008 C1007 1.379 . S
H1009 C1003 0.959 . S
H1010 C1003 0.961 . S
H1011 C1003 0.960 . S
H1012 C1004 0.930 . S
H1013 C1005 0.929 . S
H1014 C1022 0.929 . S
H1015 C1024 0.930 . S
H1016 C1026 0.930 . S
H1017 C1029 0.929 . S
H1018 C1032 0.930 . S
H1019 C1034 0.960 . S
H1020 C1034 0.960 . S
H1021 C1034 0.960 . S
C1022 H1014 0.929 . S
C1022 C1023 1.377 . S
C1022 C1024 1.384 . S
C1023 C1022 1.377 . S
C1023 C1029 1.390 . S
C1024 H1015 0.930 . S
C1024 C1022 1.384 . S
C1024 C1025 1.372 . S
C1025 C1024 1.372 . S
C1025 C1026 1.400 . S
C1025 C1030 1.490 . S
C1026 H1016 0.930 . S
C1026 C1025 1.400 . S
C1026 C1029 1.386 . S
H1027 C1043 0.930 . S
H1028 C1044 0.931 . S
C1029 H1017 0.929 . S
C1029 C1023 1.390 . S
C1029 C1026 1.386 . S
C1030 C1025 1.490 . S
C1030 C1032 1.395 . S
C1030 C1033 1.403 . S
H1031 C1037 0.930 . S
C1032 H1018 0.930 . S
C1032 C1030 1.395 . S
C1032 C1035 1.403 . S
C1033 C1030 1.403 . S
C1033 C1034 1.524 . S
C1033 C1037 1.400 . S
C1034 H1019 0.960 . S
C1034 H1020 0.960 . S
C1034 H1021 0.960 . S
C1034 C1033 1.524 . S
C1035 C1032 1.403 . S
C1035 C1036 1.392 . S
C1035 C1039 1.495 . S
C1036 C1035 1.392 . S
C1036 C1037 1.385 . S
C1036 C1038 1.478 . S
C1037 H1031 0.930 . S
C1037 C1033 1.400 . S
C1037 C1036 1.385 . S
C1038 C1036 1.478 . S
C1038 C1040 1.381 . S
C1038 C1044 1.383 . S
C1039 C1035 1.495 . S
C1039 H1045 0.959 . S
C1039 H1046 0.961 . S
C1039 H1047 0.960 . S
C1040 C1038 1.381 . S
C1040 C1041 1.394 . S
C1040 H1048 0.930 . S
C1041 C1040 1.394 . S
C1041 C1042 1.383 . S
C1041 H1049 0.929 . S
C1042 C1041 1.383 . S
C1042 C1043 1.377 . S
C1043 H1027 0.930 . S
C1043 C1042 1.377 . S
C1043 C1044 1.379 . S
C1044 H1028 0.931 . S
C1044 C1038 1.383 . S
C1044 C1043 1.379 . S
H1045 C1039 0.959 . S
H1046 C1039 0.961 . S
H1047 C1039 0.960 . S
H1048 C1040 0.930 . S
H1049 C1041 0.929 . S
H1050 C1058 0.929 . S
H1051 C1060 0.930 . S
H1052 C1062 0.930 . S
H1053 C1065 0.929 . S
H1054 C1068 0.930 . S
H1055 C1070 0.960 . S
H1056 C1070 0.960 . S
H1057 C1070 0.960 . S
C1058 H1050 0.929 . S
C1058 C1059 1.377 . S
C1058 C1060 1.384 . S
C1059 C1058 1.377 . S
C1059 C1065 1.390 . S
C1060 H1051 0.930 . S
C1060 C1058 1.384 . S
C1060 C1061 1.372 . S
C1061 C1060 1.372 . S
C1061 C1062 1.400 . S
C1061 C1066 1.490 . S
C1062 H1052 0.930 . S
C1062 C1061 1.400 . S
C1062 C1065 1.386 . S
H1063 C1079 0.930 . S
H1064 C1080 0.931 . S
C1065 H1053 0.929 . S
C1065 C1059 1.390 . S
C1065 C1062 1.386 . S
C1066 C1061 1.490 . S
C1066 C1068 1.395 . S
C1066 C1069 1.403 . S
H1067 C1073 0.930 . S
C1068 H1054 0.930 . S
C1068 C1066 1.395 . S
C1068 C1071 1.403 . S
C1069 C1066 1.403 . S
C1069 C1070 1.524 . S
C1069 C1073 1.400 . S
C1070 H1055 0.960 . S
C1070 H1056 0.960 . S
C1070 H1057 0.960 . S
C1070 C1069 1.524 . S
C1071 C1068 1.403 . S
C1071 C1072 1.392 . S
C1071 C1075 1.495 . S
C1072 C1071 1.392 . S
C1072 C1073 1.385 . S
C1072 C1074 1.478 . S
C1073 H1067 0.930 . S
C1073 C1069 1.400 . S
C1073 C1072 1.385 . S
C1074 C1072 1.478 . S
C1074 C1076 1.381 . S
C1074 C1080 1.383 . S
C1075 C1071 1.495 . S
C1075 H1081 0.959 . S
C1075 H1082 0.961 . S
C1075 H1083 0.960 . S
C1076 C1074 1.381 . S
C1076 C1077 1.394 . S
C1076 H1084 0.930 . S
C1077 C1076 1.394 . S
C1077 C1078 1.383 . S
C1077 H1085 0.929 . S
C1078 C1077 1.383 . S
C1078 C1079 1.377 . S
C1079 H1063 0.930 . S
C1079 C1078 1.377 . S
C1079 C1080 1.379 . S
C1080 H1064 0.931 . S
C1080 C1074 1.383 . S
C1080 C1079 1.379 . S
H1081 C1075 0.959 . S
H1082 C1075 0.961 . S
H1083 C1075 0.960 . S
H1084 C1076 0.930 . S
H1085 C1077 0.929 . S
H1086 C1094 0.929 . S
H1087 C1096 0.930 . S
H1088 C1098 0.930 . S
H1089 C1101 0.929 . S
H1090 C1104 0.930 . S
H1091 C1106 0.960 . S
H1092 C1106 0.960 . S
H1093 C1106 0.960 . S
C1094 H1086 0.929 . S
C1094 C1095 1.377 . S
C1094 C1096 1.384 . S
C1095 C1094 1.377 . S
C1095 C1101 1.390 . S
C1096 H1087 0.930 . S
C1096 C1094 1.384 . S
C1096 C1097 1.372 . S
C1097 C1096 1.372 . S
C1097 C1098 1.400 . S
C1097 C1102 1.490 . S
C1098 H1088 0.930 . S
C1098 C1097 1.400 . S
C1098 C1101 1.386 . S
H1099 C1115 0.930 . S
H1100 C1116 0.931 . S
C1101 H1089 0.929 . S
C1101 C1095 1.390 . S
C1101 C1098 1.386 . S
C1102 C1097 1.490 . S
C1102 C1104 1.395 . S
C1102 C1105 1.403 . S
H1103 C1109 0.930 . S
C1104 H1090 0.930 . S
C1104 C1102 1.395 . S
C1104 C1107 1.403 . S
C1105 C1102 1.403 . S
C1105 C1106 1.524 . S
C1105 C1109 1.400 . S
C1106 H1091 0.960 . S
C1106 H1092 0.960 . S
C1106 H1093 0.960 . S
C1106 C1105 1.524 . S
C1107 C1104 1.403 . S
C1107 C1108 1.392 . S
C1107 C1111 1.495 . S
C1108 C1107 1.392 . S
C1108 C1109 1.385 . S
C1108 C1110 1.478 . S
C1109 H1103 0.930 . S
C1109 C1105 1.400 . S
C1109 C1108 1.385 . S
C1110 C1108 1.478 . S
C1110 C1112 1.381 . S
C1110 C1116 1.383 . S
C1111 C1107 1.495 . S
C1111 H1117 0.959 . S
C1111 H1118 0.961 . S
C1111 H1119 0.960 . S
C1112 C1110 1.381 . S
C1112 C1113 1.394 . S
C1112 H1120 0.930 . S
C1113 C1112 1.394 . S
C1113 C1114 1.383 . S
C1113 H1121 0.929 . S
C1114 C1113 1.383 . S
C1114 C1115 1.377 . S
C1115 H1099 0.930 . S
C1115 C1114 1.377 . S
C1115 C1116 1.379 . S
C1116 H1100 0.931 . S
C1116 C1110 1.383 . S
C1116 C1115 1.379 . S
H1117 C1111 0.959 . S
H1118 C1111 0.961 . S
H1119 C1111 0.960 . S
H1120 C1112 0.930 . S
H1121 C1113 0.929 . S
H1122 C1130 0.929 . S
H1123 C1132 0.930 . S
H1124 C1134 0.930 . S
H1125 C1137 0.929 . S
H1126 C1140 0.930 . S
H1127 C1142 0.960 . S
H1128 C1142 0.960 . S
H1129 C1142 0.960 . S
C1130 H1122 0.929 . S
C1130 C1131 1.377 . S
C1130 C1132 1.384 . S
C1131 C1130 1.377 . S
C1131 C1137 1.390 . S
C1132 H1123 0.930 . S
C1132 C1130 1.384 . S
C1132 C1133 1.372 . S
C1133 C1132 1.372 . S
C1133 C1134 1.400 . S
C1133 C1138 1.490 . S
C1134 H1124 0.930 . S
C1134 C1133 1.400 . S
C1134 C1137 1.386 . S
H1135 C1151 0.930 . S
H1136 C1152 0.931 . S
C1137 H1125 0.929 . S
C1137 C1131 1.390 . S
C1137 C1134 1.386 . S
C1138 C1133 1.490 . S
C1138 C1140 1.395 . S
C1138 C1141 1.403 . S
H1139 C1145 0.930 . S
C1140 H1126 0.930 . S
C1140 C1138 1.395 . S
C1140 C1143 1.403 . S
C1141 C1138 1.403 . S
C1141 C1142 1.524 . S
C1141 C1145 1.400 . S
C1142 H1127 0.960 . S
C1142 H1128 0.960 . S
C1142 H1129 0.960 . S
C1142 C1141 1.524 . S
C1143 C1140 1.403 . S
C1143 C1144 1.392 . S
C1143 C1147 1.495 . S
C1144 C1143 1.392 . S
C1144 C1145 1.385 . S
C1144 C1146 1.478 . S
C1145 H1139 0.930 . S
C1145 C1141 1.400 . S
C1145 C1144 1.385 . S
C1146 C1144 1.478 . S
C1146 C1148 1.381 . S
C1146 C1152 1.383 . S
C1147 C1143 1.495 . S
C1147 H1153 0.959 . S
C1147 H1154 0.961 . S
C1147 H1155 0.960 . S
C1148 C1146 1.381 . S
C1148 C1149 1.394 . S
C1148 H1156 0.930 . S
C1149 C1148 1.394 . S
C1149 C1150 1.383 . S
C1149 H1157 0.929 . S
C1150 C1149 1.383 . S
C1150 C1151 1.377 . S
C1151 H1135 0.930 . S
C1151 C1150 1.377 . S
C1151 C1152 1.379 . S
C1152 H1136 0.931 . S
C1152 C1146 1.383 . S
C1152 C1151 1.379 . S
H1153 C1147 0.959 . S
H1154 C1147 0.961 . S
H1155 C1147 0.960 . S
H1156 C1148 0.930 . S
H1157 C1149 0.929 . S
H1158 C1166 0.929 . S
H1159 C1168 0.930 . S
H1160 C1170 0.930 . S
H1161 C1173 0.929 . S
H1162 C1176 0.930 . S
H1163 C1178 0.960 . S
H1164 C1178 0.960 . S
H1165 C1178 0.960 . S
C1166 H1158 0.929 . S
C1166 C1167 1.377 . S
C1166 C1168 1.384 . S
C1167 C1166 1.377 . S
C1167 C1173 1.390 . S
C1168 H1159 0.930 . S
C1168 C1166 1.384 . S
C1168 C1169 1.372 . S
C1169 C1168 1.372 . S
C1169 C1170 1.400 . S
C1169 C1174 1.490 . S
C1170 H1160 0.930 . S
C1170 C1169 1.400 . S
C1170 C1173 1.386 . S
H1171 C1187 0.930 . S
H1172 C1188 0.931 . S
C1173 H1161 0.929 . S
C1173 C1167 1.390 . S
C1173 C1170 1.386 . S
C1174 C1169 1.490 . S
C1174 C1176 1.395 . S
C1174 C1177 1.403 . S
H1175 C1181 0.930 . S
C1176 H1162 0.930 . S
C1176 C1174 1.395 . S
C1176 C1179 1.403 . S
C1177 C1174 1.403 . S
C1177 C1178 1.524 . S
C1177 C1181 1.400 . S
C1178 H1163 0.960 . S
C1178 H1164 0.960 . S
C1178 H1165 0.960 . S
C1178 C1177 1.524 . S
C1179 C1176 1.403 . S
C1179 C1180 1.392 . S
C1179 C1183 1.495 . S
C1180 C1179 1.392 . S
C1180 C1181 1.385 . S
C1180 C1182 1.478 . S
C1181 H1175 0.930 . S
C1181 C1177 1.400 . S
C1181 C1180 1.385 . S
C1182 C1180 1.478 . S
C1182 C1184 1.381 . S
C1182 C1188 1.383 . S
C1183 C1179 1.495 . S
C1183 H1189 0.959 . S
C1183 H1190 0.961 . S
C1183 H1191 0.960 . S
C1184 C1182 1.381 . S
C1184 C1185 1.394 . S
C1184 H1192 0.930 . S
C1185 C1184 1.394 . S
C1185 C1186 1.383 . S
C1185 H1193 0.929 . S
C1186 C1185 1.383 . S
C1186 C1187 1.377 . S
C1187 H1171 0.930 . S
C1187 C1186 1.377 . S
C1187 C1188 1.379 . S
C1188 H1172 0.931 . S
C1188 C1182 1.383 . S
C1188 C1187 1.379 . S
H1189 C1183 0.959 . S
H1190 C1183 0.961 . S
H1191 C1183 0.960 . S
H1192 C1184 0.930 . S
H1193 C1185 0.929 . S
H1194 C1202 0.929 . S
H1195 C1204 0.930 . S
H1196 C1206 0.930 . S
H1197 C1209 0.929 . S
H1198 C1212 0.930 . S
H1199 C1214 0.960 . S
H1200 C1214 0.960 . S
H1201 C1214 0.960 . S
C1202 H1194 0.929 . S
C1202 C1203 1.377 . S
C1202 C1204 1.384 . S
C1203 C1202 1.377 . S
C1203 C1209 1.390 . S
C1204 H1195 0.930 . S
C1204 C1202 1.384 . S
C1204 C1205 1.372 . S
C1205 C1204 1.372 . S
C1205 C1206 1.400 . S
C1205 C1210 1.490 . S
C1206 H1196 0.930 . S
C1206 C1205 1.400 . S
C1206 C1209 1.386 . S
H1207 C1223 0.930 . S
H1208 C1224 0.931 . S
C1209 H1197 0.929 . S
C1209 C1203 1.390 . S
C1209 C1206 1.386 . S
C1210 C1205 1.490 . S
C1210 C1212 1.395 . S
C1210 C1213 1.403 . S
H1211 C1217 0.930 . S
C1212 H1198 0.930 . S
C1212 C1210 1.395 . S
C1212 C1215 1.403 . S
C1213 C1210 1.403 . S
C1213 C1214 1.524 . S
C1213 C1217 1.400 . S
C1214 H1199 0.960 . S
C1214 H1200 0.960 . S
C1214 H1201 0.960 . S
C1214 C1213 1.524 . S
C1215 C1212 1.403 . S
C1215 C1216 1.392 . S
C1215 C1219 1.495 . S
C1216 C1215 1.392 . S
C1216 C1217 1.385 . S
C1216 C1218 1.478 . S
C1217 H1211 0.930 . S
C1217 C1213 1.400 . S
C1217 C1216 1.385 . S
C1218 C1216 1.478 . S
C1218 C1220 1.381 . S
C1218 C1224 1.383 . S
C1219 C1215 1.495 . S
C1219 H1225 0.959 . S
C1219 H1226 0.961 . S
C1219 H1227 0.960 . S
C1220 C1218 1.381 . S
C1220 C1221 1.394 . S
C1220 H1228 0.930 . S
C1221 C1220 1.394 . S
C1221 C1222 1.383 . S
C1221 H1229 0.929 . S
C1222 C1221 1.383 . S
C1222 C1223 1.377 . S
C1223 H1207 0.930 . S
C1223 C1222 1.377 . S
C1223 C1224 1.379 . S
C1224 H1208 0.931 . S
C1224 C1218 1.383 . S
C1224 C1223 1.379 . S
H1225 C1219 0.959 . S
H1226 C1219 0.961 . S
H1227 C1219 0.960 . S
H1228 C1220 0.930 . S
H1229 C1221 0.929 . S
H1230 C1238 0.929 . S
H1231 C1240 0.930 . S
H1232 C1242 0.930 . S
H1233 C1245 0.929 . S
H1234 C1248 0.930 . S
H1235 C1250 0.960 . S
H1236 C1250 0.960 . S
H1237 C1250 0.960 . S
C1238 H1230 0.929 . S
C1238 C1239 1.377 . S
C1238 C1240 1.384 . S
C1239 C1238 1.377 . S
C1239 C1245 1.390 . S
C1240 H1231 0.930 . S
C1240 C1238 1.384 . S
C1240 C1241 1.372 . S
C1241 C1240 1.372 . S
C1241 C1242 1.400 . S
C1241 C1246 1.490 . S
C1242 H1232 0.930 . S
C1242 C1241 1.400 . S
C1242 C1245 1.386 . S
H1243 C1259 0.930 . S
H1244 C1260 0.931 . S
C1245 H1233 0.929 . S
C1245 C1239 1.390 . S
C1245 C1242 1.386 . S
C1246 C1241 1.490 . S
C1246 C1248 1.395 . S
C1246 C1249 1.403 . S
H1247 C1253 0.930 . S
C1248 H1234 0.930 . S
C1248 C1246 1.395 . S
C1248 C1251 1.403 . S
C1249 C1246 1.403 . S
C1249 C1250 1.524 . S
C1249 C1253 1.400 . S
C1250 H1235 0.960 . S
C1250 H1236 0.960 . S
C1250 H1237 0.960 . S
C1250 C1249 1.524 . S
C1251 C1248 1.403 . S
C1251 C1252 1.392 . S
C1251 C1255 1.495 . S
C1252 C1251 1.392 . S
C1252 C1253 1.385 . S
C1252 C1254 1.478 . S
C1253 H1247 0.930 . S
C1253 C1249 1.400 . S
C1253 C1252 1.385 . S
C1254 C1252 1.478 . S
C1254 C1256 1.381 . S
C1254 C1260 1.383 . S
C1255 C1251 1.495 . S
C1255 H1261 0.959 . S
C1255 H1262 0.961 . S
C1255 H1263 0.960 . S
C1256 C1254 1.381 . S
C1256 C1257 1.394 . S
C1256 H1264 0.930 . S
C1257 C1256 1.394 . S
C1257 C1258 1.383 . S
C1257 H1265 0.929 . S
C1258 C1257 1.383 . S
C1258 C1259 1.377 . S
C1259 H1243 0.930 . S
C1259 C1258 1.377 . S
C1259 C1260 1.379 . S
C1260 H1244 0.931 . S
C1260 C1254 1.383 . S
C1260 C1259 1.379 . S
H1261 C1255 0.959 . S
H1262 C1255 0.961 . S
H1263 C1255 0.960 . S
H1264 C1256 0.930 . S
H1265 C1257 0.929 . S
H1266 C1274 0.929 . S
H1267 C1276 0.930 . S
H1268 C1278 0.930 . S
H1269 C1281 0.929 . S
H1270 C1284 0.930 . S
H1271 C1286 0.960 . S
H1272 C1286 0.960 . S
H1273 C1286 0.960 . S
C1274 H1266 0.929 . S
C1274 C1275 1.377 . S
C1274 C1276 1.384 . S
C1275 C1274 1.377 . S
C1275 C1281 1.390 . S
C1276 H1267 0.930 . S
C1276 C1274 1.384 . S
C1276 C1277 1.372 . S
C1277 C1276 1.372 . S
C1277 C1278 1.400 . S
C1277 C1282 1.490 . S
C1278 H1268 0.930 . S
C1278 C1277 1.400 . S
C1278 C1281 1.386 . S
H1279 C1295 0.930 . S
H1280 C1296 0.931 . S
C1281 H1269 0.929 . S
C1281 C1275 1.390 . S
C1281 C1278 1.386 . S
C1282 C1277 1.490 . S
C1282 C1284 1.395 . S
C1282 C1285 1.403 . S
H1283 C1289 0.930 . S
C1284 H1270 0.930 . S
C1284 C1282 1.395 . S
C1284 C1287 1.403 . S
C1285 C1282 1.403 . S
C1285 C1286 1.524 . S
C1285 C1289 1.400 . S
C1286 H1271 0.960 . S
C1286 H1272 0.960 . S
C1286 H1273 0.960 . S
C1286 C1285 1.524 . S
C1287 C1284 1.403 . S
C1287 C1288 1.392 . S
C1287 C1291 1.495 . S
C1288 C1287 1.392 . S
C1288 C1289 1.385 . S
C1288 C1290 1.478 . S
C1289 H1283 0.930 . S
C1289 C1285 1.400 . S
C1289 C1288 1.385 . S
C1290 C1288 1.478 . S
C1290 C1292 1.381 . S
C1290 C1296 1.383 . S
C1291 C1287 1.495 . S
C1291 H1297 0.959 . S
C1291 H1298 0.961 . S
C1291 H1299 0.960 . S
C1292 C1290 1.381 . S
C1292 C1293 1.394 . S
C1292 H1300 0.930 . S
C1293 C1292 1.394 . S
C1293 C1294 1.383 . S
C1293 H1301 0.929 . S
C1294 C1293 1.383 . S
C1294 C1295 1.377 . S
C1295 H1279 0.930 . S
C1295 C1294 1.377 . S
C1295 C1296 1.379 . S
C1296 H1280 0.931 . S
C1296 C1290 1.383 . S
C1296 C1295 1.379 . S
H1297 C1291 0.959 . S
H1298 C1291 0.961 . S
H1299 C1291 0.960 . S
H1300 C1292 0.930 . S
H1301 C1293 0.929 . S
H1302 C1310 0.929 . S
H1303 C1312 0.930 . S
H1304 C1314 0.930 . S
H1305 C1317 0.929 . S
H1306 C1320 0.930 . S
H1307 C1322 0.960 . S
H1308 C1322 0.960 . S
H1309 C1322 0.960 . S
C1310 H1302 0.929 . S
C1310 C1311 1.377 . S
C1310 C1312 1.384 . S
C1311 C1310 1.377 . S
C1311 C1317 1.390 . S
C1312 H1303 0.930 . S
C1312 C1310 1.384 . S
C1312 C1313 1.372 . S
C1313 C1312 1.372 . S
C1313 C1314 1.400 . S
C1313 C1318 1.490 . S
C1314 H1304 0.930 . S
C1314 C1313 1.400 . S
C1314 C1317 1.386 . S
H1315 C1331 0.930 . S
H1316 C1332 0.931 . S
C1317 H1305 0.929 . S
C1317 C1311 1.390 . S
C1317 C1314 1.386 . S
C1318 C1313 1.490 . S
C1318 C1320 1.395 . S
C1318 C1321 1.403 . S
H1319 C1325 0.930 . S
C1320 H1306 0.930 . S
C1320 C1318 1.395 . S
C1320 C1323 1.403 . S
C1321 C1318 1.403 . S
C1321 C1322 1.524 . S
C1321 C1325 1.400 . S
C1322 H1307 0.960 . S
C1322 H1308 0.960 . S
C1322 H1309 0.960 . S
C1322 C1321 1.524 . S
C1323 C1320 1.403 . S
C1323 C1324 1.392 . S
C1323 C1327 1.495 . S
C1324 C1323 1.392 . S
C1324 C1325 1.385 . S
C1324 C1326 1.478 . S
C1325 H1319 0.930 . S
C1325 C1321 1.400 . S
C1325 C1324 1.385 . S
C1326 C1324 1.478 . S
C1326 C1328 1.381 . S
C1326 C1332 1.383 . S
C1327 C1323 1.495 . S
C1327 H1333 0.959 . S
C1327 H1334 0.961 . S
C1327 H1335 0.960 . S
C1328 C1326 1.381 . S
C1328 C1329 1.394 . S
C1328 H1336 0.930 . S
C1329 C1328 1.394 . S
C1329 C1330 1.383 . S
C1329 H1337 0.929 . S
C1330 C1329 1.383 . S
C1330 C1331 1.377 . S
C1331 H1315 0.930 . S
C1331 C1330 1.377 . S
C1331 C1332 1.379 . S
C1332 H1316 0.931 . S
C1332 C1326 1.383 . S
C1332 C1331 1.379 . S
H1333 C1327 0.959 . S
H1334 C1327 0.961 . S
H1335 C1327 0.960 . S
H1336 C1328 0.930 . S
H1337 C1329 0.929 . S
H1338 C1346 0.929 . S
H1339 C1348 0.930 . S
H1340 C1350 0.930 . S
H1341 C1353 0.929 . S
H1342 C1356 0.930 . S
H1343 C1358 0.960 . S
H1344 C1358 0.960 . S
H1345 C1358 0.960 . S
C1346 H1338 0.929 . S
C1346 C1347 1.377 . S
C1346 C1348 1.384 . S
C1347 C1346 1.377 . S
C1347 C1353 1.390 . S
C1348 H1339 0.930 . S
C1348 C1346 1.384 . S
C1348 C1349 1.372 . S
C1349 C1348 1.372 . S
C1349 C1350 1.400 . S
C1349 C1354 1.490 . S
C1350 H1340 0.930 . S
C1350 C1349 1.400 . S
C1350 C1353 1.386 . S
H1351 C1367 0.930 . S
H1352 C1368 0.931 . S
C1353 H1341 0.929 . S
C1353 C1347 1.390 . S
C1353 C1350 1.386 . S
C1354 C1349 1.490 . S
C1354 C1356 1.395 . S
C1354 C1357 1.403 . S
H1355 C1361 0.930 . S
C1356 H1342 0.930 . S
C1356 C1354 1.395 . S
C1356 C1359 1.403 . S
C1357 C1354 1.403 . S
C1357 C1358 1.524 . S
C1357 C1361 1.400 . S
C1358 H1343 0.960 . S
C1358 H1344 0.960 . S
C1358 H1345 0.960 . S
C1358 C1357 1.524 . S
C1359 C1356 1.403 . S
C1359 C1360 1.392 . S
C1359 C1363 1.495 . S
C1360 C1359 1.392 . S
C1360 C1361 1.385 . S
C1360 C1362 1.478 . S
C1361 H1355 0.930 . S
C1361 C1357 1.400 . S
C1361 C1360 1.385 . S
C1362 C1360 1.478 . S
C1362 C1364 1.381 . S
C1362 C1368 1.383 . S
C1363 C1359 1.495 . S
C1363 H1369 0.959 . S
C1363 H1370 0.961 . S
C1363 H1371 0.960 . S
C1364 C1362 1.381 . S
C1364 C1365 1.394 . S
C1364 H1372 0.930 . S
C1365 C1364 1.394 . S
C1365 C1366 1.383 . S
C1365 H1373 0.929 . S
C1366 C1365 1.383 . S
C1366 C1367 1.377 . S
C1367 H1351 0.930 . S
C1367 C1366 1.377 . S
C1367 C1368 1.379 . S
C1368 H1352 0.931 . S
C1368 C1362 1.383 . S
C1368 C1367 1.379 . S
H1369 C1363 0.959 . S
H1370 C1363 0.961 . S
H1371 C1363 0.960 . S
H1372 C1364 0.930 . S
H1373 C1365 0.929 . S
H1374 C1382 0.929 . S
H1375 C1384 0.930 . S
H1376 C1386 0.930 . S
H1377 C1389 0.929 . S
H1378 C1392 0.930 . S
H1379 C1394 0.960 . S
H1380 C1394 0.960 . S
H1381 C1394 0.960 . S
C1382 H1374 0.929 . S
C1382 C1383 1.377 . S
C1382 C1384 1.384 . S
C1383 C1382 1.377 . S
C1383 C1389 1.390 . S
C1384 H1375 0.930 . S
C1384 C1382 1.384 . S
C1384 C1385 1.372 . S
C1385 C1384 1.372 . S
C1385 C1386 1.400 . S
C1385 C1390 1.490 . S
C1386 H1376 0.930 . S
C1386 C1385 1.400 . S
C1386 C1389 1.386 . S
H1387 C1403 0.930 . S
H1388 C1404 0.931 . S
C1389 H1377 0.929 . S
C1389 C1383 1.390 . S
C1389 C1386 1.386 . S
C1390 C1385 1.490 . S
C1390 C1392 1.395 . S
C1390 C1393 1.403 . S
H1391 C1397 0.930 . S
C1392 H1378 0.930 . S
C1392 C1390 1.395 . S
C1392 C1395 1.403 . S
C1393 C1390 1.403 . S
C1393 C1394 1.524 . S
C1393 C1397 1.400 . S
C1394 H1379 0.960 . S
C1394 H1380 0.960 . S
C1394 H1381 0.960 . S
C1394 C1393 1.524 . S
C1395 C1392 1.403 . S
C1395 C1396 1.392 . S
C1395 C1399 1.495 . S
C1396 C1395 1.392 . S
C1396 C1397 1.385 . S
C1396 C1398 1.478 . S
C1397 H1391 0.930 . S
C1397 C1393 1.400 . S
C1397 C1396 1.385 . S
C1398 C1396 1.478 . S
C1398 C1400 1.381 . S
C1398 C1404 1.383 . S
C1399 C1395 1.495 . S
C1399 H1405 0.959 . S
C1399 H1406 0.961 . S
C1399 H1407 0.960 . S
C1400 C1398 1.381 . S
C1400 C1401 1.394 . S
C1400 H1408 0.930 . S
C1401 C1400 1.394 . S
C1401 C1402 1.383 . S
C1401 H1409 0.929 . S
C1402 C1401 1.383 . S
C1402 C1403 1.377 . S
C1403 H1387 0.930 . S
C1403 C1402 1.377 . S
C1403 C1404 1.379 . S
C1404 H1388 0.931 . S
C1404 C1398 1.383 . S
C1404 C1403 1.379 . S
H1405 C1399 0.959 . S
H1406 C1399 0.961 . S
H1407 C1399 0.960 . S
H1408 C1400 0.930 . S
H1409 C1401 0.929 . S
H1410 C1418 0.929 . S
H1411 C1420 0.930 . S
H1412 C1422 0.930 . S
H1413 C1425 0.929 . S
H1414 C1428 0.930 . S
H1415 C1430 0.960 . S
H1416 C1430 0.960 . S
H1417 C1430 0.960 . S
C1418 H1410 0.929 . S
C1418 C1419 1.377 . S
C1418 C1420 1.384 . S
C1419 C1418 1.377 . S
C1419 C1425 1.390 . S
C1420 H1411 0.930 . S
C1420 C1418 1.384 . S
C1420 C1421 1.372 . S
C1421 C1420 1.372 . S
C1421 C1422 1.400 . S
C1421 C1426 1.490 . S
C1422 H1412 0.930 . S
C1422 C1421 1.400 . S
C1422 C1425 1.386 . S
H1423 C1439 0.930 . S
H1424 C1440 0.931 . S
C1425 H1413 0.929 . S
C1425 C1419 1.390 . S
C1425 C1422 1.386 . S
C1426 C1421 1.490 . S
C1426 C1428 1.395 . S
C1426 C1429 1.403 . S
H1427 C1433 0.930 . S
C1428 H1414 0.930 . S
C1428 C1426 1.395 . S
C1428 C1431 1.403 . S
C1429 C1426 1.403 . S
C1429 C1430 1.524 . S
C1429 C1433 1.400 . S
C1430 H1415 0.960 . S
C1430 H1416 0.960 . S
C1430 H1417 0.960 . S
C1430 C1429 1.524 . S
C1431 C1428 1.403 . S
C1431 C1432 1.392 . S
C1431 C1435 1.495 . S
C1432 C1431 1.392 . S
C1432 C1433 1.385 . S
C1432 C1434 1.478 . S
C1433 H1427 0.930 . S
C1433 C1429 1.400 . S
C1433 C1432 1.385 . S
C1434 C1432 1.478 . S
C1434 C1436 1.381 . S
C1434 C1440 1.383 . S
C1435 C1431 1.495 . S
C1435 H1441 0.959 . S
C1435 H1442 0.961 . S
C1435 H1443 0.960 . S
C1436 C1434 1.381 . S
C1436 C1437 1.394 . S
C1436 H1444 0.930 . S
C1437 C1436 1.394 . S
C1437 C1438 1.383 . S
C1437 H1445 0.929 . S
C1438 C1437 1.383 . S
C1438 C1439 1.377 . S
C1439 H1423 0.930 . S
C1439 C1438 1.377 . S
C1439 C1440 1.379 . S
C1440 H1424 0.931 . S
C1440 C1434 1.383 . S
C1440 C1439 1.379 . S
H1441 C1435 0.959 . S
H1442 C1435 0.961 . S
H1443 C1435 0.960 . S
H1444 C1436 0.930 . S
H1445 C1437 0.929 . S
H1446 C1454 0.929 . S
H1447 C1456 0.930 . S
H1448 C1458 0.930 . S
H1449 C1461 0.929 . S
H1450 C1464 0.930 . S
H1451 C1466 0.960 . S
H1452 C1466 0.960 . S
H1453 C1466 0.960 . S
C1454 H1446 0.929 . S
C1454 C1455 1.377 . S
C1454 C1456 1.384 . S
C1455 C1454 1.377 . S
C1455 C1461 1.390 . S
C1456 H1447 0.930 . S
C1456 C1454 1.384 . S
C1456 C1457 1.372 . S
C1457 C1456 1.372 . S
C1457 C1458 1.400 . S
C1457 C1462 1.490 . S
C1458 H1448 0.930 . S
C1458 C1457 1.400 . S
C1458 C1461 1.386 . S
H1459 C1475 0.930 . S
H1460 C1476 0.931 . S
C1461 H1449 0.929 . S
C1461 C1455 1.390 . S
C1461 C1458 1.386 . S
C1462 C1457 1.490 . S
C1462 C1464 1.395 . S
C1462 C1465 1.403 . S
H1463 C1469 0.930 . S
C1464 H1450 0.930 . S
C1464 C1462 1.395 . S
C1464 C1467 1.403 . S
C1465 C1462 1.403 . S
C1465 C1466 1.524 . S
C1465 C1469 1.400 . S
C1466 H1451 0.960 . S
C1466 H1452 0.960 . S
C1466 H1453 0.960 . S
C1466 C1465 1.524 . S
C1467 C1464 1.403 . S
C1467 C1468 1.392 . S
C1467 C1471 1.495 . S
C1468 C1467 1.392 . S
C1468 C1469 1.385 . S
C1468 C1470 1.478 . S
C1469 H1463 0.930 . S
C1469 C1465 1.400 . S
C1469 C1468 1.385 . S
C1470 C1468 1.478 . S
C1470 C1472 1.381 . S
C1470 C1476 1.383 . S
C1471 C1467 1.495 . S
C1471 H1477 0.959 . S
C1471 H1478 0.961 . S
C1471 H1479 0.960 . S
C1472 C1470 1.381 . S
C1472 C1473 1.394 . S
C1472 H1480 0.930 . S
C1473 C1472 1.394 . S
C1473 C1474 1.383 . S
C1473 H1481 0.929 . S
C1474 C1473 1.383 . S
C1474 C1475 1.377 . S
C1475 H1459 0.930 . S
C1475 C1474 1.377 . S
C1475 C1476 1.379 . S
C1476 H1460 0.931 . S
C1476 C1470 1.383 . S
C1476 C1475 1.379 . S
H1477 C1471 0.959 . S
H1478 C1471 0.961 . S
H1479 C1471 0.960 . S
H1480 C1472 0.930 . S
H1481 C1473 0.929 . S
H1482 C1490 0.929 . S
H1483 C1492 0.930 . S
H1484 C1494 0.930 . S
H1485 C1497 0.929 . S
H1486 C1500 0.930 . S
H1487 C1502 0.960 . S
H1488 C1502 0.960 . S
H1489 C1502 0.960 . S
C1490 H1482 0.929 . S
C1490 C1491 1.377 . S
C1490 C1492 1.384 . S
C1491 C1490 1.377 . S
C1491 C1497 1.390 . S
C1492 H1483 0.930 . S
C1492 C1490 1.384 . S
C1492 C1493 1.372 . S
C1493 C1492 1.372 . S
C1493 C1494 1.400 . S
C1493 C1498 1.490 . S
C1494 H1484 0.930 . S
C1494 C1493 1.400 . S
C1494 C1497 1.386 . S
H1495 C1511 0.930 . S
H1496 C1512 0.931 . S
C1497 H1485 0.929 . S
C1497 C1491 1.390 . S
C1497 C1494 1.386 . S
C1498 C1493 1.490 . S
C1498 C1500 1.395 . S
C1498 C1501 1.403 . S
H1499 C1505 0.930 . S
C1500 H1486 0.930 . S
C1500 C1498 1.395 . S
C1500 C1503 1.403 . S
C1501 C1498 1.403 . S
C1501 C1502 1.524 . S
C1501 C1505 1.400 . S
C1502 H1487 0.960 . S
C1502 H1488 0.960 . S
C1502 H1489 0.960 . S
C1502 C1501 1.524 . S
C1503 C1500 1.403 . S
C1503 C1504 1.392 . S
C1503 C1507 1.495 . S
C1504 C1503 1.392 . S
C1504 C1505 1.385 . S
C1504 C1506 1.478 . S
C1505 H1499 0.930 . S
C1505 C1501 1.400 . S
C1505 C1504 1.385 . S
C1506 C1504 1.478 . S
C1506 C1508 1.381 . S
C1506 C1512 1.383 . S
C1507 C1503 1.495 . S
C1507 H1513 0.959 . S
C1507 H1514 0.961 . S
C1507 H1515 0.960 . S
C1508 C1506 1.381 . S
C1508 C1509 1.394 . S
C1508 H1516 0.930 . S
C1509 C1508 1.394 . S
C1509 C1510 1.383 . S
C1509 H1517 0.929 . S
C1510 C1509 1.383 . S
C1510 C1511 1.377 . S
C1511 H1495 0.930 . S
C1511 C1510 1.377 . S
C1511 C1512 1.379 . S
C1512 H1496 0.931 . S
C1512 C1506 1.383 . S
C1512 C1511 1.379 . S
H1513 C1507 0.959 . S
H1514 C1507 0.961 . S
H1515 C1507 0.960 . S
H1516 C1508 0.930 . S
H1517 C1509 0.929 . S
H1518 C1526 0.929 . S
H1519 C1528 0.930 . S
H1520 C1530 0.930 . S
H1521 C1533 0.929 . S
H1522 C1536 0.930 . S
H1523 C1538 0.960 . S
H1524 C1538 0.960 . S
H1525 C1538 0.960 . S
C1526 H1518 0.929 . S
C1526 C1527 1.377 . S
C1526 C1528 1.384 . S
C1527 C1526 1.377 . S
C1527 C1533 1.390 . S
C1528 H1519 0.930 . S
C1528 C1526 1.384 . S
C1528 C1529 1.372 . S
C1529 C1528 1.372 . S
C1529 C1530 1.400 . S
C1529 C1534 1.490 . S
C1530 H1520 0.930 . S
C1530 C1529 1.400 . S
C1530 C1533 1.386 . S
H1531 C1547 0.930 . S
H1532 C1548 0.931 . S
C1533 H1521 0.929 . S
C1533 C1527 1.390 . S
C1533 C1530 1.386 . S
C1534 C1529 1.490 . S
C1534 C1536 1.395 . S
C1534 C1537 1.403 . S
H1535 C1541 0.930 . S
C1536 H1522 0.930 . S
C1536 C1534 1.395 . S
C1536 C1539 1.403 . S
C1537 C1534 1.403 . S
C1537 C1538 1.524 . S
C1537 C1541 1.400 . S
C1538 H1523 0.960 . S
C1538 H1524 0.960 . S
C1538 H1525 0.960 . S
C1538 C1537 1.524 . S
C1539 C1536 1.403 . S
C1539 C1540 1.392 . S
C1539 C1543 1.495 . S
C1540 C1539 1.392 . S
C1540 C1541 1.385 . S
C1540 C1542 1.478 . S
C1541 H1535 0.930 . S
C1541 C1537 1.400 . S
C1541 C1540 1.385 . S
C1542 C1540 1.478 . S
C1542 C1544 1.381 . S
C1542 C1548 1.383 . S
C1543 C1539 1.495 . S
C1543 H1549 0.959 . S
C1543 H1550 0.961 . S
C1543 H1551 0.960 . S
C1544 C1542 1.381 . S
C1544 C1545 1.394 . S
C1544 H1552 0.930 . S
C1545 C1544 1.394 . S
C1545 C1546 1.383 . S
C1545 H1553 0.929 . S
C1546 C1545 1.383 . S
C1546 C1547 1.377 . S
C1547 H1531 0.930 . S
C1547 C1546 1.377 . S
C1547 C1548 1.379 . S
C1548 H1532 0.931 . S
C1548 C1542 1.383 . S
C1548 C1547 1.379 . S
H1549 C1543 0.959 . S
H1550 C1543 0.961 . S
H1551 C1543 0.960 . S
H1552 C1544 0.930 . S
H1553 C1545 0.929 . S
H1554 C1562 0.929 . S
H1555 C1564 0.930 . S
H1556 C1566 0.930 . S
H1557 C1569 0.929 . S
H1558 C1572 0.930 . S
H1559 C1574 0.960 . S
H1560 C1574 0.960 . S
H1561 C1574 0.960 . S
C1562 H1554 0.929 . S
C1562 C1563 1.377 . S
C1562 C1564 1.384 . S
C1563 C1562 1.377 . S
C1563 C1569 1.390 . S
C1564 H1555 0.930 . S
C1564 C1562 1.384 . S
C1564 C1565 1.372 . S
C1565 C1564 1.372 . S
C1565 C1566 1.400 . S
C1565 C1570 1.490 . S
C1566 H1556 0.930 . S
C1566 C1565 1.400 . S
C1566 C1569 1.386 . S
H1567 C1583 0.930 . S
H1568 C1584 0.931 . S
C1569 H1557 0.929 . S
C1569 C1563 1.390 . S
C1569 C1566 1.386 . S
C1570 C1565 1.490 . S
C1570 C1572 1.395 . S
C1570 C1573 1.403 . S
H1571 C1577 0.930 . S
C1572 H1558 0.930 . S
C1572 C1570 1.395 . S
C1572 C1575 1.403 . S
C1573 C1570 1.403 . S
C1573 C1574 1.524 . S
C1573 C1577 1.400 . S
C1574 H1559 0.960 . S
C1574 H1560 0.960 . S
C1574 H1561 0.960 . S
C1574 C1573 1.524 . S
C1575 C1572 1.403 . S
C1575 C1576 1.392 . S
C1575 C1579 1.495 . S
C1576 C1575 1.392 . S
C1576 C1577 1.385 . S
C1576 C1578 1.478 . S
C1577 H1571 0.930 . S
C1577 C1573 1.400 . S
C1577 C1576 1.385 . S
C1578 C1576 1.478 . S
C1578 C1580 1.381 . S
C1578 C1584 1.383 . S
C1579 C1575 1.495 . S
C1579 H1585 0.959 . S
C1579 H1586 0.961 . S
C1579 H1587 0.960 . S
C1580 C1578 1.381 . S
C1580 C1581 1.394 . S
C1580 H1588 0.930 . S
C1581 C1580 1.394 . S
C1581 C1582 1.383 . S
C1581 H1589 0.958 . S
C1582 C1581 1.383 . S
C1582 C1583 1.377 . S
C1583 H1567 0.930 . S
C1583 C1582 1.377 . S
C1583 C1584 1.379 . S
C1584 H1568 0.931 . S
C1584 C1578 1.383 . S
C1584 C1583 1.379 . S
H1585 C1579 0.959 . S
H1586 C1579 0.961 . S
H1587 C1579 0.960 . S
H1588 C1580 0.930 . S
H1589 C1581 0.958 . S
H1590 C1598 0.929 . S
H1591 C1600 0.930 . S
H1592 C1602 0.930 . S
H1593 C1605 0.929 . S
H1594 C1608 0.930 . S
H1595 C1610 0.960 . S
H1596 C1610 0.960 . S
H1597 C1610 0.960 . S
C1598 H1590 0.929 . S
C1598 C1599 1.377 . S
C1598 C1600 1.384 . S
C1599 C1598 1.377 . S
C1599 C1605 1.390 . S
C1600 H1591 0.930 . S
C1600 C1598 1.384 . S
C1600 C1601 1.372 . S
C1601 C1600 1.372 . S
C1601 C1602 1.400 . S
C1601 C1606 1.490 . S
C1602 H1592 0.930 . S
C1602 C1601 1.400 . S
C1602 C1605 1.386 . S
H1603 C1619 0.930 . S
H1604 C1620 0.931 . S
C1605 H1593 0.929 . S
C1605 C1599 1.390 . S
C1605 C1602 1.386 . S
C1606 C1601 1.490 . S
C1606 C1608 1.395 . S
C1606 C1609 1.403 . S
H1607 C1613 0.930 . S
C1608 H1594 0.930 . S
C1608 C1606 1.395 . S
C1608 C1611 1.403 . S
C1609 C1606 1.403 . S
C1609 C1610 1.524 . S
C1609 C1613 1.400 . S
C1610 H1595 0.960 . S
C1610 H1596 0.960 . S
C1610 H1597 0.960 . S
C1610 C1609 1.524 . S
C1611 C1608 1.403 . S
C1611 C1612 1.392 . S
C1611 C1615 1.495 . S
C1612 C1611 1.392 . S
C1612 C1613 1.385 . S
C1612 C1614 1.478 . S
C1613 H1607 0.930 . S
C1613 C1609 1.400 . S
C1613 C1612 1.385 . S
C1614 C1612 1.478 . S
C1614 C1616 1.381 . S
C1614 C1620 1.383 . S
C1615 C1611 1.495 . S
C1615 H1621 0.959 . S
C1615 H1622 0.961 . S
C1615 H1623 0.960 . S
C1616 C1614 1.381 . S
C1616 C1617 1.394 . S
C1616 H1624 0.930 . S
C1617 C1616 1.394 . S
C1617 C1618 1.383 . S
C1617 H1625 0.929 . S
C1618 C1617 1.383 . S
C1618 C1619 1.377 . S
C1619 H1603 0.930 . S
C1619 C1618 1.377 . S
C1619 C1620 1.379 . S
C1620 H1604 0.931 . S
C1620 C1614 1.383 . S
C1620 C1619 1.379 . S
H1621 C1615 0.959 . S
H1622 C1615 0.961 . S
H1623 C1615 0.960 . S
H1624 C1616 0.930 . S
H1625 C1617 0.929 . S
H1626 C1634 0.929 . S
H1627 C1636 0.930 . S
H1628 C1638 0.930 . S
H1629 C1641 0.929 . S
H1630 C1644 0.930 . S
H1631 C1646 0.960 . S
H1632 C1646 0.960 . S
H1633 C1646 0.960 . S
C1634 H1626 0.929 . S
C1634 C1635 1.377 . S
C1634 C1636 1.384 . S
C1635 C1634 1.377 . S
C1635 C1641 1.390 . S
C1636 H1627 0.930 . S
C1636 C1634 1.384 . S
C1636 C1637 1.372 . S
C1637 C1636 1.372 . S
C1637 C1638 1.400 . S
C1637 C1642 1.490 . S
C1638 H1628 0.930 . S
C1638 C1637 1.400 . S
C1638 C1641 1.386 . S
H1639 C1655 0.930 . S
H1640 C1656 0.931 . S
C1641 H1629 0.929 . S
C1641 C1635 1.390 . S
C1641 C1638 1.386 . S
C1642 C1637 1.490 . S
C1642 C1644 1.395 . S
C1642 C1645 1.403 . S
H1643 C1649 0.930 . S
C1644 H1630 0.930 . S
C1644 C1642 1.395 . S
C1644 C1647 1.403 . S
C1645 C1642 1.403 . S
C1645 C1646 1.524 . S
C1645 C1649 1.400 . S
C1646 H1631 0.960 . S
C1646 H1632 0.960 . S
C1646 H1633 0.960 . S
C1646 C1645 1.524 . S
C1647 C1644 1.403 . S
C1647 C1648 1.392 . S
C1647 C1651 1.495 . S
C1648 C1647 1.392 . S
C1648 C1649 1.385 . S
C1648 C1650 1.478 . S
C1649 H1643 0.930 . S
C1649 C1645 1.400 . S
C1649 C1648 1.385 . S
C1650 C1648 1.478 . S
C1650 C1652 1.381 . S
C1650 C1656 1.383 . S
C1651 C1647 1.495 . S
C1651 H1657 0.959 . S
C1651 H1658 0.961 . S
C1651 H1659 0.960 . S
C1652 C1650 1.381 . S
C1652 C1653 1.394 . S
C1652 H1660 0.930 . S
C1653 C1652 1.394 . S
C1653 C1654 1.383 . S
C1653 H1661 0.960 . S
C1654 C1653 1.383 . S
C1654 C1655 1.377 . S
C1655 H1639 0.930 . S
C1655 C1654 1.377 . S
C1655 C1656 1.379 . S
C1656 H1640 0.931 . S
C1656 C1650 1.383 . S
C1656 C1655 1.379 . S
H1657 C1651 0.959 . S
H1658 C1651 0.961 . S
H1659 C1651 0.960 . S
H1660 C1652 0.930 . S
H1661 C1653 0.960 . S
H1662 C1670 0.929 . S
H1663 C1672 0.930 . S
H1664 C1674 0.930 . S
H1665 C1677 0.929 . S
H1666 C1680 0.930 . S
H1667 C1682 0.960 . S
H1668 C1682 0.960 . S
H1669 C1682 0.960 . S
C1670 H1662 0.929 . S
C1670 C1671 1.377 . S
C1670 C1672 1.384 . S
C1671 C1670 1.377 . S
C1671 C1677 1.390 . S
C1672 H1663 0.930 . S
C1672 C1670 1.384 . S
C1672 C1673 1.372 . S
C1673 C1672 1.372 . S
C1673 C1674 1.400 . S
C1673 C1678 1.490 . S
C1674 H1664 0.930 . S
C1674 C1673 1.400 . S
C1674 C1677 1.386 . S
H1675 C1691 0.930 . S
H1676 C1692 0.931 . S
C1677 H1665 0.929 . S
C1677 C1671 1.390 . S
C1677 C1674 1.386 . S
C1678 C1673 1.490 . S
C1678 C1680 1.395 . S
C1678 C1681 1.403 . S
H1679 C1685 0.930 . S
C1680 H1666 0.930 . S
C1680 C1678 1.395 . S
C1680 C1683 1.403 . S
C1681 C1678 1.403 . S
C1681 C1682 1.524 . S
C1681 C1685 1.400 . S
C1682 H1667 0.960 . S
C1682 H1668 0.960 . S
C1682 H1669 0.960 . S
C1682 C1681 1.524 . S
C1683 C1680 1.403 . S
C1683 C1684 1.392 . S
C1683 C1687 1.495 . S
C1684 C1683 1.392 . S
C1684 C1685 1.385 . S
C1684 C1686 1.478 . S
C1685 H1679 0.930 . S
C1685 C1681 1.400 . S
C1685 C1684 1.385 . S
C1686 C1684 1.478 . S
C1686 C1688 1.381 . S
C1686 C1692 1.383 . S
C1687 C1683 1.495 . S
C1687 H1693 0.959 . S
C1687 H1694 0.961 . S
C1687 H1695 0.960 . S
C1688 C1686 1.381 . S
C1688 C1689 1.394 . S
C1688 H1696 0.930 . S
C1689 C1688 1.394 . S
C1689 C1690 1.383 . S
C1689 H1697 0.929 . S
C1690 C1689 1.383 . S
C1690 C1691 1.377 . S
C1691 H1675 0.930 . S
C1691 C1690 1.377 . S
C1691 C1692 1.379 . S
C1692 H1676 0.931 . S
C1692 C1686 1.383 . S
C1692 C1691 1.379 . S
H1693 C1687 0.959 . S
H1694 C1687 0.961 . S
H1695 C1687 0.960 . S
H1696 C1688 0.930 . S
H1697 C1689 0.929 . S
H1698 C1706 0.929 . S
H1699 C1708 0.930 . S
H1700 C1710 0.930 . S
H1701 C1713 0.929 . S
H1702 C1716 0.930 . S
H1703 C1718 0.960 . S
H1704 C1718 0.960 . S
H1705 C1718 0.960 . S
C1706 H1698 0.929 . S
C1706 C1707 1.377 . S
C1706 C1708 1.384 . S
C1707 C1706 1.377 . S
C1707 C1713 1.390 . S
C1708 H1699 0.930 . S
C1708 C1706 1.384 . S
C1708 C1709 1.372 . S
C1709 C1708 1.372 . S
C1709 C1710 1.400 . S
C1709 C1714 1.490 . S
C1710 H1700 0.930 . S
C1710 C1709 1.400 . S
C1710 C1713 1.386 . S
H1711 C1727 0.930 . S
H1712 C1728 0.931 . S
C1713 H1701 0.929 . S
C1713 C1707 1.390 . S
C1713 C1710 1.386 . S
C1714 C1709 1.490 . S
C1714 C1716 1.395 . S
C1714 C1717 1.403 . S
H1715 C1721 0.930 . S
C1716 H1702 0.930 . S
C1716 C1714 1.395 . S
C1716 C1719 1.403 . S
C1717 C1714 1.403 . S
C1717 C1718 1.524 . S
C1717 C1721 1.400 . S
C1718 H1703 0.960 . S
C1718 H1704 0.960 . S
C1718 H1705 0.960 . S
C1718 C1717 1.524 . S
C1719 C1716 1.403 . S
C1719 C1720 1.392 . S
C1719 C1723 1.495 . S
C1720 C1719 1.392 . S
C1720 C1721 1.385 . S
C1720 C1722 1.478 . S
C1721 H1715 0.930 . S
C1721 C1717 1.400 . S
C1721 C1720 1.385 . S
C1722 C1720 1.478 . S
C1722 C1724 1.381 . S
C1722 C1728 1.383 . S
C1723 C1719 1.495 . S
C1723 H1729 0.959 . S
C1723 H1730 0.961 . S
C1723 H1731 0.960 . S
C1724 C1722 1.381 . S
C1724 C1725 1.394 . S
C1724 H1732 0.930 . S
C1725 C1724 1.394 . S
C1725 C1726 1.383 . S
C1725 H1733 0.929 . S
C1726 C1725 1.383 . S
C1726 C1727 1.377 . S
C1727 H1711 0.930 . S
C1727 C1726 1.377 . S
C1727 C1728 1.379 . S
C1728 H1712 0.931 . S
C1728 C1722 1.383 . S
C1728 C1727 1.379 . S
H1729 C1723 0.959 . S
H1730 C1723 0.961 . S
H1731 C1723 0.960 . S
H1732 C1724 0.930 . S
H1733 C1725 0.929 . S
H1734 C1742 0.929 . S
H1735 C1744 0.930 . S
H1736 C1746 0.930 . S
H1737 C1749 0.929 . S
H1738 C1752 0.930 . S
H1739 C1754 0.960 . S
H1740 C1754 0.960 . S
H1741 C1754 0.960 . S
C1742 H1734 0.929 . S
C1742 C1743 1.377 . S
C1742 C1744 1.384 . S
C1743 C1742 1.377 . S
C1743 C1749 1.390 . S
C1744 H1735 0.930 . S
C1744 C1742 1.384 . S
C1744 C1745 1.372 . S
C1745 C1744 1.372 . S
C1745 C1746 1.400 . S
C1745 C1750 1.490 . S
C1746 H1736 0.930 . S
C1746 C1745 1.400 . S
C1746 C1749 1.386 . S
H1747 C1763 0.930 . S
H1748 C1764 0.931 . S
C1749 H1737 0.929 . S
C1749 C1743 1.390 . S
C1749 C1746 1.386 . S
C1750 C1745 1.490 . S
C1750 C1752 1.395 . S
C1750 C1753 1.403 . S
H1751 C1757 0.930 . S
C1752 H1738 0.930 . S
C1752 C1750 1.395 . S
C1752 C1755 1.403 . S
C1753 C1750 1.403 . S
C1753 C1754 1.524 . S
C1753 C1757 1.400 . S
C1754 H1739 0.960 . S
C1754 H1740 0.960 . S
C1754 H1741 0.960 . S
C1754 C1753 1.524 . S
C1755 C1752 1.403 . S
C1755 C1756 1.392 . S
C1755 C1759 1.495 . S
C1756 C1755 1.392 . S
C1756 C1757 1.385 . S
C1756 C1758 1.478 . S
C1757 H1751 0.930 . S
C1757 C1753 1.400 . S
C1757 C1756 1.385 . S
C1758 C1756 1.478 . S
C1758 C1760 1.381 . S
C1758 C1764 1.383 . S
C1759 C1755 1.495 . S
C1759 H1765 0.959 . S
C1759 H1766 0.961 . S
C1759 H1767 0.960 . S
C1760 C1758 1.381 . S
C1760 C1761 1.394 . S
C1760 H1768 0.930 . S
C1761 C1760 1.394 . S
C1761 C1762 1.383 . S
C1761 H1769 0.929 . S
C1762 C1761 1.383 . S
C1762 C1763 1.377 . S
C1763 H1747 0.930 . S
C1763 C1762 1.377 . S
C1763 C1764 1.379 . S
C1764 H1748 0.931 . S
C1764 C1758 1.383 . S
C1764 C1763 1.379 . S
H1765 C1759 0.959 . S
H1766 C1759 0.961 . S
H1767 C1759 0.960 . S
H1768 C1760 0.930 . S
H1769 C1761 0.929 . S
H1770 C1778 0.929 . S
H1771 C1780 0.930 . S
H1772 C1782 0.930 . S
H1773 C1785 0.929 . S
H1774 C1788 0.930 . S
H1775 C1790 0.960 . S
H1776 C1790 0.960 . S
H1777 C1790 0.960 . S
C1778 H1770 0.929 . S
C1778 C1779 1.377 . S
C1778 C1780 1.384 . S
C1779 C1778 1.377 . S
C1779 C1785 1.390 . S
C1780 H1771 0.930 . S
C1780 C1778 1.384 . S
C1780 C1781 1.372 . S
C1781 C1780 1.372 . S
C1781 C1782 1.400 . S
C1781 C1786 1.490 . S
C1782 H1772 0.930 . S
C1782 C1781 1.400 . S
C1782 C1785 1.386 . S
H1783 C1799 0.925 1_554 S
H1784 C1800 0.931 . S
C1785 H1773 0.929 . S
C1785 C1779 1.390 . S
C1785 C1782 1.386 . S
C1786 C1781 1.490 . S
C1786 C1788 1.395 . S
C1786 C1789 1.403 . S
H1787 C1793 0.930 . S
C1788 H1774 0.930 . S
C1788 C1786 1.395 . S
C1788 C1791 1.403 . S
C1789 C1786 1.403 . S
C1789 C1790 1.524 . S
C1789 C1793 1.400 . S
C1790 H1775 0.960 . S
C1790 H1776 0.960 . S
C1790 H1777 0.960 . S
C1790 C1789 1.524 . S
C1791 C1788 1.403 . S
C1791 C1792 1.392 . S
C1791 C1795 1.495 . S
C1792 C1791 1.392 . S
C1792 C1793 1.385 . S
C1792 C1794 1.478 . S
C1793 H1787 0.930 . S
C1793 C1789 1.400 . S
C1793 C1792 1.385 . S
C1794 C1792 1.478 . S
C1794 C1796 1.381 . S
C1794 C1800 1.383 . S
C1795 C1791 1.495 . S
C1795 H1801 0.959 . S
C1795 H1802 0.961 . S
C1795 H1803 0.960 . S
C1796 C1794 1.381 . S
C1796 C1797 1.394 . S
C1796 H1804 0.930 . S
C1797 C1796 1.394 . S
C1797 C1798 1.383 . S
C1797 H1805 0.929 . S
C1798 C1797 1.383 . S
C1798 C1799 1.377 . S
C1799 H1783 0.925 1_556 S
C1799 C1798 1.377 . S
C1799 C1800 1.379 . S
C1800 H1784 0.931 . S
C1800 C1794 1.383 . S
C1800 C1799 1.379 . S
H1801 C1795 0.959 . S
H1802 C1795 0.961 . S
H1803 C1795 0.960 . S
H1804 C1796 0.930 . S
H1805 C1797 0.929 . S
H1806 C1814 0.929 . S
H1807 C1816 0.930 . S
H1808 C1818 0.930 . S
H1809 C1821 0.929 . S
H1810 C1824 0.930 . S
H1811 C1826 0.960 . S
H1812 C1826 0.960 . S
H1813 C1826 0.960 . S
C1814 H1806 0.929 . S
C1814 C1815 1.377 . S
C1814 C1816 1.384 . S
C1815 C1814 1.377 . S
C1815 C1821 1.390 . S
C1816 H1807 0.930 . S
C1816 C1814 1.384 . S
C1816 C1817 1.372 . S
C1817 C1816 1.372 . S
C1817 C1818 1.400 . S
C1817 C1822 1.490 . S
C1818 H1808 0.930 . S
C1818 C1817 1.400 . S
C1818 C1821 1.386 . S
H1819 C1835 0.930 . S
H1820 C1836 0.931 . S
C1821 H1809 0.929 . S
C1821 C1815 1.390 . S
C1821 C1818 1.386 . S
C1822 C1817 1.490 . S
C1822 C1824 1.395 . S
C1822 C1825 1.403 . S
H1823 C1829 0.930 . S
C1824 H1810 0.930 . S
C1824 C1822 1.395 . S
C1824 C1827 1.403 . S
C1825 C1822 1.403 . S
C1825 C1826 1.524 . S
C1825 C1829 1.400 . S
C1826 H1811 0.960 . S
C1826 H1812 0.960 . S
C1826 H1813 0.960 . S
C1826 C1825 1.524 . S
C1827 C1824 1.403 . S
C1827 C1828 1.392 . S
C1827 C1831 1.495 . S
C1828 C1827 1.392 . S
C1828 C1829 1.385 . S
C1828 C1830 1.478 . S
C1829 H1823 0.930 . S
C1829 C1825 1.400 . S
C1829 C1828 1.385 . S
C1830 C1828 1.478 . S
C1830 C1832 1.381 . S
C1830 C1836 1.383 . S
C1831 C1827 1.495 . S
C1831 H1837 0.959 . S
C1831 H1838 0.961 . S
C1831 H1839 0.960 . S
C1832 C1830 1.381 . S
C1832 C1833 1.394 . S
C1832 H1840 0.930 . S
C1833 C1832 1.394 . S
C1833 C1834 1.383 . S
C1833 H1841 0.929 . S
C1834 C1833 1.383 . S
C1834 C1835 1.377 . S
C1835 H1819 0.930 . S
C1835 C1834 1.377 . S
C1835 C1836 1.379 . S
C1836 H1820 0.931 . S
C1836 C1830 1.383 . S
C1836 C1835 1.379 . S
H1837 C1831 0.959 . S
H1838 C1831 0.961 . S
H1839 C1831 0.960 . S
H1840 C1832 0.930 . S
H1841 C1833 0.929 . S
H1842 C1850 0.929 . S
H1843 C1852 0.930 . S
H1844 C1854 0.930 . S
H1845 C1857 0.929 . S
H1846 C1860 0.930 . S
H1847 C1862 0.960 . S
H1848 C1862 0.960 . S
H1849 C1862 0.960 . S
C1850 H1842 0.929 . S
C1850 C1851 1.377 . S
C1850 C1852 1.384 . S
C1851 C1850 1.377 . S
C1851 C1857 1.390 . S
C1852 H1843 0.930 . S
C1852 C1850 1.384 . S
C1852 C1853 1.372 . S
C1853 C1852 1.372 . S
C1853 C1854 1.400 . S
C1853 C1858 1.490 . S
C1854 H1844 0.930 . S
C1854 C1853 1.400 . S
C1854 C1857 1.386 . S
H1855 C1871 0.930 . S
H1856 C1872 0.931 . S
C1857 H1845 0.929 . S
C1857 C1851 1.390 . S
C1857 C1854 1.386 . S
C1858 C1853 1.490 . S
C1858 C1860 1.395 . S
C1858 C1861 1.403 . S
H1859 C1865 0.930 . S
C1860 H1846 0.930 . S
C1860 C1858 1.395 . S
C1860 C1863 1.403 . S
C1861 C1858 1.403 . S
C1861 C1862 1.524 . S
C1861 C1865 1.400 . S
C1862 H1847 0.960 . S
C1862 H1848 0.960 . S
C1862 H1849 0.960 . S
C1862 C1861 1.524 . S
C1863 C1860 1.403 . S
C1863 C1864 1.392 . S
C1863 C1867 1.495 . S
C1864 C1863 1.392 . S
C1864 C1865 1.385 . S
C1864 C1866 1.478 . S
C1865 H1859 0.930 . S
C1865 C1861 1.400 . S
C1865 C1864 1.385 . S
C1866 C1864 1.478 . S
C1866 C1868 1.381 . S
C1866 C1872 1.383 . S
C1867 C1863 1.495 . S
C1867 H1873 0.959 . S
C1867 H1874 0.961 . S
C1867 H1875 0.960 . S
C1868 C1866 1.381 . S
C1868 C1869 1.394 . S
C1868 H1876 0.930 . S
C1869 C1868 1.394 . S
C1869 C1870 1.383 . S
C1869 H1877 0.929 . S
C1870 C1869 1.383 . S
C1870 C1871 1.377 . S
C1871 H1855 0.930 . S
C1871 C1870 1.377 . S
C1871 C1872 1.379 . S
C1872 H1856 0.931 . S
C1872 C1866 1.383 . S
C1872 C1871 1.379 . S
H1873 C1867 0.959 . S
H1874 C1867 0.961 . S
H1875 C1867 0.960 . S
H1876 C1868 0.930 . S
H1877 C1869 0.929 . S
H1878 C1886 0.929 . S
H1879 C1888 0.930 . S
H1880 C1890 0.930 . S
H1881 C1893 0.929 . S
H1882 C1896 0.930 . S
H1883 C1898 0.960 . S
H1884 C1898 0.960 . S
H1885 C1898 0.960 . S
C1886 H1878 0.929 . S
C1886 C1887 1.377 . S
C1886 C1888 1.384 . S
C1887 C1886 1.377 . S
C1887 C1893 1.390 . S
C1888 H1879 0.930 . S
C1888 C1886 1.384 . S
C1888 C1889 1.372 . S
C1889 C1888 1.372 . S
C1889 C1890 1.400 . S
C1889 C1894 1.490 . S
C1890 H1880 0.930 . S
C1890 C1889 1.400 . S
C1890 C1893 1.386 . S
H1891 C1907 0.930 . S
H1892 C1908 0.931 . S
C1893 H1881 0.929 . S
C1893 C1887 1.390 . S
C1893 C1890 1.386 . S
C1894 C1889 1.490 . S
C1894 C1896 1.395 . S
C1894 C1897 1.403 . S
H1895 C1901 0.930 . S
C1896 H1882 0.930 . S
C1896 C1894 1.395 . S
C1896 C1899 1.403 . S
C1897 C1894 1.403 . S
C1897 C1898 1.524 . S
C1897 C1901 1.400 . S
C1898 H1883 0.960 . S
C1898 H1884 0.960 . S
C1898 H1885 0.960 . S
C1898 C1897 1.524 . S
C1899 C1896 1.403 . S
C1899 C1900 1.392 . S
C1899 C1903 1.495 . S
C1900 C1899 1.392 . S
C1900 C1901 1.385 . S
C1900 C1902 1.478 . S
C1901 H1895 0.930 . S
C1901 C1897 1.400 . S
C1901 C1900 1.385 . S
C1902 C1900 1.478 . S
C1902 C1904 1.381 . S
C1902 C1908 1.383 . S
C1903 C1899 1.495 . S
C1903 H1909 0.959 . S
C1903 H1910 0.961 . S
C1903 H1911 0.960 . S
C1904 C1902 1.381 . S
C1904 C1905 1.394 . S
C1904 H1912 0.930 . S
C1905 C1904 1.394 . S
C1905 C1906 1.383 . S
C1905 H1913 0.929 . S
C1906 C1905 1.383 . S
C1906 C1907 1.377 . S
C1907 H1891 0.930 . S
C1907 C1906 1.377 . S
C1907 C1908 1.379 . S
C1908 H1892 0.931 . S
C1908 C1902 1.383 . S
C1908 C1907 1.379 . S
H1909 C1903 0.959 . S
H1910 C1903 0.961 . S
H1911 C1903 0.960 . S
H1912 C1904 0.930 . S
H1913 C1905 0.929 . S
H1914 C1922 0.929 . S
H1915 C1924 0.930 . S
H1916 C1926 0.930 . S
H1917 C1929 0.929 . S
H1918 C1932 0.930 . S
H1919 C1934 0.960 . S
H1920 C1934 0.960 . S
H1921 C1934 0.960 . S
C1922 H1914 0.929 . S
C1922 C1923 1.377 . S
C1922 C1924 1.384 . S
C1923 C1922 1.377 . S
C1923 C1929 1.390 . S
C1924 H1915 0.930 . S
C1924 C1922 1.384 . S
C1924 C1925 1.372 . S
C1925 C1924 1.372 . S
C1925 C1926 1.400 . S
C1925 C1930 1.490 . S
C1926 H1916 0.930 . S
C1926 C1925 1.400 . S
C1926 C1929 1.386 . S
H1927 C1943 0.930 . S
H1928 C1944 0.931 . S
C1929 H1917 0.929 . S
C1929 C1923 1.390 . S
C1929 C1926 1.386 . S
C1930 C1925 1.490 . S
C1930 C1932 1.395 . S
C1930 C1933 1.403 . S
H1931 C1937 0.930 . S
C1932 H1918 0.930 . S
C1932 C1930 1.395 . S
C1932 C1935 1.403 . S
C1933 C1930 1.403 . S
C1933 C1934 1.524 . S
C1933 C1937 1.400 . S
C1934 H1919 0.960 . S
C1934 H1920 0.960 . S
C1934 H1921 0.960 . S
C1934 C1933 1.524 . S
C1935 C1932 1.403 . S
C1935 C1936 1.392 . S
C1935 C1939 1.495 . S
C1936 C1935 1.392 . S
C1936 C1937 1.385 . S
C1936 C1938 1.478 . S
C1937 H1931 0.930 . S
C1937 C1933 1.400 . S
C1937 C1936 1.385 . S
C1938 C1936 1.478 . S
C1938 C1940 1.381 . S
C1938 C1944 1.383 . S
C1939 C1935 1.495 . S
C1939 H1945 0.959 . S
C1939 H1946 0.961 . S
C1939 H1947 0.960 . S
C1940 C1938 1.381 . S
C1940 C1941 1.394 . S
C1940 H1948 0.930 . S
C1941 C1940 1.394 . S
C1941 C1942 1.383 . S
C1941 H1949 0.929 . S
C1942 C1941 1.383 . S
C1942 C1943 1.377 . S
C1943 H1927 0.930 . S
C1943 C1942 1.377 . S
C1943 C1944 1.379 . S
C1944 H1928 0.931 . S
C1944 C1938 1.383 . S
C1944 C1943 1.379 . S
H1945 C1939 0.959 . S
H1946 C1939 0.961 . S
H1947 C1939 0.960 . S
H1948 C1940 0.930 . S
H1949 C1941 0.929 . S
H1950 C1958 0.929 . S
H1951 C1960 0.930 . S
H1952 C1962 0.930 . S
H1953 C1965 0.929 . S
H1954 C1968 0.930 . S
H1955 C1970 0.960 . S
H1956 C1970 0.960 . S
H1957 C1970 0.960 . S
C1958 H1950 0.929 . S
C1958 C1959 1.377 . S
C1958 C1960 1.384 . S
C1959 C1958 1.377 . S
C1959 C1965 1.390 . S
C1960 H1951 0.930 . S
C1960 C1958 1.384 . S
C1960 C1961 1.372 . S
C1961 C1960 1.372 . S
C1961 C1962 1.400 . S
C1961 C1966 1.490 . S
C1962 H1952 0.930 . S
C1962 C1961 1.400 . S
C1962 C1965 1.386 . S
H1963 C1979 0.930 . S
H1964 C1980 0.931 . S
C1965 H1953 0.929 . S
C1965 C1959 1.390 . S
C1965 C1962 1.386 . S
C1966 C1961 1.490 . S
C1966 C1968 1.395 . S
C1966 C1969 1.403 . S
H1967 C1973 0.930 . S
C1968 H1954 0.930 . S
C1968 C1966 1.395 . S
C1968 C1971 1.403 . S
C1969 C1966 1.403 . S
C1969 C1970 1.524 . S
C1969 C1973 1.400 . S
C1970 H1955 0.960 . S
C1970 H1956 0.960 . S
C1970 H1957 0.960 . S
C1970 C1969 1.524 . S
C1971 C1968 1.403 . S
C1971 C1972 1.392 . S
C1971 C1975 1.495 . S
C1972 C1971 1.392 . S
C1972 C1973 1.385 . S
C1972 C1974 1.478 . S
C1973 H1967 0.930 . S
C1973 C1969 1.400 . S
C1973 C1972 1.385 . S
C1974 C1972 1.478 . S
C1974 C1976 1.381 . S
C1974 C1980 1.383 . S
C1975 C1971 1.495 . S
C1975 H1981 0.959 . S
C1975 H1982 0.961 . S
C1975 H1983 0.960 . S
C1976 C1974 1.381 . S
C1976 C1977 1.394 . S
C1976 H1984 0.930 . S
C1977 C1976 1.394 . S
C1977 C1978 1.383 . S
C1977 H1985 0.929 . S
C1978 C1977 1.383 . S
C1978 C1979 1.377 . S
C1979 H1963 0.930 . S
C1979 C1978 1.377 . S
C1979 C1980 1.379 . S
C1980 H1964 0.931 . S
C1980 C1974 1.383 . S
C1980 C1979 1.379 . S
H1981 C1975 0.959 . S
H1982 C1975 0.961 . S
H1983 C1975 0.960 . S
H1984 C1976 0.930 . S
H1985 C1977 0.929 . S
H1986 C1994 0.929 . S
H1987 C1996 0.930 . S
H1988 C1998 0.930 . S
H1989 C2001 0.929 . S
H1990 C2004 0.930 . S
H1991 C2006 0.960 . S
H1992 C2006 0.960 . S
H1993 C2006 0.960 . S
C1994 H1986 0.929 . S
C1994 C1995 1.377 . S
C1994 C1996 1.384 . S
C1995 C1994 1.377 . S
C1995 C2001 1.390 . S
C1996 H1987 0.930 . S
C1996 C1994 1.384 . S
C1996 C1997 1.372 . S
C1997 C1996 1.372 . S
C1997 C1998 1.400 . S
C1997 C2002 1.490 . S
C1998 H1988 0.930 . S
C1998 C1997 1.400 . S
C1998 C2001 1.386 . S
H1999 C2015 0.930 . S
H2000 C2016 0.931 . S
C2001 H1989 0.929 . S
C2001 C1995 1.390 . S
C2001 C1998 1.386 . S
C2002 C1997 1.490 . S
C2002 C2004 1.395 . S
C2002 C2005 1.403 . S
H2003 C2009 0.930 . S
C2004 H1990 0.930 . S
C2004 C2002 1.395 . S
C2004 C2007 1.403 . S
C2005 C2002 1.403 . S
C2005 C2006 1.524 . S
C2005 C2009 1.400 . S
C2006 H1991 0.960 . S
C2006 H1992 0.960 . S
C2006 H1993 0.960 . S
C2006 C2005 1.524 . S
C2007 C2004 1.403 . S
C2007 C2008 1.392 . S
C2007 C2011 1.495 . S
C2008 C2007 1.392 . S
C2008 C2009 1.385 . S
C2008 C2010 1.478 . S
C2009 H2003 0.930 . S
C2009 C2005 1.400 . S
C2009 C2008 1.385 . S
C2010 C2008 1.478 . S
C2010 C2012 1.381 . S
C2010 C2016 1.383 . S
C2011 C2007 1.495 . S
C2011 H2017 0.959 . S
C2011 H2018 0.961 . S
C2011 H2019 0.960 . S
C2012 C2010 1.381 . S
C2012 C2013 1.394 . S
C2012 H2020 0.930 . S
C2013 C2012 1.394 . S
C2013 C2014 1.383 . S
C2013 H2021 0.929 . S
C2014 C2013 1.383 . S
C2014 C2015 1.377 . S
C2015 H1999 0.930 . S
C2015 C2014 1.377 . S
C2015 C2016 1.379 . S
C2016 H2000 0.931 . S
C2016 C2010 1.383 . S
C2016 C2015 1.379 . S
H2017 C2011 0.959 . S
H2018 C2011 0.961 . S
H2019 C2011 0.960 . S
H2020 C2012 0.930 . S
H2021 C2013 0.929 . S
H2022 C2030 0.929 . S
H2023 C2032 0.930 . S
H2024 C2034 0.930 . S
H2025 C2037 0.929 . S
H2026 C2040 0.930 . S
H2027 C2042 0.960 . S
H2028 C2042 0.960 . S
H2029 C2042 0.960 . S
C2030 H2022 0.929 . S
C2030 C2031 1.377 . S
C2030 C2032 1.384 . S
C2031 C2030 1.377 . S
C2031 C2037 1.390 . S
C2032 H2023 0.930 . S
C2032 C2030 1.384 . S
C2032 C2033 1.372 . S
C2033 C2032 1.372 . S
C2033 C2034 1.400 . S
C2033 C2038 1.490 . S
C2034 H2024 0.930 . S
C2034 C2033 1.400 . S
C2034 C2037 1.386 . S
H2035 C2051 0.930 . S
H2036 C2052 0.931 . S
C2037 H2025 0.929 . S
C2037 C2031 1.390 . S
C2037 C2034 1.386 . S
C2038 C2033 1.490 . S
C2038 C2040 1.395 . S
C2038 C2041 1.403 . S
H2039 C2045 0.930 . S
C2040 H2026 0.930 . S
C2040 C2038 1.395 . S
C2040 C2043 1.403 . S
C2041 C2038 1.403 . S
C2041 C2042 1.524 . S
C2041 C2045 1.400 . S
C2042 H2027 0.960 . S
C2042 H2028 0.960 . S
C2042 H2029 0.960 . S
C2042 C2041 1.524 . S
C2043 C2040 1.403 . S
C2043 C2044 1.392 . S
C2043 C2047 1.495 . S
C2044 C2043 1.392 . S
C2044 C2045 1.385 . S
C2044 C2046 1.478 . S
C2045 H2039 0.930 . S
C2045 C2041 1.400 . S
C2045 C2044 1.385 . S
C2046 C2044 1.478 . S
C2046 C2048 1.381 . S
C2046 C2052 1.383 . S
C2047 C2043 1.495 . S
C2047 H2053 0.959 . S
C2047 H2054 0.961 . S
C2047 H2055 0.960 . S
C2048 C2046 1.381 . S
C2048 C2049 1.394 . S
C2048 H2056 0.930 . S
C2049 C2048 1.394 . S
C2049 C2050 1.383 . S
C2049 H2057 0.929 . S
C2050 C2049 1.383 . S
C2050 C2051 1.377 . S
C2051 H2035 0.930 . S
C2051 C2050 1.377 . S
C2051 C2052 1.379 . S
C2052 H2036 0.931 . S
C2052 C2046 1.383 . S
C2052 C2051 1.379 . S
H2053 C2047 0.959 . S
H2054 C2047 0.961 . S
H2055 C2047 0.960 . S
H2056 C2048 0.930 . S
H2057 C2049 0.929 . S
H2058 C2066 0.929 . S
H2059 C2068 0.930 . S
H2060 C2070 0.930 . S
H2061 C2073 0.929 . S
H2062 C2076 0.930 . S
H2063 C2078 0.960 . S
H2064 C2078 0.960 . S
H2065 C2078 0.960 . S
C2066 H2058 0.929 . S
C2066 C2067 1.377 . S
C2066 C2068 1.384 . S
C2067 C2066 1.377 . S
C2067 C2073 1.390 . S
C2068 H2059 0.930 . S
C2068 C2066 1.384 . S
C2068 C2069 1.372 . S
C2069 C2068 1.372 . S
C2069 C2070 1.400 . S
C2069 C2074 1.490 . S
C2070 H2060 0.930 . S
C2070 C2069 1.400 . S
C2070 C2073 1.386 . S
H2071 C2087 0.930 . S
H2072 C2088 0.931 . S
C2073 H2061 0.929 . S
C2073 C2067 1.390 . S
C2073 C2070 1.386 . S
C2074 C2069 1.490 . S
C2074 C2076 1.395 . S
C2074 C2077 1.403 . S
H2075 C2081 0.930 . S
C2076 H2062 0.930 . S
C2076 C2074 1.395 . S
C2076 C2079 1.403 . S
C2077 C2074 1.403 . S
C2077 C2078 1.524 . S
C2077 C2081 1.400 . S
C2078 H2063 0.960 . S
C2078 H2064 0.960 . S
C2078 H2065 0.960 . S
C2078 C2077 1.524 . S
C2079 C2076 1.403 . S
C2079 C2080 1.392 . S
C2079 C2083 1.495 . S
C2080 C2079 1.392 . S
C2080 C2081 1.385 . S
C2080 C2082 1.478 . S
C2081 H2075 0.930 . S
C2081 C2077 1.400 . S
C2081 C2080 1.385 . S
C2082 C2080 1.478 . S
C2082 C2084 1.381 . S
C2082 C2088 1.383 . S
C2083 C2079 1.495 . S
C2083 H2089 0.959 . S
C2083 H2090 0.961 . S
C2083 H2091 0.960 . S
C2084 C2082 1.381 . S
C2084 C2085 1.394 . S
C2084 H2092 0.930 . S
C2085 C2084 1.394 . S
C2085 C2086 1.383 . S
C2085 H2093 0.929 . S
C2086 C2085 1.383 . S
C2086 C2087 1.377 . S
C2087 H2071 0.930 . S
C2087 C2086 1.377 . S
C2087 C2088 1.379 . S
C2088 H2072 0.931 . S
C2088 C2082 1.383 . S
C2088 C2087 1.379 . S
H2089 C2083 0.959 . S
H2090 C2083 0.961 . S
H2091 C2083 0.960 . S
H2092 C2084 0.930 . S
H2093 C2085 0.929 . S
H2094 C2102 0.929 . S
H2095 C2104 0.930 . S
H2096 C2106 0.930 . S
H2097 C2109 0.929 . S
H2098 C2112 0.930 . S
H2099 C2114 0.960 . S
H2100 C2114 0.960 . S
H2101 C2114 0.960 . S
C2102 H2094 0.929 . S
C2102 C2103 1.377 . S
C2102 C2104 1.384 . S
C2103 C2102 1.377 . S
C2103 C2109 1.390 . S
C2104 H2095 0.930 . S
C2104 C2102 1.384 . S
C2104 C2105 1.372 . S
C2105 C2104 1.372 . S
C2105 C2106 1.400 . S
C2105 C2110 1.490 . S
C2106 H2096 0.930 . S
C2106 C2105 1.400 . S
C2106 C2109 1.386 . S
H2107 C2123 0.930 . S
H2108 C2124 0.931 . S
C2109 H2097 0.929 . S
C2109 C2103 1.390 . S
C2109 C2106 1.386 . S
C2110 C2105 1.490 . S
C2110 C2112 1.395 . S
C2110 C2113 1.403 . S
H2111 C2117 0.930 . S
C2112 H2098 0.930 . S
C2112 C2110 1.395 . S
C2112 C2115 1.403 . S
C2113 C2110 1.403 . S
C2113 C2114 1.524 . S
C2113 C2117 1.400 . S
C2114 H2099 0.960 . S
C2114 H2100 0.960 . S
C2114 H2101 0.960 . S
C2114 C2113 1.524 . S
C2115 C2112 1.403 . S
C2115 C2116 1.392 . S
C2115 C2119 1.495 . S
C2116 C2115 1.392 . S
C2116 C2117 1.385 . S
C2116 C2118 1.478 . S
C2117 H2111 0.930 . S
C2117 C2113 1.400 . S
C2117 C2116 1.385 . S
C2118 C2116 1.478 . S
C2118 C2120 1.381 . S
C2118 C2124 1.383 . S
C2119 C2115 1.495 . S
C2119 H2125 0.959 . S
C2119 H2126 0.961 . S
C2119 H2127 0.960 . S
C2120 C2118 1.381 . S
C2120 C2121 1.394 . S
C2120 H2128 0.930 . S
C2121 C2120 1.394 . S
C2121 C2122 1.383 . S
C2121 H2129 0.929 . S
C2122 C2121 1.383 . S
C2122 C2123 1.377 . S
C2123 H2107 0.930 . S
C2123 C2122 1.377 . S
C2123 C2124 1.379 . S
C2124 H2108 0.931 . S
C2124 C2118 1.383 . S
C2124 C2123 1.379 . S
H2125 C2119 0.959 . S
H2126 C2119 0.961 . S
H2127 C2119 0.960 . S
H2128 C2120 0.930 . S
H2129 C2121 0.929 . S
H2130 C2138 0.929 . S
H2131 C2140 0.930 . S
H2132 C2142 0.930 . S
H2133 C2145 0.929 . S
H2134 C2148 0.930 . S
H2135 C2150 0.960 . S
H2136 C2150 0.960 . S
H2137 C2150 0.960 . S
C2138 H2130 0.929 . S
C2138 C2139 1.377 . S
C2138 C2140 1.384 . S
C2139 C2138 1.377 . S
C2139 C2145 1.390 . S
C2140 H2131 0.930 . S
C2140 C2138 1.384 . S
C2140 C2141 1.372 . S
C2141 C2140 1.372 . S
C2141 C2142 1.400 . S
C2141 C2146 1.490 . S
C2142 H2132 0.930 . S
C2142 C2141 1.400 . S
C2142 C2145 1.386 . S
H2143 C2159 0.930 . S
H2144 C2160 0.931 . S
C2145 H2133 0.929 . S
C2145 C2139 1.390 . S
C2145 C2142 1.386 . S
C2146 C2141 1.490 . S
C2146 C2148 1.395 . S
C2146 C2149 1.403 . S
H2147 C2153 0.930 . S
C2148 H2134 0.930 . S
C2148 C2146 1.395 . S
C2148 C2151 1.403 . S
C2149 C2146 1.403 . S
C2149 C2150 1.524 . S
C2149 C2153 1.400 . S
C2150 H2135 0.960 . S
C2150 H2136 0.960 . S
C2150 H2137 0.960 . S
C2150 C2149 1.524 . S
C2151 C2148 1.403 . S
C2151 C2152 1.392 . S
C2151 C2155 1.495 . S
C2152 C2151 1.392 . S
C2152 C2153 1.385 . S
C2152 C2154 1.478 . S
C2153 H2147 0.930 . S
C2153 C2149 1.400 . S
C2153 C2152 1.385 . S
C2154 C2152 1.478 . S
C2154 C2156 1.381 . S
C2154 C2160 1.383 . S
C2155 C2151 1.495 . S
C2155 H2161 0.959 . S
C2155 H2162 0.961 . S
C2155 H2163 0.960 . S
C2156 C2154 1.381 . S
C2156 C2157 1.394 . S
C2156 H2164 0.930 . S
C2157 C2156 1.394 . S
C2157 C2158 1.383 . S
C2157 H2165 0.929 . S
C2158 C2157 1.383 . S
C2158 C2159 1.377 . S
C2159 H2143 0.930 . S
C2159 C2158 1.377 . S
C2159 C2160 1.379 . S
C2160 H2144 0.931 . S
C2160 C2154 1.383 . S
C2160 C2159 1.379 . S
H2161 C2155 0.959 . S
H2162 C2155 0.961 . S
H2163 C2155 0.960 . S
H2164 C2156 0.930 . S
H2165 C2157 0.929 . S
H2166 C2174 0.929 . S
H2167 C2176 0.930 . S
H2168 C2178 0.930 . S
H2169 C2181 0.929 . S
H2170 C2184 0.930 . S
H2171 C2186 0.960 . S
H2172 C2186 0.960 . S
H2173 C2186 0.960 . S
C2174 H2166 0.929 . S
C2174 C2175 1.377 . S
C2174 C2176 1.384 . S
C2175 C2174 1.377 . S
C2175 C2181 1.390 . S
C2176 H2167 0.930 . S
C2176 C2174 1.384 . S
C2176 C2177 1.372 . S
C2177 C2176 1.372 . S
C2177 C2178 1.400 . S
C2177 C2182 1.490 . S
C2178 H2168 0.930 . S
C2178 C2177 1.400 . S
C2178 C2181 1.386 . S
H2179 C2195 0.930 . S
H2180 C2196 0.931 . S
C2181 H2169 0.929 . S
C2181 C2175 1.390 . S
C2181 C2178 1.386 . S
C2182 C2177 1.490 . S
C2182 C2184 1.395 . S
C2182 C2185 1.403 . S
H2183 C2189 0.930 . S
C2184 H2170 0.930 . S
C2184 C2182 1.395 . S
C2184 C2187 1.403 . S
C2185 C2182 1.403 . S
C2185 C2186 1.524 . S
C2185 C2189 1.400 . S
C2186 H2171 0.960 . S
C2186 H2172 0.960 . S
C2186 H2173 0.960 . S
C2186 C2185 1.524 . S
C2187 C2184 1.403 . S
C2187 C2188 1.392 . S
C2187 C2191 1.495 . S
C2188 C2187 1.392 . S
C2188 C2189 1.385 . S
C2188 C2190 1.478 . S
C2189 H2183 0.930 . S
C2189 C2185 1.400 . S
C2189 C2188 1.385 . S
C2190 C2188 1.478 . S
C2190 C2192 1.381 . S
C2190 C2196 1.383 . S
C2191 C2187 1.495 . S
C2191 H2197 0.959 . S
C2191 H2198 0.961 . S
C2191 H2199 0.960 . S
C2192 C2190 1.381 . S
C2192 C2193 1.394 . S
C2192 H2200 0.930 . S
C2193 C2192 1.394 . S
C2193 C2194 1.383 . S
C2193 H2201 0.929 . S
C2194 C2193 1.383 . S
C2194 C2195 1.377 . S
C2195 H2179 0.930 . S
C2195 C2194 1.377 . S
C2195 C2196 1.379 . S
C2196 H2180 0.931 . S
C2196 C2190 1.383 . S
C2196 C2195 1.379 . S
H2197 C2191 0.959 . S
H2198 C2191 0.961 . S
H2199 C2191 0.960 . S
H2200 C2192 0.930 . S
H2201 C2193 0.929 . S
H2202 C2210 0.929 . S
H2203 C2212 0.930 . S
H2204 C2214 0.930 . S
H2205 C2217 0.929 . S
H2206 C2220 0.930 . S
H2207 C2222 0.960 . S
H2208 C2222 0.960 . S
H2209 C2222 0.960 . S
C2210 H2202 0.929 . S
C2210 C2211 1.377 . S
C2210 C2212 1.384 . S
C2211 C2210 1.377 . S
C2211 C2217 1.390 . S
C2212 H2203 0.930 . S
C2212 C2210 1.384 . S
C2212 C2213 1.372 . S
C2213 C2212 1.372 . S
C2213 C2214 1.400 . S
C2213 C2218 1.490 . S
C2214 H2204 0.930 . S
C2214 C2213 1.400 . S
C2214 C2217 1.386 . S
H2215 C2231 0.930 . S
H2216 C2232 0.931 . S
C2217 H2205 0.929 . S
C2217 C2211 1.390 . S
C2217 C2214 1.386 . S
C2218 C2213 1.490 . S
C2218 C2220 1.395 . S
C2218 C2221 1.403 . S
H2219 C2225 0.930 . S
C2220 H2206 0.930 . S
C2220 C2218 1.395 . S
C2220 C2223 1.403 . S
C2221 C2218 1.403 . S
C2221 C2222 1.524 . S
C2221 C2225 1.400 . S
C2222 H2207 0.960 . S
C2222 H2208 0.960 . S
C2222 H2209 0.960 . S
C2222 C2221 1.524 . S
C2223 C2220 1.403 . S
C2223 C2224 1.392 . S
C2223 C2227 1.495 . S
C2224 C2223 1.392 . S
C2224 C2225 1.385 . S
C2224 C2226 1.478 . S
C2225 H2219 0.930 . S
C2225 C2221 1.400 . S
C2225 C2224 1.385 . S
C2226 C2224 1.478 . S
C2226 C2228 1.381 . S
C2226 C2232 1.383 . S
C2227 C2223 1.495 . S
C2227 H2233 0.959 . S
C2227 H2234 0.961 . S
C2227 H2235 0.960 . S
C2228 C2226 1.381 . S
C2228 C2229 1.394 . S
C2228 H2236 0.930 . S
C2229 C2228 1.394 . S
C2229 C2230 1.383 . S
C2229 H2237 0.929 . S
C2230 C2229 1.383 . S
C2230 C2231 1.377 . S
C2231 H2215 0.930 . S
C2231 C2230 1.377 . S
C2231 C2232 1.379 . S
C2232 H2216 0.931 . S
C2232 C2226 1.383 . S
C2232 C2231 1.379 . S
H2233 C2227 0.959 . S
H2234 C2227 0.961 . S
H2235 C2227 0.960 . S
H2236 C2228 0.930 . S
H2237 C2229 0.929 . S
H2238 C2246 0.929 . S
H2239 C2248 0.930 . S
H2240 C2250 0.930 . S
H2241 C2253 0.929 . S
H2242 C2256 0.930 . S
H2243 C2258 0.960 . S
H2244 C2258 0.960 . S
H2245 C2258 0.960 . S
C2246 H2238 0.929 . S
C2246 C2247 1.377 . S
C2246 C2248 1.384 . S
C2247 C2246 1.377 . S
C2247 C2253 1.390 . S
C2248 H2239 0.930 . S
C2248 C2246 1.384 . S
C2248 C2249 1.372 . S
C2249 C2248 1.372 . S
C2249 C2250 1.400 . S
C2249 C2254 1.490 . S
C2250 H2240 0.930 . S
C2250 C2249 1.400 . S
C2250 C2253 1.386 . S
H2251 C2267 0.930 . S
H2252 C2268 0.931 . S
C2253 H2241 0.929 . S
C2253 C2247 1.390 . S
C2253 C2250 1.386 . S
C2254 C2249 1.490 . S
C2254 C2256 1.395 . S
C2254 C2257 1.403 . S
H2255 C2261 0.930 . S
C2256 H2242 0.930 . S
C2256 C2254 1.395 . S
C2256 C2259 1.403 . S
C2257 C2254 1.403 . S
C2257 C2258 1.524 . S
C2257 C2261 1.400 . S
C2258 H2243 0.960 . S
C2258 H2244 0.960 . S
C2258 H2245 0.960 . S
C2258 C2257 1.524 . S
C2259 C2256 1.403 . S
C2259 C2260 1.392 . S
C2259 C2263 1.495 . S
C2260 C2259 1.392 . S
C2260 C2261 1.385 . S
C2260 C2262 1.478 . S
C2261 H2255 0.930 . S
C2261 C2257 1.400 . S
C2261 C2260 1.385 . S
C2262 C2260 1.478 . S
C2262 C2264 1.381 . S
C2262 C2268 1.383 . S
C2263 C2259 1.495 . S
C2263 H2269 0.959 . S
C2263 H2270 0.961 . S
C2263 H2271 0.960 . S
C2264 C2262 1.381 . S
C2264 C2265 1.394 . S
C2264 H2272 0.930 . S
C2265 C2264 1.394 . S
C2265 C2266 1.383 . S
C2265 H2273 0.929 . S
C2266 C2265 1.383 . S
C2266 C2267 1.377 . S
C2267 H2251 0.930 . S
C2267 C2266 1.377 . S
C2267 C2268 1.379 . S
C2268 H2252 0.931 . S
C2268 C2262 1.383 . S
C2268 C2267 1.379 . S
H2269 C2263 0.959 . S
H2270 C2263 0.961 . S
H2271 C2263 0.960 . S
H2272 C2264 0.930 . S
H2273 C2265 0.929 . S
H2274 C2282 0.929 . S
H2275 C2284 0.930 . S
H2276 C2286 0.930 . S
H2277 C2289 0.929 . S
H2278 C2292 0.930 . S
H2279 C2294 0.960 . S
H2280 C2294 0.960 . S
H2281 C2294 0.960 . S
C2282 H2274 0.929 . S
C2282 C2283 1.377 . S
C2282 C2284 1.384 . S
C2283 C2282 1.377 . S
C2283 C2289 1.390 . S
C2284 H2275 0.930 . S
C2284 C2282 1.384 . S
C2284 C2285 1.372 . S
C2285 C2284 1.372 . S
C2285 C2286 1.400 . S
C2285 C2290 1.490 . S
C2286 H2276 0.930 . S
C2286 C2285 1.400 . S
C2286 C2289 1.386 . S
H2287 C2303 0.930 . S
H2288 C2304 0.931 . S
C2289 H2277 0.929 . S
C2289 C2283 1.390 . S
C2289 C2286 1.386 . S
C2290 C2285 1.490 . S
C2290 C2292 1.395 . S
C2290 C2293 1.403 . S
H2291 C2297 0.930 . S
C2292 H2278 0.930 . S
C2292 C2290 1.395 . S
C2292 C2295 1.403 . S
C2293 C2290 1.403 . S
C2293 C2294 1.524 . S
C2293 C2297 1.400 . S
C2294 H2279 0.960 . S
C2294 H2280 0.960 . S
C2294 H2281 0.960 . S
C2294 C2293 1.524 . S
C2295 C2292 1.403 . S
C2295 C2296 1.392 . S
C2295 C2299 1.495 . S
C2296 C2295 1.392 . S
C2296 C2297 1.385 . S
C2296 C2298 1.478 . S
C2297 H2291 0.930 . S
C2297 C2293 1.400 . S
C2297 C2296 1.385 . S
C2298 C2296 1.478 . S
C2298 C2300 1.381 . S
C2298 C2304 1.383 . S
C2299 C2295 1.495 . S
C2299 H2305 0.959 . S
C2299 H2306 0.961 . S
C2299 H2307 0.960 . S
C2300 C2298 1.381 . S
C2300 C2301 1.394 . S
C2300 H2308 0.930 . S
C2301 C2300 1.394 . S
C2301 C2302 1.383 . S
C2301 H2309 0.929 . S
C2302 C2301 1.383 . S
C2302 C2303 1.377 . S
C2303 H2287 0.930 . S
C2303 C2302 1.377 . S
C2303 C2304 1.379 . S
C2304 H2288 0.931 . S
C2304 C2298 1.383 . S
C2304 C2303 1.379 . S
H2305 C2299 0.959 . S
H2306 C2299 0.961 . S
H2307 C2299 0.960 . S
H2308 C2300 0.930 . S
H2309 C2301 0.929 . S
H2310 C2318 0.929 . S
H2311 C2320 0.930 . S
H2312 C2322 0.930 . S
H2313 C2325 0.929 . S
H2314 C2328 0.930 . S
H2315 C2330 0.960 . S
H2316 C2330 0.960 . S
H2317 C2330 0.960 . S
C2318 H2310 0.929 . S
C2318 C2319 1.377 . S
C2318 C2320 1.384 . S
C2319 C2318 1.377 . S
C2319 C2325 1.390 . S
C2320 H2311 0.930 . S
C2320 C2318 1.384 . S
C2320 C2321 1.372 . S
C2321 C2320 1.372 . S
C2321 C2322 1.400 . S
C2321 C2326 1.490 . S
C2322 H2312 0.930 . S
C2322 C2321 1.400 . S
C2322 C2325 1.386 . S
H2323 C2339 0.930 . S
H2324 C2340 0.931 . S
C2325 H2313 0.929 . S
C2325 C2319 1.390 . S
C2325 C2322 1.386 . S
C2326 C2321 1.490 . S
C2326 C2328 1.395 . S
C2326 C2329 1.403 . S
H2327 C2333 0.930 . S
C2328 H2314 0.930 . S
C2328 C2326 1.395 . S
C2328 C2331 1.403 . S
C2329 C2326 1.403 . S
C2329 C2330 1.524 . S
C2329 C2333 1.400 . S
C2330 H2315 0.960 . S
C2330 H2316 0.960 . S
C2330 H2317 0.960 . S
C2330 C2329 1.524 . S
C2331 C2328 1.403 . S
C2331 C2332 1.392 . S
C2331 C2335 1.495 . S
C2332 C2331 1.392 . S
C2332 C2333 1.385 . S
C2332 C2334 1.478 . S
C2333 H2327 0.930 . S
C2333 C2329 1.400 . S
C2333 C2332 1.385 . S
C2334 C2332 1.478 . S
C2334 C2336 1.381 . S
C2334 C2340 1.383 . S
C2335 C2331 1.495 . S
C2335 H2341 0.959 . S
C2335 H2342 0.961 . S
C2335 H2343 0.960 . S
C2336 C2334 1.381 . S
C2336 C2337 1.394 . S
C2336 H2344 0.930 . S
C2337 C2336 1.394 . S
C2337 C2338 1.383 . S
C2337 H2345 0.929 . S
C2338 C2337 1.383 . S
C2338 C2339 1.377 . S
C2339 H2323 0.930 . S
C2339 C2338 1.377 . S
C2339 C2340 1.379 . S
C2340 H2324 0.931 . S
C2340 C2334 1.383 . S
C2340 C2339 1.379 . S
H2341 C2335 0.959 . S
H2342 C2335 0.961 . S
H2343 C2335 0.960 . S
H2344 C2336 0.930 . S
H2345 C2337 0.929 . S
H2346 C2354 0.929 . S
H2347 C2356 0.930 . S
H2348 C2358 0.930 . S
H2349 C2361 0.929 . S
H2350 C2364 0.930 . S
H2351 C2366 0.960 . S
H2352 C2366 0.960 . S
H2353 C2366 0.960 . S
C2354 H2346 0.929 . S
C2354 C2355 1.377 . S
C2354 C2356 1.384 . S
C2355 C2354 1.377 . S
C2355 C2361 1.390 . S
C2356 H2347 0.930 . S
C2356 C2354 1.384 . S
C2356 C2357 1.372 . S
C2357 C2356 1.372 . S
C2357 C2358 1.400 . S
C2357 C2362 1.490 . S
C2358 H2348 0.930 . S
C2358 C2357 1.400 . S
C2358 C2361 1.386 . S
H2359 C2375 0.930 . S
H2360 C2376 0.931 . S
C2361 H2349 0.929 . S
C2361 C2355 1.390 . S
C2361 C2358 1.386 . S
C2362 C2357 1.490 . S
C2362 C2364 1.395 . S
C2362 C2365 1.403 . S
H2363 C2369 0.930 . S
C2364 H2350 0.930 . S
C2364 C2362 1.395 . S
C2364 C2367 1.403 . S
C2365 C2362 1.403 . S
C2365 C2366 1.524 . S
C2365 C2369 1.400 . S
C2366 H2351 0.960 . S
C2366 H2352 0.960 . S
C2366 H2353 0.960 . S
C2366 C2365 1.524 . S
C2367 C2364 1.403 . S
C2367 C2368 1.392 . S
C2367 C2371 1.495 . S
C2368 C2367 1.392 . S
C2368 C2369 1.385 . S
C2368 C2370 1.478 . S
C2369 H2363 0.930 . S
C2369 C2365 1.400 . S
C2369 C2368 1.385 . S
C2370 C2368 1.478 . S
C2370 C2372 1.381 . S
C2370 C2376 1.383 . S
C2371 C2367 1.495 . S
C2371 H2377 0.959 . S
C2371 H2378 0.961 . S
C2371 H2379 0.960 . S
C2372 C2370 1.381 . S
C2372 C2373 1.394 . S
C2372 H2380 0.930 . S
C2373 C2372 1.394 . S
C2373 C2374 1.383 . S
C2373 H2381 0.929 . S
C2374 C2373 1.383 . S
C2374 C2375 1.377 . S
C2375 H2359 0.930 . S
C2375 C2374 1.377 . S
C2375 C2376 1.379 . S
C2376 H2360 0.931 . S
C2376 C2370 1.383 . S
C2376 C2375 1.379 . S
H2377 C2371 0.959 . S
H2378 C2371 0.961 . S
H2379 C2371 0.960 . S
H2380 C2372 0.930 . S
H2381 C2373 0.929 . S
H2382 C2390 0.929 . S
H2383 C2392 0.930 . S
H2384 C2394 0.930 . S
H2385 C2397 0.929 . S
H2386 C2400 0.930 . S
H2387 C2402 0.960 . S
H2388 C2402 0.960 . S
H2389 C2402 0.960 . S
C2390 H2382 0.929 . S
C2390 C2391 1.377 . S
C2390 C2392 1.384 . S
C2391 C2390 1.377 . S
C2391 C2397 1.390 . S
C2392 H2383 0.930 . S
C2392 C2390 1.384 . S
C2392 C2393 1.372 . S
C2393 C2392 1.372 . S
C2393 C2394 1.400 . S
C2393 C2398 1.490 . S
C2394 H2384 0.930 . S
C2394 C2393 1.400 . S
C2394 C2397 1.386 . S
H2395 C2411 0.930 . S
H2396 C2412 0.931 . S
C2397 H2385 0.929 . S
C2397 C2391 1.390 . S
C2397 C2394 1.386 . S
C2398 C2393 1.490 . S
C2398 C2400 1.395 . S
C2398 C2401 1.403 . S
H2399 C2405 0.930 . S
C2400 H2386 0.930 . S
C2400 C2398 1.395 . S
C2400 C2403 1.403 . S
C2401 C2398 1.403 . S
C2401 C2402 1.524 . S
C2401 C2405 1.400 . S
C2402 H2387 0.960 . S
C2402 H2388 0.960 . S
C2402 H2389 0.960 . S
C2402 C2401 1.524 . S
C2403 C2400 1.403 . S
C2403 C2404 1.392 . S
C2403 C2407 1.495 . S
C2404 C2403 1.392 . S
C2404 C2405 1.385 . S
C2404 C2406 1.478 . S
C2405 H2399 0.930 . S
C2405 C2401 1.400 . S
C2405 C2404 1.385 . S
C2406 C2404 1.478 . S
C2406 C2408 1.381 . S
C2406 C2412 1.383 . S
C2407 C2403 1.495 . S
C2407 H2413 0.959 . S
C2407 H2414 0.961 . S
C2407 H2415 0.960 . S
C2408 C2406 1.381 . S
C2408 C2409 1.394 . S
C2408 H2416 0.930 . S
C2409 C2408 1.394 . S
C2409 C2410 1.383 . S
C2409 H2417 0.929 . S
C2410 C2409 1.383 . S
C2410 C2411 1.377 . S
C2411 H2395 0.930 . S
C2411 C2410 1.377 . S
C2411 C2412 1.379 . S
C2412 H2396 0.931 . S
C2412 C2406 1.383 . S
C2412 C2411 1.379 . S
H2413 C2407 0.959 . S
H2414 C2407 0.961 . S
H2415 C2407 0.960 . S
H2416 C2408 0.930 . S
H2417 C2409 0.929 . S
H2418 C2426 0.929 . S
H2419 C2428 0.930 . S
H2420 C2430 0.930 . S
H2421 C2433 0.929 . S
H2422 C2436 0.930 . S
H2423 C2438 0.960 . S
H2424 C2438 0.960 . S
H2425 C2438 0.960 . S
C2426 H2418 0.929 . S
C2426 C2427 1.377 . S
C2426 C2428 1.384 . S
C2427 C2426 1.377 . S
C2427 C2433 1.390 . S
C2428 H2419 0.930 . S
C2428 C2426 1.384 . S
C2428 C2429 1.372 . S
C2429 C2428 1.372 . S
C2429 C2430 1.400 . S
C2429 C2434 1.490 . S
C2430 H2420 0.930 . S
C2430 C2429 1.400 . S
C2430 C2433 1.386 . S
H2431 C2447 0.930 . S
H2432 C2448 0.931 . S
C2433 H2421 0.929 . S
C2433 C2427 1.390 . S
C2433 C2430 1.386 . S
C2434 C2429 1.490 . S
C2434 C2436 1.395 . S
C2434 C2437 1.403 . S
H2435 C2441 0.930 . S
C2436 H2422 0.930 . S
C2436 C2434 1.395 . S
C2436 C2439 1.403 . S
C2437 C2434 1.403 . S
C2437 C2438 1.524 . S
C2437 C2441 1.400 . S
C2438 H2423 0.960 . S
C2438 H2424 0.960 . S
C2438 H2425 0.960 . S
C2438 C2437 1.524 . S
C2439 C2436 1.403 . S
C2439 C2440 1.392 . S
C2439 C2443 1.495 . S
C2440 C2439 1.392 . S
C2440 C2441 1.385 . S
C2440 C2442 1.478 . S
C2441 H2435 0.930 . S
C2441 C2437 1.400 . S
C2441 C2440 1.385 . S
C2442 C2440 1.478 . S
C2442 C2444 1.381 . S
C2442 C2448 1.383 . S
C2443 C2439 1.495 . S
C2443 H2449 0.959 . S
C2443 H2450 0.961 . S
C2443 H2451 0.960 . S
C2444 C2442 1.381 . S
C2444 C2445 1.394 . S
C2444 H2452 0.930 . S
C2445 C2444 1.394 . S
C2445 C2446 1.383 . S
C2445 H2453 0.929 . S
C2446 C2445 1.383 . S
C2446 C2447 1.377 . S
C2447 H2431 0.930 . S
C2447 C2446 1.377 . S
C2447 C2448 1.379 . S
C2448 H2432 0.931 . S
C2448 C2442 1.383 . S
C2448 C2447 1.379 . S
H2449 C2443 0.959 . S
H2450 C2443 0.961 . S
H2451 C2443 0.960 . S
H2452 C2444 0.930 . S
H2453 C2445 0.929 . S
H2454 C2462 0.929 . S
H2455 C2464 0.930 . S
H2456 C2466 0.930 . S
H2457 C2469 0.929 . S
H2458 C2472 0.930 . S
H2459 C2474 0.960 . S
H2460 C2474 0.960 . S
H2461 C2474 0.960 . S
C2462 H2454 0.929 . S
C2462 C2463 1.377 . S
C2462 C2464 1.384 . S
C2463 C2462 1.377 . S
C2463 C2469 1.390 . S
C2464 H2455 0.930 . S
C2464 C2462 1.384 . S
C2464 C2465 1.372 . S
C2465 C2464 1.372 . S
C2465 C2466 1.400 . S
C2465 C2470 1.490 . S
C2466 H2456 0.930 . S
C2466 C2465 1.400 . S
C2466 C2469 1.386 . S
H2467 C2483 0.930 . S
H2468 C2484 0.931 . S
C2469 H2457 0.929 . S
C2469 C2463 1.390 . S
C2469 C2466 1.386 . S
C2470 C2465 1.490 . S
C2470 C2472 1.395 . S
C2470 C2473 1.403 . S
H2471 C2477 0.930 . S
C2472 H2458 0.930 . S
C2472 C2470 1.395 . S
C2472 C2475 1.403 . S
C2473 C2470 1.403 . S
C2473 C2474 1.524 . S
C2473 C2477 1.400 . S
C2474 H2459 0.960 . S
C2474 H2460 0.960 . S
C2474 H2461 0.960 . S
C2474 C2473 1.524 . S
C2475 C2472 1.403 . S
C2475 C2476 1.392 . S
C2475 C2479 1.495 . S
C2476 C2475 1.392 . S
C2476 C2477 1.385 . S
C2476 C2478 1.478 . S
C2477 H2471 0.930 . S
C2477 C2473 1.400 . S
C2477 C2476 1.385 . S
C2478 C2476 1.478 . S
C2478 C2480 1.381 . S
C2478 C2484 1.383 . S
C2479 C2475 1.495 . S
C2479 H2485 0.959 . S
C2479 H2486 0.961 . S
C2479 H2487 0.960 . S
C2480 C2478 1.381 . S
C2480 C2481 1.394 . S
C2480 H2488 0.930 . S
C2481 C2480 1.394 . S
C2481 C2482 1.383 . S
C2481 H2489 0.929 . S
C2482 C2481 1.383 . S
C2482 C2483 1.377 . S
C2483 H2467 0.930 . S
C2483 C2482 1.377 . S
C2483 C2484 1.379 . S
C2484 H2468 0.931 . S
C2484 C2478 1.383 . S
C2484 C2483 1.379 . S
H2485 C2479 0.959 . S
H2486 C2479 0.961 . S
H2487 C2479 0.960 . S
H2488 C2480 0.930 . S
H2489 C2481 0.929 . S
H2490 C2498 0.929 . S
H2491 C2500 0.930 . S
H2492 C2502 0.930 . S
H2493 C2505 0.929 . S
H2494 C2508 0.930 . S
H2495 C2510 0.960 . S
H2496 C2510 0.960 . S
H2497 C2510 0.960 . S
C2498 H2490 0.929 . S
C2498 C2499 1.377 . S
C2498 C2500 1.384 . S
C2499 C2498 1.377 . S
C2499 C2505 1.390 . S
C2500 H2491 0.930 . S
C2500 C2498 1.384 . S
C2500 C2501 1.372 . S
C2501 C2500 1.372 . S
C2501 C2502 1.400 . S
C2501 C2506 1.490 . S
C2502 H2492 0.930 . S
C2502 C2501 1.400 . S
C2502 C2505 1.386 . S
H2503 C2519 0.930 . S
H2504 C2520 0.931 . S
C2505 H2493 0.929 . S
C2505 C2499 1.390 . S
C2505 C2502 1.386 . S
C2506 C2501 1.490 . S
C2506 C2508 1.395 . S
C2506 C2509 1.403 . S
H2507 C2513 0.930 . S
C2508 H2494 0.930 . S
C2508 C2506 1.395 . S
C2508 C2511 1.403 . S
C2509 C2506 1.403 . S
C2509 C2510 1.524 . S
C2509 C2513 1.400 . S
C2510 H2495 0.960 . S
C2510 H2496 0.960 . S
C2510 H2497 0.960 . S
C2510 C2509 1.524 . S
C2511 C2508 1.403 . S
C2511 C2512 1.392 . S
C2511 C2515 1.495 . S
C2512 C2511 1.392 . S
C2512 C2513 1.385 . S
C2512 C2514 1.478 . S
C2513 H2507 0.930 . S
C2513 C2509 1.400 . S
C2513 C2512 1.385 . S
C2514 C2512 1.478 . S
C2514 C2516 1.381 . S
C2514 C2520 1.383 . S
C2515 C2511 1.495 . S
C2515 H2521 0.959 . S
C2515 H2522 0.961 . S
C2515 H2523 0.960 . S
C2516 C2514 1.381 . S
C2516 C2517 1.394 . S
C2516 H2524 0.930 . S
C2517 C2516 1.394 . S
C2517 C2518 1.383 . S
C2517 H2525 0.929 . S
C2518 C2517 1.383 . S
C2518 C2519 1.377 . S
C2519 H2503 0.930 . S
C2519 C2518 1.377 . S
C2519 C2520 1.379 . S
C2520 H2504 0.931 . S
C2520 C2514 1.383 . S
C2520 C2519 1.379 . S
H2521 C2515 0.959 . S
H2522 C2515 0.961 . S
H2523 C2515 0.960 . S
H2524 C2516 0.930 . S
H2525 C2517 0.929 . S
H2526 C2534 0.929 . S
H2527 C2536 0.930 . S
H2528 C2538 0.930 . S
H2529 C2541 0.929 . S
H2530 C2544 0.930 . S
H2531 C2546 0.960 . S
H2532 C2546 0.960 . S
H2533 C2546 0.960 . S
C2534 H2526 0.929 . S
C2534 C2535 1.377 . S
C2534 C2536 1.384 . S
C2535 C2534 1.377 . S
C2535 C2541 1.390 . S
C2536 H2527 0.930 . S
C2536 C2534 1.384 . S
C2536 C2537 1.372 . S
C2537 C2536 1.372 . S
C2537 C2538 1.400 . S
C2537 C2542 1.490 . S
C2538 H2528 0.930 . S
C2538 C2537 1.400 . S
C2538 C2541 1.386 . S
H2539 C2555 0.930 . S
H2540 C2556 0.931 . S
C2541 H2529 0.929 . S
C2541 C2535 1.390 . S
C2541 C2538 1.386 . S
C2542 C2537 1.490 . S
C2542 C2544 1.395 . S
C2542 C2545 1.403 . S
H2543 C2549 0.930 . S
C2544 H2530 0.930 . S
C2544 C2542 1.395 . S
C2544 C2547 1.403 . S
C2545 C2542 1.403 . S
C2545 C2546 1.524 . S
C2545 C2549 1.400 . S
C2546 H2531 0.960 . S
C2546 H2532 0.960 . S
C2546 H2533 0.960 . S
C2546 C2545 1.524 . S
C2547 C2544 1.403 . S
C2547 C2548 1.392 . S
C2547 C2551 1.495 . S
C2548 C2547 1.392 . S
C2548 C2549 1.385 . S
C2548 C2550 1.478 . S
C2549 H2543 0.930 . S
C2549 C2545 1.400 . S
C2549 C2548 1.385 . S
C2550 C2548 1.478 . S
C2550 C2552 1.381 . S
C2550 C2556 1.383 . S
C2551 C2547 1.495 . S
C2551 H2557 0.959 . S
C2551 H2558 0.961 . S
C2551 H2559 0.960 . S
C2552 C2550 1.381 . S
C2552 C2553 1.394 . S
C2552 H2560 0.930 . S
C2553 C2552 1.394 . S
C2553 C2554 1.383 . S
C2553 H2561 0.929 . S
C2554 C2553 1.383 . S
C2554 C2555 1.377 . S
C2555 H2539 0.930 . S
C2555 C2554 1.377 . S
C2555 C2556 1.379 . S
C2556 H2540 0.931 . S
C2556 C2550 1.383 . S
C2556 C2555 1.379 . S
H2557 C2551 0.959 . S
H2558 C2551 0.961 . S
H2559 C2551 0.960 . S
H2560 C2552 0.930 . S
H2561 C2553 0.929 . S
H2562 C2570 0.929 . S
H2563 C2572 0.930 . S
H2564 C2574 0.930 . S
H2565 C2577 0.929 . S
H2566 C2580 0.930 . S
H2567 C2582 0.960 . S
H2568 C2582 0.960 . S
H2569 C2582 0.960 . S
C2570 H2562 0.929 . S
C2570 C2571 1.377 . S
C2570 C2572 1.384 . S
C2571 C2570 1.377 . S
C2571 C2577 1.390 . S
C2572 H2563 0.930 . S
C2572 C2570 1.384 . S
C2572 C2573 1.372 . S
C2573 C2572 1.372 . S
C2573 C2574 1.400 . S
C2573 C2578 1.490 . S
C2574 H2564 0.930 . S
C2574 C2573 1.400 . S
C2574 C2577 1.386 . S
H2575 C2591 0.930 . S
H2576 C2592 0.931 . S
C2577 H2565 0.929 . S
C2577 C2571 1.390 . S
C2577 C2574 1.386 . S
C2578 C2573 1.490 . S
C2578 C2580 1.395 . S
C2578 C2581 1.403 . S
H2579 C2585 0.930 . S
C2580 H2566 0.930 . S
C2580 C2578 1.395 . S
C2580 C2583 1.403 . S
C2581 C2578 1.403 . S
C2581 C2582 1.524 . S
C2581 C2585 1.400 . S
C2582 H2567 0.960 . S
C2582 H2568 0.960 . S
C2582 H2569 0.960 . S
C2582 C2581 1.524 . S
C2583 C2580 1.403 . S
C2583 C2584 1.392 . S
C2583 C2587 1.495 . S
C2584 C2583 1.392 . S
C2584 C2585 1.385 . S
C2584 C2586 1.478 . S
C2585 H2579 0.930 . S
C2585 C2581 1.400 . S
C2585 C2584 1.385 . S
C2586 C2584 1.478 . S
C2586 C2588 1.381 . S
C2586 C2592 1.383 . S
C2587 C2583 1.495 . S
C2587 H2593 0.959 . S
C2587 H2594 0.961 . S
C2587 H2595 0.960 . S
C2588 C2586 1.381 . S
C2588 C2589 1.394 . S
C2588 H2596 0.930 . S
C2589 C2588 1.394 . S
C2589 C2590 1.383 . S
C2589 H2597 0.929 . S
C2590 C2589 1.383 . S
C2590 C2591 1.377 . S
C2591 H2575 0.930 . S
C2591 C2590 1.377 . S
C2591 C2592 1.379 . S
C2592 H2576 0.931 . S
C2592 C2586 1.383 . S
C2592 C2591 1.379 . S
H2593 C2587 0.959 . S
H2594 C2587 0.961 . S
H2595 C2587 0.960 . S
H2596 C2588 0.930 . S
H2597 C2589 0.929 . S
C898 C699 1.140 . S
C879 C74 1.201 . S
C934 C700 0.448 . S
C915 C142 0.739 . S
C970 C694 1.068 . S
C951 C231 1.073 . S
C987 C322 1.159 . S
C1006 C693 1.268 . S
C1023 C406 0.705 . S
C1042 C696 0.475 . S
C1078 C698 1.140 . S
C1059 C494 1.070 . S
C1095 C562 1.162 . S
C1114 C697 1.282 . S
C1131 C651 1.193 . S
C1150 C695 1.141 . S
C1186 C730 1.693 . S
C1167 C58 1.556 . S
C1203 C151 1.541 . S
C1222 C761 1.512 . S
C1258 C729 2.505 . S
C1239 C224 2.435 . S
C1294 C764 1.048 . S
C1275 C315 1.029 . S
C1311 C399 1.376 . S
C1330 C727 1.394 . S
C1366 C759 1.637 . S
C1347 C478 1.524 . S
C1383 C571 1.150 . S
C1402 C732 1.136 . S
C1419 C644 2.480 . S
C1438 C766 2.546 . S
C1455 C67 2.483 . S
C1474 C762 2.514 . S
C1491 C392 1.538 . S
C1510 C765 1.494 . S
C1546 C733 2.532 . S
C1527 C487 2.430 . S
C1582 C760 1.039 . S
C1563 C578 1.051 . S
C1599 C658 1.551 . S
C1618 C726 1.687 . S
C1635 C238 1.523 . S
C1654 C763 1.641 . S
C1690 C728 1.201 . S
C1671 C308 1.131 . S
C1707 C158 1.369 . S
C1726 C731 1.416 . S
C1743 C662 1.146 . S
C1762 C798 1.146 . S
C1779 C394 0.911 . S
C1798 C799 0.505 . S
C1834 C793 1.242 . S
C1815 C483 1.247 . S
C1870 C792 1.728 . S
C1851 C574 1.552 . S
C1887 C154 0.939 . S
C1906 C795 0.442 . S
C1942 C797 1.263 . S
C1923 C242 1.248 . S
C1959 C310 1.533 . S
C1978 C796 1.732 . S
C1995 C63 1.147 . S
C2014 C794 1.131 . S
C2031 C646 1.612 . S
C2050 C832 1.740 . S
C2086 C864 1.063 . S
C2067 C403 1.102 . S
C2103 C476 2.329 . S
C2122 C825 2.453 . S
C2139 C567 1.383 . S
C2158 C859 1.428 . S
C2194 C830 1.160 . S
C2175 C147 1.081 . S
C2211 C226 1.712 . S
C2230 C861 1.780 . S
C2266 C827 1.441 . S
C2247 C319 1.461 . S
C2302 C862 2.458 . S
C2283 C56 2.280 . S
C2338 C858 2.463 . S
C2319 C655 2.272 . S
C2355 C140 1.101 . S
C2374 C860 1.142 . S
C2391 C235 2.329 . S
C2410 C829 2.445 . S
C2446 C863 1.432 . S
C2427 C326 1.383 . S
C2463 C70 1.621 . S
C2482 C828 1.737 . S
C2499 C490 1.704 . S
C2518 C865 1.761 . S
C2554 C831 1.427 . S
C2535 C560 1.457 . S
C2590 C826 1.126 . S
C2571 C410 1.078 . S
