# Generated by pormake.
# Topology nia, (6,6)-cn, num edge types: 1
# Building blocks:
#     Node 0, Type 0, BuildingBlock: KUMBOL_clean_sbu_1, # of connection points: 6
#     Node 1, Type 0, BuildingBlock: KUMBOL_clean_sbu_1, # of connection points: 6
#     Node 2, Type 1, BuildingBlock: MIDCAF_clean_sbu_0, # of connection points: 6
#     Node 3, Type 1, BuildingBlock: MIDCAF_clean_sbu_0, # of connection points: 6
#     Edge 4, Type (0, 1), BuildingBlock: EYOCIG_clean_linker_4, # of connection points: 2
#     Edge 5, Type (0, 1), BuildingBlock: EYOCIG_clean_linker_4, # of connection points: 2
#     Edge 6, Type (0, 1), BuildingBlock: EYOCIG_clean_linker_4, # of connection points: 2
#     Edge 7, Type (0, 1), BuildingBlock: EYOCIG_clean_linker_4, # of connection points: 2
#     Edge 8, Type (0, 1), BuildingBlock: EYOCIG_clean_linker_4, # of connection points: 2
#     Edge 9, Type (0, 1), BuildingBlock: EYOCIG_clean_linker_4, # of connection points: 2
#     Edge 10, Type (0, 1), BuildingBlock: EYOCIG_clean_linker_4, # of connection points: 2
#     Edge 11, Type (0, 1), BuildingBlock: EYOCIG_clean_linker_4, # of connection points: 2
#     Edge 12, Type (0, 1), BuildingBlock: EYOCIG_clean_linker_4, # of connection points: 2
#     Edge 13, Type (0, 1), BuildingBlock: EYOCIG_clean_linker_4, # of connection points: 2
#     Edge 14, Type (0, 1), BuildingBlock: EYOCIG_clean_linker_4, # of connection points: 2
#     Edge 15, Type (0, 1), BuildingBlock: EYOCIG_clean_linker_4, # of connection points: 2
# Relax obj value: 0.177
# Max RMSD: 0.287
# Mean RMSD: 0.205
data_MOF--net-nia--node1-KUMBOL_clean_sbu_1--node2-MIDCAF_clean_sbu_0--edge1-EYOCIG_clean_linker_4
_symmetry_space_group_name_H-M    P1
_symmetry_Int_Tables_number       1
_symmetry_cell_setting            triclinic
loop_
_symmetry_equiv_pos_as_xyz
'x, y, z'
_cell_length_a     23.716551
_cell_length_b     23.704975
_cell_length_c     25.089902
_cell_angle_alpha  90.028728
_cell_angle_beta   90.0456
_cell_angle_gamma 137.60513
loop_
_atom_site_label
_atom_site_type_symbol
_atom_site_fract_x
_atom_site_fract_y
_atom_site_fract_z
_atom_type_partial_charge
C0 C 0.91508 0.98391 0.83224 0.0
C1 C 0.76279 0.86932 0.83059 0.0
C2 C 0.83924 0.92942 0.85918 0.0
C3 C 0.75952 0.86761 0.77471 0.0
C4 C 0.91086 0.96487 0.76584 0.0
C5 C 0.82991 0.91384 0.74271 0.0
N6 N -0.0043 0.03255 0.86637 0.0
C7 C 0.08388 0.0707 0.85297 0.0
C8 C 0.05672 0.0254 0.73955 0.0
C9 C 0.11869 0.07033 0.79421 0.0
Gd10 Gd 0.01487 0.96289 0.08695 0.0
Gd11 Gd 0.96877 0.03971 0.9564 0.0
N12 N 0.83983 0.92637 0.91362 0.0
C13 C 0.68831 0.80775 0.8592 0.0
C14 C 0.76678 0.86607 0.94107 0.0
C15 C 0.69042 0.80567 0.91442 0.0
H16 H 0.7661 0.86384 0.98364 0.0
H17 H 0.63297 0.75783 0.93662 0.0
H18 H 0.22021 0.1335 0.05847 0.0
H19 H 0.13234 0.11362 0.88055 0.0
H20 H 0.35316 0.24 0.10378 0.0
H21 H 0.6286 0.76007 0.83889 0.0
H22 H 0.69916 0.8235 0.75487 0.0
H23 H 0.85434 0.89298 0.16505 0.0
H24 H 0.08083 0.02563 0.70237 0.0
H25 H 0.18221 0.10197 0.79108 0.0
H26 H 0.29115 0.18409 0.28598 0.0
H27 H 0.81591 0.8989 0.70101 0.0
H28 H 0.91222 0.98645 0.34277 0.0
H29 H 0.80782 0.90751 0.25533 0.0
N30 N -0.00857 0.97367 0.17779 0.0
C31 C 0.07299 0.02301 0.21111 0.0
C32 C 0.90382 0.9363 0.19226 0.0
C33 C 0.935 0.98537 0.30537 0.0
C34 C 0.87112 0.93874 0.25144 0.0
C35 C 0.07957 0.04443 0.27747 0.0
H36 H 0.17683 0.11306 0.34085 0.0
N37 N 0.14607 0.07534 0.12881 0.0
C38 C 0.1479 0.07503 0.18335 0.0
C39 C 0.29922 0.19488 0.18177 0.0
C40 C 0.22524 0.13545 0.2111 0.0
C41 C 0.21913 0.13323 0.10083 0.0
C42 C 0.29603 0.19414 0.12663 0.0
O43 O 0.94954 0.93324 0.94145 0.0
O44 O 0.91606 0.87242 0.02419 0.0
O45 O 0.07761 0.9277 0.07897 0.0
O46 O 0.96917 0.85745 0.13145 0.0
O47 O 0.89307 -0.00793 0.03107 0.0
O48 O 0.8827 0.89666 0.07234 0.0
O49 O 0.0353 0.06998 0.10055 0.0
O50 O 0.06882 0.1343 1.01796 0.0
O51 O 0.89995 0.06781 0.96426 0.0
O52 O 0.00915 0.14305 0.91173 0.0
O53 O 0.09367 0.01451 1.01252 0.0
O54 O 0.10151 0.10888 0.97215 0.0
C55 C 0.92829 0.87558 0.9726 0.0
C56 C 0.85938 0.93247 0.06539 0.0
C57 C 0.03261 0.81099 0.12839 0.0
C58 C 0.10791 0.77752 0.13299 0.0
C59 C 0.97422 0.68848 0.17702 0.0
C60 C 0.96948 0.74092 0.16041 0.0
C61 C 0.04283 0.70641 0.16319 0.0
C62 C 0.10223 0.82899 0.11411 0.0
C63 C 0.02696 0.86679 0.11303 0.0
C64 C 0.23021 0.13972 0.26686 0.0
C65 C 0.16111 0.09586 0.29958 0.0
H66 H 0.35947 0.24283 0.20143 0.0
C67 C 0.0647 0.13233 0.07057 0.0
C68 C 0.12773 0.07592 0.97939 0.0
C69 C 0.93692 0.18052 0.91568 0.0
C70 C 0.85139 0.2022 0.90942 0.0
C71 C -0.01053 0.30246 0.87006 0.0
C72 C -0.00054 0.25402 0.8861 0.0
C73 C 0.91608 0.27698 0.88186 0.0
C74 C 0.86239 0.15487 0.92804 0.0
C75 C 0.94863 0.12938 0.93045 0.0
H76 H 0.92538 0.63471 0.20169 0.0
H77 H 0.91626 0.72657 0.17283 0.0
H78 H 0.04675 0.66646 0.17817 0.0
H79 H 0.15325 0.88462 0.09129 0.0
H80 H 0.03802 0.359 0.84729 0.0
H81 H 0.05635 0.27419 0.87518 0.0
H82 H 0.90831 0.31397 0.86719 0.0
H83 H 0.81191 0.09655 0.94894 0.0
C84 C 0.01589 0.08496 0.71198 0.0
C85 C 0.1304 0.23731 0.71359 0.0
C86 C 0.07034 0.16082 0.68502 0.0
C87 C 0.13197 0.24063 0.76945 0.0
C88 C 0.03497 0.0893 0.77838 0.0
C89 C 0.08574 0.17024 0.80148 0.0
N90 N 0.96761 0.0044 0.67785 0.0
C91 C 0.93001 0.91643 0.69127 0.0
C92 C 0.97527 0.94374 0.80471 0.0
C93 C 0.93058 0.88175 0.75004 0.0
Gd94 Gd 0.03635 0.98435 0.4573 0.0
Gd95 Gd 0.96002 0.03132 0.58786 0.0
N96 N 0.07352 0.1602 0.63058 0.0
C97 C 0.19212 0.31178 0.68497 0.0
C98 C 0.13402 0.23321 0.60313 0.0
C99 C 0.19441 0.30961 0.62977 0.0
H100 H 0.13642 0.23383 0.56055 0.0
H101 H 0.24239 0.36705 0.60758 0.0
H102 H 0.86721 0.77839 0.4855 0.0
H103 H 0.88789 0.86815 0.66353 0.0
H104 H 0.76005 0.64575 0.44019 0.0
H105 H 0.23978 0.37151 0.70528 0.0
H106 H 0.17602 0.30103 0.78928 0.0
H107 H 0.10684 0.14515 0.3791 0.0
H108 H 0.97526 0.91979 0.84191 0.0
H109 H 0.89939 0.81836 0.75314 0.0
H110 H 0.8151 0.70815 0.25807 0.0
H111 H 0.10071 0.18435 0.84315 0.0
H112 H 0.01323 0.08747 0.20145 0.0
H113 H 0.09231 0.19187 0.28891 0.0
N114 N 0.02578 0.00792 0.3664 0.0
C115 C 0.97635 0.92632 0.33305 0.0
C116 C 0.06332 0.09566 0.35194 0.0
C117 C 0.01421 0.06461 0.23885 0.0
C118 C 0.06094 0.12849 0.29279 0.0
C119 C 0.95493 0.91983 0.2667 0.0
H120 H 0.88611 0.82256 0.20328 0.0
N121 N 0.92432 0.85306 0.41531 0.0
C122 C 0.92438 0.85134 0.36076 0.0
C123 C 0.80452 0.69995 0.36224 0.0
C124 C 0.8639 0.77401 0.33296 0.0
C125 C 0.86683 0.77981 0.4432 0.0
C126 C 0.80566 0.70298 0.41737 0.0
O127 O 0.06544 0.0489 0.60295 0.0
O128 O 0.12619 0.08299 0.52026 0.0
O129 O 0.07209 0.92208 0.46569 0.0
O130 O 0.14192 0.03021 0.41295 0.0
O131 O 0.00813 0.10732 0.51329 0.0
O132 O 0.10269 0.11667 0.47183 0.0
O133 O 0.92939 0.96397 0.44327 0.0
O134 O 0.86544 0.93249 0.52575 0.0
O135 O 0.93275 0.10085 0.58067 0.0
O136 O 0.85662 -0.00919 0.63259 0.0
O137 O 0.98321 0.90515 0.53176 0.0
O138 O 0.8892 0.89808 0.57186 0.0
C139 C 0.1229 0.06998 0.5717 0.0
C140 C 0.06711 0.14025 0.47867 0.0
C141 C 0.18896 0.96732 0.41633 0.0
C142 C 0.22245 0.89199 0.41136 0.0
C143 C 0.31185 0.02628 0.36798 0.0
C144 C 0.2593 0.03085 0.38461 0.0
C145 C 0.29379 0.95746 0.38148 0.0
C146 C 0.17086 0.8975 0.43028 0.0
C147 C 0.13285 0.97265 0.43154 0.0
C148 C 0.85953 0.7691 0.27722 0.0
C149 C 0.9034 0.83826 0.24454 0.0
H150 H 0.75645 0.63972 0.34254 0.0
C151 C 0.86777 0.93655 0.47311 0.0
C152 C 0.92077 0.87054 0.56403 0.0
C153 C 0.82022 0.06415 0.629 0.0
C154 C 0.79955 0.15052 0.63538 0.0
C155 C 0.69836 0.01204 0.67429 0.0
C156 C 0.74645 0.00162 0.65832 0.0
C157 C 0.72449 0.08586 0.66268 0.0
C158 C 0.84654 0.13911 0.61683 0.0
C159 C 0.87081 0.05183 0.61415 0.0
H160 H 0.3658 0.07542 0.34354 0.0
H161 H 0.27375 0.08422 0.3724 0.0
H162 H 0.33383 0.95368 0.36648 0.0
H163 H 0.11503 0.84617 0.45282 0.0
H164 H 0.64158 0.96346 0.69684 0.0
H165 H 0.72576 0.94437 0.66905 0.0
H166 H 0.68777 0.09396 0.67729 0.0
H167 H 0.90501 0.18955 0.59607 0.0
Zn168 Zn 0.3557 0.63597 0.17429 0.0
Zn169 Zn 0.36393 0.64368 0.36944 0.0
Zn170 Zn 0.36032 0.63946 0.27183 0.0
C171 C 0.52127 0.73128 0.34515 0.0
C172 C 0.24773 0.47809 0.34747 0.0
O173 O 0.31649 0.69118 0.24311 0.0
O174 O 0.29463 0.65909 0.15728 0.0
C175 C 0.52134 0.75271 0.196 0.0
O176 O 0.49115 0.7195 0.29853 0.0
O177 O 0.4755 0.69931 0.38572 0.0
O178 O 0.27385 0.52514 0.38676 0.0
O179 O 0.27489 0.50859 0.30016 0.0
O180 O 0.47418 0.7269 0.15685 0.0
O181 O 0.491 0.72514 0.2433 0.0
O182 O 0.28125 0.5089 0.24498 0.0
O183 O 0.3014 0.52496 0.1578 0.0
C184 C 0.26992 0.47912 0.19832 0.0
O185 O 0.30815 0.68278 0.30066 0.0
O186 O 0.33942 0.70357 0.3866 0.0
C187 C 0.29393 0.69158 0.19644 0.0
C188 C 0.30726 0.70472 0.34744 0.0
Zn189 Zn 0.6334 0.36895 0.86894 0.0
Zn190 Zn 0.63011 0.36458 0.67458 0.0
Zn191 Zn 0.63095 0.36786 0.7718 0.0
C192 C 0.71724 0.52425 0.69687 0.0
C193 C 0.46653 0.24921 0.69623 0.0
O194 O 0.66723 0.30774 0.79873 0.0
O195 O 0.64354 0.2965 0.88536 0.0
C196 C 0.74793 0.53243 0.84705 0.0
O197 O 0.71119 0.4987 0.7441 0.0
O198 O 0.67951 0.47409 0.65828 0.0
O199 O 0.51186 0.26946 0.6573 0.0
O200 O 0.49913 0.28178 0.74265 0.0
O201 O 0.72766 0.48728 0.88613 0.0
O202 O 0.71576 0.49966 0.8006 0.0
O203 O 0.49953 0.28568 0.79924 0.0
O204 O 0.52328 0.31814 0.88494 0.0
C205 C 0.47333 0.27931 0.84628 0.0
O206 O 0.69317 0.33361 0.74545 0.0
O207 O 0.70386 0.356 0.65864 0.0
C208 C 0.66127 0.28031 0.84523 0.0
C209 C 0.7209 0.33958 0.69909 0.0
C210 C 0.22802 0.79458 0.14092 0.0
C211 C 0.18329 0.8006 0.12999 0.0
C212 C 0.25872 0.7681 0.16553 0.0
C213 C 0.27577 0.73598 0.1854 0.0
C214 C 0.24931 0.12298 0.62694 0.0
C215 C 0.19464 0.10028 0.59838 0.0
C216 C 0.31558 0.15733 0.66151 0.0
C217 C 0.38059 0.19761 0.68472 0.0
C218 C 0.14142 0.2635 0.12984 0.0
C219 C 0.10832 0.20735 0.09905 0.0
C220 C 0.18049 0.32888 0.16619 0.0
C221 C 0.21797 0.39289 0.18943 0.0
C222 C 0.83003 0.27902 0.64741 0.0
C223 C 0.83064 0.23037 0.6352 0.0
C224 C 0.80436 0.31075 0.67181 0.0
C225 C 0.76714 0.32287 0.6903 0.0
C226 C 0.73659 0.87962 0.12544 0.0
C227 C 0.79274 0.90582 0.09705 0.0
C228 C 0.67135 0.84523 0.16063 0.0
C229 C 0.60721 0.80555 0.18444 0.0
C230 C 0.8499 0.73856 0.62175 0.0
C231 C 0.88568 0.79835 0.5936 0.0
C232 C 0.80947 0.67291 0.65856 0.0
C233 C 0.77169 0.61044 0.68421 0.0
C234 C 0.20517 0.77166 0.4029 0.0
C235 C 0.19929 0.81649 0.41396 0.0
C236 C 0.23136 0.74064 0.37833 0.0
C237 C 0.26325 0.72331 0.3585 0.0
C238 C 0.25833 0.14437 0.92099 0.0
C239 C 0.19909 0.10966 0.94944 0.0
C240 C 0.32401 0.18478 0.8842 0.0
C241 C 0.3868 0.22341 0.85871 0.0
C242 C 0.12023 0.26289 0.41823 0.0
C243 C 0.09384 0.20683 0.44685 0.0
C244 C 0.15482 0.32796 0.38276 0.0
C245 C 0.19458 0.39206 0.35884 0.0
C246 C 0.72358 0.17284 0.89764 0.0
C247 C 0.77189 0.17176 0.90979 0.0
C248 C 0.69184 0.19849 0.87319 0.0
C249 C 0.67908 0.23509 0.8545 0.0
C250 C 0.73735 0.86183 0.41361 0.0
C251 C 0.79322 0.89417 0.44447 0.0
C252 C 0.67198 0.82264 0.37721 0.0
C253 C 0.60777 0.78437 0.35397 0.0
C254 C 0.87416 0.74915 0.91674 0.0
C255 C 0.89732 0.80368 0.94571 0.0
C256 C 0.83968 0.68327 0.88174 0.0
C257 C 0.79952 0.61842 0.85834 0.0
loop_
_geom_bond_atom_site_label_1
_geom_bond_atom_site_label_2
_geom_bond_distance
_geom_bond_site_symmetry_2
_ccdc_geom_bond_type
C0 C2 1.422 . S
C0 C4 1.415 . S
C0 N6 1.369 1_565 S
C1 C2 1.421 . S
C1 C3 1.417 . S
C1 C13 1.422 . S
C2 C0 1.422 . S
C2 C1 1.421 . S
C2 N12 1.359 . S
C3 C1 1.417 . S
C3 C5 1.329 . S
C3 H22 0.930 . S
C4 C0 1.415 . S
C4 C5 1.437 . S
C4 C8 1.413 1_665 S
C5 C3 1.329 . S
C5 C4 1.437 . S
C5 H27 0.929 . S
N6 C0 1.369 1_545 S
N6 C7 1.338 1_655 S
N6 Gd11 2.622 . S
C7 N6 1.338 1_455 S
C7 C9 1.378 . S
C7 H19 0.929 . S
C8 C4 1.413 1_445 S
C8 C9 1.348 . S
C8 H24 0.931 . S
C9 C7 1.378 . S
C9 C8 1.348 . S
C9 H25 0.930 . S
Gd10 N30 2.622 . S
Gd10 N37 2.570 1_565 S
Gd10 O44 2.353 1_454 S
Gd10 O45 2.468 . S
Gd10 O46 2.427 1_455 S
Gd10 O48 2.388 1_455 S
Gd10 O49 2.386 1_565 S
Gd10 O53 2.307 1_564 S
Gd10 C63 2.805 . S
Gd11 N6 2.622 . S
Gd11 N12 2.570 1_545 S
Gd11 O43 2.386 1_545 S
Gd11 O47 2.307 1_546 S
Gd11 O50 2.353 1_656 S
Gd11 O51 2.468 . S
Gd11 O52 2.427 1_655 S
Gd11 O54 2.388 1_655 S
Gd11 C75 2.805 . S
N12 C2 1.359 . S
N12 Gd11 2.570 1_565 S
N12 C14 1.343 . S
C13 C1 1.422 . S
C13 C15 1.321 . S
C13 H21 0.931 . S
C14 N12 1.343 . S
C14 C15 1.390 . S
C14 H16 0.931 . S
C15 C13 1.321 . S
C15 C14 1.390 . S
C15 H17 0.930 . S
H16 C14 0.931 . S
H17 C15 0.930 . S
H18 C41 0.931 . S
H19 C7 0.929 . S
H20 C42 0.930 . S
H21 C13 0.931 . S
H22 C3 0.930 . S
H23 C32 0.929 . S
H24 C8 0.931 . S
H25 C9 0.930 . S
H26 C64 0.930 . S
H27 C5 0.929 . S
H28 C33 0.931 . S
H29 C34 0.930 . S
N30 Gd10 2.622 . S
N30 C31 1.369 1_565 S
N30 C32 1.338 1_455 S
C31 N30 1.369 1_545 S
C31 C35 1.415 . S
C31 C38 1.422 . S
C32 H23 0.929 . S
C32 N30 1.338 1_655 S
C32 C34 1.378 . S
C33 H28 0.931 . S
C33 C34 1.348 1_545 S
C33 C35 1.413 1_655 S
C34 H29 0.930 . S
C34 C32 1.378 . S
C34 C33 1.348 1_565 S
C35 C31 1.415 . S
C35 C33 1.413 1_455 S
C35 C65 1.437 . S
H36 C65 0.929 . S
N37 Gd10 2.570 1_545 S
N37 C38 1.359 . S
N37 C41 1.343 . S
C38 C31 1.422 . S
C38 N37 1.359 . S
C38 C40 1.421 . S
C39 C40 1.422 . S
C39 C42 1.321 . S
C39 H66 0.931 . S
C40 C38 1.421 . S
C40 C39 1.422 . S
C40 C64 1.417 . S
C41 H18 0.931 . S
C41 N37 1.343 . S
C41 C42 1.390 . S
C42 H20 0.930 . S
C42 C39 1.321 . S
C42 C41 1.390 . S
O43 Gd11 2.386 1_565 S
O43 C55 1.265 . S
O44 Gd10 2.353 1_656 S
O44 C55 1.242 . S
O45 Gd10 2.468 . S
O45 C63 1.263 . S
O46 Gd10 2.427 1_655 S
O46 C63 1.252 1_655 S
O47 Gd11 2.307 1_564 S
O47 C56 1.261 . S
O48 Gd10 2.388 1_655 S
O48 C56 1.252 . S
O49 Gd10 2.386 1_545 S
O49 C67 1.265 . S
O50 Gd11 2.353 1_454 S
O50 C67 1.242 . S
O51 Gd11 2.468 . S
O51 C75 1.263 . S
O52 Gd11 2.427 1_455 S
O52 C75 1.252 1_455 S
O53 Gd10 2.307 1_546 S
O53 C68 1.261 . S
O54 Gd11 2.388 1_455 S
O54 C68 1.252 . S
C55 O43 1.265 . S
C55 O44 1.242 . S
C56 O47 1.261 . S
C56 O48 1.252 . S
C57 C60 1.394 . S
C57 C62 1.370 . S
C57 C63 1.500 . S
C58 C61 1.383 . S
C58 C62 1.395 . S
C59 C60 1.396 . S
C59 C61 1.365 . S
C59 H76 0.929 . S
C60 C57 1.394 . S
C60 C59 1.396 . S
C60 H77 0.930 1_455 S
C61 C58 1.383 . S
C61 C59 1.365 . S
C61 H78 0.931 . S
C62 C57 1.370 . S
C62 C58 1.395 . S
C62 H79 0.930 . S
C63 Gd10 2.805 . S
C63 O45 1.263 . S
C63 O46 1.252 1_455 S
C63 C57 1.500 . S
C64 H26 0.930 . S
C64 C40 1.417 . S
C64 C65 1.329 . S
C65 C35 1.437 . S
C65 H36 0.929 . S
C65 C64 1.329 . S
H66 C39 0.931 . S
C67 O49 1.265 . S
C67 O50 1.242 . S
C68 O53 1.261 . S
C68 O54 1.252 . S
C69 C72 1.394 . S
C69 C74 1.370 . S
C69 C75 1.500 . S
C70 C73 1.383 . S
C70 C74 1.395 . S
C71 C72 1.396 . S
C71 C73 1.365 . S
C71 H80 0.929 1_655 S
C72 C69 1.394 . S
C72 C71 1.396 . S
C72 H81 0.930 1_655 S
C73 C70 1.383 . S
C73 C71 1.365 . S
C73 H82 0.931 . S
C74 C69 1.370 . S
C74 C70 1.395 . S
C74 H83 0.930 . S
C75 Gd11 2.805 . S
C75 O51 1.263 . S
C75 O52 1.252 1_655 S
C75 C69 1.500 . S
H76 C59 0.929 . S
H77 C60 0.930 1_655 S
H78 C61 0.931 . S
H79 C62 0.930 . S
H80 C71 0.929 1_455 S
H81 C72 0.930 1_455 S
H82 C73 0.931 . S
H83 C74 0.930 . S
C84 C86 1.422 . S
C84 C88 1.415 . S
C84 N90 1.369 1_455 S
C85 C86 1.421 . S
C85 C87 1.417 . S
C85 C97 1.422 . S
C86 C84 1.422 . S
C86 C85 1.421 . S
C86 N96 1.359 . S
C87 C85 1.417 . S
C87 C89 1.329 . S
C87 H106 0.930 . S
C88 C84 1.415 . S
C88 C89 1.437 . S
C88 C92 1.413 . S
C89 C87 1.329 . S
C89 C88 1.437 . S
C89 H111 0.929 . S
N90 C84 1.369 1_655 S
N90 C91 1.338 1_545 S
N90 Gd95 2.622 . S
C91 N90 1.338 1_565 S
C91 C93 1.378 . S
C91 H103 0.929 . S
C92 C88 1.413 . S
C92 C93 1.348 1_445 S
C92 H108 0.931 . S
C93 C91 1.378 . S
C93 C92 1.348 1_665 S
C93 H109 0.930 . S
Gd94 N114 2.622 1_565 S
Gd94 N121 2.570 1_455 S
Gd94 O128 2.353 1_565 S
Gd94 O129 2.468 . S
Gd94 O130 2.427 1_565 S
Gd94 O132 2.388 1_565 S
Gd94 O133 2.386 1_455 S
Gd94 O137 2.307 1_455 S
Gd94 C147 2.805 . S
Gd95 N90 2.622 . S
Gd95 N96 2.570 1_655 S
Gd95 O127 2.386 1_655 S
Gd95 O131 2.307 1_655 S
Gd95 O134 2.353 1_545 S
Gd95 O135 2.468 . S
Gd95 O136 2.427 . S
Gd95 O138 2.388 1_545 S
Gd95 C159 2.805 . S
N96 C86 1.359 . S
N96 Gd95 2.570 1_455 S
N96 C98 1.343 . S
C97 C85 1.422 . S
C97 C99 1.321 . S
C97 H105 0.931 . S
C98 N96 1.343 . S
C98 C99 1.390 . S
C98 H100 0.931 . S
C99 C97 1.321 . S
C99 C98 1.390 . S
C99 H101 0.930 . S
H100 C98 0.931 . S
H101 C99 0.930 . S
H102 C125 0.931 . S
H103 C91 0.929 . S
H104 C126 0.930 . S
H105 C97 0.931 . S
H106 C87 0.930 . S
H107 C116 0.929 . S
H108 C92 0.931 . S
H109 C93 0.930 . S
H110 C148 0.930 . S
H111 C89 0.929 . S
H112 C117 0.931 . S
H113 C118 0.930 . S
N114 Gd94 2.622 1_545 S
N114 C115 1.369 1_445 S
N114 C116 1.338 . S
C115 N114 1.369 1_665 S
C115 C119 1.415 . S
C115 C122 1.422 . S
C116 H107 0.929 . S
C116 N114 1.338 . S
C116 C118 1.378 . S
C117 H112 0.931 . S
C117 C118 1.348 . S
C117 C119 1.413 1_445 S
C118 H113 0.930 . S
C118 C116 1.378 . S
C118 C117 1.348 . S
C119 C115 1.415 . S
C119 C117 1.413 1_665 S
C119 C149 1.437 . S
H120 C149 0.929 . S
N121 Gd94 2.570 1_655 S
N121 C122 1.359 . S
N121 C125 1.343 . S
C122 C115 1.422 . S
C122 N121 1.359 . S
C122 C124 1.421 . S
C123 C124 1.422 . S
C123 C126 1.321 . S
C123 H150 0.931 . S
C124 C122 1.421 . S
C124 C123 1.422 . S
C124 C148 1.417 . S
C125 H102 0.931 . S
C125 N121 1.343 . S
C125 C126 1.390 . S
C126 H104 0.930 . S
C126 C123 1.321 . S
C126 C125 1.390 . S
O127 Gd95 2.386 1_455 S
O127 C139 1.265 . S
O128 Gd94 2.353 1_545 S
O128 C139 1.242 . S
O129 Gd94 2.468 . S
O129 C147 1.263 . S
O130 Gd94 2.427 1_545 S
O130 C147 1.252 1_545 S
O131 Gd95 2.307 1_455 S
O131 C140 1.261 . S
O132 Gd94 2.388 1_545 S
O132 C140 1.252 . S
O133 Gd94 2.386 1_655 S
O133 C151 1.265 . S
O134 Gd95 2.353 1_565 S
O134 C151 1.242 . S
O135 Gd95 2.468 . S
O135 C159 1.263 . S
O136 Gd95 2.427 . S
O136 C159 1.252 . S
O137 Gd94 2.307 1_655 S
O137 C152 1.261 . S
O138 Gd95 2.388 1_565 S
O138 C152 1.252 . S
C139 O127 1.265 . S
C139 O128 1.242 . S
C140 O131 1.261 . S
C140 O132 1.252 . S
C141 C144 1.394 1_565 S
C141 C146 1.370 . S
C141 C147 1.500 . S
C142 C145 1.383 . S
C142 C146 1.395 . S
C143 C144 1.396 1_565 S
C143 C145 1.365 . S
C143 H160 0.929 1_565 S
C144 C141 1.394 1_545 S
C144 C143 1.396 1_545 S
C144 H161 0.930 . S
C145 C142 1.383 . S
C145 C143 1.365 . S
C145 H162 0.931 . S
C146 C141 1.370 . S
C146 C142 1.395 . S
C146 H163 0.930 . S
C147 Gd94 2.805 . S
C147 O129 1.263 . S
C147 O130 1.252 1_565 S
C147 C141 1.500 . S
C148 H110 0.930 . S
C148 C124 1.417 . S
C148 C149 1.329 . S
C149 C119 1.437 . S
C149 H120 0.929 . S
C149 C148 1.329 . S
H150 C123 0.931 . S
C151 O133 1.265 . S
C151 O134 1.242 . S
C152 O137 1.261 . S
C152 O138 1.252 . S
C153 C156 1.394 . S
C153 C158 1.370 . S
C153 C159 1.500 . S
C154 C157 1.383 . S
C154 C158 1.395 . S
C155 C156 1.396 . S
C155 C157 1.365 . S
C155 H164 0.929 . S
C156 C153 1.394 . S
C156 C155 1.396 . S
C156 H165 0.930 1_545 S
C157 C154 1.383 . S
C157 C155 1.365 . S
C157 H166 0.931 . S
C158 C153 1.370 . S
C158 C154 1.395 . S
C158 H167 0.930 . S
C159 Gd95 2.805 . S
C159 O135 1.263 . S
C159 O136 1.252 . S
C159 C153 1.500 . S
H160 C143 0.929 1_545 S
H161 C144 0.930 . S
H162 C145 0.931 . S
H163 C146 0.930 . S
H164 C155 0.929 . S
H165 C156 0.930 1_565 S
H166 C157 0.931 . S
H167 C158 0.930 . S
Zn168 O174 1.920 . S
Zn168 O180 1.898 . S
Zn168 O183 1.905 . S
Zn169 O177 1.905 . S
Zn169 O178 1.898 . S
Zn169 O186 1.920 . S
Zn170 O173 2.080 . S
Zn170 O176 2.114 . S
Zn170 O179 2.120 . S
Zn170 O181 2.120 . S
Zn170 O182 2.114 . S
Zn170 O185 2.080 . S
C171 O176 1.166 . S
C171 O177 1.182 . S
C172 O178 1.167 . S
C172 O179 1.299 . S
O173 Zn170 2.080 . S
O173 C187 1.305 . S
O174 Zn168 1.920 . S
O174 C187 1.234 . S
C175 O180 1.167 . S
C175 O181 1.299 . S
O176 Zn170 2.114 . S
O176 C171 1.166 . S
O177 Zn169 1.905 . S
O177 C171 1.182 . S
O178 Zn169 1.898 . S
O178 C172 1.167 . S
O179 Zn170 2.120 . S
O179 C172 1.299 . S
O180 Zn168 1.898 . S
O180 C175 1.167 . S
O181 Zn170 2.120 . S
O181 C175 1.299 . S
O182 Zn170 2.114 . S
O182 C184 1.166 . S
O183 Zn168 1.905 . S
O183 C184 1.182 . S
C184 O182 1.166 . S
C184 O183 1.182 . S
O185 Zn170 2.080 . S
O185 C188 1.305 . S
O186 Zn169 1.920 . S
O186 C188 1.234 . S
C187 O173 1.305 . S
C187 O174 1.234 . S
C188 O185 1.305 . S
C188 O186 1.234 . S
Zn189 O195 1.920 . S
Zn189 O201 1.898 . S
Zn189 O204 1.905 . S
Zn190 O198 1.905 . S
Zn190 O199 1.898 . S
Zn190 O207 1.920 . S
Zn191 O194 2.080 . S
Zn191 O197 2.114 . S
Zn191 O200 2.120 . S
Zn191 O202 2.120 . S
Zn191 O203 2.114 . S
Zn191 O206 2.080 . S
C192 O197 1.166 . S
C192 O198 1.182 . S
C193 O199 1.167 . S
C193 O200 1.299 . S
O194 Zn191 2.080 . S
O194 C208 1.305 . S
O195 Zn189 1.920 . S
O195 C208 1.234 . S
C196 O201 1.167 . S
C196 O202 1.299 . S
O197 Zn191 2.114 . S
O197 C192 1.166 . S
O198 Zn190 1.905 . S
O198 C192 1.182 . S
O199 Zn190 1.898 . S
O199 C193 1.167 . S
O200 Zn191 2.120 . S
O200 C193 1.299 . S
O201 Zn189 1.898 . S
O201 C196 1.167 . S
O202 Zn191 2.120 . S
O202 C196 1.299 . S
O203 Zn191 2.114 . S
O203 C205 1.166 . S
O204 Zn189 1.905 . S
O204 C205 1.182 . S
C205 O203 1.166 . S
C205 O204 1.182 . S
O206 Zn191 2.080 . S
O206 C209 1.305 . S
O207 Zn190 1.920 . S
O207 C209 1.234 . S
C208 O194 1.305 . S
C208 O195 1.234 . S
C209 O206 1.305 . S
C209 O207 1.234 . S
C210 C211 1.170 . S
C210 C212 1.380 . S
C211 C210 1.170 . S
C212 C210 1.380 . S
C212 C213 1.170 . S
C213 C212 1.170 . S
C214 C215 1.170 . S
C214 C216 1.380 . S
C215 C214 1.170 . S
C216 C214 1.380 . S
C216 C217 1.170 . S
C217 C216 1.170 . S
C218 C219 1.170 . S
C218 C220 1.380 . S
C219 C218 1.170 . S
C220 C218 1.380 . S
C220 C221 1.170 . S
C221 C220 1.170 . S
C222 C223 1.170 . S
C222 C224 1.380 . S
C223 C222 1.170 . S
C224 C222 1.380 . S
C224 C225 1.170 . S
C225 C224 1.170 . S
C226 C227 1.170 . S
C226 C228 1.380 . S
C227 C226 1.170 . S
C228 C226 1.380 . S
C228 C229 1.170 . S
C229 C228 1.170 . S
C230 C231 1.170 . S
C230 C232 1.380 . S
C231 C230 1.170 . S
C232 C230 1.380 . S
C232 C233 1.170 . S
C233 C232 1.170 . S
C234 C235 1.170 . S
C234 C236 1.380 . S
C235 C234 1.170 . S
C236 C234 1.380 . S
C236 C237 1.170 . S
C237 C236 1.170 . S
C238 C239 1.170 . S
C238 C240 1.380 . S
C239 C238 1.170 . S
C240 C238 1.380 . S
C240 C241 1.170 . S
C241 C240 1.170 . S
C242 C243 1.170 . S
C242 C244 1.380 . S
C243 C242 1.170 . S
C244 C242 1.380 . S
C244 C245 1.170 . S
C245 C244 1.170 . S
C246 C247 1.170 . S
C246 C248 1.380 . S
C247 C246 1.170 . S
C248 C246 1.380 . S
C248 C249 1.170 . S
C249 C248 1.170 . S
C250 C251 1.170 . S
C250 C252 1.380 . S
C251 C250 1.170 . S
C252 C250 1.380 . S
C252 C253 1.170 . S
C253 C252 1.170 . S
C254 C255 1.170 . S
C254 C256 1.380 . S
C255 C254 1.170 . S
C256 C254 1.380 . S
C256 C257 1.170 . S
C257 C256 1.170 . S
C211 C58 1.198 . S
C213 C187 1.265 . S
C215 C139 1.587 . S
C217 C193 1.387 . S
C219 C67 1.651 . S
C221 C184 1.498 . S
C223 C154 1.289 . S
C225 C209 1.282 . S
C227 C56 1.646 . S
C229 C175 1.468 . S
C233 C192 1.522 . S
C231 C152 1.645 . S
C235 C142 1.167 . S
C237 C188 1.286 . S
C241 C205 1.538 . S
C239 C68 1.645 . S
C245 C172 1.492 . S
C243 C140 1.643 . S
C249 C208 1.264 . S
C247 C70 1.250 . S
C253 C171 1.522 . S
C251 C151 1.640 . S
C257 C196 1.391 . S
C255 C55 1.583 . S
