# Generated by pormake.
# Topology soc, (4,6)-cn, num edge types: 1
# Building blocks:
#     Node 0, Type 0, BuildingBlock: ESEHIV_clean_sbu_0, # of connection points: 4
#     Node 1, Type 0, BuildingBlock: ESEHIV_clean_sbu_0, # of connection points: 4
#     Node 2, Type 0, BuildingBlock: ESEHIV_clean_sbu_0, # of connection points: 4
#     Node 3, Type 0, BuildingBlock: ESEHIV_clean_sbu_0, # of connection points: 4
#     Node 4, Type 0, BuildingBlock: ESEHIV_clean_sbu_0, # of connection points: 4
#     Node 5, Type 0, BuildingBlock: ESEHIV_clean_sbu_0, # of connection points: 4
#     Node 6, Type 0, BuildingBlock: ESEHIV_clean_sbu_0, # of connection points: 4
#     Node 7, Type 0, BuildingBlock: ESEHIV_clean_sbu_0, # of connection points: 4
#     Node 8, Type 0, BuildingBlock: ESEHIV_clean_sbu_0, # of connection points: 4
#     Node 9, Type 0, BuildingBlock: ESEHIV_clean_sbu_0, # of connection points: 4
#     Node 10, Type 0, BuildingBlock: ESEHIV_clean_sbu_0, # of connection points: 4
#     Node 11, Type 0, BuildingBlock: ESEHIV_clean_sbu_0, # of connection points: 4
#     Node 12, Type 1, BuildingBlock: PAMTOO_clean_sbu_0, # of connection points: 6
#     Node 13, Type 1, BuildingBlock: PAMTOO_clean_sbu_0, # of connection points: 6
#     Node 14, Type 1, BuildingBlock: PAMTOO_clean_sbu_0, # of connection points: 6
#     Node 15, Type 1, BuildingBlock: PAMTOO_clean_sbu_0, # of connection points: 6
#     Node 16, Type 1, BuildingBlock: PAMTOO_clean_sbu_0, # of connection points: 6
#     Node 17, Type 1, BuildingBlock: PAMTOO_clean_sbu_0, # of connection points: 6
#     Node 18, Type 1, BuildingBlock: PAMTOO_clean_sbu_0, # of connection points: 6
#     Node 19, Type 1, BuildingBlock: PAMTOO_clean_sbu_0, # of connection points: 6
#     Edge 20, Type (0, 1), BuildingBlock: XUDNAN_clean_linker_2, # of connection points: 2
#     Edge 21, Type (0, 1), BuildingBlock: XUDNAN_clean_linker_2, # of connection points: 2
#     Edge 22, Type (0, 1), BuildingBlock: XUDNAN_clean_linker_2, # of connection points: 2
#     Edge 23, Type (0, 1), BuildingBlock: XUDNAN_clean_linker_2, # of connection points: 2
#     Edge 24, Type (0, 1), BuildingBlock: XUDNAN_clean_linker_2, # of connection points: 2
#     Edge 25, Type (0, 1), BuildingBlock: XUDNAN_clean_linker_2, # of connection points: 2
#     Edge 26, Type (0, 1), BuildingBlock: XUDNAN_clean_linker_2, # of connection points: 2
#     Edge 27, Type (0, 1), BuildingBlock: XUDNAN_clean_linker_2, # of connection points: 2
#     Edge 28, Type (0, 1), BuildingBlock: XUDNAN_clean_linker_2, # of connection points: 2
#     Edge 29, Type (0, 1), BuildingBlock: XUDNAN_clean_linker_2, # of connection points: 2
#     Edge 30, Type (0, 1), BuildingBlock: XUDNAN_clean_linker_2, # of connection points: 2
#     Edge 31, Type (0, 1), BuildingBlock: XUDNAN_clean_linker_2, # of connection points: 2
#     Edge 32, Type (0, 1), BuildingBlock: XUDNAN_clean_linker_2, # of connection points: 2
#     Edge 33, Type (0, 1), BuildingBlock: XUDNAN_clean_linker_2, # of connection points: 2
#     Edge 34, Type (0, 1), BuildingBlock: XUDNAN_clean_linker_2, # of connection points: 2
#     Edge 35, Type (0, 1), BuildingBlock: XUDNAN_clean_linker_2, # of connection points: 2
#     Edge 36, Type (0, 1), BuildingBlock: XUDNAN_clean_linker_2, # of connection points: 2
#     Edge 37, Type (0, 1), BuildingBlock: XUDNAN_clean_linker_2, # of connection points: 2
#     Edge 38, Type (0, 1), BuildingBlock: XUDNAN_clean_linker_2, # of connection points: 2
#     Edge 39, Type (0, 1), BuildingBlock: XUDNAN_clean_linker_2, # of connection points: 2
#     Edge 40, Type (0, 1), BuildingBlock: XUDNAN_clean_linker_2, # of connection points: 2
#     Edge 41, Type (0, 1), BuildingBlock: XUDNAN_clean_linker_2, # of connection points: 2
#     Edge 42, Type (0, 1), BuildingBlock: XUDNAN_clean_linker_2, # of connection points: 2
#     Edge 43, Type (0, 1), BuildingBlock: XUDNAN_clean_linker_2, # of connection points: 2
#     Edge 44, Type (0, 1), BuildingBlock: XUDNAN_clean_linker_2, # of connection points: 2
#     Edge 45, Type (0, 1), BuildingBlock: XUDNAN_clean_linker_2, # of connection points: 2
#     Edge 46, Type (0, 1), BuildingBlock: XUDNAN_clean_linker_2, # of connection points: 2
#     Edge 47, Type (0, 1), BuildingBlock: XUDNAN_clean_linker_2, # of connection points: 2
#     Edge 48, Type (0, 1), BuildingBlock: XUDNAN_clean_linker_2, # of connection points: 2
#     Edge 49, Type (0, 1), BuildingBlock: XUDNAN_clean_linker_2, # of connection points: 2
#     Edge 50, Type (0, 1), BuildingBlock: XUDNAN_clean_linker_2, # of connection points: 2
#     Edge 51, Type (0, 1), BuildingBlock: XUDNAN_clean_linker_2, # of connection points: 2
#     Edge 52, Type (0, 1), BuildingBlock: XUDNAN_clean_linker_2, # of connection points: 2
#     Edge 53, Type (0, 1), BuildingBlock: XUDNAN_clean_linker_2, # of connection points: 2
#     Edge 54, Type (0, 1), BuildingBlock: XUDNAN_clean_linker_2, # of connection points: 2
#     Edge 55, Type (0, 1), BuildingBlock: XUDNAN_clean_linker_2, # of connection points: 2
#     Edge 56, Type (0, 1), BuildingBlock: XUDNAN_clean_linker_2, # of connection points: 2
#     Edge 57, Type (0, 1), BuildingBlock: XUDNAN_clean_linker_2, # of connection points: 2
#     Edge 58, Type (0, 1), BuildingBlock: XUDNAN_clean_linker_2, # of connection points: 2
#     Edge 59, Type (0, 1), BuildingBlock: XUDNAN_clean_linker_2, # of connection points: 2
#     Edge 60, Type (0, 1), BuildingBlock: XUDNAN_clean_linker_2, # of connection points: 2
#     Edge 61, Type (0, 1), BuildingBlock: XUDNAN_clean_linker_2, # of connection points: 2
#     Edge 62, Type (0, 1), BuildingBlock: XUDNAN_clean_linker_2, # of connection points: 2
#     Edge 63, Type (0, 1), BuildingBlock: XUDNAN_clean_linker_2, # of connection points: 2
#     Edge 64, Type (0, 1), BuildingBlock: XUDNAN_clean_linker_2, # of connection points: 2
#     Edge 65, Type (0, 1), BuildingBlock: XUDNAN_clean_linker_2, # of connection points: 2
#     Edge 66, Type (0, 1), BuildingBlock: XUDNAN_clean_linker_2, # of connection points: 2
#     Edge 67, Type (0, 1), BuildingBlock: XUDNAN_clean_linker_2, # of connection points: 2
# Relax obj value: 0.107
# Max RMSD: 0.217
# Mean RMSD: 0.145
data_MOF--net-soc--node1-ESEHIV_clean_sbu_0--node2-PAMTOO_clean_sbu_0--edge1-XUDNAN_clean_linker_2
_symmetry_space_group_name_H-M    P1
_symmetry_Int_Tables_number       1
_symmetry_cell_setting            triclinic
loop_
_symmetry_equiv_pos_as_xyz
'x, y, z'
_cell_length_a     56.862069
_cell_length_b     44.8869
_cell_length_c     43.052141
_cell_angle_alpha  92.093824
_cell_angle_beta   92.015135
_cell_angle_gamma 71.002387
loop_
_atom_site_label
_atom_site_type_symbol
_atom_site_fract_x
_atom_site_fract_y
_atom_site_fract_z
_atom_type_partial_charge
Cu0 Cu 0.0659 0.02764 0.33046 0.0
N1 N 0.07501 0.05725 0.35546 0.0
N2 N 0.09206 0.09368 0.37177 0.0
C3 C 0.09076 0.07289 0.34877 0.0
C4 C 0.0767 0.09063 0.39379 0.0
C5 C 0.06621 0.06825 0.38365 0.0
O6 O 0.09486 1.00087 0.30833 0.0
C7 C 0.03092 0.07844 0.29736 0.0
O8 O 0.04616 0.09443 0.30409 0.0
H9 H 0.1004 0.06974 0.32705 0.0
H10 H 0.05287 0.06077 0.3958 0.0
N11 N 0.0549 1.00183 0.35543 0.0
N12 N 0.03212 0.97374 0.37263 0.0
C13 C 0.03538 0.99147 0.34947 0.0
C14 C 0.06438 0.9902 0.38317 0.0
C15 C 0.0504 0.97291 0.39384 0.0
C16 C 0.11495 0.98916 0.32418 0.0
O17 O 0.11527 0.99659 0.35395 0.0
H18 H 0.02353 0.99738 0.32884 0.0
H19 H 0.08023 0.99422 0.39495 0.0
O20 O 0.03735 0.04942 0.3041 0.0
H21 H 0.07321 0.1036 0.41576 0.0
H22 H 0.0536 0.96053 0.41549 0.0
Cu23 Cu 0.05748 0.02801 0.72221 0.0
N24 N 0.04595 1.00043 0.69715 0.0
N25 N 0.02543 0.96762 0.68079 0.0
C26 C 0.02921 0.98643 0.70435 0.0
C27 C 0.04037 0.97006 0.65796 0.0
C28 C 0.05298 0.9902 0.66813 0.0
O29 O 0.02955 0.05711 0.74497 0.0
C30 C 0.09409 0.97358 0.74853 0.0
O31 O 0.07983 0.95781 0.73704 0.0
H32 H 0.02037 0.98965 0.72664 0.0
H33 H 0.0664 0.99691 0.65528 0.0
N34 N 0.06902 0.05318 0.69714 0.0
N35 N 0.09127 0.08223 0.68058 0.0
C36 C 0.0886 0.06341 0.7031 0.0
C37 C 0.05884 0.06608 0.67013 0.0
C38 C 0.07253 0.08389 0.65982 0.0
C39 C 1.00862 0.06809 0.73049 0.0
O40 O 1.00634 0.05809 0.70185 0.0
H41 H 0.10069 0.05701 0.72347 0.0
H42 H 0.04245 0.06299 0.65889 0.0
O43 O 0.08654 1.00362 0.74715 0.0
H44 H 0.04194 0.95841 0.63531 0.0
H45 H 0.06863 0.0975 0.63891 0.0
Cu46 Cu 0.30783 0.03368 0.02724 0.0
N47 N 0.28471 0.0191 1.00592 0.0
N48 N 0.27114 0.9874 0.97456 0.0
C49 C 0.29035 0.99764 0.9825 0.0
C50 C 0.2526 1.00317 0.99366 0.0
C51 C 0.26103 0.02288 0.01301 0.0
O52 O 0.32744 0.9982 0.05319 0.0
C53 C 0.31004 0.06962 0.97689 0.0
O54 O 0.28607 0.07416 0.97795 0.0
H55 H 0.30883 0.98788 0.9732 0.0
H56 H 0.25117 0.03739 0.03209 0.0
N57 N 0.29185 0.067 0.05389 0.0
N58 N 0.28632 0.10039 0.09451 0.0
C59 C 0.30133 0.07369 0.08125 0.0
C60 C 0.2701 0.09026 0.04962 0.0
C61 C 0.26667 0.11107 0.07471 0.0
C62 C 0.31554 0.99179 0.07536 0.0
O63 O 0.29231 1.00938 0.07932 0.0
H64 H 0.31935 0.05989 0.09063 0.0
H65 H 0.25789 0.09235 0.02941 0.0
O66 O 0.32454 0.05104 0.99649 0.0
H67 H 0.23474 0.99952 0.99461 0.0
H68 H 0.2512 0.1326 0.07792 0.0
Cu69 Cu 0.10643 0.32363 0.02733 0.0
N70 N 0.11684 0.34726 0.99945 0.0
N71 N 0.13971 0.35955 0.964 0.0
C72 C 0.13539 0.3361 0.97916 0.0
C73 C 0.12315 0.38644 0.97515 0.0
C74 C 0.10902 0.37877 0.99695 0.0
O75 O 0.13606 0.30225 0.05237 0.0
C76 C 0.07482 0.28622 0.01139 0.0
O77 O 0.07042 0.28709 0.04122 0.0
H78 H 0.1462 0.31139 0.97656 0.0
H79 H 0.09451 0.39503 1.01061 0.0
N80 N 0.08241 0.35101 0.05289 0.0
N81 N 0.04604 0.37216 0.07627 0.0
C82 C 0.05769 0.35651 0.05088 0.0
C83 C 0.08641 0.36492 0.07987 0.0
C84 C 0.06402 0.37773 0.09451 0.0
C85 C 0.13674 0.29512 0.08088 0.0
O86 O 0.11604 0.29642 0.09432 0.0
H87 H 0.04863 0.34713 0.03231 0.0
H88 H 0.10455 0.36397 0.08919 0.0
O89 O 0.09136 0.29717 1.00217 0.0
H90 H 0.12158 0.41 0.96832 0.0
H91 H 0.06139 0.38881 0.11746 0.0
Cu92 Cu 0.82376 0.03215 0.02117 0.0
N93 N 0.84603 0.04614 1.0004 0.0
N94 N 0.85124 0.08055 0.96741 0.0
C95 C 0.83901 0.07635 0.99219 0.0
C96 C 0.86743 0.05183 0.96033 0.0
C97 C 0.86408 0.03048 0.98073 0.0
O98 O 0.8049 0.06886 0.04733 0.0
C99 C 0.817 0.98644 0.97863 0.0
O100 O 0.83869 0.9708 0.99117 0.0
H101 H 0.82263 0.09407 1.00126 0.0
H102 H 0.8718 1.00508 0.97865 0.0
N103 N 0.83862 0.99991 0.04846 0.0
N104 N 0.83894 0.96404 0.08301 0.0
C105 C 0.82486 0.98724 0.06485 0.0
C106 C 0.86247 0.98446 0.0565 0.0
C107 C 0.86271 0.96222 0.07808 0.0
C108 C 0.81723 0.07505 0.07078 0.0
O109 O 0.84015 0.05647 0.0757 0.0
H110 H 0.80474 0.99529 0.06355 0.0
H111 H 0.87841 0.98895 0.04729 0.0
O112 O 0.80591 0.01471 0.98853 0.0
H113 H 0.8784 0.04601 0.93957 0.0
H114 H 0.87904 0.94571 0.08882 0.0
Cu115 Cu 0.02369 0.73203 0.03168 0.0
N116 N 1.00985 0.71087 1.00183 0.0
N117 N 0.9868 0.70582 0.96002 0.0
C118 C 0.99888 0.72368 0.97506 0.0
C119 C 0.99038 0.68067 0.97804 0.0
C120 C 1.00462 0.68384 1.00383 0.0
O121 O 0.99507 0.75821 0.05521 0.0
C122 C 0.05983 0.73396 0.99245 0.0
O123 O 0.06151 0.70404 0.99165 0.0
H124 H 0.99849 0.74667 0.96776 0.0
H125 H 1.00977 0.66826 0.02326 0.0
N126 N 0.04641 0.70465 0.05867 0.0
N127 N 0.07975 0.68762 0.09049 0.0
C128 C 0.06788 0.7086 0.0688 0.0
C129 C 0.04446 0.68032 0.07454 0.0
C130 C 0.06505 0.66972 0.09419 0.0
C131 C 0.994 0.7601 0.08483 0.0
O132 O 0.01463 0.74986 0.10163 0.0
H133 H 0.074 0.72762 0.06146 0.0
H134 H 0.02877 0.67172 0.07294 0.0
O135 O 0.043 0.75306 1.00912 0.0
H136 H 0.98272 0.66178 0.97334 0.0
H137 H 0.06863 0.65071 0.1103 0.0
Cu138 Cu 0.56008 0.53957 0.84263 0.0
N139 N 0.57581 0.56239 0.86803 0.0
N140 N 0.59691 0.59479 0.88339 0.0
C141 C 0.58874 0.58083 0.85892 0.0
C142 C 0.5888 0.58471 0.90881 0.0
C143 C 0.57582 0.56476 0.89927 0.0
O144 O 0.58608 0.50422 0.82393 0.0
C145 C 0.51835 0.56631 0.79947 0.0
O146 O 0.51776 0.53769 0.79325 0.0
H147 H 0.59152 0.5846 0.83483 0.0
H148 H 0.5668 0.55306 0.91409 0.0
N149 N 0.54283 0.52073 0.8676 0.0
N150 N 0.51498 0.49804 0.88082 0.0
C151 C 0.51939 0.52007 0.86348 0.0
C152 C 0.55342 0.49896 0.88898 0.0
C153 C 0.53634 0.48503 0.89726 0.0
C154 C 0.60514 0.50428 0.80927 0.0
O155 O 0.60667 0.53091 0.79943 0.0
H156 H 0.50632 0.53388 0.84661 0.0
H157 H 0.57277 0.4922 0.89643 0.0
O158 O 0.53617 0.57021 0.81611 0.0
H159 H 0.59209 0.59116 0.93263 0.0
H160 H 0.5399 0.46567 0.91293 0.0
Cu161 Cu 0.56691 0.51886 0.22708 0.0
N162 N 0.55225 0.4948 0.20171 0.0
N163 N 0.52569 0.47046 0.18397 0.0
C164 C 0.5321 0.48674 0.20795 0.0
C165 C 0.54258 0.46808 0.16194 0.0
C166 C 0.55895 0.48307 0.17297 0.0
O167 O 0.54111 0.55284 0.24736 0.0
C168 C 0.59997 0.46269 0.25312 0.0
O169 O 0.58937 0.44801 0.23306 0.0
H170 H 0.52194 0.49354 0.22927 0.0
H171 H 0.57453 0.48549 0.16083 0.0
N172 N 0.58483 0.53755 0.20349 0.0
N173 N 0.61416 0.55849 0.19266 0.0
C174 C 0.60592 0.5426 0.21342 0.0
C175 C 0.57939 0.55066 0.17542 0.0
C176 C 0.5975 0.56365 0.16866 0.0
C177 C 0.52271 0.56833 0.23039 0.0
O178 O 0.52185 0.56002 0.2009 0.0
H179 H 0.61451 0.53572 0.23602 0.0
H180 H 0.56321 0.55123 0.16117 0.0
O181 O 0.59129 0.4926 0.25603 0.0
H182 H 0.54313 0.4563 0.13946 0.0
H183 H 0.59824 0.57604 0.1478 0.0
Cu184 Cu 0.80471 0.53289 0.52506 0.0
N185 N 0.79312 0.56175 0.49346 0.0
N186 N 0.7958 0.59338 0.4558 0.0
C187 C 0.80752 0.57586 0.48002 0.0
C188 C 0.77306 0.58989 0.45384 0.0
C189 C 0.77153 0.57018 0.47698 0.0
O190 O 0.8223 0.55118 0.5571 0.0
C191 C 0.80876 0.4796 0.48764 0.0
O192 O 0.78454 0.49296 0.48886 0.0
H193 H 0.82665 0.57216 0.48727 0.0
H194 H 0.75615 0.56168 0.48055 0.0
N195 N 0.77954 0.52576 0.54707 0.0
N196 N 0.76397 0.5022 0.58184 0.0
C197 C 0.78471 0.50456 0.56963 0.0
C198 C 0.75452 0.53769 0.54515 0.0
C199 C 0.74482 0.52277 0.56643 0.0
C200 C 0.81285 0.58068 0.56389 0.0
O201 O 0.79361 0.59769 0.54744 0.0
H202 H 0.80344 0.49033 0.57624 0.0
H203 H 0.74401 0.55566 0.52942 0.0
O204 O 0.82265 0.49263 0.50317 0.0
H205 H 0.75866 0.60032 0.43666 0.0
H206 H 0.72532 0.52663 0.57023 0.0
Cu207 Cu 0.60455 0.81281 0.52718 0.0
N208 N 0.63255 0.80793 0.50218 0.0
N209 N 0.66225 0.79874 0.46649 0.0
C210 C 0.6417 0.79227 0.47532 0.0
C211 C 0.6658 0.81928 0.48824 0.0
C212 C 0.64758 0.82503 0.50969 0.0
O213 O 0.61457 0.82472 0.56871 0.0
C214 C 0.5737 0.8538 0.48187 0.0
O215 O 0.59439 0.84873 0.46685 0.0
H216 H 0.63326 0.77714 0.46228 0.0
H217 H 0.64503 0.84146 0.52927 0.0
N218 N 0.59405 0.77766 0.53264 0.0
N219 N 0.5648 0.75841 0.54873 0.0
C220 C 0.56957 0.78091 0.53255 0.0
C221 C 0.6052 0.75157 0.54909 0.0
C222 C 0.5872 0.73978 0.55915 0.0
C223 C 0.63568 0.80682 0.57868 0.0
O224 O 0.64789 0.78223 0.56151 0.0
H225 H 0.55518 0.80159 0.52418 0.0
H226 H 0.62461 0.74339 0.5561 0.0
O227 O 0.57485 0.84393 0.50944 0.0
H228 H 0.67995 0.83058 0.4879 0.0
H229 H 0.59015 0.72042 0.57472 0.0
Cu230 Cu 0.30225 0.53562 0.52253 0.0
N231 N 0.32158 0.55361 0.49928 0.0
N232 N 0.32793 0.58638 0.46455 0.0
C233 C 0.31139 0.57447 0.4768 0.0
C234 C 0.34952 0.57251 0.48029 0.0
C235 C 0.34554 0.55234 0.5017 0.0
O236 O 0.28519 0.56921 0.55099 0.0
C237 C 0.29129 0.50866 0.46925 0.0
O238 O 0.31545 0.50244 0.46758 0.0
H239 H 0.29185 0.58137 0.47021 0.0
H240 H 0.35904 0.53822 0.51815 0.0
N241 N 0.31891 0.49914 0.5455 0.0
N242 N 0.32386 0.46183 0.58108 0.0
C243 C 0.31064 0.49132 0.57212 0.0
C244 C 0.33807 0.47357 0.53727 0.0
C245 C 0.34116 0.45058 0.55912 0.0
C246 C 0.29919 0.5739 0.57296 0.0
O247 O 0.32218 0.5547 0.57543 0.0
H248 H 0.29447 0.50657 0.58398 0.0
H249 H 0.34851 0.47134 0.51631 0.0
O250 O 0.28021 0.52381 0.49297 0.0
H251 H 0.36696 0.57652 0.47661 0.0
H252 H 0.35496 0.42733 0.55871 0.0
Cu253 Cu 0.51306 0.24379 0.52676 0.0
N254 N 0.53863 0.22086 0.50082 0.0
N255 N 0.57572 0.20686 0.47866 0.0
C256 C 0.56175 0.22279 0.5023 0.0
C257 C 0.56078 0.19442 0.46137 0.0
C258 C 0.53783 0.20307 0.47521 0.0
O259 O 0.52837 0.26894 0.5539 0.0
C260 C 0.46839 0.25491 0.49116 0.0
O261 O 0.46977 0.22737 0.50188 0.0
H262 H 0.56783 0.23716 0.51937 0.0
H263 H 0.52149 0.19778 0.4666 0.0
N264 N 0.50324 0.2166 0.55129 0.0
N265 N 0.48314 0.19946 0.58666 0.0
C266 C 0.48589 0.22489 0.57333 0.0
C267 C 0.51189 0.18492 0.55066 0.0
C268 C 0.49953 0.17426 0.57243 0.0
C269 C 0.54366 0.25368 0.57478 0.0
O270 O 0.54552 0.22412 0.57875 0.0
H271 H 0.47518 0.24911 0.57892 0.0
H272 H 0.5262 0.17062 0.53545 0.0
O273 O 0.48494 0.26732 0.49983 0.0
H274 H 0.56588 0.18065 0.44003 0.0
H275 H 0.50259 0.14984 0.57752 0.0
Dy276 Dy 0.28375 0.28508 0.31113 0.0
Dy277 Dy 0.31227 0.31694 0.26148 0.0
C278 C 0.31353 0.24507 0.2543 0.0
O279 O 0.31582 0.29338 0.33814 0.0
O280 O 0.34095 0.29573 0.2981 0.0
O281 O 0.28401 0.24845 0.34277 0.0
O282 O 0.25116 0.28943 0.33731 0.0
O283 O 0.30006 0.35148 0.30065 0.0
O284 O 0.26693 0.33744 0.3153 0.0
O285 O 0.27331 0.32566 0.24322 0.0
O286 O 0.26293 0.28601 0.26565 0.0
O287 O 0.31212 0.35684 0.23458 0.0
O288 O 0.34248 0.31245 0.2309 0.0
C289 C 0.33736 0.29337 0.32778 0.0
O290 O 0.30902 0.24468 0.28394 0.0
O291 O 0.31232 0.27108 0.24047 0.0
C292 C 0.24478 0.24283 0.35259 0.0
C293 C 0.2091 0.21221 0.3588 0.0
C294 C 0.21682 0.21676 0.32913 0.0
C295 C 0.23447 0.23218 0.32603 0.0
C296 C 0.23792 0.23701 0.38209 0.0
C297 C 0.22026 0.22189 0.38519 0.0
C298 C 0.26097 0.26237 0.35051 0.0
C299 C 0.27906 0.35776 0.31518 0.0
C300 C 0.26006 0.30645 0.2435 0.0
C301 C 0.3515 0.35928 0.22044 0.0
C302 C 0.38703 0.38887 0.20851 0.0
C303 C 0.36314 0.39938 0.19449 0.0
C304 C 0.34562 0.38468 0.20035 0.0
C305 C 0.37491 0.34963 0.23573 0.0
C306 C 0.39253 0.36434 0.22983 0.0
C307 C 0.3337 0.34182 0.22265 0.0
H308 H 0.20844 0.20964 0.30841 0.0
H309 H 0.2395 0.23663 0.30303 0.0
H310 H 0.24568 0.24506 0.40283 0.0
H311 H 0.21493 0.21833 0.40833 0.0
H312 H 0.35813 0.41861 0.17844 0.0
H313 H 0.32766 0.39257 0.18838 0.0
H314 H 0.37989 0.33011 0.25144 0.0
H315 H 0.41078 0.35561 0.24093 0.0
Dy316 Dy 0.80627 0.25547 0.30288 0.0
Dy317 Dy 0.82619 0.29663 0.25475 0.0
C318 C 0.76994 0.32032 0.27774 0.0
O319 O 0.81392 0.22827 0.25764 0.0
O320 O 0.8035 0.27126 0.22753 0.0
O321 O 0.78462 0.22508 0.30992 0.0
O322 O 0.80543 0.2374 0.34874 0.0
O323 O 0.85864 0.25231 0.25932 0.0
O324 O 0.84734 0.23168 0.30263 0.0
O325 O 0.84052 0.30552 0.30232 0.0
O326 O 0.80916 0.29831 0.32968 0.0
O327 O 0.83659 0.3374 0.24413 0.0
O328 O 0.83398 0.30418 0.20756 0.0
C329 C 0.80677 0.24115 0.23063 0.0
O330 O 0.77191 0.29118 0.28391 0.0
O331 O 0.78937 0.32831 0.27097 0.0
C332 C 0.76872 0.22594 0.36003 0.0
C333 C 0.72867 0.22503 0.39639 0.0
C334 C 0.72438 0.24367 0.36987 0.0
C335 C 0.74426 0.24421 0.35188 0.0
C336 C 0.77309 0.20804 0.38689 0.0
C337 C 0.75328 0.20762 0.40495 0.0
C338 C 0.78966 0.22304 0.33971 0.0
C339 C 0.86342 0.23141 0.28131 0.0
C340 C 0.82695 0.31088 0.32735 0.0
C341 C 0.86185 0.33272 0.19966 0.0
C342 C 0.89941 0.34552 0.16654 0.0
C343 C 0.89374 0.35788 0.19688 0.0
C344 C 0.87507 0.35167 0.21323 0.0
C345 C 0.86802 0.31971 0.16967 0.0
C346 C 0.88662 0.32593 0.15337 0.0
C347 C 0.83993 0.32929 0.21481 0.0
H348 H 0.70566 0.25766 0.36293 0.0
H349 H 0.74046 0.25832 0.33126 0.0
H350 H 0.79181 0.19365 0.39343 0.0
H351 H 0.75719 0.19278 0.42504 0.0
H352 H 0.90311 0.37328 0.20758 0.0
H353 H 0.87053 0.36245 0.23611 0.0
H354 H 0.85801 0.30533 0.15839 0.0
H355 H 0.89081 0.31562 0.13024 0.0
Dy356 Dy 0.80579 0.75475 0.23659 0.0
Dy357 Dy 0.83577 0.78613 0.29074 0.0
C358 C 0.78 0.78319 0.30085 0.0
O359 O 0.80328 0.80089 0.21776 0.0
O360 O 0.81587 0.82605 0.25999 0.0
O361 O 0.77446 0.75635 0.206 0.0
O362 O 0.80667 0.71399 0.20802 0.0
O363 O 0.85785 0.78184 0.24782 0.0
O364 O 0.84404 0.74636 0.2187 0.0
O365 O 0.84875 0.73402 0.29685 0.0
O366 O 0.8143 0.72373 0.27719 0.0
O367 O 0.86913 0.78247 0.31783 0.0
O368 O 0.83549 0.82197 0.32604 0.0
C369 C 0.80673 0.82574 0.23152 0.0
O370 O 0.77686 0.7802 0.27064 0.0
O371 O 0.80169 0.78234 0.31347 0.0
C372 C 0.76752 0.70751 0.20002 0.0
C373 C 0.73729 0.66903 0.20405 0.0
C374 C 0.74879 0.6774 0.23092 0.0
C375 C 0.76374 0.69655 0.22893 0.0
C376 C 0.75592 0.69955 0.17326 0.0
C377 C 0.74088 0.68051 0.17523 0.0
C378 C 0.78388 0.72671 0.19753 0.0
C379 C 0.85911 0.76312 0.2233 0.0
C380 C 0.83397 0.71685 0.29568 0.0
C381 C 0.87423 0.83086 0.33589 0.0
C382 C 0.90563 0.86778 0.34863 0.0
C383 C 0.9107 0.84525 0.32401 0.0
C384 C 0.89516 0.82696 0.31769 0.0
C385 C 0.86857 0.85424 0.35952 0.0
C386 C 0.884 0.87256 0.36575 0.0
C387 C 0.85922 0.80941 0.33252 0.0
H388 H 0.74614 0.66928 0.25351 0.0
H389 H 0.77247 0.70265 0.24988 0.0
H390 H 0.75869 0.70781 0.15078 0.0
H391 H 0.7325 0.67423 0.1541 0.0
H392 H 0.92723 0.84081 0.31043 0.0
H393 H 0.89996 0.80916 0.29919 0.0
H394 H 0.85252 0.85778 0.37379 0.0
H395 H 0.87918 0.89014 0.38443 0.0
Dy396 Dy 0.33396 0.81065 0.29888 0.0
Dy397 Dy 0.31546 0.77025 0.24289 0.0
C398 C 0.37291 0.74977 0.26659 0.0
O399 O 0.32727 0.83798 0.25463 0.0
O400 O 0.33733 0.79639 0.22008 0.0
O401 O 0.34625 0.85011 0.31174 0.0
O402 O 0.34181 0.81993 0.34741 0.0
O403 O 0.28368 0.81449 0.25051 0.0
O404 O 0.29229 0.82822 0.30051 0.0
O405 O 0.30293 0.75779 0.2879 0.0
O406 O 0.33378 0.76521 0.31943 0.0
O407 O 0.31169 0.72648 0.22485 0.0
O408 O 0.29798 0.76859 0.1977 0.0
C409 C 0.33444 0.82609 0.22682 0.0
O410 O 0.36948 0.77745 0.28039 0.0
O411 O 0.3545 0.74127 0.25432 0.0
C412 C 0.37341 0.84363 0.35536 0.0
C413 C 0.41809 0.85098 0.37972 0.0
C414 C 0.41797 0.83337 0.35199 0.0
C415 C 0.39586 0.82965 0.33998 0.0
C416 C 0.37358 0.86022 0.38358 0.0
C417 C 0.39574 0.86376 0.39575 0.0
C418 C 0.34953 0.8433 0.34104 0.0
C419 C 0.27685 0.83087 0.27647 0.0
C420 C 0.31696 0.75133 0.31332 0.0
C421 C 0.27618 0.73202 0.1927 0.0
C422 C 0.23239 0.71727 0.17801 0.0
C423 C 0.23569 0.73052 0.20733 0.0
C424 C 0.25738 0.73791 0.21459 0.0
C425 C 0.27297 0.71894 0.16346 0.0
C426 C 0.25127 0.71165 0.15615 0.0
C427 C 0.29923 0.73923 0.20001 0.0
H428 H 0.43494 0.82277 0.33935 0.0
H429 H 0.39618 0.81661 0.31823 0.0
H430 H 0.35643 0.87126 0.39575 0.0
H431 H 0.39518 0.87756 0.41705 0.0
H432 H 0.22138 0.73553 0.22455 0.0
H433 H 0.25951 0.74817 0.23725 0.0
H434 H 0.28732 0.71421 0.14631 0.0
H435 H 0.24947 0.70114 0.13352 0.0
Dy436 Dy 0.29388 0.75233 0.79268 0.0
Dy437 Dy 0.32193 0.79413 0.7528 0.0
C438 C 0.26378 0.82219 0.76642 0.0
O439 O 0.30743 0.72664 0.74876 0.0
O440 O 0.30311 0.76925 0.71905 0.0
O441 O 0.26657 0.72826 0.79165 0.0
O442 O 0.28807 0.72972 0.83397 0.0
O443 O 0.34996 0.74707 0.7603 0.0
O444 O 0.33506 0.72972 0.80275 0.0
O445 O 0.32118 0.81251 0.80241 0.0
O446 O 0.29301 0.79236 0.82385 0.0
O447 O 0.35248 0.81228 0.74933 0.0
O448 O 0.32589 0.81761 0.71095 0.0
C449 C 0.30389 0.7399 0.72173 0.0
O450 O 0.26358 0.79346 0.77177 0.0
O451 O 0.28451 0.82836 0.76219 0.0
C452 C 0.24666 0.73004 0.83956 0.0
C453 C 0.20281 0.74331 0.87438 0.0
C454 C 0.20563 0.76544 0.85365 0.0
C455 C 0.22735 0.75888 0.83643 0.0
C456 C 0.24407 0.70816 0.86044 0.0
C457 C 0.22246 0.71469 0.87768 0.0
C458 C 0.26952 0.72219 0.82125 0.0
C459 C 0.35329 0.72881 0.78423 0.0
C460 C 0.30665 0.81091 0.82512 0.0
C461 C 0.36796 0.81078 0.69846 0.0
C462 C 0.40836 0.79503 0.65711 0.0
C463 C 0.40925 0.77672 0.68329 0.0
C464 C 0.38925 0.78442 0.70367 0.0
C465 C 0.36701 0.82897 0.67235 0.0
C466 C 0.3869 0.8212 0.65191 0.0
C467 C 0.34711 0.8205 0.72052 0.0
H468 H 0.19088 0.78759 0.85025 0.0
H469 H 0.22898 0.77621 0.82049 0.0
H470 H 0.25879 0.68588 0.86339 0.0
H471 H 0.22126 0.69731 0.8938 0.0
H472 H 0.42531 0.75623 0.68788 0.0
H473 H 0.39053 0.76986 0.72358 0.0
H474 H 0.35093 0.8495 0.66792 0.0
H475 H 0.38562 0.83613 0.6323 0.0
Dy476 Dy 0.301 0.25398 0.76004 0.0
Dy477 Dy 0.33555 0.28435 0.80678 0.0
C478 C 0.27755 0.29691 0.8199 0.0
O479 O 0.30829 0.29236 0.73306 0.0
O480 O 0.31642 0.32255 0.77365 0.0
O481 O 0.26921 0.25819 0.72928 0.0
O482 O 0.29786 0.21277 0.73492 0.0
O483 O 0.35669 0.26889 0.76314 0.0
O484 O 0.34117 0.229 0.75065 0.0
O485 O 0.3416 0.23511 0.82252 0.0
O486 O 0.30522 0.22809 0.80465 0.0
O487 O 0.37151 0.28083 0.82776 0.0
O488 O 0.33875 0.31978 0.84023 0.0
C489 C 0.31104 0.31887 0.74409 0.0
O490 O 0.27343 0.28702 0.79176 0.0
O491 O 0.29994 0.2936 0.8313 0.0
C492 C 0.25774 0.21199 0.71845 0.0
C493 C 0.22088 0.18309 0.70608 0.0
C494 C 0.21798 0.20583 0.73034 0.0
C495 C 0.23626 0.22032 0.73642 0.0
C496 C 0.26103 0.18845 0.69519 0.0
C497 C 0.24287 0.17416 0.68907 0.0
C498 C 0.27655 0.22816 0.72182 0.0
C499 C 0.35805 0.24276 0.74761 0.0
C500 C 0.32499 0.22045 0.82331 0.0
C501 C 0.37717 0.32914 0.84387 0.0
C502 C 0.40267 0.37362 0.84752 0.0
C503 C 0.38823 0.37125 0.82085 0.0
C504 C 0.37558 0.34914 0.81903 0.0
C505 C 0.39176 0.33112 0.87023 0.0
C506 C 0.4044 0.35311 0.87207 0.0
C507 C 0.36279 0.30724 0.84367 0.0
H508 H 0.20123 0.21323 0.74382 0.0
H509 H 0.23337 0.23839 0.7546 0.0
H510 H 0.2775 0.18155 0.68117 0.0
H511 H 0.24589 0.15635 0.67061 0.0
H512 H 0.38675 0.38643 0.80139 0.0
H513 H 0.36433 0.34791 0.79847 0.0
H514 H 0.39302 0.316 0.88971 0.0
H515 H 0.41503 0.35457 0.89311 0.0
Dy516 Dy 0.8267 0.31083 0.79883 0.0
Dy517 Dy 0.79571 0.27312 0.75351 0.0
C518 C 0.85524 0.24709 0.76177 0.0
O519 O 0.80992 0.34275 0.75944 0.0
O520 O 0.8071 0.30496 0.7234 0.0
O521 O 0.85289 0.33656 0.8038 0.0
O522 O 0.83625 0.32569 0.84459 0.0
O523 O 0.76813 0.32016 0.76523 0.0
O524 O 0.78626 0.33109 0.81111 0.0
O525 O 0.79354 0.26132 0.80292 0.0
O526 O 0.83063 0.26532 0.82107 0.0
O527 O 0.76777 0.25013 0.74961 0.0
O528 O 0.78791 0.25358 0.70896 0.0
C529 C 0.80603 0.33397 0.73078 0.0
O530 O 0.85441 0.27616 0.76875 0.0
O531 O 0.83481 0.23939 0.75829 0.0
C532 C 0.87829 0.32597 0.84995 0.0
C533 C 0.92604 0.308 0.87982 0.0
C534 C 0.92135 0.32544 0.85245 0.0
C535 C 0.89781 0.33439 0.83782 0.0
C536 C 0.88286 0.30871 0.87746 0.0
C537 C 0.90644 0.29988 0.89223 0.0
C538 C 0.85332 0.33614 0.83414 0.0
C539 C 0.76694 0.33594 0.79175 0.0
C540 C 0.81244 0.25358 0.82272 0.0
C541 C 0.74617 0.25387 0.70142 0.0
C542 C 0.6991 0.26755 0.67078 0.0
C543 C 0.70617 0.29166 0.68622 0.0
C544 C 0.72949 0.28485 0.7015 0.0
C545 C 0.73949 0.23004 0.6853 0.0
C546 C 0.71626 0.23677 0.67013 0.0
C547 C 0.76979 0.24539 0.71966 0.0
H548 H 0.93583 0.33263 0.84251 0.0
H549 H 0.89485 0.34806 0.81696 0.0
H550 H 0.86825 0.30196 0.88764 0.0
H551 H 0.90941 0.28632 0.91316 0.0
H552 H 0.69341 0.31557 0.68735 0.0
H553 H 0.73428 0.30358 0.71395 0.0
H554 H 0.7521 0.206 0.68495 0.0
H555 H 0.71169 0.21773 0.658 0.0
Dy556 Dy 0.79408 0.7695 0.7996 0.0
Dy557 Dy 0.81812 0.80281 0.74644 0.0
C558 C 0.81326 0.73261 0.73422 0.0
O559 O 0.8352 0.75146 0.80906 0.0
O560 O 0.84737 0.78821 0.7839 0.0
O561 O 0.79276 0.72949 0.82509 0.0
O562 O 0.7676 0.77624 0.83614 0.0
O563 O 0.79941 0.84113 0.78137 0.0
O564 O 0.8027 0.81024 0.82344 0.0
O565 O 0.78192 0.80208 0.72584 0.0
O566 O 0.76172 0.79779 0.76994 0.0
O567 O 0.81666 0.84323 0.71936 0.0
O568 O 0.84696 0.79923 0.71406 0.0
C569 C 0.85177 0.76522 0.80358 0.0
O570 O 0.79949 0.73557 0.75884 0.0
O571 O 0.82376 0.75367 0.72737 0.0
C572 C 0.75405 0.73315 0.84638 0.0
C573 C 0.71487 0.70942 0.85736 0.0
C574 C 0.7198 0.7158 0.82691 0.0
C575 C 0.73923 0.72771 0.82146 0.0
C576 C 0.74945 0.7263 0.87658 0.0
C577 C 0.73011 0.71455 0.88204 0.0
C578 C 0.77421 0.74627 0.84189 0.0
C579 C 0.79978 0.83783 0.81165 0.0
C580 C 0.76158 0.80344 0.74015 0.0
C581 C 0.8557 0.84548 0.70341 0.0
C582 C 0.89464 0.87039 0.69568 0.0
C583 C 0.88808 0.86488 0.72565 0.0
C584 C 0.86881 0.85228 0.72948 0.0
C585 C 0.86148 0.8523 0.67372 0.0
C586 C 0.88076 0.8646 0.66986 0.0
C587 C 0.83768 0.82853 0.70597 0.0
H588 H 0.70833 0.71225 0.80744 0.0
H589 H 0.74254 0.73292 0.79795 0.0
H590 H 0.76079 0.73019 0.89606 0.0
H591 H 0.72714 0.70936 0.90567 0.0
H592 H 0.89855 0.86899 0.74592 0.0
H593 H 0.86468 0.8469 0.75259 0.0
H594 H 0.8516 0.84713 0.65334 0.0
H595 H 0.88519 0.86896 0.64655 0.0
H596 H 0.13403 0.08872 0.33977 0.0
H597 H 0.08145 0.14896 0.40483 0.0
H598 H 0.10524 0.18594 0.40719 0.0
H599 H 0.1886 0.0999 0.37428 0.0
H600 H 0.20318 0.10059 0.33792 0.0
H601 H 0.18176 0.07882 0.34057 0.0
H602 H 0.15521 0.11011 0.29504 0.0
H603 H 0.17656 0.13199 0.29223 0.0
H604 H 0.14392 0.15258 0.29755 0.0
H605 H 0.13494 0.2157 0.4041 0.0
H606 H 0.16896 0.23694 0.39526 0.0
H607 H 0.20231 0.15888 0.33112 0.0
C608 C 0.12735 0.10984 0.35425 0.0
C609 C 0.10586 0.11566 0.37232 0.0
C610 C 0.09802 0.1435 0.39122 0.0
C611 C 0.11132 0.16487 0.39254 0.0
C612 C 0.13243 0.15829 0.37469 0.0
C613 C 0.14041 0.13157 0.35579 0.0
C614 C 0.16402 0.13006 0.33939 0.0
C615 C 0.18567 0.10059 0.3486 0.0
C616 C 0.15966 0.13126 0.30395 0.0
C617 C 0.16811 0.15997 0.3523 0.0
C618 C 0.14959 0.17583 0.37259 0.0
C619 C 0.14952 0.20356 0.38819 0.0
C620 C 0.16898 0.21535 0.38314 0.0
C621 C 0.18831 0.19951 0.36263 0.0
C622 C 0.18768 0.17161 0.34674 0.0
H623 H 1.00994 0.14075 0.28174 0.0
H624 H 0.99228 0.05467 0.29299 0.0
H625 H 0.9477 0.08435 0.28644 0.0
H626 H 0.96142 0.19066 0.32386 0.0
H627 H 0.95472 0.22406 0.29906 0.0
H628 H 0.98556 0.19582 0.30072 0.0
H629 H 0.98417 0.18657 0.24106 0.0
H630 H 0.9534 0.21514 0.23912 0.0
H631 H 0.95879 0.17582 0.22327 0.0
H632 H 0.90535 0.12391 0.28691 0.0
H633 H 0.86738 0.17044 0.28791 0.0
H634 H 0.91143 0.23114 0.27287 0.0
C635 C 0.99675 0.12798 0.28201 0.0
C636 C 1.0047 0.09531 0.28791 0.0
C637 C 0.98676 0.0796 0.28837 0.0
C638 C 0.96133 0.09628 0.28475 0.0
C639 C 0.95409 0.1286 0.28012 0.0
C640 C 0.97123 0.14425 0.27804 0.0
C641 C 0.9583 0.17938 0.2742 0.0
C642 C 0.96543 0.1986 0.30106 0.0
C643 C 0.964 0.18984 0.24252 0.0
C644 C 0.93125 0.18113 0.27562 0.0
C645 C 0.92934 0.15149 0.27908 0.0
C646 C 0.90656 0.14713 0.28355 0.0
C647 C 0.88515 0.1737 0.28434 0.0
C648 C 0.88656 0.20421 0.28032 0.0
C649 C 0.90987 0.20796 0.27553 0.0
H650 H 1.00703 0.95432 0.32491 0.0
H651 H 0.01337 0.96053 0.42554 0.0
H652 H 0.98142 0.9349 0.42994 0.0
H653 H 0.94005 0.96991 0.32062 0.0
H654 H 0.94149 0.94248 0.28853 0.0
H655 H 0.96465 0.96188 0.29308 0.0
H656 H 0.99945 0.90761 0.29281 0.0
H657 H 0.9764 0.88806 0.28835 0.0
H658 H 0.99871 0.87858 0.32028 0.0
H659 H 0.94949 0.9079 0.42383 0.0
H660 H 0.91962 0.88079 0.40765 0.0
H661 H 0.93276 0.89259 0.31077 0.0
C662 C 1.00153 0.95059 0.34786 0.0
C663 C 0.0129 0.95938 0.3749 0.0
C664 C 1.00531 0.95364 0.40448 0.0
C665 C 0.98702 0.93926 0.40724 0.0
C666 C 0.97637 0.9307 0.3802 0.0
C667 C 0.98328 0.93613 0.35105 0.0
C668 C 0.9691 0.92404 0.32577 0.0
C669 C 0.95286 0.9512 0.30583 0.0
C670 C 0.98698 0.89802 0.30562 0.0
C671 C 0.95327 0.91085 0.34533 0.0
C672 C 0.95774 0.9151 0.37665 0.0
C673 C 0.94567 0.90467 0.39937 0.0
C674 C 0.92856 0.88946 0.38989 0.0
C675 C 0.92352 0.88477 0.3579 0.0
C676 C 0.93618 0.89566 0.33539 0.0
H677 H 0.16065 0.96288 0.35226 0.0
H678 H 0.12011 0.9632 0.26484 0.0
H679 H 0.15722 0.92292 0.24313 0.0
H680 H 0.22043 0.95324 0.31905 0.0
H681 H 0.2377 0.92803 0.34943 0.0
H682 H 0.20817 0.95736 0.35761 0.0
H683 H 0.19207 0.91405 0.37784 0.0
H684 H 0.22149 0.88456 0.36957 0.0
H685 H 0.19311 0.88044 0.353 0.0
H686 H 0.1984 0.88134 0.2317 0.0
H687 H 0.24075 0.84308 0.23044 0.0
H688 H 0.25452 0.87024 0.32549 0.0
C689 C 0.15954 0.95466 0.32846 0.0
C690 C 0.1374 0.96623 0.31024 0.0
C691 C 0.13684 0.95478 0.27923 0.0
C692 C 0.15782 0.93185 0.26673 0.0
C693 C 0.17922 0.92074 0.2855 0.0
C694 C 0.18027 0.93191 0.31564 0.0
C695 C 0.20543 0.91598 0.33105 0.0
C696 C 0.21871 0.94009 0.33979 0.0
C697 C 0.20286 0.89767 0.35955 0.0
C698 C 0.2184 0.89386 0.30494 0.0
C699 C 0.20295 0.89698 0.27888 0.0
C700 C 0.21067 0.87882 0.25193 0.0
C701 C 0.23482 0.85706 0.25151 0.0
C702 C 0.25113 0.85355 0.27787 0.0
C703 C 0.24263 0.87227 0.30494 0.0
H704 H 0.11628 0.90943 0.75373 0.0
H705 H 0.13167 0.998 0.76307 0.0
H706 H 0.17634 0.9687 0.77084 0.0
H707 H 0.16424 0.86637 0.81157 0.0
H708 H 0.17166 0.82989 0.78923 0.0
H709 H 0.14061 0.85778 0.78735 0.0
H710 H 0.14314 0.85851 0.72745 0.0
H711 H 0.17425 0.83092 0.72913 0.0
H712 H 0.16828 0.86817 0.71068 0.0
H713 H 0.21964 0.93004 0.77225 0.0
H714 H 0.25837 0.88488 0.77124 0.0
H715 H 0.21536 0.82072 0.76218 0.0
C716 C 0.12894 0.92273 0.75807 0.0
C717 C 0.12033 0.95615 0.75786 0.0
C718 C 0.13766 0.9725 0.76334 0.0
C719 C 0.16314 0.95602 0.76768 0.0
C720 C 0.17105 0.92315 0.76684 0.0
C721 C 0.15445 0.90664 0.76266 0.0
C722 C 0.16797 0.8713 0.76164 0.0
C723 C 0.16068 0.8554 0.78908 0.0
C724 C 0.16312 0.85636 0.73036 0.0
C725 C 0.19481 0.87055 0.76502 0.0
C726 C 0.19611 0.90075 0.76806 0.0
C727 C 0.21882 0.9063 0.7702 0.0
C728 C 0.24077 0.88038 0.76938 0.0
C729 C 0.24004 0.8491 0.76652 0.0
C730 C 0.21663 0.84425 0.7645 0.0
H731 H 0.11726 0.09969 0.72872 0.0
H732 H 0.1082 0.09914 0.62816 0.0
H733 H 0.13942 0.12596 0.62439 0.0
H734 H 0.12545 0.17601 0.737 0.0
H735 H 0.14868 0.16465 0.76778 0.0
H736 H 0.12543 0.14541 0.76298 0.0
H737 H 0.16001 0.09111 0.75911 0.0
H738 H 0.18336 0.11016 0.76405 0.0
H739 H 0.18378 0.08463 0.73063 0.0
H740 H 0.17162 0.15225 0.63095 0.0
H741 H 0.20348 0.1762 0.64747 0.0
H742 H 0.19267 0.15997 0.74392 0.0
C743 C 0.12196 0.105 0.7059 0.0
C744 C 0.11005 0.09738 0.67871 0.0
C745 C 0.11665 0.10512 0.64935 0.0
C746 C 0.1345 0.12024 0.64694 0.0
C747 C 0.14569 0.12759 0.6741 0.0
C748 C 0.13976 0.12025 0.70305 0.0
C749 C 0.15474 0.13083 0.72851 0.0
C750 C 0.13754 0.15571 0.75036 0.0
C751 C 0.17146 0.10249 0.74664 0.0
C752 C 0.17004 0.14513 0.70927 0.0
C753 C 0.16444 0.14294 0.67794 0.0
C754 C 0.17621 0.15404 0.6554 0.0
C755 C 0.19438 0.16748 0.66503 0.0
C756 C 0.20073 0.16978 0.69696 0.0
C757 C 0.18813 0.15872 0.71938 0.0
H758 H 0.95931 0.08426 0.71372 0.0
H759 H 0.01073 0.11183 0.77593 0.0
H760 H 0.97663 0.1599 0.79165 0.0
H761 H 0.92565 0.15896 0.68696 0.0
H762 H 0.89566 0.15333 0.68604 0.0
H763 H 0.92344 0.11994 0.68147 0.0
H764 H 0.91147 0.09297 0.72777 0.0
H765 H 0.88342 0.1261 0.73221 0.0
H766 H 0.90489 0.11382 0.76471 0.0
H767 H 0.93817 0.20771 0.79577 0.0
H768 H 0.89708 0.24886 0.79328 0.0
H769 H 0.86959 0.18902 0.73065 0.0
C770 C 0.96331 0.10014 0.73108 0.0
C771 C 0.98772 0.09431 0.74362 0.0
C772 C 0.99218 0.11565 0.76623 0.0
C773 C 0.97294 0.1431 0.77515 0.0
C774 C 0.94926 0.14855 0.76166 0.0
C775 C 0.94425 0.12733 0.7406 0.0
C776 C 0.91727 0.13891 0.72925 0.0
C777 C 0.91541 0.14303 0.69383 0.0
C778 C 0.90345 0.11662 0.73908 0.0
C779 C 0.908 0.17046 0.74651 0.0
C780 C 0.92682 0.17558 0.76496 0.0
C781 C 0.92324 0.20373 0.78176 0.0
C782 C 0.89984 0.2271 0.77995 0.0
C783 C 0.88006 0.22223 0.76172 0.0
C784 C 0.88425 0.19337 0.74493 0.0
H785 H 0.98424 0.97613 0.71564 0.0
H786 H 0.02968 0.9155 0.64436 0.0
H787 H 1.00152 0.8839 0.6415 0.0
H788 H 0.97006 0.91359 0.75498 0.0
H789 H 0.93868 0.93773 0.76348 0.0
H790 H 0.96261 0.95564 0.76043 0.0
H791 H 0.93609 0.99274 0.71845 0.0
H792 H 0.9121 0.97493 0.72133 0.0
H793 H 0.92545 0.97606 0.68421 0.0
H794 H 0.96811 0.85976 0.64482 0.0
H795 H 0.93157 0.84378 0.65494 0.0
H796 H 0.90791 0.91851 0.72524 0.0
C797 C 0.98848 0.95601 0.6997 0.0
C798 C 1.00922 0.94856 0.68006 0.0
C799 C 0.01378 0.92217 0.65926 0.0
C800 C 0.99796 0.90386 0.65761 0.0
C801 C 0.97766 0.91201 0.67705 0.0
C802 C 0.97289 0.93733 0.69782 0.0
C803 C 0.94953 0.94109 0.71578 0.0
C804 C 0.95559 0.93675 0.75074 0.0
C805 C 0.92962 0.97311 0.70956 0.0
C806 C 0.94186 0.91408 0.70162 0.0
C807 C 0.95841 0.89768 0.67931 0.0
C808 C 0.95506 0.87233 0.6623 0.0
C809 C 0.93419 0.86354 0.66811 0.0
C810 C 0.91688 0.87995 0.69078 0.0
C811 C 0.92095 0.90539 0.70796 0.0
H812 H 0.27662 0.1629 0.10364 0.0
H813 H 0.30916 0.07271 0.1472 0.0
H814 H 0.32089 0.09949 0.19372 0.0
H815 H 0.3229 0.19579 0.12956 0.0
H816 H 0.30135 0.23503 0.13539 0.0
H817 H 0.29445 0.20879 0.10658 0.0
H818 H 0.25234 0.21623 0.13251 0.0
H819 H 0.25922 0.24235 0.16146 0.0
H820 H 0.2521 0.20826 0.17324 0.0
H821 H 0.32785 0.13725 0.23609 0.0
H822 H 0.33081 0.18238 0.26937 0.0
H823 H 0.2963 0.24603 0.19507 0.0
C824 C 0.28586 0.14889 0.12318 0.0
C825 C 0.29183 0.1159 0.12215 0.0
C826 C 0.30449 0.09811 0.14776 0.0
C827 C 0.31116 0.11308 0.17418 0.0
C828 C 0.30527 0.14574 0.17428 0.0
C829 C 0.29298 0.16335 0.14935 0.0
C830 C 0.28942 0.19791 0.15463 0.0
C831 C 0.30284 0.21007 0.13008 0.0
C832 C 0.2616 0.21731 0.15549 0.0
C833 C 0.30178 0.19705 0.18631 0.0
C834 C 0.31053 0.16692 0.1976 0.0
C835 C 0.32136 0.16091 0.22731 0.0
C836 C 0.32303 0.18654 0.24598 0.0
C837 C 0.31435 0.21744 0.23445 0.0
C838 C 0.30384 0.22253 0.20418 0.0
H839 H 0.03018 0.36694 0.13394 0.0
H840 H 1.00578 0.3824 0.03757 0.0
H841 H 0.96434 0.38058 0.05093 0.0
H842 H 1.00118 0.31133 0.14717 0.0
H843 H 0.99277 0.32409 0.18661 0.0
H844 H 0.01944 0.33039 0.17037 0.0
H845 H 1.00116 0.39021 0.18326 0.0
H846 H 0.97449 0.38408 0.19985 0.0
H847 H 0.97026 0.41196 0.16936 0.0
H848 H 0.92693 0.37281 0.07397 0.0
H849 H 0.89575 0.3607 0.10512 0.0
H850 H 0.94502 0.34899 0.18637 0.0
C851 C 0.01589 0.37094 0.11584 0.0
C852 C 0.02107 0.37522 0.08476 0.0
C853 C 1.00213 0.37921 0.06152 0.0
C854 C 0.97856 0.37826 0.06891 0.0
C855 C 0.97428 0.37322 0.09965 0.0
C856 C 0.99236 0.36979 0.12278 0.0
C857 C 0.98359 0.36242 0.15353 0.0
C858 C 1.00024 0.33014 0.16508 0.0
C859 C 0.9823 0.38875 0.17794 0.0
C860 C 0.95788 0.36181 0.14399 0.0
C861 C 0.95282 0.36829 0.11286 0.0
C862 C 0.93062 0.36792 0.09841 0.0
C863 C 0.91312 0.36073 0.11625 0.0
C864 C 0.91796 0.35379 0.14818 0.0
C865 C 0.94062 0.35459 0.16215 0.0
H866 H 0.86087 0.9352 0.13627 0.0
H867 H 0.79632 0.95002 0.07443 0.0
H868 H 0.77887 0.92116 0.10949 0.0
H869 H 0.86574 0.85568 0.1552 0.0
H870 H 0.87557 0.85952 0.19495 0.0
H871 H 0.88261 0.88252 0.16545 0.0
H872 H 0.86089 0.93355 0.19764 0.0
H873 H 0.85342 0.91062 0.22693 0.0
H874 H 0.82904 0.9419 0.20865 0.0
H875 H 0.76921 0.88869 0.14898 0.0
H876 H 0.76929 0.85137 0.18985 0.0
H877 H 0.83921 0.85816 0.22723 0.0
C878 C 0.84314 0.93225 0.1301 0.0
C879 C 0.82978 0.94539 0.10286 0.0
C880 C 0.80662 0.94094 0.09555 0.0
C881 C 0.79655 0.92448 0.11527 0.0
C882 C 0.80987 0.91246 0.14222 0.0
C883 C 0.83277 0.91577 0.14959 0.0
C884 C 0.84364 0.8992 0.17939 0.0
C885 C 0.86834 0.87267 0.17337 0.0
C886 C 0.84693 0.92273 0.20465 0.0
C887 C 0.82328 0.88606 0.18742 0.0
C888 C 0.80397 0.89406 0.16564 0.0
C889 C 0.78397 0.88265 0.16653 0.0
C890 C 0.78408 0.86166 0.18981 0.0
C891 C 0.80387 0.85276 0.21197 0.0
C892 C 0.82339 0.86567 0.21122 0.0
H893 H 0.11692 0.70799 0.07157 0.0
H894 H 0.09354 0.66575 0.1488 0.0
H895 H 0.13072 0.66737 0.17929 0.0
H896 H 0.1832 0.6686 0.0818 0.0
H897 H 0.19117 0.70262 0.07145 0.0
H898 H 0.16335 0.69663 0.05527 0.0
H899 H 0.13709 0.75191 0.0761 0.0
H900 H 0.16479 0.75808 0.0924 0.0
H901 H 0.1389 0.76168 0.11691 0.0
H902 H 0.16957 0.67613 0.20231 0.0
H903 H 0.20773 0.68944 0.21524 0.0
H904 H 0.20502 0.72693 0.12318 0.0
C905 C 0.11955 0.69908 0.09489 0.0
C906 C 0.10219 0.68677 0.10774 0.0
C907 C 0.10664 0.67494 0.13824 0.0
C908 C 0.12766 0.67594 0.15583 0.0
C909 C 0.14414 0.6887 0.14257 0.0
C910 C 0.14039 0.69989 0.11272 0.0
C911 C 0.16062 0.71297 0.10402 0.0
C912 C 0.17546 0.69407 0.07651 0.0
C913 C 0.14969 0.74825 0.09695 0.0
C914 C 0.17624 0.7077 0.13378 0.0
C915 C 0.16646 0.69366 0.15574 0.0
C916 C 0.17743 0.68704 0.18525 0.0
C917 C 0.199 0.6949 0.19246 0.0
C918 C 0.20941 0.70921 0.17025 0.0
C919 C 0.19776 0.71562 0.14054 0.0
H920 H 0.29493 0.97158 0.91997 0.0
H921 H 0.25135 0.94184 0.98551 0.0
H922 H 0.25819 0.89205 0.95537 0.0
H923 H 0.27255 0.93836 0.85089 0.0
H924 H 0.30218 0.92703 0.83224 0.0
H925 H 0.29356 0.9605 0.85885 0.0
H926 H 0.33413 0.93535 0.89112 0.0
H927 H 0.34263 0.90152 0.86492 0.0
H928 H 0.3405 0.89638 0.90593 0.0
H929 H 0.27182 0.84494 0.92108 0.0
H930 H 0.28541 0.80538 0.87912 0.0
H931 H 0.31875 0.86586 0.83299 0.0
C932 C 0.2867 0.9546 0.92769 0.0
C933 C 0.2726 0.96038 0.95497 0.0
C934 C 0.26192 0.93792 0.96446 0.0
C935 C 0.26594 0.9095 0.9477 0.0
C936 C 0.28045 0.90418 0.92139 0.0
C937 C 0.29024 0.92626 0.91095 0.0
C938 C 0.30449 0.91482 0.88131 0.0
C939 C 0.29247 0.93646 0.85422 0.0
C940 C 0.33207 0.91185 0.88612 0.0
C941 C 0.30123 0.88273 0.87684 0.0
C942 C 0.28761 0.87708 0.9006 0.0
C943 C 0.28225 0.84917 0.90214 0.0
C944 C 0.29014 0.82683 0.87811 0.0
C945 C 0.30295 0.83263 0.85248 0.0
C946 C 0.30911 0.86068 0.85226 0.0
H947 H 0.15897 0.31201 0.92157 0.0
H948 H 0.16527 0.40036 0.95852 0.0
H949 H 0.20005 0.39488 0.92366 0.0
H950 H 0.22402 0.27149 0.91367 0.0
H951 H 0.22069 0.25131 0.87766 0.0
H952 H 0.1958 0.26247 0.90492 0.0
H953 H 0.16536 0.2931 0.86198 0.0
H954 H 0.19019 0.28205 0.8346 0.0
H955 H 0.17274 0.32305 0.84139 0.0
H956 H 0.23611 0.37789 0.88836 0.0
H957 H 0.26966 0.35214 0.85169 0.0
H958 H 0.23876 0.27647 0.83437 0.0
C959 C 0.16768 0.33019 0.9222 0.0
C960 C 0.1594 0.35667 0.94272 0.0
C961 C 0.17109 0.38012 0.94275 0.0
C962 C 0.19094 0.37712 0.92314 0.0
C963 C 0.1987 0.35072 0.9033 0.0
C964 C 0.18732 0.32778 0.90239 0.0
C965 C 0.19941 0.30174 0.87884 0.0
C966 C 0.21065 0.26988 0.89473 0.0
C967 C 0.18081 0.29989 0.85265 0.0
C968 C 0.21956 0.31346 0.867 0.0
C969 C 0.21888 0.34165 0.88166 0.0
C970 C 0.23658 0.35613 0.87632 0.0
C971 C 0.25554 0.34136 0.85554 0.0
C972 C 0.2564 0.31276 0.83994 0.0
C973 C 0.23806 0.29878 0.84548 0.0
H974 H 0.8773 0.11147 0.93713 0.0
H975 H 0.80326 0.10692 0.95005 0.0
H976 H 0.78553 0.15181 0.91581 0.0
H977 H 0.85926 0.19665 0.93604 0.0
H978 H 0.88054 0.19733 0.90623 0.0
H979 H 0.88795 0.16445 0.93178 0.0
H980 H 0.89314 0.12597 0.88421 0.0
H981 H 0.88589 0.15873 0.85854 0.0
H982 H 0.86806 0.13205 0.85581 0.0
H983 H 0.77552 0.19591 0.88023 0.0
H984 H 0.77374 0.2377 0.84383 0.0
H985 H 0.85384 0.21573 0.85376 0.0
C986 C 0.85742 0.12005 0.93257 0.0
C987 C 0.84158 0.10617 0.94654 0.0
C988 C 0.81562 0.11774 0.94009 0.0
C989 C 0.80538 0.1431 0.92057 0.0
C990 C 0.82133 0.15669 0.90761 0.0
C991 C 0.84677 0.1457 0.91316 0.0
C992 C 0.85948 0.16492 0.896 0.0
C993 C 0.87258 0.18184 0.91889 0.0
C994 C 0.87772 0.14418 0.87222 0.0
C995 C 0.83717 0.18819 0.88 0.0
C996 C 0.8154 0.18285 0.88706 0.0
C997 C 0.79239 0.2005 0.87456 0.0
C998 C 0.79157 0.22415 0.85391 0.0
C999 C 0.8136 0.23003 0.84616 0.0
C1000 C 0.83666 0.21201 0.85965 0.0
H1001 H 0.94441 0.69186 0.94582 0.0
H1002 H 0.99355 0.73909 0.91191 0.0
H1003 H 0.96545 0.75672 0.86632 0.0
H1004 H 0.92566 0.66622 0.86953 0.0
H1005 H 0.89402 0.67336 0.88079 0.0
H1006 H 0.91894 0.66245 0.90953 0.0
H1007 H 0.89664 0.71258 0.94247 0.0
H1008 H 0.87171 0.72364 0.91382 0.0
H1009 H 0.88823 0.75064 0.92498 0.0
H1010 H 0.93095 0.77179 0.82617 0.0
H1011 H 0.89232 0.78368 0.79431 0.0
H1012 H 0.86528 0.72664 0.85413 0.0
C1013 C 0.94952 0.70533 0.92846 0.0
C1014 C 0.97126 0.714 0.93235 0.0
C1015 C 0.97694 0.73234 0.90948 0.0
C1016 C 0.96116 0.74232 0.88344 0.0
C1017 C 0.9397 0.73378 0.88055 0.0
C1018 C 0.93385 0.71566 0.90239 0.0
C1019 C 0.90896 0.71122 0.89458 0.0
C1020 C 0.91209 0.67623 0.88823 0.0
C1021 C 0.89029 0.72537 0.9205 0.0
C1022 C 0.90162 0.72995 0.86515 0.0
C1023 C 0.91969 0.7426 0.85739 0.0
C1024 C 0.91675 0.76178 0.83186 0.0
C1025 C 0.89468 0.76844 0.81392 0.0
C1026 C 0.87571 0.75601 0.82154 0.0
C1027 C 0.87947 0.73624 0.84739 0.0
H1028 H 0.14602 0.28027 0.14305 0.0
H1029 H 0.17915 0.30472 0.06245 0.0
H1030 H 0.21421 0.30893 0.09535 0.0
H1031 H 0.1615 0.33148 0.19714 0.0
H1032 H 0.16914 0.30484 0.22908 0.0
H1033 H 0.14727 0.30112 0.19916 0.0
H1034 H 0.17369 0.243 0.18912 0.0
H1035 H 0.19589 0.2462 0.21891 0.0
H1036 H 0.20605 0.23327 0.18004 0.0
H1037 H 0.24266 0.31734 0.13723 0.0
H1038 H 0.26677 0.32149 0.18479 0.0
H1039 H 0.21788 0.28801 0.23892 0.0
C1040 C 0.16091 0.28584 0.1322 0.0
C1041 C 0.15966 0.29225 0.10004 0.0
C1042 C 0.17956 0.2996 0.08689 0.0
C1043 C 0.19958 0.3022 0.10544 0.0
C1044 C 0.19979 0.29686 0.13712 0.0
C1045 C 0.18136 0.28806 0.15037 0.0
C1046 C 0.1862 0.28395 0.1852 0.0
C1047 C 0.16475 0.30671 0.20373 0.0
C1048 C 0.19074 0.24956 0.19383 0.0
C1049 C 0.20981 0.29271 0.18947 0.0
C1050 C 0.21707 0.30036 0.16137 0.0
C1051 C 0.23734 0.31104 0.15931 0.0
C1052 C 0.25081 0.31357 0.18657 0.0
C1053 C 0.2442 0.30519 0.21565 0.0
C1054 C 0.22345 0.29444 0.21703 0.0
H1055 H 0.09632 0.6966 0.95557 0.0
H1056 H 0.06577 0.79291 0.99081 0.0
H1057 H 0.09841 0.80677 0.96343 0.0
H1058 H 0.15986 0.69067 0.96378 0.0
H1059 H 0.16888 0.66669 0.92893 0.0
H1060 H 0.14262 0.66521 0.95022 0.0
H1061 H 0.11454 0.67937 0.90057 0.0
H1062 H 0.14074 0.68075 0.87906 0.0
H1063 H 0.11275 0.71437 0.88005 0.0
H1064 H 0.13603 0.80893 0.9324 0.0
H1065 H 0.17404 0.79936 0.90192 0.0
H1066 H 0.17854 0.70149 0.88753 0.0
C1067 C 0.09625 0.72075 0.95751 0.0
C1068 C 0.07835 0.74371 0.97536 0.0
C1069 C 0.07919 0.77493 0.9772 0.0
C1070 C 0.09769 0.78297 0.96174 0.0
C1071 C 0.11517 0.75953 0.94452 0.0
C1072 C 0.11446 0.72906 0.94238 0.0
C1073 C 0.13544 0.70783 0.92311 0.0
C1074 C 0.15272 0.68103 0.94269 0.0
C1075 C 0.12525 0.69482 0.89397 0.0
C1076 C 0.14832 0.73095 0.91471 0.0
C1077 C 0.13643 0.76071 0.92712 0.0
C1078 C 0.14534 0.78571 0.92252 0.0
C1079 C 0.16691 0.78007 0.905 0.0
C1080 C 0.17948 0.74962 0.89228 0.0
C1081 C 0.16975 0.72495 0.89721 0.0
H1082 H 0.28285 0.10539 0.92985 0.0
H1083 H 0.35679 0.07589 0.9726 0.0
H1084 H 0.36929 0.10994 0.93683 0.0
H1085 H 0.3017 0.10917 0.85073 0.0
H1086 H 0.27522 0.14328 0.84213 0.0
H1087 H 0.2728 0.11561 0.87011 0.0
H1088 H 0.25835 0.16092 0.91135 0.0
H1089 H 0.26083 0.18869 0.88356 0.0
H1090 H 0.27749 0.18532 0.92035 0.0
H1091 H 0.37254 0.15033 0.8977 0.0
H1092 H 0.367 0.19094 0.85833 0.0
H1093 H 0.29088 0.19285 0.84109 0.0
C1094 C 0.3018 0.10575 0.93165 0.0
C1095 C 0.31886 0.08781 0.95418 0.0
C1096 C 0.34341 0.0892 0.95553 0.0
C1097 C 0.35063 0.10857 0.93532 0.0
C1098 C 0.33314 0.12629 0.91373 0.0
C1099 C 0.30926 0.12479 0.9117 0.0
C1100 C 0.29372 0.14646 0.88702 0.0
C1101 C 0.28538 0.12749 0.86095 0.0
C1102 C 0.27128 0.17185 0.90144 0.0
C1103 C 0.31245 0.16074 0.87552 0.0
C1104 C 0.33508 0.14889 0.89119 0.0
C1105 C 0.35494 0.15948 0.88519 0.0
C1106 C 0.35158 0.18267 0.86275 0.0
C1107 C 0.32854 0.1951 0.84631 0.0
C1108 C 0.30883 0.18369 0.85286 0.0
H1109 H 0.02562 0.29352 0.01966 0.0
H1110 H 0.08277 0.26806 0.95026 0.0
H1111 H 0.05121 0.2666 0.90975 0.0
H1112 H 0.98666 0.24769 0.98524 0.0
H1113 H 0.9581 0.27821 0.99504 0.0
H1114 H 0.98566 0.27282 0.01916 0.0
H1115 H 0.98182 0.33122 0.01243 0.0
H1116 H 0.9544 0.33686 0.98815 0.0
H1117 H 0.98057 0.34614 0.97389 0.0
H1118 H 0.01304 0.27259 0.87613 0.0
H1119 H 0.97115 0.28547 0.85169 0.0
H1120 H 0.93826 0.30916 0.94253 0.0
C1121 C 0.03164 0.28656 0.99612 0.0
C1122 C 0.05679 0.2803 0.9882 0.0
C1123 C 0.06371 0.27253 0.95691 0.0
C1124 C 0.04589 0.27168 0.93375 0.0
C1125 C 0.02116 0.27883 0.94217 0.0
C1126 C 0.01401 0.28602 0.97264 0.0
C1127 C 0.98593 0.2955 0.97506 0.0
C1128 C 0.97866 0.27215 0.99479 0.0
C1129 C 0.97504 0.32945 0.98814 0.0
C1130 C 0.97836 0.29304 0.94114 0.0
C1131 C 0.999 0.28309 0.92264 0.0
C1132 C 0.99676 0.2802 0.89042 0.0
C1133 C 0.97284 0.28781 0.87672 0.0
C1134 C 0.95131 0.29843 0.89509 0.0
C1135 C 0.95428 0.3007 0.92782 0.0
H1136 H 0.82568 0.92351 0.96913 0.0
H1137 H 0.78744 0.01366 0.92791 0.0
H1138 H 0.77754 0.9858 0.88079 0.0
H1139 H 0.85353 0.88314 0.90188 0.0
H1140 H 0.8497 0.84614 0.91095 0.0
H1141 H 0.8521 0.87321 0.94181 0.0
H1142 H 0.81009 0.87336 0.96335 0.0
H1143 H 0.80768 0.84598 0.93272 0.0
H1144 H 0.78289 0.8828 0.93801 0.0
H1145 H 0.77612 0.9466 0.83547 0.0
H1146 H 0.77914 0.90109 0.79957 0.0
H1147 H 0.8164 0.83718 0.87243 0.0
C1148 C 0.81483 0.93749 0.95042 0.0
C1149 C 0.80728 0.97086 0.95228 0.0
C1150 C 0.79317 0.98815 0.92722 0.0
C1151 C 0.78764 0.97246 0.90027 0.0
C1152 C 0.79599 0.93944 0.89893 0.0
C1153 C 0.80888 0.92225 0.92373 0.0
C1154 C 0.81609 0.88708 0.91672 0.0
C1155 C 0.84454 0.87149 0.91791 0.0
C1156 C 0.80343 0.87139 0.93902 0.0
C1157 C 0.80571 0.88692 0.88382 0.0
C1158 C 0.79431 0.91729 0.87377 0.0
C1159 C 0.78466 0.92281 0.84343 0.0
C1160 C 0.78655 0.89677 0.8231 0.0
C1161 C 0.79773 0.86545 0.83317 0.0
C1162 C 0.80733 0.86072 0.86406 0.0
H1163 H 0.98305 0.7733 0.14691 0.0
H1164 H 0.9499 0.76024 0.05721 0.0
H1165 H 0.9116 0.76138 0.08295 0.0
H1166 H 0.95954 0.72584 0.18983 0.0
H1167 H 0.95293 0.75086 0.22432 0.0
H1168 H 0.9771 0.75212 0.19902 0.0
H1169 H 0.95596 0.81216 0.1932 0.0
H1170 H 0.93168 0.81132 0.21864 0.0
H1171 H 0.92385 0.82712 0.18034 0.0
H1172 H 0.87938 0.75628 0.11861 0.0
H1173 H 0.85254 0.75333 0.16136 0.0
H1174 H 0.90444 0.77376 0.22831 0.0
C1175 C 0.96751 0.77145 0.13262 0.0
C1176 C 0.96959 0.76669 0.09995 0.0
C1177 C 0.94882 0.76418 0.08217 0.0
C1178 C 0.92696 0.76462 0.09662 0.0
C1179 C 0.92584 0.76827 0.12888 0.0
C1180 C 0.94528 0.77249 0.14665 0.0
C1181 C 0.93925 0.77555 0.18101 0.0
C1182 C 0.95835 0.74954 0.19963 0.0
C1183 C 0.93758 0.8085 0.19407 0.0
C1184 C 0.91388 0.77108 0.17981 0.0
C1185 C 0.90658 0.76681 0.14947 0.0
C1186 C 0.88469 0.76014 0.14242 0.0
C1187 C 0.86968 0.75818 0.16692 0.0
C1188 C 0.87638 0.76323 0.19821 0.0
C1189 C 0.89875 0.76996 0.20463 0.0
H1190 H 0.30226 0.98621 0.13444 0.0
H1191 H 0.35192 0.93482 0.06234 0.0
H1192 H 0.36403 0.88695 0.09437 0.0
H1193 H 0.34196 0.94808 0.20101 0.0
H1194 H 0.31556 0.94872 0.22333 0.0
H1195 H 0.31261 0.97895 0.19563 0.0
H1196 H 0.27569 0.96581 0.16842 0.0
H1197 H 0.27867 0.93537 0.19579 0.0
H1198 H 0.27993 0.92602 0.15468 0.0
H1199 H 0.36653 0.84294 0.13247 0.0
H1200 H 0.36255 0.80879 0.17452 0.0
H1201 H 0.31288 0.89033 0.22265 0.0
C1202 C 0.31605 0.96505 0.12557 0.0
C1203 C 0.3262 0.96429 0.09584 0.0
C1204 C 0.34413 0.93609 0.08514 0.0
C1205 C 0.35097 0.90875 0.10314 0.0
C1206 C 0.34004 0.91015 0.13204 0.0
C1207 C 0.3233 0.93785 0.14337 0.0
C1208 C 0.31372 0.9333 0.17472 0.0
C1209 C 0.32143 0.95346 0.20018 0.0
C1210 C 0.28532 0.94055 0.17329 0.0
C1211 C 0.32719 0.89849 0.17912 0.0
C1212 C 0.34222 0.88543 0.15422 0.0
C1213 C 0.35515 0.85314 0.15225 0.0
C1214 C 0.3527 0.83387 0.17623 0.0
C1215 C 0.33765 0.84686 0.20214 0.0
C1216 C 0.32493 0.8797 0.20353 0.0
H1217 H 0.82996 0.08063 0.1316 0.0
H1218 H 0.78417 0.13395 0.05688 0.0
H1219 H 0.77488 0.18268 0.09017 0.0
H1220 H 0.79111 0.12436 0.19592 0.0
H1221 H 0.81785 0.12109 0.22098 0.0
H1222 H 0.81891 0.09076 0.19195 0.0
H1223 H 0.85829 0.09801 0.16943 0.0
H1224 H 0.85718 0.1286 0.1981 0.0
H1225 H 0.85726 0.13647 0.15735 0.0
H1226 H 0.77493 0.22685 0.13084 0.0
H1227 H 0.78059 0.26036 0.17569 0.0
H1228 H 0.8249 0.17672 0.22391 0.0
C1229 C 0.81754 0.10245 0.12239 0.0
C1230 C 0.80769 0.10344 0.09162 0.0
C1231 C 0.79164 0.13251 0.08048 0.0
C1232 C 0.78644 0.16033 0.0992 0.0
C1233 C 0.79711 0.1586 0.12919 0.0
C1234 C 0.81195 0.13015 0.14083 0.0
C1235 C 0.82167 0.13428 0.17341 0.0
C1236 C 0.81179 0.11658 0.19696 0.0
C1237 C 0.85029 0.12372 0.17462 0.0
C1238 C 0.81051 0.16963 0.17826 0.0
C1239 C 0.79646 0.18341 0.15253 0.0
C1240 C 0.78556 0.21611 0.15121 0.0
C1241 C 0.78896 0.23502 0.17678 0.0
C1242 C 0.80297 0.22126 0.20356 0.0
C1243 C 0.81374 0.18806 0.2041 0.0
H1244 H 0.63095 0.59623 0.84083 0.0
H1245 H 0.59457 0.64251 0.92473 0.0
H1246 H 0.61932 0.67857 0.92529 0.0
H1247 H 0.69114 0.59883 0.86221 0.0
H1248 H 0.69897 0.60626 0.82368 0.0
H1249 H 0.67732 0.58523 0.82861 0.0
H1250 H 0.64438 0.62581 0.79493 0.0
H1251 H 0.66595 0.647 0.7899 0.0
H1252 H 0.63569 0.66715 0.80544 0.0
H1253 H 0.64868 0.70835 0.91807 0.0
H1254 H 0.68187 0.72931 0.90434 0.0
H1255 H 0.70014 0.66368 0.82534 0.0
C1256 C 0.62795 0.61427 0.85902 0.0
C1257 C 0.61081 0.61653 0.88278 0.0
C1258 C 0.60776 0.64009 0.90652 0.0
C1259 C 0.62161 0.66084 0.9069 0.0
C1260 C 0.63849 0.65779 0.88337 0.0
C1261 C 0.64178 0.63512 0.85986 0.0
C1262 C 0.66201 0.63611 0.83821 0.0
C1263 C 0.68364 0.60475 0.83819 0.0
C1264 C 0.65136 0.64452 0.80516 0.0
C1265 C 0.66976 0.66259 0.8535 0.0
C1266 C 0.65577 0.67488 0.87936 0.0
C1267 C 0.65976 0.69896 0.89784 0.0
C1268 C 0.67877 0.71057 0.88995 0.0
C1269 C 0.69374 0.69804 0.86389 0.0
C1270 C 0.68887 0.67398 0.84521 0.0
H1271 H 0.46938 0.56835 0.79304 0.0
H1272 H 0.51658 0.62739 0.79464 0.0
H1273 H 0.4793 0.67478 0.79257 0.0
H1274 H 0.42014 0.61715 0.74118 0.0
H1275 H 0.39551 0.61019 0.76188 0.0
H1276 H 0.4259 0.58077 0.76119 0.0
H1277 H 0.42744 0.58137 0.82138 0.0
H1278 H 0.39722 0.61116 0.82228 0.0
H1279 H 0.42334 0.61803 0.84256 0.0
H1280 H 0.43752 0.71563 0.79142 0.0
H1281 H 0.39324 0.74808 0.7892 0.0
H1282 H 0.3719 0.66381 0.79089 0.0
C1283 C 0.47185 0.59122 0.79217 0.0
C1284 C 0.49598 0.59414 0.79357 0.0
C1285 C 0.49837 0.62455 0.79332 0.0
C1286 C 0.47728 0.65162 0.79227 0.0
C1287 C 0.45383 0.648 0.79178 0.0
C1288 C 0.4509 0.61863 0.79152 0.0
C1289 C 0.42346 0.62161 0.79191 0.0
C1290 C 0.4158 0.60654 0.76228 0.0
C1291 C 0.41752 0.60718 0.82128 0.0
C1292 C 0.41145 0.65726 0.79251 0.0
C1293 C 0.42945 0.67186 0.79231 0.0
C1294 C 0.42328 0.70449 0.79177 0.0
C1295 C 0.39808 0.72272 0.79068 0.0
C1296 C 0.37921 0.7085 0.79052 0.0
C1297 C 0.38597 0.67531 0.79187 0.0
H1298 H 0.51412 0.4392 0.89316 0.0
H1299 H 0.46823 0.53023 0.85926 0.0
H1300 H 0.43421 0.50851 0.84709 0.0
H1301 H 0.49562 0.39241 0.83706 0.0
H1302 H 0.49565 0.36207 0.86338 0.0
H1303 H 0.51588 0.38521 0.87109 0.0
H1304 H 0.497 0.40153 0.92551 0.0
H1305 H 0.47688 0.37813 0.91812 0.0
H1306 H 0.4638 0.41933 0.92874 0.0
H1307 H 0.40591 0.47565 0.83599 0.0
H1308 H 0.38491 0.43536 0.82986 0.0
H1309 H 0.44957 0.36636 0.8714 0.0
C1310 C 0.4968 0.45492 0.88389 0.0
C1311 C 0.49404 0.48652 0.87716 0.0
C1312 C 0.47103 0.50587 0.86434 0.0
C1313 C 0.45152 0.49377 0.85744 0.0
C1314 C 0.45517 0.46231 0.8637 0.0
C1315 C 0.47715 0.44328 0.87696 0.0
C1316 C 0.47665 0.4101 0.88079 0.0
C1317 C 0.49717 0.38604 0.86195 0.0
C1318 C 0.47869 0.4018 0.91534 0.0
C1319 C 0.45107 0.41329 0.86723 0.0
C1320 C 0.43892 0.44356 0.85751 0.0
C1321 C 0.41521 0.45191 0.84368 0.0
C1322 C 0.40352 0.42879 0.84005 0.0
C1323 C 0.41554 0.39768 0.8502 0.0
C1324 C 0.4397 0.38999 0.8638 0.0
H1325 H 0.64301 0.48391 0.76676 0.0
H1326 H 0.61831 0.4605 0.85411 0.0
H1327 H 0.65726 0.416 0.85952 0.0
H1328 H 0.67205 0.4014 0.74064 0.0
H1329 H 0.6972 0.40923 0.7219 0.0
H1330 H 0.66738 0.43961 0.72483 0.0
H1331 H 0.68871 0.47688 0.75194 0.0
H1332 H 0.71852 0.44647 0.74936 0.0
H1333 H 0.70763 0.46437 0.78658 0.0
H1334 H 0.70042 0.37708 0.85819 0.0
H1335 H 0.74224 0.34033 0.84553 0.0
H1336 H 0.73753 0.3842 0.75649 0.0
C1337 C 0.64576 0.46919 0.78683 0.0
C1338 C 0.62759 0.47574 0.81003 0.0
C1339 C 0.63182 0.45584 0.8359 0.0
C1340 C 0.654 0.4306 0.83933 0.0
C1341 C 0.67166 0.42499 0.81636 0.0
C1342 C 0.66759 0.44315 0.79019 0.0
C1343 C 0.68933 0.431 0.7684 0.0
C1344 C 0.68099 0.41963 0.73709 0.0
C1345 C 0.70178 0.45619 0.76381 0.0
C1346 C 0.7063 0.40359 0.78668 0.0
C1347 C 0.69591 0.40094 0.81455 0.0
C1348 C 0.70859 0.37858 0.83622 0.0
C1349 C 0.73235 0.35796 0.82898 0.0
C1350 C 0.74287 0.3594 0.80006 0.0
C1351 C 0.72968 0.3825 0.77866 0.0
H1352 H 0.62351 0.39872 0.25328 0.0
H1353 H 0.63298 0.48783 0.28249 0.0
H1354 H 0.67699 0.46005 0.29599 0.0
H1355 H 0.66751 0.34982 0.31322 0.0
H1356 H 0.67845 0.31688 0.28623 0.0
H1357 H 0.64686 0.34315 0.28304 0.0
H1358 H 0.65398 0.35293 0.22572 0.0
H1359 H 0.68563 0.32713 0.22882 0.0
H1360 H 0.67915 0.36711 0.21678 0.0
H1361 H 0.72103 0.4243 0.29824 0.0
H1362 H 0.76147 0.38184 0.29458 0.0
H1363 H 0.72353 0.31524 0.26629 0.0
C1364 C 0.63464 0.41229 0.26338 0.0
C1365 C 0.62473 0.44548 0.26687 0.0
C1366 C 0.64002 0.46239 0.27983 0.0
C1367 C 0.6651 0.44682 0.28749 0.0
C1368 C 0.67452 0.41427 0.28259 0.0
C1369 C 0.65966 0.39707 0.27146 0.0
C1370 C 0.67474 0.36256 0.26664 0.0
C1371 C 0.66639 0.34188 0.2886 0.0
C1372 C 0.67328 0.35183 0.23246 0.0
C1373 C 0.70055 0.36331 0.27559 0.0
C1374 C 0.69997 0.39337 0.2848 0.0
C1375 C 0.72167 0.40054 0.29171 0.0
C1376 C 0.74455 0.37634 0.28929 0.0
C1377 C 0.74556 0.3453 0.28027 0.0
C1378 C 0.72324 0.33868 0.27368 0.0
H1379 H 0.62082 0.60969 0.16692 0.0
H1380 H 0.65596 0.53148 0.22743 0.0
H1381 H 0.69139 0.55117 0.23677 0.0
H1382 H 0.67771 0.61165 0.13215 0.0
H1383 H 0.66735 0.65404 0.13068 0.0
H1384 H 0.64498 0.63334 0.12819 0.0
H1385 H 0.62187 0.66669 0.17502 0.0
H1386 H 0.64423 0.68738 0.17775 0.0
H1387 H 0.63877 0.66758 0.21108 0.0
H1388 H 0.72244 0.58014 0.2408 0.0
H1389 H 0.7476 0.61556 0.23787 0.0
H1390 H 0.69243 0.67474 0.17449 0.0
C1391 C 0.63611 0.59642 0.18175 0.0
C1392 C 0.6355 0.56907 0.19653 0.0
C1393 C 0.65579 0.55272 0.2162 0.0
C1394 C 0.67608 0.56363 0.22152 0.0
C1395 C 0.6759 0.59088 0.20695 0.0
C1396 C 0.65653 0.60699 0.18734 0.0
C1397 C 0.66076 0.63597 0.17497 0.0
C1398 C 0.66283 0.63359 0.13939 0.0
C1399 C 0.64018 0.66619 0.18534 0.0
C1400 C 0.68549 0.63366 0.19077 0.0
C1401 C 0.69389 0.6075 0.20915 0.0
C1402 C 0.71609 0.60066 0.22644 0.0
C1403 C 0.73016 0.62104 0.22479 0.0
C1404 C 0.722 0.64792 0.20597 0.0
C1405 C 0.69933 0.65418 0.18879 0.0
H1406 H 0.47578 0.59351 0.20659 0.0
H1407 H 0.52498 0.60609 0.28151 0.0
H1408 H 0.49236 0.65519 0.29866 0.0
H1409 H 0.44836 0.67383 0.18772 0.0
H1410 H 0.41776 0.67102 0.1802 0.0
H1411 H 0.44484 0.63694 0.17436 0.0
H1412 H 0.42783 0.60523 0.21174 0.0
H1413 H 0.40055 0.63911 0.21742 0.0
H1414 H 0.41932 0.62072 0.25046 0.0
H1415 H 0.4544 0.7049 0.30545 0.0
H1416 H 0.41336 0.74703 0.3048 0.0
H1417 H 0.38948 0.69942 0.22646 0.0
C1418 C 0.4797 0.6065 0.2267 0.0
C1419 C 0.50292 0.59615 0.24266 0.0
C1420 C 0.50724 0.61361 0.26905 0.0
C1421 C 0.48889 0.64157 0.27881 0.0
C1422 C 0.4663 0.65141 0.26215 0.0
C1423 C 0.46158 0.63404 0.23694 0.0
C1424 C 0.43574 0.64904 0.22327 0.0
C1425 C 0.43675 0.65825 0.18939 0.0
C1426 C 0.41993 0.62723 0.2259 0.0
C1427 C 0.42662 0.67781 0.24447 0.0
C1428 C 0.44449 0.67905 0.26662 0.0
C1429 C 0.44024 0.704 0.28832 0.0
C1430 C 0.41695 0.72791 0.28766 0.0
C1431 C 0.39821 0.72642 0.26567 0.0
C1432 C 0.40334 0.70114 0.24372 0.0
H1433 H 0.50333 0.4522 0.23136 0.0
H1434 H 0.50012 0.46338 0.13145 0.0
H1435 H 0.46416 0.44409 0.1272 0.0
H1436 H 0.48755 0.38087 0.2299 0.0
H1437 H 0.46903 0.39132 0.26422 0.0
H1438 H 0.49441 0.40639 0.25962 0.0
H1439 H 0.46432 0.46347 0.26688 0.0
H1440 H 0.43886 0.44856 0.27154 0.0
H1441 H 0.43687 0.47695 0.24217 0.0
H1442 H 0.42873 0.42379 0.13354 0.0
H1443 H 0.39642 0.4025 0.14986 0.0
H1444 H 0.422 0.4046 0.2459 0.0
C1445 C 0.49493 0.45081 0.20864 0.0
C1446 C 0.50461 0.45925 0.1817 0.0
C1447 C 0.49329 0.45667 0.15233 0.0
C1448 C 0.47274 0.44592 0.14971 0.0
C1449 C 0.46374 0.43774 0.17666 0.0
C1450 C 0.47446 0.43995 0.20557 0.0
C1451 C 0.46132 0.42913 0.23076 0.0
C1452 C 0.47914 0.40021 0.24708 0.0
C1453 C 0.44965 0.45614 0.25422 0.0
C1454 C 0.44152 0.42054 0.21145 0.0
C1455 C 0.44325 0.42582 0.18032 0.0
C1456 C 0.42711 0.41969 0.15786 0.0
C1457 C 0.40869 0.40779 0.16742 0.0
C1458 C 0.40649 0.40211 0.1992 0.0
C1459 C 0.42325 0.40855 0.22144 0.0
H1460 H 0.81378 0.64099 0.57091 0.0
H1461 H 0.82688 0.55518 0.6215 0.0
H1462 H 0.83016 0.58416 0.67082 0.0
H1463 H 0.85705 0.67122 0.61987 0.0
H1464 H 0.83726 0.71156 0.6164 0.0
H1465 H 0.83799 0.68333 0.58527 0.0
H1466 H 0.7901 0.69674 0.58802 0.0
H1467 H 0.7896 0.72497 0.61892 0.0
H1468 H 0.77656 0.694 0.62463 0.0
H1469 H 0.82554 0.6251 0.71539 0.0
H1470 H 0.82003 0.67189 0.75031 0.0
H1471 H 0.81371 0.72999 0.67024 0.0
C1472 C 0.81804 0.62809 0.59229 0.0
C1473 C 0.8203 0.5957 0.59232 0.0
C1474 C 0.82555 0.57978 0.62081 0.0
C1475 C 0.8272 0.59618 0.64897 0.0
C1476 C 0.8241 0.62838 0.64821 0.0
C1477 C 0.8203 0.64394 0.62043 0.0
C1478 C 0.81738 0.6786 0.62581 0.0
C1479 C 0.83869 0.68665 0.61096 0.0
C1480 C 0.79188 0.6998 0.61362 0.0
C1481 C 0.81925 0.6805 0.66104 0.0
C1482 C 0.82294 0.65134 0.67359 0.0
C1483 C 0.82324 0.64782 0.70572 0.0
C1484 C 0.81996 0.67457 0.7254 0.0
C1485 C 0.81686 0.70449 0.71307 0.0
C1486 C 0.81664 0.7073 0.6804 0.0
H1487 H 0.55089 0.75215 0.60745 0.0
H1488 H 0.52374 0.76803 0.51231 0.0
H1489 H 0.48078 0.7764 0.52928 0.0
H1490 H 0.50742 0.71173 0.63151 0.0
H1491 H 0.50385 0.73023 0.6697 0.0
H1492 H 0.53258 0.72271 0.64963 0.0
H1493 H 0.52854 0.78176 0.65586 0.0
H1494 H 0.49976 0.7895 0.67576 0.0
H1495 H 0.50072 0.81118 0.64167 0.0
H1496 H 0.44057 0.78644 0.55712 0.0
H1497 H 0.40598 0.79689 0.59338 0.0
H1498 H 0.45895 0.77537 0.67112 0.0
C1499 C 0.53594 0.75657 0.59017 0.0
C1500 C 0.54053 0.75929 0.55846 0.0
C1501 C 0.52046 0.76597 0.53663 0.0
C1502 C 0.49609 0.77064 0.54608 0.0
C1503 C 0.49204 0.76856 0.57759 0.0
C1504 C 0.51142 0.76153 0.59933 0.0
C1505 C 0.50179 0.76245 0.63196 0.0
C1506 C 0.51202 0.72983 0.64656 0.0
C1507 C 0.50808 0.78773 0.65252 0.0
C1508 C 0.47398 0.77143 0.62523 0.0
C1509 C 0.4688 0.77467 0.5937 0.0
C1510 C 0.44444 0.78382 0.58185 0.0
C1511 C 0.42487 0.78994 0.60271 0.0
C1512 C 0.42959 0.78707 0.63523 0.0
C1513 C 0.45462 0.77739 0.64644 0.0
H1514 H 0.33196 0.39852 0.58689 0.0
H1515 H 0.30668 0.4885 0.63683 0.0
H1516 H 0.29976 0.46185 0.68317 0.0
H1517 H 0.28757 0.36643 0.61948 0.0
H1518 H 0.30907 0.32684 0.62152 0.0
H1519 H 0.31242 0.35274 0.59222 0.0
H1520 H 0.35782 0.34412 0.61128 0.0
H1521 H 0.3545 0.3181 0.64045 0.0
H1522 H 0.36401 0.35163 0.65166 0.0
H1523 H 0.29729 0.42524 0.72503 0.0
H1524 H 0.29749 0.38173 0.75862 0.0
H1525 H 0.32219 0.31507 0.68149 0.0
C1526 C 0.32509 0.41258 0.60763 0.0
C1527 C 0.3199 0.44577 0.60812 0.0
C1528 C 0.3106 0.46323 0.63568 0.0
C1529 C 0.30671 0.44822 0.66221 0.0
C1530 C 0.31192 0.41561 0.66093 0.0
C1531 C 0.32075 0.39796 0.6343 0.0
C1532 C 0.32439 0.36326 0.63907 0.0
C1533 C 0.30734 0.35164 0.61674 0.0
C1534 C 0.35182 0.34311 0.63539 0.0
C1535 C 0.31648 0.36414 0.6726 0.0
C1536 C 0.30951 0.3946 0.68477 0.0
C1537 C 0.30247 0.40136 0.71561 0.0
C1538 C 0.30265 0.37643 0.73457 0.0
C1539 C 0.30951 0.34497 0.72271 0.0
C1540 C 0.31634 0.3389 0.69113 0.0
H1541 H 0.57807 0.22462 0.61895 0.0
H1542 H 0.55333 0.30921 0.56456 0.0
H1543 H 0.58923 0.32425 0.58561 0.0
H1544 H 0.60252 0.25745 0.68688 0.0
H1545 H 0.62826 0.22162 0.69202 0.0
H1546 H 0.59921 0.21999 0.67528 0.0
H1547 H 0.62242 0.18958 0.62711 0.0
H1548 H 0.65148 0.19142 0.64346 0.0
H1549 H 0.64119 0.20659 0.60537 0.0
H1550 H 0.6305 0.32736 0.61041 0.0
H1551 H 0.67191 0.31839 0.63592 0.0
H1552 H 0.66876 0.23108 0.67258 0.0
C1553 C 0.57978 0.2467 0.61182 0.0
C1554 C 0.56268 0.26586 0.5902 0.0
C1555 C 0.56597 0.29431 0.58134 0.0
C1556 C 0.58639 0.30295 0.59311 0.0
C1557 C 0.60329 0.28291 0.61374 0.0
C1558 C 0.6 0.25545 0.62308 0.0
C1559 C 0.62136 0.23677 0.64382 0.0
C1560 C 0.61229 0.2338 0.67643 0.0
C1561 C 0.6349 0.20417 0.62905 0.0
C1562 C 0.6375 0.25771 0.64452 0.0
C1563 C 0.6268 0.28437 0.62729 0.0
C1564 C 0.63885 0.30665 0.62412 0.0
C1565 C 0.66236 0.30141 0.63878 0.0
C1566 C 0.67374 0.27395 0.65618 0.0
C1567 C 0.66084 0.25211 0.65916 0.0
H1568 H 0.78381 0.44063 0.46451 0.0
H1569 H 0.85556 0.45487 0.46211 0.0
H1570 H 0.86903 0.41163 0.42225 0.0
H1571 H 0.80664 0.35475 0.45438 0.0
H1572 H 0.77997 0.35417 0.43077 0.0
H1573 H 0.77695 0.38476 0.46012 0.0
H1574 H 0.7593 0.42708 0.41848 0.0
H1575 H 0.76242 0.39667 0.38898 0.0
H1576 H 0.77708 0.42624 0.38441 0.0
H1577 H 0.87281 0.36927 0.37845 0.0
H1578 H 0.86776 0.33034 0.3387 0.0
H1579 H 0.79392 0.3431 0.37194 0.0
C1580 C 0.80253 0.43447 0.45598 0.0
C1581 C 0.81865 0.45127 0.46659 0.0
C1582 C 0.84294 0.44228 0.45465 0.0
C1583 C 0.85068 0.41781 0.43185 0.0
C1584 C 0.83404 0.40223 0.42147 0.0
C1585 C 0.81056 0.41005 0.43357 0.0
C1586 C 0.79588 0.39035 0.41836 0.0
C1587 C 0.78949 0.36979 0.44234 0.0
C1588 C 0.77228 0.41134 0.40157 0.0
C1589 C 0.81455 0.3704 0.39537 0.0
C1590 C 0.83644 0.3776 0.39734 0.0
C1591 C 0.85585 0.36325 0.37714 0.0
C1592 C 0.85279 0.34115 0.35453 0.0
C1593 C 0.83057 0.33321 0.35231 0.0
C1594 C 0.81134 0.34806 0.37329 0.0
H1595 H 0.71155 0.78889 0.46141 0.0
H1596 H 0.64543 0.78921 0.40811 0.0
H1597 H 0.66886 0.78318 0.35938 0.0
H1598 H 0.73127 0.83529 0.41229 0.0
H1599 H 0.76407 0.81443 0.41717 0.0
H1600 H 0.74314 0.81471 0.44764 0.0
H1601 H 0.75844 0.75378 0.44667 0.0
H1602 H 0.77956 0.75298 0.41615 0.0
H1603 H 0.75718 0.73246 0.41072 0.0
H1604 H 0.69885 0.78273 0.3163 0.0
H1605 H 0.73296 0.78379 0.28297 0.0
H1606 H 0.77935 0.78451 0.3651 0.0
C1607 C 0.70209 0.78715 0.4395 0.0
C1608 C 0.6766 0.78953 0.43857 0.0
C1609 C 0.66496 0.78702 0.40944 0.0
C1610 C 0.67812 0.78385 0.38166 0.0
C1611 C 0.70297 0.78289 0.38346 0.0
C1612 C 0.71492 0.78397 0.41175 0.0
C1613 C 0.74134 0.78385 0.40756 0.0
C1614 C 0.74516 0.81385 0.42202 0.0
C1615 C 0.76025 0.75399 0.42107 0.0
C1616 C 0.7423 0.78345 0.37242 0.0
C1617 C 0.72006 0.78269 0.35891 0.0
C1618 C 0.71636 0.78306 0.32673 0.0
C1619 C 0.73589 0.78386 0.30795 0.0
C1620 C 0.75896 0.78444 0.32126 0.0
C1621 C 0.76201 0.78426 0.35404 0.0
H1622 H 0.35321 0.6276 0.45284 0.0
H1623 H 0.29154 0.59703 0.41971 0.0
H1624 H 0.28175 0.63653 0.37899 0.0
H1625 H 0.32347 0.71053 0.43958 0.0
H1626 H 0.35117 0.71698 0.42658 0.0
H1627 H 0.35365 0.68626 0.45353 0.0
H1628 H 0.38264 0.64518 0.41612 0.0
H1629 H 0.38035 0.67581 0.38913 0.0
H1630 H 0.37237 0.64151 0.37649 0.0
H1631 H 0.27827 0.67921 0.3416 0.0
H1632 H 0.28199 0.72142 0.30916 0.0
H1633 H 0.34609 0.72519 0.36509 0.0
C1634 C 0.33776 0.62904 0.43692 0.0
C1635 C 0.32302 0.60914 0.43995 0.0
C1636 C 0.30287 0.61218 0.41854 0.0
C1637 C 0.29721 0.63453 0.39509 0.0
C1638 C 0.31184 0.65391 0.39301 0.0
C1639 C 0.33178 0.65139 0.41321 0.0
C1640 C 0.34449 0.67522 0.40556 0.0
C1641 C 0.34311 0.69863 0.43295 0.0
C1642 C 0.37157 0.65842 0.39627 0.0
C1643 C 0.32859 0.69141 0.37793 0.0
C1644 C 0.30986 0.67867 0.3712 0.0
C1645 C 0.29287 0.68937 0.34667 0.0
C1646 C 0.29514 0.71348 0.32834 0.0
C1647 C 0.31428 0.72692 0.33444 0.0
C1648 C 0.33114 0.71569 0.35982 0.0
H1649 H 0.42424 0.24389 0.48027 0.0
H1650 H 0.46934 0.29682 0.44652 0.0
H1651 H 0.43981 0.31398 0.4019 0.0
H1652 H 0.40865 0.21589 0.40828 0.0
H1653 H 0.37714 0.21974 0.41771 0.0
H1654 H 0.40067 0.21359 0.44808 0.0
H1655 H 0.37411 0.26419 0.47726 0.0
H1656 H 0.35033 0.27033 0.44713 0.0
H1657 H 0.36351 0.30098 0.45727 0.0
H1658 H 0.40786 0.32014 0.35789 0.0
H1659 H 0.37362 0.32 0.32104 0.0
H1660 H 0.34779 0.26566 0.38509 0.0
C1661 C 0.42771 0.25954 0.46378 0.0
C1662 C 0.44914 0.26903 0.46688 0.0
C1663 C 0.45298 0.28948 0.44478 0.0
C1664 C 0.43636 0.29919 0.41928 0.0
C1665 C 0.41576 0.2887 0.41652 0.0
C1666 C 0.41113 0.26982 0.43853 0.0
C1667 C 0.38787 0.26142 0.43001 0.0
C1668 C 0.39396 0.22553 0.42577 0.0
C1669 C 0.36776 0.27505 0.45437 0.0
C1670 C 0.38042 0.27785 0.39931 0.0
C1671 C 0.39684 0.29331 0.39187 0.0
C1672 C 0.39471 0.30853 0.36376 0.0
C1673 C 0.37527 0.30813 0.34287 0.0
C1674 C 0.35794 0.29294 0.35022 0.0
C1675 C 0.36054 0.2778 0.37898 0.0
H1676 H 0.68421 0.80104 0.58392 0.0
H1677 H 0.61647 0.82936 0.63632 0.0
H1678 H 0.64085 0.83454 0.68426 0.0
H1679 H 0.7233 0.75427 0.63938 0.0
H1680 H 0.74997 0.7657 0.63117 0.0
H1681 H 0.72694 0.76695 0.60109 0.0
H1682 H 0.7207 0.82592 0.59263 0.0
H1683 H 0.74411 0.8247 0.62231 0.0
H1684 H 0.71352 0.85345 0.62524 0.0
H1685 H 0.67473 0.83001 0.72761 0.0
H1686 H 0.71312 0.8215 0.76025 0.0
H1687 H 0.75718 0.79875 0.67714 0.0
C1688 C 0.67441 0.80884 0.60541 0.0
C1689 C 0.64853 0.81477 0.6066 0.0
C1690 C 0.6363 0.825 0.635 0.0
C1691 C 0.65003 0.82782 0.66228 0.0
C1692 C 0.6758 0.8209 0.66041 0.0
C1693 C 0.68768 0.81222 0.63242 0.0
C1694 C 0.71544 0.80533 0.63615 0.0
C1695 C 0.72972 0.77102 0.62636 0.0
C1696 C 0.72393 0.82875 0.61801 0.0
C1697 C 0.71765 0.81065 0.6708 0.0
C1698 C 0.69471 0.81953 0.68461 0.0
C1699 C 0.69268 0.82364 0.71685 0.0
C1700 C 0.71458 0.81864 0.73523 0.0
C1701 C 0.73817 0.80988 0.72127 0.0
C1702 C 0.73947 0.80607 0.68861 0.0
H1703 H 0.59582 0.20544 0.4219 0.0
H1704 H 0.61156 0.20827 0.52108 0.0
H1705 H 0.65258 0.21305 0.5108 0.0
H1706 H 0.65929 0.16015 0.39923 0.0
H1707 H 0.6572 0.18184 0.36425 0.0
H1708 H 0.62963 0.1769 0.3795 0.0
H1709 H 0.60843 0.23751 0.38073 0.0
H1710 H 0.63602 0.24265 0.36585 0.0
H1711 H 0.62336 0.26215 0.4018 0.0
H1712 H 0.69108 0.21959 0.48995 0.0
H1713 H 0.7252 0.22592 0.45974 0.0
H1714 H 0.68465 0.21868 0.37401 0.0
C1715 C 0.60812 0.20642 0.44139 0.0
C1716 C 0.60052 0.20647 0.4723 0.0
C1717 C 0.61695 0.20845 0.49723 0.0
C1718 C 0.64029 0.21108 0.49163 0.0
C1719 C 0.64699 0.21168 0.46093 0.0
C1720 C 0.63149 0.20922 0.4362 0.0
C1721 C 0.64294 0.21142 0.40546 0.0
C1722 C 0.64754 0.18075 0.38597 0.0
C1723 C 0.62672 0.24014 0.38741 0.0
C1724 C 0.66719 0.2157 0.41683 0.0
C1725 C 0.66917 0.21569 0.44889 0.0
C1726 C 0.68983 0.21944 0.46481 0.0
C1727 C 0.70912 0.22294 0.44746 0.0
C1728 C 0.70761 0.22277 0.41454 0.0
C1729 C 0.68624 0.21928 0.39915 0.0
H1730 H 0.77992 0.61172 0.3968 0.0
H1731 H 0.83531 0.61402 0.46815 0.0
H1732 H 0.8541 0.64103 0.43256 0.0
H1733 H 0.81914 0.59974 0.3306 0.0
H1734 H 0.79529 0.62559 0.30624 0.0
H1735 H 0.78684 0.60486 0.33675 0.0
H1736 H 0.75832 0.65789 0.36042 0.0
H1737 H 0.76637 0.67841 0.32949 0.0
H1738 H 0.7711 0.68915 0.36938 0.0
H1739 H 0.866 0.66975 0.38976 0.0
H1740 H 0.86779 0.70141 0.34466 0.0
H1741 H 0.80449 0.68025 0.30195 0.0
C1742 C 0.79592 0.61794 0.40513 0.0
C1743 C 0.80624 0.61025 0.4353 0.0
C1744 C 0.82731 0.6189 0.44498 0.0
C1745 C 0.83812 0.63437 0.42494 0.0
C1746 C 0.82764 0.64119 0.39528 0.0
C1747 C 0.80686 0.63352 0.38551 0.0
C1748 C 0.79843 0.64488 0.35307 0.0
C1749 C 0.80004 0.6171 0.33033 0.0
C1750 C 0.772 0.66901 0.35312 0.0
C1751 C 0.81764 0.66027 0.34622 0.0
C1752 C 0.83443 0.65777 0.37073 0.0
C1753 C 0.85307 0.67167 0.37029 0.0
C1754 C 0.85403 0.68947 0.3445 0.0
C1755 C 0.83637 0.69324 0.31967 0.0
C1756 C 0.81845 0.67763 0.32034 0.0
H1757 H 0.52783 0.85308 0.5004 0.0
H1758 H 0.5652 0.87559 0.42275 0.0
H1759 H 0.52794 0.88154 0.38946 0.0
H1760 H 0.50022 0.80621 0.4604 0.0
H1761 H 0.47081 0.81906 0.47968 0.0
H1762 H 0.49822 0.82229 0.49962 0.0
H1763 H 0.47725 0.8816 0.50987 0.0
H1764 H 0.44921 0.87902 0.49079 0.0
H1765 H 0.46342 0.90676 0.47788 0.0
H1766 H 0.48949 0.8775 0.36264 0.0
H1767 H 0.45074 0.86797 0.34502 0.0
H1768 H 0.43767 0.84823 0.43963 0.0
C1769 C 0.52791 0.86026 0.47668 0.0
C1770 C 0.54956 0.86386 0.46426 0.0
C1771 C 0.54892 0.87276 0.43291 0.0
C1772 C 0.52781 0.87619 0.41375 0.0
C1773 C 0.50725 0.87106 0.42629 0.0
C1774 C 0.50688 0.8639 0.45718 0.0
C1775 C 0.48297 0.85757 0.46421 0.0
C1776 C 0.48839 0.82427 0.47666 0.0
C1777 C 0.46728 0.88275 0.48704 0.0
C1778 C 0.47062 0.86066 0.43213 0.0
C1779 C 0.48482 0.86887 0.41071 0.0
C1780 C 0.47803 0.8715 0.37927 0.0
C1781 C 0.45611 0.86572 0.36943 0.0
C1782 C 0.44117 0.85727 0.39089 0.0
C1783 C 0.44851 0.85501 0.42272 0.0
H1784 H 0.30559 0.49491 0.41006 0.0
H1785 H 0.24888 0.49237 0.47357 0.0
H1786 H 0.23358 0.46042 0.43471 0.0
H1787 H 0.26883 0.49289 0.33486 0.0
H1788 H 0.29662 0.46801 0.31642 0.0
H1789 H 0.29856 0.49704 0.34559 0.0
H1790 H 0.33095 0.45327 0.37683 0.0
H1791 H 0.32894 0.42421 0.34811 0.0
H1792 H 0.32304 0.41951 0.3882 0.0
H1793 H 0.23089 0.41968 0.39413 0.0
H1794 H 0.24028 0.37541 0.35572 0.0
H1795 H 0.29883 0.40546 0.31913 0.0
C1796 C 0.28937 0.48857 0.41535 0.0
C1797 C 0.27836 0.49597 0.44464 0.0
C1798 C 0.25735 0.48714 0.45101 0.0
C1799 C 0.24858 0.46902 0.42908 0.0
C1800 C 0.26076 0.46067 0.40087 0.0
C1801 C 0.28047 0.47069 0.3938 0.0
C1802 C 0.29268 0.45531 0.36409 0.0
C1803 C 0.28893 0.47978 0.33873 0.0
C1804 C 0.32052 0.43699 0.36968 0.0
C1805 C 0.2779 0.43341 0.35652 0.0
C1806 C 0.25918 0.43726 0.37749 0.0
C1807 C 0.24503 0.41704 0.3771 0.0
C1808 C 0.25056 0.39189 0.35525 0.0
C1809 C 0.2703 0.38701 0.33441 0.0
C1810 C 0.28348 0.40871 0.33452 0.0
H1811 H 0.46206 0.24628 0.62929 0.0
H1812 H 0.46463 0.15226 0.59791 0.0
H1813 H 0.43461 0.15209 0.63771 0.0
H1814 H 0.45615 0.23592 0.71147 0.0
H1815 H 0.43488 0.27526 0.71765 0.0
H1816 H 0.45756 0.26746 0.68762 0.0
H1817 H 0.42237 0.29095 0.64694 0.0
H1818 H 0.39946 0.29862 0.67663 0.0
H1819 H 0.39705 0.27514 0.64254 0.0
H1820 H 0.4028 0.16299 0.67914 0.0
H1821 H 0.37146 0.18423 0.71945 0.0
H1822 H 0.38938 0.27126 0.72394 0.0
C1823 C 0.45632 0.22565 0.63069 0.0
C1824 C 0.46588 0.19921 0.6104 0.0
C1825 C 0.45796 0.17261 0.61338 0.0
C1826 C 0.44079 0.17233 0.63586 0.0
C1827 C 0.43171 0.1988 0.65533 0.0
C1828 C 0.43921 0.22496 0.65303 0.0
C1829 C 0.42608 0.25067 0.67628 0.0
C1830 C 0.44479 0.25773 0.69964 0.0
C1831 C 0.4103 0.28062 0.6596 0.0
C1832 C 0.40985 0.23497 0.69179 0.0
C1833 C 0.41344 0.20503 0.67939 0.0
C1834 C 0.39995 0.18631 0.68919 0.0
C1835 C 0.38217 0.19861 0.71209 0.0
C1836 C 0.37806 0.22932 0.72503 0.0
C1837 C 0.39231 0.24754 0.71485 0.0
H1838 H 0.79365 0.48603 0.63298 0.0
H1839 H 0.73322 0.46724 0.58088 0.0
H1840 H 0.7363 0.42302 0.61533 0.0
H1841 H 0.83023 0.40851 0.64462 0.0
H1842 H 0.84042 0.41451 0.68377 0.0
H1843 H 0.83188 0.44655 0.65721 0.0
H1844 H 0.79955 0.48104 0.69583 0.0
H1845 H 0.80826 0.44926 0.72279 0.0
H1846 H 0.77621 0.46627 0.7103 0.0
H1847 H 0.74991 0.377 0.65043 0.0
H1848 H 0.76924 0.33589 0.68859 0.0
H1849 H 0.81922 0.38647 0.7205 0.0
C1850 C 0.78079 0.47291 0.62931 0.0
C1851 C 0.76319 0.47983 0.60442 0.0
C1852 C 0.7466 0.46238 0.60011 0.0
C1853 C 0.74834 0.4372 0.61941 0.0
C1854 C 0.76644 0.43036 0.6432 0.0
C1855 C 0.782 0.44814 0.64869 0.0
C1856 C 0.80024 0.4354 0.67534 0.0
C1857 C 0.82729 0.42567 0.66457 0.0
C1858 C 0.79579 0.45942 0.70269 0.0
C1859 C 0.79309 0.40698 0.68331 0.0
C1860 C 0.77361 0.40447 0.66437 0.0
C1861 C 0.76486 0.37899 0.66573 0.0
C1862 C 0.77613 0.35564 0.68722 0.0
C1863 C 0.79572 0.35811 0.70731 0.0
C1864 C 0.80416 0.38423 0.7055 0.0
H1865 H 0.31466 0.57964 0.63202 0.0
H1866 H 0.26829 0.6328 0.55761 0.0
H1867 H 0.26365 0.68253 0.58776 0.0
H1868 H 0.28121 0.63037 0.69673 0.0
H1869 H 0.30972 0.62474 0.71896 0.0
H1870 H 0.3067 0.59405 0.69257 0.0
H1871 H 0.3466 0.59404 0.66512 0.0
H1872 H 0.34938 0.62524 0.69087 0.0
H1873 H 0.34794 0.63011 0.6494 0.0
H1874 H 0.26884 0.72672 0.62424 0.0
H1875 H 0.27834 0.76041 0.66671 0.0
H1876 H 0.32064 0.67646 0.71602 0.0
C1877 C 0.303 0.6017 0.62243 0.0
C1878 C 0.29175 0.6026 0.59271 0.0
C1879 C 0.27675 0.63178 0.58066 0.0
C1880 C 0.27422 0.66006 0.59747 0.0
C1881 C 0.2865 0.65843 0.62632 0.0
C1882 C 0.30011 0.62985 0.63893 0.0
C1883 C 0.31215 0.63408 0.66978 0.0
C1884 C 0.30182 0.61999 0.69606 0.0
C1885 C 0.3407 0.62004 0.66869 0.0
C1886 C 0.30375 0.66954 0.67235 0.0
C1887 C 0.28904 0.68339 0.64715 0.0
C1888 C 0.28004 0.71609 0.64427 0.0
C1889 C 0.28571 0.735 0.66826 0.0
C1890 C 0.30005 0.72096 0.69462 0.0
C1891 C 0.30937 0.68788 0.6963 0.0
loop_
_geom_bond_atom_site_label_1
_geom_bond_atom_site_label_2
_geom_bond_distance
_geom_bond_site_symmetry_2
_ccdc_geom_bond_type
Cu0 N1 1.999 . S
Cu0 O6 1.974 . S
Cu0 N11 1.985 . S
Cu0 O20 1.959 . S
N1 Cu0 1.999 . S
N1 C3 1.263 . S
N1 C5 1.389 . S
N2 C3 1.358 . S
N2 C4 1.400 . S
C3 N1 1.263 . S
C3 N2 1.358 . S
C3 H9 0.930 . S
C4 N2 1.400 . S
C4 C5 1.351 . S
C4 H21 0.930 . S
C5 N1 1.389 . S
C5 C4 1.351 . S
C5 H10 0.930 . S
O6 Cu0 1.974 . S
O6 C16 1.282 1_545 S
C7 O8 1.261 . S
C7 O20 1.251 . S
O8 C7 1.261 . S
H9 C3 0.930 . S
H10 C5 0.930 . S
N11 Cu0 1.985 . S
N11 C13 1.335 . S
N11 C14 1.390 1_545 S
N12 C13 1.345 1_565 S
N12 C15 1.336 . S
C13 N11 1.335 . S
C13 N12 1.345 1_545 S
C13 H18 0.924 1_455 S
C14 N11 1.390 1_565 S
C14 C15 1.346 . S
C14 H19 0.930 . S
C15 N12 1.336 . S
C15 C14 1.346 . S
C15 H22 0.929 . S
C16 O6 1.282 1_565 S
C16 O17 1.216 . S
O17 C16 1.216 . S
H18 C13 0.924 1_655 S
H19 C14 0.930 . S
O20 Cu0 1.959 . S
O20 C7 1.251 . S
H21 C4 0.930 . S
H22 C15 0.929 . S
Cu23 N24 1.999 1_545 S
Cu23 O29 1.974 . S
Cu23 N34 1.985 . S
Cu23 O43 1.959 1_545 S
N24 Cu23 1.999 1_565 S
N24 C26 1.263 . S
N24 C28 1.389 . S
N25 C26 1.358 . S
N25 C27 1.400 . S
C26 N24 1.263 . S
C26 N25 1.358 . S
C26 H32 0.930 . S
C27 N25 1.400 . S
C27 C28 1.351 . S
C27 H44 0.930 . S
C28 N24 1.389 . S
C28 C27 1.351 . S
C28 H33 0.930 . S
O29 Cu23 1.974 . S
O29 C39 1.282 . S
C30 O31 1.261 . S
C30 O43 1.251 . S
O31 C30 1.261 . S
H32 C26 0.930 . S
H33 C28 0.930 . S
N34 Cu23 1.985 . S
N34 C36 1.335 . S
N34 C37 1.390 . S
N35 C36 1.345 . S
N35 C38 1.336 . S
C36 N34 1.335 . S
C36 N35 1.345 . S
C36 H41 0.930 . S
C37 N34 1.390 . S
C37 C38 1.346 . S
C37 H42 0.930 . S
C38 N35 1.336 . S
C38 C37 1.346 . S
C38 H45 0.929 . S
C39 O29 1.282 . S
C39 O40 1.216 . S
O40 C39 1.216 . S
H41 C36 0.930 . S
H42 C37 0.930 . S
O43 Cu23 1.959 1_565 S
O43 C30 1.251 . S
H44 C27 0.930 . S
H45 C38 0.929 . S
Cu46 N47 1.999 1_544 S
Cu46 O52 1.974 1_545 S
Cu46 N57 1.985 . S
Cu46 O66 1.959 1_554 S
N47 Cu46 1.999 1_566 S
N47 C49 1.263 . S
N47 C51 1.389 . S
N48 C49 1.358 . S
N48 C50 1.400 . S
C49 N47 1.263 . S
C49 N48 1.358 . S
C49 H55 0.930 . S
C50 N48 1.400 . S
C50 C51 1.351 . S
C50 H67 0.930 . S
C51 N47 1.389 . S
C51 C50 1.351 . S
C51 H56 0.914 1_565 S
O52 Cu46 1.974 1_565 S
O52 C62 1.282 . S
C53 O54 1.261 . S
C53 O66 1.251 . S
O54 C53 1.261 . S
H55 C49 0.930 . S
H56 C51 0.914 1_545 S
N57 Cu46 1.985 . S
N57 C59 1.335 . S
N57 C60 1.390 . S
N58 C59 1.345 . S
N58 C61 1.336 . S
C59 N57 1.335 . S
C59 N58 1.345 . S
C59 H64 0.930 . S
C60 N57 1.390 . S
C60 C61 1.346 . S
C60 H65 0.930 . S
C61 N58 1.336 . S
C61 C60 1.346 . S
C61 H68 0.929 . S
C62 O52 1.282 . S
C62 O63 1.216 . S
O63 C62 1.216 . S
H64 C59 0.930 . S
H65 C60 0.930 . S
O66 Cu46 1.959 1_556 S
O66 C53 1.251 . S
H67 C50 0.930 . S
H68 C61 0.929 . S
Cu69 N70 1.999 1_554 S
Cu69 O75 1.974 . S
Cu69 N80 1.985 . S
Cu69 O89 1.959 1_554 S
N70 Cu69 1.999 1_556 S
N70 C72 1.263 . S
N70 C74 1.389 . S
N71 C72 1.358 . S
N71 C73 1.400 . S
C72 N70 1.263 . S
C72 N71 1.358 . S
C72 H78 0.930 1_556 S
C73 N71 1.400 . S
C73 C74 1.351 . S
C73 H90 0.930 . S
C74 N70 1.389 . S
C74 C73 1.351 . S
C74 H79 0.930 . S
O75 Cu69 1.974 . S
O75 C85 1.282 . S
C76 O77 1.261 . S
C76 O89 1.251 . S
O77 C76 1.261 . S
H78 C72 0.930 1_554 S
H79 C74 0.930 . S
N80 Cu69 1.985 . S
N80 C82 1.335 . S
N80 C83 1.390 . S
N81 C82 1.345 . S
N81 C84 1.336 . S
C82 N80 1.335 . S
C82 N81 1.345 . S
C82 H87 0.930 . S
C83 N80 1.390 . S
C83 C84 1.346 . S
C83 H88 0.930 . S
C84 N81 1.336 . S
C84 C83 1.346 . S
C84 H91 0.929 . S
C85 O75 1.282 . S
C85 O86 1.216 . S
O86 C85 1.216 . S
H87 C82 0.930 . S
H88 C83 0.930 . S
O89 Cu69 1.959 1_556 S
O89 C76 1.251 . S
H90 C73 0.930 . S
H91 C84 0.929 . S
Cu92 N93 1.999 1_554 S
Cu92 O98 1.974 . S
Cu92 N103 1.985 1_545 S
Cu92 O112 1.959 1_544 S
N93 Cu92 1.999 1_556 S
N93 C95 1.263 . S
N93 C97 1.389 . S
N94 C95 1.358 . S
N94 C96 1.400 . S
C95 N93 1.263 . S
C95 N94 1.358 . S
C95 H101 0.930 . S
C96 N94 1.400 . S
C96 C97 1.351 . S
C96 H113 0.930 . S
C97 N93 1.389 . S
C97 C96 1.351 . S
C97 H102 0.930 . S
O98 Cu92 1.974 . S
O98 C108 1.282 . S
C99 O100 1.261 . S
C99 O112 1.251 . S
O100 C99 1.261 . S
H101 C95 0.930 . S
H102 C97 0.930 . S
N103 Cu92 1.985 1_565 S
N103 C105 1.335 . S
N103 C106 1.390 . S
N104 C105 1.345 . S
N104 C107 1.336 . S
C105 N103 1.335 . S
C105 N104 1.345 . S
C105 H110 0.930 . S
C106 N103 1.390 . S
C106 C107 1.346 . S
C106 H111 0.930 1_565 S
C107 N104 1.336 . S
C107 C106 1.346 . S
C107 H114 0.929 . S
C108 O98 1.282 . S
C108 O109 1.216 . S
O109 C108 1.216 . S
H110 C105 0.930 . S
H111 C106 0.930 1_545 S
O112 Cu92 1.959 1_566 S
O112 C99 1.251 . S
H113 C96 0.930 . S
H114 C107 0.929 . S
Cu115 N116 1.956 1_454 S
Cu115 O121 1.986 1_455 S
Cu115 N126 1.999 . S
Cu115 O135 1.947 1_554 S
N116 Cu115 1.956 1_656 S
N116 C118 1.305 . S
N116 C120 1.383 1_655 S
N117 C118 1.358 . S
N117 C119 1.400 . S
C118 N116 1.305 . S
C118 N117 1.358 . S
C118 H124 0.930 . S
C119 N117 1.400 . S
C119 C120 1.351 1_655 S
C119 H136 0.930 . S
C120 N116 1.383 1_455 S
C120 C119 1.351 1_455 S
C120 H125 0.930 . S
O121 Cu115 1.986 1_655 S
O121 C131 1.282 . S
C122 O123 1.261 . S
C122 O135 1.251 . S
O123 C122 1.261 . S
H124 C118 0.930 . S
H125 C120 0.930 . S
N126 Cu115 1.999 . S
N126 C128 1.335 . S
N126 C129 1.390 . S
N127 C128 1.345 . S
N127 C130 1.336 . S
C128 N126 1.335 . S
C128 N127 1.345 . S
C128 H133 0.930 . S
C129 N126 1.390 . S
C129 C130 1.346 . S
C129 H134 0.930 . S
C130 N127 1.336 . S
C130 C129 1.346 . S
C130 H137 0.929 . S
C131 O121 1.282 . S
C131 O132 1.216 . S
O132 C131 1.216 . S
H133 C128 0.930 . S
H134 C129 0.930 . S
O135 Cu115 1.947 1_556 S
O135 C122 1.251 . S
H136 C119 0.930 . S
H137 C130 0.929 . S
Cu138 N139 1.999 . S
Cu138 O144 1.974 . S
Cu138 N149 1.985 . S
Cu138 O158 1.959 . S
N139 Cu138 1.999 . S
N139 C141 1.263 . S
N139 C143 1.389 . S
N140 C141 1.358 . S
N140 C142 1.400 . S
C141 N139 1.263 . S
C141 N140 1.358 . S
C141 H147 0.930 . S
C142 N140 1.400 . S
C142 C143 1.351 . S
C142 H159 0.930 . S
C143 N139 1.389 . S
C143 C142 1.351 . S
C143 H148 0.930 . S
O144 Cu138 1.974 . S
O144 C154 1.282 . S
C145 O146 1.261 . S
C145 O158 1.251 . S
O146 C145 1.261 . S
H147 C141 0.930 . S
H148 C143 0.930 . S
N149 Cu138 1.985 . S
N149 C151 1.335 . S
N149 C152 1.390 . S
N150 C151 1.345 . S
N150 C153 1.336 . S
C151 N149 1.335 . S
C151 N150 1.345 . S
C151 H156 0.930 . S
C152 N149 1.390 . S
C152 C153 1.346 . S
C152 H157 0.930 . S
C153 N150 1.336 . S
C153 C152 1.346 . S
C153 H160 0.929 . S
C154 O144 1.282 . S
C154 O155 1.216 . S
O155 C154 1.216 . S
H156 C151 0.930 . S
H157 C152 0.930 . S
O158 Cu138 1.959 . S
O158 C145 1.251 . S
H159 C142 0.930 . S
H160 C153 0.929 . S
Cu161 N162 1.999 . S
Cu161 O167 1.974 . S
Cu161 N172 1.985 . S
Cu161 O181 1.959 . S
N162 Cu161 1.999 . S
N162 C164 1.263 . S
N162 C166 1.389 . S
N163 C164 1.358 . S
N163 C165 1.400 . S
C164 N162 1.263 . S
C164 N163 1.358 . S
C164 H170 0.930 . S
C165 N163 1.400 . S
C165 C166 1.351 . S
C165 H182 0.930 . S
C166 N162 1.389 . S
C166 C165 1.351 . S
C166 H171 0.930 . S
O167 Cu161 1.974 . S
O167 C177 1.282 . S
C168 O169 1.261 . S
C168 O181 1.251 . S
O169 C168 1.261 . S
H170 C164 0.930 . S
H171 C166 0.930 . S
N172 Cu161 1.985 . S
N172 C174 1.335 . S
N172 C175 1.390 . S
N173 C174 1.345 . S
N173 C176 1.336 . S
C174 N172 1.335 . S
C174 N173 1.345 . S
C174 H179 0.930 . S
C175 N172 1.390 . S
C175 C176 1.346 . S
C175 H180 0.930 . S
C176 N173 1.336 . S
C176 C175 1.346 . S
C176 H183 0.929 . S
C177 O167 1.282 . S
C177 O178 1.216 . S
O178 C177 1.216 . S
H179 C174 0.930 . S
H180 C175 0.930 . S
O181 Cu161 1.959 . S
O181 C168 1.251 . S
H182 C165 0.930 . S
H183 C176 0.929 . S
Cu184 N185 1.999 . S
Cu184 O190 1.974 . S
Cu184 N195 1.985 . S
Cu184 O204 1.959 . S
N185 Cu184 1.999 . S
N185 C187 1.263 . S
N185 C189 1.389 . S
N186 C187 1.358 . S
N186 C188 1.400 . S
C187 N185 1.263 . S
C187 N186 1.358 . S
C187 H193 0.930 . S
C188 N186 1.400 . S
C188 C189 1.351 . S
C188 H205 0.930 . S
C189 N185 1.389 . S
C189 C188 1.351 . S
C189 H194 0.930 . S
O190 Cu184 1.974 . S
O190 C200 1.282 . S
C191 O192 1.261 . S
C191 O204 1.251 . S
O192 C191 1.261 . S
H193 C187 0.930 . S
H194 C189 0.930 . S
N195 Cu184 1.985 . S
N195 C197 1.335 . S
N195 C198 1.390 . S
N196 C197 1.345 . S
N196 C199 1.336 . S
C197 N195 1.335 . S
C197 N196 1.345 . S
C197 H202 0.930 . S
C198 N195 1.390 . S
C198 C199 1.346 . S
C198 H203 0.930 . S
C199 N196 1.336 . S
C199 C198 1.346 . S
C199 H206 0.929 . S
C200 O190 1.282 . S
C200 O201 1.216 . S
O201 C200 1.216 . S
H202 C197 0.930 . S
H203 C198 0.930 . S
O204 Cu184 1.959 . S
O204 C191 1.251 . S
H205 C188 0.930 . S
H206 C199 0.929 . S
Cu207 N208 1.999 . S
Cu207 O213 1.974 . S
Cu207 N218 1.985 . S
Cu207 O227 1.959 . S
N208 Cu207 1.999 . S
N208 C210 1.263 . S
N208 C212 1.389 . S
N209 C210 1.358 . S
N209 C211 1.400 . S
C210 N208 1.263 . S
C210 N209 1.358 . S
C210 H216 0.930 . S
C211 N209 1.400 . S
C211 C212 1.351 . S
C211 H228 0.930 . S
C212 N208 1.389 . S
C212 C211 1.351 . S
C212 H217 0.930 . S
O213 Cu207 1.974 . S
O213 C223 1.282 . S
C214 O215 1.261 . S
C214 O227 1.251 . S
O215 C214 1.261 . S
H216 C210 0.930 . S
H217 C212 0.930 . S
N218 Cu207 1.985 . S
N218 C220 1.335 . S
N218 C221 1.390 . S
N219 C220 1.345 . S
N219 C222 1.336 . S
C220 N218 1.335 . S
C220 N219 1.345 . S
C220 H225 0.930 . S
C221 N218 1.390 . S
C221 C222 1.346 . S
C221 H226 0.930 . S
C222 N219 1.336 . S
C222 C221 1.346 . S
C222 H229 0.929 . S
C223 O213 1.282 . S
C223 O224 1.216 . S
O224 C223 1.216 . S
H225 C220 0.930 . S
H226 C221 0.930 . S
O227 Cu207 1.959 . S
O227 C214 1.251 . S
H228 C211 0.930 . S
H229 C222 0.929 . S
Cu230 N231 1.999 . S
Cu230 O236 1.974 . S
Cu230 N241 1.985 . S
Cu230 O250 1.959 . S
N231 Cu230 1.999 . S
N231 C233 1.263 . S
N231 C235 1.389 . S
N232 C233 1.358 . S
N232 C234 1.400 . S
C233 N231 1.263 . S
C233 N232 1.358 . S
C233 H239 0.930 . S
C234 N232 1.400 . S
C234 C235 1.351 . S
C234 H251 0.930 . S
C235 N231 1.389 . S
C235 C234 1.351 . S
C235 H240 0.930 . S
O236 Cu230 1.974 . S
O236 C246 1.282 . S
C237 O238 1.261 . S
C237 O250 1.251 . S
O238 C237 1.261 . S
H239 C233 0.930 . S
H240 C235 0.930 . S
N241 Cu230 1.985 . S
N241 C243 1.335 . S
N241 C244 1.390 . S
N242 C243 1.345 . S
N242 C245 1.336 . S
C243 N241 1.335 . S
C243 N242 1.345 . S
C243 H248 0.930 . S
C244 N241 1.390 . S
C244 C245 1.346 . S
C244 H249 0.930 . S
C245 N242 1.336 . S
C245 C244 1.346 . S
C245 H252 0.929 . S
C246 O236 1.282 . S
C246 O247 1.216 . S
O247 C246 1.216 . S
H248 C243 0.930 . S
H249 C244 0.930 . S
O250 Cu230 1.959 . S
O250 C237 1.251 . S
H251 C234 0.930 . S
H252 C245 0.929 . S
Cu253 N254 1.999 . S
Cu253 O259 1.974 . S
Cu253 N264 1.985 . S
Cu253 O273 1.959 . S
N254 Cu253 1.999 . S
N254 C256 1.263 . S
N254 C258 1.389 . S
N255 C256 1.358 . S
N255 C257 1.400 . S
C256 N254 1.263 . S
C256 N255 1.358 . S
C256 H262 0.930 . S
C257 N255 1.400 . S
C257 C258 1.351 . S
C257 H274 0.930 . S
C258 N254 1.389 . S
C258 C257 1.351 . S
C258 H263 0.930 . S
O259 Cu253 1.974 . S
O259 C269 1.282 . S
C260 O261 1.261 . S
C260 O273 1.251 . S
O261 C260 1.261 . S
H262 C256 0.930 . S
H263 C258 0.930 . S
N264 Cu253 1.985 . S
N264 C266 1.335 . S
N264 C267 1.390 . S
N265 C266 1.345 . S
N265 C268 1.336 . S
C266 N264 1.335 . S
C266 N265 1.345 . S
C266 H271 0.930 . S
C267 N264 1.390 . S
C267 C268 1.346 . S
C267 H272 0.930 . S
C268 N265 1.336 . S
C268 C267 1.346 . S
C268 H275 0.929 . S
C269 O259 1.282 . S
C269 O270 1.216 . S
O270 C269 1.216 . S
H271 C266 0.930 . S
H272 C267 0.930 . S
O273 Cu253 1.959 . S
O273 C260 1.251 . S
H274 C257 0.930 . S
H275 C268 0.929 . S
Dy276 O279 2.307 . S
Dy276 O281 2.395 . S
Dy276 O282 2.379 . S
Dy276 O284 2.339 . S
Dy276 O286 2.298 . S
Dy276 O290 2.275 . S
Dy276 C298 2.738 . S
Dy277 O280 2.298 . S
Dy277 O283 2.275 . S
Dy277 O285 2.307 . S
Dy277 O287 2.395 . S
Dy277 O288 2.379 . S
Dy277 O291 2.339 . S
Dy277 C307 2.738 . S
C278 O290 1.254 . S
C278 O291 1.257 . S
O279 Dy276 2.307 . S
O279 C289 1.266 . S
O280 Dy277 2.298 . S
O280 C289 1.236 . S
O281 Dy276 2.395 . S
O281 C298 1.255 . S
O282 Dy276 2.379 . S
O282 C298 1.249 . S
O283 Dy277 2.275 . S
O283 C299 1.254 . S
O284 Dy276 2.339 . S
O284 C299 1.257 . S
O285 Dy277 2.307 . S
O285 C300 1.266 . S
O286 Dy276 2.298 . S
O286 C300 1.236 . S
O287 Dy277 2.395 . S
O287 C307 1.255 . S
O288 Dy277 2.379 . S
O288 C307 1.249 . S
C289 O279 1.266 . S
C289 O280 1.236 . S
O290 Dy276 2.275 . S
O290 C278 1.254 . S
O291 Dy277 2.339 . S
O291 C278 1.257 . S
C292 C295 1.344 . S
C292 C296 1.328 . S
C292 C298 1.516 . S
C293 C294 1.304 . S
C293 C297 1.323 . S
C294 C293 1.304 . S
C294 C295 1.371 . S
C294 H308 0.930 . S
C295 C292 1.344 . S
C295 C294 1.371 . S
C295 H309 0.931 . S
C296 C292 1.328 . S
C296 C297 1.433 . S
C296 H310 0.931 . S
C297 C293 1.323 . S
C297 C296 1.433 . S
C297 H311 0.933 . S
C298 Dy276 2.738 . S
C298 O281 1.255 . S
C298 O282 1.249 . S
C298 C292 1.516 . S
C299 O283 1.254 . S
C299 O284 1.257 . S
C300 O285 1.266 . S
C300 O286 1.236 . S
C301 C304 1.344 . S
C301 C305 1.328 . S
C301 C307 1.516 . S
C302 C303 1.304 . S
C302 C306 1.323 . S
C303 C302 1.304 . S
C303 C304 1.371 . S
C303 H312 0.930 . S
C304 C301 1.344 . S
C304 C303 1.371 . S
C304 H313 0.931 . S
C305 C301 1.328 . S
C305 C306 1.433 . S
C305 H314 0.931 . S
C306 C302 1.323 . S
C306 C305 1.433 . S
C306 H315 0.933 . S
C307 Dy277 2.738 . S
C307 O287 1.255 . S
C307 O288 1.249 . S
C307 C301 1.516 . S
H308 C294 0.930 . S
H309 C295 0.931 . S
H310 C296 0.931 . S
H311 C297 0.933 . S
H312 C303 0.930 . S
H313 C304 0.931 . S
H314 C305 0.931 . S
H315 C306 0.933 . S
Dy316 O319 2.307 . S
Dy316 O321 2.395 . S
Dy316 O322 2.379 . S
Dy316 O324 2.339 . S
Dy316 O326 2.298 . S
Dy316 O330 2.275 . S
Dy316 C338 2.738 . S
Dy317 O320 2.298 . S
Dy317 O323 2.275 . S
Dy317 O325 2.307 . S
Dy317 O327 2.395 . S
Dy317 O328 2.379 . S
Dy317 O331 2.339 . S
Dy317 C347 2.738 . S
C318 O330 1.254 . S
C318 O331 1.257 . S
O319 Dy316 2.307 . S
O319 C329 1.266 . S
O320 Dy317 2.298 . S
O320 C329 1.236 . S
O321 Dy316 2.395 . S
O321 C338 1.255 . S
O322 Dy316 2.379 . S
O322 C338 1.249 . S
O323 Dy317 2.275 . S
O323 C339 1.254 . S
O324 Dy316 2.339 . S
O324 C339 1.257 . S
O325 Dy317 2.307 . S
O325 C340 1.266 . S
O326 Dy316 2.298 . S
O326 C340 1.236 . S
O327 Dy317 2.395 . S
O327 C347 1.255 . S
O328 Dy317 2.379 . S
O328 C347 1.249 . S
C329 O319 1.266 . S
C329 O320 1.236 . S
O330 Dy316 2.275 . S
O330 C318 1.254 . S
O331 Dy317 2.339 . S
O331 C318 1.257 . S
C332 C335 1.344 . S
C332 C336 1.328 . S
C332 C338 1.516 . S
C333 C334 1.304 . S
C333 C337 1.323 . S
C334 C333 1.304 . S
C334 C335 1.371 . S
C334 H348 0.930 . S
C335 C332 1.344 . S
C335 C334 1.371 . S
C335 H349 0.931 . S
C336 C332 1.328 . S
C336 C337 1.433 . S
C336 H350 0.931 . S
C337 C333 1.323 . S
C337 C336 1.433 . S
C337 H351 0.933 . S
C338 Dy316 2.738 . S
C338 O321 1.255 . S
C338 O322 1.249 . S
C338 C332 1.516 . S
C339 O323 1.254 . S
C339 O324 1.257 . S
C340 O325 1.266 . S
C340 O326 1.236 . S
C341 C344 1.344 . S
C341 C345 1.328 . S
C341 C347 1.516 . S
C342 C343 1.304 . S
C342 C346 1.323 . S
C343 C342 1.304 . S
C343 C344 1.371 . S
C343 H352 0.930 . S
C344 C341 1.344 . S
C344 C343 1.371 . S
C344 H353 0.931 . S
C345 C341 1.328 . S
C345 C346 1.433 . S
C345 H354 0.931 . S
C346 C342 1.323 . S
C346 C345 1.433 . S
C346 H355 0.933 . S
C347 Dy317 2.738 . S
C347 O327 1.255 . S
C347 O328 1.249 . S
C347 C341 1.516 . S
H348 C334 0.930 . S
H349 C335 0.931 . S
H350 C336 0.931 . S
H351 C337 0.933 . S
H352 C343 0.930 . S
H353 C344 0.931 . S
H354 C345 0.931 . S
H355 C346 0.933 . S
Dy356 O359 2.307 . S
Dy356 O361 2.395 . S
Dy356 O362 2.379 . S
Dy356 O364 2.339 . S
Dy356 O366 2.298 . S
Dy356 O370 2.275 . S
Dy356 C378 2.738 . S
Dy357 O360 2.298 . S
Dy357 O363 2.275 . S
Dy357 O365 2.307 . S
Dy357 O367 2.395 . S
Dy357 O368 2.379 . S
Dy357 O371 2.339 . S
Dy357 C387 2.738 . S
C358 O370 1.254 . S
C358 O371 1.257 . S
O359 Dy356 2.307 . S
O359 C369 1.266 . S
O360 Dy357 2.298 . S
O360 C369 1.236 . S
O361 Dy356 2.395 . S
O361 C378 1.255 . S
O362 Dy356 2.379 . S
O362 C378 1.249 . S
O363 Dy357 2.275 . S
O363 C379 1.254 . S
O364 Dy356 2.339 . S
O364 C379 1.257 . S
O365 Dy357 2.307 . S
O365 C380 1.266 . S
O366 Dy356 2.298 . S
O366 C380 1.236 . S
O367 Dy357 2.395 . S
O367 C387 1.255 . S
O368 Dy357 2.379 . S
O368 C387 1.249 . S
C369 O359 1.266 . S
C369 O360 1.236 . S
O370 Dy356 2.275 . S
O370 C358 1.254 . S
O371 Dy357 2.339 . S
O371 C358 1.257 . S
C372 C375 1.344 . S
C372 C376 1.328 . S
C372 C378 1.516 . S
C373 C374 1.304 . S
C373 C377 1.323 . S
C374 C373 1.304 . S
C374 C375 1.371 . S
C374 H388 0.930 . S
C375 C372 1.344 . S
C375 C374 1.371 . S
C375 H389 0.931 . S
C376 C372 1.328 . S
C376 C377 1.433 . S
C376 H390 0.931 . S
C377 C373 1.323 . S
C377 C376 1.433 . S
C377 H391 0.933 . S
C378 Dy356 2.738 . S
C378 O361 1.255 . S
C378 O362 1.249 . S
C378 C372 1.516 . S
C379 O363 1.254 . S
C379 O364 1.257 . S
C380 O365 1.266 . S
C380 O366 1.236 . S
C381 C384 1.344 . S
C381 C385 1.328 . S
C381 C387 1.516 . S
C382 C383 1.304 . S
C382 C386 1.323 . S
C383 C382 1.304 . S
C383 C384 1.371 . S
C383 H392 0.930 . S
C384 C381 1.344 . S
C384 C383 1.371 . S
C384 H393 0.931 . S
C385 C381 1.328 . S
C385 C386 1.433 . S
C385 H394 0.931 . S
C386 C382 1.323 . S
C386 C385 1.433 . S
C386 H395 0.933 . S
C387 Dy357 2.738 . S
C387 O367 1.255 . S
C387 O368 1.249 . S
C387 C381 1.516 . S
H388 C374 0.930 . S
H389 C375 0.931 . S
H390 C376 0.931 . S
H391 C377 0.933 . S
H392 C383 0.930 . S
H393 C384 0.931 . S
H394 C385 0.931 . S
H395 C386 0.933 . S
Dy396 O399 2.307 . S
Dy396 O401 2.395 . S
Dy396 O402 2.379 . S
Dy396 O404 2.339 . S
Dy396 O406 2.298 . S
Dy396 O410 2.275 . S
Dy396 C418 2.738 . S
Dy397 O400 2.298 . S
Dy397 O403 2.275 . S
Dy397 O405 2.307 . S
Dy397 O407 2.395 . S
Dy397 O408 2.379 . S
Dy397 O411 2.339 . S
Dy397 C427 2.738 . S
C398 O410 1.254 . S
C398 O411 1.257 . S
O399 Dy396 2.307 . S
O399 C409 1.266 . S
O400 Dy397 2.298 . S
O400 C409 1.236 . S
O401 Dy396 2.395 . S
O401 C418 1.255 . S
O402 Dy396 2.379 . S
O402 C418 1.249 . S
O403 Dy397 2.275 . S
O403 C419 1.254 . S
O404 Dy396 2.339 . S
O404 C419 1.257 . S
O405 Dy397 2.307 . S
O405 C420 1.266 . S
O406 Dy396 2.298 . S
O406 C420 1.236 . S
O407 Dy397 2.395 . S
O407 C427 1.255 . S
O408 Dy397 2.379 . S
O408 C427 1.249 . S
C409 O399 1.266 . S
C409 O400 1.236 . S
O410 Dy396 2.275 . S
O410 C398 1.254 . S
O411 Dy397 2.339 . S
O411 C398 1.257 . S
C412 C415 1.344 . S
C412 C416 1.328 . S
C412 C418 1.516 . S
C413 C414 1.304 . S
C413 C417 1.323 . S
C414 C413 1.304 . S
C414 C415 1.371 . S
C414 H428 0.930 . S
C415 C412 1.344 . S
C415 C414 1.371 . S
C415 H429 0.931 . S
C416 C412 1.328 . S
C416 C417 1.433 . S
C416 H430 0.931 . S
C417 C413 1.323 . S
C417 C416 1.433 . S
C417 H431 0.933 . S
C418 Dy396 2.738 . S
C418 O401 1.255 . S
C418 O402 1.249 . S
C418 C412 1.516 . S
C419 O403 1.254 . S
C419 O404 1.257 . S
C420 O405 1.266 . S
C420 O406 1.236 . S
C421 C424 1.344 . S
C421 C425 1.328 . S
C421 C427 1.516 . S
C422 C423 1.304 . S
C422 C426 1.323 . S
C423 C422 1.304 . S
C423 C424 1.371 . S
C423 H432 0.930 . S
C424 C421 1.344 . S
C424 C423 1.371 . S
C424 H433 0.931 . S
C425 C421 1.328 . S
C425 C426 1.433 . S
C425 H434 0.931 . S
C426 C422 1.323 . S
C426 C425 1.433 . S
C426 H435 0.933 . S
C427 Dy397 2.738 . S
C427 O407 1.255 . S
C427 O408 1.249 . S
C427 C421 1.516 . S
H428 C414 0.930 . S
H429 C415 0.931 . S
H430 C416 0.931 . S
H431 C417 0.933 . S
H432 C423 0.930 . S
H433 C424 0.931 . S
H434 C425 0.931 . S
H435 C426 0.933 . S
Dy436 O439 2.307 . S
Dy436 O441 2.395 . S
Dy436 O442 2.379 . S
Dy436 O444 2.339 . S
Dy436 O446 2.298 . S
Dy436 O450 2.275 . S
Dy436 C458 2.738 . S
Dy437 O440 2.298 . S
Dy437 O443 2.275 . S
Dy437 O445 2.307 . S
Dy437 O447 2.395 . S
Dy437 O448 2.379 . S
Dy437 O451 2.339 . S
Dy437 C467 2.738 . S
C438 O450 1.254 . S
C438 O451 1.257 . S
O439 Dy436 2.307 . S
O439 C449 1.266 . S
O440 Dy437 2.298 . S
O440 C449 1.236 . S
O441 Dy436 2.395 . S
O441 C458 1.255 . S
O442 Dy436 2.379 . S
O442 C458 1.249 . S
O443 Dy437 2.275 . S
O443 C459 1.254 . S
O444 Dy436 2.339 . S
O444 C459 1.257 . S
O445 Dy437 2.307 . S
O445 C460 1.266 . S
O446 Dy436 2.298 . S
O446 C460 1.236 . S
O447 Dy437 2.395 . S
O447 C467 1.255 . S
O448 Dy437 2.379 . S
O448 C467 1.249 . S
C449 O439 1.266 . S
C449 O440 1.236 . S
O450 Dy436 2.275 . S
O450 C438 1.254 . S
O451 Dy437 2.339 . S
O451 C438 1.257 . S
C452 C455 1.344 . S
C452 C456 1.328 . S
C452 C458 1.516 . S
C453 C454 1.304 . S
C453 C457 1.323 . S
C454 C453 1.304 . S
C454 C455 1.371 . S
C454 H468 0.930 . S
C455 C452 1.344 . S
C455 C454 1.371 . S
C455 H469 0.931 . S
C456 C452 1.328 . S
C456 C457 1.433 . S
C456 H470 0.931 . S
C457 C453 1.323 . S
C457 C456 1.433 . S
C457 H471 0.933 . S
C458 Dy436 2.738 . S
C458 O441 1.255 . S
C458 O442 1.249 . S
C458 C452 1.516 . S
C459 O443 1.254 . S
C459 O444 1.257 . S
C460 O445 1.266 . S
C460 O446 1.236 . S
C461 C464 1.344 . S
C461 C465 1.328 . S
C461 C467 1.516 . S
C462 C463 1.304 . S
C462 C466 1.323 . S
C463 C462 1.304 . S
C463 C464 1.371 . S
C463 H472 0.930 . S
C464 C461 1.344 . S
C464 C463 1.371 . S
C464 H473 0.931 . S
C465 C461 1.328 . S
C465 C466 1.433 . S
C465 H474 0.931 . S
C466 C462 1.323 . S
C466 C465 1.433 . S
C466 H475 0.933 . S
C467 Dy437 2.738 . S
C467 O447 1.255 . S
C467 O448 1.249 . S
C467 C461 1.516 . S
H468 C454 0.930 . S
H469 C455 0.931 . S
H470 C456 0.931 . S
H471 C457 0.933 . S
H472 C463 0.930 . S
H473 C464 0.931 . S
H474 C465 0.931 . S
H475 C466 0.933 . S
Dy476 O479 2.307 . S
Dy476 O481 2.395 . S
Dy476 O482 2.379 . S
Dy476 O484 2.339 . S
Dy476 O486 2.298 . S
Dy476 O490 2.275 . S
Dy476 C498 2.738 . S
Dy477 O480 2.298 . S
Dy477 O483 2.275 . S
Dy477 O485 2.307 . S
Dy477 O487 2.395 . S
Dy477 O488 2.379 . S
Dy477 O491 2.339 . S
Dy477 C507 2.738 . S
C478 O490 1.254 . S
C478 O491 1.257 . S
O479 Dy476 2.307 . S
O479 C489 1.266 . S
O480 Dy477 2.298 . S
O480 C489 1.236 . S
O481 Dy476 2.395 . S
O481 C498 1.255 . S
O482 Dy476 2.379 . S
O482 C498 1.249 . S
O483 Dy477 2.275 . S
O483 C499 1.254 . S
O484 Dy476 2.339 . S
O484 C499 1.257 . S
O485 Dy477 2.307 . S
O485 C500 1.266 . S
O486 Dy476 2.298 . S
O486 C500 1.236 . S
O487 Dy477 2.395 . S
O487 C507 1.255 . S
O488 Dy477 2.379 . S
O488 C507 1.249 . S
C489 O479 1.266 . S
C489 O480 1.236 . S
O490 Dy476 2.275 . S
O490 C478 1.254 . S
O491 Dy477 2.339 . S
O491 C478 1.257 . S
C492 C495 1.344 . S
C492 C496 1.328 . S
C492 C498 1.516 . S
C493 C494 1.304 . S
C493 C497 1.323 . S
C494 C493 1.304 . S
C494 C495 1.371 . S
C494 H508 0.930 . S
C495 C492 1.344 . S
C495 C494 1.371 . S
C495 H509 0.931 . S
C496 C492 1.328 . S
C496 C497 1.433 . S
C496 H510 0.931 . S
C497 C493 1.323 . S
C497 C496 1.433 . S
C497 H511 0.933 . S
C498 Dy476 2.738 . S
C498 O481 1.255 . S
C498 O482 1.249 . S
C498 C492 1.516 . S
C499 O483 1.254 . S
C499 O484 1.257 . S
C500 O485 1.266 . S
C500 O486 1.236 . S
C501 C504 1.344 . S
C501 C505 1.328 . S
C501 C507 1.516 . S
C502 C503 1.304 . S
C502 C506 1.323 . S
C503 C502 1.304 . S
C503 C504 1.371 . S
C503 H512 0.930 . S
C504 C501 1.344 . S
C504 C503 1.371 . S
C504 H513 0.931 . S
C505 C501 1.328 . S
C505 C506 1.433 . S
C505 H514 0.931 . S
C506 C502 1.323 . S
C506 C505 1.433 . S
C506 H515 0.933 . S
C507 Dy477 2.738 . S
C507 O487 1.255 . S
C507 O488 1.249 . S
C507 C501 1.516 . S
H508 C494 0.930 . S
H509 C495 0.931 . S
H510 C496 0.931 . S
H511 C497 0.933 . S
H512 C503 0.930 . S
H513 C504 0.931 . S
H514 C505 0.931 . S
H515 C506 0.933 . S
Dy516 O519 2.307 . S
Dy516 O521 2.395 . S
Dy516 O522 2.379 . S
Dy516 O524 2.339 . S
Dy516 O526 2.298 . S
Dy516 O530 2.275 . S
Dy516 C538 2.738 . S
Dy517 O520 2.298 . S
Dy517 O523 2.275 . S
Dy517 O525 2.307 . S
Dy517 O527 2.395 . S
Dy517 O528 2.379 . S
Dy517 O531 2.339 . S
Dy517 C547 2.738 . S
C518 O530 1.254 . S
C518 O531 1.257 . S
O519 Dy516 2.307 . S
O519 C529 1.266 . S
O520 Dy517 2.298 . S
O520 C529 1.236 . S
O521 Dy516 2.395 . S
O521 C538 1.255 . S
O522 Dy516 2.379 . S
O522 C538 1.249 . S
O523 Dy517 2.275 . S
O523 C539 1.254 . S
O524 Dy516 2.339 . S
O524 C539 1.257 . S
O525 Dy517 2.307 . S
O525 C540 1.266 . S
O526 Dy516 2.298 . S
O526 C540 1.236 . S
O527 Dy517 2.395 . S
O527 C547 1.255 . S
O528 Dy517 2.379 . S
O528 C547 1.249 . S
C529 O519 1.266 . S
C529 O520 1.236 . S
O530 Dy516 2.275 . S
O530 C518 1.254 . S
O531 Dy517 2.339 . S
O531 C518 1.257 . S
C532 C535 1.344 . S
C532 C536 1.328 . S
C532 C538 1.516 . S
C533 C534 1.304 . S
C533 C537 1.323 . S
C534 C533 1.304 . S
C534 C535 1.371 . S
C534 H548 0.930 . S
C535 C532 1.344 . S
C535 C534 1.371 . S
C535 H549 0.931 . S
C536 C532 1.328 . S
C536 C537 1.433 . S
C536 H550 0.931 . S
C537 C533 1.323 . S
C537 C536 1.433 . S
C537 H551 0.933 . S
C538 Dy516 2.738 . S
C538 O521 1.255 . S
C538 O522 1.249 . S
C538 C532 1.516 . S
C539 O523 1.254 . S
C539 O524 1.257 . S
C540 O525 1.266 . S
C540 O526 1.236 . S
C541 C544 1.344 . S
C541 C545 1.328 . S
C541 C547 1.516 . S
C542 C543 1.304 . S
C542 C546 1.323 . S
C543 C542 1.304 . S
C543 C544 1.371 . S
C543 H552 0.930 . S
C544 C541 1.344 . S
C544 C543 1.371 . S
C544 H553 0.931 . S
C545 C541 1.328 . S
C545 C546 1.433 . S
C545 H554 0.931 . S
C546 C542 1.323 . S
C546 C545 1.433 . S
C546 H555 0.933 . S
C547 Dy517 2.738 . S
C547 O527 1.255 . S
C547 O528 1.249 . S
C547 C541 1.516 . S
H548 C534 0.930 . S
H549 C535 0.931 . S
H550 C536 0.931 . S
H551 C537 0.933 . S
H552 C543 0.930 . S
H553 C544 0.931 . S
H554 C545 0.931 . S
H555 C546 0.933 . S
Dy556 O559 2.307 . S
Dy556 O561 2.395 . S
Dy556 O562 2.379 . S
Dy556 O564 2.339 . S
Dy556 O566 2.298 . S
Dy556 O570 2.275 . S
Dy556 C578 2.738 . S
Dy557 O560 2.298 . S
Dy557 O563 2.275 . S
Dy557 O565 2.307 . S
Dy557 O567 2.395 . S
Dy557 O568 2.379 . S
Dy557 O571 2.339 . S
Dy557 C587 2.738 . S
C558 O570 1.254 . S
C558 O571 1.257 . S
O559 Dy556 2.307 . S
O559 C569 1.266 . S
O560 Dy557 2.298 . S
O560 C569 1.236 . S
O561 Dy556 2.395 . S
O561 C578 1.255 . S
O562 Dy556 2.379 . S
O562 C578 1.249 . S
O563 Dy557 2.275 . S
O563 C579 1.254 . S
O564 Dy556 2.339 . S
O564 C579 1.257 . S
O565 Dy557 2.307 . S
O565 C580 1.266 . S
O566 Dy556 2.298 . S
O566 C580 1.236 . S
O567 Dy557 2.395 . S
O567 C587 1.255 . S
O568 Dy557 2.379 . S
O568 C587 1.249 . S
C569 O559 1.266 . S
C569 O560 1.236 . S
O570 Dy556 2.275 . S
O570 C558 1.254 . S
O571 Dy557 2.339 . S
O571 C558 1.257 . S
C572 C575 1.344 . S
C572 C576 1.328 . S
C572 C578 1.516 . S
C573 C574 1.304 . S
C573 C577 1.323 . S
C574 C573 1.304 . S
C574 C575 1.371 . S
C574 H588 0.930 . S
C575 C572 1.344 . S
C575 C574 1.371 . S
C575 H589 0.931 . S
C576 C572 1.328 . S
C576 C577 1.433 . S
C576 H590 0.931 . S
C577 C573 1.323 . S
C577 C576 1.433 . S
C577 H591 0.933 . S
C578 Dy556 2.738 . S
C578 O561 1.255 . S
C578 O562 1.249 . S
C578 C572 1.516 . S
C579 O563 1.254 . S
C579 O564 1.257 . S
C580 O565 1.266 . S
C580 O566 1.236 . S
C581 C584 1.344 . S
C581 C585 1.328 . S
C581 C587 1.516 . S
C582 C583 1.304 . S
C582 C586 1.323 . S
C583 C582 1.304 . S
C583 C584 1.371 . S
C583 H592 0.930 . S
C584 C581 1.344 . S
C584 C583 1.371 . S
C584 H593 0.931 . S
C585 C581 1.328 . S
C585 C586 1.433 . S
C585 H594 0.931 . S
C586 C582 1.323 . S
C586 C585 1.433 . S
C586 H595 0.933 . S
C587 Dy557 2.738 . S
C587 O567 1.255 . S
C587 O568 1.249 . S
C587 C581 1.516 . S
H588 C574 0.930 . S
H589 C575 0.931 . S
H590 C576 0.931 . S
H591 C577 0.933 . S
H592 C583 0.930 . S
H593 C584 0.931 . S
H594 C585 0.931 . S
H595 C586 0.933 . S
H596 C608 0.930 . S
H597 C610 0.930 . S
H598 C611 0.930 . S
H599 C615 0.959 . S
H600 C615 0.959 . S
H601 C615 0.961 . S
H602 C616 0.960 . S
H603 C616 0.961 . S
H604 C616 0.959 . S
H605 C619 0.929 . S
H606 C620 0.931 . S
H607 C622 0.930 . S
C608 H596 0.930 . S
C608 C609 1.399 . S
C608 C613 1.399 . S
C609 C608 1.399 . S
C609 C610 1.376 . S
C610 H597 0.930 . S
C610 C609 1.376 . S
C610 C611 1.388 . S
C611 H598 0.930 . S
C611 C610 1.388 . S
C611 C612 1.390 . S
C612 C611 1.390 . S
C612 C613 1.394 . S
C612 C618 1.465 . S
C613 C608 1.399 . S
C613 C612 1.394 . S
C613 C614 1.516 . S
C614 C613 1.516 . S
C614 C615 1.502 . S
C614 C616 1.561 . S
C614 C617 1.526 . S
C615 H599 0.959 . S
C615 H600 0.959 . S
C615 H601 0.961 . S
C615 C614 1.502 . S
C616 H602 0.960 . S
C616 H603 0.961 . S
C616 H604 0.959 . S
C616 C614 1.561 . S
C617 C614 1.526 . S
C617 C618 1.396 . S
C617 C622 1.390 . S
C618 C612 1.465 . S
C618 C617 1.396 . S
C618 C619 1.399 . S
C619 H605 0.929 . S
C619 C618 1.399 . S
C619 C620 1.385 . S
C620 H606 0.931 . S
C620 C619 1.385 . S
C620 C621 1.389 . S
C621 C620 1.389 . S
C621 C622 1.387 . S
C622 H607 0.930 . S
C622 C617 1.390 . S
C622 C621 1.387 . S
H623 C635 0.930 . S
H624 C637 0.930 . S
H625 C638 0.930 . S
H626 C642 0.959 . S
H627 C642 0.959 . S
H628 C642 0.961 . S
H629 C643 0.960 . S
H630 C643 0.961 . S
H631 C643 0.959 . S
H632 C646 0.929 . S
H633 C647 0.931 . S
H634 C649 0.930 . S
C635 H623 0.930 . S
C635 C636 1.399 . S
C635 C640 1.399 . S
C636 C635 1.399 . S
C636 C637 1.376 . S
C637 H624 0.930 . S
C637 C636 1.376 . S
C637 C638 1.388 . S
C638 H625 0.930 . S
C638 C637 1.388 . S
C638 C639 1.390 . S
C639 C638 1.390 . S
C639 C640 1.394 . S
C639 C645 1.465 . S
C640 C635 1.399 . S
C640 C639 1.394 . S
C640 C641 1.516 . S
C641 C640 1.516 . S
C641 C642 1.502 . S
C641 C643 1.561 . S
C641 C644 1.526 . S
C642 H626 0.959 . S
C642 H627 0.959 . S
C642 H628 0.961 . S
C642 C641 1.502 . S
C643 H629 0.960 . S
C643 H630 0.961 . S
C643 H631 0.959 . S
C643 C641 1.561 . S
C644 C641 1.526 . S
C644 C645 1.396 . S
C644 C649 1.390 . S
C645 C639 1.465 . S
C645 C644 1.396 . S
C645 C646 1.399 . S
C646 H632 0.929 . S
C646 C645 1.399 . S
C646 C647 1.385 . S
C647 H633 0.931 . S
C647 C646 1.385 . S
C647 C648 1.389 . S
C648 C647 1.389 . S
C648 C649 1.387 . S
C649 H634 0.930 . S
C649 C644 1.390 . S
C649 C648 1.387 . S
H650 C662 0.930 . S
H651 C664 0.930 . S
H652 C665 0.930 . S
H653 C669 0.959 . S
H654 C669 0.959 . S
H655 C669 0.961 . S
H656 C670 0.960 . S
H657 C670 0.961 . S
H658 C670 0.959 . S
H659 C673 0.929 . S
H660 C674 0.931 . S
H661 C676 0.930 . S
C662 H650 0.930 . S
C662 C663 1.399 . S
C662 C667 1.399 . S
C663 C662 1.399 . S
C663 C664 1.376 . S
C664 H651 0.930 . S
C664 C663 1.376 . S
C664 C665 1.388 . S
C665 H652 0.930 . S
C665 C664 1.388 . S
C665 C666 1.390 . S
C666 C665 1.390 . S
C666 C667 1.394 . S
C666 C672 1.465 . S
C667 C662 1.399 . S
C667 C666 1.394 . S
C667 C668 1.516 . S
C668 C667 1.516 . S
C668 C669 1.502 . S
C668 C670 1.561 . S
C668 C671 1.526 . S
C669 H653 0.959 . S
C669 H654 0.959 . S
C669 H655 0.961 . S
C669 C668 1.502 . S
C670 H656 0.960 . S
C670 H657 0.961 . S
C670 H658 0.959 . S
C670 C668 1.561 . S
C671 C668 1.526 . S
C671 C672 1.396 . S
C671 C676 1.390 . S
C672 C666 1.465 . S
C672 C671 1.396 . S
C672 C673 1.399 . S
C673 H659 0.929 . S
C673 C672 1.399 . S
C673 C674 1.385 . S
C674 H660 0.931 . S
C674 C673 1.385 . S
C674 C675 1.389 . S
C675 C674 1.389 . S
C675 C676 1.387 . S
C676 H661 0.930 . S
C676 C671 1.390 . S
C676 C675 1.387 . S
H677 C689 0.930 . S
H678 C691 0.930 . S
H679 C692 0.930 . S
H680 C696 0.959 . S
H681 C696 0.959 . S
H682 C696 0.961 . S
H683 C697 0.960 . S
H684 C697 0.961 . S
H685 C697 0.959 . S
H686 C700 0.929 . S
H687 C701 0.931 . S
H688 C703 0.930 . S
C689 H677 0.930 . S
C689 C690 1.399 . S
C689 C694 1.399 . S
C690 C689 1.399 . S
C690 C691 1.376 . S
C691 H678 0.930 . S
C691 C690 1.376 . S
C691 C692 1.388 . S
C692 H679 0.930 . S
C692 C691 1.388 . S
C692 C693 1.390 . S
C693 C692 1.390 . S
C693 C694 1.394 . S
C693 C699 1.465 . S
C694 C689 1.399 . S
C694 C693 1.394 . S
C694 C695 1.516 . S
C695 C694 1.516 . S
C695 C696 1.502 . S
C695 C697 1.561 . S
C695 C698 1.526 . S
C696 H680 0.959 . S
C696 H681 0.959 . S
C696 H682 0.961 . S
C696 C695 1.502 . S
C697 H683 0.960 . S
C697 H684 0.961 . S
C697 H685 0.959 . S
C697 C695 1.561 . S
C698 C695 1.526 . S
C698 C699 1.396 . S
C698 C703 1.390 . S
C699 C693 1.465 . S
C699 C698 1.396 . S
C699 C700 1.399 . S
C700 H686 0.929 . S
C700 C699 1.399 . S
C700 C701 1.385 . S
C701 H687 0.931 . S
C701 C700 1.385 . S
C701 C702 1.389 . S
C702 C701 1.389 . S
C702 C703 1.387 . S
C703 H688 0.930 . S
C703 C698 1.390 . S
C703 C702 1.387 . S
H704 C716 0.930 . S
H705 C718 0.930 . S
H706 C719 0.930 . S
H707 C723 0.959 . S
H708 C723 0.959 . S
H709 C723 0.961 . S
H710 C724 0.960 . S
H711 C724 0.961 . S
H712 C724 0.959 . S
H713 C727 0.929 . S
H714 C728 0.931 . S
H715 C730 0.930 . S
C716 H704 0.930 . S
C716 C717 1.399 . S
C716 C721 1.399 . S
C717 C716 1.399 . S
C717 C718 1.376 . S
C718 H705 0.930 . S
C718 C717 1.376 . S
C718 C719 1.388 . S
C719 H706 0.930 . S
C719 C718 1.388 . S
C719 C720 1.390 . S
C720 C719 1.390 . S
C720 C721 1.394 . S
C720 C726 1.465 . S
C721 C716 1.399 . S
C721 C720 1.394 . S
C721 C722 1.516 . S
C722 C721 1.516 . S
C722 C723 1.502 . S
C722 C724 1.561 . S
C722 C725 1.526 . S
C723 H707 0.959 . S
C723 H708 0.959 . S
C723 H709 0.961 . S
C723 C722 1.502 . S
C724 H710 0.960 . S
C724 H711 0.961 . S
C724 H712 0.959 . S
C724 C722 1.561 . S
C725 C722 1.526 . S
C725 C726 1.396 . S
C725 C730 1.390 . S
C726 C720 1.465 . S
C726 C725 1.396 . S
C726 C727 1.399 . S
C727 H713 0.929 . S
C727 C726 1.399 . S
C727 C728 1.385 . S
C728 H714 0.931 . S
C728 C727 1.385 . S
C728 C729 1.389 . S
C729 C728 1.389 . S
C729 C730 1.387 . S
C730 H715 0.930 . S
C730 C725 1.390 . S
C730 C729 1.387 . S
H731 C743 0.930 . S
H732 C745 0.930 . S
H733 C746 0.930 . S
H734 C750 0.959 . S
H735 C750 0.959 . S
H736 C750 0.961 . S
H737 C751 0.960 . S
H738 C751 0.961 . S
H739 C751 0.959 . S
H740 C754 0.929 . S
H741 C755 0.931 . S
H742 C757 0.930 . S
C743 H731 0.930 . S
C743 C744 1.399 . S
C743 C748 1.399 . S
C744 C743 1.399 . S
C744 C745 1.376 . S
C745 H732 0.930 . S
C745 C744 1.376 . S
C745 C746 1.388 . S
C746 H733 0.930 . S
C746 C745 1.388 . S
C746 C747 1.390 . S
C747 C746 1.390 . S
C747 C748 1.394 . S
C747 C753 1.465 . S
C748 C743 1.399 . S
C748 C747 1.394 . S
C748 C749 1.516 . S
C749 C748 1.516 . S
C749 C750 1.502 . S
C749 C751 1.561 . S
C749 C752 1.526 . S
C750 H734 0.959 . S
C750 H735 0.959 . S
C750 H736 0.961 . S
C750 C749 1.502 . S
C751 H737 0.960 . S
C751 H738 0.961 . S
C751 H739 0.959 . S
C751 C749 1.561 . S
C752 C749 1.526 . S
C752 C753 1.396 . S
C752 C757 1.390 . S
C753 C747 1.465 . S
C753 C752 1.396 . S
C753 C754 1.399 . S
C754 H740 0.929 . S
C754 C753 1.399 . S
C754 C755 1.385 . S
C755 H741 0.931 . S
C755 C754 1.385 . S
C755 C756 1.389 . S
C756 C755 1.389 . S
C756 C757 1.387 . S
C757 H742 0.930 . S
C757 C752 1.390 . S
C757 C756 1.387 . S
H758 C770 0.930 . S
H759 C772 0.930 . S
H760 C773 0.930 . S
H761 C777 0.959 . S
H762 C777 0.959 . S
H763 C777 0.961 . S
H764 C778 0.960 . S
H765 C778 0.961 . S
H766 C778 0.959 . S
H767 C781 0.929 . S
H768 C782 0.931 . S
H769 C784 0.930 . S
C770 H758 0.930 . S
C770 C771 1.399 . S
C770 C775 1.399 . S
C771 C770 1.399 . S
C771 C772 1.376 . S
C772 H759 0.930 . S
C772 C771 1.376 . S
C772 C773 1.388 . S
C773 H760 0.930 . S
C773 C772 1.388 . S
C773 C774 1.390 . S
C774 C773 1.390 . S
C774 C775 1.394 . S
C774 C780 1.465 . S
C775 C770 1.399 . S
C775 C774 1.394 . S
C775 C776 1.516 . S
C776 C775 1.516 . S
C776 C777 1.502 . S
C776 C778 1.561 . S
C776 C779 1.526 . S
C777 H761 0.959 . S
C777 H762 0.959 . S
C777 H763 0.961 . S
C777 C776 1.502 . S
C778 H764 0.960 . S
C778 H765 0.961 . S
C778 H766 0.959 . S
C778 C776 1.561 . S
C779 C776 1.526 . S
C779 C780 1.396 . S
C779 C784 1.390 . S
C780 C774 1.465 . S
C780 C779 1.396 . S
C780 C781 1.399 . S
C781 H767 0.929 . S
C781 C780 1.399 . S
C781 C782 1.385 . S
C782 H768 0.931 . S
C782 C781 1.385 . S
C782 C783 1.389 . S
C783 C782 1.389 . S
C783 C784 1.387 . S
C784 H769 0.930 . S
C784 C779 1.390 . S
C784 C783 1.387 . S
H785 C797 0.930 . S
H786 C799 0.930 1_455 S
H787 C800 0.930 . S
H788 C804 0.959 . S
H789 C804 0.959 . S
H790 C804 0.961 . S
H791 C805 0.960 . S
H792 C805 0.961 . S
H793 C805 0.959 . S
H794 C808 0.929 . S
H795 C809 0.931 . S
H796 C811 0.930 . S
C797 H785 0.930 . S
C797 C798 1.399 . S
C797 C802 1.399 . S
C798 C797 1.399 . S
C798 C799 1.376 . S
C799 H786 0.930 1_655 S
C799 C798 1.376 . S
C799 C800 1.388 . S
C800 H787 0.930 . S
C800 C799 1.388 . S
C800 C801 1.390 . S
C801 C800 1.390 . S
C801 C802 1.394 . S
C801 C807 1.465 . S
C802 C797 1.399 . S
C802 C801 1.394 . S
C802 C803 1.516 . S
C803 C802 1.516 . S
C803 C804 1.502 . S
C803 C805 1.561 . S
C803 C806 1.526 . S
C804 H788 0.959 . S
C804 H789 0.959 . S
C804 H790 0.961 . S
C804 C803 1.502 . S
C805 H791 0.960 . S
C805 H792 0.961 . S
C805 H793 0.959 . S
C805 C803 1.561 . S
C806 C803 1.526 . S
C806 C807 1.396 . S
C806 C811 1.390 . S
C807 C801 1.465 . S
C807 C806 1.396 . S
C807 C808 1.399 . S
C808 H794 0.929 . S
C808 C807 1.399 . S
C808 C809 1.385 . S
C809 H795 0.931 . S
C809 C808 1.385 . S
C809 C810 1.389 . S
C810 C809 1.389 . S
C810 C811 1.387 . S
C811 H796 0.930 . S
C811 C806 1.390 . S
C811 C810 1.387 . S
H812 C824 0.930 . S
H813 C826 0.930 . S
H814 C827 0.930 . S
H815 C831 0.959 . S
H816 C831 0.959 . S
H817 C831 0.961 . S
H818 C832 0.960 . S
H819 C832 0.961 . S
H820 C832 0.959 . S
H821 C835 0.929 . S
H822 C836 0.931 . S
H823 C838 0.930 . S
C824 H812 0.930 . S
C824 C825 1.399 . S
C824 C829 1.399 . S
C825 C824 1.399 . S
C825 C826 1.376 . S
C826 H813 0.930 . S
C826 C825 1.376 . S
C826 C827 1.388 . S
C827 H814 0.930 . S
C827 C826 1.388 . S
C827 C828 1.390 . S
C828 C827 1.390 . S
C828 C829 1.394 . S
C828 C834 1.465 . S
C829 C824 1.399 . S
C829 C828 1.394 . S
C829 C830 1.516 . S
C830 C829 1.516 . S
C830 C831 1.502 . S
C830 C832 1.561 . S
C830 C833 1.526 . S
C831 H815 0.959 . S
C831 H816 0.959 . S
C831 H817 0.961 . S
C831 C830 1.502 . S
C832 H818 0.960 . S
C832 H819 0.961 . S
C832 H820 0.959 . S
C832 C830 1.561 . S
C833 C830 1.526 . S
C833 C834 1.396 . S
C833 C838 1.390 . S
C834 C828 1.465 . S
C834 C833 1.396 . S
C834 C835 1.399 . S
C835 H821 0.929 . S
C835 C834 1.399 . S
C835 C836 1.385 . S
C836 H822 0.931 . S
C836 C835 1.385 . S
C836 C837 1.389 . S
C837 C836 1.389 . S
C837 C838 1.387 . S
C838 H823 0.930 . S
C838 C833 1.390 . S
C838 C837 1.387 . S
H839 C851 0.930 . S
H840 C853 0.930 . S
H841 C854 0.930 . S
H842 C858 0.959 1_655 S
H843 C858 0.952 1_655 S
H844 C858 0.961 . S
H845 C859 0.960 1_455 S
H846 C859 0.961 . S
H847 C859 0.959 . S
H848 C862 0.929 . S
H849 C863 0.931 . S
H850 C865 0.930 . S
C851 H839 0.930 . S
C851 C852 1.399 . S
C851 C856 1.399 1_455 S
C852 C851 1.399 . S
C852 C853 1.376 1_455 S
C853 H840 0.930 . S
C853 C852 1.376 1_655 S
C853 C854 1.388 . S
C854 H841 0.930 . S
C854 C853 1.388 . S
C854 C855 1.390 . S
C855 C854 1.390 . S
C855 C856 1.394 . S
C855 C861 1.465 . S
C856 C851 1.399 1_655 S
C856 C855 1.394 . S
C856 C857 1.516 . S
C857 C856 1.516 . S
C857 C858 1.502 1_655 S
C857 C859 1.561 . S
C857 C860 1.526 . S
C858 H842 0.959 1_455 S
C858 H843 0.952 1_455 S
C858 H844 0.961 . S
C858 C857 1.502 1_455 S
C859 H845 0.960 1_655 S
C859 H846 0.961 . S
C859 H847 0.959 . S
C859 C857 1.561 . S
C860 C857 1.526 . S
C860 C861 1.396 . S
C860 C865 1.390 . S
C861 C855 1.465 . S
C861 C860 1.396 . S
C861 C862 1.399 . S
C862 H848 0.929 . S
C862 C861 1.399 . S
C862 C863 1.385 . S
C863 H849 0.931 . S
C863 C862 1.385 . S
C863 C864 1.389 . S
C864 C863 1.389 . S
C864 C865 1.387 . S
C865 H850 0.930 . S
C865 C860 1.390 . S
C865 C864 1.387 . S
H866 C878 0.930 . S
H867 C880 0.930 . S
H868 C881 0.930 . S
H869 C885 0.959 . S
H870 C885 0.959 . S
H871 C885 0.961 . S
H872 C886 0.960 . S
H873 C886 0.961 . S
H874 C886 0.959 . S
H875 C889 0.929 . S
H876 C890 0.931 . S
H877 C892 0.930 . S
C878 H866 0.930 . S
C878 C879 1.399 . S
C878 C883 1.399 . S
C879 C878 1.399 . S
C879 C880 1.376 . S
C880 H867 0.930 . S
C880 C879 1.376 . S
C880 C881 1.388 . S
C881 H868 0.930 . S
C881 C880 1.388 . S
C881 C882 1.390 . S
C882 C881 1.390 . S
C882 C883 1.394 . S
C882 C888 1.465 . S
C883 C878 1.399 . S
C883 C882 1.394 . S
C883 C884 1.516 . S
C884 C883 1.516 . S
C884 C885 1.502 . S
C884 C886 1.561 . S
C884 C887 1.526 . S
C885 H869 0.959 . S
C885 H870 0.959 . S
C885 H871 0.961 . S
C885 C884 1.502 . S
C886 H872 0.960 . S
C886 H873 0.961 . S
C886 H874 0.959 . S
C886 C884 1.561 . S
C887 C884 1.526 . S
C887 C888 1.396 . S
C887 C892 1.390 . S
C888 C882 1.465 . S
C888 C887 1.396 . S
C888 C889 1.399 . S
C889 H875 0.929 . S
C889 C888 1.399 . S
C889 C890 1.385 . S
C890 H876 0.931 . S
C890 C889 1.385 . S
C890 C891 1.389 . S
C891 C890 1.389 . S
C891 C892 1.387 . S
C892 H877 0.930 . S
C892 C887 1.390 . S
C892 C891 1.387 . S
H893 C905 0.930 . S
H894 C907 0.930 . S
H895 C908 0.930 . S
H896 C912 0.959 . S
H897 C912 0.959 . S
H898 C912 0.961 . S
H899 C913 0.960 . S
H900 C913 0.961 . S
H901 C913 0.959 . S
H902 C916 0.929 . S
H903 C917 0.931 . S
H904 C919 0.930 . S
C905 H893 0.930 . S
C905 C906 1.399 . S
C905 C910 1.399 . S
C906 C905 1.399 . S
C906 C907 1.376 . S
C907 H894 0.930 . S
C907 C906 1.376 . S
C907 C908 1.388 . S
C908 H895 0.930 . S
C908 C907 1.388 . S
C908 C909 1.390 . S
C909 C908 1.390 . S
C909 C910 1.394 . S
C909 C915 1.465 . S
C910 C905 1.399 . S
C910 C909 1.394 . S
C910 C911 1.516 . S
C911 C910 1.516 . S
C911 C912 1.502 . S
C911 C913 1.561 . S
C911 C914 1.526 . S
C912 H896 0.959 . S
C912 H897 0.959 . S
C912 H898 0.961 . S
C912 C911 1.502 . S
C913 H899 0.960 . S
C913 H900 0.961 . S
C913 H901 0.959 . S
C913 C911 1.561 . S
C914 C911 1.526 . S
C914 C915 1.396 . S
C914 C919 1.390 . S
C915 C909 1.465 . S
C915 C914 1.396 . S
C915 C916 1.399 . S
C916 H902 0.929 . S
C916 C915 1.399 . S
C916 C917 1.385 . S
C917 H903 0.931 . S
C917 C916 1.385 . S
C917 C918 1.389 . S
C918 C917 1.389 . S
C918 C919 1.387 . S
C919 H904 0.930 . S
C919 C914 1.390 . S
C919 C918 1.387 . S
H920 C932 0.930 . S
H921 C934 0.930 . S
H922 C935 0.930 . S
H923 C939 0.959 . S
H924 C939 0.959 . S
H925 C939 0.961 . S
H926 C940 0.960 . S
H927 C940 0.961 . S
H928 C940 0.959 . S
H929 C943 0.929 . S
H930 C944 0.931 . S
H931 C946 0.930 . S
C932 H920 0.930 . S
C932 C933 1.399 . S
C932 C937 1.399 . S
C933 C932 1.399 . S
C933 C934 1.376 . S
C934 H921 0.930 . S
C934 C933 1.376 . S
C934 C935 1.388 . S
C935 H922 0.930 . S
C935 C934 1.388 . S
C935 C936 1.390 . S
C936 C935 1.390 . S
C936 C937 1.394 . S
C936 C942 1.465 . S
C937 C932 1.399 . S
C937 C936 1.394 . S
C937 C938 1.516 . S
C938 C937 1.516 . S
C938 C939 1.502 . S
C938 C940 1.561 . S
C938 C941 1.526 . S
C939 H923 0.959 . S
C939 H924 0.959 . S
C939 H925 0.961 . S
C939 C938 1.502 . S
C940 H926 0.960 . S
C940 H927 0.961 . S
C940 H928 0.959 . S
C940 C938 1.561 . S
C941 C938 1.526 . S
C941 C942 1.396 . S
C941 C946 1.390 . S
C942 C936 1.465 . S
C942 C941 1.396 . S
C942 C943 1.399 . S
C943 H929 0.929 . S
C943 C942 1.399 . S
C943 C944 1.385 . S
C944 H930 0.931 . S
C944 C943 1.385 . S
C944 C945 1.389 . S
C945 C944 1.389 . S
C945 C946 1.387 . S
C946 H931 0.930 . S
C946 C941 1.390 . S
C946 C945 1.387 . S
H947 C959 0.930 . S
H948 C961 0.930 . S
H949 C962 0.930 . S
H950 C966 0.959 . S
H951 C966 0.959 . S
H952 C966 0.961 . S
H953 C967 0.960 . S
H954 C967 0.961 . S
H955 C967 0.959 . S
H956 C970 0.929 . S
H957 C971 0.931 . S
H958 C973 0.930 . S
C959 H947 0.930 . S
C959 C960 1.399 . S
C959 C964 1.399 . S
C960 C959 1.399 . S
C960 C961 1.376 . S
C961 H948 0.930 . S
C961 C960 1.376 . S
C961 C962 1.388 . S
C962 H949 0.930 . S
C962 C961 1.388 . S
C962 C963 1.390 . S
C963 C962 1.390 . S
C963 C964 1.394 . S
C963 C969 1.465 . S
C964 C959 1.399 . S
C964 C963 1.394 . S
C964 C965 1.516 . S
C965 C964 1.516 . S
C965 C966 1.502 . S
C965 C967 1.561 . S
C965 C968 1.526 . S
C966 H950 0.959 . S
C966 H951 0.959 . S
C966 H952 0.961 . S
C966 C965 1.502 . S
C967 H953 0.960 . S
C967 H954 0.961 . S
C967 H955 0.959 . S
C967 C965 1.561 . S
C968 C965 1.526 . S
C968 C969 1.396 . S
C968 C973 1.390 . S
C969 C963 1.465 . S
C969 C968 1.396 . S
C969 C970 1.399 . S
C970 H956 0.929 . S
C970 C969 1.399 . S
C970 C971 1.385 . S
C971 H957 0.931 . S
C971 C970 1.385 . S
C971 C972 1.389 . S
C972 C971 1.389 . S
C972 C973 1.387 . S
C973 H958 0.930 . S
C973 C968 1.390 . S
C973 C972 1.387 . S
H974 C986 0.930 . S
H975 C988 0.930 . S
H976 C989 0.930 . S
H977 C993 0.959 . S
H978 C993 0.959 . S
H979 C993 0.961 . S
H980 C994 0.960 . S
H981 C994 0.961 . S
H982 C994 0.959 . S
H983 C997 0.929 . S
H984 C998 0.931 . S
H985 C1000 0.930 . S
C986 H974 0.930 . S
C986 C987 1.399 . S
C986 C991 1.399 . S
C987 C986 1.399 . S
C987 C988 1.376 . S
C988 H975 0.930 . S
C988 C987 1.376 . S
C988 C989 1.388 . S
C989 H976 0.930 . S
C989 C988 1.388 . S
C989 C990 1.390 . S
C990 C989 1.390 . S
C990 C991 1.394 . S
C990 C996 1.465 . S
C991 C986 1.399 . S
C991 C990 1.394 . S
C991 C992 1.516 . S
C992 C991 1.516 . S
C992 C993 1.502 . S
C992 C994 1.561 . S
C992 C995 1.526 . S
C993 H977 0.959 . S
C993 H978 0.959 . S
C993 H979 0.961 . S
C993 C992 1.502 . S
C994 H980 0.960 . S
C994 H981 0.961 . S
C994 H982 0.959 . S
C994 C992 1.561 . S
C995 C992 1.526 . S
C995 C996 1.396 . S
C995 C1000 1.390 . S
C996 C990 1.465 . S
C996 C995 1.396 . S
C996 C997 1.399 . S
C997 H983 0.929 . S
C997 C996 1.399 . S
C997 C998 1.385 . S
C998 H984 0.931 . S
C998 C997 1.385 . S
C998 C999 1.389 . S
C999 C998 1.389 . S
C999 C1000 1.387 . S
C1000 H985 0.930 . S
C1000 C995 1.390 . S
C1000 C999 1.387 . S
H1001 C1013 0.930 . S
H1002 C1015 0.930 . S
H1003 C1016 0.930 . S
H1004 C1020 0.959 . S
H1005 C1020 0.959 . S
H1006 C1020 0.961 . S
H1007 C1021 0.960 . S
H1008 C1021 0.961 . S
H1009 C1021 0.959 . S
H1010 C1024 0.929 . S
H1011 C1025 0.931 . S
H1012 C1027 0.930 . S
C1013 H1001 0.930 . S
C1013 C1014 1.399 . S
C1013 C1018 1.399 . S
C1014 C1013 1.399 . S
C1014 C1015 1.376 . S
C1015 H1002 0.930 . S
C1015 C1014 1.376 . S
C1015 C1016 1.388 . S
C1016 H1003 0.930 . S
C1016 C1015 1.388 . S
C1016 C1017 1.390 . S
C1017 C1016 1.390 . S
C1017 C1018 1.394 . S
C1017 C1023 1.465 . S
C1018 C1013 1.399 . S
C1018 C1017 1.394 . S
C1018 C1019 1.516 . S
C1019 C1018 1.516 . S
C1019 C1020 1.502 . S
C1019 C1021 1.561 . S
C1019 C1022 1.526 . S
C1020 H1004 0.959 . S
C1020 H1005 0.959 . S
C1020 H1006 0.961 . S
C1020 C1019 1.502 . S
C1021 H1007 0.960 . S
C1021 H1008 0.961 . S
C1021 H1009 0.959 . S
C1021 C1019 1.561 . S
C1022 C1019 1.526 . S
C1022 C1023 1.396 . S
C1022 C1027 1.390 . S
C1023 C1017 1.465 . S
C1023 C1022 1.396 . S
C1023 C1024 1.399 . S
C1024 H1010 0.929 . S
C1024 C1023 1.399 . S
C1024 C1025 1.385 . S
C1025 H1011 0.931 . S
C1025 C1024 1.385 . S
C1025 C1026 1.389 . S
C1026 C1025 1.389 . S
C1026 C1027 1.387 . S
C1027 H1012 0.930 . S
C1027 C1022 1.390 . S
C1027 C1026 1.387 . S
H1028 C1040 0.930 . S
H1029 C1042 0.930 . S
H1030 C1043 0.930 . S
H1031 C1047 0.959 . S
H1032 C1047 0.959 . S
H1033 C1047 0.961 . S
H1034 C1048 0.960 . S
H1035 C1048 0.961 . S
H1036 C1048 0.959 . S
H1037 C1051 0.929 . S
H1038 C1052 0.931 . S
H1039 C1054 0.930 . S
C1040 H1028 0.930 . S
C1040 C1041 1.399 . S
C1040 C1045 1.399 . S
C1041 C1040 1.399 . S
C1041 C1042 1.376 . S
C1042 H1029 0.930 . S
C1042 C1041 1.376 . S
C1042 C1043 1.388 . S
C1043 H1030 0.930 . S
C1043 C1042 1.388 . S
C1043 C1044 1.390 . S
C1044 C1043 1.390 . S
C1044 C1045 1.394 . S
C1044 C1050 1.465 . S
C1045 C1040 1.399 . S
C1045 C1044 1.394 . S
C1045 C1046 1.516 . S
C1046 C1045 1.516 . S
C1046 C1047 1.502 . S
C1046 C1048 1.561 . S
C1046 C1049 1.526 . S
C1047 H1031 0.959 . S
C1047 H1032 0.959 . S
C1047 H1033 0.961 . S
C1047 C1046 1.502 . S
C1048 H1034 0.960 . S
C1048 H1035 0.961 . S
C1048 H1036 0.959 . S
C1048 C1046 1.561 . S
C1049 C1046 1.526 . S
C1049 C1050 1.396 . S
C1049 C1054 1.390 . S
C1050 C1044 1.465 . S
C1050 C1049 1.396 . S
C1050 C1051 1.399 . S
C1051 H1037 0.929 . S
C1051 C1050 1.399 . S
C1051 C1052 1.385 . S
C1052 H1038 0.931 . S
C1052 C1051 1.385 . S
C1052 C1053 1.389 . S
C1053 C1052 1.389 . S
C1053 C1054 1.387 . S
C1054 H1039 0.930 . S
C1054 C1049 1.390 . S
C1054 C1053 1.387 . S
H1055 C1067 0.930 . S
H1056 C1069 0.930 . S
H1057 C1070 0.930 . S
H1058 C1074 0.959 . S
H1059 C1074 0.959 . S
H1060 C1074 0.961 . S
H1061 C1075 0.960 . S
H1062 C1075 0.961 . S
H1063 C1075 0.959 . S
H1064 C1078 0.929 . S
H1065 C1079 0.931 . S
H1066 C1081 0.930 . S
C1067 H1055 0.930 . S
C1067 C1068 1.399 . S
C1067 C1072 1.399 . S
C1068 C1067 1.399 . S
C1068 C1069 1.376 . S
C1069 H1056 0.930 . S
C1069 C1068 1.376 . S
C1069 C1070 1.388 . S
C1070 H1057 0.930 . S
C1070 C1069 1.388 . S
C1070 C1071 1.390 . S
C1071 C1070 1.390 . S
C1071 C1072 1.394 . S
C1071 C1077 1.465 . S
C1072 C1067 1.399 . S
C1072 C1071 1.394 . S
C1072 C1073 1.516 . S
C1073 C1072 1.516 . S
C1073 C1074 1.502 . S
C1073 C1075 1.561 . S
C1073 C1076 1.526 . S
C1074 H1058 0.959 . S
C1074 H1059 0.959 . S
C1074 H1060 0.961 . S
C1074 C1073 1.502 . S
C1075 H1061 0.960 . S
C1075 H1062 0.961 . S
C1075 H1063 0.959 . S
C1075 C1073 1.561 . S
C1076 C1073 1.526 . S
C1076 C1077 1.396 . S
C1076 C1081 1.390 . S
C1077 C1071 1.465 . S
C1077 C1076 1.396 . S
C1077 C1078 1.399 . S
C1078 H1064 0.929 . S
C1078 C1077 1.399 . S
C1078 C1079 1.385 . S
C1079 H1065 0.931 . S
C1079 C1078 1.385 . S
C1079 C1080 1.389 . S
C1080 C1079 1.389 . S
C1080 C1081 1.387 . S
C1081 H1066 0.930 . S
C1081 C1076 1.390 . S
C1081 C1080 1.387 . S
H1082 C1094 0.930 . S
H1083 C1096 0.930 . S
H1084 C1097 0.930 . S
H1085 C1101 0.959 . S
H1086 C1101 0.959 . S
H1087 C1101 0.961 . S
H1088 C1102 0.960 . S
H1089 C1102 0.961 . S
H1090 C1102 0.959 . S
H1091 C1105 0.929 . S
H1092 C1106 0.931 . S
H1093 C1108 0.930 . S
C1094 H1082 0.930 . S
C1094 C1095 1.399 . S
C1094 C1099 1.399 . S
C1095 C1094 1.399 . S
C1095 C1096 1.376 . S
C1096 H1083 0.930 . S
C1096 C1095 1.376 . S
C1096 C1097 1.388 . S
C1097 H1084 0.930 . S
C1097 C1096 1.388 . S
C1097 C1098 1.390 . S
C1098 C1097 1.390 . S
C1098 C1099 1.394 . S
C1098 C1104 1.465 . S
C1099 C1094 1.399 . S
C1099 C1098 1.394 . S
C1099 C1100 1.516 . S
C1100 C1099 1.516 . S
C1100 C1101 1.502 . S
C1100 C1102 1.561 . S
C1100 C1103 1.526 . S
C1101 H1085 0.959 . S
C1101 H1086 0.959 . S
C1101 H1087 0.961 . S
C1101 C1100 1.502 . S
C1102 H1088 0.960 . S
C1102 H1089 0.961 . S
C1102 H1090 0.959 . S
C1102 C1100 1.561 . S
C1103 C1100 1.526 . S
C1103 C1104 1.396 . S
C1103 C1108 1.390 . S
C1104 C1098 1.465 . S
C1104 C1103 1.396 . S
C1104 C1105 1.399 . S
C1105 H1091 0.929 . S
C1105 C1104 1.399 . S
C1105 C1106 1.385 . S
C1106 H1092 0.931 . S
C1106 C1105 1.385 . S
C1106 C1107 1.389 . S
C1107 C1106 1.389 . S
C1107 C1108 1.387 . S
C1108 H1093 0.930 . S
C1108 C1103 1.390 . S
C1108 C1107 1.387 . S
H1109 C1121 0.930 . S
H1110 C1123 0.930 . S
H1111 C1124 0.930 . S
H1112 C1128 0.959 . S
H1113 C1128 0.959 . S
H1114 C1128 0.961 . S
H1115 C1129 0.960 . S
H1116 C1129 0.961 . S
H1117 C1129 0.959 . S
H1118 C1132 0.929 . S
H1119 C1133 0.931 . S
H1120 C1135 0.930 . S
C1121 H1109 0.930 . S
C1121 C1122 1.399 . S
C1121 C1126 1.399 1_455 S
C1122 C1121 1.399 . S
C1122 C1123 1.376 . S
C1123 H1110 0.930 . S
C1123 C1122 1.376 . S
C1123 C1124 1.388 . S
C1124 H1111 0.930 . S
C1124 C1123 1.388 . S
C1124 C1125 1.398 . S
C1125 C1124 1.398 . S
C1125 C1126 1.393 1_455 S
C1125 C1131 1.457 1_455 S
C1126 C1121 1.399 1_655 S
C1126 C1125 1.393 1_655 S
C1126 C1127 1.516 . S
C1127 C1126 1.516 . S
C1127 C1128 1.502 . S
C1127 C1129 1.561 . S
C1127 C1130 1.526 . S
C1128 H1112 0.959 . S
C1128 H1113 0.959 . S
C1128 H1114 0.961 . S
C1128 C1127 1.502 . S
C1129 H1115 0.960 . S
C1129 H1116 0.961 . S
C1129 H1117 0.959 . S
C1129 C1127 1.561 . S
C1130 C1127 1.526 . S
C1130 C1131 1.396 . S
C1130 C1135 1.390 . S
C1131 C1125 1.457 1_655 S
C1131 C1130 1.396 . S
C1131 C1132 1.399 . S
C1132 H1118 0.929 . S
C1132 C1131 1.399 . S
C1132 C1133 1.385 . S
C1133 H1119 0.931 . S
C1133 C1132 1.385 . S
C1133 C1134 1.389 . S
C1134 C1133 1.389 . S
C1134 C1135 1.387 . S
C1135 H1120 0.930 . S
C1135 C1130 1.390 . S
C1135 C1134 1.387 . S
H1136 C1148 0.930 . S
H1137 C1150 0.930 . S
H1138 C1151 0.930 . S
H1139 C1155 0.959 . S
H1140 C1155 0.959 . S
H1141 C1155 0.961 . S
H1142 C1156 0.960 . S
H1143 C1156 0.961 . S
H1144 C1156 0.959 . S
H1145 C1159 0.929 . S
H1146 C1160 0.931 . S
H1147 C1162 0.930 . S
C1148 H1136 0.930 . S
C1148 C1149 1.399 . S
C1148 C1153 1.399 . S
C1149 C1148 1.399 . S
C1149 C1150 1.376 . S
C1150 H1137 0.930 . S
C1150 C1149 1.376 . S
C1150 C1151 1.388 . S
C1151 H1138 0.930 . S
C1151 C1150 1.388 . S
C1151 C1152 1.390 . S
C1152 C1151 1.390 . S
C1152 C1153 1.394 . S
C1152 C1158 1.465 . S
C1153 C1148 1.399 . S
C1153 C1152 1.394 . S
C1153 C1154 1.516 . S
C1154 C1153 1.516 . S
C1154 C1155 1.502 . S
C1154 C1156 1.561 . S
C1154 C1157 1.526 . S
C1155 H1139 0.959 . S
C1155 H1140 0.959 . S
C1155 H1141 0.961 . S
C1155 C1154 1.502 . S
C1156 H1142 0.960 . S
C1156 H1143 0.961 . S
C1156 H1144 0.959 . S
C1156 C1154 1.561 . S
C1157 C1154 1.526 . S
C1157 C1158 1.396 . S
C1157 C1162 1.390 . S
C1158 C1152 1.465 . S
C1158 C1157 1.396 . S
C1158 C1159 1.399 . S
C1159 H1145 0.929 . S
C1159 C1158 1.399 . S
C1159 C1160 1.385 . S
C1160 H1146 0.931 . S
C1160 C1159 1.385 . S
C1160 C1161 1.389 . S
C1161 C1160 1.389 . S
C1161 C1162 1.387 . S
C1162 H1147 0.930 . S
C1162 C1157 1.390 . S
C1162 C1161 1.387 . S
H1163 C1175 0.930 . S
H1164 C1177 0.930 . S
H1165 C1178 0.930 . S
H1166 C1182 0.959 . S
H1167 C1182 0.959 . S
H1168 C1182 0.961 . S
H1169 C1183 0.960 . S
H1170 C1183 0.961 . S
H1171 C1183 0.959 . S
H1172 C1186 0.929 . S
H1173 C1187 0.931 . S
H1174 C1189 0.930 . S
C1175 H1163 0.930 . S
C1175 C1176 1.399 . S
C1175 C1180 1.399 . S
C1176 C1175 1.399 . S
C1176 C1177 1.376 . S
C1177 H1164 0.930 . S
C1177 C1176 1.376 . S
C1177 C1178 1.388 . S
C1178 H1165 0.930 . S
C1178 C1177 1.388 . S
C1178 C1179 1.390 . S
C1179 C1178 1.390 . S
C1179 C1180 1.394 . S
C1179 C1185 1.465 . S
C1180 C1175 1.399 . S
C1180 C1179 1.394 . S
C1180 C1181 1.516 . S
C1181 C1180 1.516 . S
C1181 C1182 1.502 . S
C1181 C1183 1.561 . S
C1181 C1184 1.526 . S
C1182 H1166 0.959 . S
C1182 H1167 0.959 . S
C1182 H1168 0.961 . S
C1182 C1181 1.502 . S
C1183 H1169 0.960 . S
C1183 H1170 0.961 . S
C1183 H1171 0.959 . S
C1183 C1181 1.561 . S
C1184 C1181 1.526 . S
C1184 C1185 1.396 . S
C1184 C1189 1.390 . S
C1185 C1179 1.465 . S
C1185 C1184 1.396 . S
C1185 C1186 1.399 . S
C1186 H1172 0.929 . S
C1186 C1185 1.399 . S
C1186 C1187 1.385 . S
C1187 H1173 0.931 . S
C1187 C1186 1.385 . S
C1187 C1188 1.389 . S
C1188 C1187 1.389 . S
C1188 C1189 1.387 . S
C1189 H1174 0.930 . S
C1189 C1184 1.390 . S
C1189 C1188 1.387 . S
H1190 C1202 0.930 . S
H1191 C1204 0.930 . S
H1192 C1205 0.930 . S
H1193 C1209 0.959 . S
H1194 C1209 0.959 . S
H1195 C1209 0.961 . S
H1196 C1210 0.960 . S
H1197 C1210 0.961 . S
H1198 C1210 0.959 . S
H1199 C1213 0.929 . S
H1200 C1214 0.931 . S
H1201 C1216 0.930 . S
C1202 H1190 0.930 . S
C1202 C1203 1.399 . S
C1202 C1207 1.399 . S
C1203 C1202 1.399 . S
C1203 C1204 1.376 . S
C1204 H1191 0.930 . S
C1204 C1203 1.376 . S
C1204 C1205 1.388 . S
C1205 H1192 0.930 . S
C1205 C1204 1.388 . S
C1205 C1206 1.390 . S
C1206 C1205 1.390 . S
C1206 C1207 1.394 . S
C1206 C1212 1.465 . S
C1207 C1202 1.399 . S
C1207 C1206 1.394 . S
C1207 C1208 1.516 . S
C1208 C1207 1.516 . S
C1208 C1209 1.502 . S
C1208 C1210 1.561 . S
C1208 C1211 1.526 . S
C1209 H1193 0.959 . S
C1209 H1194 0.959 . S
C1209 H1195 0.961 . S
C1209 C1208 1.502 . S
C1210 H1196 0.960 . S
C1210 H1197 0.961 . S
C1210 H1198 0.959 . S
C1210 C1208 1.561 . S
C1211 C1208 1.526 . S
C1211 C1212 1.396 . S
C1211 C1216 1.390 . S
C1212 C1206 1.465 . S
C1212 C1211 1.396 . S
C1212 C1213 1.399 . S
C1213 H1199 0.929 . S
C1213 C1212 1.399 . S
C1213 C1214 1.385 . S
C1214 H1200 0.931 . S
C1214 C1213 1.385 . S
C1214 C1215 1.389 . S
C1215 C1214 1.389 . S
C1215 C1216 1.387 . S
C1216 H1201 0.930 . S
C1216 C1211 1.390 . S
C1216 C1215 1.387 . S
H1217 C1229 0.930 . S
H1218 C1231 0.930 . S
H1219 C1232 0.930 . S
H1220 C1236 0.959 . S
H1221 C1236 0.959 . S
H1222 C1236 0.961 . S
H1223 C1237 0.960 . S
H1224 C1237 0.961 . S
H1225 C1237 0.959 . S
H1226 C1240 0.929 . S
H1227 C1241 0.931 . S
H1228 C1243 0.930 . S
C1229 H1217 0.930 . S
C1229 C1230 1.399 . S
C1229 C1234 1.399 . S
C1230 C1229 1.399 . S
C1230 C1231 1.376 . S
C1231 H1218 0.930 . S
C1231 C1230 1.376 . S
C1231 C1232 1.388 . S
C1232 H1219 0.930 . S
C1232 C1231 1.388 . S
C1232 C1233 1.390 . S
C1233 C1232 1.390 . S
C1233 C1234 1.394 . S
C1233 C1239 1.465 . S
C1234 C1229 1.399 . S
C1234 C1233 1.394 . S
C1234 C1235 1.516 . S
C1235 C1234 1.516 . S
C1235 C1236 1.502 . S
C1235 C1237 1.561 . S
C1235 C1238 1.526 . S
C1236 H1220 0.959 . S
C1236 H1221 0.959 . S
C1236 H1222 0.961 . S
C1236 C1235 1.502 . S
C1237 H1223 0.960 . S
C1237 H1224 0.961 . S
C1237 H1225 0.959 . S
C1237 C1235 1.561 . S
C1238 C1235 1.526 . S
C1238 C1239 1.396 . S
C1238 C1243 1.390 . S
C1239 C1233 1.465 . S
C1239 C1238 1.396 . S
C1239 C1240 1.399 . S
C1240 H1226 0.929 . S
C1240 C1239 1.399 . S
C1240 C1241 1.385 . S
C1241 H1227 0.931 . S
C1241 C1240 1.385 . S
C1241 C1242 1.389 . S
C1242 C1241 1.389 . S
C1242 C1243 1.387 . S
C1243 H1228 0.930 . S
C1243 C1238 1.390 . S
C1243 C1242 1.387 . S
H1244 C1256 0.930 . S
H1245 C1258 0.930 . S
H1246 C1259 0.930 . S
H1247 C1263 0.959 . S
H1248 C1263 0.959 . S
H1249 C1263 0.961 . S
H1250 C1264 0.960 . S
H1251 C1264 0.961 . S
H1252 C1264 0.959 . S
H1253 C1267 0.929 . S
H1254 C1268 0.931 . S
H1255 C1270 0.930 . S
C1256 H1244 0.930 . S
C1256 C1257 1.399 . S
C1256 C1261 1.399 . S
C1257 C1256 1.399 . S
C1257 C1258 1.376 . S
C1258 H1245 0.930 . S
C1258 C1257 1.376 . S
C1258 C1259 1.388 . S
C1259 H1246 0.930 . S
C1259 C1258 1.388 . S
C1259 C1260 1.390 . S
C1260 C1259 1.390 . S
C1260 C1261 1.394 . S
C1260 C1266 1.465 . S
C1261 C1256 1.399 . S
C1261 C1260 1.394 . S
C1261 C1262 1.516 . S
C1262 C1261 1.516 . S
C1262 C1263 1.502 . S
C1262 C1264 1.561 . S
C1262 C1265 1.526 . S
C1263 H1247 0.959 . S
C1263 H1248 0.959 . S
C1263 H1249 0.961 . S
C1263 C1262 1.502 . S
C1264 H1250 0.960 . S
C1264 H1251 0.961 . S
C1264 H1252 0.959 . S
C1264 C1262 1.561 . S
C1265 C1262 1.526 . S
C1265 C1266 1.396 . S
C1265 C1270 1.390 . S
C1266 C1260 1.465 . S
C1266 C1265 1.396 . S
C1266 C1267 1.399 . S
C1267 H1253 0.929 . S
C1267 C1266 1.399 . S
C1267 C1268 1.385 . S
C1268 H1254 0.931 . S
C1268 C1267 1.385 . S
C1268 C1269 1.389 . S
C1269 C1268 1.389 . S
C1269 C1270 1.387 . S
C1270 H1255 0.930 . S
C1270 C1265 1.390 . S
C1270 C1269 1.387 . S
H1271 C1283 0.930 . S
H1272 C1285 0.930 . S
H1273 C1286 0.930 . S
H1274 C1290 0.959 . S
H1275 C1290 0.959 . S
H1276 C1290 0.961 . S
H1277 C1291 0.960 . S
H1278 C1291 0.961 . S
H1279 C1291 0.959 . S
H1280 C1294 0.929 . S
H1281 C1295 0.931 . S
H1282 C1297 0.930 . S
C1283 H1271 0.930 . S
C1283 C1284 1.399 . S
C1283 C1288 1.399 . S
C1284 C1283 1.399 . S
C1284 C1285 1.376 . S
C1285 H1272 0.930 . S
C1285 C1284 1.376 . S
C1285 C1286 1.388 . S
C1286 H1273 0.930 . S
C1286 C1285 1.388 . S
C1286 C1287 1.390 . S
C1287 C1286 1.390 . S
C1287 C1288 1.394 . S
C1287 C1293 1.465 . S
C1288 C1283 1.399 . S
C1288 C1287 1.394 . S
C1288 C1289 1.516 . S
C1289 C1288 1.516 . S
C1289 C1290 1.502 . S
C1289 C1291 1.561 . S
C1289 C1292 1.526 . S
C1290 H1274 0.959 . S
C1290 H1275 0.959 . S
C1290 H1276 0.961 . S
C1290 C1289 1.502 . S
C1291 H1277 0.960 . S
C1291 H1278 0.961 . S
C1291 H1279 0.959 . S
C1291 C1289 1.561 . S
C1292 C1289 1.526 . S
C1292 C1293 1.396 . S
C1292 C1297 1.390 . S
C1293 C1287 1.465 . S
C1293 C1292 1.396 . S
C1293 C1294 1.399 . S
C1294 H1280 0.929 . S
C1294 C1293 1.399 . S
C1294 C1295 1.385 . S
C1295 H1281 0.931 . S
C1295 C1294 1.385 . S
C1295 C1296 1.389 . S
C1296 C1295 1.389 . S
C1296 C1297 1.387 . S
C1297 H1282 0.930 . S
C1297 C1292 1.390 . S
C1297 C1296 1.387 . S
H1298 C1310 0.930 . S
H1299 C1312 0.930 . S
H1300 C1313 0.930 . S
H1301 C1317 0.959 . S
H1302 C1317 0.959 . S
H1303 C1317 0.961 . S
H1304 C1318 0.960 . S
H1305 C1318 0.961 . S
H1306 C1318 0.959 . S
H1307 C1321 0.929 . S
H1308 C1322 0.931 . S
H1309 C1324 0.930 . S
C1310 H1298 0.930 . S
C1310 C1311 1.399 . S
C1310 C1315 1.399 . S
C1311 C1310 1.399 . S
C1311 C1312 1.376 . S
C1312 H1299 0.930 . S
C1312 C1311 1.376 . S
C1312 C1313 1.388 . S
C1313 H1300 0.930 . S
C1313 C1312 1.388 . S
C1313 C1314 1.390 . S
C1314 C1313 1.390 . S
C1314 C1315 1.394 . S
C1314 C1320 1.465 . S
C1315 C1310 1.399 . S
C1315 C1314 1.394 . S
C1315 C1316 1.516 . S
C1316 C1315 1.516 . S
C1316 C1317 1.502 . S
C1316 C1318 1.561 . S
C1316 C1319 1.526 . S
C1317 H1301 0.959 . S
C1317 H1302 0.959 . S
C1317 H1303 0.961 . S
C1317 C1316 1.502 . S
C1318 H1304 0.960 . S
C1318 H1305 0.961 . S
C1318 H1306 0.959 . S
C1318 C1316 1.561 . S
C1319 C1316 1.526 . S
C1319 C1320 1.396 . S
C1319 C1324 1.390 . S
C1320 C1314 1.465 . S
C1320 C1319 1.396 . S
C1320 C1321 1.399 . S
C1321 H1307 0.929 . S
C1321 C1320 1.399 . S
C1321 C1322 1.385 . S
C1322 H1308 0.931 . S
C1322 C1321 1.385 . S
C1322 C1323 1.389 . S
C1323 C1322 1.389 . S
C1323 C1324 1.387 . S
C1324 H1309 0.930 . S
C1324 C1319 1.390 . S
C1324 C1323 1.387 . S
H1325 C1337 0.930 . S
H1326 C1339 0.930 . S
H1327 C1340 0.930 . S
H1328 C1344 0.959 . S
H1329 C1344 0.959 . S
H1330 C1344 0.961 . S
H1331 C1345 0.960 . S
H1332 C1345 0.961 . S
H1333 C1345 0.959 . S
H1334 C1348 0.929 . S
H1335 C1349 0.931 . S
H1336 C1351 0.930 . S
C1337 H1325 0.930 . S
C1337 C1338 1.399 . S
C1337 C1342 1.399 . S
C1338 C1337 1.399 . S
C1338 C1339 1.376 . S
C1339 H1326 0.930 . S
C1339 C1338 1.376 . S
C1339 C1340 1.388 . S
C1340 H1327 0.930 . S
C1340 C1339 1.388 . S
C1340 C1341 1.390 . S
C1341 C1340 1.390 . S
C1341 C1342 1.394 . S
C1341 C1347 1.465 . S
C1342 C1337 1.399 . S
C1342 C1341 1.394 . S
C1342 C1343 1.516 . S
C1343 C1342 1.516 . S
C1343 C1344 1.502 . S
C1343 C1345 1.561 . S
C1343 C1346 1.526 . S
C1344 H1328 0.959 . S
C1344 H1329 0.959 . S
C1344 H1330 0.961 . S
C1344 C1343 1.502 . S
C1345 H1331 0.960 . S
C1345 H1332 0.961 . S
C1345 H1333 0.959 . S
C1345 C1343 1.561 . S
C1346 C1343 1.526 . S
C1346 C1347 1.396 . S
C1346 C1351 1.390 . S
C1347 C1341 1.465 . S
C1347 C1346 1.396 . S
C1347 C1348 1.399 . S
C1348 H1334 0.929 . S
C1348 C1347 1.399 . S
C1348 C1349 1.385 . S
C1349 H1335 0.931 . S
C1349 C1348 1.385 . S
C1349 C1350 1.389 . S
C1350 C1349 1.389 . S
C1350 C1351 1.387 . S
C1351 H1336 0.930 . S
C1351 C1346 1.390 . S
C1351 C1350 1.387 . S
H1352 C1364 0.930 . S
H1353 C1366 0.930 . S
H1354 C1367 0.930 . S
H1355 C1371 0.959 . S
H1356 C1371 0.959 . S
H1357 C1371 0.961 . S
H1358 C1372 0.960 . S
H1359 C1372 0.961 . S
H1360 C1372 0.959 . S
H1361 C1375 0.929 . S
H1362 C1376 0.931 . S
H1363 C1378 0.930 . S
C1364 H1352 0.930 . S
C1364 C1365 1.399 . S
C1364 C1369 1.399 . S
C1365 C1364 1.399 . S
C1365 C1366 1.376 . S
C1366 H1353 0.930 . S
C1366 C1365 1.376 . S
C1366 C1367 1.388 . S
C1367 H1354 0.930 . S
C1367 C1366 1.388 . S
C1367 C1368 1.390 . S
C1368 C1367 1.390 . S
C1368 C1369 1.394 . S
C1368 C1374 1.465 . S
C1369 C1364 1.399 . S
C1369 C1368 1.394 . S
C1369 C1370 1.516 . S
C1370 C1369 1.516 . S
C1370 C1371 1.502 . S
C1370 C1372 1.561 . S
C1370 C1373 1.526 . S
C1371 H1355 0.959 . S
C1371 H1356 0.959 . S
C1371 H1357 0.961 . S
C1371 C1370 1.502 . S
C1372 H1358 0.960 . S
C1372 H1359 0.961 . S
C1372 H1360 0.959 . S
C1372 C1370 1.561 . S
C1373 C1370 1.526 . S
C1373 C1374 1.396 . S
C1373 C1378 1.390 . S
C1374 C1368 1.465 . S
C1374 C1373 1.396 . S
C1374 C1375 1.399 . S
C1375 H1361 0.929 . S
C1375 C1374 1.399 . S
C1375 C1376 1.385 . S
C1376 H1362 0.931 . S
C1376 C1375 1.385 . S
C1376 C1377 1.389 . S
C1377 C1376 1.389 . S
C1377 C1378 1.387 . S
C1378 H1363 0.930 . S
C1378 C1373 1.390 . S
C1378 C1377 1.387 . S
H1379 C1391 0.930 . S
H1380 C1393 0.930 . S
H1381 C1394 0.930 . S
H1382 C1398 0.959 . S
H1383 C1398 0.959 . S
H1384 C1398 0.961 . S
H1385 C1399 0.960 . S
H1386 C1399 0.961 . S
H1387 C1399 0.959 . S
H1388 C1402 0.929 . S
H1389 C1403 0.931 . S
H1390 C1405 0.930 . S
C1391 H1379 0.930 . S
C1391 C1392 1.399 . S
C1391 C1396 1.399 . S
C1392 C1391 1.399 . S
C1392 C1393 1.376 . S
C1393 H1380 0.930 . S
C1393 C1392 1.376 . S
C1393 C1394 1.388 . S
C1394 H1381 0.930 . S
C1394 C1393 1.388 . S
C1394 C1395 1.390 . S
C1395 C1394 1.390 . S
C1395 C1396 1.394 . S
C1395 C1401 1.465 . S
C1396 C1391 1.399 . S
C1396 C1395 1.394 . S
C1396 C1397 1.516 . S
C1397 C1396 1.516 . S
C1397 C1398 1.502 . S
C1397 C1399 1.561 . S
C1397 C1400 1.526 . S
C1398 H1382 0.959 . S
C1398 H1383 0.959 . S
C1398 H1384 0.961 . S
C1398 C1397 1.502 . S
C1399 H1385 0.960 . S
C1399 H1386 0.961 . S
C1399 H1387 0.959 . S
C1399 C1397 1.561 . S
C1400 C1397 1.526 . S
C1400 C1401 1.396 . S
C1400 C1405 1.390 . S
C1401 C1395 1.465 . S
C1401 C1400 1.396 . S
C1401 C1402 1.399 . S
C1402 H1388 0.929 . S
C1402 C1401 1.399 . S
C1402 C1403 1.385 . S
C1403 H1389 0.931 . S
C1403 C1402 1.385 . S
C1403 C1404 1.389 . S
C1404 C1403 1.389 . S
C1404 C1405 1.387 . S
C1405 H1390 0.930 . S
C1405 C1400 1.390 . S
C1405 C1404 1.387 . S
H1406 C1418 0.930 . S
H1407 C1420 0.930 . S
H1408 C1421 0.930 . S
H1409 C1425 0.959 . S
H1410 C1425 0.959 . S
H1411 C1425 0.961 . S
H1412 C1426 0.960 . S
H1413 C1426 0.961 . S
H1414 C1426 0.959 . S
H1415 C1429 0.929 . S
H1416 C1430 0.931 . S
H1417 C1432 0.930 . S
C1418 H1406 0.930 . S
C1418 C1419 1.399 . S
C1418 C1423 1.399 . S
C1419 C1418 1.399 . S
C1419 C1420 1.376 . S
C1420 H1407 0.930 . S
C1420 C1419 1.376 . S
C1420 C1421 1.388 . S
C1421 H1408 0.930 . S
C1421 C1420 1.388 . S
C1421 C1422 1.390 . S
C1422 C1421 1.390 . S
C1422 C1423 1.394 . S
C1422 C1428 1.465 . S
C1423 C1418 1.399 . S
C1423 C1422 1.394 . S
C1423 C1424 1.516 . S
C1424 C1423 1.516 . S
C1424 C1425 1.502 . S
C1424 C1426 1.561 . S
C1424 C1427 1.526 . S
C1425 H1409 0.959 . S
C1425 H1410 0.959 . S
C1425 H1411 0.961 . S
C1425 C1424 1.502 . S
C1426 H1412 0.960 . S
C1426 H1413 0.961 . S
C1426 H1414 0.959 . S
C1426 C1424 1.561 . S
C1427 C1424 1.526 . S
C1427 C1428 1.396 . S
C1427 C1432 1.390 . S
C1428 C1422 1.465 . S
C1428 C1427 1.396 . S
C1428 C1429 1.399 . S
C1429 H1415 0.929 . S
C1429 C1428 1.399 . S
C1429 C1430 1.385 . S
C1430 H1416 0.931 . S
C1430 C1429 1.385 . S
C1430 C1431 1.389 . S
C1431 C1430 1.389 . S
C1431 C1432 1.387 . S
C1432 H1417 0.930 . S
C1432 C1427 1.390 . S
C1432 C1431 1.387 . S
H1433 C1445 0.930 . S
H1434 C1447 0.930 . S
H1435 C1448 0.930 . S
H1436 C1452 0.959 . S
H1437 C1452 0.959 . S
H1438 C1452 0.961 . S
H1439 C1453 0.960 . S
H1440 C1453 0.961 . S
H1441 C1453 0.959 . S
H1442 C1456 0.929 . S
H1443 C1457 0.931 . S
H1444 C1459 0.930 . S
C1445 H1433 0.930 . S
C1445 C1446 1.399 . S
C1445 C1450 1.399 . S
C1446 C1445 1.399 . S
C1446 C1447 1.376 . S
C1447 H1434 0.930 . S
C1447 C1446 1.376 . S
C1447 C1448 1.388 . S
C1448 H1435 0.930 . S
C1448 C1447 1.388 . S
C1448 C1449 1.390 . S
C1449 C1448 1.390 . S
C1449 C1450 1.394 . S
C1449 C1455 1.465 . S
C1450 C1445 1.399 . S
C1450 C1449 1.394 . S
C1450 C1451 1.516 . S
C1451 C1450 1.516 . S
C1451 C1452 1.502 . S
C1451 C1453 1.561 . S
C1451 C1454 1.526 . S
C1452 H1436 0.959 . S
C1452 H1437 0.959 . S
C1452 H1438 0.961 . S
C1452 C1451 1.502 . S
C1453 H1439 0.960 . S
C1453 H1440 0.961 . S
C1453 H1441 0.959 . S
C1453 C1451 1.561 . S
C1454 C1451 1.526 . S
C1454 C1455 1.396 . S
C1454 C1459 1.390 . S
C1455 C1449 1.465 . S
C1455 C1454 1.396 . S
C1455 C1456 1.399 . S
C1456 H1442 0.929 . S
C1456 C1455 1.399 . S
C1456 C1457 1.385 . S
C1457 H1443 0.931 . S
C1457 C1456 1.385 . S
C1457 C1458 1.389 . S
C1458 C1457 1.389 . S
C1458 C1459 1.387 . S
C1459 H1444 0.930 . S
C1459 C1454 1.390 . S
C1459 C1458 1.387 . S
H1460 C1472 0.930 . S
H1461 C1474 0.930 . S
H1462 C1475 0.930 . S
H1463 C1479 0.959 . S
H1464 C1479 0.959 . S
H1465 C1479 0.961 . S
H1466 C1480 0.960 . S
H1467 C1480 0.961 . S
H1468 C1480 0.959 . S
H1469 C1483 0.929 . S
H1470 C1484 0.931 . S
H1471 C1486 0.930 . S
C1472 H1460 0.930 . S
C1472 C1473 1.399 . S
C1472 C1477 1.399 . S
C1473 C1472 1.399 . S
C1473 C1474 1.376 . S
C1474 H1461 0.930 . S
C1474 C1473 1.376 . S
C1474 C1475 1.388 . S
C1475 H1462 0.930 . S
C1475 C1474 1.388 . S
C1475 C1476 1.390 . S
C1476 C1475 1.390 . S
C1476 C1477 1.394 . S
C1476 C1482 1.465 . S
C1477 C1472 1.399 . S
C1477 C1476 1.394 . S
C1477 C1478 1.516 . S
C1478 C1477 1.516 . S
C1478 C1479 1.502 . S
C1478 C1480 1.561 . S
C1478 C1481 1.526 . S
C1479 H1463 0.959 . S
C1479 H1464 0.959 . S
C1479 H1465 0.961 . S
C1479 C1478 1.502 . S
C1480 H1466 0.960 . S
C1480 H1467 0.961 . S
C1480 H1468 0.959 . S
C1480 C1478 1.561 . S
C1481 C1478 1.526 . S
C1481 C1482 1.396 . S
C1481 C1486 1.390 . S
C1482 C1476 1.465 . S
C1482 C1481 1.396 . S
C1482 C1483 1.399 . S
C1483 H1469 0.929 . S
C1483 C1482 1.399 . S
C1483 C1484 1.385 . S
C1484 H1470 0.931 . S
C1484 C1483 1.385 . S
C1484 C1485 1.389 . S
C1485 C1484 1.389 . S
C1485 C1486 1.387 . S
C1486 H1471 0.930 . S
C1486 C1481 1.390 . S
C1486 C1485 1.387 . S
H1487 C1499 0.930 . S
H1488 C1501 0.930 . S
H1489 C1502 0.930 . S
H1490 C1506 0.959 . S
H1491 C1506 0.959 . S
H1492 C1506 0.961 . S
H1493 C1507 0.960 . S
H1494 C1507 0.961 . S
H1495 C1507 0.959 . S
H1496 C1510 0.929 . S
H1497 C1511 0.931 . S
H1498 C1513 0.930 . S
C1499 H1487 0.930 . S
C1499 C1500 1.399 . S
C1499 C1504 1.399 . S
C1500 C1499 1.399 . S
C1500 C1501 1.376 . S
C1501 H1488 0.930 . S
C1501 C1500 1.376 . S
C1501 C1502 1.388 . S
C1502 H1489 0.930 . S
C1502 C1501 1.388 . S
C1502 C1503 1.390 . S
C1503 C1502 1.390 . S
C1503 C1504 1.394 . S
C1503 C1509 1.465 . S
C1504 C1499 1.399 . S
C1504 C1503 1.394 . S
C1504 C1505 1.516 . S
C1505 C1504 1.516 . S
C1505 C1506 1.502 . S
C1505 C1507 1.561 . S
C1505 C1508 1.526 . S
C1506 H1490 0.959 . S
C1506 H1491 0.959 . S
C1506 H1492 0.961 . S
C1506 C1505 1.502 . S
C1507 H1493 0.960 . S
C1507 H1494 0.961 . S
C1507 H1495 0.959 . S
C1507 C1505 1.561 . S
C1508 C1505 1.526 . S
C1508 C1509 1.396 . S
C1508 C1513 1.390 . S
C1509 C1503 1.465 . S
C1509 C1508 1.396 . S
C1509 C1510 1.399 . S
C1510 H1496 0.929 . S
C1510 C1509 1.399 . S
C1510 C1511 1.385 . S
C1511 H1497 0.931 . S
C1511 C1510 1.385 . S
C1511 C1512 1.389 . S
C1512 C1511 1.389 . S
C1512 C1513 1.387 . S
C1513 H1498 0.930 . S
C1513 C1508 1.390 . S
C1513 C1512 1.387 . S
H1514 C1526 0.930 . S
H1515 C1528 0.930 . S
H1516 C1529 0.930 . S
H1517 C1533 0.959 . S
H1518 C1533 0.959 . S
H1519 C1533 0.961 . S
H1520 C1534 0.960 . S
H1521 C1534 0.961 . S
H1522 C1534 0.959 . S
H1523 C1537 0.929 . S
H1524 C1538 0.931 . S
H1525 C1540 0.930 . S
C1526 H1514 0.930 . S
C1526 C1527 1.399 . S
C1526 C1531 1.399 . S
C1527 C1526 1.399 . S
C1527 C1528 1.376 . S
C1528 H1515 0.930 . S
C1528 C1527 1.376 . S
C1528 C1529 1.388 . S
C1529 H1516 0.930 . S
C1529 C1528 1.388 . S
C1529 C1530 1.390 . S
C1530 C1529 1.390 . S
C1530 C1531 1.394 . S
C1530 C1536 1.465 . S
C1531 C1526 1.399 . S
C1531 C1530 1.394 . S
C1531 C1532 1.516 . S
C1532 C1531 1.516 . S
C1532 C1533 1.502 . S
C1532 C1534 1.561 . S
C1532 C1535 1.526 . S
C1533 H1517 0.959 . S
C1533 H1518 0.959 . S
C1533 H1519 0.961 . S
C1533 C1532 1.502 . S
C1534 H1520 0.960 . S
C1534 H1521 0.961 . S
C1534 H1522 0.959 . S
C1534 C1532 1.561 . S
C1535 C1532 1.526 . S
C1535 C1536 1.396 . S
C1535 C1540 1.390 . S
C1536 C1530 1.465 . S
C1536 C1535 1.396 . S
C1536 C1537 1.399 . S
C1537 H1523 0.929 . S
C1537 C1536 1.399 . S
C1537 C1538 1.385 . S
C1538 H1524 0.931 . S
C1538 C1537 1.385 . S
C1538 C1539 1.389 . S
C1539 C1538 1.389 . S
C1539 C1540 1.387 . S
C1540 H1525 0.930 . S
C1540 C1535 1.390 . S
C1540 C1539 1.387 . S
H1541 C1553 0.930 . S
H1542 C1555 0.930 . S
H1543 C1556 0.930 . S
H1544 C1560 0.959 . S
H1545 C1560 0.959 . S
H1546 C1560 0.961 . S
H1547 C1561 0.960 . S
H1548 C1561 0.961 . S
H1549 C1561 0.959 . S
H1550 C1564 0.929 . S
H1551 C1565 0.931 . S
H1552 C1567 0.930 . S
C1553 H1541 0.930 . S
C1553 C1554 1.399 . S
C1553 C1558 1.399 . S
C1554 C1553 1.399 . S
C1554 C1555 1.376 . S
C1555 H1542 0.930 . S
C1555 C1554 1.376 . S
C1555 C1556 1.388 . S
C1556 H1543 0.930 . S
C1556 C1555 1.388 . S
C1556 C1557 1.390 . S
C1557 C1556 1.390 . S
C1557 C1558 1.394 . S
C1557 C1563 1.465 . S
C1558 C1553 1.399 . S
C1558 C1557 1.394 . S
C1558 C1559 1.516 . S
C1559 C1558 1.516 . S
C1559 C1560 1.502 . S
C1559 C1561 1.561 . S
C1559 C1562 1.526 . S
C1560 H1544 0.959 . S
C1560 H1545 0.959 . S
C1560 H1546 0.961 . S
C1560 C1559 1.502 . S
C1561 H1547 0.960 . S
C1561 H1548 0.961 . S
C1561 H1549 0.959 . S
C1561 C1559 1.561 . S
C1562 C1559 1.526 . S
C1562 C1563 1.396 . S
C1562 C1567 1.390 . S
C1563 C1557 1.465 . S
C1563 C1562 1.396 . S
C1563 C1564 1.399 . S
C1564 H1550 0.929 . S
C1564 C1563 1.399 . S
C1564 C1565 1.385 . S
C1565 H1551 0.931 . S
C1565 C1564 1.385 . S
C1565 C1566 1.389 . S
C1566 C1565 1.389 . S
C1566 C1567 1.387 . S
C1567 H1552 0.930 . S
C1567 C1562 1.390 . S
C1567 C1566 1.387 . S
H1568 C1580 0.930 . S
H1569 C1582 0.930 . S
H1570 C1583 0.930 . S
H1571 C1587 0.959 . S
H1572 C1587 0.959 . S
H1573 C1587 0.961 . S
H1574 C1588 0.960 . S
H1575 C1588 0.961 . S
H1576 C1588 0.959 . S
H1577 C1591 0.929 . S
H1578 C1592 0.931 . S
H1579 C1594 0.930 . S
C1580 H1568 0.930 . S
C1580 C1581 1.399 . S
C1580 C1585 1.399 . S
C1581 C1580 1.399 . S
C1581 C1582 1.376 . S
C1582 H1569 0.930 . S
C1582 C1581 1.376 . S
C1582 C1583 1.388 . S
C1583 H1570 0.930 . S
C1583 C1582 1.388 . S
C1583 C1584 1.390 . S
C1584 C1583 1.390 . S
C1584 C1585 1.394 . S
C1584 C1590 1.465 . S
C1585 C1580 1.399 . S
C1585 C1584 1.394 . S
C1585 C1586 1.516 . S
C1586 C1585 1.516 . S
C1586 C1587 1.502 . S
C1586 C1588 1.561 . S
C1586 C1589 1.526 . S
C1587 H1571 0.959 . S
C1587 H1572 0.959 . S
C1587 H1573 0.961 . S
C1587 C1586 1.502 . S
C1588 H1574 0.960 . S
C1588 H1575 0.961 . S
C1588 H1576 0.959 . S
C1588 C1586 1.561 . S
C1589 C1586 1.526 . S
C1589 C1590 1.396 . S
C1589 C1594 1.390 . S
C1590 C1584 1.465 . S
C1590 C1589 1.396 . S
C1590 C1591 1.399 . S
C1591 H1577 0.929 . S
C1591 C1590 1.399 . S
C1591 C1592 1.385 . S
C1592 H1578 0.931 . S
C1592 C1591 1.385 . S
C1592 C1593 1.389 . S
C1593 C1592 1.389 . S
C1593 C1594 1.387 . S
C1594 H1579 0.930 . S
C1594 C1589 1.390 . S
C1594 C1593 1.387 . S
H1595 C1607 0.930 . S
H1596 C1609 0.930 . S
H1597 C1610 0.930 . S
H1598 C1614 0.959 . S
H1599 C1614 0.959 . S
H1600 C1614 0.961 . S
H1601 C1615 0.960 . S
H1602 C1615 0.961 . S
H1603 C1615 0.959 . S
H1604 C1618 0.929 . S
H1605 C1619 0.931 . S
H1606 C1621 0.930 . S
C1607 H1595 0.930 . S
C1607 C1608 1.399 . S
C1607 C1612 1.399 . S
C1608 C1607 1.399 . S
C1608 C1609 1.376 . S
C1609 H1596 0.930 . S
C1609 C1608 1.376 . S
C1609 C1610 1.388 . S
C1610 H1597 0.930 . S
C1610 C1609 1.388 . S
C1610 C1611 1.390 . S
C1611 C1610 1.390 . S
C1611 C1612 1.394 . S
C1611 C1617 1.465 . S
C1612 C1607 1.399 . S
C1612 C1611 1.394 . S
C1612 C1613 1.516 . S
C1613 C1612 1.516 . S
C1613 C1614 1.502 . S
C1613 C1615 1.561 . S
C1613 C1616 1.526 . S
C1614 H1598 0.959 . S
C1614 H1599 0.959 . S
C1614 H1600 0.961 . S
C1614 C1613 1.502 . S
C1615 H1601 0.960 . S
C1615 H1602 0.961 . S
C1615 H1603 0.959 . S
C1615 C1613 1.561 . S
C1616 C1613 1.526 . S
C1616 C1617 1.396 . S
C1616 C1621 1.390 . S
C1617 C1611 1.465 . S
C1617 C1616 1.396 . S
C1617 C1618 1.399 . S
C1618 H1604 0.929 . S
C1618 C1617 1.399 . S
C1618 C1619 1.385 . S
C1619 H1605 0.931 . S
C1619 C1618 1.385 . S
C1619 C1620 1.389 . S
C1620 C1619 1.389 . S
C1620 C1621 1.387 . S
C1621 H1606 0.930 . S
C1621 C1616 1.390 . S
C1621 C1620 1.387 . S
H1622 C1634 0.930 . S
H1623 C1636 0.930 . S
H1624 C1637 0.930 . S
H1625 C1641 0.959 . S
H1626 C1641 0.959 . S
H1627 C1641 0.961 . S
H1628 C1642 0.960 . S
H1629 C1642 0.961 . S
H1630 C1642 0.959 . S
H1631 C1645 0.929 . S
H1632 C1646 0.931 . S
H1633 C1648 0.930 . S
C1634 H1622 0.930 . S
C1634 C1635 1.399 . S
C1634 C1639 1.399 . S
C1635 C1634 1.399 . S
C1635 C1636 1.376 . S
C1636 H1623 0.930 . S
C1636 C1635 1.376 . S
C1636 C1637 1.388 . S
C1637 H1624 0.930 . S
C1637 C1636 1.388 . S
C1637 C1638 1.390 . S
C1638 C1637 1.390 . S
C1638 C1639 1.394 . S
C1638 C1644 1.465 . S
C1639 C1634 1.399 . S
C1639 C1638 1.394 . S
C1639 C1640 1.516 . S
C1640 C1639 1.516 . S
C1640 C1641 1.502 . S
C1640 C1642 1.561 . S
C1640 C1643 1.526 . S
C1641 H1625 0.959 . S
C1641 H1626 0.959 . S
C1641 H1627 0.961 . S
C1641 C1640 1.502 . S
C1642 H1628 0.960 . S
C1642 H1629 0.961 . S
C1642 H1630 0.959 . S
C1642 C1640 1.561 . S
C1643 C1640 1.526 . S
C1643 C1644 1.396 . S
C1643 C1648 1.390 . S
C1644 C1638 1.465 . S
C1644 C1643 1.396 . S
C1644 C1645 1.399 . S
C1645 H1631 0.929 . S
C1645 C1644 1.399 . S
C1645 C1646 1.385 . S
C1646 H1632 0.931 . S
C1646 C1645 1.385 . S
C1646 C1647 1.389 . S
C1647 C1646 1.389 . S
C1647 C1648 1.387 . S
C1648 H1633 0.930 . S
C1648 C1643 1.390 . S
C1648 C1647 1.387 . S
H1649 C1661 0.930 . S
H1650 C1663 0.930 . S
H1651 C1664 0.930 . S
H1652 C1668 0.959 . S
H1653 C1668 0.959 . S
H1654 C1668 0.961 . S
H1655 C1669 0.960 . S
H1656 C1669 0.961 . S
H1657 C1669 0.959 . S
H1658 C1672 0.929 . S
H1659 C1673 0.931 . S
H1660 C1675 0.930 . S
C1661 H1649 0.930 . S
C1661 C1662 1.399 . S
C1661 C1666 1.399 . S
C1662 C1661 1.399 . S
C1662 C1663 1.376 . S
C1663 H1650 0.930 . S
C1663 C1662 1.376 . S
C1663 C1664 1.388 . S
C1664 H1651 0.930 . S
C1664 C1663 1.388 . S
C1664 C1665 1.390 . S
C1665 C1664 1.390 . S
C1665 C1666 1.394 . S
C1665 C1671 1.465 . S
C1666 C1661 1.399 . S
C1666 C1665 1.394 . S
C1666 C1667 1.516 . S
C1667 C1666 1.516 . S
C1667 C1668 1.502 . S
C1667 C1669 1.561 . S
C1667 C1670 1.526 . S
C1668 H1652 0.959 . S
C1668 H1653 0.959 . S
C1668 H1654 0.961 . S
C1668 C1667 1.502 . S
C1669 H1655 0.960 . S
C1669 H1656 0.961 . S
C1669 H1657 0.959 . S
C1669 C1667 1.561 . S
C1670 C1667 1.526 . S
C1670 C1671 1.396 . S
C1670 C1675 1.390 . S
C1671 C1665 1.465 . S
C1671 C1670 1.396 . S
C1671 C1672 1.399 . S
C1672 H1658 0.929 . S
C1672 C1671 1.399 . S
C1672 C1673 1.385 . S
C1673 H1659 0.931 . S
C1673 C1672 1.385 . S
C1673 C1674 1.389 . S
C1674 C1673 1.389 . S
C1674 C1675 1.387 . S
C1675 H1660 0.930 . S
C1675 C1670 1.390 . S
C1675 C1674 1.387 . S
H1676 C1688 0.930 . S
H1677 C1690 0.930 . S
H1678 C1691 0.930 . S
H1679 C1695 0.959 . S
H1680 C1695 0.959 . S
H1681 C1695 0.961 . S
H1682 C1696 0.960 . S
H1683 C1696 0.961 . S
H1684 C1696 0.959 . S
H1685 C1699 0.929 . S
H1686 C1700 0.931 . S
H1687 C1702 0.930 . S
C1688 H1676 0.930 . S
C1688 C1689 1.399 . S
C1688 C1693 1.399 . S
C1689 C1688 1.399 . S
C1689 C1690 1.376 . S
C1690 H1677 0.930 . S
C1690 C1689 1.376 . S
C1690 C1691 1.388 . S
C1691 H1678 0.930 . S
C1691 C1690 1.388 . S
C1691 C1692 1.390 . S
C1692 C1691 1.390 . S
C1692 C1693 1.394 . S
C1692 C1698 1.465 . S
C1693 C1688 1.399 . S
C1693 C1692 1.394 . S
C1693 C1694 1.516 . S
C1694 C1693 1.516 . S
C1694 C1695 1.502 . S
C1694 C1696 1.561 . S
C1694 C1697 1.526 . S
C1695 H1679 0.959 . S
C1695 H1680 0.959 . S
C1695 H1681 0.961 . S
C1695 C1694 1.502 . S
C1696 H1682 0.960 . S
C1696 H1683 0.961 . S
C1696 H1684 0.959 . S
C1696 C1694 1.561 . S
C1697 C1694 1.526 . S
C1697 C1698 1.396 . S
C1697 C1702 1.390 . S
C1698 C1692 1.465 . S
C1698 C1697 1.396 . S
C1698 C1699 1.399 . S
C1699 H1685 0.929 . S
C1699 C1698 1.399 . S
C1699 C1700 1.385 . S
C1700 H1686 0.931 . S
C1700 C1699 1.385 . S
C1700 C1701 1.389 . S
C1701 C1700 1.389 . S
C1701 C1702 1.387 . S
C1702 H1687 0.930 . S
C1702 C1697 1.390 . S
C1702 C1701 1.387 . S
H1703 C1715 0.930 . S
H1704 C1717 0.930 . S
H1705 C1718 0.930 . S
H1706 C1722 0.959 . S
H1707 C1722 0.959 . S
H1708 C1722 0.961 . S
H1709 C1723 0.960 . S
H1710 C1723 0.961 . S
H1711 C1723 0.959 . S
H1712 C1726 0.929 . S
H1713 C1727 0.931 . S
H1714 C1729 0.930 . S
C1715 H1703 0.930 . S
C1715 C1716 1.399 . S
C1715 C1720 1.399 . S
C1716 C1715 1.399 . S
C1716 C1717 1.376 . S
C1717 H1704 0.930 . S
C1717 C1716 1.376 . S
C1717 C1718 1.388 . S
C1718 H1705 0.930 . S
C1718 C1717 1.388 . S
C1718 C1719 1.390 . S
C1719 C1718 1.390 . S
C1719 C1720 1.394 . S
C1719 C1725 1.465 . S
C1720 C1715 1.399 . S
C1720 C1719 1.394 . S
C1720 C1721 1.516 . S
C1721 C1720 1.516 . S
C1721 C1722 1.502 . S
C1721 C1723 1.561 . S
C1721 C1724 1.526 . S
C1722 H1706 0.959 . S
C1722 H1707 0.959 . S
C1722 H1708 0.961 . S
C1722 C1721 1.502 . S
C1723 H1709 0.960 . S
C1723 H1710 0.961 . S
C1723 H1711 0.959 . S
C1723 C1721 1.561 . S
C1724 C1721 1.526 . S
C1724 C1725 1.396 . S
C1724 C1729 1.390 . S
C1725 C1719 1.465 . S
C1725 C1724 1.396 . S
C1725 C1726 1.399 . S
C1726 H1712 0.929 . S
C1726 C1725 1.399 . S
C1726 C1727 1.385 . S
C1727 H1713 0.931 . S
C1727 C1726 1.385 . S
C1727 C1728 1.389 . S
C1728 C1727 1.389 . S
C1728 C1729 1.387 . S
C1729 H1714 0.930 . S
C1729 C1724 1.390 . S
C1729 C1728 1.387 . S
H1730 C1742 0.930 . S
H1731 C1744 0.930 . S
H1732 C1745 0.930 . S
H1733 C1749 0.959 . S
H1734 C1749 0.959 . S
H1735 C1749 0.961 . S
H1736 C1750 0.960 . S
H1737 C1750 0.961 . S
H1738 C1750 0.959 . S
H1739 C1753 0.929 . S
H1740 C1754 0.931 . S
H1741 C1756 0.930 . S
C1742 H1730 0.930 . S
C1742 C1743 1.399 . S
C1742 C1747 1.399 . S
C1743 C1742 1.399 . S
C1743 C1744 1.376 . S
C1744 H1731 0.930 . S
C1744 C1743 1.376 . S
C1744 C1745 1.388 . S
C1745 H1732 0.930 . S
C1745 C1744 1.388 . S
C1745 C1746 1.390 . S
C1746 C1745 1.390 . S
C1746 C1747 1.394 . S
C1746 C1752 1.465 . S
C1747 C1742 1.399 . S
C1747 C1746 1.394 . S
C1747 C1748 1.516 . S
C1748 C1747 1.516 . S
C1748 C1749 1.502 . S
C1748 C1750 1.561 . S
C1748 C1751 1.526 . S
C1749 H1733 0.959 . S
C1749 H1734 0.959 . S
C1749 H1735 0.961 . S
C1749 C1748 1.502 . S
C1750 H1736 0.960 . S
C1750 H1737 0.961 . S
C1750 H1738 0.959 . S
C1750 C1748 1.561 . S
C1751 C1748 1.526 . S
C1751 C1752 1.396 . S
C1751 C1756 1.390 . S
C1752 C1746 1.465 . S
C1752 C1751 1.396 . S
C1752 C1753 1.399 . S
C1753 H1739 0.929 . S
C1753 C1752 1.399 . S
C1753 C1754 1.385 . S
C1754 H1740 0.931 . S
C1754 C1753 1.385 . S
C1754 C1755 1.389 . S
C1755 C1754 1.389 . S
C1755 C1756 1.387 . S
C1756 H1741 0.930 . S
C1756 C1751 1.390 . S
C1756 C1755 1.387 . S
H1757 C1769 0.930 . S
H1758 C1771 0.930 . S
H1759 C1772 0.930 . S
H1760 C1776 0.959 . S
H1761 C1776 0.959 . S
H1762 C1776 0.961 . S
H1763 C1777 0.960 . S
H1764 C1777 0.961 . S
H1765 C1777 0.959 . S
H1766 C1780 0.929 . S
H1767 C1781 0.931 . S
H1768 C1783 0.930 . S
C1769 H1757 0.930 . S
C1769 C1770 1.399 . S
C1769 C1774 1.399 . S
C1770 C1769 1.399 . S
C1770 C1771 1.376 . S
C1771 H1758 0.930 . S
C1771 C1770 1.376 . S
C1771 C1772 1.388 . S
C1772 H1759 0.930 . S
C1772 C1771 1.388 . S
C1772 C1773 1.390 . S
C1773 C1772 1.390 . S
C1773 C1774 1.394 . S
C1773 C1779 1.465 . S
C1774 C1769 1.399 . S
C1774 C1773 1.394 . S
C1774 C1775 1.516 . S
C1775 C1774 1.516 . S
C1775 C1776 1.502 . S
C1775 C1777 1.561 . S
C1775 C1778 1.526 . S
C1776 H1760 0.959 . S
C1776 H1761 0.959 . S
C1776 H1762 0.961 . S
C1776 C1775 1.502 . S
C1777 H1763 0.960 . S
C1777 H1764 0.961 . S
C1777 H1765 0.959 . S
C1777 C1775 1.561 . S
C1778 C1775 1.526 . S
C1778 C1779 1.396 . S
C1778 C1783 1.390 . S
C1779 C1773 1.465 . S
C1779 C1778 1.396 . S
C1779 C1780 1.399 . S
C1780 H1766 0.929 . S
C1780 C1779 1.399 . S
C1780 C1781 1.385 . S
C1781 H1767 0.931 . S
C1781 C1780 1.385 . S
C1781 C1782 1.389 . S
C1782 C1781 1.389 . S
C1782 C1783 1.387 . S
C1783 H1768 0.930 . S
C1783 C1778 1.390 . S
C1783 C1782 1.387 . S
H1784 C1796 0.930 . S
H1785 C1798 0.930 . S
H1786 C1799 0.930 . S
H1787 C1803 0.959 . S
H1788 C1803 0.959 . S
H1789 C1803 0.961 . S
H1790 C1804 0.960 . S
H1791 C1804 0.961 . S
H1792 C1804 0.959 . S
H1793 C1807 0.929 . S
H1794 C1808 0.931 . S
H1795 C1810 0.930 . S
C1796 H1784 0.930 . S
C1796 C1797 1.399 . S
C1796 C1801 1.399 . S
C1797 C1796 1.399 . S
C1797 C1798 1.376 . S
C1798 H1785 0.930 . S
C1798 C1797 1.376 . S
C1798 C1799 1.388 . S
C1799 H1786 0.930 . S
C1799 C1798 1.388 . S
C1799 C1800 1.390 . S
C1800 C1799 1.390 . S
C1800 C1801 1.394 . S
C1800 C1806 1.465 . S
C1801 C1796 1.399 . S
C1801 C1800 1.394 . S
C1801 C1802 1.516 . S
C1802 C1801 1.516 . S
C1802 C1803 1.502 . S
C1802 C1804 1.561 . S
C1802 C1805 1.526 . S
C1803 H1787 0.959 . S
C1803 H1788 0.959 . S
C1803 H1789 0.961 . S
C1803 C1802 1.502 . S
C1804 H1790 0.960 . S
C1804 H1791 0.961 . S
C1804 H1792 0.959 . S
C1804 C1802 1.561 . S
C1805 C1802 1.526 . S
C1805 C1806 1.396 . S
C1805 C1810 1.390 . S
C1806 C1800 1.465 . S
C1806 C1805 1.396 . S
C1806 C1807 1.399 . S
C1807 H1793 0.929 . S
C1807 C1806 1.399 . S
C1807 C1808 1.385 . S
C1808 H1794 0.931 . S
C1808 C1807 1.385 . S
C1808 C1809 1.389 . S
C1809 C1808 1.389 . S
C1809 C1810 1.387 . S
C1810 H1795 0.930 . S
C1810 C1805 1.390 . S
C1810 C1809 1.387 . S
H1811 C1823 0.930 . S
H1812 C1825 0.930 . S
H1813 C1826 0.930 . S
H1814 C1830 0.959 . S
H1815 C1830 0.959 . S
H1816 C1830 0.961 . S
H1817 C1831 0.960 . S
H1818 C1831 0.961 . S
H1819 C1831 0.959 . S
H1820 C1834 0.929 . S
H1821 C1835 0.931 . S
H1822 C1837 0.930 . S
C1823 H1811 0.930 . S
C1823 C1824 1.399 . S
C1823 C1828 1.399 . S
C1824 C1823 1.399 . S
C1824 C1825 1.376 . S
C1825 H1812 0.930 . S
C1825 C1824 1.376 . S
C1825 C1826 1.388 . S
C1826 H1813 0.930 . S
C1826 C1825 1.388 . S
C1826 C1827 1.390 . S
C1827 C1826 1.390 . S
C1827 C1828 1.394 . S
C1827 C1833 1.465 . S
C1828 C1823 1.399 . S
C1828 C1827 1.394 . S
C1828 C1829 1.516 . S
C1829 C1828 1.516 . S
C1829 C1830 1.502 . S
C1829 C1831 1.561 . S
C1829 C1832 1.526 . S
C1830 H1814 0.959 . S
C1830 H1815 0.959 . S
C1830 H1816 0.961 . S
C1830 C1829 1.502 . S
C1831 H1817 0.960 . S
C1831 H1818 0.961 . S
C1831 H1819 0.959 . S
C1831 C1829 1.561 . S
C1832 C1829 1.526 . S
C1832 C1833 1.396 . S
C1832 C1837 1.390 . S
C1833 C1827 1.465 . S
C1833 C1832 1.396 . S
C1833 C1834 1.399 . S
C1834 H1820 0.929 . S
C1834 C1833 1.399 . S
C1834 C1835 1.385 . S
C1835 H1821 0.931 . S
C1835 C1834 1.385 . S
C1835 C1836 1.389 . S
C1836 C1835 1.389 . S
C1836 C1837 1.387 . S
C1837 H1822 0.930 . S
C1837 C1832 1.390 . S
C1837 C1836 1.387 . S
H1838 C1850 0.930 . S
H1839 C1852 0.930 . S
H1840 C1853 0.930 . S
H1841 C1857 0.959 . S
H1842 C1857 0.959 . S
H1843 C1857 0.961 . S
H1844 C1858 0.960 . S
H1845 C1858 0.961 . S
H1846 C1858 0.959 . S
H1847 C1861 0.929 . S
H1848 C1862 0.931 . S
H1849 C1864 0.930 . S
C1850 H1838 0.930 . S
C1850 C1851 1.399 . S
C1850 C1855 1.399 . S
C1851 C1850 1.399 . S
C1851 C1852 1.376 . S
C1852 H1839 0.930 . S
C1852 C1851 1.376 . S
C1852 C1853 1.388 . S
C1853 H1840 0.930 . S
C1853 C1852 1.388 . S
C1853 C1854 1.390 . S
C1854 C1853 1.390 . S
C1854 C1855 1.394 . S
C1854 C1860 1.465 . S
C1855 C1850 1.399 . S
C1855 C1854 1.394 . S
C1855 C1856 1.516 . S
C1856 C1855 1.516 . S
C1856 C1857 1.502 . S
C1856 C1858 1.561 . S
C1856 C1859 1.526 . S
C1857 H1841 0.959 . S
C1857 H1842 0.959 . S
C1857 H1843 0.961 . S
C1857 C1856 1.502 . S
C1858 H1844 0.960 . S
C1858 H1845 0.961 . S
C1858 H1846 0.959 . S
C1858 C1856 1.561 . S
C1859 C1856 1.526 . S
C1859 C1860 1.396 . S
C1859 C1864 1.390 . S
C1860 C1854 1.465 . S
C1860 C1859 1.396 . S
C1860 C1861 1.399 . S
C1861 H1847 0.929 . S
C1861 C1860 1.399 . S
C1861 C1862 1.385 . S
C1862 H1848 0.931 . S
C1862 C1861 1.385 . S
C1862 C1863 1.389 . S
C1863 C1862 1.389 . S
C1863 C1864 1.387 . S
C1864 H1849 0.930 . S
C1864 C1859 1.390 . S
C1864 C1863 1.387 . S
H1865 C1877 0.930 . S
H1866 C1879 0.930 . S
H1867 C1880 0.930 . S
H1868 C1884 0.959 . S
H1869 C1884 0.959 . S
H1870 C1884 0.961 . S
H1871 C1885 0.960 . S
H1872 C1885 0.961 . S
H1873 C1885 0.959 . S
H1874 C1888 0.929 . S
H1875 C1889 0.931 . S
H1876 C1891 0.930 . S
C1877 H1865 0.930 . S
C1877 C1878 1.399 . S
C1877 C1882 1.399 . S
C1878 C1877 1.399 . S
C1878 C1879 1.376 . S
C1879 H1866 0.930 . S
C1879 C1878 1.376 . S
C1879 C1880 1.388 . S
C1880 H1867 0.930 . S
C1880 C1879 1.388 . S
C1880 C1881 1.390 . S
C1881 C1880 1.390 . S
C1881 C1882 1.394 . S
C1881 C1887 1.465 . S
C1882 C1877 1.399 . S
C1882 C1881 1.394 . S
C1882 C1883 1.516 . S
C1883 C1882 1.516 . S
C1883 C1884 1.502 . S
C1883 C1885 1.561 . S
C1883 C1886 1.526 . S
C1884 H1868 0.959 . S
C1884 H1869 0.959 . S
C1884 H1870 0.961 . S
C1884 C1883 1.502 . S
C1885 H1871 0.960 . S
C1885 H1872 0.961 . S
C1885 H1873 0.959 . S
C1885 C1883 1.561 . S
C1886 C1883 1.526 . S
C1886 C1887 1.396 . S
C1886 C1891 1.390 . S
C1887 C1881 1.465 . S
C1887 C1886 1.396 . S
C1887 C1888 1.399 . S
C1888 H1874 0.929 . S
C1888 C1887 1.399 . S
C1888 C1889 1.385 . S
C1889 H1875 0.931 . S
C1889 C1888 1.385 . S
C1889 C1890 1.389 . S
C1890 C1889 1.389 . S
C1890 C1891 1.387 . S
C1891 H1876 0.930 . S
C1891 C1886 1.390 . S
C1891 C1890 1.387 . S
C621 C293 1.471 . S
C609 N2 1.403 . S
C648 C339 2.028 . S
C636 C7 2.056 1_655 S
C675 C382 1.446 . S
C663 N12 1.354 1_655 S
C690 C16 2.384 . S
C702 C419 2.473 . S
C729 C438 2.111 . S
C717 C30 2.105 . S
C756 C493 1.277 . S
C744 N35 1.275 . S
C771 C39 2.563 1_655 S
C783 C518 2.555 . S
C810 C582 1.267 . S
C798 N25 1.215 1_655 S
C837 C278 1.608 . S
C825 N58 1.510 . S
C852 N81 1.420 . S
C864 C342 1.373 . S
C891 C369 1.404 . S
C879 N104 1.400 . S
C906 N127 1.377 . S
C918 C422 1.434 . S
C945 C460 1.233 . S
C933 N48 1.205 . S
C972 C478 1.720 . S
C960 N71 1.711 . S
C987 N94 1.214 . S
C999 C540 1.279 . S
C1026 C569 1.591 . S
C1014 N117 1.582 . S
C1041 C85 1.933 . S
C1053 C300 1.943 . S
C1068 C122 1.573 . S
C1080 C453 1.585 . S
C1095 C53 2.037 . S
C1107 C500 2.024 . S
C1134 C533 1.656 . S
C1122 C76 1.669 . S
C1161 C579 2.269 . S
C1149 C99 2.251 . S
C1188 C379 2.089 . S
C1176 C131 2.123 . S
C1215 C409 1.799 . S
C1203 C62 1.799 . S
C1230 C108 1.664 . S
C1242 C329 1.672 . S
C1269 C573 1.561 . S
C1257 N140 1.498 . S
C1284 C145 2.030 . S
C1296 C459 2.048 . S
C1323 C502 1.361 . S
C1311 N150 1.288 . S
C1338 C154 2.434 . S
C1350 C539 2.451 . S
C1377 C318 2.099 . S
C1365 C168 2.096 . S
C1392 N173 1.172 . S
C1404 C373 1.207 . S
C1431 C398 2.554 . S
C1419 C177 2.555 . S
C1458 C302 1.315 . S
C1446 N163 1.278 . S
C1485 C558 2.037 . S
C1473 C200 2.052 . S
C1512 C462 1.650 . S
C1500 N219 1.645 . S
C1527 N242 1.588 . S
C1539 C489 1.686 . S
C1566 C542 1.762 . S
C1554 C269 1.745 . S
C1593 C340 1.540 . S
C1581 C191 1.543 . S
C1608 N209 1.971 . S
C1620 C358 2.022 . S
C1635 N232 1.534 . S
C1647 C420 1.603 . S
C1662 C260 2.002 . S
C1674 C289 2.048 . S
C1689 C223 1.547 . S
C1701 C580 1.628 . S
C1716 N255 1.242 . S
C1728 C333 1.313 . S
C1743 N186 1.617 . S
C1755 C380 1.600 . S
C1782 C413 1.352 . S
C1770 C214 1.420 . S
C1809 C299 1.970 . S
C1797 C237 2.006 . S
C1836 C499 1.598 . S
C1824 N265 1.639 . S
C1863 C529 1.464 . S
C1851 N196 1.394 . S
C1890 C449 1.346 . S
C1878 C246 1.352 . S
