# Generated by pormake.
# Topology zzz, (3,6)-cn, num edge types: 1
# Building blocks:
#     Node 0, Type 0, BuildingBlock: WUSLED_clean_sbu_0, # of connection points: 3
#     Node 1, Type 0, BuildingBlock: WUSLED_clean_sbu_0, # of connection points: 3
#     Node 2, Type 0, BuildingBlock: WUSLED_clean_sbu_0, # of connection points: 3
#     Node 3, Type 0, BuildingBlock: WUSLED_clean_sbu_0, # of connection points: 3
#     Node 4, Type 0, BuildingBlock: WUSLED_clean_sbu_0, # of connection points: 3
#     Node 5, Type 0, BuildingBlock: WUSLED_clean_sbu_0, # of connection points: 3
#     Node 6, Type 0, BuildingBlock: WUSLED_clean_sbu_0, # of connection points: 3
#     Node 7, Type 0, BuildingBlock: WUSLED_clean_sbu_0, # of connection points: 3
#     Node 8, Type 1, BuildingBlock: PAMTUU_clean_sbu_0, # of connection points: 6
#     Node 9, Type 1, BuildingBlock: PAMTUU_clean_sbu_0, # of connection points: 6
#     Node 10, Type 1, BuildingBlock: PAMTUU_clean_sbu_0, # of connection points: 6
#     Node 11, Type 1, BuildingBlock: PAMTUU_clean_sbu_0, # of connection points: 6
#     Edge 12, Type (0, 1), BuildingBlock: MIFKUJ_clean_linker_0, # of connection points: 2
#     Edge 13, Type (0, 1), BuildingBlock: MIFKUJ_clean_linker_0, # of connection points: 2
#     Edge 14, Type (0, 1), BuildingBlock: MIFKUJ_clean_linker_0, # of connection points: 2
#     Edge 15, Type (0, 1), BuildingBlock: MIFKUJ_clean_linker_0, # of connection points: 2
#     Edge 16, Type (0, 1), BuildingBlock: MIFKUJ_clean_linker_0, # of connection points: 2
#     Edge 17, Type (0, 1), BuildingBlock: MIFKUJ_clean_linker_0, # of connection points: 2
#     Edge 18, Type (0, 1), BuildingBlock: MIFKUJ_clean_linker_0, # of connection points: 2
#     Edge 19, Type (0, 1), BuildingBlock: MIFKUJ_clean_linker_0, # of connection points: 2
#     Edge 20, Type (0, 1), BuildingBlock: MIFKUJ_clean_linker_0, # of connection points: 2
#     Edge 21, Type (0, 1), BuildingBlock: MIFKUJ_clean_linker_0, # of connection points: 2
#     Edge 22, Type (0, 1), BuildingBlock: MIFKUJ_clean_linker_0, # of connection points: 2
#     Edge 23, Type (0, 1), BuildingBlock: MIFKUJ_clean_linker_0, # of connection points: 2
#     Edge 24, Type (0, 1), BuildingBlock: MIFKUJ_clean_linker_0, # of connection points: 2
#     Edge 25, Type (0, 1), BuildingBlock: MIFKUJ_clean_linker_0, # of connection points: 2
#     Edge 26, Type (0, 1), BuildingBlock: MIFKUJ_clean_linker_0, # of connection points: 2
#     Edge 27, Type (0, 1), BuildingBlock: MIFKUJ_clean_linker_0, # of connection points: 2
#     Edge 28, Type (0, 1), BuildingBlock: MIFKUJ_clean_linker_0, # of connection points: 2
#     Edge 29, Type (0, 1), BuildingBlock: MIFKUJ_clean_linker_0, # of connection points: 2
#     Edge 30, Type (0, 1), BuildingBlock: MIFKUJ_clean_linker_0, # of connection points: 2
#     Edge 31, Type (0, 1), BuildingBlock: MIFKUJ_clean_linker_0, # of connection points: 2
#     Edge 32, Type (0, 1), BuildingBlock: MIFKUJ_clean_linker_0, # of connection points: 2
#     Edge 33, Type (0, 1), BuildingBlock: MIFKUJ_clean_linker_0, # of connection points: 2
#     Edge 34, Type (0, 1), BuildingBlock: MIFKUJ_clean_linker_0, # of connection points: 2
#     Edge 35, Type (0, 1), BuildingBlock: MIFKUJ_clean_linker_0, # of connection points: 2
# Relax obj value: 0.337
# Max RMSD: 0.250
# Mean RMSD: 0.213
data_MOF--net-zzz--node1-WUSLED_clean_sbu_0--node2-PAMTUU_clean_sbu_0--edge1-MIFKUJ_clean_linker_0
_symmetry_space_group_name_H-M    P1
_symmetry_Int_Tables_number       1
_symmetry_cell_setting            triclinic
loop_
_symmetry_equiv_pos_as_xyz
'x, y, z'
_cell_length_a     77.188998
_cell_length_b     80.205568
_cell_length_c     26.754777
_cell_angle_alpha  96.485617
_cell_angle_beta   90.069029
_cell_angle_gamma 90.963441
loop_
_atom_site_label
_atom_site_type_symbol
_atom_site_fract_x
_atom_site_fract_y
_atom_site_fract_z
_atom_type_partial_charge
C0 C 0.77546 0.47376 0.44942 0.0
C1 C 0.79058 0.47194 0.42001 0.0
C2 C 0.80924 0.47572 0.49578 0.0
C3 C 0.80719 0.47294 0.44279 0.0
C4 C 0.79391 0.47713 0.52469 0.0
C5 C 0.77741 0.47626 0.50193 0.0
U6 U 0.74241 0.46965 0.33742 0.0
O7 O 0.71623 0.45796 0.32695 0.0
O8 O 0.71963 0.485 0.32517 0.0
C9 C 0.7089 0.47205 0.3182 0.0
C10 C 0.75757 0.47362 0.42707 0.0
C11 C 0.69674 0.47148 0.27412 0.0
C12 C 0.66692 0.47298 0.2434 0.0
C13 C 0.67884 0.47243 0.28303 0.0
C14 C 0.69047 0.47122 0.18397 0.0
C15 C 0.6724 0.47248 0.19288 0.0
C16 C 0.70244 0.47078 0.22394 0.0
C17 C 0.7734 0.4612 0.21685 0.0
C18 C 0.7789 0.46556 0.13049 0.0
C19 C 0.80187 0.4562 0.18248 0.0
C20 C 0.79042 0.45602 0.22236 0.0
C21 C 0.7962 0.46134 0.13701 0.0
C22 C 0.76748 0.46561 0.17071 0.0
C23 C 0.76268 0.46405 0.26104 0.0
O24 O 0.75382 0.4861 0.4013 0.0
O25 O 0.75127 0.45916 0.40602 0.0
O26 O 0.75606 0.45165 0.2834 0.0
O27 O 0.75839 0.47933 0.2791 0.0
H28 H 0.78957 0.46998 0.37937 0.0
H29 H 0.81841 0.4719 0.41851 0.0
H30 H 0.7945 0.47882 0.56533 0.0
H31 H 0.76606 0.47763 0.52571 0.0
H32 H 0.65337 0.47427 0.25299 0.0
H33 H 0.67401 0.47307 0.32119 0.0
H34 H 0.69546 0.4705 0.14602 0.0
H35 H 0.71616 0.47003 0.21564 0.0
H36 H 0.77454 0.46966 0.09543 0.0
H37 H 0.81531 0.45305 0.1877 0.0
H38 H 0.79508 0.4528 0.25822 0.0
H39 H 0.75431 0.46972 0.16653 0.0
C40 C 0.95839 0.77226 0.41809 0.0
C41 C 0.95386 0.78652 0.39534 0.0
C42 C 0.96222 0.80475 0.47142 0.0
C43 C 0.95565 0.80257 0.42181 0.0
C44 C 0.96644 0.79032 0.49414 0.0
C45 C 0.96452 0.77429 0.46776 0.0
U46 U 0.95655 0.74373 0.29376 0.0
O47 O 0.97232 0.72142 0.27263 0.0
O48 O 0.94387 0.71907 0.2722 0.0
C49 C 0.95873 0.71136 0.26491 0.0
C50 C 0.95796 0.75537 0.38966 0.0
C51 C 0.96 0.69726 0.22452 0.0
C52 C 0.97041 0.66905 0.19992 0.0
C53 C 0.96909 0.68312 0.23542 0.0
C54 C 0.95351 0.68296 0.14114 0.0
C55 C 0.96262 0.6687 0.15228 0.0
C56 C 0.95216 0.69713 0.17707 0.0
C57 C 0.95379 0.77306 0.18277 0.0
C58 C 0.96346 0.7732 0.09653 0.0
C59 C 0.94931 0.79753 0.13915 0.0
C60 C 0.94724 0.78918 0.18165 0.0
C61 C 0.95789 0.78987 0.09648 0.0
C62 C 0.96153 0.76488 0.13961 0.0
C63 C 0.95446 0.76664 0.23188 0.0
O64 O 0.94341 0.7507 0.3661 0.0
O65 O 0.97173 0.75169 0.36218 0.0
O66 O 0.96928 0.76095 0.24661 0.0
O67 O 0.94068 0.75919 0.24857 0.0
H68 H 0.94919 0.78525 0.35686 0.0
H69 H 0.95196 0.81328 0.40316 0.0
H70 H 0.97178 0.79138 0.53181 0.0
H71 H 0.96824 0.76345 0.48582 0.0
H72 H 0.97779 0.65851 0.20967 0.0
H73 H 0.97522 0.68293 0.27183 0.0
H74 H 0.94727 0.68309 0.10493 0.0
H75 H 0.94498 0.70787 0.1679 0.0
H76 H 0.96993 0.76686 0.06406 0.0
H77 H 0.94518 0.81043 0.14123 0.0
H78 H 0.94143 0.79576 0.21494 0.0
H79 H 0.96671 0.75242 0.13994 0.0
C80 C 0.76556 0.00524 0.46972 0.0
C81 C 0.75151 0.01298 0.44834 0.0
C82 C 0.73158 0.00393 0.51172 0.0
C83 C 0.7348 0.01246 0.46935 0.0
C84 C 0.74556 0.99595 0.53246 0.0
C85 C 0.76231 0.9967 0.51197 0.0
U86 U 0.79629 0.00383 0.35705 0.0
O87 O 0.81909 0.01947 0.34099 0.0
O88 O 0.82175 0.99231 0.34025 0.0
C89 C 0.82939 0.00657 0.33246 0.0
C90 C 0.78356 0.00604 0.44895 0.0
C91 C 0.84159 0.00641 0.28891 0.0
C92 C 0.8706 0.01286 0.2585 0.0
C93 C 0.85836 0.01319 0.29748 0.0
C94 C 0.84958 0.99887 0.20067 0.0
C95 C 0.86657 0.00559 0.20924 0.0
C96 C 0.83728 0.99929 0.23989 0.0
C97 C 0.76801 0.99694 0.23381 0.0
C98 C 0.76272 0.0104 0.15881 0.0
C99 C 0.74655 0.98519 0.17336 0.0
C100 C 0.75581 0.98437 0.21756 0.0
C101 C 0.74939 0.99867 0.14523 0.0
C102 C 0.77214 0.00947 0.2029 0.0
C103 C 0.77262 0.99885 0.28711 0.0
O104 O 0.78956 0.99202 0.42557 0.0
O105 O 0.78748 0.01918 0.42561 0.0
O106 O 0.77761 0.01387 0.3074 0.0
O107 O 0.78059 0.98644 0.30501 0.0
H108 H 0.75344 0.0195 0.41541 0.0
H109 H 0.72431 0.01857 0.45205 0.0
H110 H 0.74357 0.98934 0.56518 0.0
H111 H 0.77281 0.99062 0.52934 0.0
H112 H 0.88322 0.01853 0.26724 0.0
H113 H 0.8621 0.01877 0.3348 0.0
H114 H 0.84581 0.99297 0.16382 0.0
H115 H 0.82446 0.99392 0.232 0.0
H116 H 0.76491 0.02094 0.13747 0.0
H117 H 0.73602 0.97627 0.16392 0.0
H118 H 0.75226 0.97479 0.2414 0.0
H119 H 0.7815 0.01934 0.21487 0.0
C120 C 0.57956 0.73172 0.195 0.0
C121 C 0.57414 0.71563 0.17392 0.0
C122 C 0.5793 0.70425 0.25354 0.0
C123 C 0.57388 0.70213 0.20284 0.0
C124 C 0.585 0.72039 0.27421 0.0
C125 C 0.58509 0.73396 0.24527 0.0
U126 U 0.58288 0.74539 0.06636 0.0
O127 O 0.56799 0.76262 0.02489 0.0
O128 O 0.59643 0.76602 0.03335 0.0
C129 C 0.58206 0.77074 0.01298 0.0
C130 C 0.57986 0.74593 0.16401 0.0
C131 C 0.58072 0.78766 0.9973 0.0
C132 C 0.5759 0.81768 0.01328 0.0
C133 C 0.57802 0.80202 0.03127 0.0
C134 C 0.5793 0.80462 0.92775 0.0
C135 C 0.57624 0.81903 0.96121 0.0
C136 C 0.58156 0.78913 0.94566 0.0
C137 C 0.58838 0.70808 0.96433 0.0
C138 C 0.57966 0.7053 0.87648 0.0
C139 C 0.5962 0.68347 0.9092 0.0
C140 C 0.59685 0.6928 0.95617 0.0
C141 C 0.58698 0.68925 0.86924 0.0
C142 C 0.58035 0.71469 0.92389 0.0
C143 C 0.58665 0.71574 0.01633 0.0
O144 O 0.59472 0.74863 0.14205 0.0
O145 O 0.56647 0.74656 0.13381 0.0
O146 O 0.57147 0.72207 0.02879 0.0
O147 O 0.59981 0.72505 0.03482 0.0
H148 H 0.56998 0.7135 0.13499 0.0
H149 H 0.56913 0.69008 0.18543 0.0
H150 H 0.5896 0.72256 0.31266 0.0
H151 H 0.58954 0.74619 0.26215 0.0
H152 H 0.57348 0.82861 0.03985 0.0
H153 H 0.57729 0.80109 0.07128 0.0
H154 H 0.57983 0.80531 0.88757 0.0
H155 H 0.58369 0.77817 0.91891 0.0
H156 H 0.57254 0.71012 0.84645 0.0
H157 H 0.60166 0.67105 0.90583 0.0
H158 H 0.60307 0.68754 0.98703 0.0
H159 H 0.57386 0.72662 0.92959 0.0
C160 C 0.26385 0.52573 0.01699 0.0
C161 C 0.24918 0.52057 0.04286 0.0
C162 C 0.2301 0.52393 0.97056 0.0
C163 C 0.23261 0.51965 0.02 0.0
C164 C 0.2449 0.5293 0.94536 0.0
C165 C 0.26142 0.53013 0.96811 0.0
U166 U 0.29692 0.52639 0.12807 0.0
O167 O 0.32164 0.51319 0.13433 0.0
O168 O 0.32147 0.54062 0.14394 0.0
C169 C 0.33064 0.5271 0.14698 0.0
C170 C 0.2818 0.52618 0.03894 0.0
C171 C 0.34287 0.52726 0.19073 0.0
C172 C 0.37259 0.52444 0.22054 0.0
C173 C 0.36052 0.52448 0.18113 0.0
C174 C 0.34971 0.53013 0.28111 0.0
C175 C 0.36748 0.52711 0.27142 0.0
C176 C 0.33757 0.53019 0.24134 0.0
C177 C 0.26542 0.52614 0.24768 0.0
C178 C 0.25953 0.53517 0.33504 0.0
C179 C 0.23679 0.52213 0.28018 0.0
C180 C 0.24841 0.52013 0.2405 0.0
C181 C 0.24225 0.52994 0.32724 0.0
C182 C 0.27109 0.53343 0.29502 0.0
C183 C 0.27672 0.52623 0.20473 0.0
O184 O 0.28675 0.53999 0.0669 0.0
O185 O 0.28695 0.51258 0.05747 0.0
O186 O 0.2817 0.51221 0.17896 0.0
O187 O 0.28241 0.54032 0.18947 0.0
H188 H 0.25055 0.51707 0.08058 0.0
H189 H 0.22183 0.51522 0.04101 0.0
H190 H 0.24382 0.53307 0.90793 0.0
H191 H 0.27241 0.53418 0.94715 0.0
H192 H 0.38606 0.52243 0.21079 0.0
H193 H 0.36506 0.52233 0.14268 0.0
H194 H 0.34507 0.53213 0.31945 0.0
H195 H 0.32405 0.53241 0.25016 0.0
H196 H 0.26383 0.54123 0.37129 0.0
H197 H 0.22345 0.51796 0.27394 0.0
H198 H 0.24395 0.51459 0.20382 0.0
H199 H 0.28428 0.53812 0.30058 0.0
C200 C 0.08718 0.23034 0.0571 0.0
C201 C 0.08896 0.21569 0.08071 0.0
C202 C 0.08266 0.19835 1.00135 0.0
C203 C 0.08676 0.19984 0.05309 0.0
C204 C 0.08126 0.21314 0.97791 0.0
C205 C 0.08346 0.22893 0.00552 0.0
U206 U 0.09046 0.25901 0.18157 0.0
O207 O 0.10293 0.28397 0.20047 0.0
O208 O 0.07457 0.28109 0.20453 0.0
C209 C 0.088 0.29144 0.20899 0.0
C210 C 0.08796 0.24715 0.08599 0.0
C211 C 0.08709 0.30627 0.24697 0.0
C212 C 0.08104 0.33607 0.26338 0.0
C213 C 0.08335 0.32168 0.22968 0.0
C214 C 0.08687 0.32009 0.33291 0.0
C215 C 0.08255 0.33545 0.31542 0.0
C216 C 0.08901 0.30553 0.29889 0.0
C217 C 0.09418 0.23098 0.29484 0.0
C218 C 0.07952 0.22843 0.37377 0.0
C219 C 0.1 0.20735 0.34125 0.0
C220 C 0.10332 0.21633 0.30047 0.0
C221 C 0.08742 0.21291 0.37673 0.0
C222 C 0.08291 0.23747 0.33304 0.0
C223 C 0.09354 0.23647 0.24438 0.0
O224 O 0.07453 0.25082 0.11492 0.0
O225 O 0.10278 0.25176 0.10808 0.0
O226 O 0.10706 0.24415 0.22698 0.0
O227 O 0.07854 0.24155 0.22892 0.0
H228 H 0.09168 0.21652 0.12067 0.0
H229 H 0.08774 0.18879 0.07266 0.0
H230 H 0.07839 0.21254 0.93813 0.0
H231 H 0.08197 0.24009 0.98667 0.0
H232 H 0.07795 0.34771 0.24868 0.0
H233 H 0.08187 0.32254 0.18976 0.0
H234 H 0.08803 0.31924 0.37289 0.0
H235 H 0.09185 0.29374 0.31305 0.0
H236 H 0.06978 0.23291 0.40095 0.0
H237 H 0.10605 0.1953 0.34244 0.0
H238 H 0.11187 0.211 0.27098 0.0
H239 H 0.0757 0.24874 0.32934 0.0
C240 C 0.27735 0.00506 0.01794 0.0
C241 C 0.29235 0.00968 0.04664 0.0
C242 C 0.31065 0.00585 0.97093 0.0
C243 C 0.30881 0.01013 0.02331 0.0
C244 C 0.29564 1.00119 0.94263 0.0
C245 C 0.27928 1.0009 0.96572 0.0
U246 U 0.24052 0.00583 0.12307 0.0
O247 O 0.21466 0.01742 0.12362 0.0
O248 O 0.2167 0.99016 0.12018 0.0
C249 C 0.20649 0.00315 0.12832 0.0
C250 C 0.25945 0.00457 0.03991 0.0
C251 C 0.19419 0.00311 0.17176 0.0
C252 C 0.1658 0.00988 0.20895 0.0
C253 C 0.17768 0.0101 0.16907 0.0
C254 C 0.18664 0.99571 0.25575 0.0
C255 C 0.16999 0.00258 0.25292 0.0
C256 C 0.19858 0.99605 0.21596 0.0
C257 C 0.27031 0.01092 0.24246 0.0
C258 C 0.28204 0.01511 0.32658 0.0
C259 C 0.2999 0.0035 0.25683 0.0
C260 C 0.28618 0.00482 0.22369 0.0
C261 C 0.29768 0.00817 0.30865 0.0
C262 C 0.26843 0.01648 0.29356 0.0
C263 C 0.25471 0.00946 0.21212 0.0
O264 O 0.25477 0.99124 0.0614 0.0
O265 O 0.25325 0.01853 0.06321 0.0
O266 O 0.25062 0.0223 0.18832 0.0
O267 O 0.25159 0.99474 0.18654 0.0
H268 H 0.29137 0.01292 0.08693 0.0
H269 H 0.32014 0.01363 0.04628 0.0
H270 H 0.29656 0.99784 0.90235 0.0
H271 H 0.26801 0.99738 0.94247 0.0
H272 H 0.15315 0.01519 0.20484 0.0
H273 H 0.17389 0.01566 0.13574 0.0
H274 H 0.19056 0.99022 0.28908 0.0
H275 H 0.21126 0.99074 0.21974 0.0
H276 H 0.28018 0.01896 0.36632 0.0
H277 H 0.31189 0.99801 0.24242 0.0
H278 H 0.28767 1.00038 0.18417 0.0
H279 H 0.25612 0.0211 0.30834 0.0
C280 C 0.45249 0.27435 0.28344 0.0
C281 C 0.45369 0.29118 0.30449 0.0
C282 C 0.45571 0.30035 0.22062 0.0
C283 C 0.4553 0.30405 0.27338 0.0
C284 C 0.45409 0.28347 0.19986 0.0
C285 C 0.45253 0.27062 0.231 0.0
U286 U 0.44832 0.2584 0.41229 0.0
O287 O 0.43599 0.23506 0.43378 0.0
O288 O 0.46427 0.23997 0.44562 0.0
C289 C 0.45094 0.22973 0.44876 0.0
C290 C 0.45205 0.26057 0.31556 0.0
C291 C 0.45252 0.21439 0.47368 0.0
C292 C 0.4548 0.18404 0.46686 0.0
C293 C 0.45208 0.19874 0.44459 0.0
C294 C 0.45778 0.20044 0.54823 0.0
C295 C 0.45781 0.18465 0.51901 0.0
C296 C 0.45529 0.21518 0.52567 0.0
C297 C 0.44146 0.29435 0.52248 0.0
C298 C 0.45286 0.29918 0.60763 0.0
C299 C 0.43553 0.32033 0.57452 0.0
C300 C 0.43318 0.30981 0.52983 0.0
C301 C 0.44629 0.31558 0.61288 0.0
C302 C 0.45059 0.28867 0.5625 0.0
C303 C 0.44311 0.28641 0.4705 0.0
O304 O 0.46512 0.26044 0.34697 0.0
O305 O 0.43705 0.25752 0.33619 0.0
O306 O 0.43034 0.27668 0.45131 0.0
O307 O 0.45856 0.28095 0.45699 0.0
H308 H 0.45362 0.29433 0.34495 0.0
H309 H 0.45625 0.31691 0.29067 0.0
H310 H 0.45451 0.28013 0.15952 0.0
H311 H 0.45167 0.2577 0.21409 0.0
H312 H 0.45507 0.17227 0.44275 0.0
H313 H 0.4501 0.19791 0.40427 0.0
H314 H 0.45974 0.20146 0.58854 0.0
H315 H 0.45564 0.22719 0.54874 0.0
H316 H 0.46087 0.29496 0.63682 0.0
H317 H 0.43031 0.33282 0.5765 0.0
H318 H 0.42614 0.31443 0.49928 0.0
H319 H 0.457 0.27668 0.55763 0.0
Tb320 Tb 1.00773 0.01164 0.69917 0.0
Tb321 Tb 0.03282 0.99229 0.77001 0.0
C322 C 0.99482 0.00275 0.80469 0.0
C323 C 0.9979 0.04518 0.62567 0.0
C324 C 0.011 0.0761 0.59956 0.0
C325 C 0.99305 0.07351 0.60533 0.0
C326 C 0.98656 0.05817 0.61849 0.0
C327 C 0.01577 0.04774 0.61942 0.0
C328 C 0.02225 0.06296 0.60639 0.0
C329 C 0.99154 0.02957 0.64416 0.0
O330 O 0.01886 0.03052 0.75502 0.0
O331 O 0.0436 0.01794 0.77852 0.0
O332 O 0.04552 0.99063 0.69621 0.0
O333 O 0.03407 0.01418 0.67038 0.0
O334 O 0.04281 0.98821 0.84079 0.0
O335 O 0.04895 0.97169 0.77442 0.0
O336 O 0.01199 0.975 0.74275 0.0
O337 O 1.00589 0.98519 0.66885 0.0
O338 O 0.99033 0.00357 0.75738 0.0
O339 O 0.01121 0.00165 0.81732 0.0
C340 C 0.03438 0.03148 0.77534 0.0
O341 O 0.99954 0.01593 0.62684 0.0
O342 O 0.98947 0.03048 0.69268 0.0
C343 C 0.04567 0.00234 0.66559 0.0
C344 C 0.04165 0.95913 0.84607 0.0
C345 C 0.0276 0.92967 0.88001 0.0
C346 C 0.04546 0.93358 0.88527 0.0
C347 C 0.05244 0.9481 0.86793 0.0
C348 C 0.02382 0.95556 0.84215 0.0
C349 C 0.01691 0.94091 0.85814 0.0
C350 C 0.04883 0.97361 0.82337 0.0
C351 C 1.0061 0.9727 0.69658 0.0
H352 H 0.98406 0.08344 0.6007 0.0
H353 H 0.97275 0.05655 0.62389 0.0
H354 H 0.02483 0.03802 0.62502 0.0
H355 H 0.0361 0.06436 0.60133 0.0
H356 H 0.05409 0.92545 0.90277 0.0
H357 H 0.06625 0.95063 0.87115 0.0
H358 H 0.01521 0.96397 0.82585 0.0
H359 H 1.0032 0.93831 0.85228 0.0
Tb360 Tb 0.51406 0.99113 0.68458 0.0
Tb361 Tb 0.52623 0.01269 0.78713 0.0
C362 C 0.52999 0.97377 0.77173 0.0
C363 C 0.48506 0.97728 0.58536 0.0
C364 C 0.45042 0.98116 0.5608 0.0
C365 C 0.45819 0.96553 0.54952 0.0
C366 C 0.47553 0.96358 0.56195 0.0
C367 C 0.47716 0.99293 0.59635 0.0
C368 C 0.45992 0.99488 0.58383 0.0
C369 C 0.50202 0.97478 0.60678 0.0
O370 O 0.48973 0.99939 0.72122 0.0
O371 O 0.49964 0.00455 0.80228 0.0
O372 O 0.51183 0.03033 0.74884 0.0
O373 O 0.51373 0.01721 0.66856 0.0
O374 O 0.52736 0.0153 0.86582 0.0
O375 O 0.53798 0.03452 0.82345 0.0
O376 O 0.54854 0.01347 0.7359 0.0
O377 O 0.54243 0.99008 0.68101 0.0
O378 O 0.5174 0.97332 0.7389 0.0
O379 O 0.53752 0.98805 0.78873 0.0
C380 C 0.48679 0.00198 0.76986 0.0
O381 O 0.51315 0.98715 0.60565 0.0
O382 O 0.5012 0.96954 0.65098 0.0
C383 C 0.51066 0.03057 0.70018 0.0
C384 C 0.55432 0.02719 0.88994 0.0
C385 C 0.58867 0.02488 0.92082 0.0
C386 C 0.58044 0.04047 0.92628 0.0
C387 C 0.5633 0.04162 0.91076 0.0
C388 C 0.5625 0.01161 0.88507 0.0
C389 C 0.5795 0.01045 0.90064 0.0
C390 C 0.53741 0.02858 0.8668 0.0
C391 C 0.55348 0.00174 0.70044 0.0
H392 H 0.45084 0.95491 0.53132 0.0
H393 H 0.48133 0.95134 0.55465 0.0
H394 H 0.48417 0.00352 0.61595 0.0
H395 H 0.45396 0.00701 0.59246 0.0
H396 H 0.58737 0.05179 0.94142 0.0
H397 H 0.55724 0.05377 0.91363 0.0
H398 H 0.5559 1.00034 0.8683 0.0
H399 H 0.58546 0.99823 0.89685 0.0
Tb400 Tb 0.50514 0.49466 0.77549 0.0
Tb401 Tb 0.53337 0.50763 0.69213 0.0
C402 C 0.49284 0.50495 0.66971 0.0
C403 C 0.48406 0.46757 0.86585 0.0
C404 C 0.48039 0.43893 0.91974 0.0
C405 C 0.46682 0.44389 0.88958 0.0
C406 C 0.46867 0.45793 0.86301 0.0
C407 C 0.49772 0.46267 0.89558 0.0
C408 C 0.49594 0.44852 0.92195 0.0
C409 C 0.48523 0.48293 0.83913 0.0
O410 O 0.50999 0.47409 0.71891 0.0
O411 O 0.53624 0.4805 0.68312 0.0
O412 O 0.54818 0.5049 0.76168 0.0
O413 O 0.53048 0.48591 0.79633 0.0
O414 O 0.54427 0.50765 0.61972 0.0
O415 O 0.55159 0.52654 0.68022 0.0
O416 O 0.51673 0.52748 0.72334 0.0
O417 O 0.51425 0.5199 0.8019 0.0
O418 O 0.48939 0.50581 0.71858 0.0
O419 O 0.50871 0.50245 0.65253 0.0
C420 C 0.52362 0.46994 0.69131 0.0
O421 O 0.49795 0.49354 0.851 0.0
O422 O 0.48251 0.48097 0.79075 0.0
C423 C 0.54534 0.49418 0.79512 0.0
C424 C 0.55202 0.53483 0.59742 0.0
C425 C 0.55366 0.56152 0.53568 0.0
C426 C 0.56473 0.54769 0.52724 0.0
C427 C 0.56394 0.53459 0.5578 0.0
C428 C 0.54037 0.5482 0.60475 0.0
C429 C 0.5412 0.56139 0.57424 0.0
C430 C 0.55289 0.52163 0.63221 0.0
C431 C 0.51587 0.53155 0.77175 0.0
H432 H 0.45451 0.43719 0.88729 0.0
H433 H 0.45787 0.46144 0.84073 0.0
H434 H 0.50983 0.46972 0.89847 0.0
H435 H 0.50689 0.44505 0.94361 0.0
H436 H 0.57463 0.54736 0.49855 0.0
H437 H 0.57309 0.52448 0.55146 0.0
H438 H 0.53098 0.54868 0.6349 0.0
H439 H 0.53232 0.57169 0.58155 0.0
Tb440 Tb 0.02301 0.51228 0.69163 0.0
Tb441 Tb 0.01601 0.48775 0.77713 0.0
C442 C 1.00753 0.52655 0.79814 0.0
C443 C 0.05024 0.53133 0.60631 0.0
C444 C 0.08511 0.53322 0.57981 0.0
C445 C 0.07491 0.54766 0.58346 0.0
C446 C 0.05753 0.5467 0.59668 0.0
C447 C 0.06043 0.51691 0.60294 0.0
C448 C 0.07774 0.51783 0.58947 0.0
C449 C 0.033 0.53079 0.62783 0.0
O450 O 0.0488 0.50748 0.72287 0.0
O451 O 0.04218 0.4968 0.79667 0.0
O452 O 0.03199 0.47378 0.72064 0.0
O453 O 0.02311 0.48677 0.65399 0.0
O454 O 0.01635 0.4812 0.85081 0.0
O455 O 1.00608 0.46404 0.78936 0.0
O456 O 0.99081 0.48936 0.73841 0.0
O457 O 0.99531 0.50829 0.68082 0.0
O458 O 0.01166 0.529 0.75198 0.0
O459 O 1.00871 0.51188 0.81483 0.0
C460 C 0.05348 0.50312 0.76702 0.0
O461 O 0.02419 0.51689 0.6161 0.0
O462 O 0.03266 0.53565 0.67588 0.0
C463 C 0.02999 0.47393 0.67218 0.0
C464 C 0.98946 0.46849 0.86138 0.0
C465 C 0.95488 0.46919 0.89205 0.0
C466 C 0.96408 0.45413 0.88902 0.0
C467 C 0.98135 0.45378 0.87358 0.0
C468 C 0.98023 0.48352 0.86474 0.0
C469 C 0.9631 0.48389 0.88006 0.0
C470 C 1.0065 0.46804 0.83795 0.0
C471 C 0.98517 0.49807 0.70281 0.0
H472 H 0.08046 0.55971 0.57694 0.0
H473 H 0.04993 0.55801 0.60085 0.0
H474 H 0.05512 0.505 0.61182 0.0
H475 H 0.08533 0.50652 0.58648 0.0
H476 H 0.9579 0.44266 0.89834 0.0
H477 H 0.98819 0.44203 0.86994 0.0
H478 H 0.98605 0.49493 0.85407 0.0
H479 H 0.95615 0.49556 0.88123 0.0
H480 H 0.14737 0.02716 0.29078 0.0
H481 H 0.12644 0.0265 0.35926 0.0
H482 H 0.14206 0.97647 0.38046 0.0
H483 H 0.16301 0.977 0.3117 0.0
H484 H 0.10592 0.97973 0.38539 0.0
H485 H 0.15595 0.0087 0.46004 0.0
H486 H 0.17923 0.03024 0.46895 0.0
H487 H 0.14136 0.06907 0.48691 0.0
H488 H 0.11783 0.04774 0.47716 0.0
H489 H 0.06655 0.97641 0.62698 0.0
H490 H 0.08726 0.97599 0.55735 0.0
H491 H 0.07562 0.02745 0.54069 0.0
H492 H 0.05498 0.02794 0.61016 0.0
H493 H 0.10973 0.02303 0.533 0.0
H494 H 0.05971 0.995 0.4584 0.0
H495 H 0.03585 0.97406 0.45022 0.0
H496 H 0.07259 0.93424 0.43144 0.0
H497 H 0.09672 0.95497 0.44033 0.0
C498 C 0.14633 0.01593 0.30965 0.0
C499 C 0.15707 0.00215 0.29532 0.0
C500 C 0.13435 0.01561 0.34921 0.0
C501 C 0.1326 1.00147 0.37569 0.0
C502 C 0.14306 0.98757 0.36096 0.0
C503 C 0.15521 0.98795 0.32173 0.0
C504 C 0.1202 1.00139 0.41931 0.0
C505 C 0.10694 0.98907 0.41794 0.0
C506 C 0.12105 0.01378 0.4616 0.0
C507 C 0.13514 0.02663 0.46725 0.0
C508 C 0.15259 0.02184 0.46535 0.0
C509 C 0.16583 0.03401 0.47064 0.0
C510 C 0.16178 0.05102 0.47832 0.0
C511 C 0.14448 0.05589 0.48082 0.0
C512 C 0.13118 0.04376 0.47541 0.0
C513 C 0.06844 0.98768 0.6087 0.0
C514 C 0.05895 0.00219 0.62442 0.0
C515 C 0.08025 0.98739 0.56848 0.0
C516 C 0.08301 0.00164 0.54288 0.0
C517 C 0.07381 0.01624 0.55932 0.0
C518 C 0.06189 0.01648 0.59915 0.0
C519 C 0.09543 1.00138 0.49922 0.0
C520 C 0.1087 0.01366 0.50052 0.0
C521 C 0.09447 0.98905 0.45675 0.0
C522 C 0.08003 0.97653 0.45066 0.0
C523 C 0.06272 0.98177 0.45293 0.0
C524 C 0.04914 0.96994 0.44811 0.0
C525 C 0.0527 0.95282 0.4405 0.0
C526 C 0.06986 0.94751 0.43745 0.0
C527 C 0.08349 0.95929 0.44236 0.0
H528 H 0.04217 0.94368 0.43685 0.0
H529 H 0.17206 0.06042 0.48248 0.0
H530 H 0.44445 0.15273 0.49324 0.0
H531 H 0.45298 0.12683 0.52523 0.0
H532 H 0.48767 0.1549 0.63117 0.0
H533 H 0.48016 0.18073 0.59696 0.0
H534 H 0.50364 0.12929 0.5902 0.0
H535 H 0.44753 0.13648 0.66372 0.0
H536 H 0.41591 0.14014 0.66867 0.0
H537 H 0.40791 0.09357 0.5748 0.0
H538 H 0.43948 0.0898 0.56838 0.0
H539 H 0.51638 0.06254 0.74399 0.0
H540 H 0.50735 0.08872 0.71332 0.0
H541 H 0.48383 0.06049 0.58331 0.0
H542 H 0.49325 0.03423 0.6131 0.0
H543 H 0.46229 0.08579 0.63746 0.0
H544 H 0.51887 0.07909 0.56513 0.0
H545 H 0.55044 0.07508 0.56539 0.0
H546 H 0.5573 0.12108 0.66277 0.0
H547 H 0.5257 0.12518 0.66403 0.0
C548 C 0.45399 0.15346 0.52311 0.0
C549 C 0.46167 0.16896 0.54208 0.0
C550 C 0.45867 0.13858 0.54197 0.0
C551 C 0.47086 0.13883 0.58109 0.0
C552 C 0.47822 0.15431 0.60101 0.0
C553 C 0.47373 0.16917 0.58171 0.0
C554 C 0.47666 0.12292 0.59935 0.0
C555 C 0.49454 0.11995 0.6013 0.0
C556 C 0.46487 0.11041 0.61269 0.0
C557 C 0.4459 0.11297 0.61505 0.0
C558 C 0.43904 0.12714 0.64354 0.0
C559 C 0.42111 0.12921 0.64672 0.0
C560 C 0.40991 0.11712 0.62193 0.0
C561 C 0.4166 0.10295 0.59385 0.0
C562 C 0.43451 0.10085 0.59038 0.0
C563 C 0.50935 0.06191 0.70875 0.0
C564 C 0.50553 0.04635 0.68085 0.0
C565 C 0.50425 0.07687 0.69125 0.0
C566 C 0.49497 0.07652 0.64601 0.0
C567 C 0.49102 0.061 0.61826 0.0
C568 C 0.49646 0.04604 0.63519 0.0
C569 C 0.48909 0.09236 0.62822 0.0
C570 C 0.47127 0.09525 0.6264 0.0
C571 C 0.50089 0.10485 0.61549 0.0
C572 C 0.51988 0.10231 0.61524 0.0
C573 C 0.52708 0.08824 0.58717 0.0
C574 C 0.54499 0.08597 0.58694 0.0
C575 C 0.55587 0.09778 0.61423 0.0
C576 C 0.54885 0.11191 0.64177 0.0
C577 C 0.53094 0.1142 0.64229 0.0
H578 H 0.56974 0.09602 0.6139 0.0
H579 H 0.39603 0.11872 0.62463 0.0
H580 H 0.36921 0.54543 0.36646 0.0
H581 H 0.39034 0.5433 0.43391 0.0
H582 H 0.41728 0.50521 0.33907 0.0
H583 H 0.39599 0.50678 0.27273 0.0
H584 H 0.41536 0.49499 0.42402 0.0
H585 H 0.43434 0.54667 0.37344 0.0
H586 H 0.43463 0.57591 0.35326 0.0
H587 H 0.4191 0.59295 0.5042 0.0
H588 H 0.41852 0.56377 0.52517 0.0
H589 H 0.49261 0.49373 0.56947 0.0
H590 H 0.47148 0.49871 0.5051 0.0
H591 H 0.44054 0.52716 0.61717 0.0
H592 H 0.4618 0.52207 0.6825 0.0
H593 H 0.44448 0.54285 0.52605 0.0
H594 H 0.42715 0.48805 0.57132 0.0
H595 H 0.43236 0.45869 0.58565 0.0
H596 H 0.4503 0.44791 0.43374 0.0
H597 H 0.44533 0.47725 0.41869 0.0
C598 C 0.37956 0.53651 0.35988 0.0
C599 C 0.38065 0.52629 0.31339 0.0
C600 C 0.39187 0.53546 0.39856 0.0
C601 C 0.40571 0.52414 0.39219 0.0
C602 C 0.40686 0.51407 0.3457 0.0
C603 C 0.39463 0.51511 0.3072 0.0
C604 C 0.41834 0.52193 0.43441 0.0
C605 C 0.42178 0.50557 0.44572 0.0
C606 C 0.42689 0.53553 0.46386 0.0
C607 C 0.42609 0.55297 0.45062 0.0
C608 C 0.43068 0.55661 0.4021 0.0
C609 C 0.43099 0.57319 0.39059 0.0
C610 C 0.4268 0.58627 0.42735 0.0
C611 C 0.42227 0.58279 0.4757 0.0
C612 C 0.42195 0.56623 0.48741 0.0
C613 C 0.48129 0.501 0.5808 0.0
C614 C 0.47897 0.50739 0.63164 0.0
C615 C 0.46913 0.50383 0.54367 0.0
C616 C 0.45422 0.51326 0.55579 0.0
C617 C 0.45187 0.51981 0.6065 0.0
C618 C 0.46398 0.51677 0.64403 0.0
C619 C 0.44119 0.51603 0.51542 0.0
C620 C 0.4378 0.53242 0.50442 0.0
C621 C 0.43307 0.50247 0.48509 0.0
C622 C 0.43597 0.48484 0.49401 0.0
C623 C 0.4323 0.47943 0.54109 0.0
C624 C 0.43519 0.46279 0.54931 0.0
C625 C 0.44168 0.45145 0.51066 0.0
C626 C 0.44527 0.45671 0.46365 0.0
C627 C 0.44239 0.47332 0.45522 0.0
H628 H 0.44392 0.43858 0.51711 0.0
H629 H 0.42714 0.5991 0.41844 0.0
H630 H 0.102 0.3496 0.39578 0.0
H631 H 0.09537 0.37455 0.45392 0.0
H632 H 0.04774 0.38034 0.37353 0.0
H633 H 0.05474 0.35593 0.31426 0.0
H634 H 0.06095 0.41021 0.40266 0.0
H635 H 0.05047 0.35999 0.48502 0.0
H636 H 0.05999 0.33328 0.51273 0.0
H637 H 0.09965 0.35957 0.60452 0.0
H638 H 0.09054 0.3864 0.57665 0.0
H639 H 0.01421 0.46047 0.58568 0.0
H640 H 0.02383 0.43695 0.52676 0.0
H641 H 0.06882 0.43189 0.61957 0.0
H642 H 0.05842 0.45463 0.68056 0.0
H643 H 0.0589 0.40256 0.58406 0.0
H644 H 0.06893 0.45299 0.50677 0.0
H645 H 0.05961 0.47998 0.48072 0.0
H646 H 0.02194 0.4542 0.38054 0.0
H647 H 0.03084 0.42706 0.40664 0.0
C648 C 0.09015 0.35623 0.39058 0.0
C649 C 0.0788 0.35068 0.35082 0.0
C650 C 0.08634 0.37051 0.42378 0.0
C651 C 0.07082 0.3792 0.41897 0.0
C652 C 0.05976 0.37391 0.37833 0.0
C653 C 0.06373 0.35988 0.34457 0.0
C654 C 0.06551 0.3931 0.45769 0.0
C655 C 0.06041 0.40849 0.44226 0.0
C656 C 0.06509 0.39112 0.50967 0.0
C657 C 0.06989 0.37515 0.52857 0.0
C658 C 0.0612 0.36006 0.51117 0.0
C659 C 0.06656 0.3449 0.52679 0.0
C660 C 0.08043 0.34473 0.56031 0.0
C661 C 0.08891 0.35973 0.57854 0.0
C662 C 0.08365 0.37491 0.56288 0.0
C663 C 0.02612 0.45427 0.5935 0.0
C664 C 0.03569 0.45947 0.63728 0.0
C665 C 0.0317 0.44088 0.55964 0.0
C666 C 0.04741 0.43291 0.56757 0.0
C667 C 0.05674 0.43785 0.61215 0.0
C668 C 0.05084 0.45089 0.64694 0.0
C669 C 0.05422 0.41965 0.5291 0.0
C670 C 0.05958 0.40438 0.54455 0.0
C671 C 0.05502 0.42183 0.47723 0.0
C672 C 0.05053 0.43799 0.45875 0.0
C673 C 0.0587 0.45307 0.47903 0.0
C674 C 0.05345 0.4684 0.4644 0.0
C675 C 0.04018 0.4688 0.42901 0.0
C676 C 0.03223 0.45386 0.40791 0.0
C677 C 0.03739 0.4385 0.42255 0.0
H678 H 0.03607 0.48069 0.41792 0.0
H679 H 0.0846 0.33298 0.57221 0.0
H680 H 0.90242 0.00335 0.21604 0.0
H681 H 0.92398 0.00319 0.1495 0.0
H682 H 0.88343 0.00581 0.04011 0.0
H683 H 0.86172 0.00649 0.10655 0.0
H684 H 0.90674 0.98312 0.00476 0.0
H685 H 0.91073 0.04028 0.08666 0.0
H686 H 0.916 0.06261 0.15652 0.0
H687 H 0.96729 0.04441 0.17609 0.0
H688 H 0.96222 0.0218 0.10696 0.0
H689 H 0.95894 0.00223 0.79665 0.0
H690 H 0.93756 0.00238 0.8646 0.0
H691 H 0.9789 0.00368 0.97354 0.0
H692 H 1.00018 0.00374 0.90635 0.0
H693 H 0.95571 0.02406 0.0104 0.0
H694 H 0.95392 0.96772 0.93656 0.0
H695 H 0.95108 0.94384 0.87034 0.0
H696 H 0.89879 0.95761 0.84154 0.0
H697 H 0.90143 0.98179 0.907 0.0
C698 C 0.89793 0.00419 0.1781 0.0
C699 C 0.88001 0.00507 0.1676 0.0
C700 C 0.91043 0.00402 0.13972 0.0
C701 C 0.90553 0.0047 0.0893 0.0
C702 C 0.88771 0.00529 0.07846 0.0
C703 C 0.8752 0.00557 0.11685 0.0
C704 C 0.91882 0.0045 0.04775 0.0
C705 C 0.91728 0.99227 0.00576 0.0
C706 C 0.93318 0.01588 0.04948 0.0
C707 C 0.936 0.02921 0.09199 0.0
C708 C 0.92305 0.04091 0.10626 0.0
C709 C 0.92602 0.05364 0.14566 0.0
C710 C 0.94195 0.0549 0.17082 0.0
C711 C 0.95494 0.0434 0.15667 0.0
C712 C 0.95201 0.03062 0.11741 0.0
C713 C 0.9635 0.00257 0.83506 0.0
C714 C 0.9814 0.00296 0.84556 0.0
C715 C 0.95121 0.00255 0.87408 0.0
C716 C 0.95645 0.00288 0.92476 0.0
C717 C 0.97433 0.00344 0.93516 0.0
C718 C 0.98657 0.00341 0.89632 0.0
C719 C 0.94347 0.00285 0.96704 0.0
C720 C 0.94513 0.01495 0.00924 0.0
C721 C 0.92951 0.99107 0.96621 0.0
C722 C 0.92795 0.97671 0.92625 0.0
C723 C 0.94188 0.96578 0.91572 0.0
C724 C 0.9403 0.95217 0.87838 0.0
C725 C 0.92479 0.94924 0.85163 0.0
C726 C 0.91082 0.95992 0.86219 0.0
C727 C 0.91235 0.97359 0.8994 0.0
H728 H 0.92357 0.93867 0.82281 0.0
H729 H 0.94424 0.0648 0.20119 0.0
H730 H 0.59102 0.84999 0.98964 0.0
H731 H 0.58541 0.87632 0.95445 0.0
H732 H 0.54746 0.85073 0.85329 0.0
H733 H 0.55367 0.82437 0.88671 0.0
H734 H 0.56414 0.87088 0.80461 0.0
H735 H 0.53812 0.87694 0.96936 0.0
H736 H 0.5373 0.87816 0.06185 0.0
H737 H 0.57425 0.91906 0.07465 0.0
H738 H 0.57555 0.91786 0.98222 0.0
H739 H 0.51705 0.94197 0.7451 0.0
H740 H 0.52677 0.91581 0.77363 0.0
H741 H 0.56666 0.94309 0.86346 0.0
H742 H 0.5568 0.96935 0.83591 0.0
H743 H 0.55054 0.9225 0.91656 0.0
H744 H 0.57473 0.91742 0.75044 0.0
H745 H 0.57472 0.91625 0.65795 0.0
H746 H 0.54 0.8736 0.64723 0.0
H747 H 0.53952 0.8747 0.73969 0.0
C748 C 0.58145 0.85006 0.96001 0.0
C749 C 0.5727 0.83518 0.94113 0.0
C750 C 0.5782 0.86512 0.93996 0.0
C751 C 0.56574 0.86568 0.90172 0.0
C752 C 0.55713 0.85072 0.88268 0.0
C753 C 0.56064 0.83565 0.90194 0.0
C754 C 0.56147 0.88175 0.88158 0.0
C755 C 0.56097 0.88211 0.82917 0.0
C756 C 0.55774 0.89661 0.91335 0.0
C757 C 0.55709 0.89717 0.96888 0.0
C758 C 0.54619 0.88608 0.9919 0.0
C759 C 0.54563 0.88678 0.04431 0.0
C760 C 0.55575 0.89864 0.0741 0.0
C761 C 0.56645 0.90984 0.05154 0.0
C762 C 0.56712 0.90915 0.99916 0.0
C763 C 0.52791 0.94243 0.77091 0.0
C764 C 0.53605 0.95783 0.78854 0.0
C765 C 0.53356 0.9274 0.78684 0.0
C766 C 0.5476 0.9274 0.8203 0.0
C767 C 0.55582 0.94274 0.83759 0.0
C768 C 0.55014 0.95778 0.82185 0.0
C769 C 0.55309 0.9116 0.83972 0.0
C770 C 0.55379 0.91129 0.892 0.0
C771 C 0.55684 0.89679 0.80777 0.0
C772 C 0.55695 0.89627 0.75211 0.0
C773 C 0.56694 0.9079 0.72842 0.0
C774 C 0.56705 0.90723 0.67597 0.0
C775 C 0.55733 0.89489 0.64674 0.0
C776 C 0.54749 0.88318 0.66991 0.0
C777 C 0.5473 0.88383 0.72234 0.0
H778 H 0.55746 0.89437 0.60615 0.0
H779 H 0.55527 0.89919 0.11468 0.0
H780 H 0.63774 0.46201 0.18641 0.0
H781 H 0.61646 0.46568 0.12162 0.0
H782 H 0.65573 0.48825 0.03537 0.0
H783 H 0.67685 0.48582 0.10191 0.0
H784 H 0.62842 0.50523 0.02934 0.0
H785 H 0.63598 0.44432 0.01161 0.0
H786 H 0.63476 0.41599 0.0393 0.0
H787 H 0.58075 0.42182 0.07395 0.0
H788 H 0.5817 0.45024 0.0472 0.0
H789 H 0.57976 0.50503 0.80144 0.0
H790 H 0.60114 0.50094 0.86661 0.0
H791 H 0.5626 0.47433 0.94498 0.0
H792 H 0.54168 0.47756 0.87883 0.0
H793 H 0.58917 0.45935 0.95629 0.0
H794 H 0.57916 0.51793 0.98072 0.0
H795 H 0.57721 0.54703 0.96001 0.0
H796 H 0.63144 0.54738 0.92442 0.0
H797 H 0.63364 0.51816 0.94405 0.0
C798 C 0.64199 0.46796 0.15414 0.0
C799 C 0.65936 0.47365 0.15054 0.0
C800 C 0.62969 0.46979 0.11615 0.0
C801 C 0.63428 0.47699 0.07224 0.0
C802 C 0.65161 0.48256 0.06831 0.0
C803 C 0.66387 0.48095 0.10659 0.0
C804 C 0.62113 0.47929 0.03126 0.0
C805 C 0.62006 0.49505 0.01291 0.0
C806 C 0.60935 0.46644 0.01085 0.0
C807 C 0.60898 0.44948 0.02787 0.0
C808 C 0.6239 0.43962 0.02558 0.0
C809 C 0.62324 0.42353 0.04104 0.0
C810 C 0.6077 0.41713 0.05849 0.0
C811 C 0.59279 0.4268 0.06054 0.0
C812 C 0.59338 0.44289 0.04525 0.0
C813 C 0.57586 0.49823 0.83241 0.0
C814 C 0.55886 0.49162 0.8343 0.0
C815 C 0.58812 0.49602 0.87031 0.0
C816 C 0.58368 0.48753 0.91217 0.0
C817 C 0.56669 0.48089 0.91368 0.0
C818 C 0.55458 0.48281 0.87548 0.0
C819 C 0.59658 0.48525 0.95387 0.0
C820 C 0.59756 0.46954 0.97249 0.0
C821 C 0.60784 0.4983 0.97576 0.0
C822 C 0.60651 0.51578 0.96324 0.0
C823 C 0.59063 0.52415 0.96798 0.0
C824 C 0.58948 0.54068 0.95651 0.0
C825 C 0.60418 0.54903 0.94074 0.0
C826 C 0.62005 0.54088 0.93649 0.0
C827 C 0.62126 0.52433 0.94775 0.0
H828 H 0.60327 0.56183 0.93196 0.0
H829 H 0.60722 0.40466 0.07032 0.0
H830 H 0.96106 0.63545 0.16825 0.0
H831 H 0.96699 0.61092 0.10835 0.0
H832 H 0.97448 0.64298 0.99091 0.0
H833 H 0.96856 0.66761 0.05068 0.0
H834 H 0.95679 0.61511 0.956 0.0
H835 H 1.00825 0.6274 0.05899 0.0
H836 H 0.02522 0.63109 0.13773 0.0
H837 H 0.01255 0.58053 0.16445 0.0
H838 H 0.99515 0.57666 0.08655 0.0
H839 H 1.00304 0.55929 0.77976 0.0
H840 H 0.99384 0.5829 0.83921 0.0
H841 H 0.98902 0.55003 0.95558 0.0
H842 H 0.99845 0.5265 0.89693 0.0
H843 H 1.00462 0.57768 0.99207 0.0
H844 H 0.95397 0.56401 0.89478 0.0
H845 H 0.93619 0.55836 0.81803 0.0
H846 H 0.94522 0.60884 0.78418 0.0
H847 H 0.96345 0.61469 0.86011 0.0
C848 C 0.96399 0.63732 0.12968 0.0
C849 C 0.96454 0.6536 0.11454 0.0
C850 C 0.96738 0.62324 0.09542 0.0
C851 C 0.97156 0.62508 0.04523 0.0
C852 C 0.97139 0.64121 0.02946 0.0
C853 C 0.96793 0.65531 0.06369 0.0
C854 C 0.97649 0.6103 0.00934 0.0
C855 C 0.9674 0.60705 0.96364 0.0
C856 C 0.98991 0.59934 0.01998 0.0
C857 C 1.0002 0.60182 0.06722 0.0
C858 C 1.0089 0.61713 0.08195 0.0
C859 C 0.01862 0.61925 0.12643 0.0
C860 C 0.01991 0.60607 0.15616 0.0
C861 C 0.01149 0.59075 0.1415 0.0
C862 C 1.00168 0.5886 0.09724 0.0
C863 C 0.99997 0.55706 0.81796 0.0
C864 C 1.00147 0.54093 0.8334 0.0
C865 C 0.99464 0.57058 0.85191 0.0
C866 C 0.99056 0.56826 0.9019 0.0
C867 C 0.99208 0.55218 0.91731 0.0
C868 C 0.99743 0.53869 0.88352 0.0
C869 C 0.98503 0.58257 0.93858 0.0
C870 C 0.994 0.58572 0.98441 0.0
C871 C 0.97127 0.59319 0.92854 0.0
C872 C 0.96028 0.58973 0.88287 0.0
C873 C 0.95233 0.57387 0.87071 0.0
C874 C 0.94215 0.57062 0.82735 0.0
C875 C 0.93962 0.58322 0.79616 0.0
C876 C 0.94724 0.59909 0.80831 0.0
C877 C 0.95752 0.60237 0.85148 0.0
H878 H 0.93171 0.58069 0.76264 0.0
H879 H 0.02749 0.60772 0.19049 0.0
H880 H 0.05445 0.20167 0.37704 0.0
H881 H 0.04236 0.17964 0.42265 0.0
H882 H 0.09169 0.17507 0.49579 0.0
H883 H 0.10418 0.19658 0.44704 0.0
H884 H 0.07873 0.1454 0.46912 0.0
H885 H 0.05535 0.1948 0.5601 0.0
H886 H 0.04131 0.22235 0.56594 0.0
H887 H 0.99571 0.19938 0.49415 0.0
H888 H 0.00954 0.1717 0.48756 0.0
H889 H 0.04024 0.09302 0.63645 0.0
H890 H 0.05357 0.11806 0.60759 0.0
H891 H 0.01126 0.12107 0.50381 0.0
H892 H 0.99799 0.09576 0.53152 0.0
H893 H 0.02195 0.15256 0.55528 0.0
H894 H 0.04654 0.10371 0.45987 0.0
H895 H 0.06103 0.07638 0.45177 0.0
H896 H 0.10505 0.09883 0.53334 0.0
H897 H 0.09068 0.12628 0.54256 0.0
C898 C 0.06262 0.19618 0.40358 0.0
C899 C 0.08009 0.20105 0.40964 0.0
C900 C 0.0557 0.1836 0.42973 0.0
C901 C 0.06595 0.17602 0.46391 0.0
C902 C 0.08349 0.18087 0.47005 0.0
C903 C 0.09057 0.19321 0.44267 0.0
C904 C 0.05832 0.16267 0.49164 0.0
C905 C 0.06652 0.14711 0.48894 0.0
C906 C 0.04222 0.16476 0.51681 0.0
C907 C 0.03348 0.18119 0.52337 0.0
C908 C 0.04231 0.19562 0.54573 0.0
C909 C 0.0344 0.21126 0.54908 0.0
C910 C 0.01762 0.21261 0.53043 0.0
C911 C 1.00868 0.1983 0.5087 0.0
C912 C 0.01652 0.18263 0.50532 0.0
C913 C 0.03376 0.09898 0.60742 0.0
C914 C 0.01814 0.09226 0.5858 0.0
C915 C 0.04135 0.11333 0.59126 0.0
C916 C 0.03345 0.12127 0.55331 0.0
C917 C 0.0175 0.1151 0.53325 0.0
C918 C 0.00993 0.10067 0.54922 0.0
C919 C 0.04234 0.13538 0.53238 0.0
C920 C 0.03433 0.15102 0.53628 0.0
C921 C 0.05868 0.13341 0.50873 0.0
C922 C 0.06747 0.117 0.50232 0.0
C923 C 0.05926 0.1028 0.47635 0.0
C924 C 0.06746 0.08729 0.47153 0.0
C925 C 0.08394 0.08586 0.49214 0.0
C926 C 0.09228 0.09996 0.51745 0.0
C927 C 0.08412 0.11549 0.52245 0.0
H928 H 0.09026 0.07384 0.48841 0.0
H929 H 0.01156 0.22474 0.53281 0.0
H930 H 0.33208 0.01517 0.30345 0.0
H931 H 0.35465 0.00767 0.36072 0.0
H932 H 0.31602 0.98589 0.45136 0.0
H933 H 0.29333 0.99313 0.39382 0.0
H934 H 0.34383 0.00906 0.50301 0.0
H935 H 0.33553 0.95836 0.38926 0.0
H936 H 0.33065 0.94353 0.3044 0.0
H937 H 0.37892 0.96326 0.25475 0.0
H938 H 0.384 0.97833 0.33923 0.0
H939 H 0.42111 0.97456 0.6114 0.0
H940 H 0.39112 0.97777 0.58254 0.0
H941 H 0.41066 0.99634 0.4477 0.0
H942 H 0.4404 0.99323 0.47659 0.0
H943 H 0.38778 0.96878 0.43102 0.0
H944 H 0.39159 0.02489 0.52378 0.0
H945 H 0.3943 0.04693 0.59572 0.0
H946 H 0.35598 0.02144 0.67676 0.0
H947 H 0.35279 0.99945 0.6047 0.0
C948 C 0.32845 0.0088 0.33559 0.0
C949 C 0.31111 0.00467 0.34443 0.0
C950 C 0.34124 0.0046 0.36816 0.0
C951 C 0.33678 0.99617 0.40953 0.0
C952 C 0.31949 0.99244 0.41943 0.0
C953 C 0.30666 0.99661 0.38678 0.0
C954 C 0.35054 0.99084 0.4411 0.0
C955 C 0.35321 0.99983 0.4884 0.0
C956 C 0.36273 0.9791 0.42074 0.0
C957 C 0.36015 0.96943 0.37057 0.0
C958 C 0.3451 0.95952 0.36023 0.0
C959 C 0.3423 0.95108 0.3122 0.0
C960 C 0.35448 0.95244 0.27422 0.0
C961 C 0.36953 0.96217 0.28426 0.0
C962 C 0.3724 0.97062 0.33226 0.0
C963 C 0.4188 0.97938 0.57581 0.0
C964 C 0.43267 0.98352 0.54551 0.0
C965 C 0.40185 0.98132 0.55969 0.0
C966 C 0.39891 0.98721 0.51315 0.0
C967 C 0.41285 0.99173 0.4837 0.0
C968 C 0.42969 0.98993 0.49994 0.0
C969 C 0.38144 0.98748 0.49242 0.0
C970 C 0.37806 0.97742 0.44705 0.0
C971 C 0.36878 0.99851 0.51408 0.0
C972 C 0.37216 0.01044 0.55938 0.0
C973 C 0.38397 0.02386 0.55731 0.0
C974 C 0.38544 0.03643 0.59781 0.0
C975 C 0.3753 0.03558 0.64074 0.0
C976 C 0.36381 0.02207 0.64346 0.0
C977 C 0.36212 0.00959 0.60277 0.0
H978 H 0.37629 0.04542 0.67183 0.0
H979 H 0.35225 0.94595 0.237 0.0
H980 H 0.43004 0.34325 0.66167 0.0
H981 H 0.44495 0.36962 0.69138 0.0
H982 H 0.49394 0.34456 0.68093 0.0
H983 H 0.47947 0.31846 0.64952 0.0
H984 H 0.49227 0.3755 0.75496 0.0
H985 H 0.4784 0.35396 0.57449 0.0
H986 H 0.45678 0.34491 0.50842 0.0
H987 H 0.42894 0.39054 0.54579 0.0
H988 H 0.45034 0.39975 0.61229 0.0
H989 H 0.54501 0.44362 0.7031 0.0
H990 H 0.53443 0.41438 0.69471 0.0
H991 H 0.48735 0.42998 0.62654 0.0
H992 H 0.4992 0.45787 0.62728 0.0
H993 H 0.48833 0.40228 0.59724 0.0
H994 H 0.49986 0.42769 0.76864 0.0
H995 H 0.51884 0.43927 0.83878 0.0
H996 H 0.54441 0.39209 0.83548 0.0
H997 H 0.52634 0.38049 0.76336 0.0
C998 C 0.44393 0.34318 0.66736 0.0
C999 C 0.45359 0.32884 0.65102 0.0
C1000 C 0.4524 0.35826 0.68489 0.0
C1001 C 0.47056 0.35905 0.68692 0.0
C1002 C 0.47991 0.34419 0.67923 0.0
C1003 C 0.47151 0.32917 0.6612 0.0
C1004 C 0.47986 0.37507 0.68295 0.0
C1005 C 0.49136 0.38163 0.72095 0.0
C1006 C 0.47849 0.38302 0.63872 0.0
C1007 C 0.46583 0.37744 0.59847 0.0
C1008 C 0.46762 0.362 0.56868 0.0
C1009 C 0.45542 0.35686 0.53115 0.0
C1010 C 0.44147 0.36712 0.523 0.0
C1011 C 0.43972 0.38258 0.5522 0.0
C1012 C 0.45188 0.38777 0.58975 0.0
C1013 C 0.53302 0.44035 0.68299 0.0
C1014 C 0.52282 0.45286 0.66594 0.0
C1015 C 0.52662 0.42378 0.67991 0.0
C1016 C 0.50955 0.41996 0.66287 0.0
C1017 C 0.50046 0.43225 0.64044 0.0
C1018 C 0.5073 0.44833 0.64049 0.0
C1019 C 0.50036 0.40392 0.67074 0.0
C1020 C 0.48909 0.39687 0.63252 0.0
C1021 C 0.50124 0.39629 0.71628 0.0
C1022 C 0.51189 0.40329 0.76014 0.0
C1023 C 0.5096 0.41981 0.78266 0.0
C1024 C 0.5202 0.42639 0.82278 0.0
C1025 C 0.53269 0.4164 0.8419 0.0
C1026 C 0.53473 0.39983 0.82065 0.0
C1027 C 0.52441 0.39328 0.7799 0.0
H1028 H 0.54083 0.42151 0.87309 0.0
H1029 H 0.43203 0.36311 0.494 0.0
H1030 H 0.21335 0.54786 0.32185 0.0
H1031 H 0.19005 0.55105 0.38346 0.0
H1032 H 0.21933 0.52329 0.48309 0.0
H1033 H 0.2427 0.51987 0.42065 0.0
H1034 H 0.18704 0.51022 0.46016 0.0
H1035 H 0.21133 0.56477 0.51831 0.0
H1036 H 0.22354 0.59274 0.50735 0.0
H1037 H 0.17654 0.60537 0.43544 0.0
H1038 H 0.16411 0.57743 0.44554 0.0
H1039 H 0.11289 0.51899 0.62061 0.0
H1040 H 0.14295 0.51963 0.59155 0.0
H1041 H 0.12796 0.55001 0.47583 0.0
H1042 H 0.09802 0.54926 0.50407 0.0
H1043 H 0.1564 0.56216 0.52407 0.0
H1044 H 0.13363 0.50912 0.44934 0.0
H1045 H 0.1206 0.48072 0.44504 0.0
H1046 H 0.1631 0.46462 0.53039 0.0
H1047 H 0.17622 0.49304 0.5361 0.0
C1048 C 0.21486 0.5427 0.35731 0.0
C1049 C 0.22952 0.53352 0.36694 0.0
C1050 C 0.20172 0.54469 0.39257 0.0
C1051 C 0.20321 0.5376 0.43788 0.0
C1052 C 0.21819 0.52899 0.44842 0.0
C1053 C 0.23141 0.52704 0.41306 0.0
C1054 C 0.18807 0.53726 0.47045 0.0
C1055 C 0.18055 0.52154 0.47575 0.0
C1056 C 0.17944 0.55211 0.48834 0.0
C1057 C 0.1868 0.56901 0.48275 0.0
C1058 C 0.20363 0.5735 0.50003 0.0
C1059 C 0.21058 0.58935 0.49398 0.0
C1060 C 0.20082 0.60082 0.47074 0.0
C1061 C 0.18407 0.59648 0.45355 0.0
C1062 C 0.17705 0.58066 0.45956 0.0
C1063 C 0.11607 0.52573 0.58884 0.0
C1064 C 0.10326 0.5341 0.56442 0.0
C1065 C 0.13315 0.52609 0.57247 0.0
C1066 C 0.13748 0.53482 0.53166 0.0
C1067 C 0.12476 0.54333 0.5077 0.0
C1068 C 0.10774 0.54295 0.52392 0.0
C1069 C 0.15526 0.53512 0.51313 0.0
C1070 C 0.16317 0.55082 0.51024 0.0
C1071 C 0.16399 0.52024 0.49587 0.0
C1072 C 0.15573 0.50332 0.49407 0.0
C1073 C 0.14005 0.49962 0.46798 0.0
C1074 C 0.13268 0.48349 0.46509 0.0
C1075 C 0.14096 0.4709 0.48766 0.0
C1076 C 0.15664 0.47441 0.51315 0.0
C1077 C 0.16403 0.49053 0.51631 0.0
H1078 H 0.13528 0.45841 0.4852 0.0
H1079 H 0.20624 0.61308 0.46606 0.0
H1080 H 0.9391 0.81417 0.057 0.0
H1081 H 0.95037 0.83549 0.00679 0.0
H1082 H 0.99927 0.81018 0.99264 0.0
H1083 H 0.98846 0.78932 0.04479 0.0
H1084 H 1.00302 0.84192 0.03339 0.0
H1085 H 0.97306 0.81326 0.89197 0.0
H1086 H 0.94838 0.80025 0.84273 0.0
H1087 H 0.9225 0.84751 0.85635 0.0
H1088 H 0.94682 0.86073 0.9068 0.0
H1089 H 0.04285 0.8988 0.87882 0.0
H1090 H 0.03044 0.87324 0.9068 0.0
H1091 H 0.98265 0.89872 0.9436 0.0
H1092 H 0.99517 0.92464 0.91904 0.0
H1093 H 0.9788 0.86611 0.88627 0.0
H1094 H 1.00639 0.89394 0.03321 0.0
H1095 H 0.02985 0.90738 0.0867 0.0
H1096 H 0.05881 0.86189 0.06628 0.0
H1097 H 0.03571 0.84829 0.01151 0.0
C1098 C 0.95217 0.81297 0.04254 0.0
C1099 C 0.96295 0.80014 0.05571 0.0
C1100 C 0.95852 0.82509 0.01334 0.0
C1101 C 0.97568 0.82445 0.99612 0.0
C1102 C 0.98599 0.81091 0.00568 0.0
C1103 C 0.97971 0.79888 0.03518 0.0
C1104 C 0.98365 0.83902 0.97487 0.0
C1105 C 0.99795 0.84695 1.00044 0.0
C1106 C 0.97655 0.84599 0.93322 0.0
C1107 C 0.96173 0.83796 0.90372 0.0
C1108 C 0.96201 0.82084 0.88511 0.0
C1109 C 0.94809 0.81343 0.85686 0.0
C1110 C 0.93386 0.82304 0.84652 0.0
C1111 C 0.93351 0.84007 0.86448 0.0
C1112 C 0.94736 0.84753 0.89295 0.0
C1113 C 0.02981 0.89914 0.89368 0.0
C1114 C 0.0201 0.91394 0.89667 0.0
C1115 C 0.02269 0.88443 0.90912 0.0
C1116 C 1.00564 0.88415 0.92705 0.0
C1117 C 0.99579 0.89871 0.92942 0.0
C1118 C 1.00299 0.91351 0.91502 0.0
C1119 C 0.9982 0.86875 0.94456 0.0
C1120 C 0.98396 0.86082 0.91865 0.0
C1121 C 1.00521 0.86181 0.98623 0.0
C1122 C 0.01945 0.8702 0.01741 0.0
C1123 C 0.0179 0.8869 0.03926 0.0
C1124 C 0.03111 0.89452 0.07001 0.0
C1125 C 0.04585 0.88552 0.07969 0.0
C1126 C 0.04742 0.86888 0.05855 0.0
C1127 C 0.0343 0.86122 0.02756 0.0
H1128 H 0.05601 0.89142 0.10375 0.0
H1129 H 0.92312 0.81729 0.82449 0.0
H1130 H 0.72867 0.02533 0.15497 0.0
H1131 H 0.70214 0.02878 0.10732 0.0
H1132 H 0.71295 0.98353 0.0101 0.0
H1133 H 0.73934 0.97968 0.05901 0.0
H1134 H 0.70003 0.01876 0.9694 0.0
H1135 H 0.68849 0.97368 0.07442 0.0
H1136 H 0.68804 0.96065 0.15357 0.0
H1137 H 0.65763 1.00114 0.22338 0.0
H1138 H 0.6583 0.01463 0.14499 0.0
H1139 H 0.61404 0.00676 0.8709 0.0
H1140 H 0.64284 1.00149 0.90264 0.0
H1141 H 0.63292 0.03483 0.03737 0.0
H1142 H 0.60366 0.03944 0.00719 0.0
H1143 H 0.64576 0.00317 0.05386 0.0
H1144 H 0.66619 0.05178 0.96588 0.0
H1145 H 0.66162 0.06664 0.89105 0.0
H1146 H 0.67006 0.02086 0.79516 0.0
H1147 H 0.67564 0.00606 0.86926 0.0
C1148 C 0.72563 0.01643 0.12245 0.0
C1149 C 0.736 0.00239 0.10973 0.0
C1150 C 0.7105 0.01833 0.09573 0.0
C1151 C 0.7058 0.00634 0.05577 0.0
C1152 C 0.7166 0.99284 0.04102 0.0
C1153 C 0.73158 0.99071 0.06853 0.0
C1154 C 0.68896 0.00751 0.0319 0.0
C1155 C 0.68818 0.01503 0.98723 0.0
C1156 C 0.67361 0.00313 0.05642 0.0
C1157 C 0.67376 0.99533 0.10411 0.0
C1158 C 0.68203 0.97998 0.10694 0.0
C1159 C 0.68165 0.97247 0.15161 0.0
C1160 C 0.67289 0.9801 0.19357 0.0
C1161 C 0.66449 0.99527 0.19095 0.0
C1162 C 0.66489 0.00287 0.14643 0.0
C1163 C 0.61802 0.01297 0.90728 0.0
C1164 C 0.60668 0.02342 0.9369 0.0
C1165 C 0.63447 0.01008 0.92501 0.0
C1166 C 0.63986 0.01791 0.97195 0.0
C1167 C 0.62881 0.02874 1.00096 0.0
C1168 C 0.61226 0.03149 0.98351 0.0
C1169 C 0.65689 0.01435 0.99161 0.0
C1170 C 0.65767 0.00656 0.03565 0.0
C1171 C 0.67219 0.01865 0.96716 0.0
C1172 C 0.67149 0.02793 0.92275 0.0
C1173 C 0.66753 0.04506 0.92866 0.0
C1174 C 0.66481 0.05346 0.88643 0.0
C1175 C 0.66574 0.04476 0.83828 0.0
C1176 C 0.66975 0.02771 0.83228 0.0
C1177 C 0.6729 0.01935 0.87434 0.0
H1178 H 0.66314 0.05119 0.80575 0.0
H1179 H 0.67254 0.97422 0.22804 0.0
H1180 H 0.55531 0.68514 0.82266 0.0
H1181 H 0.54374 0.65784 0.78891 0.0
H1182 H 0.59506 0.63736 0.78912 0.0
H1183 H 0.60695 0.66502 0.81793 0.0
H1184 H 0.57678 0.61682 0.73424 0.0
H1185 H 0.5707 0.64396 0.8991 0.0
H1186 H 0.56287 0.66669 0.96462 0.0
H1187 H 0.50914 0.65954 0.92465 0.0
H1188 H 0.5167 0.63699 0.85808 0.0
H1189 H 0.54398 0.53995 0.83007 0.0
H1190 H 0.55847 0.56764 0.84118 0.0
H1191 H 0.51655 0.5882 0.76209 0.0
H1192 H 0.50209 0.56059 0.75102 0.0
H1193 H 0.53233 0.60731 0.86254 0.0
H1194 H 0.55819 0.59018 0.66575 0.0
H1195 H 0.5759 0.56969 0.61332 0.0
H1196 H 0.60058 0.55534 0.74501 0.0
H1197 H 0.58408 0.57667 0.798 0.0
C1198 C 0.56435 0.67517 0.81229 0.0
C1199 C 0.58195 0.67693 0.82589 0.0
C1200 C 0.55763 0.65943 0.79365 0.0
C1201 C 0.56839 0.64541 0.79014 0.0
C1202 C 0.5864 0.64791 0.79334 0.0
C1203 C 0.59319 0.66376 0.8101 0.0
C1204 C 0.56095 0.62848 0.79414 0.0
C1205 C 0.56703 0.61481 0.7622 0.0
C1206 C 0.54898 0.62561 0.83269 0.0
C1207 C 0.54428 0.63894 0.87323 0.0
C1208 C 0.55722 0.64729 0.90413 0.0
C1209 C 0.55284 0.66015 0.9414 0.0
C1210 C 0.53552 0.66458 0.94871 0.0
C1211 C 0.52255 0.65612 0.91884 0.0
C1212 C 0.52688 0.64331 0.88128 0.0
C1213 C 0.53762 0.55058 0.81683 0.0
C1214 C 0.52185 0.54842 0.79052 0.0
C1215 C 0.54605 0.56623 0.82221 0.0
C1216 C 0.53872 0.57973 0.80122 0.0
C1217 C 0.52244 0.57779 0.77786 0.0
C1218 C 0.51412 0.56216 0.77207 0.0
C1219 C 0.54794 0.59591 0.80196 0.0
C1220 C 0.54207 0.60946 0.83462 0.0
C1221 C 0.56106 0.59849 0.76683 0.0
C1222 C 0.56942 0.58449 0.73588 0.0
C1223 C 0.56717 0.58243 0.68351 0.0
C1224 C 0.57705 0.57075 0.65368 0.0
C1225 C 0.58887 0.5608 0.6758 0.0
C1226 C 0.59114 0.56277 0.72794 0.0
C1227 C 0.5816 0.57471 0.7579 0.0
H1228 H 0.59648 0.55178 0.65246 0.0
H1229 H 0.53215 0.67454 0.97759 0.0
H1230 H 0.80171 0.44223 0.04872 0.0
H1231 H 0.82628 0.44515 0.99178 0.0
H1232 H 0.8437 0.48968 0.08567 0.0
H1233 H 0.81917 0.48679 0.14201 0.0
H1234 H 0.84858 0.49241 0.98656 0.0
H1235 H 0.85921 0.45398 0.10714 0.0
H1236 H 0.85349 0.42945 0.15283 0.0
H1237 H 0.85732 0.39672 0.01488 0.0
H1238 H 0.86275 0.42113 0.96818 0.0
H1239 H 0.93986 0.49215 0.95994 0.0
H1240 H 0.90974 0.49244 0.98751 0.0
H1241 H 0.89885 0.44786 0.88531 0.0
H1242 H 0.92907 0.44743 0.85784 0.0
H1243 H 0.88907 0.44479 0.98003 0.0
H1244 H 0.88247 0.48649 0.86332 0.0
H1245 H 0.88985 0.51271 0.8274 0.0
H1246 H 0.88126 0.54111 0.97087 0.0
H1247 H 0.87397 0.51505 0.00771 0.0
C1248 C 0.81062 0.45281 0.05605 0.0
C1249 C 0.80893 0.46426 0.0991 0.0
C1250 C 0.82453 0.45447 0.02391 0.0
C1251 C 0.83671 0.46754 0.03517 0.0
C1252 C 0.83432 0.47958 0.07657 0.0
C1253 C 0.82048 0.47789 0.10865 0.0
C1254 C 0.85296 0.46767 0.00748 0.0
C1255 C 0.85746 0.48201 0.98481 0.0
C1256 C 0.86443 0.45409 0.00606 0.0
C1257 C 0.8611 0.4394 0.03403 0.0
C1258 C 0.85863 0.44158 0.08644 0.0
C1259 C 0.85548 0.42769 0.11255 0.0
C1260 C 0.85497 0.41154 0.08675 0.0
C1261 C 0.85765 0.40925 0.03479 0.0
C1262 C 0.86075 0.4231 0.00848 0.0
C1263 C 0.93095 0.48256 0.94294 0.0
C1264 C 0.93667 0.46967 0.90722 0.0
C1265 C 0.91379 0.48281 0.95838 0.0
C1266 C 0.90216 0.47031 0.93773 0.0
C1267 C 0.90774 0.45764 0.90126 0.0
C1268 C 0.92494 0.45732 0.88603 0.0
C1269 C 0.88464 0.46943 0.95809 0.0
C1270 C 0.88 0.455 0.98026 0.0
C1271 C 0.87332 0.48315 0.96038 0.0
C1272 C 0.87776 0.49881 0.93825 0.0
C1273 C 0.88226 0.49832 0.88724 0.0
C1274 C 0.8864 0.51316 0.86672 0.0
C1275 C 0.88604 0.52856 0.89684 0.0
C1276 C 0.88152 0.52917 0.94756 0.0
C1277 C 0.87735 0.51438 0.96825 0.0
H1278 H 0.88925 0.54003 0.88087 0.0
H1279 H 0.85255 0.4008 0.10703 0.0
H1280 H 0.09935 0.16859 0.00853 0.0
H1281 H 0.09245 0.14091 0.96439 0.0
H1282 H 0.05165 0.16228 0.88304 0.0
H1283 H 0.05797 0.18981 0.9285 0.0
H1284 H 0.03984 0.13551 0.915 0.0
H1285 H 0.08928 0.14748 0.82235 0.0
H1286 H 0.11923 0.15668 0.80682 0.0
H1287 H 0.13881 0.11632 0.88202 0.0
H1288 H 0.10893 0.10696 0.89839 0.0
H1289 H 0.02234 0.06138 0.75227 0.0
H1290 H 0.03156 0.08957 0.78534 0.0
H1291 H 0.07044 0.06921 0.876 0.0
H1292 H 0.06145 0.04059 0.84169 0.0
H1293 H 0.08315 0.09601 0.83548 0.0
H1294 H 0.02935 0.08582 0.92632 0.0
H1295 H 0.99815 0.0794 0.93444 0.0
H1296 H 0.9857 0.11943 0.84739 0.0
H1297 H 0.0168 0.12601 0.83858 0.0
C1298 C 0.08887 0.16742 0.98137 0.0
C1299 C 0.07922 0.18153 0.97235 0.0
C1300 C 0.08508 0.15157 0.95557 0.0
C1301 C 0.0716 0.14942 0.91986 0.0
C1302 C 0.06212 0.16353 0.91026 0.0
C1303 C 0.06587 0.17935 0.93609 0.0
C1304 C 0.06666 0.13233 0.89505 0.0
C1305 C 0.04931 0.12699 0.897 0.0
C1306 C 0.07891 0.12108 0.87152 0.0
C1307 C 0.09689 0.12663 0.86205 0.0
C1308 C 0.09998 0.14065 0.83594 0.0
C1309 C 0.11693 0.14587 0.82688 0.0
C1310 C 0.13092 0.13712 0.84356 0.0
C1311 C 0.12796 0.12309 0.86918 0.0
C1312 C 0.11102 0.1178 0.87828 0.0
C1313 C 0.03285 0.06278 0.77939 0.0
C1314 C 0.04099 0.04859 0.7948 0.0
C1315 C 0.03806 0.07902 0.79853 0.0
C1316 C 0.0514 0.08166 0.83437 0.0
C1317 C 0.05998 0.06756 0.84878 0.0
C1318 C 0.05485 0.05118 0.82915 0.0
C1319 C 0.05636 0.09909 0.85637 0.0
C1320 C 0.07372 0.10453 0.85366 0.0
C1321 C 0.04398 0.1107 0.87764 0.0
C1322 C 0.02537 0.10628 0.88144 0.0
C1323 C 0.01995 0.09312 0.90852 0.0
C1324 C 1.00228 0.0895 0.91337 0.0
C1325 C 0.98995 0.09897 0.89135 0.0
C1326 C 0.99525 0.11209 0.86438 0.0
C1327 C 0.01288 0.11578 0.85951 0.0
H1328 H 0.97629 0.09618 0.89528 0.0
H1329 H 0.14404 0.14119 0.83654 0.0
H1330 H 0.32932 0.9787 0.93212 0.0
H1331 H 0.3579 0.97823 0.89179 0.0
H1332 H 0.35991 0.0323 0.91022 0.0
H1333 H 0.33125 0.03274 0.951 0.0
H1334 H 0.37452 0.01851 0.81588 0.0
H1335 H 0.38165 0.01249 0.99241 0.0
H1336 H 0.37258 0.9994 0.06749 0.0
H1337 H 0.38647 0.95098 0.9949 0.0
H1338 H 0.39542 0.9638 0.91908 0.0
H1339 H 0.46609 0.02926 0.79048 0.0
H1340 H 0.43612 0.03001 0.82138 0.0
H1341 H 0.43612 0.97628 0.82242 0.0
H1342 H 0.46626 0.97566 0.79232 0.0
H1343 H 0.41995 0.98976 0.90409 0.0
H1344 H 0.41357 0.99534 0.72807 0.0
H1345 H 0.42298 0.00816 0.65278 0.0
H1346 H 0.40776 0.05658 0.72188 0.0
H1347 H 0.39827 0.04406 0.7977 0.0
C1348 C 0.33584 0.99049 0.9275 0.0
C1349 C 0.3281 0.00575 0.94568 0.0
C1350 C 0.35221 0.99024 0.9042 0.0
C1351 C 0.36137 0.00524 0.89801 0.0
C1352 C 0.35331 0.02052 0.91438 0.0
C1353 C 0.33696 0.02077 0.93824 0.0
C1354 C 0.37986 0.00483 0.87888 0.0
C1355 C 0.38444 0.01237 0.83554 0.0
C1356 C 0.39301 0.99661 0.90339 0.0
C1357 C 0.38919 0.98908 0.95024 0.0
C1358 C 0.38287 0.99907 0.99267 0.0
C1359 C 0.37769 0.99169 0.03523 0.0
C1360 C 0.37895 0.97437 0.03597 0.0
C1361 C 0.38554 0.9644 0.99429 0.0
C1362 C 0.39072 0.97172 0.95156 0.0
C1363 C 0.45967 0.01762 0.79729 0.0
C1364 C 0.46852 0.00238 0.78863 0.0
C1365 C 0.44243 0.01802 0.81476 0.0
C1366 C 0.43345 0.00316 0.82373 0.0
C1367 C 0.4425 0.98796 0.81581 0.0
C1368 C 0.45975 0.98757 0.79835 0.0
C1369 C 0.41474 0.00347 0.8411 0.0
C1370 C 0.41007 0.99589 0.88421 0.0
C1371 C 0.40154 0.01155 0.81607 0.0
C1372 C 0.40534 0.0188 0.76865 0.0
C1373 C 0.41211 0.0087 0.72703 0.0
C1374 C 0.41751 0.01591 0.68436 0.0
C1375 C 0.41615 0.03318 0.68283 0.0
C1376 C 0.40896 0.04322 0.72341 0.0
C1377 C 0.40344 0.03606 0.76608 0.0
H1378 H 0.42055 0.03877 0.65002 0.0
H1379 H 0.37481 0.96866 0.06882 0.0
H1380 H 0.43959 0.30401 0.13084 0.0
H1381 H 0.44382 0.32653 0.07729 0.0
H1382 H 0.48219 0.34983 0.18124 0.0
H1383 H 0.4778 0.32754 0.23515 0.0
H1384 H 0.46163 0.3724 0.15663 0.0
H1385 H 0.49163 0.32714 0.06083 0.0
H1386 H 0.49403 0.29869 0.01584 0.0
H1387 H 0.45379 0.30931 0.9137 0.0
H1388 H 0.45097 0.33775 0.95854 0.0
H1389 H 0.49474 0.43403 0.01178 0.0
H1390 H 0.49093 0.41016 0.05955 0.0
H1391 H 0.45611 0.38661 0.94557 0.0
H1392 H 0.461 0.40976 0.89544 0.0
H1393 H 0.47389 0.36359 0.97388 0.0
H1394 H 0.44286 0.40786 0.06933 0.0
H1395 H 0.43721 0.43501 0.11919 0.0
H1396 H 0.477 0.42554 0.2242 0.0
H1397 H 0.48301 0.39844 0.17468 0.0
C1398 C 0.44903 0.31387 0.14209 0.0
C1399 C 0.4583 0.31398 0.1875 0.0
C1400 C 0.45149 0.32673 0.11126 0.0
C1401 C 0.46351 0.33987 0.12467 0.0
C1402 C 0.47282 0.33991 0.16989 0.0
C1403 C 0.47024 0.32717 0.2009 0.0
C1404 C 0.46592 0.35401 0.09321 0.0
C1405 C 0.46462 0.37046 0.1168 0.0
C1406 C 0.46911 0.35155 0.04075 0.0
C1407 C 0.471 0.33454 0.01331 0.0
C1408 C 0.48323 0.32338 0.02894 0.0
C1409 C 0.48466 0.30726 1.00346 0.0
C1410 C 0.47404 0.30219 0.96201 0.0
C1411 C 0.462 0.31325 0.94585 0.0
C1412 C 0.46049 0.32938 0.97125 0.0
C1413 C 0.48648 0.4237 0.99616 0.0
C1414 C 0.47814 0.42411 0.94936 0.0
C1415 C 0.48403 0.41009 0.02425 0.0
C1416 C 0.47285 0.3966 0.00715 0.0
C1417 C 0.46471 0.39683 0.96018 0.0
C1418 C 0.46737 0.41029 0.93164 0.0
C1419 C 0.4699 0.38215 0.03756 0.0
C1420 C 0.47101 0.3656 0.01375 0.0
C1421 C 0.46639 0.38448 0.08995 0.0
C1422 C 0.46353 0.40123 0.1179 0.0
C1423 C 0.45057 0.41169 0.10262 0.0
C1424 C 0.44726 0.42703 0.13095 0.0
C1425 C 0.45678 0.43202 0.17473 0.0
C1426 C 0.46967 0.4217 0.19021 0.0
C1427 C 0.47304 0.40635 0.16202 0.0
H1428 H 0.45412 0.44386 0.19676 0.0
H1429 H 0.47517 0.2897 0.94235 0.0
H1430 H 0.1975 0.52789 0.01417 0.0
H1431 H 0.16906 0.52484 0.97394 0.0
H1432 H 0.1931 0.51492 0.82885 0.0
H1433 H 0.2217 0.51726 0.86867 0.0
H1434 H 0.16305 0.53671 0.82846 0.0
H1435 H 0.17599 0.48127 0.86538 0.0
H1436 H 0.18914 0.46263 0.92166 0.0
H1437 H 0.15306 0.4795 0.03789 0.0
H1438 H 0.13971 0.49824 0.98204 0.0
H1439 H 0.08256 0.50833 0.71006 0.0
H1440 H 0.11281 0.5111 0.73722 0.0
H1441 H 0.0972 0.50596 0.88962 0.0
H1442 H 0.06714 0.50194 0.86173 0.0
H1443 H 0.12495 0.49121 0.87959 0.0
H1444 H 0.11118 0.547 0.83058 0.0
H1445 H 0.10164 0.56584 0.76939 0.0
H1446 H 0.1421 0.54788 0.66827 0.0
H1447 H 0.15172 0.5288 0.72856 0.0
C1448 C 0.19695 0.52488 0.97375 0.0
C1449 C 0.21233 0.52273 0.94534 0.0
C1450 C 0.1805 0.52331 0.95058 0.0
C1451 C 0.17873 0.51964 0.89808 0.0
C1452 C 0.19396 0.51792 0.86928 0.0
C1453 C 0.21044 0.51932 0.89247 0.0
C1454 C 0.16102 0.51643 0.87431 0.0
C1455 C 0.15474 0.52671 0.83934 0.0
C1456 C 0.15009 0.50332 0.8876 0.0
C1457 C 0.15682 0.49101 0.91961 0.0
C1458 C 0.17077 0.48084 0.90279 0.0
C1459 C 0.17828 0.47032 0.93461 0.0
C1460 C 0.17192 0.46986 0.98331 0.0
C1461 C 0.15791 0.47981 1.00007 0.0
C1462 C 0.1503 0.49032 0.96827 0.0
C1463 C 0.08554 0.50778 0.7494 0.0
C1464 C 0.07218 0.50504 0.78358 0.0
C1465 C 0.10299 0.50959 0.76526 0.0
C1466 C 0.10769 0.50935 0.81627 0.0
C1467 C 0.09429 0.50636 0.85017 0.0
C1468 C 0.07693 0.50412 0.83411 0.0
C1469 C 0.12633 0.51197 0.83471 0.0
C1470 C 0.13299 0.5014 0.86866 0.0
C1471 C 0.13768 0.5247 0.81951 0.0
C1472 C 0.13209 0.53643 0.78392 0.0
C1473 C 0.118 0.54706 0.79524 0.0
C1474 C 0.11257 0.55775 0.76068 0.0
C1475 C 0.1212 0.55799 0.71486 0.0
C1476 C 0.13537 0.54763 0.70365 0.0
C1477 C 0.14084 0.5369 0.73803 0.0
H1478 H 0.11695 0.56623 0.68809 0.0
H1479 H 0.17787 0.46183 0.00809 0.0
H1480 H 0.95892 0.81544 0.5729 0.0
H1481 H 0.96596 0.84312 0.61677 0.0
H1482 H 0.979 0.86103 0.47524 0.0
H1483 H 0.97317 0.83323 0.43168 0.0
H1484 H 1.00257 0.87108 0.54087 0.0
H1485 H 0.93929 0.86972 0.54669 0.0
H1486 H 0.91108 0.85814 0.57066 0.0
H1487 H 0.92596 0.86562 0.72641 0.0
H1488 H 0.95437 0.877 0.70328 0.0
H1489 H 1.00287 0.95949 0.59768 0.0
H1490 H 0.99516 0.93049 0.565 0.0
H1491 H 0.98798 0.91817 0.71645 0.0
H1492 H 0.99581 0.94701 0.74931 0.0
H1493 H 0.96229 0.90431 0.65514 0.0
H1494 H 0.02339 0.90577 0.65619 0.0
H1495 H 0.0534 0.91461 0.64004 0.0
H1496 H 0.04461 0.90475 0.48085 0.0
H1497 H 0.01443 0.8961 0.49603 0.0
C1498 C 0.96341 0.82521 0.55104 0.0
C1499 C 0.9654 0.82195 0.49844 0.0
C1500 C 0.96722 0.84117 0.57624 0.0
C1501 C 0.9728 0.85436 0.5494 0.0
C1502 C 0.97466 0.85115 0.49697 0.0
C1503 C 0.97108 0.83521 0.47189 0.0
C1504 C 0.97739 0.87138 0.57532 0.0
C1505 C 0.9936 0.87844 0.5651 0.0
C1506 C 0.96616 0.88071 0.60944 0.0
C1507 C 0.94901 0.87405 0.62319 0.0
C1508 C 0.93658 0.86879 0.58601 0.0
C1509 C 0.92056 0.86227 0.59945 0.0
C1510 C 0.91675 0.86111 0.65001 0.0
C1511 C 0.92894 0.86651 0.68726 0.0
C1512 C 0.945 0.87299 0.674 0.0
C1513 C 0.99947 0.95065 0.62399 0.0
C1514 C 0.99997 0.95559 0.6761 0.0
C1515 C 0.99519 0.93403 0.60529 0.0
C1516 C 0.99113 0.92206 0.63825 0.0
C1517 C 0.99109 0.92712 0.69023 0.0
C1518 C 0.99561 0.94364 0.70895 0.0
C1519 C 0.98711 0.90425 0.61845 0.0
C1520 C 0.97116 0.897 0.63042 0.0
C1521 C 0.99869 0.89457 0.58664 0.0
C1522 C 0.01656 0.90053 0.57725 0.0
C1523 C 0.02776 0.90574 0.61772 0.0
C1524 C 0.04483 0.91065 0.60875 0.0
C1525 C 0.05089 0.9103 0.55945 0.0
C1526 C 0.03988 0.90506 0.51902 0.0
C1527 C 0.02279 0.90017 0.52778 0.0
H1528 H 0.06414 0.91403 0.55258 0.0
H1529 H 0.90434 0.85605 0.66033 0.0
H1530 H 0.71021 0.03019 0.5424 0.0
H1531 H 0.68098 0.02909 0.57834 0.0
H1532 H 0.68315 0.97514 0.56671 0.0
H1533 H 0.71253 0.97624 0.53171 0.0
H1534 H 0.65212 0.98664 0.52937 0.0
H1535 H 0.68452 0.99513 0.68423 0.0
H1536 H 0.70828 0.00961 0.73447 0.0
H1537 H 0.6836 0.0569 0.72789 0.0
H1538 H 0.65957 0.04263 0.67805 0.0
H1539 H 0.57112 0.97562 0.64866 0.0
H1540 H 0.60131 0.97476 0.62227 0.0
H1541 H 0.60827 0.02667 0.6826 0.0
H1542 H 0.57841 0.02701 0.71298 0.0
H1543 H 0.63618 0.01527 0.69654 0.0
H1544 H 0.60401 0.00669 0.53758 0.0
H1545 H 0.58437 0.99301 0.4718 0.0
H1546 H 0.61085 0.94647 0.47521 0.0
H1547 H 0.63057 0.95988 0.54102 0.0
C1548 C 0.70447 0.01809 0.54759 0.0
C1549 C 0.71375 0.0033 0.53406 0.0
C1550 C 0.68776 0.01747 0.56846 0.0
C1551 C 0.67973 0.00202 0.57564 0.0
C1552 C 0.68897 0.98723 0.56182 0.0
C1553 C 0.70581 0.98787 0.5419 0.0
C1554 C 0.66157 1.00127 0.59604 0.0
C1555 C 0.64862 0.99271 0.56621 0.0
C1556 C 0.65686 0.00941 0.64363 0.0
C1557 C 0.67029 0.01784 0.67754 0.0
C1558 C 0.68412 0.00861 0.69387 0.0
C1559 C 0.69765 0.01677 0.72211 0.0
C1560 C 0.69749 0.03418 0.73417 0.0
C1561 C 0.68371 0.04342 0.71842 0.0
C1562 C 0.67005 0.03529 0.69058 0.0
C1563 C 0.57905 0.9869 0.65628 0.0
C1564 C 0.57206 1.00145 0.68267 0.0
C1565 C 0.59647 0.98649 0.64035 0.0
C1566 C 0.60745 1.00084 0.64821 0.0
C1567 C 0.60044 0.01534 0.67521 0.0
C1568 C 0.58316 0.01558 0.69249 0.0
C1569 C 0.6261 1.00078 0.62921 0.0
C1570 C 0.63935 0.00916 0.65955 0.0
C1571 C 0.63112 0.99248 0.58154 0.0
C1572 C 0.61855 0.98422 0.54462 0.0
C1573 C 0.60546 0.99349 0.52472 0.0
C1574 C 0.59438 0.9858 0.48729 0.0
C1575 C 0.59632 0.96887 0.46948 0.0
C1576 C 0.60932 0.95957 0.48912 0.0
C1577 C 0.62044 0.9672 0.52643 0.0
H1578 H 0.58778 0.96297 0.44034 0.0
H1579 H 0.70799 0.04049 0.75596 0.0
H1580 H 0.57225 0.70463 0.35491 0.0
H1581 H 0.57002 0.68083 0.40418 0.0
H1582 H 0.58194 0.64703 0.2724 0.0
H1583 H 0.58497 0.67073 0.22319 0.0
H1584 H 0.55257 0.63739 0.32169 0.0
H1585 H 0.61099 0.65429 0.36286 0.0
H1586 H 0.6343 0.67435 0.39269 0.0
H1587 H 0.61023 0.68241 0.53781 0.0
H1588 H 0.58657 0.66262 0.50854 0.0
H1589 H 0.561 0.56199 0.43505 0.0
H1590 H 0.56664 0.58634 0.38967 0.0
H1591 H 0.55787 0.61937 0.5255 0.0
H1592 H 0.55249 0.59505 0.57142 0.0
H1593 H 0.58615 0.62986 0.47549 0.0
H1594 H 0.52751 0.61457 0.43531 0.0
H1595 H 0.5023 0.597 0.40507 0.0
H1596 H 0.52541 0.58778 0.25885 0.0
H1597 H 0.55092 0.60507 0.28851 0.0
C1598 C 0.57479 0.69221 0.3364 0.0
C1599 C 0.57871 0.68976 0.28462 0.0
C1600 C 0.57342 0.67856 0.36476 0.0
C1601 C 0.57581 0.6621 0.34209 0.0
C1602 C 0.57995 0.6596 0.29074 0.0
C1603 C 0.58153 0.67322 0.26249 0.0
C1604 C 0.5731 0.64741 0.37109 0.0
C1605 C 0.56014 0.63558 0.35481 0.0
C1606 C 0.58256 0.64535 0.41534 0.0
C1607 C 0.59689 0.65709 0.43332 0.0
C1608 C 0.61057 0.66044 0.40101 0.0
C1609 C 0.62387 0.67176 0.41783 0.0
C1610 C 0.62372 0.67969 0.46707 0.0
C1611 C 0.61031 0.67628 0.49964 0.0
C1612 C 0.59695 0.665 0.48296 0.0
C1613 C 0.56027 0.57441 0.45542 0.0
C1614 C 0.55613 0.57645 0.50702 0.0
C1615 C 0.56344 0.58837 0.42927 0.0
C1616 C 0.56259 0.60478 0.45393 0.0
C1617 C 0.5586 0.60688 0.50548 0.0
C1618 C 0.55531 0.59292 0.53161 0.0
C1619 C 0.56566 0.61968 0.42571 0.0
C1620 C 0.57866 0.63158 0.44219 0.0
C1621 C 0.55615 0.62193 0.38169 0.0
C1622 C 0.54123 0.6109 0.36436 0.0
C1623 C 0.52734 0.60858 0.39694 0.0
C1624 C 0.51297 0.59872 0.37985 0.0
C1625 C 0.51228 0.59123 0.33012 0.0
C1626 C 0.52599 0.59354 0.29741 0.0
C1627 C 0.54041 0.60335 0.31435 0.0
H1628 H 0.50109 0.58367 0.31689 0.0
H1629 H 0.63402 0.68845 0.48002 0.0
H1630 H 0.81892 0.49362 0.5872 0.0
H1631 H 0.8471 0.49616 0.6278 0.0
H1632 H 0.86931 0.46564 0.50197 0.0
H1633 H 0.84071 0.46171 0.46286 0.0
H1634 H 0.88428 0.45797 0.5825 0.0
H1635 H 0.87125 0.513 0.5287 0.0
H1636 H 0.8528 0.53785 0.52935 0.0
H1637 H 0.85819 0.54743 0.68985 0.0
H1638 H 0.87646 0.5225 0.69021 0.0
H1639 H 0.9733 0.48352 0.61167 0.0
H1640 H 0.94315 0.47922 0.58258 0.0
H1641 H 0.92518 0.50374 0.72425 0.0
H1642 H 0.95541 0.50746 0.75402 0.0
H1643 H 0.90749 0.51467 0.6435 0.0
H1644 H 0.92 0.46415 0.70456 0.0
H1645 H 0.93504 0.43828 0.71881 0.0
H1646 H 0.92777 0.41916 0.5636 0.0
H1647 H 0.91304 0.44514 0.54803 0.0
C1648 C 0.82958 0.4871 0.56806 0.0
C1649 C 0.82706 0.47746 0.52087 0.0
C1650 C 0.84601 0.48888 0.59129 0.0
C1651 C 0.86081 0.4816 0.5677 0.0
C1652 C 0.85835 0.47167 0.52119 0.0
C1653 C 0.84183 0.4696 0.4983 0.0
C1654 C 0.87878 0.48436 0.59093 0.0
C1655 C 0.88941 0.47044 0.59476 0.0
C1656 C 0.88545 0.50048 0.6102 0.0
C1657 C 0.87512 0.51584 0.60948 0.0
C1658 C 0.8685 0.52042 0.56409 0.0
C1659 C 0.85804 0.53449 0.56431 0.0
C1660 C 0.8543 0.54419 0.60962 0.0
C1661 C 0.86109 0.5399 0.65479 0.0
C1662 C 0.8715 0.52581 0.6548 0.0
C1663 C 0.96291 0.48793 0.63667 0.0
C1664 C 0.96676 0.49574 0.68529 0.0
C1665 C 0.94562 0.48545 0.62003 0.0
C1666 C 0.93167 0.49106 0.65109 0.0
C1667 C 0.93557 0.49923 0.69938 0.0
C1668 C 0.95287 0.50131 0.71651 0.0
C1669 C 0.91316 0.48835 0.63296 0.0
C1670 C 0.90243 0.50223 0.6305 0.0
C1671 C 0.9062 0.47216 0.61645 0.0
C1672 C 0.91565 0.45675 0.6249 0.0
C1673 C 0.92187 0.45458 0.67319 0.0
C1674 C 0.93029 0.43986 0.68158 0.0
C1675 C 0.93243 0.42711 0.64208 0.0
C1676 C 0.92617 0.42908 0.5941 0.0
C1677 C 0.9178 0.44382 0.58545 0.0
H1678 H 0.93887 0.41568 0.64871 0.0
H1679 H 0.84615 0.55505 0.60972 0.0
loop_
_geom_bond_atom_site_label_1
_geom_bond_atom_site_label_2
_geom_bond_distance
_geom_bond_site_symmetry_2
_ccdc_geom_bond_type
C0 C1 1.264 . S
C0 C5 1.479 . S
C0 C10 1.465 . S
C1 C0 1.264 . S
C1 C3 1.339 . S
C1 H28 0.931 . S
C2 C3 1.395 . S
C2 C4 1.320 . S
C3 C1 1.339 . S
C3 C2 1.395 . S
C3 H29 0.929 . S
C4 C2 1.320 . S
C4 C5 1.405 . S
C4 H30 0.930 . S
C5 C0 1.479 . S
C5 C4 1.405 . S
C5 H31 0.931 . S
U6 O7 2.454 . S
U6 O8 2.458 . S
U6 C9 2.984 . S
U6 C10 2.847 . S
U6 C23 2.882 . S
U6 O24 2.441 . S
U6 O25 2.420 . S
U6 O26 2.455 . S
U6 O27 2.449 . S
O7 U6 2.454 . S
O7 C9 1.353 . S
O8 U6 2.458 . S
O8 C9 1.286 . S
C9 U6 2.984 . S
C9 O7 1.353 . S
C9 O8 1.286 . S
C9 C11 1.363 . S
C10 C0 1.465 . S
C10 U6 2.847 . S
C10 O24 1.249 . S
C10 O25 1.202 . S
C11 C9 1.363 . S
C11 C13 1.408 . S
C11 C16 1.342 . S
C12 C13 1.310 . S
C12 C15 1.461 . S
C12 H32 0.932 . S
C13 C11 1.408 . S
C13 C12 1.310 . S
C13 H33 0.930 . S
C14 C15 1.474 . S
C14 C16 1.285 . S
C14 H34 0.929 . S
C15 C12 1.461 . S
C15 C14 1.474 . S
C16 C11 1.342 . S
C16 C14 1.285 . S
C16 H35 0.930 . S
C17 C20 1.424 . S
C17 C22 1.245 . S
C17 C23 1.428 . S
C18 C21 1.260 . S
C18 C22 1.477 . S
C18 H36 0.932 . S
C19 C20 1.384 . S
C19 C21 1.479 . S
C19 H37 0.929 . S
C20 C17 1.424 . S
C20 C19 1.384 . S
C20 H38 0.928 . S
C21 C18 1.260 . S
C21 C19 1.479 . S
C22 C17 1.245 . S
C22 C18 1.477 . S
C22 H39 0.932 . S
C23 U6 2.882 . S
C23 C17 1.428 . S
C23 O26 1.301 . S
C23 O27 1.282 . S
O24 U6 2.441 . S
O24 C10 1.249 . S
O25 U6 2.420 . S
O25 C10 1.202 . S
O26 U6 2.455 . S
O26 C23 1.301 . S
O27 U6 2.449 . S
O27 C23 1.282 . S
H28 C1 0.931 . S
H29 C3 0.929 . S
H30 C4 0.930 . S
H31 C5 0.931 . S
H32 C12 0.932 . S
H33 C13 0.930 . S
H34 C14 0.929 . S
H35 C16 0.930 . S
H36 C18 0.932 . S
H37 C19 0.929 . S
H38 C20 0.928 . S
H39 C22 0.932 . S
C40 C41 1.264 . S
C40 C45 1.479 . S
C40 C50 1.465 . S
C41 C40 1.264 . S
C41 C43 1.339 . S
C41 H68 0.931 . S
C42 C43 1.395 . S
C42 C44 1.320 . S
C43 C41 1.339 . S
C43 C42 1.395 . S
C43 H69 0.929 . S
C44 C42 1.320 . S
C44 C45 1.405 . S
C44 H70 0.930 . S
C45 C40 1.479 . S
C45 C44 1.405 . S
C45 H71 0.931 . S
U46 O47 2.454 . S
U46 O48 2.458 . S
U46 C49 2.984 . S
U46 C50 2.847 . S
U46 C63 2.882 . S
U46 O64 2.441 . S
U46 O65 2.420 . S
U46 O66 2.455 . S
U46 O67 2.449 . S
O47 U46 2.454 . S
O47 C49 1.353 . S
O48 U46 2.458 . S
O48 C49 1.286 . S
C49 U46 2.984 . S
C49 O47 1.353 . S
C49 O48 1.286 . S
C49 C51 1.363 . S
C50 C40 1.465 . S
C50 U46 2.847 . S
C50 O64 1.249 . S
C50 O65 1.202 . S
C51 C49 1.363 . S
C51 C53 1.408 . S
C51 C56 1.342 . S
C52 C53 1.310 . S
C52 C55 1.461 . S
C52 H72 0.932 . S
C53 C51 1.408 . S
C53 C52 1.310 . S
C53 H73 0.930 . S
C54 C55 1.474 . S
C54 C56 1.285 . S
C54 H74 0.929 . S
C55 C52 1.461 . S
C55 C54 1.474 . S
C56 C51 1.342 . S
C56 C54 1.285 . S
C56 H75 0.930 . S
C57 C60 1.424 . S
C57 C62 1.245 . S
C57 C63 1.428 . S
C58 C61 1.260 . S
C58 C62 1.477 . S
C58 H76 0.932 . S
C59 C60 1.384 . S
C59 C61 1.479 . S
C59 H77 0.929 . S
C60 C57 1.424 . S
C60 C59 1.384 . S
C60 H78 0.928 . S
C61 C58 1.260 . S
C61 C59 1.479 . S
C62 C57 1.245 . S
C62 C58 1.477 . S
C62 H79 0.932 . S
C63 U46 2.882 . S
C63 C57 1.428 . S
C63 O66 1.301 . S
C63 O67 1.282 . S
O64 U46 2.441 . S
O64 C50 1.249 . S
O65 U46 2.420 . S
O65 C50 1.202 . S
O66 U46 2.455 . S
O66 C63 1.301 . S
O67 U46 2.449 . S
O67 C63 1.282 . S
H68 C41 0.931 . S
H69 C43 0.929 . S
H70 C44 0.930 . S
H71 C45 0.931 . S
H72 C52 0.932 . S
H73 C53 0.930 . S
H74 C54 0.929 . S
H75 C56 0.930 . S
H76 C58 0.932 . S
H77 C59 0.929 . S
H78 C60 0.928 . S
H79 C62 0.932 . S
C80 C81 1.264 . S
C80 C85 1.479 . S
C80 C90 1.465 . S
C81 C80 1.264 . S
C81 C83 1.339 . S
C81 H108 0.931 . S
C82 C83 1.395 . S
C82 C84 1.320 . S
C83 C81 1.339 . S
C83 C82 1.395 . S
C83 H109 0.929 . S
C84 C82 1.320 . S
C84 C85 1.405 . S
C84 H110 0.916 1_545 S
C85 C80 1.479 . S
C85 C84 1.405 . S
C85 H111 0.931 . S
U86 O87 2.454 . S
U86 O88 2.458 . S
U86 C89 2.984 . S
U86 C90 2.847 . S
U86 C103 2.882 . S
U86 O104 2.441 . S
U86 O105 2.420 . S
U86 O106 2.455 . S
U86 O107 2.449 . S
O87 U86 2.454 . S
O87 C89 1.353 . S
O88 U86 2.458 . S
O88 C89 1.286 . S
C89 U86 2.984 . S
C89 O87 1.353 . S
C89 O88 1.286 . S
C89 C91 1.363 . S
C90 C80 1.465 . S
C90 U86 2.847 . S
C90 O104 1.249 . S
C90 O105 1.202 . S
C91 C89 1.363 . S
C91 C93 1.408 . S
C91 C96 1.342 . S
C92 C93 1.310 . S
C92 C95 1.461 . S
C92 H112 0.942 . S
C93 C91 1.408 . S
C93 C92 1.310 . S
C93 H113 0.930 . S
C94 C95 1.475 1_565 S
C94 C96 1.285 1_565 S
C94 H114 0.929 . S
C95 C92 1.461 . S
C95 C94 1.475 1_545 S
C96 C91 1.342 . S
C96 C94 1.285 1_545 S
C96 H115 0.929 . S
C97 C100 1.424 . S
C97 C102 1.245 . S
C97 C103 1.428 . S
C98 C101 1.260 . S
C98 C102 1.477 . S
C98 H116 0.932 . S
C99 C100 1.384 . S
C99 C101 1.479 . S
C99 H117 0.929 . S
C100 C97 1.424 . S
C100 C99 1.384 . S
C100 H118 0.928 . S
C101 C98 1.260 . S
C101 C99 1.479 . S
C102 C97 1.245 . S
C102 C98 1.477 . S
C102 H119 0.932 . S
C103 U86 2.882 . S
C103 C97 1.428 . S
C103 O106 1.301 . S
C103 O107 1.282 . S
O104 U86 2.441 . S
O104 C90 1.249 . S
O105 U86 2.420 . S
O105 C90 1.202 . S
O106 U86 2.455 . S
O106 C103 1.301 . S
O107 U86 2.449 . S
O107 C103 1.282 . S
H108 C81 0.931 . S
H109 C83 0.929 . S
H110 C84 0.916 1_565 S
H111 C85 0.931 . S
H112 C92 0.942 . S
H113 C93 0.930 . S
H114 C94 0.929 . S
H115 C96 0.929 . S
H116 C98 0.932 . S
H117 C99 0.929 . S
H118 C100 0.928 . S
H119 C102 0.932 . S
C120 C121 1.264 . S
C120 C125 1.479 . S
C120 C130 1.465 . S
C121 C120 1.264 . S
C121 C123 1.339 . S
C121 H148 0.931 . S
C122 C123 1.395 . S
C122 C124 1.320 . S
C123 C121 1.339 . S
C123 C122 1.395 . S
C123 H149 0.929 . S
C124 C122 1.320 . S
C124 C125 1.405 . S
C124 H150 0.930 . S
C125 C120 1.479 . S
C125 C124 1.405 . S
C125 H151 0.931 . S
U126 O127 2.454 . S
U126 O128 2.458 1_554 S
U126 C129 2.984 1_554 S
U126 C130 2.847 . S
U126 C143 2.882 1_554 S
U126 O144 2.441 . S
U126 O145 2.420 . S
U126 O146 2.455 1_554 S
U126 O147 2.449 1_554 S
O127 U126 2.454 . S
O127 C129 1.353 1_554 S
O128 U126 2.458 1_556 S
O128 C129 1.286 . S
C129 U126 2.984 1_556 S
C129 O127 1.353 1_556 S
C129 O128 1.286 . S
C129 C131 1.363 . S
C130 C120 1.465 . S
C130 U126 2.847 . S
C130 O144 1.249 . S
C130 O145 1.202 . S
C131 C129 1.363 . S
C131 C133 1.408 1_556 S
C131 C136 1.342 . S
C132 C133 1.310 . S
C132 C135 1.461 1_554 S
C132 H152 0.932 . S
C133 C131 1.408 1_554 S
C133 C132 1.310 . S
C133 H153 0.930 . S
C134 C135 1.474 . S
C134 C136 1.285 . S
C134 H154 0.929 . S
C135 C132 1.461 1_556 S
C135 C134 1.474 . S
C136 C131 1.342 . S
C136 C134 1.285 . S
C136 H155 0.930 . S
C137 C140 1.424 . S
C137 C142 1.245 . S
C137 C143 1.428 . S
C138 C141 1.260 . S
C138 C142 1.477 . S
C138 H156 0.932 . S
C139 C140 1.384 . S
C139 C141 1.479 . S
C139 H157 0.929 . S
C140 C137 1.424 . S
C140 C139 1.384 . S
C140 H158 0.928 . S
C141 C138 1.260 . S
C141 C139 1.479 . S
C142 C137 1.245 . S
C142 C138 1.477 . S
C142 H159 0.932 . S
C143 U126 2.882 1_556 S
C143 C137 1.428 . S
C143 O146 1.301 . S
C143 O147 1.282 . S
O144 U126 2.441 . S
O144 C130 1.249 . S
O145 U126 2.420 . S
O145 C130 1.202 . S
O146 U126 2.455 1_556 S
O146 C143 1.301 . S
O147 U126 2.449 1_556 S
O147 C143 1.282 . S
H148 C121 0.931 . S
H149 C123 0.929 . S
H150 C124 0.930 . S
H151 C125 0.931 . S
H152 C132 0.932 . S
H153 C133 0.930 . S
H154 C134 0.929 . S
H155 C136 0.930 . S
H156 C138 0.932 . S
H157 C139 0.929 . S
H158 C140 0.928 . S
H159 C142 0.932 . S
C160 C161 1.264 . S
C160 C165 1.479 1_554 S
C160 C170 1.465 . S
C161 C160 1.264 . S
C161 C163 1.339 1_554 S
C161 H188 0.931 . S
C162 C163 1.395 . S
C162 C164 1.320 . S
C163 C161 1.339 1_556 S
C163 C162 1.395 . S
C163 H189 0.929 . S
C164 C162 1.320 . S
C164 C165 1.405 . S
C164 H190 0.930 . S
C165 C160 1.479 1_556 S
C165 C164 1.405 . S
C165 H191 0.931 . S
U166 O167 2.454 . S
U166 O168 2.458 . S
U166 C169 2.984 . S
U166 C170 2.847 . S
U166 C183 2.882 . S
U166 O184 2.441 . S
U166 O185 2.420 . S
U166 O186 2.455 . S
U166 O187 2.449 . S
O167 U166 2.454 . S
O167 C169 1.353 . S
O168 U166 2.458 . S
O168 C169 1.286 . S
C169 U166 2.984 . S
C169 O167 1.353 . S
C169 O168 1.286 . S
C169 C171 1.363 . S
C170 C160 1.465 . S
C170 U166 2.847 . S
C170 O184 1.249 . S
C170 O185 1.202 . S
C171 C169 1.363 . S
C171 C173 1.408 . S
C171 C176 1.342 . S
C172 C173 1.310 . S
C172 C175 1.461 . S
C172 H192 0.932 . S
C173 C171 1.408 . S
C173 C172 1.310 . S
C173 H193 0.930 . S
C174 C175 1.474 . S
C174 C176 1.285 . S
C174 H194 0.929 . S
C175 C172 1.461 . S
C175 C174 1.474 . S
C176 C171 1.342 . S
C176 C174 1.285 . S
C176 H195 0.930 . S
C177 C180 1.424 . S
C177 C182 1.245 . S
C177 C183 1.428 . S
C178 C181 1.260 . S
C178 C182 1.477 . S
C178 H196 0.932 . S
C179 C180 1.384 . S
C179 C181 1.479 . S
C179 H197 0.929 . S
C180 C177 1.424 . S
C180 C179 1.384 . S
C180 H198 0.928 . S
C181 C178 1.260 . S
C181 C179 1.479 . S
C182 C177 1.245 . S
C182 C178 1.477 . S
C182 H199 0.932 . S
C183 U166 2.882 . S
C183 C177 1.428 . S
C183 O186 1.301 . S
C183 O187 1.282 . S
O184 U166 2.441 . S
O184 C170 1.249 . S
O185 U166 2.420 . S
O185 C170 1.202 . S
O186 U166 2.455 . S
O186 C183 1.301 . S
O187 U166 2.449 . S
O187 C183 1.282 . S
H188 C161 0.931 . S
H189 C163 0.929 . S
H190 C164 0.930 . S
H191 C165 0.931 . S
H192 C172 0.932 . S
H193 C173 0.930 . S
H194 C174 0.929 . S
H195 C176 0.930 . S
H196 C178 0.932 . S
H197 C179 0.929 . S
H198 C180 0.928 . S
H199 C182 0.932 . S
C200 C201 1.264 . S
C200 C205 1.479 . S
C200 C210 1.465 . S
C201 C200 1.264 . S
C201 C203 1.339 . S
C201 H228 0.931 . S
C202 C203 1.395 1_556 S
C202 C204 1.320 . S
C203 C201 1.339 . S
C203 C202 1.395 1_554 S
C203 H229 0.929 . S
C204 C202 1.320 . S
C204 C205 1.405 1_556 S
C204 H230 0.930 . S
C205 C200 1.479 . S
C205 C204 1.405 1_554 S
C205 H231 0.931 . S
U206 O207 2.454 . S
U206 O208 2.458 . S
U206 C209 2.984 . S
U206 C210 2.847 . S
U206 C223 2.882 . S
U206 O224 2.441 . S
U206 O225 2.420 . S
U206 O226 2.455 . S
U206 O227 2.449 . S
O207 U206 2.454 . S
O207 C209 1.353 . S
O208 U206 2.458 . S
O208 C209 1.286 . S
C209 U206 2.984 . S
C209 O207 1.353 . S
C209 O208 1.286 . S
C209 C211 1.363 . S
C210 C200 1.465 . S
C210 U206 2.847 . S
C210 O224 1.249 . S
C210 O225 1.202 . S
C211 C209 1.363 . S
C211 C213 1.408 . S
C211 C216 1.342 . S
C212 C213 1.310 . S
C212 C215 1.461 . S
C212 H232 0.932 . S
C213 C211 1.408 . S
C213 C212 1.310 . S
C213 H233 0.930 . S
C214 C215 1.474 . S
C214 C216 1.285 . S
C214 H234 0.929 . S
C215 C212 1.461 . S
C215 C214 1.474 . S
C216 C211 1.342 . S
C216 C214 1.285 . S
C216 H235 0.930 . S
C217 C220 1.424 . S
C217 C222 1.245 . S
C217 C223 1.428 . S
C218 C221 1.260 . S
C218 C222 1.477 . S
C218 H236 0.932 . S
C219 C220 1.384 . S
C219 C221 1.479 . S
C219 H237 0.929 . S
C220 C217 1.424 . S
C220 C219 1.384 . S
C220 H238 0.928 . S
C221 C218 1.260 . S
C221 C219 1.479 . S
C222 C217 1.245 . S
C222 C218 1.477 . S
C222 H239 0.932 . S
C223 U206 2.882 . S
C223 C217 1.428 . S
C223 O226 1.301 . S
C223 O227 1.282 . S
O224 U206 2.441 . S
O224 C210 1.249 . S
O225 U206 2.420 . S
O225 C210 1.202 . S
O226 U206 2.455 . S
O226 C223 1.301 . S
O227 U206 2.449 . S
O227 C223 1.282 . S
H228 C201 0.931 . S
H229 C203 0.929 . S
H230 C204 0.930 . S
H231 C205 0.931 . S
H232 C212 0.932 . S
H233 C213 0.930 . S
H234 C214 0.929 . S
H235 C216 0.930 . S
H236 C218 0.932 . S
H237 C219 0.929 . S
H238 C220 0.928 . S
H239 C222 0.932 . S
C240 C241 1.264 . S
C240 C245 1.479 1_554 S
C240 C250 1.465 . S
C241 C240 1.264 . S
C241 C243 1.339 1_554 S
C241 H268 0.931 . S
C242 C243 1.395 . S
C242 C244 1.320 . S
C243 C241 1.339 1_556 S
C243 C242 1.395 . S
C243 H269 0.929 . S
C244 C242 1.320 . S
C244 C245 1.405 . S
C244 H270 0.927 1_545 S
C245 C240 1.479 1_556 S
C245 C244 1.405 . S
C245 H271 0.931 . S
U246 O247 2.454 . S
U246 O248 2.458 . S
U246 C249 2.984 . S
U246 C250 2.847 . S
U246 C263 2.882 . S
U246 O264 2.441 . S
U246 O265 2.420 . S
U246 O266 2.455 . S
U246 O267 2.449 . S
O247 U246 2.454 . S
O247 C249 1.353 . S
O248 U246 2.458 . S
O248 C249 1.286 . S
C249 U246 2.984 . S
C249 O247 1.353 . S
C249 O248 1.286 . S
C249 C251 1.363 . S
C250 C240 1.465 . S
C250 U246 2.847 . S
C250 O264 1.249 . S
C250 O265 1.202 . S
C251 C249 1.363 . S
C251 C253 1.408 . S
C251 C256 1.342 . S
C252 C253 1.310 . S
C252 C255 1.464 . S
C252 H272 0.932 . S
C253 C251 1.408 . S
C253 C252 1.310 . S
C253 H273 0.930 . S
C254 C255 1.473 1_565 S
C254 C256 1.286 1_565 S
C254 H274 0.928 . S
C255 C252 1.464 . S
C255 C254 1.473 1_545 S
C256 C251 1.342 . S
C256 C254 1.286 1_545 S
C256 H275 0.938 . S
C257 C260 1.424 . S
C257 C262 1.245 . S
C257 C263 1.428 . S
C258 C261 1.260 . S
C258 C262 1.477 . S
C258 H276 0.932 . S
C259 C260 1.384 . S
C259 C261 1.479 . S
C259 H277 0.929 . S
C260 C257 1.424 . S
C260 C259 1.384 . S
C260 H278 0.928 . S
C261 C258 1.260 . S
C261 C259 1.479 . S
C262 C257 1.245 . S
C262 C258 1.477 . S
C262 H279 0.932 . S
C263 U246 2.882 . S
C263 C257 1.428 . S
C263 O266 1.301 . S
C263 O267 1.282 . S
O264 U246 2.441 . S
O264 C250 1.249 . S
O265 U246 2.420 . S
O265 C250 1.202 . S
O266 U246 2.455 . S
O266 C263 1.301 . S
O267 U246 2.449 . S
O267 C263 1.282 . S
H268 C241 0.931 . S
H269 C243 0.929 . S
H270 C244 0.927 1_565 S
H271 C245 0.931 . S
H272 C252 0.932 . S
H273 C253 0.930 . S
H274 C254 0.928 . S
H275 C256 0.938 . S
H276 C258 0.932 . S
H277 C259 0.929 . S
H278 C260 0.928 . S
H279 C262 0.932 . S
C280 C281 1.264 . S
C280 C285 1.479 . S
C280 C290 1.465 . S
C281 C280 1.264 . S
C281 C283 1.339 . S
C281 H308 0.931 . S
C282 C283 1.395 . S
C282 C284 1.320 . S
C283 C281 1.339 . S
C283 C282 1.395 . S
C283 H309 0.929 . S
C284 C282 1.320 . S
C284 C285 1.405 . S
C284 H310 0.930 . S
C285 C280 1.479 . S
C285 C284 1.405 . S
C285 H311 0.931 . S
U286 O287 2.454 . S
U286 O288 2.458 . S
U286 C289 2.984 . S
U286 C290 2.847 . S
U286 C303 2.882 . S
U286 O304 2.441 . S
U286 O305 2.420 . S
U286 O306 2.455 . S
U286 O307 2.449 . S
O287 U286 2.454 . S
O287 C289 1.353 . S
O288 U286 2.458 . S
O288 C289 1.286 . S
C289 U286 2.984 . S
C289 O287 1.353 . S
C289 O288 1.286 . S
C289 C291 1.363 . S
C290 C280 1.465 . S
C290 U286 2.847 . S
C290 O304 1.249 . S
C290 O305 1.202 . S
C291 C289 1.363 . S
C291 C293 1.408 . S
C291 C296 1.342 . S
C292 C293 1.310 . S
C292 C295 1.461 . S
C292 H312 0.932 . S
C293 C291 1.408 . S
C293 C292 1.310 . S
C293 H313 0.930 . S
C294 C295 1.474 . S
C294 C296 1.285 . S
C294 H314 0.929 . S
C295 C292 1.461 . S
C295 C294 1.474 . S
C296 C291 1.342 . S
C296 C294 1.285 . S
C296 H315 0.930 . S
C297 C300 1.424 . S
C297 C302 1.245 . S
C297 C303 1.428 . S
C298 C301 1.260 . S
C298 C302 1.477 . S
C298 H316 0.932 . S
C299 C300 1.384 . S
C299 C301 1.479 . S
C299 H317 0.929 . S
C300 C297 1.424 . S
C300 C299 1.384 . S
C300 H318 0.928 . S
C301 C298 1.260 . S
C301 C299 1.479 . S
C302 C297 1.245 . S
C302 C298 1.477 . S
C302 H319 0.932 . S
C303 U286 2.882 . S
C303 C297 1.428 . S
C303 O306 1.301 . S
C303 O307 1.282 . S
O304 U286 2.441 . S
O304 C290 1.249 . S
O305 U286 2.420 . S
O305 C290 1.202 . S
O306 U286 2.455 . S
O306 C303 1.301 . S
O307 U286 2.449 . S
O307 C303 1.282 . S
H308 C281 0.931 . S
H309 C283 0.929 . S
H310 C284 0.930 . S
H311 C285 0.931 . S
H312 C292 0.932 . S
H313 C293 0.930 . S
H314 C294 0.929 . S
H315 C296 0.930 . S
H316 C298 0.932 . S
H317 C299 0.929 . S
H318 C300 0.928 . S
H319 C302 0.932 . S
Tb320 C329 2.764 . S
Tb320 O330 2.323 . S
Tb320 O333 2.298 . S
Tb320 O337 2.324 1_445 S
Tb320 O338 2.354 1_455 S
Tb320 O341 2.412 . S
Tb320 O342 2.401 1_455 S
Tb321 O331 2.322 1_565 S
Tb321 O332 2.349 . S
Tb321 O334 2.415 . S
Tb321 O335 2.399 . S
Tb321 O336 2.325 . S
Tb321 O339 2.303 1_455 S
Tb321 C350 2.764 . S
C322 O338 1.261 . S
C322 O339 1.257 1_545 S
C323 C326 1.358 1_455 S
C323 C327 1.332 . S
C323 C329 1.504 . S
C324 C325 1.373 1_455 S
C324 C328 1.308 . S
C325 C324 1.373 1_655 S
C325 C326 1.429 . S
C325 H352 0.932 . S
C326 C323 1.358 1_655 S
C326 C325 1.429 . S
C326 H353 0.930 . S
C327 C323 1.332 . S
C327 C328 1.394 . S
C327 H354 0.932 . S
C328 C324 1.308 . S
C328 C327 1.394 . S
C328 H355 0.929 . S
C329 Tb320 2.764 . S
C329 C323 1.504 . S
C329 O341 1.239 . S
C329 O342 1.263 1_455 S
O330 Tb320 2.323 . S
O330 C340 1.236 . S
O331 Tb321 2.322 1_545 S
O331 C340 1.257 . S
O332 Tb321 2.349 . S
O332 C343 1.261 . S
O333 Tb320 2.298 . S
O333 C343 1.257 1_545 S
O334 Tb321 2.415 . S
O334 C350 1.239 . S
O335 Tb321 2.399 . S
O335 C350 1.263 . S
O336 Tb321 2.325 . S
O336 C351 1.236 1_455 S
O337 Tb320 2.324 1_665 S
O337 C351 1.257 . S
O338 Tb320 2.354 1_655 S
O338 C322 1.261 . S
O339 Tb321 2.303 1_655 S
O339 C322 1.257 1_565 S
C340 O330 1.236 . S
C340 O331 1.257 . S
O341 Tb320 2.412 . S
O341 C329 1.239 . S
O342 Tb320 2.401 1_655 S
O342 C329 1.263 1_655 S
C343 O332 1.261 . S
C343 O333 1.257 1_565 S
C344 C347 1.358 . S
C344 C348 1.332 . S
C344 C350 1.504 . S
C345 C346 1.373 . S
C345 C349 1.326 . S
C346 C345 1.373 . S
C346 C347 1.429 . S
C346 H356 0.932 . S
C347 C344 1.358 . S
C347 C346 1.429 . S
C347 H357 0.930 . S
C348 C344 1.332 . S
C348 C349 1.396 . S
C348 H358 0.932 1_455 S
C349 C345 1.326 . S
C349 C348 1.396 . S
C349 H359 0.908 1_455 S
C350 Tb321 2.764 . S
C350 O334 1.239 . S
C350 O335 1.263 . S
C350 C344 1.504 . S
C351 O336 1.236 1_655 S
C351 O337 1.257 . S
H352 C325 0.932 . S
H353 C326 0.930 . S
H354 C327 0.932 . S
H355 C328 0.929 . S
H356 C346 0.932 . S
H357 C347 0.930 . S
H358 C348 0.932 1_655 S
H359 C349 0.908 1_655 S
Tb360 C369 2.764 . S
Tb360 O370 2.325 . S
Tb360 O373 2.303 1_565 S
Tb360 O377 2.322 . S
Tb360 O378 2.349 . S
Tb360 O381 2.415 1_565 S
Tb360 O382 2.399 . S
Tb361 O371 2.322 . S
Tb361 O372 2.349 . S
Tb361 O374 2.415 1_545 S
Tb361 O375 2.399 . S
Tb361 O376 2.325 . S
Tb361 O379 2.303 1_545 S
Tb361 C390 2.764 . S
C362 O378 1.261 . S
C362 O379 1.257 . S
C363 C366 1.358 . S
C363 C367 1.332 . S
C363 C369 1.504 . S
C364 C365 1.373 . S
C364 C368 1.308 . S
C365 C364 1.373 . S
C365 C366 1.429 . S
C365 H392 0.932 . S
C366 C363 1.358 . S
C366 C365 1.429 . S
C366 H393 0.930 . S
C367 C363 1.332 . S
C367 C368 1.394 . S
C367 H394 0.932 1_565 S
C368 C364 1.308 . S
C368 C367 1.394 . S
C368 H395 0.929 1_565 S
C369 Tb360 2.764 . S
C369 C363 1.504 . S
C369 O381 1.239 1_565 S
C369 O382 1.263 . S
O370 Tb360 2.325 . S
O370 C380 1.236 1_565 S
O371 Tb361 2.322 . S
O371 C380 1.257 . S
O372 Tb361 2.349 . S
O372 C383 1.261 . S
O373 Tb360 2.303 1_545 S
O373 C383 1.257 . S
O374 Tb361 2.415 1_565 S
O374 C390 1.239 1_565 S
O375 Tb361 2.399 . S
O375 C390 1.263 . S
O376 Tb361 2.325 . S
O376 C391 1.236 1_545 S
O377 Tb360 2.322 . S
O377 C391 1.257 . S
O378 Tb360 2.349 . S
O378 C362 1.261 . S
O379 Tb361 2.303 1_565 S
O379 C362 1.257 . S
C380 O370 1.236 1_545 S
C380 O371 1.257 . S
O381 Tb360 2.415 1_545 S
O381 C369 1.239 1_545 S
O382 Tb360 2.399 . S
O382 C369 1.263 . S
C383 O372 1.261 . S
C383 O373 1.257 . S
C384 C387 1.358 . S
C384 C388 1.332 . S
C384 C390 1.504 . S
C385 C386 1.373 . S
C385 C389 1.308 . S
C386 C385 1.373 . S
C386 C387 1.429 . S
C386 H396 0.932 . S
C387 C384 1.358 . S
C387 C386 1.429 . S
C387 H397 0.930 . S
C388 C384 1.332 . S
C388 C389 1.394 . S
C388 H398 0.932 1_545 S
C389 C385 1.308 . S
C389 C388 1.394 . S
C389 H399 0.929 1_545 S
C390 Tb361 2.764 . S
C390 O374 1.239 1_545 S
C390 O375 1.263 . S
C390 C384 1.504 . S
C391 O376 1.236 1_565 S
C391 O377 1.257 . S
H392 C365 0.932 . S
H393 C366 0.930 . S
H394 C367 0.932 1_545 S
H395 C368 0.929 1_545 S
H396 C386 0.932 . S
H397 C387 0.930 . S
H398 C388 0.932 1_565 S
H399 C389 0.929 1_565 S
Tb400 C409 2.764 . S
Tb400 O410 2.325 . S
Tb400 O413 2.303 . S
Tb400 O417 2.322 . S
Tb400 O418 2.349 . S
Tb400 O421 2.415 . S
Tb400 O422 2.399 . S
Tb401 O411 2.322 . S
Tb401 O412 2.349 . S
Tb401 O414 2.415 . S
Tb401 O415 2.399 . S
Tb401 O416 2.325 . S
Tb401 O419 2.303 . S
Tb401 C430 2.764 . S
C402 O418 1.261 . S
C402 O419 1.257 . S
C403 C406 1.358 . S
C403 C407 1.332 . S
C403 C409 1.504 . S
C404 C405 1.373 . S
C404 C408 1.308 . S
C405 C404 1.373 . S
C405 C406 1.429 . S
C405 H432 0.932 . S
C406 C403 1.358 . S
C406 C405 1.429 . S
C406 H433 0.930 . S
C407 C403 1.332 . S
C407 C408 1.394 . S
C407 H434 0.932 . S
C408 C404 1.308 . S
C408 C407 1.394 . S
C408 H435 0.929 . S
C409 Tb400 2.764 . S
C409 C403 1.504 . S
C409 O421 1.239 . S
C409 O422 1.263 . S
O410 Tb400 2.325 . S
O410 C420 1.236 . S
O411 Tb401 2.322 . S
O411 C420 1.257 . S
O412 Tb401 2.349 . S
O412 C423 1.261 . S
O413 Tb400 2.303 . S
O413 C423 1.257 . S
O414 Tb401 2.415 . S
O414 C430 1.239 . S
O415 Tb401 2.399 . S
O415 C430 1.263 . S
O416 Tb401 2.325 . S
O416 C431 1.236 . S
O417 Tb400 2.322 . S
O417 C431 1.257 . S
O418 Tb400 2.349 . S
O418 C402 1.261 . S
O419 Tb401 2.303 . S
O419 C402 1.257 . S
C420 O410 1.236 . S
C420 O411 1.257 . S
O421 Tb400 2.415 . S
O421 C409 1.239 . S
O422 Tb400 2.399 . S
O422 C409 1.263 . S
C423 O412 1.261 . S
C423 O413 1.257 . S
C424 C427 1.358 . S
C424 C428 1.332 . S
C424 C430 1.504 . S
C425 C426 1.373 . S
C425 C429 1.308 . S
C426 C425 1.373 . S
C426 C427 1.429 . S
C426 H436 0.932 . S
C427 C424 1.358 . S
C427 C426 1.429 . S
C427 H437 0.930 . S
C428 C424 1.332 . S
C428 C429 1.394 . S
C428 H438 0.932 . S
C429 C425 1.308 . S
C429 C428 1.394 . S
C429 H439 0.929 . S
C430 Tb401 2.764 . S
C430 O414 1.239 . S
C430 O415 1.263 . S
C430 C424 1.504 . S
C431 O416 1.236 . S
C431 O417 1.257 . S
H432 C405 0.932 . S
H433 C406 0.930 . S
H434 C407 0.932 . S
H435 C408 0.929 . S
H436 C426 0.932 . S
H437 C427 0.930 . S
H438 C428 0.932 . S
H439 C429 0.929 . S
Tb440 C449 2.764 . S
Tb440 O450 2.325 . S
Tb440 O453 2.303 . S
Tb440 O457 2.322 1_455 S
Tb440 O458 2.349 . S
Tb440 O461 2.415 . S
Tb440 O462 2.399 . S
Tb441 O451 2.338 . S
Tb441 O452 2.354 . S
Tb441 O454 2.402 1_455 S
Tb441 O455 2.388 1_455 S
Tb441 O456 2.315 1_455 S
Tb441 O459 2.305 . S
Tb441 C470 2.750 1_455 S
C442 O458 1.261 . S
C442 O459 1.257 . S
C443 C446 1.358 . S
C443 C447 1.332 . S
C443 C449 1.504 . S
C444 C445 1.373 . S
C444 C448 1.308 . S
C445 C444 1.373 . S
C445 C446 1.429 . S
C445 H472 0.932 . S
C446 C443 1.358 . S
C446 C445 1.429 . S
C446 H473 0.930 . S
C447 C443 1.332 . S
C447 C448 1.394 . S
C447 H474 0.932 . S
C448 C444 1.308 . S
C448 C447 1.394 . S
C448 H475 0.929 . S
C449 Tb440 2.764 . S
C449 C443 1.504 . S
C449 O461 1.239 . S
C449 O462 1.263 . S
O450 Tb440 2.325 . S
O450 C460 1.236 . S
O451 Tb441 2.338 . S
O451 C460 1.257 . S
O452 Tb441 2.354 . S
O452 C463 1.261 . S
O453 Tb440 2.303 . S
O453 C463 1.257 . S
O454 Tb441 2.402 1_655 S
O454 C470 1.239 . S
O455 Tb441 2.388 1_655 S
O455 C470 1.263 . S
O456 Tb441 2.315 1_655 S
O456 C471 1.236 . S
O457 Tb440 2.322 1_655 S
O457 C471 1.257 . S
O458 Tb440 2.349 . S
O458 C442 1.261 . S
O459 Tb441 2.305 . S
O459 C442 1.257 . S
C460 O450 1.236 . S
C460 O451 1.257 . S
O461 Tb440 2.415 . S
O461 C449 1.239 . S
O462 Tb440 2.399 . S
O462 C449 1.263 . S
C463 O452 1.261 . S
C463 O453 1.257 . S
C464 C467 1.358 . S
C464 C468 1.332 . S
C464 C470 1.504 . S
C465 C466 1.373 . S
C465 C469 1.308 . S
C466 C465 1.373 . S
C466 C467 1.429 . S
C466 H476 0.932 . S
C467 C464 1.358 . S
C467 C466 1.429 . S
C467 H477 0.930 . S
C468 C464 1.332 . S
C468 C469 1.394 . S
C468 H478 0.932 . S
C469 C465 1.308 . S
C469 C468 1.394 . S
C469 H479 0.929 . S
C470 Tb441 2.750 1_655 S
C470 O454 1.239 . S
C470 O455 1.263 . S
C470 C464 1.504 . S
C471 O456 1.236 . S
C471 O457 1.257 . S
H472 C445 0.932 . S
H473 C446 0.930 . S
H474 C447 0.932 . S
H475 C448 0.929 . S
H476 C466 0.932 . S
H477 C467 0.930 . S
H478 C468 0.932 . S
H479 C469 0.929 . S
H480 C498 0.951 . S
H481 C500 0.951 . S
H482 C502 0.950 . S
H483 C503 0.950 . S
H484 C505 0.950 . S
H485 C508 0.950 . S
H486 C509 0.950 . S
H487 C511 0.950 . S
H488 C512 0.950 . S
H489 C513 0.951 . S
H490 C515 0.951 . S
H491 C517 0.950 . S
H492 C518 0.950 . S
H493 C520 0.950 . S
H494 C523 0.950 . S
H495 C524 0.950 . S
H496 C526 0.950 . S
H497 C527 0.950 . S
C498 H480 0.951 . S
C498 C499 1.365 1_545 S
C498 C500 1.388 . S
C499 C498 1.365 1_565 S
C499 C503 1.386 . S
C500 H481 0.951 . S
C500 C498 1.388 . S
C500 C501 1.346 1_545 S
C501 C500 1.346 1_565 S
C501 C502 1.431 . S
C501 C504 1.502 . S
C502 H482 0.950 . S
C502 C501 1.431 . S
C502 C503 1.374 . S
C503 H483 0.950 . S
C503 C499 1.386 . S
C503 C502 1.374 . S
C504 C501 1.502 . S
C504 C505 1.373 . S
C504 C506 1.389 1_565 S
C505 H484 0.950 . S
C505 C504 1.373 . S
C505 C521 1.377 . S
C506 C504 1.389 1_545 S
C506 C507 1.524 . S
C506 C520 1.377 . S
C507 C506 1.524 . S
C507 C508 1.397 . S
C507 C512 1.363 . S
C508 H485 0.950 . S
C508 C507 1.397 . S
C508 C509 1.334 . S
C509 H486 0.950 . S
C509 C508 1.334 . S
C509 C510 1.287 . S
C510 C509 1.287 . S
C510 C511 1.524 . S
C510 H529 0.913 . S
C511 H487 0.950 . S
C511 C510 1.524 . S
C511 C512 1.415 . S
C512 H488 0.950 . S
C512 C507 1.363 . S
C512 C511 1.415 . S
C513 H489 0.951 . S
C513 C514 1.366 . S
C513 C515 1.388 . S
C514 C513 1.366 . S
C514 C518 1.385 1_565 S
C515 H490 0.951 . S
C515 C513 1.388 . S
C515 C516 1.366 . S
C516 C515 1.366 . S
C516 C517 1.414 1_565 S
C516 C519 1.507 . S
C517 H491 0.950 . S
C517 C516 1.414 1_545 S
C517 C518 1.374 . S
C518 H492 0.950 . S
C518 C514 1.385 1_545 S
C518 C517 1.374 . S
C519 C516 1.507 . S
C519 C520 1.335 1_565 S
C519 C521 1.424 . S
C520 H493 0.950 . S
C520 C506 1.377 . S
C520 C519 1.335 1_545 S
C521 C505 1.377 . S
C521 C519 1.424 . S
C521 C522 1.524 . S
C522 C521 1.524 . S
C522 C523 1.397 . S
C522 C527 1.363 . S
C523 H494 0.950 . S
C523 C522 1.397 . S
C523 C524 1.334 . S
C524 H495 0.950 . S
C524 C523 1.334 . S
C524 C525 1.287 . S
C525 C524 1.287 . S
C525 C526 1.524 . S
C525 H528 0.999 . S
C526 H496 0.950 . S
C526 C525 1.524 . S
C526 C527 1.415 . S
C527 H497 0.950 . S
C527 C522 1.363 . S
C527 C526 1.415 . S
H528 C525 0.999 . S
H529 C510 0.913 . S
H530 C548 0.951 . S
H531 C550 0.951 . S
H532 C552 0.950 . S
H533 C553 0.950 . S
H534 C555 0.950 . S
H535 C558 0.950 . S
H536 C559 0.950 . S
H537 C561 0.950 . S
H538 C562 0.950 . S
H539 C563 0.951 . S
H540 C565 0.951 . S
H541 C567 0.950 . S
H542 C568 0.950 . S
H543 C570 0.950 . S
H544 C573 0.950 . S
H545 C574 0.950 . S
H546 C576 0.950 . S
H547 C577 0.950 . S
C548 H530 0.951 . S
C548 C549 1.366 . S
C548 C550 1.388 . S
C549 C548 1.366 . S
C549 C553 1.385 . S
C550 H531 0.951 . S
C550 C548 1.388 . S
C550 C551 1.366 . S
C551 C550 1.366 . S
C551 C552 1.414 . S
C551 C554 1.499 . S
C552 H532 0.950 . S
C552 C551 1.414 . S
C552 C553 1.374 . S
C553 H533 0.950 . S
C553 C549 1.385 . S
C553 C552 1.374 . S
C554 C551 1.499 . S
C554 C555 1.373 . S
C554 C556 1.389 . S
C555 H534 0.950 . S
C555 C554 1.373 . S
C555 C571 1.377 . S
C556 C554 1.389 . S
C556 C557 1.524 . S
C556 C570 1.377 . S
C557 C556 1.524 . S
C557 C558 1.397 . S
C557 C562 1.363 . S
C558 H535 0.950 . S
C558 C557 1.397 . S
C558 C559 1.334 . S
C559 H536 0.950 . S
C559 C558 1.334 . S
C559 C560 1.287 . S
C560 C559 1.287 . S
C560 C561 1.524 . S
C560 H579 0.913 . S
C561 H537 0.950 . S
C561 C560 1.524 . S
C561 C562 1.415 . S
C562 H538 0.950 . S
C562 C557 1.363 . S
C562 C561 1.415 . S
C563 H539 0.951 . S
C563 C564 1.366 . S
C563 C565 1.388 . S
C564 C563 1.366 . S
C564 C568 1.385 . S
C565 H540 0.951 . S
C565 C563 1.388 . S
C565 C566 1.366 . S
C566 C565 1.366 . S
C566 C567 1.414 . S
C566 C569 1.499 . S
C567 H541 0.950 . S
C567 C566 1.414 . S
C567 C568 1.374 . S
C568 H542 0.950 . S
C568 C564 1.385 . S
C568 C567 1.374 . S
C569 C566 1.499 . S
C569 C570 1.373 . S
C569 C571 1.389 . S
C570 H543 0.950 . S
C570 C556 1.377 . S
C570 C569 1.373 . S
C571 C555 1.377 . S
C571 C569 1.389 . S
C571 C572 1.524 . S
C572 C571 1.524 . S
C572 C573 1.397 . S
C572 C577 1.363 . S
C573 H544 0.950 . S
C573 C572 1.397 . S
C573 C574 1.334 . S
C574 H545 0.950 . S
C574 C573 1.334 . S
C574 C575 1.287 . S
C575 C574 1.287 . S
C575 C576 1.524 . S
C575 H578 0.999 . S
C576 H546 0.950 . S
C576 C575 1.524 . S
C576 C577 1.415 . S
C577 H547 0.950 . S
C577 C572 1.363 . S
C577 C576 1.415 . S
H578 C575 0.999 . S
H579 C560 0.913 . S
H580 C598 0.951 . S
H581 C600 0.951 . S
H582 C602 0.950 . S
H583 C603 0.950 . S
H584 C605 0.950 . S
H585 C608 0.950 . S
H586 C609 0.950 . S
H587 C611 0.950 . S
H588 C612 0.950 . S
H589 C613 0.951 . S
H590 C615 0.951 . S
H591 C617 0.950 . S
H592 C618 0.950 . S
H593 C620 0.950 . S
H594 C623 0.950 . S
H595 C624 0.950 . S
H596 C626 0.950 . S
H597 C627 0.950 . S
C598 H580 0.951 . S
C598 C599 1.366 . S
C598 C600 1.388 . S
C599 C598 1.366 . S
C599 C603 1.385 . S
C600 H581 0.951 . S
C600 C598 1.388 . S
C600 C601 1.366 . S
C601 C600 1.366 . S
C601 C602 1.414 . S
C601 C604 1.499 . S
C602 H582 0.950 . S
C602 C601 1.414 . S
C602 C603 1.374 . S
C603 H583 0.950 . S
C603 C599 1.385 . S
C603 C602 1.374 . S
C604 C601 1.499 . S
C604 C605 1.373 . S
C604 C606 1.389 . S
C605 H584 0.950 . S
C605 C604 1.373 . S
C605 C621 1.377 . S
C606 C604 1.389 . S
C606 C607 1.524 . S
C606 C620 1.377 . S
C607 C606 1.524 . S
C607 C608 1.397 . S
C607 C612 1.363 . S
C608 H585 0.950 . S
C608 C607 1.397 . S
C608 C609 1.334 . S
C609 H586 0.950 . S
C609 C608 1.334 . S
C609 C610 1.287 . S
C610 C609 1.287 . S
C610 C611 1.524 . S
C610 H629 0.913 . S
C611 H587 0.950 . S
C611 C610 1.524 . S
C611 C612 1.415 . S
C612 H588 0.950 . S
C612 C607 1.363 . S
C612 C611 1.415 . S
C613 H589 0.951 . S
C613 C614 1.366 . S
C613 C615 1.388 . S
C614 C613 1.366 . S
C614 C618 1.385 . S
C615 H590 0.951 . S
C615 C613 1.388 . S
C615 C616 1.366 . S
C616 C615 1.366 . S
C616 C617 1.414 . S
C616 C619 1.499 . S
C617 H591 0.950 . S
C617 C616 1.414 . S
C617 C618 1.374 . S
C618 H592 0.950 . S
C618 C614 1.385 . S
C618 C617 1.374 . S
C619 C616 1.499 . S
C619 C620 1.373 . S
C619 C621 1.389 . S
C620 H593 0.950 . S
C620 C606 1.377 . S
C620 C619 1.373 . S
C621 C605 1.377 . S
C621 C619 1.389 . S
C621 C622 1.524 . S
C622 C621 1.524 . S
C622 C623 1.397 . S
C622 C627 1.363 . S
C623 H594 0.950 . S
C623 C622 1.397 . S
C623 C624 1.334 . S
C624 H595 0.950 . S
C624 C623 1.334 . S
C624 C625 1.287 . S
C625 C624 1.287 . S
C625 C626 1.524 . S
C625 H628 0.999 . S
C626 H596 0.950 . S
C626 C625 1.524 . S
C626 C627 1.415 . S
C627 H597 0.950 . S
C627 C622 1.363 . S
C627 C626 1.415 . S
H628 C625 0.999 . S
H629 C610 0.913 . S
H630 C648 0.951 . S
H631 C650 0.951 . S
H632 C652 0.950 . S
H633 C653 0.950 . S
H634 C655 0.950 . S
H635 C658 0.950 . S
H636 C659 0.950 . S
H637 C661 0.950 . S
H638 C662 0.950 . S
H639 C663 0.951 . S
H640 C665 0.951 . S
H641 C667 0.950 . S
H642 C668 0.950 . S
H643 C670 0.950 . S
H644 C673 0.950 . S
H645 C674 0.950 . S
H646 C676 0.950 . S
H647 C677 0.950 . S
C648 H630 0.951 . S
C648 C649 1.366 . S
C648 C650 1.388 . S
C649 C648 1.366 . S
C649 C653 1.385 . S
C650 H631 0.951 . S
C650 C648 1.388 . S
C650 C651 1.366 . S
C651 C650 1.366 . S
C651 C652 1.414 . S
C651 C654 1.499 . S
C652 H632 0.950 . S
C652 C651 1.414 . S
C652 C653 1.374 . S
C653 H633 0.950 . S
C653 C649 1.385 . S
C653 C652 1.374 . S
C654 C651 1.499 . S
C654 C655 1.373 . S
C654 C656 1.389 . S
C655 H634 0.950 . S
C655 C654 1.373 . S
C655 C671 1.377 . S
C656 C654 1.389 . S
C656 C657 1.524 . S
C656 C670 1.377 . S
C657 C656 1.524 . S
C657 C658 1.397 . S
C657 C662 1.363 . S
C658 H635 0.950 . S
C658 C657 1.397 . S
C658 C659 1.334 . S
C659 H636 0.950 . S
C659 C658 1.334 . S
C659 C660 1.287 . S
C660 C659 1.287 . S
C660 C661 1.524 . S
C660 H679 0.913 . S
C661 H637 0.950 . S
C661 C660 1.524 . S
C661 C662 1.415 . S
C662 H638 0.950 . S
C662 C657 1.363 . S
C662 C661 1.415 . S
C663 H639 0.951 . S
C663 C664 1.366 . S
C663 C665 1.388 . S
C664 C663 1.366 . S
C664 C668 1.385 . S
C665 H640 0.951 . S
C665 C663 1.388 . S
C665 C666 1.366 . S
C666 C665 1.366 . S
C666 C667 1.414 . S
C666 C669 1.499 . S
C667 H641 0.950 . S
C667 C666 1.414 . S
C667 C668 1.374 . S
C668 H642 0.950 . S
C668 C664 1.385 . S
C668 C667 1.374 . S
C669 C666 1.499 . S
C669 C670 1.373 . S
C669 C671 1.389 . S
C670 H643 0.950 . S
C670 C656 1.377 . S
C670 C669 1.373 . S
C671 C655 1.377 . S
C671 C669 1.389 . S
C671 C672 1.524 . S
C672 C671 1.524 . S
C672 C673 1.397 . S
C672 C677 1.363 . S
C673 H644 0.950 . S
C673 C672 1.397 . S
C673 C674 1.334 . S
C674 H645 0.950 . S
C674 C673 1.334 . S
C674 C675 1.287 . S
C675 C674 1.287 . S
C675 C676 1.524 . S
C675 H678 0.999 . S
C676 H646 0.950 . S
C676 C675 1.524 . S
C676 C677 1.415 . S
C677 H647 0.950 . S
C677 C672 1.363 . S
C677 C676 1.415 . S
H678 C675 0.999 . S
H679 C660 0.913 . S
H680 C698 0.951 . S
H681 C700 0.951 . S
H682 C702 0.953 1_565 S
H683 C703 0.950 . S
H684 C705 0.950 . S
H685 C708 0.950 . S
H686 C709 0.950 . S
H687 C711 0.950 . S
H688 C712 0.950 . S
H689 C713 0.947 . S
H690 C715 0.951 . S
H691 C717 0.950 . S
H692 C718 0.950 . S
H693 C720 0.950 . S
H694 C723 0.950 . S
H695 C724 0.950 . S
H696 C726 0.950 . S
H697 C727 0.950 . S
C698 H680 0.951 . S
C698 C699 1.366 . S
C698 C700 1.388 . S
C699 C698 1.366 . S
C699 C703 1.385 1_545 S
C700 H681 0.951 . S
C700 C698 1.388 . S
C700 C701 1.366 . S
C701 C700 1.366 . S
C701 C702 1.415 . S
C701 C704 1.499 . S
C702 H682 0.953 1_545 S
C702 C701 1.415 . S
C702 C703 1.372 1_545 S
C703 H683 0.950 . S
C703 C699 1.385 1_565 S
C703 C702 1.372 1_565 S
C704 C701 1.499 . S
C704 C705 1.373 1_545 S
C704 C706 1.389 . S
C705 H684 0.950 . S
C705 C704 1.373 1_565 S
C705 C721 1.377 1_554 S
C706 C704 1.389 . S
C706 C707 1.524 . S
C706 C720 1.377 . S
C707 C706 1.524 . S
C707 C708 1.397 . S
C707 C712 1.363 . S
C708 H685 0.950 . S
C708 C707 1.397 . S
C708 C709 1.334 . S
C709 H686 0.950 . S
C709 C708 1.334 . S
C709 C710 1.287 . S
C710 C709 1.287 . S
C710 C711 1.524 . S
C710 H729 0.913 . S
C711 H687 0.950 . S
C711 C710 1.524 . S
C711 C712 1.415 . S
C712 H688 0.950 . S
C712 C707 1.363 . S
C712 C711 1.415 . S
C713 H689 0.947 . S
C713 C714 1.366 . S
C713 C715 1.393 . S
C714 C713 1.366 . S
C714 C718 1.385 . S
C715 H690 0.951 . S
C715 C713 1.393 . S
C715 C716 1.367 . S
C716 C715 1.367 . S
C716 C717 1.417 . S
C716 C719 1.496 . S
C717 H691 0.950 . S
C717 C716 1.417 . S
C717 C718 1.374 . S
C718 H692 0.950 . S
C718 C714 1.385 . S
C718 C717 1.374 . S
C719 C716 1.496 . S
C719 C720 1.388 1_556 S
C719 C721 1.374 1_545 S
C720 H693 0.950 . S
C720 C706 1.377 . S
C720 C719 1.388 1_554 S
C721 C705 1.377 1_556 S
C721 C719 1.374 1_565 S
C721 C722 1.524 . S
C722 C721 1.524 . S
C722 C723 1.397 . S
C722 C727 1.363 . S
C723 H694 0.950 . S
C723 C722 1.397 . S
C723 C724 1.334 . S
C724 H695 0.950 . S
C724 C723 1.334 . S
C724 C725 1.287 . S
C725 C724 1.287 . S
C725 C726 1.524 . S
C725 H728 0.999 . S
C726 H696 0.950 . S
C726 C725 1.524 . S
C726 C727 1.415 . S
C727 H697 0.950 . S
C727 C722 1.363 . S
C727 C726 1.415 . S
H728 C725 0.999 . S
H729 C710 0.913 . S
H730 C748 0.951 . S
H731 C750 0.951 . S
H732 C752 0.950 . S
H733 C753 0.950 . S
H734 C755 0.950 . S
H735 C758 0.950 . S
H736 C759 0.950 . S
H737 C761 0.950 . S
H738 C762 0.950 . S
H739 C763 0.951 . S
H740 C765 0.951 . S
H741 C767 0.950 . S
H742 C768 0.950 . S
H743 C770 0.950 . S
H744 C773 0.950 . S
H745 C774 0.950 . S
H746 C776 0.950 . S
H747 C777 0.950 . S
C748 H730 0.951 . S
C748 C749 1.366 . S
C748 C750 1.388 . S
C749 C748 1.366 . S
C749 C753 1.385 . S
C750 H731 0.951 . S
C750 C748 1.388 . S
C750 C751 1.366 . S
C751 C750 1.366 . S
C751 C752 1.414 . S
C751 C754 1.499 . S
C752 H732 0.950 . S
C752 C751 1.414 . S
C752 C753 1.374 . S
C753 H733 0.950 . S
C753 C749 1.385 . S
C753 C752 1.374 . S
C754 C751 1.499 . S
C754 C755 1.373 . S
C754 C756 1.389 . S
C755 H734 0.950 . S
C755 C754 1.373 . S
C755 C771 1.377 . S
C756 C754 1.389 . S
C756 C757 1.524 . S
C756 C770 1.377 . S
C757 C756 1.524 . S
C757 C758 1.397 . S
C757 C762 1.363 . S
C758 H735 0.950 . S
C758 C757 1.397 . S
C758 C759 1.334 1_556 S
C759 H736 0.950 . S
C759 C758 1.334 1_554 S
C759 C760 1.287 . S
C760 C759 1.287 . S
C760 C761 1.524 . S
C760 H779 0.913 . S
C761 H737 0.950 . S
C761 C760 1.524 . S
C761 C762 1.415 1_554 S
C762 H738 0.950 . S
C762 C757 1.363 . S
C762 C761 1.415 1_556 S
C763 H739 0.951 . S
C763 C764 1.366 . S
C763 C765 1.388 . S
C764 C763 1.366 . S
C764 C768 1.385 . S
C765 H740 0.951 . S
C765 C763 1.388 . S
C765 C766 1.366 . S
C766 C765 1.366 . S
C766 C767 1.414 . S
C766 C769 1.499 . S
C767 H741 0.950 . S
C767 C766 1.414 . S
C767 C768 1.374 . S
C768 H742 0.950 . S
C768 C764 1.385 . S
C768 C767 1.374 . S
C769 C766 1.499 . S
C769 C770 1.373 . S
C769 C771 1.389 . S
C770 H743 0.950 . S
C770 C756 1.377 . S
C770 C769 1.373 . S
C771 C755 1.377 . S
C771 C769 1.389 . S
C771 C772 1.524 . S
C772 C771 1.524 . S
C772 C773 1.397 . S
C772 C777 1.363 . S
C773 H744 0.950 . S
C773 C772 1.397 . S
C773 C774 1.334 . S
C774 H745 0.950 . S
C774 C773 1.334 . S
C774 C775 1.287 . S
C775 C774 1.287 . S
C775 C776 1.524 . S
C775 H778 0.999 . S
C776 H746 0.950 . S
C776 C775 1.524 . S
C776 C777 1.415 . S
C777 H747 0.950 . S
C777 C772 1.363 . S
C777 C776 1.415 . S
H778 C775 0.999 . S
H779 C760 0.913 . S
H780 C798 0.951 . S
H781 C800 0.951 . S
H782 C802 0.950 . S
H783 C803 0.950 . S
H784 C805 0.950 . S
H785 C808 0.950 . S
H786 C809 0.950 . S
H787 C811 0.950 . S
H788 C812 0.950 . S
H789 C813 0.951 . S
H790 C815 0.951 . S
H791 C817 0.950 . S
H792 C818 0.950 . S
H793 C820 0.950 . S
H794 C823 0.950 . S
H795 C824 0.950 . S
H796 C826 0.950 . S
H797 C827 0.950 . S
C798 H780 0.951 . S
C798 C799 1.366 . S
C798 C800 1.388 . S
C799 C798 1.366 . S
C799 C803 1.385 . S
C800 H781 0.951 . S
C800 C798 1.388 . S
C800 C801 1.366 . S
C801 C800 1.366 . S
C801 C802 1.414 . S
C801 C804 1.499 . S
C802 H782 0.950 . S
C802 C801 1.414 . S
C802 C803 1.374 . S
C803 H783 0.950 . S
C803 C799 1.385 . S
C803 C802 1.374 . S
C804 C801 1.499 . S
C804 C805 1.373 . S
C804 C806 1.389 . S
C805 H784 0.950 . S
C805 C804 1.373 . S
C805 C821 1.377 1_554 S
C806 C804 1.389 . S
C806 C807 1.524 . S
C806 C820 1.377 1_554 S
C807 C806 1.524 . S
C807 C808 1.397 . S
C807 C812 1.363 . S
C808 H785 0.950 . S
C808 C807 1.397 . S
C808 C809 1.334 . S
C809 H786 0.950 . S
C809 C808 1.334 . S
C809 C810 1.287 . S
C810 C809 1.287 . S
C810 C811 1.524 . S
C810 H829 0.913 . S
C811 H787 0.950 . S
C811 C810 1.524 . S
C811 C812 1.415 . S
C812 H788 0.950 . S
C812 C807 1.363 . S
C812 C811 1.415 . S
C813 H789 0.951 . S
C813 C814 1.366 . S
C813 C815 1.388 . S
C814 C813 1.366 . S
C814 C818 1.385 . S
C815 H790 0.951 . S
C815 C813 1.388 . S
C815 C816 1.366 . S
C816 C815 1.366 . S
C816 C817 1.414 . S
C816 C819 1.499 . S
C817 H791 0.950 . S
C817 C816 1.414 . S
C817 C818 1.374 . S
C818 H792 0.950 . S
C818 C814 1.385 . S
C818 C817 1.374 . S
C819 C816 1.499 . S
C819 C820 1.373 . S
C819 C821 1.389 . S
C820 H793 0.950 . S
C820 C806 1.377 1_556 S
C820 C819 1.373 . S
C821 C805 1.377 1_556 S
C821 C819 1.389 . S
C821 C822 1.524 . S
C822 C821 1.524 . S
C822 C823 1.397 . S
C822 C827 1.363 . S
C823 H794 0.950 . S
C823 C822 1.397 . S
C823 C824 1.334 . S
C824 H795 0.950 . S
C824 C823 1.334 . S
C824 C825 1.287 . S
C825 C824 1.287 . S
C825 C826 1.524 . S
C825 H828 0.999 . S
C826 H796 0.950 . S
C826 C825 1.524 . S
C826 C827 1.415 . S
C827 H797 0.950 . S
C827 C822 1.363 . S
C827 C826 1.415 . S
H828 C825 0.999 . S
H829 C810 0.913 . S
H830 C848 0.951 . S
H831 C850 0.951 . S
H832 C852 0.950 . S
H833 C853 0.950 . S
H834 C855 0.950 . S
H835 C858 0.950 . S
H836 C859 0.950 . S
H837 C861 0.950 . S
H838 C862 0.950 . S
H839 C863 0.951 . S
H840 C865 0.951 . S
H841 C867 0.950 . S
H842 C868 0.950 . S
H843 C870 0.950 . S
H844 C873 0.950 . S
H845 C874 0.950 . S
H846 C876 0.950 . S
H847 C877 0.950 . S
C848 H830 0.951 . S
C848 C849 1.366 . S
C848 C850 1.388 . S
C849 C848 1.366 . S
C849 C853 1.385 . S
C850 H831 0.951 . S
C850 C848 1.388 . S
C850 C851 1.366 . S
C851 C850 1.366 . S
C851 C852 1.414 . S
C851 C854 1.499 . S
C852 H832 0.950 . S
C852 C851 1.414 . S
C852 C853 1.374 . S
C853 H833 0.950 . S
C853 C849 1.385 . S
C853 C852 1.374 . S
C854 C851 1.499 . S
C854 C855 1.373 1_554 S
C854 C856 1.389 . S
C855 H834 0.950 . S
C855 C854 1.373 1_556 S
C855 C871 1.377 . S
C856 C854 1.389 . S
C856 C857 1.524 . S
C856 C870 1.377 1_554 S
C857 C856 1.524 . S
C857 C858 1.397 . S
C857 C862 1.363 . S
C858 H835 0.950 . S
C858 C857 1.397 . S
C858 C859 1.334 1_655 S
C859 H836 0.950 . S
C859 C858 1.334 1_455 S
C859 C860 1.287 . S
C860 C859 1.287 . S
C860 C861 1.524 . S
C860 H879 0.913 . S
C861 H837 0.950 . S
C861 C860 1.524 . S
C861 C862 1.415 1_455 S
C862 H838 0.950 . S
C862 C857 1.363 . S
C862 C861 1.415 1_655 S
C863 H839 0.951 . S
C863 C864 1.366 . S
C863 C865 1.388 . S
C864 C863 1.366 . S
C864 C868 1.385 . S
C865 H840 0.951 . S
C865 C863 1.388 . S
C865 C866 1.366 . S
C866 C865 1.366 . S
C866 C867 1.414 . S
C866 C869 1.499 . S
C867 H841 0.950 . S
C867 C866 1.414 . S
C867 C868 1.374 . S
C868 H842 0.950 . S
C868 C864 1.385 . S
C868 C867 1.374 . S
C869 C866 1.499 . S
C869 C870 1.373 . S
C869 C871 1.389 . S
C870 H843 0.950 . S
C870 C856 1.377 1_556 S
C870 C869 1.373 . S
C871 C855 1.377 . S
C871 C869 1.389 . S
C871 C872 1.524 . S
C872 C871 1.524 . S
C872 C873 1.397 . S
C872 C877 1.363 . S
C873 H844 0.950 . S
C873 C872 1.397 . S
C873 C874 1.334 . S
C874 H845 0.950 . S
C874 C873 1.334 . S
C874 C875 1.287 . S
C875 C874 1.287 . S
C875 C876 1.524 . S
C875 H878 0.999 . S
C876 H846 0.950 . S
C876 C875 1.524 . S
C876 C877 1.415 . S
C877 H847 0.950 . S
C877 C872 1.363 . S
C877 C876 1.415 . S
H878 C875 0.999 . S
H879 C860 0.913 . S
H880 C898 0.951 . S
H881 C900 0.951 . S
H882 C902 0.950 . S
H883 C903 0.950 . S
H884 C905 0.950 . S
H885 C908 0.950 . S
H886 C909 0.950 . S
H887 C911 0.950 1_655 S
H888 C912 0.950 . S
H889 C913 0.951 . S
H890 C915 0.951 . S
H891 C917 0.950 . S
H892 C918 0.950 . S
H893 C920 0.950 . S
H894 C923 0.950 . S
H895 C924 0.950 . S
H896 C926 0.950 . S
H897 C927 0.950 . S
C898 H880 0.951 . S
C898 C899 1.366 . S
C898 C900 1.388 . S
C899 C898 1.366 . S
C899 C903 1.385 . S
C900 H881 0.951 . S
C900 C898 1.388 . S
C900 C901 1.366 . S
C901 C900 1.366 . S
C901 C902 1.414 . S
C901 C904 1.499 . S
C902 H882 0.950 . S
C902 C901 1.414 . S
C902 C903 1.374 . S
C903 H883 0.950 . S
C903 C899 1.385 . S
C903 C902 1.374 . S
C904 C901 1.499 . S
C904 C905 1.373 . S
C904 C906 1.389 . S
C905 H884 0.950 . S
C905 C904 1.373 . S
C905 C921 1.377 . S
C906 C904 1.389 . S
C906 C907 1.524 . S
C906 C920 1.377 . S
C907 C906 1.524 . S
C907 C908 1.397 . S
C907 C912 1.363 . S
C908 H885 0.950 . S
C908 C907 1.397 . S
C908 C909 1.334 . S
C909 H886 0.950 . S
C909 C908 1.334 . S
C909 C910 1.287 . S
C910 C909 1.287 . S
C910 C911 1.524 . S
C910 H929 0.913 . S
C911 H887 0.950 1_455 S
C911 C910 1.524 . S
C911 C912 1.415 . S
C912 H888 0.950 . S
C912 C907 1.363 . S
C912 C911 1.415 . S
C913 H889 0.951 . S
C913 C914 1.366 . S
C913 C915 1.388 . S
C914 C913 1.366 . S
C914 C918 1.385 1_455 S
C915 H890 0.951 . S
C915 C913 1.388 . S
C915 C916 1.366 . S
C916 C915 1.366 . S
C916 C917 1.414 . S
C916 C919 1.499 . S
C917 H891 0.950 . S
C917 C916 1.414 . S
C917 C918 1.374 1_455 S
C918 H892 0.950 . S
C918 C914 1.385 1_655 S
C918 C917 1.374 1_655 S
C919 C916 1.499 . S
C919 C920 1.373 . S
C919 C921 1.389 . S
C920 H893 0.950 . S
C920 C906 1.377 . S
C920 C919 1.373 . S
C921 C905 1.377 . S
C921 C919 1.389 . S
C921 C922 1.524 . S
C922 C921 1.524 . S
C922 C923 1.397 . S
C922 C927 1.363 . S
C923 H894 0.950 . S
C923 C922 1.397 . S
C923 C924 1.334 . S
C924 H895 0.950 . S
C924 C923 1.334 . S
C924 C925 1.287 . S
C925 C924 1.287 . S
C925 C926 1.524 . S
C925 H928 0.999 . S
C926 H896 0.950 . S
C926 C925 1.524 . S
C926 C927 1.415 . S
C927 H897 0.950 . S
C927 C922 1.363 . S
C927 C926 1.415 . S
H928 C925 0.999 . S
H929 C910 0.913 . S
H930 C948 0.951 . S
H931 C950 0.952 . S
H932 C952 0.950 . S
H933 C953 0.950 . S
H934 C955 0.969 . S
H935 C958 0.950 . S
H936 C959 0.950 . S
H937 C961 0.950 . S
H938 C962 0.950 . S
H939 C963 0.951 . S
H940 C965 0.951 . S
H941 C967 0.950 . S
H942 C968 0.950 . S
H943 C970 0.950 . S
H944 C973 0.950 . S
H945 C974 0.950 . S
H946 C976 0.950 . S
H947 C977 0.950 . S
C948 H930 0.951 . S
C948 C949 1.366 . S
C948 C950 1.390 . S
C949 C948 1.366 . S
C949 C953 1.385 1_545 S
C950 H931 0.952 . S
C950 C948 1.390 . S
C950 C951 1.362 1_545 S
C951 C950 1.362 1_565 S
C951 C952 1.414 . S
C951 C954 1.499 . S
C952 H932 0.950 . S
C952 C951 1.414 . S
C952 C953 1.374 . S
C953 H933 0.950 . S
C953 C949 1.385 1_565 S
C953 C952 1.374 . S
C954 C951 1.499 . S
C954 C955 1.361 1_565 S
C954 C956 1.389 . S
C955 H934 0.969 . S
C955 C954 1.361 1_545 S
C955 C971 1.371 1_545 S
C956 C954 1.389 . S
C956 C957 1.524 . S
C956 C970 1.377 . S
C957 C956 1.524 . S
C957 C958 1.397 . S
C957 C962 1.363 . S
C958 H935 0.950 . S
C958 C957 1.397 . S
C958 C959 1.334 . S
C959 H936 0.950 . S
C959 C958 1.334 . S
C959 C960 1.287 . S
C960 C959 1.287 . S
C960 C961 1.524 . S
C960 H979 0.913 . S
C961 H937 0.950 . S
C961 C960 1.524 . S
C961 C962 1.415 . S
C962 H938 0.950 . S
C962 C957 1.363 . S
C962 C961 1.415 . S
C963 H939 0.951 . S
C963 C964 1.366 . S
C963 C965 1.388 . S
C964 C963 1.366 . S
C964 C968 1.385 . S
C965 H940 0.951 . S
C965 C963 1.388 . S
C965 C966 1.366 . S
C966 C965 1.366 . S
C966 C967 1.414 . S
C966 C969 1.499 . S
C967 H941 0.950 . S
C967 C966 1.414 . S
C967 C968 1.374 . S
C968 H942 0.950 . S
C968 C964 1.385 . S
C968 C967 1.374 . S
C969 C966 1.499 . S
C969 C970 1.373 . S
C969 C971 1.389 . S
C970 H943 0.950 . S
C970 C956 1.377 . S
C970 C969 1.373 . S
C971 C955 1.371 1_565 S
C971 C969 1.389 . S
C971 C972 1.524 1_565 S
C972 C971 1.524 1_545 S
C972 C973 1.397 . S
C972 C977 1.363 . S
C973 H944 0.950 . S
C973 C972 1.397 . S
C973 C974 1.334 . S
C974 H945 0.950 . S
C974 C973 1.334 . S
C974 C975 1.287 . S
C975 C974 1.287 . S
C975 C976 1.524 . S
C975 H978 0.999 . S
C976 H946 0.950 . S
C976 C975 1.524 . S
C976 C977 1.415 . S
C977 H947 0.950 . S
C977 C972 1.363 . S
C977 C976 1.415 . S
H978 C975 0.999 . S
H979 C960 0.913 . S
H980 C998 0.951 . S
H981 C1000 0.951 . S
H982 C1002 0.950 . S
H983 C1003 0.950 . S
H984 C1005 0.950 . S
H985 C1008 0.950 . S
H986 C1009 0.950 . S
H987 C1011 0.950 . S
H988 C1012 0.950 . S
H989 C1013 0.951 . S
H990 C1015 0.951 . S
H991 C1017 0.950 . S
H992 C1018 0.950 . S
H993 C1020 0.950 . S
H994 C1023 0.950 . S
H995 C1024 0.950 . S
H996 C1026 0.950 . S
H997 C1027 0.950 . S
C998 H980 0.951 . S
C998 C999 1.366 . S
C998 C1000 1.388 . S
C999 C998 1.366 . S
C999 C1003 1.385 . S
C1000 H981 0.951 . S
C1000 C998 1.388 . S
C1000 C1001 1.366 . S
C1001 C1000 1.366 . S
C1001 C1002 1.414 . S
C1001 C1004 1.499 . S
C1002 H982 0.950 . S
C1002 C1001 1.414 . S
C1002 C1003 1.374 . S
C1003 H983 0.950 . S
C1003 C999 1.385 . S
C1003 C1002 1.374 . S
C1004 C1001 1.499 . S
C1004 C1005 1.373 . S
C1004 C1006 1.389 . S
C1005 H984 0.950 . S
C1005 C1004 1.373 . S
C1005 C1021 1.377 . S
C1006 C1004 1.389 . S
C1006 C1007 1.524 . S
C1006 C1020 1.377 . S
C1007 C1006 1.524 . S
C1007 C1008 1.397 . S
C1007 C1012 1.363 . S
C1008 H985 0.950 . S
C1008 C1007 1.397 . S
C1008 C1009 1.334 . S
C1009 H986 0.950 . S
C1009 C1008 1.334 . S
C1009 C1010 1.287 . S
C1010 C1009 1.287 . S
C1010 C1011 1.524 . S
C1010 H1029 0.913 . S
C1011 H987 0.950 . S
C1011 C1010 1.524 . S
C1011 C1012 1.415 . S
C1012 H988 0.950 . S
C1012 C1007 1.363 . S
C1012 C1011 1.415 . S
C1013 H989 0.951 . S
C1013 C1014 1.366 . S
C1013 C1015 1.388 . S
C1014 C1013 1.366 . S
C1014 C1018 1.385 . S
C1015 H990 0.951 . S
C1015 C1013 1.388 . S
C1015 C1016 1.366 . S
C1016 C1015 1.366 . S
C1016 C1017 1.414 . S
C1016 C1019 1.499 . S
C1017 H991 0.950 . S
C1017 C1016 1.414 . S
C1017 C1018 1.374 . S
C1018 H992 0.950 . S
C1018 C1014 1.385 . S
C1018 C1017 1.374 . S
C1019 C1016 1.499 . S
C1019 C1020 1.373 . S
C1019 C1021 1.389 . S
C1020 H993 0.950 . S
C1020 C1006 1.377 . S
C1020 C1019 1.373 . S
C1021 C1005 1.377 . S
C1021 C1019 1.389 . S
C1021 C1022 1.524 . S
C1022 C1021 1.524 . S
C1022 C1023 1.397 . S
C1022 C1027 1.363 . S
C1023 H994 0.950 . S
C1023 C1022 1.397 . S
C1023 C1024 1.334 . S
C1024 H995 0.950 . S
C1024 C1023 1.334 . S
C1024 C1025 1.287 . S
C1025 C1024 1.287 . S
C1025 C1026 1.524 . S
C1025 H1028 0.999 . S
C1026 H996 0.950 . S
C1026 C1025 1.524 . S
C1026 C1027 1.415 . S
C1027 H997 0.950 . S
C1027 C1022 1.363 . S
C1027 C1026 1.415 . S
H1028 C1025 0.999 . S
H1029 C1010 0.913 . S
H1030 C1048 0.951 . S
H1031 C1050 0.951 . S
H1032 C1052 0.950 . S
H1033 C1053 0.950 . S
H1034 C1055 0.950 . S
H1035 C1058 0.950 . S
H1036 C1059 0.950 . S
H1037 C1061 0.950 . S
H1038 C1062 0.950 . S
H1039 C1063 0.951 . S
H1040 C1065 0.951 . S
H1041 C1067 0.950 . S
H1042 C1068 0.950 . S
H1043 C1070 0.950 . S
H1044 C1073 0.950 . S
H1045 C1074 0.950 . S
H1046 C1076 0.950 . S
H1047 C1077 0.950 . S
C1048 H1030 0.951 . S
C1048 C1049 1.366 . S
C1048 C1050 1.388 . S
C1049 C1048 1.366 . S
C1049 C1053 1.385 . S
C1050 H1031 0.951 . S
C1050 C1048 1.388 . S
C1050 C1051 1.366 . S
C1051 C1050 1.366 . S
C1051 C1052 1.414 . S
C1051 C1054 1.499 . S
C1052 H1032 0.950 . S
C1052 C1051 1.414 . S
C1052 C1053 1.374 . S
C1053 H1033 0.950 . S
C1053 C1049 1.385 . S
C1053 C1052 1.374 . S
C1054 C1051 1.499 . S
C1054 C1055 1.373 . S
C1054 C1056 1.389 . S
C1055 H1034 0.950 . S
C1055 C1054 1.373 . S
C1055 C1071 1.377 . S
C1056 C1054 1.389 . S
C1056 C1057 1.524 . S
C1056 C1070 1.377 . S
C1057 C1056 1.524 . S
C1057 C1058 1.397 . S
C1057 C1062 1.363 . S
C1058 H1035 0.950 . S
C1058 C1057 1.397 . S
C1058 C1059 1.334 . S
C1059 H1036 0.950 . S
C1059 C1058 1.334 . S
C1059 C1060 1.287 . S
C1060 C1059 1.287 . S
C1060 C1061 1.524 . S
C1060 H1079 0.913 . S
C1061 H1037 0.950 . S
C1061 C1060 1.524 . S
C1061 C1062 1.415 . S
C1062 H1038 0.950 . S
C1062 C1057 1.363 . S
C1062 C1061 1.415 . S
C1063 H1039 0.951 . S
C1063 C1064 1.366 . S
C1063 C1065 1.388 . S
C1064 C1063 1.366 . S
C1064 C1068 1.385 . S
C1065 H1040 0.951 . S
C1065 C1063 1.388 . S
C1065 C1066 1.366 . S
C1066 C1065 1.366 . S
C1066 C1067 1.414 . S
C1066 C1069 1.499 . S
C1067 H1041 0.950 . S
C1067 C1066 1.414 . S
C1067 C1068 1.374 . S
C1068 H1042 0.950 . S
C1068 C1064 1.385 . S
C1068 C1067 1.374 . S
C1069 C1066 1.499 . S
C1069 C1070 1.373 . S
C1069 C1071 1.389 . S
C1070 H1043 0.950 . S
C1070 C1056 1.377 . S
C1070 C1069 1.373 . S
C1071 C1055 1.377 . S
C1071 C1069 1.389 . S
C1071 C1072 1.524 . S
C1072 C1071 1.524 . S
C1072 C1073 1.397 . S
C1072 C1077 1.363 . S
C1073 H1044 0.950 . S
C1073 C1072 1.397 . S
C1073 C1074 1.334 . S
C1074 H1045 0.950 . S
C1074 C1073 1.334 . S
C1074 C1075 1.287 . S
C1075 C1074 1.287 . S
C1075 C1076 1.524 . S
C1075 H1078 0.999 . S
C1076 H1046 0.950 . S
C1076 C1075 1.524 . S
C1076 C1077 1.415 . S
C1077 H1047 0.950 . S
C1077 C1072 1.363 . S
C1077 C1076 1.415 . S
H1078 C1075 0.999 . S
H1079 C1060 0.913 . S
H1080 C1098 0.951 . S
H1081 C1100 0.950 1_556 S
H1082 C1102 0.950 . S
H1083 C1103 0.950 . S
H1084 C1105 0.950 . S
H1085 C1108 0.950 . S
H1086 C1109 0.950 . S
H1087 C1111 0.950 . S
H1088 C1112 0.950 . S
H1089 C1113 0.951 . S
H1090 C1115 0.951 . S
H1091 C1117 0.950 . S
H1092 C1118 0.979 . S
H1093 C1120 0.950 . S
H1094 C1123 0.950 1_655 S
H1095 C1124 0.950 . S
H1096 C1126 0.950 . S
H1097 C1127 0.950 . S
C1098 H1080 0.951 . S
C1098 C1099 1.366 . S
C1098 C1100 1.388 . S
C1099 C1098 1.366 . S
C1099 C1103 1.385 . S
C1100 H1081 0.950 1_554 S
C1100 C1098 1.388 . S
C1100 C1101 1.366 . S
C1101 C1100 1.366 . S
C1101 C1102 1.414 . S
C1101 C1104 1.499 1_554 S
C1102 H1082 0.950 . S
C1102 C1101 1.414 . S
C1102 C1103 1.374 . S
C1103 H1083 0.950 . S
C1103 C1099 1.385 . S
C1103 C1102 1.374 . S
C1104 C1101 1.499 1_556 S
C1104 C1105 1.373 1_556 S
C1104 C1106 1.389 . S
C1105 H1084 0.950 . S
C1105 C1104 1.373 1_554 S
C1105 C1121 1.377 1_554 S
C1106 C1104 1.389 . S
C1106 C1107 1.524 . S
C1106 C1120 1.377 . S
C1107 C1106 1.524 . S
C1107 C1108 1.397 . S
C1107 C1112 1.363 . S
C1108 H1085 0.950 . S
C1108 C1107 1.397 . S
C1108 C1109 1.334 . S
C1109 H1086 0.950 . S
C1109 C1108 1.334 . S
C1109 C1110 1.287 . S
C1110 C1109 1.287 . S
C1110 C1111 1.524 . S
C1110 H1129 0.913 . S
C1111 H1087 0.950 . S
C1111 C1110 1.524 . S
C1111 C1112 1.415 . S
C1112 H1088 0.950 . S
C1112 C1107 1.363 . S
C1112 C1111 1.415 . S
C1113 H1089 0.951 . S
C1113 C1114 1.366 . S
C1113 C1115 1.388 . S
C1114 C1113 1.366 . S
C1114 C1118 1.327 1_455 S
C1115 H1090 0.951 . S
C1115 C1113 1.388 . S
C1115 C1116 1.366 1_455 S
C1116 C1115 1.366 1_655 S
C1116 C1117 1.414 . S
C1116 C1119 1.499 . S
C1117 H1091 0.950 . S
C1117 C1116 1.414 . S
C1117 C1118 1.404 . S
C1118 H1092 0.979 . S
C1118 C1114 1.327 1_655 S
C1118 C1117 1.404 . S
C1119 C1116 1.499 . S
C1119 C1120 1.373 . S
C1119 C1121 1.389 . S
C1120 H1093 0.950 . S
C1120 C1106 1.377 . S
C1120 C1119 1.373 . S
C1121 C1105 1.377 1_556 S
C1121 C1119 1.389 . S
C1121 C1122 1.524 1_656 S
C1122 C1121 1.524 1_454 S
C1122 C1123 1.397 . S
C1122 C1127 1.363 . S
C1123 H1094 0.950 1_455 S
C1123 C1122 1.397 . S
C1123 C1124 1.334 . S
C1124 H1095 0.950 . S
C1124 C1123 1.334 . S
C1124 C1125 1.287 . S
C1125 C1124 1.287 . S
C1125 C1126 1.524 . S
C1125 H1128 0.999 . S
C1126 H1096 0.950 . S
C1126 C1125 1.524 . S
C1126 C1127 1.415 . S
C1127 H1097 0.950 . S
C1127 C1122 1.363 . S
C1127 C1126 1.415 . S
H1128 C1125 0.999 . S
H1129 C1110 0.913 . S
H1130 C1148 0.951 . S
H1131 C1150 0.951 . S
H1132 C1152 0.950 1_556 S
H1133 C1153 0.950 . S
H1134 C1155 0.950 . S
H1135 C1158 0.950 . S
H1136 C1159 0.950 . S
H1137 C1161 0.940 1_545 S
H1138 C1162 0.950 . S
H1139 C1163 0.951 . S
H1140 C1165 0.951 . S
H1141 C1167 0.950 1_554 S
H1142 C1168 0.950 . S
H1143 C1170 0.950 . S
H1144 C1173 0.950 . S
H1145 C1174 0.950 . S
H1146 C1176 0.950 . S
H1147 C1177 0.950 . S
C1148 H1130 0.951 . S
C1148 C1149 1.366 1_545 S
C1148 C1150 1.388 . S
C1149 C1148 1.366 1_565 S
C1149 C1153 1.385 . S
C1150 H1131 0.951 . S
C1150 C1148 1.388 . S
C1150 C1151 1.366 . S
C1151 C1150 1.366 . S
C1151 C1152 1.414 1_545 S
C1151 C1154 1.499 . S
C1152 H1132 0.950 1_554 S
C1152 C1151 1.414 1_565 S
C1152 C1153 1.374 . S
C1153 H1133 0.950 . S
C1153 C1149 1.385 . S
C1153 C1152 1.374 . S
C1154 C1151 1.499 . S
C1154 C1155 1.373 1_554 S
C1154 C1156 1.389 . S
C1155 H1134 0.950 . S
C1155 C1154 1.373 1_556 S
C1155 C1171 1.377 . S
C1156 C1154 1.389 . S
C1156 C1157 1.524 1_545 S
C1156 C1170 1.377 . S
C1157 C1156 1.524 1_565 S
C1157 C1158 1.397 . S
C1157 C1162 1.363 1_565 S
C1158 H1135 0.950 . S
C1158 C1157 1.397 . S
C1158 C1159 1.334 . S
C1159 H1136 0.950 . S
C1159 C1158 1.334 . S
C1159 C1160 1.287 . S
C1160 C1159 1.287 . S
C1160 C1161 1.524 . S
C1160 H1179 0.913 . S
C1161 H1137 0.940 1_565 S
C1161 C1160 1.524 . S
C1161 C1162 1.415 1_565 S
C1162 H1138 0.950 . S
C1162 C1157 1.363 1_545 S
C1162 C1161 1.415 1_545 S
C1163 H1139 0.951 . S
C1163 C1164 1.366 . S
C1163 C1165 1.388 . S
C1164 C1163 1.366 . S
C1164 C1168 1.385 . S
C1165 H1140 0.951 . S
C1165 C1163 1.388 . S
C1165 C1166 1.366 . S
C1166 C1165 1.366 . S
C1166 C1167 1.414 . S
C1166 C1169 1.499 . S
C1167 H1141 0.950 1_556 S
C1167 C1166 1.414 . S
C1167 C1168 1.374 . S
C1168 H1142 0.950 . S
C1168 C1164 1.385 . S
C1168 C1167 1.374 . S
C1169 C1166 1.499 . S
C1169 C1170 1.373 1_556 S
C1169 C1171 1.389 . S
C1170 H1143 0.950 . S
C1170 C1156 1.377 . S
C1170 C1169 1.373 1_554 S
C1171 C1155 1.377 . S
C1171 C1169 1.389 . S
C1171 C1172 1.524 . S
C1172 C1171 1.524 . S
C1172 C1173 1.397 . S
C1172 C1177 1.363 . S
C1173 H1144 0.950 . S
C1173 C1172 1.397 . S
C1173 C1174 1.334 . S
C1174 H1145 0.950 . S
C1174 C1173 1.334 . S
C1174 C1175 1.287 . S
C1175 C1174 1.287 . S
C1175 C1176 1.524 . S
C1175 H1178 0.999 . S
C1176 H1146 0.950 . S
C1176 C1175 1.524 . S
C1176 C1177 1.415 . S
C1177 H1147 0.950 . S
C1177 C1172 1.363 . S
C1177 C1176 1.415 . S
H1178 C1175 0.999 . S
H1179 C1160 0.913 . S
H1180 C1198 0.951 . S
H1181 C1200 0.951 . S
H1182 C1202 0.950 . S
H1183 C1203 0.950 . S
H1184 C1205 0.950 . S
H1185 C1208 0.950 . S
H1186 C1209 0.950 . S
H1187 C1211 0.950 . S
H1188 C1212 0.950 . S
H1189 C1213 0.951 . S
H1190 C1215 0.951 . S
H1191 C1217 0.950 . S
H1192 C1218 0.950 . S
H1193 C1220 0.950 . S
H1194 C1223 0.950 . S
H1195 C1224 0.950 . S
H1196 C1226 0.950 . S
H1197 C1227 0.950 . S
C1198 H1180 0.951 . S
C1198 C1199 1.366 . S
C1198 C1200 1.388 . S
C1199 C1198 1.366 . S
C1199 C1203 1.385 . S
C1200 H1181 0.951 . S
C1200 C1198 1.388 . S
C1200 C1201 1.366 . S
C1201 C1200 1.366 . S
C1201 C1202 1.414 . S
C1201 C1204 1.499 . S
C1202 H1182 0.950 . S
C1202 C1201 1.414 . S
C1202 C1203 1.374 . S
C1203 H1183 0.950 . S
C1203 C1199 1.385 . S
C1203 C1202 1.374 . S
C1204 C1201 1.499 . S
C1204 C1205 1.373 . S
C1204 C1206 1.389 . S
C1205 H1184 0.950 . S
C1205 C1204 1.373 . S
C1205 C1221 1.377 . S
C1206 C1204 1.389 . S
C1206 C1207 1.524 . S
C1206 C1220 1.377 . S
C1207 C1206 1.524 . S
C1207 C1208 1.397 . S
C1207 C1212 1.363 . S
C1208 H1185 0.950 . S
C1208 C1207 1.397 . S
C1208 C1209 1.334 . S
C1209 H1186 0.950 . S
C1209 C1208 1.334 . S
C1209 C1210 1.287 . S
C1210 C1209 1.287 . S
C1210 C1211 1.524 . S
C1210 H1229 0.913 . S
C1211 H1187 0.950 . S
C1211 C1210 1.524 . S
C1211 C1212 1.415 . S
C1212 H1188 0.950 . S
C1212 C1207 1.363 . S
C1212 C1211 1.415 . S
C1213 H1189 0.951 . S
C1213 C1214 1.366 . S
C1213 C1215 1.388 . S
C1214 C1213 1.366 . S
C1214 C1218 1.385 . S
C1215 H1190 0.951 . S
C1215 C1213 1.388 . S
C1215 C1216 1.366 . S
C1216 C1215 1.366 . S
C1216 C1217 1.414 . S
C1216 C1219 1.499 . S
C1217 H1191 0.950 . S
C1217 C1216 1.414 . S
C1217 C1218 1.374 . S
C1218 H1192 0.950 . S
C1218 C1214 1.385 . S
C1218 C1217 1.374 . S
C1219 C1216 1.499 . S
C1219 C1220 1.373 . S
C1219 C1221 1.389 . S
C1220 H1193 0.950 . S
C1220 C1206 1.377 . S
C1220 C1219 1.373 . S
C1221 C1205 1.377 . S
C1221 C1219 1.389 . S
C1221 C1222 1.524 . S
C1222 C1221 1.524 . S
C1222 C1223 1.397 . S
C1222 C1227 1.363 . S
C1223 H1194 0.950 . S
C1223 C1222 1.397 . S
C1223 C1224 1.334 . S
C1224 H1195 0.950 . S
C1224 C1223 1.334 . S
C1224 C1225 1.287 . S
C1225 C1224 1.287 . S
C1225 C1226 1.524 . S
C1225 H1228 0.999 . S
C1226 H1196 0.950 . S
C1226 C1225 1.524 . S
C1226 C1227 1.415 . S
C1227 H1197 0.950 . S
C1227 C1222 1.363 . S
C1227 C1226 1.415 . S
H1228 C1225 0.999 . S
H1229 C1210 0.913 . S
H1230 C1248 0.951 . S
H1231 C1250 0.951 . S
H1232 C1252 0.950 . S
H1233 C1253 0.950 . S
H1234 C1255 0.950 . S
H1235 C1258 0.950 . S
H1236 C1259 0.950 . S
H1237 C1261 0.950 . S
H1238 C1262 0.950 1_556 S
H1239 C1263 0.951 . S
H1240 C1265 0.951 . S
H1241 C1267 0.950 . S
H1242 C1268 0.950 . S
H1243 C1270 0.950 . S
H1244 C1273 0.950 . S
H1245 C1274 0.950 . S
H1246 C1276 0.950 . S
H1247 C1277 0.950 1_554 S
C1248 H1230 0.951 . S
C1248 C1249 1.366 . S
C1248 C1250 1.388 . S
C1249 C1248 1.366 . S
C1249 C1253 1.385 . S
C1250 H1231 0.951 . S
C1250 C1248 1.388 . S
C1250 C1251 1.366 . S
C1251 C1250 1.366 . S
C1251 C1252 1.414 . S
C1251 C1254 1.499 . S
C1252 H1232 0.950 . S
C1252 C1251 1.414 . S
C1252 C1253 1.374 . S
C1253 H1233 0.950 . S
C1253 C1249 1.385 . S
C1253 C1252 1.374 . S
C1254 C1251 1.499 . S
C1254 C1255 1.373 . S
C1254 C1256 1.389 . S
C1255 H1234 0.950 . S
C1255 C1254 1.373 . S
C1255 C1271 1.377 1_554 S
C1256 C1254 1.389 . S
C1256 C1257 1.524 . S
C1256 C1270 1.377 1_554 S
C1257 C1256 1.524 . S
C1257 C1258 1.397 . S
C1257 C1262 1.363 . S
C1258 H1235 0.950 . S
C1258 C1257 1.397 . S
C1258 C1259 1.334 . S
C1259 H1236 0.950 . S
C1259 C1258 1.334 . S
C1259 C1260 1.287 . S
C1260 C1259 1.287 . S
C1260 C1261 1.524 . S
C1260 H1279 0.913 . S
C1261 H1237 0.950 . S
C1261 C1260 1.524 . S
C1261 C1262 1.415 . S
C1262 H1238 0.950 1_554 S
C1262 C1257 1.363 . S
C1262 C1261 1.415 . S
C1263 H1239 0.951 . S
C1263 C1264 1.366 . S
C1263 C1265 1.388 . S
C1264 C1263 1.366 . S
C1264 C1268 1.385 . S
C1265 H1240 0.951 . S
C1265 C1263 1.388 . S
C1265 C1266 1.366 . S
C1266 C1265 1.366 . S
C1266 C1267 1.414 . S
C1266 C1269 1.499 . S
C1267 H1241 0.950 . S
C1267 C1266 1.414 . S
C1267 C1268 1.374 . S
C1268 H1242 0.950 . S
C1268 C1264 1.385 . S
C1268 C1267 1.374 . S
C1269 C1266 1.499 . S
C1269 C1270 1.373 . S
C1269 C1271 1.389 . S
C1270 H1243 0.950 . S
C1270 C1256 1.377 1_556 S
C1270 C1269 1.373 . S
C1271 C1255 1.377 1_556 S
C1271 C1269 1.389 . S
C1271 C1272 1.524 . S
C1272 C1271 1.524 . S
C1272 C1273 1.397 . S
C1272 C1277 1.363 . S
C1273 H1244 0.950 . S
C1273 C1272 1.397 . S
C1273 C1274 1.334 . S
C1274 H1245 0.950 . S
C1274 C1273 1.334 . S
C1274 C1275 1.287 . S
C1275 C1274 1.287 . S
C1275 C1276 1.524 . S
C1275 H1278 0.999 . S
C1276 H1246 0.950 . S
C1276 C1275 1.524 . S
C1276 C1277 1.415 . S
C1277 H1247 0.950 1_556 S
C1277 C1272 1.363 . S
C1277 C1276 1.415 . S
H1278 C1275 0.999 . S
H1279 C1260 0.913 . S
H1280 C1298 0.951 . S
H1281 C1300 0.951 . S
H1282 C1302 0.950 . S
H1283 C1303 0.950 . S
H1284 C1305 0.950 . S
H1285 C1308 0.950 . S
H1286 C1309 0.950 . S
H1287 C1311 0.950 . S
H1288 C1312 0.950 . S
H1289 C1313 0.951 . S
H1290 C1315 0.951 . S
H1291 C1317 0.950 . S
H1292 C1318 0.950 . S
H1293 C1320 0.950 . S
H1294 C1323 0.950 . S
H1295 C1324 0.950 . S
H1296 C1326 0.950 . S
H1297 C1327 0.950 . S
C1298 H1280 0.951 . S
C1298 C1299 1.366 . S
C1298 C1300 1.388 . S
C1299 C1298 1.366 . S
C1299 C1303 1.385 . S
C1300 H1281 0.951 . S
C1300 C1298 1.388 . S
C1300 C1301 1.366 . S
C1301 C1300 1.366 . S
C1301 C1302 1.414 . S
C1301 C1304 1.499 . S
C1302 H1282 0.950 . S
C1302 C1301 1.414 . S
C1302 C1303 1.374 . S
C1303 H1283 0.950 . S
C1303 C1299 1.385 . S
C1303 C1302 1.374 . S
C1304 C1301 1.499 . S
C1304 C1305 1.373 . S
C1304 C1306 1.389 . S
C1305 H1284 0.950 . S
C1305 C1304 1.373 . S
C1305 C1321 1.377 . S
C1306 C1304 1.389 . S
C1306 C1307 1.524 . S
C1306 C1320 1.377 . S
C1307 C1306 1.524 . S
C1307 C1308 1.397 . S
C1307 C1312 1.363 . S
C1308 H1285 0.950 . S
C1308 C1307 1.397 . S
C1308 C1309 1.334 . S
C1309 H1286 0.950 . S
C1309 C1308 1.334 . S
C1309 C1310 1.287 . S
C1310 C1309 1.287 . S
C1310 C1311 1.524 . S
C1310 H1329 0.913 . S
C1311 H1287 0.950 . S
C1311 C1310 1.524 . S
C1311 C1312 1.415 . S
C1312 H1288 0.950 . S
C1312 C1307 1.363 . S
C1312 C1311 1.415 . S
C1313 H1289 0.951 . S
C1313 C1314 1.366 . S
C1313 C1315 1.388 . S
C1314 C1313 1.366 . S
C1314 C1318 1.385 . S
C1315 H1290 0.951 . S
C1315 C1313 1.388 . S
C1315 C1316 1.366 . S
C1316 C1315 1.366 . S
C1316 C1317 1.414 . S
C1316 C1319 1.499 . S
C1317 H1291 0.950 . S
C1317 C1316 1.414 . S
C1317 C1318 1.374 . S
C1318 H1292 0.950 . S
C1318 C1314 1.385 . S
C1318 C1317 1.374 . S
C1319 C1316 1.499 . S
C1319 C1320 1.373 . S
C1319 C1321 1.389 . S
C1320 H1293 0.950 . S
C1320 C1306 1.377 . S
C1320 C1319 1.373 . S
C1321 C1305 1.377 . S
C1321 C1319 1.389 . S
C1321 C1322 1.524 . S
C1322 C1321 1.524 . S
C1322 C1323 1.397 . S
C1322 C1327 1.363 . S
C1323 H1294 0.950 . S
C1323 C1322 1.397 . S
C1323 C1324 1.334 1_455 S
C1324 H1295 0.950 . S
C1324 C1323 1.334 1_655 S
C1324 C1325 1.287 . S
C1325 C1324 1.287 . S
C1325 C1326 1.524 . S
C1325 H1328 0.999 . S
C1326 H1296 0.950 . S
C1326 C1325 1.524 . S
C1326 C1327 1.415 1_655 S
C1327 H1297 0.950 . S
C1327 C1322 1.363 . S
C1327 C1326 1.415 1_455 S
H1328 C1325 0.999 . S
H1329 C1310 0.913 . S
H1330 C1348 0.951 . S
H1331 C1350 0.951 . S
H1332 C1352 0.950 . S
H1333 C1353 0.950 . S
H1334 C1355 0.950 . S
H1335 C1358 0.950 1_545 S
H1336 C1359 0.950 1_545 S
H1337 C1361 0.950 . S
H1338 C1362 0.950 . S
H1339 C1363 0.951 . S
H1340 C1365 0.951 . S
H1341 C1367 0.950 . S
H1342 C1368 0.950 . S
H1343 C1370 0.950 . S
H1344 C1373 0.950 1_565 S
H1345 C1374 0.950 . S
H1346 C1376 0.950 . S
H1347 C1377 0.950 . S
C1348 H1330 0.951 . S
C1348 C1349 1.327 1_565 S
C1348 C1350 1.388 . S
C1349 C1348 1.327 1_545 S
C1349 C1353 1.425 . S
C1350 H1331 0.951 . S
C1350 C1348 1.388 . S
C1350 C1351 1.366 1_565 S
C1351 C1350 1.366 1_545 S
C1351 C1352 1.414 . S
C1351 C1354 1.499 . S
C1352 H1332 0.950 . S
C1352 C1351 1.414 . S
C1352 C1353 1.374 . S
C1353 H1333 0.950 . S
C1353 C1349 1.425 . S
C1353 C1352 1.374 . S
C1354 C1351 1.499 . S
C1354 C1355 1.373 . S
C1354 C1356 1.389 1_545 S
C1355 H1334 0.950 . S
C1355 C1354 1.373 . S
C1355 C1371 1.377 . S
C1356 C1354 1.389 1_565 S
C1356 C1357 1.524 . S
C1356 C1370 1.377 . S
C1357 C1356 1.524 . S
C1357 C1358 1.397 . S
C1357 C1362 1.363 . S
C1358 H1335 0.950 1_565 S
C1358 C1357 1.397 . S
C1358 C1359 1.334 1_556 S
C1359 H1336 0.950 1_565 S
C1359 C1358 1.334 1_554 S
C1359 C1360 1.287 . S
C1360 C1359 1.287 . S
C1360 C1361 1.524 1_554 S
C1360 H1379 0.913 . S
C1361 H1337 0.950 . S
C1361 C1360 1.524 1_556 S
C1361 C1362 1.415 . S
C1362 H1338 0.950 . S
C1362 C1357 1.363 . S
C1362 C1361 1.415 . S
C1363 H1339 0.951 . S
C1363 C1364 1.366 . S
C1363 C1365 1.388 . S
C1364 C1363 1.366 . S
C1364 C1368 1.385 1_545 S
C1365 H1340 0.951 . S
C1365 C1363 1.388 . S
C1365 C1366 1.366 . S
C1366 C1365 1.366 . S
C1366 C1367 1.414 1_545 S
C1366 C1369 1.499 . S
C1367 H1341 0.950 . S
C1367 C1366 1.414 1_565 S
C1367 C1368 1.374 . S
C1368 H1342 0.950 . S
C1368 C1364 1.385 1_565 S
C1368 C1367 1.374 . S
C1369 C1366 1.499 . S
C1369 C1370 1.373 1_545 S
C1369 C1371 1.389 . S
C1370 H1343 0.950 . S
C1370 C1356 1.377 . S
C1370 C1369 1.373 1_565 S
C1371 C1355 1.377 . S
C1371 C1369 1.389 . S
C1371 C1372 1.524 . S
C1372 C1371 1.524 . S
C1372 C1373 1.397 . S
C1372 C1377 1.363 . S
C1373 H1344 0.950 1_545 S
C1373 C1372 1.397 . S
C1373 C1374 1.334 . S
C1374 H1345 0.950 . S
C1374 C1373 1.334 . S
C1374 C1375 1.287 . S
C1375 C1374 1.287 . S
C1375 C1376 1.524 . S
C1375 H1378 0.999 . S
C1376 H1346 0.950 . S
C1376 C1375 1.524 . S
C1376 C1377 1.415 . S
C1377 H1347 0.950 . S
C1377 C1372 1.363 . S
C1377 C1376 1.415 . S
H1378 C1375 0.999 . S
H1379 C1360 0.913 . S
H1380 C1398 0.951 . S
H1381 C1400 0.951 . S
H1382 C1402 0.950 . S
H1383 C1403 0.950 . S
H1384 C1405 0.950 . S
H1385 C1408 0.950 . S
H1386 C1409 0.950 1_554 S
H1387 C1411 0.950 . S
H1388 C1412 0.950 . S
H1389 C1413 0.951 . S
H1390 C1415 0.951 . S
H1391 C1417 0.950 . S
H1392 C1418 0.950 . S
H1393 C1420 0.950 1_556 S
H1394 C1423 0.950 . S
H1395 C1424 0.950 . S
H1396 C1426 0.950 . S
H1397 C1427 0.950 . S
C1398 H1380 0.951 . S
C1398 C1399 1.366 . S
C1398 C1400 1.388 . S
C1399 C1398 1.366 . S
C1399 C1403 1.385 . S
C1400 H1381 0.951 . S
C1400 C1398 1.388 . S
C1400 C1401 1.366 . S
C1401 C1400 1.366 . S
C1401 C1402 1.414 . S
C1401 C1404 1.499 . S
C1402 H1382 0.950 . S
C1402 C1401 1.414 . S
C1402 C1403 1.374 . S
C1403 H1383 0.950 . S
C1403 C1399 1.385 . S
C1403 C1402 1.374 . S
C1404 C1401 1.499 . S
C1404 C1405 1.373 . S
C1404 C1406 1.389 . S
C1405 H1384 0.950 . S
C1405 C1404 1.373 . S
C1405 C1421 1.377 . S
C1406 C1404 1.389 . S
C1406 C1407 1.524 . S
C1406 C1420 1.377 . S
C1407 C1406 1.524 . S
C1407 C1408 1.397 . S
C1407 C1412 1.363 1_554 S
C1408 H1385 0.950 . S
C1408 C1407 1.397 . S
C1408 C1409 1.334 1_554 S
C1409 H1386 0.950 1_556 S
C1409 C1408 1.334 1_556 S
C1409 C1410 1.287 . S
C1410 C1409 1.287 . S
C1410 C1411 1.524 . S
C1410 H1429 0.913 . S
C1411 H1387 0.950 . S
C1411 C1410 1.524 . S
C1411 C1412 1.415 . S
C1412 H1388 0.950 . S
C1412 C1407 1.363 1_556 S
C1412 C1411 1.415 . S
C1413 H1389 0.951 . S
C1413 C1414 1.366 1_554 S
C1413 C1415 1.388 . S
C1414 C1413 1.366 1_556 S
C1414 C1418 1.385 . S
C1415 H1390 0.951 . S
C1415 C1413 1.388 . S
C1415 C1416 1.366 . S
C1416 C1415 1.366 . S
C1416 C1417 1.414 1_554 S
C1416 C1419 1.499 . S
C1417 H1391 0.950 . S
C1417 C1416 1.414 1_556 S
C1417 C1418 1.374 . S
C1418 H1392 0.950 . S
C1418 C1414 1.385 . S
C1418 C1417 1.374 . S
C1419 C1416 1.499 . S
C1419 C1420 1.373 . S
C1419 C1421 1.389 . S
C1420 H1393 0.950 1_554 S
C1420 C1406 1.377 . S
C1420 C1419 1.373 . S
C1421 C1405 1.377 . S
C1421 C1419 1.389 . S
C1421 C1422 1.524 . S
C1422 C1421 1.524 . S
C1422 C1423 1.397 . S
C1422 C1427 1.363 . S
C1423 H1394 0.950 . S
C1423 C1422 1.397 . S
C1423 C1424 1.334 . S
C1424 H1395 0.950 . S
C1424 C1423 1.334 . S
C1424 C1425 1.287 . S
C1425 C1424 1.287 . S
C1425 C1426 1.524 . S
C1425 H1428 0.999 . S
C1426 H1396 0.950 . S
C1426 C1425 1.524 . S
C1426 C1427 1.415 . S
C1427 H1397 0.950 . S
C1427 C1422 1.363 . S
C1427 C1426 1.415 . S
H1428 C1425 0.999 . S
H1429 C1410 0.913 . S
H1430 C1448 0.951 . S
H1431 C1450 0.951 . S
H1432 C1452 0.950 . S
H1433 C1453 0.950 . S
H1434 C1455 0.950 . S
H1435 C1458 0.950 . S
H1436 C1459 0.950 . S
H1437 C1461 0.950 1_554 S
H1438 C1462 0.950 . S
H1439 C1463 0.951 . S
H1440 C1465 0.951 . S
H1441 C1467 0.950 . S
H1442 C1468 0.950 . S
H1443 C1470 0.950 . S
H1444 C1473 0.950 . S
H1445 C1474 0.950 . S
H1446 C1476 0.950 . S
H1447 C1477 0.950 . S
C1448 H1430 0.951 . S
C1448 C1449 1.366 . S
C1448 C1450 1.388 . S
C1449 C1448 1.366 . S
C1449 C1453 1.385 . S
C1450 H1431 0.951 . S
C1450 C1448 1.388 . S
C1450 C1451 1.366 . S
C1451 C1450 1.366 . S
C1451 C1452 1.414 . S
C1451 C1454 1.499 . S
C1452 H1432 0.950 . S
C1452 C1451 1.414 . S
C1452 C1453 1.374 . S
C1453 H1433 0.950 . S
C1453 C1449 1.385 . S
C1453 C1452 1.374 . S
C1454 C1451 1.499 . S
C1454 C1455 1.373 . S
C1454 C1456 1.389 . S
C1455 H1434 0.950 . S
C1455 C1454 1.373 . S
C1455 C1471 1.377 . S
C1456 C1454 1.389 . S
C1456 C1457 1.524 . S
C1456 C1470 1.377 . S
C1457 C1456 1.524 . S
C1457 C1458 1.397 . S
C1457 C1462 1.363 . S
C1458 H1435 0.950 . S
C1458 C1457 1.397 . S
C1458 C1459 1.334 . S
C1459 H1436 0.950 . S
C1459 C1458 1.334 . S
C1459 C1460 1.287 . S
C1460 C1459 1.287 . S
C1460 C1461 1.524 . S
C1460 H1479 0.913 . S
C1461 H1437 0.950 1_556 S
C1461 C1460 1.524 . S
C1461 C1462 1.415 . S
C1462 H1438 0.950 . S
C1462 C1457 1.363 . S
C1462 C1461 1.415 . S
C1463 H1439 0.951 . S
C1463 C1464 1.366 . S
C1463 C1465 1.388 . S
C1464 C1463 1.366 . S
C1464 C1468 1.385 . S
C1465 H1440 0.951 . S
C1465 C1463 1.388 . S
C1465 C1466 1.366 . S
C1466 C1465 1.366 . S
C1466 C1467 1.414 . S
C1466 C1469 1.499 . S
C1467 H1441 0.950 . S
C1467 C1466 1.414 . S
C1467 C1468 1.374 . S
C1468 H1442 0.950 . S
C1468 C1464 1.385 . S
C1468 C1467 1.374 . S
C1469 C1466 1.499 . S
C1469 C1470 1.373 . S
C1469 C1471 1.389 . S
C1470 H1443 0.950 . S
C1470 C1456 1.377 . S
C1470 C1469 1.373 . S
C1471 C1455 1.377 . S
C1471 C1469 1.389 . S
C1471 C1472 1.524 . S
C1472 C1471 1.524 . S
C1472 C1473 1.397 . S
C1472 C1477 1.363 . S
C1473 H1444 0.950 . S
C1473 C1472 1.397 . S
C1473 C1474 1.334 . S
C1474 H1445 0.950 . S
C1474 C1473 1.334 . S
C1474 C1475 1.287 . S
C1475 C1474 1.287 . S
C1475 C1476 1.524 . S
C1475 H1478 0.999 . S
C1476 H1446 0.950 . S
C1476 C1475 1.524 . S
C1476 C1477 1.415 . S
C1477 H1447 0.950 . S
C1477 C1472 1.363 . S
C1477 C1476 1.415 . S
H1478 C1475 0.999 . S
H1479 C1460 0.913 . S
H1480 C1498 0.951 . S
H1481 C1500 0.951 . S
H1482 C1502 0.950 . S
H1483 C1503 0.950 . S
H1484 C1505 0.950 . S
H1485 C1508 0.950 . S
H1486 C1509 0.950 . S
H1487 C1511 0.950 . S
H1488 C1512 0.950 . S
H1489 C1513 0.951 . S
H1490 C1515 0.951 . S
H1491 C1517 0.950 . S
H1492 C1518 0.950 . S
H1493 C1520 0.950 . S
H1494 C1523 0.950 . S
H1495 C1524 0.950 . S
H1496 C1526 0.950 . S
H1497 C1527 0.950 1_655 S
C1498 H1480 0.951 . S
C1498 C1499 1.366 . S
C1498 C1500 1.388 . S
C1499 C1498 1.366 . S
C1499 C1503 1.385 . S
C1500 H1481 0.951 . S
C1500 C1498 1.388 . S
C1500 C1501 1.366 . S
C1501 C1500 1.366 . S
C1501 C1502 1.414 . S
C1501 C1504 1.499 . S
C1502 H1482 0.950 . S
C1502 C1501 1.414 . S
C1502 C1503 1.374 . S
C1503 H1483 0.950 . S
C1503 C1499 1.385 . S
C1503 C1502 1.374 . S
C1504 C1501 1.499 . S
C1504 C1505 1.373 . S
C1504 C1506 1.389 . S
C1505 H1484 0.950 . S
C1505 C1504 1.373 . S
C1505 C1521 1.377 . S
C1506 C1504 1.389 . S
C1506 C1507 1.524 . S
C1506 C1520 1.377 . S
C1507 C1506 1.524 . S
C1507 C1508 1.397 . S
C1507 C1512 1.363 . S
C1508 H1485 0.950 . S
C1508 C1507 1.397 . S
C1508 C1509 1.334 . S
C1509 H1486 0.950 . S
C1509 C1508 1.334 . S
C1509 C1510 1.287 . S
C1510 C1509 1.287 . S
C1510 C1511 1.524 . S
C1510 H1529 0.913 . S
C1511 H1487 0.950 . S
C1511 C1510 1.524 . S
C1511 C1512 1.415 . S
C1512 H1488 0.950 . S
C1512 C1507 1.363 . S
C1512 C1511 1.415 . S
C1513 H1489 0.951 . S
C1513 C1514 1.366 . S
C1513 C1515 1.388 . S
C1514 C1513 1.366 . S
C1514 C1518 1.385 . S
C1515 H1490 0.951 . S
C1515 C1513 1.388 . S
C1515 C1516 1.366 . S
C1516 C1515 1.366 . S
C1516 C1517 1.414 . S
C1516 C1519 1.499 . S
C1517 H1491 0.950 . S
C1517 C1516 1.414 . S
C1517 C1518 1.374 . S
C1518 H1492 0.950 . S
C1518 C1514 1.385 . S
C1518 C1517 1.374 . S
C1519 C1516 1.499 . S
C1519 C1520 1.373 . S
C1519 C1521 1.389 . S
C1520 H1493 0.950 . S
C1520 C1506 1.377 . S
C1520 C1519 1.373 . S
C1521 C1505 1.377 . S
C1521 C1519 1.389 . S
C1521 C1522 1.524 1_655 S
C1522 C1521 1.524 1_455 S
C1522 C1523 1.397 . S
C1522 C1527 1.363 . S
C1523 H1494 0.950 . S
C1523 C1522 1.397 . S
C1523 C1524 1.334 . S
C1524 H1495 0.950 . S
C1524 C1523 1.334 . S
C1524 C1525 1.287 . S
C1525 C1524 1.287 . S
C1525 C1526 1.524 . S
C1525 H1528 0.999 . S
C1526 H1496 0.950 . S
C1526 C1525 1.524 . S
C1526 C1527 1.415 . S
C1527 H1497 0.950 1_455 S
C1527 C1522 1.363 . S
C1527 C1526 1.415 . S
H1528 C1525 0.999 . S
H1529 C1510 0.913 . S
H1530 C1548 0.951 . S
H1531 C1550 0.951 . S
H1532 C1552 0.950 . S
H1533 C1553 0.950 . S
H1534 C1555 0.950 . S
H1535 C1558 0.950 1_565 S
H1536 C1559 0.950 . S
H1537 C1561 0.950 . S
H1538 C1562 0.950 . S
H1539 C1563 0.951 . S
H1540 C1565 0.951 . S
H1541 C1567 0.950 . S
H1542 C1568 0.950 . S
H1543 C1570 0.950 . S
H1544 C1573 0.950 1_545 S
H1545 C1574 0.950 . S
H1546 C1576 0.950 . S
H1547 C1577 0.950 . S
C1548 H1530 0.951 . S
C1548 C1549 1.341 1_545 S
C1548 C1550 1.388 . S
C1549 C1548 1.341 1_565 S
C1549 C1553 1.411 . S
C1550 H1531 0.951 . S
C1550 C1548 1.388 . S
C1550 C1551 1.366 1_545 S
C1551 C1550 1.366 1_565 S
C1551 C1552 1.414 . S
C1551 C1554 1.499 . S
C1552 H1532 0.950 . S
C1552 C1551 1.414 . S
C1552 C1553 1.374 . S
C1553 H1533 0.950 . S
C1553 C1549 1.411 . S
C1553 C1552 1.374 . S
C1554 C1551 1.499 . S
C1554 C1555 1.373 . S
C1554 C1556 1.389 1_565 S
C1555 H1534 0.950 . S
C1555 C1554 1.373 . S
C1555 C1571 1.377 . S
C1556 C1554 1.389 1_545 S
C1556 C1557 1.524 . S
C1556 C1570 1.377 . S
C1557 C1556 1.524 . S
C1557 C1558 1.397 . S
C1557 C1562 1.363 . S
C1558 H1535 0.950 1_545 S
C1558 C1557 1.397 . S
C1558 C1559 1.334 . S
C1559 H1536 0.950 . S
C1559 C1558 1.334 . S
C1559 C1560 1.287 . S
C1560 C1559 1.287 . S
C1560 C1561 1.524 . S
C1560 H1579 0.913 . S
C1561 H1537 0.950 . S
C1561 C1560 1.524 . S
C1561 C1562 1.415 . S
C1562 H1538 0.950 . S
C1562 C1557 1.363 . S
C1562 C1561 1.415 . S
C1563 H1539 0.951 . S
C1563 C1564 1.366 . S
C1563 C1565 1.388 . S
C1564 C1563 1.366 . S
C1564 C1568 1.385 1_565 S
C1565 H1540 0.951 . S
C1565 C1563 1.388 . S
C1565 C1566 1.366 . S
C1566 C1565 1.366 . S
C1566 C1567 1.414 1_565 S
C1566 C1569 1.499 . S
C1567 H1541 0.950 . S
C1567 C1566 1.414 1_545 S
C1567 C1568 1.374 . S
C1568 H1542 0.950 . S
C1568 C1564 1.385 1_545 S
C1568 C1567 1.374 . S
C1569 C1566 1.499 . S
C1569 C1570 1.373 1_565 S
C1569 C1571 1.389 . S
C1570 H1543 0.950 . S
C1570 C1556 1.377 . S
C1570 C1569 1.373 1_545 S
C1571 C1555 1.377 . S
C1571 C1569 1.389 . S
C1571 C1572 1.524 . S
C1572 C1571 1.524 . S
C1572 C1573 1.397 . S
C1572 C1577 1.363 . S
C1573 H1544 0.950 1_565 S
C1573 C1572 1.397 . S
C1573 C1574 1.334 . S
C1574 H1545 0.950 . S
C1574 C1573 1.334 . S
C1574 C1575 1.287 . S
C1575 C1574 1.287 . S
C1575 C1576 1.524 . S
C1575 H1578 0.999 . S
C1576 H1546 0.950 . S
C1576 C1575 1.524 . S
C1576 C1577 1.415 . S
C1577 H1547 0.950 . S
C1577 C1572 1.363 . S
C1577 C1576 1.415 . S
H1578 C1575 0.999 . S
H1579 C1560 0.913 . S
H1580 C1598 0.951 . S
H1581 C1600 0.951 . S
H1582 C1602 0.950 . S
H1583 C1603 0.950 . S
H1584 C1605 0.950 . S
H1585 C1608 0.950 . S
H1586 C1609 0.950 . S
H1587 C1611 0.950 . S
H1588 C1612 0.950 . S
H1589 C1613 0.951 . S
H1590 C1615 0.951 . S
H1591 C1617 0.950 . S
H1592 C1618 0.950 . S
H1593 C1620 0.950 . S
H1594 C1623 0.950 . S
H1595 C1624 0.950 . S
H1596 C1626 0.950 . S
H1597 C1627 0.950 . S
C1598 H1580 0.951 . S
C1598 C1599 1.366 . S
C1598 C1600 1.388 . S
C1599 C1598 1.366 . S
C1599 C1603 1.385 . S
C1600 H1581 0.951 . S
C1600 C1598 1.388 . S
C1600 C1601 1.366 . S
C1601 C1600 1.366 . S
C1601 C1602 1.414 . S
C1601 C1604 1.499 . S
C1602 H1582 0.950 . S
C1602 C1601 1.414 . S
C1602 C1603 1.374 . S
C1603 H1583 0.950 . S
C1603 C1599 1.385 . S
C1603 C1602 1.374 . S
C1604 C1601 1.499 . S
C1604 C1605 1.373 . S
C1604 C1606 1.389 . S
C1605 H1584 0.950 . S
C1605 C1604 1.373 . S
C1605 C1621 1.377 . S
C1606 C1604 1.389 . S
C1606 C1607 1.524 . S
C1606 C1620 1.377 . S
C1607 C1606 1.524 . S
C1607 C1608 1.397 . S
C1607 C1612 1.363 . S
C1608 H1585 0.950 . S
C1608 C1607 1.397 . S
C1608 C1609 1.334 . S
C1609 H1586 0.950 . S
C1609 C1608 1.334 . S
C1609 C1610 1.287 . S
C1610 C1609 1.287 . S
C1610 C1611 1.524 . S
C1610 H1629 0.913 . S
C1611 H1587 0.950 . S
C1611 C1610 1.524 . S
C1611 C1612 1.415 . S
C1612 H1588 0.950 . S
C1612 C1607 1.363 . S
C1612 C1611 1.415 . S
C1613 H1589 0.951 . S
C1613 C1614 1.366 . S
C1613 C1615 1.388 . S
C1614 C1613 1.366 . S
C1614 C1618 1.385 . S
C1615 H1590 0.951 . S
C1615 C1613 1.388 . S
C1615 C1616 1.366 . S
C1616 C1615 1.366 . S
C1616 C1617 1.414 . S
C1616 C1619 1.499 . S
C1617 H1591 0.950 . S
C1617 C1616 1.414 . S
C1617 C1618 1.374 . S
C1618 H1592 0.950 . S
C1618 C1614 1.385 . S
C1618 C1617 1.374 . S
C1619 C1616 1.499 . S
C1619 C1620 1.373 . S
C1619 C1621 1.389 . S
C1620 H1593 0.950 . S
C1620 C1606 1.377 . S
C1620 C1619 1.373 . S
C1621 C1605 1.377 . S
C1621 C1619 1.389 . S
C1621 C1622 1.524 . S
C1622 C1621 1.524 . S
C1622 C1623 1.397 . S
C1622 C1627 1.363 . S
C1623 H1594 0.950 . S
C1623 C1622 1.397 . S
C1623 C1624 1.334 . S
C1624 H1595 0.950 . S
C1624 C1623 1.334 . S
C1624 C1625 1.287 . S
C1625 C1624 1.287 . S
C1625 C1626 1.524 . S
C1625 H1628 0.999 . S
C1626 H1596 0.950 . S
C1626 C1625 1.524 . S
C1626 C1627 1.415 . S
C1627 H1597 0.950 . S
C1627 C1622 1.363 . S
C1627 C1626 1.415 . S
H1628 C1625 0.999 . S
H1629 C1610 0.913 . S
H1630 C1648 0.951 . S
H1631 C1650 0.951 . S
H1632 C1652 0.950 . S
H1633 C1653 0.950 . S
H1634 C1655 0.950 . S
H1635 C1658 0.950 . S
H1636 C1659 0.950 . S
H1637 C1661 0.950 . S
H1638 C1662 0.950 . S
H1639 C1663 0.951 . S
H1640 C1665 0.951 . S
H1641 C1667 0.950 . S
H1642 C1668 0.950 . S
H1643 C1670 0.950 . S
H1644 C1673 0.950 . S
H1645 C1674 0.950 . S
H1646 C1676 0.950 . S
H1647 C1677 0.950 . S
C1648 H1630 0.951 . S
C1648 C1649 1.366 . S
C1648 C1650 1.388 . S
C1649 C1648 1.366 . S
C1649 C1653 1.385 . S
C1650 H1631 0.951 . S
C1650 C1648 1.388 . S
C1650 C1651 1.366 . S
C1651 C1650 1.366 . S
C1651 C1652 1.414 . S
C1651 C1654 1.499 . S
C1652 H1632 0.950 . S
C1652 C1651 1.414 . S
C1652 C1653 1.374 . S
C1653 H1633 0.950 . S
C1653 C1649 1.385 . S
C1653 C1652 1.374 . S
C1654 C1651 1.499 . S
C1654 C1655 1.373 . S
C1654 C1656 1.389 . S
C1655 H1634 0.950 . S
C1655 C1654 1.373 . S
C1655 C1671 1.377 . S
C1656 C1654 1.389 . S
C1656 C1657 1.524 . S
C1656 C1670 1.377 . S
C1657 C1656 1.524 . S
C1657 C1658 1.397 . S
C1657 C1662 1.363 . S
C1658 H1635 0.950 . S
C1658 C1657 1.397 . S
C1658 C1659 1.334 . S
C1659 H1636 0.950 . S
C1659 C1658 1.334 . S
C1659 C1660 1.287 . S
C1660 C1659 1.287 . S
C1660 C1661 1.524 . S
C1660 H1679 0.913 . S
C1661 H1637 0.950 . S
C1661 C1660 1.524 . S
C1661 C1662 1.415 . S
C1662 H1638 0.950 . S
C1662 C1657 1.363 . S
C1662 C1661 1.415 . S
C1663 H1639 0.951 . S
C1663 C1664 1.366 . S
C1663 C1665 1.388 . S
C1664 C1663 1.366 . S
C1664 C1668 1.385 . S
C1665 H1640 0.951 . S
C1665 C1663 1.388 . S
C1665 C1666 1.366 . S
C1666 C1665 1.366 . S
C1666 C1667 1.414 . S
C1666 C1669 1.499 . S
C1667 H1641 0.950 . S
C1667 C1666 1.414 . S
C1667 C1668 1.374 . S
C1668 H1642 0.950 . S
C1668 C1664 1.385 . S
C1668 C1667 1.374 . S
C1669 C1666 1.499 . S
C1669 C1670 1.373 . S
C1669 C1671 1.389 . S
C1670 H1643 0.950 . S
C1670 C1656 1.377 . S
C1670 C1669 1.373 . S
C1671 C1655 1.377 . S
C1671 C1669 1.389 . S
C1671 C1672 1.524 . S
C1672 C1671 1.524 . S
C1672 C1673 1.397 . S
C1672 C1677 1.363 . S
C1673 H1644 0.950 . S
C1673 C1672 1.397 . S
C1673 C1674 1.334 . S
C1674 H1645 0.950 . S
C1674 C1673 1.334 . S
C1674 C1675 1.287 . S
C1675 C1674 1.287 . S
C1675 C1676 1.524 . S
C1675 H1678 0.999 . S
C1676 H1646 0.950 . S
C1676 C1675 1.524 . S
C1676 C1677 1.415 . S
C1677 H1647 0.950 . S
C1677 C1672 1.363 . S
C1677 C1676 1.415 . S
H1678 C1675 0.999 . S
H1679 C1660 0.913 . S
C499 C255 1.961 1_565 S
C514 C343 2.077 . S
C564 C383 1.604 . S
C549 C295 1.567 . S
C614 C402 2.170 . S
C599 C175 2.038 . S
C664 C463 1.764 . S
C649 C215 1.664 . S
C714 C322 2.077 . S
C699 C95 1.963 . S
C749 C135 1.568 . S
C764 C362 1.610 . S
C799 C15 2.040 . S
C814 C423 2.168 . S
C849 C55 1.658 . S
C864 C442 1.764 1_655 S
C914 C324 0.555 . S
C899 C221 0.510 . S
C964 C364 0.367 . S
C949 C261 0.347 . S
C1014 C420 0.639 . S
C999 C301 0.667 . S
C1049 C181 0.355 . S
C1064 C444 0.263 . S
C1099 C61 0.605 . S
C1114 C345 0.559 . S
C1164 C385 0.364 . S
C1149 C101 0.468 1_565 S
C1214 C431 0.640 . S
C1199 C141 0.700 . S
C1249 C21 0.336 . S
C1264 C465 0.263 . S
C1299 C202 2.470 . S
C1314 C340 2.628 . S
C1349 C242 2.885 . S
C1364 C380 3.109 . S
C1414 C404 1.949 . S
C1399 C282 1.909 . S
C1464 C460 3.069 . S
C1449 C162 2.826 . S
C1499 C42 2.403 . S
C1514 C351 2.643 . S
C1564 C391 3.108 . S
C1549 C82 2.884 1_565 S
C1614 C425 1.948 . S
C1599 C122 1.883 . S
C1649 C2 2.876 . S
C1664 C471 3.070 . S
