# Generated by pormake.
# Topology llk, (3,12)-cn, num edge types: 1
# Building blocks:
#     Node 0, Type 0, BuildingBlock: OLANEW_clean_sbu_2, # of connection points: 3
#     Node 1, Type 0, BuildingBlock: OLANEW_clean_sbu_2, # of connection points: 3
#     Node 2, Type 0, BuildingBlock: OLANEW_clean_sbu_2, # of connection points: 3
#     Node 3, Type 0, BuildingBlock: OLANEW_clean_sbu_2, # of connection points: 3
#     Node 4, Type 0, BuildingBlock: OLANEW_clean_sbu_2, # of connection points: 3
#     Node 5, Type 0, BuildingBlock: OLANEW_clean_sbu_2, # of connection points: 3
#     Node 6, Type 0, BuildingBlock: OLANEW_clean_sbu_2, # of connection points: 3
#     Node 7, Type 0, BuildingBlock: OLANEW_clean_sbu_2, # of connection points: 3
#     Node 8, Type 0, BuildingBlock: OLANEW_clean_sbu_2, # of connection points: 3
#     Node 9, Type 0, BuildingBlock: OLANEW_clean_sbu_2, # of connection points: 3
#     Node 10, Type 0, BuildingBlock: OLANEW_clean_sbu_2, # of connection points: 3
#     Node 11, Type 0, BuildingBlock: OLANEW_clean_sbu_2, # of connection points: 3
#     Node 12, Type 0, BuildingBlock: OLANEW_clean_sbu_2, # of connection points: 3
#     Node 13, Type 0, BuildingBlock: OLANEW_clean_sbu_2, # of connection points: 3
#     Node 14, Type 0, BuildingBlock: OLANEW_clean_sbu_2, # of connection points: 3
#     Node 15, Type 0, BuildingBlock: OLANEW_clean_sbu_2, # of connection points: 3
#     Node 16, Type 0, BuildingBlock: OLANEW_clean_sbu_2, # of connection points: 3
#     Node 17, Type 0, BuildingBlock: OLANEW_clean_sbu_2, # of connection points: 3
#     Node 18, Type 0, BuildingBlock: OLANEW_clean_sbu_2, # of connection points: 3
#     Node 19, Type 0, BuildingBlock: OLANEW_clean_sbu_2, # of connection points: 3
#     Node 20, Type 0, BuildingBlock: OLANEW_clean_sbu_2, # of connection points: 3
#     Node 21, Type 0, BuildingBlock: OLANEW_clean_sbu_2, # of connection points: 3
#     Node 22, Type 0, BuildingBlock: OLANEW_clean_sbu_2, # of connection points: 3
#     Node 23, Type 0, BuildingBlock: OLANEW_clean_sbu_2, # of connection points: 3
#     Node 24, Type 1, BuildingBlock: QEWDON_clean_sbu_0, # of connection points: 12
#     Node 25, Type 1, BuildingBlock: QEWDON_clean_sbu_0, # of connection points: 12
#     Node 26, Type 1, BuildingBlock: QEWDON_clean_sbu_0, # of connection points: 12
#     Node 27, Type 1, BuildingBlock: QEWDON_clean_sbu_0, # of connection points: 12
#     Node 28, Type 1, BuildingBlock: QEWDON_clean_sbu_0, # of connection points: 12
#     Node 29, Type 1, BuildingBlock: QEWDON_clean_sbu_0, # of connection points: 12
#     Edge 30, Type (0, 1), BuildingBlock: UVAHIK_clean_linker_0, # of connection points: 2
#     Edge 31, Type (0, 1), BuildingBlock: UVAHIK_clean_linker_0, # of connection points: 2
#     Edge 32, Type (0, 1), BuildingBlock: UVAHIK_clean_linker_0, # of connection points: 2
#     Edge 33, Type (0, 1), BuildingBlock: UVAHIK_clean_linker_0, # of connection points: 2
#     Edge 34, Type (0, 1), BuildingBlock: UVAHIK_clean_linker_0, # of connection points: 2
#     Edge 35, Type (0, 1), BuildingBlock: UVAHIK_clean_linker_0, # of connection points: 2
#     Edge 36, Type (0, 1), BuildingBlock: UVAHIK_clean_linker_0, # of connection points: 2
#     Edge 37, Type (0, 1), BuildingBlock: UVAHIK_clean_linker_0, # of connection points: 2
#     Edge 38, Type (0, 1), BuildingBlock: UVAHIK_clean_linker_0, # of connection points: 2
#     Edge 39, Type (0, 1), BuildingBlock: UVAHIK_clean_linker_0, # of connection points: 2
#     Edge 40, Type (0, 1), BuildingBlock: UVAHIK_clean_linker_0, # of connection points: 2
#     Edge 41, Type (0, 1), BuildingBlock: UVAHIK_clean_linker_0, # of connection points: 2
#     Edge 42, Type (0, 1), BuildingBlock: UVAHIK_clean_linker_0, # of connection points: 2
#     Edge 43, Type (0, 1), BuildingBlock: UVAHIK_clean_linker_0, # of connection points: 2
#     Edge 44, Type (0, 1), BuildingBlock: UVAHIK_clean_linker_0, # of connection points: 2
#     Edge 45, Type (0, 1), BuildingBlock: UVAHIK_clean_linker_0, # of connection points: 2
#     Edge 46, Type (0, 1), BuildingBlock: UVAHIK_clean_linker_0, # of connection points: 2
#     Edge 47, Type (0, 1), BuildingBlock: UVAHIK_clean_linker_0, # of connection points: 2
#     Edge 48, Type (0, 1), BuildingBlock: UVAHIK_clean_linker_0, # of connection points: 2
#     Edge 49, Type (0, 1), BuildingBlock: UVAHIK_clean_linker_0, # of connection points: 2
#     Edge 50, Type (0, 1), BuildingBlock: UVAHIK_clean_linker_0, # of connection points: 2
#     Edge 51, Type (0, 1), BuildingBlock: UVAHIK_clean_linker_0, # of connection points: 2
#     Edge 52, Type (0, 1), BuildingBlock: UVAHIK_clean_linker_0, # of connection points: 2
#     Edge 53, Type (0, 1), BuildingBlock: UVAHIK_clean_linker_0, # of connection points: 2
#     Edge 54, Type (0, 1), BuildingBlock: UVAHIK_clean_linker_0, # of connection points: 2
#     Edge 55, Type (0, 1), BuildingBlock: UVAHIK_clean_linker_0, # of connection points: 2
#     Edge 56, Type (0, 1), BuildingBlock: UVAHIK_clean_linker_0, # of connection points: 2
#     Edge 57, Type (0, 1), BuildingBlock: UVAHIK_clean_linker_0, # of connection points: 2
#     Edge 58, Type (0, 1), BuildingBlock: UVAHIK_clean_linker_0, # of connection points: 2
#     Edge 59, Type (0, 1), BuildingBlock: UVAHIK_clean_linker_0, # of connection points: 2
#     Edge 60, Type (0, 1), BuildingBlock: UVAHIK_clean_linker_0, # of connection points: 2
#     Edge 61, Type (0, 1), BuildingBlock: UVAHIK_clean_linker_0, # of connection points: 2
#     Edge 62, Type (0, 1), BuildingBlock: UVAHIK_clean_linker_0, # of connection points: 2
#     Edge 63, Type (0, 1), BuildingBlock: UVAHIK_clean_linker_0, # of connection points: 2
#     Edge 64, Type (0, 1), BuildingBlock: UVAHIK_clean_linker_0, # of connection points: 2
#     Edge 65, Type (0, 1), BuildingBlock: UVAHIK_clean_linker_0, # of connection points: 2
#     Edge 66, Type (0, 1), BuildingBlock: UVAHIK_clean_linker_0, # of connection points: 2
#     Edge 67, Type (0, 1), BuildingBlock: UVAHIK_clean_linker_0, # of connection points: 2
#     Edge 68, Type (0, 1), BuildingBlock: UVAHIK_clean_linker_0, # of connection points: 2
#     Edge 69, Type (0, 1), BuildingBlock: UVAHIK_clean_linker_0, # of connection points: 2
#     Edge 70, Type (0, 1), BuildingBlock: UVAHIK_clean_linker_0, # of connection points: 2
#     Edge 71, Type (0, 1), BuildingBlock: UVAHIK_clean_linker_0, # of connection points: 2
#     Edge 72, Type (0, 1), BuildingBlock: UVAHIK_clean_linker_0, # of connection points: 2
#     Edge 73, Type (0, 1), BuildingBlock: UVAHIK_clean_linker_0, # of connection points: 2
#     Edge 74, Type (0, 1), BuildingBlock: UVAHIK_clean_linker_0, # of connection points: 2
#     Edge 75, Type (0, 1), BuildingBlock: UVAHIK_clean_linker_0, # of connection points: 2
#     Edge 76, Type (0, 1), BuildingBlock: UVAHIK_clean_linker_0, # of connection points: 2
#     Edge 77, Type (0, 1), BuildingBlock: UVAHIK_clean_linker_0, # of connection points: 2
#     Edge 78, Type (0, 1), BuildingBlock: UVAHIK_clean_linker_0, # of connection points: 2
#     Edge 79, Type (0, 1), BuildingBlock: UVAHIK_clean_linker_0, # of connection points: 2
#     Edge 80, Type (0, 1), BuildingBlock: UVAHIK_clean_linker_0, # of connection points: 2
#     Edge 81, Type (0, 1), BuildingBlock: UVAHIK_clean_linker_0, # of connection points: 2
#     Edge 82, Type (0, 1), BuildingBlock: UVAHIK_clean_linker_0, # of connection points: 2
#     Edge 83, Type (0, 1), BuildingBlock: UVAHIK_clean_linker_0, # of connection points: 2
#     Edge 84, Type (0, 1), BuildingBlock: UVAHIK_clean_linker_0, # of connection points: 2
#     Edge 85, Type (0, 1), BuildingBlock: UVAHIK_clean_linker_0, # of connection points: 2
#     Edge 86, Type (0, 1), BuildingBlock: UVAHIK_clean_linker_0, # of connection points: 2
#     Edge 87, Type (0, 1), BuildingBlock: UVAHIK_clean_linker_0, # of connection points: 2
#     Edge 88, Type (0, 1), BuildingBlock: UVAHIK_clean_linker_0, # of connection points: 2
#     Edge 89, Type (0, 1), BuildingBlock: UVAHIK_clean_linker_0, # of connection points: 2
#     Edge 90, Type (0, 1), BuildingBlock: UVAHIK_clean_linker_0, # of connection points: 2
#     Edge 91, Type (0, 1), BuildingBlock: UVAHIK_clean_linker_0, # of connection points: 2
#     Edge 92, Type (0, 1), BuildingBlock: UVAHIK_clean_linker_0, # of connection points: 2
#     Edge 93, Type (0, 1), BuildingBlock: UVAHIK_clean_linker_0, # of connection points: 2
#     Edge 94, Type (0, 1), BuildingBlock: UVAHIK_clean_linker_0, # of connection points: 2
#     Edge 95, Type (0, 1), BuildingBlock: UVAHIK_clean_linker_0, # of connection points: 2
#     Edge 96, Type (0, 1), BuildingBlock: UVAHIK_clean_linker_0, # of connection points: 2
#     Edge 97, Type (0, 1), BuildingBlock: UVAHIK_clean_linker_0, # of connection points: 2
#     Edge 98, Type (0, 1), BuildingBlock: UVAHIK_clean_linker_0, # of connection points: 2
#     Edge 99, Type (0, 1), BuildingBlock: UVAHIK_clean_linker_0, # of connection points: 2
#     Edge 100, Type (0, 1), BuildingBlock: UVAHIK_clean_linker_0, # of connection points: 2
#     Edge 101, Type (0, 1), BuildingBlock: UVAHIK_clean_linker_0, # of connection points: 2
# Relax obj value: 0.068
# Max RMSD: 0.116
# Mean RMSD: 0.076
data_MOF--net-llk--node1-OLANEW_clean_sbu_2--node2-QEWDON_clean_sbu_0--edge1-UVAHIK_clean_linker_0
_symmetry_space_group_name_H-M    P1
_symmetry_Int_Tables_number       1
_symmetry_cell_setting            triclinic
loop_
_symmetry_equiv_pos_as_xyz
'x, y, z'
_cell_length_a     59.00514
_cell_length_b     64.986693
_cell_length_c     62.198382
_cell_angle_alpha  90.033327
_cell_angle_beta   90.04974
_cell_angle_gamma 89.637515
loop_
_atom_site_label
_atom_site_type_symbol
_atom_site_fract_x
_atom_site_fract_y
_atom_site_fract_z
_atom_type_partial_charge
O0 O 0.06971 0.2868 0.3202 0.0
Cd1 Cd 0.08049 0.25925 0.29542 0.0
O2 O 0.04612 0.30326 0.29861 0.0
Cd3 Cd 0.05476 0.2881 0.26831 0.0
O4 O 0.05854 0.29986 0.23551 0.0
C5 C 0.06724 0.31771 0.23492 0.0
O6 O 0.07401 0.32602 0.25307 0.0
C7 C 0.05521 0.30103 0.31702 0.0
C8 C 0.07409 0.22182 0.31664 0.0
O9 O 0.09283 0.23156 0.31828 0.0
O10 O 0.05863 0.22948 0.3045 0.0
O11 O 0.73228 0.08667 0.25149 0.0
Cd12 Cd 0.7585 0.09764 0.22353 0.0
O13 O 0.74296 0.11169 0.27283 0.0
Cd14 Cd 0.74415 0.12566 0.30476 0.0
O15 O 0.75226 0.12539 0.33891 0.0
C16 C 0.74808 0.10887 0.34905 0.0
O17 O 0.73798 0.09379 0.33882 0.0
C18 C 0.73046 0.0962 0.26923 0.0
C19 C 0.73621 0.09252 0.18457 0.0
O20 O 0.73536 0.10974 0.19461 0.0
O21 O 0.74834 0.078 0.1926 0.0
O22 O 0.02074 0.73958 0.30273 0.0
Cd23 Cd 0.00921 0.76424 0.2752 0.0
O24 O 0.04306 0.72 0.28295 0.0
Cd25 Cd 0.0312 0.73225 0.25222 0.0
O26 O 0.01885 0.72173 0.22094 0.0
C27 C 0.00748 0.70517 0.22148 0.0
O28 O 0.00316 0.69683 0.24027 0.0
C29 C 0.03482 0.72478 0.30116 0.0
C30 C 0.00088 0.80148 0.29631 0.0
O31 O 0.98509 0.78827 0.29362 0.0
O32 O 0.02044 0.79739 0.28838 0.0
O33 O 0.3067 0.08135 0.28 0.0
Cd34 Cd 0.30262 0.09127 0.24254 0.0
O35 O 0.28448 0.05555 0.27261 0.0
Cd36 Cd 0.26244 0.02935 0.27862 0.0
O37 O 0.23037 0.01369 0.28361 0.0
C38 C 0.21279 0.0244 0.27956 0.0
O39 O 0.21533 0.04323 0.27229 0.0
C40 C 0.29668 0.06515 0.28613 0.0
C41 C 0.32985 0.06531 0.21795 0.0
O42 O 0.33767 0.08189 0.22622 0.0
O43 O 0.30888 0.06115 0.22095 0.0
O44 O 0.99198 0.73527 0.70472 0.0
Cd45 Cd 3e-05 0.75954 0.73361 0.0
O46 O 0.98316 0.70877 0.72499 0.0
Cd47 Cd 0.99072 0.72302 0.75594 0.0
O48 O 0.00042 0.71669 0.7892 0.0
C49 C 0.01934 0.7077 0.79232 0.0
O50 O 0.03268 0.70433 0.77577 0.0
C51 C 0.98554 0.71674 0.70648 0.0
C52 C 0.01213 0.79644 0.71401 0.0
O53 O 0.02711 0.78279 0.71868 0.0
O54 O 0.99152 0.79292 0.71931 0.0
O55 O 0.31261 0.94327 0.76204 0.0
Cd56 Cd 0.28524 0.93244 0.78916 0.0
O57 O 0.29533 0.97263 0.75543 0.0
Cd58 Cd 0.28974 0.99959 0.73498 0.0
O59 O 0.28162 0.01678 0.70582 0.0
C60 C 0.29114 0.01118 0.68843 0.0
O61 O 0.30623 0.99623 0.68908 0.0
C62 C 0.31166 0.96022 0.7519 0.0
C63 C 0.30593 0.93626 0.82908 0.0
O64 O 0.29258 0.95034 0.822 0.0
O65 O 0.30887 0.92009 0.81759 0.0
O66 O 0.99921 0.29267 0.70971 0.0
Cd67 Cd 0.99554 0.26396 0.73473 0.0
O68 O 0.02441 0.30907 0.72932 0.0
Cd69 Cd 0.02089 0.29086 0.75857 0.0
O70 O 0.01805 0.29684 0.79303 0.0
C71 C 0.00118 0.30788 0.79853 0.0
O72 O 0.9862 0.31298 0.78379 0.0
C73 C 0.01296 0.30748 0.71208 0.0
C74 C -0.00035 0.22786 0.71073 0.0
O75 O 0.98008 0.23546 0.71505 0.0
O76 O 0.01712 0.23696 0.71834 0.0
O77 O 0.73519 0.14694 0.74032 0.0
Cd78 Cd 0.74778 0.16327 0.77359 0.0
O79 O 0.75946 0.12262 0.74829 0.0
Cd80 Cd 0.7808 0.09532 0.74397 0.0
O81 O 0.80947 0.07462 0.73873 0.0
C82 C 0.82906 0.08242 0.7406 0.0
O83 O 0.83074 0.10191 0.74599 0.0
C84 C 0.74434 0.12976 0.73568 0.0
C85 C 0.72949 0.14238 0.80853 0.0
O86 O 0.71947 0.15814 0.80047 0.0
O87 O 0.74843 0.13671 0.80029 0.0
O88 O 0.27503 0.28427 0.02001 0.0
Cd89 Cd 0.24942 0.2551 0.02096 0.0
O90 O 0.27312 0.289 0.05493 0.0
Cd91 Cd 0.23934 0.27544 0.05507 0.0
O92 O 0.20461 0.28411 0.04657 0.0
C93 C 0.20318 0.2947 0.02944 0.0
O94 O 0.22175 0.29795 0.01832 0.0
C95 C 0.28274 0.29251 0.03703 0.0
C96 C 0.27914 0.22162 0.02037 0.0
O97 O 0.27092 0.22897 0.00288 0.0
O98 O 0.27221 0.22931 0.03819 0.0
O99 O 0.274 0.75697 0.03703 0.0
Cd100 Cd 0.25019 0.78797 0.03802 0.0
O101 O 0.26815 0.75302 0.00239 0.0
Cd102 Cd 0.2375 0.77181 0.00384 0.0
O103 O 0.20523 0.75682 0.01006 0.0
C104 C 0.20568 0.74396 0.02547 0.0
O105 O 0.22402 0.74278 0.03741 0.0
C106 C 0.27847 0.74772 0.01949 0.0
C107 C 0.2767 0.82265 0.03037 0.0
O108 O 0.2729 0.8163 0.04953 0.0
O109 O 0.26765 0.81277 0.01476 0.0
O110 O 0.78451 0.29778 0.00432 0.0
Cd111 Cd 0.81042 0.26873 0.99848 0.0
O112 O 0.79164 0.31047 0.97229 0.0
Cd113 Cd 0.8226 0.29225 0.96829 0.0
O114 O 0.85953 0.29374 0.9702 0.0
C115 C 0.86866 0.294 0.98872 0.0
O116 O 0.85575 0.29128 0.00568 0.0
C117 C 0.78022 0.31084 0.98962 0.0
C118 C 0.78549 0.23267 0.99306 0.0
O119 O 0.7929 0.23807 0.01159 0.0
O120 O 0.7902 0.24417 0.97695 0.0
O121 O 0.74757 0.74045 0.99276 0.0
Cd122 Cd 0.77641 0.76703 0.99055 0.0
O123 O 0.74668 0.74308 0.02796 0.0
Cd124 Cd 0.78147 0.75411 0.02749 0.0
O125 O 0.81475 0.7405 0.0215 0.0
C126 C 0.81594 0.72831 0.00554 0.0
O127 O 0.79808 0.72628 0.9931 0.0
C128 C 0.73795 0.73653 0.01058 0.0
C129 C 0.75099 0.80299 0.99404 0.0
O130 O 0.7557 0.79517 0.97564 0.0
O131 O 0.75956 0.7945 0.01079 0.0
O132 O 0.52785 0.78755 0.77211 0.0
Cd133 Cd 0.52817 0.75512 0.75213 0.0
O134 O 0.49164 0.79285 0.7657 0.0
Cd135 Cd 0.49284 0.7737 0.73689 0.0
O136 O 0.49787 0.78247 0.70334 0.0
C137 C 0.51712 0.7808 0.69434 0.0
O138 O 0.53368 0.77148 0.70468 0.0
C139 C 0.50967 0.7976 0.77569 0.0
C140 C 0.52155 0.72303 0.78136 0.0
O141 O 0.54155 0.72893 0.77638 0.0
O142 O 0.50473 0.73196 0.77213 0.0
O143 O 0.25783 0.5446 0.7656 0.0
Cd144 Cd 0.293 0.55162 0.74619 0.0
O145 O 0.25659 0.5753 0.7804 0.0
Cd146 Cd 0.29257 0.58009 0.77394 0.0
O147 O 0.32793 0.57586 0.78365 0.0
C148 C 0.33461 0.55748 0.78682 0.0
O149 O 0.32055 0.54235 0.7828 0.0
C150 C 0.24723 0.55812 0.77651 0.0
C151 C 0.28194 0.55217 0.70265 0.0
O152 O 0.28925 0.5357 0.71171 0.0
O153 O 0.28075 0.5686 0.71401 0.0
O154 O 0.44428 0.23414 0.80602 0.0
Cd155 Cd 0.44222 0.26325 0.78118 0.0
O156 O 0.44898 0.20916 0.7823 0.0
Cd157 Cd 0.44772 0.22536 0.75156 0.0
O158 O 0.45139 0.2152 0.71815 0.0
C159 C 0.43793 0.20118 0.71193 0.0
O160 O 0.42177 0.19528 0.72503 0.0
C161 C 0.44717 0.21517 0.80169 0.0
C162 C 0.4522 0.29931 0.80385 0.0
O163 O 0.43189 0.29251 0.80274 0.0
O164 O 0.46775 0.2893 0.79386 0.0
O165 O 0.78399 0.59402 0.79179 0.0
Cd166 Cd 0.77126 0.60193 0.75561 0.0
O167 O 0.77219 0.56277 0.785 0.0
Cd168 Cd 0.76429 0.5313 0.79487 0.0
O169 O 0.75215 0.51069 0.81989 0.0
C170 C 0.75048 0.51964 0.83798 0.0
O171 O 0.75617 0.5391 0.83932 0.0
C172 C 0.78231 0.57531 0.79743 0.0
C173 C 0.80566 0.58586 0.73018 0.0
O174 O 0.80572 0.60481 0.73592 0.0
O175 O 0.78861 0.57484 0.73546 0.0
O176 O 0.48833 0.2441 0.21555 0.0
Cd177 Cd 0.49083 0.27232 0.24133 0.0
O178 O 0.4862 0.21738 0.23737 0.0
Cd179 Cd 0.49127 0.23215 0.26855 0.0
O180 O 0.50062 0.22253 0.30115 0.0
C181 C 0.51535 0.20818 0.30213 0.0
O182 O 0.52451 0.20154 0.28415 0.0
C183 C 0.48627 0.22484 0.21848 0.0
C184 C 0.49263 0.3089 0.21772 0.0
O185 O 0.5107 0.29893 0.22268 0.0
O186 O 0.47366 0.30191 0.22446 0.0
O187 O 0.79919 0.48491 0.25715 0.0
Cd188 Cd 0.76259 0.4839 0.27553 0.0
O189 O 0.7946 0.51775 0.24989 0.0
Cd190 Cd 0.75796 0.51597 0.25384 0.0
O191 O 0.72631 0.51278 0.23603 0.0
C192 C 0.7168 0.49548 0.23323 0.0
O193 O 0.72514 0.47912 0.24288 0.0
C194 C 0.80723 0.50183 0.2504 0.0
C195 C 0.7711 0.49716 0.31734 0.0
O196 O 0.77141 0.47798 0.31251 0.0
O197 O 0.76571 0.51003 0.30257 0.0
O198 O 0.58027 0.78784 0.21689 0.0
Cd199 Cd 0.57492 0.75992 0.24266 0.0
O200 O 0.588 0.81324 0.23924 0.0
Cd201 Cd 0.5838 0.79721 0.26988 0.0
O202 O 0.57701 0.80173 0.30421 0.0
C203 C 0.55668 0.80492 0.31015 0.0
O204 O 0.54041 0.80367 0.29577 0.0
C205 C 0.58531 0.80658 0.22018 0.0
C206 C 0.56468 0.72411 0.2197 0.0
O207 O 0.54917 0.73702 0.22507 0.0
O208 O 0.58506 0.72784 0.22561 0.0
O209 O 0.21893 0.67122 0.20695 0.0
Cd210 Cd 0.22059 0.68742 0.24212 0.0
O211 O 0.24412 0.65001 0.22035 0.0
Cd212 Cd 0.26827 0.62438 0.22049 0.0
O213 O 0.2947 0.60196 0.21312 0.0
C214 C 0.31535 0.60678 0.21575 0.0
O215 O 0.32021 0.62488 0.22391 0.0
C216 C 0.23092 0.65503 0.20498 0.0
C217 C 0.19647 0.66121 0.26884 0.0
O218 O 0.18687 0.67693 0.26026 0.0
O219 O 0.21772 0.65845 0.26557 0.0
O220 O 0.8229 0.79362 0.4629 0.0
Cd221 Cd 0.79459 0.76679 0.45779 0.0
O222 O 0.81786 0.79239 0.49791 0.0
Cd223 Cd 0.78355 0.78011 0.49543 0.0
O224 O 0.74787 0.7891 0.4984 0.0
C225 C 0.73678 0.79479 0.48189 0.0
O226 O 0.74646 0.79343 0.46293 0.0
C227 C 0.82924 0.79846 0.48177 0.0
C228 C 0.81605 0.72933 0.46691 0.0
O229 O 0.81565 0.73654 0.44774 0.0
O230 O 0.80566 0.7395 0.48161 0.0
O231 O 0.80504 0.23533 0.49308 0.0
Cd232 Cd 0.77648 0.26262 0.49223 0.0
O233 O 0.78601 0.21311 0.4736 0.0
Cd234 Cd 0.75416 0.23013 0.47608 0.0
O235 O 0.71917 0.22452 0.4856 0.0
C236 C 0.71456 0.22219 0.50541 0.0
O237 O 0.73054 0.22538 0.51973 0.0
C238 C 0.80405 0.21815 0.48338 0.0
C239 C 0.79945 0.29979 0.49616 0.0
O240 O 0.79231 0.29013 0.51277 0.0
O241 O 0.79506 0.2922 0.47761 0.0
O242 O 0.22387 0.78631 0.55218 0.0
Cd243 Cd 0.25432 0.76078 0.55475 0.0
O244 O 0.23015 0.7897 0.51749 0.0
Cd245 Cd 0.26492 0.7779 0.51857 0.0
O246 O 0.30052 0.78668 0.51508 0.0
C247 C 0.30395 0.80198 0.50278 0.0
O248 O 0.28651 0.81032 0.49283 0.0
C249 C 0.21786 0.79323 0.53391 0.0
C250 C 0.23531 0.72224 0.54682 0.0
O251 O 0.23804 0.72872 0.56611 0.0
O252 O 0.24215 0.7337 0.53141 0.0
O253 O 0.23945 0.22797 0.51638 0.0
Cd254 Cd 0.26631 0.25635 0.51732 0.0
O255 O 0.24911 0.2153 0.54785 0.0
Cd256 Cd 0.28037 0.23294 0.5484 0.0
O257 O 0.31529 0.22317 0.54316 0.0
C258 C 0.32273 0.22093 0.52412 0.0
O259 O 0.31011 0.22713 0.50793 0.0
C260 C 0.23619 0.21518 0.5315 0.0
C261 C 0.24161 0.2925 0.51086 0.0
O262 O 0.24945 0.28212 0.49497 0.0
O263 O 0.24605 0.28613 0.52991 0.0
Zn264 Zn 0.95068 0.00047 0.47216 0.0
Zn265 Zn 0.96891 0.04494 0.4866 0.0
O266 O 0.97911 0.0165 0.47914 0.0
H267 H 0.99366 0.01049 0.48266 0.0
C268 C 0.98641 0.95857 0.52874 0.0
O269 O 0.99107 0.97287 0.51453 0.0
Zn270 Zn 0.07476 0.04091 0.53539 0.0
Zn271 Zn 0.08438 0.99322 0.54378 0.0
O272 O 0.05981 0.01514 0.54488 0.0
H273 H 0.04385 0.01243 0.54309 0.0
Zn274 Zn -0.00024 0.99073 0.55992 0.0
O275 O 0.99569 0.01523 0.53999 0.0
Zn276 Zn 0.99879 0.03974 0.55918 0.0
H277 H -0.00038 0.0149 0.52491 0.0
Zn278 Zn 0.03661 0.98324 0.46826 0.0
O279 O 0.04529 0.00889 0.48517 0.0
H280 H 0.04296 0.01019 0.50048 0.0
Zn281 Zn 0.04464 0.03191 0.46367 0.0
C282 C 0.05083 0.94991 0.49915 0.0
O283 O 0.04485 0.9628 0.51443 0.0
O284 O 0.92132 0.0181 0.47223 0.0
O285 O 0.9349 0.04834 0.48285 0.0
O286 O 0.11661 0.00545 0.54285 0.0
O287 O 0.10893 0.03889 0.53922 0.0
O288 O 0.99257 0.99751 0.59169 0.0
O289 O 0.99257 0.0317 0.59015 0.0
C290 C 0.00457 0.06202 0.46109 0.0
O291 O 0.04134 0.98679 0.43561 0.0
O292 O 0.04876 0.02023 0.4336 0.0
O293 O 0.07915 0.96758 0.56312 0.0
C294 C 0.91836 0.03701 0.47709 0.0
O295 O 0.95372 0.97548 0.45139 0.0
C296 C 0.04331 0.06442 0.56069 0.0
O297 O 0.98923 0.96236 0.54862 0.0
C298 C 0.12306 0.0241 0.54158 0.0
O299 O 0.04838 0.95515 0.47959 0.0
C300 C 0.97002 0.06266 0.5307 0.0
O301 O 0.98441 0.06529 0.46733 0.0
O302 O 0.01409 0.04528 0.46678 0.0
C303 C 0.99036 0.01501 0.60073 0.0
O304 O 0.06353 0.06437 0.55377 0.0
O305 O 0.03068 0.04955 0.55516 0.0
C306 C 0.0753 0.05499 0.48975 0.0
O307 O 0.97639 0.06173 0.55016 0.0
O308 O 0.97794 0.04968 0.51738 0.0
C309 C 0.04662 0.00264 0.42472 0.0
O310 O 0.06911 0.05271 0.47033 0.0
O311 O 0.06621 0.04397 0.50415 0.0
C312 C 0.05992 0.96543 0.57203 0.0
O313 O 0.04404 0.97925 0.56845 0.0
C314 C 0.97183 0.97329 0.44053 0.0
O315 O 0.98803 0.98691 0.44272 0.0
Zn316 Zn 0.49825 0.05062 0.03495 0.0
Zn317 Zn 0.4943 0.05226 0.98346 0.0
O318 O 0.50463 0.0345 0.00776 0.0
H319 H 0.51384 0.0222 0.00671 0.0
C320 C 0.5394 0.09138 0.04354 0.0
O321 O 0.52871 0.09028 0.02504 0.0
Zn322 Zn 0.56027 0.98581 0.95294 0.0
Zn323 Zn 0.55515 0.99605 0.00224 0.0
O324 O 0.54195 0.00362 0.97265 0.0
H325 H 0.53541 0.01679 0.96887 0.0
Zn326 Zn 0.57415 0.06822 0.01968 0.0
O327 O 0.55511 0.05468 0.99702 0.0
Zn328 Zn 0.57092 0.05847 0.96893 0.0
H329 H 0.56298 0.06071 0.00909 0.0
Zn330 Zn 0.50984 0.96322 0.01705 0.0
O331 O 0.52448 0.96893 0.98825 0.0
H332 H 0.51951 0.96588 0.00264 0.0
Zn333 Zn 0.4992 0.97634 0.96864 0.0
C334 C 0.54115 0.95018 0.05187 0.0
O335 O 0.54539 0.96997 0.05295 0.0
O336 O 0.47821 0.07637 0.0299 0.0
O337 O 0.47589 0.07663 0.99424 0.0
O338 O 0.57078 0.96753 0.00417 0.0
O339 O 0.57567 0.96273 0.96918 0.0
O340 O 0.60407 0.07943 0.0081 0.0
O341 O 0.60145 0.07346 0.97288 0.0
C342 C 0.47605 0.01626 0.96186 0.0
O343 O 0.47544 0.9582 0.01424 0.0
O344 O 0.46981 0.9633 0.97924 0.0
O345 O 0.57404 0.01777 0.01819 0.0
C346 C 0.47079 0.0843 0.01251 0.0
O347 O 0.48931 0.03394 0.0618 0.0
C348 C 0.58763 0.02167 0.9433 0.0
O349 O 0.55885 0.08307 0.04538 0.0
C350 C 0.57842 0.9569 0.98857 0.0
O351 O 0.52701 0.94371 0.03805 0.0
C352 C 0.52874 0.0728 0.95323 0.0
O353 O 0.47352 0.03545 0.96503 0.0
O354 O 0.494 0.00724 0.96831 0.0
C355 C 0.61221 0.08047 0.98917 0.0
O356 O 0.58523 0.0027 0.93885 0.0
O357 O 0.57429 0.02981 0.95689 0.0
C358 C 0.52254 0.96395 0.92578 0.0
O359 O 0.54978 0.07452 0.94942 0.0
O360 O 0.5227 0.06126 0.96861 0.0
C361 C 0.46257 0.95795 0.99777 0.0
O362 O 0.50638 0.96482 0.93934 0.0
O363 O 0.54197 0.97167 0.92962 0.0
C364 C 0.56955 0.02331 0.0373 0.0
O365 O 0.55123 0.01627 0.04669 0.0
C366 C 0.47671 0.01823 0.06 0.0
O367 O 0.47097 0.01186 0.0407 0.0
Zn368 Zn 0.96919 0.49338 0.98005 0.0
Zn369 Zn 0.97488 0.54122 0.98418 0.0
O370 O 0.9932 0.51569 0.9789 0.0
H371 H 0.00883 0.51359 0.98301 0.0
C372 C 0.00954 0.45039 0.03655 0.0
O373 O 0.01774 0.4638 0.02285 0.0
Zn374 Zn 0.06785 0.54577 0.0344 0.0
Zn375 Zn 0.08626 0.50056 0.04501 0.0
O376 O 0.05738 0.51703 0.03934 0.0
H377 H 0.04324 0.51145 0.03418 0.0
Zn378 Zn 0.00072 0.48749 0.0631 0.0
O379 O 0.98612 0.50762 0.0419 0.0
Zn380 Zn 0.98893 0.53311 0.05963 0.0
H381 H 0.97426 0.50445 0.03169 0.0
Zn382 Zn 0.05135 0.49212 0.95288 0.0
O383 O 0.05721 0.51422 0.97546 0.0
H384 H 0.05529 0.51269 0.99079 0.0
Zn385 Zn 0.05298 0.54003 0.95864 0.0
C386 C 0.05836 0.45725 0.9819 0.0
O387 O 0.05956 0.47236 0.99588 0.0
O388 O 0.93799 0.50397 0.96969 0.0
O389 O 0.94269 0.53772 0.97314 0.0
O390 O 0.1135 0.51877 0.05391 0.0
O391 O 0.09988 0.54968 0.04528 0.0
O392 O 0.99163 0.49359 0.09454 0.0
O393 O 0.98195 0.52646 0.09082 0.0
C394 C 0.00839 0.56492 0.96045 0.0
O395 O 0.06208 0.50086 0.92249 0.0
O396 O 0.06146 0.53474 0.9274 0.0
O397 O 0.08289 0.47161 0.05906 0.0
C398 C 0.93053 0.52234 0.96787 0.0
O399 O 0.97831 0.46397 0.97004 0.0
C400 C 0.02826 0.56166 0.05738 0.0
O401 O 0.00172 0.45671 0.05441 0.0
C402 C 0.11574 0.53825 0.05264 0.0
O403 O 0.05473 0.46147 0.96224 0.0
C404 C 0.96435 0.55697 0.02905 0.0
O405 O 0.98835 0.56503 0.96789 0.0
O406 O 0.02059 0.54899 0.96367 0.0
C407 C 0.98391 0.51033 0.10239 0.0
O408 O 0.04789 0.56578 0.05036 0.0
O409 O 0.02044 0.54367 0.05463 0.0
C410 C 0.07635 0.56329 0.99045 0.0
O411 O 0.96693 0.55453 0.04915 0.0
O412 O 0.97544 0.54539 0.01632 0.0
C413 C 0.06504 0.51908 0.91545 0.0
O414 O 0.07366 0.5618 0.97028 0.0
O415 O 0.06615 0.55063 0.00256 0.0
C416 C 0.06388 0.46689 0.06724 0.0
O417 O 0.04716 0.48028 0.06627 0.0
C418 C 0.9944 0.46181 0.95665 0.0
O419 O 0.0054 0.47821 0.95023 0.0
Zn420 Zn 0.48046 0.47349 0.99113 0.0
Zn421 Zn 0.48108 0.47875 0.04067 0.0
O422 O 0.47904 0.49581 0.01394 0.0
H423 H 0.48475 0.50957 0.01189 0.0
C424 C 0.52453 0.44991 0.95725 0.0
O425 O 0.51414 0.45052 0.97589 0.0
Zn426 Zn 0.54183 0.55155 0.04359 0.0
Zn427 Zn 0.54808 0.54671 0.99243 0.0
O428 O 0.53464 0.53347 0.01867 0.0
H429 H 0.52353 0.52263 0.01874 0.0
Zn430 Zn 0.55893 0.4725 0.98183 0.0
O431 O 0.53998 0.47878 0.00813 0.0
Zn432 Zn 0.5611 0.47938 0.03355 0.0
H433 H 0.52524 0.4853 0.00732 0.0
Zn434 Zn 0.46628 0.55902 0.99023 0.0
O435 O 0.48712 0.55855 0.01629 0.0
H436 H 0.50156 0.56552 0.0163 0.0
Zn437 Zn 0.46631 0.55383 0.04145 0.0
C438 C 0.48275 0.59177 0.96364 0.0
O439 O 0.47962 0.60111 0.98216 0.0
O440 O 0.46567 0.44647 0.00113 0.0
O441 O 0.46439 0.45189 0.03641 0.0
O442 O 0.56066 0.57562 0.99854 0.0
O443 O 0.55877 0.57719 0.03425 0.0
O444 O 0.59023 0.46143 0.99026 0.0
O445 O 0.59197 0.46637 0.02569 0.0
C446 C 0.46247 0.51334 0.06437 0.0
O447 O 0.43457 0.5696 0.99869 0.0
O448 O 0.4356 0.56688 0.03433 0.0
O449 O 0.5694 0.52806 0.97476 0.0
C450 C 0.45999 0.44082 0.01998 0.0
O451 O 0.47489 0.4823 0.95951 0.0
C452 C 0.56575 0.51686 0.06169 0.0
O453 O 0.54376 0.45843 0.95543 0.0
C454 C 0.56442 0.58497 0.01619 0.0
O455 O 0.47879 0.5726 0.96239 0.0
C456 C 0.52585 0.46362 0.05959 0.0
O457 O 0.46714 0.49424 0.06557 0.0
O458 O 0.46675 0.523 0.04706 0.0
C459 C 0.60073 0.45989 0.0081 0.0
O460 O 0.55981 0.53538 0.06538 0.0
O461 O 0.56133 0.509 0.04344 0.0
C462 C 0.5 0.56792 0.0697 0.0
O463 O 0.54728 0.46344 0.05786 0.0
O464 O 0.51428 0.47338 0.04566 0.0
C465 C 0.42546 0.57228 0.01706 0.0
O466 O 0.47859 0.56792 0.06802 0.0
O467 O 0.51123 0.55894 0.05503 0.0
C468 C 0.58566 0.5194 0.98474 0.0
O469 O 0.5876 0.52226 0.00557 0.0
C470 C 0.48145 0.49959 0.95235 0.0
O471 O 0.49266 0.512 0.96515 0.0
Zn472 Zn 0.97914 0.50014 0.47972 0.0
Zn473 Zn 0.9818 0.54855 0.48191 0.0
O474 O 0.00159 0.52365 0.47886 0.0
H475 H 0.01677 0.52249 0.48454 0.0
C476 C 0.95889 0.46296 0.52963 0.0
O477 O 0.96534 0.47584 0.51461 0.0
Zn478 Zn 0.07052 0.54593 0.53032 0.0
Zn479 Zn 0.07846 0.49775 0.5361 0.0
O480 O 0.05391 0.51949 0.53327 0.0
H481 H 0.03925 0.51691 0.52693 0.0
Zn482 Zn 0.98532 0.49036 0.55828 0.0
O483 O 0.98784 0.51454 0.53758 0.0
Zn484 Zn 0.99301 0.53946 0.55578 0.0
H485 H 0.99088 0.51343 0.52236 0.0
Zn486 Zn 0.07512 0.4981 0.44313 0.0
O487 O 0.06083 0.51574 0.46642 0.0
H488 H 0.0583 0.5118 0.48122 0.0
Zn489 Zn 0.05891 0.54402 0.45417 0.0
C490 C 0.08947 0.46007 0.46446 0.0
O491 O 0.06809 0.46012 0.47033 0.0
O492 O 0.94662 0.50902 0.47178 0.0
O493 O 0.95007 0.54304 0.47017 0.0
O494 O 0.10994 0.50986 0.54311 0.0
O495 O 0.10291 0.54351 0.54133 0.0
O496 O 0.98016 0.49943 0.58969 0.0
O497 O 0.98593 0.53307 0.58689 0.0
C498 C 0.01636 0.57193 0.45908 0.0
O499 O 0.08101 0.51328 0.41441 0.0
O500 O 0.065 0.54347 0.4221 0.0
O501 O 0.06918 0.47073 0.55147 0.0
C502 C 0.93828 0.52677 0.46788 0.0
O503 O 0.98977 0.47165 0.46827 0.0
C504 C 0.03408 0.56585 0.553 0.0
O505 O 0.9656 0.46567 0.54884 0.0
C506 C 0.11639 0.52847 0.54503 0.0
O507 O 0.09676 0.47458 0.4527 0.0
C508 C 0.96877 0.56515 0.52665 0.0
O509 O 0.99629 0.57262 0.46652 0.0
O510 O 0.02776 0.5554 0.46162 0.0
C511 C 0.98095 0.5173 0.59808 0.0
O512 O 0.05398 0.56877 0.54592 0.0
O513 O 0.02514 0.54828 0.55053 0.0
C514 C 0.08496 0.56144 0.48798 0.0
O515 O 0.97185 0.56223 0.54661 0.0
O516 O 0.97981 0.55372 0.5137 0.0
C517 C 0.07475 0.53133 0.40886 0.0
O518 O 0.08353 0.56114 0.46766 0.0
O519 O 0.07061 0.55136 0.49879 0.0
C520 C 0.0499 0.46989 0.56053 0.0
O521 O 0.03634 0.48597 0.55955 0.0
C522 C 0.00763 0.47023 0.45695 0.0
O523 O 0.01951 0.48687 0.45321 0.0
Zn524 Zn 0.46507 0.9832 0.47411 0.0
Zn525 Zn 0.46979 0.03077 0.47789 0.0
O526 O 0.48849 0.0059 0.47091 0.0
H527 H 0.50181 0.00523 0.46191 0.0
C528 C 0.48713 0.93697 0.52998 0.0
O529 O 0.50274 0.93372 0.54468 0.0
Zn530 Zn 0.57336 0.03841 0.55175 0.0
Zn531 Zn 0.59047 0.99321 0.56192 0.0
O532 O 0.56185 0.01007 0.55732 0.0
H533 H 0.54753 0.00465 0.55245 0.0
Zn534 Zn 0.4945 0.97928 0.54396 0.0
O535 O 0.49989 0.00693 0.52974 0.0
Zn536 Zn 0.49435 0.02843 0.55238 0.0
H537 H 0.50848 0.00895 0.51669 0.0
Zn538 Zn 0.56067 0.99358 0.46219 0.0
O539 O 0.55595 0.01278 0.48787 0.0
H540 H 0.55095 0.00876 0.50204 0.0
Zn541 Zn 0.5507 0.03998 0.47343 0.0
C542 C 0.57549 0.95582 0.48544 0.0
O543 O 0.57224 0.96734 0.50254 0.0
O544 O 0.43314 0.99289 0.46449 0.0
O545 O 0.43753 0.02674 0.4673 0.0
O546 O 0.61756 0.01056 0.57247 0.0
O547 O 0.60555 0.0418 0.56305 0.0
O548 O 0.48005 0.98215 0.57395 0.0
O549 O 0.4787 0.01607 0.57864 0.0
C550 C 0.50423 0.05755 0.46224 0.0
O551 O 0.57409 0.00836 0.43575 0.0
O552 O 0.56748 0.04088 0.44497 0.0
O553 O 0.58659 0.96336 0.57319 0.0
C554 C 0.42541 0.01117 0.46254 0.0
O555 O 0.47507 0.95375 0.46499 0.0
C556 C 0.53271 0.0564 0.56766 0.0
O557 O 0.48121 0.95538 0.52579 0.0
C558 C 0.62058 0.02995 0.5713 0.0
O559 O 0.57139 0.96333 0.46697 0.0
C560 C 0.46884 0.05116 0.52088 0.0
O561 O 0.48288 0.05558 0.46346 0.0
O562 O 0.51685 0.04333 0.46979 0.0
C563 C 0.47446 0.99784 0.58508 0.0
O564 O 0.55399 0.05906 0.56733 0.0
O565 O 0.52503 0.03997 0.55932 0.0
C566 C 0.56903 0.06135 0.51108 0.0
O567 O 0.47557 0.05154 0.54025 0.0
O568 O 0.47251 0.03512 0.50971 0.0
C569 C 0.57557 0.02757 0.43194 0.0
O570 O 0.56237 0.06316 0.49174 0.0
O571 O 0.56894 0.04379 0.52006 0.0
C572 C 0.57229 0.95136 0.56454 0.0
O573 O 0.56013 0.95801 0.54823 0.0
C574 C 0.49453 0.94638 0.46944 0.0
O575 O 0.50878 0.95752 0.48068 0.0
C576 C 0.21783 0.18243 0.54339 0.0
C577 C 0.21844 0.19933 0.52931 0.0
C578 C 0.20241 0.1665 0.54007 0.0
C579 C 0.16741 0.14335 0.49713 0.0
H580 H 0.13833 0.11526 0.54455 0.0
C581 C 0.11288 0.07124 0.48346 0.0
C582 C 0.09277 0.07006 0.49535 0.0
C583 C 0.12907 0.08611 0.48847 0.0
C584 C 0.14622 0.12303 0.53112 0.0
H585 H 0.2027 0.21319 0.50126 0.0
H586 H 0.17546 0.18571 0.49581 0.0
H587 H 0.1637 0.14389 0.55185 0.0
H588 H 0.07302 0.08402 0.52072 0.0
H589 H 0.10117 0.10994 0.52971 0.0
H590 H 0.14937 0.12301 0.47635 0.0
C591 C 0.1873 0.18445 0.50907 0.0
C592 C 0.16096 0.1393 0.53532 0.0
C593 C 0.2028 0.2003 0.5123 0.0
C594 C 0.08891 0.08405 0.5121 0.0
C595 C 0.10498 0.09898 0.51707 0.0
C596 C 0.15261 0.12717 0.49293 0.0
C597 C 0.18718 0.16718 0.52268 0.0
C598 C 0.17163 0.14974 0.51836 0.0
C599 C 0.12523 0.10026 0.50526 0.0
C600 C 0.14175 0.11687 0.50986 0.0
H601 H 0.22971 0.18118 0.55661 0.0
H602 H 0.20293 0.15335 0.55075 0.0
H603 H 0.17564 0.1508 0.48369 0.0
H604 H 0.11609 0.06061 0.47037 0.0
H605 H 0.14458 0.08653 0.47919 0.0
C606 C 0.84225 0.20801 0.49753 0.0
C607 C 0.82324 0.20342 0.48481 0.0
C608 C 0.85927 0.19331 0.50077 0.0
C609 C 0.88342 0.14458 0.48035 0.0
H610 H 0.90224 0.13718 0.53964 0.0
C611 C 0.95686 0.09027 0.50579 0.0
C612 C 0.95322 0.07821 0.52412 0.0
C613 C 0.94135 0.10563 0.50003 0.0
C614 C 0.89708 0.13898 0.52303 0.0
H615 H 0.80774 0.18009 0.46469 0.0
H616 H 0.8375 0.15444 0.47039 0.0
H617 H 0.87504 0.16417 0.53064 0.0
H618 H 0.93094 0.07278 0.55111 0.0
H619 H 0.90355 0.09949 0.54098 0.0
H620 H 0.90537 0.11919 0.47282 0.0
C621 C 0.83922 0.16943 0.47781 0.0
C622 C 0.88171 0.1546 0.51783 0.0
C623 C 0.82212 0.18411 0.47463 0.0
C624 C 0.93398 0.08185 0.5368 0.0
C625 C 0.91842 0.09717 0.53106 0.0
C626 C 0.89899 0.12904 0.48553 0.0
C627 C 0.85771 0.17374 0.49129 0.0
C628 C 0.87465 0.15753 0.49647 0.0
C629 C 0.922 0.1093 0.51266 0.0
C630 C 0.90582 0.12598 0.50696 0.0
H631 H 0.84373 0.22276 0.5055 0.0
H632 H 0.87352 0.19717 0.51096 0.0
H633 H 0.87833 0.14653 0.46374 0.0
H634 H 0.97215 0.08841 0.49646 0.0
H635 H 0.9448 0.11499 0.48602 0.0
C636 C 0.85838 0.8142 0.50576 0.0
C637 C 0.8491 0.81189 0.4851 0.0
C638 C 0.87594 0.82806 0.5094 0.0
C639 C 0.9192 0.86058 0.48254 0.0
H640 H 0.91339 0.8926 0.53489 0.0
C641 C 0.96832 0.9362 0.50069 0.0
C642 C 0.97548 0.93916 0.52205 0.0
C643 C 0.9554 0.91899 0.49515 0.0
C644 C 0.91547 0.88361 0.52034 0.0
H645 H 0.8515 0.82181 0.4519 0.0
H646 H 0.88182 0.84646 0.45838 0.0
H647 H 0.88609 0.86584 0.52719 0.0
H648 H 0.9761 0.92565 0.55395 0.0
H649 H 0.95377 0.89571 0.54425 0.0
H650 H 0.9484 0.87898 0.47558 0.0
C651 C 0.87576 0.8373 0.47171 0.0
C652 C 0.89982 0.86821 0.51593 0.0
C653 C 0.8583 0.82325 0.46801 0.0
C654 C 0.97058 0.924 0.53743 0.0
C655 C 0.95771 0.90687 0.5319 0.0
C656 C 0.93486 0.87616 0.48693 0.0
C657 C 0.88449 0.84016 0.49255 0.0
C658 C 0.90151 0.8564 0.49704 0.0
C659 C 0.94941 0.90447 0.51087 0.0
C660 C 0.9332 0.88775 0.50596 0.0
H661 H 0.8519 0.80548 0.51923 0.0
H662 H 0.88262 0.82948 0.52556 0.0
H663 H 0.9211 0.85169 0.46792 0.0
H664 H 0.97192 0.94755 0.48843 0.0
H665 H 0.94922 0.91757 0.47881 0.0
C666 C 0.18872 0.81078 0.51112 0.0
C667 C 0.19725 0.80616 0.53166 0.0
C668 C 0.17048 0.82433 0.50866 0.0
C669 C 0.12375 0.85123 0.5374 0.0
H670 H 0.13032 0.89004 0.49053 0.0
C671 C 0.0686 0.92537 0.52561 0.0
C672 C 0.06299 0.93052 0.50429 0.0
C673 C 0.0828 0.90852 0.52997 0.0
C674 C 0.12805 0.87916 0.50352 0.0
H675 H 0.19274 0.81156 0.56581 0.0
H676 H 0.16109 0.83566 0.56146 0.0
H677 H 0.15921 0.86392 0.49624 0.0
H678 H 0.06635 0.92097 0.47098 0.0
H679 H 0.09071 0.89161 0.47858 0.0
H680 H 0.09261 0.867 0.5448 0.0
C681 C 0.16836 0.82856 0.54727 0.0
C682 C 0.14462 0.86413 0.50679 0.0
C683 C 0.18656 0.81483 0.54976 0.0
C684 C 0.07062 0.91768 0.48757 0.0
C685 C 0.0847 0.90089 0.49191 0.0
C686 C 0.10712 0.86642 0.53416 0.0
C687 C 0.16043 0.83379 0.52664 0.0
C688 C 0.14261 0.84984 0.52362 0.0
C689 C 0.09155 0.8965 0.51306 0.0
C690 C 0.10902 0.8804 0.51703 0.0
H691 H 0.19634 0.80415 0.49685 0.0
H692 H 0.16444 0.8276 0.49256 0.0
H693 H 0.12165 0.8404 0.55046 0.0
H694 H 0.06269 0.93474 0.53885 0.0
H695 H 0.08773 0.90548 0.54645 0.0
C696 C 0.47941 0.19003 0.20253 0.0
C697 C 0.48536 0.21077 0.19978 0.0
C698 C 0.48061 0.17627 0.1853 0.0
C699 C 0.48781 0.17311 0.12574 0.0
H700 H 0.51415 0.11988 0.13935 0.0
C701 C 0.50858 0.11325 0.05964 0.0
C702 C 0.52952 0.10302 0.06174 0.0
C703 C 0.49986 0.12501 0.0766 0.0
C704 C 0.50686 0.1347 0.13524 0.0
H705 H 0.49648 0.23348 0.17659 0.0
H706 H 0.49924 0.2094 0.14674 0.0
H707 H 0.50489 0.14363 0.1682 0.0
H708 H 0.5576 0.09688 0.08342 0.0
H709 H 0.5428 0.11773 0.11265 0.0
H710 H 0.49104 0.16457 0.09266 0.0
C711 C 0.49318 0.20379 0.16206 0.0
C712 C 0.50121 0.14824 0.15184 0.0
C713 C 0.49173 0.21761 0.17924 0.0
C714 C 0.54139 0.10453 0.08126 0.0
C715 C 0.53278 0.11637 0.09813 0.0
C716 C 0.49364 0.15961 0.1091 0.0
C717 C 0.48805 0.18285 0.16497 0.0
C718 C 0.49196 0.16777 0.14731 0.0
C719 C 0.51199 0.12688 0.09599 0.0
C720 C 0.50364 0.14039 0.11364 0.0
H721 H 0.47417 0.18432 0.2181 0.0
H722 H 0.47605 0.16037 0.18803 0.0
H723 H 0.48039 0.18788 0.12166 0.0
H724 H 0.49905 0.11244 0.04479 0.0
H725 H 0.48367 0.13269 0.07449 0.0
C726 C 0.84458 0.48518 0.24156 0.0
C727 C 0.83067 0.50282 0.24197 0.0
C728 C 0.86587 0.48573 0.23173 0.0
C729 C 0.90937 0.52102 0.20916 0.0
H730 H 0.92019 0.47597 0.16953 0.0
C731 C 0.96306 0.52791 0.13238 0.0
C732 C 0.97438 0.51038 0.12443 0.0
C733 C 0.95029 0.52681 0.15124 0.0
C734 C 0.91781 0.48847 0.18084 0.0
H735 H 0.82871 0.53512 0.23328 0.0
H736 H 0.86555 0.53597 0.21587 0.0
H737 H 0.88866 0.47419 0.19444 0.0
H738 H 0.98289 0.47849 0.13122 0.0
H739 H 0.96085 0.4767 0.16426 0.0
H740 H 0.93811 0.53563 0.19483 0.0
C741 C 0.86019 0.52176 0.22334 0.0
C742 C 0.89966 0.48745 0.19516 0.0
C743 C 0.83894 0.52123 0.23319 0.0
C744 C 0.97414 0.49221 0.13671 0.0
C745 C 0.96141 0.49114 0.1556 0.0
C746 C 0.92756 0.52205 0.19479 0.0
C747 C 0.87371 0.50391 0.22209 0.0
C748 C 0.89487 0.50392 0.20912 0.0
C749 C 0.94863 0.5082 0.16263 0.0
C750 C 0.93165 0.50599 0.18011 0.0
H751 H 0.83881 0.47079 0.24834 0.0
H752 H 0.87602 0.47178 0.2313 0.0
H753 H 0.90636 0.53382 0.21996 0.0
H754 H 0.963 0.5422 0.12343 0.0
H755 H 0.94059 0.54022 0.15612 0.0
C756 C 0.59341 0.84156 0.2051 0.0
C757 C 0.58668 0.82108 0.20183 0.0
C758 C 0.59281 0.85572 0.1882 0.0
C759 C 0.58762 0.86021 0.12871 0.0
H760 H 0.5622 0.91382 0.14232 0.0
C761 C 0.54809 0.91438 0.0653 0.0
C762 C 0.55139 0.93569 0.0675 0.0
C763 C 0.55614 0.90075 0.08093 0.0
C764 C 0.56969 0.89906 0.13828 0.0
H765 H 0.5747 0.79929 0.17801 0.0
H766 H 0.57325 0.82405 0.14868 0.0
H767 H 0.56943 0.88928 0.17107 0.0
H768 H 0.56656 0.95931 0.08742 0.0
H769 H 0.58057 0.93546 0.11478 0.0
H770 H 0.58715 0.86988 0.09578 0.0
C771 C 0.57933 0.82913 0.16422 0.0
C772 C 0.57387 0.88497 0.15478 0.0
C773 C 0.58005 0.81493 0.1811 0.0
C774 C 0.56362 0.943 0.0853 0.0
C775 C 0.57156 0.92935 0.10103 0.0
C776 C 0.58334 0.8743 0.11218 0.0
C777 C 0.58535 0.84978 0.16765 0.0
C778 C 0.58262 0.86526 0.15019 0.0
C779 C 0.56759 0.90811 0.09917 0.0
C780 C 0.57405 0.89378 0.11677 0.0
H781 H 0.5988 0.84679 0.22082 0.0
H782 H 0.59796 0.87141 0.19132 0.0
H783 H 0.59472 0.84531 0.12463 0.0
H784 H 0.53884 0.90823 0.05171 0.0
H785 H 0.55263 0.8845 0.07912 0.0
C786 C 0.23133 0.62049 0.18698 0.0
C787 C 0.22827 0.64191 0.18569 0.0
C788 C 0.22576 0.60784 0.16962 0.0
C789 C 0.20807 0.60819 0.1118 0.0
H790 H 0.17443 0.55987 0.129 0.0
C791 C 0.13891 0.56957 0.06044 0.0
C792 C 0.13599 0.54816 0.0621 0.0
C793 C 0.15562 0.57949 0.07245 0.0
C794 C 0.18418 0.57304 0.12383 0.0
H795 H 0.2173 0.66687 0.16501 0.0
H796 H 0.20682 0.64482 0.13498 0.0
H797 H 0.19373 0.58011 0.15604 0.0
H798 H 0.14959 0.5202 0.07633 0.0
H799 H 0.17878 0.53755 0.09723 0.0
H800 H 0.19733 0.6015 0.0796 0.0
C801 C 0.21421 0.63777 0.14914 0.0
C802 C 0.19532 0.58469 0.13938 0.0
C803 C 0.22003 0.65043 0.16643 0.0
C804 C 0.15123 0.53672 0.07481 0.0
C805 C 0.16789 0.54666 0.08687 0.0
C806 C 0.19674 0.59658 0.09622 0.0
C807 C 0.21649 0.61625 0.1507 0.0
C808 C 0.20707 0.60264 0.13366 0.0
C809 C 0.16974 0.56822 0.0864 0.0
C810 C 0.18433 0.57908 0.10215 0.0
H811 H 0.23666 0.61327 0.20179 0.0
H812 H 0.22796 0.59137 0.17135 0.0
H813 H 0.21726 0.62173 0.10677 0.0
H814 H 0.12761 0.57884 0.05064 0.0
H815 H 0.15654 0.59612 0.07177 0.0
C816 C 0.53033 0.82361 0.79793 0.0
C817 C 0.50975 0.81545 0.7905 0.0
C818 C 0.53048 0.84119 0.81088 0.0
C819 C 0.49581 0.87118 0.84834 0.0
H820 H 0.53797 0.91507 0.83565 0.0
C821 C 0.49783 0.94424 0.90035 0.0
C822 C 0.51946 0.9513 0.90618 0.0
C823 C 0.49532 0.92972 0.88394 0.0
C824 C 0.52622 0.9029 0.83953 0.0
H825 H 0.47317 0.81914 0.79116 0.0
H826 H 0.4735 0.84968 0.81406 0.0
H827 H 0.53651 0.8849 0.81233 0.0
H828 H 0.5553 0.94938 0.89859 0.0
H829 H 0.55101 0.9238 0.87044 0.0
H830 H 0.48601 0.88868 0.87592 0.0
C831 C 0.48948 0.84249 0.80977 0.0
C832 C 0.52538 0.88564 0.82615 0.0
C833 C 0.48932 0.82503 0.79662 0.0
C834 C 0.53838 0.94433 0.89448 0.0
C835 C 0.53589 0.92967 0.87824 0.0
C836 C 0.49679 0.88833 0.86185 0.0
C837 C 0.51007 0.85085 0.81685 0.0
C838 C 0.51032 0.86952 0.83054 0.0
C839 C 0.5144 0.92178 0.87313 0.0
C840 C 0.51216 0.90434 0.85774 0.0
H841 H 0.54637 0.81663 0.79348 0.0
H842 H 0.54659 0.84716 0.81634 0.0
H843 H 0.48418 0.8589 0.85222 0.0
H844 H 0.48287 0.94943 0.9089 0.0
H845 H 0.47846 0.92437 0.8801 0.0
C846 C 0.21523 0.53376 0.78345 0.0
C847 C 0.22444 0.5536 0.78527 0.0
C848 C 0.1944 0.52914 0.79293 0.0
C849 C 0.1424 0.5524 0.81606 0.0
H850 H 0.14201 0.50359 0.85184 0.0
C851 C 0.08198 0.54214 0.8876 0.0
C852 C 0.07594 0.52222 0.89422 0.0
C853 C 0.09626 0.54498 0.86998 0.0
C854 C 0.14151 0.51702 0.84155 0.0
H855 H 0.21854 0.58432 0.79784 0.0
H856 H 0.18224 0.57622 0.8144 0.0
H857 H 0.17457 0.51048 0.82913 0.0
H858 H 0.07848 0.48979 0.8862 0.0
H859 H 0.10296 0.49481 0.85511 0.0
H860 H 0.10949 0.55916 0.82881 0.0
C861 C 0.19108 0.56427 0.80554 0.0
C862 C 0.16027 0.521 0.82857 0.0
C863 C 0.21198 0.56887 0.79619 0.0
C864 C 0.083 0.50533 0.88171 0.0
C865 C 0.0972 0.5082 0.86398 0.0
C866 C 0.12353 0.54835 0.82895 0.0
C867 C 0.18223 0.54427 0.8043 0.0
C868 C 0.16116 0.53897 0.81606 0.0
C869 C 0.10472 0.528 0.85841 0.0
C870 C 0.12308 0.53086 0.84227 0.0
H871 H 0.22432 0.52165 0.77509 0.0
H872 H 0.18791 0.51364 0.79154 0.0
H873 H 0.14246 0.56623 0.80634 0.0
H874 H 0.07676 0.55554 0.89675 0.0
H875 H 0.10175 0.56046 0.86631 0.0
C876 C 0.45586 0.17955 0.81458 0.0
C877 C 0.44915 0.19985 0.81925 0.0
C878 C 0.45878 0.16518 0.831 0.0
C879 C 0.47007 0.1617 0.88926 0.0
H880 H 0.46019 0.10364 0.87848 0.0
C881 C 0.49733 0.09846 0.94965 0.0
C882 C 0.51232 0.08431 0.94014 0.0
C883 C 0.48426 0.11164 0.93677 0.0
C884 C 0.46285 0.11982 0.88178 0.0
H885 H 0.43961 0.2208 0.8449 0.0
H886 H 0.44428 0.19551 0.87364 0.0
H887 H 0.44677 0.12906 0.8525 0.0
H888 H 0.52516 0.07224 0.91008 0.0
H889 H 0.50195 0.09483 0.88753 0.0
H890 H 0.48641 0.15228 0.91846 0.0
C891 C 0.4477 0.19083 0.85725 0.0
C892 C 0.45533 0.1344 0.86685 0.0
C893 C 0.44493 0.20531 0.84076 0.0
C894 C 0.51348 0.08292 0.91769 0.0
C895 C 0.50016 0.09578 0.90484 0.0
C896 C 0.47732 0.14712 0.90433 0.0
C897 C 0.45487 0.17062 0.85258 0.0
C898 C 0.45957 0.15548 0.87002 0.0
C899 C 0.48582 0.11059 0.91424 0.0
C900 C 0.47442 0.12602 0.90038 0.0
H901 H 0.45938 0.1748 0.79821 0.0
H902 H 0.46481 0.14994 0.82676 0.0
H903 H 0.47383 0.17775 0.8922 0.0
H904 H 0.49672 0.10017 0.96694 0.0
H905 H 0.47341 0.12301 0.94438 0.0
C906 C 0.79487 0.58172 0.8353 0.0
C907 C 0.7927 0.56826 0.81777 0.0
C908 C 0.80622 0.57543 0.85397 0.0
C909 C 0.84847 0.53646 0.87198 0.0
H910 H 0.83352 0.55724 0.92873 0.0
C911 C 0.89805 0.50976 0.94569 0.0
C912 C 0.9087 0.52598 0.95665 0.0
C913 C 0.88023 0.51373 0.93149 0.0
C914 C 0.83777 0.55129 0.91295 0.0
H915 H 0.80168 0.53801 0.80569 0.0
H916 H 0.81973 0.52646 0.83856 0.0
H917 H 0.80924 0.56605 0.89809 0.0
H918 H 0.90756 0.55886 0.96279 0.0
H919 H 0.87616 0.5657 0.93808 0.0
H920 H 0.87681 0.52157 0.88686 0.0
C921 C 0.81303 0.542 0.83799 0.0
C922 C 0.824 0.55643 0.89537 0.0
C923 C 0.80211 0.54843 0.81924 0.0
C924 C 0.89985 0.54604 0.95446 0.0
C925 C 0.88182 0.54996 0.9404 0.0
C926 C 0.86192 0.53107 0.88954 0.0
C927 C 0.81563 0.55551 0.85549 0.0
C928 C 0.82932 0.54924 0.87458 0.0
C929 C 0.87248 0.53394 0.92816 0.0
C930 C 0.85685 0.53856 0.91015 0.0
H931 H 0.78808 0.59723 0.83447 0.0
H932 H 0.80823 0.58644 0.86688 0.0
H933 H 0.85359 0.53105 0.85624 0.0
H934 H 0.9043 0.49411 0.94706 0.0
H935 H 0.87312 0.50109 0.92239 0.0
C936 C 0.70768 0.71768 0.03067 0.0
C937 C 0.71705 0.7241 0.01103 0.0
C938 C 0.68857 0.70508 0.03098 0.0
C939 C 0.65866 0.66775 0.997 0.0
H940 H 0.61118 0.67285 0.03981 0.0
C941 C 0.58265 0.61367 0.99593 0.0
C942 C 0.57714 0.60452 0.0157 0.0
C943 C 0.59703 0.6306 0.99517 0.0
C944 C 0.62437 0.67121 0.02782 0.0
H945 H 0.71318 0.723 0.97635 0.0
H946 H 0.67974 0.70128 0.97692 0.0
H947 H 0.64167 0.69817 0.03876 0.0
H948 H 0.58134 0.60679 0.0503 0.0
H949 H 0.60674 0.63622 0.04891 0.0
H950 H 0.64172 0.6407 0.98625 0.0
C951 C 0.68741 0.70563 0.99207 0.0
C952 C 0.64183 0.68567 0.02723 0.0
C953 C 0.70653 0.71815 0.99175 0.0
C954 C 0.58534 0.6134 0.03479 0.0
C955 C 0.5998 0.63034 0.03401 0.0
C956 C 0.64125 0.65337 0.99757 0.0
C957 C 0.67841 0.6987 0.01167 0.0
C958 C 0.65923 0.68402 0.01187 0.0
C959 C 0.60629 0.63875 0.01414 0.0
C960 C 0.62397 0.65485 0.01303 0.0
H961 H 0.71537 0.72201 0.04581 0.0
H962 H 0.6822 0.69983 0.04634 0.0
H963 H 0.67203 0.66577 0.98525 0.0
H964 H 0.5764 0.60741 0.98093 0.0
H965 H 0.60133 0.63703 0.97964 0.0
C966 C 0.30338 0.72209 0.03848 0.0
C967 C 0.29393 0.72968 0.01927 0.0
C968 C 0.3162 0.70391 0.0385 0.0
C969 C 0.34858 0.66908 0.00286 0.0
H970 H 0.33926 0.62911 0.04826 0.0
C971 C 0.39321 0.59095 0.9995 0.0
C972 C 0.40461 0.58504 0.01839 0.0
C973 C 0.37698 0.60667 -5e-05 0.0
C974 C 0.34212 0.64016 0.03554 0.0
H975 H 0.29096 0.72429 0.98494 0.0
H976 H 0.31323 0.69265 0.98501 0.0
H977 H 0.31767 0.66133 0.04841 0.0
H978 H 0.40641 0.5898 0.0529 0.0
H979 H 0.37825 0.61736 0.05361 0.0
H980 H 0.37315 0.64815 0.99009 0.0
C981 C 0.31088 0.70081 4e-05 0.0
C982 C 0.32983 0.65865 0.03566 0.0
C983 C 0.29805 0.71894 2e-05 0.0
C984 C 0.39802 0.59401 0.03802 0.0
C985 C 0.38183 0.60982 0.03845 0.0
C986 C 0.36083 0.65065 0.00274 0.0
C987 C 0.3199 0.69296 0.01931 0.0
C988 C 0.33296 0.67333 0.01933 0.0
C989 C 0.37183 0.61689 0.01927 0.0
C990 C 0.35778 0.63596 0.01906 0.0
H991 H 0.30053 0.72997 0.0536 0.0
H992 H 0.32321 0.69843 0.05356 0.0
H993 H 0.35167 0.68019 0.99024 0.0
H994 H 0.39764 0.58419 0.98413 0.0
H995 H 0.36912 0.61138 0.98498 0.0
C996 C 0.31128 0.3158 0.0543 0.0
C997 C 0.30287 0.30593 0.03585 0.0
C998 C 0.33017 0.32862 0.05295 0.0
C999 C 0.36189 0.35972 0.01389 0.0
H1000 H 0.40858 0.3601 0.05783 0.0
C1001 C 0.44051 0.41002 0.0046 0.0
C1002 C 0.44636 0.42194 0.02261 0.0
C1003 C 0.42522 0.39384 0.00655 0.0
C1004 C 0.3956 0.36023 0.0455 0.0
H1005 H 0.30803 0.30146 0.00159 0.0
H1006 H 0.34098 0.32362 0.99932 0.0
H1007 H 0.37705 0.33601 0.06069 0.0
H1008 H 0.44185 0.42532 0.05708 0.0
H1009 H 0.41491 0.39724 0.06039 0.0
H1010 H 0.38012 0.38404 0.99882 0.0
C1011 C 0.33279 0.32172 0.01477 0.0
C1012 C 0.37754 0.34648 0.04716 0.0
C1013 C 0.31393 0.30895 0.0161 0.0
C1014 C 0.43758 0.41655 0.04284 0.0
C1015 C 0.42222 0.40036 0.04478 0.0
C1016 C 0.37989 0.37342 0.01223 0.0
C1017 C 0.34103 0.33183 0.03312 0.0
C1018 C 0.36047 0.34612 0.03138 0.0
C1019 C 0.4154 0.38922 0.02654 0.0
C1020 C 0.39694 0.37388 0.02802 0.0
H1021 H 0.30316 0.31378 0.06976 0.0
H1022 H 0.33598 0.33636 0.06734 0.0
H1023 H 0.3488 0.36011 0.00168 0.0
H1024 H 0.44717 0.41358 0.98881 0.0
H1025 H 0.42067 0.38524 0.99228 0.0
C1026 C 0.75229 0.3298 0.013 0.0
C1027 C 0.76242 0.32676 0.99276 0.0
C1028 C 0.73588 0.3452 0.01592 0.0
C1029 C 0.69388 0.3755 0.98598 0.0
H1030 H 0.69577 0.41329 0.03425 0.0
C1031 C 0.63339 0.44401 0.98862 0.0
C1032 C 0.62261 0.44855 0.00822 0.0
C1033 C 0.652 0.43074 0.98792 0.0
C1034 C 0.69487 0.40273 0.02081 0.0
H1035 H 0.76323 0.33754 0.95976 0.0
H1036 H 0.7345 0.36417 0.96483 0.0
H1037 H 0.72468 0.38625 0.03093 0.0
H1038 H 0.62369 0.4434 0.04265 0.0
H1039 H 0.65591 0.41954 0.04134 0.0
H1040 H 0.664 0.39144 0.97596 0.0
C1041 C 0.73922 0.35463 0.97842 0.0
C1042 C 0.71143 0.38726 0.01891 0.0
C1043 C 0.75574 0.33941 0.97554 0.0
C1044 C 0.63163 0.44025 0.02729 0.0
C1045 C 0.65014 0.4266 0.02653 0.0
C1046 C 0.67731 0.39077 0.98794 0.0
C1047 C 0.7291 0.3577 0.99862 0.0
C1048 C 0.71121 0.37365 0.00133 0.0
C1049 C 0.66008 0.42121 0.00672 0.0
C1050 C 0.67772 0.40478 0.00521 0.0
H1051 H 0.75713 0.32037 0.02663 0.0
H1052 H 0.72823 0.34712 0.03163 0.0
H1053 H 0.693 0.36498 0.97249 0.0
H1054 H 0.627 0.45017 0.97361 0.0
H1055 H 0.65965 0.42749 0.97245 0.0
C1056 C 0.98731 0.71184 0.6665 0.0
C1057 C 0.98251 0.7039 0.68702 0.0
C1058 C 0.98724 0.69899 0.64847 0.0
C1059 C 0.97072 0.64708 0.62883 0.0
H1060 H 0.02545 0.6515 0.59475 0.0
C1061 C 0.01016 0.57909 0.58294 0.0
C1062 C 0.02185 0.58274 0.56376 0.0
C1063 C 0.00063 0.59538 0.59451 0.0
C1064 C 0.0098 0.65027 0.60372 0.0
H1065 H 0.97252 0.67648 0.70444 0.0
H1066 H 0.97265 0.65411 0.6731 0.0
H1067 H 0.0168 0.67768 0.62142 0.0
H1068 H 0.03255 0.60612 0.54124 0.0
H1069 H 0.01571 0.63478 0.56134 0.0
H1070 H 0.9642 0.61919 0.61158 0.0
C1071 C 0.97631 0.67028 0.67088 0.0
C1072 C 0.00483 0.66532 0.61906 0.0
C1073 C 0.97641 0.6831 0.6889 0.0
C1074 C 0.0235 0.60295 0.55601 0.0
C1075 C 0.01392 0.6193 0.56754 0.0
C1076 C 0.97567 0.63202 0.61345 0.0
C1077 C 0.98231 0.67795 0.65055 0.0
C1078 C 0.98556 0.66362 0.63218 0.0
C1079 C 0.00279 0.61574 0.58717 0.0
C1080 C 0.99559 0.63316 0.60111 0.0
H1081 H 0.9919 0.72782 0.66444 0.0
H1082 H 0.99161 0.70542 0.63297 0.0
H1083 H 0.95555 0.64551 0.63848 0.0
H1084 H 0.00968 0.56382 0.58972 0.0
H1085 H 0.9927 0.59211 0.60982 0.0
C1086 C 0.33651 0.98509 0.73231 0.0
C1087 C 0.32902 0.96485 0.73555 0.0
C1088 C 0.35306 0.98931 0.71687 0.0
C1089 C 0.37934 0.96719 0.66801 0.0
H1090 H 0.42675 0.00695 0.67896 0.0
C1091 C 0.45525 0.97474 0.61146 0.0
C1092 C 0.46098 0.99475 0.60491 0.0
C1093 C 0.44029 0.97167 0.62849 0.0
C1094 C 0.4135 0.99593 0.67564 0.0
H1095 H 0.3336 0.93307 0.72592 0.0
H1096 H 0.36267 0.94032 0.6992 0.0
H1097 H 0.39805 0.00048 0.70645 0.0
H1098 H 0.45631 0.02723 0.61191 0.0
H1099 H 0.43011 0.02178 0.64178 0.0
H1100 H 0.39482 0.96251 0.63733 0.0
C1101 C 0.35537 0.95304 0.70813 0.0
C1102 C 0.39703 0.99225 0.69134 0.0
C1103 C 0.33884 0.94885 0.72353 0.0
C1104 C 0.45222 0.01161 0.6165 0.0
C1105 C 0.43726 0.00851 0.63364 0.0
C1106 C 0.39582 0.97079 0.65242 0.0
C1107 C 0.36257 0.97334 0.70448 0.0
C1108 C 0.37984 0.97773 0.68774 0.0
C1109 C 0.43072 0.9885 0.63944 0.0
C1110 C 0.41317 0.98507 0.6561 0.0
H1111 H 0.32986 0.99763 0.74192 0.0
H1112 H 0.35818 0.00511 0.71447 0.0
H1113 H 0.36606 0.95626 0.6645 0.0
H1114 H 0.4618 0.96137 0.60305 0.0
H1115 H 0.43592 0.95606 0.63287 0.0
C1116 C 0.02767 0.34128 0.69911 0.0
C1117 C 0.01544 0.3232 0.69502 0.0
C1118 C 0.02967 0.35641 0.68333 0.0
C1119 C 0.02782 0.3651 0.62526 0.0
H1120 H 0.01898 0.42216 0.64178 0.0
C1121 C 0.05771 0.43428 0.57429 0.0
C1122 C 0.0434 0.45163 0.57325 0.0
C1123 C 0.0523 0.41768 0.58756 0.0
C1124 C 0.02127 0.4063 0.63685 0.0
H1125 H 0.99599 0.30671 0.671 0.0
H1126 H -0.00029 0.33319 0.64329 0.0
H1127 H 0.01337 0.39502 0.66826 0.0
H1128 H 0.01172 0.46479 0.58469 0.0
H1129 H 0.00237 0.43583 0.60789 0.0
H1130 H 0.036 0.37648 0.59387 0.0
C1131 C 0.00769 0.33558 0.65878 0.0
C1132 C 0.01829 0.39078 0.65206 0.0
C1133 C 0.00549 0.32048 0.67467 0.0
C1134 C 0.0232 0.45173 0.58523 0.0
C1135 C 0.01787 0.43518 0.59858 0.0
C1136 C 0.03102 0.38067 0.61006 0.0
C1137 C 0.01966 0.35376 0.66304 0.0
C1138 C 0.02173 0.37004 0.64649 0.0
C1139 C 0.03253 0.41813 0.60013 0.0
C1140 C 0.02792 0.40144 0.61575 0.0
H1141 H 0.03557 0.34388 0.71459 0.0
H1142 H 0.03925 0.37015 0.68696 0.0
H1143 H 0.03069 0.34925 0.62056 0.0
H1144 H 0.07336 0.43369 0.5652 0.0
H1145 H 0.06401 0.40481 0.58855 0.0
C1146 C 0.73912 0.09714 0.71457 0.0
C1147 C 0.73736 0.11866 0.71596 0.0
C1148 C 0.73104 0.08671 0.69647 0.0
C1149 C 0.71085 0.09436 0.6401 0.0
H1150 H 0.6771 0.04457 0.65154 0.0
C1151 C 0.64291 0.06071 0.58315 0.0
C1152 C 0.64037 0.0392 0.58232 0.0
C1153 C 0.65894 0.0696 0.59682 0.0
C1154 C 0.68682 0.05823 0.64795 0.0
H1155 H 0.7257 0.14612 0.69943 0.0
H1156 H 0.71108 0.12795 0.66815 0.0
H1157 H 0.69694 0.06155 0.68073 0.0
H1158 H 0.65404 0.01018 0.59396 0.0
H1159 H 0.68203 0.02571 0.61764 0.0
H1160 H 0.69987 0.09132 0.60737 0.0
C1161 C 0.71926 0.1191 0.68074 0.0
C1162 C 0.69824 0.06799 0.66473 0.0
C1163 C 0.72746 0.12953 0.69879 0.0
C1164 C 0.65534 0.02679 0.59432 0.0
C1165 C 0.67132 0.03568 0.60801 0.0
C1166 C 0.69929 0.08463 0.62331 0.0
C1167 C 0.72072 0.09753 0.67945 0.0
C1168 C 0.71017 0.08633 0.66111 0.0
C1169 C 0.67276 0.05718 0.60997 0.0
C1170 C 0.68692 0.06658 0.62711 0.0
H1171 H 0.74585 0.08821 0.72777 0.0
H1172 H 0.73258 0.0701 0.69599 0.0
H1173 H 0.72016 0.10827 0.63665 0.0
H1174 H 0.63175 0.07076 0.57406 0.0
H1175 H 0.65956 0.08622 0.59798 0.0
C1176 C 0.06105 0.31509 0.35426 0.0
C1177 C 0.04941 0.31564 0.33452 0.0
C1178 C 0.05643 0.32972 0.37021 0.0
C1179 C 0.01366 0.3682 0.38756 0.0
H1180 H 0.06465 0.39499 0.41496 0.0
C1181 C 0.03272 0.44923 0.43287 0.0
C1182 C 0.01396 0.45044 0.44673 0.0
C1183 C 0.03775 0.43097 0.42196 0.0
C1184 C 0.05024 0.38764 0.40745 0.0
H1185 H 0.0234 0.33175 0.3163 0.0
H1186 H 0.01546 0.35721 0.344 0.0
H1187 H 0.07136 0.36632 0.39033 0.0
H1188 H 0.98621 0.43316 0.46059 0.0
H1189 H 0.99499 0.40129 0.4415 0.0
H1190 H 0.99258 0.38995 0.40403 0.0
C1191 C 0.02803 0.34538 0.34725 0.0
C1192 C 0.05406 0.37108 0.39352 0.0
C1193 C 0.0327 0.33084 0.3313 0.0
C1194 C 0.00072 0.43279 0.44992 0.0
C1195 C 0.00568 0.41455 0.43893 0.0
C1196 C 0.00983 0.38469 0.40152 0.0
C1197 C 0.03998 0.34513 0.3668 0.0
C1198 C 0.03583 0.36142 0.38312 0.0
C1199 C 0.02404 0.41353 0.42458 0.0
C1200 C 0.0281 0.39482 0.41135 0.0
H1201 H 0.07399 0.30356 0.3573 0.0
H1202 H 0.06576 0.329 0.38519 0.0
H1203 H 0.99924 0.36092 0.37999 0.0
H1204 H 0.04327 0.46254 0.43002 0.0
H1205 H 0.05188 0.43076 0.41086 0.0
C1206 C 0.7098 0.06794 0.28795 0.0
C1207 C 0.71418 0.08902 0.28553 0.0
C1208 C 0.69402 0.06118 0.30311 0.0
C1209 C 0.6641 0.07784 0.35241 0.0
H1210 H 0.62305 0.03342 0.33836 0.0
C1211 C 0.59098 0.05575 0.40875 0.0
C1212 C 0.5884 0.03462 0.41287 0.0
C1213 C 0.60504 0.06244 0.39213 0.0
C1214 C 0.63451 0.04575 0.34256 0.0
H1215 H 0.70457 0.11962 0.29606 0.0
H1216 H 0.67717 0.10791 0.3226 0.0
H1217 H 0.65071 0.04479 0.31178 0.0
H1218 H 0.59785 0.00395 0.40211 0.0
H1219 H 0.62242 0.01567 0.37322 0.0
H1220 H 0.64796 0.07879 0.38317 0.0
C1221 C 0.68638 0.09652 0.3133 0.0
C1222 C 0.65039 0.05222 0.32737 0.0
C1223 C 0.70217 0.10324 0.29819 0.0
C1224 C 0.59946 0.02034 0.39942 0.0
C1225 C 0.6135 0.02705 0.38279 0.0
C1226 C 0.64821 0.0714 0.36755 0.0
C1227 C 0.68216 0.07541 0.31599 0.0
C1228 C 0.66536 0.06836 0.33212 0.0
C1229 C 0.61679 0.04818 0.37924 0.0
C1230 C 0.63322 0.05529 0.36281 0.0
H1231 H 0.71874 0.05666 0.27826 0.0
H1232 H 0.69132 0.04481 0.30491 0.0
H1233 H 0.67565 0.09005 0.35673 0.0
H1234 H 0.58258 0.06718 0.41867 0.0
H1235 H 0.60691 0.07883 0.38954 0.0
C1236 C 0.02751 0.71432 0.3392 0.0
C1237 C 0.04034 0.71217 0.32031 0.0
C1238 C 0.03086 0.70094 0.35647 0.0
C1239 C 0.05245 0.64864 0.36782 0.0
H1240 H 0.03835 0.66447 0.42646 0.0
C1241 C 0.04641 0.58947 0.4369 0.0
C1242 C 0.02516 0.58991 0.44703 0.0
C1243 C 0.05322 0.60562 0.42359 0.0
C1244 C 0.04248 0.65989 0.41017 0.0
H1245 H 0.06771 0.69504 0.30523 0.0
H1246 H 0.07402 0.67203 0.33565 0.0
H1247 H 0.04234 0.69096 0.39895 0.0
H1248 H 0.99508 0.60869 0.45241 0.0
H1249 H 0.00716 0.63698 0.42967 0.0
H1250 H 0.05238 0.61751 0.37915 0.0
C1251 C 0.06091 0.68371 0.33689 0.0
C1252 C 0.04464 0.67501 0.39437 0.0
C1253 C 0.05738 0.69697 0.31949 0.0
C1254 C 0.01149 0.6076 0.44469 0.0
C1255 C 0.01844 0.62391 0.43175 0.0
C1256 C 0.05062 0.63354 0.3837 0.0
C1257 C 0.04731 0.68521 0.35541 0.0
C1258 C 0.04884 0.66954 0.37283 0.0
C1259 C 0.03912 0.62285 0.42066 0.0
C1260 C 0.04489 0.639 0.40485 0.0
H1261 H 0.0142 0.72582 0.34036 0.0
H1262 H 0.01977 0.70242 0.37025 0.0
H1263 H 0.05545 0.64375 0.35142 0.0
H1264 H 0.05765 0.57658 0.43883 0.0
H1265 H 0.06937 0.60453 0.41538 0.0
C1266 C 0.29911 0.03665 0.31329 0.0
C1267 C 0.29996 0.05773 0.30841 0.0
C1268 C 0.30555 0.02955 0.33365 0.0
C1269 C 0.32098 0.04662 0.38918 0.0
H1270 H 0.36328 0.00085 0.38606 0.0
C1271 C 0.39529 0.03461 0.44777 0.0
C1272 C 0.40318 0.01453 0.4519 0.0
C1273 C 0.37683 0.03793 0.43408 0.0
C1274 C 0.35113 0.01334 0.38743 0.0
H1275 H 0.30739 0.08796 0.32125 0.0
H1276 H 0.31902 0.07562 0.35649 0.0
H1277 H 0.34123 0.01015 0.35458 0.0
H1278 H 0.39646 0.98213 0.44647 0.0
H1279 H 0.36415 0.98797 0.42277 0.0
H1280 H 0.33185 0.05033 0.42185 0.0
C1281 C 0.31297 0.06454 0.34485 0.0
C1282 C 0.33842 0.01869 0.36931 0.0
C1283 C 0.30649 0.07162 0.32455 0.0
C1284 C 0.39103 0.99781 0.44345 0.0
C1285 C 0.37256 0.00115 0.42977 0.0
C1286 C 0.33377 0.04129 0.40733 0.0
C1287 C 0.31316 0.04336 0.34948 0.0
C1288 C 0.32366 0.03575 0.36976 0.0
C1289 C 0.36582 0.02125 0.42426 0.0
C1290 C 0.34945 0.02492 0.40646 0.0
H1291 H 0.29479 0.02548 0.3011 0.0
H1292 H 0.30533 0.01315 0.33673 0.0
H1293 H 0.30947 0.05963 0.39019 0.0
H1294 H 0.40411 0.04785 0.45413 0.0
H1295 H 0.37217 0.05362 0.43013 0.0
C1296 C 0.05024 0.19131 0.32583 0.0
C1297 C 0.06991 0.20291 0.3293 0.0
C1298 C 0.04522 0.17456 0.33903 0.0
C1299 C 0.06917 0.13925 0.38068 0.0
H1300 H 0.00612 0.13505 0.39739 0.0
C1301 C 0.03349 0.07271 0.43345 0.0
C1302 C 0.01592 0.07777 0.44774 0.0
C1303 C 0.0419 0.08743 0.41909 0.0
C1304 C 0.02385 0.13609 0.39309 0.0
H1305 H 0.10014 0.2056 0.34894 0.0
H1306 H 0.09111 0.17669 0.37231 0.0
H1307 H 0.0173 0.16109 0.37173 0.0
H1308 H 0.99443 0.10265 0.45921 0.0
H1309 H 0.0094 0.12832 0.43482 0.0
H1310 H 0.0757 0.11458 0.40278 0.0
C1311 C 0.07973 0.18029 0.35916 0.0
C1312 C 0.03023 0.15085 0.37804 0.0
C1313 C 0.08485 0.19696 0.34582 0.0
C1314 C 0.00775 0.09812 0.44816 0.0
C1315 C 0.01624 0.11284 0.43405 0.0
C1316 C 0.06278 0.12447 0.39588 0.0
C1317 C 0.05962 0.16912 0.3562 0.0
C1318 C 0.05297 0.15271 0.37165 0.0
C1319 C 0.03295 0.10756 0.41889 0.0
C1320 C 0.04004 0.12285 0.40241 0.0
H1321 H 0.03848 0.19537 0.31311 0.0
H1322 H 0.02984 0.16604 0.33595 0.0
H1323 H 0.08681 0.14011 0.37599 0.0
H1324 H 0.04006 0.05723 0.43266 0.0
H1325 H 0.05472 0.08279 0.40759 0.0
C1326 C 0.75802 0.08551 0.37956 0.0
C1327 C 0.75776 0.10538 0.3707 0.0
C1328 C 0.77055 0.08131 0.39811 0.0
C1329 C 0.82124 0.10082 0.42527 0.0
H1330 H 0.80968 0.05494 0.46348 0.0
C1331 C 0.89251 0.06779 0.47724 0.0
C1332 C 0.89567 0.04652 0.47414 0.0
C1333 C 0.87216 0.07733 0.4713 0.0
C1334 C 0.81308 0.06789 0.45303 0.0
H1335 H 0.76862 0.13687 0.37547 0.0
H1336 H 0.79003 0.12967 0.4082 0.0
H1337 H 0.77913 0.06837 0.44086 0.0
H1338 H 0.87923 0.01838 0.46392 0.0
H1339 H 0.84395 0.03505 0.45328 0.0
H1340 H 0.8553 0.09994 0.43685 0.0
C1341 C 0.78114 0.11717 0.40044 0.0
C1342 C 0.79562 0.07555 0.44002 0.0
C1343 C 0.76878 0.12133 0.38174 0.0
C1344 C 0.87746 0.03481 0.46638 0.0
C1345 C 0.85713 0.04435 0.46044 0.0
C1346 C 0.8386 0.09328 0.43838 0.0
C1347 C 0.78293 0.09694 0.40837 0.0
C1348 C 0.79974 0.09159 0.42536 0.0
C1349 C 0.85456 0.06581 0.46215 0.0
C1350 C 0.83494 0.07624 0.45179 0.0
H1351 H 0.74962 0.07288 0.37152 0.0
H1352 H 0.77165 0.06551 0.40356 0.0
H1353 H 0.82522 0.11299 0.41404 0.0
H1354 H 0.90608 0.07725 0.48335 0.0
H1355 H 0.8705 0.09384 0.4731 0.0
C1356 C 0.9762 0.82353 0.31979 0.0
C1357 C 0.99695 0.82037 0.30917 0.0
C1358 C 0.97307 0.84053 0.33327 0.0
C1359 C 0.99523 0.89208 0.34617 0.0
H1360 H 0.96733 0.88251 0.40167 0.0
C1361 C 0.99437 0.95383 0.41301 0.0
C1362 C 0.9746 0.95582 0.42544 0.0
C1363 C 0.99695 0.93747 0.3986 0.0
C1364 C 0.97488 0.88553 0.38614 0.0
H1365 H 0.03049 0.83291 0.30393 0.0
H1366 H 0.02497 0.86261 0.32743 0.0
H1367 H 0.97166 0.85409 0.37642 0.0
H1368 H 0.94203 0.94211 0.43253 0.0
H1369 H 0.94634 0.91378 0.40715 0.0
H1370 H 0.99836 0.92355 0.35582 0.0
C1371 C 0.0111 0.85196 0.32527 0.0
C1372 C 0.97737 0.86922 0.37166 0.0
C1373 C 0.01429 0.8349 0.31187 0.0
C1374 C 0.95748 0.94103 0.4232 0.0
C1375 C 0.96003 0.9247 0.40874 0.0
C1376 C 0.99264 0.90843 0.36061 0.0
C1377 C 0.99056 0.85482 0.33635 0.0
C1378 C 0.9876 0.8723 0.35152 0.0
C1379 C 0.97979 0.92272 0.39624 0.0
C1380 C 0.98247 0.90535 0.3808 0.0
H1381 H 0.96249 0.81265 0.31804 0.0
H1382 H 0.95693 0.84245 0.34134 0.0
H1383 H 0.00294 0.89499 0.33068 0.0
H1384 H 0.00791 0.96493 0.41434 0.0
H1385 H 0.01254 0.93628 0.38948 0.0
C1386 C 0.17179 0.03075 0.28696 0.0
C1387 C 0.19004 0.01686 0.28539 0.0
C1388 C 0.15105 0.02442 0.29531 0.0
C1389 C 0.12932 0.98524 0.33245 0.0
H1390 H 0.07293 0.01467 0.32232 0.0
C1391 C 0.05774 0.98052 0.39343 0.0
C1392 C 0.05314 1.00019 0.4019 0.0
C1393 C 0.06862 0.97842 0.3736 0.0
C1394 C 0.08847 0.00612 0.32513 0.0
H1395 H 0.20031 0.98503 0.28955 0.0
H1396 H 0.1638 0.97375 0.30346 0.0
H1397 H 0.10396 0.01774 0.29656 0.0
H1398 H 0.054 0.03293 0.39514 0.0
H1399 H 0.07285 0.02922 0.36056 0.0
H1400 H 0.11405 0.97409 0.36126 0.0
C1401 C 0.16573 0.98973 0.29896 0.0
C1402 C 0.10632 0.00797 0.31049 0.0
C1403 C 0.18664 0.99616 0.2909 0.0
C1404 C 0.05757 0.01758 0.3892 0.0
C1405 C 0.06821 0.01545 0.36928 0.0
C1406 C 0.11138 0.98316 0.34685 0.0
C1407 C 0.14791 0.00395 0.30201 0.0
C1408 C 0.12734 0.99832 0.31451 0.0
C1409 C 0.07477 0.99591 0.36177 0.0
C1410 C 0.09115 0.99426 0.34382 0.0
H1411 H 0.17385 0.04681 0.2828 0.0
H1412 H 0.13795 0.03595 0.29765 0.0
H1413 H 0.14523 0.97774 0.33633 0.0
H1414 H 0.05433 0.96678 0.40271 0.0
H1415 H 0.07333 0.96317 0.36805 0.0
C1416 C 0.00162 0.82994 0.69663 0.0
C1417 C 0.01821 0.81513 0.70177 0.0
C1418 C 0.00693 0.84673 0.68358 0.0
C1419 C 0.04721 0.86254 0.64179 0.0
H1420 H 0.02368 0.91727 0.65335 0.0
C1421 C 0.07259 0.93341 0.5912 0.0
C1422 C 0.0555 0.94791 0.58657 0.0
C1423 C 0.06851 0.91728 0.60552 0.0
C1424 C 0.03017 0.90203 0.64976 0.0
H1425 H 0.05357 0.80664 0.69771 0.0
H1426 H 0.06286 0.83601 0.67503 0.0
H1427 H 0.01598 0.88942 0.67852 0.0
H1428 H 0.02054 0.95653 0.59291 0.0
H1429 H 0.01336 0.92828 0.61759 0.0
H1430 H 0.06117 0.87504 0.6129 0.0
C1431 C 0.04567 0.8345 0.6809 0.0
C1432 C 0.0258 0.88609 0.66421 0.0
C1433 C 0.04038 0.81775 0.69402 0.0
C1434 C 0.03415 0.94572 0.59626 0.0
C1435 C 0.03006 0.92959 0.61053 0.0
C1436 C 0.05152 0.87846 0.62729 0.0
C1437 C 0.02894 0.84903 0.67532 0.0
C1438 C 0.0342 0.86615 0.66036 0.0
C1439 C 0.04725 0.91527 0.61548 0.0
C1440 C 0.04297 0.89838 0.63105 0.0
H1441 H 0.98437 0.82836 0.70231 0.0
H1442 H 0.99362 0.85757 0.67942 0.0
H1443 H 0.05363 0.84727 0.63819 0.0
H1444 H 0.08921 0.93464 0.58396 0.0
H1445 H 0.08218 0.90662 0.60911 0.0
C1446 C 0.26607 0.03447 0.66663 0.0
C1447 C 0.28273 0.01893 0.6675 0.0
C1448 C 0.25533 0.03924 0.6472 0.0
C1449 C 0.23727 0.01191 0.60019 0.0
H1450 H 0.21593 0.06507 0.58016 0.0
C1451 C 0.16401 0.01428 0.54122 0.0
C1452 C 0.14703 0.02873 0.54611 0.0
C1453 C 0.18579 0.01642 0.54972 0.0
C1454 C 0.22164 0.05008 0.58557 0.0
H1455 H 0.30256 0.99747 0.64834 0.0
H1456 H 0.28353 0.00561 0.61455 0.0
H1457 H 0.24512 0.06325 0.60803 0.0
H1458 H 0.13985 0.0576 0.56223 0.0
H1459 H 0.17723 0.06075 0.57813 0.0
H1460 H 0.21284 0.99852 0.57946 0.0
C1461 C 0.27875 0.01401 0.62892 0.0
C1462 C 0.23847 0.04909 0.60143 0.0
C1463 C 0.28962 0.00937 0.64828 0.0
C1464 C 0.15265 0.04621 0.55822 0.0
C1465 C 0.17424 0.04804 0.56726 0.0
C1466 C 0.22022 0.01287 0.58471 0.0
C1467 C 0.26095 0.02846 0.62834 0.0
C1468 C 0.24606 0.02996 0.60921 0.0
C1469 C 0.19081 0.03266 0.56394 0.0
C1470 C 0.21169 0.03196 0.57753 0.0
H1471 H 0.26053 0.04225 0.68113 0.0
H1472 H 0.24158 0.05036 0.64725 0.0
H1473 H 0.24252 0.99694 0.60612 0.0
H1474 H 0.16019 0.00084 0.5316 0.0
H1475 H 0.1983 0.00469 0.54603 0.0
C1476 C 0.98326 0.19795 0.69055 0.0
C1477 C 0.00214 0.20984 0.69636 0.0
C1478 C 0.98553 0.1818 0.67577 0.0
C1479 C 0.02016 0.16585 0.63028 0.0
H1480 H -0.00068 0.1104 0.64143 0.0
C1481 C 0.05036 0.09781 0.57921 0.0
C1482 C 0.03561 0.08139 0.57495 0.0
C1483 C 0.04411 0.11356 0.59326 0.0
C1484 C 0.00486 0.12588 0.63787 0.0
H1485 H 0.03825 0.21389 0.69153 0.0
H1486 H 0.04208 0.18597 0.66555 0.0
H1487 H 0.99235 0.13755 0.66795 0.0
H1488 H 0.00258 0.06894 0.58224 0.0
H1489 H 0.9913 0.09671 0.60637 0.0
H1490 H 0.03242 0.15453 0.60021 0.0
C1491 C 0.02556 0.18913 0.67244 0.0
C1492 C 0.00095 0.14137 0.65311 0.0
C1493 C 0.02338 0.20503 0.68741 0.0
C1494 C 0.01428 0.08131 0.58496 0.0
C1495 C 0.00791 0.09719 0.599 0.0
C1496 C 0.0238 0.1505 0.61497 0.0
C1497 C 0.00664 0.17751 0.66631 0.0
C1498 C 0.00903 0.16138 0.64963 0.0
C1499 C 0.02281 0.1135 0.60337 0.0
C1500 C 0.0167 0.13019 0.61876 0.0
H1501 H 0.96668 0.20128 0.6972 0.0
H1502 H 0.97069 0.17307 0.67127 0.0
H1503 H 0.02617 0.18126 0.62704 0.0
H1504 H 0.06699 0.09844 0.57189 0.0
H1505 H 0.05627 0.12557 0.59654 0.0
C1506 C 0.8483 0.04921 0.73073 0.0
C1507 C 0.84953 0.07045 0.7347 0.0
C1508 C 0.86718 0.03844 0.72293 0.0
C1509 C 0.92918 0.04376 0.71074 0.0
H1510 H 0.91426 0.00817 0.66281 0.0
C1511 C 0.98192 0.03513 0.63408 0.0
C1512 C 0.98218 0.01618 0.62317 0.0
C1513 C 0.97004 0.03734 0.65335 0.0
C1514 C 0.91881 0.01766 0.67646 0.0
H1515 H 0.87182 0.09687 0.73465 0.0
H1516 H 0.90431 0.07841 0.72036 0.0
H1517 H 0.88436 0.02028 0.68642 0.0
H1518 H 0.97186 0.98422 0.62492 0.0
H1519 H 0.95084 0.98821 0.65848 0.0
H1520 H 0.96352 0.04222 0.69955 0.0
C1521 C 0.88905 0.06982 0.72369 0.0
C1522 C 0.90163 0.02461 0.69008 0.0
C1523 C 0.87029 0.0805 0.73171 0.0
C1524 C 0.97187 0.99906 0.63284 0.0
C1525 C 0.95977 0.00134 0.65202 0.0
C1526 C 0.94635 0.03698 0.69692 0.0
C1527 C 0.8876 0.04875 0.71869 0.0
C1528 C 0.90645 0.03834 0.70695 0.0
C1529 C 0.95804 0.02068 0.662 0.0
C1530 C 0.94119 0.02439 0.67924 0.0
H1531 H 0.83261 0.04097 0.73316 0.0
H1532 H 0.86556 0.02214 0.71969 0.0
H1533 H 0.9336 0.0539 0.72388 0.0
H1534 H 0.98987 0.04857 0.62715 0.0
H1535 H 0.96891 0.05246 0.66061 0.0
C1536 C 0.33554 0.0353 0.19308 0.0
C1537 C 0.34466 0.05153 0.2052 0.0
C1538 C 0.34958 0.02307 0.18014 0.0
C1539 C 0.40978 0.00959 0.16944 0.0
H1540 H 0.39103 0.00829 0.10973 0.0
C1541 C 0.47073 0.01772 0.09969 0.0
C1542 C 0.46504 0.01019 0.07923 0.0
C1543 C 0.45666 0.01404 0.11725 0.0
C1544 C 0.39639 0.00788 0.12638 0.0
H1545 H 0.37573 0.0671 0.21402 0.0
H1546 H 0.40011 0.04591 0.19147 0.0
H1547 H 0.36403 0.01863 0.13719 0.0
H1548 H 0.44154 0.99092 0.06161 0.0
H1549 H 0.41697 0.98441 0.09241 0.0
H1550 H 0.4425 0.99981 0.15847 0.0
C1551 C 0.38218 0.04249 0.19202 0.0
C1552 C 0.38087 0.01388 0.14215 0.0
C1553 C 0.36815 0.0548 0.20477 0.0
C1554 C 0.44622 0.99718 0.07713 0.0
C1555 C 0.43208 0.99351 0.09474 0.0
C1556 C 0.42529 0.00347 0.15369 0.0
C1557 C 0.37302 0.02672 0.1793 0.0
C1558 C 0.38772 0.01574 0.16368 0.0
C1559 C 0.4366 0.00271 0.11475 0.0
C1560 C 0.41906 0.00353 0.13186 0.0
H1561 H 0.31749 0.03234 0.19317 0.0
H1562 H 0.34209 0.01098 0.17053 0.0
H1563 H 0.41538 0.01049 0.18601 0.0
H1564 H 0.48528 0.02759 0.10191 0.0
H1565 H 0.46066 0.02148 0.13236 0.0
C1566 C 0.07609 0.35014 0.21526 0.0
C1567 C 0.06769 0.32996 0.21482 0.0
C1568 C 0.07465 0.36268 0.19712 0.0
C1569 C 0.06812 0.36366 0.13856 0.0
H1570 H 0.04559 0.41889 0.14947 0.0
C1571 C 0.07884 0.43292 0.08053 0.0
C1572 C 0.06128 0.44763 0.0797 0.0
C1573 C 0.07742 0.41606 0.09445 0.0
C1574 C 0.05162 0.40346 0.14604 0.0
H1575 H 0.05206 0.30682 0.1946 0.0
H1576 H 0.04972 0.32888 0.16266 0.0
H1577 H 0.04809 0.39435 0.17887 0.0
H1578 H 0.02779 0.45539 0.09176 0.0
H1579 H 0.02529 0.426 0.11584 0.0
H1580 H 0.07194 0.37303 0.10565 0.0
C1581 C 0.05734 0.3349 0.17719 0.0
C1582 C 0.05331 0.38947 0.16296 0.0
C1583 C 0.05864 0.32232 0.19547 0.0
C1584 C 0.04171 0.44446 0.09209 0.0
C1585 C 0.04031 0.42766 0.10601 0.0
C1586 C 0.06661 0.37778 0.12157 0.0
C1587 C 0.06488 0.35537 0.17802 0.0
C1588 C 0.06187 0.36953 0.1595 0.0
C1589 C 0.05844 0.41363 0.10786 0.0
C1590 C 0.05852 0.3979 0.1252 0.0
H1591 H 0.08333 0.35651 0.2298 0.0
H1592 H 0.081 0.37827 0.19813 0.0
H1593 H 0.07479 0.34838 0.13545 0.0
H1594 H 0.09403 0.4348 0.07099 0.0
H1595 H 0.09169 0.40555 0.09553 0.0
C1596 C 0.70859 0.10485 0.15676 0.0
C1597 C 0.72225 0.08899 0.16519 0.0
C1598 C 0.69341 0.10087 0.14004 0.0
C1599 C 0.67827 0.0622 0.09851 0.0
H1600 H 0.61762 0.08448 0.10579 0.0
C1601 C 0.58212 0.04107 0.07099 0.0
C1602 C 0.58619 0.03559 0.04949 0.0
C1603 C 0.59889 0.05086 0.08305 0.0
C1604 C 0.63446 0.07811 0.10354 0.0
H1605 H 0.73135 0.05673 0.16212 0.0
H1606 H 0.7047 0.04972 0.13325 0.0
H1607 H 0.64766 0.09484 0.13033 0.0
H1608 H 0.6106 0.03706 0.02344 0.0
H1609 H 0.63958 0.05443 0.04432 0.0
H1610 H 0.66487 0.04463 0.07248 0.0
C1611 C 0.70587 0.0653 0.13932 0.0
C1612 C 0.65176 0.08425 0.11744 0.0
C1613 C 0.72109 0.06929 0.15597 0.0
C1614 C 0.60698 0.0409 0.04004 0.0
C1615 C 0.62366 0.05078 0.05203 0.0
C1616 C 0.66097 0.05599 0.08469 0.0
C1617 C 0.69153 0.08094 0.13144 0.0
C1618 C 0.67378 0.07608 0.11531 0.0
C1619 C 0.62004 0.05543 0.07383 0.0
C1620 C 0.63877 0.06361 0.08726 0.0
H1621 H 0.70918 0.12023 0.16345 0.0
H1622 H 0.68286 0.11332 0.13409 0.0
H1623 H 0.69511 0.05581 0.09625 0.0
H1624 H 0.56625 0.03725 0.07871 0.0
H1625 H 0.59559 0.05405 0.09985 0.0
C1626 C 0.99185 0.6744 0.20255 0.0
C1627 C 0.00153 0.69408 0.20145 0.0
C1628 C 0.98866 0.66273 0.18395 0.0
C1629 C 0.01242 0.65729 0.1296 0.0
H1630 H 0.9654 0.61621 0.12366 0.0
C1631 C 0.01712 0.59837 0.06169 0.0
C1632 C 0.01549 0.57791 0.06872 0.0
C1633 C 0.00959 0.61452 0.07473 0.0
C1634 C 0.97859 0.62766 0.12506 0.0
H1635 H 0.01412 0.71747 0.17976 0.0
H1636 H 0.00813 0.69725 0.14718 0.0
H1637 H 0.96292 0.64171 0.15249 0.0
H1638 H 0.00448 0.55829 0.09462 0.0
H1639 H 0.9909 0.58633 0.11735 0.0
H1640 H 0.02841 0.64298 0.10263 0.0
C1641 C 0.0035 0.69063 0.16252 0.0
C1642 C 0.97722 0.64223 0.14161 0.0
C1643 C 0.00683 0.70228 0.18118 0.0
C1644 C 0.00503 0.5738 0.08846 0.0
C1645 C 0.99749 0.58995 0.10156 0.0
C1646 C 0.0137 0.64283 0.11304 0.0
C1647 C 0.99492 0.67049 0.16372 0.0
C1648 C 0.99444 0.65691 0.14442 0.0
C1649 C 0.0005 0.61053 0.09518 0.0
C1650 C 0.9971 0.62755 0.11086 0.0
H1651 H 0.98752 0.66761 0.2179 0.0
H1652 H 0.98228 0.64722 0.1856 0.0
H1653 H 0.0262 0.66807 0.13142 0.0
H1654 H 0.02522 0.60193 0.04652 0.0
H1655 H 0.01186 0.63018 0.06923 0.0
C1656 C 0.33988 0.9291 0.85184 0.0
C1657 C 0.31915 0.93944 0.84893 0.0
C1658 C 0.35425 0.93446 0.86876 0.0
C1659 C 0.36552 0.97917 0.90393 0.0
H1660 H 0.4121 0.94293 0.92685 0.0
C1661 C 0.43511 0.00773 0.96131 0.0
C1662 C 0.45698 0.00453 0.95304 0.0
C1663 C 0.41664 0.99733 0.95257 0.0
C1664 C 0.39906 0.95314 0.92065 0.0
H1665 H 0.29625 0.9622 0.8624 0.0
H1666 H 0.32073 0.97084 0.89261 0.0
H1667 H 0.3812 0.92854 0.90548 0.0
H1668 H 0.4766 0.98897 0.92864 0.0
H1669 H 0.44443 0.96991 0.91385 0.0
H1670 H 0.38341 0.00369 0.91924 0.0
C1671 C 0.32645 0.95923 0.88133 0.0
C1672 C 0.38144 0.94498 0.90831 0.0
C1673 C 0.3123 0.95419 0.86411 0.0
C1674 C 0.46015 0.99073 0.93599 0.0
C1675 C 0.44172 0.98008 0.92742 0.0
C1676 C 0.38284 0.98722 0.91659 0.0
C1677 C 0.34801 0.95002 0.88341 0.0
C1678 C 0.36478 0.95798 0.89925 0.0
C1679 C 0.41979 0.98352 0.93548 0.0
C1680 C 0.40005 0.97436 0.92457 0.0
H1681 H 0.34563 0.91771 0.84032 0.0
H1682 H 0.37076 0.92715 0.86955 0.0
H1683 H 0.35338 0.98981 0.89698 0.0
H1684 H 0.4323 0.0184 0.97445 0.0
H1685 H 0.39985 1.00028 0.95895 0.0
C1686 C 0.01777 0.31478 0.83507 0.0
C1687 C 7e-05 0.31742 0.82015 0.0
C1688 C 0.018 0.32609 0.85425 0.0
C1689 C 0.98224 0.36011 0.88898 0.0
H1690 H 0.03946 0.386 0.90271 0.0
C1691 C 0.01458 0.43979 0.92964 0.0
C1692 C 0.99883 0.44158 0.94647 0.0
C1693 C 0.01678 0.42137 0.9182 0.0
C1694 C 0.02334 0.37893 0.89909 0.0
H1695 H 0.96818 0.33322 0.81419 0.0
H1696 H 0.96876 0.35305 0.84719 0.0
H1697 H 0.03814 0.35943 0.87514 0.0
H1698 H 0.97405 0.42502 0.96539 0.0
H1699 H 0.97818 0.39281 0.94566 0.0
H1700 H 0.96711 0.38052 0.91177 0.0
C1701 C 0.98236 0.34212 0.84436 0.0
C1702 C 0.02262 0.36345 0.88348 0.0
C1703 C 0.9821 0.33082 0.82529 0.0
C1704 C 0.98618 0.42423 0.95234 0.0
C1705 C 0.98847 0.40577 0.94098 0.0
C1706 C 0.98291 0.37569 0.90443 0.0
C1707 C 0.00054 0.34025 0.85889 0.0
C1708 C 0.00194 0.35427 0.87778 0.0
C1709 C 0.00334 0.40426 0.92339 0.0
C1710 C 0.00336 0.38571 0.90928 0.0
H1711 H 0.03183 0.3045 0.83164 0.0
H1712 H 0.0321 0.32405 0.86522 0.0
H1713 H 0.96609 0.3531 0.8853 0.0
H1714 H 0.02463 0.45285 0.92471 0.0
H1715 H 0.02822 0.42094 0.90461 0.0
C1716 C 0.69907 0.13781 0.83608 0.0
C1717 C 0.719 0.13059 0.82621 0.0
C1718 C 0.6882 0.12602 0.85169 0.0
C1719 C 0.68075 0.07252 0.868 0.0
H1720 H 0.65192 0.09686 0.91798 0.0
C1721 C 0.62576 0.02455 0.92604 0.0
C1722 C 0.60534 0.03385 0.93253 0.0
C1723 C 0.64236 0.03605 0.9155 0.0
C1724 C 0.65981 0.08984 0.90406 0.0
H1725 H 0.74353 0.10558 0.82543 0.0
H1726 H 0.72442 0.08493 0.85267 0.0
H1727 H 0.67643 0.11784 0.89541 0.0
H1728 H 0.58592 0.06216 0.93223 0.0
H1729 H 0.61462 0.08224 0.91395 0.0
H1730 H 0.6636 0.04472 0.8762 0.0
C1731 C 0.71719 0.09968 0.84823 0.0
C1732 C 0.67386 0.10185 0.89116 0.0
C1733 C 0.72817 0.11156 0.8327 0.0
C1734 C 0.60174 0.05476 0.92809 0.0
C1735 C 0.61824 0.06626 0.91756 0.0
C1736 C 0.66664 0.06052 0.88087 0.0
C1737 C 0.69693 0.10668 0.85768 0.0
C1738 C 0.68411 0.09343 0.87274 0.0
C1739 C 0.63874 0.05704 0.91108 0.0
C1740 C 0.65563 0.06915 0.8988 0.0
H1741 H 0.6916 0.15242 0.83147 0.0
H1742 H 0.67248 0.13173 0.8585 0.0
H1743 H 0.68822 0.06565 0.85378 0.0
H1744 H 0.62896 0.0084 0.92923 0.0
H1745 H 0.65802 0.0285 0.91084 0.0
C1746 C 0.00907 0.6995 0.83049 0.0
C1747 C 0.02467 0.69834 0.81346 0.0
C1748 C 0.01259 0.68813 0.84929 0.0
C1749 C 0.04014 0.64032 0.86639 0.0
H1750 H 0.02117 0.65777 0.92325 0.0
C1751 C 0.0366 0.58255 0.93628 0.0
C1752 C 0.01636 0.58304 0.9481 0.0
C1753 C 0.04227 0.5988 0.92258 0.0
C1754 C 0.02652 0.65265 0.90746 0.0
H1755 H 0.05699 0.68542 0.80344 0.0
H1756 H 0.06316 0.66571 0.83628 0.0
H1757 H 0.02264 0.68284 0.89405 0.0
H1758 H 0.98679 0.60175 0.95573 0.0
H1759 H 0.99638 0.62972 0.93172 0.0
H1760 H 0.04314 0.61002 0.87944 0.0
C1761 C 0.04802 0.67514 0.83494 0.0
C1762 C 0.02737 0.66702 0.89075 0.0
C1763 C 0.04452 0.68652 0.81616 0.0
C1764 C 0.0025 0.60069 0.94676 0.0
C1765 C 0.0081 0.6169 0.9331 0.0
C1766 C 0.03922 0.62596 0.88305 0.0
C1767 C 0.03179 0.67536 0.85147 0.0
C1768 C 0.03371 0.66091 0.86991 0.0
C1769 C 0.02778 0.61594 0.92041 0.0
C1770 C 0.03188 0.63183 0.90367 0.0
H1771 H 0.99364 0.7085 0.82897 0.0
H1772 H -0.00034 0.68853 0.86163 0.0
H1773 H 0.04478 0.63501 0.85047 0.0
H1774 H 0.04771 0.56941 0.93694 0.0
H1775 H 0.05775 0.59769 0.91329 0.0
C1776 C 0.16207 0.30339 0.0358 0.0
C1777 C 0.18182 0.30529 0.02333 0.0
C1778 C 0.14275 0.31522 0.03105 0.0
C1779 C 0.11788 0.34982 0.98894 0.0
H1780 H 0.08865 0.37627 0.03749 0.0
C1781 C 0.06004 0.41932 0.97461 0.0
C1782 C 0.0638 0.43595 0.98857 0.0
C1783 C 0.06785 0.39961 0.97991 0.0
C1784 C 0.09664 0.36907 0.02371 0.0
H1785 H 0.19644 0.32054 0.99564 0.0
H1786 H 0.16334 0.34134 0.98777 0.0
H1787 H 0.11586 0.34864 0.04369 0.0
H1788 H 0.07704 0.44465 0.01979 0.0
H1789 H 0.09162 0.41077 0.02856 0.0
H1790 H 0.10028 0.37127 0.96903 0.0
C1791 C 0.16238 0.3305 0.00095 0.0
C1792 C 0.11204 0.35296 0.02727 0.0
C1793 C 0.18155 0.31865 0.00559 0.0
C1794 C 0.07413 0.43221 0.00855 0.0
C1795 C 0.0823 0.41261 0.01368 0.0
C1796 C 0.10279 0.3661 0.9854 0.0
C1797 C 0.14282 0.32921 0.01378 0.0
C1798 C 0.12348 0.34363 0.00995 0.0
C1799 C 0.07999 0.39616 0.9991 0.0
C1800 C 0.09254 0.37645 0.00278 0.0
H1801 H 0.1617 0.29315 0.04953 0.0
H1802 H 0.12791 0.31362 0.04112 0.0
H1803 H 0.12589 0.34265 0.97516 0.0
H1804 H 0.0516 0.42163 0.95932 0.0
H1805 H 0.06505 0.38723 0.96858 0.0
C1806 C 0.19106 0.71143 0.04165 0.0
C1807 C 0.18808 0.72792 0.02727 0.0
C1808 C 0.17685 0.69434 0.04076 0.0
C1809 C 0.14215 0.66713 0.00113 0.0
H1810 H 0.12559 0.63288 0.04963 0.0
C1811 C 0.11042 0.58538 0.9877 0.0
C1812 C 0.09091 0.57968 0.99904 0.0
C1813 C 0.1224 0.60295 0.99356 0.0
C1814 C 0.13 0.64236 0.03595 0.0
H1815 H 0.16665 0.74018 0.00192 0.0
H1816 H 0.14156 0.71054 0.00068 0.0
H1817 H 0.14352 0.66621 0.05593 0.0
H1818 H 0.06862 0.58782 0.02524 0.0
H1819 H 0.08964 0.61845 0.0358 0.0
H1820 H 0.12845 0.64356 0.98114 0.0
C1821 C 0.15528 0.71057 0.01225 0.0
C1822 C 0.14037 0.66137 0.03954 0.0
C1823 C 0.16957 0.72763 0.01306 0.0
C1824 C 0.08405 0.59143 0.01682 0.0
C1825 C 0.09599 0.6091 0.02268 0.0
C1826 C 0.13181 0.64821 0.99756 0.0
C1827 C 0.15928 0.69341 0.02554 0.0
C1828 C 0.14668 0.67393 0.02214 0.0
C1829 C 0.11493 0.61535 0.01071 0.0
C1830 C 0.12583 0.6355 0.01489 0.0
H1831 H 0.2051 0.71119 0.05287 0.0
H1832 H 0.1805 0.68138 0.05117 0.0
H1833 H 0.14709 0.6762 0.98732 0.0
H1834 H 0.11603 0.57656 0.97388 0.0
H1835 H 0.13719 0.60714 0.98427 0.0
C1836 C 0.30622 0.19889 0.00023 0.0
C1837 C 0.29751 0.20599 0.01992 0.0
C1838 C 0.32528 0.18602 -0.00029 0.0
C1839 C 0.36054 0.1512 0.03303 0.0
H1840 H 0.40672 0.16305 0.99053 0.0
C1841 C 0.44652 0.1089 0.03358 0.0
C1842 C 0.45411 0.10142 0.0136 0.0
C1843 C 0.42857 0.123 0.03468 0.0
C1844 C 0.39392 0.15945 0.00239 0.0
H1845 H 0.30158 0.20462 0.05456 0.0
H1846 H 0.33484 0.1822 0.05365 0.0
H1847 H 0.37218 0.18385 0.99165 0.0
H1848 H 0.44952 0.10382 0.97905 0.0
H1849 H 0.41818 0.12825 0.98101 0.0
H1850 H 0.38219 0.12673 0.0437 0.0
C1851 C 0.32687 0.18648 0.0386 0.0
C1852 C 0.37409 0.17133 0.003 0.0
C1853 C 0.30781 0.19937 0.03912 0.0
C1854 C 0.44409 0.10919 0.99472 0.0
C1855 C 0.42615 0.12328 0.99583 0.0
C1856 C 0.38035 0.13933 0.03243 0.0
C1857 C 0.33605 0.17994 0.01887 0.0
C1858 C 0.35712 0.16728 0.01826 0.0
C1859 C 0.41781 0.12996 0.01584 0.0
C1860 C 0.39725 0.14326 0.01705 0.0
H1861 H 0.29867 0.20367 0.98514 0.0
H1862 H 0.33169 0.18096 0.98426 0.0
H1863 H 0.34769 0.14753 0.04483 0.0
H1864 H 0.45394 0.10339 0.04845 0.0
H1865 H 0.42286 0.12817 0.05033 0.0
C1866 C 0.90526 0.30681 0.97337 0.0
C1867 C 0.89228 0.30119 0.99136 0.0
C1868 C 0.9257 0.31729 0.976 0.0
C1869 C 0.96763 0.33559 0.01683 0.0
H1870 H 0.96664 0.38511 0.9822 0.0
C1871 C 0.99884 0.41424 0.04546 0.0
C1872 C 0.00668 0.42859 0.03034 0.0
C1873 C 0.9924 0.39455 0.03897 0.0
C1874 C 0.96776 0.37113 0.99159 0.0
H1875 H 0.89162 0.30054 0.02622 0.0
H1876 H 0.92692 0.31906 0.0308 0.0
H1877 H 0.94139 0.35713 0.97336 0.0
H1878 H 0.01575 0.43295 0.99689 0.0
H1879 H 0.00538 0.39822 0.98575 0.0
H1880 H 0.99329 0.35029 0.03574 0.0
C1881 C 0.92149 0.31529 0.01464 0.0
C1882 C 0.95316 0.35503 0.98656 0.0
C1883 C 0.90109 0.30478 0.01201 0.0
C1884 C 0.00974 0.42228 0.00893 0.0
C1885 C 0.00355 0.40248 0.00249 0.0
C1886 C 0.98232 0.35173 0.02184 0.0
C1887 C 0.93359 0.32239 0.99667 0.0
C1888 C 0.95233 0.33736 0.99956 0.0
C1889 C 0.99381 0.38875 0.01724 0.0
C1890 C 0.98201 0.36996 0.00966 0.0
H1891 H 0.8991 0.30405 0.95722 0.0
H1892 H 0.93484 0.3222 0.96182 0.0
H1893 H 0.96764 0.32205 0.02698 0.0
H1894 H 0.99658 0.41853 0.06216 0.0
H1895 H 0.9849 0.38441 0.05076 0.0
C1896 C 0.72286 0.82716 0.97759 0.0
C1897 C 0.73432 0.81998 0.99595 0.0
C1898 C 0.70489 0.84107 0.97953 0.0
C1899 C 0.67846 0.87968 0.01447 0.0
H1900 H 0.62492 0.86718 0.98077 0.0
C1901 C 0.59974 0.93333 0.0136 0.0
C1902 C 0.59212 0.93818 0.99276 0.0
C1903 C 0.61502 0.91704 0.01684 0.0
C1904 C 0.63974 0.8709 0.99026 0.0
H1905 H 0.73658 0.82254 0.03068 0.0
H1906 H 0.70522 0.84714 0.03399 0.0
H1907 H 0.65702 0.84342 0.98055 0.0
H1908 H 0.59351 0.92897 0.95922 0.0
H1909 H 0.62002 0.9009 0.96484 0.0
H1910 H 0.66141 0.90754 0.02362 0.0
C1911 C 0.71014 0.84185 0.01814 0.0
C1912 C 0.65813 0.85733 0.99009 0.0
C1913 C 0.72809 0.82778 0.01622 0.0
C1914 C 0.59914 0.92577 0.97547 0.0
C1915 C 0.61425 0.90953 0.97871 0.0
C1916 C 0.66005 0.89336 0.01455 0.0
C1917 C 0.69803 0.84822 -0.00016 0.0
C1918 C 0.67789 0.86183 0.00174 0.0
C1919 C 0.62274 0.90522 0.99934 0.0
C1920 C 0.64073 0.88936 0.00199 0.0
H1921 H 0.72726 0.82152 0.96174 0.0
H1922 H 0.69613 0.84605 0.96511 0.0
H1923 H 0.69349 0.88351 0.0236 0.0
H1924 H 0.59455 0.94252 0.02729 0.0
H1925 H 0.62109 0.91392 0.03297 0.0
C1926 C 0.85355 0.71449 0.01779 0.0
C1927 C 0.83547 0.71409 0.00309 0.0
C1928 C 0.87003 0.69895 0.0176 0.0
C1929 C 0.89254 0.65419 0.98663 0.0
H1930 H 0.90403 0.63218 0.04356 0.0
C1931 C 0.95555 0.58705 0.00545 0.0
C1932 C 0.94873 0.57305 0.02128 0.0
C1933 C 0.94222 0.60437 0.00078 0.0
C1934 C 0.90088 0.63805 0.02753 0.0
H1935 H 0.82146 0.69792 0.97563 0.0
H1936 H 0.84997 0.67072 0.97551 0.0
H1937 H 0.88165 0.66342 0.03966 0.0
H1938 H 0.92252 0.56566 0.04428 0.0
H1939 H 0.899 0.59563 0.03596 0.0
H1940 H 0.91139 0.62829 0.97459 0.0
C1941 C 0.85153 0.68306 0.98712 0.0
C1942 C 0.88835 0.65617 0.0253 0.0
C1943 C 0.83509 0.69862 0.98728 0.0
C1944 C 0.92805 0.57622 0.0319 0.0
C1945 C 0.91472 0.59344 0.02725 0.0
C1946 C 0.90518 0.636 0.98888 0.0
C1947 C 0.86876 0.68267 0.00273 0.0
C1948 C 0.88383 0.66438 0.00484 0.0
C1949 C 0.92196 0.60802 0.01208 0.0
C1950 C 0.90918 0.62759 0.00936 0.0
H1951 H 0.85449 0.72631 0.03004 0.0
H1952 H 0.88338 0.69932 0.02956 0.0
H1953 H 0.88945 0.6602 0.97065 0.0
H1954 H 0.97189 0.58543 0.99782 0.0
H1955 H 0.9484 0.61547 0.98922 0.0
C1956 C 0.30103 0.85134 0.04378 0.0
C1957 C 0.29187 0.84033 0.02642 0.0
C1958 C 0.31677 0.86693 0.04026 0.0
C1959 C 0.34165 0.90113 0.99881 0.0
H1960 H 0.3938 0.89919 0.03671 0.0
C1961 C 0.427 0.94286 0.98219 0.0
C1962 C 0.43933 0.94979 0.00013 0.0
C1963 C 0.40661 0.93224 0.98498 0.0
C1964 C 0.3792 0.90026 0.02618 0.0
H1965 H 0.29141 0.8376 0.99166 0.0
H1966 H 0.31918 0.86468 0.98553 0.0
H1967 H 0.36276 0.87557 0.04239 0.0
H1968 H 0.43881 0.95284 0.03487 0.0
H1969 H 0.40322 0.93485 0.03967 0.0
H1970 H 0.35849 0.92574 0.9824 0.0
C1971 C 0.314 0.86138 0.00186 0.0
C1972 C 0.36137 0.88666 0.02945 0.0
C1973 C 0.29818 0.84578 0.00539 0.0
C1974 C 0.43001 0.94729 0.02073 0.0
C1975 C 0.40963 0.93688 0.0235 0.0
C1976 C 0.35957 0.91484 0.99554 0.0
C1977 C 0.32382 0.87185 0.0193 0.0
C1978 C 0.34236 0.8869 0.01585 0.0
C1979 C 0.39813 0.92851 0.00576 0.0
C1980 C 0.37855 0.91457 0.00924 0.0
H1981 H 0.29637 0.84768 0.06017 0.0
H1982 H 0.32367 0.87497 0.05402 0.0
H1983 H 0.32717 0.90179 0.98812 0.0
H1984 H 0.43365 0.94468 0.96608 0.0
H1985 H 0.39817 0.92605 0.97095 0.0
C1986 C 0.76048 0.20981 0.97087 0.0
C1987 C 0.77117 0.21418 0.99056 0.0
C1988 C 0.74551 0.19325 0.9691 0.0
C1989 C 0.70847 0.16161 0.00313 0.0
H1990 H 0.70349 0.12653 0.95288 0.0
C1991 C 0.64854 0.09349 0.00413 0.0
C1992 C 0.63402 0.09127 0.98639 0.0
C1993 C 0.66734 0.10629 0.003 0.0
C1994 C 0.70462 0.1363 0.96695 0.0
H1995 H 0.77537 0.20398 0.02352 0.0
H1996 H 0.74965 0.17502 0.02036 0.0
H1997 H 0.73268 0.15319 0.95414 0.0
H1998 H 0.62863 0.09969 0.95306 0.0
H1999 H 0.66155 0.12247 0.95113 0.0
H2000 H 0.68043 0.14509 0.01592 0.0
C2001 C 0.7524 0.18463 0.0064 0.0
C2002 C 0.72131 0.15156 0.96768 0.0
C2003 C 0.76725 0.20118 0.00819 0.0
C2004 C 0.63955 0.10112 0.96698 0.0
C2005 C 0.65839 0.11414 0.96589 0.0
C2006 C 0.69191 0.14643 0.00242 0.0
C2007 C 0.74097 0.1807 0.98697 0.0
C2008 C 0.72349 0.16431 0.98587 0.0
C2009 C 0.67202 0.1174 0.98416 0.0
C2010 C 0.68986 0.13347 0.98443 0.0
H2011 H 0.76315 0.21952 0.95697 0.0
H2012 H 0.7369 0.19075 0.95395 0.0
H2013 H 0.70923 0.17149 0.01714 0.0
H2014 H 0.64498 0.08584 0.01921 0.0
H2015 H 0.67786 0.108 0.01717 0.0
C2016 C 0.53645 0.69724 0.80798 0.0
C2017 C 0.51792 0.70705 0.79799 0.0
C2018 C 0.53301 0.68324 0.82475 0.0
C2019 C 0.49165 0.67091 0.86681 0.0
H2020 H 0.52658 0.62052 0.87321 0.0
C2021 C 0.49165 0.62523 0.94579 0.0
C2022 C 0.48906 0.6038 0.94433 0.0
C2023 C 0.49597 0.63695 0.92746 0.0
C2024 C 0.51661 0.63448 0.87156 0.0
H2025 H 0.48123 0.70935 0.79734 0.0
H2026 H 0.47528 0.68494 0.82651 0.0
H2027 H 0.53194 0.64206 0.84135 0.0
H2028 H 0.48979 0.57777 0.92251 0.0
H2029 H 0.49729 0.5983 0.89037 0.0
H2030 H 0.47626 0.66341 0.89689 0.0
C2031 C 0.49247 0.68823 0.82154 0.0
C2032 C 0.51981 0.64689 0.85342 0.0
C2033 C 0.49589 0.70214 0.80474 0.0
C2034 C 0.4916 0.59426 0.92416 0.0
C2035 C 0.496 0.60601 0.90578 0.0
C2036 C 0.48857 0.65861 0.88495 0.0
C2037 C 0.51099 0.67884 0.83195 0.0
C2038 C 0.50736 0.66526 0.85086 0.0
C2039 C 0.49787 0.62753 0.90719 0.0
C2040 C 0.50107 0.64031 0.88761 0.0
H2041 H 0.55365 0.70066 0.80316 0.0
H2042 H 0.54765 0.67639 0.83253 0.0
H2043 H 0.48197 0.68507 0.86546 0.0
H2044 H 0.48997 0.63309 0.96108 0.0
H2045 H 0.49772 0.65345 0.92915 0.0
C2046 C 0.36305 0.5328 0.80208 0.0
C2047 C 0.35659 0.55318 0.7975 0.0
C2048 C 0.38216 0.52866 0.81463 0.0
C2049 C 0.41568 0.55255 0.85737 0.0
H2050 H 0.45203 0.50294 0.85153 0.0
C2051 C 0.47713 0.52702 0.92426 0.0
C2052 C 0.47433 0.50645 0.93067 0.0
C2053 C 0.46787 0.53404 0.90487 0.0
C2054 C 0.44205 0.51688 0.85335 0.0
H2055 H 0.366 0.58519 0.8014 0.0
H2056 H 0.39957 0.57792 0.82319 0.0
H2057 H 0.42655 0.51324 0.82245 0.0
H2058 H 0.46094 0.4768 0.9211 0.0
H2059 H 0.44471 0.48904 0.88746 0.0
H2060 H 0.43058 0.55584 0.88852 0.0
C2061 C 0.38958 0.56515 0.81735 0.0
C2062 C 0.42744 0.52277 0.83671 0.0
C2063 C 0.37041 0.56931 0.80477 0.0
C2064 C 0.46323 0.49279 0.91673 0.0
C2065 C 0.45408 0.49977 0.89733 0.0
C2066 C 0.43032 0.54669 0.87396 0.0
C2067 C 0.39534 0.54479 0.82289 0.0
C2068 C 0.41357 0.54034 0.83881 0.0
C2069 C 0.45578 0.52059 0.89143 0.0
C2070 C 0.44317 0.52845 0.87241 0.0
H2071 H 0.35285 0.52 0.79667 0.0
H2072 H 0.38591 0.51281 0.81874 0.0
H2073 H 0.40507 0.56603 0.85967 0.0
H2074 H 0.48577 0.53789 0.93456 0.0
H2075 H 0.4697 0.5501 0.90062 0.0
C2076 C 0.44124 0.32649 0.83059 0.0
C2077 C 0.45768 0.31763 0.81703 0.0
C2078 C 0.44681 0.34284 0.84418 0.0
C2079 C 0.48862 0.38395 0.85343 0.0
H2080 H 0.47056 0.37869 0.91308 0.0
C2081 C 0.5282 0.43278 0.92129 0.0
C2082 C 0.51482 0.43802 0.93917 0.0
C2083 C 0.51968 0.41999 0.90514 0.0
C2084 C 0.4754 0.38068 0.89643 0.0
H2085 H 0.49269 0.31947 0.80663 0.0
H2086 H 0.50236 0.34812 0.83029 0.0
H2087 H 0.45845 0.35308 0.88704 0.0
H2088 H 0.48157 0.43486 0.95357 0.0
H2089 H 0.46647 0.41305 0.92514 0.0
H2090 H 0.50556 0.41157 0.86279 0.0
C2091 C 0.48515 0.3424 0.83037 0.0
C2092 C 0.46849 0.36592 0.8815 0.0
C2093 C 0.47964 0.32592 0.8169 0.0
C2094 C 0.49241 0.4309 0.94012 0.0
C2095 C 0.4838 0.41828 0.92386 0.0
C2096 C 0.49537 0.39884 0.86834 0.0
C2097 C 0.46889 0.35084 0.84439 0.0
C2098 C 0.47522 0.36725 0.85988 0.0
C2099 C 0.49747 0.4123 0.90638 0.0
C2100 C 0.48907 0.39728 0.89011 0.0
H2101 H 0.42416 0.3205 0.83106 0.0
H2102 H 0.43386 0.34916 0.85465 0.0
H2103 H 0.49384 0.38551 0.83683 0.0
H2104 H 0.54556 0.43798 0.92009 0.0
H2105 H 0.53083 0.41555 0.8921 0.0
C2106 C 0.73049 0.48972 0.85498 0.0
C2107 C 0.74008 0.50939 0.85669 0.0
C2108 C 0.7179 0.48158 0.87203 0.0
C2109 C 0.70055 0.49249 0.92909 0.0
H2110 H 0.64249 0.47221 0.90958 0.0
C2111 C 0.623 0.50095 0.98332 0.0
C2112 C 0.60352 0.50829 0.97274 0.0
C2113 C 0.64101 0.49256 0.97161 0.0
C2114 C 0.65858 0.47793 0.91535 0.0
H2115 H 0.74551 0.53526 0.87811 0.0
H2116 H 0.7232 0.52165 0.90718 0.0
H2117 H 0.67394 0.47369 0.88461 0.0
H2118 H 0.58716 0.51162 0.9417 0.0
H2119 H 0.61866 0.49795 0.92127 0.0
H2120 H 0.68467 0.49898 0.95904 0.0
C2121 C 0.72553 0.51214 0.89305 0.0
C2122 C 0.67683 0.4784 0.90107 0.0
C2123 C 0.73815 0.52014 0.87617 0.0
C2124 C 0.60197 0.50618 0.95034 0.0
C2125 C 0.62004 0.49802 0.93862 0.0
C2126 C 0.68218 0.49252 0.94318 0.0
C2127 C 0.71464 0.49303 0.89102 0.0
C2128 C 0.69768 0.48683 0.90744 0.0
C2129 C 0.64007 0.49153 0.94902 0.0
C2130 C 0.66061 0.48633 0.93612 0.0
H2131 H 0.73192 0.48096 0.84022 0.0
H2132 H 0.71008 0.46668 0.87003 0.0
H2133 H 0.71661 0.49836 0.93479 0.0
H2134 H 0.6246 0.50215 0.00062 0.0
H2135 H 0.65585 0.48729 0.98029 0.0
C2136 C 0.47405 0.33916 0.19956 0.0
C2137 C 0.49363 0.32743 0.20387 0.0
C2138 C 0.47493 0.35607 0.18564 0.0
C2139 C 0.51567 0.39177 0.1596 0.0
H2140 H 0.46663 0.40108 0.11917 0.0
C2141 C 0.52196 0.45716 0.09859 0.0
C2142 C 0.51531 0.45256 0.07751 0.0
C2143 C 0.5157 0.44437 0.11557 0.0
C2144 C 0.48052 0.39866 0.13029 0.0
H2145 H 0.52951 0.32428 0.19695 0.0
H2146 H 0.53097 0.35332 0.17245 0.0
H2147 H 0.46371 0.37349 0.14555 0.0
H2148 H 0.49678 0.43136 0.05743 0.0
H2149 H 0.48619 0.40858 0.08694 0.0
H2150 H 0.53311 0.41601 0.14371 0.0
C2151 C 0.51499 0.34985 0.18013 0.0
C2152 C 0.47872 0.38298 0.14563 0.0
C2153 C 0.51413 0.33307 0.19412 0.0
C2154 C 0.50155 0.43545 0.07368 0.0
C2155 C 0.49559 0.42239 0.09064 0.0
C2156 C 0.51756 0.40727 0.1442 0.0
C2157 C 0.49541 0.36157 0.17565 0.0
C2158 C 0.49644 0.37915 0.16029 0.0
C2159 C 0.50321 0.42634 0.11173 0.0
C2160 C 0.50012 0.41084 0.12917 0.0
H2161 H 0.45798 0.33523 0.20685 0.0
H2162 H 0.45959 0.36488 0.1828 0.0
H2163 H 0.5295 0.38956 0.17084 0.0
H2164 H 0.53268 0.47029 0.10182 0.0
H2165 H 0.52138 0.44825 0.13162 0.0
C2166 C 0.69378 0.50978 0.20293 0.0
C2167 C 0.69855 0.49342 0.21704 0.0
C2168 C 0.67835 0.50731 0.18615 0.0
C2169 C 0.62936 0.479 0.16757 0.0
H2170 H 0.64938 0.4972 0.11134 0.0
C2171 C 0.57088 0.50848 0.10036 0.0
C2172 C 0.57698 0.50499 0.07885 0.0
C2173 C 0.58426 0.50074 0.11704 0.0
C2174 C 0.64362 0.49166 0.12681 0.0
H2175 H 0.69009 0.46192 0.22512 0.0
H2176 H 0.66256 0.45782 0.19588 0.0
H2177 H 0.67593 0.49701 0.14136 0.0
H2178 H 0.6011 0.48999 0.05782 0.0
H2179 H 0.62464 0.47635 0.08702 0.0
H2180 H 0.59671 0.47453 0.15313 0.0
C2181 C 0.67108 0.47242 0.19779 0.0
C2182 C 0.65876 0.49179 0.14404 0.0
C2183 C 0.68683 0.47479 0.21448 0.0
C2184 C 0.59584 0.49252 0.07426 0.0
C2185 C 0.60942 0.48495 0.09097 0.0
C2186 C 0.61408 0.47911 0.15033 0.0
C2187 C 0.6671 0.48854 0.18322 0.0
C2188 C 0.65164 0.48596 0.16467 0.0
C2189 C 0.60419 0.48962 0.11251 0.0
C2190 C 0.62095 0.48588 0.12988 0.0
H2191 H 0.70246 0.52435 0.20442 0.0
H2192 H 0.6753 0.52009 0.17532 0.0
H2193 H 0.62349 0.47442 0.18335 0.0
H2194 H 0.55636 0.51806 0.10427 0.0
H2195 H 0.57987 0.50475 0.13343 0.0
C2196 C 0.53847 0.70475 0.19553 0.0
C2197 C 0.55926 0.70584 0.20645 0.0
C2198 C 0.53357 0.688 0.18227 0.0
C2199 C 0.56081 0.64419 0.15316 0.0
H2200 H 0.49838 0.62693 0.14754 0.0
C2201 C 0.53021 0.59097 0.08427 0.0
C2202 C 0.51082 0.57903 0.08762 0.0
C2203 C 0.53793 0.60429 0.10038 0.0
C2204 C 0.51601 0.63117 0.14911 0.0
H2205 H 0.5911 0.69001 0.21233 0.0
H2206 H 0.58223 0.66033 0.18984 0.0
H2207 H 0.5079 0.65362 0.17298 0.0
H2208 H 0.48527 0.57033 0.1108 0.0
H2209 H 0.49941 0.59247 0.1393 0.0
H2210 H 0.56899 0.6211 0.12983 0.0
C2211 C 0.56991 0.67269 0.19101 0.0
C2212 C 0.52142 0.64689 0.1635 0.0
C2213 C 0.57495 0.68964 0.20405 0.0
C2214 C 0.50016 0.57958 0.10776 0.0
C2215 C 0.50815 0.59247 0.12401 0.0
C2216 C 0.55543 0.6282 0.13897 0.0
C2217 C 0.54918 0.67168 0.17983 0.0
C2218 C 0.54382 0.65391 0.16548 0.0
C2219 C 0.52662 0.60563 0.12031 0.0
C2220 C 0.53289 0.62162 0.13652 0.0
H2221 H 0.5261 0.71708 0.19685 0.0
H2222 H 0.51765 0.68811 0.1736 0.0
H2223 H 0.57823 0.64924 0.15404 0.0
H2224 H 0.53853 0.59101 0.06879 0.0
H2225 H 0.55204 0.61426 0.09673 0.0
C2226 C 0.3557 0.60093 0.20476 0.0
C2227 C 0.33347 0.59353 0.20675 0.0
C2228 C 0.37189 0.58988 0.19302 0.0
C2229 C 0.37309 0.55417 0.14773 0.0
H2230 H 0.43801 0.5533 0.15767 0.0
C2231 C 0.43426 0.53806 0.07905 0.0
C2232 C 0.45161 0.52372 0.08274 0.0
C2233 C 0.42182 0.54616 0.09613 0.0
C2234 C 0.4199 0.5533 0.15479 0.0
H2235 H 0.31138 0.56781 0.19975 0.0
H2236 H 0.3397 0.54839 0.1796 0.0
H2237 H 0.41249 0.56611 0.18582 0.0
H2238 H 0.46989 0.5066 0.10716 0.0
H2239 H 0.44791 0.52068 0.1373 0.0
H2240 H 0.38031 0.54147 0.11682 0.0
C2241 C 0.34446 0.56301 0.1866 0.0
C2242 C 0.40533 0.56073 0.17082 0.0
C2243 C 0.32825 0.5741 0.19821 0.0
C2244 C 0.45668 0.51784 0.10395 0.0
C2245 C 0.4442 0.52594 0.12115 0.0
C2246 C 0.38759 0.54684 0.13178 0.0
C2247 C 0.36618 0.57115 0.18315 0.0
C2248 C 0.38176 0.56145 0.16734 0.0
C2249 C 0.42627 0.53981 0.11731 0.0
C2250 C 0.41115 0.54666 0.13496 0.0
H2251 H 0.3603 0.6158 0.21127 0.0
H2252 H 0.38843 0.59663 0.19061 0.0
H2253 H 0.35509 0.55476 0.14435 0.0
H2254 H 0.42936 0.54205 0.06288 0.0
H2255 H 0.40823 0.55695 0.09267 0.0
C2256 C 0.84365 0.58901 0.71277 0.0
C2257 C 0.82542 0.57665 0.71914 0.0
C2258 C 0.86308 0.58016 0.7038 0.0
C2259 C 0.88334 0.53348 0.67614 0.0
H2260 H 0.9425 0.55622 0.68887 0.0
C2261 C 0.96053 0.5044 0.63059 0.0
C2262 C 0.97178 0.52048 0.61997 0.0
C2263 C 0.94631 0.50862 0.648 0.0
C2264 C 0.9261 0.54964 0.68527 0.0
H2265 H 0.81322 0.54527 0.72106 0.0
H2266 H 0.8472 0.5298 0.70554 0.0
H2267 H 0.90916 0.56903 0.70806 0.0
H2268 H 0.97923 0.55314 0.62107 0.0
H2269 H 0.9544 0.56046 0.65124 0.0
H2270 H 0.90008 0.51453 0.65296 0.0
C2271 C 0.84639 0.54637 0.70726 0.0
C2272 C 0.907 0.55705 0.69613 0.0
C2273 C 0.82691 0.55525 0.71614 0.0
C2274 C 0.97058 0.54043 0.62869 0.0
C2275 C 0.9564 0.54463 0.6461 0.0
C2276 C 0.90241 0.52603 0.66536 0.0
C2277 C 0.86475 0.55872 0.7011 0.0
C2278 C 0.88533 0.54941 0.69128 0.0
C2279 C 0.94318 0.52895 0.65516 0.0
C2280 C 0.92393 0.53437 0.66942 0.0
H2281 H 0.84302 0.60556 0.71485 0.0
H2282 H 0.87671 0.59015 0.6988 0.0
H2283 H 0.86689 0.52741 0.67183 0.0
H2284 H 0.96131 0.4888 0.62449 0.0
H2285 H 0.93668 0.49617 0.655 0.0
C2286 C 0.54302 0.79078 0.66418 0.0
C2287 C 0.5219 0.79254 0.67445 0.0
C2288 C 0.54886 0.80424 0.64756 0.0
C2289 C 0.52585 0.84585 0.6117 0.0
H2290 H 0.58684 0.86709 0.61684 0.0
C2291 C 0.55571 0.91597 0.56207 0.0
C2292 C 0.56863 0.93051 0.57338 0.0
C2293 C 0.55133 0.89665 0.57103 0.0
C2294 C 0.56971 0.8614 0.61522 0.0
H2295 H 0.48982 0.80905 0.67444 0.0
H2296 H 0.50017 0.8328 0.64611 0.0
H2297 H 0.57577 0.83754 0.63808 0.0
H2298 H 0.58743 0.93606 0.60276 0.0
H2299 H 0.57941 0.90276 0.61857 0.0
H2300 H 0.5194 0.87065 0.5899 0.0
C2301 C 0.51218 0.82085 0.65048 0.0
C2302 C 0.56344 0.84417 0.62717 0.0
C2303 C 0.50625 0.80725 0.6669 0.0
C2304 C 0.57749 0.92518 0.59359 0.0
C2305 C 0.573 0.90597 0.60259 0.0
C2306 C 0.53206 0.86324 0.5999 0.0
C2307 C 0.53381 0.81993 0.64101 0.0
C2308 C 0.54126 0.83643 0.62598 0.0
C2309 C 0.55974 0.89148 0.59153 0.0
C2310 C 0.55392 0.87155 0.60193 0.0
H2311 H 0.55537 0.77946 0.66946 0.0
H2312 H 0.56546 0.80272 0.6403 0.0
H2313 H 0.50874 0.84011 0.61004 0.0
H2314 H 0.54889 0.91954 0.54632 0.0
H2315 H 0.54133 0.88579 0.5619 0.0
C2316 C 0.26094 0.5686 0.67208 0.0
C2317 C 0.2731 0.55171 0.68038 0.0
C2318 C 0.24928 0.56694 0.65258 0.0
C2319 C 0.22169 0.52691 0.62087 0.0
H2320 H 0.2098 0.57124 0.58063 0.0
C2321 C 0.15523 0.51641 0.55539 0.0
C2322 C 0.13943 0.53257 0.55341 0.0
C2323 C 0.17566 0.5194 0.56622 0.0
C2324 C 0.21294 0.55873 0.59175 0.0
H2325 H 0.28416 0.52043 0.67388 0.0
H2326 H 0.26415 0.51765 0.63973 0.0
H2327 H 0.23896 0.57539 0.60828 0.0
H2328 H 0.13353 0.56501 0.55972 0.0
H2329 H 0.16889 0.57006 0.57923 0.0
H2330 H 0.19525 0.51053 0.60516 0.0
C2331 C 0.26316 0.53202 0.64852 0.0
C2332 C 0.22965 0.56109 0.60756 0.0
C2333 C 0.27471 0.53364 0.66805 0.0
C2334 C 0.14523 0.55217 0.56117 0.0
C2335 C 0.16562 0.55511 0.57224 0.0
C2336 C 0.20504 0.52457 0.60518 0.0
C2337 C 0.24963 0.54838 0.64095 0.0
C2338 C 0.23396 0.5453 0.62251 0.0
C2339 C 0.18069 0.53854 0.57557 0.0
C2340 C 0.20018 0.54054 0.59061 0.0
H2341 H 0.25941 0.58277 0.68116 0.0
H2342 H 0.23892 0.57979 0.6473 0.0
H2343 H 0.22417 0.5146 0.63238 0.0
H2344 H 0.15151 0.50122 0.54921 0.0
H2345 H 0.18717 0.50646 0.56796 0.0
C2346 C 0.46174 0.19334 0.67942 0.0
C2347 C 0.44231 0.18954 0.69183 0.0
C2348 C 0.46744 0.18041 0.66223 0.0
C2349 C 0.45977 0.12687 0.64515 0.0
H2350 H 0.48908 0.14507 0.59282 0.0
C2351 C 0.49601 0.06834 0.58436 0.0
C2352 C 0.51795 0.07261 0.57701 0.0
C2353 C 0.48325 0.08346 0.59502 0.0
C2354 C 0.48097 0.13973 0.60738 0.0
H2355 H 0.41286 0.16994 0.69499 0.0
H2356 H 0.42272 0.14754 0.66497 0.0
H2357 H 0.47317 0.17047 0.61763 0.0
H2358 H 0.54336 0.09647 0.57423 0.0
H2359 H 0.52148 0.12256 0.59309 0.0
H2360 H 0.46822 0.09623 0.63542 0.0
C2361 C 0.43378 0.16029 0.66876 0.0
C2362 C 0.47185 0.1543 0.62158 0.0
C2363 C 0.42807 0.17321 0.68592 0.0
C2364 C 0.52654 0.09257 0.57982 0.0
C2365 C 0.51386 0.10766 0.59045 0.0
C2366 C 0.46894 0.11234 0.63102 0.0
C2367 C 0.45384 0.16339 0.65708 0.0
C2368 C 0.46149 0.14805 0.64082 0.0
C2369 C 0.49223 0.1032 0.59858 0.0
C2370 C 0.48005 0.11858 0.61215 0.0
H2371 H 0.47307 0.2058 0.68351 0.0
H2372 H 0.4831 0.18316 0.65366 0.0
H2373 H 0.45221 0.12152 0.65997 0.0
H2374 H 0.48898 0.05316 0.58262 0.0
H2375 H 0.46654 0.07955 0.60085 0.0
C2376 C 0.78226 0.52535 0.34267 0.0
C2377 C 0.77901 0.50428 0.33865 0.0
C2378 C 0.79345 0.53182 0.36129 0.0
C2379 C 0.81613 0.51405 0.41416 0.0
H2380 H 0.86613 0.55014 0.40039 0.0
C2381 C 0.90171 0.51043 0.4571 0.0
C2382 C 0.91489 0.52826 0.45929 0.0
C2383 C 0.88074 0.51121 0.44676 0.0
C2384 C 0.85199 0.54046 0.40476 0.0
H2385 H 0.78338 0.4736 0.35179 0.0
H2386 H 0.80299 0.48482 0.38407 0.0
H2387 H 0.8362 0.54485 0.37418 0.0
H2388 H 0.91561 0.5612 0.45357 0.0
H2389 H 0.87886 0.56252 0.43545 0.0
H2390 H 0.83259 0.50895 0.44441 0.0
C2391 C 0.79684 0.4964 0.37296 0.0
C2392 C 0.83478 0.53741 0.38969 0.0
C2393 C 0.78571 0.48994 0.35434 0.0
C2394 C 0.906 0.54713 0.45194 0.0
C2395 C 0.88498 0.54789 0.44152 0.0
C2396 C 0.83336 0.51711 0.42925 0.0
C2397 C 0.80152 0.51735 0.3763 0.0
C2398 C 0.81708 0.5236 0.39391 0.0
C2399 C 0.87238 0.52984 0.43835 0.0
C2400 C 0.85191 0.52977 0.4244 0.0
H2401 H 0.77716 0.53681 0.33096 0.0
H2402 H 0.79652 0.54809 0.36356 0.0
H2403 H 0.8025 0.5036 0.41803 0.0
H2404 H 0.90792 0.49565 0.4627 0.0
H2405 H 0.87164 0.49696 0.4444 0.0
C2406 C 0.52923 0.81729 0.33807 0.0
C2407 C 0.55166 0.81277 0.33204 0.0
C2408 C 0.52459 0.82722 0.35752 0.0
C2409 C 0.55132 0.8629 0.39532 0.0
H2410 H 0.49632 0.85425 0.42809 0.0
C2411 C 0.52439 0.9197 0.46172 0.0
C2412 C 0.50176 0.92642 0.4601 0.0
C2413 C 0.53179 0.90224 0.4505 0.0
C2414 C 0.51176 0.85686 0.41911 0.0
H2415 H 0.58676 0.8141 0.34237 0.0
H2416 H 0.57862 0.83133 0.37642 0.0
H2417 H 0.5071 0.82971 0.40012 0.0
H2418 H 0.46877 0.91919 0.44674 0.0
H2419 H 0.48166 0.88903 0.42703 0.0
H2420 H 0.55559 0.89041 0.41371 0.0
C2421 C 0.56464 0.82745 0.36592 0.0
C2422 C 0.51793 0.8428 0.40308 0.0
C2423 C 0.56928 0.81747 0.34645 0.0
C2424 C 0.48639 0.91458 0.44814 0.0
C2425 C 0.49376 0.89714 0.43697 0.0
C2426 C 0.54515 0.87695 0.41134 0.0
C2427 C 0.54228 0.83288 0.37145 0.0
C2428 C 0.53745 0.84596 0.39059 0.0
C2429 C 0.51667 0.89107 0.43752 0.0
C2430 C 0.52496 0.87442 0.42302 0.0
H2431 H 0.51523 0.81385 0.3274 0.0
H2432 H 0.50719 0.83134 0.36112 0.0
H2433 H 0.56632 0.86597 0.38587 0.0
H2434 H 0.53658 0.92833 0.47103 0.0
H2435 H 0.54947 0.89777 0.45156 0.0
C2436 C 0.16092 0.65067 0.28765 0.0
C2437 C 0.18319 0.6461 0.28123 0.0
C2438 C 0.14801 0.63601 0.29848 0.0
C2439 C 0.15356 0.58782 0.32988 0.0
H2440 H 0.08861 0.58516 0.32064 0.0
C2441 C 0.09951 0.53017 0.37622 0.0
C2442 C 0.08202 0.53977 0.38791 0.0
C2443 C 0.11006 0.54052 0.35932 0.0
C2444 C 0.10675 0.58569 0.32328 0.0
H2445 H 0.20935 0.62251 0.28087 0.0
H2446 H 0.1867 0.59678 0.29926 0.0
H2447 H 0.11138 0.60877 0.29921 0.0
H2448 H 0.0604 0.5669 0.38969 0.0
H2449 H 0.07872 0.5848 0.36015 0.0
H2450 H 0.14888 0.56484 0.35403 0.0
C2451 C 0.17932 0.61183 0.29643 0.0
C2452 C 0.11978 0.59931 0.31116 0.0
C2453 C 0.19231 0.62658 0.28584 0.0
C2454 C 0.07395 0.55912 0.38111 0.0
C2455 C 0.08437 0.56937 0.36411 0.0
C2456 C 0.14058 0.57407 0.34181 0.0
C2457 C 0.15699 0.61635 0.30289 0.0
C2458 C 0.1433 0.60083 0.3146 0.0
C2459 C 0.10313 0.56052 0.35366 0.0
C2460 C 0.117 0.57312 0.3389 0.0
H2461 H 0.15344 0.66561 0.28437 0.0
H2462 H 0.13106 0.64021 0.30359 0.0
H2463 H 0.17153 0.58875 0.33325 0.0
H2464 H 0.10607 0.51525 0.38099 0.0
H2465 H 0.12431 0.53326 0.3513 0.0
C2466 C 0.53444 0.17995 0.3228 0.0
C2467 C 0.52015 0.19734 0.32263 0.0
C2468 C 0.53695 0.16809 0.34139 0.0
C2469 C 0.5056 0.15539 0.39065 0.0
H2470 H 0.56013 0.12445 0.40443 0.0
C2471 C 0.50457 0.09546 0.45788 0.0
C2472 C 0.51341 0.07615 0.4521 0.0
C2473 C 0.50939 0.11285 0.44556 0.0
C2474 C 0.54479 0.133 0.40079 0.0
H2475 H 0.49836 0.21664 0.34229 0.0
H2476 H 0.50306 0.19615 0.3749 0.0
H2477 H 0.5612 0.15084 0.37647 0.0
H2478 H 0.53404 0.05975 0.42901 0.0
H2479 H 0.5429 0.09013 0.40757 0.0
H2480 H 0.48901 0.13729 0.41449 0.0
C2481 C 0.51194 0.19141 0.36048 0.0
C2482 C 0.54537 0.1481 0.38475 0.0
C2483 C 0.50935 0.20323 0.34181 0.0
C2484 C 0.52793 0.07462 0.43434 0.0
C2485 C 0.53275 0.09202 0.42194 0.0
C2486 C 0.50504 0.1404 0.40671 0.0
C2487 C 0.52532 0.17339 0.36035 0.0
C2488 C 0.52565 0.15919 0.37917 0.0
C2489 C 0.5229 0.11122 0.42701 0.0
C2490 C 0.5245 0.12875 0.41172 0.0
H2491 H 0.54308 0.17497 0.30832 0.0
H2492 H 0.54719 0.15423 0.34055 0.0
H2493 H 0.48997 0.1633 0.38657 0.0
H2494 H 0.49314 0.09694 0.47143 0.0
H2495 H 0.50179 0.12744 0.45008 0.0
C2496 C 0.70274 0.81245 0.46608 0.0
C2497 C 0.71471 0.80559 0.4843 0.0
C2498 C 0.68356 0.82501 0.46829 0.0
C2499 C 0.66001 0.86321 0.50535 0.0
H2500 H 0.60787 0.86143 0.46742 0.0
C2501 C 0.59246 0.92735 0.50759 0.0
C2502 C 0.58585 0.93507 0.48742 0.0
C2503 C 0.60437 0.90873 0.50918 0.0
C2504 C 0.62236 0.86219 0.47809 0.0
H2505 H 0.71511 0.80565 0.5192 0.0
H2506 H 0.68162 0.82756 0.52301 0.0
H2507 H 0.63581 0.83353 0.46651 0.0
H2508 H 0.58546 0.92867 0.45318 0.0
H2509 H 0.60659 0.89655 0.45586 0.0
H2510 H 0.64721 0.89217 0.51635 0.0
C2511 C 0.68725 0.82339 0.50701 0.0
C2512 C 0.63833 0.84618 0.47759 0.0
C2513 C 0.70638 0.81074 0.50481 0.0
C2514 C 0.59046 0.92327 0.46897 0.0
C2515 C 0.60242 0.9047 0.47054 0.0
C2516 C 0.64413 0.87924 0.50579 0.0
C2517 C 0.67594 0.83108 0.48876 0.0
C2518 C 0.65756 0.84671 0.49094 0.0
C2519 C 0.61002 0.89744 0.49061 0.0
C2520 C 0.62532 0.87915 0.49187 0.0
H2521 H 0.70864 0.80872 0.45005 0.0
H2522 H 0.67536 0.83078 0.4539 0.0
H2523 H 0.67479 0.86426 0.51562 0.0
H2524 H 0.58907 0.93595 0.52214 0.0
H2525 H 0.60956 0.90341 0.52494 0.0
C2526 C 0.6781 0.20484 0.49617 0.0
C2527 C 0.69301 0.21239 0.51187 0.0
C2528 C 0.65982 0.19252 0.50199 0.0
C2529 C 0.64324 0.15687 0.5451 0.0
H2530 H 0.59004 0.15178 0.50902 0.0
C2531 C 0.56467 0.09796 0.52195 0.0
C2532 C 0.57738 0.07966 0.52232 0.0
C2533 C 0.57464 0.11659 0.5278 0.0
C2534 C 0.60443 0.15312 0.51972 0.0
H2535 H 0.69936 0.21428 0.54617 0.0
H2536 H 0.66707 0.19316 0.55638 0.0
H2537 H 0.61399 0.18168 0.50546 0.0
H2538 H 0.61 0.06614 0.52966 0.0
H2539 H 0.62773 0.09848 0.53933 0.0
H2540 H 0.63361 0.12832 0.55943 0.0
C2541 C 0.66988 0.19629 0.5395 0.0
C2542 C 0.61844 0.17021 0.51738 0.0
C2543 C 0.68831 0.20852 0.53365 0.0
C2544 C 0.59973 0.08 0.52986 0.0
C2545 C 0.60987 0.09865 0.53534 0.0
C2546 C 0.62904 0.13989 0.54766 0.0
C2547 C 0.65582 0.18759 0.52369 0.0
C2548 C 0.63857 0.17185 0.52934 0.0
C2549 C 0.59774 0.11733 0.5335 0.0
C2550 C 0.60998 0.13733 0.53434 0.0
H2551 H 0.68119 0.20753 0.47924 0.0
H2552 H 0.64962 0.18593 0.48928 0.0
H2553 H 0.65859 0.15753 0.55461 0.0
H2554 H 0.54734 0.09797 0.51614 0.0
H2555 H 0.56458 0.13054 0.52673 0.0
C2556 C 0.84143 0.69995 0.45616 0.0
C2557 C 0.82918 0.71048 0.47218 0.0
C2558 C 0.85537 0.6832 0.46149 0.0
C2559 C 0.8871 0.6618 0.50736 0.0
H2560 H 0.89198 0.61281 0.472 0.0
C2561 C 0.93871 0.59127 0.53481 0.0
C2562 C 0.95213 0.58097 0.51946 0.0
C2563 C 0.92316 0.6064 0.52859 0.0
C2564 C 0.89099 0.62649 0.48191 0.0
H2565 H 0.82135 0.71121 0.50624 0.0
H2566 H 0.84546 0.68194 0.51548 0.0
H2567 H 0.86528 0.64009 0.462 0.0
H2568 H 0.95957 0.57887 0.48549 0.0
H2569 H 0.93255 0.6053 0.47454 0.0
H2570 H 0.91287 0.64842 0.52716 0.0
C2571 C 0.84458 0.68681 0.49884 0.0
C2572 C 0.87566 0.6421 0.4762 0.0
C2573 C 0.83063 0.70351 0.49352 0.0
C2574 C 0.94948 0.58621 0.4977 0.0
C2575 C 0.93387 0.60139 0.49142 0.0
C2576 C 0.90242 0.64626 0.51303 0.0
C2577 C 0.85739 0.67666 0.48295 0.0
C2578 C 0.87348 0.6599 0.48893 0.0
C2579 C 0.92063 0.61176 0.50684 0.0
C2580 C 0.90449 0.62837 0.50045 0.0
H2581 H 0.84071 0.70493 0.43956 0.0
H2582 H 0.86513 0.67583 0.44889 0.0
H2583 H 0.88621 0.6755 0.51727 0.0
H2584 H 0.94016 0.58765 0.55176 0.0
H2585 H 0.91299 0.61382 0.54088 0.0
C2586 C 0.32945 0.82955 0.48892 0.0
C2587 C 0.32665 0.81148 0.50101 0.0
C2588 C 0.35024 0.8397 0.48862 0.0
C2589 C 0.40171 0.84585 0.52144 0.0
H2590 H 0.42202 0.87736 0.47221 0.0
C2591 C 0.47853 0.8993 0.52795 0.0
C2592 C 0.47415 0.91952 0.52098 0.0
C2593 C 0.46402 0.88328 0.52221 0.0
C2594 C 0.41658 0.86861 0.48607 0.0
H2595 H 0.34387 0.78936 0.52149 0.0
H2596 H 0.38034 0.80692 0.5207 0.0
H2597 H 0.39001 0.85398 0.46841 0.0
H2598 H 0.45201 0.93846 0.50125 0.0
H2599 H 0.42684 0.91053 0.49115 0.0
H2600 H 0.42792 0.86079 0.53921 0.0
C2601 C 0.36629 0.81347 0.51177 0.0
C2602 C 0.3982 0.85525 0.48393 0.0
C2603 C 0.34541 0.80333 0.51213 0.0
C2604 C 0.45586 0.92308 0.50694 0.0
C2605 C 0.44145 0.90703 0.50108 0.0
C2606 C 0.42014 0.8591 0.52354 0.0
C2607 C 0.36884 0.83199 0.50031 0.0
C2608 C 0.39017 0.84409 0.50173 0.0
C2609 C 0.44493 0.88709 0.50924 0.0
C2610 C 0.42746 0.87099 0.50602 0.0
H2611 H 0.31538 0.83627 0.48014 0.0
H2612 H 0.35141 0.85406 0.47988 0.0
H2613 H 0.39585 0.83777 0.53558 0.0
H2614 H 0.4926 0.89597 0.53862 0.0
H2615 H 0.46735 0.868 0.52847 0.0
C2616 C 0.22053 0.32352 0.52448 0.0
C2617 C 0.22696 0.31073 0.50726 0.0
C2618 C 0.20567 0.34008 0.52113 0.0
C2619 C 0.16047 0.3576 0.48512 0.0
H2620 H 0.1733 0.41214 0.50718 0.0
C2621 C 0.09615 0.42489 0.47971 0.0
C2622 C 0.10487 0.44328 0.4713 0.0
C2623 C 0.11073 0.4088 0.48559 0.0
C2624 C 0.16951 0.39697 0.50096 0.0
H2625 H 0.22304 0.30541 0.47301 0.0
H2626 H 0.197 0.33418 0.46727 0.0
H2627 H 0.19981 0.38381 0.51434 0.0
H2628 H 0.1357 0.45943 0.46295 0.0
H2629 H 0.16112 0.4314 0.47343 0.0
H2630 H 0.13027 0.37073 0.47163 0.0
C2631 C 0.20341 0.33135 0.48334 0.0
C2632 C 0.18458 0.38077 0.50517 0.0
C2633 C 0.21844 0.31498 0.48661 0.0
C2634 C 0.12846 0.44541 0.46929 0.0
C2635 C 0.14303 0.42944 0.47543 0.0
C2636 C 0.14528 0.37372 0.48115 0.0
C2637 C 0.19676 0.34398 0.50057 0.0
C2638 C 0.18034 0.36099 0.49704 0.0
C2639 C 0.13431 0.41091 0.48345 0.0
C2640 C 0.14978 0.39361 0.48882 0.0
H2641 H 0.2268 0.32063 0.54057 0.0
H2642 H 0.20074 0.34954 0.53471 0.0
H2643 H 0.15668 0.34245 0.47885 0.0
H2644 H 0.07804 0.42278 0.48144 0.0
H2645 H 0.10357 0.39471 0.49185 0.0
C2646 C 0.35111 0.20464 0.49921 0.0
C2647 C 0.34276 0.20763 0.52018 0.0
C2648 C 0.36736 0.18934 0.49506 0.0
C2649 C 0.38159 0.13891 0.51339 0.0
H2650 H 0.44145 0.14448 0.48842 0.0
C2651 C 0.43742 0.06805 0.50054 0.0
C2652 C 0.45789 0.0696 0.51183 0.0
C2653 C 0.42474 0.08574 0.49586 0.0
C2654 C 0.42465 0.14274 0.49515 0.0
H2655 H 0.346 0.19779 0.55342 0.0
H2656 H 0.37391 0.17093 0.54601 0.0
H2657 H 0.41702 0.17507 0.49268 0.0
H2658 H 0.48206 0.09064 0.52589 0.0
H2659 H 0.46006 0.1216 0.51753 0.0
H2660 H 0.38906 0.10682 0.51628 0.0
C2661 C 0.36788 0.18044 0.53286 0.0
C2662 C 0.41076 0.16015 0.49757 0.0
C2663 C 0.35197 0.19587 0.53707 0.0
C2664 C 0.46629 0.08913 0.5171 0.0
C2665 C 0.45379 0.10682 0.51219 0.0
C2666 C 0.39522 0.12153 0.51063 0.0
C2667 C 0.37521 0.17668 0.51176 0.0
C2668 C 0.38936 0.15838 0.50722 0.0
C2669 C 0.43247 0.10523 0.5023 0.0
C2670 C 0.41707 0.1233 0.50191 0.0
H2671 H 0.34443 0.21351 0.48588 0.0
H2672 H 0.37285 0.18668 0.47867 0.0
H2673 H 0.36505 0.1372 0.52071 0.0
H2674 H 0.43036 0.05314 0.49686 0.0
H2675 H 0.40834 0.08411 0.48822 0.0
C2676 C 0.81996 0.32544 0.51889 0.0
C2677 C 0.81336 0.31855 0.49842 0.0
C2678 C 0.8345 0.34218 0.52107 0.0
C2679 C 0.87771 0.37146 0.49123 0.0
H2680 H 0.87088 0.40974 0.53866 0.0
C2681 C 0.93515 0.44294 0.50352 0.0
C2682 C 0.94267 0.44633 0.52469 0.0
C2683 C 0.91888 0.4279 0.4992 0.0
C2684 C 0.87308 0.39909 0.52541 0.0
H2685 H 0.81634 0.32422 0.46418 0.0
H2686 H 0.84142 0.35372 0.468 0.0
H2687 H 0.84252 0.38319 0.53303 0.0
H2688 H 0.93935 0.43629 0.55781 0.0
H2689 H 0.91112 0.41014 0.55024 0.0
H2690 H 0.90835 0.38748 0.48368 0.0
C2691 C 0.83568 0.34592 0.48236 0.0
C2692 C 0.85685 0.38386 0.52219 0.0
C2693 C 0.82117 0.32911 0.48018 0.0
C2694 C 0.93388 0.43415 0.54134 0.0
C2695 C 0.91757 0.41925 0.53704 0.0
C2696 C 0.89391 0.3868 0.49439 0.0
C2697 C 0.84272 0.35252 0.50283 0.0
C2698 C 0.85913 0.36966 0.50526 0.0
C2699 C 0.90973 0.41608 0.51597 0.0
C2700 C 0.89193 0.40057 0.51172 0.0
H2701 H 0.81434 0.31759 0.53327 0.0
H2702 H 0.83982 0.34663 0.53707 0.0
H2703 H 0.88016 0.36063 0.47819 0.0
H2704 H 0.94161 0.45205 0.49033 0.0
H2705 H 0.9131 0.42583 0.48281 0.0
C2706 C 0.21516 0.6985 0.52173 0.0
C2707 C 0.2236 0.70261 0.54239 0.0
C2708 C 0.20273 0.68069 0.51773 0.0
C2709 C 0.16968 0.64008 0.54561 0.0
H2710 H 0.17055 0.61589 0.48869 0.0
C2711 C 0.09842 0.58724 0.51471 0.0
C2712 C 0.1033 0.57299 0.49843 0.0
C2713 C 0.11535 0.60028 0.52247 0.0
C2714 C 0.17032 0.62207 0.50485 0.0
H2715 H 0.22624 0.69093 0.57493 0.0
H2716 H 0.20531 0.65938 0.56778 0.0
H2717 H 0.1967 0.64317 0.4973 0.0
H2718 H 0.12968 0.56016 0.47827 0.0
H2719 H 0.15957 0.58207 0.4925 0.0
H2720 H 0.14378 0.6184 0.55334 0.0
C2721 C 0.20768 0.67021 0.55477 0.0
C2722 C 0.18511 0.6381 0.50967 0.0
C2723 C 0.21984 0.68823 0.55886 0.0
C2724 C 0.12555 0.57119 0.49077 0.0
C2725 C 0.14259 0.58389 0.49882 0.0
C2726 C 0.15511 0.62376 0.54089 0.0
C2727 C 0.19872 0.66629 0.53419 0.0
C2728 C 0.18461 0.64773 0.52992 0.0
C2729 C 0.13758 0.59913 0.51424 0.0
C2730 C 0.15484 0.61484 0.52027 0.0
H2731 H 0.21757 0.70936 0.50874 0.0
H2732 H 0.19574 0.67856 0.50179 0.0
H2733 H 0.16863 0.64711 0.56136 0.0
H2734 H 0.08126 0.58916 0.52052 0.0
H2735 H 0.11064 0.61195 0.53408 0.0
loop_
_geom_bond_atom_site_label_1
_geom_bond_atom_site_label_2
_geom_bond_distance
_geom_bond_site_symmetry_2
_ccdc_geom_bond_type
O0 Cd1 2.300 . S
O0 C7 1.275 . S
Cd1 O0 2.300 . S
Cd1 O9 2.381 . S
Cd1 O10 2.378 . S
O2 Cd3 2.385 1_455 S
O2 C7 1.255 . S
Cd3 O2 2.385 1_655 S
Cd3 O4 2.317 1_655 S
O4 Cd3 2.317 1_455 S
O4 C5 1.232 . S
C5 O4 1.232 . S
C5 O6 1.218 . S
O6 C5 1.218 . S
C7 O0 1.275 . S
C7 O2 1.255 . S
C8 O9 1.258 . S
C8 O10 1.256 . S
O9 Cd1 2.381 . S
O9 C8 1.258 . S
O10 Cd1 2.378 . S
O10 C8 1.256 . S
O11 Cd12 2.300 . S
O11 C18 1.275 . S
Cd12 O11 2.300 . S
Cd12 O20 2.381 . S
Cd12 O21 2.378 . S
O13 Cd14 2.385 . S
O13 C18 1.255 . S
Cd14 O13 2.385 . S
Cd14 O15 2.317 . S
O15 Cd14 2.317 . S
O15 C16 1.232 . S
C16 O15 1.232 . S
C16 O17 1.218 . S
O17 C16 1.218 . S
C18 O11 1.275 . S
C18 O13 1.255 . S
C19 O20 1.258 . S
C19 O21 1.256 . S
O20 Cd12 2.381 . S
O20 C19 1.258 . S
O21 Cd12 2.378 . S
O21 C19 1.256 . S
O22 Cd23 2.300 . S
O22 C29 1.275 . S
Cd23 O22 2.300 . S
Cd23 O31 2.381 . S
Cd23 O32 2.378 . S
O24 Cd25 2.385 . S
O24 C29 1.255 . S
Cd25 O24 2.385 . S
Cd25 O26 2.317 . S
O26 Cd25 2.317 . S
O26 C27 1.232 . S
C27 O26 1.232 . S
C27 O28 1.218 . S
O28 C27 1.218 . S
C29 O22 1.275 . S
C29 O24 1.255 . S
C30 O31 1.258 . S
C30 O32 1.256 . S
O31 Cd23 2.381 . S
O31 C30 1.258 . S
O32 Cd23 2.378 . S
O32 C30 1.256 . S
O33 Cd34 2.300 1_545 S
O33 C40 1.287 . S
Cd34 O33 2.300 1_565 S
Cd34 O42 2.381 1_565 S
Cd34 O43 2.378 . S
O35 Cd36 2.385 . S
O35 C40 1.235 1_565 S
Cd36 O35 2.385 . S
Cd36 O37 2.317 . S
O37 Cd36 2.317 . S
O37 C38 1.232 . S
C38 O37 1.232 . S
C38 O39 1.218 . S
O39 C38 1.218 . S
C40 O33 1.287 . S
C40 O35 1.235 1_545 S
C41 O42 1.258 . S
C41 O43 1.256 1_545 S
O42 Cd34 2.381 1_545 S
O42 C41 1.258 . S
O43 Cd34 2.378 . S
O43 C41 1.256 1_565 S
O44 Cd45 2.300 1_455 S
O44 C51 1.275 1_455 S
Cd45 O44 2.300 1_655 S
Cd45 O53 2.381 1_655 S
Cd45 O54 2.378 . S
O46 Cd47 2.385 . S
O46 C51 1.255 . S
Cd47 O46 2.385 . S
Cd47 O48 2.317 . S
O48 Cd47 2.317 . S
O48 C49 1.232 . S
C49 O48 1.232 . S
C49 O50 1.218 . S
O50 C49 1.218 . S
C51 O44 1.275 1_655 S
C51 O46 1.255 . S
C52 O53 1.258 1_655 S
C52 O54 1.256 . S
O53 Cd45 2.381 1_455 S
O53 C52 1.258 1_455 S
O54 Cd45 2.378 . S
O54 C52 1.256 . S
O55 Cd56 2.300 . S
O55 C62 1.275 . S
Cd56 O55 2.300 . S
Cd56 O64 2.369 1_545 S
Cd56 O65 2.378 . S
O57 Cd58 2.385 . S
O57 C62 1.255 . S
Cd58 O57 2.385 . S
Cd58 O59 2.317 . S
O59 Cd58 2.317 . S
O59 C60 1.232 . S
C60 O59 1.232 . S
C60 O61 1.218 . S
O61 C60 1.218 . S
C62 O55 1.275 . S
C62 O57 1.255 . S
C63 O64 1.247 1_545 S
C63 O65 1.256 . S
O64 Cd56 2.369 1_565 S
O64 C63 1.247 1_565 S
O65 Cd56 2.378 . S
O65 C63 1.256 . S
O66 Cd67 2.300 . S
O66 C73 1.275 . S
Cd67 O66 2.300 . S
Cd67 O75 2.381 . S
Cd67 O76 2.378 . S
O68 Cd69 2.385 . S
O68 C73 1.255 . S
Cd69 O68 2.385 . S
Cd69 O70 2.317 . S
O70 Cd69 2.317 . S
O70 C71 1.232 . S
C71 O70 1.232 . S
C71 O72 1.218 . S
O72 C71 1.218 . S
C73 O66 1.275 . S
C73 O68 1.255 . S
C74 O75 1.258 . S
C74 O76 1.256 . S
O75 Cd67 2.381 . S
O75 C74 1.258 . S
O76 Cd67 2.378 . S
O76 C74 1.256 . S
O77 Cd78 2.300 . S
O77 C84 1.275 . S
Cd78 O77 2.300 . S
Cd78 O86 2.381 . S
Cd78 O87 2.378 . S
O79 Cd80 2.385 1_545 S
O79 C84 1.255 . S
Cd80 O79 2.385 1_565 S
Cd80 O81 2.317 1_565 S
O81 Cd80 2.317 1_545 S
O81 C82 1.232 . S
C82 O81 1.232 . S
C82 O83 1.218 . S
O83 C82 1.218 . S
C84 O77 1.275 . S
C84 O79 1.255 . S
C85 O86 1.258 . S
C85 O87 1.256 . S
O86 Cd78 2.381 . S
O86 C85 1.258 . S
O87 Cd78 2.378 . S
O87 C85 1.256 . S
O88 Cd89 2.300 . S
O88 C95 1.275 . S
Cd89 O88 2.300 . S
Cd89 O97 2.381 . S
Cd89 O98 2.378 . S
O90 Cd91 2.385 . S
O90 C95 1.255 . S
Cd91 O90 2.385 . S
Cd91 O92 2.317 . S
O92 Cd91 2.317 . S
O92 C93 1.232 . S
C93 O92 1.232 . S
C93 O94 1.218 . S
O94 C93 1.218 . S
C95 O88 1.275 . S
C95 O90 1.255 . S
C96 O97 1.258 . S
C96 O98 1.256 . S
O97 Cd89 2.381 . S
O97 C96 1.258 . S
O98 Cd89 2.378 . S
O98 C96 1.256 . S
O99 Cd100 2.301 . S
O99 C106 1.275 . S
Cd100 O99 2.301 . S
Cd100 O108 2.383 . S
Cd100 O109 2.378 1_554 S
O101 Cd102 2.385 . S
O101 C106 1.255 1_556 S
Cd102 O101 2.385 . S
Cd102 O103 2.317 . S
O103 Cd102 2.317 . S
O103 C104 1.232 1_556 S
C104 O103 1.232 1_554 S
C104 O105 1.218 1_554 S
O105 C104 1.218 1_556 S
C106 O99 1.275 . S
C106 O101 1.255 1_554 S
C107 O108 1.258 . S
C107 O109 1.256 1_554 S
O108 Cd100 2.383 . S
O108 C107 1.258 . S
O109 Cd100 2.378 1_556 S
O109 C107 1.256 1_556 S
O110 Cd111 2.300 1_554 S
O110 C117 1.275 1_554 S
Cd111 O110 2.300 1_556 S
Cd111 O119 2.381 1_556 S
Cd111 O120 2.378 . S
O112 Cd113 2.385 . S
O112 C117 1.255 . S
Cd113 O112 2.385 . S
Cd113 O114 2.317 . S
O114 Cd113 2.317 . S
O114 C115 1.232 . S
C115 O114 1.232 . S
C115 O116 1.218 . S
O116 C115 1.218 . S
C117 O110 1.275 1_556 S
C117 O112 1.255 . S
C118 O119 1.240 1_556 S
C118 O120 1.281 . S
O119 Cd111 2.381 1_554 S
O119 C118 1.240 1_554 S
O120 Cd111 2.378 . S
O120 C118 1.281 . S
O121 Cd122 2.300 1_556 S
O121 C128 1.275 1_556 S
Cd122 O121 2.300 1_554 S
Cd122 O130 2.381 1_554 S
Cd122 O131 2.378 . S
O123 Cd124 2.385 . S
O123 C128 1.255 . S
Cd124 O123 2.385 . S
Cd124 O125 2.317 . S
O125 Cd124 2.317 . S
O125 C126 1.232 . S
C126 O125 1.232 . S
C126 O127 1.218 . S
O127 C126 1.218 . S
C128 O121 1.275 1_554 S
C128 O123 1.255 . S
C129 O130 1.258 1_554 S
C129 O131 1.256 . S
O130 Cd122 2.381 1_556 S
O130 C129 1.258 1_556 S
O131 Cd122 2.378 . S
O131 C129 1.256 . S
O132 Cd133 2.300 . S
O132 C139 1.275 . S
Cd133 O132 2.300 . S
Cd133 O141 2.381 . S
Cd133 O142 2.378 . S
O134 Cd135 2.385 . S
O134 C139 1.255 . S
Cd135 O134 2.385 . S
Cd135 O136 2.317 . S
O136 Cd135 2.317 . S
O136 C137 1.232 . S
C137 O136 1.232 . S
C137 O138 1.218 . S
O138 C137 1.218 . S
C139 O132 1.275 . S
C139 O134 1.255 . S
C140 O141 1.258 . S
C140 O142 1.256 . S
O141 Cd133 2.381 . S
O141 C140 1.258 . S
O142 Cd133 2.378 . S
O142 C140 1.256 . S
O143 Cd144 2.300 . S
O143 C150 1.275 . S
Cd144 O143 2.300 . S
Cd144 O152 2.381 . S
Cd144 O153 2.378 . S
O145 Cd146 2.385 . S
O145 C150 1.255 . S
Cd146 O145 2.385 . S
Cd146 O147 2.317 . S
O147 Cd146 2.317 . S
O147 C148 1.232 . S
C148 O147 1.232 . S
C148 O149 1.218 . S
O149 C148 1.218 . S
C150 O143 1.275 . S
C150 O145 1.255 . S
C151 O152 1.258 . S
C151 O153 1.256 . S
O152 Cd144 2.381 . S
O152 C151 1.258 . S
O153 Cd144 2.378 . S
O153 C151 1.256 . S
O154 Cd155 2.300 . S
O154 C161 1.275 . S
Cd155 O154 2.300 . S
Cd155 O163 2.381 . S
Cd155 O164 2.378 . S
O156 Cd157 2.385 . S
O156 C161 1.255 . S
Cd157 O156 2.385 . S
Cd157 O158 2.317 . S
O158 Cd157 2.317 . S
O158 C159 1.232 . S
C159 O158 1.232 . S
C159 O160 1.218 . S
O160 C159 1.218 . S
C161 O154 1.275 . S
C161 O156 1.255 . S
C162 O163 1.258 . S
C162 O164 1.256 . S
O163 Cd155 2.381 . S
O163 C162 1.258 . S
O164 Cd155 2.378 . S
O164 C162 1.256 . S
O165 Cd166 2.300 . S
O165 C172 1.275 . S
Cd166 O165 2.300 . S
Cd166 O174 2.381 . S
Cd166 O175 2.378 . S
O167 Cd168 2.385 . S
O167 C172 1.255 . S
Cd168 O167 2.385 . S
Cd168 O169 2.317 . S
O169 Cd168 2.317 . S
O169 C170 1.232 . S
C170 O169 1.232 . S
C170 O171 1.218 . S
O171 C170 1.218 . S
C172 O165 1.275 . S
C172 O167 1.255 . S
C173 O174 1.258 . S
C173 O175 1.256 . S
O174 Cd166 2.381 . S
O174 C173 1.258 . S
O175 Cd166 2.378 . S
O175 C173 1.256 . S
O176 Cd177 2.300 . S
O176 C183 1.275 . S
Cd177 O176 2.300 . S
Cd177 O185 2.381 . S
Cd177 O186 2.378 . S
O178 Cd179 2.385 . S
O178 C183 1.255 . S
Cd179 O178 2.385 . S
Cd179 O180 2.317 . S
O180 Cd179 2.317 . S
O180 C181 1.232 . S
C181 O180 1.232 . S
C181 O182 1.218 . S
O182 C181 1.218 . S
C183 O176 1.275 . S
C183 O178 1.255 . S
C184 O185 1.258 . S
C184 O186 1.256 . S
O185 Cd177 2.381 . S
O185 C184 1.258 . S
O186 Cd177 2.378 . S
O186 C184 1.256 . S
O187 Cd188 2.300 . S
O187 C194 1.275 . S
Cd188 O187 2.300 . S
Cd188 O196 2.381 . S
Cd188 O197 2.378 . S
O189 Cd190 2.385 . S
O189 C194 1.255 . S
Cd190 O189 2.385 . S
Cd190 O191 2.317 . S
O191 Cd190 2.317 . S
O191 C192 1.232 . S
C192 O191 1.232 . S
C192 O193 1.218 . S
O193 C192 1.218 . S
C194 O187 1.275 . S
C194 O189 1.255 . S
C195 O196 1.258 . S
C195 O197 1.256 . S
O196 Cd188 2.381 . S
O196 C195 1.258 . S
O197 Cd188 2.378 . S
O197 C195 1.256 . S
O198 Cd199 2.300 . S
O198 C205 1.275 . S
Cd199 O198 2.300 . S
Cd199 O207 2.381 . S
Cd199 O208 2.378 . S
O200 Cd201 2.385 . S
O200 C205 1.255 . S
Cd201 O200 2.385 . S
Cd201 O202 2.317 . S
O202 Cd201 2.317 . S
O202 C203 1.232 . S
C203 O202 1.232 . S
C203 O204 1.218 . S
O204 C203 1.218 . S
C205 O198 1.275 . S
C205 O200 1.255 . S
C206 O207 1.258 . S
C206 O208 1.256 . S
O207 Cd199 2.381 . S
O207 C206 1.258 . S
O208 Cd199 2.378 . S
O208 C206 1.256 . S
O209 Cd210 2.300 . S
O209 C216 1.275 . S
Cd210 O209 2.300 . S
Cd210 O218 2.381 . S
Cd210 O219 2.378 . S
O211 Cd212 2.385 . S
O211 C216 1.255 . S
Cd212 O211 2.385 . S
Cd212 O213 2.317 . S
O213 Cd212 2.317 . S
O213 C214 1.232 . S
C214 O213 1.232 . S
C214 O215 1.218 . S
O215 C214 1.218 . S
C216 O209 1.275 . S
C216 O211 1.255 . S
C217 O218 1.258 . S
C217 O219 1.256 . S
O218 Cd210 2.381 . S
O218 C217 1.258 . S
O219 Cd210 2.378 . S
O219 C217 1.256 . S
O220 Cd221 2.300 . S
O220 C227 1.275 . S
Cd221 O220 2.300 . S
Cd221 O229 2.381 . S
Cd221 O230 2.378 . S
O222 Cd223 2.385 . S
O222 C227 1.255 . S
Cd223 O222 2.385 . S
Cd223 O224 2.317 . S
O224 Cd223 2.317 . S
O224 C225 1.232 . S
C225 O224 1.232 . S
C225 O226 1.218 . S
O226 C225 1.218 . S
C227 O220 1.275 . S
C227 O222 1.255 . S
C228 O229 1.258 . S
C228 O230 1.256 . S
O229 Cd221 2.381 . S
O229 C228 1.258 . S
O230 Cd221 2.378 . S
O230 C228 1.256 . S
O231 Cd232 2.300 . S
O231 C238 1.275 . S
Cd232 O231 2.300 . S
Cd232 O240 2.381 . S
Cd232 O241 2.378 . S
O233 Cd234 2.385 . S
O233 C238 1.255 . S
Cd234 O233 2.385 . S
Cd234 O235 2.317 . S
O235 Cd234 2.317 . S
O235 C236 1.232 . S
C236 O235 1.232 . S
C236 O237 1.218 . S
O237 C236 1.218 . S
C238 O231 1.275 . S
C238 O233 1.255 . S
C239 O240 1.258 . S
C239 O241 1.256 . S
O240 Cd232 2.381 . S
O240 C239 1.258 . S
O241 Cd232 2.378 . S
O241 C239 1.256 . S
O242 Cd243 2.300 . S
O242 C249 1.275 . S
Cd243 O242 2.300 . S
Cd243 O251 2.381 . S
Cd243 O252 2.378 . S
O244 Cd245 2.385 . S
O244 C249 1.255 . S
Cd245 O244 2.385 . S
Cd245 O246 2.317 . S
O246 Cd245 2.317 . S
O246 C247 1.232 . S
C247 O246 1.232 . S
C247 O248 1.218 . S
O248 C247 1.218 . S
C249 O242 1.275 . S
C249 O244 1.255 . S
C250 O251 1.258 . S
C250 O252 1.256 . S
O251 Cd243 2.381 . S
O251 C250 1.258 . S
O252 Cd243 2.378 . S
O252 C250 1.256 . S
O253 Cd254 2.300 . S
O253 C260 1.275 . S
Cd254 O253 2.300 . S
Cd254 O262 2.381 . S
Cd254 O263 2.378 . S
O255 Cd256 2.385 . S
O255 C260 1.255 . S
Cd256 O255 2.385 . S
Cd256 O257 2.317 . S
O257 Cd256 2.317 . S
O257 C258 1.232 . S
C258 O257 1.232 . S
C258 O259 1.218 . S
O259 C258 1.218 . S
C260 O253 1.275 . S
C260 O255 1.255 . S
C261 O262 1.258 . S
C261 O263 1.256 . S
O262 Cd254 2.381 . S
O262 C261 1.258 . S
O263 Cd254 2.378 . S
O263 C261 1.256 . S
Zn264 O266 1.933 1_665 S
Zn264 O284 1.985 1_565 S
Zn264 O295 1.955 1_655 S
Zn265 O266 1.911 1_655 S
Zn265 O285 1.970 . S
Zn265 O301 1.945 1_655 S
Zn265 O308 1.981 . S
O266 Zn264 1.933 1_445 S
O266 Zn265 1.911 1_455 S
O266 H267 0.841 . S
H267 O266 0.841 . S
C268 O269 1.246 . S
C268 O297 1.276 . S
O269 C268 1.246 . S
Zn270 O272 1.911 . S
Zn270 O287 1.970 . S
Zn270 O304 1.945 . S
Zn270 O311 1.981 . S
Zn271 O272 1.933 1_565 S
Zn271 O286 1.985 1_565 S
Zn271 O293 1.955 . S
O272 Zn270 1.911 . S
O272 Zn271 1.933 1_545 S
O272 H273 0.841 . S
H273 O272 0.841 . S
Zn274 O275 1.933 1_565 S
Zn274 O288 1.985 1_565 S
Zn274 O297 1.955 . S
O275 Zn274 1.933 1_545 S
O275 Zn276 1.911 . S
O275 H277 0.841 . S
Zn276 O275 1.911 . S
Zn276 O289 1.970 . S
Zn276 O305 1.981 1_655 S
Zn276 O307 1.945 . S
H277 O275 0.841 . S
Zn278 O279 1.933 1_565 S
Zn278 O291 1.985 1_565 S
Zn278 O299 1.955 . S
O279 Zn278 1.933 1_545 S
O279 H280 0.841 . S
O279 Zn281 1.911 . S
H280 O279 0.841 . S
Zn281 O279 1.911 . S
Zn281 O292 1.970 . S
Zn281 O302 1.981 . S
Zn281 O310 1.945 . S
C282 O283 1.246 . S
C282 O299 1.276 . S
O283 C282 1.246 . S
O284 Zn264 1.985 1_545 S
O284 C294 1.245 . S
O285 Zn265 1.970 . S
O285 C294 1.263 . S
O286 Zn271 1.985 1_545 S
O286 C298 1.245 . S
O287 Zn270 1.970 . S
O287 C298 1.263 . S
O288 Zn274 1.985 1_545 S
O288 C303 1.245 . S
O289 Zn276 1.970 . S
O289 C303 1.263 . S
C290 O301 1.262 . S
C290 O302 1.245 . S
O291 Zn278 1.985 1_545 S
O291 C309 1.245 . S
O292 Zn281 1.970 . S
O292 C309 1.263 . S
O293 Zn271 1.955 . S
O293 C312 1.276 . S
C294 O284 1.245 . S
C294 O285 1.263 . S
O295 Zn264 1.955 1_455 S
O295 C314 1.276 . S
C296 O304 1.262 . S
C296 O305 1.245 . S
O297 C268 1.276 . S
O297 Zn274 1.955 . S
C298 O286 1.245 . S
C298 O287 1.263 . S
O299 Zn278 1.955 . S
O299 C282 1.276 . S
C300 O307 1.262 . S
C300 O308 1.245 . S
O301 Zn265 1.945 1_455 S
O301 C290 1.262 . S
O302 Zn281 1.981 . S
O302 C290 1.245 . S
C303 O288 1.245 . S
C303 O289 1.263 . S
O304 Zn270 1.945 . S
O304 C296 1.262 . S
O305 Zn276 1.981 1_455 S
O305 C296 1.245 . S
C306 O310 1.262 . S
C306 O311 1.245 . S
O307 Zn276 1.945 . S
O307 C300 1.262 . S
O308 Zn265 1.981 . S
O308 C300 1.245 . S
C309 O291 1.245 . S
C309 O292 1.263 . S
O310 Zn281 1.945 . S
O310 C306 1.262 . S
O311 Zn270 1.981 . S
O311 C306 1.245 . S
C312 O293 1.276 . S
C312 O313 1.246 . S
O313 C312 1.246 . S
C314 O295 1.276 . S
C314 O315 1.246 . S
O315 C314 1.246 . S
Zn316 O318 1.933 . S
Zn316 O336 1.985 . S
Zn316 O347 1.955 . S
Zn317 O318 1.911 1_556 S
Zn317 O337 1.970 . S
Zn317 O353 1.945 . S
Zn317 O360 1.981 . S
O318 Zn316 1.933 . S
O318 Zn317 1.911 1_554 S
O318 H319 0.841 . S
H319 O318 0.841 . S
C320 O321 1.246 . S
C320 O349 1.276 . S
O321 C320 1.246 . S
Zn322 O324 1.911 1_566 S
Zn322 O339 1.970 . S
Zn322 O356 1.945 1_565 S
Zn322 O363 1.981 . S
Zn323 O324 1.933 1_565 S
Zn323 O338 1.985 . S
Zn323 O345 1.955 1_565 S
O324 Zn322 1.911 1_544 S
O324 Zn323 1.933 1_545 S
O324 H325 0.841 . S
H325 O324 0.841 . S
Zn326 O327 1.933 . S
Zn326 O340 1.985 . S
Zn326 O349 1.955 . S
O327 Zn326 1.933 . S
O327 Zn328 1.911 1_554 S
O327 H329 0.841 . S
Zn328 O327 1.911 1_556 S
Zn328 O341 1.970 . S
Zn328 O357 1.981 . S
Zn328 O359 1.945 . S
H329 O327 0.841 . S
Zn330 O331 1.933 . S
Zn330 O343 1.985 . S
Zn330 O351 1.955 . S
O331 Zn330 1.933 . S
O331 H332 0.841 . S
O331 Zn333 1.911 1_554 S
H332 O331 0.841 . S
Zn333 O331 1.911 1_556 S
Zn333 O344 1.970 . S
Zn333 O354 1.981 1_565 S
Zn333 O362 1.945 . S
C334 O335 1.246 . S
C334 O351 1.276 . S
O335 C334 1.246 . S
O336 Zn316 1.985 . S
O336 C346 1.245 . S
O337 Zn317 1.970 . S
O337 C346 1.263 1_556 S
O338 Zn323 1.985 . S
O338 C350 1.245 . S
O339 Zn322 1.970 . S
O339 C350 1.263 1_556 S
O340 Zn326 1.985 . S
O340 C355 1.245 . S
O341 Zn328 1.970 . S
O341 C355 1.263 1_556 S
C342 O353 1.262 . S
C342 O354 1.245 . S
O343 Zn330 1.985 . S
O343 C361 1.245 . S
O344 Zn333 1.970 . S
O344 C361 1.263 1_556 S
O345 Zn323 1.955 1_545 S
O345 C364 1.276 . S
C346 O336 1.245 . S
C346 O337 1.263 1_554 S
O347 Zn316 1.955 . S
O347 C366 1.276 . S
C348 O356 1.262 . S
C348 O357 1.245 . S
O349 C320 1.276 . S
O349 Zn326 1.955 . S
C350 O338 1.245 . S
C350 O339 1.263 1_554 S
O351 Zn330 1.955 . S
O351 C334 1.276 . S
C352 O359 1.262 . S
C352 O360 1.245 . S
O353 Zn317 1.945 . S
O353 C342 1.262 . S
O354 Zn333 1.981 1_545 S
O354 C342 1.245 . S
C355 O340 1.245 . S
C355 O341 1.263 1_554 S
O356 Zn322 1.945 1_545 S
O356 C348 1.262 . S
O357 Zn328 1.981 . S
O357 C348 1.245 . S
C358 O362 1.262 . S
C358 O363 1.245 . S
O359 Zn328 1.945 . S
O359 C352 1.262 . S
O360 Zn317 1.981 . S
O360 C352 1.245 . S
C361 O343 1.245 . S
C361 O344 1.263 1_554 S
O362 Zn333 1.945 . S
O362 C358 1.262 . S
O363 Zn322 1.981 . S
O363 C358 1.245 . S
C364 O345 1.276 . S
C364 O365 1.246 . S
O365 C364 1.246 . S
C366 O347 1.276 . S
C366 O367 1.246 . S
O367 C366 1.246 . S
Zn368 O370 1.933 1_655 S
Zn368 O388 1.985 . S
Zn368 O399 1.955 1_655 S
Zn369 O370 1.911 1_655 S
Zn369 O389 1.970 . S
Zn369 O405 1.945 . S
Zn369 O412 1.981 . S
O370 Zn368 1.933 1_455 S
O370 Zn369 1.911 1_455 S
O370 H371 0.841 . S
H371 O370 0.841 . S
C372 O373 1.246 1_554 S
C372 O401 1.276 . S
O373 C372 1.246 1_556 S
Zn374 O376 1.911 . S
Zn374 O391 1.970 . S
Zn374 O408 1.945 . S
Zn374 O415 1.981 . S
Zn375 O376 1.933 . S
Zn375 O390 1.985 . S
Zn375 O397 1.955 . S
O376 Zn374 1.911 . S
O376 Zn375 1.933 . S
O376 H377 0.841 . S
H377 O376 0.841 . S
Zn378 O379 1.933 . S
Zn378 O392 1.985 . S
Zn378 O401 1.955 . S
O379 Zn378 1.933 . S
O379 Zn380 1.911 . S
O379 H381 0.841 . S
Zn380 O379 1.911 . S
Zn380 O393 1.970 . S
Zn380 O409 1.981 1_655 S
Zn380 O411 1.945 . S
H381 O379 0.841 . S
Zn382 O383 1.933 . S
Zn382 O395 1.985 . S
Zn382 O403 1.955 . S
O383 Zn382 1.933 . S
O383 H384 0.841 1_556 S
O383 Zn385 1.911 . S
H384 O383 0.841 1_554 S
Zn385 O383 1.911 . S
Zn385 O396 1.970 . S
Zn385 O406 1.981 . S
Zn385 O414 1.945 . S
C386 O387 1.246 . S
C386 O403 1.276 1_554 S
O387 C386 1.246 . S
O388 Zn368 1.985 . S
O388 C398 1.245 . S
O389 Zn369 1.970 . S
O389 C398 1.263 . S
O390 Zn375 1.985 . S
O390 C402 1.245 . S
O391 Zn374 1.970 . S
O391 C402 1.263 . S
O392 Zn378 1.985 . S
O392 C407 1.245 . S
O393 Zn380 1.970 . S
O393 C407 1.263 . S
C394 O405 1.262 1_455 S
C394 O406 1.245 . S
O395 Zn382 1.985 . S
O395 C413 1.245 . S
O396 Zn385 1.970 . S
O396 C413 1.263 . S
O397 Zn375 1.955 . S
O397 C416 1.276 . S
C398 O388 1.245 . S
C398 O389 1.263 . S
O399 Zn368 1.955 1_455 S
O399 C418 1.276 . S
C400 O408 1.262 . S
C400 O409 1.245 . S
O401 C372 1.276 . S
O401 Zn378 1.955 . S
C402 O390 1.245 . S
C402 O391 1.263 . S
O403 Zn382 1.955 . S
O403 C386 1.276 1_556 S
C404 O411 1.262 . S
C404 O412 1.245 1_554 S
O405 Zn369 1.945 . S
O405 C394 1.262 1_655 S
O406 Zn385 1.981 . S
O406 C394 1.245 . S
C407 O392 1.245 . S
C407 O393 1.263 . S
O408 Zn374 1.945 . S
O408 C400 1.262 . S
O409 Zn380 1.981 1_455 S
O409 C400 1.245 . S
C410 O414 1.262 1_554 S
C410 O415 1.245 . S
O411 Zn380 1.945 . S
O411 C404 1.262 . S
O412 Zn369 1.981 . S
O412 C404 1.245 1_556 S
C413 O395 1.245 . S
C413 O396 1.263 . S
O414 Zn385 1.945 . S
O414 C410 1.262 1_556 S
O415 Zn374 1.981 . S
O415 C410 1.245 . S
C416 O397 1.276 . S
C416 O417 1.246 . S
O417 C416 1.246 . S
C418 O399 1.276 . S
C418 O419 1.246 . S
O419 C418 1.246 . S
Zn420 O422 1.933 1_556 S
Zn420 O440 1.985 . S
Zn420 O451 1.955 . S
Zn421 O422 1.911 . S
Zn421 O441 1.970 . S
Zn421 O457 1.945 . S
Zn421 O464 1.981 . S
O422 Zn420 1.933 1_554 S
O422 Zn421 1.911 . S
O422 H423 0.841 . S
H423 O422 0.841 . S
C424 O425 1.246 . S
C424 O453 1.276 . S
O425 C424 1.246 . S
Zn426 O428 1.911 . S
Zn426 O443 1.970 . S
Zn426 O460 1.945 . S
Zn426 O467 1.981 . S
Zn427 O428 1.933 1_556 S
Zn427 O442 1.985 . S
Zn427 O449 1.955 . S
O428 Zn426 1.911 . S
O428 Zn427 1.933 1_554 S
O428 H429 0.841 . S
H429 O428 0.841 . S
Zn430 O431 1.933 1_556 S
Zn430 O444 1.985 . S
Zn430 O453 1.955 . S
O431 Zn430 1.933 1_554 S
O431 Zn432 1.911 . S
O431 H433 0.841 . S
Zn432 O431 1.911 . S
Zn432 O445 1.970 . S
Zn432 O461 1.981 . S
Zn432 O463 1.945 . S
H433 O431 0.841 . S
Zn434 O435 1.933 1_556 S
Zn434 O447 1.985 . S
Zn434 O455 1.955 . S
O435 Zn434 1.933 1_554 S
O435 H436 0.841 . S
O435 Zn437 1.911 . S
H436 O435 0.841 . S
Zn437 O435 1.911 . S
Zn437 O448 1.970 . S
Zn437 O458 1.981 . S
Zn437 O466 1.945 . S
C438 O439 1.246 . S
C438 O455 1.276 . S
O439 C438 1.246 . S
O440 Zn420 1.985 . S
O440 C450 1.245 1_556 S
O441 Zn421 1.970 . S
O441 C450 1.263 . S
O442 Zn427 1.985 . S
O442 C454 1.245 1_556 S
O443 Zn426 1.970 . S
O443 C454 1.263 . S
O444 Zn430 1.985 . S
O444 C459 1.245 1_556 S
O445 Zn432 1.970 . S
O445 C459 1.263 . S
C446 O457 1.262 . S
C446 O458 1.245 . S
O447 Zn434 1.985 . S
O447 C465 1.245 1_556 S
O448 Zn437 1.970 . S
O448 C465 1.263 . S
O449 Zn427 1.955 . S
O449 C468 1.276 . S
C450 O440 1.245 1_554 S
C450 O441 1.263 . S
O451 Zn420 1.955 . S
O451 C470 1.276 . S
C452 O460 1.262 . S
C452 O461 1.245 . S
O453 C424 1.276 . S
O453 Zn430 1.955 . S
C454 O442 1.245 1_554 S
C454 O443 1.263 . S
O455 Zn434 1.955 . S
O455 C438 1.276 . S
C456 O463 1.262 . S
C456 O464 1.245 . S
O457 Zn421 1.945 . S
O457 C446 1.262 . S
O458 Zn437 1.981 . S
O458 C446 1.245 . S
C459 O444 1.245 1_554 S
C459 O445 1.263 . S
O460 Zn426 1.945 . S
O460 C452 1.262 . S
O461 Zn432 1.981 . S
O461 C452 1.245 . S
C462 O466 1.262 . S
C462 O467 1.245 . S
O463 Zn432 1.945 . S
O463 C456 1.262 . S
O464 Zn421 1.981 . S
O464 C456 1.245 . S
C465 O447 1.245 1_554 S
C465 O448 1.263 . S
O466 Zn437 1.945 . S
O466 C462 1.262 . S
O467 Zn426 1.981 . S
O467 C462 1.245 . S
C468 O449 1.276 . S
C468 O469 1.246 . S
O469 C468 1.246 . S
C470 O451 1.276 . S
C470 O471 1.246 . S
O471 C470 1.246 . S
Zn472 O474 1.933 1_655 S
Zn472 O492 1.985 . S
Zn472 O503 1.955 1_655 S
Zn473 O474 1.911 1_655 S
Zn473 O493 1.970 . S
Zn473 O509 1.943 1_655 S
Zn473 O516 1.981 . S
O474 Zn472 1.933 1_455 S
O474 Zn473 1.911 1_455 S
O474 H475 0.841 . S
H475 O474 0.841 . S
C476 O477 1.246 . S
C476 O505 1.276 . S
O477 C476 1.246 . S
Zn478 O480 1.911 . S
Zn478 O495 1.970 . S
Zn478 O512 1.945 . S
Zn478 O519 1.981 . S
Zn479 O480 1.933 . S
Zn479 O494 1.985 . S
Zn479 O501 1.955 . S
O480 Zn478 1.911 . S
O480 Zn479 1.933 . S
O480 H481 0.841 . S
H481 O480 0.841 . S
Zn482 O483 1.933 . S
Zn482 O496 1.985 . S
Zn482 O505 1.955 . S
O483 Zn482 1.933 . S
O483 Zn484 1.911 . S
O483 H485 0.841 . S
Zn484 O483 1.911 . S
Zn484 O497 1.970 . S
Zn484 O513 1.981 1_655 S
Zn484 O515 1.945 . S
H485 O483 0.841 . S
Zn486 O487 1.933 . S
Zn486 O499 1.985 . S
Zn486 O507 1.955 . S
O487 Zn486 1.933 . S
O487 H488 0.841 . S
O487 Zn489 1.911 . S
H488 O487 0.841 . S
Zn489 O487 1.911 . S
Zn489 O500 1.970 . S
Zn489 O510 1.981 . S
Zn489 O518 1.945 . S
C490 O491 1.246 . S
C490 O507 1.276 . S
O491 C490 1.246 . S
O492 Zn472 1.985 . S
O492 C502 1.245 . S
O493 Zn473 1.970 . S
O493 C502 1.263 . S
O494 Zn479 1.985 . S
O494 C506 1.245 . S
O495 Zn478 1.970 . S
O495 C506 1.263 . S
O496 Zn482 1.985 . S
O496 C511 1.245 . S
O497 Zn484 1.970 . S
O497 C511 1.263 . S
C498 O509 1.267 . S
C498 O510 1.245 . S
O499 Zn486 1.985 . S
O499 C517 1.245 . S
O500 Zn489 1.970 . S
O500 C517 1.263 . S
O501 Zn479 1.955 . S
O501 C520 1.276 . S
C502 O492 1.245 . S
C502 O493 1.263 . S
O503 Zn472 1.955 1_455 S
O503 C522 1.276 . S
C504 O512 1.262 . S
C504 O513 1.245 . S
O505 C476 1.276 . S
O505 Zn482 1.955 . S
C506 O494 1.245 . S
C506 O495 1.263 . S
O507 Zn486 1.955 . S
O507 C490 1.276 . S
C508 O515 1.262 . S
C508 O516 1.245 . S
O509 Zn473 1.943 1_455 S
O509 C498 1.267 . S
O510 Zn489 1.981 . S
O510 C498 1.245 . S
C511 O496 1.245 . S
C511 O497 1.263 . S
O512 Zn478 1.945 . S
O512 C504 1.262 . S
O513 Zn484 1.981 1_455 S
O513 C504 1.245 . S
C514 O518 1.262 . S
C514 O519 1.245 . S
O515 Zn484 1.945 . S
O515 C508 1.262 . S
O516 Zn473 1.981 . S
O516 C508 1.245 . S
C517 O499 1.245 . S
C517 O500 1.263 . S
O518 Zn489 1.945 . S
O518 C514 1.262 . S
O519 Zn478 1.981 . S
O519 C514 1.245 . S
C520 O501 1.276 . S
C520 O521 1.246 . S
O521 C520 1.246 . S
C522 O503 1.276 . S
C522 O523 1.246 . S
O523 C522 1.246 . S
Zn524 O526 1.933 1_565 S
Zn524 O544 1.985 1_565 S
Zn524 O555 1.955 . S
Zn525 O526 1.911 . S
Zn525 O545 1.970 . S
Zn525 O561 1.945 . S
Zn525 O568 1.981 . S
O526 Zn524 1.933 1_545 S
O526 Zn525 1.911 . S
O526 H527 0.841 . S
H527 O526 0.841 . S
C528 O529 1.246 . S
C528 O557 1.276 . S
O529 C528 1.246 . S
Zn530 O532 1.911 . S
Zn530 O547 1.970 . S
Zn530 O564 1.945 . S
Zn530 O571 1.981 . S
Zn531 O532 1.933 1_565 S
Zn531 O546 1.985 1_565 S
Zn531 O553 1.955 . S
O532 Zn530 1.911 . S
O532 Zn531 1.933 1_545 S
O532 H533 0.841 . S
H533 O532 0.841 . S
Zn534 O535 1.933 1_565 S
Zn534 O548 1.985 1_565 S
Zn534 O557 1.955 . S
O535 Zn534 1.933 1_545 S
O535 Zn536 1.911 . S
O535 H537 0.841 . S
Zn536 O535 1.911 . S
Zn536 O549 1.970 . S
Zn536 O565 1.981 . S
Zn536 O567 1.945 . S
H537 O535 0.841 . S
Zn538 O539 1.891 1_565 S
Zn538 O551 1.974 1_565 S
Zn538 O559 2.004 . S
O539 Zn538 1.891 1_545 S
O539 H540 0.841 . S
O539 Zn541 1.911 . S
H540 O539 0.841 . S
Zn541 O539 1.911 . S
Zn541 O552 1.970 . S
Zn541 O562 1.981 . S
Zn541 O570 1.945 . S
C542 O543 1.246 . S
C542 O559 1.276 . S
O543 C542 1.246 . S
O544 Zn524 1.985 1_545 S
O544 C554 1.245 . S
O545 Zn525 1.970 . S
O545 C554 1.263 . S
O546 Zn531 1.985 1_545 S
O546 C558 1.245 . S
O547 Zn530 1.970 . S
O547 C558 1.263 . S
O548 Zn534 1.985 1_545 S
O548 C563 1.245 . S
O549 Zn536 1.970 . S
O549 C563 1.263 . S
C550 O561 1.262 . S
C550 O562 1.245 . S
O551 Zn538 1.974 1_545 S
O551 C569 1.245 . S
O552 Zn541 1.970 . S
O552 C569 1.263 . S
O553 Zn531 1.955 . S
O553 C572 1.276 . S
C554 O544 1.245 . S
C554 O545 1.263 . S
O555 Zn524 1.955 . S
O555 C574 1.276 . S
C556 O564 1.262 . S
C556 O565 1.245 . S
O557 C528 1.276 . S
O557 Zn534 1.955 . S
C558 O546 1.245 . S
C558 O547 1.263 . S
O559 Zn538 2.004 . S
O559 C542 1.276 . S
C560 O567 1.262 . S
C560 O568 1.245 . S
O561 Zn525 1.945 . S
O561 C550 1.262 . S
O562 Zn541 1.981 . S
O562 C550 1.245 . S
C563 O548 1.245 . S
C563 O549 1.263 . S
O564 Zn530 1.945 . S
O564 C556 1.262 . S
O565 Zn536 1.981 . S
O565 C556 1.245 . S
C566 O570 1.262 . S
C566 O571 1.245 . S
O567 Zn536 1.945 . S
O567 C560 1.262 . S
O568 Zn525 1.981 . S
O568 C560 1.245 . S
C569 O551 1.245 . S
C569 O552 1.263 . S
O570 Zn541 1.945 . S
O570 C566 1.262 . S
O571 Zn530 1.981 . S
O571 C566 1.245 . S
C572 O553 1.276 . S
C572 O573 1.246 . S
O573 C572 1.246 . S
C574 O555 1.276 . S
C574 O575 1.246 . S
O575 C574 1.246 . S
C576 C577 1.349 . S
C576 C578 1.327 . S
C576 H601 0.950 . S
C577 C576 1.349 . S
C577 C593 1.349 . S
C578 C576 1.327 . S
C578 C597 1.429 . S
C578 H602 0.950 . S
C579 C596 1.574 . S
C579 C598 1.368 . S
C579 H603 0.949 . S
H580 C584 0.949 . S
C581 C582 1.349 . S
C581 C583 1.327 . S
C581 H604 0.950 . S
C582 C581 1.349 . S
C582 C594 1.349 . S
C583 C581 1.327 . S
C583 C599 1.429 . S
C583 H605 0.950 . S
C584 H580 0.949 . S
C584 C592 1.574 . S
C584 C600 1.368 . S
H585 C593 0.950 . S
H586 C591 0.950 . S
H587 C592 0.949 . S
H588 C594 0.950 . S
H589 C595 0.950 . S
H590 C596 0.949 . S
C591 H586 0.950 . S
C591 C593 1.327 . S
C591 C597 1.429 . S
C592 C584 1.574 . S
C592 H587 0.949 . S
C592 C598 1.368 . S
C593 C577 1.349 . S
C593 H585 0.950 . S
C593 C591 1.327 . S
C594 C582 1.349 . S
C594 H588 0.950 . S
C594 C595 1.327 . S
C595 H589 0.950 . S
C595 C594 1.327 . S
C595 C599 1.429 . S
C596 C579 1.574 . S
C596 H590 0.949 . S
C596 C600 1.368 . S
C597 C578 1.429 . S
C597 C591 1.429 . S
C597 C598 1.523 . S
C598 C579 1.368 . S
C598 C592 1.368 . S
C598 C597 1.523 . S
C599 C583 1.429 . S
C599 C595 1.429 . S
C599 C600 1.523 . S
C600 C584 1.368 . S
C600 C596 1.368 . S
C600 C599 1.523 . S
H601 C576 0.950 . S
H602 C578 0.950 . S
H603 C579 0.949 . S
H604 C581 0.950 . S
H605 C583 0.950 . S
C606 C607 1.349 . S
C606 C608 1.327 . S
C606 H631 0.950 . S
C607 C606 1.349 . S
C607 C623 1.349 . S
C608 C606 1.327 . S
C608 C627 1.429 . S
C608 H632 0.950 . S
C609 C626 1.574 . S
C609 C628 1.368 . S
C609 H633 0.949 . S
H610 C614 0.949 . S
C611 C612 1.349 . S
C611 C613 1.327 . S
C611 H634 0.950 . S
C612 C611 1.349 . S
C612 C624 1.349 . S
C613 C611 1.327 . S
C613 C629 1.429 . S
C613 H635 0.950 . S
C614 H610 0.949 . S
C614 C622 1.574 . S
C614 C630 1.368 . S
H615 C623 0.950 . S
H616 C621 0.950 . S
H617 C622 0.949 . S
H618 C624 0.950 . S
H619 C625 0.950 . S
H620 C626 0.949 . S
C621 H616 0.950 . S
C621 C623 1.327 . S
C621 C627 1.429 . S
C622 C614 1.574 . S
C622 H617 0.949 . S
C622 C628 1.368 . S
C623 C607 1.349 . S
C623 H615 0.950 . S
C623 C621 1.327 . S
C624 C612 1.349 . S
C624 H618 0.950 . S
C624 C625 1.327 . S
C625 H619 0.950 . S
C625 C624 1.327 . S
C625 C629 1.429 . S
C626 C609 1.574 . S
C626 H620 0.949 . S
C626 C630 1.368 . S
C627 C608 1.429 . S
C627 C621 1.429 . S
C627 C628 1.523 . S
C628 C609 1.368 . S
C628 C622 1.368 . S
C628 C627 1.523 . S
C629 C613 1.429 . S
C629 C625 1.429 . S
C629 C630 1.523 . S
C630 C614 1.368 . S
C630 C626 1.368 . S
C630 C629 1.523 . S
H631 C606 0.950 . S
H632 C608 0.950 . S
H633 C609 0.949 . S
H634 C611 0.950 . S
H635 C613 0.950 . S
C636 C637 1.349 . S
C636 C638 1.327 . S
C636 H661 0.950 . S
C637 C636 1.349 . S
C637 C653 1.349 . S
C638 C636 1.327 . S
C638 C657 1.429 . S
C638 H662 0.950 . S
C639 C656 1.574 . S
C639 C658 1.368 . S
C639 H663 0.949 . S
H640 C644 0.949 . S
C641 C642 1.349 . S
C641 C643 1.327 . S
C641 H664 0.950 . S
C642 C641 1.349 . S
C642 C654 1.349 . S
C643 C641 1.327 . S
C643 C659 1.429 . S
C643 H665 0.950 . S
C644 H640 0.949 . S
C644 C652 1.574 . S
C644 C660 1.368 . S
H645 C653 0.950 . S
H646 C651 0.950 . S
H647 C652 0.949 . S
H648 C654 0.950 . S
H649 C655 0.950 . S
H650 C656 0.949 . S
C651 H646 0.950 . S
C651 C653 1.327 . S
C651 C657 1.429 . S
C652 C644 1.574 . S
C652 H647 0.949 . S
C652 C658 1.368 . S
C653 C637 1.349 . S
C653 H645 0.950 . S
C653 C651 1.327 . S
C654 C642 1.349 . S
C654 H648 0.950 . S
C654 C655 1.327 . S
C655 H649 0.950 . S
C655 C654 1.327 . S
C655 C659 1.429 . S
C656 C639 1.574 . S
C656 H650 0.949 . S
C656 C660 1.368 . S
C657 C638 1.429 . S
C657 C651 1.429 . S
C657 C658 1.523 . S
C658 C639 1.368 . S
C658 C652 1.368 . S
C658 C657 1.523 . S
C659 C643 1.429 . S
C659 C655 1.429 . S
C659 C660 1.523 . S
C660 C644 1.368 . S
C660 C656 1.368 . S
C660 C659 1.523 . S
H661 C636 0.950 . S
H662 C638 0.950 . S
H663 C639 0.949 . S
H664 C641 0.950 . S
H665 C643 0.950 . S
C666 C667 1.349 . S
C666 C668 1.327 . S
C666 H691 0.950 . S
C667 C666 1.349 . S
C667 C683 1.349 . S
C668 C666 1.327 . S
C668 C687 1.429 . S
C668 H692 0.950 . S
C669 C686 1.574 . S
C669 C688 1.368 . S
C669 H693 0.949 . S
H670 C674 0.949 . S
C671 C672 1.349 . S
C671 C673 1.327 . S
C671 H694 0.950 . S
C672 C671 1.349 . S
C672 C684 1.349 . S
C673 C671 1.327 . S
C673 C689 1.429 . S
C673 H695 0.950 . S
C674 H670 0.949 . S
C674 C682 1.574 . S
C674 C690 1.368 . S
H675 C683 0.950 . S
H676 C681 0.950 . S
H677 C682 0.949 . S
H678 C684 0.950 . S
H679 C685 0.950 . S
H680 C686 0.949 . S
C681 H676 0.950 . S
C681 C683 1.327 . S
C681 C687 1.429 . S
C682 C674 1.574 . S
C682 H677 0.949 . S
C682 C688 1.368 . S
C683 C667 1.349 . S
C683 H675 0.950 . S
C683 C681 1.327 . S
C684 C672 1.349 . S
C684 H678 0.950 . S
C684 C685 1.327 . S
C685 H679 0.950 . S
C685 C684 1.327 . S
C685 C689 1.429 . S
C686 C669 1.574 . S
C686 H680 0.949 . S
C686 C690 1.368 . S
C687 C668 1.429 . S
C687 C681 1.429 . S
C687 C688 1.523 . S
C688 C669 1.368 . S
C688 C682 1.368 . S
C688 C687 1.523 . S
C689 C673 1.429 . S
C689 C685 1.429 . S
C689 C690 1.523 . S
C690 C674 1.368 . S
C690 C686 1.368 . S
C690 C689 1.523 . S
H691 C666 0.950 . S
H692 C668 0.950 . S
H693 C669 0.949 . S
H694 C671 0.950 . S
H695 C673 0.950 . S
C696 C697 1.349 . S
C696 C698 1.327 . S
C696 H721 0.950 . S
C697 C696 1.349 . S
C697 C713 1.349 . S
C698 C696 1.327 . S
C698 C717 1.429 . S
C698 H722 0.950 . S
C699 C716 1.574 . S
C699 C718 1.368 . S
C699 H723 0.949 . S
H700 C704 0.949 . S
C701 C702 1.349 . S
C701 C703 1.327 . S
C701 H724 0.950 . S
C702 C701 1.349 . S
C702 C714 1.349 . S
C703 C701 1.327 . S
C703 C719 1.429 . S
C703 H725 0.950 . S
C704 H700 0.949 . S
C704 C712 1.574 . S
C704 C720 1.368 . S
H705 C713 0.950 . S
H706 C711 0.950 . S
H707 C712 0.949 . S
H708 C714 0.950 . S
H709 C715 0.950 . S
H710 C716 0.949 . S
C711 H706 0.950 . S
C711 C713 1.327 . S
C711 C717 1.429 . S
C712 C704 1.574 . S
C712 H707 0.949 . S
C712 C718 1.368 . S
C713 C697 1.349 . S
C713 H705 0.950 . S
C713 C711 1.327 . S
C714 C702 1.349 . S
C714 H708 0.950 . S
C714 C715 1.327 . S
C715 H709 0.950 . S
C715 C714 1.327 . S
C715 C719 1.429 . S
C716 C699 1.574 . S
C716 H710 0.949 . S
C716 C720 1.368 . S
C717 C698 1.429 . S
C717 C711 1.429 . S
C717 C718 1.523 . S
C718 C699 1.368 . S
C718 C712 1.368 . S
C718 C717 1.523 . S
C719 C703 1.429 . S
C719 C715 1.429 . S
C719 C720 1.523 . S
C720 C704 1.368 . S
C720 C716 1.368 . S
C720 C719 1.523 . S
H721 C696 0.950 . S
H722 C698 0.950 . S
H723 C699 0.949 . S
H724 C701 0.950 . S
H725 C703 0.950 . S
C726 C727 1.349 . S
C726 C728 1.327 . S
C726 H751 0.950 . S
C727 C726 1.349 . S
C727 C743 1.349 . S
C728 C726 1.327 . S
C728 C747 1.429 . S
C728 H752 0.950 . S
C729 C746 1.574 . S
C729 C748 1.368 . S
C729 H753 0.949 . S
H730 C734 0.949 . S
C731 C732 1.349 . S
C731 C733 1.327 . S
C731 H754 0.950 . S
C732 C731 1.349 . S
C732 C744 1.349 . S
C733 C731 1.327 . S
C733 C749 1.429 . S
C733 H755 0.950 . S
C734 H730 0.949 . S
C734 C742 1.574 . S
C734 C750 1.368 . S
H735 C743 0.950 . S
H736 C741 0.950 . S
H737 C742 0.949 . S
H738 C744 0.950 . S
H739 C745 0.950 . S
H740 C746 0.949 . S
C741 H736 0.950 . S
C741 C743 1.327 . S
C741 C747 1.429 . S
C742 C734 1.574 . S
C742 H737 0.949 . S
C742 C748 1.368 . S
C743 C727 1.349 . S
C743 H735 0.950 . S
C743 C741 1.327 . S
C744 C732 1.349 . S
C744 H738 0.950 . S
C744 C745 1.327 . S
C745 H739 0.950 . S
C745 C744 1.327 . S
C745 C749 1.429 . S
C746 C729 1.574 . S
C746 H740 0.949 . S
C746 C750 1.368 . S
C747 C728 1.429 . S
C747 C741 1.429 . S
C747 C748 1.523 . S
C748 C729 1.368 . S
C748 C742 1.368 . S
C748 C747 1.523 . S
C749 C733 1.429 . S
C749 C745 1.429 . S
C749 C750 1.523 . S
C750 C734 1.368 . S
C750 C746 1.368 . S
C750 C749 1.523 . S
H751 C726 0.950 . S
H752 C728 0.950 . S
H753 C729 0.949 . S
H754 C731 0.950 . S
H755 C733 0.950 . S
C756 C757 1.349 . S
C756 C758 1.327 . S
C756 H781 0.950 . S
C757 C756 1.349 . S
C757 C773 1.349 . S
C758 C756 1.327 . S
C758 C777 1.429 . S
C758 H782 0.950 . S
C759 C776 1.574 . S
C759 C778 1.368 . S
C759 H783 0.949 . S
H760 C764 0.949 . S
C761 C762 1.349 . S
C761 C763 1.327 . S
C761 H784 0.950 . S
C762 C761 1.349 . S
C762 C774 1.349 . S
C763 C761 1.327 . S
C763 C779 1.429 . S
C763 H785 0.950 . S
C764 H760 0.949 . S
C764 C772 1.574 . S
C764 C780 1.368 . S
H765 C773 0.950 . S
H766 C771 0.950 . S
H767 C772 0.949 . S
H768 C774 0.950 . S
H769 C775 0.950 . S
H770 C776 0.949 . S
C771 H766 0.950 . S
C771 C773 1.327 . S
C771 C777 1.429 . S
C772 C764 1.574 . S
C772 H767 0.949 . S
C772 C778 1.368 . S
C773 C757 1.349 . S
C773 H765 0.950 . S
C773 C771 1.327 . S
C774 C762 1.349 . S
C774 H768 0.950 . S
C774 C775 1.327 . S
C775 H769 0.950 . S
C775 C774 1.327 . S
C775 C779 1.429 . S
C776 C759 1.574 . S
C776 H770 0.949 . S
C776 C780 1.368 . S
C777 C758 1.429 . S
C777 C771 1.429 . S
C777 C778 1.523 . S
C778 C759 1.368 . S
C778 C772 1.368 . S
C778 C777 1.523 . S
C779 C763 1.429 . S
C779 C775 1.429 . S
C779 C780 1.523 . S
C780 C764 1.368 . S
C780 C776 1.368 . S
C780 C779 1.523 . S
H781 C756 0.950 . S
H782 C758 0.950 . S
H783 C759 0.949 . S
H784 C761 0.950 . S
H785 C763 0.950 . S
C786 C787 1.349 . S
C786 C788 1.327 . S
C786 H811 0.950 . S
C787 C786 1.349 . S
C787 C803 1.349 . S
C788 C786 1.327 . S
C788 C807 1.429 . S
C788 H812 0.950 . S
C789 C806 1.574 . S
C789 C808 1.368 . S
C789 H813 0.949 . S
H790 C794 0.949 . S
C791 C792 1.349 . S
C791 C793 1.327 . S
C791 H814 0.950 . S
C792 C791 1.349 . S
C792 C804 1.349 . S
C793 C791 1.327 . S
C793 C809 1.429 . S
C793 H815 0.950 . S
C794 H790 0.949 . S
C794 C802 1.574 . S
C794 C810 1.368 . S
H795 C803 0.950 . S
H796 C801 0.950 . S
H797 C802 0.949 . S
H798 C804 0.950 . S
H799 C805 0.950 . S
H800 C806 0.949 . S
C801 H796 0.950 . S
C801 C803 1.327 . S
C801 C807 1.429 . S
C802 C794 1.574 . S
C802 H797 0.949 . S
C802 C808 1.368 . S
C803 C787 1.349 . S
C803 H795 0.950 . S
C803 C801 1.327 . S
C804 C792 1.349 . S
C804 H798 0.950 . S
C804 C805 1.327 . S
C805 H799 0.950 . S
C805 C804 1.327 . S
C805 C809 1.429 . S
C806 C789 1.574 . S
C806 H800 0.949 . S
C806 C810 1.368 . S
C807 C788 1.429 . S
C807 C801 1.429 . S
C807 C808 1.523 . S
C808 C789 1.368 . S
C808 C802 1.368 . S
C808 C807 1.523 . S
C809 C793 1.429 . S
C809 C805 1.429 . S
C809 C810 1.523 . S
C810 C794 1.368 . S
C810 C806 1.368 . S
C810 C809 1.523 . S
H811 C786 0.950 . S
H812 C788 0.950 . S
H813 C789 0.949 . S
H814 C791 0.950 . S
H815 C793 0.950 . S
C816 C817 1.349 . S
C816 C818 1.327 . S
C816 H841 0.950 . S
C817 C816 1.349 . S
C817 C833 1.349 . S
C818 C816 1.327 . S
C818 C837 1.429 . S
C818 H842 0.950 . S
C819 C836 1.574 . S
C819 C838 1.368 . S
C819 H843 0.949 . S
H820 C824 0.949 . S
C821 C822 1.349 . S
C821 C823 1.327 . S
C821 H844 0.950 . S
C822 C821 1.349 . S
C822 C834 1.349 . S
C823 C821 1.327 . S
C823 C839 1.429 . S
C823 H845 0.950 . S
C824 H820 0.949 . S
C824 C832 1.574 . S
C824 C840 1.368 . S
H825 C833 0.950 . S
H826 C831 0.950 . S
H827 C832 0.949 . S
H828 C834 0.950 . S
H829 C835 0.950 . S
H830 C836 0.949 . S
C831 H826 0.950 . S
C831 C833 1.327 . S
C831 C837 1.429 . S
C832 C824 1.574 . S
C832 H827 0.949 . S
C832 C838 1.368 . S
C833 C817 1.349 . S
C833 H825 0.950 . S
C833 C831 1.327 . S
C834 C822 1.349 . S
C834 H828 0.950 . S
C834 C835 1.327 . S
C835 H829 0.950 . S
C835 C834 1.327 . S
C835 C839 1.429 . S
C836 C819 1.574 . S
C836 H830 0.949 . S
C836 C840 1.368 . S
C837 C818 1.429 . S
C837 C831 1.429 . S
C837 C838 1.523 . S
C838 C819 1.368 . S
C838 C832 1.368 . S
C838 C837 1.523 . S
C839 C823 1.429 . S
C839 C835 1.429 . S
C839 C840 1.523 . S
C840 C824 1.368 . S
C840 C836 1.368 . S
C840 C839 1.523 . S
H841 C816 0.950 . S
H842 C818 0.950 . S
H843 C819 0.949 . S
H844 C821 0.950 . S
H845 C823 0.950 . S
C846 C847 1.349 . S
C846 C848 1.327 . S
C846 H871 0.950 . S
C847 C846 1.349 . S
C847 C863 1.349 . S
C848 C846 1.327 . S
C848 C867 1.429 . S
C848 H872 0.950 . S
C849 C866 1.574 . S
C849 C868 1.368 . S
C849 H873 0.949 . S
H850 C854 0.949 . S
C851 C852 1.349 . S
C851 C853 1.327 . S
C851 H874 0.950 . S
C852 C851 1.349 . S
C852 C864 1.349 . S
C853 C851 1.327 . S
C853 C869 1.429 . S
C853 H875 0.950 . S
C854 H850 0.949 . S
C854 C862 1.574 . S
C854 C870 1.368 . S
H855 C863 0.950 . S
H856 C861 0.950 . S
H857 C862 0.949 . S
H858 C864 0.950 . S
H859 C865 0.950 . S
H860 C866 0.949 . S
C861 H856 0.950 . S
C861 C863 1.327 . S
C861 C867 1.429 . S
C862 C854 1.574 . S
C862 H857 0.949 . S
C862 C868 1.368 . S
C863 C847 1.349 . S
C863 H855 0.950 . S
C863 C861 1.327 . S
C864 C852 1.349 . S
C864 H858 0.950 . S
C864 C865 1.327 . S
C865 H859 0.950 . S
C865 C864 1.327 . S
C865 C869 1.429 . S
C866 C849 1.574 . S
C866 H860 0.949 . S
C866 C870 1.368 . S
C867 C848 1.429 . S
C867 C861 1.429 . S
C867 C868 1.523 . S
C868 C849 1.368 . S
C868 C862 1.368 . S
C868 C867 1.523 . S
C869 C853 1.429 . S
C869 C865 1.429 . S
C869 C870 1.523 . S
C870 C854 1.368 . S
C870 C866 1.368 . S
C870 C869 1.523 . S
H871 C846 0.950 . S
H872 C848 0.950 . S
H873 C849 0.949 . S
H874 C851 0.950 . S
H875 C853 0.950 . S
C876 C877 1.349 . S
C876 C878 1.327 . S
C876 H901 0.950 . S
C877 C876 1.349 . S
C877 C893 1.349 . S
C878 C876 1.327 . S
C878 C897 1.429 . S
C878 H902 0.950 . S
C879 C896 1.574 . S
C879 C898 1.368 . S
C879 H903 0.949 . S
H880 C884 0.949 . S
C881 C882 1.349 . S
C881 C883 1.327 . S
C881 H904 0.950 . S
C882 C881 1.349 . S
C882 C894 1.349 . S
C883 C881 1.327 . S
C883 C899 1.429 . S
C883 H905 0.950 . S
C884 H880 0.949 . S
C884 C892 1.574 . S
C884 C900 1.368 . S
H885 C893 0.950 . S
H886 C891 0.950 . S
H887 C892 0.949 . S
H888 C894 0.950 . S
H889 C895 0.950 . S
H890 C896 0.949 . S
C891 H886 0.950 . S
C891 C893 1.327 . S
C891 C897 1.429 . S
C892 C884 1.574 . S
C892 H887 0.949 . S
C892 C898 1.368 . S
C893 C877 1.349 . S
C893 H885 0.950 . S
C893 C891 1.327 . S
C894 C882 1.349 . S
C894 H888 0.950 . S
C894 C895 1.327 . S
C895 H889 0.950 . S
C895 C894 1.327 . S
C895 C899 1.429 . S
C896 C879 1.574 . S
C896 H890 0.949 . S
C896 C900 1.368 . S
C897 C878 1.429 . S
C897 C891 1.429 . S
C897 C898 1.523 . S
C898 C879 1.368 . S
C898 C892 1.368 . S
C898 C897 1.523 . S
C899 C883 1.429 . S
C899 C895 1.429 . S
C899 C900 1.523 . S
C900 C884 1.368 . S
C900 C896 1.368 . S
C900 C899 1.523 . S
H901 C876 0.950 . S
H902 C878 0.950 . S
H903 C879 0.949 . S
H904 C881 0.950 . S
H905 C883 0.950 . S
C906 C907 1.349 . S
C906 C908 1.327 . S
C906 H931 0.950 . S
C907 C906 1.349 . S
C907 C923 1.349 . S
C908 C906 1.327 . S
C908 C927 1.429 . S
C908 H932 0.950 . S
C909 C926 1.574 . S
C909 C928 1.368 . S
C909 H933 0.949 . S
H910 C914 0.949 . S
C911 C912 1.349 . S
C911 C913 1.327 . S
C911 H934 0.950 . S
C912 C911 1.349 . S
C912 C924 1.349 . S
C913 C911 1.327 . S
C913 C929 1.429 . S
C913 H935 0.950 . S
C914 H910 0.949 . S
C914 C922 1.574 . S
C914 C930 1.368 . S
H915 C923 0.950 . S
H916 C921 0.950 . S
H917 C922 0.949 . S
H918 C924 0.950 . S
H919 C925 0.950 . S
H920 C926 0.949 . S
C921 H916 0.950 . S
C921 C923 1.327 . S
C921 C927 1.429 . S
C922 C914 1.574 . S
C922 H917 0.949 . S
C922 C928 1.368 . S
C923 C907 1.349 . S
C923 H915 0.950 . S
C923 C921 1.327 . S
C924 C912 1.349 . S
C924 H918 0.950 . S
C924 C925 1.327 . S
C925 H919 0.950 . S
C925 C924 1.327 . S
C925 C929 1.429 . S
C926 C909 1.574 . S
C926 H920 0.949 . S
C926 C930 1.368 . S
C927 C908 1.429 . S
C927 C921 1.429 . S
C927 C928 1.523 . S
C928 C909 1.368 . S
C928 C922 1.368 . S
C928 C927 1.523 . S
C929 C913 1.429 . S
C929 C925 1.429 . S
C929 C930 1.523 . S
C930 C914 1.368 . S
C930 C926 1.368 . S
C930 C929 1.523 . S
H931 C906 0.950 . S
H932 C908 0.950 . S
H933 C909 0.949 . S
H934 C911 0.950 . S
H935 C913 0.950 . S
C936 C937 1.349 . S
C936 C938 1.327 . S
C936 H961 0.950 . S
C937 C936 1.349 . S
C937 C953 1.349 1_554 S
C938 C936 1.327 . S
C938 C957 1.429 . S
C938 H962 0.950 . S
C939 C956 1.574 . S
C939 C958 1.368 1_556 S
C939 H963 0.949 . S
H940 C944 0.949 . S
C941 C942 1.349 1_556 S
C941 C943 1.327 . S
C941 H964 0.950 . S
C942 C941 1.349 1_554 S
C942 C954 1.349 . S
C943 C941 1.327 . S
C943 C959 1.429 1_556 S
C943 H965 0.950 . S
C944 H940 0.949 . S
C944 C952 1.574 . S
C944 C960 1.368 . S
H945 C953 0.950 . S
H946 C951 0.950 . S
H947 C952 0.949 . S
H948 C954 0.950 . S
H949 C955 0.950 . S
H950 C956 0.949 . S
C951 H946 0.950 . S
C951 C953 1.327 . S
C951 C957 1.429 1_556 S
C952 C944 1.574 . S
C952 H947 0.949 . S
C952 C958 1.368 . S
C953 C937 1.349 1_556 S
C953 H945 0.950 . S
C953 C951 1.327 . S
C954 C942 1.349 . S
C954 H948 0.950 . S
C954 C955 1.327 . S
C955 H949 0.950 . S
C955 C954 1.327 . S
C955 C959 1.429 . S
C956 C939 1.574 . S
C956 H950 0.949 . S
C956 C960 1.368 1_556 S
C957 C938 1.429 . S
C957 C951 1.429 1_554 S
C957 C958 1.523 . S
C958 C939 1.368 1_554 S
C958 C952 1.368 . S
C958 C957 1.523 . S
C959 C943 1.429 1_554 S
C959 C955 1.429 . S
C959 C960 1.523 . S
C960 C944 1.368 . S
C960 C956 1.368 1_554 S
C960 C959 1.523 . S
H961 C936 0.950 . S
H962 C938 0.950 . S
H963 C939 0.949 . S
H964 C941 0.950 . S
H965 C943 0.950 . S
C966 C967 1.349 . S
C966 C968 1.327 . S
C966 H991 0.950 . S
C967 C966 1.349 . S
C967 C983 1.349 1_554 S
C968 C966 1.327 . S
C968 C987 1.429 . S
C968 H992 0.950 . S
C969 C986 1.574 . S
C969 C988 1.368 1_556 S
C969 H993 0.949 . S
H970 C974 0.949 . S
C971 C972 1.349 1_556 S
C971 C973 1.327 . S
C971 H994 0.950 . S
C972 C971 1.349 1_554 S
C972 C984 1.349 . S
C973 C971 1.327 . S
C973 C989 1.429 1_556 S
C973 H995 0.950 . S
C974 H970 0.949 . S
C974 C982 1.574 . S
C974 C990 1.368 . S
H975 C983 0.950 . S
H976 C981 0.950 . S
H977 C982 0.949 . S
H978 C984 0.950 . S
H979 C985 0.950 . S
H980 C986 0.949 . S
C981 H976 0.950 . S
C981 C983 1.327 . S
C981 C987 1.429 1_556 S
C982 C974 1.574 . S
C982 H977 0.949 . S
C982 C988 1.368 . S
C983 C967 1.349 1_556 S
C983 H975 0.950 . S
C983 C981 1.327 . S
C984 C972 1.349 . S
C984 H978 0.950 . S
C984 C985 1.327 . S
C985 H979 0.950 . S
C985 C984 1.327 . S
C985 C989 1.429 . S
C986 C969 1.574 . S
C986 H980 0.949 . S
C986 C990 1.368 1_556 S
C987 C968 1.429 . S
C987 C981 1.429 1_554 S
C987 C988 1.523 . S
C988 C969 1.368 1_554 S
C988 C982 1.368 . S
C988 C987 1.523 . S
C989 C973 1.429 1_554 S
C989 C985 1.429 . S
C989 C990 1.523 . S
C990 C974 1.368 . S
C990 C986 1.368 1_554 S
C990 C989 1.523 . S
H991 C966 0.950 . S
H992 C968 0.950 . S
H993 C969 0.949 . S
H994 C971 0.950 . S
H995 C973 0.950 . S
C996 C997 1.349 . S
C996 C998 1.327 . S
C996 H1021 0.950 . S
C997 C996 1.349 . S
C997 C1013 1.349 . S
C998 C996 1.327 . S
C998 C1017 1.429 . S
C998 H1022 0.950 . S
C999 C1016 1.574 . S
C999 C1018 1.368 1_556 S
C999 H1023 0.949 . S
H1000 C1004 0.949 . S
C1001 C1002 1.349 1_556 S
C1001 C1003 1.327 . S
C1001 H1024 0.950 . S
C1002 C1001 1.349 1_554 S
C1002 C1014 1.349 . S
C1003 C1001 1.327 . S
C1003 C1019 1.429 1_556 S
C1003 H1025 0.950 . S
C1004 H1000 0.949 . S
C1004 C1012 1.574 . S
C1004 C1020 1.368 . S
H1005 C1013 0.950 1_556 S
H1006 C1011 0.926 1_556 S
H1007 C1012 0.949 . S
H1008 C1014 0.950 . S
H1009 C1015 0.950 . S
H1010 C1016 0.949 . S
C1011 H1006 0.926 1_554 S
C1011 C1013 1.329 . S
C1011 C1017 1.450 . S
C1012 C1004 1.574 . S
C1012 H1007 0.949 . S
C1012 C1018 1.368 . S
C1013 C997 1.349 . S
C1013 H1005 0.950 1_554 S
C1013 C1011 1.329 . S
C1014 C1002 1.349 . S
C1014 H1008 0.950 . S
C1014 C1015 1.327 . S
C1015 H1009 0.950 . S
C1015 C1014 1.327 . S
C1015 C1019 1.429 . S
C1016 C999 1.574 . S
C1016 H1010 0.949 . S
C1016 C1020 1.368 1_556 S
C1017 C998 1.429 . S
C1017 C1011 1.450 . S
C1017 C1018 1.523 . S
C1018 C999 1.368 1_554 S
C1018 C1012 1.368 . S
C1018 C1017 1.523 . S
C1019 C1003 1.429 1_554 S
C1019 C1015 1.429 . S
C1019 C1020 1.523 . S
C1020 C1004 1.368 . S
C1020 C1016 1.368 1_554 S
C1020 C1019 1.523 . S
H1021 C996 0.950 . S
H1022 C998 0.950 . S
H1023 C999 0.949 . S
H1024 C1001 0.950 . S
H1025 C1003 0.950 . S
C1026 C1027 1.349 . S
C1026 C1028 1.327 . S
C1026 H1051 0.950 . S
C1027 C1026 1.349 . S
C1027 C1043 1.349 1_554 S
C1028 C1026 1.327 . S
C1028 C1047 1.429 . S
C1028 H1052 0.950 . S
C1029 C1046 1.574 . S
C1029 C1048 1.368 1_556 S
C1029 H1053 0.949 . S
H1030 C1034 0.949 . S
C1031 C1032 1.349 1_556 S
C1031 C1033 1.327 . S
C1031 H1054 0.950 . S
C1032 C1031 1.349 1_554 S
C1032 C1044 1.349 . S
C1033 C1031 1.327 . S
C1033 C1049 1.429 1_556 S
C1033 H1055 0.950 . S
C1034 H1030 0.949 . S
C1034 C1042 1.574 . S
C1034 C1050 1.368 . S
H1035 C1043 0.950 . S
H1036 C1041 0.950 . S
H1037 C1042 0.949 . S
H1038 C1044 0.950 . S
H1039 C1045 0.950 . S
H1040 C1046 0.949 . S
C1041 H1036 0.950 . S
C1041 C1043 1.327 . S
C1041 C1047 1.429 1_556 S
C1042 C1034 1.574 . S
C1042 H1037 0.949 . S
C1042 C1048 1.368 . S
C1043 C1027 1.349 1_556 S
C1043 H1035 0.950 . S
C1043 C1041 1.327 . S
C1044 C1032 1.349 . S
C1044 H1038 0.950 . S
C1044 C1045 1.327 . S
C1045 H1039 0.950 . S
C1045 C1044 1.327 . S
C1045 C1049 1.429 . S
C1046 C1029 1.574 . S
C1046 H1040 0.949 . S
C1046 C1050 1.368 1_556 S
C1047 C1028 1.429 . S
C1047 C1041 1.429 1_554 S
C1047 C1048 1.523 . S
C1048 C1029 1.368 1_554 S
C1048 C1042 1.368 . S
C1048 C1047 1.523 . S
C1049 C1033 1.429 1_554 S
C1049 C1045 1.429 . S
C1049 C1050 1.523 . S
C1050 C1034 1.368 . S
C1050 C1046 1.368 1_554 S
C1050 C1049 1.523 . S
H1051 C1026 0.950 . S
H1052 C1028 0.950 . S
H1053 C1029 0.949 . S
H1054 C1031 0.950 . S
H1055 C1033 0.950 . S
C1056 C1057 1.349 . S
C1056 C1058 1.327 . S
C1056 H1081 0.950 . S
C1057 C1056 1.349 . S
C1057 C1073 1.349 1_455 S
C1058 C1056 1.327 . S
C1058 C1077 1.429 . S
C1058 H1082 0.950 . S
C1059 C1076 1.574 . S
C1059 C1078 1.368 1_655 S
C1059 H1083 0.949 . S
H1060 C1064 0.949 . S
C1061 C1062 1.349 1_655 S
C1061 C1063 1.327 . S
C1061 H1084 0.950 . S
C1062 C1061 1.349 1_455 S
C1062 C1074 1.349 . S
C1063 C1061 1.327 . S
C1063 C1079 1.429 1_655 S
C1063 H1085 0.950 . S
C1064 H1060 0.949 . S
C1064 C1072 1.574 . S
C1064 C1080 1.368 . S
H1065 C1073 0.950 . S
H1066 C1071 0.950 . S
H1067 C1072 0.949 . S
H1068 C1074 0.950 . S
H1069 C1075 0.950 . S
H1070 C1076 0.949 . S
C1071 H1066 0.950 . S
C1071 C1073 1.327 . S
C1071 C1077 1.429 1_655 S
C1072 C1064 1.574 . S
C1072 H1067 0.949 . S
C1072 C1078 1.368 . S
C1073 C1057 1.349 1_655 S
C1073 H1065 0.950 . S
C1073 C1071 1.327 . S
C1074 C1062 1.349 . S
C1074 H1068 0.950 . S
C1074 C1075 1.327 . S
C1075 H1069 0.950 . S
C1075 C1074 1.327 . S
C1075 C1079 1.429 . S
C1076 C1059 1.574 . S
C1076 H1070 0.949 . S
C1076 C1080 1.368 1_655 S
C1077 C1058 1.429 . S
C1077 C1071 1.429 1_455 S
C1077 C1078 1.523 . S
C1078 C1059 1.368 1_455 S
C1078 C1072 1.368 . S
C1078 C1077 1.523 . S
C1079 C1063 1.429 1_455 S
C1079 C1075 1.429 . S
C1079 C1080 1.523 . S
C1080 C1064 1.368 . S
C1080 C1076 1.368 1_455 S
C1080 C1079 1.523 . S
H1081 C1056 0.950 . S
H1082 C1058 0.950 . S
H1083 C1059 0.949 . S
H1084 C1061 0.950 . S
H1085 C1063 0.950 . S
C1086 C1087 1.349 . S
C1086 C1088 1.327 . S
C1086 H1111 0.950 . S
C1087 C1086 1.349 . S
C1087 C1103 1.349 1_545 S
C1088 C1086 1.327 . S
C1088 C1107 1.429 . S
C1088 H1112 0.950 . S
C1089 C1106 1.576 . S
C1089 C1108 1.368 1_565 S
C1089 H1113 0.949 . S
H1090 C1094 0.949 . S
C1091 C1092 1.349 . S
C1091 C1093 1.327 . S
C1091 H1114 0.950 1_545 S
C1092 C1091 1.349 . S
C1092 C1104 1.349 . S
C1093 C1091 1.327 . S
C1093 C1109 1.429 . S
C1093 H1115 0.950 1_545 S
C1094 H1090 0.949 . S
C1094 C1102 1.574 . S
C1094 C1110 1.368 . S
H1095 C1103 0.950 . S
H1096 C1101 0.950 . S
H1097 C1102 0.949 . S
H1098 C1104 0.950 . S
H1099 C1105 0.950 . S
H1100 C1106 0.968 . S
C1101 H1096 0.950 . S
C1101 C1103 1.327 . S
C1101 C1107 1.429 1_565 S
C1102 C1094 1.574 . S
C1102 H1097 0.949 . S
C1102 C1108 1.368 . S
C1103 C1087 1.349 1_565 S
C1103 H1095 0.950 . S
C1103 C1101 1.327 . S
C1104 C1092 1.349 . S
C1104 H1098 0.950 . S
C1104 C1105 1.327 . S
C1105 H1099 0.950 . S
C1105 C1104 1.327 . S
C1105 C1109 1.429 . S
C1106 C1089 1.576 . S
C1106 H1100 0.968 . S
C1106 C1110 1.345 1_565 S
C1107 C1088 1.429 . S
C1107 C1101 1.429 1_545 S
C1107 C1108 1.523 . S
C1108 C1089 1.368 1_545 S
C1108 C1102 1.368 . S
C1108 C1107 1.523 . S
C1109 C1093 1.429 . S
C1109 C1105 1.429 . S
C1109 C1110 1.523 . S
C1110 C1094 1.368 . S
C1110 C1106 1.345 1_545 S
C1110 C1109 1.523 . S
H1111 C1086 0.950 . S
H1112 C1088 0.950 . S
H1113 C1089 0.949 . S
H1114 C1091 0.950 1_565 S
H1115 C1093 0.950 1_565 S
C1116 C1117 1.349 . S
C1116 C1118 1.327 . S
C1116 H1141 0.950 . S
C1117 C1116 1.349 . S
C1117 C1133 1.349 . S
C1118 C1116 1.327 . S
C1118 C1137 1.429 . S
C1118 H1142 0.950 . S
C1119 C1136 1.574 . S
C1119 C1138 1.368 . S
C1119 H1143 0.949 . S
H1120 C1124 0.949 . S
C1121 C1122 1.349 . S
C1121 C1123 1.327 . S
C1121 H1144 0.950 . S
C1122 C1121 1.349 . S
C1122 C1134 1.349 . S
C1123 C1121 1.327 . S
C1123 C1139 1.429 . S
C1123 H1145 0.950 . S
C1124 H1120 0.949 . S
C1124 C1132 1.574 . S
C1124 C1140 1.368 . S
H1125 C1133 0.950 . S
H1126 C1131 0.950 . S
H1127 C1132 0.949 . S
H1128 C1134 0.950 . S
H1129 C1135 0.950 . S
H1130 C1136 0.949 . S
C1131 H1126 0.950 . S
C1131 C1133 1.327 . S
C1131 C1137 1.429 . S
C1132 C1124 1.574 . S
C1132 H1127 0.949 . S
C1132 C1138 1.368 . S
C1133 C1117 1.349 . S
C1133 H1125 0.950 . S
C1133 C1131 1.327 . S
C1134 C1122 1.349 . S
C1134 H1128 0.950 . S
C1134 C1135 1.327 . S
C1135 H1129 0.950 . S
C1135 C1134 1.327 . S
C1135 C1139 1.429 . S
C1136 C1119 1.574 . S
C1136 H1130 0.949 . S
C1136 C1140 1.368 . S
C1137 C1118 1.429 . S
C1137 C1131 1.429 . S
C1137 C1138 1.523 . S
C1138 C1119 1.368 . S
C1138 C1132 1.368 . S
C1138 C1137 1.523 . S
C1139 C1123 1.429 . S
C1139 C1135 1.429 . S
C1139 C1140 1.523 . S
C1140 C1124 1.368 . S
C1140 C1136 1.368 . S
C1140 C1139 1.523 . S
H1141 C1116 0.950 . S
H1142 C1118 0.950 . S
H1143 C1119 0.949 . S
H1144 C1121 0.950 . S
H1145 C1123 0.950 . S
C1146 C1147 1.349 . S
C1146 C1148 1.327 . S
C1146 H1171 0.950 . S
C1147 C1146 1.349 . S
C1147 C1163 1.349 . S
C1148 C1146 1.327 . S
C1148 C1167 1.429 . S
C1148 H1172 0.950 . S
C1149 C1166 1.574 . S
C1149 C1168 1.368 . S
C1149 H1173 0.949 . S
H1150 C1154 0.945 . S
C1151 C1152 1.349 . S
C1151 C1153 1.327 . S
C1151 H1174 0.950 . S
C1152 C1151 1.349 . S
C1152 C1164 1.349 . S
C1153 C1151 1.327 . S
C1153 C1169 1.429 . S
C1153 H1175 0.950 . S
C1154 H1150 0.945 . S
C1154 C1162 1.574 . S
C1154 C1170 1.368 . S
H1155 C1163 0.950 . S
H1156 C1161 0.950 . S
H1157 C1162 0.949 . S
H1158 C1164 0.950 1_565 S
H1159 C1165 0.950 1_565 S
H1160 C1166 0.949 . S
C1161 H1156 0.950 . S
C1161 C1163 1.327 . S
C1161 C1167 1.429 . S
C1162 C1154 1.574 . S
C1162 H1157 0.949 . S
C1162 C1168 1.368 . S
C1163 C1147 1.349 . S
C1163 H1155 0.950 . S
C1163 C1161 1.327 . S
C1164 C1152 1.349 . S
C1164 H1158 0.950 1_545 S
C1164 C1165 1.327 . S
C1165 H1159 0.950 1_545 S
C1165 C1164 1.327 . S
C1165 C1169 1.429 . S
C1166 C1149 1.574 . S
C1166 H1160 0.949 . S
C1166 C1170 1.368 . S
C1167 C1148 1.429 . S
C1167 C1161 1.429 . S
C1167 C1168 1.523 . S
C1168 C1149 1.368 . S
C1168 C1162 1.368 . S
C1168 C1167 1.523 . S
C1169 C1153 1.429 . S
C1169 C1165 1.429 . S
C1169 C1170 1.523 . S
C1170 C1154 1.368 . S
C1170 C1166 1.368 . S
C1170 C1169 1.523 . S
H1171 C1146 0.950 . S
H1172 C1148 0.950 . S
H1173 C1149 0.949 . S
H1174 C1151 0.950 . S
H1175 C1153 0.950 . S
C1176 C1177 1.349 . S
C1176 C1178 1.327 . S
C1176 H1201 0.950 . S
C1177 C1176 1.349 . S
C1177 C1193 1.349 . S
C1178 C1176 1.327 . S
C1178 C1197 1.429 . S
C1178 H1202 0.950 . S
C1179 C1196 1.574 . S
C1179 C1198 1.368 . S
C1179 H1203 0.949 . S
H1180 C1184 0.949 . S
C1181 C1182 1.349 . S
C1181 C1183 1.327 . S
C1181 H1204 0.950 . S
C1182 C1181 1.349 . S
C1182 C1194 1.349 . S
C1183 C1181 1.327 . S
C1183 C1199 1.429 . S
C1183 H1205 0.950 . S
C1184 H1180 0.949 . S
C1184 C1192 1.574 . S
C1184 C1200 1.368 . S
H1185 C1193 0.950 . S
H1186 C1191 0.950 . S
H1187 C1192 0.949 . S
H1188 C1194 0.950 . S
H1189 C1195 0.950 . S
H1190 C1196 0.949 . S
C1191 H1186 0.950 . S
C1191 C1193 1.327 . S
C1191 C1197 1.429 . S
C1192 C1184 1.574 . S
C1192 H1187 0.949 . S
C1192 C1198 1.368 . S
C1193 C1177 1.349 . S
C1193 H1185 0.950 . S
C1193 C1191 1.327 . S
C1194 C1182 1.349 . S
C1194 H1188 0.950 . S
C1194 C1195 1.327 . S
C1195 H1189 0.950 . S
C1195 C1194 1.327 . S
C1195 C1199 1.429 . S
C1196 C1179 1.574 . S
C1196 H1190 0.949 . S
C1196 C1200 1.368 . S
C1197 C1178 1.429 . S
C1197 C1191 1.429 . S
C1197 C1198 1.523 . S
C1198 C1179 1.368 . S
C1198 C1192 1.368 . S
C1198 C1197 1.523 . S
C1199 C1183 1.429 . S
C1199 C1195 1.429 . S
C1199 C1200 1.523 . S
C1200 C1184 1.368 . S
C1200 C1196 1.368 . S
C1200 C1199 1.523 . S
H1201 C1176 0.950 . S
H1202 C1178 0.950 . S
H1203 C1179 0.949 . S
H1204 C1181 0.950 . S
H1205 C1183 0.950 . S
C1206 C1207 1.349 . S
C1206 C1208 1.327 . S
C1206 H1231 0.950 . S
C1207 C1206 1.349 . S
C1207 C1223 1.349 . S
C1208 C1206 1.327 . S
C1208 C1227 1.429 . S
C1208 H1232 0.950 . S
C1209 C1226 1.574 . S
C1209 C1228 1.368 . S
C1209 H1233 0.949 . S
H1210 C1214 0.949 . S
C1211 C1212 1.349 . S
C1211 C1213 1.327 . S
C1211 H1234 0.950 . S
C1212 C1211 1.349 . S
C1212 C1224 1.349 . S
C1213 C1211 1.327 . S
C1213 C1229 1.429 . S
C1213 H1235 0.950 . S
C1214 H1210 0.949 . S
C1214 C1222 1.574 . S
C1214 C1230 1.368 . S
H1215 C1223 0.950 . S
H1216 C1221 0.950 . S
H1217 C1222 0.949 . S
H1218 C1224 0.950 1_565 S
H1219 C1225 0.914 1_565 S
H1220 C1226 0.949 . S
C1221 H1216 0.950 . S
C1221 C1223 1.327 . S
C1221 C1227 1.429 . S
C1222 C1214 1.574 . S
C1222 H1217 0.949 . S
C1222 C1228 1.368 . S
C1223 C1207 1.349 . S
C1223 H1215 0.950 . S
C1223 C1221 1.327 . S
C1224 C1212 1.349 . S
C1224 H1218 0.950 1_545 S
C1224 C1225 1.327 . S
C1225 H1219 0.914 1_545 S
C1225 C1224 1.327 . S
C1225 C1229 1.429 . S
C1226 C1209 1.574 . S
C1226 H1220 0.949 . S
C1226 C1230 1.368 . S
C1227 C1208 1.429 . S
C1227 C1221 1.429 . S
C1227 C1228 1.523 . S
C1228 C1209 1.368 . S
C1228 C1222 1.368 . S
C1228 C1227 1.523 . S
C1229 C1213 1.429 . S
C1229 C1225 1.429 . S
C1229 C1230 1.523 . S
C1230 C1214 1.368 . S
C1230 C1226 1.368 . S
C1230 C1229 1.523 . S
H1231 C1206 0.950 . S
H1232 C1208 0.950 . S
H1233 C1209 0.949 . S
H1234 C1211 0.950 . S
H1235 C1213 0.950 . S
C1236 C1237 1.349 . S
C1236 C1238 1.327 . S
C1236 H1261 0.950 . S
C1237 C1236 1.349 . S
C1237 C1253 1.349 . S
C1238 C1236 1.327 . S
C1238 C1257 1.429 . S
C1238 H1262 0.950 . S
C1239 C1256 1.574 . S
C1239 C1258 1.368 . S
C1239 H1263 0.949 . S
H1240 C1244 0.949 . S
C1241 C1242 1.349 . S
C1241 C1243 1.327 . S
C1241 H1264 0.950 . S
C1242 C1241 1.349 . S
C1242 C1254 1.349 . S
C1243 C1241 1.327 . S
C1243 C1259 1.429 . S
C1243 H1265 0.950 . S
C1244 H1240 0.949 . S
C1244 C1252 1.574 . S
C1244 C1260 1.368 . S
H1245 C1253 0.950 . S
H1246 C1251 0.950 . S
H1247 C1252 0.949 . S
H1248 C1254 0.950 . S
H1249 C1255 0.950 . S
H1250 C1256 0.949 . S
C1251 H1246 0.950 . S
C1251 C1253 1.327 . S
C1251 C1257 1.429 . S
C1252 C1244 1.574 . S
C1252 H1247 0.949 . S
C1252 C1258 1.368 . S
C1253 C1237 1.349 . S
C1253 H1245 0.950 . S
C1253 C1251 1.327 . S
C1254 C1242 1.349 . S
C1254 H1248 0.950 . S
C1254 C1255 1.327 . S
C1255 H1249 0.950 . S
C1255 C1254 1.327 . S
C1255 C1259 1.429 . S
C1256 C1239 1.574 . S
C1256 H1250 0.949 . S
C1256 C1260 1.368 . S
C1257 C1238 1.429 . S
C1257 C1251 1.429 . S
C1257 C1258 1.523 . S
C1258 C1239 1.368 . S
C1258 C1252 1.368 . S
C1258 C1257 1.523 . S
C1259 C1243 1.429 . S
C1259 C1255 1.429 . S
C1259 C1260 1.523 . S
C1260 C1244 1.368 . S
C1260 C1256 1.368 . S
C1260 C1259 1.523 . S
H1261 C1236 0.950 . S
H1262 C1238 0.950 . S
H1263 C1239 0.949 . S
H1264 C1241 0.950 . S
H1265 C1243 0.950 . S
C1266 C1267 1.349 1_565 S
C1266 C1268 1.327 . S
C1266 H1291 0.950 . S
C1267 C1266 1.349 1_545 S
C1267 C1283 1.349 . S
C1268 C1266 1.327 . S
C1268 C1287 1.429 1_565 S
C1268 H1292 0.950 . S
C1269 C1286 1.574 . S
C1269 C1288 1.368 . S
C1269 H1293 0.949 . S
H1270 C1274 0.949 . S
C1271 C1272 1.349 . S
C1271 C1273 1.327 . S
C1271 H1294 0.950 . S
C1272 C1271 1.349 . S
C1272 C1284 1.391 . S
C1273 C1271 1.327 . S
C1273 C1289 1.429 . S
C1273 H1295 0.950 . S
C1274 H1270 0.949 . S
C1274 C1282 1.574 . S
C1274 C1290 1.368 1_565 S
H1275 C1283 0.950 . S
H1276 C1281 0.950 . S
H1277 C1282 0.949 . S
H1278 C1284 0.913 1_565 S
H1279 C1285 0.950 . S
H1280 C1286 0.949 . S
C1281 H1276 0.950 . S
C1281 C1283 1.327 . S
C1281 C1287 1.429 . S
C1282 C1274 1.574 . S
C1282 H1277 0.949 . S
C1282 C1288 1.368 1_565 S
C1283 C1267 1.349 . S
C1283 H1275 0.950 . S
C1283 C1281 1.327 . S
C1284 C1272 1.391 . S
C1284 H1278 0.913 1_545 S
C1284 C1285 1.323 1_545 S
C1285 H1279 0.950 . S
C1285 C1284 1.323 1_565 S
C1285 C1289 1.429 1_565 S
C1286 C1269 1.574 . S
C1286 H1280 0.949 . S
C1286 C1290 1.368 . S
C1287 C1268 1.429 1_545 S
C1287 C1281 1.429 . S
C1287 C1288 1.523 . S
C1288 C1269 1.368 . S
C1288 C1282 1.368 1_545 S
C1288 C1287 1.523 . S
C1289 C1273 1.429 . S
C1289 C1285 1.429 1_545 S
C1289 C1290 1.523 . S
C1290 C1274 1.368 1_545 S
C1290 C1286 1.368 . S
C1290 C1289 1.523 . S
H1291 C1266 0.950 . S
H1292 C1268 0.950 . S
H1293 C1269 0.949 . S
H1294 C1271 0.950 . S
H1295 C1273 0.950 . S
C1296 C1297 1.349 . S
C1296 C1298 1.327 . S
C1296 H1321 0.950 . S
C1297 C1296 1.349 . S
C1297 C1313 1.349 . S
C1298 C1296 1.327 . S
C1298 C1317 1.429 . S
C1298 H1322 0.950 . S
C1299 C1316 1.574 . S
C1299 C1318 1.368 . S
C1299 H1323 0.949 . S
H1300 C1304 0.949 . S
C1301 C1302 1.349 . S
C1301 C1303 1.327 . S
C1301 H1324 0.950 . S
C1302 C1301 1.349 . S
C1302 C1314 1.349 . S
C1303 C1301 1.327 . S
C1303 C1319 1.429 . S
C1303 H1325 0.950 . S
C1304 H1300 0.949 . S
C1304 C1312 1.574 . S
C1304 C1320 1.368 . S
H1305 C1313 0.950 . S
H1306 C1311 0.950 . S
H1307 C1312 0.949 . S
H1308 C1314 0.950 . S
H1309 C1315 0.950 . S
H1310 C1316 0.949 . S
C1311 H1306 0.950 . S
C1311 C1313 1.327 . S
C1311 C1317 1.429 . S
C1312 C1304 1.574 . S
C1312 H1307 0.949 . S
C1312 C1318 1.368 . S
C1313 C1297 1.349 . S
C1313 H1305 0.950 . S
C1313 C1311 1.327 . S
C1314 C1302 1.349 . S
C1314 H1308 0.950 . S
C1314 C1315 1.327 . S
C1315 H1309 0.950 . S
C1315 C1314 1.327 . S
C1315 C1319 1.429 . S
C1316 C1299 1.574 . S
C1316 H1310 0.949 . S
C1316 C1320 1.368 . S
C1317 C1298 1.429 . S
C1317 C1311 1.429 . S
C1317 C1318 1.523 . S
C1318 C1299 1.368 . S
C1318 C1312 1.368 . S
C1318 C1317 1.523 . S
C1319 C1303 1.429 . S
C1319 C1315 1.429 . S
C1319 C1320 1.523 . S
C1320 C1304 1.368 . S
C1320 C1316 1.368 . S
C1320 C1319 1.523 . S
H1321 C1296 0.950 . S
H1322 C1298 0.950 . S
H1323 C1299 0.949 . S
H1324 C1301 0.950 . S
H1325 C1303 0.950 . S
C1326 C1327 1.349 . S
C1326 C1328 1.327 . S
C1326 H1351 0.950 . S
C1327 C1326 1.349 . S
C1327 C1343 1.349 . S
C1328 C1326 1.327 . S
C1328 C1347 1.429 . S
C1328 H1352 0.950 . S
C1329 C1346 1.574 . S
C1329 C1348 1.368 . S
C1329 H1353 0.949 . S
H1330 C1334 0.949 . S
C1331 C1332 1.349 . S
C1331 C1333 1.327 . S
C1331 H1354 0.950 . S
C1332 C1331 1.349 . S
C1332 C1344 1.349 . S
C1333 C1331 1.327 . S
C1333 C1349 1.429 . S
C1333 H1355 0.950 . S
C1334 H1330 0.949 . S
C1334 C1342 1.574 . S
C1334 C1350 1.368 . S
H1335 C1343 0.950 . S
H1336 C1341 0.950 . S
H1337 C1342 0.949 . S
H1338 C1344 0.950 . S
H1339 C1345 0.950 . S
H1340 C1346 0.949 . S
C1341 H1336 0.950 . S
C1341 C1343 1.327 . S
C1341 C1347 1.429 . S
C1342 C1334 1.574 . S
C1342 H1337 0.949 . S
C1342 C1348 1.368 . S
C1343 C1327 1.349 . S
C1343 H1335 0.950 . S
C1343 C1341 1.327 . S
C1344 C1332 1.349 . S
C1344 H1338 0.950 . S
C1344 C1345 1.327 . S
C1345 H1339 0.950 . S
C1345 C1344 1.327 . S
C1345 C1349 1.429 . S
C1346 C1329 1.574 . S
C1346 H1340 0.949 . S
C1346 C1350 1.368 . S
C1347 C1328 1.429 . S
C1347 C1341 1.429 . S
C1347 C1348 1.523 . S
C1348 C1329 1.368 . S
C1348 C1342 1.368 . S
C1348 C1347 1.523 . S
C1349 C1333 1.429 . S
C1349 C1345 1.429 . S
C1349 C1350 1.523 . S
C1350 C1334 1.368 . S
C1350 C1346 1.368 . S
C1350 C1349 1.523 . S
H1351 C1326 0.950 . S
H1352 C1328 0.950 . S
H1353 C1329 0.949 . S
H1354 C1331 0.950 . S
H1355 C1333 0.950 . S
C1356 C1357 1.349 . S
C1356 C1358 1.327 . S
C1356 H1381 0.950 . S
C1357 C1356 1.349 . S
C1357 C1373 1.349 . S
C1358 C1356 1.327 . S
C1358 C1377 1.429 . S
C1358 H1382 0.950 . S
C1359 C1376 1.574 . S
C1359 C1378 1.368 . S
C1359 H1383 0.949 . S
H1360 C1364 0.949 . S
C1361 C1362 1.349 . S
C1361 C1363 1.327 . S
C1361 H1384 0.950 . S
C1362 C1361 1.349 . S
C1362 C1374 1.349 . S
C1363 C1361 1.327 . S
C1363 C1379 1.429 . S
C1363 H1385 0.950 . S
C1364 H1360 0.949 . S
C1364 C1372 1.574 . S
C1364 C1380 1.368 . S
H1365 C1373 0.950 . S
H1366 C1371 0.950 . S
H1367 C1372 0.949 . S
H1368 C1374 0.950 . S
H1369 C1375 0.950 . S
H1370 C1376 0.949 . S
C1371 H1366 0.950 . S
C1371 C1373 1.327 . S
C1371 C1377 1.429 . S
C1372 C1364 1.574 . S
C1372 H1367 0.949 . S
C1372 C1378 1.368 . S
C1373 C1357 1.349 . S
C1373 H1365 0.950 . S
C1373 C1371 1.327 . S
C1374 C1362 1.349 . S
C1374 H1368 0.950 . S
C1374 C1375 1.327 . S
C1375 H1369 0.950 . S
C1375 C1374 1.327 . S
C1375 C1379 1.429 . S
C1376 C1359 1.574 . S
C1376 H1370 0.949 . S
C1376 C1380 1.368 . S
C1377 C1358 1.429 . S
C1377 C1371 1.429 . S
C1377 C1378 1.523 . S
C1378 C1359 1.368 . S
C1378 C1372 1.368 . S
C1378 C1377 1.523 . S
C1379 C1363 1.429 . S
C1379 C1375 1.429 . S
C1379 C1380 1.523 . S
C1380 C1364 1.368 . S
C1380 C1376 1.368 . S
C1380 C1379 1.523 . S
H1381 C1356 0.950 . S
H1382 C1358 0.950 . S
H1383 C1359 0.949 . S
H1384 C1361 0.950 . S
H1385 C1363 0.950 . S
C1386 C1387 1.349 . S
C1386 C1388 1.327 . S
C1386 H1411 0.950 . S
C1387 C1386 1.349 . S
C1387 C1403 1.349 1_545 S
C1388 C1386 1.327 . S
C1388 C1407 1.429 . S
C1388 H1412 0.950 . S
C1389 C1406 1.574 . S
C1389 C1408 1.368 1_565 S
C1389 H1413 0.949 . S
H1390 C1394 0.949 . S
C1391 C1392 1.349 . S
C1391 C1393 1.327 . S
C1391 H1414 0.950 1_545 S
C1392 C1391 1.349 . S
C1392 C1404 1.349 . S
C1393 C1391 1.327 . S
C1393 C1409 1.429 . S
C1393 H1415 0.950 1_545 S
C1394 H1390 0.949 . S
C1394 C1402 1.574 . S
C1394 C1410 1.368 . S
H1395 C1403 0.950 . S
H1396 C1401 0.950 . S
H1397 C1402 0.949 . S
H1398 C1404 0.950 . S
H1399 C1405 0.950 . S
H1400 C1406 0.949 . S
C1401 H1396 0.950 . S
C1401 C1403 1.327 . S
C1401 C1407 1.429 1_565 S
C1402 C1394 1.574 . S
C1402 H1397 0.949 . S
C1402 C1408 1.368 . S
C1403 C1387 1.349 1_565 S
C1403 H1395 0.950 . S
C1403 C1401 1.327 . S
C1404 C1392 1.349 . S
C1404 H1398 0.950 . S
C1404 C1405 1.327 . S
C1405 H1399 0.950 . S
C1405 C1404 1.327 . S
C1405 C1409 1.429 . S
C1406 C1389 1.574 . S
C1406 H1400 0.949 . S
C1406 C1410 1.368 1_565 S
C1407 C1388 1.429 . S
C1407 C1401 1.429 1_545 S
C1407 C1408 1.523 . S
C1408 C1389 1.368 1_545 S
C1408 C1402 1.368 . S
C1408 C1407 1.523 . S
C1409 C1393 1.429 . S
C1409 C1405 1.429 . S
C1409 C1410 1.523 . S
C1410 C1394 1.368 . S
C1410 C1406 1.368 1_545 S
C1410 C1409 1.523 . S
H1411 C1386 0.950 . S
H1412 C1388 0.950 . S
H1413 C1389 0.949 . S
H1414 C1391 0.950 1_565 S
H1415 C1393 0.950 1_565 S
C1416 C1417 1.349 . S
C1416 C1418 1.328 . S
C1416 H1441 0.949 1_455 S
C1417 C1416 1.349 . S
C1417 C1433 1.354 . S
C1418 C1416 1.328 . S
C1418 C1437 1.429 . S
C1418 H1442 0.952 . S
C1419 C1436 1.574 . S
C1419 C1438 1.368 . S
C1419 H1443 0.949 . S
H1420 C1424 0.949 . S
C1421 C1422 1.349 . S
C1421 C1423 1.327 . S
C1421 H1444 0.950 . S
C1422 C1421 1.349 . S
C1422 C1434 1.349 . S
C1423 C1421 1.327 . S
C1423 C1439 1.429 . S
C1423 H1445 0.950 . S
C1424 H1420 0.949 . S
C1424 C1432 1.574 . S
C1424 C1440 1.368 . S
H1425 C1433 0.950 . S
H1426 C1431 0.950 . S
H1427 C1432 0.949 . S
H1428 C1434 0.950 . S
H1429 C1435 0.950 . S
H1430 C1436 0.949 . S
C1431 H1426 0.950 . S
C1431 C1433 1.327 . S
C1431 C1437 1.429 . S
C1432 C1424 1.574 . S
C1432 H1427 0.949 . S
C1432 C1438 1.368 . S
C1433 C1417 1.354 . S
C1433 H1425 0.950 . S
C1433 C1431 1.327 . S
C1434 C1422 1.349 . S
C1434 H1428 0.950 . S
C1434 C1435 1.327 . S
C1435 H1429 0.950 . S
C1435 C1434 1.327 . S
C1435 C1439 1.429 . S
C1436 C1419 1.574 . S
C1436 H1430 0.949 . S
C1436 C1440 1.368 . S
C1437 C1418 1.429 . S
C1437 C1431 1.429 . S
C1437 C1438 1.523 . S
C1438 C1419 1.368 . S
C1438 C1432 1.368 . S
C1438 C1437 1.523 . S
C1439 C1423 1.429 . S
C1439 C1435 1.429 . S
C1439 C1440 1.523 . S
C1440 C1424 1.368 . S
C1440 C1436 1.368 . S
C1440 C1439 1.523 . S
H1441 C1416 0.949 1_655 S
H1442 C1418 0.952 . S
H1443 C1419 0.949 . S
H1444 C1421 0.950 . S
H1445 C1423 0.950 . S
C1446 C1447 1.349 . S
C1446 C1448 1.327 . S
C1446 H1471 0.950 . S
C1447 C1446 1.349 . S
C1447 C1463 1.349 1_545 S
C1448 C1446 1.327 . S
C1448 C1467 1.429 . S
C1448 H1472 0.950 . S
C1449 C1466 1.574 . S
C1449 C1468 1.368 1_565 S
C1449 H1473 0.949 . S
H1450 C1454 0.949 . S
C1451 C1452 1.306 1_565 S
C1451 C1453 1.332 . S
C1451 H1474 0.990 . S
C1452 C1451 1.306 1_545 S
C1452 C1464 1.349 . S
C1453 C1451 1.332 . S
C1453 C1469 1.429 1_565 S
C1453 H1475 0.950 . S
C1454 H1450 0.949 . S
C1454 C1462 1.574 . S
C1454 C1470 1.368 . S
H1455 C1463 0.950 . S
H1456 C1461 0.950 . S
H1457 C1462 0.949 . S
H1458 C1464 0.950 . S
H1459 C1465 0.950 . S
H1460 C1466 0.949 . S
C1461 H1456 0.950 . S
C1461 C1463 1.327 . S
C1461 C1467 1.429 1_565 S
C1462 C1454 1.574 . S
C1462 H1457 0.949 . S
C1462 C1468 1.368 . S
C1463 C1447 1.349 1_565 S
C1463 H1455 0.950 . S
C1463 C1461 1.327 . S
C1464 C1452 1.349 . S
C1464 H1458 0.950 . S
C1464 C1465 1.327 . S
C1465 H1459 0.950 . S
C1465 C1464 1.327 . S
C1465 C1469 1.429 . S
C1466 C1449 1.574 . S
C1466 H1460 0.949 . S
C1466 C1470 1.368 1_565 S
C1467 C1448 1.429 . S
C1467 C1461 1.429 1_545 S
C1467 C1468 1.523 . S
C1468 C1449 1.368 1_545 S
C1468 C1462 1.368 . S
C1468 C1467 1.523 . S
C1469 C1453 1.429 1_545 S
C1469 C1465 1.429 . S
C1469 C1470 1.523 . S
C1470 C1454 1.368 . S
C1470 C1466 1.368 1_545 S
C1470 C1469 1.523 . S
H1471 C1446 0.950 . S
H1472 C1448 0.950 . S
H1473 C1449 0.949 . S
H1474 C1451 0.990 . S
H1475 C1453 0.950 . S
C1476 C1477 1.349 . S
C1476 C1478 1.327 . S
C1476 H1501 0.950 . S
C1477 C1476 1.349 . S
C1477 C1493 1.349 . S
C1478 C1476 1.327 . S
C1478 C1497 1.429 . S
C1478 H1502 0.950 . S
C1479 C1496 1.574 . S
C1479 C1498 1.368 . S
C1479 H1503 0.949 . S
H1480 C1484 0.949 . S
C1481 C1482 1.349 . S
C1481 C1483 1.327 . S
C1481 H1504 0.950 . S
C1482 C1481 1.349 . S
C1482 C1494 1.349 . S
C1483 C1481 1.327 . S
C1483 C1499 1.429 . S
C1483 H1505 0.950 . S
C1484 H1480 0.949 . S
C1484 C1492 1.574 . S
C1484 C1500 1.368 . S
H1485 C1493 0.950 . S
H1486 C1491 0.950 . S
H1487 C1492 0.949 . S
H1488 C1494 0.950 . S
H1489 C1495 0.950 . S
H1490 C1496 0.949 . S
C1491 H1486 0.950 . S
C1491 C1493 1.327 . S
C1491 C1497 1.429 . S
C1492 C1484 1.574 . S
C1492 H1487 0.949 . S
C1492 C1498 1.368 . S
C1493 C1477 1.349 . S
C1493 H1485 0.950 . S
C1493 C1491 1.327 . S
C1494 C1482 1.349 . S
C1494 H1488 0.950 . S
C1494 C1495 1.327 . S
C1495 H1489 0.950 . S
C1495 C1494 1.327 . S
C1495 C1499 1.429 . S
C1496 C1479 1.574 . S
C1496 H1490 0.949 . S
C1496 C1500 1.368 . S
C1497 C1478 1.429 . S
C1497 C1491 1.429 . S
C1497 C1498 1.523 . S
C1498 C1479 1.368 . S
C1498 C1492 1.368 . S
C1498 C1497 1.523 . S
C1499 C1483 1.429 . S
C1499 C1495 1.429 . S
C1499 C1500 1.523 . S
C1500 C1484 1.368 . S
C1500 C1496 1.368 . S
C1500 C1499 1.523 . S
H1501 C1476 0.950 . S
H1502 C1478 0.950 . S
H1503 C1479 0.949 . S
H1504 C1481 0.950 . S
H1505 C1483 0.950 . S
C1506 C1507 1.349 . S
C1506 C1508 1.327 . S
C1506 H1531 0.950 . S
C1507 C1506 1.349 . S
C1507 C1523 1.349 . S
C1508 C1506 1.327 . S
C1508 C1527 1.429 . S
C1508 H1532 0.950 . S
C1509 C1526 1.574 . S
C1509 C1528 1.368 . S
C1509 H1533 0.949 . S
H1510 C1514 0.946 . S
C1511 C1512 1.349 . S
C1511 C1513 1.327 . S
C1511 H1534 0.950 . S
C1512 C1511 1.349 . S
C1512 C1524 1.349 . S
C1513 C1511 1.327 . S
C1513 C1529 1.429 . S
C1513 H1535 0.950 . S
C1514 H1510 0.946 . S
C1514 C1522 1.574 . S
C1514 C1530 1.368 . S
H1515 C1523 0.950 . S
H1516 C1521 0.950 . S
H1517 C1522 0.949 . S
H1518 C1524 0.950 1_565 S
H1519 C1525 0.950 1_565 S
H1520 C1526 0.949 . S
C1521 H1516 0.950 . S
C1521 C1523 1.327 . S
C1521 C1527 1.429 . S
C1522 C1514 1.574 . S
C1522 H1517 0.949 . S
C1522 C1528 1.368 . S
C1523 C1507 1.349 . S
C1523 H1515 0.950 . S
C1523 C1521 1.327 . S
C1524 C1512 1.349 . S
C1524 H1518 0.950 1_545 S
C1524 C1525 1.327 . S
C1525 H1519 0.950 1_545 S
C1525 C1524 1.327 . S
C1525 C1529 1.429 . S
C1526 C1509 1.574 . S
C1526 H1520 0.949 . S
C1526 C1530 1.368 . S
C1527 C1508 1.429 . S
C1527 C1521 1.429 . S
C1527 C1528 1.523 . S
C1528 C1509 1.368 . S
C1528 C1522 1.368 . S
C1528 C1527 1.523 . S
C1529 C1513 1.429 . S
C1529 C1525 1.429 . S
C1529 C1530 1.523 . S
C1530 C1514 1.368 . S
C1530 C1526 1.368 . S
C1530 C1529 1.523 . S
H1531 C1506 0.950 . S
H1532 C1508 0.950 . S
H1533 C1509 0.949 . S
H1534 C1511 0.950 . S
H1535 C1513 0.950 . S
C1536 C1537 1.349 1_565 S
C1536 C1538 1.327 . S
C1536 H1561 0.950 . S
C1537 C1536 1.349 1_545 S
C1537 C1553 1.349 . S
C1538 C1536 1.327 . S
C1538 C1557 1.429 1_565 S
C1538 H1562 0.950 . S
C1539 C1556 1.574 . S
C1539 C1558 1.368 . S
C1539 H1563 0.949 . S
H1540 C1544 0.949 . S
C1541 C1542 1.349 . S
C1541 C1543 1.327 . S
C1541 H1564 0.950 . S
C1542 C1541 1.349 . S
C1542 C1554 1.349 1_545 S
C1543 C1541 1.327 . S
C1543 C1559 1.429 . S
C1543 H1565 0.950 . S
C1544 H1540 0.949 . S
C1544 C1552 1.574 . S
C1544 C1560 1.368 1_565 S
H1545 C1553 0.950 . S
H1546 C1551 0.950 . S
H1547 C1552 0.949 . S
H1548 C1554 0.950 . S
H1549 C1555 0.950 . S
H1550 C1556 0.949 . S
C1551 H1546 0.950 . S
C1551 C1553 1.327 . S
C1551 C1557 1.429 . S
C1552 C1544 1.574 . S
C1552 H1547 0.949 . S
C1552 C1558 1.368 1_565 S
C1553 C1537 1.349 . S
C1553 H1545 0.950 . S
C1553 C1551 1.327 . S
C1554 C1542 1.349 1_565 S
C1554 H1548 0.950 . S
C1554 C1555 1.327 . S
C1555 H1549 0.950 . S
C1555 C1554 1.327 . S
C1555 C1559 1.429 1_565 S
C1556 C1539 1.574 . S
C1556 H1550 0.949 . S
C1556 C1560 1.368 . S
C1557 C1538 1.429 1_545 S
C1557 C1551 1.429 . S
C1557 C1558 1.523 . S
C1558 C1539 1.368 . S
C1558 C1552 1.368 1_545 S
C1558 C1557 1.523 . S
C1559 C1543 1.429 . S
C1559 C1555 1.429 1_545 S
C1559 C1560 1.523 . S
C1560 C1544 1.368 1_545 S
C1560 C1556 1.368 . S
C1560 C1559 1.523 . S
H1561 C1536 0.950 . S
H1562 C1538 0.950 . S
H1563 C1539 0.949 . S
H1564 C1541 0.950 . S
H1565 C1543 0.950 . S
C1566 C1567 1.349 . S
C1566 C1568 1.327 . S
C1566 H1591 0.950 . S
C1567 C1566 1.349 . S
C1567 C1583 1.349 . S
C1568 C1566 1.327 . S
C1568 C1587 1.429 . S
C1568 H1592 0.950 . S
C1569 C1586 1.574 . S
C1569 C1588 1.368 . S
C1569 H1593 0.949 . S
H1570 C1574 0.949 . S
C1571 C1572 1.349 . S
C1571 C1573 1.327 . S
C1571 H1594 0.950 . S
C1572 C1571 1.349 . S
C1572 C1584 1.349 . S
C1573 C1571 1.327 . S
C1573 C1589 1.429 . S
C1573 H1595 0.950 . S
C1574 H1570 0.949 . S
C1574 C1582 1.574 . S
C1574 C1590 1.368 . S
H1575 C1583 0.950 . S
H1576 C1581 0.950 . S
H1577 C1582 0.949 . S
H1578 C1584 0.950 . S
H1579 C1585 0.950 . S
H1580 C1586 0.949 . S
C1581 H1576 0.950 . S
C1581 C1583 1.327 . S
C1581 C1587 1.429 . S
C1582 C1574 1.574 . S
C1582 H1577 0.949 . S
C1582 C1588 1.368 . S
C1583 C1567 1.349 . S
C1583 H1575 0.950 . S
C1583 C1581 1.327 . S
C1584 C1572 1.349 . S
C1584 H1578 0.950 . S
C1584 C1585 1.327 . S
C1585 H1579 0.950 . S
C1585 C1584 1.327 . S
C1585 C1589 1.429 . S
C1586 C1569 1.574 . S
C1586 H1580 0.949 . S
C1586 C1590 1.368 . S
C1587 C1568 1.429 . S
C1587 C1581 1.429 . S
C1587 C1588 1.523 . S
C1588 C1569 1.368 . S
C1588 C1582 1.368 . S
C1588 C1587 1.523 . S
C1589 C1573 1.429 . S
C1589 C1585 1.429 . S
C1589 C1590 1.523 . S
C1590 C1574 1.368 . S
C1590 C1586 1.368 . S
C1590 C1589 1.523 . S
H1591 C1566 0.950 . S
H1592 C1568 0.950 . S
H1593 C1569 0.949 . S
H1594 C1571 0.950 . S
H1595 C1573 0.950 . S
C1596 C1597 1.349 . S
C1596 C1598 1.327 . S
C1596 H1621 0.950 . S
C1597 C1596 1.349 . S
C1597 C1613 1.349 . S
C1598 C1596 1.327 . S
C1598 C1617 1.429 . S
C1598 H1622 0.950 . S
C1599 C1616 1.574 . S
C1599 C1618 1.368 . S
C1599 H1623 0.949 . S
H1600 C1604 0.949 . S
C1601 C1602 1.349 . S
C1601 C1603 1.327 . S
C1601 H1624 0.950 . S
C1602 C1601 1.349 . S
C1602 C1614 1.349 . S
C1603 C1601 1.327 . S
C1603 C1619 1.429 . S
C1603 H1625 0.950 . S
C1604 H1600 0.949 . S
C1604 C1612 1.574 . S
C1604 C1620 1.368 . S
H1605 C1613 0.950 . S
H1606 C1611 0.950 . S
H1607 C1612 0.949 . S
H1608 C1614 0.950 . S
H1609 C1615 0.950 . S
H1610 C1616 0.949 . S
C1611 H1606 0.950 . S
C1611 C1613 1.327 . S
C1611 C1617 1.429 . S
C1612 C1604 1.574 . S
C1612 H1607 0.949 . S
C1612 C1618 1.368 . S
C1613 C1597 1.349 . S
C1613 H1605 0.950 . S
C1613 C1611 1.327 . S
C1614 C1602 1.349 . S
C1614 H1608 0.950 . S
C1614 C1615 1.327 . S
C1615 H1609 0.950 . S
C1615 C1614 1.327 . S
C1615 C1619 1.429 . S
C1616 C1599 1.574 . S
C1616 H1610 0.949 . S
C1616 C1620 1.368 . S
C1617 C1598 1.429 . S
C1617 C1611 1.429 . S
C1617 C1618 1.523 . S
C1618 C1599 1.368 . S
C1618 C1612 1.368 . S
C1618 C1617 1.523 . S
C1619 C1603 1.429 . S
C1619 C1615 1.429 . S
C1619 C1620 1.523 . S
C1620 C1604 1.368 . S
C1620 C1616 1.368 . S
C1620 C1619 1.523 . S
H1621 C1596 0.950 . S
H1622 C1598 0.950 . S
H1623 C1599 0.949 . S
H1624 C1601 0.950 . S
H1625 C1603 0.950 . S
C1626 C1627 1.349 . S
C1626 C1628 1.327 . S
C1626 H1651 0.925 1_455 S
C1627 C1626 1.349 . S
C1627 C1643 1.349 . S
C1628 C1626 1.327 . S
C1628 C1647 1.429 . S
C1628 H1652 0.950 1_455 S
C1629 C1646 1.574 . S
C1629 C1648 1.368 . S
C1629 H1653 0.949 . S
H1630 C1634 0.949 1_655 S
C1631 C1632 1.349 . S
C1631 C1633 1.327 . S
C1631 H1654 0.950 . S
C1632 C1631 1.349 . S
C1632 C1644 1.349 . S
C1633 C1631 1.327 . S
C1633 C1649 1.429 . S
C1633 H1655 0.950 . S
C1634 H1630 0.949 1_455 S
C1634 C1642 1.574 . S
C1634 C1650 1.368 . S
H1635 C1643 0.950 . S
H1636 C1641 0.950 . S
H1637 C1642 0.949 1_655 S
H1638 C1644 0.950 1_655 S
H1639 C1645 0.950 1_655 S
H1640 C1646 0.949 . S
C1641 H1636 0.950 . S
C1641 C1643 1.327 . S
C1641 C1647 1.429 . S
C1642 C1634 1.574 . S
C1642 H1637 0.949 1_455 S
C1642 C1648 1.368 . S
C1643 C1627 1.349 . S
C1643 H1635 0.950 . S
C1643 C1641 1.327 . S
C1644 C1632 1.349 . S
C1644 H1638 0.950 1_455 S
C1644 C1645 1.327 . S
C1645 H1639 0.950 1_455 S
C1645 C1644 1.327 . S
C1645 C1649 1.429 . S
C1646 C1629 1.574 . S
C1646 H1640 0.949 . S
C1646 C1650 1.368 . S
C1647 C1628 1.429 . S
C1647 C1641 1.429 . S
C1647 C1648 1.523 . S
C1648 C1629 1.368 . S
C1648 C1642 1.368 . S
C1648 C1647 1.523 . S
C1649 C1633 1.429 . S
C1649 C1645 1.429 . S
C1649 C1650 1.523 . S
C1650 C1634 1.368 . S
C1650 C1646 1.368 . S
C1650 C1649 1.523 . S
H1651 C1626 0.925 1_655 S
H1652 C1628 0.950 1_655 S
H1653 C1629 0.949 . S
H1654 C1631 0.950 . S
H1655 C1633 0.950 . S
C1656 C1657 1.349 1_565 S
C1656 C1658 1.327 . S
C1656 H1681 0.950 . S
C1657 C1656 1.349 1_545 S
C1657 C1673 1.349 . S
C1658 C1656 1.327 . S
C1658 C1677 1.429 1_565 S
C1658 H1682 0.950 . S
C1659 C1676 1.574 . S
C1659 C1678 1.368 . S
C1659 H1683 0.949 . S
H1660 C1664 0.949 . S
C1661 C1662 1.349 . S
C1661 C1663 1.327 . S
C1661 H1684 0.950 . S
C1662 C1661 1.349 . S
C1662 C1674 1.349 1_545 S
C1663 C1661 1.327 . S
C1663 C1679 1.429 . S
C1663 H1685 0.950 . S
C1664 H1660 0.949 . S
C1664 C1672 1.574 . S
C1664 C1680 1.368 1_565 S
H1665 C1673 0.950 . S
H1666 C1671 0.950 . S
H1667 C1672 0.949 . S
H1668 C1674 0.950 . S
H1669 C1675 0.950 . S
H1670 C1676 0.949 . S
C1671 H1666 0.950 . S
C1671 C1673 1.327 . S
C1671 C1677 1.429 . S
C1672 C1664 1.574 . S
C1672 H1667 0.949 . S
C1672 C1678 1.368 1_565 S
C1673 C1657 1.349 . S
C1673 H1665 0.950 . S
C1673 C1671 1.327 . S
C1674 C1662 1.349 1_565 S
C1674 H1668 0.950 . S
C1674 C1675 1.327 . S
C1675 H1669 0.950 . S
C1675 C1674 1.327 . S
C1675 C1679 1.429 1_565 S
C1676 C1659 1.574 . S
C1676 H1670 0.949 . S
C1676 C1680 1.368 . S
C1677 C1658 1.429 1_545 S
C1677 C1671 1.429 . S
C1677 C1678 1.523 . S
C1678 C1659 1.368 . S
C1678 C1672 1.368 1_545 S
C1678 C1677 1.523 . S
C1679 C1663 1.429 . S
C1679 C1675 1.429 1_545 S
C1679 C1680 1.523 . S
C1680 C1664 1.368 1_545 S
C1680 C1676 1.368 . S
C1680 C1679 1.523 . S
H1681 C1656 0.950 . S
H1682 C1658 0.950 . S
H1683 C1659 0.949 . S
H1684 C1661 0.950 . S
H1685 C1663 0.950 . S
C1686 C1687 1.349 . S
C1686 C1688 1.327 . S
C1686 H1711 0.950 . S
C1687 C1686 1.349 . S
C1687 C1703 1.349 . S
C1688 C1686 1.327 . S
C1688 C1707 1.429 . S
C1688 H1712 0.950 . S
C1689 C1706 1.574 . S
C1689 C1708 1.368 . S
C1689 H1713 0.949 . S
H1690 C1694 0.949 . S
C1691 C1692 1.349 . S
C1691 C1693 1.327 . S
C1691 H1714 0.950 . S
C1692 C1691 1.349 . S
C1692 C1704 1.349 . S
C1693 C1691 1.327 . S
C1693 C1709 1.429 . S
C1693 H1715 0.950 . S
C1694 H1690 0.949 . S
C1694 C1702 1.574 . S
C1694 C1710 1.368 . S
H1695 C1703 0.950 . S
H1696 C1701 0.950 . S
H1697 C1702 0.949 . S
H1698 C1704 0.950 . S
H1699 C1705 0.950 . S
H1700 C1706 0.949 . S
C1701 H1696 0.950 . S
C1701 C1703 1.327 . S
C1701 C1707 1.429 . S
C1702 C1694 1.574 . S
C1702 H1697 0.949 . S
C1702 C1708 1.368 . S
C1703 C1687 1.349 . S
C1703 H1695 0.950 . S
C1703 C1701 1.327 . S
C1704 C1692 1.349 . S
C1704 H1698 0.950 . S
C1704 C1705 1.327 . S
C1705 H1699 0.950 . S
C1705 C1704 1.327 . S
C1705 C1709 1.429 . S
C1706 C1689 1.574 . S
C1706 H1700 0.949 . S
C1706 C1710 1.368 . S
C1707 C1688 1.429 . S
C1707 C1701 1.429 . S
C1707 C1708 1.523 . S
C1708 C1689 1.368 . S
C1708 C1702 1.368 . S
C1708 C1707 1.523 . S
C1709 C1693 1.429 . S
C1709 C1705 1.429 . S
C1709 C1710 1.523 . S
C1710 C1694 1.368 . S
C1710 C1706 1.368 . S
C1710 C1709 1.523 . S
H1711 C1686 0.950 . S
H1712 C1688 0.950 . S
H1713 C1689 0.949 . S
H1714 C1691 0.950 . S
H1715 C1693 0.950 . S
C1716 C1717 1.349 . S
C1716 C1718 1.327 . S
C1716 H1741 0.950 . S
C1717 C1716 1.349 . S
C1717 C1733 1.349 . S
C1718 C1716 1.327 . S
C1718 C1737 1.429 . S
C1718 H1742 0.950 . S
C1719 C1736 1.574 . S
C1719 C1738 1.368 . S
C1719 H1743 0.949 . S
H1720 C1724 0.949 . S
C1721 C1722 1.349 . S
C1721 C1723 1.327 . S
C1721 H1744 0.950 . S
C1722 C1721 1.349 . S
C1722 C1734 1.349 . S
C1723 C1721 1.327 . S
C1723 C1739 1.429 . S
C1723 H1745 0.950 . S
C1724 H1720 0.949 . S
C1724 C1732 1.574 . S
C1724 C1740 1.368 . S
H1725 C1733 0.950 . S
H1726 C1731 0.950 . S
H1727 C1732 0.949 . S
H1728 C1734 0.950 . S
H1729 C1735 0.950 . S
H1730 C1736 0.949 . S
C1731 H1726 0.950 . S
C1731 C1733 1.327 . S
C1731 C1737 1.429 . S
C1732 C1724 1.574 . S
C1732 H1727 0.949 . S
C1732 C1738 1.368 . S
C1733 C1717 1.349 . S
C1733 H1725 0.950 . S
C1733 C1731 1.327 . S
C1734 C1722 1.349 . S
C1734 H1728 0.950 . S
C1734 C1735 1.327 . S
C1735 H1729 0.950 . S
C1735 C1734 1.327 . S
C1735 C1739 1.429 . S
C1736 C1719 1.574 . S
C1736 H1730 0.949 . S
C1736 C1740 1.368 . S
C1737 C1718 1.429 . S
C1737 C1731 1.429 . S
C1737 C1738 1.523 . S
C1738 C1719 1.368 . S
C1738 C1732 1.368 . S
C1738 C1737 1.523 . S
C1739 C1723 1.429 . S
C1739 C1735 1.429 . S
C1739 C1740 1.523 . S
C1740 C1724 1.368 . S
C1740 C1736 1.368 . S
C1740 C1739 1.523 . S
H1741 C1716 0.950 . S
H1742 C1718 0.950 . S
H1743 C1719 0.949 . S
H1744 C1721 0.950 . S
H1745 C1723 0.950 . S
C1746 C1747 1.349 1_655 S
C1746 C1748 1.324 1_655 S
C1746 H1771 0.950 . S
C1747 C1746 1.349 1_455 S
C1747 C1763 1.349 . S
C1748 C1746 1.324 1_455 S
C1748 C1767 1.438 . S
C1748 H1772 0.944 1_455 S
C1749 C1766 1.574 . S
C1749 C1768 1.368 . S
C1749 H1773 0.949 . S
H1750 C1754 0.949 . S
C1751 C1752 1.349 . S
C1751 C1753 1.327 . S
C1751 H1774 0.950 . S
C1752 C1751 1.349 . S
C1752 C1764 1.349 . S
C1753 C1751 1.327 . S
C1753 C1769 1.429 . S
C1753 H1775 0.950 . S
C1754 H1750 0.949 . S
C1754 C1762 1.574 . S
C1754 C1770 1.368 . S
H1755 C1763 0.950 . S
H1756 C1761 0.950 . S
H1757 C1762 0.949 . S
H1758 C1764 0.950 . S
H1759 C1765 0.950 . S
H1760 C1766 0.949 . S
C1761 H1756 0.950 . S
C1761 C1763 1.327 . S
C1761 C1767 1.429 . S
C1762 C1754 1.574 . S
C1762 H1757 0.949 . S
C1762 C1768 1.368 . S
C1763 C1747 1.349 . S
C1763 H1755 0.950 . S
C1763 C1761 1.327 . S
C1764 C1752 1.349 . S
C1764 H1758 0.950 . S
C1764 C1765 1.327 . S
C1765 H1759 0.950 . S
C1765 C1764 1.327 . S
C1765 C1769 1.429 . S
C1766 C1749 1.574 . S
C1766 H1760 0.949 . S
C1766 C1770 1.368 . S
C1767 C1748 1.438 . S
C1767 C1761 1.429 . S
C1767 C1768 1.523 . S
C1768 C1749 1.368 . S
C1768 C1762 1.368 . S
C1768 C1767 1.523 . S
C1769 C1753 1.429 . S
C1769 C1765 1.429 . S
C1769 C1770 1.523 . S
C1770 C1754 1.368 . S
C1770 C1766 1.368 . S
C1770 C1769 1.523 . S
H1771 C1746 0.950 . S
H1772 C1748 0.944 1_655 S
H1773 C1749 0.949 . S
H1774 C1751 0.950 . S
H1775 C1753 0.950 . S
C1776 C1777 1.349 . S
C1776 C1778 1.327 . S
C1776 H1801 0.950 . S
C1777 C1776 1.349 . S
C1777 C1793 1.349 . S
C1778 C1776 1.327 . S
C1778 C1797 1.429 . S
C1778 H1802 0.950 . S
C1779 C1796 1.574 . S
C1779 C1798 1.379 . S
C1779 H1803 0.940 1_554 S
H1780 C1784 0.949 . S
C1781 C1782 1.375 . S
C1781 C1783 1.327 . S
C1781 H1804 0.924 1_554 S
C1782 C1781 1.375 . S
C1782 C1794 1.349 . S
C1783 C1781 1.327 . S
C1783 C1799 1.446 . S
C1783 H1805 0.932 1_554 S
C1784 H1780 0.949 . S
C1784 C1792 1.574 . S
C1784 C1800 1.368 . S
H1785 C1793 0.950 1_556 S
H1786 C1791 0.950 1_556 S
H1787 C1792 0.949 . S
H1788 C1794 0.950 . S
H1789 C1795 0.950 . S
H1790 C1796 0.949 1_556 S
C1791 H1786 0.950 1_554 S
C1791 C1793 1.327 . S
C1791 C1797 1.429 . S
C1792 C1784 1.574 . S
C1792 H1787 0.949 . S
C1792 C1798 1.368 . S
C1793 C1777 1.349 . S
C1793 H1785 0.950 1_554 S
C1793 C1791 1.327 . S
C1794 C1782 1.349 . S
C1794 H1788 0.950 . S
C1794 C1795 1.327 . S
C1795 H1789 0.950 . S
C1795 C1794 1.327 . S
C1795 C1799 1.429 . S
C1796 C1779 1.574 . S
C1796 H1790 0.949 1_554 S
C1796 C1800 1.368 . S
C1797 C1778 1.429 . S
C1797 C1791 1.429 . S
C1797 C1798 1.523 . S
C1798 C1779 1.379 . S
C1798 C1792 1.368 . S
C1798 C1797 1.523 . S
C1799 C1783 1.446 . S
C1799 C1795 1.429 . S
C1799 C1800 1.523 . S
C1800 C1784 1.368 . S
C1800 C1796 1.368 . S
C1800 C1799 1.523 . S
H1801 C1776 0.950 . S
H1802 C1778 0.950 . S
H1803 C1779 0.940 1_556 S
H1804 C1781 0.924 1_556 S
H1805 C1783 0.932 1_556 S
C1806 C1807 1.349 . S
C1806 C1808 1.327 . S
C1806 H1831 0.950 . S
C1807 C1806 1.349 . S
C1807 C1823 1.349 1_554 S
C1808 C1806 1.327 . S
C1808 C1827 1.429 . S
C1808 H1832 0.950 . S
C1809 C1826 1.574 . S
C1809 C1828 1.368 1_556 S
C1809 H1833 0.949 . S
H1810 C1814 0.949 . S
C1811 C1812 1.349 1_556 S
C1811 C1813 1.327 . S
C1811 H1834 0.950 . S
C1812 C1811 1.349 1_554 S
C1812 C1824 1.349 . S
C1813 C1811 1.327 . S
C1813 C1829 1.429 1_556 S
C1813 H1835 0.950 . S
C1814 H1810 0.949 . S
C1814 C1822 1.574 . S
C1814 C1830 1.368 . S
H1815 C1823 0.950 . S
H1816 C1821 0.950 . S
H1817 C1822 0.949 . S
H1818 C1824 0.950 . S
H1819 C1825 0.950 . S
H1820 C1826 0.949 . S
C1821 H1816 0.950 . S
C1821 C1823 1.327 . S
C1821 C1827 1.429 1_556 S
C1822 C1814 1.574 . S
C1822 H1817 0.949 . S
C1822 C1828 1.368 . S
C1823 C1807 1.349 1_556 S
C1823 H1815 0.950 . S
C1823 C1821 1.327 . S
C1824 C1812 1.349 . S
C1824 H1818 0.950 . S
C1824 C1825 1.327 . S
C1825 H1819 0.950 . S
C1825 C1824 1.327 . S
C1825 C1829 1.429 . S
C1826 C1809 1.574 . S
C1826 H1820 0.949 . S
C1826 C1830 1.368 1_556 S
C1827 C1808 1.429 . S
C1827 C1821 1.429 1_554 S
C1827 C1828 1.523 . S
C1828 C1809 1.368 1_554 S
C1828 C1822 1.368 . S
C1828 C1827 1.523 . S
C1829 C1813 1.429 1_554 S
C1829 C1825 1.429 . S
C1829 C1830 1.523 . S
C1830 C1814 1.368 . S
C1830 C1826 1.368 1_554 S
C1830 C1829 1.523 . S
H1831 C1806 0.950 . S
H1832 C1808 0.950 . S
H1833 C1809 0.949 . S
H1834 C1811 0.950 . S
H1835 C1813 0.950 . S
C1836 C1837 1.349 . S
C1836 C1838 1.328 1_554 S
C1836 H1861 0.950 1_554 S
C1837 C1836 1.349 . S
C1837 C1853 1.349 . S
C1838 C1836 1.328 1_556 S
C1838 C1857 1.433 1_556 S
C1838 H1862 0.945 . S
C1839 C1856 1.574 . S
C1839 C1858 1.368 . S
C1839 H1863 0.949 . S
H1840 C1844 0.949 . S
C1841 C1842 1.349 . S
C1841 C1843 1.327 . S
C1841 H1864 0.950 . S
C1842 C1841 1.349 . S
C1842 C1854 1.349 1_554 S
C1843 C1841 1.327 . S
C1843 C1859 1.429 . S
C1843 H1865 0.950 . S
C1844 H1840 0.949 . S
C1844 C1852 1.574 . S
C1844 C1860 1.368 1_556 S
H1845 C1853 0.950 . S
H1846 C1851 0.950 . S
H1847 C1852 0.949 . S
H1848 C1854 0.950 . S
H1849 C1855 0.950 . S
H1850 C1856 0.949 . S
C1851 H1846 0.950 . S
C1851 C1853 1.327 . S
C1851 C1857 1.429 . S
C1852 C1844 1.574 . S
C1852 H1847 0.949 . S
C1852 C1858 1.368 1_556 S
C1853 C1837 1.349 . S
C1853 H1845 0.950 . S
C1853 C1851 1.327 . S
C1854 C1842 1.349 1_556 S
C1854 H1848 0.950 . S
C1854 C1855 1.327 . S
C1855 H1849 0.950 . S
C1855 C1854 1.327 . S
C1855 C1859 1.429 1_556 S
C1856 C1839 1.574 . S
C1856 H1850 0.949 . S
C1856 C1860 1.368 . S
C1857 C1838 1.433 1_554 S
C1857 C1851 1.429 . S
C1857 C1858 1.523 . S
C1858 C1839 1.368 . S
C1858 C1852 1.368 1_554 S
C1858 C1857 1.523 . S
C1859 C1843 1.429 . S
C1859 C1855 1.429 1_554 S
C1859 C1860 1.523 . S
C1860 C1844 1.368 1_554 S
C1860 C1856 1.368 . S
C1860 C1859 1.523 . S
H1861 C1836 0.950 1_556 S
H1862 C1838 0.945 . S
H1863 C1839 0.949 . S
H1864 C1841 0.950 . S
H1865 C1843 0.950 . S
C1866 C1867 1.349 1_556 S
C1866 C1868 1.327 . S
C1866 H1891 0.950 . S
C1867 C1866 1.349 1_554 S
C1867 C1883 1.349 . S
C1868 C1866 1.327 . S
C1868 C1887 1.429 1_556 S
C1868 H1892 0.950 . S
C1869 C1886 1.574 . S
C1869 C1888 1.368 . S
C1869 H1893 0.949 . S
H1870 C1874 0.949 . S
C1871 C1872 1.349 . S
C1871 C1873 1.327 . S
C1871 H1894 0.950 . S
C1872 C1871 1.349 . S
C1872 C1884 1.349 1_554 S
C1873 C1871 1.327 . S
C1873 C1889 1.429 . S
C1873 H1895 0.950 . S
C1874 H1870 0.949 . S
C1874 C1882 1.574 . S
C1874 C1890 1.368 1_556 S
H1875 C1883 0.950 . S
H1876 C1881 0.950 . S
H1877 C1882 0.949 . S
H1878 C1884 0.950 . S
H1879 C1885 0.950 . S
H1880 C1886 0.949 . S
C1881 H1876 0.950 . S
C1881 C1883 1.327 . S
C1881 C1887 1.429 . S
C1882 C1874 1.574 . S
C1882 H1877 0.949 . S
C1882 C1888 1.368 1_556 S
C1883 C1867 1.349 . S
C1883 H1875 0.950 . S
C1883 C1881 1.327 . S
C1884 C1872 1.349 1_556 S
C1884 H1878 0.950 . S
C1884 C1885 1.327 . S
C1885 H1879 0.950 . S
C1885 C1884 1.327 . S
C1885 C1889 1.429 1_556 S
C1886 C1869 1.574 . S
C1886 H1880 0.949 . S
C1886 C1890 1.368 . S
C1887 C1868 1.429 1_554 S
C1887 C1881 1.429 . S
C1887 C1888 1.523 . S
C1888 C1869 1.368 . S
C1888 C1882 1.368 1_554 S
C1888 C1887 1.523 . S
C1889 C1873 1.429 . S
C1889 C1885 1.429 1_554 S
C1889 C1890 1.523 . S
C1890 C1874 1.368 1_554 S
C1890 C1886 1.368 . S
C1890 C1889 1.523 . S
H1891 C1866 0.950 . S
H1892 C1868 0.950 . S
H1893 C1869 0.949 . S
H1894 C1871 0.950 . S
H1895 C1873 0.950 . S
C1896 C1897 1.349 1_556 S
C1896 C1898 1.327 . S
C1896 H1921 0.950 . S
C1897 C1896 1.349 1_554 S
C1897 C1913 1.349 . S
C1898 C1896 1.327 . S
C1898 C1917 1.429 1_556 S
C1898 H1922 0.950 . S
C1899 C1916 1.574 . S
C1899 C1918 1.368 . S
C1899 H1923 0.949 . S
H1900 C1904 0.949 . S
C1901 C1902 1.349 . S
C1901 C1903 1.327 . S
C1901 H1924 0.950 . S
C1902 C1901 1.349 . S
C1902 C1914 1.349 1_554 S
C1903 C1901 1.327 . S
C1903 C1919 1.429 . S
C1903 H1925 0.950 . S
C1904 H1900 0.949 . S
C1904 C1912 1.574 . S
C1904 C1920 1.368 1_556 S
H1905 C1913 0.950 . S
H1906 C1911 0.950 . S
H1907 C1912 0.949 . S
H1908 C1914 0.950 . S
H1909 C1915 0.950 . S
H1910 C1916 0.949 . S
C1911 H1906 0.950 . S
C1911 C1913 1.327 . S
C1911 C1917 1.429 . S
C1912 C1904 1.574 . S
C1912 H1907 0.949 . S
C1912 C1918 1.368 1_556 S
C1913 C1897 1.349 . S
C1913 H1905 0.950 . S
C1913 C1911 1.327 . S
C1914 C1902 1.349 1_556 S
C1914 H1908 0.950 . S
C1914 C1915 1.327 . S
C1915 H1909 0.950 . S
C1915 C1914 1.327 . S
C1915 C1919 1.429 1_556 S
C1916 C1899 1.574 . S
C1916 H1910 0.949 . S
C1916 C1920 1.368 . S
C1917 C1898 1.429 1_554 S
C1917 C1911 1.429 . S
C1917 C1918 1.523 . S
C1918 C1899 1.368 . S
C1918 C1912 1.368 1_554 S
C1918 C1917 1.523 . S
C1919 C1903 1.429 . S
C1919 C1915 1.429 1_554 S
C1919 C1920 1.523 . S
C1920 C1904 1.368 1_554 S
C1920 C1916 1.368 . S
C1920 C1919 1.523 . S
H1921 C1896 0.950 . S
H1922 C1898 0.950 . S
H1923 C1899 0.949 . S
H1924 C1901 0.950 . S
H1925 C1903 0.950 . S
C1926 C1927 1.349 . S
C1926 C1928 1.327 . S
C1926 H1951 0.950 . S
C1927 C1926 1.349 . S
C1927 C1943 1.349 1_554 S
C1928 C1926 1.327 . S
C1928 C1947 1.429 . S
C1928 H1952 0.950 . S
C1929 C1946 1.574 . S
C1929 C1948 1.368 1_556 S
C1929 H1953 0.949 . S
H1930 C1934 0.949 . S
C1931 C1932 1.349 1_556 S
C1931 C1933 1.327 . S
C1931 H1954 0.950 . S
C1932 C1931 1.349 1_554 S
C1932 C1944 1.349 . S
C1933 C1931 1.327 . S
C1933 C1949 1.429 1_556 S
C1933 H1955 0.950 . S
C1934 H1930 0.949 . S
C1934 C1942 1.574 . S
C1934 C1950 1.368 . S
H1935 C1943 0.950 . S
H1936 C1941 0.950 . S
H1937 C1942 0.949 . S
H1938 C1944 0.950 . S
H1939 C1945 0.950 . S
H1940 C1946 0.949 . S
C1941 H1936 0.950 . S
C1941 C1943 1.327 . S
C1941 C1947 1.429 1_556 S
C1942 C1934 1.574 . S
C1942 H1937 0.949 . S
C1942 C1948 1.368 . S
C1943 C1927 1.349 1_556 S
C1943 H1935 0.950 . S
C1943 C1941 1.327 . S
C1944 C1932 1.349 . S
C1944 H1938 0.950 . S
C1944 C1945 1.327 . S
C1945 H1939 0.950 . S
C1945 C1944 1.327 . S
C1945 C1949 1.429 . S
C1946 C1929 1.574 . S
C1946 H1940 0.949 . S
C1946 C1950 1.368 1_556 S
C1947 C1928 1.429 . S
C1947 C1941 1.429 1_554 S
C1947 C1948 1.523 . S
C1948 C1929 1.368 1_554 S
C1948 C1942 1.368 . S
C1948 C1947 1.523 . S
C1949 C1933 1.429 1_554 S
C1949 C1945 1.429 . S
C1949 C1950 1.523 . S
C1950 C1934 1.368 . S
C1950 C1946 1.368 1_554 S
C1950 C1949 1.523 . S
H1951 C1926 0.950 . S
H1952 C1928 0.950 . S
H1953 C1929 0.949 . S
H1954 C1931 0.950 . S
H1955 C1933 0.950 . S
C1956 C1957 1.349 . S
C1956 C1958 1.327 . S
C1956 H1981 0.950 . S
C1957 C1956 1.349 . S
C1957 C1973 1.349 1_554 S
C1958 C1956 1.327 . S
C1958 C1977 1.429 . S
C1958 H1982 0.950 . S
C1959 C1976 1.574 . S
C1959 C1978 1.368 1_556 S
C1959 H1983 0.949 . S
H1960 C1964 0.949 . S
C1961 C1962 1.349 1_556 S
C1961 C1963 1.327 . S
C1961 H1984 0.950 . S
C1962 C1961 1.349 1_554 S
C1962 C1974 1.349 . S
C1963 C1961 1.327 . S
C1963 C1979 1.429 1_556 S
C1963 H1985 0.950 . S
C1964 H1960 0.949 . S
C1964 C1972 1.574 . S
C1964 C1980 1.368 . S
H1965 C1973 0.950 . S
H1966 C1971 0.950 . S
H1967 C1972 0.949 . S
H1968 C1974 0.950 . S
H1969 C1975 0.950 . S
H1970 C1976 0.949 . S
C1971 H1966 0.950 . S
C1971 C1973 1.327 . S
C1971 C1977 1.429 1_556 S
C1972 C1964 1.574 . S
C1972 H1967 0.949 . S
C1972 C1978 1.368 . S
C1973 C1957 1.349 1_556 S
C1973 H1965 0.950 . S
C1973 C1971 1.327 . S
C1974 C1962 1.349 . S
C1974 H1968 0.950 . S
C1974 C1975 1.327 . S
C1975 H1969 0.950 . S
C1975 C1974 1.327 . S
C1975 C1979 1.429 . S
C1976 C1959 1.574 . S
C1976 H1970 0.949 . S
C1976 C1980 1.368 1_556 S
C1977 C1958 1.429 . S
C1977 C1971 1.429 1_554 S
C1977 C1978 1.523 . S
C1978 C1959 1.368 1_554 S
C1978 C1972 1.368 . S
C1978 C1977 1.523 . S
C1979 C1963 1.429 1_554 S
C1979 C1975 1.429 . S
C1979 C1980 1.523 . S
C1980 C1964 1.368 . S
C1980 C1976 1.368 1_554 S
C1980 C1979 1.523 . S
H1981 C1956 0.950 . S
H1982 C1958 0.950 . S
H1983 C1959 0.949 . S
H1984 C1961 0.950 . S
H1985 C1963 0.950 . S
C1986 C1987 1.349 1_556 S
C1986 C1988 1.327 . S
C1986 H2011 0.950 . S
C1987 C1986 1.349 1_554 S
C1987 C2003 1.349 . S
C1988 C1986 1.327 . S
C1988 C2007 1.429 1_556 S
C1988 H2012 0.950 . S
C1989 C2006 1.574 . S
C1989 C2008 1.368 . S
C1989 H2013 0.949 . S
H1990 C1994 0.949 . S
C1991 C1992 1.349 . S
C1991 C1993 1.327 . S
C1991 H2014 0.950 . S
C1992 C1991 1.349 . S
C1992 C2004 1.349 1_554 S
C1993 C1991 1.327 . S
C1993 C2009 1.429 . S
C1993 H2015 0.950 . S
C1994 H1990 0.949 . S
C1994 C2002 1.574 . S
C1994 C2010 1.368 1_556 S
H1995 C2003 0.950 . S
H1996 C2001 0.950 . S
H1997 C2002 0.949 . S
H1998 C2004 0.950 . S
H1999 C2005 0.950 . S
H2000 C2006 0.949 . S
C2001 H1996 0.950 . S
C2001 C2003 1.327 . S
C2001 C2007 1.429 . S
C2002 C1994 1.574 . S
C2002 H1997 0.949 . S
C2002 C2008 1.368 1_556 S
C2003 C1987 1.349 . S
C2003 H1995 0.950 . S
C2003 C2001 1.327 . S
C2004 C1992 1.349 1_556 S
C2004 H1998 0.950 . S
C2004 C2005 1.327 . S
C2005 H1999 0.950 . S
C2005 C2004 1.327 . S
C2005 C2009 1.429 1_556 S
C2006 C1989 1.574 . S
C2006 H2000 0.949 . S
C2006 C2010 1.368 . S
C2007 C1988 1.429 1_554 S
C2007 C2001 1.429 . S
C2007 C2008 1.523 . S
C2008 C1989 1.368 . S
C2008 C2002 1.368 1_554 S
C2008 C2007 1.523 . S
C2009 C1993 1.429 . S
C2009 C2005 1.429 1_554 S
C2009 C2010 1.523 . S
C2010 C1994 1.368 1_554 S
C2010 C2006 1.368 . S
C2010 C2009 1.523 . S
H2011 C1986 0.950 . S
H2012 C1988 0.950 . S
H2013 C1989 0.949 . S
H2014 C1991 0.950 . S
H2015 C1993 0.950 . S
C2016 C2017 1.349 . S
C2016 C2018 1.327 . S
C2016 H2041 0.950 . S
C2017 C2016 1.349 . S
C2017 C2033 1.349 . S
C2018 C2016 1.327 . S
C2018 C2037 1.429 . S
C2018 H2042 0.950 . S
C2019 C2036 1.574 . S
C2019 C2038 1.368 . S
C2019 H2043 0.949 . S
H2020 C2024 0.949 . S
C2021 C2022 1.349 . S
C2021 C2023 1.327 . S
C2021 H2044 0.950 . S
C2022 C2021 1.349 . S
C2022 C2034 1.349 . S
C2023 C2021 1.327 . S
C2023 C2039 1.429 . S
C2023 H2045 0.950 . S
C2024 H2020 0.949 . S
C2024 C2032 1.574 . S
C2024 C2040 1.368 . S
H2025 C2033 0.950 . S
H2026 C2031 0.950 . S
H2027 C2032 0.949 . S
H2028 C2034 0.950 . S
H2029 C2035 0.950 . S
H2030 C2036 0.949 . S
C2031 H2026 0.950 . S
C2031 C2033 1.327 . S
C2031 C2037 1.429 . S
C2032 C2024 1.574 . S
C2032 H2027 0.949 . S
C2032 C2038 1.368 . S
C2033 C2017 1.349 . S
C2033 H2025 0.950 . S
C2033 C2031 1.327 . S
C2034 C2022 1.349 . S
C2034 H2028 0.950 . S
C2034 C2035 1.327 . S
C2035 H2029 0.950 . S
C2035 C2034 1.327 . S
C2035 C2039 1.429 . S
C2036 C2019 1.574 . S
C2036 H2030 0.949 . S
C2036 C2040 1.368 . S
C2037 C2018 1.429 . S
C2037 C2031 1.429 . S
C2037 C2038 1.523 . S
C2038 C2019 1.368 . S
C2038 C2032 1.368 . S
C2038 C2037 1.523 . S
C2039 C2023 1.429 . S
C2039 C2035 1.429 . S
C2039 C2040 1.523 . S
C2040 C2024 1.368 . S
C2040 C2036 1.368 . S
C2040 C2039 1.523 . S
H2041 C2016 0.950 . S
H2042 C2018 0.950 . S
H2043 C2019 0.949 . S
H2044 C2021 0.950 . S
H2045 C2023 0.950 . S
C2046 C2047 1.349 . S
C2046 C2048 1.327 . S
C2046 H2071 0.950 . S
C2047 C2046 1.349 . S
C2047 C2063 1.349 . S
C2048 C2046 1.327 . S
C2048 C2067 1.429 . S
C2048 H2072 0.950 . S
C2049 C2066 1.574 . S
C2049 C2068 1.368 . S
C2049 H2073 0.949 . S
H2050 C2054 0.949 . S
C2051 C2052 1.349 . S
C2051 C2053 1.327 . S
C2051 H2074 0.950 . S
C2052 C2051 1.349 . S
C2052 C2064 1.349 . S
C2053 C2051 1.327 . S
C2053 C2069 1.429 . S
C2053 H2075 0.950 . S
C2054 H2050 0.949 . S
C2054 C2062 1.574 . S
C2054 C2070 1.368 . S
H2055 C2063 0.950 . S
H2056 C2061 0.950 . S
H2057 C2062 0.949 . S
H2058 C2064 0.950 . S
H2059 C2065 0.950 . S
H2060 C2066 0.949 . S
C2061 H2056 0.950 . S
C2061 C2063 1.327 . S
C2061 C2067 1.429 . S
C2062 C2054 1.574 . S
C2062 H2057 0.949 . S
C2062 C2068 1.368 . S
C2063 C2047 1.349 . S
C2063 H2055 0.950 . S
C2063 C2061 1.327 . S
C2064 C2052 1.349 . S
C2064 H2058 0.950 . S
C2064 C2065 1.327 . S
C2065 H2059 0.950 . S
C2065 C2064 1.327 . S
C2065 C2069 1.429 . S
C2066 C2049 1.574 . S
C2066 H2060 0.949 . S
C2066 C2070 1.368 . S
C2067 C2048 1.429 . S
C2067 C2061 1.429 . S
C2067 C2068 1.523 . S
C2068 C2049 1.368 . S
C2068 C2062 1.368 . S
C2068 C2067 1.523 . S
C2069 C2053 1.429 . S
C2069 C2065 1.429 . S
C2069 C2070 1.523 . S
C2070 C2054 1.368 . S
C2070 C2066 1.368 . S
C2070 C2069 1.523 . S
H2071 C2046 0.950 . S
H2072 C2048 0.950 . S
H2073 C2049 0.949 . S
H2074 C2051 0.950 . S
H2075 C2053 0.950 . S
C2076 C2077 1.349 . S
C2076 C2078 1.327 . S
C2076 H2101 0.950 . S
C2077 C2076 1.349 . S
C2077 C2093 1.349 . S
C2078 C2076 1.327 . S
C2078 C2097 1.429 . S
C2078 H2102 0.950 . S
C2079 C2096 1.574 . S
C2079 C2098 1.368 . S
C2079 H2103 0.949 . S
H2080 C2084 0.949 . S
C2081 C2082 1.349 . S
C2081 C2083 1.327 . S
C2081 H2104 0.950 . S
C2082 C2081 1.349 . S
C2082 C2094 1.349 . S
C2083 C2081 1.327 . S
C2083 C2099 1.429 . S
C2083 H2105 0.950 . S
C2084 H2080 0.949 . S
C2084 C2092 1.574 . S
C2084 C2100 1.368 . S
H2085 C2093 0.950 . S
H2086 C2091 0.950 . S
H2087 C2092 0.949 . S
H2088 C2094 0.950 . S
H2089 C2095 0.950 . S
H2090 C2096 0.949 . S
C2091 H2086 0.950 . S
C2091 C2093 1.327 . S
C2091 C2097 1.429 . S
C2092 C2084 1.574 . S
C2092 H2087 0.949 . S
C2092 C2098 1.368 . S
C2093 C2077 1.349 . S
C2093 H2085 0.950 . S
C2093 C2091 1.327 . S
C2094 C2082 1.349 . S
C2094 H2088 0.950 . S
C2094 C2095 1.327 . S
C2095 H2089 0.950 . S
C2095 C2094 1.327 . S
C2095 C2099 1.429 . S
C2096 C2079 1.574 . S
C2096 H2090 0.949 . S
C2096 C2100 1.368 . S
C2097 C2078 1.429 . S
C2097 C2091 1.429 . S
C2097 C2098 1.523 . S
C2098 C2079 1.368 . S
C2098 C2092 1.368 . S
C2098 C2097 1.523 . S
C2099 C2083 1.429 . S
C2099 C2095 1.429 . S
C2099 C2100 1.523 . S
C2100 C2084 1.368 . S
C2100 C2096 1.368 . S
C2100 C2099 1.523 . S
H2101 C2076 0.950 . S
H2102 C2078 0.950 . S
H2103 C2079 0.949 . S
H2104 C2081 0.950 . S
H2105 C2083 0.950 . S
C2106 C2107 1.349 . S
C2106 C2108 1.327 . S
C2106 H2131 0.950 . S
C2107 C2106 1.349 . S
C2107 C2123 1.349 . S
C2108 C2106 1.327 . S
C2108 C2127 1.429 . S
C2108 H2132 0.950 . S
C2109 C2126 1.574 . S
C2109 C2128 1.368 . S
C2109 H2133 0.949 . S
H2110 C2114 0.949 . S
C2111 C2112 1.349 . S
C2111 C2113 1.327 . S
C2111 H2134 0.950 . S
C2112 C2111 1.349 . S
C2112 C2124 1.349 . S
C2113 C2111 1.327 . S
C2113 C2129 1.429 . S
C2113 H2135 0.950 . S
C2114 H2110 0.949 . S
C2114 C2122 1.574 . S
C2114 C2130 1.368 . S
H2115 C2123 0.950 . S
H2116 C2121 0.950 . S
H2117 C2122 0.949 . S
H2118 C2124 0.950 . S
H2119 C2125 0.950 . S
H2120 C2126 0.949 . S
C2121 H2116 0.950 . S
C2121 C2123 1.327 . S
C2121 C2127 1.429 . S
C2122 C2114 1.574 . S
C2122 H2117 0.949 . S
C2122 C2128 1.368 . S
C2123 C2107 1.349 . S
C2123 H2115 0.950 . S
C2123 C2121 1.327 . S
C2124 C2112 1.349 . S
C2124 H2118 0.950 . S
C2124 C2125 1.327 . S
C2125 H2119 0.950 . S
C2125 C2124 1.327 . S
C2125 C2129 1.429 . S
C2126 C2109 1.574 . S
C2126 H2120 0.949 . S
C2126 C2130 1.368 . S
C2127 C2108 1.429 . S
C2127 C2121 1.429 . S
C2127 C2128 1.523 . S
C2128 C2109 1.368 . S
C2128 C2122 1.368 . S
C2128 C2127 1.523 . S
C2129 C2113 1.429 . S
C2129 C2125 1.429 . S
C2129 C2130 1.523 . S
C2130 C2114 1.368 . S
C2130 C2126 1.368 . S
C2130 C2129 1.523 . S
H2131 C2106 0.950 . S
H2132 C2108 0.950 . S
H2133 C2109 0.949 . S
H2134 C2111 0.950 . S
H2135 C2113 0.950 . S
C2136 C2137 1.349 . S
C2136 C2138 1.327 . S
C2136 H2161 0.950 . S
C2137 C2136 1.349 . S
C2137 C2153 1.349 . S
C2138 C2136 1.327 . S
C2138 C2157 1.429 . S
C2138 H2162 0.950 . S
C2139 C2156 1.574 . S
C2139 C2158 1.368 . S
C2139 H2163 0.949 . S
H2140 C2144 0.949 . S
C2141 C2142 1.349 . S
C2141 C2143 1.327 . S
C2141 H2164 0.950 . S
C2142 C2141 1.349 . S
C2142 C2154 1.349 . S
C2143 C2141 1.327 . S
C2143 C2159 1.429 . S
C2143 H2165 0.950 . S
C2144 H2140 0.949 . S
C2144 C2152 1.574 . S
C2144 C2160 1.368 . S
H2145 C2153 0.950 . S
H2146 C2151 0.950 . S
H2147 C2152 0.949 . S
H2148 C2154 0.950 . S
H2149 C2155 0.950 . S
H2150 C2156 0.949 . S
C2151 H2146 0.950 . S
C2151 C2153 1.327 . S
C2151 C2157 1.429 . S
C2152 C2144 1.574 . S
C2152 H2147 0.949 . S
C2152 C2158 1.368 . S
C2153 C2137 1.349 . S
C2153 H2145 0.950 . S
C2153 C2151 1.327 . S
C2154 C2142 1.349 . S
C2154 H2148 0.950 . S
C2154 C2155 1.327 . S
C2155 H2149 0.950 . S
C2155 C2154 1.327 . S
C2155 C2159 1.429 . S
C2156 C2139 1.574 . S
C2156 H2150 0.949 . S
C2156 C2160 1.368 . S
C2157 C2138 1.429 . S
C2157 C2151 1.429 . S
C2157 C2158 1.523 . S
C2158 C2139 1.368 . S
C2158 C2152 1.368 . S
C2158 C2157 1.523 . S
C2159 C2143 1.429 . S
C2159 C2155 1.429 . S
C2159 C2160 1.523 . S
C2160 C2144 1.368 . S
C2160 C2156 1.368 . S
C2160 C2159 1.523 . S
H2161 C2136 0.950 . S
H2162 C2138 0.950 . S
H2163 C2139 0.949 . S
H2164 C2141 0.950 . S
H2165 C2143 0.950 . S
C2166 C2167 1.349 . S
C2166 C2168 1.327 . S
C2166 H2191 0.950 . S
C2167 C2166 1.349 . S
C2167 C2183 1.349 . S
C2168 C2166 1.327 . S
C2168 C2187 1.429 . S
C2168 H2192 0.950 . S
C2169 C2186 1.574 . S
C2169 C2188 1.368 . S
C2169 H2193 0.949 . S
H2170 C2174 0.949 . S
C2171 C2172 1.349 . S
C2171 C2173 1.327 . S
C2171 H2194 0.950 . S
C2172 C2171 1.349 . S
C2172 C2184 1.349 . S
C2173 C2171 1.327 . S
C2173 C2189 1.429 . S
C2173 H2195 0.950 . S
C2174 H2170 0.949 . S
C2174 C2182 1.574 . S
C2174 C2190 1.368 . S
H2175 C2183 0.950 . S
H2176 C2181 0.950 . S
H2177 C2182 0.949 . S
H2178 C2184 0.950 . S
H2179 C2185 0.950 . S
H2180 C2186 0.949 . S
C2181 H2176 0.950 . S
C2181 C2183 1.327 . S
C2181 C2187 1.429 . S
C2182 C2174 1.574 . S
C2182 H2177 0.949 . S
C2182 C2188 1.368 . S
C2183 C2167 1.349 . S
C2183 H2175 0.950 . S
C2183 C2181 1.327 . S
C2184 C2172 1.349 . S
C2184 H2178 0.950 . S
C2184 C2185 1.327 . S
C2185 H2179 0.950 . S
C2185 C2184 1.327 . S
C2185 C2189 1.429 . S
C2186 C2169 1.574 . S
C2186 H2180 0.949 . S
C2186 C2190 1.368 . S
C2187 C2168 1.429 . S
C2187 C2181 1.429 . S
C2187 C2188 1.523 . S
C2188 C2169 1.368 . S
C2188 C2182 1.368 . S
C2188 C2187 1.523 . S
C2189 C2173 1.429 . S
C2189 C2185 1.429 . S
C2189 C2190 1.523 . S
C2190 C2174 1.368 . S
C2190 C2186 1.368 . S
C2190 C2189 1.523 . S
H2191 C2166 0.950 . S
H2192 C2168 0.950 . S
H2193 C2169 0.949 . S
H2194 C2171 0.950 . S
H2195 C2173 0.950 . S
C2196 C2197 1.349 . S
C2196 C2198 1.327 . S
C2196 H2221 0.950 . S
C2197 C2196 1.349 . S
C2197 C2213 1.349 . S
C2198 C2196 1.327 . S
C2198 C2217 1.429 . S
C2198 H2222 0.950 . S
C2199 C2216 1.574 . S
C2199 C2218 1.368 . S
C2199 H2223 0.949 . S
H2200 C2204 0.949 . S
C2201 C2202 1.349 . S
C2201 C2203 1.327 . S
C2201 H2224 0.950 . S
C2202 C2201 1.349 . S
C2202 C2214 1.349 . S
C2203 C2201 1.327 . S
C2203 C2219 1.429 . S
C2203 H2225 0.950 . S
C2204 H2200 0.949 . S
C2204 C2212 1.574 . S
C2204 C2220 1.368 . S
H2205 C2213 0.950 . S
H2206 C2211 0.950 . S
H2207 C2212 0.949 . S
H2208 C2214 0.950 . S
H2209 C2215 0.950 . S
H2210 C2216 0.949 . S
C2211 H2206 0.950 . S
C2211 C2213 1.327 . S
C2211 C2217 1.429 . S
C2212 C2204 1.574 . S
C2212 H2207 0.949 . S
C2212 C2218 1.368 . S
C2213 C2197 1.349 . S
C2213 H2205 0.950 . S
C2213 C2211 1.327 . S
C2214 C2202 1.349 . S
C2214 H2208 0.950 . S
C2214 C2215 1.327 . S
C2215 H2209 0.950 . S
C2215 C2214 1.327 . S
C2215 C2219 1.429 . S
C2216 C2199 1.574 . S
C2216 H2210 0.949 . S
C2216 C2220 1.368 . S
C2217 C2198 1.429 . S
C2217 C2211 1.429 . S
C2217 C2218 1.523 . S
C2218 C2199 1.368 . S
C2218 C2212 1.368 . S
C2218 C2217 1.523 . S
C2219 C2203 1.429 . S
C2219 C2215 1.429 . S
C2219 C2220 1.523 . S
C2220 C2204 1.368 . S
C2220 C2216 1.368 . S
C2220 C2219 1.523 . S
H2221 C2196 0.950 . S
H2222 C2198 0.950 . S
H2223 C2199 0.949 . S
H2224 C2201 0.950 . S
H2225 C2203 0.950 . S
C2226 C2227 1.349 . S
C2226 C2228 1.327 . S
C2226 H2251 0.950 . S
C2227 C2226 1.349 . S
C2227 C2243 1.349 . S
C2228 C2226 1.327 . S
C2228 C2247 1.429 . S
C2228 H2252 0.950 . S
C2229 C2246 1.574 . S
C2229 C2248 1.368 . S
C2229 H2253 0.949 . S
H2230 C2234 0.949 . S
C2231 C2232 1.349 . S
C2231 C2233 1.327 . S
C2231 H2254 0.950 . S
C2232 C2231 1.349 . S
C2232 C2244 1.349 . S
C2233 C2231 1.327 . S
C2233 C2249 1.429 . S
C2233 H2255 0.950 . S
C2234 H2230 0.949 . S
C2234 C2242 1.574 . S
C2234 C2250 1.368 . S
H2235 C2243 0.950 . S
H2236 C2241 0.950 . S
H2237 C2242 0.949 . S
H2238 C2244 0.950 . S
H2239 C2245 0.950 . S
H2240 C2246 0.949 . S
C2241 H2236 0.950 . S
C2241 C2243 1.327 . S
C2241 C2247 1.429 . S
C2242 C2234 1.574 . S
C2242 H2237 0.949 . S
C2242 C2248 1.368 . S
C2243 C2227 1.349 . S
C2243 H2235 0.950 . S
C2243 C2241 1.327 . S
C2244 C2232 1.349 . S
C2244 H2238 0.950 . S
C2244 C2245 1.327 . S
C2245 H2239 0.950 . S
C2245 C2244 1.327 . S
C2245 C2249 1.429 . S
C2246 C2229 1.574 . S
C2246 H2240 0.949 . S
C2246 C2250 1.368 . S
C2247 C2228 1.429 . S
C2247 C2241 1.429 . S
C2247 C2248 1.523 . S
C2248 C2229 1.368 . S
C2248 C2242 1.368 . S
C2248 C2247 1.523 . S
C2249 C2233 1.429 . S
C2249 C2245 1.429 . S
C2249 C2250 1.523 . S
C2250 C2234 1.368 . S
C2250 C2246 1.368 . S
C2250 C2249 1.523 . S
H2251 C2226 0.950 . S
H2252 C2228 0.950 . S
H2253 C2229 0.949 . S
H2254 C2231 0.950 . S
H2255 C2233 0.950 . S
C2256 C2257 1.349 . S
C2256 C2258 1.327 . S
C2256 H2281 0.950 . S
C2257 C2256 1.349 . S
C2257 C2273 1.349 . S
C2258 C2256 1.327 . S
C2258 C2277 1.429 . S
C2258 H2282 0.950 . S
C2259 C2276 1.574 . S
C2259 C2278 1.368 . S
C2259 H2283 0.949 . S
H2260 C2264 0.949 . S
C2261 C2262 1.349 . S
C2261 C2263 1.327 . S
C2261 H2284 0.950 . S
C2262 C2261 1.349 . S
C2262 C2274 1.349 . S
C2263 C2261 1.327 . S
C2263 C2279 1.429 . S
C2263 H2285 0.950 . S
C2264 H2260 0.949 . S
C2264 C2272 1.574 . S
C2264 C2280 1.368 . S
H2265 C2273 0.950 . S
H2266 C2271 0.950 . S
H2267 C2272 0.949 . S
H2268 C2274 0.950 . S
H2269 C2275 0.950 . S
H2270 C2276 0.949 . S
C2271 H2266 0.950 . S
C2271 C2273 1.327 . S
C2271 C2277 1.429 . S
C2272 C2264 1.574 . S
C2272 H2267 0.949 . S
C2272 C2278 1.368 . S
C2273 C2257 1.349 . S
C2273 H2265 0.950 . S
C2273 C2271 1.327 . S
C2274 C2262 1.349 . S
C2274 H2268 0.950 . S
C2274 C2275 1.327 . S
C2275 H2269 0.950 . S
C2275 C2274 1.327 . S
C2275 C2279 1.429 . S
C2276 C2259 1.574 . S
C2276 H2270 0.949 . S
C2276 C2280 1.368 . S
C2277 C2258 1.429 . S
C2277 C2271 1.429 . S
C2277 C2278 1.523 . S
C2278 C2259 1.368 . S
C2278 C2272 1.368 . S
C2278 C2277 1.523 . S
C2279 C2263 1.429 . S
C2279 C2275 1.429 . S
C2279 C2280 1.523 . S
C2280 C2264 1.368 . S
C2280 C2276 1.368 . S
C2280 C2279 1.523 . S
H2281 C2256 0.950 . S
H2282 C2258 0.950 . S
H2283 C2259 0.949 . S
H2284 C2261 0.950 . S
H2285 C2263 0.950 . S
C2286 C2287 1.349 . S
C2286 C2288 1.327 . S
C2286 H2311 0.950 . S
C2287 C2286 1.349 . S
C2287 C2303 1.349 . S
C2288 C2286 1.327 . S
C2288 C2307 1.429 . S
C2288 H2312 0.950 . S
C2289 C2306 1.574 . S
C2289 C2308 1.368 . S
C2289 H2313 0.949 . S
H2290 C2294 0.949 . S
C2291 C2292 1.349 . S
C2291 C2293 1.327 . S
C2291 H2314 0.950 . S
C2292 C2291 1.349 . S
C2292 C2304 1.349 . S
C2293 C2291 1.327 . S
C2293 C2309 1.429 . S
C2293 H2315 0.950 . S
C2294 H2290 0.949 . S
C2294 C2302 1.574 . S
C2294 C2310 1.368 . S
H2295 C2303 0.950 . S
H2296 C2301 0.950 . S
H2297 C2302 0.949 . S
H2298 C2304 0.950 . S
H2299 C2305 0.950 . S
H2300 C2306 0.949 . S
C2301 H2296 0.950 . S
C2301 C2303 1.327 . S
C2301 C2307 1.429 . S
C2302 C2294 1.574 . S
C2302 H2297 0.949 . S
C2302 C2308 1.368 . S
C2303 C2287 1.349 . S
C2303 H2295 0.950 . S
C2303 C2301 1.327 . S
C2304 C2292 1.349 . S
C2304 H2298 0.950 . S
C2304 C2305 1.327 . S
C2305 H2299 0.950 . S
C2305 C2304 1.327 . S
C2305 C2309 1.429 . S
C2306 C2289 1.574 . S
C2306 H2300 0.949 . S
C2306 C2310 1.368 . S
C2307 C2288 1.429 . S
C2307 C2301 1.429 . S
C2307 C2308 1.523 . S
C2308 C2289 1.368 . S
C2308 C2302 1.368 . S
C2308 C2307 1.523 . S
C2309 C2293 1.429 . S
C2309 C2305 1.429 . S
C2309 C2310 1.523 . S
C2310 C2294 1.368 . S
C2310 C2306 1.368 . S
C2310 C2309 1.523 . S
H2311 C2286 0.950 . S
H2312 C2288 0.950 . S
H2313 C2289 0.949 . S
H2314 C2291 0.950 . S
H2315 C2293 0.950 . S
C2316 C2317 1.349 . S
C2316 C2318 1.327 . S
C2316 H2341 0.950 . S
C2317 C2316 1.349 . S
C2317 C2333 1.349 . S
C2318 C2316 1.327 . S
C2318 C2337 1.429 . S
C2318 H2342 0.950 . S
C2319 C2336 1.574 . S
C2319 C2338 1.368 . S
C2319 H2343 0.949 . S
H2320 C2324 0.949 . S
C2321 C2322 1.349 . S
C2321 C2323 1.327 . S
C2321 H2344 0.950 . S
C2322 C2321 1.349 . S
C2322 C2334 1.349 . S
C2323 C2321 1.327 . S
C2323 C2339 1.429 . S
C2323 H2345 0.950 . S
C2324 H2320 0.949 . S
C2324 C2332 1.574 . S
C2324 C2340 1.368 . S
H2325 C2333 0.950 . S
H2326 C2331 0.950 . S
H2327 C2332 0.949 . S
H2328 C2334 0.950 . S
H2329 C2335 0.950 . S
H2330 C2336 0.949 . S
C2331 H2326 0.950 . S
C2331 C2333 1.327 . S
C2331 C2337 1.429 . S
C2332 C2324 1.574 . S
C2332 H2327 0.949 . S
C2332 C2338 1.368 . S
C2333 C2317 1.349 . S
C2333 H2325 0.950 . S
C2333 C2331 1.327 . S
C2334 C2322 1.349 . S
C2334 H2328 0.950 . S
C2334 C2335 1.327 . S
C2335 H2329 0.950 . S
C2335 C2334 1.327 . S
C2335 C2339 1.429 . S
C2336 C2319 1.574 . S
C2336 H2330 0.949 . S
C2336 C2340 1.368 . S
C2337 C2318 1.429 . S
C2337 C2331 1.429 . S
C2337 C2338 1.523 . S
C2338 C2319 1.368 . S
C2338 C2332 1.368 . S
C2338 C2337 1.523 . S
C2339 C2323 1.429 . S
C2339 C2335 1.429 . S
C2339 C2340 1.523 . S
C2340 C2324 1.368 . S
C2340 C2336 1.368 . S
C2340 C2339 1.523 . S
H2341 C2316 0.950 . S
H2342 C2318 0.950 . S
H2343 C2319 0.949 . S
H2344 C2321 0.950 . S
H2345 C2323 0.950 . S
C2346 C2347 1.349 . S
C2346 C2348 1.327 . S
C2346 H2371 0.950 . S
C2347 C2346 1.349 . S
C2347 C2363 1.349 . S
C2348 C2346 1.327 . S
C2348 C2367 1.429 . S
C2348 H2372 0.950 . S
C2349 C2366 1.574 . S
C2349 C2368 1.368 . S
C2349 H2373 0.949 . S
H2350 C2354 0.949 . S
C2351 C2352 1.349 . S
C2351 C2353 1.327 . S
C2351 H2374 0.950 . S
C2352 C2351 1.349 . S
C2352 C2364 1.349 . S
C2353 C2351 1.327 . S
C2353 C2369 1.429 . S
C2353 H2375 0.950 . S
C2354 H2350 0.949 . S
C2354 C2362 1.574 . S
C2354 C2370 1.368 . S
H2355 C2363 0.950 . S
H2356 C2361 0.950 . S
H2357 C2362 0.949 . S
H2358 C2364 0.950 . S
H2359 C2365 0.950 . S
H2360 C2366 0.949 . S
C2361 H2356 0.950 . S
C2361 C2363 1.327 . S
C2361 C2367 1.429 . S
C2362 C2354 1.574 . S
C2362 H2357 0.949 . S
C2362 C2368 1.368 . S
C2363 C2347 1.349 . S
C2363 H2355 0.950 . S
C2363 C2361 1.327 . S
C2364 C2352 1.349 . S
C2364 H2358 0.950 . S
C2364 C2365 1.327 . S
C2365 H2359 0.950 . S
C2365 C2364 1.327 . S
C2365 C2369 1.429 . S
C2366 C2349 1.574 . S
C2366 H2360 0.949 . S
C2366 C2370 1.368 . S
C2367 C2348 1.429 . S
C2367 C2361 1.429 . S
C2367 C2368 1.523 . S
C2368 C2349 1.368 . S
C2368 C2362 1.368 . S
C2368 C2367 1.523 . S
C2369 C2353 1.429 . S
C2369 C2365 1.429 . S
C2369 C2370 1.523 . S
C2370 C2354 1.368 . S
C2370 C2366 1.368 . S
C2370 C2369 1.523 . S
H2371 C2346 0.950 . S
H2372 C2348 0.950 . S
H2373 C2349 0.949 . S
H2374 C2351 0.950 . S
H2375 C2353 0.950 . S
C2376 C2377 1.349 . S
C2376 C2378 1.327 . S
C2376 H2401 0.950 . S
C2377 C2376 1.349 . S
C2377 C2393 1.349 . S
C2378 C2376 1.327 . S
C2378 C2397 1.429 . S
C2378 H2402 0.950 . S
C2379 C2396 1.574 . S
C2379 C2398 1.368 . S
C2379 H2403 0.949 . S
H2380 C2384 0.949 . S
C2381 C2382 1.349 . S
C2381 C2383 1.327 . S
C2381 H2404 0.950 . S
C2382 C2381 1.349 . S
C2382 C2394 1.349 . S
C2383 C2381 1.327 . S
C2383 C2399 1.429 . S
C2383 H2405 0.950 . S
C2384 H2380 0.949 . S
C2384 C2392 1.574 . S
C2384 C2400 1.368 . S
H2385 C2393 0.950 . S
H2386 C2391 0.950 . S
H2387 C2392 0.949 . S
H2388 C2394 0.950 . S
H2389 C2395 0.950 . S
H2390 C2396 0.949 . S
C2391 H2386 0.950 . S
C2391 C2393 1.327 . S
C2391 C2397 1.429 . S
C2392 C2384 1.574 . S
C2392 H2387 0.949 . S
C2392 C2398 1.368 . S
C2393 C2377 1.349 . S
C2393 H2385 0.950 . S
C2393 C2391 1.327 . S
C2394 C2382 1.349 . S
C2394 H2388 0.950 . S
C2394 C2395 1.327 . S
C2395 H2389 0.950 . S
C2395 C2394 1.327 . S
C2395 C2399 1.429 . S
C2396 C2379 1.574 . S
C2396 H2390 0.949 . S
C2396 C2400 1.368 . S
C2397 C2378 1.429 . S
C2397 C2391 1.429 . S
C2397 C2398 1.523 . S
C2398 C2379 1.368 . S
C2398 C2392 1.368 . S
C2398 C2397 1.523 . S
C2399 C2383 1.429 . S
C2399 C2395 1.429 . S
C2399 C2400 1.523 . S
C2400 C2384 1.368 . S
C2400 C2396 1.368 . S
C2400 C2399 1.523 . S
H2401 C2376 0.950 . S
H2402 C2378 0.950 . S
H2403 C2379 0.949 . S
H2404 C2381 0.950 . S
H2405 C2383 0.950 . S
C2406 C2407 1.349 . S
C2406 C2408 1.327 . S
C2406 H2431 0.950 . S
C2407 C2406 1.349 . S
C2407 C2423 1.349 . S
C2408 C2406 1.327 . S
C2408 C2427 1.429 . S
C2408 H2432 0.950 . S
C2409 C2426 1.574 . S
C2409 C2428 1.368 . S
C2409 H2433 0.949 . S
H2410 C2414 0.949 . S
C2411 C2412 1.349 . S
C2411 C2413 1.327 . S
C2411 H2434 0.950 . S
C2412 C2411 1.349 . S
C2412 C2424 1.349 . S
C2413 C2411 1.327 . S
C2413 C2429 1.429 . S
C2413 H2435 0.950 . S
C2414 H2410 0.949 . S
C2414 C2422 1.574 . S
C2414 C2430 1.368 . S
H2415 C2423 0.950 . S
H2416 C2421 0.950 . S
H2417 C2422 0.949 . S
H2418 C2424 0.950 . S
H2419 C2425 0.950 . S
H2420 C2426 0.949 . S
C2421 H2416 0.950 . S
C2421 C2423 1.327 . S
C2421 C2427 1.429 . S
C2422 C2414 1.574 . S
C2422 H2417 0.949 . S
C2422 C2428 1.368 . S
C2423 C2407 1.349 . S
C2423 H2415 0.950 . S
C2423 C2421 1.327 . S
C2424 C2412 1.349 . S
C2424 H2418 0.950 . S
C2424 C2425 1.327 . S
C2425 H2419 0.950 . S
C2425 C2424 1.327 . S
C2425 C2429 1.429 . S
C2426 C2409 1.574 . S
C2426 H2420 0.949 . S
C2426 C2430 1.368 . S
C2427 C2408 1.429 . S
C2427 C2421 1.429 . S
C2427 C2428 1.523 . S
C2428 C2409 1.368 . S
C2428 C2422 1.368 . S
C2428 C2427 1.523 . S
C2429 C2413 1.429 . S
C2429 C2425 1.429 . S
C2429 C2430 1.523 . S
C2430 C2414 1.368 . S
C2430 C2426 1.368 . S
C2430 C2429 1.523 . S
H2431 C2406 0.950 . S
H2432 C2408 0.950 . S
H2433 C2409 0.949 . S
H2434 C2411 0.950 . S
H2435 C2413 0.950 . S
C2436 C2437 1.349 . S
C2436 C2438 1.327 . S
C2436 H2461 0.950 . S
C2437 C2436 1.349 . S
C2437 C2453 1.349 . S
C2438 C2436 1.327 . S
C2438 C2457 1.429 . S
C2438 H2462 0.950 . S
C2439 C2456 1.574 . S
C2439 C2458 1.368 . S
C2439 H2463 0.949 . S
H2440 C2444 0.949 . S
C2441 C2442 1.349 . S
C2441 C2443 1.327 . S
C2441 H2464 0.950 . S
C2442 C2441 1.349 . S
C2442 C2454 1.349 . S
C2443 C2441 1.327 . S
C2443 C2459 1.429 . S
C2443 H2465 0.950 . S
C2444 H2440 0.949 . S
C2444 C2452 1.574 . S
C2444 C2460 1.368 . S
H2445 C2453 0.950 . S
H2446 C2451 0.950 . S
H2447 C2452 0.949 . S
H2448 C2454 0.950 . S
H2449 C2455 0.950 . S
H2450 C2456 0.949 . S
C2451 H2446 0.950 . S
C2451 C2453 1.327 . S
C2451 C2457 1.429 . S
C2452 C2444 1.574 . S
C2452 H2447 0.949 . S
C2452 C2458 1.368 . S
C2453 C2437 1.349 . S
C2453 H2445 0.950 . S
C2453 C2451 1.327 . S
C2454 C2442 1.349 . S
C2454 H2448 0.950 . S
C2454 C2455 1.327 . S
C2455 H2449 0.950 . S
C2455 C2454 1.327 . S
C2455 C2459 1.429 . S
C2456 C2439 1.574 . S
C2456 H2450 0.949 . S
C2456 C2460 1.368 . S
C2457 C2438 1.429 . S
C2457 C2451 1.429 . S
C2457 C2458 1.523 . S
C2458 C2439 1.368 . S
C2458 C2452 1.368 . S
C2458 C2457 1.523 . S
C2459 C2443 1.429 . S
C2459 C2455 1.429 . S
C2459 C2460 1.523 . S
C2460 C2444 1.368 . S
C2460 C2456 1.368 . S
C2460 C2459 1.523 . S
H2461 C2436 0.950 . S
H2462 C2438 0.950 . S
H2463 C2439 0.949 . S
H2464 C2441 0.950 . S
H2465 C2443 0.950 . S
C2466 C2467 1.349 . S
C2466 C2468 1.327 . S
C2466 H2491 0.950 . S
C2467 C2466 1.349 . S
C2467 C2483 1.349 . S
C2468 C2466 1.327 . S
C2468 C2487 1.429 . S
C2468 H2492 0.950 . S
C2469 C2486 1.574 . S
C2469 C2488 1.368 . S
C2469 H2493 0.949 . S
H2470 C2474 0.949 . S
C2471 C2472 1.349 . S
C2471 C2473 1.327 . S
C2471 H2494 0.950 . S
C2472 C2471 1.349 . S
C2472 C2484 1.349 . S
C2473 C2471 1.327 . S
C2473 C2489 1.429 . S
C2473 H2495 0.950 . S
C2474 H2470 0.949 . S
C2474 C2482 1.574 . S
C2474 C2490 1.368 . S
H2475 C2483 0.950 . S
H2476 C2481 0.950 . S
H2477 C2482 0.949 . S
H2478 C2484 0.950 . S
H2479 C2485 0.950 . S
H2480 C2486 0.949 . S
C2481 H2476 0.950 . S
C2481 C2483 1.327 . S
C2481 C2487 1.429 . S
C2482 C2474 1.574 . S
C2482 H2477 0.949 . S
C2482 C2488 1.368 . S
C2483 C2467 1.349 . S
C2483 H2475 0.950 . S
C2483 C2481 1.327 . S
C2484 C2472 1.349 . S
C2484 H2478 0.950 . S
C2484 C2485 1.327 . S
C2485 H2479 0.950 . S
C2485 C2484 1.327 . S
C2485 C2489 1.429 . S
C2486 C2469 1.574 . S
C2486 H2480 0.949 . S
C2486 C2490 1.368 . S
C2487 C2468 1.429 . S
C2487 C2481 1.429 . S
C2487 C2488 1.523 . S
C2488 C2469 1.368 . S
C2488 C2482 1.368 . S
C2488 C2487 1.523 . S
C2489 C2473 1.429 . S
C2489 C2485 1.429 . S
C2489 C2490 1.523 . S
C2490 C2474 1.368 . S
C2490 C2486 1.368 . S
C2490 C2489 1.523 . S
H2491 C2466 0.950 . S
H2492 C2468 0.950 . S
H2493 C2469 0.949 . S
H2494 C2471 0.950 . S
H2495 C2473 0.950 . S
C2496 C2497 1.349 . S
C2496 C2498 1.327 . S
C2496 H2521 0.950 . S
C2497 C2496 1.349 . S
C2497 C2513 1.349 . S
C2498 C2496 1.327 . S
C2498 C2517 1.429 . S
C2498 H2522 0.950 . S
C2499 C2516 1.574 . S
C2499 C2518 1.368 . S
C2499 H2523 0.949 . S
H2500 C2504 0.949 . S
C2501 C2502 1.349 . S
C2501 C2503 1.327 . S
C2501 H2524 0.950 . S
C2502 C2501 1.349 . S
C2502 C2514 1.349 . S
C2503 C2501 1.327 . S
C2503 C2519 1.429 . S
C2503 H2525 0.950 . S
C2504 H2500 0.949 . S
C2504 C2512 1.574 . S
C2504 C2520 1.368 . S
H2505 C2513 0.950 . S
H2506 C2511 0.950 . S
H2507 C2512 0.949 . S
H2508 C2514 0.950 . S
H2509 C2515 0.950 . S
H2510 C2516 0.949 . S
C2511 H2506 0.950 . S
C2511 C2513 1.327 . S
C2511 C2517 1.429 . S
C2512 C2504 1.574 . S
C2512 H2507 0.949 . S
C2512 C2518 1.368 . S
C2513 C2497 1.349 . S
C2513 H2505 0.950 . S
C2513 C2511 1.327 . S
C2514 C2502 1.349 . S
C2514 H2508 0.950 . S
C2514 C2515 1.327 . S
C2515 H2509 0.950 . S
C2515 C2514 1.327 . S
C2515 C2519 1.429 . S
C2516 C2499 1.574 . S
C2516 H2510 0.949 . S
C2516 C2520 1.368 . S
C2517 C2498 1.429 . S
C2517 C2511 1.429 . S
C2517 C2518 1.523 . S
C2518 C2499 1.368 . S
C2518 C2512 1.368 . S
C2518 C2517 1.523 . S
C2519 C2503 1.429 . S
C2519 C2515 1.429 . S
C2519 C2520 1.523 . S
C2520 C2504 1.368 . S
C2520 C2516 1.368 . S
C2520 C2519 1.523 . S
H2521 C2496 0.950 . S
H2522 C2498 0.950 . S
H2523 C2499 0.949 . S
H2524 C2501 0.950 . S
H2525 C2503 0.950 . S
C2526 C2527 1.349 . S
C2526 C2528 1.327 . S
C2526 H2551 0.950 . S
C2527 C2526 1.349 . S
C2527 C2543 1.349 . S
C2528 C2526 1.327 . S
C2528 C2547 1.429 . S
C2528 H2552 0.950 . S
C2529 C2546 1.574 . S
C2529 C2548 1.368 . S
C2529 H2553 0.949 . S
H2530 C2534 0.949 . S
C2531 C2532 1.349 . S
C2531 C2533 1.327 . S
C2531 H2554 0.950 . S
C2532 C2531 1.349 . S
C2532 C2544 1.349 . S
C2533 C2531 1.327 . S
C2533 C2549 1.429 . S
C2533 H2555 0.950 . S
C2534 H2530 0.949 . S
C2534 C2542 1.574 . S
C2534 C2550 1.368 . S
H2535 C2543 0.950 . S
H2536 C2541 0.950 . S
H2537 C2542 0.949 . S
H2538 C2544 0.950 . S
H2539 C2545 0.950 . S
H2540 C2546 0.949 . S
C2541 H2536 0.950 . S
C2541 C2543 1.327 . S
C2541 C2547 1.429 . S
C2542 C2534 1.574 . S
C2542 H2537 0.949 . S
C2542 C2548 1.368 . S
C2543 C2527 1.349 . S
C2543 H2535 0.950 . S
C2543 C2541 1.327 . S
C2544 C2532 1.349 . S
C2544 H2538 0.950 . S
C2544 C2545 1.327 . S
C2545 H2539 0.950 . S
C2545 C2544 1.327 . S
C2545 C2549 1.429 . S
C2546 C2529 1.574 . S
C2546 H2540 0.949 . S
C2546 C2550 1.368 . S
C2547 C2528 1.429 . S
C2547 C2541 1.429 . S
C2547 C2548 1.523 . S
C2548 C2529 1.368 . S
C2548 C2542 1.368 . S
C2548 C2547 1.523 . S
C2549 C2533 1.429 . S
C2549 C2545 1.429 . S
C2549 C2550 1.523 . S
C2550 C2534 1.368 . S
C2550 C2546 1.368 . S
C2550 C2549 1.523 . S
H2551 C2526 0.950 . S
H2552 C2528 0.950 . S
H2553 C2529 0.949 . S
H2554 C2531 0.950 . S
H2555 C2533 0.950 . S
C2556 C2557 1.349 . S
C2556 C2558 1.327 . S
C2556 H2581 0.950 . S
C2557 C2556 1.349 . S
C2557 C2573 1.349 . S
C2558 C2556 1.327 . S
C2558 C2577 1.429 . S
C2558 H2582 0.950 . S
C2559 C2576 1.574 . S
C2559 C2578 1.368 . S
C2559 H2583 0.949 . S
H2560 C2564 0.949 . S
C2561 C2562 1.349 . S
C2561 C2563 1.327 . S
C2561 H2584 0.950 . S
C2562 C2561 1.349 . S
C2562 C2574 1.349 . S
C2563 C2561 1.327 . S
C2563 C2579 1.429 . S
C2563 H2585 0.950 . S
C2564 H2560 0.949 . S
C2564 C2572 1.574 . S
C2564 C2580 1.368 . S
H2565 C2573 0.950 . S
H2566 C2571 0.950 . S
H2567 C2572 0.949 . S
H2568 C2574 0.950 . S
H2569 C2575 0.950 . S
H2570 C2576 0.949 . S
C2571 H2566 0.950 . S
C2571 C2573 1.327 . S
C2571 C2577 1.429 . S
C2572 C2564 1.574 . S
C2572 H2567 0.949 . S
C2572 C2578 1.368 . S
C2573 C2557 1.349 . S
C2573 H2565 0.950 . S
C2573 C2571 1.327 . S
C2574 C2562 1.349 . S
C2574 H2568 0.950 . S
C2574 C2575 1.327 . S
C2575 H2569 0.950 . S
C2575 C2574 1.327 . S
C2575 C2579 1.429 . S
C2576 C2559 1.574 . S
C2576 H2570 0.949 . S
C2576 C2580 1.368 . S
C2577 C2558 1.429 . S
C2577 C2571 1.429 . S
C2577 C2578 1.523 . S
C2578 C2559 1.368 . S
C2578 C2572 1.368 . S
C2578 C2577 1.523 . S
C2579 C2563 1.429 . S
C2579 C2575 1.429 . S
C2579 C2580 1.523 . S
C2580 C2564 1.368 . S
C2580 C2576 1.368 . S
C2580 C2579 1.523 . S
H2581 C2556 0.950 . S
H2582 C2558 0.950 . S
H2583 C2559 0.949 . S
H2584 C2561 0.950 . S
H2585 C2563 0.950 . S
C2586 C2587 1.349 . S
C2586 C2588 1.327 . S
C2586 H2611 0.950 . S
C2587 C2586 1.349 . S
C2587 C2603 1.349 . S
C2588 C2586 1.327 . S
C2588 C2607 1.429 . S
C2588 H2612 0.950 . S
C2589 C2606 1.574 . S
C2589 C2608 1.368 . S
C2589 H2613 0.949 . S
H2590 C2594 0.949 . S
C2591 C2592 1.349 . S
C2591 C2593 1.327 . S
C2591 H2614 0.950 . S
C2592 C2591 1.349 . S
C2592 C2604 1.349 . S
C2593 C2591 1.327 . S
C2593 C2609 1.429 . S
C2593 H2615 0.950 . S
C2594 H2590 0.949 . S
C2594 C2602 1.574 . S
C2594 C2610 1.368 . S
H2595 C2603 0.950 . S
H2596 C2601 0.950 . S
H2597 C2602 0.949 . S
H2598 C2604 0.950 . S
H2599 C2605 0.950 . S
H2600 C2606 0.949 . S
C2601 H2596 0.950 . S
C2601 C2603 1.327 . S
C2601 C2607 1.429 . S
C2602 C2594 1.574 . S
C2602 H2597 0.949 . S
C2602 C2608 1.368 . S
C2603 C2587 1.349 . S
C2603 H2595 0.950 . S
C2603 C2601 1.327 . S
C2604 C2592 1.349 . S
C2604 H2598 0.950 . S
C2604 C2605 1.327 . S
C2605 H2599 0.950 . S
C2605 C2604 1.327 . S
C2605 C2609 1.429 . S
C2606 C2589 1.574 . S
C2606 H2600 0.949 . S
C2606 C2610 1.368 . S
C2607 C2588 1.429 . S
C2607 C2601 1.429 . S
C2607 C2608 1.523 . S
C2608 C2589 1.368 . S
C2608 C2602 1.368 . S
C2608 C2607 1.523 . S
C2609 C2593 1.429 . S
C2609 C2605 1.429 . S
C2609 C2610 1.523 . S
C2610 C2594 1.368 . S
C2610 C2606 1.368 . S
C2610 C2609 1.523 . S
H2611 C2586 0.950 . S
H2612 C2588 0.950 . S
H2613 C2589 0.949 . S
H2614 C2591 0.950 . S
H2615 C2593 0.950 . S
C2616 C2617 1.349 . S
C2616 C2618 1.327 . S
C2616 H2641 0.950 . S
C2617 C2616 1.349 . S
C2617 C2633 1.349 . S
C2618 C2616 1.327 . S
C2618 C2637 1.429 . S
C2618 H2642 0.950 . S
C2619 C2636 1.574 . S
C2619 C2638 1.368 . S
C2619 H2643 0.949 . S
H2620 C2624 0.949 . S
C2621 C2622 1.349 . S
C2621 C2623 1.327 . S
C2621 H2644 0.950 . S
C2622 C2621 1.349 . S
C2622 C2634 1.349 . S
C2623 C2621 1.327 . S
C2623 C2639 1.429 . S
C2623 H2645 0.950 . S
C2624 H2620 0.949 . S
C2624 C2632 1.574 . S
C2624 C2640 1.368 . S
H2625 C2633 0.950 . S
H2626 C2631 0.950 . S
H2627 C2632 0.949 . S
H2628 C2634 0.950 . S
H2629 C2635 0.950 . S
H2630 C2636 0.949 . S
C2631 H2626 0.950 . S
C2631 C2633 1.327 . S
C2631 C2637 1.429 . S
C2632 C2624 1.574 . S
C2632 H2627 0.949 . S
C2632 C2638 1.368 . S
C2633 C2617 1.349 . S
C2633 H2625 0.950 . S
C2633 C2631 1.327 . S
C2634 C2622 1.349 . S
C2634 H2628 0.950 . S
C2634 C2635 1.327 . S
C2635 H2629 0.950 . S
C2635 C2634 1.327 . S
C2635 C2639 1.429 . S
C2636 C2619 1.574 . S
C2636 H2630 0.949 . S
C2636 C2640 1.368 . S
C2637 C2618 1.429 . S
C2637 C2631 1.429 . S
C2637 C2638 1.523 . S
C2638 C2619 1.368 . S
C2638 C2632 1.368 . S
C2638 C2637 1.523 . S
C2639 C2623 1.429 . S
C2639 C2635 1.429 . S
C2639 C2640 1.523 . S
C2640 C2624 1.368 . S
C2640 C2636 1.368 . S
C2640 C2639 1.523 . S
H2641 C2616 0.950 . S
H2642 C2618 0.950 . S
H2643 C2619 0.949 . S
H2644 C2621 0.950 . S
H2645 C2623 0.950 . S
C2646 C2647 1.349 . S
C2646 C2648 1.327 . S
C2646 H2671 0.950 . S
C2647 C2646 1.349 . S
C2647 C2663 1.349 . S
C2648 C2646 1.327 . S
C2648 C2667 1.429 . S
C2648 H2672 0.950 . S
C2649 C2666 1.574 . S
C2649 C2668 1.368 . S
C2649 H2673 0.949 . S
H2650 C2654 0.949 . S
C2651 C2652 1.349 . S
C2651 C2653 1.327 . S
C2651 H2674 0.950 . S
C2652 C2651 1.349 . S
C2652 C2664 1.349 . S
C2653 C2651 1.327 . S
C2653 C2669 1.429 . S
C2653 H2675 0.950 . S
C2654 H2650 0.949 . S
C2654 C2662 1.574 . S
C2654 C2670 1.368 . S
H2655 C2663 0.950 . S
H2656 C2661 0.950 . S
H2657 C2662 0.949 . S
H2658 C2664 0.950 . S
H2659 C2665 0.950 . S
H2660 C2666 0.949 . S
C2661 H2656 0.950 . S
C2661 C2663 1.327 . S
C2661 C2667 1.429 . S
C2662 C2654 1.574 . S
C2662 H2657 0.949 . S
C2662 C2668 1.368 . S
C2663 C2647 1.349 . S
C2663 H2655 0.950 . S
C2663 C2661 1.327 . S
C2664 C2652 1.349 . S
C2664 H2658 0.950 . S
C2664 C2665 1.327 . S
C2665 H2659 0.950 . S
C2665 C2664 1.327 . S
C2665 C2669 1.429 . S
C2666 C2649 1.574 . S
C2666 H2660 0.949 . S
C2666 C2670 1.368 . S
C2667 C2648 1.429 . S
C2667 C2661 1.429 . S
C2667 C2668 1.523 . S
C2668 C2649 1.368 . S
C2668 C2662 1.368 . S
C2668 C2667 1.523 . S
C2669 C2653 1.429 . S
C2669 C2665 1.429 . S
C2669 C2670 1.523 . S
C2670 C2654 1.368 . S
C2670 C2666 1.368 . S
C2670 C2669 1.523 . S
H2671 C2646 0.950 . S
H2672 C2648 0.950 . S
H2673 C2649 0.949 . S
H2674 C2651 0.950 . S
H2675 C2653 0.950 . S
C2676 C2677 1.349 . S
C2676 C2678 1.327 . S
C2676 H2701 0.950 . S
C2677 C2676 1.349 . S
C2677 C2693 1.349 . S
C2678 C2676 1.327 . S
C2678 C2697 1.429 . S
C2678 H2702 0.950 . S
C2679 C2696 1.574 . S
C2679 C2698 1.368 . S
C2679 H2703 0.949 . S
H2680 C2684 0.949 . S
C2681 C2682 1.349 . S
C2681 C2683 1.327 . S
C2681 H2704 0.950 . S
C2682 C2681 1.349 . S
C2682 C2694 1.349 . S
C2683 C2681 1.327 . S
C2683 C2699 1.429 . S
C2683 H2705 0.950 . S
C2684 H2680 0.949 . S
C2684 C2692 1.574 . S
C2684 C2700 1.368 . S
H2685 C2693 0.950 . S
H2686 C2691 0.950 . S
H2687 C2692 0.949 . S
H2688 C2694 0.950 . S
H2689 C2695 0.950 . S
H2690 C2696 0.949 . S
C2691 H2686 0.950 . S
C2691 C2693 1.327 . S
C2691 C2697 1.429 . S
C2692 C2684 1.574 . S
C2692 H2687 0.949 . S
C2692 C2698 1.368 . S
C2693 C2677 1.349 . S
C2693 H2685 0.950 . S
C2693 C2691 1.327 . S
C2694 C2682 1.349 . S
C2694 H2688 0.950 . S
C2694 C2695 1.327 . S
C2695 H2689 0.950 . S
C2695 C2694 1.327 . S
C2695 C2699 1.429 . S
C2696 C2679 1.574 . S
C2696 H2690 0.949 . S
C2696 C2700 1.368 . S
C2697 C2678 1.429 . S
C2697 C2691 1.429 . S
C2697 C2698 1.523 . S
C2698 C2679 1.368 . S
C2698 C2692 1.368 . S
C2698 C2697 1.523 . S
C2699 C2683 1.429 . S
C2699 C2695 1.429 . S
C2699 C2700 1.523 . S
C2700 C2684 1.368 . S
C2700 C2696 1.368 . S
C2700 C2699 1.523 . S
H2701 C2676 0.950 . S
H2702 C2678 0.950 . S
H2703 C2679 0.949 . S
H2704 C2681 0.950 . S
H2705 C2683 0.950 . S
C2706 C2707 1.349 . S
C2706 C2708 1.327 . S
C2706 H2731 0.950 . S
C2707 C2706 1.349 . S
C2707 C2723 1.349 . S
C2708 C2706 1.327 . S
C2708 C2727 1.429 . S
C2708 H2732 0.950 . S
C2709 C2726 1.574 . S
C2709 C2728 1.368 . S
C2709 H2733 0.949 . S
H2710 C2714 0.949 . S
C2711 C2712 1.349 . S
C2711 C2713 1.327 . S
C2711 H2734 0.950 . S
C2712 C2711 1.349 . S
C2712 C2724 1.349 . S
C2713 C2711 1.327 . S
C2713 C2729 1.429 . S
C2713 H2735 0.950 . S
C2714 H2710 0.949 . S
C2714 C2722 1.574 . S
C2714 C2730 1.368 . S
H2715 C2723 0.950 . S
H2716 C2721 0.950 . S
H2717 C2722 0.949 . S
H2718 C2724 0.950 . S
H2719 C2725 0.950 . S
H2720 C2726 0.949 . S
C2721 H2716 0.950 . S
C2721 C2723 1.327 . S
C2721 C2727 1.429 . S
C2722 C2714 1.574 . S
C2722 H2717 0.949 . S
C2722 C2728 1.368 . S
C2723 C2707 1.349 . S
C2723 H2715 0.950 . S
C2723 C2721 1.327 . S
C2724 C2712 1.349 . S
C2724 H2718 0.950 . S
C2724 C2725 1.327 . S
C2725 H2719 0.950 . S
C2725 C2724 1.327 . S
C2725 C2729 1.429 . S
C2726 C2709 1.574 . S
C2726 H2720 0.949 . S
C2726 C2730 1.368 . S
C2727 C2708 1.429 . S
C2727 C2721 1.429 . S
C2727 C2728 1.523 . S
C2728 C2709 1.368 . S
C2728 C2722 1.368 . S
C2728 C2727 1.523 . S
C2729 C2713 1.429 . S
C2729 C2725 1.429 . S
C2729 C2730 1.523 . S
C2730 C2714 1.368 . S
C2730 C2726 1.368 . S
C2730 C2729 1.523 . S
H2731 C2706 0.950 . S
H2732 C2708 0.950 . S
H2733 C2709 0.949 . S
H2734 C2711 0.950 . S
H2735 C2713 0.950 . S
C582 C306 1.424 . S
C577 C260 1.435 . S
C607 C238 1.457 . S
C612 C300 1.436 . S
C642 C268 1.593 . S
C637 C227 1.617 . S
C667 C249 1.637 . S
C672 C282 1.602 . S
C702 C320 2.179 . S
C697 C183 2.218 . S
C732 C407 1.529 . S
C727 C194 1.490 . S
C757 C205 2.280 . S
C762 C334 2.247 . S
C792 C402 1.107 . S
C787 C216 1.084 . S
C817 C139 2.272 . S
C822 C358 2.259 . S
C852 C413 1.593 . S
C847 C150 1.566 . S
C877 C161 2.190 . S
C882 C352 2.196 . S
C907 C172 1.156 . S
C912 C398 1.173 . S
C942 C454 1.250 . S
C937 C128 1.218 . S
C967 C106 1.674 . S
C972 C465 1.709 . S
C997 C95 1.296 . S
C1002 C450 1.324 . S
C1032 C459 1.780 . S
C1027 C117 1.751 1_554 S
C1057 C51 1.663 1_455 S
C1062 C504 1.646 . S
C1087 C62 0.651 . S
C1092 C563 0.636 . S
C1117 C73 1.820 . S
C1122 C520 1.780 . S
C1147 C84 1.067 . S
C1152 C558 1.081 . S
C1182 C522 1.815 . S
C1177 C7 1.837 . S
C1212 C569 0.581 . S
C1207 C18 0.593 . S
C1237 C29 1.634 . S
C1242 C498 1.619 . S
C1272 C554 1.027 . S
C1267 C40 1.034 . S
C1302 C290 1.531 . S
C1297 C8 1.543 . S
C1327 C16 1.007 . S
C1332 C294 1.141 . S
C1357 C30 1.583 . S
C1362 C314 1.548 . S
C1387 C38 0.784 1_545 S
C1392 C309 0.816 . S
C1417 C52 1.601 1_455 S
C1422 C312 1.574 . S
C1452 C298 1.099 . S
C1447 C60 0.940 . S
C1477 C74 1.533 . S
C1482 C296 1.507 . S
C1512 C303 0.781 . S
C1507 C82 0.761 . S
C1542 C366 1.258 . S
C1537 C41 1.285 . S
C1567 C5 1.726 . S
C1572 C416 1.957 . S
C1602 C364 0.941 . S
C1597 C19 0.954 . S
C1632 C400 1.854 . S
C1627 C27 1.685 . S
C1657 C63 0.886 . S
C1662 C342 0.881 . S
C1692 C418 1.925 . S
C1687 C71 1.723 . S
C1722 C348 1.206 . S
C1717 C85 1.215 . S
C1752 C394 1.876 . S
C1747 C49 1.730 1_455 S
C1782 C386 1.426 . S
C1777 C93 1.234 . S
C1807 C104 1.042 . S
C1812 C410 1.220 . S
C1842 C346 1.069 . S
C1837 C96 1.051 . S
C1872 C372 1.268 . S
C1867 C115 1.089 1_554 S
C1897 C129 1.001 . S
C1902 C350 1.020 . S
C1927 C126 1.180 . S
C1932 C404 1.376 . S
C1962 C361 1.387 . S
C1957 C107 1.342 . S
C1992 C355 1.434 . S
C1987 C118 1.385 1_554 S
C2022 C438 1.925 . S
C2017 C140 1.933 . S
C2052 C470 1.327 . S
C2047 C148 1.149 . S
C2077 C162 1.907 . S
C2082 C424 1.912 . S
C2112 C468 0.998 . S
C2107 C170 0.905 . S
C2142 C456 1.884 . S
C2137 C184 1.890 . S
C2167 C192 1.067 . S
C2172 C452 1.253 . S
C2197 C206 1.957 . S
C2202 C462 1.960 . S
C2232 C446 0.934 . S
C2227 C214 0.847 . S
C2262 C511 1.125 . S
C2257 C173 1.105 . S
C2287 C137 1.429 . S
C2292 C572 1.673 . S
C2322 C506 0.833 . S
C2317 C151 0.821 . S
C2352 C556 1.647 . S
C2347 C159 1.373 . S
C2382 C502 0.770 . S
C2377 C195 0.767 . S
C2407 C203 1.441 . S
C2412 C574 1.615 . S
C2442 C517 1.070 . S
C2437 C217 1.046 . S
C2472 C550 1.539 . S
C2467 C181 1.379 . S
C2502 C542 1.556 . S
C2497 C225 1.337 . S
C2527 C236 1.493 . S
C2532 C566 1.641 . S
C2562 C508 1.308 . S
C2557 C228 1.321 . S
C2587 C247 1.502 . S
C2592 C528 1.713 . S
C2622 C490 1.352 . S
C2617 C261 1.377 . S
C2652 C560 1.477 . S
C2647 C258 1.318 . S
C2682 C476 1.319 . S
C2677 C239 1.352 . S
C2707 C250 1.300 . S
C2712 C514 1.281 . S
