# Generated by pormake.
# Topology pyr, (3,6)-cn, num edge types: 1
# Building blocks:
#     Node 0, Type 0, BuildingBlock: OLANEW_clean_sbu_2, # of connection points: 3
#     Node 1, Type 0, BuildingBlock: OLANEW_clean_sbu_2, # of connection points: 3
#     Node 2, Type 0, BuildingBlock: OLANEW_clean_sbu_2, # of connection points: 3
#     Node 3, Type 0, BuildingBlock: OLANEW_clean_sbu_2, # of connection points: 3
#     Node 4, Type 0, BuildingBlock: OLANEW_clean_sbu_2, # of connection points: 3
#     Node 5, Type 0, BuildingBlock: OLANEW_clean_sbu_2, # of connection points: 3
#     Node 6, Type 0, BuildingBlock: OLANEW_clean_sbu_2, # of connection points: 3
#     Node 7, Type 0, BuildingBlock: OLANEW_clean_sbu_2, # of connection points: 3
#     Node 8, Type 1, BuildingBlock: BETDIP_clean_sbu_0, # of connection points: 6
#     Node 9, Type 1, BuildingBlock: BETDIP_clean_sbu_0, # of connection points: 6
#     Node 10, Type 1, BuildingBlock: BETDIP_clean_sbu_0, # of connection points: 6
#     Node 11, Type 1, BuildingBlock: BETDIP_clean_sbu_0, # of connection points: 6
#     Edge 12, Type (0, 1), BuildingBlock: OJICUG_clean_linker_0, # of connection points: 2
#     Edge 13, Type (0, 1), BuildingBlock: OJICUG_clean_linker_0, # of connection points: 2
#     Edge 14, Type (0, 1), BuildingBlock: OJICUG_clean_linker_0, # of connection points: 2
#     Edge 15, Type (0, 1), BuildingBlock: OJICUG_clean_linker_0, # of connection points: 2
#     Edge 16, Type (0, 1), BuildingBlock: OJICUG_clean_linker_0, # of connection points: 2
#     Edge 17, Type (0, 1), BuildingBlock: OJICUG_clean_linker_0, # of connection points: 2
#     Edge 18, Type (0, 1), BuildingBlock: OJICUG_clean_linker_0, # of connection points: 2
#     Edge 19, Type (0, 1), BuildingBlock: OJICUG_clean_linker_0, # of connection points: 2
#     Edge 20, Type (0, 1), BuildingBlock: OJICUG_clean_linker_0, # of connection points: 2
#     Edge 21, Type (0, 1), BuildingBlock: OJICUG_clean_linker_0, # of connection points: 2
#     Edge 22, Type (0, 1), BuildingBlock: OJICUG_clean_linker_0, # of connection points: 2
#     Edge 23, Type (0, 1), BuildingBlock: OJICUG_clean_linker_0, # of connection points: 2
#     Edge 24, Type (0, 1), BuildingBlock: OJICUG_clean_linker_0, # of connection points: 2
#     Edge 25, Type (0, 1), BuildingBlock: OJICUG_clean_linker_0, # of connection points: 2
#     Edge 26, Type (0, 1), BuildingBlock: OJICUG_clean_linker_0, # of connection points: 2
#     Edge 27, Type (0, 1), BuildingBlock: OJICUG_clean_linker_0, # of connection points: 2
#     Edge 28, Type (0, 1), BuildingBlock: OJICUG_clean_linker_0, # of connection points: 2
#     Edge 29, Type (0, 1), BuildingBlock: OJICUG_clean_linker_0, # of connection points: 2
#     Edge 30, Type (0, 1), BuildingBlock: OJICUG_clean_linker_0, # of connection points: 2
#     Edge 31, Type (0, 1), BuildingBlock: OJICUG_clean_linker_0, # of connection points: 2
#     Edge 32, Type (0, 1), BuildingBlock: OJICUG_clean_linker_0, # of connection points: 2
#     Edge 33, Type (0, 1), BuildingBlock: OJICUG_clean_linker_0, # of connection points: 2
#     Edge 34, Type (0, 1), BuildingBlock: OJICUG_clean_linker_0, # of connection points: 2
#     Edge 35, Type (0, 1), BuildingBlock: OJICUG_clean_linker_0, # of connection points: 2
# Relax obj value: 0.218
# Max RMSD: 0.247
# Mean RMSD: 0.147
data_MOF--net-pyr--node1-OLANEW_clean_sbu_2--node2-BETDIP_clean_sbu_0--edge1-OJICUG_clean_linker_0
_symmetry_space_group_name_H-M    P1
_symmetry_Int_Tables_number       1
_symmetry_cell_setting            triclinic
loop_
_symmetry_equiv_pos_as_xyz
'x, y, z'
_cell_length_a     28.19149
_cell_length_b     33.683353
_cell_length_c     32.275978
_cell_angle_alpha  93.403964
_cell_angle_beta   92.508889
_cell_angle_gamma 109.16323
loop_
_atom_site_label
_atom_site_type_symbol
_atom_site_fract_x
_atom_site_fract_y
_atom_site_fract_z
_atom_type_partial_charge
O0 O 0.43995 0.27599 0.1712 0.0
Cd1 Cd 0.41078 0.3321 0.19934 0.0
O2 O 0.36466 0.24127 0.18882 0.0
Cd3 Cd 0.31279 0.18322 0.20678 0.0
O4 O 0.28712 0.16136 0.26573 0.0
C5 C 0.30729 0.1866 0.29729 0.0
O6 O 0.34258 0.22259 0.29265 0.0
C7 C 0.40618 0.2411 0.17561 0.0
C8 C 0.33208 0.34721 0.1548 0.0
O9 O 0.378 0.37051 0.15275 0.0
O10 O 0.32301 0.31534 0.17668 0.0
O11 O 0.14984 0.7164 0.83549 0.0
Cd12 Cd 0.10947 0.66371 0.77947 0.0
O13 O 0.1105 0.75224 0.80254 0.0
Cd14 Cd 0.09742 0.81059 0.79612 0.0
O15 O 0.09032 0.85867 0.75908 0.0
C16 C 0.04766 0.85224 0.74059 0.0
O17 O 0.00972 0.81874 0.74763 0.0
C18 C 0.14243 0.75093 0.83069 0.0
C19 C 0.18978 0.65669 0.73686 0.0
O20 O 0.16788 0.68277 0.72622 0.0
O21 O 0.17192 0.63297 0.76597 0.0
O22 O 0.7537 0.43705 0.86191 0.0
Cd23 Cd 0.68649 0.41358 0.80087 0.0
O24 O 0.72338 0.38115 0.89712 0.0
Cd25 Cd 0.69632 0.32647 0.93755 0.0
O26 O 0.64261 0.27022 0.96586 0.0
C27 C 0.64736 0.23376 0.96654 0.0
O28 O 0.68642 0.22767 0.95001 0.0
C29 C 0.75783 0.41666 0.8936 0.0
C30 C 0.65418 0.46091 0.74043 0.0
O31 O 0.6292 0.44861 0.77228 0.0
O32 O 0.69588 0.4535 0.73812 0.0
O33 O 0.96668 0.81093 0.36065 0.0
Cd34 Cd 0.9378 0.74041 0.30902 0.0
O35 O 0.90465 0.79204 0.40302 0.0
Cd36 Cd 0.86754 0.72683 0.37875 0.0
O37 O 0.80733 0.68042 0.40762 0.0
C38 C 0.78799 0.69794 0.43497 0.0
O39 O 0.80459 0.7393 0.44075 0.0
C40 C 0.94387 0.81966 0.39213 0.0
C41 C 0.96008 0.69119 0.23772 0.0
O42 O 0.9418 0.721 0.23252 0.0
O43 O 0.97139 0.68627 0.27567 0.0
O44 O 0.66773 0.776 0.8344 0.0
Cd45 Cd 0.63329 0.75289 0.90007 0.0
O46 O 0.68436 0.83347 0.87468 0.0
Cd47 Cd 0.71463 0.89946 0.89535 0.0
O48 O 0.67247 0.92443 0.93731 0.0
C49 C 0.62508 0.91277 0.92969 0.0
O50 O 0.60453 0.88927 0.8954 0.0
C51 C 0.68887 0.8156 0.84013 0.0
C52 C 0.71106 0.73659 0.94332 0.0
O53 O 0.67321 0.70657 0.92613 0.0
O54 O 0.71122 0.77453 0.94184 0.0
O55 O 0.89117 0.27394 0.36998 0.0
Cd56 Cd 0.97328 0.29332 0.40555 0.0
O57 O 0.89969 0.33006 0.33532 0.0
Cd58 Cd 0.94102 0.37309 0.38727 0.0
O59 O 0.88796 0.40006 0.4158 0.0
C60 C 0.85697 0.40827 0.39062 0.0
O61 O 0.86117 0.40287 0.35045 0.0
C62 C 0.87598 0.29196 0.34138 0.0
C63 C 0.97145 0.22034 0.44216 0.0
O64 O 0.97875 0.22357 0.40346 0.0
O65 O 0.96727 0.25205 0.46375 0.0
O66 O 0.44824 0.81736 0.26219 0.0
Cd67 Cd 0.43554 0.7512 0.30924 0.0
O68 O 0.37318 0.80666 0.2297 0.0
Cd69 Cd 0.32885 0.74166 0.24 0.0
O70 O 0.26991 0.69131 0.20212 0.0
C71 C 0.25689 0.70257 0.16765 0.0
O72 O 0.27799 0.74191 0.15904 0.0
C73 C 0.41874 0.82988 0.23815 0.0
C74 C 0.45563 0.69396 0.3693 0.0
O75 O 0.4829 0.73315 0.37052 0.0
O76 O 0.42038 0.68145 0.34008 0.0
O77 O 0.17247 0.43291 0.81262 0.0
Cd78 Cd 0.20278 0.40126 0.75002 0.0
O79 O 0.11646 0.37486 0.83312 0.0
Cd80 Cd 0.11522 0.32107 0.78616 0.0
O81 O 0.08798 0.26147 0.74164 0.0
C82 C 0.10123 0.22849 0.74185 0.0
O83 O 0.13475 0.2269 0.7707 0.0
C84 C 0.13948 0.41485 0.83776 0.0
C85 C 0.28523 0.44201 0.70115 0.0
O86 O 0.24713 0.45457 0.70396 0.0
O87 O 0.28659 0.41193 0.72319 0.0
Tb88 Tb 0.94888 1.0095 0.58162 0.0
Tb89 Tb 0.05748 0.03696 0.56347 0.0
C90 C 0.86293 0.96854 0.60287 0.0
C91 C 0.84507 0.94726 0.64093 0.0
C92 C 0.81952 0.90371 0.63785 0.0
C93 C 0.79991 0.88325 0.67279 0.0
C94 C 0.80523 0.9059 0.71172 0.0
C95 C 0.83247 0.94933 0.71524 0.0
C96 C 0.85236 0.96981 0.68023 0.0
C97 C 0.00575 0.081 0.62381 0.0
C98 C 0.02395 0.97065 0.62784 0.0
C99 C 0.14468 0.08579 0.55676 0.0
C100 C 0.16812 0.10378 0.51941 0.0
C101 C 0.20121 0.14544 0.52159 0.0
C102 C 0.22278 0.16274 0.48573 0.0
C103 C 0.21152 0.13832 0.44754 0.0
C104 C 0.17615 0.09757 0.44508 0.0
C105 C 0.15454 0.08049 0.48067 0.0
C106 C 0.00826 0.97387 0.50568 0.0
C107 C 0.98017 0.07274 0.51699 0.0
O108 O 0.88918 0.95188 0.57933 0.0
O109 O 0.88167 1.00962 0.60678 0.0
O110 O 0.01819 0.04841 0.61605 0.0
O111 O 0.95999 0.07293 0.60903 0.0
O112 O 0.97781 0.97096 0.62011 0.0
O113 O 0.06328 0.99698 0.61194 0.0
O114 O 0.10785 0.0988 0.56778 0.0
O115 O 0.13385 0.04493 0.55827 0.0
O116 O 0.98979 0.99003 0.53484 0.0
O117 O 0.05603 0.99376 0.50923 0.0
O118 O 0.02639 0.07879 0.53197 0.0
O119 O 0.94182 0.0402 0.52581 0.0
H120 H 0.81372 0.88556 0.6081 0.0
H121 H 0.77878 0.84986 0.66886 0.0
H122 H 0.83792 0.96754 0.74494 0.0
H123 H 0.87269 1.00337 0.6839 0.0
H124 H 0.21076 0.16432 0.55103 0.0
H125 H 0.24963 0.19444 0.48811 0.0
H126 H 0.16607 0.07859 0.41569 0.0
H127 H 0.12774 0.04887 0.47783 0.0
Tb128 Tb 0.536 0.05395 0.11432 0.0
Tb129 Tb 0.43841 0.02386 0.06659 0.0
C130 C 0.62098 0.10595 0.13494 0.0
C131 C 0.64543 0.13422 0.17161 0.0
C132 C 0.65564 0.17774 0.17007 0.0
C133 C 0.68362 0.20565 0.20263 0.0
C134 C 0.70364 0.19064 0.23664 0.0
C135 C 0.69003 0.14673 0.23936 0.0
C136 C 0.66086 0.1188 0.20727 0.0
C137 C 0.48367 0.98825 0.15348 0.0
C138 C 0.44799 0.0878 0.14031 0.0
C139 C 0.35797 0.99147 0.02188 0.0
C140 C 0.33453 0.95804 0.98892 0.0
C141 C 0.33315 0.91653 0.99285 0.0
C142 C 0.30501 0.88458 0.96347 0.0
C143 C 0.27754 0.89357 0.92995 0.0
C144 C 0.2825 0.93571 0.92422 0.0
C145 C 0.31079 0.96773 0.95364 0.0
C146 C 0.50457 0.09479 0.04434 0.0
C147 C 0.52066 0.98334 0.04351 0.0
O148 O 0.58498 0.11559 0.11562 0.0
O149 O 0.61013 0.06522 0.13764 0.0
O150 O 0.46689 1.00151 0.1212 0.0
O151 O 0.52858 0.01341 0.16471 0.0
O152 O 0.49663 0.09371 0.14225 0.0
O153 O 0.4157 0.05608 0.11746 0.0
O154 O 0.36484 0.98067 0.05948 0.0
O155 O 0.39618 0.02229 1.01133 0.0
O156 O 0.51224 0.06147 0.05317 0.0
O157 O 0.45795 0.0899 0.04965 0.0
O158 O 0.47258 0.97977 0.03942 0.0
O159 O 0.55351 0.01305 0.06837 0.0
H160 H 0.64333 0.19036 0.14306 0.0
H161 H 0.69126 0.23904 0.20011 0.0
H162 H 0.70442 0.13353 0.26479 0.0
H163 H 0.65259 0.08529 0.20963 0.0
H164 H 0.35228 0.90854 0.01928 0.0
H165 H 0.30323 0.8525 0.96783 0.0
H166 H 0.26228 0.94368 0.89846 0.0
H167 H 0.31239 0.99988 0.94977 0.0
Tb168 Tb 0.53447 0.59682 0.58113 0.0
Tb169 Tb 0.52481 0.52265 0.52669 0.0
C170 C 0.51378 0.65538 0.61888 0.0
C171 C 0.46601 0.65616 0.63535 0.0
C172 C 0.42371 0.6519 0.60837 0.0
C173 C 0.37823 0.6511 0.62427 0.0
C174 C 0.37397 0.6542 0.66738 0.0
C175 C 0.4159 0.65779 0.69437 0.0
C176 C 0.46158 0.65895 0.67848 0.0
C177 C 0.5807 0.54746 0.61321 0.0
C178 C 0.43748 0.51522 0.58455 0.0
C179 C 0.54714 0.46347 0.49011 0.0
C180 C 0.59465 0.45983 0.47494 0.0
C181 C 0.63954 0.47309 0.50067 0.0
C182 C 0.6834 0.46739 0.48678 0.0
C183 C 0.68362 0.44836 0.4468 0.0
C184 C 0.63901 0.43625 0.42071 0.0
C185 C 0.59509 0.4419 0.43467 0.0
C186 C 0.48618 0.57707 0.49143 0.0
C187 C 0.62403 0.6042 0.5286 0.0
O188 O 0.51433 0.65111 0.57835 0.0
O189 O 0.53566 0.63185 0.63742 0.0
O190 O 0.53822 0.5358 0.59295 0.0
O191 O 0.59758 0.58833 0.61717 0.0
O192 O 0.45657 0.55677 0.58806 0.0
O193 O 0.4596 0.49289 0.56235 0.0
O194 O 0.54556 0.46861 0.53036 0.0
O195 O 0.52709 0.48762 0.47069 0.0
O196 O 0.52575 0.58518 0.51495 0.0
O197 O 0.46643 0.53609 0.48674 0.0
O198 O 0.6037 0.56275 0.52166 0.0
O199 O 0.60058 0.6263 0.54909 0.0
H200 H 0.42546 0.64887 0.57493 0.0
H201 H 0.34618 0.64758 0.60284 0.0
H202 H 0.41359 0.66034 0.72778 0.0
H203 H 0.49341 0.66181 0.69991 0.0
H204 H 0.64077 0.48755 0.53177 0.0
H205 H 0.71718 0.47793 0.50746 0.0
H206 H 0.63748 0.42122 0.38985 0.0
H207 H 0.56112 0.43156 0.41418 0.0
Tb208 Tb 0.02171 0.57448 1.00356 0.0
Tb209 Tb 0.02128 0.50677 0.05703 0.0
C210 C 0.99594 0.62634 0.96302 0.0
C211 C 0.95588 0.64533 0.96738 0.0
C212 C 0.9051 0.62065 0.95899 0.0
C213 C 0.86736 0.63855 0.96275 0.0
C214 C 0.87918 0.68158 0.97525 0.0
C215 C 0.92999 0.7063 0.98416 0.0
C216 C 0.968 0.68832 0.98017 0.0
C217 C 0.10801 0.58935 0.04733 0.0
C218 C 0.98436 0.5783 0.0969 0.0
C219 C 0.04854 0.45547 0.09777 0.0
C220 C 0.08749 0.43516 0.09425 0.0
C221 C 0.13434 0.45623 0.07898 0.0
C222 C 0.17311 0.43888 0.0811 0.0
C223 C 0.16605 0.40029 0.0989 0.0
C224 C 0.11789 0.37802 0.11142 0.0
C225 C 0.07907 0.39532 0.10906 0.0
C226 C 0.93417 0.49196 1.01243 0.0
C227 C 0.06903 0.50866 0.96771 0.0
O228 O 0.98119 0.58587 0.95256 0.0
O229 O 0.03246 0.63763 0.99218 0.0
O230 O 0.06435 0.57208 0.05887 0.0
O231 O 0.10371 0.5993 1.00943 0.0
O232 O 0.98162 0.58882 0.05789 0.0
O233 O 1.00112 0.54683 0.10484 0.0
O234 O 0.06497 0.49625 0.10653 0.0
O235 O 0.01127 0.44382 0.06928 0.0
O236 O 0.97817 0.50907 1.00111 0.0
O237 O 0.93841 0.48075 0.0499 0.0
O238 O 0.0675 0.49658 1.00618 0.0
O239 O 0.04966 0.53805 0.95783 0.0
H240 H 0.89421 0.58747 0.94898 0.0
H241 H 0.82886 0.61869 0.95454 0.0
H242 H 0.94039 0.7395 0.99405 0.0
H243 H 0.00688 0.70803 0.98691 0.0
H244 H 0.14159 0.48679 0.06676 0.0
H245 H 0.20912 0.45643 0.06996 0.0
H246 H 0.11077 0.34833 0.12532 0.0
H247 H 0.04303 0.37836 0.12057 0.0
C248 C 0.26744 0.20423 0.35965 0.0
C249 C 0.28789 0.17699 0.33798 0.0
H250 H 0.22568 0.21277 0.4116 0.0
C251 C 0.28581 0.1387 0.35363 0.0
H252 H 0.2684 0.23378 0.34751 0.0
C253 C 0.26215 0.12701 0.39004 0.0
C254 C 0.23958 0.15317 0.41094 0.0
H255 H 0.30188 0.11759 0.33736 0.0
H256 H 0.26076 0.09712 0.40159 0.0
C257 C 0.24308 0.19227 0.396 0.0
C258 C 0.20044 0.8253 0.83663 0.0
C259 C 0.17265 0.78927 0.85582 0.0
H260 H 0.25688 0.88662 0.84503 0.0
C261 C 0.17731 0.78879 0.899 0.0
H262 H 0.19748 0.82602 0.8031 0.0
C263 C 0.21036 0.82333 0.92285 0.0
C264 C 0.24043 0.8586 0.90384 0.0
H265 H 0.15569 0.76145 0.91427 0.0
H266 H 0.21278 0.82218 0.95631 0.0
C267 C 0.23437 0.85979 0.86051 0.0
C268 C 0.66701 0.50486 0.67804 0.0
C269 C 0.63475 0.48181 0.70678 0.0
H270 H 0.67524 0.54376 0.62642 0.0
C271 C 0.58343 0.47827 0.70242 0.0
H272 H 0.70655 0.50806 0.68003 0.0
C273 C 0.56518 0.4976 0.67067 0.0
C274 C 0.59796 0.52188 0.64304 0.0
H275 H 0.55724 0.46047 0.72357 0.0
H276 H 0.52574 0.49482 0.6687 0.0
C277 C 0.64902 0.52516 0.64712 0.0
C278 C 0.98165 0.62724 0.20814 0.0
C279 C 0.96585 0.6622 0.20143 0.0
H280 H 0.99899 0.57377 0.18177 0.0
C281 C 0.95403 0.66798 0.15965 0.0
H282 H 0.99084 0.62107 0.23951 0.0
C283 C 0.95863 0.64047 0.12612 0.0
C284 C 0.97483 0.6057 0.13287 0.0
H285 H 0.94139 0.69407 0.15269 0.0
H286 H 0.94992 0.64685 0.09471 0.0
C287 C 0.98597 0.59964 0.1747 0.0
C288 C 0.38556 0.17064 0.13802 0.0
C289 C 0.41541 0.20098 0.16843 0.0
H290 H 0.37214 0.11041 0.10563 0.0
C291 C 0.45214 0.19187 0.19309 0.0
H292 H 0.35685 0.17719 0.11888 0.0
C293 C 0.46037 0.15332 0.18617 0.0
C294 C 0.43189 0.12348 0.15453 0.0
H295 H 0.4746 0.21462 0.21747 0.0
H296 H 0.49005 0.14739 0.2046 0.0
C297 C 0.39379 0.13222 0.13101 0.0
C298 C 0.99346 0.88155 0.69805 0.0
C299 C 0.04156 0.8816 0.71079 0.0
H300 H 0.95026 0.91005 0.66214 0.0
C301 C 0.0841 0.91011 0.69499 0.0
H302 H 0.96009 0.85965 0.70954 0.0
C303 C 0.07864 0.93899 0.66761 0.0
C304 C 0.03056 0.9399 0.65593 0.0
H305 H 0.12164 0.91014 0.70378 0.0
H306 H 0.112 0.96071 0.65596 0.0
C307 C 0.98799 0.91058 0.671 0.0
C308 C 0.80883 0.41548 0.96111 0.0
C309 C 0.80252 0.43508 0.9248 0.0
H310 H 0.85448 0.41803 0.01731 0.0
C311 C 0.84042 0.47315 0.91783 0.0
H312 H 0.7812 0.38588 0.96749 0.0
C313 C 0.8828 0.49097 0.94588 0.0
C314 C 0.88854 0.47228 0.98267 0.0
H315 H 0.8377 0.48933 0.89027 0.0
H316 H 0.91101 0.51967 0.93865 0.0
C317 C 0.85095 0.43404 0.98981 0.0
C318 C 0.72887 0.69376 0.49103 0.0
C319 C 0.7481 0.67299 0.46041 0.0
H320 H 0.67562 0.68831 0.5371 0.0
C321 C 0.72874 0.62876 0.45458 0.0
H322 H 0.74308 0.72777 0.49655 0.0
C323 C 0.68987 0.60591 0.47817 0.0
C324 C 0.66972 0.62697 0.5079 0.0
H325 H 0.74295 0.61186 0.43133 0.0
H326 H 0.67464 0.57196 0.47216 0.0
C327 C 0.69025 0.67105 0.51451 0.0
C328 C 0.24406 0.32959 0.12244 0.0
C329 C 0.29076 0.35961 0.13616 0.0
H330 H 0.16859 0.31867 0.09779 0.0
C331 C 0.29704 0.40255 0.13484 0.0
H332 H 0.23837 0.29622 0.12298 0.0
C333 C 0.25702 0.41546 0.12168 0.0
C334 C 0.20975 0.38574 0.10856 0.0
H335 H 0.33237 0.42637 0.14593 0.0
H336 H 0.2628 0.44893 0.12358 0.0
C337 C 0.2041 0.34253 0.10827 0.0
C338 C 0.62144 0.16162 0.99424 0.0
C339 C 0.61017 0.19842 0.98644 0.0
H340 H 0.59772 0.10083 0.01891 0.0
C341 C 0.56335 0.20064 0.99783 0.0
H342 H 0.6569 0.15847 0.98591 0.0
C343 C 0.52904 0.16713 0.01656 0.0
C344 C 0.54083 0.1307 0.02478 0.0
H345 H 0.55303 0.22817 0.99203 0.0
H346 H 0.49329 0.16981 0.02471 0.0
C347 C 0.58748 0.12845 1.01332 0.0
C348 C 0.99862 0.86686 0.45213 0.0
C349 C 0.96236 0.86091 0.41889 0.0
H350 H 0.03991 0.90602 0.50574 0.0
C351 C 0.93668 0.89062 0.41742 0.0
H352 H 0.01735 0.84378 0.45586 0.0
C353 C 0.9488 0.92617 0.44686 0.0
C354 C 0.98628 0.93262 0.47934 0.0
H355 H 0.90704 0.88631 0.39335 0.0
H356 H 0.92988 0.94917 0.44347 0.0
C357 C 0.01067 0.90218 0.48141 0.0
C358 C 0.25523 0.68024 0.68508 0.0
C359 C 0.2357 0.65504 0.71761 0.0
H360 H 0.31459 0.69967 0.64367 0.0
C361 C 0.26166 0.62924 0.73303 0.0
H362 H 0.23631 0.70072 0.67277 0.0
C363 C 0.30639 0.62883 0.71656 0.0
C364 C 0.326 0.65406 0.68419 0.0
H365 H 0.24775 0.60963 0.75822 0.0
H366 H 0.32556 0.60859 0.72902 0.0
C367 C 0.2999 0.67959 0.66838 0.0
C368 C 0.74751 0.82072 0.78386 0.0
C369 C 0.71993 0.83961 0.80858 0.0
H370 H 0.79796 0.82747 0.73517 0.0
C371 C 0.72319 0.88149 0.80329 0.0
H372 H 0.74629 0.78869 0.78786 0.0
C373 C 0.75271 0.90375 0.77305 0.0
C374 C 0.77932 0.88444 0.74743 0.0
H375 H 0.70152 0.89655 0.82136 0.0
H376 H 0.75293 0.93543 0.76857 0.0
C377 C 0.77718 0.84297 0.75382 0.0
C378 C 0.79511 0.23263 0.33074 0.0
C379 C 0.82971 0.26846 0.31602 0.0
H380 H 0.72611 0.18189 0.31886 0.0
C381 C 0.81973 0.28129 0.27708 0.0
H382 H 0.8014 0.22256 0.36115 0.0
C383 C 0.77746 0.25708 0.25204 0.0
C384 C 0.74356 0.22007 0.26592 0.0
H385 H 0.8457 0.30902 0.26519 0.0
H386 H 0.77316 0.26651 0.22104 0.0
C387 C 0.75201 0.20916 0.3063 0.0
C388 C 0.50281 0.67738 0.43261 0.0
C389 C 0.46361 0.6641 0.40076 0.0
H390 H 0.54044 0.66129 0.48549 0.0
C391 C 0.4315 0.62167 0.3997 0.0
H392 H 0.52858 0.70947 0.43493 0.0
C393 C 0.43825 0.59386 0.42903 0.0
C394 C 0.47741 0.60718 0.46081 0.0
H395 H 0.4008 0.60975 0.37602 0.0
H396 H 0.41274 0.56166 0.42661 0.0
C397 C 0.50955 0.64954 0.46193 0.0
C398 C 0.10901 0.47492 0.86209 0.0
C399 C 0.12512 0.44085 0.87155 0.0
H400 H 0.07814 0.52231 0.88405 0.0
C401 C 0.12466 0.4306 0.91324 0.0
H402 H 0.10823 0.48344 0.83029 0.0
C403 C 0.10836 0.45349 0.9444 0.0
C404 C 0.0907 0.48683 0.93483 0.0
H405 H 0.13694 0.40475 0.92182 0.0
H406 H 0.10864 0.44433 0.97599 0.0
C407 C 0.09163 0.49725 0.89307 0.0
C408 C 0.61131 0.93427 1.00158 0.0
C409 C 0.59374 0.92498 0.95965 0.0
H410 H 0.60038 0.95879 0.06153 0.0
C411 C 0.54741 0.92904 0.94674 0.0
H412 H 0.64628 0.93034 1.01249 0.0
C413 C 0.52095 0.94531 0.97496 0.0
C414 C 0.54067 0.95736 0.01621 0.0
H415 H 0.53304 0.92179 0.91451 0.0
H416 H 0.48703 0.95094 0.96393 0.0
C417 C 0.58492 0.95021 0.02965 0.0
C418 C 0.99554 0.18524 0.50062 0.0
C419 C 0.96977 0.18178 0.46187 0.0
H420 H 0.01882 0.15286 0.54807 0.0
C421 C 0.94333 0.14158 0.44228 0.0
H422 H 0.01603 0.21587 0.51627 0.0
C423 C 0.94376 0.10516 0.46106 0.0
C424 C 0.97201 0.10899 0.49876 0.0
H425 H 0.92256 0.13841 0.41254 0.0
H426 H 0.92403 0.07439 0.44543 0.0
C427 C 0.99712 0.14922 0.51866 0.0
C428 C 0.18982 0.63231 0.14734 0.0
C429 C 0.22011 0.67222 0.13677 0.0
H430 H 0.13036 0.57469 0.12719 0.0
C431 C 0.21494 0.68338 0.09593 0.0
H432 H 0.19276 0.62281 0.17856 0.0
C433 C 0.18034 0.6555 0.0664 0.0
C434 C 0.14924 0.61601 0.07713 0.0
H435 H 0.23755 0.71386 0.08666 0.0
H436 H 0.17679 0.66561 0.03552 0.0
C437 C 0.15432 0.60466 0.1179 0.0
C438 C 0.34995 0.4357 0.65126 0.0
C439 C 0.32473 0.46035 0.6716 0.0
H440 H 0.4037 0.43282 0.60672 0.0
C441 C 0.3355 0.50229 0.66158 0.0
H442 H 0.34226 0.40313 0.65797 0.0
C443 C 0.37071 0.51932 0.63245 0.0
C444 C 0.39575 0.49477 0.61167 0.0
H445 H 0.31708 0.52227 0.67674 0.0
H446 H 0.37868 0.55213 0.62658 0.0
C447 C 0.38466 0.45256 0.62139 0.0
C448 C 0.74907 0.68988 0.97895 0.0
C449 C 0.75533 0.72754 0.9602 0.0
H450 H 0.78405 0.647 1.00088 0.0
C451 C 0.80394 0.7534 0.95243 0.0
H452 H 0.71193 0.66972 0.98564 0.0
C453 C 0.84516 0.73979 0.95981 0.0
C454 C 0.83837 0.70044 0.97574 0.0
H455 H 0.80955 0.78253 0.93769 0.0
H456 H 0.88153 0.75874 0.95035 0.0
C457 C 0.79032 0.6768 0.98731 0.0
C458 C 0.40145 0.89248 0.20747 0.0
C459 C 0.43595 0.87117 0.21733 0.0
H460 H 0.38819 0.94524 0.17971 0.0
C461 C 0.48448 0.88765 0.20314 0.0
H462 H 0.36351 0.88089 0.21752 0.0
C463 C 0.49815 0.92419 0.18078 0.0
C464 C 0.46401 0.94581 0.17148 0.0
H465 H 0.51178 0.87191 0.20869 0.0
H466 H 0.53616 0.93588 0.17086 0.0
C467 C 0.41522 0.9292 0.18512 0.0
C468 C 0.10397 0.16317 0.69941 0.0
C469 C 0.0781 0.19135 0.71064 0.0
H470 H 0.10249 0.10679 0.66292 0.0
C471 C 0.0292 0.18284 0.69262 0.0
H472 H 0.14188 0.16882 0.71246 0.0
C473 C 0.00664 0.14723 0.66469 0.0
C474 C 0.03218 0.1189 0.65342 0.0
H475 H 0.00779 0.20329 0.70078 0.0
H476 H 0.96857 0.14171 0.65213 0.0
C477 C 0.08145 0.12754 0.67099 0.0
C478 C 0.78428 0.43433 0.37788 0.0
C479 C 0.81457 0.42083 0.40571 0.0
H480 H 0.72034 0.45457 0.36902 0.0
C481 C 0.8024 0.41763 0.44739 0.0
H482 H 0.79266 0.43729 0.34554 0.0
C483 C 0.76038 0.42699 0.46076 0.0
C484 C 0.72962 0.44005 0.43285 0.0
H485 H 0.82463 0.40693 0.46954 0.0
H486 H 0.75131 0.4229 0.49282 0.0
C487 C 0.74251 0.44397 0.3913 0.0
loop_
_geom_bond_atom_site_label_1
_geom_bond_atom_site_label_2
_geom_bond_distance
_geom_bond_site_symmetry_2
_ccdc_geom_bond_type
O0 Cd1 2.300 . S
O0 C7 1.275 . S
Cd1 O0 2.300 . S
Cd1 O9 2.381 . S
Cd1 O10 2.378 . S
O2 Cd3 2.385 . S
O2 C7 1.255 . S
Cd3 O2 2.385 . S
Cd3 O4 2.317 . S
O4 Cd3 2.317 . S
O4 C5 1.232 . S
C5 O4 1.232 . S
C5 O6 1.218 . S
O6 C5 1.218 . S
C7 O0 1.275 . S
C7 O2 1.255 . S
C8 O9 1.258 . S
C8 O10 1.256 . S
O9 Cd1 2.381 . S
O9 C8 1.258 . S
O10 Cd1 2.378 . S
O10 C8 1.256 . S
O11 Cd12 2.300 . S
O11 C18 1.275 . S
Cd12 O11 2.300 . S
Cd12 O20 2.381 . S
Cd12 O21 2.378 . S
O13 Cd14 2.385 1_455 S
O13 C18 1.255 . S
Cd14 O13 2.385 1_655 S
Cd14 O15 2.317 1_655 S
O15 Cd14 2.317 1_455 S
O15 C16 1.232 . S
C16 O15 1.232 . S
C16 O17 1.218 1_455 S
O17 C16 1.218 1_655 S
C18 O11 1.275 . S
C18 O13 1.255 . S
C19 O20 1.258 . S
C19 O21 1.256 . S
O20 Cd12 2.381 . S
O20 C19 1.258 . S
O21 Cd12 2.378 . S
O21 C19 1.256 . S
O22 Cd23 2.300 . S
O22 C29 1.275 . S
Cd23 O22 2.300 . S
Cd23 O31 2.381 . S
Cd23 O32 2.378 . S
O24 Cd25 2.385 . S
O24 C29 1.255 . S
Cd25 O24 2.385 . S
Cd25 O26 2.317 . S
O26 Cd25 2.317 . S
O26 C27 1.232 . S
C27 O26 1.232 . S
C27 O28 1.218 . S
O28 C27 1.218 . S
C29 O22 1.275 . S
C29 O24 1.255 . S
C30 O31 1.258 . S
C30 O32 1.256 . S
O31 Cd23 2.381 . S
O31 C30 1.258 . S
O32 Cd23 2.378 . S
O32 C30 1.256 . S
O33 Cd34 2.300 . S
O33 C40 1.275 . S
Cd34 O33 2.300 . S
Cd34 O42 2.381 . S
Cd34 O43 2.378 . S
O35 Cd36 2.385 . S
O35 C40 1.255 . S
Cd36 O35 2.385 . S
Cd36 O37 2.317 . S
O37 Cd36 2.317 . S
O37 C38 1.232 . S
C38 O37 1.232 . S
C38 O39 1.218 . S
O39 C38 1.218 . S
C40 O33 1.275 . S
C40 O35 1.255 . S
C41 O42 1.258 . S
C41 O43 1.256 . S
O42 Cd34 2.381 . S
O42 C41 1.258 . S
O43 Cd34 2.378 . S
O43 C41 1.256 . S
O44 Cd45 2.300 . S
O44 C51 1.275 . S
Cd45 O44 2.300 . S
Cd45 O53 2.381 . S
Cd45 O54 2.378 . S
O46 Cd47 2.385 . S
O46 C51 1.255 . S
Cd47 O46 2.385 . S
Cd47 O48 2.317 . S
O48 Cd47 2.317 . S
O48 C49 1.232 . S
C49 O48 1.232 . S
C49 O50 1.218 . S
O50 C49 1.218 . S
C51 O44 1.275 . S
C51 O46 1.255 . S
C52 O53 1.258 . S
C52 O54 1.256 . S
O53 Cd45 2.381 . S
O53 C52 1.258 . S
O54 Cd45 2.378 . S
O54 C52 1.256 . S
O55 Cd56 2.300 . S
O55 C62 1.275 . S
Cd56 O55 2.300 . S
Cd56 O64 2.381 . S
Cd56 O65 2.378 1_655 S
O57 Cd58 2.385 . S
O57 C62 1.255 . S
Cd58 O57 2.385 . S
Cd58 O59 2.317 . S
O59 Cd58 2.317 . S
O59 C60 1.232 . S
C60 O59 1.232 . S
C60 O61 1.218 . S
O61 C60 1.218 . S
C62 O55 1.275 . S
C62 O57 1.255 . S
C63 O64 1.258 1_455 S
C63 O65 1.256 . S
O64 Cd56 2.381 . S
O64 C63 1.258 1_655 S
O65 Cd56 2.378 1_455 S
O65 C63 1.256 . S
O66 Cd67 2.300 . S
O66 C73 1.275 . S
Cd67 O66 2.300 . S
Cd67 O75 2.381 . S
Cd67 O76 2.378 . S
O68 Cd69 2.385 . S
O68 C73 1.255 . S
Cd69 O68 2.385 . S
Cd69 O70 2.317 . S
O70 Cd69 2.317 . S
O70 C71 1.232 . S
C71 O70 1.232 . S
C71 O72 1.218 . S
O72 C71 1.218 . S
C73 O66 1.275 . S
C73 O68 1.255 . S
C74 O75 1.258 . S
C74 O76 1.256 . S
O75 Cd67 2.381 . S
O75 C74 1.258 . S
O76 Cd67 2.378 . S
O76 C74 1.256 . S
O77 Cd78 2.300 . S
O77 C84 1.275 . S
Cd78 O77 2.300 . S
Cd78 O86 2.381 . S
Cd78 O87 2.378 . S
O79 Cd80 2.385 . S
O79 C84 1.255 . S
Cd80 O79 2.385 . S
Cd80 O81 2.317 . S
O81 Cd80 2.317 . S
O81 C82 1.232 . S
C82 O81 1.232 . S
C82 O83 1.218 . S
O83 C82 1.218 . S
C84 O77 1.275 . S
C84 O79 1.255 . S
C85 O86 1.258 . S
C85 O87 1.256 . S
O86 Cd78 2.381 . S
O86 C85 1.258 . S
O87 Cd78 2.378 . S
O87 C85 1.256 . S
Tb88 C90 2.809 1_545 S
Tb88 O108 2.484 1_545 S
Tb88 O109 2.440 1_545 S
Tb88 O110 2.658 1_655 S
Tb88 O111 2.409 . S
Tb88 O112 2.378 1_645 S
Tb88 O116 2.325 1_545 S
Tb88 O119 2.341 . S
Tb89 C99 2.809 . S
Tb89 O110 2.325 . S
Tb89 O113 2.341 1_545 S
Tb89 O114 2.484 . S
Tb89 O115 2.440 . S
Tb89 O116 2.658 1_445 S
Tb89 O117 2.409 1_545 S
Tb89 O118 2.378 . S
C90 Tb88 2.809 1_565 S
C90 C91 1.514 . S
C90 O108 1.248 . S
C90 O109 1.266 . S
C91 C90 1.514 . S
C91 C92 1.359 . S
C91 C96 1.348 . S
C92 C91 1.359 . S
C92 C93 1.380 . S
C92 H120 0.929 . S
C93 C92 1.380 . S
C93 C94 1.347 . S
C93 H121 0.931 . S
C94 C93 1.347 . S
C94 C95 1.369 . S
C95 C94 1.369 . S
C95 C96 1.408 . S
C95 H122 0.930 . S
C96 C91 1.348 . S
C96 C95 1.408 . S
C96 H123 0.930 . S
C97 O110 1.281 . S
C97 O111 1.254 1_455 S
C98 O112 1.236 . S
C98 O113 1.266 . S
C99 Tb89 2.809 . S
C99 C100 1.514 . S
C99 O114 1.248 . S
C99 O115 1.266 . S
C100 C99 1.514 . S
C100 C101 1.359 . S
C100 C105 1.348 . S
C101 C100 1.359 . S
C101 C102 1.380 . S
C101 H124 0.929 . S
C102 C101 1.380 . S
C102 C103 1.347 . S
C102 H125 0.931 . S
C103 C102 1.347 . S
C103 C104 1.369 . S
C104 C103 1.369 . S
C104 C105 1.408 . S
C104 H126 0.930 . S
C105 C100 1.348 . S
C105 C104 1.408 . S
C105 H127 0.930 . S
C106 O116 1.281 . S
C106 O117 1.254 1_655 S
C107 O118 1.236 1_655 S
C107 O119 1.266 . S
O108 Tb88 2.484 1_565 S
O108 C90 1.248 . S
O109 Tb88 2.440 1_565 S
O109 C90 1.266 . S
O110 Tb88 2.658 1_455 S
O110 Tb89 2.325 . S
O110 C97 1.281 . S
O111 Tb88 2.409 . S
O111 C97 1.254 1_655 S
O112 Tb88 2.378 1_465 S
O112 C98 1.236 . S
O113 Tb89 2.341 1_565 S
O113 C98 1.266 . S
O114 Tb89 2.484 . S
O114 C99 1.248 . S
O115 Tb89 2.440 . S
O115 C99 1.266 . S
O116 Tb88 2.325 1_565 S
O116 Tb89 2.658 1_665 S
O116 C106 1.281 . S
O117 Tb89 2.409 1_565 S
O117 C106 1.254 1_455 S
O118 Tb89 2.378 . S
O118 C107 1.236 1_455 S
O119 Tb88 2.341 . S
O119 C107 1.266 . S
H120 C92 0.929 . S
H121 C93 0.931 . S
H122 C95 0.930 . S
H123 C96 0.930 . S
H124 C101 0.929 . S
H125 C102 0.931 . S
H126 C104 0.930 . S
H127 C105 0.930 . S
Tb128 C130 2.809 . S
Tb128 O148 2.484 . S
Tb128 O149 2.440 . S
Tb128 O150 2.658 1_545 S
Tb128 O151 2.409 1_545 S
Tb128 O152 2.378 . S
Tb128 O156 2.325 . S
Tb128 O159 2.341 . S
Tb129 C139 2.809 1_544 S
Tb129 O150 2.324 1_545 S
Tb129 O153 2.341 . S
Tb129 O154 2.484 1_545 S
Tb129 O155 2.440 1_554 S
Tb129 O156 2.658 . S
Tb129 O157 2.409 1_554 S
Tb129 O158 2.378 1_554 S
C130 Tb128 2.809 . S
C130 C131 1.514 . S
C130 O148 1.248 . S
C130 O149 1.266 . S
C131 C130 1.514 . S
C131 C132 1.359 . S
C131 C136 1.348 . S
C132 C131 1.359 . S
C132 C133 1.380 . S
C132 H160 0.929 . S
C133 C132 1.380 . S
C133 C134 1.347 . S
C133 H161 0.931 . S
C134 C133 1.347 . S
C134 C135 1.369 . S
C135 C134 1.369 . S
C135 C136 1.408 . S
C135 H162 0.930 . S
C136 C131 1.348 . S
C136 C135 1.408 . S
C136 H163 0.930 . S
C137 O150 1.281 . S
C137 O151 1.254 . S
C138 O152 1.236 . S
C138 O153 1.266 . S
C139 Tb129 2.809 1_566 S
C139 C140 1.514 . S
C139 O154 1.248 1_556 S
C139 O155 1.266 1_565 S
C140 C139 1.514 . S
C140 C141 1.359 . S
C140 C145 1.348 . S
C141 C140 1.359 . S
C141 C142 1.380 . S
C141 H164 0.929 . S
C142 C141 1.380 . S
C142 C143 1.347 . S
C142 H165 0.931 . S
C143 C142 1.347 . S
C143 C144 1.369 . S
C144 C143 1.369 . S
C144 C145 1.408 . S
C144 H166 0.930 . S
C145 C140 1.348 . S
C145 C144 1.408 . S
C145 H167 0.930 . S
C146 O156 1.281 . S
C146 O157 1.254 1_554 S
C147 O158 1.236 1_564 S
C147 O159 1.266 1_565 S
O148 Tb128 2.484 . S
O148 C130 1.248 . S
O149 Tb128 2.440 . S
O149 C130 1.266 . S
O150 Tb128 2.658 1_565 S
O150 Tb129 2.324 1_565 S
O150 C137 1.281 . S
O151 Tb128 2.409 1_565 S
O151 C137 1.254 . S
O152 Tb128 2.378 . S
O152 C138 1.236 . S
O153 Tb129 2.341 . S
O153 C138 1.266 . S
O154 Tb129 2.484 1_565 S
O154 C139 1.248 1_554 S
O155 Tb129 2.440 1_556 S
O155 C139 1.266 1_545 S
O156 Tb128 2.325 . S
O156 Tb129 2.658 . S
O156 C146 1.281 . S
O157 Tb129 2.409 1_556 S
O157 C146 1.254 1_556 S
O158 Tb129 2.378 1_556 S
O158 C147 1.236 1_546 S
O159 Tb128 2.341 . S
O159 C147 1.266 1_545 S
H160 C132 0.929 . S
H161 C133 0.931 . S
H162 C135 0.930 . S
H163 C136 0.930 . S
H164 C141 0.929 . S
H165 C142 0.931 . S
H166 C144 0.930 . S
H167 C145 0.930 . S
Tb168 C170 2.809 . S
Tb168 O188 2.484 . S
Tb168 O189 2.440 . S
Tb168 O190 2.658 . S
Tb168 O191 2.409 . S
Tb168 O192 2.378 . S
Tb168 O196 2.325 . S
Tb168 O199 2.341 . S
Tb169 C179 2.809 . S
Tb169 O190 2.325 . S
Tb169 O193 2.341 . S
Tb169 O194 2.484 . S
Tb169 O195 2.440 . S
Tb169 O196 2.658 . S
Tb169 O197 2.409 . S
Tb169 O198 2.378 . S
C170 Tb168 2.809 . S
C170 C171 1.514 . S
C170 O188 1.248 . S
C170 O189 1.266 . S
C171 C170 1.514 . S
C171 C172 1.359 . S
C171 C176 1.348 . S
C172 C171 1.359 . S
C172 C173 1.380 . S
C172 H200 0.929 . S
C173 C172 1.380 . S
C173 C174 1.347 . S
C173 H201 0.931 . S
C174 C173 1.347 . S
C174 C175 1.369 . S
C175 C174 1.369 . S
C175 C176 1.408 . S
C175 H202 0.930 . S
C176 C171 1.348 . S
C176 C175 1.408 . S
C176 H203 0.930 . S
C177 O190 1.281 . S
C177 O191 1.254 . S
C178 O192 1.236 . S
C178 O193 1.266 . S
C179 Tb169 2.809 . S
C179 C180 1.514 . S
C179 O194 1.248 . S
C179 O195 1.266 . S
C180 C179 1.514 . S
C180 C181 1.359 . S
C180 C185 1.348 . S
C181 C180 1.359 . S
C181 C182 1.380 . S
C181 H204 0.929 . S
C182 C181 1.380 . S
C182 C183 1.347 . S
C182 H205 0.931 . S
C183 C182 1.347 . S
C183 C184 1.369 . S
C184 C183 1.369 . S
C184 C185 1.408 . S
C184 H206 0.930 . S
C185 C180 1.348 . S
C185 C184 1.408 . S
C185 H207 0.930 . S
C186 O196 1.281 . S
C186 O197 1.254 . S
C187 O198 1.236 . S
C187 O199 1.266 . S
O188 Tb168 2.484 . S
O188 C170 1.248 . S
O189 Tb168 2.440 . S
O189 C170 1.266 . S
O190 Tb168 2.658 . S
O190 Tb169 2.325 . S
O190 C177 1.281 . S
O191 Tb168 2.409 . S
O191 C177 1.254 . S
O192 Tb168 2.378 . S
O192 C178 1.236 . S
O193 Tb169 2.341 . S
O193 C178 1.266 . S
O194 Tb169 2.484 . S
O194 C179 1.248 . S
O195 Tb169 2.440 . S
O195 C179 1.266 . S
O196 Tb168 2.325 . S
O196 Tb169 2.658 . S
O196 C186 1.281 . S
O197 Tb169 2.409 . S
O197 C186 1.254 . S
O198 Tb169 2.378 . S
O198 C187 1.236 . S
O199 Tb168 2.341 . S
O199 C187 1.266 . S
H200 C172 0.929 . S
H201 C173 0.931 . S
H202 C175 0.930 . S
H203 C176 0.930 . S
H204 C181 0.929 . S
H205 C182 0.931 . S
H206 C184 0.930 . S
H207 C185 0.930 . S
Tb208 C210 2.809 1_455 S
Tb208 O228 2.484 1_455 S
Tb208 O229 2.440 . S
Tb208 O230 2.658 1_556 S
Tb208 O231 2.409 1_556 S
Tb208 O232 2.378 1_556 S
Tb208 O236 2.325 1_455 S
Tb208 O239 2.341 . S
Tb209 C219 2.809 . S
Tb209 O230 2.325 . S
Tb209 O233 2.341 1_455 S
Tb209 O234 2.484 . S
Tb209 O235 2.440 . S
Tb209 O236 2.658 1_454 S
Tb209 O237 2.409 1_455 S
Tb209 O238 2.378 1_554 S
C210 Tb208 2.809 1_655 S
C210 C211 1.514 . S
C210 O228 1.248 . S
C210 O229 1.266 1_655 S
C211 C210 1.514 . S
C211 C212 1.359 . S
C211 C216 1.348 . S
C212 C211 1.359 . S
C212 C213 1.380 . S
C212 H240 0.929 . S
C213 C212 1.380 . S
C213 C214 1.347 . S
C213 H241 0.931 . S
C214 C213 1.347 . S
C214 C215 1.369 . S
C215 C214 1.369 . S
C215 C216 1.408 . S
C215 H242 0.930 . S
C216 C211 1.348 . S
C216 C215 1.408 . S
C216 H243 0.930 1_655 S
C217 O230 1.281 . S
C217 O231 1.254 . S
C218 O232 1.236 1_655 S
C218 O233 1.266 . S
C219 Tb209 2.809 . S
C219 C220 1.514 . S
C219 O234 1.248 . S
C219 O235 1.266 . S
C220 C219 1.514 . S
C220 C221 1.359 . S
C220 C225 1.348 . S
C221 C220 1.359 . S
C221 C222 1.380 . S
C221 H244 0.929 . S
C222 C221 1.380 . S
C222 C223 1.347 . S
C222 H245 0.931 . S
C223 C222 1.347 . S
C223 C224 1.369 . S
C224 C223 1.369 . S
C224 C225 1.408 . S
C224 H246 0.930 . S
C225 C220 1.348 . S
C225 C224 1.408 . S
C225 H247 0.930 . S
C226 O236 1.281 . S
C226 O237 1.254 1_556 S
C227 O238 1.236 . S
C227 O239 1.266 . S
O228 Tb208 2.484 1_655 S
O228 C210 1.248 . S
O229 Tb208 2.440 . S
O229 C210 1.266 1_455 S
O230 Tb208 2.658 1_554 S
O230 Tb209 2.325 . S
O230 C217 1.281 . S
O231 Tb208 2.409 1_554 S
O231 C217 1.254 . S
O232 Tb208 2.378 1_554 S
O232 C218 1.236 1_455 S
O233 Tb209 2.341 1_655 S
O233 C218 1.266 . S
O234 Tb209 2.484 . S
O234 C219 1.248 . S
O235 Tb209 2.440 . S
O235 C219 1.266 . S
O236 Tb208 2.325 1_655 S
O236 Tb209 2.658 1_656 S
O236 C226 1.281 . S
O237 Tb209 2.409 1_655 S
O237 C226 1.254 1_554 S
O238 Tb209 2.378 1_556 S
O238 C227 1.236 . S
O239 Tb208 2.341 . S
O239 C227 1.266 . S
H240 C212 0.929 . S
H241 C213 0.931 . S
H242 C215 0.930 . S
H243 C216 0.930 1_455 S
H244 C221 0.929 . S
H245 C222 0.931 . S
H246 C224 0.930 . S
H247 C225 0.930 . S
C248 C249 1.387 . S
C248 H252 0.950 . S
C248 C257 1.390 . S
C249 C248 1.387 . S
C249 C251 1.387 . S
H250 C257 0.950 . S
C251 C249 1.387 . S
C251 C253 1.390 . S
C251 H255 0.950 . S
H252 C248 0.950 . S
C253 C251 1.390 . S
C253 C254 1.387 . S
C253 H256 0.950 . S
C254 C253 1.387 . S
C254 C257 1.387 . S
H255 C251 0.950 . S
H256 C253 0.950 . S
C257 C248 1.390 . S
C257 H250 0.950 . S
C257 C254 1.387 . S
C258 C259 1.387 . S
C258 H262 0.950 . S
C258 C267 1.390 . S
C259 C258 1.387 . S
C259 C261 1.387 . S
H260 C267 0.950 . S
C261 C259 1.387 . S
C261 C263 1.390 . S
C261 H265 0.950 . S
H262 C258 0.950 . S
C263 C261 1.390 . S
C263 C264 1.387 . S
C263 H266 0.950 . S
C264 C263 1.387 . S
C264 C267 1.387 . S
H265 C261 0.950 . S
H266 C263 0.950 . S
C267 C258 1.390 . S
C267 H260 0.950 . S
C267 C264 1.387 . S
C268 C269 1.387 . S
C268 H272 0.950 . S
C268 C277 1.390 . S
C269 C268 1.387 . S
C269 C271 1.387 . S
H270 C277 0.950 . S
C271 C269 1.387 . S
C271 C273 1.390 . S
C271 H275 0.950 . S
H272 C268 0.950 . S
C273 C271 1.390 . S
C273 C274 1.387 . S
C273 H276 0.950 . S
C274 C273 1.387 . S
C274 C277 1.387 . S
H275 C271 0.950 . S
H276 C273 0.950 . S
C277 C268 1.390 . S
C277 H270 0.950 . S
C277 C274 1.387 . S
C278 C279 1.387 . S
C278 H282 0.950 . S
C278 C287 1.390 . S
C279 C278 1.387 . S
C279 C281 1.387 . S
H280 C287 0.950 . S
C281 C279 1.387 . S
C281 C283 1.390 . S
C281 H285 0.950 . S
H282 C278 0.950 . S
C283 C281 1.390 . S
C283 C284 1.387 . S
C283 H286 0.950 . S
C284 C283 1.387 . S
C284 C287 1.387 . S
H285 C281 0.950 . S
H286 C283 0.950 . S
C287 C278 1.390 . S
C287 H280 0.950 . S
C287 C284 1.387 . S
C288 C289 1.387 . S
C288 H292 0.950 . S
C288 C297 1.390 . S
C289 C288 1.387 . S
C289 C291 1.387 . S
H290 C297 0.950 . S
C291 C289 1.387 . S
C291 C293 1.390 . S
C291 H295 0.950 . S
H292 C288 0.950 . S
C293 C291 1.390 . S
C293 C294 1.387 . S
C293 H296 0.950 . S
C294 C293 1.387 . S
C294 C297 1.387 . S
H295 C291 0.950 . S
H296 C293 0.950 . S
C297 C288 1.390 . S
C297 H290 0.950 . S
C297 C294 1.387 . S
C298 C299 1.387 1_655 S
C298 H302 0.950 . S
C298 C307 1.390 . S
C299 C298 1.387 1_455 S
C299 C301 1.387 . S
H300 C307 0.950 . S
C301 C299 1.387 . S
C301 C303 1.390 . S
C301 H305 0.950 . S
H302 C298 0.950 . S
C303 C301 1.390 . S
C303 C304 1.387 . S
C303 H306 0.950 . S
C304 C303 1.387 . S
C304 C307 1.387 1_455 S
H305 C301 0.950 . S
H306 C303 0.950 . S
C307 C298 1.390 . S
C307 H300 0.950 . S
C307 C304 1.387 1_655 S
C308 C309 1.387 . S
C308 H312 0.950 . S
C308 C317 1.390 . S
C309 C308 1.387 . S
C309 C311 1.387 . S
H310 C317 0.950 . S
C311 C309 1.387 . S
C311 C313 1.390 . S
C311 H315 0.950 . S
H312 C308 0.950 . S
C313 C311 1.390 . S
C313 C314 1.387 . S
C313 H316 0.950 . S
C314 C313 1.387 . S
C314 C317 1.387 . S
H315 C311 0.950 . S
H316 C313 0.950 . S
C317 C308 1.390 . S
C317 H310 0.950 . S
C317 C314 1.387 . S
C318 C319 1.387 . S
C318 H322 0.950 . S
C318 C327 1.390 . S
C319 C318 1.387 . S
C319 C321 1.387 . S
H320 C327 0.950 . S
C321 C319 1.387 . S
C321 C323 1.390 . S
C321 H325 0.950 . S
H322 C318 0.950 . S
C323 C321 1.390 . S
C323 C324 1.387 . S
C323 H326 0.950 . S
C324 C323 1.387 . S
C324 C327 1.387 . S
H325 C321 0.950 . S
H326 C323 0.950 . S
C327 C318 1.390 . S
C327 H320 0.950 . S
C327 C324 1.387 . S
C328 C329 1.387 . S
C328 H332 0.950 . S
C328 C337 1.390 . S
C329 C328 1.387 . S
C329 C331 1.387 . S
H330 C337 0.950 . S
C331 C329 1.387 . S
C331 C333 1.390 . S
C331 H335 0.950 . S
H332 C328 0.950 . S
C333 C331 1.390 . S
C333 C334 1.387 . S
C333 H336 0.950 . S
C334 C333 1.387 . S
C334 C337 1.387 . S
H335 C331 0.950 . S
H336 C333 0.950 . S
C337 C328 1.390 . S
C337 H330 0.950 . S
C337 C334 1.387 . S
C338 C339 1.387 . S
C338 H342 0.950 . S
C338 C347 1.390 . S
C339 C338 1.387 . S
C339 C341 1.387 . S
H340 C347 0.950 . S
C341 C339 1.387 . S
C341 C343 1.390 . S
C341 H345 0.950 . S
H342 C338 0.950 . S
C343 C341 1.390 . S
C343 C344 1.387 . S
C343 H346 0.950 . S
C344 C343 1.387 . S
C344 C347 1.387 . S
H345 C341 0.950 . S
H346 C343 0.950 . S
C347 C338 1.390 . S
C347 H340 0.950 . S
C347 C344 1.387 . S
C348 C349 1.387 . S
C348 H352 0.950 . S
C348 C357 1.390 . S
C349 C348 1.387 . S
C349 C351 1.387 . S
H350 C357 0.950 . S
C351 C349 1.387 . S
C351 C353 1.390 . S
C351 H355 0.950 . S
H352 C348 0.950 . S
C353 C351 1.390 . S
C353 C354 1.387 . S
C353 H356 0.950 . S
C354 C353 1.387 . S
C354 C357 1.387 . S
H355 C351 0.950 . S
H356 C353 0.950 . S
C357 C348 1.390 . S
C357 H350 0.950 . S
C357 C354 1.387 . S
C358 C359 1.387 . S
C358 H362 0.950 . S
C358 C367 1.390 . S
C359 C358 1.387 . S
C359 C361 1.387 . S
H360 C367 0.950 . S
C361 C359 1.387 . S
C361 C363 1.390 . S
C361 H365 0.950 . S
H362 C358 0.950 . S
C363 C361 1.390 . S
C363 C364 1.387 . S
C363 H366 0.950 . S
C364 C363 1.387 . S
C364 C367 1.387 . S
H365 C361 0.950 . S
H366 C363 0.950 . S
C367 C358 1.390 . S
C367 H360 0.950 . S
C367 C364 1.387 . S
C368 C369 1.387 . S
C368 H372 0.950 . S
C368 C377 1.390 . S
C369 C368 1.387 . S
C369 C371 1.387 . S
H370 C377 0.950 . S
C371 C369 1.387 . S
C371 C373 1.390 . S
C371 H375 0.950 . S
H372 C368 0.950 . S
C373 C371 1.390 . S
C373 C374 1.387 . S
C373 H376 0.950 . S
C374 C373 1.387 . S
C374 C377 1.387 . S
H375 C371 0.950 . S
H376 C373 0.950 . S
C377 C368 1.390 . S
C377 H370 0.950 . S
C377 C374 1.387 . S
C378 C379 1.387 . S
C378 H382 0.950 . S
C378 C387 1.390 . S
C379 C378 1.387 . S
C379 C381 1.387 . S
H380 C387 0.950 . S
C381 C379 1.387 . S
C381 C383 1.390 . S
C381 H385 0.950 . S
H382 C378 0.950 . S
C383 C381 1.390 . S
C383 C384 1.387 . S
C383 H386 0.950 . S
C384 C383 1.387 . S
C384 C387 1.387 . S
H385 C381 0.950 . S
H386 C383 0.950 . S
C387 C378 1.390 . S
C387 H380 0.950 . S
C387 C384 1.387 . S
C388 C389 1.387 . S
C388 H392 0.950 . S
C388 C397 1.390 . S
C389 C388 1.387 . S
C389 C391 1.387 . S
H390 C397 0.950 . S
C391 C389 1.387 . S
C391 C393 1.390 . S
C391 H395 0.950 . S
H392 C388 0.950 . S
C393 C391 1.390 . S
C393 C394 1.387 . S
C393 H396 0.950 . S
C394 C393 1.387 . S
C394 C397 1.387 . S
H395 C391 0.950 . S
H396 C393 0.950 . S
C397 C388 1.390 . S
C397 H390 0.950 . S
C397 C394 1.387 . S
C398 C399 1.387 . S
C398 H402 0.950 . S
C398 C407 1.390 . S
C399 C398 1.387 . S
C399 C401 1.387 . S
H400 C407 0.950 . S
C401 C399 1.387 . S
C401 C403 1.390 . S
C401 H405 0.950 . S
H402 C398 0.950 . S
C403 C401 1.390 . S
C403 C404 1.387 . S
C403 H406 0.950 . S
C404 C403 1.387 . S
C404 C407 1.387 . S
H405 C401 0.950 . S
H406 C403 0.950 . S
C407 C398 1.390 . S
C407 H400 0.950 . S
C407 C404 1.387 . S
C408 C409 1.387 . S
C408 H412 0.950 . S
C408 C417 1.390 . S
C409 C408 1.387 . S
C409 C411 1.387 . S
H410 C417 0.950 1_554 S
C411 C409 1.387 . S
C411 C413 1.390 . S
C411 H415 0.950 . S
H412 C408 0.950 . S
C413 C411 1.390 . S
C413 C414 1.387 . S
C413 H416 0.950 . S
C414 C413 1.387 . S
C414 C417 1.387 . S
H415 C411 0.950 . S
H416 C413 0.950 . S
C417 C408 1.390 . S
C417 H410 0.950 1_556 S
C417 C414 1.387 . S
C418 C419 1.387 . S
C418 H422 0.950 . S
C418 C427 1.390 . S
C419 C418 1.387 . S
C419 C421 1.387 1_455 S
H420 C427 0.950 . S
C421 C419 1.387 1_655 S
C421 C423 1.390 . S
C421 H425 0.950 . S
H422 C418 0.950 . S
C423 C421 1.390 . S
C423 C424 1.387 . S
C423 H426 0.950 . S
C424 C423 1.387 . S
C424 C427 1.387 1_655 S
H425 C421 0.950 . S
H426 C423 0.950 . S
C427 C418 1.390 . S
C427 H420 0.950 . S
C427 C424 1.387 1_455 S
C428 C429 1.387 . S
C428 H432 0.950 . S
C428 C437 1.390 . S
C429 C428 1.387 . S
C429 C431 1.387 . S
H430 C437 0.950 . S
C431 C429 1.387 . S
C431 C433 1.390 . S
C431 H435 0.950 . S
H432 C428 0.950 . S
C433 C431 1.390 . S
C433 C434 1.387 . S
C433 H436 0.950 . S
C434 C433 1.387 . S
C434 C437 1.387 . S
H435 C431 0.950 . S
H436 C433 0.950 . S
C437 C428 1.390 . S
C437 H430 0.950 . S
C437 C434 1.387 . S
C438 C439 1.387 . S
C438 H442 0.950 . S
C438 C447 1.390 . S
C439 C438 1.387 . S
C439 C441 1.387 . S
H440 C447 0.950 . S
C441 C439 1.387 . S
C441 C443 1.390 . S
C441 H445 0.950 . S
H442 C438 0.950 . S
C443 C441 1.390 . S
C443 C444 1.387 . S
C443 H446 0.950 . S
C444 C443 1.387 . S
C444 C447 1.387 . S
H445 C441 0.950 . S
H446 C443 0.950 . S
C447 C438 1.390 . S
C447 H440 0.950 . S
C447 C444 1.387 . S
C448 C449 1.387 . S
C448 H452 0.950 . S
C448 C457 1.390 . S
C449 C448 1.387 . S
C449 C451 1.387 . S
H450 C457 0.950 . S
C451 C449 1.387 . S
C451 C453 1.390 . S
C451 H455 0.950 . S
H452 C448 0.950 . S
C453 C451 1.390 . S
C453 C454 1.387 . S
C453 H456 0.950 . S
C454 C453 1.387 . S
C454 C457 1.387 . S
H455 C451 0.950 . S
H456 C453 0.950 . S
C457 C448 1.390 . S
C457 H450 0.950 . S
C457 C454 1.387 . S
C458 C459 1.387 . S
C458 H462 0.950 . S
C458 C467 1.390 . S
C459 C458 1.387 . S
C459 C461 1.387 . S
H460 C467 0.950 . S
C461 C459 1.387 . S
C461 C463 1.390 . S
C461 H465 0.950 . S
H462 C458 0.950 . S
C463 C461 1.390 . S
C463 C464 1.387 . S
C463 H466 0.950 . S
C464 C463 1.387 . S
C464 C467 1.387 . S
H465 C461 0.950 . S
H466 C463 0.950 . S
C467 C458 1.390 . S
C467 H460 0.950 . S
C467 C464 1.387 . S
C468 C469 1.387 . S
C468 H472 0.950 . S
C468 C477 1.390 . S
C469 C468 1.387 . S
C469 C471 1.387 . S
H470 C477 0.950 . S
C471 C469 1.387 . S
C471 C473 1.390 . S
C471 H475 0.950 . S
H472 C468 0.950 . S
C473 C471 1.390 . S
C473 C474 1.387 . S
C473 H476 0.950 1_455 S
C474 C473 1.387 . S
C474 C477 1.387 . S
H475 C471 0.950 . S
H476 C473 0.950 1_655 S
C477 C468 1.390 . S
C477 H470 0.950 . S
C477 C474 1.387 . S
C478 C479 1.387 . S
C478 H482 0.950 . S
C478 C487 1.390 . S
C479 C478 1.387 . S
C479 C481 1.387 . S
H480 C487 0.950 . S
C481 C479 1.387 . S
C481 C483 1.390 . S
C481 H485 0.950 . S
H482 C478 0.950 . S
C483 C481 1.390 . S
C483 C484 1.387 . S
C483 H486 0.950 . S
C484 C483 1.387 . S
C484 C487 1.387 . S
H485 C481 0.950 . S
H486 C483 0.950 . S
C487 C478 1.390 . S
C487 H480 0.950 . S
C487 C484 1.387 . S
C249 C5 1.179 . S
C254 C103 1.366 . S
C259 C18 1.130 . S
C264 C143 1.193 . S
C274 C177 2.266 . S
C269 C30 2.268 . S
C279 C41 2.420 . S
C284 C218 2.368 . S
C294 C138 1.472 . S
C289 C7 1.322 . S
C304 C98 2.167 . S
C299 C16 2.136 . S
C314 C226 1.758 . S
C309 C29 1.748 . S
C324 C187 1.545 . S
C319 C38 1.267 . S
C329 C8 1.504 . S
C334 C223 1.606 . S
C344 C146 2.261 1_556 S
C339 C27 2.103 . S
C349 C40 2.495 . S
C354 C106 2.410 . S
C359 C19 1.576 . S
C364 C174 1.608 . S
C374 C94 1.397 . S
C369 C51 1.160 . S
C379 C62 1.611 . S
C384 C134 1.508 . S
C389 C74 2.439 . S
C394 C186 2.469 . S
C399 C84 2.356 . S
C404 C227 2.412 . S
C409 C49 1.324 . S
C414 C147 1.844 1_556 S
C424 C107 2.259 . S
C419 C63 2.149 . S
C434 C217 1.598 . S
C429 C71 1.476 . S
C444 C178 1.730 . S
C439 C85 1.829 . S
C449 C52 1.533 . S
C454 C214 1.688 . S
C464 C137 2.341 . S
C459 C73 2.432 . S
C474 C97 2.124 . S
C469 C82 2.086 . S
C479 C60 1.595 . S
C484 C183 1.684 . S
