# Generated by pormake.
# Topology pts, (4,4)-cn, num edge types: 1
# Building blocks:
#     Node 0, Type 0, BuildingBlock: KOZSID_clean_sbu_0, # of connection points: 4
#     Node 1, Type 0, BuildingBlock: KOZSID_clean_sbu_0, # of connection points: 4
#     Node 2, Type 1, BuildingBlock: UXUYUI_clean_sbu_0, # of connection points: 4
#     Node 3, Type 1, BuildingBlock: UXUYUI_clean_sbu_0, # of connection points: 4
#     Edge 4, Type (0, 1), BuildingBlock: ZUJKAS_clean_linker_0, # of connection points: 2
#     Edge 5, Type (0, 1), BuildingBlock: ZUJKAS_clean_linker_0, # of connection points: 2
#     Edge 6, Type (0, 1), BuildingBlock: ZUJKAS_clean_linker_0, # of connection points: 2
#     Edge 7, Type (0, 1), BuildingBlock: ZUJKAS_clean_linker_0, # of connection points: 2
#     Edge 8, Type (0, 1), BuildingBlock: ZUJKAS_clean_linker_0, # of connection points: 2
#     Edge 9, Type (0, 1), BuildingBlock: ZUJKAS_clean_linker_0, # of connection points: 2
#     Edge 10, Type (0, 1), BuildingBlock: ZUJKAS_clean_linker_0, # of connection points: 2
#     Edge 11, Type (0, 1), BuildingBlock: ZUJKAS_clean_linker_0, # of connection points: 2
# Relax obj value: 0.000
# Max RMSD: 0.019
# Mean RMSD: 0.014
data_MOF--net-pts--node1-KOZSID_clean_sbu_0--node2-UXUYUI_clean_sbu_0--edge1-ZUJKAS_clean_linker_0
_symmetry_space_group_name_H-M    P1
_symmetry_Int_Tables_number       1
_symmetry_cell_setting            triclinic
loop_
_symmetry_equiv_pos_as_xyz
'x, y, z'
_cell_length_a     40.235676
_cell_length_b     40.21926
_cell_length_c     58.424423
_cell_angle_alpha  87.357344
_cell_angle_beta   92.648863
_cell_angle_gamma 90.011458
loop_
_atom_site_label
_atom_site_type_symbol
_atom_site_fract_x
_atom_site_fract_y
_atom_site_fract_z
_atom_type_partial_charge
C0 C 0.59026 0.07143 0.04226 0.0
C1 C 0.60107 0.1019 0.05002 0.0
C2 C 0.583 0.1258 0.0377 0.0
C3 C 0.56214 0.10867 0.02328 0.0
N4 N 0.56539 0.07521 0.02584 0.0
Co5 Co 0.54033 0.04103 0.00794 0.0
N6 N 0.51506 0.07634 0.98886 0.0
C7 C 0.51794 0.10969 0.99051 0.0
C8 C 0.49607 0.12771 0.97622 0.0
C9 C 0.47777 0.10456 0.96489 0.0
C10 C 0.48976 0.07355 0.97285 0.0
N11 N 0.51549 0.00687 0.98991 0.0
C12 C 0.49066 0.01062 0.97346 0.0
C13 C 0.48042 0.9802 0.96533 0.0
C14 C 0.49878 0.95633 0.97746 0.0
C15 C 0.51928 0.97344 0.99213 0.0
N16 N 0.56536 0.00571 0.02715 0.0
C17 C 0.56214 0.97237 0.02571 0.0
C18 C 0.58347 0.95432 0.0404 0.0
C19 C 0.60169 0.97744 0.0518 0.0
C20 C 0.59025 0.00847 0.04347 0.0
N21 N 0.50444 0.04021 0.03037 0.0
C22 C 0.45047 0.03928 0.05979 0.0
C23 C 0.46407 0.00972 0.05261 0.0
C24 C 0.49079 0.01075 0.03806 0.0
C25 C 0.46497 0.06924 0.0524 0.0
C26 C 0.4917 0.06913 0.03793 0.0
N27 N 0.57624 0.04187 0.98549 0.0
C28 C 0.61693 0.01309 0.96428 0.0
C29 C 0.63001 0.04321 0.95584 0.0
C30 C 0.61513 0.07263 0.96217 0.0
C31 C 0.58854 0.0714 0.97681 0.0
C32 C 0.5903 0.013 0.97886 0.0
H33 H 0.57856 0.09473 0.98101 0.0
H34 H 0.58184 0.98921 0.98478 0.0
H35 H 0.49965 0.98738 0.03301 0.0
H36 H 0.50142 0.09283 0.03294 0.0
C37 C 0.53999 0.12329 0.00668 0.0
C38 C 0.605 0.03975 0.0507 0.0
C39 C 0.47524 0.04221 0.96551 0.0
C40 C 0.5408 0.95878 0.0091 0.0
H41 H 0.62035 0.10641 0.06304 0.0
H42 H 0.58518 0.1525 0.03885 0.0
H43 H 0.49306 0.15447 0.97474 0.0
H44 H 0.45734 0.11005 0.95263 0.0
H45 H 0.46122 0.97568 0.95226 0.0
H46 H 0.49685 0.92963 0.97614 0.0
H47 H 0.58626 0.92753 0.04204 0.0
H48 H 0.62176 0.97193 0.06436 0.0
H49 H 0.45367 0.98582 0.05771 0.0
H50 H 0.45584 0.09282 0.05782 0.0
H51 H 0.62765 0.98954 0.96013 0.0
H52 H 0.62381 0.09665 0.95578 0.0
C53 C 0.07307 0.48971 0.54217 0.0
C54 C 0.10409 0.47732 0.54974 0.0
C55 C 0.12716 0.49554 0.53829 0.0
C56 C 0.10908 0.51774 0.52428 0.0
N57 N 0.07579 0.51518 0.52627 0.0
Co58 Co 0.0404 0.54064 0.50742 0.0
N59 N 0.07445 0.56587 0.48948 0.0
C60 C 0.10791 0.56313 0.49229 0.0
C61 C 0.12496 0.58486 0.47843 0.0
C62 C 0.10099 0.60298 0.46621 0.0
C63 C 0.07055 0.59105 0.47327 0.0
N64 N 0.005 0.56551 0.48827 0.0
C65 C 0.00766 0.59023 0.47184 0.0
C66 C 0.97669 0.60065 0.46279 0.0
C67 C 0.9536 0.58235 0.4742 0.0
C68 C 0.97169 0.56176 0.48941 0.0
N69 N 0.00637 0.51599 0.52566 0.0
C70 C 0.97296 0.52007 0.5237 0.0
C71 C 0.95597 0.49987 0.53862 0.0
C72 C 0.97988 0.48144 0.55066 0.0
C73 C 0.01022 0.49131 0.54221 0.0
N74 N 0.04138 0.57653 0.52987 0.0
C75 C 0.04294 0.63019 0.55962 0.0
C76 C 0.01283 0.61808 0.55047 0.0
C77 C 0.01261 0.59149 0.53585 0.0
C78 C 0.07223 0.61444 0.55393 0.0
C79 C 0.07089 0.5879 0.53923 0.0
N80 N 0.03943 0.50473 0.48499 0.0
C81 C 0.00916 0.46283 0.46404 0.0
C82 C 0.03854 0.45066 0.45563 0.0
C83 C 0.06829 0.46662 0.46177 0.0
C84 C 0.06817 0.49333 0.4763 0.0
C85 C 0.01014 0.4897 0.47844 0.0
H86 H 0.09174 0.50402 0.48051 0.0
H87 H 0.98686 0.49764 0.48424 0.0
H88 H 0.98884 0.5838 0.52935 0.0
H89 H 0.09412 0.57716 0.53556 0.0
C90 C 0.12258 0.5404 0.50847 0.0
C91 C 0.04177 0.47556 0.54985 0.0
C92 C 0.03874 0.60541 0.46481 0.0
C93 C 0.95818 0.54096 0.50637 0.0
H94 H 0.10962 0.45674 0.56189 0.0
H95 H 0.1539 0.49238 0.53958 0.0
H96 H 0.15164 0.58767 0.47764 0.0
H97 H 0.10548 0.62313 0.45383 0.0
H98 H 0.97136 0.62 0.44964 0.0
H99 H 0.9268 0.58455 0.47216 0.0
H100 H 0.9293 0.49804 0.54009 0.0
H101 H 0.97544 0.46235 0.56383 0.0
H102 H 0.9894 0.62951 0.55412 0.0
H103 H 0.09621 0.6224 0.56086 0.0
H104 H 0.98535 0.45179 0.45946 0.0
H105 H 0.0918 0.45808 0.45586 0.0
Li106 Li 0.03838 0.06739 0.27198 0.0
Li107 Li 0.03642 0.0059 0.27418 0.0
Li108 Li 0.06737 0.03821 0.24331 0.0
Li109 Li 0.0056 0.03648 0.24156 0.0
C110 C 0.09416 0.04888 0.29481 0.0
N111 N 0.12903 0.07748 0.33066 0.0
C112 C 0.0923 0.03524 0.31715 0.0
C113 C 0.114 0.07684 0.29065 0.0
C114 C 0.11008 0.05011 0.33506 0.0
C115 C 0.13135 0.09101 0.30903 0.0
C116 C 0.9712 0.02645 0.28569 0.0
C117 C 0.92284 0.99103 0.28644 0.0
N118 N 0.9152 0.00316 0.3069 0.0
C119 C 0.96265 0.03885 0.3066 0.0
C120 C 0.95097 1.00259 0.27542 0.0
C121 C 0.93434 0.02665 0.31711 0.0
C122 C 0.04062 0.13686 0.27996 0.0
N123 N 0.03867 0.106 0.29033 0.0
C124 C 0.0374 0.12957 0.32719 0.0
C125 C 0.0369 0.10195 0.31348 0.0
C126 C 0.03954 0.16184 0.317 0.0
C127 C 0.04113 0.1652 0.293 0.0
H128 H 0.04158 0.13954 0.26151 0.0
H129 H 0.03528 0.07718 0.32136 0.0
C130 C 0.05355 0.93922 0.28755 0.0
N131 N 0.03683 0.96636 0.29405 0.0
C132 C 0.0541 0.90968 0.3012 0.0
C133 C 0.02081 0.93667 0.32827 0.0
C134 C 0.02098 0.9657 0.31414 0.0
C135 C 0.03741 0.90804 0.32184 0.0
H136 H 0.06628 0.94044 0.27163 0.0
H137 H 0.00867 0.98777 0.31934 0.0
C138 C 0.04717 0.09406 0.21992 0.0
N139 N 0.0721 0.12946 0.18289 0.0
C140 C 0.03098 0.09304 0.19828 0.0
C141 C 0.07585 0.11332 0.22279 0.0
C142 C 0.04401 0.11108 0.17976 0.0
C143 C 0.08813 0.13095 0.20383 0.0
C144 C 0.02831 0.97141 0.22902 0.0
C145 C 0.04193 0.96542 0.20801 0.0
C146 C 0.00552 0.94884 0.23821 0.0
C147 C 0.03202 0.93726 0.19634 0.0
C148 C 0.99627 0.92095 0.22604 0.0
N149 N 0.00957 0.91581 0.20551 0.0
C150 C 0.13672 0.03585 0.23553 0.0
C151 C 0.10208 0.03985 0.20163 0.0
C152 C 0.16519 0.03579 0.22263 0.0
N153 N 0.10594 0.038 0.22491 0.0
C154 C 0.12984 0.04019 0.18808 0.0
C155 C 0.16198 0.03812 0.19854 0.0
H156 H 0.13921 0.03414 0.25405 0.0
H157 H 0.0774 0.041 0.19353 0.0
C158 C 0.94014 0.05665 0.22762 0.0
N159 N 0.96573 0.037 0.22195 0.0
C160 C 0.91032 0.05773 0.21428 0.0
C161 C 0.9337 0.01845 0.18941 0.0
C162 C 0.96316 0.0184 0.20308 0.0
C163 C 0.90673 0.03824 0.19497 0.0
H164 H 0.94284 0.07136 0.24264 0.0
H165 H 0.98396 0.00362 0.19848 0.0
O166 O 0.07651 0.03501 0.27712 0.0
O167 O 0.99888 0.03815 0.27521 0.0
O168 O 0.03494 0.07633 0.2382 0.0
O169 O 0.03777 0.99891 0.24064 0.0
H170 H 0.0771 0.01357 0.32064 0.0
H171 H 0.11576 0.08762 0.27345 0.0
H172 H 0.10875 0.03994 0.35246 0.0
H173 H 0.14662 0.11279 0.30609 0.0
H174 H 0.90701 0.97252 0.27868 0.0
H175 H 0.9778 0.05759 0.3147 0.0
H176 H 0.95665 0.99334 0.25899 0.0
H177 H 0.92756 0.03587 0.33336 0.0
H178 H 0.03654 0.12562 0.34561 0.0
H179 H 0.04225 0.18951 0.2843 0.0
H180 H 0.06705 0.88822 0.29544 0.0
H181 H 0.00819 0.93682 0.34424 0.0
H182 H 0.0087 0.07833 0.19579 0.0
H183 H 0.08865 0.1144 0.23942 0.0
H184 H 0.03183 0.11042 0.16289 0.0
H185 H 0.11043 0.14578 0.20576 0.0
H186 H 0.05982 0.98239 0.20071 0.0
H187 H 0.99535 0.95253 0.25469 0.0
H188 H 0.04222 0.93244 0.18 0.0
H189 H 0.97862 0.90333 0.23296 0.0
H190 H 0.18946 0.03437 0.23143 0.0
H191 H 0.12614 0.04153 0.16958 0.0
H192 H 0.8901 0.07321 0.21926 0.0
H193 H 0.93221 0.00349 0.17446 0.0
Li194 Li 0.01403 0.04489 0.77281 0.0
Li195 Li 0.07558 0.0427 0.77351 0.0
Li196 Li 0.04246 0.07585 0.74196 0.0
Li197 Li 0.04464 0.01427 0.74266 0.0
C198 C 0.03388 0.10424 0.79042 0.0
N199 N 0.00817 0.14769 0.8204 0.0
C200 C 0.04936 0.10778 0.81208 0.0
C201 C 0.00563 0.1232 0.78389 0.0
C202 C 0.03592 0.12977 0.82702 0.0
C203 C 0.99292 0.14491 0.79931 0.0
C204 C 0.05697 0.98321 0.79324 0.0
C205 C 0.09531 0.93908 0.80543 0.0
N206 N 0.08443 0.93995 0.82709 0.0
C207 C 0.04586 0.98335 0.81555 0.0
C208 C 0.08161 0.96063 0.78807 0.0
C209 C 0.06016 0.96141 0.83245 0.0
C210 C 0.9454 0.03683 0.78156 0.0
N211 N 0.97556 0.04453 0.7914 0.0
C212 C 0.95083 0.05206 0.82733 0.0
C213 C 0.97871 0.05178 0.81391 0.0
C214 C 0.91925 0.04456 0.8176 0.0
C215 C 0.91683 0.03675 0.79436 0.0
H216 H 0.94348 0.03079 0.76371 0.0
H217 H 1.00295 0.05714 0.82157 0.0
C218 C 0.14549 0.04568 0.78336 0.0
N219 N 0.1156 0.04169 0.79307 0.0
C220 C 0.17501 0.04515 0.79699 0.0
C221 C 0.14257 0.03721 0.83053 0.0
C222 C 0.11369 0.03765 0.81622 0.0
C223 C 0.17391 0.04095 0.82098 0.0
H224 H 0.14651 0.04948 0.76499 0.0
H225 H 0.08969 0.03526 0.82367 0.0
C226 C 0.9829 0.0571 0.72225 0.0
N227 N 0.93944 0.08428 0.68841 0.0
C228 C 0.98297 0.04587 0.69997 0.0
C229 C 0.96028 0.08172 0.7274 0.0
C230 C 0.96094 0.06003 0.68307 0.0
C231 C 0.93863 0.09527 0.71005 0.0
C232 C 0.10384 0.03421 0.72493 0.0
C233 C 0.10729 0.04988 0.70332 0.0
C234 C 0.12276 0.00586 0.73129 0.0
C235 C 0.12914 0.03652 0.68825 0.0
C236 C 0.14432 0.99324 0.71574 0.0
N237 N 0.14701 0.00868 0.69471 0.0
C238 C 0.04579 0.14576 0.73208 0.0
C239 C 0.03714 0.11398 0.69925 0.0
C240 C 0.0453 0.17529 0.71844 0.0
N241 N 0.04147 0.11587 0.72239 0.0
C242 C 0.03672 0.14286 0.68494 0.0
C243 C 0.04079 0.17419 0.69446 0.0
H244 H 0.04983 0.14677 0.75043 0.0
H245 H 0.03452 0.08997 0.69182 0.0
C246 C 0.03657 0.94561 0.73393 0.0
N247 N 0.04426 0.97578 0.72408 0.0
C248 C 0.03651 0.91702 0.72113 0.0
C249 C 0.05187 0.95101 0.68816 0.0
C250 C 0.05153 0.97892 0.70157 0.0
C251 C 0.04437 0.91943 0.6979 0.0
H252 H 0.03051 0.9437 0.75177 0.0
H253 H 0.05688 0.00316 0.69391 0.0
O254 O 0.04644 0.08247 0.77566 0.0
O255 O 0.04344 0.00475 0.77651 0.0
O256 O 0.00452 0.0437 0.73897 0.0
O257 O 0.08221 0.04669 0.73981 0.0
H258 H 0.07149 0.0937 0.81733 0.0
H259 H 0.99375 0.1213 0.76706 0.0
H260 H 0.04755 0.13261 0.84388 0.0
H261 H 0.97097 0.15961 0.79449 0.0
H262 H 0.11451 0.92159 0.80167 0.0
H263 H 0.0266 1.00037 0.81983 0.0
H264 H 0.08994 0.95955 0.77081 0.0
H265 H 0.05198 0.96146 0.84982 0.0
H266 H 0.95409 0.05762 0.84526 0.0
H267 H 0.89305 0.03105 0.78603 0.0
H268 H 0.19846 0.04776 0.78871 0.0
H269 H 0.14023 0.0346 0.8489 0.0
H270 H 1.00002 0.02662 0.6957 0.0
H271 H 0.95924 0.09013 0.74464 0.0
H272 H 0.96093 0.05175 0.66572 0.0
H273 H 0.92111 0.11445 0.7138 0.0
H274 H 0.09324 0.07209 0.6982 0.0
H275 H 0.12091 0.99381 0.74807 0.0
H276 H 0.1319 0.0483 0.67143 0.0
H277 H 0.15898 0.97121 0.72042 0.0
H278 H 0.04818 0.19873 0.7267 0.0
H279 H 0.03387 0.14052 0.66657 0.0
H280 H 0.03081 0.89323 0.72945 0.0
H281 H 0.05747 0.95425 0.67025 0.0
H282 H 0.39655 0.08118 0.05655 0.0
H283 H 0.34846 0.08072 0.08071 0.0
H284 H 0.389 0.99562 0.12003 0.0
H285 H 0.43763 0.99638 0.09631 0.0
H286 H 0.30225 0.02866 0.08799 0.0
H287 H 0.36828 0.06137 0.16946 0.0
H288 H 0.38663 0.06725 0.14194 0.0
H289 H 0.38533 0.0265 0.15581 0.0
C290 C 0.39551 0.06262 0.07053 0.0
C291 C 0.42115 0.03895 0.07456 0.0
C292 C 0.36786 0.06226 0.08423 0.0
C293 C 0.36531 0.03842 0.10237 0.0
C294 C 0.39068 0.0146 0.10637 0.0
H295 H 0.21772 0.9989 0.20475 0.0
H296 H 0.26644 0.9986 0.18115 0.0
C297 C 0.41832 0.01486 0.09263 0.0
C298 C 0.33572 0.03809 0.11674 0.0
H299 H 0.31149 0.04668 0.17146 0.0
C300 C 0.30422 0.0327 0.10623 0.0
C301 C 0.33836 0.04322 0.14055 0.0
C302 C 0.3714 0.0502 0.15265 0.0
C303 C 0.27535 0.03178 0.11892 0.0
C304 C 0.27791 0.03723 0.14273 0.0
C305 C 0.30947 0.04252 0.15324 0.0
C306 C 0.2482 0.0376 0.15704 0.0
C307 C 0.24251 0.02416 0.10676 0.0
C308 C 0.22188 0.05996 0.15161 0.0
C309 C 0.19394 0.06009 0.16502 0.0
C310 C 0.19189 0.03818 0.18439 0.0
C311 C 0.21858 0.01627 0.19006 0.0
C312 C 0.24641 0.01599 0.17653 0.0
H313 H 0.24604 0.01108 0.09071 0.0
H314 H 0.22655 0.00855 0.11793 0.0
H315 H 0.22918 0.04783 0.10207 0.0
H316 H 0.22304 0.07756 0.13707 0.0
H317 H 0.17411 0.0777 0.16042 0.0
H318 H 0.06596 0.46633 0.59421 0.0
H319 H 0.06658 0.41468 0.61835 0.0
H320 H 0.01587 0.36385 0.56346 0.0
H321 H 0.0167 0.41509 0.53904 0.0
H322 H 0.01771 0.37751 0.63441 0.0
H323 H 0.09094 0.30045 0.57875 0.0
H324 H 0.08677 0.3449 0.57394 0.0
H325 H 0.05424 0.31752 0.56411 0.0
C326 C 0.05536 0.44393 0.5873 0.0
C327 C 0.04179 0.44439 0.56472 0.0
C328 C 0.05557 0.41451 0.60108 0.0
C329 C 0.04195 0.38505 0.5926 0.0
C330 C 0.0275 0.38585 0.5702 0.0
H331 H 1.003 0.18888 0.65478 0.0
H332 H 0.0035 0.23985 0.63026 0.0
C333 C 0.02768 0.41516 0.55633 0.0
C334 C 0.0421 0.35384 0.6074 0.0
H335 H 0.06475 0.2717 0.60963 0.0
C336 C 0.0282 0.35446 0.62902 0.0
C337 C 0.05587 0.32366 0.60045 0.0
C338 C 0.0731 0.3216 0.57815 0.0
C339 C 0.02723 0.32575 0.64364 0.0
C340 C 0.0405 0.2956 0.63651 0.0
C341 C 0.05439 0.29485 0.61496 0.0
C342 C 0.0405 0.26464 0.65135 0.0
C343 C 0.01164 0.32765 0.66654 0.0
C344 C 0.06145 0.26155 0.67119 0.0
C345 C 0.06163 0.23226 0.6851 0.0
C346 C 0.0407 0.20542 0.67953 0.0
C347 C 0.01979 0.20871 0.65952 0.0
C348 C 0.01985 0.23793 0.64552 0.0
H349 H 0.99762 0.35121 0.66792 0.0
H350 H 0.99453 0.30634 0.66939 0.0
H351 H 0.03147 0.32617 0.6804 0.0
H352 H 0.07791 0.28173 0.6758 0.0
H353 H 0.07858 0.23053 0.70005 0.0
H354 H 0.66664 0.06151 0.0399 0.0
H355 H 0.71746 0.06161 0.06479 0.0
H356 H 0.66341 0.01701 0.12042 0.0
H357 H 0.61229 0.01823 0.09572 0.0
H358 H 0.70277 0.06527 0.13537 0.0
H359 H 0.77638 0.9836 0.08312 0.0
H360 H 0.76134 0.02007 0.0671 0.0
H361 H 0.73225 0.98982 0.07786 0.0
C362 C 0.66577 0.05173 0.05746 0.0
C363 C 0.63582 0.03949 0.06589 0.0
C364 C 0.69481 0.05152 0.07161 0.0
C365 C 0.69455 0.03857 0.09437 0.0
C366 C 0.66437 0.02686 0.1029 0.0
H367 H 0.87308 0.98488 0.17806 0.0
H368 H 0.82113 0.98514 0.15455 0.0
C369 C 0.63525 0.02742 0.0888 0.0
C370 C 0.7255 0.0378 0.10942 0.0
H371 H 0.80624 0.01094 0.11295 0.0
C372 C 0.72535 0.05324 0.13051 0.0
C373 C 0.75488 0.02165 0.10331 0.0
C374 C 0.75621 1.00255 0.08173 0.0
C375 C 0.75379 0.05343 0.14544 0.0
C376 C 0.78359 0.03857 0.13886 0.0
C377 C 0.78358 0.0227 0.11793 0.0
C378 C 0.81493 0.03866 0.15352 0.0
C379 C 0.75127 0.06888 0.16835 0.0
C380 C 0.82905 0.06866 0.16066 0.0
C381 C 0.85862 0.06853 0.17429 0.0
C382 C 0.87506 0.03844 0.18072 0.0
C383 C 0.86116 0.00849 0.17327 0.0
C384 C 0.83141 0.00861 0.15987 0.0
H385 H 0.7251 0.06967 0.17362 0.0
H386 H 0.76644 0.05497 0.18197 0.0
H387 H 0.76049 0.09487 0.16707 0.0
H388 H 0.81744 0.09226 0.15546 0.0
H389 H 0.86898 0.09205 0.17943 0.0
H390 H 0.08759 0.68182 0.56016 0.0
H391 H 0.08853 0.72978 0.58446 0.0
H392 H 1.00043 0.6935 0.61661 0.0
H393 H 0.99994 0.64488 0.59298 0.0
H394 H 0.04045 0.77856 0.5872 0.0
H395 H 0.0624 0.71169 0.67173 0.0
H396 H 0.06828 0.69222 0.64498 0.0
H397 H 0.02716 0.69682 0.65525 0.0
C398 C 0.06872 0.68369 0.57266 0.0
C399 C 0.04379 0.65928 0.57465 0.0
C400 C 0.06915 0.7113 0.58643 0.0
C401 C 0.04484 0.71506 0.6026 0.0
C402 C 0.01984 0.69087 0.60458 0.0
H403 H 1.00058 0.86702 0.6982 0.0
H404 H 1.00088 0.81796 0.67493 0.0
C405 C 0.01937 0.66324 0.59082 0.0
C406 C 0.04506 0.74482 0.61686 0.0
H407 H 0.04903 0.76914 0.67222 0.0
C408 C 0.04251 0.77652 0.60579 0.0
C409 C 0.04764 0.74215 0.64113 0.0
C410 C 0.05183 0.70893 0.65402 0.0
C411 C 0.04185 0.80555 0.61829 0.0
C412 C 0.04445 0.80289 0.64256 0.0
C413 C 0.047 0.77119 0.65363 0.0
C414 C 0.04457 0.83269 0.65678 0.0
C415 C 0.03756 0.83875 0.60538 0.0
C416 C 0.06933 0.85711 0.65461 0.0
C417 C 0.06928 0.88517 0.66793 0.0
C418 C 0.0446 0.88933 0.68388 0.0
C419 C 0.02014 0.86453 0.68626 0.0
C420 C 0.02018 0.83651 0.67289 0.0
H421 H 0.02696 0.83595 0.58767 0.0
H422 H 0.0211 0.85544 0.61441 0.0
H423 H 0.06221 0.85091 0.60411 0.0
H424 H 0.08891 0.85433 0.64273 0.0
H425 H 0.08887 0.90339 0.66594 0.0
H426 H 0.46624 0.06536 0.92091 0.0
H427 H 0.4146 0.06592 0.89677 0.0
H428 H 0.36328 0.01728 0.95223 0.0
H429 H 0.41453 0.01818 0.97662 0.0
H430 H 0.37693 0.01702 0.88132 0.0
H431 H 0.30069 0.09269 0.93599 0.0
H432 H 0.34507 0.08814 0.94088 0.0
H433 H 0.31736 0.05615 0.95109 0.0
C434 C 0.44374 0.05521 0.92794 0.0
C435 C 0.44406 0.04225 0.95067 0.0
C436 C 0.41432 0.05539 0.91416 0.0
C437 C 0.38474 0.04233 0.9228 0.0
C438 C 0.38539 0.02848 0.94536 0.0
H439 H 0.18837 0.00361 0.8609 0.0
H440 H 0.23934 0.00413 0.88541 0.0
C441 C 0.4147 0.0287 0.95922 0.0
C442 C 0.35353 0.04242 0.908 0.0
H443 H 0.27166 0.06595 0.90546 0.0
C444 C 0.354 0.02792 0.88657 0.0
C445 C 0.32351 0.05674 0.91476 0.0
C446 C 0.32164 0.07461 0.93682 0.0
C447 C 0.32529 0.02689 0.87196 0.0
C448 C 0.29529 0.04069 0.87892 0.0
C449 C 0.2947 0.05519 0.90027 0.0
C450 C 0.26434 0.04066 0.86408 0.0
C451 C 0.327 0.01067 0.84928 0.0
C452 C 0.26139 0.06134 0.8441 0.0
C453 C 0.23211 0.06152 0.8302 0.0
C454 C 0.20514 0.04085 0.83591 0.0
C455 C 0.2083 0.0202 0.85605 0.0
C456 C 0.23752 0.02027 0.87004 0.0
H457 H 0.35047 0.99646 0.84802 0.0
H458 H 0.3056 0.9936 0.84668 0.0
H459 H 0.32555 0.03016 0.83519 0.0
H460 H 0.28168 0.07759 0.83938 0.0
H461 H 0.23049 0.07826 0.81514 0.0
H462 H 0.07471 0.44103 0.41772 0.0
H463 H 0.07452 0.39239 0.39401 0.0
H464 H 1.00196 0.34496 0.43661 0.0
H465 H 1.002 0.39341 0.46039 0.0
H466 H 0.0903 0.32689 0.40615 0.0
H467 H 0.95919 0.33643 0.37276 0.0
H468 H 0.9801 0.36995 0.38702 0.0
H469 H 0.9638 0.33527 0.40348 0.0
C470 C 0.05875 0.42022 0.42209 0.0
C471 C 0.03821 0.42128 0.44091 0.0
C472 C 0.05859 0.39247 0.40846 0.0
C473 C 0.03781 0.36521 0.41326 0.0
C474 C 0.01756 0.36601 0.43217 0.0
H475 H 0.00341 0.17263 0.35473 0.0
H476 H 0.00429 0.22148 0.37818 0.0
C477 C 0.01763 0.39378 0.44577 0.0
C478 C 0.03801 0.3356 0.39887 0.0
H479 H 0.98821 0.28695 0.36526 0.0
C480 C 0.06802 0.31827 0.3971 0.0
C481 C 0.00892 0.32428 0.38709 0.0
C482 C 0.97623 0.34259 0.38746 0.0
C483 C 0.06961 0.28961 0.38427 0.0
C484 C 0.04049 0.27825 0.37254 0.0
C485 C 0.0105 0.29561 0.37428 0.0
C486 C 0.04057 0.24839 0.35839 0.0
C487 C 0.10228 0.27129 0.38386 0.0
C488 C 0.06045 0.2473 0.33931 0.0
C489 C 0.06021 0.21927 0.32595 0.0
C490 C 0.0399 0.19172 0.33128 0.0
C491 C 0.01978 0.19307 0.35031 0.0
C492 C 0.02005 0.22112 0.36366 0.0
H493 H 0.11954 0.27777 0.39837 0.0
H494 H 0.09841 0.24393 0.38462 0.0
H495 H 0.11445 0.27823 0.36767 0.0
H496 H 0.07602 0.26827 0.33463 0.0
H497 H 0.07622 0.21908 0.31156 0.0
H498 H 0.68268 0.08666 0.95617 0.0
H499 H 0.73061 0.08751 0.9319 0.0
H500 H 0.69253 1.00135 0.89819 0.0
H501 H 0.64388 1.00106 0.92174 0.0
H502 H 0.77845 0.03938 0.92832 0.0
H503 H 0.71185 0.06415 0.844 0.0
H504 H 0.69237 0.06931 0.87083 0.0
H505 H 0.69663 0.02852 0.85991 0.0
C506 C 0.68414 0.06821 0.94333 0.0
C507 C 0.65917 0.04391 0.94087 0.0
C508 C 0.71174 0.06858 0.92958 0.0
C509 C 0.71499 0.04481 0.91296 0.0
C510 C 0.69029 0.02038 0.91055 0.0
H511 H 0.8667 1.00091 0.8171 0.0
H512 H 0.81766 1.00113 0.84036 0.0
C513 C 0.66264 0.02 0.92427 0.0
C514 C 0.74473 0.04499 0.89869 0.0
H515 H 0.76909 0.04993 0.84334 0.0
C516 C 0.77641 0.04187 0.90974 0.0
C517 C 0.7421 0.04814 0.87443 0.0
C518 C 0.70895 0.05304 0.86156 0.0
C519 C 0.80542 0.04123 0.89723 0.0
C520 C 0.80278 0.04438 0.87297 0.0
C521 C 0.77111 0.04747 0.86191 0.0
C522 C 0.83256 0.04456 0.85876 0.0
C523 C 0.83858 0.03642 0.91009 0.0
C524 C 0.85706 0.0692 0.86108 0.0
C525 C 0.8851 0.06922 0.84775 0.0
C526 C 0.88917 0.04471 0.83164 0.0
C527 C 0.86429 0.02035 0.82914 0.0
C528 C 0.83628 0.02034 0.84251 0.0
H529 H 0.83571 0.02562 0.92774 0.0
H530 H 0.85505 0.01991 0.90092 0.0
H531 H 0.85102 0.06092 0.91151 0.0
H532 H 0.85437 0.08864 0.87309 0.0
H533 H 0.90338 0.08874 0.84984 0.0
H534 H 0.02196 0.66773 0.47634 0.0
H535 H 0.02063 0.71909 0.45179 0.0
H536 H 0.05276 0.66381 0.39521 0.0
H537 H 0.05365 0.61243 0.41974 0.0
H538 H 0.07256 0.7497 0.42881 0.0
H539 H 0.9707 0.71401 0.3675 0.0
H540 H 0.97903 0.69181 0.39473 0.0
H541 H 0.0043 0.68454 0.37088 0.0
C542 C 0.02857 0.6667 0.45862 0.0
C543 C 0.03789 0.63638 0.44981 0.0
C544 C 0.02787 0.69593 0.44464 0.0
C545 C 0.03621 0.69525 0.42158 0.0
C546 C 0.04564 0.66486 0.41281 0.0
H547 H 0.08913 0.86457 0.33215 0.0
H548 H 0.08879 0.81316 0.35625 0.0
C549 C 0.04635 0.63562 0.42681 0.0
C550 C 0.03579 0.72649 0.4069 0.0
H551 H 1.00008 0.76361 0.35798 0.0
C552 C 0.05667 0.75277 0.41335 0.0
C553 C 0.01477 0.73063 0.38686 0.0
C554 C 0.99068 0.7039 0.37963 0.0
C555 C 0.05748 0.78285 0.40013 0.0
C556 C 0.03715 0.78664 0.37975 0.0
C557 C 0.01588 0.76056 0.37349 0.0
C558 C 0.03731 0.81764 0.36486 0.0
C559 C 0.07969 0.81056 0.4083 0.0
C560 C 0.00828 0.83689 0.36124 0.0
C561 C 0.00833 0.8662 0.34735 0.0
C562 C 0.03736 0.87675 0.33659 0.0
C563 C 0.06629 0.85712 0.34003 0.0
C564 C 0.06624 0.82787 0.35399 0.0
H565 H 0.08729 0.80685 0.42676 0.0
H566 H 0.10254 0.81125 0.39836 0.0
H567 H 0.06703 0.83505 0.40558 0.0
H568 H 0.98561 0.82934 0.36933 0.0
H569 H 0.98549 0.8804 0.34482 0.0
loop_
_geom_bond_atom_site_label_1
_geom_bond_atom_site_label_2
_geom_bond_distance
_geom_bond_site_symmetry_2
_ccdc_geom_bond_type
C0 C1 1.443 . S
C0 N4 1.376 . S
C0 C38 1.389 . S
C1 C0 1.443 . S
C1 C2 1.340 . S
C1 H41 0.951 . S
C2 C1 1.340 . S
C2 C3 1.439 . S
C2 H42 0.950 . S
C3 C2 1.439 . S
C3 N4 1.374 . S
C3 C37 1.394 1_554 S
N4 C0 1.376 . S
N4 C3 1.374 . S
N4 Co5 2.008 . S
Co5 N4 2.008 . S
Co5 N6 1.995 1_554 S
Co5 N11 2.008 1_554 S
Co5 N16 1.995 . S
Co5 N21 2.282 . S
Co5 N27 2.282 1_554 S
N6 Co5 1.995 1_556 S
N6 C7 1.376 . S
N6 C10 1.383 . S
C7 N6 1.376 . S
C7 C8 1.446 . S
C7 C37 1.392 . S
C8 C7 1.446 . S
C8 C9 1.339 . S
C8 H43 0.949 . S
C9 C8 1.339 . S
C9 C10 1.439 . S
C9 H44 0.950 . S
C10 N6 1.383 . S
C10 C9 1.439 . S
C10 C39 1.392 . S
N11 Co5 2.008 1_556 S
N11 C12 1.376 . S
N11 C15 1.374 1_545 S
C12 N11 1.376 . S
C12 C13 1.443 1_545 S
C12 C39 1.389 . S
C13 C12 1.443 1_565 S
C13 C14 1.340 . S
C13 H45 0.951 . S
C14 C13 1.340 . S
C14 C15 1.439 . S
C14 H46 0.950 . S
C15 N11 1.374 1_565 S
C15 C14 1.439 . S
C15 C40 1.395 1_556 S
N16 Co5 1.995 . S
N16 C17 1.376 1_545 S
N16 C20 1.383 . S
C17 N16 1.376 1_565 S
C17 C18 1.446 . S
C17 C40 1.391 . S
C18 C17 1.446 . S
C18 C19 1.339 . S
C18 H47 0.949 . S
C19 C18 1.339 . S
C19 C20 1.439 1_565 S
C19 H48 0.950 . S
C20 N16 1.383 . S
C20 C19 1.439 1_545 S
C20 C38 1.392 . S
N21 Co5 2.282 . S
N21 C24 1.332 . S
N21 C26 1.332 . S
C22 C23 1.386 . S
C22 C25 1.388 . S
C23 C22 1.386 . S
C23 C24 1.382 . S
C23 H49 0.950 1_545 S
C24 N21 1.332 . S
C24 C23 1.382 . S
C24 H35 0.952 1_545 S
C25 C22 1.388 . S
C25 C26 1.382 . S
C25 H50 0.950 . S
C26 N21 1.332 . S
C26 C25 1.382 . S
C26 H36 0.948 . S
N27 Co5 2.282 1_556 S
N27 C31 1.332 . S
N27 C32 1.332 . S
C28 C29 1.388 . S
C28 C32 1.382 . S
C28 H51 0.950 1_545 S
C29 C28 1.388 . S
C29 C30 1.386 . S
C30 C29 1.386 . S
C30 C31 1.382 . S
C30 H52 0.950 . S
C31 N27 1.332 . S
C31 C30 1.382 . S
C31 H33 0.952 . S
C32 N27 1.332 . S
C32 C28 1.382 . S
C32 H34 0.948 1_545 S
H33 C31 0.952 . S
H34 C32 0.948 1_565 S
H35 C24 0.952 1_565 S
H36 C26 0.948 . S
C37 C3 1.394 1_556 S
C37 C7 1.392 . S
C38 C0 1.389 . S
C38 C20 1.392 . S
C39 C10 1.392 . S
C39 C12 1.389 . S
C40 C15 1.395 1_554 S
C40 C17 1.391 . S
H41 C1 0.951 . S
H42 C2 0.950 . S
H43 C8 0.949 . S
H44 C9 0.950 . S
H45 C13 0.951 . S
H46 C14 0.950 . S
H47 C18 0.949 . S
H48 C19 0.950 . S
H49 C23 0.950 1_565 S
H50 C25 0.950 . S
H51 C28 0.950 1_565 S
H52 C30 0.950 . S
C53 C54 1.443 . S
C53 N57 1.376 . S
C53 C91 1.389 . S
C54 C53 1.443 . S
C54 C55 1.340 . S
C54 H94 0.951 . S
C55 C54 1.340 . S
C55 C56 1.439 . S
C55 H95 0.950 . S
C56 C55 1.439 . S
C56 N57 1.374 . S
C56 C90 1.395 . S
N57 C53 1.376 . S
N57 C56 1.374 . S
N57 Co58 2.008 . S
Co58 N57 2.008 . S
Co58 N59 1.995 . S
Co58 N64 2.014 . S
Co58 N69 1.995 . S
Co58 N74 2.282 . S
Co58 N80 2.282 . S
N59 Co58 1.995 . S
N59 C60 1.376 . S
N59 C63 1.383 . S
C60 N59 1.376 . S
C60 C61 1.446 . S
C60 C90 1.391 . S
C61 C60 1.446 . S
C61 C62 1.339 . S
C61 H96 0.949 . S
C62 C61 1.339 . S
C62 C63 1.439 . S
C62 H97 0.950 . S
C63 N59 1.383 . S
C63 C62 1.439 . S
C63 C92 1.392 . S
N64 Co58 2.014 . S
N64 C65 1.378 . S
N64 C68 1.365 1_455 S
C65 N64 1.378 . S
C65 C66 1.443 1_455 S
C65 C92 1.389 . S
C66 C65 1.443 1_655 S
C66 C67 1.340 . S
C66 H98 0.951 . S
C67 C66 1.340 . S
C67 C68 1.439 . S
C67 H99 0.950 . S
C68 N64 1.365 1_655 S
C68 C67 1.439 . S
C68 C93 1.395 . S
N69 Co58 1.995 . S
N69 C70 1.376 1_455 S
N69 C73 1.383 . S
C70 N69 1.376 1_655 S
C70 C71 1.446 . S
C70 C93 1.391 . S
C71 C70 1.446 . S
C71 C72 1.339 . S
C71 H100 0.949 . S
C72 C71 1.339 . S
C72 C73 1.439 1_655 S
C72 H101 0.950 . S
C73 N69 1.383 . S
C73 C72 1.439 1_455 S
C73 C91 1.392 . S
N74 Co58 2.282 . S
N74 C77 1.332 . S
N74 C79 1.332 . S
C75 C76 1.386 . S
C75 C78 1.388 . S
C76 C75 1.386 . S
C76 C77 1.382 . S
C76 H102 0.950 1_455 S
C77 N74 1.332 . S
C77 C76 1.382 . S
C77 H88 0.952 1_455 S
C78 C75 1.388 . S
C78 C79 1.382 . S
C78 H103 0.950 . S
C79 N74 1.332 . S
C79 C78 1.382 . S
C79 H89 0.948 . S
N80 Co58 2.282 . S
N80 C84 1.332 . S
N80 C85 1.332 . S
C81 C82 1.388 . S
C81 C85 1.382 . S
C81 H104 0.950 1_455 S
C82 C81 1.388 . S
C82 C83 1.386 . S
C83 C82 1.386 . S
C83 C84 1.382 . S
C83 H105 0.950 . S
C84 N80 1.332 . S
C84 C83 1.382 . S
C84 H86 0.952 . S
C85 N80 1.332 . S
C85 C81 1.382 . S
C85 H87 0.948 1_455 S
H86 C84 0.952 . S
H87 C85 0.948 1_655 S
H88 C77 0.952 1_655 S
H89 C79 0.948 . S
C90 C56 1.395 . S
C90 C60 1.391 . S
C91 C53 1.389 . S
C91 C73 1.392 . S
C92 C63 1.392 . S
C92 C65 1.389 . S
C93 C68 1.395 . S
C93 C70 1.391 . S
H94 C54 0.951 . S
H95 C55 0.950 . S
H96 C61 0.949 . S
H97 C62 0.950 . S
H98 C66 0.951 . S
H99 C67 0.950 . S
H100 C71 0.949 . S
H101 C72 0.950 . S
H102 C76 0.950 1_655 S
H103 C78 0.950 . S
H104 C81 0.950 1_655 S
H105 C83 0.950 . S
Li106 N123 1.990 . S
Li106 O166 1.956 . S
Li106 O167 1.970 1_455 S
Li106 O168 1.961 . S
Li107 N131 1.990 . S
Li107 O166 1.970 1_565 S
Li107 O167 1.956 1_465 S
Li107 O169 1.961 . S
Li108 N153 1.990 . S
Li108 O166 1.961 . S
Li108 O168 1.956 . S
Li108 O169 1.970 1_545 S
Li109 N159 1.990 . S
Li109 O167 1.961 . S
Li109 O168 1.970 1_655 S
Li109 O169 1.956 1_645 S
C110 C112 1.348 . S
C110 C113 1.356 . S
C110 O166 1.325 . S
N111 C114 1.314 . S
N111 C115 1.279 . S
C112 C110 1.348 . S
C112 C114 1.353 . S
C112 H170 0.929 1_545 S
C113 C110 1.356 . S
C113 C115 1.358 . S
C113 H171 0.930 . S
C114 N111 1.314 . S
C114 C112 1.353 . S
C114 H172 0.930 1_545 S
C115 N111 1.279 . S
C115 C113 1.358 . S
C115 H173 0.930 . S
C116 C119 1.348 . S
C116 C120 1.356 . S
C116 O167 1.325 . S
C117 N118 1.279 . S
C117 C120 1.358 . S
C117 H174 0.930 1_545 S
N118 C117 1.279 . S
N118 C121 1.314 . S
C119 C116 1.348 . S
C119 C121 1.353 . S
C119 H175 0.929 . S
C120 C116 1.356 . S
C120 C117 1.358 . S
C120 H176 0.930 1_545 S
C121 N118 1.314 . S
C121 C119 1.353 . S
C121 H177 0.930 . S
C122 N123 1.314 . S
C122 C127 1.353 . S
C122 H128 0.926 1_455 S
N123 Li106 1.990 . S
N123 C122 1.314 . S
N123 C125 1.279 . S
C124 C125 1.358 . S
C124 C126 1.356 . S
C124 H178 0.930 . S
C125 N123 1.279 . S
C125 C124 1.358 . S
C125 H129 0.930 . S
C126 C124 1.356 . S
C126 C127 1.348 . S
C127 C122 1.353 . S
C127 C126 1.348 . S
C127 H179 0.929 1_455 S
H128 C122 0.926 1_655 S
H129 C125 0.930 . S
C130 N131 1.314 . S
C130 C132 1.353 . S
C130 H136 0.930 . S
N131 Li107 1.990 . S
N131 C130 1.314 . S
N131 C134 1.279 . S
C132 C130 1.353 . S
C132 C135 1.348 . S
C132 H180 0.929 . S
C133 C134 1.358 . S
C133 C135 1.356 . S
C133 H181 0.930 1_455 S
C134 N131 1.279 . S
C134 C133 1.358 . S
C134 H137 0.930 1_455 S
C135 C132 1.348 . S
C135 C133 1.356 . S
H136 C130 0.930 . S
H137 C134 0.930 1_655 S
C138 C140 1.348 . S
C138 C141 1.356 . S
C138 O168 1.325 . S
N139 C142 1.314 . S
N139 C143 1.279 . S
C140 C138 1.348 . S
C140 C142 1.353 . S
C140 H182 0.929 1_455 S
C141 C138 1.356 . S
C141 C143 1.358 . S
C141 H183 0.930 . S
C142 N139 1.314 . S
C142 C140 1.353 . S
C142 H184 0.930 1_455 S
C143 N139 1.279 . S
C143 C141 1.358 . S
C143 H185 0.930 . S
C144 C145 1.348 . S
C144 C146 1.356 . S
C144 O169 1.325 . S
C145 C144 1.348 . S
C145 C147 1.353 . S
C145 H186 0.929 . S
C146 C144 1.356 . S
C146 C148 1.358 . S
C146 H187 0.930 1_455 S
C147 C145 1.353 . S
C147 N149 1.314 . S
C147 H188 0.930 . S
C148 C146 1.358 . S
C148 N149 1.279 . S
C148 H189 0.930 1_455 S
N149 C147 1.314 . S
N149 C148 1.279 . S
C150 C152 1.353 . S
C150 N153 1.314 . S
C150 H156 0.926 1_545 S
C151 N153 1.279 . S
C151 C154 1.358 . S
C151 H157 0.930 . S
C152 C150 1.353 . S
C152 C155 1.348 . S
C152 H190 0.929 1_545 S
N153 Li108 1.990 . S
N153 C150 1.314 . S
N153 C151 1.279 . S
C154 C151 1.358 . S
C154 C155 1.356 . S
C154 H191 0.930 . S
C155 C152 1.348 . S
C155 C154 1.356 . S
H156 C150 0.926 1_565 S
H157 C151 0.930 . S
C158 N159 1.314 . S
C158 C160 1.353 . S
C158 H164 0.930 . S
N159 Li109 1.990 . S
N159 C158 1.314 . S
N159 C162 1.279 . S
C160 C158 1.353 . S
C160 C163 1.348 . S
C160 H192 0.929 . S
C161 C162 1.358 . S
C161 C163 1.356 . S
C161 H193 0.930 1_545 S
C162 N159 1.279 . S
C162 C161 1.358 . S
C162 H165 0.930 1_545 S
C163 C160 1.348 . S
C163 C161 1.356 . S
H164 C158 0.930 . S
H165 C162 0.930 1_565 S
O166 Li106 1.956 . S
O166 Li107 1.970 1_545 S
O166 Li108 1.961 . S
O166 C110 1.325 . S
O167 Li106 1.970 1_655 S
O167 Li107 1.956 1_645 S
O167 Li109 1.961 . S
O167 C116 1.325 . S
O168 Li106 1.961 . S
O168 Li108 1.956 . S
O168 Li109 1.970 1_455 S
O168 C138 1.325 . S
O169 Li107 1.961 . S
O169 Li108 1.970 1_565 S
O169 Li109 1.956 1_465 S
O169 C144 1.325 . S
H170 C112 0.929 1_565 S
H171 C113 0.930 . S
H172 C114 0.930 1_565 S
H173 C115 0.930 . S
H174 C117 0.930 1_565 S
H175 C119 0.929 . S
H176 C120 0.930 1_565 S
H177 C121 0.930 . S
H178 C124 0.930 . S
H179 C127 0.929 1_655 S
H180 C132 0.929 . S
H181 C133 0.930 1_655 S
H182 C140 0.929 1_655 S
H183 C141 0.930 . S
H184 C142 0.930 1_655 S
H185 C143 0.930 . S
H186 C145 0.929 . S
H187 C146 0.930 1_655 S
H188 C147 0.930 . S
H189 C148 0.930 1_655 S
H190 C152 0.929 1_565 S
H191 C154 0.930 . S
H192 C160 0.929 . S
H193 C161 0.930 1_565 S
Li194 N211 1.990 1_455 S
Li194 O254 1.956 . S
Li194 O255 1.970 . S
Li194 O256 1.961 . S
Li195 N219 1.990 . S
Li195 O254 1.970 . S
Li195 O255 1.956 . S
Li195 O257 1.961 . S
Li196 N241 1.990 . S
Li196 O254 1.961 . S
Li196 O256 1.956 . S
Li196 O257 1.970 . S
Li197 N247 1.990 1_545 S
Li197 O255 1.961 . S
Li197 O256 1.970 . S
Li197 O257 1.956 . S
C198 C200 1.348 . S
C198 C201 1.356 . S
C198 O254 1.325 . S
N199 C202 1.314 . S
N199 C203 1.279 . S
C200 C198 1.348 . S
C200 C202 1.353 . S
C200 H258 0.929 . S
C201 C198 1.356 . S
C201 C203 1.358 . S
C201 H259 0.930 . S
C202 N199 1.314 . S
C202 C200 1.353 . S
C202 H260 0.930 . S
C203 N199 1.279 . S
C203 C201 1.358 . S
C203 H261 0.930 . S
C204 C207 1.348 . S
C204 C208 1.356 . S
C204 O255 1.325 1_565 S
C205 N206 1.279 . S
C205 C208 1.358 . S
C205 H262 0.930 . S
N206 C205 1.279 . S
N206 C209 1.314 . S
C207 C204 1.348 . S
C207 C209 1.353 . S
C207 H263 0.929 . S
C208 C204 1.356 . S
C208 C205 1.358 . S
C208 H264 0.930 . S
C209 N206 1.314 . S
C209 C207 1.353 . S
C209 H265 0.930 . S
C210 N211 1.314 . S
C210 C215 1.353 . S
C210 H216 0.930 . S
N211 Li194 1.990 1_655 S
N211 C210 1.314 . S
N211 C213 1.279 . S
C212 C213 1.358 . S
C212 C214 1.356 . S
C212 H266 0.930 . S
C213 N211 1.279 . S
C213 C212 1.358 . S
C213 H217 0.930 . S
C214 C212 1.356 . S
C214 C215 1.348 . S
C215 C210 1.353 . S
C215 C214 1.348 . S
C215 H267 0.929 . S
H216 C210 0.930 . S
H217 C213 0.930 . S
C218 N219 1.314 . S
C218 C220 1.353 . S
C218 H224 0.930 . S
N219 Li195 1.990 . S
N219 C218 1.314 . S
N219 C222 1.279 . S
C220 C218 1.353 . S
C220 C223 1.348 . S
C220 H268 0.929 . S
C221 C222 1.358 . S
C221 C223 1.356 . S
C221 H269 0.930 . S
C222 N219 1.279 . S
C222 C221 1.358 . S
C222 H225 0.930 . S
C223 C220 1.348 . S
C223 C221 1.356 . S
H224 C218 0.930 . S
H225 C222 0.930 . S
C226 C228 1.348 . S
C226 C229 1.356 . S
C226 O256 1.325 1_655 S
N227 C230 1.314 . S
N227 C231 1.279 . S
C228 C226 1.348 . S
C228 C230 1.353 . S
C228 H270 0.929 . S
C229 C226 1.356 . S
C229 C231 1.358 . S
C229 H271 0.930 . S
C230 N227 1.314 . S
C230 C228 1.353 . S
C230 H272 0.930 . S
C231 N227 1.279 . S
C231 C229 1.358 . S
C231 H273 0.930 . S
C232 C233 1.348 . S
C232 C234 1.356 . S
C232 O257 1.325 . S
C233 C232 1.348 . S
C233 C235 1.353 . S
C233 H274 0.929 . S
C234 C232 1.356 . S
C234 C236 1.358 . S
C234 H275 0.930 . S
C235 C233 1.353 . S
C235 N237 1.314 . S
C235 H276 0.930 . S
C236 C234 1.358 . S
C236 N237 1.279 . S
C236 H277 0.930 . S
N237 C235 1.314 . S
N237 C236 1.279 . S
C238 C240 1.353 . S
C238 N241 1.314 . S
C238 H244 0.930 . S
C239 N241 1.279 . S
C239 C242 1.358 . S
C239 H245 0.930 . S
C240 C238 1.353 . S
C240 C243 1.348 . S
C240 H278 0.929 . S
N241 Li196 1.990 . S
N241 C238 1.314 . S
N241 C239 1.279 . S
C242 C239 1.358 . S
C242 C243 1.356 . S
C242 H279 0.930 . S
C243 C240 1.348 . S
C243 C242 1.356 . S
H244 C238 0.930 . S
H245 C239 0.930 . S
C246 N247 1.314 . S
C246 C248 1.353 . S
C246 H252 0.930 . S
N247 Li197 1.990 1_565 S
N247 C246 1.314 . S
N247 C250 1.279 . S
C248 C246 1.353 . S
C248 C251 1.348 . S
C248 H280 0.929 . S
C249 C250 1.358 . S
C249 C251 1.356 . S
C249 H281 0.930 . S
C250 N247 1.279 . S
C250 C249 1.358 . S
C250 H253 0.930 . S
C251 C248 1.348 . S
C251 C249 1.356 . S
H252 C246 0.930 . S
H253 C250 0.930 . S
O254 Li194 1.956 . S
O254 Li195 1.970 . S
O254 Li196 1.961 . S
O254 C198 1.325 . S
O255 Li194 1.970 . S
O255 Li195 1.956 . S
O255 Li197 1.961 . S
O255 C204 1.325 1_545 S
O256 Li194 1.961 . S
O256 Li196 1.956 . S
O256 Li197 1.970 . S
O256 C226 1.325 1_455 S
O257 Li195 1.961 . S
O257 Li196 1.970 . S
O257 Li197 1.956 . S
O257 C232 1.325 . S
H258 C200 0.929 . S
H259 C201 0.930 . S
H260 C202 0.930 . S
H261 C203 0.930 . S
H262 C205 0.930 . S
H263 C207 0.929 . S
H264 C208 0.930 . S
H265 C209 0.930 . S
H266 C212 0.930 . S
H267 C215 0.929 . S
H268 C220 0.929 . S
H269 C221 0.930 . S
H270 C228 0.929 . S
H271 C229 0.930 . S
H272 C230 0.930 . S
H273 C231 0.930 . S
H274 C233 0.929 . S
H275 C234 0.930 . S
H276 C235 0.930 . S
H277 C236 0.930 . S
H278 C240 0.929 . S
H279 C242 0.930 . S
H280 C248 0.929 . S
H281 C249 0.930 . S
H282 C290 0.929 . S
H283 C292 0.930 . S
H284 C294 0.930 1_565 S
H285 C297 0.929 1_565 S
H286 C300 0.930 . S
H287 C302 0.960 . S
H288 C302 0.960 . S
H289 C302 0.960 . S
C290 H282 0.929 . S
C290 C291 1.377 . S
C290 C292 1.384 . S
C291 C290 1.377 . S
C291 C297 1.390 . S
C292 H283 0.930 . S
C292 C290 1.384 . S
C292 C293 1.372 . S
C293 C292 1.372 . S
C293 C294 1.400 . S
C293 C298 1.490 . S
C294 H284 0.930 1_545 S
C294 C293 1.400 . S
C294 C297 1.386 . S
H295 C311 0.930 1_565 S
H296 C312 0.931 1_565 S
C297 H285 0.929 1_545 S
C297 C291 1.390 . S
C297 C294 1.386 . S
C298 C293 1.490 . S
C298 C300 1.395 . S
C298 C301 1.403 . S
H299 C305 0.930 . S
C300 H286 0.930 . S
C300 C298 1.395 . S
C300 C303 1.403 . S
C301 C298 1.403 . S
C301 C302 1.524 . S
C301 C305 1.400 . S
C302 H287 0.960 . S
C302 H288 0.960 . S
C302 H289 0.960 . S
C302 C301 1.524 . S
C303 C300 1.403 . S
C303 C304 1.392 . S
C303 C307 1.495 . S
C304 C303 1.392 . S
C304 C305 1.385 . S
C304 C306 1.478 . S
C305 H299 0.930 . S
C305 C301 1.400 . S
C305 C304 1.385 . S
C306 C304 1.478 . S
C306 C308 1.381 . S
C306 C312 1.383 . S
C307 C303 1.495 . S
C307 H313 0.959 . S
C307 H314 0.961 . S
C307 H315 0.960 . S
C308 C306 1.381 . S
C308 C309 1.394 . S
C308 H316 0.930 . S
C309 C308 1.394 . S
C309 C310 1.383 . S
C309 H317 0.929 . S
C310 C309 1.383 . S
C310 C311 1.377 . S
C311 H295 0.930 1_545 S
C311 C310 1.377 . S
C311 C312 1.379 . S
C312 H296 0.931 1_545 S
C312 C306 1.383 . S
C312 C311 1.379 . S
H313 C307 0.959 . S
H314 C307 0.961 . S
H315 C307 0.960 . S
H316 C308 0.930 . S
H317 C309 0.929 . S
H318 C326 0.929 . S
H319 C328 0.930 . S
H320 C330 0.930 1_655 S
H321 C333 0.929 1_655 S
H322 C336 0.930 . S
H323 C338 0.960 . S
H324 C338 0.960 . S
H325 C338 0.960 1_655 S
C326 H318 0.929 . S
C326 C327 1.377 . S
C326 C328 1.384 . S
C327 C326 1.377 . S
C327 C333 1.390 . S
C328 H319 0.930 . S
C328 C326 1.384 . S
C328 C329 1.372 . S
C329 C328 1.372 . S
C329 C330 1.400 . S
C329 C334 1.490 . S
C330 H320 0.930 1_455 S
C330 C329 1.400 . S
C330 C333 1.386 . S
H331 C347 0.930 1_655 S
H332 C348 0.931 1_655 S
C333 H321 0.929 1_455 S
C333 C327 1.390 . S
C333 C330 1.386 . S
C334 C329 1.490 . S
C334 C336 1.395 . S
C334 C337 1.403 . S
H335 C341 0.930 . S
C336 H322 0.930 . S
C336 C334 1.395 . S
C336 C339 1.403 . S
C337 C334 1.403 . S
C337 C338 1.524 . S
C337 C341 1.400 . S
C338 H323 0.960 . S
C338 H324 0.960 . S
C338 H325 0.960 1_455 S
C338 C337 1.524 . S
C339 C336 1.403 . S
C339 C340 1.392 . S
C339 C343 1.495 . S
C340 C339 1.392 . S
C340 C341 1.385 . S
C340 C342 1.478 . S
C341 H335 0.930 . S
C341 C337 1.400 . S
C341 C340 1.385 . S
C342 C340 1.478 . S
C342 C344 1.381 . S
C342 C348 1.383 . S
C343 C339 1.495 . S
C343 H349 0.959 . S
C343 H350 0.961 . S
C343 H351 0.960 . S
C344 C342 1.381 . S
C344 C345 1.394 . S
C344 H352 0.930 . S
C345 C344 1.394 . S
C345 C346 1.383 . S
C345 H353 0.929 . S
C346 C345 1.383 . S
C346 C347 1.377 . S
C347 H331 0.930 1_455 S
C347 C346 1.377 . S
C347 C348 1.379 . S
C348 H332 0.931 1_455 S
C348 C342 1.383 . S
C348 C347 1.379 . S
H349 C343 0.959 . S
H350 C343 0.961 . S
H351 C343 0.960 . S
H352 C344 0.930 . S
H353 C345 0.929 . S
H354 C362 0.929 . S
H355 C364 0.930 . S
H356 C366 0.930 1_565 S
H357 C369 0.929 1_565 S
H358 C372 0.930 . S
H359 C374 0.960 . S
H360 C374 0.960 . S
H361 C374 0.960 . S
C362 H354 0.929 . S
C362 C363 1.377 . S
C362 C364 1.384 . S
C363 C362 1.377 . S
C363 C369 1.390 . S
C364 H355 0.930 . S
C364 C362 1.384 . S
C364 C365 1.372 . S
C365 C364 1.372 . S
C365 C366 1.400 . S
C365 C370 1.490 . S
C366 H356 0.930 1_545 S
C366 C365 1.400 . S
C366 C369 1.386 . S
H367 C383 0.930 1_565 S
H368 C384 0.931 1_565 S
C369 H357 0.929 1_545 S
C369 C363 1.390 . S
C369 C366 1.386 . S
C370 C365 1.490 . S
C370 C372 1.395 . S
C370 C373 1.403 . S
H371 C377 0.916 1_565 S
C372 H358 0.930 . S
C372 C370 1.395 . S
C372 C375 1.403 . S
C373 C370 1.403 . S
C373 C374 1.524 1_545 S
C373 C377 1.400 . S
C374 H359 0.960 . S
C374 H360 0.960 . S
C374 H361 0.960 . S
C374 C373 1.524 1_565 S
C375 C372 1.403 . S
C375 C376 1.392 . S
C375 C379 1.495 . S
C376 C375 1.392 . S
C376 C377 1.385 . S
C376 C378 1.478 . S
C377 H371 0.916 1_545 S
C377 C373 1.400 . S
C377 C376 1.385 . S
C378 C376 1.478 . S
C378 C380 1.381 . S
C378 C384 1.383 . S
C379 C375 1.495 . S
C379 H385 0.959 . S
C379 H386 0.961 . S
C379 H387 0.960 . S
C380 C378 1.381 . S
C380 C381 1.394 . S
C380 H388 0.930 . S
C381 C380 1.394 . S
C381 C382 1.383 . S
C381 H389 0.929 . S
C382 C381 1.383 . S
C382 C383 1.377 . S
C383 H367 0.930 1_545 S
C383 C382 1.377 . S
C383 C384 1.379 . S
C384 H368 0.931 1_545 S
C384 C378 1.383 . S
C384 C383 1.379 . S
H385 C379 0.959 . S
H386 C379 0.961 . S
H387 C379 0.960 . S
H388 C380 0.930 . S
H389 C381 0.929 . S
H390 C398 0.929 . S
H391 C400 0.930 . S
H392 C402 0.930 1_655 S
H393 C405 0.929 1_655 S
H394 C408 0.930 . S
H395 C410 0.960 . S
H396 C410 0.960 . S
H397 C410 0.960 . S
C398 H390 0.929 . S
C398 C399 1.377 . S
C398 C400 1.384 . S
C399 C398 1.377 . S
C399 C405 1.390 . S
C400 H391 0.930 . S
C400 C398 1.384 . S
C400 C401 1.372 . S
C401 C400 1.372 . S
C401 C402 1.400 . S
C401 C406 1.490 . S
C402 H392 0.930 1_455 S
C402 C401 1.400 . S
C402 C405 1.386 . S
H403 C419 0.930 1_655 S
H404 C420 0.931 1_655 S
C405 H393 0.929 1_455 S
C405 C399 1.390 . S
C405 C402 1.386 . S
C406 C401 1.490 . S
C406 C408 1.395 . S
C406 C409 1.403 . S
H407 C413 0.930 . S
C408 H394 0.930 . S
C408 C406 1.395 . S
C408 C411 1.403 . S
C409 C406 1.403 . S
C409 C410 1.524 . S
C409 C413 1.400 . S
C410 H395 0.960 . S
C410 H396 0.960 . S
C410 H397 0.960 . S
C410 C409 1.524 . S
C411 C408 1.403 . S
C411 C412 1.392 . S
C411 C415 1.495 . S
C412 C411 1.392 . S
C412 C413 1.385 . S
C412 C414 1.478 . S
C413 H407 0.930 . S
C413 C409 1.400 . S
C413 C412 1.385 . S
C414 C412 1.478 . S
C414 C416 1.381 . S
C414 C420 1.383 . S
C415 C411 1.495 . S
C415 H421 0.959 . S
C415 H422 0.961 . S
C415 H423 0.960 . S
C416 C414 1.381 . S
C416 C417 1.394 . S
C416 H424 0.930 . S
C417 C416 1.394 . S
C417 C418 1.383 . S
C417 H425 0.929 . S
C418 C417 1.383 . S
C418 C419 1.377 . S
C419 H403 0.930 1_455 S
C419 C418 1.377 . S
C419 C420 1.379 . S
C420 H404 0.931 1_455 S
C420 C414 1.383 . S
C420 C419 1.379 . S
H421 C415 0.959 . S
H422 C415 0.961 . S
H423 C415 0.960 . S
H424 C416 0.930 . S
H425 C417 0.929 . S
H426 C434 0.929 . S
H427 C436 0.930 . S
H428 C438 0.930 1_565 S
H429 C441 0.929 1_565 S
H430 C444 0.930 . S
H431 C446 0.960 . S
H432 C446 0.960 . S
H433 C446 0.960 . S
C434 H426 0.929 . S
C434 C435 1.377 . S
C434 C436 1.384 . S
C435 C434 1.377 . S
C435 C441 1.390 . S
C436 H427 0.930 . S
C436 C434 1.384 . S
C436 C437 1.372 . S
C437 C436 1.372 . S
C437 C438 1.400 . S
C437 C442 1.490 . S
C438 H428 0.930 1_545 S
C438 C437 1.400 . S
C438 C441 1.386 . S
H439 C455 0.930 1_565 S
H440 C456 0.931 1_565 S
C441 H429 0.929 1_545 S
C441 C435 1.390 . S
C441 C438 1.386 . S
C442 C437 1.490 . S
C442 C444 1.395 . S
C442 C445 1.403 . S
H443 C449 0.930 . S
C444 H430 0.930 . S
C444 C442 1.395 . S
C444 C447 1.403 . S
C445 C442 1.403 . S
C445 C446 1.524 . S
C445 C449 1.400 . S
C446 H431 0.960 . S
C446 H432 0.960 . S
C446 H433 0.960 . S
C446 C445 1.524 . S
C447 C444 1.403 . S
C447 C448 1.392 . S
C447 C451 1.495 . S
C448 C447 1.392 . S
C448 C449 1.385 . S
C448 C450 1.478 . S
C449 H443 0.930 . S
C449 C445 1.400 . S
C449 C448 1.385 . S
C450 C448 1.478 . S
C450 C452 1.381 . S
C450 C456 1.383 . S
C451 C447 1.495 . S
C451 H457 0.959 . S
C451 H458 0.961 . S
C451 H459 0.960 . S
C452 C450 1.381 . S
C452 C453 1.394 . S
C452 H460 0.930 . S
C453 C452 1.394 . S
C453 C454 1.383 . S
C453 H461 0.929 . S
C454 C453 1.383 . S
C454 C455 1.377 . S
C455 H439 0.930 1_545 S
C455 C454 1.377 . S
C455 C456 1.379 . S
C456 H440 0.931 1_545 S
C456 C450 1.383 . S
C456 C455 1.379 . S
H457 C451 0.959 . S
H458 C451 0.961 . S
H459 C451 0.960 . S
H460 C452 0.930 . S
H461 C453 0.929 . S
H462 C470 0.929 . S
H463 C472 0.930 . S
H464 C474 0.908 1_655 S
H465 C477 0.923 1_655 S
H466 C480 0.930 . S
H467 C482 0.960 . S
H468 C482 0.960 . S
H469 C482 0.960 . S
C470 H462 0.929 . S
C470 C471 1.377 . S
C470 C472 1.384 . S
C471 C470 1.377 . S
C471 C477 1.390 . S
C472 H463 0.930 . S
C472 C470 1.384 . S
C472 C473 1.372 . S
C473 C472 1.372 . S
C473 C474 1.400 . S
C473 C478 1.490 . S
C474 H464 0.908 1_455 S
C474 C473 1.400 . S
C474 C477 1.386 . S
H475 C491 0.930 . S
H476 C492 0.931 . S
C477 H465 0.923 1_455 S
C477 C471 1.390 . S
C477 C474 1.386 . S
C478 C473 1.490 . S
C478 C480 1.395 . S
C478 C481 1.403 . S
H479 C485 0.930 1_655 S
C480 H466 0.930 . S
C480 C478 1.395 . S
C480 C483 1.403 . S
C481 C478 1.403 . S
C481 C482 1.524 1_455 S
C481 C485 1.400 . S
C482 H467 0.960 . S
C482 H468 0.960 . S
C482 H469 0.960 . S
C482 C481 1.524 1_655 S
C483 C480 1.403 . S
C483 C484 1.392 . S
C483 C487 1.495 . S
C484 C483 1.392 . S
C484 C485 1.385 . S
C484 C486 1.478 . S
C485 H479 0.930 1_455 S
C485 C481 1.400 . S
C485 C484 1.385 . S
C486 C484 1.478 . S
C486 C488 1.381 . S
C486 C492 1.383 . S
C487 C483 1.495 . S
C487 H493 0.959 . S
C487 H494 0.961 . S
C487 H495 0.960 . S
C488 C486 1.381 . S
C488 C489 1.394 . S
C488 H496 0.930 . S
C489 C488 1.394 . S
C489 C490 1.383 . S
C489 H497 0.929 . S
C490 C489 1.383 . S
C490 C491 1.377 . S
C491 H475 0.930 . S
C491 C490 1.377 . S
C491 C492 1.379 . S
C492 H476 0.931 . S
C492 C486 1.383 . S
C492 C491 1.379 . S
H493 C487 0.959 . S
H494 C487 0.961 . S
H495 C487 0.960 . S
H496 C488 0.930 . S
H497 C489 0.929 . S
H498 C506 0.929 . S
H499 C508 0.930 . S
H500 C510 0.930 1_565 S
H501 C513 0.929 1_565 S
H502 C516 0.930 . S
H503 C518 0.960 . S
H504 C518 0.960 . S
H505 C518 0.960 . S
C506 H498 0.929 . S
C506 C507 1.377 . S
C506 C508 1.384 . S
C507 C506 1.377 . S
C507 C513 1.390 . S
C508 H499 0.930 . S
C508 C506 1.384 . S
C508 C509 1.372 . S
C509 C508 1.372 . S
C509 C510 1.400 . S
C509 C514 1.490 . S
C510 H500 0.930 1_545 S
C510 C509 1.400 . S
C510 C513 1.386 . S
H511 C527 0.930 1_565 S
H512 C528 0.931 1_565 S
C513 H501 0.929 1_545 S
C513 C507 1.390 . S
C513 C510 1.386 . S
C514 C509 1.490 . S
C514 C516 1.395 . S
C514 C517 1.403 . S
H515 C521 0.930 . S
C516 H502 0.930 . S
C516 C514 1.395 . S
C516 C519 1.403 . S
C517 C514 1.403 . S
C517 C518 1.524 . S
C517 C521 1.400 . S
C518 H503 0.960 . S
C518 H504 0.960 . S
C518 H505 0.960 . S
C518 C517 1.524 . S
C519 C516 1.403 . S
C519 C520 1.392 . S
C519 C523 1.495 . S
C520 C519 1.392 . S
C520 C521 1.385 . S
C520 C522 1.478 . S
C521 H515 0.930 . S
C521 C517 1.400 . S
C521 C520 1.385 . S
C522 C520 1.478 . S
C522 C524 1.381 . S
C522 C528 1.383 . S
C523 C519 1.495 . S
C523 H529 0.959 . S
C523 H530 0.961 . S
C523 H531 0.960 . S
C524 C522 1.381 . S
C524 C525 1.394 . S
C524 H532 0.930 . S
C525 C524 1.394 . S
C525 C526 1.383 . S
C525 H533 0.929 . S
C526 C525 1.383 . S
C526 C527 1.377 . S
C527 H511 0.930 1_545 S
C527 C526 1.377 . S
C527 C528 1.379 . S
C528 H512 0.931 1_545 S
C528 C522 1.383 . S
C528 C527 1.379 . S
H529 C523 0.959 . S
H530 C523 0.961 . S
H531 C523 0.960 . S
H532 C524 0.930 . S
H533 C525 0.929 . S
H534 C542 0.929 1_655 S
H535 C544 0.930 1_655 S
H536 C546 0.930 . S
H537 C549 0.929 . S
H538 C552 0.930 . S
H539 C554 0.960 . S
H540 C554 0.960 . S
H541 C554 0.960 . S
C542 H534 0.929 1_455 S
C542 C543 1.377 . S
C542 C544 1.384 . S
C543 C542 1.377 . S
C543 C549 1.390 . S
C544 H535 0.930 1_455 S
C544 C542 1.384 . S
C544 C545 1.372 . S
C545 C544 1.372 . S
C545 C546 1.400 . S
C545 C550 1.490 . S
C546 H536 0.930 . S
C546 C545 1.400 . S
C546 C549 1.386 . S
H547 C563 0.930 . S
H548 C564 0.931 . S
C549 H537 0.929 . S
C549 C543 1.390 . S
C549 C546 1.386 . S
C550 C545 1.490 . S
C550 C552 1.395 . S
C550 C553 1.403 . S
H551 C557 0.930 . S
C552 H538 0.930 . S
C552 C550 1.395 . S
C552 C555 1.403 . S
C553 C550 1.403 . S
C553 C554 1.524 . S
C553 C557 1.400 . S
C554 H539 0.960 . S
C554 H540 0.960 . S
C554 H541 0.960 . S
C554 C553 1.524 . S
C555 C552 1.403 . S
C555 C556 1.392 . S
C555 C559 1.495 . S
C556 C555 1.392 . S
C556 C557 1.385 . S
C556 C558 1.478 . S
C557 H551 0.930 . S
C557 C553 1.400 . S
C557 C556 1.385 . S
C558 C556 1.478 . S
C558 C560 1.381 . S
C558 C564 1.383 . S
C559 C555 1.495 . S
C559 H565 0.959 . S
C559 H566 0.961 . S
C559 H567 0.960 . S
C560 C558 1.381 . S
C560 C561 1.394 . S
C560 H568 0.930 1_455 S
C561 C560 1.394 . S
C561 C562 1.383 . S
C561 H569 0.929 1_455 S
C562 C561 1.383 . S
C562 C563 1.377 . S
C563 H547 0.930 . S
C563 C562 1.377 . S
C563 C564 1.379 . S
C564 H548 0.931 . S
C564 C558 1.383 . S
C564 C563 1.379 . S
H565 C559 0.959 . S
H566 C559 0.961 . S
H567 C559 0.960 . S
H568 C560 0.930 1_655 S
H569 C561 0.929 1_655 S
C310 C155 1.486 . S
C291 C22 1.489 . S
C346 C243 1.485 . S
C327 C91 1.487 . S
C382 C163 1.486 . S
C363 C38 1.487 . S
C418 C251 1.486 . S
C399 C75 1.489 . S
C454 C223 1.485 . S
C435 C39 1.487 . S
C490 C126 1.484 . S
C471 C82 1.489 . S
C526 C214 1.486 . S
C507 C29 1.489 . S
C543 C92 1.487 . S
C562 C135 1.484 . S
