# Generated by pormake.
# Topology rtl, (3,6)-cn, num edge types: 1
# Building blocks:
#     Node 0, Type 0, BuildingBlock: OLANEW_clean_sbu_2, # of connection points: 3
#     Node 1, Type 0, BuildingBlock: OLANEW_clean_sbu_2, # of connection points: 3
#     Node 2, Type 0, BuildingBlock: OLANEW_clean_sbu_2, # of connection points: 3
#     Node 3, Type 0, BuildingBlock: OLANEW_clean_sbu_2, # of connection points: 3
#     Node 4, Type 1, BuildingBlock: KUMBUR_clean_sbu_1, # of connection points: 6
#     Node 5, Type 1, BuildingBlock: KUMBUR_clean_sbu_1, # of connection points: 6
#     Edge 6, Type (0, 1), BuildingBlock: TEMPAE_clean_linker_10, # of connection points: 2
#     Edge 7, Type (0, 1), BuildingBlock: TEMPAE_clean_linker_10, # of connection points: 2
#     Edge 8, Type (0, 1), BuildingBlock: TEMPAE_clean_linker_10, # of connection points: 2
#     Edge 9, Type (0, 1), BuildingBlock: TEMPAE_clean_linker_10, # of connection points: 2
#     Edge 10, Type (0, 1), BuildingBlock: TEMPAE_clean_linker_10, # of connection points: 2
#     Edge 11, Type (0, 1), BuildingBlock: TEMPAE_clean_linker_10, # of connection points: 2
#     Edge 12, Type (0, 1), BuildingBlock: TEMPAE_clean_linker_10, # of connection points: 2
#     Edge 13, Type (0, 1), BuildingBlock: TEMPAE_clean_linker_10, # of connection points: 2
#     Edge 14, Type (0, 1), BuildingBlock: TEMPAE_clean_linker_10, # of connection points: 2
#     Edge 15, Type (0, 1), BuildingBlock: TEMPAE_clean_linker_10, # of connection points: 2
#     Edge 16, Type (0, 1), BuildingBlock: TEMPAE_clean_linker_10, # of connection points: 2
#     Edge 17, Type (0, 1), BuildingBlock: TEMPAE_clean_linker_10, # of connection points: 2
# Relax obj value: 0.043
# Max RMSD: 0.166
# Mean RMSD: 0.131
data_MOF--net-rtl--node1-OLANEW_clean_sbu_2--node2-KUMBUR_clean_sbu_1--edge1-TEMPAE_clean_linker_10
_symmetry_space_group_name_H-M    P1
_symmetry_Int_Tables_number       1
_symmetry_cell_setting            triclinic
loop_
_symmetry_equiv_pos_as_xyz
'x, y, z'
_cell_length_a     38.168865
_cell_length_b     38.008877
_cell_length_c     29.446855
_cell_angle_alpha  75.739244
_cell_angle_beta   102.72592
_cell_angle_gamma 91.021774
loop_
_atom_site_label
_atom_site_type_symbol
_atom_site_fract_x
_atom_site_fract_y
_atom_site_fract_z
_atom_type_partial_charge
O0 O 0.24213 0.86167 0.96324 0.0
Cd1 Cd 0.2825 0.83144 0.03917 0.0
O2 O 0.21301 0.88628 0.00429 0.0
Cd3 Cd 0.17508 0.91753 0.02688 0.0
O4 O 0.14559 0.93541 0.0737 0.0
C5 C 0.11557 0.92186 0.0787 0.0
O6 O 0.1021 0.8986 0.05366 0.0
C7 C 0.21619 0.88197 0.96379 0.0
C8 C 0.32585 0.77644 0.02986 0.0
O9 O 0.29414 0.77021 0.037 0.0
O10 O 0.33701 0.80877 0.02685 0.0
O11 O 0.64297 0.76001 0.70392 0.0
Cd12 Cd 0.6554 0.80287 0.63252 0.0
O13 O 0.63163 0.72478 0.65475 0.0
Cd14 Cd 0.61873 0.67854 0.6228 0.0
O15 O 0.61642 0.64597 0.57068 0.0
C16 C 0.58773 0.64338 0.54031 0.0
O17 O 0.55785 0.65936 0.54163 0.0
C18 C 0.63262 0.72958 0.69632 0.0
C19 C 0.72422 0.83026 0.63845 0.0
O20 O 0.69855 0.84808 0.64548 0.0
O21 O 0.7177 0.79892 0.63026 0.0
O22 O 0.75317 0.13322 0.17903 0.0
Cd23 Cd 0.70856 0.14665 0.10245 0.0
O24 O 0.78297 0.10722 0.13998 0.0
Cd25 Cd 0.82913 0.08019 0.1285 0.0
O26 O 0.86679 0.06646 0.08903 0.0
C27 C 0.86101 0.08409 0.04526 0.0
O28 O 0.83401 0.10814 0.02866 0.0
C29 C 0.7808 0.1152 0.17875 0.0
C30 C 0.67335 0.21462 0.07738 0.0
O31 O 0.66039 0.18654 0.10128 0.0
O32 O 0.70329 0.21061 0.06592 0.0
O33 O 0.346 0.26015 0.57971 0.0
Cd34 Cd 0.32996 0.22672 0.51721 0.0
O35 O 0.36682 0.30069 0.52691 0.0
Cd36 Cd 0.38879 0.34932 0.48701 0.0
O37 O 0.40712 0.38197 0.42481 0.0
C38 C 0.40965 0.36562 0.39276 0.0
O39 O 0.40156 0.33124 0.39947 0.0
C40 C 0.36081 0.29038 0.56897 0.0
C41 C 0.26724 0.18816 0.52101 0.0
O42 O 0.29824 0.17272 0.54142 0.0
O43 O 0.26588 0.22189 0.49911 0.0
Tb44 Tb 0.02175 0.96359 0.54352 0.0
C45 C 0.93711 0.10201 0.51794 0.0
N46 N 0.97077 0.09159 0.54494 0.0
C47 C 0.99248 0.14904 0.50855 0.0
C48 C 0.93018 0.13567 0.48355 0.0
C49 C 0.99785 0.11559 0.54269 0.0
C50 C 0.95866 0.15885 0.47821 0.0
C51 C 0.87354 0.0898 0.50118 0.0
C52 C 0.90911 0.0796 0.5266 0.0
C53 C 0.86664 0.12274 0.46581 0.0
C54 C 0.89493 0.14557 0.45685 0.0
Tb55 Tb 0.97591 0.03493 0.59703 0.0
N56 N 0.91692 0.04757 0.56026 0.0
C57 C 0.84603 0.06669 0.51248 0.0
C58 C 0.89012 0.02582 0.57333 0.0
C59 C 0.85433 0.03475 0.54913 0.0
H60 H 0.02352 0.10972 0.56772 0.0
H61 H 0.83319 0.01709 0.55882 0.0
H62 H 0.99781 0.88564 0.60438 0.0
H63 H 0.15288 0.00793 0.51692 0.0
H64 H 0.89644 0.00146 0.6021 0.0
H65 H 0.81831 0.0735 0.49368 0.0
H66 H 0.08687 0.0057 0.49443 0.0
H67 H 0.0143 0.16752 0.50628 0.0
H68 H 0.83949 0.13107 0.44574 0.0
H69 H 0.88913 0.1712 0.43 0.0
H70 H 0.02703 0.83268 0.66857 0.0
H71 H 0.9545 0.18494 0.45218 0.0
H72 H 0.18719 0.96449 0.58974 0.0
N73 N 0.04652 0.91327 0.60169 0.0
C74 C 0.08278 0.91157 0.61703 0.0
C75 C 0.043 0.85483 0.65459 0.0
C76 C 0.10062 0.88222 0.65363 0.0
C77 C 0.02654 0.88477 0.61833 0.0
C78 C 0.08016 0.85379 0.67285 0.0
N79 N 0.08327 0.965 0.55712 0.0
C80 C 0.10133 0.98815 0.52772 0.0
C81 C 0.13964 0.93798 0.60788 0.0
C82 C 0.10181 0.93897 0.59458 0.0
C83 C 0.15811 0.96421 0.58079 0.0
C84 C 0.13886 0.98886 0.53979 0.0
H85 H 0.09282 0.83069 0.70107 0.0
H86 H 0.15247 0.85991 0.6975 0.0
H87 H 0.18675 0.9089 0.65749 0.0
O88 O 0.04033 0.94624 0.48969 0.0
O89 O 0.02828 0.95605 0.62156 0.0
O90 O 0.03035 0.01351 0.6332 0.0
O91 O 0.99055 0.92845 0.50798 0.0
O92 O 0.03466 0.02144 0.5217 0.0
O93 O 0.03033 0.04579 0.58519 0.0
O94 O 0.96134 0.02029 0.66388 0.0
O95 O 0.94835 0.01926 0.53162 0.0
O96 O 0.99354 0.01277 0.49449 0.0
O97 O 0.97212 0.07557 0.6331 0.0
O98 O 0.96395 0.97745 0.62057 0.0
O99 O 0.96807 0.9516 0.55792 0.0
C100 C 0.0411 0.97919 0.64697 0.0
C101 C 0.99253 0.93907 0.42611 0.0
C102 C 0.99469 0.94784 0.34154 0.0
C103 C 0.95719 0.95419 0.32867 0.0
C104 C 0.95508 0.94576 0.41209 0.0
C105 C 0.93766 0.95292 0.36381 0.0
C106 C 0.01218 0.94012 0.39058 0.0
C107 C 0.04509 0.04406 0.54922 0.0
C108 C 0.01088 0.92987 0.4776 0.0
C109 C 0.1382 0.88198 0.66897 0.0
C110 C 0.1577 0.90992 0.64625 0.0
C111 C 0.96041 0.0227 0.49247 0.0
C112 C 0.99018 0.05402 0.71707 0.0
C113 C 0.99805 0.05318 0.80183 0.0
C114 C 0.03542 0.05491 0.80583 0.0
C115 C 0.0275 0.05615 0.72158 0.0
C116 C 0.97561 0.05254 0.75716 0.0
C117 C 0.04996 0.05639 0.76586 0.0
C118 C 0.95424 0.95366 0.59463 0.0
C119 C 0.96628 0.05256 0.67109 0.0
H120 H 0.94278 0.95927 0.29149 0.0
H121 H 0.93901 0.94502 0.43836 0.0
H122 H 0.90877 0.9569 0.35376 0.0
H123 H 0.04104 0.93501 0.40115 0.0
H124 H 0.05336 0.05507 0.83985 0.0
H125 H 0.03921 0.05776 0.69088 0.0
H126 H 0.94672 0.05154 0.75327 0.0
H127 H 0.07872 0.05791 0.76917 0.0
Tb128 Tb 0.47203 0.50222 0.97351 0.0
C129 C 0.62113 0.56648 0.02461 0.0
N130 N 0.6111 0.53194 0.0403 0.0
C131 C 0.66351 0.5085 0.02358 0.0
C132 C 0.65264 0.57341 0.00688 0.0
C133 C 0.632 0.50297 0.04081 0.0
C134 C 0.67381 0.54387 0.00633 0.0
C135 C 0.60913 0.63109 0.0104 0.0
C136 C 0.59927 0.59487 0.02572 0.0
C137 C 0.64027 0.6382 0.99216 0.0
C138 C 0.6619 0.60945 0.99022 0.0
Tb139 Tb 0.55911 0.52605 0.06704 0.0
N140 N 0.56942 0.58694 0.04395 0.0
C141 C 0.58814 0.65903 0.0155 0.0
C142 C 0.5514 0.61399 0.05381 0.0
C143 C 0.5596 0.65036 0.03825 0.0
H144 H 0.62423 0.47565 0.0544 0.0
H145 H 0.54446 0.67162 0.04496 0.0
H146 H 0.41056 0.56886 0.94791 0.0
H147 H 0.47096 0.35838 0.05739 0.0
H148 H 0.53135 0.60795 0.07495 0.0
H149 H 0.59477 0.6872 0.00411 0.0
H150 H 0.49586 0.41357 0.01553 0.0
H151 H 0.67984 0.48549 0.02363 0.0
H152 H 0.64821 0.66586 0.98024 0.0
H153 H 0.68592 0.61537 0.97623 0.0
H154 H 0.35006 0.57687 0.96167 0.0
H155 H 0.69817 0.54808 0.99284 0.0
H156 H 0.41069 0.36092 0.07484 0.0
N157 N 0.41562 0.5126 0.9828 0.0
C158 C 0.39916 0.48307 0.00404 0.0
C159 C 0.36368 0.55037 0.9741 0.0
C160 C 0.3644 0.48619 0.012 0.0
C161 C 0.39822 0.54589 0.96704 0.0
C162 C 0.34673 0.52042 0.99685 0.0
N163 N 0.45193 0.44834 0.01232 0.0
C164 C 0.47041 0.41575 0.02441 0.0
C165 C 0.40212 0.41861 0.04226 0.0
C166 C 0.41783 0.44976 0.01903 0.0
C167 C 0.42179 0.38552 0.05689 0.0
C168 C 0.45592 0.38404 0.04743 0.0
H169 H 0.32 0.52399 0.00233 0.0
H170 H 0.32197 0.45706 0.04173 0.0
H171 H 0.35498 0.39789 0.06821 0.0
O172 O 0.46915 0.47255 0.92087 0.0
O173 O 0.46775 0.49599 0.04857 0.0
O174 O 0.52563 0.48093 0.08952 0.0
O175 O 0.43592 0.52065 0.90686 0.0
O176 O 0.52312 0.47159 0.98379 0.0
O177 O 0.55473 0.47003 0.06115 0.0
O178 O 0.56377 0.53966 0.13389 0.0
O179 O 0.562 0.53049 0.99206 0.0
O180 O 0.50487 0.54716 0.94642 0.0
O181 O 0.60311 0.50361 0.12304 0.0
O182 O 0.50711 0.55439 0.05702 0.0
O183 O 0.47765 0.55875 0.978 0.0
C184 C 0.49146 0.48361 0.089 0.0
C185 C 0.41135 0.47441 0.86972 0.0
C186 C 0.38417 0.43965 0.81209 0.0
C187 C 0.35119 0.44191 0.82525 0.0
C188 C 0.37792 0.47666 0.88169 0.0
C189 C 0.34821 0.4602 0.85991 0.0
C190 C 0.41438 0.45559 0.83504 0.0
C191 C 0.54864 0.45762 0.02223 0.0
C192 C 0.44268 0.493 0.89118 0.0
C193 C 0.34863 0.45522 0.03515 0.0
C194 C 0.36745 0.42152 0.05026 0.0
C195 C 0.54003 0.54918 0.95315 0.0
C196 C 0.61332 0.51423 0.2027 0.0
C197 C 0.6194 0.52353 0.28315 0.0
C198 C 0.64948 0.49931 0.29971 0.0
C199 C 0.64367 0.49033 0.21999 0.0
C200 C 0.6015 0.53115 0.23442 0.0
C201 C 0.66162 0.48303 0.26817 0.0
C202 C 0.48328 0.57016 0.01769 0.0
C203 C 0.59281 0.5191 0.15271 0.0
H204 H 0.32767 0.42944 0.80872 0.0
H205 H 0.37442 0.49161 0.90722 0.0
H206 H 0.32263 0.462 0.86953 0.0
H207 H 0.43989 0.45427 0.82495 0.0
H208 H 0.66384 0.49331 0.33699 0.0
H209 H 0.65327 0.47679 0.19646 0.0
H210 H 0.57796 0.54941 0.22167 0.0
H211 H 0.68488 0.46448 0.2812 0.0
C212 C 0.23574 0.12954 0.53634 0.0
C213 C 0.234 0.16763 0.52266 0.0
C214 C 0.20449 0.10972 0.53837 0.0
C215 C 0.17071 0.12845 0.52692 0.0
C216 C 0.16877 0.1669 0.51295 0.0
C217 C 0.20041 0.18603 0.51063 0.0
C218 C 0.20763 0.06872 0.55236 0.0
C219 C 0.13333 0.18784 0.50142 0.0
C220 C 0.08547 0.07722 0.49745 0.0
C221 C 0.07615 0.06699 0.54219 0.0
C222 C 0.1163 0.09711 0.49187 0.0
C223 C 0.13763 0.10786 0.53168 0.0
C224 C 0.1276 0.0986 0.57651 0.0
C225 C 0.09713 0.07816 0.58126 0.0
C226 C 0.1264 0.10605 0.44367 0.0
C227 C 0.14942 0.10977 0.61976 0.0
H228 H 0.26157 0.11515 0.54518 0.0
H229 H 0.19889 0.21547 0.50016 0.0
H230 H 0.1935 0.0575 0.58163 0.0
H231 H 0.19459 0.05824 0.52102 0.0
H232 H 0.23604 0.05836 0.5643 0.0
H233 H 0.13631 0.21767 0.49026 0.0
H234 H 0.11416 0.17941 0.47217 0.0
H235 H 0.12128 0.18164 0.5334 0.0
H236 H 0.06889 0.06929 0.46693 0.0
H237 H 0.09005 0.07044 0.61597 0.0
H238 H 0.15327 0.09358 0.44735 0.0
H239 H 0.12827 0.13585 0.43064 0.0
H240 H 0.10672 0.09613 0.41618 0.0
H241 H 0.17692 0.09716 0.62948 0.0
H242 H 0.13717 0.10159 0.65153 0.0
H243 H 0.15211 0.13966 0.61114 0.0
C244 C 0.38582 0.75206 0.0278 0.0
C245 C 0.34908 0.74701 0.02596 0.0
C246 C 0.40838 0.72398 0.02575 0.0
C247 C 0.39374 0.69022 0.02115 0.0
C248 C 0.35657 0.68515 0.01842 0.0
C249 C 0.33472 0.71354 0.02115 0.0
C250 C 0.44797 0.73022 0.02926 0.0
C251 C 0.33993 0.64967 0.01283 0.0
C252 C 0.44573 0.62691 0.97582 0.0
C253 C 0.46119 0.60142 0.01858 0.0
C254 C 0.42368 0.65597 0.97607 0.0
C255 C 0.41743 0.65989 0.02024 0.0
C256 C 0.43354 0.63459 0.06363 0.0
C257 C 0.4551 0.60556 0.06224 0.0
C258 C 0.40677 0.68225 0.92904 0.0
C259 C 0.42775 0.63801 0.11149 0.0
H260 H 0.39713 0.7778 0.03166 0.0
H261 H 0.30632 0.70951 0.01941 0.0
H262 H 0.46395 0.71055 0.06116 0.0
H263 H 0.45602 0.72551 0.9972 0.0
H264 H 0.45507 0.75818 0.03218 0.0
H265 H 0.31046 0.65033 0.0103 0.0
H266 H 0.34498 0.64322 0.98002 0.0
H267 H 0.35255 0.62723 0.04385 0.0
H268 H 0.45071 0.62402 0.94205 0.0
H269 H 0.46692 0.58583 0.09538 0.0
H270 H 0.4149 0.71027 0.92998 0.0
H271 H 0.37706 0.68213 0.92343 0.0
H272 H 0.41449 0.67547 0.89786 0.0
H273 H 0.43605 0.66502 0.11714 0.0
H274 H 0.44306 0.61667 0.14203 0.0
H275 H 0.39877 0.63603 0.11182 0.0
C276 C 0.76321 0.88394 0.62937 0.0
C277 C 0.75977 0.84626 0.6371 0.0
C278 C 0.79597 0.89993 0.62395 0.0
C279 C 0.82623 0.87762 0.62736 0.0
C280 C 0.82324 0.83945 0.6367 0.0
C281 C 0.78992 0.82424 0.64093 0.0
C282 C 0.7979 0.9408 0.61311 0.0
C283 C 0.8551 0.81473 0.64157 0.0
C284 C 0.89926 0.92187 0.56582 0.0
C285 C 0.92346 0.93115 0.60392 0.0
C286 C 0.86772 0.90398 0.57308 0.0
C287 C 0.86068 0.89445 0.61977 0.0
C288 C 0.88577 0.90255 0.65869 0.0
C289 C 0.91669 0.9212 0.65018 0.0
C290 C 0.84131 0.89652 0.53046 0.0
C291 C 0.87956 0.89227 0.70911 0.0
H292 H 0.73995 0.90114 0.62599 0.0
H293 H 0.78745 0.79508 0.64711 0.0
H294 H 0.81956 0.94878 0.64017 0.0
H295 H 0.80464 0.95122 0.57752 0.0
H296 H 0.7722 0.95425 0.61273 0.0
H297 H 0.84887 0.78555 0.65162 0.0
H298 H 0.86393 0.82037 0.60711 0.0
H299 H 0.87804 0.82006 0.66923 0.0
H300 H 0.9042 0.92999 0.52988 0.0
H301 H 0.93547 0.92828 0.6797 0.0
H302 H 0.81549 0.91162 0.52501 0.0
H303 H 0.8356 0.8672 0.53724 0.0
H304 H 0.85131 0.90466 0.49681 0.0
H305 H 0.85565 0.90768 0.71074 0.0
H306 H 0.90297 0.89795 0.73592 0.0
H307 H 0.87399 0.86296 0.71939 0.0
C308 C 0.62016 0.25396 0.07265 0.0
C309 C 0.65437 0.25062 0.06364 0.0
C310 C 0.60233 0.28802 0.06134 0.0
C311 C 0.61924 0.31954 0.04083 0.0
C312 C 0.65337 0.31629 0.03051 0.0
C313 C 0.6705 0.28184 0.04192 0.0
C314 C 0.56587 0.29039 0.07272 0.0
C315 C 0.67234 0.34932 0.00897 0.0
C316 C 0.56184 0.40696 0.9864 0.0
C317 C 0.56817 0.42343 0.02505 0.0
C318 C 0.57864 0.37331 0.99061 0.0
C319 C 0.60259 0.35604 0.03427 0.0
C320 C 0.60984 0.37303 0.07282 0.0
C321 C 0.59243 0.4063 0.06785 0.0
C322 C 0.57014 0.35584 0.94885 0.0
C323 C 0.63543 0.35568 0.11986 0.0
H324 H 0.60737 0.22996 0.08907 0.0
H325 H 0.69689 0.27949 0.03468 0.0
H326 H 0.56777 0.30507 0.10136 0.0
H327 H 0.54638 0.30605 0.04059 0.0
H328 H 0.55515 0.26317 0.08501 0.0
H329 H 0.69755 0.34198 0.9999 0.0
H330 H 0.65445 0.36589 0.97593 0.0
H331 H 0.67905 0.36665 0.03477 0.0
H332 H 0.54317 0.41993 0.9532 0.0
H333 H 0.59764 0.41862 0.09805 0.0
H334 H 0.55687 0.32981 0.95935 0.0
H335 H 0.59529 0.3494 0.93904 0.0
H336 H 0.55219 0.3735 0.91668 0.0
H337 H 0.62488 0.32957 0.13703 0.0
H338 H 0.63949 0.37332 0.14543 0.0
H339 H 0.66194 0.34951 0.11338 0.0
C340 C 0.06464 0.91421 0.12083 0.0
C341 C 0.09744 0.92983 0.11496 0.0
C342 C 0.04831 0.91934 0.15715 0.0
C343 C 0.06517 0.94062 0.18845 0.0
C344 C 0.09779 0.95728 0.18197 0.0
C345 C 0.11353 0.9517 0.14529 0.0
C346 C 0.0134 0.9013 0.16269 0.0
C347 C 0.11647 0.98029 0.21447 0.0
C348 C 0.00671 0.97401 0.25962 0.0
C349 C 0.01494 0.94781 0.30374 0.0
C350 C 0.02346 0.97257 0.22214 0.0
C351 C 0.04918 0.94429 0.22895 0.0
C352 C 0.05843 0.91842 0.27387 0.0
C353 C 0.0412 0.92048 0.31069 0.0
C354 C 0.01297 0.00074 0.17486 0.0
C355 C 0.08571 0.88784 0.28254 0.0
H356 H 0.05189 0.89741 0.09748 0.0
H357 H 0.13884 0.96395 0.14101 0.0
H358 H 0.01723 0.88173 0.19839 0.0
H359 H 0.9926 0.9219 0.161 0.0
H360 H 0.00318 0.88655 0.1345 0.0
H361 H 0.14073 0.9928 0.20323 0.0
H362 H 0.0978 0.00222 0.21479 0.0
H363 H 0.12468 0.96337 0.25188 0.0
H364 H 0.98684 0.99554 0.25423 0.0
H365 H 0.04743 0.8999 0.34442 0.0
H366 H 1.0004 0.98741 0.14606 0.0
H367 H 0.03719 0.01411 0.16478 0.0
H368 H 0.99374 0.02192 0.17606 0.0
H369 H 0.07573 0.86994 0.25822 0.0
H370 H 0.09131 0.87111 0.32023 0.0
H371 H 0.11131 0.89886 0.27422 0.0
C372 C 0.60067 0.67252 0.7243 0.0
C373 C 0.62175 0.70129 0.73494 0.0
C374 C 0.58907 0.64667 0.7605 0.0
C375 C 0.59804 0.65006 0.80848 0.0
C376 C 0.61925 0.67906 0.81951 0.0
C377 C 0.63105 0.70411 0.78274 0.0
C378 C 0.56649 0.61616 0.74719 0.0
C379 C 0.6296 0.68372 0.87012 0.0
C380 C 0.5356 0.6067 0.88903 0.0
C381 C 0.55504 0.5747 0.91627 0.0
C382 C 0.54957 0.63167 0.85442 0.0
C383 C 0.58367 0.62428 0.84648 0.0
C384 C 0.60348 0.59203 0.87408 0.0
C385 C 0.58887 0.56758 0.90861 0.0
C386 C 0.52794 0.66613 0.82659 0.0
C387 C 0.64001 0.58327 0.86701 0.0
H388 H 0.59218 0.67066 0.68755 0.0
H389 H 0.64734 0.7262 0.79145 0.0
H390 H 0.57862 0.58959 0.77002 0.0
H391 H 0.53927 0.61877 0.75387 0.0
H392 H 0.56368 0.61604 0.70886 0.0
H393 H 0.64082 0.71072 0.87138 0.0
H394 H 0.60614 0.68033 0.88715 0.0
H395 H 0.65031 0.66254 0.89184 0.0
H396 H 0.5096 0.6125 0.8953 0.0
H397 H 0.60376 0.54266 0.92932 0.0
H398 H 0.52195 0.66745 0.78758 0.0
H399 H 0.54381 0.6901 0.83199 0.0
H400 H 0.50217 0.66808 0.83764 0.0
H401 H 0.63822 0.58313 0.82893 0.0
H402 H 0.65143 0.55653 0.89032 0.0
H403 H 0.65886 0.60455 0.87527 0.0
C404 C 0.82694 0.06923 0.23301 0.0
C405 C 0.80939 0.10322 0.22276 0.0
C406 C 0.85285 0.05643 0.27575 0.0
C407 C 0.86159 0.07821 0.30906 0.0
C408 C 0.84449 0.11301 0.29832 0.0
C409 C 0.81816 0.12488 0.25558 0.0
C410 C 0.86975 0.01896 0.28605 0.0
C411 C 0.85305 0.13733 0.33248 0.0
C412 C 0.89855 0.03123 0.44052 0.0
C413 C 0.93552 0.03607 0.44523 0.0
C414 C 0.87424 0.04482 0.39648 0.0
C415 C 0.88723 0.06375 0.35607 0.0
C416 C 0.92465 0.06844 0.36053 0.0
C417 C 0.94841 0.05428 0.40504 0.0
C418 C 0.83464 0.03902 0.39336 0.0
C419 C 0.93947 0.0889 0.31848 0.0
H420 H 0.8194 0.05194 0.20845 0.0
H421 H 0.80449 0.15115 0.24777 0.0
H422 H 0.89943 0.01991 0.29613 0.0
H423 H 0.86072 0.00109 0.3169 0.0
H424 H 0.86238 0.00669 0.25483 0.0
H425 H 0.84418 0.16601 0.31439 0.0
H426 H 0.83881 0.12786 0.36199 0.0
H427 H 0.88228 0.13631 0.34869 0.0
H428 H 0.88858 0.01657 0.47134 0.0
H429 H 0.97701 0.05814 0.40866 0.0
H430 H 0.82353 0.02582 0.36384 0.0
H431 H 0.82006 0.06563 0.38495 0.0
H432 H 0.82918 0.02197 0.42738 0.0
H433 H 0.93236 0.07536 0.28851 0.0
H434 H 0.96916 0.09069 0.32804 0.0
H435 H 0.92719 0.11683 0.30511 0.0
C436 C 0.39128 0.34272 0.59841 0.0
C437 C 0.36905 0.3129 0.60451 0.0
C438 C 0.39761 0.36463 0.63136 0.0
C439 C 0.38164 0.35628 0.67164 0.0
C440 C 0.36016 0.32554 0.67883 0.0
C441 C 0.35413 0.30432 0.64526 0.0
C442 C 0.4208 0.3971 0.62259 0.0
C443 C 0.34274 0.31553 0.72142 0.0
C444 C 0.41338 0.39443 0.78119 0.0
C445 C 0.38634 0.42101 0.77394 0.0
C446 C 0.41314 0.37402 0.74723 0.0
C447 C 0.38538 0.38065 0.70496 0.0
C448 C 0.3591 0.40873 0.69646 0.0
C449 C 0.35984 0.42845 0.7311 0.0
C450 C 0.44155 0.34423 0.75769 0.0
C451 C 0.32927 0.41698 0.65168 0.0
H452 H 0.40389 0.34899 0.56811 0.0
H453 H 0.33708 0.28124 0.65063 0.0
H454 H 0.40452 0.42239 0.6167 0.0
H455 H 0.44289 0.39579 0.65461 0.0
H456 H 0.43264 0.39895 0.59087 0.0
H457 H 0.32846 0.28967 0.72326 0.0
H458 H 0.3633 0.31284 0.75533 0.0
H459 H 0.32314 0.33742 0.71924 0.0
H460 H 0.43383 0.38854 0.81435 0.0
H461 H 0.33923 0.44941 0.72504 0.0
H462 H 0.45357 0.34629 0.72614 0.0
H463 H 0.42906 0.31742 0.76483 0.0
H464 H 0.46335 0.34509 0.78935 0.0
H465 H 0.34055 0.421 0.6192 0.0
H466 H 0.31277 0.44159 0.64859 0.0
H467 H 0.3114 0.39361 0.65209 0.0
C468 C 0.62169 0.6131 0.496 0.0
C469 C 0.58867 0.62461 0.50201 0.0
C470 C 0.6234 0.59676 0.45871 0.0
C471 C 0.59128 0.5914 0.42683 0.0
C472 C 0.55778 0.60246 0.43301 0.0
C473 C 0.55688 0.61911 0.47042 0.0
C474 C 0.6597 0.58553 0.45316 0.0
C475 C 0.52296 0.59677 0.40006 0.0
C476 C 0.60401 0.57882 0.30744 0.0
C477 C 0.60731 0.54092 0.31711 0.0
C478 C 0.59723 0.59573 0.34217 0.0
C479 C 0.59316 0.57411 0.38722 0.0
C480 C 0.59433 0.53577 0.39593 0.0
C481 C 0.60172 0.51963 0.36089 0.0
C482 C 0.59648 0.63668 0.33166 0.0
C483 C 0.58941 0.51178 0.44308 0.0
H484 H 0.64641 0.61733 0.52008 0.0
H485 H 0.53124 0.62786 0.47487 0.0
H486 H 0.66098 0.55589 0.45621 0.0
H487 H 0.66373 0.59947 0.41696 0.0
H488 H 0.68215 0.59203 0.4806 0.0
H489 H 0.49911 0.60629 0.41023 0.0
H490 H 0.52285 0.61153 0.3625 0.0
H491 H 0.52044 0.56752 0.40077 0.0
H492 H 0.60848 0.59524 0.27361 0.0
H493 H 0.60386 0.49027 0.36806 0.0
H494 H 0.6202 0.64543 0.35504 0.0
H495 H 0.57217 0.64692 0.3399 0.0
H496 H 0.59687 0.64954 0.29357 0.0
H497 H 0.61276 0.51394 0.47218 0.0
H498 H 0.587 0.48279 0.44208 0.0
H499 H 0.56506 0.52079 0.45252 0.0
C500 C 0.8759 0.09679 0.96459 0.0
C501 C 0.88369 0.0776 0.01307 0.0
C502 C 0.89657 0.09094 0.9331 0.0
C503 C 0.92583 0.06526 0.95046 0.0
C504 C 0.93403 0.04585 0.9994 0.0
C505 C 0.91285 0.05229 0.03021 0.0
C506 C 0.88693 0.11216 0.88111 0.0
C507 C 0.96513 0.01836 0.01917 0.0
C508 C 0.954 0.03066 0.85315 0.0
C509 C 0.9822 0.05338 0.84349 0.0
C510 C 0.93647 0.03304 0.8895 0.0
C511 C 0.94742 0.05878 0.91681 0.0
C512 C 0.97692 0.08066 0.90869 0.0
C513 C 0.99396 0.07771 0.87209 0.0
C514 C 0.90526 0.00907 0.89731 0.0
C515 C 0.98936 0.10844 0.93705 0.0
H516 H 0.85345 0.1164 0.95101 0.0
H517 H 0.9191 0.03742 0.06768 0.0
H518 H 0.91018 0.12785 0.87153 0.0
H519 H 0.88052 0.09323 0.8574 0.0
H520 H 0.86352 0.13134 0.87345 0.0
H521 H 0.96684 0.00426 0.05746 0.0
H522 H 0.96255 0.99772 0.99788 0.0
H523 H 0.99071 0.03208 0.01611 0.0
H524 H 0.94523 0.01136 0.83169 0.0
H525 H 0.01556 0.09554 0.86455 0.0
H526 H 0.88003 0.02602 0.88685 0.0
H527 H 0.90886 0.99498 0.93589 0.0
H528 H 0.90211 0.98837 0.87599 0.0
H529 H 0.96837 0.13045 0.92777 0.0
H530 H 0.01478 0.12074 0.92965 0.0
H531 H 0.99346 0.09587 0.97615 0.0
C532 C 0.42886 0.42167 0.33988 0.0
C533 C 0.42129 0.38465 0.34846 0.0
C534 C 0.43988 0.43971 0.29789 0.0
C535 C 0.44348 0.42023 0.26379 0.0
C536 C 0.43579 0.38292 0.27219 0.0
C537 C 0.42479 0.36562 0.31435 0.0
C538 C 0.44777 0.47956 0.29006 0.0
C539 C 0.43943 0.3612 0.23675 0.0
C540 C 0.44254 0.47 0.13463 0.0
C541 C 0.47914 0.46886 0.13407 0.0
C542 C 0.43054 0.45475 0.17674 0.0
C543 C 0.45585 0.43853 0.21958 0.0
C544 C 0.49295 0.43841 0.21967 0.0
C545 C 0.50413 0.45345 0.17691 0.0
C546 C 0.39073 0.45534 0.17507 0.0
C547 C 0.52082 0.4217 0.2647 0.0
H548 H 0.42617 0.43661 0.36597 0.0
H549 H 0.41903 0.33702 0.3206 0.0
H550 H 0.47612 0.48363 0.28713 0.0
H551 H 0.43056 0.49517 0.25573 0.0
H552 H 0.44316 0.49094 0.31966 0.0
H553 H 0.4319 0.33253 0.24826 0.0
H554 H 0.42214 0.37377 0.20096 0.0
H555 H 0.46758 0.36138 0.23237 0.0
H556 H 0.42311 0.48259 0.10213 0.0
H557 H 0.53254 0.45283 0.17709 0.0
H558 H 0.38522 0.4673 0.20368 0.0
H559 H 0.38129 0.42714 0.18189 0.0
H560 H 0.37482 0.47107 0.13979 0.0
H561 H 0.51778 0.43367 0.29444 0.0
H562 H 0.5487 0.42571 0.2594 0.0
H563 H 0.51682 0.39212 0.27615 0.0
C564 C 0.15708 0.91397 0.91703 0.0
C565 C 0.19074 0.89928 0.91787 0.0
C566 C 0.13262 0.92875 0.87333 0.0
C567 C 0.14177 0.9282 0.82945 0.0
C568 C 0.17577 0.91373 0.82996 0.0
C569 C 0.19981 0.89956 0.87406 0.0
C570 C 0.09664 0.94421 0.87413 0.0
C571 C 0.18641 0.9123 0.78395 0.0
C572 C 0.06654 0.9302 0.72022 0.0
C573 C 0.06656 0.96624 0.69374 0.0
C574 C 0.09087 0.91745 0.76446 0.0
C575 C 0.11539 0.94158 0.78301 0.0
C576 C 0.11517 0.97819 0.75668 0.0
C577 C 0.09081 0.99005 0.71224 0.0
C578 C 0.09056 0.87807 0.79105 0.0
C579 C 0.14084 0.00475 0.77527 0.0
H580 H 0.14923 0.91305 0.9503 0.0
H581 H 0.2257 0.88826 0.87413 0.0
H582 H 0.09217 0.97236 0.8511 0.0
H583 H 0.07481 0.92782 0.85918 0.0
H584 H 0.09442 0.94454 0.91102 0.0
H585 H 0.21485 0.90287 0.79023 0.0
H586 H 0.16895 0.89346 0.76666 0.0
H587 H 0.18242 0.93944 0.75824 0.0
H588 H 0.04726 0.912 0.70652 0.0
H589 H 0.09104 0.01792 0.69169 0.0
H590 H 0.08752 0.87595 0.82822 0.0
H591 H 0.11655 0.86424 0.79369 0.0
H592 H 0.06855 0.8634 0.77292 0.0
H593 H 0.13657 0.00713 0.81048 0.0
H594 H 0.13743 0.0322 0.75016 0.0
H595 H 0.16899 0.99469 0.78116 0.0
loop_
_geom_bond_atom_site_label_1
_geom_bond_atom_site_label_2
_geom_bond_distance
_geom_bond_site_symmetry_2
_ccdc_geom_bond_type
O0 Cd1 2.300 1_556 S
O0 C7 1.275 . S
Cd1 O0 2.300 1_554 S
Cd1 O9 2.381 . S
Cd1 O10 2.378 . S
O2 Cd3 2.385 1_556 S
O2 C7 1.255 . S
Cd3 O2 2.385 1_554 S
Cd3 O4 2.317 . S
O4 Cd3 2.317 . S
O4 C5 1.232 . S
C5 O4 1.232 . S
C5 O6 1.218 . S
O6 C5 1.218 . S
C7 O0 1.275 . S
C7 O2 1.255 . S
C8 O9 1.258 . S
C8 O10 1.256 . S
O9 Cd1 2.381 . S
O9 C8 1.258 . S
O10 Cd1 2.378 . S
O10 C8 1.256 . S
O11 Cd12 2.300 . S
O11 C18 1.275 . S
Cd12 O11 2.300 . S
Cd12 O20 2.381 . S
Cd12 O21 2.378 . S
O13 Cd14 2.385 . S
O13 C18 1.255 . S
Cd14 O13 2.385 . S
Cd14 O15 2.317 . S
O15 Cd14 2.317 . S
O15 C16 1.232 . S
C16 O15 1.232 . S
C16 O17 1.218 . S
O17 C16 1.218 . S
C18 O11 1.275 . S
C18 O13 1.255 . S
C19 O20 1.258 . S
C19 O21 1.256 . S
O20 Cd12 2.381 . S
O20 C19 1.258 . S
O21 Cd12 2.378 . S
O21 C19 1.256 . S
O22 Cd23 2.300 . S
O22 C29 1.275 . S
Cd23 O22 2.300 . S
Cd23 O31 2.381 . S
Cd23 O32 2.378 . S
O24 Cd25 2.385 . S
O24 C29 1.255 . S
Cd25 O24 2.385 . S
Cd25 O26 2.317 . S
O26 Cd25 2.317 . S
O26 C27 1.232 . S
C27 O26 1.232 . S
C27 O28 1.218 . S
O28 C27 1.218 . S
C29 O22 1.275 . S
C29 O24 1.255 . S
C30 O31 1.258 . S
C30 O32 1.256 . S
O31 Cd23 2.381 . S
O31 C30 1.258 . S
O32 Cd23 2.378 . S
O32 C30 1.256 . S
O33 Cd34 2.300 . S
O33 C40 1.275 . S
Cd34 O33 2.300 . S
Cd34 O42 2.381 . S
Cd34 O43 2.378 . S
O35 Cd36 2.385 . S
O35 C40 1.255 . S
Cd36 O35 2.385 . S
Cd36 O37 2.317 . S
O37 Cd36 2.317 . S
O37 C38 1.232 . S
C38 O37 1.232 . S
C38 O39 1.218 . S
O39 C38 1.218 . S
C40 O33 1.275 . S
C40 O35 1.255 . S
C41 O42 1.258 . S
C41 O43 1.256 . S
O42 Cd34 2.381 . S
O42 C41 1.258 . S
O43 Cd34 2.378 . S
O43 C41 1.256 . S
Tb44 N73 2.617 . S
Tb44 N79 2.572 . S
Tb44 O88 2.465 . S
Tb44 O89 2.387 . S
Tb44 O91 2.428 . S
Tb44 O92 2.308 1_565 S
Tb44 O96 2.349 1_465 S
Tb44 O99 2.393 1_455 S
Tb44 C108 2.802 . S
C45 N46 1.379 . S
C45 C48 1.416 . S
C45 C52 1.424 . S
N46 C45 1.379 . S
N46 C49 1.334 1_655 S
N46 Tb55 2.617 . S
C47 C49 1.390 . S
C47 C50 1.339 1_455 S
C47 H67 0.930 . S
C48 C45 1.416 . S
C48 C50 1.416 . S
C48 C54 1.448 . S
C49 N46 1.334 1_455 S
C49 C47 1.390 . S
C49 H60 0.930 . S
C50 C47 1.339 1_655 S
C50 C48 1.416 . S
C50 H71 0.930 . S
C51 C52 1.413 . S
C51 C53 1.427 . S
C51 C57 1.416 . S
C52 C45 1.424 . S
C52 C51 1.413 . S
C52 N56 1.361 . S
C53 C51 1.427 . S
C53 C54 1.328 . S
C53 H68 0.929 . S
C54 C48 1.448 . S
C54 C53 1.328 . S
C54 H69 0.930 . S
Tb55 N46 2.617 . S
Tb55 N56 2.572 . S
Tb55 O90 2.349 1_655 S
Tb55 O93 2.393 1_655 S
Tb55 O94 2.465 . S
Tb55 O95 2.387 . S
Tb55 O97 2.428 . S
Tb55 O98 2.308 1_545 S
Tb55 C119 2.802 . S
N56 C52 1.361 . S
N56 Tb55 2.572 . S
N56 C58 1.340 . S
C57 C51 1.416 . S
C57 C59 1.332 . S
C57 H65 0.931 . S
C58 N56 1.340 . S
C58 C59 1.407 . S
C58 H64 0.930 . S
C59 C57 1.332 . S
C59 C58 1.407 . S
C59 H61 0.929 . S
H60 C49 0.930 . S
H61 C59 0.929 . S
H62 C77 0.930 1_655 S
H63 C84 0.929 . S
H64 C58 0.930 . S
H65 C57 0.931 . S
H66 C80 0.930 . S
H67 C47 0.930 . S
H68 C53 0.929 . S
H69 C54 0.930 . S
H70 C75 0.930 1_655 S
H71 C50 0.930 . S
H72 C83 0.931 . S
N73 Tb44 2.617 . S
N73 C74 1.379 . S
N73 C77 1.334 . S
C74 N73 1.379 . S
C74 C76 1.416 . S
C74 C82 1.424 . S
C75 H70 0.930 1_455 S
C75 C77 1.390 . S
C75 C78 1.339 . S
C76 C74 1.416 . S
C76 C78 1.416 . S
C76 C109 1.448 . S
C77 H62 0.930 1_455 S
C77 N73 1.334 . S
C77 C75 1.390 . S
C78 C75 1.339 . S
C78 C76 1.416 . S
C78 H85 0.930 . S
N79 Tb44 2.572 . S
N79 C80 1.340 . S
N79 C82 1.361 . S
C80 H66 0.930 . S
C80 N79 1.340 . S
C80 C84 1.407 . S
C81 C82 1.413 . S
C81 C83 1.416 . S
C81 C110 1.427 . S
C82 C74 1.424 . S
C82 N79 1.361 . S
C82 C81 1.413 . S
C83 H72 0.931 . S
C83 C81 1.416 . S
C83 C84 1.332 . S
C84 H63 0.929 . S
C84 C80 1.407 . S
C84 C83 1.332 . S
H85 C78 0.930 . S
H86 C109 0.930 . S
H87 C110 0.929 . S
O88 Tb44 2.465 . S
O88 C108 1.264 . S
O89 Tb44 2.387 . S
O89 C100 1.264 . S
O90 Tb55 2.349 1_455 S
O90 C100 1.243 1_545 S
O91 Tb44 2.428 . S
O91 C108 1.256 . S
O92 Tb44 2.308 1_545 S
O92 C107 1.266 . S
O93 Tb55 2.393 1_455 S
O93 C107 1.248 . S
O94 Tb55 2.465 . S
O94 C119 1.264 . S
O95 Tb55 2.387 . S
O95 C111 1.264 . S
O96 Tb44 2.349 1_645 S
O96 C111 1.243 . S
O97 Tb55 2.428 . S
O97 C119 1.256 . S
O98 Tb55 2.308 1_565 S
O98 C118 1.266 . S
O99 Tb44 2.393 1_655 S
O99 C118 1.248 . S
C100 O89 1.264 . S
C100 O90 1.243 1_565 S
C101 C104 1.399 . S
C101 C106 1.383 . S
C101 C108 1.496 . S
C102 C103 1.399 . S
C102 C106 1.389 . S
C103 C102 1.399 . S
C103 C105 1.380 . S
C103 H120 0.929 . S
C104 C101 1.399 . S
C104 C105 1.392 . S
C104 H121 0.929 . S
C105 C103 1.380 . S
C105 C104 1.392 . S
C105 H122 0.929 . S
C106 C101 1.383 . S
C106 C102 1.389 . S
C106 H123 0.931 . S
C107 O92 1.266 . S
C107 O93 1.248 . S
C108 Tb44 2.802 . S
C108 O88 1.264 . S
C108 O91 1.256 . S
C108 C101 1.496 . S
C109 C76 1.448 . S
C109 H86 0.930 . S
C109 C110 1.328 . S
C110 C81 1.427 . S
C110 H87 0.929 . S
C110 C109 1.328 . S
C111 O95 1.264 . S
C111 O96 1.243 . S
C112 C115 1.399 . S
C112 C116 1.383 . S
C112 C119 1.496 . S
C113 C114 1.399 . S
C113 C116 1.389 . S
C114 C113 1.399 . S
C114 C117 1.380 . S
C114 H124 0.929 . S
C115 C112 1.399 . S
C115 C117 1.392 . S
C115 H125 0.929 . S
C116 C112 1.383 . S
C116 C113 1.389 . S
C116 H126 0.931 . S
C117 C114 1.380 . S
C117 C115 1.392 . S
C117 H127 0.929 . S
C118 O98 1.266 . S
C118 O99 1.248 . S
C119 Tb55 2.802 . S
C119 O94 1.264 . S
C119 O97 1.256 . S
C119 C112 1.496 . S
H120 C103 0.929 . S
H121 C104 0.929 . S
H122 C105 0.929 . S
H123 C106 0.931 . S
H124 C114 0.929 . S
H125 C115 0.929 . S
H126 C116 0.931 . S
H127 C117 0.929 . S
Tb128 N157 2.617 . S
Tb128 N163 2.572 1_556 S
Tb128 O172 2.465 . S
Tb128 O173 2.387 1_556 S
Tb128 O175 2.428 . S
Tb128 O176 2.308 1_556 S
Tb128 O180 2.349 . S
Tb128 O183 2.393 . S
Tb128 C192 2.802 . S
C129 N130 1.379 . S
C129 C132 1.416 . S
C129 C136 1.424 . S
N130 C129 1.379 . S
N130 C133 1.334 . S
N130 Tb139 2.617 . S
C131 C133 1.390 . S
C131 C134 1.339 . S
C131 H151 0.930 . S
C132 C129 1.416 . S
C132 C134 1.416 . S
C132 C138 1.448 . S
C133 N130 1.334 . S
C133 C131 1.390 . S
C133 H144 0.930 . S
C134 C131 1.339 . S
C134 C132 1.416 . S
C134 H155 0.930 . S
C135 C136 1.413 . S
C135 C137 1.427 . S
C135 C141 1.416 . S
C136 C129 1.424 . S
C136 C135 1.413 . S
C136 N140 1.361 . S
C137 C135 1.427 . S
C137 C138 1.328 . S
C137 H152 0.929 . S
C138 C132 1.448 . S
C138 C137 1.328 . S
C138 H153 0.930 . S
Tb139 N130 2.617 . S
Tb139 N140 2.572 . S
Tb139 O174 2.349 . S
Tb139 O177 2.393 . S
Tb139 O178 2.465 . S
Tb139 O179 2.387 1_554 S
Tb139 O181 2.428 . S
Tb139 O182 2.308 . S
Tb139 C203 2.802 . S
N140 C136 1.361 . S
N140 Tb139 2.572 . S
N140 C142 1.340 . S
C141 C135 1.416 . S
C141 C143 1.332 . S
C141 H149 0.931 . S
C142 N140 1.340 . S
C142 C143 1.407 . S
C142 H148 0.930 . S
C143 C141 1.332 . S
C143 C142 1.407 . S
C143 H145 0.929 . S
H144 C133 0.930 . S
H145 C143 0.929 . S
H146 C161 0.930 . S
H147 C168 0.929 . S
H148 C142 0.930 . S
H149 C141 0.931 . S
H150 C164 0.930 . S
H151 C131 0.930 . S
H152 C137 0.929 . S
H153 C138 0.930 . S
H154 C159 0.930 . S
H155 C134 0.930 . S
H156 C167 0.931 . S
N157 Tb128 2.617 . S
N157 C158 1.379 1_556 S
N157 C161 1.334 . S
C158 N157 1.379 1_554 S
C158 C160 1.416 . S
C158 C166 1.424 . S
C159 H154 0.930 . S
C159 C161 1.390 . S
C159 C162 1.339 1_556 S
C160 C158 1.416 . S
C160 C162 1.416 . S
C160 C193 1.448 . S
C161 H146 0.930 . S
C161 N157 1.334 . S
C161 C159 1.390 . S
C162 C159 1.339 1_554 S
C162 C160 1.416 . S
C162 H169 0.930 . S
N163 Tb128 2.572 1_554 S
N163 C164 1.340 . S
N163 C166 1.361 . S
C164 H150 0.930 . S
C164 N163 1.340 . S
C164 C168 1.407 . S
C165 C166 1.413 . S
C165 C167 1.416 . S
C165 C194 1.427 . S
C166 C158 1.424 . S
C166 N163 1.361 . S
C166 C165 1.413 . S
C167 H156 0.931 . S
C167 C165 1.416 . S
C167 C168 1.332 . S
C168 H147 0.929 . S
C168 C164 1.407 . S
C168 C167 1.332 . S
H169 C162 0.930 . S
H170 C193 0.930 . S
H171 C194 0.929 . S
O172 Tb128 2.465 . S
O172 C192 1.264 . S
O173 Tb128 2.387 1_554 S
O173 C184 1.264 . S
O174 Tb139 2.349 . S
O174 C184 1.243 . S
O175 Tb128 2.428 . S
O175 C192 1.256 . S
O176 Tb128 2.308 1_554 S
O176 C191 1.266 . S
O177 Tb139 2.393 . S
O177 C191 1.248 . S
O178 Tb139 2.465 . S
O178 C203 1.264 . S
O179 Tb139 2.387 1_556 S
O179 C195 1.264 . S
O180 Tb128 2.349 . S
O180 C195 1.243 . S
O181 Tb139 2.428 . S
O181 C203 1.256 . S
O182 Tb139 2.308 . S
O182 C202 1.266 . S
O183 Tb128 2.393 . S
O183 C202 1.248 1_556 S
C184 O173 1.264 . S
C184 O174 1.243 . S
C185 C188 1.399 . S
C185 C190 1.383 . S
C185 C192 1.496 . S
C186 C187 1.399 . S
C186 C190 1.389 . S
C187 C186 1.399 . S
C187 C189 1.380 . S
C187 H204 0.929 . S
C188 C185 1.399 . S
C188 C189 1.392 . S
C188 H205 0.929 . S
C189 C187 1.380 . S
C189 C188 1.392 . S
C189 H206 0.929 . S
C190 C185 1.383 . S
C190 C186 1.389 . S
C190 H207 0.931 . S
C191 O176 1.266 . S
C191 O177 1.248 . S
C192 Tb128 2.802 . S
C192 O172 1.264 . S
C192 O175 1.256 . S
C192 C185 1.496 . S
C193 C160 1.448 . S
C193 H170 0.930 . S
C193 C194 1.328 . S
C194 C165 1.427 . S
C194 H171 0.929 . S
C194 C193 1.328 . S
C195 O179 1.264 . S
C195 O180 1.243 . S
C196 C199 1.399 . S
C196 C200 1.383 . S
C196 C203 1.496 . S
C197 C198 1.399 . S
C197 C200 1.389 . S
C198 C197 1.399 . S
C198 C201 1.380 . S
C198 H208 0.929 . S
C199 C196 1.399 . S
C199 C201 1.392 . S
C199 H209 0.929 . S
C200 C196 1.383 . S
C200 C197 1.389 . S
C200 H210 0.931 . S
C201 C198 1.380 . S
C201 C199 1.392 . S
C201 H211 0.929 . S
C202 O182 1.266 . S
C202 O183 1.248 1_554 S
C203 Tb139 2.802 . S
C203 O178 1.264 . S
C203 O181 1.256 . S
C203 C196 1.496 . S
H204 C187 0.929 . S
H205 C188 0.929 . S
H206 C189 0.929 . S
H207 C190 0.931 . S
H208 C198 0.929 . S
H209 C199 0.929 . S
H210 C200 0.931 . S
H211 C201 0.929 . S
C212 C213 1.391 . S
C212 C214 1.394 . S
C212 H228 0.931 . S
C213 C212 1.391 . S
C213 C217 1.376 . S
C214 C212 1.394 . S
C214 C215 1.369 . S
C214 C218 1.531 . S
C215 C214 1.369 . S
C215 C216 1.410 . S
C215 C223 1.503 . S
C216 C215 1.410 . S
C216 C217 1.392 . S
C216 C219 1.511 . S
C217 C213 1.376 . S
C217 C216 1.392 . S
C217 H229 0.929 . S
C218 C214 1.531 . S
C218 H230 0.960 . S
C218 H231 0.962 . S
C218 H232 0.960 . S
C219 C216 1.511 . S
C219 H233 0.961 . S
C219 H234 0.961 . S
C219 H235 0.961 . S
C220 C221 1.370 . S
C220 C222 1.363 . S
C220 H236 0.931 . S
C221 C220 1.370 . S
C221 C225 1.408 . S
C222 C220 1.363 . S
C222 C223 1.370 . S
C222 C226 1.524 . S
C223 C215 1.503 . S
C223 C222 1.370 . S
C223 C224 1.403 . S
C224 C223 1.403 . S
C224 C225 1.404 . S
C224 C227 1.539 . S
C225 C221 1.408 . S
C225 C224 1.404 . S
C225 H237 0.930 . S
C226 C222 1.524 . S
C226 H238 0.956 . S
C226 H239 0.961 . S
C226 H240 0.961 . S
C227 C224 1.539 . S
C227 H241 0.958 . S
C227 H242 0.961 . S
C227 H243 0.960 . S
H228 C212 0.931 . S
H229 C217 0.929 . S
H230 C218 0.960 . S
H231 C218 0.962 . S
H232 C218 0.960 . S
H233 C219 0.961 . S
H234 C219 0.961 . S
H235 C219 0.961 . S
H236 C220 0.931 . S
H237 C225 0.930 . S
H238 C226 0.956 . S
H239 C226 0.961 . S
H240 C226 0.961 . S
H241 C227 0.958 . S
H242 C227 0.961 . S
H243 C227 0.960 . S
C244 C245 1.391 . S
C244 C246 1.394 . S
C244 H260 0.931 . S
C245 C244 1.391 . S
C245 C249 1.376 . S
C246 C244 1.394 . S
C246 C247 1.369 . S
C246 C250 1.531 . S
C247 C246 1.369 . S
C247 C248 1.410 . S
C247 C255 1.503 . S
C248 C247 1.410 . S
C248 C249 1.392 . S
C248 C251 1.511 . S
C249 C245 1.376 . S
C249 C248 1.392 . S
C249 H261 0.929 . S
C250 C246 1.531 . S
C250 H262 0.960 . S
C250 H263 0.962 . S
C250 H264 0.960 . S
C251 C248 1.511 . S
C251 H265 0.961 . S
C251 H266 0.961 . S
C251 H267 0.961 . S
C252 C253 1.370 1_556 S
C252 C254 1.361 1_556 S
C252 H268 0.931 . S
C253 C252 1.370 1_554 S
C253 C257 1.408 . S
C254 C252 1.361 1_554 S
C254 C255 1.375 . S
C254 C258 1.521 1_554 S
C255 C247 1.503 . S
C255 C254 1.375 . S
C255 C256 1.403 . S
C256 C255 1.403 . S
C256 C257 1.404 . S
C256 C259 1.539 . S
C257 C253 1.408 . S
C257 C256 1.404 . S
C257 H269 0.930 . S
C258 C254 1.521 1_556 S
C258 H270 0.956 . S
C258 H271 0.961 . S
C258 H272 0.961 . S
C259 C256 1.539 . S
C259 H273 0.958 . S
C259 H274 0.961 . S
C259 H275 0.960 . S
H260 C244 0.931 . S
H261 C249 0.929 . S
H262 C250 0.960 . S
H263 C250 0.962 . S
H264 C250 0.960 . S
H265 C251 0.961 . S
H266 C251 0.961 . S
H267 C251 0.961 . S
H268 C252 0.931 . S
H269 C257 0.930 . S
H270 C258 0.956 . S
H271 C258 0.961 . S
H272 C258 0.961 . S
H273 C259 0.958 . S
H274 C259 0.961 . S
H275 C259 0.960 . S
C276 C277 1.391 . S
C276 C278 1.394 . S
C276 H292 0.931 . S
C277 C276 1.391 . S
C277 C281 1.376 . S
C278 C276 1.394 . S
C278 C279 1.369 . S
C278 C282 1.531 . S
C279 C278 1.369 . S
C279 C280 1.410 . S
C279 C287 1.503 . S
C280 C279 1.410 . S
C280 C281 1.392 . S
C280 C283 1.511 . S
C281 C277 1.376 . S
C281 C280 1.392 . S
C281 H293 0.929 . S
C282 C278 1.531 . S
C282 H294 0.960 . S
C282 H295 0.962 . S
C282 H296 0.960 . S
C283 C280 1.511 . S
C283 H297 0.961 . S
C283 H298 0.961 . S
C283 H299 0.961 . S
C284 C285 1.370 . S
C284 C286 1.363 . S
C284 H300 0.931 . S
C285 C284 1.370 . S
C285 C289 1.408 . S
C286 C284 1.363 . S
C286 C287 1.370 . S
C286 C290 1.524 . S
C287 C279 1.503 . S
C287 C286 1.370 . S
C287 C288 1.403 . S
C288 C287 1.403 . S
C288 C289 1.404 . S
C288 C291 1.539 . S
C289 C285 1.408 . S
C289 C288 1.404 . S
C289 H301 0.930 . S
C290 C286 1.524 . S
C290 H302 0.956 . S
C290 H303 0.961 . S
C290 H304 0.961 . S
C291 C288 1.539 . S
C291 H305 0.958 . S
C291 H306 0.961 . S
C291 H307 0.960 . S
H292 C276 0.931 . S
H293 C281 0.929 . S
H294 C282 0.960 . S
H295 C282 0.962 . S
H296 C282 0.960 . S
H297 C283 0.961 . S
H298 C283 0.961 . S
H299 C283 0.961 . S
H300 C284 0.931 . S
H301 C289 0.930 . S
H302 C290 0.956 . S
H303 C290 0.961 . S
H304 C290 0.961 . S
H305 C291 0.958 . S
H306 C291 0.961 . S
H307 C291 0.960 . S
C308 C309 1.391 . S
C308 C310 1.394 . S
C308 H324 0.931 . S
C309 C308 1.391 . S
C309 C313 1.376 . S
C310 C308 1.394 . S
C310 C311 1.369 . S
C310 C314 1.531 . S
C311 C310 1.369 . S
C311 C312 1.410 . S
C311 C319 1.503 . S
C312 C311 1.410 . S
C312 C313 1.392 . S
C312 C315 1.511 1_554 S
C313 C309 1.376 . S
C313 C312 1.392 . S
C313 H325 0.927 . S
C314 C310 1.531 . S
C314 H326 0.960 . S
C314 H327 0.962 . S
C314 H328 0.960 . S
C315 C312 1.511 1_556 S
C315 H329 0.961 . S
C315 H330 0.961 . S
C315 H331 0.961 . S
C316 C317 1.370 . S
C316 C318 1.363 . S
C316 H332 0.931 . S
C317 C316 1.370 . S
C317 C321 1.408 . S
C318 C316 1.363 . S
C318 C319 1.370 . S
C318 C322 1.524 . S
C319 C311 1.503 . S
C319 C318 1.370 . S
C319 C320 1.403 . S
C320 C319 1.403 . S
C320 C321 1.404 . S
C320 C323 1.539 . S
C321 C317 1.408 . S
C321 C320 1.404 . S
C321 H333 0.930 . S
C322 C318 1.524 . S
C322 H334 0.956 . S
C322 H335 0.961 1_554 S
C322 H336 0.961 1_554 S
C323 C320 1.539 . S
C323 H337 0.958 . S
C323 H338 0.961 . S
C323 H339 0.960 . S
H324 C308 0.931 . S
H325 C313 0.927 . S
H326 C314 0.960 . S
H327 C314 0.962 . S
H328 C314 0.960 . S
H329 C315 0.961 . S
H330 C315 0.961 . S
H331 C315 0.961 . S
H332 C316 0.931 . S
H333 C321 0.930 . S
H334 C322 0.956 . S
H335 C322 0.961 1_556 S
H336 C322 0.961 1_556 S
H337 C323 0.958 . S
H338 C323 0.961 . S
H339 C323 0.960 . S
C340 C341 1.391 . S
C340 C342 1.394 . S
C340 H356 0.931 . S
C341 C340 1.391 . S
C341 C345 1.376 . S
C342 C340 1.394 . S
C342 C343 1.369 . S
C342 C346 1.531 . S
C343 C342 1.369 . S
C343 C344 1.410 . S
C343 C351 1.503 . S
C344 C343 1.410 . S
C344 C345 1.392 . S
C344 C347 1.511 . S
C345 C341 1.376 . S
C345 C344 1.392 . S
C345 H357 0.929 . S
C346 C342 1.531 . S
C346 H358 0.960 . S
C346 H359 0.962 . S
C346 H360 0.960 . S
C347 C344 1.511 . S
C347 H361 0.961 . S
C347 H362 0.961 . S
C347 H363 0.961 . S
C348 C349 1.370 . S
C348 C350 1.363 . S
C348 H364 0.931 . S
C349 C348 1.370 . S
C349 C353 1.408 . S
C350 C348 1.363 . S
C350 C351 1.370 . S
C350 C354 1.524 . S
C351 C343 1.503 . S
C351 C350 1.370 . S
C351 C352 1.403 . S
C352 C351 1.403 . S
C352 C353 1.404 . S
C352 C355 1.539 . S
C353 C349 1.408 . S
C353 C352 1.404 . S
C353 H365 0.930 . S
C354 C350 1.524 . S
C354 H366 0.956 . S
C354 H367 0.961 . S
C354 H368 0.961 1_565 S
C355 C352 1.539 . S
C355 H369 0.958 . S
C355 H370 0.961 . S
C355 H371 0.960 . S
H356 C340 0.931 . S
H357 C345 0.929 . S
H358 C346 0.960 . S
H359 C346 0.962 . S
H360 C346 0.960 . S
H361 C347 0.961 . S
H362 C347 0.961 . S
H363 C347 0.961 . S
H364 C348 0.931 . S
H365 C353 0.930 . S
H366 C354 0.956 . S
H367 C354 0.961 . S
H368 C354 0.961 1_545 S
H369 C355 0.958 . S
H370 C355 0.961 . S
H371 C355 0.960 . S
C372 C373 1.391 . S
C372 C374 1.394 . S
C372 H388 0.931 . S
C373 C372 1.391 . S
C373 C377 1.376 . S
C374 C372 1.394 . S
C374 C375 1.369 . S
C374 C378 1.531 . S
C375 C374 1.369 . S
C375 C376 1.410 . S
C375 C383 1.503 . S
C376 C375 1.410 . S
C376 C377 1.392 . S
C376 C379 1.511 . S
C377 C373 1.376 . S
C377 C376 1.392 . S
C377 H389 0.929 . S
C378 C374 1.531 . S
C378 H390 0.960 . S
C378 H391 0.962 . S
C378 H392 0.960 . S
C379 C376 1.511 . S
C379 H393 0.961 . S
C379 H394 0.961 . S
C379 H395 0.961 . S
C380 C381 1.370 . S
C380 C382 1.363 . S
C380 H396 0.931 . S
C381 C380 1.370 . S
C381 C385 1.408 . S
C382 C380 1.363 . S
C382 C383 1.370 . S
C382 C386 1.524 . S
C383 C375 1.503 . S
C383 C382 1.370 . S
C383 C384 1.403 . S
C384 C383 1.403 . S
C384 C385 1.404 . S
C384 C387 1.539 . S
C385 C381 1.408 . S
C385 C384 1.404 . S
C385 H397 0.930 . S
C386 C382 1.524 . S
C386 H398 0.956 . S
C386 H399 0.961 . S
C386 H400 0.961 . S
C387 C384 1.539 . S
C387 H401 0.958 . S
C387 H402 0.961 . S
C387 H403 0.960 . S
H388 C372 0.931 . S
H389 C377 0.929 . S
H390 C378 0.960 . S
H391 C378 0.962 . S
H392 C378 0.960 . S
H393 C379 0.961 . S
H394 C379 0.961 . S
H395 C379 0.961 . S
H396 C380 0.931 . S
H397 C385 0.930 . S
H398 C386 0.956 . S
H399 C386 0.961 . S
H400 C386 0.961 . S
H401 C387 0.958 . S
H402 C387 0.961 . S
H403 C387 0.960 . S
C404 C405 1.391 . S
C404 C406 1.394 . S
C404 H420 0.931 . S
C405 C404 1.391 . S
C405 C409 1.376 . S
C406 C404 1.394 . S
C406 C407 1.369 . S
C406 C410 1.531 . S
C407 C406 1.369 . S
C407 C408 1.410 . S
C407 C415 1.503 . S
C408 C407 1.410 . S
C408 C409 1.392 . S
C408 C411 1.511 . S
C409 C405 1.376 . S
C409 C408 1.392 . S
C409 H421 0.929 . S
C410 C406 1.531 . S
C410 H422 0.960 . S
C410 H423 0.962 . S
C410 H424 0.960 . S
C411 C408 1.511 . S
C411 H425 0.961 . S
C411 H426 0.961 . S
C411 H427 0.961 . S
C412 C413 1.370 . S
C412 C414 1.363 . S
C412 H428 0.931 . S
C413 C412 1.370 . S
C413 C417 1.408 . S
C414 C412 1.363 . S
C414 C415 1.370 . S
C414 C418 1.524 . S
C415 C407 1.503 . S
C415 C414 1.370 . S
C415 C416 1.403 . S
C416 C415 1.403 . S
C416 C417 1.404 . S
C416 C419 1.539 . S
C417 C413 1.408 . S
C417 C416 1.404 . S
C417 H429 0.930 . S
C418 C414 1.524 . S
C418 H430 0.956 . S
C418 H431 0.961 . S
C418 H432 0.961 . S
C419 C416 1.539 . S
C419 H433 0.958 . S
C419 H434 0.961 . S
C419 H435 0.960 . S
H420 C404 0.931 . S
H421 C409 0.929 . S
H422 C410 0.960 . S
H423 C410 0.962 . S
H424 C410 0.960 . S
H425 C411 0.961 . S
H426 C411 0.961 . S
H427 C411 0.961 . S
H428 C412 0.931 . S
H429 C417 0.930 . S
H430 C418 0.956 . S
H431 C418 0.961 . S
H432 C418 0.961 . S
H433 C419 0.958 . S
H434 C419 0.961 . S
H435 C419 0.960 . S
C436 C437 1.391 . S
C436 C438 1.394 . S
C436 H452 0.931 . S
C437 C436 1.391 . S
C437 C441 1.376 . S
C438 C436 1.394 . S
C438 C439 1.369 . S
C438 C442 1.531 . S
C439 C438 1.369 . S
C439 C440 1.410 . S
C439 C447 1.503 . S
C440 C439 1.410 . S
C440 C441 1.392 . S
C440 C443 1.511 . S
C441 C437 1.376 . S
C441 C440 1.392 . S
C441 H453 0.929 . S
C442 C438 1.531 . S
C442 H454 0.960 . S
C442 H455 0.962 . S
C442 H456 0.960 . S
C443 C440 1.511 . S
C443 H457 0.961 . S
C443 H458 0.961 . S
C443 H459 0.961 . S
C444 C445 1.370 . S
C444 C446 1.363 . S
C444 H460 0.931 . S
C445 C444 1.370 . S
C445 C449 1.408 . S
C446 C444 1.363 . S
C446 C447 1.370 . S
C446 C450 1.524 . S
C447 C439 1.503 . S
C447 C446 1.370 . S
C447 C448 1.403 . S
C448 C447 1.403 . S
C448 C449 1.404 . S
C448 C451 1.539 . S
C449 C445 1.408 . S
C449 C448 1.404 . S
C449 H461 0.930 . S
C450 C446 1.524 . S
C450 H462 0.956 . S
C450 H463 0.961 . S
C450 H464 0.961 . S
C451 C448 1.539 . S
C451 H465 0.958 . S
C451 H466 0.961 . S
C451 H467 0.960 . S
H452 C436 0.931 . S
H453 C441 0.929 . S
H454 C442 0.960 . S
H455 C442 0.962 . S
H456 C442 0.960 . S
H457 C443 0.961 . S
H458 C443 0.961 . S
H459 C443 0.961 . S
H460 C444 0.931 . S
H461 C449 0.930 . S
H462 C450 0.956 . S
H463 C450 0.961 . S
H464 C450 0.961 . S
H465 C451 0.958 . S
H466 C451 0.961 . S
H467 C451 0.960 . S
C468 C469 1.391 . S
C468 C470 1.394 . S
C468 H484 0.931 . S
C469 C468 1.391 . S
C469 C473 1.376 . S
C470 C468 1.394 . S
C470 C471 1.369 . S
C470 C474 1.531 . S
C471 C470 1.369 . S
C471 C472 1.410 . S
C471 C479 1.503 . S
C472 C471 1.410 . S
C472 C473 1.392 . S
C472 C475 1.511 . S
C473 C469 1.376 . S
C473 C472 1.392 . S
C473 H485 0.929 . S
C474 C470 1.531 . S
C474 H486 0.960 . S
C474 H487 0.962 . S
C474 H488 0.960 . S
C475 C472 1.511 . S
C475 H489 0.961 . S
C475 H490 0.961 . S
C475 H491 0.961 . S
C476 C477 1.370 . S
C476 C478 1.363 . S
C476 H492 0.931 . S
C477 C476 1.370 . S
C477 C481 1.408 . S
C478 C476 1.363 . S
C478 C479 1.370 . S
C478 C482 1.524 . S
C479 C471 1.503 . S
C479 C478 1.370 . S
C479 C480 1.403 . S
C480 C479 1.403 . S
C480 C481 1.404 . S
C480 C483 1.539 . S
C481 C477 1.408 . S
C481 C480 1.404 . S
C481 H493 0.930 . S
C482 C478 1.524 . S
C482 H494 0.956 . S
C482 H495 0.961 . S
C482 H496 0.961 . S
C483 C480 1.539 . S
C483 H497 0.958 . S
C483 H498 0.961 . S
C483 H499 0.960 . S
H484 C468 0.931 . S
H485 C473 0.929 . S
H486 C474 0.960 . S
H487 C474 0.962 . S
H488 C474 0.960 . S
H489 C475 0.961 . S
H490 C475 0.961 . S
H491 C475 0.961 . S
H492 C476 0.931 . S
H493 C481 0.930 . S
H494 C482 0.956 . S
H495 C482 0.961 . S
H496 C482 0.961 . S
H497 C483 0.958 . S
H498 C483 0.961 . S
H499 C483 0.960 . S
C500 C501 1.391 . S
C500 C502 1.394 . S
C500 H516 0.931 . S
C501 C500 1.391 . S
C501 C505 1.376 . S
C502 C500 1.394 . S
C502 C503 1.369 . S
C502 C506 1.531 . S
C503 C502 1.369 . S
C503 C504 1.410 . S
C503 C511 1.503 . S
C504 C503 1.410 . S
C504 C505 1.392 . S
C504 C507 1.511 . S
C505 C501 1.376 . S
C505 C504 1.392 . S
C505 H517 0.929 1_556 S
C506 C502 1.531 . S
C506 H518 0.960 . S
C506 H519 0.962 . S
C506 H520 0.960 . S
C507 C504 1.511 . S
C507 H521 0.961 1_556 S
C507 H522 0.961 . S
C507 H523 0.961 . S
C508 C509 1.370 . S
C508 C510 1.363 . S
C508 H524 0.931 . S
C509 C508 1.370 . S
C509 C513 1.408 . S
C510 C508 1.363 . S
C510 C511 1.370 . S
C510 C514 1.524 . S
C511 C503 1.503 . S
C511 C510 1.370 . S
C511 C512 1.403 . S
C512 C511 1.403 . S
C512 C513 1.404 . S
C512 C515 1.539 . S
C513 C509 1.408 . S
C513 C512 1.404 . S
C513 H525 0.930 . S
C514 C510 1.524 . S
C514 H526 0.956 . S
C514 H527 0.961 . S
C514 H528 0.961 . S
C515 C512 1.539 . S
C515 H529 0.958 . S
C515 H530 0.961 . S
C515 H531 0.960 . S
H516 C500 0.931 . S
H517 C505 0.929 1_554 S
H518 C506 0.960 . S
H519 C506 0.962 . S
H520 C506 0.960 . S
H521 C507 0.961 1_554 S
H522 C507 0.961 . S
H523 C507 0.961 . S
H524 C508 0.931 . S
H525 C513 0.930 . S
H526 C514 0.956 . S
H527 C514 0.961 . S
H528 C514 0.961 . S
H529 C515 0.958 . S
H530 C515 0.961 . S
H531 C515 0.960 . S
C532 C533 1.391 . S
C532 C534 1.394 . S
C532 H548 0.931 . S
C533 C532 1.391 . S
C533 C537 1.376 . S
C534 C532 1.394 . S
C534 C535 1.369 . S
C534 C538 1.531 . S
C535 C534 1.369 . S
C535 C536 1.410 . S
C535 C543 1.503 . S
C536 C535 1.410 . S
C536 C537 1.392 . S
C536 C539 1.511 . S
C537 C533 1.376 . S
C537 C536 1.392 . S
C537 H549 0.929 . S
C538 C534 1.531 . S
C538 H550 0.960 . S
C538 H551 0.962 . S
C538 H552 0.960 . S
C539 C536 1.511 . S
C539 H553 0.961 . S
C539 H554 0.961 . S
C539 H555 0.961 . S
C540 C541 1.370 . S
C540 C542 1.363 . S
C540 H556 0.931 . S
C541 C540 1.370 . S
C541 C545 1.408 . S
C542 C540 1.363 . S
C542 C543 1.370 . S
C542 C546 1.524 . S
C543 C535 1.503 . S
C543 C542 1.370 . S
C543 C544 1.403 . S
C544 C543 1.403 . S
C544 C545 1.404 . S
C544 C547 1.539 . S
C545 C541 1.408 . S
C545 C544 1.404 . S
C545 H557 0.930 . S
C546 C542 1.524 . S
C546 H558 0.956 . S
C546 H559 0.961 . S
C546 H560 0.961 . S
C547 C544 1.539 . S
C547 H561 0.958 . S
C547 H562 0.961 . S
C547 H563 0.960 . S
H548 C532 0.931 . S
H549 C537 0.929 . S
H550 C538 0.960 . S
H551 C538 0.962 . S
H552 C538 0.960 . S
H553 C539 0.961 . S
H554 C539 0.961 . S
H555 C539 0.961 . S
H556 C540 0.931 . S
H557 C545 0.930 . S
H558 C546 0.956 . S
H559 C546 0.961 . S
H560 C546 0.961 . S
H561 C547 0.958 . S
H562 C547 0.961 . S
H563 C547 0.960 . S
C564 C565 1.391 . S
C564 C566 1.394 . S
C564 H580 0.931 . S
C565 C564 1.391 . S
C565 C569 1.376 . S
C566 C564 1.394 . S
C566 C567 1.369 . S
C566 C570 1.531 . S
C567 C566 1.369 . S
C567 C568 1.410 . S
C567 C575 1.503 . S
C568 C567 1.410 . S
C568 C569 1.392 . S
C568 C571 1.511 . S
C569 C565 1.376 . S
C569 C568 1.392 . S
C569 H581 0.929 . S
C570 C566 1.531 . S
C570 H582 0.960 . S
C570 H583 0.962 . S
C570 H584 0.960 . S
C571 C568 1.511 . S
C571 H585 0.961 . S
C571 H586 0.961 . S
C571 H587 0.961 . S
C572 C573 1.370 . S
C572 C574 1.363 . S
C572 H588 0.931 . S
C573 C572 1.370 . S
C573 C577 1.408 . S
C574 C572 1.363 . S
C574 C575 1.370 . S
C574 C578 1.524 . S
C575 C567 1.503 . S
C575 C574 1.370 . S
C575 C576 1.403 . S
C576 C575 1.403 . S
C576 C577 1.404 . S
C576 C579 1.539 . S
C577 C573 1.408 . S
C577 C576 1.404 . S
C577 H589 0.930 1_565 S
C578 C574 1.524 . S
C578 H590 0.956 . S
C578 H591 0.961 . S
C578 H592 0.961 . S
C579 C576 1.539 . S
C579 H593 0.958 . S
C579 H594 0.961 1_565 S
C579 H595 0.960 . S
H580 C564 0.931 . S
H581 C569 0.929 . S
H582 C570 0.960 . S
H583 C570 0.962 . S
H584 C570 0.960 . S
H585 C571 0.961 . S
H586 C571 0.961 . S
H587 C571 0.961 . S
H588 C572 0.931 . S
H589 C577 0.930 1_545 S
H590 C578 0.956 . S
H591 C578 0.961 . S
H592 C578 0.961 . S
H593 C579 0.958 . S
H594 C579 0.961 1_545 S
H595 C579 0.960 . S
C221 C107 1.622 . S
C213 C41 1.602 . S
C245 C8 1.647 . S
C253 C202 1.641 . S
C277 C19 1.734 . S
C285 C118 1.759 . S
C309 C30 1.583 . S
C317 C191 1.611 . S
C349 C102 1.463 . S
C341 C5 1.507 . S
C381 C195 1.795 . S
C373 C18 1.718 . S
C405 C29 1.621 . S
C413 C111 1.709 . S
C437 C40 1.585 . S
C445 C186 1.498 . S
C477 C197 1.384 . S
C469 C16 1.277 . S
C509 C113 1.336 . S
C501 C27 1.229 1_556 S
C541 C184 1.545 . S
C533 C38 1.268 . S
C565 C7 1.493 . S
C573 C100 1.513 . S
