# Generated by pormake.
# Topology soc, (4,6)-cn, num edge types: 1
# Building blocks:
#     Node 0, Type 0, BuildingBlock: ESEHIV_clean_sbu_0, # of connection points: 4
#     Node 1, Type 0, BuildingBlock: ESEHIV_clean_sbu_0, # of connection points: 4
#     Node 2, Type 0, BuildingBlock: ESEHIV_clean_sbu_0, # of connection points: 4
#     Node 3, Type 0, BuildingBlock: ESEHIV_clean_sbu_0, # of connection points: 4
#     Node 4, Type 0, BuildingBlock: ESEHIV_clean_sbu_0, # of connection points: 4
#     Node 5, Type 0, BuildingBlock: ESEHIV_clean_sbu_0, # of connection points: 4
#     Node 6, Type 0, BuildingBlock: ESEHIV_clean_sbu_0, # of connection points: 4
#     Node 7, Type 0, BuildingBlock: ESEHIV_clean_sbu_0, # of connection points: 4
#     Node 8, Type 0, BuildingBlock: ESEHIV_clean_sbu_0, # of connection points: 4
#     Node 9, Type 0, BuildingBlock: ESEHIV_clean_sbu_0, # of connection points: 4
#     Node 10, Type 0, BuildingBlock: ESEHIV_clean_sbu_0, # of connection points: 4
#     Node 11, Type 0, BuildingBlock: ESEHIV_clean_sbu_0, # of connection points: 4
#     Node 12, Type 1, BuildingBlock: KUMBUR_clean_sbu_0, # of connection points: 6
#     Node 13, Type 1, BuildingBlock: KUMBUR_clean_sbu_0, # of connection points: 6
#     Node 14, Type 1, BuildingBlock: KUMBUR_clean_sbu_0, # of connection points: 6
#     Node 15, Type 1, BuildingBlock: KUMBUR_clean_sbu_0, # of connection points: 6
#     Node 16, Type 1, BuildingBlock: KUMBUR_clean_sbu_0, # of connection points: 6
#     Node 17, Type 1, BuildingBlock: KUMBUR_clean_sbu_0, # of connection points: 6
#     Node 18, Type 1, BuildingBlock: KUMBUR_clean_sbu_0, # of connection points: 6
#     Node 19, Type 1, BuildingBlock: KUMBUR_clean_sbu_0, # of connection points: 6
#     Edge 20, Type (0, 1), BuildingBlock: ZUJKAS_clean_linker_0, # of connection points: 2
#     Edge 21, Type (0, 1), BuildingBlock: ZUJKAS_clean_linker_0, # of connection points: 2
#     Edge 22, Type (0, 1), BuildingBlock: ZUJKAS_clean_linker_0, # of connection points: 2
#     Edge 23, Type (0, 1), BuildingBlock: ZUJKAS_clean_linker_0, # of connection points: 2
#     Edge 24, Type (0, 1), BuildingBlock: ZUJKAS_clean_linker_0, # of connection points: 2
#     Edge 25, Type (0, 1), BuildingBlock: ZUJKAS_clean_linker_0, # of connection points: 2
#     Edge 26, Type (0, 1), BuildingBlock: ZUJKAS_clean_linker_0, # of connection points: 2
#     Edge 27, Type (0, 1), BuildingBlock: ZUJKAS_clean_linker_0, # of connection points: 2
#     Edge 28, Type (0, 1), BuildingBlock: ZUJKAS_clean_linker_0, # of connection points: 2
#     Edge 29, Type (0, 1), BuildingBlock: ZUJKAS_clean_linker_0, # of connection points: 2
#     Edge 30, Type (0, 1), BuildingBlock: ZUJKAS_clean_linker_0, # of connection points: 2
#     Edge 31, Type (0, 1), BuildingBlock: ZUJKAS_clean_linker_0, # of connection points: 2
#     Edge 32, Type (0, 1), BuildingBlock: ZUJKAS_clean_linker_0, # of connection points: 2
#     Edge 33, Type (0, 1), BuildingBlock: ZUJKAS_clean_linker_0, # of connection points: 2
#     Edge 34, Type (0, 1), BuildingBlock: ZUJKAS_clean_linker_0, # of connection points: 2
#     Edge 35, Type (0, 1), BuildingBlock: ZUJKAS_clean_linker_0, # of connection points: 2
#     Edge 36, Type (0, 1), BuildingBlock: ZUJKAS_clean_linker_0, # of connection points: 2
#     Edge 37, Type (0, 1), BuildingBlock: ZUJKAS_clean_linker_0, # of connection points: 2
#     Edge 38, Type (0, 1), BuildingBlock: ZUJKAS_clean_linker_0, # of connection points: 2
#     Edge 39, Type (0, 1), BuildingBlock: ZUJKAS_clean_linker_0, # of connection points: 2
#     Edge 40, Type (0, 1), BuildingBlock: ZUJKAS_clean_linker_0, # of connection points: 2
#     Edge 41, Type (0, 1), BuildingBlock: ZUJKAS_clean_linker_0, # of connection points: 2
#     Edge 42, Type (0, 1), BuildingBlock: ZUJKAS_clean_linker_0, # of connection points: 2
#     Edge 43, Type (0, 1), BuildingBlock: ZUJKAS_clean_linker_0, # of connection points: 2
#     Edge 44, Type (0, 1), BuildingBlock: ZUJKAS_clean_linker_0, # of connection points: 2
#     Edge 45, Type (0, 1), BuildingBlock: ZUJKAS_clean_linker_0, # of connection points: 2
#     Edge 46, Type (0, 1), BuildingBlock: ZUJKAS_clean_linker_0, # of connection points: 2
#     Edge 47, Type (0, 1), BuildingBlock: ZUJKAS_clean_linker_0, # of connection points: 2
#     Edge 48, Type (0, 1), BuildingBlock: ZUJKAS_clean_linker_0, # of connection points: 2
#     Edge 49, Type (0, 1), BuildingBlock: ZUJKAS_clean_linker_0, # of connection points: 2
#     Edge 50, Type (0, 1), BuildingBlock: ZUJKAS_clean_linker_0, # of connection points: 2
#     Edge 51, Type (0, 1), BuildingBlock: ZUJKAS_clean_linker_0, # of connection points: 2
#     Edge 52, Type (0, 1), BuildingBlock: ZUJKAS_clean_linker_0, # of connection points: 2
#     Edge 53, Type (0, 1), BuildingBlock: ZUJKAS_clean_linker_0, # of connection points: 2
#     Edge 54, Type (0, 1), BuildingBlock: ZUJKAS_clean_linker_0, # of connection points: 2
#     Edge 55, Type (0, 1), BuildingBlock: ZUJKAS_clean_linker_0, # of connection points: 2
#     Edge 56, Type (0, 1), BuildingBlock: ZUJKAS_clean_linker_0, # of connection points: 2
#     Edge 57, Type (0, 1), BuildingBlock: ZUJKAS_clean_linker_0, # of connection points: 2
#     Edge 58, Type (0, 1), BuildingBlock: ZUJKAS_clean_linker_0, # of connection points: 2
#     Edge 59, Type (0, 1), BuildingBlock: ZUJKAS_clean_linker_0, # of connection points: 2
#     Edge 60, Type (0, 1), BuildingBlock: ZUJKAS_clean_linker_0, # of connection points: 2
#     Edge 61, Type (0, 1), BuildingBlock: ZUJKAS_clean_linker_0, # of connection points: 2
#     Edge 62, Type (0, 1), BuildingBlock: ZUJKAS_clean_linker_0, # of connection points: 2
#     Edge 63, Type (0, 1), BuildingBlock: ZUJKAS_clean_linker_0, # of connection points: 2
#     Edge 64, Type (0, 1), BuildingBlock: ZUJKAS_clean_linker_0, # of connection points: 2
#     Edge 65, Type (0, 1), BuildingBlock: ZUJKAS_clean_linker_0, # of connection points: 2
#     Edge 66, Type (0, 1), BuildingBlock: ZUJKAS_clean_linker_0, # of connection points: 2
#     Edge 67, Type (0, 1), BuildingBlock: ZUJKAS_clean_linker_0, # of connection points: 2
# Relax obj value: 0.053
# Max RMSD: 0.165
# Mean RMSD: 0.130
data_MOF--net-soc--node1-ESEHIV_clean_sbu_0--node2-KUMBUR_clean_sbu_0--edge1-ZUJKAS_clean_linker_0
_symmetry_space_group_name_H-M    P1
_symmetry_Int_Tables_number       1
_symmetry_cell_setting            triclinic
loop_
_symmetry_equiv_pos_as_xyz
'x, y, z'
_cell_length_a     64.426028
_cell_length_b     62.426005
_cell_length_c     53.281963
_cell_angle_alpha  84.824072
_cell_angle_beta   83.278294
_cell_angle_gamma 75.713936
loop_
_atom_site_label
_atom_site_type_symbol
_atom_site_fract_x
_atom_site_fract_y
_atom_site_fract_z
_atom_type_partial_charge
Cu0 Cu 0.04206 0.03322 0.34343 0.0
N1 N 0.05809 0.04572 0.3627 0.0
N2 N 0.07936 0.06702 0.37149 0.0
C3 C 0.06929 0.06082 0.35351 0.0
C4 C 0.07393 0.05562 0.39299 0.0
C5 C 0.06076 0.04265 0.38756 0.0
O6 O 0.06195 0.01091 0.32299 0.0
C7 C 1.00988 0.05918 0.31059 0.0
O8 O 1.01032 0.04109 0.29951 0.0
H9 H 0.06968 0.06737 0.33401 0.0
H10 H 0.05353 0.03201 0.40102 0.0
N11 N 1.02493 0.01676 0.36355 0.0
N12 N 1.00177 0.99488 0.37123 0.0
C13 C 1.00766 0.01139 0.35613 0.0
C14 C 0.03022 1.00302 0.384 0.0
C15 C 1.01582 0.98977 0.38899 0.0
C16 C 0.08085 0.01147 0.31325 0.0
O17 O 0.08696 0.03014 0.31173 0.0
H18 H 1.00047 0.01836 0.33901 0.0
H19 H 0.04474 1.00103 0.39311 0.0
O20 O 1.02289 0.05857 0.32703 0.0
H21 H 0.07922 0.05637 0.41136 0.0
H22 H 1.01688 0.97606 0.40312 0.0
Cu23 Cu 0.04227 0.03454 0.75501 0.0
N24 N 0.02959 0.01938 0.73487 0.0
N25 N 1.00861 0.99848 0.72491 0.0
C26 C 1.0143 0.00854 0.74348 0.0
C27 C 1.02084 1.00318 0.70378 0.0
C28 C 0.03377 0.01611 0.70998 0.0
O29 O 1.01922 0.05503 0.77413 0.0
C30 C 0.07664 0.99969 0.75876 0.0
O31 O 0.07577 1.00379 0.73424 0.0
H32 H 1.00788 0.00766 0.76315 0.0
H33 H 0.04564 0.02231 0.69732 0.0
N34 N 0.05816 0.0524 0.73587 0.0
N35 N 0.08033 0.07513 0.72892 0.0
C36 C 0.07323 0.06007 0.74517 0.0
C37 C 0.05551 0.06294 0.71289 0.0
C38 C 0.06926 0.07696 0.7085 0.0
C39 C 1.0048 0.06637 0.76051 0.0
O40 O 1.00639 0.06263 0.73642 0.0
H41 H 0.0779 0.05561 0.76417 0.0
H42 H 0.04374 0.06137 0.70072 0.0
O43 O 0.06271 0.01206 0.77363 0.0
H44 H 1.02049 0.9977 0.68517 0.0
H45 H 0.07057 0.08803 0.69186 0.0
Cu46 Cu 0.27692 0.05571 0.08422 0.0
N47 N 0.25486 0.05105 0.06741 0.0
N48 N 0.23871 0.03327 0.04422 0.0
C49 C 0.25392 0.03131 0.06016 0.0
C50 C 0.22973 0.05515 0.04117 0.0
C51 C 0.23972 0.06612 0.05564 0.0
O52 O 0.29054 0.02708 0.10074 0.0
C53 C 0.2875 0.09002 0.05239 0.0
O54 O 0.27043 0.101 0.0658 0.0
H55 H 0.26529 0.01596 0.06489 0.0
H56 H 0.23699 0.08386 0.05635 0.0
N57 N 0.26568 0.07538 0.10947 0.0
N58 N 0.26393 0.10039 0.13748 0.0
C59 C 0.27697 0.08532 0.12245 0.0
C60 C 0.24483 0.08424 0.11671 0.0
C61 C 0.24369 0.09976 0.13396 0.0
C62 C 0.27762 0.0186 0.11625 0.0
O63 O 0.25749 0.02982 0.11989 0.0
H64 H 0.29434 0.08234 0.11995 0.0
H65 H 0.23141 0.08014 0.10941 0.0
O66 O 0.29454 0.06935 0.05799 0.0
H67 H 0.21751 0.06266 0.02861 0.0
H68 H 0.22913 0.10997 0.14296 0.0
Cu69 Cu 0.06414 0.29646 0.07915 0.0
N70 N 0.07727 0.31456 0.05595 0.0
N71 N 0.09919 0.32332 0.02301 0.0
C72 C 0.09093 0.30717 0.03575 0.0
C73 C 0.08993 0.34181 0.0353 0.0
C74 C 0.07642 0.33634 0.05571 0.0
O75 O 0.08509 0.28218 0.10366 0.0
C76 C 0.0394 0.26699 0.0632 0.0
O77 O 0.03513 0.26074 0.08706 0.0
H78 H 0.0951 0.29007 0.03086 0.0
H79 H 0.06707 0.34731 0.06967 0.0
N80 N 0.04101 0.31338 0.09896 0.0
N81 N 1.01018 0.32085 0.12425 0.0
C82 C 1.02063 0.31089 0.10335 0.0
C83 C 0.04325 0.32576 0.11741 0.0
C84 C 1.02432 0.33034 0.13305 0.0
C85 C 0.10549 0.27905 0.09889 0.0
O86 O 0.11368 0.28046 0.07525 0.0
H87 H 1.01411 0.30049 0.09284 0.0
H88 H 0.05823 0.32954 0.12051 0.0
O89 O 0.05276 0.27911 0.05743 0.0
H90 H 0.09332 0.35791 0.03049 0.0
H91 H 1.0216 0.33884 0.15041 0.0
Cu92 Cu 0.81563 1.00232 0.99661 0.0
N93 N 0.82882 0.01797 0.97084 0.0
N94 N 0.83276 0.04769 0.94594 0.0
C95 C 0.82026 0.03933 0.96434 0.0
C96 C 0.84985 0.03074 0.94036 0.0
C97 C 0.84741 0.01235 0.95591 0.0
O98 O 0.80208 0.02376 0.02173 0.0
C99 C 0.80836 0.97079 0.96909 0.0
O100 O 0.82947 0.96647 0.96757 0.0
H101 H 0.80504 0.04853 0.97307 0.0
H102 H 0.85846 0.9962 0.9565 0.0
N103 N 0.83465 0.98032 0.01401 0.0
N104 N 0.84321 0.95279 0.0434 0.0
C105 C 0.82751 0.9655 0.03033 0.0
C106 C 0.85578 0.97692 0.0166 0.0
C107 C 0.86111 0.9599 0.03497 0.0
C108 C 0.81579 0.03281 0.02927 0.0
O109 O 0.83596 0.02674 0.01976 0.0
H110 H 0.81072 0.96501 0.03358 0.0
H111 H 0.86627 0.98672 1.00674 0.0
O112 O 0.79749 0.98728 0.98127 0.0
H113 H 0.86333 0.03169 0.9265 0.0
H114 H 0.8767 0.95368 0.04203 0.0
Cu115 Cu 0.02941 0.76393 0.01457 0.0
N116 N 1.0159 0.74884 0.99544 0.0
N117 N 0.9943 0.74233 0.96864 0.0
C118 C 1.0029 0.75762 0.97721 0.0
C119 C 1.00271 0.72312 0.98157 0.0
C120 C 1.01604 0.72718 0.99801 0.0
O121 O 1.00771 0.78143 0.03963 0.0
C122 C 0.06319 0.78796 0.99379 0.0
O123 O 0.06092 0.79734 0.01536 0.0
H124 H 0.99887 0.77512 0.97152 0.0
H125 H 1.02483 0.71527 1.01134 0.0
N126 N 0.04588 0.74336 0.03596 0.0
N127 N 0.06971 0.73484 0.06451 0.0
C128 C 0.06528 0.74461 0.04157 0.0
C129 C 0.03796 0.73177 0.05571 0.0
C130 C 0.05265 0.72651 0.07345 0.0
C131 C 0.98756 0.7819 0.04145 0.0
O132 O 0.97968 0.77536 0.02269 0.0
H133 H 0.0745 0.7553 0.03097 0.0
H134 H 1.02156 0.72994 0.05853 0.0
O135 O 0.05036 0.77604 0.99027 0.0
H136 H 0.99925 0.70728 0.97962 0.0
H137 H 0.04996 0.71939 0.09249 0.0
Cu138 Cu 0.53794 0.53295 0.84141 0.0
N139 N 0.55194 0.54726 0.86086 0.0
N140 N 0.57484 0.56692 0.86873 0.0
C141 C 0.57025 0.55355 0.85272 0.0
C142 C 0.55879 0.56909 0.8877 0.0
C143 C 0.54455 0.5572 0.88263 0.0
O144 O 0.56049 0.51139 0.82274 0.0
C145 C 0.5026 0.55563 0.81255 0.0
O146 O 0.49979 0.53602 0.8092 0.0
H147 H 0.5794 0.54927 0.83475 0.0
H148 H 0.52911 0.55737 0.89304 0.0
N149 N 0.52039 0.51684 0.86138 0.0
N150 N 0.49866 0.49362 0.87028 0.0
C151 C 0.51081 0.50281 0.85213 0.0
C152 C 0.51473 0.51599 0.8865 0.0
C153 C 0.50126 0.50179 0.89203 0.0
C154 C 0.56959 0.49509 0.83709 0.0
O155 O 0.56323 0.49483 0.86144 0.0
H156 H 0.51273 0.49958 0.83233 0.0
H157 H 0.52012 0.52473 0.90003 0.0
O158 O 0.51913 0.55706 0.8227 0.0
H159 H 0.55661 0.57987 0.9031 0.0
H160 H 0.49411 0.49778 0.9107 0.0
Cu161 Cu 0.54912 0.53903 0.25439 0.0
N162 N 0.5352 0.52397 0.23546 0.0
N163 N 0.51353 0.50283 0.22765 0.0
C164 C 0.51888 0.51468 0.24482 0.0
C165 C 0.527 0.50485 0.20664 0.0
C166 C 0.54036 0.51782 0.21153 0.0
O167 O 0.52692 0.56021 0.2736 0.0
C168 C 0.58493 0.50609 0.25768 0.0
O169 O 0.58459 0.51142 0.23329 0.0
H170 H 0.51178 0.51578 0.26425 0.0
H171 H 0.55345 0.52169 0.19881 0.0
N172 N 0.56558 0.5564 0.23459 0.0
N173 N 0.5879 0.57906 0.22649 0.0
C174 C 0.57883 0.56642 0.24424 0.0
C175 C 0.56618 0.56291 0.20979 0.0
C176 C 0.57996 0.57686 0.20473 0.0
C177 C 0.51629 0.575 0.25879 0.0
O178 O 0.52038 0.57312 0.23425 0.0
H179 H 0.58118 0.56495 0.26416 0.0
H180 H 0.55684 0.55841 0.19644 0.0
O181 O 0.56961 0.51646 0.27275 0.0
H182 H 0.52744 0.4972 0.18909 0.0
H183 H 0.58373 0.58482 0.18646 0.0
Cu184 Cu 0.77374 0.56652 0.57906 0.0
N185 N 0.75385 0.5834 0.5582 0.0
N186 N 0.74519 0.60626 0.52439 0.0
C187 C 0.75686 0.6017 0.54446 0.0
C188 C 0.7339 0.59054 0.52604 0.0
C189 C 0.73927 0.57643 0.54698 0.0
O190 O 0.78663 0.58688 0.59411 0.0
C191 C 0.79708 0.54715 0.53446 0.0
O192 O 0.79274 0.56731 0.52375 0.0
H193 H 0.76969 0.60948 0.54696 0.0
H194 H 0.7348 0.56087 0.55194 0.0
N195 N 0.76049 0.55031 0.60406 0.0
N196 N 0.7568 0.52119 0.6302 0.0
C197 C 0.77019 0.5301 0.61345 0.0
C198 C 0.74014 0.55445 0.61505 0.0
C199 C 0.7378 0.53642 0.63125 0.0
C200 C 0.79288 0.58374 0.61625 0.0
O201 O 0.79324 0.56464 0.62895 0.0
H202 H 0.78666 0.52188 0.60751 0.0
H203 H 0.72784 0.5693 0.61123 0.0
O204 O 0.79309 0.5443 0.55835 0.0
H205 H 0.72404 0.58821 0.51187 0.0
H206 H 0.72329 0.5347 0.64288 0.0
Cu207 Cu 0.56369 0.78913 0.57178 0.0
N208 N 0.58506 0.77266 0.54872 0.0
N209 N 0.61139 0.76662 0.51652 0.0
C210 C 0.59883 0.78153 0.53228 0.0
C211 C 0.60523 0.74757 0.5235 0.0
C212 C 0.58907 0.75132 0.54327 0.0
O213 O 0.57882 0.80389 0.59155 0.0
C214 C 0.53364 0.79522 0.54041 0.0
O215 O 0.53913 0.77369 0.54546 0.0
H216 H 0.59909 0.79885 0.53143 0.0
H217 H 0.58056 0.73944 0.55262 0.0
N218 N 0.54732 0.77344 0.59524 0.0
N219 N 0.51955 0.76771 0.62281 0.0
C220 C 0.52724 0.78223 0.60602 0.0
C221 C 0.55253 0.75257 0.60553 0.0
C222 C 0.53554 0.74902 0.62247 0.0
C223 C 0.59364 0.78994 0.60227 0.0
O224 O 0.59614 0.7688 0.59903 0.0
H225 H 0.5186 0.79916 0.60189 0.0
H226 H 0.56767 0.74079 0.60118 0.0
O227 O 0.54311 0.80747 0.55045 0.0
H228 H 0.61187 0.73195 0.51494 0.0
H229 H 0.535 0.73371 0.63352 0.0
Cu230 Cu 0.31233 0.50553 0.50357 0.0
N231 N 0.32628 0.52165 0.47857 0.0
N232 N 0.33022 0.5517 0.4537 0.0
C233 C 0.31766 0.54308 0.47196 0.0
C234 C 0.3475 0.53477 0.44856 0.0
C235 C 0.34504 0.51627 0.46394 0.0
O236 O 0.30072 0.52626 0.52936 0.0
C237 C 0.30011 0.47628 0.47709 0.0
O238 O 0.32086 0.46762 0.4771 0.0
H239 H 0.3022 0.55205 0.48032 0.0
H240 H 0.3561 0.50013 0.46438 0.0
N241 N 0.32919 0.48136 0.52143 0.0
N242 N 0.33545 0.45534 0.55333 0.0
C243 C 0.32066 0.47143 0.54219 0.0
C244 C 0.35026 0.47121 0.51911 0.0
C245 C 0.35416 0.45506 0.53874 0.0
C246 C 0.31615 0.5309 0.53901 0.0
O247 O 0.33601 0.52203 0.53004 0.0
H248 H 0.30376 0.47613 0.54896 0.0
H249 H 0.362 0.47551 0.50459 0.0
O250 O 0.29181 0.49427 0.48782 0.0
H251 H 0.36111 0.53567 0.43487 0.0
H252 H 0.36966 0.4444 0.54233 0.0
Cu253 Cu 0.52473 0.27349 0.51752 0.0
N254 N 0.54665 0.25765 0.49532 0.0
N255 N 0.57722 0.24968 0.46967 0.0
C256 C 0.56433 0.26439 0.48524 0.0
C257 C 0.56716 0.23308 0.46984 0.0
C258 C 0.54831 0.23803 0.48569 0.0
O259 O 0.5382 0.29231 0.53491 0.0
C260 C 0.48956 0.27368 0.49203 0.0
O261 O 0.49537 0.25284 0.50038 0.0
H262 H 0.56752 0.27995 0.48909 0.0
H263 H 0.53668 0.22802 0.4899 0.0
N264 N 0.51502 0.25495 0.54333 0.0
N265 N 0.49544 0.24488 0.57778 0.0
C266 C 0.49839 0.26159 0.56088 0.0
C267 C 0.52297 0.2333 0.54924 0.0
C268 C 0.51091 0.22703 0.5705 0.0
C269 C 0.55456 0.28106 0.5457 0.0
O270 O 0.55997 0.25947 0.54415 0.0
H271 H 0.48897 0.27852 0.56147 0.0
H272 H 0.53668 0.22287 0.53903 0.0
O273 O 0.50028 0.28711 0.49747 0.0
H274 H 0.57312 0.21826 0.45954 0.0
H275 H 0.51331 0.21056 0.57974 0.0
Tb276 Tb 0.27412 0.27997 0.32699 0.0
C277 C 0.3067 0.29793 0.21733 0.0
C278 C 0.33429 0.26465 0.20881 0.0
C279 C 0.31415 0.28508 0.17478 0.0
C280 C 0.32223 0.28023 0.22575 0.0
C281 C 0.30284 0.30099 0.19163 0.0
C282 C 0.32982 0.26688 0.18339 0.0
C283 C 0.27845 0.33616 0.20086 0.0
N284 N 0.29627 0.31292 0.23421 0.0
C285 C 0.28293 0.33239 0.22617 0.0
C286 C 0.28822 0.32025 0.18356 0.0
Tb287 Tb 0.304 0.30489 0.27542 0.0
N288 N 0.32614 0.27886 0.25037 0.0
C289 C 0.34307 0.26307 0.25886 0.0
C290 C 0.35079 0.24766 0.21782 0.0
C291 C 0.35539 0.24707 0.24288 0.0
H292 H 0.27522 0.34471 0.23946 0.0
H293 H 0.36838 0.23424 0.24993 0.0
H294 H 0.33877 0.25497 0.17011 0.0
H295 H 0.26746 0.35131 0.19471 0.0
H296 H 0.3468 0.26225 0.27819 0.0
H297 H 0.20863 0.34937 0.35341 0.0
H298 H 0.36038 0.23527 0.20547 0.0
H299 H 0.30248 0.23971 0.36272 0.0
H300 H 0.2306 0.32186 0.32481 0.0
H301 H 0.30967 0.23239 0.40761 0.0
H302 H 0.31127 0.28696 0.15498 0.0
H303 H 0.21688 0.34841 0.39777 0.0
H304 H 0.23876 0.32877 0.43293 0.0
H305 H 0.28479 0.32323 0.16396 0.0
H306 H 0.26625 0.29667 0.44785 0.0
N307 N 0.25173 0.30562 0.35233 0.0
C308 C 0.23443 0.32104 0.3441 0.0
C309 C 0.22664 0.33624 0.38527 0.0
C310 C 0.24342 0.31947 0.39406 0.0
C311 C 0.22189 0.33678 0.36028 0.0
C312 C 0.2557 0.30419 0.37693 0.0
H313 H 0.29241 0.26024 0.43866 0.0
N314 N 0.28162 0.27156 0.36822 0.0
C315 C 0.29891 0.24773 0.40154 0.0
C316 C 0.27122 0.28643 0.38524 0.0
C317 C 0.29475 0.25191 0.37614 0.0
C318 C 0.28919 0.26353 0.41899 0.0
C319 C 0.27487 0.28303 0.411 0.0
O320 O 0.26916 0.2477 0.3334 0.0
O321 O 0.29294 0.27626 0.29099 0.0
O322 O 0.27567 0.29991 0.26004 0.0
O323 O 0.25302 0.29538 0.29672 0.0
O324 O 0.29818 0.24984 0.31624 0.0
O325 O 0.24283 0.27568 0.32651 0.0
O326 O 0.30912 0.3371 0.2693 0.0
O327 O 0.28512 0.30861 0.31135 0.0
O328 O 0.3023 0.28531 0.34265 0.0
O329 O 0.32488 0.28953 0.3058 0.0
O330 O 0.28012 0.33518 0.28605 0.0
O331 O 0.33553 0.30891 0.27484 0.0
C332 C 0.30319 0.25634 0.29325 0.0
C333 C 0.23477 0.24582 0.35276 0.0
C334 C 0.2097 0.22259 0.36713 0.0
C335 C 0.22354 0.23023 0.34783 0.0
C336 C 0.20771 0.23038 0.39148 0.0
C337 C 0.23234 0.25347 0.37712 0.0
C338 C 0.219 0.24568 0.39639 0.0
C339 C 0.25672 0.29823 0.27166 0.0
C340 C 0.24847 0.25446 0.33229 0.0
C341 C 0.2635 0.29879 0.428 0.0
C342 C 0.24784 0.31705 0.41951 0.0
C343 C 0.27475 0.32846 0.30883 0.0
C344 C 0.34319 0.33929 0.24911 0.0
C345 C 0.35629 0.35298 0.25452 0.0
C346 C 0.36944 0.36129 0.23493 0.0
C347 C 0.36889 0.35607 0.2099 0.0
C348 C 0.34317 0.33415 0.22406 0.0
C349 C 0.35585 0.3426 0.20457 0.0
C350 C 0.32128 0.28675 0.33088 0.0
C351 C 0.32988 0.33023 0.2697 0.0
H352 H 0.22516 0.2245 0.32892 0.0
H353 H 0.19745 0.22455 0.40678 0.0
H354 H 0.24054 0.2656 0.38124 0.0
H355 H 0.21729 0.25163 0.41515 0.0
H356 H 0.35656 0.35674 0.27393 0.0
H357 H 0.37849 0.36252 0.19436 0.0
H358 H 0.33346 0.32358 0.21948 0.0
H359 H 0.35562 0.33863 0.18526 0.0
Tb360 Tb 0.80436 0.2964 0.31961 0.0
C361 C 0.73497 0.27152 0.26957 0.0
C362 C 0.72685 0.24039 0.29602 0.0
C363 C 0.69906 0.26501 0.27283 0.0
C364 C 0.74145 0.25319 0.28594 0.0
C365 C 0.71381 0.27745 0.26248 0.0
C366 C 0.70555 0.24656 0.28962 0.0
C367 C 0.7237 0.30676 0.23441 0.0
N368 N 0.74959 0.28327 0.26015 0.0
C369 C 0.74454 0.30022 0.24194 0.0
C370 C 0.70821 0.29546 0.2449 0.0
Tb371 Tb 0.78328 0.27048 0.27339 0.0
N372 N 0.76211 0.2478 0.29182 0.0
C373 C 0.76957 0.22897 0.30656 0.0
C374 C 0.73414 0.22168 0.31206 0.0
C375 C 0.75565 0.21584 0.31715 0.0
H376 H 0.75655 0.30889 0.2337 0.0
H377 H 0.76153 0.20125 0.32928 0.0
H378 H 0.69406 0.23701 0.29729 0.0
H379 H 0.71963 0.32045 0.22047 0.0
H380 H 0.78613 0.22423 0.31074 0.0
H381 H 0.83301 0.36225 0.26444 0.0
H382 H 0.72339 0.21149 0.32032 0.0
H383 H 0.82498 0.26135 0.36651 0.0
H384 H 0.80687 0.34009 0.27912 0.0
H385 H 0.85859 0.25157 0.38706 0.0
H386 H 0.68267 0.26938 0.26776 0.0
H387 H 0.86867 0.35296 0.28086 0.0
H388 H 0.89457 0.32829 0.30889 0.0
H389 H 0.6921 0.30052 0.23897 0.0
H390 H 0.9016 0.29809 0.3421 0.0
N391 N 0.82786 0.31722 0.30269 0.0
C392 C 0.82248 0.33537 0.28616 0.0
C393 C 0.85743 0.34273 0.28694 0.0
C394 C 0.86264 0.32462 0.30442 0.0
C395 C 0.83727 0.34812 0.27777 0.0
C396 C 0.84722 0.31219 0.31227 0.0
H397 H 0.88816 0.2697 0.37165 0.0
N398 N 0.8354 0.28456 0.33907 0.0
C399 C 0.85676 0.2638 0.37122 0.0
C400 C 0.85113 0.29532 0.33108 0.0
C401 C 0.83767 0.26944 0.35948 0.0
C402 C 0.87342 0.27404 0.36244 0.0
C403 C 0.87064 0.29022 0.34236 0.0
O404 O 0.78624 0.30289 0.35472 0.0
O405 O 0.78055 0.2797 0.31165 0.0
O406 O 0.75921 0.29987 0.28544 0.0
O407 O 0.78086 0.3208 0.29802 0.0
O408 O 0.79239 0.27185 0.34577 0.0
O409 O 0.79901 0.32829 0.33353 0.0
O410 O 0.78965 0.26759 0.23406 0.0
O411 O 0.80751 0.28658 0.28116 0.0
O412 O 0.82896 0.26608 0.31185 0.0
O413 O 0.81014 0.2465 0.29079 0.0
O414 O 0.79618 0.29399 0.24666 0.0
O415 O 0.7935 0.23846 0.25973 0.0
C416 C 0.77856 0.26821 0.33208 0.0
C417 C 0.79713 0.32765 0.37845 0.0
C418 C 0.80052 0.35449 0.40755 0.0
C419 C 0.79473 0.34979 0.38427 0.0
C420 C 0.80939 0.33689 0.42442 0.0
C421 C 0.80573 0.31041 0.39596 0.0
C422 C 0.81205 0.31504 0.41858 0.0
C423 C 0.76235 0.31896 0.29105 0.0
C424 C 0.78947 0.32255 0.35502 0.0
C425 C 0.88645 0.30187 0.33379 0.0
C426 C 0.88244 0.31907 0.31488 0.0
C427 C 0.8101 0.29735 0.26036 0.0
C428 C 0.7804 0.23617 0.22052 0.0
C429 C 0.78806 0.21416 0.21336 0.0
C430 C 0.77567 0.20477 0.19926 0.0
C431 C 0.7556 0.21747 0.19267 0.0
C432 C 0.76069 0.24865 0.21259 0.0
C433 C 0.74826 0.23929 0.19919 0.0
C434 C 0.8271 0.24781 0.30223 0.0
C435 C 0.79283 0.24604 0.23614 0.0
H436 H 0.78775 0.36325 0.37119 0.0
H437 H 0.81423 0.34008 0.44226 0.0
H438 H 0.80719 0.29329 0.39251 0.0
H439 H 0.8187 0.30162 0.43184 0.0
H440 H 0.8035 0.20444 0.21867 0.0
H441 H 0.7459 0.21074 0.18161 0.0
H442 H 0.75487 0.26578 0.21633 0.0
H443 H 0.73303 0.24913 0.19346 0.0
Tb444 Tb 0.79664 0.76398 0.27071 0.0
C445 C 0.78816 0.80934 0.36289 0.0
C446 C 0.76212 0.8438 0.35567 0.0
C447 C 0.76166 0.82435 0.39714 0.0
C448 C 0.77943 0.82668 0.34666 0.0
C449 C 0.78038 0.80881 0.38877 0.0
C450 C 0.75233 0.84173 0.38045 0.0
C451 C 0.81323 0.78207 0.39707 0.0
N452 N 0.80663 0.79534 0.35424 0.0
C453 C 0.82017 0.78337 0.37121 0.0
C454 C 0.79281 0.79416 0.40576 0.0
Tb455 Tb 0.81588 0.7967 0.31122 0.0
N456 N 0.79048 0.82867 0.32361 0.0
C457 C 0.78769 0.84942 0.31138 0.0
C458 C 0.75671 0.86344 0.34056 0.0
C459 C 0.77015 0.8666 0.3188 0.0
H460 H 0.83593 0.77371 0.36471 0.0
H461 H 0.76736 0.88244 0.30808 0.0
H462 H 0.73875 0.85448 0.38753 0.0
H463 H 0.82359 0.77164 0.4102 0.0
H464 H 0.79865 0.8528 0.29544 0.0
H465 H 0.87407 0.70998 0.24344 0.0
H466 H 0.74351 0.87696 0.34672 0.0
H467 H 0.75609 0.78704 0.23691 0.0
H468 H 0.84446 0.72807 0.27327 0.0
H469 H 0.74989 0.79471 0.19164 0.0
H470 H 0.7552 0.82403 0.41684 0.0
H471 H 0.87265 0.71851 0.19735 0.0
H472 H 0.85206 0.73889 0.16159 0.0
H473 H 0.7875 0.79329 0.42581 0.0
H474 H 0.81838 0.76262 0.14741 0.0
N475 N 0.82563 0.74662 0.24461 0.0
C476 C 0.84313 0.73178 0.25331 0.0
C477 C 0.85935 0.72639 0.21039 0.0
C478 C 0.84122 0.74114 0.20155 0.0
C479 C 0.86018 0.72148 0.23638 0.0
C480 C 0.82437 0.75095 0.21936 0.0
H481 H 0.77997 0.78326 0.15849 0.0
N482 N 0.78951 0.77229 0.22931 0.0
C483 C 0.76573 0.78636 0.19693 0.0
C484 C 0.80567 0.76443 0.21141 0.0
C485 C 0.76927 0.78196 0.22251 0.0
C486 C 0.78277 0.77993 0.17828 0.0
C487 C 0.80292 0.76831 0.18541 0.0
O488 O 0.76708 0.75463 0.27256 0.0
O489 O 0.7915 0.78017 0.30609 0.0
O490 O 0.81522 0.76389 0.33066 0.0
O491 O 0.81279 0.74098 0.29967 0.0
O492 O 0.76552 0.78412 0.28697 0.0
O493 O 0.79688 0.73012 0.27216 0.0
O494 O 0.84803 0.78253 0.31858 0.0
O495 O 0.82434 0.77488 0.27987 0.0
O496 O 0.79407 0.79616 0.25025 0.0
O497 O 0.79918 0.81836 0.28106 0.0
O498 O 0.83552 0.80357 0.27671 0.0
O499 O 0.83383 0.81802 0.3216 0.0
C500 C 0.77161 0.78872 0.30757 0.0
C501 C 0.76935 0.72248 0.25126 0.0
C502 C 0.74351 0.70458 0.23679 0.0
C503 C 0.75035 0.7148 0.25585 0.0
C504 C 0.75582 0.70234 0.21315 0.0
C505 C 0.78158 0.71944 0.2277 0.0
C506 C 0.77473 0.70967 0.20872 0.0
C507 C 0.81605 0.744 0.32292 0.0
C508 C 0.77627 0.73375 0.2709 0.0
C509 C 0.82004 0.75958 0.1675 0.0
C510 C 0.83918 0.74601 0.17557 0.0
C511 C 0.83594 0.786 0.26562 0.0
C512 C 0.8714 0.80461 0.33036 0.0
C513 C 0.87497 0.82591 0.33142 0.0
C514 C 0.89451 0.82829 0.33878 0.0
C515 C 0.91045 0.80935 0.34487 0.0
C516 C 0.88768 0.78588 0.33631 0.0
C517 C 0.90707 0.78829 0.3435 0.0
C518 C 0.79399 0.81555 0.25841 0.0
C519 C 0.85083 0.80172 0.32326 0.0
H520 H 0.74092 0.71684 0.27409 0.0
H521 H 0.75112 0.69433 0.19826 0.0
H522 H 0.79658 0.72435 0.22397 0.0
H523 H 0.78426 0.70753 0.1906 0.0
H524 H 0.86263 0.84054 0.32677 0.0
H525 H 0.92561 0.8109 0.35052 0.0
H526 H 0.88538 0.76934 0.33558 0.0
H527 H 0.9195 0.77376 0.34812 0.0
Tb528 Tb 0.28658 0.77693 0.27598 0.0
C529 C 0.30821 0.85595 0.31768 0.0
C530 C 0.33674 0.86356 0.28702 0.0
C531 C 0.31435 0.89307 0.31183 0.0
C532 C 0.32493 0.84872 0.29937 0.0
C533 C 0.30299 0.87811 0.32448 0.0
C534 C 0.33125 0.88578 0.29323 0.0
C535 C 0.27747 0.86847 0.35778 0.0
N536 N 0.2978 0.84098 0.32978 0.0
C537 C 0.28343 0.84665 0.35055 0.0
C538 C 0.28708 0.88437 0.34445 0.0
Tb539 Tb 0.30976 0.80537 0.31771 0.0
N540 N 0.33005 0.82701 0.29423 0.0
C541 C 0.34741 0.81902 0.27735 0.0
C542 C 0.35398 0.85556 0.26917 0.0
C543 C 0.35937 0.83319 0.26439 0.0
H544 H 0.27632 0.83422 0.36123 0.0
H545 H 0.37278 0.82679 0.25071 0.0
H546 H 0.34021 0.89739 0.28404 0.0
H547 H 0.26566 0.87294 0.37379 0.0
H548 H 0.35195 0.80188 0.27303 0.0
H549 H 0.23071 0.74495 0.34409 0.0
H550 H 0.3634 0.86645 0.25922 0.0
H551 H 0.31741 0.75339 0.22688 0.0
H552 H 0.24564 0.77396 0.31972 0.0
H553 H 0.33209 0.71559 0.21232 0.0
H554 H 0.31054 0.91017 0.31672 0.0
H555 H 0.24691 0.70547 0.33684 0.0
H556 H 0.27378 0.67716 0.31137 0.0
H557 H 0.28263 0.90123 0.35025 0.0
H558 H 0.30164 0.66907 0.27544 0.0
N559 N 0.27064 0.75131 0.299 0.0
C560 C 0.25291 0.75689 0.31612 0.0
C561 C 0.25359 0.71817 0.32602 0.0
C562 C 0.27087 0.71262 0.30741 0.0
C563 C 0.24436 0.74043 0.33009 0.0
C564 C 0.27906 0.72979 0.29405 0.0
H565 H 0.3231 0.6834 0.23789 0.0
N566 N 0.30101 0.74253 0.26085 0.0
C567 C 0.32179 0.71804 0.2299 0.0
C568 C 0.29496 0.72518 0.2743 0.0
C569 C 0.31341 0.73941 0.23814 0.0
C570 C 0.31675 0.6999 0.24444 0.0
C571 C 0.30278 0.70338 0.26666 0.0
O572 O 0.27992 0.78334 0.23792 0.0
O573 O 0.2985 0.80542 0.28117 0.0
O574 O 0.27775 0.82628 0.3122 0.0
O575 O 0.26104 0.80191 0.29605 0.0
O576 O 0.30556 0.79283 0.24645 0.0
O577 O 0.25439 0.78332 0.26785 0.0
O578 O 0.31251 0.79962 0.35666 0.0
O579 O 0.29809 0.77694 0.31227 0.0
O580 O 0.31895 0.75683 0.27952 0.0
O581 O 0.33542 0.77858 0.30057 0.0
O582 O 0.29028 0.78933 0.34683 0.0
O583 O 0.34057 0.80011 0.33035 0.0
C584 C 0.30745 0.80861 0.25929 0.0
C585 C 0.25009 0.77123 0.22866 0.0
C586 C 0.22769 0.76879 0.19594 0.0
C587 C 0.23614 0.78163 0.21054 0.0
C588 C 0.23336 0.74557 0.19948 0.0
C589 C 0.2549 0.74809 0.2325 0.0
C590 C 0.24684 0.7353 0.2178 0.0
C591 C 0.26051 0.82087 0.30589 0.0
C592 C 0.25946 0.78454 0.24346 0.0
C593 C 0.2956 0.686 0.28074 0.0
C594 C 0.27969 0.69062 0.30116 0.0
C595 C 0.28935 0.77309 0.33406 0.0
C596 C 0.33931 0.81452 0.37035 0.0
C597 C 0.36121 0.81378 0.37115 0.0
C598 C 0.36738 0.82797 0.38637 0.0
C599 C 0.35147 0.84327 0.40024 0.0
C600 C 0.3238 0.82902 0.3857 0.0
C601 C 0.32983 0.84367 0.39996 0.0
C602 C 0.33596 0.76084 0.28819 0.0
C603 C 0.33283 0.79981 0.35412 0.0
H604 H 0.23178 0.79955 0.20789 0.0
H605 H 0.2267 0.7354 0.18871 0.0
H606 H 0.26459 0.73983 0.24699 0.0
H607 H 0.25076 0.71744 0.22093 0.0
H608 H 0.37341 0.80201 0.36031 0.0
H609 H 0.35581 0.85418 0.41235 0.0
H610 H 0.307 0.82888 0.38713 0.0
H611 H 0.31772 0.85495 0.41141 0.0
Tb612 Tb 0.30327 0.79615 0.82339 0.0
C613 C 0.22983 0.77726 0.77741 0.0
C614 C 0.21369 0.75442 0.8091 0.0
C615 C 0.19204 0.77744 0.7778 0.0
C616 C 0.23155 0.76247 0.79835 0.0
C617 C 0.21027 0.78431 0.7663 0.0
C618 C 0.19379 0.76239 0.79906 0.0
C619 C 0.22933 0.8002 0.73055 0.0
N620 N 0.24814 0.7823 0.76601 0.0
C621 C 0.24841 0.79254 0.74217 0.0
C622 C 0.21007 0.79652 0.74294 0.0
Tb623 Tb 0.279 0.76725 0.78503 0.0
N624 N 0.2513 0.75432 0.80655 0.0
C625 C 0.25439 0.73762 0.82521 0.0
C626 C 0.21663 0.73781 0.82874 0.0
C627 C 0.23711 0.72928 0.8367 0.0
H628 H 0.26326 0.79528 0.73236 0.0
H629 H 0.23961 0.71626 0.85166 0.0
H630 H 0.17987 0.75635 0.80694 0.0
H631 H 0.22952 0.80886 0.71201 0.0
H632 H 0.27013 0.73082 0.83153 0.0
H633 H 0.29975 0.86081 0.74488 0.0
H634 H 0.20335 0.73108 0.83744 0.0
H635 H 0.34539 0.76863 0.85276 0.0
H636 H 0.28827 0.83087 0.76932 0.0
H637 H 0.38256 0.77027 0.85541 0.0
H638 H 0.17682 0.78274 0.76965 0.0
H639 H 0.33432 0.8689 0.75081 0.0
H640 H 0.36869 0.85782 0.77081 0.0
H641 H 0.19538 0.80218 0.73374 0.0
H642 H 0.39187 0.83221 0.79942 0.0
N643 N 0.31339 0.82358 0.7944 0.0
C644 C 0.3021 0.83508 0.77493 0.0
C645 C 0.3287 0.85619 0.76296 0.0
C646 C 0.34148 0.84301 0.78055 0.0
C647 C 0.30915 0.85182 0.75973 0.0
C648 C 0.33345 0.82653 0.7959 0.0
H649 H 0.39748 0.79912 0.8301 0.0
N650 N 0.33902 0.7954 0.82455 0.0
C651 C 0.37276 0.78197 0.84273 0.0
C652 C 0.34673 0.81181 0.81133 0.0
C653 C 0.3516 0.78099 0.84083 0.0
C654 C 0.38107 0.79831 0.82854 0.0
C655 C 0.36801 0.81361 0.81277 0.0
O656 O 0.30676 0.78173 0.86023 0.0
O657 O 0.2804 0.77547 0.82327 0.0
O658 O 0.25854 0.80156 0.78719 0.0
O659 O 0.27546 0.82138 0.81099 0.0
O660 O 0.2713 0.80306 0.84433 0.0
O661 O 0.3068 0.81628 0.85133 0.0
O662 O 0.29042 0.75547 0.74888 0.0
O663 O 0.30685 0.77938 0.78959 0.0
O664 O 0.32365 0.76229 0.81943 0.0
O665 O 0.30071 0.74225 0.80811 0.0
O666 O 0.29691 0.78376 0.75444 0.0
O667 O 0.28205 0.73359 0.77951 0.0
C668 C 0.2654 0.78599 0.83875 0.0
C669 C 0.29095 0.80661 0.89207 0.0
C670 C 0.27016 0.83458 0.92052 0.0
C671 C 0.28374 0.82882 0.89824 0.0
C672 C 0.2635 0.81767 0.9363 0.0
C673 C 0.28402 0.79008 0.90813 0.0
C674 C 0.27026 0.79565 0.92998 0.0
C675 C 0.25968 0.81988 0.79756 0.0
C676 C 0.3061 0.80066 0.8693 0.0
C677 C 0.37563 0.83056 0.79849 0.0
C678 C 0.3624 0.8452 0.78233 0.0
C679 C 0.31162 0.78638 0.76735 0.0
C680 C 0.27638 0.72646 0.73853 0.0
C681 C 0.28801 0.71177 0.72064 0.0
C682 C 0.27711 0.70353 0.70381 0.0
C683 C 0.25458 0.71032 0.70472 0.0
C684 C 0.25385 0.73226 0.73985 0.0
C685 C 0.24301 0.72455 0.72281 0.0
C686 C 0.31914 0.74315 0.8162 0.0
C687 C 0.28792 0.73567 0.75547 0.0
H688 H 0.28878 0.84161 0.88567 0.0
H689 H 0.2535 0.82128 0.95391 0.0
H690 H 0.28933 0.77281 0.90391 0.0
H691 H 0.26509 0.7828 0.94231 0.0
H692 H 0.30543 0.7067 0.71987 0.0
H693 H 0.24589 0.70395 0.69205 0.0
H694 H 0.24454 0.74244 0.75418 0.0
H695 H 0.22561 0.7293 0.72393 0.0
Tb696 Tb 0.28679 0.26034 0.78254 0.0
C697 C 0.30362 0.29042 0.88198 0.0
C698 C 0.27562 0.32371 0.8897 0.0
C699 C 0.2912 0.30048 0.92516 0.0
C700 C 0.28911 0.30891 0.87283 0.0
C701 C 0.30504 0.28614 0.90823 0.0
C702 C 0.27654 0.31923 0.91591 0.0
C703 C 0.33456 0.25457 0.89904 0.0
N704 N 0.31671 0.27691 0.86508 0.0
C705 C 0.33264 0.25954 0.87318 0.0
C706 C 0.32058 0.26781 0.91666 0.0
Tb707 Tb 0.31245 0.28734 0.82326 0.0
N708 N 0.28862 0.3127 0.84739 0.0
C709 C 0.27557 0.33157 0.83755 0.0
C710 C 0.26191 0.34277 0.87971 0.0
C711 C 0.26192 0.34674 0.85353 0.0
H712 H 0.34356 0.24936 0.85955 0.0
H713 H 0.25145 0.3615 0.84563 0.0
H714 H 0.26618 0.33033 0.92917 0.0
H715 H 0.34685 0.24057 0.90536 0.0
H716 H 0.27529 0.33498 0.81738 0.0
H717 H 0.35133 0.1911 0.75352 0.0
H718 H 0.25152 0.35472 0.892 0.0
H719 H 0.24937 0.29312 0.7498 0.0
H720 H 0.326 0.21427 0.78392 0.0
H721 H 0.24308 0.303 0.70492 0.0
H722 H 0.29195 0.29741 0.94541 0.0
H723 H 0.35066 0.20086 0.7076 0.0
H724 H 0.33289 0.22562 0.67231 0.0
H725 H 0.32216 0.26396 0.93669 0.0
H726 H 0.30352 0.25642 0.65899 0.0
N727 N 0.31171 0.23808 0.75576 0.0
C728 C 0.32561 0.21911 0.76402 0.0
C729 C 0.33974 0.21147 0.72089 0.0
C730 C 0.3247 0.2302 0.71244 0.0
C731 C 0.34007 0.20582 0.74679 0.0
C732 C 0.31079 0.24333 0.73057 0.0
H733 H 0.26962 0.28512 0.67105 0.0
N734 N 0.27964 0.27057 0.74142 0.0
C735 C 0.25751 0.29096 0.70977 0.0
C736 C 0.29399 0.26015 0.72309 0.0
C737 C 0.26109 0.28529 0.73516 0.0
C738 C 0.27257 0.28091 0.6907 0.0
C739 C 0.29086 0.26494 0.69726 0.0
O740 O 0.25559 0.25557 0.78136 0.0
O741 O 0.28359 0.27903 0.81527 0.0
O742 O 0.30221 0.25996 0.84515 0.0
O743 O 0.30123 0.23709 0.81343 0.0
O744 O 0.25752 0.2849 0.79584 0.0
O745 O 0.28172 0.22838 0.79104 0.0
O746 O 0.3451 0.28719 0.82242 0.0
O747 O 0.3154 0.26983 0.78964 0.0
O748 O 0.2933 0.28958 0.76056 0.0
O749 O 0.30111 0.31066 0.79088 0.0
O750 O 0.34071 0.26135 0.81078 0.0
O751 O 0.32106 0.31808 0.82126 0.0
C752 C 0.2645 0.29028 0.81539 0.0
C753 C 0.25569 0.22032 0.76828 0.0
C754 C 0.23384 0.19591 0.75864 0.0
C755 C 0.23847 0.21014 0.77516 0.0
C756 C 0.246 0.19256 0.73506 0.0
C757 C 0.2677 0.21638 0.74476 0.0
C758 C 0.26281 0.20282 0.72817 0.0
C759 C 0.30218 0.24041 0.8375 0.0
C760 C 0.26176 0.23421 0.78585 0.0
C761 C 0.30553 0.25293 0.67897 0.0
C762 C 0.32232 0.23545 0.68656 0.0
C763 C 0.33429 0.25803 0.7898 0.0
C764 C 0.35186 0.31663 0.8426 0.0
C765 C 0.35663 0.33759 0.839 0.0
C766 C 0.36727 0.34484 0.85709 0.0
C767 C 0.37268 0.33112 0.87893 0.0
C768 C 0.35832 0.30299 0.86413 0.0
C769 C 0.36825 0.31033 0.88234 0.0
C770 C 0.29683 0.3081 0.76761 0.0
C771 C 0.3413 0.30861 0.82333 0.0
H772 H 0.22915 0.21278 0.7934 0.0
H773 H 0.24247 0.18193 0.72195 0.0
H774 H 0.28111 0.22342 0.73926 0.0
H775 H 0.27226 0.20005 0.71006 0.0
H776 H 0.3524 0.34802 0.82208 0.0
H777 H 0.38121 0.33608 0.89291 0.0
H778 H 0.35638 0.28636 0.86667 0.0
H779 H 0.37308 0.29959 0.89883 0.0
Tb780 Tb 0.78077 0.27538 0.77916 0.0
C781 C 0.80384 0.35261 0.82205 0.0
C782 C 0.82773 0.36536 0.78883 0.0
C783 C 0.80579 0.39115 0.81856 0.0
C784 C 0.81867 0.34837 0.80114 0.0
C785 C 0.79758 0.3739 0.83141 0.0
C786 C 0.82098 0.38684 0.79744 0.0
C787 C 0.7783 0.35867 0.86752 0.0
N788 N 0.79722 0.33524 0.83468 0.0
C789 C 0.78539 0.33775 0.85779 0.0
C790 C 0.7842 0.37689 0.85412 0.0
Tb791 Tb 0.81 0.30157 0.81751 0.0
N792 N 0.82542 0.32722 0.7941 0.0
C793 C 0.84176 0.32182 0.77523 0.0
C794 C 0.84389 0.36005 0.76888 0.0
C795 C 0.85097 0.33817 0.76212 0.0
H796 H 0.7809 0.32366 0.86827 0.0
H797 H 0.86364 0.33384 0.74692 0.0
H798 H 0.82779 0.40011 0.78829 0.0
H799 H 0.76845 0.3607 0.88545 0.0
H800 H 0.84759 0.305 0.76982 0.0
H801 H 0.73123 0.23955 0.85187 0.0
H802 H 0.85132 0.3726 0.75895 0.0
H803 H 0.8065 0.2552 0.72576 0.0
H804 H 0.74413 0.26982 0.82737 0.0
H805 H 0.81898 0.21873 0.70728 0.0
H806 H 0.80113 0.40766 0.82537 0.0
H807 H 0.74624 0.20079 0.84059 0.0
H808 H 0.77013 0.17424 0.81039 0.0
H809 H 0.77899 0.39301 0.86192 0.0
H810 H 0.79403 0.16853 0.77071 0.0
N811 N 0.76684 0.24855 0.80262 0.0
C812 C 0.75084 0.25308 0.82203 0.0
C813 C 0.75201 0.21405 0.82972 0.0
C814 C 0.76731 0.20967 0.80879 0.0
C815 C 0.74345 0.23591 0.83607 0.0
C816 C 0.77438 0.22752 0.79544 0.0
H817 H 0.81183 0.18518 0.73164 0.0
N818 N 0.79289 0.2423 0.76044 0.0
C819 C 0.81036 0.22003 0.72598 0.0
C820 C 0.78789 0.22425 0.77342 0.0
C821 C 0.80322 0.24066 0.73647 0.0
C822 C 0.80636 0.20111 0.73983 0.0
C823 C 0.79466 0.20313 0.7637 0.0
O824 O 0.76941 0.28393 0.74307 0.0
O825 O 0.79535 0.30228 0.78296 0.0
O826 O 0.77791 0.32318 0.81522 0.0
O827 O 0.75844 0.29895 0.80443 0.0
O828 O 0.79716 0.29211 0.74763 0.0
O829 O 0.74732 0.28391 0.77642 0.0
O830 O 0.81985 0.29462 0.85445 0.0
O831 O 0.79581 0.27454 0.81349 0.0
O832 O 0.81323 0.25424 0.77919 0.0
O833 O 0.83273 0.27702 0.79368 0.0
O834 O 0.79343 0.28483 0.84887 0.0
O835 O 0.84319 0.29283 0.82204 0.0
C836 C 0.80183 0.30657 0.76029 0.0
C837 C 0.73685 0.27405 0.73877 0.0
C838 C 0.71095 0.27326 0.70877 0.0
C839 C 0.72213 0.28524 0.72143 0.0
C840 C 0.71456 0.25022 0.71383 0.0
C841 C 0.73965 0.25113 0.74368 0.0
C842 C 0.72871 0.2393 0.73124 0.0
C843 C 0.75954 0.31829 0.81206 0.0
C844 C 0.74931 0.28601 0.75176 0.0
C845 C 0.78876 0.18498 0.77764 0.0
C846 C 0.77513 0.18824 0.80022 0.0
C847 C 0.78946 0.27003 0.83612 0.0
C848 C 0.85288 0.30323 0.85996 0.0
C849 C 0.86936 0.29148 0.87492 0.0
C850 C 0.88167 0.30304 0.88654 0.0
C851 C 0.87686 0.3263 0.88349 0.0
C852 C 0.84879 0.32638 0.85728 0.0
C853 C 0.86054 0.33782 0.86902 0.0
C854 C 0.83152 0.25855 0.78386 0.0
C855 C 0.84026 0.29157 0.84671 0.0
H856 H 0.7196 0.303 0.7176 0.0
H857 H 0.70609 0.24067 0.70455 0.0
H858 H 0.75018 0.2423 0.75727 0.0
H859 H 0.73115 0.22159 0.73521 0.0
H860 H 0.87286 0.27356 0.87705 0.0
H861 H 0.88572 0.33566 0.89245 0.0
H862 H 0.83658 0.33573 0.846 0.0
H863 H 0.85705 0.35572 0.86677 0.0
Tb864 Tb 0.77142 0.77603 0.81429 0.0
C865 C 0.7993 0.7982 0.70378 0.0
C866 C 0.82551 0.7649 0.69184 0.0
C867 C 0.80415 0.78779 0.66025 0.0
C868 C 0.81462 0.77958 0.71034 0.0
C869 C 0.79441 0.80303 0.67849 0.0
C870 C 0.8197 0.76872 0.66693 0.0
C871 C 0.77339 0.83898 0.69048 0.0
N872 N 0.7908 0.81271 0.72182 0.0
C873 C 0.779 0.83348 0.71524 0.0
C874 C 0.78077 0.82351 0.67212 0.0
Tb875 Tb 0.80002 0.80205 0.76211 0.0
N876 N 0.81994 0.77676 0.7345 0.0
C877 C 0.83723 0.7603 0.74092 0.0
C878 C 0.84245 0.74738 0.69871 0.0
C879 C 0.84849 0.74523 0.72329 0.0
H880 H 0.7732 0.84548 0.72939 0.0
H881 H 0.86183 0.73196 0.72869 0.0
H882 H 0.82768 0.75747 0.65252 0.0
H883 H 0.76341 0.85514 0.68559 0.0
H884 H 0.84218 0.75822 0.7598 0.0
H885 H 0.70889 0.84669 0.84508 0.0
H886 H 0.85138 0.73588 0.685 0.0
H887 H 0.79762 0.7336 0.849 0.0
H888 H 0.7283 0.81905 0.81539 0.0
H889 H 0.80726 0.72561 0.89305 0.0
H890 H 0.8004 0.79102 0.64076 0.0
H891 H 0.72029 0.84543 0.88804 0.0
H892 H 0.74423 0.82526 0.92111 0.0
H893 H 0.77657 0.82787 0.6529 0.0
H894 H 0.77132 0.79207 0.9343 0.0
N895 N 0.75105 0.80202 0.8409 0.0
C896 C 0.73351 0.81793 0.83405 0.0
C897 C 0.72891 0.8331 0.87507 0.0
C898 C 0.74593 0.81594 0.88255 0.0
C899 C 0.72237 0.8338 0.85089 0.0
C900 C 0.75663 0.8004 0.86487 0.0
H901 H 0.79455 0.75438 0.92412 0.0
N902 N 0.78031 0.76678 0.85495 0.0
C903 C 0.79745 0.74165 0.88738 0.0
C904 C 0.77195 0.78207 0.87218 0.0
C905 C 0.79189 0.74619 0.86251 0.0
C906 C 0.79034 0.75797 0.90483 0.0
C907 C 0.77692 0.7783 0.89749 0.0
O908 O 0.76579 0.74401 0.81936 0.0
O909 O 0.78765 0.77376 0.77657 0.0
O910 O 0.76945 0.80179 0.74881 0.0
O911 O 0.74922 0.79364 0.78645 0.0
O912 O 0.79332 0.74586 0.80018 0.0
O913 O 0.73949 0.77281 0.81709 0.0
O914 O 0.80627 0.8338 0.75827 0.0
O915 O 0.78372 0.80421 0.79968 0.0
O916 O 0.80207 0.77653 0.82743 0.0
O917 O 0.82227 0.78372 0.78944 0.0
O918 O 0.77834 0.83229 0.77652 0.0
O919 O 0.83217 0.80455 0.75942 0.0
C920 C 0.79724 0.75354 0.77737 0.0
C921 C 0.73302 0.74194 0.84275 0.0
C922 C 0.71001 0.71715 0.85938 0.0
C923 C 0.72164 0.72622 0.83884 0.0
C924 C 0.71043 0.72368 0.88389 0.0
C925 C 0.73276 0.74856 0.86725 0.0
C926 C 0.72171 0.7393 0.88772 0.0
C927 C 0.75113 0.80034 0.7621 0.0
C928 C 0.74499 0.75137 0.82118 0.0
C929 C 0.76746 0.79444 0.91484 0.0
C930 C 0.752 0.81331 0.90734 0.0
C931 C 0.77422 0.82443 0.79918 0.0
C932 C 0.83925 0.83596 0.73542 0.0
C933 C 0.85222 0.84975 0.74065 0.0
C934 C 0.86405 0.85936 0.72078 0.0
C935 C 0.8623 0.85529 0.69564 0.0
C936 C 0.83815 0.83177 0.71028 0.0
C937 C 0.84948 0.84153 0.6905 0.0
C938 C 0.8204 0.77774 0.81397 0.0
C939 C 0.82703 0.82606 0.75634 0.0
H940 H 0.72149 0.72144 0.81981 0.0
H941 H 0.70205 0.71667 0.90015 0.0
H942 H 0.74096 0.76094 0.8706 0.0
H943 H 0.72178 0.74436 0.90661 0.0
H944 H 0.8534 0.85261 0.76015 0.0
H945 H 0.87081 0.86281 0.6799 0.0
H946 H 0.82865 0.82093 0.70586 0.0
H947 H 0.84836 0.83837 0.67112 0.0
H948 H 0.08922 0.08961 0.40797 0.0
H949 H 0.11291 0.11508 0.40271 0.0
H950 H 0.12464 0.1051 0.32281 0.0
H951 H 0.10124 0.07929 0.32788 0.0
H952 H 0.15696 0.10698 0.38343 0.0
H953 H 0.10506 0.17315 0.3259 0.0
H954 H 0.09516 0.15113 0.34381 0.0
H955 H 0.11146 0.1459 0.31427 0.0
C956 C 0.0969 0.09264 0.38928 0.0
C957 C 0.09316 0.08236 0.36835 0.0
C958 C 0.1104 0.1073 0.3863 0.0
C959 C 0.12034 0.11216 0.36234 0.0
C960 C 0.11682 0.10188 0.34141 0.0
H961 H 0.22351 0.18416 0.34228 0.0
H962 H 0.20284 0.15661 0.33814 0.0
C963 C 0.10335 0.08715 0.34436 0.0
C964 C 0.13448 0.12788 0.35945 0.0
H965 H 0.13857 0.17891 0.33345 0.0
C966 C 0.15306 0.12264 0.37236 0.0
C967 C 0.12922 0.14836 0.34513 0.0
C968 C 0.10907 0.15516 0.33162 0.0
C969 C 0.1664 0.13746 0.37157 0.0
C970 C 0.16112 0.15794 0.35728 0.0
C971 C 0.14268 0.16308 0.34414 0.0
C972 C 0.1734 0.17508 0.35767 0.0
C973 C 0.18559 0.13147 0.38679 0.0
C974 C 0.16348 0.19483 0.36922 0.0
C975 C 0.17517 0.2105 0.37155 0.0
C976 C 0.19701 0.20679 0.36225 0.0
C977 C 0.20671 0.18743 0.34963 0.0
C978 C 0.19499 0.17164 0.34744 0.0
H979 H 0.1853 0.11681 0.40018 0.0
H980 H 0.20056 0.12758 0.37373 0.0
H981 H 0.18621 0.14561 0.39769 0.0
H982 H 0.14681 0.19787 0.37709 0.0
H983 H 0.16717 0.22543 0.38098 0.0
H984 H 0.97674 0.06593 0.28038 0.0
H985 H 0.94627 0.09825 0.27762 0.0
H986 H 0.97224 0.13041 0.33058 0.0
H987 H 1.00284 0.09845 0.33317 0.0
H988 H 0.9161 0.11548 0.31695 0.0
H989 H 0.95898 0.17899 0.27458 0.0
H990 H 0.97143 0.1497 0.27485 0.0
H991 H 0.9693 0.1645 0.30284 0.0
C992 C 0.97619 0.08002 0.29112 0.0
C993 C 0.99241 0.07956 0.30685 0.0
C994 C 0.95868 0.09846 0.28961 0.0
C995 C 0.95705 0.11693 0.30363 0.0
C996 C 0.97332 0.11662 0.31913 0.0
H997 H 0.86497 0.24309 0.32341 0.0
H998 H 0.89516 0.2109 0.32472 0.0
C999 C 0.99082 0.09823 0.32065 0.0
C1000 C 0.93785 0.13601 0.30301 0.0
H1001 H 0.92229 0.19189 0.28961 0.0
C1002 C 0.91741 0.13218 0.31082 0.0
C1003 C 0.93957 0.15785 0.29529 0.0
C1004 C 0.96097 0.16305 0.2862 0.0
C1005 C 0.89874 0.14959 0.31165 0.0
C1006 C 0.9004 0.17145 0.30365 0.0
C1007 C 0.92088 0.17521 0.29573 0.0
C1008 C 0.88127 0.19074 0.30366 0.0
C1009 C 0.87757 0.14437 0.32196 0.0
C1010 C 0.86321 0.19044 0.29131 0.0
C1011 C 0.84546 0.20872 0.29131 0.0
C1012 C 0.84554 0.22799 0.3031 0.0
C1013 C 0.8639 0.22844 0.31481 0.0
C1014 C 0.88141 0.21002 0.3153 0.0
H1015 H 0.88001 0.12898 0.3346 0.0
H1016 H 0.86708 0.1581 0.33272 0.0
H1017 H 0.86909 0.1417 0.30598 0.0
H1018 H 0.86291 0.17618 0.28134 0.0
H1019 H 0.83184 0.20782 0.28165 0.0
H1020 H 0.98009 0.97204 0.40602 0.0
H1021 H 0.95763 0.94747 0.3978 0.0
H1022 H 0.96688 0.96447 0.31773 0.0
H1023 H 0.98967 0.98864 0.3257 0.0
H1024 H 0.91924 0.95588 0.37154 0.0
H1025 H 0.98854 0.89604 0.32476 0.0
H1026 H 0.99197 0.91709 0.34392 0.0
H1027 H 0.9846 0.92431 0.31223 0.0
C1028 C 0.97729 0.97059 0.38668 0.0
C1029 C 0.98679 0.98223 0.36656 0.0
C1030 C 0.96437 0.95665 0.38202 0.0
C1031 C 0.96084 0.95395 0.35714 0.0
C1032 C 0.96962 0.96613 0.33706 0.0
H1033 H 0.9036 0.85688 0.29977 0.0
H1034 H 0.91704 0.89013 0.30262 0.0
C1035 C 0.98248 0.98014 0.3417 0.0
C1036 C 0.94866 0.93772 0.3522 0.0
H1037 H 0.95444 0.8883 0.32617 0.0
C1038 C 0.92688 0.94115 0.36152 0.0
C1039 C 0.95869 0.91852 0.33913 0.0
C1040 C 0.98228 0.91357 0.32957 0.0
C1041 C 0.91485 0.92583 0.35815 0.0
C1042 C 0.92498 0.90645 0.34546 0.0
C1043 C 0.94666 0.90325 0.33574 0.0
C1044 C 0.91399 0.88845 0.3436 0.0
C1045 C 0.89139 0.93052 0.36813 0.0
C1046 C 0.90758 0.87669 0.36566 0.0
C1047 C 0.90008 0.85772 0.36402 0.0
C1048 C 0.89871 0.85031 0.34032 0.0
C1049 C 0.90424 0.86255 0.31823 0.0
C1050 C 0.91198 0.88142 0.31986 0.0
H1051 H 0.88463 0.94845 0.37068 0.0
H1052 H 0.88178 0.9249 0.35518 0.0
H1053 H 0.8897 0.92143 0.38684 0.0
H1054 H 0.90939 0.88153 0.38415 0.0
H1055 H 0.89612 0.84832 0.38126 0.0
H1056 H 0.11839 1.00549 0.28198 0.0
H1057 H 0.14717 0.97167 0.27812 0.0
H1058 H 0.10993 0.93668 0.33202 0.0
H1059 H 0.08072 0.97006 0.33482 0.0
H1060 H 0.17149 0.95037 0.31127 0.0
H1061 H 0.12914 0.8912 0.282 0.0
H1062 H 0.11696 0.92047 0.28233 0.0
H1063 H 0.11641 0.90286 0.31103 0.0
C1064 C 0.11614 0.99042 0.29251 0.0
C1065 C 0.09714 0.99043 0.30843 0.0
C1066 C 0.13266 0.97109 0.29041 0.0
C1067 C 0.13075 0.95135 0.30448 0.0
C1068 C 0.11167 0.95133 0.32027 0.0
H1069 H 0.24241 0.84813 0.34411 0.0
H1070 H 0.21111 0.87947 0.34348 0.0
C1071 C 0.09494 0.97053 0.32194 0.0
C1072 C 0.14929 0.93142 0.30396 0.0
H1073 H 0.16334 0.87544 0.29774 0.0
C1074 C 0.16967 0.93405 0.30806 0.0
C1075 C 0.14718 0.91002 0.29954 0.0
C1076 C 0.12628 0.906 0.29321 0.0
C1077 C 0.18777 0.91604 0.30817 0.0
C1078 C 0.18541 0.89449 0.30502 0.0
C1079 C 0.16515 0.89186 0.30051 0.0
C1080 C 0.2038 0.87457 0.30607 0.0
C1081 C 0.20935 0.92047 0.31106 0.0
C1082 C 0.20957 0.86051 0.2859 0.0
C1083 C 0.22749 0.84241 0.28638 0.0
C1084 C 0.24001 0.83808 0.30698 0.0
C1085 C 0.23364 0.85153 0.32759 0.0
C1086 C 0.21566 0.86948 0.32724 0.0
H1087 H 0.20966 0.93795 0.30524 0.0
H1088 H 0.21254 0.91747 0.33125 0.0
H1089 H 0.22255 0.90946 0.29962 0.0
H1090 H 0.20058 0.86389 0.26945 0.0
H1091 H 0.23203 0.83233 0.27018 0.0
H1092 H 0.09851 0.96475 0.73244 0.0
H1093 H 0.12918 0.93563 0.74395 0.0
H1094 H 0.12531 0.96309 0.81628 0.0
H1095 H 0.09388 0.99243 0.80492 0.0
H1096 H 0.1675 0.94191 0.75344 0.0
H1097 H 0.13253 0.89722 0.8364 0.0
H1098 H 0.11601 0.9167 0.8154 0.0
H1099 H 0.12889 0.92649 0.83866 0.0
C1100 C 0.10396 0.96456 0.75096 0.0
C1101 C 0.0938 0.981 0.76774 0.0
C1102 C 0.12155 0.94784 0.75751 0.0
C1103 C 0.12959 0.94708 0.78098 0.0
C1104 C 0.1192 0.96312 0.79819 0.0
H1105 H 0.24474 0.85195 0.83132 0.0
H1106 H 0.21381 0.8839 0.82876 0.0
C1107 C 0.10129 0.97991 0.79169 0.0
C1108 C 0.14958 0.93012 0.78623 0.0
H1109 H 0.16961 0.88414 0.82401 0.0
C1110 C 0.16797 0.92937 0.76899 0.0
C1111 C 0.15025 0.91379 0.80655 0.0
C1112 C 0.13085 0.91337 0.82525 0.0
C1113 C 0.18677 0.91253 0.77112 0.0
C1114 C 0.18722 0.89582 0.79094 0.0
C1115 C 0.16917 0.89696 0.80878 0.0
C1116 C 0.20594 0.87651 0.79265 0.0
C1117 C 0.20597 0.91268 0.75199 0.0
C1118 C 0.21169 0.86172 0.77328 0.0
C1119 C 0.22937 0.84359 0.77465 0.0
C1120 C 0.24157 0.83972 0.79545 0.0
C1121 C 0.23579 0.85458 0.81487 0.0
C1122 C 0.21804 0.87274 0.81355 0.0
H1123 H 0.20519 0.92941 0.74247 0.0
H1124 H 0.22124 0.90715 0.76105 0.0
H1125 H 0.20629 0.90112 0.73722 0.0
H1126 H 0.20247 0.86418 0.75707 0.0
H1127 H 0.23362 0.83285 0.75922 0.0
H1128 H 0.11211 0.06327 0.76013 0.0
H1129 H 0.13582 0.08578 0.76995 0.0
H1130 H 0.10556 0.13876 0.71883 0.0
H1131 H 0.08168 0.11639 0.70897 0.0
H1132 H 0.14957 0.1295 0.71193 0.0
H1133 H 0.12133 0.13888 0.81367 0.0
H1134 H 0.12925 0.1106 0.80526 0.0
H1135 H 0.10645 0.12915 0.79223 0.0
C1136 C 0.11033 0.07979 0.75116 0.0
C1137 C 0.09491 0.08807 0.73385 0.0
C1138 C 0.12384 0.09266 0.75689 0.0
C1139 C 0.12209 0.1141 0.74555 0.0
C1140 C 0.107 0.1223 0.72795 0.0
H1141 H 0.19094 0.21372 0.77006 0.0
H1142 H 0.1619 0.19441 0.76998 0.0
C1143 C 0.0935 0.10942 0.72217 0.0
C1144 C 0.13677 0.12755 0.75104 0.0
H1145 H 0.15403 0.14965 0.79885 0.0
C1146 C 0.15038 0.13409 0.73089 0.0
C1147 C 0.13768 0.13363 0.77579 0.0
C1148 C 0.12275 0.1279 0.79796 0.0
C1149 C 0.16533 0.14601 0.73493 0.0
C1150 C 0.1668 0.15132 0.75978 0.0
C1151 C 0.15284 0.14537 0.77988 0.0
C1152 C 0.18354 0.16221 0.76501 0.0
C1153 C 0.17969 0.15263 0.71265 0.0
C1154 C 0.20503 0.15019 0.76343 0.0
C1155 C 0.22145 0.16108 0.76352 0.0
C1156 C 0.21657 0.18412 0.76526 0.0
C1157 C 0.19499 0.1959 0.76892 0.0
C1158 C 0.17848 0.18495 0.76875 0.0
H1159 H 0.17388 0.15089 0.69428 0.0
H1160 H 0.18072 0.17004 0.71355 0.0
H1161 H 0.19618 0.14188 0.71324 0.0
H1162 H 0.20914 0.1326 0.76067 0.0
H1163 H 0.23802 0.15171 0.76072 0.0
H1164 H 0.96504 0.07923 0.7449 0.0
H1165 H 0.93742 0.11279 0.75452 0.0
H1166 H 0.97705 0.12923 0.80614 0.0
H1167 H 1.00495 0.09519 0.79672 0.0
H1168 H 0.91722 0.12902 0.80836 0.0
H1169 H 0.96238 0.18232 0.74596 0.0
H1170 H 0.96645 0.15325 0.74108 0.0
H1171 H 0.97628 0.16147 0.76789 0.0
C1172 C 0.96775 0.08976 0.75868 0.0
C1173 C 0.98711 0.08459 0.77013 0.0
C1174 C 0.95196 0.10893 0.7641 0.0
C1175 C 0.9553 0.12353 0.78084 0.0
C1176 C 0.97426 0.11813 0.7931 0.0
H1177 H 0.87237 0.25784 0.79527 0.0
H1178 H 0.90309 0.22568 0.79699 0.0
C1179 C 0.99006 0.09865 0.7879 0.0
C1180 C 0.93909 0.14474 0.78431 0.0
H1181 H 0.92698 0.19886 0.76163 0.0
C1182 C 0.91943 0.1444 0.79851 0.0
C1183 C 0.94206 0.1647 0.77137 0.0
C1184 C 0.96288 0.16569 0.75561 0.0
C1185 C 0.90243 0.16347 0.79972 0.0
C1186 C 0.90499 0.18323 0.78571 0.0
C1187 C 0.92498 0.18373 0.77227 0.0
C1188 C 0.88679 0.20308 0.78367 0.0
C1189 C 0.88189 0.16216 0.81597 0.0
C1190 C 0.8677 0.20131 0.77473 0.0
C1191 C 0.85016 0.21955 0.77386 0.0
C1192 C 0.85129 0.24023 0.78141 0.0
C1193 C 0.87083 0.24225 0.78923 0.0
C1194 C 0.88841 0.22385 0.79032 0.0
H1195 H 0.88497 0.14908 0.83159 0.0
H1196 H 0.87397 0.17819 0.82427 0.0
H1197 H 0.8706 0.15782 0.80418 0.0
H1198 H 0.86622 0.18567 0.76876 0.0
H1199 H 0.83549 0.21711 0.76803 0.0
H1200 H 0.97357 1.00145 0.7592 0.0
H1201 H 0.94807 0.97769 0.76401 0.0
H1202 H 0.98303 0.94139 0.70092 0.0
H1203 H 1.00881 0.96468 0.69634 0.0
H1204 H 0.92216 0.97053 0.72655 0.0
H1205 H 0.97854 0.89308 0.75857 0.0
H1206 H 0.98381 0.9201 0.75947 0.0
H1207 H 0.98847 0.90666 0.73018 0.0
C1208 C 0.97596 0.98826 0.74652 0.0
C1209 C 0.99329 0.98488 0.72745 0.0
C1210 C 0.96132 0.97481 0.74922 0.0
C1211 C 0.9639 0.95763 0.73306 0.0
C1212 C 0.98099 0.95436 0.71384 0.0
H1213 H 0.90419 0.85908 0.69787 0.0
H1214 H 0.92706 0.88362 0.70387 0.0
C1215 C 0.99557 0.96784 0.71106 0.0
C1216 C 0.9485 0.94333 0.73579 0.0
H1217 H 0.94552 0.88939 0.74552 0.0
C1218 C 0.92711 0.95282 0.73103 0.0
C1219 C 0.9551 0.9203 0.74173 0.0
C1220 C 0.97769 0.90941 0.74802 0.0
C1221 C 0.91236 0.93966 0.7307 0.0
C1222 C 0.91916 0.91648 0.73584 0.0
C1223 C 0.94036 0.90715 0.74156 0.0
C1224 C 0.9052 0.90136 0.73323 0.0
C1225 C 0.88998 0.95053 0.72364 0.0
C1226 C 0.88547 0.9029 0.74812 0.0
C1227 C 0.87216 0.88903 0.74447 0.0
C1228 C 0.87847 0.87333 0.72597 0.0
C1229 C 0.89861 0.87135 0.71182 0.0
C1230 C 0.9118 0.88524 0.71539 0.0
H1231 H 0.88885 0.96759 0.71494 0.0
H1232 H 0.88494 0.94066 0.71018 0.0
H1233 H 0.87847 0.9516 0.74094 0.0
H1234 H 0.88031 0.91492 0.76239 0.0
H1235 H 0.85674 0.89096 0.75568 0.0
H1236 H 0.24286 0.14254 0.14625 0.0
H1237 H 0.25392 0.16799 0.1713 0.0
H1238 H 0.31023 0.11717 0.18832 0.0
H1239 H 0.29943 0.09183 0.1627 0.0
H1240 H 0.25911 0.16499 0.22037 0.0
H1241 H 0.33692 0.16823 0.16503 0.0
H1242 H 0.31746 0.15608 0.15354 0.0
H1243 H 0.33507 0.14072 0.17619 0.0
C1244 C 0.25757 0.1368 0.15538 0.0
C1245 C 0.27032 0.11523 0.15252 0.0
C1246 C 0.26393 0.15137 0.16958 0.0
C1247 C 0.2831 0.14463 0.18134 0.0
C1248 C 0.29571 0.12296 0.17884 0.0
H1249 H 0.32562 0.21331 0.29455 0.0
H1250 H 0.32353 0.18492 0.26641 0.0
C1251 C 0.28948 0.10847 0.16433 0.0
C1252 C 0.28932 0.16011 0.19697 0.0
H1253 H 0.32911 0.18608 0.20379 0.0
C1254 C 0.27443 0.16955 0.21672 0.0
C1255 C 0.30931 0.16613 0.19216 0.0
C1256 C 0.32554 0.15744 0.17043 0.0
C1257 C 0.27894 0.18483 0.23171 0.0
C1258 C 0.29888 0.19077 0.22692 0.0
C1259 C 0.31394 0.18123 0.20746 0.0
C1260 C 0.30353 0.20793 0.24119 0.0
C1261 C 0.26225 0.19484 0.25243 0.0
C1262 C 0.29358 0.23017 0.23572 0.0
C1263 C 0.29463 0.24622 0.25173 0.0
C1264 C 0.30593 0.24047 0.27333 0.0
C1265 C 0.31698 0.21829 0.2779 0.0
C1266 C 0.31581 0.2021 0.2619 0.0
H1267 H 0.24895 0.18618 0.25611 0.0
H1268 H 0.26976 0.19432 0.27027 0.0
H1269 H 0.25526 0.21249 0.24682 0.0
H1270 H 0.28399 0.23494 0.21982 0.0
H1271 H 0.28564 0.26282 0.24766 0.0
H1272 H 1.00161 0.31268 0.17446 0.0
H1273 H 0.96779 0.30737 0.19687 0.0
H1274 H 0.93905 0.3181 0.12615 0.0
H1275 H 0.97347 0.32215 0.10355 0.0
H1276 H 0.93126 0.33391 0.20361 0.0
H1277 H 0.91884 0.26517 0.15285 0.0
H1278 H 0.94368 0.27404 0.14808 0.0
H1279 H 0.92082 0.28881 0.13184 0.0
C1280 C 0.98807 0.31385 0.16372 0.0
C1281 C 0.99007 0.31798 0.1373 0.0
C1282 C 0.96874 0.31074 0.17651 0.0
C1283 C 0.9508 0.31199 0.16327 0.0
C1284 C 0.95273 0.31633 0.13682 0.0
H1285 H 0.81623 0.32306 0.21786 0.0
H1286 H 0.85048 0.32676 0.19451 0.0
C1287 C 0.97231 0.3189 0.12391 0.0
C1288 C 0.92996 0.30988 0.17754 0.0
H1289 H 0.88908 0.28331 0.18056 0.0
C1290 C 0.92221 0.32267 0.19859 0.0
C1291 C 0.91799 0.29521 0.17116 0.0
C1292 C 0.92587 0.27987 0.14992 0.0
C1293 C 0.90295 0.3213 0.21323 0.0
C1294 C 0.89086 0.30708 0.20652 0.0
C1295 C 0.8984 0.29432 0.18551 0.0
C1296 C 0.87026 0.30532 0.22115 0.0
C1297 C 0.89551 0.33511 0.23578 0.0
C1298 C 0.87014 0.2921 0.24387 0.0
C1299 C 0.85063 0.28981 0.2571 0.0
C1300 C 0.83091 0.3011 0.24811 0.0
C1301 C 0.83117 0.31446 0.22544 0.0
C1302 C 0.85067 0.31653 0.21207 0.0
H1303 H 0.90593 0.34656 0.23754 0.0
H1304 H 0.87875 0.34495 0.23432 0.0
H1305 H 0.8956 0.32398 0.25325 0.0
H1306 H 0.88514 0.28323 0.2511 0.0
H1307 H 0.85109 0.27891 0.27404 0.0
H1308 H 0.81539 0.92647 0.04783 0.0
H1309 H 0.80614 0.90399 0.08546 0.0
H1310 H 0.85465 0.92111 0.12373 0.0
H1311 H 0.86366 0.94413 0.08618 0.0
H1312 H 0.8317 0.86797 0.11269 0.0
H1313 H 0.79838 0.94071 0.17067 0.0
H1314 H 0.80376 0.94338 0.13665 0.0
H1315 H 0.82549 0.93821 0.15636 0.0
C1316 C 0.82414 0.92537 0.06424 0.0
C1317 C 0.8401 0.9372 0.0642 0.0
C1318 C 0.81889 0.91248 0.08565 0.0
C1319 C 0.82945 0.91127 0.10745 0.0
C1320 C 0.84609 0.92219 0.10716 0.0
H1321 H 0.81755 0.84635 0.25539 0.0
H1322 H 0.82415 0.87091 0.21889 0.0
C1323 C 0.8514 0.93509 0.08565 0.0
C1324 C 0.82256 0.89893 0.13059 0.0
H1325 H 0.79945 0.90536 0.19128 0.0
C1326 C 0.82462 0.8761 0.12989 0.0
C1327 C 0.81323 0.90971 0.15286 0.0
C1328 C 0.80987 0.93438 0.15426 0.0
C1329 C 0.81797 0.86359 0.15112 0.0
C1330 C 0.80858 0.87438 0.1734 0.0
C1331 C 0.80651 0.89722 0.17408 0.0
C1332 C 0.80193 0.86198 0.19664 0.0
C1333 C 0.82153 0.83889 0.14964 0.0
C1334 C 0.78642 0.84964 0.19668 0.0
C1335 C 0.78239 0.83571 0.21776 0.0
C1336 C 0.7937 0.83406 0.2391 0.0
C1337 C 0.80809 0.84764 0.23959 0.0
C1338 C 0.81214 0.8615 0.21855 0.0
H1339 H 0.8342 0.83249 0.13431 0.0
H1340 H 0.8262 0.82989 0.16781 0.0
H1341 H 0.80635 0.83512 0.14557 0.0
H1342 H 0.77802 0.85019 0.18009 0.0
H1343 H 0.77103 0.8257 0.21701 0.0
H1344 H 0.06187 0.74872 0.11196 0.0
H1345 H 0.08555 0.76441 0.13366 0.0
H1346 H 0.13495 0.74981 0.07131 0.0
H1347 H 0.11091 0.73478 0.04922 0.0
H1348 H 0.12299 0.74665 0.15014 0.0
H1349 H 0.13307 0.81362 0.07797 0.0
H1350 H 0.11321 0.79783 0.07698 0.0
H1351 H 0.14076 0.78712 0.06466 0.0
C1352 C 0.07793 0.74849 0.10316 0.0
C1353 C 0.08476 0.74036 0.07908 0.0
C1354 C 0.09131 0.75772 0.11537 0.0
C1355 C 0.11174 0.75887 0.10375 0.0
C1356 C 0.11895 0.74982 0.0802 0.0
H1357 H 0.22905 0.76191 0.14627 0.0
H1358 H 0.19767 0.76761 0.12261 0.0
C1359 C 0.10545 0.74088 0.06783 0.0
C1360 C 0.12599 0.76839 0.11688 0.0
H1361 H 0.15961 0.80357 0.10832 0.0
C1362 C 0.13062 0.75946 0.14125 0.0
C1363 C 0.13577 0.78525 0.10527 0.0
C1364 C 0.13025 0.79666 0.07988 0.0
C1365 C 0.14583 0.76587 0.1537 0.0
C1366 C 0.15653 0.78176 0.14145 0.0
C1367 C 0.15123 0.79149 0.1176 0.0
C1368 C 0.1755 0.78552 0.15159 0.0
C1369 C 0.15132 0.75456 0.17918 0.0
C1370 C 0.1735 0.79514 0.17481 0.0
C1371 C 0.19144 0.79192 0.18833 0.0
C1372 C 0.21135 0.77902 0.17863 0.0
C1373 C 0.21377 0.77183 0.15404 0.0
C1374 C 0.1959 0.77512 0.14054 0.0
H1375 H 0.14322 0.74081 0.18465 0.0
H1376 H 0.16898 0.74781 0.17906 0.0
H1377 H 0.14622 0.7668 0.19391 0.0
H1378 H 0.15781 0.80329 0.18347 0.0
H1379 H 0.18928 0.79751 0.20734 0.0
H1380 H 0.23231 0.03526 0.99471 0.0
H1381 H 0.23389 1.00366 0.96977 0.0
H1382 H 0.24049 0.96014 0.03757 0.0
H1383 H 0.23953 0.99158 0.06228 0.0
H1384 H 0.27179 0.9463 1.00146 0.0
H1385 H 0.19327 0.96542 0.96095 0.0
H1386 H 0.20752 0.98698 0.95462 0.0
H1387 H 0.19803 0.97998 0.98667 0.0
C1388 C 0.23349 0.01902 1.0043 0.0
C1389 C 0.23583 0.01574 0.03035 0.0
C1390 C 0.23435 1.001 0.99008 0.0
C1391 C 0.23715 0.97957 1.00185 0.0
C1392 C 0.23834 0.97654 0.02811 0.0
H1393 H 0.23215 0.85636 0.94579 0.0
H1394 H 0.22423 0.89268 0.96309 0.0
C1395 C 0.23778 0.99444 0.0422 0.0
C1396 C 0.24121 0.95994 0.98673 0.0
H1397 H 0.22 0.9348 0.94508 0.0
C1398 C 0.26043 0.94376 0.98919 0.0
C1399 C 0.22635 0.95669 0.97076 0.0
C1400 C 0.20504 0.97308 0.96822 0.0
C1401 C 0.26507 0.92418 0.97657 0.0
C1402 C 0.25043 0.92106 0.96018 0.0
C1403 C 0.23129 0.93736 0.95743 0.0
C1404 C 0.2542 0.90033 0.94705 0.0
C1405 C 0.28524 0.90673 0.98178 0.0
C1406 C 0.27333 0.89291 0.93155 0.0
C1407 C 0.27832 0.87179 0.92246 0.0
C1408 C 0.26391 0.85791 0.92798 0.0
C1409 C 0.24397 0.8662 0.94184 0.0
C1410 C 0.23924 0.88713 0.95144 0.0
H1411 H 0.29129 0.90909 0.99978 0.0
H1412 H 0.28238 0.88983 0.98288 0.0
H1413 H 0.29808 0.90785 0.96627 0.0
H1414 H 0.28483 0.9031 0.9273 0.0
H1415 H 0.29389 0.86611 0.91202 0.0
H1416 H 0.10412 0.35321 0.98402 0.0
H1417 H 0.13248 0.34852 0.94857 0.0
H1418 H 0.16107 0.28332 0.98038 0.0
H1419 H 0.13243 0.28769 0.0152 0.0
H1420 H 0.17444 0.3428 0.94681 0.0
H1421 H 0.15906 0.26857 0.90997 0.0
H1422 H 0.14076 0.28418 0.93374 0.0
H1423 H 0.1645 0.26405 0.94248 0.0
C1424 C 0.11642 0.33786 0.9833 0.0
C1425 C 0.11588 0.32072 1.00218 0.0
C1426 C 0.1326 0.33516 0.96306 0.0
C1427 C 0.14868 0.31534 0.96139 0.0
C1428 C 0.14846 0.29844 0.98064 0.0
H1429 H 0.26574 0.27075 0.86383 0.0
H1430 H 0.23859 0.2788 0.89962 0.0
C1431 C 0.13211 0.30099 1.00063 0.0
C1432 C 0.16603 0.31264 0.93998 0.0
H1433 H 0.1919 0.27823 0.89369 0.0
C1434 C 0.17804 0.32882 0.93501 0.0
C1435 C 0.17091 0.2943 0.92461 0.0
C1436 C 0.15798 0.27692 0.9278 0.0
C1437 C 0.19488 0.327 0.91541 0.0
C1438 C 0.19993 0.30852 0.90045 0.0
C1439 C 0.188 0.29235 0.90532 0.0
C1440 C 0.21756 0.30558 0.87958 0.0
C1441 C 0.20782 0.3443 0.91144 0.0
C1442 C 0.21487 0.31808 0.85643 0.0
C1443 C 0.23064 0.31363 0.83588 0.0
C1444 C 0.24946 0.29678 0.83822 0.0
C1445 C 0.2521 0.28445 0.86154 0.0
C1446 C 0.23636 0.28887 0.88204 0.0
H1447 H 0.20182 0.35776 0.92465 0.0
H1448 H 0.22482 0.33628 0.9144 0.0
H1449 H 0.20743 0.3517 0.89172 0.0
H1450 H 0.20028 0.33081 0.85403 0.0
H1451 H 0.22796 0.32305 0.81797 0.0
H1452 H 0.81038 0.0843 0.96931 0.0
H1453 H 0.80119 0.12216 0.95071 0.0
H1454 H 0.83695 0.10051 0.88021 0.0
H1455 H 0.84564 0.06226 0.89853 0.0
H1456 H 0.82784 0.14899 0.93061 0.0
H1457 H 0.7785 0.13443 0.85799 0.0
H1458 H 0.7862 0.11457 0.88406 0.0
H1459 H 0.80513 0.1167 0.8569 0.0
C1460 C 0.81608 0.08749 0.94974 0.0
C1461 C 0.8285 0.0702 0.93526 0.0
C1462 C 0.81093 0.10919 0.93921 0.0
C1463 C 0.81802 0.11407 0.91396 0.0
C1464 C 0.83091 0.09699 0.89958 0.0
H1465 H 0.81491 0.23138 0.81823 0.0
H1466 H 0.81975 0.19432 0.83797 0.0
C1467 C 0.83609 0.07521 0.91014 0.0
C1468 C 0.81221 0.13715 0.90297 0.0
H1469 H 0.78648 0.16979 0.85558 0.0
C1470 C 0.81865 0.15359 0.91433 0.0
C1471 C 0.80013 0.14307 0.8818 0.0
C1472 C 0.79189 0.12633 0.86958 0.0
C1473 C 0.81384 0.17571 0.90464 0.0
C1474 C 0.80205 0.18153 0.8833 0.0
C1475 C 0.79541 0.16519 0.87207 0.0
C1476 C 0.79792 0.20418 0.87115 0.0
C1477 C 0.82197 0.19261 0.91674 0.0
C1478 C 0.78389 0.22208 0.88319 0.0
C1479 C 0.78083 0.24352 0.87156 0.0
C1480 C 0.79153 0.24723 0.84765 0.0
C1481 C 0.80575 0.22921 0.836 0.0
C1482 C 0.80869 0.20789 0.84744 0.0
H1483 H 0.83351 0.1848 0.93077 0.0
H1484 H 0.83 0.20248 0.90206 0.0
H1485 H 0.80817 0.2042 0.92658 0.0
H1486 H 0.77543 0.21946 0.90157 0.0
H1487 H 0.77012 0.25719 0.88119 0.0
H1488 H 0.9858 0.7756 0.93198 0.0
H1489 H 0.95654 0.78308 0.90454 0.0
H1490 H 0.93641 0.72525 0.93859 0.0
H1491 H 0.96502 0.71805 0.96655 0.0
H1492 H 0.94793 0.75524 0.86942 0.0
H1493 H 0.88133 0.77517 0.94604 0.0
H1494 H 0.90889 0.77445 0.95037 0.0
H1495 H 0.90015 0.74913 0.95153 0.0
C1496 C 0.97506 0.76457 0.93377 0.0
C1497 C 0.97778 0.74624 0.95155 0.0
C1498 C 0.95844 0.7688 0.91798 0.0
C1499 C 0.94417 0.75489 0.91984 0.0
C1500 C 0.94706 0.73638 0.93718 0.0
H1501 H 0.83351 0.74509 0.8502 0.0
H1502 H 0.86399 0.74044 0.87512 0.0
C1503 C 0.96363 0.73214 0.95294 0.0
C1504 C 0.92631 0.75951 0.90356 0.0
H1505 H 0.87162 0.77001 0.90572 0.0
C1506 C 0.93122 0.75866 0.87726 0.0
C1507 C 0.90457 0.76396 0.91395 0.0
C1508 C 0.89834 0.76595 0.942 0.0
C1509 C 0.91494 0.76138 0.86107 0.0
C1510 C 0.89321 0.7655 0.87151 0.0
C1511 C 0.88831 0.76676 0.89779 0.0
C1512 C 0.87524 0.76804 0.85568 0.0
C1513 C 0.9212 0.75907 0.83308 0.0
C1514 C 0.87146 0.78508 0.83648 0.0
C1515 C 0.85395 0.78777 0.82231 0.0
C1516 C 0.83979 0.7737 0.82745 0.0
C1517 C 0.84376 0.75654 0.84642 0.0
C1518 C 0.8613 0.75376 0.86047 0.0
H1519 H 0.93834 0.75023 0.82909 0.0
H1520 H 0.91098 0.75002 0.82498 0.0
H1521 H 0.91896 0.7758 0.82323 0.0
H1522 H 0.88176 0.79658 0.83282 0.0
H1523 H 0.85108 0.80129 0.80792 0.0
H1524 H 0.1493 0.27177 0.09434 0.0
H1525 H 0.17251 0.27483 0.12619 0.0
H1526 H 0.11763 0.28769 0.18203 0.0
H1527 H 0.0941 0.2846 0.15008 0.0
H1528 H 0.16908 0.31277 0.15236 0.0
H1529 H 0.16248 0.24078 0.21958 0.0
H1530 H 0.15463 0.2432 0.1878 0.0
H1531 H 0.13747 0.25915 0.21195 0.0
C1532 C 0.14209 0.27487 0.11347 0.0
C1533 C 0.11973 0.27781 0.11954 0.0
C1534 C 0.15546 0.27671 0.1317 0.0
C1535 C 0.14696 0.28137 0.15664 0.0
C1536 C 0.12471 0.28372 0.16306 0.0
H1537 H 0.21379 0.29956 0.28602 0.0
H1538 H 0.18631 0.29667 0.25907 0.0
C1539 C 0.11124 0.28193 0.14473 0.0
C1540 C 0.16134 0.28503 0.17519 0.0
H1541 H 0.18305 0.26438 0.23062 0.0
C1542 C 0.17208 0.30219 0.1695 0.0
C1543 C 0.16519 0.27142 0.19772 0.0
C1544 C 0.1545 0.25248 0.20467 0.0
C1545 C 0.18651 0.30607 0.18552 0.0
C1546 C 0.19091 0.29203 0.20768 0.0
C1547 C 0.17981 0.27515 0.21368 0.0
C1548 C 0.20753 0.29412 0.22426 0.0
C1549 C 0.19661 0.32547 0.1786 0.0
C1550 C 0.22877 0.29337 0.21394 0.0
C1551 C 0.24441 0.29528 0.22923 0.0
C1552 C 0.23942 0.29768 0.25545 0.0
C1553 C 0.21823 0.29803 0.26591 0.0
C1554 C 0.20248 0.29627 0.25049 0.0
H1555 H 0.18643 0.33852 0.16673 0.0
H1556 H 0.19929 0.33295 0.19572 0.0
H1557 H 0.21238 0.31973 0.16743 0.0
H1558 H 0.23343 0.29097 0.19401 0.0
H1559 H 0.26059 0.29429 0.22044 0.0
H1560 H 0.08095 0.76008 0.95549 0.0
H1561 H 0.11491 0.7581 0.92878 0.0
H1562 H 0.12371 0.81483 0.963 0.0
H1563 H 0.09033 0.81618 0.99057 0.0
H1564 H 0.12988 0.78243 0.89363 0.0
H1565 H 0.18105 0.77608 0.97147 0.0
H1566 H 0.15329 0.77463 0.97727 0.0
H1567 H 0.16019 0.80109 0.97202 0.0
C1568 C 0.09005 0.77222 0.95731 0.0
C1569 C 0.08277 0.78825 0.97542 0.0
C1570 C 0.10963 0.77103 0.94199 0.0
C1571 C 0.12253 0.78591 0.94412 0.0
C1572 C 0.11476 0.80253 0.96144 0.0
H1573 H 0.22499 0.80827 0.82769 0.0
H1574 H 0.19088 0.80769 0.85247 0.0
C1575 C 0.09538 0.80349 0.97706 0.0
C1576 C 0.14377 0.78422 0.92798 0.0
H1577 H 0.19706 0.78328 0.92992 0.0
C1578 C 0.14455 0.7825 0.90171 0.0
C1579 C 0.1633 0.78384 0.93818 0.0
C1580 C 0.1645 0.78376 0.9663 0.0
C1581 C 0.16385 0.78083 0.88556 0.0
C1582 C 0.18317 0.78154 0.89555 0.0
C1583 C 0.18246 0.7829 0.92189 0.0
C1584 C 0.20417 0.78098 0.8792 0.0
C1585 C 0.16335 0.77749 0.85803 0.0
C1586 C 0.22364 0.76667 0.88589 0.0
C1587 C 0.24341 0.76723 0.87167 0.0
C1588 C 0.24431 0.78169 0.84995 0.0
C1589 C 0.22492 0.79613 0.84345 0.0
C1590 C 0.20521 0.79574 0.85773 0.0
H1591 H 0.14999 0.76991 0.8551 0.0
H1592 H 0.16089 0.79372 0.84704 0.0
H1593 H 0.17867 0.76663 0.85053 0.0
H1594 H 0.22364 0.75529 0.90248 0.0
H1595 H 0.25813 0.75673 0.87807 0.0
H1596 H 0.28514 0.13394 0.0448 0.0
H1597 H 0.2928 0.15462 1.00519 0.0
H1598 H 0.31608 0.09352 0.96791 0.0
H1599 H 0.30826 0.07253 1.00785 0.0
H1600 H 0.33077 0.15318 0.97234 0.0
H1601 H 0.26733 0.12957 0.92583 0.0
H1602 H 0.26897 0.12547 0.95958 0.0
H1603 H 0.28762 0.10734 0.93857 0.0
C1604 C 0.29221 0.12482 0.02829 0.0
C1605 C 0.29605 0.10159 0.02944 0.0
C1606 C 0.29656 0.13669 1.00563 0.0
C1607 C 0.30467 0.12568 0.98346 0.0
C1608 C 0.30952 0.10238 0.98472 0.0
H1609 H 0.31285 0.19541 0.83151 0.0
H1610 H 0.3156 0.16543 0.86522 0.0
C1611 C 0.30529 0.09039 1.00759 0.0
C1612 C 0.3071 0.139 0.95916 0.0
H1613 H 0.28471 0.15535 0.90331 0.0
C1614 C 0.32093 0.15342 0.95709 0.0
C1615 C 0.2942 0.13937 0.93926 0.0
C1616 C 0.27855 0.12476 0.94081 0.0
C1617 C 0.32184 0.16853 0.93602 0.0
C1618 C 0.30827 0.16957 0.91664 0.0
C1619 C 0.2951 0.15453 0.91816 0.0
C1620 C 0.30621 0.1874 0.89591 0.0
C1621 C 0.33715 0.18349 0.93492 0.0
C1622 C 0.29934 0.20961 0.90191 0.0
C1623 C 0.29769 0.22661 0.88285 0.0
C1624 C 0.30285 0.22189 0.85721 0.0
C1625 C 0.30895 0.19961 0.85107 0.0
C1626 C 0.31058 0.18248 0.8703 0.0
H1627 H 0.35085 0.17607 0.9463 0.0
H1628 H 0.3436 0.18699 0.91513 0.0
H1629 H 0.32847 0.19945 0.94289 0.0
H1630 H 0.29521 0.21385 0.92144 0.0
H1631 H 0.29236 0.24352 0.88835 0.0
H1632 H 0.03974 0.28348 0.01363 0.0
H1633 H 1.01372 0.28363 0.98373 0.0
H1634 H 0.98139 0.24441 0.0382 0.0
H1635 H 1.00707 0.24465 0.06858 0.0
H1636 H 1.00186 0.2517 0.96114 0.0
H1637 H 0.93224 0.29648 0.02307 0.0
H1638 H 0.95969 0.29333 0.02968 0.0
H1639 H 0.94674 0.27079 0.03722 0.0
C1640 C 0.02726 0.27465 0.01926 0.0
C1641 C 0.02552 0.26416 0.04372 0.0
C1642 C 1.01231 0.2748 1.00207 0.0
C1643 C 0.99521 0.26447 1.0088 0.0
C1644 C 0.99404 0.25303 0.03272 0.0
H1645 H 0.88163 0.27207 0.92682 0.0
H1646 H 0.90968 0.2591 0.95615 0.0
C1647 C 1.00893 0.25298 0.05002 0.0
C1648 C 0.97847 0.26619 0.99095 0.0
H1649 H 0.92468 0.28573 0.98451 0.0
C1650 C 0.98497 0.25905 0.96634 0.0
C1651 C 0.95635 0.27575 0.99758 0.0
C1652 C 0.94829 0.28472 0.02323 0.0
C1653 C 0.97012 0.26129 0.94829 0.0
C1654 C 0.9481 0.27129 0.95475 0.0
C1655 C 0.94149 0.27793 0.97953 0.0
C1656 C 0.93203 0.2768 0.93561 0.0
C1657 C 0.97821 0.25286 0.92242 0.0
C1658 C 0.93528 0.29077 0.91411 0.0
C1659 C 0.91943 0.29801 0.89739 0.0
C1660 C 0.89973 0.29168 0.90179 0.0
C1661 C 0.89672 0.277 0.92276 0.0
C1662 C 0.91267 0.26976 0.93962 0.0
H1663 H 0.9931 0.23938 0.92311 0.0
H1664 H 0.96589 0.24659 0.9143 0.0
H1665 H 0.98215 0.26658 0.90951 0.0
H1666 H 0.94976 0.29689 0.91076 0.0
H1667 H 0.92223 0.30933 0.88143 0.0
H1668 H 0.76909 0.98068 0.94937 0.0
H1669 H 0.75557 0.95657 0.9243 0.0
H1670 H 0.81179 0.90395 0.93606 0.0
H1671 H 0.82532 0.92772 0.96061 0.0
H1672 H 0.78106 0.93654 0.87893 0.0
H1673 H 0.76072 0.87324 0.95107 0.0
H1674 H 0.76197 0.90044 0.95897 0.0
H1675 H 0.78629 0.87931 0.9532 0.0
C1676 C 0.77827 0.96383 0.94699 0.0
C1677 C 0.79826 0.9561 0.95686 0.0
C1678 C 0.77059 0.95011 0.93266 0.0
C1679 C 0.78257 0.92838 0.9286 0.0
C1680 C 0.8021 0.92049 0.93929 0.0
H1681 H 0.79721 0.81736 0.84055 0.0
H1682 H 0.7959 0.84339 0.87263 0.0
C1683 C 0.80988 0.93419 0.95318 0.0
C1684 C 0.77616 0.91443 0.91119 0.0
H1685 H 0.76619 0.86352 0.90795 0.0
C1686 C 0.77735 0.92077 0.88525 0.0
C1687 C 0.77169 0.89373 0.91952 0.0
C1688 C 0.7699 0.88629 0.94724 0.0
C1689 C 0.77534 0.90647 0.86724 0.0
C1690 C 0.77127 0.88551 0.8755 0.0
C1691 C 0.76928 0.87955 0.90158 0.0
C1692 C 0.77047 0.86902 0.85732 0.0
C1693 C 0.77893 0.91348 0.83951 0.0
C1694 C 0.75624 0.87443 0.83839 0.0
C1695 C 0.75718 0.85963 0.81985 0.0
C1696 C 0.77175 0.8388 0.82047 0.0
C1697 C 0.78547 0.83307 0.83991 0.0
C1698 C 0.78476 0.848 0.85823 0.0
H1699 H 0.7875 0.92706 0.8365 0.0
H1700 H 0.78841 0.89937 0.82857 0.0
H1701 H 0.76313 0.91965 0.83176 0.0
H1702 H 0.74469 0.89029 0.83763 0.0
H1703 H 0.74656 0.86446 0.80492 0.0
H1704 H 0.99799 0.76963 0.09041 0.0
H1705 H 0.9728 0.76849 0.1287 0.0
H1706 H 0.9198 0.80112 0.0858 0.0
H1707 H 0.94469 0.80122 0.04753 0.0
H1708 H 0.94497 0.7961 0.15742 0.0
H1709 H 0.89726 0.74982 0.11364 0.0
H1710 H 0.92221 0.75473 0.09812 0.0
H1711 H 0.89743 0.77572 0.09631 0.0
C1712 C 0.981 0.77694 0.08928 0.0
C1713 C 0.9734 0.78559 0.06582 0.0
C1714 C 0.96651 0.7761 0.1112 0.0
C1715 C 0.94409 0.78399 0.11024 0.0
C1716 C 0.93677 0.79401 0.08713 0.0
H1717 H 0.82888 0.80244 0.21708 0.0
H1718 H 0.85554 0.80028 0.18005 0.0
C1719 C 0.95113 0.79444 0.06523 0.0
C1720 C 0.92835 0.78172 0.13314 0.0
H1721 H 0.88161 0.76532 0.15281 0.0
C1722 C 0.93127 0.78914 0.15637 0.0
C1723 C 0.91033 0.77253 0.13221 0.0
C1724 C 0.90674 0.76254 0.1088 0.0
C1725 C 0.91652 0.78836 0.1781 0.0
C1726 C 0.89829 0.7797 0.17692 0.0
C1727 C 0.89546 0.77204 0.15385 0.0
C1728 C 0.88163 0.77913 0.19911 0.0
C1729 C 0.92026 0.79752 0.202 0.0
C1730 C 0.88705 0.76732 0.22216 0.0
C1731 C 0.87164 0.76826 0.24333 0.0
C1732 C 0.8503 0.78055 0.24187 0.0
C1733 C 0.84488 0.79215 0.21873 0.0
C1734 C 0.86021 0.79107 0.19752 0.0
H1735 H 0.93186 0.80823 0.19825 0.0
H1736 H 0.90493 0.80727 0.21128 0.0
H1737 H 0.92696 0.78358 0.21544 0.0
H1738 H 0.90333 0.75772 0.22397 0.0
H1739 H 0.87659 0.75992 0.26114 0.0
H1740 H 0.31857 0.9927 0.12249 0.0
H1741 H 0.32792 0.9562 0.14585 0.0
H1742 H 0.26053 0.95783 0.16302 0.0
H1743 H 0.25112 0.99388 0.14018 0.0
H1744 H 0.31237 0.94526 0.20013 0.0
H1745 H 0.28835 0.89703 0.13065 0.0
H1746 H 0.29476 0.92352 0.12217 0.0
H1747 H 0.26905 0.92225 0.13857 0.0
C1748 C 0.3058 0.98519 0.13115 0.0
C1749 C 0.28411 0.99627 0.12944 0.0
C1750 C 0.31114 0.96439 0.14453 0.0
C1751 C 0.29489 0.95421 0.15599 0.0
C1752 C 0.27333 0.96522 0.15413 0.0
H1753 H 0.28486 0.8504 0.27247 0.0
H1754 H 0.28433 0.88561 0.24805 0.0
C1755 C 0.268 0.98594 0.1411 0.0
C1756 C 0.30006 0.93231 0.17044 0.0
H1757 H 0.29372 0.87943 0.17167 0.0
C1758 C 0.30854 0.93078 0.19381 0.0
C1759 C 0.29507 0.91342 0.16216 0.0
C1760 C 0.28646 0.91397 0.13692 0.0
C1761 C 0.31154 0.91104 0.20944 0.0
C1762 C 0.30582 0.89236 0.2016 0.0
C1763 C 0.29799 0.89374 0.17783 0.0
C1764 C 0.30761 0.87128 0.21774 0.0
C1765 C 0.32094 0.91023 0.23417 0.0
C1766 C 0.32076 0.8514 0.20893 0.0
C1767 C 0.32122 0.83126 0.22304 0.0
C1768 C 0.30855 0.8305 0.2463 0.0
C1769 C 0.29537 0.85042 0.25512 0.0
C1770 C 0.29502 0.87061 0.24108 0.0
H1771 H 0.3286 0.92421 0.2351 0.0
H1772 H 0.30796 0.91114 0.24996 0.0
H1773 H 0.33313 0.89443 0.23692 0.0
H1774 H 0.33046 0.85142 0.1909 0.0
H1775 H 0.33124 0.81615 0.21554 0.0
H1776 H 0.77935 0.04356 0.06311 0.0
H1777 H 0.77221 0.07114 0.09541 0.0
H1778 H 0.83258 0.08785 0.06982 0.0
H1779 H 0.83975 0.06083 0.03792 0.0
H1780 H 0.80112 0.07317 0.13502 0.0
H1781 H 0.78664 0.14791 0.06855 0.0
H1782 H 0.78453 0.12117 0.06018 0.0
H1783 H 0.8105 0.12706 0.05981 0.0
C1784 C 0.79093 0.0533 0.06429 0.0
C1785 C 0.81008 0.05002 0.04796 0.0
C1786 C 0.78691 0.06892 0.08277 0.0
C1787 C 0.80183 0.0816 0.08481 0.0
C1788 C 0.82078 0.07841 0.06839 0.0
H1789 H 0.81312 0.18912 0.17006 0.0
H1790 H 0.82139 0.1566 0.14467 0.0
C1791 C 0.82485 0.06285 0.0502 0.0
C1792 C 0.79812 0.09812 0.10415 0.0
H1793 H 0.79263 0.15321 0.11045 0.0
C1794 C 0.799 0.09071 0.12976 0.0
C1795 C 0.79568 0.12092 0.09712 0.0
C1796 C 0.7941 0.12984 0.06994 0.0
C1797 C 0.79795 0.10554 0.14852 0.0
C1798 C 0.79568 0.12833 0.14143 0.0
C1799 C 0.79462 0.1357 0.11582 0.0
C1800 C 0.79315 0.14517 0.16023 0.0
C1801 C 0.79983 0.09665 0.17564 0.0
C1802 C 0.77496 0.14908 0.17796 0.0
C1803 C 0.77028 0.16755 0.19244 0.0
C1804 C 0.78369 0.18247 0.18943 0.0
C1805 C 0.8027 0.17771 0.17299 0.0
C1806 C 0.80732 0.15926 0.15836 0.0
H1807 H 0.80735 0.07859 0.17697 0.0
H1808 H 0.80947 0.10536 0.18522 0.0
H1809 H 0.78351 0.09936 0.18598 0.0
H1810 H 0.76362 0.13867 0.17945 0.0
H1811 H 0.75546 0.17096 0.20489 0.0
H1812 H 0.59428 0.58053 0.90445 0.0
H1813 H 0.61957 0.60454 0.89769 0.0
H1814 H 0.61777 0.60541 0.81696 0.0
H1815 H 0.59224 0.58169 0.82358 0.0
H1816 H 0.66112 0.59857 0.86727 0.0
H1817 H 0.59912 0.67183 0.83499 0.0
H1818 H 0.59222 0.64779 0.85197 0.0
H1819 H 0.60229 0.6468 0.81913 0.0
C1820 C 0.59933 0.58579 0.88527 0.0
C1821 C 0.5912 0.5793 0.86459 0.0
C1822 C 0.61383 0.59938 0.88143 0.0
C1823 C 0.62031 0.60688 0.85685 0.0
C1824 C 0.61278 0.59991 0.83608 0.0
H1825 H 0.72086 0.68212 0.82868 0.0
H1826 H 0.69986 0.65494 0.8246 0.0
C1827 C 0.59836 0.5862 0.8399 0.0
C1828 C 0.63431 0.62266 0.85318 0.0
H1829 H 0.63397 0.67678 0.83635 0.0
C1830 C 0.65533 0.61563 0.86029 0.0
C1831 C 0.62652 0.6449 0.84429 0.0
C1832 C 0.60376 0.65345 0.83729 0.0
C1833 C 0.66871 0.63043 0.85916 0.0
C1834 C 0.66088 0.65274 0.85039 0.0
C1835 C 0.63998 0.65962 0.84284 0.0
C1836 C 0.67326 0.66969 0.85124 0.0
C1837 C 0.69076 0.6223 0.86836 0.0
C1838 C 0.6649 0.68739 0.86678 0.0
C1839 C 0.67666 0.70301 0.86889 0.0
C1840 C 0.6971 0.70124 0.85554 0.0
C1841 C 0.70518 0.68391 0.83924 0.0
C1842 C 0.69331 0.66826 0.83709 0.0
H1843 H 0.6926 0.60599 0.8792 0.0
H1844 H 0.7031 0.62042 0.85183 0.0
H1845 H 0.694 0.63437 0.88057 0.0
H1846 H 0.64937 0.68891 0.87769 0.0
H1847 H 0.66977 0.71643 0.88115 0.0
H1848 H 0.46423 0.55817 0.79376 0.0
H1849 H 0.43307 0.58978 0.79304 0.0
H1850 H 0.46857 0.62963 0.82406 0.0
H1851 H 0.49994 0.59818 0.82457 0.0
H1852 H 0.41054 0.61187 0.83441 0.0
H1853 H 0.4433 0.67005 0.76523 0.0
H1854 H 0.45627 0.64095 0.76872 0.0
H1855 H 0.45941 0.65965 0.79098 0.0
C1856 C 0.46561 0.57376 0.79999 0.0
C1857 C 0.48473 0.57561 0.80903 0.0
C1858 C 0.4477 0.59181 0.79968 0.0
C1859 C 0.4485 0.61217 0.80825 0.0
C1860 C 0.46767 0.61424 0.81686 0.0
H1861 H 0.36015 0.73892 0.8284 0.0
H1862 H 0.38996 0.70664 0.82738 0.0
C1863 C 0.48562 0.59619 0.81716 0.0
C1864 C 0.42894 0.63085 0.80931 0.0
H1865 H 0.40962 0.68458 0.7881 0.0
C1866 C 0.41027 0.62774 0.82416 0.0
C1867 C 0.42862 0.65158 0.79603 0.0
C1868 C 0.4479 0.65578 0.77915 0.0
C1869 C 0.39148 0.64493 0.82661 0.0
C1870 C 0.39114 0.6657 0.81333 0.0
C1871 C 0.40979 0.6687 0.79829 0.0
C1872 C 0.37205 0.68489 0.81549 0.0
C1873 C 0.37245 0.64087 0.84408 0.0
C1874 C 0.35173 0.68362 0.80938 0.0
C1875 C 0.33424 0.70223 0.81056 0.0
C1876 C 0.33679 0.7226 0.81754 0.0
C1877 C 0.35718 0.72364 0.82361 0.0
C1878 C 0.37449 0.7051 0.82272 0.0
H1879 H 0.37728 0.62664 0.858 0.0
H1880 H 0.36435 0.65573 0.85459 0.0
H1881 H 0.36065 0.63696 0.83271 0.0
H1882 H 0.3495 0.6684 0.80308 0.0
H1883 H 0.31892 0.7008 0.8053 0.0
H1884 H 0.46622 0.48387 0.90341 0.0
H1885 H 0.44227 0.46071 0.8967 0.0
H1886 H 0.47428 0.44886 0.8218 0.0
H1887 H 0.49911 0.47084 0.8287 0.0
H1888 H 0.41388 0.46622 0.86117 0.0
H1889 H 0.47512 0.38674 0.85049 0.0
H1890 H 0.481 0.41062 0.86216 0.0
H1891 H 0.48047 0.40884 0.82873 0.0
C1892 C 0.46856 0.47605 0.88567 0.0
C1893 C 0.48484 0.47931 0.86671 0.0
C1894 C 0.45465 0.46295 0.88179 0.0
C1895 C 0.45666 0.45286 0.85888 0.0
C1896 C 0.47271 0.45614 0.83983 0.0
H1897 H 0.38898 0.3594 0.81444 0.0
H1898 H 0.40839 0.38891 0.81116 0.0
C1899 C 0.48678 0.46902 0.84377 0.0
C1900 C 0.4417 0.43919 0.85483 0.0
H1901 H 0.43971 0.38707 0.8426 0.0
C1902 C 0.41951 0.44892 0.85706 0.0
C1903 C 0.44912 0.41667 0.84933 0.0
C1904 C 0.4727 0.40501 0.84776 0.0
C1905 C 0.4045 0.43667 0.85412 0.0
C1906 C 0.4119 0.41407 0.84905 0.0
C1907 C 0.4341 0.40448 0.84623 0.0
C1908 C 0.39703 0.3994 0.84899 0.0
C1909 C 0.38086 0.44803 0.85654 0.0
C1910 C 0.38374 0.39602 0.87104 0.0
C1911 C 0.37255 0.37939 0.87285 0.0
C1912 C 0.37466 0.36563 0.85277 0.0
C1913 C 0.38688 0.36992 0.83009 0.0
C1914 C 0.39809 0.38663 0.82827 0.0
H1915 H 0.37826 0.46617 0.85203 0.0
H1916 H 0.37192 0.4412 0.84389 0.0
H1917 H 0.37402 0.44547 0.87637 0.0
H1918 H 0.38302 0.40534 0.88744 0.0
H1919 H 0.3632 0.37644 0.89052 0.0
H1920 H 0.57814 0.45276 0.85627 0.0
H1921 H 0.61055 0.42357 0.84755 0.0
H1922 H 0.63452 0.46638 0.78931 0.0
H1923 H 0.60166 0.49599 0.79793 0.0
H1924 H 0.64041 0.41613 0.77995 0.0
H1925 H 0.66942 0.43365 0.86841 0.0
H1926 H 0.64191 0.4315 0.87092 0.0
H1927 H 0.64976 0.45383 0.85162 0.0
C1928 C 0.59011 0.45591 0.84128 0.0
C1929 C 0.58743 0.47672 0.82789 0.0
C1930 C 0.60863 0.43919 0.83635 0.0
C1931 C 0.62503 0.44292 0.81806 0.0
C1932 C 0.622 0.46323 0.80355 0.0
H1933 H 0.75602 0.36217 0.81812 0.0
H1934 H 0.72397 0.39239 0.81793 0.0
C1935 C 0.60323 0.48006 0.80839 0.0
C1936 C 0.64577 0.42601 0.81583 0.0
H1937 H 0.68819 0.40067 0.84936 0.0
C1938 C 0.65102 0.41285 0.79494 0.0
C1939 C 0.65962 0.42188 0.83536 0.0
C1940 C 0.65508 0.43602 0.8578 0.0
C1941 C 0.66954 0.39523 0.79343 0.0
C1942 C 0.68288 0.39046 0.81357 0.0
C1943 C 0.67788 0.40412 0.83405 0.0
C1944 C 0.70232 0.37168 0.81373 0.0
C1945 C 0.67471 0.38205 0.77017 0.0
C1946 C 0.70087 0.34975 0.81205 0.0
C1947 C 0.71932 0.33225 0.8122 0.0
C1948 C 0.73956 0.3363 0.81439 0.0
C1949 C 0.74078 0.35824 0.81676 0.0
C1950 C 0.72241 0.37567 0.81645 0.0
H1951 H 0.66679 0.39152 0.75379 0.0
H1952 H 0.69234 0.3772 0.7648 0.0
H1953 H 0.66875 0.36674 0.77415 0.0
H1954 H 0.68547 0.34614 0.81066 0.0
H1955 H 0.71773 0.31561 0.81038 0.0
H1956 H 0.62307 0.4905 0.23081 0.0
H1957 H 0.65184 0.45893 0.2415 0.0
H1958 H 0.61714 0.44901 0.31414 0.0
H1959 H 0.58786 0.48125 0.30356 0.0
H1960 H 0.66338 0.44369 0.3147 0.0
H1961 H 0.6444 0.3952 0.2421 0.0
H1962 H 0.64779 0.42197 0.22978 0.0
H1963 H 0.6259 0.41991 0.25345 0.0
C1964 C 0.62145 0.48176 0.24917 0.0
C1965 C 0.60298 0.48822 0.26622 0.0
C1966 C 0.63797 0.46364 0.25521 0.0
C1967 C 0.63642 0.45133 0.27834 0.0
C1968 C 0.61852 0.45823 0.29606 0.0
H1969 H 0.7199 0.31927 0.29213 0.0
H1970 H 0.68925 0.35103 0.29198 0.0
C1971 C 0.60185 0.47662 0.29003 0.0
C1972 C 0.65338 0.43093 0.28313 0.0
H1973 H 0.6789 0.38205 0.25746 0.0
C1974 C 0.66665 0.43002 0.30247 0.0
C1975 C 0.65746 0.41303 0.2673 0.0
C1976 C 0.64301 0.41242 0.24715 0.0
C1977 C 0.68438 0.41198 0.30584 0.0
C1978 C 0.68921 0.39468 0.28901 0.0
C1979 C 0.67544 0.39536 0.27021 0.0
C1980 C 0.70815 0.37547 0.29057 0.0
C1981 C 0.69759 0.4116 0.32752 0.0
C1982 C 0.72916 0.37848 0.2897 0.0
C1983 C 0.74687 0.36016 0.2901 0.0
C1984 C 0.74389 0.33855 0.29075 0.0
C1985 C 0.72286 0.33565 0.29141 0.0
C1986 C 0.70524 0.35386 0.2914 0.0
H1987 H 0.6881 0.42182 0.34288 0.0
H1988 H 0.70366 0.39446 0.33559 0.0
H1989 H 0.71159 0.41864 0.32059 0.0
H1990 H 0.73195 0.39497 0.28827 0.0
H1991 H 0.76288 0.36294 0.28944 0.0
H1992 H 0.61426 0.57358 0.26402 0.0
H1993 H 0.63818 0.5969 0.27085 0.0
H1994 H 0.61913 0.63808 0.20407 0.0
H1995 H 0.59454 0.61539 0.19764 0.0
H1996 H 0.67255 0.605 0.23978 0.0
H1997 H 0.61193 0.68383 0.25584 0.0
H1998 H 0.60473 0.65759 0.25659 0.0
H1999 H 0.61001 0.67227 0.22681 0.0
C2000 C 0.61485 0.58779 0.25099 0.0
C2001 C 0.60231 0.59263 0.23033 0.0
C2002 C 0.62865 0.60104 0.25486 0.0
C2003 C 0.63016 0.61948 0.23826 0.0
C2004 C 0.61787 0.62424 0.21748 0.0
H2005 H 0.71128 0.70988 0.20622 0.0
H2006 H 0.68294 0.68964 0.20982 0.0
C2007 C 0.60402 0.61103 0.21361 0.0
C2008 C 0.64534 0.63309 0.24194 0.0
H2009 H 0.64865 0.68616 0.24789 0.0
C2010 C 0.66731 0.6227 0.2419 0.0
C2011 C 0.63845 0.65618 0.24474 0.0
C2012 C 0.61497 0.66811 0.24626 0.0
C2013 C 0.68268 0.63489 0.24355 0.0
C2014 C 0.67584 0.65806 0.2457 0.0
C2015 C 0.65383 0.66839 0.2463 0.0
C2016 C 0.69147 0.672 0.24541 0.0
C2017 C 0.70619 0.62302 0.24191 0.0
C2018 C 0.70514 0.66941 0.26473 0.0
C2019 C 0.72137 0.68101 0.26273 0.0
C2020 C 0.72418 0.6953 0.24132 0.0
C2021 C 0.70966 0.69877 0.22277 0.0
C2022 C 0.69343 0.68727 0.22483 0.0
H2023 H 0.70901 0.60601 0.23546 0.0
H2024 H 0.7159 0.6324 0.2287 0.0
H2025 H 0.71204 0.62172 0.26089 0.0
H2026 H 0.70364 0.65795 0.28097 0.0
H2027 H 0.73236 0.67797 0.27726 0.0
H2028 H 0.48664 0.57887 0.30099 0.0
H2029 H 0.45649 0.61121 0.30997 0.0
H2030 H 0.48074 0.64806 0.24556 0.0
H2031 H 0.51013 0.616 0.23622 0.0
H2032 H 0.45247 0.65665 0.3181 0.0
H2033 H 0.42088 0.64732 0.22845 0.0
H2034 H 0.44185 0.62625 0.24196 0.0
H2035 H 0.4482 0.64991 0.22369 0.0
C2036 C 0.48564 0.59404 0.28912 0.0
C2037 C 0.50046 0.5949 0.26773 0.0
C2038 C 0.46846 0.61244 0.29418 0.0
C2039 C 0.46612 0.63182 0.27801 0.0
C2040 C 0.48191 0.63311 0.25788 0.0
H2041 H 0.37751 0.76247 0.29439 0.0
H2042 H 0.40959 0.73139 0.29332 0.0
C2043 C 0.49874 0.61479 0.25263 0.0
C2044 C 0.44666 0.65033 0.28081 0.0
H2045 H 0.40581 0.68118 0.2481 0.0
C2046 C 0.44214 0.66197 0.30293 0.0
C2047 C 0.43303 0.65703 0.26111 0.0
C2048 C 0.43608 0.64434 0.23758 0.0
C2049 C 0.42459 0.68049 0.30558 0.0
C2050 C 0.41161 0.68779 0.28533 0.0
C2051 C 0.41596 0.67584 0.26346 0.0
C2052 C 0.39252 0.70685 0.28677 0.0
C2053 C 0.41984 0.69177 0.33018 0.0
C2054 C 0.37246 0.70351 0.2829 0.0
C2055 C 0.35442 0.72115 0.28302 0.0
C2056 C 0.35581 0.7427 0.28703 0.0
C2057 C 0.37589 0.74611 0.29112 0.0
C2058 C 0.39417 0.72833 0.29078 0.0
H2059 H 0.42768 0.68093 0.3458 0.0
H2060 H 0.42608 0.70696 0.32784 0.0
H2061 H 0.40224 0.69669 0.33571 0.0
H2062 H 0.37071 0.68714 0.27987 0.0
H2063 H 0.33925 0.71761 0.28057 0.0
H2064 H 0.51451 0.46585 0.20401 0.0
H2065 H 0.4883 0.44303 0.21073 0.0
H2066 H 0.45126 0.4858 0.26745 0.0
H2067 H 0.47727 0.50907 0.26048 0.0
H2068 H 0.47561 0.42086 0.2581 0.0
H2069 H 0.40706 0.48171 0.2178 0.0
H2070 H 0.43451 0.48426 0.21113 0.0
H2071 H 0.42005 0.49109 0.24134 0.0
C2072 C 0.50066 0.47063 0.21767 0.0
C2073 C 0.49794 0.48942 0.23156 0.0
C2074 C 0.48578 0.45745 0.22163 0.0
C2075 C 0.46775 0.46284 0.2394 0.0
C2076 C 0.46494 0.4815 0.25342 0.0
H2077 H 0.36064 0.39628 0.26557 0.0
H2078 H 0.38415 0.42087 0.27075 0.0
C2079 C 0.47991 0.49467 0.24955 0.0
C2080 C 0.45218 0.44858 0.24337 0.0
H2081 H 0.40129 0.44687 0.23304 0.0
C2082 C 0.4593 0.42658 0.25281 0.0
C2083 C 0.43087 0.45615 0.23666 0.0
C2084 C 0.42258 0.47954 0.22601 0.0
C2085 C 0.44581 0.4118 0.2553 0.0
C2086 C 0.42479 0.41908 0.24757 0.0
C2087 C 0.4174 0.44131 0.23897 0.0
C2088 C 0.41097 0.40345 0.24617 0.0
C2089 C 0.45426 0.38849 0.26611 0.0
C2090 C 0.41826 0.38551 0.23073 0.0
C2091 C 0.40499 0.37147 0.22787 0.0
C2092 C 0.38399 0.37518 0.24013 0.0
C2093 C 0.3768 0.3929 0.25603 0.0
C2094 C 0.39015 0.40702 0.25888 0.0
H2095 H 0.4671 0.38771 0.27862 0.0
H2096 H 0.44122 0.38185 0.27708 0.0
H2097 H 0.46135 0.37762 0.25037 0.0
H2098 H 0.43407 0.38265 0.22033 0.0
H2099 H 0.4111 0.35784 0.21572 0.0
H2100 H 0.80988 0.58209 0.66133 0.0
H2101 H 0.81285 0.61328 0.68433 0.0
H2102 H 0.78731 0.65884 0.62354 0.0
H2103 H 0.78442 0.62777 0.60023 0.0
H2104 H 0.83494 0.65126 0.66512 0.0
H2105 H 0.74654 0.67611 0.69218 0.0
H2106 H 0.75997 0.64838 0.68364 0.0
H2107 H 0.75575 0.67061 0.65962 0.0
C2108 C 0.80513 0.59871 0.65267 0.0
C2109 C 0.79688 0.6024 0.62893 0.0
C2110 C 0.80685 0.61651 0.66586 0.0
C2111 C 0.80013 0.63834 0.65572 0.0
C2112 C 0.79246 0.6421 0.63174 0.0
H2113 H 0.77743 0.76107 0.73329 0.0
H2114 H 0.77996 0.73474 0.70103 0.0
C2115 C 0.79092 0.6243 0.61841 0.0
C2116 C 0.80044 0.65716 0.67071 0.0
H2117 H 0.76779 0.69704 0.70683 0.0
C2118 C 0.82028 0.66139 0.67415 0.0
C2119 C 0.78128 0.67039 0.6823 0.0
C2120 C 0.75961 0.66621 0.67947 0.0
C2121 C 0.82148 0.67847 0.68903 0.0
C2122 C 0.80235 0.69131 0.70134 0.0
C2123 C 0.78247 0.68731 0.6974 0.0
C2124 C 0.80255 0.70811 0.71946 0.0
C2125 C 0.84327 0.68264 0.69115 0.0
C2126 C 0.81443 0.70207 0.74056 0.0
C2127 C 0.8133 0.71725 0.75873 0.0
C2128 C 0.80019 0.73878 0.7563 0.0
C2129 C 0.78819 0.74485 0.73529 0.0
C2130 C 0.78949 0.72971 0.71695 0.0
H2131 H 0.85452 0.67762 0.67409 0.0
H2132 H 0.84212 0.70034 0.69367 0.0
H2133 H 0.85028 0.67263 0.70774 0.0
H2134 H 0.82407 0.68535 0.74347 0.0
H2135 H 0.82232 0.712 0.77505 0.0
H2136 H 0.50961 0.74637 0.66784 0.0
H2137 H 0.4746 0.75155 0.69285 0.0
H2138 H 0.44713 0.80277 0.63824 0.0
H2139 H 0.48206 0.79741 0.61281 0.0
H2140 H 0.44793 0.78941 0.71535 0.0
H2141 H 0.40634 0.761 0.6438 0.0
H2142 H 0.43527 0.75614 0.64191 0.0
H2143 H 0.41926 0.78294 0.63257 0.0
C2144 C 0.49614 0.75862 0.66094 0.0
C2145 C 0.49882 0.77129 0.63803 0.0
C2146 C 0.47607 0.76168 0.67543 0.0
C2147 C 0.458 0.77733 0.66738 0.0
C2148 C 0.46065 0.79031 0.64475 0.0
H2149 H 0.32117 0.80848 0.72294 0.0
H2150 H 0.35657 0.80775 0.70005 0.0
C2151 C 0.48077 0.78735 0.63029 0.0
C2152 C 0.43648 0.77997 0.68265 0.0
H2153 H 0.38496 0.77507 0.68045 0.0
C2154 C 0.43416 0.78625 0.70772 0.0
C2155 C 0.41839 0.77594 0.67282 0.0
C2156 C 0.41987 0.76845 0.64639 0.0
C2157 C 0.4143 0.78902 0.72294 0.0
C2158 C 0.39622 0.78476 0.71321 0.0
C2159 C 0.39862 0.77844 0.68811 0.0
C2160 C 0.37469 0.78669 0.7285 0.0
C2161 C 0.41279 0.79721 0.74903 0.0
C2162 C 0.37271 0.77533 0.75242 0.0
C2163 C 0.35239 0.77606 0.76573 0.0
C2164 C 0.33344 0.78797 0.75541 0.0
C2165 C 0.33542 0.7994 0.73161 0.0
C2166 C 0.35572 0.79888 0.71842 0.0
H2167 H 0.42529 0.80641 0.75046 0.0
H2168 H 0.39675 0.80822 0.75403 0.0
H2169 H 0.41537 0.78284 0.76314 0.0
H2170 H 0.38683 0.76518 0.76047 0.0
H2171 H 0.35161 0.76645 0.78355 0.0
H2172 H 0.30303 0.46535 0.59114 0.0
H2173 H 0.29618 0.4424 0.62918 0.0
H2174 H 0.3526 0.39198 0.60661 0.0
H2175 H 0.35952 0.41482 0.56819 0.0
H2176 H 0.28819 0.40106 0.63294 0.0
H2177 H 0.36104 0.3994 0.67987 0.0
H2178 H 0.35268 0.41873 0.65357 0.0
H2179 H 0.36677 0.39062 0.64809 0.0
C2180 C 0.31399 0.44935 0.59406 0.0
C2181 C 0.33184 0.44197 0.57636 0.0
C2182 C 0.31009 0.43629 0.616 0.0
C2183 C 0.324 0.41558 0.62099 0.0
C2184 C 0.34188 0.40812 0.60349 0.0
H2185 H 0.29791 0.30537 0.71661 0.0
H2186 H 0.30324 0.33262 0.68279 0.0
C2187 C 0.34581 0.4212 0.58146 0.0
C2188 C 0.31919 0.40148 0.64396 0.0
H2189 H 0.33982 0.37437 0.69759 0.0
C2190 C 0.29944 0.39536 0.64715 0.0
C2191 C 0.33369 0.39429 0.66274 0.0
C2192 C 0.35465 0.40125 0.6611 0.0
C2193 C 0.29405 0.38178 0.66815 0.0
C2194 C 0.30894 0.37379 0.68636 0.0
C2195 C 0.32844 0.38041 0.68359 0.0
C2196 C 0.30505 0.35757 0.70755 0.0
C2197 C 0.27239 0.37615 0.67065 0.0
C2198 C 0.30471 0.36221 0.73297 0.0
C2199 C 0.3015 0.34647 0.75268 0.0
C2200 C 0.2987 0.32575 0.74729 0.0
C2201 C 0.29925 0.32126 0.72175 0.0
C2202 C 0.30242 0.3369 0.7022 0.0
H2203 H 0.26062 0.38863 0.65999 0.0
H2204 H 0.2742 0.35987 0.66275 0.0
H2205 H 0.26575 0.37506 0.69079 0.0
H2206 H 0.30694 0.37801 0.73753 0.0
H2207 H 0.30146 0.35043 0.77207 0.0
H2208 H 0.54294 0.31146 0.58245 0.0
H2209 H 0.56729 0.3206 0.61015 0.0
H2210 H 0.62176 0.28054 0.56733 0.0
H2211 H 0.59774 0.27154 0.54 0.0
H2212 H 0.59435 0.28914 0.64015 0.0
H2213 H 0.64333 0.33523 0.57471 0.0
H2214 H 0.61776 0.33162 0.56744 0.0
H2215 H 0.64187 0.31001 0.56213 0.0
C2216 C 0.56017 0.30533 0.5785 0.0
C2217 C 0.5685 0.29104 0.5589 0.0
C2218 C 0.57405 0.31036 0.59444 0.0
C2219 C 0.59645 0.30151 0.59066 0.0
C2220 C 0.60468 0.28802 0.57037 0.0
H2221 H 0.71176 0.2635 0.66002 0.0
H2222 H 0.68262 0.27497 0.63249 0.0
C2223 C 0.5909 0.28282 0.55476 0.0
C2224 C 0.61128 0.30424 0.60904 0.0
H2225 H 0.65979 0.3166 0.61182 0.0
C2226 C 0.60837 0.29568 0.63417 0.0
C2227 C 0.62968 0.31265 0.60125 0.0
C2228 C 0.63325 0.3231 0.57496 0.0
C2229 C 0.624 0.29398 0.65114 0.0
C2230 C 0.64293 0.30138 0.64291 0.0
C2231 C 0.64532 0.31092 0.61817 0.0
C2232 C 0.66139 0.29702 0.65866 0.0
C2233 C 0.6208 0.28299 0.67724 0.0
C2234 C 0.65958 0.30628 0.68218 0.0
C2235 C 0.67641 0.29986 0.69791 0.0
C2236 C 0.69524 0.28401 0.69038 0.0
C2237 C 0.69744 0.27576 0.66627 0.0
C2238 C 0.68077 0.28228 0.65055 0.0
H2239 H 0.60704 0.27498 0.67924 0.0
H2240 H 0.63554 0.27028 0.68163 0.0
H2241 H 0.61758 0.29561 0.6915 0.0
H2242 H 0.64491 0.31793 0.6887 0.0
H2243 H 0.67423 0.30631 0.71649 0.0
H2244 H 0.80201 0.54739 0.48268 0.0
H2245 H 0.80313 0.51673 0.45665 0.0
H2246 H 0.80178 0.47293 0.52387 0.0
H2247 H 0.80095 0.50338 0.55006 0.0
H2248 H 0.83075 0.45387 0.48434 0.0
H2249 H 0.75035 0.49233 0.45138 0.0
H2250 H 0.76955 0.50919 0.44547 0.0
H2251 H 0.76008 0.5022 0.4775 0.0
C2252 C 0.8023 0.53117 0.49195 0.0
C2253 C 0.80134 0.52791 0.51852 0.0
C2254 C 0.8027 0.5137 0.47702 0.0
C2255 C 0.80204 0.49266 0.48834 0.0
C2256 C 0.80214 0.48908 0.51473 0.0
H2257 H 0.779 0.3715 0.45091 0.0
H2258 H 0.7786 0.40698 0.46737 0.0
C2259 C 0.80176 0.50651 0.52968 0.0
C2260 C 0.80091 0.47441 0.47286 0.0
H2261 H 0.76905 0.45821 0.43478 0.0
C2262 C 0.81736 0.45491 0.47334 0.0
C2263 C 0.78329 0.47572 0.45867 0.0
C2264 C 0.76469 0.49588 0.45831 0.0
C2265 C 0.81662 0.43667 0.46014 0.0
C2266 C 0.79901 0.43796 0.4461 0.0
C2267 C 0.78265 0.45747 0.44532 0.0
C2268 C 0.7966 0.4183 0.43419 0.0
C2269 C 0.83434 0.41582 0.46175 0.0
C2270 C 0.8063 0.4133 0.40972 0.0
C2271 C 0.80644 0.39303 0.40017 0.0
C2272 C 0.7971 0.37749 0.41515 0.0
C2273 C 0.78645 0.38314 0.43907 0.0
C2274 C 0.78616 0.40337 0.44847 0.0
H2275 H 0.84734 0.41771 0.47275 0.0
H2276 H 0.82757 0.402 0.47089 0.0
H2277 H 0.84143 0.41118 0.44241 0.0
H2278 H 0.81448 0.42466 0.39849 0.0
H2279 H 0.81485 0.38899 0.38175 0.0
H2280 H 0.63463 0.79815 0.512 0.0
H2281 H 0.66179 0.8041 0.47752 0.0
H2282 H 0.65229 0.74936 0.44015 0.0
H2283 H 0.62495 0.74357 0.47419 0.0
H2284 H 0.70066 0.77501 0.46022 0.0
H2285 H 0.64671 0.79872 0.38347 0.0
H2286 H 0.63666 0.79828 0.41655 0.0
H2287 H 0.64521 0.77293 0.4006 0.0
C2288 C 0.63812 0.7875 0.49634 0.0
C2289 C 0.62744 0.77035 0.49605 0.0
C2290 C 0.6538 0.79086 0.47664 0.0
C2291 C 0.65902 0.77738 0.45593 0.0
C2292 C 0.64841 0.76025 0.45561 0.0
H2293 H 0.77514 0.75891 0.34859 0.0
H2294 H 0.74885 0.75683 0.3849 0.0
C2295 C 0.63286 0.7568 0.47534 0.0
C2296 C 0.67585 0.78081 0.43499 0.0
H2297 H 0.68423 0.79123 0.37091 0.0
C2298 C 0.69703 0.77874 0.4407 0.0
C2299 C 0.67124 0.78584 0.40947 0.0
C2300 C 0.64869 0.78929 0.40209 0.0
C2301 C 0.71371 0.7811 0.42172 0.0
C2302 C 0.70927 0.78551 0.39596 0.0
C2303 C 0.68792 0.78793 0.39042 0.0
C2304 C 0.72629 0.78742 0.3744 0.0
C2305 C 0.73581 0.77893 0.42986 0.0
C2306 C 0.72258 0.80491 0.3555 0.0
C2307 C 0.7376 0.80578 0.33423 0.0
C2308 C 0.757 0.78949 0.33154 0.0
C2309 C 0.76086 0.7722 0.35052 0.0
C2310 C 0.74568 0.77103 0.37145 0.0
H2311 H 0.73481 0.78457 0.44926 0.0
H2312 H 0.74461 0.76123 0.43026 0.0
H2313 H 0.74526 0.78856 0.41683 0.0
H2314 H 0.70783 0.81779 0.35696 0.0
H2315 H 0.73396 0.81908 0.31972 0.0
H2316 H 0.30303 0.5885 0.47316 0.0
H2317 H 0.2944 0.62588 0.45311 0.0
H2318 H 0.33922 0.60415 0.3886 0.0
H2319 H 0.34731 0.56643 0.40805 0.0
H2320 H 0.31921 0.65482 0.43856 0.0
H2321 H 0.28634 0.63511 0.35421 0.0
H2322 H 0.29143 0.61569 0.38128 0.0
H2323 H 0.31316 0.6191 0.35798 0.0
C2324 C 0.31087 0.59146 0.45454 0.0
C2325 C 0.32572 0.57414 0.44217 0.0
C2326 C 0.306 0.613 0.44315 0.0
C2327 C 0.31579 0.61787 0.41907 0.0
C2328 C 0.331 0.60079 0.4069 0.0
H2329 H 0.3171 0.73416 0.31982 0.0
H2330 H 0.32193 0.69757 0.34107 0.0
C2331 C 0.33584 0.57919 0.41824 0.0
C2332 C 0.31039 0.64088 0.40702 0.0
H2333 H 0.29258 0.67117 0.35362 0.0
C2334 C 0.31321 0.6584 0.42008 0.0
C2335 C 0.30249 0.64568 0.3829 0.0
C2336 C 0.29796 0.62795 0.36836 0.0
C2337 C 0.309 0.68035 0.40941 0.0
C2338 C 0.30141 0.68505 0.38516 0.0
C2339 C 0.29835 0.6676 0.37223 0.0
C2340 C 0.29776 0.70769 0.3722 0.0
C2341 C 0.31344 0.6982 0.42382 0.0
C2342 C 0.2824 0.72579 0.38235 0.0
C2343 C 0.27951 0.747 0.36987 0.0
C2344 C 0.29165 0.75043 0.3468 0.0
C2345 C 0.30709 0.73226 0.33701 0.0
C2346 C 0.30994 0.71117 0.34931 0.0
H2347 H 0.32356 0.69118 0.43948 0.0
H2348 H 0.32165 0.70926 0.411 0.0
H2349 H 0.29796 0.70842 0.43214 0.0
H2350 H 0.27261 0.72351 0.39987 0.0
H2351 H 0.26769 0.7607 0.37813 0.0
H2352 H 0.45649 0.25392 0.49326 0.0
H2353 H 0.42849 0.26049 0.46445 0.0
H2354 H 0.45277 0.31408 0.42529 0.0
H2355 H 0.48114 0.30764 0.45448 0.0
H2356 H 0.39831 0.31317 0.44602 0.0
H2357 H 0.44993 0.25482 0.37806 0.0
H2358 H 0.45263 0.24953 0.41154 0.0
H2359 H 0.46097 0.27267 0.39482 0.0
C2360 C 0.45582 0.26732 0.47873 0.0
C2361 C 0.47113 0.28025 0.47619 0.0
C2362 C 0.43975 0.27103 0.46226 0.0
C2363 C 0.43858 0.28766 0.44265 0.0
C2364 C 0.45338 0.30115 0.44036 0.0
H2365 H 0.36192 0.29271 0.31515 0.0
H2366 H 0.38988 0.29511 0.34135 0.0
C2367 C 0.4695 0.29754 0.4571 0.0
C2368 C 0.42232 0.28997 0.42423 0.0
H2369 H 0.41332 0.26741 0.37158 0.0
C2370 C 0.40161 0.30343 0.42952 0.0
C2371 C 0.42665 0.27726 0.40275 0.0
C2372 C 0.44873 0.26272 0.39621 0.0
C2373 C 0.38503 0.30429 0.41409 0.0
C2374 C 0.38904 0.29072 0.39317 0.0
C2375 C 0.41002 0.27773 0.38758 0.0
C2376 C 0.37176 0.2894 0.37714 0.0
C2377 C 0.36348 0.31998 0.42034 0.0
C2378 C 0.35221 0.28499 0.38823 0.0
C2379 C 0.336 0.28404 0.37327 0.0
C2380 C 0.33906 0.28669 0.34667 0.0
C2381 C 0.35888 0.29046 0.33552 0.0
C2382 C 0.37497 0.29185 0.35055 0.0
H2383 H 0.3652 0.33418 0.43042 0.0
H2384 H 0.35533 0.32655 0.40304 0.0
H2385 H 0.35304 0.3111 0.4331 0.0
H2386 H 0.34941 0.28226 0.40857 0.0
H2387 H 0.32098 0.28145 0.3827 0.0
H2388 H 0.63136 0.76461 0.6164 0.0
H2389 H 0.65522 0.77352 0.64376 0.0
H2390 H 0.6136 0.83881 0.65104 0.0
H2391 H 0.5892 0.82989 0.62333 0.0
H2392 H 0.67664 0.80889 0.63689 0.0
H2393 H 0.62097 0.81128 0.72546 0.0
H2394 H 0.61704 0.79861 0.69779 0.0
H2395 H 0.6111 0.8282 0.69816 0.0
C2396 C 0.62717 0.78091 0.62374 0.0
C2397 C 0.60829 0.79652 0.61783 0.0
C2398 C 0.64091 0.78598 0.63933 0.0
C2399 C 0.63608 0.80671 0.64956 0.0
C2400 C 0.61745 0.82261 0.64347 0.0
H2401 H 0.73701 0.83535 0.72908 0.0
H2402 H 0.70783 0.84012 0.70202 0.0
C2403 C 0.60363 0.81757 0.62758 0.0
C2404 C 0.6508 0.81106 0.66674 0.0
H2405 H 0.65618 0.814 0.72924 0.0
C2406 C 0.67213 0.81041 0.65703 0.0
C2407 C 0.64486 0.81262 0.69302 0.0
C2408 C 0.6223 0.81261 0.70443 0.0
C2409 C 0.68791 0.81052 0.67301 0.0
C2410 C 0.68204 0.81181 0.69938 0.0
C2411 C 0.66056 0.81313 0.70901 0.0
C2412 C 0.69828 0.8103 0.71735 0.0
C2413 C 0.71093 0.80807 0.66166 0.0
C2414 C 0.70193 0.79254 0.73574 0.0
C2415 C 0.7186 0.78984 0.7512 0.0
C2416 C 0.73189 0.80481 0.74834 0.0
C2417 C 0.72752 0.82317 0.73089 0.0
C2418 C 0.71078 0.82596 0.71557 0.0
H2419 H 0.71348 0.80213 0.64223 0.0
H2420 H 0.71504 0.8244 0.66047 0.0
H2421 H 0.72222 0.79632 0.6736 0.0
H2422 H 0.69238 0.78033 0.73749 0.0
H2423 H 0.7217 0.77555 0.76458 0.0
H2424 H 0.59456 0.23225 0.42503 0.0
H2425 H 0.62888 0.23498 0.40171 0.0
H2426 H 0.64032 0.27353 0.45964 0.0
H2427 H 0.60579 0.27119 0.48282 0.0
H2428 H 0.65064 0.29097 0.41442 0.0
H2429 H 0.68775 0.20101 0.41676 0.0
H2430 H 0.66294 0.20782 0.4024 0.0
H2431 H 0.66286 0.21251 0.4353 0.0
C2432 C 0.60447 0.24112 0.43293 0.0
C2433 C 0.59749 0.25135 0.45588 0.0
C2434 C 0.62415 0.24261 0.41961 0.0
C2435 C 0.63748 0.254 0.42918 0.0
C2436 C 0.6304 0.26452 0.45193 0.0
H2437 H 0.77267 0.24101 0.37356 0.0
H2438 H 0.73858 0.23786 0.39763 0.0
C2439 C 0.61061 0.26323 0.46513 0.0
C2440 C 0.65856 0.25534 0.41522 0.0
H2441 H 0.7057 0.22393 0.38831 0.0
C2442 C 0.66274 0.2763 0.40887 0.0
C2443 C 0.67456 0.2362 0.40835 0.0
C2444 C 0.67191 0.21313 0.41629 0.0
C2445 C 0.68227 0.27868 0.39553 0.0
C2446 C 0.6978 0.25957 0.38747 0.0
C2447 C 0.69374 0.2386 0.39417 0.0
C2448 C 0.71847 0.2609 0.37241 0.0
C2449 C 0.68614 0.30167 0.39084 0.0
C2450 C 0.7186 0.27449 0.34998 0.0
C2451 C 0.73802 0.27671 0.3367 0.0
C2452 C 0.75781 0.2645 0.34466 0.0
C2453 C 0.75767 0.25036 0.36669 0.0
C2454 C 0.7382 0.24855 0.38043 0.0
H2455 H 0.67638 0.313 0.40505 0.0
H2456 H 0.70335 0.30146 0.39142 0.0
H2457 H 0.68128 0.30862 0.37191 0.0
H2458 H 0.70367 0.28369 0.34287 0.0
H2459 H 0.73731 0.28825 0.32045 0.0
H2460 H 0.754 0.64628 0.52386 0.0
H2461 H 0.76716 0.66729 0.48693 0.0
H2462 H 0.76138 0.61767 0.43855 0.0
H2463 H 0.74787 0.5969 0.47531 0.0
H2464 H 0.80389 0.65239 0.45676 0.0
H2465 H 0.73437 0.67393 0.39902 0.0
H2466 H 0.732 0.66393 0.43183 0.0
H2467 H 0.74314 0.64488 0.40761 0.0
C2468 C 0.75508 0.64018 0.50523 0.0
C2469 C 0.74967 0.62015 0.5024 0.0
C2470 C 0.76266 0.65211 0.4842 0.0
C2471 C 0.76504 0.64416 0.45995 0.0
C2472 C 0.75916 0.62441 0.45697 0.0
H2473 H 0.81488 0.7012 0.31552 0.0
H2474 H 0.80526 0.67381 0.34778 0.0
C2475 C 0.75139 0.61258 0.478 0.0
C2476 C 0.77517 0.65573 0.43821 0.0
H2477 H 0.76688 0.68202 0.37994 0.0
C2478 C 0.7958 0.65883 0.43995 0.0
C2479 C 0.76469 0.66391 0.41617 0.0
C2480 C 0.74226 0.66169 0.41355 0.0
C2481 C 0.80612 0.67018 0.42043 0.0
C2482 C 0.79545 0.67883 0.39868 0.0
C2483 C 0.77509 0.67518 0.39656 0.0
C2484 C 0.80401 0.69378 0.3793 0.0
C2485 C 0.8283 0.67296 0.42339 0.0
C2486 C 0.80684 0.71383 0.38638 0.0
C2487 C 0.81249 0.7293 0.36813 0.0
C2488 C 0.8151 0.72545 0.34226 0.0
C2489 C 0.81312 0.70485 0.33525 0.0
C2490 C 0.8075 0.68919 0.35363 0.0
H2491 H 0.83687 0.6597 0.43645 0.0
H2492 H 0.83821 0.67282 0.40486 0.0
H2493 H 0.82682 0.68907 0.43157 0.0
H2494 H 0.80366 0.71802 0.40598 0.0
H2495 H 0.81338 0.74481 0.3744 0.0
H2496 H 0.52991 0.83114 0.50593 0.0
H2497 H 0.50404 0.8414 0.47363 0.0
H2498 H 0.47424 0.78871 0.50443 0.0
H2499 H 0.49977 0.77842 0.53627 0.0
H2500 H 0.49757 0.80671 0.43826 0.0
H2501 H 0.42468 0.8476 0.49863 0.0
H2502 H 0.45167 0.84574 0.50644 0.0
H2503 H 0.4403 0.822 0.51186 0.0
C2504 C 0.51752 0.82214 0.50601 0.0
C2505 C 0.51673 0.80405 0.52346 0.0
C2506 C 0.50296 0.82784 0.48753 0.0
C2507 C 0.48736 0.81574 0.48681 0.0
C2508 C 0.48615 0.79824 0.50482 0.0
H2509 H 0.39641 0.79007 0.3994 0.0
H2510 H 0.42967 0.78784 0.41867 0.0
C2511 C 0.50073 0.79242 0.52295 0.0
C2512 C 0.47256 0.82051 0.4669 0.0
H2513 H 0.41914 0.83637 0.45888 0.0
C2514 C 0.48047 0.81362 0.4425 0.0
C2515 C 0.45031 0.8292 0.4728 0.0
C2516 C 0.44117 0.83672 0.49881 0.0
C2517 C 0.46639 0.81455 0.42399 0.0
C2518 C 0.44412 0.82269 0.43018 0.0
C2519 C 0.43633 0.83022 0.4543 0.0
C2520 C 0.4282 0.82288 0.41244 0.0
C2521 C 0.47516 0.80643 0.39818 0.0
C2522 C 0.41707 0.84315 0.40173 0.0
C2523 C 0.39819 0.84445 0.39069 0.0
C2524 C 0.39013 0.82552 0.39048 0.0
C2525 C 0.40241 0.80486 0.39911 0.0
C2526 C 0.42134 0.80357 0.41016 0.0
H2527 H 0.49303 0.80259 0.39553 0.0
H2528 H 0.46982 0.79123 0.39564 0.0
H2529 H 0.46866 0.8191 0.38327 0.0
H2530 H 0.42216 0.8582 0.4035 0.0
H2531 H 0.38903 0.86053 0.38401 0.0
H2532 H 0.27357 0.493 0.44001 0.0
H2533 H 0.25996 0.47106 0.41236 0.0
H2534 H 0.28565 0.4116 0.45756 0.0
H2535 H 0.2996 0.43329 0.48464 0.0
H2536 H 0.29177 0.43453 0.38696 0.0
H2537 H 0.22419 0.40635 0.44336 0.0
H2538 H 0.23179 0.43133 0.44924 0.0
H2539 H 0.24734 0.40476 0.45998 0.0
C2540 C 0.27555 0.47537 0.44447 0.0
C2541 C 0.28738 0.46474 0.46446 0.0
C2542 C 0.26791 0.46288 0.42867 0.0
C2543 C 0.27161 0.43977 0.43315 0.0
C2544 C 0.2823 0.42944 0.45407 0.0
H2545 H 0.29249 0.32414 0.35401 0.0
H2546 H 0.2879 0.35228 0.3843 0.0
C2547 C 0.29027 0.44181 0.46947 0.0
C2548 C 0.2673 0.42588 0.41425 0.0
H2549 H 0.24086 0.3859 0.40737 0.0
C2550 C 0.28027 0.42429 0.39112 0.0
C2551 C 0.25255 0.4123 0.42 0.0
C2552 C 0.23802 0.41381 0.44442 0.0
C2553 C 0.27949 0.40879 0.374 0.0
C2554 C 0.26519 0.39478 0.38009 0.0
C2555 C 0.25171 0.3968 0.40282 0.0
C2556 C 0.26532 0.37699 0.36362 0.0
C2557 C 0.29464 0.40664 0.35002 0.0
C2558 C 0.25382 0.38151 0.34223 0.0
C2559 C 0.25623 0.36527 0.32495 0.0
C2560 C 0.27005 0.34428 0.32896 0.0
C2561 C 0.28123 0.33978 0.3507 0.0
C2562 C 0.27871 0.35592 0.36801 0.0
H2563 H 0.30474 0.4189 0.34799 0.0
H2564 H 0.30538 0.38973 0.34994 0.0
H2565 H 0.28531 0.40896 0.33332 0.0
H2566 H 0.24358 0.39781 0.33848 0.0
H2567 H 0.24772 0.36925 0.30813 0.0
H2568 H 0.45651 0.27414 0.5834 0.0
H2569 H 0.42946 0.27611 0.61987 0.0
H2570 H 0.47031 0.21984 0.65702 0.0
H2571 H 0.49774 0.21816 0.621 0.0
H2572 H 0.40851 0.24314 0.63946 0.0
H2573 H 0.45404 0.26494 0.71163 0.0
H2574 H 0.46199 0.26761 0.67807 0.0
H2575 H 0.46797 0.24093 0.695 0.0
C2576 C 0.45992 0.26238 0.59945 0.0
C2577 C 0.4794 0.24604 0.59926 0.0
C2578 C 0.44438 0.26346 0.62024 0.0
C2579 C 0.44803 0.24834 0.64131 0.0
C2580 C 0.46735 0.23195 0.64116 0.0
H2581 H 0.37331 0.2287 0.78522 0.0
H2582 H 0.40057 0.22493 0.7485 0.0
C2583 C 0.4829 0.23084 0.62039 0.0
C2584 C 0.43122 0.2491 0.66294 0.0
H2585 H 0.42114 0.2554 0.72654 0.0
C2586 C 0.4112 0.24593 0.6585 0.0
C2587 C 0.43486 0.2526 0.68775 0.0
C2588 C 0.45581 0.25691 0.69346 0.0
C2589 C 0.39482 0.24575 0.67827 0.0
C2590 C 0.39838 0.24928 0.70315 0.0
C2591 C 0.41843 0.25252 0.70755 0.0
C2592 C 0.38137 0.25038 0.72475 0.0
C2593 C 0.37418 0.24096 0.67243 0.0
C2594 C 0.36161 0.26596 0.72372 0.0
C2595 C 0.34608 0.26794 0.74451 0.0
C2596 C 0.3499 0.25447 0.76689 0.0
C2597 C 0.36977 0.23902 0.76805 0.0
C2598 C 0.38533 0.23691 0.74713 0.0
H2599 H 0.37621 0.23263 0.65443 0.0
H2600 H 0.36837 0.23021 0.68791 0.0
H2601 H 0.36173 0.2567 0.67055 0.0
H2602 H 0.35838 0.27711 0.7071 0.0
H2603 H 0.3314 0.2805 0.74309 0.0
H2604 H 0.79591 0.4986 0.64344 0.0
H2605 H 0.80517 0.46159 0.66437 0.0
H2606 H 0.73882 0.45805 0.66895 0.0
H2607 H 0.7295 0.49496 0.64723 0.0
H2608 H 0.78978 0.44762 0.71173 0.0
H2609 H 0.77132 0.3998 0.63779 0.0
H2610 H 0.77403 0.42797 0.63175 0.0
H2611 H 0.74963 0.42245 0.64792 0.0
C2612 C 0.78331 0.48987 0.64857 0.0
C2613 C 0.76198 0.49967 0.64345 0.0
C2614 C 0.78862 0.46876 0.66066 0.0
C2615 C 0.77276 0.45694 0.66781 0.0
C2616 C 0.75138 0.46673 0.66311 0.0
H2617 H 0.77713 0.34621 0.77658 0.0
H2618 H 0.77222 0.38237 0.75444 0.0
C2619 C 0.74603 0.48793 0.651 0.0
C2620 C 0.7786 0.43473 0.68109 0.0
H2621 H 0.77931 0.38024 0.67723 0.0
C2622 C 0.78756 0.43287 0.70416 0.0
C2623 C 0.77599 0.41549 0.67095 0.0
C2624 C 0.76741 0.41639 0.64562 0.0
C2625 C 0.79364 0.41233 0.71763 0.0
C2626 C 0.79039 0.39316 0.70797 0.0
C2627 C 0.78177 0.39495 0.68464 0.0
C2628 C 0.79494 0.37128 0.72231 0.0
C2629 C 0.80392 0.41127 0.74179 0.0
C2630 C 0.80918 0.35279 0.71159 0.0
C2631 C 0.81211 0.33186 0.72453 0.0
C2632 C 0.80097 0.32912 0.74842 0.0
C2633 C 0.78675 0.3477 0.75896 0.0
C2634 C 0.78382 0.36854 0.74613 0.0
H2635 H 0.81007 0.42619 0.74335 0.0
H2636 H 0.79188 0.41013 0.75822 0.0
H2637 H 0.81748 0.39644 0.74279 0.0
H2638 H 0.81773 0.35449 0.69306 0.0
H2639 H 0.82277 0.31772 0.71567 0.0
H2640 H 0.34555 0.53483 0.56937 0.0
H2641 H 0.34204 0.56254 0.59985 0.0
H2642 H 0.27597 0.5897 0.58496 0.0
H2643 H 0.2793 0.56165 0.5542 0.0
H2644 H 0.33171 0.60848 0.58681 0.0
H2645 H 0.27446 0.58336 0.66347 0.0
H2646 H 0.2893 0.56487 0.63986 0.0
H2647 H 0.26605 0.58598 0.6321 0.0
C2648 C 0.33016 0.54654 0.5727 0.0
C2649 C 0.3127 0.54624 0.55929 0.0
C2650 C 0.32823 0.56232 0.59015 0.0
C2651 C 0.30879 0.57804 0.59459 0.0
C2652 C 0.29104 0.57744 0.5819 0.0
H2653 H 0.27584 0.70465 0.65301 0.0
H2654 H 0.28828 0.67319 0.62624 0.0
C2655 C 0.29294 0.5615 0.56438 0.0
C2656 C 0.30774 0.59587 0.61131 0.0
H2657 H 0.28256 0.61821 0.66605 0.0
C2658 C 0.32107 0.61056 0.60423 0.0
C2659 C 0.29413 0.59818 0.63415 0.0
C2660 C 0.28028 0.58217 0.64305 0.0
C2661 C 0.32057 0.6281 0.61909 0.0
C2662 C 0.30629 0.63095 0.64134 0.0
C2663 C 0.29349 0.61584 0.64888 0.0
C2664 C 0.30289 0.65056 0.656 0.0
C2665 C 0.33511 0.64356 0.61086 0.0
C2666 C 0.30759 0.64823 0.68127 0.0
C2667 C 0.30068 0.6662 0.69647 0.0
C2668 C 0.28869 0.68648 0.68658 0.0
C2669 C 0.28511 0.68911 0.6609 0.0
C2670 C 0.29223 0.67124 0.64566 0.0
H2671 H 0.34854 0.63621 0.59681 0.0
H2672 H 0.32561 0.65912 0.60201 0.0
H2673 H 0.34191 0.64789 0.6274 0.0
H2674 H 0.31569 0.63227 0.68949 0.0
H2675 H 0.30338 0.66382 0.71633 0.0
loop_
_geom_bond_atom_site_label_1
_geom_bond_atom_site_label_2
_geom_bond_distance
_geom_bond_site_symmetry_2
_ccdc_geom_bond_type
Cu0 N1 1.999 . S
Cu0 O6 1.988 . S
Cu0 N11 1.987 . S
Cu0 O20 1.959 1_455 S
N1 Cu0 1.999 . S
N1 C3 1.263 . S
N1 C5 1.389 . S
N2 C3 1.358 . S
N2 C4 1.400 . S
C3 N1 1.263 . S
C3 N2 1.358 . S
C3 H9 0.930 . S
C4 N2 1.400 . S
C4 C5 1.351 . S
C4 H21 0.930 . S
C5 N1 1.389 . S
C5 C4 1.351 . S
C5 H10 0.930 . S
O6 Cu0 1.988 . S
O6 C16 1.275 1_545 S
C7 O8 1.261 . S
C7 O20 1.251 . S
O8 C7 1.261 . S
H9 C3 0.930 . S
H10 C5 0.930 . S
N11 Cu0 1.987 . S
N11 C13 1.344 1_455 S
N11 C14 1.388 1_545 S
N12 C13 1.296 1_565 S
N12 C15 1.336 . S
C13 N11 1.344 1_655 S
C13 N12 1.296 1_545 S
C13 H18 0.966 . S
C14 N11 1.388 1_565 S
C14 C15 1.346 1_455 S
C14 H19 0.930 . S
C15 N12 1.336 . S
C15 C14 1.346 1_655 S
C15 H22 0.929 . S
C16 O6 1.275 1_565 S
C16 O17 1.214 1_565 S
O17 C16 1.214 1_545 S
H18 C13 0.966 . S
H19 C14 0.930 . S
O20 Cu0 1.959 1_655 S
O20 C7 1.251 . S
H21 C4 0.930 . S
H22 C15 0.929 . S
Cu23 N24 1.999 . S
Cu23 O29 1.974 1_455 S
Cu23 N34 1.985 . S
Cu23 O43 1.959 . S
N24 Cu23 1.999 . S
N24 C26 1.263 1_455 S
N24 C28 1.389 1_545 S
N25 C26 1.358 1_565 S
N25 C27 1.400 . S
C26 N24 1.263 1_655 S
C26 N25 1.358 1_545 S
C26 H32 0.930 . S
C27 N25 1.400 . S
C27 C28 1.351 1_655 S
C27 H44 0.930 . S
C28 N24 1.389 1_565 S
C28 C27 1.351 1_455 S
C28 H33 0.930 . S
O29 Cu23 1.974 1_655 S
O29 C39 1.282 . S
C30 O31 1.261 . S
C30 O43 1.251 . S
O31 C30 1.261 . S
H32 C26 0.930 . S
H33 C28 0.930 . S
N34 Cu23 1.985 . S
N34 C36 1.335 . S
N34 C37 1.390 . S
N35 C36 1.345 . S
N35 C38 1.336 . S
C36 N34 1.335 . S
C36 N35 1.345 . S
C36 H41 0.930 . S
C37 N34 1.390 . S
C37 C38 1.346 . S
C37 H42 0.930 . S
C38 N35 1.336 . S
C38 C37 1.346 . S
C38 H45 0.929 . S
C39 O29 1.282 . S
C39 O40 1.216 . S
O40 C39 1.216 . S
H41 C36 0.930 . S
H42 C37 0.930 . S
O43 Cu23 1.959 . S
O43 C30 1.251 . S
H44 C27 0.930 . S
H45 C38 0.929 . S
Cu46 N47 1.999 . S
Cu46 O52 1.974 . S
Cu46 N57 1.985 . S
Cu46 O66 1.959 . S
N47 Cu46 1.999 . S
N47 C49 1.263 . S
N47 C51 1.389 . S
N48 C49 1.358 . S
N48 C50 1.400 . S
C49 N47 1.263 . S
C49 N48 1.358 . S
C49 H55 0.930 . S
C50 N48 1.400 . S
C50 C51 1.351 . S
C50 H67 0.930 1_554 S
C51 N47 1.389 . S
C51 C50 1.351 . S
C51 H56 0.930 . S
O52 Cu46 1.974 . S
O52 C62 1.282 . S
C53 O54 1.261 . S
C53 O66 1.251 . S
O54 C53 1.261 . S
H55 C49 0.930 . S
H56 C51 0.930 . S
N57 Cu46 1.985 . S
N57 C59 1.335 . S
N57 C60 1.390 . S
N58 C59 1.345 . S
N58 C61 1.336 . S
C59 N57 1.335 . S
C59 N58 1.345 . S
C59 H64 0.930 . S
C60 N57 1.390 . S
C60 C61 1.346 . S
C60 H65 0.930 . S
C61 N58 1.336 . S
C61 C60 1.346 . S
C61 H68 0.929 . S
C62 O52 1.282 . S
C62 O63 1.216 . S
O63 C62 1.216 . S
H64 C59 0.930 . S
H65 C60 0.930 . S
O66 Cu46 1.959 . S
O66 C53 1.251 . S
H67 C50 0.930 1_556 S
H68 C61 0.929 . S
Cu69 N70 1.999 . S
Cu69 O75 1.974 . S
Cu69 N80 1.985 . S
Cu69 O89 1.959 . S
N70 Cu69 1.999 . S
N70 C72 1.263 . S
N70 C74 1.389 . S
N71 C72 1.358 . S
N71 C73 1.400 1_554 S
C72 N70 1.263 . S
C72 N71 1.358 . S
C72 H78 0.930 . S
C73 N71 1.400 1_556 S
C73 C74 1.351 1_556 S
C73 H90 0.930 . S
C74 N70 1.389 . S
C74 C73 1.351 1_554 S
C74 H79 0.930 . S
O75 Cu69 1.974 . S
O75 C85 1.282 . S
C76 O77 1.261 . S
C76 O89 1.251 . S
O77 C76 1.261 . S
H78 C72 0.930 . S
H79 C74 0.930 . S
N80 Cu69 1.985 . S
N80 C82 1.335 1_455 S
N80 C83 1.390 . S
N81 C82 1.345 . S
N81 C84 1.336 1_655 S
C82 N80 1.335 1_655 S
C82 N81 1.345 . S
C82 H87 0.930 . S
C83 N80 1.390 . S
C83 C84 1.346 . S
C83 H88 0.930 . S
C84 N81 1.336 1_455 S
C84 C83 1.346 . S
C84 H91 0.929 . S
C85 O75 1.282 . S
C85 O86 1.216 . S
O86 C85 1.216 . S
H87 C82 0.930 . S
H88 C83 0.930 . S
O89 Cu69 1.959 . S
O89 C76 1.251 . S
H90 C73 0.930 . S
H91 C84 0.929 . S
Cu92 N93 1.999 1_554 S
Cu92 O98 1.974 . S
Cu92 N103 1.985 1_545 S
Cu92 O112 1.959 1_544 S
N93 Cu92 1.999 1_556 S
N93 C95 1.263 . S
N93 C97 1.389 . S
N94 C95 1.358 . S
N94 C96 1.400 . S
C95 N93 1.263 . S
C95 N94 1.358 . S
C95 H101 0.930 . S
C96 N94 1.400 . S
C96 C97 1.351 . S
C96 H113 0.930 . S
C97 N93 1.389 . S
C97 C96 1.351 . S
C97 H102 0.930 . S
O98 Cu92 1.974 . S
O98 C108 1.282 . S
C99 O100 1.261 . S
C99 O112 1.251 . S
O100 C99 1.261 . S
H101 C95 0.930 . S
H102 C97 0.930 . S
N103 Cu92 1.985 1_565 S
N103 C105 1.335 . S
N103 C106 1.390 . S
N104 C105 1.345 . S
N104 C107 1.336 . S
C105 N103 1.335 . S
C105 N104 1.345 . S
C105 H110 0.930 . S
C106 N103 1.390 . S
C106 C107 1.346 . S
C106 H111 0.930 . S
C107 N104 1.336 . S
C107 C106 1.346 . S
C107 H114 0.929 . S
C108 O98 1.282 . S
C108 O109 1.216 . S
O109 C108 1.216 . S
H110 C105 0.930 . S
H111 C106 0.930 . S
O112 Cu92 1.959 1_566 S
O112 C99 1.251 . S
H113 C96 0.930 . S
H114 C107 0.929 . S
Cu115 N116 1.999 1_454 S
Cu115 O121 1.974 1_455 S
Cu115 N126 1.985 . S
Cu115 O135 1.959 1_554 S
N116 Cu115 1.999 1_656 S
N116 C118 1.263 . S
N116 C120 1.389 . S
N117 C118 1.358 . S
N117 C119 1.400 . S
C118 N116 1.263 . S
C118 N117 1.358 . S
C118 H124 0.930 . S
C119 N117 1.400 . S
C119 C120 1.351 . S
C119 H136 0.930 . S
C120 N116 1.389 . S
C120 C119 1.351 . S
C120 H125 0.930 1_655 S
O121 Cu115 1.974 1_655 S
O121 C131 1.282 . S
C122 O123 1.261 . S
C122 O135 1.251 . S
O123 C122 1.261 . S
H124 C118 0.930 . S
H125 C120 0.930 1_455 S
N126 Cu115 1.985 . S
N126 C128 1.335 . S
N126 C129 1.390 . S
N127 C128 1.345 . S
N127 C130 1.336 . S
C128 N126 1.335 . S
C128 N127 1.345 . S
C128 H133 0.930 . S
C129 N126 1.390 . S
C129 C130 1.346 . S
C129 H134 0.911 1_455 S
C130 N127 1.336 . S
C130 C129 1.346 . S
C130 H137 0.929 . S
C131 O121 1.282 . S
C131 O132 1.216 . S
O132 C131 1.216 . S
H133 C128 0.930 . S
H134 C129 0.911 1_655 S
O135 Cu115 1.959 1_556 S
O135 C122 1.251 . S
H136 C119 0.930 . S
H137 C130 0.929 . S
Cu138 N139 1.999 . S
Cu138 O144 1.974 . S
Cu138 N149 1.985 . S
Cu138 O158 1.959 . S
N139 Cu138 1.999 . S
N139 C141 1.263 . S
N139 C143 1.389 . S
N140 C141 1.358 . S
N140 C142 1.400 . S
C141 N139 1.263 . S
C141 N140 1.358 . S
C141 H147 0.930 . S
C142 N140 1.400 . S
C142 C143 1.351 . S
C142 H159 0.930 . S
C143 N139 1.389 . S
C143 C142 1.351 . S
C143 H148 0.930 . S
O144 Cu138 1.974 . S
O144 C154 1.282 . S
C145 O146 1.261 . S
C145 O158 1.251 . S
O146 C145 1.261 . S
H147 C141 0.930 . S
H148 C143 0.930 . S
N149 Cu138 1.985 . S
N149 C151 1.335 . S
N149 C152 1.390 . S
N150 C151 1.345 . S
N150 C153 1.336 . S
C151 N149 1.335 . S
C151 N150 1.345 . S
C151 H156 0.930 . S
C152 N149 1.390 . S
C152 C153 1.346 . S
C152 H157 0.930 . S
C153 N150 1.336 . S
C153 C152 1.346 . S
C153 H160 0.929 . S
C154 O144 1.282 . S
C154 O155 1.216 . S
O155 C154 1.216 . S
H156 C151 0.930 . S
H157 C152 0.930 . S
O158 Cu138 1.959 . S
O158 C145 1.251 . S
H159 C142 0.930 . S
H160 C153 0.929 . S
Cu161 N162 1.999 . S
Cu161 O167 1.974 . S
Cu161 N172 1.985 . S
Cu161 O181 1.959 . S
N162 Cu161 1.999 . S
N162 C164 1.263 . S
N162 C166 1.389 . S
N163 C164 1.358 . S
N163 C165 1.400 . S
C164 N162 1.263 . S
C164 N163 1.358 . S
C164 H170 0.930 . S
C165 N163 1.400 . S
C165 C166 1.351 . S
C165 H182 0.930 . S
C166 N162 1.389 . S
C166 C165 1.351 . S
C166 H171 0.930 . S
O167 Cu161 1.974 . S
O167 C177 1.282 . S
C168 O169 1.261 . S
C168 O181 1.251 . S
O169 C168 1.261 . S
H170 C164 0.930 . S
H171 C166 0.930 . S
N172 Cu161 1.985 . S
N172 C174 1.335 . S
N172 C175 1.390 . S
N173 C174 1.345 . S
N173 C176 1.336 . S
C174 N172 1.335 . S
C174 N173 1.345 . S
C174 H179 0.930 . S
C175 N172 1.390 . S
C175 C176 1.346 . S
C175 H180 0.930 . S
C176 N173 1.336 . S
C176 C175 1.346 . S
C176 H183 0.929 . S
C177 O167 1.282 . S
C177 O178 1.216 . S
O178 C177 1.216 . S
H179 C174 0.930 . S
H180 C175 0.930 . S
O181 Cu161 1.959 . S
O181 C168 1.251 . S
H182 C165 0.930 . S
H183 C176 0.929 . S
Cu184 N185 1.999 . S
Cu184 O190 1.974 . S
Cu184 N195 1.985 . S
Cu184 O204 1.959 . S
N185 Cu184 1.999 . S
N185 C187 1.263 . S
N185 C189 1.389 . S
N186 C187 1.358 . S
N186 C188 1.400 . S
C187 N185 1.263 . S
C187 N186 1.358 . S
C187 H193 0.930 . S
C188 N186 1.400 . S
C188 C189 1.351 . S
C188 H205 0.930 . S
C189 N185 1.389 . S
C189 C188 1.351 . S
C189 H194 0.930 . S
O190 Cu184 1.974 . S
O190 C200 1.282 . S
C191 O192 1.261 . S
C191 O204 1.251 . S
O192 C191 1.261 . S
H193 C187 0.930 . S
H194 C189 0.930 . S
N195 Cu184 1.985 . S
N195 C197 1.335 . S
N195 C198 1.390 . S
N196 C197 1.345 . S
N196 C199 1.336 . S
C197 N195 1.335 . S
C197 N196 1.345 . S
C197 H202 0.930 . S
C198 N195 1.390 . S
C198 C199 1.346 . S
C198 H203 0.930 . S
C199 N196 1.336 . S
C199 C198 1.346 . S
C199 H206 0.929 . S
C200 O190 1.282 . S
C200 O201 1.216 . S
O201 C200 1.216 . S
H202 C197 0.930 . S
H203 C198 0.930 . S
O204 Cu184 1.959 . S
O204 C191 1.251 . S
H205 C188 0.930 . S
H206 C199 0.929 . S
Cu207 N208 1.999 . S
Cu207 O213 1.974 . S
Cu207 N218 1.985 . S
Cu207 O227 1.959 . S
N208 Cu207 1.999 . S
N208 C210 1.263 . S
N208 C212 1.389 . S
N209 C210 1.358 . S
N209 C211 1.400 . S
C210 N208 1.263 . S
C210 N209 1.358 . S
C210 H216 0.930 . S
C211 N209 1.400 . S
C211 C212 1.351 . S
C211 H228 0.930 . S
C212 N208 1.389 . S
C212 C211 1.351 . S
C212 H217 0.930 . S
O213 Cu207 1.974 . S
O213 C223 1.282 . S
C214 O215 1.261 . S
C214 O227 1.251 . S
O215 C214 1.261 . S
H216 C210 0.930 . S
H217 C212 0.930 . S
N218 Cu207 1.985 . S
N218 C220 1.335 . S
N218 C221 1.390 . S
N219 C220 1.345 . S
N219 C222 1.336 . S
C220 N218 1.335 . S
C220 N219 1.345 . S
C220 H225 0.930 . S
C221 N218 1.390 . S
C221 C222 1.346 . S
C221 H226 0.930 . S
C222 N219 1.336 . S
C222 C221 1.346 . S
C222 H229 0.929 . S
C223 O213 1.282 . S
C223 O224 1.216 . S
O224 C223 1.216 . S
H225 C220 0.930 . S
H226 C221 0.930 . S
O227 Cu207 1.959 . S
O227 C214 1.251 . S
H228 C211 0.930 . S
H229 C222 0.929 . S
Cu230 N231 1.999 . S
Cu230 O236 1.974 . S
Cu230 N241 1.985 . S
Cu230 O250 1.959 . S
N231 Cu230 1.999 . S
N231 C233 1.263 . S
N231 C235 1.389 . S
N232 C233 1.358 . S
N232 C234 1.400 . S
C233 N231 1.263 . S
C233 N232 1.358 . S
C233 H239 0.930 . S
C234 N232 1.400 . S
C234 C235 1.351 . S
C234 H251 0.930 . S
C235 N231 1.389 . S
C235 C234 1.351 . S
C235 H240 0.930 . S
O236 Cu230 1.974 . S
O236 C246 1.282 . S
C237 O238 1.261 . S
C237 O250 1.251 . S
O238 C237 1.261 . S
H239 C233 0.930 . S
H240 C235 0.930 . S
N241 Cu230 1.985 . S
N241 C243 1.335 . S
N241 C244 1.390 . S
N242 C243 1.345 . S
N242 C245 1.336 . S
C243 N241 1.335 . S
C243 N242 1.345 . S
C243 H248 0.930 . S
C244 N241 1.390 . S
C244 C245 1.346 . S
C244 H249 0.930 . S
C245 N242 1.336 . S
C245 C244 1.346 . S
C245 H252 0.929 . S
C246 O236 1.282 . S
C246 O247 1.216 . S
O247 C246 1.216 . S
H248 C243 0.930 . S
H249 C244 0.930 . S
O250 Cu230 1.959 . S
O250 C237 1.251 . S
H251 C234 0.930 . S
H252 C245 0.929 . S
Cu253 N254 1.999 . S
Cu253 O259 1.974 . S
Cu253 N264 1.985 . S
Cu253 O273 1.959 . S
N254 Cu253 1.999 . S
N254 C256 1.263 . S
N254 C258 1.389 . S
N255 C256 1.358 . S
N255 C257 1.400 . S
C256 N254 1.263 . S
C256 N255 1.358 . S
C256 H262 0.930 . S
C257 N255 1.400 . S
C257 C258 1.351 . S
C257 H274 0.930 . S
C258 N254 1.389 . S
C258 C257 1.351 . S
C258 H263 0.930 . S
O259 Cu253 1.974 . S
O259 C269 1.282 . S
C260 O261 1.261 . S
C260 O273 1.251 . S
O261 C260 1.261 . S
H262 C256 0.930 . S
H263 C258 0.930 . S
N264 Cu253 1.985 . S
N264 C266 1.335 . S
N264 C267 1.390 . S
N265 C266 1.345 . S
N265 C268 1.336 . S
C266 N264 1.335 . S
C266 N265 1.345 . S
C266 H271 0.930 . S
C267 N264 1.390 . S
C267 C268 1.346 . S
C267 H272 0.930 . S
C268 N265 1.336 . S
C268 C267 1.346 . S
C268 H275 0.929 . S
C269 O259 1.282 . S
C269 O270 1.216 . S
O270 C269 1.216 . S
H271 C266 0.930 . S
H272 C267 0.930 . S
O273 Cu253 1.959 . S
O273 C260 1.251 . S
H274 C257 0.930 . S
H275 C268 0.929 . S
Tb276 N307 2.660 . S
Tb276 N314 2.600 . S
Tb276 O320 2.546 . S
Tb276 O321 2.610 . S
Tb276 O323 2.320 . S
Tb276 O324 2.552 . S
Tb276 O325 2.413 . S
Tb276 O327 2.362 . S
Tb276 O328 2.421 . S
Tb276 C340 2.833 . S
C277 C280 1.432 . S
C277 C281 1.414 . S
C277 N284 1.359 . S
C278 C280 1.417 . S
C278 C282 1.432 . S
C278 C290 1.410 . S
C279 C281 1.444 . S
C279 C282 1.317 . S
C279 H302 0.929 . S
C280 C277 1.432 . S
C280 C278 1.417 . S
C280 N288 1.360 . S
C281 C277 1.414 . S
C281 C279 1.444 . S
C281 C286 1.385 . S
C282 C278 1.432 . S
C282 C279 1.317 . S
C282 H294 0.930 . S
C283 C285 1.392 . S
C283 C286 1.370 . S
C283 H295 0.931 . S
N284 C277 1.359 . S
N284 C285 1.327 . S
N284 Tb287 2.600 . S
C285 C283 1.392 . S
C285 N284 1.327 . S
C285 H292 0.930 . S
C286 C281 1.385 . S
C286 C283 1.370 . S
C286 H305 0.930 . S
Tb287 N284 2.600 . S
Tb287 N288 2.660 . S
Tb287 O321 2.362 . S
Tb287 O322 2.421 . S
Tb287 O326 2.546 . S
Tb287 O327 2.610 . S
Tb287 O329 2.320 . S
Tb287 O330 2.552 . S
Tb287 O331 2.413 . S
Tb287 C351 2.833 . S
N288 C280 1.360 . S
N288 Tb287 2.660 . S
N288 C289 1.305 . S
C289 N288 1.305 . S
C289 C291 1.407 . S
C289 H296 0.930 . S
C290 C278 1.410 . S
C290 C291 1.345 . S
C290 H298 0.930 . S
C291 C289 1.407 . S
C291 C290 1.345 . S
C291 H293 0.930 . S
H292 C285 0.930 . S
H293 C291 0.930 . S
H294 C282 0.930 . S
H295 C283 0.931 . S
H296 C289 0.930 . S
H297 C311 0.930 . S
H298 C290 0.930 . S
H299 C317 0.930 . S
H300 C308 0.930 . S
H301 C315 0.931 . S
H302 C279 0.929 . S
H303 C309 0.930 . S
H304 C342 0.930 . S
H305 C286 0.930 . S
H306 C341 0.929 . S
N307 Tb276 2.660 . S
N307 C308 1.305 . S
N307 C312 1.360 . S
C308 H300 0.930 . S
C308 N307 1.305 . S
C308 C311 1.407 . S
C309 H303 0.930 . S
C309 C310 1.410 . S
C309 C311 1.345 . S
C310 C309 1.410 . S
C310 C312 1.417 . S
C310 C342 1.432 . S
C311 H297 0.930 . S
C311 C308 1.407 . S
C311 C309 1.345 . S
C312 N307 1.360 . S
C312 C310 1.417 . S
C312 C316 1.432 . S
H313 C318 0.930 . S
N314 Tb276 2.600 . S
N314 C316 1.359 . S
N314 C317 1.327 . S
C315 H301 0.931 . S
C315 C317 1.392 . S
C315 C318 1.370 . S
C316 C312 1.432 . S
C316 N314 1.359 . S
C316 C319 1.414 . S
C317 H299 0.930 . S
C317 N314 1.327 . S
C317 C315 1.392 . S
C318 H313 0.930 . S
C318 C315 1.370 . S
C318 C319 1.385 . S
C319 C316 1.414 . S
C319 C318 1.385 . S
C319 C341 1.444 . S
O320 Tb276 2.546 . S
O320 C340 1.251 . S
O321 Tb276 2.610 . S
O321 Tb287 2.362 . S
O321 C332 1.283 . S
O322 Tb287 2.421 . S
O322 C339 1.262 . S
O323 Tb276 2.320 . S
O323 C339 1.260 . S
O324 Tb276 2.552 . S
O324 C332 1.243 . S
O325 Tb276 2.413 . S
O325 C340 1.256 . S
O326 Tb287 2.546 . S
O326 C351 1.251 . S
O327 Tb276 2.362 . S
O327 Tb287 2.610 . S
O327 C343 1.283 . S
O328 Tb276 2.421 . S
O328 C350 1.262 . S
O329 Tb287 2.320 . S
O329 C350 1.260 . S
O330 Tb287 2.552 . S
O330 C343 1.243 . S
O331 Tb287 2.413 . S
O331 C351 1.256 . S
C332 O321 1.283 . S
C332 O324 1.243 . S
C333 C335 1.382 . S
C333 C337 1.393 . S
C333 C340 1.500 . S
C334 C335 1.400 . S
C334 C336 1.384 . S
C335 C333 1.382 . S
C335 C334 1.400 . S
C335 H352 0.930 . S
C336 C334 1.384 . S
C336 C338 1.392 . S
C336 H353 0.931 . S
C337 C333 1.393 . S
C337 C338 1.401 . S
C337 H354 0.930 . S
C338 C336 1.392 . S
C338 C337 1.401 . S
C338 H355 0.930 . S
C339 O322 1.262 . S
C339 O323 1.260 . S
C340 Tb276 2.833 . S
C340 O320 1.251 . S
C340 O325 1.256 . S
C340 C333 1.500 . S
C341 H306 0.929 . S
C341 C319 1.444 . S
C341 C342 1.317 . S
C342 H304 0.930 . S
C342 C310 1.432 . S
C342 C341 1.317 . S
C343 O327 1.283 . S
C343 O330 1.243 . S
C344 C345 1.382 . S
C344 C348 1.393 . S
C344 C351 1.500 . S
C345 C344 1.382 . S
C345 C346 1.400 . S
C345 H356 0.930 . S
C346 C345 1.400 . S
C346 C347 1.384 . S
C347 C346 1.384 . S
C347 C349 1.392 . S
C347 H357 0.931 . S
C348 C344 1.393 . S
C348 C349 1.401 . S
C348 H358 0.930 . S
C349 C347 1.392 . S
C349 C348 1.401 . S
C349 H359 0.930 . S
C350 O328 1.262 . S
C350 O329 1.260 . S
C351 Tb287 2.833 . S
C351 O326 1.251 . S
C351 O331 1.256 . S
C351 C344 1.500 . S
H352 C335 0.930 . S
H353 C336 0.931 . S
H354 C337 0.930 . S
H355 C338 0.930 . S
H356 C345 0.930 . S
H357 C347 0.931 . S
H358 C348 0.930 . S
H359 C349 0.930 . S
Tb360 N391 2.660 . S
Tb360 N398 2.600 . S
Tb360 O404 2.546 . S
Tb360 O405 2.610 . S
Tb360 O407 2.320 . S
Tb360 O408 2.552 . S
Tb360 O409 2.413 . S
Tb360 O411 2.362 . S
Tb360 O412 2.421 . S
Tb360 C424 2.833 . S
C361 C364 1.432 . S
C361 C365 1.414 . S
C361 N368 1.359 . S
C362 C364 1.417 . S
C362 C366 1.432 . S
C362 C374 1.410 . S
C363 C365 1.444 . S
C363 C366 1.317 . S
C363 H386 0.929 . S
C364 C361 1.432 . S
C364 C362 1.417 . S
C364 N372 1.360 . S
C365 C361 1.414 . S
C365 C363 1.444 . S
C365 C370 1.385 . S
C366 C362 1.432 . S
C366 C363 1.317 . S
C366 H378 0.930 . S
C367 C369 1.392 . S
C367 C370 1.370 . S
C367 H379 0.931 . S
N368 C361 1.359 . S
N368 C369 1.327 . S
N368 Tb371 2.600 . S
C369 C367 1.392 . S
C369 N368 1.327 . S
C369 H376 0.930 . S
C370 C365 1.385 . S
C370 C367 1.370 . S
C370 H389 0.930 . S
Tb371 N368 2.600 . S
Tb371 N372 2.660 . S
Tb371 O405 2.362 . S
Tb371 O406 2.421 . S
Tb371 O410 2.546 . S
Tb371 O411 2.610 . S
Tb371 O413 2.320 . S
Tb371 O414 2.552 . S
Tb371 O415 2.413 . S
Tb371 C435 2.833 . S
N372 C364 1.360 . S
N372 Tb371 2.660 . S
N372 C373 1.305 . S
C373 N372 1.305 . S
C373 C375 1.407 . S
C373 H380 0.930 . S
C374 C362 1.410 . S
C374 C375 1.345 . S
C374 H382 0.930 . S
C375 C373 1.407 . S
C375 C374 1.345 . S
C375 H377 0.930 . S
H376 C369 0.930 . S
H377 C375 0.930 . S
H378 C366 0.930 . S
H379 C367 0.931 . S
H380 C373 0.930 . S
H381 C395 0.930 . S
H382 C374 0.930 . S
H383 C401 0.930 . S
H384 C392 0.930 . S
H385 C399 0.931 . S
H386 C363 0.929 . S
H387 C393 0.930 . S
H388 C426 0.930 . S
H389 C370 0.930 . S
H390 C425 0.929 . S
N391 Tb360 2.660 . S
N391 C392 1.305 . S
N391 C396 1.360 . S
C392 H384 0.930 . S
C392 N391 1.305 . S
C392 C395 1.407 . S
C393 H387 0.930 . S
C393 C394 1.410 . S
C393 C395 1.345 . S
C394 C393 1.410 . S
C394 C396 1.417 . S
C394 C426 1.432 . S
C395 H381 0.930 . S
C395 C392 1.407 . S
C395 C393 1.345 . S
C396 N391 1.360 . S
C396 C394 1.417 . S
C396 C400 1.432 . S
H397 C402 0.930 . S
N398 Tb360 2.600 . S
N398 C400 1.359 . S
N398 C401 1.327 . S
C399 H385 0.931 . S
C399 C401 1.392 . S
C399 C402 1.370 . S
C400 C396 1.432 . S
C400 N398 1.359 . S
C400 C403 1.414 . S
C401 H383 0.930 . S
C401 N398 1.327 . S
C401 C399 1.392 . S
C402 H397 0.930 . S
C402 C399 1.370 . S
C402 C403 1.385 . S
C403 C400 1.414 . S
C403 C402 1.385 . S
C403 C425 1.444 . S
O404 Tb360 2.546 . S
O404 C424 1.251 . S
O405 Tb360 2.610 . S
O405 Tb371 2.362 . S
O405 C416 1.283 . S
O406 Tb371 2.421 . S
O406 C423 1.262 . S
O407 Tb360 2.320 . S
O407 C423 1.260 . S
O408 Tb360 2.552 . S
O408 C416 1.243 . S
O409 Tb360 2.413 . S
O409 C424 1.256 . S
O410 Tb371 2.546 . S
O410 C435 1.251 . S
O411 Tb360 2.362 . S
O411 Tb371 2.610 . S
O411 C427 1.283 . S
O412 Tb360 2.421 . S
O412 C434 1.262 . S
O413 Tb371 2.320 . S
O413 C434 1.260 . S
O414 Tb371 2.552 . S
O414 C427 1.243 . S
O415 Tb371 2.413 . S
O415 C435 1.256 . S
C416 O405 1.283 . S
C416 O408 1.243 . S
C417 C419 1.382 . S
C417 C421 1.393 . S
C417 C424 1.500 . S
C418 C419 1.400 . S
C418 C420 1.384 . S
C419 C417 1.382 . S
C419 C418 1.400 . S
C419 H436 0.930 . S
C420 C418 1.384 . S
C420 C422 1.392 . S
C420 H437 0.931 . S
C421 C417 1.393 . S
C421 C422 1.401 . S
C421 H438 0.930 . S
C422 C420 1.392 . S
C422 C421 1.401 . S
C422 H439 0.930 . S
C423 O406 1.262 . S
C423 O407 1.260 . S
C424 Tb360 2.833 . S
C424 O404 1.251 . S
C424 O409 1.256 . S
C424 C417 1.500 . S
C425 H390 0.929 . S
C425 C403 1.444 . S
C425 C426 1.317 . S
C426 H388 0.930 . S
C426 C394 1.432 . S
C426 C425 1.317 . S
C427 O411 1.283 . S
C427 O414 1.243 . S
C428 C429 1.382 . S
C428 C432 1.393 . S
C428 C435 1.500 . S
C429 C428 1.382 . S
C429 C430 1.400 . S
C429 H440 0.930 . S
C430 C429 1.400 . S
C430 C431 1.384 . S
C431 C430 1.384 . S
C431 C433 1.392 . S
C431 H441 0.931 . S
C432 C428 1.393 . S
C432 C433 1.401 . S
C432 H442 0.930 . S
C433 C431 1.392 . S
C433 C432 1.401 . S
C433 H443 0.930 . S
C434 O412 1.262 . S
C434 O413 1.260 . S
C435 Tb371 2.833 . S
C435 O410 1.251 . S
C435 O415 1.256 . S
C435 C428 1.500 . S
H436 C419 0.930 . S
H437 C420 0.931 . S
H438 C421 0.930 . S
H439 C422 0.930 . S
H440 C429 0.930 . S
H441 C431 0.931 . S
H442 C432 0.930 . S
H443 C433 0.930 . S
Tb444 N475 2.660 . S
Tb444 N482 2.600 . S
Tb444 O488 2.546 . S
Tb444 O489 2.610 . S
Tb444 O491 2.320 . S
Tb444 O492 2.552 . S
Tb444 O493 2.413 . S
Tb444 O495 2.362 . S
Tb444 O496 2.421 . S
Tb444 C508 2.833 . S
C445 C448 1.432 . S
C445 C449 1.414 . S
C445 N452 1.359 . S
C446 C448 1.417 . S
C446 C450 1.432 . S
C446 C458 1.410 . S
C447 C449 1.444 . S
C447 C450 1.317 . S
C447 H470 0.929 . S
C448 C445 1.432 . S
C448 C446 1.417 . S
C448 N456 1.360 . S
C449 C445 1.414 . S
C449 C447 1.444 . S
C449 C454 1.385 . S
C450 C446 1.432 . S
C450 C447 1.317 . S
C450 H462 0.930 . S
C451 C453 1.392 . S
C451 C454 1.370 . S
C451 H463 0.931 . S
N452 C445 1.359 . S
N452 C453 1.327 . S
N452 Tb455 2.600 . S
C453 C451 1.392 . S
C453 N452 1.327 . S
C453 H460 0.930 . S
C454 C449 1.385 . S
C454 C451 1.370 . S
C454 H473 0.930 . S
Tb455 N452 2.600 . S
Tb455 N456 2.660 . S
Tb455 O489 2.362 . S
Tb455 O490 2.421 . S
Tb455 O494 2.546 . S
Tb455 O495 2.610 . S
Tb455 O497 2.320 . S
Tb455 O498 2.552 . S
Tb455 O499 2.413 . S
Tb455 C519 2.833 . S
N456 C448 1.360 . S
N456 Tb455 2.660 . S
N456 C457 1.305 . S
C457 N456 1.305 . S
C457 C459 1.407 . S
C457 H464 0.930 . S
C458 C446 1.410 . S
C458 C459 1.345 . S
C458 H466 0.930 . S
C459 C457 1.407 . S
C459 C458 1.345 . S
C459 H461 0.930 . S
H460 C453 0.930 . S
H461 C459 0.930 . S
H462 C450 0.930 . S
H463 C451 0.931 . S
H464 C457 0.930 . S
H465 C479 0.930 . S
H466 C458 0.930 . S
H467 C485 0.930 . S
H468 C476 0.930 . S
H469 C483 0.931 . S
H470 C447 0.929 . S
H471 C477 0.930 . S
H472 C510 0.930 . S
H473 C454 0.930 . S
H474 C509 0.929 . S
N475 Tb444 2.660 . S
N475 C476 1.305 . S
N475 C480 1.360 . S
C476 H468 0.930 . S
C476 N475 1.305 . S
C476 C479 1.407 . S
C477 H471 0.930 . S
C477 C478 1.410 . S
C477 C479 1.345 . S
C478 C477 1.410 . S
C478 C480 1.417 . S
C478 C510 1.432 . S
C479 H465 0.930 . S
C479 C476 1.407 . S
C479 C477 1.345 . S
C480 N475 1.360 . S
C480 C478 1.417 . S
C480 C484 1.432 . S
H481 C486 0.930 . S
N482 Tb444 2.600 . S
N482 C484 1.359 . S
N482 C485 1.327 . S
C483 H469 0.931 . S
C483 C485 1.392 . S
C483 C486 1.370 . S
C484 C480 1.432 . S
C484 N482 1.359 . S
C484 C487 1.414 . S
C485 H467 0.930 . S
C485 N482 1.327 . S
C485 C483 1.392 . S
C486 H481 0.930 . S
C486 C483 1.370 . S
C486 C487 1.385 . S
C487 C484 1.414 . S
C487 C486 1.385 . S
C487 C509 1.444 . S
O488 Tb444 2.546 . S
O488 C508 1.251 . S
O489 Tb444 2.610 . S
O489 Tb455 2.362 . S
O489 C500 1.283 . S
O490 Tb455 2.421 . S
O490 C507 1.262 . S
O491 Tb444 2.320 . S
O491 C507 1.260 . S
O492 Tb444 2.552 . S
O492 C500 1.243 . S
O493 Tb444 2.413 . S
O493 C508 1.256 . S
O494 Tb455 2.546 . S
O494 C519 1.251 . S
O495 Tb444 2.362 . S
O495 Tb455 2.610 . S
O495 C511 1.283 . S
O496 Tb444 2.421 . S
O496 C518 1.262 . S
O497 Tb455 2.320 . S
O497 C518 1.260 . S
O498 Tb455 2.552 . S
O498 C511 1.243 . S
O499 Tb455 2.413 . S
O499 C519 1.256 . S
C500 O489 1.283 . S
C500 O492 1.243 . S
C501 C503 1.382 . S
C501 C505 1.393 . S
C501 C508 1.500 . S
C502 C503 1.400 . S
C502 C504 1.384 . S
C503 C501 1.382 . S
C503 C502 1.400 . S
C503 H520 0.930 . S
C504 C502 1.384 . S
C504 C506 1.392 . S
C504 H521 0.931 . S
C505 C501 1.393 . S
C505 C506 1.401 . S
C505 H522 0.930 . S
C506 C504 1.392 . S
C506 C505 1.401 . S
C506 H523 0.930 . S
C507 O490 1.262 . S
C507 O491 1.260 . S
C508 Tb444 2.833 . S
C508 O488 1.251 . S
C508 O493 1.256 . S
C508 C501 1.500 . S
C509 H474 0.929 . S
C509 C487 1.444 . S
C509 C510 1.317 . S
C510 H472 0.930 . S
C510 C478 1.432 . S
C510 C509 1.317 . S
C511 O495 1.283 . S
C511 O498 1.243 . S
C512 C513 1.382 . S
C512 C516 1.393 . S
C512 C519 1.500 . S
C513 C512 1.382 . S
C513 C514 1.400 . S
C513 H524 0.930 . S
C514 C513 1.400 . S
C514 C515 1.384 . S
C515 C514 1.384 . S
C515 C517 1.392 . S
C515 H525 0.931 . S
C516 C512 1.393 . S
C516 C517 1.401 . S
C516 H526 0.930 . S
C517 C515 1.392 . S
C517 C516 1.401 . S
C517 H527 0.930 . S
C518 O496 1.262 . S
C518 O497 1.260 . S
C519 Tb455 2.833 . S
C519 O494 1.251 . S
C519 O499 1.256 . S
C519 C512 1.500 . S
H520 C503 0.930 . S
H521 C504 0.931 . S
H522 C505 0.930 . S
H523 C506 0.930 . S
H524 C513 0.930 . S
H525 C515 0.931 . S
H526 C516 0.930 . S
H527 C517 0.930 . S
Tb528 N559 2.660 . S
Tb528 N566 2.600 . S
Tb528 O572 2.546 . S
Tb528 O573 2.610 . S
Tb528 O575 2.320 . S
Tb528 O576 2.552 . S
Tb528 O577 2.413 . S
Tb528 O579 2.362 . S
Tb528 O580 2.421 . S
Tb528 C592 2.833 . S
C529 C532 1.432 . S
C529 C533 1.414 . S
C529 N536 1.359 . S
C530 C532 1.417 . S
C530 C534 1.432 . S
C530 C542 1.410 . S
C531 C533 1.444 . S
C531 C534 1.317 . S
C531 H554 0.929 . S
C532 C529 1.432 . S
C532 C530 1.417 . S
C532 N540 1.360 . S
C533 C529 1.414 . S
C533 C531 1.444 . S
C533 C538 1.385 . S
C534 C530 1.432 . S
C534 C531 1.317 . S
C534 H546 0.930 . S
C535 C537 1.392 . S
C535 C538 1.370 . S
C535 H547 0.931 . S
N536 C529 1.359 . S
N536 C537 1.327 . S
N536 Tb539 2.600 . S
C537 C535 1.392 . S
C537 N536 1.327 . S
C537 H544 0.930 . S
C538 C533 1.385 . S
C538 C535 1.370 . S
C538 H557 0.930 . S
Tb539 N536 2.600 . S
Tb539 N540 2.660 . S
Tb539 O573 2.362 . S
Tb539 O574 2.421 . S
Tb539 O578 2.546 . S
Tb539 O579 2.610 . S
Tb539 O581 2.320 . S
Tb539 O582 2.552 . S
Tb539 O583 2.413 . S
Tb539 C603 2.833 . S
N540 C532 1.360 . S
N540 Tb539 2.660 . S
N540 C541 1.305 . S
C541 N540 1.305 . S
C541 C543 1.407 . S
C541 H548 0.930 . S
C542 C530 1.410 . S
C542 C543 1.345 . S
C542 H550 0.930 . S
C543 C541 1.407 . S
C543 C542 1.345 . S
C543 H545 0.930 . S
H544 C537 0.930 . S
H545 C543 0.930 . S
H546 C534 0.930 . S
H547 C535 0.931 . S
H548 C541 0.930 . S
H549 C563 0.930 . S
H550 C542 0.930 . S
H551 C569 0.930 . S
H552 C560 0.930 . S
H553 C567 0.931 . S
H554 C531 0.929 . S
H555 C561 0.930 . S
H556 C594 0.930 . S
H557 C538 0.930 . S
H558 C593 0.929 . S
N559 Tb528 2.660 . S
N559 C560 1.305 . S
N559 C564 1.360 . S
C560 H552 0.930 . S
C560 N559 1.305 . S
C560 C563 1.407 . S
C561 H555 0.930 . S
C561 C562 1.410 . S
C561 C563 1.345 . S
C562 C561 1.410 . S
C562 C564 1.417 . S
C562 C594 1.432 . S
C563 H549 0.930 . S
C563 C560 1.407 . S
C563 C561 1.345 . S
C564 N559 1.360 . S
C564 C562 1.417 . S
C564 C568 1.432 . S
H565 C570 0.930 . S
N566 Tb528 2.600 . S
N566 C568 1.359 . S
N566 C569 1.327 . S
C567 H553 0.931 . S
C567 C569 1.392 . S
C567 C570 1.370 . S
C568 C564 1.432 . S
C568 N566 1.359 . S
C568 C571 1.414 . S
C569 H551 0.930 . S
C569 N566 1.327 . S
C569 C567 1.392 . S
C570 H565 0.930 . S
C570 C567 1.370 . S
C570 C571 1.385 . S
C571 C568 1.414 . S
C571 C570 1.385 . S
C571 C593 1.444 . S
O572 Tb528 2.546 . S
O572 C592 1.251 . S
O573 Tb528 2.610 . S
O573 Tb539 2.362 . S
O573 C584 1.283 . S
O574 Tb539 2.421 . S
O574 C591 1.262 . S
O575 Tb528 2.320 . S
O575 C591 1.260 . S
O576 Tb528 2.552 . S
O576 C584 1.243 . S
O577 Tb528 2.413 . S
O577 C592 1.256 . S
O578 Tb539 2.546 . S
O578 C603 1.251 . S
O579 Tb528 2.362 . S
O579 Tb539 2.610 . S
O579 C595 1.283 . S
O580 Tb528 2.421 . S
O580 C602 1.262 . S
O581 Tb539 2.320 . S
O581 C602 1.260 . S
O582 Tb539 2.552 . S
O582 C595 1.243 . S
O583 Tb539 2.413 . S
O583 C603 1.256 . S
C584 O573 1.283 . S
C584 O576 1.243 . S
C585 C587 1.382 . S
C585 C589 1.393 . S
C585 C592 1.500 . S
C586 C587 1.400 . S
C586 C588 1.384 . S
C587 C585 1.382 . S
C587 C586 1.400 . S
C587 H604 0.930 . S
C588 C586 1.384 . S
C588 C590 1.392 . S
C588 H605 0.931 . S
C589 C585 1.393 . S
C589 C590 1.401 . S
C589 H606 0.930 . S
C590 C588 1.392 . S
C590 C589 1.401 . S
C590 H607 0.930 . S
C591 O574 1.262 . S
C591 O575 1.260 . S
C592 Tb528 2.833 . S
C592 O572 1.251 . S
C592 O577 1.256 . S
C592 C585 1.500 . S
C593 H558 0.929 . S
C593 C571 1.444 . S
C593 C594 1.317 . S
C594 H556 0.930 . S
C594 C562 1.432 . S
C594 C593 1.317 . S
C595 O579 1.283 . S
C595 O582 1.243 . S
C596 C597 1.382 . S
C596 C600 1.393 . S
C596 C603 1.500 . S
C597 C596 1.382 . S
C597 C598 1.400 . S
C597 H608 0.930 . S
C598 C597 1.400 . S
C598 C599 1.384 . S
C599 C598 1.384 . S
C599 C601 1.392 . S
C599 H609 0.931 . S
C600 C596 1.393 . S
C600 C601 1.401 . S
C600 H610 0.930 . S
C601 C599 1.392 . S
C601 C600 1.401 . S
C601 H611 0.930 . S
C602 O580 1.262 . S
C602 O581 1.260 . S
C603 Tb539 2.833 . S
C603 O578 1.251 . S
C603 O583 1.256 . S
C603 C596 1.500 . S
H604 C587 0.930 . S
H605 C588 0.931 . S
H606 C589 0.930 . S
H607 C590 0.930 . S
H608 C597 0.930 . S
H609 C599 0.931 . S
H610 C600 0.930 . S
H611 C601 0.930 . S
Tb612 N643 2.660 . S
Tb612 N650 2.600 . S
Tb612 O656 2.546 . S
Tb612 O657 2.610 . S
Tb612 O659 2.320 . S
Tb612 O660 2.552 . S
Tb612 O661 2.413 . S
Tb612 O663 2.362 . S
Tb612 O664 2.421 . S
Tb612 C676 2.833 . S
C613 C616 1.432 . S
C613 C617 1.414 . S
C613 N620 1.359 . S
C614 C616 1.417 . S
C614 C618 1.432 . S
C614 C626 1.410 . S
C615 C617 1.444 . S
C615 C618 1.317 . S
C615 H638 0.929 . S
C616 C613 1.432 . S
C616 C614 1.417 . S
C616 N624 1.360 . S
C617 C613 1.414 . S
C617 C615 1.444 . S
C617 C622 1.385 . S
C618 C614 1.432 . S
C618 C615 1.317 . S
C618 H630 0.930 . S
C619 C621 1.392 . S
C619 C622 1.370 . S
C619 H631 0.931 . S
N620 C613 1.359 . S
N620 C621 1.327 . S
N620 Tb623 2.600 . S
C621 C619 1.392 . S
C621 N620 1.327 . S
C621 H628 0.930 . S
C622 C617 1.385 . S
C622 C619 1.370 . S
C622 H641 0.930 . S
Tb623 N620 2.600 . S
Tb623 N624 2.660 . S
Tb623 O657 2.362 . S
Tb623 O658 2.421 . S
Tb623 O662 2.546 . S
Tb623 O663 2.610 . S
Tb623 O665 2.320 . S
Tb623 O666 2.552 . S
Tb623 O667 2.413 . S
Tb623 C687 2.833 . S
N624 C616 1.360 . S
N624 Tb623 2.660 . S
N624 C625 1.305 . S
C625 N624 1.305 . S
C625 C627 1.407 . S
C625 H632 0.930 . S
C626 C614 1.410 . S
C626 C627 1.345 . S
C626 H634 0.930 . S
C627 C625 1.407 . S
C627 C626 1.345 . S
C627 H629 0.930 . S
H628 C621 0.930 . S
H629 C627 0.930 . S
H630 C618 0.930 . S
H631 C619 0.931 . S
H632 C625 0.930 . S
H633 C647 0.930 . S
H634 C626 0.930 . S
H635 C653 0.930 . S
H636 C644 0.930 . S
H637 C651 0.931 . S
H638 C615 0.929 . S
H639 C645 0.930 . S
H640 C678 0.930 . S
H641 C622 0.930 . S
H642 C677 0.929 . S
N643 Tb612 2.660 . S
N643 C644 1.305 . S
N643 C648 1.360 . S
C644 H636 0.930 . S
C644 N643 1.305 . S
C644 C647 1.407 . S
C645 H639 0.930 . S
C645 C646 1.410 . S
C645 C647 1.345 . S
C646 C645 1.410 . S
C646 C648 1.417 . S
C646 C678 1.432 . S
C647 H633 0.930 . S
C647 C644 1.407 . S
C647 C645 1.345 . S
C648 N643 1.360 . S
C648 C646 1.417 . S
C648 C652 1.432 . S
H649 C654 0.930 . S
N650 Tb612 2.600 . S
N650 C652 1.359 . S
N650 C653 1.327 . S
C651 H637 0.931 . S
C651 C653 1.392 . S
C651 C654 1.370 . S
C652 C648 1.432 . S
C652 N650 1.359 . S
C652 C655 1.414 . S
C653 H635 0.930 . S
C653 N650 1.327 . S
C653 C651 1.392 . S
C654 H649 0.930 . S
C654 C651 1.370 . S
C654 C655 1.385 . S
C655 C652 1.414 . S
C655 C654 1.385 . S
C655 C677 1.444 . S
O656 Tb612 2.546 . S
O656 C676 1.251 . S
O657 Tb612 2.610 . S
O657 Tb623 2.362 . S
O657 C668 1.283 . S
O658 Tb623 2.421 . S
O658 C675 1.262 . S
O659 Tb612 2.320 . S
O659 C675 1.260 . S
O660 Tb612 2.552 . S
O660 C668 1.243 . S
O661 Tb612 2.413 . S
O661 C676 1.256 . S
O662 Tb623 2.546 . S
O662 C687 1.251 . S
O663 Tb612 2.362 . S
O663 Tb623 2.610 . S
O663 C679 1.283 . S
O664 Tb612 2.421 . S
O664 C686 1.262 . S
O665 Tb623 2.320 . S
O665 C686 1.260 . S
O666 Tb623 2.552 . S
O666 C679 1.243 . S
O667 Tb623 2.413 . S
O667 C687 1.256 . S
C668 O657 1.283 . S
C668 O660 1.243 . S
C669 C671 1.382 . S
C669 C673 1.393 . S
C669 C676 1.500 . S
C670 C671 1.400 . S
C670 C672 1.384 . S
C671 C669 1.382 . S
C671 C670 1.400 . S
C671 H688 0.930 . S
C672 C670 1.384 . S
C672 C674 1.392 . S
C672 H689 0.931 . S
C673 C669 1.393 . S
C673 C674 1.401 . S
C673 H690 0.930 . S
C674 C672 1.392 . S
C674 C673 1.401 . S
C674 H691 0.930 . S
C675 O658 1.262 . S
C675 O659 1.260 . S
C676 Tb612 2.833 . S
C676 O656 1.251 . S
C676 O661 1.256 . S
C676 C669 1.500 . S
C677 H642 0.929 . S
C677 C655 1.444 . S
C677 C678 1.317 . S
C678 H640 0.930 . S
C678 C646 1.432 . S
C678 C677 1.317 . S
C679 O663 1.283 . S
C679 O666 1.243 . S
C680 C681 1.382 . S
C680 C684 1.393 . S
C680 C687 1.500 . S
C681 C680 1.382 . S
C681 C682 1.400 . S
C681 H692 0.930 . S
C682 C681 1.400 . S
C682 C683 1.384 . S
C683 C682 1.384 . S
C683 C685 1.392 . S
C683 H693 0.931 . S
C684 C680 1.393 . S
C684 C685 1.401 . S
C684 H694 0.930 . S
C685 C683 1.392 . S
C685 C684 1.401 . S
C685 H695 0.930 . S
C686 O664 1.262 . S
C686 O665 1.260 . S
C687 Tb623 2.833 . S
C687 O662 1.251 . S
C687 O667 1.256 . S
C687 C680 1.500 . S
H688 C671 0.930 . S
H689 C672 0.931 . S
H690 C673 0.930 . S
H691 C674 0.930 . S
H692 C681 0.930 . S
H693 C683 0.931 . S
H694 C684 0.930 . S
H695 C685 0.930 . S
Tb696 N727 2.660 . S
Tb696 N734 2.600 . S
Tb696 O740 2.546 . S
Tb696 O741 2.610 . S
Tb696 O743 2.320 . S
Tb696 O744 2.552 . S
Tb696 O745 2.413 . S
Tb696 O747 2.362 . S
Tb696 O748 2.421 . S
Tb696 C760 2.833 . S
C697 C700 1.432 . S
C697 C701 1.414 . S
C697 N704 1.359 . S
C698 C700 1.417 . S
C698 C702 1.432 . S
C698 C710 1.410 . S
C699 C701 1.444 . S
C699 C702 1.317 . S
C699 H722 0.929 . S
C700 C697 1.432 . S
C700 C698 1.417 . S
C700 N708 1.360 . S
C701 C697 1.414 . S
C701 C699 1.444 . S
C701 C706 1.385 . S
C702 C698 1.432 . S
C702 C699 1.317 . S
C702 H714 0.930 . S
C703 C705 1.392 . S
C703 C706 1.370 . S
C703 H715 0.931 . S
N704 C697 1.359 . S
N704 C705 1.327 . S
N704 Tb707 2.600 . S
C705 C703 1.392 . S
C705 N704 1.327 . S
C705 H712 0.930 . S
C706 C701 1.385 . S
C706 C703 1.370 . S
C706 H725 0.930 . S
Tb707 N704 2.600 . S
Tb707 N708 2.660 . S
Tb707 O741 2.362 . S
Tb707 O742 2.421 . S
Tb707 O746 2.546 . S
Tb707 O747 2.610 . S
Tb707 O749 2.320 . S
Tb707 O750 2.552 . S
Tb707 O751 2.413 . S
Tb707 C771 2.833 . S
N708 C700 1.360 . S
N708 Tb707 2.660 . S
N708 C709 1.305 . S
C709 N708 1.305 . S
C709 C711 1.407 . S
C709 H716 0.930 . S
C710 C698 1.410 . S
C710 C711 1.345 . S
C710 H718 0.930 . S
C711 C709 1.407 . S
C711 C710 1.345 . S
C711 H713 0.930 . S
H712 C705 0.930 . S
H713 C711 0.930 . S
H714 C702 0.930 . S
H715 C703 0.931 . S
H716 C709 0.930 . S
H717 C731 0.930 . S
H718 C710 0.930 . S
H719 C737 0.930 . S
H720 C728 0.930 . S
H721 C735 0.931 . S
H722 C699 0.929 . S
H723 C729 0.930 . S
H724 C762 0.930 . S
H725 C706 0.930 . S
H726 C761 0.929 . S
N727 Tb696 2.660 . S
N727 C728 1.305 . S
N727 C732 1.360 . S
C728 H720 0.930 . S
C728 N727 1.305 . S
C728 C731 1.407 . S
C729 H723 0.930 . S
C729 C730 1.410 . S
C729 C731 1.345 . S
C730 C729 1.410 . S
C730 C732 1.417 . S
C730 C762 1.432 . S
C731 H717 0.930 . S
C731 C728 1.407 . S
C731 C729 1.345 . S
C732 N727 1.360 . S
C732 C730 1.417 . S
C732 C736 1.432 . S
H733 C738 0.930 . S
N734 Tb696 2.600 . S
N734 C736 1.359 . S
N734 C737 1.327 . S
C735 H721 0.931 . S
C735 C737 1.392 . S
C735 C738 1.370 . S
C736 C732 1.432 . S
C736 N734 1.359 . S
C736 C739 1.414 . S
C737 H719 0.930 . S
C737 N734 1.327 . S
C737 C735 1.392 . S
C738 H733 0.930 . S
C738 C735 1.370 . S
C738 C739 1.385 . S
C739 C736 1.414 . S
C739 C738 1.385 . S
C739 C761 1.444 . S
O740 Tb696 2.546 . S
O740 C760 1.251 . S
O741 Tb696 2.610 . S
O741 Tb707 2.362 . S
O741 C752 1.283 . S
O742 Tb707 2.421 . S
O742 C759 1.262 . S
O743 Tb696 2.320 . S
O743 C759 1.260 . S
O744 Tb696 2.552 . S
O744 C752 1.243 . S
O745 Tb696 2.413 . S
O745 C760 1.256 . S
O746 Tb707 2.546 . S
O746 C771 1.251 . S
O747 Tb696 2.362 . S
O747 Tb707 2.610 . S
O747 C763 1.283 . S
O748 Tb696 2.421 . S
O748 C770 1.262 . S
O749 Tb707 2.320 . S
O749 C770 1.260 . S
O750 Tb707 2.552 . S
O750 C763 1.243 . S
O751 Tb707 2.413 . S
O751 C771 1.256 . S
C752 O741 1.283 . S
C752 O744 1.243 . S
C753 C755 1.382 . S
C753 C757 1.393 . S
C753 C760 1.500 . S
C754 C755 1.400 . S
C754 C756 1.384 . S
C755 C753 1.382 . S
C755 C754 1.400 . S
C755 H772 0.930 . S
C756 C754 1.384 . S
C756 C758 1.392 . S
C756 H773 0.931 . S
C757 C753 1.393 . S
C757 C758 1.401 . S
C757 H774 0.930 . S
C758 C756 1.392 . S
C758 C757 1.401 . S
C758 H775 0.930 . S
C759 O742 1.262 . S
C759 O743 1.260 . S
C760 Tb696 2.833 . S
C760 O740 1.251 . S
C760 O745 1.256 . S
C760 C753 1.500 . S
C761 H726 0.929 . S
C761 C739 1.444 . S
C761 C762 1.317 . S
C762 H724 0.930 . S
C762 C730 1.432 . S
C762 C761 1.317 . S
C763 O747 1.283 . S
C763 O750 1.243 . S
C764 C765 1.382 . S
C764 C768 1.393 . S
C764 C771 1.500 . S
C765 C764 1.382 . S
C765 C766 1.400 . S
C765 H776 0.930 . S
C766 C765 1.400 . S
C766 C767 1.384 . S
C767 C766 1.384 . S
C767 C769 1.392 . S
C767 H777 0.931 . S
C768 C764 1.393 . S
C768 C769 1.401 . S
C768 H778 0.930 . S
C769 C767 1.392 . S
C769 C768 1.401 . S
C769 H779 0.930 . S
C770 O748 1.262 . S
C770 O749 1.260 . S
C771 Tb707 2.833 . S
C771 O746 1.251 . S
C771 O751 1.256 . S
C771 C764 1.500 . S
H772 C755 0.930 . S
H773 C756 0.931 . S
H774 C757 0.930 . S
H775 C758 0.930 . S
H776 C765 0.930 . S
H777 C767 0.931 . S
H778 C768 0.930 . S
H779 C769 0.930 . S
Tb780 N811 2.660 . S
Tb780 N818 2.600 . S
Tb780 O824 2.546 . S
Tb780 O825 2.610 . S
Tb780 O827 2.320 . S
Tb780 O828 2.552 . S
Tb780 O829 2.413 . S
Tb780 O831 2.362 . S
Tb780 O832 2.421 . S
Tb780 C844 2.833 . S
C781 C784 1.432 . S
C781 C785 1.414 . S
C781 N788 1.359 . S
C782 C784 1.417 . S
C782 C786 1.432 . S
C782 C794 1.410 . S
C783 C785 1.444 . S
C783 C786 1.317 . S
C783 H806 0.929 . S
C784 C781 1.432 . S
C784 C782 1.417 . S
C784 N792 1.360 . S
C785 C781 1.414 . S
C785 C783 1.444 . S
C785 C790 1.385 . S
C786 C782 1.432 . S
C786 C783 1.317 . S
C786 H798 0.930 . S
C787 C789 1.392 . S
C787 C790 1.370 . S
C787 H799 0.931 . S
N788 C781 1.359 . S
N788 C789 1.327 . S
N788 Tb791 2.600 . S
C789 C787 1.392 . S
C789 N788 1.327 . S
C789 H796 0.930 . S
C790 C785 1.385 . S
C790 C787 1.370 . S
C790 H809 0.930 . S
Tb791 N788 2.600 . S
Tb791 N792 2.660 . S
Tb791 O825 2.362 . S
Tb791 O826 2.421 . S
Tb791 O830 2.546 . S
Tb791 O831 2.610 . S
Tb791 O833 2.320 . S
Tb791 O834 2.552 . S
Tb791 O835 2.413 . S
Tb791 C855 2.833 . S
N792 C784 1.360 . S
N792 Tb791 2.660 . S
N792 C793 1.305 . S
C793 N792 1.305 . S
C793 C795 1.407 . S
C793 H800 0.930 . S
C794 C782 1.410 . S
C794 C795 1.345 . S
C794 H802 0.930 . S
C795 C793 1.407 . S
C795 C794 1.345 . S
C795 H797 0.930 . S
H796 C789 0.930 . S
H797 C795 0.930 . S
H798 C786 0.930 . S
H799 C787 0.931 . S
H800 C793 0.930 . S
H801 C815 0.930 . S
H802 C794 0.930 . S
H803 C821 0.930 . S
H804 C812 0.930 . S
H805 C819 0.931 . S
H806 C783 0.929 . S
H807 C813 0.930 . S
H808 C846 0.930 . S
H809 C790 0.930 . S
H810 C845 0.929 . S
N811 Tb780 2.660 . S
N811 C812 1.305 . S
N811 C816 1.360 . S
C812 H804 0.930 . S
C812 N811 1.305 . S
C812 C815 1.407 . S
C813 H807 0.930 . S
C813 C814 1.410 . S
C813 C815 1.345 . S
C814 C813 1.410 . S
C814 C816 1.417 . S
C814 C846 1.432 . S
C815 H801 0.930 . S
C815 C812 1.407 . S
C815 C813 1.345 . S
C816 N811 1.360 . S
C816 C814 1.417 . S
C816 C820 1.432 . S
H817 C822 0.930 . S
N818 Tb780 2.600 . S
N818 C820 1.359 . S
N818 C821 1.327 . S
C819 H805 0.931 . S
C819 C821 1.392 . S
C819 C822 1.370 . S
C820 C816 1.432 . S
C820 N818 1.359 . S
C820 C823 1.414 . S
C821 H803 0.930 . S
C821 N818 1.327 . S
C821 C819 1.392 . S
C822 H817 0.930 . S
C822 C819 1.370 . S
C822 C823 1.385 . S
C823 C820 1.414 . S
C823 C822 1.385 . S
C823 C845 1.444 . S
O824 Tb780 2.546 . S
O824 C844 1.251 . S
O825 Tb780 2.610 . S
O825 Tb791 2.362 . S
O825 C836 1.283 . S
O826 Tb791 2.421 . S
O826 C843 1.262 . S
O827 Tb780 2.320 . S
O827 C843 1.260 . S
O828 Tb780 2.552 . S
O828 C836 1.243 . S
O829 Tb780 2.413 . S
O829 C844 1.256 . S
O830 Tb791 2.546 . S
O830 C855 1.251 . S
O831 Tb780 2.362 . S
O831 Tb791 2.610 . S
O831 C847 1.283 . S
O832 Tb780 2.421 . S
O832 C854 1.262 . S
O833 Tb791 2.320 . S
O833 C854 1.260 . S
O834 Tb791 2.552 . S
O834 C847 1.243 . S
O835 Tb791 2.413 . S
O835 C855 1.256 . S
C836 O825 1.283 . S
C836 O828 1.243 . S
C837 C839 1.382 . S
C837 C841 1.393 . S
C837 C844 1.500 . S
C838 C839 1.400 . S
C838 C840 1.384 . S
C839 C837 1.382 . S
C839 C838 1.400 . S
C839 H856 0.930 . S
C840 C838 1.384 . S
C840 C842 1.392 . S
C840 H857 0.931 . S
C841 C837 1.393 . S
C841 C842 1.401 . S
C841 H858 0.930 . S
C842 C840 1.392 . S
C842 C841 1.401 . S
C842 H859 0.930 . S
C843 O826 1.262 . S
C843 O827 1.260 . S
C844 Tb780 2.833 . S
C844 O824 1.251 . S
C844 O829 1.256 . S
C844 C837 1.500 . S
C845 H810 0.929 . S
C845 C823 1.444 . S
C845 C846 1.317 . S
C846 H808 0.930 . S
C846 C814 1.432 . S
C846 C845 1.317 . S
C847 O831 1.283 . S
C847 O834 1.243 . S
C848 C849 1.382 . S
C848 C852 1.393 . S
C848 C855 1.500 . S
C849 C848 1.382 . S
C849 C850 1.400 . S
C849 H860 0.930 . S
C850 C849 1.400 . S
C850 C851 1.384 . S
C851 C850 1.384 . S
C851 C853 1.392 . S
C851 H861 0.931 . S
C852 C848 1.393 . S
C852 C853 1.401 . S
C852 H862 0.930 . S
C853 C851 1.392 . S
C853 C852 1.401 . S
C853 H863 0.930 . S
C854 O832 1.262 . S
C854 O833 1.260 . S
C855 Tb791 2.833 . S
C855 O830 1.251 . S
C855 O835 1.256 . S
C855 C848 1.500 . S
H856 C839 0.930 . S
H857 C840 0.931 . S
H858 C841 0.930 . S
H859 C842 0.930 . S
H860 C849 0.930 . S
H861 C851 0.931 . S
H862 C852 0.930 . S
H863 C853 0.930 . S
Tb864 N895 2.660 . S
Tb864 N902 2.600 . S
Tb864 O908 2.546 . S
Tb864 O909 2.610 . S
Tb864 O911 2.320 . S
Tb864 O912 2.552 . S
Tb864 O913 2.413 . S
Tb864 O915 2.362 . S
Tb864 O916 2.421 . S
Tb864 C928 2.833 . S
C865 C868 1.432 . S
C865 C869 1.414 . S
C865 N872 1.359 . S
C866 C868 1.417 . S
C866 C870 1.432 . S
C866 C878 1.410 . S
C867 C869 1.444 . S
C867 C870 1.317 . S
C867 H890 0.929 . S
C868 C865 1.432 . S
C868 C866 1.417 . S
C868 N876 1.360 . S
C869 C865 1.414 . S
C869 C867 1.444 . S
C869 C874 1.385 . S
C870 C866 1.432 . S
C870 C867 1.317 . S
C870 H882 0.930 . S
C871 C873 1.392 . S
C871 C874 1.370 . S
C871 H883 0.931 . S
N872 C865 1.359 . S
N872 C873 1.327 . S
N872 Tb875 2.600 . S
C873 C871 1.392 . S
C873 N872 1.327 . S
C873 H880 0.930 . S
C874 C869 1.385 . S
C874 C871 1.370 . S
C874 H893 0.930 . S
Tb875 N872 2.600 . S
Tb875 N876 2.660 . S
Tb875 O909 2.362 . S
Tb875 O910 2.421 . S
Tb875 O914 2.546 . S
Tb875 O915 2.610 . S
Tb875 O917 2.320 . S
Tb875 O918 2.552 . S
Tb875 O919 2.413 . S
Tb875 C939 2.833 . S
N876 C868 1.360 . S
N876 Tb875 2.660 . S
N876 C877 1.305 . S
C877 N876 1.305 . S
C877 C879 1.407 . S
C877 H884 0.930 . S
C878 C866 1.410 . S
C878 C879 1.345 . S
C878 H886 0.930 . S
C879 C877 1.407 . S
C879 C878 1.345 . S
C879 H881 0.930 . S
H880 C873 0.930 . S
H881 C879 0.930 . S
H882 C870 0.930 . S
H883 C871 0.931 . S
H884 C877 0.930 . S
H885 C899 0.930 . S
H886 C878 0.930 . S
H887 C905 0.930 . S
H888 C896 0.930 . S
H889 C903 0.931 . S
H890 C867 0.929 . S
H891 C897 0.930 . S
H892 C930 0.930 . S
H893 C874 0.930 . S
H894 C929 0.929 . S
N895 Tb864 2.660 . S
N895 C896 1.305 . S
N895 C900 1.360 . S
C896 H888 0.930 . S
C896 N895 1.305 . S
C896 C899 1.407 . S
C897 H891 0.930 . S
C897 C898 1.410 . S
C897 C899 1.345 . S
C898 C897 1.410 . S
C898 C900 1.417 . S
C898 C930 1.432 . S
C899 H885 0.930 . S
C899 C896 1.407 . S
C899 C897 1.345 . S
C900 N895 1.360 . S
C900 C898 1.417 . S
C900 C904 1.432 . S
H901 C906 0.930 . S
N902 Tb864 2.600 . S
N902 C904 1.359 . S
N902 C905 1.327 . S
C903 H889 0.931 . S
C903 C905 1.392 . S
C903 C906 1.370 . S
C904 C900 1.432 . S
C904 N902 1.359 . S
C904 C907 1.414 . S
C905 H887 0.930 . S
C905 N902 1.327 . S
C905 C903 1.392 . S
C906 H901 0.930 . S
C906 C903 1.370 . S
C906 C907 1.385 . S
C907 C904 1.414 . S
C907 C906 1.385 . S
C907 C929 1.444 . S
O908 Tb864 2.546 . S
O908 C928 1.251 . S
O909 Tb864 2.610 . S
O909 Tb875 2.362 . S
O909 C920 1.283 . S
O910 Tb875 2.421 . S
O910 C927 1.262 . S
O911 Tb864 2.320 . S
O911 C927 1.260 . S
O912 Tb864 2.552 . S
O912 C920 1.243 . S
O913 Tb864 2.413 . S
O913 C928 1.256 . S
O914 Tb875 2.546 . S
O914 C939 1.251 . S
O915 Tb864 2.362 . S
O915 Tb875 2.610 . S
O915 C931 1.283 . S
O916 Tb864 2.421 . S
O916 C938 1.262 . S
O917 Tb875 2.320 . S
O917 C938 1.260 . S
O918 Tb875 2.552 . S
O918 C931 1.243 . S
O919 Tb875 2.413 . S
O919 C939 1.256 . S
C920 O909 1.283 . S
C920 O912 1.243 . S
C921 C923 1.382 . S
C921 C925 1.393 . S
C921 C928 1.500 . S
C922 C923 1.400 . S
C922 C924 1.384 . S
C923 C921 1.382 . S
C923 C922 1.400 . S
C923 H940 0.930 . S
C924 C922 1.384 . S
C924 C926 1.392 . S
C924 H941 0.931 . S
C925 C921 1.393 . S
C925 C926 1.401 . S
C925 H942 0.930 . S
C926 C924 1.392 . S
C926 C925 1.401 . S
C926 H943 0.930 . S
C927 O910 1.262 . S
C927 O911 1.260 . S
C928 Tb864 2.833 . S
C928 O908 1.251 . S
C928 O913 1.256 . S
C928 C921 1.500 . S
C929 H894 0.929 . S
C929 C907 1.444 . S
C929 C930 1.317 . S
C930 H892 0.930 . S
C930 C898 1.432 . S
C930 C929 1.317 . S
C931 O915 1.283 . S
C931 O918 1.243 . S
C932 C933 1.382 . S
C932 C936 1.393 . S
C932 C939 1.500 . S
C933 C932 1.382 . S
C933 C934 1.400 . S
C933 H944 0.930 . S
C934 C933 1.400 . S
C934 C935 1.384 . S
C935 C934 1.384 . S
C935 C937 1.392 . S
C935 H945 0.931 . S
C936 C932 1.393 . S
C936 C937 1.401 . S
C936 H946 0.930 . S
C937 C935 1.392 . S
C937 C936 1.401 . S
C937 H947 0.930 . S
C938 O916 1.262 . S
C938 O917 1.260 . S
C939 Tb875 2.833 . S
C939 O914 1.251 . S
C939 O919 1.256 . S
C939 C932 1.500 . S
H940 C923 0.930 . S
H941 C924 0.931 . S
H942 C925 0.930 . S
H943 C926 0.930 . S
H944 C933 0.930 . S
H945 C935 0.931 . S
H946 C936 0.930 . S
H947 C937 0.930 . S
H948 C956 0.929 . S
H949 C958 0.930 . S
H950 C960 0.930 . S
H951 C963 0.929 . S
H952 C966 0.930 . S
H953 C968 0.960 . S
H954 C968 0.960 . S
H955 C968 0.960 . S
C956 H948 0.929 . S
C956 C957 1.377 . S
C956 C958 1.384 . S
C957 C956 1.377 . S
C957 C963 1.390 . S
C958 H949 0.930 . S
C958 C956 1.384 . S
C958 C959 1.372 . S
C959 C958 1.372 . S
C959 C960 1.400 . S
C959 C964 1.490 . S
C960 H950 0.930 . S
C960 C959 1.400 . S
C960 C963 1.386 . S
H961 C977 0.930 . S
H962 C978 0.931 . S
C963 H951 0.929 . S
C963 C957 1.390 . S
C963 C960 1.386 . S
C964 C959 1.490 . S
C964 C966 1.395 . S
C964 C967 1.403 . S
H965 C971 0.930 . S
C966 H952 0.930 . S
C966 C964 1.395 . S
C966 C969 1.403 . S
C967 C964 1.403 . S
C967 C968 1.524 . S
C967 C971 1.400 . S
C968 H953 0.960 . S
C968 H954 0.960 . S
C968 H955 0.960 . S
C968 C967 1.524 . S
C969 C966 1.403 . S
C969 C970 1.392 . S
C969 C973 1.495 . S
C970 C969 1.392 . S
C970 C971 1.385 . S
C970 C972 1.478 . S
C971 H965 0.930 . S
C971 C967 1.400 . S
C971 C970 1.385 . S
C972 C970 1.478 . S
C972 C974 1.381 . S
C972 C978 1.383 . S
C973 C969 1.495 . S
C973 H979 0.959 . S
C973 H980 0.961 . S
C973 H981 0.960 . S
C974 C972 1.381 . S
C974 C975 1.394 . S
C974 H982 0.930 . S
C975 C974 1.394 . S
C975 C976 1.383 . S
C975 H983 0.929 . S
C976 C975 1.383 . S
C976 C977 1.377 . S
C977 H961 0.930 . S
C977 C976 1.377 . S
C977 C978 1.379 . S
C978 H962 0.931 . S
C978 C972 1.383 . S
C978 C977 1.379 . S
H979 C973 0.959 . S
H980 C973 0.961 . S
H981 C973 0.960 . S
H982 C974 0.930 . S
H983 C975 0.929 . S
H984 C992 0.929 . S
H985 C994 0.930 . S
H986 C996 0.930 . S
H987 C999 0.929 . S
H988 C1002 0.930 . S
H989 C1004 0.960 . S
H990 C1004 0.960 . S
H991 C1004 0.960 . S
C992 H984 0.929 . S
C992 C993 1.377 . S
C992 C994 1.384 . S
C993 C992 1.377 . S
C993 C999 1.390 . S
C994 H985 0.930 . S
C994 C992 1.384 . S
C994 C995 1.372 . S
C995 C994 1.372 . S
C995 C996 1.400 . S
C995 C1000 1.490 . S
C996 H986 0.930 . S
C996 C995 1.400 . S
C996 C999 1.386 . S
H997 C1013 0.930 . S
H998 C1014 0.931 . S
C999 H987 0.929 . S
C999 C993 1.390 . S
C999 C996 1.386 . S
C1000 C995 1.490 . S
C1000 C1002 1.395 . S
C1000 C1003 1.403 . S
H1001 C1007 0.930 . S
C1002 H988 0.930 . S
C1002 C1000 1.395 . S
C1002 C1005 1.403 . S
C1003 C1000 1.403 . S
C1003 C1004 1.524 . S
C1003 C1007 1.400 . S
C1004 H989 0.960 . S
C1004 H990 0.960 . S
C1004 H991 0.960 . S
C1004 C1003 1.524 . S
C1005 C1002 1.403 . S
C1005 C1006 1.392 . S
C1005 C1009 1.495 . S
C1006 C1005 1.392 . S
C1006 C1007 1.385 . S
C1006 C1008 1.478 . S
C1007 H1001 0.930 . S
C1007 C1003 1.400 . S
C1007 C1006 1.385 . S
C1008 C1006 1.478 . S
C1008 C1010 1.381 . S
C1008 C1014 1.383 . S
C1009 C1005 1.495 . S
C1009 H1015 0.959 . S
C1009 H1016 0.961 . S
C1009 H1017 0.960 . S
C1010 C1008 1.381 . S
C1010 C1011 1.394 . S
C1010 H1018 0.930 . S
C1011 C1010 1.394 . S
C1011 C1012 1.383 . S
C1011 H1019 0.929 . S
C1012 C1011 1.383 . S
C1012 C1013 1.377 . S
C1013 H997 0.930 . S
C1013 C1012 1.377 . S
C1013 C1014 1.379 . S
C1014 H998 0.931 . S
C1014 C1008 1.383 . S
C1014 C1013 1.379 . S
H1015 C1009 0.959 . S
H1016 C1009 0.961 . S
H1017 C1009 0.960 . S
H1018 C1010 0.930 . S
H1019 C1011 0.929 . S
H1020 C1028 0.929 . S
H1021 C1030 0.930 . S
H1022 C1032 0.930 . S
H1023 C1035 0.929 . S
H1024 C1038 0.930 . S
H1025 C1040 0.960 . S
H1026 C1040 0.960 . S
H1027 C1040 0.960 . S
C1028 H1020 0.929 . S
C1028 C1029 1.377 . S
C1028 C1030 1.384 . S
C1029 C1028 1.377 . S
C1029 C1035 1.390 . S
C1030 H1021 0.930 . S
C1030 C1028 1.384 . S
C1030 C1031 1.372 . S
C1031 C1030 1.372 . S
C1031 C1032 1.400 . S
C1031 C1036 1.490 . S
C1032 H1022 0.930 . S
C1032 C1031 1.400 . S
C1032 C1035 1.386 . S
H1033 C1049 0.930 . S
H1034 C1050 0.931 . S
C1035 H1023 0.929 . S
C1035 C1029 1.390 . S
C1035 C1032 1.386 . S
C1036 C1031 1.490 . S
C1036 C1038 1.395 . S
C1036 C1039 1.403 . S
H1037 C1043 0.930 . S
C1038 H1024 0.930 . S
C1038 C1036 1.395 . S
C1038 C1041 1.403 . S
C1039 C1036 1.403 . S
C1039 C1040 1.524 . S
C1039 C1043 1.400 . S
C1040 H1025 0.960 . S
C1040 H1026 0.960 . S
C1040 H1027 0.960 . S
C1040 C1039 1.524 . S
C1041 C1038 1.403 . S
C1041 C1042 1.392 . S
C1041 C1045 1.495 . S
C1042 C1041 1.392 . S
C1042 C1043 1.385 . S
C1042 C1044 1.478 . S
C1043 H1037 0.930 . S
C1043 C1039 1.400 . S
C1043 C1042 1.385 . S
C1044 C1042 1.478 . S
C1044 C1046 1.381 . S
C1044 C1050 1.383 . S
C1045 C1041 1.495 . S
C1045 H1051 0.959 . S
C1045 H1052 0.961 . S
C1045 H1053 0.960 . S
C1046 C1044 1.381 . S
C1046 C1047 1.394 . S
C1046 H1054 0.930 . S
C1047 C1046 1.394 . S
C1047 C1048 1.383 . S
C1047 H1055 0.929 . S
C1048 C1047 1.383 . S
C1048 C1049 1.377 . S
C1049 H1033 0.930 . S
C1049 C1048 1.377 . S
C1049 C1050 1.379 . S
C1050 H1034 0.931 . S
C1050 C1044 1.383 . S
C1050 C1049 1.379 . S
H1051 C1045 0.959 . S
H1052 C1045 0.961 . S
H1053 C1045 0.960 . S
H1054 C1046 0.930 . S
H1055 C1047 0.929 . S
H1056 C1064 0.929 . S
H1057 C1066 0.930 . S
H1058 C1068 0.930 . S
H1059 C1071 0.929 . S
H1060 C1074 0.930 . S
H1061 C1076 0.960 . S
H1062 C1076 0.960 . S
H1063 C1076 0.960 . S
C1064 H1056 0.929 . S
C1064 C1065 1.377 . S
C1064 C1066 1.384 . S
C1065 C1064 1.377 . S
C1065 C1071 1.390 . S
C1066 H1057 0.930 . S
C1066 C1064 1.384 . S
C1066 C1067 1.372 . S
C1067 C1066 1.372 . S
C1067 C1068 1.400 . S
C1067 C1072 1.490 . S
C1068 H1058 0.930 . S
C1068 C1067 1.400 . S
C1068 C1071 1.386 . S
H1069 C1085 0.930 . S
H1070 C1086 0.931 . S
C1071 H1059 0.929 . S
C1071 C1065 1.390 . S
C1071 C1068 1.386 . S
C1072 C1067 1.490 . S
C1072 C1074 1.395 . S
C1072 C1075 1.403 . S
H1073 C1079 0.930 . S
C1074 H1060 0.930 . S
C1074 C1072 1.395 . S
C1074 C1077 1.403 . S
C1075 C1072 1.403 . S
C1075 C1076 1.524 . S
C1075 C1079 1.400 . S
C1076 H1061 0.960 . S
C1076 H1062 0.960 . S
C1076 H1063 0.960 . S
C1076 C1075 1.524 . S
C1077 C1074 1.403 . S
C1077 C1078 1.392 . S
C1077 C1081 1.495 . S
C1078 C1077 1.392 . S
C1078 C1079 1.385 . S
C1078 C1080 1.478 . S
C1079 H1073 0.930 . S
C1079 C1075 1.400 . S
C1079 C1078 1.385 . S
C1080 C1078 1.478 . S
C1080 C1082 1.381 . S
C1080 C1086 1.383 . S
C1081 C1077 1.495 . S
C1081 H1087 0.959 . S
C1081 H1088 0.961 . S
C1081 H1089 0.960 . S
C1082 C1080 1.381 . S
C1082 C1083 1.394 . S
C1082 H1090 0.930 . S
C1083 C1082 1.394 . S
C1083 C1084 1.383 . S
C1083 H1091 0.929 . S
C1084 C1083 1.383 . S
C1084 C1085 1.377 . S
C1085 H1069 0.930 . S
C1085 C1084 1.377 . S
C1085 C1086 1.379 . S
C1086 H1070 0.931 . S
C1086 C1080 1.383 . S
C1086 C1085 1.379 . S
H1087 C1081 0.959 . S
H1088 C1081 0.961 . S
H1089 C1081 0.960 . S
H1090 C1082 0.930 . S
H1091 C1083 0.929 . S
H1092 C1100 0.929 . S
H1093 C1102 0.930 . S
H1094 C1104 0.930 . S
H1095 C1107 0.929 . S
H1096 C1110 0.930 . S
H1097 C1112 0.960 . S
H1098 C1112 0.960 . S
H1099 C1112 0.960 . S
C1100 H1092 0.929 . S
C1100 C1101 1.377 . S
C1100 C1102 1.384 . S
C1101 C1100 1.377 . S
C1101 C1107 1.390 . S
C1102 H1093 0.930 . S
C1102 C1100 1.384 . S
C1102 C1103 1.372 . S
C1103 C1102 1.372 . S
C1103 C1104 1.400 . S
C1103 C1108 1.490 . S
C1104 H1094 0.930 . S
C1104 C1103 1.400 . S
C1104 C1107 1.386 . S
H1105 C1121 0.930 . S
H1106 C1122 0.931 . S
C1107 H1095 0.929 . S
C1107 C1101 1.390 . S
C1107 C1104 1.386 . S
C1108 C1103 1.490 . S
C1108 C1110 1.395 . S
C1108 C1111 1.403 . S
H1109 C1115 0.930 . S
C1110 H1096 0.930 . S
C1110 C1108 1.395 . S
C1110 C1113 1.403 . S
C1111 C1108 1.403 . S
C1111 C1112 1.524 . S
C1111 C1115 1.400 . S
C1112 H1097 0.960 . S
C1112 H1098 0.960 . S
C1112 H1099 0.960 . S
C1112 C1111 1.524 . S
C1113 C1110 1.403 . S
C1113 C1114 1.392 . S
C1113 C1117 1.495 . S
C1114 C1113 1.392 . S
C1114 C1115 1.385 . S
C1114 C1116 1.478 . S
C1115 H1109 0.930 . S
C1115 C1111 1.400 . S
C1115 C1114 1.385 . S
C1116 C1114 1.478 . S
C1116 C1118 1.381 . S
C1116 C1122 1.383 . S
C1117 C1113 1.495 . S
C1117 H1123 0.959 . S
C1117 H1124 0.961 . S
C1117 H1125 0.960 . S
C1118 C1116 1.381 . S
C1118 C1119 1.394 . S
C1118 H1126 0.930 . S
C1119 C1118 1.394 . S
C1119 C1120 1.383 . S
C1119 H1127 0.929 . S
C1120 C1119 1.383 . S
C1120 C1121 1.377 . S
C1121 H1105 0.930 . S
C1121 C1120 1.377 . S
C1121 C1122 1.379 . S
C1122 H1106 0.931 . S
C1122 C1116 1.383 . S
C1122 C1121 1.379 . S
H1123 C1117 0.959 . S
H1124 C1117 0.961 . S
H1125 C1117 0.960 . S
H1126 C1118 0.930 . S
H1127 C1119 0.929 . S
H1128 C1136 0.929 . S
H1129 C1138 0.930 . S
H1130 C1140 0.930 . S
H1131 C1143 0.929 . S
H1132 C1146 0.930 . S
H1133 C1148 0.960 . S
H1134 C1148 0.960 . S
H1135 C1148 0.960 . S
C1136 H1128 0.929 . S
C1136 C1137 1.377 . S
C1136 C1138 1.384 . S
C1137 C1136 1.377 . S
C1137 C1143 1.390 . S
C1138 H1129 0.930 . S
C1138 C1136 1.384 . S
C1138 C1139 1.372 . S
C1139 C1138 1.372 . S
C1139 C1140 1.400 . S
C1139 C1144 1.490 . S
C1140 H1130 0.930 . S
C1140 C1139 1.400 . S
C1140 C1143 1.386 . S
H1141 C1157 0.930 . S
H1142 C1158 0.931 . S
C1143 H1131 0.929 . S
C1143 C1137 1.390 . S
C1143 C1140 1.386 . S
C1144 C1139 1.490 . S
C1144 C1146 1.395 . S
C1144 C1147 1.403 . S
H1145 C1151 0.930 . S
C1146 H1132 0.930 . S
C1146 C1144 1.395 . S
C1146 C1149 1.403 . S
C1147 C1144 1.403 . S
C1147 C1148 1.524 . S
C1147 C1151 1.400 . S
C1148 H1133 0.960 . S
C1148 H1134 0.960 . S
C1148 H1135 0.960 . S
C1148 C1147 1.524 . S
C1149 C1146 1.403 . S
C1149 C1150 1.392 . S
C1149 C1153 1.495 . S
C1150 C1149 1.392 . S
C1150 C1151 1.385 . S
C1150 C1152 1.478 . S
C1151 H1145 0.930 . S
C1151 C1147 1.400 . S
C1151 C1150 1.385 . S
C1152 C1150 1.478 . S
C1152 C1154 1.381 . S
C1152 C1158 1.383 . S
C1153 C1149 1.495 . S
C1153 H1159 0.959 . S
C1153 H1160 0.961 . S
C1153 H1161 0.960 . S
C1154 C1152 1.381 . S
C1154 C1155 1.394 . S
C1154 H1162 0.930 . S
C1155 C1154 1.394 . S
C1155 C1156 1.383 . S
C1155 H1163 0.929 . S
C1156 C1155 1.383 . S
C1156 C1157 1.377 . S
C1157 H1141 0.930 . S
C1157 C1156 1.377 . S
C1157 C1158 1.379 . S
C1158 H1142 0.931 . S
C1158 C1152 1.383 . S
C1158 C1157 1.379 . S
H1159 C1153 0.959 . S
H1160 C1153 0.961 . S
H1161 C1153 0.960 . S
H1162 C1154 0.930 . S
H1163 C1155 0.929 . S
H1164 C1172 0.929 . S
H1165 C1174 0.930 . S
H1166 C1176 0.930 . S
H1167 C1179 0.929 . S
H1168 C1182 0.930 . S
H1169 C1184 0.960 . S
H1170 C1184 0.960 . S
H1171 C1184 0.960 . S
C1172 H1164 0.929 . S
C1172 C1173 1.377 . S
C1172 C1174 1.384 . S
C1173 C1172 1.377 . S
C1173 C1179 1.390 . S
C1174 H1165 0.930 . S
C1174 C1172 1.384 . S
C1174 C1175 1.372 . S
C1175 C1174 1.372 . S
C1175 C1176 1.400 . S
C1175 C1180 1.490 . S
C1176 H1166 0.930 . S
C1176 C1175 1.400 . S
C1176 C1179 1.386 . S
H1177 C1193 0.930 . S
H1178 C1194 0.931 . S
C1179 H1167 0.929 . S
C1179 C1173 1.390 . S
C1179 C1176 1.386 . S
C1180 C1175 1.490 . S
C1180 C1182 1.395 . S
C1180 C1183 1.403 . S
H1181 C1187 0.930 . S
C1182 H1168 0.930 . S
C1182 C1180 1.395 . S
C1182 C1185 1.403 . S
C1183 C1180 1.403 . S
C1183 C1184 1.524 . S
C1183 C1187 1.400 . S
C1184 H1169 0.960 . S
C1184 H1170 0.960 . S
C1184 H1171 0.960 . S
C1184 C1183 1.524 . S
C1185 C1182 1.403 . S
C1185 C1186 1.392 . S
C1185 C1189 1.495 . S
C1186 C1185 1.392 . S
C1186 C1187 1.385 . S
C1186 C1188 1.478 . S
C1187 H1181 0.930 . S
C1187 C1183 1.400 . S
C1187 C1186 1.385 . S
C1188 C1186 1.478 . S
C1188 C1190 1.381 . S
C1188 C1194 1.383 . S
C1189 C1185 1.495 . S
C1189 H1195 0.959 . S
C1189 H1196 0.961 . S
C1189 H1197 0.960 . S
C1190 C1188 1.381 . S
C1190 C1191 1.394 . S
C1190 H1198 0.930 . S
C1191 C1190 1.394 . S
C1191 C1192 1.383 . S
C1191 H1199 0.929 . S
C1192 C1191 1.383 . S
C1192 C1193 1.377 . S
C1193 H1177 0.930 . S
C1193 C1192 1.377 . S
C1193 C1194 1.379 . S
C1194 H1178 0.931 . S
C1194 C1188 1.383 . S
C1194 C1193 1.379 . S
H1195 C1189 0.959 . S
H1196 C1189 0.961 . S
H1197 C1189 0.960 . S
H1198 C1190 0.930 . S
H1199 C1191 0.929 . S
H1200 C1208 0.893 1_545 S
H1201 C1210 0.930 . S
H1202 C1212 0.930 . S
H1203 C1215 0.929 . S
H1204 C1218 0.930 . S
H1205 C1220 0.960 . S
H1206 C1220 0.960 . S
H1207 C1220 0.960 . S
C1208 H1200 0.893 1_565 S
C1208 C1209 1.377 . S
C1208 C1210 1.384 . S
C1209 C1208 1.377 . S
C1209 C1215 1.390 . S
C1210 H1201 0.930 . S
C1210 C1208 1.384 . S
C1210 C1211 1.372 . S
C1211 C1210 1.372 . S
C1211 C1212 1.400 . S
C1211 C1216 1.490 . S
C1212 H1202 0.930 . S
C1212 C1211 1.400 . S
C1212 C1215 1.386 . S
H1213 C1229 0.930 . S
H1214 C1230 0.931 . S
C1215 H1203 0.929 . S
C1215 C1209 1.390 . S
C1215 C1212 1.386 . S
C1216 C1211 1.490 . S
C1216 C1218 1.395 . S
C1216 C1219 1.403 . S
H1217 C1223 0.930 . S
C1218 H1204 0.930 . S
C1218 C1216 1.395 . S
C1218 C1221 1.403 . S
C1219 C1216 1.403 . S
C1219 C1220 1.524 . S
C1219 C1223 1.400 . S
C1220 H1205 0.960 . S
C1220 H1206 0.960 . S
C1220 H1207 0.960 . S
C1220 C1219 1.524 . S
C1221 C1218 1.403 . S
C1221 C1222 1.392 . S
C1221 C1225 1.495 . S
C1222 C1221 1.392 . S
C1222 C1223 1.385 . S
C1222 C1224 1.478 . S
C1223 H1217 0.930 . S
C1223 C1219 1.400 . S
C1223 C1222 1.385 . S
C1224 C1222 1.478 . S
C1224 C1226 1.381 . S
C1224 C1230 1.383 . S
C1225 C1221 1.495 . S
C1225 H1231 0.959 . S
C1225 H1232 0.961 . S
C1225 H1233 0.960 . S
C1226 C1224 1.381 . S
C1226 C1227 1.394 . S
C1226 H1234 0.930 . S
C1227 C1226 1.394 . S
C1227 C1228 1.383 . S
C1227 H1235 0.929 . S
C1228 C1227 1.383 . S
C1228 C1229 1.377 . S
C1229 H1213 0.930 . S
C1229 C1228 1.377 . S
C1229 C1230 1.379 . S
C1230 H1214 0.931 . S
C1230 C1224 1.383 . S
C1230 C1229 1.379 . S
H1231 C1225 0.959 . S
H1232 C1225 0.961 . S
H1233 C1225 0.960 . S
H1234 C1226 0.930 . S
H1235 C1227 0.929 . S
H1236 C1244 0.929 . S
H1237 C1246 0.930 . S
H1238 C1248 0.930 . S
H1239 C1251 0.929 . S
H1240 C1254 0.930 . S
H1241 C1256 0.960 . S
H1242 C1256 0.960 . S
H1243 C1256 0.960 . S
C1244 H1236 0.929 . S
C1244 C1245 1.377 . S
C1244 C1246 1.384 . S
C1245 C1244 1.377 . S
C1245 C1251 1.390 . S
C1246 H1237 0.930 . S
C1246 C1244 1.384 . S
C1246 C1247 1.372 . S
C1247 C1246 1.372 . S
C1247 C1248 1.400 . S
C1247 C1252 1.490 . S
C1248 H1238 0.930 . S
C1248 C1247 1.400 . S
C1248 C1251 1.386 . S
H1249 C1265 0.930 . S
H1250 C1266 0.931 . S
C1251 H1239 0.929 . S
C1251 C1245 1.390 . S
C1251 C1248 1.386 . S
C1252 C1247 1.490 . S
C1252 C1254 1.395 . S
C1252 C1255 1.403 . S
H1253 C1259 0.930 . S
C1254 H1240 0.930 . S
C1254 C1252 1.395 . S
C1254 C1257 1.403 . S
C1255 C1252 1.403 . S
C1255 C1256 1.524 . S
C1255 C1259 1.400 . S
C1256 H1241 0.960 . S
C1256 H1242 0.960 . S
C1256 H1243 0.960 . S
C1256 C1255 1.524 . S
C1257 C1254 1.403 . S
C1257 C1258 1.392 . S
C1257 C1261 1.495 . S
C1258 C1257 1.392 . S
C1258 C1259 1.385 . S
C1258 C1260 1.478 . S
C1259 H1253 0.930 . S
C1259 C1255 1.400 . S
C1259 C1258 1.385 . S
C1260 C1258 1.478 . S
C1260 C1262 1.381 . S
C1260 C1266 1.383 . S
C1261 C1257 1.495 . S
C1261 H1267 0.959 . S
C1261 H1268 0.961 . S
C1261 H1269 0.960 . S
C1262 C1260 1.381 . S
C1262 C1263 1.394 . S
C1262 H1270 0.930 . S
C1263 C1262 1.394 . S
C1263 C1264 1.383 . S
C1263 H1271 0.929 . S
C1264 C1263 1.383 . S
C1264 C1265 1.377 . S
C1265 H1249 0.930 . S
C1265 C1264 1.377 . S
C1265 C1266 1.379 . S
C1266 H1250 0.931 . S
C1266 C1260 1.383 . S
C1266 C1265 1.379 . S
H1267 C1261 0.959 . S
H1268 C1261 0.961 . S
H1269 C1261 0.960 . S
H1270 C1262 0.930 . S
H1271 C1263 0.929 . S
H1272 C1280 0.929 . S
H1273 C1282 0.930 . S
H1274 C1284 0.930 . S
H1275 C1287 0.929 . S
H1276 C1290 0.930 . S
H1277 C1292 0.960 . S
H1278 C1292 0.960 . S
H1279 C1292 0.960 . S
C1280 H1272 0.929 . S
C1280 C1281 1.377 . S
C1280 C1282 1.384 . S
C1281 C1280 1.377 . S
C1281 C1287 1.390 . S
C1282 H1273 0.930 . S
C1282 C1280 1.384 . S
C1282 C1283 1.372 . S
C1283 C1282 1.372 . S
C1283 C1284 1.400 . S
C1283 C1288 1.490 . S
C1284 H1274 0.930 . S
C1284 C1283 1.400 . S
C1284 C1287 1.386 . S
H1285 C1301 0.930 . S
H1286 C1302 0.931 . S
C1287 H1275 0.929 . S
C1287 C1281 1.390 . S
C1287 C1284 1.386 . S
C1288 C1283 1.490 . S
C1288 C1290 1.395 . S
C1288 C1291 1.403 . S
H1289 C1295 0.930 . S
C1290 H1276 0.930 . S
C1290 C1288 1.395 . S
C1290 C1293 1.403 . S
C1291 C1288 1.403 . S
C1291 C1292 1.524 . S
C1291 C1295 1.400 . S
C1292 H1277 0.960 . S
C1292 H1278 0.960 . S
C1292 H1279 0.960 . S
C1292 C1291 1.524 . S
C1293 C1290 1.403 . S
C1293 C1294 1.392 . S
C1293 C1297 1.495 . S
C1294 C1293 1.392 . S
C1294 C1295 1.385 . S
C1294 C1296 1.478 . S
C1295 H1289 0.930 . S
C1295 C1291 1.400 . S
C1295 C1294 1.385 . S
C1296 C1294 1.478 . S
C1296 C1298 1.381 . S
C1296 C1302 1.383 . S
C1297 C1293 1.495 . S
C1297 H1303 0.959 . S
C1297 H1304 0.961 . S
C1297 H1305 0.960 . S
C1298 C1296 1.381 . S
C1298 C1299 1.394 . S
C1298 H1306 0.930 . S
C1299 C1298 1.394 . S
C1299 C1300 1.383 . S
C1299 H1307 0.929 . S
C1300 C1299 1.383 . S
C1300 C1301 1.377 . S
C1301 H1285 0.930 . S
C1301 C1300 1.377 . S
C1301 C1302 1.379 . S
C1302 H1286 0.931 . S
C1302 C1296 1.383 . S
C1302 C1301 1.379 . S
H1303 C1297 0.959 . S
H1304 C1297 0.961 . S
H1305 C1297 0.960 . S
H1306 C1298 0.930 . S
H1307 C1299 0.929 . S
H1308 C1316 0.929 . S
H1309 C1318 0.930 . S
H1310 C1320 0.930 . S
H1311 C1323 0.929 . S
H1312 C1326 0.930 . S
H1313 C1328 0.960 . S
H1314 C1328 0.960 . S
H1315 C1328 0.960 . S
C1316 H1308 0.929 . S
C1316 C1317 1.377 . S
C1316 C1318 1.384 . S
C1317 C1316 1.377 . S
C1317 C1323 1.390 . S
C1318 H1309 0.930 . S
C1318 C1316 1.384 . S
C1318 C1319 1.372 . S
C1319 C1318 1.372 . S
C1319 C1320 1.400 . S
C1319 C1324 1.490 . S
C1320 H1310 0.930 . S
C1320 C1319 1.400 . S
C1320 C1323 1.386 . S
H1321 C1337 0.930 . S
H1322 C1338 0.931 . S
C1323 H1311 0.929 . S
C1323 C1317 1.390 . S
C1323 C1320 1.386 . S
C1324 C1319 1.490 . S
C1324 C1326 1.395 . S
C1324 C1327 1.403 . S
H1325 C1331 0.930 . S
C1326 H1312 0.930 . S
C1326 C1324 1.395 . S
C1326 C1329 1.403 . S
C1327 C1324 1.403 . S
C1327 C1328 1.524 . S
C1327 C1331 1.400 . S
C1328 H1313 0.960 . S
C1328 H1314 0.960 . S
C1328 H1315 0.960 . S
C1328 C1327 1.524 . S
C1329 C1326 1.403 . S
C1329 C1330 1.392 . S
C1329 C1333 1.495 . S
C1330 C1329 1.392 . S
C1330 C1331 1.385 . S
C1330 C1332 1.478 . S
C1331 H1325 0.930 . S
C1331 C1327 1.400 . S
C1331 C1330 1.385 . S
C1332 C1330 1.478 . S
C1332 C1334 1.381 . S
C1332 C1338 1.383 . S
C1333 C1329 1.495 . S
C1333 H1339 0.959 . S
C1333 H1340 0.961 . S
C1333 H1341 0.960 . S
C1334 C1332 1.381 . S
C1334 C1335 1.394 . S
C1334 H1342 0.930 . S
C1335 C1334 1.394 . S
C1335 C1336 1.383 . S
C1335 H1343 0.929 . S
C1336 C1335 1.383 . S
C1336 C1337 1.377 . S
C1337 H1321 0.930 . S
C1337 C1336 1.377 . S
C1337 C1338 1.379 . S
C1338 H1322 0.931 . S
C1338 C1332 1.383 . S
C1338 C1337 1.379 . S
H1339 C1333 0.959 . S
H1340 C1333 0.961 . S
H1341 C1333 0.960 . S
H1342 C1334 0.930 . S
H1343 C1335 0.929 . S
H1344 C1352 0.929 . S
H1345 C1354 0.930 . S
H1346 C1356 0.930 . S
H1347 C1359 0.929 . S
H1348 C1362 0.930 . S
H1349 C1364 0.960 . S
H1350 C1364 0.960 . S
H1351 C1364 0.960 . S
C1352 H1344 0.929 . S
C1352 C1353 1.377 . S
C1352 C1354 1.384 . S
C1353 C1352 1.377 . S
C1353 C1359 1.390 . S
C1354 H1345 0.930 . S
C1354 C1352 1.384 . S
C1354 C1355 1.372 . S
C1355 C1354 1.372 . S
C1355 C1356 1.400 . S
C1355 C1360 1.490 . S
C1356 H1346 0.930 . S
C1356 C1355 1.400 . S
C1356 C1359 1.386 . S
H1357 C1373 0.930 . S
H1358 C1374 0.931 . S
C1359 H1347 0.929 . S
C1359 C1353 1.390 . S
C1359 C1356 1.386 . S
C1360 C1355 1.490 . S
C1360 C1362 1.395 . S
C1360 C1363 1.403 . S
H1361 C1367 0.930 . S
C1362 H1348 0.930 . S
C1362 C1360 1.395 . S
C1362 C1365 1.403 . S
C1363 C1360 1.403 . S
C1363 C1364 1.524 . S
C1363 C1367 1.400 . S
C1364 H1349 0.960 . S
C1364 H1350 0.960 . S
C1364 H1351 0.960 . S
C1364 C1363 1.524 . S
C1365 C1362 1.403 . S
C1365 C1366 1.392 . S
C1365 C1369 1.495 . S
C1366 C1365 1.392 . S
C1366 C1367 1.385 . S
C1366 C1368 1.478 . S
C1367 H1361 0.930 . S
C1367 C1363 1.400 . S
C1367 C1366 1.385 . S
C1368 C1366 1.478 . S
C1368 C1370 1.381 . S
C1368 C1374 1.383 . S
C1369 C1365 1.495 . S
C1369 H1375 0.959 . S
C1369 H1376 0.961 . S
C1369 H1377 0.960 . S
C1370 C1368 1.381 . S
C1370 C1371 1.394 . S
C1370 H1378 0.930 . S
C1371 C1370 1.394 . S
C1371 C1372 1.383 . S
C1371 H1379 0.929 . S
C1372 C1371 1.383 . S
C1372 C1373 1.377 . S
C1373 H1357 0.930 . S
C1373 C1372 1.377 . S
C1373 C1374 1.379 . S
C1374 H1358 0.931 . S
C1374 C1368 1.383 . S
C1374 C1373 1.379 . S
H1375 C1369 0.959 . S
H1376 C1369 0.961 . S
H1377 C1369 0.960 . S
H1378 C1370 0.930 . S
H1379 C1371 0.929 . S
H1380 C1388 0.933 1_545 S
H1381 C1390 0.930 . S
H1382 C1392 0.930 . S
H1383 C1395 0.929 . S
H1384 C1398 0.930 . S
H1385 C1400 0.960 . S
H1386 C1400 0.960 . S
H1387 C1400 0.960 . S
C1388 H1380 0.933 1_565 S
C1388 C1389 1.377 1_556 S
C1388 C1390 1.381 . S
C1389 C1388 1.377 1_554 S
C1389 C1395 1.390 . S
C1390 H1381 0.930 . S
C1390 C1388 1.381 . S
C1390 C1391 1.372 . S
C1391 C1390 1.372 . S
C1391 C1392 1.400 1_556 S
C1391 C1396 1.490 . S
C1392 H1382 0.930 . S
C1392 C1391 1.400 1_554 S
C1392 C1395 1.386 . S
H1393 C1409 0.930 . S
H1394 C1410 0.931 . S
C1395 H1383 0.929 . S
C1395 C1389 1.390 . S
C1395 C1392 1.386 . S
C1396 C1391 1.490 . S
C1396 C1398 1.395 . S
C1396 C1399 1.403 . S
H1397 C1403 0.930 . S
C1398 H1384 0.930 . S
C1398 C1396 1.395 . S
C1398 C1401 1.403 . S
C1399 C1396 1.403 . S
C1399 C1400 1.524 . S
C1399 C1403 1.400 . S
C1400 H1385 0.960 . S
C1400 H1386 0.960 . S
C1400 H1387 0.960 . S
C1400 C1399 1.524 . S
C1401 C1398 1.403 . S
C1401 C1402 1.392 . S
C1401 C1405 1.495 . S
C1402 C1401 1.392 . S
C1402 C1403 1.385 . S
C1402 C1404 1.478 . S
C1403 H1397 0.930 . S
C1403 C1399 1.400 . S
C1403 C1402 1.385 . S
C1404 C1402 1.478 . S
C1404 C1406 1.381 . S
C1404 C1410 1.383 . S
C1405 C1401 1.495 . S
C1405 H1411 0.959 . S
C1405 H1412 0.961 . S
C1405 H1413 0.960 . S
C1406 C1404 1.381 . S
C1406 C1407 1.394 . S
C1406 H1414 0.930 . S
C1407 C1406 1.394 . S
C1407 C1408 1.383 . S
C1407 H1415 0.929 . S
C1408 C1407 1.383 . S
C1408 C1409 1.377 . S
C1409 H1393 0.930 . S
C1409 C1408 1.377 . S
C1409 C1410 1.379 . S
C1410 H1394 0.931 . S
C1410 C1404 1.383 . S
C1410 C1409 1.379 . S
H1411 C1405 0.959 . S
H1412 C1405 0.961 . S
H1413 C1405 0.960 . S
H1414 C1406 0.930 . S
H1415 C1407 0.929 . S
H1416 C1424 0.929 . S
H1417 C1426 0.930 . S
H1418 C1428 0.930 . S
H1419 C1431 0.929 1_554 S
H1420 C1434 0.930 . S
H1421 C1436 0.960 . S
H1422 C1436 0.960 . S
H1423 C1436 0.960 . S
C1424 H1416 0.929 . S
C1424 C1425 1.377 . S
C1424 C1426 1.384 . S
C1425 C1424 1.377 . S
C1425 C1431 1.390 . S
C1426 H1417 0.930 . S
C1426 C1424 1.384 . S
C1426 C1427 1.372 . S
C1427 C1426 1.372 . S
C1427 C1428 1.400 . S
C1427 C1432 1.490 . S
C1428 H1418 0.930 . S
C1428 C1427 1.400 . S
C1428 C1431 1.386 . S
H1429 C1445 0.930 . S
H1430 C1446 0.931 . S
C1431 H1419 0.929 1_556 S
C1431 C1425 1.390 . S
C1431 C1428 1.386 . S
C1432 C1427 1.490 . S
C1432 C1434 1.395 . S
C1432 C1435 1.403 . S
H1433 C1439 0.930 . S
C1434 H1420 0.930 . S
C1434 C1432 1.395 . S
C1434 C1437 1.403 . S
C1435 C1432 1.403 . S
C1435 C1436 1.524 . S
C1435 C1439 1.400 . S
C1436 H1421 0.960 . S
C1436 H1422 0.960 . S
C1436 H1423 0.960 . S
C1436 C1435 1.524 . S
C1437 C1434 1.403 . S
C1437 C1438 1.392 . S
C1437 C1441 1.495 . S
C1438 C1437 1.392 . S
C1438 C1439 1.385 . S
C1438 C1440 1.478 . S
C1439 H1433 0.930 . S
C1439 C1435 1.400 . S
C1439 C1438 1.385 . S
C1440 C1438 1.478 . S
C1440 C1442 1.381 . S
C1440 C1446 1.383 . S
C1441 C1437 1.495 . S
C1441 H1447 0.959 . S
C1441 H1448 0.961 . S
C1441 H1449 0.960 . S
C1442 C1440 1.381 . S
C1442 C1443 1.394 . S
C1442 H1450 0.930 . S
C1443 C1442 1.394 . S
C1443 C1444 1.383 . S
C1443 H1451 0.929 . S
C1444 C1443 1.383 . S
C1444 C1445 1.377 . S
C1445 H1429 0.930 . S
C1445 C1444 1.377 . S
C1445 C1446 1.379 . S
C1446 H1430 0.931 . S
C1446 C1440 1.383 . S
C1446 C1445 1.379 . S
H1447 C1441 0.959 . S
H1448 C1441 0.961 . S
H1449 C1441 0.960 . S
H1450 C1442 0.930 . S
H1451 C1443 0.929 . S
H1452 C1460 0.929 . S
H1453 C1462 0.930 . S
H1454 C1464 0.930 . S
H1455 C1467 0.929 . S
H1456 C1470 0.930 . S
H1457 C1472 0.960 . S
H1458 C1472 0.960 . S
H1459 C1472 0.960 . S
C1460 H1452 0.929 . S
C1460 C1461 1.377 . S
C1460 C1462 1.384 . S
C1461 C1460 1.377 . S
C1461 C1467 1.390 . S
C1462 H1453 0.930 . S
C1462 C1460 1.384 . S
C1462 C1463 1.372 . S
C1463 C1462 1.372 . S
C1463 C1464 1.400 . S
C1463 C1468 1.490 . S
C1464 H1454 0.930 . S
C1464 C1463 1.400 . S
C1464 C1467 1.386 . S
H1465 C1481 0.930 . S
H1466 C1482 0.931 . S
C1467 H1455 0.929 . S
C1467 C1461 1.390 . S
C1467 C1464 1.386 . S
C1468 C1463 1.490 . S
C1468 C1470 1.395 . S
C1468 C1471 1.403 . S
H1469 C1475 0.930 . S
C1470 H1456 0.930 . S
C1470 C1468 1.395 . S
C1470 C1473 1.403 . S
C1471 C1468 1.403 . S
C1471 C1472 1.524 . S
C1471 C1475 1.400 . S
C1472 H1457 0.960 . S
C1472 H1458 0.960 . S
C1472 H1459 0.960 . S
C1472 C1471 1.524 . S
C1473 C1470 1.403 . S
C1473 C1474 1.392 . S
C1473 C1477 1.495 . S
C1474 C1473 1.392 . S
C1474 C1475 1.385 . S
C1474 C1476 1.478 . S
C1475 H1469 0.930 . S
C1475 C1471 1.400 . S
C1475 C1474 1.385 . S
C1476 C1474 1.478 . S
C1476 C1478 1.381 . S
C1476 C1482 1.383 . S
C1477 C1473 1.495 . S
C1477 H1483 0.959 . S
C1477 H1484 0.961 . S
C1477 H1485 0.960 . S
C1478 C1476 1.381 . S
C1478 C1479 1.394 . S
C1478 H1486 0.930 . S
C1479 C1478 1.394 . S
C1479 C1480 1.383 . S
C1479 H1487 0.929 . S
C1480 C1479 1.383 . S
C1480 C1481 1.377 . S
C1481 H1465 0.930 . S
C1481 C1480 1.377 . S
C1481 C1482 1.379 . S
C1482 H1466 0.931 . S
C1482 C1476 1.383 . S
C1482 C1481 1.379 . S
H1483 C1477 0.959 . S
H1484 C1477 0.961 . S
H1485 C1477 0.960 . S
H1486 C1478 0.930 . S
H1487 C1479 0.929 . S
H1488 C1496 0.929 . S
H1489 C1498 0.930 . S
H1490 C1500 0.930 . S
H1491 C1503 0.929 . S
H1492 C1506 0.930 . S
H1493 C1508 0.960 . S
H1494 C1508 0.960 . S
H1495 C1508 0.960 . S
C1496 H1488 0.929 . S
C1496 C1497 1.377 . S
C1496 C1498 1.384 . S
C1497 C1496 1.377 . S
C1497 C1503 1.390 . S
C1498 H1489 0.930 . S
C1498 C1496 1.384 . S
C1498 C1499 1.372 . S
C1499 C1498 1.372 . S
C1499 C1500 1.400 . S
C1499 C1504 1.490 . S
C1500 H1490 0.930 . S
C1500 C1499 1.400 . S
C1500 C1503 1.386 . S
H1501 C1517 0.930 . S
H1502 C1518 0.931 . S
C1503 H1491 0.929 . S
C1503 C1497 1.390 . S
C1503 C1500 1.386 . S
C1504 C1499 1.490 . S
C1504 C1506 1.395 . S
C1504 C1507 1.403 . S
H1505 C1511 0.930 . S
C1506 H1492 0.930 . S
C1506 C1504 1.395 . S
C1506 C1509 1.403 . S
C1507 C1504 1.403 . S
C1507 C1508 1.524 . S
C1507 C1511 1.400 . S
C1508 H1493 0.960 . S
C1508 H1494 0.960 . S
C1508 H1495 0.960 . S
C1508 C1507 1.524 . S
C1509 C1506 1.403 . S
C1509 C1510 1.392 . S
C1509 C1513 1.495 . S
C1510 C1509 1.392 . S
C1510 C1511 1.385 . S
C1510 C1512 1.478 . S
C1511 H1505 0.930 . S
C1511 C1507 1.400 . S
C1511 C1510 1.385 . S
C1512 C1510 1.478 . S
C1512 C1514 1.381 . S
C1512 C1518 1.383 . S
C1513 C1509 1.495 . S
C1513 H1519 0.959 . S
C1513 H1520 0.961 . S
C1513 H1521 0.960 . S
C1514 C1512 1.381 . S
C1514 C1515 1.394 . S
C1514 H1522 0.930 . S
C1515 C1514 1.394 . S
C1515 C1516 1.383 . S
C1515 H1523 0.929 . S
C1516 C1515 1.383 . S
C1516 C1517 1.377 . S
C1517 H1501 0.930 . S
C1517 C1516 1.377 . S
C1517 C1518 1.379 . S
C1518 H1502 0.931 . S
C1518 C1512 1.383 . S
C1518 C1517 1.379 . S
H1519 C1513 0.959 . S
H1520 C1513 0.961 . S
H1521 C1513 0.960 . S
H1522 C1514 0.930 . S
H1523 C1515 0.929 . S
H1524 C1532 0.929 . S
H1525 C1534 0.930 . S
H1526 C1536 0.930 . S
H1527 C1539 0.929 . S
H1528 C1542 0.930 . S
H1529 C1544 0.960 . S
H1530 C1544 0.960 . S
H1531 C1544 0.960 . S
C1532 H1524 0.929 . S
C1532 C1533 1.377 . S
C1532 C1534 1.384 . S
C1533 C1532 1.377 . S
C1533 C1539 1.390 . S
C1534 H1525 0.930 . S
C1534 C1532 1.384 . S
C1534 C1535 1.372 . S
C1535 C1534 1.372 . S
C1535 C1536 1.400 . S
C1535 C1540 1.490 . S
C1536 H1526 0.930 . S
C1536 C1535 1.400 . S
C1536 C1539 1.386 . S
H1537 C1553 0.930 . S
H1538 C1554 0.931 . S
C1539 H1527 0.929 . S
C1539 C1533 1.390 . S
C1539 C1536 1.386 . S
C1540 C1535 1.490 . S
C1540 C1542 1.395 . S
C1540 C1543 1.403 . S
H1541 C1547 0.930 . S
C1542 H1528 0.930 . S
C1542 C1540 1.395 . S
C1542 C1545 1.403 . S
C1543 C1540 1.403 . S
C1543 C1544 1.524 . S
C1543 C1547 1.400 . S
C1544 H1529 0.960 . S
C1544 H1530 0.960 . S
C1544 H1531 0.960 . S
C1544 C1543 1.524 . S
C1545 C1542 1.403 . S
C1545 C1546 1.392 . S
C1545 C1549 1.495 . S
C1546 C1545 1.392 . S
C1546 C1547 1.385 . S
C1546 C1548 1.478 . S
C1547 H1541 0.930 . S
C1547 C1543 1.400 . S
C1547 C1546 1.385 . S
C1548 C1546 1.478 . S
C1548 C1550 1.381 . S
C1548 C1554 1.383 . S
C1549 C1545 1.495 . S
C1549 H1555 0.959 . S
C1549 H1556 0.961 . S
C1549 H1557 0.960 . S
C1550 C1548 1.381 . S
C1550 C1551 1.394 . S
C1550 H1558 0.930 . S
C1551 C1550 1.394 . S
C1551 C1552 1.383 . S
C1551 H1559 0.929 . S
C1552 C1551 1.383 . S
C1552 C1553 1.377 . S
C1553 H1537 0.930 . S
C1553 C1552 1.377 . S
C1553 C1554 1.379 . S
C1554 H1538 0.931 . S
C1554 C1548 1.383 . S
C1554 C1553 1.379 . S
H1555 C1549 0.959 . S
H1556 C1549 0.961 . S
H1557 C1549 0.960 . S
H1558 C1550 0.930 . S
H1559 C1551 0.929 . S
H1560 C1568 0.929 . S
H1561 C1570 0.930 . S
H1562 C1572 0.930 . S
H1563 C1575 0.929 . S
H1564 C1578 0.930 . S
H1565 C1580 0.960 . S
H1566 C1580 0.960 . S
H1567 C1580 0.960 . S
C1568 H1560 0.929 . S
C1568 C1569 1.377 . S
C1568 C1570 1.384 . S
C1569 C1568 1.377 . S
C1569 C1575 1.390 . S
C1570 H1561 0.930 . S
C1570 C1568 1.384 . S
C1570 C1571 1.372 . S
C1571 C1570 1.372 . S
C1571 C1572 1.400 . S
C1571 C1576 1.490 . S
C1572 H1562 0.930 . S
C1572 C1571 1.400 . S
C1572 C1575 1.386 . S
H1573 C1589 0.930 . S
H1574 C1590 0.931 . S
C1575 H1563 0.929 . S
C1575 C1569 1.390 . S
C1575 C1572 1.386 . S
C1576 C1571 1.490 . S
C1576 C1578 1.395 . S
C1576 C1579 1.403 . S
H1577 C1583 0.930 . S
C1578 H1564 0.930 . S
C1578 C1576 1.395 . S
C1578 C1581 1.403 . S
C1579 C1576 1.403 . S
C1579 C1580 1.524 . S
C1579 C1583 1.400 . S
C1580 H1565 0.960 . S
C1580 H1566 0.960 . S
C1580 H1567 0.960 . S
C1580 C1579 1.524 . S
C1581 C1578 1.403 . S
C1581 C1582 1.392 . S
C1581 C1585 1.495 . S
C1582 C1581 1.392 . S
C1582 C1583 1.385 . S
C1582 C1584 1.478 . S
C1583 H1577 0.930 . S
C1583 C1579 1.400 . S
C1583 C1582 1.385 . S
C1584 C1582 1.478 . S
C1584 C1586 1.381 . S
C1584 C1590 1.383 . S
C1585 C1581 1.495 . S
C1585 H1591 0.959 . S
C1585 H1592 0.961 . S
C1585 H1593 0.960 . S
C1586 C1584 1.381 . S
C1586 C1587 1.394 . S
C1586 H1594 0.930 . S
C1587 C1586 1.394 . S
C1587 C1588 1.383 . S
C1587 H1595 0.929 . S
C1588 C1587 1.383 . S
C1588 C1589 1.377 . S
C1589 H1573 0.930 . S
C1589 C1588 1.377 . S
C1589 C1590 1.379 . S
C1590 H1574 0.931 . S
C1590 C1584 1.383 . S
C1590 C1589 1.379 . S
H1591 C1585 0.959 . S
H1592 C1585 0.961 . S
H1593 C1585 0.960 . S
H1594 C1586 0.930 . S
H1595 C1587 0.929 . S
H1596 C1604 0.929 . S
H1597 C1606 0.929 1_554 S
H1598 C1608 0.930 . S
H1599 C1611 0.929 . S
H1600 C1614 0.930 . S
H1601 C1616 0.960 . S
H1602 C1616 0.960 . S
H1603 C1616 0.960 . S
C1604 H1596 0.929 . S
C1604 C1605 1.377 . S
C1604 C1606 1.384 1_554 S
C1605 C1604 1.377 . S
C1605 C1611 1.390 1_554 S
C1606 H1597 0.929 1_556 S
C1606 C1604 1.384 1_556 S
C1606 C1607 1.372 . S
C1607 C1606 1.372 . S
C1607 C1608 1.400 . S
C1607 C1612 1.490 . S
C1608 H1598 0.930 . S
C1608 C1607 1.400 . S
C1608 C1611 1.386 . S
H1609 C1625 0.930 . S
H1610 C1626 0.931 . S
C1611 H1599 0.929 . S
C1611 C1605 1.390 1_556 S
C1611 C1608 1.386 . S
C1612 C1607 1.490 . S
C1612 C1614 1.395 . S
C1612 C1615 1.403 . S
H1613 C1619 0.930 . S
C1614 H1600 0.930 . S
C1614 C1612 1.395 . S
C1614 C1617 1.403 . S
C1615 C1612 1.403 . S
C1615 C1616 1.524 . S
C1615 C1619 1.400 . S
C1616 H1601 0.960 . S
C1616 H1602 0.960 . S
C1616 H1603 0.960 . S
C1616 C1615 1.524 . S
C1617 C1614 1.403 . S
C1617 C1618 1.392 . S
C1617 C1621 1.495 . S
C1618 C1617 1.392 . S
C1618 C1619 1.385 . S
C1618 C1620 1.478 . S
C1619 H1613 0.930 . S
C1619 C1615 1.400 . S
C1619 C1618 1.385 . S
C1620 C1618 1.478 . S
C1620 C1622 1.381 . S
C1620 C1626 1.383 . S
C1621 C1617 1.495 . S
C1621 H1627 0.959 . S
C1621 H1628 0.961 . S
C1621 H1629 0.960 . S
C1622 C1620 1.381 . S
C1622 C1623 1.394 . S
C1622 H1630 0.930 . S
C1623 C1622 1.394 . S
C1623 C1624 1.383 . S
C1623 H1631 0.929 . S
C1624 C1623 1.383 . S
C1624 C1625 1.377 . S
C1625 H1609 0.930 . S
C1625 C1624 1.377 . S
C1625 C1626 1.379 . S
C1626 H1610 0.931 . S
C1626 C1620 1.383 . S
C1626 C1625 1.379 . S
H1627 C1621 0.959 . S
H1628 C1621 0.961 . S
H1629 C1621 0.960 . S
H1630 C1622 0.930 . S
H1631 C1623 0.929 . S
H1632 C1640 0.929 . S
H1633 C1642 0.930 . S
H1634 C1644 0.930 . S
H1635 C1647 0.929 . S
H1636 C1650 0.930 . S
H1637 C1652 0.960 . S
H1638 C1652 0.960 . S
H1639 C1652 0.960 . S
C1640 H1632 0.929 . S
C1640 C1641 1.377 1_556 S
C1640 C1642 1.384 . S
C1641 C1640 1.377 1_554 S
C1641 C1647 1.390 . S
C1642 H1633 0.930 . S
C1642 C1640 1.384 . S
C1642 C1643 1.372 . S
C1643 C1642 1.372 . S
C1643 C1644 1.400 1_556 S
C1643 C1648 1.490 . S
C1644 H1634 0.930 . S
C1644 C1643 1.400 1_554 S
C1644 C1647 1.386 . S
H1645 C1661 0.930 . S
H1646 C1662 0.931 . S
C1647 H1635 0.929 . S
C1647 C1641 1.390 . S
C1647 C1644 1.386 . S
C1648 C1643 1.490 . S
C1648 C1650 1.395 . S
C1648 C1651 1.403 . S
H1649 C1655 0.930 . S
C1650 H1636 0.930 . S
C1650 C1648 1.395 . S
C1650 C1653 1.403 . S
C1651 C1648 1.403 . S
C1651 C1652 1.524 1_556 S
C1651 C1655 1.400 . S
C1652 H1637 0.960 . S
C1652 H1638 0.960 . S
C1652 H1639 0.960 . S
C1652 C1651 1.524 1_554 S
C1653 C1650 1.403 . S
C1653 C1654 1.392 . S
C1653 C1657 1.495 . S
C1654 C1653 1.392 . S
C1654 C1655 1.385 . S
C1654 C1656 1.478 . S
C1655 H1649 0.930 . S
C1655 C1651 1.400 . S
C1655 C1654 1.385 . S
C1656 C1654 1.478 . S
C1656 C1658 1.381 . S
C1656 C1662 1.383 . S
C1657 C1653 1.495 . S
C1657 H1663 0.959 . S
C1657 H1664 0.961 . S
C1657 H1665 0.960 . S
C1658 C1656 1.381 . S
C1658 C1659 1.394 . S
C1658 H1666 0.930 . S
C1659 C1658 1.394 . S
C1659 C1660 1.383 . S
C1659 H1667 0.929 . S
C1660 C1659 1.383 . S
C1660 C1661 1.377 . S
C1661 H1645 0.930 . S
C1661 C1660 1.377 . S
C1661 C1662 1.379 . S
C1662 H1646 0.931 . S
C1662 C1656 1.383 . S
C1662 C1661 1.379 . S
H1663 C1657 0.959 . S
H1664 C1657 0.961 . S
H1665 C1657 0.960 . S
H1666 C1658 0.930 . S
H1667 C1659 0.929 . S
H1668 C1676 0.929 . S
H1669 C1678 0.930 . S
H1670 C1680 0.930 . S
H1671 C1683 0.929 . S
H1672 C1686 0.930 . S
H1673 C1688 0.960 . S
H1674 C1688 0.960 . S
H1675 C1688 0.960 . S
C1676 H1668 0.929 . S
C1676 C1677 1.377 . S
C1676 C1678 1.384 . S
C1677 C1676 1.377 . S
C1677 C1683 1.390 . S
C1678 H1669 0.930 . S
C1678 C1676 1.384 . S
C1678 C1679 1.372 . S
C1679 C1678 1.372 . S
C1679 C1680 1.400 . S
C1679 C1684 1.490 . S
C1680 H1670 0.930 . S
C1680 C1679 1.400 . S
C1680 C1683 1.386 . S
H1681 C1697 0.930 . S
H1682 C1698 0.931 . S
C1683 H1671 0.929 . S
C1683 C1677 1.390 . S
C1683 C1680 1.386 . S
C1684 C1679 1.490 . S
C1684 C1686 1.395 . S
C1684 C1687 1.403 . S
H1685 C1691 0.930 . S
C1686 H1672 0.930 . S
C1686 C1684 1.395 . S
C1686 C1689 1.403 . S
C1687 C1684 1.403 . S
C1687 C1688 1.524 . S
C1687 C1691 1.400 . S
C1688 H1673 0.960 . S
C1688 H1674 0.960 . S
C1688 H1675 0.960 . S
C1688 C1687 1.524 . S
C1689 C1686 1.403 . S
C1689 C1690 1.392 . S
C1689 C1693 1.495 . S
C1690 C1689 1.392 . S
C1690 C1691 1.385 . S
C1690 C1692 1.478 . S
C1691 H1685 0.930 . S
C1691 C1687 1.400 . S
C1691 C1690 1.385 . S
C1692 C1690 1.478 . S
C1692 C1694 1.381 . S
C1692 C1698 1.383 . S
C1693 C1689 1.495 . S
C1693 H1699 0.959 . S
C1693 H1700 0.961 . S
C1693 H1701 0.960 . S
C1694 C1692 1.381 . S
C1694 C1695 1.394 . S
C1694 H1702 0.930 . S
C1695 C1694 1.394 . S
C1695 C1696 1.383 . S
C1695 H1703 0.929 . S
C1696 C1695 1.383 . S
C1696 C1697 1.377 . S
C1697 H1681 0.930 . S
C1697 C1696 1.377 . S
C1697 C1698 1.379 . S
C1698 H1682 0.931 . S
C1698 C1692 1.383 . S
C1698 C1697 1.379 . S
H1699 C1693 0.959 . S
H1700 C1693 0.961 . S
H1701 C1693 0.960 . S
H1702 C1694 0.930 . S
H1703 C1695 0.929 . S
H1704 C1712 0.929 . S
H1705 C1714 0.930 . S
H1706 C1716 0.930 . S
H1707 C1719 0.929 . S
H1708 C1722 0.930 . S
H1709 C1724 0.960 . S
H1710 C1724 0.960 . S
H1711 C1724 0.960 . S
C1712 H1704 0.929 . S
C1712 C1713 1.377 . S
C1712 C1714 1.384 . S
C1713 C1712 1.377 . S
C1713 C1719 1.390 . S
C1714 H1705 0.930 . S
C1714 C1712 1.384 . S
C1714 C1715 1.372 . S
C1715 C1714 1.372 . S
C1715 C1716 1.400 . S
C1715 C1720 1.490 . S
C1716 H1706 0.930 . S
C1716 C1715 1.400 . S
C1716 C1719 1.386 . S
H1717 C1733 0.930 . S
H1718 C1734 0.931 . S
C1719 H1707 0.929 . S
C1719 C1713 1.390 . S
C1719 C1716 1.386 . S
C1720 C1715 1.490 . S
C1720 C1722 1.395 . S
C1720 C1723 1.403 . S
H1721 C1727 0.930 . S
C1722 H1708 0.930 . S
C1722 C1720 1.395 . S
C1722 C1725 1.403 . S
C1723 C1720 1.403 . S
C1723 C1724 1.524 . S
C1723 C1727 1.400 . S
C1724 H1709 0.960 . S
C1724 H1710 0.960 . S
C1724 H1711 0.960 . S
C1724 C1723 1.524 . S
C1725 C1722 1.403 . S
C1725 C1726 1.392 . S
C1725 C1729 1.495 . S
C1726 C1725 1.392 . S
C1726 C1727 1.385 . S
C1726 C1728 1.478 . S
C1727 H1721 0.930 . S
C1727 C1723 1.400 . S
C1727 C1726 1.385 . S
C1728 C1726 1.478 . S
C1728 C1730 1.381 . S
C1728 C1734 1.383 . S
C1729 C1725 1.495 . S
C1729 H1735 0.959 . S
C1729 H1736 0.961 . S
C1729 H1737 0.960 . S
C1730 C1728 1.381 . S
C1730 C1731 1.394 . S
C1730 H1738 0.930 . S
C1731 C1730 1.394 . S
C1731 C1732 1.383 . S
C1731 H1739 0.929 . S
C1732 C1731 1.383 . S
C1732 C1733 1.377 . S
C1733 H1717 0.930 . S
C1733 C1732 1.377 . S
C1733 C1734 1.379 . S
C1734 H1718 0.931 . S
C1734 C1728 1.383 . S
C1734 C1733 1.379 . S
H1735 C1729 0.959 . S
H1736 C1729 0.961 . S
H1737 C1729 0.960 . S
H1738 C1730 0.930 . S
H1739 C1731 0.929 . S
H1740 C1748 0.929 1_545 S
H1741 C1750 0.930 . S
H1742 C1752 0.930 . S
H1743 C1755 0.929 . S
H1744 C1758 0.930 . S
H1745 C1760 0.960 . S
H1746 C1760 0.960 . S
H1747 C1760 0.960 . S
C1748 H1740 0.929 1_565 S
C1748 C1749 1.379 . S
C1748 C1750 1.384 . S
C1749 C1748 1.379 . S
C1749 C1755 1.403 . S
C1750 H1741 0.930 . S
C1750 C1748 1.384 . S
C1750 C1751 1.372 . S
C1751 C1750 1.372 . S
C1751 C1752 1.400 . S
C1751 C1756 1.490 . S
C1752 H1742 0.930 . S
C1752 C1751 1.400 . S
C1752 C1755 1.386 . S
H1753 C1769 0.930 . S
H1754 C1770 0.931 . S
C1755 H1743 0.929 . S
C1755 C1749 1.403 . S
C1755 C1752 1.386 . S
C1756 C1751 1.490 . S
C1756 C1758 1.395 . S
C1756 C1759 1.403 . S
H1757 C1763 0.930 . S
C1758 H1744 0.930 . S
C1758 C1756 1.395 . S
C1758 C1761 1.403 . S
C1759 C1756 1.403 . S
C1759 C1760 1.524 . S
C1759 C1763 1.400 . S
C1760 H1745 0.960 . S
C1760 H1746 0.960 . S
C1760 H1747 0.960 . S
C1760 C1759 1.524 . S
C1761 C1758 1.403 . S
C1761 C1762 1.392 . S
C1761 C1765 1.495 . S
C1762 C1761 1.392 . S
C1762 C1763 1.385 . S
C1762 C1764 1.478 . S
C1763 H1757 0.930 . S
C1763 C1759 1.400 . S
C1763 C1762 1.385 . S
C1764 C1762 1.478 . S
C1764 C1766 1.381 . S
C1764 C1770 1.383 . S
C1765 C1761 1.495 . S
C1765 H1771 0.959 . S
C1765 H1772 0.961 . S
C1765 H1773 0.960 . S
C1766 C1764 1.381 . S
C1766 C1767 1.394 . S
C1766 H1774 0.930 . S
C1767 C1766 1.394 . S
C1767 C1768 1.383 . S
C1767 H1775 0.929 . S
C1768 C1767 1.383 . S
C1768 C1769 1.377 . S
C1769 H1753 0.930 . S
C1769 C1768 1.377 . S
C1769 C1770 1.379 . S
C1770 H1754 0.931 . S
C1770 C1764 1.383 . S
C1770 C1769 1.379 . S
H1771 C1765 0.959 . S
H1772 C1765 0.961 . S
H1773 C1765 0.960 . S
H1774 C1766 0.930 . S
H1775 C1767 0.929 . S
H1776 C1784 0.929 . S
H1777 C1786 0.930 . S
H1778 C1788 0.930 . S
H1779 C1791 0.929 . S
H1780 C1794 0.930 . S
H1781 C1796 0.960 . S
H1782 C1796 0.960 . S
H1783 C1796 0.960 . S
C1784 H1776 0.929 . S
C1784 C1785 1.377 . S
C1784 C1786 1.384 . S
C1785 C1784 1.377 . S
C1785 C1791 1.390 . S
C1786 H1777 0.930 . S
C1786 C1784 1.384 . S
C1786 C1787 1.372 . S
C1787 C1786 1.372 . S
C1787 C1788 1.400 . S
C1787 C1792 1.490 . S
C1788 H1778 0.930 . S
C1788 C1787 1.400 . S
C1788 C1791 1.386 . S
H1789 C1805 0.930 . S
H1790 C1806 0.931 . S
C1791 H1779 0.929 . S
C1791 C1785 1.390 . S
C1791 C1788 1.386 . S
C1792 C1787 1.490 . S
C1792 C1794 1.395 . S
C1792 C1795 1.403 . S
H1793 C1799 0.930 . S
C1794 H1780 0.930 . S
C1794 C1792 1.395 . S
C1794 C1797 1.403 . S
C1795 C1792 1.403 . S
C1795 C1796 1.524 . S
C1795 C1799 1.400 . S
C1796 H1781 0.960 . S
C1796 H1782 0.960 . S
C1796 H1783 0.960 . S
C1796 C1795 1.524 . S
C1797 C1794 1.403 . S
C1797 C1798 1.392 . S
C1797 C1801 1.495 . S
C1798 C1797 1.392 . S
C1798 C1799 1.385 . S
C1798 C1800 1.478 . S
C1799 H1793 0.930 . S
C1799 C1795 1.400 . S
C1799 C1798 1.385 . S
C1800 C1798 1.478 . S
C1800 C1802 1.381 . S
C1800 C1806 1.383 . S
C1801 C1797 1.495 . S
C1801 H1807 0.959 . S
C1801 H1808 0.961 . S
C1801 H1809 0.960 . S
C1802 C1800 1.381 . S
C1802 C1803 1.394 . S
C1802 H1810 0.930 . S
C1803 C1802 1.394 . S
C1803 C1804 1.383 . S
C1803 H1811 0.929 . S
C1804 C1803 1.383 . S
C1804 C1805 1.377 . S
C1805 H1789 0.930 . S
C1805 C1804 1.377 . S
C1805 C1806 1.379 . S
C1806 H1790 0.931 . S
C1806 C1800 1.383 . S
C1806 C1805 1.379 . S
H1807 C1801 0.959 . S
H1808 C1801 0.961 . S
H1809 C1801 0.960 . S
H1810 C1802 0.930 . S
H1811 C1803 0.929 . S
H1812 C1820 0.929 . S
H1813 C1822 0.930 . S
H1814 C1824 0.930 . S
H1815 C1827 0.929 . S
H1816 C1830 0.930 . S
H1817 C1832 0.960 . S
H1818 C1832 0.960 . S
H1819 C1832 0.960 . S
C1820 H1812 0.929 . S
C1820 C1821 1.377 . S
C1820 C1822 1.384 . S
C1821 C1820 1.377 . S
C1821 C1827 1.390 . S
C1822 H1813 0.930 . S
C1822 C1820 1.384 . S
C1822 C1823 1.372 . S
C1823 C1822 1.372 . S
C1823 C1824 1.400 . S
C1823 C1828 1.490 . S
C1824 H1814 0.930 . S
C1824 C1823 1.400 . S
C1824 C1827 1.386 . S
H1825 C1841 0.930 . S
H1826 C1842 0.931 . S
C1827 H1815 0.929 . S
C1827 C1821 1.390 . S
C1827 C1824 1.386 . S
C1828 C1823 1.490 . S
C1828 C1830 1.395 . S
C1828 C1831 1.403 . S
H1829 C1835 0.930 . S
C1830 H1816 0.930 . S
C1830 C1828 1.395 . S
C1830 C1833 1.403 . S
C1831 C1828 1.403 . S
C1831 C1832 1.524 . S
C1831 C1835 1.400 . S
C1832 H1817 0.960 . S
C1832 H1818 0.960 . S
C1832 H1819 0.960 . S
C1832 C1831 1.524 . S
C1833 C1830 1.403 . S
C1833 C1834 1.392 . S
C1833 C1837 1.495 . S
C1834 C1833 1.392 . S
C1834 C1835 1.385 . S
C1834 C1836 1.478 . S
C1835 H1829 0.930 . S
C1835 C1831 1.400 . S
C1835 C1834 1.385 . S
C1836 C1834 1.478 . S
C1836 C1838 1.381 . S
C1836 C1842 1.383 . S
C1837 C1833 1.495 . S
C1837 H1843 0.959 . S
C1837 H1844 0.961 . S
C1837 H1845 0.960 . S
C1838 C1836 1.381 . S
C1838 C1839 1.394 . S
C1838 H1846 0.930 . S
C1839 C1838 1.394 . S
C1839 C1840 1.383 . S
C1839 H1847 0.929 . S
C1840 C1839 1.383 . S
C1840 C1841 1.377 . S
C1841 H1825 0.930 . S
C1841 C1840 1.377 . S
C1841 C1842 1.379 . S
C1842 H1826 0.931 . S
C1842 C1836 1.383 . S
C1842 C1841 1.379 . S
H1843 C1837 0.959 . S
H1844 C1837 0.961 . S
H1845 C1837 0.960 . S
H1846 C1838 0.930 . S
H1847 C1839 0.929 . S
H1848 C1856 0.929 . S
H1849 C1858 0.930 . S
H1850 C1860 0.930 . S
H1851 C1863 0.929 . S
H1852 C1866 0.930 . S
H1853 C1868 0.960 . S
H1854 C1868 0.960 . S
H1855 C1868 0.960 . S
C1856 H1848 0.929 . S
C1856 C1857 1.377 . S
C1856 C1858 1.384 . S
C1857 C1856 1.377 . S
C1857 C1863 1.390 . S
C1858 H1849 0.930 . S
C1858 C1856 1.384 . S
C1858 C1859 1.372 . S
C1859 C1858 1.372 . S
C1859 C1860 1.400 . S
C1859 C1864 1.490 . S
C1860 H1850 0.930 . S
C1860 C1859 1.400 . S
C1860 C1863 1.386 . S
H1861 C1877 0.930 . S
H1862 C1878 0.931 . S
C1863 H1851 0.929 . S
C1863 C1857 1.390 . S
C1863 C1860 1.386 . S
C1864 C1859 1.490 . S
C1864 C1866 1.395 . S
C1864 C1867 1.403 . S
H1865 C1871 0.930 . S
C1866 H1852 0.930 . S
C1866 C1864 1.395 . S
C1866 C1869 1.403 . S
C1867 C1864 1.403 . S
C1867 C1868 1.524 . S
C1867 C1871 1.400 . S
C1868 H1853 0.960 . S
C1868 H1854 0.960 . S
C1868 H1855 0.960 . S
C1868 C1867 1.524 . S
C1869 C1866 1.403 . S
C1869 C1870 1.392 . S
C1869 C1873 1.495 . S
C1870 C1869 1.392 . S
C1870 C1871 1.385 . S
C1870 C1872 1.478 . S
C1871 H1865 0.930 . S
C1871 C1867 1.400 . S
C1871 C1870 1.385 . S
C1872 C1870 1.478 . S
C1872 C1874 1.381 . S
C1872 C1878 1.383 . S
C1873 C1869 1.495 . S
C1873 H1879 0.959 . S
C1873 H1880 0.961 . S
C1873 H1881 0.960 . S
C1874 C1872 1.381 . S
C1874 C1875 1.394 . S
C1874 H1882 0.930 . S
C1875 C1874 1.394 . S
C1875 C1876 1.383 . S
C1875 H1883 0.929 . S
C1876 C1875 1.383 . S
C1876 C1877 1.377 . S
C1877 H1861 0.930 . S
C1877 C1876 1.377 . S
C1877 C1878 1.379 . S
C1878 H1862 0.931 . S
C1878 C1872 1.383 . S
C1878 C1877 1.379 . S
H1879 C1873 0.959 . S
H1880 C1873 0.961 . S
H1881 C1873 0.960 . S
H1882 C1874 0.930 . S
H1883 C1875 0.929 . S
H1884 C1892 0.929 . S
H1885 C1894 0.930 . S
H1886 C1896 0.930 . S
H1887 C1899 0.929 . S
H1888 C1902 0.930 . S
H1889 C1904 0.960 . S
H1890 C1904 0.960 . S
H1891 C1904 0.960 . S
C1892 H1884 0.929 . S
C1892 C1893 1.377 . S
C1892 C1894 1.384 . S
C1893 C1892 1.377 . S
C1893 C1899 1.390 . S
C1894 H1885 0.930 . S
C1894 C1892 1.384 . S
C1894 C1895 1.372 . S
C1895 C1894 1.372 . S
C1895 C1896 1.400 . S
C1895 C1900 1.490 . S
C1896 H1886 0.930 . S
C1896 C1895 1.400 . S
C1896 C1899 1.386 . S
H1897 C1913 0.930 . S
H1898 C1914 0.931 . S
C1899 H1887 0.929 . S
C1899 C1893 1.390 . S
C1899 C1896 1.386 . S
C1900 C1895 1.490 . S
C1900 C1902 1.395 . S
C1900 C1903 1.403 . S
H1901 C1907 0.930 . S
C1902 H1888 0.930 . S
C1902 C1900 1.395 . S
C1902 C1905 1.403 . S
C1903 C1900 1.403 . S
C1903 C1904 1.524 . S
C1903 C1907 1.400 . S
C1904 H1889 0.960 . S
C1904 H1890 0.960 . S
C1904 H1891 0.960 . S
C1904 C1903 1.524 . S
C1905 C1902 1.403 . S
C1905 C1906 1.392 . S
C1905 C1909 1.495 . S
C1906 C1905 1.392 . S
C1906 C1907 1.385 . S
C1906 C1908 1.478 . S
C1907 H1901 0.930 . S
C1907 C1903 1.400 . S
C1907 C1906 1.385 . S
C1908 C1906 1.478 . S
C1908 C1910 1.381 . S
C1908 C1914 1.383 . S
C1909 C1905 1.495 . S
C1909 H1915 0.959 . S
C1909 H1916 0.961 . S
C1909 H1917 0.960 . S
C1910 C1908 1.381 . S
C1910 C1911 1.394 . S
C1910 H1918 0.930 . S
C1911 C1910 1.394 . S
C1911 C1912 1.383 . S
C1911 H1919 0.929 . S
C1912 C1911 1.383 . S
C1912 C1913 1.377 . S
C1913 H1897 0.930 . S
C1913 C1912 1.377 . S
C1913 C1914 1.379 . S
C1914 H1898 0.931 . S
C1914 C1908 1.383 . S
C1914 C1913 1.379 . S
H1915 C1909 0.959 . S
H1916 C1909 0.961 . S
H1917 C1909 0.960 . S
H1918 C1910 0.930 . S
H1919 C1911 0.929 . S
H1920 C1928 0.929 . S
H1921 C1930 0.930 . S
H1922 C1932 0.930 . S
H1923 C1935 0.929 . S
H1924 C1938 0.930 . S
H1925 C1940 0.960 . S
H1926 C1940 0.960 . S
H1927 C1940 0.960 . S
C1928 H1920 0.929 . S
C1928 C1929 1.377 . S
C1928 C1930 1.384 . S
C1929 C1928 1.377 . S
C1929 C1935 1.390 . S
C1930 H1921 0.930 . S
C1930 C1928 1.384 . S
C1930 C1931 1.372 . S
C1931 C1930 1.372 . S
C1931 C1932 1.400 . S
C1931 C1936 1.490 . S
C1932 H1922 0.930 . S
C1932 C1931 1.400 . S
C1932 C1935 1.386 . S
H1933 C1949 0.930 . S
H1934 C1950 0.931 . S
C1935 H1923 0.929 . S
C1935 C1929 1.390 . S
C1935 C1932 1.386 . S
C1936 C1931 1.490 . S
C1936 C1938 1.395 . S
C1936 C1939 1.403 . S
H1937 C1943 0.930 . S
C1938 H1924 0.930 . S
C1938 C1936 1.395 . S
C1938 C1941 1.403 . S
C1939 C1936 1.403 . S
C1939 C1940 1.524 . S
C1939 C1943 1.400 . S
C1940 H1925 0.960 . S
C1940 H1926 0.960 . S
C1940 H1927 0.960 . S
C1940 C1939 1.524 . S
C1941 C1938 1.403 . S
C1941 C1942 1.392 . S
C1941 C1945 1.495 . S
C1942 C1941 1.392 . S
C1942 C1943 1.385 . S
C1942 C1944 1.478 . S
C1943 H1937 0.930 . S
C1943 C1939 1.400 . S
C1943 C1942 1.385 . S
C1944 C1942 1.478 . S
C1944 C1946 1.381 . S
C1944 C1950 1.383 . S
C1945 C1941 1.495 . S
C1945 H1951 0.959 . S
C1945 H1952 0.961 . S
C1945 H1953 0.960 . S
C1946 C1944 1.381 . S
C1946 C1947 1.394 . S
C1946 H1954 0.930 . S
C1947 C1946 1.394 . S
C1947 C1948 1.383 . S
C1947 H1955 0.929 . S
C1948 C1947 1.383 . S
C1948 C1949 1.377 . S
C1949 H1933 0.930 . S
C1949 C1948 1.377 . S
C1949 C1950 1.379 . S
C1950 H1934 0.931 . S
C1950 C1944 1.383 . S
C1950 C1949 1.379 . S
H1951 C1945 0.959 . S
H1952 C1945 0.961 . S
H1953 C1945 0.960 . S
H1954 C1946 0.930 . S
H1955 C1947 0.929 . S
H1956 C1964 0.929 . S
H1957 C1966 0.930 . S
H1958 C1968 0.930 . S
H1959 C1971 0.929 . S
H1960 C1974 0.930 . S
H1961 C1976 0.960 . S
H1962 C1976 0.960 . S
H1963 C1976 0.960 . S
C1964 H1956 0.929 . S
C1964 C1965 1.377 . S
C1964 C1966 1.384 . S
C1965 C1964 1.377 . S
C1965 C1971 1.390 . S
C1966 H1957 0.930 . S
C1966 C1964 1.384 . S
C1966 C1967 1.372 . S
C1967 C1966 1.372 . S
C1967 C1968 1.400 . S
C1967 C1972 1.490 . S
C1968 H1958 0.930 . S
C1968 C1967 1.400 . S
C1968 C1971 1.386 . S
H1969 C1985 0.930 . S
H1970 C1986 0.931 . S
C1971 H1959 0.929 . S
C1971 C1965 1.390 . S
C1971 C1968 1.386 . S
C1972 C1967 1.490 . S
C1972 C1974 1.395 . S
C1972 C1975 1.403 . S
H1973 C1979 0.930 . S
C1974 H1960 0.930 . S
C1974 C1972 1.395 . S
C1974 C1977 1.403 . S
C1975 C1972 1.403 . S
C1975 C1976 1.524 . S
C1975 C1979 1.400 . S
C1976 H1961 0.960 . S
C1976 H1962 0.960 . S
C1976 H1963 0.960 . S
C1976 C1975 1.524 . S
C1977 C1974 1.403 . S
C1977 C1978 1.392 . S
C1977 C1981 1.495 . S
C1978 C1977 1.392 . S
C1978 C1979 1.385 . S
C1978 C1980 1.478 . S
C1979 H1973 0.930 . S
C1979 C1975 1.400 . S
C1979 C1978 1.385 . S
C1980 C1978 1.478 . S
C1980 C1982 1.381 . S
C1980 C1986 1.383 . S
C1981 C1977 1.495 . S
C1981 H1987 0.959 . S
C1981 H1988 0.961 . S
C1981 H1989 0.960 . S
C1982 C1980 1.381 . S
C1982 C1983 1.394 . S
C1982 H1990 0.930 . S
C1983 C1982 1.394 . S
C1983 C1984 1.383 . S
C1983 H1991 0.929 . S
C1984 C1983 1.383 . S
C1984 C1985 1.377 . S
C1985 H1969 0.930 . S
C1985 C1984 1.377 . S
C1985 C1986 1.379 . S
C1986 H1970 0.931 . S
C1986 C1980 1.383 . S
C1986 C1985 1.379 . S
H1987 C1981 0.959 . S
H1988 C1981 0.961 . S
H1989 C1981 0.960 . S
H1990 C1982 0.930 . S
H1991 C1983 0.929 . S
H1992 C2000 0.929 . S
H1993 C2002 0.930 . S
H1994 C2004 0.930 . S
H1995 C2007 0.929 . S
H1996 C2010 0.930 . S
H1997 C2012 0.960 . S
H1998 C2012 0.960 . S
H1999 C2012 0.960 . S
C2000 H1992 0.929 . S
C2000 C2001 1.377 . S
C2000 C2002 1.384 . S
C2001 C2000 1.377 . S
C2001 C2007 1.390 . S
C2002 H1993 0.930 . S
C2002 C2000 1.384 . S
C2002 C2003 1.372 . S
C2003 C2002 1.372 . S
C2003 C2004 1.400 . S
C2003 C2008 1.490 . S
C2004 H1994 0.930 . S
C2004 C2003 1.400 . S
C2004 C2007 1.386 . S
H2005 C2021 0.930 . S
H2006 C2022 0.931 . S
C2007 H1995 0.929 . S
C2007 C2001 1.390 . S
C2007 C2004 1.386 . S
C2008 C2003 1.490 . S
C2008 C2010 1.395 . S
C2008 C2011 1.403 . S
H2009 C2015 0.930 . S
C2010 H1996 0.930 . S
C2010 C2008 1.395 . S
C2010 C2013 1.403 . S
C2011 C2008 1.403 . S
C2011 C2012 1.524 . S
C2011 C2015 1.400 . S
C2012 H1997 0.960 . S
C2012 H1998 0.960 . S
C2012 H1999 0.960 . S
C2012 C2011 1.524 . S
C2013 C2010 1.403 . S
C2013 C2014 1.392 . S
C2013 C2017 1.495 . S
C2014 C2013 1.392 . S
C2014 C2015 1.385 . S
C2014 C2016 1.478 . S
C2015 H2009 0.930 . S
C2015 C2011 1.400 . S
C2015 C2014 1.385 . S
C2016 C2014 1.478 . S
C2016 C2018 1.381 . S
C2016 C2022 1.383 . S
C2017 C2013 1.495 . S
C2017 H2023 0.959 . S
C2017 H2024 0.961 . S
C2017 H2025 0.960 . S
C2018 C2016 1.381 . S
C2018 C2019 1.394 . S
C2018 H2026 0.930 . S
C2019 C2018 1.394 . S
C2019 C2020 1.383 . S
C2019 H2027 0.929 . S
C2020 C2019 1.383 . S
C2020 C2021 1.377 . S
C2021 H2005 0.930 . S
C2021 C2020 1.377 . S
C2021 C2022 1.379 . S
C2022 H2006 0.931 . S
C2022 C2016 1.383 . S
C2022 C2021 1.379 . S
H2023 C2017 0.959 . S
H2024 C2017 0.961 . S
H2025 C2017 0.960 . S
H2026 C2018 0.930 . S
H2027 C2019 0.929 . S
H2028 C2036 0.929 . S
H2029 C2038 0.930 . S
H2030 C2040 0.930 . S
H2031 C2043 0.929 . S
H2032 C2046 0.930 . S
H2033 C2048 0.960 . S
H2034 C2048 0.960 . S
H2035 C2048 0.960 . S
C2036 H2028 0.929 . S
C2036 C2037 1.377 . S
C2036 C2038 1.384 . S
C2037 C2036 1.377 . S
C2037 C2043 1.390 . S
C2038 H2029 0.930 . S
C2038 C2036 1.384 . S
C2038 C2039 1.372 . S
C2039 C2038 1.372 . S
C2039 C2040 1.400 . S
C2039 C2044 1.490 . S
C2040 H2030 0.930 . S
C2040 C2039 1.400 . S
C2040 C2043 1.386 . S
H2041 C2057 0.930 . S
H2042 C2058 0.931 . S
C2043 H2031 0.929 . S
C2043 C2037 1.390 . S
C2043 C2040 1.386 . S
C2044 C2039 1.490 . S
C2044 C2046 1.395 . S
C2044 C2047 1.403 . S
H2045 C2051 0.930 . S
C2046 H2032 0.930 . S
C2046 C2044 1.395 . S
C2046 C2049 1.403 . S
C2047 C2044 1.403 . S
C2047 C2048 1.524 . S
C2047 C2051 1.400 . S
C2048 H2033 0.960 . S
C2048 H2034 0.960 . S
C2048 H2035 0.960 . S
C2048 C2047 1.524 . S
C2049 C2046 1.403 . S
C2049 C2050 1.392 . S
C2049 C2053 1.495 . S
C2050 C2049 1.392 . S
C2050 C2051 1.385 . S
C2050 C2052 1.478 . S
C2051 H2045 0.930 . S
C2051 C2047 1.400 . S
C2051 C2050 1.385 . S
C2052 C2050 1.478 . S
C2052 C2054 1.381 . S
C2052 C2058 1.383 . S
C2053 C2049 1.495 . S
C2053 H2059 0.959 . S
C2053 H2060 0.961 . S
C2053 H2061 0.960 . S
C2054 C2052 1.381 . S
C2054 C2055 1.394 . S
C2054 H2062 0.930 . S
C2055 C2054 1.394 . S
C2055 C2056 1.383 . S
C2055 H2063 0.929 . S
C2056 C2055 1.383 . S
C2056 C2057 1.377 . S
C2057 H2041 0.930 . S
C2057 C2056 1.377 . S
C2057 C2058 1.379 . S
C2058 H2042 0.931 . S
C2058 C2052 1.383 . S
C2058 C2057 1.379 . S
H2059 C2053 0.959 . S
H2060 C2053 0.961 . S
H2061 C2053 0.960 . S
H2062 C2054 0.930 . S
H2063 C2055 0.929 . S
H2064 C2072 0.929 . S
H2065 C2074 0.930 . S
H2066 C2076 0.930 . S
H2067 C2079 0.929 . S
H2068 C2082 0.930 . S
H2069 C2084 0.960 . S
H2070 C2084 0.960 . S
H2071 C2084 0.960 . S
C2072 H2064 0.929 . S
C2072 C2073 1.377 . S
C2072 C2074 1.384 . S
C2073 C2072 1.377 . S
C2073 C2079 1.390 . S
C2074 H2065 0.930 . S
C2074 C2072 1.384 . S
C2074 C2075 1.372 . S
C2075 C2074 1.372 . S
C2075 C2076 1.400 . S
C2075 C2080 1.490 . S
C2076 H2066 0.930 . S
C2076 C2075 1.400 . S
C2076 C2079 1.386 . S
H2077 C2093 0.930 . S
H2078 C2094 0.931 . S
C2079 H2067 0.929 . S
C2079 C2073 1.390 . S
C2079 C2076 1.386 . S
C2080 C2075 1.490 . S
C2080 C2082 1.395 . S
C2080 C2083 1.403 . S
H2081 C2087 0.930 . S
C2082 H2068 0.930 . S
C2082 C2080 1.395 . S
C2082 C2085 1.403 . S
C2083 C2080 1.403 . S
C2083 C2084 1.524 . S
C2083 C2087 1.400 . S
C2084 H2069 0.960 . S
C2084 H2070 0.960 . S
C2084 H2071 0.960 . S
C2084 C2083 1.524 . S
C2085 C2082 1.403 . S
C2085 C2086 1.392 . S
C2085 C2089 1.495 . S
C2086 C2085 1.392 . S
C2086 C2087 1.385 . S
C2086 C2088 1.478 . S
C2087 H2081 0.930 . S
C2087 C2083 1.400 . S
C2087 C2086 1.385 . S
C2088 C2086 1.478 . S
C2088 C2090 1.381 . S
C2088 C2094 1.383 . S
C2089 C2085 1.495 . S
C2089 H2095 0.959 . S
C2089 H2096 0.961 . S
C2089 H2097 0.960 . S
C2090 C2088 1.381 . S
C2090 C2091 1.394 . S
C2090 H2098 0.930 . S
C2091 C2090 1.394 . S
C2091 C2092 1.383 . S
C2091 H2099 0.929 . S
C2092 C2091 1.383 . S
C2092 C2093 1.377 . S
C2093 H2077 0.930 . S
C2093 C2092 1.377 . S
C2093 C2094 1.379 . S
C2094 H2078 0.931 . S
C2094 C2088 1.383 . S
C2094 C2093 1.379 . S
H2095 C2089 0.959 . S
H2096 C2089 0.961 . S
H2097 C2089 0.960 . S
H2098 C2090 0.930 . S
H2099 C2091 0.929 . S
H2100 C2108 0.929 . S
H2101 C2110 0.930 . S
H2102 C2112 0.930 . S
H2103 C2115 0.929 . S
H2104 C2118 0.930 . S
H2105 C2120 0.960 . S
H2106 C2120 0.960 . S
H2107 C2120 0.960 . S
C2108 H2100 0.929 . S
C2108 C2109 1.377 . S
C2108 C2110 1.384 . S
C2109 C2108 1.377 . S
C2109 C2115 1.390 . S
C2110 H2101 0.930 . S
C2110 C2108 1.384 . S
C2110 C2111 1.372 . S
C2111 C2110 1.372 . S
C2111 C2112 1.400 . S
C2111 C2116 1.490 . S
C2112 H2102 0.930 . S
C2112 C2111 1.400 . S
C2112 C2115 1.386 . S
H2113 C2129 0.930 . S
H2114 C2130 0.931 . S
C2115 H2103 0.929 . S
C2115 C2109 1.390 . S
C2115 C2112 1.386 . S
C2116 C2111 1.490 . S
C2116 C2118 1.395 . S
C2116 C2119 1.403 . S
H2117 C2123 0.930 . S
C2118 H2104 0.930 . S
C2118 C2116 1.395 . S
C2118 C2121 1.403 . S
C2119 C2116 1.403 . S
C2119 C2120 1.524 . S
C2119 C2123 1.400 . S
C2120 H2105 0.960 . S
C2120 H2106 0.960 . S
C2120 H2107 0.960 . S
C2120 C2119 1.524 . S
C2121 C2118 1.403 . S
C2121 C2122 1.392 . S
C2121 C2125 1.495 . S
C2122 C2121 1.392 . S
C2122 C2123 1.385 . S
C2122 C2124 1.478 . S
C2123 H2117 0.930 . S
C2123 C2119 1.400 . S
C2123 C2122 1.385 . S
C2124 C2122 1.478 . S
C2124 C2126 1.381 . S
C2124 C2130 1.383 . S
C2125 C2121 1.495 . S
C2125 H2131 0.959 . S
C2125 H2132 0.961 . S
C2125 H2133 0.960 . S
C2126 C2124 1.381 . S
C2126 C2127 1.394 . S
C2126 H2134 0.930 . S
C2127 C2126 1.394 . S
C2127 C2128 1.383 . S
C2127 H2135 0.929 . S
C2128 C2127 1.383 . S
C2128 C2129 1.377 . S
C2129 H2113 0.930 . S
C2129 C2128 1.377 . S
C2129 C2130 1.379 . S
C2130 H2114 0.931 . S
C2130 C2124 1.383 . S
C2130 C2129 1.379 . S
H2131 C2125 0.959 . S
H2132 C2125 0.961 . S
H2133 C2125 0.960 . S
H2134 C2126 0.930 . S
H2135 C2127 0.929 . S
H2136 C2144 0.929 . S
H2137 C2146 0.930 . S
H2138 C2148 0.930 . S
H2139 C2151 0.929 . S
H2140 C2154 0.930 . S
H2141 C2156 0.960 . S
H2142 C2156 0.960 . S
H2143 C2156 0.960 . S
C2144 H2136 0.929 . S
C2144 C2145 1.377 . S
C2144 C2146 1.384 . S
C2145 C2144 1.377 . S
C2145 C2151 1.390 . S
C2146 H2137 0.930 . S
C2146 C2144 1.384 . S
C2146 C2147 1.372 . S
C2147 C2146 1.372 . S
C2147 C2148 1.400 . S
C2147 C2152 1.490 . S
C2148 H2138 0.930 . S
C2148 C2147 1.400 . S
C2148 C2151 1.386 . S
H2149 C2165 0.930 . S
H2150 C2166 0.931 . S
C2151 H2139 0.929 . S
C2151 C2145 1.390 . S
C2151 C2148 1.386 . S
C2152 C2147 1.490 . S
C2152 C2154 1.395 . S
C2152 C2155 1.403 . S
H2153 C2159 0.930 . S
C2154 H2140 0.930 . S
C2154 C2152 1.395 . S
C2154 C2157 1.403 . S
C2155 C2152 1.403 . S
C2155 C2156 1.524 . S
C2155 C2159 1.400 . S
C2156 H2141 0.960 . S
C2156 H2142 0.960 . S
C2156 H2143 0.960 . S
C2156 C2155 1.524 . S
C2157 C2154 1.403 . S
C2157 C2158 1.392 . S
C2157 C2161 1.495 . S
C2158 C2157 1.392 . S
C2158 C2159 1.385 . S
C2158 C2160 1.478 . S
C2159 H2153 0.930 . S
C2159 C2155 1.400 . S
C2159 C2158 1.385 . S
C2160 C2158 1.478 . S
C2160 C2162 1.381 . S
C2160 C2166 1.383 . S
C2161 C2157 1.495 . S
C2161 H2167 0.959 . S
C2161 H2168 0.961 . S
C2161 H2169 0.960 . S
C2162 C2160 1.381 . S
C2162 C2163 1.394 . S
C2162 H2170 0.930 . S
C2163 C2162 1.394 . S
C2163 C2164 1.383 . S
C2163 H2171 0.929 . S
C2164 C2163 1.383 . S
C2164 C2165 1.377 . S
C2165 H2149 0.930 . S
C2165 C2164 1.377 . S
C2165 C2166 1.379 . S
C2166 H2150 0.931 . S
C2166 C2160 1.383 . S
C2166 C2165 1.379 . S
H2167 C2161 0.959 . S
H2168 C2161 0.961 . S
H2169 C2161 0.960 . S
H2170 C2162 0.930 . S
H2171 C2163 0.929 . S
H2172 C2180 0.929 . S
H2173 C2182 0.930 . S
H2174 C2184 0.930 . S
H2175 C2187 0.929 . S
H2176 C2190 0.930 . S
H2177 C2192 0.960 . S
H2178 C2192 0.960 . S
H2179 C2192 0.960 . S
C2180 H2172 0.929 . S
C2180 C2181 1.377 . S
C2180 C2182 1.384 . S
C2181 C2180 1.377 . S
C2181 C2187 1.390 . S
C2182 H2173 0.930 . S
C2182 C2180 1.384 . S
C2182 C2183 1.372 . S
C2183 C2182 1.372 . S
C2183 C2184 1.400 . S
C2183 C2188 1.490 . S
C2184 H2174 0.930 . S
C2184 C2183 1.400 . S
C2184 C2187 1.386 . S
H2185 C2201 0.930 . S
H2186 C2202 0.931 . S
C2187 H2175 0.929 . S
C2187 C2181 1.390 . S
C2187 C2184 1.386 . S
C2188 C2183 1.490 . S
C2188 C2190 1.395 . S
C2188 C2191 1.403 . S
H2189 C2195 0.930 . S
C2190 H2176 0.930 . S
C2190 C2188 1.395 . S
C2190 C2193 1.403 . S
C2191 C2188 1.403 . S
C2191 C2192 1.524 . S
C2191 C2195 1.400 . S
C2192 H2177 0.960 . S
C2192 H2178 0.960 . S
C2192 H2179 0.960 . S
C2192 C2191 1.524 . S
C2193 C2190 1.403 . S
C2193 C2194 1.392 . S
C2193 C2197 1.495 . S
C2194 C2193 1.392 . S
C2194 C2195 1.385 . S
C2194 C2196 1.478 . S
C2195 H2189 0.930 . S
C2195 C2191 1.400 . S
C2195 C2194 1.385 . S
C2196 C2194 1.478 . S
C2196 C2198 1.381 . S
C2196 C2202 1.383 . S
C2197 C2193 1.495 . S
C2197 H2203 0.959 . S
C2197 H2204 0.961 . S
C2197 H2205 0.960 . S
C2198 C2196 1.381 . S
C2198 C2199 1.394 . S
C2198 H2206 0.930 . S
C2199 C2198 1.394 . S
C2199 C2200 1.383 . S
C2199 H2207 0.929 . S
C2200 C2199 1.383 . S
C2200 C2201 1.377 . S
C2201 H2185 0.930 . S
C2201 C2200 1.377 . S
C2201 C2202 1.379 . S
C2202 H2186 0.931 . S
C2202 C2196 1.383 . S
C2202 C2201 1.379 . S
H2203 C2197 0.959 . S
H2204 C2197 0.961 . S
H2205 C2197 0.960 . S
H2206 C2198 0.930 . S
H2207 C2199 0.929 . S
H2208 C2216 0.929 . S
H2209 C2218 0.930 . S
H2210 C2220 0.930 . S
H2211 C2223 0.929 . S
H2212 C2226 0.930 . S
H2213 C2228 0.960 . S
H2214 C2228 0.960 . S
H2215 C2228 0.960 . S
C2216 H2208 0.929 . S
C2216 C2217 1.377 . S
C2216 C2218 1.384 . S
C2217 C2216 1.377 . S
C2217 C2223 1.390 . S
C2218 H2209 0.930 . S
C2218 C2216 1.384 . S
C2218 C2219 1.372 . S
C2219 C2218 1.372 . S
C2219 C2220 1.400 . S
C2219 C2224 1.490 . S
C2220 H2210 0.930 . S
C2220 C2219 1.400 . S
C2220 C2223 1.386 . S
H2221 C2237 0.930 . S
H2222 C2238 0.931 . S
C2223 H2211 0.929 . S
C2223 C2217 1.390 . S
C2223 C2220 1.386 . S
C2224 C2219 1.490 . S
C2224 C2226 1.395 . S
C2224 C2227 1.403 . S
H2225 C2231 0.930 . S
C2226 H2212 0.930 . S
C2226 C2224 1.395 . S
C2226 C2229 1.403 . S
C2227 C2224 1.403 . S
C2227 C2228 1.524 . S
C2227 C2231 1.400 . S
C2228 H2213 0.960 . S
C2228 H2214 0.960 . S
C2228 H2215 0.960 . S
C2228 C2227 1.524 . S
C2229 C2226 1.403 . S
C2229 C2230 1.392 . S
C2229 C2233 1.495 . S
C2230 C2229 1.392 . S
C2230 C2231 1.385 . S
C2230 C2232 1.478 . S
C2231 H2225 0.930 . S
C2231 C2227 1.400 . S
C2231 C2230 1.385 . S
C2232 C2230 1.478 . S
C2232 C2234 1.381 . S
C2232 C2238 1.383 . S
C2233 C2229 1.495 . S
C2233 H2239 0.959 . S
C2233 H2240 0.961 . S
C2233 H2241 0.960 . S
C2234 C2232 1.381 . S
C2234 C2235 1.394 . S
C2234 H2242 0.930 . S
C2235 C2234 1.394 . S
C2235 C2236 1.383 . S
C2235 H2243 0.929 . S
C2236 C2235 1.383 . S
C2236 C2237 1.377 . S
C2237 H2221 0.930 . S
C2237 C2236 1.377 . S
C2237 C2238 1.379 . S
C2238 H2222 0.931 . S
C2238 C2232 1.383 . S
C2238 C2237 1.379 . S
H2239 C2233 0.959 . S
H2240 C2233 0.961 . S
H2241 C2233 0.960 . S
H2242 C2234 0.930 . S
H2243 C2235 0.929 . S
H2244 C2252 0.929 . S
H2245 C2254 0.930 . S
H2246 C2256 0.930 . S
H2247 C2259 0.929 . S
H2248 C2262 0.930 . S
H2249 C2264 0.960 . S
H2250 C2264 0.960 . S
H2251 C2264 0.960 . S
C2252 H2244 0.929 . S
C2252 C2253 1.377 . S
C2252 C2254 1.384 . S
C2253 C2252 1.377 . S
C2253 C2259 1.390 . S
C2254 H2245 0.930 . S
C2254 C2252 1.384 . S
C2254 C2255 1.372 . S
C2255 C2254 1.372 . S
C2255 C2256 1.400 . S
C2255 C2260 1.490 . S
C2256 H2246 0.930 . S
C2256 C2255 1.400 . S
C2256 C2259 1.386 . S
H2257 C2273 0.930 . S
H2258 C2274 0.931 . S
C2259 H2247 0.929 . S
C2259 C2253 1.390 . S
C2259 C2256 1.386 . S
C2260 C2255 1.490 . S
C2260 C2262 1.395 . S
C2260 C2263 1.403 . S
H2261 C2267 0.930 . S
C2262 H2248 0.930 . S
C2262 C2260 1.395 . S
C2262 C2265 1.403 . S
C2263 C2260 1.403 . S
C2263 C2264 1.524 . S
C2263 C2267 1.400 . S
C2264 H2249 0.960 . S
C2264 H2250 0.960 . S
C2264 H2251 0.960 . S
C2264 C2263 1.524 . S
C2265 C2262 1.403 . S
C2265 C2266 1.392 . S
C2265 C2269 1.495 . S
C2266 C2265 1.392 . S
C2266 C2267 1.385 . S
C2266 C2268 1.478 . S
C2267 H2261 0.930 . S
C2267 C2263 1.400 . S
C2267 C2266 1.385 . S
C2268 C2266 1.478 . S
C2268 C2270 1.381 . S
C2268 C2274 1.383 . S
C2269 C2265 1.495 . S
C2269 H2275 0.959 . S
C2269 H2276 0.961 . S
C2269 H2277 0.960 . S
C2270 C2268 1.381 . S
C2270 C2271 1.394 . S
C2270 H2278 0.930 . S
C2271 C2270 1.394 . S
C2271 C2272 1.383 . S
C2271 H2279 0.929 . S
C2272 C2271 1.383 . S
C2272 C2273 1.377 . S
C2273 H2257 0.930 . S
C2273 C2272 1.377 . S
C2273 C2274 1.379 . S
C2274 H2258 0.931 . S
C2274 C2268 1.383 . S
C2274 C2273 1.379 . S
H2275 C2269 0.959 . S
H2276 C2269 0.961 . S
H2277 C2269 0.960 . S
H2278 C2270 0.930 . S
H2279 C2271 0.929 . S
H2280 C2288 0.929 . S
H2281 C2290 0.930 . S
H2282 C2292 0.930 . S
H2283 C2295 0.929 . S
H2284 C2298 0.930 . S
H2285 C2300 0.960 . S
H2286 C2300 0.960 . S
H2287 C2300 0.960 . S
C2288 H2280 0.929 . S
C2288 C2289 1.377 . S
C2288 C2290 1.384 . S
C2289 C2288 1.377 . S
C2289 C2295 1.390 . S
C2290 H2281 0.930 . S
C2290 C2288 1.384 . S
C2290 C2291 1.372 . S
C2291 C2290 1.372 . S
C2291 C2292 1.400 . S
C2291 C2296 1.490 . S
C2292 H2282 0.930 . S
C2292 C2291 1.400 . S
C2292 C2295 1.386 . S
H2293 C2309 0.930 . S
H2294 C2310 0.931 . S
C2295 H2283 0.929 . S
C2295 C2289 1.390 . S
C2295 C2292 1.386 . S
C2296 C2291 1.490 . S
C2296 C2298 1.395 . S
C2296 C2299 1.403 . S
H2297 C2303 0.930 . S
C2298 H2284 0.930 . S
C2298 C2296 1.395 . S
C2298 C2301 1.403 . S
C2299 C2296 1.403 . S
C2299 C2300 1.524 . S
C2299 C2303 1.400 . S
C2300 H2285 0.960 . S
C2300 H2286 0.960 . S
C2300 H2287 0.960 . S
C2300 C2299 1.524 . S
C2301 C2298 1.403 . S
C2301 C2302 1.392 . S
C2301 C2305 1.495 . S
C2302 C2301 1.392 . S
C2302 C2303 1.385 . S
C2302 C2304 1.478 . S
C2303 H2297 0.930 . S
C2303 C2299 1.400 . S
C2303 C2302 1.385 . S
C2304 C2302 1.478 . S
C2304 C2306 1.381 . S
C2304 C2310 1.383 . S
C2305 C2301 1.495 . S
C2305 H2311 0.959 . S
C2305 H2312 0.961 . S
C2305 H2313 0.960 . S
C2306 C2304 1.381 . S
C2306 C2307 1.394 . S
C2306 H2314 0.930 . S
C2307 C2306 1.394 . S
C2307 C2308 1.383 . S
C2307 H2315 0.929 . S
C2308 C2307 1.383 . S
C2308 C2309 1.377 . S
C2309 H2293 0.930 . S
C2309 C2308 1.377 . S
C2309 C2310 1.379 . S
C2310 H2294 0.931 . S
C2310 C2304 1.383 . S
C2310 C2309 1.379 . S
H2311 C2305 0.959 . S
H2312 C2305 0.961 . S
H2313 C2305 0.960 . S
H2314 C2306 0.930 . S
H2315 C2307 0.929 . S
H2316 C2324 0.929 . S
H2317 C2326 0.930 . S
H2318 C2328 0.930 . S
H2319 C2331 0.929 . S
H2320 C2334 0.930 . S
H2321 C2336 0.960 . S
H2322 C2336 0.960 . S
H2323 C2336 0.960 . S
C2324 H2316 0.929 . S
C2324 C2325 1.377 . S
C2324 C2326 1.384 . S
C2325 C2324 1.377 . S
C2325 C2331 1.390 . S
C2326 H2317 0.930 . S
C2326 C2324 1.384 . S
C2326 C2327 1.372 . S
C2327 C2326 1.372 . S
C2327 C2328 1.400 . S
C2327 C2332 1.490 . S
C2328 H2318 0.930 . S
C2328 C2327 1.400 . S
C2328 C2331 1.386 . S
H2329 C2345 0.930 . S
H2330 C2346 0.931 . S
C2331 H2319 0.929 . S
C2331 C2325 1.390 . S
C2331 C2328 1.386 . S
C2332 C2327 1.490 . S
C2332 C2334 1.395 . S
C2332 C2335 1.403 . S
H2333 C2339 0.930 . S
C2334 H2320 0.930 . S
C2334 C2332 1.395 . S
C2334 C2337 1.403 . S
C2335 C2332 1.403 . S
C2335 C2336 1.524 . S
C2335 C2339 1.400 . S
C2336 H2321 0.960 . S
C2336 H2322 0.960 . S
C2336 H2323 0.960 . S
C2336 C2335 1.524 . S
C2337 C2334 1.403 . S
C2337 C2338 1.392 . S
C2337 C2341 1.495 . S
C2338 C2337 1.392 . S
C2338 C2339 1.385 . S
C2338 C2340 1.478 . S
C2339 H2333 0.930 . S
C2339 C2335 1.400 . S
C2339 C2338 1.385 . S
C2340 C2338 1.478 . S
C2340 C2342 1.381 . S
C2340 C2346 1.383 . S
C2341 C2337 1.495 . S
C2341 H2347 0.959 . S
C2341 H2348 0.961 . S
C2341 H2349 0.960 . S
C2342 C2340 1.381 . S
C2342 C2343 1.394 . S
C2342 H2350 0.930 . S
C2343 C2342 1.394 . S
C2343 C2344 1.383 . S
C2343 H2351 0.929 . S
C2344 C2343 1.383 . S
C2344 C2345 1.377 . S
C2345 H2329 0.930 . S
C2345 C2344 1.377 . S
C2345 C2346 1.379 . S
C2346 H2330 0.931 . S
C2346 C2340 1.383 . S
C2346 C2345 1.379 . S
H2347 C2341 0.959 . S
H2348 C2341 0.961 . S
H2349 C2341 0.960 . S
H2350 C2342 0.930 . S
H2351 C2343 0.929 . S
H2352 C2360 0.929 . S
H2353 C2362 0.930 . S
H2354 C2364 0.930 . S
H2355 C2367 0.929 . S
H2356 C2370 0.930 . S
H2357 C2372 0.960 . S
H2358 C2372 0.960 . S
H2359 C2372 0.960 . S
C2360 H2352 0.929 . S
C2360 C2361 1.377 . S
C2360 C2362 1.384 . S
C2361 C2360 1.377 . S
C2361 C2367 1.390 . S
C2362 H2353 0.930 . S
C2362 C2360 1.384 . S
C2362 C2363 1.372 . S
C2363 C2362 1.372 . S
C2363 C2364 1.400 . S
C2363 C2368 1.490 . S
C2364 H2354 0.930 . S
C2364 C2363 1.400 . S
C2364 C2367 1.386 . S
H2365 C2381 0.930 . S
H2366 C2382 0.931 . S
C2367 H2355 0.929 . S
C2367 C2361 1.390 . S
C2367 C2364 1.386 . S
C2368 C2363 1.490 . S
C2368 C2370 1.395 . S
C2368 C2371 1.403 . S
H2369 C2375 0.930 . S
C2370 H2356 0.930 . S
C2370 C2368 1.395 . S
C2370 C2373 1.403 . S
C2371 C2368 1.403 . S
C2371 C2372 1.524 . S
C2371 C2375 1.400 . S
C2372 H2357 0.960 . S
C2372 H2358 0.960 . S
C2372 H2359 0.960 . S
C2372 C2371 1.524 . S
C2373 C2370 1.403 . S
C2373 C2374 1.392 . S
C2373 C2377 1.495 . S
C2374 C2373 1.392 . S
C2374 C2375 1.385 . S
C2374 C2376 1.478 . S
C2375 H2369 0.930 . S
C2375 C2371 1.400 . S
C2375 C2374 1.385 . S
C2376 C2374 1.478 . S
C2376 C2378 1.381 . S
C2376 C2382 1.383 . S
C2377 C2373 1.495 . S
C2377 H2383 0.959 . S
C2377 H2384 0.961 . S
C2377 H2385 0.960 . S
C2378 C2376 1.381 . S
C2378 C2379 1.394 . S
C2378 H2386 0.930 . S
C2379 C2378 1.394 . S
C2379 C2380 1.383 . S
C2379 H2387 0.929 . S
C2380 C2379 1.383 . S
C2380 C2381 1.377 . S
C2381 H2365 0.930 . S
C2381 C2380 1.377 . S
C2381 C2382 1.379 . S
C2382 H2366 0.931 . S
C2382 C2376 1.383 . S
C2382 C2381 1.379 . S
H2383 C2377 0.959 . S
H2384 C2377 0.961 . S
H2385 C2377 0.960 . S
H2386 C2378 0.930 . S
H2387 C2379 0.929 . S
H2388 C2396 0.929 . S
H2389 C2398 0.930 . S
H2390 C2400 0.930 . S
H2391 C2403 0.929 . S
H2392 C2406 0.930 . S
H2393 C2408 0.960 . S
H2394 C2408 0.960 . S
H2395 C2408 0.960 . S
C2396 H2388 0.929 . S
C2396 C2397 1.377 . S
C2396 C2398 1.384 . S
C2397 C2396 1.377 . S
C2397 C2403 1.390 . S
C2398 H2389 0.930 . S
C2398 C2396 1.384 . S
C2398 C2399 1.372 . S
C2399 C2398 1.372 . S
C2399 C2400 1.400 . S
C2399 C2404 1.490 . S
C2400 H2390 0.930 . S
C2400 C2399 1.400 . S
C2400 C2403 1.386 . S
H2401 C2417 0.930 . S
H2402 C2418 0.931 . S
C2403 H2391 0.929 . S
C2403 C2397 1.390 . S
C2403 C2400 1.386 . S
C2404 C2399 1.490 . S
C2404 C2406 1.395 . S
C2404 C2407 1.403 . S
H2405 C2411 0.930 . S
C2406 H2392 0.930 . S
C2406 C2404 1.395 . S
C2406 C2409 1.403 . S
C2407 C2404 1.403 . S
C2407 C2408 1.524 . S
C2407 C2411 1.400 . S
C2408 H2393 0.960 . S
C2408 H2394 0.960 . S
C2408 H2395 0.960 . S
C2408 C2407 1.524 . S
C2409 C2406 1.403 . S
C2409 C2410 1.392 . S
C2409 C2413 1.495 . S
C2410 C2409 1.392 . S
C2410 C2411 1.385 . S
C2410 C2412 1.478 . S
C2411 H2405 0.930 . S
C2411 C2407 1.400 . S
C2411 C2410 1.385 . S
C2412 C2410 1.478 . S
C2412 C2414 1.381 . S
C2412 C2418 1.383 . S
C2413 C2409 1.495 . S
C2413 H2419 0.959 . S
C2413 H2420 0.961 . S
C2413 H2421 0.960 . S
C2414 C2412 1.381 . S
C2414 C2415 1.394 . S
C2414 H2422 0.930 . S
C2415 C2414 1.394 . S
C2415 C2416 1.383 . S
C2415 H2423 0.929 . S
C2416 C2415 1.383 . S
C2416 C2417 1.377 . S
C2417 H2401 0.930 . S
C2417 C2416 1.377 . S
C2417 C2418 1.379 . S
C2418 H2402 0.931 . S
C2418 C2412 1.383 . S
C2418 C2417 1.379 . S
H2419 C2413 0.959 . S
H2420 C2413 0.961 . S
H2421 C2413 0.960 . S
H2422 C2414 0.930 . S
H2423 C2415 0.929 . S
H2424 C2432 0.929 . S
H2425 C2434 0.930 . S
H2426 C2436 0.930 . S
H2427 C2439 0.929 . S
H2428 C2442 0.930 . S
H2429 C2444 0.960 . S
H2430 C2444 0.960 . S
H2431 C2444 0.960 . S
C2432 H2424 0.929 . S
C2432 C2433 1.377 . S
C2432 C2434 1.384 . S
C2433 C2432 1.377 . S
C2433 C2439 1.390 . S
C2434 H2425 0.930 . S
C2434 C2432 1.384 . S
C2434 C2435 1.372 . S
C2435 C2434 1.372 . S
C2435 C2436 1.400 . S
C2435 C2440 1.490 . S
C2436 H2426 0.930 . S
C2436 C2435 1.400 . S
C2436 C2439 1.386 . S
H2437 C2453 0.930 . S
H2438 C2454 0.931 . S
C2439 H2427 0.929 . S
C2439 C2433 1.390 . S
C2439 C2436 1.386 . S
C2440 C2435 1.490 . S
C2440 C2442 1.395 . S
C2440 C2443 1.403 . S
H2441 C2447 0.930 . S
C2442 H2428 0.930 . S
C2442 C2440 1.395 . S
C2442 C2445 1.403 . S
C2443 C2440 1.403 . S
C2443 C2444 1.524 . S
C2443 C2447 1.400 . S
C2444 H2429 0.960 . S
C2444 H2430 0.960 . S
C2444 H2431 0.960 . S
C2444 C2443 1.524 . S
C2445 C2442 1.403 . S
C2445 C2446 1.392 . S
C2445 C2449 1.495 . S
C2446 C2445 1.392 . S
C2446 C2447 1.385 . S
C2446 C2448 1.478 . S
C2447 H2441 0.930 . S
C2447 C2443 1.400 . S
C2447 C2446 1.385 . S
C2448 C2446 1.478 . S
C2448 C2450 1.381 . S
C2448 C2454 1.383 . S
C2449 C2445 1.495 . S
C2449 H2455 0.959 . S
C2449 H2456 0.961 . S
C2449 H2457 0.960 . S
C2450 C2448 1.381 . S
C2450 C2451 1.394 . S
C2450 H2458 0.930 . S
C2451 C2450 1.394 . S
C2451 C2452 1.383 . S
C2451 H2459 0.929 . S
C2452 C2451 1.383 . S
C2452 C2453 1.377 . S
C2453 H2437 0.930 . S
C2453 C2452 1.377 . S
C2453 C2454 1.379 . S
C2454 H2438 0.931 . S
C2454 C2448 1.383 . S
C2454 C2453 1.379 . S
H2455 C2449 0.959 . S
H2456 C2449 0.961 . S
H2457 C2449 0.960 . S
H2458 C2450 0.930 . S
H2459 C2451 0.929 . S
H2460 C2468 0.929 . S
H2461 C2470 0.930 . S
H2462 C2472 0.930 . S
H2463 C2475 0.929 . S
H2464 C2478 0.930 . S
H2465 C2480 0.960 . S
H2466 C2480 0.960 . S
H2467 C2480 0.960 . S
C2468 H2460 0.929 . S
C2468 C2469 1.377 . S
C2468 C2470 1.384 . S
C2469 C2468 1.377 . S
C2469 C2475 1.390 . S
C2470 H2461 0.930 . S
C2470 C2468 1.384 . S
C2470 C2471 1.372 . S
C2471 C2470 1.372 . S
C2471 C2472 1.400 . S
C2471 C2476 1.490 . S
C2472 H2462 0.930 . S
C2472 C2471 1.400 . S
C2472 C2475 1.386 . S
H2473 C2489 0.930 . S
H2474 C2490 0.931 . S
C2475 H2463 0.929 . S
C2475 C2469 1.390 . S
C2475 C2472 1.386 . S
C2476 C2471 1.490 . S
C2476 C2478 1.395 . S
C2476 C2479 1.403 . S
H2477 C2483 0.930 . S
C2478 H2464 0.930 . S
C2478 C2476 1.395 . S
C2478 C2481 1.403 . S
C2479 C2476 1.403 . S
C2479 C2480 1.524 . S
C2479 C2483 1.400 . S
C2480 H2465 0.960 . S
C2480 H2466 0.960 . S
C2480 H2467 0.960 . S
C2480 C2479 1.524 . S
C2481 C2478 1.403 . S
C2481 C2482 1.392 . S
C2481 C2485 1.495 . S
C2482 C2481 1.392 . S
C2482 C2483 1.385 . S
C2482 C2484 1.478 . S
C2483 H2477 0.930 . S
C2483 C2479 1.400 . S
C2483 C2482 1.385 . S
C2484 C2482 1.478 . S
C2484 C2486 1.381 . S
C2484 C2490 1.383 . S
C2485 C2481 1.495 . S
C2485 H2491 0.959 . S
C2485 H2492 0.961 . S
C2485 H2493 0.960 . S
C2486 C2484 1.381 . S
C2486 C2487 1.394 . S
C2486 H2494 0.930 . S
C2487 C2486 1.394 . S
C2487 C2488 1.383 . S
C2487 H2495 0.929 . S
C2488 C2487 1.383 . S
C2488 C2489 1.377 . S
C2489 H2473 0.930 . S
C2489 C2488 1.377 . S
C2489 C2490 1.379 . S
C2490 H2474 0.931 . S
C2490 C2484 1.383 . S
C2490 C2489 1.379 . S
H2491 C2485 0.959 . S
H2492 C2485 0.961 . S
H2493 C2485 0.960 . S
H2494 C2486 0.930 . S
H2495 C2487 0.929 . S
H2496 C2504 0.929 . S
H2497 C2506 0.930 . S
H2498 C2508 0.930 . S
H2499 C2511 0.929 . S
H2500 C2514 0.930 . S
H2501 C2516 0.960 . S
H2502 C2516 0.960 . S
H2503 C2516 0.960 . S
C2504 H2496 0.929 . S
C2504 C2505 1.377 . S
C2504 C2506 1.384 . S
C2505 C2504 1.377 . S
C2505 C2511 1.390 . S
C2506 H2497 0.930 . S
C2506 C2504 1.384 . S
C2506 C2507 1.372 . S
C2507 C2506 1.372 . S
C2507 C2508 1.400 . S
C2507 C2512 1.490 . S
C2508 H2498 0.930 . S
C2508 C2507 1.400 . S
C2508 C2511 1.386 . S
H2509 C2525 0.930 . S
H2510 C2526 0.931 . S
C2511 H2499 0.929 . S
C2511 C2505 1.390 . S
C2511 C2508 1.386 . S
C2512 C2507 1.490 . S
C2512 C2514 1.395 . S
C2512 C2515 1.403 . S
H2513 C2519 0.930 . S
C2514 H2500 0.930 . S
C2514 C2512 1.395 . S
C2514 C2517 1.403 . S
C2515 C2512 1.403 . S
C2515 C2516 1.524 . S
C2515 C2519 1.400 . S
C2516 H2501 0.960 . S
C2516 H2502 0.960 . S
C2516 H2503 0.960 . S
C2516 C2515 1.524 . S
C2517 C2514 1.403 . S
C2517 C2518 1.392 . S
C2517 C2521 1.495 . S
C2518 C2517 1.392 . S
C2518 C2519 1.385 . S
C2518 C2520 1.478 . S
C2519 H2513 0.930 . S
C2519 C2515 1.400 . S
C2519 C2518 1.385 . S
C2520 C2518 1.478 . S
C2520 C2522 1.381 . S
C2520 C2526 1.383 . S
C2521 C2517 1.495 . S
C2521 H2527 0.959 . S
C2521 H2528 0.961 . S
C2521 H2529 0.960 . S
C2522 C2520 1.381 . S
C2522 C2523 1.394 . S
C2522 H2530 0.930 . S
C2523 C2522 1.394 . S
C2523 C2524 1.383 . S
C2523 H2531 0.929 . S
C2524 C2523 1.383 . S
C2524 C2525 1.377 . S
C2525 H2509 0.930 . S
C2525 C2524 1.377 . S
C2525 C2526 1.379 . S
C2526 H2510 0.931 . S
C2526 C2520 1.383 . S
C2526 C2525 1.379 . S
H2527 C2521 0.959 . S
H2528 C2521 0.961 . S
H2529 C2521 0.960 . S
H2530 C2522 0.930 . S
H2531 C2523 0.929 . S
H2532 C2540 0.929 . S
H2533 C2542 0.930 . S
H2534 C2544 0.930 . S
H2535 C2547 0.929 . S
H2536 C2550 0.930 . S
H2537 C2552 0.960 . S
H2538 C2552 0.960 . S
H2539 C2552 0.960 . S
C2540 H2532 0.929 . S
C2540 C2541 1.377 . S
C2540 C2542 1.384 . S
C2541 C2540 1.377 . S
C2541 C2547 1.390 . S
C2542 H2533 0.930 . S
C2542 C2540 1.384 . S
C2542 C2543 1.372 . S
C2543 C2542 1.372 . S
C2543 C2544 1.400 . S
C2543 C2548 1.490 . S
C2544 H2534 0.930 . S
C2544 C2543 1.400 . S
C2544 C2547 1.386 . S
H2545 C2561 0.930 . S
H2546 C2562 0.931 . S
C2547 H2535 0.929 . S
C2547 C2541 1.390 . S
C2547 C2544 1.386 . S
C2548 C2543 1.490 . S
C2548 C2550 1.395 . S
C2548 C2551 1.403 . S
H2549 C2555 0.930 . S
C2550 H2536 0.930 . S
C2550 C2548 1.395 . S
C2550 C2553 1.403 . S
C2551 C2548 1.403 . S
C2551 C2552 1.524 . S
C2551 C2555 1.400 . S
C2552 H2537 0.960 . S
C2552 H2538 0.960 . S
C2552 H2539 0.960 . S
C2552 C2551 1.524 . S
C2553 C2550 1.403 . S
C2553 C2554 1.392 . S
C2553 C2557 1.495 . S
C2554 C2553 1.392 . S
C2554 C2555 1.385 . S
C2554 C2556 1.478 . S
C2555 H2549 0.930 . S
C2555 C2551 1.400 . S
C2555 C2554 1.385 . S
C2556 C2554 1.478 . S
C2556 C2558 1.381 . S
C2556 C2562 1.383 . S
C2557 C2553 1.495 . S
C2557 H2563 0.959 . S
C2557 H2564 0.961 . S
C2557 H2565 0.960 . S
C2558 C2556 1.381 . S
C2558 C2559 1.394 . S
C2558 H2566 0.930 . S
C2559 C2558 1.394 . S
C2559 C2560 1.383 . S
C2559 H2567 0.929 . S
C2560 C2559 1.383 . S
C2560 C2561 1.377 . S
C2561 H2545 0.930 . S
C2561 C2560 1.377 . S
C2561 C2562 1.379 . S
C2562 H2546 0.931 . S
C2562 C2556 1.383 . S
C2562 C2561 1.379 . S
H2563 C2557 0.959 . S
H2564 C2557 0.961 . S
H2565 C2557 0.960 . S
H2566 C2558 0.930 . S
H2567 C2559 0.929 . S
H2568 C2576 0.929 . S
H2569 C2578 0.930 . S
H2570 C2580 0.930 . S
H2571 C2583 0.929 . S
H2572 C2586 0.930 . S
H2573 C2588 0.960 . S
H2574 C2588 0.960 . S
H2575 C2588 0.960 . S
C2576 H2568 0.929 . S
C2576 C2577 1.377 . S
C2576 C2578 1.384 . S
C2577 C2576 1.377 . S
C2577 C2583 1.390 . S
C2578 H2569 0.930 . S
C2578 C2576 1.384 . S
C2578 C2579 1.372 . S
C2579 C2578 1.372 . S
C2579 C2580 1.400 . S
C2579 C2584 1.490 . S
C2580 H2570 0.930 . S
C2580 C2579 1.400 . S
C2580 C2583 1.386 . S
H2581 C2597 0.930 . S
H2582 C2598 0.931 . S
C2583 H2571 0.929 . S
C2583 C2577 1.390 . S
C2583 C2580 1.386 . S
C2584 C2579 1.490 . S
C2584 C2586 1.395 . S
C2584 C2587 1.403 . S
H2585 C2591 0.930 . S
C2586 H2572 0.930 . S
C2586 C2584 1.395 . S
C2586 C2589 1.403 . S
C2587 C2584 1.403 . S
C2587 C2588 1.524 . S
C2587 C2591 1.400 . S
C2588 H2573 0.960 . S
C2588 H2574 0.960 . S
C2588 H2575 0.960 . S
C2588 C2587 1.524 . S
C2589 C2586 1.403 . S
C2589 C2590 1.392 . S
C2589 C2593 1.495 . S
C2590 C2589 1.392 . S
C2590 C2591 1.385 . S
C2590 C2592 1.478 . S
C2591 H2585 0.930 . S
C2591 C2587 1.400 . S
C2591 C2590 1.385 . S
C2592 C2590 1.478 . S
C2592 C2594 1.381 . S
C2592 C2598 1.383 . S
C2593 C2589 1.495 . S
C2593 H2599 0.959 . S
C2593 H2600 0.961 . S
C2593 H2601 0.960 . S
C2594 C2592 1.381 . S
C2594 C2595 1.394 . S
C2594 H2602 0.930 . S
C2595 C2594 1.394 . S
C2595 C2596 1.383 . S
C2595 H2603 0.929 . S
C2596 C2595 1.383 . S
C2596 C2597 1.377 . S
C2597 H2581 0.930 . S
C2597 C2596 1.377 . S
C2597 C2598 1.379 . S
C2598 H2582 0.931 . S
C2598 C2592 1.383 . S
C2598 C2597 1.379 . S
H2599 C2593 0.959 . S
H2600 C2593 0.961 . S
H2601 C2593 0.960 . S
H2602 C2594 0.930 . S
H2603 C2595 0.929 . S
H2604 C2612 0.929 . S
H2605 C2614 0.930 . S
H2606 C2616 0.930 . S
H2607 C2619 0.929 . S
H2608 C2622 0.930 . S
H2609 C2624 0.960 . S
H2610 C2624 0.960 . S
H2611 C2624 0.960 . S
C2612 H2604 0.929 . S
C2612 C2613 1.377 . S
C2612 C2614 1.384 . S
C2613 C2612 1.377 . S
C2613 C2619 1.390 . S
C2614 H2605 0.930 . S
C2614 C2612 1.384 . S
C2614 C2615 1.372 . S
C2615 C2614 1.372 . S
C2615 C2616 1.400 . S
C2615 C2620 1.490 . S
C2616 H2606 0.930 . S
C2616 C2615 1.400 . S
C2616 C2619 1.386 . S
H2617 C2633 0.930 . S
H2618 C2634 0.931 . S
C2619 H2607 0.929 . S
C2619 C2613 1.390 . S
C2619 C2616 1.386 . S
C2620 C2615 1.490 . S
C2620 C2622 1.395 . S
C2620 C2623 1.403 . S
H2621 C2627 0.930 . S
C2622 H2608 0.930 . S
C2622 C2620 1.395 . S
C2622 C2625 1.403 . S
C2623 C2620 1.403 . S
C2623 C2624 1.524 . S
C2623 C2627 1.400 . S
C2624 H2609 0.960 . S
C2624 H2610 0.960 . S
C2624 H2611 0.960 . S
C2624 C2623 1.524 . S
C2625 C2622 1.403 . S
C2625 C2626 1.392 . S
C2625 C2629 1.495 . S
C2626 C2625 1.392 . S
C2626 C2627 1.385 . S
C2626 C2628 1.478 . S
C2627 H2621 0.930 . S
C2627 C2623 1.400 . S
C2627 C2626 1.385 . S
C2628 C2626 1.478 . S
C2628 C2630 1.381 . S
C2628 C2634 1.383 . S
C2629 C2625 1.495 . S
C2629 H2635 0.959 . S
C2629 H2636 0.961 . S
C2629 H2637 0.960 . S
C2630 C2628 1.381 . S
C2630 C2631 1.394 . S
C2630 H2638 0.930 . S
C2631 C2630 1.394 . S
C2631 C2632 1.383 . S
C2631 H2639 0.929 . S
C2632 C2631 1.383 . S
C2632 C2633 1.377 . S
C2633 H2617 0.930 . S
C2633 C2632 1.377 . S
C2633 C2634 1.379 . S
C2634 H2618 0.931 . S
C2634 C2628 1.383 . S
C2634 C2633 1.379 . S
H2635 C2629 0.959 . S
H2636 C2629 0.961 . S
H2637 C2629 0.960 . S
H2638 C2630 0.930 . S
H2639 C2631 0.929 . S
H2640 C2648 0.929 . S
H2641 C2650 0.930 . S
H2642 C2652 0.930 . S
H2643 C2655 0.929 . S
H2644 C2658 0.930 . S
H2645 C2660 0.960 . S
H2646 C2660 0.960 . S
H2647 C2660 0.960 . S
C2648 H2640 0.929 . S
C2648 C2649 1.377 . S
C2648 C2650 1.384 . S
C2649 C2648 1.377 . S
C2649 C2655 1.390 . S
C2650 H2641 0.930 . S
C2650 C2648 1.384 . S
C2650 C2651 1.372 . S
C2651 C2650 1.372 . S
C2651 C2652 1.400 . S
C2651 C2656 1.490 . S
C2652 H2642 0.930 . S
C2652 C2651 1.400 . S
C2652 C2655 1.386 . S
H2653 C2669 0.930 . S
H2654 C2670 0.931 . S
C2655 H2643 0.929 . S
C2655 C2649 1.390 . S
C2655 C2652 1.386 . S
C2656 C2651 1.490 . S
C2656 C2658 1.395 . S
C2656 C2659 1.403 . S
H2657 C2663 0.930 . S
C2658 H2644 0.930 . S
C2658 C2656 1.395 . S
C2658 C2661 1.403 . S
C2659 C2656 1.403 . S
C2659 C2660 1.524 . S
C2659 C2663 1.400 . S
C2660 H2645 0.960 . S
C2660 H2646 0.960 . S
C2660 H2647 0.960 . S
C2660 C2659 1.524 . S
C2661 C2658 1.403 . S
C2661 C2662 1.392 . S
C2661 C2665 1.495 . S
C2662 C2661 1.392 . S
C2662 C2663 1.385 . S
C2662 C2664 1.478 . S
C2663 H2657 0.930 . S
C2663 C2659 1.400 . S
C2663 C2662 1.385 . S
C2664 C2662 1.478 . S
C2664 C2666 1.381 . S
C2664 C2670 1.383 . S
C2665 C2661 1.495 . S
C2665 H2671 0.959 . S
C2665 H2672 0.961 . S
C2665 H2673 0.960 . S
C2666 C2664 1.381 . S
C2666 C2667 1.394 . S
C2666 H2674 0.930 . S
C2667 C2666 1.394 . S
C2667 C2668 1.383 . S
C2667 H2675 0.929 . S
C2668 C2667 1.383 . S
C2668 C2669 1.377 . S
C2669 H2653 0.930 . S
C2669 C2668 1.377 . S
C2669 C2670 1.379 . S
C2670 H2654 0.931 . S
C2670 C2664 1.383 . S
C2670 C2669 1.379 . S
H2671 C2665 0.959 . S
H2672 C2665 0.961 . S
H2673 C2665 0.960 . S
H2674 C2666 0.930 . S
H2675 C2667 0.929 . S
C976 C334 1.222 . S
C957 N2 1.406 . S
C1012 C434 2.251 . S
C993 C7 2.265 . S
C1048 C514 1.201 . S
C1029 N12 1.381 . S
C1065 C16 2.014 . S
C1084 C591 2.042 . S
C1120 C675 2.262 . S
C1101 C30 2.290 1_565 S
C1156 C754 1.037 . S
C1137 N35 1.275 . S
C1173 C39 2.098 . S
C1192 C854 2.087 . S
C1228 C934 1.165 . S
C1209 N25 1.269 . S
C1264 C332 0.958 . S
C1245 N58 1.017 . S
C1281 N81 1.790 . S
C1300 C427 1.803 . S
C1336 C518 1.060 . S
C1317 N104 1.024 . S
C1353 N127 1.074 . S
C1372 C586 0.920 . S
C1408 C670 0.632 . S
C1389 N48 0.679 1_565 S
C1444 C752 1.472 . S
C1425 N71 1.438 1_556 S
C1461 N94 1.219 . S
C1480 C847 1.202 . S
C1516 C938 1.552 . S
C1497 N117 1.536 . S
C1533 C85 2.067 . S
C1552 C339 2.070 . S
C1569 C122 2.308 . S
C1588 C668 2.272 . S
C1605 C53 1.629 . S
C1624 C759 1.642 . S
C1660 C850 1.244 . S
C1641 C76 1.456 1_655 S
C1696 C931 1.576 . S
C1677 C99 1.667 . S
C1732 C511 1.878 . S
C1713 C131 1.921 . S
C1768 C584 1.702 . S
C1749 C62 1.719 1_565 S
C1785 C108 1.025 . S
C1804 C430 0.946 . S
C1840 C922 1.268 . S
C1821 N140 1.455 . S
C1857 C145 2.258 . S
C1876 C686 2.236 . S
C1912 C766 1.142 . S
C1893 N150 1.290 . S
C1929 C154 2.018 . S
C1948 C843 2.048 . S
C1984 C423 2.272 . S
C1965 C168 2.289 . S
C2001 N173 1.176 . S
C2020 C502 1.042 . S
C2056 C602 2.093 . S
C2037 C177 2.101 . S
C2092 C346 1.258 . S
C2073 N163 1.317 . S
C2128 C920 1.443 . S
C2109 C200 1.460 . S
C2164 C679 2.107 . S
C2145 N219 2.096 . S
C2181 N242 1.268 . S
C2200 C770 1.324 . S
C2236 C838 1.122 . S
C2217 C269 1.398 . S
C2272 C418 0.776 . S
C2253 C191 0.968 . S
C2289 N209 1.704 . S
C2308 C500 1.733 . S
C2325 N232 1.534 . S
C2344 C595 1.527 . S
C2361 C260 2.039 . S
C2380 C350 2.031 . S
C2397 C223 1.754 . S
C2416 C927 1.757 . S
C2433 N255 1.881 . S
C2452 C416 1.873 . S
C2469 N186 1.192 . S
C2488 C507 1.226 . S
C2524 C598 1.009 . S
C2505 C214 1.128 . S
C2560 C343 1.251 . S
C2541 C237 1.337 . S
C2596 C763 1.484 . S
C2577 N265 1.444 . S
C2632 C836 1.332 . S
C2613 N196 1.317 . S
C2668 C682 0.797 . S
C2649 C246 0.697 . S
