# Generated by pormake.
# Topology ocu, (6,8)-cn, num edge types: 1
# Building blocks:
#     Node 0, Type 0, BuildingBlock: KUMJIN_clean_sbu_1, # of connection points: 6
#     Node 1, Type 0, BuildingBlock: KUMJIN_clean_sbu_1, # of connection points: 6
#     Node 2, Type 0, BuildingBlock: KUMJIN_clean_sbu_1, # of connection points: 6
#     Node 3, Type 0, BuildingBlock: KUMJIN_clean_sbu_1, # of connection points: 6
#     Node 4, Type 0, BuildingBlock: KUMJIN_clean_sbu_1, # of connection points: 6
#     Node 5, Type 0, BuildingBlock: KUMJIN_clean_sbu_1, # of connection points: 6
#     Node 6, Type 0, BuildingBlock: KUMJIN_clean_sbu_1, # of connection points: 6
#     Node 7, Type 0, BuildingBlock: KUMJIN_clean_sbu_1, # of connection points: 6
#     Node 8, Type 1, BuildingBlock: AJUNOK_clean_sbu_0, # of connection points: 8
#     Node 9, Type 1, BuildingBlock: AJUNOK_clean_sbu_0, # of connection points: 8
#     Node 10, Type 1, BuildingBlock: AJUNOK_clean_sbu_0, # of connection points: 8
#     Node 11, Type 1, BuildingBlock: AJUNOK_clean_sbu_0, # of connection points: 8
#     Node 12, Type 1, BuildingBlock: AJUNOK_clean_sbu_0, # of connection points: 8
#     Node 13, Type 1, BuildingBlock: AJUNOK_clean_sbu_0, # of connection points: 8
#     Edge 14, Type (0, 1), BuildingBlock: MIFKUJ_clean_linker_0, # of connection points: 2
#     Edge 15, Type (0, 1), BuildingBlock: MIFKUJ_clean_linker_0, # of connection points: 2
#     Edge 16, Type (0, 1), BuildingBlock: MIFKUJ_clean_linker_0, # of connection points: 2
#     Edge 17, Type (0, 1), BuildingBlock: MIFKUJ_clean_linker_0, # of connection points: 2
#     Edge 18, Type (0, 1), BuildingBlock: MIFKUJ_clean_linker_0, # of connection points: 2
#     Edge 19, Type (0, 1), BuildingBlock: MIFKUJ_clean_linker_0, # of connection points: 2
#     Edge 20, Type (0, 1), BuildingBlock: MIFKUJ_clean_linker_0, # of connection points: 2
#     Edge 21, Type (0, 1), BuildingBlock: MIFKUJ_clean_linker_0, # of connection points: 2
#     Edge 22, Type (0, 1), BuildingBlock: MIFKUJ_clean_linker_0, # of connection points: 2
#     Edge 23, Type (0, 1), BuildingBlock: MIFKUJ_clean_linker_0, # of connection points: 2
#     Edge 24, Type (0, 1), BuildingBlock: MIFKUJ_clean_linker_0, # of connection points: 2
#     Edge 25, Type (0, 1), BuildingBlock: MIFKUJ_clean_linker_0, # of connection points: 2
#     Edge 26, Type (0, 1), BuildingBlock: MIFKUJ_clean_linker_0, # of connection points: 2
#     Edge 27, Type (0, 1), BuildingBlock: MIFKUJ_clean_linker_0, # of connection points: 2
#     Edge 28, Type (0, 1), BuildingBlock: MIFKUJ_clean_linker_0, # of connection points: 2
#     Edge 29, Type (0, 1), BuildingBlock: MIFKUJ_clean_linker_0, # of connection points: 2
#     Edge 30, Type (0, 1), BuildingBlock: MIFKUJ_clean_linker_0, # of connection points: 2
#     Edge 31, Type (0, 1), BuildingBlock: MIFKUJ_clean_linker_0, # of connection points: 2
#     Edge 32, Type (0, 1), BuildingBlock: MIFKUJ_clean_linker_0, # of connection points: 2
#     Edge 33, Type (0, 1), BuildingBlock: MIFKUJ_clean_linker_0, # of connection points: 2
#     Edge 34, Type (0, 1), BuildingBlock: MIFKUJ_clean_linker_0, # of connection points: 2
#     Edge 35, Type (0, 1), BuildingBlock: MIFKUJ_clean_linker_0, # of connection points: 2
#     Edge 36, Type (0, 1), BuildingBlock: MIFKUJ_clean_linker_0, # of connection points: 2
#     Edge 37, Type (0, 1), BuildingBlock: MIFKUJ_clean_linker_0, # of connection points: 2
#     Edge 38, Type (0, 1), BuildingBlock: MIFKUJ_clean_linker_0, # of connection points: 2
#     Edge 39, Type (0, 1), BuildingBlock: MIFKUJ_clean_linker_0, # of connection points: 2
#     Edge 40, Type (0, 1), BuildingBlock: MIFKUJ_clean_linker_0, # of connection points: 2
#     Edge 41, Type (0, 1), BuildingBlock: MIFKUJ_clean_linker_0, # of connection points: 2
#     Edge 42, Type (0, 1), BuildingBlock: MIFKUJ_clean_linker_0, # of connection points: 2
#     Edge 43, Type (0, 1), BuildingBlock: MIFKUJ_clean_linker_0, # of connection points: 2
#     Edge 44, Type (0, 1), BuildingBlock: MIFKUJ_clean_linker_0, # of connection points: 2
#     Edge 45, Type (0, 1), BuildingBlock: MIFKUJ_clean_linker_0, # of connection points: 2
#     Edge 46, Type (0, 1), BuildingBlock: MIFKUJ_clean_linker_0, # of connection points: 2
#     Edge 47, Type (0, 1), BuildingBlock: MIFKUJ_clean_linker_0, # of connection points: 2
#     Edge 48, Type (0, 1), BuildingBlock: MIFKUJ_clean_linker_0, # of connection points: 2
#     Edge 49, Type (0, 1), BuildingBlock: MIFKUJ_clean_linker_0, # of connection points: 2
#     Edge 50, Type (0, 1), BuildingBlock: MIFKUJ_clean_linker_0, # of connection points: 2
#     Edge 51, Type (0, 1), BuildingBlock: MIFKUJ_clean_linker_0, # of connection points: 2
#     Edge 52, Type (0, 1), BuildingBlock: MIFKUJ_clean_linker_0, # of connection points: 2
#     Edge 53, Type (0, 1), BuildingBlock: MIFKUJ_clean_linker_0, # of connection points: 2
#     Edge 54, Type (0, 1), BuildingBlock: MIFKUJ_clean_linker_0, # of connection points: 2
#     Edge 55, Type (0, 1), BuildingBlock: MIFKUJ_clean_linker_0, # of connection points: 2
#     Edge 56, Type (0, 1), BuildingBlock: MIFKUJ_clean_linker_0, # of connection points: 2
#     Edge 57, Type (0, 1), BuildingBlock: MIFKUJ_clean_linker_0, # of connection points: 2
#     Edge 58, Type (0, 1), BuildingBlock: MIFKUJ_clean_linker_0, # of connection points: 2
#     Edge 59, Type (0, 1), BuildingBlock: MIFKUJ_clean_linker_0, # of connection points: 2
#     Edge 60, Type (0, 1), BuildingBlock: MIFKUJ_clean_linker_0, # of connection points: 2
#     Edge 61, Type (0, 1), BuildingBlock: MIFKUJ_clean_linker_0, # of connection points: 2
# Relax obj value: 0.123
# Max RMSD: 0.192
# Mean RMSD: 0.162
data_MOF--net-ocu--node1-KUMJIN_clean_sbu_1--node2-AJUNOK_clean_sbu_0--edge1-MIFKUJ_clean_linker_0
_symmetry_space_group_name_H-M    P1
_symmetry_Int_Tables_number       1
_symmetry_cell_setting            triclinic
loop_
_symmetry_equiv_pos_as_xyz
'x, y, z'
_cell_length_a     54.844881
_cell_length_b     55.48514
_cell_length_c     48.756306
_cell_angle_alpha  102.6725
_cell_angle_beta   88.508125
_cell_angle_gamma 110.35275
loop_
_atom_site_label
_atom_site_type_symbol
_atom_site_fract_x
_atom_site_fract_y
_atom_site_fract_z
_atom_type_partial_charge
Eu0 Eu 0.2308 0.24037 0.20935 0.0
C1 C 0.30585 0.30482 0.32453 0.0
N2 N 0.31237 0.29236 0.2997 0.0
C3 C 0.35203 0.32924 0.30136 0.0
C4 C 0.32192 0.33052 0.33821 0.0
C5 C 0.33579 0.30362 0.28884 0.0
C6 C 0.34488 0.34291 0.32591 0.0
C7 C 0.27757 0.30317 0.3639 0.0
C8 C 0.2838 0.29137 0.33727 0.0
C9 C 0.29302 0.32908 0.37696 0.0
C10 C 0.31507 0.34275 0.36411 0.0
Eu11 Eu 0.2823 0.24963 0.28012 0.0
N12 N 0.26884 0.26642 0.32407 0.0
C13 C 0.25618 0.28841 0.37681 0.0
C14 C 0.24896 0.25142 0.33723 0.0
C15 C 0.24205 0.26229 0.36358 0.0
H16 H 0.34223 0.29291 0.27059 0.0
H17 H 0.22597 0.25048 0.37376 0.0
H18 H 0.17147 0.19498 0.21827 0.0
H19 H 0.28809 0.24149 0.11659 0.0
H20 H 0.23854 0.23109 0.32735 0.0
H21 H 0.25081 0.29678 0.39727 0.0
H22 H 0.27367 0.26055 0.16227 0.0
H23 H 0.37025 0.33829 0.29229 0.0
H24 H 0.28836 0.33857 0.39726 0.0
H25 H 0.32709 0.36254 0.37475 0.0
H26 H 0.14552 0.14893 0.1967 0.0
H27 H 0.35767 0.36266 0.33572 0.0
H28 H 0.2661 0.19425 0.0942 0.0
N29 N 0.20249 0.19662 0.19045 0.0
C30 C 0.21006 0.18445 0.16603 0.0
C31 C 0.16388 0.15851 0.18824 0.0
C32 C 0.19523 0.15823 0.15258 0.0
C33 C 0.17898 0.18457 0.2007 0.0
C34 C 0.17228 0.14511 0.16443 0.0
N35 N 0.24579 0.22407 0.16629 0.0
C36 C 0.26474 0.23982 0.15285 0.0
C37 C 0.23907 0.18702 0.1272 0.0
C38 C 0.23185 0.19867 0.15334 0.0
C39 C 0.26001 0.20249 0.1143 0.0
C40 C 0.27257 0.22914 0.12693 0.0
H41 H 0.16036 0.12499 0.1547 0.0
H42 H 0.19214 0.12602 0.11685 0.0
H43 H 0.23044 0.1512 0.09466 0.0
O44 O 0.23268 0.27482 0.19276 0.0
O45 O 0.26251 0.2212 0.20145 0.0
O46 O 0.29354 0.22991 0.23823 0.0
O47 O 0.19842 0.23976 0.18416 0.0
O48 O 0.26433 0.27497 0.23297 0.0
O49 O 0.30109 0.26986 0.24591 0.0
O50 O 0.27875 0.21749 0.30129 0.0
O51 O 0.25135 0.27024 0.28809 0.0
O52 O 0.21916 0.25972 0.25161 0.0
O53 O 0.31677 0.2439 0.2945 0.0
O54 O 0.24855 0.2165 0.25516 0.0
O55 O 0.21128 0.22107 0.2439 0.0
C56 C 0.28346 0.21898 0.21216 0.0
C57 C 0.19161 0.27945 0.18754 0.0
C58 C 0.1645 0.30077 0.17104 0.0
C59 C 0.15172 0.30049 0.19636 0.0
C60 C 0.17909 0.2802 0.21295 0.0
C61 C 0.15931 0.29072 0.21737 0.0
C62 C 0.1847 0.29032 0.16669 0.0
C63 C 0.28865 0.27769 0.22926 0.0
C64 C 0.20895 0.264 0.18157 0.0
C65 C 0.20317 0.14622 0.12724 0.0
C66 C 0.22497 0.16058 0.11456 0.0
C67 C 0.22983 0.27176 0.27747 0.0
C68 C 0.31407 0.2242 0.3331 0.0
C69 C 0.33651 0.2067 0.3622 0.0
C70 C 0.33544 0.22615 0.3856 0.0
C71 C 0.31348 0.24358 0.35677 0.0
C72 C 0.32593 0.2059 0.33581 0.0
C73 C 0.32413 0.24453 0.38283 0.0
C74 C 0.22431 0.21332 0.26001 0.0
C75 C 0.30389 0.22395 0.30528 0.0
H76 H 0.13593 0.30811 0.19996 0.0
H77 H 0.18389 0.27157 0.22884 0.0
H78 H 0.14948 0.29081 0.23692 0.0
H79 H 0.1941 0.2896 0.14684 0.0
H80 H 0.34367 0.22731 0.40603 0.0
H81 H 0.30508 0.25817 0.35508 0.0
H82 H 0.3268 0.19106 0.31756 0.0
H83 H 0.3237 0.25963 0.40096 0.0
Eu84 Eu 0.73487 0.27001 0.25019 0.0
C85 C 0.81898 0.22805 0.19349 0.0
N86 N 0.79427 0.21322 0.19774 0.0
C87 C 0.78885 0.18829 0.15015 0.0
C88 C 0.82929 0.22417 0.16677 0.0
C89 C 0.7794 0.19307 0.17694 0.0
C90 C 0.81382 0.20408 0.14495 0.0
C91 C 0.85937 0.26347 0.21192 0.0
C92 C 0.8338 0.24742 0.21589 0.0
C93 C 0.86956 0.26003 0.18518 0.0
C94 C 0.85458 0.24039 0.16269 0.0
Eu95 Eu 0.77924 0.22322 0.24284 0.0
N96 N 0.82328 0.25051 0.24148 0.0
C97 C 0.87401 0.28239 0.23501 0.0
C98 C 0.838 0.26794 0.26435 0.0
C99 C 0.86339 0.2844 0.26139 0.0
H100 H 0.76029 0.18061 0.18102 0.0
H101 H 0.87484 0.29849 0.27953 0.0
H102 H 0.76264 0.31987 0.30717 0.0
H103 H 0.63279 0.20792 0.23048 0.0
H104 H 0.83055 0.269 0.28505 0.0
H105 H 0.8937 0.29515 0.23282 0.0
H106 H 0.6782 0.22912 0.21813 0.0
H107 H 0.77689 0.17245 0.13356 0.0
H108 H 0.8891 0.27229 0.18173 0.0
H109 H 0.86279 0.23783 0.14226 0.0
H110 H 0.75424 0.3323 0.35705 0.0
H111 H 0.82106 0.20042 0.12413 0.0
H112 H 0.62109 0.2159 0.28019 0.0
N113 N 0.72814 0.28578 0.29801 0.0
C114 C 0.70437 0.27318 0.30705 0.0
C115 C 0.74024 0.31532 0.3434 0.0
C116 C 0.69813 0.28052 0.33517 0.0
C117 C 0.74524 0.30776 0.31518 0.0
C118 C 0.71679 0.30132 0.35362 0.0
N119 N 0.69174 0.24816 0.26048 0.0
C120 C 0.67309 0.23254 0.23984 0.0
C121 C 0.65994 0.24252 0.29566 0.0
C122 C 0.68545 0.2543 0.28761 0.0
C123 C 0.64095 0.22525 0.27487 0.0
C124 C 0.64747 0.2206 0.24677 0.0
H125 H 0.7128 0.30752 0.3754 0.0
H126 H 0.6681 0.27298 0.36523 0.0
H127 H 0.63467 0.23977 0.33061 0.0
O128 O 0.72368 0.28149 0.21325 0.0
O129 O 0.71796 0.22945 0.26008 0.0
O130 O 0.75435 0.22798 0.27947 0.0
O131 O 0.72108 0.30283 0.25539 0.0
O132 O 0.73029 0.23949 0.20958 0.0
O133 O 0.73951 0.20424 0.21955 0.0
O134 O 0.80353 0.20611 0.26133 0.0
O135 O 0.77946 0.24764 0.2111 0.0
O136 O 0.77662 0.28592 0.23785 0.0
O137 O 0.76546 0.18071 0.24035 0.0
O138 O 0.78292 0.25279 0.28409 0.0
O139 O 0.7748 0.2882 0.27352 0.0
C140 C 0.72908 0.22023 0.27663 0.0
C141 C 0.72189 0.32485 0.21874 0.0
C142 C 0.70597 0.34712 0.18936 0.0
C143 C 0.72191 0.37157 0.2056 0.0
C144 C 0.73794 0.34945 0.23462 0.0
C145 C 0.73785 0.37268 0.22804 0.0
C146 C 0.70634 0.32379 0.19576 0.0
C147 C 0.72747 0.21429 0.2045 0.0
C148 C 0.71734 0.30054 0.22861 0.0
C149 C 0.67315 0.26774 0.34366 0.0
C150 C 0.65408 0.24886 0.32393 0.0
C151 C 0.78684 0.27339 0.21743 0.0
C152 C 0.78999 0.15932 0.26107 0.0
C153 C 0.80793 0.13949 0.29185 0.0
C154 C 0.79436 0.11446 0.27481 0.0
C155 C 0.77646 0.13411 0.24464 0.0
C156 C 0.80592 0.16199 0.28459 0.0
C157 C 0.7789 0.11187 0.25134 0.0
C158 C 0.78472 0.2777 0.29007 0.0
C159 C 0.78611 0.18246 0.25449 0.0
H160 H 0.72172 0.3898 0.20113 0.0
H161 H 0.74988 0.35074 0.25262 0.0
H162 H 0.7498 0.39161 0.24066 0.0
H163 H 0.6932 0.30489 0.18407 0.0
H164 H 0.79592 0.09681 0.27945 0.0
H165 H 0.76399 0.13157 0.22658 0.0
H166 H 0.816 0.18139 0.2977 0.0
H167 H 0.7686 0.0925 0.2384 0.0
Eu168 Eu 0.75252 0.72297 0.27866 0.0
C169 C 0.8124 0.78429 0.18074 0.0
N170 N 0.80309 0.7946 0.20499 0.0
C171 C 0.84195 0.8331 0.2133 0.0
C172 C 0.8374 0.79786 0.17246 0.0
C173 C 0.81689 0.81933 0.22036 0.0
C174 C 0.85243 0.82214 0.18951 0.0
C175 C 0.80486 0.7511 0.13681 0.0
C176 C 0.79632 0.76099 0.16299 0.0
C177 C 0.82986 0.76439 0.12895 0.0
C178 C 0.8462 0.78748 0.14683 0.0
Eu179 Eu 0.76031 0.76904 0.214 0.0
N180 N 0.77192 0.74858 0.1707 0.0
C181 C 0.78767 0.72861 0.11878 0.0
C182 C 0.75447 0.72789 0.15235 0.0
C183 C 0.76225 0.71717 0.12644 0.0
H184 H 0.80857 0.82887 0.23788 0.0
H185 H 0.74855 0.70031 0.11226 0.0
H186 H 0.70682 0.66157 0.25529 0.0
H187 H 0.75868 0.79387 0.37775 0.0
H188 H 0.73468 0.71961 0.15782 0.0
H189 H 0.79359 0.72042 0.09855 0.0
H190 H 0.77548 0.77354 0.33474 0.0
H191 H 0.85298 0.85242 0.22589 0.0
H192 H 0.83646 0.75732 0.10866 0.0
H193 H 0.86532 0.79768 0.14018 0.0
H194 H 0.66199 0.63702 0.26564 0.0
H195 H 0.8717 0.83309 0.18384 0.0
H196 H 0.71302 0.77315 0.38929 0.0
N197 N 0.71013 0.69604 0.28698 0.0
C198 C 0.69949 0.7065 0.31006 0.0
C199 C 0.67217 0.65669 0.27802 0.0
C200 C 0.67408 0.69273 0.31712 0.0
C201 C 0.69746 0.67089 0.27195 0.0
C202 C 0.66025 0.66784 0.30038 0.0
N203 N 0.73912 0.7432 0.32098 0.0
C204 C 0.75543 0.76481 0.33934 0.0
C205 C 0.70422 0.74097 0.35238 0.0
C206 C 0.71444 0.73041 0.32769 0.0
C207 C 0.72022 0.76435 0.37023 0.0
C208 C 0.74604 0.77611 0.36385 0.0
H209 H 0.64071 0.65668 0.30513 0.0
H210 H 0.64397 0.69358 0.34661 0.0
H211 H 0.67029 0.7358 0.37736 0.0
O212 O 0.78601 0.72847 0.30609 0.0
O213 O 0.73538 0.75661 0.28613 0.0
O214 O 0.74484 0.78574 0.25515 0.0
O215 O 0.75536 0.69054 0.29541 0.0
O216 O 0.78455 0.75332 0.26213 0.0
O217 O 0.78384 0.79136 0.25463 0.0
O218 O 0.72589 0.7659 0.18957 0.0
O219 O 0.77582 0.73439 0.20466 0.0
O220 O 0.77079 0.70853 0.23855 0.0
O221 O 0.75955 0.80137 0.19579 0.0
O222 O 0.72803 0.73826 0.23016 0.0
O223 O 0.72903 0.70031 0.23807 0.0
C224 C 0.73436 0.77765 0.27792 0.0
C225 C 0.79768 0.69063 0.3027 0.0
C226 C 0.82764 0.67238 0.31945 0.0
C227 C 0.83391 0.6648 0.29155 0.0
C228 C 0.80412 0.68254 0.27501 0.0
C229 C 0.82214 0.66978 0.2695 0.0
C230 C 0.80935 0.68528 0.32505 0.0
C231 C 0.79051 0.77865 0.27096 0.0
C232 C 0.77828 0.70388 0.30794 0.0
C233 C 0.66354 0.70378 0.34109 0.0
C234 C 0.67855 0.72781 0.35866 0.0
C235 C 0.77869 0.7148 0.21421 0.0
C236 C 0.71898 0.80616 0.19218 0.0
C237 C 0.69021 0.82636 0.17682 0.0
C238 C 0.68966 0.83935 0.20486 0.0
C239 C 0.7182 0.81947 0.22002 0.0
C240 C 0.70508 0.80981 0.17044 0.0
C241 C 0.70378 0.83608 0.22624 0.0
C242 C 0.72205 0.71281 0.22168 0.0
C243 C 0.73553 0.78986 0.18583 0.0
H244 H 0.84783 0.65477 0.28681 0.0
H245 H 0.79504 0.68582 0.25754 0.0
H246 H 0.82692 0.66363 0.24803 0.0
H247 H 0.8044 0.69121 0.34653 0.0
H248 H 0.67862 0.85243 0.21012 0.0
H249 H 0.72923 0.81752 0.23689 0.0
H250 H 0.70592 0.80001 0.14878 0.0
H251 H 0.70382 0.8467 0.24768 0.0
Eu252 Eu 0.23279 0.75536 0.24776 0.0
C253 C 0.28608 0.6936 0.3018 0.0
N254 N 0.29849 0.71762 0.29577 0.0
C255 C 0.32168 0.73317 0.34087 0.0
C256 C 0.29009 0.68897 0.32836 0.0
C257 C 0.31695 0.73691 0.31438 0.0
C258 C 0.30785 0.70929 0.34812 0.0
C259 C 0.25677 0.64816 0.28664 0.0
C260 C 0.26981 0.67328 0.28113 0.0
C261 C 0.26006 0.64379 0.31336 0.0
C262 C 0.27671 0.66412 0.33415 0.0
Eu263 Eu 0.28851 0.72186 0.25045 0.0
N264 N 0.26637 0.67828 0.25568 0.0
C265 C 0.24088 0.62815 0.26505 0.0
C266 C 0.25187 0.65856 0.23417 0.0
C267 C 0.23867 0.63331 0.23862 0.0
H268 H 0.32859 0.75504 0.30873 0.0
H269 H 0.22683 0.61783 0.22165 0.0
H270 H 0.20591 0.72392 0.1831 0.0
H271 H 0.24763 0.85748 0.30039 0.0
H272 H 0.25042 0.66234 0.21361 0.0
H273 H 0.23056 0.60857 0.26845 0.0
H274 H 0.23914 0.81011 0.2975 0.0
H275 H 0.33633 0.74861 0.35544 0.0
H276 H 0.25005 0.62468 0.31807 0.0
H277 H 0.27937 0.66032 0.35452 0.0
H278 H 0.20177 0.73453 0.13724 0.0
H279 H 0.31162 0.70644 0.36866 0.0
H280 H 0.24837 0.8735 0.25667 0.0
N281 N 0.22318 0.76383 0.20469 0.0
C282 C 0.2284 0.78936 0.20391 0.0
C283 C 0.20939 0.75019 0.15578 0.0
C284 C 0.22522 0.79651 0.17858 0.0
C285 C 0.21243 0.74418 0.18155 0.0
C286 C 0.21601 0.77651 0.15421 0.0
N287 N 0.23733 0.80015 0.2529 0.0
C288 C 0.24026 0.81718 0.27843 0.0
C289 C 0.23991 0.83479 0.22932 0.0
C290 C 0.23572 0.80816 0.22886 0.0
C291 C 0.24505 0.85284 0.25536 0.0
C292 C 0.24469 0.84388 0.28008 0.0
H293 H 0.21309 0.78108 0.13436 0.0
H294 H 0.22868 0.82914 0.15931 0.0
H295 H 0.24152 0.86274 0.20381 0.0
O296 O 0.20616 0.75491 0.28123 0.0
O297 O 0.26218 0.76082 0.21422 0.0
O298 O 0.29971 0.75888 0.23326 0.0
O299 O 0.19044 0.73852 0.23849 0.0
O300 O 0.26752 0.78274 0.27735 0.0
O301 O 0.29832 0.76231 0.27972 0.0
O302 O 0.30458 0.69634 0.22179 0.0
O303 O 0.24874 0.70611 0.267 0.0
O304 O 0.24394 0.74478 0.28619 0.0
O305 O 0.3306 0.72978 0.25133 0.0
O306 O 0.26608 0.71232 0.20901 0.0
O307 O 0.22697 0.71293 0.22637 0.0
C308 C 0.28759 0.76727 0.21654 0.0
C309 C 0.16688 0.75975 0.27068 0.0
C310 C 0.15123 0.79029 0.30339 0.0
C311 C 0.1305 0.78503 0.28406 0.0
C312 C 0.1461 0.75461 0.25146 0.0
C313 C 0.12806 0.76734 0.25814 0.0
C314 C 0.16933 0.77773 0.2966 0.0
C315 C 0.28954 0.78209 0.28719 0.0
C316 C 0.18536 0.74566 0.26458 0.0
C317 C 0.23071 0.82319 0.1786 0.0
C318 C 0.23804 0.84231 0.20395 0.0
C319 C 0.24004 0.72048 0.28663 0.0
C320 C 0.34457 0.71927 0.20508 0.0
C321 C 0.3521 0.70883 0.15499 0.0
C322 C 0.37561 0.73061 0.15965 0.0
C323 C 0.36808 0.74084 0.2094 0.0
C324 C 0.3363 0.70425 0.1777 0.0
C325 C 0.38324 0.74672 0.18662 0.0
C326 C 0.24078 0.70571 0.20595 0.0
C327 C 0.32862 0.71157 0.22868 0.0
H328 H 0.11634 0.79474 0.28897 0.0
H329 H 0.14371 0.74067 0.23143 0.0
H330 H 0.11207 0.76336 0.24328 0.0
H331 H 0.18499 0.78166 0.31194 0.0
H332 H 0.38866 0.73466 0.14288 0.0
H333 H 0.3748 0.753 0.23028 0.0
H334 H 0.3177 0.68825 0.17416 0.0
H335 H 0.40143 0.76329 0.19004 0.0
Eu336 Eu 0.24167 0.7655 0.74284 0.0
C337 C 0.32011 0.71379 0.68148 0.0
N338 N 0.29535 0.70179 0.6886 0.0
C339 C 0.28529 0.67241 0.64308 0.0
C340 C 0.32812 0.70583 0.65433 0.0
C341 C 0.27815 0.68099 0.67017 0.0
C342 C 0.31031 0.68499 0.63504 0.0
C343 C 0.36273 0.74804 0.69384 0.0
C344 C 0.33742 0.73453 0.70123 0.0
C345 C 0.37073 0.73998 0.66685 0.0
C346 C 0.35356 0.71883 0.64726 0.0
Eu347 Eu 0.2862 0.71684 0.73533 0.0
N348 N 0.32908 0.74224 0.72718 0.0
C349 C 0.37919 0.76947 0.71371 0.0
C350 C 0.34513 0.76288 0.74675 0.0
C351 C 0.37034 0.7769 0.74025 0.0
H352 H 0.25906 0.6705 0.67639 0.0
H353 H 0.38297 0.79342 0.75572 0.0
H354 H 0.26973 0.8229 0.78961 0.0
H355 H 0.13817 0.70588 0.72774 0.0
H356 H 0.33859 0.7687 0.76736 0.0
H357 H 0.39872 0.78043 0.70876 0.0
H358 H 0.18383 0.72281 0.71411 0.0
H359 H 0.2716 0.65589 0.62855 0.0
H360 H 0.39014 0.75008 0.66084 0.0
H361 H 0.36005 0.71288 0.62653 0.0
H362 H 0.26129 0.84599 0.8363 0.0
H363 H 0.31575 0.67829 0.61399 0.0
H364 H 0.12646 0.72338 0.77548 0.0
N365 N 0.23395 0.79069 0.78582 0.0
C366 C 0.21019 0.78119 0.79618 0.0
C367 C 0.24683 0.82763 0.82542 0.0
C368 C 0.20411 0.79405 0.82232 0.0
C369 C 0.25167 0.81439 0.79917 0.0
C370 C 0.2231 0.81714 0.83733 0.0
N371 N 0.19753 0.749 0.75381 0.0
C372 C 0.17871 0.73054 0.73488 0.0
C373 C 0.16559 0.75082 0.78827 0.0
C374 C 0.19124 0.75986 0.77948 0.0
C375 C 0.14641 0.73085 0.76955 0.0
C376 C 0.15294 0.72096 0.74256 0.0
H377 H 0.21926 0.82757 0.85754 0.0
H378 H 0.17409 0.79347 0.85224 0.0
H379 H 0.14028 0.75561 0.82235 0.0
O380 O 0.22178 0.77036 0.70697 0.0
O381 O 0.22281 0.72632 0.75543 0.0
O382 O 0.25783 0.71703 0.76999 0.0
O383 O 0.25028 0.80409 0.73343 0.0
O384 O 0.24501 0.73614 0.70423 0.0
O385 O 0.24558 0.69838 0.71473 0.0
O386 O 0.31258 0.70464 0.75749 0.0
O387 O 0.29331 0.74703 0.70826 0.0
O388 O 0.28508 0.77963 0.7398 0.0
O389 O 0.28023 0.67522 0.73094 0.0
O390 O 0.29327 0.74621 0.77733 0.0
O391 O 0.27271 0.77717 0.77778 0.0
C392 C 0.23318 0.71489 0.7704 0.0
C393 C 0.21441 0.81082 0.71562 0.0
C394 C 0.18941 0.83101 0.69387 0.0
C395 C 0.18313 0.842 0.72069 0.0
C396 C 0.20762 0.82174 0.74223 0.0
C397 C 0.19208 0.83722 0.7447 0.0
C398 C 0.2049 0.81515 0.69134 0.0
C399 C 0.23489 0.7106 0.70128 0.0
C400 C 0.23223 0.79593 0.71337 0.0
C401 C 0.17904 0.78409 0.83204 0.0
C402 C 0.15978 0.76254 0.81501 0.0
C403 C 0.29551 0.77179 0.71692 0.0
C404 C 0.29186 0.66484 0.77231 0.0
C405 C 0.30514 0.64962 0.81083 0.0
C406 C 0.27888 0.63546 0.81409 0.0
C407 C 0.26568 0.65053 0.77604 0.0
C408 C 0.31158 0.66457 0.7901 0.0
C409 C 0.25931 0.63609 0.79691 0.0
C410 C 0.28799 0.76757 0.78896 0.0
C411 C 0.29869 0.67966 0.74974 0.0
H412 H 0.17112 0.85418 0.72303 0.0
H413 H 0.21462 0.8187 0.7612 0.0
H414 H 0.18713 0.8457 0.7653 0.0
H415 H 0.21004 0.80684 0.67071 0.0
H416 H 0.27355 0.62387 0.82997 0.0
H417 H 0.25005 0.65051 0.76291 0.0
H418 H 0.33184 0.67536 0.78736 0.0
H419 H 0.23912 0.62518 0.79965 0.0
Eu420 Eu 0.25658 0.22347 0.77374 0.0
C421 C 0.31795 0.29598 0.68377 0.0
N422 N 0.30457 0.30409 0.70563 0.0
C423 C 0.33955 0.34575 0.71841 0.0
C424 C 0.34336 0.31217 0.67935 0.0
C425 C 0.31425 0.32929 0.72163 0.0
C426 C 0.3544 0.33692 0.69761 0.0
C427 C 0.31758 0.26545 0.6394 0.0
C428 C 0.30532 0.27269 0.66402 0.0
C429 C 0.34343 0.2807 0.63596 0.0
C430 C 0.35636 0.30387 0.656 0.0
Eu431 Eu 0.26311 0.27284 0.71003 0.0
N432 N 0.28018 0.25842 0.66752 0.0
C433 C 0.30297 0.24398 0.61823 0.0
C434 C 0.26517 0.23927 0.64591 0.0
C435 C 0.2765 0.2312 0.62126 0.0
H436 H 0.30261 0.33663 0.7372 0.0
H437 H 0.26476 0.21544 0.60446 0.0
H438 H 0.22241 0.15822 0.75235 0.0
H439 H 0.25545 0.28741 0.87613 0.0
H440 H 0.24458 0.23021 0.64798 0.0
H441 H 0.31152 0.23802 0.59884 0.0
H442 H 0.27477 0.27202 0.83236 0.0
H443 H 0.34747 0.36537 0.73175 0.0
H444 H 0.35321 0.27544 0.61725 0.0
H445 H 0.37597 0.31593 0.65247 0.0
H446 H 0.18235 0.12544 0.76478 0.0
H447 H 0.37387 0.34989 0.69492 0.0
H448 H 0.2111 0.26078 0.88657 0.0
N449 N 0.21891 0.19017 0.78346 0.0
C450 C 0.20615 0.19776 0.80615 0.0
C451 C 0.18856 0.14582 0.77619 0.0
C452 C 0.18313 0.17976 0.81378 0.0
C453 C 0.21121 0.16436 0.76929 0.0
C454 C 0.1741 0.15369 0.79806 0.0
N455 N 0.24091 0.23884 0.81715 0.0
C456 C 0.2552 0.26092 0.83644 0.0
C457 C 0.20587 0.23031 0.84853 0.0
C458 C 0.21742 0.22281 0.82343 0.0
C459 C 0.21934 0.25433 0.86711 0.0
C460 C 0.24438 0.26942 0.86132 0.0
H461 H 0.15661 0.13924 0.8034 0.0
H462 H 0.15274 0.17442 0.84359 0.0
H463 H 0.17262 0.21869 0.87396 0.0
O464 O 0.28983 0.23286 0.80338 0.0
O465 O 0.23907 0.25718 0.78323 0.0
O466 O 0.24555 0.28591 0.75156 0.0
O467 O 0.27021 0.19269 0.78112 0.0
O468 O 0.28615 0.25539 0.75593 0.0
O469 O 0.28646 0.29464 0.75088 0.0
O470 O 0.22403 0.265 0.69178 0.0
O471 O 0.27725 0.23715 0.69844 0.0
O472 O 0.27258 0.20986 0.73131 0.0
O473 O 0.25591 0.29955 0.68732 0.0
O474 O 0.24271 0.23967 0.72921 0.0
O475 O 0.22441 0.20179 0.73915 0.0
C476 C 0.23644 0.27766 0.77486 0.0
C477 C 0.28888 0.19877 0.82618 0.0
C478 C 0.30871 0.1792 0.85578 0.0
C479 C 0.28845 0.17859 0.87426 0.0
C480 C 0.26913 0.19799 0.84514 0.0
C481 C 0.26893 0.18795 0.86897 0.0
C482 C 0.30864 0.18919 0.83145 0.0
C483 C 0.2926 0.28071 0.76616 0.0
C484 C 0.28811 0.20835 0.80032 0.0
C485 C 0.17063 0.18788 0.83767 0.0
C486 C 0.18196 0.2131 0.85498 0.0
C487 C 0.27979 0.2168 0.70701 0.0
C488 C 0.21523 0.30404 0.69142 0.0
C489 C 0.18708 0.32653 0.67917 0.0
C490 C 0.19064 0.34121 0.70724 0.0
C491 C 0.21811 0.31889 0.71914 0.0
C492 C 0.19971 0.3079 0.6713 0.0
C493 C 0.20582 0.33722 0.72701 0.0
C494 C 0.22418 0.21699 0.7225 0.0
C495 C 0.23095 0.28703 0.68328 0.0
H496 H 0.28742 0.17049 0.89272 0.0
H497 H 0.25365 0.20484 0.84139 0.0
H498 H 0.25344 0.18724 0.88333 0.0
H499 H 0.32398 0.18979 0.81686 0.0
H500 H 0.1821 0.35629 0.71396 0.0
H501 H 0.23072 0.31707 0.7345 0.0
H502 H 0.19768 0.29668 0.64976 0.0
H503 H 0.20853 0.34883 0.74841 0.0
Eu504 Eu 0.7276 0.25348 0.74179 0.0
C505 C 0.7746 0.1947 0.80228 0.0
N506 N 0.78678 0.21924 0.7976 0.0
C507 C 0.80395 0.23537 0.8454 0.0
C508 C 0.77544 0.19 0.82945 0.0
C509 C 0.80222 0.23917 0.81822 0.0
C510 C 0.7902 0.21077 0.85115 0.0
C511 C 0.74712 0.14904 0.78456 0.0
C512 C 0.76083 0.17437 0.77987 0.0
C513 C 0.74744 0.14446 0.81176 0.0
C514 C 0.76166 0.16483 0.83409 0.0
Eu515 Eu 0.78359 0.22397 0.75127 0.0
N516 N 0.76061 0.17943 0.75369 0.0
C517 C 0.73347 0.12898 0.76176 0.0
C518 C 0.74827 0.15956 0.73122 0.0
C519 C 0.73426 0.13422 0.73498 0.0
H520 H 0.81341 0.25799 0.81365 0.0
H521 H 0.72419 0.11865 0.71713 0.0
H522 H 0.69836 0.22128 0.67693 0.0
H523 H 0.76042 0.35865 0.78959 0.0
H524 H 0.74933 0.16279 0.71022 0.0
H525 H 0.72259 0.1093 0.76455 0.0
H526 H 0.74768 0.31141 0.78889 0.0
H527 H 0.81592 0.25137 0.86184 0.0
H528 H 0.73691 0.12514 0.81571 0.0
H529 H 0.76192 0.16089 0.85487 0.0
H530 H 0.69248 0.23181 0.63185 0.0
H531 H 0.79145 0.2079 0.87228 0.0
H532 H 0.75729 0.37293 0.74566 0.0
N533 N 0.71948 0.26108 0.69757 0.0
C534 C 0.72707 0.28682 0.69602 0.0
C535 C 0.70266 0.24746 0.64955 0.0
C536 C 0.72328 0.29379 0.67073 0.0
C537 C 0.7065 0.24151 0.67513 0.0
C538 C 0.71141 0.27369 0.64719 0.0
N539 N 0.7398 0.29905 0.74452 0.0
C540 C 0.74734 0.31735 0.76934 0.0
C541 C 0.74371 0.33316 0.71979 0.0
C542 C 0.73727 0.30633 0.72023 0.0
C543 C 0.75245 0.35214 0.74501 0.0
C544 C 0.7542 0.34418 0.76989 0.0
H545 H 0.70809 0.27823 0.62741 0.0
H546 H 0.72774 0.32622 0.65073 0.0
H547 H 0.74525 0.36062 0.69371 0.0
O548 O 0.70303 0.2538 0.7773 0.0
O549 O 0.76854 0.27648 0.73203 0.0
O550 O 0.78654 0.24448 0.71503 0.0
O551 O 0.68717 0.2501 0.73562 0.0
O552 O 0.7505 0.26801 0.78407 0.0
O553 O 0.79135 0.26656 0.77266 0.0
O554 O 0.80931 0.20154 0.74101 0.0
O555 O 0.75009 0.2213 0.77983 0.0
O556 O 0.71939 0.2121 0.74588 0.0
O557 O 0.8257 0.24354 0.75924 0.0
O558 O 0.76439 0.20798 0.70681 0.0
O559 O 0.72499 0.21561 0.71092 0.0
C560 C 0.78381 0.26717 0.7152 0.0
C561 C 0.66745 0.2682 0.77458 0.0
C562 C 0.65721 0.2971 0.81451 0.0
C563 C 0.63377 0.29328 0.80025 0.0
C564 C 0.64406 0.26465 0.76044 0.0
C565 C 0.6274 0.27734 0.77318 0.0
C566 C 0.6742 0.28489 0.8015 0.0
C567 C 0.77586 0.27606 0.78902 0.0
C568 C 0.68293 0.25211 0.76229 0.0
C569 C 0.73051 0.32052 0.66998 0.0
C570 C 0.74053 0.34013 0.69447 0.0
C571 C 0.72608 0.20929 0.76994 0.0
C572 C 0.85257 0.22389 0.73143 0.0
C573 C 0.87011 0.21134 0.68629 0.0
C574 C 0.89504 0.22059 0.70023 0.0
C575 C 0.87752 0.23361 0.74456 0.0
C576 C 0.84897 0.2137 0.70224 0.0
C577 C 0.89871 0.23214 0.72892 0.0
C578 C 0.74071 0.2043 0.69724 0.0
C579 C 0.83042 0.22197 0.74914 0.0
H580 H 0.62042 0.30261 0.81009 0.0
H581 H 0.63841 0.25159 0.7398 0.0
H582 H 0.60931 0.27443 0.76228 0.0
H583 H 0.69207 0.28765 0.81285 0.0
H584 H 0.91181 0.21823 0.68944 0.0
H585 H 0.88047 0.24153 0.76709 0.0
H586 H 0.82959 0.20696 0.69241 0.0
H587 H 0.91791 0.23907 0.73926 0.0
Eu588 Eu 0.7304 0.74289 0.71581 0.0
C589 C 0.79856 0.80327 0.82931 0.0
N590 N 0.80546 0.79633 0.80249 0.0
C591 C 0.83845 0.83906 0.8073 0.0
C592 C 0.81112 0.82885 0.84592 0.0
C593 C 0.82551 0.81349 0.79159 0.0
C594 C 0.83115 0.84683 0.83452 0.0
C595 C 0.77051 0.79191 0.86746 0.0
C596 C 0.77849 0.78485 0.84007 0.0
C597 C 0.78337 0.81722 0.88415 0.0
C598 C 0.80349 0.83567 0.87339 0.0
Eu599 Eu 0.78384 0.75202 0.77935 0.0
N600 N 0.76643 0.7603 0.82358 0.0
C601 C 0.7497 0.77334 0.87722 0.0
C602 C 0.74681 0.74185 0.83334 0.0
C603 C 0.7377 0.7483 0.85999 0.0
H604 H 0.83207 0.8075 0.77103 0.0
H605 H 0.72154 0.73387 0.8673 0.0
H606 H 0.67312 0.70121 0.732 0.0
H607 H 0.77671 0.73581 0.61542 0.0
H608 H 0.73844 0.72209 0.82088 0.0
H609 H 0.74276 0.77814 0.898 0.0
H610 H 0.76763 0.75833 0.66223 0.0
H611 H 0.85425 0.85267 0.79853 0.0
H612 H 0.77799 0.82272 0.90549 0.0
H613 H 0.81305 0.85517 0.88652 0.0
H614 H 0.64471 0.6548 0.71553 0.0
H615 H 0.84129 0.86664 0.84666 0.0
H616 H 0.7521 0.68854 0.59667 0.0
N617 N 0.70042 0.69932 0.7004 0.0
C618 C 0.7053 0.68509 0.67585 0.0
C619 C 0.66185 0.66296 0.70434 0.0
C620 C 0.68891 0.65878 0.665 0.0
C621 C 0.67825 0.68915 0.71384 0.0
C622 C 0.66742 0.64755 0.68003 0.0
N623 N 0.74005 0.72327 0.67071 0.0
C624 C 0.75722 0.73749 0.65428 0.0
C625 C 0.72954 0.6841 0.63353 0.0
C626 C 0.72549 0.6975 0.66037 0.0
C627 C 0.7485 0.69806 0.61745 0.0
C628 C 0.76225 0.72489 0.62781 0.0
H629 H 0.65444 0.62738 0.67245 0.0
H630 H 0.68146 0.62466 0.63038 0.0
H631 H 0.71669 0.64695 0.60262 0.0
O632 O 0.73009 0.77647 0.69897 0.0
O633 O 0.76508 0.72885 0.7038 0.0
O634 O 0.7734 0.71569 0.74297 0.0
O635 O 0.69413 0.74532 0.7012 0.0
O636 O 0.76492 0.77948 0.73286 0.0
O637 O 0.80003 0.76907 0.74192 0.0
O638 O 0.79806 0.73374 0.80891 0.0
O639 O 0.75982 0.77994 0.78577 0.0
O640 O 0.72024 0.75612 0.76091 0.0
O641 O 0.82423 0.7548 0.78045 0.0
O642 O 0.74973 0.7134 0.76919 0.0
O643 O 0.71667 0.72461 0.7532 0.0
C644 C 0.77533 0.71528 0.71594 0.0
C645 C 0.6962 0.76758 0.66468 0.0
C646 C 0.67646 0.78649 0.63427 0.0
C647 C 0.67811 0.76703 0.61109 0.0
C648 C 0.69733 0.74832 0.64113 0.0
C649 C 0.68843 0.74814 0.61455 0.0
C650 C 0.68551 0.78659 0.66122 0.0
C651 C 0.78897 0.78107 0.72863 0.0
C652 C 0.70512 0.76713 0.6929 0.0
C653 C 0.69377 0.64491 0.63897 0.0
C654 C 0.71392 0.65759 0.62319 0.0
C655 C 0.73475 0.77548 0.78117 0.0
C656 C 0.8444 0.73771 0.81165 0.0
C657 C 0.86458 0.7149 0.83667 0.0
C658 C 0.88915 0.73289 0.83312 0.0
C659 C 0.86938 0.7553 0.80854 0.0
C660 C 0.84199 0.71726 0.8258 0.0
C661 C 0.8915 0.75285 0.81915 0.0
C662 C 0.72498 0.70868 0.76343 0.0
C663 C 0.82161 0.74177 0.80025 0.0
H664 H 0.67094 0.76611 0.59025 0.0
H665 H 0.70468 0.73312 0.6433 0.0
H666 H 0.6893 0.73311 0.59656 0.0
H667 H 0.68434 0.8014 0.67934 0.0
H668 H 0.9067 0.73138 0.8411 0.0
H669 H 0.87188 0.77123 0.79802 0.0
H670 H 0.82292 0.70352 0.82847 0.0
H671 H 0.91059 0.76655 0.81657 0.0
Cd672 Cd 0.98779 0.97068 0.52683 0.0
Cd673 Cd 0.02851 0.02849 0.47006 0.0
C674 C 0.04243 0.96395 0.53458 0.0
N675 N 0.01854 0.95076 0.52126 0.0
C676 C 0.02567 0.90986 0.51357 0.0
C677 C 0.04981 0.92265 0.52877 0.0
C678 C 0.05856 0.9502 0.53849 0.0
C679 C 0.01012 0.92437 0.51031 0.0
H680 H 0.04825 0.98481 0.54387 0.0
H681 H 0.99059 0.91431 0.50089 0.0
C682 C 0.98749 0.97244 0.45396 0.0
C683 C 0.97499 0.03627 0.46124 0.0
C684 C 0.9583 0.04924 0.45708 0.0
C685 C 0.96592 0.07663 0.46723 0.0
C686 C 0.98973 0.09004 0.48307 0.0
C687 C 1.00594 0.07616 0.48671 0.0
N688 N 0.99854 0.04988 0.47518 0.0
H689 H 0.96964 0.01554 0.4519 0.0
H690 H 0.02504 0.08661 0.4972 0.0
C691 C 0.05229 0.98403 0.45396 0.0
N692 N 0.05535 0.0056 0.47495 0.0
C693 C 0.0897 -0.00137 0.4975 0.0
C694 C 0.08593 0.97567 0.47666 0.0
C695 C 0.06717 0.9685 0.45461 0.0
C696 C 0.07386 0.01342 0.49632 0.0
H697 H 0.03855 0.97902 0.4364 0.0
H698 H 0.07647 0.03111 0.51227 0.0
C699 C 0.0264 0.02811 0.54402 0.0
C700 C 0.95237 0.93393 0.55226 0.0
N701 N 0.96102 0.99459 0.52784 0.0
C702 C 0.96098 0.0117 0.5524 0.0
C703 C 0.94807 0.02936 0.55346 0.0
C704 C 0.93497 0.0292 0.52901 0.0
C705 C 0.9333 0.00965 0.50467 0.0
C706 C 0.94658 0.99234 0.50459 0.0
C707 C 0.0646 0.06012 0.43965 0.0
O708 O 0.99468 0.97853 0.47977 0.0
O709 O 0.99809 0.9892 0.43932 0.0
O710 O 0.02184 0.02124 0.51758 0.0
O711 O 0.01588 0.0109 0.55821 0.0
O712 O 0.94858 0.93289 0.52628 0.0
O713 O 0.97265 0.95156 0.56541 0.0
O714 O 0.06537 0.06761 0.46637 0.0
O715 O 0.0469 0.03862 0.4281 0.0
H716 H 0.97151 0.01209 0.57101 0.0
H717 H 0.94586 0.97761 0.48582 0.0
H718 H 0.01831 0.8887 0.50548 0.0
H719 H 0.07684 0.96084 0.55067 0.0
H720 H 0.9404 0.03811 0.44434 0.0
H721 H 0.99628 0.11116 0.49135 0.0
H722 H 0.1044 0.0048 0.5145 0.0
H723 H 0.06445 0.95133 0.43765 0.0
H724 H 0.94871 0.04324 0.57313 0.0
H725 H 0.92285 0.00843 0.48559 0.0
Cd726 Cd 0.47806 0.99117 0.03824 0.0
Cd727 Cd 0.53602 0.0017 0.95473 0.0
C728 C 0.52921 0.98518 0.06759 0.0
N729 N 0.5079 0.97233 0.04946 0.0
C730 C 0.51741 0.93244 0.04144 0.0
C731 C 0.53964 0.94517 0.05981 0.0
C732 C 0.54558 0.97196 0.07285 0.0
C733 C 0.50187 0.94649 0.03646 0.0
H734 H 0.53348 0.00559 0.07815 0.0
H735 H 0.48479 0.93668 0.02229 0.0
C736 C 0.47571 0.96453 0.96131 0.0
C737 C 0.49327 0.01288 0.91671 0.0
C738 C 0.47765 0.02637 0.91012 0.0
C739 C 0.47821 0.05022 0.92822 0.0
C740 C 0.49464 0.05955 0.95284 0.0
C741 C 0.50956 0.04521 0.95882 0.0
N742 N 0.50864 0.02232 0.94092 0.0
H743 H 0.493 0.99479 0.90257 0.0
H744 H 0.5222 0.05252 0.97771 0.0
C745 C 0.5458 0.94534 0.92465 0.0
N746 N 0.55762 0.96981 0.94138 0.0
C747 C 0.59875 0.96294 0.93848 0.0
C748 C 0.58732 0.93775 0.92066 0.0
C749 C 0.56025 0.92898 0.91416 0.0
C750 C 0.58361 0.97861 0.94848 0.0
H751 H 0.52528 0.93875 0.91862 0.0
H752 H 0.59283 -0.00177 0.9614 0.0
C753 C 0.53323 0.02928 0.02519 0.0
C754 C 0.44201 0.9543 0.06431 0.0
N755 N 0.45652 0.0228 0.05141 0.0
C756 C 0.46545 0.04236 0.07502 0.0
C757 C 0.45139 0.05896 0.08565 0.0
C758 C 0.42765 0.05558 0.07204 0.0
C759 C 0.4192 0.03541 0.04737 0.0
C760 C 0.43386 0.0192 0.03751 0.0
C761 C 0.57504 0.04128 0.9352 0.0
O762 O 0.48197 0.97739 0.98661 0.0
O763 O 0.49256 0.96836 0.94269 0.0
O764 O 0.52701 0.00946 0.00464 0.0
O765 O 0.51828 0.02929 0.04558 0.0
O766 O 0.44042 0.95201 0.03779 0.0
O767 O 0.4597 0.97446 0.07868 0.0
O768 O 0.57178 0.04386 0.96153 0.0
O769 O 0.56071 0.02009 0.91876 0.0
H770 H 0.48314 0.04457 0.08623 0.0
H771 H 0.42676 0.00326 0.01909 0.0
H772 H 0.51219 0.91188 0.03082 0.0
H773 H 0.56238 0.98241 0.08745 0.0
H774 H 0.46509 0.01795 0.89112 0.0
H775 H 0.49641 0.07801 0.96726 0.0
H776 H 0.61932 0.9707 0.94463 0.0
H777 H 0.55035 0.91001 0.90024 0.0
H778 H 0.45871 0.07371 0.10497 0.0
H779 H 0.40132 0.03201 0.03576 0.0
Cd780 Cd 0.98071 0.49379 0.03828 0.0
Cd781 Cd 0.03724 0.50217 0.95379 0.0
C782 C 0.02565 0.48175 0.07104 0.0
N783 N 0.00862 0.47251 0.04814 0.0
C784 C 0.02088 0.43438 0.03405 0.0
C785 C 0.03894 0.44367 0.05717 0.0
C786 C 0.04138 0.46774 0.07574 0.0
C787 C 1.00599 0.4493 0.02981 0.0
H788 H 0.02698 0.49992 0.08574 0.0
H789 H 0.99207 0.44225 0.012 0.0
C790 C 0.97717 0.46801 0.96259 0.0
C791 C 1.00065 0.51996 0.91511 0.0
C792 C 0.98505 0.53365 0.90901 0.0
C793 C 0.97612 0.54915 0.93101 0.0
C794 C 0.98323 0.54996 0.95884 0.0
C795 C 0.99936 0.53649 0.96393 0.0
N796 N 0.00787 0.52193 0.94224 0.0
H797 H 0.00749 0.50823 0.89809 0.0
H798 H 1.00519 0.53786 0.98536 0.0
C799 C 0.04469 0.44356 0.92469 0.0
N800 N 0.05761 0.46899 0.93858 0.0
C801 C 0.09853 0.46183 0.9318 0.0
C802 C 0.08593 0.4356 0.9169 0.0
C803 C 0.05845 0.42653 0.91383 0.0
C804 C 0.08408 0.47809 0.94237 0.0
H805 H 0.02373 0.43656 0.92135 0.0
H806 H 0.09419 0.49833 0.95319 0.0
C807 C 0.04006 0.52922 0.02936 0.0
C808 C 0.94482 0.45564 0.06269 0.0
N809 N 0.96049 0.52651 0.05349 0.0
C810 C 0.96488 0.5399 0.08092 0.0
C811 C 0.95065 0.55609 0.09254 0.0
C812 C 0.93145 0.55877 0.07597 0.0
C813 C 0.92778 0.54506 0.04746 0.0
C814 C 0.9424 0.52896 0.03671 0.0
C815 C 0.07481 0.54217 0.93318 0.0
O816 O 0.98549 0.48105 0.98738 0.0
O817 O 0.99296 0.46998 0.94285 0.0
O818 O 0.03198 0.5152 0.00483 0.0
O819 O 0.02429 0.52731 0.04908 0.0
O820 O 0.94245 0.45436 0.03642 0.0
O821 O 0.96295 0.4753 0.07709 0.0
O822 O 0.07678 0.54104 0.95877 0.0
O823 O 0.05644 0.5241 0.91742 0.0
H824 H 0.97881 0.53725 0.09419 0.0
H825 H 0.93873 0.51781 0.01511 0.0
H826 H 0.01843 0.41587 0.01933 0.0
H827 H 0.05487 0.4753 0.09403 0.0
H828 H 0.98066 0.53254 0.88717 0.0
H829 H 0.97651 0.5609 0.9767 0.0
H830 H 0.1195 0.46991 0.93533 0.0
H831 H 0.04763 0.40668 0.90232 0.0
H832 H 0.95411 0.5656 0.11468 0.0
H833 H 0.91359 0.54652 0.03351 0.0
Cd834 Cd 0.4874 0.4682 0.02756 0.0
Cd835 Cd 0.52744 0.52225 0.96845 0.0
C836 C 0.54094 0.4592 0.03397 0.0
N837 N 0.51641 0.44613 0.02219 0.0
C838 C 0.52227 0.40468 0.01616 0.0
C839 C 0.54676 0.41756 0.03049 0.0
C840 C 0.55654 0.44518 0.03843 0.0
C841 C 0.50716 0.41952 0.01238 0.0
H842 H 0.54786 0.48032 0.04158 0.0
H843 H 0.48742 0.4097 0.0034 0.0
C844 C 0.48697 0.46547 0.95277 0.0
C845 C 0.48561 0.53713 0.94328 0.0
C846 C 0.46803 0.54898 0.93889 0.0
C847 C 0.46106 0.56513 0.96173 0.0
C848 C 0.47173 0.56853 0.98881 0.0
C849 C 0.48932 0.55606 0.9923 0.0
N850 N 0.49596 0.54098 0.96951 0.0
H851 H 0.49167 0.52536 0.9256 0.0
H852 H 0.49793 0.55878 0.01296 0.0
C853 C 0.5513 0.47748 0.95887 0.0
N854 N 0.55572 0.50169 0.97572 0.0
C855 C 0.59359 0.50043 -0.00243 0.0
C856 C 0.58857 0.4749 0.98119 0.0
C857 C 0.56733 0.46358 0.96146 0.0
C858 C 0.57673 0.51367 0.99436 0.0
H859 H 0.53582 0.46911 0.94274 0.0
H860 H 0.58069 0.53359 0.00625 0.0
C861 C 0.52908 0.52259 0.04094 0.0
C862 C 0.44937 0.43706 0.05685 0.0
N863 N 0.46207 0.49234 0.02363 0.0
C864 C 0.46361 0.51176 0.04664 0.0
C865 C 0.44718 0.52603 0.04824 0.0
C866 C 0.42853 0.51972 0.02622 0.0
C867 C 0.42762 0.49993 0.00241 0.0
C868 C 0.4446 0.48616 0.00166 0.0
C869 C 0.5645 0.55445 0.93966 0.0
O870 O 0.49203 0.47289 0.9791 0.0
O871 O 0.49801 0.48192 0.93789 0.0
O872 O 0.52034 0.51505 0.01558 0.0
O873 O 0.51918 0.5072 0.0572 0.0
O874 O 0.45056 0.42901 0.0305 0.0
O875 O 0.46642 0.45876 0.06904 0.0
O876 O 0.56212 0.56329 0.96566 0.0
O877 O 0.54926 0.53147 0.92804 0.0
H878 H 0.47706 0.51562 0.0642 0.0
H879 H 0.44315 0.47008 0.98402 0.0
H880 H 0.51419 0.38336 0.00987 0.0
H881 H 0.57556 0.4557 0.04918 0.0
H882 H 0.4606 0.54619 0.91761 0.0
H883 H 0.46651 0.58058 0.00692 0.0
H884 H 0.61028 0.50996 0.01243 0.0
H885 H 0.56359 0.44443 0.94746 0.0
H886 H 0.44882 0.5416 0.06671 0.0
H887 H 0.41343 0.4946 0.9851 0.0
Cd888 Cd 0.97804 0.49343 0.53984 0.0
Cd889 Cd 0.03529 0.50172 0.45526 0.0
C890 C 0.02177 0.48327 0.57616 0.0
N891 N 0.00956 0.47638 0.55022 0.0
C892 C 0.0294 0.44387 0.53472 0.0
C893 C 0.04191 0.45012 0.56144 0.0
C894 C 0.03818 0.47041 0.58222 0.0
C895 C 0.01322 0.4572 0.52961 0.0
H896 H 0.01811 0.49815 0.59238 0.0
H897 H 1.00289 0.45154 0.50936 0.0
C898 C 0.97628 0.46433 0.46444 0.0
C899 C 0.98733 0.51191 0.42464 0.0
C900 C 0.97138 0.52581 0.42017 0.0
C901 C 0.97608 0.55144 0.43635 0.0
C902 C 0.99672 0.56238 0.45691 0.0
C903 C 0.0118 0.54759 0.46107 0.0
N904 N 0.00686 0.52279 0.44517 0.0
H905 H 0.98418 0.49255 0.41152 0.0
H906 H 0.02776 0.55604 0.47681 0.0
C907 C 0.05524 0.45925 0.41104 0.0
N908 N 0.05607 0.46919 0.4393 0.0
C909 C 0.0849 0.44652 0.44677 0.0
C910 C 0.08474 0.43618 0.41755 0.0
C911 C 0.06934 0.4428 0.39978 0.0
C912 C 0.07053 0.46301 0.45716 0.0
H913 H 0.04415 0.4647 0.39701 0.0
H914 H 0.07138 0.47131 0.47953 0.0
C915 C 0.03369 0.53214 0.52641 0.0
C916 C 0.94526 0.45477 0.56649 0.0
N917 N 0.95466 0.52402 0.55325 0.0
C918 C 0.96657 0.55075 0.5612 0.0
C919 C 0.95208 0.56712 0.57158 0.0
C920 C 0.92498 0.55607 0.57419 0.0
C921 C 0.91328 0.52847 0.56532 0.0
C922 C 0.92842 0.5129 0.55497 0.0
C923 C 0.07047 0.54107 0.43219 0.0
O924 O 0.98296 0.47902 0.48889 0.0
O925 O 0.99261 0.46695 0.44524 0.0
O926 O 0.02794 0.5124 0.50571 0.0
O927 O 0.01864 0.53143 0.54681 0.0
O928 O 0.94169 0.45286 0.54025 0.0
O929 O 0.96301 0.47535 0.58009 0.0
O930 O 0.07413 0.54041 0.45772 0.0
O931 O 0.05142 0.52263 0.41765 0.0
H932 H 0.98744 0.55947 0.56021 0.0
H933 H 0.91916 0.4917 0.54882 0.0
H934 H 0.03122 0.4281 0.51818 0.0
H935 H 0.04756 0.47608 0.60308 0.0
H936 H 0.95596 0.51688 0.40372 0.0
H937 H 1.00106 0.58212 0.46975 0.0
H938 H 0.09605 0.44198 0.46161 0.0
H939 H 0.06871 0.43605 0.37715 0.0
H940 H 0.96222 0.58818 0.57836 0.0
H941 H 0.89251 0.51883 0.56641 0.0
Cd942 Cd 0.4813 0.99486 0.53825 0.0
Cd943 Cd 0.53507 0.00059 0.45496 0.0
C944 C 0.51684 0.97711 0.57742 0.0
N945 N 0.50999 0.97478 0.55007 0.0
C946 C 0.53307 0.94507 0.53461 0.0
C947 C 0.53974 0.94641 0.56267 0.0
C948 C 0.53159 0.96289 0.58421 0.0
C949 C 0.51798 0.9593 0.52879 0.0
H950 H 0.51039 0.98958 0.59403 0.0
H951 H 0.51219 0.95752 0.50722 0.0
C952 C 0.47796 0.9651 0.46515 0.0
C953 C 0.49218 0.01347 0.42008 0.0
C954 C 0.47692 0.02757 0.41416 0.0
C955 C 0.47601 0.04956 0.43427 0.0
C956 C 0.49026 0.05683 0.46003 0.0
C957 C 0.50547 0.0424 0.46495 0.0
N958 N 0.50623 0.0212 0.44509 0.0
H959 H 0.49326 -0.00327 0.4045 0.0
H960 H 0.51715 0.04848 0.48444 0.0
C961 C 0.54437 0.94583 0.42029 0.0
N962 N 0.55556 0.96792 0.4409 0.0
C963 C 0.59469 0.9575 0.44104 0.0
C964 C 0.58393 0.93479 0.41933 0.0
C965 C 0.55815 0.92897 0.4093 0.0
C966 C 0.58025 0.97379 0.4514 0.0
H967 H 0.52503 0.9417 0.41159 0.0
H968 H 0.58914 0.99164 0.46732 0.0
C969 C 0.53994 0.03042 0.52989 0.0
C970 C 0.44284 0.95757 0.56159 0.0
N971 N 0.46142 0.02774 0.55116 0.0
C972 C 0.46688 0.04342 0.57758 0.0
C973 C 0.45257 0.05979 0.58803 0.0
C974 C 0.43215 0.06012 0.57131 0.0
C975 C 0.42734 0.04406 0.54383 0.0
C976 C 0.44216 0.02795 0.53422 0.0
C977 C 0.5716 0.03779 0.43031 0.0
O978 O 0.48663 0.9826 0.48757 0.0
O979 O 0.49273 0.9651 0.44458 0.0
O980 O 0.53125 0.01504 0.50613 0.0
O981 O 0.52457 0.02939 0.55001 0.0
O982 O 0.4421 0.95595 0.53515 0.0
O983 O 0.46081 0.97688 0.5766 0.0
O984 O 0.57481 0.03778 0.45605 0.0
O985 O 0.55192 0.01991 0.41619 0.0
H986 H 0.48174 0.04246 0.59103 0.0
H987 H 0.43768 0.01498 0.51351 0.0
H988 H 0.5387 0.93245 0.51734 0.0
H989 H 0.5365 0.96473 0.60612 0.0
H990 H 0.46619 0.02159 0.39401 0.0
H991 H 0.49017 0.0739 0.47583 0.0
H992 H 0.61425 0.96287 0.4499 0.0
H993 H 0.54894 0.91205 0.39234 0.0
H994 H 0.45688 0.07128 0.60948 0.0
H995 H 0.41211 0.04368 0.52989 0.0
H996 H 0.23317 0.17252 0.27453 0.0
H997 H 0.20787 0.14534 0.30595 0.0
H998 H 0.1611 0.19497 0.32412 0.0
H999 H 0.18528 0.22103 0.29137 0.0
H1000 H 0.19866 0.15118 0.35813 0.0
H1001 H 0.1015 0.16302 0.33196 0.0
H1002 H 0.07881 0.16841 0.2919 0.0
H1003 H 0.12131 0.12989 0.23404 0.0
H1004 H 0.14442 0.12454 0.27374 0.0
H1005 H 0.10423 0.10763 0.45681 0.0
H1006 H 0.1344 0.13278 0.42661 0.0
H1007 H 0.09744 0.07151 0.35351 0.0
H1008 H 0.06729 0.04661 0.38317 0.0
H1009 H 0.10228 0.11796 0.34498 0.0
H1010 H 0.15519 0.07767 0.37701 0.0
H1011 H 0.17692 0.06396 0.41118 0.0
H1012 H 0.22213 0.14497 0.44708 0.0
H1013 H 0.20025 0.15924 0.41344 0.0
C1014 C 0.21752 0.17757 0.28539 0.0
C1015 C 0.21082 0.19851 0.28053 0.0
C1016 C 0.20317 0.16215 0.30333 0.0
C1017 C 0.18229 0.16783 0.3169 0.0
C1018 C 0.17662 0.18975 0.31317 0.0
C1019 C 0.19043 0.20465 0.29461 0.0
C1020 C 0.16577 0.15034 0.33412 0.0
C1021 C 0.17759 0.14393 0.35532 0.0
C1022 C 0.13833 0.14012 0.32976 0.0
C1023 C 0.1248 0.14359 0.30579 0.0
C1024 C 0.10601 0.15575 0.31067 0.0
C1025 C 0.09315 0.15888 0.28804 0.0
C1026 C 0.09874 0.14965 0.26043 0.0
C1027 C 0.11721 0.13729 0.25541 0.0
C1028 C 0.13025 0.13428 0.27797 0.0
C1029 C 0.10266 0.09958 0.43431 0.0
C1030 C 0.08335 0.07532 0.42228 0.0
C1031 C 0.11991 0.11384 0.41716 0.0
C1032 C 0.11806 0.10388 0.38792 0.0
C1033 C 0.09904 0.07952 0.37603 0.0
C1034 C 0.08186 0.06535 0.39304 0.0
C1035 C 0.13512 0.11928 0.36936 0.0
C1036 C 0.12336 0.12527 0.34788 0.0
C1037 C 0.16255 0.12794 0.37263 0.0
C1038 C 0.17582 0.11955 0.39294 0.0
C1039 C 0.16956 0.0926 0.39239 0.0
C1040 C 0.18193 0.08471 0.41163 0.0
C1041 C 0.20083 0.10358 0.43136 0.0
C1042 C 0.20743 0.13038 0.43183 0.0
C1043 C 0.19504 0.13838 0.41268 0.0
H1044 H 0.21042 0.09744 0.44624 0.0
H1045 H 0.0887 0.152 0.24293 0.0
H1046 H 0.79542 0.10914 0.33079 0.0
H1047 H 0.82401 0.10796 0.36746 0.0
H1048 H 0.88562 0.1739 0.34701 0.0
H1049 H 0.8572 0.17451 0.30936 0.0
H1050 H 0.90318 0.13639 0.34827 0.0
H1051 H 0.85644 0.17885 0.41203 0.0
H1052 H 0.81903 0.18802 0.43498 0.0
H1053 H 0.79312 0.11258 0.45695 0.0
H1054 H 0.83015 0.10277 0.43377 0.0
H1055 H 0.98442 0.12276 0.44936 0.0
H1056 H 0.95956 0.14206 0.42601 0.0
H1057 H 0.88818 0.0813 0.43837 0.0
H1058 H 0.91291 0.06261 0.4628 0.0
H1059 H 0.87923 0.12401 0.44423 0.0
H1060 H 0.92317 0.08013 0.3733 0.0
H1061 H 0.96193 0.07238 0.3522 0.0
H1062 H 0.9945 0.15331 0.34588 0.0
H1063 H 0.95601 0.16155 0.36719 0.0
C1064 C 0.815 0.12354 0.33422 0.0
C1065 C 0.82417 0.14166 0.31687 0.0
C1066 C 0.83125 0.12308 0.3555 0.0
C1067 C 0.85699 0.14095 0.36021 0.0
C1068 C 0.86583 0.15993 0.34381 0.0
C1069 C 0.84954 0.16036 0.3224 0.0
C1070 C 0.87523 0.1377 0.37996 0.0
C1071 C 0.89825 0.13441 0.36955 0.0
C1072 C 0.86869 0.13455 0.40757 0.0
C1073 C 0.84595 0.13998 0.42088 0.0
C1074 C 0.84259 0.16408 0.42145 0.0
C1075 C 0.82149 0.16942 0.43458 0.0
C1076 C 0.80367 0.15086 0.44734 0.0
C1077 C 0.80691 0.12692 0.44702 0.0
C1078 C 0.82797 0.12147 0.4339 0.0
C1079 C 0.96338 0.11391 0.44779 0.0
C1080 C 0.95064 0.09104 0.45784 0.0
C1081 C 0.9492 0.12463 0.43384 0.0
C1082 C 0.922 0.11268 0.42958 0.0
C1083 C 0.90914 0.09081 0.44114 0.0
C1084 C 0.92331 0.08011 0.45512 0.0
C1085 C 0.9069 0.12233 0.41244 0.0
C1086 C 0.88446 0.12668 0.42326 0.0
C1087 C 0.91402 0.12659 0.38529 0.0
C1088 C 0.93686 0.12149 0.372 0.0
C1089 C 0.93864 0.09626 0.36746 0.0
C1090 C 0.96056 0.09179 0.35549 0.0
C1091 C 0.98069 0.11235 0.34776 0.0
C1092 C 0.9789 0.13741 0.35189 0.0
C1093 C 0.95704 0.14198 0.36388 0.0
H1094 H 0.99766 0.10887 0.33853 0.0
H1095 H 0.78737 0.15506 0.45754 0.0
H1096 H 0.82689 0.76499 0.29416 0.0
H1097 H 0.85782 0.79153 0.334 0.0
H1098 H 0.82391 0.8521 0.34349 0.0
H1099 H 0.79247 0.82541 0.30408 0.0
H1100 H 0.88363 0.85847 0.32635 0.0
H1101 H 0.81708 0.8415 0.40026 0.0
H1102 H 0.78365 0.81026 0.42291 0.0
H1103 H 0.83611 0.76943 0.42972 0.0
H1104 H 0.87005 0.80089 0.40779 0.0
H1105 H 0.94719 0.97075 0.42249 0.0
H1106 H 0.91151 0.93172 0.39869 0.0
H1107 H 0.94213 0.8824 0.43381 0.0
H1108 H 0.97749 0.92204 0.4589 0.0
H1109 H 0.88766 0.86333 0.42915 0.0
H1110 H 0.9581 0.89048 0.37 0.0
H1111 H 0.99212 0.92234 0.34881 0.0
H1112 H 0.93358 0.94065 0.30962 0.0
H1113 H 0.89921 0.90922 0.33093 0.0
C1114 C 0.82541 0.7835 0.30546 0.0
C1115 C 0.80728 0.79318 0.29637 0.0
C1116 C 0.84303 0.79856 0.32812 0.0
C1117 C 0.84271 0.82342 0.34172 0.0
C1118 C 0.82401 0.83269 0.33336 0.0
C1119 C 0.80637 0.81765 0.31075 0.0
C1120 C 0.86479 0.84183 0.36058 0.0
C1121 C 0.8846 0.85965 0.34884 0.0
C1122 C 0.86629 0.84236 0.38951 0.0
C1123 C 0.84595 0.82338 0.40235 0.0
C1124 C 0.8214 0.8258 0.40656 0.0
C1125 C 0.80242 0.80812 0.41931 0.0
C1126 C 0.80768 0.78776 0.42754 0.0
C1127 C 0.83204 0.78518 0.42329 0.0
C1128 C 0.85121 0.80302 0.41087 0.0
C1129 C 0.94606 0.95161 0.42545 0.0
C1130 C 0.96501 0.94909 0.44215 0.0
C1131 C 0.92572 0.92939 0.41194 0.0
C1132 C 0.92464 0.90422 0.414 0.0
C1133 C 0.94276 0.9017 0.43194 0.0
C1134 C 0.96286 0.92419 0.44616 0.0
C1135 C 0.90602 0.88093 0.39511 0.0
C1136 C 0.88704 0.86198 0.40663 0.0
C1137 C 0.90543 0.87908 0.36568 0.0
C1138 C 0.92606 0.89752 0.35216 0.0
C1139 C 0.95247 0.90136 0.35694 0.0
C1140 C 0.97183 0.91936 0.34491 0.0
C1141 C 0.96502 0.93352 0.32789 0.0
C1142 C 0.93883 0.92965 0.32279 0.0
C1143 C 0.91939 0.91171 0.3348 0.0
H1144 H 0.98003 0.94748 0.31864 0.0
H1145 H 0.79292 0.77404 0.4373 0.0
H1146 H 0.11515 0.78797 0.34252 0.0
H1147 H 0.11713 0.82143 0.38523 0.0
H1148 H 0.19507 0.8675 0.36846 0.0
H1149 H 0.1935 0.83343 0.32601 0.0
H1150 H 0.1809 0.87338 0.4308 0.0
H1151 H 0.15959 0.88576 0.3416 0.0
H1152 H 0.14003 0.86895 0.29309 0.0
H1153 H 0.06417 0.83933 0.32487 0.0
H1154 H 0.08339 0.85568 0.37362 0.0
H1155 H 0.13862 0.99096 0.4752 0.0
H1156 H 0.16261 0.96111 0.4577 0.0
H1157 H 0.09291 0.8942 0.45886 0.0
H1158 H 0.06884 0.92368 0.47482 0.0
H1159 H 0.11316 0.90579 0.40407 0.0
H1160 H 0.14243 0.90355 0.49819 0.0
H1161 H 0.16908 0.92455 0.54289 0.0
H1162 H 0.23844 0.94513 0.4974 0.0
H1163 H 0.21248 0.9244 0.45243 0.0
C1164 C 0.13292 0.8049 0.3484 0.0
C1165 C 0.1539 0.80864 0.33086 0.0
C1166 C 0.13422 0.82372 0.37294 0.0
C1167 C 0.15621 0.84686 0.37974 0.0
C1168 C 0.17811 0.8496 0.36361 0.0
C1169 C 0.17701 0.83041 0.33924 0.0
C1170 C 0.15311 0.87012 0.39848 0.0
C1171 C 0.16635 0.8808 0.42504 0.0
C1172 C 0.13492 0.88035 0.39028 0.0
C1173 C 0.12293 0.87183 0.3612 0.0
C1174 C 0.13873 0.87564 0.33822 0.0
C1175 C 0.12773 0.86618 0.3107 0.0
C1176 C 0.10087 0.85304 0.3059 0.0
C1177 C 0.08496 0.84952 0.32864 0.0
C1178 C 0.0959 0.85893 0.35623 0.0
C1179 C 0.1289 0.96992 0.47302 0.0
C1180 C 0.10202 0.9594 0.47631 0.0
C1181 C 0.14257 0.95297 0.46312 0.0
C1182 C 0.12937 0.92563 0.45703 0.0
C1183 C 0.10333 0.91532 0.46368 0.0
C1184 C 0.08964 0.93211 0.47289 0.0
C1185 C 0.13973 0.90809 0.43727 0.0
C1186 C 0.12794 0.8987 0.41 0.0
C1187 C 0.16013 0.90028 0.44458 0.0
C1188 C 0.17546 0.91248 0.47186 0.0
C1189 C 0.16333 0.91277 0.49765 0.0
C1190 C 0.17829 0.92454 0.52304 0.0
C1191 C 0.2053 0.9362 0.52295 0.0
C1192 C 0.2175 0.93605 0.49746 0.0
C1193 C 0.2027 0.92419 0.47202 0.0
H1194 H 0.21679 0.94529 0.54264 0.0
H1195 H 0.09239 0.84563 0.28457 0.0
H1196 H 0.19821 0.879 0.68307 0.0
H1197 H 0.17582 0.88934 0.64698 0.0
H1198 H 0.13531 0.80628 0.61339 0.0
H1199 H 0.1583 0.79584 0.6493 0.0
H1200 H 0.14825 0.83696 0.57125 0.0
H1201 H 0.10604 0.83692 0.66006 0.0
H1202 H 0.10585 0.85003 0.71178 0.0
H1203 H 0.13144 0.93156 0.70768 0.0
H1204 H 0.13211 0.91894 0.65596 0.0
H1205 H 0.02994 0.87615 0.54568 0.0
H1206 H 0.05394 0.85397 0.56597 0.0
H1207 H 0.12637 0.91246 0.55306 0.0
H1208 H 0.10279 0.93469 0.53209 0.0
H1209 H 0.09381 0.88843 0.61584 0.0
H1210 H 0.16402 0.86512 0.53232 0.0
H1211 H 0.16501 0.85319 0.48059 0.0
H1212 H 0.08161 0.81794 0.47361 0.0
H1213 H 0.08016 0.82897 0.52526 0.0
C1214 C 0.18502 0.86298 0.66751 0.0
C1215 C 0.17972 0.83668 0.66895 0.0
C1216 C 0.17227 0.86887 0.64696 0.0
C1217 C 0.15364 0.84857 0.62786 0.0
C1218 C 0.14965 0.82218 0.62796 0.0
C1219 C 0.16271 0.81625 0.64842 0.0
C1220 C 0.13626 0.85515 0.6104 0.0
C1221 C 0.13625 0.8481 0.58092 0.0
C1222 C 0.12041 0.86944 0.62314 0.0
C1223 C 0.11924 0.87699 0.65417 0.0
C1224 C 0.1117 0.85764 0.67021 0.0
C1225 C 0.11151 0.86499 0.69952 0.0
C1226 C 0.11866 0.89161 0.71301 0.0
C1227 C 0.1259 0.91094 0.6972 0.0
C1228 C 0.12615 0.90371 0.66789 0.0
C1229 C 0.05101 0.88387 0.54621 0.0
C1230 C 0.06445 0.90718 0.53713 0.0
C1231 C 0.06464 0.87123 0.558 0.0
C1232 C 0.09187 0.88147 0.56054 0.0
C1233 C 0.1054 0.90404 0.55056 0.0
C1234 C 0.09184 0.91682 0.53889 0.0
C1235 C 0.10607 0.87058 0.57676 0.0
C1236 C 0.10559 0.87703 0.60612 0.0
C1237 C 0.12128 0.85572 0.56383 0.0
C1238 C 0.12198 0.84827 0.53272 0.0
C1239 C 0.1459 0.85464 0.51978 0.0
C1240 C 0.14654 0.84799 0.49044 0.0
C1241 C 0.12338 0.83497 0.47381 0.0
C1242 C 0.09954 0.82824 0.48649 0.0
C1243 C 0.0988 0.83471 0.51581 0.0
H1244 H 0.12393 0.83003 0.4511 0.0
H1245 H 0.11855 0.89726 0.7357 0.0
H1246 H 0.1772 0.22068 0.71497 0.0
H1247 H 0.14613 0.19697 0.67431 0.0
H1248 H 0.20392 0.16843 0.63139 0.0
H1249 H 0.23416 0.19083 0.6725 0.0
H1250 H 0.14133 0.18811 0.61305 0.0
H1251 H 0.18322 0.11114 0.61827 0.0
H1252 H 0.20795 0.0993 0.65161 0.0
H1253 H 0.16547 0.12581 0.71972 0.0
H1254 H 0.14105 0.13821 0.68691 0.0
H1255 H 0.05794 0.06655 0.51908 0.0
H1256 H 0.09387 0.10622 0.54213 0.0
H1257 H 0.07122 0.08867 0.62303 0.0
H1258 H 0.03638 0.04856 0.60009 0.0
H1259 H 0.12049 0.09405 0.61537 0.0
H1260 H 0.06334 0.14081 0.6018 0.0
H1261 H 0.03576 0.15306 0.57225 0.0
H1262 H 0.10181 0.1867 0.52588 0.0
H1263 H 0.12971 0.17427 0.55491 0.0
C1264 C 0.18331 0.20985 0.69647 0.0
C1265 C 0.20787 0.2074 0.69652 0.0
C1266 C 0.16578 0.19666 0.6732 0.0
C1267 C 0.1728 0.18098 0.64994 0.0
C1268 C 0.19819 0.18045 0.64919 0.0
C1269 C 0.21537 0.19302 0.67269 0.0
C1270 C 0.1522 0.16049 0.63033 0.0
C1271 C 0.13686 0.16749 0.61314 0.0
C1272 C 0.14629 0.13371 0.6308 0.0
C1273 C 0.16041 0.12552 0.65027 0.0
C1274 C 0.17917 0.11428 0.64038 0.0
C1275 C 0.19325 0.10765 0.6592 0.0
C1276 C 0.18838 0.11188 0.68784 0.0
C1277 C 0.16943 0.1227 0.69766 0.0
C1278 C 0.15552 0.1296 0.67899 0.0
C1279 C 0.06062 0.07132 0.54176 0.0
C1280 C 0.04505 0.05409 0.55773 0.0
C1281 C 0.08096 0.09406 0.5549 0.0
C1282 C 0.08534 0.10012 0.58423 0.0
C1283 C 0.06837 0.08405 0.6003 0.0
C1284 C 0.04848 0.06115 0.58718 0.0
C1285 C 0.10893 0.12146 0.59835 0.0
C1286 C 0.12509 0.11454 0.61452 0.0
C1287 C 0.11507 0.14816 0.59713 0.0
C1288 C 0.09853 0.1564 0.58033 0.0
C1289 C 0.07194 0.15071 0.58521 0.0
C1290 C 0.05626 0.15768 0.56856 0.0
C1291 C 0.06701 0.17058 0.54715 0.0
C1292 C 0.0935 0.17667 0.54245 0.0
C1293 C 0.10927 0.16969 0.55901 0.0
H1294 H 0.05481 0.17591 0.53424 0.0
H1295 H 0.19926 0.10672 0.7024 0.0
H1296 H 0.82534 0.17286 0.65706 0.0
H1297 H 0.82246 0.14549 0.61032 0.0
H1298 H 0.90424 0.18748 0.60233 0.0
H1299 H 0.90537 0.21833 0.6452 0.0
H1300 H 0.88984 0.1697 0.55676 0.0
H1301 H 0.86449 0.11999 0.63582 0.0
H1302 H 0.83327 0.10124 0.66971 0.0
H1303 H 0.77284 0.06511 0.60376 0.0
H1304 H 0.8037 0.08382 0.56961 0.0
H1305 H 0.95583 0.081 0.55483 0.0
H1306 H 0.9342 0.11282 0.56297 0.0
H1307 H 0.86833 0.05748 0.50925 0.0
H1308 H 0.88874 0.02397 0.50356 0.0
H1309 H 0.85733 0.07618 0.56344 0.0
H1310 H 0.8979 0.13809 0.48975 0.0
H1311 H 0.93647 0.16477 0.46852 0.0
H1312 H 0.98281 0.18111 0.54446 0.0
H1313 H 0.94388 0.15719 0.56697 0.0
C1314 C 0.84244 0.17716 0.64486 0.0
C1315 C 0.86619 0.19727 0.65601 0.0
C1316 C 0.84089 0.16078 0.61818 0.0
C1317 C 0.86346 0.16287 0.60314 0.0
C1318 C 0.8863 0.1846 0.61314 0.0
C1319 C 0.88729 0.20205 0.63858 0.0
C1320 C 0.86512 0.1416 0.57921 0.0
C1321 C 0.8827 0.14929 0.55856 0.0
C1322 C 0.85471 0.11438 0.57973 0.0
C1323 C 0.83617 0.10373 0.60039 0.0
C1324 C 0.84449 0.1082 0.62867 0.0
C1325 C 0.82688 0.09757 0.64788 0.0
C1326 C 0.80105 0.08214 0.63893 0.0
C1327 C 0.7928 0.07721 0.61071 0.0
C1328 C 0.81031 0.08785 0.59144 0.0
C1329 C 0.93682 0.07556 0.54449 0.0
C1330 C 0.92371 0.04978 0.5291 0.0
C1331 C 0.92489 0.09426 0.54829 0.0
C1332 C 0.90021 0.08808 0.53558 0.0
C1333 C 0.88772 0.06283 0.51862 0.0
C1334 C 0.89937 0.04373 0.51544 0.0
C1335 C 0.88548 0.10572 0.54545 0.0
C1336 C 0.86428 0.09668 0.56185 0.0
C1337 C 0.89461 0.13236 0.54356 0.0
C1338 C 0.91839 0.14437 0.52928 0.0
C1339 C 0.91648 0.14686 0.50154 0.0
C1340 C 0.93828 0.16191 0.4895 0.0
C1341 C 0.96232 0.17371 0.50469 0.0
C1342 C 0.96436 0.17141 0.53241 0.0
C1343 C 0.94235 0.15739 0.54492 0.0
H1344 H 0.97922 0.18512 0.4952 0.0
H1345 H 0.78746 0.07391 0.65382 0.0
H1346 H 0.77529 0.81584 0.70654 0.0
H1347 H 0.79954 0.84249 0.67442 0.0
H1348 H 0.86043 0.81021 0.67577 0.0
H1349 H 0.83605 0.78291 0.70764 0.0
H1350 H 0.87024 0.87337 0.69033 0.0
H1351 H 0.84487 0.7913 0.59972 0.0
H1352 H 0.80965 0.75255 0.57251 0.0
H1353 H 0.75582 0.79385 0.59141 0.0
H1354 H 0.7909 0.83291 0.61843 0.0
H1355 H 0.96285 0.91314 0.59353 0.0
H1356 H 0.93173 0.88904 0.62334 0.0
H1357 H 0.8685 0.89445 0.57688 0.0
H1358 H 0.8997 0.91729 0.5459 0.0
H1359 H 0.85503 0.84861 0.5864 0.0
H1360 H 0.89315 0.93473 0.64476 0.0
H1361 H 0.92796 0.9754 0.66893 0.0
H1362 H 0.95466 0.93102 0.71525 0.0
H1363 H 0.92029 0.89001 0.69107 0.0
C1364 C 0.79366 0.81408 0.69974 0.0
C1365 C 0.80377 0.79721 0.70948 0.0
C1366 C 0.80743 0.82933 0.68144 0.0
C1367 C 0.83148 0.82798 0.67276 0.0
C1368 C 0.84171 0.81123 0.68232 0.0
C1369 C 0.82789 0.79583 0.70057 0.0
C1370 C 0.84671 0.84517 0.65489 0.0
C1371 C 0.8671 0.86816 0.66758 0.0
C1372 C 0.84174 0.83859 0.62554 0.0
C1373 C 0.8203 0.81474 0.61123 0.0
C1374 C 0.82546 0.79197 0.59816 0.0
C1375 C 0.80561 0.77008 0.58263 0.0
C1376 C 0.78053 0.77078 0.58016 0.0
C1377 C 0.77524 0.79334 0.59336 0.0
C1378 C 0.79508 0.81534 0.60879 0.0
C1379 C 0.94224 0.90881 0.58953 0.0
C1380 C 0.93345 0.9168 0.56755 0.0
C1381 C 0.92455 0.89544 0.60677 0.0
C1382 C 0.8979 0.8907 0.60286 0.0
C1383 C 0.88903 0.89811 0.58036 0.0
C1384 C 0.90674 0.91092 0.5626 0.0
C1385 C 0.87929 0.87695 0.62158 0.0
C1386 C 0.85818 0.85444 0.60914 0.0
C1387 C 0.88336 0.88449 0.65131 0.0
C1388 C 0.90417 0.9092 0.66591 0.0
C1389 C 0.90655 0.93358 0.65993 0.0
C1390 C 0.9262 0.95672 0.67367 0.0
C1391 C 0.94353 0.95579 0.69358 0.0
C1392 C 0.94123 0.93172 0.69982 0.0
C1393 C 0.92164 0.90852 0.68612 0.0
H1394 H 0.95872 0.97372 0.7042 0.0
H1395 H 0.76518 0.7538 0.56814 0.0
H1396 H 0.26212 0.1728 0.17232 0.0
H1397 H 0.28468 0.14502 0.14499 0.0
H1398 H 0.35818 0.2005 0.18441 0.0
H1399 H 0.33572 0.2285 0.21126 0.0
H1400 H 0.36218 0.18269 0.12806 0.0
H1401 H 0.32642 0.14374 0.20679 0.0
H1402 H 0.29106 0.12389 0.23615 0.0
H1403 H 0.25284 0.06222 0.16456 0.0
H1404 H 0.28781 0.0819 0.13468 0.0
H1405 H 0.44473 0.10787 0.10089 0.0
H1406 H 0.41898 0.13449 0.12173 0.0
H1407 H 0.34835 0.06931 0.09007 0.0
H1408 H 0.37396 0.04192 0.07068 0.0
H1409 H 0.34023 0.09096 0.13938 0.0
H1410 H 0.37373 0.12628 0.06049 0.0
H1411 H 0.40628 0.14509 0.02794 0.0
H1412 H 0.44507 0.21203 0.09454 0.0
H1413 H 0.41293 0.19345 0.12761 0.0
C1414 C 0.28313 0.17942 0.17458 0.0
C1415 C 0.29712 0.20307 0.19372 0.0
C1416 C 0.29602 0.1633 0.15925 0.0
C1417 C 0.32322 0.17042 0.16277 0.0
C1418 C 0.33724 0.19444 0.18127 0.0
C1419 C 0.32435 0.21043 0.19671 0.0
C1420 C 0.33715 0.15275 0.14786 0.0
C1421 C 0.35756 0.16272 0.13078 0.0
C1422 C 0.3306 0.12629 0.15045 0.0
C1423 C 0.3096 0.11446 0.16844 0.0
C1424 C 0.31037 0.12607 0.19726 0.0
C1425 C 0.29042 0.11482 0.21401 0.0
C1426 C 0.26968 0.09185 0.20221 0.0
C1427 C 0.26889 0.08004 0.17366 0.0
C1428 C 0.28878 0.09122 0.15682 0.0
C1429 C 0.42373 0.09893 0.09851 0.0
C1430 C 0.41169 0.07248 0.08387 0.0
C1431 C 0.40891 0.11446 0.11017 0.0
C1432 C 0.38151 0.10428 0.1072 0.0
C1433 C 0.36939 0.07788 0.09268 0.0
C1434 C 0.3842 0.06224 0.08122 0.0
C1435 C 0.36564 0.12097 0.11974 0.0
C1436 C 0.34486 0.11085 0.13643 0.0
C1437 C 0.37148 0.14714 0.11631 0.0
C1438 C 0.39105 0.15833 0.09661 0.0
C1439 C 0.38933 0.1449 0.06827 0.0
C1440 C 0.40768 0.15554 0.04971 0.0
C1441 C 0.42777 0.17971 0.05918 0.0
C1442 C 0.42952 0.1933 0.08724 0.0
C1443 C 0.41122 0.18273 0.1059 0.0
H1444 H 0.44194 0.18793 0.04477 0.0
H1445 H 0.25426 0.08317 0.21522 0.0
H1446 H 0.82705 0.31924 0.23531 0.0
H1447 H 0.85639 0.34619 0.20616 0.0
H1448 H 0.81716 0.28885 0.13119 0.0
H1449 H 0.78908 0.26097 0.16056 0.0
H1450 H 0.86537 0.30972 0.12101 0.0
H1451 H 0.80098 0.34639 0.15721 0.0
H1452 H 0.77475 0.36258 0.19301 0.0
H1453 H 0.84411 0.42165 0.23697 0.0
H1454 H 0.87085 0.40572 0.20098 0.0
H1455 H 0.90531 0.40994 0.03805 0.0
H1456 H 0.87915 0.37487 0.0611 0.0
H1457 H 0.92195 0.41873 0.14 0.0
H1458 H 0.9477 0.45367 0.11749 0.0
H1459 H 0.86943 0.40276 0.14419 0.0
H1460 H 0.93331 0.3654 0.10224 0.0
H1461 H 0.95611 0.3492 0.06211 0.0
H1462 H 0.88357 0.29092 0.02476 0.0
H1463 H 0.86028 0.30707 0.06447 0.0
C1464 C 0.82491 0.31241 0.21261 0.0
C1465 C 0.80552 0.28855 0.2 0.0
C1466 C 0.84159 0.32775 0.19596 0.0
C1467 C 0.83834 0.32004 0.16642 0.0
C1468 C 0.81988 0.29538 0.15389 0.0
C1469 C 0.80374 0.27959 0.17062 0.0
C1470 C 0.85281 0.3386 0.14887 0.0
C1471 C 0.86605 0.32999 0.1259 0.0
C1472 C 0.85366 0.36504 0.155 0.0
C1473 C 0.83784 0.37473 0.17664 0.0
C1474 C 0.81062 0.36274 0.1746 0.0
C1475 C 0.79566 0.37192 0.19495 0.0
C1476 C 0.80771 0.39308 0.2175 0.0
C1477 C 0.8348 0.40523 0.21956 0.0
C1478 C 0.84986 0.3962 0.19912 0.0
C1479 C 0.90901 0.41206 0.06032 0.0
C1480 C 0.92835 0.43464 0.07604 0.0
C1481 C 0.89426 0.39196 0.07336 0.0
C1482 C 0.89881 0.39421 0.10217 0.0
C1483 C 0.91818 0.41666 0.11774 0.0
C1484 C 0.9328 0.43665 0.10483 0.0
C1485 C 0.88262 0.37416 0.11697 0.0
C1486 C 0.86881 0.38249 0.13932 0.0
C1487 C 0.88097 0.3475 0.1098 0.0
C1488 C 0.89504 0.33761 0.08617 0.0
C1489 C 0.9222 0.34926 0.08536 0.0
C1490 C 0.93521 0.34007 0.06271 0.0
C1491 C 0.92129 0.31909 0.04087 0.0
C1492 C 0.89433 0.3072 0.04168 0.0
C1493 C 0.88122 0.31635 0.06425 0.0
H1494 H 0.9314 0.312 0.02335 0.0
H1495 H 0.79614 0.40016 0.23334 0.0
H1496 H 0.71022 0.8556 0.13804 0.0
H1497 H 0.68619 0.87239 0.10957 0.0
H1498 H 0.61381 0.82632 0.139 0.0
H1499 H 0.63784 0.8098 0.16762 0.0
H1500 H 0.61064 0.829 0.08098 0.0
H1501 H 0.64337 0.88712 0.17344 0.0
H1502 H 0.67849 0.91457 0.20951 0.0
H1503 H 0.71639 0.96208 0.15144 0.0
H1504 H 0.6817 0.9346 0.11486 0.0
H1505 H 0.52387 0.89613 0.07135 0.0
H1506 H 0.55104 0.87272 0.08316 0.0
H1507 H 0.62003 0.93704 0.07244 0.0
H1508 H 0.59281 0.96092 0.06169 0.0
H1509 H 0.62822 0.92472 0.11616 0.0
H1510 H 0.59706 0.87277 0.02507 0.0
H1511 H 0.56601 0.8457 0.98503 0.0
H1512 H 0.5299 0.78781 0.03332 0.0
H1513 H 0.5605 0.81471 0.07384 0.0
C1514 C 0.68913 0.84845 0.13762 0.0
C1515 C 0.67577 0.83133 0.15478 0.0
C1516 C 0.67545 0.85813 0.12154 0.0
C1517 C 0.64822 0.85077 0.12237 0.0
C1518 C 0.63477 0.8322 0.13798 0.0
C1519 C 0.64846 0.82276 0.15428 0.0
C1520 C 0.63402 0.86452 0.10979 0.0
C1521 C 0.6143 0.8499 0.08867 0.0
C1522 C 0.63948 0.89196 0.11918 0.0
C1523 C 0.66012 0.90862 0.14133 0.0
C1524 C 0.6593 0.90329 0.1683 0.0
C1525 C 0.67912 0.91887 0.18884 0.0
C1526 C 0.6997 0.94001 0.18275 0.0
C1527 C 0.70047 0.94567 0.15612 0.0
C1528 C 0.68074 0.9301 0.13548 0.0
C1529 C 0.54484 0.90515 0.07124 0.0
C1530 C 0.55621 0.93042 0.06568 0.0
C1531 C 0.56041 0.89165 0.07781 0.0
C1532 C 0.58773 0.90282 0.07833 0.0
C1533 C 0.59906 0.92791 0.07227 0.0
C1534 C 0.5835 0.9416 0.06617 0.0
C1535 C 0.60444 0.88928 0.08717 0.0
C1536 C 0.62461 0.9039 0.10788 0.0
C1537 C 0.59982 0.86199 0.07675 0.0
C1538 C 0.58097 0.84592 0.05263 0.0
C1539 C 0.58234 0.8544 0.02728 0.0
C1540 C 0.56485 0.83905 0.00446 0.0
C1541 C 0.54596 0.81508 0.00665 0.0
C1542 C 0.54453 0.8064 0.03167 0.0
C1543 C 0.56196 0.82169 0.05457 0.0
H1544 H 0.53248 0.8032 0.98893 0.0
H1545 H 0.71502 0.95205 0.19868 0.0
H1546 H 0.25225 0.71077 0.15254 0.0
H1547 H 0.22478 0.68511 0.10939 0.0
H1548 H 0.17226 0.63483 0.15782 0.0
H1549 H 0.19846 0.66146 0.20102 0.0
H1550 H 0.19977 0.61754 0.09308 0.0
H1551 H 0.14097 0.65641 0.15476 0.0
H1552 H 0.13299 0.69525 0.18319 0.0
H1553 H 0.14916 0.73253 0.11303 0.0
H1554 H 0.15853 0.69432 0.08463 0.0
H1555 H 0.07383 0.53019 0.06851 0.0
H1556 H 0.11634 0.56393 0.08403 0.0
H1557 H 0.10844 0.60472 0.02077 0.0
H1558 H 0.06541 0.57054 0.00511 0.0
H1559 H 0.11927 0.63566 0.07773 0.0
H1560 H 0.15534 0.58141 0.01295 0.0
H1561 H 0.15867 0.53889 0.98848 0.0
H1562 H 0.18126 0.5271 0.06678 0.0
H1563 H 0.17756 0.56925 0.09182 0.0
C1564 C 0.23498 0.69399 0.15371 0.0
C1565 C 0.22719 0.68796 0.17981 0.0
C1566 C 0.21931 0.67958 0.12926 0.0
C1567 C 0.1963 0.65861 0.13078 0.0
C1568 C 0.18964 0.65145 0.15654 0.0
C1569 C 0.20464 0.66644 0.18105 0.0
C1570 C 0.17865 0.64397 0.10581 0.0
C1571 C 0.18235 0.62161 0.08926 0.0
C1572 C 0.15629 0.64977 0.10072 0.0
C1573 C 0.15128 0.67293 0.11792 0.0
C1574 C 0.14354 0.67318 0.14565 0.0
C1575 C 0.13864 0.69502 0.16172 0.0
C1576 C 0.14073 0.71643 0.14999 0.0
C1577 C 0.14767 0.71599 0.12214 0.0
C1578 C 0.15301 0.69435 0.10613 0.0
C1579 C 0.08146 0.54605 0.05754 0.0
C1580 C 0.06678 0.54778 0.03547 0.0
C1581 C 0.10573 0.5652 0.06627 0.0
C1582 C 0.11563 0.58657 0.05326 0.0
C1583 C 0.1012 0.58815 0.03077 0.0
C1584 C 0.07686 0.56865 0.02175 0.0
C1585 C 0.13965 0.60831 0.06582 0.0
C1586 C 0.13724 0.63211 0.08028 0.0
C1587 C 0.16292 0.60347 0.0694 0.0
C1588 C 0.16624 0.57859 0.05426 0.0
C1589 C 0.16101 0.56975 0.02496 0.0
C1590 C 0.16292 0.54568 0.01099 0.0
C1591 C 0.17021 0.53032 0.02606 0.0
C1592 C 0.17569 0.53905 0.05511 0.0
C1593 C 0.17375 0.56307 0.0692 0.0
H1594 H 0.17159 0.51165 0.01522 0.0
H1595 H 0.13686 0.7333 0.16243 0.0
H1596 H 0.2978 0.74955 0.83368 0.0
H1597 H 0.32307 0.77666 0.87775 0.0
H1598 H 0.33386 0.84698 0.84756 0.0
H1599 H 0.30925 0.82037 0.80396 0.0
H1600 H 0.37938 0.82118 0.86656 0.0
H1601 H 0.3121 0.86719 0.88655 0.0
H1602 H 0.26588 0.86172 0.89331 0.0
H1603 H 0.26331 0.81588 0.9545 0.0
H1604 H 0.30945 0.82066 0.94756 0.0
H1605 H 0.44649 0.95272 0.91337 0.0
H1606 H 0.40797 0.91341 0.89679 0.0
H1607 H 0.41022 0.8896 0.9749 0.0
H1608 H 0.4492 0.92863 0.9912 0.0
H1609 H 0.35603 0.88152 0.94527 0.0
H1610 H 0.43797 0.86391 0.93201 0.0
H1611 H 0.48324 0.87643 0.91729 0.0
H1612 H 0.45679 0.87276 0.83385 0.0
H1613 H 0.41148 0.86087 0.84823 0.0
C1614 C 0.30534 0.77085 0.83685 0.0
C1615 C 0.30149 0.7831 0.81585 0.0
C1616 C 0.31938 0.78617 0.86195 0.0
C1617 C 0.32947 0.81367 0.86594 0.0
C1618 C 0.32526 0.82579 0.84511 0.0
C1619 C 0.31129 0.81062 0.82026 0.0
C1620 C 0.34825 0.83009 0.88919 0.0
C1621 C 0.37442 0.83384 0.88443 0.0
C1622 C 0.34144 0.84672 0.91187 0.0
C1623 C 0.31399 0.84405 0.91637 0.0
C1624 C 0.30158 0.8558 0.90128 0.0
C1625 C 0.27543 0.85281 0.90512 0.0
C1626 C 0.26164 0.83839 0.92426 0.0
C1627 C 0.274 0.82695 0.9396 0.0
C1628 C 0.30011 0.82972 0.93566 0.0
C1629 C 0.43835 0.93938 0.9272 0.0
C1630 C 0.45042 0.94363 0.95367 0.0
C1631 C 0.41639 0.91715 0.91784 0.0
C1632 C 0.40652 0.89884 0.93474 0.0
C1633 C 0.41753 0.90382 0.96187 0.0
C1634 C 0.43957 0.92614 0.97123 0.0
C1635 C 0.38724 0.87303 0.92214 0.0
C1636 C 0.36114 0.86781 0.9287 0.0
C1637 C 0.39412 0.85559 0.90022 0.0
C1638 C 0.42131 0.86151 0.89126 0.0
C1639 C 0.44182 0.86585 0.91056 0.0
C1640 C 0.4675 0.87288 0.90227 0.0
C1641 C 0.47289 0.87538 0.87466 0.0
C1642 C 0.4526 0.87078 0.85523 0.0
C1643 C 0.42692 0.86388 0.86344 0.0
H1644 H 0.49279 0.88088 0.86831 0.0
H1645 H 0.24141 0.83614 0.92725 0.0
H1646 H 0.24535 0.33061 0.7839 0.0
H1647 H 0.21968 0.3554 0.80998 0.0
H1648 H 0.16905 0.28493 0.83361 0.0
H1649 H 0.19454 0.25985 0.80691 0.0
H1650 H 0.14078 0.31179 0.81643 0.0
H1651 H 0.21203 0.33291 0.88142 0.0
H1652 H 0.25823 0.34716 0.89709 0.0
H1653 H 0.2719 0.42314 0.87941 0.0
H1654 H 0.22583 0.40916 0.8631 0.0
H1655 H 0.07338 0.38169 0.91116 0.0
H1656 H 0.09841 0.35403 0.89041 0.0
H1657 H 0.15882 0.42213 0.87268 0.0
H1658 H 0.13411 0.4499 0.89369 0.0
H1659 H 0.18157 0.39413 0.88894 0.0
H1660 H 0.11035 0.37097 0.82041 0.0
H1661 H 0.06414 0.35564 0.80409 0.0
H1662 H 0.0504 0.28257 0.82886 0.0
H1663 H 0.09648 0.29759 0.8456 0.0
C1664 C 0.22875 0.32031 0.79461 0.0
C1665 C 0.22205 0.29313 0.79314 0.0
C1666 C 0.21411 0.33461 0.80975 0.0
C1667 C 0.1923 0.32224 0.82402 0.0
C1668 C 0.1857 0.29509 0.82285 0.0
C1669 C 0.20049 0.28078 0.80779 0.0
C1670 C 0.17642 0.33768 0.83977 0.0
C1671 C 0.14966 0.32957 0.8326 0.0
C1672 C 0.18784 0.36121 0.86064 0.0
C1673 C 0.21549 0.3699 0.87081 0.0
C1674 C 0.22492 0.3526 0.88068 0.0
C1675 C 0.25109 0.36063 0.88969 0.0
C1676 C 0.26801 0.38602 0.88919 0.0
C1677 C 0.25877 0.40346 0.87975 0.0
C1678 C 0.23261 0.3955 0.87063 0.0
C1679 C 0.09188 0.39086 0.90267 0.0
C1680 C 0.1014 0.41829 0.9042 0.0
C1681 C 0.10629 0.37488 0.89065 0.0
C1682 C 0.13056 0.38562 0.87924 0.0
C1683 C 0.14027 0.41304 0.88116 0.0
C1684 C 0.12599 0.42905 0.89336 0.0
C1685 C 0.14584 0.36855 0.86533 0.0
C1686 C 0.17258 0.37634 0.87284 0.0
C1687 C 0.13437 0.34466 0.8448 0.0
C1688 C 0.10677 0.33551 0.83451 0.0
C1689 C 0.09742 0.35169 0.82251 0.0
C1690 C 0.07127 0.34305 0.81317 0.0
C1691 C 0.05433 0.31818 0.81551 0.0
C1692 C 0.06353 0.30185 0.8271 0.0
C1693 C 0.08967 0.3104 0.83649 0.0
H1694 H 0.03408 0.31154 0.8083 0.0
H1695 H 0.28827 0.39221 0.89617 0.0
H1696 H 0.69245 0.15931 0.75787 0.0
H1697 H 0.66259 0.13669 0.78968 0.0
H1698 H 0.68375 0.20977 0.85287 0.0
H1699 H 0.71565 0.23154 0.82185 0.0
H1700 H 0.68572 0.17559 0.87627 0.0
H1701 H 0.61946 0.17539 0.815 0.0
H1702 H 0.59678 0.16909 0.76955 0.0
H1703 H 0.58408 0.08623 0.75201 0.0
H1704 H 0.60701 0.09204 0.79711 0.0
H1705 H 0.59159 0.09424 0.95806 0.0
H1706 H 0.61499 0.12965 0.93414 0.0
H1707 H 0.62146 0.07162 0.86202 0.0
H1708 H 0.59787 0.03638 0.88549 0.0
H1709 H 0.59926 0.10582 0.84876 0.0
H1710 H 0.68416 0.1157 0.89736 0.0
H1711 H 0.71298 0.1242 0.93918 0.0
H1712 H 0.689 0.18875 0.97926 0.0
H1713 H 0.66062 0.18101 0.93728 0.0
C1714 C 0.69038 0.17043 0.77847 0.0
C1715 C 0.70611 0.1969 0.78773 0.0
C1716 C 0.67307 0.15768 0.79652 0.0
C1717 C 0.67038 0.17163 0.82356 0.0
C1718 C 0.68541 0.19858 0.83215 0.0
C1719 C 0.70354 0.211 0.81453 0.0
C1720 C 0.65452 0.15734 0.84395 0.0
C1721 C 0.66643 0.16094 0.87044 0.0
C1722 C 0.62948 0.13789 0.83641 0.0
C1723 C 0.61504 0.1342 0.80951 0.0
C1724 C 0.61191 0.15583 0.80144 0.0
C1725 C 0.59901 0.15234 0.77571 0.0
C1726 C 0.58901 0.12728 0.75791 0.0
C1727 C 0.5918 0.10563 0.76584 0.0
C1728 C 0.6047 0.109 0.79152 0.0
C1729 C 0.59853 0.08918 0.93734 0.0
C1730 C 0.59291 0.06267 0.92349 0.0
C1731 C 0.61181 0.10936 0.92372 0.0
C1732 C 0.61978 0.10315 0.89631 0.0
C1733 C 0.61529 0.07674 0.88313 0.0
C1734 C 0.60191 0.05667 0.89656 0.0
C1735 C 0.63106 0.12364 0.88015 0.0
C1736 C 0.61815 0.12121 0.85466 0.0
C1737 C 0.65501 0.1443 0.88854 0.0
C1738 C 0.67006 0.14752 0.91455 0.0
C1739 C 0.68489 0.13151 0.91525 0.0
C1740 C 0.70135 0.13639 0.93881 0.0
C1741 C 0.70278 0.15696 0.96189 0.0
C1742 C 0.68784 0.17279 0.9614 0.0
C1743 C 0.67167 0.16825 0.9377 0.0
H1744 H 0.7154 0.16058 0.98018 0.0
H1745 H 0.57909 0.12464 0.73797 0.0
H1746 H 0.8519 0.6619 0.81503 0.0
H1747 H 0.86438 0.63131 0.83625 0.0
H1748 H 0.89027 0.69128 0.913 0.0
H1749 H 0.87832 0.72183 0.89157 0.0
H1750 H 0.92756 0.67495 0.897 0.0
H1751 H 0.83854 0.63167 0.90998 0.0
H1752 H 0.79137 0.60907 0.89896 0.0
H1753 H 0.80586 0.54703 0.83881 0.0
H1754 H 0.85318 0.56944 0.84918 0.0
H1755 H 0.97395 0.59629 0.96263 0.0
H1756 H 0.9485 0.6217 0.95245 0.0
H1757 H 0.91818 0.56479 0.87447 0.0
H1758 H 0.94139 0.53774 0.88585 0.0
H1759 H 0.88156 0.5803 0.89533 0.0
H1760 H 0.97309 0.62895 0.88233 0.0
H1761 H 0.01935 0.65218 0.89836 0.0
H1762 H 0.99811 0.70526 0.96444 0.0
H1763 H 0.95174 0.68221 0.94894 0.0
C1764 C 0.85924 0.6681 0.83681 0.0
C1765 C 0.86389 0.69413 0.85177 0.0
C1766 C 0.86651 0.65065 0.84894 0.0
C1767 C 0.87845 0.65893 0.8763 0.0
C1768 C 0.88127 0.68436 0.89186 0.0
C1769 C 0.87417 0.70175 0.87972 0.0
C1770 C 0.89092 0.6426 0.88738 0.0
C1771 C 0.91726 0.65434 0.89701 0.0
C1772 C 0.87784 0.61559 0.88718 0.0
C1773 C 0.84946 0.60246 0.88009 0.0
C1774 C 0.83171 0.6134 0.89411 0.0
C1775 C 0.80493 0.60056 0.88806 0.0
C1776 C 0.79563 0.57668 0.86812 0.0
C1777 C 0.8131 0.56557 0.8542 0.0
C1778 C 0.83991 0.57833 0.86016 0.0
C1779 C 0.96147 0.58867 0.94358 0.0
C1780 C 0.96015 0.56478 0.92501 0.0
C1781 C 0.94721 0.60365 0.9375 0.0
C1782 C 0.93192 0.59573 0.91221 0.0
C1783 C 0.93001 0.57162 0.89399 0.0
C1784 C 0.94373 0.55628 0.90038 0.0
C1785 C 0.91823 0.61255 0.90434 0.0
C1786 C 0.89172 0.60093 0.89531 0.0
C1787 C 0.93103 0.63982 0.90549 0.0
C1788 C 0.95896 0.65373 0.91459 0.0
C1789 C 0.9783 0.64551 0.90034 0.0
C1790 C 1.00453 0.65865 0.90932 0.0
C1791 C 0.01166 0.68015 0.93243 0.0
C1792 C 0.99257 0.6886 0.94656 0.0
C1793 C 0.96632 0.67553 0.93766 0.0
H1794 H 0.03197 0.69028 0.93936 0.0
H1795 H 0.77488 0.56674 0.86352 0.0
H1796 H 0.11615 0.28445 0.14601 0.0
H1797 H 0.09938 0.30758 0.11822 0.0
H1798 H 0.17633 0.36583 0.12103 0.0
H1799 H 0.19311 0.34255 0.14904 0.0
H1800 H 0.14138 0.38851 0.13852 0.0
H1801 H 0.14709 0.32479 0.05846 0.0
H1802 H 0.14129 0.28081 0.02889 0.0
H1803 H 0.05822 0.25958 0.0304 0.0
H1804 H 0.06351 0.30332 0.06033 0.0
H1805 H 0.09162 0.46018 0.06623 0.0
H1806 H 0.11738 0.43484 0.07697 0.0
H1807 H 0.04716 0.36688 0.07187 0.0
H1808 H 0.02164 0.39181 0.05953 0.0
H1809 H 0.08371 0.35068 0.05146 0.0
H1810 H 0.07893 0.41251 0.13741 0.0
H1811 H 0.08503 0.45704 0.16595 0.0
H1812 H 0.16694 0.48172 0.15255 0.0
H1813 H 0.16126 0.43739 0.12374 0.0
C1814 C 0.12958 0.30181 0.14002 0.0
C1815 C 0.15592 0.31172 0.14953 0.0
C1816 C 0.12002 0.31498 0.12407 0.0
C1817 C 0.1366 0.33842 0.11738 0.0
C1818 C 0.1632 0.34772 0.12583 0.0
C1819 C 0.17283 0.33436 0.14163 0.0
C1820 C 0.12548 0.35451 0.1044 0.0
C1821 C 0.12921 0.38038 0.11914 0.0
C1822 C 0.10908 0.34379 0.07949 0.0
C1823 C 0.10573 0.31727 0.06188 0.0
C1824 C 0.12758 0.31065 0.05275 0.0
C1825 C 0.12438 0.28578 0.03586 0.0
C1826 C 0.0994 0.26738 0.02784 0.0
C1827 C 0.07756 0.27383 0.03666 0.0
C1828 C 0.08065 0.29868 0.05357 0.0
C1829 C 0.08179 0.43977 0.06726 0.0
C1830 C 0.05466 0.428 0.06239 0.0
C1831 C 0.09647 0.42532 0.07353 0.0
C1832 C 0.0842 0.3991 0.07607 0.0
C1833 C 0.05715 0.38708 0.07022 0.0
C1834 C 0.04254 0.40135 0.06326 0.0
C1835 C 0.09921 0.38445 0.08589 0.0
C1836 C 0.09611 0.35885 0.07065 0.0
C1837 C 0.11615 0.39535 0.11043 0.0
C1838 C 0.11964 0.42176 0.12828 0.0
C1839 C 0.09822 0.42748 0.14052 0.0
C1840 C 0.1016 0.45266 0.15672 0.0
C1841 C 0.12635 0.47221 0.16101 0.0
C1842 C 0.14779 0.46657 0.1492 0.0
C1843 C 0.14451 0.44142 0.13298 0.0
H1844 H 0.12892 0.49171 0.17351 0.0
H1845 H 0.09697 0.24815 0.01472 0.0
H1846 H 0.18079 0.70323 0.77761 0.0
H1847 H 0.15426 0.67741 0.80935 0.0
H1848 H 0.22147 0.66368 0.83655 0.0
H1849 H 0.24847 0.69093 0.80645 0.0
H1850 H 0.1708 0.61657 0.81618 0.0
H1851 H 0.2084 0.70246 0.88018 0.0
H1852 H 0.2182 0.75053 0.89274 0.0
H1853 H 0.13644 0.73807 0.89008 0.0
H1854 H 0.12617 0.68988 0.87701 0.0
H1855 H 0.12784 0.56146 0.93528 0.0
H1856 H 0.15533 0.59484 0.91073 0.0
H1857 H 0.08695 0.60637 0.88302 0.0
H1858 H 0.05947 0.57222 0.90626 0.0
H1859 H 0.13756 0.65558 0.9042 0.0
H1860 H 0.0987 0.57267 0.83776 0.0
H1861 H 0.08596 0.52455 0.8205 0.0
H1862 H 0.1663 0.53125 0.8231 0.0
H1863 H 0.17947 0.57943 0.84108 0.0
C1864 C 0.19003 0.69515 0.79062 0.0
C1865 C 0.21676 0.69922 0.78938 0.0
C1866 C 0.17481 0.68024 0.80859 0.0
C1867 C 0.18603 0.6687 0.8251 0.0
C1868 C 0.21256 0.67244 0.82381 0.0
C1869 C 0.22788 0.68791 0.80645 0.0
C1870 C 0.17005 0.65244 0.8436 0.0
C1871 C 0.16381 0.62508 0.83561 0.0
C1872 C 0.16041 0.66369 0.8684 0.0
C1873 C 0.16652 0.69258 0.87735 0.0
C1874 C 0.19251 0.70997 0.88209 0.0
C1875 C 0.19816 0.73723 0.88932 0.0
C1876 C 0.17796 0.74735 0.89212 0.0
C1877 C 0.15207 0.7302 0.88787 0.0
C1878 C 0.14632 0.70291 0.88058 0.0
C1879 C 0.11889 0.5715 0.92428 0.0
C1880 C 0.09176 0.56437 0.92224 0.0
C1881 C 0.13447 0.59048 0.91041 0.0
C1882 C 0.12302 0.60293 0.8952 0.0
C1883 C 0.09603 0.59701 0.8948 0.0
C1884 C 0.08044 0.57748 0.90785 0.0
C1885 C 0.13876 0.61974 0.87701 0.0
C1886 C 0.14477 0.64712 0.88491 0.0
C1887 C 0.14783 0.60852 0.85179 0.0
C1888 C 0.14003 0.57956 0.8413 0.0
C1889 C 0.11362 0.56383 0.83513 0.0
C1890 C 0.10632 0.53656 0.82511 0.0
C1891 C 0.1253 0.52482 0.82084 0.0
C1892 C 0.15161 0.54036 0.82655 0.0
C1893 C 0.15901 0.56764 0.83669 0.0
H1894 H 0.11962 0.50371 0.813 0.0
H1895 H 0.18236 0.76846 0.89764 0.0
H1896 H 0.33266 0.18692 0.90709 0.0
H1897 H 0.36236 0.16654 0.91941 0.0
H1898 H 0.36249 0.12903 0.83202 0.0
H1899 H 0.33153 0.1485 0.81965 0.0
H1900 H 0.3562 0.09455 0.86485 0.0
H1901 H 0.41524 0.18355 0.86816 0.0
H1902 H 0.42987 0.23199 0.88387 0.0
H1903 H 0.43374 0.22599 0.96985 0.0
H1904 H 0.41873 0.17749 0.9547 0.0
H1905 H 0.46349 0.05374 0.87598 0.0
H1906 H 0.43591 0.07693 0.86493 0.0
H1907 H 0.42959 0.10572 0.95338 0.0
H1908 H 0.45599 0.08141 0.96488 0.0
H1909 H 0.43933 0.14499 0.92148 0.0
H1910 H 0.37954 0.05977 0.92229 0.0
H1911 H 0.36222 0.01116 0.91121 0.0
H1912 H 0.35704 0.00989 0.82314 0.0
H1913 H 0.37469 0.05857 0.8337 0.0
C1914 C 0.33891 0.17429 0.89041 0.0
C1915 C 0.3294 0.16916 0.86237 0.0
C1916 C 0.3562 0.16286 0.89749 0.0
C1917 C 0.36497 0.1464 0.87667 0.0
C1918 C 0.35607 0.1417 0.8485 0.0
C1919 C 0.33855 0.15305 0.8414 0.0
C1920 C 0.38257 0.13333 0.88453 0.0
C1921 C 0.37462 0.10568 0.87672 0.0
C1922 C 0.40607 0.14765 0.90126 0.0
C1923 C 0.41569 0.17686 0.91029 0.0
C1924 C 0.4191 0.19255 0.89042 0.0
C1925 C 0.42745 0.22002 0.89923 0.0
C1926 C 0.43269 0.23206 0.92784 0.0
C1927 C 0.42967 0.21664 0.9477 0.0
C1928 C 0.42126 0.18916 0.93901 0.0
C1929 C 0.45598 0.06456 0.89323 0.0
C1930 C 0.46198 0.06528 0.92141 0.0
C1931 C 0.44036 0.07808 0.8868 0.0
C1932 C 0.43059 0.09297 0.90831 0.0
C1933 C 0.437 0.09442 0.93644 0.0
C1934 C 0.45229 0.08054 0.94293 0.0
C1935 C 0.41315 0.1064 0.9012 0.0
C1936 C 0.42103 0.13399 0.90933 0.0
C1937 C 0.38933 0.09206 0.8853 0.0
C1938 C 0.37871 0.06281 0.87875 0.0
C1939 C 0.37494 0.04913 0.90053 0.0
C1940 C 0.36501 0.02156 0.89436 0.0
C1941 C 0.35861 0.00744 0.86648 0.0
C1942 C 0.36206 0.02087 0.84473 0.0
C1943 C 0.37199 0.04845 0.85079 0.0
H1944 H 0.35092 0.98609 0.86173 0.0
H1945 H 0.43912 0.25332 0.93461 0.0
H1946 H 0.77302 0.27307 0.84385 0.0
H1947 H 0.80254 0.30457 0.88283 0.0
H1948 H 0.83386 0.35832 0.82797 0.0
H1949 H 0.80636 0.32566 0.78863 0.0
H1950 H 0.87099 0.35102 0.85016 0.0
H1951 H 0.79287 0.36668 0.88826 0.0
H1952 H 0.74868 0.35229 0.90581 0.0
H1953 H 0.77607 0.32417 0.96982 0.0
H1954 H 0.82035 0.3381 0.95242 0.0
H1955 H 0.94452 0.47059 0.92451 0.0
H1956 H 0.90286 0.43681 0.9055 0.0
H1957 H 0.90781 0.39203 0.96585 0.0
H1958 H 0.94956 0.42635 0.98538 0.0
H1959 H 0.85337 0.38812 0.94767 0.0
H1960 H 0.93234 0.37691 0.91189 0.0
H1961 H 0.97657 0.39272 0.89484 0.0
H1962 H 0.94674 0.4121 0.82531 0.0
H1963 H 0.90242 0.39705 0.84236 0.0
C1964 C 0.78598 0.29189 0.84051 0.0
C1965 C 0.78792 0.29713 0.81353 0.0
C1966 C 0.80268 0.30992 0.86275 0.0
C1967 C 0.82054 0.33385 0.85837 0.0
C1968 C 0.82054 0.33986 0.8318 0.0
C1969 C 0.80473 0.32141 0.80941 0.0
C1970 C 0.84127 0.35153 0.87996 0.0
C1971 C 0.86694 0.35925 0.87136 0.0
C1972 C 0.83637 0.36115 0.9082 0.0
C1973 C 0.80985 0.35323 0.91889 0.0
C1974 C 0.78943 0.35732 0.90599 0.0
C1975 C 0.76437 0.34925 0.91592 0.0
C1976 C 0.75956 0.33728 0.93888 0.0
C1977 C 0.77982 0.33342 0.95202 0.0
C1978 C 0.8049 0.34142 0.94216 0.0
C1979 C 0.93624 0.45395 0.93428 0.0
C1980 C 0.95005 0.45075 0.95613 0.0
C1981 C 0.91247 0.4348 0.92358 0.0
C1982 C 0.90256 0.41188 0.9341 0.0
C1983 C 0.91518 0.4097 0.95762 0.0
C1984 C 0.93896 0.42919 0.96867 0.0
C1985 C 0.88231 0.38875 0.91688 0.0
C1986 C 0.85712 0.37965 0.92645 0.0
C1987 C 0.88749 0.37772 0.88936 0.0
C1988 C 0.91406 0.38601 0.87855 0.0
C1989 C 0.93523 0.38472 0.89308 0.0
C1990 C 0.96033 0.39355 0.88342 0.0
C1991 C 0.96447 0.40344 0.85903 0.0
C1992 C 0.94351 0.40445 0.84422 0.0
C1993 C 0.91839 0.39577 0.85387 0.0
H1994 H 0.98391 0.41028 0.85159 0.0
H1995 H 0.74015 0.33104 0.94652 0.0
H1996 H 0.75592 0.82778 0.80916 0.0
H1997 H 0.73281 0.85606 0.8339 0.0
H1998 H 0.66106 0.78893 0.82073 0.0
H1999 H 0.68372 0.76149 0.79402 0.0
H2000 H 0.64767 0.82348 0.81309 0.0
H2001 H 0.70027 0.82648 0.89219 0.0
H2002 H 0.74039 0.83326 0.91911 0.0
H2003 H 0.77275 0.91283 0.9082 0.0
H2004 H 0.73238 0.90667 0.88183 0.0
H2005 H 0.57356 0.88334 0.9083 0.0
H2006 H 0.59949 0.85677 0.88727 0.0
H2007 H 0.66427 0.92747 0.88429 0.0
H2008 H 0.63847 0.95423 0.90508 0.0
H2009 H 0.68168 0.89284 0.90013 0.0
H2010 H 0.62311 0.88708 0.82387 0.0
H2011 H 0.57977 0.87749 0.80184 0.0
H2012 H 0.55601 0.79764 0.81169 0.0
H2013 H 0.59913 0.80684 0.834 0.0
C2014 C 0.73524 0.81908 0.81175 0.0
C2015 C 0.72172 0.79235 0.79939 0.0
C2016 C 0.72193 0.83528 0.82626 0.0
C2017 C 0.69487 0.82495 0.82985 0.0
C2018 C 0.68172 0.7979 0.81829 0.0
C2019 C 0.69481 0.78201 0.80306 0.0
C2020 C 0.6798 0.84212 0.84422 0.0
C2021 C 0.65514 0.83823 0.83243 0.0
C2022 C 0.68921 0.86217 0.86916 0.0
C2023 C 0.71351 0.86601 0.8848 0.0
C2024 C 0.71601 0.84537 0.89544 0.0
C2025 C 0.73877 0.84914 0.91064 0.0
C2026 C 0.75929 0.87337 0.91507 0.0
C2027 C 0.7569 0.89403 0.90465 0.0
C2028 C 0.73401 0.89048 0.88975 0.0
C2029 C 0.59322 0.89339 0.90298 0.0
C2030 C 0.60358 0.92119 0.90842 0.0
C2031 C 0.60815 0.87805 0.89092 0.0
C2032 C 0.6339 0.88992 0.88358 0.0
C2033 C 0.64453 0.91763 0.88959 0.0
C2034 C 0.62963 0.93301 0.90168 0.0
C2035 C 0.64954 0.87355 0.8693 0.0
C2036 C 0.67432 0.87785 0.88092 0.0
C2037 C 0.63995 0.85334 0.84464 0.0
C2038 C 0.61425 0.84771 0.83076 0.0
C2039 C 0.6086 0.86751 0.82141 0.0
C2040 C 0.58408 0.86214 0.80887 0.0
C2041 C 0.56513 0.83699 0.80542 0.0
C2042 C 0.57069 0.81711 0.81439 0.0
C2043 C 0.59518 0.82238 0.82693 0.0
H2044 H 0.54615 0.83289 0.79576 0.0
H2045 H 0.77698 0.87616 0.92669 0.0
H2046 H 0.82752 0.71761 0.2268 0.0
H2047 H 0.8527 0.69193 0.20096 0.0
H2048 H 0.78931 0.65193 0.13813 0.0
H2049 H 0.76415 0.67798 0.16407 0.0
H2050 H 0.80818 0.61697 0.15476 0.0
H2051 H 0.84715 0.69506 0.11715 0.0
H2052 H 0.86938 0.74221 0.11762 0.0
H2053 H 0.92933 0.74654 0.17518 0.0
H2054 H 0.90816 0.69905 0.17405 0.0
H2055 H 0.88002 0.55106 0.06222 0.0
H2056 H 0.85381 0.57733 0.08298 0.0
H2057 H 0.91848 0.62909 0.14046 0.0
H2058 H 0.94535 0.60407 0.11859 0.0
H2059 H 0.89741 0.65793 0.12489 0.0
H2060 H 0.86079 0.57854 0.15882 0.0
H2061 H 0.84046 0.53068 0.1555 0.0
H2062 H 0.77528 0.52834 0.10672 0.0
H2063 H 0.79537 0.57617 0.10948 0.0
C2064 C 0.81908 0.70347 0.20733 0.0
C2065 C 0.79393 0.69979 0.19741 0.0
C2066 C 0.83354 0.68886 0.19246 0.0
C2067 C 0.82314 0.67 0.16732 0.0
C2068 C 0.79791 0.66635 0.15736 0.0
C2069 C 0.78355 0.68129 0.17211 0.0
C2070 C 0.83828 0.65355 0.15226 0.0
C2071 C 0.82754 0.62591 0.14781 0.0
C2072 C 0.86387 0.66497 0.14383 0.0
C2073 C 0.8759 0.69369 0.14583 0.0
C2074 C 0.86492 0.70616 0.13015 0.0
C2075 C 0.87735 0.73289 0.13045 0.0
C2076 C 0.90042 0.74749 0.14683 0.0
C2077 C 0.91136 0.73526 0.16265 0.0
C2078 C 0.89929 0.70839 0.162 0.0
C2079 C 0.88894 0.56822 0.079 0.0
C2080 C 0.91508 0.57509 0.08858 0.0
C2081 C 0.87362 0.58309 0.09129 0.0
C2082 C 0.88373 0.6051 0.11392 0.0
C2083 C 0.90989 0.6122 0.12325 0.0
C2084 C 0.92528 0.59754 0.1108 0.0
C2085 C 0.86751 0.62114 0.12746 0.0
C2086 C 0.87806 0.6488 0.13174 0.0
C2087 C 0.8418 0.60964 0.1359 0.0
C2088 C 0.82974 0.58088 0.13408 0.0
C2089 C 0.84223 0.56778 0.14719 0.0
C2090 C 0.83072 0.54067 0.14545 0.0
C2091 C 0.80664 0.52647 0.13083 0.0
C2092 C 0.79396 0.53936 0.11798 0.0
C2093 C 0.80539 0.56647 0.11965 0.0
H2094 H 0.79776 0.50548 0.12952 0.0
H2095 H 0.90994 0.7682 0.14704 0.0
H2096 H 0.28327 0.81184 0.20684 0.0
H2097 H 0.30963 0.84014 0.1773 0.0
H2098 H 0.35452 0.78891 0.15608 0.0
H2099 H 0.32817 0.76075 0.18631 0.0
H2100 H 0.38584 0.8383 0.16722 0.0
H2101 H 0.30838 0.78959 0.10839 0.0
H2102 H 0.26129 0.77082 0.09527 0.0
H2103 H 0.25766 0.8487 0.11141 0.0
H2104 H 0.30461 0.86793 0.12506 0.0
H2105 H 0.42028 0.90186 0.04084 0.0
H2106 H 0.39513 0.86681 0.06438 0.0
H2107 H 0.40037 0.92506 0.14097 0.0
H2108 H 0.42652 0.96002 0.11803 0.0
H2109 H 0.34559 0.86743 0.09664 0.0
H2110 H 0.42223 0.91043 0.17221 0.0
H2111 H 0.46987 0.92723 0.18175 0.0
H2112 H 0.47443 0.85608 0.12912 0.0
H2113 H 0.42685 0.83925 0.11867 0.0
C2114 C 0.2984 0.80638 0.19547 0.0
C2115 C 0.30347 0.784 0.19844 0.0
C2116 C 0.31354 0.82257 0.17863 0.0
C2117 C 0.33373 0.81637 0.16398 0.0
C2118 C 0.33897 0.79403 0.16709 0.0
C2119 C 0.32398 0.778 0.18432 0.0
C2120 C 0.34981 0.83387 0.14627 0.0
C2121 C 0.37695 0.84442 0.15164 0.0
C2122 C 0.33838 0.84179 0.12571 0.0
C2123 C 0.31004 0.83021 0.11778 0.0
C2124 C 0.29751 0.80271 0.10932 0.0
C2125 C 0.27085 0.79199 0.10175 0.0
C2126 C 0.25655 0.80858 0.10235 0.0
C2127 C 0.2688 0.83589 0.1108 0.0
C2128 C 0.29543 0.84671 0.11843 0.0
C2129 C 0.416 0.90712 0.0627 0.0
C2130 C 0.42529 0.93355 0.07772 0.0
C2131 C 0.40184 0.88714 0.07611 0.0
C2132 C 0.39656 0.89339 0.10454 0.0
C2133 C 0.40507 0.91984 0.11928 0.0
C2134 C 0.41971 0.93976 0.1061 0.0
C2135 C 0.38112 0.87242 0.11857 0.0
C2136 C 0.35424 0.86109 0.11221 0.0
C2137 C 0.39269 0.86367 0.13808 0.0
C2138 C 0.42118 0.87388 0.1442 0.0
C2139 C 0.43347 0.8986 0.16232 0.0
C2140 C 0.46044 0.90809 0.16794 0.0
C2141 C 0.4752 0.8928 0.15591 0.0
C2142 C 0.46301 0.86797 0.13827 0.0
C2143 C 0.43607 0.8585 0.13241 0.0
H2144 H 0.49605 0.90013 0.16038 0.0
H2145 H 0.23597 0.80028 0.09622 0.0
H2146 H 0.70266 0.22847 0.16656 0.0
H2147 H 0.67314 0.19967 0.12692 0.0
H2148 H 0.68403 0.13199 0.14673 0.0
H2149 H 0.71305 0.1605 0.18737 0.0
H2150 H 0.68662 0.14603 0.08114 0.0
H2151 H 0.63592 0.11974 0.16153 0.0
H2152 H 0.61945 0.12968 0.20869 0.0
H2153 H 0.58686 0.18122 0.18166 0.0
H2154 H 0.60347 0.17178 0.13438 0.0
H2155 H 0.58223 0.02955 0.02122 0.0
H2156 H 0.62086 0.06751 0.04033 0.0
H2157 H 0.57545 0.11843 0.04927 0.0
H2158 H 0.53639 0.07995 0.03191 0.0
H2159 H 0.59226 0.11755 0.09798 0.0
H2160 H 0.63415 0.12881 0.01063 0.0
H2161 H 0.64858 0.11149 0.96458 0.0
H2162 H 0.69734 0.08221 0.00502 0.0
H2163 H 0.68336 0.09935 0.05137 0.0
C2164 C 0.69892 0.20748 0.16259 0.0
C2165 C 0.71029 0.19676 0.1801 0.0
C2166 C 0.68219 0.19116 0.13983 0.0
C2167 C 0.6768 0.16398 0.13406 0.0
C2168 C 0.68835 0.1531 0.15098 0.0
C2169 C 0.70484 0.16939 0.17411 0.0
C2170 C 0.65754 0.14694 0.11144 0.0
C2171 C 0.66594 0.1396 0.08457 0.0
C2172 C 0.63081 0.13922 0.11623 0.0
C2173 C 0.62123 0.14538 0.14465 0.0
C2174 C 0.62552 0.13345 0.16578 0.0
C2175 C 0.61607 0.13889 0.19247 0.0
C2176 C 0.60211 0.15607 0.19816 0.0
C2177 C 0.59766 0.1679 0.1772 0.0
C2178 C 0.6071 0.16253 0.15047 0.0
C2179 C 0.58087 0.04905 0.02609 0.0
C2180 C 0.55663 0.05213 0.02565 0.0
C2181 C 0.60298 0.07081 0.0368 0.0
C2182 C 0.60099 0.09582 0.04644 0.0
C2183 C 0.57731 0.09926 0.04213 0.0
C2184 C 0.55508 0.07739 0.03224 0.0
C2185 C 0.621 0.11609 0.06699 0.0
C2186 C 0.61281 0.12428 0.09387 0.0
C2187 C 0.64791 0.12395 0.06219 0.0
C2188 C 0.65757 0.11522 0.03446 0.0
C2189 C 0.64792 0.11865 0.00971 0.0
C2190 C 0.6559 0.10873 0.98355 0.0
C2191 C 0.6735 0.09541 0.98184 0.0
C2192 C 0.6836 0.09242 0.00636 0.0
C2193 C 0.67576 0.10234 0.0326 0.0
H2194 H 0.67943 0.08753 0.96152 0.0
H2195 H 0.59476 0.16022 0.21881 0.0
H2196 H 0.6846 0.71447 0.79353 0.0
H2197 H 0.65885 0.68541 0.82302 0.0
H2198 H 0.69706 0.62963 0.79131 0.0
H2199 H 0.72413 0.65949 0.76296 0.0
H2200 H 0.62912 0.62113 0.8003 0.0
H2201 H 0.71939 0.64074 0.83669 0.0
H2202 H 0.76361 0.67172 0.853 0.0
H2203 H 0.73183 0.71718 0.91687 0.0
H2204 H 0.68729 0.6872 0.89991 0.0
H2205 H 0.58124 0.53551 0.88992 0.0
H2206 H 0.61015 0.56051 0.85942 0.0
H2207 H 0.62019 0.63294 0.92058 0.0
H2208 H 0.59141 0.60775 0.95183 0.0
H2209 H 0.66545 0.63286 0.89657 0.0
H2210 H 0.57768 0.61462 0.86557 0.0
H2211 H 0.53195 0.58764 0.85038 0.0
H2212 H 0.55692 0.54298 0.77908 0.0
H2213 H 0.60285 0.56944 0.79408 0.0
C2214 C 0.68717 0.69581 0.79256 0.0
C2215 C 0.7063 0.68907 0.77634 0.0
C2216 C 0.6727 0.67945 0.80951 0.0
C2217 C 0.67683 0.65599 0.80978 0.0
C2218 C 0.69438 0.64816 0.79185 0.0
C2219 C 0.70952 0.66496 0.77557 0.0
C2220 C 0.66274 0.63998 0.82919 0.0
C2221 C 0.63714 0.62314 0.82115 0.0
C2222 C 0.67317 0.64379 0.85666 0.0
C2223 C 0.69995 0.66214 0.86644 0.0
C2224 C 0.72176 0.65775 0.85365 0.0
C2225 C 0.74691 0.67507 0.86311 0.0
C2226 C 0.75053 0.69652 0.88583 0.0
C2227 C 0.729 0.70062 0.89919 0.0
C2228 C 0.70379 0.68359 0.88951 0.0
C2229 C 0.58971 0.55676 0.89701 0.0
C2230 C 0.58383 0.56983 0.92298 0.0
C2231 C 0.60619 0.57097 0.87955 0.0
C2232 C 0.61674 0.59851 0.88755 0.0
C2233 C 0.61198 0.61163 0.91407 0.0
C2234 C 0.59559 0.59731 0.93181 0.0
C2235 C 0.63186 0.61343 0.86753 0.0
C2236 C 0.6575 0.63038 0.87556 0.0
C2237 C 0.62137 0.60998 0.84011 0.0
C2238 C 0.59374 0.59385 0.83114 0.0
C2239 C 0.57344 0.59888 0.84681 0.0
C2240 C 0.54747 0.58371 0.8382 0.0
C2241 C 0.54153 0.56356 0.81382 0.0
C2242 C 0.56155 0.55856 0.79798 0.0
C2243 C 0.58756 0.57365 0.80652 0.0
H2244 H 0.52142 0.55187 0.80717 0.0
H2245 H 0.77001 0.70987 0.89318 0.0
H2246 H 0.31409 0.60519 0.81276 0.0
H2247 H 0.34265 0.59946 0.84645 0.0
H2248 H 0.3696 0.68299 0.88341 0.0
H2249 H 0.3413 0.68887 0.84884 0.0
H2250 H 0.40915 0.66214 0.88177 0.0
H2251 H 0.32363 0.64301 0.91569 0.0
H2252 H 0.2757 0.623 0.91199 0.0
H2253 H 0.28073 0.54561 0.8915 0.0
H2254 H 0.32869 0.56515 0.89473 0.0
H2255 H 0.466 0.61692 0.98225 0.0
H2256 H 0.44004 0.64026 0.96675 0.0
H2257 H 0.39126 0.56715 0.91291 0.0
H2258 H 0.41617 0.54386 0.92914 0.0
H2259 H 0.36292 0.59458 0.93532 0.0
H2260 H 0.44738 0.61422 0.89054 0.0
H2261 H 0.49536 0.6336 0.89219 0.0
H2262 H 0.49235 0.70936 0.9329 0.0
H2263 H 0.44434 0.69034 0.93171 0.0
C2264 C 0.32644 0.62237 0.82778 0.0
C2265 C 0.3254 0.64739 0.82849 0.0
C2266 C 0.34263 0.6191 0.8471 0.0
C2267 C 0.35768 0.6407 0.86794 0.0
C2268 C 0.35793 0.66605 0.86766 0.0
C2269 C 0.34186 0.66939 0.84796 0.0
C2270 C 0.37182 0.63603 0.89062 0.0
C2271 C 0.39904 0.6478 0.89395 0.0
C2272 C 0.35861 0.61748 0.9067 0.0
C2273 C 0.32976 0.60558 0.90537 0.0
C2274 C 0.31451 0.62173 0.91031 0.0
C2275 C 0.28734 0.61046 0.9083 0.0
C2276 C 0.27518 0.58305 0.90149 0.0
C2277 C 0.29017 0.56684 0.8968 0.0
C2278 C 0.31736 0.578 0.89877 0.0
C2279 C 0.4493 0.60583 0.96765 0.0
C2280 C 0.44332 0.5787 0.95647 0.0
C2281 C 0.43468 0.6192 0.95861 0.0
C2282 C 0.41408 0.60556 0.93818 0.0
C2283 C 0.40716 0.57817 0.92853 0.0
C2284 C 0.42154 0.56489 0.93764 0.0
C2285 C 0.40034 0.6193 0.92506 0.0
C2286 C 0.37304 0.60944 0.92372 0.0
C2287 C 0.41354 0.63945 0.91079 0.0
C2288 C 0.44234 0.65082 0.91133 0.0
C2289 C 0.45698 0.63498 0.89998 0.0
C2290 C 0.48417 0.6459 0.90081 0.0
C2291 C 0.4969 0.67268 0.91272 0.0
C2292 C 0.48247 0.68861 0.92374 0.0
C2293 C 0.45528 0.67778 0.92299 0.0
H2294 H 0.51794 0.68109 0.91335 0.0
H2295 H 0.25414 0.57438 0.89988 0.0
H2296 H 0.33672 0.27463 0.78029 0.0
H2297 H 0.36668 0.30026 0.82063 0.0
H2298 H 0.31262 0.33969 0.85226 0.0
H2299 H 0.28486 0.31695 0.80931 0.0
H2300 H 0.35326 0.37344 0.85975 0.0
H2301 H 0.331 0.28966 0.88334 0.0
H2302 H 0.32348 0.24222 0.87667 0.0
H2303 H 0.40361 0.25633 0.85834 0.0
H2304 H 0.4116 0.30378 0.86463 0.0
H2305 H 0.45274 0.42997 0.97904 0.0
H2306 H 0.41648 0.39026 0.95658 0.0
H2307 H 0.44375 0.40169 0.87501 0.0
H2308 H 0.4792 0.44177 0.8972 0.0
H2309 H 0.41097 0.34036 0.90578 0.0
H2310 H 0.40408 0.41838 0.855 0.0
H2311 H 0.41239 0.46633 0.86761 0.0
H2312 H 0.38357 0.45984 0.94944 0.0
H2313 H 0.37575 0.41208 0.93746 0.0
C2314 C 0.33129 0.28865 0.79612 0.0
C2315 C 0.30851 0.29369 0.79224 0.0
C2316 C 0.34818 0.30299 0.81951 0.0
C2317 C 0.34172 0.32142 0.84034 0.0
C2318 C 0.31828 0.3257 0.83666 0.0
C2319 C 0.30232 0.31268 0.81224 0.0
C2320 C 0.36083 0.3385 0.8639 0.0
C2321 C 0.36514 0.36569 0.87017 0.0
C2322 C 0.37667 0.32897 0.87812 0.0
C2323 C 0.37191 0.30036 0.87454 0.0
C2324 C 0.34701 0.28266 0.87783 0.0
C2325 C 0.34266 0.25573 0.87408 0.0
C2326 C 0.36307 0.24628 0.8671 0.0
C2327 C 0.38785 0.2637 0.86383 0.0
C2328 C 0.39232 0.29062 0.86758 0.0
C2329 C 0.45118 0.4237 0.95639 0.0
C2330 C 0.46817 0.43931 0.93984 0.0
C2331 C 0.43072 0.40091 0.94364 0.0
C2332 C 0.42759 0.39329 0.91426 0.0
C2333 C 0.44602 0.40742 0.89779 0.0
C2334 C 0.46605 0.43042 0.91047 0.0
C2335 C 0.40286 0.37424 0.90037 0.0
C2336 C 0.39789 0.34718 0.89589 0.0
C2337 C 0.38558 0.38345 0.88868 0.0
C2338 C 0.38914 0.41181 0.89528 0.0
C2339 C 0.39935 0.42725 0.87557 0.0
C2340 C 0.40419 0.45439 0.8827 0.0
C2341 C 0.39857 0.46616 0.90934 0.0
C2342 C 0.38809 0.45079 0.9289 0.0
C2343 C 0.38353 0.42373 0.92199 0.0
H2344 H 0.40232 0.48717 0.91483 0.0
H2345 H 0.35975 0.22548 0.86425 0.0
H2346 H 0.62876 0.29002 0.86 0.0
H2347 H 0.6329 0.32304 0.90364 0.0
H2348 H 0.70341 0.37469 0.87658 0.0
H2349 H 0.69958 0.34132 0.83291 0.0
H2350 H 0.68875 0.37689 0.946 0.0
H2351 H 0.66813 0.39175 0.8525 0.0
H2352 H 0.64835 0.37285 0.80411 0.0
H2353 H 0.57571 0.33229 0.83656 0.0
H2354 H 0.59521 0.3508 0.88514 0.0
H2355 H 0.64141 0.49276 0.97873 0.0
H2356 H 0.6675 0.46454 0.964 0.0
H2357 H 0.60086 0.39611 0.96943 0.0
H2358 H 0.57483 0.42384 0.98348 0.0
H2359 H 0.62256 0.40786 0.91248 0.0
H2360 H 0.6422 0.40384 0.00742 0.0
H2361 H 0.66267 0.42491 0.0551 0.0
H2362 H 0.73828 0.44545 0.02126 0.0
H2363 H 0.71825 0.4259 0.97312 0.0
C2364 C 0.64571 0.30796 0.86398 0.0
C2365 C 0.66352 0.31363 0.84313 0.0
C2366 C 0.64831 0.32657 0.88904 0.0
C2367 C 0.66843 0.35118 0.89313 0.0
C2368 C 0.68801 0.35561 0.87383 0.0
C2369 C 0.6856 0.33676 0.84882 0.0
C2370 C 0.66357 0.37374 0.91116 0.0
C2371 C 0.67468 0.38415 0.93873 0.0
C2372 C 0.64519 0.38293 0.90138 0.0
C2373 C 0.63312 0.37256 0.87233 0.0
C2374 C 0.64794 0.3788 0.84926 0.0
C2375 C 0.63679 0.36817 0.82184 0.0
C2376 C 0.61076 0.35145 0.81728 0.0
C2377 C 0.59583 0.34533 0.84014 0.0
C2378 C 0.60691 0.35591 0.86761 0.0
C2379 C 0.63283 0.47188 0.97825 0.0
C2380 C 0.60618 0.46034 0.98223 0.0
C2381 C 0.6477 0.45586 0.96986 0.0
C2382 C 0.63594 0.42844 0.96583 0.0
C2383 C 0.6102 0.41733 0.9729 0.0
C2384 C 0.5954 0.43318 0.98103 0.0
C2385 C 0.6474 0.41099 0.94766 0.0
C2386 C 0.63723 0.40133 0.91978 0.0
C2387 C 0.6667 0.40292 0.95735 0.0
C2388 C 0.67866 0.41378 0.98648 0.0
C2389 C 0.66316 0.41327 0.00998 0.0
C2390 C 0.67468 0.42493 0.03714 0.0
C2391 C 0.70172 0.43655 0.04119 0.0
C2392 C 0.71732 0.43654 0.01808 0.0
C2393 C 0.70588 0.42528 0.99083 0.0
H2394 H 0.7106 0.44543 0.06225 0.0
H2395 H 0.6022 0.34314 0.79603 0.0
H2396 H 0.70076 0.32279 0.13344 0.0
H2397 H 0.67046 0.32355 0.09745 0.0
H2398 H 0.63822 0.36931 0.16125 0.0
H2399 H 0.66855 0.36891 0.19689 0.0
H2400 H 0.6003 0.32893 0.12445 0.0
H2401 H 0.68264 0.39899 0.12245 0.0
H2402 H 0.72952 0.41891 0.11585 0.0
H2403 H 0.7185 0.37406 0.03044 0.0
H2404 H 0.67158 0.35347 0.03673 0.0
H2405 H 0.56366 0.42335 0.08369 0.0
H2406 H 0.58655 0.39848 0.10089 0.0
H2407 H 0.58476 0.35296 0.01649 0.0
H2408 H 0.5609 0.37752 -0.00087 0.0
H2409 H 0.63616 0.37881 0.0509 0.0
H2410 H 0.55144 0.31833 0.05147 0.0
H2411 H 0.50434 0.30311 0.05862 0.0
H2412 H 0.51973 0.33504 0.14754 0.0
H2413 H 0.56696 0.35087 0.14092 0.0
C2414 C 0.68707 0.33286 0.13962 0.0
C2415 C 0.68711 0.34614 0.16771 0.0
C2416 C 0.66985 0.33328 0.11916 0.0
C2417 C 0.65224 0.34659 0.12674 0.0
C2418 C 0.65166 0.35893 0.155 0.0
C2419 C 0.66908 0.35888 0.17526 0.0
C2420 C 0.63515 0.34906 0.10537 0.0
C2421 C 0.60813 0.33977 0.1083 0.0
C2422 C 0.64536 0.36248 0.08372 0.0
C2423 C 0.67372 0.37413 0.08031 0.0
C2424 C 0.69029 0.39296 0.10245 0.0
C2425 C 0.71686 0.40447 0.09872 0.0
C2426 C 0.72704 0.39755 0.07283 0.0
C2427 C 0.71064 0.37918 0.05058 0.0
C2428 C 0.68407 0.36756 0.05423 0.0
C2429 C 0.56815 0.40804 0.0688 0.0
C2430 C 0.56083 0.40241 0.0401 0.0
C2431 C 0.58099 0.39375 0.07865 0.0
C2432 C 0.58698 0.37378 0.05995 0.0
C2433 C 0.58 0.36819 0.03116 0.0
C2434 C 0.56652 0.38218 0.02133 0.0
C2435 C 0.60177 0.36009 0.07114 0.0
C2436 C 0.62834 0.36726 0.06643 0.0
C2437 C 0.59124 0.34516 0.09139 0.0
C2438 C 0.56282 0.33582 0.09567 0.0
C2439 C 0.54481 0.32231 0.07254 0.0
C2440 C 0.51808 0.31353 0.0765 0.0
C2441 C 0.50907 0.31805 0.10353 0.0
C2442 C 0.52676 0.33148 0.12663 0.0
C2443 C 0.55353 0.34032 0.12279 0.0
H2444 H 0.48839 0.31108 0.10657 0.0
H2445 H 0.74759 0.40659 0.06994 0.0
H2446 H 0.68852 0.72829 0.19588 0.0
H2447 H 0.66281 0.70548 0.15197 0.0
H2448 H 0.6864 0.63852 0.15041 0.0
H2449 H 0.71576 0.66341 0.19171 0.0
H2450 H 0.68082 0.63955 0.10062 0.0
H2451 H 0.62585 0.6473 0.17964 0.0
H2452 H 0.60913 0.67144 0.21988 0.0
H2453 H 0.58694 0.71244 0.16542 0.0
H2454 H 0.60375 0.68865 0.12491 0.0
H2455 H 0.56559 0.53052 0.08125 0.0
H2456 H 0.60312 0.57047 0.09843 0.0
H2457 H 0.58147 0.60839 0.03964 0.0
H2458 H 0.54408 0.56783 0.02154 0.0
H2459 H 0.58804 0.63192 0.1057 0.0
H2460 H 0.63116 0.60392 0.02466 0.0
H2461 H 0.64173 0.56926 0.99092 0.0
H2462 H 0.68138 0.55547 0.05741 0.0
H2463 H 0.67056 0.5896 0.09167 0.0
C2464 C 0.68927 0.7093 0.18533 0.0
C2465 C 0.70494 0.69806 0.19646 0.0
C2466 C 0.67397 0.6959 0.16061 0.0
C2467 C 0.67222 0.67003 0.14798 0.0
C2468 C 0.68756 0.65857 0.15948 0.0
C2469 C 0.70399 0.67258 0.18337 0.0
C2470 C 0.65295 0.65397 0.12432 0.0
C2471 C 0.66057 0.63802 0.10171 0.0
C2472 C 0.62655 0.65234 0.12517 0.0
C2473 C 0.61634 0.66651 0.14941 0.0
C2474 C 0.61751 0.66156 0.17633 0.0
C2475 C 0.60801 0.67516 0.19915 0.0
C2476 C 0.59707 0.69354 0.19523 0.0
C2477 C 0.59549 0.69826 0.16844 0.0
C2478 C 0.60498 0.68472 0.14555 0.0
C2479 C 0.5689 0.54731 0.07188 0.0
C2480 C 0.55187 0.54642 0.05044 0.0
C2481 C 0.5904 0.56993 0.08147 0.0
C2482 C 0.59493 0.59209 0.07009 0.0
C2483 C 0.57819 0.59127 0.04842 0.0
C2484 C 0.5569 0.5683 0.03831 0.0
C2485 C 0.61575 0.61661 0.08346 0.0
C2486 C 0.6085 0.63433 0.10406 0.0
C2487 C 0.6421 0.61879 0.08164 0.0
C2488 C 0.65006 0.5994 0.06076 0.0
C2489 C 0.64213 0.5935 0.0321 0.0
C2490 C 0.64813 0.5739 0.01288 0.0
C2491 C 0.66225 0.56019 0.02201 0.0
C2492 C 0.67051 0.56615 0.05035 0.0
C2493 C 0.66449 0.58567 0.06967 0.0
H2494 H 0.66675 0.54493 0.00713 0.0
H2495 H 0.58976 0.70408 0.21294 0.0
H2496 H 0.36333 0.71618 0.10114 0.0
H2497 H 0.36291 0.68182 0.05986 0.0
H2498 H 0.32456 0.62208 0.10568 0.0
H2499 H 0.32652 0.65538 0.14703 0.0
H2500 H 0.39242 0.65389 0.07913 0.0
H2501 H 0.2983 0.57352 0.07151 0.0
H2502 H 0.25087 0.5621 0.06382 0.0
H2503 H 0.26473 0.61121 0.00395 0.0
H2504 H 0.31224 0.62324 0.01178 0.0
H2505 H 0.40293 0.53253 0.07233 0.0
H2506 H 0.37918 0.56305 0.07901 0.0
H2507 H 0.38818 0.56861 0.9922 0.0
H2508 H 0.41212 0.53795 0.98529 0.0
H2509 H 0.33462 0.56664 0.0249 0.0
H2510 H 0.4319 0.61325 0.02641 0.0
H2511 H 0.47613 0.6202 0.04435 0.0
H2512 H 0.45247 0.63333 0.1293 0.0
H2513 H 0.40824 0.62664 0.11189 0.0
C2514 C 0.35426 0.69573 0.10227 0.0
C2515 C 0.34554 0.68883 0.12784 0.0
C2516 C 0.35343 0.67614 0.0784 0.0
C2517 C 0.34341 0.64948 0.07969 0.0
C2518 C 0.33169 0.6425 0.10396 0.0
C2519 C 0.33307 0.6619 0.12791 0.0
C2520 C 0.35345 0.63061 0.06158 0.0
C2521 C 0.37998 0.63523 0.06622 0.0
C2522 C 0.33692 0.60577 0.04632 0.0
C2523 C 0.30863 0.59943 0.04238 0.0
C2524 C 0.29115 0.58196 0.05684 0.0
C2525 C 0.2643 0.57543 0.05252 0.0
C2526 C 0.25478 0.58599 0.03347 0.0
C2527 C 0.27212 0.6032 0.01884 0.0
C2528 C 0.29899 0.61003 0.02336 0.0
C2529 C 0.39958 0.54001 0.05457 0.0
C2530 C 0.41011 0.5338 0.02855 0.0
C2531 C 0.38582 0.55711 0.05834 0.0
C2532 C 0.3824 0.56803 0.03612 0.0
C2533 C 0.39081 0.56016 0.00945 0.0
C2534 C 0.40456 0.54291 0.00562 0.0
C2535 C 0.37345 0.59036 0.04218 0.0
C2536 C 0.3473 0.586 0.03607 0.0
C2537 C 0.39003 0.61512 0.05752 0.0
C2538 C 0.41681 0.61945 0.06781 0.0
C2539 C 0.43615 0.61755 0.04887 0.0
C2540 C 0.4612 0.62144 0.05896 0.0
C2541 C 0.46706 0.62707 0.08791 0.0
C2542 C 0.44793 0.62898 0.10688 0.0
C2543 C 0.42292 0.62526 0.09692 0.0
H2544 H 0.48644 0.63002 0.09565 0.0
H2545 H 0.23399 0.58079 0.03001 0.0
H2546 H 0.29231 0.32817 0.2332 0.0
H2547 H 0.3195 0.35862 0.20584 0.0
H2548 H 0.34454 0.29639 0.15884 0.0
H2549 H 0.31992 0.26725 0.18866 0.0
H2550 H 0.38271 0.33715 0.16702 0.0
H2551 H 0.29311 0.31918 0.13588 0.0
H2552 H 0.2482 0.31826 0.14398 0.0
H2553 H 0.27694 0.40208 0.17676 0.0
H2554 H 0.32201 0.40344 0.16924 0.0
H2555 H 0.42131 0.38439 0.04368 0.0
H2556 H 0.39075 0.35924 0.07361 0.0
H2557 H 0.40105 0.43118 0.13557 0.0
H2558 H 0.43195 0.45634 0.10619 0.0
H2559 H 0.34566 0.38931 0.12128 0.0
H2560 H 0.43546 0.40537 0.15135 0.0
H2561 H 0.47966 0.4049 0.14145 0.0
H2562 H 0.4481 0.3214 0.10693 0.0
H2563 H 0.40374 0.32148 0.11629 0.0
C2564 C 0.30374 0.32124 0.21699 0.0
C2565 C 0.30389 0.2955 0.21235 0.0
C2566 C 0.31905 0.33847 0.20123 0.0
C2567 C 0.33344 0.32959 0.17961 0.0
C2568 C 0.3336 0.30375 0.17532 0.0
C2569 C 0.31947 0.28706 0.19214 0.0
C2570 C 0.34864 0.34706 0.16154 0.0
C2571 C 0.37434 0.34821 0.15681 0.0
C2572 C 0.3381 0.36215 0.1487 0.0
C2573 C 0.31092 0.36138 0.15216 0.0
C2574 C 0.28983 0.3374 0.14481 0.0
C2575 C 0.26436 0.3368 0.14935 0.0
C2576 C 0.25974 0.36009 0.16092 0.0
C2577 C 0.28055 0.38406 0.16782 0.0
C2578 C 0.30605 0.38476 0.1634 0.0
C2579 C 0.41673 0.3948 0.0635 0.0
C2580 C 0.42914 0.42212 0.07296 0.0
C2581 C 0.39931 0.38051 0.08043 0.0
C2582 C 0.39388 0.39355 0.10661 0.0
C2583 C 0.40506 0.42098 0.11531 0.0
C2584 C 0.42281 0.43519 0.09868 0.0
C2585 C 0.37891 0.37828 0.12626 0.0
C2586 C 0.35362 0.37793 0.13149 0.0
C2587 C 0.38954 0.36354 0.13921 0.0
C2588 C 0.4163 0.36347 0.13428 0.0
C2589 C 0.43796 0.38695 0.14148 0.0
C2590 C 0.46305 0.38675 0.13601 0.0
C2591 C 0.46672 0.36315 0.12354 0.0
C2592 C 0.4453 0.33968 0.11661 0.0
C2593 C 0.42018 0.33979 0.12201 0.0
H2594 H 0.48615 0.36304 0.11929 0.0
H2595 H 0.24004 0.35958 0.16455 0.0
H2596 H 0.80289 0.72328 0.66863 0.0
H2597 H 0.82809 0.69776 0.64289 0.0
H2598 H 0.80343 0.64334 0.69787 0.0
H2599 H 0.77994 0.66999 0.72468 0.0
H2600 H 0.84795 0.64788 0.69152 0.0
H2601 H 0.78223 0.63066 0.61866 0.0
H2602 H 0.75576 0.64051 0.58552 0.0
H2603 H 0.82515 0.68522 0.5509 0.0
H2604 H 0.85207 0.6752 0.5835 0.0
H2605 H 0.8841 0.54442 0.60908 0.0
H2606 H 0.85874 0.57153 0.6302 0.0
H2607 H 0.90429 0.63339 0.59014 0.0
H2608 H 0.92952 0.60606 0.56829 0.0
H2609 H 0.85155 0.62653 0.58766 0.0
H2610 H 0.91576 0.63818 0.65998 0.0
H2611 H 0.93938 0.62271 0.69062 0.0
H2612 H 0.86759 0.58336 0.72542 0.0
H2613 H 0.84351 0.59835 0.69473 0.0
C2614 C 0.80265 0.7057 0.67501 0.0
C2615 C 0.78922 0.69869 0.69872 0.0
C2616 C 0.817 0.69083 0.66005 0.0
C2617 C 0.81766 0.66794 0.66774 0.0
C2618 C 0.80372 0.66081 0.6912 0.0
C2619 C 0.79005 0.67606 0.70659 0.0
C2620 C 0.83368 0.65208 0.65263 0.0
C2621 C 0.84813 0.64294 0.66875 0.0
C2622 C 0.83515 0.6459 0.62284 0.0
C2623 C 0.81912 0.65249 0.60374 0.0
C2624 C 0.79183 0.64276 0.60412 0.0
C2625 C 0.77675 0.64829 0.58537 0.0
C2626 C 0.78875 0.66369 0.56631 0.0
C2627 C 0.81588 0.67338 0.56575 0.0
C2628 C 0.83105 0.66767 0.58425 0.0
C2629 C 0.88868 0.56366 0.6044 0.0
C2630 C 0.90914 0.57288 0.58688 0.0
C2631 C 0.8742 0.57933 0.61679 0.0
C2632 C 0.87967 0.60482 0.61222 0.0
C2633 C 0.89966 0.61392 0.59426 0.0
C2634 C 0.91429 0.59828 0.58192 0.0
C2635 C 0.86485 0.62197 0.62663 0.0
C2636 C 0.85099 0.63147 0.61041 0.0
C2637 C 0.86335 0.62797 0.65627 0.0
C2638 C 0.87784 0.61921 0.67492 0.0
C2639 C 0.90501 0.6261 0.67405 0.0
C2640 C 0.91848 0.61744 0.69144 0.0
C2641 C 0.90499 0.60201 0.70991 0.0
C2642 C 0.87801 0.59529 0.71109 0.0
C2643 C 0.86445 0.60389 0.69373 0.0
H2644 H 0.91545 0.59531 0.72334 0.0
H2645 H 0.77701 0.66803 0.5519 0.0
H2646 H 0.27777 0.77071 0.66534 0.0
H2647 H 0.29701 0.80282 0.63628 0.0
H2648 H 0.35955 0.84587 0.69983 0.0
H2649 H 0.33922 0.8147 0.72954 0.0
H2650 H 0.34588 0.87911 0.68081 0.0
H2651 H 0.36776 0.8024 0.63555 0.0
H2652 H 0.35673 0.75506 0.61427 0.0
H2653 H 0.30406 0.75939 0.55351 0.0
H2654 H 0.31522 0.80701 0.57411 0.0
H2655 H 0.44996 0.94713 0.6117 0.0
H2656 H 0.4199 0.91457 0.63436 0.0
H2657 H 0.36389 0.89017 0.56408 0.0
H2658 H 0.39464 0.92238 0.54056 0.0
H2659 H 0.36705 0.84825 0.58273 0.0
H2660 H 0.35627 0.93042 0.62511 0.0
H2661 H 0.37263 0.97797 0.64722 0.0
H2662 H 0.40816 0.96316 0.71617 0.0
H2663 H 0.39233 0.91557 0.69429 0.0
C2664 C 0.29564 0.7871 0.67289 0.0
C2665 C 0.30735 0.79039 0.69928 0.0
C2666 C 0.30666 0.80533 0.65634 0.0
C2667 C 0.33001 0.82652 0.66562 0.0
C2668 C 0.34153 0.82974 0.69223 0.0
C2669 C 0.33009 0.81193 0.70908 0.0
C2670 C 0.34282 0.84519 0.64762 0.0
C2671 C 0.35057 0.87234 0.65941 0.0
C2672 C 0.34833 0.83644 0.61942 0.0
C2673 C 0.34217 0.80812 0.60644 0.0
C2674 C 0.35384 0.79323 0.61763 0.0
C2675 C 0.34755 0.76636 0.60573 0.0
C2676 C 0.32953 0.75414 0.58273 0.0
C2677 C 0.31799 0.76887 0.57135 0.0
C2678 C 0.32441 0.79584 0.58301 0.0
C2679 C 0.43122 0.93492 0.60107 0.0
C2680 C 0.42439 0.93751 0.57461 0.0
C2681 C 0.41404 0.91635 0.61406 0.0
C2682 C 0.38941 0.90048 0.60124 0.0
C2683 C 0.38274 0.90246 0.57441 0.0
C2684 C 0.40022 0.92084 0.56108 0.0
C2685 C 0.37087 0.88207 0.61631 0.0
C2686 C 0.36189 0.85501 0.60393 0.0
C2687 C 0.36459 0.89092 0.64417 0.0
C2688 C 0.3731 0.91941 0.65802 0.0
C2689 C 0.36757 0.9373 0.64499 0.0
C2690 C 0.37678 0.96427 0.65746 0.0
C2691 C 0.39143 0.97357 0.68308 0.0
C2692 C 0.39678 0.95592 0.69635 0.0
C2693 C 0.38763 0.92893 0.68395 0.0
H2694 H 0.39862 0.99447 0.69265 0.0
H2695 H 0.32458 0.73328 0.57368 0.0
H2696 H 0.19428 0.32824 0.6229 0.0
H2697 H 0.16904 0.34183 0.59236 0.0
H2698 H 0.11862 0.35193 0.66008 0.0
H2699 H 0.1418 0.33601 0.68915 0.0
H2700 H 0.09059 0.33379 0.61635 0.0
H2701 H 0.17884 0.40464 0.63651 0.0
H2702 H 0.22633 0.42184 0.63124 0.0
H2703 H 0.21376 0.39876 0.54124 0.0
H2704 H 0.16629 0.38126 0.54602 0.0
H2705 H 0.04412 0.43391 0.61016 0.0
H2706 H 0.06842 0.40736 0.62049 0.0
H2707 H 0.09816 0.40289 0.53746 0.0
H2708 H 0.07476 0.43063 0.52734 0.0
H2709 H 0.13567 0.41063 0.57488 0.0
H2710 H 0.05037 0.34951 0.55263 0.0
H2711 H 1.0025 0.33146 0.55333 0.0
H2712 H 0.00835 0.33311 0.64141 0.0
H2713 H 0.05626 0.35156 0.64137 0.0
C2714 C 0.17743 0.33277 0.63097 0.0
C2715 C 0.1705 0.33159 0.65882 0.0
C2716 C 0.16325 0.34103 0.61363 0.0
C2717 C 0.14228 0.34882 0.62405 0.0
C2718 C 0.13476 0.34634 0.65135 0.0
C2719 C 0.14834 0.3375 0.66823 0.0
C2720 C 0.12795 0.36 0.60756 0.0
C2721 C 0.10058 0.35074 0.60752 0.0
C2722 C 0.14058 0.38107 0.59421 0.0
C2723 C 0.16911 0.3913 0.59165 0.0
C2724 C 0.18626 0.40306 0.61564 0.0
C2725 C 0.21316 0.4129 0.61272 0.0
C2726 C 0.22306 0.41128 0.58593 0.0
C2727 C 0.2061 0.39991 0.56198 0.0
C2728 C 0.17922 0.39003 0.56478 0.0
C2729 C 0.05612 0.42769 0.59419 0.0
C2730 C 0.05747 0.43452 0.56793 0.0
C2731 C 0.06973 0.41212 0.59998 0.0
C2732 C 0.08473 0.40265 0.57956 0.0
C2733 C 0.08654 0.40977 0.55347 0.0
C2734 C 0.073 0.4255 0.54768 0.0
C2735 C 0.09873 0.3857 0.58597 0.0
C2736 C 0.12578 0.3936 0.58362 0.0
C2737 C 0.08582 0.36314 0.59678 0.0
C2738 C 0.05696 0.35206 0.597 0.0
C2739 C 0.04146 0.34621 0.5722 0.0
C2740 C 0.01431 0.33588 0.57247 0.0
C2741 C 1.00239 0.33118 0.5974 0.0
C2742 C 0.01761 0.33677 0.62211 0.0
C2743 C 0.04477 0.34713 0.62196 0.0
H2744 H 0.98136 0.32317 0.59756 0.0
H2745 H 0.24388 0.41892 0.58372 0.0
H2746 H 0.76436 0.18708 0.64995 0.0
H2747 H 0.74212 0.15369 0.60725 0.0
H2748 H 0.66834 0.14262 0.64561 0.0
H2749 H 0.68999 0.17453 0.6877 0.0
H2750 H 0.67751 0.09557 0.6215 0.0
H2751 H 0.66584 0.17549 0.58528 0.0
H2752 H 0.68863 0.2205 0.57817 0.0
H2753 H 0.75408 0.19889 0.54792 0.0
H2754 H 0.73148 0.15366 0.5546 0.0
H2755 H 0.55742 0.07789 0.56696 0.0
H2756 H 0.60285 0.10578 0.58002 0.0
H2757 H 0.62815 0.05387 0.51595 0.0
H2758 H 0.58259 0.0255 0.50321 0.0
H2759 H 0.65626 0.12483 0.53897 0.0
H2760 H 0.63334 0.03322 0.55911 0.0
H2761 H 0.59887 -0.00291 0.57453 0.0
H2762 H 0.59195 0.05148 0.6493 0.0
H2763 H 0.62588 0.08794 0.634 0.0
C2764 C 0.74345 0.1772 0.64914 0.0
C2765 C 0.72886 0.18356 0.67193 0.0
C2766 C 0.7308 0.1584 0.62479 0.0
C2767 C 0.7036 0.1459 0.62332 0.0
C2768 C 0.68934 0.15203 0.64633 0.0
C2769 C 0.70178 0.17044 0.67035 0.0
C2770 C 0.68884 0.12632 0.59837 0.0
C2771 C 0.67372 0.10134 0.60261 0.0
C2772 C 0.68328 0.13437 0.57443 0.0
C2773 C 0.69707 0.16137 0.57049 0.0
C2774 C 0.68508 0.18039 0.57707 0.0
C2775 C 0.69795 0.20591 0.57314 0.0
C2776 C 0.72283 0.21258 0.56271 0.0
C2777 C 0.73485 0.19371 0.55609 0.0
C2778 C 0.72202 0.16814 0.55992 0.0
C2779 C 0.57264 0.07282 0.55517 0.0
C2780 C 0.56665 0.04962 0.53405 0.0
C2781 C 0.59849 0.08889 0.5624 0.0
C2782 C 0.61866 0.08185 0.54879 0.0
C2783 C 0.61274 0.05976 0.52631 0.0
C2784 C 0.58679 0.04362 0.51908 0.0
C2785 C 0.64505 0.09429 0.56235 0.0
C2786 C 0.66163 0.11796 0.55628 0.0
C2787 C 0.6513 0.08567 0.58554 0.0
C2788 C 0.63218 0.06326 0.59542 0.0
C2789 C 0.62446 0.03743 0.57882 0.0
C2790 C 0.60496 0.01692 0.58751 0.0
C2791 C 0.59327 0.02199 0.61289 0.0
C2792 C 0.60106 0.04756 0.62967 0.0
C2793 C 0.62042 0.06813 0.62102 0.0
H2794 H 0.57822 0.00613 0.6196 0.0
H2795 H 0.73276 0.23234 0.5597 0.0
H2796 H 0.78461 0.26188 0.33868 0.0
H2797 H 0.8123 0.28657 0.38152 0.0
H2798 H 0.84361 0.35392 0.3441 0.0
H2799 H 0.81585 0.32938 0.30119 0.0
H2800 H 0.87947 0.32684 0.36438 0.0
H2801 H 0.81614 0.3735 0.39267 0.0
H2802 H 0.77104 0.37157 0.40161 0.0
H2803 H 0.7646 0.31975 0.45736 0.0
H2804 H 0.80981 0.32164 0.44885 0.0
H2805 H 0.94345 0.45323 0.4202 0.0
H2806 H 0.90584 0.41309 0.40442 0.0
H2807 H 0.91607 0.38621 0.47849 0.0
H2808 H 0.95422 0.42672 0.49436 0.0
H2809 H 0.85871 0.37866 0.45257 0.0
H2810 H 0.93703 0.35808 0.43406 0.0
H2811 H 0.98267 0.36893 0.4208 0.0
H2812 H 0.96092 0.37572 0.33966 0.0
H2813 H 0.91533 0.3656 0.35263 0.0
C2814 C 0.79717 0.28211 0.33984 0.0
C2815 C 0.79846 0.29384 0.31677 0.0
C2816 C 0.81277 0.29609 0.36425 0.0
C2817 C 0.82987 0.32179 0.3656 0.0
C2818 C 0.83034 0.33397 0.34313 0.0
C2819 C 0.81455 0.3201 0.31881 0.0
C2820 C 0.84922 0.33536 0.38914 0.0
C2821 C 0.87506 0.33773 0.38404 0.0
C2822 C 0.84305 0.34883 0.41478 0.0
C2823 C 0.81611 0.34762 0.42008 0.0
C2824 C 0.80502 0.3617 0.40681 0.0
C2825 C 0.77952 0.36066 0.41184 0.0
C2826 C 0.76493 0.34547 0.42997 0.0
C2827 C 0.77591 0.33146 0.44328 0.0
C2828 C 0.80149 0.33258 0.43845 0.0
C2829 C 0.93726 0.43905 0.43342 0.0
C2830 C 0.95133 0.44284 0.45845 0.0
C2831 C 0.91587 0.41627 0.42449 0.0
C2832 C 0.90856 0.39685 0.44028 0.0
C2833 C 0.92155 0.40121 0.46625 0.0
C2834 C 0.94306 0.42428 0.47533 0.0
C2835 C 0.88921 0.37123 0.42722 0.0
C2836 C 0.86322 0.36644 0.43399 0.0
C2837 C 0.89534 0.35587 0.40267 0.0
C2838 C 0.92268 0.36103 0.39438 0.0
C2839 C 0.94199 0.36199 0.41344 0.0
C2840 C 0.96787 0.36805 0.40597 0.0
C2841 C 0.97469 0.373 0.3794 0.0
C2842 C 0.95562 0.37184 0.36022 0.0
C2843 C 0.92974 0.36591 0.36761 0.0
H2844 H 0.99474 0.37773 0.37369 0.0
H2845 H 0.74514 0.3446 0.43373 0.0
H2846 H 0.68904 0.75968 0.30444 0.0
H2847 H 0.66385 0.78532 0.33046 0.0
H2848 H 0.72134 0.8569 0.31631 0.0
H2849 H 0.74656 0.83129 0.2902 0.0
H2850 H 0.70295 0.85922 0.37433 0.0
H2851 H 0.66915 0.83346 0.27686 0.0
H2852 H 0.64971 0.80096 0.23264 0.0
H2853 H 0.58405 0.76203 0.27647 0.0
H2854 H 0.60334 0.79402 0.32093 0.0
H2855 H 0.63667 0.95023 0.41056 0.0
H2856 H 0.66188 0.92309 0.38935 0.0
H2857 H 0.59262 0.85357 0.37793 0.0
H2858 H 0.5672 0.88067 0.39893 0.0
H2859 H 0.61659 0.84816 0.33409 0.0
H2860 H 0.64499 0.86968 0.42962 0.0
H2861 H 0.66215 0.89666 0.47698 0.0
H2862 H 0.73415 0.93672 0.44308 0.0
H2863 H 0.71729 0.91023 0.39539 0.0
C2864 C 0.69659 0.78092 0.30734 0.0
C2865 C 0.71998 0.79343 0.29544 0.0
C2866 C 0.68201 0.79557 0.322 0.0
C2867 C 0.69057 0.82312 0.32535 0.0
C2868 C 0.71428 0.83571 0.3141 0.0
C2869 C 0.72866 0.82103 0.29909 0.0
C2870 C 0.67453 0.83873 0.33983 0.0
C2871 C 0.68421 0.85709 0.36539 0.0
C2872 C 0.6495 0.83514 0.32892 0.0
C2873 C 0.63789 0.81592 0.30222 0.0
C2874 C 0.65074 0.81778 0.27705 0.0
C2875 C 0.63972 0.79952 0.25196 0.0
C2876 C 0.61573 0.77941 0.25178 0.0
C2877 C 0.60267 0.77758 0.27665 0.0
C2878 C 0.61364 0.79577 0.30179 0.0
C2879 C 0.62673 0.92913 0.40395 0.0
C2880 C 0.59967 0.91786 0.40677 0.0
C2881 C 0.64131 0.91349 0.39174 0.0
C2882 C 0.62948 0.88596 0.38222 0.0
C2883 C 0.60247 0.87467 0.38493 0.0
C2884 C 0.58783 0.89032 0.39698 0.0
C2885 C 0.64502 0.86913 0.36876 0.0
C2886 C 0.63527 0.85044 0.3433 0.0
C2887 C 0.6696 0.87177 0.38033 0.0
C2888 C 0.67973 0.88818 0.40885 0.0
C2889 C 0.66438 0.88445 0.4322 0.0
C2890 C 0.67408 0.89961 0.45912 0.0
C2891 C 0.69919 0.91845 0.46303 0.0
C2892 C 0.71468 0.92216 0.44001 0.0
C2893 C 0.70506 0.90706 0.41302 0.0
H2894 H 0.70668 0.93013 0.4839 0.0
H2895 H 0.60723 0.76529 0.23235 0.0
H2896 H 0.1883 0.69579 0.27511 0.0
H2897 H 0.15697 0.67098 0.3048 0.0
H2898 H 0.21864 0.69101 0.36815 0.0
H2899 H 0.24972 0.71655 0.33886 0.0
H2900 H 0.18964 0.63488 0.34391 0.0
H2901 H 0.1764 0.71698 0.38466 0.0
H2902 H 0.16586 0.75598 0.38122 0.0
H2903 H 0.09021 0.70582 0.34375 0.0
H2904 H 0.10047 0.66647 0.34645 0.0
H2905 H 0.12013 0.57436 0.44893 0.0
H2906 H 0.14723 0.60967 0.42682 0.0
H2907 H 0.08377 0.59293 0.36688 0.0
H2908 H 0.05686 0.55729 0.38834 0.0
H2909 H 0.11225 0.64885 0.38974 0.0
H2910 H 0.12286 0.56922 0.34289 0.0
H2911 H 0.13088 0.52742 0.33695 0.0
H2912 H 0.20789 0.56944 0.37546 0.0
H2913 H 0.20007 0.6115 0.38225 0.0
C2914 C 0.19484 0.69533 0.2957 0.0
C2915 C 0.22107 0.70783 0.30506 0.0
C2916 C 0.17707 0.68132 0.31256 0.0
C2917 C 0.18562 0.67947 0.33861 0.0
C2918 C 0.21179 0.69253 0.34817 0.0
C2919 C 0.22944 0.70689 0.33152 0.0
C2920 C 0.16807 0.66118 0.35417 0.0
C2921 C 0.17305 0.63818 0.35451 0.0
C2922 C 0.14572 0.66506 0.36646 0.0
C2923 C 0.1393 0.68875 0.36555 0.0
C2924 C 0.15759 0.71424 0.37549 0.0
C2925 C 0.15166 0.73642 0.37369 0.0
C2926 C 0.12741 0.73337 0.36222 0.0
C2927 C 0.109 0.70815 0.35262 0.0
C2928 C 0.11485 0.6859 0.3543 0.0
C2929 C 0.112 0.57834 0.43113 0.0
C2930 C 0.08665 0.56294 0.42001 0.0
C2931 C 0.12737 0.59849 0.41865 0.0
C2932 C 0.11736 0.60376 0.39532 0.0
C2933 C 0.09169 0.58915 0.38496 0.0
C2934 C 0.07652 0.56867 0.39703 0.0
C2935 C 0.13443 0.62298 0.3803 0.0
C2936 C 0.12915 0.64586 0.37964 0.0
C2937 C 0.15614 0.61871 0.36682 0.0
C2938 C 0.16068 0.59344 0.36363 0.0
C2939 C 0.14132 0.56951 0.35059 0.0
C2940 C 0.14587 0.54577 0.34695 0.0
C2941 C 0.16983 0.54575 0.35597 0.0
C2942 C 0.18929 0.56947 0.36862 0.0
C2943 C 0.1848 0.59326 0.37242 0.0
H2944 H 0.17336 0.52736 0.35303 0.0
H2945 H 0.12286 0.75055 0.36084 0.0
H2946 H 0.3796 0.19912 0.33781 0.0
H2947 H 0.40315 0.17219 0.34991 0.0
H2948 H 0.3441 0.14402 0.40721 0.0
H2949 H 0.32159 0.17213 0.39629 0.0
H2950 H 0.38661 0.15427 0.43214 0.0
H2951 H 0.35285 0.10536 0.3391 0.0
H2952 H 0.34452 0.09745 0.28786 0.0
H2953 H 0.42675 0.12218 0.27636 0.0
H2954 H 0.43559 0.13057 0.32759 0.0
H2955 H 0.42914 0.05076 0.45321 0.0
H2956 H 0.40448 0.07676 0.44101 0.0
H2957 H 0.46629 0.11147 0.38948 0.0
H2958 H 0.49026 0.08463 0.4008 0.0
H2959 H 0.42202 0.09745 0.36214 0.0
H2960 H 0.4538 0.14479 0.45811 0.0
H2961 H 0.45901 0.14922 0.5093 0.0
H2962 H 0.37598 0.12275 0.51499 0.0
H2963 H 0.37025 0.11788 0.4638 0.0
C2964 C 0.37153 0.18682 0.35264 0.0
C2965 C 0.34873 0.18753 0.36602 0.0
C2966 C 0.38494 0.17135 0.35954 0.0
C2967 C 0.37537 0.15568 0.37935 0.0
C2968 C 0.35209 0.15591 0.39201 0.0
C2969 C 0.33907 0.1718 0.38559 0.0
C2970 C 0.38994 0.13988 0.38786 0.0
C2971 C 0.39401 0.14157 0.41673 0.0
C2972 C 0.4001 0.12354 0.368 0.0
C2973 C 0.39487 0.11884 0.33722 0.0
C2974 C 0.36916 0.10933 0.32567 0.0
C2975 C 0.36435 0.10472 0.29662 0.0
C2976 C 0.38509 0.10937 0.27887 0.0
C2977 C 0.4107 0.11862 0.29014 0.0
C2978 C 0.41562 0.1233 0.31917 0.0
C2979 C 0.43734 0.06403 0.43933 0.0
C2980 C 0.46142 0.06573 0.42778 0.0
C2981 C 0.42339 0.07903 0.43253 0.0
C2982 C 0.43362 0.09642 0.41455 0.0
C2983 C 0.45792 0.09823 0.40333 0.0
C2984 C 0.47163 0.08296 0.40979 0.0
C2985 C 0.41871 0.11193 0.40631 0.0
C2986 C 0.4146 0.11018 0.37749 0.0
C2987 C 0.40807 0.12777 0.42623 0.0
C2988 C 0.4116 0.13076 0.45705 0.0
C2989 C 0.43665 0.13975 0.47024 0.0
C2990 C 0.43969 0.14236 0.49927 0.0
C2991 C 0.41784 0.1362 0.51538 0.0
C2992 C 0.39289 0.12748 0.5025 0.0
C2993 C 0.38974 0.12483 0.47348 0.0
H2994 H 0.42023 0.13823 0.53784 0.0
H2995 H 0.38132 0.10575 0.25638 0.0
H2996 H 0.68727 0.81477 0.59349 0.0
H2997 H 0.66471 0.84241 0.58164 0.0
H2998 H 0.61651 0.82998 0.65219 0.0
H2999 H 0.63891 0.80178 0.66396 0.0
H3000 H 0.588 0.82195 0.60228 0.0
H3001 H 0.66515 0.88925 0.65402 0.0
H3002 H 0.7125 0.91188 0.66395 0.0
H3003 H 0.72081 0.92592 0.58044 0.0
H3004 H 0.67356 0.9031 0.56991 0.0
H3005 H 0.53046 0.91807 0.6036 0.0
H3006 H 0.55428 0.89121 0.6148 0.0
H3007 H 0.6055 0.91031 0.54794 0.0
H3008 H 0.58197 0.93766 0.53695 0.0
H3009 H 0.63282 0.91447 0.59417 0.0
H3010 H 0.56078 0.84992 0.53967 0.0
H3011 H 0.51505 0.82495 0.52292 0.0
H3012 H 0.49837 0.80251 0.60213 0.0
H3013 H 0.54398 0.82769 0.61955 0.0
C3014 C 0.67201 0.81808 0.60666 0.0
C3015 C 0.66487 0.80604 0.62966 0.0
C3016 C 0.6592 0.834 0.59991 0.0
C3017 C 0.63898 0.83843 0.61608 0.0
C3018 C 0.63209 0.82688 0.63943 0.0
C3019 C 0.64505 0.81099 0.64631 0.0
C3020 C 0.62458 0.85436 0.60789 0.0
C3021 C 0.59768 0.84235 0.60107 0.0
C3022 C 0.63745 0.88051 0.60472 0.0
C3023 C 0.66585 0.89429 0.61112 0.0
C3024 C 0.6771 0.897 0.63772 0.0
C3025 C 0.70392 0.9099 0.64346 0.0
C3026 C 0.71966 0.92028 0.62282 0.0
C3027 C 0.7086 0.91785 0.59641 0.0
C3028 C 0.6818 0.90497 0.59055 0.0
C3029 C 0.54691 0.91673 0.5914 0.0
C3030 C 0.55436 0.9301 0.56944 0.0
C3031 C 0.56035 0.90112 0.59763 0.0
C3032 C 0.58155 0.89849 0.58205 0.0
C3033 C 0.58916 0.91195 0.56021 0.0
C3034 C 0.57561 0.92746 0.55385 0.0
C3035 C 0.59611 0.88228 0.5892 0.0
C3036 C 0.62304 0.89414 0.59561 0.0
C3037 C 0.58341 0.85574 0.59112 0.0
C3038 C 0.55577 0.84099 0.58106 0.0
C3039 C 0.54731 0.83994 0.55367 0.0
C3040 C 0.52142 0.82567 0.54401 0.0
C3041 C 0.50379 0.81222 0.56148 0.0
C3042 C 0.51204 0.81299 0.58864 0.0
C3043 C 0.53793 0.82725 0.59842 0.0
H3044 H 0.48377 0.80114 0.55395 0.0
H3045 H 0.74041 0.93026 0.62732 0.0
H3046 H 0.7464 0.20201 0.31682 0.0
H3047 H 0.72025 0.17209 0.34505 0.0
H3048 H 0.65006 0.16706 0.30259 0.0
H3049 H 0.67615 0.19592 0.27317 0.0
H3050 H 0.65075 0.17742 0.36467 0.0
H3051 H 0.66349 0.11775 0.2835 0.0
H3052 H 0.68893 0.10076 0.24685 0.0
H3053 H 0.73474 0.09013 0.31022 0.0
H3054 H 0.70968 0.10736 0.34734 0.0
H3055 H 0.55948 0.05607 0.38752 0.0
H3056 H 0.5885 0.09027 0.36559 0.0
H3057 H 0.65231 0.09966 0.42168 0.0
H3058 H 0.62303 0.06589 0.44451 0.0
H3059 H 0.65669 0.08874 0.35566 0.0
H3060 H 0.63905 0.14626 0.43705 0.0
H3061 H 0.61086 0.16203 0.47106 0.0
H3062 H 0.57132 0.17546 0.4042 0.0
H3063 H 0.59902 0.15934 0.36971 0.0
C3064 C 0.72541 0.19454 0.31341 0.0
C3065 C 0.71323 0.20182 0.29321 0.0
C3066 C 0.71056 0.17754 0.3296 0.0
C3067 C 0.68336 0.16776 0.32598 0.0
C3068 C 0.67108 0.17483 0.30583 0.0
C3069 C 0.68597 0.19144 0.28922 0.0
C3070 C 0.66786 0.14955 0.34288 0.0
C3071 C 0.65186 0.15796 0.36264 0.0
C3072 C 0.66978 0.12444 0.34031 0.0
C3073 C 0.68489 0.11405 0.31818 0.0
C3074 C 0.67914 0.11201 0.28964 0.0
C3075 C 0.69343 0.10228 0.26879 0.0
C3076 C 0.7134 0.09434 0.27622 0.0
C3077 C 0.71921 0.09624 0.30453 0.0
C3078 C 0.70495 0.10595 0.32548 0.0
C3079 C 0.57969 0.06546 0.39519 0.0
C3080 C 0.58921 0.05833 0.41746 0.0
C3081 C 0.59612 0.08501 0.3828 0.0
C3082 C 0.62234 0.09731 0.39218 0.0
C3083 C 0.63201 0.09028 0.41438 0.0
C3084 C 0.61537 0.07111 0.4273 0.0
C3085 C 0.63968 0.11665 0.3776 0.0
C3086 C 0.65591 0.10836 0.35805 0.0
C3087 C 0.63766 0.14172 0.38012 0.0
C3088 C 0.62091 0.1513 0.40077 0.0
C3089 C 0.62414 0.15228 0.42955 0.0
C3090 C 0.6083 0.16135 0.44893 0.0
C3091 C 0.58925 0.16966 0.43978 0.0
C3092 C 0.58605 0.16897 0.41125 0.0
C3093 C 0.60183 0.15989 0.39178 0.0
H3094 H 0.57702 0.17671 0.45482 0.0
H3095 H 0.72425 0.08657 0.26001 0.0
H3096 H 0.87846 0.69488 0.33719 0.0
H3097 H 0.90271 0.67829 0.36525 0.0
H3098 H 0.83114 0.61827 0.37831 0.0
H3099 H 0.80671 0.63549 0.35074 0.0
H3100 H 0.86618 0.6349 0.42459 0.0
H3101 H 0.8667 0.60417 0.32456 0.0
H3102 H 0.8728 0.60918 0.27556 0.0
H3103 H 0.95351 0.6558 0.29656 0.0
H3104 H 0.94778 0.65138 0.34582 0.0
H3105 H 0.92297 0.53588 0.43125 0.0
H3106 H 0.89691 0.56079 0.41965 0.0
H3107 H 0.96719 0.62666 0.41733 0.0
H3108 H 0.99329 0.60204 0.42934 0.0
H3109 H 0.93248 0.60762 0.36782 0.0
H3110 H 0.93233 0.63507 0.46764 0.0
H3111 H 0.92563 0.63002 0.51655 0.0
H3112 H 0.84394 0.58846 0.49608 0.0
H3113 H 0.8502 0.59278 0.44685 0.0
C3114 C 0.86785 0.67875 0.34691 0.0
C3115 C 0.84078 0.66651 0.34198 0.0
C3116 C 0.8817 0.66914 0.36276 0.0
C3117 C 0.86884 0.64667 0.37342 0.0
C3118 C 0.8415 0.63559 0.37027 0.0
C3119 C 0.82755 0.64544 0.35461 0.0
C3120 C 0.88422 0.63318 0.38477 0.0
C3121 C 0.88047 0.62866 0.4121 0.0
C3122 C 0.90312 0.62528 0.36862 0.0
C3123 C 0.90675 0.62763 0.33892 0.0
C3124 C 0.88571 0.61561 0.31876 0.0
C3125 C 0.88911 0.61833 0.29094 0.0
C3126 C 0.91352 0.63284 0.28296 0.0
C3127 C 0.9346 0.64459 0.30278 0.0
C3128 C 0.9313 0.64196 0.33064 0.0
C3129 C 0.93281 0.55576 0.4285 0.0
C3130 C 0.96015 0.56699 0.43108 0.0
C3131 C 0.91792 0.57002 0.42209 0.0
C3132 C 0.93013 0.5956 0.41776 0.0
C3133 C 0.9574 0.60699 0.42074 0.0
C3134 C 0.97226 0.59294 0.42764 0.0
C3135 C 0.91466 0.60955 0.4077 0.0
C3136 C 0.91828 0.61395 0.38042 0.0
C3137 C 0.8956 0.61707 0.42389 0.0
C3138 C 0.8918 0.61397 0.45339 0.0
C3139 C 0.91298 0.62452 0.47343 0.0
C3140 C 0.90925 0.62187 0.50125 0.0
C3141 C 0.88439 0.60887 0.5094 0.0
C3142 C 0.8632 0.59848 0.48972 0.0
C3143 C 0.86683 0.60103 0.46184 0.0
H3144 H 0.88152 0.60692 0.53097 0.0
H3145 H 0.9161 0.63494 0.26142 0.0
H3146 H 0.3413 0.80032 0.30264 0.0
H3147 H 0.3625 0.82946 0.34737 0.0
H3148 H 0.29007 0.8397 0.37211 0.0
H3149 H 0.26837 0.80927 0.32837 0.0
H3150 H 0.34192 0.88826 0.37426 0.0
H3151 H 0.30056 0.80892 0.40708 0.0
H3152 H 0.28781 0.76211 0.40901 0.0
H3153 H 0.36828 0.77024 0.41608 0.0
H3154 H 0.38156 0.81686 0.41346 0.0
H3155 H 0.43245 0.96977 0.48421 0.0
H3156 H 0.38873 0.93696 0.47011 0.0
H3157 H 0.42323 0.88111 0.42676 0.0
H3158 H 0.46655 0.91365 0.4408 0.0
H3159 H 0.37622 0.85636 0.4469 0.0
H3160 H 0.41563 0.92462 0.39326 0.0
H3161 H 0.4341 0.9711 0.3896 0.0
H3162 H 0.3632 0.98265 0.41741 0.0
H3163 H 0.34446 0.93622 0.42155 0.0
C3164 C 0.3299 0.80879 0.31759 0.0
C3165 C 0.30325 0.80284 0.31179 0.0
C3166 C 0.34196 0.82526 0.34311 0.0
C3167 C 0.32762 0.83625 0.36299 0.0
C3168 C 0.30129 0.83118 0.35695 0.0
C3169 C 0.2891 0.81429 0.33166 0.0
C3170 C 0.34091 0.85426 0.38933 0.0
C3171 C 0.34872 0.88138 0.39072 0.0
C3172 C 0.35004 0.84502 0.41033 0.0
C3173 C 0.34205 0.81647 0.41006 0.0
C3174 C 0.31556 0.80066 0.40862 0.0
C3175 C 0.30823 0.77417 0.40998 0.0
C3176 C 0.32721 0.7633 0.41298 0.0
C3177 C 0.35358 0.77874 0.41404 0.0
C3178 C 0.36101 0.80518 0.41256 0.0
C3179 C 0.43052 0.9501 0.47264 0.0
C3180 C 0.45258 0.9441 0.46323 0.0
C3181 C 0.40564 0.93145 0.46463 0.0
C3182 C 0.40285 0.90679 0.44713 0.0
C3183 C 0.42498 0.90001 0.44032 0.0
C3184 C 0.4497 0.91864 0.44809 0.0
C3185 C 0.3782 0.89012 0.43094 0.0
C3186 C 0.3683 0.86327 0.43128 0.0
C3187 C 0.36778 0.89941 0.41089 0.0
C3188 C 0.3788 0.92714 0.40806 0.0
C3189 C 0.40406 0.93714 0.39873 0.0
C3190 C 0.41457 0.96346 0.39657 0.0
C3191 C 0.39988 0.97987 0.40339 0.0
C3192 C 0.37459 0.96994 0.41224 0.0
C3193 C 0.36401 0.94363 0.41451 0.0
H3194 H 0.40807 0.00026 0.40174 0.0
H3195 H 0.3215 0.74287 0.41426 0.0
H3196 H 0.17817 0.26616 0.27397 0.0
H3197 H 0.15658 0.29565 0.29908 0.0
H3198 H 0.2273 0.34263 0.34958 0.0
H3199 H 0.24973 0.31448 0.32259 0.0
H3200 H 0.17996 0.33161 0.38118 0.0
H3201 H 0.21442 0.36521 0.30203 0.0
H3202 H 0.22356 0.36779 0.25286 0.0
H3203 H 0.14252 0.35065 0.23371 0.0
H3204 H 0.13257 0.34626 0.28229 0.0
H3205 H 0.13257 0.43788 0.43739 0.0
H3206 H 0.15854 0.4111 0.417 0.0
H3207 H 0.09977 0.36899 0.34971 0.0
H3208 H 0.07358 0.39536 0.37001 0.0
H3209 H 0.1451 0.3804 0.32822 0.0
H3210 H 0.11099 0.3425 0.40771 0.0
H3211 H 0.10344 0.3436 0.458 0.0
H3212 H 0.18596 0.37341 0.47734 0.0
H3213 H 0.194 0.37277 0.42717 0.0
C3214 C 0.1894 0.28303 0.29001 0.0
C3215 C 0.21599 0.288 0.29575 0.0
C3216 C 0.17685 0.29977 0.30467 0.0
C3217 C 0.19023 0.32164 0.3262 0.0
C3218 C 0.21642 0.32595 0.3331 0.0
C3219 C 0.22922 0.30958 0.31781 0.0
C3220 C 0.1769 0.34017 0.34073 0.0
C3221 C 0.17261 0.3425 0.36963 0.0
C3222 C 0.16701 0.35437 0.32579 0.0
C3223 C 0.17267 0.35499 0.29588 0.0
C3224 C 0.1984 0.36123 0.2872 0.0
C3225 C 0.20375 0.36306 0.25938 0.0
C3226 C 0.18363 0.35928 0.24013 0.0
C3227 C 0.15808 0.35341 0.24859 0.0
C3228 C 0.15254 0.35102 0.27621 0.0
C3229 C 0.12484 0.42269 0.41848 0.0
C3230 C 0.10067 0.41911 0.40557 0.0
C3231 C 0.13988 0.40728 0.40674 0.0
C3232 C 0.13124 0.38759 0.38176 0.0
C3233 C 0.10716 0.38397 0.36888 0.0
C3234 C 0.09213 0.39932 0.38058 0.0
C3235 C 0.14731 0.37121 0.36848 0.0
C3236 C 0.15228 0.36938 0.33976 0.0
C3237 C 0.15791 0.35762 0.38361 0.0
C3238 C 0.15309 0.35784 0.41372 0.0
C3239 C 0.12753 0.34945 0.42271 0.0
C3240 C 0.12316 0.34996 0.45118 0.0
C3241 C 0.14421 0.35864 0.47086 0.0
C3242 C 0.16967 0.36673 0.46208 0.0
C3243 C 0.17415 0.36627 0.43362 0.0
H3244 H 0.14079 0.35904 0.49289 0.0
H3245 H 0.18783 0.36092 0.21865 0.0
H3246 H 0.33161 0.23261 0.7002 0.0
H3247 H 0.35669 0.20643 0.67609 0.0
H3248 H 0.28517 0.14095 0.64733 0.0
H3249 H 0.26061 0.16624 0.67477 0.0
H3250 H 0.31358 0.11994 0.65681 0.0
H3251 H 0.33471 0.1858 0.6005 0.0
H3252 H 0.35068 0.22983 0.58943 0.0
H3253 H 0.42303 0.24892 0.63552 0.0
H3254 H 0.4079 0.20463 0.64594 0.0
H3255 H 0.3794 0.04858 0.56109 0.0
H3256 H 0.35271 0.07479 0.58081 0.0
H3257 H 0.42013 0.13446 0.6284 0.0
H3258 H 0.44717 0.10906 0.60779 0.0
H3259 H 0.39303 0.15716 0.607 0.0
H3260 H 0.37007 0.08663 0.65771 0.0
H3261 H 0.35352 0.04009 0.66141 0.0
H3262 H 0.28093 0.02831 0.61971 0.0
H3263 H 0.29716 0.07469 0.61548 0.0
C3264 C 0.32132 0.21268 0.68845 0.0
C3265 C 0.29414 0.20166 0.68894 0.0
C3266 C 0.33568 0.19768 0.67417 0.0
C3267 C 0.32316 0.17158 0.65871 0.0
C3268 C 0.29572 0.16088 0.65883 0.0
C3269 C 0.28148 0.17551 0.67422 0.0
C3270 C 0.33852 0.15494 0.64405 0.0
C3271 C 0.33059 0.12819 0.64543 0.0
C3272 C 0.36132 0.16518 0.62954 0.0
C3273 C 0.37006 0.19208 0.62426 0.0
C3274 C 0.35394 0.19948 0.60844 0.0
C3275 C 0.36287 0.22443 0.6022 0.0
C3276 C 0.38768 0.24229 0.6121 0.0
C3277 C 0.40377 0.23512 0.62797 0.0
C3278 C 0.39513 0.21003 0.63384 0.0
C3279 C 0.38873 0.06742 0.57546 0.0
C3280 C 0.41564 0.07645 0.58282 0.0
C3281 C 0.37326 0.08229 0.58709 0.0
C3282 C 0.38415 0.1065 0.60666 0.0
C3283 C 0.41105 0.11579 0.61359 0.0
C3284 C 0.42654 0.10103 0.6019 0.0
C3285 C 0.36786 0.12248 0.61968 0.0
C3286 C 0.37576 0.14906 0.61813 0.0
C3287 C 0.34469 0.11188 0.63334 0.0
C3288 C 0.33494 0.08405 0.63604 0.0
C3289 C 0.35065 0.07406 0.64917 0.0
C3290 C 0.34131 0.04772 0.65139 0.0
C3291 C 0.31622 0.03124 0.64073 0.0
C3292 C 0.30038 0.04108 0.62792 0.0
C3293 C 0.30963 0.06739 0.62563 0.0
H3294 H 0.30904 0.01085 0.64246 0.0
H3295 H 0.3945 0.26162 0.60731 0.0
H3296 H 0.82815 0.30758 0.73532 0.0
H3297 H 0.85839 0.33719 0.70904 0.0
H3298 H 0.80929 0.2961 0.63326 0.0
H3299 H 0.77955 0.26579 0.65955 0.0
H3300 H 0.85998 0.30776 0.62193 0.0
H3301 H 0.80872 0.36034 0.67066 0.0
H3302 H 0.79069 0.38142 0.71199 0.0
H3303 H 0.86658 0.41708 0.75416 0.0
H3304 H 0.88534 0.39721 0.71248 0.0
H3305 H 0.90441 0.40943 0.5444 0.0
H3306 H 0.87994 0.37477 0.56864 0.0
H3307 H 0.92898 0.41724 0.6441 0.0
H3308 H 0.95304 0.45199 0.62034 0.0
H3309 H 0.88015 0.40405 0.65577 0.0
H3310 H 0.93328 0.36005 0.60564 0.0
H3311 H 0.95406 0.34215 0.56468 0.0
H3312 H 0.87904 0.28986 0.52728 0.0
H3313 H 0.85774 0.30776 0.56785 0.0
C3314 C 0.824 0.30492 0.71302 0.0
C3315 C 0.80176 0.28464 0.69926 0.0
C3316 C 0.84113 0.32186 0.69805 0.0
C3317 C 0.83591 0.31916 0.66923 0.0
C3318 C 0.81372 0.29856 0.65544 0.0
C3319 C 0.79675 0.28137 0.67039 0.0
C3320 C 0.85327 0.33821 0.65371 0.0
C3321 C 0.86416 0.3288 0.62907 0.0
C3322 C 0.85957 0.36571 0.66353 0.0
C3323 C 0.84831 0.37709 0.68872 0.0
C3324 C 0.8215 0.37255 0.68884 0.0
C3325 C 0.81116 0.3843 0.71229 0.0
C3326 C 0.82732 0.40015 0.73591 0.0
C3327 C 0.85403 0.40468 0.73593 0.0
C3328 C 0.86457 0.39339 0.71232 0.0
C3329 C 0.90993 0.41132 0.56616 0.0
C3330 C 0.93037 0.4336 0.58061 0.0
C3331 C 0.89613 0.3914 0.57988 0.0
C3332 C 0.90273 0.39336 0.60815 0.0
C3333 C 0.92349 0.41535 0.62233 0.0
C3334 C 0.93715 0.43526 0.60873 0.0
C3335 C 0.88679 0.37373 0.62378 0.0
C3336 C 0.87613 0.38303 0.64851 0.0
C3337 C 0.88121 0.34627 0.61419 0.0
C3338 C 0.89388 0.33548 0.58966 0.0
C3339 C 0.92118 0.34493 0.58856 0.0
C3340 C 0.93306 0.33474 0.56544 0.0
C3341 C 0.91787 0.31494 0.54335 0.0
C3342 C 0.89077 0.30524 0.54438 0.0
C3343 C 0.87878 0.31539 0.56745 0.0
H3344 H 0.92711 0.30706 0.52547 0.0
H3345 H 0.81918 0.4091 0.75408 0.0
H3346 H 0.20517 0.65833 0.69229 0.0
H3347 H 0.17114 0.6332 0.65491 0.0
H3348 H 0.18314 0.70366 0.62451 0.0
H3349 H 0.21731 0.72875 0.66126 0.0
H3350 H 0.12514 0.63969 0.64215 0.0
H3351 H 0.18095 0.68869 0.55736 0.0
H3352 H 0.22681 0.71059 0.54733 0.0
H3353 H 0.25001 0.65922 0.58648 0.0
H3354 H 0.20439 0.63724 0.59699 0.0
H3355 H 0.03313 0.58182 0.53744 0.0
H3356 H 0.07076 0.6214 0.55581 0.0
H3357 H 0.12134 0.57605 0.53606 0.0
H3358 H 0.08373 0.53656 0.51679 0.0
H3359 H 0.14813 0.63142 0.54204 0.0
H3360 H 0.09004 0.56878 0.59267 0.0
H3361 H 0.04684 0.5431 0.60629 0.0
H3362 H 0.03134 0.61449 0.63862 0.0
H3363 H 0.07455 0.64063 0.62503 0.0
C3364 C 0.20055 0.6684 0.6776 0.0
C3365 C 0.21396 0.69539 0.67953 0.0
C3366 C 0.18107 0.65412 0.65644 0.0
C3367 C 0.17495 0.66665 0.63695 0.0
C3368 C 0.18789 0.69368 0.63923 0.0
C3369 C 0.20731 0.70795 0.66031 0.0
C3370 C 0.15548 0.65125 0.6137 0.0
C3371 C 0.13005 0.63812 0.62027 0.0
C3372 C 0.16215 0.64904 0.58529 0.0
C3373 C 0.18933 0.66134 0.57785 0.0
C3374 C 0.19584 0.68197 0.56361 0.0
C3375 C 0.2218 0.69449 0.55802 0.0
C3376 C 0.24131 0.68634 0.56634 0.0
C3377 C 0.23491 0.6656 0.5802 0.0
C3378 C 0.20904 0.65315 0.58601 0.0
C3379 C 0.05247 0.5807 0.53569 0.0
C3380 C 0.05577 0.55631 0.5265 0.0
C3381 C 0.07392 0.6033 0.54599 0.0
C3382 C 0.09858 0.60132 0.54806 0.0
C3383 C 0.10238 0.57784 0.53478 0.0
C3384 C 0.08091 0.55528 0.52394 0.0
C3385 C 0.11763 0.62 0.57049 0.0
C3386 C 0.14302 0.63362 0.56386 0.0
C3387 C 0.11115 0.62215 0.59906 0.0
C3388 C 0.08533 0.60659 0.60754 0.0
C3389 C 0.07735 0.57897 0.60254 0.0
C3390 C 0.05287 0.56433 0.61026 0.0
C3391 C 0.03626 0.57711 0.62314 0.0
C3392 C 0.04419 0.6046 0.62853 0.0
C3393 C 0.06868 0.61935 0.62087 0.0
H3394 H 0.01729 0.56572 0.62905 0.0
H3395 H 0.26139 0.69607 0.56203 0.0
loop_
_geom_bond_atom_site_label_1
_geom_bond_atom_site_label_2
_geom_bond_distance
_geom_bond_site_symmetry_2
_ccdc_geom_bond_type
Eu0 N29 2.600 . S
Eu0 N35 2.562 . S
Eu0 O44 2.462 . S
Eu0 O45 2.373 . S
Eu0 O47 2.432 . S
Eu0 O48 2.291 . S
Eu0 O52 2.335 . S
Eu0 O55 2.372 . S
Eu0 C64 2.787 . S
C1 N2 1.365 . S
C1 C4 1.405 . S
C1 C8 1.448 . S
N2 C1 1.365 . S
N2 C5 1.319 . S
N2 Eu11 2.600 . S
C3 C5 1.397 . S
C3 C6 1.367 . S
C3 H23 0.931 . S
C4 C1 1.405 . S
C4 C6 1.403 . S
C4 C10 1.439 . S
C5 N2 1.319 . S
C5 C3 1.397 . S
C5 H16 0.930 . S
C6 C3 1.367 . S
C6 C4 1.403 . S
C6 H27 0.929 . S
C7 C8 1.430 . S
C7 C9 1.387 . S
C7 C13 1.404 . S
C8 C1 1.448 . S
C8 C7 1.430 . S
C8 N12 1.351 . S
C9 C7 1.387 . S
C9 C10 1.374 . S
C9 H24 0.931 . S
C10 C4 1.439 . S
C10 C9 1.374 . S
C10 H25 0.931 . S
Eu11 N2 2.600 . S
Eu11 N12 2.562 . S
Eu11 O46 2.335 . S
Eu11 O49 2.372 . S
Eu11 O50 2.462 . S
Eu11 O51 2.373 . S
Eu11 O53 2.432 . S
Eu11 O54 2.291 . S
Eu11 C75 2.787 . S
N12 C8 1.351 . S
N12 Eu11 2.562 . S
N12 C14 1.325 . S
C13 C7 1.404 . S
C13 C15 1.366 . S
C13 H21 0.930 . S
C14 N12 1.325 . S
C14 C15 1.416 . S
C14 H20 0.929 . S
C15 C13 1.366 . S
C15 C14 1.416 . S
C15 H17 0.930 . S
H16 C5 0.930 . S
H17 C15 0.930 . S
H18 C33 0.930 . S
H19 C40 0.930 . S
H20 C14 0.929 . S
H21 C13 0.930 . S
H22 C36 0.929 . S
H23 C3 0.931 . S
H24 C9 0.931 . S
H25 C10 0.931 . S
H26 C31 0.931 . S
H27 C6 0.929 . S
H28 C39 0.930 . S
N29 Eu0 2.600 . S
N29 C30 1.365 . S
N29 C33 1.319 . S
C30 N29 1.365 . S
C30 C32 1.405 . S
C30 C38 1.448 . S
C31 H26 0.931 . S
C31 C33 1.397 . S
C31 C34 1.367 . S
C32 C30 1.405 . S
C32 C34 1.403 . S
C32 C65 1.439 . S
C33 H18 0.930 . S
C33 N29 1.319 . S
C33 C31 1.397 . S
C34 C31 1.367 . S
C34 C32 1.403 . S
C34 H41 0.929 . S
N35 Eu0 2.562 . S
N35 C36 1.325 . S
N35 C38 1.351 . S
C36 H22 0.929 . S
C36 N35 1.325 . S
C36 C40 1.416 . S
C37 C38 1.430 . S
C37 C39 1.404 . S
C37 C66 1.387 . S
C38 C30 1.448 . S
C38 N35 1.351 . S
C38 C37 1.430 . S
C39 H28 0.930 . S
C39 C37 1.404 . S
C39 C40 1.366 . S
C40 H19 0.930 . S
C40 C36 1.416 . S
C40 C39 1.366 . S
H41 C34 0.929 . S
H42 C65 0.931 . S
H43 C66 0.931 . S
O44 Eu0 2.462 . S
O44 C64 1.252 . S
O45 Eu0 2.373 . S
O45 C56 1.249 . S
O46 Eu11 2.335 . S
O46 C56 1.264 . S
O47 Eu0 2.432 . S
O47 C64 1.268 . S
O48 Eu0 2.291 . S
O48 C63 1.255 . S
O49 Eu11 2.372 . S
O49 C63 1.257 . S
O50 Eu11 2.462 . S
O50 C75 1.252 . S
O51 Eu11 2.373 . S
O51 C67 1.249 . S
O52 Eu0 2.335 . S
O52 C67 1.264 . S
O53 Eu11 2.432 . S
O53 C75 1.268 . S
O54 Eu11 2.291 . S
O54 C74 1.255 . S
O55 Eu0 2.372 . S
O55 C74 1.257 . S
C56 O45 1.249 . S
C56 O46 1.264 . S
C57 C60 1.382 . S
C57 C62 1.390 . S
C57 C64 1.506 . S
C58 C59 1.398 . S
C58 C62 1.392 . S
C59 C58 1.398 . S
C59 C61 1.372 . S
C59 H76 0.931 . S
C60 C57 1.382 . S
C60 C61 1.390 . S
C60 H77 0.931 . S
C61 C59 1.372 . S
C61 C60 1.390 . S
C61 H78 0.929 . S
C62 C57 1.390 . S
C62 C58 1.392 . S
C62 H79 0.930 . S
C63 O48 1.255 . S
C63 O49 1.257 . S
C64 Eu0 2.787 . S
C64 O44 1.252 . S
C64 O47 1.268 . S
C64 C57 1.506 . S
C65 C32 1.439 . S
C65 H42 0.931 . S
C65 C66 1.374 . S
C66 C37 1.387 . S
C66 H43 0.931 . S
C66 C65 1.374 . S
C67 O51 1.249 . S
C67 O52 1.264 . S
C68 C71 1.382 . S
C68 C72 1.390 . S
C68 C75 1.506 . S
C69 C70 1.398 . S
C69 C72 1.392 . S
C70 C69 1.398 . S
C70 C73 1.372 . S
C70 H80 0.931 . S
C71 C68 1.382 . S
C71 C73 1.390 . S
C71 H81 0.931 . S
C72 C68 1.390 . S
C72 C69 1.392 . S
C72 H82 0.930 . S
C73 C70 1.372 . S
C73 C71 1.390 . S
C73 H83 0.929 . S
C74 O54 1.255 . S
C74 O55 1.257 . S
C75 Eu11 2.787 . S
C75 O50 1.252 . S
C75 O53 1.268 . S
C75 C68 1.506 . S
H76 C59 0.931 . S
H77 C60 0.931 . S
H78 C61 0.929 . S
H79 C62 0.930 . S
H80 C70 0.931 . S
H81 C71 0.931 . S
H82 C72 0.930 . S
H83 C73 0.929 . S
Eu84 N113 2.600 . S
Eu84 N119 2.562 . S
Eu84 O128 2.462 . S
Eu84 O129 2.373 . S
Eu84 O131 2.432 . S
Eu84 O132 2.291 . S
Eu84 O136 2.335 . S
Eu84 O139 2.372 . S
Eu84 C148 2.787 . S
C85 N86 1.365 . S
C85 C88 1.405 . S
C85 C92 1.448 . S
N86 C85 1.365 . S
N86 C89 1.319 . S
N86 Eu95 2.600 . S
C87 C89 1.397 . S
C87 C90 1.367 . S
C87 H107 0.931 . S
C88 C85 1.405 . S
C88 C90 1.403 . S
C88 C94 1.439 . S
C89 N86 1.319 . S
C89 C87 1.397 . S
C89 H100 0.930 . S
C90 C87 1.367 . S
C90 C88 1.403 . S
C90 H111 0.929 . S
C91 C92 1.430 . S
C91 C93 1.387 . S
C91 C97 1.404 . S
C92 C85 1.448 . S
C92 C91 1.430 . S
C92 N96 1.351 . S
C93 C91 1.387 . S
C93 C94 1.374 . S
C93 H108 0.931 . S
C94 C88 1.439 . S
C94 C93 1.374 . S
C94 H109 0.931 . S
Eu95 N86 2.600 . S
Eu95 N96 2.562 . S
Eu95 O130 2.335 . S
Eu95 O133 2.372 . S
Eu95 O134 2.462 . S
Eu95 O135 2.373 . S
Eu95 O137 2.432 . S
Eu95 O138 2.291 . S
Eu95 C159 2.787 . S
N96 C92 1.351 . S
N96 Eu95 2.562 . S
N96 C98 1.325 . S
C97 C91 1.404 . S
C97 C99 1.366 . S
C97 H105 0.930 . S
C98 N96 1.325 . S
C98 C99 1.416 . S
C98 H104 0.929 . S
C99 C97 1.366 . S
C99 C98 1.416 . S
C99 H101 0.930 . S
H100 C89 0.930 . S
H101 C99 0.930 . S
H102 C117 0.930 . S
H103 C124 0.930 . S
H104 C98 0.929 . S
H105 C97 0.930 . S
H106 C120 0.929 . S
H107 C87 0.931 . S
H108 C93 0.931 . S
H109 C94 0.931 . S
H110 C115 0.931 . S
H111 C90 0.929 . S
H112 C123 0.930 . S
N113 Eu84 2.600 . S
N113 C114 1.365 . S
N113 C117 1.319 . S
C114 N113 1.365 . S
C114 C116 1.405 . S
C114 C122 1.448 . S
C115 H110 0.931 . S
C115 C117 1.397 . S
C115 C118 1.367 . S
C116 C114 1.405 . S
C116 C118 1.403 . S
C116 C149 1.439 . S
C117 H102 0.930 . S
C117 N113 1.319 . S
C117 C115 1.397 . S
C118 C115 1.367 . S
C118 C116 1.403 . S
C118 H125 0.929 . S
N119 Eu84 2.562 . S
N119 C120 1.325 . S
N119 C122 1.351 . S
C120 H106 0.929 . S
C120 N119 1.325 . S
C120 C124 1.416 . S
C121 C122 1.430 . S
C121 C123 1.404 . S
C121 C150 1.387 . S
C122 C114 1.448 . S
C122 N119 1.351 . S
C122 C121 1.430 . S
C123 H112 0.930 . S
C123 C121 1.404 . S
C123 C124 1.366 . S
C124 H103 0.930 . S
C124 C120 1.416 . S
C124 C123 1.366 . S
H125 C118 0.929 . S
H126 C149 0.931 . S
H127 C150 0.931 . S
O128 Eu84 2.462 . S
O128 C148 1.252 . S
O129 Eu84 2.373 . S
O129 C140 1.249 . S
O130 Eu95 2.335 . S
O130 C140 1.264 . S
O131 Eu84 2.432 . S
O131 C148 1.268 . S
O132 Eu84 2.291 . S
O132 C147 1.255 . S
O133 Eu95 2.372 . S
O133 C147 1.257 . S
O134 Eu95 2.462 . S
O134 C159 1.252 . S
O135 Eu95 2.373 . S
O135 C151 1.249 . S
O136 Eu84 2.335 . S
O136 C151 1.264 . S
O137 Eu95 2.432 . S
O137 C159 1.268 . S
O138 Eu95 2.291 . S
O138 C158 1.255 . S
O139 Eu84 2.372 . S
O139 C158 1.257 . S
C140 O129 1.249 . S
C140 O130 1.264 . S
C141 C144 1.382 . S
C141 C146 1.390 . S
C141 C148 1.506 . S
C142 C143 1.398 . S
C142 C146 1.392 . S
C143 C142 1.398 . S
C143 C145 1.372 . S
C143 H160 0.931 . S
C144 C141 1.382 . S
C144 C145 1.390 . S
C144 H161 0.931 . S
C145 C143 1.372 . S
C145 C144 1.390 . S
C145 H162 0.929 . S
C146 C141 1.390 . S
C146 C142 1.392 . S
C146 H163 0.930 . S
C147 O132 1.255 . S
C147 O133 1.257 . S
C148 Eu84 2.787 . S
C148 O128 1.252 . S
C148 O131 1.268 . S
C148 C141 1.506 . S
C149 C116 1.439 . S
C149 H126 0.931 . S
C149 C150 1.374 . S
C150 C121 1.387 . S
C150 H127 0.931 . S
C150 C149 1.374 . S
C151 O135 1.249 . S
C151 O136 1.264 . S
C152 C155 1.382 . S
C152 C156 1.390 . S
C152 C159 1.506 . S
C153 C154 1.398 . S
C153 C156 1.392 . S
C154 C153 1.398 . S
C154 C157 1.372 . S
C154 H164 0.931 . S
C155 C152 1.382 . S
C155 C157 1.390 . S
C155 H165 0.931 . S
C156 C152 1.390 . S
C156 C153 1.392 . S
C156 H166 0.930 . S
C157 C154 1.372 . S
C157 C155 1.390 . S
C157 H167 0.929 . S
C158 O138 1.255 . S
C158 O139 1.257 . S
C159 Eu95 2.787 . S
C159 O134 1.252 . S
C159 O137 1.268 . S
C159 C152 1.506 . S
H160 C143 0.931 . S
H161 C144 0.931 . S
H162 C145 0.929 . S
H163 C146 0.930 . S
H164 C154 0.931 . S
H165 C155 0.931 . S
H166 C156 0.930 . S
H167 C157 0.929 . S
Eu168 N197 2.600 . S
Eu168 N203 2.562 . S
Eu168 O212 2.462 . S
Eu168 O213 2.373 . S
Eu168 O215 2.432 . S
Eu168 O216 2.291 . S
Eu168 O220 2.335 . S
Eu168 O223 2.372 . S
Eu168 C232 2.787 . S
C169 N170 1.365 . S
C169 C172 1.405 . S
C169 C176 1.448 . S
N170 C169 1.365 . S
N170 C173 1.319 . S
N170 Eu179 2.600 . S
C171 C173 1.397 . S
C171 C174 1.367 . S
C171 H191 0.931 . S
C172 C169 1.405 . S
C172 C174 1.403 . S
C172 C178 1.439 . S
C173 N170 1.319 . S
C173 C171 1.397 . S
C173 H184 0.930 . S
C174 C171 1.367 . S
C174 C172 1.403 . S
C174 H195 0.929 . S
C175 C176 1.430 . S
C175 C177 1.387 . S
C175 C181 1.404 . S
C176 C169 1.448 . S
C176 C175 1.430 . S
C176 N180 1.351 . S
C177 C175 1.387 . S
C177 C178 1.374 . S
C177 H192 0.931 . S
C178 C172 1.439 . S
C178 C177 1.374 . S
C178 H193 0.931 . S
Eu179 N170 2.600 . S
Eu179 N180 2.562 . S
Eu179 O214 2.335 . S
Eu179 O217 2.372 . S
Eu179 O218 2.462 . S
Eu179 O219 2.373 . S
Eu179 O221 2.432 . S
Eu179 O222 2.291 . S
Eu179 C243 2.787 . S
N180 C176 1.351 . S
N180 Eu179 2.562 . S
N180 C182 1.325 . S
C181 C175 1.404 . S
C181 C183 1.366 . S
C181 H189 0.930 . S
C182 N180 1.325 . S
C182 C183 1.416 . S
C182 H188 0.929 . S
C183 C181 1.366 . S
C183 C182 1.416 . S
C183 H185 0.930 . S
H184 C173 0.930 . S
H185 C183 0.930 . S
H186 C201 0.930 . S
H187 C208 0.930 . S
H188 C182 0.929 . S
H189 C181 0.930 . S
H190 C204 0.929 . S
H191 C171 0.931 . S
H192 C177 0.931 . S
H193 C178 0.931 . S
H194 C199 0.931 . S
H195 C174 0.929 . S
H196 C207 0.930 . S
N197 Eu168 2.600 . S
N197 C198 1.365 . S
N197 C201 1.319 . S
C198 N197 1.365 . S
C198 C200 1.405 . S
C198 C206 1.448 . S
C199 H194 0.931 . S
C199 C201 1.397 . S
C199 C202 1.367 . S
C200 C198 1.405 . S
C200 C202 1.403 . S
C200 C233 1.439 . S
C201 H186 0.930 . S
C201 N197 1.319 . S
C201 C199 1.397 . S
C202 C199 1.367 . S
C202 C200 1.403 . S
C202 H209 0.929 . S
N203 Eu168 2.562 . S
N203 C204 1.325 . S
N203 C206 1.351 . S
C204 H190 0.929 . S
C204 N203 1.325 . S
C204 C208 1.416 . S
C205 C206 1.430 . S
C205 C207 1.404 . S
C205 C234 1.387 . S
C206 C198 1.448 . S
C206 N203 1.351 . S
C206 C205 1.430 . S
C207 H196 0.930 . S
C207 C205 1.404 . S
C207 C208 1.366 . S
C208 H187 0.930 . S
C208 C204 1.416 . S
C208 C207 1.366 . S
H209 C202 0.929 . S
H210 C233 0.931 . S
H211 C234 0.931 . S
O212 Eu168 2.462 . S
O212 C232 1.252 . S
O213 Eu168 2.373 . S
O213 C224 1.249 . S
O214 Eu179 2.335 . S
O214 C224 1.264 . S
O215 Eu168 2.432 . S
O215 C232 1.268 . S
O216 Eu168 2.291 . S
O216 C231 1.255 . S
O217 Eu179 2.372 . S
O217 C231 1.257 . S
O218 Eu179 2.462 . S
O218 C243 1.252 . S
O219 Eu179 2.373 . S
O219 C235 1.249 . S
O220 Eu168 2.335 . S
O220 C235 1.264 . S
O221 Eu179 2.432 . S
O221 C243 1.268 . S
O222 Eu179 2.291 . S
O222 C242 1.255 . S
O223 Eu168 2.372 . S
O223 C242 1.257 . S
C224 O213 1.249 . S
C224 O214 1.264 . S
C225 C228 1.382 . S
C225 C230 1.390 . S
C225 C232 1.506 . S
C226 C227 1.398 . S
C226 C230 1.392 . S
C227 C226 1.398 . S
C227 C229 1.372 . S
C227 H244 0.931 . S
C228 C225 1.382 . S
C228 C229 1.390 . S
C228 H245 0.931 . S
C229 C227 1.372 . S
C229 C228 1.390 . S
C229 H246 0.929 . S
C230 C225 1.390 . S
C230 C226 1.392 . S
C230 H247 0.930 . S
C231 O216 1.255 . S
C231 O217 1.257 . S
C232 Eu168 2.787 . S
C232 O212 1.252 . S
C232 O215 1.268 . S
C232 C225 1.506 . S
C233 C200 1.439 . S
C233 H210 0.931 . S
C233 C234 1.374 . S
C234 C205 1.387 . S
C234 H211 0.931 . S
C234 C233 1.374 . S
C235 O219 1.249 . S
C235 O220 1.264 . S
C236 C239 1.382 . S
C236 C240 1.390 . S
C236 C243 1.506 . S
C237 C238 1.398 . S
C237 C240 1.392 . S
C238 C237 1.398 . S
C238 C241 1.372 . S
C238 H248 0.931 . S
C239 C236 1.382 . S
C239 C241 1.390 . S
C239 H249 0.931 . S
C240 C236 1.390 . S
C240 C237 1.392 . S
C240 H250 0.930 . S
C241 C238 1.372 . S
C241 C239 1.390 . S
C241 H251 0.929 . S
C242 O222 1.255 . S
C242 O223 1.257 . S
C243 Eu179 2.787 . S
C243 O218 1.252 . S
C243 O221 1.268 . S
C243 C236 1.506 . S
H244 C227 0.931 . S
H245 C228 0.931 . S
H246 C229 0.929 . S
H247 C230 0.930 . S
H248 C238 0.931 . S
H249 C239 0.931 . S
H250 C240 0.930 . S
H251 C241 0.929 . S
Eu252 N281 2.600 . S
Eu252 N287 2.562 . S
Eu252 O296 2.462 . S
Eu252 O297 2.373 . S
Eu252 O299 2.432 . S
Eu252 O300 2.291 . S
Eu252 O304 2.335 . S
Eu252 O307 2.372 . S
Eu252 C316 2.787 . S
C253 N254 1.365 . S
C253 C256 1.405 . S
C253 C260 1.448 . S
N254 C253 1.365 . S
N254 C257 1.319 . S
N254 Eu263 2.600 . S
C255 C257 1.397 . S
C255 C258 1.367 . S
C255 H275 0.931 . S
C256 C253 1.405 . S
C256 C258 1.403 . S
C256 C262 1.439 . S
C257 N254 1.319 . S
C257 C255 1.397 . S
C257 H268 0.930 . S
C258 C255 1.367 . S
C258 C256 1.403 . S
C258 H279 0.929 . S
C259 C260 1.430 . S
C259 C261 1.387 . S
C259 C265 1.404 . S
C260 C253 1.448 . S
C260 C259 1.430 . S
C260 N264 1.351 . S
C261 C259 1.387 . S
C261 C262 1.374 . S
C261 H276 0.931 . S
C262 C256 1.439 . S
C262 C261 1.374 . S
C262 H277 0.931 . S
Eu263 N254 2.600 . S
Eu263 N264 2.562 . S
Eu263 O298 2.335 . S
Eu263 O301 2.372 . S
Eu263 O302 2.462 . S
Eu263 O303 2.373 . S
Eu263 O305 2.432 . S
Eu263 O306 2.291 . S
Eu263 C327 2.787 . S
N264 C260 1.351 . S
N264 Eu263 2.562 . S
N264 C266 1.325 . S
C265 C259 1.404 . S
C265 C267 1.366 . S
C265 H273 0.930 . S
C266 N264 1.325 . S
C266 C267 1.416 . S
C266 H272 0.929 . S
C267 C265 1.366 . S
C267 C266 1.416 . S
C267 H269 0.930 . S
H268 C257 0.930 . S
H269 C267 0.930 . S
H270 C285 0.930 . S
H271 C292 0.930 . S
H272 C266 0.929 . S
H273 C265 0.930 . S
H274 C288 0.929 . S
H275 C255 0.931 . S
H276 C261 0.931 . S
H277 C262 0.931 . S
H278 C283 0.931 . S
H279 C258 0.929 . S
H280 C291 0.930 . S
N281 Eu252 2.600 . S
N281 C282 1.365 . S
N281 C285 1.319 . S
C282 N281 1.365 . S
C282 C284 1.405 . S
C282 C290 1.448 . S
C283 H278 0.931 . S
C283 C285 1.397 . S
C283 C286 1.367 . S
C284 C282 1.405 . S
C284 C286 1.403 . S
C284 C317 1.439 . S
C285 H270 0.930 . S
C285 N281 1.319 . S
C285 C283 1.397 . S
C286 C283 1.367 . S
C286 C284 1.403 . S
C286 H293 0.929 . S
N287 Eu252 2.562 . S
N287 C288 1.325 . S
N287 C290 1.351 . S
C288 H274 0.929 . S
C288 N287 1.325 . S
C288 C292 1.416 . S
C289 C290 1.430 . S
C289 C291 1.404 . S
C289 C318 1.387 . S
C290 C282 1.448 . S
C290 N287 1.351 . S
C290 C289 1.430 . S
C291 H280 0.930 . S
C291 C289 1.404 . S
C291 C292 1.366 . S
C292 H271 0.930 . S
C292 C288 1.416 . S
C292 C291 1.366 . S
H293 C286 0.929 . S
H294 C317 0.931 . S
H295 C318 0.931 . S
O296 Eu252 2.462 . S
O296 C316 1.252 . S
O297 Eu252 2.373 . S
O297 C308 1.249 . S
O298 Eu263 2.335 . S
O298 C308 1.264 . S
O299 Eu252 2.432 . S
O299 C316 1.268 . S
O300 Eu252 2.291 . S
O300 C315 1.255 . S
O301 Eu263 2.372 . S
O301 C315 1.257 . S
O302 Eu263 2.462 . S
O302 C327 1.252 . S
O303 Eu263 2.373 . S
O303 C319 1.249 . S
O304 Eu252 2.335 . S
O304 C319 1.264 . S
O305 Eu263 2.432 . S
O305 C327 1.268 . S
O306 Eu263 2.291 . S
O306 C326 1.255 . S
O307 Eu252 2.372 . S
O307 C326 1.257 . S
C308 O297 1.249 . S
C308 O298 1.264 . S
C309 C312 1.382 . S
C309 C314 1.390 . S
C309 C316 1.506 . S
C310 C311 1.398 . S
C310 C314 1.392 . S
C311 C310 1.398 . S
C311 C313 1.372 . S
C311 H328 0.931 . S
C312 C309 1.382 . S
C312 C313 1.390 . S
C312 H329 0.931 . S
C313 C311 1.372 . S
C313 C312 1.390 . S
C313 H330 0.929 . S
C314 C309 1.390 . S
C314 C310 1.392 . S
C314 H331 0.930 . S
C315 O300 1.255 . S
C315 O301 1.257 . S
C316 Eu252 2.787 . S
C316 O296 1.252 . S
C316 O299 1.268 . S
C316 C309 1.506 . S
C317 C284 1.439 . S
C317 H294 0.931 . S
C317 C318 1.374 . S
C318 C289 1.387 . S
C318 H295 0.931 . S
C318 C317 1.374 . S
C319 O303 1.249 . S
C319 O304 1.264 . S
C320 C323 1.382 . S
C320 C324 1.390 . S
C320 C327 1.506 . S
C321 C322 1.398 . S
C321 C324 1.392 . S
C322 C321 1.398 . S
C322 C325 1.372 . S
C322 H332 0.931 . S
C323 C320 1.382 . S
C323 C325 1.390 . S
C323 H333 0.931 . S
C324 C320 1.390 . S
C324 C321 1.392 . S
C324 H334 0.930 . S
C325 C322 1.372 . S
C325 C323 1.390 . S
C325 H335 0.929 . S
C326 O306 1.255 . S
C326 O307 1.257 . S
C327 Eu263 2.787 . S
C327 O302 1.252 . S
C327 O305 1.268 . S
C327 C320 1.506 . S
H328 C311 0.931 . S
H329 C312 0.931 . S
H330 C313 0.929 . S
H331 C314 0.930 . S
H332 C322 0.931 . S
H333 C323 0.931 . S
H334 C324 0.930 . S
H335 C325 0.929 . S
Eu336 N365 2.600 . S
Eu336 N371 2.562 . S
Eu336 O380 2.462 . S
Eu336 O381 2.373 . S
Eu336 O383 2.432 . S
Eu336 O384 2.291 . S
Eu336 O388 2.335 . S
Eu336 O391 2.372 . S
Eu336 C400 2.787 . S
C337 N338 1.365 . S
C337 C340 1.405 . S
C337 C344 1.448 . S
N338 C337 1.365 . S
N338 C341 1.319 . S
N338 Eu347 2.600 . S
C339 C341 1.397 . S
C339 C342 1.367 . S
C339 H359 0.931 . S
C340 C337 1.405 . S
C340 C342 1.403 . S
C340 C346 1.439 . S
C341 N338 1.319 . S
C341 C339 1.397 . S
C341 H352 0.930 . S
C342 C339 1.367 . S
C342 C340 1.403 . S
C342 H363 0.929 . S
C343 C344 1.430 . S
C343 C345 1.387 . S
C343 C349 1.404 . S
C344 C337 1.448 . S
C344 C343 1.430 . S
C344 N348 1.351 . S
C345 C343 1.387 . S
C345 C346 1.374 . S
C345 H360 0.931 . S
C346 C340 1.439 . S
C346 C345 1.374 . S
C346 H361 0.931 . S
Eu347 N338 2.600 . S
Eu347 N348 2.562 . S
Eu347 O382 2.335 . S
Eu347 O385 2.372 . S
Eu347 O386 2.462 . S
Eu347 O387 2.373 . S
Eu347 O389 2.432 . S
Eu347 O390 2.291 . S
Eu347 C411 2.787 . S
N348 C344 1.351 . S
N348 Eu347 2.562 . S
N348 C350 1.325 . S
C349 C343 1.404 . S
C349 C351 1.366 . S
C349 H357 0.930 . S
C350 N348 1.325 . S
C350 C351 1.416 . S
C350 H356 0.929 . S
C351 C349 1.366 . S
C351 C350 1.416 . S
C351 H353 0.930 . S
H352 C341 0.930 . S
H353 C351 0.930 . S
H354 C369 0.930 . S
H355 C376 0.930 . S
H356 C350 0.929 . S
H357 C349 0.930 . S
H358 C372 0.929 . S
H359 C339 0.931 . S
H360 C345 0.931 . S
H361 C346 0.931 . S
H362 C367 0.931 . S
H363 C342 0.929 . S
H364 C375 0.930 . S
N365 Eu336 2.600 . S
N365 C366 1.365 . S
N365 C369 1.319 . S
C366 N365 1.365 . S
C366 C368 1.405 . S
C366 C374 1.448 . S
C367 H362 0.931 . S
C367 C369 1.397 . S
C367 C370 1.367 . S
C368 C366 1.405 . S
C368 C370 1.403 . S
C368 C401 1.439 . S
C369 H354 0.930 . S
C369 N365 1.319 . S
C369 C367 1.397 . S
C370 C367 1.367 . S
C370 C368 1.403 . S
C370 H377 0.929 . S
N371 Eu336 2.562 . S
N371 C372 1.325 . S
N371 C374 1.351 . S
C372 H358 0.929 . S
C372 N371 1.325 . S
C372 C376 1.416 . S
C373 C374 1.430 . S
C373 C375 1.404 . S
C373 C402 1.387 . S
C374 C366 1.448 . S
C374 N371 1.351 . S
C374 C373 1.430 . S
C375 H364 0.930 . S
C375 C373 1.404 . S
C375 C376 1.366 . S
C376 H355 0.930 . S
C376 C372 1.416 . S
C376 C375 1.366 . S
H377 C370 0.929 . S
H378 C401 0.931 . S
H379 C402 0.931 . S
O380 Eu336 2.462 . S
O380 C400 1.252 . S
O381 Eu336 2.373 . S
O381 C392 1.249 . S
O382 Eu347 2.335 . S
O382 C392 1.264 . S
O383 Eu336 2.432 . S
O383 C400 1.268 . S
O384 Eu336 2.291 . S
O384 C399 1.255 . S
O385 Eu347 2.372 . S
O385 C399 1.257 . S
O386 Eu347 2.462 . S
O386 C411 1.252 . S
O387 Eu347 2.373 . S
O387 C403 1.249 . S
O388 Eu336 2.335 . S
O388 C403 1.264 . S
O389 Eu347 2.432 . S
O389 C411 1.268 . S
O390 Eu347 2.291 . S
O390 C410 1.255 . S
O391 Eu336 2.372 . S
O391 C410 1.257 . S
C392 O381 1.249 . S
C392 O382 1.264 . S
C393 C396 1.382 . S
C393 C398 1.390 . S
C393 C400 1.506 . S
C394 C395 1.398 . S
C394 C398 1.392 . S
C395 C394 1.398 . S
C395 C397 1.372 . S
C395 H412 0.931 . S
C396 C393 1.382 . S
C396 C397 1.390 . S
C396 H413 0.931 . S
C397 C395 1.372 . S
C397 C396 1.390 . S
C397 H414 0.929 . S
C398 C393 1.390 . S
C398 C394 1.392 . S
C398 H415 0.930 . S
C399 O384 1.255 . S
C399 O385 1.257 . S
C400 Eu336 2.787 . S
C400 O380 1.252 . S
C400 O383 1.268 . S
C400 C393 1.506 . S
C401 C368 1.439 . S
C401 H378 0.931 . S
C401 C402 1.374 . S
C402 C373 1.387 . S
C402 H379 0.931 . S
C402 C401 1.374 . S
C403 O387 1.249 . S
C403 O388 1.264 . S
C404 C407 1.382 . S
C404 C408 1.390 . S
C404 C411 1.506 . S
C405 C406 1.398 . S
C405 C408 1.392 . S
C406 C405 1.398 . S
C406 C409 1.372 . S
C406 H416 0.931 . S
C407 C404 1.382 . S
C407 C409 1.390 . S
C407 H417 0.931 . S
C408 C404 1.390 . S
C408 C405 1.392 . S
C408 H418 0.930 . S
C409 C406 1.372 . S
C409 C407 1.390 . S
C409 H419 0.929 . S
C410 O390 1.255 . S
C410 O391 1.257 . S
C411 Eu347 2.787 . S
C411 O386 1.252 . S
C411 O389 1.268 . S
C411 C404 1.506 . S
H412 C395 0.931 . S
H413 C396 0.931 . S
H414 C397 0.929 . S
H415 C398 0.930 . S
H416 C406 0.931 . S
H417 C407 0.931 . S
H418 C408 0.930 . S
H419 C409 0.929 . S
Eu420 N449 2.600 . S
Eu420 N455 2.562 . S
Eu420 O464 2.462 . S
Eu420 O465 2.373 . S
Eu420 O467 2.432 . S
Eu420 O468 2.291 . S
Eu420 O472 2.335 . S
Eu420 O475 2.372 . S
Eu420 C484 2.787 . S
C421 N422 1.365 . S
C421 C424 1.405 . S
C421 C428 1.448 . S
N422 C421 1.365 . S
N422 C425 1.319 . S
N422 Eu431 2.600 . S
C423 C425 1.397 . S
C423 C426 1.367 . S
C423 H443 0.931 . S
C424 C421 1.405 . S
C424 C426 1.403 . S
C424 C430 1.439 . S
C425 N422 1.319 . S
C425 C423 1.397 . S
C425 H436 0.930 . S
C426 C423 1.367 . S
C426 C424 1.403 . S
C426 H447 0.929 . S
C427 C428 1.430 . S
C427 C429 1.387 . S
C427 C433 1.404 . S
C428 C421 1.448 . S
C428 C427 1.430 . S
C428 N432 1.351 . S
C429 C427 1.387 . S
C429 C430 1.374 . S
C429 H444 0.931 . S
C430 C424 1.439 . S
C430 C429 1.374 . S
C430 H445 0.931 . S
Eu431 N422 2.600 . S
Eu431 N432 2.562 . S
Eu431 O466 2.335 . S
Eu431 O469 2.372 . S
Eu431 O470 2.462 . S
Eu431 O471 2.373 . S
Eu431 O473 2.432 . S
Eu431 O474 2.291 . S
Eu431 C495 2.787 . S
N432 C428 1.351 . S
N432 Eu431 2.562 . S
N432 C434 1.325 . S
C433 C427 1.404 . S
C433 C435 1.366 . S
C433 H441 0.930 . S
C434 N432 1.325 . S
C434 C435 1.416 . S
C434 H440 0.929 . S
C435 C433 1.366 . S
C435 C434 1.416 . S
C435 H437 0.930 . S
H436 C425 0.930 . S
H437 C435 0.930 . S
H438 C453 0.930 . S
H439 C460 0.930 . S
H440 C434 0.929 . S
H441 C433 0.930 . S
H442 C456 0.929 . S
H443 C423 0.931 . S
H444 C429 0.931 . S
H445 C430 0.931 . S
H446 C451 0.931 . S
H447 C426 0.929 . S
H448 C459 0.930 . S
N449 Eu420 2.600 . S
N449 C450 1.365 . S
N449 C453 1.319 . S
C450 N449 1.365 . S
C450 C452 1.405 . S
C450 C458 1.448 . S
C451 H446 0.931 . S
C451 C453 1.397 . S
C451 C454 1.367 . S
C452 C450 1.405 . S
C452 C454 1.403 . S
C452 C485 1.439 . S
C453 H438 0.930 . S
C453 N449 1.319 . S
C453 C451 1.397 . S
C454 C451 1.367 . S
C454 C452 1.403 . S
C454 H461 0.929 . S
N455 Eu420 2.562 . S
N455 C456 1.325 . S
N455 C458 1.351 . S
C456 H442 0.929 . S
C456 N455 1.325 . S
C456 C460 1.416 . S
C457 C458 1.430 . S
C457 C459 1.404 . S
C457 C486 1.387 . S
C458 C450 1.448 . S
C458 N455 1.351 . S
C458 C457 1.430 . S
C459 H448 0.930 . S
C459 C457 1.404 . S
C459 C460 1.366 . S
C460 H439 0.930 . S
C460 C456 1.416 . S
C460 C459 1.366 . S
H461 C454 0.929 . S
H462 C485 0.931 . S
H463 C486 0.931 . S
O464 Eu420 2.462 . S
O464 C484 1.252 . S
O465 Eu420 2.373 . S
O465 C476 1.249 . S
O466 Eu431 2.335 . S
O466 C476 1.264 . S
O467 Eu420 2.432 . S
O467 C484 1.268 . S
O468 Eu420 2.291 . S
O468 C483 1.255 . S
O469 Eu431 2.372 . S
O469 C483 1.257 . S
O470 Eu431 2.462 . S
O470 C495 1.252 . S
O471 Eu431 2.373 . S
O471 C487 1.249 . S
O472 Eu420 2.335 . S
O472 C487 1.264 . S
O473 Eu431 2.432 . S
O473 C495 1.268 . S
O474 Eu431 2.291 . S
O474 C494 1.255 . S
O475 Eu420 2.372 . S
O475 C494 1.257 . S
C476 O465 1.249 . S
C476 O466 1.264 . S
C477 C480 1.382 . S
C477 C482 1.390 . S
C477 C484 1.506 . S
C478 C479 1.398 . S
C478 C482 1.392 . S
C479 C478 1.398 . S
C479 C481 1.372 . S
C479 H496 0.931 . S
C480 C477 1.382 . S
C480 C481 1.390 . S
C480 H497 0.931 . S
C481 C479 1.372 . S
C481 C480 1.390 . S
C481 H498 0.929 . S
C482 C477 1.390 . S
C482 C478 1.392 . S
C482 H499 0.930 . S
C483 O468 1.255 . S
C483 O469 1.257 . S
C484 Eu420 2.787 . S
C484 O464 1.252 . S
C484 O467 1.268 . S
C484 C477 1.506 . S
C485 C452 1.439 . S
C485 H462 0.931 . S
C485 C486 1.374 . S
C486 C457 1.387 . S
C486 H463 0.931 . S
C486 C485 1.374 . S
C487 O471 1.249 . S
C487 O472 1.264 . S
C488 C491 1.382 . S
C488 C492 1.390 . S
C488 C495 1.506 . S
C489 C490 1.398 . S
C489 C492 1.392 . S
C490 C489 1.398 . S
C490 C493 1.372 . S
C490 H500 0.931 . S
C491 C488 1.382 . S
C491 C493 1.390 . S
C491 H501 0.931 . S
C492 C488 1.390 . S
C492 C489 1.392 . S
C492 H502 0.930 . S
C493 C490 1.372 . S
C493 C491 1.390 . S
C493 H503 0.929 . S
C494 O474 1.255 . S
C494 O475 1.257 . S
C495 Eu431 2.787 . S
C495 O470 1.252 . S
C495 O473 1.268 . S
C495 C488 1.506 . S
H496 C479 0.931 . S
H497 C480 0.931 . S
H498 C481 0.929 . S
H499 C482 0.930 . S
H500 C490 0.931 . S
H501 C491 0.931 . S
H502 C492 0.930 . S
H503 C493 0.929 . S
Eu504 N533 2.600 . S
Eu504 N539 2.562 . S
Eu504 O548 2.462 . S
Eu504 O549 2.373 . S
Eu504 O551 2.432 . S
Eu504 O552 2.291 . S
Eu504 O556 2.335 . S
Eu504 O559 2.372 . S
Eu504 C568 2.787 . S
C505 N506 1.365 . S
C505 C508 1.405 . S
C505 C512 1.448 . S
N506 C505 1.365 . S
N506 C509 1.319 . S
N506 Eu515 2.600 . S
C507 C509 1.397 . S
C507 C510 1.367 . S
C507 H527 0.931 . S
C508 C505 1.405 . S
C508 C510 1.403 . S
C508 C514 1.439 . S
C509 N506 1.319 . S
C509 C507 1.397 . S
C509 H520 0.930 . S
C510 C507 1.367 . S
C510 C508 1.403 . S
C510 H531 0.929 . S
C511 C512 1.430 . S
C511 C513 1.387 . S
C511 C517 1.404 . S
C512 C505 1.448 . S
C512 C511 1.430 . S
C512 N516 1.351 . S
C513 C511 1.387 . S
C513 C514 1.374 . S
C513 H528 0.931 . S
C514 C508 1.439 . S
C514 C513 1.374 . S
C514 H529 0.931 . S
Eu515 N506 2.600 . S
Eu515 N516 2.562 . S
Eu515 O550 2.335 . S
Eu515 O553 2.372 . S
Eu515 O554 2.462 . S
Eu515 O555 2.373 . S
Eu515 O557 2.432 . S
Eu515 O558 2.291 . S
Eu515 C579 2.787 . S
N516 C512 1.351 . S
N516 Eu515 2.562 . S
N516 C518 1.325 . S
C517 C511 1.404 . S
C517 C519 1.366 . S
C517 H525 0.930 . S
C518 N516 1.325 . S
C518 C519 1.416 . S
C518 H524 0.929 . S
C519 C517 1.366 . S
C519 C518 1.416 . S
C519 H521 0.930 . S
H520 C509 0.930 . S
H521 C519 0.930 . S
H522 C537 0.930 . S
H523 C544 0.930 . S
H524 C518 0.929 . S
H525 C517 0.930 . S
H526 C540 0.929 . S
H527 C507 0.931 . S
H528 C513 0.931 . S
H529 C514 0.931 . S
H530 C535 0.931 . S
H531 C510 0.929 . S
H532 C543 0.930 . S
N533 Eu504 2.600 . S
N533 C534 1.365 . S
N533 C537 1.319 . S
C534 N533 1.365 . S
C534 C536 1.405 . S
C534 C542 1.448 . S
C535 H530 0.931 . S
C535 C537 1.397 . S
C535 C538 1.367 . S
C536 C534 1.405 . S
C536 C538 1.403 . S
C536 C569 1.439 . S
C537 H522 0.930 . S
C537 N533 1.319 . S
C537 C535 1.397 . S
C538 C535 1.367 . S
C538 C536 1.403 . S
C538 H545 0.929 . S
N539 Eu504 2.562 . S
N539 C540 1.325 . S
N539 C542 1.351 . S
C540 H526 0.929 . S
C540 N539 1.325 . S
C540 C544 1.416 . S
C541 C542 1.430 . S
C541 C543 1.404 . S
C541 C570 1.387 . S
C542 C534 1.448 . S
C542 N539 1.351 . S
C542 C541 1.430 . S
C543 H532 0.930 . S
C543 C541 1.404 . S
C543 C544 1.366 . S
C544 H523 0.930 . S
C544 C540 1.416 . S
C544 C543 1.366 . S
H545 C538 0.929 . S
H546 C569 0.931 . S
H547 C570 0.931 . S
O548 Eu504 2.462 . S
O548 C568 1.252 . S
O549 Eu504 2.373 . S
O549 C560 1.249 . S
O550 Eu515 2.335 . S
O550 C560 1.264 . S
O551 Eu504 2.432 . S
O551 C568 1.268 . S
O552 Eu504 2.291 . S
O552 C567 1.255 . S
O553 Eu515 2.372 . S
O553 C567 1.257 . S
O554 Eu515 2.462 . S
O554 C579 1.252 . S
O555 Eu515 2.373 . S
O555 C571 1.249 . S
O556 Eu504 2.335 . S
O556 C571 1.264 . S
O557 Eu515 2.432 . S
O557 C579 1.268 . S
O558 Eu515 2.291 . S
O558 C578 1.255 . S
O559 Eu504 2.372 . S
O559 C578 1.257 . S
C560 O549 1.249 . S
C560 O550 1.264 . S
C561 C564 1.382 . S
C561 C566 1.390 . S
C561 C568 1.506 . S
C562 C563 1.398 . S
C562 C566 1.392 . S
C563 C562 1.398 . S
C563 C565 1.372 . S
C563 H580 0.931 . S
C564 C561 1.382 . S
C564 C565 1.390 . S
C564 H581 0.931 . S
C565 C563 1.372 . S
C565 C564 1.390 . S
C565 H582 0.929 . S
C566 C561 1.390 . S
C566 C562 1.392 . S
C566 H583 0.930 . S
C567 O552 1.255 . S
C567 O553 1.257 . S
C568 Eu504 2.787 . S
C568 O548 1.252 . S
C568 O551 1.268 . S
C568 C561 1.506 . S
C569 C536 1.439 . S
C569 H546 0.931 . S
C569 C570 1.374 . S
C570 C541 1.387 . S
C570 H547 0.931 . S
C570 C569 1.374 . S
C571 O555 1.249 . S
C571 O556 1.264 . S
C572 C575 1.382 . S
C572 C576 1.390 . S
C572 C579 1.506 . S
C573 C574 1.398 . S
C573 C576 1.392 . S
C574 C573 1.398 . S
C574 C577 1.372 . S
C574 H584 0.931 . S
C575 C572 1.382 . S
C575 C577 1.390 . S
C575 H585 0.931 . S
C576 C572 1.390 . S
C576 C573 1.392 . S
C576 H586 0.930 . S
C577 C574 1.372 . S
C577 C575 1.390 . S
C577 H587 0.929 . S
C578 O558 1.255 . S
C578 O559 1.257 . S
C579 Eu515 2.787 . S
C579 O554 1.252 . S
C579 O557 1.268 . S
C579 C572 1.506 . S
H580 C563 0.931 . S
H581 C564 0.931 . S
H582 C565 0.929 . S
H583 C566 0.930 . S
H584 C574 0.931 . S
H585 C575 0.931 . S
H586 C576 0.930 . S
H587 C577 0.929 . S
Eu588 N617 2.600 . S
Eu588 N623 2.562 . S
Eu588 O632 2.462 . S
Eu588 O633 2.373 . S
Eu588 O635 2.432 . S
Eu588 O636 2.291 . S
Eu588 O640 2.335 . S
Eu588 O643 2.372 . S
Eu588 C652 2.787 . S
C589 N590 1.365 . S
C589 C592 1.405 . S
C589 C596 1.448 . S
N590 C589 1.365 . S
N590 C593 1.319 . S
N590 Eu599 2.600 . S
C591 C593 1.397 . S
C591 C594 1.367 . S
C591 H611 0.931 . S
C592 C589 1.405 . S
C592 C594 1.403 . S
C592 C598 1.439 . S
C593 N590 1.319 . S
C593 C591 1.397 . S
C593 H604 0.930 . S
C594 C591 1.367 . S
C594 C592 1.403 . S
C594 H615 0.929 . S
C595 C596 1.430 . S
C595 C597 1.387 . S
C595 C601 1.404 . S
C596 C589 1.448 . S
C596 C595 1.430 . S
C596 N600 1.351 . S
C597 C595 1.387 . S
C597 C598 1.374 . S
C597 H612 0.931 . S
C598 C592 1.439 . S
C598 C597 1.374 . S
C598 H613 0.931 . S
Eu599 N590 2.600 . S
Eu599 N600 2.562 . S
Eu599 O634 2.335 . S
Eu599 O637 2.372 . S
Eu599 O638 2.462 . S
Eu599 O639 2.373 . S
Eu599 O641 2.432 . S
Eu599 O642 2.291 . S
Eu599 C663 2.787 . S
N600 C596 1.351 . S
N600 Eu599 2.562 . S
N600 C602 1.325 . S
C601 C595 1.404 . S
C601 C603 1.366 . S
C601 H609 0.930 . S
C602 N600 1.325 . S
C602 C603 1.416 . S
C602 H608 0.929 . S
C603 C601 1.366 . S
C603 C602 1.416 . S
C603 H605 0.930 . S
H604 C593 0.930 . S
H605 C603 0.930 . S
H606 C621 0.930 . S
H607 C628 0.930 . S
H608 C602 0.929 . S
H609 C601 0.930 . S
H610 C624 0.929 . S
H611 C591 0.931 . S
H612 C597 0.931 . S
H613 C598 0.931 . S
H614 C619 0.931 . S
H615 C594 0.929 . S
H616 C627 0.930 . S
N617 Eu588 2.600 . S
N617 C618 1.365 . S
N617 C621 1.319 . S
C618 N617 1.365 . S
C618 C620 1.405 . S
C618 C626 1.448 . S
C619 H614 0.931 . S
C619 C621 1.397 . S
C619 C622 1.367 . S
C620 C618 1.405 . S
C620 C622 1.403 . S
C620 C653 1.439 . S
C621 H606 0.930 . S
C621 N617 1.319 . S
C621 C619 1.397 . S
C622 C619 1.367 . S
C622 C620 1.403 . S
C622 H629 0.929 . S
N623 Eu588 2.562 . S
N623 C624 1.325 . S
N623 C626 1.351 . S
C624 H610 0.929 . S
C624 N623 1.325 . S
C624 C628 1.416 . S
C625 C626 1.430 . S
C625 C627 1.404 . S
C625 C654 1.387 . S
C626 C618 1.448 . S
C626 N623 1.351 . S
C626 C625 1.430 . S
C627 H616 0.930 . S
C627 C625 1.404 . S
C627 C628 1.366 . S
C628 H607 0.930 . S
C628 C624 1.416 . S
C628 C627 1.366 . S
H629 C622 0.929 . S
H630 C653 0.931 . S
H631 C654 0.931 . S
O632 Eu588 2.462 . S
O632 C652 1.252 . S
O633 Eu588 2.373 . S
O633 C644 1.249 . S
O634 Eu599 2.335 . S
O634 C644 1.264 . S
O635 Eu588 2.432 . S
O635 C652 1.268 . S
O636 Eu588 2.291 . S
O636 C651 1.255 . S
O637 Eu599 2.372 . S
O637 C651 1.257 . S
O638 Eu599 2.462 . S
O638 C663 1.252 . S
O639 Eu599 2.373 . S
O639 C655 1.249 . S
O640 Eu588 2.335 . S
O640 C655 1.264 . S
O641 Eu599 2.432 . S
O641 C663 1.268 . S
O642 Eu599 2.291 . S
O642 C662 1.255 . S
O643 Eu588 2.372 . S
O643 C662 1.257 . S
C644 O633 1.249 . S
C644 O634 1.264 . S
C645 C648 1.382 . S
C645 C650 1.390 . S
C645 C652 1.506 . S
C646 C647 1.398 . S
C646 C650 1.392 . S
C647 C646 1.398 . S
C647 C649 1.372 . S
C647 H664 0.931 . S
C648 C645 1.382 . S
C648 C649 1.390 . S
C648 H665 0.931 . S
C649 C647 1.372 . S
C649 C648 1.390 . S
C649 H666 0.929 . S
C650 C645 1.390 . S
C650 C646 1.392 . S
C650 H667 0.930 . S
C651 O636 1.255 . S
C651 O637 1.257 . S
C652 Eu588 2.787 . S
C652 O632 1.252 . S
C652 O635 1.268 . S
C652 C645 1.506 . S
C653 C620 1.439 . S
C653 H630 0.931 . S
C653 C654 1.374 . S
C654 C625 1.387 . S
C654 H631 0.931 . S
C654 C653 1.374 . S
C655 O639 1.249 . S
C655 O640 1.264 . S
C656 C659 1.382 . S
C656 C660 1.390 . S
C656 C663 1.506 . S
C657 C658 1.398 . S
C657 C660 1.392 . S
C658 C657 1.398 . S
C658 C661 1.372 . S
C658 H668 0.931 . S
C659 C656 1.382 . S
C659 C661 1.390 . S
C659 H669 0.931 . S
C660 C656 1.390 . S
C660 C657 1.392 . S
C660 H670 0.930 . S
C661 C658 1.372 . S
C661 C659 1.390 . S
C661 H671 0.929 . S
C662 O642 1.255 . S
C662 O643 1.257 . S
C663 Eu599 2.787 . S
C663 O638 1.252 . S
C663 O641 1.268 . S
C663 C656 1.506 . S
H664 C647 0.931 . S
H665 C648 0.931 . S
H666 C649 0.929 . S
H667 C650 0.930 . S
H668 C658 0.931 . S
H669 C659 0.931 . S
H670 C660 0.930 . S
H671 C661 0.929 . S
Cd672 N675 2.334 1_655 S
Cd672 N701 2.304 1_565 S
Cd672 O708 2.268 . S
Cd672 O711 2.273 1_665 S
Cd672 O712 2.417 . S
Cd672 O713 2.330 . S
Cd673 N688 2.304 1_455 S
Cd673 N692 2.334 1_545 S
Cd673 O709 2.273 1_445 S
Cd673 O710 2.268 . S
Cd673 O714 2.417 . S
Cd673 O715 2.330 . S
C674 N675 1.332 . S
C674 C678 1.381 . S
C674 H680 0.931 . S
N675 Cd672 2.334 1_455 S
N675 C674 1.332 . S
N675 C679 1.328 . S
C676 C677 1.396 . S
C676 C679 1.378 . S
C676 H718 0.931 . S
C677 C676 1.396 . S
C677 C678 1.382 . S
C678 C674 1.381 . S
C678 C677 1.382 . S
C678 H719 0.930 . S
C679 N675 1.328 . S
C679 C676 1.378 . S
C679 H681 0.930 1_455 S
H680 C674 0.931 . S
H681 C679 0.930 1_655 S
C682 O708 1.238 . S
C682 O709 1.253 . S
C683 C684 1.379 . S
C683 N688 1.337 . S
C683 H689 0.929 . S
C684 C683 1.379 . S
C684 C685 1.380 . S
C684 H720 0.929 . S
C685 C684 1.380 . S
C685 C686 1.399 . S
C686 C685 1.399 . S
C686 C687 1.376 . S
C686 H721 0.931 . S
C687 C686 1.376 . S
C687 N688 1.338 . S
C687 H690 0.930 1_655 S
N688 Cd673 2.304 1_655 S
N688 C683 1.337 . S
N688 C687 1.338 . S
H689 C683 0.929 . S
H690 C687 0.930 1_455 S
C691 N692 1.332 . S
C691 C695 1.381 . S
C691 H697 0.931 . S
N692 Cd673 2.334 1_565 S
N692 C691 1.332 . S
N692 C696 1.328 . S
C693 C694 1.396 . S
C693 C696 1.378 . S
C693 H722 0.931 . S
C694 C693 1.396 . S
C694 C695 1.382 . S
C695 C691 1.381 . S
C695 C694 1.382 . S
C695 H723 0.930 . S
C696 N692 1.328 . S
C696 C693 1.378 . S
C696 H698 0.930 1_565 S
H697 C691 0.931 . S
H698 C696 0.930 1_545 S
C699 O710 1.238 . S
C699 O711 1.253 . S
C700 O712 1.239 . S
C700 O713 1.230 . S
N701 Cd672 2.304 1_545 S
N701 C702 1.337 . S
N701 C706 1.338 . S
C702 N701 1.337 . S
C702 C703 1.379 . S
C702 H716 0.929 . S
C703 C702 1.379 . S
C703 C704 1.380 . S
C703 H724 0.929 . S
C704 C703 1.380 . S
C704 C705 1.399 . S
C705 C704 1.399 . S
C705 C706 1.376 . S
C705 H725 0.931 . S
C706 N701 1.338 . S
C706 C705 1.376 . S
C706 H717 0.930 1_545 S
C707 O714 1.239 . S
C707 O715 1.230 . S
O708 Cd672 2.268 . S
O708 C682 1.238 . S
O709 Cd673 2.273 1_665 S
O709 C682 1.253 . S
O710 Cd673 2.268 . S
O710 C699 1.238 . S
O711 Cd672 2.273 1_445 S
O711 C699 1.253 . S
O712 Cd672 2.417 . S
O712 C700 1.239 . S
O713 Cd672 2.330 . S
O713 C700 1.230 . S
O714 Cd673 2.417 . S
O714 C707 1.239 . S
O715 Cd673 2.330 . S
O715 C707 1.230 . S
H716 C702 0.929 . S
H717 C706 0.930 1_565 S
H718 C676 0.931 . S
H719 C678 0.930 . S
H720 C684 0.929 . S
H721 C686 0.931 . S
H722 C693 0.931 . S
H723 C695 0.930 . S
H724 C703 0.929 . S
H725 C705 0.931 . S
Cd726 N729 2.334 . S
Cd726 N755 2.304 1_565 S
Cd726 O762 2.268 1_554 S
Cd726 O765 2.273 1_565 S
Cd726 O766 2.417 . S
Cd726 O767 2.330 . S
Cd727 N742 2.304 . S
Cd727 N746 2.334 1_545 S
Cd727 O763 2.273 1_545 S
Cd727 O764 2.268 1_556 S
Cd727 O768 2.417 . S
Cd727 O769 2.330 . S
C728 N729 1.332 . S
C728 C732 1.381 . S
C728 H734 0.931 . S
N729 Cd726 2.334 . S
N729 C728 1.332 . S
N729 C733 1.328 . S
C730 C731 1.396 . S
C730 C733 1.378 . S
C730 H772 0.931 1_554 S
C731 C730 1.396 . S
C731 C732 1.382 . S
C732 C728 1.381 . S
C732 C731 1.382 . S
C732 H773 0.930 . S
C733 N729 1.328 . S
C733 C730 1.378 . S
C733 H735 0.930 1_554 S
H734 C728 0.931 . S
H735 C733 0.930 1_556 S
C736 O762 1.238 . S
C736 O763 1.253 . S
C737 C738 1.379 . S
C737 N742 1.337 . S
C737 H743 0.929 . S
C738 C737 1.379 . S
C738 C739 1.380 . S
C738 H774 0.929 . S
C739 C738 1.380 . S
C739 C740 1.399 . S
C740 C739 1.399 . S
C740 C741 1.376 . S
C740 H775 0.931 1_556 S
C741 C740 1.376 . S
C741 N742 1.338 . S
C741 H744 0.930 1_556 S
N742 Cd727 2.304 . S
N742 C737 1.337 . S
N742 C741 1.338 . S
H743 C737 0.929 . S
H744 C741 0.930 1_554 S
C745 N746 1.332 . S
C745 C749 1.381 . S
C745 H751 0.931 . S
N746 Cd727 2.334 1_565 S
N746 C745 1.332 . S
N746 C750 1.328 . S
C747 C748 1.396 . S
C747 C750 1.378 . S
C747 H776 0.960 . S
C748 C747 1.396 . S
C748 C749 1.382 . S
C749 C745 1.381 . S
C749 C748 1.382 . S
C749 H777 0.930 . S
C750 N746 1.328 . S
C750 C747 1.378 . S
C750 H752 0.930 1_566 S
H751 C745 0.931 . S
H752 C750 0.930 1_544 S
C753 O764 1.238 . S
C753 O765 1.253 . S
C754 O766 1.239 . S
C754 O767 1.230 . S
N755 Cd726 2.304 1_545 S
N755 C756 1.337 . S
N755 C760 1.338 . S
C756 N755 1.337 . S
C756 C757 1.379 . S
C756 H770 0.929 . S
C757 C756 1.379 . S
C757 C758 1.380 . S
C757 H778 0.929 . S
C758 C757 1.380 . S
C758 C759 1.399 . S
C759 C758 1.399 . S
C759 C760 1.376 . S
C759 H779 0.951 . S
C760 N755 1.338 . S
C760 C759 1.376 . S
C760 H771 0.930 1_544 S
C761 O768 1.239 . S
C761 O769 1.230 . S
O762 Cd726 2.268 1_556 S
O762 C736 1.238 . S
O763 Cd727 2.273 1_565 S
O763 C736 1.253 . S
O764 Cd727 2.268 1_554 S
O764 C753 1.238 . S
O765 Cd726 2.273 1_545 S
O765 C753 1.253 . S
O766 Cd726 2.417 . S
O766 C754 1.239 . S
O767 Cd726 2.330 . S
O767 C754 1.230 . S
O768 Cd727 2.417 . S
O768 C761 1.239 . S
O769 Cd727 2.330 . S
O769 C761 1.230 . S
H770 C756 0.929 . S
H771 C760 0.930 1_566 S
H772 C730 0.931 1_556 S
H773 C732 0.930 . S
H774 C738 0.929 . S
H775 C740 0.931 1_554 S
H776 C747 0.960 . S
H777 C749 0.930 . S
H778 C757 0.929 . S
H779 C759 0.951 . S
Cd780 N783 2.334 1_655 S
Cd780 N809 2.304 . S
Cd780 O816 2.268 1_554 S
Cd780 O819 2.273 1_655 S
Cd780 O820 2.417 . S
Cd780 O821 2.330 . S
Cd781 N796 2.304 1_455 S
Cd781 N800 2.334 . S
Cd781 O817 2.273 1_455 S
Cd781 O818 2.268 1_556 S
Cd781 O822 2.417 . S
Cd781 O823 2.330 . S
C782 N783 1.332 . S
C782 C786 1.381 . S
C782 H788 0.931 . S
N783 Cd780 2.334 1_455 S
N783 C782 1.332 . S
N783 C787 1.328 . S
C784 C785 1.396 . S
C784 C787 1.378 . S
C784 H826 0.931 1_554 S
C785 C784 1.396 . S
C785 C786 1.382 . S
C786 C782 1.381 . S
C786 C785 1.382 . S
C786 H827 0.930 . S
C787 N783 1.328 . S
C787 C784 1.378 . S
C787 H789 0.930 1_454 S
H788 C782 0.931 . S
H789 C787 0.930 1_656 S
C790 O816 1.238 . S
C790 O817 1.253 . S
C791 C792 1.379 . S
C791 N796 1.337 . S
C791 H797 0.929 . S
C792 C791 1.379 . S
C792 C793 1.380 . S
C792 H828 0.929 . S
C793 C792 1.380 . S
C793 C794 1.399 . S
C794 C793 1.399 . S
C794 C795 1.376 . S
C794 H829 0.931 1_556 S
C795 C794 1.376 . S
C795 N796 1.338 . S
C795 H798 0.930 1_656 S
N796 Cd781 2.304 1_655 S
N796 C791 1.337 . S
N796 C795 1.338 . S
H797 C791 0.929 . S
H798 C795 0.930 1_454 S
C799 N800 1.332 . S
C799 C803 1.381 . S
C799 H805 0.931 . S
N800 Cd781 2.334 . S
N800 C799 1.332 . S
N800 C804 1.328 . S
C801 C802 1.396 . S
C801 C804 1.378 . S
C801 H830 0.960 . S
C802 C801 1.396 . S
C802 C803 1.382 . S
C803 C799 1.381 . S
C803 C802 1.382 . S
C803 H831 0.930 . S
C804 N800 1.328 . S
C804 C801 1.378 . S
C804 H806 0.930 1_556 S
H805 C799 0.931 . S
H806 C804 0.930 1_554 S
C807 O818 1.238 . S
C807 O819 1.253 . S
C808 O820 1.239 . S
C808 O821 1.230 . S
N809 Cd780 2.304 . S
N809 C810 1.337 . S
N809 C814 1.338 . S
C810 N809 1.337 . S
C810 C811 1.379 . S
C810 H824 0.929 . S
C811 C810 1.379 . S
C811 C812 1.380 . S
C811 H832 0.929 . S
C812 C811 1.380 . S
C812 C813 1.399 . S
C813 C812 1.399 . S
C813 C814 1.376 . S
C813 H833 0.951 . S
C814 N809 1.338 . S
C814 C813 1.376 . S
C814 H825 0.930 1_554 S
C815 O822 1.239 . S
C815 O823 1.230 . S
O816 Cd780 2.268 1_556 S
O816 C790 1.238 . S
O817 Cd781 2.273 1_655 S
O817 C790 1.253 . S
O818 Cd781 2.268 1_554 S
O818 C807 1.238 . S
O819 Cd780 2.273 1_455 S
O819 C807 1.253 . S
O820 Cd780 2.417 . S
O820 C808 1.239 . S
O821 Cd780 2.330 . S
O821 C808 1.230 . S
O822 Cd781 2.417 . S
O822 C815 1.239 . S
O823 Cd781 2.330 . S
O823 C815 1.230 . S
H824 C810 0.929 . S
H825 C814 0.930 1_556 S
H826 C784 0.931 1_556 S
H827 C786 0.930 . S
H828 C792 0.929 . S
H829 C794 0.931 1_554 S
H830 C801 0.960 . S
H831 C803 0.930 . S
H832 C811 0.929 . S
H833 C813 0.951 . S
Cd834 N837 2.334 . S
Cd834 N863 2.304 . S
Cd834 O870 2.268 1_554 S
Cd834 O873 2.273 . S
Cd834 O874 2.417 . S
Cd834 O875 2.330 . S
Cd835 N850 2.304 . S
Cd835 N854 2.334 . S
Cd835 O871 2.273 . S
Cd835 O872 2.268 1_556 S
Cd835 O876 2.417 . S
Cd835 O877 2.330 . S
C836 N837 1.332 . S
C836 C840 1.381 . S
C836 H842 0.931 . S
N837 Cd834 2.334 . S
N837 C836 1.332 . S
N837 C841 1.328 . S
C838 C839 1.396 . S
C838 C841 1.378 . S
C838 H880 0.931 1_554 S
C839 C838 1.396 . S
C839 C840 1.382 . S
C840 C836 1.381 . S
C840 C839 1.382 . S
C840 H881 0.930 . S
C841 N837 1.328 . S
C841 C838 1.378 . S
C841 H843 0.930 1_554 S
H842 C836 0.931 . S
H843 C841 0.930 1_556 S
C844 O870 1.238 . S
C844 O871 1.253 . S
C845 C846 1.379 . S
C845 N850 1.337 . S
C845 H851 0.929 . S
C846 C845 1.379 . S
C846 C847 1.380 . S
C846 H882 0.929 . S
C847 C846 1.380 . S
C847 C848 1.399 . S
C848 C847 1.399 . S
C848 C849 1.376 . S
C848 H883 0.931 1_556 S
C849 C848 1.376 . S
C849 N850 1.338 . S
C849 H852 0.930 1_556 S
N850 Cd835 2.304 . S
N850 C845 1.337 . S
N850 C849 1.338 . S
H851 C845 0.929 . S
H852 C849 0.930 1_554 S
C853 N854 1.332 . S
C853 C857 1.381 . S
C853 H859 0.931 . S
N854 Cd835 2.334 . S
N854 C853 1.332 . S
N854 C858 1.328 . S
C855 C856 1.396 . S
C855 C858 1.378 . S
C855 H884 0.959 . S
C856 C855 1.396 . S
C856 C857 1.382 . S
C857 C853 1.381 . S
C857 C856 1.382 . S
C857 H885 0.930 . S
C858 N854 1.328 . S
C858 C855 1.378 . S
C858 H860 0.930 1_556 S
H859 C853 0.931 . S
H860 C858 0.930 1_554 S
C861 O872 1.238 . S
C861 O873 1.253 . S
C862 O874 1.239 . S
C862 O875 1.230 . S
N863 Cd834 2.304 . S
N863 C864 1.337 . S
N863 C868 1.338 . S
C864 N863 1.337 . S
C864 C865 1.379 . S
C864 H878 0.929 . S
C865 C864 1.379 . S
C865 C866 1.380 . S
C865 H886 0.929 . S
C866 C865 1.380 . S
C866 C867 1.399 . S
C867 C866 1.399 . S
C867 C868 1.376 . S
C867 H887 0.952 . S
C868 N863 1.338 . S
C868 C867 1.376 . S
C868 H879 0.930 1_554 S
C869 O876 1.239 . S
C869 O877 1.230 . S
O870 Cd834 2.268 1_556 S
O870 C844 1.238 . S
O871 Cd835 2.273 . S
O871 C844 1.253 . S
O872 Cd835 2.268 1_554 S
O872 C861 1.238 . S
O873 Cd834 2.273 . S
O873 C861 1.253 . S
O874 Cd834 2.417 . S
O874 C862 1.239 . S
O875 Cd834 2.330 . S
O875 C862 1.230 . S
O876 Cd835 2.417 . S
O876 C869 1.239 . S
O877 Cd835 2.330 . S
O877 C869 1.230 . S
H878 C864 0.929 . S
H879 C868 0.930 1_556 S
H880 C838 0.931 1_556 S
H881 C840 0.930 . S
H882 C846 0.929 . S
H883 C848 0.931 1_554 S
H884 C855 0.959 . S
H885 C857 0.930 . S
H886 C865 0.929 . S
H887 C867 0.952 . S
Cd888 N891 2.334 1_655 S
Cd888 N917 2.304 . S
Cd888 O924 2.268 . S
Cd888 O927 2.273 1_655 S
Cd888 O928 2.417 . S
Cd888 O929 2.330 . S
Cd889 N904 2.304 1_455 S
Cd889 N908 2.334 . S
Cd889 O925 2.273 1_455 S
Cd889 O926 2.268 . S
Cd889 O930 2.417 . S
Cd889 O931 2.330 . S
C890 N891 1.332 . S
C890 C894 1.381 . S
C890 H896 0.931 . S
N891 Cd888 2.334 1_455 S
N891 C890 1.332 . S
N891 C895 1.328 . S
C892 C893 1.396 . S
C892 C895 1.378 . S
C892 H934 0.931 . S
C893 C892 1.396 . S
C893 C894 1.382 . S
C894 C890 1.381 . S
C894 C893 1.382 . S
C894 H935 0.930 . S
C895 N891 1.328 . S
C895 C892 1.378 . S
C895 H897 0.930 1_455 S
H896 C890 0.931 . S
H897 C895 0.930 1_655 S
C898 O924 1.238 . S
C898 O925 1.253 . S
C899 C900 1.379 . S
C899 N904 1.337 . S
C899 H905 0.929 . S
C900 C899 1.379 . S
C900 C901 1.380 . S
C900 H936 0.929 . S
C901 C900 1.380 . S
C901 C902 1.399 . S
C902 C901 1.399 . S
C902 C903 1.376 . S
C902 H937 0.931 . S
C903 C902 1.376 . S
C903 N904 1.338 . S
C903 H906 0.930 1_655 S
N904 Cd889 2.304 1_655 S
N904 C899 1.337 . S
N904 C903 1.338 . S
H905 C899 0.929 . S
H906 C903 0.930 1_455 S
C907 N908 1.332 . S
C907 C911 1.381 . S
C907 H913 0.931 . S
N908 Cd889 2.334 . S
N908 C907 1.332 . S
N908 C912 1.328 . S
C909 C910 1.396 . S
C909 C912 1.378 . S
C909 H938 0.931 . S
C910 C909 1.396 . S
C910 C911 1.382 . S
C911 C907 1.381 . S
C911 C910 1.382 . S
C911 H939 0.930 . S
C912 N908 1.328 . S
C912 C909 1.378 . S
C912 H914 0.930 . S
H913 C907 0.931 . S
H914 C912 0.930 . S
C915 O926 1.238 . S
C915 O927 1.253 . S
C916 O928 1.239 . S
C916 O929 1.230 . S
N917 Cd888 2.304 . S
N917 C918 1.337 . S
N917 C922 1.338 . S
C918 N917 1.337 . S
C918 C919 1.379 . S
C918 H932 0.929 . S
C919 C918 1.379 . S
C919 C920 1.380 . S
C919 H940 0.929 . S
C920 C919 1.380 . S
C920 C921 1.399 . S
C921 C920 1.399 . S
C921 C922 1.376 . S
C921 H941 0.931 . S
C922 N917 1.338 . S
C922 C921 1.376 . S
C922 H933 0.930 . S
C923 O930 1.239 . S
C923 O931 1.230 . S
O924 Cd888 2.268 . S
O924 C898 1.238 . S
O925 Cd889 2.273 1_655 S
O925 C898 1.253 . S
O926 Cd889 2.268 . S
O926 C915 1.238 . S
O927 Cd888 2.273 1_455 S
O927 C915 1.253 . S
O928 Cd888 2.417 . S
O928 C916 1.239 . S
O929 Cd888 2.330 . S
O929 C916 1.230 . S
O930 Cd889 2.417 . S
O930 C923 1.239 . S
O931 Cd889 2.330 . S
O931 C923 1.230 . S
H932 C918 0.929 . S
H933 C922 0.930 . S
H934 C892 0.931 . S
H935 C894 0.930 . S
H936 C900 0.929 . S
H937 C902 0.931 . S
H938 C909 0.931 . S
H939 C911 0.930 . S
H940 C919 0.929 . S
H941 C921 0.931 . S
Cd942 N945 2.334 . S
Cd942 N971 2.304 1_565 S
Cd942 O978 2.268 . S
Cd942 O981 2.273 1_565 S
Cd942 O982 2.417 . S
Cd942 O983 2.330 . S
Cd943 N958 2.304 . S
Cd943 N962 2.334 1_545 S
Cd943 O979 2.273 1_545 S
Cd943 O980 2.268 . S
Cd943 O984 2.417 . S
Cd943 O985 2.330 . S
C944 N945 1.332 . S
C944 C948 1.381 . S
C944 H950 0.931 . S
N945 Cd942 2.334 . S
N945 C944 1.332 . S
N945 C949 1.328 . S
C946 C947 1.396 . S
C946 C949 1.378 . S
C946 H988 0.931 . S
C947 C946 1.396 . S
C947 C948 1.382 . S
C948 C944 1.381 . S
C948 C947 1.382 . S
C948 H989 0.930 . S
C949 N945 1.328 . S
C949 C946 1.378 . S
C949 H951 0.930 . S
H950 C944 0.931 . S
H951 C949 0.930 . S
C952 O978 1.238 . S
C952 O979 1.253 . S
C953 C954 1.379 . S
C953 N958 1.337 . S
C953 H959 0.929 . S
C954 C953 1.379 . S
C954 C955 1.380 . S
C954 H990 0.929 . S
C955 C954 1.380 . S
C955 C956 1.399 . S
C956 C955 1.399 . S
C956 C957 1.376 . S
C956 H991 0.931 . S
C957 C956 1.376 . S
C957 N958 1.338 . S
C957 H960 0.930 . S
N958 Cd943 2.304 . S
N958 C953 1.337 . S
N958 C957 1.338 . S
H959 C953 0.929 . S
H960 C957 0.930 . S
C961 N962 1.332 . S
C961 C965 1.381 . S
C961 H967 0.931 . S
N962 Cd943 2.334 1_565 S
N962 C961 1.332 . S
N962 C966 1.328 . S
C963 C964 1.396 . S
C963 C966 1.378 . S
C963 H992 0.931 . S
C964 C963 1.396 . S
C964 C965 1.382 . S
C965 C961 1.381 . S
C965 C964 1.382 . S
C965 H993 0.930 . S
C966 N962 1.328 . S
C966 C963 1.378 . S
C966 H968 0.930 1_565 S
H967 C961 0.931 . S
H968 C966 0.930 1_545 S
C969 O980 1.238 . S
C969 O981 1.253 . S
C970 O982 1.239 . S
C970 O983 1.230 . S
N971 Cd942 2.304 1_545 S
N971 C972 1.337 . S
N971 C976 1.338 . S
C972 N971 1.337 . S
C972 C973 1.379 . S
C972 H986 0.929 . S
C973 C972 1.379 . S
C973 C974 1.380 . S
C973 H994 0.929 . S
C974 C973 1.380 . S
C974 C975 1.399 . S
C975 C974 1.399 . S
C975 C976 1.376 . S
C975 H995 0.931 . S
C976 N971 1.338 . S
C976 C975 1.376 . S
C976 H987 0.930 1_545 S
C977 O984 1.239 . S
C977 O985 1.230 . S
O978 Cd942 2.268 . S
O978 C952 1.238 . S
O979 Cd943 2.273 1_565 S
O979 C952 1.253 . S
O980 Cd943 2.268 . S
O980 C969 1.238 . S
O981 Cd942 2.273 1_545 S
O981 C969 1.253 . S
O982 Cd942 2.417 . S
O982 C970 1.239 . S
O983 Cd942 2.330 . S
O983 C970 1.230 . S
O984 Cd943 2.417 . S
O984 C977 1.239 . S
O985 Cd943 2.330 . S
O985 C977 1.230 . S
H986 C972 0.929 . S
H987 C976 0.930 1_565 S
H988 C946 0.931 . S
H989 C948 0.930 . S
H990 C954 0.929 . S
H991 C956 0.931 . S
H992 C963 0.931 . S
H993 C965 0.930 . S
H994 C973 0.929 . S
H995 C975 0.931 . S
H996 C1014 0.951 . S
H997 C1016 0.951 . S
H998 C1018 0.950 . S
H999 C1019 0.950 . S
H1000 C1021 0.950 . S
H1001 C1024 0.950 . S
H1002 C1025 0.950 . S
H1003 C1027 0.950 . S
H1004 C1028 0.950 . S
H1005 C1029 0.951 . S
H1006 C1031 0.951 . S
H1007 C1033 0.950 . S
H1008 C1034 0.950 . S
H1009 C1036 0.950 . S
H1010 C1039 0.950 . S
H1011 C1040 0.950 . S
H1012 C1042 0.950 . S
H1013 C1043 0.950 . S
C1014 H996 0.951 . S
C1014 C1015 1.366 . S
C1014 C1016 1.388 . S
C1015 C1014 1.366 . S
C1015 C1019 1.385 . S
C1016 H997 0.951 . S
C1016 C1014 1.388 . S
C1016 C1017 1.366 . S
C1017 C1016 1.366 . S
C1017 C1018 1.414 . S
C1017 C1020 1.499 . S
C1018 H998 0.950 . S
C1018 C1017 1.414 . S
C1018 C1019 1.374 . S
C1019 H999 0.950 . S
C1019 C1015 1.385 . S
C1019 C1018 1.374 . S
C1020 C1017 1.499 . S
C1020 C1021 1.373 . S
C1020 C1022 1.389 . S
C1021 H1000 0.950 . S
C1021 C1020 1.373 . S
C1021 C1037 1.377 . S
C1022 C1020 1.389 . S
C1022 C1023 1.524 . S
C1022 C1036 1.377 . S
C1023 C1022 1.524 . S
C1023 C1024 1.397 . S
C1023 C1028 1.363 . S
C1024 H1001 0.950 . S
C1024 C1023 1.397 . S
C1024 C1025 1.334 . S
C1025 H1002 0.950 . S
C1025 C1024 1.334 . S
C1025 C1026 1.287 . S
C1026 C1025 1.287 . S
C1026 C1027 1.524 . S
C1026 H1045 0.913 . S
C1027 H1003 0.950 . S
C1027 C1026 1.524 . S
C1027 C1028 1.415 . S
C1028 H1004 0.950 . S
C1028 C1023 1.363 . S
C1028 C1027 1.415 . S
C1029 H1005 0.951 . S
C1029 C1030 1.366 . S
C1029 C1031 1.388 . S
C1030 C1029 1.366 . S
C1030 C1034 1.385 . S
C1031 H1006 0.951 . S
C1031 C1029 1.388 . S
C1031 C1032 1.366 . S
C1032 C1031 1.366 . S
C1032 C1033 1.414 . S
C1032 C1035 1.499 . S
C1033 H1007 0.950 . S
C1033 C1032 1.414 . S
C1033 C1034 1.374 . S
C1034 H1008 0.950 . S
C1034 C1030 1.385 . S
C1034 C1033 1.374 . S
C1035 C1032 1.499 . S
C1035 C1036 1.373 . S
C1035 C1037 1.389 . S
C1036 H1009 0.950 . S
C1036 C1022 1.377 . S
C1036 C1035 1.373 . S
C1037 C1021 1.377 . S
C1037 C1035 1.389 . S
C1037 C1038 1.524 . S
C1038 C1037 1.524 . S
C1038 C1039 1.397 . S
C1038 C1043 1.363 . S
C1039 H1010 0.950 . S
C1039 C1038 1.397 . S
C1039 C1040 1.334 . S
C1040 H1011 0.950 . S
C1040 C1039 1.334 . S
C1040 C1041 1.287 . S
C1041 C1040 1.287 . S
C1041 C1042 1.524 . S
C1041 H1044 0.999 . S
C1042 H1012 0.950 . S
C1042 C1041 1.524 . S
C1042 C1043 1.415 . S
C1043 H1013 0.950 . S
C1043 C1038 1.363 . S
C1043 C1042 1.415 . S
H1044 C1041 0.999 . S
H1045 C1026 0.913 . S
H1046 C1064 0.951 . S
H1047 C1066 0.951 . S
H1048 C1068 0.950 . S
H1049 C1069 0.950 . S
H1050 C1071 0.950 . S
H1051 C1074 0.950 . S
H1052 C1075 0.950 . S
H1053 C1077 0.950 . S
H1054 C1078 0.950 . S
H1055 C1079 0.951 . S
H1056 C1081 0.951 . S
H1057 C1083 0.950 . S
H1058 C1084 0.950 . S
H1059 C1086 0.950 . S
H1060 C1089 0.950 . S
H1061 C1090 0.950 . S
H1062 C1092 0.950 . S
H1063 C1093 0.950 . S
C1064 H1046 0.951 . S
C1064 C1065 1.366 . S
C1064 C1066 1.388 . S
C1065 C1064 1.366 . S
C1065 C1069 1.385 . S
C1066 H1047 0.951 . S
C1066 C1064 1.388 . S
C1066 C1067 1.366 . S
C1067 C1066 1.366 . S
C1067 C1068 1.414 . S
C1067 C1070 1.499 . S
C1068 H1048 0.950 . S
C1068 C1067 1.414 . S
C1068 C1069 1.374 . S
C1069 H1049 0.950 . S
C1069 C1065 1.385 . S
C1069 C1068 1.374 . S
C1070 C1067 1.499 . S
C1070 C1071 1.373 . S
C1070 C1072 1.389 . S
C1071 H1050 0.950 . S
C1071 C1070 1.373 . S
C1071 C1087 1.377 . S
C1072 C1070 1.389 . S
C1072 C1073 1.524 . S
C1072 C1086 1.377 . S
C1073 C1072 1.524 . S
C1073 C1074 1.397 . S
C1073 C1078 1.363 . S
C1074 H1051 0.950 . S
C1074 C1073 1.397 . S
C1074 C1075 1.334 . S
C1075 H1052 0.950 . S
C1075 C1074 1.334 . S
C1075 C1076 1.287 . S
C1076 C1075 1.287 . S
C1076 C1077 1.524 . S
C1076 H1095 0.913 . S
C1077 H1053 0.950 . S
C1077 C1076 1.524 . S
C1077 C1078 1.415 . S
C1078 H1054 0.950 . S
C1078 C1073 1.363 . S
C1078 C1077 1.415 . S
C1079 H1055 0.951 . S
C1079 C1080 1.366 . S
C1079 C1081 1.388 . S
C1080 C1079 1.366 . S
C1080 C1084 1.385 . S
C1081 H1056 0.951 . S
C1081 C1079 1.388 . S
C1081 C1082 1.366 . S
C1082 C1081 1.366 . S
C1082 C1083 1.414 . S
C1082 C1085 1.499 . S
C1083 H1057 0.950 . S
C1083 C1082 1.414 . S
C1083 C1084 1.374 . S
C1084 H1058 0.950 . S
C1084 C1080 1.385 . S
C1084 C1083 1.374 . S
C1085 C1082 1.499 . S
C1085 C1086 1.373 . S
C1085 C1087 1.389 . S
C1086 H1059 0.950 . S
C1086 C1072 1.377 . S
C1086 C1085 1.373 . S
C1087 C1071 1.377 . S
C1087 C1085 1.389 . S
C1087 C1088 1.524 . S
C1088 C1087 1.524 . S
C1088 C1089 1.397 . S
C1088 C1093 1.363 . S
C1089 H1060 0.950 . S
C1089 C1088 1.397 . S
C1089 C1090 1.334 . S
C1090 H1061 0.950 . S
C1090 C1089 1.334 . S
C1090 C1091 1.287 . S
C1091 C1090 1.287 . S
C1091 C1092 1.524 . S
C1091 H1094 0.999 . S
C1092 H1062 0.950 . S
C1092 C1091 1.524 . S
C1092 C1093 1.415 . S
C1093 H1063 0.950 . S
C1093 C1088 1.363 . S
C1093 C1092 1.415 . S
H1094 C1091 0.999 . S
H1095 C1076 0.913 . S
H1096 C1114 0.951 . S
H1097 C1116 0.951 . S
H1098 C1118 0.950 . S
H1099 C1119 0.950 . S
H1100 C1121 0.950 . S
H1101 C1124 0.950 . S
H1102 C1125 0.950 . S
H1103 C1127 0.950 . S
H1104 C1128 0.950 . S
H1105 C1129 0.951 . S
H1106 C1131 0.951 . S
H1107 C1133 0.950 . S
H1108 C1134 0.950 . S
H1109 C1136 0.950 . S
H1110 C1139 0.950 . S
H1111 C1140 0.950 . S
H1112 C1142 0.950 . S
H1113 C1143 0.950 . S
C1114 H1096 0.951 . S
C1114 C1115 1.366 . S
C1114 C1116 1.388 . S
C1115 C1114 1.366 . S
C1115 C1119 1.385 . S
C1116 H1097 0.951 . S
C1116 C1114 1.388 . S
C1116 C1117 1.366 . S
C1117 C1116 1.366 . S
C1117 C1118 1.414 . S
C1117 C1120 1.499 . S
C1118 H1098 0.950 . S
C1118 C1117 1.414 . S
C1118 C1119 1.374 . S
C1119 H1099 0.950 . S
C1119 C1115 1.385 . S
C1119 C1118 1.374 . S
C1120 C1117 1.499 . S
C1120 C1121 1.373 . S
C1120 C1122 1.389 . S
C1121 H1100 0.950 . S
C1121 C1120 1.373 . S
C1121 C1137 1.377 . S
C1122 C1120 1.389 . S
C1122 C1123 1.524 . S
C1122 C1136 1.377 . S
C1123 C1122 1.524 . S
C1123 C1124 1.397 . S
C1123 C1128 1.363 . S
C1124 H1101 0.950 . S
C1124 C1123 1.397 . S
C1124 C1125 1.334 . S
C1125 H1102 0.950 . S
C1125 C1124 1.334 . S
C1125 C1126 1.287 . S
C1126 C1125 1.287 . S
C1126 C1127 1.524 . S
C1126 H1145 0.913 . S
C1127 H1103 0.950 . S
C1127 C1126 1.524 . S
C1127 C1128 1.415 . S
C1128 H1104 0.950 . S
C1128 C1123 1.363 . S
C1128 C1127 1.415 . S
C1129 H1105 0.951 . S
C1129 C1130 1.366 . S
C1129 C1131 1.388 . S
C1130 C1129 1.366 . S
C1130 C1134 1.385 . S
C1131 H1106 0.951 . S
C1131 C1129 1.388 . S
C1131 C1132 1.366 . S
C1132 C1131 1.366 . S
C1132 C1133 1.414 . S
C1132 C1135 1.499 . S
C1133 H1107 0.950 . S
C1133 C1132 1.414 . S
C1133 C1134 1.374 . S
C1134 H1108 0.950 . S
C1134 C1130 1.385 . S
C1134 C1133 1.374 . S
C1135 C1132 1.499 . S
C1135 C1136 1.373 . S
C1135 C1137 1.389 . S
C1136 H1109 0.950 . S
C1136 C1122 1.377 . S
C1136 C1135 1.373 . S
C1137 C1121 1.377 . S
C1137 C1135 1.389 . S
C1137 C1138 1.524 . S
C1138 C1137 1.524 . S
C1138 C1139 1.397 . S
C1138 C1143 1.363 . S
C1139 H1110 0.950 . S
C1139 C1138 1.397 . S
C1139 C1140 1.334 . S
C1140 H1111 0.950 . S
C1140 C1139 1.334 . S
C1140 C1141 1.287 . S
C1141 C1140 1.287 . S
C1141 C1142 1.524 . S
C1141 H1144 0.999 . S
C1142 H1112 0.950 . S
C1142 C1141 1.524 . S
C1142 C1143 1.415 . S
C1143 H1113 0.950 . S
C1143 C1138 1.363 . S
C1143 C1142 1.415 . S
H1144 C1141 0.999 . S
H1145 C1126 0.913 . S
H1146 C1164 0.951 . S
H1147 C1166 0.951 . S
H1148 C1168 0.950 . S
H1149 C1169 0.950 . S
H1150 C1171 0.950 . S
H1151 C1174 0.950 . S
H1152 C1175 0.950 . S
H1153 C1177 0.950 . S
H1154 C1178 0.950 . S
H1155 C1179 0.951 . S
H1156 C1181 0.951 . S
H1157 C1183 0.950 . S
H1158 C1184 0.950 . S
H1159 C1186 0.950 . S
H1160 C1189 0.950 . S
H1161 C1190 0.950 . S
H1162 C1192 0.950 . S
H1163 C1193 0.950 . S
C1164 H1146 0.951 . S
C1164 C1165 1.366 . S
C1164 C1166 1.388 . S
C1165 C1164 1.366 . S
C1165 C1169 1.385 . S
C1166 H1147 0.951 . S
C1166 C1164 1.388 . S
C1166 C1167 1.366 . S
C1167 C1166 1.366 . S
C1167 C1168 1.414 . S
C1167 C1170 1.499 . S
C1168 H1148 0.950 . S
C1168 C1167 1.414 . S
C1168 C1169 1.374 . S
C1169 H1149 0.950 . S
C1169 C1165 1.385 . S
C1169 C1168 1.374 . S
C1170 C1167 1.499 . S
C1170 C1171 1.373 . S
C1170 C1172 1.389 . S
C1171 H1150 0.950 . S
C1171 C1170 1.373 . S
C1171 C1187 1.377 . S
C1172 C1170 1.389 . S
C1172 C1173 1.524 . S
C1172 C1186 1.377 . S
C1173 C1172 1.524 . S
C1173 C1174 1.397 . S
C1173 C1178 1.363 . S
C1174 H1151 0.950 . S
C1174 C1173 1.397 . S
C1174 C1175 1.334 . S
C1175 H1152 0.950 . S
C1175 C1174 1.334 . S
C1175 C1176 1.287 . S
C1176 C1175 1.287 . S
C1176 C1177 1.524 . S
C1176 H1195 0.913 . S
C1177 H1153 0.950 . S
C1177 C1176 1.524 . S
C1177 C1178 1.415 . S
C1178 H1154 0.950 . S
C1178 C1173 1.363 . S
C1178 C1177 1.415 . S
C1179 H1155 0.951 . S
C1179 C1180 1.366 . S
C1179 C1181 1.388 . S
C1180 C1179 1.366 . S
C1180 C1184 1.385 . S
C1181 H1156 0.951 . S
C1181 C1179 1.388 . S
C1181 C1182 1.366 . S
C1182 C1181 1.366 . S
C1182 C1183 1.414 . S
C1182 C1185 1.499 . S
C1183 H1157 0.950 . S
C1183 C1182 1.414 . S
C1183 C1184 1.374 . S
C1184 H1158 0.950 . S
C1184 C1180 1.385 . S
C1184 C1183 1.374 . S
C1185 C1182 1.499 . S
C1185 C1186 1.373 . S
C1185 C1187 1.389 . S
C1186 H1159 0.950 . S
C1186 C1172 1.377 . S
C1186 C1185 1.373 . S
C1187 C1171 1.377 . S
C1187 C1185 1.389 . S
C1187 C1188 1.524 . S
C1188 C1187 1.524 . S
C1188 C1189 1.397 . S
C1188 C1193 1.363 . S
C1189 H1160 0.950 . S
C1189 C1188 1.397 . S
C1189 C1190 1.334 . S
C1190 H1161 0.950 . S
C1190 C1189 1.334 . S
C1190 C1191 1.287 . S
C1191 C1190 1.287 . S
C1191 C1192 1.524 . S
C1191 H1194 0.999 . S
C1192 H1162 0.950 . S
C1192 C1191 1.524 . S
C1192 C1193 1.415 . S
C1193 H1163 0.950 . S
C1193 C1188 1.363 . S
C1193 C1192 1.415 . S
H1194 C1191 0.999 . S
H1195 C1176 0.913 . S
H1196 C1214 0.951 . S
H1197 C1216 0.951 . S
H1198 C1218 0.950 . S
H1199 C1219 0.950 . S
H1200 C1221 0.950 . S
H1201 C1224 0.950 . S
H1202 C1225 0.950 . S
H1203 C1227 0.950 . S
H1204 C1228 0.950 . S
H1205 C1229 0.951 . S
H1206 C1231 0.951 . S
H1207 C1233 0.950 . S
H1208 C1234 0.950 . S
H1209 C1236 0.950 . S
H1210 C1239 0.950 . S
H1211 C1240 0.950 . S
H1212 C1242 0.950 . S
H1213 C1243 0.950 . S
C1214 H1196 0.951 . S
C1214 C1215 1.366 . S
C1214 C1216 1.388 . S
C1215 C1214 1.366 . S
C1215 C1219 1.385 . S
C1216 H1197 0.951 . S
C1216 C1214 1.388 . S
C1216 C1217 1.366 . S
C1217 C1216 1.366 . S
C1217 C1218 1.414 . S
C1217 C1220 1.499 . S
C1218 H1198 0.950 . S
C1218 C1217 1.414 . S
C1218 C1219 1.374 . S
C1219 H1199 0.950 . S
C1219 C1215 1.385 . S
C1219 C1218 1.374 . S
C1220 C1217 1.499 . S
C1220 C1221 1.373 . S
C1220 C1222 1.389 . S
C1221 H1200 0.950 . S
C1221 C1220 1.373 . S
C1221 C1237 1.377 . S
C1222 C1220 1.389 . S
C1222 C1223 1.524 . S
C1222 C1236 1.377 . S
C1223 C1222 1.524 . S
C1223 C1224 1.397 . S
C1223 C1228 1.363 . S
C1224 H1201 0.950 . S
C1224 C1223 1.397 . S
C1224 C1225 1.334 . S
C1225 H1202 0.950 . S
C1225 C1224 1.334 . S
C1225 C1226 1.287 . S
C1226 C1225 1.287 . S
C1226 C1227 1.524 . S
C1226 H1245 0.913 . S
C1227 H1203 0.950 . S
C1227 C1226 1.524 . S
C1227 C1228 1.415 . S
C1228 H1204 0.950 . S
C1228 C1223 1.363 . S
C1228 C1227 1.415 . S
C1229 H1205 0.951 . S
C1229 C1230 1.366 . S
C1229 C1231 1.388 . S
C1230 C1229 1.366 . S
C1230 C1234 1.385 . S
C1231 H1206 0.951 . S
C1231 C1229 1.388 . S
C1231 C1232 1.366 . S
C1232 C1231 1.366 . S
C1232 C1233 1.414 . S
C1232 C1235 1.499 . S
C1233 H1207 0.950 . S
C1233 C1232 1.414 . S
C1233 C1234 1.374 . S
C1234 H1208 0.950 . S
C1234 C1230 1.385 . S
C1234 C1233 1.374 . S
C1235 C1232 1.499 . S
C1235 C1236 1.373 . S
C1235 C1237 1.389 . S
C1236 H1209 0.950 . S
C1236 C1222 1.377 . S
C1236 C1235 1.373 . S
C1237 C1221 1.377 . S
C1237 C1235 1.389 . S
C1237 C1238 1.524 . S
C1238 C1237 1.524 . S
C1238 C1239 1.397 . S
C1238 C1243 1.363 . S
C1239 H1210 0.950 . S
C1239 C1238 1.397 . S
C1239 C1240 1.334 . S
C1240 H1211 0.950 . S
C1240 C1239 1.334 . S
C1240 C1241 1.287 . S
C1241 C1240 1.287 . S
C1241 C1242 1.524 . S
C1241 H1244 0.999 . S
C1242 H1212 0.950 . S
C1242 C1241 1.524 . S
C1242 C1243 1.415 . S
C1243 H1213 0.950 . S
C1243 C1238 1.363 . S
C1243 C1242 1.415 . S
H1244 C1241 0.999 . S
H1245 C1226 0.913 . S
H1246 C1264 0.951 . S
H1247 C1266 0.951 . S
H1248 C1268 0.950 . S
H1249 C1269 0.950 . S
H1250 C1271 0.950 . S
H1251 C1274 0.950 . S
H1252 C1275 0.950 . S
H1253 C1277 0.950 . S
H1254 C1278 0.950 . S
H1255 C1279 0.951 . S
H1256 C1281 0.951 . S
H1257 C1283 0.950 . S
H1258 C1284 0.950 . S
H1259 C1286 0.950 . S
H1260 C1289 0.950 . S
H1261 C1290 0.950 . S
H1262 C1292 0.950 . S
H1263 C1293 0.950 . S
C1264 H1246 0.951 . S
C1264 C1265 1.366 . S
C1264 C1266 1.388 . S
C1265 C1264 1.366 . S
C1265 C1269 1.385 . S
C1266 H1247 0.951 . S
C1266 C1264 1.388 . S
C1266 C1267 1.366 . S
C1267 C1266 1.366 . S
C1267 C1268 1.414 . S
C1267 C1270 1.499 . S
C1268 H1248 0.950 . S
C1268 C1267 1.414 . S
C1268 C1269 1.374 . S
C1269 H1249 0.950 . S
C1269 C1265 1.385 . S
C1269 C1268 1.374 . S
C1270 C1267 1.499 . S
C1270 C1271 1.373 . S
C1270 C1272 1.389 . S
C1271 H1250 0.950 . S
C1271 C1270 1.373 . S
C1271 C1287 1.377 . S
C1272 C1270 1.389 . S
C1272 C1273 1.524 . S
C1272 C1286 1.377 . S
C1273 C1272 1.524 . S
C1273 C1274 1.397 . S
C1273 C1278 1.363 . S
C1274 H1251 0.950 . S
C1274 C1273 1.397 . S
C1274 C1275 1.334 . S
C1275 H1252 0.950 . S
C1275 C1274 1.334 . S
C1275 C1276 1.287 . S
C1276 C1275 1.287 . S
C1276 C1277 1.524 . S
C1276 H1295 0.913 . S
C1277 H1253 0.950 . S
C1277 C1276 1.524 . S
C1277 C1278 1.415 . S
C1278 H1254 0.950 . S
C1278 C1273 1.363 . S
C1278 C1277 1.415 . S
C1279 H1255 0.951 . S
C1279 C1280 1.366 . S
C1279 C1281 1.388 . S
C1280 C1279 1.366 . S
C1280 C1284 1.385 . S
C1281 H1256 0.951 . S
C1281 C1279 1.388 . S
C1281 C1282 1.366 . S
C1282 C1281 1.366 . S
C1282 C1283 1.414 . S
C1282 C1285 1.499 . S
C1283 H1257 0.950 . S
C1283 C1282 1.414 . S
C1283 C1284 1.374 . S
C1284 H1258 0.950 . S
C1284 C1280 1.385 . S
C1284 C1283 1.374 . S
C1285 C1282 1.499 . S
C1285 C1286 1.373 . S
C1285 C1287 1.389 . S
C1286 H1259 0.950 . S
C1286 C1272 1.377 . S
C1286 C1285 1.373 . S
C1287 C1271 1.377 . S
C1287 C1285 1.389 . S
C1287 C1288 1.524 . S
C1288 C1287 1.524 . S
C1288 C1289 1.397 . S
C1288 C1293 1.363 . S
C1289 H1260 0.950 . S
C1289 C1288 1.397 . S
C1289 C1290 1.334 . S
C1290 H1261 0.950 . S
C1290 C1289 1.334 . S
C1290 C1291 1.287 . S
C1291 C1290 1.287 . S
C1291 C1292 1.524 . S
C1291 H1294 0.999 . S
C1292 H1262 0.950 . S
C1292 C1291 1.524 . S
C1292 C1293 1.415 . S
C1293 H1263 0.950 . S
C1293 C1288 1.363 . S
C1293 C1292 1.415 . S
H1294 C1291 0.999 . S
H1295 C1276 0.913 . S
H1296 C1314 0.951 . S
H1297 C1316 0.951 . S
H1298 C1318 0.950 . S
H1299 C1319 0.950 . S
H1300 C1321 0.950 . S
H1301 C1324 0.950 . S
H1302 C1325 0.950 . S
H1303 C1327 0.950 . S
H1304 C1328 0.950 . S
H1305 C1329 0.951 . S
H1306 C1331 0.951 . S
H1307 C1333 0.950 . S
H1308 C1334 0.950 . S
H1309 C1336 0.950 . S
H1310 C1339 0.950 . S
H1311 C1340 0.950 . S
H1312 C1342 0.950 . S
H1313 C1343 0.950 . S
C1314 H1296 0.951 . S
C1314 C1315 1.366 . S
C1314 C1316 1.388 . S
C1315 C1314 1.366 . S
C1315 C1319 1.385 . S
C1316 H1297 0.951 . S
C1316 C1314 1.388 . S
C1316 C1317 1.366 . S
C1317 C1316 1.366 . S
C1317 C1318 1.414 . S
C1317 C1320 1.499 . S
C1318 H1298 0.950 . S
C1318 C1317 1.414 . S
C1318 C1319 1.374 . S
C1319 H1299 0.950 . S
C1319 C1315 1.385 . S
C1319 C1318 1.374 . S
C1320 C1317 1.499 . S
C1320 C1321 1.373 . S
C1320 C1322 1.389 . S
C1321 H1300 0.950 . S
C1321 C1320 1.373 . S
C1321 C1337 1.377 . S
C1322 C1320 1.389 . S
C1322 C1323 1.524 . S
C1322 C1336 1.377 . S
C1323 C1322 1.524 . S
C1323 C1324 1.397 . S
C1323 C1328 1.363 . S
C1324 H1301 0.950 . S
C1324 C1323 1.397 . S
C1324 C1325 1.334 . S
C1325 H1302 0.950 . S
C1325 C1324 1.334 . S
C1325 C1326 1.287 . S
C1326 C1325 1.287 . S
C1326 C1327 1.524 . S
C1326 H1345 0.913 . S
C1327 H1303 0.950 . S
C1327 C1326 1.524 . S
C1327 C1328 1.415 . S
C1328 H1304 0.950 . S
C1328 C1323 1.363 . S
C1328 C1327 1.415 . S
C1329 H1305 0.951 . S
C1329 C1330 1.366 . S
C1329 C1331 1.388 . S
C1330 C1329 1.366 . S
C1330 C1334 1.385 . S
C1331 H1306 0.951 . S
C1331 C1329 1.388 . S
C1331 C1332 1.366 . S
C1332 C1331 1.366 . S
C1332 C1333 1.414 . S
C1332 C1335 1.499 . S
C1333 H1307 0.950 . S
C1333 C1332 1.414 . S
C1333 C1334 1.374 . S
C1334 H1308 0.950 . S
C1334 C1330 1.385 . S
C1334 C1333 1.374 . S
C1335 C1332 1.499 . S
C1335 C1336 1.373 . S
C1335 C1337 1.389 . S
C1336 H1309 0.950 . S
C1336 C1322 1.377 . S
C1336 C1335 1.373 . S
C1337 C1321 1.377 . S
C1337 C1335 1.389 . S
C1337 C1338 1.524 . S
C1338 C1337 1.524 . S
C1338 C1339 1.397 . S
C1338 C1343 1.363 . S
C1339 H1310 0.950 . S
C1339 C1338 1.397 . S
C1339 C1340 1.334 . S
C1340 H1311 0.950 . S
C1340 C1339 1.334 . S
C1340 C1341 1.287 . S
C1341 C1340 1.287 . S
C1341 C1342 1.524 . S
C1341 H1344 0.999 . S
C1342 H1312 0.950 . S
C1342 C1341 1.524 . S
C1342 C1343 1.415 . S
C1343 H1313 0.950 . S
C1343 C1338 1.363 . S
C1343 C1342 1.415 . S
H1344 C1341 0.999 . S
H1345 C1326 0.913 . S
H1346 C1364 0.951 . S
H1347 C1366 0.951 . S
H1348 C1368 0.950 . S
H1349 C1369 0.950 . S
H1350 C1371 0.950 . S
H1351 C1374 0.950 . S
H1352 C1375 0.950 . S
H1353 C1377 0.950 . S
H1354 C1378 0.950 . S
H1355 C1379 0.951 . S
H1356 C1381 0.951 . S
H1357 C1383 0.950 . S
H1358 C1384 0.950 . S
H1359 C1386 0.950 . S
H1360 C1389 0.950 . S
H1361 C1390 0.950 . S
H1362 C1392 0.950 . S
H1363 C1393 0.950 . S
C1364 H1346 0.951 . S
C1364 C1365 1.366 . S
C1364 C1366 1.388 . S
C1365 C1364 1.366 . S
C1365 C1369 1.385 . S
C1366 H1347 0.951 . S
C1366 C1364 1.388 . S
C1366 C1367 1.366 . S
C1367 C1366 1.366 . S
C1367 C1368 1.414 . S
C1367 C1370 1.499 . S
C1368 H1348 0.950 . S
C1368 C1367 1.414 . S
C1368 C1369 1.374 . S
C1369 H1349 0.950 . S
C1369 C1365 1.385 . S
C1369 C1368 1.374 . S
C1370 C1367 1.499 . S
C1370 C1371 1.373 . S
C1370 C1372 1.389 . S
C1371 H1350 0.950 . S
C1371 C1370 1.373 . S
C1371 C1387 1.377 . S
C1372 C1370 1.389 . S
C1372 C1373 1.524 . S
C1372 C1386 1.377 . S
C1373 C1372 1.524 . S
C1373 C1374 1.397 . S
C1373 C1378 1.363 . S
C1374 H1351 0.950 . S
C1374 C1373 1.397 . S
C1374 C1375 1.334 . S
C1375 H1352 0.950 . S
C1375 C1374 1.334 . S
C1375 C1376 1.287 . S
C1376 C1375 1.287 . S
C1376 C1377 1.524 . S
C1376 H1395 0.913 . S
C1377 H1353 0.950 . S
C1377 C1376 1.524 . S
C1377 C1378 1.415 . S
C1378 H1354 0.950 . S
C1378 C1373 1.363 . S
C1378 C1377 1.415 . S
C1379 H1355 0.951 . S
C1379 C1380 1.366 . S
C1379 C1381 1.388 . S
C1380 C1379 1.366 . S
C1380 C1384 1.385 . S
C1381 H1356 0.951 . S
C1381 C1379 1.388 . S
C1381 C1382 1.366 . S
C1382 C1381 1.366 . S
C1382 C1383 1.414 . S
C1382 C1385 1.499 . S
C1383 H1357 0.950 . S
C1383 C1382 1.414 . S
C1383 C1384 1.374 . S
C1384 H1358 0.950 . S
C1384 C1380 1.385 . S
C1384 C1383 1.374 . S
C1385 C1382 1.499 . S
C1385 C1386 1.373 . S
C1385 C1387 1.389 . S
C1386 H1359 0.950 . S
C1386 C1372 1.377 . S
C1386 C1385 1.373 . S
C1387 C1371 1.377 . S
C1387 C1385 1.389 . S
C1387 C1388 1.524 . S
C1388 C1387 1.524 . S
C1388 C1389 1.397 . S
C1388 C1393 1.363 . S
C1389 H1360 0.950 . S
C1389 C1388 1.397 . S
C1389 C1390 1.334 . S
C1390 H1361 0.950 . S
C1390 C1389 1.334 . S
C1390 C1391 1.287 . S
C1391 C1390 1.287 . S
C1391 C1392 1.524 . S
C1391 H1394 0.999 . S
C1392 H1362 0.950 . S
C1392 C1391 1.524 . S
C1392 C1393 1.415 . S
C1393 H1363 0.950 . S
C1393 C1388 1.363 . S
C1393 C1392 1.415 . S
H1394 C1391 0.999 . S
H1395 C1376 0.913 . S
H1396 C1414 0.951 . S
H1397 C1416 0.951 . S
H1398 C1418 0.950 . S
H1399 C1419 0.950 . S
H1400 C1421 0.950 . S
H1401 C1424 0.950 . S
H1402 C1425 0.950 . S
H1403 C1427 0.950 . S
H1404 C1428 0.950 . S
H1405 C1429 0.951 . S
H1406 C1431 0.951 . S
H1407 C1433 0.950 . S
H1408 C1434 0.950 . S
H1409 C1436 0.950 . S
H1410 C1439 0.950 . S
H1411 C1440 0.950 . S
H1412 C1442 0.950 . S
H1413 C1443 0.950 . S
C1414 H1396 0.951 . S
C1414 C1415 1.366 . S
C1414 C1416 1.388 . S
C1415 C1414 1.366 . S
C1415 C1419 1.385 . S
C1416 H1397 0.951 . S
C1416 C1414 1.388 . S
C1416 C1417 1.366 . S
C1417 C1416 1.366 . S
C1417 C1418 1.414 . S
C1417 C1420 1.499 . S
C1418 H1398 0.950 . S
C1418 C1417 1.414 . S
C1418 C1419 1.374 . S
C1419 H1399 0.950 . S
C1419 C1415 1.385 . S
C1419 C1418 1.374 . S
C1420 C1417 1.499 . S
C1420 C1421 1.373 . S
C1420 C1422 1.389 . S
C1421 H1400 0.950 . S
C1421 C1420 1.373 . S
C1421 C1437 1.377 . S
C1422 C1420 1.389 . S
C1422 C1423 1.524 . S
C1422 C1436 1.377 . S
C1423 C1422 1.524 . S
C1423 C1424 1.397 . S
C1423 C1428 1.363 . S
C1424 H1401 0.950 . S
C1424 C1423 1.397 . S
C1424 C1425 1.334 . S
C1425 H1402 0.950 . S
C1425 C1424 1.334 . S
C1425 C1426 1.287 . S
C1426 C1425 1.287 . S
C1426 C1427 1.524 . S
C1426 H1445 0.913 . S
C1427 H1403 0.950 . S
C1427 C1426 1.524 . S
C1427 C1428 1.415 . S
C1428 H1404 0.950 . S
C1428 C1423 1.363 . S
C1428 C1427 1.415 . S
C1429 H1405 0.951 . S
C1429 C1430 1.366 . S
C1429 C1431 1.388 . S
C1430 C1429 1.366 . S
C1430 C1434 1.385 . S
C1431 H1406 0.951 . S
C1431 C1429 1.388 . S
C1431 C1432 1.366 . S
C1432 C1431 1.366 . S
C1432 C1433 1.414 . S
C1432 C1435 1.499 . S
C1433 H1407 0.950 . S
C1433 C1432 1.414 . S
C1433 C1434 1.374 . S
C1434 H1408 0.950 . S
C1434 C1430 1.385 . S
C1434 C1433 1.374 . S
C1435 C1432 1.499 . S
C1435 C1436 1.373 . S
C1435 C1437 1.389 . S
C1436 H1409 0.950 . S
C1436 C1422 1.377 . S
C1436 C1435 1.373 . S
C1437 C1421 1.377 . S
C1437 C1435 1.389 . S
C1437 C1438 1.524 . S
C1438 C1437 1.524 . S
C1438 C1439 1.397 . S
C1438 C1443 1.363 . S
C1439 H1410 0.950 . S
C1439 C1438 1.397 . S
C1439 C1440 1.334 . S
C1440 H1411 0.950 . S
C1440 C1439 1.334 . S
C1440 C1441 1.287 . S
C1441 C1440 1.287 . S
C1441 C1442 1.524 . S
C1441 H1444 0.999 . S
C1442 H1412 0.950 . S
C1442 C1441 1.524 . S
C1442 C1443 1.415 . S
C1443 H1413 0.950 . S
C1443 C1438 1.363 . S
C1443 C1442 1.415 . S
H1444 C1441 0.999 . S
H1445 C1426 0.913 . S
H1446 C1464 0.951 . S
H1447 C1466 0.951 . S
H1448 C1468 0.950 . S
H1449 C1469 0.950 . S
H1450 C1471 0.950 . S
H1451 C1474 0.950 . S
H1452 C1475 0.950 . S
H1453 C1477 0.950 . S
H1454 C1478 0.950 . S
H1455 C1479 0.951 . S
H1456 C1481 0.951 . S
H1457 C1483 0.950 . S
H1458 C1484 0.950 . S
H1459 C1486 0.950 . S
H1460 C1489 0.950 . S
H1461 C1490 0.950 . S
H1462 C1492 0.950 . S
H1463 C1493 0.950 . S
C1464 H1446 0.951 . S
C1464 C1465 1.366 . S
C1464 C1466 1.388 . S
C1465 C1464 1.366 . S
C1465 C1469 1.385 . S
C1466 H1447 0.951 . S
C1466 C1464 1.388 . S
C1466 C1467 1.366 . S
C1467 C1466 1.366 . S
C1467 C1468 1.414 . S
C1467 C1470 1.499 . S
C1468 H1448 0.950 . S
C1468 C1467 1.414 . S
C1468 C1469 1.374 . S
C1469 H1449 0.950 . S
C1469 C1465 1.385 . S
C1469 C1468 1.374 . S
C1470 C1467 1.499 . S
C1470 C1471 1.373 . S
C1470 C1472 1.389 . S
C1471 H1450 0.950 . S
C1471 C1470 1.373 . S
C1471 C1487 1.377 . S
C1472 C1470 1.389 . S
C1472 C1473 1.524 . S
C1472 C1486 1.377 . S
C1473 C1472 1.524 . S
C1473 C1474 1.397 . S
C1473 C1478 1.363 . S
C1474 H1451 0.950 . S
C1474 C1473 1.397 . S
C1474 C1475 1.334 . S
C1475 H1452 0.950 . S
C1475 C1474 1.334 . S
C1475 C1476 1.287 . S
C1476 C1475 1.287 . S
C1476 C1477 1.524 . S
C1476 H1495 0.913 . S
C1477 H1453 0.950 . S
C1477 C1476 1.524 . S
C1477 C1478 1.415 . S
C1478 H1454 0.950 . S
C1478 C1473 1.363 . S
C1478 C1477 1.415 . S
C1479 H1455 0.951 . S
C1479 C1480 1.366 . S
C1479 C1481 1.388 . S
C1480 C1479 1.366 . S
C1480 C1484 1.385 . S
C1481 H1456 0.951 . S
C1481 C1479 1.388 . S
C1481 C1482 1.366 . S
C1482 C1481 1.366 . S
C1482 C1483 1.414 . S
C1482 C1485 1.499 . S
C1483 H1457 0.950 . S
C1483 C1482 1.414 . S
C1483 C1484 1.374 . S
C1484 H1458 0.950 . S
C1484 C1480 1.385 . S
C1484 C1483 1.374 . S
C1485 C1482 1.499 . S
C1485 C1486 1.373 . S
C1485 C1487 1.389 . S
C1486 H1459 0.950 . S
C1486 C1472 1.377 . S
C1486 C1485 1.373 . S
C1487 C1471 1.377 . S
C1487 C1485 1.389 . S
C1487 C1488 1.524 . S
C1488 C1487 1.524 . S
C1488 C1489 1.397 . S
C1488 C1493 1.363 . S
C1489 H1460 0.950 . S
C1489 C1488 1.397 . S
C1489 C1490 1.334 . S
C1490 H1461 0.950 . S
C1490 C1489 1.334 . S
C1490 C1491 1.287 . S
C1491 C1490 1.287 . S
C1491 C1492 1.524 . S
C1491 H1494 0.999 . S
C1492 H1462 0.950 . S
C1492 C1491 1.524 . S
C1492 C1493 1.415 . S
C1493 H1463 0.950 . S
C1493 C1488 1.363 . S
C1493 C1492 1.415 . S
H1494 C1491 0.999 . S
H1495 C1476 0.913 . S
H1496 C1514 0.951 . S
H1497 C1516 0.951 . S
H1498 C1518 0.950 . S
H1499 C1519 0.950 . S
H1500 C1521 0.950 . S
H1501 C1524 0.950 . S
H1502 C1525 0.950 . S
H1503 C1527 0.950 . S
H1504 C1528 0.950 . S
H1505 C1529 0.951 . S
H1506 C1531 0.951 . S
H1507 C1533 0.950 . S
H1508 C1534 0.950 . S
H1509 C1536 0.950 . S
H1510 C1539 0.950 . S
H1511 C1540 0.950 . S
H1512 C1542 0.950 . S
H1513 C1543 0.950 . S
C1514 H1496 0.951 . S
C1514 C1515 1.366 . S
C1514 C1516 1.388 . S
C1515 C1514 1.366 . S
C1515 C1519 1.385 . S
C1516 H1497 0.951 . S
C1516 C1514 1.388 . S
C1516 C1517 1.366 . S
C1517 C1516 1.366 . S
C1517 C1518 1.414 . S
C1517 C1520 1.499 . S
C1518 H1498 0.950 . S
C1518 C1517 1.414 . S
C1518 C1519 1.374 . S
C1519 H1499 0.950 . S
C1519 C1515 1.385 . S
C1519 C1518 1.374 . S
C1520 C1517 1.499 . S
C1520 C1521 1.373 . S
C1520 C1522 1.389 . S
C1521 H1500 0.950 . S
C1521 C1520 1.373 . S
C1521 C1537 1.377 . S
C1522 C1520 1.389 . S
C1522 C1523 1.524 . S
C1522 C1536 1.377 . S
C1523 C1522 1.524 . S
C1523 C1524 1.397 . S
C1523 C1528 1.363 . S
C1524 H1501 0.950 . S
C1524 C1523 1.397 . S
C1524 C1525 1.334 . S
C1525 H1502 0.950 . S
C1525 C1524 1.334 . S
C1525 C1526 1.287 . S
C1526 C1525 1.287 . S
C1526 C1527 1.524 . S
C1526 H1545 0.913 . S
C1527 H1503 0.950 . S
C1527 C1526 1.524 . S
C1527 C1528 1.415 . S
C1528 H1504 0.950 . S
C1528 C1523 1.363 . S
C1528 C1527 1.415 . S
C1529 H1505 0.951 . S
C1529 C1530 1.366 . S
C1529 C1531 1.388 . S
C1530 C1529 1.366 . S
C1530 C1534 1.385 . S
C1531 H1506 0.951 . S
C1531 C1529 1.388 . S
C1531 C1532 1.366 . S
C1532 C1531 1.366 . S
C1532 C1533 1.414 . S
C1532 C1535 1.499 . S
C1533 H1507 0.950 . S
C1533 C1532 1.414 . S
C1533 C1534 1.374 . S
C1534 H1508 0.950 . S
C1534 C1530 1.385 . S
C1534 C1533 1.374 . S
C1535 C1532 1.499 . S
C1535 C1536 1.373 . S
C1535 C1537 1.389 . S
C1536 H1509 0.950 . S
C1536 C1522 1.377 . S
C1536 C1535 1.373 . S
C1537 C1521 1.377 . S
C1537 C1535 1.389 . S
C1537 C1538 1.524 . S
C1538 C1537 1.524 . S
C1538 C1539 1.397 . S
C1538 C1543 1.363 . S
C1539 H1510 0.950 . S
C1539 C1538 1.397 . S
C1539 C1540 1.334 1_554 S
C1540 H1511 0.950 . S
C1540 C1539 1.334 1_556 S
C1540 C1541 1.287 1_556 S
C1541 C1540 1.287 1_554 S
C1541 C1542 1.524 . S
C1541 H1544 0.999 1_554 S
C1542 H1512 0.950 . S
C1542 C1541 1.524 . S
C1542 C1543 1.415 . S
C1543 H1513 0.950 . S
C1543 C1538 1.363 . S
C1543 C1542 1.415 . S
H1544 C1541 0.999 1_556 S
H1545 C1526 0.913 . S
H1546 C1564 0.951 . S
H1547 C1566 0.951 . S
H1548 C1568 0.950 . S
H1549 C1569 0.950 . S
H1550 C1571 0.950 . S
H1551 C1574 0.950 . S
H1552 C1575 0.950 . S
H1553 C1577 0.950 . S
H1554 C1578 0.950 . S
H1555 C1579 0.951 . S
H1556 C1581 0.951 . S
H1557 C1583 0.950 . S
H1558 C1584 0.950 . S
H1559 C1586 0.950 . S
H1560 C1589 0.950 . S
H1561 C1590 0.950 . S
H1562 C1592 0.950 . S
H1563 C1593 0.950 . S
C1564 H1546 0.951 . S
C1564 C1565 1.366 . S
C1564 C1566 1.388 . S
C1565 C1564 1.366 . S
C1565 C1569 1.385 . S
C1566 H1547 0.951 . S
C1566 C1564 1.388 . S
C1566 C1567 1.366 . S
C1567 C1566 1.366 . S
C1567 C1568 1.414 . S
C1567 C1570 1.499 . S
C1568 H1548 0.950 . S
C1568 C1567 1.414 . S
C1568 C1569 1.374 . S
C1569 H1549 0.950 . S
C1569 C1565 1.385 . S
C1569 C1568 1.374 . S
C1570 C1567 1.499 . S
C1570 C1571 1.373 . S
C1570 C1572 1.389 . S
C1571 H1550 0.950 . S
C1571 C1570 1.373 . S
C1571 C1587 1.377 . S
C1572 C1570 1.389 . S
C1572 C1573 1.524 . S
C1572 C1586 1.377 . S
C1573 C1572 1.524 . S
C1573 C1574 1.397 . S
C1573 C1578 1.363 . S
C1574 H1551 0.950 . S
C1574 C1573 1.397 . S
C1574 C1575 1.334 . S
C1575 H1552 0.950 . S
C1575 C1574 1.334 . S
C1575 C1576 1.287 . S
C1576 C1575 1.287 . S
C1576 C1577 1.524 . S
C1576 H1595 0.913 . S
C1577 H1553 0.950 . S
C1577 C1576 1.524 . S
C1577 C1578 1.415 . S
C1578 H1554 0.950 . S
C1578 C1573 1.363 . S
C1578 C1577 1.415 . S
C1579 H1555 0.951 . S
C1579 C1580 1.366 . S
C1579 C1581 1.388 . S
C1580 C1579 1.366 . S
C1580 C1584 1.385 . S
C1581 H1556 0.951 . S
C1581 C1579 1.388 . S
C1581 C1582 1.366 . S
C1582 C1581 1.366 . S
C1582 C1583 1.414 . S
C1582 C1585 1.499 . S
C1583 H1557 0.950 . S
C1583 C1582 1.414 . S
C1583 C1584 1.374 . S
C1584 H1558 0.950 . S
C1584 C1580 1.385 . S
C1584 C1583 1.374 . S
C1585 C1582 1.499 . S
C1585 C1586 1.373 . S
C1585 C1587 1.389 . S
C1586 H1559 0.950 . S
C1586 C1572 1.377 . S
C1586 C1585 1.373 . S
C1587 C1571 1.377 . S
C1587 C1585 1.389 . S
C1587 C1588 1.524 . S
C1588 C1587 1.524 . S
C1588 C1589 1.397 . S
C1588 C1593 1.363 . S
C1589 H1560 0.950 . S
C1589 C1588 1.397 . S
C1589 C1590 1.334 . S
C1590 H1561 0.950 . S
C1590 C1589 1.334 . S
C1590 C1591 1.287 . S
C1591 C1590 1.287 . S
C1591 C1592 1.524 . S
C1591 H1594 0.999 . S
C1592 H1562 0.950 . S
C1592 C1591 1.524 . S
C1592 C1593 1.415 . S
C1593 H1563 0.950 . S
C1593 C1588 1.363 . S
C1593 C1592 1.415 . S
H1594 C1591 0.999 . S
H1595 C1576 0.913 . S
H1596 C1614 0.951 . S
H1597 C1616 0.951 . S
H1598 C1618 0.950 . S
H1599 C1619 0.950 . S
H1600 C1621 0.950 . S
H1601 C1624 0.950 . S
H1602 C1625 0.950 . S
H1603 C1627 0.950 . S
H1604 C1628 0.950 . S
H1605 C1629 0.951 . S
H1606 C1631 0.951 . S
H1607 C1633 0.950 . S
H1608 C1634 0.950 . S
H1609 C1636 0.950 . S
H1610 C1639 0.950 . S
H1611 C1640 0.950 . S
H1612 C1642 0.950 . S
H1613 C1643 0.950 . S
C1614 H1596 0.951 . S
C1614 C1615 1.366 . S
C1614 C1616 1.388 . S
C1615 C1614 1.366 . S
C1615 C1619 1.385 . S
C1616 H1597 0.951 . S
C1616 C1614 1.388 . S
C1616 C1617 1.366 . S
C1617 C1616 1.366 . S
C1617 C1618 1.414 . S
C1617 C1620 1.499 . S
C1618 H1598 0.950 . S
C1618 C1617 1.414 . S
C1618 C1619 1.374 . S
C1619 H1599 0.950 . S
C1619 C1615 1.385 . S
C1619 C1618 1.374 . S
C1620 C1617 1.499 . S
C1620 C1621 1.373 . S
C1620 C1622 1.389 . S
C1621 H1600 0.950 . S
C1621 C1620 1.373 . S
C1621 C1637 1.377 . S
C1622 C1620 1.389 . S
C1622 C1623 1.524 . S
C1622 C1636 1.377 . S
C1623 C1622 1.524 . S
C1623 C1624 1.397 . S
C1623 C1628 1.363 . S
C1624 H1601 0.950 . S
C1624 C1623 1.397 . S
C1624 C1625 1.334 . S
C1625 H1602 0.950 . S
C1625 C1624 1.334 . S
C1625 C1626 1.287 . S
C1626 C1625 1.287 . S
C1626 C1627 1.524 . S
C1626 H1645 0.913 . S
C1627 H1603 0.950 . S
C1627 C1626 1.524 . S
C1627 C1628 1.415 . S
C1628 H1604 0.950 . S
C1628 C1623 1.363 . S
C1628 C1627 1.415 . S
C1629 H1605 0.951 . S
C1629 C1630 1.366 . S
C1629 C1631 1.388 . S
C1630 C1629 1.366 . S
C1630 C1634 1.385 . S
C1631 H1606 0.951 . S
C1631 C1629 1.388 . S
C1631 C1632 1.366 . S
C1632 C1631 1.366 . S
C1632 C1633 1.414 . S
C1632 C1635 1.499 . S
C1633 H1607 0.950 . S
C1633 C1632 1.414 . S
C1633 C1634 1.374 . S
C1634 H1608 0.950 . S
C1634 C1630 1.385 . S
C1634 C1633 1.374 . S
C1635 C1632 1.499 . S
C1635 C1636 1.373 . S
C1635 C1637 1.389 . S
C1636 H1609 0.950 . S
C1636 C1622 1.377 . S
C1636 C1635 1.373 . S
C1637 C1621 1.377 . S
C1637 C1635 1.389 . S
C1637 C1638 1.524 . S
C1638 C1637 1.524 . S
C1638 C1639 1.397 . S
C1638 C1643 1.363 . S
C1639 H1610 0.950 . S
C1639 C1638 1.397 . S
C1639 C1640 1.334 . S
C1640 H1611 0.950 . S
C1640 C1639 1.334 . S
C1640 C1641 1.287 . S
C1641 C1640 1.287 . S
C1641 C1642 1.524 . S
C1641 H1644 0.999 . S
C1642 H1612 0.950 . S
C1642 C1641 1.524 . S
C1642 C1643 1.415 . S
C1643 H1613 0.950 . S
C1643 C1638 1.363 . S
C1643 C1642 1.415 . S
H1644 C1641 0.999 . S
H1645 C1626 0.913 . S
H1646 C1664 0.951 . S
H1647 C1666 0.951 . S
H1648 C1668 0.950 . S
H1649 C1669 0.950 . S
H1650 C1671 0.950 . S
H1651 C1674 0.950 . S
H1652 C1675 0.950 . S
H1653 C1677 0.950 . S
H1654 C1678 0.950 . S
H1655 C1679 0.951 . S
H1656 C1681 0.951 . S
H1657 C1683 0.950 . S
H1658 C1684 0.950 . S
H1659 C1686 0.950 . S
H1660 C1689 0.950 . S
H1661 C1690 0.950 . S
H1662 C1692 0.950 . S
H1663 C1693 0.950 . S
C1664 H1646 0.951 . S
C1664 C1665 1.366 . S
C1664 C1666 1.388 . S
C1665 C1664 1.366 . S
C1665 C1669 1.385 . S
C1666 H1647 0.951 . S
C1666 C1664 1.388 . S
C1666 C1667 1.366 . S
C1667 C1666 1.366 . S
C1667 C1668 1.414 . S
C1667 C1670 1.499 . S
C1668 H1648 0.950 . S
C1668 C1667 1.414 . S
C1668 C1669 1.374 . S
C1669 H1649 0.950 . S
C1669 C1665 1.385 . S
C1669 C1668 1.374 . S
C1670 C1667 1.499 . S
C1670 C1671 1.373 . S
C1670 C1672 1.389 . S
C1671 H1650 0.950 . S
C1671 C1670 1.373 . S
C1671 C1687 1.377 . S
C1672 C1670 1.389 . S
C1672 C1673 1.524 . S
C1672 C1686 1.377 . S
C1673 C1672 1.524 . S
C1673 C1674 1.397 . S
C1673 C1678 1.363 . S
C1674 H1651 0.950 . S
C1674 C1673 1.397 . S
C1674 C1675 1.334 . S
C1675 H1652 0.950 . S
C1675 C1674 1.334 . S
C1675 C1676 1.287 . S
C1676 C1675 1.287 . S
C1676 C1677 1.524 . S
C1676 H1695 0.913 . S
C1677 H1653 0.950 . S
C1677 C1676 1.524 . S
C1677 C1678 1.415 . S
C1678 H1654 0.950 . S
C1678 C1673 1.363 . S
C1678 C1677 1.415 . S
C1679 H1655 0.951 . S
C1679 C1680 1.366 . S
C1679 C1681 1.388 . S
C1680 C1679 1.366 . S
C1680 C1684 1.385 . S
C1681 H1656 0.951 . S
C1681 C1679 1.388 . S
C1681 C1682 1.366 . S
C1682 C1681 1.366 . S
C1682 C1683 1.414 . S
C1682 C1685 1.499 . S
C1683 H1657 0.950 . S
C1683 C1682 1.414 . S
C1683 C1684 1.374 . S
C1684 H1658 0.950 . S
C1684 C1680 1.385 . S
C1684 C1683 1.374 . S
C1685 C1682 1.499 . S
C1685 C1686 1.373 . S
C1685 C1687 1.389 . S
C1686 H1659 0.950 . S
C1686 C1672 1.377 . S
C1686 C1685 1.373 . S
C1687 C1671 1.377 . S
C1687 C1685 1.389 . S
C1687 C1688 1.524 . S
C1688 C1687 1.524 . S
C1688 C1689 1.397 . S
C1688 C1693 1.363 . S
C1689 H1660 0.950 . S
C1689 C1688 1.397 . S
C1689 C1690 1.334 . S
C1690 H1661 0.950 . S
C1690 C1689 1.334 . S
C1690 C1691 1.287 . S
C1691 C1690 1.287 . S
C1691 C1692 1.524 . S
C1691 H1694 0.999 . S
C1692 H1662 0.950 . S
C1692 C1691 1.524 . S
C1692 C1693 1.415 . S
C1693 H1663 0.950 . S
C1693 C1688 1.363 . S
C1693 C1692 1.415 . S
H1694 C1691 0.999 . S
H1695 C1676 0.913 . S
H1696 C1714 0.951 . S
H1697 C1716 0.951 . S
H1698 C1718 0.950 . S
H1699 C1719 0.950 . S
H1700 C1721 0.950 . S
H1701 C1724 0.950 . S
H1702 C1725 0.950 . S
H1703 C1727 0.950 . S
H1704 C1728 0.950 . S
H1705 C1729 0.951 . S
H1706 C1731 0.951 . S
H1707 C1733 0.950 . S
H1708 C1734 0.950 . S
H1709 C1736 0.950 . S
H1710 C1739 0.950 . S
H1711 C1740 0.950 . S
H1712 C1742 0.950 . S
H1713 C1743 0.950 . S
C1714 H1696 0.951 . S
C1714 C1715 1.366 . S
C1714 C1716 1.388 . S
C1715 C1714 1.366 . S
C1715 C1719 1.385 . S
C1716 H1697 0.951 . S
C1716 C1714 1.388 . S
C1716 C1717 1.366 . S
C1717 C1716 1.366 . S
C1717 C1718 1.414 . S
C1717 C1720 1.499 . S
C1718 H1698 0.950 . S
C1718 C1717 1.414 . S
C1718 C1719 1.374 . S
C1719 H1699 0.950 . S
C1719 C1715 1.385 . S
C1719 C1718 1.374 . S
C1720 C1717 1.499 . S
C1720 C1721 1.373 . S
C1720 C1722 1.389 . S
C1721 H1700 0.950 . S
C1721 C1720 1.373 . S
C1721 C1737 1.377 . S
C1722 C1720 1.389 . S
C1722 C1723 1.524 . S
C1722 C1736 1.377 . S
C1723 C1722 1.524 . S
C1723 C1724 1.397 . S
C1723 C1728 1.363 . S
C1724 H1701 0.950 . S
C1724 C1723 1.397 . S
C1724 C1725 1.334 . S
C1725 H1702 0.950 . S
C1725 C1724 1.334 . S
C1725 C1726 1.287 . S
C1726 C1725 1.287 . S
C1726 C1727 1.524 . S
C1726 H1745 0.913 . S
C1727 H1703 0.950 . S
C1727 C1726 1.524 . S
C1727 C1728 1.415 . S
C1728 H1704 0.950 . S
C1728 C1723 1.363 . S
C1728 C1727 1.415 . S
C1729 H1705 0.951 . S
C1729 C1730 1.366 . S
C1729 C1731 1.388 . S
C1730 C1729 1.366 . S
C1730 C1734 1.385 . S
C1731 H1706 0.951 . S
C1731 C1729 1.388 . S
C1731 C1732 1.366 . S
C1732 C1731 1.366 . S
C1732 C1733 1.414 . S
C1732 C1735 1.499 . S
C1733 H1707 0.950 . S
C1733 C1732 1.414 . S
C1733 C1734 1.374 . S
C1734 H1708 0.950 . S
C1734 C1730 1.385 . S
C1734 C1733 1.374 . S
C1735 C1732 1.499 . S
C1735 C1736 1.373 . S
C1735 C1737 1.389 . S
C1736 H1709 0.950 . S
C1736 C1722 1.377 . S
C1736 C1735 1.373 . S
C1737 C1721 1.377 . S
C1737 C1735 1.389 . S
C1737 C1738 1.524 . S
C1738 C1737 1.524 . S
C1738 C1739 1.397 . S
C1738 C1743 1.363 . S
C1739 H1710 0.950 . S
C1739 C1738 1.397 . S
C1739 C1740 1.334 . S
C1740 H1711 0.950 . S
C1740 C1739 1.334 . S
C1740 C1741 1.287 . S
C1741 C1740 1.287 . S
C1741 C1742 1.524 . S
C1741 H1744 0.999 . S
C1742 H1712 0.950 . S
C1742 C1741 1.524 . S
C1742 C1743 1.415 . S
C1743 H1713 0.950 . S
C1743 C1738 1.363 . S
C1743 C1742 1.415 . S
H1744 C1741 0.999 . S
H1745 C1726 0.913 . S
H1746 C1764 0.951 . S
H1747 C1766 0.951 . S
H1748 C1768 0.950 . S
H1749 C1769 0.950 . S
H1750 C1771 0.950 . S
H1751 C1774 0.950 . S
H1752 C1775 0.950 . S
H1753 C1777 0.950 . S
H1754 C1778 0.950 . S
H1755 C1779 0.985 . S
H1756 C1781 0.951 . S
H1757 C1783 0.950 . S
H1758 C1784 0.950 . S
H1759 C1786 0.950 . S
H1760 C1789 0.950 . S
H1761 C1790 0.950 1_455 S
H1762 C1792 0.950 . S
H1763 C1793 0.950 . S
C1764 H1746 0.951 . S
C1764 C1765 1.366 . S
C1764 C1766 1.388 . S
C1765 C1764 1.366 . S
C1765 C1769 1.385 . S
C1766 H1747 0.951 . S
C1766 C1764 1.388 . S
C1766 C1767 1.366 . S
C1767 C1766 1.366 . S
C1767 C1768 1.414 . S
C1767 C1770 1.499 . S
C1768 H1748 0.950 . S
C1768 C1767 1.414 . S
C1768 C1769 1.374 . S
C1769 H1749 0.950 . S
C1769 C1765 1.385 . S
C1769 C1768 1.374 . S
C1770 C1767 1.499 . S
C1770 C1771 1.373 . S
C1770 C1772 1.389 . S
C1771 H1750 0.950 . S
C1771 C1770 1.373 . S
C1771 C1787 1.377 . S
C1772 C1770 1.389 . S
C1772 C1773 1.524 . S
C1772 C1786 1.377 . S
C1773 C1772 1.524 . S
C1773 C1774 1.397 . S
C1773 C1778 1.363 . S
C1774 H1751 0.950 . S
C1774 C1773 1.397 . S
C1774 C1775 1.334 . S
C1775 H1752 0.950 . S
C1775 C1774 1.334 . S
C1775 C1776 1.287 . S
C1776 C1775 1.287 . S
C1776 C1777 1.524 . S
C1776 H1795 0.913 . S
C1777 H1753 0.950 . S
C1777 C1776 1.524 . S
C1777 C1778 1.415 . S
C1778 H1754 0.950 . S
C1778 C1773 1.363 . S
C1778 C1777 1.415 . S
C1779 H1755 0.985 . S
C1779 C1780 1.366 . S
C1779 C1781 1.388 . S
C1780 C1779 1.366 . S
C1780 C1784 1.385 . S
C1781 H1756 0.951 . S
C1781 C1779 1.388 . S
C1781 C1782 1.366 . S
C1782 C1781 1.366 . S
C1782 C1783 1.414 . S
C1782 C1785 1.499 . S
C1783 H1757 0.950 . S
C1783 C1782 1.414 . S
C1783 C1784 1.374 . S
C1784 H1758 0.950 . S
C1784 C1780 1.385 . S
C1784 C1783 1.374 . S
C1785 C1782 1.499 . S
C1785 C1786 1.373 . S
C1785 C1787 1.389 . S
C1786 H1759 0.950 . S
C1786 C1772 1.377 . S
C1786 C1785 1.373 . S
C1787 C1771 1.377 . S
C1787 C1785 1.389 . S
C1787 C1788 1.524 . S
C1788 C1787 1.524 . S
C1788 C1789 1.397 . S
C1788 C1793 1.363 . S
C1789 H1760 0.950 . S
C1789 C1788 1.397 . S
C1789 C1790 1.334 . S
C1790 H1761 0.950 1_655 S
C1790 C1789 1.334 . S
C1790 C1791 1.284 . S
C1791 C1790 1.284 . S
C1791 C1792 1.558 . S
C1791 H1794 0.966 1_655 S
C1792 H1762 0.950 . S
C1792 C1791 1.558 . S
C1792 C1793 1.415 . S
C1793 H1763 0.950 . S
C1793 C1788 1.363 . S
C1793 C1792 1.415 . S
H1794 C1791 0.966 1_455 S
H1795 C1776 0.913 . S
H1796 C1814 0.951 . S
H1797 C1816 0.951 . S
H1798 C1818 0.950 . S
H1799 C1819 0.950 . S
H1800 C1821 0.950 . S
H1801 C1824 0.950 . S
H1802 C1825 0.950 . S
H1803 C1827 0.950 . S
H1804 C1828 0.950 . S
H1805 C1829 0.951 . S
H1806 C1831 0.951 . S
H1807 C1833 0.950 . S
H1808 C1834 0.950 . S
H1809 C1836 0.950 . S
H1810 C1839 0.950 . S
H1811 C1840 0.950 . S
H1812 C1842 0.950 . S
H1813 C1843 0.950 . S
C1814 H1796 0.951 . S
C1814 C1815 1.366 . S
C1814 C1816 1.388 . S
C1815 C1814 1.366 . S
C1815 C1819 1.385 . S
C1816 H1797 0.951 . S
C1816 C1814 1.388 . S
C1816 C1817 1.366 . S
C1817 C1816 1.366 . S
C1817 C1818 1.414 . S
C1817 C1820 1.499 . S
C1818 H1798 0.950 . S
C1818 C1817 1.414 . S
C1818 C1819 1.374 . S
C1819 H1799 0.950 . S
C1819 C1815 1.385 . S
C1819 C1818 1.374 . S
C1820 C1817 1.499 . S
C1820 C1821 1.373 . S
C1820 C1822 1.389 . S
C1821 H1800 0.950 . S
C1821 C1820 1.373 . S
C1821 C1837 1.377 . S
C1822 C1820 1.389 . S
C1822 C1823 1.524 . S
C1822 C1836 1.377 . S
C1823 C1822 1.524 . S
C1823 C1824 1.397 . S
C1823 C1828 1.363 . S
C1824 H1801 0.950 . S
C1824 C1823 1.397 . S
C1824 C1825 1.334 . S
C1825 H1802 0.950 . S
C1825 C1824 1.334 . S
C1825 C1826 1.287 . S
C1826 C1825 1.287 . S
C1826 C1827 1.524 . S
C1826 H1845 0.913 . S
C1827 H1803 0.950 . S
C1827 C1826 1.524 . S
C1827 C1828 1.415 . S
C1828 H1804 0.950 . S
C1828 C1823 1.363 . S
C1828 C1827 1.415 . S
C1829 H1805 0.951 . S
C1829 C1830 1.366 . S
C1829 C1831 1.388 . S
C1830 C1829 1.366 . S
C1830 C1834 1.385 . S
C1831 H1806 0.951 . S
C1831 C1829 1.388 . S
C1831 C1832 1.366 . S
C1832 C1831 1.366 . S
C1832 C1833 1.414 . S
C1832 C1835 1.499 . S
C1833 H1807 0.950 . S
C1833 C1832 1.414 . S
C1833 C1834 1.374 . S
C1834 H1808 0.950 . S
C1834 C1830 1.385 . S
C1834 C1833 1.374 . S
C1835 C1832 1.499 . S
C1835 C1836 1.373 . S
C1835 C1837 1.389 . S
C1836 H1809 0.950 . S
C1836 C1822 1.377 . S
C1836 C1835 1.373 . S
C1837 C1821 1.377 . S
C1837 C1835 1.389 . S
C1837 C1838 1.524 . S
C1838 C1837 1.524 . S
C1838 C1839 1.397 . S
C1838 C1843 1.363 . S
C1839 H1810 0.950 . S
C1839 C1838 1.397 . S
C1839 C1840 1.334 . S
C1840 H1811 0.950 . S
C1840 C1839 1.334 . S
C1840 C1841 1.287 . S
C1841 C1840 1.287 . S
C1841 C1842 1.524 . S
C1841 H1844 0.999 . S
C1842 H1812 0.950 . S
C1842 C1841 1.524 . S
C1842 C1843 1.415 . S
C1843 H1813 0.950 . S
C1843 C1838 1.363 . S
C1843 C1842 1.415 . S
H1844 C1841 0.999 . S
H1845 C1826 0.913 . S
H1846 C1864 0.951 . S
H1847 C1866 0.951 . S
H1848 C1868 0.950 . S
H1849 C1869 0.950 . S
H1850 C1871 0.950 . S
H1851 C1874 0.950 . S
H1852 C1875 0.950 . S
H1853 C1877 0.950 . S
H1854 C1878 0.950 . S
H1855 C1879 0.951 . S
H1856 C1881 0.951 . S
H1857 C1883 0.950 . S
H1858 C1884 0.950 . S
H1859 C1886 0.950 . S
H1860 C1889 0.950 . S
H1861 C1890 0.950 . S
H1862 C1892 0.950 . S
H1863 C1893 0.950 . S
C1864 H1846 0.951 . S
C1864 C1865 1.366 . S
C1864 C1866 1.388 . S
C1865 C1864 1.366 . S
C1865 C1869 1.385 . S
C1866 H1847 0.951 . S
C1866 C1864 1.388 . S
C1866 C1867 1.366 . S
C1867 C1866 1.366 . S
C1867 C1868 1.414 . S
C1867 C1870 1.499 . S
C1868 H1848 0.950 . S
C1868 C1867 1.414 . S
C1868 C1869 1.374 . S
C1869 H1849 0.950 . S
C1869 C1865 1.385 . S
C1869 C1868 1.374 . S
C1870 C1867 1.499 . S
C1870 C1871 1.373 . S
C1870 C1872 1.389 . S
C1871 H1850 0.950 . S
C1871 C1870 1.373 . S
C1871 C1887 1.377 . S
C1872 C1870 1.389 . S
C1872 C1873 1.524 . S
C1872 C1886 1.377 . S
C1873 C1872 1.524 . S
C1873 C1874 1.397 . S
C1873 C1878 1.363 . S
C1874 H1851 0.950 . S
C1874 C1873 1.397 . S
C1874 C1875 1.334 . S
C1875 H1852 0.950 . S
C1875 C1874 1.334 . S
C1875 C1876 1.287 . S
C1876 C1875 1.287 . S
C1876 C1877 1.524 . S
C1876 H1895 0.913 . S
C1877 H1853 0.950 . S
C1877 C1876 1.524 . S
C1877 C1878 1.415 . S
C1878 H1854 0.950 . S
C1878 C1873 1.363 . S
C1878 C1877 1.415 . S
C1879 H1855 0.951 . S
C1879 C1880 1.366 . S
C1879 C1881 1.388 . S
C1880 C1879 1.366 . S
C1880 C1884 1.385 . S
C1881 H1856 0.951 . S
C1881 C1879 1.388 . S
C1881 C1882 1.366 . S
C1882 C1881 1.366 . S
C1882 C1883 1.414 . S
C1882 C1885 1.499 . S
C1883 H1857 0.950 . S
C1883 C1882 1.414 . S
C1883 C1884 1.374 . S
C1884 H1858 0.950 . S
C1884 C1880 1.385 . S
C1884 C1883 1.374 . S
C1885 C1882 1.499 . S
C1885 C1886 1.373 . S
C1885 C1887 1.389 . S
C1886 H1859 0.950 . S
C1886 C1872 1.377 . S
C1886 C1885 1.373 . S
C1887 C1871 1.377 . S
C1887 C1885 1.389 . S
C1887 C1888 1.524 . S
C1888 C1887 1.524 . S
C1888 C1889 1.397 . S
C1888 C1893 1.363 . S
C1889 H1860 0.950 . S
C1889 C1888 1.397 . S
C1889 C1890 1.334 . S
C1890 H1861 0.950 . S
C1890 C1889 1.334 . S
C1890 C1891 1.287 . S
C1891 C1890 1.287 . S
C1891 C1892 1.524 . S
C1891 H1894 0.999 . S
C1892 H1862 0.950 . S
C1892 C1891 1.524 . S
C1892 C1893 1.415 . S
C1893 H1863 0.950 . S
C1893 C1888 1.363 . S
C1893 C1892 1.415 . S
H1894 C1891 0.999 . S
H1895 C1876 0.913 . S
H1896 C1914 0.951 . S
H1897 C1916 0.951 . S
H1898 C1918 0.950 . S
H1899 C1919 0.950 . S
H1900 C1921 0.950 . S
H1901 C1924 0.950 . S
H1902 C1925 0.950 . S
H1903 C1927 0.950 . S
H1904 C1928 0.950 . S
H1905 C1929 0.951 . S
H1906 C1931 0.951 . S
H1907 C1933 0.950 . S
H1908 C1934 0.950 1_554 S
H1909 C1936 0.950 . S
H1910 C1939 0.950 . S
H1911 C1940 0.950 . S
H1912 C1942 0.950 . S
H1913 C1943 0.950 . S
C1914 H1896 0.951 . S
C1914 C1915 1.366 . S
C1914 C1916 1.388 . S
C1915 C1914 1.366 . S
C1915 C1919 1.385 . S
C1916 H1897 0.951 . S
C1916 C1914 1.388 . S
C1916 C1917 1.366 . S
C1917 C1916 1.366 . S
C1917 C1918 1.414 . S
C1917 C1920 1.499 . S
C1918 H1898 0.950 . S
C1918 C1917 1.414 . S
C1918 C1919 1.374 . S
C1919 H1899 0.950 . S
C1919 C1915 1.385 . S
C1919 C1918 1.374 . S
C1920 C1917 1.499 . S
C1920 C1921 1.373 . S
C1920 C1922 1.389 . S
C1921 H1900 0.950 . S
C1921 C1920 1.373 . S
C1921 C1937 1.377 . S
C1922 C1920 1.389 . S
C1922 C1923 1.524 . S
C1922 C1936 1.377 . S
C1923 C1922 1.524 . S
C1923 C1924 1.397 . S
C1923 C1928 1.363 . S
C1924 H1901 0.950 . S
C1924 C1923 1.397 . S
C1924 C1925 1.334 . S
C1925 H1902 0.950 . S
C1925 C1924 1.334 . S
C1925 C1926 1.287 . S
C1926 C1925 1.287 . S
C1926 C1927 1.524 . S
C1926 H1945 0.913 . S
C1927 H1903 0.950 . S
C1927 C1926 1.524 . S
C1927 C1928 1.415 . S
C1928 H1904 0.950 . S
C1928 C1923 1.363 . S
C1928 C1927 1.415 . S
C1929 H1905 0.951 . S
C1929 C1930 1.366 . S
C1929 C1931 1.388 . S
C1930 C1929 1.366 . S
C1930 C1934 1.385 . S
C1931 H1906 0.951 . S
C1931 C1929 1.388 . S
C1931 C1932 1.366 . S
C1932 C1931 1.366 . S
C1932 C1933 1.414 . S
C1932 C1935 1.499 . S
C1933 H1907 0.950 . S
C1933 C1932 1.414 . S
C1933 C1934 1.374 . S
C1934 H1908 0.950 1_556 S
C1934 C1930 1.385 . S
C1934 C1933 1.374 . S
C1935 C1932 1.499 . S
C1935 C1936 1.373 . S
C1935 C1937 1.389 . S
C1936 H1909 0.950 . S
C1936 C1922 1.377 . S
C1936 C1935 1.373 . S
C1937 C1921 1.377 . S
C1937 C1935 1.389 . S
C1937 C1938 1.524 . S
C1938 C1937 1.524 . S
C1938 C1939 1.397 . S
C1938 C1943 1.363 . S
C1939 H1910 0.950 . S
C1939 C1938 1.397 . S
C1939 C1940 1.334 . S
C1940 H1911 0.950 . S
C1940 C1939 1.334 . S
C1940 C1941 1.287 . S
C1941 C1940 1.287 . S
C1941 C1942 1.524 . S
C1941 H1944 1.001 1_545 S
C1942 H1912 0.950 . S
C1942 C1941 1.524 . S
C1942 C1943 1.415 . S
C1943 H1913 0.950 . S
C1943 C1938 1.363 . S
C1943 C1942 1.415 . S
H1944 C1941 1.001 1_565 S
H1945 C1926 0.913 . S
H1946 C1964 0.951 . S
H1947 C1966 0.951 . S
H1948 C1968 0.950 . S
H1949 C1969 0.950 . S
H1950 C1971 0.950 . S
H1951 C1974 0.950 . S
H1952 C1975 0.950 . S
H1953 C1977 0.950 . S
H1954 C1978 0.950 . S
H1955 C1979 0.951 . S
H1956 C1981 0.951 . S
H1957 C1983 0.950 . S
H1958 C1984 0.950 . S
H1959 C1986 0.950 . S
H1960 C1989 0.950 . S
H1961 C1990 0.950 . S
H1962 C1992 0.950 . S
H1963 C1993 0.950 . S
C1964 H1946 0.951 . S
C1964 C1965 1.366 . S
C1964 C1966 1.388 . S
C1965 C1964 1.366 . S
C1965 C1969 1.385 . S
C1966 H1947 0.951 . S
C1966 C1964 1.388 . S
C1966 C1967 1.366 . S
C1967 C1966 1.366 . S
C1967 C1968 1.414 . S
C1967 C1970 1.499 . S
C1968 H1948 0.950 . S
C1968 C1967 1.414 . S
C1968 C1969 1.374 . S
C1969 H1949 0.950 . S
C1969 C1965 1.385 . S
C1969 C1968 1.374 . S
C1970 C1967 1.499 . S
C1970 C1971 1.373 . S
C1970 C1972 1.389 . S
C1971 H1950 0.950 . S
C1971 C1970 1.373 . S
C1971 C1987 1.377 . S
C1972 C1970 1.389 . S
C1972 C1973 1.524 . S
C1972 C1986 1.377 . S
C1973 C1972 1.524 . S
C1973 C1974 1.397 . S
C1973 C1978 1.363 . S
C1974 H1951 0.950 . S
C1974 C1973 1.397 . S
C1974 C1975 1.334 . S
C1975 H1952 0.950 . S
C1975 C1974 1.334 . S
C1975 C1976 1.287 . S
C1976 C1975 1.287 . S
C1976 C1977 1.524 . S
C1976 H1995 0.913 . S
C1977 H1953 0.950 . S
C1977 C1976 1.524 . S
C1977 C1978 1.415 . S
C1978 H1954 0.950 . S
C1978 C1973 1.363 . S
C1978 C1977 1.415 . S
C1979 H1955 0.951 . S
C1979 C1980 1.366 . S
C1979 C1981 1.388 . S
C1980 C1979 1.366 . S
C1980 C1984 1.385 . S
C1981 H1956 0.951 . S
C1981 C1979 1.388 . S
C1981 C1982 1.366 . S
C1982 C1981 1.366 . S
C1982 C1983 1.414 . S
C1982 C1985 1.499 . S
C1983 H1957 0.950 . S
C1983 C1982 1.414 . S
C1983 C1984 1.374 . S
C1984 H1958 0.950 . S
C1984 C1980 1.385 . S
C1984 C1983 1.374 . S
C1985 C1982 1.499 . S
C1985 C1986 1.373 . S
C1985 C1987 1.389 . S
C1986 H1959 0.950 . S
C1986 C1972 1.377 . S
C1986 C1985 1.373 . S
C1987 C1971 1.377 . S
C1987 C1985 1.389 . S
C1987 C1988 1.524 . S
C1988 C1987 1.524 . S
C1988 C1989 1.397 . S
C1988 C1993 1.363 . S
C1989 H1960 0.950 . S
C1989 C1988 1.397 . S
C1989 C1990 1.334 . S
C1990 H1961 0.950 . S
C1990 C1989 1.334 . S
C1990 C1991 1.287 . S
C1991 C1990 1.287 . S
C1991 C1992 1.524 . S
C1991 H1994 0.999 . S
C1992 H1962 0.950 . S
C1992 C1991 1.524 . S
C1992 C1993 1.415 . S
C1993 H1963 0.950 . S
C1993 C1988 1.363 . S
C1993 C1992 1.415 . S
H1994 C1991 0.999 . S
H1995 C1976 0.913 . S
H1996 C2014 0.951 . S
H1997 C2016 0.951 . S
H1998 C2018 0.950 . S
H1999 C2019 0.950 . S
H2000 C2021 0.950 . S
H2001 C2024 0.950 . S
H2002 C2025 0.950 . S
H2003 C2027 0.950 . S
H2004 C2028 0.950 . S
H2005 C2029 0.951 . S
H2006 C2031 0.951 . S
H2007 C2033 0.950 . S
H2008 C2034 0.950 . S
H2009 C2036 0.950 . S
H2010 C2039 0.950 . S
H2011 C2040 0.950 . S
H2012 C2042 0.950 . S
H2013 C2043 0.950 . S
C2014 H1996 0.951 . S
C2014 C2015 1.366 . S
C2014 C2016 1.388 . S
C2015 C2014 1.366 . S
C2015 C2019 1.385 . S
C2016 H1997 0.951 . S
C2016 C2014 1.388 . S
C2016 C2017 1.366 . S
C2017 C2016 1.366 . S
C2017 C2018 1.414 . S
C2017 C2020 1.499 . S
C2018 H1998 0.950 . S
C2018 C2017 1.414 . S
C2018 C2019 1.374 . S
C2019 H1999 0.950 . S
C2019 C2015 1.385 . S
C2019 C2018 1.374 . S
C2020 C2017 1.499 . S
C2020 C2021 1.373 . S
C2020 C2022 1.389 . S
C2021 H2000 0.950 . S
C2021 C2020 1.373 . S
C2021 C2037 1.377 . S
C2022 C2020 1.389 . S
C2022 C2023 1.524 . S
C2022 C2036 1.377 . S
C2023 C2022 1.524 . S
C2023 C2024 1.397 . S
C2023 C2028 1.363 . S
C2024 H2001 0.950 . S
C2024 C2023 1.397 . S
C2024 C2025 1.334 . S
C2025 H2002 0.950 . S
C2025 C2024 1.334 . S
C2025 C2026 1.287 . S
C2026 C2025 1.287 . S
C2026 C2027 1.524 . S
C2026 H2045 0.913 . S
C2027 H2003 0.950 . S
C2027 C2026 1.524 . S
C2027 C2028 1.415 . S
C2028 H2004 0.950 . S
C2028 C2023 1.363 . S
C2028 C2027 1.415 . S
C2029 H2005 0.951 . S
C2029 C2030 1.366 . S
C2029 C2031 1.388 . S
C2030 C2029 1.366 . S
C2030 C2034 1.385 . S
C2031 H2006 0.951 . S
C2031 C2029 1.388 . S
C2031 C2032 1.366 . S
C2032 C2031 1.366 . S
C2032 C2033 1.414 . S
C2032 C2035 1.499 . S
C2033 H2007 0.950 . S
C2033 C2032 1.414 . S
C2033 C2034 1.374 . S
C2034 H2008 0.950 . S
C2034 C2030 1.385 . S
C2034 C2033 1.374 . S
C2035 C2032 1.499 . S
C2035 C2036 1.373 . S
C2035 C2037 1.389 . S
C2036 H2009 0.950 . S
C2036 C2022 1.377 . S
C2036 C2035 1.373 . S
C2037 C2021 1.377 . S
C2037 C2035 1.389 . S
C2037 C2038 1.524 . S
C2038 C2037 1.524 . S
C2038 C2039 1.397 . S
C2038 C2043 1.363 . S
C2039 H2010 0.950 . S
C2039 C2038 1.397 . S
C2039 C2040 1.334 . S
C2040 H2011 0.950 . S
C2040 C2039 1.334 . S
C2040 C2041 1.287 . S
C2041 C2040 1.287 . S
C2041 C2042 1.524 . S
C2041 H2044 0.999 . S
C2042 H2012 0.950 . S
C2042 C2041 1.524 . S
C2042 C2043 1.415 . S
C2043 H2013 0.950 . S
C2043 C2038 1.363 . S
C2043 C2042 1.415 . S
H2044 C2041 0.999 . S
H2045 C2026 0.913 . S
H2046 C2064 0.951 . S
H2047 C2066 0.951 . S
H2048 C2068 0.950 . S
H2049 C2069 0.950 . S
H2050 C2071 0.950 . S
H2051 C2074 0.950 . S
H2052 C2075 0.950 . S
H2053 C2077 0.950 . S
H2054 C2078 0.950 . S
H2055 C2079 0.951 . S
H2056 C2081 0.951 . S
H2057 C2083 0.950 . S
H2058 C2084 0.950 . S
H2059 C2086 0.950 . S
H2060 C2089 0.950 . S
H2061 C2090 0.950 . S
H2062 C2092 0.950 . S
H2063 C2093 0.950 . S
C2064 H2046 0.951 . S
C2064 C2065 1.366 . S
C2064 C2066 1.388 . S
C2065 C2064 1.366 . S
C2065 C2069 1.385 . S
C2066 H2047 0.951 . S
C2066 C2064 1.388 . S
C2066 C2067 1.366 . S
C2067 C2066 1.366 . S
C2067 C2068 1.414 . S
C2067 C2070 1.499 . S
C2068 H2048 0.950 . S
C2068 C2067 1.414 . S
C2068 C2069 1.374 . S
C2069 H2049 0.950 . S
C2069 C2065 1.385 . S
C2069 C2068 1.374 . S
C2070 C2067 1.499 . S
C2070 C2071 1.373 . S
C2070 C2072 1.389 . S
C2071 H2050 0.950 . S
C2071 C2070 1.373 . S
C2071 C2087 1.377 . S
C2072 C2070 1.389 . S
C2072 C2073 1.524 . S
C2072 C2086 1.377 . S
C2073 C2072 1.524 . S
C2073 C2074 1.397 . S
C2073 C2078 1.363 . S
C2074 H2051 0.950 . S
C2074 C2073 1.397 . S
C2074 C2075 1.334 . S
C2075 H2052 0.950 . S
C2075 C2074 1.334 . S
C2075 C2076 1.287 . S
C2076 C2075 1.287 . S
C2076 C2077 1.524 . S
C2076 H2095 0.913 . S
C2077 H2053 0.950 . S
C2077 C2076 1.524 . S
C2077 C2078 1.415 . S
C2078 H2054 0.950 . S
C2078 C2073 1.363 . S
C2078 C2077 1.415 . S
C2079 H2055 0.951 . S
C2079 C2080 1.366 . S
C2079 C2081 1.388 . S
C2080 C2079 1.366 . S
C2080 C2084 1.385 . S
C2081 H2056 0.951 . S
C2081 C2079 1.388 . S
C2081 C2082 1.366 . S
C2082 C2081 1.366 . S
C2082 C2083 1.414 . S
C2082 C2085 1.499 . S
C2083 H2057 0.950 . S
C2083 C2082 1.414 . S
C2083 C2084 1.374 . S
C2084 H2058 0.950 . S
C2084 C2080 1.385 . S
C2084 C2083 1.374 . S
C2085 C2082 1.499 . S
C2085 C2086 1.373 . S
C2085 C2087 1.389 . S
C2086 H2059 0.950 . S
C2086 C2072 1.377 . S
C2086 C2085 1.373 . S
C2087 C2071 1.377 . S
C2087 C2085 1.389 . S
C2087 C2088 1.524 . S
C2088 C2087 1.524 . S
C2088 C2089 1.397 . S
C2088 C2093 1.363 . S
C2089 H2060 0.950 . S
C2089 C2088 1.397 . S
C2089 C2090 1.334 . S
C2090 H2061 0.950 . S
C2090 C2089 1.334 . S
C2090 C2091 1.287 . S
C2091 C2090 1.287 . S
C2091 C2092 1.524 . S
C2091 H2094 0.999 . S
C2092 H2062 0.950 . S
C2092 C2091 1.524 . S
C2092 C2093 1.415 . S
C2093 H2063 0.950 . S
C2093 C2088 1.363 . S
C2093 C2092 1.415 . S
H2094 C2091 0.999 . S
H2095 C2076 0.913 . S
H2096 C2114 0.951 . S
H2097 C2116 0.951 . S
H2098 C2118 0.950 . S
H2099 C2119 0.950 . S
H2100 C2121 0.950 . S
H2101 C2124 0.950 . S
H2102 C2125 0.950 . S
H2103 C2127 0.950 . S
H2104 C2128 0.950 . S
H2105 C2129 0.951 . S
H2106 C2131 0.951 . S
H2107 C2133 0.950 . S
H2108 C2134 0.950 . S
H2109 C2136 0.950 . S
H2110 C2139 0.950 . S
H2111 C2140 0.950 . S
H2112 C2142 0.950 . S
H2113 C2143 0.950 . S
C2114 H2096 0.951 . S
C2114 C2115 1.366 . S
C2114 C2116 1.388 . S
C2115 C2114 1.366 . S
C2115 C2119 1.385 . S
C2116 H2097 0.951 . S
C2116 C2114 1.388 . S
C2116 C2117 1.366 . S
C2117 C2116 1.366 . S
C2117 C2118 1.414 . S
C2117 C2120 1.499 . S
C2118 H2098 0.950 . S
C2118 C2117 1.414 . S
C2118 C2119 1.374 . S
C2119 H2099 0.950 . S
C2119 C2115 1.385 . S
C2119 C2118 1.374 . S
C2120 C2117 1.499 . S
C2120 C2121 1.373 . S
C2120 C2122 1.389 . S
C2121 H2100 0.950 . S
C2121 C2120 1.373 . S
C2121 C2137 1.377 . S
C2122 C2120 1.389 . S
C2122 C2123 1.524 . S
C2122 C2136 1.377 . S
C2123 C2122 1.524 . S
C2123 C2124 1.397 . S
C2123 C2128 1.363 . S
C2124 H2101 0.950 . S
C2124 C2123 1.397 . S
C2124 C2125 1.334 . S
C2125 H2102 0.950 . S
C2125 C2124 1.334 . S
C2125 C2126 1.287 . S
C2126 C2125 1.287 . S
C2126 C2127 1.524 . S
C2126 H2145 0.913 . S
C2127 H2103 0.950 . S
C2127 C2126 1.524 . S
C2127 C2128 1.415 . S
C2128 H2104 0.950 . S
C2128 C2123 1.363 . S
C2128 C2127 1.415 . S
C2129 H2105 0.951 . S
C2129 C2130 1.366 . S
C2129 C2131 1.388 . S
C2130 C2129 1.366 . S
C2130 C2134 1.385 . S
C2131 H2106 0.951 . S
C2131 C2129 1.388 . S
C2131 C2132 1.366 . S
C2132 C2131 1.366 . S
C2132 C2133 1.414 . S
C2132 C2135 1.499 . S
C2133 H2107 0.950 . S
C2133 C2132 1.414 . S
C2133 C2134 1.374 . S
C2134 H2108 0.950 . S
C2134 C2130 1.385 . S
C2134 C2133 1.374 . S
C2135 C2132 1.499 . S
C2135 C2136 1.373 . S
C2135 C2137 1.389 . S
C2136 H2109 0.950 . S
C2136 C2122 1.377 . S
C2136 C2135 1.373 . S
C2137 C2121 1.377 . S
C2137 C2135 1.389 . S
C2137 C2138 1.524 . S
C2138 C2137 1.524 . S
C2138 C2139 1.397 . S
C2138 C2143 1.363 . S
C2139 H2110 0.950 . S
C2139 C2138 1.397 . S
C2139 C2140 1.334 . S
C2140 H2111 0.950 . S
C2140 C2139 1.334 . S
C2140 C2141 1.287 . S
C2141 C2140 1.287 . S
C2141 C2142 1.524 . S
C2141 H2144 0.999 . S
C2142 H2112 0.950 . S
C2142 C2141 1.524 . S
C2142 C2143 1.415 . S
C2143 H2113 0.950 . S
C2143 C2138 1.363 . S
C2143 C2142 1.415 . S
H2144 C2141 0.999 . S
H2145 C2126 0.913 . S
H2146 C2164 0.951 . S
H2147 C2166 0.951 . S
H2148 C2168 0.950 . S
H2149 C2169 0.950 . S
H2150 C2171 0.950 . S
H2151 C2174 0.950 . S
H2152 C2175 0.950 . S
H2153 C2177 0.950 . S
H2154 C2178 0.950 . S
H2155 C2179 0.951 . S
H2156 C2181 0.951 . S
H2157 C2183 0.950 . S
H2158 C2184 0.950 . S
H2159 C2186 0.950 . S
H2160 C2189 0.950 . S
H2161 C2190 0.950 . S
H2162 C2192 0.950 . S
H2163 C2193 0.950 . S
C2164 H2146 0.951 . S
C2164 C2165 1.366 . S
C2164 C2166 1.388 . S
C2165 C2164 1.366 . S
C2165 C2169 1.385 . S
C2166 H2147 0.951 . S
C2166 C2164 1.388 . S
C2166 C2167 1.366 . S
C2167 C2166 1.366 . S
C2167 C2168 1.414 . S
C2167 C2170 1.499 . S
C2168 H2148 0.950 . S
C2168 C2167 1.414 . S
C2168 C2169 1.374 . S
C2169 H2149 0.950 . S
C2169 C2165 1.385 . S
C2169 C2168 1.374 . S
C2170 C2167 1.499 . S
C2170 C2171 1.373 . S
C2170 C2172 1.389 . S
C2171 H2150 0.950 . S
C2171 C2170 1.373 . S
C2171 C2187 1.377 . S
C2172 C2170 1.389 . S
C2172 C2173 1.524 . S
C2172 C2186 1.377 . S
C2173 C2172 1.524 . S
C2173 C2174 1.397 . S
C2173 C2178 1.363 . S
C2174 H2151 0.950 . S
C2174 C2173 1.397 . S
C2174 C2175 1.334 . S
C2175 H2152 0.950 . S
C2175 C2174 1.334 . S
C2175 C2176 1.287 . S
C2176 C2175 1.287 . S
C2176 C2177 1.524 . S
C2176 H2195 0.913 . S
C2177 H2153 0.950 . S
C2177 C2176 1.524 . S
C2177 C2178 1.415 . S
C2178 H2154 0.950 . S
C2178 C2173 1.363 . S
C2178 C2177 1.415 . S
C2179 H2155 0.951 . S
C2179 C2180 1.366 . S
C2179 C2181 1.388 . S
C2180 C2179 1.366 . S
C2180 C2184 1.385 . S
C2181 H2156 0.951 . S
C2181 C2179 1.388 . S
C2181 C2182 1.366 . S
C2182 C2181 1.366 . S
C2182 C2183 1.414 . S
C2182 C2185 1.499 . S
C2183 H2157 0.950 . S
C2183 C2182 1.414 . S
C2183 C2184 1.374 . S
C2184 H2158 0.950 . S
C2184 C2180 1.385 . S
C2184 C2183 1.374 . S
C2185 C2182 1.499 . S
C2185 C2186 1.373 . S
C2185 C2187 1.389 . S
C2186 H2159 0.950 . S
C2186 C2172 1.377 . S
C2186 C2185 1.373 . S
C2187 C2171 1.377 . S
C2187 C2185 1.389 . S
C2187 C2188 1.524 . S
C2188 C2187 1.524 . S
C2188 C2189 1.397 . S
C2188 C2193 1.363 . S
C2189 H2160 0.950 . S
C2189 C2188 1.397 . S
C2189 C2190 1.334 . S
C2190 H2161 0.950 . S
C2190 C2189 1.334 . S
C2190 C2191 1.287 . S
C2191 C2190 1.287 . S
C2191 C2192 1.524 . S
C2191 H2194 0.999 1_554 S
C2192 H2162 0.950 . S
C2192 C2191 1.524 . S
C2192 C2193 1.415 . S
C2193 H2163 0.950 . S
C2193 C2188 1.363 . S
C2193 C2192 1.415 . S
H2194 C2191 0.999 1_556 S
H2195 C2176 0.913 . S
H2196 C2214 0.951 . S
H2197 C2216 0.951 . S
H2198 C2218 0.950 . S
H2199 C2219 0.950 . S
H2200 C2221 0.950 . S
H2201 C2224 0.950 . S
H2202 C2225 0.950 . S
H2203 C2227 0.950 . S
H2204 C2228 0.950 . S
H2205 C2229 0.951 . S
H2206 C2231 0.951 . S
H2207 C2233 0.950 . S
H2208 C2234 0.950 . S
H2209 C2236 0.950 . S
H2210 C2239 0.950 . S
H2211 C2240 0.950 . S
H2212 C2242 0.950 . S
H2213 C2243 0.950 . S
C2214 H2196 0.951 . S
C2214 C2215 1.366 . S
C2214 C2216 1.388 . S
C2215 C2214 1.366 . S
C2215 C2219 1.385 . S
C2216 H2197 0.951 . S
C2216 C2214 1.388 . S
C2216 C2217 1.366 . S
C2217 C2216 1.366 . S
C2217 C2218 1.414 . S
C2217 C2220 1.499 . S
C2218 H2198 0.950 . S
C2218 C2217 1.414 . S
C2218 C2219 1.374 . S
C2219 H2199 0.950 . S
C2219 C2215 1.385 . S
C2219 C2218 1.374 . S
C2220 C2217 1.499 . S
C2220 C2221 1.373 . S
C2220 C2222 1.389 . S
C2221 H2200 0.950 . S
C2221 C2220 1.373 . S
C2221 C2237 1.377 . S
C2222 C2220 1.389 . S
C2222 C2223 1.524 . S
C2222 C2236 1.377 . S
C2223 C2222 1.524 . S
C2223 C2224 1.397 . S
C2223 C2228 1.363 . S
C2224 H2201 0.950 . S
C2224 C2223 1.397 . S
C2224 C2225 1.334 . S
C2225 H2202 0.950 . S
C2225 C2224 1.334 . S
C2225 C2226 1.287 . S
C2226 C2225 1.287 . S
C2226 C2227 1.524 . S
C2226 H2245 0.913 . S
C2227 H2203 0.950 . S
C2227 C2226 1.524 . S
C2227 C2228 1.415 . S
C2228 H2204 0.950 . S
C2228 C2223 1.363 . S
C2228 C2227 1.415 . S
C2229 H2205 0.951 . S
C2229 C2230 1.366 . S
C2229 C2231 1.388 . S
C2230 C2229 1.366 . S
C2230 C2234 1.385 . S
C2231 H2206 0.951 . S
C2231 C2229 1.388 . S
C2231 C2232 1.366 . S
C2232 C2231 1.366 . S
C2232 C2233 1.414 . S
C2232 C2235 1.499 . S
C2233 H2207 0.950 . S
C2233 C2232 1.414 . S
C2233 C2234 1.374 . S
C2234 H2208 0.950 . S
C2234 C2230 1.385 . S
C2234 C2233 1.374 . S
C2235 C2232 1.499 . S
C2235 C2236 1.373 . S
C2235 C2237 1.389 . S
C2236 H2209 0.950 . S
C2236 C2222 1.377 . S
C2236 C2235 1.373 . S
C2237 C2221 1.377 . S
C2237 C2235 1.389 . S
C2237 C2238 1.524 . S
C2238 C2237 1.524 . S
C2238 C2239 1.397 . S
C2238 C2243 1.363 . S
C2239 H2210 0.950 . S
C2239 C2238 1.397 . S
C2239 C2240 1.334 . S
C2240 H2211 0.950 . S
C2240 C2239 1.334 . S
C2240 C2241 1.287 . S
C2241 C2240 1.287 . S
C2241 C2242 1.524 . S
C2241 H2244 0.999 . S
C2242 H2212 0.950 . S
C2242 C2241 1.524 . S
C2242 C2243 1.415 . S
C2243 H2213 0.950 . S
C2243 C2238 1.363 . S
C2243 C2242 1.415 . S
H2244 C2241 0.999 . S
H2245 C2226 0.913 . S
H2246 C2264 0.951 . S
H2247 C2266 0.951 . S
H2248 C2268 0.950 . S
H2249 C2269 0.950 . S
H2250 C2271 0.950 . S
H2251 C2274 0.950 . S
H2252 C2275 0.950 . S
H2253 C2277 0.950 . S
H2254 C2278 0.950 . S
H2255 C2279 0.951 . S
H2256 C2281 0.951 . S
H2257 C2283 0.950 . S
H2258 C2284 0.950 . S
H2259 C2286 0.950 . S
H2260 C2289 0.950 . S
H2261 C2290 0.950 . S
H2262 C2292 0.950 . S
H2263 C2293 0.950 . S
C2264 H2246 0.951 . S
C2264 C2265 1.366 . S
C2264 C2266 1.388 . S
C2265 C2264 1.366 . S
C2265 C2269 1.385 . S
C2266 H2247 0.951 . S
C2266 C2264 1.388 . S
C2266 C2267 1.366 . S
C2267 C2266 1.366 . S
C2267 C2268 1.414 . S
C2267 C2270 1.499 . S
C2268 H2248 0.950 . S
C2268 C2267 1.414 . S
C2268 C2269 1.374 . S
C2269 H2249 0.950 . S
C2269 C2265 1.385 . S
C2269 C2268 1.374 . S
C2270 C2267 1.499 . S
C2270 C2271 1.373 . S
C2270 C2272 1.389 . S
C2271 H2250 0.950 . S
C2271 C2270 1.373 . S
C2271 C2287 1.377 . S
C2272 C2270 1.389 . S
C2272 C2273 1.524 . S
C2272 C2286 1.377 . S
C2273 C2272 1.524 . S
C2273 C2274 1.397 . S
C2273 C2278 1.363 . S
C2274 H2251 0.950 . S
C2274 C2273 1.397 . S
C2274 C2275 1.334 . S
C2275 H2252 0.950 . S
C2275 C2274 1.334 . S
C2275 C2276 1.287 . S
C2276 C2275 1.287 . S
C2276 C2277 1.524 . S
C2276 H2295 0.913 . S
C2277 H2253 0.950 . S
C2277 C2276 1.524 . S
C2277 C2278 1.415 . S
C2278 H2254 0.950 . S
C2278 C2273 1.363 . S
C2278 C2277 1.415 . S
C2279 H2255 0.951 . S
C2279 C2280 1.366 . S
C2279 C2281 1.388 . S
C2280 C2279 1.366 . S
C2280 C2284 1.385 . S
C2281 H2256 0.951 . S
C2281 C2279 1.388 . S
C2281 C2282 1.366 . S
C2282 C2281 1.366 . S
C2282 C2283 1.414 . S
C2282 C2285 1.499 . S
C2283 H2257 0.950 . S
C2283 C2282 1.414 . S
C2283 C2284 1.374 . S
C2284 H2258 0.950 . S
C2284 C2280 1.385 . S
C2284 C2283 1.374 . S
C2285 C2282 1.499 . S
C2285 C2286 1.373 . S
C2285 C2287 1.389 . S
C2286 H2259 0.950 . S
C2286 C2272 1.377 . S
C2286 C2285 1.373 . S
C2287 C2271 1.377 . S
C2287 C2285 1.389 . S
C2287 C2288 1.524 . S
C2288 C2287 1.524 . S
C2288 C2289 1.397 . S
C2288 C2293 1.363 . S
C2289 H2260 0.950 . S
C2289 C2288 1.397 . S
C2289 C2290 1.334 . S
C2290 H2261 0.950 . S
C2290 C2289 1.334 . S
C2290 C2291 1.287 . S
C2291 C2290 1.287 . S
C2291 C2292 1.524 . S
C2291 H2294 0.999 . S
C2292 H2262 0.950 . S
C2292 C2291 1.524 . S
C2292 C2293 1.415 . S
C2293 H2263 0.950 . S
C2293 C2288 1.363 . S
C2293 C2292 1.415 . S
H2294 C2291 0.999 . S
H2295 C2276 0.913 . S
H2296 C2314 0.951 . S
H2297 C2316 0.951 . S
H2298 C2318 0.950 . S
H2299 C2319 0.950 . S
H2300 C2321 0.950 . S
H2301 C2324 0.950 . S
H2302 C2325 0.950 . S
H2303 C2327 0.950 . S
H2304 C2328 0.950 . S
H2305 C2329 0.951 . S
H2306 C2331 0.951 . S
H2307 C2333 0.950 . S
H2308 C2334 0.950 . S
H2309 C2336 0.950 . S
H2310 C2339 0.950 . S
H2311 C2340 0.950 . S
H2312 C2342 0.950 . S
H2313 C2343 0.950 . S
C2314 H2296 0.951 . S
C2314 C2315 1.366 . S
C2314 C2316 1.388 . S
C2315 C2314 1.366 . S
C2315 C2319 1.385 . S
C2316 H2297 0.951 . S
C2316 C2314 1.388 . S
C2316 C2317 1.366 . S
C2317 C2316 1.366 . S
C2317 C2318 1.414 . S
C2317 C2320 1.499 . S
C2318 H2298 0.950 . S
C2318 C2317 1.414 . S
C2318 C2319 1.374 . S
C2319 H2299 0.950 . S
C2319 C2315 1.385 . S
C2319 C2318 1.374 . S
C2320 C2317 1.499 . S
C2320 C2321 1.373 . S
C2320 C2322 1.389 . S
C2321 H2300 0.950 . S
C2321 C2320 1.373 . S
C2321 C2337 1.377 . S
C2322 C2320 1.389 . S
C2322 C2323 1.524 . S
C2322 C2336 1.377 . S
C2323 C2322 1.524 . S
C2323 C2324 1.397 . S
C2323 C2328 1.363 . S
C2324 H2301 0.950 . S
C2324 C2323 1.397 . S
C2324 C2325 1.334 . S
C2325 H2302 0.950 . S
C2325 C2324 1.334 . S
C2325 C2326 1.287 . S
C2326 C2325 1.287 . S
C2326 C2327 1.524 . S
C2326 H2345 0.913 . S
C2327 H2303 0.950 . S
C2327 C2326 1.524 . S
C2327 C2328 1.415 . S
C2328 H2304 0.950 . S
C2328 C2323 1.363 . S
C2328 C2327 1.415 . S
C2329 H2305 0.951 . S
C2329 C2330 1.366 . S
C2329 C2331 1.388 . S
C2330 C2329 1.366 . S
C2330 C2334 1.385 . S
C2331 H2306 0.951 . S
C2331 C2329 1.388 . S
C2331 C2332 1.366 . S
C2332 C2331 1.366 . S
C2332 C2333 1.414 . S
C2332 C2335 1.499 . S
C2333 H2307 0.950 . S
C2333 C2332 1.414 . S
C2333 C2334 1.374 . S
C2334 H2308 0.950 . S
C2334 C2330 1.385 . S
C2334 C2333 1.374 . S
C2335 C2332 1.499 . S
C2335 C2336 1.373 . S
C2335 C2337 1.389 . S
C2336 H2309 0.950 . S
C2336 C2322 1.377 . S
C2336 C2335 1.373 . S
C2337 C2321 1.377 . S
C2337 C2335 1.389 . S
C2337 C2338 1.524 . S
C2338 C2337 1.524 . S
C2338 C2339 1.397 . S
C2338 C2343 1.363 . S
C2339 H2310 0.950 . S
C2339 C2338 1.397 . S
C2339 C2340 1.334 . S
C2340 H2311 0.950 . S
C2340 C2339 1.334 . S
C2340 C2341 1.287 . S
C2341 C2340 1.287 . S
C2341 C2342 1.524 . S
C2341 H2344 0.999 . S
C2342 H2312 0.950 . S
C2342 C2341 1.524 . S
C2342 C2343 1.415 . S
C2343 H2313 0.950 . S
C2343 C2338 1.363 . S
C2343 C2342 1.415 . S
H2344 C2341 0.999 . S
H2345 C2326 0.913 . S
H2346 C2364 0.951 . S
H2347 C2366 0.951 . S
H2348 C2368 0.950 . S
H2349 C2369 0.950 . S
H2350 C2371 0.950 . S
H2351 C2374 0.950 . S
H2352 C2375 0.950 . S
H2353 C2377 0.950 . S
H2354 C2378 0.950 . S
H2355 C2379 0.951 . S
H2356 C2381 0.951 . S
H2357 C2383 0.950 . S
H2358 C2384 0.950 . S
H2359 C2386 0.950 . S
H2360 C2389 0.950 . S
H2361 C2390 0.950 . S
H2362 C2392 0.950 . S
H2363 C2393 0.950 . S
C2364 H2346 0.951 . S
C2364 C2365 1.366 . S
C2364 C2366 1.388 . S
C2365 C2364 1.366 . S
C2365 C2369 1.385 . S
C2366 H2347 0.951 . S
C2366 C2364 1.388 . S
C2366 C2367 1.366 . S
C2367 C2366 1.366 . S
C2367 C2368 1.414 . S
C2367 C2370 1.499 . S
C2368 H2348 0.950 . S
C2368 C2367 1.414 . S
C2368 C2369 1.374 . S
C2369 H2349 0.950 . S
C2369 C2365 1.385 . S
C2369 C2368 1.374 . S
C2370 C2367 1.499 . S
C2370 C2371 1.373 . S
C2370 C2372 1.389 . S
C2371 H2350 0.950 . S
C2371 C2370 1.373 . S
C2371 C2387 1.377 . S
C2372 C2370 1.389 . S
C2372 C2373 1.524 . S
C2372 C2386 1.377 . S
C2373 C2372 1.524 . S
C2373 C2374 1.397 . S
C2373 C2378 1.363 . S
C2374 H2351 0.950 . S
C2374 C2373 1.397 . S
C2374 C2375 1.334 . S
C2375 H2352 0.950 . S
C2375 C2374 1.334 . S
C2375 C2376 1.287 . S
C2376 C2375 1.287 . S
C2376 C2377 1.524 . S
C2376 H2395 0.913 . S
C2377 H2353 0.950 . S
C2377 C2376 1.524 . S
C2377 C2378 1.415 . S
C2378 H2354 0.950 . S
C2378 C2373 1.363 . S
C2378 C2377 1.415 . S
C2379 H2355 0.951 . S
C2379 C2380 1.366 . S
C2379 C2381 1.388 . S
C2380 C2379 1.366 . S
C2380 C2384 1.385 . S
C2381 H2356 0.951 . S
C2381 C2379 1.388 . S
C2381 C2382 1.366 . S
C2382 C2381 1.366 . S
C2382 C2383 1.414 . S
C2382 C2385 1.499 . S
C2383 H2357 0.950 . S
C2383 C2382 1.414 . S
C2383 C2384 1.374 . S
C2384 H2358 0.950 . S
C2384 C2380 1.385 . S
C2384 C2383 1.374 . S
C2385 C2382 1.499 . S
C2385 C2386 1.373 . S
C2385 C2387 1.389 . S
C2386 H2359 0.950 . S
C2386 C2372 1.377 . S
C2386 C2385 1.373 . S
C2387 C2371 1.377 . S
C2387 C2385 1.389 . S
C2387 C2388 1.524 . S
C2388 C2387 1.524 . S
C2388 C2389 1.397 . S
C2388 C2393 1.363 . S
C2389 H2360 0.950 . S
C2389 C2388 1.397 . S
C2389 C2390 1.334 1_556 S
C2390 H2361 0.950 . S
C2390 C2389 1.334 1_554 S
C2390 C2391 1.287 . S
C2391 C2390 1.287 . S
C2391 C2392 1.524 . S
C2391 H2394 0.999 . S
C2392 H2362 0.950 . S
C2392 C2391 1.524 . S
C2392 C2393 1.415 1_554 S
C2393 H2363 0.950 . S
C2393 C2388 1.363 . S
C2393 C2392 1.415 1_556 S
H2394 C2391 0.999 . S
H2395 C2376 0.913 . S
H2396 C2414 0.951 . S
H2397 C2416 0.951 . S
H2398 C2418 0.950 . S
H2399 C2419 0.950 . S
H2400 C2421 0.950 . S
H2401 C2424 0.950 . S
H2402 C2425 0.950 . S
H2403 C2427 0.950 . S
H2404 C2428 0.950 . S
H2405 C2429 0.951 . S
H2406 C2431 0.951 . S
H2407 C2433 0.950 . S
H2408 C2434 0.953 . S
H2409 C2436 0.950 . S
H2410 C2439 0.950 . S
H2411 C2440 0.950 . S
H2412 C2442 0.950 . S
H2413 C2443 0.950 . S
C2414 H2396 0.951 . S
C2414 C2415 1.366 . S
C2414 C2416 1.388 . S
C2415 C2414 1.366 . S
C2415 C2419 1.385 . S
C2416 H2397 0.951 . S
C2416 C2414 1.388 . S
C2416 C2417 1.366 . S
C2417 C2416 1.366 . S
C2417 C2418 1.414 . S
C2417 C2420 1.499 . S
C2418 H2398 0.950 . S
C2418 C2417 1.414 . S
C2418 C2419 1.374 . S
C2419 H2399 0.950 . S
C2419 C2415 1.385 . S
C2419 C2418 1.374 . S
C2420 C2417 1.499 . S
C2420 C2421 1.373 . S
C2420 C2422 1.389 . S
C2421 H2400 0.950 . S
C2421 C2420 1.373 . S
C2421 C2437 1.377 . S
C2422 C2420 1.389 . S
C2422 C2423 1.524 . S
C2422 C2436 1.377 . S
C2423 C2422 1.524 . S
C2423 C2424 1.397 . S
C2423 C2428 1.363 . S
C2424 H2401 0.950 . S
C2424 C2423 1.397 . S
C2424 C2425 1.334 . S
C2425 H2402 0.950 . S
C2425 C2424 1.334 . S
C2425 C2426 1.287 . S
C2426 C2425 1.287 . S
C2426 C2427 1.524 . S
C2426 H2445 0.913 . S
C2427 H2403 0.950 . S
C2427 C2426 1.524 . S
C2427 C2428 1.415 . S
C2428 H2404 0.950 . S
C2428 C2423 1.363 . S
C2428 C2427 1.415 . S
C2429 H2405 0.951 . S
C2429 C2430 1.366 . S
C2429 C2431 1.388 . S
C2430 C2429 1.366 . S
C2430 C2434 1.385 . S
C2431 H2406 0.951 . S
C2431 C2429 1.388 . S
C2431 C2432 1.366 . S
C2432 C2431 1.366 . S
C2432 C2433 1.414 . S
C2432 C2435 1.499 . S
C2433 H2407 0.950 . S
C2433 C2432 1.414 . S
C2433 C2434 1.374 . S
C2434 H2408 0.953 . S
C2434 C2430 1.385 . S
C2434 C2433 1.374 . S
C2435 C2432 1.499 . S
C2435 C2436 1.373 . S
C2435 C2437 1.389 . S
C2436 H2409 0.950 . S
C2436 C2422 1.377 . S
C2436 C2435 1.373 . S
C2437 C2421 1.377 . S
C2437 C2435 1.389 . S
C2437 C2438 1.524 . S
C2438 C2437 1.524 . S
C2438 C2439 1.397 . S
C2438 C2443 1.363 . S
C2439 H2410 0.950 . S
C2439 C2438 1.397 . S
C2439 C2440 1.334 . S
C2440 H2411 0.950 . S
C2440 C2439 1.334 . S
C2440 C2441 1.287 . S
C2441 C2440 1.287 . S
C2441 C2442 1.524 . S
C2441 H2444 0.999 . S
C2442 H2412 0.950 . S
C2442 C2441 1.524 . S
C2442 C2443 1.415 . S
C2443 H2413 0.950 . S
C2443 C2438 1.363 . S
C2443 C2442 1.415 . S
H2444 C2441 0.999 . S
H2445 C2426 0.913 . S
H2446 C2464 0.951 . S
H2447 C2466 0.951 . S
H2448 C2468 0.950 . S
H2449 C2469 0.950 . S
H2450 C2471 0.950 . S
H2451 C2474 0.950 . S
H2452 C2475 0.950 . S
H2453 C2477 0.950 . S
H2454 C2478 0.950 . S
H2455 C2479 0.951 . S
H2456 C2481 0.951 . S
H2457 C2483 0.950 . S
H2458 C2484 0.950 . S
H2459 C2486 0.950 . S
H2460 C2489 0.950 . S
H2461 C2490 0.950 . S
H2462 C2492 0.950 . S
H2463 C2493 0.950 . S
C2464 H2446 0.951 . S
C2464 C2465 1.366 . S
C2464 C2466 1.388 . S
C2465 C2464 1.366 . S
C2465 C2469 1.385 . S
C2466 H2447 0.951 . S
C2466 C2464 1.388 . S
C2466 C2467 1.366 . S
C2467 C2466 1.366 . S
C2467 C2468 1.414 . S
C2467 C2470 1.499 . S
C2468 H2448 0.950 . S
C2468 C2467 1.414 . S
C2468 C2469 1.374 . S
C2469 H2449 0.950 . S
C2469 C2465 1.385 . S
C2469 C2468 1.374 . S
C2470 C2467 1.499 . S
C2470 C2471 1.373 . S
C2470 C2472 1.389 . S
C2471 H2450 0.950 . S
C2471 C2470 1.373 . S
C2471 C2487 1.377 . S
C2472 C2470 1.389 . S
C2472 C2473 1.524 . S
C2472 C2486 1.377 . S
C2473 C2472 1.524 . S
C2473 C2474 1.397 . S
C2473 C2478 1.363 . S
C2474 H2451 0.950 . S
C2474 C2473 1.397 . S
C2474 C2475 1.334 . S
C2475 H2452 0.950 . S
C2475 C2474 1.334 . S
C2475 C2476 1.287 . S
C2476 C2475 1.287 . S
C2476 C2477 1.524 . S
C2476 H2495 0.913 . S
C2477 H2453 0.950 . S
C2477 C2476 1.524 . S
C2477 C2478 1.415 . S
C2478 H2454 0.950 . S
C2478 C2473 1.363 . S
C2478 C2477 1.415 . S
C2479 H2455 0.951 . S
C2479 C2480 1.366 . S
C2479 C2481 1.388 . S
C2480 C2479 1.366 . S
C2480 C2484 1.385 . S
C2481 H2456 0.951 . S
C2481 C2479 1.388 . S
C2481 C2482 1.366 . S
C2482 C2481 1.366 . S
C2482 C2483 1.414 . S
C2482 C2485 1.499 . S
C2483 H2457 0.950 . S
C2483 C2482 1.414 . S
C2483 C2484 1.374 . S
C2484 H2458 0.950 . S
C2484 C2480 1.385 . S
C2484 C2483 1.374 . S
C2485 C2482 1.499 . S
C2485 C2486 1.373 . S
C2485 C2487 1.389 . S
C2486 H2459 0.950 . S
C2486 C2472 1.377 . S
C2486 C2485 1.373 . S
C2487 C2471 1.377 . S
C2487 C2485 1.389 . S
C2487 C2488 1.524 . S
C2488 C2487 1.524 . S
C2488 C2489 1.397 . S
C2488 C2493 1.363 . S
C2489 H2460 0.950 . S
C2489 C2488 1.397 . S
C2489 C2490 1.334 . S
C2490 H2461 0.950 . S
C2490 C2489 1.334 . S
C2490 C2491 1.287 . S
C2491 C2490 1.287 . S
C2491 C2492 1.524 . S
C2491 H2494 0.999 . S
C2492 H2462 0.950 . S
C2492 C2491 1.524 . S
C2492 C2493 1.415 . S
C2493 H2463 0.950 . S
C2493 C2488 1.363 . S
C2493 C2492 1.415 . S
H2494 C2491 0.999 . S
H2495 C2476 0.913 . S
H2496 C2514 0.951 . S
H2497 C2516 0.951 . S
H2498 C2518 0.950 . S
H2499 C2519 0.950 . S
H2500 C2521 0.950 . S
H2501 C2524 0.950 . S
H2502 C2525 0.950 . S
H2503 C2527 0.950 . S
H2504 C2528 0.950 . S
H2505 C2529 0.951 . S
H2506 C2531 0.951 . S
H2507 C2533 0.950 . S
H2508 C2534 0.950 1_556 S
H2509 C2536 0.950 . S
H2510 C2539 0.950 . S
H2511 C2540 0.950 . S
H2512 C2542 0.950 . S
H2513 C2543 0.950 . S
C2514 H2496 0.951 . S
C2514 C2515 1.366 . S
C2514 C2516 1.388 . S
C2515 C2514 1.366 . S
C2515 C2519 1.385 . S
C2516 H2497 0.951 . S
C2516 C2514 1.388 . S
C2516 C2517 1.366 . S
C2517 C2516 1.366 . S
C2517 C2518 1.414 . S
C2517 C2520 1.499 . S
C2518 H2498 0.950 . S
C2518 C2517 1.414 . S
C2518 C2519 1.374 . S
C2519 H2499 0.950 . S
C2519 C2515 1.385 . S
C2519 C2518 1.374 . S
C2520 C2517 1.499 . S
C2520 C2521 1.373 . S
C2520 C2522 1.389 . S
C2521 H2500 0.950 . S
C2521 C2520 1.373 . S
C2521 C2537 1.377 . S
C2522 C2520 1.389 . S
C2522 C2523 1.524 . S
C2522 C2536 1.377 . S
C2523 C2522 1.524 . S
C2523 C2524 1.397 . S
C2523 C2528 1.363 . S
C2524 H2501 0.950 . S
C2524 C2523 1.397 . S
C2524 C2525 1.334 . S
C2525 H2502 0.950 . S
C2525 C2524 1.334 . S
C2525 C2526 1.287 . S
C2526 C2525 1.287 . S
C2526 C2527 1.524 . S
C2526 H2545 0.913 . S
C2527 H2503 0.950 . S
C2527 C2526 1.524 . S
C2527 C2528 1.415 . S
C2528 H2504 0.950 . S
C2528 C2523 1.363 . S
C2528 C2527 1.415 . S
C2529 H2505 0.951 . S
C2529 C2530 1.366 . S
C2529 C2531 1.388 . S
C2530 C2529 1.366 . S
C2530 C2534 1.385 . S
C2531 H2506 0.951 . S
C2531 C2529 1.388 . S
C2531 C2532 1.366 . S
C2532 C2531 1.366 . S
C2532 C2533 1.414 . S
C2532 C2535 1.499 . S
C2533 H2507 0.950 . S
C2533 C2532 1.414 . S
C2533 C2534 1.374 . S
C2534 H2508 0.950 1_554 S
C2534 C2530 1.385 . S
C2534 C2533 1.374 . S
C2535 C2532 1.499 . S
C2535 C2536 1.373 . S
C2535 C2537 1.389 . S
C2536 H2509 0.950 . S
C2536 C2522 1.377 . S
C2536 C2535 1.373 . S
C2537 C2521 1.377 . S
C2537 C2535 1.389 . S
C2537 C2538 1.524 . S
C2538 C2537 1.524 . S
C2538 C2539 1.397 . S
C2538 C2543 1.363 . S
C2539 H2510 0.950 . S
C2539 C2538 1.397 . S
C2539 C2540 1.334 . S
C2540 H2511 0.950 . S
C2540 C2539 1.334 . S
C2540 C2541 1.287 . S
C2541 C2540 1.287 . S
C2541 C2542 1.524 . S
C2541 H2544 0.999 . S
C2542 H2512 0.950 . S
C2542 C2541 1.524 . S
C2542 C2543 1.415 . S
C2543 H2513 0.950 . S
C2543 C2538 1.363 . S
C2543 C2542 1.415 . S
H2544 C2541 0.999 . S
H2545 C2526 0.913 . S
H2546 C2564 0.951 . S
H2547 C2566 0.951 . S
H2548 C2568 0.950 . S
H2549 C2569 0.950 . S
H2550 C2571 0.950 . S
H2551 C2574 0.950 . S
H2552 C2575 0.950 . S
H2553 C2577 0.950 . S
H2554 C2578 0.950 . S
H2555 C2579 0.951 . S
H2556 C2581 0.951 . S
H2557 C2583 0.950 . S
H2558 C2584 0.950 . S
H2559 C2586 0.950 . S
H2560 C2589 0.950 . S
H2561 C2590 0.950 . S
H2562 C2592 0.950 . S
H2563 C2593 0.950 . S
C2564 H2546 0.951 . S
C2564 C2565 1.366 . S
C2564 C2566 1.388 . S
C2565 C2564 1.366 . S
C2565 C2569 1.385 . S
C2566 H2547 0.951 . S
C2566 C2564 1.388 . S
C2566 C2567 1.366 . S
C2567 C2566 1.366 . S
C2567 C2568 1.414 . S
C2567 C2570 1.499 . S
C2568 H2548 0.950 . S
C2568 C2567 1.414 . S
C2568 C2569 1.374 . S
C2569 H2549 0.950 . S
C2569 C2565 1.385 . S
C2569 C2568 1.374 . S
C2570 C2567 1.499 . S
C2570 C2571 1.373 . S
C2570 C2572 1.389 . S
C2571 H2550 0.950 . S
C2571 C2570 1.373 . S
C2571 C2587 1.377 . S
C2572 C2570 1.389 . S
C2572 C2573 1.524 . S
C2572 C2586 1.377 . S
C2573 C2572 1.524 . S
C2573 C2574 1.397 . S
C2573 C2578 1.363 . S
C2574 H2551 0.950 . S
C2574 C2573 1.397 . S
C2574 C2575 1.334 . S
C2575 H2552 0.950 . S
C2575 C2574 1.334 . S
C2575 C2576 1.287 . S
C2576 C2575 1.287 . S
C2576 C2577 1.524 . S
C2576 H2595 0.913 . S
C2577 H2553 0.950 . S
C2577 C2576 1.524 . S
C2577 C2578 1.415 . S
C2578 H2554 0.950 . S
C2578 C2573 1.363 . S
C2578 C2577 1.415 . S
C2579 H2555 0.951 . S
C2579 C2580 1.366 . S
C2579 C2581 1.388 . S
C2580 C2579 1.366 . S
C2580 C2584 1.385 . S
C2581 H2556 0.951 . S
C2581 C2579 1.388 . S
C2581 C2582 1.366 . S
C2582 C2581 1.366 . S
C2582 C2583 1.414 . S
C2582 C2585 1.499 . S
C2583 H2557 0.950 . S
C2583 C2582 1.414 . S
C2583 C2584 1.374 . S
C2584 H2558 0.950 . S
C2584 C2580 1.385 . S
C2584 C2583 1.374 . S
C2585 C2582 1.499 . S
C2585 C2586 1.373 . S
C2585 C2587 1.389 . S
C2586 H2559 0.950 . S
C2586 C2572 1.377 . S
C2586 C2585 1.373 . S
C2587 C2571 1.377 . S
C2587 C2585 1.389 . S
C2587 C2588 1.524 . S
C2588 C2587 1.524 . S
C2588 C2589 1.397 . S
C2588 C2593 1.363 . S
C2589 H2560 0.950 . S
C2589 C2588 1.397 . S
C2589 C2590 1.334 . S
C2590 H2561 0.950 . S
C2590 C2589 1.334 . S
C2590 C2591 1.287 . S
C2591 C2590 1.287 . S
C2591 C2592 1.524 . S
C2591 H2594 0.999 . S
C2592 H2562 0.950 . S
C2592 C2591 1.524 . S
C2592 C2593 1.415 . S
C2593 H2563 0.950 . S
C2593 C2588 1.363 . S
C2593 C2592 1.415 . S
H2594 C2591 0.999 . S
H2595 C2576 0.913 . S
H2596 C2614 0.951 . S
H2597 C2616 0.951 . S
H2598 C2618 0.950 . S
H2599 C2619 0.950 . S
H2600 C2621 0.950 . S
H2601 C2624 0.950 . S
H2602 C2625 0.950 . S
H2603 C2627 0.950 . S
H2604 C2628 0.950 . S
H2605 C2629 0.951 . S
H2606 C2631 0.951 . S
H2607 C2633 0.950 . S
H2608 C2634 0.950 . S
H2609 C2636 0.950 . S
H2610 C2639 0.950 . S
H2611 C2640 0.950 . S
H2612 C2642 0.950 . S
H2613 C2643 0.950 . S
C2614 H2596 0.951 . S
C2614 C2615 1.366 . S
C2614 C2616 1.388 . S
C2615 C2614 1.366 . S
C2615 C2619 1.385 . S
C2616 H2597 0.951 . S
C2616 C2614 1.388 . S
C2616 C2617 1.366 . S
C2617 C2616 1.366 . S
C2617 C2618 1.414 . S
C2617 C2620 1.499 . S
C2618 H2598 0.950 . S
C2618 C2617 1.414 . S
C2618 C2619 1.374 . S
C2619 H2599 0.950 . S
C2619 C2615 1.385 . S
C2619 C2618 1.374 . S
C2620 C2617 1.499 . S
C2620 C2621 1.373 . S
C2620 C2622 1.389 . S
C2621 H2600 0.950 . S
C2621 C2620 1.373 . S
C2621 C2637 1.377 . S
C2622 C2620 1.389 . S
C2622 C2623 1.524 . S
C2622 C2636 1.377 . S
C2623 C2622 1.524 . S
C2623 C2624 1.397 . S
C2623 C2628 1.363 . S
C2624 H2601 0.950 . S
C2624 C2623 1.397 . S
C2624 C2625 1.334 . S
C2625 H2602 0.950 . S
C2625 C2624 1.334 . S
C2625 C2626 1.287 . S
C2626 C2625 1.287 . S
C2626 C2627 1.524 . S
C2626 H2645 0.913 . S
C2627 H2603 0.950 . S
C2627 C2626 1.524 . S
C2627 C2628 1.415 . S
C2628 H2604 0.950 . S
C2628 C2623 1.363 . S
C2628 C2627 1.415 . S
C2629 H2605 0.951 . S
C2629 C2630 1.366 . S
C2629 C2631 1.388 . S
C2630 C2629 1.366 . S
C2630 C2634 1.385 . S
C2631 H2606 0.951 . S
C2631 C2629 1.388 . S
C2631 C2632 1.366 . S
C2632 C2631 1.366 . S
C2632 C2633 1.414 . S
C2632 C2635 1.499 . S
C2633 H2607 0.950 . S
C2633 C2632 1.414 . S
C2633 C2634 1.374 . S
C2634 H2608 0.950 . S
C2634 C2630 1.385 . S
C2634 C2633 1.374 . S
C2635 C2632 1.499 . S
C2635 C2636 1.373 . S
C2635 C2637 1.389 . S
C2636 H2609 0.950 . S
C2636 C2622 1.377 . S
C2636 C2635 1.373 . S
C2637 C2621 1.377 . S
C2637 C2635 1.389 . S
C2637 C2638 1.524 . S
C2638 C2637 1.524 . S
C2638 C2639 1.397 . S
C2638 C2643 1.363 . S
C2639 H2610 0.950 . S
C2639 C2638 1.397 . S
C2639 C2640 1.334 . S
C2640 H2611 0.950 . S
C2640 C2639 1.334 . S
C2640 C2641 1.287 . S
C2641 C2640 1.287 . S
C2641 C2642 1.524 . S
C2641 H2644 0.999 . S
C2642 H2612 0.950 . S
C2642 C2641 1.524 . S
C2642 C2643 1.415 . S
C2643 H2613 0.950 . S
C2643 C2638 1.363 . S
C2643 C2642 1.415 . S
H2644 C2641 0.999 . S
H2645 C2626 0.913 . S
H2646 C2664 0.951 . S
H2647 C2666 0.951 . S
H2648 C2668 0.950 . S
H2649 C2669 0.950 . S
H2650 C2671 0.950 . S
H2651 C2674 0.950 . S
H2652 C2675 0.950 . S
H2653 C2677 0.950 . S
H2654 C2678 0.950 . S
H2655 C2679 0.951 . S
H2656 C2681 0.951 . S
H2657 C2683 0.950 . S
H2658 C2684 0.950 . S
H2659 C2686 0.950 . S
H2660 C2689 0.950 . S
H2661 C2690 0.950 . S
H2662 C2692 0.950 . S
H2663 C2693 0.950 . S
C2664 H2646 0.951 . S
C2664 C2665 1.366 . S
C2664 C2666 1.388 . S
C2665 C2664 1.366 . S
C2665 C2669 1.385 . S
C2666 H2647 0.951 . S
C2666 C2664 1.388 . S
C2666 C2667 1.366 . S
C2667 C2666 1.366 . S
C2667 C2668 1.414 . S
C2667 C2670 1.499 . S
C2668 H2648 0.950 . S
C2668 C2667 1.414 . S
C2668 C2669 1.374 . S
C2669 H2649 0.950 . S
C2669 C2665 1.385 . S
C2669 C2668 1.374 . S
C2670 C2667 1.499 . S
C2670 C2671 1.373 . S
C2670 C2672 1.389 . S
C2671 H2650 0.950 . S
C2671 C2670 1.373 . S
C2671 C2687 1.377 . S
C2672 C2670 1.389 . S
C2672 C2673 1.524 . S
C2672 C2686 1.377 . S
C2673 C2672 1.524 . S
C2673 C2674 1.397 . S
C2673 C2678 1.363 . S
C2674 H2651 0.950 . S
C2674 C2673 1.397 . S
C2674 C2675 1.334 . S
C2675 H2652 0.950 . S
C2675 C2674 1.334 . S
C2675 C2676 1.287 . S
C2676 C2675 1.287 . S
C2676 C2677 1.524 . S
C2676 H2695 0.913 . S
C2677 H2653 0.950 . S
C2677 C2676 1.524 . S
C2677 C2678 1.415 . S
C2678 H2654 0.950 . S
C2678 C2673 1.363 . S
C2678 C2677 1.415 . S
C2679 H2655 0.951 . S
C2679 C2680 1.366 . S
C2679 C2681 1.388 . S
C2680 C2679 1.366 . S
C2680 C2684 1.385 . S
C2681 H2656 0.951 . S
C2681 C2679 1.388 . S
C2681 C2682 1.366 . S
C2682 C2681 1.366 . S
C2682 C2683 1.414 . S
C2682 C2685 1.499 . S
C2683 H2657 0.950 . S
C2683 C2682 1.414 . S
C2683 C2684 1.374 . S
C2684 H2658 0.950 . S
C2684 C2680 1.385 . S
C2684 C2683 1.374 . S
C2685 C2682 1.499 . S
C2685 C2686 1.373 . S
C2685 C2687 1.389 . S
C2686 H2659 0.950 . S
C2686 C2672 1.377 . S
C2686 C2685 1.373 . S
C2687 C2671 1.377 . S
C2687 C2685 1.389 . S
C2687 C2688 1.524 . S
C2688 C2687 1.524 . S
C2688 C2689 1.397 . S
C2688 C2693 1.363 . S
C2689 H2660 0.950 . S
C2689 C2688 1.397 . S
C2689 C2690 1.334 . S
C2690 H2661 0.950 . S
C2690 C2689 1.334 . S
C2690 C2691 1.287 . S
C2691 C2690 1.287 . S
C2691 C2692 1.524 . S
C2691 H2694 0.999 . S
C2692 H2662 0.950 . S
C2692 C2691 1.524 . S
C2692 C2693 1.415 . S
C2693 H2663 0.950 . S
C2693 C2688 1.363 . S
C2693 C2692 1.415 . S
H2694 C2691 0.999 . S
H2695 C2676 0.913 . S
H2696 C2714 0.951 . S
H2697 C2716 0.951 . S
H2698 C2718 0.950 . S
H2699 C2719 0.950 . S
H2700 C2721 0.950 . S
H2701 C2724 0.950 . S
H2702 C2725 0.950 . S
H2703 C2727 0.950 . S
H2704 C2728 0.950 . S
H2705 C2729 0.951 . S
H2706 C2731 0.951 . S
H2707 C2733 0.950 . S
H2708 C2734 0.950 . S
H2709 C2736 0.950 . S
H2710 C2739 0.950 . S
H2711 C2740 0.950 . S
H2712 C2742 0.950 . S
H2713 C2743 0.950 . S
C2714 H2696 0.951 . S
C2714 C2715 1.366 . S
C2714 C2716 1.388 . S
C2715 C2714 1.366 . S
C2715 C2719 1.385 . S
C2716 H2697 0.951 . S
C2716 C2714 1.388 . S
C2716 C2717 1.366 . S
C2717 C2716 1.366 . S
C2717 C2718 1.414 . S
C2717 C2720 1.499 . S
C2718 H2698 0.950 . S
C2718 C2717 1.414 . S
C2718 C2719 1.374 . S
C2719 H2699 0.950 . S
C2719 C2715 1.385 . S
C2719 C2718 1.374 . S
C2720 C2717 1.499 . S
C2720 C2721 1.373 . S
C2720 C2722 1.389 . S
C2721 H2700 0.950 . S
C2721 C2720 1.373 . S
C2721 C2737 1.377 . S
C2722 C2720 1.389 . S
C2722 C2723 1.524 . S
C2722 C2736 1.377 . S
C2723 C2722 1.524 . S
C2723 C2724 1.397 . S
C2723 C2728 1.363 . S
C2724 H2701 0.950 . S
C2724 C2723 1.397 . S
C2724 C2725 1.334 . S
C2725 H2702 0.950 . S
C2725 C2724 1.334 . S
C2725 C2726 1.287 . S
C2726 C2725 1.287 . S
C2726 C2727 1.524 . S
C2726 H2745 0.913 . S
C2727 H2703 0.950 . S
C2727 C2726 1.524 . S
C2727 C2728 1.415 . S
C2728 H2704 0.950 . S
C2728 C2723 1.363 . S
C2728 C2727 1.415 . S
C2729 H2705 0.951 . S
C2729 C2730 1.366 . S
C2729 C2731 1.388 . S
C2730 C2729 1.366 . S
C2730 C2734 1.385 . S
C2731 H2706 0.951 . S
C2731 C2729 1.388 . S
C2731 C2732 1.366 . S
C2732 C2731 1.366 . S
C2732 C2733 1.414 . S
C2732 C2735 1.499 . S
C2733 H2707 0.950 . S
C2733 C2732 1.414 . S
C2733 C2734 1.374 . S
C2734 H2708 0.950 . S
C2734 C2730 1.385 . S
C2734 C2733 1.374 . S
C2735 C2732 1.499 . S
C2735 C2736 1.373 . S
C2735 C2737 1.389 . S
C2736 H2709 0.950 . S
C2736 C2722 1.377 . S
C2736 C2735 1.373 . S
C2737 C2721 1.377 . S
C2737 C2735 1.389 . S
C2737 C2738 1.524 . S
C2738 C2737 1.524 . S
C2738 C2739 1.397 . S
C2738 C2743 1.363 . S
C2739 H2710 0.950 . S
C2739 C2738 1.397 . S
C2739 C2740 1.334 . S
C2740 H2711 0.950 . S
C2740 C2739 1.334 . S
C2740 C2741 1.287 . S
C2741 C2740 1.287 . S
C2741 C2742 1.524 . S
C2741 H2744 0.999 1_455 S
C2742 H2712 0.950 . S
C2742 C2741 1.524 . S
C2742 C2743 1.415 . S
C2743 H2713 0.950 . S
C2743 C2738 1.363 . S
C2743 C2742 1.415 . S
H2744 C2741 0.999 1_655 S
H2745 C2726 0.913 . S
H2746 C2764 0.951 . S
H2747 C2766 0.951 . S
H2748 C2768 0.950 . S
H2749 C2769 0.950 . S
H2750 C2771 0.950 . S
H2751 C2774 0.950 . S
H2752 C2775 0.950 . S
H2753 C2777 0.950 . S
H2754 C2778 0.950 . S
H2755 C2779 0.951 . S
H2756 C2781 0.951 . S
H2757 C2783 0.950 . S
H2758 C2784 0.950 . S
H2759 C2786 0.950 . S
H2760 C2789 0.950 . S
H2761 C2790 0.950 . S
H2762 C2792 0.950 . S
H2763 C2793 0.950 . S
C2764 H2746 0.951 . S
C2764 C2765 1.366 . S
C2764 C2766 1.388 . S
C2765 C2764 1.366 . S
C2765 C2769 1.385 . S
C2766 H2747 0.951 . S
C2766 C2764 1.388 . S
C2766 C2767 1.366 . S
C2767 C2766 1.366 . S
C2767 C2768 1.414 . S
C2767 C2770 1.499 . S
C2768 H2748 0.950 . S
C2768 C2767 1.414 . S
C2768 C2769 1.374 . S
C2769 H2749 0.950 . S
C2769 C2765 1.385 . S
C2769 C2768 1.374 . S
C2770 C2767 1.499 . S
C2770 C2771 1.373 . S
C2770 C2772 1.389 . S
C2771 H2750 0.950 . S
C2771 C2770 1.373 . S
C2771 C2787 1.377 . S
C2772 C2770 1.389 . S
C2772 C2773 1.524 . S
C2772 C2786 1.377 . S
C2773 C2772 1.524 . S
C2773 C2774 1.397 . S
C2773 C2778 1.363 . S
C2774 H2751 0.950 . S
C2774 C2773 1.397 . S
C2774 C2775 1.334 . S
C2775 H2752 0.950 . S
C2775 C2774 1.334 . S
C2775 C2776 1.287 . S
C2776 C2775 1.287 . S
C2776 C2777 1.524 . S
C2776 H2795 0.913 . S
C2777 H2753 0.950 . S
C2777 C2776 1.524 . S
C2777 C2778 1.415 . S
C2778 H2754 0.950 . S
C2778 C2773 1.363 . S
C2778 C2777 1.415 . S
C2779 H2755 0.951 . S
C2779 C2780 1.366 . S
C2779 C2781 1.388 . S
C2780 C2779 1.366 . S
C2780 C2784 1.385 . S
C2781 H2756 0.951 . S
C2781 C2779 1.388 . S
C2781 C2782 1.366 . S
C2782 C2781 1.366 . S
C2782 C2783 1.414 . S
C2782 C2785 1.499 . S
C2783 H2757 0.950 . S
C2783 C2782 1.414 . S
C2783 C2784 1.374 . S
C2784 H2758 0.950 . S
C2784 C2780 1.385 . S
C2784 C2783 1.374 . S
C2785 C2782 1.499 . S
C2785 C2786 1.373 . S
C2785 C2787 1.389 . S
C2786 H2759 0.950 . S
C2786 C2772 1.377 . S
C2786 C2785 1.373 . S
C2787 C2771 1.377 . S
C2787 C2785 1.389 . S
C2787 C2788 1.524 . S
C2788 C2787 1.524 . S
C2788 C2789 1.397 . S
C2788 C2793 1.363 . S
C2789 H2760 0.950 . S
C2789 C2788 1.397 . S
C2789 C2790 1.334 . S
C2790 H2761 0.950 . S
C2790 C2789 1.334 . S
C2790 C2791 1.287 . S
C2791 C2790 1.287 . S
C2791 C2792 1.524 . S
C2791 H2794 0.999 . S
C2792 H2762 0.950 . S
C2792 C2791 1.524 . S
C2792 C2793 1.415 . S
C2793 H2763 0.950 . S
C2793 C2788 1.363 . S
C2793 C2792 1.415 . S
H2794 C2791 0.999 . S
H2795 C2776 0.913 . S
H2796 C2814 0.951 . S
H2797 C2816 0.951 . S
H2798 C2818 0.950 . S
H2799 C2819 0.950 . S
H2800 C2821 0.950 . S
H2801 C2824 0.950 . S
H2802 C2825 0.950 . S
H2803 C2827 0.950 . S
H2804 C2828 0.950 . S
H2805 C2829 0.951 . S
H2806 C2831 0.951 . S
H2807 C2833 0.950 . S
H2808 C2834 0.950 . S
H2809 C2836 0.950 . S
H2810 C2839 0.950 . S
H2811 C2840 0.950 . S
H2812 C2842 0.950 . S
H2813 C2843 0.950 . S
C2814 H2796 0.951 . S
C2814 C2815 1.366 . S
C2814 C2816 1.388 . S
C2815 C2814 1.366 . S
C2815 C2819 1.385 . S
C2816 H2797 0.951 . S
C2816 C2814 1.388 . S
C2816 C2817 1.366 . S
C2817 C2816 1.366 . S
C2817 C2818 1.414 . S
C2817 C2820 1.499 . S
C2818 H2798 0.950 . S
C2818 C2817 1.414 . S
C2818 C2819 1.374 . S
C2819 H2799 0.950 . S
C2819 C2815 1.385 . S
C2819 C2818 1.374 . S
C2820 C2817 1.499 . S
C2820 C2821 1.373 . S
C2820 C2822 1.389 . S
C2821 H2800 0.950 . S
C2821 C2820 1.373 . S
C2821 C2837 1.377 . S
C2822 C2820 1.389 . S
C2822 C2823 1.524 . S
C2822 C2836 1.377 . S
C2823 C2822 1.524 . S
C2823 C2824 1.397 . S
C2823 C2828 1.363 . S
C2824 H2801 0.950 . S
C2824 C2823 1.397 . S
C2824 C2825 1.334 . S
C2825 H2802 0.950 . S
C2825 C2824 1.334 . S
C2825 C2826 1.287 . S
C2826 C2825 1.287 . S
C2826 C2827 1.524 . S
C2826 H2845 0.913 . S
C2827 H2803 0.950 . S
C2827 C2826 1.524 . S
C2827 C2828 1.415 . S
C2828 H2804 0.950 . S
C2828 C2823 1.363 . S
C2828 C2827 1.415 . S
C2829 H2805 0.951 . S
C2829 C2830 1.366 . S
C2829 C2831 1.388 . S
C2830 C2829 1.366 . S
C2830 C2834 1.385 . S
C2831 H2806 0.951 . S
C2831 C2829 1.388 . S
C2831 C2832 1.366 . S
C2832 C2831 1.366 . S
C2832 C2833 1.414 . S
C2832 C2835 1.499 . S
C2833 H2807 0.950 . S
C2833 C2832 1.414 . S
C2833 C2834 1.374 . S
C2834 H2808 0.950 . S
C2834 C2830 1.385 . S
C2834 C2833 1.374 . S
C2835 C2832 1.499 . S
C2835 C2836 1.373 . S
C2835 C2837 1.389 . S
C2836 H2809 0.950 . S
C2836 C2822 1.377 . S
C2836 C2835 1.373 . S
C2837 C2821 1.377 . S
C2837 C2835 1.389 . S
C2837 C2838 1.524 . S
C2838 C2837 1.524 . S
C2838 C2839 1.397 . S
C2838 C2843 1.363 . S
C2839 H2810 0.950 . S
C2839 C2838 1.397 . S
C2839 C2840 1.334 . S
C2840 H2811 0.950 . S
C2840 C2839 1.334 . S
C2840 C2841 1.287 . S
C2841 C2840 1.287 . S
C2841 C2842 1.524 . S
C2841 H2844 0.999 . S
C2842 H2812 0.950 . S
C2842 C2841 1.524 . S
C2842 C2843 1.415 . S
C2843 H2813 0.950 . S
C2843 C2838 1.363 . S
C2843 C2842 1.415 . S
H2844 C2841 0.999 . S
H2845 C2826 0.913 . S
H2846 C2864 0.951 . S
H2847 C2866 0.951 . S
H2848 C2868 0.950 . S
H2849 C2869 0.950 . S
H2850 C2871 0.950 . S
H2851 C2874 0.950 . S
H2852 C2875 0.950 . S
H2853 C2877 0.950 . S
H2854 C2878 0.950 . S
H2855 C2879 0.951 . S
H2856 C2881 0.951 . S
H2857 C2883 0.950 . S
H2858 C2884 0.950 . S
H2859 C2886 0.950 . S
H2860 C2889 0.950 . S
H2861 C2890 0.950 . S
H2862 C2892 0.950 . S
H2863 C2893 0.950 . S
C2864 H2846 0.951 . S
C2864 C2865 1.366 . S
C2864 C2866 1.388 . S
C2865 C2864 1.366 . S
C2865 C2869 1.385 . S
C2866 H2847 0.951 . S
C2866 C2864 1.388 . S
C2866 C2867 1.366 . S
C2867 C2866 1.366 . S
C2867 C2868 1.414 . S
C2867 C2870 1.499 . S
C2868 H2848 0.950 . S
C2868 C2867 1.414 . S
C2868 C2869 1.374 . S
C2869 H2849 0.950 . S
C2869 C2865 1.385 . S
C2869 C2868 1.374 . S
C2870 C2867 1.499 . S
C2870 C2871 1.373 . S
C2870 C2872 1.389 . S
C2871 H2850 0.950 . S
C2871 C2870 1.373 . S
C2871 C2887 1.377 . S
C2872 C2870 1.389 . S
C2872 C2873 1.524 . S
C2872 C2886 1.377 . S
C2873 C2872 1.524 . S
C2873 C2874 1.397 . S
C2873 C2878 1.363 . S
C2874 H2851 0.950 . S
C2874 C2873 1.397 . S
C2874 C2875 1.334 . S
C2875 H2852 0.950 . S
C2875 C2874 1.334 . S
C2875 C2876 1.287 . S
C2876 C2875 1.287 . S
C2876 C2877 1.524 . S
C2876 H2895 0.913 . S
C2877 H2853 0.950 . S
C2877 C2876 1.524 . S
C2877 C2878 1.415 . S
C2878 H2854 0.950 . S
C2878 C2873 1.363 . S
C2878 C2877 1.415 . S
C2879 H2855 0.951 . S
C2879 C2880 1.366 . S
C2879 C2881 1.388 . S
C2880 C2879 1.366 . S
C2880 C2884 1.385 . S
C2881 H2856 0.951 . S
C2881 C2879 1.388 . S
C2881 C2882 1.366 . S
C2882 C2881 1.366 . S
C2882 C2883 1.414 . S
C2882 C2885 1.499 . S
C2883 H2857 0.950 . S
C2883 C2882 1.414 . S
C2883 C2884 1.374 . S
C2884 H2858 0.950 . S
C2884 C2880 1.385 . S
C2884 C2883 1.374 . S
C2885 C2882 1.499 . S
C2885 C2886 1.373 . S
C2885 C2887 1.389 . S
C2886 H2859 0.950 . S
C2886 C2872 1.377 . S
C2886 C2885 1.373 . S
C2887 C2871 1.377 . S
C2887 C2885 1.389 . S
C2887 C2888 1.524 . S
C2888 C2887 1.524 . S
C2888 C2889 1.397 . S
C2888 C2893 1.363 . S
C2889 H2860 0.950 . S
C2889 C2888 1.397 . S
C2889 C2890 1.334 . S
C2890 H2861 0.950 . S
C2890 C2889 1.334 . S
C2890 C2891 1.287 . S
C2891 C2890 1.287 . S
C2891 C2892 1.524 . S
C2891 H2894 0.999 . S
C2892 H2862 0.950 . S
C2892 C2891 1.524 . S
C2892 C2893 1.415 . S
C2893 H2863 0.950 . S
C2893 C2888 1.363 . S
C2893 C2892 1.415 . S
H2894 C2891 0.999 . S
H2895 C2876 0.913 . S
H2896 C2914 0.951 . S
H2897 C2916 0.951 . S
H2898 C2918 0.950 . S
H2899 C2919 0.950 . S
H2900 C2921 0.950 . S
H2901 C2924 0.950 . S
H2902 C2925 0.950 . S
H2903 C2927 0.950 . S
H2904 C2928 0.950 . S
H2905 C2929 0.951 . S
H2906 C2931 0.951 . S
H2907 C2933 0.950 . S
H2908 C2934 0.950 . S
H2909 C2936 0.950 . S
H2910 C2939 0.950 . S
H2911 C2940 0.950 . S
H2912 C2942 0.950 . S
H2913 C2943 0.950 . S
C2914 H2896 0.951 . S
C2914 C2915 1.366 . S
C2914 C2916 1.388 . S
C2915 C2914 1.366 . S
C2915 C2919 1.385 . S
C2916 H2897 0.951 . S
C2916 C2914 1.388 . S
C2916 C2917 1.366 . S
C2917 C2916 1.366 . S
C2917 C2918 1.414 . S
C2917 C2920 1.499 . S
C2918 H2898 0.950 . S
C2918 C2917 1.414 . S
C2918 C2919 1.374 . S
C2919 H2899 0.950 . S
C2919 C2915 1.385 . S
C2919 C2918 1.374 . S
C2920 C2917 1.499 . S
C2920 C2921 1.373 . S
C2920 C2922 1.389 . S
C2921 H2900 0.950 . S
C2921 C2920 1.373 . S
C2921 C2937 1.377 . S
C2922 C2920 1.389 . S
C2922 C2923 1.524 . S
C2922 C2936 1.377 . S
C2923 C2922 1.524 . S
C2923 C2924 1.397 . S
C2923 C2928 1.363 . S
C2924 H2901 0.950 . S
C2924 C2923 1.397 . S
C2924 C2925 1.334 . S
C2925 H2902 0.950 . S
C2925 C2924 1.334 . S
C2925 C2926 1.287 . S
C2926 C2925 1.287 . S
C2926 C2927 1.524 . S
C2926 H2945 0.913 . S
C2927 H2903 0.950 . S
C2927 C2926 1.524 . S
C2927 C2928 1.415 . S
C2928 H2904 0.950 . S
C2928 C2923 1.363 . S
C2928 C2927 1.415 . S
C2929 H2905 0.951 . S
C2929 C2930 1.366 . S
C2929 C2931 1.388 . S
C2930 C2929 1.366 . S
C2930 C2934 1.385 . S
C2931 H2906 0.951 . S
C2931 C2929 1.388 . S
C2931 C2932 1.366 . S
C2932 C2931 1.366 . S
C2932 C2933 1.414 . S
C2932 C2935 1.499 . S
C2933 H2907 0.950 . S
C2933 C2932 1.414 . S
C2933 C2934 1.374 . S
C2934 H2908 0.950 . S
C2934 C2930 1.385 . S
C2934 C2933 1.374 . S
C2935 C2932 1.499 . S
C2935 C2936 1.373 . S
C2935 C2937 1.389 . S
C2936 H2909 0.950 . S
C2936 C2922 1.377 . S
C2936 C2935 1.373 . S
C2937 C2921 1.377 . S
C2937 C2935 1.389 . S
C2937 C2938 1.524 . S
C2938 C2937 1.524 . S
C2938 C2939 1.397 . S
C2938 C2943 1.363 . S
C2939 H2910 0.950 . S
C2939 C2938 1.397 . S
C2939 C2940 1.334 . S
C2940 H2911 0.950 . S
C2940 C2939 1.334 . S
C2940 C2941 1.287 . S
C2941 C2940 1.287 . S
C2941 C2942 1.524 . S
C2941 H2944 0.999 . S
C2942 H2912 0.950 . S
C2942 C2941 1.524 . S
C2942 C2943 1.415 . S
C2943 H2913 0.950 . S
C2943 C2938 1.363 . S
C2943 C2942 1.415 . S
H2944 C2941 0.999 . S
H2945 C2926 0.913 . S
H2946 C2964 0.951 . S
H2947 C2966 0.951 . S
H2948 C2968 0.950 . S
H2949 C2969 0.950 . S
H2950 C2971 0.950 . S
H2951 C2974 0.950 . S
H2952 C2975 0.950 . S
H2953 C2977 0.950 . S
H2954 C2978 0.950 . S
H2955 C2979 0.951 . S
H2956 C2981 0.951 . S
H2957 C2983 0.950 . S
H2958 C2984 0.950 . S
H2959 C2986 0.950 . S
H2960 C2989 0.950 . S
H2961 C2990 0.950 . S
H2962 C2992 0.950 . S
H2963 C2993 0.950 . S
C2964 H2946 0.951 . S
C2964 C2965 1.366 . S
C2964 C2966 1.388 . S
C2965 C2964 1.366 . S
C2965 C2969 1.385 . S
C2966 H2947 0.951 . S
C2966 C2964 1.388 . S
C2966 C2967 1.366 . S
C2967 C2966 1.366 . S
C2967 C2968 1.414 . S
C2967 C2970 1.499 . S
C2968 H2948 0.950 . S
C2968 C2967 1.414 . S
C2968 C2969 1.374 . S
C2969 H2949 0.950 . S
C2969 C2965 1.385 . S
C2969 C2968 1.374 . S
C2970 C2967 1.499 . S
C2970 C2971 1.373 . S
C2970 C2972 1.389 . S
C2971 H2950 0.950 . S
C2971 C2970 1.373 . S
C2971 C2987 1.377 . S
C2972 C2970 1.389 . S
C2972 C2973 1.524 . S
C2972 C2986 1.377 . S
C2973 C2972 1.524 . S
C2973 C2974 1.397 . S
C2973 C2978 1.363 . S
C2974 H2951 0.950 . S
C2974 C2973 1.397 . S
C2974 C2975 1.334 . S
C2975 H2952 0.950 . S
C2975 C2974 1.334 . S
C2975 C2976 1.287 . S
C2976 C2975 1.287 . S
C2976 C2977 1.524 . S
C2976 H2995 0.913 . S
C2977 H2953 0.950 . S
C2977 C2976 1.524 . S
C2977 C2978 1.415 . S
C2978 H2954 0.950 . S
C2978 C2973 1.363 . S
C2978 C2977 1.415 . S
C2979 H2955 0.951 . S
C2979 C2980 1.366 . S
C2979 C2981 1.388 . S
C2980 C2979 1.366 . S
C2980 C2984 1.385 . S
C2981 H2956 0.951 . S
C2981 C2979 1.388 . S
C2981 C2982 1.366 . S
C2982 C2981 1.366 . S
C2982 C2983 1.414 . S
C2982 C2985 1.499 . S
C2983 H2957 0.950 . S
C2983 C2982 1.414 . S
C2983 C2984 1.374 . S
C2984 H2958 0.950 . S
C2984 C2980 1.385 . S
C2984 C2983 1.374 . S
C2985 C2982 1.499 . S
C2985 C2986 1.373 . S
C2985 C2987 1.389 . S
C2986 H2959 0.950 . S
C2986 C2972 1.377 . S
C2986 C2985 1.373 . S
C2987 C2971 1.377 . S
C2987 C2985 1.389 . S
C2987 C2988 1.524 . S
C2988 C2987 1.524 . S
C2988 C2989 1.397 . S
C2988 C2993 1.363 . S
C2989 H2960 0.950 . S
C2989 C2988 1.397 . S
C2989 C2990 1.334 . S
C2990 H2961 0.950 . S
C2990 C2989 1.334 . S
C2990 C2991 1.287 . S
C2991 C2990 1.287 . S
C2991 C2992 1.524 . S
C2991 H2994 0.999 . S
C2992 H2962 0.950 . S
C2992 C2991 1.524 . S
C2992 C2993 1.415 . S
C2993 H2963 0.950 . S
C2993 C2988 1.363 . S
C2993 C2992 1.415 . S
H2994 C2991 0.999 . S
H2995 C2976 0.913 . S
H2996 C3014 0.951 . S
H2997 C3016 0.951 . S
H2998 C3018 0.950 . S
H2999 C3019 0.950 . S
H3000 C3021 0.950 . S
H3001 C3024 0.950 . S
H3002 C3025 0.950 . S
H3003 C3027 0.950 . S
H3004 C3028 0.950 . S
H3005 C3029 0.951 . S
H3006 C3031 0.951 . S
H3007 C3033 0.950 . S
H3008 C3034 0.950 . S
H3009 C3036 0.950 . S
H3010 C3039 0.950 . S
H3011 C3040 0.950 . S
H3012 C3042 0.950 . S
H3013 C3043 0.950 . S
C3014 H2996 0.951 . S
C3014 C3015 1.366 . S
C3014 C3016 1.388 . S
C3015 C3014 1.366 . S
C3015 C3019 1.385 . S
C3016 H2997 0.951 . S
C3016 C3014 1.388 . S
C3016 C3017 1.366 . S
C3017 C3016 1.366 . S
C3017 C3018 1.414 . S
C3017 C3020 1.499 . S
C3018 H2998 0.950 . S
C3018 C3017 1.414 . S
C3018 C3019 1.374 . S
C3019 H2999 0.950 . S
C3019 C3015 1.385 . S
C3019 C3018 1.374 . S
C3020 C3017 1.499 . S
C3020 C3021 1.373 . S
C3020 C3022 1.389 . S
C3021 H3000 0.950 . S
C3021 C3020 1.373 . S
C3021 C3037 1.377 . S
C3022 C3020 1.389 . S
C3022 C3023 1.524 . S
C3022 C3036 1.377 . S
C3023 C3022 1.524 . S
C3023 C3024 1.397 . S
C3023 C3028 1.363 . S
C3024 H3001 0.950 . S
C3024 C3023 1.397 . S
C3024 C3025 1.334 . S
C3025 H3002 0.950 . S
C3025 C3024 1.334 . S
C3025 C3026 1.287 . S
C3026 C3025 1.287 . S
C3026 C3027 1.524 . S
C3026 H3045 0.913 . S
C3027 H3003 0.950 . S
C3027 C3026 1.524 . S
C3027 C3028 1.415 . S
C3028 H3004 0.950 . S
C3028 C3023 1.363 . S
C3028 C3027 1.415 . S
C3029 H3005 0.951 . S
C3029 C3030 1.366 . S
C3029 C3031 1.388 . S
C3030 C3029 1.366 . S
C3030 C3034 1.385 . S
C3031 H3006 0.951 . S
C3031 C3029 1.388 . S
C3031 C3032 1.366 . S
C3032 C3031 1.366 . S
C3032 C3033 1.414 . S
C3032 C3035 1.499 . S
C3033 H3007 0.950 . S
C3033 C3032 1.414 . S
C3033 C3034 1.374 . S
C3034 H3008 0.950 . S
C3034 C3030 1.385 . S
C3034 C3033 1.374 . S
C3035 C3032 1.499 . S
C3035 C3036 1.373 . S
C3035 C3037 1.389 . S
C3036 H3009 0.950 . S
C3036 C3022 1.377 . S
C3036 C3035 1.373 . S
C3037 C3021 1.377 . S
C3037 C3035 1.389 . S
C3037 C3038 1.524 . S
C3038 C3037 1.524 . S
C3038 C3039 1.397 . S
C3038 C3043 1.363 . S
C3039 H3010 0.950 . S
C3039 C3038 1.397 . S
C3039 C3040 1.334 . S
C3040 H3011 0.950 . S
C3040 C3039 1.334 . S
C3040 C3041 1.287 . S
C3041 C3040 1.287 . S
C3041 C3042 1.524 . S
C3041 H3044 0.999 . S
C3042 H3012 0.950 . S
C3042 C3041 1.524 . S
C3042 C3043 1.415 . S
C3043 H3013 0.950 . S
C3043 C3038 1.363 . S
C3043 C3042 1.415 . S
H3044 C3041 0.999 . S
H3045 C3026 0.913 . S
H3046 C3064 0.951 . S
H3047 C3066 0.951 . S
H3048 C3068 0.950 . S
H3049 C3069 0.950 . S
H3050 C3071 0.950 . S
H3051 C3074 0.950 . S
H3052 C3075 0.950 . S
H3053 C3077 0.950 . S
H3054 C3078 0.950 . S
H3055 C3079 0.951 . S
H3056 C3081 0.951 . S
H3057 C3083 0.950 . S
H3058 C3084 0.950 . S
H3059 C3086 0.950 . S
H3060 C3089 0.950 . S
H3061 C3090 0.950 . S
H3062 C3092 0.950 . S
H3063 C3093 0.950 . S
C3064 H3046 0.951 . S
C3064 C3065 1.366 . S
C3064 C3066 1.388 . S
C3065 C3064 1.366 . S
C3065 C3069 1.385 . S
C3066 H3047 0.951 . S
C3066 C3064 1.388 . S
C3066 C3067 1.366 . S
C3067 C3066 1.366 . S
C3067 C3068 1.414 . S
C3067 C3070 1.499 . S
C3068 H3048 0.950 . S
C3068 C3067 1.414 . S
C3068 C3069 1.374 . S
C3069 H3049 0.950 . S
C3069 C3065 1.385 . S
C3069 C3068 1.374 . S
C3070 C3067 1.499 . S
C3070 C3071 1.373 . S
C3070 C3072 1.389 . S
C3071 H3050 0.950 . S
C3071 C3070 1.373 . S
C3071 C3087 1.377 . S
C3072 C3070 1.389 . S
C3072 C3073 1.524 . S
C3072 C3086 1.377 . S
C3073 C3072 1.524 . S
C3073 C3074 1.397 . S
C3073 C3078 1.363 . S
C3074 H3051 0.950 . S
C3074 C3073 1.397 . S
C3074 C3075 1.334 . S
C3075 H3052 0.950 . S
C3075 C3074 1.334 . S
C3075 C3076 1.287 . S
C3076 C3075 1.287 . S
C3076 C3077 1.524 . S
C3076 H3095 0.913 . S
C3077 H3053 0.950 . S
C3077 C3076 1.524 . S
C3077 C3078 1.415 . S
C3078 H3054 0.950 . S
C3078 C3073 1.363 . S
C3078 C3077 1.415 . S
C3079 H3055 0.951 . S
C3079 C3080 1.366 . S
C3079 C3081 1.388 . S
C3080 C3079 1.366 . S
C3080 C3084 1.385 . S
C3081 H3056 0.951 . S
C3081 C3079 1.388 . S
C3081 C3082 1.366 . S
C3082 C3081 1.366 . S
C3082 C3083 1.414 . S
C3082 C3085 1.499 . S
C3083 H3057 0.950 . S
C3083 C3082 1.414 . S
C3083 C3084 1.374 . S
C3084 H3058 0.950 . S
C3084 C3080 1.385 . S
C3084 C3083 1.374 . S
C3085 C3082 1.499 . S
C3085 C3086 1.373 . S
C3085 C3087 1.389 . S
C3086 H3059 0.950 . S
C3086 C3072 1.377 . S
C3086 C3085 1.373 . S
C3087 C3071 1.377 . S
C3087 C3085 1.389 . S
C3087 C3088 1.524 . S
C3088 C3087 1.524 . S
C3088 C3089 1.397 . S
C3088 C3093 1.363 . S
C3089 H3060 0.950 . S
C3089 C3088 1.397 . S
C3089 C3090 1.334 . S
C3090 H3061 0.950 . S
C3090 C3089 1.334 . S
C3090 C3091 1.287 . S
C3091 C3090 1.287 . S
C3091 C3092 1.524 . S
C3091 H3094 0.999 . S
C3092 H3062 0.950 . S
C3092 C3091 1.524 . S
C3092 C3093 1.415 . S
C3093 H3063 0.950 . S
C3093 C3088 1.363 . S
C3093 C3092 1.415 . S
H3094 C3091 0.999 . S
H3095 C3076 0.913 . S
H3096 C3114 0.951 . S
H3097 C3116 0.951 . S
H3098 C3118 0.950 . S
H3099 C3119 0.950 . S
H3100 C3121 0.950 . S
H3101 C3124 0.950 . S
H3102 C3125 0.950 . S
H3103 C3127 0.950 . S
H3104 C3128 0.950 . S
H3105 C3129 0.951 . S
H3106 C3131 0.951 . S
H3107 C3133 0.950 . S
H3108 C3134 0.950 . S
H3109 C3136 0.950 . S
H3110 C3139 0.950 . S
H3111 C3140 0.950 . S
H3112 C3142 0.950 . S
H3113 C3143 0.950 . S
C3114 H3096 0.951 . S
C3114 C3115 1.366 . S
C3114 C3116 1.388 . S
C3115 C3114 1.366 . S
C3115 C3119 1.385 . S
C3116 H3097 0.951 . S
C3116 C3114 1.388 . S
C3116 C3117 1.366 . S
C3117 C3116 1.366 . S
C3117 C3118 1.414 . S
C3117 C3120 1.499 . S
C3118 H3098 0.950 . S
C3118 C3117 1.414 . S
C3118 C3119 1.374 . S
C3119 H3099 0.950 . S
C3119 C3115 1.385 . S
C3119 C3118 1.374 . S
C3120 C3117 1.499 . S
C3120 C3121 1.373 . S
C3120 C3122 1.389 . S
C3121 H3100 0.950 . S
C3121 C3120 1.373 . S
C3121 C3137 1.377 . S
C3122 C3120 1.389 . S
C3122 C3123 1.524 . S
C3122 C3136 1.377 . S
C3123 C3122 1.524 . S
C3123 C3124 1.397 . S
C3123 C3128 1.363 . S
C3124 H3101 0.950 . S
C3124 C3123 1.397 . S
C3124 C3125 1.334 . S
C3125 H3102 0.950 . S
C3125 C3124 1.334 . S
C3125 C3126 1.287 . S
C3126 C3125 1.287 . S
C3126 C3127 1.524 . S
C3126 H3145 0.913 . S
C3127 H3103 0.950 . S
C3127 C3126 1.524 . S
C3127 C3128 1.415 . S
C3128 H3104 0.950 . S
C3128 C3123 1.363 . S
C3128 C3127 1.415 . S
C3129 H3105 0.951 . S
C3129 C3130 1.366 . S
C3129 C3131 1.388 . S
C3130 C3129 1.366 . S
C3130 C3134 1.385 . S
C3131 H3106 0.951 . S
C3131 C3129 1.388 . S
C3131 C3132 1.366 . S
C3132 C3131 1.366 . S
C3132 C3133 1.414 . S
C3132 C3135 1.499 . S
C3133 H3107 0.950 . S
C3133 C3132 1.414 . S
C3133 C3134 1.374 . S
C3134 H3108 0.950 . S
C3134 C3130 1.385 . S
C3134 C3133 1.374 . S
C3135 C3132 1.499 . S
C3135 C3136 1.373 . S
C3135 C3137 1.389 . S
C3136 H3109 0.950 . S
C3136 C3122 1.377 . S
C3136 C3135 1.373 . S
C3137 C3121 1.377 . S
C3137 C3135 1.389 . S
C3137 C3138 1.524 . S
C3138 C3137 1.524 . S
C3138 C3139 1.397 . S
C3138 C3143 1.363 . S
C3139 H3110 0.950 . S
C3139 C3138 1.397 . S
C3139 C3140 1.334 . S
C3140 H3111 0.950 . S
C3140 C3139 1.334 . S
C3140 C3141 1.287 . S
C3141 C3140 1.287 . S
C3141 C3142 1.524 . S
C3141 H3144 0.999 . S
C3142 H3112 0.950 . S
C3142 C3141 1.524 . S
C3142 C3143 1.415 . S
C3143 H3113 0.950 . S
C3143 C3138 1.363 . S
C3143 C3142 1.415 . S
H3144 C3141 0.999 . S
H3145 C3126 0.913 . S
H3146 C3164 0.951 . S
H3147 C3166 0.951 . S
H3148 C3168 0.950 . S
H3149 C3169 0.950 . S
H3150 C3171 0.950 . S
H3151 C3174 0.950 . S
H3152 C3175 0.950 . S
H3153 C3177 0.950 . S
H3154 C3178 0.950 . S
H3155 C3179 0.951 . S
H3156 C3181 0.951 . S
H3157 C3183 0.950 . S
H3158 C3184 0.950 . S
H3159 C3186 0.950 . S
H3160 C3189 0.950 . S
H3161 C3190 0.950 . S
H3162 C3192 0.950 . S
H3163 C3193 0.950 . S
C3164 H3146 0.951 . S
C3164 C3165 1.366 . S
C3164 C3166 1.388 . S
C3165 C3164 1.366 . S
C3165 C3169 1.385 . S
C3166 H3147 0.951 . S
C3166 C3164 1.388 . S
C3166 C3167 1.366 . S
C3167 C3166 1.366 . S
C3167 C3168 1.414 . S
C3167 C3170 1.499 . S
C3168 H3148 0.950 . S
C3168 C3167 1.414 . S
C3168 C3169 1.374 . S
C3169 H3149 0.950 . S
C3169 C3165 1.385 . S
C3169 C3168 1.374 . S
C3170 C3167 1.499 . S
C3170 C3171 1.373 . S
C3170 C3172 1.389 . S
C3171 H3150 0.950 . S
C3171 C3170 1.373 . S
C3171 C3187 1.377 . S
C3172 C3170 1.389 . S
C3172 C3173 1.524 . S
C3172 C3186 1.377 . S
C3173 C3172 1.524 . S
C3173 C3174 1.397 . S
C3173 C3178 1.363 . S
C3174 H3151 0.950 . S
C3174 C3173 1.397 . S
C3174 C3175 1.334 . S
C3175 H3152 0.950 . S
C3175 C3174 1.334 . S
C3175 C3176 1.287 . S
C3176 C3175 1.287 . S
C3176 C3177 1.524 . S
C3176 H3195 0.913 . S
C3177 H3153 0.950 . S
C3177 C3176 1.524 . S
C3177 C3178 1.415 . S
C3178 H3154 0.950 . S
C3178 C3173 1.363 . S
C3178 C3177 1.415 . S
C3179 H3155 0.951 . S
C3179 C3180 1.366 . S
C3179 C3181 1.388 . S
C3180 C3179 1.366 . S
C3180 C3184 1.385 . S
C3181 H3156 0.951 . S
C3181 C3179 1.388 . S
C3181 C3182 1.366 . S
C3182 C3181 1.366 . S
C3182 C3183 1.414 . S
C3182 C3185 1.499 . S
C3183 H3157 0.950 . S
C3183 C3182 1.414 . S
C3183 C3184 1.374 . S
C3184 H3158 0.950 . S
C3184 C3180 1.385 . S
C3184 C3183 1.374 . S
C3185 C3182 1.499 . S
C3185 C3186 1.373 . S
C3185 C3187 1.389 . S
C3186 H3159 0.950 . S
C3186 C3172 1.377 . S
C3186 C3185 1.373 . S
C3187 C3171 1.377 . S
C3187 C3185 1.389 . S
C3187 C3188 1.524 . S
C3188 C3187 1.524 . S
C3188 C3189 1.397 . S
C3188 C3193 1.363 . S
C3189 H3160 0.950 . S
C3189 C3188 1.397 . S
C3189 C3190 1.334 . S
C3190 H3161 0.950 . S
C3190 C3189 1.334 . S
C3190 C3191 1.287 . S
C3191 C3190 1.287 . S
C3191 C3192 1.524 . S
C3191 H3194 0.999 . S
C3192 H3162 0.950 . S
C3192 C3191 1.524 . S
C3192 C3193 1.415 . S
C3193 H3163 0.950 . S
C3193 C3188 1.363 . S
C3193 C3192 1.415 . S
H3194 C3191 0.999 . S
H3195 C3176 0.913 . S
H3196 C3214 0.951 . S
H3197 C3216 0.951 . S
H3198 C3218 0.950 . S
H3199 C3219 0.950 . S
H3200 C3221 0.950 . S
H3201 C3224 0.950 . S
H3202 C3225 0.950 . S
H3203 C3227 0.950 . S
H3204 C3228 0.950 . S
H3205 C3229 0.951 . S
H3206 C3231 0.951 . S
H3207 C3233 0.950 . S
H3208 C3234 0.950 . S
H3209 C3236 0.950 . S
H3210 C3239 0.950 . S
H3211 C3240 0.950 . S
H3212 C3242 0.950 . S
H3213 C3243 0.950 . S
C3214 H3196 0.951 . S
C3214 C3215 1.366 . S
C3214 C3216 1.388 . S
C3215 C3214 1.366 . S
C3215 C3219 1.385 . S
C3216 H3197 0.951 . S
C3216 C3214 1.388 . S
C3216 C3217 1.366 . S
C3217 C3216 1.366 . S
C3217 C3218 1.414 . S
C3217 C3220 1.499 . S
C3218 H3198 0.950 . S
C3218 C3217 1.414 . S
C3218 C3219 1.374 . S
C3219 H3199 0.950 . S
C3219 C3215 1.385 . S
C3219 C3218 1.374 . S
C3220 C3217 1.499 . S
C3220 C3221 1.373 . S
C3220 C3222 1.389 . S
C3221 H3200 0.950 . S
C3221 C3220 1.373 . S
C3221 C3237 1.377 . S
C3222 C3220 1.389 . S
C3222 C3223 1.524 . S
C3222 C3236 1.377 . S
C3223 C3222 1.524 . S
C3223 C3224 1.397 . S
C3223 C3228 1.363 . S
C3224 H3201 0.950 . S
C3224 C3223 1.397 . S
C3224 C3225 1.334 . S
C3225 H3202 0.950 . S
C3225 C3224 1.334 . S
C3225 C3226 1.287 . S
C3226 C3225 1.287 . S
C3226 C3227 1.524 . S
C3226 H3245 0.913 . S
C3227 H3203 0.950 . S
C3227 C3226 1.524 . S
C3227 C3228 1.415 . S
C3228 H3204 0.950 . S
C3228 C3223 1.363 . S
C3228 C3227 1.415 . S
C3229 H3205 0.951 . S
C3229 C3230 1.366 . S
C3229 C3231 1.388 . S
C3230 C3229 1.366 . S
C3230 C3234 1.385 . S
C3231 H3206 0.951 . S
C3231 C3229 1.388 . S
C3231 C3232 1.366 . S
C3232 C3231 1.366 . S
C3232 C3233 1.414 . S
C3232 C3235 1.499 . S
C3233 H3207 0.950 . S
C3233 C3232 1.414 . S
C3233 C3234 1.374 . S
C3234 H3208 0.950 . S
C3234 C3230 1.385 . S
C3234 C3233 1.374 . S
C3235 C3232 1.499 . S
C3235 C3236 1.373 . S
C3235 C3237 1.389 . S
C3236 H3209 0.950 . S
C3236 C3222 1.377 . S
C3236 C3235 1.373 . S
C3237 C3221 1.377 . S
C3237 C3235 1.389 . S
C3237 C3238 1.524 . S
C3238 C3237 1.524 . S
C3238 C3239 1.397 . S
C3238 C3243 1.363 . S
C3239 H3210 0.950 . S
C3239 C3238 1.397 . S
C3239 C3240 1.334 . S
C3240 H3211 0.950 . S
C3240 C3239 1.334 . S
C3240 C3241 1.287 . S
C3241 C3240 1.287 . S
C3241 C3242 1.524 . S
C3241 H3244 0.999 . S
C3242 H3212 0.950 . S
C3242 C3241 1.524 . S
C3242 C3243 1.415 . S
C3243 H3213 0.950 . S
C3243 C3238 1.363 . S
C3243 C3242 1.415 . S
H3244 C3241 0.999 . S
H3245 C3226 0.913 . S
H3246 C3264 0.951 . S
H3247 C3266 0.951 . S
H3248 C3268 0.950 . S
H3249 C3269 0.950 . S
H3250 C3271 0.950 . S
H3251 C3274 0.950 . S
H3252 C3275 0.950 . S
H3253 C3277 0.950 . S
H3254 C3278 0.950 . S
H3255 C3279 0.951 . S
H3256 C3281 0.951 . S
H3257 C3283 0.950 . S
H3258 C3284 0.950 . S
H3259 C3286 0.950 . S
H3260 C3289 0.950 . S
H3261 C3290 0.950 . S
H3262 C3292 0.950 . S
H3263 C3293 0.950 . S
C3264 H3246 0.951 . S
C3264 C3265 1.366 . S
C3264 C3266 1.388 . S
C3265 C3264 1.366 . S
C3265 C3269 1.385 . S
C3266 H3247 0.951 . S
C3266 C3264 1.388 . S
C3266 C3267 1.366 . S
C3267 C3266 1.366 . S
C3267 C3268 1.414 . S
C3267 C3270 1.499 . S
C3268 H3248 0.950 . S
C3268 C3267 1.414 . S
C3268 C3269 1.374 . S
C3269 H3249 0.950 . S
C3269 C3265 1.385 . S
C3269 C3268 1.374 . S
C3270 C3267 1.499 . S
C3270 C3271 1.373 . S
C3270 C3272 1.389 . S
C3271 H3250 0.950 . S
C3271 C3270 1.373 . S
C3271 C3287 1.377 . S
C3272 C3270 1.389 . S
C3272 C3273 1.524 . S
C3272 C3286 1.377 . S
C3273 C3272 1.524 . S
C3273 C3274 1.397 . S
C3273 C3278 1.363 . S
C3274 H3251 0.950 . S
C3274 C3273 1.397 . S
C3274 C3275 1.334 . S
C3275 H3252 0.950 . S
C3275 C3274 1.334 . S
C3275 C3276 1.287 . S
C3276 C3275 1.287 . S
C3276 C3277 1.524 . S
C3276 H3295 0.913 . S
C3277 H3253 0.950 . S
C3277 C3276 1.524 . S
C3277 C3278 1.415 . S
C3278 H3254 0.950 . S
C3278 C3273 1.363 . S
C3278 C3277 1.415 . S
C3279 H3255 0.951 . S
C3279 C3280 1.366 . S
C3279 C3281 1.388 . S
C3280 C3279 1.366 . S
C3280 C3284 1.385 . S
C3281 H3256 0.951 . S
C3281 C3279 1.388 . S
C3281 C3282 1.366 . S
C3282 C3281 1.366 . S
C3282 C3283 1.414 . S
C3282 C3285 1.499 . S
C3283 H3257 0.950 . S
C3283 C3282 1.414 . S
C3283 C3284 1.374 . S
C3284 H3258 0.950 . S
C3284 C3280 1.385 . S
C3284 C3283 1.374 . S
C3285 C3282 1.499 . S
C3285 C3286 1.373 . S
C3285 C3287 1.389 . S
C3286 H3259 0.950 . S
C3286 C3272 1.377 . S
C3286 C3285 1.373 . S
C3287 C3271 1.377 . S
C3287 C3285 1.389 . S
C3287 C3288 1.524 . S
C3288 C3287 1.524 . S
C3288 C3289 1.397 . S
C3288 C3293 1.363 . S
C3289 H3260 0.950 . S
C3289 C3288 1.397 . S
C3289 C3290 1.334 . S
C3290 H3261 0.950 . S
C3290 C3289 1.334 . S
C3290 C3291 1.287 . S
C3291 C3290 1.287 . S
C3291 C3292 1.524 . S
C3291 H3294 0.999 . S
C3292 H3262 0.950 . S
C3292 C3291 1.524 . S
C3292 C3293 1.415 . S
C3293 H3263 0.950 . S
C3293 C3288 1.363 . S
C3293 C3292 1.415 . S
H3294 C3291 0.999 . S
H3295 C3276 0.913 . S
H3296 C3314 0.951 . S
H3297 C3316 0.951 . S
H3298 C3318 0.950 . S
H3299 C3319 0.950 . S
H3300 C3321 0.950 . S
H3301 C3324 0.950 . S
H3302 C3325 0.950 . S
H3303 C3327 0.950 . S
H3304 C3328 0.950 . S
H3305 C3329 0.951 . S
H3306 C3331 0.951 . S
H3307 C3333 0.950 . S
H3308 C3334 0.950 . S
H3309 C3336 0.950 . S
H3310 C3339 0.950 . S
H3311 C3340 0.950 . S
H3312 C3342 0.950 . S
H3313 C3343 0.950 . S
C3314 H3296 0.951 . S
C3314 C3315 1.366 . S
C3314 C3316 1.388 . S
C3315 C3314 1.366 . S
C3315 C3319 1.385 . S
C3316 H3297 0.951 . S
C3316 C3314 1.388 . S
C3316 C3317 1.366 . S
C3317 C3316 1.366 . S
C3317 C3318 1.414 . S
C3317 C3320 1.499 . S
C3318 H3298 0.950 . S
C3318 C3317 1.414 . S
C3318 C3319 1.374 . S
C3319 H3299 0.950 . S
C3319 C3315 1.385 . S
C3319 C3318 1.374 . S
C3320 C3317 1.499 . S
C3320 C3321 1.373 . S
C3320 C3322 1.389 . S
C3321 H3300 0.950 . S
C3321 C3320 1.373 . S
C3321 C3337 1.377 . S
C3322 C3320 1.389 . S
C3322 C3323 1.524 . S
C3322 C3336 1.377 . S
C3323 C3322 1.524 . S
C3323 C3324 1.397 . S
C3323 C3328 1.363 . S
C3324 H3301 0.950 . S
C3324 C3323 1.397 . S
C3324 C3325 1.334 . S
C3325 H3302 0.950 . S
C3325 C3324 1.334 . S
C3325 C3326 1.287 . S
C3326 C3325 1.287 . S
C3326 C3327 1.524 . S
C3326 H3345 0.913 . S
C3327 H3303 0.950 . S
C3327 C3326 1.524 . S
C3327 C3328 1.415 . S
C3328 H3304 0.950 . S
C3328 C3323 1.363 . S
C3328 C3327 1.415 . S
C3329 H3305 0.951 . S
C3329 C3330 1.366 . S
C3329 C3331 1.388 . S
C3330 C3329 1.366 . S
C3330 C3334 1.385 . S
C3331 H3306 0.951 . S
C3331 C3329 1.388 . S
C3331 C3332 1.366 . S
C3332 C3331 1.366 . S
C3332 C3333 1.414 . S
C3332 C3335 1.499 . S
C3333 H3307 0.950 . S
C3333 C3332 1.414 . S
C3333 C3334 1.374 . S
C3334 H3308 0.950 . S
C3334 C3330 1.385 . S
C3334 C3333 1.374 . S
C3335 C3332 1.499 . S
C3335 C3336 1.373 . S
C3335 C3337 1.389 . S
C3336 H3309 0.950 . S
C3336 C3322 1.377 . S
C3336 C3335 1.373 . S
C3337 C3321 1.377 . S
C3337 C3335 1.389 . S
C3337 C3338 1.524 . S
C3338 C3337 1.524 . S
C3338 C3339 1.397 . S
C3338 C3343 1.363 . S
C3339 H3310 0.950 . S
C3339 C3338 1.397 . S
C3339 C3340 1.334 . S
C3340 H3311 0.950 . S
C3340 C3339 1.334 . S
C3340 C3341 1.287 . S
C3341 C3340 1.287 . S
C3341 C3342 1.524 . S
C3341 H3344 0.999 . S
C3342 H3312 0.950 . S
C3342 C3341 1.524 . S
C3342 C3343 1.415 . S
C3343 H3313 0.950 . S
C3343 C3338 1.363 . S
C3343 C3342 1.415 . S
H3344 C3341 0.999 . S
H3345 C3326 0.913 . S
H3346 C3364 0.951 . S
H3347 C3366 0.951 . S
H3348 C3368 0.950 . S
H3349 C3369 0.950 . S
H3350 C3371 0.950 . S
H3351 C3374 0.950 . S
H3352 C3375 0.950 . S
H3353 C3377 0.950 . S
H3354 C3378 0.950 . S
H3355 C3379 0.951 . S
H3356 C3381 0.951 . S
H3357 C3383 0.950 . S
H3358 C3384 0.950 . S
H3359 C3386 0.950 . S
H3360 C3389 0.950 . S
H3361 C3390 0.950 . S
H3362 C3392 0.950 . S
H3363 C3393 0.950 . S
C3364 H3346 0.951 . S
C3364 C3365 1.366 . S
C3364 C3366 1.388 . S
C3365 C3364 1.366 . S
C3365 C3369 1.385 . S
C3366 H3347 0.951 . S
C3366 C3364 1.388 . S
C3366 C3367 1.366 . S
C3367 C3366 1.366 . S
C3367 C3368 1.414 . S
C3367 C3370 1.499 . S
C3368 H3348 0.950 . S
C3368 C3367 1.414 . S
C3368 C3369 1.374 . S
C3369 H3349 0.950 . S
C3369 C3365 1.385 . S
C3369 C3368 1.374 . S
C3370 C3367 1.499 . S
C3370 C3371 1.373 . S
C3370 C3372 1.389 . S
C3371 H3350 0.950 . S
C3371 C3370 1.373 . S
C3371 C3387 1.377 . S
C3372 C3370 1.389 . S
C3372 C3373 1.524 . S
C3372 C3386 1.377 . S
C3373 C3372 1.524 . S
C3373 C3374 1.397 . S
C3373 C3378 1.363 . S
C3374 H3351 0.950 . S
C3374 C3373 1.397 . S
C3374 C3375 1.334 . S
C3375 H3352 0.950 . S
C3375 C3374 1.334 . S
C3375 C3376 1.287 . S
C3376 C3375 1.287 . S
C3376 C3377 1.524 . S
C3376 H3395 0.913 . S
C3377 H3353 0.950 . S
C3377 C3376 1.524 . S
C3377 C3378 1.415 . S
C3378 H3354 0.950 . S
C3378 C3373 1.363 . S
C3378 C3377 1.415 . S
C3379 H3355 0.951 . S
C3379 C3380 1.366 . S
C3379 C3381 1.388 . S
C3380 C3379 1.366 . S
C3380 C3384 1.385 . S
C3381 H3356 0.951 . S
C3381 C3379 1.388 . S
C3381 C3382 1.366 . S
C3382 C3381 1.366 . S
C3382 C3383 1.414 . S
C3382 C3385 1.499 . S
C3383 H3357 0.950 . S
C3383 C3382 1.414 . S
C3383 C3384 1.374 . S
C3384 H3358 0.950 . S
C3384 C3380 1.385 . S
C3384 C3383 1.374 . S
C3385 C3382 1.499 . S
C3385 C3386 1.373 . S
C3385 C3387 1.389 . S
C3386 H3359 0.950 . S
C3386 C3372 1.377 . S
C3386 C3385 1.373 . S
C3387 C3371 1.377 . S
C3387 C3385 1.389 . S
C3387 C3388 1.524 . S
C3388 C3387 1.524 . S
C3388 C3389 1.397 . S
C3388 C3393 1.363 . S
C3389 H3360 0.950 . S
C3389 C3388 1.397 . S
C3389 C3390 1.334 . S
C3390 H3361 0.950 . S
C3390 C3389 1.334 . S
C3390 C3391 1.287 . S
C3391 C3390 1.287 . S
C3391 C3392 1.524 . S
C3391 H3394 0.999 . S
C3392 H3362 0.950 . S
C3392 C3391 1.524 . S
C3392 C3393 1.415 . S
C3393 H3363 0.950 . S
C3393 C3388 1.363 . S
C3393 C3392 1.415 . S
H3394 C3391 0.999 . S
H3395 C3376 0.913 . S
C1030 C707 1.319 . S
C1015 C74 1.291 . S
C1080 C685 1.668 . S
C1065 C153 1.600 . S
C1130 C682 0.703 . S
C1115 C231 0.706 . S
C1165 C310 0.620 . S
C1180 C694 0.373 . S
C1215 C394 1.598 . S
C1230 C677 1.661 . S
C1280 C699 0.703 . S
C1265 C494 0.708 . S
C1315 C573 0.617 . S
C1330 C704 0.369 . S
C1365 C651 1.288 . S
C1380 C700 1.317 . S
C1430 C758 2.776 . S
C1415 C56 2.845 . S
C1465 C151 1.279 . S
C1480 C808 1.272 . S
C1530 C731 1.676 . S
C1515 C237 1.594 . S
C1580 C807 0.718 . S
C1565 C326 0.723 . S
C1615 C410 0.706 . S
C1630 C736 0.702 . S
C1680 C802 2.774 . S
C1665 C476 2.843 . S
C1715 C571 1.290 . S
C1730 C761 1.287 . S
C1765 C657 1.599 . S
C1780 C793 1.686 . S
C1815 C58 1.605 . S
C1830 C785 1.689 . S
C1865 C392 1.290 . S
C1880 C815 1.284 . S
C1930 C739 1.692 . S
C1915 C478 1.607 . S
C1980 C790 0.731 . S
C1965 C567 0.732 . S
C2015 C655 2.849 . S
C2030 C748 2.779 . S
C2065 C235 2.858 . S
C2080 C812 2.792 . S
C2130 C754 1.293 . S
C2115 C308 1.298 . S
C2165 C147 0.721 . S
C2180 C753 0.716 . S
C2215 C662 1.290 . S
C2230 C869 1.319 . S
C2265 C405 1.601 . S
C2280 C847 1.668 . S
C2330 C844 0.703 . S
C2315 C483 0.705 . S
C2380 C856 0.373 . S
C2365 C562 0.620 . S
C2415 C142 1.598 . S
C2430 C839 1.662 . S
C2480 C861 0.703 . S
C2465 C242 0.706 . S
C2515 C321 0.615 . S
C2530 C866 0.371 . S
C2565 C63 1.288 . S
C2580 C862 1.317 . S
C2615 C644 2.845 . S
C2630 C920 2.777 . S
C2680 C970 1.272 . S
C2665 C403 1.279 . S
C2715 C489 1.594 . S
C2730 C893 1.676 . S
C2765 C578 0.722 . S
C2780 C969 0.718 . S
C2830 C898 0.701 . S
C2815 C158 0.706 . S
C2865 C224 2.843 . S
C2880 C964 2.773 . S
C2930 C923 1.286 . S
C2915 C319 1.290 . S
C2980 C955 1.685 . S
C2965 C69 1.600 . S
C3030 C947 1.688 . S
C3015 C646 1.605 . S
C3065 C140 1.290 . S
C3080 C977 1.284 . S
C3115 C226 1.608 . S
C3130 C901 1.692 . S
C3180 C952 0.731 . S
C3165 C315 0.733 . S
C3215 C67 2.849 . S
C3230 C910 2.778 . S
C3265 C487 2.858 . S
C3280 C974 2.792 . S
C3330 C916 1.294 . S
C3315 C560 1.298 . S
C3380 C915 0.717 . S
C3365 C399 0.719 . S
