# Generated by pormake.
# Topology pts, (4,4)-cn, num edge types: 1
# Building blocks:
#     Node 0, Type 0, BuildingBlock: KOZSID_clean_sbu_0, # of connection points: 4
#     Node 1, Type 0, BuildingBlock: KOZSID_clean_sbu_0, # of connection points: 4
#     Node 2, Type 1, BuildingBlock: UXUYUI_clean_sbu_0, # of connection points: 4
#     Node 3, Type 1, BuildingBlock: UXUYUI_clean_sbu_0, # of connection points: 4
#     Edge 4, Type (0, 1), BuildingBlock: KIFKEQ_clean_linker_1, # of connection points: 2
#     Edge 5, Type (0, 1), BuildingBlock: KIFKEQ_clean_linker_1, # of connection points: 2
#     Edge 6, Type (0, 1), BuildingBlock: KIFKEQ_clean_linker_1, # of connection points: 2
#     Edge 7, Type (0, 1), BuildingBlock: KIFKEQ_clean_linker_1, # of connection points: 2
#     Edge 8, Type (0, 1), BuildingBlock: KIFKEQ_clean_linker_1, # of connection points: 2
#     Edge 9, Type (0, 1), BuildingBlock: KIFKEQ_clean_linker_1, # of connection points: 2
#     Edge 10, Type (0, 1), BuildingBlock: KIFKEQ_clean_linker_1, # of connection points: 2
#     Edge 11, Type (0, 1), BuildingBlock: KIFKEQ_clean_linker_1, # of connection points: 2
# Relax obj value: 0.000
# Max RMSD: 0.022
# Mean RMSD: 0.015
data_MOF--net-pts--node1-KOZSID_clean_sbu_0--node2-UXUYUI_clean_sbu_0--edge1-KIFKEQ_clean_linker_1
_symmetry_space_group_name_H-M    P1
_symmetry_Int_Tables_number       1
_symmetry_cell_setting            triclinic
loop_
_symmetry_equiv_pos_as_xyz
'x, y, z'
_cell_length_a     33.329671
_cell_length_b     33.257945
_cell_length_c     48.103566
_cell_angle_alpha  87.030672
_cell_angle_beta   93.131978
_cell_angle_gamma 90.035705
loop_
_atom_site_label
_atom_site_type_symbol
_atom_site_fract_x
_atom_site_fract_y
_atom_site_fract_z
_atom_type_partial_charge
C0 C 0.60734 0.08832 0.05286 0.0
C1 C 0.6193 0.12546 0.06225 0.0
C2 C 0.59682 0.15382 0.04695 0.0
C3 C 0.57228 0.13249 0.02931 0.0
N4 N 0.57743 0.09215 0.03257 0.0
Co5 Co 0.54762 0.05008 0.01129 0.0
N6 N 0.51779 0.09202 0.9867 0.0
C7 C 0.52269 0.13238 0.98695 0.0
C8 C 0.49796 0.15357 0.96775 0.0
C9 C 0.47562 0.12509 0.95461 0.0
C10 C 0.48791 0.08804 0.96672 0.0
N11 N 0.5168 0.00802 0.99057 0.0
C12 C 0.48622 0.01199 0.97076 0.0
C13 C 0.47143 0.97482 0.96326 0.0
C14 C 0.49317 0.94637 0.979 0.0
C15 C 0.51973 0.96766 0.99524 0.0
N16 N 0.57852 0.00816 0.03526 0.0
C17 C 0.57552 0.96775 0.03373 0.0
C18 C 0.60231 0.94652 0.05142 0.0
C19 C 0.62424 0.97502 0.06482 0.0
C20 C 0.60926 0.01221 0.05464 0.0
N21 N 0.50432 0.05032 0.03834 0.0
C22 C 0.4389 0.04982 0.07344 0.0
C23 C 0.46023 0.01457 0.06957 0.0
C24 C 0.49239 0.01544 0.05198 0.0
C25 C 0.45158 0.08548 0.06006 0.0
C26 C 0.4843 0.08515 0.04303 0.0
N27 N 0.59086 0.04983 0.98422 0.0
C28 C 0.63579 0.0135 0.95643 0.0
C29 C 0.65551 0.04903 0.94839 0.0
C30 C 0.64162 0.08506 0.95823 0.0
C31 C 0.60956 0.08479 0.97586 0.0
C32 C 0.60384 0.01457 0.97412 0.0
H33 H 0.60081 0.11325 0.98274 0.0
H34 H 0.59033 0.98641 0.9795 0.0
H35 H 0.50671 0.98735 0.04944 0.0
H36 H 0.49251 0.11345 0.03366 0.0
C37 C 0.5474 0.14952 0.00752 0.0
C38 C 0.62628 0.05046 0.06321 0.0
C39 C 0.46912 0.05014 0.95931 0.0
C40 C 0.54756 0.95068 0.01519 0.0
H41 H 0.64254 0.13148 0.07809 0.0
H42 H 0.59908 0.18619 0.04791 0.0
H43 H 0.49543 0.18593 0.96443 0.0
H44 H 0.45219 0.13094 0.93842 0.0
H45 H 0.44699 0.96885 0.94831 0.0
H46 H 0.48958 0.91402 0.97895 0.0
H47 H 0.60599 0.91417 0.05389 0.0
H48 H 0.64895 0.96899 0.07998 0.0
H49 H 0.45146 0.98615 0.07946 0.0
H50 H 0.43642 0.1137 0.0628 0.0
H51 H 0.64476 0.98483 0.94903 0.0
H52 H 0.65596 0.11344 0.95292 0.0
C53 C 0.08864 0.48833 0.5567 0.0
C54 C 0.12575 0.47604 0.56866 0.0
C55 C 0.15402 0.49812 0.55522 0.0
C56 C 0.13267 0.52271 0.53603 0.0
N57 N 0.0924 0.51797 0.53654 0.0
Co58 Co 0.05029 0.54773 0.51209 0.0
N59 N 0.09202 0.57711 0.4904 0.0
C60 C 0.13227 0.57173 0.49339 0.0
C61 C 0.15335 0.59596 0.47549 0.0
C62 C 0.12491 0.61849 0.46031 0.0
C63 C 0.08798 0.60685 0.47003 0.0
N64 N 0.00821 0.57862 0.48827 0.0
C65 C 0.01207 0.60922 0.46877 0.0
C66 C 0.97488 0.62432 0.4588 0.0
C67 C 0.94658 0.60264 0.47245 0.0
C68 C 0.96792 0.57586 0.49008 0.0
N69 N 0.00856 0.51729 0.5332 0.0
C70 C 0.96824 0.52033 0.52874 0.0
C71 C 0.94716 0.494 0.54522 0.0
C72 C 0.97571 0.47231 0.56089 0.0
C73 C 0.01272 0.48689 0.55312 0.0
N74 N 0.05072 0.59145 0.53895 0.0
C75 C 0.05071 0.65746 0.57382 0.0
C76 C 0.01516 0.6372 0.56664 0.0
C77 C 0.01583 0.60461 0.54936 0.0
C78 C 0.0864 0.6433 0.56381 0.0
C79 C 0.08576 0.6105 0.54671 0.0
N80 N 0.04983 0.504 0.48519 0.0
C81 C 0.01352 0.46006 0.45399 0.0
C82 C 0.04854 0.43857 0.44959 0.0
C83 C 0.08435 0.45121 0.463 0.0
C84 C 0.08437 0.48379 0.48027 0.0
C85 C 0.0148 0.49215 0.47175 0.0
H86 H 0.11274 0.49169 0.4897 0.0
H87 H 0.98692 0.50671 0.47441 0.0
H88 H 0.98762 0.59094 0.54438 0.0
H89 H 0.11401 0.60137 0.53979 0.0
C90 C 0.14952 0.54705 0.51521 0.0
C91 C 0.05089 0.46976 0.56444 0.0
C92 C 0.05015 0.62599 0.45991 0.0
C93 C 0.95109 0.5481 0.50882 0.0
H94 H 0.13176 0.45277 0.58493 0.0
H95 H 0.18634 0.49547 0.55835 0.0
H96 H 0.18563 0.59804 0.4743 0.0
H97 H 0.13074 0.64156 0.44434 0.0
H98 H 0.96873 0.64896 0.4436 0.0
H99 H 0.9143 0.60647 0.47019 0.0
H100 H 0.91489 0.49055 0.54549 0.0
H101 H 0.96991 0.44804 0.57599 0.0
H102 H 0.98665 0.64703 0.57372 0.0
H103 H 0.11489 0.65737 0.5692 0.0
H104 H 0.98503 0.45238 0.44373 0.0
H105 H 0.11238 0.43559 0.46074 0.0
Li106 Li 0.04315 0.0779 0.27905 0.0
Li107 Li 0.04179 1.00269 0.27938 0.0
Li108 Li 0.0787 0.04219 0.24345 0.0
Li109 Li 1.00361 0.0409 0.24305 0.0
C110 C 0.11672 0.05105 0.30374 0.0
N111 N 0.17218 0.07688 0.34368 0.0
C112 C 0.11872 0.03265 0.33057 0.0
C113 C 0.14313 0.0823 0.29713 0.0
C114 C 0.14693 0.04622 0.35049 0.0
C115 C 0.17089 0.09502 0.31764 0.0
C116 C 0.95654 0.04641 0.28429 0.0
C117 C 0.88868 0.02235 0.27703 0.0
N118 N 0.87455 0.05961 0.28173 0.0
C119 C 0.94136 0.08442 0.28914 0.0
C120 C 0.93002 0.01503 0.27831 0.0
C121 C 0.89981 0.0905 0.28774 0.0
C122 C 0.03317 0.16092 0.28865 0.0
N123 N 0.0445 0.12476 0.30117 0.0
C124 C 0.05661 0.15534 0.34487 0.0
C125 C 0.05549 0.12135 0.32886 0.0
C126 C 0.0453 0.1931 0.33246 0.0
C127 C 0.03319 0.19557 0.30398 0.0
H128 H 0.02374 0.16283 0.26676 0.0
H129 H 0.06304 0.09221 0.33865 0.0
C130 C 0.07908 0.93307 0.30668 0.0
N131 N 0.04413 0.95431 0.30331 0.0
C132 C 0.0812 0.89723 0.32331 0.0
C133 C 0.01145 0.9059 0.33289 0.0
C134 C 0.01073 0.94162 0.31619 0.0
C135 C 0.047 0.88304 0.33661 0.0
H136 H 0.10526 0.94383 0.29625 0.0
H137 H 0.98344 0.9592 0.31347 0.0
C138 C 0.05268 0.11643 0.21949 0.0
N139 N 0.08008 0.17301 0.18099 0.0
C140 C 0.03454 0.12003 0.19258 0.0
C141 C 0.08449 0.14179 0.2269 0.0
C142 C 0.0489 0.14879 0.17339 0.0
C143 C 0.09799 0.17014 0.20711 0.0
C144 C 0.04724 0.95543 0.23807 0.0
C145 C 0.08517 0.94028 0.23317 0.0
C146 C 0.01601 0.92881 0.24403 0.0
C147 C 0.0913 0.89866 0.2345 0.0
C148 C 0.02338 0.8874 0.24524 0.0
N149 N 0.06055 0.8733 0.24049 0.0
C150 C 0.16157 0.03265 0.23369 0.0
C151 C 0.12159 0.05454 0.19362 0.0
C152 C 0.196 0.03286 0.21826 0.0
N153 N 0.12531 0.04366 0.22128 0.0
C154 C 0.15531 0.05579 0.17749 0.0
C155 C 0.19336 0.04476 0.18969 0.0
H156 H 0.16371 0.02315 0.25556 0.0
H157 H 0.09239 0.06216 0.18397 0.0
C158 C 0.93444 0.0786 0.2156 0.0
N159 N 0.95526 0.04337 0.21911 0.0
C160 C 0.89856 0.08089 0.19903 0.0
C161 C 0.90631 0.01072 0.1898 0.0
C162 C 0.9421 0.00983 0.20643 0.0
C163 C 0.88388 0.04657 0.18595 0.0
H164 H 0.94555 0.10487 0.2259 0.0
H165 H 0.95932 0.9823 0.20928 0.0
O166 O 0.0892 0.03826 0.28401 0.0
O167 O 0.99715 0.04015 0.28487 0.0
O168 O 0.03916 0.08831 0.23848 0.0
O169 O 0.04093 0.99611 0.23754 0.0
H170 H 0.09845 0.00843 0.33602 0.0
H171 H 0.14227 0.09652 0.27638 0.0
H172 H 0.1487 0.03242 0.37139 0.0
H173 H 0.19145 0.11926 0.31285 0.0
H174 H 0.86783 0.99845 0.27217 0.0
H175 H 0.96142 0.10905 0.29375 0.0
H176 H 0.94125 0.98556 0.27414 0.0
H177 H 0.88764 0.1198 0.29134 0.0
H178 H 0.06546 0.15197 0.36687 0.0
H179 H 0.02424 0.22408 0.29359 0.0
H180 H 0.10915 0.88049 0.32534 0.0
H181 H 0.98454 0.89654 0.34306 0.0
H182 H 0.00988 0.10059 0.18653 0.0
H183 H 0.09854 0.13965 0.24772 0.0
H184 H 0.03529 0.1518 0.15245 0.0
H185 H 0.12267 0.18991 0.21253 0.0
H186 H 0.10969 0.96042 0.22858 0.0
H187 H 0.98661 0.94002 0.24824 0.0
H188 H 0.12054 0.88651 0.23086 0.0
H189 H 0.99959 0.86647 0.25009 0.0
H190 H 0.22423 0.02312 0.22862 0.0
H191 H 0.15145 0.06564 0.15571 0.0
H192 H 0.88216 0.10908 0.1969 0.0
H193 H 0.89656 0.98369 0.1798 0.0
Li194 Li 0.01516 0.05465 0.77814 0.0
Li195 Li 0.09042 0.05386 0.78067 0.0
Li196 Li 0.05265 0.09146 0.74356 0.0
Li197 Li 0.05265 0.0192 0.7437 0.0
C198 C 0.0445 0.13979 0.78399 0.0
N199 N 0.02723 0.22121 0.78057 0.0
C200 C 0.07525 0.16789 0.78778 0.0
C201 C 1.00494 0.1531 0.77855 0.0
C202 C 0.06592 0.20892 0.78593 0.0
C203 C 0.99682 0.19439 0.77691 0.0
C204 C 0.04853 0.99103 0.81091 0.0
C205 C 0.03688 0.93406 0.84249 0.0
N206 N 0.03986 0.95858 0.86427 0.0
C207 C 0.05146 0.01569 0.8336 0.0
C208 C 0.04113 0.94991 0.81534 0.0
C209 C 0.047 0.9987 0.86042 0.0
C210 C 0.93665 0.02951 0.79198 0.0
N211 N 0.96829 0.05301 0.79978 0.0
C212 C 0.9335 0.0747 0.83863 0.0
C213 C 0.96738 0.07524 0.82269 0.0
C214 C 0.90015 0.05092 0.83105 0.0
C215 C 0.90217 0.02796 0.8074 0.0
H216 H 0.93817 0.01207 0.77369 0.0
H217 H 0.99303 0.09345 0.82861 0.0
C218 C 0.16432 0.08446 0.80265 0.0
N219 N 0.13936 0.05216 0.80434 0.0
C220 C 0.20045 0.08497 0.81891 0.0
C221 C 0.18522 0.01849 0.83795 0.0
C222 C 0.14956 0.01916 0.82118 0.0
C223 C 0.21121 0.05178 0.83708 0.0
H224 H 0.15635 0.10976 0.78843 0.0
H225 H 0.13038 0.993 0.82141 0.0
C226 C 0.99288 0.05597 0.70949 0.0
N227 N 0.96763 0.05576 0.65383 0.0
C228 C 0.02069 0.06105 0.68887 0.0
C229 C 0.95225 0.05081 0.70181 0.0
C230 C 0.00733 0.06084 0.66085 0.0
C231 C 0.94007 0.0508 0.67356 0.0
C232 C 0.13367 0.03447 0.73626 0.0
C233 C 0.16227 0.04992 0.71843 0.0
C234 C 0.14001 0.99685 0.75017 0.0
C235 C 0.19679 0.02743 0.71475 0.0
C236 C 0.17492 0.97529 0.74595 0.0
N237 N 0.20235 0.99089 0.72848 0.0
C238 C 0.08841 0.15841 0.71505 0.0
C239 C 0.01734 0.15729 0.71012 0.0
C240 C 0.08945 0.19443 0.6987 0.0
N241 N 0.05271 0.14063 0.7204 0.0
C242 C 0.01698 0.19321 0.69364 0.0
C243 C 0.05338 0.2124 0.68768 0.0
H244 H 0.1161 0.14474 0.7237 0.0
H245 H 0.9893 0.14275 0.7148 0.0
C246 C 0.02893 0.94052 0.72913 0.0
N247 N 0.05156 0.97274 0.72123 0.0
C248 C 0.02777 0.90598 0.71364 0.0
C249 C 0.07295 0.93847 0.682 0.0
C250 C 0.07307 0.97241 0.69799 0.0
C251 C 0.05021 0.90449 0.68978 0.0
H252 H 0.01185 0.94161 0.74756 0.0
H253 H 0.0904 0.99852 0.69181 0.0
O254 O 0.05312 0.09951 0.78486 0.0
O255 O 0.05208 0.00707 0.78441 0.0
O256 O 1.00511 0.05597 0.73711 0.0
O257 O 0.09985 0.05638 0.74005 0.0
H258 H 0.10602 0.15819 0.79195 0.0
H259 H 0.98084 0.13182 0.7751 0.0
H260 H 0.08945 0.231 0.78871 0.0
H261 H 0.96638 0.20511 0.77253 0.0
H262 H 0.03117 0.90227 0.84623 0.0
H263 H 0.05724 0.04758 0.83055 0.0
H264 H 0.03872 0.93043 0.79798 0.0
H265 H 0.0492 0.01742 0.87817 0.0
H266 H 0.93364 0.09241 0.8569 0.0
H267 H 0.87712 0.00948 0.80059 0.0
H268 H 0.21952 0.11129 0.81749 0.0
H269 H 0.19271 0.99184 0.85109 0.0
H270 H 0.05225 0.0652 0.69438 0.0
H271 H 0.93036 0.04685 0.71755 0.0
H272 H 0.02853 0.06473 0.64468 0.0
H273 H 0.9087 0.04683 0.66731 0.0
H274 H 0.1578 0.07901 0.70753 0.0
H275 H 0.11825 0.9843 0.76403 0.0
H276 H 0.21917 0.03901 0.70099 0.0
H277 H 0.18019 0.94615 0.75657 0.0
H278 H 0.11821 0.20831 0.69507 0.0
H279 H 0.98844 0.20551 0.6854 0.0
H280 H 0.01002 0.88046 0.72056 0.0
H281 H 0.09016 0.93903 0.66353 0.0
H282 H 0.36554 0.08469 0.06067 0.0
H283 H 0.4316 0.01362 0.12542 0.0
H284 H 0.30658 0.08337 0.08885 0.0
H285 H 0.37257 0.01241 0.15368 0.0
H286 H 0.27166 0.06259 0.20625 0.0
H287 H 0.33089 0.06291 0.17865 0.0
H288 H 0.25746 0.03032 0.10671 0.0
H289 H 0.19838 0.02817 0.13439 0.0
C290 C 0.36751 0.06899 0.081 0.0
C291 C 0.40324 0.0493 0.09084 0.0
C292 C 0.33366 0.06797 0.09703 0.0
C293 C 0.33491 0.04776 0.12348 0.0
C294 C 0.37077 0.02843 0.13346 0.0
C295 C 0.40444 0.02889 0.11722 0.0
C296 C 0.26801 0.05481 0.18469 0.0
C297 C 0.22983 0.04536 0.17273 0.0
C298 C 0.30207 0.05521 0.16884 0.0
C299 C 0.29884 0.04676 0.14048 0.0
C300 C 0.26083 0.03748 0.12842 0.0
C301 C 0.22687 0.03648 0.14435 0.0
H302 H 0.07001 0.3941 0.55086 0.0
H303 H 0.03345 0.46164 0.61921 0.0
H304 H 0.07074 0.33212 0.58066 0.0
H305 H 0.03501 0.40004 0.6495 0.0
H306 H 1.00092 0.27621 0.68705 0.0
H307 H 1.00016 0.33776 0.65731 0.0
H308 H 0.1068 0.29814 0.61937 0.0
H309 H 0.10644 0.23573 0.64818 0.0
C310 C 0.06232 0.3955 0.57238 0.0
C311 C 0.0515 0.43231 0.58283 0.0
C312 C 0.06296 0.36015 0.58953 0.0
C313 C 0.05295 0.36091 0.61759 0.0
C314 C 0.04232 0.39809 0.62796 0.0
C315 C 0.04161 0.4334 0.61074 0.0
C316 C 0.02399 0.28037 0.67217 0.0
C317 C 0.05365 0.25074 0.67002 0.0
C318 C 0.02386 0.31601 0.65532 0.0
C319 C 0.05341 0.32311 0.63585 0.0
C320 C 0.08324 0.2936 0.63384 0.0
C321 C 0.08334 0.25794 0.65067 0.0
H322 H 0.70061 0.076 0.04955 0.0
H323 H 0.63569 0.0265 0.11836 0.0
H324 H 0.76257 0.07589 0.07943 0.0
H325 H 0.69742 0.0265 0.14851 0.0
H326 H 0.82412 0.98993 0.18382 0.0
H327 H 0.76209 0.99156 0.1544 0.0
H328 H 0.79398 0.1087 0.11942 0.0
H329 H 0.8566 0.10656 0.14828 0.0
C330 C 0.69974 0.06526 0.07116 0.0
C331 C 0.66367 0.051 0.08171 0.0
C332 C 0.73507 0.06536 0.08832 0.0
C333 C 0.73508 0.05108 0.1164 0.0
C334 C 0.69868 0.03716 0.12692 0.0
C335 C 0.66333 0.03728 0.10977 0.0
C336 C 0.81807 0.01592 0.16971 0.0
C337 C 0.8455 0.04805 0.16839 0.0
C338 C 0.78224 0.01706 0.15305 0.0
C339 C 0.77295 0.05027 0.13451 0.0
C340 C 0.80031 0.08247 0.13325 0.0
C341 C 0.83605 0.08143 0.15003 0.0
H342 H 0.00776 0.66908 0.61992 0.0
H343 H 0.09312 0.72753 0.56693 0.0
H344 H 0.0076 0.72799 0.64811 0.0
H345 H 0.09269 0.78653 0.59485 0.0
H346 H 0.11401 0.86939 0.66673 0.0
H347 H 0.11411 0.8098 0.63935 0.0
H348 H 0.98623 0.79688 0.64752 0.0
H349 H 0.98631 0.85631 0.67521 0.0
C350 C 0.02626 0.69462 0.61414 0.0
C351 C 0.05057 0.69341 0.59118 0.0
C352 C 0.02613 0.7285 0.6303 0.0
C353 C 0.05019 0.76218 0.62387 0.0
C354 C 0.07435 0.76096 0.60082 0.0
C355 C 0.07458 0.72706 0.58475 0.0
C356 C 0.08585 0.85402 0.66253 0.0
C357 C 0.05014 0.86779 0.67316 0.0
C358 C 0.08587 0.81979 0.64676 0.0
C359 C 0.05015 0.7984 0.64106 0.0
C360 C 0.01445 0.81211 0.6518 0.0
C361 C 0.01446 0.84629 0.66767 0.0
H362 H 0.39397 0.06985 0.97325 0.0
H363 H 0.46 0.03175 0.90469 0.0
H364 H 0.33168 0.07082 0.94367 0.0
H365 H 0.39779 0.03212 0.87496 0.0
H366 H 0.28566 0.07865 0.8229 0.0
H367 H 0.34778 0.07894 0.85228 0.0
H368 H 0.28538 0.02412 0.92085 0.0
H369 H 0.22309 0.02478 0.8917 0.0
C370 C 0.39493 0.06159 0.95181 0.0
C371 C 0.43145 0.05059 0.94115 0.0
C372 C 0.35936 0.06191 0.9349 0.0
C373 C 0.35964 0.05144 0.90691 0.0
C374 C 0.3965 0.04074 0.89629 0.0
C375 C 0.43203 0.04027 0.91327 0.0
C376 C 0.28511 0.06697 0.84431 0.0
C377 C 0.2493 0.05174 0.85492 0.0
C378 C 0.32084 0.06674 0.86108 0.0
C379 C 0.32165 0.05154 0.88896 0.0
C380 C 0.28581 0.03642 0.89957 0.0
C381 C 0.25016 0.03641 0.88276 0.0
H382 H 0.98829 0.38263 0.4423 0.0
H383 H 0.1069 0.41337 0.41581 0.0
H384 H 0.98728 0.32462 0.41334 0.0
H385 H 0.10625 0.35428 0.38786 0.0
H386 H 0.10488 0.21802 0.36897 0.0
H387 H 0.10551 0.27775 0.39669 0.0
H388 H 0.98728 0.31015 0.36159 0.0
H389 H 0.98671 0.25049 0.33379 0.0
C390 C 0.01404 0.37742 0.43019 0.0
C391 C 0.04769 0.40308 0.43157 0.0
C392 C 0.01347 0.34393 0.41367 0.0
C393 C 0.04672 0.3348 0.39838 0.0
C394 C 0.08036 0.36025 0.39969 0.0
C395 C 0.08074 0.39408 0.41588 0.0
C396 C 0.07901 0.23787 0.36723 0.0
C397 C 0.04575 0.22956 0.34919 0.0
C398 C 0.07949 0.2722 0.38294 0.0
C399 C 0.04645 0.29866 0.38132 0.0
C400 C 0.01308 0.29021 0.36341 0.0
C401 C 0.01288 0.25623 0.34736 0.0
H402 H 0.71636 0.99317 0.94933 0.0
H403 H 0.67444 0.10381 0.90637 0.0
H404 H 0.77436 0.99318 0.92057 0.0
H405 H 0.73261 0.10392 0.87777 0.0
H406 H 0.86395 0.11435 0.85405 0.0
H407 H 0.80503 0.11327 0.88196 0.0
H408 H 0.79355 0.98518 0.87295 0.0
H409 H 0.8533 0.98605 0.84574 0.0
C410 C 0.7192 0.01728 0.93355 0.0
C411 C 0.69057 0.04853 0.93028 0.0
C412 C 0.75256 0.0173 0.91705 0.0
C413 C 0.75831 0.0486 0.89685 0.0
C414 C 0.72955 0.07967 0.89342 0.0
C415 C 0.69614 0.07961 0.90987 0.0
C416 C 0.84909 0.08587 0.8582 0.0
C417 C 0.86355 0.05026 0.84767 0.0
C418 C 0.81497 0.08533 0.87395 0.0
C419 C 0.7944 0.04915 0.87972 0.0
C420 C 0.80881 0.01353 0.86916 0.0
C421 C 0.84286 0.0141 0.85328 0.0
H422 H 0.07643 0.70038 0.47332 0.0
H423 H 0.02529 0.63519 0.40489 0.0
H424 H 0.07644 0.76223 0.44332 0.0
H425 H 0.0254 0.6968 0.37462 0.0
H426 H 0.98985 0.82382 0.33917 0.0
H427 H 0.99119 0.76195 0.36875 0.0
H428 H 0.10893 0.79291 0.40308 0.0
H429 H 0.1071 0.8554 0.37405 0.0
C430 C 0.06534 0.69943 0.45177 0.0
C431 C 0.0506 0.66332 0.44137 0.0
C432 C 0.0655 0.73469 0.43454 0.0
C433 C 0.05082 0.73458 0.40653 0.0
C434 C 0.03639 0.69815 0.39616 0.0
C435 C 0.03644 0.66287 0.41338 0.0
C436 C 0.01591 0.8176 0.35317 0.0
C437 C 0.04831 0.84474 0.35425 0.0
C438 C 0.01687 0.78187 0.36992 0.0
C439 C 0.05017 0.77236 0.38832 0.0
C440 C 0.08263 0.79943 0.38936 0.0
C441 C 0.08176 0.83508 0.37248 0.0
loop_
_geom_bond_atom_site_label_1
_geom_bond_atom_site_label_2
_geom_bond_distance
_geom_bond_site_symmetry_2
_ccdc_geom_bond_type
C0 C1 1.443 . S
C0 N4 1.376 . S
C0 C38 1.389 . S
C1 C0 1.443 . S
C1 C2 1.340 . S
C1 H41 0.951 . S
C2 C1 1.340 . S
C2 C3 1.439 . S
C2 H42 0.950 . S
C3 C2 1.439 . S
C3 N4 1.374 . S
C3 C37 1.395 1_554 S
N4 C0 1.376 . S
N4 C3 1.374 . S
N4 Co5 2.008 . S
Co5 N4 2.008 . S
Co5 N6 1.995 1_554 S
Co5 N11 2.008 1_554 S
Co5 N16 2.004 . S
Co5 N21 2.282 . S
Co5 N27 2.282 1_554 S
N6 Co5 1.995 1_556 S
N6 C7 1.376 . S
N6 C10 1.383 . S
C7 N6 1.376 . S
C7 C8 1.446 . S
C7 C37 1.391 . S
C8 C7 1.446 . S
C8 C9 1.339 . S
C8 H43 0.949 . S
C9 C8 1.339 . S
C9 C10 1.439 . S
C9 H44 0.950 . S
C10 N6 1.383 . S
C10 C9 1.439 . S
C10 C39 1.392 . S
N11 Co5 2.008 1_556 S
N11 C12 1.376 . S
N11 C15 1.374 1_545 S
C12 N11 1.376 . S
C12 C13 1.443 1_545 S
C12 C39 1.389 . S
C13 C12 1.443 1_565 S
C13 C14 1.340 . S
C13 H45 0.951 . S
C14 C13 1.340 . S
C14 C15 1.439 . S
C14 H46 0.950 . S
C15 N11 1.374 1_565 S
C15 C14 1.439 . S
C15 C40 1.395 1_556 S
N16 Co5 2.004 . S
N16 C17 1.363 1_545 S
N16 C20 1.385 . S
C17 N16 1.363 1_565 S
C17 C18 1.446 . S
C17 C40 1.391 . S
C18 C17 1.446 . S
C18 C19 1.339 . S
C18 H47 0.949 . S
C19 C18 1.339 . S
C19 C20 1.439 1_565 S
C19 H48 0.950 . S
C20 N16 1.385 . S
C20 C19 1.439 1_545 S
C20 C38 1.392 . S
N21 Co5 2.282 . S
N21 C24 1.332 . S
N21 C26 1.332 . S
C22 C23 1.386 . S
C22 C25 1.388 . S
C23 C22 1.386 . S
C23 C24 1.382 . S
C23 H49 0.950 1_545 S
C24 N21 1.332 . S
C24 C23 1.382 . S
C24 H35 0.952 1_545 S
C25 C22 1.388 . S
C25 C26 1.382 . S
C25 H50 0.950 . S
C26 N21 1.332 . S
C26 C25 1.382 . S
C26 H36 0.948 . S
N27 Co5 2.282 1_556 S
N27 C31 1.332 . S
N27 C32 1.332 . S
C28 C29 1.388 . S
C28 C32 1.382 . S
C28 H51 0.950 1_545 S
C29 C28 1.388 . S
C29 C30 1.386 . S
C30 C29 1.386 . S
C30 C31 1.382 . S
C30 H52 0.950 . S
C31 N27 1.332 . S
C31 C30 1.382 . S
C31 H33 0.952 . S
C32 N27 1.332 . S
C32 C28 1.382 . S
C32 H34 0.948 1_545 S
H33 C31 0.952 . S
H34 C32 0.948 1_565 S
H35 C24 0.952 1_565 S
H36 C26 0.948 . S
C37 C3 1.395 1_556 S
C37 C7 1.391 . S
C38 C0 1.389 . S
C38 C20 1.392 . S
C39 C10 1.392 . S
C39 C12 1.389 . S
C40 C15 1.395 1_554 S
C40 C17 1.391 . S
H41 C1 0.951 . S
H42 C2 0.950 . S
H43 C8 0.949 . S
H44 C9 0.950 . S
H45 C13 0.951 . S
H46 C14 0.950 . S
H47 C18 0.949 . S
H48 C19 0.950 . S
H49 C23 0.950 1_565 S
H50 C25 0.950 . S
H51 C28 0.950 1_565 S
H52 C30 0.950 . S
C53 C54 1.443 . S
C53 N57 1.376 . S
C53 C91 1.389 . S
C54 C53 1.443 . S
C54 C55 1.340 . S
C54 H94 0.951 . S
C55 C54 1.340 . S
C55 C56 1.439 . S
C55 H95 0.950 . S
C56 C55 1.439 . S
C56 N57 1.374 . S
C56 C90 1.395 . S
N57 C53 1.376 . S
N57 C56 1.374 . S
N57 Co58 2.008 . S
Co58 N57 2.008 . S
Co58 N59 1.995 . S
Co58 N64 2.003 1_455 S
Co58 N69 1.995 . S
Co58 N74 2.282 . S
Co58 N80 2.282 . S
N59 Co58 1.995 . S
N59 C60 1.376 . S
N59 C63 1.383 . S
C60 N59 1.376 . S
C60 C61 1.446 . S
C60 C90 1.391 . S
C61 C60 1.446 . S
C61 C62 1.339 . S
C61 H96 0.949 . S
C62 C61 1.339 . S
C62 C63 1.439 . S
C62 H97 0.950 . S
C63 N59 1.383 . S
C63 C62 1.439 . S
C63 C92 1.392 . S
N64 Co58 2.003 1_655 S
N64 C65 1.375 1_655 S
N64 C68 1.381 . S
C65 N64 1.375 1_455 S
C65 C66 1.443 1_455 S
C65 C92 1.389 . S
C66 C65 1.443 1_655 S
C66 C67 1.340 . S
C66 H98 0.951 . S
C67 C66 1.340 . S
C67 C68 1.439 . S
C67 H99 0.950 . S
C68 N64 1.381 . S
C68 C67 1.439 . S
C68 C93 1.395 . S
N69 Co58 1.995 . S
N69 C70 1.376 1_455 S
N69 C73 1.383 . S
C70 N69 1.376 1_655 S
C70 C71 1.446 . S
C70 C93 1.391 . S
C71 C70 1.446 . S
C71 C72 1.339 . S
C71 H100 0.949 . S
C72 C71 1.339 . S
C72 C73 1.439 1_655 S
C72 H101 0.950 . S
C73 N69 1.383 . S
C73 C72 1.439 1_455 S
C73 C91 1.392 . S
N74 Co58 2.282 . S
N74 C77 1.332 . S
N74 C79 1.332 . S
C75 C76 1.386 . S
C75 C78 1.388 . S
C76 C75 1.386 . S
C76 C77 1.382 . S
C76 H102 0.950 1_455 S
C77 N74 1.332 . S
C77 C76 1.382 . S
C77 H88 0.952 1_455 S
C78 C75 1.388 . S
C78 C79 1.382 . S
C78 H103 0.950 . S
C79 N74 1.332 . S
C79 C78 1.382 . S
C79 H89 0.948 . S
N80 Co58 2.282 . S
N80 C84 1.332 . S
N80 C85 1.332 . S
C81 C82 1.388 . S
C81 C85 1.382 . S
C81 H104 0.950 1_455 S
C82 C81 1.388 . S
C82 C83 1.386 . S
C83 C82 1.386 . S
C83 C84 1.382 . S
C83 H105 0.950 . S
C84 N80 1.332 . S
C84 C83 1.382 . S
C84 H86 0.952 . S
C85 N80 1.332 . S
C85 C81 1.382 . S
C85 H87 0.948 1_455 S
H86 C84 0.952 . S
H87 C85 0.948 1_655 S
H88 C77 0.952 1_655 S
H89 C79 0.948 . S
C90 C56 1.395 . S
C90 C60 1.391 . S
C91 C53 1.389 . S
C91 C73 1.392 . S
C92 C63 1.392 . S
C92 C65 1.389 . S
C93 C68 1.395 . S
C93 C70 1.391 . S
H94 C54 0.951 . S
H95 C55 0.950 . S
H96 C61 0.949 . S
H97 C62 0.950 . S
H98 C66 0.951 . S
H99 C67 0.950 . S
H100 C71 0.949 . S
H101 C72 0.950 . S
H102 C76 0.950 1_655 S
H103 C78 0.950 . S
H104 C81 0.950 1_655 S
H105 C83 0.950 . S
Li106 N123 1.990 . S
Li106 O166 1.956 . S
Li106 O167 1.970 1_455 S
Li106 O168 1.961 . S
Li107 N131 1.990 . S
Li107 O166 1.970 1_565 S
Li107 O167 1.956 1_465 S
Li107 O169 1.961 . S
Li108 N153 1.990 . S
Li108 O166 1.961 . S
Li108 O168 1.956 . S
Li108 O169 1.970 1_545 S
Li109 N159 1.990 . S
Li109 O167 1.961 . S
Li109 O168 1.970 1_655 S
Li109 O169 1.956 1_645 S
C110 C112 1.348 . S
C110 C113 1.356 . S
C110 O166 1.325 . S
N111 C114 1.314 . S
N111 C115 1.279 . S
C112 C110 1.348 . S
C112 C114 1.353 . S
C112 H170 0.929 1_545 S
C113 C110 1.356 . S
C113 C115 1.358 . S
C113 H171 0.930 . S
C114 N111 1.314 . S
C114 C112 1.353 . S
C114 H172 0.930 1_545 S
C115 N111 1.279 . S
C115 C113 1.358 . S
C115 H173 0.930 . S
C116 C119 1.348 . S
C116 C120 1.356 . S
C116 O167 1.325 . S
C117 N118 1.279 . S
C117 C120 1.358 . S
C117 H174 0.930 1_545 S
N118 C117 1.279 . S
N118 C121 1.314 . S
C119 C116 1.348 . S
C119 C121 1.353 . S
C119 H175 0.929 . S
C120 C116 1.356 . S
C120 C117 1.358 . S
C120 H176 0.930 1_545 S
C121 N118 1.314 . S
C121 C119 1.353 . S
C121 H177 0.930 . S
C122 N123 1.314 . S
C122 C127 1.353 . S
C122 H128 0.917 1_455 S
N123 Li106 1.990 . S
N123 C122 1.314 . S
N123 C125 1.279 . S
C124 C125 1.358 . S
C124 C126 1.356 . S
C124 H178 0.930 . S
C125 N123 1.279 . S
C125 C124 1.358 . S
C125 H129 0.930 . S
C126 C124 1.356 . S
C126 C127 1.348 . S
C127 C122 1.353 . S
C127 C126 1.348 . S
C127 H179 0.929 1_455 S
H128 C122 0.917 1_655 S
H129 C125 0.930 . S
C130 N131 1.314 . S
C130 C132 1.353 . S
C130 H136 0.930 . S
N131 Li107 1.990 . S
N131 C130 1.314 . S
N131 C134 1.279 . S
C132 C130 1.353 . S
C132 C135 1.348 . S
C132 H180 0.929 . S
C133 C134 1.358 . S
C133 C135 1.356 . S
C133 H181 0.930 1_455 S
C134 N131 1.279 . S
C134 C133 1.358 . S
C134 H137 0.930 1_455 S
C135 C132 1.348 . S
C135 C133 1.356 . S
H136 C130 0.930 . S
H137 C134 0.930 1_655 S
C138 C140 1.348 . S
C138 C141 1.356 . S
C138 O168 1.325 . S
N139 C142 1.314 . S
N139 C143 1.279 . S
C140 C138 1.348 . S
C140 C142 1.353 . S
C140 H182 0.929 1_455 S
C141 C138 1.356 . S
C141 C143 1.358 . S
C141 H183 0.930 . S
C142 N139 1.314 . S
C142 C140 1.353 . S
C142 H184 0.930 1_455 S
C143 N139 1.279 . S
C143 C141 1.358 . S
C143 H185 0.930 . S
C144 C145 1.348 . S
C144 C146 1.356 . S
C144 O169 1.325 . S
C145 C144 1.348 . S
C145 C147 1.353 . S
C145 H186 0.929 . S
C146 C144 1.356 . S
C146 C148 1.358 . S
C146 H187 0.930 1_455 S
C147 C145 1.353 . S
C147 N149 1.314 . S
C147 H188 0.930 . S
C148 C146 1.358 . S
C148 N149 1.279 . S
C148 H189 0.930 1_455 S
N149 C147 1.314 . S
N149 C148 1.279 . S
C150 C152 1.353 . S
C150 N153 1.314 . S
C150 H156 0.917 1_545 S
C151 N153 1.279 . S
C151 C154 1.358 . S
C151 H157 0.930 . S
C152 C150 1.353 . S
C152 C155 1.348 . S
C152 H190 0.929 1_545 S
N153 Li108 1.990 . S
N153 C150 1.314 . S
N153 C151 1.279 . S
C154 C151 1.358 . S
C154 C155 1.356 . S
C154 H191 0.930 . S
C155 C152 1.348 . S
C155 C154 1.356 . S
H156 C150 0.917 1_565 S
H157 C151 0.930 . S
C158 N159 1.314 . S
C158 C160 1.353 . S
C158 H164 0.930 . S
N159 Li109 1.990 . S
N159 C158 1.314 . S
N159 C162 1.279 . S
C160 C158 1.353 . S
C160 C163 1.348 . S
C160 H192 0.929 . S
C161 C162 1.358 . S
C161 C163 1.356 . S
C161 H193 0.930 1_545 S
C162 N159 1.279 . S
C162 C161 1.358 . S
C162 H165 0.930 1_545 S
C163 C160 1.348 . S
C163 C161 1.356 . S
H164 C158 0.930 . S
H165 C162 0.930 1_565 S
O166 Li106 1.956 . S
O166 Li107 1.970 1_545 S
O166 Li108 1.961 . S
O166 C110 1.325 . S
O167 Li106 1.970 1_655 S
O167 Li107 1.956 1_645 S
O167 Li109 1.961 . S
O167 C116 1.325 . S
O168 Li106 1.961 . S
O168 Li108 1.956 . S
O168 Li109 1.970 1_455 S
O168 C138 1.325 . S
O169 Li107 1.961 . S
O169 Li108 1.970 1_565 S
O169 Li109 1.956 1_465 S
O169 C144 1.325 . S
H170 C112 0.929 1_565 S
H171 C113 0.930 . S
H172 C114 0.930 1_565 S
H173 C115 0.930 . S
H174 C117 0.930 1_565 S
H175 C119 0.929 . S
H176 C120 0.930 1_565 S
H177 C121 0.930 . S
H178 C124 0.930 . S
H179 C127 0.929 1_655 S
H180 C132 0.929 . S
H181 C133 0.930 1_655 S
H182 C140 0.929 1_655 S
H183 C141 0.930 . S
H184 C142 0.930 1_655 S
H185 C143 0.930 . S
H186 C145 0.929 . S
H187 C146 0.930 1_655 S
H188 C147 0.930 . S
H189 C148 0.930 1_655 S
H190 C152 0.929 1_565 S
H191 C154 0.930 . S
H192 C160 0.929 . S
H193 C161 0.930 1_565 S
Li194 N211 1.990 1_455 S
Li194 O254 1.956 . S
Li194 O255 1.970 . S
Li194 O256 1.961 . S
Li195 N219 1.990 . S
Li195 O254 1.970 . S
Li195 O255 1.956 . S
Li195 O257 1.961 . S
Li196 N241 1.990 . S
Li196 O254 1.961 . S
Li196 O256 1.956 . S
Li196 O257 1.970 . S
Li197 N247 1.990 1_545 S
Li197 O255 1.961 . S
Li197 O256 1.970 . S
Li197 O257 1.956 . S
C198 C200 1.348 . S
C198 C201 1.356 . S
C198 O254 1.325 . S
N199 C202 1.314 . S
N199 C203 1.279 . S
C200 C198 1.348 . S
C200 C202 1.353 . S
C200 H258 0.929 . S
C201 C198 1.356 . S
C201 C203 1.358 . S
C201 H259 0.930 . S
C202 N199 1.314 . S
C202 C200 1.353 . S
C202 H260 0.930 . S
C203 N199 1.279 . S
C203 C201 1.358 . S
C203 H261 0.930 . S
C204 C207 1.348 . S
C204 C208 1.356 . S
C204 O255 1.325 1_565 S
C205 N206 1.279 . S
C205 C208 1.358 . S
C205 H262 0.930 . S
N206 C205 1.279 . S
N206 C209 1.314 . S
C207 C204 1.348 . S
C207 C209 1.353 . S
C207 H263 0.929 . S
C208 C204 1.356 . S
C208 C205 1.358 . S
C208 H264 0.930 . S
C209 N206 1.314 . S
C209 C207 1.353 . S
C209 H265 0.930 . S
C210 N211 1.314 . S
C210 C215 1.353 . S
C210 H216 0.930 . S
N211 Li194 1.990 1_655 S
N211 C210 1.314 . S
N211 C213 1.279 . S
C212 C213 1.358 . S
C212 C214 1.356 . S
C212 H266 0.930 . S
C213 N211 1.279 . S
C213 C212 1.358 . S
C213 H217 0.930 . S
C214 C212 1.356 . S
C214 C215 1.348 . S
C215 C210 1.353 . S
C215 C214 1.348 . S
C215 H267 0.929 . S
H216 C210 0.930 . S
H217 C213 0.930 . S
C218 N219 1.314 . S
C218 C220 1.353 . S
C218 H224 0.930 . S
N219 Li195 1.990 . S
N219 C218 1.314 . S
N219 C222 1.279 . S
C220 C218 1.353 . S
C220 C223 1.348 . S
C220 H268 0.929 . S
C221 C222 1.358 . S
C221 C223 1.356 . S
C221 H269 0.930 . S
C222 N219 1.279 . S
C222 C221 1.358 . S
C222 H225 0.930 . S
C223 C220 1.348 . S
C223 C221 1.356 . S
H224 C218 0.930 . S
H225 C222 0.930 . S
C226 C228 1.348 . S
C226 C229 1.356 . S
C226 O256 1.325 1_655 S
N227 C230 1.314 . S
N227 C231 1.279 . S
C228 C226 1.348 . S
C228 C230 1.353 . S
C228 H270 0.929 . S
C229 C226 1.356 . S
C229 C231 1.358 . S
C229 H271 0.930 . S
C230 N227 1.314 . S
C230 C228 1.353 . S
C230 H272 0.930 . S
C231 N227 1.279 . S
C231 C229 1.358 . S
C231 H273 0.930 . S
C232 C233 1.348 . S
C232 C234 1.356 . S
C232 O257 1.325 . S
C233 C232 1.348 . S
C233 C235 1.353 . S
C233 H274 0.929 . S
C234 C232 1.356 . S
C234 C236 1.358 . S
C234 H275 0.930 . S
C235 C233 1.353 . S
C235 N237 1.314 . S
C235 H276 0.930 . S
C236 C234 1.358 . S
C236 N237 1.279 . S
C236 H277 0.930 . S
N237 C235 1.314 . S
N237 C236 1.279 . S
C238 C240 1.353 . S
C238 N241 1.314 . S
C238 H244 0.930 . S
C239 N241 1.279 . S
C239 C242 1.358 . S
C239 H245 0.930 . S
C240 C238 1.353 . S
C240 C243 1.348 . S
C240 H278 0.929 . S
N241 Li196 1.990 . S
N241 C238 1.314 . S
N241 C239 1.279 . S
C242 C239 1.358 . S
C242 C243 1.356 . S
C242 H279 0.930 . S
C243 C240 1.348 . S
C243 C242 1.356 . S
H244 C238 0.930 . S
H245 C239 0.930 . S
C246 N247 1.314 . S
C246 C248 1.353 . S
C246 H252 0.930 . S
N247 Li197 1.990 1_565 S
N247 C246 1.314 . S
N247 C250 1.279 . S
C248 C246 1.353 . S
C248 C251 1.348 . S
C248 H280 0.929 . S
C249 C250 1.358 . S
C249 C251 1.356 . S
C249 H281 0.930 . S
C250 N247 1.279 . S
C250 C249 1.358 . S
C250 H253 0.930 . S
C251 C248 1.348 . S
C251 C249 1.356 . S
H252 C246 0.930 . S
H253 C250 0.930 . S
O254 Li194 1.956 . S
O254 Li195 1.970 . S
O254 Li196 1.961 . S
O254 C198 1.325 . S
O255 Li194 1.970 . S
O255 Li195 1.956 . S
O255 Li197 1.961 . S
O255 C204 1.325 1_545 S
O256 Li194 1.961 . S
O256 Li196 1.956 . S
O256 Li197 1.970 . S
O256 C226 1.325 1_455 S
O257 Li195 1.961 . S
O257 Li196 1.970 . S
O257 Li197 1.956 . S
O257 C232 1.325 . S
H258 C200 0.929 . S
H259 C201 0.930 . S
H260 C202 0.930 . S
H261 C203 0.930 . S
H262 C205 0.930 . S
H263 C207 0.929 . S
H264 C208 0.930 . S
H265 C209 0.930 . S
H266 C212 0.930 . S
H267 C215 0.929 . S
H268 C220 0.929 . S
H269 C221 0.930 . S
H270 C228 0.929 . S
H271 C229 0.930 . S
H272 C230 0.930 . S
H273 C231 0.930 . S
H274 C233 0.929 . S
H275 C234 0.930 . S
H276 C235 0.930 . S
H277 C236 0.930 . S
H278 C240 0.929 . S
H279 C242 0.930 . S
H280 C248 0.929 . S
H281 C249 0.930 . S
H282 C290 0.950 . S
H283 C295 0.934 1_565 S
H284 C292 0.950 . S
H285 C294 0.950 1_565 S
H286 C296 0.950 1_565 S
H287 C298 0.950 1_565 S
H288 C300 0.950 . S
H289 C301 0.950 . S
C290 H282 0.950 . S
C290 C291 1.386 . S
C290 C292 1.391 . S
C291 C290 1.386 . S
C291 C295 1.393 . S
C292 H284 0.950 . S
C292 C290 1.391 . S
C292 C293 1.400 . S
C293 C292 1.400 . S
C293 C294 1.398 . S
C293 C299 1.491 . S
C294 H285 0.950 1_545 S
C294 C293 1.398 . S
C294 C295 1.391 . S
C295 H283 0.934 1_545 S
C295 C291 1.393 . S
C295 C294 1.391 . S
C296 H286 0.950 1_545 S
C296 C297 1.386 . S
C296 C298 1.391 . S
C297 C296 1.386 . S
C297 C301 1.393 . S
C298 H287 0.950 1_545 S
C298 C296 1.391 . S
C298 C299 1.400 . S
C299 C293 1.491 . S
C299 C298 1.400 . S
C299 C300 1.398 . S
C300 H288 0.950 . S
C300 C299 1.398 . S
C300 C301 1.391 . S
C301 H289 0.950 . S
C301 C297 1.393 . S
C301 C300 1.391 . S
H302 C310 0.950 . S
H303 C315 0.950 . S
H304 C312 0.950 . S
H305 C314 0.950 . S
H306 C316 0.950 . S
H307 C318 0.950 . S
H308 C320 0.950 . S
H309 C321 0.950 . S
C310 H302 0.950 . S
C310 C311 1.386 . S
C310 C312 1.391 . S
C311 C310 1.386 . S
C311 C315 1.393 . S
C312 H304 0.950 . S
C312 C310 1.391 . S
C312 C313 1.400 . S
C313 C312 1.400 . S
C313 C314 1.398 . S
C313 C319 1.491 . S
C314 H305 0.950 . S
C314 C313 1.398 . S
C314 C315 1.391 . S
C315 H303 0.950 . S
C315 C311 1.393 . S
C315 C314 1.391 . S
C316 H306 0.950 . S
C316 C317 1.386 . S
C316 C318 1.391 . S
C317 C316 1.386 . S
C317 C321 1.393 . S
C318 H307 0.950 . S
C318 C316 1.391 . S
C318 C319 1.400 . S
C319 C313 1.491 . S
C319 C318 1.400 . S
C319 C320 1.398 . S
C320 H308 0.950 . S
C320 C319 1.398 . S
C320 C321 1.391 . S
C321 H309 0.950 . S
C321 C317 1.393 . S
C321 C320 1.391 . S
H322 C330 0.950 . S
H323 C335 0.950 1_565 S
H324 C332 0.950 . S
H325 C334 0.950 1_565 S
H326 C336 0.950 1_565 S
H327 C338 0.950 1_565 S
H328 C340 0.950 . S
H329 C341 0.950 . S
C330 H322 0.950 . S
C330 C331 1.386 . S
C330 C332 1.391 . S
C331 C330 1.386 . S
C331 C335 1.393 . S
C332 H324 0.950 . S
C332 C330 1.391 . S
C332 C333 1.400 . S
C333 C332 1.400 . S
C333 C334 1.398 . S
C333 C339 1.491 . S
C334 H325 0.950 1_545 S
C334 C333 1.398 . S
C334 C335 1.391 . S
C335 H323 0.950 1_545 S
C335 C331 1.393 . S
C335 C334 1.391 . S
C336 H326 0.950 1_545 S
C336 C337 1.386 . S
C336 C338 1.391 . S
C337 C336 1.386 . S
C337 C341 1.393 . S
C338 H327 0.950 1_545 S
C338 C336 1.391 . S
C338 C339 1.400 . S
C339 C333 1.491 . S
C339 C338 1.400 . S
C339 C340 1.398 . S
C340 H328 0.950 . S
C340 C339 1.398 . S
C340 C341 1.391 . S
C341 H329 0.950 . S
C341 C337 1.393 . S
C341 C340 1.391 . S
H342 C350 0.950 1_655 S
H343 C355 0.950 . S
H344 C352 0.950 1_655 S
H345 C354 0.950 . S
H346 C356 0.950 . S
H347 C358 0.950 . S
H348 C360 0.950 1_655 S
H349 C361 0.950 1_655 S
C350 H342 0.950 1_455 S
C350 C351 1.386 . S
C350 C352 1.391 . S
C351 C350 1.386 . S
C351 C355 1.393 . S
C352 H344 0.950 1_455 S
C352 C350 1.391 . S
C352 C353 1.400 . S
C353 C352 1.400 . S
C353 C354 1.398 . S
C353 C359 1.491 . S
C354 H345 0.950 . S
C354 C353 1.398 . S
C354 C355 1.391 . S
C355 H343 0.950 . S
C355 C351 1.393 . S
C355 C354 1.391 . S
C356 H346 0.950 . S
C356 C357 1.386 . S
C356 C358 1.391 . S
C357 C356 1.386 . S
C357 C361 1.393 . S
C358 H347 0.950 . S
C358 C356 1.391 . S
C358 C359 1.400 . S
C359 C353 1.491 . S
C359 C358 1.400 . S
C359 C360 1.398 . S
C360 H348 0.950 1_455 S
C360 C359 1.398 . S
C360 C361 1.391 . S
C361 H349 0.950 1_455 S
C361 C357 1.393 . S
C361 C360 1.391 . S
H362 C370 0.950 . S
H363 C375 0.950 . S
H364 C372 0.950 . S
H365 C374 0.950 . S
H366 C376 0.950 . S
H367 C378 0.950 . S
H368 C380 0.950 . S
H369 C381 0.950 . S
C370 H362 0.950 . S
C370 C371 1.386 . S
C370 C372 1.391 . S
C371 C370 1.386 . S
C371 C375 1.393 . S
C372 H364 0.950 . S
C372 C370 1.391 . S
C372 C373 1.400 . S
C373 C372 1.400 . S
C373 C374 1.398 . S
C373 C379 1.491 . S
C374 H365 0.950 . S
C374 C373 1.398 . S
C374 C375 1.391 . S
C375 H363 0.950 . S
C375 C371 1.393 . S
C375 C374 1.391 . S
C376 H366 0.950 . S
C376 C377 1.386 . S
C376 C378 1.391 . S
C377 C376 1.386 . S
C377 C381 1.393 . S
C378 H367 0.950 . S
C378 C376 1.391 . S
C378 C379 1.400 . S
C379 C373 1.491 . S
C379 C378 1.400 . S
C379 C380 1.398 . S
C380 H368 0.950 . S
C380 C379 1.398 . S
C380 C381 1.391 . S
C381 H369 0.950 . S
C381 C377 1.393 . S
C381 C380 1.391 . S
H382 C390 0.950 1_655 S
H383 C395 0.950 . S
H384 C392 0.950 1_655 S
H385 C394 0.950 . S
H386 C396 0.950 . S
H387 C398 0.950 . S
H388 C400 0.950 1_655 S
H389 C401 0.950 1_655 S
C390 H382 0.950 1_455 S
C390 C391 1.386 . S
C390 C392 1.391 . S
C391 C390 1.386 . S
C391 C395 1.393 . S
C392 H384 0.950 1_455 S
C392 C390 1.391 . S
C392 C393 1.400 . S
C393 C392 1.400 . S
C393 C394 1.398 . S
C393 C399 1.491 . S
C394 H385 0.950 . S
C394 C393 1.398 . S
C394 C395 1.391 . S
C395 H383 0.950 . S
C395 C391 1.393 . S
C395 C394 1.391 . S
C396 H386 0.950 . S
C396 C397 1.386 . S
C396 C398 1.391 . S
C397 C396 1.386 . S
C397 C401 1.393 . S
C398 H387 0.950 . S
C398 C396 1.391 . S
C398 C399 1.400 . S
C399 C393 1.491 . S
C399 C398 1.400 . S
C399 C400 1.398 . S
C400 H388 0.950 1_455 S
C400 C399 1.398 . S
C400 C401 1.391 . S
C401 H389 0.950 1_455 S
C401 C397 1.393 . S
C401 C400 1.391 . S
H402 C410 0.950 1_565 S
H403 C415 0.950 . S
H404 C412 0.941 1_565 S
H405 C414 0.950 . S
H406 C416 0.950 . S
H407 C418 0.950 . S
H408 C420 0.950 . S
H409 C421 0.950 . S
C410 H402 0.950 1_545 S
C410 C411 1.386 . S
C410 C412 1.391 . S
C411 C410 1.386 . S
C411 C415 1.393 . S
C412 H404 0.941 1_545 S
C412 C410 1.391 . S
C412 C413 1.400 . S
C413 C412 1.400 . S
C413 C414 1.398 . S
C413 C419 1.491 . S
C414 H405 0.950 . S
C414 C413 1.398 . S
C414 C415 1.391 . S
C415 H403 0.950 . S
C415 C411 1.393 . S
C415 C414 1.391 . S
C416 H406 0.950 . S
C416 C417 1.386 . S
C416 C418 1.391 . S
C417 C416 1.386 . S
C417 C421 1.393 . S
C418 H407 0.950 . S
C418 C416 1.391 . S
C418 C419 1.400 . S
C419 C413 1.491 . S
C419 C418 1.400 . S
C419 C420 1.398 . S
C420 H408 0.950 . S
C420 C419 1.398 . S
C420 C421 1.391 . S
C421 H409 0.950 . S
C421 C417 1.393 . S
C421 C420 1.391 . S
H422 C430 0.950 . S
H423 C435 0.950 1_655 S
H424 C432 0.950 . S
H425 C434 0.950 1_655 S
H426 C436 0.950 1_655 S
H427 C438 0.950 1_655 S
H428 C440 0.950 . S
H429 C441 0.950 . S
C430 H422 0.950 . S
C430 C431 1.386 . S
C430 C432 1.391 . S
C431 C430 1.386 . S
C431 C435 1.393 . S
C432 H424 0.950 . S
C432 C430 1.391 . S
C432 C433 1.400 . S
C433 C432 1.400 . S
C433 C434 1.398 . S
C433 C439 1.491 . S
C434 H425 0.950 1_455 S
C434 C433 1.398 . S
C434 C435 1.391 . S
C435 H423 0.950 1_455 S
C435 C431 1.393 . S
C435 C434 1.391 . S
C436 H426 0.950 1_455 S
C436 C437 1.386 . S
C436 C438 1.391 . S
C437 C436 1.386 . S
C437 C441 1.393 . S
C438 H427 0.950 1_455 S
C438 C436 1.391 . S
C438 C439 1.400 . S
C439 C433 1.491 . S
C439 C438 1.400 . S
C439 C440 1.398 . S
C440 H428 0.950 . S
C440 C439 1.398 . S
C440 C441 1.391 . S
C441 H429 0.950 . S
C441 C437 1.393 . S
C441 C440 1.391 . S
C297 C155 1.490 . S
C291 C22 1.492 . S
C317 C243 1.488 . S
C311 C91 1.487 . S
C337 C163 1.488 . S
C331 C38 1.487 . S
C357 C251 1.491 . S
C351 C75 1.490 . S
C377 C223 1.487 . S
C371 C39 1.488 . S
C397 C126 1.490 . S
C391 C82 1.490 . S
C417 C214 1.490 . S
C411 C29 1.490 . S
C431 C92 1.487 . S
C437 C135 1.488 . S
