# Generated by pormake.
# Topology eea, (3,6)-cn, num edge types: 1
# Building blocks:
#     Node 0, Type 0, BuildingBlock: WUSLED_clean_sbu_0, # of connection points: 3
#     Node 1, Type 0, BuildingBlock: WUSLED_clean_sbu_0, # of connection points: 3
#     Node 2, Type 0, BuildingBlock: WUSLED_clean_sbu_0, # of connection points: 3
#     Node 3, Type 0, BuildingBlock: WUSLED_clean_sbu_0, # of connection points: 3
#     Node 4, Type 0, BuildingBlock: WUSLED_clean_sbu_0, # of connection points: 3
#     Node 5, Type 0, BuildingBlock: WUSLED_clean_sbu_0, # of connection points: 3
#     Node 6, Type 0, BuildingBlock: WUSLED_clean_sbu_0, # of connection points: 3
#     Node 7, Type 0, BuildingBlock: WUSLED_clean_sbu_0, # of connection points: 3
#     Node 8, Type 0, BuildingBlock: WUSLED_clean_sbu_0, # of connection points: 3
#     Node 9, Type 0, BuildingBlock: WUSLED_clean_sbu_0, # of connection points: 3
#     Node 10, Type 0, BuildingBlock: WUSLED_clean_sbu_0, # of connection points: 3
#     Node 11, Type 0, BuildingBlock: WUSLED_clean_sbu_0, # of connection points: 3
#     Node 12, Type 0, BuildingBlock: WUSLED_clean_sbu_0, # of connection points: 3
#     Node 13, Type 0, BuildingBlock: WUSLED_clean_sbu_0, # of connection points: 3
#     Node 14, Type 0, BuildingBlock: WUSLED_clean_sbu_0, # of connection points: 3
#     Node 15, Type 0, BuildingBlock: WUSLED_clean_sbu_0, # of connection points: 3
#     Node 16, Type 0, BuildingBlock: WUSLED_clean_sbu_0, # of connection points: 3
#     Node 17, Type 0, BuildingBlock: WUSLED_clean_sbu_0, # of connection points: 3
#     Node 18, Type 1, BuildingBlock: CUWYAW_clean_sbu_0, # of connection points: 6
#     Node 19, Type 1, BuildingBlock: CUWYAW_clean_sbu_0, # of connection points: 6
#     Node 20, Type 1, BuildingBlock: CUWYAW_clean_sbu_0, # of connection points: 6
#     Node 21, Type 1, BuildingBlock: CUWYAW_clean_sbu_0, # of connection points: 6
#     Node 22, Type 1, BuildingBlock: CUWYAW_clean_sbu_0, # of connection points: 6
#     Node 23, Type 1, BuildingBlock: CUWYAW_clean_sbu_0, # of connection points: 6
#     Node 24, Type 1, BuildingBlock: CUWYAW_clean_sbu_0, # of connection points: 6
#     Node 25, Type 1, BuildingBlock: CUWYAW_clean_sbu_0, # of connection points: 6
#     Node 26, Type 1, BuildingBlock: CUWYAW_clean_sbu_0, # of connection points: 6
#     Edge 27, Type (0, 1), BuildingBlock: TEMPAE_clean_linker_10, # of connection points: 2
#     Edge 28, Type (0, 1), BuildingBlock: TEMPAE_clean_linker_10, # of connection points: 2
#     Edge 29, Type (0, 1), BuildingBlock: TEMPAE_clean_linker_10, # of connection points: 2
#     Edge 30, Type (0, 1), BuildingBlock: TEMPAE_clean_linker_10, # of connection points: 2
#     Edge 31, Type (0, 1), BuildingBlock: TEMPAE_clean_linker_10, # of connection points: 2
#     Edge 32, Type (0, 1), BuildingBlock: TEMPAE_clean_linker_10, # of connection points: 2
#     Edge 33, Type (0, 1), BuildingBlock: TEMPAE_clean_linker_10, # of connection points: 2
#     Edge 34, Type (0, 1), BuildingBlock: TEMPAE_clean_linker_10, # of connection points: 2
#     Edge 35, Type (0, 1), BuildingBlock: TEMPAE_clean_linker_10, # of connection points: 2
#     Edge 36, Type (0, 1), BuildingBlock: TEMPAE_clean_linker_10, # of connection points: 2
#     Edge 37, Type (0, 1), BuildingBlock: TEMPAE_clean_linker_10, # of connection points: 2
#     Edge 38, Type (0, 1), BuildingBlock: TEMPAE_clean_linker_10, # of connection points: 2
#     Edge 39, Type (0, 1), BuildingBlock: TEMPAE_clean_linker_10, # of connection points: 2
#     Edge 40, Type (0, 1), BuildingBlock: TEMPAE_clean_linker_10, # of connection points: 2
#     Edge 41, Type (0, 1), BuildingBlock: TEMPAE_clean_linker_10, # of connection points: 2
#     Edge 42, Type (0, 1), BuildingBlock: TEMPAE_clean_linker_10, # of connection points: 2
#     Edge 43, Type (0, 1), BuildingBlock: TEMPAE_clean_linker_10, # of connection points: 2
#     Edge 44, Type (0, 1), BuildingBlock: TEMPAE_clean_linker_10, # of connection points: 2
#     Edge 45, Type (0, 1), BuildingBlock: TEMPAE_clean_linker_10, # of connection points: 2
#     Edge 46, Type (0, 1), BuildingBlock: TEMPAE_clean_linker_10, # of connection points: 2
#     Edge 47, Type (0, 1), BuildingBlock: TEMPAE_clean_linker_10, # of connection points: 2
#     Edge 48, Type (0, 1), BuildingBlock: TEMPAE_clean_linker_10, # of connection points: 2
#     Edge 49, Type (0, 1), BuildingBlock: TEMPAE_clean_linker_10, # of connection points: 2
#     Edge 50, Type (0, 1), BuildingBlock: TEMPAE_clean_linker_10, # of connection points: 2
#     Edge 51, Type (0, 1), BuildingBlock: TEMPAE_clean_linker_10, # of connection points: 2
#     Edge 52, Type (0, 1), BuildingBlock: TEMPAE_clean_linker_10, # of connection points: 2
#     Edge 53, Type (0, 1), BuildingBlock: TEMPAE_clean_linker_10, # of connection points: 2
#     Edge 54, Type (0, 1), BuildingBlock: TEMPAE_clean_linker_10, # of connection points: 2
#     Edge 55, Type (0, 1), BuildingBlock: TEMPAE_clean_linker_10, # of connection points: 2
#     Edge 56, Type (0, 1), BuildingBlock: TEMPAE_clean_linker_10, # of connection points: 2
#     Edge 57, Type (0, 1), BuildingBlock: TEMPAE_clean_linker_10, # of connection points: 2
#     Edge 58, Type (0, 1), BuildingBlock: TEMPAE_clean_linker_10, # of connection points: 2
#     Edge 59, Type (0, 1), BuildingBlock: TEMPAE_clean_linker_10, # of connection points: 2
#     Edge 60, Type (0, 1), BuildingBlock: TEMPAE_clean_linker_10, # of connection points: 2
#     Edge 61, Type (0, 1), BuildingBlock: TEMPAE_clean_linker_10, # of connection points: 2
#     Edge 62, Type (0, 1), BuildingBlock: TEMPAE_clean_linker_10, # of connection points: 2
#     Edge 63, Type (0, 1), BuildingBlock: TEMPAE_clean_linker_10, # of connection points: 2
#     Edge 64, Type (0, 1), BuildingBlock: TEMPAE_clean_linker_10, # of connection points: 2
#     Edge 65, Type (0, 1), BuildingBlock: TEMPAE_clean_linker_10, # of connection points: 2
#     Edge 66, Type (0, 1), BuildingBlock: TEMPAE_clean_linker_10, # of connection points: 2
#     Edge 67, Type (0, 1), BuildingBlock: TEMPAE_clean_linker_10, # of connection points: 2
#     Edge 68, Type (0, 1), BuildingBlock: TEMPAE_clean_linker_10, # of connection points: 2
#     Edge 69, Type (0, 1), BuildingBlock: TEMPAE_clean_linker_10, # of connection points: 2
#     Edge 70, Type (0, 1), BuildingBlock: TEMPAE_clean_linker_10, # of connection points: 2
#     Edge 71, Type (0, 1), BuildingBlock: TEMPAE_clean_linker_10, # of connection points: 2
#     Edge 72, Type (0, 1), BuildingBlock: TEMPAE_clean_linker_10, # of connection points: 2
#     Edge 73, Type (0, 1), BuildingBlock: TEMPAE_clean_linker_10, # of connection points: 2
#     Edge 74, Type (0, 1), BuildingBlock: TEMPAE_clean_linker_10, # of connection points: 2
#     Edge 75, Type (0, 1), BuildingBlock: TEMPAE_clean_linker_10, # of connection points: 2
#     Edge 76, Type (0, 1), BuildingBlock: TEMPAE_clean_linker_10, # of connection points: 2
#     Edge 77, Type (0, 1), BuildingBlock: TEMPAE_clean_linker_10, # of connection points: 2
#     Edge 78, Type (0, 1), BuildingBlock: TEMPAE_clean_linker_10, # of connection points: 2
#     Edge 79, Type (0, 1), BuildingBlock: TEMPAE_clean_linker_10, # of connection points: 2
#     Edge 80, Type (0, 1), BuildingBlock: TEMPAE_clean_linker_10, # of connection points: 2
# Relax obj value: 0.035
# Max RMSD: 0.129
# Mean RMSD: 0.075
data_MOF--net-eea--node1-WUSLED_clean_sbu_0--node2-CUWYAW_clean_sbu_0--edge1-TEMPAE_clean_linker_10
_symmetry_space_group_name_H-M    P1
_symmetry_Int_Tables_number       1
_symmetry_cell_setting            triclinic
loop_
_symmetry_equiv_pos_as_xyz
'x, y, z'
_cell_length_a     67.365914
_cell_length_b     66.889415
_cell_length_c     93.532929
_cell_angle_alpha  92.982049
_cell_angle_beta   93.437028
_cell_angle_gamma 119.80138
loop_
_atom_site_label
_atom_site_type_symbol
_atom_site_fract_x
_atom_site_fract_y
_atom_site_fract_z
_atom_type_partial_charge
C0 C 0.22374 0.15941 0.40273 0.0
C1 C 0.23017 0.17943 0.41185 0.0
C2 C 0.21824 0.19553 0.39258 0.0
C3 C 0.22745 0.19736 0.40682 0.0
C4 C 0.21189 0.17539 0.38351 0.0
C5 C 0.21465 0.15753 0.38855 0.0
U6 U 0.23769 0.13085 0.43288 0.0
O7 O 0.21992 0.09447 0.43775 0.0
O8 O 0.25596 0.11126 0.43304 0.0
C9 C 0.2375 0.09181 0.43521 0.0
C10 C 0.22597 0.1402 0.40792 0.0
C11 C 0.23212 0.07091 0.42579 0.0
C12 C 0.24015 0.05183 0.40593 0.0
C13 C 0.24507 0.07201 0.4143 0.0
C14 C 0.20917 0.02914 0.42028 0.0
C15 C 0.22216 0.03013 0.40883 0.0
C16 C 0.21418 0.04928 0.42869 0.0
C17 C 0.25638 0.16025 0.47086 0.0
C18 C 0.26229 0.14055 0.49033 0.0
C19 C 0.27161 0.18046 0.49472 0.0
C20 C 0.26455 0.18025 0.48031 0.0
C21 C 0.2706 0.16061 0.49989 0.0
C22 C 0.25528 0.1404 0.47594 0.0
C23 C 0.24928 0.16027 0.45572 0.0
O24 O 0.24702 0.14508 0.41205 0.0
O25 O 0.21099 0.12793 0.41678 0.0
O26 O 0.22788 0.1447 0.45126 0.0
O27 O 0.26393 0.16154 0.44664 0.0
H28 H 0.23722 0.18114 0.42286 0.0
H29 H 0.2327 0.21271 0.41404 0.0
H30 H 0.20439 0.17323 0.37257 0.0
H31 H 0.20947 0.14212 0.38139 0.0
H32 H 0.25071 0.05322 0.39733 0.0
H33 H 0.25913 0.08839 0.41182 0.0
H34 H 0.19497 0.0128 0.4227 0.0
H35 H 0.20401 0.04793 0.43752 0.0
H36 H 0.26102 0.1249 0.494 0.0
H37 H 0.27822 0.19627 0.50174 0.0
H38 H 0.2656 0.19576 0.47653 0.0
H39 H 0.249 0.12479 0.46875 0.0
C40 C 0.95174 0.16045 0.41317 0.0
C41 C 0.96513 0.1816 0.42163 0.0
C42 C 0.99243 0.19571 0.40349 0.0
C43 C 0.98529 0.19912 0.41681 0.0
C44 C 0.97884 0.17444 0.3951 0.0
C45 C 0.95872 0.15702 0.39991 0.0
U46 U 0.90878 0.13247 0.44126 0.0
O47 O 0.87094 0.11278 0.43829 0.0
O48 O 0.89 0.09609 0.44598 0.0
C49 C 0.86984 0.09347 0.44171 0.0
C50 C 0.93047 0.14173 0.41791 0.0
C51 C 0.8546 0.07269 0.43192 0.0
C52 C 0.84601 0.04898 0.40933 0.0
C53 C 0.86067 0.06918 0.41832 0.0
C54 C 0.81907 0.03578 0.42742 0.0
C55 C 0.82506 0.03197 0.41381 0.0
C56 C 0.83371 0.05593 0.43638 0.0
C57 C 0.91767 0.16129 0.47897 0.0
C58 C 0.88871 0.14352 0.49566 0.0
C59 C 0.92489 0.17824 0.50367 0.0
C60 C 0.93208 0.1785 0.48991 0.0
C61 C 0.9031 0.16075 0.50671 0.0
C62 C 0.89594 0.14377 0.48192 0.0
C63 C 0.92546 0.16157 0.46457 0.0
O64 O 0.93323 0.12982 0.42779 0.0
O65 O 0.91436 0.1468 0.42027 0.0
O66 O 0.91257 0.16298 0.454 0.0
O67 O 0.93156 0.14612 0.46148 0.0
H68 H 0.96002 0.18452 0.43194 0.0
H69 H 0.99546 0.21519 0.42359 0.0
H70 H 0.98361 0.17134 0.38471 0.0
H71 H 0.94856 0.14082 0.39322 0.0
H72 H 0.85126 0.0465 0.39897 0.0
H73 H 0.87679 0.08195 0.41472 0.0
H74 H 0.80294 0.02325 0.43113 0.0
H75 H 0.82873 0.05842 0.44683 0.0
H76 H 0.87196 0.12965 0.49768 0.0
H77 H 0.93629 0.1919 0.51188 0.0
H78 H 0.94891 0.19216 0.48781 0.0
H79 H 0.88463 0.13024 0.47361 0.0
C80 C 0.87994 0.8056 0.41616 0.0
C81 C 0.85953 0.78693 0.40917 0.0
C82 C 0.84264 0.81159 0.40667 0.0
C83 C 0.84109 0.78987 0.40453 0.0
C84 C 0.86311 0.8303 0.41357 0.0
C85 C 0.88155 0.82736 0.41822 0.0
U86 U 0.91315 0.79141 0.44464 0.0
O87 O 0.93035 0.77087 0.44267 0.0
O88 O 0.9503 0.80754 0.45085 0.0
C89 C 0.95086 0.78881 0.44659 0.0
C90 C 0.89962 0.80252 0.42096 0.0
C91 C 0.96877 0.79227 0.43711 0.0
C92 C 0.98534 0.80218 0.41434 0.0
C93 C 0.96797 0.7987 0.42313 0.0
C94 C 1.00438 0.79275 0.4334 0.0
C95 C 1.00379 0.79926 0.41938 0.0
C96 C 0.98704 0.78929 0.44216 0.0
C97 C 0.8873 0.77669 0.48112 0.0
C98 C 0.89932 0.76119 0.50063 0.0
C99 C 0.87052 0.77224 0.50381 0.0
C100 C 0.87219 0.7789 0.48984 0.0
C101 C 0.88398 0.76321 0.50939 0.0
C102 C 0.901 0.76793 0.48659 0.0
C103 C 0.88786 0.78315 0.4663 0.0
O104 O 0.91476 0.81795 0.43104 0.0
O105 O 0.89473 0.78128 0.42293 0.0
O106 O 0.88435 0.76719 0.45606 0.0
O107 O 0.90437 0.80392 0.46417 0.0
H108 H 0.85779 0.77 0.40719 0.0
H109 H 0.82573 0.77519 0.39902 0.0
H110 H 0.86484 0.84723 0.41548 0.0
H111 H 0.89708 0.8422 0.42342 0.0
H112 H 0.98421 0.80695 0.40356 0.0
H113 H 0.95393 0.80103 0.41904 0.0
H114 H 0.01848 0.7907 0.43772 0.0
H115 H 0.98797 0.78442 0.45295 0.0
H116 H 0.91005 0.75447 0.50463 0.0
H117 H 0.85825 0.77366 0.51014 0.0
H118 H 0.86141 0.78554 0.48576 0.0
H119 H 0.91282 0.76615 0.47999 0.0
C120 C 0.07629 0.22292 0.62058 0.0
C121 C 0.05512 0.20265 0.6164 0.0
C122 C 0.03533 0.21679 0.63126 0.0
C123 C 0.03489 0.19964 0.62167 0.0
C124 C 0.05644 0.23711 0.63535 0.0
C125 C 0.07669 0.24008 0.63013 0.0
U126 U 0.11974 0.23661 0.59242 0.0
O127 O 0.15757 0.25677 0.59516 0.0
O128 O 0.13986 0.22009 0.58696 0.0
C129 C 0.15963 0.23877 0.59129 0.0
C130 C 0.0981 0.22582 0.61573 0.0
C131 C 0.17575 0.23531 0.6007 0.0
C132 C 0.18516 0.22169 0.62226 0.0
C133 C 0.16961 0.22526 0.61369 0.0
C134 C 0.21314 0.23845 0.60498 0.0
C135 C 0.20711 0.22822 0.61798 0.0
C136 C 0.19759 0.24194 0.59644 0.0
C137 C 0.10866 0.25215 0.55538 0.0
C138 C 0.13402 0.25742 0.53673 0.0
C139 C 0.10377 0.26678 0.533 0.0
C140 C 0.09696 0.26011 0.54661 0.0
C141 C 0.12241 0.26555 0.5279 0.0
C142 C 0.12725 0.25084 0.55037 0.0
C143 C 0.1016 0.24562 0.56978 0.0
O144 O 0.09639 0.2103 0.60574 0.0
O145 O 0.11394 0.24703 0.61378 0.0
O146 O 0.11434 0.26128 0.58046 0.0
O147 O 0.09662 0.22458 0.57237 0.0
H148 H 0.05414 0.18896 0.60915 0.0
H149 H 0.01887 0.18387 0.61821 0.0
H150 H 0.05743 0.25051 0.64288 0.0
H151 H 0.09274 0.25573 0.63374 0.0
H152 H 0.18008 0.21399 0.63227 0.0
H153 H 0.1528 0.2201 0.61716 0.0
H154 H 0.22974 0.24336 0.60126 0.0
H155 H 0.20258 0.24966 0.58642 0.0
H156 H 0.14862 0.25655 0.5332 0.0
H157 H 0.09433 0.27274 0.52641 0.0
H158 H 0.08258 0.26123 0.55032 0.0
H159 H 0.13659 0.24487 0.55705 0.0
C160 C 0.80339 0.86412 0.63409 0.0
C161 C 0.7968 0.84394 0.62509 0.0
C162 C 0.80875 0.82807 0.64451 0.0
C163 C 0.79945 0.82604 0.63026 0.0
C164 C 0.81527 0.84839 0.65344 0.0
C165 C 0.81259 0.86621 0.64827 0.0
U166 U 0.78992 0.89304 0.60385 0.0
O167 O 0.77172 0.91271 0.60372 0.0
O168 O 0.80786 0.92954 0.59923 0.0
C169 C 0.79028 0.93221 0.60174 0.0
C170 C 0.8012 0.88331 0.62881 0.0
C171 C 0.79557 0.95296 0.6113 0.0
C172 C 0.81927 0.99451 0.61758 0.0
C173 C 0.81432 0.97451 0.60904 0.0
C174 C 0.78662 0.9719 0.63076 0.0
C175 C 0.80543 0.9935 0.62852 0.0
C176 C 0.78174 0.95185 0.62227 0.0
C177 C 0.77191 0.86442 0.56566 0.0
C178 C 0.76703 0.88479 0.54623 0.0
C179 C 0.75685 0.84465 0.54168 0.0
C180 C 0.7635 0.84448 0.55611 0.0
C181 C 0.75852 0.86481 0.53657 0.0
C182 C 0.77362 0.88457 0.56065 0.0
C183 C 0.77867 0.86405 0.58082 0.0
O184 O 0.81634 0.89566 0.62005 0.0
O185 O 0.78019 0.87843 0.62453 0.0
O186 O 0.76384 0.86263 0.58981 0.0
O187 O 0.80003 0.87949 0.58548 0.0
H188 H 0.78968 0.84208 0.61408 0.0
H189 H 0.79407 0.81056 0.62314 0.0
H190 H 0.82285 0.85071 0.66437 0.0
H191 H 0.81789 0.88175 0.65533 0.0
H192 H 0.83408 1.01077 0.61567 0.0
H193 H 0.82517 0.9759 0.60061 0.0
H194 H 0.7754 0.97051 0.63895 0.0
H195 H 0.76703 0.93557 0.62423 0.0
H196 H 0.76881 0.90067 0.54262 0.0
H197 H 0.75007 0.82889 0.53459 0.0
H198 H 0.76197 0.82875 0.55984 0.0
H199 H 0.78008 0.90013 0.56791 0.0
C200 C 0.07174 0.86117 0.62166 0.0
C201 C 0.05067 0.86058 0.61895 0.0
C202 C 0.03097 0.82566 0.63135 0.0
C203 C 0.03055 0.84302 0.6237 0.0
C204 C 0.05198 0.82611 0.63394 0.0
C205 C 0.07212 0.8437 0.62921 0.0
U206 U 0.11694 0.89234 0.59505 0.0
O207 O 0.13555 0.92916 0.59119 0.0
O208 O 0.15468 0.91246 0.59874 0.0
C209 C 0.15565 0.93195 0.59587 0.0
C210 C 0.09347 0.88076 0.61762 0.0
C211 C 0.17077 0.95282 0.60592 0.0
C212 C 0.20163 0.97307 0.62533 0.0
C213 C 0.18604 0.95268 0.61681 0.0
C214 C 0.18691 0.99411 0.61237 0.0
C215 C 0.20241 0.99409 0.62313 0.0
C216 C 0.17138 0.97377 0.60384 0.0
C217 C 0.10999 0.86529 0.55695 0.0
C218 C 0.1384 0.88504 0.54026 0.0
C219 C 0.10498 0.84754 0.5327 0.0
C220 C 0.09722 0.84691 0.54631 0.0
C221 C 0.12568 0.86661 0.5295 0.0
C222 C 0.13062 0.88438 0.55386 0.0
C223 C 0.10167 0.8644 0.57122 0.0
O224 O 0.11032 0.87664 0.61562 0.0
O225 O 0.0915 0.89369 0.60814 0.0
O226 O 0.09522 0.87954 0.57441 0.0
O227 O 0.1143 0.86275 0.58185 0.0
H228 H 0.04972 0.87387 0.61331 0.0
H229 H 1.01462 0.84307 0.62139 0.0
H230 H 0.05299 0.81321 0.63998 0.0
H231 H 0.0881 0.84383 0.63172 0.0
H232 H 0.2135 0.97246 0.63339 0.0
H233 H 0.18631 0.93695 0.61859 0.0
H234 H 0.1868 1.0099 0.61051 0.0
H235 H 0.16005 0.97452 0.59543 0.0
H236 H 0.15454 0.89984 0.53822 0.0
H237 H 0.09463 0.8332 0.52463 0.0
H238 H 0.08122 0.83208 0.54851 0.0
H239 H 0.14073 0.89871 0.56199 0.0
C240 C 0.89355 0.49368 0.73415 0.0
C241 C 0.90015 0.51391 0.7431 0.0
C242 C 0.88696 0.5291 0.7239 0.0
C243 C 0.89689 0.53149 0.73802 0.0
C244 C 0.88045 0.50875 0.715 0.0
C245 C 0.88374 0.49123 0.72009 0.0
U246 U 0.90942 0.46671 0.76439 0.0
O247 O 0.89245 0.43069 0.7699 0.0
O248 O 0.92812 0.44753 0.76448 0.0
C249 C 0.91 0.42812 0.76711 0.0
C250 C 0.89637 0.47485 0.73942 0.0
C251 C 0.90448 0.40688 0.75796 0.0
C252 C 0.87968 0.36541 0.75181 0.0
C253 C 0.88473 0.38585 0.75986 0.0
C254 C 0.91417 0.38648 0.73985 0.0
C255 C 0.89439 0.36542 0.74175 0.0
C256 C 0.91918 0.40697 0.74787 0.0
C257 C 0.92896 0.49737 0.80203 0.0
C258 C 0.93951 0.48012 0.82109 0.0
C259 C 0.93931 0.51587 0.82645 0.0
C260 C 0.93237 0.51544 0.81198 0.0
C261 C 0.94292 0.49818 0.83118 0.0
C262 C 0.93256 0.47971 0.80665 0.0
C263 C 0.92135 0.49681 0.78691 0.0
O264 O 0.91764 0.48016 0.74327 0.0
O265 O 0.8819 0.46275 0.74859 0.0
O266 O 0.89994 0.48092 0.78278 0.0
O267 O 0.93575 0.49797 0.77765 0.0
H268 H 0.90775 0.51605 0.75402 0.0
H269 H 0.9023 0.54702 0.7451 0.0
H270 H 0.87242 0.50616 0.70417 0.0
H271 H 0.87843 0.47565 0.71308 0.0
H272 H 0.86414 0.34959 0.75342 0.0
H273 H 0.8732 0.38518 0.76766 0.0
H274 H 0.92604 0.38707 0.73234 0.0
H275 H 0.93471 0.42279 0.74625 0.0
H276 H 0.94245 0.46642 0.82434 0.0
H277 H 0.94154 0.52987 0.83396 0.0
H278 H 0.92956 0.52915 0.80857 0.0
H279 H 0.93 0.46562 0.79907 0.0
C280 C 0.62161 0.49355 0.74811 0.0
C281 C 0.63533 0.51457 0.75663 0.0
C282 C 0.662 0.52884 0.73814 0.0
C283 C 0.65535 0.53211 0.75167 0.0
C284 C 0.64808 0.5077 0.72969 0.0
C285 C 0.62812 0.49026 0.73464 0.0
U286 U 0.57922 0.46512 0.7765 0.0
O287 O 0.54138 0.44545 0.77379 0.0
O288 O 0.56057 0.42863 0.781 0.0
C289 C 0.54033 0.4261 0.77706 0.0
C290 C 0.60047 0.47478 0.75297 0.0
C291 C 0.52467 0.40531 0.76738 0.0
C292 C 0.5151 0.38129 0.74481 0.0
C293 C 0.53022 0.40149 0.75367 0.0
C294 C 0.48876 0.36869 0.76326 0.0
C295 C 0.49422 0.36458 0.74954 0.0
C296 C 0.50385 0.38884 0.77208 0.0
C297 C 0.58826 0.49298 0.81442 0.0
C298 C 0.56178 0.47214 0.83189 0.0
C299 C 0.59223 0.51177 0.83821 0.0
C300 C 0.59971 0.51242 0.8245 0.0
C301 C 0.57317 0.49161 0.84207 0.0
C302 C 0.56923 0.47284 0.81819 0.0
C303 C 0.59608 0.49381 0.79999 0.0
O304 O 0.60345 0.46274 0.76268 0.0
O305 O 0.58443 0.47983 0.75562 0.0
O306 O 0.58307 0.4954 0.78958 0.0
O307 O 0.60231 0.47855 0.79658 0.0
H308 H 0.63059 0.51738 0.76709 0.0
H309 H 0.66577 0.54808 0.7585 0.0
H310 H 0.65246 0.5047 0.71915 0.0
H311 H 0.61769 0.47417 0.72789 0.0
H312 H 0.51994 0.37857 0.73436 0.0
H313 H 0.54627 0.41404 0.74988 0.0
H314 H 0.4727 0.35641 0.76716 0.0
H315 H 0.49927 0.39156 0.78263 0.0
H316 H 0.54686 0.45647 0.83444 0.0
H317 H 0.60151 0.52698 0.84583 0.0
H318 H 0.61443 0.52811 0.82177 0.0
H319 H 0.56009 0.45769 0.8105 0.0
C320 C 0.54679 0.13961 0.74869 0.0
C321 C 0.52896 0.13434 0.75748 0.0
C322 C 0.50945 0.14543 0.7395 0.0
C323 C 0.51042 0.13718 0.75291 0.0
C324 C 0.52744 0.15074 0.73077 0.0
C325 C 0.54593 0.14784 0.73534 0.0
U326 U 0.57933 0.126 0.77745 0.0
O327 O 0.59634 0.10523 0.77595 0.0
O328 O 0.61642 0.14204 0.7838 0.0
C329 C 0.61688 0.12315 0.77981 0.0
C330 C 0.56633 0.13666 0.75339 0.0
C331 C 0.6348 0.12625 0.77044 0.0
C332 C 0.65173 0.13589 0.74776 0.0
C333 C 0.63433 0.13272 0.75644 0.0
C334 C 0.67015 0.12603 0.76696 0.0
C335 C 0.66989 0.13261 0.75293 0.0
C336 C 0.65277 0.12289 0.77562 0.0
C337 C 0.5534 0.11244 0.81392 0.0
C338 C 0.56493 0.09683 0.83358 0.0
C339 C 0.53716 0.10927 0.83674 0.0
C340 C 0.53881 0.11556 0.82267 0.0
C341 C 0.5501 0.09972 0.84237 0.0
C342 C 0.56661 0.10319 0.81946 0.0
C343 C 0.55395 0.11851 0.799 0.0
O344 O 0.58114 0.15225 0.7635 0.0
O345 O 0.56103 0.11544 0.75571 0.0
O346 O 0.55036 0.10228 0.78894 0.0
O347 O 0.57053 0.13915 0.79671 0.0
H348 H 0.52942 0.12806 0.76787 0.0
H349 H 0.49699 0.13317 0.75995 0.0
H350 H 0.52708 0.15684 0.72031 0.0
H351 H 0.55954 0.15196 0.72842 0.0
H352 H 0.65087 0.14073 0.73697 0.0
H353 H 0.62053 0.13534 0.75226 0.0
H354 H 0.68402 0.1237 0.77137 0.0
H355 H 0.65345 0.11797 0.78641 0.0
H356 H 0.57527 0.08969 0.83763 0.0
H357 H 0.52528 0.11139 0.84309 0.0
H358 H 0.52843 0.1226 0.81854 0.0
H359 H 0.57803 0.10073 0.81285 0.0
C360 C 0.73937 0.55582 0.95125 0.0
C361 C 0.73858 0.57491 0.95762 0.0
C362 C 0.69848 0.5501 0.96184 0.0
C363 C 0.71836 0.57209 0.9628 0.0
C364 C 0.69923 0.53107 0.95536 0.0
C365 C 0.71944 0.53388 0.95019 0.0
U366 U 0.7841 0.56961 0.92384 0.0
O367 O 0.82187 0.58858 0.92721 0.0
O368 O 0.80343 0.55211 0.91855 0.0
C369 C 0.82333 0.57012 0.92357 0.0
C370 C 0.76119 0.55838 0.94664 0.0
C371 C 0.83868 0.56558 0.93322 0.0
C372 C 0.87108 0.57925 0.95155 0.0
C373 C 0.85548 0.58309 0.9433 0.0
C374 C 0.85339 0.54029 0.93994 0.0
C375 C 0.87033 0.55786 0.94989 0.0
C376 C 0.83783 0.54414 0.93166 0.0
C377 C 0.7757 0.58721 0.88693 0.0
C378 C 0.80181 0.59244 0.86877 0.0
C379 C 0.77209 0.60242 0.86451 0.0
C380 C 0.76462 0.59558 0.87798 0.0
C381 C 0.79079 0.60095 0.85975 0.0
C382 C 0.79436 0.58569 0.88226 0.0
C383 C 0.76783 0.58033 0.90112 0.0
O384 O 0.7593 0.54305 0.93645 0.0
O385 O 0.77771 0.5795 0.94514 0.0
O386 O 0.78044 0.59543 0.91208 0.0
O387 O 0.76196 0.55895 0.90344 0.0
H388 H 0.75368 0.59202 0.95884 0.0
H389 H 0.7185 0.58707 0.96792 0.0
H390 H 0.68418 0.51393 0.9543 0.0
H391 H 0.7195 0.51875 0.94551 0.0
H392 H 0.88379 0.59308 0.95922 0.0
H393 H 0.85685 0.59992 0.94468 0.0
H394 H 0.85256 0.52374 0.93823 0.0
H395 H 0.82541 0.53042 0.92381 0.0
H396 H 0.81643 0.59137 0.8655 0.0
H397 H 0.76309 0.60867 0.85776 0.0
H398 H 0.75017 0.59686 0.88142 0.0
H399 H 0.80322 0.57937 0.88909 0.0
C400 C 0.47647 0.20404 0.96767 0.0
C401 C 0.46942 0.18356 0.95886 0.0
C402 C 0.48172 0.16805 0.97833 0.0
C403 C 0.47201 0.16569 0.96415 0.0
C404 C 0.4888 0.18871 0.98705 0.0
C405 C 0.48618 0.2065 0.98176 0.0
U406 U 0.46184 0.23166 0.9372 0.0
O407 O 0.47885 0.26782 0.93202 0.0
O408 O 0.44295 0.25068 0.937 0.0
C409 C 0.461 0.2701 0.93436 0.0
C410 C 0.474 0.22302 0.96228 0.0
C411 C 0.46596 0.29075 0.94366 0.0
C412 C 0.48194 0.31527 0.96619 0.0
C413 C 0.47702 0.29527 0.95761 0.0
C414 C 0.46455 0.32625 0.947 0.0
C415 C 0.47582 0.33105 0.96096 0.0
C416 C 0.45969 0.30629 0.93844 0.0
C417 C 0.44321 0.20179 0.89938 0.0
C418 C 0.437 0.22123 0.87986 0.0
C419 C 0.4282 0.18149 0.87553 0.0
C420 C 0.43528 0.18181 0.88995 0.0
C421 C 0.42895 0.2012 0.87031 0.0
C422 C 0.44403 0.2215 0.89427 0.0
C423 C 0.45045 0.20197 0.91453 0.0
O424 O 0.48883 0.23521 0.95332 0.0
O425 O 0.45285 0.21785 0.95816 0.0
O426 O 0.43579 0.20059 0.92364 0.0
O427 O 0.4718 0.21776 0.91892 0.0
H428 H 0.46189 0.18139 0.94792 0.0
H429 H 0.46618 0.14996 0.9572 0.0
H430 H 0.4967 0.19128 0.99793 0.0
H431 H 0.49183 0.22226 0.98867 0.0
H432 H 0.49085 0.31855 0.97682 0.0
H433 H 0.48199 0.28342 0.96181 0.0
H434 H 0.45928 0.33781 0.94273 0.0
H435 H 0.45104 0.30299 0.92771 0.0
H436 H 0.43807 0.23679 0.87616 0.0
H437 H 0.4218 0.16569 0.86853 0.0
H438 H 0.43446 0.16641 0.89376 0.0
H439 H 0.45012 0.2371 0.90143 0.0
C440 C 0.74097 0.19942 0.95827 0.0
C441 C 0.7271 0.17903 0.9492 0.0
C442 C 0.69954 0.16407 0.96714 0.0
C443 C 0.70657 0.16148 0.95361 0.0
C444 C 0.71359 0.1846 0.97614 0.0
C445 C 0.73408 0.20207 0.97173 0.0
U446 U 0.7847 0.22706 0.93074 0.0
O447 O 0.80437 0.26342 0.92607 0.0
O448 O 0.82253 0.24586 0.93382 0.0
C449 C 0.82428 0.2654 0.9303 0.0
C450 C 0.76263 0.2181 0.95392 0.0
C451 C 0.84015 0.28619 0.93992 0.0
C452 C 0.85023 0.31035 0.96249 0.0
C453 C 0.83492 0.29011 0.95371 0.0
C454 C 0.87611 0.32277 0.94378 0.0
C455 C 0.87097 0.32701 0.95758 0.0
C456 C 0.86084 0.30258 0.93505 0.0
C457 C 0.77546 0.198 0.89307 0.0
C458 C 0.80396 0.21612 0.87616 0.0
C459 C 0.76903 0.17975 0.86879 0.0
C460 C 0.76171 0.17983 0.88248 0.0
C461 C 0.79025 0.19791 0.86546 0.0
C462 C 0.79662 0.21616 0.88984 0.0
C463 C 0.76763 0.19799 0.90742 0.0
O464 O 0.77853 0.21267 0.9517 0.0
O465 O 0.76048 0.23041 0.94408 0.0
O466 O 0.76206 0.21387 0.91046 0.0
O467 O 0.78019 0.19621 0.91803 0.0
H468 H 0.73214 0.17673 0.93873 0.0
H469 H 0.69606 0.14601 0.94636 0.0
H470 H 0.70891 0.18705 0.98669 0.0
H471 H 0.74461 0.21767 0.97889 0.0
H472 H 0.84565 0.31317 0.973 0.0
H473 H 0.81896 0.27761 0.95763 0.0
H474 H 0.89206 0.33501 0.93974 0.0
H475 H 0.86518 0.29978 0.92444 0.0
H476 H 0.82051 0.2302 0.87404 0.0
H477 H 0.75793 0.16562 0.86077 0.0
H478 H 0.74529 0.16571 0.88479 0.0
H479 H 0.80748 0.23034 0.89792 0.0
C480 C 0.55354 0.82771 0.06995 0.0
C481 C 0.53643 0.83198 0.07465 0.0
C482 C 0.54771 0.86349 0.05928 0.0
C483 C 0.53354 0.84964 0.06936 0.0
C484 C 0.56499 0.85936 0.05472 0.0
C485 C 0.56779 0.84161 0.05995 0.0
U486 U 0.56912 0.79904 0.09956 0.0
O487 O 0.55223 0.76269 0.10445 0.0
O488 O 0.58799 0.78004 0.09915 0.0
C489 C 0.56991 0.76042 0.10156 0.0
C490 C 0.55637 0.80856 0.075 0.0
C491 C 0.56457 0.7395 0.09217 0.0
C492 C 0.5732 0.72019 0.07275 0.0
C493 C 0.57798 0.74043 0.08098 0.0
C494 C 0.54144 0.69774 0.08662 0.0
C495 C 0.55491 0.69857 0.0755 0.0
C496 C 0.54629 0.71794 0.09489 0.0
C497 C 0.58848 0.8285 0.13756 0.0
C498 C 0.59959 0.81113 0.15627 0.0
C499 C 0.59951 0.84684 0.16202 0.0
C500 C 0.59213 0.84649 0.14766 0.0
C501 C 0.60334 0.82917 0.16649 0.0
C502 C 0.59221 0.81079 0.14193 0.0
C503 C 0.5808 0.82828 0.12251 0.0
O504 O 0.57761 0.81359 0.07871 0.0
O505 O 0.54176 0.79546 0.08381 0.0
O506 O 0.55944 0.81234 0.11829 0.0
O507 O 0.59527 0.82991 0.11319 0.0
H508 H 0.52506 0.82156 0.08231 0.0
H509 H 0.51983 0.85207 0.07295 0.0
H510 H 0.57642 0.86987 0.04712 0.0
H511 H 0.58107 0.83867 0.05611 0.0
H512 H 0.58412 0.72144 0.06439 0.0
H513 H 0.59234 0.75674 0.07867 0.0
H514 H 0.52701 0.68146 0.08891 0.0
H515 H 0.53578 0.71668 0.1035 0.0
H516 H 0.60269 0.79743 0.15931 0.0
H517 H 0.60198 0.86082 0.16965 0.0
H518 H 0.58925 0.86025 0.14445 0.0
H519 H 0.58949 0.79678 0.13423 0.0
C520 C 0.28791 0.82785 0.07943 0.0
C521 C 0.3018 0.84836 0.08838 0.0
C522 C 0.3286 0.86361 0.07003 0.0
C523 C 0.32197 0.86612 0.08371 0.0
C524 C 0.31451 0.84298 0.06114 0.0
C525 C 0.2944 0.82531 0.0658 0.0
U526 U 0.24479 0.79836 0.10727 0.0
O527 O 0.20695 0.77886 0.10422 0.0
O528 O 0.22584 0.76162 0.1112 0.0
C529 C 0.20571 0.75931 0.10719 0.0
C530 C 0.26661 0.80888 0.08398 0.0
C531 C 0.19018 0.73886 0.09721 0.0
C532 C 0.18116 0.7154 0.07446 0.0
C533 C 0.19615 0.73533 0.08358 0.0
C534 C 0.15408 0.70253 0.09248 0.0
C535 C 0.15997 0.69868 0.07884 0.0
C536 C 0.16904 0.72241 0.10156 0.0
C537 C 0.25342 0.82525 0.14551 0.0
C538 C 0.22693 0.80418 0.16294 0.0
C539 C 0.25727 0.84382 0.16936 0.0
C540 C 0.26479 0.84461 0.15565 0.0
C541 C 0.23824 0.82359 0.17317 0.0
C542 C 0.23443 0.80502 0.14923 0.0
C543 C 0.26133 0.8263 0.13109 0.0
O544 O 0.2693 0.79644 0.09351 0.0
O545 O 0.25054 0.81387 0.08665 0.0
O546 O 0.24852 0.82826 0.12073 0.0
O547 O 0.26745 0.81101 0.12753 0.0
H548 H 0.29707 0.8506 0.09897 0.0
H549 H 0.33251 0.88168 0.09088 0.0
H550 H 0.31886 0.84057 0.05047 0.0
H551 H 0.28384 0.80963 0.05872 0.0
H552 H 0.18633 0.71288 0.06409 0.0
H553 H 0.21244 0.74788 0.08006 0.0
H554 H 0.13778 0.69025 0.09612 0.0
H555 H 0.16412 0.72492 0.11203 0.0
H556 H 0.21205 0.78845 0.16544 0.0
H557 H 0.26651 0.85898 0.17702 0.0
H558 H 0.27949 0.86036 0.15297 0.0
H559 H 0.22535 0.78992 0.14149 0.0
C560 C 0.21147 0.47228 0.0826 0.0
C561 C 0.19328 0.46653 0.09114 0.0
C562 C 0.17459 0.47877 0.07333 0.0
C563 C 0.17497 0.46973 0.08654 0.0
C564 C 0.19296 0.48455 0.06486 0.0
C565 C 0.21122 0.48132 0.06946 0.0
U566 U 0.24156 0.45369 0.11007 0.0
O567 O 0.25883 0.43339 0.10697 0.0
O568 O 0.27821 0.46883 0.11747 0.0
C569 C 0.27916 0.45092 0.11182 0.0
C570 C 0.23065 0.46872 0.08721 0.0
C571 C 0.29812 0.45585 0.10272 0.0
C572 C 0.33325 0.48294 0.09269 0.0
C573 C 0.31506 0.47867 0.10089 0.0
C574 C 0.31797 0.44174 0.0879 0.0
C575 C 0.33499 0.46454 0.08611 0.0
C576 C 0.29984 0.43747 0.09615 0.0
C577 C 0.21239 0.43247 0.14488 0.0
C578 C 0.22959 0.42786 0.16716 0.0
C579 C 0.18851 0.41286 0.16371 0.0
C580 C 0.19076 0.42084 0.15007 0.0
C581 C 0.20789 0.41635 0.17247 0.0
C582 C 0.23182 0.4358 0.15345 0.0
C583 C 0.21411 0.44147 0.1307 0.0
O584 O 0.24441 0.48254 0.09833 0.0
O585 O 0.22518 0.44704 0.08796 0.0
O586 O 0.21144 0.42722 0.11959 0.0
O587 O 0.23079 0.46279 0.12993 0.0
H588 H 0.19325 0.45956 0.10134 0.0
H589 H 0.16123 0.46533 0.09338 0.0
H590 H 0.19306 0.49123 0.05455 0.0
H591 H 0.2251 0.48576 0.06272 0.0
H592 H 0.34622 0.50072 0.09175 0.0
H593 H 0.31445 0.49329 0.1059 0.0
H594 H 0.31857 0.42713 0.08286 0.0
H595 H 0.28716 0.41971 0.09744 0.0
H596 H 0.24482 0.43063 0.17359 0.0
H597 H 0.17161 0.40439 0.16753 0.0
H598 H 0.17559 0.4182 0.14362 0.0
H599 H 0.24868 0.44469 0.14959 0.0
C600 C 0.40615 0.88768 0.28331 0.0
C601 C 0.40544 0.90671 0.28987 0.0
C602 C 0.36507 0.88208 0.29356 0.0
C603 C 0.38514 0.90395 0.29488 0.0
C604 C 0.36572 0.86311 0.28688 0.0
C605 C 0.38602 0.86586 0.28187 0.0
U606 U 0.45148 0.90123 0.25634 0.0
O607 O 0.48924 0.92017 0.26002 0.0
O608 O 0.4709 0.88367 0.25144 0.0
C609 C 0.49075 0.9017 0.25655 0.0
C610 C 0.42805 0.89017 0.27893 0.0
C611 C 0.50592 0.8972 0.2664 0.0
C612 C 0.53785 0.91088 0.28509 0.0
C613 C 0.52234 0.91464 0.27667 0.0
C614 C 0.52081 0.87211 0.27326 0.0
C615 C 0.53739 0.88963 0.28341 0.0
C616 C 0.50535 0.87589 0.26482 0.0
C617 C 0.44364 0.91871 0.21918 0.0
C618 C 0.46957 0.92355 0.20097 0.0
C619 C 0.44038 0.93429 0.19684 0.0
C620 C 0.43285 0.92746 0.2103 0.0
C621 C 0.45885 0.93244 0.19202 0.0
C622 C 0.46207 0.91681 0.21446 0.0
C623 C 0.43565 0.91186 0.23337 0.0
O624 O 0.42634 0.87477 0.26885 0.0
O625 O 0.44465 0.91126 0.27746 0.0
O626 O 0.44812 0.92702 0.24433 0.0
O627 O 0.42977 0.89051 0.23575 0.0
H628 H 0.42069 0.92371 0.29139 0.0
H629 H 0.38536 0.91887 0.30017 0.0
H630 H 0.35053 0.84606 0.28555 0.0
H631 H 0.38598 0.85077 0.27704 0.0
H632 H 0.55028 0.92466 0.2929 0.0
H633 H 0.52349 0.93137 0.27808 0.0
H634 H 0.52021 0.85568 0.27154 0.0
H635 H 0.49323 0.86224 0.25683 0.0
H636 H 0.48401 0.92218 0.19765 0.0
H637 H 0.43161 0.94082 0.19015 0.0
H638 H 0.41859 0.92903 0.21378 0.0
H639 H 0.47069 0.91021 0.22123 0.0
C640 C 0.13964 0.5319 0.29921 0.0
C641 C 0.12158 0.51393 0.30551 0.0
C642 C 0.1447 0.49577 0.31006 0.0
C643 C 0.12406 0.49605 0.31084 0.0
C644 C 0.16275 0.51373 0.30376 0.0
C645 C 0.16029 0.53162 0.29845 0.0
U646 U 0.12488 0.56111 0.26943 0.0
O647 O 0.10677 0.58086 0.26976 0.0
O648 O 0.14255 0.59748 0.26453 0.0
C649 C 0.12513 0.60024 0.26735 0.0
C650 C 0.13728 0.5513 0.29402 0.0
C651 C 0.13085 0.62131 0.27672 0.0
C652 C 0.12304 0.64093 0.29637 0.0
C653 C 0.11792 0.62057 0.28815 0.0
C654 C 0.15418 0.6631 0.28201 0.0
C655 C 0.14121 0.66247 0.29339 0.0
C656 C 0.14898 0.64278 0.27374 0.0
C657 C 0.10494 0.5316 0.23144 0.0
C658 C 0.09205 0.54796 0.21298 0.0
C659 C 0.09668 0.51501 0.20663 0.0
C660 C 0.10369 0.51509 0.22102 0.0
C661 C 0.09075 0.53143 0.20245 0.0
C662 C 0.09915 0.54808 0.22735 0.0
C663 C 0.11254 0.5317 0.2465 0.0
O664 O 0.152 0.56396 0.28512 0.0
O665 O 0.11624 0.54692 0.29034 0.0
O666 O 0.09826 0.53046 0.25586 0.0
O667 O 0.13405 0.54728 0.25068 0.0
H668 H 0.10552 0.51373 0.30642 0.0
H669 H 0.10977 0.4824 0.31555 0.0
H670 H 0.17902 0.51426 0.30323 0.0
H671 H 0.17472 0.54535 0.2939 0.0
H672 H 0.11248 0.63982 0.30492 0.0
H673 H 0.10369 0.60434 0.29067 0.0
H674 H 0.1685 0.67931 0.27953 0.0
H675 H 0.15913 0.64387 0.26494 0.0
H676 H 0.08788 0.561 0.21007 0.0
H677 H 0.09564 0.50193 0.19879 0.0
H678 H 0.10812 0.50226 0.22402 0.0
H679 H 0.1002 0.56107 0.23527 0.0
C680 C 0.40658 0.52775 0.29088 0.0
C681 C 0.38603 0.52844 0.2894 0.0
C682 C 0.36604 0.4929 0.30119 0.0
C683 C 0.36601 0.51121 0.29445 0.0
C684 C 0.38652 0.49208 0.30255 0.0
C685 C 0.40657 0.50934 0.29752 0.0
U686 U 0.4509 0.55797 0.26359 0.0
O687 O 0.46964 0.5947 0.25954 0.0
O688 O 0.48869 0.57776 0.26683 0.0
C689 C 0.48976 0.59732 0.26401 0.0
C690 C 0.42824 0.547 0.28652 0.0
C691 C 0.50515 0.61817 0.27398 0.0
C692 C 0.53606 0.6382 0.29339 0.0
C693 C 0.52033 0.61787 0.28488 0.0
C694 C 0.52169 0.65952 0.2804 0.0
C695 C 0.53708 0.65933 0.29118 0.0
C696 C 0.50602 0.63922 0.27188 0.0
C697 C 0.44268 0.53074 0.22546 0.0
C698 C 0.4709 0.55031 0.20863 0.0
C699 C 0.43692 0.51324 0.20105 0.0
C700 C 0.42948 0.51258 0.21475 0.0
C701 C 0.45774 0.53211 0.19781 0.0
C702 C 0.46343 0.54963 0.22233 0.0
C703 C 0.43471 0.52988 0.23983 0.0
O704 O 0.4448 0.54254 0.28425 0.0
O705 O 0.42613 0.55989 0.27707 0.0
O706 O 0.42853 0.54519 0.24321 0.0
O707 O 0.44751 0.52811 0.2503 0.0
H708 H 0.38543 0.54248 0.28451 0.0
H709 H 0.35048 0.51225 0.29308 0.0
H710 H 0.38725 0.47843 0.30787 0.0
H711 H 0.42216 0.50845 0.29907 0.0
H712 H 0.54784 0.63747 0.30146 0.0
H713 H 0.52038 0.60203 0.28668 0.0
H714 H 0.52175 0.67539 0.27853 0.0
H715 H 0.49476 0.6401 0.26348 0.0
H716 H 0.48714 0.56495 0.20657 0.0
H717 H 0.42624 0.49908 0.19293 0.0
H718 H 0.41337 0.49791 0.21699 0.0
H719 H 0.47387 0.56379 0.2305 0.0
C720 C 0.54427 0.02427 0.05897 0.0
Eu721 Eu 0.52695 0.02215 0.0329 0.0
C722 C 0.53591 0.0126 0.07206 0.0
C723 C 0.54479 0.02536 0.08551 0.0
C724 C 0.53649 0.01504 0.09808 0.0
C725 C 0.5191 0.99167 0.09746 0.0
C726 C 0.51032 0.97884 0.08392 0.0
C727 C 0.51864 0.98921 0.07132 0.0
C728 C 0.51502 0.05192 0.0223 0.0
C729 C 0.47121 0.98534 0.02964 0.0
C730 C 0.48222 1.00373 0.97695 0.0
Eu731 Eu 0.49956 1.00639 1.00311 0.0
C732 C 0.49038 0.01526 0.9638 0.0
C733 C 0.48027 1.00279 0.95038 0.0
C734 C 0.48811 0.01306 0.93772 0.0
C735 C 0.50628 0.03606 0.93825 0.0
C736 C 0.51642 0.04855 0.95176 0.0
C737 C 0.50851 0.03824 0.96444 0.0
C738 C 0.51167 0.97682 0.01386 0.0
C739 C 0.55532 0.04321 1.00642 0.0
O740 O 0.54527 1.01184 0.04805 0.0
O741 O 0.53625 0.03763 0.05511 0.0
O742 O 0.53433 0.05847 0.02996 0.0
O743 O 0.50243 0.03019 0.02131 0.0
O744 O 0.49141 0.99369 0.03723 0.0
O745 O 0.46947 0.99032 0.01629 0.0
O746 O 0.48101 0.01617 0.98777 0.0
O747 O 0.49062 0.99075 0.98095 0.0
O748 O 0.49221 0.9701 1.00635 0.0
O749 O 0.52414 0.99852 0.01465 0.0
O750 O 0.53513 0.03496 0.99882 0.0
O751 O 0.55701 0.03814 0.01974 0.0
H752 H 0.55799 0.04346 0.08629 0.0
H753 H 0.54337 0.02555 0.10829 0.0
H754 H 0.4971 0.96076 0.08305 0.0
H755 H 0.51148 0.97902 0.06102 0.0
H756 H 0.46639 0.98499 0.94968 0.0
H757 H 0.48015 1.00286 0.92751 0.0
H758 H 0.53028 0.06636 0.95253 0.0
H759 H 0.51656 0.04819 0.97472 0.0
C760 C 1.00959 0.5345 0.0574 0.0
Eu761 Eu 1.00972 0.51948 0.03115 0.0
C762 C 0.01977 0.53446 0.07172 0.0
C763 C 0.02631 0.51801 0.0745 0.0
C764 C 0.03547 0.51785 0.08828 0.0
C765 C 0.03833 0.53421 0.09948 0.0
C766 C 0.03216 0.55093 0.09654 0.0
C767 C 0.02295 0.55103 0.08276 0.0
C768 C 0.98043 0.47689 0.01783 0.0
C769 C 0.04637 0.5006 0.03019 0.0
C770 C 0.02356 0.49362 0.97623 0.0
Eu771 Eu 0.02312 0.50862 1.00242 0.0
C772 C 1.01448 0.49449 0.96176 0.0
C773 C 1.00853 0.51135 0.95894 0.0
C774 C 1.00015 0.51211 0.94506 0.0
C775 C 0.99762 0.49601 0.93376 0.0
C776 C 1.0033 0.47895 0.93674 0.0
C777 C 1.01165 0.47821 0.95062 0.0
C778 C 0.05234 0.55122 0.01585 0.0
C779 C 0.9865 0.52754 1.00323 0.0
O780 O 0.02402 0.54735 0.04854 0.0
O781 O 0.99369 0.51436 0.05117 0.0
O782 O 0.97381 0.48928 0.02503 0.0
O783 O 1.00207 0.48694 0.0186 0.0
O784 O 0.03877 0.51249 0.03753 0.0
O785 O 0.03981 0.49379 0.01638 0.0
O786 O 1.00827 0.48116 0.98478 0.0
O787 O 0.03994 0.51329 0.98272 0.0
O788 O 0.05906 0.53888 1.00869 0.0
O789 O 0.0307 0.54109 0.01494 0.0
O790 O 0.99455 0.5161 0.99589 0.0
O791 O 0.99242 0.53381 0.01716 0.0
H792 H 0.02417 0.50519 0.06605 0.0
H793 H 0.04036 0.50497 0.09017 0.0
H794 H 0.03397 0.56363 0.10496 0.0
H795 H 0.01808 0.56391 0.08078 0.0
H796 H 1.01058 0.52405 0.96745 0.0
H797 H 0.9961 0.52556 0.94311 0.0
H798 H 1.00116 0.46606 0.92835 0.0
H799 H 0.01596 0.46495 0.95266 0.0
C800 C 0.48335 0.49069 0.97826 0.0
Eu801 Eu 0.50064 0.50682 1.00477 0.0
C802 C 0.49224 0.48858 0.96456 0.0
C803 C 0.48454 0.49431 0.95202 0.0
C804 C 0.49338 0.49346 0.939 0.0
C805 C 0.51012 0.4868 0.93824 0.0
C806 C 0.51767 0.48083 0.95082 0.0
C807 C 0.50884 0.48174 0.96387 0.0
C808 C 0.51405 0.54964 0.01699 0.0
C809 C 0.55646 0.52651 1.00705 0.0
C810 C 0.54622 0.5371 0.06066 0.0
Eu811 Eu 0.52904 0.52037 0.03422 0.0
C812 C 0.53647 0.53706 0.07434 0.0
C813 C 0.514 0.51992 0.07632 0.0
C814 C 0.50493 0.51995 0.08938 0.0
C815 C 0.51819 0.53712 0.10072 0.0
C816 C 0.54059 0.55446 0.09857 0.0
C817 C 0.54962 0.55442 0.08549 0.0
C818 C 0.51562 0.47749 0.02204 0.0
C819 C 0.47306 0.50009 0.03205 0.0
O820 O 0.48368 0.47776 0.98821 0.0
O821 O 0.48967 0.51175 0.98346 0.0
O822 O 0.49421 0.5365 1.00968 0.0
O823 O 0.52615 0.5401 0.01693 0.0
O824 O 0.53604 0.51366 0.99966 0.0
O825 O 0.55859 0.53447 0.02062 0.0
O826 O 0.54336 0.54916 0.05102 0.0
O827 O 0.5426 0.51706 0.05512 0.0
O828 O 0.53531 0.49048 0.02956 0.0
O829 O 0.50362 0.48713 0.02205 0.0
O830 O 0.49346 0.51246 0.0395 0.0
O831 O 0.47087 0.49289 0.01831 0.0
H832 H 0.47187 0.49976 0.95233 0.0
H833 H 0.48742 0.4985 0.92959 0.0
H834 H 0.53031 0.47535 0.95058 0.0
H835 H 0.51511 0.47725 0.97341 0.0
H836 H 0.50352 0.50638 0.06782 0.0
H837 H 0.48771 0.50625 0.09069 0.0
H838 H 0.55112 0.56815 0.10698 0.0
H839 H 0.5669 0.56793 0.08409 0.0
C840 C 0.20809 0.35678 0.39467 0.0
Eu841 Eu 0.19208 0.35367 0.36808 0.0
C842 C 0.19913 0.34554 0.40778 0.0
C843 C 0.20756 0.35865 0.42115 0.0
C844 C 0.1989 0.34864 0.43374 0.0
C845 C 0.18161 0.32525 0.43322 0.0
C846 C 0.1732 0.31211 0.41976 0.0
C847 C 0.18188 0.32217 0.40715 0.0
C848 C 0.17948 0.38235 0.35652 0.0
C849 C 0.13667 0.31584 0.36376 0.0
C850 C 0.15039 0.3331 0.31118 0.0
Eu851 Eu 0.16659 0.33694 0.33785 0.0
C852 C 0.15884 0.34394 0.29787 0.0
C853 C 0.18195 0.35314 0.29525 0.0
C854 C 0.18945 0.36278 0.28233 0.0
C855 C 0.17396 0.36338 0.27181 0.0
C856 C 0.15089 0.35438 0.27461 0.0
C857 C 0.14344 0.34479 0.28752 0.0
C858 C 0.17934 0.30846 0.34962 0.0
C859 C 0.22194 0.37506 0.34223 0.0
O860 O 0.20977 0.3441 0.38419 0.0
O861 O 0.20007 0.36979 0.39011 0.0
O862 O 0.1985 0.3895 0.36466 0.0
O863 O 0.16744 0.36056 0.35551 0.0
O864 O 0.15651 0.32467 0.37183 0.0
O865 O 0.13561 0.32051 0.35027 0.0
O866 O 0.14876 0.34608 0.32146 0.0
O867 O 0.15871 0.32046 0.31598 0.0
O868 O 0.16016 0.30114 0.34162 0.0
O869 O 0.1913 0.33022 0.35038 0.0
O870 O 0.20209 0.36621 0.33414 0.0
O871 O 0.22303 0.37026 0.35568 0.0
H872 H 0.22073 0.37675 0.42184 0.0
H873 H 0.20549 0.35938 0.44388 0.0
H874 H 0.16005 0.29401 0.41898 0.0
H875 H 0.17506 0.31173 0.39691 0.0
H876 H 0.19414 0.35268 0.30312 0.0
H877 H 0.20738 0.36979 0.2806 0.0
H878 H 0.13843 0.35427 0.26669 0.0
H879 H 0.12553 0.33776 0.28935 0.0
C880 C 0.67464 0.86448 0.39136 0.0
Eu881 Eu 0.67659 0.85126 0.36504 0.0
C882 C 0.68485 0.86523 0.40587 0.0
C883 C 0.67124 0.86033 0.41737 0.0
C884 C 0.68016 0.86013 0.43119 0.0
C885 C 0.70293 0.86484 0.43378 0.0
C886 C 0.71666 0.86998 0.42224 0.0
C887 C 0.70767 0.87011 0.40838 0.0
C888 C 0.64781 0.8093 0.3508 0.0
C889 C 0.71411 0.8335 0.36398 0.0
C890 C 0.69254 0.82837 0.30999 0.0
Eu891 Eu 0.69113 0.84203 0.33631 0.0
C892 C 0.68259 0.82867 0.29565 0.0
C893 C 0.67615 0.8452 0.29292 0.0
C894 C 0.66684 0.84534 0.27918 0.0
C895 C 0.66381 0.82894 0.26796 0.0
C896 C 0.67001 0.81221 0.27085 0.0
C897 C 0.67931 0.81209 0.28458 0.0
C898 C 0.71978 0.88409 0.35058 0.0
C899 C 0.65376 0.85998 0.33719 0.0
O900 O 0.68838 0.87849 0.38261 0.0
O901 O 0.6603 0.84386 0.38504 0.0
O902 O 0.64088 0.82133 0.35807 0.0
O903 O 0.66947 0.81936 0.35192 0.0
O904 O 0.70612 0.84493 0.37142 0.0
O905 O 0.70787 0.82711 0.3501 0.0
O906 O 0.67799 0.81484 0.31856 0.0
O907 O 0.70792 0.84848 0.31655 0.0
O908 O 0.72686 0.8722 0.34328 0.0
O909 O 0.69813 0.87386 0.34939 0.0
O910 O 0.66225 0.84904 0.32977 0.0
O911 O 0.65926 0.86574 0.35118 0.0
H912 H 0.6536 0.85654 0.41564 0.0
H913 H 0.66927 0.85645 0.43988 0.0
H914 H 0.7342 0.8735 0.42388 0.0
H915 H 0.71847 0.87385 0.39963 0.0
H916 H 0.6785 0.85812 0.30137 0.0
H917 H 0.66242 0.85856 0.27729 0.0
H918 H 0.66753 0.7991 0.26251 0.0
H919 H 0.68398 0.79907 0.28656 0.0
C920 C 0.14978 0.82345 0.30979 0.0
Eu921 Eu 0.1672 0.83967 0.33626 0.0
C922 C 0.15852 0.82118 0.29606 0.0
C923 C 0.15062 0.82668 0.2835 0.0
C924 C 0.15928 0.82565 0.27044 0.0
C925 C 0.17605 0.81903 0.26965 0.0
C926 C 0.18381 0.81331 0.28226 0.0
C927 C 0.17516 0.8144 0.29535 0.0
C928 C 0.18081 0.88248 0.3486 0.0
C929 C 0.22303 0.85919 0.33847 0.0
C930 C 0.21308 0.86963 0.39213 0.0
Eu931 Eu 0.1957 0.85302 0.3657 0.0
C932 C 0.20355 0.86984 0.40586 0.0
C933 C 0.18131 0.85251 0.40814 0.0
C934 C 0.17248 0.8528 0.42126 0.0
C935 C 0.18575 0.87042 0.43237 0.0
C936 C 0.2079 0.88794 0.42992 0.0
C937 C 0.21669 0.88764 0.41678 0.0
C938 C 0.18213 0.81021 0.35335 0.0
C939 C 0.13974 0.83309 0.36362 0.0
O940 O 0.15007 0.81054 0.31976 0.0
O941 O 0.15624 0.84458 0.31494 0.0
O942 O 0.16096 0.86947 0.34125 0.0
O943 O 0.19281 0.87284 0.34848 0.0
O944 O 0.20259 0.8465 0.33107 0.0
O945 O 0.22521 0.86704 0.35207 0.0
O946 O 0.21041 0.88183 0.38251 0.0
O947 O 0.20912 0.84946 0.38658 0.0
O948 O 0.20187 0.82313 0.36083 0.0
O949 O 0.17018 0.81989 0.35348 0.0
O950 O 0.16018 0.8452 0.37107 0.0
O951 O 0.13747 0.82602 0.34983 0.0
H952 H 0.13791 0.83209 0.28383 0.0
H953 H 0.15317 0.83052 0.26102 0.0
H954 H 0.1965 0.80787 0.282 0.0
H955 H 0.18158 0.81009 0.3049 0.0
H956 H 0.17083 0.83864 0.39982 0.0
H957 H 0.15544 0.83895 0.4228 0.0
H958 H 0.21842 0.90197 0.43815 0.0
H959 H 0.2338 0.9013 0.41516 0.0
C960 C 0.87678 0.69026 0.72621 0.0
Eu961 Eu 0.85972 0.68661 0.69982 0.0
C962 C 0.86829 0.67919 0.73945 0.0
C963 C 0.87695 0.69249 0.75275 0.0
C964 C 0.86853 0.68268 0.76543 0.0
C965 C 0.85125 0.65931 0.76507 0.0
C966 C 0.84269 0.64595 0.75169 0.0
C967 C 0.85112 0.65581 0.73898 0.0
C968 C 0.8468 0.71512 0.68837 0.0
C969 C 0.80423 0.64875 0.69645 0.0
C970 C 0.81588 0.66559 0.64354 0.0
Eu971 Eu 0.83289 0.66935 0.66997 0.0
C972 C 0.82417 0.67693 0.63036 0.0
C973 C 0.81449 0.6642 0.61696 0.0
C974 C 0.82241 0.67438 0.60429 0.0
C975 C 0.84023 0.69754 0.60477 0.0
C976 C 0.84998 0.71027 0.61827 0.0
C977 C 0.84199 0.70006 0.63096 0.0
C978 C 0.84593 0.64094 0.68147 0.0
C979 C 0.88837 0.70722 0.67339 0.0
O980 O 0.87816 0.67746 0.71567 0.0
O981 O 0.86853 0.70314 0.72177 0.0
O982 O 0.86616 0.7224 0.69615 0.0
O983 O 0.83469 0.69337 0.68766 0.0
O984 O 0.82438 0.6578 0.70421 0.0
O985 O 0.80255 0.65306 0.68293 0.0
O986 O 0.81404 0.67802 0.65411 0.0
O987 O 0.82468 0.65316 0.64795 0.0
O988 O 0.82651 0.63357 0.67374 0.0
O989 O 0.85796 0.66268 0.68208 0.0
O990 O 0.86821 0.6983 0.66565 0.0
O991 O 0.89003 0.70276 0.68687 0.0
H992 H 0.89007 0.71059 0.7533 0.0
H993 H 0.87525 0.69357 0.77551 0.0
H994 H 0.82956 0.62786 0.75103 0.0
H995 H 0.84414 0.64522 0.72881 0.0
H996 H 0.80085 0.64629 0.6163 0.0
H997 H 0.81476 0.664 0.5941 0.0
H998 H 0.86357 0.72819 0.61901 0.0
H999 H 0.84972 0.7102 0.64122 0.0
C1000 C 0.33884 0.19499 0.72578 0.0
Eu1001 Eu 0.34212 0.18385 0.69927 0.0
C1002 C 0.34978 0.19647 0.74018 0.0
C1003 C 0.33655 0.19124 0.75188 0.0
C1004 C 0.34619 0.19165 0.7656 0.0
C1005 C 0.3693 0.1973 0.76788 0.0
C1006 C 0.38263 0.20278 0.75613 0.0
C1007 C 0.37292 0.2023 0.74237 0.0
C1008 C 0.31328 0.14314 0.68365 0.0
C1009 C 0.3798 0.1664 0.69793 0.0
C1010 C 0.36105 0.16551 0.64406 0.0
Eu1011 Eu 0.35787 0.17676 0.67055 0.0
C1012 C 0.3502 0.16438 0.6297 0.0
C1013 C 0.36339 0.16956 0.61798 0.0
C1014 C 0.35377 0.16939 0.6043 0.0
C1015 C 0.33075 0.16401 0.60208 0.0
C1016 C 0.31748 0.15863 0.61386 0.0
C1017 C 0.32715 0.15887 0.62757 0.0
C1018 C 0.38665 0.21748 0.68624 0.0
C1019 C 0.32041 0.19445 0.67178 0.0
O1020 O 0.35149 0.21011 0.71714 0.0
O1021 O 0.32618 0.17415 0.71928 0.0
O1022 O 0.30636 0.15487 0.69126 0.0
O1023 O 0.3349 0.15277 0.68515 0.0
O1024 O 0.37151 0.17732 0.70558 0.0
O1025 O 0.37419 0.161 0.68394 0.0
O1026 O 0.34815 0.15047 0.65266 0.0
O1027 O 0.37408 0.18625 0.65062 0.0
O1028 O 0.39365 0.20582 0.67864 0.0
O1029 O 0.36503 0.20778 0.68464 0.0
O1030 O 0.32889 0.1837 0.66417 0.0
O1031 O 0.32555 0.19946 0.68583 0.0
H1032 H 0.31867 0.1867 0.75038 0.0
H1033 H 0.33558 0.18769 0.77446 0.0
H1034 H 0.40043 0.20703 0.75753 0.0
H1035 H 0.38341 0.2063 0.73344 0.0
H1036 H 0.3812 0.17385 0.61943 0.0
H1037 H 0.36433 0.17328 0.59541 0.0
H1038 H 0.29975 0.1546 0.6125 0.0
H1039 H 0.3167 0.15493 0.63651 0.0
C1040 C 0.81947 0.15523 0.64566 0.0
Eu1041 Eu 0.83588 0.17158 0.67227 0.0
C1042 C 0.82926 0.15593 0.6319 0.0
C1043 C 0.85099 0.17425 0.62962 0.0
C1044 C 0.86 0.17476 0.61646 0.0
C1045 C 0.84748 0.15692 0.60534 0.0
C1046 C 0.82586 0.13843 0.60779 0.0
C1047 C 0.81686 0.13796 0.62095 0.0
C1048 C 0.85058 0.21475 0.68439 0.0
C1049 C 0.89175 0.1906 0.6755 0.0
C1050 C 0.87917 0.1994 0.72882 0.0
Eu1051 Eu 0.86285 0.18377 0.70212 0.0
C1052 C 0.86923 0.19934 0.74242 0.0
C1053 C 0.8465 0.18259 0.74419 0.0
C1054 C 0.8373 0.18262 0.7572 0.0
C1055 C 0.85068 0.19938 0.7687 0.0
C1056 C 0.87336 0.21631 0.76678 0.0
C1057 C 0.88252 0.21629 0.75375 0.0
C1058 C 0.84813 0.14067 0.68976 0.0
C1059 C 0.80727 0.1653 0.69902 0.0
O1060 O 0.82299 0.14337 0.65516 0.0
O1061 O 0.82219 0.17482 0.65137 0.0
O1062 O 0.8311 0.20245 0.67654 0.0
O1063 O 0.86186 0.20433 0.68476 0.0
O1064 O 0.87168 0.17908 0.66756 0.0
O1065 O 0.89329 0.19733 0.68926 0.0
O1066 O 0.87707 0.21203 0.71928 0.0
O1067 O 0.87512 0.17929 0.7231 0.0
O1068 O 0.86777 0.15301 0.69744 0.0
O1069 O 0.83688 0.1511 0.68963 0.0
O1070 O 0.82748 0.17732 0.70674 0.0
O1071 O 0.80551 0.15793 0.68535 0.0
H1072 H 0.86097 0.18819 0.638 0.0
H1073 H 0.87684 0.18906 0.61501 0.0
H1074 H 0.81567 0.12453 0.59943 0.0
H1075 H 0.80011 0.12362 0.62254 0.0
H1076 H 0.83593 0.16937 0.73554 0.0
H1077 H 0.81985 0.16923 0.75834 0.0
H1078 H 0.884 0.22969 0.77532 0.0
H1079 H 0.90002 0.22948 0.75253 0.0
C1080 C 0.36438 0.87686 0.0574 0.0
C1081 C 0.35004 0.88234 0.06494 0.0
C1082 C 0.38417 0.89415 0.05204 0.0
C1083 C 0.38988 0.91759 0.05427 0.0
C1084 C 0.3757 0.92331 0.06205 0.0
C1085 C 0.35598 0.90564 0.0673 0.0
C1086 C 0.39889 0.8873 0.04389 0.0
C1087 C 0.3812 0.94808 0.06467 0.0
C1088 C 0.45176 0.96332 0.0503 0.0
C1089 C 0.45014 0.96903 0.03619 0.0
C1090 C 0.43226 0.94697 0.05641 0.0
C1091 C 0.41053 0.93599 0.04825 0.0
C1092 C 0.40867 0.94199 0.03412 0.0
C1093 C 0.42847 0.95842 0.02827 0.0
C1094 C 0.43504 0.94113 0.07151 0.0
C1095 C 0.38582 0.93069 0.02506 0.0
H1096 H 0.36016 0.85897 0.05572 0.0
H1097 H 0.34491 0.91004 0.07298 0.0
H1098 H 0.39965 0.8926 0.0328 0.0
H1099 H 0.41675 0.8964 0.04917 0.0
H1100 H 0.39227 0.86836 0.04324 0.0
H1101 H 0.3688 0.94974 0.07124 0.0
H1102 H 0.39875 0.95889 0.07026 0.0
H1103 H 0.38097 0.95517 0.05424 0.0
H1104 H 0.46836 0.9714 0.05657 0.0
H1105 H 0.42697 0.96266 0.01738 0.0
H1106 H 0.4301 0.92263 0.07134 0.0
H1107 H 0.42343 0.94374 0.07832 0.0
H1108 H 0.45296 0.95183 0.07661 0.0
H1109 H 0.37912 0.91181 0.02312 0.0
H1110 H 0.38709 0.9379 0.0145 0.0
H1111 H 0.37308 0.93297 0.03085 0.0
C1112 C 0.13228 0.46486 0.06968 0.0
C1113 C 0.15503 0.48194 0.06827 0.0
C1114 C 0.11366 0.4672 0.06436 0.0
C1115 C 0.11787 0.4871 0.05745 0.0
C1116 C 0.14079 0.50463 0.05628 0.0
C1117 C 0.15907 0.50184 0.0617 0.0
C1118 C 0.08947 0.44814 0.06581 0.0
C1119 C 0.14602 0.52617 0.04906 0.0
C1120 C 0.07254 0.48406 0.02981 0.0
C1121 C 0.06345 0.4957 0.03751 0.0
C1122 C 0.08989 0.48072 0.03627 0.0
C1123 C 0.09837 0.48917 0.05083 0.0
C1124 C 0.08885 0.50037 0.0588 0.0
C1125 C 0.07154 0.50354 0.05204 0.0
C1126 C 0.09956 0.46865 0.02741 0.0
C1127 C 0.09733 0.50953 0.07436 0.0
H1128 H 0.129 0.44932 0.07461 0.0
H1129 H 0.17659 0.5153 0.06079 0.0
H1130 H 0.07974 0.45534 0.07106 0.0
H1131 H 0.08038 0.44011 0.05499 0.0
H1132 H 0.08912 0.43442 0.07218 0.0
H1133 H 0.16477 0.53855 0.04949 0.0
H1134 H 0.13879 0.52138 0.03762 0.0
H1135 H 0.13774 0.53503 0.05427 0.0
H1136 H 0.06642 0.47789 0.01859 0.0
H1137 H 0.06466 0.51256 0.05811 0.0
H1138 H 0.0984 0.45379 0.03282 0.0
H1139 H 0.11802 0.48075 0.02643 0.0
H1140 H 0.09042 0.46223 0.01642 0.0
H1141 H 0.09674 0.49569 0.08068 0.0
H1142 H 0.08703 0.51633 0.07933 0.0
H1143 H 0.11552 0.52365 0.07516 0.0
C1144 C 0.54347 0.6565 0.0735 0.0
C1145 C 0.5499 0.67693 0.06686 0.0
C1146 C 0.53812 0.63583 0.06545 0.0
C1147 C 0.5394 0.63559 0.0504 0.0
C1148 C 0.54624 0.6562 0.04365 0.0
C1149 C 0.55132 0.67658 0.05194 0.0
C1150 C 0.53088 0.6142 0.07304 0.0
C1151 C 0.54791 0.65664 0.02763 0.0
C1152 C 0.54346 0.58641 0.03118 0.0
C1153 C 0.52071 0.5718 0.02527 0.0
C1154 C 0.54985 0.60731 0.03933 0.0
C1155 C 0.53303 0.61363 0.04166 0.0
C1156 C 0.51002 0.59891 0.03568 0.0
C1157 C 0.50417 0.57821 0.02749 0.0
C1158 C 0.57456 0.62258 0.04548 0.0
C1159 C 0.49155 0.60493 0.03803 0.0
H1160 H 0.54272 0.65667 0.08504 0.0
H1161 H 0.55599 0.69217 0.04668 0.0
H1162 H 0.51329 0.60062 0.06864 0.0
H1163 H 0.54251 0.60726 0.0711 0.0
H1164 H 0.53102 0.61734 0.08483 0.0
H1165 H 0.55434 0.67426 0.02412 0.0
H1166 H 0.55958 0.65033 0.02445 0.0
H1167 H 0.53075 0.64483 0.02178 0.0
H1168 H 0.55629 0.5815 0.0294 0.0
H1169 H 0.48653 0.56687 0.02298 0.0
H1170 H 0.57556 0.6249 0.05738 0.0
H1171 H 0.58161 0.64 0.04157 0.0
H1172 H 0.58558 0.61532 0.04251 0.0
H1173 H 0.49007 0.60678 0.04971 0.0
H1174 H 0.47449 0.59161 0.03264 0.0
H1175 H 0.49624 0.6218 0.03387 0.0
C1176 C 0.89792 0.36999 0.96057 0.0
C1177 C 0.88715 0.34882 0.96669 0.0
C1178 C 0.91339 0.3907 0.96895 0.0
C1179 C 0.91822 0.39031 0.98384 0.0
C1180 C 0.90743 0.36902 0.9901 0.0
C1181 C 0.89201 0.34855 0.98146 0.0
C1182 C 0.92444 0.41305 0.96187 0.0
C1183 C 0.91219 0.36788 1.00592 0.0
C1184 C 0.97304 0.44121 1.00296 0.0
C1185 C 0.96462 0.45448 1.00945 0.0
C1186 C 0.95812 0.42019 0.99467 0.0
C1187 C 0.93424 0.41226 0.99289 0.0
C1188 C 0.92566 0.42553 0.99956 0.0
C1189 C 0.94096 0.44647 1.00777 0.0
C1190 C 0.96795 0.40658 0.98772 0.0
C1191 C 0.90035 0.41774 0.9979 0.0
H1192 H 0.89402 0.37043 0.94922 0.0
H1193 H 0.884 0.33225 0.98624 0.0
H1194 H 0.91971 0.4253 0.96688 0.0
H1195 H 0.94344 0.42136 0.96355 0.0
H1196 H 0.91918 0.41036 0.95013 0.0
H1197 H 0.90257 0.34996 1.00911 0.0
H1198 H 0.93084 0.37474 1.00866 0.0
H1199 H 0.90739 0.37892 1.0124 0.0
H1200 H 0.99131 0.4473 1.00433 0.0
H1201 H 0.93439 0.4567 1.01276 0.0
H1202 H 0.96426 0.40482 0.97586 0.0
H1203 H 0.95964 0.38885 0.99125 0.0
H1204 H 0.98683 0.41489 0.99039 0.0
H1205 H 0.89443 0.41628 0.98636 0.0
H1206 H 0.8964 0.42985 1.00397 0.0
H1207 H 0.89031 0.40033 1.00172 0.0
C1208 C 0.66989 0.56301 0.96622 0.0
C1209 C 0.67727 0.54692 0.96795 0.0
C1210 C 0.65019 0.56041 0.97222 0.0
C1211 C 0.63753 0.54126 0.98013 0.0
C1212 C 0.64477 0.52487 0.98182 0.0
C1213 C 0.66453 0.52791 0.97574 0.0
C1214 C 0.64297 0.57821 0.97013 0.0
C1215 C 0.63174 0.50421 0.99018 0.0
C1216 C 0.59928 0.54438 1.00746 0.0
C1217 C 0.57734 0.53128 0.99996 0.0
C1218 C 0.61904 0.54808 1.00105 0.0
C1219 C 0.61683 0.53842 0.9868 0.0
C1220 C 0.59478 0.52548 0.97909 0.0
C1221 C 0.57534 0.5221 0.98575 0.0
C1222 C 0.64226 0.56201 1.00962 0.0
C1223 C 0.59167 0.51491 0.96388 0.0
H1224 H 0.67945 0.57758 0.96007 0.0
H1225 H 0.67027 0.51558 0.97732 0.0
H1226 H 0.62525 0.56973 0.96468 0.0
H1227 H 0.64278 0.58631 0.98073 0.0
H1228 H 0.65461 0.59204 0.96363 0.0
H1229 H 0.63937 0.49282 0.99029 0.0
H1230 H 0.63155 0.51011 1.00146 0.0
H1231 H 0.61359 0.49384 0.98545 0.0
H1232 H 0.60106 0.55158 0.01842 0.0
H1233 H 0.5585 0.51198 0.97982 0.0
H1234 H 0.65394 0.57669 1.00369 0.0
H1235 H 0.65016 0.55104 1.01106 0.0
H1236 H 0.64114 0.56898 0.0204 0.0
H1237 H 0.60148 0.52865 0.95681 0.0
H1238 H 0.57335 0.50521 0.95941 0.0
H1239 H 0.59858 0.50292 0.96355 0.0
C1240 C 0.49254 0.13717 0.97551 0.0
C1241 C 0.48469 0.14922 0.98404 0.0
C1242 C 0.49648 0.12018 0.98106 0.0
C1243 C 0.49256 0.11518 0.99549 0.0
C1244 C 0.48412 0.12686 1.00403 0.0
C1245 C 0.48024 0.14367 0.9982 0.0
C1246 C 0.50543 0.10803 0.97161 0.0
C1247 C 0.47966 0.12198 0.01945 0.0
C1248 C 0.48716 0.05976 1.00832 0.0
C1249 C 0.50917 0.06782 0.01526 0.0
C1250 C 0.48159 0.07487 1.00158 0.0
C1251 C 0.49839 0.09861 1.00194 0.0
C1252 C 0.52067 0.10677 1.00888 0.0
C1253 C 0.52579 0.09126 0.01544 0.0
C1254 C 0.45769 0.0655 0.99422 0.0
C1255 C 0.53907 0.13194 1.0095 0.0
H1256 H 0.49623 0.14147 0.96461 0.0
H1257 H 0.47375 0.15256 1.00477 0.0
H1258 H 0.523 0.11263 0.97601 0.0
H1259 H 0.49443 0.08898 0.97151 0.0
H1260 H 0.50608 0.11272 0.96036 0.0
H1261 H 0.47224 0.13189 0.02447 0.0
H1262 H 0.46767 0.10325 0.02002 0.0
H1263 H 0.49596 0.12652 0.02589 0.0
H1264 H 0.47423 0.04167 1.00827 0.0
H1265 H 0.54286 0.09753 0.02075 0.0
H1266 H 0.45861 0.06967 0.98287 0.0
H1267 H 0.44906 0.07386 0.99958 0.0
H1268 H 0.44693 0.04646 0.9944 0.0
H1269 H 0.54195 0.13742 0.99846 0.0
H1270 H 0.55567 0.13539 0.01504 0.0
H1271 H 0.53338 0.14284 0.01527 0.0
C1272 C 0.66328 0.15118 0.97918 0.0
C1273 C 0.67774 0.1455 0.97195 0.0
C1274 C 0.64314 0.13402 0.98428 0.0
C1275 C 0.63722 0.11051 0.98212 0.0
C1276 C 0.65151 0.10459 0.97462 0.0
C1277 C 0.67158 0.12213 0.96962 0.0
C1278 C 0.62832 0.14107 0.99214 0.0
C1279 C 0.6458 0.07974 0.97209 0.0
C1280 C 0.59804 0.07003 1.00799 0.0
C1281 C 0.57648 0.05945 0.99993 0.0
C1282 C 0.61797 0.08635 1.00223 0.0
C1283 C 0.61638 0.09227 0.98804 0.0
C1284 C 0.59476 0.08131 0.97974 0.0
C1285 C 0.57511 0.06508 0.98578 0.0
C1286 C 0.64069 0.09762 1.01143 0.0
C1287 C 0.59228 0.08706 0.96457 0.0
H1288 H 0.66769 0.16914 0.98082 0.0
H1289 H 0.68274 0.11758 0.96418 0.0
H1290 H 0.61055 0.132 0.98672 0.0
H1291 H 0.62729 0.1359 1.00327 0.0
H1292 H 0.63505 0.16002 0.99267 0.0
H1293 H 0.65822 0.07791 0.96563 0.0
H1294 H 0.6458 0.07266 0.98256 0.0
H1295 H 0.62829 0.06903 0.96642 0.0
H1296 H 0.59935 0.06585 0.01892 0.0
H1297 H 0.5586 0.05699 0.97941 0.0
H1298 H 0.6475 0.11653 1.01327 0.0
H1299 H 0.65348 0.09516 1.00581 0.0
H1300 H 0.6392 0.09052 0.02204 0.0
H1301 H 0.59692 0.10548 0.96469 0.0
H1302 H 0.57451 0.07613 0.95928 0.0
H1303 H 0.60426 0.08474 0.95797 0.0
C1304 C 0.91087 0.57126 0.95986 0.0
C1305 C 0.88755 0.55408 0.9582 0.0
C1306 C 0.92741 0.56768 0.9673 0.0
C1307 C 0.92049 0.54643 0.97327 0.0
C1308 C 0.89696 0.5291 0.97175 0.0
C1309 C 0.88079 0.53312 0.96423 0.0
C1310 C 0.95234 0.58653 0.96862 0.0
C1311 C 0.88889 0.50625 0.97801 0.0
C1312 C 0.96439 0.52735 0.98065 0.0
C1313 C 0.97016 0.53309 0.99555 0.0
C1314 C 0.94848 0.53182 0.97325 0.0
C1315 C 0.93789 0.54217 0.98093 0.0
C1316 C 0.94372 0.54818 0.99594 0.0
C1317 C 0.95982 0.54362 1.00307 0.0
C1318 C 0.94285 0.52526 0.95722 0.0
C1319 C 0.93277 0.5592 1.00451 0.0
H1320 H 0.91627 0.58737 0.95507 0.0
H1321 H 0.86278 0.51987 0.96314 0.0
H1322 H 0.95918 0.5915 0.98012 0.0
H1323 H 0.96268 0.58007 0.96338 0.0
H1324 H 0.95485 0.60223 0.96361 0.0
H1325 H 0.86995 0.49471 0.97608 0.0
H1326 H 0.8973 0.4972 0.97323 0.0
H1327 H 0.8939 0.50923 0.98978 0.0
H1328 H 0.97222 0.51919 0.97471 0.0
H1329 H 0.96408 0.54808 0.01458 0.0
H1330 H 0.94618 0.54066 0.95157 0.0
H1331 H 0.92432 0.51231 0.95479 0.0
H1332 H 0.95305 0.51792 0.95277 0.0
H1333 H 0.93602 0.57552 1.00009 0.0
H1334 H 0.93938 0.5631 0.01608 0.0
H1335 H 0.91387 0.5475 1.00361 0.0
C1336 C 0.48936 0.3736 0.96391 0.0
C1337 C 0.48123 0.35247 0.97 0.0
C1338 C 0.49459 0.39395 0.9723 0.0
C1339 C 0.49171 0.39319 0.98717 0.0
C1340 C 0.48344 0.37195 0.99338 0.0
C1341 C 0.47828 0.35186 0.98472 0.0
C1342 C 0.50337 0.4163 0.96529 0.0
C1343 C 0.4801 0.37046 1.00919 0.0
C1344 C 0.5258 0.4491 1.01162 0.0
C1345 C 0.50928 0.45566 1.01345 0.0
C1346 C 0.5203 0.42879 1.00311 0.0
C1347 C 0.49772 0.41472 0.99628 0.0
C1348 C 0.48092 0.42122 0.99818 0.0
C1349 C 0.4869 0.4416 1.0068 0.0
C1350 C 0.53869 0.42246 1.00134 0.0
C1351 C 0.45669 0.40673 0.99104 0.0
H1352 H 0.49198 0.37431 0.95258 0.0
H1353 H 0.47168 0.33557 0.98947 0.0
H1354 H 0.49211 0.42374 0.96701 0.0
H1355 H 0.52083 0.42918 0.97032 0.0
H1356 H 0.50416 0.41387 0.95354 0.0
H1357 H 0.47337 0.3526 1.01234 0.0
H1358 H 0.49669 0.38208 0.01573 0.0
H1359 H 0.46795 0.37641 1.01192 0.0
H1360 H 0.54315 0.46 0.01673 0.0
H1361 H 0.47405 0.44656 1.00832 0.0
H1362 H 0.54139 0.42144 0.9898 0.0
H1363 H 0.53313 0.40513 1.00507 0.0
H1364 H 0.55537 0.43518 1.00744 0.0
H1365 H 0.45694 0.40521 0.97919 0.0
H1366 H 0.44567 0.41417 0.99364 0.0
H1367 H 0.44877 0.38897 0.99449 0.0
C1368 C 0.13258 0.65578 0.07513 0.0
C1369 C 0.1441 0.6772 0.06934 0.0
C1370 C 0.11739 0.6354 0.06637 0.0
C1371 C 0.11364 0.63637 0.05143 0.0
C1372 C 0.12519 0.6579 0.04551 0.0
C1373 C 0.14028 0.67803 0.05452 0.0
C1374 C 0.10547 0.61278 0.0731 0.0
C1375 C 0.12158 0.65966 0.02964 0.0
C1376 C 0.0915 0.58088 0.02689 0.0
C1377 C 0.06797 0.5733 0.02459 0.0
C1378 C 0.10656 0.60145 0.03552 0.0
C1379 C 0.09789 0.61478 0.04198 0.0
C1380 C 0.07415 0.60729 0.03957 0.0
C1381 C 0.05947 0.58664 0.03087 0.0
C1382 C 0.13173 0.60877 0.03785 0.0
C1383 C 0.06422 0.62098 0.04628 0.0
H1384 H 0.13566 0.65489 0.08652 0.0
H1385 H 0.14886 0.69452 0.04999 0.0
H1386 H 0.08656 0.60476 0.07093 0.0
H1387 H 0.11026 0.60048 0.06822 0.0
H1388 H 0.10995 0.61501 0.08492 0.0
H1389 H 0.13174 0.6777 0.02673 0.0
H1390 H 0.12654 0.64862 0.0233 0.0
H1391 H 0.10312 0.65317 0.02643 0.0
H1392 H 0.09812 0.57058 0.02207 0.0
H1393 H 0.04131 0.5809 0.02902 0.0
H1394 H 0.13682 0.60973 0.04948 0.0
H1395 H 0.14235 0.62631 0.03433 0.0
H1396 H 0.13579 0.59665 0.0319 0.0
H1397 H 0.06709 0.62224 0.05818 0.0
H1398 H 0.04548 0.61302 0.04313 0.0
H1399 H 0.07309 0.63888 0.04304 0.0
C1400 C 0.36304 0.48714 0.06857 0.0
C1401 C 0.35465 0.46913 0.07761 0.0
C1402 C 0.38191 0.49201 0.0608 0.0
C1403 C 0.39262 0.47846 0.06198 0.0
C1404 C 0.38409 0.46008 0.07093 0.0
C1405 C 0.36529 0.45569 0.07866 0.0
C1406 C 0.39057 0.51185 0.05144 0.0
C1407 C 0.39503 0.44523 0.07249 0.0
C1408 C 0.43017 0.47907 0.0329 0.0
C1409 C 0.45232 0.49445 0.03955 0.0
C1410 C 0.41058 0.47365 0.04007 0.0
C1411 C 0.41318 0.48396 0.0542 0.0
C1412 C 0.43548 0.49957 0.06093 0.0
C1413 C 0.45472 0.50458 0.05356 0.0
C1414 C 0.38708 0.45682 0.03257 0.0
C1415 C 0.43908 0.511 0.07597 0.0
H1416 H 0.35476 0.49742 0.06751 0.0
H1417 H 0.35921 0.44196 0.08576 0.0
H1418 H 0.40868 0.52487 0.05522 0.0
H1419 H 0.39031 0.50554 0.04019 0.0
H1420 H 0.38015 0.52052 0.05151 0.0
H1421 H 0.38575 0.431 0.07939 0.0
H1422 H 0.3954 0.43759 0.06177 0.0
H1423 H 0.4131 0.45604 0.07728 0.0
H1424 H 0.42812 0.47112 0.02211 0.0
H1425 H 0.47171 0.51662 0.0588 0.0
H1426 H 0.37652 0.46528 0.0317 0.0
H1427 H 0.37806 0.44187 0.03898 0.0
H1428 H 0.38796 0.45025 0.0216 0.0
H1429 H 0.42912 0.5201 0.07662 0.0
H1430 H 0.45747 0.52366 0.07936 0.0
H1431 H 0.4327 0.49767 0.08373 0.0
C1432 C 0.53823 0.89539 0.06193 0.0
C1433 C 0.54396 0.88165 0.05319 0.0
C1434 C 0.53365 0.91181 0.05614 0.0
C1435 C 0.53496 0.91467 0.04127 0.0
C1436 C 0.5412 0.90124 0.03246 0.0
C1437 C 0.54552 0.88484 0.0385 0.0
C1438 C 0.527 0.92581 0.06587 0.0
C1439 C 0.54285 0.90383 0.01656 0.0
C1440 C 0.5007 0.93828 0.02224 0.0
C1441 C 0.51767 0.96124 0.02115 0.0
C1442 C 0.50602 0.92309 0.02904 0.0
C1443 C 0.52892 0.93103 0.03476 0.0
C1444 C 0.5461 0.9543 0.03381 0.0
C1445 C 0.54024 0.96917 0.02702 0.0
C1446 C 0.48717 0.89848 0.02998 0.0
C1447 C 0.5707 0.96338 0.03973 0.0
H1448 H 0.53733 0.89331 0.07333 0.0
H1449 H 0.54957 0.87411 0.03161 0.0
H1450 H 0.53872 0.94458 0.06523 0.0
H1451 H 0.50938 0.92202 0.06227 0.0
H1452 H 0.5275 0.92208 0.07728 0.0
H1453 H 0.54904 0.89293 1.01134 0.0
H1454 H 0.52573 0.89891 1.01114 0.0
H1455 H 0.55471 0.92216 0.01481 0.0
H1456 H 0.48319 0.93218 0.01781 0.0
H1457 H 0.55339 0.98692 0.02613 0.0
H1458 H 0.48612 0.89442 0.04135 0.0
H1459 H 0.49114 0.88632 0.02402 0.0
H1460 H 0.47009 0.8953 0.02548 0.0
H1461 H 0.57152 0.96061 0.0513 0.0
H1462 H 0.58182 0.98211 0.03856 0.0
H1463 H 0.57779 0.95369 0.03406 0.0
C1464 C 0.01937 0.23738 0.3997 0.0
C1465 C 1.01391 0.21416 0.39829 0.0
C1466 C 0.03923 0.25477 0.39442 0.0
C1467 C 0.05404 0.24883 0.38757 0.0
C1468 C 0.04877 0.22547 0.38627 0.0
C1469 C 0.02881 0.20846 0.39163 0.0
C1470 C 0.04424 0.27946 0.39601 0.0
C1471 C 0.06417 0.21842 0.37914 0.0
C1472 C 0.09402 0.28823 0.36156 0.0
C1473 C 0.11525 0.29958 0.37 0.0
C1474 C 0.0739 0.27198 0.36721 0.0
C1475 C 0.075 0.26695 0.38167 0.0
C1476 C 0.09628 0.27867 0.39034 0.0
C1477 C 0.11611 0.2948 0.38441 0.0
C1478 C 0.05155 0.25986 0.35762 0.0
C1479 C 0.09824 0.27388 0.40581 0.0
H1480 H 1.00785 0.24192 0.40468 0.0
H1481 H 0.02494 0.19064 0.39069 0.0
H1482 H 0.06145 0.2908 0.40194 0.0
H1483 H 0.04462 0.28579 0.38524 0.0
H1484 H 0.03125 0.28131 0.40182 0.0
H1485 H 0.05774 0.19956 0.37906 0.0
H1486 H 0.06555 0.22302 0.36787 0.0
H1487 H 0.08176 0.22796 0.38482 0.0
H1488 H 0.09312 0.29176 0.35043 0.0
H1489 H 0.13236 0.3035 0.39108 0.0
H1490 H 0.03828 0.26226 0.36264 0.0
H1491 H 0.04516 0.24099 0.3563 0.0
H1492 H 0.05338 0.26632 0.34679 0.0
H1493 H 0.08594 0.27651 0.41188 0.0
H1494 H 0.11584 0.28517 0.41127 0.0
H1495 H 0.09368 0.25556 0.40628 0.0
C1496 C 0.82725 0.83444 0.39458 0.0
C1497 C 0.82315 0.81479 0.40147 0.0
C1498 C 0.80902 0.83735 0.3892 0.0
C1499 C 0.78609 0.82018 0.39072 0.0
C1500 C 0.78183 0.80049 0.39788 0.0
C1501 C 0.80039 0.79802 0.40316 0.0
C1502 C 0.8143 0.85857 0.38159 0.0
C1503 C 0.75763 0.78186 0.39977 0.0
C1504 C 0.74007 0.83714 0.38559 0.0
C1505 C 0.73138 0.82875 0.3712 0.0
C1506 C 0.75757 0.83411 0.3922 0.0
C1507 C 0.76659 0.82239 0.38423 0.0
C1508 C 0.75751 0.8134 0.36981 0.0
C1509 C 0.74004 0.81669 0.36348 0.0
C1510 C 0.76677 0.84391 0.4076 0.0
C1511 C 0.76659 0.80074 0.36096 0.0
H1512 H 0.84474 0.84734 0.39307 0.0
H1513 H 0.79709 0.78296 0.40866 0.0
H1514 H 0.80689 0.85335 0.3702 0.0
H1515 H 0.80624 0.8678 0.38663 0.0
H1516 H 0.83307 0.87078 0.38184 0.0
H1517 H 0.75726 0.76808 0.40608 0.0
H1518 H 0.74851 0.78952 0.4053 0.0
H1519 H 0.74794 0.77383 0.38909 0.0
H1520 H 0.73352 0.84648 0.39166 0.0
H1521 H 0.73344 0.81006 0.35238 0.0
H1522 H 0.7851 0.85761 0.40805 0.0
H1523 H 0.76598 0.83022 0.41415 0.0
H1524 H 0.75707 0.85145 0.41255 0.0
H1525 H 0.78503 0.81251 0.35973 0.0
H1526 H 0.75711 0.79407 0.35007 0.0
H1527 H 0.76534 0.78597 0.36652 0.0
C1528 C 0.21781 1.00846 0.385 0.0
C1529 C 0.21691 1.0086 0.39996 0.0
C1530 C 0.21261 0.98823 0.37649 0.0
C1531 C 0.20614 0.96754 0.38306 0.0
C1532 C 0.20533 0.96754 0.39814 0.0
C1533 C 0.21081 0.98808 0.40641 0.0
C1534 C 0.2138 0.98893 0.36044 0.0
C1535 C 0.19847 0.94579 0.40554 0.0
C1536 C 0.17081 0.91054 0.35977 0.0
C1537 C 0.18743 0.90441 0.35714 0.0
C1538 C 0.17666 0.931 0.36825 0.0
C1539 C 0.19973 0.94576 0.37409 0.0
C1540 C 0.21662 0.9397 0.37136 0.0
C1541 C 0.21024 0.91904 0.36293 0.0
C1542 C 0.15811 0.93672 0.37105 0.0
C1543 C 0.24142 0.95504 0.37733 0.0
H1544 H 0.2222 0.02411 0.37988 0.0
H1545 H 0.21046 0.98808 0.41798 0.0
H1546 H 0.22549 0.98283 0.35694 0.0
H1547 H 0.19654 0.97708 0.35472 0.0
H1548 H 0.21995 1.00659 0.35706 0.0
H1549 H 0.19886 0.94873 0.41738 0.0
H1550 H 0.18085 0.93215 0.40123 0.0
H1551 H 0.21016 0.93905 0.40331 0.0
H1552 H 0.15313 0.89917 0.35536 0.0
H1553 H 0.22312 0.91433 0.36085 0.0
H1554 H 0.16249 0.95362 0.36706 0.0
H1555 H 0.15695 0.93835 0.3828 0.0
H1556 H 0.14098 0.92335 0.36578 0.0
H1557 H 0.24823 0.97254 0.37358 0.0
H1558 H 0.25248 0.94798 0.37406 0.0
H1559 H 0.24268 0.95711 0.38925 0.0
C1560 C 0.55916 0.68136 0.31473 0.0
C1561 C 0.5543 0.68116 0.2999 0.0
C1562 C 0.57506 0.70192 0.3231 0.0
C1563 C 0.58634 0.72285 0.31651 0.0
C1564 C 0.58175 0.72275 0.30153 0.0
C1565 C 0.56585 0.70192 0.29341 0.0
C1566 C 0.57951 0.70132 0.33904 0.0
C1567 C 0.59344 0.7447 0.29409 0.0
C1568 C 0.60871 0.77937 0.33993 0.0
C1569 C 0.63228 0.78713 0.34212 0.0
C1570 C 0.59361 0.75851 0.33161 0.0
C1571 C 0.60228 0.74502 0.32537 0.0
C1572 C 0.6261 0.75277 0.32758 0.0
C1573 C 0.64084 0.77377 0.33594 0.0
C1574 C 0.56837 0.75096 0.32943 0.0
C1575 C 0.63599 0.73886 0.32113 0.0
H1576 H 0.55017 0.66549 0.31988 0.0
H1577 H 0.56255 0.70189 0.28193 0.0
H1578 H 0.59817 0.70864 0.34206 0.0
H1579 H 0.57415 0.71221 0.34516 0.0
H1580 H 0.57012 0.6835 0.34241 0.0
H1581 H 0.58842 0.74159 0.28231 0.0
H1582 H 0.58897 0.75743 0.29867 0.0
H1583 H 0.61238 0.75267 0.29597 0.0
H1584 H 0.60205 0.78971 0.34466 0.0
H1585 H 0.65905 0.7797 0.33768 0.0
H1586 H 0.55801 0.7338 0.33351 0.0
H1587 H 0.56287 0.74906 0.31778 0.0
H1588 H 0.56439 0.76344 0.33501 0.0
H1589 H 0.62763 0.72136 0.32499 0.0
H1590 H 0.65486 0.74725 0.32391 0.0
H1591 H 0.63242 0.73655 0.30925 0.0
C1592 C 0.33673 0.89531 0.29796 0.0
C1593 C 0.34377 0.87893 0.29953 0.0
C1594 C 0.31699 0.89279 0.30387 0.0
C1595 C 0.30395 0.87342 0.31154 0.0
C1596 C 0.31083 0.85672 0.31305 0.0
C1597 C 0.33063 0.85969 0.30704 0.0
C1598 C 0.31016 0.91091 0.30198 0.0
C1599 C 0.29741 0.83583 0.32115 0.0
C1600 C 0.2658 0.87656 0.33894 0.0
C1601 C 0.24388 0.86387 0.33137 0.0
C1602 C 0.28551 0.8801 0.33254 0.0
C1603 C 0.28329 0.87074 0.31821 0.0
C1604 C 0.26127 0.85823 0.31042 0.0
C1605 C 0.24186 0.85498 0.31708 0.0
C1606 C 0.30869 0.89356 0.3412 0.0
C1607 C 0.25815 0.84799 0.29512 0.0
H1608 H 0.34659 0.91007 0.29202 0.0
H1609 H 0.3361 0.84712 0.3085 0.0
H1610 H 0.29247 0.90276 0.29651 0.0
H1611 H 0.31005 0.91888 0.31265 0.0
H1612 H 0.32198 0.9248 0.29559 0.0
H1613 H 0.30474 0.82418 0.32109 0.0
H1614 H 0.29721 0.84148 0.33248 0.0
H1615 H 0.27928 0.82583 0.31634 0.0
H1616 H 0.26759 0.88353 0.34997 0.0
H1617 H 0.22505 0.84518 0.31109 0.0
H1618 H 0.32061 0.90833 0.33543 0.0
H1619 H 0.31631 0.8823 0.3425 0.0
H1620 H 0.3076 0.90033 0.35205 0.0
H1621 H 0.26835 0.86184 0.28821 0.0
H1622 H 0.23988 0.83878 0.29055 0.0
H1623 H 0.26461 0.83562 0.29467 0.0
C1624 C 0.15871 0.4673 0.30884 0.0
C1625 C 0.14773 0.47726 0.3162 0.0
C1626 C 0.16274 0.45069 0.31487 0.0
C1627 C 0.15573 0.44396 0.32863 0.0
C1628 C 0.14416 0.45355 0.33597 0.0
C1629 C 0.14028 0.47005 0.32966 0.0
C1630 C 0.17494 0.4407 0.30665 0.0
C1631 C 0.13652 0.44692 0.3507 0.0
C1632 C 0.15194 0.38901 0.34116 0.0
C1633 C 0.17309 0.39787 0.34945 0.0
C1634 C 0.14614 0.40375 0.33412 0.0
C1635 C 0.16166 0.42793 0.33573 0.0
C1636 C 0.18291 0.43695 0.34427 0.0
C1637 C 0.18842 0.42179 0.35095 0.0
C1638 C 0.12346 0.39345 0.32497 0.0
C1639 C 0.19983 0.46264 0.34638 0.0
H1640 H 0.16421 0.47254 0.29834 0.0
H1641 H 0.13201 0.47785 0.33549 0.0
H1642 H 0.19173 0.44577 0.31264 0.0
H1643 H 0.16468 0.42151 0.3056 0.0
H1644 H 0.17806 0.4467 0.29572 0.0
H1645 H 0.1267 0.45504 0.35465 0.0
H1646 H 0.12562 0.42786 0.35049 0.0
H1647 H 0.15177 0.45234 0.3585 0.0
H1648 H 0.13991 0.37057 0.34017 0.0
H1649 H 0.20477 0.42872 0.35738 0.0
H1650 H 0.1264 0.39861 0.31387 0.0
H1651 H 0.11279 0.40025 0.32935 0.0
H1652 H 0.11365 0.37425 0.32446 0.0
H1653 H 0.20511 0.46936 0.33583 0.0
H1654 H 0.21548 0.46687 0.3535 0.0
H1655 H 0.19159 0.47188 0.35115 0.0
C1656 C 0.3385 0.4516 0.30539 0.0
C1657 C 0.34494 0.47509 0.30709 0.0
C1658 C 0.3187 0.4347 0.31099 0.0
C1659 C 0.305 0.44143 0.31851 0.0
C1660 C 0.31143 0.46511 0.32029 0.0
C1661 C 0.33128 0.48162 0.31457 0.0
C1662 C 0.31237 0.40963 0.3088 0.0
C1663 C 0.29735 0.47302 0.32828 0.0
C1664 C 0.24242 0.39737 0.32194 0.0
C1665 C 0.24338 0.39141 0.33604 0.0
C1666 C 0.26235 0.41331 0.31604 0.0
C1667 C 0.28384 0.42374 0.32445 0.0
C1668 C 0.285 0.41769 0.33864 0.0
C1669 C 0.26478 0.40159 0.34426 0.0
C1670 C 0.26034 0.41922 0.30085 0.0
C1671 C 0.30758 0.42848 0.34797 0.0
H1672 H 0.34879 0.44636 0.2995 0.0
H1673 H 0.3363 0.49975 0.31614 0.0
H1674 H 0.31143 0.40255 0.31936 0.0
H1675 H 0.2951 0.3993 0.30276 0.0
H1676 H 0.32491 0.40725 0.30282 0.0
H1677 H 0.30469 0.49207 0.32875 0.0
H1678 H 0.27953 0.46446 0.32297 0.0
H1679 H 0.29629 0.46792 0.33943 0.0
H1680 H 0.22602 0.38976 0.31549 0.0
H1681 H 0.26576 0.39717 0.35516 0.0
H1682 H 0.27166 0.41579 0.29425 0.0
H1683 H 0.26615 0.43792 0.30089 0.0
H1684 H 0.24245 0.40914 0.2956 0.0
H1685 H 0.32009 0.42532 0.34252 0.0
H1686 H 0.30568 0.42156 0.35865 0.0
H1687 H 0.31499 0.4475 0.34962 0.0
C1688 C 0.57782 0.90332 0.29377 0.0
C1689 C 0.55457 0.88596 0.29187 0.0
C1690 C 0.59435 0.89984 0.30132 0.0
C1691 C 0.5875 0.87849 0.30715 0.0
C1692 C 0.56403 0.86099 0.3054 0.0
C1693 C 0.54787 0.86491 0.29777 0.0
C1694 C 0.61922 0.91888 0.30287 0.0
C1695 C 0.55602 0.83803 0.31151 0.0
C1696 C 0.63179 0.85991 0.31458 0.0
C1697 C 0.63732 0.86542 0.32951 0.0
C1698 C 0.61581 0.86428 0.30716 0.0
C1699 C 0.60492 0.87429 0.31485 0.0
C1700 C 0.6105 0.88003 0.3299 0.0
C1701 C 0.62666 0.87557 0.33704 0.0
C1702 C 0.61045 0.85801 0.29109 0.0
C1703 C 0.59921 0.89067 0.33848 0.0
H1704 H 0.5832 0.9195 0.28907 0.0
H1705 H 0.52991 0.85152 0.29649 0.0
H1706 H 0.62583 0.92362 0.31441 0.0
H1707 H 0.62979 0.9127 0.29763 0.0
H1708 H 0.62167 0.93465 0.29799 0.0
H1709 H 0.53711 0.82639 0.30945 0.0
H1710 H 0.56462 0.82919 0.30671 0.0
H1711 H 0.56086 0.84082 0.32329 0.0
H1712 H 0.63984 0.85202 0.30862 0.0
H1713 H 0.63074 0.87985 0.34857 0.0
H1714 H 0.61397 0.87355 0.28555 0.0
H1715 H 0.59194 0.84513 0.28851 0.0
H1716 H 0.62069 0.85069 0.28668 0.0
H1717 H 0.6024 0.90705 0.33418 0.0
H1718 H 0.60561 0.89436 0.35008 0.0
H1719 H 0.58033 0.87883 0.33742 0.0
C1720 C 0.14568 0.68457 0.31706 0.0
C1721 C 0.14662 0.68419 0.3021 0.0
C1722 C 0.15093 0.70494 0.32542 0.0
C1723 C 0.15748 0.72552 0.31871 0.0
C1724 C 0.1584 0.7253 0.30362 0.0
C1725 C 0.15288 0.70463 0.2955 0.0
C1726 C 0.14969 0.70449 0.34148 0.0
C1727 C 0.16536 0.74695 0.29609 0.0
C1728 C 0.15299 0.77388 0.33869 0.0
C1729 C 0.17571 0.78849 0.34462 0.0
C1730 C 0.14679 0.75334 0.33018 0.0
C1731 C 0.16378 0.74739 0.32753 0.0
C1732 C 0.18679 0.76219 0.33346 0.0
C1733 C 0.19246 0.78253 0.342 0.0
C1734 C 0.12207 0.73797 0.32408 0.0
C1735 C 0.20545 0.75659 0.33075 0.0
H1736 H 0.14119 0.66899 0.32229 0.0
H1737 H 0.1533 0.70445 0.28393 0.0
H1738 H 0.1669 0.71649 0.34719 0.0
H1739 H 0.13789 0.71054 0.34484 0.0
H1740 H 0.14361 0.68692 0.34498 0.0
H1741 H 0.16509 0.74386 0.28427 0.0
H1742 H 0.15363 0.75372 0.29815 0.0
H1743 H 0.18293 0.76064 0.30042 0.0
H1744 H 0.14001 0.77846 0.34077 0.0
H1745 H 0.21008 0.79392 0.34651 0.0
H1746 H 0.11514 0.72057 0.328 0.0
H1747 H 0.12099 0.73564 0.31218 0.0
H1748 H 0.11098 0.74513 0.3271 0.0
H1749 H 0.20119 0.73979 0.33488 0.0
H1750 H 0.22255 0.7701 0.33597 0.0
H1751 H 0.20659 0.75477 0.31902 0.0
C1752 C 0.79847 0.9889 0.41026 0.0
C1753 C 0.80952 1.01028 0.40439 0.0
C1754 C 0.78362 0.96833 0.40156 0.0
C1755 C 0.77973 0.9691 0.38661 0.0
C1756 C 0.79081 0.99059 0.38061 0.0
C1757 C 0.80556 1.01091 0.38957 0.0
C1758 C 0.7722 0.94574 0.40837 0.0
C1759 C 0.78705 0.99213 0.36472 0.0
C1760 C 0.75862 0.9139 0.36199 0.0
C1761 C 0.73504 0.90598 0.35959 0.0
C1762 C 0.77336 0.93442 0.37074 0.0
C1763 C 0.76429 0.94737 0.37722 0.0
C1764 C 0.74046 0.93947 0.37477 0.0
C1765 C 0.72612 0.91888 0.36595 0.0
C1766 C 0.79863 0.9422 0.37311 0.0
C1767 C 0.73011 0.95273 0.3815 0.0
H1768 H 0.80167 0.98819 0.42166 0.0
H1769 H 0.81376 0.02736 0.38497 0.0
H1770 H 0.75324 0.93729 0.40619 0.0
H1771 H 0.77738 0.93373 0.40354 0.0
H1772 H 0.77671 0.94814 0.42019 0.0
H1773 H 0.79687 1.01016 0.36174 0.0
H1774 H 0.7923 0.9813 0.35843 0.0
H1775 H 0.76851 0.98526 0.36152 0.0
H1776 H 0.76555 0.90392 0.35711 0.0
H1777 H 0.70791 0.91287 0.36402 0.0
H1778 H 0.80378 0.94338 0.38476 0.0
H1779 H 0.80899 0.95972 0.36951 0.0
H1780 H 0.80297 0.93023 0.36725 0.0
H1781 H 0.73323 0.95424 0.3934 0.0
H1782 H 0.7113 0.94432 0.37848 0.0
H1783 H 0.7385 0.97056 0.37814 0.0
C1784 C 0.03179 0.78853 0.40998 0.0
C1785 C 0.02255 0.80329 0.41018 0.0
C1786 C 0.05017 0.7927 0.40189 0.0
C1787 C 0.05958 0.81208 0.39376 0.0
C1788 C 0.05007 0.8268 0.39368 0.0
C1789 C 0.0317 0.82224 0.40189 0.0
C1790 C 0.05976 0.77656 0.40224 0.0
C1791 C 0.05971 0.84773 0.38523 0.0
C1792 C 0.12159 0.83662 0.38548 0.0
C1793 C 0.11905 0.82762 0.37115 0.0
C1794 C 0.10243 0.83178 0.3929 0.0
C1795 C 0.08004 0.81754 0.38587 0.0
C1796 C 0.07728 0.80846 0.37139 0.0
C1797 C 0.09681 0.81362 0.3642 0.0
C1798 C 0.10622 0.84182 0.40833 0.0
C1799 C 0.05368 0.79324 0.36352 0.0
H1800 H 0.02461 0.77365 0.41617 0.0
H1801 H 0.02489 0.8339 0.4021 0.0
H1802 H 0.05958 0.76971 0.39114 0.0
H1803 H 0.07793 0.78617 0.40698 0.0
H1804 H 0.04993 0.76174 0.40863 0.0
H1805 H 0.0497 0.85681 0.38573 0.0
H1806 H 0.07778 0.86008 0.38951 0.0
H1807 H 0.05986 0.84254 0.3738 0.0
H1808 H 0.13864 0.84759 0.39097 0.0
H1809 H 0.09463 0.8066 0.35314 0.0
H1810 H 0.09958 0.82764 0.41551 0.0
H1811 H 0.09662 0.85117 0.40974 0.0
H1812 H 0.12468 0.85395 0.41186 0.0
H1813 H 0.04389 0.77761 0.36924 0.0
H1814 H 0.05444 0.78768 0.35226 0.0
H1815 H 0.04396 0.80262 0.36335 0.0
C1816 C 0.20596 0.22523 0.39581 0.0
C1817 C 0.21479 0.21427 0.3872 0.0
C1818 C 0.2013 0.2419 0.3905 0.0
C1819 C 0.20549 0.24767 0.37621 0.0
C1820 C 0.21501 0.23716 0.36761 0.0
C1821 C 0.21959 0.22065 0.37322 0.0
C1822 C 0.19122 0.2528 0.40001 0.0
C1823 C 0.2198 0.24289 0.35234 0.0
C1824 C 0.17032 0.26949 0.35627 0.0
C1825 C 0.18605 0.29323 0.35674 0.0
C1826 C 0.17635 0.25456 0.36276 0.0
C1827 C 0.19865 0.26361 0.36992 0.0
C1828 C 0.21452 0.28767 0.3706 0.0
C1829 C 0.20805 0.3022 0.36394 0.0
C1830 C 0.15892 0.22902 0.36178 0.0
C1831 C 0.23839 0.29799 0.37821 0.0
H1832 H 0.202 0.22027 0.40658 0.0
H1833 H 0.22683 0.2126 0.36658 0.0
H1834 H 0.20138 0.27194 0.40032 0.0
H1835 H 0.17346 0.24735 0.39553 0.0
H1836 H 0.19069 0.24784 0.4112 0.0
H1837 H 0.22823 0.23403 0.34731 0.0
H1838 H 0.20345 0.23768 0.34573 0.0
H1839 H 0.23099 0.26184 0.35207 0.0
H1840 H 0.15326 0.26252 0.35076 0.0
H1841 H 0.22029 0.32054 0.36422 0.0
H1842 H 0.15605 0.22309 0.37271 0.0
H1843 H 0.16557 0.21905 0.35594 0.0
H1844 H 0.14214 0.22484 0.35613 0.0
H1845 H 0.23742 0.29333 0.38946 0.0
H1846 H 0.24829 0.31714 0.37836 0.0
H1847 H 0.24797 0.29075 0.3728 0.0
C1848 C 0.68895 0.57058 0.73444 0.0
C1849 C 0.68331 0.54731 0.73276 0.0
C1850 C 0.70858 0.58796 0.72894 0.0
C1851 C 0.72296 0.58198 0.7216 0.0
C1852 C 0.71754 0.55858 0.72006 0.0
C1853 C 0.69784 0.54158 0.72565 0.0
C1854 C 0.71376 0.6127 0.73081 0.0
C1855 C 0.7325 0.55147 0.71241 0.0
C1856 C 0.76158 0.62133 0.69502 0.0
C1857 C 0.78317 0.63258 0.70307 0.0
C1858 C 0.74179 0.60516 0.70101 0.0
C1859 C 0.74358 0.60007 0.71539 0.0
C1860 C 0.76524 0.61168 0.72365 0.0
C1861 C 0.78472 0.62776 0.7174 0.0
C1862 C 0.71902 0.59318 0.69184 0.0
C1863 C 0.76794 0.60682 0.73902 0.0
H1864 H 0.67773 0.57515 0.73979 0.0
H1865 H 0.69385 0.52372 0.7245 0.0
H1866 H 0.73123 0.62394 0.73642 0.0
H1867 H 0.71357 0.61909 0.72012 0.0
H1868 H 0.70117 0.61459 0.73705 0.0
H1869 H 0.72605 0.5326 0.71224 0.0
H1870 H 0.73331 0.55609 0.70116 0.0
H1871 H 0.75032 0.56096 0.71776 0.0
H1872 H 0.76014 0.62489 0.68396 0.0
H1873 H 0.80125 0.63637 0.72377 0.0
H1874 H 0.70611 0.59565 0.69728 0.0
H1875 H 0.71252 0.57429 0.6904 0.0
H1876 H 0.72033 0.5997 0.68105 0.0
H1877 H 0.75614 0.60966 0.7455 0.0
H1878 H 0.7858 0.61792 0.74413 0.0
H1879 H 0.76322 0.58844 0.73936 0.0
C1880 C 0.46709 0.13141 0.73637 0.0
C1881 C 0.48971 0.14838 0.73455 0.0
C1882 C 0.44828 0.13361 0.73126 0.0
C1883 C 0.45217 0.15327 0.72418 0.0
C1884 C 0.47497 0.17068 0.72257 0.0
C1885 C 0.49343 0.16801 0.72776 0.0
C1886 C 0.42423 0.11466 0.73315 0.0
C1887 C 0.47985 0.19196 0.71516 0.0
C1888 C 0.4058 0.14968 0.69719 0.0
C1889 C 0.39701 0.16148 0.70504 0.0
C1890 C 0.42335 0.14642 0.70341 0.0
C1891 C 0.43242 0.15521 0.71785 0.0
C1892 C 0.42324 0.16661 0.72597 0.0
C1893 C 0.40564 0.16959 0.71948 0.0
C1894 C 0.43259 0.13408 0.69439 0.0
C1895 C 0.43242 0.1762 0.7414 0.0
H1896 H 0.46405 0.11609 0.74148 0.0
H1897 H 0.51086 0.18137 0.72652 0.0
H1898 H 0.41479 0.12202 0.7386 0.0
H1899 H 0.41467 0.10643 0.72246 0.0
H1900 H 0.42416 0.10108 0.73953 0.0
H1901 H 0.49856 0.2043 0.71526 0.0
H1902 H 0.47215 0.18685 0.70382 0.0
H1903 H 0.47182 0.201 0.72047 0.0
H1904 H 0.39923 0.14326 0.68605 0.0
H1905 H 0.399 0.17873 0.72566 0.0
H1906 H 0.43173 0.11941 0.69989 0.0
H1907 H 0.45094 0.14611 0.69306 0.0
H1908 H 0.42296 0.12735 0.68355 0.0
H1909 H 0.43192 0.1625 0.74782 0.0
H1910 H 0.42253 0.18339 0.7465 0.0
H1911 H 0.45066 0.19013 0.74187 0.0
C1912 C 0.89252 0.34328 0.71868 0.0
C1913 C 0.8891 0.34353 0.73333 0.0
C1914 C 0.88714 0.32266 0.71055 0.0
C1915 C 0.87799 0.30173 0.7172 0.0
C1916 C 0.87473 0.30188 0.73201 0.0
C1917 C 0.88038 0.32277 0.73989 0.0
C1918 C 0.89094 0.3232 0.6948 0.0
C1919 C 0.86501 0.27991 0.73949 0.0
C1920 C 0.84223 0.24514 0.69361 0.0
C1921 C 0.85785 0.23721 0.69249 0.0
C1922 C 0.84859 0.26613 0.70161 0.0
C1923 C 0.87116 0.27956 0.70857 0.0
C1924 C 0.88707 0.2717 0.70736 0.0
C1925 C 0.88021 0.25058 0.69933 0.0
C1926 C 0.83108 0.27384 0.70271 0.0
C1927 C 0.91129 0.28554 0.7146 0.0
H1928 H 0.899 0.35915 0.71347 0.0
H1929 H 0.87806 0.32285 0.75126 0.0
H1930 H 0.90203 0.31577 0.69247 0.0
H1931 H 0.87426 0.31238 0.68818 0.0
H1932 H 0.89907 0.34102 0.69139 0.0
H1933 H 0.86393 0.28303 0.75112 0.0
H1934 H 0.84754 0.26726 0.73437 0.0
H1935 H 0.87584 0.27183 0.73835 0.0
H1936 H 0.8249 0.23478 0.68836 0.0
H1937 H 0.89235 0.24452 0.6984 0.0
H1938 H 0.83759 0.29105 0.69858 0.0
H1939 H 0.82825 0.2757 0.71415 0.0
H1940 H 0.8143 0.26147 0.69658 0.0
H1941 H 0.92003 0.30309 0.71082 0.0
H1942 H 0.92164 0.27716 0.71245 0.0
H1943 H 0.91092 0.28775 0.7264 0.0
C1944 C 0.22447 0.01618 0.64668 0.0
C1945 C 0.21952 0.01599 0.63186 0.0
C1946 C 0.24036 0.03675 0.65504 0.0
C1947 C 0.25156 0.0577 0.64847 0.0
C1948 C 0.24684 0.05762 0.6335 0.0
C1949 C 0.23093 0.03679 0.62539 0.0
C1950 C 0.24493 0.03612 0.67097 0.0
C1951 C 0.25843 0.0796 0.62609 0.0
C1952 C 0.27423 0.11391 0.6723 0.0
C1953 C 0.29774 0.12144 0.67454 0.0
C1954 C 0.25907 0.0933 0.66375 0.0
C1955 C 0.26762 0.07983 0.65734 0.0
C1956 C 0.29141 0.08743 0.65951 0.0
C1957 C 0.30621 0.10818 0.66809 0.0
C1958 C 0.23387 0.08592 0.66162 0.0
C1959 C 0.30119 0.07355 0.65287 0.0
H1960 H 0.21558 1.00029 0.65182 0.0
H1961 H 0.22756 0.03677 0.61391 0.0
H1962 H 0.26359 0.04333 0.67391 0.0
H1963 H 0.23972 0.04709 0.67715 0.0
H1964 H 0.23549 0.0183 0.67434 0.0
H1965 H 0.25329 0.07653 0.61432 0.0
H1966 H 0.25403 0.09233 0.63075 0.0
H1967 H 0.27739 0.08757 0.62788 0.0
H1968 H 0.26764 0.12419 0.67721 0.0
H1969 H 0.32438 0.11392 0.66986 0.0
H1970 H 0.22345 0.06879 0.66572 0.0
H1971 H 0.2283 0.08401 0.64998 0.0
H1972 H 0.23002 0.09849 0.66721 0.0
H1973 H 0.29301 0.05608 0.65677 0.0
H1974 H 0.3201 0.08199 0.65545 0.0
H1975 H 0.2973 0.07116 0.64101 0.0
C1976 C 1.00896 0.23128 0.63832 0.0
C1977 C 1.01394 0.21326 0.63725 0.0
C1978 C 0.98905 0.22828 0.64423 0.0
C1979 C 0.97382 0.20678 0.64928 0.0
C1980 C 0.9787 0.18849 0.64817 0.0
C1981 C 0.99865 0.19193 0.64214 0.0
C1982 C 0.98435 0.24813 0.6451 0.0
C1983 C 0.96298 0.16536 0.65351 0.0
C1984 C 0.9341 0.20485 0.67713 0.0
C1985 C 0.91296 0.19566 0.66873 0.0
C1986 C 0.95406 0.20873 0.67092 0.0
C1987 C 0.95293 0.20347 0.65592 0.0
C1988 C 0.93173 0.19456 0.64734 0.0
C1989 C 0.91201 0.19067 0.65385 0.0
C1990 C 0.9763 0.21812 0.68045 0.0
C1991 C 0.92981 0.18889 0.6313 0.0
H1992 H 0.02056 0.24772 0.63441 0.0
H1993 H 1.00253 0.17803 0.64153 0.0
H1994 H 0.96736 0.24273 0.63928 0.0
H1995 H 0.98366 0.25308 0.65648 0.0
H1996 H 0.99768 0.26359 0.64046 0.0
H1997 H 0.96908 0.15284 0.65172 0.0
H1998 H 0.96171 0.16767 0.66519 0.0
H1999 H 0.9454 0.15782 0.64797 0.0
H2000 H 0.93504 0.20869 0.68863 0.0
H2001 H 0.89581 0.18358 0.64724 0.0
H2002 H 0.98976 0.23436 0.67663 0.0
H2003 H 0.98247 0.20552 0.67988 0.0
H2004 H 0.97441 0.22168 0.69187 0.0
H2005 H 0.94211 0.20442 0.62625 0.0
H2006 H 0.91222 0.18267 0.62609 0.0
H2007 H 0.93442 0.17533 0.62906 0.0
C2008 C 0.82067 0.79804 0.64153 0.0
C2009 C 0.81206 0.80934 0.65005 0.0
C2010 C 0.82521 0.78139 0.647 0.0
C2011 C 0.82114 0.77598 0.66136 0.0
C2012 C 0.81184 0.78683 0.66987 0.0
C2013 C 0.80737 0.80331 0.66411 0.0
C2014 C 0.83503 0.7701 0.63758 0.0
C2015 C 0.8072 0.7815 0.68522 0.0
C2016 C 0.81813 0.72151 0.67411 0.0
C2017 C 0.84018 0.73039 0.6812 0.0
C2018 C 0.81178 0.73604 0.66732 0.0
C2019 C 0.82782 0.76002 0.6678 0.0
C2020 C 0.85017 0.76901 0.67489 0.0
C2021 C 0.85607 0.75407 0.68148 0.0
C2022 C 0.78786 0.7258 0.6598 0.0
C2023 C 0.86776 0.79447 0.67566 0.0
H2024 H 0.82454 0.80272 0.6307 0.0
H2025 H 0.8003 0.81161 0.67067 0.0
H2026 H 0.85278 0.77546 0.64203 0.0
H2027 H 0.82472 0.75099 0.63743 0.0
H2028 H 0.83551 0.77483 0.62634 0.0
H2029 H 0.79897 0.79063 0.69018 0.0
H2030 H 0.79587 0.76261 0.68565 0.0
H2031 H 0.82358 0.78669 0.69179 0.0
H2032 H 0.80575 0.70323 0.67398 0.0
H2033 H 0.87317 0.76097 0.68692 0.0
H2034 H 0.78876 0.73017 0.64848 0.0
H2035 H 0.77849 0.73334 0.66514 0.0
H2036 H 0.7778 0.70668 0.65983 0.0
H2037 H 0.8706 0.80013 0.66466 0.0
H2038 H 0.88454 0.79859 0.6813 0.0
H2039 H 0.86131 0.8047 0.6814 0.0
C2040 C 1.00445 0.7844 0.63618 0.0
C2041 C 1.00973 0.80757 0.63699 0.0
C2042 C 0.98473 0.76732 0.64174 0.0
C2043 C 0.96992 0.77353 0.64833 0.0
C2044 C 0.97507 0.79684 0.6491 0.0
C2045 C 0.99487 0.81355 0.64343 0.0
C2046 C 0.97976 0.74262 0.6406 0.0
C2047 C 0.95978 0.80421 0.65609 0.0
C2048 C 0.90817 0.72753 0.65233 0.0
C2049 C 0.90947 0.72338 0.66684 0.0
C2050 C 0.92773 0.74351 0.64611 0.0
C2051 C 0.94918 0.75574 0.65458 0.0
C2052 C 0.9507 0.7514 0.66916 0.0
C2053 C 0.93086 0.73527 0.6751 0.0
C2054 C 0.92534 0.74755 0.63052 0.0
C2055 C 0.97323 0.7641 0.67856 0.0
H2056 H 0.01568 0.77957 0.63107 0.0
H2057 H 0.99896 0.83144 0.6443 0.0
H2058 H 0.97929 0.73671 0.6515 0.0
H2059 H 0.9626 0.7311 0.63467 0.0
H2060 H 0.99281 0.74056 0.63501 0.0
H2061 H 0.966 0.82295 0.65564 0.0
H2062 H 0.94202 0.7942 0.65069 0.0
H2063 H 0.95892 0.80045 0.66752 0.0
H2064 H 0.89179 0.71841 0.64581 0.0
H2065 H 0.93209 0.73224 0.6863 0.0
H2066 H 0.93764 0.74486 0.62448 0.0
H2067 H 0.92961 0.76572 0.62972 0.0
H2068 H 0.90769 0.73588 0.62523 0.0
H2069 H 0.9864 0.7614 0.67365 0.0
H2070 H 0.97167 0.75834 0.68958 0.0
H2071 H 0.97957 0.78297 0.67942 0.0
C2072 C 0.2161 0.20299 0.63288 0.0
C2073 C 0.22361 0.22404 0.62683 0.0
C2074 C 0.23169 0.19839 0.64061 0.0
C2075 C 0.25538 0.21526 0.64236 0.0
C2076 C 0.26301 0.23671 0.63652 0.0
C2077 C 0.24705 0.24084 0.62883 0.0
C2078 C 0.22289 0.17529 0.64666 0.0
C2079 C 0.2881 0.25519 0.6382 0.0
C2080 C 0.29391 0.21075 0.67198 0.0
C2081 C 0.30417 0.20032 0.66428 0.0
C2082 C 0.27804 0.21576 0.66499 0.0
C2083 C 0.27228 0.21022 0.64995 0.0
C2084 C 0.28268 0.19983 0.6421 0.0
C2085 C 0.29847 0.19502 0.64935 0.0
C2086 C 0.26733 0.22687 0.67373 0.0
C2087 C 0.27705 0.19367 0.62604 0.0
H2088 H 0.19807 0.18982 0.63124 0.0
H2089 H 0.25295 0.25728 0.62437 0.0
H2090 H 0.23063 0.16576 0.6416 0.0
H2091 H 0.22809 0.17787 0.65839 0.0
H2092 H 0.20387 0.16438 0.64483 0.0
H2093 H 0.29116 0.27118 0.63336 0.0
H2094 H 0.2946 0.2597 0.64976 0.0
H2095 H 0.29834 0.24855 0.63299 0.0
H2096 H 0.29814 0.2149 0.68351 0.0
H2097 H 0.30627 0.18698 0.64326 0.0
H2098 H 0.24838 0.21549 0.67269 0.0
H2099 H 0.27103 0.24348 0.66955 0.0
H2100 H 0.27376 0.23027 0.68531 0.0
H2101 H 0.25841 0.18121 0.62353 0.0
H2102 H 0.28682 0.18589 0.6215 0.0
H2103 H 0.28097 0.20936 0.62056 0.0
C2104 C 0.81799 0.03585 0.63135 0.0
C2105 C 0.81064 0.0149 0.63753 0.0
C2106 C 0.82354 0.05627 0.63978 0.0
C2107 C 0.82155 0.05573 0.65475 0.0
C2108 C 0.81378 0.03461 0.66103 0.0
C2109 C 0.80852 0.01448 0.65237 0.0
C2110 C 0.83179 0.07849 0.63268 0.0
C2111 C 0.81132 0.03332 0.67695 0.0
C2112 C 0.85722 0.1117 0.67894 0.0
C2113 C 0.8411 0.11869 0.68113 0.0
C2114 C 0.85108 0.09127 0.67035 0.0
C2115 C 0.82821 0.07741 0.66392 0.0
C2116 C 0.8118 0.0843 0.66623 0.0
C2117 C 0.81847 0.10492 0.6748 0.0
C2118 C 0.86914 0.08464 0.66803 0.0
C2119 C 0.78724 0.06994 0.65962 0.0
H2120 H 0.8193 0.03628 0.61986 0.0
H2121 H 0.80315 0.99848 0.65729 0.0
H2122 H 0.82053 0.08584 0.63467 0.0
H2123 H 0.84939 0.09149 0.63744 0.0
H2124 H 0.83208 0.07593 0.62088 0.0
H2125 H 0.80415 0.01539 0.68006 0.0
H2126 H 0.82834 0.04442 0.68314 0.0
H2127 H 0.79993 0.04 0.68013 0.0
H2128 H 0.87477 0.1224 0.68378 0.0
H2129 H 0.80597 0.11029 0.67655 0.0
H2130 H 0.87108 0.08336 0.65638 0.0
H2131 H 0.8637 0.06737 0.67181 0.0
H2132 H 0.88615 0.09732 0.67377 0.0
H2133 H 0.78675 0.06836 0.64772 0.0
H2134 H 0.77651 0.07752 0.66266 0.0
H2135 H 0.77947 0.05218 0.66307 0.0
C2136 C 0.47382 0.34344 0.72547 0.0
C2137 C 0.47817 0.3429 0.74026 0.0
C2138 C 0.45862 0.32313 0.71664 0.0
C2139 C 0.44747 0.30172 0.72273 0.0
C2140 C 0.45173 0.30104 0.73766 0.0
C2141 C 0.46702 0.3216 0.74622 0.0
C2142 C 0.45449 0.32457 0.70078 0.0
C2143 C 0.44025 0.27854 0.74455 0.0
C2144 C 0.39335 0.2519 0.70221 0.0
C2145 C 0.40202 0.23896 0.69559 0.0
C2146 C 0.40792 0.27232 0.71113 0.0
C2147 C 0.43171 0.27997 0.71344 0.0
C2148 C 0.4405 0.26688 0.70679 0.0
C2149 C 0.42554 0.24655 0.69794 0.0
C2150 C 0.39787 0.28573 0.71806 0.0
C2151 C 0.46571 0.27438 0.70901 0.0
H2152 H 0.48209 0.35983 0.7208 0.0
H2153 H 0.47051 0.32095 0.7576 0.0
H2154 H 0.45948 0.31362 0.6944 0.0
H2155 H 0.43592 0.31781 0.69776 0.0
H2156 H 0.46431 0.34257 0.69773 0.0
H2157 H 0.44496 0.28102 0.75636 0.0
H2158 H 0.42129 0.27024 0.74251 0.0
H2159 H 0.44519 0.26636 0.73969 0.0
H2160 H 0.37519 0.24613 0.70034 0.0
H2161 H 0.43229 0.23653 0.69288 0.0
H2162 H 0.40616 0.30349 0.71459 0.0
H2163 H 0.4014 0.28741 0.72993 0.0
H2164 H 0.379 0.27735 0.71528 0.0
H2165 H 0.47614 0.29179 0.70527 0.0
H2166 H 0.46977 0.26217 0.70317 0.0
H2167 H 0.47105 0.27572 0.72064 0.0
C2168 C 0.69764 0.12134 0.74376 0.0
C2169 C 0.68873 0.13638 0.74387 0.0
C2170 C 0.71615 0.12532 0.73585 0.0
C2171 C 0.72605 0.1448 0.72783 0.0
C2172 C 0.71684 0.15977 0.72763 0.0
C2173 C 0.69832 0.15539 0.73564 0.0
C2174 C 0.72542 0.1089 0.73633 0.0
C2175 C 0.72698 0.1808 0.71927 0.0
C2176 C 0.7884 0.16891 0.72048 0.0
C2177 C 0.78631 0.16005 0.70617 0.0
C2178 C 0.76898 0.16413 0.7276 0.0
C2179 C 0.74677 0.15016 0.72025 0.0
C2180 C 0.74447 0.14126 0.70578 0.0
C2181 C 0.76426 0.14631 0.69891 0.0
C2182 C 0.77228 0.17394 0.74304 0.0
C2183 C 0.72108 0.12634 0.69759 0.0
H2184 H 0.69012 0.10641 0.74989 0.0
H2185 H 0.69175 0.16726 0.73579 0.0
H2186 H 0.72555 0.1022 0.72525 0.0
H2187 H 0.74345 0.11824 0.74132 0.0
H2188 H 0.71516 0.09399 0.74255 0.0
H2189 H 0.71708 0.19001 0.71958 0.0
H2190 H 0.74496 0.19301 0.72378 0.0
H2191 H 0.7275 0.17571 0.70788 0.0
H2192 H 0.8053 0.17967 0.72621 0.0
H2193 H 0.76242 0.13941 0.68786 0.0
H2194 H 0.76474 0.15963 0.75008 0.0
H2195 H 0.76319 0.18386 0.7442 0.0
H2196 H 0.7907 0.18551 0.74694 0.0
H2197 H 0.71092 0.11061 0.70316 0.0
H2198 H 0.7222 0.12092 0.68637 0.0
H2199 H 0.71152 0.13588 0.69728 0.0
C2200 C 0.8871 0.55348 0.70436 0.0
C2201 C 0.883 0.54749 0.71848 0.0
C2202 C 0.88216 0.56976 0.69878 0.0
C2203 C 0.87297 0.58044 0.70754 0.0
C2204 C 0.86941 0.57502 0.72193 0.0
C2205 C 0.87443 0.55858 0.72723 0.0
C2206 C 0.88627 0.57512 0.68339 0.0
C2207 C 0.85969 0.5861 0.73161 0.0
C2208 C 0.8751 0.63478 0.6953 0.0
C2209 C 0.85287 0.62577 0.68844 0.0
C2210 C 0.8818 0.62032 0.70182 0.0
C2211 C 0.86593 0.59629 0.70135 0.0
C2212 C 0.8434 0.58719 0.69453 0.0
C2213 C 0.83715 0.60205 0.68817 0.0
C2214 C 0.90592 0.63068 0.70906 0.0
C2215 C 0.82597 0.56168 0.69378 0.0
H2216 H 0.89412 0.54532 0.69762 0.0
H2217 H 0.87099 0.55391 0.7381 0.0
H2218 H 0.86969 0.56985 0.67704 0.0
H2219 H 0.89745 0.59402 0.68292 0.0
H2220 H 0.89442 0.56608 0.6782 0.0
H2221 H 0.8595 0.5813 0.74281 0.0
H2222 H 0.86988 0.60522 0.73181 0.0
H2223 H 0.84183 0.58067 0.72734 0.0
H2224 H 0.88733 0.6531 0.69543 0.0
H2225 H 0.81992 0.59506 0.68292 0.0
H2226 H 0.9152 0.62325 0.70349 0.0
H2227 H 0.90539 0.62629 0.72036 0.0
H2228 H 0.91584 0.64981 0.70903 0.0
H2229 H 0.83236 0.55158 0.68782 0.0
H2230 H 0.80902 0.55746 0.68838 0.0
H2231 H 0.82352 0.55595 0.70478 0.0
C2232 C 0.46951 0.96082 0.17338 0.0
C2233 C 0.46706 0.94003 0.17778 0.0
C2234 C 0.47752 0.9684 0.16008 0.0
C2235 C 0.48317 0.95485 0.15089 0.0
C2236 C 0.48055 0.93375 0.15519 0.0
C2237 C 0.47258 0.92662 0.1686 0.0
C2238 C 0.48024 0.99109 0.15594 0.0
C2239 C 0.48624 0.91875 0.14566 0.0
C2240 C 0.48622 0.96651 0.11145 0.0
C2241 C 0.50993 0.98105 0.11091 0.0
C2242 C 0.47729 0.95746 0.1243 0.0
C2243 C 0.49241 0.96314 0.13696 0.0
C2244 C 0.51638 0.97741 0.13642 0.0
C2245 C 0.52484 0.98612 0.12341 0.0
C2246 C 0.45162 0.94226 0.12442 0.0
C2247 C 0.53309 0.98384 0.14965 0.0
H2248 H 0.46556 0.97141 0.18049 0.0
H2249 H 0.47045 0.9104 0.17184 0.0
H2250 H 0.49851 1.00326 0.15449 0.0
H2251 H 0.47007 0.98834 0.14551 0.0
H2252 H 0.47464 0.99934 0.16415 0.0
H2253 H 0.4828 0.9026 0.15044 0.0
H2254 H 0.47602 0.91406 0.13504 0.0
H2255 H 0.50464 0.92849 0.14372 0.0
H2256 H 0.47455 0.96271 0.1019 0.0
H2257 H 0.54321 0.99701 0.12304 0.0
H2258 H 0.44503 0.95088 0.13161 0.0
H2259 H 0.44758 0.92566 0.12875 0.0
H2260 H 0.44232 0.93846 0.11352 0.0
H2261 H 0.52942 0.99358 0.15804 0.0
H2262 H 0.55126 0.99461 0.14735 0.0
H2263 H 0.53099 0.96799 0.1542 0.0
C2264 C 0.06435 0.53419 0.18364 0.0
C2265 C 0.08329 0.53137 0.18717 0.0
C2266 C 0.05721 0.53438 0.16927 0.0
C2267 C 0.06936 0.53178 0.15815 0.0
C2268 C 0.08845 0.52886 0.16164 0.0
C2269 C 0.09516 0.52864 0.17611 0.0
C2270 C 0.03665 0.53735 0.16598 0.0
C2271 C 0.1019 0.52617 0.15009 0.0
C2272 C 0.03857 0.51237 0.12038 0.0
C2273 C 0.04708 0.53349 0.11428 0.0
C2274 C 0.04586 0.51152 0.1346 0.0
C2275 C 0.06213 0.53228 0.14289 0.0
C2276 C 0.07111 0.55361 0.13671 0.0
C2277 C 0.06343 0.55396 0.12249 0.0
C2278 C 0.0358 0.48847 0.14085 0.0
C2279 C 0.08863 0.57608 0.14517 0.0
H2280 H 0.05494 0.536 0.19214 0.0
H2281 H 0.10996 0.52672 0.17879 0.0
H2282 H 0.04176 0.55306 0.16025 0.0
H2283 H 0.02331 0.52236 0.15875 0.0
H2284 H 0.02895 0.53892 0.17585 0.0
H2285 H 0.11621 0.52388 0.15458 0.0
H2286 H 0.09035 0.511 0.14234 0.0
H2287 H 0.10914 0.54163 0.14395 0.0
H2288 H 0.02573 0.49653 0.11415 0.0
H2289 H 0.07027 0.57028 0.11775 0.0
H2290 H 0.02637 0.48862 0.15014 0.0
H2291 H 0.04974 0.48535 0.1449 0.0
H2292 H 0.0238 0.47386 0.13285 0.0
H2293 H 0.08119 0.57932 0.15468 0.0
H2294 H 0.09443 0.59108 0.13864 0.0
H2295 H 0.10384 0.57498 0.14922 0.0
C2296 C 0.46382 0.51278 0.17611 0.0
C2297 C 0.46579 0.53275 0.18326 0.0
C2298 C 0.47173 0.51323 0.1625 0.0
C2299 C 0.48188 0.53417 0.15586 0.0
C2300 C 0.48371 0.55434 0.16293 0.0
C2301 C 0.47565 0.55339 0.17653 0.0
C2302 C 0.46952 0.49137 0.15533 0.0
C2303 C 0.49436 0.57698 0.15619 0.0
C2304 C 0.52285 0.54136 0.12772 0.0
C2305 C 0.50889 0.53667 0.11483 0.0
C2306 C 0.5143 0.54067 0.14112 0.0
C2307 C 0.49117 0.53513 0.14168 0.0
C2308 C 0.47697 0.53042 0.12871 0.0
C2309 C 0.486 0.53125 0.11545 0.0
C2310 C 0.52998 0.54573 0.15469 0.0
C2311 C 0.45223 0.52448 0.12885 0.0
H2312 H 0.4565 0.49684 0.18129 0.0
H2313 H 0.47693 0.56881 0.18188 0.0
H2314 H 0.45987 0.48712 0.14453 0.0
H2315 H 0.48683 0.49403 0.15374 0.0
H2316 H 0.4606 0.47635 0.16173 0.0
H2317 H 0.49406 0.59096 0.16295 0.0
H2318 H 0.51246 0.58254 0.15446 0.0
H2319 H 0.48507 0.57474 0.14549 0.0
H2320 H 0.54044 0.54519 0.12735 0.0
H2321 H 0.47516 0.52788 0.10556 0.0
H2322 H 0.52276 0.53053 0.16106 0.0
H2323 H 0.5312 0.56047 0.16149 0.0
H2324 H 0.54758 0.54998 0.15241 0.0
H2325 H 0.44265 0.50886 0.13462 0.0
H2326 H 0.44346 0.52119 0.11782 0.0
H2327 H 0.45139 0.53883 0.13473 0.0
C2328 C 0.94056 0.47806 0.85343 0.0
C2329 C 0.95024 0.49853 0.84655 0.0
C2330 C 0.94776 0.47795 0.8678 0.0
C2331 C 0.96503 0.49883 0.87551 0.0
C2332 C 0.97461 0.51963 0.86872 0.0
C2333 C 0.96712 0.51923 0.85432 0.0
C2334 C 0.9371 0.45542 0.87468 0.0
C2335 C 0.99309 0.54223 0.87659 0.0
C2336 C 0.97117 0.50142 0.91635 0.0
C2337 C 0.98943 0.49716 0.91888 0.0
C2338 C 0.96317 0.50224 0.9023 0.0
C2339 C 0.97366 0.49869 0.89051 0.0
C2340 C 0.99221 0.4946 0.893 0.0
C2341 C 0.99989 0.49392 0.90714 0.0
C2342 C 0.94335 0.50665 0.90007 0.0
C2343 C 1.0039 0.49081 0.88071 0.0
H2344 H 0.92724 0.46207 0.84758 0.0
H2345 H 0.97486 0.53507 0.84904 0.0
H2346 H 0.95053 0.45107 0.8779 0.0
H2347 H 0.92962 0.45716 0.88459 0.0
H2348 H 0.92342 0.44082 0.86734 0.0
H2349 H 0.99807 0.55704 0.86998 0.0
H2350 H 0.9871 0.54586 0.88668 0.0
H2351 H 1.00859 0.54101 0.87966 0.0
H2352 H 0.96287 0.50371 0.92536 0.0
H2353 H 1.01426 0.49104 0.90902 0.0
H2354 H 0.92864 0.49162 0.89362 0.0
H2355 H 0.94841 0.52193 0.89391 0.0
H2356 H 0.9375 0.5097 0.91039 0.0
H2357 H 0.99125 0.47548 0.87342 0.0
H2358 H 0.01825 0.48808 0.88448 0.0
H2359 H 1.01076 0.50594 0.87428 0.0
C2360 C 0.56361 0.50971 0.86279 0.0
C2361 C 0.56501 0.49094 0.8566 0.0
C2362 C 0.55533 0.50905 0.87629 0.0
C2363 C 0.5483 0.48915 0.88384 0.0
C2364 C 0.54997 0.47027 0.87776 0.0
C2365 C 0.55826 0.47138 0.86422 0.0
C2366 C 0.5537 0.52949 0.88236 0.0
C2367 C 0.54279 0.4488 0.8855 0.0
C2368 C 0.54353 0.49516 0.92403 0.0
C2369 C 0.51985 0.48651 0.92438 0.0
C2370 C 0.55301 0.49587 0.91095 0.0
C2371 C 0.53849 0.4878 0.89788 0.0
C2372 C 0.51455 0.47878 0.89817 0.0
C2373 C 0.50554 0.4782 0.91139 0.0
C2374 C 0.57862 0.50561 0.91111 0.0
C2375 C 0.49846 0.46994 0.88449 0.0
H2376 H 0.56852 0.52478 0.85691 0.0
H2377 H 0.55959 0.45693 0.85961 0.0
H2378 H 0.53549 0.52408 0.88366 0.0
H2379 H 0.56337 0.53596 0.89318 0.0
H2380 H 0.56055 0.54395 0.87537 0.0
H2381 H 0.54576 0.4359 0.8795 0.0
H2382 H 0.55244 0.45347 0.89632 0.0
H2383 H 0.52426 0.44059 0.88709 0.0
H2384 H 0.55476 0.5019 0.93398 0.0
H2385 H 0.48719 0.47116 0.91157 0.0
H2386 H 0.58618 0.52124 0.90513 0.0
H2387 H 0.58216 0.4928 0.90558 0.0
H2388 H 0.58741 0.51037 0.92221 0.0
H2389 H 0.5034 0.48406 0.87732 0.0
H2390 H 0.48025 0.4632 0.88657 0.0
H2391 H 0.49982 0.45591 0.8786 0.0
C2392 C 0.54533 0.07081 0.85993 0.0
C2393 C 0.54734 0.09213 0.85718 0.0
C2394 C 0.54049 0.06246 0.87352 0.0
C2395 C 0.53755 0.07572 0.88462 0.0
C2396 C 0.54044 0.09765 0.88207 0.0
C2397 C 0.54533 0.10559 0.86841 0.0
C2398 C 0.53758 0.03901 0.87581 0.0
C2399 C 0.53756 0.11237 0.89363 0.0
C2400 C 0.4986 0.04326 0.91303 0.0
C2401 C 0.51448 0.04682 0.92468 0.0
C2402 C 0.50593 0.05261 0.89999 0.0
C2403 C 0.52974 0.06592 0.89851 0.0
C2404 C 0.54589 0.06981 0.91027 0.0
C2405 C 0.53807 0.06024 0.92323 0.0
C2406 C 0.48813 0.0482 0.88776 0.0
C2407 C 0.57142 0.08385 0.90911 0.0
H2408 H 0.54665 0.06021 0.8513 0.0
H2409 H 0.54726 0.12227 0.86644 0.0
H2410 H 0.54831 0.04016 0.88563 0.0
H2411 H 0.51941 0.02678 0.87745 0.0
H2412 H 0.5423 0.03175 0.86653 0.0
H2413 H 0.54195 0.12966 0.89026 0.0
H2414 H 0.51949 0.10348 0.8963 0.0
H2415 H 0.54858 0.11477 0.9036 0.0
H2416 H 0.48036 0.03322 0.91414 0.0
H2417 H 0.55043 0.06287 0.93214 0.0
H2418 H 0.49041 0.03918 0.87825 0.0
H2419 H 0.4904 0.06488 0.88451 0.0
H2420 H 0.47028 0.03753 0.89065 0.0
H2421 H 0.57622 0.0755 0.90048 0.0
H2422 H 0.58173 0.08568 0.91933 0.0
H2423 H 0.57607 0.10136 0.90609 0.0
C2424 C 0.13583 0.26006 0.50429 0.0
C2425 C 0.12996 0.2731 0.51354 0.0
C2426 C 0.14349 0.26732 0.49085 0.0
C2427 C 0.14546 0.28817 0.48657 0.0
C2428 C 0.13933 0.30128 0.49579 0.0
C2429 C 0.13163 0.29357 0.50913 0.0
C2430 C 0.1497 0.25278 0.48129 0.0
C2431 C 0.14133 0.3237 0.49167 0.0
C2432 C 0.18716 0.32026 0.4593 0.0
C2433 C 0.17234 0.31481 0.4467 0.0
C2434 C 0.17865 0.31149 0.47228 0.0
C2435 C 0.15471 0.29678 0.4727 0.0
C2436 C 0.13968 0.29081 0.45997 0.0
C2437 C 0.14867 0.29993 0.44714 0.0
C2438 C 0.19527 0.31825 0.4856 0.0
C2439 C 0.11406 0.27512 0.45997 0.0
H2440 H 0.1343 0.24407 0.50754 0.0
H2441 H 0.1274 0.30388 0.51629 0.0
H2442 H 0.13961 0.24809 0.47061 0.0
H2443 H 0.16813 0.26288 0.47947 0.0
H2444 H 0.1465 0.23663 0.48598 0.0
H2445 H 0.1352 0.33147 0.49984 0.0
H2446 H 0.15953 0.33634 0.49036 0.0
H2447 H 0.13123 0.32076 0.48118 0.0
H2448 H 0.20551 0.33141 0.45902 0.0
H2449 H 0.13706 0.29583 0.43751 0.0
H2450 H 0.19366 0.30255 0.4901 0.0
H2451 H 0.19106 0.32754 0.49398 0.0
H2452 H 0.21341 0.32956 0.48342 0.0
H2453 H 0.11035 0.25855 0.46421 0.0
H2454 H 0.10483 0.2713 0.44904 0.0
H2455 H 0.10711 0.28333 0.46717 0.0
C2456 C 0.75648 0.85391 0.51018 0.0
C2457 C 0.7512 0.86495 0.52126 0.0
C2458 C 0.74942 0.85371 0.49571 0.0
C2459 C 0.73684 0.86487 0.49222 0.0
C2460 C 0.73158 0.87617 0.50333 0.0
C2461 C 0.73878 0.87603 0.5177 0.0
C2462 C 0.75533 0.84146 0.48416 0.0
C2463 C 0.71814 0.88822 0.50004 0.0
C2464 C 0.7341 0.88188 0.45429 0.0
C2465 C 0.71217 0.86434 0.4485 0.0
C2466 C 0.74251 0.88211 0.46845 0.0
C2467 C 0.72868 0.86432 0.47698 0.0
C2468 C 0.70674 0.84632 0.47109 0.0
C2469 C 0.69875 0.84656 0.45694 0.0
C2470 C 0.76597 0.90164 0.47438 0.0
C2471 C 0.69155 0.82695 0.4798 0.0
H2472 H 0.76634 0.84558 0.51282 0.0
H2473 H 0.73432 0.8843 0.52619 0.0
H2474 H 0.73934 0.82746 0.47805 0.0
H2475 H 0.76541 0.85374 0.4764 0.0
H2476 H 0.7654 0.83378 0.48865 0.0
H2477 H 0.71601 0.89674 0.50987 0.0
H2478 H 0.72695 0.90149 0.49249 0.0
H2479 H 0.70085 0.87553 0.49468 0.0
H2480 H 0.74446 0.89577 0.44787 0.0
H2481 H 0.68193 0.83276 0.45244 0.0
H2482 H 0.77685 0.89462 0.47845 0.0
H2483 H 0.76428 0.91163 0.48361 0.0
H2484 H 0.77491 0.91366 0.46618 0.0
H2485 H 0.70077 0.81814 0.48378 0.0
H2486 H 0.67524 0.81388 0.47349 0.0
H2487 H 0.68734 0.83411 0.48936 0.0
C2488 C 0.14356 0.88768 0.50815 0.0
C2489 C 0.13402 0.86721 0.51504 0.0
C2490 C 0.15169 0.88854 0.49458 0.0
C2491 C 0.15028 0.86844 0.48771 0.0
C2492 C 0.14055 0.84769 0.49456 0.0
C2493 C 0.13256 0.84732 0.50812 0.0
C2494 C 0.16188 0.91098 0.48762 0.0
C2495 C 0.13881 0.82591 0.48761 0.0
C2496 C 0.15372 0.8645 0.44727 0.0
C2497 C 0.17669 0.87028 0.44653 0.0
C2498 C 0.1449 0.8639 0.46058 0.0
C2499 C 0.1594 0.86924 0.47349 0.0
C2500 C 0.18262 0.87519 0.47282 0.0
C2501 C 0.19097 0.87562 0.45937 0.0
C2502 C 0.12005 0.85752 0.46082 0.0
C2503 C 0.19862 0.8809 0.48633 0.0
H2504 H 0.14446 0.90304 0.51332 0.0
H2505 H 0.1255 0.83152 0.51344 0.0
H2506 H 0.17999 0.91676 0.48578 0.0
H2507 H 0.15235 0.90836 0.47696 0.0
H2508 H 0.16145 0.92498 0.49429 0.0
H2509 H 0.13036 0.81107 0.4942 0.0
H2510 H 0.1289 0.82114 0.47687 0.0
H2511 H 0.15623 0.82895 0.48593 0.0
H2512 H 0.14264 0.86062 0.43742 0.0
H2513 H 0.20863 0.87976 0.45892 0.0
H2514 H 0.11898 0.87181 0.4666 0.0
H2515 H 0.11083 0.84201 0.46676 0.0
H2516 H 0.11106 0.85384 0.44983 0.0
H2517 H 0.1996 0.89564 0.49299 0.0
H2518 H 0.21627 0.88546 0.48397 0.0
H2519 H 0.19183 0.86591 0.49287 0.0
C2520 C 0.62857 0.85035 0.18928 0.0
C2521 C 0.61141 0.8296 0.18172 0.0
C2522 C 0.63679 0.85087 0.20353 0.0
C2523 C 0.62767 0.83012 0.21036 0.0
C2524 C 0.61014 0.80917 0.20286 0.0
C2525 C 0.6022 0.80917 0.18864 0.0
C2526 C 0.65553 0.87353 0.21117 0.0
C2527 C 0.59996 0.7867 0.20979 0.0
C2528 C 0.66434 0.82597 0.24119 0.0
C2529 C 0.65457 0.82944 0.25323 0.0
C2530 C 0.65579 0.82623 0.2272 0.0
C2531 C 0.63705 0.83014 0.22517 0.0
C2532 C 0.62719 0.83383 0.23727 0.0
C2533 C 0.63606 0.83341 0.25116 0.0
C2534 C 0.66682 0.82229 0.21458 0.0
C2535 C 0.60719 0.83805 0.23553 0.0
H2536 H 0.63595 0.86615 0.18395 0.0
H2537 H 0.58869 0.79314 0.18294 0.0
H2538 H 0.65003 0.87722 0.22145 0.0
H2539 H 0.67117 0.87238 0.21387 0.0
H2540 H 0.66012 0.88828 0.20456 0.0
H2541 H 0.586 0.77204 0.20264 0.0
H2542 H 0.61357 0.78244 0.21266 0.0
H2543 H 0.59297 0.78848 0.21992 0.0
H2544 H 0.67889 0.82328 0.24272 0.0
H2545 H 0.62827 0.83587 0.2604 0.0
H2546 H 0.67333 0.83737 0.20811 0.0
H2547 H 0.65385 0.80693 0.20744 0.0
H2548 H 0.68131 0.81958 0.21799 0.0
H2549 H 0.61183 0.8533 0.22941 0.0
H2550 H 0.60179 0.84108 0.24604 0.0
H2551 H 0.5923 0.82296 0.22926 0.0
C2552 C 0.22861 0.84153 0.19393 0.0
C2553 C 0.23004 0.8228 0.1877 0.0
C2554 C 0.22041 0.84082 0.20747 0.0
C2555 C 0.2135 0.82092 0.21501 0.0
C2556 C 0.21517 0.80207 0.20887 0.0
C2557 C 0.22337 0.80322 0.19529 0.0
C2558 C 0.21878 0.86123 0.2136 0.0
C2559 C 0.20811 0.78061 0.21659 0.0
C2560 C 0.20924 0.82716 0.25527 0.0
C2561 C 0.18559 0.81855 0.25573 0.0
C2562 C 0.21854 0.82775 0.24213 0.0
C2563 C 0.20386 0.81959 0.22911 0.0
C2564 C 0.17994 0.81055 0.22953 0.0
C2565 C 0.17111 0.81009 0.24281 0.0
C2566 C 0.24413 0.83749 0.24216 0.0
C2567 C 0.16369 0.80162 0.21592 0.0
H2568 H 0.23346 0.8566 0.18808 0.0
H2569 H 0.22472 0.78881 0.19064 0.0
H2570 H 0.20059 0.85576 0.21502 0.0
H2571 H 0.22859 0.86776 0.22437 0.0
H2572 H 0.22545 0.87566 0.20658 0.0
H2573 H 0.21101 0.76771 0.21053 0.0
H2574 H 0.21791 0.7853 0.22737 0.0
H2575 H 0.18963 0.77239 0.21829 0.0
H2576 H 0.2206 0.834 0.26515 0.0
H2577 H 0.15278 0.80306 0.24308 0.0
H2578 H 0.25161 0.85312 0.23618 0.0
H2579 H 0.24762 0.82469 0.23656 0.0
H2580 H 0.25305 0.84225 0.25322 0.0
H2581 H 0.16847 0.81571 0.20875 0.0
H2582 H 0.14551 0.79483 0.2181 0.0
H2583 H 0.16504 0.78761 0.20999 0.0
C2584 C 0.18676 0.38689 0.18961 0.0
C2585 C 0.20531 0.40845 0.18719 0.0
C2586 C 0.18304 0.37986 0.20355 0.0
C2587 C 0.19827 0.39471 0.2154 0.0
C2588 C 0.21743 0.4162 0.21301 0.0
C2589 C 0.22073 0.42282 0.19893 0.0
C2590 C 0.16248 0.35674 0.20561 0.0
C2591 C 0.23407 0.43249 0.22537 0.0
C2592 C 0.17349 0.38631 0.2515 0.0
C2593 C 0.18155 0.37275 0.2578 0.0
C2594 C 0.17925 0.394 0.23787 0.0
C2595 C 0.19349 0.38808 0.23032 0.0
C2596 C 0.20222 0.37496 0.23677 0.0
C2597 C 0.19613 0.36744 0.25042 0.0
C2598 C 0.16965 0.40803 0.2314 0.0
C2599 C 0.21747 0.36832 0.22907 0.0
H2600 H 0.17499 0.37553 0.18057 0.0
H2601 H 0.23498 0.43958 0.19718 0.0
H2602 H 0.16806 0.34616 0.21156 0.0
H2603 H 0.15066 0.35939 0.21219 0.0
H2604 H 0.15281 0.34684 0.19523 0.0
H2605 H 0.24883 0.44792 0.22165 0.0
H2606 H 0.22504 0.43841 0.23249 0.0
H2607 H 0.24076 0.4234 0.23195 0.0
H2608 H 0.16255 0.39083 0.25723 0.0
H2609 H 0.20225 0.35678 0.25512 0.0
H2610 H 0.15829 0.3984 0.22144 0.0
H2611 H 0.1838 0.42456 0.22835 0.0
H2612 H 0.15961 0.41198 0.2389 0.0
H2613 H 0.20773 0.35672 0.21921 0.0
H2614 H 0.22402 0.35934 0.23592 0.0
H2615 H 0.23234 0.38394 0.22564 0.0
C2616 C 0.80102 0.62911 0.841 0.0
C2617 C 0.79893 0.60852 0.8455 0.0
C2618 C 0.80906 0.63671 0.82771 0.0
C2619 C 0.81511 0.62337 0.81864 0.0
C2620 C 0.81282 0.60244 0.82304 0.0
C2621 C 0.80482 0.5953 0.83643 0.0
C2622 C 0.8114 0.6592 0.82345 0.0
C2623 C 0.81895 0.58767 0.81363 0.0
C2624 C 0.81833 0.63445 0.77911 0.0
C2625 C 0.84202 0.64915 0.77862 0.0
C2626 C 0.80934 0.62561 0.792 0.0
C2627 C 0.8244 0.63167 0.80473 0.0
C2628 C 0.84835 0.6462 0.80426 0.0
C2629 C 0.85686 0.6547 0.79122 0.0
C2630 C 0.7837 0.61013 0.79204 0.0
C2631 C 0.86498 0.65304 0.81758 0.0
H2632 H 0.79679 0.63956 0.84803 0.0
H2633 H 0.80296 0.57922 0.83975 0.0
H2634 H 0.82963 0.67161 0.82208 0.0
H2635 H 0.80128 0.65622 0.81296 0.0
H2636 H 0.80547 0.66726 0.83157 0.0
H2637 H 0.81573 0.57163 0.81847 0.0
H2638 H 0.80882 0.58279 0.80297 0.0
H2639 H 0.83737 0.59766 0.81177 0.0
H2640 H 0.80671 0.6303 0.76949 0.0
H2641 H 0.87522 0.66573 0.79089 0.0
H2642 H 0.77688 0.61858 0.79917 0.0
H2643 H 0.77985 0.59361 0.79641 0.0
H2644 H 0.77446 0.6062 0.78112 0.0
H2645 H 0.86093 0.66259 0.82587 0.0
H2646 H 0.88313 0.66413 0.81535 0.0
H2647 H 0.86321 0.63736 0.82221 0.0
C2648 C 0.40789 0.21105 0.8515 0.0
C2649 C 0.42113 0.20081 0.85503 0.0
C2650 C 0.4002 0.21067 0.83716 0.0
C2651 C 0.4058 0.1997 0.82604 0.0
C2652 C 0.41923 0.18941 0.8295 0.0
C2653 C 0.42676 0.19011 0.84394 0.0
C2654 C 0.38585 0.22178 0.83392 0.0
C2655 C 0.42553 0.17755 0.81794 0.0
C2656 C 0.3667 0.17956 0.79111 0.0
C2657 C 0.37928 0.1974 0.7825 0.0
C2658 C 0.37532 0.17988 0.8052 0.0
C2659 C 0.39707 0.19854 0.81085 0.0
C2660 C 0.41008 0.21638 0.80212 0.0
C2661 C 0.40105 0.21558 0.78803 0.0
C2662 C 0.361 0.16044 0.81412 0.0
C2663 C 0.43331 0.23658 0.80778 0.0
H2664 H 0.40317 0.21905 0.86001 0.0
H2665 H 0.43724 0.18244 0.84655 0.0
H2666 H 0.39402 0.23499 0.82623 0.0
H2667 H 0.36864 0.20855 0.82874 0.0
H2668 H 0.38357 0.23019 0.84375 0.0
H2669 H 0.43632 0.17063 0.82239 0.0
H2670 H 0.4097 0.16304 0.812 0.0
H2671 H 0.43501 0.18985 0.81002 0.0
H2672 H 0.35003 0.16527 0.78681 0.0
H2673 H 0.41076 0.22951 0.78147 0.0
H2674 H 0.35661 0.16738 0.82371 0.0
H2675 H 0.37096 0.15235 0.81808 0.0
H2676 H 0.34479 0.14682 0.80798 0.0
H2677 H 0.43141 0.24645 0.81698 0.0
H2678 H 0.44166 0.24854 0.79944 0.0
H2679 H 0.44484 0.23028 0.81183 0.0
C2680 C 0.80883 0.2183 0.84407 0.0
C2681 C 0.79814 0.19783 0.85092 0.0
C2682 C 0.81682 0.21859 0.83051 0.0
C2683 C 0.81406 0.19791 0.82358 0.0
C2684 C 0.80303 0.17712 0.83034 0.0
C2685 C 0.79522 0.17733 0.84391 0.0
C2686 C 0.82842 0.2411 0.82364 0.0
C2687 C 0.7998 0.15471 0.82332 0.0
C2688 C 0.81856 0.19445 0.78323 0.0
C2689 C 0.84121 0.19901 0.78274 0.0
C2690 C 0.80946 0.19398 0.79642 0.0
C2691 C 0.82333 0.19817 0.80946 0.0
C2692 C 0.84617 0.20273 0.80904 0.0
C2693 C 0.85481 0.20307 0.79571 0.0
C2694 C 0.78503 0.1891 0.79641 0.0
C2695 C 0.86149 0.20719 0.82269 0.0
H2696 H 0.81085 0.23414 0.8493 0.0
H2697 H 0.78723 0.16149 0.84918 0.0
H2698 H 0.84636 0.24583 0.82201 0.0
H2699 H 0.81939 0.2391 0.81289 0.0
H2700 H 0.82876 0.25555 0.83028 0.0
H2701 H 0.79022 0.13991 0.82976 0.0
H2702 H 0.79034 0.15071 0.81248 0.0
H2703 H 0.8168 0.15646 0.82186 0.0
H2704 H 0.80801 0.19155 0.77328 0.0
H2705 H 0.87219 0.20623 0.79544 0.0
H2706 H 0.78483 0.20395 0.80211 0.0
H2707 H 0.77489 0.17375 0.8023 0.0
H2708 H 0.77641 0.18588 0.78535 0.0
H2709 H 0.86345 0.22237 0.82938 0.0
H2710 H 0.87885 0.21047 0.82052 0.0
H2711 H 0.85352 0.19211 0.82912 0.0
C2712 C 0.29156 0.15048 0.51859 0.0
C2713 C 0.27847 0.16091 0.51515 0.0
C2714 C 0.29935 0.15083 0.5329 0.0
C2715 C 0.29401 0.16196 0.54407 0.0
C2716 C 0.28073 0.17244 0.5407 0.0
C2717 C 0.27309 0.17177 0.52628 0.0
C2718 C 0.31353 0.13951 0.53607 0.0
C2719 C 0.2747 0.18447 0.55231 0.0
C2720 C 0.29886 0.14599 0.58202 0.0
C2721 C 0.32074 0.16402 0.5875 0.0
C2722 C 0.28976 0.14528 0.56797 0.0
C2723 C 0.30282 0.16306 0.55923 0.0
C2724 C 0.32469 0.18158 0.56482 0.0
C2725 C 0.33338 0.18182 0.57887 0.0
C2726 C 0.26641 0.12522 0.56237 0.0
C2727 C 0.33906 0.20096 0.55587 0.0
H2728 H 0.29608 0.14236 0.51005 0.0
H2729 H 0.26273 0.17959 0.52373 0.0
H2730 H 0.33082 0.15265 0.5412 0.0
H2731 H 0.30534 0.12634 0.54377 0.0
H2732 H 0.31564 0.13103 0.52621 0.0
H2733 H 0.26401 0.19154 0.54792 0.0
H2734 H 0.26521 0.17223 0.56025 0.0
H2735 H 0.29064 0.19889 0.5582 0.0
H2736 H 0.28911 0.13209 0.5886 0.0
H2737 H 0.35014 0.19599 0.58313 0.0
H2738 H 0.26812 0.11526 0.55314 0.0
H2739 H 0.25499 0.13168 0.55839 0.0
H2740 H 0.25804 0.11331 0.57073 0.0
H2741 H 0.34328 0.19392 0.54625 0.0
H2742 H 0.35537 0.21448 0.56198 0.0
H2743 H 0.32922 0.20919 0.55197 0.0
C2744 C 0.91054 0.1651 0.53367 0.0
C2745 C 0.8954 0.16045 0.52135 0.0
C2746 C 0.90344 0.16473 0.54753 0.0
C2747 C 0.88067 0.15964 0.54914 0.0
C2748 C 0.86534 0.15501 0.53675 0.0
C2749 C 0.87287 0.15545 0.52303 0.0
C2750 C 0.92027 0.16966 0.56046 0.0
C2751 C 0.84096 0.14965 0.538 0.0
C2752 C 0.85454 0.13773 0.58399 0.0
C2753 C 0.85668 0.15777 0.59116 0.0
C2754 C 0.8625 0.13815 0.5704 0.0
C2755 C 0.87282 0.1591 0.56377 0.0
C2756 C 0.87527 0.17945 0.57101 0.0
C2757 C 0.8672 0.17854 0.58461 0.0
C2758 C 0.8597 0.11611 0.56308 0.0
C2759 C 0.8861 0.20211 0.56429 0.0
H2760 H 0.92788 0.1687 0.53248 0.0
H2761 H 0.86117 0.15215 0.51358 0.0
H2762 H 0.92249 0.18467 0.56747 0.0
H2763 H 0.91347 0.1546 0.56695 0.0
H2764 H 0.93739 0.17342 0.55739 0.0
H2765 H 0.83121 0.14649 0.52733 0.0
H2766 H 0.83177 0.13412 0.54392 0.0
H2767 H 0.84103 0.16424 0.54426 0.0
H2768 H 0.84673 0.12169 0.58906 0.0
H2769 H 0.86867 0.19404 0.58998 0.0
H2770 H 0.87668 0.11874 0.56057 0.0
H2771 H 0.84879 0.11143 0.55273 0.0
H2772 H 0.85175 0.10137 0.5698 0.0
H2773 H 0.90366 0.20684 0.56168 0.0
H2774 H 0.88721 0.21648 0.57146 0.0
H2775 H 0.87591 0.20032 0.55405 0.0
C2776 C 0.87853 0.76809 0.5354 0.0
C2777 C 0.88126 0.75527 0.52411 0.0
C2778 C 0.87363 0.75975 0.54897 0.0
C2779 C 0.87149 0.73806 0.55136 0.0
C2780 C 0.87519 0.72548 0.5402 0.0
C2781 C 0.88001 0.73421 0.52671 0.0
C2782 C 0.86992 0.77376 0.56058 0.0
C2783 C 0.87311 0.70232 0.54233 0.0
C2784 C 0.87199 0.72229 0.58989 0.0
C2785 C 0.84842 0.70828 0.5912 0.0
C2786 C 0.87982 0.73207 0.57699 0.0
C2787 C 0.86369 0.7278 0.56513 0.0
C2788 C 0.83989 0.7138 0.56643 0.0
C2789 C 0.83256 0.70424 0.57943 0.0
C2790 C 0.90533 0.74684 0.57602 0.0
C2791 C 0.8221 0.70895 0.55409 0.0
H2792 H 0.87989 0.78458 0.53356 0.0
H2793 H 0.88189 0.72409 0.51803 0.0
H2794 H 0.85179 0.76421 0.56313 0.0
H2795 H 0.88093 0.77635 0.5706 0.0
H2796 H 0.87374 0.79096 0.55734 0.0
H2797 H 0.87841 0.69566 0.53305 0.0
H2798 H 0.88382 0.70363 0.55221 0.0
H2799 H 0.85502 0.68952 0.54379 0.0
H2800 H 0.88436 0.72528 0.59889 0.0
H2801 H 0.81432 0.69374 0.58042 0.0
H2802 H 0.9095 0.76433 0.5732 0.0
H2803 H 0.91063 0.73911 0.56732 0.0
H2804 H 0.91562 0.74869 0.58625 0.0
H2805 H 0.82375 0.72544 0.55095 0.0
H2806 H 0.80427 0.69762 0.55682 0.0
H2807 H 0.82501 0.70048 0.54457 0.0
loop_
_geom_bond_atom_site_label_1
_geom_bond_atom_site_label_2
_geom_bond_distance
_geom_bond_site_symmetry_2
_ccdc_geom_bond_type
C0 C1 1.264 . S
C0 C5 1.479 . S
C0 C10 1.465 . S
C1 C0 1.264 . S
C1 C3 1.339 . S
C1 H28 0.931 . S
C2 C3 1.395 . S
C2 C4 1.320 . S
C3 C1 1.339 . S
C3 C2 1.395 . S
C3 H29 0.929 . S
C4 C2 1.320 . S
C4 C5 1.405 . S
C4 H30 0.930 . S
C5 C0 1.479 . S
C5 C4 1.405 . S
C5 H31 0.931 . S
U6 O7 2.454 . S
U6 O8 2.458 . S
U6 C9 2.984 . S
U6 C10 2.847 . S
U6 C23 2.882 . S
U6 O24 2.441 . S
U6 O25 2.420 . S
U6 O26 2.455 . S
U6 O27 2.449 . S
O7 U6 2.454 . S
O7 C9 1.353 . S
O8 U6 2.458 . S
O8 C9 1.286 . S
C9 U6 2.984 . S
C9 O7 1.353 . S
C9 O8 1.286 . S
C9 C11 1.363 . S
C10 C0 1.465 . S
C10 U6 2.847 . S
C10 O24 1.249 . S
C10 O25 1.202 . S
C11 C9 1.363 . S
C11 C13 1.408 . S
C11 C16 1.342 . S
C12 C13 1.310 . S
C12 C15 1.461 . S
C12 H32 0.932 . S
C13 C11 1.408 . S
C13 C12 1.310 . S
C13 H33 0.930 . S
C14 C15 1.474 . S
C14 C16 1.285 . S
C14 H34 0.929 . S
C15 C12 1.461 . S
C15 C14 1.474 . S
C16 C11 1.342 . S
C16 C14 1.285 . S
C16 H35 0.930 . S
C17 C20 1.424 . S
C17 C22 1.245 . S
C17 C23 1.428 . S
C18 C21 1.260 . S
C18 C22 1.477 . S
C18 H36 0.932 . S
C19 C20 1.384 . S
C19 C21 1.479 . S
C19 H37 0.929 . S
C20 C17 1.424 . S
C20 C19 1.384 . S
C20 H38 0.928 . S
C21 C18 1.260 . S
C21 C19 1.479 . S
C22 C17 1.245 . S
C22 C18 1.477 . S
C22 H39 0.932 . S
C23 U6 2.882 . S
C23 C17 1.428 . S
C23 O26 1.301 . S
C23 O27 1.282 . S
O24 U6 2.441 . S
O24 C10 1.249 . S
O25 U6 2.420 . S
O25 C10 1.202 . S
O26 U6 2.455 . S
O26 C23 1.301 . S
O27 U6 2.449 . S
O27 C23 1.282 . S
H28 C1 0.931 . S
H29 C3 0.929 . S
H30 C4 0.930 . S
H31 C5 0.931 . S
H32 C12 0.932 . S
H33 C13 0.930 . S
H34 C14 0.929 . S
H35 C16 0.930 . S
H36 C18 0.932 . S
H37 C19 0.929 . S
H38 C20 0.928 . S
H39 C22 0.932 . S
C40 C41 1.264 . S
C40 C45 1.479 . S
C40 C50 1.465 . S
C41 C40 1.264 . S
C41 C43 1.339 . S
C41 H68 0.931 . S
C42 C43 1.395 . S
C42 C44 1.320 . S
C43 C41 1.339 . S
C43 C42 1.395 . S
C43 H69 0.929 . S
C44 C42 1.320 . S
C44 C45 1.405 . S
C44 H70 0.930 . S
C45 C40 1.479 . S
C45 C44 1.405 . S
C45 H71 0.931 . S
U46 O47 2.454 . S
U46 O48 2.458 . S
U46 C49 2.984 . S
U46 C50 2.847 . S
U46 C63 2.882 . S
U46 O64 2.441 . S
U46 O65 2.420 . S
U46 O66 2.455 . S
U46 O67 2.449 . S
O47 U46 2.454 . S
O47 C49 1.353 . S
O48 U46 2.458 . S
O48 C49 1.286 . S
C49 U46 2.984 . S
C49 O47 1.353 . S
C49 O48 1.286 . S
C49 C51 1.363 . S
C50 C40 1.465 . S
C50 U46 2.847 . S
C50 O64 1.249 . S
C50 O65 1.202 . S
C51 C49 1.363 . S
C51 C53 1.408 . S
C51 C56 1.342 . S
C52 C53 1.310 . S
C52 C55 1.461 . S
C52 H72 0.932 . S
C53 C51 1.408 . S
C53 C52 1.310 . S
C53 H73 0.930 . S
C54 C55 1.474 . S
C54 C56 1.285 . S
C54 H74 0.929 . S
C55 C52 1.461 . S
C55 C54 1.474 . S
C56 C51 1.342 . S
C56 C54 1.285 . S
C56 H75 0.930 . S
C57 C60 1.424 . S
C57 C62 1.245 . S
C57 C63 1.428 . S
C58 C61 1.260 . S
C58 C62 1.477 . S
C58 H76 0.932 . S
C59 C60 1.384 . S
C59 C61 1.479 . S
C59 H77 0.929 . S
C60 C57 1.424 . S
C60 C59 1.384 . S
C60 H78 0.928 . S
C61 C58 1.260 . S
C61 C59 1.479 . S
C62 C57 1.245 . S
C62 C58 1.477 . S
C62 H79 0.932 . S
C63 U46 2.882 . S
C63 C57 1.428 . S
C63 O66 1.301 . S
C63 O67 1.282 . S
O64 U46 2.441 . S
O64 C50 1.249 . S
O65 U46 2.420 . S
O65 C50 1.202 . S
O66 U46 2.455 . S
O66 C63 1.301 . S
O67 U46 2.449 . S
O67 C63 1.282 . S
H68 C41 0.931 . S
H69 C43 0.929 . S
H70 C44 0.930 . S
H71 C45 0.931 . S
H72 C52 0.932 . S
H73 C53 0.930 . S
H74 C54 0.929 . S
H75 C56 0.930 . S
H76 C58 0.932 . S
H77 C59 0.929 . S
H78 C60 0.928 . S
H79 C62 0.932 . S
C80 C81 1.264 . S
C80 C85 1.479 . S
C80 C90 1.465 . S
C81 C80 1.264 . S
C81 C83 1.339 . S
C81 H108 0.931 . S
C82 C83 1.395 . S
C82 C84 1.320 . S
C83 C81 1.339 . S
C83 C82 1.395 . S
C83 H109 0.929 . S
C84 C82 1.320 . S
C84 C85 1.405 . S
C84 H110 0.930 . S
C85 C80 1.479 . S
C85 C84 1.405 . S
C85 H111 0.931 . S
U86 O87 2.454 . S
U86 O88 2.458 . S
U86 C89 2.984 . S
U86 C90 2.847 . S
U86 C103 2.882 . S
U86 O104 2.441 . S
U86 O105 2.420 . S
U86 O106 2.455 . S
U86 O107 2.449 . S
O87 U86 2.454 . S
O87 C89 1.353 . S
O88 U86 2.458 . S
O88 C89 1.286 . S
C89 U86 2.984 . S
C89 O87 1.353 . S
C89 O88 1.286 . S
C89 C91 1.363 . S
C90 C80 1.465 . S
C90 U86 2.847 . S
C90 O104 1.249 . S
C90 O105 1.202 . S
C91 C89 1.363 . S
C91 C93 1.408 . S
C91 C96 1.342 . S
C92 C93 1.310 . S
C92 C95 1.461 . S
C92 H112 0.932 . S
C93 C91 1.408 . S
C93 C92 1.310 . S
C93 H113 0.930 . S
C94 C95 1.474 . S
C94 C96 1.285 . S
C94 H114 0.929 . S
C95 C92 1.461 . S
C95 C94 1.474 . S
C96 C91 1.342 . S
C96 C94 1.285 . S
C96 H115 0.930 . S
C97 C100 1.424 . S
C97 C102 1.245 . S
C97 C103 1.428 . S
C98 C101 1.260 . S
C98 C102 1.477 . S
C98 H116 0.932 . S
C99 C100 1.384 . S
C99 C101 1.479 . S
C99 H117 0.929 . S
C100 C97 1.424 . S
C100 C99 1.384 . S
C100 H118 0.928 . S
C101 C98 1.260 . S
C101 C99 1.479 . S
C102 C97 1.245 . S
C102 C98 1.477 . S
C102 H119 0.932 . S
C103 U86 2.882 . S
C103 C97 1.428 . S
C103 O106 1.301 . S
C103 O107 1.282 . S
O104 U86 2.441 . S
O104 C90 1.249 . S
O105 U86 2.420 . S
O105 C90 1.202 . S
O106 U86 2.455 . S
O106 C103 1.301 . S
O107 U86 2.449 . S
O107 C103 1.282 . S
H108 C81 0.931 . S
H109 C83 0.929 . S
H110 C84 0.930 . S
H111 C85 0.931 . S
H112 C92 0.932 . S
H113 C93 0.930 . S
H114 C94 0.929 . S
H115 C96 0.930 . S
H116 C98 0.932 . S
H117 C99 0.929 . S
H118 C100 0.928 . S
H119 C102 0.932 . S
C120 C121 1.264 . S
C120 C125 1.479 . S
C120 C130 1.465 . S
C121 C120 1.264 . S
C121 C123 1.339 . S
C121 H148 0.931 . S
C122 C123 1.395 . S
C122 C124 1.320 . S
C123 C121 1.339 . S
C123 C122 1.395 . S
C123 H149 0.929 . S
C124 C122 1.320 . S
C124 C125 1.405 . S
C124 H150 0.930 . S
C125 C120 1.479 . S
C125 C124 1.405 . S
C125 H151 0.931 . S
U126 O127 2.454 . S
U126 O128 2.458 . S
U126 C129 2.984 . S
U126 C130 2.847 . S
U126 C143 2.882 . S
U126 O144 2.441 . S
U126 O145 2.420 . S
U126 O146 2.455 . S
U126 O147 2.449 . S
O127 U126 2.454 . S
O127 C129 1.353 . S
O128 U126 2.458 . S
O128 C129 1.286 . S
C129 U126 2.984 . S
C129 O127 1.353 . S
C129 O128 1.286 . S
C129 C131 1.363 . S
C130 C120 1.465 . S
C130 U126 2.847 . S
C130 O144 1.249 . S
C130 O145 1.202 . S
C131 C129 1.363 . S
C131 C133 1.408 . S
C131 C136 1.342 . S
C132 C133 1.310 . S
C132 C135 1.461 . S
C132 H152 0.932 . S
C133 C131 1.408 . S
C133 C132 1.310 . S
C133 H153 0.930 . S
C134 C135 1.474 . S
C134 C136 1.285 . S
C134 H154 0.929 . S
C135 C132 1.461 . S
C135 C134 1.474 . S
C136 C131 1.342 . S
C136 C134 1.285 . S
C136 H155 0.930 . S
C137 C140 1.424 . S
C137 C142 1.245 . S
C137 C143 1.428 . S
C138 C141 1.260 . S
C138 C142 1.477 . S
C138 H156 0.932 . S
C139 C140 1.384 . S
C139 C141 1.479 . S
C139 H157 0.929 . S
C140 C137 1.424 . S
C140 C139 1.384 . S
C140 H158 0.928 . S
C141 C138 1.260 . S
C141 C139 1.479 . S
C142 C137 1.245 . S
C142 C138 1.477 . S
C142 H159 0.932 . S
C143 U126 2.882 . S
C143 C137 1.428 . S
C143 O146 1.301 . S
C143 O147 1.282 . S
O144 U126 2.441 . S
O144 C130 1.249 . S
O145 U126 2.420 . S
O145 C130 1.202 . S
O146 U126 2.455 . S
O146 C143 1.301 . S
O147 U126 2.449 . S
O147 C143 1.282 . S
H148 C121 0.931 . S
H149 C123 0.929 . S
H150 C124 0.930 . S
H151 C125 0.931 . S
H152 C132 0.932 . S
H153 C133 0.930 . S
H154 C134 0.929 . S
H155 C136 0.930 . S
H156 C138 0.932 . S
H157 C139 0.929 . S
H158 C140 0.928 . S
H159 C142 0.932 . S
C160 C161 1.264 . S
C160 C165 1.479 . S
C160 C170 1.465 . S
C161 C160 1.264 . S
C161 C163 1.339 . S
C161 H188 0.931 . S
C162 C163 1.395 . S
C162 C164 1.320 . S
C163 C161 1.339 . S
C163 C162 1.395 . S
C163 H189 0.929 . S
C164 C162 1.320 . S
C164 C165 1.405 . S
C164 H190 0.930 . S
C165 C160 1.479 . S
C165 C164 1.405 . S
C165 H191 0.931 . S
U166 O167 2.454 . S
U166 O168 2.458 . S
U166 C169 2.984 . S
U166 C170 2.847 . S
U166 C183 2.882 . S
U166 O184 2.441 . S
U166 O185 2.420 . S
U166 O186 2.455 . S
U166 O187 2.449 . S
O167 U166 2.454 . S
O167 C169 1.353 . S
O168 U166 2.458 . S
O168 C169 1.286 . S
C169 U166 2.984 . S
C169 O167 1.353 . S
C169 O168 1.286 . S
C169 C171 1.363 . S
C170 C160 1.465 . S
C170 U166 2.847 . S
C170 O184 1.249 . S
C170 O185 1.202 . S
C171 C169 1.363 . S
C171 C173 1.408 . S
C171 C176 1.342 . S
C172 C173 1.310 . S
C172 C175 1.461 . S
C172 H192 0.932 . S
C173 C171 1.408 . S
C173 C172 1.310 . S
C173 H193 0.930 . S
C174 C175 1.474 . S
C174 C176 1.285 . S
C174 H194 0.929 . S
C175 C172 1.461 . S
C175 C174 1.474 . S
C176 C171 1.342 . S
C176 C174 1.285 . S
C176 H195 0.930 . S
C177 C180 1.424 . S
C177 C182 1.245 . S
C177 C183 1.428 . S
C178 C181 1.260 . S
C178 C182 1.477 . S
C178 H196 0.932 . S
C179 C180 1.384 . S
C179 C181 1.479 . S
C179 H197 0.929 . S
C180 C177 1.424 . S
C180 C179 1.384 . S
C180 H198 0.928 . S
C181 C178 1.260 . S
C181 C179 1.479 . S
C182 C177 1.245 . S
C182 C178 1.477 . S
C182 H199 0.932 . S
C183 U166 2.882 . S
C183 C177 1.428 . S
C183 O186 1.301 . S
C183 O187 1.282 . S
O184 U166 2.441 . S
O184 C170 1.249 . S
O185 U166 2.420 . S
O185 C170 1.202 . S
O186 U166 2.455 . S
O186 C183 1.301 . S
O187 U166 2.449 . S
O187 C183 1.282 . S
H188 C161 0.931 . S
H189 C163 0.929 . S
H190 C164 0.930 . S
H191 C165 0.931 . S
H192 C172 0.932 . S
H193 C173 0.930 . S
H194 C174 0.929 . S
H195 C176 0.930 . S
H196 C178 0.932 . S
H197 C179 0.929 . S
H198 C180 0.928 . S
H199 C182 0.932 . S
C200 C201 1.264 . S
C200 C205 1.479 . S
C200 C210 1.465 . S
C201 C200 1.264 . S
C201 C203 1.339 . S
C201 H228 0.931 . S
C202 C203 1.395 . S
C202 C204 1.320 . S
C203 C201 1.339 . S
C203 C202 1.395 . S
C203 H229 0.929 . S
C204 C202 1.320 . S
C204 C205 1.405 . S
C204 H230 0.930 . S
C205 C200 1.479 . S
C205 C204 1.405 . S
C205 H231 0.931 . S
U206 O207 2.454 . S
U206 O208 2.458 . S
U206 C209 2.984 . S
U206 C210 2.847 . S
U206 C223 2.882 . S
U206 O224 2.441 . S
U206 O225 2.420 . S
U206 O226 2.455 . S
U206 O227 2.449 . S
O207 U206 2.454 . S
O207 C209 1.353 . S
O208 U206 2.458 . S
O208 C209 1.286 . S
C209 U206 2.984 . S
C209 O207 1.353 . S
C209 O208 1.286 . S
C209 C211 1.363 . S
C210 C200 1.465 . S
C210 U206 2.847 . S
C210 O224 1.249 . S
C210 O225 1.202 . S
C211 C209 1.363 . S
C211 C213 1.408 . S
C211 C216 1.342 . S
C212 C213 1.310 . S
C212 C215 1.461 . S
C212 H232 0.932 . S
C213 C211 1.408 . S
C213 C212 1.310 . S
C213 H233 0.930 . S
C214 C215 1.474 . S
C214 C216 1.285 . S
C214 H234 0.929 . S
C215 C212 1.461 . S
C215 C214 1.474 . S
C216 C211 1.342 . S
C216 C214 1.285 . S
C216 H235 0.930 . S
C217 C220 1.424 . S
C217 C222 1.245 . S
C217 C223 1.428 . S
C218 C221 1.260 . S
C218 C222 1.477 . S
C218 H236 0.932 . S
C219 C220 1.384 . S
C219 C221 1.479 . S
C219 H237 0.929 . S
C220 C217 1.424 . S
C220 C219 1.384 . S
C220 H238 0.928 . S
C221 C218 1.260 . S
C221 C219 1.479 . S
C222 C217 1.245 . S
C222 C218 1.477 . S
C222 H239 0.932 . S
C223 U206 2.882 . S
C223 C217 1.428 . S
C223 O226 1.301 . S
C223 O227 1.282 . S
O224 U206 2.441 . S
O224 C210 1.249 . S
O225 U206 2.420 . S
O225 C210 1.202 . S
O226 U206 2.455 . S
O226 C223 1.301 . S
O227 U206 2.449 . S
O227 C223 1.282 . S
H228 C201 0.931 . S
H229 C203 0.929 . S
H230 C204 0.930 . S
H231 C205 0.931 . S
H232 C212 0.932 . S
H233 C213 0.930 . S
H234 C214 0.929 . S
H235 C216 0.930 . S
H236 C218 0.932 . S
H237 C219 0.929 . S
H238 C220 0.928 . S
H239 C222 0.932 . S
C240 C241 1.264 . S
C240 C245 1.479 . S
C240 C250 1.465 . S
C241 C240 1.264 . S
C241 C243 1.339 . S
C241 H268 0.931 . S
C242 C243 1.395 . S
C242 C244 1.320 . S
C243 C241 1.339 . S
C243 C242 1.395 . S
C243 H269 0.929 . S
C244 C242 1.320 . S
C244 C245 1.405 . S
C244 H270 0.930 . S
C245 C240 1.479 . S
C245 C244 1.405 . S
C245 H271 0.931 . S
U246 O247 2.454 . S
U246 O248 2.458 . S
U246 C249 2.984 . S
U246 C250 2.847 . S
U246 C263 2.882 . S
U246 O264 2.441 . S
U246 O265 2.420 . S
U246 O266 2.455 . S
U246 O267 2.449 . S
O247 U246 2.454 . S
O247 C249 1.353 . S
O248 U246 2.458 . S
O248 C249 1.286 . S
C249 U246 2.984 . S
C249 O247 1.353 . S
C249 O248 1.286 . S
C249 C251 1.363 . S
C250 C240 1.465 . S
C250 U246 2.847 . S
C250 O264 1.249 . S
C250 O265 1.202 . S
C251 C249 1.363 . S
C251 C253 1.408 . S
C251 C256 1.342 . S
C252 C253 1.310 . S
C252 C255 1.461 . S
C252 H272 0.932 . S
C253 C251 1.408 . S
C253 C252 1.310 . S
C253 H273 0.930 . S
C254 C255 1.474 . S
C254 C256 1.285 . S
C254 H274 0.929 . S
C255 C252 1.461 . S
C255 C254 1.474 . S
C256 C251 1.342 . S
C256 C254 1.285 . S
C256 H275 0.930 . S
C257 C260 1.424 . S
C257 C262 1.245 . S
C257 C263 1.428 . S
C258 C261 1.260 . S
C258 C262 1.477 . S
C258 H276 0.932 . S
C259 C260 1.384 . S
C259 C261 1.479 . S
C259 H277 0.929 . S
C260 C257 1.424 . S
C260 C259 1.384 . S
C260 H278 0.928 . S
C261 C258 1.260 . S
C261 C259 1.479 . S
C262 C257 1.245 . S
C262 C258 1.477 . S
C262 H279 0.932 . S
C263 U246 2.882 . S
C263 C257 1.428 . S
C263 O266 1.301 . S
C263 O267 1.282 . S
O264 U246 2.441 . S
O264 C250 1.249 . S
O265 U246 2.420 . S
O265 C250 1.202 . S
O266 U246 2.455 . S
O266 C263 1.301 . S
O267 U246 2.449 . S
O267 C263 1.282 . S
H268 C241 0.931 . S
H269 C243 0.929 . S
H270 C244 0.930 . S
H271 C245 0.931 . S
H272 C252 0.932 . S
H273 C253 0.930 . S
H274 C254 0.929 . S
H275 C256 0.930 . S
H276 C258 0.932 . S
H277 C259 0.929 . S
H278 C260 0.928 . S
H279 C262 0.932 . S
C280 C281 1.264 . S
C280 C285 1.479 . S
C280 C290 1.465 . S
C281 C280 1.264 . S
C281 C283 1.339 . S
C281 H308 0.931 . S
C282 C283 1.395 . S
C282 C284 1.320 . S
C283 C281 1.339 . S
C283 C282 1.395 . S
C283 H309 0.929 . S
C284 C282 1.320 . S
C284 C285 1.405 . S
C284 H310 0.930 . S
C285 C280 1.479 . S
C285 C284 1.405 . S
C285 H311 0.931 . S
U286 O287 2.454 . S
U286 O288 2.458 . S
U286 C289 2.984 . S
U286 C290 2.847 . S
U286 C303 2.882 . S
U286 O304 2.441 . S
U286 O305 2.420 . S
U286 O306 2.455 . S
U286 O307 2.449 . S
O287 U286 2.454 . S
O287 C289 1.353 . S
O288 U286 2.458 . S
O288 C289 1.286 . S
C289 U286 2.984 . S
C289 O287 1.353 . S
C289 O288 1.286 . S
C289 C291 1.363 . S
C290 C280 1.465 . S
C290 U286 2.847 . S
C290 O304 1.249 . S
C290 O305 1.202 . S
C291 C289 1.363 . S
C291 C293 1.408 . S
C291 C296 1.342 . S
C292 C293 1.310 . S
C292 C295 1.461 . S
C292 H312 0.932 . S
C293 C291 1.408 . S
C293 C292 1.310 . S
C293 H313 0.930 . S
C294 C295 1.474 . S
C294 C296 1.285 . S
C294 H314 0.929 . S
C295 C292 1.461 . S
C295 C294 1.474 . S
C296 C291 1.342 . S
C296 C294 1.285 . S
C296 H315 0.930 . S
C297 C300 1.424 . S
C297 C302 1.245 . S
C297 C303 1.428 . S
C298 C301 1.260 . S
C298 C302 1.477 . S
C298 H316 0.932 . S
C299 C300 1.384 . S
C299 C301 1.479 . S
C299 H317 0.929 . S
C300 C297 1.424 . S
C300 C299 1.384 . S
C300 H318 0.928 . S
C301 C298 1.260 . S
C301 C299 1.479 . S
C302 C297 1.245 . S
C302 C298 1.477 . S
C302 H319 0.932 . S
C303 U286 2.882 . S
C303 C297 1.428 . S
C303 O306 1.301 . S
C303 O307 1.282 . S
O304 U286 2.441 . S
O304 C290 1.249 . S
O305 U286 2.420 . S
O305 C290 1.202 . S
O306 U286 2.455 . S
O306 C303 1.301 . S
O307 U286 2.449 . S
O307 C303 1.282 . S
H308 C281 0.931 . S
H309 C283 0.929 . S
H310 C284 0.930 . S
H311 C285 0.931 . S
H312 C292 0.932 . S
H313 C293 0.930 . S
H314 C294 0.929 . S
H315 C296 0.930 . S
H316 C298 0.932 . S
H317 C299 0.929 . S
H318 C300 0.928 . S
H319 C302 0.932 . S
C320 C321 1.264 . S
C320 C325 1.479 . S
C320 C330 1.465 . S
C321 C320 1.264 . S
C321 C323 1.339 . S
C321 H348 0.931 . S
C322 C323 1.395 . S
C322 C324 1.320 . S
C323 C321 1.339 . S
C323 C322 1.395 . S
C323 H349 0.929 . S
C324 C322 1.320 . S
C324 C325 1.405 . S
C324 H350 0.930 . S
C325 C320 1.479 . S
C325 C324 1.405 . S
C325 H351 0.931 . S
U326 O327 2.454 . S
U326 O328 2.458 . S
U326 C329 2.984 . S
U326 C330 2.847 . S
U326 C343 2.882 . S
U326 O344 2.441 . S
U326 O345 2.420 . S
U326 O346 2.455 . S
U326 O347 2.449 . S
O327 U326 2.454 . S
O327 C329 1.353 . S
O328 U326 2.458 . S
O328 C329 1.286 . S
C329 U326 2.984 . S
C329 O327 1.353 . S
C329 O328 1.286 . S
C329 C331 1.363 . S
C330 C320 1.465 . S
C330 U326 2.847 . S
C330 O344 1.249 . S
C330 O345 1.202 . S
C331 C329 1.363 . S
C331 C333 1.408 . S
C331 C336 1.342 . S
C332 C333 1.310 . S
C332 C335 1.461 . S
C332 H352 0.932 . S
C333 C331 1.408 . S
C333 C332 1.310 . S
C333 H353 0.930 . S
C334 C335 1.474 . S
C334 C336 1.285 . S
C334 H354 0.929 . S
C335 C332 1.461 . S
C335 C334 1.474 . S
C336 C331 1.342 . S
C336 C334 1.285 . S
C336 H355 0.930 . S
C337 C340 1.424 . S
C337 C342 1.245 . S
C337 C343 1.428 . S
C338 C341 1.260 . S
C338 C342 1.477 . S
C338 H356 0.932 . S
C339 C340 1.384 . S
C339 C341 1.479 . S
C339 H357 0.929 . S
C340 C337 1.424 . S
C340 C339 1.384 . S
C340 H358 0.928 . S
C341 C338 1.260 . S
C341 C339 1.479 . S
C342 C337 1.245 . S
C342 C338 1.477 . S
C342 H359 0.932 . S
C343 U326 2.882 . S
C343 C337 1.428 . S
C343 O346 1.301 . S
C343 O347 1.282 . S
O344 U326 2.441 . S
O344 C330 1.249 . S
O345 U326 2.420 . S
O345 C330 1.202 . S
O346 U326 2.455 . S
O346 C343 1.301 . S
O347 U326 2.449 . S
O347 C343 1.282 . S
H348 C321 0.931 . S
H349 C323 0.929 . S
H350 C324 0.930 . S
H351 C325 0.931 . S
H352 C332 0.932 . S
H353 C333 0.930 . S
H354 C334 0.929 . S
H355 C336 0.930 . S
H356 C338 0.932 . S
H357 C339 0.929 . S
H358 C340 0.928 . S
H359 C342 0.932 . S
C360 C361 1.264 . S
C360 C365 1.479 . S
C360 C370 1.465 . S
C361 C360 1.264 . S
C361 C363 1.339 . S
C361 H388 0.931 . S
C362 C363 1.395 . S
C362 C364 1.320 . S
C363 C361 1.339 . S
C363 C362 1.395 . S
C363 H389 0.929 . S
C364 C362 1.320 . S
C364 C365 1.405 . S
C364 H390 0.930 . S
C365 C360 1.479 . S
C365 C364 1.405 . S
C365 H391 0.931 . S
U366 O367 2.454 . S
U366 O368 2.458 . S
U366 C369 2.984 . S
U366 C370 2.847 . S
U366 C383 2.882 . S
U366 O384 2.441 . S
U366 O385 2.420 . S
U366 O386 2.455 . S
U366 O387 2.449 . S
O367 U366 2.454 . S
O367 C369 1.353 . S
O368 U366 2.458 . S
O368 C369 1.286 . S
C369 U366 2.984 . S
C369 O367 1.353 . S
C369 O368 1.286 . S
C369 C371 1.363 . S
C370 C360 1.465 . S
C370 U366 2.847 . S
C370 O384 1.249 . S
C370 O385 1.202 . S
C371 C369 1.363 . S
C371 C373 1.408 . S
C371 C376 1.342 . S
C372 C373 1.310 . S
C372 C375 1.461 . S
C372 H392 0.932 . S
C373 C371 1.408 . S
C373 C372 1.310 . S
C373 H393 0.930 . S
C374 C375 1.474 . S
C374 C376 1.285 . S
C374 H394 0.929 . S
C375 C372 1.461 . S
C375 C374 1.474 . S
C376 C371 1.342 . S
C376 C374 1.285 . S
C376 H395 0.930 . S
C377 C380 1.424 . S
C377 C382 1.245 . S
C377 C383 1.428 . S
C378 C381 1.260 . S
C378 C382 1.477 . S
C378 H396 0.932 . S
C379 C380 1.384 . S
C379 C381 1.479 . S
C379 H397 0.929 . S
C380 C377 1.424 . S
C380 C379 1.384 . S
C380 H398 0.928 . S
C381 C378 1.260 . S
C381 C379 1.479 . S
C382 C377 1.245 . S
C382 C378 1.477 . S
C382 H399 0.932 . S
C383 U366 2.882 . S
C383 C377 1.428 . S
C383 O386 1.301 . S
C383 O387 1.282 . S
O384 U366 2.441 . S
O384 C370 1.249 . S
O385 U366 2.420 . S
O385 C370 1.202 . S
O386 U366 2.455 . S
O386 C383 1.301 . S
O387 U366 2.449 . S
O387 C383 1.282 . S
H388 C361 0.931 . S
H389 C363 0.929 . S
H390 C364 0.930 . S
H391 C365 0.931 . S
H392 C372 0.932 . S
H393 C373 0.930 . S
H394 C374 0.929 . S
H395 C376 0.930 . S
H396 C378 0.932 . S
H397 C379 0.929 . S
H398 C380 0.928 . S
H399 C382 0.932 . S
C400 C401 1.264 . S
C400 C405 1.479 . S
C400 C410 1.465 . S
C401 C400 1.264 . S
C401 C403 1.339 . S
C401 H428 0.931 . S
C402 C403 1.395 . S
C402 C404 1.320 . S
C403 C401 1.339 . S
C403 C402 1.395 . S
C403 H429 0.929 . S
C404 C402 1.320 . S
C404 C405 1.405 . S
C404 H430 0.930 . S
C405 C400 1.479 . S
C405 C404 1.405 . S
C405 H431 0.931 . S
U406 O407 2.454 . S
U406 O408 2.458 . S
U406 C409 2.984 . S
U406 C410 2.847 . S
U406 C423 2.882 . S
U406 O424 2.441 . S
U406 O425 2.420 . S
U406 O426 2.455 . S
U406 O427 2.449 . S
O407 U406 2.454 . S
O407 C409 1.353 . S
O408 U406 2.458 . S
O408 C409 1.286 . S
C409 U406 2.984 . S
C409 O407 1.353 . S
C409 O408 1.286 . S
C409 C411 1.363 . S
C410 C400 1.465 . S
C410 U406 2.847 . S
C410 O424 1.249 . S
C410 O425 1.202 . S
C411 C409 1.363 . S
C411 C413 1.408 . S
C411 C416 1.342 . S
C412 C413 1.310 . S
C412 C415 1.461 . S
C412 H432 0.932 . S
C413 C411 1.408 . S
C413 C412 1.310 . S
C413 H433 0.930 . S
C414 C415 1.474 . S
C414 C416 1.285 . S
C414 H434 0.929 . S
C415 C412 1.461 . S
C415 C414 1.474 . S
C416 C411 1.342 . S
C416 C414 1.285 . S
C416 H435 0.930 . S
C417 C420 1.424 . S
C417 C422 1.245 . S
C417 C423 1.428 . S
C418 C421 1.260 . S
C418 C422 1.477 . S
C418 H436 0.932 . S
C419 C420 1.384 . S
C419 C421 1.479 . S
C419 H437 0.929 . S
C420 C417 1.424 . S
C420 C419 1.384 . S
C420 H438 0.928 . S
C421 C418 1.260 . S
C421 C419 1.479 . S
C422 C417 1.245 . S
C422 C418 1.477 . S
C422 H439 0.932 . S
C423 U406 2.882 . S
C423 C417 1.428 . S
C423 O426 1.301 . S
C423 O427 1.282 . S
O424 U406 2.441 . S
O424 C410 1.249 . S
O425 U406 2.420 . S
O425 C410 1.202 . S
O426 U406 2.455 . S
O426 C423 1.301 . S
O427 U406 2.449 . S
O427 C423 1.282 . S
H428 C401 0.931 . S
H429 C403 0.929 . S
H430 C404 0.930 . S
H431 C405 0.931 . S
H432 C412 0.932 . S
H433 C413 0.930 . S
H434 C414 0.929 . S
H435 C416 0.930 . S
H436 C418 0.932 . S
H437 C419 0.929 . S
H438 C420 0.928 . S
H439 C422 0.932 . S
C440 C441 1.264 . S
C440 C445 1.479 . S
C440 C450 1.465 . S
C441 C440 1.264 . S
C441 C443 1.339 . S
C441 H468 0.931 . S
C442 C443 1.395 . S
C442 C444 1.320 . S
C443 C441 1.339 . S
C443 C442 1.395 . S
C443 H469 0.929 . S
C444 C442 1.320 . S
C444 C445 1.405 . S
C444 H470 0.930 . S
C445 C440 1.479 . S
C445 C444 1.405 . S
C445 H471 0.931 . S
U446 O447 2.454 . S
U446 O448 2.458 . S
U446 C449 2.984 . S
U446 C450 2.847 . S
U446 C463 2.882 . S
U446 O464 2.441 . S
U446 O465 2.420 . S
U446 O466 2.455 . S
U446 O467 2.449 . S
O447 U446 2.454 . S
O447 C449 1.353 . S
O448 U446 2.458 . S
O448 C449 1.286 . S
C449 U446 2.984 . S
C449 O447 1.353 . S
C449 O448 1.286 . S
C449 C451 1.363 . S
C450 C440 1.465 . S
C450 U446 2.847 . S
C450 O464 1.249 . S
C450 O465 1.202 . S
C451 C449 1.363 . S
C451 C453 1.408 . S
C451 C456 1.342 . S
C452 C453 1.310 . S
C452 C455 1.461 . S
C452 H472 0.932 . S
C453 C451 1.408 . S
C453 C452 1.310 . S
C453 H473 0.930 . S
C454 C455 1.474 . S
C454 C456 1.285 . S
C454 H474 0.929 . S
C455 C452 1.461 . S
C455 C454 1.474 . S
C456 C451 1.342 . S
C456 C454 1.285 . S
C456 H475 0.930 . S
C457 C460 1.424 . S
C457 C462 1.245 . S
C457 C463 1.428 . S
C458 C461 1.260 . S
C458 C462 1.477 . S
C458 H476 0.932 . S
C459 C460 1.384 . S
C459 C461 1.479 . S
C459 H477 0.929 . S
C460 C457 1.424 . S
C460 C459 1.384 . S
C460 H478 0.928 . S
C461 C458 1.260 . S
C461 C459 1.479 . S
C462 C457 1.245 . S
C462 C458 1.477 . S
C462 H479 0.932 . S
C463 U446 2.882 . S
C463 C457 1.428 . S
C463 O466 1.301 . S
C463 O467 1.282 . S
O464 U446 2.441 . S
O464 C450 1.249 . S
O465 U446 2.420 . S
O465 C450 1.202 . S
O466 U446 2.455 . S
O466 C463 1.301 . S
O467 U446 2.449 . S
O467 C463 1.282 . S
H468 C441 0.931 . S
H469 C443 0.929 . S
H470 C444 0.930 . S
H471 C445 0.931 . S
H472 C452 0.932 . S
H473 C453 0.930 . S
H474 C454 0.929 . S
H475 C456 0.930 . S
H476 C458 0.932 . S
H477 C459 0.929 . S
H478 C460 0.928 . S
H479 C462 0.932 . S
C480 C481 1.264 . S
C480 C485 1.479 . S
C480 C490 1.465 . S
C481 C480 1.264 . S
C481 C483 1.339 . S
C481 H508 0.931 . S
C482 C483 1.395 . S
C482 C484 1.320 . S
C483 C481 1.339 . S
C483 C482 1.395 . S
C483 H509 0.929 . S
C484 C482 1.320 . S
C484 C485 1.405 . S
C484 H510 0.930 . S
C485 C480 1.479 . S
C485 C484 1.405 . S
C485 H511 0.931 . S
U486 O487 2.454 . S
U486 O488 2.458 . S
U486 C489 2.984 . S
U486 C490 2.847 . S
U486 C503 2.882 . S
U486 O504 2.441 . S
U486 O505 2.420 . S
U486 O506 2.455 . S
U486 O507 2.449 . S
O487 U486 2.454 . S
O487 C489 1.353 . S
O488 U486 2.458 . S
O488 C489 1.286 . S
C489 U486 2.984 . S
C489 O487 1.353 . S
C489 O488 1.286 . S
C489 C491 1.363 . S
C490 C480 1.465 . S
C490 U486 2.847 . S
C490 O504 1.249 . S
C490 O505 1.202 . S
C491 C489 1.363 . S
C491 C493 1.408 . S
C491 C496 1.342 . S
C492 C493 1.310 . S
C492 C495 1.461 . S
C492 H512 0.932 . S
C493 C491 1.408 . S
C493 C492 1.310 . S
C493 H513 0.930 . S
C494 C495 1.474 . S
C494 C496 1.285 . S
C494 H514 0.929 . S
C495 C492 1.461 . S
C495 C494 1.474 . S
C496 C491 1.342 . S
C496 C494 1.285 . S
C496 H515 0.930 . S
C497 C500 1.424 . S
C497 C502 1.245 . S
C497 C503 1.428 . S
C498 C501 1.260 . S
C498 C502 1.477 . S
C498 H516 0.932 . S
C499 C500 1.384 . S
C499 C501 1.479 . S
C499 H517 0.929 . S
C500 C497 1.424 . S
C500 C499 1.384 . S
C500 H518 0.928 . S
C501 C498 1.260 . S
C501 C499 1.479 . S
C502 C497 1.245 . S
C502 C498 1.477 . S
C502 H519 0.932 . S
C503 U486 2.882 . S
C503 C497 1.428 . S
C503 O506 1.301 . S
C503 O507 1.282 . S
O504 U486 2.441 . S
O504 C490 1.249 . S
O505 U486 2.420 . S
O505 C490 1.202 . S
O506 U486 2.455 . S
O506 C503 1.301 . S
O507 U486 2.449 . S
O507 C503 1.282 . S
H508 C481 0.931 . S
H509 C483 0.929 . S
H510 C484 0.930 . S
H511 C485 0.931 . S
H512 C492 0.932 . S
H513 C493 0.930 . S
H514 C494 0.929 . S
H515 C496 0.930 . S
H516 C498 0.932 . S
H517 C499 0.929 . S
H518 C500 0.928 . S
H519 C502 0.932 . S
C520 C521 1.264 . S
C520 C525 1.479 . S
C520 C530 1.465 . S
C521 C520 1.264 . S
C521 C523 1.339 . S
C521 H548 0.931 . S
C522 C523 1.395 . S
C522 C524 1.320 . S
C523 C521 1.339 . S
C523 C522 1.395 . S
C523 H549 0.929 . S
C524 C522 1.320 . S
C524 C525 1.405 . S
C524 H550 0.930 . S
C525 C520 1.479 . S
C525 C524 1.405 . S
C525 H551 0.931 . S
U526 O527 2.454 . S
U526 O528 2.458 . S
U526 C529 2.984 . S
U526 C530 2.847 . S
U526 C543 2.882 . S
U526 O544 2.441 . S
U526 O545 2.420 . S
U526 O546 2.455 . S
U526 O547 2.449 . S
O527 U526 2.454 . S
O527 C529 1.353 . S
O528 U526 2.458 . S
O528 C529 1.286 . S
C529 U526 2.984 . S
C529 O527 1.353 . S
C529 O528 1.286 . S
C529 C531 1.363 . S
C530 C520 1.465 . S
C530 U526 2.847 . S
C530 O544 1.249 . S
C530 O545 1.202 . S
C531 C529 1.363 . S
C531 C533 1.408 . S
C531 C536 1.342 . S
C532 C533 1.310 . S
C532 C535 1.461 . S
C532 H552 0.932 . S
C533 C531 1.408 . S
C533 C532 1.310 . S
C533 H553 0.930 . S
C534 C535 1.474 . S
C534 C536 1.285 . S
C534 H554 0.929 . S
C535 C532 1.461 . S
C535 C534 1.474 . S
C536 C531 1.342 . S
C536 C534 1.285 . S
C536 H555 0.930 . S
C537 C540 1.424 . S
C537 C542 1.245 . S
C537 C543 1.428 . S
C538 C541 1.260 . S
C538 C542 1.477 . S
C538 H556 0.932 . S
C539 C540 1.384 . S
C539 C541 1.479 . S
C539 H557 0.929 . S
C540 C537 1.424 . S
C540 C539 1.384 . S
C540 H558 0.928 . S
C541 C538 1.260 . S
C541 C539 1.479 . S
C542 C537 1.245 . S
C542 C538 1.477 . S
C542 H559 0.932 . S
C543 U526 2.882 . S
C543 C537 1.428 . S
C543 O546 1.301 . S
C543 O547 1.282 . S
O544 U526 2.441 . S
O544 C530 1.249 . S
O545 U526 2.420 . S
O545 C530 1.202 . S
O546 U526 2.455 . S
O546 C543 1.301 . S
O547 U526 2.449 . S
O547 C543 1.282 . S
H548 C521 0.931 . S
H549 C523 0.929 . S
H550 C524 0.930 . S
H551 C525 0.931 . S
H552 C532 0.932 . S
H553 C533 0.930 . S
H554 C534 0.929 . S
H555 C536 0.930 . S
H556 C538 0.932 . S
H557 C539 0.929 . S
H558 C540 0.928 . S
H559 C542 0.932 . S
C560 C561 1.264 . S
C560 C565 1.479 . S
C560 C570 1.465 . S
C561 C560 1.264 . S
C561 C563 1.339 . S
C561 H588 0.931 . S
C562 C563 1.395 . S
C562 C564 1.320 . S
C563 C561 1.339 . S
C563 C562 1.395 . S
C563 H589 0.929 . S
C564 C562 1.320 . S
C564 C565 1.405 . S
C564 H590 0.930 . S
C565 C560 1.479 . S
C565 C564 1.405 . S
C565 H591 0.931 . S
U566 O567 2.454 . S
U566 O568 2.458 . S
U566 C569 2.984 . S
U566 C570 2.847 . S
U566 C583 2.882 . S
U566 O584 2.441 . S
U566 O585 2.420 . S
U566 O586 2.455 . S
U566 O587 2.449 . S
O567 U566 2.454 . S
O567 C569 1.353 . S
O568 U566 2.458 . S
O568 C569 1.286 . S
C569 U566 2.984 . S
C569 O567 1.353 . S
C569 O568 1.286 . S
C569 C571 1.363 . S
C570 C560 1.465 . S
C570 U566 2.847 . S
C570 O584 1.249 . S
C570 O585 1.202 . S
C571 C569 1.363 . S
C571 C573 1.408 . S
C571 C576 1.342 . S
C572 C573 1.310 . S
C572 C575 1.461 . S
C572 H592 0.932 . S
C573 C571 1.408 . S
C573 C572 1.310 . S
C573 H593 0.930 . S
C574 C575 1.474 . S
C574 C576 1.285 . S
C574 H594 0.929 . S
C575 C572 1.461 . S
C575 C574 1.474 . S
C576 C571 1.342 . S
C576 C574 1.285 . S
C576 H595 0.930 . S
C577 C580 1.424 . S
C577 C582 1.245 . S
C577 C583 1.428 . S
C578 C581 1.260 . S
C578 C582 1.477 . S
C578 H596 0.932 . S
C579 C580 1.384 . S
C579 C581 1.479 . S
C579 H597 0.929 . S
C580 C577 1.424 . S
C580 C579 1.384 . S
C580 H598 0.928 . S
C581 C578 1.260 . S
C581 C579 1.479 . S
C582 C577 1.245 . S
C582 C578 1.477 . S
C582 H599 0.932 . S
C583 U566 2.882 . S
C583 C577 1.428 . S
C583 O586 1.301 . S
C583 O587 1.282 . S
O584 U566 2.441 . S
O584 C570 1.249 . S
O585 U566 2.420 . S
O585 C570 1.202 . S
O586 U566 2.455 . S
O586 C583 1.301 . S
O587 U566 2.449 . S
O587 C583 1.282 . S
H588 C561 0.931 . S
H589 C563 0.929 . S
H590 C564 0.930 . S
H591 C565 0.931 . S
H592 C572 0.932 . S
H593 C573 0.930 . S
H594 C574 0.929 . S
H595 C576 0.930 . S
H596 C578 0.932 . S
H597 C579 0.929 . S
H598 C580 0.928 . S
H599 C582 0.932 . S
C600 C601 1.264 . S
C600 C605 1.479 . S
C600 C610 1.465 . S
C601 C600 1.264 . S
C601 C603 1.339 . S
C601 H628 0.931 . S
C602 C603 1.395 . S
C602 C604 1.320 . S
C603 C601 1.339 . S
C603 C602 1.395 . S
C603 H629 0.929 . S
C604 C602 1.320 . S
C604 C605 1.405 . S
C604 H630 0.930 . S
C605 C600 1.479 . S
C605 C604 1.405 . S
C605 H631 0.931 . S
U606 O607 2.454 . S
U606 O608 2.458 . S
U606 C609 2.984 . S
U606 C610 2.847 . S
U606 C623 2.882 . S
U606 O624 2.441 . S
U606 O625 2.420 . S
U606 O626 2.455 . S
U606 O627 2.449 . S
O607 U606 2.454 . S
O607 C609 1.353 . S
O608 U606 2.458 . S
O608 C609 1.286 . S
C609 U606 2.984 . S
C609 O607 1.353 . S
C609 O608 1.286 . S
C609 C611 1.363 . S
C610 C600 1.465 . S
C610 U606 2.847 . S
C610 O624 1.249 . S
C610 O625 1.202 . S
C611 C609 1.363 . S
C611 C613 1.408 . S
C611 C616 1.342 . S
C612 C613 1.310 . S
C612 C615 1.461 . S
C612 H632 0.932 . S
C613 C611 1.408 . S
C613 C612 1.310 . S
C613 H633 0.930 . S
C614 C615 1.474 . S
C614 C616 1.285 . S
C614 H634 0.929 . S
C615 C612 1.461 . S
C615 C614 1.474 . S
C616 C611 1.342 . S
C616 C614 1.285 . S
C616 H635 0.930 . S
C617 C620 1.424 . S
C617 C622 1.245 . S
C617 C623 1.428 . S
C618 C621 1.260 . S
C618 C622 1.477 . S
C618 H636 0.932 . S
C619 C620 1.384 . S
C619 C621 1.479 . S
C619 H637 0.929 . S
C620 C617 1.424 . S
C620 C619 1.384 . S
C620 H638 0.928 . S
C621 C618 1.260 . S
C621 C619 1.479 . S
C622 C617 1.245 . S
C622 C618 1.477 . S
C622 H639 0.932 . S
C623 U606 2.882 . S
C623 C617 1.428 . S
C623 O626 1.301 . S
C623 O627 1.282 . S
O624 U606 2.441 . S
O624 C610 1.249 . S
O625 U606 2.420 . S
O625 C610 1.202 . S
O626 U606 2.455 . S
O626 C623 1.301 . S
O627 U606 2.449 . S
O627 C623 1.282 . S
H628 C601 0.931 . S
H629 C603 0.929 . S
H630 C604 0.930 . S
H631 C605 0.931 . S
H632 C612 0.932 . S
H633 C613 0.930 . S
H634 C614 0.929 . S
H635 C616 0.930 . S
H636 C618 0.932 . S
H637 C619 0.929 . S
H638 C620 0.928 . S
H639 C622 0.932 . S
C640 C641 1.264 . S
C640 C645 1.479 . S
C640 C650 1.465 . S
C641 C640 1.264 . S
C641 C643 1.339 . S
C641 H668 0.931 . S
C642 C643 1.395 . S
C642 C644 1.320 . S
C643 C641 1.339 . S
C643 C642 1.395 . S
C643 H669 0.929 . S
C644 C642 1.320 . S
C644 C645 1.405 . S
C644 H670 0.930 . S
C645 C640 1.479 . S
C645 C644 1.405 . S
C645 H671 0.931 . S
U646 O647 2.454 . S
U646 O648 2.458 . S
U646 C649 2.984 . S
U646 C650 2.847 . S
U646 C663 2.882 . S
U646 O664 2.441 . S
U646 O665 2.420 . S
U646 O666 2.455 . S
U646 O667 2.449 . S
O647 U646 2.454 . S
O647 C649 1.353 . S
O648 U646 2.458 . S
O648 C649 1.286 . S
C649 U646 2.984 . S
C649 O647 1.353 . S
C649 O648 1.286 . S
C649 C651 1.363 . S
C650 C640 1.465 . S
C650 U646 2.847 . S
C650 O664 1.249 . S
C650 O665 1.202 . S
C651 C649 1.363 . S
C651 C653 1.408 . S
C651 C656 1.342 . S
C652 C653 1.310 . S
C652 C655 1.461 . S
C652 H672 0.932 . S
C653 C651 1.408 . S
C653 C652 1.310 . S
C653 H673 0.930 . S
C654 C655 1.474 . S
C654 C656 1.285 . S
C654 H674 0.929 . S
C655 C652 1.461 . S
C655 C654 1.474 . S
C656 C651 1.342 . S
C656 C654 1.285 . S
C656 H675 0.930 . S
C657 C660 1.424 . S
C657 C662 1.245 . S
C657 C663 1.428 . S
C658 C661 1.260 . S
C658 C662 1.477 . S
C658 H676 0.954 . S
C659 C660 1.384 . S
C659 C661 1.479 . S
C659 H677 0.929 . S
C660 C657 1.424 . S
C660 C659 1.384 . S
C660 H678 0.928 . S
C661 C658 1.260 . S
C661 C659 1.479 . S
C662 C657 1.245 . S
C662 C658 1.477 . S
C662 H679 0.932 . S
C663 U646 2.882 . S
C663 C657 1.428 . S
C663 O666 1.301 . S
C663 O667 1.282 . S
O664 U646 2.441 . S
O664 C650 1.249 . S
O665 U646 2.420 . S
O665 C650 1.202 . S
O666 U646 2.455 . S
O666 C663 1.301 . S
O667 U646 2.449 . S
O667 C663 1.282 . S
H668 C641 0.931 . S
H669 C643 0.929 . S
H670 C644 0.930 . S
H671 C645 0.931 . S
H672 C652 0.932 . S
H673 C653 0.930 . S
H674 C654 0.929 . S
H675 C656 0.930 . S
H676 C658 0.954 . S
H677 C659 0.929 . S
H678 C660 0.928 . S
H679 C662 0.932 . S
C680 C681 1.264 . S
C680 C685 1.479 . S
C680 C690 1.465 . S
C681 C680 1.264 . S
C681 C683 1.339 . S
C681 H708 0.931 . S
C682 C683 1.395 . S
C682 C684 1.320 . S
C683 C681 1.339 . S
C683 C682 1.395 . S
C683 H709 0.929 . S
C684 C682 1.320 . S
C684 C685 1.405 . S
C684 H710 0.930 . S
C685 C680 1.479 . S
C685 C684 1.405 . S
C685 H711 0.931 . S
U686 O687 2.454 . S
U686 O688 2.458 . S
U686 C689 2.984 . S
U686 C690 2.847 . S
U686 C703 2.882 . S
U686 O704 2.441 . S
U686 O705 2.420 . S
U686 O706 2.455 . S
U686 O707 2.449 . S
O687 U686 2.454 . S
O687 C689 1.353 . S
O688 U686 2.458 . S
O688 C689 1.286 . S
C689 U686 2.984 . S
C689 O687 1.353 . S
C689 O688 1.286 . S
C689 C691 1.363 . S
C690 C680 1.465 . S
C690 U686 2.847 . S
C690 O704 1.249 . S
C690 O705 1.202 . S
C691 C689 1.363 . S
C691 C693 1.408 . S
C691 C696 1.342 . S
C692 C693 1.310 . S
C692 C695 1.461 . S
C692 H712 0.932 . S
C693 C691 1.408 . S
C693 C692 1.310 . S
C693 H713 0.930 . S
C694 C695 1.474 . S
C694 C696 1.285 . S
C694 H714 0.929 . S
C695 C692 1.461 . S
C695 C694 1.474 . S
C696 C691 1.342 . S
C696 C694 1.285 . S
C696 H715 0.930 . S
C697 C700 1.424 . S
C697 C702 1.245 . S
C697 C703 1.428 . S
C698 C701 1.260 . S
C698 C702 1.477 . S
C698 H716 0.932 . S
C699 C700 1.384 . S
C699 C701 1.479 . S
C699 H717 0.929 . S
C700 C697 1.424 . S
C700 C699 1.384 . S
C700 H718 0.928 . S
C701 C698 1.260 . S
C701 C699 1.479 . S
C702 C697 1.245 . S
C702 C698 1.477 . S
C702 H719 0.932 . S
C703 U686 2.882 . S
C703 C697 1.428 . S
C703 O706 1.301 . S
C703 O707 1.282 . S
O704 U686 2.441 . S
O704 C690 1.249 . S
O705 U686 2.420 . S
O705 C690 1.202 . S
O706 U686 2.455 . S
O706 C703 1.301 . S
O707 U686 2.449 . S
O707 C703 1.282 . S
H708 C681 0.931 . S
H709 C683 0.929 . S
H710 C684 0.930 . S
H711 C685 0.931 . S
H712 C692 0.932 . S
H713 C693 0.930 . S
H714 C694 0.929 . S
H715 C696 0.930 . S
H716 C698 0.932 . S
H717 C699 0.929 . S
H718 C700 0.928 . S
H719 C702 0.932 . S
C720 Eu721 2.835 . S
C720 C722 1.505 . S
C720 O740 1.257 1_545 S
C720 O741 1.260 . S
Eu721 C720 2.835 . S
Eu721 O740 2.473 1_545 S
Eu721 O741 2.480 . S
Eu721 O742 2.430 . S
Eu721 O743 2.670 1_554 S
Eu721 O744 2.394 1_545 S
Eu721 O749 2.355 1_545 S
Eu721 O751 2.374 . S
C722 C720 1.505 . S
C722 C723 1.404 . S
C722 C727 1.346 1_545 S
C723 C722 1.404 . S
C723 C724 1.395 . S
C723 H752 0.931 . S
C724 C723 1.395 . S
C724 C725 1.383 1_545 S
C724 H753 0.931 . S
C725 C724 1.383 1_565 S
C725 C726 1.394 . S
C726 C725 1.394 . S
C726 C727 1.378 . S
C726 H754 0.931 . S
C727 C722 1.346 1_565 S
C727 C726 1.378 . S
C727 H755 0.931 . S
C728 O742 1.259 . S
C728 O743 1.270 1_554 S
C729 O744 1.251 . S
C729 O745 1.324 . S
C730 Eu731 2.835 . S
C730 C732 1.500 . S
C730 O746 1.257 1_565 S
C730 O747 1.260 . S
Eu731 C730 2.835 . S
Eu731 O743 2.355 1_565 S
Eu731 O745 2.322 1_556 S
Eu731 O746 2.473 1_565 S
Eu731 O747 2.480 . S
Eu731 O748 2.430 . S
Eu731 O749 2.670 1_556 S
Eu731 O750 2.394 1_565 S
C732 C730 1.500 . S
C732 C733 1.376 . S
C732 C737 1.379 1_565 S
C733 C732 1.376 . S
C733 C734 1.395 . S
C733 H756 0.931 . S
C734 C733 1.395 . S
C734 C735 1.383 1_565 S
C734 H757 0.931 . S
C735 C734 1.383 1_545 S
C735 C736 1.394 . S
C736 C735 1.394 . S
C736 C737 1.378 . S
C736 H758 0.931 . S
C737 C732 1.379 1_545 S
C737 C736 1.378 . S
C737 H759 0.931 . S
C738 O748 1.259 1_554 S
C738 O749 1.270 . S
C739 O750 1.251 . S
C739 O751 1.251 1_556 S
O740 C720 1.257 1_565 S
O740 Eu721 2.473 1_565 S
O741 C720 1.260 . S
O741 Eu721 2.480 . S
O742 Eu721 2.430 . S
O742 C728 1.259 . S
O743 Eu721 2.670 1_556 S
O743 C728 1.270 1_556 S
O743 Eu731 2.355 1_545 S
O744 Eu721 2.394 1_565 S
O744 C729 1.251 . S
O745 C729 1.324 . S
O745 Eu731 2.322 1_554 S
O746 C730 1.257 1_545 S
O746 Eu731 2.473 1_545 S
O747 C730 1.260 . S
O747 Eu731 2.480 . S
O748 Eu731 2.430 . S
O748 C738 1.259 1_556 S
O749 Eu721 2.355 1_565 S
O749 Eu731 2.670 1_554 S
O749 C738 1.270 . S
O750 Eu731 2.394 1_545 S
O750 C739 1.251 . S
O751 Eu721 2.374 . S
O751 C739 1.251 1_554 S
H752 C723 0.931 . S
H753 C724 0.931 . S
H754 C726 0.931 . S
H755 C727 0.931 . S
H756 C733 0.931 . S
H757 C734 0.931 . S
H758 C736 0.931 . S
H759 C737 0.931 . S
C760 Eu761 2.835 . S
C760 C762 1.500 1_655 S
C760 O780 1.257 1_655 S
C760 O781 1.260 . S
Eu761 C760 2.835 . S
Eu761 O780 2.473 1_655 S
Eu761 O781 2.480 . S
Eu761 O782 2.430 . S
Eu761 O783 2.670 1_554 S
Eu761 O784 2.394 1_655 S
Eu761 O789 2.355 1_655 S
Eu761 O791 2.374 . S
C762 C760 1.500 1_455 S
C762 C763 1.377 1_455 S
C762 C767 1.377 . S
C763 C762 1.377 1_655 S
C763 C764 1.395 . S
C763 H792 0.931 . S
C764 C763 1.395 . S
C764 C765 1.383 1_655 S
C764 H793 0.931 . S
C765 C764 1.383 1_455 S
C765 C766 1.394 . S
C766 C765 1.394 . S
C766 C767 1.378 . S
C766 H794 0.931 . S
C767 C762 1.377 . S
C767 C766 1.378 . S
C767 H795 0.931 . S
C768 O782 1.288 . S
C768 O783 1.259 1_554 S
C769 O784 1.251 . S
C769 O785 1.251 . S
C770 Eu771 2.835 . S
C770 C772 1.500 1_455 S
C770 O786 1.257 1_455 S
C770 O787 1.260 . S
Eu771 C770 2.835 . S
Eu771 O783 2.355 1_455 S
Eu771 O785 2.374 1_556 S
Eu771 O786 2.473 1_455 S
Eu771 O787 2.480 . S
Eu771 O788 2.430 . S
Eu771 O789 2.670 1_556 S
Eu771 O790 2.394 1_455 S
C772 C770 1.500 1_655 S
C772 C773 1.377 1_655 S
C772 C777 1.377 . S
C773 C772 1.377 1_455 S
C773 C774 1.395 . S
C773 H796 0.931 . S
C774 C773 1.395 . S
C774 C775 1.383 1_455 S
C774 H797 0.931 . S
C775 C774 1.383 1_655 S
C775 C776 1.394 . S
C776 C775 1.394 . S
C776 C777 1.378 . S
C776 H798 0.931 . S
C777 C772 1.377 . S
C777 C776 1.378 . S
C777 H799 0.931 . S
C778 O788 1.259 1_554 S
C778 O789 1.270 . S
C779 O790 1.251 . S
C779 O791 1.251 1_556 S
O780 C760 1.257 1_455 S
O780 Eu761 2.473 1_455 S
O781 C760 1.260 . S
O781 Eu761 2.480 . S
O782 Eu761 2.430 . S
O782 C768 1.288 . S
O783 Eu761 2.670 1_556 S
O783 C768 1.259 1_556 S
O783 Eu771 2.355 1_655 S
O784 Eu761 2.394 1_455 S
O784 C769 1.251 . S
O785 C769 1.251 . S
O785 Eu771 2.374 1_554 S
O786 C770 1.257 1_655 S
O786 Eu771 2.473 1_655 S
O787 C770 1.260 . S
O787 Eu771 2.480 . S
O788 Eu771 2.430 . S
O788 C778 1.259 1_556 S
O789 Eu761 2.355 1_455 S
O789 Eu771 2.670 1_554 S
O789 C778 1.270 . S
O790 Eu771 2.394 1_655 S
O790 C779 1.251 . S
O791 Eu761 2.374 . S
O791 C779 1.251 1_554 S
H792 C763 0.931 . S
H793 C764 0.931 . S
H794 C766 0.931 . S
H795 C767 0.931 . S
H796 C773 0.931 . S
H797 C774 0.931 . S
H798 C776 0.931 . S
H799 C777 0.931 . S
C800 Eu801 2.835 . S
C800 C802 1.500 . S
C800 O820 1.257 . S
C800 O821 1.260 . S
Eu801 C800 2.835 . S
Eu801 O820 2.473 . S
Eu801 O821 2.480 . S
Eu801 O822 2.430 . S
Eu801 O823 2.670 1_556 S
Eu801 O824 2.394 . S
Eu801 O829 2.355 . S
Eu801 O831 2.374 1_556 S
C802 C800 1.500 . S
C802 C803 1.377 . S
C802 C807 1.377 . S
C803 C802 1.377 . S
C803 C804 1.395 . S
C803 H832 0.931 . S
C804 C803 1.395 . S
C804 C805 1.383 . S
C804 H833 0.931 . S
C805 C804 1.383 . S
C805 C806 1.394 . S
C806 C805 1.394 . S
C806 C807 1.378 . S
C806 H834 0.931 . S
C807 C802 1.377 . S
C807 C806 1.378 . S
C807 H835 0.931 . S
C808 O822 1.259 1_554 S
C808 O823 1.270 . S
C809 O824 1.251 . S
C809 O825 1.251 1_556 S
C810 Eu811 2.835 . S
C810 C812 1.500 . S
C810 O826 1.257 . S
C810 O827 1.260 . S
Eu811 C810 2.835 . S
Eu811 O823 2.355 . S
Eu811 O825 2.374 . S
Eu811 O826 2.473 . S
Eu811 O827 2.480 . S
Eu811 O828 2.430 . S
Eu811 O829 2.670 1_554 S
Eu811 O830 2.394 . S
C812 C810 1.500 . S
C812 C813 1.377 . S
C812 C817 1.377 . S
C813 C812 1.377 . S
C813 C814 1.395 . S
C813 H836 0.931 . S
C814 C813 1.395 . S
C814 C815 1.383 . S
C814 H837 0.931 . S
C815 C814 1.383 . S
C815 C816 1.394 . S
C816 C815 1.394 . S
C816 C817 1.378 . S
C816 H838 0.931 . S
C817 C812 1.377 . S
C817 C816 1.378 . S
C817 H839 0.931 . S
C818 O828 1.259 . S
C818 O829 1.270 1_554 S
C819 O830 1.251 . S
C819 O831 1.251 . S
O820 C800 1.257 . S
O820 Eu801 2.473 . S
O821 C800 1.260 . S
O821 Eu801 2.480 . S
O822 Eu801 2.430 . S
O822 C808 1.259 1_556 S
O823 Eu801 2.670 1_554 S
O823 C808 1.270 . S
O823 Eu811 2.355 . S
O824 Eu801 2.394 . S
O824 C809 1.251 . S
O825 C809 1.251 1_554 S
O825 Eu811 2.374 . S
O826 C810 1.257 . S
O826 Eu811 2.473 . S
O827 C810 1.260 . S
O827 Eu811 2.480 . S
O828 Eu811 2.430 . S
O828 C818 1.259 . S
O829 Eu801 2.355 . S
O829 Eu811 2.670 1_556 S
O829 C818 1.270 1_556 S
O830 Eu811 2.394 . S
O830 C819 1.251 . S
O831 Eu801 2.374 1_554 S
O831 C819 1.251 . S
H832 C803 0.931 . S
H833 C804 0.931 . S
H834 C806 0.931 . S
H835 C807 0.931 . S
H836 C813 0.931 . S
H837 C814 0.931 . S
H838 C816 0.931 . S
H839 C817 0.931 . S
C840 Eu841 2.835 . S
C840 C842 1.500 . S
C840 O860 1.257 . S
C840 O861 1.260 . S
Eu841 C840 2.835 . S
Eu841 O860 2.473 . S
Eu841 O861 2.480 . S
Eu841 O862 2.430 . S
Eu841 O863 2.670 . S
Eu841 O864 2.394 . S
Eu841 O869 2.355 . S
Eu841 O871 2.374 . S
C842 C840 1.500 . S
C842 C843 1.377 . S
C842 C847 1.377 . S
C843 C842 1.377 . S
C843 C844 1.395 . S
C843 H872 0.931 . S
C844 C843 1.395 . S
C844 C845 1.383 . S
C844 H873 0.931 . S
C845 C844 1.383 . S
C845 C846 1.394 . S
C846 C845 1.394 . S
C846 C847 1.378 . S
C846 H874 0.931 . S
C847 C842 1.377 . S
C847 C846 1.378 . S
C847 H875 0.931 . S
C848 O862 1.259 . S
C848 O863 1.270 . S
C849 O864 1.251 . S
C849 O865 1.251 . S
C850 Eu851 2.835 . S
C850 C852 1.500 . S
C850 O866 1.257 . S
C850 O867 1.260 . S
Eu851 C850 2.835 . S
Eu851 O863 2.355 . S
Eu851 O865 2.374 . S
Eu851 O866 2.473 . S
Eu851 O867 2.480 . S
Eu851 O868 2.430 . S
Eu851 O869 2.670 . S
Eu851 O870 2.394 . S
C852 C850 1.500 . S
C852 C853 1.377 . S
C852 C857 1.377 . S
C853 C852 1.377 . S
C853 C854 1.395 . S
C853 H876 0.931 . S
C854 C853 1.395 . S
C854 C855 1.383 . S
C854 H877 0.931 . S
C855 C854 1.383 . S
C855 C856 1.394 . S
C856 C855 1.394 . S
C856 C857 1.378 . S
C856 H878 0.931 . S
C857 C852 1.377 . S
C857 C856 1.378 . S
C857 H879 0.931 . S
C858 O868 1.259 . S
C858 O869 1.270 . S
C859 O870 1.251 . S
C859 O871 1.251 . S
O860 C840 1.257 . S
O860 Eu841 2.473 . S
O861 C840 1.260 . S
O861 Eu841 2.480 . S
O862 Eu841 2.430 . S
O862 C848 1.259 . S
O863 Eu841 2.670 . S
O863 C848 1.270 . S
O863 Eu851 2.355 . S
O864 Eu841 2.394 . S
O864 C849 1.251 . S
O865 C849 1.251 . S
O865 Eu851 2.374 . S
O866 C850 1.257 . S
O866 Eu851 2.473 . S
O867 C850 1.260 . S
O867 Eu851 2.480 . S
O868 Eu851 2.430 . S
O868 C858 1.259 . S
O869 Eu841 2.355 . S
O869 Eu851 2.670 . S
O869 C858 1.270 . S
O870 Eu851 2.394 . S
O870 C859 1.251 . S
O871 Eu841 2.374 . S
O871 C859 1.251 . S
H872 C843 0.931 . S
H873 C844 0.931 . S
H874 C846 0.931 . S
H875 C847 0.931 . S
H876 C853 0.931 . S
H877 C854 0.931 . S
H878 C856 0.931 . S
H879 C857 0.931 . S
C880 Eu881 2.835 . S
C880 C882 1.500 . S
C880 O900 1.257 . S
C880 O901 1.260 . S
Eu881 C880 2.835 . S
Eu881 O900 2.473 . S
Eu881 O901 2.480 . S
Eu881 O902 2.430 . S
Eu881 O903 2.670 . S
Eu881 O904 2.394 . S
Eu881 O909 2.355 . S
Eu881 O911 2.374 . S
C882 C880 1.500 . S
C882 C883 1.377 . S
C882 C887 1.377 . S
C883 C882 1.377 . S
C883 C884 1.395 . S
C883 H912 0.931 . S
C884 C883 1.395 . S
C884 C885 1.383 . S
C884 H913 0.931 . S
C885 C884 1.383 . S
C885 C886 1.394 . S
C886 C885 1.394 . S
C886 C887 1.378 . S
C886 H914 0.931 . S
C887 C882 1.377 . S
C887 C886 1.378 . S
C887 H915 0.931 . S
C888 O902 1.259 . S
C888 O903 1.270 . S
C889 O904 1.251 . S
C889 O905 1.251 . S
C890 Eu891 2.835 . S
C890 C892 1.500 . S
C890 O906 1.257 . S
C890 O907 1.260 . S
Eu891 C890 2.835 . S
Eu891 O903 2.355 . S
Eu891 O905 2.374 . S
Eu891 O906 2.473 . S
Eu891 O907 2.480 . S
Eu891 O908 2.430 . S
Eu891 O909 2.670 . S
Eu891 O910 2.394 . S
C892 C890 1.500 . S
C892 C893 1.377 . S
C892 C897 1.377 . S
C893 C892 1.377 . S
C893 C894 1.395 . S
C893 H916 0.931 . S
C894 C893 1.395 . S
C894 C895 1.383 . S
C894 H917 0.931 . S
C895 C894 1.383 . S
C895 C896 1.394 . S
C896 C895 1.394 . S
C896 C897 1.378 . S
C896 H918 0.931 . S
C897 C892 1.377 . S
C897 C896 1.378 . S
C897 H919 0.931 . S
C898 O908 1.259 . S
C898 O909 1.270 . S
C899 O910 1.251 . S
C899 O911 1.251 . S
O900 C880 1.257 . S
O900 Eu881 2.473 . S
O901 C880 1.260 . S
O901 Eu881 2.480 . S
O902 Eu881 2.430 . S
O902 C888 1.259 . S
O903 Eu881 2.670 . S
O903 C888 1.270 . S
O903 Eu891 2.355 . S
O904 Eu881 2.394 . S
O904 C889 1.251 . S
O905 C889 1.251 . S
O905 Eu891 2.374 . S
O906 C890 1.257 . S
O906 Eu891 2.473 . S
O907 C890 1.260 . S
O907 Eu891 2.480 . S
O908 Eu891 2.430 . S
O908 C898 1.259 . S
O909 Eu881 2.355 . S
O909 Eu891 2.670 . S
O909 C898 1.270 . S
O910 Eu891 2.394 . S
O910 C899 1.251 . S
O911 Eu881 2.374 . S
O911 C899 1.251 . S
H912 C883 0.931 . S
H913 C884 0.931 . S
H914 C886 0.931 . S
H915 C887 0.931 . S
H916 C893 0.931 . S
H917 C894 0.931 . S
H918 C896 0.931 . S
H919 C897 0.931 . S
C920 Eu921 2.835 . S
C920 C922 1.500 . S
C920 O940 1.257 . S
C920 O941 1.260 . S
Eu921 C920 2.835 . S
Eu921 O940 2.473 . S
Eu921 O941 2.480 . S
Eu921 O942 2.430 . S
Eu921 O943 2.670 . S
Eu921 O944 2.394 . S
Eu921 O949 2.355 . S
Eu921 O951 2.374 . S
C922 C920 1.500 . S
C922 C923 1.377 . S
C922 C927 1.377 . S
C923 C922 1.377 . S
C923 C924 1.395 . S
C923 H952 0.931 . S
C924 C923 1.395 . S
C924 C925 1.383 . S
C924 H953 0.931 . S
C925 C924 1.383 . S
C925 C926 1.394 . S
C926 C925 1.394 . S
C926 C927 1.378 . S
C926 H954 0.931 . S
C927 C922 1.377 . S
C927 C926 1.378 . S
C927 H955 0.931 . S
C928 O942 1.259 . S
C928 O943 1.270 . S
C929 O944 1.251 . S
C929 O945 1.251 . S
C930 Eu931 2.835 . S
C930 C932 1.500 . S
C930 O946 1.257 . S
C930 O947 1.260 . S
Eu931 C930 2.835 . S
Eu931 O943 2.355 . S
Eu931 O945 2.374 . S
Eu931 O946 2.473 . S
Eu931 O947 2.480 . S
Eu931 O948 2.430 . S
Eu931 O949 2.670 . S
Eu931 O950 2.394 . S
C932 C930 1.500 . S
C932 C933 1.377 . S
C932 C937 1.377 . S
C933 C932 1.377 . S
C933 C934 1.395 . S
C933 H956 0.931 . S
C934 C933 1.395 . S
C934 C935 1.383 . S
C934 H957 0.931 . S
C935 C934 1.383 . S
C935 C936 1.394 . S
C936 C935 1.394 . S
C936 C937 1.378 . S
C936 H958 0.931 . S
C937 C932 1.377 . S
C937 C936 1.378 . S
C937 H959 0.931 . S
C938 O948 1.259 . S
C938 O949 1.270 . S
C939 O950 1.251 . S
C939 O951 1.251 . S
O940 C920 1.257 . S
O940 Eu921 2.473 . S
O941 C920 1.260 . S
O941 Eu921 2.480 . S
O942 Eu921 2.430 . S
O942 C928 1.259 . S
O943 Eu921 2.670 . S
O943 C928 1.270 . S
O943 Eu931 2.355 . S
O944 Eu921 2.394 . S
O944 C929 1.251 . S
O945 C929 1.251 . S
O945 Eu931 2.374 . S
O946 C930 1.257 . S
O946 Eu931 2.473 . S
O947 C930 1.260 . S
O947 Eu931 2.480 . S
O948 Eu931 2.430 . S
O948 C938 1.259 . S
O949 Eu921 2.355 . S
O949 Eu931 2.670 . S
O949 C938 1.270 . S
O950 Eu931 2.394 . S
O950 C939 1.251 . S
O951 Eu921 2.374 . S
O951 C939 1.251 . S
H952 C923 0.931 . S
H953 C924 0.931 . S
H954 C926 0.931 . S
H955 C927 0.931 . S
H956 C933 0.931 . S
H957 C934 0.931 . S
H958 C936 0.931 . S
H959 C937 0.931 . S
C960 Eu961 2.835 . S
C960 C962 1.500 . S
C960 O980 1.257 . S
C960 O981 1.260 . S
Eu961 C960 2.835 . S
Eu961 O980 2.473 . S
Eu961 O981 2.480 . S
Eu961 O982 2.430 . S
Eu961 O983 2.670 . S
Eu961 O984 2.394 . S
Eu961 O989 2.355 . S
Eu961 O991 2.374 . S
C962 C960 1.500 . S
C962 C963 1.377 . S
C962 C967 1.377 . S
C963 C962 1.377 . S
C963 C964 1.395 . S
C963 H992 0.931 . S
C964 C963 1.395 . S
C964 C965 1.383 . S
C964 H993 0.931 . S
C965 C964 1.383 . S
C965 C966 1.394 . S
C966 C965 1.394 . S
C966 C967 1.378 . S
C966 H994 0.931 . S
C967 C962 1.377 . S
C967 C966 1.378 . S
C967 H995 0.931 . S
C968 O982 1.259 . S
C968 O983 1.270 . S
C969 O984 1.251 . S
C969 O985 1.251 . S
C970 Eu971 2.835 . S
C970 C972 1.500 . S
C970 O986 1.257 . S
C970 O987 1.260 . S
Eu971 C970 2.835 . S
Eu971 O983 2.355 . S
Eu971 O985 2.374 . S
Eu971 O986 2.473 . S
Eu971 O987 2.480 . S
Eu971 O988 2.430 . S
Eu971 O989 2.670 . S
Eu971 O990 2.394 . S
C972 C970 1.500 . S
C972 C973 1.377 . S
C972 C977 1.377 . S
C973 C972 1.377 . S
C973 C974 1.395 . S
C973 H996 0.931 . S
C974 C973 1.395 . S
C974 C975 1.383 . S
C974 H997 0.931 . S
C975 C974 1.383 . S
C975 C976 1.394 . S
C976 C975 1.394 . S
C976 C977 1.378 . S
C976 H998 0.931 . S
C977 C972 1.377 . S
C977 C976 1.378 . S
C977 H999 0.931 . S
C978 O988 1.259 . S
C978 O989 1.270 . S
C979 O990 1.251 . S
C979 O991 1.251 . S
O980 C960 1.257 . S
O980 Eu961 2.473 . S
O981 C960 1.260 . S
O981 Eu961 2.480 . S
O982 Eu961 2.430 . S
O982 C968 1.259 . S
O983 Eu961 2.670 . S
O983 C968 1.270 . S
O983 Eu971 2.355 . S
O984 Eu961 2.394 . S
O984 C969 1.251 . S
O985 C969 1.251 . S
O985 Eu971 2.374 . S
O986 C970 1.257 . S
O986 Eu971 2.473 . S
O987 C970 1.260 . S
O987 Eu971 2.480 . S
O988 Eu971 2.430 . S
O988 C978 1.259 . S
O989 Eu961 2.355 . S
O989 Eu971 2.670 . S
O989 C978 1.270 . S
O990 Eu971 2.394 . S
O990 C979 1.251 . S
O991 Eu961 2.374 . S
O991 C979 1.251 . S
H992 C963 0.931 . S
H993 C964 0.931 . S
H994 C966 0.931 . S
H995 C967 0.931 . S
H996 C973 0.931 . S
H997 C974 0.931 . S
H998 C976 0.931 . S
H999 C977 0.931 . S
C1000 Eu1001 2.835 . S
C1000 C1002 1.500 . S
C1000 O1020 1.257 . S
C1000 O1021 1.260 . S
Eu1001 C1000 2.835 . S
Eu1001 O1020 2.473 . S
Eu1001 O1021 2.480 . S
Eu1001 O1022 2.430 . S
Eu1001 O1023 2.670 . S
Eu1001 O1024 2.394 . S
Eu1001 O1029 2.355 . S
Eu1001 O1031 2.374 . S
C1002 C1000 1.500 . S
C1002 C1003 1.377 . S
C1002 C1007 1.377 . S
C1003 C1002 1.377 . S
C1003 C1004 1.395 . S
C1003 H1032 0.931 . S
C1004 C1003 1.395 . S
C1004 C1005 1.383 . S
C1004 H1033 0.931 . S
C1005 C1004 1.383 . S
C1005 C1006 1.394 . S
C1006 C1005 1.394 . S
C1006 C1007 1.378 . S
C1006 H1034 0.931 . S
C1007 C1002 1.377 . S
C1007 C1006 1.378 . S
C1007 H1035 0.931 . S
C1008 O1022 1.259 . S
C1008 O1023 1.270 . S
C1009 O1024 1.251 . S
C1009 O1025 1.251 . S
C1010 Eu1011 2.835 . S
C1010 C1012 1.500 . S
C1010 O1026 1.257 . S
C1010 O1027 1.260 . S
Eu1011 C1010 2.835 . S
Eu1011 O1023 2.355 . S
Eu1011 O1025 2.374 . S
Eu1011 O1026 2.473 . S
Eu1011 O1027 2.480 . S
Eu1011 O1028 2.430 . S
Eu1011 O1029 2.670 . S
Eu1011 O1030 2.394 . S
C1012 C1010 1.500 . S
C1012 C1013 1.377 . S
C1012 C1017 1.377 . S
C1013 C1012 1.377 . S
C1013 C1014 1.395 . S
C1013 H1036 0.931 . S
C1014 C1013 1.395 . S
C1014 C1015 1.383 . S
C1014 H1037 0.931 . S
C1015 C1014 1.383 . S
C1015 C1016 1.394 . S
C1016 C1015 1.394 . S
C1016 C1017 1.378 . S
C1016 H1038 0.931 . S
C1017 C1012 1.377 . S
C1017 C1016 1.378 . S
C1017 H1039 0.931 . S
C1018 O1028 1.259 . S
C1018 O1029 1.270 . S
C1019 O1030 1.251 . S
C1019 O1031 1.251 . S
O1020 C1000 1.257 . S
O1020 Eu1001 2.473 . S
O1021 C1000 1.260 . S
O1021 Eu1001 2.480 . S
O1022 Eu1001 2.430 . S
O1022 C1008 1.259 . S
O1023 Eu1001 2.670 . S
O1023 C1008 1.270 . S
O1023 Eu1011 2.355 . S
O1024 Eu1001 2.394 . S
O1024 C1009 1.251 . S
O1025 C1009 1.251 . S
O1025 Eu1011 2.374 . S
O1026 C1010 1.257 . S
O1026 Eu1011 2.473 . S
O1027 C1010 1.260 . S
O1027 Eu1011 2.480 . S
O1028 Eu1011 2.430 . S
O1028 C1018 1.259 . S
O1029 Eu1001 2.355 . S
O1029 Eu1011 2.670 . S
O1029 C1018 1.270 . S
O1030 Eu1011 2.394 . S
O1030 C1019 1.251 . S
O1031 Eu1001 2.374 . S
O1031 C1019 1.251 . S
H1032 C1003 0.931 . S
H1033 C1004 0.931 . S
H1034 C1006 0.931 . S
H1035 C1007 0.931 . S
H1036 C1013 0.931 . S
H1037 C1014 0.931 . S
H1038 C1016 0.931 . S
H1039 C1017 0.931 . S
C1040 Eu1041 2.835 . S
C1040 C1042 1.500 . S
C1040 O1060 1.257 . S
C1040 O1061 1.260 . S
Eu1041 C1040 2.835 . S
Eu1041 O1060 2.473 . S
Eu1041 O1061 2.480 . S
Eu1041 O1062 2.430 . S
Eu1041 O1063 2.670 . S
Eu1041 O1064 2.394 . S
Eu1041 O1069 2.355 . S
Eu1041 O1071 2.374 . S
C1042 C1040 1.500 . S
C1042 C1043 1.377 . S
C1042 C1047 1.377 . S
C1043 C1042 1.377 . S
C1043 C1044 1.395 . S
C1043 H1072 0.931 . S
C1044 C1043 1.395 . S
C1044 C1045 1.383 . S
C1044 H1073 0.931 . S
C1045 C1044 1.383 . S
C1045 C1046 1.394 . S
C1046 C1045 1.394 . S
C1046 C1047 1.378 . S
C1046 H1074 0.931 . S
C1047 C1042 1.377 . S
C1047 C1046 1.378 . S
C1047 H1075 0.931 . S
C1048 O1062 1.259 . S
C1048 O1063 1.270 . S
C1049 O1064 1.251 . S
C1049 O1065 1.251 . S
C1050 Eu1051 2.835 . S
C1050 C1052 1.500 . S
C1050 O1066 1.257 . S
C1050 O1067 1.260 . S
Eu1051 C1050 2.835 . S
Eu1051 O1063 2.355 . S
Eu1051 O1065 2.374 . S
Eu1051 O1066 2.473 . S
Eu1051 O1067 2.480 . S
Eu1051 O1068 2.430 . S
Eu1051 O1069 2.670 . S
Eu1051 O1070 2.394 . S
C1052 C1050 1.500 . S
C1052 C1053 1.377 . S
C1052 C1057 1.377 . S
C1053 C1052 1.377 . S
C1053 C1054 1.395 . S
C1053 H1076 0.931 . S
C1054 C1053 1.395 . S
C1054 C1055 1.383 . S
C1054 H1077 0.931 . S
C1055 C1054 1.383 . S
C1055 C1056 1.394 . S
C1056 C1055 1.394 . S
C1056 C1057 1.378 . S
C1056 H1078 0.931 . S
C1057 C1052 1.377 . S
C1057 C1056 1.378 . S
C1057 H1079 0.931 . S
C1058 O1068 1.259 . S
C1058 O1069 1.270 . S
C1059 O1070 1.251 . S
C1059 O1071 1.251 . S
O1060 C1040 1.257 . S
O1060 Eu1041 2.473 . S
O1061 C1040 1.260 . S
O1061 Eu1041 2.480 . S
O1062 Eu1041 2.430 . S
O1062 C1048 1.259 . S
O1063 Eu1041 2.670 . S
O1063 C1048 1.270 . S
O1063 Eu1051 2.355 . S
O1064 Eu1041 2.394 . S
O1064 C1049 1.251 . S
O1065 C1049 1.251 . S
O1065 Eu1051 2.374 . S
O1066 C1050 1.257 . S
O1066 Eu1051 2.473 . S
O1067 C1050 1.260 . S
O1067 Eu1051 2.480 . S
O1068 Eu1051 2.430 . S
O1068 C1058 1.259 . S
O1069 Eu1041 2.355 . S
O1069 Eu1051 2.670 . S
O1069 C1058 1.270 . S
O1070 Eu1051 2.394 . S
O1070 C1059 1.251 . S
O1071 Eu1041 2.374 . S
O1071 C1059 1.251 . S
H1072 C1043 0.931 . S
H1073 C1044 0.931 . S
H1074 C1046 0.931 . S
H1075 C1047 0.931 . S
H1076 C1053 0.931 . S
H1077 C1054 0.931 . S
H1078 C1056 0.931 . S
H1079 C1057 0.931 . S
C1080 C1081 1.391 . S
C1080 C1082 1.394 . S
C1080 H1096 0.931 . S
C1081 C1080 1.391 . S
C1081 C1085 1.376 . S
C1082 C1080 1.394 . S
C1082 C1083 1.369 . S
C1082 C1086 1.531 . S
C1083 C1082 1.369 . S
C1083 C1084 1.410 . S
C1083 C1091 1.503 . S
C1084 C1083 1.410 . S
C1084 C1085 1.392 . S
C1084 C1087 1.511 . S
C1085 C1081 1.376 . S
C1085 C1084 1.392 . S
C1085 H1097 0.929 . S
C1086 C1082 1.531 . S
C1086 H1098 0.960 . S
C1086 H1099 0.962 . S
C1086 H1100 0.960 . S
C1087 C1084 1.511 . S
C1087 H1101 0.961 . S
C1087 H1102 0.961 . S
C1087 H1103 0.961 . S
C1088 C1089 1.370 . S
C1088 C1090 1.363 . S
C1088 H1104 0.931 . S
C1089 C1088 1.370 . S
C1089 C1093 1.408 . S
C1090 C1088 1.363 . S
C1090 C1091 1.370 . S
C1090 C1094 1.524 . S
C1091 C1083 1.503 . S
C1091 C1090 1.370 . S
C1091 C1092 1.403 . S
C1092 C1091 1.403 . S
C1092 C1093 1.404 . S
C1092 C1095 1.539 1_554 S
C1093 C1089 1.408 . S
C1093 C1092 1.404 . S
C1093 H1105 0.930 1_554 S
C1094 C1090 1.524 . S
C1094 H1106 0.956 . S
C1094 H1107 0.961 . S
C1094 H1108 0.961 . S
C1095 C1092 1.539 1_556 S
C1095 H1109 0.958 . S
C1095 H1110 0.961 . S
C1095 H1111 0.960 1_556 S
H1096 C1080 0.931 . S
H1097 C1085 0.929 . S
H1098 C1086 0.960 . S
H1099 C1086 0.962 . S
H1100 C1086 0.960 . S
H1101 C1087 0.961 . S
H1102 C1087 0.961 . S
H1103 C1087 0.961 . S
H1104 C1088 0.931 . S
H1105 C1093 0.930 1_556 S
H1106 C1094 0.956 . S
H1107 C1094 0.961 . S
H1108 C1094 0.961 . S
H1109 C1095 0.958 . S
H1110 C1095 0.961 . S
H1111 C1095 0.960 1_554 S
C1112 C1113 1.391 . S
C1112 C1114 1.394 . S
C1112 H1128 0.931 . S
C1113 C1112 1.391 . S
C1113 C1117 1.376 . S
C1114 C1112 1.394 . S
C1114 C1115 1.369 . S
C1114 C1118 1.531 . S
C1115 C1114 1.369 . S
C1115 C1116 1.410 . S
C1115 C1123 1.503 . S
C1116 C1115 1.410 . S
C1116 C1117 1.392 . S
C1116 C1119 1.511 . S
C1117 C1113 1.376 . S
C1117 C1116 1.392 . S
C1117 H1129 0.929 . S
C1118 C1114 1.531 . S
C1118 H1130 0.960 . S
C1118 H1131 0.962 . S
C1118 H1132 0.960 . S
C1119 C1116 1.511 . S
C1119 H1133 0.961 . S
C1119 H1134 0.961 . S
C1119 H1135 0.961 . S
C1120 C1121 1.370 . S
C1120 C1122 1.363 . S
C1120 H1136 0.931 . S
C1121 C1120 1.370 . S
C1121 C1125 1.408 . S
C1122 C1120 1.363 . S
C1122 C1123 1.370 . S
C1122 C1126 1.524 . S
C1123 C1115 1.503 . S
C1123 C1122 1.370 . S
C1123 C1124 1.403 . S
C1124 C1123 1.403 . S
C1124 C1125 1.404 . S
C1124 C1127 1.539 . S
C1125 C1121 1.408 . S
C1125 C1124 1.404 . S
C1125 H1137 0.930 . S
C1126 C1122 1.524 . S
C1126 H1138 0.956 . S
C1126 H1139 0.961 . S
C1126 H1140 0.961 . S
C1127 C1124 1.539 . S
C1127 H1141 0.958 . S
C1127 H1142 0.961 . S
C1127 H1143 0.960 . S
H1128 C1112 0.931 . S
H1129 C1117 0.929 . S
H1130 C1118 0.960 . S
H1131 C1118 0.962 . S
H1132 C1118 0.960 . S
H1133 C1119 0.961 . S
H1134 C1119 0.961 . S
H1135 C1119 0.961 . S
H1136 C1120 0.931 . S
H1137 C1125 0.930 . S
H1138 C1126 0.956 . S
H1139 C1126 0.961 . S
H1140 C1126 0.961 . S
H1141 C1127 0.958 . S
H1142 C1127 0.961 . S
H1143 C1127 0.960 . S
C1144 C1145 1.391 . S
C1144 C1146 1.394 . S
C1144 H1160 0.931 . S
C1145 C1144 1.391 . S
C1145 C1149 1.376 . S
C1146 C1144 1.394 . S
C1146 C1147 1.369 . S
C1146 C1150 1.531 . S
C1147 C1146 1.369 . S
C1147 C1148 1.410 . S
C1147 C1155 1.503 . S
C1148 C1147 1.410 . S
C1148 C1149 1.392 . S
C1148 C1151 1.511 . S
C1149 C1145 1.376 . S
C1149 C1148 1.392 . S
C1149 H1161 0.929 . S
C1150 C1146 1.531 . S
C1150 H1162 0.960 . S
C1150 H1163 0.962 . S
C1150 H1164 0.960 . S
C1151 C1148 1.511 . S
C1151 H1165 0.961 1_554 S
C1151 H1166 0.961 . S
C1151 H1167 0.961 . S
C1152 C1153 1.370 . S
C1152 C1154 1.363 . S
C1152 H1168 0.908 1_554 S
C1153 C1152 1.370 . S
C1153 C1157 1.408 . S
C1154 C1152 1.363 . S
C1154 C1155 1.370 . S
C1154 C1158 1.504 1_554 S
C1155 C1147 1.503 . S
C1155 C1154 1.370 . S
C1155 C1156 1.403 . S
C1156 C1155 1.403 . S
C1156 C1157 1.404 . S
C1156 C1159 1.539 . S
C1157 C1153 1.408 . S
C1157 C1156 1.404 . S
C1157 H1169 0.930 . S
C1158 C1154 1.504 1_556 S
C1158 H1170 0.943 1_556 S
C1158 H1171 0.973 . S
C1158 H1172 0.982 . S
C1159 C1156 1.539 . S
C1159 H1173 0.958 . S
C1159 H1174 0.961 . S
C1159 H1175 0.960 . S
H1160 C1144 0.931 . S
H1161 C1149 0.929 . S
H1162 C1150 0.960 . S
H1163 C1150 0.962 . S
H1164 C1150 0.960 . S
H1165 C1151 0.961 1_556 S
H1166 C1151 0.961 . S
H1167 C1151 0.961 . S
H1168 C1152 0.908 1_556 S
H1169 C1157 0.930 . S
H1170 C1158 0.943 1_554 S
H1171 C1158 0.973 . S
H1172 C1158 0.982 . S
H1173 C1159 0.958 . S
H1174 C1159 0.961 . S
H1175 C1159 0.960 . S
C1176 C1177 1.391 . S
C1176 C1178 1.394 . S
C1176 H1192 0.931 . S
C1177 C1176 1.391 . S
C1177 C1181 1.376 . S
C1178 C1176 1.394 . S
C1178 C1179 1.369 . S
C1178 C1182 1.531 . S
C1179 C1178 1.369 . S
C1179 C1180 1.410 . S
C1179 C1187 1.503 . S
C1180 C1179 1.410 . S
C1180 C1181 1.392 . S
C1180 C1183 1.511 1_556 S
C1181 C1177 1.376 . S
C1181 C1180 1.392 . S
C1181 H1193 0.941 . S
C1182 C1178 1.531 . S
C1182 H1194 0.960 . S
C1182 H1195 0.962 . S
C1182 H1196 0.960 . S
C1183 C1180 1.511 1_554 S
C1183 H1197 0.961 . S
C1183 H1198 0.961 . S
C1183 H1199 0.961 . S
C1184 C1185 1.370 . S
C1184 C1186 1.363 . S
C1184 H1200 0.931 . S
C1185 C1184 1.370 . S
C1185 C1189 1.408 . S
C1186 C1184 1.363 . S
C1186 C1187 1.370 . S
C1186 C1190 1.524 . S
C1187 C1179 1.503 . S
C1187 C1186 1.370 . S
C1187 C1188 1.403 . S
C1188 C1187 1.403 . S
C1188 C1189 1.404 . S
C1188 C1191 1.539 . S
C1189 C1185 1.408 . S
C1189 C1188 1.404 . S
C1189 H1201 0.954 . S
C1190 C1186 1.524 . S
C1190 H1202 0.956 . S
C1190 H1203 0.961 . S
C1190 H1204 0.961 . S
C1191 C1188 1.539 . S
C1191 H1205 0.958 . S
C1191 H1206 0.961 1_556 S
C1191 H1207 0.960 . S
H1192 C1176 0.931 . S
H1193 C1181 0.941 . S
H1194 C1182 0.960 . S
H1195 C1182 0.962 . S
H1196 C1182 0.960 . S
H1197 C1183 0.961 . S
H1198 C1183 0.961 . S
H1199 C1183 0.961 . S
H1200 C1184 0.931 . S
H1201 C1189 0.954 . S
H1202 C1190 0.956 . S
H1203 C1190 0.961 . S
H1204 C1190 0.961 . S
H1205 C1191 0.958 . S
H1206 C1191 0.961 1_554 S
H1207 C1191 0.960 . S
C1208 C1209 1.391 . S
C1208 C1210 1.394 . S
C1208 H1224 0.931 . S
C1209 C1208 1.391 . S
C1209 C1213 1.376 . S
C1210 C1208 1.394 . S
C1210 C1211 1.369 . S
C1210 C1214 1.531 . S
C1211 C1210 1.369 . S
C1211 C1212 1.410 . S
C1211 C1219 1.503 . S
C1212 C1211 1.410 . S
C1212 C1213 1.392 . S
C1212 C1215 1.511 . S
C1213 C1209 1.376 . S
C1213 C1212 1.392 . S
C1213 H1225 0.929 . S
C1214 C1210 1.531 . S
C1214 H1226 0.960 . S
C1214 H1227 0.962 . S
C1214 H1228 0.960 . S
C1215 C1212 1.511 . S
C1215 H1229 0.961 . S
C1215 H1230 0.961 . S
C1215 H1231 0.961 . S
C1216 C1217 1.370 . S
C1216 C1218 1.363 . S
C1216 H1232 0.931 . S
C1217 C1216 1.370 . S
C1217 C1221 1.408 . S
C1218 C1216 1.363 . S
C1218 C1219 1.370 . S
C1218 C1222 1.524 . S
C1219 C1211 1.503 . S
C1219 C1218 1.370 . S
C1219 C1220 1.403 . S
C1220 C1219 1.403 . S
C1220 C1221 1.404 . S
C1220 C1223 1.539 . S
C1221 C1217 1.408 . S
C1221 C1220 1.404 . S
C1221 H1233 0.930 . S
C1222 C1218 1.524 . S
C1222 H1234 0.956 . S
C1222 H1235 0.961 . S
C1222 H1236 0.961 . S
C1223 C1220 1.539 . S
C1223 H1237 0.958 . S
C1223 H1238 0.961 . S
C1223 H1239 0.960 . S
H1224 C1208 0.931 . S
H1225 C1213 0.929 . S
H1226 C1214 0.960 . S
H1227 C1214 0.962 . S
H1228 C1214 0.960 . S
H1229 C1215 0.961 . S
H1230 C1215 0.961 . S
H1231 C1215 0.961 . S
H1232 C1216 0.931 . S
H1233 C1221 0.930 . S
H1234 C1222 0.956 . S
H1235 C1222 0.961 . S
H1236 C1222 0.961 . S
H1237 C1223 0.958 . S
H1238 C1223 0.961 . S
H1239 C1223 0.960 . S
C1240 C1241 1.391 . S
C1240 C1242 1.394 . S
C1240 H1256 0.931 . S
C1241 C1240 1.391 . S
C1241 C1245 1.376 . S
C1242 C1240 1.394 . S
C1242 C1243 1.369 . S
C1242 C1246 1.531 . S
C1243 C1242 1.369 . S
C1243 C1244 1.410 . S
C1243 C1251 1.503 . S
C1244 C1243 1.410 . S
C1244 C1245 1.392 . S
C1244 C1247 1.511 1_556 S
C1245 C1241 1.376 . S
C1245 C1244 1.392 . S
C1245 H1257 0.929 1_556 S
C1246 C1242 1.531 . S
C1246 H1258 0.960 . S
C1246 H1259 0.962 . S
C1246 H1260 0.960 . S
C1247 C1244 1.511 1_554 S
C1247 H1261 0.961 . S
C1247 H1262 0.961 . S
C1247 H1263 0.961 . S
C1248 C1249 1.370 . S
C1248 C1250 1.363 . S
C1248 H1264 0.931 . S
C1249 C1248 1.370 . S
C1249 C1253 1.408 . S
C1250 C1248 1.363 . S
C1250 C1251 1.370 . S
C1250 C1254 1.524 . S
C1251 C1243 1.503 . S
C1251 C1250 1.370 . S
C1251 C1252 1.403 . S
C1252 C1251 1.403 . S
C1252 C1253 1.404 . S
C1252 C1255 1.539 . S
C1253 C1249 1.408 . S
C1253 C1252 1.404 . S
C1253 H1265 0.930 . S
C1254 C1250 1.524 . S
C1254 H1266 0.956 . S
C1254 H1267 1.009 . S
C1254 H1268 0.961 . S
C1255 C1252 1.539 . S
C1255 H1269 0.958 . S
C1255 H1270 0.961 . S
C1255 H1271 0.960 . S
H1256 C1240 0.931 . S
H1257 C1245 0.929 1_554 S
H1258 C1246 0.960 . S
H1259 C1246 0.962 . S
H1260 C1246 0.960 . S
H1261 C1247 0.961 . S
H1262 C1247 0.961 . S
H1263 C1247 0.961 . S
H1264 C1248 0.931 . S
H1265 C1253 0.930 . S
H1266 C1254 0.956 . S
H1267 C1254 1.009 . S
H1268 C1254 0.961 . S
H1269 C1255 0.958 . S
H1270 C1255 0.961 . S
H1271 C1255 0.960 . S
C1272 C1273 1.391 . S
C1272 C1274 1.394 . S
C1272 H1288 0.931 . S
C1273 C1272 1.391 . S
C1273 C1277 1.376 . S
C1274 C1272 1.394 . S
C1274 C1275 1.369 . S
C1274 C1278 1.531 . S
C1275 C1274 1.369 . S
C1275 C1276 1.410 . S
C1275 C1283 1.503 . S
C1276 C1275 1.410 . S
C1276 C1277 1.392 . S
C1276 C1279 1.511 . S
C1277 C1273 1.376 . S
C1277 C1276 1.392 . S
C1277 H1289 0.929 . S
C1278 C1274 1.531 . S
C1278 H1290 0.960 . S
C1278 H1291 0.962 . S
C1278 H1292 0.960 . S
C1279 C1276 1.511 . S
C1279 H1293 0.961 . S
C1279 H1294 0.961 . S
C1279 H1295 0.961 . S
C1280 C1281 1.370 . S
C1280 C1282 1.363 . S
C1280 H1296 0.931 1_556 S
C1281 C1280 1.370 . S
C1281 C1285 1.408 . S
C1282 C1280 1.363 . S
C1282 C1283 1.370 . S
C1282 C1286 1.524 1_556 S
C1283 C1275 1.503 . S
C1283 C1282 1.370 . S
C1283 C1284 1.403 . S
C1284 C1283 1.403 . S
C1284 C1285 1.404 . S
C1284 C1287 1.539 . S
C1285 C1281 1.408 . S
C1285 C1284 1.404 . S
C1285 H1297 0.930 . S
C1286 C1282 1.524 1_554 S
C1286 H1298 0.956 . S
C1286 H1299 0.961 1_554 S
C1286 H1300 0.961 . S
C1287 C1284 1.539 . S
C1287 H1301 0.958 . S
C1287 H1302 0.961 . S
C1287 H1303 0.960 . S
H1288 C1272 0.931 . S
H1289 C1277 0.929 . S
H1290 C1278 0.960 . S
H1291 C1278 0.962 . S
H1292 C1278 0.960 . S
H1293 C1279 0.961 . S
H1294 C1279 0.961 . S
H1295 C1279 0.961 . S
H1296 C1280 0.931 1_554 S
H1297 C1285 0.930 . S
H1298 C1286 0.956 . S
H1299 C1286 0.961 1_556 S
H1300 C1286 0.961 . S
H1301 C1287 0.958 . S
H1302 C1287 0.961 . S
H1303 C1287 0.960 . S
C1304 C1305 1.391 . S
C1304 C1306 1.394 . S
C1304 H1320 0.931 . S
C1305 C1304 1.391 . S
C1305 C1309 1.376 . S
C1306 C1304 1.394 . S
C1306 C1307 1.369 . S
C1306 C1310 1.531 . S
C1307 C1306 1.369 . S
C1307 C1308 1.410 . S
C1307 C1315 1.503 . S
C1308 C1307 1.410 . S
C1308 C1309 1.392 . S
C1308 C1311 1.511 . S
C1309 C1305 1.376 . S
C1309 C1308 1.392 . S
C1309 H1321 0.929 . S
C1310 C1306 1.531 . S
C1310 H1322 0.939 1_556 S
C1310 H1323 0.962 . S
C1310 H1324 0.960 1_556 S
C1311 C1308 1.511 . S
C1311 H1325 0.961 . S
C1311 H1326 0.961 . S
C1311 H1327 0.961 . S
C1312 C1313 1.370 . S
C1312 C1314 1.363 . S
C1312 H1328 0.931 . S
C1313 C1312 1.370 . S
C1313 C1317 1.408 . S
C1314 C1312 1.363 . S
C1314 C1315 1.370 . S
C1314 C1318 1.524 . S
C1315 C1307 1.503 . S
C1315 C1314 1.370 . S
C1315 C1316 1.403 . S
C1316 C1315 1.403 . S
C1316 C1317 1.404 . S
C1316 C1319 1.539 . S
C1317 C1313 1.408 . S
C1317 C1316 1.404 . S
C1317 H1329 0.930 . S
C1318 C1314 1.524 . S
C1318 H1330 0.956 . S
C1318 H1331 0.961 . S
C1318 H1332 0.961 . S
C1319 C1316 1.539 . S
C1319 H1333 0.946 1_556 S
C1319 H1334 0.961 . S
C1319 H1335 0.960 . S
H1320 C1304 0.931 . S
H1321 C1309 0.929 . S
H1322 C1310 0.939 1_554 S
H1323 C1310 0.962 . S
H1324 C1310 0.960 1_554 S
H1325 C1311 0.961 . S
H1326 C1311 0.961 . S
H1327 C1311 0.961 . S
H1328 C1312 0.931 . S
H1329 C1317 0.930 . S
H1330 C1318 0.956 . S
H1331 C1318 0.961 . S
H1332 C1318 0.961 . S
H1333 C1319 0.946 1_554 S
H1334 C1319 0.961 . S
H1335 C1319 0.960 . S
C1336 C1337 1.391 . S
C1336 C1338 1.394 . S
C1336 H1352 0.931 . S
C1337 C1336 1.391 . S
C1337 C1341 1.376 . S
C1338 C1336 1.394 . S
C1338 C1339 1.369 . S
C1338 C1342 1.531 . S
C1339 C1338 1.369 . S
C1339 C1340 1.410 . S
C1339 C1347 1.503 . S
C1340 C1339 1.410 . S
C1340 C1341 1.392 . S
C1340 C1343 1.542 . S
C1341 C1337 1.376 . S
C1341 C1340 1.392 . S
C1341 H1353 0.929 . S
C1342 C1338 1.531 . S
C1342 H1354 0.960 . S
C1342 H1355 0.962 . S
C1342 H1356 0.960 . S
C1343 C1340 1.542 . S
C1343 H1357 0.910 1_556 S
C1343 H1358 0.939 1_556 S
C1343 H1359 1.008 . S
C1344 C1345 1.370 1_554 S
C1344 C1346 1.363 . S
C1344 H1360 0.931 . S
C1345 C1344 1.370 1_556 S
C1345 C1349 1.408 . S
C1346 C1344 1.363 . S
C1346 C1347 1.370 1_554 S
C1346 C1350 1.524 . S
C1347 C1339 1.503 . S
C1347 C1346 1.370 1_556 S
C1347 C1348 1.403 . S
C1348 C1347 1.403 . S
C1348 C1349 1.404 . S
C1348 C1351 1.539 . S
C1349 C1345 1.408 . S
C1349 C1348 1.404 . S
C1349 H1361 0.930 . S
C1350 C1346 1.524 . S
C1350 H1362 0.956 . S
C1350 H1363 0.961 . S
C1350 H1364 0.961 . S
C1351 C1348 1.539 . S
C1351 H1365 0.958 . S
C1351 H1366 0.961 . S
C1351 H1367 0.960 . S
H1352 C1336 0.931 . S
H1353 C1341 0.929 . S
H1354 C1342 0.960 . S
H1355 C1342 0.962 . S
H1356 C1342 0.960 . S
H1357 C1343 0.910 1_554 S
H1358 C1343 0.939 1_554 S
H1359 C1343 1.008 . S
H1360 C1344 0.931 . S
H1361 C1349 0.930 . S
H1362 C1350 0.956 . S
H1363 C1350 0.961 . S
H1364 C1350 0.961 . S
H1365 C1351 0.958 . S
H1366 C1351 0.961 . S
H1367 C1351 0.960 . S
C1368 C1369 1.391 . S
C1368 C1370 1.394 . S
C1368 H1384 0.931 . S
C1369 C1368 1.391 . S
C1369 C1373 1.376 . S
C1370 C1368 1.394 . S
C1370 C1371 1.369 . S
C1370 C1374 1.531 . S
C1371 C1370 1.369 . S
C1371 C1372 1.410 . S
C1371 C1379 1.503 . S
C1372 C1371 1.410 . S
C1372 C1373 1.392 . S
C1372 C1375 1.511 1_554 S
C1373 C1369 1.376 . S
C1373 C1372 1.392 . S
C1373 H1385 0.929 . S
C1374 C1370 1.531 . S
C1374 H1386 0.960 . S
C1374 H1387 0.962 . S
C1374 H1388 0.960 . S
C1375 C1372 1.511 1_556 S
C1375 H1389 0.961 . S
C1375 H1390 0.971 . S
C1375 H1391 0.961 . S
C1376 C1377 1.370 . S
C1376 C1378 1.363 . S
C1376 H1392 0.931 . S
C1377 C1376 1.370 . S
C1377 C1381 1.408 . S
C1378 C1376 1.363 . S
C1378 C1379 1.370 . S
C1378 C1382 1.524 . S
C1379 C1371 1.503 . S
C1379 C1378 1.370 . S
C1379 C1380 1.403 . S
C1380 C1379 1.403 . S
C1380 C1381 1.404 . S
C1380 C1383 1.539 . S
C1381 C1377 1.408 . S
C1381 C1380 1.404 . S
C1381 H1393 0.930 . S
C1382 C1378 1.524 . S
C1382 H1394 0.956 . S
C1382 H1395 0.961 . S
C1382 H1396 0.961 . S
C1383 C1380 1.539 . S
C1383 H1397 0.958 . S
C1383 H1398 0.961 . S
C1383 H1399 0.960 . S
H1384 C1368 0.931 . S
H1385 C1373 0.929 . S
H1386 C1374 0.960 . S
H1387 C1374 0.962 . S
H1388 C1374 0.960 . S
H1389 C1375 0.961 . S
H1390 C1375 0.971 . S
H1391 C1375 0.961 . S
H1392 C1376 0.931 . S
H1393 C1381 0.930 . S
H1394 C1382 0.956 . S
H1395 C1382 0.961 . S
H1396 C1382 0.961 . S
H1397 C1383 0.958 . S
H1398 C1383 0.961 . S
H1399 C1383 0.960 . S
C1400 C1401 1.391 . S
C1400 C1402 1.394 . S
C1400 H1416 0.931 . S
C1401 C1400 1.391 . S
C1401 C1405 1.376 . S
C1402 C1400 1.394 . S
C1402 C1403 1.369 . S
C1402 C1406 1.531 . S
C1403 C1402 1.369 . S
C1403 C1404 1.410 . S
C1403 C1411 1.503 . S
C1404 C1403 1.410 . S
C1404 C1405 1.392 . S
C1404 C1407 1.511 . S
C1405 C1401 1.376 . S
C1405 C1404 1.392 . S
C1405 H1417 0.929 . S
C1406 C1402 1.531 . S
C1406 H1418 0.960 . S
C1406 H1419 0.962 . S
C1406 H1420 0.960 . S
C1407 C1404 1.511 . S
C1407 H1421 0.961 . S
C1407 H1422 0.961 . S
C1407 H1423 0.961 . S
C1408 C1409 1.370 . S
C1408 C1410 1.363 . S
C1408 H1424 0.931 . S
C1409 C1408 1.370 . S
C1409 C1413 1.408 . S
C1410 C1408 1.363 . S
C1410 C1411 1.370 . S
C1410 C1414 1.524 . S
C1411 C1403 1.503 . S
C1411 C1410 1.370 . S
C1411 C1412 1.403 . S
C1412 C1411 1.403 . S
C1412 C1413 1.404 . S
C1412 C1415 1.539 . S
C1413 C1409 1.408 . S
C1413 C1412 1.404 . S
C1413 H1425 0.930 . S
C1414 C1410 1.524 . S
C1414 H1426 0.956 . S
C1414 H1427 0.961 . S
C1414 H1428 0.961 . S
C1415 C1412 1.539 . S
C1415 H1429 0.958 . S
C1415 H1430 0.961 . S
C1415 H1431 0.960 . S
H1416 C1400 0.931 . S
H1417 C1405 0.929 . S
H1418 C1406 0.960 . S
H1419 C1406 0.962 . S
H1420 C1406 0.960 . S
H1421 C1407 0.961 . S
H1422 C1407 0.961 . S
H1423 C1407 0.961 . S
H1424 C1408 0.931 . S
H1425 C1413 0.930 . S
H1426 C1414 0.956 . S
H1427 C1414 0.961 . S
H1428 C1414 0.961 . S
H1429 C1415 0.958 . S
H1430 C1415 0.961 . S
H1431 C1415 0.960 . S
C1432 C1433 1.391 . S
C1432 C1434 1.394 . S
C1432 H1448 0.931 . S
C1433 C1432 1.391 . S
C1433 C1437 1.376 . S
C1434 C1432 1.394 . S
C1434 C1435 1.369 . S
C1434 C1438 1.531 . S
C1435 C1434 1.369 . S
C1435 C1436 1.410 . S
C1435 C1443 1.503 . S
C1436 C1435 1.410 . S
C1436 C1437 1.392 . S
C1436 C1439 1.511 . S
C1437 C1433 1.376 . S
C1437 C1436 1.392 . S
C1437 H1449 0.929 . S
C1438 C1434 1.531 . S
C1438 H1450 0.960 . S
C1438 H1451 0.962 . S
C1438 H1452 0.960 . S
C1439 C1436 1.511 . S
C1439 H1453 0.961 . S
C1439 H1454 0.961 . S
C1439 H1455 0.961 1_554 S
C1440 C1441 1.370 . S
C1440 C1442 1.363 . S
C1440 H1456 0.931 . S
C1441 C1440 1.370 . S
C1441 C1445 1.408 . S
C1442 C1440 1.363 . S
C1442 C1443 1.370 . S
C1442 C1446 1.524 . S
C1443 C1435 1.503 . S
C1443 C1442 1.370 . S
C1443 C1444 1.403 . S
C1444 C1443 1.403 . S
C1444 C1445 1.404 . S
C1444 C1447 1.539 1_554 S
C1445 C1441 1.408 . S
C1445 C1444 1.404 . S
C1445 H1457 0.930 1_554 S
C1446 C1442 1.524 . S
C1446 H1458 0.956 . S
C1446 H1459 0.961 . S
C1446 H1460 0.961 . S
C1447 C1444 1.539 1_556 S
C1447 H1461 0.958 . S
C1447 H1462 0.961 . S
C1447 H1463 0.960 . S
H1448 C1432 0.931 . S
H1449 C1437 0.929 . S
H1450 C1438 0.960 . S
H1451 C1438 0.962 . S
H1452 C1438 0.960 . S
H1453 C1439 0.961 . S
H1454 C1439 0.961 . S
H1455 C1439 0.961 1_556 S
H1456 C1440 0.931 . S
H1457 C1445 0.930 1_556 S
H1458 C1446 0.956 . S
H1459 C1446 0.961 . S
H1460 C1446 0.961 . S
H1461 C1447 0.958 . S
H1462 C1447 0.961 . S
H1463 C1447 0.960 . S
C1464 C1465 1.391 1_455 S
C1464 C1466 1.394 . S
C1464 H1480 0.931 . S
C1465 C1464 1.391 1_655 S
C1465 C1469 1.376 . S
C1466 C1464 1.394 . S
C1466 C1467 1.369 . S
C1466 C1470 1.531 . S
C1467 C1466 1.369 . S
C1467 C1468 1.410 . S
C1467 C1475 1.503 . S
C1468 C1467 1.410 . S
C1468 C1469 1.392 1_455 S
C1468 C1471 1.511 . S
C1469 C1465 1.376 . S
C1469 C1468 1.392 1_655 S
C1469 H1481 0.929 . S
C1470 C1466 1.531 . S
C1470 H1482 0.960 . S
C1470 H1483 0.962 . S
C1470 H1484 0.960 . S
C1471 C1468 1.511 . S
C1471 H1485 0.961 . S
C1471 H1486 0.961 . S
C1471 H1487 0.961 . S
C1472 C1473 1.370 . S
C1472 C1474 1.363 . S
C1472 H1488 0.931 . S
C1473 C1472 1.370 . S
C1473 C1477 1.408 . S
C1474 C1472 1.363 . S
C1474 C1475 1.370 . S
C1474 C1478 1.524 . S
C1475 C1467 1.503 . S
C1475 C1474 1.370 . S
C1475 C1476 1.403 . S
C1476 C1475 1.403 . S
C1476 C1477 1.404 . S
C1476 C1479 1.539 . S
C1477 C1473 1.408 . S
C1477 C1476 1.404 . S
C1477 H1489 0.930 . S
C1478 C1474 1.524 . S
C1478 H1490 0.956 . S
C1478 H1491 0.961 . S
C1478 H1492 0.961 . S
C1479 C1476 1.539 . S
C1479 H1493 0.958 . S
C1479 H1494 0.961 . S
C1479 H1495 0.960 . S
H1480 C1464 0.931 . S
H1481 C1469 0.929 . S
H1482 C1470 0.960 . S
H1483 C1470 0.962 . S
H1484 C1470 0.960 . S
H1485 C1471 0.961 . S
H1486 C1471 0.961 . S
H1487 C1471 0.961 . S
H1488 C1472 0.931 . S
H1489 C1477 0.930 . S
H1490 C1478 0.956 . S
H1491 C1478 0.961 . S
H1492 C1478 0.961 . S
H1493 C1479 0.958 . S
H1494 C1479 0.961 . S
H1495 C1479 0.960 . S
C1496 C1497 1.391 . S
C1496 C1498 1.394 . S
C1496 H1512 0.931 . S
C1497 C1496 1.391 . S
C1497 C1501 1.376 . S
C1498 C1496 1.394 . S
C1498 C1499 1.369 . S
C1498 C1502 1.531 . S
C1499 C1498 1.369 . S
C1499 C1500 1.410 . S
C1499 C1507 1.503 . S
C1500 C1499 1.410 . S
C1500 C1501 1.392 . S
C1500 C1503 1.511 . S
C1501 C1497 1.376 . S
C1501 C1500 1.392 . S
C1501 H1513 0.929 . S
C1502 C1498 1.531 . S
C1502 H1514 0.960 . S
C1502 H1515 0.962 . S
C1502 H1516 0.960 . S
C1503 C1500 1.511 . S
C1503 H1517 0.961 . S
C1503 H1518 0.961 . S
C1503 H1519 0.961 . S
C1504 C1505 1.370 . S
C1504 C1506 1.363 . S
C1504 H1520 0.931 . S
C1505 C1504 1.370 . S
C1505 C1509 1.408 . S
C1506 C1504 1.363 . S
C1506 C1507 1.370 . S
C1506 C1510 1.524 . S
C1507 C1499 1.503 . S
C1507 C1506 1.370 . S
C1507 C1508 1.403 . S
C1508 C1507 1.403 . S
C1508 C1509 1.404 . S
C1508 C1511 1.539 . S
C1509 C1505 1.408 . S
C1509 C1508 1.404 . S
C1509 H1521 0.930 . S
C1510 C1506 1.524 . S
C1510 H1522 0.956 . S
C1510 H1523 0.961 . S
C1510 H1524 0.961 . S
C1511 C1508 1.539 . S
C1511 H1525 0.958 . S
C1511 H1526 0.961 . S
C1511 H1527 0.960 . S
H1512 C1496 0.931 . S
H1513 C1501 0.929 . S
H1514 C1502 0.960 . S
H1515 C1502 0.962 . S
H1516 C1502 0.960 . S
H1517 C1503 0.961 . S
H1518 C1503 0.961 . S
H1519 C1503 0.961 . S
H1520 C1504 0.931 . S
H1521 C1509 0.930 . S
H1522 C1510 0.956 . S
H1523 C1510 0.961 . S
H1524 C1510 0.961 . S
H1525 C1511 0.958 . S
H1526 C1511 0.961 . S
H1527 C1511 0.960 . S
C1528 C1529 1.391 . S
C1528 C1530 1.394 1_545 S
C1528 H1544 0.931 . S
C1529 C1528 1.391 . S
C1529 C1533 1.376 . S
C1530 C1528 1.394 1_565 S
C1530 C1531 1.369 . S
C1530 C1534 1.531 . S
C1531 C1530 1.369 . S
C1531 C1532 1.410 . S
C1531 C1539 1.503 . S
C1532 C1531 1.410 . S
C1532 C1533 1.392 1_565 S
C1532 C1535 1.511 . S
C1533 C1529 1.376 . S
C1533 C1532 1.392 1_545 S
C1533 H1545 0.929 . S
C1534 C1530 1.531 . S
C1534 H1546 0.960 . S
C1534 H1547 0.962 . S
C1534 H1548 0.960 . S
C1535 C1532 1.511 . S
C1535 H1549 0.961 . S
C1535 H1550 0.961 . S
C1535 H1551 0.961 . S
C1536 C1537 1.370 . S
C1536 C1538 1.363 . S
C1536 H1552 0.931 . S
C1537 C1536 1.370 . S
C1537 C1541 1.408 . S
C1538 C1536 1.363 . S
C1538 C1539 1.370 . S
C1538 C1542 1.524 . S
C1539 C1531 1.503 . S
C1539 C1538 1.370 . S
C1539 C1540 1.403 . S
C1540 C1539 1.403 . S
C1540 C1541 1.404 . S
C1540 C1543 1.539 . S
C1541 C1537 1.408 . S
C1541 C1540 1.404 . S
C1541 H1553 0.930 . S
C1542 C1538 1.524 . S
C1542 H1554 0.956 . S
C1542 H1555 0.961 . S
C1542 H1556 0.961 . S
C1543 C1540 1.539 . S
C1543 H1557 0.958 . S
C1543 H1558 0.961 . S
C1543 H1559 0.960 . S
H1544 C1528 0.931 . S
H1545 C1533 0.929 . S
H1546 C1534 0.960 . S
H1547 C1534 0.962 . S
H1548 C1534 0.960 . S
H1549 C1535 0.961 . S
H1550 C1535 0.961 . S
H1551 C1535 0.961 . S
H1552 C1536 0.931 . S
H1553 C1541 0.930 . S
H1554 C1542 0.956 . S
H1555 C1542 0.961 . S
H1556 C1542 0.961 . S
H1557 C1543 0.958 . S
H1558 C1543 0.961 . S
H1559 C1543 0.960 . S
C1560 C1561 1.391 . S
C1560 C1562 1.394 . S
C1560 H1576 0.931 . S
C1561 C1560 1.391 . S
C1561 C1565 1.376 . S
C1562 C1560 1.394 . S
C1562 C1563 1.369 . S
C1562 C1566 1.531 . S
C1563 C1562 1.369 . S
C1563 C1564 1.410 . S
C1563 C1571 1.503 . S
C1564 C1563 1.410 . S
C1564 C1565 1.392 . S
C1564 C1567 1.511 . S
C1565 C1561 1.376 . S
C1565 C1564 1.392 . S
C1565 H1577 0.929 . S
C1566 C1562 1.531 . S
C1566 H1578 0.960 . S
C1566 H1579 0.962 . S
C1566 H1580 0.960 . S
C1567 C1564 1.511 . S
C1567 H1581 0.961 . S
C1567 H1582 0.961 . S
C1567 H1583 0.961 . S
C1568 C1569 1.370 . S
C1568 C1570 1.363 . S
C1568 H1584 0.931 . S
C1569 C1568 1.370 . S
C1569 C1573 1.408 . S
C1570 C1568 1.363 . S
C1570 C1571 1.370 . S
C1570 C1574 1.524 . S
C1571 C1563 1.503 . S
C1571 C1570 1.370 . S
C1571 C1572 1.403 . S
C1572 C1571 1.403 . S
C1572 C1573 1.404 . S
C1572 C1575 1.539 . S
C1573 C1569 1.408 . S
C1573 C1572 1.404 . S
C1573 H1585 0.930 . S
C1574 C1570 1.524 . S
C1574 H1586 0.956 . S
C1574 H1587 0.961 . S
C1574 H1588 0.961 . S
C1575 C1572 1.539 . S
C1575 H1589 0.958 . S
C1575 H1590 0.961 . S
C1575 H1591 0.960 . S
H1576 C1560 0.931 . S
H1577 C1565 0.929 . S
H1578 C1566 0.960 . S
H1579 C1566 0.962 . S
H1580 C1566 0.960 . S
H1581 C1567 0.961 . S
H1582 C1567 0.961 . S
H1583 C1567 0.961 . S
H1584 C1568 0.931 . S
H1585 C1573 0.930 . S
H1586 C1574 0.956 . S
H1587 C1574 0.961 . S
H1588 C1574 0.961 . S
H1589 C1575 0.958 . S
H1590 C1575 0.961 . S
H1591 C1575 0.960 . S
C1592 C1593 1.391 . S
C1592 C1594 1.394 . S
C1592 H1608 0.931 . S
C1593 C1592 1.391 . S
C1593 C1597 1.376 . S
C1594 C1592 1.394 . S
C1594 C1595 1.369 . S
C1594 C1598 1.531 . S
C1595 C1594 1.369 . S
C1595 C1596 1.410 . S
C1595 C1603 1.503 . S
C1596 C1595 1.410 . S
C1596 C1597 1.392 . S
C1596 C1599 1.511 . S
C1597 C1593 1.376 . S
C1597 C1596 1.392 . S
C1597 H1609 0.929 . S
C1598 C1594 1.531 . S
C1598 H1610 0.960 . S
C1598 H1611 0.962 . S
C1598 H1612 0.960 . S
C1599 C1596 1.511 . S
C1599 H1613 0.961 . S
C1599 H1614 0.961 . S
C1599 H1615 0.961 . S
C1600 C1601 1.370 . S
C1600 C1602 1.363 . S
C1600 H1616 0.931 . S
C1601 C1600 1.370 . S
C1601 C1605 1.408 . S
C1602 C1600 1.363 . S
C1602 C1603 1.370 . S
C1602 C1606 1.524 . S
C1603 C1595 1.503 . S
C1603 C1602 1.370 . S
C1603 C1604 1.403 . S
C1604 C1603 1.403 . S
C1604 C1605 1.404 . S
C1604 C1607 1.539 . S
C1605 C1601 1.408 . S
C1605 C1604 1.404 . S
C1605 H1617 0.930 . S
C1606 C1602 1.524 . S
C1606 H1618 0.956 . S
C1606 H1619 0.961 . S
C1606 H1620 0.961 . S
C1607 C1604 1.539 . S
C1607 H1621 0.958 . S
C1607 H1622 0.961 . S
C1607 H1623 0.960 . S
H1608 C1592 0.931 . S
H1609 C1597 0.929 . S
H1610 C1598 0.960 . S
H1611 C1598 0.962 . S
H1612 C1598 0.960 . S
H1613 C1599 0.961 . S
H1614 C1599 0.961 . S
H1615 C1599 0.961 . S
H1616 C1600 0.931 . S
H1617 C1605 0.930 . S
H1618 C1606 0.956 . S
H1619 C1606 0.961 . S
H1620 C1606 0.961 . S
H1621 C1607 0.958 . S
H1622 C1607 0.961 . S
H1623 C1607 0.960 . S
C1624 C1625 1.391 . S
C1624 C1626 1.394 . S
C1624 H1640 0.931 . S
C1625 C1624 1.391 . S
C1625 C1629 1.376 . S
C1626 C1624 1.394 . S
C1626 C1627 1.369 . S
C1626 C1630 1.531 . S
C1627 C1626 1.369 . S
C1627 C1628 1.410 . S
C1627 C1635 1.503 . S
C1628 C1627 1.410 . S
C1628 C1629 1.392 . S
C1628 C1631 1.511 . S
C1629 C1625 1.376 . S
C1629 C1628 1.392 . S
C1629 H1641 0.929 . S
C1630 C1626 1.531 . S
C1630 H1642 0.960 . S
C1630 H1643 0.962 . S
C1630 H1644 0.960 . S
C1631 C1628 1.511 . S
C1631 H1645 0.961 . S
C1631 H1646 0.961 . S
C1631 H1647 0.961 . S
C1632 C1633 1.370 . S
C1632 C1634 1.363 . S
C1632 H1648 0.931 . S
C1633 C1632 1.370 . S
C1633 C1637 1.408 . S
C1634 C1632 1.363 . S
C1634 C1635 1.370 . S
C1634 C1638 1.524 . S
C1635 C1627 1.503 . S
C1635 C1634 1.370 . S
C1635 C1636 1.403 . S
C1636 C1635 1.403 . S
C1636 C1637 1.404 . S
C1636 C1639 1.539 . S
C1637 C1633 1.408 . S
C1637 C1636 1.404 . S
C1637 H1649 0.930 . S
C1638 C1634 1.524 . S
C1638 H1650 0.956 . S
C1638 H1651 0.961 . S
C1638 H1652 0.961 . S
C1639 C1636 1.539 . S
C1639 H1653 0.958 . S
C1639 H1654 0.961 . S
C1639 H1655 0.960 . S
H1640 C1624 0.931 . S
H1641 C1629 0.929 . S
H1642 C1630 0.960 . S
H1643 C1630 0.962 . S
H1644 C1630 0.960 . S
H1645 C1631 0.961 . S
H1646 C1631 0.961 . S
H1647 C1631 0.961 . S
H1648 C1632 0.931 . S
H1649 C1637 0.930 . S
H1650 C1638 0.956 . S
H1651 C1638 0.961 . S
H1652 C1638 0.961 . S
H1653 C1639 0.958 . S
H1654 C1639 0.961 . S
H1655 C1639 0.960 . S
C1656 C1657 1.391 . S
C1656 C1658 1.394 . S
C1656 H1672 0.931 . S
C1657 C1656 1.391 . S
C1657 C1661 1.376 . S
C1658 C1656 1.394 . S
C1658 C1659 1.369 . S
C1658 C1662 1.531 . S
C1659 C1658 1.369 . S
C1659 C1660 1.410 . S
C1659 C1667 1.503 . S
C1660 C1659 1.410 . S
C1660 C1661 1.392 . S
C1660 C1663 1.511 . S
C1661 C1657 1.376 . S
C1661 C1660 1.392 . S
C1661 H1673 0.929 . S
C1662 C1658 1.531 . S
C1662 H1674 0.960 . S
C1662 H1675 0.962 . S
C1662 H1676 0.960 . S
C1663 C1660 1.511 . S
C1663 H1677 0.961 . S
C1663 H1678 0.961 . S
C1663 H1679 0.961 . S
C1664 C1665 1.370 . S
C1664 C1666 1.363 . S
C1664 H1680 0.931 . S
C1665 C1664 1.370 . S
C1665 C1669 1.408 . S
C1666 C1664 1.363 . S
C1666 C1667 1.370 . S
C1666 C1670 1.524 . S
C1667 C1659 1.503 . S
C1667 C1666 1.370 . S
C1667 C1668 1.403 . S
C1668 C1667 1.403 . S
C1668 C1669 1.404 . S
C1668 C1671 1.539 . S
C1669 C1665 1.408 . S
C1669 C1668 1.404 . S
C1669 H1681 0.930 . S
C1670 C1666 1.524 . S
C1670 H1682 0.956 . S
C1670 H1683 0.961 . S
C1670 H1684 0.961 . S
C1671 C1668 1.539 . S
C1671 H1685 0.958 . S
C1671 H1686 0.961 . S
C1671 H1687 0.960 . S
H1672 C1656 0.931 . S
H1673 C1661 0.929 . S
H1674 C1662 0.960 . S
H1675 C1662 0.962 . S
H1676 C1662 0.960 . S
H1677 C1663 0.961 . S
H1678 C1663 0.961 . S
H1679 C1663 0.961 . S
H1680 C1664 0.931 . S
H1681 C1669 0.930 . S
H1682 C1670 0.956 . S
H1683 C1670 0.961 . S
H1684 C1670 0.961 . S
H1685 C1671 0.958 . S
H1686 C1671 0.961 . S
H1687 C1671 0.960 . S
C1688 C1689 1.391 . S
C1688 C1690 1.394 . S
C1688 H1704 0.931 . S
C1689 C1688 1.391 . S
C1689 C1693 1.376 . S
C1690 C1688 1.394 . S
C1690 C1691 1.369 . S
C1690 C1694 1.531 . S
C1691 C1690 1.369 . S
C1691 C1692 1.410 . S
C1691 C1699 1.503 . S
C1692 C1691 1.410 . S
C1692 C1693 1.392 . S
C1692 C1695 1.511 . S
C1693 C1689 1.376 . S
C1693 C1692 1.392 . S
C1693 H1705 0.929 . S
C1694 C1690 1.531 . S
C1694 H1706 0.960 . S
C1694 H1707 0.962 . S
C1694 H1708 0.960 . S
C1695 C1692 1.511 . S
C1695 H1709 0.961 . S
C1695 H1710 0.961 . S
C1695 H1711 0.961 . S
C1696 C1697 1.370 . S
C1696 C1698 1.363 . S
C1696 H1712 0.931 . S
C1697 C1696 1.370 . S
C1697 C1701 1.408 . S
C1698 C1696 1.363 . S
C1698 C1699 1.370 . S
C1698 C1702 1.524 . S
C1699 C1691 1.503 . S
C1699 C1698 1.370 . S
C1699 C1700 1.403 . S
C1700 C1699 1.403 . S
C1700 C1701 1.404 . S
C1700 C1703 1.539 . S
C1701 C1697 1.408 . S
C1701 C1700 1.404 . S
C1701 H1713 0.930 . S
C1702 C1698 1.524 . S
C1702 H1714 0.956 . S
C1702 H1715 0.961 . S
C1702 H1716 0.961 . S
C1703 C1700 1.539 . S
C1703 H1717 0.958 . S
C1703 H1718 0.961 . S
C1703 H1719 0.960 . S
H1704 C1688 0.931 . S
H1705 C1693 0.929 . S
H1706 C1694 0.960 . S
H1707 C1694 0.962 . S
H1708 C1694 0.960 . S
H1709 C1695 0.961 . S
H1710 C1695 0.961 . S
H1711 C1695 0.961 . S
H1712 C1696 0.931 . S
H1713 C1701 0.930 . S
H1714 C1702 0.956 . S
H1715 C1702 0.961 . S
H1716 C1702 0.961 . S
H1717 C1703 0.958 . S
H1718 C1703 0.961 . S
H1719 C1703 0.960 . S
C1720 C1721 1.391 . S
C1720 C1722 1.394 . S
C1720 H1736 0.931 . S
C1721 C1720 1.391 . S
C1721 C1725 1.376 . S
C1722 C1720 1.394 . S
C1722 C1723 1.369 . S
C1722 C1726 1.531 . S
C1723 C1722 1.369 . S
C1723 C1724 1.410 . S
C1723 C1731 1.503 . S
C1724 C1723 1.410 . S
C1724 C1725 1.392 . S
C1724 C1727 1.511 . S
C1725 C1721 1.376 . S
C1725 C1724 1.392 . S
C1725 H1737 0.929 . S
C1726 C1722 1.531 . S
C1726 H1738 0.960 . S
C1726 H1739 0.962 . S
C1726 H1740 0.960 . S
C1727 C1724 1.511 . S
C1727 H1741 0.961 . S
C1727 H1742 0.961 . S
C1727 H1743 0.961 . S
C1728 C1729 1.370 . S
C1728 C1730 1.363 . S
C1728 H1744 0.931 . S
C1729 C1728 1.370 . S
C1729 C1733 1.408 . S
C1730 C1728 1.363 . S
C1730 C1731 1.370 . S
C1730 C1734 1.524 . S
C1731 C1723 1.503 . S
C1731 C1730 1.370 . S
C1731 C1732 1.403 . S
C1732 C1731 1.403 . S
C1732 C1733 1.404 . S
C1732 C1735 1.539 . S
C1733 C1729 1.408 . S
C1733 C1732 1.404 . S
C1733 H1745 0.930 . S
C1734 C1730 1.524 . S
C1734 H1746 0.956 . S
C1734 H1747 0.961 . S
C1734 H1748 0.961 . S
C1735 C1732 1.539 . S
C1735 H1749 0.958 . S
C1735 H1750 0.961 . S
C1735 H1751 0.960 . S
H1736 C1720 0.931 . S
H1737 C1725 0.929 . S
H1738 C1726 0.960 . S
H1739 C1726 0.962 . S
H1740 C1726 0.960 . S
H1741 C1727 0.961 . S
H1742 C1727 0.961 . S
H1743 C1727 0.961 . S
H1744 C1728 0.931 . S
H1745 C1733 0.930 . S
H1746 C1734 0.956 . S
H1747 C1734 0.961 . S
H1748 C1734 0.961 . S
H1749 C1735 0.958 . S
H1750 C1735 0.961 . S
H1751 C1735 0.960 . S
C1752 C1753 1.391 . S
C1752 C1754 1.394 1_545 S
C1752 H1768 0.931 . S
C1753 C1752 1.391 . S
C1753 C1757 1.376 . S
C1754 C1752 1.394 1_565 S
C1754 C1755 1.369 . S
C1754 C1758 1.531 . S
C1755 C1754 1.369 . S
C1755 C1756 1.410 . S
C1755 C1763 1.503 . S
C1756 C1755 1.410 . S
C1756 C1757 1.392 1_565 S
C1756 C1759 1.511 . S
C1757 C1753 1.376 . S
C1757 C1756 1.392 1_545 S
C1757 H1769 0.929 . S
C1758 C1754 1.531 . S
C1758 H1770 0.960 . S
C1758 H1771 0.962 . S
C1758 H1772 0.960 . S
C1759 C1756 1.511 . S
C1759 H1773 0.961 . S
C1759 H1774 0.961 . S
C1759 H1775 0.961 . S
C1760 C1761 1.370 . S
C1760 C1762 1.363 . S
C1760 H1776 0.931 . S
C1761 C1760 1.370 . S
C1761 C1765 1.408 . S
C1762 C1760 1.363 . S
C1762 C1763 1.370 . S
C1762 C1766 1.524 . S
C1763 C1755 1.503 . S
C1763 C1762 1.370 . S
C1763 C1764 1.403 . S
C1764 C1763 1.403 . S
C1764 C1765 1.404 . S
C1764 C1767 1.539 . S
C1765 C1761 1.408 . S
C1765 C1764 1.404 . S
C1765 H1777 0.930 . S
C1766 C1762 1.524 . S
C1766 H1778 0.956 . S
C1766 H1779 0.961 . S
C1766 H1780 0.961 . S
C1767 C1764 1.539 . S
C1767 H1781 0.958 . S
C1767 H1782 0.961 . S
C1767 H1783 0.960 . S
H1768 C1752 0.931 . S
H1769 C1757 0.929 . S
H1770 C1758 0.960 . S
H1771 C1758 0.962 . S
H1772 C1758 0.960 . S
H1773 C1759 0.961 . S
H1774 C1759 0.961 . S
H1775 C1759 0.961 . S
H1776 C1760 0.931 . S
H1777 C1765 0.930 . S
H1778 C1766 0.956 . S
H1779 C1766 0.961 . S
H1780 C1766 0.961 . S
H1781 C1767 0.958 . S
H1782 C1767 0.961 . S
H1783 C1767 0.960 . S
C1784 C1785 1.391 . S
C1784 C1786 1.394 . S
C1784 H1800 0.931 . S
C1785 C1784 1.391 . S
C1785 C1789 1.376 . S
C1786 C1784 1.394 . S
C1786 C1787 1.369 . S
C1786 C1790 1.531 . S
C1787 C1786 1.369 . S
C1787 C1788 1.410 . S
C1787 C1795 1.503 . S
C1788 C1787 1.410 . S
C1788 C1789 1.392 . S
C1788 C1791 1.511 . S
C1789 C1785 1.376 . S
C1789 C1788 1.392 . S
C1789 H1801 0.929 1_455 S
C1790 C1786 1.531 . S
C1790 H1802 0.960 . S
C1790 H1803 0.962 . S
C1790 H1804 0.960 . S
C1791 C1788 1.511 . S
C1791 H1805 0.961 . S
C1791 H1806 0.961 . S
C1791 H1807 0.961 . S
C1792 C1793 1.370 . S
C1792 C1794 1.363 . S
C1792 H1808 0.931 . S
C1793 C1792 1.370 . S
C1793 C1797 1.408 . S
C1794 C1792 1.363 . S
C1794 C1795 1.370 . S
C1794 C1798 1.524 . S
C1795 C1787 1.503 . S
C1795 C1794 1.370 . S
C1795 C1796 1.403 . S
C1796 C1795 1.403 . S
C1796 C1797 1.404 . S
C1796 C1799 1.539 . S
C1797 C1793 1.408 . S
C1797 C1796 1.404 . S
C1797 H1809 0.930 . S
C1798 C1794 1.524 . S
C1798 H1810 0.956 . S
C1798 H1811 0.961 . S
C1798 H1812 0.961 . S
C1799 C1796 1.539 . S
C1799 H1813 0.958 . S
C1799 H1814 0.961 . S
C1799 H1815 0.960 . S
H1800 C1784 0.931 . S
H1801 C1789 0.929 1_655 S
H1802 C1790 0.960 . S
H1803 C1790 0.962 . S
H1804 C1790 0.960 . S
H1805 C1791 0.961 . S
H1806 C1791 0.961 . S
H1807 C1791 0.961 . S
H1808 C1792 0.931 . S
H1809 C1797 0.930 . S
H1810 C1798 0.956 . S
H1811 C1798 0.961 . S
H1812 C1798 0.961 . S
H1813 C1799 0.958 . S
H1814 C1799 0.961 . S
H1815 C1799 0.960 . S
C1816 C1817 1.391 . S
C1816 C1818 1.394 . S
C1816 H1832 0.931 . S
C1817 C1816 1.391 . S
C1817 C1821 1.376 . S
C1818 C1816 1.394 . S
C1818 C1819 1.369 . S
C1818 C1822 1.531 . S
C1819 C1818 1.369 . S
C1819 C1820 1.410 . S
C1819 C1827 1.503 . S
C1820 C1819 1.410 . S
C1820 C1821 1.392 . S
C1820 C1823 1.511 . S
C1821 C1817 1.376 . S
C1821 C1820 1.392 . S
C1821 H1833 0.929 . S
C1822 C1818 1.531 . S
C1822 H1834 0.960 . S
C1822 H1835 0.962 . S
C1822 H1836 0.960 . S
C1823 C1820 1.511 . S
C1823 H1837 0.961 . S
C1823 H1838 0.961 . S
C1823 H1839 0.961 . S
C1824 C1825 1.370 . S
C1824 C1826 1.363 . S
C1824 H1840 0.931 . S
C1825 C1824 1.370 . S
C1825 C1829 1.408 . S
C1826 C1824 1.363 . S
C1826 C1827 1.370 . S
C1826 C1830 1.524 . S
C1827 C1819 1.503 . S
C1827 C1826 1.370 . S
C1827 C1828 1.403 . S
C1828 C1827 1.403 . S
C1828 C1829 1.404 . S
C1828 C1831 1.539 . S
C1829 C1825 1.408 . S
C1829 C1828 1.404 . S
C1829 H1841 0.930 . S
C1830 C1826 1.524 . S
C1830 H1842 0.956 . S
C1830 H1843 0.961 . S
C1830 H1844 0.961 . S
C1831 C1828 1.539 . S
C1831 H1845 0.958 . S
C1831 H1846 0.961 . S
C1831 H1847 0.960 . S
H1832 C1816 0.931 . S
H1833 C1821 0.929 . S
H1834 C1822 0.960 . S
H1835 C1822 0.962 . S
H1836 C1822 0.960 . S
H1837 C1823 0.961 . S
H1838 C1823 0.961 . S
H1839 C1823 0.961 . S
H1840 C1824 0.931 . S
H1841 C1829 0.930 . S
H1842 C1830 0.956 . S
H1843 C1830 0.961 . S
H1844 C1830 0.961 . S
H1845 C1831 0.958 . S
H1846 C1831 0.961 . S
H1847 C1831 0.960 . S
C1848 C1849 1.391 . S
C1848 C1850 1.394 . S
C1848 H1864 0.931 . S
C1849 C1848 1.391 . S
C1849 C1853 1.376 . S
C1850 C1848 1.394 . S
C1850 C1851 1.369 . S
C1850 C1854 1.531 . S
C1851 C1850 1.369 . S
C1851 C1852 1.410 . S
C1851 C1859 1.503 . S
C1852 C1851 1.410 . S
C1852 C1853 1.392 . S
C1852 C1855 1.511 . S
C1853 C1849 1.376 . S
C1853 C1852 1.392 . S
C1853 H1865 0.929 . S
C1854 C1850 1.531 . S
C1854 H1866 0.960 . S
C1854 H1867 0.962 . S
C1854 H1868 0.960 . S
C1855 C1852 1.511 . S
C1855 H1869 0.961 . S
C1855 H1870 0.961 . S
C1855 H1871 0.961 . S
C1856 C1857 1.370 . S
C1856 C1858 1.363 . S
C1856 H1872 0.931 . S
C1857 C1856 1.370 . S
C1857 C1861 1.408 . S
C1858 C1856 1.363 . S
C1858 C1859 1.370 . S
C1858 C1862 1.524 . S
C1859 C1851 1.503 . S
C1859 C1858 1.370 . S
C1859 C1860 1.403 . S
C1860 C1859 1.403 . S
C1860 C1861 1.404 . S
C1860 C1863 1.539 . S
C1861 C1857 1.408 . S
C1861 C1860 1.404 . S
C1861 H1873 0.930 . S
C1862 C1858 1.524 . S
C1862 H1874 0.956 . S
C1862 H1875 0.961 . S
C1862 H1876 0.961 . S
C1863 C1860 1.539 . S
C1863 H1877 0.958 . S
C1863 H1878 0.961 . S
C1863 H1879 0.960 . S
H1864 C1848 0.931 . S
H1865 C1853 0.929 . S
H1866 C1854 0.960 . S
H1867 C1854 0.962 . S
H1868 C1854 0.960 . S
H1869 C1855 0.961 . S
H1870 C1855 0.961 . S
H1871 C1855 0.961 . S
H1872 C1856 0.931 . S
H1873 C1861 0.930 . S
H1874 C1862 0.956 . S
H1875 C1862 0.961 . S
H1876 C1862 0.961 . S
H1877 C1863 0.958 . S
H1878 C1863 0.961 . S
H1879 C1863 0.960 . S
C1880 C1881 1.391 . S
C1880 C1882 1.394 . S
C1880 H1896 0.931 . S
C1881 C1880 1.391 . S
C1881 C1885 1.376 . S
C1882 C1880 1.394 . S
C1882 C1883 1.369 . S
C1882 C1886 1.531 . S
C1883 C1882 1.369 . S
C1883 C1884 1.410 . S
C1883 C1891 1.503 . S
C1884 C1883 1.410 . S
C1884 C1885 1.392 . S
C1884 C1887 1.511 . S
C1885 C1881 1.376 . S
C1885 C1884 1.392 . S
C1885 H1897 0.929 . S
C1886 C1882 1.531 . S
C1886 H1898 0.960 . S
C1886 H1899 0.962 . S
C1886 H1900 0.960 . S
C1887 C1884 1.511 . S
C1887 H1901 0.961 . S
C1887 H1902 0.961 . S
C1887 H1903 0.961 . S
C1888 C1889 1.370 . S
C1888 C1890 1.363 . S
C1888 H1904 0.931 . S
C1889 C1888 1.370 . S
C1889 C1893 1.408 . S
C1890 C1888 1.363 . S
C1890 C1891 1.370 . S
C1890 C1894 1.524 . S
C1891 C1883 1.503 . S
C1891 C1890 1.370 . S
C1891 C1892 1.403 . S
C1892 C1891 1.403 . S
C1892 C1893 1.404 . S
C1892 C1895 1.539 . S
C1893 C1889 1.408 . S
C1893 C1892 1.404 . S
C1893 H1905 0.930 . S
C1894 C1890 1.524 . S
C1894 H1906 0.956 . S
C1894 H1907 0.961 . S
C1894 H1908 0.961 . S
C1895 C1892 1.539 . S
C1895 H1909 0.958 . S
C1895 H1910 0.961 . S
C1895 H1911 0.960 . S
H1896 C1880 0.931 . S
H1897 C1885 0.929 . S
H1898 C1886 0.960 . S
H1899 C1886 0.962 . S
H1900 C1886 0.960 . S
H1901 C1887 0.961 . S
H1902 C1887 0.961 . S
H1903 C1887 0.961 . S
H1904 C1888 0.931 . S
H1905 C1893 0.930 . S
H1906 C1894 0.956 . S
H1907 C1894 0.961 . S
H1908 C1894 0.961 . S
H1909 C1895 0.958 . S
H1910 C1895 0.961 . S
H1911 C1895 0.960 . S
C1912 C1913 1.391 . S
C1912 C1914 1.394 . S
C1912 H1928 0.931 . S
C1913 C1912 1.391 . S
C1913 C1917 1.376 . S
C1914 C1912 1.394 . S
C1914 C1915 1.369 . S
C1914 C1918 1.531 . S
C1915 C1914 1.369 . S
C1915 C1916 1.410 . S
C1915 C1923 1.503 . S
C1916 C1915 1.410 . S
C1916 C1917 1.392 . S
C1916 C1919 1.511 . S
C1917 C1913 1.376 . S
C1917 C1916 1.392 . S
C1917 H1929 0.929 . S
C1918 C1914 1.531 . S
C1918 H1930 0.960 . S
C1918 H1931 0.962 . S
C1918 H1932 0.960 . S
C1919 C1916 1.511 . S
C1919 H1933 0.961 . S
C1919 H1934 0.961 . S
C1919 H1935 0.961 . S
C1920 C1921 1.370 . S
C1920 C1922 1.363 . S
C1920 H1936 0.931 . S
C1921 C1920 1.370 . S
C1921 C1925 1.408 . S
C1922 C1920 1.363 . S
C1922 C1923 1.370 . S
C1922 C1926 1.524 . S
C1923 C1915 1.503 . S
C1923 C1922 1.370 . S
C1923 C1924 1.403 . S
C1924 C1923 1.403 . S
C1924 C1925 1.404 . S
C1924 C1927 1.539 . S
C1925 C1921 1.408 . S
C1925 C1924 1.404 . S
C1925 H1937 0.930 . S
C1926 C1922 1.524 . S
C1926 H1938 0.956 . S
C1926 H1939 0.961 . S
C1926 H1940 0.961 . S
C1927 C1924 1.539 . S
C1927 H1941 0.958 . S
C1927 H1942 0.961 . S
C1927 H1943 0.960 . S
H1928 C1912 0.931 . S
H1929 C1917 0.929 . S
H1930 C1918 0.960 . S
H1931 C1918 0.962 . S
H1932 C1918 0.960 . S
H1933 C1919 0.961 . S
H1934 C1919 0.961 . S
H1935 C1919 0.961 . S
H1936 C1920 0.931 . S
H1937 C1925 0.930 . S
H1938 C1926 0.956 . S
H1939 C1926 0.961 . S
H1940 C1926 0.961 . S
H1941 C1927 0.958 . S
H1942 C1927 0.961 . S
H1943 C1927 0.960 . S
C1944 C1945 1.391 . S
C1944 C1946 1.394 1_565 S
C1944 H1960 0.931 . S
C1945 C1944 1.391 . S
C1945 C1949 1.376 . S
C1946 C1944 1.394 1_545 S
C1946 C1947 1.369 . S
C1946 C1950 1.531 . S
C1947 C1946 1.369 . S
C1947 C1948 1.410 . S
C1947 C1955 1.503 . S
C1948 C1947 1.410 . S
C1948 C1949 1.392 1_545 S
C1948 C1951 1.511 . S
C1949 C1945 1.376 . S
C1949 C1948 1.392 1_565 S
C1949 H1961 0.929 . S
C1950 C1946 1.531 . S
C1950 H1962 0.960 . S
C1950 H1963 0.962 . S
C1950 H1964 0.960 . S
C1951 C1948 1.511 . S
C1951 H1965 0.961 . S
C1951 H1966 0.961 . S
C1951 H1967 0.961 . S
C1952 C1953 1.370 . S
C1952 C1954 1.363 . S
C1952 H1968 0.931 . S
C1953 C1952 1.370 . S
C1953 C1957 1.408 . S
C1954 C1952 1.363 . S
C1954 C1955 1.370 . S
C1954 C1958 1.524 . S
C1955 C1947 1.503 . S
C1955 C1954 1.370 . S
C1955 C1956 1.403 . S
C1956 C1955 1.403 . S
C1956 C1957 1.404 . S
C1956 C1959 1.539 . S
C1957 C1953 1.408 . S
C1957 C1956 1.404 . S
C1957 H1969 0.930 . S
C1958 C1954 1.524 . S
C1958 H1970 0.956 . S
C1958 H1971 0.961 . S
C1958 H1972 0.961 . S
C1959 C1956 1.539 . S
C1959 H1973 0.958 . S
C1959 H1974 0.961 . S
C1959 H1975 0.960 . S
H1960 C1944 0.931 . S
H1961 C1949 0.929 . S
H1962 C1950 0.960 . S
H1963 C1950 0.962 . S
H1964 C1950 0.960 . S
H1965 C1951 0.961 . S
H1966 C1951 0.961 . S
H1967 C1951 0.961 . S
H1968 C1952 0.931 . S
H1969 C1957 0.930 . S
H1970 C1958 0.956 . S
H1971 C1958 0.961 . S
H1972 C1958 0.961 . S
H1973 C1959 0.958 . S
H1974 C1959 0.961 . S
H1975 C1959 0.960 . S
C1976 C1977 1.394 . S
C1976 C1978 1.394 . S
C1976 H1992 0.931 1_655 S
C1977 C1976 1.394 . S
C1977 C1981 1.381 . S
C1978 C1976 1.394 . S
C1978 C1979 1.369 . S
C1978 C1982 1.531 . S
C1979 C1978 1.369 . S
C1979 C1980 1.410 . S
C1979 C1987 1.503 . S
C1980 C1979 1.410 . S
C1980 C1981 1.392 . S
C1980 C1983 1.511 . S
C1981 C1977 1.381 . S
C1981 C1980 1.392 . S
C1981 H1993 0.929 . S
C1982 C1978 1.531 . S
C1982 H1994 0.960 . S
C1982 H1995 0.962 . S
C1982 H1996 0.960 . S
C1983 C1980 1.511 . S
C1983 H1997 0.961 . S
C1983 H1998 0.961 . S
C1983 H1999 0.961 . S
C1984 C1985 1.370 . S
C1984 C1986 1.363 . S
C1984 H2000 0.931 . S
C1985 C1984 1.370 . S
C1985 C1989 1.408 . S
C1986 C1984 1.363 . S
C1986 C1987 1.370 . S
C1986 C1990 1.524 . S
C1987 C1979 1.503 . S
C1987 C1986 1.370 . S
C1987 C1988 1.403 . S
C1988 C1987 1.403 . S
C1988 C1989 1.404 . S
C1988 C1991 1.539 . S
C1989 C1985 1.408 . S
C1989 C1988 1.404 . S
C1989 H2001 0.930 . S
C1990 C1986 1.524 . S
C1990 H2002 0.956 . S
C1990 H2003 0.961 . S
C1990 H2004 0.961 . S
C1991 C1988 1.539 . S
C1991 H2005 0.958 . S
C1991 H2006 0.961 . S
C1991 H2007 0.960 . S
H1992 C1976 0.931 1_455 S
H1993 C1981 0.929 . S
H1994 C1982 0.960 . S
H1995 C1982 0.962 . S
H1996 C1982 0.960 . S
H1997 C1983 0.961 . S
H1998 C1983 0.961 . S
H1999 C1983 0.961 . S
H2000 C1984 0.931 . S
H2001 C1989 0.930 . S
H2002 C1990 0.956 . S
H2003 C1990 0.961 . S
H2004 C1990 0.961 . S
H2005 C1991 0.958 . S
H2006 C1991 0.961 . S
H2007 C1991 0.960 . S
C2008 C2009 1.391 . S
C2008 C2010 1.394 . S
C2008 H2024 0.931 . S
C2009 C2008 1.391 . S
C2009 C2013 1.376 . S
C2010 C2008 1.394 . S
C2010 C2011 1.369 . S
C2010 C2014 1.531 . S
C2011 C2010 1.369 . S
C2011 C2012 1.410 . S
C2011 C2019 1.503 . S
C2012 C2011 1.410 . S
C2012 C2013 1.392 . S
C2012 C2015 1.511 . S
C2013 C2009 1.376 . S
C2013 C2012 1.392 . S
C2013 H2025 0.929 . S
C2014 C2010 1.531 . S
C2014 H2026 0.960 . S
C2014 H2027 0.962 . S
C2014 H2028 0.960 . S
C2015 C2012 1.511 . S
C2015 H2029 0.961 . S
C2015 H2030 0.961 . S
C2015 H2031 0.961 . S
C2016 C2017 1.370 . S
C2016 C2018 1.363 . S
C2016 H2032 0.931 . S
C2017 C2016 1.370 . S
C2017 C2021 1.408 . S
C2018 C2016 1.363 . S
C2018 C2019 1.370 . S
C2018 C2022 1.524 . S
C2019 C2011 1.503 . S
C2019 C2018 1.370 . S
C2019 C2020 1.403 . S
C2020 C2019 1.403 . S
C2020 C2021 1.404 . S
C2020 C2023 1.539 . S
C2021 C2017 1.408 . S
C2021 C2020 1.404 . S
C2021 H2033 0.930 . S
C2022 C2018 1.524 . S
C2022 H2034 0.956 . S
C2022 H2035 0.961 . S
C2022 H2036 0.961 . S
C2023 C2020 1.539 . S
C2023 H2037 0.958 . S
C2023 H2038 0.961 . S
C2023 H2039 0.960 . S
H2024 C2008 0.931 . S
H2025 C2013 0.929 . S
H2026 C2014 0.960 . S
H2027 C2014 0.962 . S
H2028 C2014 0.960 . S
H2029 C2015 0.961 . S
H2030 C2015 0.961 . S
H2031 C2015 0.961 . S
H2032 C2016 0.931 . S
H2033 C2021 0.930 . S
H2034 C2022 0.956 . S
H2035 C2022 0.961 . S
H2036 C2022 0.961 . S
H2037 C2023 0.958 . S
H2038 C2023 0.961 . S
H2039 C2023 0.960 . S
C2040 C2041 1.391 . S
C2040 C2042 1.394 1_455 S
C2040 H2056 0.931 . S
C2041 C2040 1.391 . S
C2041 C2045 1.376 . S
C2042 C2040 1.394 1_655 S
C2042 C2043 1.369 . S
C2042 C2046 1.531 . S
C2043 C2042 1.369 . S
C2043 C2044 1.410 . S
C2043 C2051 1.503 . S
C2044 C2043 1.410 . S
C2044 C2045 1.392 1_655 S
C2044 C2047 1.511 . S
C2045 C2041 1.376 . S
C2045 C2044 1.392 1_455 S
C2045 H2057 0.929 . S
C2046 C2042 1.531 . S
C2046 H2058 0.960 . S
C2046 H2059 0.962 . S
C2046 H2060 0.960 . S
C2047 C2044 1.511 . S
C2047 H2061 0.961 . S
C2047 H2062 0.961 . S
C2047 H2063 0.961 . S
C2048 C2049 1.370 . S
C2048 C2050 1.363 . S
C2048 H2064 0.931 . S
C2049 C2048 1.370 . S
C2049 C2053 1.408 . S
C2050 C2048 1.363 . S
C2050 C2051 1.370 . S
C2050 C2054 1.524 . S
C2051 C2043 1.503 . S
C2051 C2050 1.370 . S
C2051 C2052 1.403 . S
C2052 C2051 1.403 . S
C2052 C2053 1.404 . S
C2052 C2055 1.539 . S
C2053 C2049 1.408 . S
C2053 C2052 1.404 . S
C2053 H2065 0.930 . S
C2054 C2050 1.524 . S
C2054 H2066 0.956 . S
C2054 H2067 0.961 . S
C2054 H2068 0.961 . S
C2055 C2052 1.539 . S
C2055 H2069 0.958 . S
C2055 H2070 0.961 . S
C2055 H2071 0.960 . S
H2056 C2040 0.931 . S
H2057 C2045 0.929 . S
H2058 C2046 0.960 . S
H2059 C2046 0.962 . S
H2060 C2046 0.960 . S
H2061 C2047 0.961 . S
H2062 C2047 0.961 . S
H2063 C2047 0.961 . S
H2064 C2048 0.931 . S
H2065 C2053 0.930 . S
H2066 C2054 0.956 . S
H2067 C2054 0.961 . S
H2068 C2054 0.961 . S
H2069 C2055 0.958 . S
H2070 C2055 0.961 . S
H2071 C2055 0.960 . S
C2072 C2073 1.391 . S
C2072 C2074 1.394 . S
C2072 H2088 0.931 . S
C2073 C2072 1.391 . S
C2073 C2077 1.376 . S
C2074 C2072 1.394 . S
C2074 C2075 1.369 . S
C2074 C2078 1.531 . S
C2075 C2074 1.369 . S
C2075 C2076 1.410 . S
C2075 C2083 1.503 . S
C2076 C2075 1.410 . S
C2076 C2077 1.392 . S
C2076 C2079 1.511 . S
C2077 C2073 1.376 . S
C2077 C2076 1.392 . S
C2077 H2089 0.929 . S
C2078 C2074 1.531 . S
C2078 H2090 0.960 . S
C2078 H2091 0.962 . S
C2078 H2092 0.960 . S
C2079 C2076 1.511 . S
C2079 H2093 0.961 . S
C2079 H2094 0.961 . S
C2079 H2095 0.961 . S
C2080 C2081 1.370 . S
C2080 C2082 1.363 . S
C2080 H2096 0.931 . S
C2081 C2080 1.370 . S
C2081 C2085 1.408 . S
C2082 C2080 1.363 . S
C2082 C2083 1.370 . S
C2082 C2086 1.524 . S
C2083 C2075 1.503 . S
C2083 C2082 1.370 . S
C2083 C2084 1.403 . S
C2084 C2083 1.403 . S
C2084 C2085 1.404 . S
C2084 C2087 1.539 . S
C2085 C2081 1.408 . S
C2085 C2084 1.404 . S
C2085 H2097 0.930 . S
C2086 C2082 1.524 . S
C2086 H2098 0.956 . S
C2086 H2099 0.961 . S
C2086 H2100 0.961 . S
C2087 C2084 1.539 . S
C2087 H2101 0.958 . S
C2087 H2102 0.961 . S
C2087 H2103 0.960 . S
H2088 C2072 0.931 . S
H2089 C2077 0.929 . S
H2090 C2078 0.960 . S
H2091 C2078 0.962 . S
H2092 C2078 0.960 . S
H2093 C2079 0.961 . S
H2094 C2079 0.961 . S
H2095 C2079 0.961 . S
H2096 C2080 0.931 . S
H2097 C2085 0.930 . S
H2098 C2086 0.956 . S
H2099 C2086 0.961 . S
H2100 C2086 0.961 . S
H2101 C2087 0.958 . S
H2102 C2087 0.961 . S
H2103 C2087 0.960 . S
C2104 C2105 1.391 . S
C2104 C2106 1.394 1_565 S
C2104 H2120 0.931 . S
C2105 C2104 1.391 . S
C2105 C2109 1.376 . S
C2106 C2104 1.394 1_545 S
C2106 C2107 1.369 . S
C2106 C2110 1.531 . S
C2107 C2106 1.369 . S
C2107 C2108 1.410 . S
C2107 C2115 1.503 . S
C2108 C2107 1.410 . S
C2108 C2109 1.392 1_545 S
C2108 C2111 1.511 . S
C2109 C2105 1.376 . S
C2109 C2108 1.392 1_565 S
C2109 H2121 0.929 . S
C2110 C2106 1.531 . S
C2110 H2122 0.960 . S
C2110 H2123 0.962 . S
C2110 H2124 0.960 . S
C2111 C2108 1.511 . S
C2111 H2125 0.961 . S
C2111 H2126 0.961 . S
C2111 H2127 0.961 . S
C2112 C2113 1.370 . S
C2112 C2114 1.363 . S
C2112 H2128 0.931 . S
C2113 C2112 1.370 . S
C2113 C2117 1.408 . S
C2114 C2112 1.363 . S
C2114 C2115 1.370 . S
C2114 C2118 1.524 . S
C2115 C2107 1.503 . S
C2115 C2114 1.370 . S
C2115 C2116 1.403 . S
C2116 C2115 1.403 . S
C2116 C2117 1.404 . S
C2116 C2119 1.539 . S
C2117 C2113 1.408 . S
C2117 C2116 1.404 . S
C2117 H2129 0.930 . S
C2118 C2114 1.524 . S
C2118 H2130 0.956 . S
C2118 H2131 0.961 . S
C2118 H2132 0.961 . S
C2119 C2116 1.539 . S
C2119 H2133 0.958 . S
C2119 H2134 0.961 . S
C2119 H2135 0.960 . S
H2120 C2104 0.931 . S
H2121 C2109 0.929 . S
H2122 C2110 0.960 . S
H2123 C2110 0.962 . S
H2124 C2110 0.960 . S
H2125 C2111 0.961 . S
H2126 C2111 0.961 . S
H2127 C2111 0.961 . S
H2128 C2112 0.931 . S
H2129 C2117 0.930 . S
H2130 C2118 0.956 . S
H2131 C2118 0.961 . S
H2132 C2118 0.961 . S
H2133 C2119 0.958 . S
H2134 C2119 0.961 . S
H2135 C2119 0.960 . S
C2136 C2137 1.391 . S
C2136 C2138 1.394 . S
C2136 H2152 0.931 . S
C2137 C2136 1.391 . S
C2137 C2141 1.376 . S
C2138 C2136 1.394 . S
C2138 C2139 1.369 . S
C2138 C2142 1.531 . S
C2139 C2138 1.369 . S
C2139 C2140 1.410 . S
C2139 C2147 1.503 . S
C2140 C2139 1.410 . S
C2140 C2141 1.392 . S
C2140 C2143 1.511 . S
C2141 C2137 1.376 . S
C2141 C2140 1.392 . S
C2141 H2153 0.929 . S
C2142 C2138 1.531 . S
C2142 H2154 0.960 . S
C2142 H2155 0.962 . S
C2142 H2156 0.960 . S
C2143 C2140 1.511 . S
C2143 H2157 0.961 . S
C2143 H2158 0.961 . S
C2143 H2159 0.961 . S
C2144 C2145 1.370 . S
C2144 C2146 1.363 . S
C2144 H2160 0.931 . S
C2145 C2144 1.370 . S
C2145 C2149 1.408 . S
C2146 C2144 1.363 . S
C2146 C2147 1.370 . S
C2146 C2150 1.524 . S
C2147 C2139 1.503 . S
C2147 C2146 1.370 . S
C2147 C2148 1.403 . S
C2148 C2147 1.403 . S
C2148 C2149 1.404 . S
C2148 C2151 1.539 . S
C2149 C2145 1.408 . S
C2149 C2148 1.404 . S
C2149 H2161 0.930 . S
C2150 C2146 1.524 . S
C2150 H2162 0.956 . S
C2150 H2163 0.961 . S
C2150 H2164 0.961 . S
C2151 C2148 1.539 . S
C2151 H2165 0.958 . S
C2151 H2166 0.961 . S
C2151 H2167 0.960 . S
H2152 C2136 0.931 . S
H2153 C2141 0.929 . S
H2154 C2142 0.960 . S
H2155 C2142 0.962 . S
H2156 C2142 0.960 . S
H2157 C2143 0.961 . S
H2158 C2143 0.961 . S
H2159 C2143 0.961 . S
H2160 C2144 0.931 . S
H2161 C2149 0.930 . S
H2162 C2150 0.956 . S
H2163 C2150 0.961 . S
H2164 C2150 0.961 . S
H2165 C2151 0.958 . S
H2166 C2151 0.961 . S
H2167 C2151 0.960 . S
C2168 C2169 1.391 . S
C2168 C2170 1.394 . S
C2168 H2184 0.931 . S
C2169 C2168 1.391 . S
C2169 C2173 1.376 . S
C2170 C2168 1.394 . S
C2170 C2171 1.369 . S
C2170 C2174 1.531 . S
C2171 C2170 1.369 . S
C2171 C2172 1.410 . S
C2171 C2179 1.503 . S
C2172 C2171 1.410 . S
C2172 C2173 1.392 . S
C2172 C2175 1.511 . S
C2173 C2169 1.376 . S
C2173 C2172 1.392 . S
C2173 H2185 0.929 . S
C2174 C2170 1.531 . S
C2174 H2186 0.960 . S
C2174 H2187 0.962 . S
C2174 H2188 0.960 . S
C2175 C2172 1.511 . S
C2175 H2189 0.961 . S
C2175 H2190 0.961 . S
C2175 H2191 0.961 . S
C2176 C2177 1.370 . S
C2176 C2178 1.363 . S
C2176 H2192 0.931 . S
C2177 C2176 1.370 . S
C2177 C2181 1.408 . S
C2178 C2176 1.363 . S
C2178 C2179 1.370 . S
C2178 C2182 1.524 . S
C2179 C2171 1.503 . S
C2179 C2178 1.370 . S
C2179 C2180 1.403 . S
C2180 C2179 1.403 . S
C2180 C2181 1.404 . S
C2180 C2183 1.539 . S
C2181 C2177 1.408 . S
C2181 C2180 1.404 . S
C2181 H2193 0.930 . S
C2182 C2178 1.524 . S
C2182 H2194 0.956 . S
C2182 H2195 0.961 . S
C2182 H2196 0.961 . S
C2183 C2180 1.539 . S
C2183 H2197 0.958 . S
C2183 H2198 0.961 . S
C2183 H2199 0.960 . S
H2184 C2168 0.931 . S
H2185 C2173 0.929 . S
H2186 C2174 0.960 . S
H2187 C2174 0.962 . S
H2188 C2174 0.960 . S
H2189 C2175 0.961 . S
H2190 C2175 0.961 . S
H2191 C2175 0.961 . S
H2192 C2176 0.931 . S
H2193 C2181 0.930 . S
H2194 C2182 0.956 . S
H2195 C2182 0.961 . S
H2196 C2182 0.961 . S
H2197 C2183 0.958 . S
H2198 C2183 0.961 . S
H2199 C2183 0.960 . S
C2200 C2201 1.391 . S
C2200 C2202 1.394 . S
C2200 H2216 0.931 . S
C2201 C2200 1.391 . S
C2201 C2205 1.376 . S
C2202 C2200 1.394 . S
C2202 C2203 1.369 . S
C2202 C2206 1.531 . S
C2203 C2202 1.369 . S
C2203 C2204 1.410 . S
C2203 C2211 1.503 . S
C2204 C2203 1.410 . S
C2204 C2205 1.392 . S
C2204 C2207 1.511 . S
C2205 C2201 1.376 . S
C2205 C2204 1.392 . S
C2205 H2217 0.929 . S
C2206 C2202 1.531 . S
C2206 H2218 0.960 . S
C2206 H2219 0.962 . S
C2206 H2220 0.960 . S
C2207 C2204 1.511 . S
C2207 H2221 0.961 . S
C2207 H2222 0.961 . S
C2207 H2223 0.961 . S
C2208 C2209 1.370 . S
C2208 C2210 1.363 . S
C2208 H2224 0.931 . S
C2209 C2208 1.370 . S
C2209 C2213 1.408 . S
C2210 C2208 1.363 . S
C2210 C2211 1.370 . S
C2210 C2214 1.524 . S
C2211 C2203 1.503 . S
C2211 C2210 1.370 . S
C2211 C2212 1.403 . S
C2212 C2211 1.403 . S
C2212 C2213 1.404 . S
C2212 C2215 1.539 . S
C2213 C2209 1.408 . S
C2213 C2212 1.404 . S
C2213 H2225 0.930 . S
C2214 C2210 1.524 . S
C2214 H2226 0.956 . S
C2214 H2227 0.961 . S
C2214 H2228 0.961 . S
C2215 C2212 1.539 . S
C2215 H2229 0.958 . S
C2215 H2230 0.961 . S
C2215 H2231 0.960 . S
H2216 C2200 0.931 . S
H2217 C2205 0.929 . S
H2218 C2206 0.960 . S
H2219 C2206 0.962 . S
H2220 C2206 0.960 . S
H2221 C2207 0.961 . S
H2222 C2207 0.961 . S
H2223 C2207 0.961 . S
H2224 C2208 0.931 . S
H2225 C2213 0.930 . S
H2226 C2214 0.956 . S
H2227 C2214 0.961 . S
H2228 C2214 0.961 . S
H2229 C2215 0.958 . S
H2230 C2215 0.961 . S
H2231 C2215 0.960 . S
C2232 C2233 1.391 . S
C2232 C2234 1.394 . S
C2232 H2248 0.931 . S
C2233 C2232 1.391 . S
C2233 C2237 1.376 . S
C2234 C2232 1.394 . S
C2234 C2235 1.369 . S
C2234 C2238 1.531 1_565 S
C2235 C2234 1.369 . S
C2235 C2236 1.410 . S
C2235 C2243 1.503 . S
C2236 C2235 1.410 . S
C2236 C2237 1.392 . S
C2236 C2239 1.511 . S
C2237 C2233 1.376 . S
C2237 C2236 1.392 . S
C2237 H2249 0.929 . S
C2238 C2234 1.531 1_545 S
C2238 H2250 0.960 . S
C2238 H2251 0.962 . S
C2238 H2252 0.960 . S
C2239 C2236 1.511 . S
C2239 H2253 0.961 . S
C2239 H2254 0.961 . S
C2239 H2255 0.961 . S
C2240 C2241 1.370 . S
C2240 C2242 1.363 . S
C2240 H2256 0.931 . S
C2241 C2240 1.370 . S
C2241 C2245 1.408 1_565 S
C2242 C2240 1.363 . S
C2242 C2243 1.370 . S
C2242 C2246 1.524 . S
C2243 C2235 1.503 . S
C2243 C2242 1.370 . S
C2243 C2244 1.416 . S
C2244 C2243 1.416 . S
C2244 C2245 1.395 1_565 S
C2244 C2247 1.539 1_565 S
C2245 C2241 1.408 1_545 S
C2245 C2244 1.395 1_545 S
C2245 H2257 0.930 . S
C2246 C2242 1.524 . S
C2246 H2258 0.956 . S
C2246 H2259 0.961 . S
C2246 H2260 0.961 . S
C2247 C2244 1.539 1_545 S
C2247 H2261 0.958 . S
C2247 H2262 0.961 . S
C2247 H2263 0.960 . S
H2248 C2232 0.931 . S
H2249 C2237 0.929 . S
H2250 C2238 0.960 . S
H2251 C2238 0.962 . S
H2252 C2238 0.960 . S
H2253 C2239 0.961 . S
H2254 C2239 0.961 . S
H2255 C2239 0.961 . S
H2256 C2240 0.931 . S
H2257 C2245 0.930 . S
H2258 C2246 0.956 . S
H2259 C2246 0.961 . S
H2260 C2246 0.961 . S
H2261 C2247 0.958 . S
H2262 C2247 0.961 . S
H2263 C2247 0.960 . S
C2264 C2265 1.391 . S
C2264 C2266 1.394 . S
C2264 H2280 0.972 . S
C2265 C2264 1.391 . S
C2265 C2269 1.376 . S
C2266 C2264 1.394 . S
C2266 C2267 1.369 . S
C2266 C2270 1.531 . S
C2267 C2266 1.369 . S
C2267 C2268 1.410 . S
C2267 C2275 1.503 . S
C2268 C2267 1.410 . S
C2268 C2269 1.392 . S
C2268 C2271 1.511 . S
C2269 C2265 1.376 . S
C2269 C2268 1.392 . S
C2269 H2281 0.929 . S
C2270 C2266 1.531 . S
C2270 H2282 0.960 . S
C2270 H2283 0.962 1_455 S
C2270 H2284 0.960 . S
C2271 C2268 1.511 . S
C2271 H2285 0.961 . S
C2271 H2286 0.961 . S
C2271 H2287 0.961 . S
C2272 C2273 1.370 1_655 S
C2272 C2274 1.363 . S
C2272 H2288 0.931 . S
C2273 C2272 1.370 1_455 S
C2273 C2277 1.408 . S
C2274 C2272 1.363 . S
C2274 C2275 1.370 1_655 S
C2274 C2278 1.524 . S
C2275 C2267 1.503 . S
C2275 C2274 1.370 1_455 S
C2275 C2276 1.403 . S
C2276 C2275 1.403 . S
C2276 C2277 1.404 . S
C2276 C2279 1.539 . S
C2277 C2273 1.408 . S
C2277 C2276 1.404 . S
C2277 H2289 0.930 . S
C2278 C2274 1.524 . S
C2278 H2290 0.956 . S
C2278 H2291 0.961 . S
C2278 H2292 0.961 . S
C2279 C2276 1.539 . S
C2279 H2293 0.958 . S
C2279 H2294 0.961 . S
C2279 H2295 0.960 . S
H2280 C2264 0.972 . S
H2281 C2269 0.929 . S
H2282 C2270 0.960 . S
H2283 C2270 0.962 1_655 S
H2284 C2270 0.960 . S
H2285 C2271 0.961 . S
H2286 C2271 0.961 . S
H2287 C2271 0.961 . S
H2288 C2272 0.931 . S
H2289 C2277 0.930 . S
H2290 C2278 0.956 . S
H2291 C2278 0.961 . S
H2292 C2278 0.961 . S
H2293 C2279 0.958 . S
H2294 C2279 0.961 . S
H2295 C2279 0.960 . S
C2296 C2297 1.391 . S
C2296 C2298 1.394 . S
C2296 H2312 0.931 . S
C2297 C2296 1.391 . S
C2297 C2301 1.376 . S
C2298 C2296 1.394 . S
C2298 C2299 1.369 . S
C2298 C2302 1.531 . S
C2299 C2298 1.369 . S
C2299 C2300 1.410 . S
C2299 C2307 1.503 . S
C2300 C2299 1.410 . S
C2300 C2301 1.392 . S
C2300 C2303 1.511 . S
C2301 C2297 1.376 . S
C2301 C2300 1.392 . S
C2301 H2313 0.929 . S
C2302 C2298 1.531 . S
C2302 H2314 0.960 . S
C2302 H2315 0.962 . S
C2302 H2316 0.960 . S
C2303 C2300 1.511 . S
C2303 H2317 0.961 . S
C2303 H2318 0.961 . S
C2303 H2319 0.961 . S
C2304 C2305 1.370 . S
C2304 C2306 1.363 . S
C2304 H2320 0.931 . S
C2305 C2304 1.370 . S
C2305 C2309 1.408 . S
C2306 C2304 1.363 . S
C2306 C2307 1.370 . S
C2306 C2310 1.524 . S
C2307 C2299 1.503 . S
C2307 C2306 1.370 . S
C2307 C2308 1.403 . S
C2308 C2307 1.403 . S
C2308 C2309 1.404 . S
C2308 C2311 1.539 . S
C2309 C2305 1.408 . S
C2309 C2308 1.404 . S
C2309 H2321 0.930 . S
C2310 C2306 1.524 . S
C2310 H2322 0.956 . S
C2310 H2323 0.961 . S
C2310 H2324 0.961 . S
C2311 C2308 1.539 . S
C2311 H2325 0.958 . S
C2311 H2326 0.961 . S
C2311 H2327 0.960 . S
H2312 C2296 0.931 . S
H2313 C2301 0.929 . S
H2314 C2302 0.960 . S
H2315 C2302 0.962 . S
H2316 C2302 0.960 . S
H2317 C2303 0.961 . S
H2318 C2303 0.961 . S
H2319 C2303 0.961 . S
H2320 C2304 0.931 . S
H2321 C2309 0.930 . S
H2322 C2310 0.956 . S
H2323 C2310 0.961 . S
H2324 C2310 0.961 . S
H2325 C2311 0.958 . S
H2326 C2311 0.961 . S
H2327 C2311 0.960 . S
C2328 C2329 1.391 . S
C2328 C2330 1.394 . S
C2328 H2344 0.931 . S
C2329 C2328 1.391 . S
C2329 C2333 1.376 1_655 S
C2330 C2328 1.394 . S
C2330 C2331 1.369 . S
C2330 C2334 1.531 . S
C2331 C2330 1.369 . S
C2331 C2332 1.410 1_655 S
C2331 C2339 1.503 . S
C2332 C2331 1.410 1_455 S
C2332 C2333 1.392 . S
C2332 C2335 1.511 . S
C2333 C2329 1.376 1_455 S
C2333 C2332 1.392 . S
C2333 H2345 0.929 . S
C2334 C2330 1.531 . S
C2334 H2346 0.960 . S
C2334 H2347 0.962 . S
C2334 H2348 0.960 . S
C2335 C2332 1.511 . S
C2335 H2349 0.961 . S
C2335 H2350 0.961 . S
C2335 H2351 0.961 . S
C2336 C2337 1.370 . S
C2336 C2338 1.363 . S
C2336 H2352 0.931 . S
C2337 C2336 1.370 . S
C2337 C2341 1.408 . S
C2338 C2336 1.363 . S
C2338 C2339 1.370 . S
C2338 C2342 1.524 . S
C2339 C2331 1.503 . S
C2339 C2338 1.370 . S
C2339 C2340 1.403 . S
C2340 C2339 1.403 . S
C2340 C2341 1.404 . S
C2340 C2343 1.539 . S
C2341 C2337 1.408 . S
C2341 C2340 1.404 . S
C2341 H2353 0.930 . S
C2342 C2338 1.524 . S
C2342 H2354 0.956 . S
C2342 H2355 0.961 1_655 S
C2342 H2356 0.961 . S
C2343 C2340 1.539 . S
C2343 H2357 0.958 . S
C2343 H2358 0.961 1_655 S
C2343 H2359 0.960 1_655 S
H2344 C2328 0.931 . S
H2345 C2333 0.929 . S
H2346 C2334 0.960 . S
H2347 C2334 0.962 . S
H2348 C2334 0.960 . S
H2349 C2335 0.961 . S
H2350 C2335 0.961 . S
H2351 C2335 0.961 . S
H2352 C2336 0.931 . S
H2353 C2341 0.930 . S
H2354 C2342 0.956 . S
H2355 C2342 0.961 1_455 S
H2356 C2342 0.961 . S
H2357 C2343 0.958 . S
H2358 C2343 0.961 1_455 S
H2359 C2343 0.960 1_455 S
C2360 C2361 1.391 . S
C2360 C2362 1.394 . S
C2360 H2376 0.931 . S
C2361 C2360 1.391 . S
C2361 C2365 1.376 . S
C2362 C2360 1.394 . S
C2362 C2363 1.369 . S
C2362 C2366 1.531 . S
C2363 C2362 1.369 . S
C2363 C2364 1.410 . S
C2363 C2371 1.503 . S
C2364 C2363 1.410 . S
C2364 C2365 1.392 . S
C2364 C2367 1.511 . S
C2365 C2361 1.376 . S
C2365 C2364 1.392 . S
C2365 H2377 0.929 . S
C2366 C2362 1.531 . S
C2366 H2378 0.960 . S
C2366 H2379 0.962 . S
C2366 H2380 0.960 . S
C2367 C2364 1.511 . S
C2367 H2381 0.961 . S
C2367 H2382 0.961 . S
C2367 H2383 0.961 . S
C2368 C2369 1.370 . S
C2368 C2370 1.363 . S
C2368 H2384 0.931 . S
C2369 C2368 1.370 . S
C2369 C2373 1.408 . S
C2370 C2368 1.363 . S
C2370 C2371 1.370 . S
C2370 C2374 1.524 . S
C2371 C2363 1.503 . S
C2371 C2370 1.370 . S
C2371 C2372 1.403 . S
C2372 C2371 1.403 . S
C2372 C2373 1.404 . S
C2372 C2375 1.539 . S
C2373 C2369 1.408 . S
C2373 C2372 1.404 . S
C2373 H2385 0.930 . S
C2374 C2370 1.524 . S
C2374 H2386 0.956 . S
C2374 H2387 0.961 . S
C2374 H2388 0.961 . S
C2375 C2372 1.539 . S
C2375 H2389 0.958 . S
C2375 H2390 0.961 . S
C2375 H2391 0.960 . S
H2376 C2360 0.931 . S
H2377 C2365 0.929 . S
H2378 C2366 0.960 . S
H2379 C2366 0.962 . S
H2380 C2366 0.960 . S
H2381 C2367 0.961 . S
H2382 C2367 0.961 . S
H2383 C2367 0.961 . S
H2384 C2368 0.931 . S
H2385 C2373 0.930 . S
H2386 C2374 0.956 . S
H2387 C2374 0.961 . S
H2388 C2374 0.961 . S
H2389 C2375 0.958 . S
H2390 C2375 0.961 . S
H2391 C2375 0.960 . S
C2392 C2393 1.391 . S
C2392 C2394 1.394 . S
C2392 H2408 0.931 . S
C2393 C2392 1.391 . S
C2393 C2397 1.376 . S
C2394 C2392 1.394 . S
C2394 C2395 1.369 . S
C2394 C2398 1.531 1_545 S
C2395 C2394 1.369 . S
C2395 C2396 1.410 . S
C2395 C2403 1.503 . S
C2396 C2395 1.410 . S
C2396 C2397 1.392 . S
C2396 C2399 1.511 . S
C2397 C2393 1.376 . S
C2397 C2396 1.392 . S
C2397 H2409 0.929 . S
C2398 C2394 1.531 1_565 S
C2398 H2410 0.960 . S
C2398 H2411 0.962 . S
C2398 H2412 0.960 . S
C2399 C2396 1.511 . S
C2399 H2413 0.961 . S
C2399 H2414 0.961 . S
C2399 H2415 0.961 . S
C2400 C2401 1.370 . S
C2400 C2402 1.363 . S
C2400 H2416 0.931 1_545 S
C2401 C2400 1.370 . S
C2401 C2405 1.408 . S
C2402 C2400 1.363 . S
C2402 C2403 1.370 . S
C2402 C2406 1.524 1_545 S
C2403 C2395 1.503 . S
C2403 C2402 1.370 . S
C2403 C2404 1.403 . S
C2404 C2403 1.403 . S
C2404 C2405 1.404 . S
C2404 C2407 1.539 . S
C2405 C2401 1.408 . S
C2405 C2404 1.404 . S
C2405 H2417 0.930 . S
C2406 C2402 1.524 1_565 S
C2406 H2418 0.956 . S
C2406 H2419 0.961 1_565 S
C2406 H2420 0.961 . S
C2407 C2404 1.539 . S
C2407 H2421 0.958 . S
C2407 H2422 0.961 . S
C2407 H2423 0.960 . S
H2408 C2392 0.931 . S
H2409 C2397 0.929 . S
H2410 C2398 0.960 . S
H2411 C2398 0.962 . S
H2412 C2398 0.960 . S
H2413 C2399 0.961 . S
H2414 C2399 0.961 . S
H2415 C2399 0.961 . S
H2416 C2400 0.931 1_565 S
H2417 C2405 0.930 . S
H2418 C2406 0.956 . S
H2419 C2406 0.961 1_545 S
H2420 C2406 0.961 . S
H2421 C2407 0.958 . S
H2422 C2407 0.961 . S
H2423 C2407 0.960 . S
C2424 C2425 1.391 . S
C2424 C2426 1.394 . S
C2424 H2440 0.931 . S
C2425 C2424 1.391 . S
C2425 C2429 1.376 . S
C2426 C2424 1.394 . S
C2426 C2427 1.369 . S
C2426 C2430 1.531 . S
C2427 C2426 1.369 . S
C2427 C2428 1.410 . S
C2427 C2435 1.503 . S
C2428 C2427 1.410 . S
C2428 C2429 1.392 . S
C2428 C2431 1.511 . S
C2429 C2425 1.376 . S
C2429 C2428 1.392 . S
C2429 H2441 0.929 . S
C2430 C2426 1.531 . S
C2430 H2442 0.960 . S
C2430 H2443 0.962 . S
C2430 H2444 0.960 . S
C2431 C2428 1.511 . S
C2431 H2445 0.961 . S
C2431 H2446 0.961 . S
C2431 H2447 0.961 . S
C2432 C2433 1.370 . S
C2432 C2434 1.363 . S
C2432 H2448 0.931 . S
C2433 C2432 1.370 . S
C2433 C2437 1.408 . S
C2434 C2432 1.363 . S
C2434 C2435 1.370 . S
C2434 C2438 1.524 . S
C2435 C2427 1.503 . S
C2435 C2434 1.370 . S
C2435 C2436 1.403 . S
C2436 C2435 1.403 . S
C2436 C2437 1.404 . S
C2436 C2439 1.539 . S
C2437 C2433 1.408 . S
C2437 C2436 1.404 . S
C2437 H2449 0.930 . S
C2438 C2434 1.524 . S
C2438 H2450 0.956 . S
C2438 H2451 0.961 . S
C2438 H2452 0.961 . S
C2439 C2436 1.539 . S
C2439 H2453 0.958 . S
C2439 H2454 0.961 . S
C2439 H2455 0.960 . S
H2440 C2424 0.931 . S
H2441 C2429 0.929 . S
H2442 C2430 0.960 . S
H2443 C2430 0.962 . S
H2444 C2430 0.960 . S
H2445 C2431 0.961 . S
H2446 C2431 0.961 . S
H2447 C2431 0.961 . S
H2448 C2432 0.931 . S
H2449 C2437 0.930 . S
H2450 C2438 0.956 . S
H2451 C2438 0.961 . S
H2452 C2438 0.961 . S
H2453 C2439 0.958 . S
H2454 C2439 0.961 . S
H2455 C2439 0.960 . S
C2456 C2457 1.391 . S
C2456 C2458 1.394 . S
C2456 H2472 0.931 . S
C2457 C2456 1.391 . S
C2457 C2461 1.376 . S
C2458 C2456 1.394 . S
C2458 C2459 1.369 . S
C2458 C2462 1.531 . S
C2459 C2458 1.369 . S
C2459 C2460 1.410 . S
C2459 C2467 1.503 . S
C2460 C2459 1.410 . S
C2460 C2461 1.392 . S
C2460 C2463 1.511 . S
C2461 C2457 1.376 . S
C2461 C2460 1.392 . S
C2461 H2473 0.929 . S
C2462 C2458 1.531 . S
C2462 H2474 0.960 . S
C2462 H2475 0.962 . S
C2462 H2476 0.960 . S
C2463 C2460 1.511 . S
C2463 H2477 0.961 . S
C2463 H2478 0.961 . S
C2463 H2479 0.961 . S
C2464 C2465 1.370 . S
C2464 C2466 1.363 . S
C2464 H2480 0.931 . S
C2465 C2464 1.370 . S
C2465 C2469 1.408 . S
C2466 C2464 1.363 . S
C2466 C2467 1.370 . S
C2466 C2470 1.524 . S
C2467 C2459 1.503 . S
C2467 C2466 1.370 . S
C2467 C2468 1.403 . S
C2468 C2467 1.403 . S
C2468 C2469 1.404 . S
C2468 C2471 1.539 . S
C2469 C2465 1.408 . S
C2469 C2468 1.404 . S
C2469 H2481 0.930 . S
C2470 C2466 1.524 . S
C2470 H2482 0.956 . S
C2470 H2483 0.961 . S
C2470 H2484 0.961 . S
C2471 C2468 1.539 . S
C2471 H2485 0.958 . S
C2471 H2486 0.961 . S
C2471 H2487 0.960 . S
H2472 C2456 0.931 . S
H2473 C2461 0.929 . S
H2474 C2462 0.960 . S
H2475 C2462 0.962 . S
H2476 C2462 0.960 . S
H2477 C2463 0.961 . S
H2478 C2463 0.961 . S
H2479 C2463 0.961 . S
H2480 C2464 0.931 . S
H2481 C2469 0.930 . S
H2482 C2470 0.956 . S
H2483 C2470 0.961 . S
H2484 C2470 0.961 . S
H2485 C2471 0.958 . S
H2486 C2471 0.961 . S
H2487 C2471 0.960 . S
C2488 C2489 1.391 . S
C2488 C2490 1.394 . S
C2488 H2504 0.931 . S
C2489 C2488 1.391 . S
C2489 C2493 1.376 . S
C2490 C2488 1.394 . S
C2490 C2491 1.369 . S
C2490 C2494 1.531 . S
C2491 C2490 1.369 . S
C2491 C2492 1.410 . S
C2491 C2499 1.503 . S
C2492 C2491 1.410 . S
C2492 C2493 1.392 . S
C2492 C2495 1.511 . S
C2493 C2489 1.376 . S
C2493 C2492 1.392 . S
C2493 H2505 0.929 . S
C2494 C2490 1.531 . S
C2494 H2506 0.960 . S
C2494 H2507 0.962 . S
C2494 H2508 0.960 . S
C2495 C2492 1.511 . S
C2495 H2509 0.961 . S
C2495 H2510 0.961 . S
C2495 H2511 0.961 . S
C2496 C2497 1.370 . S
C2496 C2498 1.363 . S
C2496 H2512 0.931 . S
C2497 C2496 1.370 . S
C2497 C2501 1.408 . S
C2498 C2496 1.363 . S
C2498 C2499 1.370 . S
C2498 C2502 1.524 . S
C2499 C2491 1.503 . S
C2499 C2498 1.370 . S
C2499 C2500 1.403 . S
C2500 C2499 1.403 . S
C2500 C2501 1.404 . S
C2500 C2503 1.539 . S
C2501 C2497 1.408 . S
C2501 C2500 1.404 . S
C2501 H2513 0.930 . S
C2502 C2498 1.524 . S
C2502 H2514 0.956 . S
C2502 H2515 0.961 . S
C2502 H2516 0.961 . S
C2503 C2500 1.539 . S
C2503 H2517 0.958 . S
C2503 H2518 0.961 . S
C2503 H2519 0.960 . S
H2504 C2488 0.931 . S
H2505 C2493 0.929 . S
H2506 C2494 0.960 . S
H2507 C2494 0.962 . S
H2508 C2494 0.960 . S
H2509 C2495 0.961 . S
H2510 C2495 0.961 . S
H2511 C2495 0.961 . S
H2512 C2496 0.931 . S
H2513 C2501 0.930 . S
H2514 C2502 0.956 . S
H2515 C2502 0.961 . S
H2516 C2502 0.961 . S
H2517 C2503 0.958 . S
H2518 C2503 0.961 . S
H2519 C2503 0.960 . S
C2520 C2521 1.391 . S
C2520 C2522 1.394 . S
C2520 H2536 0.931 . S
C2521 C2520 1.391 . S
C2521 C2525 1.376 . S
C2522 C2520 1.394 . S
C2522 C2523 1.369 . S
C2522 C2526 1.531 . S
C2523 C2522 1.369 . S
C2523 C2524 1.410 . S
C2523 C2531 1.503 . S
C2524 C2523 1.410 . S
C2524 C2525 1.392 . S
C2524 C2527 1.511 . S
C2525 C2521 1.376 . S
C2525 C2524 1.392 . S
C2525 H2537 0.929 . S
C2526 C2522 1.531 . S
C2526 H2538 0.960 . S
C2526 H2539 0.962 . S
C2526 H2540 0.960 . S
C2527 C2524 1.511 . S
C2527 H2541 0.961 . S
C2527 H2542 0.961 . S
C2527 H2543 0.961 . S
C2528 C2529 1.370 . S
C2528 C2530 1.363 . S
C2528 H2544 0.931 . S
C2529 C2528 1.370 . S
C2529 C2533 1.408 . S
C2530 C2528 1.363 . S
C2530 C2531 1.370 . S
C2530 C2534 1.524 . S
C2531 C2523 1.503 . S
C2531 C2530 1.370 . S
C2531 C2532 1.403 . S
C2532 C2531 1.403 . S
C2532 C2533 1.404 . S
C2532 C2535 1.539 . S
C2533 C2529 1.408 . S
C2533 C2532 1.404 . S
C2533 H2545 0.930 . S
C2534 C2530 1.524 . S
C2534 H2546 0.956 . S
C2534 H2547 0.961 . S
C2534 H2548 0.961 . S
C2535 C2532 1.539 . S
C2535 H2549 0.958 . S
C2535 H2550 0.961 . S
C2535 H2551 0.960 . S
H2536 C2520 0.931 . S
H2537 C2525 0.929 . S
H2538 C2526 0.960 . S
H2539 C2526 0.962 . S
H2540 C2526 0.960 . S
H2541 C2527 0.961 . S
H2542 C2527 0.961 . S
H2543 C2527 0.961 . S
H2544 C2528 0.931 . S
H2545 C2533 0.930 . S
H2546 C2534 0.956 . S
H2547 C2534 0.961 . S
H2548 C2534 0.961 . S
H2549 C2535 0.958 . S
H2550 C2535 0.961 . S
H2551 C2535 0.960 . S
C2552 C2553 1.391 . S
C2552 C2554 1.394 . S
C2552 H2568 0.931 . S
C2553 C2552 1.391 . S
C2553 C2557 1.376 . S
C2554 C2552 1.394 . S
C2554 C2555 1.369 . S
C2554 C2558 1.531 . S
C2555 C2554 1.369 . S
C2555 C2556 1.410 . S
C2555 C2563 1.503 . S
C2556 C2555 1.410 . S
C2556 C2557 1.392 . S
C2556 C2559 1.511 . S
C2557 C2553 1.376 . S
C2557 C2556 1.392 . S
C2557 H2569 0.929 . S
C2558 C2554 1.531 . S
C2558 H2570 0.960 . S
C2558 H2571 0.962 . S
C2558 H2572 0.960 . S
C2559 C2556 1.511 . S
C2559 H2573 0.961 . S
C2559 H2574 0.961 . S
C2559 H2575 0.961 . S
C2560 C2561 1.370 . S
C2560 C2562 1.363 . S
C2560 H2576 0.931 . S
C2561 C2560 1.370 . S
C2561 C2565 1.408 . S
C2562 C2560 1.363 . S
C2562 C2563 1.370 . S
C2562 C2566 1.524 . S
C2563 C2555 1.503 . S
C2563 C2562 1.370 . S
C2563 C2564 1.403 . S
C2564 C2563 1.403 . S
C2564 C2565 1.404 . S
C2564 C2567 1.539 . S
C2565 C2561 1.408 . S
C2565 C2564 1.404 . S
C2565 H2577 0.930 . S
C2566 C2562 1.524 . S
C2566 H2578 0.956 . S
C2566 H2579 0.961 . S
C2566 H2580 0.961 . S
C2567 C2564 1.539 . S
C2567 H2581 0.958 . S
C2567 H2582 0.961 . S
C2567 H2583 0.960 . S
H2568 C2552 0.931 . S
H2569 C2557 0.929 . S
H2570 C2558 0.960 . S
H2571 C2558 0.962 . S
H2572 C2558 0.960 . S
H2573 C2559 0.961 . S
H2574 C2559 0.961 . S
H2575 C2559 0.961 . S
H2576 C2560 0.931 . S
H2577 C2565 0.930 . S
H2578 C2566 0.956 . S
H2579 C2566 0.961 . S
H2580 C2566 0.961 . S
H2581 C2567 0.958 . S
H2582 C2567 0.961 . S
H2583 C2567 0.960 . S
C2584 C2585 1.391 . S
C2584 C2586 1.394 . S
C2584 H2600 0.931 . S
C2585 C2584 1.391 . S
C2585 C2589 1.376 . S
C2586 C2584 1.394 . S
C2586 C2587 1.369 . S
C2586 C2590 1.531 . S
C2587 C2586 1.369 . S
C2587 C2588 1.410 . S
C2587 C2595 1.503 . S
C2588 C2587 1.410 . S
C2588 C2589 1.392 . S
C2588 C2591 1.511 . S
C2589 C2585 1.376 . S
C2589 C2588 1.392 . S
C2589 H2601 0.929 . S
C2590 C2586 1.531 . S
C2590 H2602 0.960 . S
C2590 H2603 0.962 . S
C2590 H2604 0.960 . S
C2591 C2588 1.511 . S
C2591 H2605 0.961 . S
C2591 H2606 0.961 . S
C2591 H2607 0.961 . S
C2592 C2593 1.370 . S
C2592 C2594 1.363 . S
C2592 H2608 0.931 . S
C2593 C2592 1.370 . S
C2593 C2597 1.408 . S
C2594 C2592 1.363 . S
C2594 C2595 1.370 . S
C2594 C2598 1.524 . S
C2595 C2587 1.503 . S
C2595 C2594 1.370 . S
C2595 C2596 1.403 . S
C2596 C2595 1.403 . S
C2596 C2597 1.404 . S
C2596 C2599 1.539 . S
C2597 C2593 1.408 . S
C2597 C2596 1.404 . S
C2597 H2609 0.930 . S
C2598 C2594 1.524 . S
C2598 H2610 0.956 . S
C2598 H2611 0.961 . S
C2598 H2612 0.961 . S
C2599 C2596 1.539 . S
C2599 H2613 0.958 . S
C2599 H2614 0.961 . S
C2599 H2615 0.960 . S
H2600 C2584 0.931 . S
H2601 C2589 0.929 . S
H2602 C2590 0.960 . S
H2603 C2590 0.962 . S
H2604 C2590 0.960 . S
H2605 C2591 0.961 . S
H2606 C2591 0.961 . S
H2607 C2591 0.961 . S
H2608 C2592 0.931 . S
H2609 C2597 0.930 . S
H2610 C2598 0.956 . S
H2611 C2598 0.961 . S
H2612 C2598 0.961 . S
H2613 C2599 0.958 . S
H2614 C2599 0.961 . S
H2615 C2599 0.960 . S
C2616 C2617 1.391 . S
C2616 C2618 1.394 . S
C2616 H2632 0.931 . S
C2617 C2616 1.391 . S
C2617 C2621 1.376 . S
C2618 C2616 1.394 . S
C2618 C2619 1.369 . S
C2618 C2622 1.531 . S
C2619 C2618 1.369 . S
C2619 C2620 1.410 . S
C2619 C2627 1.503 . S
C2620 C2619 1.410 . S
C2620 C2621 1.392 . S
C2620 C2623 1.511 . S
C2621 C2617 1.376 . S
C2621 C2620 1.392 . S
C2621 H2633 0.929 . S
C2622 C2618 1.531 . S
C2622 H2634 0.960 . S
C2622 H2635 0.962 . S
C2622 H2636 0.960 . S
C2623 C2620 1.511 . S
C2623 H2637 0.961 . S
C2623 H2638 0.961 . S
C2623 H2639 0.961 . S
C2624 C2625 1.370 . S
C2624 C2626 1.363 . S
C2624 H2640 0.931 . S
C2625 C2624 1.370 . S
C2625 C2629 1.408 . S
C2626 C2624 1.363 . S
C2626 C2627 1.370 . S
C2626 C2630 1.524 . S
C2627 C2619 1.503 . S
C2627 C2626 1.370 . S
C2627 C2628 1.403 . S
C2628 C2627 1.403 . S
C2628 C2629 1.404 . S
C2628 C2631 1.539 . S
C2629 C2625 1.408 . S
C2629 C2628 1.404 . S
C2629 H2641 0.930 . S
C2630 C2626 1.524 . S
C2630 H2642 0.956 . S
C2630 H2643 0.961 . S
C2630 H2644 0.961 . S
C2631 C2628 1.539 . S
C2631 H2645 0.958 . S
C2631 H2646 0.961 . S
C2631 H2647 0.960 . S
H2632 C2616 0.931 . S
H2633 C2621 0.929 . S
H2634 C2622 0.960 . S
H2635 C2622 0.962 . S
H2636 C2622 0.960 . S
H2637 C2623 0.961 . S
H2638 C2623 0.961 . S
H2639 C2623 0.961 . S
H2640 C2624 0.931 . S
H2641 C2629 0.930 . S
H2642 C2630 0.956 . S
H2643 C2630 0.961 . S
H2644 C2630 0.961 . S
H2645 C2631 0.958 . S
H2646 C2631 0.961 . S
H2647 C2631 0.960 . S
C2648 C2649 1.391 . S
C2648 C2650 1.394 . S
C2648 H2664 0.931 . S
C2649 C2648 1.391 . S
C2649 C2653 1.376 . S
C2650 C2648 1.394 . S
C2650 C2651 1.369 . S
C2650 C2654 1.531 . S
C2651 C2650 1.369 . S
C2651 C2652 1.410 . S
C2651 C2659 1.503 . S
C2652 C2651 1.410 . S
C2652 C2653 1.392 . S
C2652 C2655 1.511 . S
C2653 C2649 1.376 . S
C2653 C2652 1.392 . S
C2653 H2665 0.929 . S
C2654 C2650 1.531 . S
C2654 H2666 0.960 . S
C2654 H2667 0.962 . S
C2654 H2668 0.960 . S
C2655 C2652 1.511 . S
C2655 H2669 0.961 . S
C2655 H2670 0.961 . S
C2655 H2671 0.961 . S
C2656 C2657 1.370 . S
C2656 C2658 1.363 . S
C2656 H2672 0.931 . S
C2657 C2656 1.370 . S
C2657 C2661 1.408 . S
C2658 C2656 1.363 . S
C2658 C2659 1.370 . S
C2658 C2662 1.524 . S
C2659 C2651 1.503 . S
C2659 C2658 1.370 . S
C2659 C2660 1.403 . S
C2660 C2659 1.403 . S
C2660 C2661 1.404 . S
C2660 C2663 1.539 . S
C2661 C2657 1.408 . S
C2661 C2660 1.404 . S
C2661 H2673 0.930 . S
C2662 C2658 1.524 . S
C2662 H2674 0.956 . S
C2662 H2675 0.961 . S
C2662 H2676 0.961 . S
C2663 C2660 1.539 . S
C2663 H2677 0.958 . S
C2663 H2678 0.961 . S
C2663 H2679 0.960 . S
H2664 C2648 0.931 . S
H2665 C2653 0.929 . S
H2666 C2654 0.960 . S
H2667 C2654 0.962 . S
H2668 C2654 0.960 . S
H2669 C2655 0.961 . S
H2670 C2655 0.961 . S
H2671 C2655 0.961 . S
H2672 C2656 0.931 . S
H2673 C2661 0.930 . S
H2674 C2662 0.956 . S
H2675 C2662 0.961 . S
H2676 C2662 0.961 . S
H2677 C2663 0.958 . S
H2678 C2663 0.961 . S
H2679 C2663 0.960 . S
C2680 C2681 1.391 . S
C2680 C2682 1.394 . S
C2680 H2696 0.931 . S
C2681 C2680 1.391 . S
C2681 C2685 1.376 . S
C2682 C2680 1.394 . S
C2682 C2683 1.369 . S
C2682 C2686 1.531 . S
C2683 C2682 1.369 . S
C2683 C2684 1.410 . S
C2683 C2691 1.503 . S
C2684 C2683 1.410 . S
C2684 C2685 1.392 . S
C2684 C2687 1.511 . S
C2685 C2681 1.376 . S
C2685 C2684 1.392 . S
C2685 H2697 0.929 . S
C2686 C2682 1.531 . S
C2686 H2698 0.960 . S
C2686 H2699 0.962 . S
C2686 H2700 0.960 . S
C2687 C2684 1.511 . S
C2687 H2701 0.961 . S
C2687 H2702 0.961 . S
C2687 H2703 0.961 . S
C2688 C2689 1.370 . S
C2688 C2690 1.363 . S
C2688 H2704 0.931 . S
C2689 C2688 1.370 . S
C2689 C2693 1.408 . S
C2690 C2688 1.363 . S
C2690 C2691 1.370 . S
C2690 C2694 1.524 . S
C2691 C2683 1.503 . S
C2691 C2690 1.370 . S
C2691 C2692 1.403 . S
C2692 C2691 1.403 . S
C2692 C2693 1.404 . S
C2692 C2695 1.539 . S
C2693 C2689 1.408 . S
C2693 C2692 1.404 . S
C2693 H2705 0.930 . S
C2694 C2690 1.524 . S
C2694 H2706 0.956 . S
C2694 H2707 0.961 . S
C2694 H2708 0.961 . S
C2695 C2692 1.539 . S
C2695 H2709 0.958 . S
C2695 H2710 0.961 . S
C2695 H2711 0.960 . S
H2696 C2680 0.931 . S
H2697 C2685 0.929 . S
H2698 C2686 0.960 . S
H2699 C2686 0.962 . S
H2700 C2686 0.960 . S
H2701 C2687 0.961 . S
H2702 C2687 0.961 . S
H2703 C2687 0.961 . S
H2704 C2688 0.931 . S
H2705 C2693 0.930 . S
H2706 C2694 0.956 . S
H2707 C2694 0.961 . S
H2708 C2694 0.961 . S
H2709 C2695 0.958 . S
H2710 C2695 0.961 . S
H2711 C2695 0.960 . S
C2712 C2713 1.391 . S
C2712 C2714 1.394 . S
C2712 H2728 0.931 . S
C2713 C2712 1.391 . S
C2713 C2717 1.376 . S
C2714 C2712 1.394 . S
C2714 C2715 1.369 . S
C2714 C2718 1.531 . S
C2715 C2714 1.369 . S
C2715 C2716 1.410 . S
C2715 C2723 1.503 . S
C2716 C2715 1.410 . S
C2716 C2717 1.392 . S
C2716 C2719 1.511 . S
C2717 C2713 1.376 . S
C2717 C2716 1.392 . S
C2717 H2729 0.929 . S
C2718 C2714 1.531 . S
C2718 H2730 0.960 . S
C2718 H2731 0.962 . S
C2718 H2732 0.960 . S
C2719 C2716 1.511 . S
C2719 H2733 0.961 . S
C2719 H2734 0.961 . S
C2719 H2735 0.961 . S
C2720 C2721 1.370 . S
C2720 C2722 1.363 . S
C2720 H2736 0.931 . S
C2721 C2720 1.370 . S
C2721 C2725 1.408 . S
C2722 C2720 1.363 . S
C2722 C2723 1.370 . S
C2722 C2726 1.524 . S
C2723 C2715 1.503 . S
C2723 C2722 1.370 . S
C2723 C2724 1.403 . S
C2724 C2723 1.403 . S
C2724 C2725 1.404 . S
C2724 C2727 1.539 . S
C2725 C2721 1.408 . S
C2725 C2724 1.404 . S
C2725 H2737 0.930 . S
C2726 C2722 1.524 . S
C2726 H2738 0.956 . S
C2726 H2739 0.961 . S
C2726 H2740 0.961 . S
C2727 C2724 1.539 . S
C2727 H2741 0.958 . S
C2727 H2742 0.961 . S
C2727 H2743 0.960 . S
H2728 C2712 0.931 . S
H2729 C2717 0.929 . S
H2730 C2718 0.960 . S
H2731 C2718 0.962 . S
H2732 C2718 0.960 . S
H2733 C2719 0.961 . S
H2734 C2719 0.961 . S
H2735 C2719 0.961 . S
H2736 C2720 0.931 . S
H2737 C2725 0.930 . S
H2738 C2726 0.956 . S
H2739 C2726 0.961 . S
H2740 C2726 0.961 . S
H2741 C2727 0.958 . S
H2742 C2727 0.961 . S
H2743 C2727 0.960 . S
C2744 C2745 1.391 . S
C2744 C2746 1.394 . S
C2744 H2760 0.931 . S
C2745 C2744 1.391 . S
C2745 C2749 1.376 . S
C2746 C2744 1.394 . S
C2746 C2747 1.369 . S
C2746 C2750 1.531 . S
C2747 C2746 1.369 . S
C2747 C2748 1.410 . S
C2747 C2755 1.503 . S
C2748 C2747 1.410 . S
C2748 C2749 1.392 . S
C2748 C2751 1.511 . S
C2749 C2745 1.376 . S
C2749 C2748 1.392 . S
C2749 H2761 0.929 . S
C2750 C2746 1.531 . S
C2750 H2762 0.960 . S
C2750 H2763 0.962 . S
C2750 H2764 0.960 . S
C2751 C2748 1.511 . S
C2751 H2765 0.961 . S
C2751 H2766 0.961 . S
C2751 H2767 0.961 . S
C2752 C2753 1.370 . S
C2752 C2754 1.363 . S
C2752 H2768 0.931 . S
C2753 C2752 1.370 . S
C2753 C2757 1.408 . S
C2754 C2752 1.363 . S
C2754 C2755 1.370 . S
C2754 C2758 1.524 . S
C2755 C2747 1.503 . S
C2755 C2754 1.370 . S
C2755 C2756 1.403 . S
C2756 C2755 1.403 . S
C2756 C2757 1.404 . S
C2756 C2759 1.539 . S
C2757 C2753 1.408 . S
C2757 C2756 1.404 . S
C2757 H2769 0.930 . S
C2758 C2754 1.524 . S
C2758 H2770 0.956 . S
C2758 H2771 0.961 . S
C2758 H2772 0.961 . S
C2759 C2756 1.539 . S
C2759 H2773 0.958 . S
C2759 H2774 0.961 . S
C2759 H2775 0.960 . S
H2760 C2744 0.931 . S
H2761 C2749 0.929 . S
H2762 C2750 0.960 . S
H2763 C2750 0.962 . S
H2764 C2750 0.960 . S
H2765 C2751 0.961 . S
H2766 C2751 0.961 . S
H2767 C2751 0.961 . S
H2768 C2752 0.931 . S
H2769 C2757 0.930 . S
H2770 C2758 0.956 . S
H2771 C2758 0.961 . S
H2772 C2758 0.961 . S
H2773 C2759 0.958 . S
H2774 C2759 0.961 . S
H2775 C2759 0.960 . S
C2776 C2777 1.391 . S
C2776 C2778 1.394 . S
C2776 H2792 0.931 . S
C2777 C2776 1.391 . S
C2777 C2781 1.376 . S
C2778 C2776 1.394 . S
C2778 C2779 1.369 . S
C2778 C2782 1.531 . S
C2779 C2778 1.369 . S
C2779 C2780 1.410 . S
C2779 C2787 1.503 . S
C2780 C2779 1.410 . S
C2780 C2781 1.392 . S
C2780 C2783 1.511 . S
C2781 C2777 1.376 . S
C2781 C2780 1.392 . S
C2781 H2793 0.929 . S
C2782 C2778 1.531 . S
C2782 H2794 0.960 . S
C2782 H2795 0.962 . S
C2782 H2796 0.960 . S
C2783 C2780 1.511 . S
C2783 H2797 0.961 . S
C2783 H2798 0.961 . S
C2783 H2799 0.961 . S
C2784 C2785 1.370 . S
C2784 C2786 1.363 . S
C2784 H2800 0.931 . S
C2785 C2784 1.370 . S
C2785 C2789 1.408 . S
C2786 C2784 1.363 . S
C2786 C2787 1.370 . S
C2786 C2790 1.524 . S
C2787 C2779 1.503 . S
C2787 C2786 1.370 . S
C2787 C2788 1.403 . S
C2788 C2787 1.403 . S
C2788 C2789 1.404 . S
C2788 C2791 1.539 . S
C2789 C2785 1.408 . S
C2789 C2788 1.404 . S
C2789 H2801 0.930 . S
C2790 C2786 1.524 . S
C2790 H2802 0.956 . S
C2790 H2803 0.961 . S
C2790 H2804 0.961 . S
C2791 C2788 1.539 . S
C2791 H2805 0.958 . S
C2791 H2806 0.961 . S
C2791 H2807 0.960 . S
H2792 C2776 0.931 . S
H2793 C2781 0.929 . S
H2794 C2782 0.960 . S
H2795 C2782 0.962 . S
H2796 C2782 0.960 . S
H2797 C2783 0.961 . S
H2798 C2783 0.961 . S
H2799 C2783 0.961 . S
H2800 C2784 0.931 . S
H2801 C2789 0.930 . S
H2802 C2790 0.956 . S
H2803 C2790 0.961 . S
H2804 C2790 0.961 . S
H2805 C2791 0.958 . S
H2806 C2791 0.961 . S
H2807 C2791 0.960 . S
C1081 C522 1.735 . S
C1089 C729 1.689 . S
C1113 C562 1.817 . S
C1121 C769 1.789 . S
C1145 C495 1.773 . S
C1153 C808 1.828 . S
C1177 C455 1.596 . S
C1185 C768 1.594 1_556 S
C1217 C809 1.472 . S
C1209 C362 1.473 . S
C1241 C402 1.492 . S
C1249 C728 1.503 1_556 S
C1281 C739 1.728 . S
C1273 C442 1.655 . S
C1313 C779 1.756 . S
C1305 C375 1.773 . S
C1337 C415 1.805 . S
C1345 C818 1.834 1_556 S
C1369 C535 1.636 . S
C1377 C778 1.609 . S
C1401 C575 1.432 . S
C1409 C819 1.443 . S
C1441 C738 1.523 . S
C1433 C482 1.471 . S
C1473 C849 1.705 . S
C1465 C42 1.731 . S
C1497 C82 1.820 . S
C1505 C889 1.771 . S
C1529 C15 1.829 . S
C1537 C928 1.819 . S
C1561 C695 1.633 . S
C1569 C888 1.606 . S
C1593 C602 1.472 . S
C1601 C929 1.472 . S
C1625 C642 1.521 . S
C1633 C848 1.495 . S
C1657 C682 1.664 . S
C1665 C859 1.724 . S
C1689 C615 1.769 . S
C1697 C899 1.758 . S
C1729 C938 1.830 . S
C1721 C655 1.788 . S
C1753 C55 1.635 . S
C1761 C898 1.610 . S
C1793 C939 1.426 . S
C1785 C95 1.459 1_455 S
C1817 C2 1.473 . S
C1825 C858 1.535 . S
C1857 C969 1.700 . S
C1849 C282 1.742 . S
C1881 C322 1.817 . S
C1889 C1009 1.788 . S
C1921 C1048 1.831 . S
C1913 C255 1.776 . S
C1953 C1008 1.606 . S
C1945 C215 1.634 . S
C1985 C1049 1.457 . S
C1977 C122 1.489 1_655 S
C2009 C162 1.513 . S
C2017 C968 1.494 . S
C2041 C202 1.678 . S
C2049 C979 1.719 . S
C2073 C135 1.768 . S
C2081 C1019 1.756 . S
C2113 C1058 1.835 . S
C2105 C175 1.797 . S
C2137 C295 1.609 . S
C2145 C1018 1.605 . S
C2169 C335 1.458 . S
C2177 C1059 1.427 . S
C2201 C242 1.410 . S
C2209 C978 1.530 . S
C2233 C621 1.281 . S
C2241 C725 1.289 . S
C2273 C765 1.916 . S
C2265 C661 1.910 . S
C2297 C701 1.572 . S
C2305 C815 1.628 . S
C2329 C261 1.853 . S
C2337 C775 1.928 . S
C2361 C301 1.600 . S
C2369 C805 1.606 . S
C2401 C735 1.287 . S
C2393 C341 1.291 . S
C2425 C141 1.294 . S
C2433 C845 1.292 . S
C2457 C181 1.918 . S
C2465 C885 1.912 . S
C2489 C221 1.567 . S
C2497 C935 1.628 . S
C2521 C501 1.848 . S
C2529 C895 1.934 . S
C2561 C925 1.605 . S
C2553 C541 1.603 . S
C2585 C581 1.274 . S
C2593 C855 1.290 . S
C2617 C381 1.282 . S
C2625 C965 1.288 . S
C2649 C421 1.915 . S
C2657 C1005 1.912 . S
C2689 C1055 1.628 . S
C2681 C461 1.570 . S
C2713 C21 1.856 . S
C2721 C1015 1.933 . S
C2745 C61 1.605 . S
C2753 C1045 1.605 . S
C2777 C101 1.273 . S
C2785 C975 1.288 . S
