# Generated by pormake.
# Topology anh, (6,3)-cn, num edge types: 1
# Building blocks:
#     Node 0, Type 0, BuildingBlock: GEDQOX_clean_sbu_0, # of connection points: 6
#     Node 1, Type 0, BuildingBlock: GEDQOX_clean_sbu_0, # of connection points: 6
#     Node 2, Type 0, BuildingBlock: GEDQOX_clean_sbu_0, # of connection points: 6
#     Node 3, Type 1, BuildingBlock: WUSLED_clean_sbu_0, # of connection points: 3
#     Node 4, Type 1, BuildingBlock: WUSLED_clean_sbu_0, # of connection points: 3
#     Node 5, Type 1, BuildingBlock: WUSLED_clean_sbu_0, # of connection points: 3
#     Node 6, Type 1, BuildingBlock: WUSLED_clean_sbu_0, # of connection points: 3
#     Node 7, Type 1, BuildingBlock: WUSLED_clean_sbu_0, # of connection points: 3
#     Node 8, Type 1, BuildingBlock: WUSLED_clean_sbu_0, # of connection points: 3
#     Edge 9, Type (0, 1), BuildingBlock: KIFKEQ_clean_linker_1, # of connection points: 2
#     Edge 10, Type (0, 1), BuildingBlock: KIFKEQ_clean_linker_1, # of connection points: 2
#     Edge 11, Type (0, 1), BuildingBlock: KIFKEQ_clean_linker_1, # of connection points: 2
#     Edge 12, Type (0, 1), BuildingBlock: KIFKEQ_clean_linker_1, # of connection points: 2
#     Edge 13, Type (0, 1), BuildingBlock: KIFKEQ_clean_linker_1, # of connection points: 2
#     Edge 14, Type (0, 1), BuildingBlock: KIFKEQ_clean_linker_1, # of connection points: 2
#     Edge 15, Type (0, 1), BuildingBlock: KIFKEQ_clean_linker_1, # of connection points: 2
#     Edge 16, Type (0, 1), BuildingBlock: KIFKEQ_clean_linker_1, # of connection points: 2
#     Edge 17, Type (0, 1), BuildingBlock: KIFKEQ_clean_linker_1, # of connection points: 2
#     Edge 18, Type (0, 1), BuildingBlock: KIFKEQ_clean_linker_1, # of connection points: 2
#     Edge 19, Type (0, 1), BuildingBlock: KIFKEQ_clean_linker_1, # of connection points: 2
#     Edge 20, Type (0, 1), BuildingBlock: KIFKEQ_clean_linker_1, # of connection points: 2
#     Edge 21, Type (0, 1), BuildingBlock: KIFKEQ_clean_linker_1, # of connection points: 2
#     Edge 22, Type (0, 1), BuildingBlock: KIFKEQ_clean_linker_1, # of connection points: 2
#     Edge 23, Type (0, 1), BuildingBlock: KIFKEQ_clean_linker_1, # of connection points: 2
#     Edge 24, Type (0, 1), BuildingBlock: KIFKEQ_clean_linker_1, # of connection points: 2
#     Edge 25, Type (0, 1), BuildingBlock: KIFKEQ_clean_linker_1, # of connection points: 2
#     Edge 26, Type (0, 1), BuildingBlock: KIFKEQ_clean_linker_1, # of connection points: 2
# Relax obj value: 0.165
# Max RMSD: 0.202
# Mean RMSD: 0.149
data_MOF--net-anh--node1-GEDQOX_clean_sbu_0--node2-WUSLED_clean_sbu_0--edge1-KIFKEQ_clean_linker_1
_symmetry_space_group_name_H-M    P1
_symmetry_Int_Tables_number       1
_symmetry_cell_setting            triclinic
loop_
_symmetry_equiv_pos_as_xyz
'x, y, z'
_cell_length_a     42.013492
_cell_length_b     39.005477
_cell_length_c     70.763154
_cell_angle_alpha  93.216594
_cell_angle_beta   90.15954
_cell_angle_gamma 108.98164
loop_
_atom_site_label
_atom_site_type_symbol
_atom_site_fract_x
_atom_site_fract_y
_atom_site_fract_z
_atom_type_partial_charge
Nd0 Nd 0.06209 0.54227 0.16409 0.0
Nd1 Nd 0.03709 0.46298 0.16626 0.0
C2 C 0.09645 0.61095 0.15782 0.0
C3 C 0.12964 0.63861 0.16341 0.0
C4 C 0.15479 0.65046 0.14991 0.0
C5 C 0.18549 0.67768 0.15479 0.0
C6 C 0.19185 0.69404 0.1733 0.0
C7 C 0.16676 0.68179 0.18683 0.0
C8 C 0.13614 0.65456 0.18197 0.0
C9 C 0.04952 0.52124 0.20051 0.0
C10 C 0.12134 0.49763 0.16297 0.0
C11 C 1.00337 0.39643 0.17635 0.0
C12 C 0.96802 0.37243 0.17842 0.0
C13 C 0.94385 0.38483 0.18767 0.0
C14 C 0.91113 0.36102 0.19028 0.0
C15 C 0.90168 0.3242 0.18368 0.0
C16 C 0.92582 0.31226 0.17402 0.0
C17 C 0.9585 0.33601 0.17148 0.0
C18 C 0.04873 0.48494 0.13043 0.0
C19 C 0.97767 0.50578 0.16021 0.0
O20 O 0.09654 0.58348 0.14633 0.0
O21 O 0.07393 0.60135 0.17093 0.0
O22 O 0.04212 0.54779 0.19364 0.0
O23 O 0.06415 0.50684 0.18838 0.0
O24 O 0.11398 0.52827 0.16101 0.0
O25 O 0.09567 0.46779 0.16661 0.0
O26 O 1.01488 0.4246 0.1884 0.0
O27 O 1.01377 0.40358 0.15917 0.0
O28 O 0.05652 0.4577 0.13639 0.0
O29 O 0.03428 0.49854 0.14287 0.0
O30 O 0.98455 0.4763 0.16546 0.0
O31 O 1.00418 0.53498 0.15676 0.0
H32 H 0.15054 0.63898 0.13546 0.0
H33 H 0.20393 0.68651 0.1439 0.0
H34 H 0.17079 0.69315 0.2013 0.0
H35 H 0.11749 0.64623 0.1928 0.0
H36 H 0.95033 0.41281 0.19313 0.0
H37 H 0.89352 0.37133 0.19791 0.0
H38 H 0.91951 0.28443 0.16836 0.0
H39 H 0.97652 0.32576 0.16422 0.0
Nd40 Nd 0.49445 0.01213 0.52426 0.0
Nd41 Nd 0.57383 0.04394 0.51972 0.0
C42 C 0.43378 0.97813 0.53675 0.0
C43 C 0.40575 0.94497 0.53046 0.0
C44 C 0.38883 0.92034 0.54374 0.0
C45 C 0.36318 0.88812 0.53792 0.0
C46 C 0.35392 0.87976 0.51864 0.0
C47 C 0.37087 0.9047 0.5054 0.0
C48 C 0.39652 0.9368 0.51122 0.0
C49 C 0.50975 0.01399 0.48598 0.0
C50 C 0.5397 0.95634 0.51925 0.0
C51 C 0.63681 0.07941 0.51067 0.0
C52 C 0.66165 0.11623 0.50901 0.0
C53 C 0.6593 0.13867 0.49454 0.0
C54 C 0.68487 0.17188 0.49239 0.0
C55 C 0.71345 0.18328 0.50457 0.0
C56 C 0.71517 0.16119 0.51932 0.0
C57 C 0.68971 0.12811 0.52146 0.0
C58 C 0.55189 0.02548 0.55547 0.0
C59 C 0.52971 0.10083 0.52727 0.0
O60 O 0.46107 0.97284 0.54307 0.0
O61 O 0.44024 1.00599 0.52609 0.0
O62 O 0.4794 1.00249 0.49223 0.0
O63 O 0.52983 0.02354 0.49996 0.0
O64 O 0.51239 0.96242 0.52573 0.0
O65 O 0.56581 0.98286 0.51331 0.0
O66 O 0.61207 0.06719 0.49815 0.0
O67 O 0.62775 0.06964 0.52774 0.0
O68 O 0.57842 0.02043 0.54809 0.0
O69 O 0.5384 0.04106 0.5442 0.0
O70 O 0.55848 0.09609 0.52217 0.0
O71 O 0.50225 0.07308 0.53026 0.0
H72 H 0.39573 0.92586 0.55864 0.0
H73 H 0.35106 0.86944 0.5485 0.0
H74 H 0.36416 0.89958 0.49047 0.0
H75 H 0.40925 0.95512 0.50062 0.0
H76 H 0.63811 0.13027 0.48462 0.0
H77 H 0.6828 0.18801 0.48077 0.0
H78 H 0.73645 0.16928 0.52917 0.0
H79 H 0.69234 0.11139 0.53269 0.0
Nd80 Nd 0.51042 0.51037 0.84376 0.0
Nd81 Nd 0.58108 0.53542 0.84658 0.0
C82 C 0.44598 0.48394 0.83436 0.0
C83 C 0.42288 0.50217 0.82736 0.0
C84 C 0.41937 0.50616 0.80787 0.0
C85 C 0.40027 0.52694 0.80161 0.0
C86 C 0.38486 0.54432 0.81478 0.0
C87 C 0.38766 0.53945 0.83416 0.0
C88 C 0.40626 0.51848 0.84037 0.0
C89 C 0.53264 0.52513 0.88136 0.0
C90 C 0.54292 0.59606 0.84436 0.0
C91 C 0.64605 0.56453 0.85415 0.0
C92 C 0.67465 0.55282 0.84872 0.0
C93 C 0.70155 0.55868 0.86153 0.0
C94 C 0.7279 0.54561 0.85693 0.0
C95 C 0.72768 0.52658 0.83942 0.0
C96 C 0.70084 0.52102 0.82652 0.0
C97 C 0.67433 0.53382 0.83121 0.0
C98 C 0.55913 0.51992 0.80934 0.0
C99 C 0.54886 0.44888 0.84038 0.0
O100 O 0.46964 0.48168 0.82292 0.0
O101 O 0.457 0.49286 0.85183 0.0
O102 O 0.50928 0.53548 0.87395 0.0
O103 O 0.54435 0.50829 0.86884 0.0
O104 O 0.51737 0.56897 0.83723 0.0
O105 O 0.56861 0.58914 0.85216 0.0
O106 O 0.62518 0.54397 0.86576 0.0
O107 O 0.6308 0.57437 0.8404 0.0
O108 O 0.58325 0.51068 0.81662 0.0
O109 O 0.54729 0.53696 0.82165 0.0
O110 O 0.57686 0.47509 0.84549 0.0
O111 O 0.52065 0.45614 0.83799 0.0
H112 H 0.43179 0.49374 0.79749 0.0
H113 H 0.39782 0.52976 0.78658 0.0
H114 H 0.37496 0.55148 0.84458 0.0
H115 H 0.40805 0.51562 0.85544 0.0
H116 H 0.70201 0.57305 0.87514 0.0
H117 H 0.74863 0.55065 0.86699 0.0
H118 H 0.70011 0.50631 0.81299 0.0
H119 H 0.65348 0.52856 0.82121 0.0
C120 C 0.60893 0.09004 0.21885 0.0
C121 C 0.63167 0.10733 0.23373 0.0
C122 C 0.67092 0.14446 0.21151 0.0
C123 C 0.66228 0.13419 0.23011 0.0
C124 C 0.64764 0.12746 0.19671 0.0
C125 C 0.61707 0.10057 0.20035 0.0
U126 U 0.54436 0.03119 0.2522 0.0
O127 O 0.48893 1.00885 0.25008 0.0
O128 O 0.51862 0.97188 0.25105 0.0
C129 C 0.48847 0.97491 0.24953 0.0
C130 C 0.5773 0.06031 0.22226 0.0
C131 C 0.46329 0.94752 0.23684 0.0
C132 C 0.41761 0.93054 0.21308 0.0
C133 C 0.44463 0.95716 0.22274 0.0
C134 C 0.42794 0.88423 0.23109 0.0
C135 C 0.40845 0.89369 0.21736 0.0
C136 C 0.45488 0.91072 0.24065 0.0
C137 C 0.5626 0.05286 0.30624 0.0
C138 C 0.52713 0.02297 0.33166 0.0
C139 C 0.5816 0.06778 0.33914 0.0
C140 C 0.58695 0.07274 0.31982 0.0
C141 C 0.55165 0.04279 0.34536 0.0
C142 C 0.53259 0.02789 0.31227 0.0
C143 C 0.56947 0.05872 0.286 0.0
O144 O 0.58096 0.03182 0.22989 0.0
O145 O 0.55273 0.07011 0.22975 0.0
O146 O 0.5484 0.07032 0.27654 0.0
O147 O 0.57831 0.03359 0.27639 0.0
H148 H 0.62587 0.09978 0.24814 0.0
H149 H 0.67918 0.14698 0.24193 0.0
H150 H 0.65338 0.13419 0.1822 0.0
H151 H 0.59995 0.08757 0.18863 0.0
H152 H 0.40364 0.93897 0.20243 0.0
H153 H 0.45031 0.9853 0.21951 0.0
H154 H 0.42158 0.85647 0.23512 0.0
H155 H 0.46841 0.90251 0.25164 0.0
H156 H 0.50391 1.00326 0.3359 0.0
H157 H 0.60081 0.08393 0.34922 0.0
H158 H 0.61024 0.09224 0.31546 0.0
H159 H 0.51351 0.01217 0.302 0.0
C160 C 0.53376 0.62555 0.54497 0.0
C161 C 0.54437 0.65282 0.55966 0.0
C162 C 0.5376 0.69831 0.53874 0.0
C163 C 0.54629 0.68885 0.55657 0.0
C164 C 0.52713 0.67069 0.52416 0.0
C165 C 0.52522 0.63493 0.52725 0.0
U166 U 0.53187 0.5377 0.57111 0.0
O167 O 0.50087 0.48172 0.56138 0.0
O168 O 0.5562 0.49788 0.56104 0.0
C169 C 0.52735 0.47226 0.55693 0.0
C170 C 0.53214 0.58735 0.54709 0.0
C171 C 0.52527 0.43345 0.55691 0.0
C172 C 0.50581 0.37354 0.54024 0.0
C173 C 0.50587 0.40946 0.54252 0.0
C174 C 0.54409 0.38423 0.56714 0.0
C175 C 0.52502 0.3602 0.55242 0.0
C176 C 0.54435 0.4205 0.5693 0.0
C177 C 0.53824 0.54426 0.62742 0.0
C178 C 0.51353 0.51053 0.65481 0.0
C179 C 0.566 0.56022 0.65852 0.0
C180 C 0.56501 0.56587 0.63921 0.0
C181 C 0.54017 0.53269 0.6667 0.0
C182 C 0.51252 0.51629 0.63539 0.0
C183 C 0.53606 0.55516 0.60778 0.0
O184 O 0.55952 0.58166 0.55309 0.0
O185 O 0.50453 0.5653 0.554 0.0
O186 O 0.50729 0.54177 0.59827 0.0
O187 O 0.56252 0.55952 0.59711 0.0
H188 H 0.55116 0.64629 0.57345 0.0
H189 H 0.55416 0.70917 0.56822 0.0
H190 H 0.52082 0.67673 0.51016 0.0
H191 H 0.51726 0.61449 0.51564 0.0
H192 H 0.49139 0.3566 0.52848 0.0
H193 H 0.49142 0.41889 0.53253 0.0
H194 H 0.55891 0.37509 0.577 0.0
H195 H 0.55979 0.43847 0.58044 0.0
H196 H 0.49335 0.48883 0.66052 0.0
H197 H 0.58658 0.57836 0.66715 0.0
H198 H 0.58478 0.58815 0.63358 0.0
H199 H 0.49131 0.49939 0.62674 0.0
C200 C 1.01693 0.53746 0.86238 0.0
C201 C 0.98802 0.52188 0.87277 0.0
C202 C 0.95322 0.51786 0.84479 0.0
C203 C 0.95638 0.512 0.86402 0.0
C204 C 0.98223 0.53402 0.83448 0.0
C205 C 1.014 0.54359 0.84324 0.0
U206 U 0.07244 0.55317 0.90642 0.0
O207 O 0.11433 0.533 0.91232 0.0
O208 O 0.12344 0.59174 0.91203 0.0
C209 C 0.13668 0.56545 0.9111 0.0
C210 C 0.05013 0.54648 0.87137 0.0
C211 C 0.16039 0.568 0.89569 0.0
C212 C 0.16913 0.55422 0.86265 0.0
C213 C 0.14839 0.54929 0.87821 0.0
C214 C 0.21435 0.59698 0.88171 0.0
C215 C 0.20225 0.57816 0.8642 0.0
C216 C 0.19346 0.59193 0.89739 0.0
C217 C 0.03839 0.54498 0.95531 0.0
C218 C 0.07134 0.53327 0.98083 0.0
C219 C 1.02229 0.55122 0.98784 0.0
C220 C 1.01677 0.5532 0.9685 0.0
C221 C 0.04931 0.54064 0.99408 0.0
C222 C 0.06608 0.53571 0.96159 0.0
C223 C 1.03202 0.54549 0.935 0.0
O224 O 0.0606 0.57782 0.88125 0.0
O225 O 0.05512 0.51977 0.88011 0.0
O226 O 0.03573 0.51785 0.92481 0.0
O227 O 0.04615 0.57695 0.92763 0.0
H228 H 0.98996 0.5173 0.88764 0.0
H229 H 0.93431 0.50044 0.87238 0.0
H230 H 0.98029 0.53903 0.81969 0.0
H231 H 0.03624 0.55567 0.8351 0.0
H232 H 0.15912 0.53957 0.84932 0.0
H233 H 0.12268 0.53126 0.87644 0.0
H234 H 0.24002 0.6152 0.88331 0.0
H235 H 0.20289 0.60701 0.9107 0.0
H236 H 0.09249 0.52539 0.98537 0.0
H237 H 1.00491 0.55683 0.99786 0.0
H238 H 0.99541 0.56059 0.96385 0.0
H239 H 0.08332 0.52975 0.95157 0.0
C240 C 0.97008 0.46396 0.46909 0.0
C241 C 0.95535 0.43603 0.45523 0.0
C242 C 0.91192 0.40545 0.47715 0.0
C243 C 0.92666 0.40706 0.45923 0.0
C244 C 0.92634 0.43399 0.49086 0.0
C245 C 0.95519 0.4629 0.48687 0.0
U246 U 1.03257 0.51773 0.43402 0.0
O247 O 0.05984 0.57628 0.43311 0.0
O248 O 0.08811 0.53794 0.43456 0.0
C249 C 0.0896 0.57207 0.43417 0.0
C250 C 1.00114 0.49383 0.46518 0.0
C251 C 0.11591 0.59911 0.44614 0.0
C252 C 0.13451 0.64294 0.4732 0.0
C253 C 0.10911 0.61452 0.46347 0.0
C254 C 0.1737 0.63994 0.44866 0.0
C255 C 0.16692 0.65656 0.46562 0.0
C256 C 0.14854 0.61163 0.43907 0.0
C257 C 1.01233 0.48709 0.38102 0.0
C258 C 0.04715 0.51261 0.35449 0.0
C259 C 0.99311 0.46589 0.3487 0.0
C260 C 0.98808 0.46442 0.3682 0.0
C261 C 1.02258 0.49016 0.34153 0.0
C262 C 0.04202 0.51114 0.37408 0.0
C263 C 1.0057 0.48502 0.40145 0.0
O264 O 1.02598 0.48365 0.4584 0.0
O265 O 0.99681 0.52077 0.45632 0.0
O266 O 0.99805 0.51225 0.40971 0.0
O267 O 1.02637 0.47423 0.4117 0.0
H268 H 0.96624 0.43646 0.44134 0.0
H269 H 0.91595 0.3859 0.44824 0.0
H270 H 0.91583 0.43353 0.50484 0.0
H271 H 0.96613 0.48423 0.49775 0.0
H272 H 0.12846 0.65515 0.48623 0.0
H273 H 0.08408 0.60527 0.46921 0.0
H274 H 0.19848 0.64923 0.4426 0.0
H275 H 0.15439 0.60011 0.42577 0.0
H276 H 0.06998 0.53186 0.34948 0.0
H277 H 0.97389 0.44781 0.33922 0.0
H278 H 0.96507 0.44555 0.37328 0.0
H279 H 0.06104 0.52892 0.38378 0.0
C280 C 0.54298 0.92478 0.81825 0.0
C281 C 0.54198 0.90132 0.80229 0.0
C282 C 0.5451 0.85349 0.82264 0.0
C283 C 0.54299 0.86599 0.80447 0.0
C284 C 0.5459 0.87731 0.83849 0.0
C285 C 0.54491 0.91238 0.83629 0.0
U286 U 0.54112 0.01162 0.79303 0.0
O287 O 0.51274 0.04784 0.80298 0.0
O288 O 0.5682 0.06847 0.80281 0.0
C289 C 0.54032 0.07526 0.80712 0.0
C290 C 0.54205 0.96222 0.8169 0.0
C291 C 0.53946 0.11302 0.807 0.0
C292 C 0.52203 0.16046 0.82335 0.0
C293 C 0.52079 0.12421 0.821 0.0
C294 C 0.56019 0.17545 0.79727 0.0
C295 C 0.5418 0.18684 0.8116 0.0
C296 C 0.55918 0.13893 0.79506 0.0
C297 C 0.54228 1.00739 0.73689 0.0
C298 C 0.5184 0.02885 0.7103 0.0
C299 C 0.56481 1.0057 0.70534 0.0
C300 C 0.5653 0.99943 0.72455 0.0
C301 C 0.54126 0.02028 0.69785 0.0
C302 C 0.51886 0.02242 0.72965 0.0
C303 C 0.54133 0.99545 0.75644 0.0
O304 O 0.56933 0.98651 0.81102 0.0
O305 O 0.51422 0.9658 0.81014 0.0
O306 O 0.51355 0.99034 0.76604 0.0
O307 O 0.56895 1.00895 0.76695 0.0
H308 H 0.54052 0.91032 0.7882 0.0
H309 H 0.54258 0.84868 0.7919 0.0
H310 H 0.54681 0.86872 0.85271 0.0
H311 H 0.54554 0.92993 0.84882 0.0
H312 H 0.50815 0.16787 0.83484 0.0
H313 H 0.50593 0.10497 0.83066 0.0
H314 H 0.57545 0.1947 0.78779 0.0
H315 H 0.57413 0.13113 0.78425 0.0
H316 H 0.50006 0.04034 0.70507 0.0
H317 H 0.58229 0.99789 0.69625 0.0
H318 H 0.58315 0.98714 0.72967 0.0
H319 H 0.50056 0.02851 0.73882 0.0
C320 C 0.6458 0.50044 0.13962 0.0
C321 C 0.67425 0.5319 0.13706 0.0
C322 C 0.71822 0.50167 0.14349 0.0
C323 C 0.70885 0.53242 0.13877 0.0
C324 C 0.68955 0.47022 0.14599 0.0
C325 C 0.65504 0.4697 0.14418 0.0
U326 U 0.54912 0.50194 0.12385 0.0
O327 O 0.49805 0.4718 0.13517 0.0
O328 O 0.51599 0.53027 0.13857 0.0
C329 C 0.49026 0.50071 0.14101 0.0
C330 C 0.6078 0.50044 0.14038 0.0
C331 C 0.45228 0.5009 0.14061 0.0
C332 C 0.40878 0.53092 0.14965 0.0
C333 C 0.44323 0.53144 0.14759 0.0
C334 C 0.38914 0.46908 0.13795 0.0
C335 C 0.37993 0.49966 0.14505 0.0
C336 C 0.42369 0.46962 0.13594 0.0
C337 C 0.54912 0.50656 0.06557 0.0
C338 C 0.52255 0.48382 0.03444 0.0
C339 C 0.57433 0.53448 0.03662 0.0
C340 C 0.57463 0.53294 0.05648 0.0
C341 C 0.5481 0.51015 0.02525 0.0
C342 C 0.52324 0.48184 0.05425 0.0
C343 C 0.54924 0.50501 0.0867 0.0
O344 O 0.60005 0.53002 0.13783 0.0
O345 O 0.58215 0.47149 0.13499 0.0
O346 O 0.53927 0.47421 0.09512 0.0
O347 O 0.55922 0.53421 0.09828 0.0
H348 H 0.6699 0.5569 0.13398 0.0
H349 H 0.72841 0.55787 0.13672 0.0
H350 H 0.69345 0.44524 0.14947 0.0
H351 H 0.6352 0.44471 0.14681 0.0
H352 H 0.40515 0.55563 0.15534 0.0
H353 H 0.46318 0.55623 0.152 0.0
H354 H 0.36953 0.44388 0.13392 0.0
H355 H 0.4279 0.44477 0.13088 0.0
H356 H 0.50207 0.4644 0.02627 0.0
H357 H 0.59435 0.55528 0.03018 0.0
H358 H 0.595 0.55234 0.06475 0.0
H359 H 0.50316 0.46121 0.06076 0.0
H360 H 0.14929 0.43956 0.16231 0.0
H361 H 0.18239 0.55513 0.15808 0.0
H362 H 0.20738 0.43967 0.15833 0.0
H363 H 0.24032 0.55553 0.15404 0.0
H364 H 0.35195 0.55665 0.15474 0.0
H365 H 0.29434 0.55574 0.15909 0.0
H366 H 0.25862 0.44045 0.14587 0.0
H367 H 0.31643 0.44115 0.14184 0.0
C368 C 0.16867 0.46535 0.16058 0.0
C369 C 0.15914 0.49733 0.16071 0.0
C370 C 0.20301 0.46547 0.15812 0.0
C371 C 0.23106 0.49765 0.15569 0.0
C372 C 0.22132 0.52961 0.15593 0.0
C373 C 0.18701 0.52942 0.15825 0.0
C374 C 0.33242 0.53061 0.15272 0.0
C375 C 0.34158 0.49901 0.14774 0.0
C376 C 0.29803 0.53013 0.15518 0.0
C377 C 0.26925 0.498 0.15298 0.0
C378 C 0.27834 0.46636 0.14805 0.0
C379 C 0.31276 0.46684 0.14552 0.0
H380 H 0.71126 0.2498 0.49451 0.0
H381 H 0.7809 0.1933 0.50739 0.0
H382 H 0.75867 0.30397 0.48834 0.0
H383 H 0.82799 0.24748 0.5018 0.0
H384 H 0.90161 0.33361 0.46784 0.0
H385 H 0.85345 0.28133 0.47478 0.0
H386 H 0.80704 0.35231 0.50403 0.0
H387 H 0.85513 0.40497 0.49667 0.0
C388 C 0.73662 0.24891 0.49607 0.0
C389 C 0.74215 0.21705 0.50143 0.0
C390 C 0.76382 0.2801 0.49271 0.0
C391 C 0.79721 0.28009 0.49447 0.0
C392 C 0.80266 0.24838 0.50006 0.0
C393 C 0.77557 0.21736 0.50349 0.0
C394 C 0.88104 0.33818 0.4756 0.0
C395 C 0.88227 0.37359 0.48161 0.0
C396 C 0.85353 0.30811 0.47978 0.0
C397 C 0.82634 0.31251 0.49003 0.0
C398 C 0.82742 0.34792 0.49599 0.0
C399 C 0.85513 0.37809 0.49192 0.0
H400 H 0.49118 0.61904 0.83313 0.0
H401 H 0.59609 0.65959 0.85034 0.0
H402 H 0.49238 0.68054 0.82784 0.0
H403 H 0.59771 0.72121 0.84443 0.0
H404 H 0.58152 0.83187 0.84919 0.0
H405 H 0.58064 0.77075 0.855 0.0
H406 H 0.51181 0.72836 0.80737 0.0
H407 H 0.5113 0.78944 0.80221 0.0
C408 C 0.51459 0.6411 0.83579 0.0
C409 C 0.54353 0.63419 0.84225 0.0
C410 C 0.51538 0.67652 0.83256 0.0
C411 C 0.54521 0.70625 0.83553 0.0
C412 C 0.57409 0.69932 0.84219 0.0
C413 C 0.57323 0.66384 0.84556 0.0
C414 C 0.56588 0.80954 0.84003 0.0
C415 C 0.54622 0.81591 0.8253 0.0
C416 C 0.56574 0.77431 0.84323 0.0
C417 C 0.54605 0.74415 0.83175 0.0
C418 C 0.52689 0.7506 0.81677 0.0
C419 C 0.52696 0.78587 0.81361 0.0
H420 H 0.95081 0.56008 0.14873 0.0
H421 H 0.91529 0.45053 0.16595 0.0
H422 H 0.89264 0.55942 0.14503 0.0
H423 H 0.85707 0.44936 0.16212 0.0
H424 H 0.74662 0.45196 0.15999 0.0
H425 H 0.80445 0.45295 0.16373 0.0
H426 H 0.83906 0.55408 0.13655 0.0
H427 H 0.78113 0.55304 0.13282 0.0
C428 C 0.93082 0.53549 0.15177 0.0
C429 C 0.93974 0.50542 0.15777 0.0
C430 C 0.89634 0.53495 0.14954 0.0
C431 C 0.86749 0.50427 0.1531 0.0
C432 C 0.87667 0.47421 0.15912 0.0
C433 C 0.91114 0.47477 0.16134 0.0
C434 C 0.76604 0.47466 0.15455 0.0
C435 C 0.75659 0.50236 0.14591 0.0
C436 C 0.80053 0.47527 0.15679 0.0
C437 C 0.82912 0.50363 0.15061 0.0
C438 C 0.81966 0.53134 0.14196 0.0
C439 C 0.78515 0.53074 0.13974 0.0
H440 H 0.35278 0.83525 0.48709 0.0
H441 H 0.29389 0.84552 0.53571 0.0
H442 H 0.30782 0.78106 0.4755 0.0
H443 H 0.24869 0.79099 0.52405 0.0
H444 H 0.18567 0.67249 0.50339 0.0
H445 H 0.23112 0.72501 0.51727 0.0
H446 H 0.25245 0.76681 0.4618 0.0
H447 H 0.20772 0.71462 0.44808 0.0
C448 C 0.33014 0.82613 0.49528 0.0
C449 C 0.3269 0.84525 0.51222 0.0
C450 C 0.30428 0.79493 0.48862 0.0
C451 C 0.27429 0.78181 0.49867 0.0
C452 C 0.27144 0.80014 0.51596 0.0
C453 C 0.29741 0.83147 0.52265 0.0
C454 C 0.20001 0.69307 0.49423 0.0
C455 C 0.19333 0.68907 0.47458 0.0
C456 C 0.22604 0.72318 0.50217 0.0
C457 C 0.24587 0.75001 0.49064 0.0
C458 C 0.23844 0.7463 0.47109 0.0
C459 C 0.21266 0.71633 0.4632 0.0
H460 H 0.60054 0.42056 0.84514 0.0
H461 H 0.49711 0.39088 0.82565 0.0
H462 H 0.59955 0.35813 0.83781 0.0
H463 H 0.49645 0.32945 0.81769 0.0
H464 H 0.49134 0.21339 0.82313 0.0
H465 H 0.49446 0.27564 0.83073 0.0
H466 H 0.59821 0.3125 0.81372 0.0
H467 H 0.59578 0.24951 0.80736 0.0
C468 C 0.57761 0.40081 0.83927 0.0
C469 C 0.54881 0.41087 0.8362 0.0
C470 C 0.5771 0.36497 0.83489 0.0
C471 C 0.54783 0.33825 0.82721 0.0
C472 C 0.51927 0.34868 0.82397 0.0
C473 C 0.51971 0.38424 0.82847 0.0
C474 C 0.51507 0.23455 0.8212 0.0
C475 C 0.54338 0.22588 0.81474 0.0
C476 C 0.51671 0.27063 0.82531 0.0
C477 C 0.54658 0.29961 0.82284 0.0
C478 C 0.57484 0.29111 0.81608 0.0
C479 C 0.57328 0.25482 0.81212 0.0
H480 H 0.48682 0.89433 0.52289 0.0
H481 H 0.59488 0.93214 0.51762 0.0
H482 H 0.4876 0.83334 0.5271 0.0
H483 H 0.59562 0.87024 0.52163 0.0
H484 H 0.58467 0.76326 0.55188 0.0
H485 H 0.5865 0.82508 0.5459 0.0
H486 H 0.49635 0.78174 0.51094 0.0
H487 H 0.49381 0.72039 0.51744 0.0
C488 C 0.51084 0.88962 0.52244 0.0
C489 C 0.54082 0.91844 0.51991 0.0
C490 C 0.51124 0.85436 0.52477 0.0
C491 C 0.54166 0.84653 0.52474 0.0
C492 C 0.57172 0.8752 0.52193 0.0
C493 C 0.57129 0.91068 0.51943 0.0
C494 C 0.56505 0.7669 0.54305 0.0
C495 C 0.53905 0.7365 0.53521 0.0
C496 C 0.56637 0.80245 0.5394 0.0
C497 C 0.54158 0.80869 0.52792 0.0
C498 C 0.51574 0.77826 0.52002 0.0
C499 C 0.51448 0.74285 0.52361 0.0
H500 H 0.75571 0.48872 0.86132 0.0
H501 H 0.76322 0.53492 0.80681 0.0
H502 H 0.80835 0.47679 0.85619 0.0
H503 H 0.81588 0.52218 0.80136 0.0
H504 H 0.92947 0.5617 0.8244 0.0
H505 H 0.87069 0.55332 0.81712 0.0
H506 H 0.84184 0.44605 0.83852 0.0
H507 H 0.90081 0.45488 0.84611 0.0
C508 C 0.76837 0.49557 0.84805 0.0
C509 C 0.75595 0.51339 0.83464 0.0
C510 C 0.79827 0.48828 0.84496 0.0
C511 C 0.81637 0.49879 0.82839 0.0
C512 C 0.80256 0.5141 0.81432 0.0
C513 C 0.77246 0.52126 0.8174 0.0
C514 C 0.91066 0.53588 0.82691 0.0
C515 C 0.91939 0.5092 0.83614 0.0
C516 C 0.87698 0.53096 0.82267 0.0
C517 C 0.85164 0.49922 0.82755 0.0
C518 C 0.86084 0.47103 0.83494 0.0
C519 C 0.89448 0.47606 0.83929 0.0
H520 H 0.25626 0.7011 0.1617 0.0
H521 H 0.20096 0.75548 0.19658 0.0
H522 H 0.30852 0.74995 0.17024 0.0
H523 H 0.25319 0.80334 0.20576 0.0
H524 H 0.34752 0.90105 0.20754 0.0
H525 H 0.29657 0.85429 0.19534 0.0
H526 H 0.3478 0.77464 0.19578 0.0
H527 H 0.39925 0.82174 0.207 0.0
C528 C 0.25514 0.72347 0.17115 0.0
C529 C 0.22414 0.72405 0.17846 0.0
C530 C 0.28528 0.75141 0.17624 0.0
C531 C 0.28539 0.78087 0.18876 0.0
C532 C 0.25432 0.78153 0.19591 0.0
C533 C 0.22425 0.75364 0.19084 0.0
C534 C 0.34825 0.87376 0.2047 0.0
C535 C 0.37778 0.86544 0.20845 0.0
C536 C 0.31871 0.84667 0.19793 0.0
C537 C 0.31764 0.81031 0.19474 0.0
C538 C 0.34746 0.80221 0.19793 0.0
C539 C 0.37702 0.82931 0.20463 0.0
H540 H 0.47707 0.12283 0.5398 0.0
H541 H 0.58028 0.16534 0.52242 0.0
H542 H 0.47613 0.18443 0.54632 0.0
H543 H 0.57907 0.22704 0.52842 0.0
H544 H 0.57774 0.33372 0.55809 0.0
H545 H 0.57861 0.27186 0.55235 0.0
H546 H 0.47494 0.23766 0.53277 0.0
H547 H 0.47341 0.29878 0.5396 0.0
C548 C 0.49954 0.14527 0.53722 0.0
C549 C 0.52876 0.13878 0.53059 0.0
C550 C 0.49896 0.18084 0.54087 0.0
C551 C 0.52754 0.21119 0.53797 0.0
C552 C 0.55668 0.20464 0.53118 0.0
C553 C 0.55729 0.16905 0.52757 0.0
C554 C 0.5549 0.31297 0.55287 0.0
C555 C 0.52551 0.32178 0.54936 0.0
C556 C 0.55555 0.27737 0.54926 0.0
C557 C 0.52688 0.24932 0.54198 0.0
C558 C 0.49748 0.25811 0.53858 0.0
C559 C 0.49676 0.29359 0.54228 0.0
H560 H 0.38684 0.61176 0.8278 0.0
H561 H 0.33305 0.52259 0.78879 0.0
H562 H 0.33761 0.63057 0.83043 0.0
H563 H 0.28382 0.5426 0.79045 0.0
H564 H 0.20952 0.52361 0.84107 0.0
H565 H 0.25218 0.52729 0.81789 0.0
H566 H 0.28796 0.64449 0.82659 0.0
H567 H 0.24514 0.64034 0.85049 0.0
C568 C 0.36492 0.59742 0.81896 0.0
C569 C 0.36296 0.56478 0.80886 0.0
C570 C 0.33658 0.60836 0.82031 0.0
C571 C 0.30606 0.58679 0.81146 0.0
C572 C 0.30658 0.55878 0.79812 0.0
C573 C 0.33486 0.54746 0.79701 0.0
C574 C 0.22585 0.55025 0.83766 0.0
C575 C 0.22463 0.58162 0.84787 0.0
C576 C 0.25023 0.55251 0.82411 0.0
C577 C 0.274 0.58627 0.82044 0.0
C578 C 0.27051 0.61802 0.82933 0.0
C579 C 0.24622 0.61567 0.84309 0.0
H580 H 0.84041 0.33638 0.18358 0.0
H581 H 0.88453 0.25253 0.19208 0.0
H582 H 0.78502 0.29422 0.19045 0.0
H583 H 0.82918 0.21012 0.19804 0.0
H584 H 0.73258 0.15339 0.22805 0.0
H585 H 0.78702 0.19712 0.22145 0.0
H586 H 0.74041 0.24073 0.17857 0.0
H587 H 0.68556 0.19782 0.18574 0.0
C588 C 0.83842 0.30901 0.18689 0.0
C589 C 0.86728 0.29814 0.18728 0.0
C590 C 0.80646 0.28461 0.19062 0.0
C591 C 0.80237 0.24859 0.19491 0.0
C592 C 0.83119 0.23768 0.19511 0.0
C593 C 0.86306 0.26202 0.1914 0.0
C594 C 0.73373 0.17258 0.21739 0.0
C595 C 0.70438 0.17189 0.2075 0.0
C596 C 0.76519 0.19746 0.21339 0.0
C597 C 0.76844 0.22253 0.19935 0.0
C598 C 0.73905 0.22213 0.18957 0.0
C599 C 0.70752 0.19715 0.19355 0.0
H600 H 0.08747 0.4673 0.10334 0.0
H601 H 1.01933 0.52828 0.11383 0.0
H602 H 0.09265 0.48471 0.0706 0.0
H603 H 1.02296 0.54417 0.08101 0.0
H604 H 0.05176 0.58822 0.02419 0.0
H605 H 0.0567 0.57822 0.05769 0.0
H606 H 0.05952 0.47021 0.04254 0.0
H607 H 0.05613 0.48109 0.0092 0.0
C608 C 0.07353 0.4843 0.09857 0.0
C609 C 0.0528 0.49623 0.11094 0.0
C610 C 0.07634 0.49416 0.07984 0.0
C611 C 0.05804 0.51565 0.07312 0.0
C612 C 0.03785 0.52811 0.08574 0.0
C613 C 0.03549 0.51873 0.1045 0.0
C614 C 0.05369 0.56252 0.02814 0.0
C615 C 0.05353 0.53539 0.01426 0.0
C616 C 0.05639 0.55668 0.04727 0.0
C617 C 0.05836 0.52333 0.05283 0.0
C618 C 0.05871 0.49646 0.0388 0.0
C619 C 0.05655 0.50254 0.01971 0.0
H620 H 0.4685 0.98114 0.45621 0.0
H621 H 0.56896 0.05325 0.46961 0.0
H622 H 0.47921 0.98685 0.4226 0.0
H623 H 0.57964 0.06019 0.43579 0.0
H624 H 0.59709 0.0395 0.37265 0.0
H625 H 0.58828 0.0319 0.40642 0.0
H626 H 0.48503 0.02796 0.39882 0.0
H627 H 0.49378 0.03493 0.36507 0.0
C628 C 0.49297 0.99832 0.45194 0.0
C629 C 0.51793 0.01669 0.46559 0.0
C630 C 0.49906 1.00188 0.4326 0.0
C631 C 0.53021 0.02433 0.42628 0.0
C632 C 0.55545 0.04232 0.44001 0.0
C633 C 0.54939 0.03844 0.45944 0.0
C634 C 0.57253 0.03716 0.37821 0.0
C635 C 0.54612 0.03773 0.36605 0.0
C636 C 0.56748 0.03289 0.39764 0.0
C637 C 0.53589 0.02918 0.40553 0.0
C638 C 0.50954 0.02994 0.39333 0.0
C639 C 0.51455 0.03399 0.3739 0.0
H640 H 0.51549 0.54586 0.78999 0.0
H641 H 0.58933 0.49151 0.78156 0.0
H642 H 0.50924 0.5472 0.75556 0.0
H643 H 0.58279 0.49224 0.74744 0.0
H644 H 0.59502 0.53896 0.68947 0.0
H645 H 0.59749 0.5353 0.72356 0.0
H646 H 0.48974 0.51094 0.72579 0.0
H647 H 0.48741 0.51613 0.69154 0.0
C648 C 0.53019 0.53397 0.7808 0.0
C649 C 0.55316 0.51891 0.78853 0.0
C650 C 0.5265 0.53456 0.76105 0.0
C651 C 0.54579 0.52018 0.7486 0.0
C652 C 0.56801 0.50426 0.75648 0.0
C653 C 0.57162 0.50362 0.77611 0.0
C654 C 0.57179 0.53305 0.69716 0.0
C655 C 0.54103 0.52799 0.68759 0.0
C656 C 0.57316 0.53051 0.71679 0.0
C657 C 0.5438 0.52267 0.72757 0.0
C658 C 0.51293 0.51733 0.71803 0.0
C659 C 0.51154 0.51984 0.69832 0.0
H660 H 0.50808 0.0503 0.57685 0.0
H661 H 0.58077 0.99398 0.58043 0.0
H662 H 0.50308 0.05085 0.61152 0.0
H663 H 0.57576 0.99444 0.61465 0.0
H664 H 0.59463 0.04387 0.67436 0.0
H665 H 0.59374 0.04433 0.64004 0.0
H666 H 0.48515 1.00902 0.63941 0.0
H667 H 0.48588 1.00771 0.67402 0.0
C668 C 0.52261 0.03767 0.585 0.0
C669 C 0.54512 0.02249 0.57596 0.0
C670 C 0.51976 0.03797 0.60481 0.0
C671 C 0.53952 0.02329 0.61586 0.0
C672 C 0.56079 1.00673 0.60662 0.0
C673 C 0.56351 1.0063 0.58697 0.0
C674 C 0.57047 0.03605 0.667 0.0
C675 C 0.54032 0.02509 0.67705 0.0
C676 C 0.56998 0.03638 0.64728 0.0
C677 C 0.53936 0.02608 0.63696 0.0
C678 C 0.50915 0.01706 0.64697 0.0
C679 C 0.50961 0.01644 0.66681 0.0
H680 H 0.50361 0.55464 0.90955 0.0
H681 H 0.57256 0.49428 0.90096 0.0
H682 H 0.50845 0.55162 0.94371 0.0
H683 H 0.57723 0.49084 0.93536 0.0
H684 H 0.60004 0.521 0.99993 0.0
H685 H 0.59797 0.52534 0.96556 0.0
H686 H 0.4914 0.50873 0.96796 0.0
H687 H 0.49361 0.50482 1.0022 0.0
C688 C 0.51987 0.54067 0.91495 0.0
C689 C 0.53752 0.52453 0.90237 0.0
C690 C 0.52249 0.53871 0.93464 0.0
C691 C 0.54297 0.52063 0.94255 0.0
C692 C 0.56133 0.5052 0.92996 0.0
C693 C 0.55858 0.50704 0.91017 0.0
C694 C 0.57618 0.51845 0.99314 0.0
C695 C 0.547 0.51255 1.00403 0.0
C696 C 0.57492 0.52062 0.97333 0.0
C697 C 0.54453 0.51753 0.96374 0.0
C698 C 0.51541 0.51169 0.97468 0.0
C699 C 0.5166 0.50907 0.99441 0.0
H700 H 1.01555 0.54895 0.22612 0.0
H701 H 0.07472 0.47695 0.22098 0.0
H702 H 1.00977 0.53991 0.25974 0.0
H703 H 0.06867 0.46752 0.25509 0.0
H704 H 0.0798 0.49722 0.32096 0.0
H705 H 0.08644 0.50216 0.28671 0.0
H706 H 0.98153 0.49243 0.28063 0.0
H707 H 0.97515 0.48857 0.31466 0.0
C708 C 1.02724 0.53097 0.23218 0.0
C709 C 0.04562 0.51368 0.22086 0.0
C710 C 1.02374 0.52563 0.2515 0.0
C711 C 0.0386 0.50285 0.26016 0.0
C712 C 0.05708 0.48543 0.24887 0.0
C713 C 0.06039 0.49062 0.22935 0.0
C714 C 0.05822 0.49632 0.3123 0.0
C715 C 1.02695 0.49255 0.32063 0.0
C716 C 0.06193 0.49871 0.29265 0.0
C717 C 0.03454 0.49776 0.2809 0.0
C718 C 1.00326 0.49362 0.28924 0.0
C719 C 0.99952 0.49106 0.30879 0.0
loop_
_geom_bond_atom_site_label_1
_geom_bond_atom_site_label_2
_geom_bond_distance
_geom_bond_site_symmetry_2
_ccdc_geom_bond_type
Nd0 C2 2.836 . S
Nd0 O20 2.500 . S
Nd0 O21 2.492 . S
Nd0 O22 2.487 . S
Nd0 O23 2.682 . S
Nd0 O24 2.410 . S
Nd0 O29 2.414 . S
Nd0 O31 2.424 1_455 S
Nd1 C11 2.836 . S
Nd1 O23 2.414 1_655 S
Nd1 O25 2.424 1_655 S
Nd1 O26 2.500 . S
Nd1 O27 2.492 . S
Nd1 O28 2.487 . S
Nd1 O29 2.682 1_655 S
Nd1 O30 2.410 . S
C2 Nd0 2.836 . S
C2 C3 1.498 . S
C2 O20 1.258 . S
C2 O21 1.239 . S
C3 C2 1.498 . S
C3 C4 1.366 . S
C3 C8 1.407 . S
C4 C3 1.366 . S
C4 C5 1.392 . S
C4 H32 0.930 . S
C5 C4 1.392 . S
C5 C6 1.398 . S
C5 H33 0.929 . S
C6 C5 1.398 . S
C6 C7 1.352 . S
C7 C6 1.352 . S
C7 C8 1.384 . S
C7 H34 0.930 . S
C8 C3 1.407 . S
C8 C7 1.384 . S
C8 H35 0.929 . S
C9 O22 1.241 . S
C9 O23 1.273 . S
C10 O24 1.251 . S
C10 O25 1.268 . S
C11 Nd1 2.836 . S
C11 C12 1.498 . S
C11 O26 1.258 . S
C11 O27 1.239 . S
C12 C11 1.498 . S
C12 C13 1.366 . S
C12 C17 1.407 . S
C13 C12 1.366 . S
C13 C14 1.392 . S
C13 H36 0.930 . S
C14 C13 1.392 . S
C14 C15 1.398 . S
C14 H37 0.929 . S
C15 C14 1.398 . S
C15 C16 1.352 . S
C16 C15 1.352 . S
C16 C17 1.384 . S
C16 H38 0.930 . S
C17 C12 1.407 . S
C17 C16 1.384 . S
C17 H39 0.929 . S
C18 O28 1.240 1_455 S
C18 O29 1.273 . S
C19 O30 1.251 . S
C19 O31 1.268 . S
O20 Nd0 2.500 . S
O20 C2 1.258 . S
O21 Nd0 2.492 . S
O21 C2 1.239 . S
O22 Nd0 2.487 . S
O22 C9 1.241 . S
O23 Nd0 2.682 . S
O23 Nd1 2.414 1_455 S
O23 C9 1.273 . S
O24 Nd0 2.410 . S
O24 C10 1.251 . S
O25 Nd1 2.424 1_455 S
O25 C10 1.268 . S
O26 Nd1 2.500 . S
O26 C11 1.258 . S
O27 Nd1 2.492 . S
O27 C11 1.239 . S
O28 Nd1 2.487 . S
O28 C18 1.240 1_655 S
O29 Nd0 2.414 . S
O29 Nd1 2.682 1_455 S
O29 C18 1.273 . S
O30 Nd1 2.410 . S
O30 C19 1.251 . S
O31 Nd0 2.424 1_655 S
O31 C19 1.268 . S
H32 C4 0.930 . S
H33 C5 0.929 . S
H34 C7 0.930 . S
H35 C8 0.929 . S
H36 C13 0.930 . S
H37 C14 0.929 . S
H38 C16 0.930 . S
H39 C17 0.929 . S
Nd40 C42 2.847 . S
Nd40 O60 2.510 . S
Nd40 O61 2.501 . S
Nd40 O62 2.487 . S
Nd40 O63 2.681 1_565 S
Nd40 O64 2.424 . S
Nd40 O69 2.416 1_565 S
Nd40 O71 2.409 1_565 S
Nd41 C51 2.836 . S
Nd41 O63 2.414 . S
Nd41 O65 2.424 1_545 S
Nd41 O66 2.500 . S
Nd41 O67 2.492 . S
Nd41 O68 2.487 . S
Nd41 O69 2.682 . S
Nd41 O70 2.410 . S
C42 Nd40 2.847 . S
C42 C43 1.498 . S
C42 O60 1.258 . S
C42 O61 1.239 . S
C43 C42 1.498 . S
C43 C44 1.366 . S
C43 C48 1.407 . S
C44 C43 1.366 . S
C44 C45 1.392 . S
C44 H72 0.930 . S
C45 C44 1.392 . S
C45 C46 1.398 . S
C45 H73 0.929 . S
C46 C45 1.398 . S
C46 C47 1.352 . S
C47 C46 1.352 . S
C47 C48 1.384 . S
C47 H74 0.930 . S
C48 C43 1.407 . S
C48 C47 1.384 . S
C48 H75 0.929 . S
C49 O62 1.236 1_545 S
C49 O63 1.273 . S
C50 O64 1.251 . S
C50 O65 1.268 . S
C51 Nd41 2.836 . S
C51 C52 1.498 . S
C51 O66 1.258 . S
C51 O67 1.239 . S
C52 C51 1.498 . S
C52 C53 1.366 . S
C52 C57 1.407 . S
C53 C52 1.366 . S
C53 C54 1.392 . S
C53 H76 0.930 . S
C54 C53 1.392 . S
C54 C55 1.398 . S
C54 H77 0.929 . S
C55 C54 1.398 . S
C55 C56 1.352 . S
C56 C55 1.352 . S
C56 C57 1.384 . S
C56 H78 0.930 . S
C57 C52 1.407 . S
C57 C56 1.384 . S
C57 H79 0.929 . S
C58 O68 1.241 . S
C58 O69 1.273 . S
C59 O70 1.251 . S
C59 O71 1.268 . S
O60 Nd40 2.510 . S
O60 C42 1.258 . S
O61 Nd40 2.501 . S
O61 C42 1.239 . S
O62 Nd40 2.487 . S
O62 C49 1.236 1_565 S
O63 Nd40 2.681 1_545 S
O63 Nd41 2.414 . S
O63 C49 1.273 . S
O64 Nd40 2.424 . S
O64 C50 1.251 . S
O65 Nd41 2.424 1_565 S
O65 C50 1.268 . S
O66 Nd41 2.500 . S
O66 C51 1.258 . S
O67 Nd41 2.492 . S
O67 C51 1.239 . S
O68 Nd41 2.487 . S
O68 C58 1.241 . S
O69 Nd40 2.416 1_545 S
O69 Nd41 2.682 . S
O69 C58 1.273 . S
O70 Nd41 2.410 . S
O70 C59 1.251 . S
O71 Nd40 2.409 1_545 S
O71 C59 1.268 . S
H72 C44 0.930 . S
H73 C45 0.929 . S
H74 C47 0.930 . S
H75 C48 0.929 . S
H76 C53 0.930 . S
H77 C54 0.929 . S
H78 C56 0.930 . S
H79 C57 0.929 . S
Nd80 C82 2.836 . S
Nd80 O100 2.500 . S
Nd80 O101 2.492 . S
Nd80 O102 2.487 . S
Nd80 O103 2.682 . S
Nd80 O104 2.410 . S
Nd80 O109 2.414 . S
Nd80 O111 2.424 . S
Nd81 C91 2.836 . S
Nd81 O103 2.414 . S
Nd81 O105 2.424 . S
Nd81 O106 2.500 . S
Nd81 O107 2.492 . S
Nd81 O108 2.487 . S
Nd81 O109 2.682 . S
Nd81 O110 2.410 . S
C82 Nd80 2.836 . S
C82 C83 1.498 . S
C82 O100 1.258 . S
C82 O101 1.239 . S
C83 C82 1.498 . S
C83 C84 1.366 . S
C83 C88 1.407 . S
C84 C83 1.366 . S
C84 C85 1.392 . S
C84 H112 0.930 . S
C85 C84 1.392 . S
C85 C86 1.398 . S
C85 H113 0.929 . S
C86 C85 1.398 . S
C86 C87 1.352 . S
C87 C86 1.352 . S
C87 C88 1.384 . S
C87 H114 0.930 . S
C88 C83 1.407 . S
C88 C87 1.384 . S
C88 H115 0.929 . S
C89 O102 1.241 . S
C89 O103 1.273 . S
C90 O104 1.251 . S
C90 O105 1.268 . S
C91 Nd81 2.836 . S
C91 C92 1.498 . S
C91 O106 1.258 . S
C91 O107 1.239 . S
C92 C91 1.498 . S
C92 C93 1.366 . S
C92 C97 1.407 . S
C93 C92 1.366 . S
C93 C94 1.392 . S
C93 H116 0.930 . S
C94 C93 1.392 . S
C94 C95 1.398 . S
C94 H117 0.929 . S
C95 C94 1.398 . S
C95 C96 1.352 . S
C96 C95 1.352 . S
C96 C97 1.384 . S
C96 H118 0.930 . S
C97 C92 1.407 . S
C97 C96 1.384 . S
C97 H119 0.929 . S
C98 O108 1.241 . S
C98 O109 1.273 . S
C99 O110 1.251 . S
C99 O111 1.268 . S
O100 Nd80 2.500 . S
O100 C82 1.258 . S
O101 Nd80 2.492 . S
O101 C82 1.239 . S
O102 Nd80 2.487 . S
O102 C89 1.241 . S
O103 Nd80 2.682 . S
O103 Nd81 2.414 . S
O103 C89 1.273 . S
O104 Nd80 2.410 . S
O104 C90 1.251 . S
O105 Nd81 2.424 . S
O105 C90 1.268 . S
O106 Nd81 2.500 . S
O106 C91 1.258 . S
O107 Nd81 2.492 . S
O107 C91 1.239 . S
O108 Nd81 2.487 . S
O108 C98 1.241 . S
O109 Nd80 2.414 . S
O109 Nd81 2.682 . S
O109 C98 1.273 . S
O110 Nd81 2.410 . S
O110 C99 1.251 . S
O111 Nd80 2.424 . S
O111 C99 1.268 . S
H112 C84 0.930 . S
H113 C85 0.929 . S
H114 C87 0.930 . S
H115 C88 0.929 . S
H116 C93 0.930 . S
H117 C94 0.929 . S
H118 C96 0.930 . S
H119 C97 0.929 . S
C120 C121 1.264 . S
C120 C125 1.479 . S
C120 C130 1.465 . S
C121 C120 1.264 . S
C121 C123 1.339 . S
C121 H148 0.931 . S
C122 C123 1.395 . S
C122 C124 1.320 . S
C123 C121 1.339 . S
C123 C122 1.395 . S
C123 H149 0.929 . S
C124 C122 1.320 . S
C124 C125 1.405 . S
C124 H150 0.930 . S
C125 C120 1.479 . S
C125 C124 1.405 . S
C125 H151 0.931 . S
U126 O127 2.454 1_545 S
U126 O128 2.458 1_545 S
U126 C129 2.984 1_545 S
U126 C130 2.847 . S
U126 C143 2.882 . S
U126 O144 2.441 . S
U126 O145 2.420 . S
U126 O146 2.455 . S
U126 O147 2.449 . S
O127 U126 2.454 1_565 S
O127 C129 1.353 . S
O128 U126 2.458 1_565 S
O128 C129 1.286 . S
C129 U126 2.984 1_565 S
C129 O127 1.353 . S
C129 O128 1.286 . S
C129 C131 1.363 . S
C130 C120 1.465 . S
C130 U126 2.847 . S
C130 O144 1.249 . S
C130 O145 1.202 . S
C131 C129 1.363 . S
C131 C133 1.408 . S
C131 C136 1.342 . S
C132 C133 1.310 . S
C132 C135 1.461 . S
C132 H152 0.932 . S
C133 C131 1.408 . S
C133 C132 1.310 . S
C133 H153 0.930 . S
C134 C135 1.474 . S
C134 C136 1.285 . S
C134 H154 0.929 . S
C135 C132 1.461 . S
C135 C134 1.474 . S
C136 C131 1.342 . S
C136 C134 1.285 . S
C136 H155 0.930 . S
C137 C140 1.424 . S
C137 C142 1.245 . S
C137 C143 1.428 . S
C138 C141 1.260 . S
C138 C142 1.477 . S
C138 H156 0.932 . S
C139 C140 1.384 . S
C139 C141 1.479 . S
C139 H157 0.929 . S
C140 C137 1.424 . S
C140 C139 1.384 . S
C140 H158 0.928 . S
C141 C138 1.260 . S
C141 C139 1.479 . S
C142 C137 1.245 . S
C142 C138 1.477 . S
C142 H159 0.932 1_545 S
C143 U126 2.882 . S
C143 C137 1.428 . S
C143 O146 1.301 . S
C143 O147 1.282 . S
O144 U126 2.441 . S
O144 C130 1.249 . S
O145 U126 2.420 . S
O145 C130 1.202 . S
O146 U126 2.455 . S
O146 C143 1.301 . S
O147 U126 2.449 . S
O147 C143 1.282 . S
H148 C121 0.931 . S
H149 C123 0.929 . S
H150 C124 0.930 . S
H151 C125 0.931 . S
H152 C132 0.932 . S
H153 C133 0.930 . S
H154 C134 0.929 . S
H155 C136 0.930 . S
H156 C138 0.932 . S
H157 C139 0.929 . S
H158 C140 0.928 . S
H159 C142 0.932 1_565 S
C160 C161 1.264 . S
C160 C165 1.479 . S
C160 C170 1.465 . S
C161 C160 1.264 . S
C161 C163 1.339 . S
C161 H188 0.931 . S
C162 C163 1.395 . S
C162 C164 1.320 . S
C163 C161 1.339 . S
C163 C162 1.395 . S
C163 H189 0.929 . S
C164 C162 1.320 . S
C164 C165 1.405 . S
C164 H190 0.930 . S
C165 C160 1.479 . S
C165 C164 1.405 . S
C165 H191 0.931 . S
U166 O167 2.454 . S
U166 O168 2.458 . S
U166 C169 2.984 . S
U166 C170 2.847 . S
U166 C183 2.882 . S
U166 O184 2.441 . S
U166 O185 2.420 . S
U166 O186 2.455 . S
U166 O187 2.449 . S
O167 U166 2.454 . S
O167 C169 1.353 . S
O168 U166 2.458 . S
O168 C169 1.286 . S
C169 U166 2.984 . S
C169 O167 1.353 . S
C169 O168 1.286 . S
C169 C171 1.363 . S
C170 C160 1.465 . S
C170 U166 2.847 . S
C170 O184 1.249 . S
C170 O185 1.202 . S
C171 C169 1.363 . S
C171 C173 1.408 . S
C171 C176 1.342 . S
C172 C173 1.310 . S
C172 C175 1.461 . S
C172 H192 0.932 . S
C173 C171 1.408 . S
C173 C172 1.310 . S
C173 H193 0.930 . S
C174 C175 1.474 . S
C174 C176 1.285 . S
C174 H194 0.929 . S
C175 C172 1.461 . S
C175 C174 1.474 . S
C176 C171 1.342 . S
C176 C174 1.285 . S
C176 H195 0.930 . S
C177 C180 1.424 . S
C177 C182 1.245 . S
C177 C183 1.428 . S
C178 C181 1.260 . S
C178 C182 1.477 . S
C178 H196 0.932 . S
C179 C180 1.384 . S
C179 C181 1.479 . S
C179 H197 0.929 . S
C180 C177 1.424 . S
C180 C179 1.384 . S
C180 H198 0.928 . S
C181 C178 1.260 . S
C181 C179 1.479 . S
C182 C177 1.245 . S
C182 C178 1.477 . S
C182 H199 0.932 . S
C183 U166 2.882 . S
C183 C177 1.428 . S
C183 O186 1.301 . S
C183 O187 1.282 . S
O184 U166 2.441 . S
O184 C170 1.249 . S
O185 U166 2.420 . S
O185 C170 1.202 . S
O186 U166 2.455 . S
O186 C183 1.301 . S
O187 U166 2.449 . S
O187 C183 1.282 . S
H188 C161 0.931 . S
H189 C163 0.929 . S
H190 C164 0.930 . S
H191 C165 0.931 . S
H192 C172 0.932 . S
H193 C173 0.930 . S
H194 C174 0.929 . S
H195 C176 0.930 . S
H196 C178 0.932 . S
H197 C179 0.929 . S
H198 C180 0.928 . S
H199 C182 0.932 . S
C200 C201 1.264 . S
C200 C205 1.479 . S
C200 C210 1.465 . S
C201 C200 1.264 . S
C201 C203 1.339 . S
C201 H228 0.931 . S
C202 C203 1.395 . S
C202 C204 1.320 . S
C203 C201 1.339 . S
C203 C202 1.395 . S
C203 H229 0.929 . S
C204 C202 1.320 . S
C204 C205 1.405 . S
C204 H230 0.930 . S
C205 C200 1.479 . S
C205 C204 1.405 . S
C205 H231 0.931 . S
U206 O207 2.454 . S
U206 O208 2.458 . S
U206 C209 2.984 . S
U206 C210 2.847 1_455 S
U206 C223 2.882 . S
U206 O224 2.441 1_455 S
U206 O225 2.420 1_455 S
U206 O226 2.455 . S
U206 O227 2.464 . S
O207 U206 2.454 . S
O207 C209 1.353 . S
O208 U206 2.458 . S
O208 C209 1.286 . S
C209 U206 2.984 . S
C209 O207 1.353 . S
C209 O208 1.286 . S
C209 C211 1.363 . S
C210 C200 1.465 . S
C210 U206 2.847 1_655 S
C210 O224 1.249 . S
C210 O225 1.202 . S
C211 C209 1.363 . S
C211 C213 1.408 . S
C211 C216 1.342 . S
C212 C213 1.310 . S
C212 C215 1.461 . S
C212 H232 0.932 . S
C213 C211 1.408 . S
C213 C212 1.310 . S
C213 H233 0.930 . S
C214 C215 1.474 . S
C214 C216 1.285 . S
C214 H234 0.929 . S
C215 C212 1.461 . S
C215 C214 1.474 . S
C216 C211 1.342 . S
C216 C214 1.285 . S
C216 H235 0.930 . S
C217 C220 1.424 . S
C217 C222 1.245 . S
C217 C223 1.428 . S
C218 C221 1.260 . S
C218 C222 1.477 . S
C218 H236 0.932 . S
C219 C220 1.384 1_655 S
C219 C221 1.479 1_655 S
C219 H237 0.929 . S
C220 C217 1.424 . S
C220 C219 1.384 1_455 S
C220 H238 0.928 1_455 S
C221 C218 1.260 . S
C221 C219 1.479 1_455 S
C222 C217 1.245 . S
C222 C218 1.477 . S
C222 H239 0.932 . S
C223 U206 2.882 . S
C223 C217 1.428 . S
C223 O226 1.301 . S
C223 O227 1.311 . S
O224 U206 2.441 1_655 S
O224 C210 1.249 . S
O225 U206 2.420 1_655 S
O225 C210 1.202 . S
O226 U206 2.455 . S
O226 C223 1.301 . S
O227 U206 2.464 . S
O227 C223 1.311 . S
H228 C201 0.931 . S
H229 C203 0.929 . S
H230 C204 0.930 . S
H231 C205 0.931 . S
H232 C212 0.932 . S
H233 C213 0.930 . S
H234 C214 0.929 . S
H235 C216 0.930 . S
H236 C218 0.932 . S
H237 C219 0.929 . S
H238 C220 0.928 1_655 S
H239 C222 0.932 . S
C240 C241 1.264 . S
C240 C245 1.479 . S
C240 C250 1.465 . S
C241 C240 1.264 . S
C241 C243 1.339 . S
C241 H268 0.931 . S
C242 C243 1.395 . S
C242 C244 1.320 . S
C243 C241 1.339 . S
C243 C242 1.395 . S
C243 H269 0.929 . S
C244 C242 1.320 . S
C244 C245 1.405 . S
C244 H270 0.930 . S
C245 C240 1.479 . S
C245 C244 1.405 . S
C245 H271 0.931 . S
U246 O247 2.454 1_655 S
U246 O248 2.458 1_655 S
U246 C249 2.984 1_655 S
U246 C250 2.847 . S
U246 C263 2.882 . S
U246 O264 2.441 . S
U246 O265 2.420 . S
U246 O266 2.455 1_655 S
U246 O267 2.449 . S
O247 U246 2.454 1_455 S
O247 C249 1.353 . S
O248 U246 2.458 1_455 S
O248 C249 1.286 . S
C249 U246 2.984 1_455 S
C249 O247 1.353 . S
C249 O248 1.286 . S
C249 C251 1.363 . S
C250 C240 1.465 . S
C250 U246 2.847 . S
C250 O264 1.249 . S
C250 O265 1.202 . S
C251 C249 1.363 . S
C251 C253 1.408 . S
C251 C256 1.342 . S
C252 C253 1.310 . S
C252 C255 1.461 . S
C252 H272 0.932 . S
C253 C251 1.408 . S
C253 C252 1.310 . S
C253 H273 0.930 . S
C254 C255 1.474 . S
C254 C256 1.285 . S
C254 H274 0.929 . S
C255 C252 1.461 . S
C255 C254 1.474 . S
C256 C251 1.342 . S
C256 C254 1.285 . S
C256 H275 0.930 . S
C257 C260 1.424 . S
C257 C262 1.245 1_655 S
C257 C263 1.428 . S
C258 C261 1.260 1_455 S
C258 C262 1.477 . S
C258 H276 0.932 . S
C259 C260 1.384 . S
C259 C261 1.479 . S
C259 H277 0.929 . S
C260 C257 1.424 . S
C260 C259 1.384 . S
C260 H278 0.928 . S
C261 C258 1.260 1_655 S
C261 C259 1.479 . S
C262 C257 1.245 1_455 S
C262 C258 1.477 . S
C262 H279 0.932 . S
C263 U246 2.882 . S
C263 C257 1.428 . S
C263 O266 1.301 1_655 S
C263 O267 1.282 . S
O264 U246 2.441 . S
O264 C250 1.249 . S
O265 U246 2.420 . S
O265 C250 1.202 . S
O266 U246 2.455 1_455 S
O266 C263 1.301 1_455 S
O267 U246 2.449 . S
O267 C263 1.282 . S
H268 C241 0.931 . S
H269 C243 0.929 . S
H270 C244 0.930 . S
H271 C245 0.931 . S
H272 C252 0.932 . S
H273 C253 0.930 . S
H274 C254 0.929 . S
H275 C256 0.930 . S
H276 C258 0.932 . S
H277 C259 0.929 . S
H278 C260 0.928 . S
H279 C262 0.932 . S
C280 C281 1.264 . S
C280 C285 1.479 . S
C280 C290 1.465 . S
C281 C280 1.264 . S
C281 C283 1.339 . S
C281 H308 0.931 . S
C282 C283 1.395 . S
C282 C284 1.320 . S
C283 C281 1.339 . S
C283 C282 1.395 . S
C283 H309 0.929 . S
C284 C282 1.320 . S
C284 C285 1.405 . S
C284 H310 0.930 . S
C285 C280 1.479 . S
C285 C284 1.405 . S
C285 H311 0.931 . S
U286 O287 2.454 . S
U286 O288 2.458 . S
U286 C289 2.984 . S
U286 C290 2.847 1_545 S
U286 C303 2.882 1_545 S
U286 O304 2.441 1_545 S
U286 O305 2.420 1_545 S
U286 O306 2.455 . S
U286 O307 2.449 1_545 S
O287 U286 2.454 . S
O287 C289 1.353 . S
O288 U286 2.458 . S
O288 C289 1.286 . S
C289 U286 2.984 . S
C289 O287 1.353 . S
C289 O288 1.286 . S
C289 C291 1.363 . S
C290 C280 1.465 . S
C290 U286 2.847 1_565 S
C290 O304 1.249 . S
C290 O305 1.202 . S
C291 C289 1.363 . S
C291 C293 1.408 . S
C291 C296 1.342 . S
C292 C293 1.310 . S
C292 C295 1.461 . S
C292 H312 0.932 . S
C293 C291 1.408 . S
C293 C292 1.310 . S
C293 H313 0.930 . S
C294 C295 1.474 . S
C294 C296 1.285 . S
C294 H314 0.929 . S
C295 C292 1.461 . S
C295 C294 1.474 . S
C296 C291 1.342 . S
C296 C294 1.285 . S
C296 H315 0.930 . S
C297 C300 1.454 . S
C297 C302 1.216 1_565 S
C297 C303 1.430 . S
C298 C301 1.260 1_545 S
C298 C302 1.477 . S
C298 H316 0.932 . S
C299 C300 1.384 . S
C299 C301 1.479 . S
C299 H317 0.929 . S
C300 C297 1.454 . S
C300 C299 1.384 . S
C300 H318 0.928 . S
C301 C298 1.260 1_565 S
C301 C299 1.479 . S
C302 C297 1.216 1_545 S
C302 C298 1.477 . S
C302 H319 0.932 . S
C303 U286 2.882 1_565 S
C303 C297 1.430 . S
C303 O306 1.301 1_565 S
C303 O307 1.282 . S
O304 U286 2.441 1_565 S
O304 C290 1.249 . S
O305 U286 2.420 1_565 S
O305 C290 1.202 . S
O306 U286 2.455 . S
O306 C303 1.301 1_545 S
O307 U286 2.449 1_565 S
O307 C303 1.282 . S
H308 C281 0.931 . S
H309 C283 0.929 . S
H310 C284 0.930 . S
H311 C285 0.931 . S
H312 C292 0.932 . S
H313 C293 0.930 . S
H314 C294 0.929 . S
H315 C296 0.930 . S
H316 C298 0.932 . S
H317 C299 0.929 . S
H318 C300 0.928 . S
H319 C302 0.932 . S
C320 C321 1.264 . S
C320 C325 1.479 . S
C320 C330 1.465 . S
C321 C320 1.264 . S
C321 C323 1.339 . S
C321 H348 0.931 . S
C322 C323 1.395 . S
C322 C324 1.320 . S
C323 C321 1.339 . S
C323 C322 1.395 . S
C323 H349 0.929 . S
C324 C322 1.320 . S
C324 C325 1.405 . S
C324 H350 0.930 . S
C325 C320 1.479 . S
C325 C324 1.405 . S
C325 H351 0.931 . S
U326 O327 2.454 . S
U326 O328 2.458 . S
U326 C329 2.984 . S
U326 C330 2.847 . S
U326 C343 2.882 . S
U326 O344 2.441 . S
U326 O345 2.420 . S
U326 O346 2.455 . S
U326 O347 2.449 . S
O327 U326 2.454 . S
O327 C329 1.353 . S
O328 U326 2.458 . S
O328 C329 1.286 . S
C329 U326 2.984 . S
C329 O327 1.353 . S
C329 O328 1.286 . S
C329 C331 1.363 . S
C330 C320 1.465 . S
C330 U326 2.847 . S
C330 O344 1.249 . S
C330 O345 1.202 . S
C331 C329 1.363 . S
C331 C333 1.408 . S
C331 C336 1.342 . S
C332 C333 1.310 . S
C332 C335 1.461 . S
C332 H352 0.932 . S
C333 C331 1.408 . S
C333 C332 1.310 . S
C333 H353 0.930 . S
C334 C335 1.474 . S
C334 C336 1.285 . S
C334 H354 0.929 . S
C335 C332 1.461 . S
C335 C334 1.474 . S
C336 C331 1.342 . S
C336 C334 1.285 . S
C336 H355 0.930 . S
C337 C340 1.424 . S
C337 C342 1.245 . S
C337 C343 1.428 . S
C338 C341 1.260 . S
C338 C342 1.477 . S
C338 H356 0.932 . S
C339 C340 1.384 . S
C339 C341 1.479 . S
C339 H357 0.929 . S
C340 C337 1.424 . S
C340 C339 1.384 . S
C340 H358 0.928 . S
C341 C338 1.260 . S
C341 C339 1.479 . S
C342 C337 1.245 . S
C342 C338 1.477 . S
C342 H359 0.932 . S
C343 U326 2.882 . S
C343 C337 1.428 . S
C343 O346 1.301 . S
C343 O347 1.282 . S
O344 U326 2.441 . S
O344 C330 1.249 . S
O345 U326 2.420 . S
O345 C330 1.202 . S
O346 U326 2.455 . S
O346 C343 1.301 . S
O347 U326 2.449 . S
O347 C343 1.282 . S
H348 C321 0.931 . S
H349 C323 0.929 . S
H350 C324 0.930 . S
H351 C325 0.931 . S
H352 C332 0.932 . S
H353 C333 0.930 . S
H354 C334 0.929 . S
H355 C336 0.930 . S
H356 C338 0.932 . S
H357 C339 0.929 . S
H358 C340 0.928 . S
H359 C342 0.932 . S
H360 C368 0.950 . S
H361 C373 0.950 . S
H362 C370 0.950 . S
H363 C372 0.950 . S
H364 C374 0.950 . S
H365 C376 0.950 . S
H366 C378 0.950 . S
H367 C379 0.950 . S
C368 H360 0.950 . S
C368 C369 1.386 . S
C368 C370 1.391 . S
C369 C368 1.386 . S
C369 C373 1.393 . S
C370 H362 0.950 . S
C370 C368 1.391 . S
C370 C371 1.400 . S
C371 C370 1.400 . S
C371 C372 1.398 . S
C371 C377 1.491 . S
C372 H363 0.950 . S
C372 C371 1.398 . S
C372 C373 1.391 . S
C373 H361 0.950 . S
C373 C369 1.393 . S
C373 C372 1.391 . S
C374 H364 0.950 . S
C374 C375 1.386 . S
C374 C376 1.391 . S
C375 C374 1.386 . S
C375 C379 1.393 . S
C376 H365 0.950 . S
C376 C374 1.391 . S
C376 C377 1.400 . S
C377 C371 1.491 . S
C377 C376 1.400 . S
C377 C378 1.398 . S
C378 H366 0.950 . S
C378 C377 1.398 . S
C378 C379 1.391 . S
C379 H367 0.950 . S
C379 C375 1.393 . S
C379 C378 1.391 . S
H380 C388 0.950 . S
H381 C393 0.950 . S
H382 C390 0.950 . S
H383 C392 0.950 . S
H384 C394 0.950 . S
H385 C396 0.950 . S
H386 C398 0.950 . S
H387 C399 0.950 . S
C388 H380 0.950 . S
C388 C389 1.386 . S
C388 C390 1.391 . S
C389 C388 1.386 . S
C389 C393 1.393 . S
C390 H382 0.950 . S
C390 C388 1.391 . S
C390 C391 1.400 . S
C391 C390 1.400 . S
C391 C392 1.398 . S
C391 C397 1.491 . S
C392 H383 0.950 . S
C392 C391 1.398 . S
C392 C393 1.391 . S
C393 H381 0.950 . S
C393 C389 1.393 . S
C393 C392 1.391 . S
C394 H384 0.950 . S
C394 C395 1.386 . S
C394 C396 1.391 . S
C395 C394 1.386 . S
C395 C399 1.393 . S
C396 H385 0.950 . S
C396 C394 1.391 . S
C396 C397 1.400 . S
C397 C391 1.491 . S
C397 C396 1.400 . S
C397 C398 1.398 . S
C398 H386 0.950 . S
C398 C397 1.398 . S
C398 C399 1.391 . S
C399 H387 0.950 . S
C399 C395 1.393 . S
C399 C398 1.391 . S
H400 C408 0.950 . S
H401 C413 0.950 . S
H402 C410 0.950 . S
H403 C412 0.950 . S
H404 C414 0.950 . S
H405 C416 0.950 . S
H406 C418 0.950 . S
H407 C419 0.950 . S
C408 H400 0.950 . S
C408 C409 1.386 . S
C408 C410 1.391 . S
C409 C408 1.386 . S
C409 C413 1.393 . S
C410 H402 0.950 . S
C410 C408 1.391 . S
C410 C411 1.400 . S
C411 C410 1.400 . S
C411 C412 1.398 . S
C411 C417 1.491 . S
C412 H403 0.950 . S
C412 C411 1.398 . S
C412 C413 1.391 . S
C413 H401 0.950 . S
C413 C409 1.393 . S
C413 C412 1.391 . S
C414 H404 0.950 . S
C414 C415 1.386 . S
C414 C416 1.391 . S
C415 C414 1.386 . S
C415 C419 1.393 . S
C416 H405 0.950 . S
C416 C414 1.391 . S
C416 C417 1.400 . S
C417 C411 1.491 . S
C417 C416 1.400 . S
C417 C418 1.398 . S
C418 H406 0.950 . S
C418 C417 1.398 . S
C418 C419 1.391 . S
C419 H407 0.950 . S
C419 C415 1.393 . S
C419 C418 1.391 . S
H420 C428 0.950 . S
H421 C433 0.950 . S
H422 C430 0.950 . S
H423 C432 0.950 . S
H424 C434 0.950 . S
H425 C436 0.950 . S
H426 C438 0.950 . S
H427 C439 0.950 . S
C428 H420 0.950 . S
C428 C429 1.386 . S
C428 C430 1.391 . S
C429 C428 1.386 . S
C429 C433 1.393 . S
C430 H422 0.950 . S
C430 C428 1.391 . S
C430 C431 1.400 . S
C431 C430 1.400 . S
C431 C432 1.398 . S
C431 C437 1.491 . S
C432 H423 0.950 . S
C432 C431 1.398 . S
C432 C433 1.391 . S
C433 H421 0.950 . S
C433 C429 1.393 . S
C433 C432 1.391 . S
C434 H424 0.950 . S
C434 C435 1.386 . S
C434 C436 1.391 . S
C435 C434 1.386 . S
C435 C439 1.393 . S
C436 H425 0.950 . S
C436 C434 1.391 . S
C436 C437 1.400 . S
C437 C431 1.491 . S
C437 C436 1.400 . S
C437 C438 1.398 . S
C438 H426 0.950 . S
C438 C437 1.398 . S
C438 C439 1.391 . S
C439 H427 0.950 . S
C439 C435 1.393 . S
C439 C438 1.391 . S
H440 C448 0.950 . S
H441 C453 0.950 . S
H442 C450 0.950 . S
H443 C452 0.950 . S
H444 C454 0.950 . S
H445 C456 0.950 . S
H446 C458 0.950 . S
H447 C459 0.950 . S
C448 H440 0.950 . S
C448 C449 1.386 . S
C448 C450 1.391 . S
C449 C448 1.386 . S
C449 C453 1.393 . S
C450 H442 0.950 . S
C450 C448 1.391 . S
C450 C451 1.400 . S
C451 C450 1.400 . S
C451 C452 1.398 . S
C451 C457 1.491 . S
C452 H443 0.950 . S
C452 C451 1.398 . S
C452 C453 1.391 . S
C453 H441 0.950 . S
C453 C449 1.393 . S
C453 C452 1.391 . S
C454 H444 0.950 . S
C454 C455 1.386 . S
C454 C456 1.391 . S
C455 C454 1.386 . S
C455 C459 1.393 . S
C456 H445 0.950 . S
C456 C454 1.391 . S
C456 C457 1.400 . S
C457 C451 1.491 . S
C457 C456 1.400 . S
C457 C458 1.398 . S
C458 H446 0.950 . S
C458 C457 1.398 . S
C458 C459 1.391 . S
C459 H447 0.950 . S
C459 C455 1.393 . S
C459 C458 1.391 . S
H460 C468 0.950 . S
H461 C473 0.950 . S
H462 C470 0.950 . S
H463 C472 0.950 . S
H464 C474 0.950 . S
H465 C476 0.950 . S
H466 C478 0.950 . S
H467 C479 0.950 . S
C468 H460 0.950 . S
C468 C469 1.386 . S
C468 C470 1.391 . S
C469 C468 1.386 . S
C469 C473 1.393 . S
C470 H462 0.950 . S
C470 C468 1.391 . S
C470 C471 1.400 . S
C471 C470 1.400 . S
C471 C472 1.398 . S
C471 C477 1.491 . S
C472 H463 0.950 . S
C472 C471 1.398 . S
C472 C473 1.391 . S
C473 H461 0.950 . S
C473 C469 1.393 . S
C473 C472 1.391 . S
C474 H464 0.950 . S
C474 C475 1.386 . S
C474 C476 1.391 . S
C475 C474 1.386 . S
C475 C479 1.393 . S
C476 H465 0.950 . S
C476 C474 1.391 . S
C476 C477 1.400 . S
C477 C471 1.491 . S
C477 C476 1.400 . S
C477 C478 1.398 . S
C478 H466 0.950 . S
C478 C477 1.398 . S
C478 C479 1.391 . S
C479 H467 0.950 . S
C479 C475 1.393 . S
C479 C478 1.391 . S
H480 C488 0.950 . S
H481 C493 0.950 . S
H482 C490 0.950 . S
H483 C492 0.950 . S
H484 C494 0.950 . S
H485 C496 0.950 . S
H486 C498 0.950 . S
H487 C499 0.950 . S
C488 H480 0.950 . S
C488 C489 1.386 . S
C488 C490 1.391 . S
C489 C488 1.386 . S
C489 C493 1.393 . S
C490 H482 0.950 . S
C490 C488 1.391 . S
C490 C491 1.400 . S
C491 C490 1.400 . S
C491 C492 1.398 . S
C491 C497 1.491 . S
C492 H483 0.950 . S
C492 C491 1.398 . S
C492 C493 1.391 . S
C493 H481 0.950 . S
C493 C489 1.393 . S
C493 C492 1.391 . S
C494 H484 0.950 . S
C494 C495 1.386 . S
C494 C496 1.391 . S
C495 C494 1.386 . S
C495 C499 1.393 . S
C496 H485 0.950 . S
C496 C494 1.391 . S
C496 C497 1.400 . S
C497 C491 1.491 . S
C497 C496 1.400 . S
C497 C498 1.398 . S
C498 H486 0.950 . S
C498 C497 1.398 . S
C498 C499 1.391 . S
C499 H487 0.950 . S
C499 C495 1.393 . S
C499 C498 1.391 . S
H500 C508 0.950 . S
H501 C513 0.950 . S
H502 C510 0.950 . S
H503 C512 0.950 . S
H504 C514 0.950 . S
H505 C516 0.950 . S
H506 C518 0.950 . S
H507 C519 0.950 . S
C508 H500 0.950 . S
C508 C509 1.386 . S
C508 C510 1.391 . S
C509 C508 1.386 . S
C509 C513 1.393 . S
C510 H502 0.950 . S
C510 C508 1.391 . S
C510 C511 1.400 . S
C511 C510 1.400 . S
C511 C512 1.398 . S
C511 C517 1.491 . S
C512 H503 0.950 . S
C512 C511 1.398 . S
C512 C513 1.391 . S
C513 H501 0.950 . S
C513 C509 1.393 . S
C513 C512 1.391 . S
C514 H504 0.950 . S
C514 C515 1.386 . S
C514 C516 1.391 . S
C515 C514 1.386 . S
C515 C519 1.393 . S
C516 H505 0.950 . S
C516 C514 1.391 . S
C516 C517 1.400 . S
C517 C511 1.491 . S
C517 C516 1.400 . S
C517 C518 1.398 . S
C518 H506 0.950 . S
C518 C517 1.398 . S
C518 C519 1.391 . S
C519 H507 0.950 . S
C519 C515 1.393 . S
C519 C518 1.391 . S
H520 C528 0.950 . S
H521 C533 0.950 . S
H522 C530 0.950 . S
H523 C532 0.950 . S
H524 C534 0.950 . S
H525 C536 0.950 . S
H526 C538 0.950 . S
H527 C539 0.950 . S
C528 H520 0.950 . S
C528 C529 1.386 . S
C528 C530 1.391 . S
C529 C528 1.386 . S
C529 C533 1.393 . S
C530 H522 0.950 . S
C530 C528 1.391 . S
C530 C531 1.400 . S
C531 C530 1.400 . S
C531 C532 1.398 . S
C531 C537 1.491 . S
C532 H523 0.950 . S
C532 C531 1.398 . S
C532 C533 1.391 . S
C533 H521 0.950 . S
C533 C529 1.393 . S
C533 C532 1.391 . S
C534 H524 0.950 . S
C534 C535 1.386 . S
C534 C536 1.391 . S
C535 C534 1.386 . S
C535 C539 1.393 . S
C536 H525 0.950 . S
C536 C534 1.391 . S
C536 C537 1.400 . S
C537 C531 1.491 . S
C537 C536 1.400 . S
C537 C538 1.398 . S
C538 H526 0.950 . S
C538 C537 1.398 . S
C538 C539 1.391 . S
C539 H527 0.950 . S
C539 C535 1.393 . S
C539 C538 1.391 . S
H540 C548 0.950 . S
H541 C553 0.950 . S
H542 C550 0.950 . S
H543 C552 0.950 . S
H544 C554 0.950 . S
H545 C556 0.950 . S
H546 C558 0.950 . S
H547 C559 0.950 . S
C548 H540 0.950 . S
C548 C549 1.386 . S
C548 C550 1.391 . S
C549 C548 1.386 . S
C549 C553 1.393 . S
C550 H542 0.950 . S
C550 C548 1.391 . S
C550 C551 1.400 . S
C551 C550 1.400 . S
C551 C552 1.398 . S
C551 C557 1.491 . S
C552 H543 0.950 . S
C552 C551 1.398 . S
C552 C553 1.391 . S
C553 H541 0.950 . S
C553 C549 1.393 . S
C553 C552 1.391 . S
C554 H544 0.950 . S
C554 C555 1.386 . S
C554 C556 1.391 . S
C555 C554 1.386 . S
C555 C559 1.393 . S
C556 H545 0.950 . S
C556 C554 1.391 . S
C556 C557 1.400 . S
C557 C551 1.491 . S
C557 C556 1.400 . S
C557 C558 1.398 . S
C558 H546 0.950 . S
C558 C557 1.398 . S
C558 C559 1.391 . S
C559 H547 0.950 . S
C559 C555 1.393 . S
C559 C558 1.391 . S
H560 C568 0.950 . S
H561 C573 0.950 . S
H562 C570 0.950 . S
H563 C572 0.950 . S
H564 C574 0.950 . S
H565 C576 0.950 . S
H566 C578 0.950 . S
H567 C579 0.950 . S
C568 H560 0.950 . S
C568 C569 1.386 . S
C568 C570 1.391 . S
C569 C568 1.386 . S
C569 C573 1.393 . S
C570 H562 0.950 . S
C570 C568 1.391 . S
C570 C571 1.400 . S
C571 C570 1.400 . S
C571 C572 1.398 . S
C571 C577 1.491 . S
C572 H563 0.950 . S
C572 C571 1.398 . S
C572 C573 1.391 . S
C573 H561 0.950 . S
C573 C569 1.393 . S
C573 C572 1.391 . S
C574 H564 0.950 . S
C574 C575 1.386 . S
C574 C576 1.391 . S
C575 C574 1.386 . S
C575 C579 1.393 . S
C576 H565 0.950 . S
C576 C574 1.391 . S
C576 C577 1.400 . S
C577 C571 1.491 . S
C577 C576 1.400 . S
C577 C578 1.398 . S
C578 H566 0.950 . S
C578 C577 1.398 . S
C578 C579 1.391 . S
C579 H567 0.950 . S
C579 C575 1.393 . S
C579 C578 1.391 . S
H580 C588 0.950 . S
H581 C593 0.950 . S
H582 C590 0.950 . S
H583 C592 0.950 . S
H584 C594 0.950 . S
H585 C596 0.950 . S
H586 C598 0.950 . S
H587 C599 0.950 . S
C588 H580 0.950 . S
C588 C589 1.386 . S
C588 C590 1.391 . S
C589 C588 1.386 . S
C589 C593 1.393 . S
C590 H582 0.950 . S
C590 C588 1.391 . S
C590 C591 1.400 . S
C591 C590 1.400 . S
C591 C592 1.398 . S
C591 C597 1.491 . S
C592 H583 0.950 . S
C592 C591 1.398 . S
C592 C593 1.391 . S
C593 H581 0.950 . S
C593 C589 1.393 . S
C593 C592 1.391 . S
C594 H584 0.950 . S
C594 C595 1.386 . S
C594 C596 1.391 . S
C595 C594 1.386 . S
C595 C599 1.393 . S
C596 H585 0.950 . S
C596 C594 1.391 . S
C596 C597 1.400 . S
C597 C591 1.491 . S
C597 C596 1.400 . S
C597 C598 1.398 . S
C598 H586 0.950 . S
C598 C597 1.398 . S
C598 C599 1.391 . S
C599 H587 0.950 . S
C599 C595 1.393 . S
C599 C598 1.391 . S
H600 C608 0.950 . S
H601 C613 0.950 . S
H602 C610 0.950 . S
H603 C612 0.950 . S
H604 C614 0.950 1_655 S
H605 C616 0.950 1_655 S
H606 C618 0.950 . S
H607 C619 0.950 . S
C608 H600 0.950 . S
C608 C609 1.386 . S
C608 C610 1.391 . S
C609 C608 1.386 . S
C609 C613 1.393 1_455 S
C610 H602 0.950 . S
C610 C608 1.391 . S
C610 C611 1.400 . S
C611 C610 1.400 . S
C611 C612 1.398 1_455 S
C611 C617 1.491 . S
C612 H603 0.950 . S
C612 C611 1.398 1_655 S
C612 C613 1.391 . S
C613 H601 0.950 . S
C613 C609 1.393 1_655 S
C613 C612 1.391 . S
C614 H604 0.950 1_455 S
C614 C615 1.386 . S
C614 C616 1.391 . S
C615 C614 1.386 . S
C615 C619 1.393 . S
C616 H605 0.950 1_455 S
C616 C614 1.391 . S
C616 C617 1.400 . S
C617 C611 1.491 . S
C617 C616 1.400 . S
C617 C618 1.398 . S
C618 H606 0.950 . S
C618 C617 1.398 . S
C618 C619 1.391 . S
C619 H607 0.950 . S
C619 C615 1.393 . S
C619 C618 1.391 . S
H620 C628 0.950 1_565 S
H621 C633 0.950 . S
H622 C630 0.950 1_565 S
H623 C632 0.950 . S
H624 C634 0.950 . S
H625 C636 0.950 . S
H626 C638 0.950 1_565 S
H627 C639 0.950 1_565 S
C628 H620 0.950 1_545 S
C628 C629 1.386 . S
C628 C630 1.391 . S
C629 C628 1.386 . S
C629 C633 1.393 . S
C630 H622 0.950 1_545 S
C630 C628 1.391 . S
C630 C631 1.400 . S
C631 C630 1.400 . S
C631 C632 1.398 . S
C631 C637 1.491 . S
C632 H623 0.950 . S
C632 C631 1.398 . S
C632 C633 1.391 . S
C633 H621 0.950 . S
C633 C629 1.393 . S
C633 C632 1.391 . S
C634 H624 0.950 . S
C634 C635 1.386 . S
C634 C636 1.391 . S
C635 C634 1.386 . S
C635 C639 1.393 . S
C636 H625 0.950 . S
C636 C634 1.391 . S
C636 C637 1.400 . S
C637 C631 1.491 . S
C637 C636 1.400 . S
C637 C638 1.398 . S
C638 H626 0.950 1_545 S
C638 C637 1.398 . S
C638 C639 1.391 . S
C639 H627 0.950 1_545 S
C639 C635 1.393 . S
C639 C638 1.391 . S
H640 C648 0.950 . S
H641 C653 0.950 . S
H642 C650 0.950 . S
H643 C652 0.950 . S
H644 C654 0.950 . S
H645 C656 0.950 . S
H646 C658 0.950 . S
H647 C659 0.950 . S
C648 H640 0.950 . S
C648 C649 1.386 . S
C648 C650 1.391 . S
C649 C648 1.386 . S
C649 C653 1.393 . S
C650 H642 0.950 . S
C650 C648 1.391 . S
C650 C651 1.400 . S
C651 C650 1.400 . S
C651 C652 1.398 . S
C651 C657 1.491 . S
C652 H643 0.950 . S
C652 C651 1.398 . S
C652 C653 1.391 . S
C653 H641 0.950 . S
C653 C649 1.393 . S
C653 C652 1.391 . S
C654 H644 0.950 . S
C654 C655 1.386 . S
C654 C656 1.391 . S
C655 C654 1.386 . S
C655 C659 1.393 . S
C656 H645 0.950 . S
C656 C654 1.391 . S
C656 C657 1.400 . S
C657 C651 1.491 . S
C657 C656 1.400 . S
C657 C658 1.398 . S
C658 H646 0.950 . S
C658 C657 1.398 . S
C658 C659 1.391 . S
C659 H647 0.950 . S
C659 C655 1.393 . S
C659 C658 1.391 . S
H660 C668 0.950 . S
H661 C673 0.950 . S
H662 C670 0.950 . S
H663 C672 0.950 1_565 S
H664 C674 0.950 . S
H665 C676 0.954 . S
H666 C678 0.950 . S
H667 C679 0.950 . S
C668 H660 0.950 . S
C668 C669 1.386 . S
C668 C670 1.391 . S
C669 C668 1.386 . S
C669 C673 1.393 . S
C670 H662 0.950 . S
C670 C668 1.391 . S
C670 C671 1.400 . S
C671 C670 1.400 . S
C671 C672 1.398 . S
C671 C677 1.491 . S
C672 H663 0.950 1_545 S
C672 C671 1.398 . S
C672 C673 1.391 . S
C673 H661 0.950 . S
C673 C669 1.393 . S
C673 C672 1.391 . S
C674 H664 0.950 . S
C674 C675 1.386 1_565 S
C674 C676 1.393 . S
C675 C674 1.386 1_545 S
C675 C679 1.393 . S
C676 H665 0.954 . S
C676 C674 1.393 . S
C676 C677 1.395 1_565 S
C677 C671 1.491 . S
C677 C676 1.395 1_545 S
C677 C678 1.398 . S
C678 H666 0.950 . S
C678 C677 1.398 . S
C678 C679 1.391 . S
C679 H667 0.950 . S
C679 C675 1.393 . S
C679 C678 1.391 . S
H680 C688 0.950 . S
H681 C693 0.950 . S
H682 C690 0.950 . S
H683 C692 0.950 . S
H684 C694 0.950 . S
H685 C696 0.950 . S
H686 C698 0.950 . S
H687 C699 0.950 . S
C688 H680 0.950 . S
C688 C689 1.386 . S
C688 C690 1.391 . S
C689 C688 1.386 . S
C689 C693 1.393 . S
C690 H682 0.950 . S
C690 C688 1.391 . S
C690 C691 1.400 . S
C691 C690 1.400 . S
C691 C692 1.398 . S
C691 C697 1.491 . S
C692 H683 0.950 . S
C692 C691 1.398 . S
C692 C693 1.391 . S
C693 H681 0.950 . S
C693 C689 1.393 . S
C693 C692 1.391 . S
C694 H684 0.950 . S
C694 C695 1.386 . S
C694 C696 1.391 . S
C695 C694 1.386 . S
C695 C699 1.393 . S
C696 H685 0.950 . S
C696 C694 1.391 . S
C696 C697 1.400 . S
C697 C691 1.491 . S
C697 C696 1.400 . S
C697 C698 1.398 . S
C698 H686 0.950 . S
C698 C697 1.398 . S
C698 C699 1.391 . S
C699 H687 0.950 . S
C699 C695 1.393 . S
C699 C698 1.391 . S
H700 C708 0.950 . S
H701 C713 0.950 . S
H702 C710 0.950 . S
H703 C712 0.950 . S
H704 C714 0.950 . S
H705 C716 0.950 . S
H706 C718 0.950 . S
H707 C719 0.950 . S
C708 H700 0.950 . S
C708 C709 1.386 1_655 S
C708 C710 1.391 . S
C709 C708 1.386 1_455 S
C709 C713 1.393 . S
C710 H702 0.950 . S
C710 C708 1.391 . S
C710 C711 1.400 1_655 S
C711 C710 1.400 1_455 S
C711 C712 1.398 . S
C711 C717 1.491 . S
C712 H703 0.950 . S
C712 C711 1.398 . S
C712 C713 1.391 . S
C713 H701 0.950 . S
C713 C709 1.393 . S
C713 C712 1.391 . S
C714 H704 0.950 . S
C714 C715 1.364 1_455 S
C714 C716 1.391 . S
C715 C714 1.364 1_655 S
C715 C719 1.413 . S
C716 H705 0.950 . S
C716 C714 1.391 . S
C716 C717 1.400 . S
C717 C711 1.491 . S
C717 C716 1.400 . S
C717 C718 1.398 1_455 S
C718 H706 0.950 . S
C718 C717 1.398 1_655 S
C718 C719 1.391 . S
C719 H707 0.950 . S
C719 C715 1.413 . S
C719 C718 1.391 . S
C369 C10 3.195 . S
C375 C335 3.139 . S
C389 C55 1.196 . S
C395 C242 1.185 . S
C409 C90 1.947 . S
C415 C282 1.925 . S
C429 C19 3.042 . S
C435 C322 3.024 . S
C455 C255 1.336 . S
C449 C46 1.334 . S
C475 C295 2.114 . S
C469 C99 2.179 . S
C489 C50 1.954 . S
C495 C162 1.927 . S
C509 C95 0.607 . S
C515 C202 0.598 . S
C529 C6 1.358 . S
C535 C135 1.340 . S
C555 C175 2.092 . S
C549 C59 2.146 . S
C575 C215 0.295 . S
C569 C86 0.406 . S
C589 C15 1.239 . S
C595 C122 1.237 . S
C615 C221 1.125 1_554 S
C609 C18 1.100 . S
C629 C49 1.457 . S
C635 C141 1.504 . S
C649 C98 1.349 . S
C655 C181 1.379 . S
C675 C301 1.387 1_545 S
C669 C58 1.356 . S
C695 C341 1.765 1_556 S
C689 C89 1.688 . S
C709 C9 1.474 . S
C715 C261 1.510 . S
