# Generated by pormake.
# Topology zzz, (3,6)-cn, num edge types: 1
# Building blocks:
#     Node 0, Type 0, BuildingBlock: OLANEW_clean_sbu_2, # of connection points: 3
#     Node 1, Type 0, BuildingBlock: OLANEW_clean_sbu_2, # of connection points: 3
#     Node 2, Type 0, BuildingBlock: OLANEW_clean_sbu_2, # of connection points: 3
#     Node 3, Type 0, BuildingBlock: OLANEW_clean_sbu_2, # of connection points: 3
#     Node 4, Type 0, BuildingBlock: OLANEW_clean_sbu_2, # of connection points: 3
#     Node 5, Type 0, BuildingBlock: OLANEW_clean_sbu_2, # of connection points: 3
#     Node 6, Type 0, BuildingBlock: OLANEW_clean_sbu_2, # of connection points: 3
#     Node 7, Type 0, BuildingBlock: OLANEW_clean_sbu_2, # of connection points: 3
#     Node 8, Type 1, BuildingBlock: HISSIN_clean_sbu_0, # of connection points: 6
#     Node 9, Type 1, BuildingBlock: HISSIN_clean_sbu_0, # of connection points: 6
#     Node 10, Type 1, BuildingBlock: HISSIN_clean_sbu_0, # of connection points: 6
#     Node 11, Type 1, BuildingBlock: HISSIN_clean_sbu_0, # of connection points: 6
#     Edge 12, Type (0, 1), BuildingBlock: CIFDUS_clean_linker_0, # of connection points: 2
#     Edge 13, Type (0, 1), BuildingBlock: CIFDUS_clean_linker_0, # of connection points: 2
#     Edge 14, Type (0, 1), BuildingBlock: CIFDUS_clean_linker_0, # of connection points: 2
#     Edge 15, Type (0, 1), BuildingBlock: CIFDUS_clean_linker_0, # of connection points: 2
#     Edge 16, Type (0, 1), BuildingBlock: CIFDUS_clean_linker_0, # of connection points: 2
#     Edge 17, Type (0, 1), BuildingBlock: CIFDUS_clean_linker_0, # of connection points: 2
#     Edge 18, Type (0, 1), BuildingBlock: CIFDUS_clean_linker_0, # of connection points: 2
#     Edge 19, Type (0, 1), BuildingBlock: CIFDUS_clean_linker_0, # of connection points: 2
#     Edge 20, Type (0, 1), BuildingBlock: CIFDUS_clean_linker_0, # of connection points: 2
#     Edge 21, Type (0, 1), BuildingBlock: CIFDUS_clean_linker_0, # of connection points: 2
#     Edge 22, Type (0, 1), BuildingBlock: CIFDUS_clean_linker_0, # of connection points: 2
#     Edge 23, Type (0, 1), BuildingBlock: CIFDUS_clean_linker_0, # of connection points: 2
#     Edge 24, Type (0, 1), BuildingBlock: CIFDUS_clean_linker_0, # of connection points: 2
#     Edge 25, Type (0, 1), BuildingBlock: CIFDUS_clean_linker_0, # of connection points: 2
#     Edge 26, Type (0, 1), BuildingBlock: CIFDUS_clean_linker_0, # of connection points: 2
#     Edge 27, Type (0, 1), BuildingBlock: CIFDUS_clean_linker_0, # of connection points: 2
#     Edge 28, Type (0, 1), BuildingBlock: CIFDUS_clean_linker_0, # of connection points: 2
#     Edge 29, Type (0, 1), BuildingBlock: CIFDUS_clean_linker_0, # of connection points: 2
#     Edge 30, Type (0, 1), BuildingBlock: CIFDUS_clean_linker_0, # of connection points: 2
#     Edge 31, Type (0, 1), BuildingBlock: CIFDUS_clean_linker_0, # of connection points: 2
#     Edge 32, Type (0, 1), BuildingBlock: CIFDUS_clean_linker_0, # of connection points: 2
#     Edge 33, Type (0, 1), BuildingBlock: CIFDUS_clean_linker_0, # of connection points: 2
#     Edge 34, Type (0, 1), BuildingBlock: CIFDUS_clean_linker_0, # of connection points: 2
#     Edge 35, Type (0, 1), BuildingBlock: CIFDUS_clean_linker_0, # of connection points: 2
# Relax obj value: 0.245
# Max RMSD: 0.194
# Mean RMSD: 0.099
data_MOF--net-zzz--node1-OLANEW_clean_sbu_2--node2-HISSIN_clean_sbu_0--edge1-CIFDUS_clean_linker_0
_symmetry_space_group_name_H-M    P1
_symmetry_Int_Tables_number       1
_symmetry_cell_setting            triclinic
loop_
_symmetry_equiv_pos_as_xyz
'x, y, z'
_cell_length_a     47.914166
_cell_length_b     47.678435
_cell_length_c     16.435844
_cell_angle_alpha  89.363507
_cell_angle_beta   93.940132
_cell_angle_gamma 90.736524
loop_
_atom_site_label
_atom_site_type_symbol
_atom_site_fract_x
_atom_site_fract_y
_atom_site_fract_z
_atom_type_partial_charge
O0 O 0.75933 0.59694 -3e-05 0.0
Cd1 Cd 0.7221 0.62989 0.02053 0.0
O2 O 0.7629 0.58833 0.13133 0.0
Cd3 Cd 0.7844 0.5709 0.24092 0.0
O4 O 0.8186 0.55789 0.32569 0.0
C5 C 0.84105 0.57232 0.32518 0.0
O6 O 0.84194 0.59414 0.27582 0.0
C7 C 0.77075 0.58361 0.06045 0.0
C8 C 0.67175 0.6059 0.96082 0.0
O9 O 0.68702 0.62032 0.91437 0.0
O10 O 0.67998 0.60339 0.03638 0.0
O11 O 0.95437 0.73218 0.12634 0.0
Cd12 Cd 0.93913 0.68832 0.18761 0.0
O13 O 0.98213 0.73671 0.23689 0.0
Cd14 Cd 0.0098 0.76135 0.31982 0.0
O15 O 0.02237 0.7962 0.39867 0.0
C16 C 0.00401 0.81493 0.40431 0.0
O17 O 0.97972 0.81193 0.36287 0.0
C18 C 0.97319 0.74602 0.16724 0.0
C19 C 0.94934 0.64405 0.08579 0.0
O20 O 0.92496 0.65485 0.08511 0.0
O21 O 0.9687 0.65391 0.13545 0.0
O22 O 0.77939 0.94419 0.18277 0.0
Cd23 Cd 0.82549 0.93529 0.24848 0.0
O24 O 0.76539 0.95008 0.30511 0.0
Cd25 Cd 0.73471 0.95788 0.39367 0.0
O26 O 0.70206 0.96777 0.47361 0.0
C27 C 0.67853 0.95521 0.465 0.0
O28 O 0.67451 0.93616 0.40808 0.0
C29 C 0.76009 0.95045 0.22822 0.0
C30 C 0.86565 0.95574 0.14839 0.0
O31 O 0.85808 0.92986 0.14675 0.0
O32 O 0.85454 0.97191 0.19854 0.0
O33 O 0.47409 0.7748 0.21533 0.0
Cd34 Cd 0.47484 0.81792 0.29355 0.0
O35 O 0.50132 0.75101 0.30389 0.0
Cd36 Cd 0.4984 0.77834 0.40838 0.0
O37 O 0.49345 0.74498 0.49881 0.0
C38 C 0.47639 0.72576 0.47399 0.0
O39 O 0.46112 0.72977 0.40545 0.0
C40 C 0.48775 0.75282 0.23497 0.0
C41 C 0.4836 0.86219 0.18571 0.0
O42 O 0.50414 0.85107 0.22795 0.0
O43 O 0.45888 0.85288 0.19621 0.0
O44 O 0.26781 0.51489 0.07076 0.0
Cd45 Cd 0.31366 0.50748 0.02081 0.0
O46 O 0.26902 0.47182 0.1198 0.0
Cd47 Cd 0.24534 0.43707 0.17051 0.0
O48 O 0.20167 0.43021 0.12947 0.0
C49 C 0.19799 0.43375 0.0528 0.0
O50 O 0.22003 0.43842 0.01099 0.0
C51 C 0.25678 0.49531 0.11106 0.0
C52 C 0.34887 0.4947 0.15689 0.0
O53 O 0.34276 0.52011 0.13774 0.0
O54 O 0.33913 0.47509 0.10997 0.0
O55 O 0.0242 0.25822 0.12311 0.0
Cd56 Cd 0.04998 0.30111 0.09379 0.0
O57 O 0.06241 0.23507 0.10827 0.0
Cd58 Cd 0.09527 0.2034 0.10777 0.0
O59 O 0.13823 0.18501 0.09261 0.0
C60 C 0.14207 0.16505 0.04346 0.0
O61 O 0.13937 0.18543 0.09451 0.0
C62 C 0.03704 0.23504 0.12704 0.0
C63 C 0.03923 0.34163 0.20834 0.0
O64 O 0.02619 0.3416 0.13758 0.0
O65 O 0.05761 0.32274 0.22466 0.0
O66 O 0.22443 0.10738 0.22415 0.0
Cd67 Cd 0.17937 0.13007 0.19751 0.0
O68 O 0.24611 0.13527 0.14141 0.0
Cd69 Cd 0.28308 0.14689 0.07782 0.0
O70 O 0.32388 0.13911 0.03305 0.0
C71 C 0.3249 0.12943 0.9617 0.0
O72 O 0.30149 0.1262 0.91607 0.0
C73 C 0.2468 0.11507 0.19275 0.0
C74 C 0.14226 0.10231 0.29426 0.0
O75 O 0.14273 0.09655 0.21838 0.0
O76 O 0.15852 0.12183 0.32328 0.0
O77 O 0.58755 0.2367 0.17738 0.0
Cd78 Cd 0.5924 0.18704 0.14905 0.0
O79 O 0.54543 0.23755 0.1156 0.0
Cd80 Cd 0.50997 0.26174 0.06407 0.0
O81 O 0.49368 0.29956 0.00362 0.0
C82 C 0.51069 0.31162 0.95821 0.0
O83 O 0.5352 0.3002 0.95098 0.0
C84 C 0.56554 0.2501 0.15527 0.0
C85 C 0.56316 0.15466 0.25735 0.0
O86 O 0.58776 0.1642 0.27738 0.0
O87 O 0.55235 0.16022 0.18557 0.0
Eu88 Eu 0.00065 0.02155 0.68356 0.0
Eu89 Eu 0.04785 0.98853 0.80083 0.0
C90 C 0.04186 0.05452 0.81128 0.0
C91 C 0.97584 0.06853 0.51558 0.0
C92 C 0.00408 0.07641 0.51309 0.0
C93 C 0.96518 0.09448 0.38974 0.0
C94 C 0.01284 0.09322 0.44968 0.0
C95 C 0.95642 0.0775 0.45347 0.0
C96 C 0.99352 0.1025 0.38725 0.0
C97 C 0.96765 0.04933 0.58023 0.0
O98 O 0.0054 0.97308 0.8321 0.0
O99 O 0.98062 0.01284 0.80154 0.0
C100 C 0.98374 0.98893 0.84124 0.0
O101 O 0.9918 0.97557 0.66402 0.0
O102 O 0.0634 0.97759 0.92478 0.0
O103 O 0.08302 0.96006 0.82222 0.0
O104 O 0.03644 0.96044 0.69418 0.0
C105 C 0.01127 0.95669 0.65893 0.0
O106 O 0.03859 0.01592 0.61218 0.0
O107 O 0.07283 0.0149 0.71633 0.0
O108 O 0.04344 0.03139 0.85513 0.0
O109 O 0.97454 0.02333 0.5698 0.0
O110 O 0.974 0.05764 0.65477 0.0
O111 O 0.03079 0.05436 0.7361 0.0
C112 C 0.07422 0.93005 0.93299 0.0
C113 C 0.05563 0.91192 0.88885 0.0
C114 C 0.07515 0.89745 0.04776 0.0
C115 C 0.04669 0.88691 0.92404 0.0
C116 C 0.08418 0.92251 0.01228 0.0
C117 C 0.05587 0.87962 0.00451 0.0
C118 C 0.07985 0.95826 0.90045 0.0
C119 C 0.06469 0.02001 0.63958 0.0
H120 H 0.01943 0.06944 0.56024 0.0
H121 H 0.94987 0.10115 0.34216 0.0
H122 H 0.0347 0.09936 0.4505 0.0
H123 H 0.93462 0.07121 0.45393 0.0
H124 H 0.0473 0.91751 0.82794 0.0
H125 H 0.08242 0.89258 0.1101 0.0
H126 H 0.03222 0.87347 0.88851 0.0
H127 H 0.09813 0.93648 0.04776 0.0
Eu128 Eu 0.51434 0.03541 0.7971 0.0
Eu129 Eu 0.47299 0.00548 0.65209 0.0
C130 C 0.48615 0.97634 0.82675 0.0
C131 C 0.57075 0.04355 0.96737 0.0
C132 C 0.57496 0.01448 0.97017 0.0
C133 C 0.61253 0.05019 0.05744 0.0
C134 C 0.59784 0.00332 0.01622 0.0
C135 C 0.58954 0.06132 0.01152 0.0
C136 C 0.61706 0.02105 0.05986 0.0
C137 C 0.5473 0.05537 0.91646 0.0
O138 O 0.45087 0.04401 0.68858 0.0
O139 O 0.47001 0.04683 0.81957 0.0
C140 C 0.45007 0.05283 0.76353 0.0
O141 O 0.50842 0.06875 0.70011 0.0
O142 O 0.43331 0.98467 0.61682 0.0
O143 O 0.46339 0.99198 0.52648 0.0
O144 O 0.49675 0.04002 0.59119 0.0
C145 C 0.50591 0.06413 0.62127 0.0
O146 O 0.54234 0.01465 0.71207 0.0
O147 O 0.51269 0.98068 0.65608 0.0
O148 O 0.46631 0.98304 0.77117 0.0
O149 O 0.55169 0.05918 0.83967 0.0
O150 O 0.52279 0.04412 0.92639 0.0
O151 O 0.51 0.99008 0.83171 0.0
C152 C 0.41573 0.99722 0.48525 0.0
C153 C 0.40941 0.02564 0.49341 0.0
C154 C 0.37797 0.99292 0.37966 0.0
C155 C 0.38725 0.03753 0.44605 0.0
C156 C 0.40012 0.98098 0.42761 0.0
C157 C 0.37106 0.02129 0.389 0.0
C158 C 0.43779 0.98448 0.53949 0.0
C159 C 0.53792 0.9914 0.67061 0.0
H160 H 0.56065 0.00043 0.93621 0.0
H161 H 0.62713 0.06446 0.08936 0.0
H162 H 0.60048 0.98079 0.01759 0.0
H163 H 0.58666 0.08383 0.00959 0.0
H164 H 0.42127 0.03849 0.53774 0.0
H165 H 0.36616 0.9799 0.33568 0.0
H166 H 0.3823 0.05926 0.45608 0.0
H167 H 0.4048 0.95901 0.42046 0.0
Eu168 Eu 0.47752 0.5181 0.73061 0.0
Eu169 Eu 0.50854 0.50048 0.56579 0.0
C170 C 0.54261 0.5325 0.71077 0.0
C171 C 0.4599 0.55778 0.91535 0.0
C172 C 0.47646 0.58021 0.88953 0.0
C173 C 0.45401 0.58196 0.04198 0.0
C174 C 0.48153 0.60351 0.93919 0.0
C175 C 0.44879 0.55868 0.99188 0.0
C176 C 0.4703 0.60468 0.01583 0.0
C177 C 0.45474 0.53339 0.86263 0.0
O178 O 0.51763 0.46695 0.66116 0.0
O179 O 0.478 0.47095 0.72958 0.0
C180 C 0.49965 0.45648 0.71042 0.0
O181 O 0.44444 0.5139 0.62719 0.0
O182 O 0.54454 0.48446 0.50732 0.0
O183 O 0.5068 0.49509 0.43395 0.0
O184 O 0.46603 0.48009 0.55917 0.0
C185 C 0.44369 0.49463 0.57072 0.0
O186 O 0.48789 0.55903 0.66974 0.0
O187 O 0.48911 0.54279 0.53896 0.0
O188 O 0.53847 0.53046 0.63131 0.0
O189 O 0.44411 0.53894 0.78912 0.0
O190 O 0.47522 0.51564 0.8627 0.0
O191 O 0.52402 0.5232 0.76008 0.0
C192 C 0.53243 0.45588 0.39263 0.0
C193 C 0.50988 0.44622 0.34062 0.0
C194 C 0.55741 0.41308 0.3671 0.0
C195 C 0.51097 0.42012 0.30309 0.0
C196 C 0.55637 0.43922 0.40429 0.0
C197 C 0.53462 0.40309 0.31661 0.0
C198 C 0.5311 0.48292 0.43562 0.0
C199 C 0.4867 0.5634 0.59056 0.0
H200 H 0.48547 0.57969 0.83089 0.0
H201 H 0.44495 0.58241 0.10054 0.0
H202 H 0.49448 0.6205 0.91796 0.0
H203 H 0.43607 0.54144 0.01275 0.0
H204 H 0.49122 0.45866 0.32943 0.0
H205 H 0.57582 0.40041 0.37976 0.0
H206 H 0.49324 0.41328 0.26352 0.0
H207 H 0.57418 0.44617 0.44342 0.0
Eu208 Eu 0.03148 0.50613 0.63239 0.0
Eu209 Eu 0.99438 0.46479 0.74598 0.0
C210 C 0.06119 0.46566 0.76583 0.0
C211 C 0.08533 0.52885 0.4885 0.0
C212 C 0.09469 0.50111 0.4875 0.0
C213 C 0.12003 0.54238 0.39423 0.0
C214 C 0.1168 0.4941 0.44089 0.0
C215 C 0.09791 0.5494 0.44117 0.0
C216 C 0.1299 0.5147 0.39434 0.0
C217 C 0.06263 0.53618 0.5395 0.0
O218 O 0.9855 0.50925 0.77778 0.0
O219 O 0.02753 0.52881 0.7508 0.0
C220 C 0.0044 0.5291 0.78906 0.0
O221 O 0.98724 0.52079 0.61065 0.0
O222 O 0.98287 0.45376 0.8686 0.0
O223 O 0.96211 0.43295 0.76433 0.0
O224 O 0.96579 0.47898 0.63919 0.0
C225 C 0.96525 0.50405 0.60527 0.0
O226 O 0.01971 0.46761 0.55897 0.0
O227 O 0.01423 0.43523 0.66139 0.0
O228 O 0.03828 0.46558 0.80529 0.0
O229 O 0.03796 0.52634 0.51537 0.0
O230 O 0.06809 0.53289 0.61788 0.0
O231 O 0.06107 0.4744 0.68992 0.0
C232 C 0.93401 0.45063 0.86522 0.0
C233 C 0.91464 0.46169 0.80554 0.0
C234 C 0.90847 0.47268 0.97002 0.0
C235 C 0.89304 0.47875 0.82762 0.0
C236 C 0.93018 0.45552 0.94784 0.0
C237 C 0.89033 0.4853 0.9098 0.0
C238 C 0.96086 0.43948 0.84107 0.0
C239 C 0.01846 0.44149 0.58504 0.0
H240 H 0.08502 0.48494 0.52338 0.0
H241 H 0.1299 0.55874 0.35962 0.0
H242 H 0.12369 0.47254 0.44142 0.0
H243 H 0.09085 0.5709 0.44129 0.0
H244 H 0.91704 0.45856 0.74126 0.0
H245 H 0.90693 0.47739 0.03386 0.0
H246 H 0.87906 0.48772 0.77991 0.0
H247 H 0.94503 0.44756 0.99491 0.0
H248 H 0.15176 0.09309 0.45634 0.0
H249 H 0.09351 0.0744 0.25168 0.0
H250 H 0.06494 0.04617 0.34037 0.0
H251 H 0.05647 0.02731 0.4758 0.0
H252 H 0.11549 0.04477 0.67998 0.0
H253 H 0.14419 0.07261 0.59113 0.0
C254 C 0.13272 0.08294 0.43133 0.0
C255 C 0.12458 0.08594 0.34789 0.0
C256 C 0.11681 0.06627 0.48221 0.0
C257 C 0.10016 0.07233 0.3158 0.0
C258 C 0.08389 0.05619 0.3664 0.0
C259 C 0.07576 0.03695 0.50088 0.0
C260 C 0.08386 0.03388 0.58448 0.0
C261 C 0.09206 0.05298 0.4496 0.0
C262 C 0.10891 0.04654 0.61577 0.0
C263 C 0.12521 0.06266 0.56513 0.0
H264 H 0.57069 0.15442 0.42209 0.0
H265 H 0.52123 0.11658 0.2223 0.0
H266 H 0.49788 0.08611 0.31801 0.0
H267 H 0.49342 0.0686 0.45787 0.0
H268 H 0.54177 0.10778 0.65787 0.0
H269 H 0.56334 0.13967 0.5627 0.0
C270 C 0.55474 0.13955 0.3996 0.0
C271 C 0.5479 0.13746 0.31535 0.0
C272 C 0.54116 0.12243 0.45496 0.0
C273 C 0.52688 0.11848 0.28698 0.0
C274 C 0.51357 0.10104 0.34161 0.0
C275 C 0.5085 0.08428 0.48068 0.0
C276 C 0.51614 0.08565 0.56475 0.0
C277 C 0.52079 0.10261 0.42565 0.0
C278 C 0.53546 0.1063 0.59348 0.0
C279 C 0.54795 0.12444 0.53906 0.0
H280 H 0.35051 0.52328 0.29741 0.0
H281 H 0.38539 0.45164 0.18505 0.0
H282 H 0.41622 0.44327 0.30801 0.0
H283 H 0.43556 0.45879 0.44293 0.0
H284 H 0.39913 0.52975 0.55585 0.0
H285 H 0.36603 0.53542 0.43787 0.0
C286 C 0.36482 0.50578 0.3001 0.0
C287 C 0.36617 0.48839 0.23219 0.0
C288 C 0.38198 0.50086 0.37116 0.0
C289 C 0.38423 0.46539 0.23669 0.0
C290 C 0.4018 0.46062 0.30686 0.0
C291 C 0.42005 0.47518 0.44245 0.0
C292 C 0.4201 0.49402 0.50782 0.0
C293 C 0.40115 0.47852 0.37397 0.0
C294 C 0.39969 0.51498 0.50639 0.0
C295 C 0.38084 0.51841 0.43861 0.0
H296 H 0.04766 0.33747 0.37329 0.0
H297 H 0.01693 0.39326 0.17987 0.0
H298 H 0.00753 0.42889 0.27976 0.0
H299 H 0.00874 0.44445 0.42136 0.0
H300 H 0.037 0.38814 0.61625 0.0
H301 H 0.04642 0.35225 0.51649 0.0
C302 C 0.03895 0.35746 0.35315 0.0
C303 C 0.03321 0.36286 0.26935 0.0
C304 C 0.03305 0.37764 0.41108 0.0
C305 C 0.02153 0.38864 0.24404 0.0
C306 C 0.01618 0.40902 0.30108 0.0
C307 C 0.01691 0.42429 0.44208 0.0
C308 C 0.02234 0.41898 0.52596 0.0
C309 C 0.02195 0.40377 0.38463 0.0
C310 C 0.03256 0.39266 0.55196 0.0
C311 C 0.03808 0.37222 0.49496 0.0
H312 H 0.90116 0.92561 0.06387 0.0
H313 H 0.87652 0.01044 0.10909 0.0
H314 H 0.91008 0.02834 0.015 0.0
H315 H 0.94677 0.01976 0.9203 0.0
H316 H 0.97277 0.93485 0.88206 0.0
H317 H 0.93827 0.91712 0.97262 0.0
C318 C 0.9031 0.94802 0.05307 0.0
C319 C 0.88635 0.96666 0.09312 0.0
C320 C 0.92265 0.95815 -4e-05 0.0
C321 C 0.88928 0.99565 0.07912 0.0
C322 C 0.90839 0.0059 0.02516 0.0
C323 C 0.9447 0.9974 0.93152 0.0
C324 C 0.96216 0.97865 0.89438 0.0
C325 C 0.92519 0.98733 0.98519 0.0
C326 C 0.95959 0.94973 0.91015 0.0
C327 C 0.93986 0.93954 0.96187 0.0
H328 H 0.44631 0.88229 0.06793 0.0
H329 H 0.5318 0.89186 0.16578 0.0
H330 H 0.54014 0.92774 0.06273 0.0
H331 H 0.52328 0.95619 0.94497 0.0
H332 H 0.43803 0.94607 0.8451 0.0
H333 H 0.42959 0.9104 0.94863 0.0
C334 C 0.46673 0.89232 0.06698 0.0
C335 C 0.48836 0.8845 0.12471 0.0
C336 C 0.47149 0.91268 0.00694 0.0
C337 C 0.51478 0.89751 0.12212 0.0
C338 C 0.51958 0.918 0.06315 0.0
C339 C 0.50284 0.94617 0.94555 0.0
C340 C 0.48131 0.95386 0.88725 0.0
C341 C 0.49812 0.92569 0.00517 0.0
C342 C 0.45501 0.94056 0.88905 0.0
C343 C 0.45012 0.9202 0.94841 0.0
H344 H 0.65452 0.59946 0.8016 0.0
H345 H 0.63108 0.58035 0.04517 0.0
H346 H 0.58905 0.55582 0.98932 0.0
H347 H 0.55923 0.53955 0.87126 0.0
H348 H 0.58356 0.55796 0.62786 0.0
H349 H 0.62507 0.58289 0.68401 0.0
C350 C 0.64016 0.59006 0.84255 0.0
C351 C 0.64587 0.59182 0.92738 0.0
C352 C 0.61628 0.57571 0.81011 0.0
C353 C 0.62716 0.5793 0.97958 0.0
C354 C 0.60314 0.56525 0.94771 0.0
C355 C 0.57363 0.54893 0.83041 0.0
C356 C 0.56824 0.5468 0.74542 0.0
C357 C 0.59756 0.56324 0.86305 0.0
C358 C 0.58717 0.55915 0.69352 0.0
C359 C 0.61092 0.5735 0.72553 0.0
H360 H -0.00038 0.62968 0.03385 0.0
H361 H 0.91185 0.60748 0.0115 0.0
H362 H 0.92132 0.56976 0.91809 0.0
H363 H 0.95442 0.54334 0.84286 0.0
H364 H 0.04193 0.56685 0.85928 0.0
H365 H 0.03264 0.60408 0.95471 0.0
C366 C 0.98261 0.6165 0.00873 0.0
C367 C 0.95512 0.62119 0.02982 0.0
C368 C 0.98813 0.59527 0.95381 0.0
C369 C 0.93318 0.60426 0.99604 0.0
C370 C 0.93858 0.5827 0.94272 0.0
C371 C 0.97151 0.55659 0.86729 0.0
C372 C -0.00113 0.55228 0.84434 0.0
C373 C 0.96596 0.57807 0.92115 0.0
C374 C 0.02069 0.56981 0.87585 0.0
C375 C 0.0154 0.59102 0.93058 0.0
H376 H 0.05771 0.18172 0.15446 0.0
H377 H 0.98393 0.23145 0.17524 0.0
H378 H 0.96261 0.1935 0.25009 0.0
H379 H 0.96724 0.14886 0.32447 0.0
H380 H 0.04126 0.0994 0.30569 0.0
H381 H 0.06036 0.13488 0.21632 0.0
C382 C 0.03703 0.18442 0.17457 0.0
C383 C 0.02296 0.20991 0.16056 0.0
C384 C 0.02499 0.16263 0.21907 0.0
C385 C 0.99561 0.2123 0.18594 0.0
C386 C 0.98332 0.1906 0.22906 0.0
C387 C 0.98724 0.14548 0.29919 0.0
C388 C 0.00298 0.12172 0.32275 0.0
C389 C 0.99817 0.16604 0.24817 0.0
C390 C 0.02898 0.11782 0.28989 0.0
C391 C 0.03987 0.13804 0.23843 0.0
H392 H 0.25343 0.06023 0.23321 0.0
H393 H 0.29918 0.13825 0.21448 0.0
H394 H 0.34229 0.11525 0.26418 0.0
H395 H 0.36635 0.07382 0.32234 0.0
H396 H 0.31981 0.9967 0.35257 0.0
H397 H 0.27788 0.01832 0.28832 0.0
C398 C 0.27293 0.07209 0.23928 0.0
C399 C 0.27325 0.10072 0.21773 0.0
C400 C 0.2975 0.0589 0.27057 0.0
C401 C 0.29856 0.11593 0.22687 0.0
C402 C 0.32317 0.10287 0.25671 0.0
C403 C 0.34703 0.06172 0.31506 0.0
C404 C 0.34629 0.0337 0.34288 0.0
C405 C 0.32279 0.07448 0.27989 0.0
C406 C 0.32117 0.0182 0.33113 0.0
C407 C 0.29706 0.03063 0.295 0.0
H408 H 0.52018 0.27737 0.20259 0.0
H409 H 0.60712 0.28948 0.15774 0.0
H410 H 0.60489 0.33851 0.19929 0.0
H411 H 0.57854 0.37736 0.25227 0.0
H412 H 0.49191 0.36447 0.30145 0.0
H413 H 0.49338 0.31667 0.25084 0.0
C414 C 0.53841 0.29097 0.19973 0.0
C415 C 0.56362 0.28006 0.17559 0.0
C416 C 0.537 0.31899 0.22428 0.0
C417 C 0.58744 0.29753 0.17574 0.0
C418 C 0.58616 0.32552 0.19938 0.0
C419 C 0.55999 0.36408 0.25224 0.0
C420 C 0.53519 0.37456 0.28095 0.0
C421 C 0.56112 0.33638 0.22461 0.0
C422 C 0.51121 0.35716 0.27888 0.0
C423 C 0.51208 0.3297 0.25057 0.0
H424 H 0.24357 0.47748 0.25959 0.0
H425 H 0.21158 0.5252 0.0502 0.0
H426 H 0.16886 0.53501 0.11854 0.0
H427 H 0.14121 0.53061 0.23972 0.0
H428 H 0.17417 0.4828 0.44846 0.0
H429 H 0.2156 0.4717 0.37752 0.0
C430 C 0.22692 0.48941 0.22809 0.0
C431 C 0.23033 0.50007 0.14942 0.0
C432 C 0.20265 0.49494 0.26771 0.0
C433 C 0.20921 0.51659 0.11064 0.0
C434 C 0.18485 0.52217 0.14965 0.0
C435 C 0.15751 0.51782 0.26959 0.0
C436 C 0.15458 0.50752 0.34921 0.0
C437 C 0.18145 0.51162 0.22854 0.0
C438 C 0.17573 0.4907 0.38686 0.0
C439 C 0.19951 0.48447 0.34656 0.0
H440 H 0.02641 0.76634 0.18497 0.0
H441 H 0.94463 0.78464 0.07251 0.0
H442 H 0.96287 0.82797 0.01376 0.0
H443 H 0.00207 0.86033 0.99388 0.0
H444 H 0.08418 0.84148 0.10391 0.0
H445 H 0.06556 0.79913 0.16672 0.0
C446 C 0.01245 0.78017 0.14934 0.0
C447 C 0.9841 0.77266 0.13451 0.0
C448 C 0.02313 0.80491 0.11544 0.0
C449 C 0.96651 0.79011 0.08509 0.0
C450 C 0.97691 0.81487 0.05161 0.0
C451 C 0.01598 0.84683 0.03094 0.0
C452 C 0.04454 0.85402 0.04368 0.0
C453 C 0.00522 0.82237 0.06602 0.0
C454 C 0.06209 0.83659 0.09353 0.0
C455 C 0.05149 0.81228 0.12911 0.0
H456 H 0.7248 0.98916 0.28312 0.0
H457 H 0.73421 0.93149 0.08692 0.0
H458 H 0.69027 0.94756 0.01868 0.0
H459 H 0.65043 0.97943 0.01203 0.0
H460 H 0.64044 0.03645 0.20982 0.0
H461 H 0.68324 0.01885 0.28102 0.0
C462 C 0.71676 0.97939 0.227 0.0
C463 C 0.73239 0.95867 0.19114 0.0
C464 C 0.69156 0.98883 0.188 0.0
C465 C 0.72243 0.94734 0.11597 0.0
C466 C 0.69733 0.95653 0.07694 0.0
C467 C 0.65732 0.9877 0.07136 0.0
C468 C 0.64225 0.0093 0.10532 0.0
C469 C 0.68188 0.97745 0.11202 0.0
C470 C 0.65184 0.02011 0.18164 0.0
C471 C 0.67623 0.00997 0.22261 0.0
H472 H 0.4954 0.6985 0.27951 0.0
H473 H 0.47455 0.75177 0.0707 0.0
H474 H 0.46794 0.71048 0.98411 0.0
H475 H 0.46648 0.65928 0.96904 0.0
H476 H 0.48543 0.60606 0.17906 0.0
H477 H 0.49397 0.64738 0.2645 0.0
C478 C 0.48974 0.7011 0.21483 0.0
C479 C 0.4857 0.72814 0.18129 0.0
C480 C 0.4853 0.6773 0.16604 0.0
C481 C 0.47785 0.73116 0.09778 0.0
C482 C 0.47402 0.70758 0.04837 0.0
C483 C 0.47275 0.65676 0.03336 0.0
C484 C 0.47542 0.6297 0.0677 0.0
C485 C 0.47744 0.68057 0.08202 0.0
C486 C 0.48303 0.62669 0.15142 0.0
C487 C 0.48806 0.65029 0.20013 0.0
H488 H 0.8086 0.58654 0.94614 0.0
H489 H 0.78193 0.53436 0.14283 0.0
H490 H 0.81763 0.50005 0.11714 0.0
H491 H 0.85501 0.48367 0.03364 0.0
H492 H 0.88056 0.53566 0.83473 0.0
H493 H 0.84656 0.57093 0.86552 0.0
C494 C 0.81073 0.56772 0.98365 0.0
C495 C 0.79311 0.56335 0.04757 0.0
C496 C 0.83089 0.54781 0.96733 0.0
C497 C 0.79595 0.53878 0.09532 0.0
C498 C 0.81611 0.51893 0.07984 0.0
C499 C 0.85323 0.50281 0.99751 0.0
C500 C 0.87 0.50682 0.93128 0.0
C501 C 0.83357 0.52311 0.01555 0.0
C502 C 0.86744 0.53174 0.88487 0.0
C503 C 0.84814 0.55203 0.90274 0.0
H504 H 0.13125 0.14963 0.88855 0.0
H505 H 0.10053 0.1412 0.12779 0.0
H506 H 0.06539 0.10664 0.07645 0.0
H507 H 0.04624 0.07595 0.96462 0.0
H508 H 0.07456 0.08793 0.72307 0.0
H509 H 0.10757 0.12422 0.77341 0.0
C510 C 0.11647 0.14054 0.92883 0.0
C511 C 0.11827 0.14776 0.01139 0.0
C512 C 0.09604 0.12129 0.89841 0.0
C513 C 0.09915 0.13604 0.06361 0.0
C514 C 0.07925 0.1162 0.03439 0.0
C515 C 0.05934 0.08692 0.92306 0.0
C516 C 0.05818 0.07926 0.84055 0.0
C517 C 0.07787 0.10825 0.95214 0.0
C518 C 0.07503 0.09364 0.7868 0.0
C519 C 0.09403 0.11425 0.81561 0.0
H520 H 0.33432 0.1093 0.81231 0.0
H521 H 0.37541 0.12612 0.04913 0.0
H522 H 0.4182 0.10493 0.00747 0.0
H523 H 0.44307 0.07922 0.90661 0.0
H524 H 0.40178 0.0624 0.66991 0.0
H525 H 0.36004 0.08609 0.70886 0.0
C526 C 0.35269 0.10854 0.85466 0.0
C527 C 0.35158 0.1191 0.93385 0.0
C528 C 0.37718 0.09618 0.83055 0.0
C529 C 0.37565 0.11811 0.98777 0.0
C530 C 0.40013 0.1059 0.96413 0.0
C531 C 0.425 0.08084 0.86337 0.0
C532 C 0.42553 0.06884 0.78574 0.0
C533 C 0.40098 0.09447 0.88612 0.0
C534 C 0.40199 0.07138 0.73021 0.0
C535 C 0.37804 0.08489 0.75242 0.0
H536 H 0.54033 0.33871 0.84628 0.0
H537 H 0.46514 0.3447 0.97509 0.0
H538 H 0.45467 0.3898 0.90823 0.0
H539 H 0.46762 0.42806 0.81583 0.0
H540 H 0.54291 0.42146 0.68726 0.0
H541 H 0.55246 0.376 0.75138 0.0
C542 C 0.5216 0.34982 0.85972 0.0
C543 C 0.50361 0.33839 0.91581 0.0
C544 C 0.51572 0.37565 0.82115 0.0
C545 C 0.47935 0.35301 0.93208 0.0
C546 C 0.47337 0.37883 0.89398 0.0
C547 C 0.48606 0.41665 0.80155 0.0
C548 C 0.50456 0.4283 0.74701 0.0
C549 C 0.49151 0.39043 0.83877 0.0
C550 C 0.52832 0.41312 0.72912 0.0
C551 C 0.53385 0.38708 0.76582 0.0
H552 H 0.18482 0.43787 0.89085 0.0
H553 H 0.14755 0.43459 0.12252 0.0
H554 H 0.10136 0.44258 0.05351 0.0
H555 H 0.07217 0.45345 0.92771 0.0
H556 H 0.11061 0.45779 0.69756 0.0
H557 H 0.15573 0.44639 0.76593 0.0
C558 C 0.16659 0.43867 0.9264 0.0
C559 C 0.16964 0.43573 0.01169 0.0
C560 C 0.14031 0.44364 0.88661 0.0
C561 C 0.14576 0.43671 0.05669 0.0
C562 C 0.11937 0.44141 0.0173 0.0
C563 C 0.09036 0.45166 0.89244 0.0
C564 C 0.08797 0.45666 0.80765 0.0
C565 C 0.11647 0.44534 0.93233 0.0
C566 C 0.1118 0.45425 0.76292 0.0
C567 C 0.13767 0.44771 0.80193 0.0
H568 H 0.96846 0.85712 0.43185 0.0
H569 H 0.05228 0.82819 0.49491 0.0
H570 H 0.0616 0.86916 0.58087 0.0
H571 H 0.0462 0.91339 0.63644 0.0
H572 H 0.96241 0.94241 0.57272 0.0
H573 H 0.95283 0.90101 0.48899 0.0
C574 C 0.98878 0.85973 0.46438 0.0
C575 C 0.00965 0.83964 0.45677 0.0
C576 C 0.994 0.88331 0.51366 0.0
C577 C 0.03584 0.84335 0.49957 0.0
C578 C 0.04119 0.86677 0.54878 0.0
C579 C 0.0258 0.91068 0.60443 0.0
C580 C 0.00509 0.93106 0.61074 0.0
C581 C 0.02045 0.8869 0.55605 0.0
C582 C 0.97876 0.9271 0.56898 0.0
C583 C 0.97326 0.90344 0.52093 0.0
H584 H 0.62556 0.93353 0.45991 0.0
H585 H 0.6801 0.99433 0.58504 0.0
H586 H 0.64181 0.00923 0.66399 0.0
H587 H 0.59252 0.00698 0.69194 0.0
H588 H 0.53732 0.94704 0.56562 0.0
H589 H 0.57641 0.92957 0.49358 0.0
C590 C 0.62913 0.94993 0.50478 0.0
C591 C 0.65562 0.96293 0.51601 0.0
C592 C 0.60695 0.95855 0.54979 0.0
C593 C 0.6599 0.98405 0.57475 0.0
C594 C 0.63801 0.9926 0.62002 0.0
C595 C 0.58898 0.98993 0.64915 0.0
C596 C 0.56194 0.97852 0.63379 0.0
C597 C 0.61139 0.98028 0.60719 0.0
C598 C 0.55789 0.95628 0.57857 0.0
C599 C 0.58022 0.94634 0.53706 0.0
H600 H 0.46291 0.67681 0.40011 0.0
H601 H 0.49352 0.71134 0.6313 0.0
H602 H 0.49846 0.66388 0.68913 0.0
H603 H 0.49561 0.61256 0.67176 0.0
H604 H 0.46788 0.57878 0.43679 0.0
H605 H 0.46045 0.62608 0.3824 0.0
C606 C 0.47031 0.67401 0.46353 0.0
C607 C 0.47755 0.69752 0.51175 0.0
C608 C 0.47389 0.64681 0.49529 0.0
C609 C 0.4877 0.69352 0.5932 0.0
C610 C 0.49059 0.66642 0.62611 0.0
C611 C 0.48783 0.61557 0.60876 0.0
C612 C 0.48232 0.59218 0.55838 0.0
C613 C 0.48401 0.6429 0.57741 0.0
C614 C 0.47248 0.59641 0.47671 0.0
C615 C 0.4681 0.62345 0.4456 0.0
H616 H 0.84729 0.52627 0.42347 0.0
H617 H 0.89132 0.59991 0.34229 0.0
H618 H 0.93337 0.58562 0.42349 0.0
H619 H 0.95797 0.55173 0.51457 0.0
H620 H 0.91421 0.47762 0.59375 0.0
H621 H 0.8717 0.49271 0.51638 0.0
C622 C 0.86603 0.53928 0.42378 0.0
C623 C 0.86615 0.5641 0.37678 0.0
C624 C 0.89022 0.53085 0.47008 0.0
C625 C 0.89065 0.58067 0.37779 0.0
C626 C 0.91473 0.57252 0.42419 0.0
C627 C 0.93913 0.53889 0.51521 0.0
C628 C 0.93934 0.51355 0.55978 0.0
C629 C 0.9148 0.54757 0.47009 0.0
C630 C 0.91471 0.49719 0.55978 0.0
C631 C 0.89035 0.50579 0.51555 0.0
loop_
_geom_bond_atom_site_label_1
_geom_bond_atom_site_label_2
_geom_bond_distance
_geom_bond_site_symmetry_2
_ccdc_geom_bond_type
O0 Cd1 2.300 . S
O0 C7 1.275 . S
Cd1 O0 2.300 . S
Cd1 O9 2.381 . S
Cd1 O10 2.378 . S
O2 Cd3 2.385 . S
O2 C7 1.255 . S
Cd3 O2 2.385 . S
Cd3 O4 2.317 . S
O4 Cd3 2.317 . S
O4 C5 1.232 . S
C5 O4 1.232 . S
C5 O6 1.218 . S
O6 C5 1.218 . S
C7 O0 1.275 . S
C7 O2 1.255 . S
C8 O9 1.258 . S
C8 O10 1.256 . S
O9 Cd1 2.381 . S
O9 C8 1.258 . S
O10 Cd1 2.378 . S
O10 C8 1.256 . S
O11 Cd12 2.300 . S
O11 C18 1.275 . S
Cd12 O11 2.300 . S
Cd12 O20 2.381 . S
Cd12 O21 2.378 . S
O13 Cd14 2.385 1_655 S
O13 C18 1.255 . S
Cd14 O13 2.385 1_455 S
Cd14 O15 2.317 1_455 S
O15 Cd14 2.317 1_655 S
O15 C16 1.232 . S
C16 O15 1.232 . S
C16 O17 1.218 . S
O17 C16 1.218 . S
C18 O11 1.275 . S
C18 O13 1.255 . S
C19 O20 1.258 . S
C19 O21 1.256 . S
O20 Cd12 2.381 . S
O20 C19 1.258 . S
O21 Cd12 2.378 . S
O21 C19 1.256 . S
O22 Cd23 2.300 . S
O22 C29 1.275 . S
Cd23 O22 2.300 . S
Cd23 O31 2.381 . S
Cd23 O32 2.378 . S
O24 Cd25 2.378 1_565 S
O24 C29 1.263 . S
Cd25 O24 2.378 1_545 S
Cd25 O26 2.317 1_545 S
O26 Cd25 2.317 1_565 S
O26 C27 1.232 . S
C27 O26 1.232 . S
C27 O28 1.217 . S
O28 C27 1.217 . S
C29 O22 1.275 . S
C29 O24 1.263 . S
C30 O31 1.258 . S
C30 O32 1.256 . S
O31 Cd23 2.381 . S
O31 C30 1.258 . S
O32 Cd23 2.378 . S
O32 C30 1.256 . S
O33 Cd34 2.300 . S
O33 C40 1.275 . S
Cd34 O33 2.300 . S
Cd34 O42 2.381 . S
Cd34 O43 2.378 . S
O35 Cd36 2.385 . S
O35 C40 1.255 . S
Cd36 O35 2.385 . S
Cd36 O37 2.317 . S
O37 Cd36 2.317 . S
O37 C38 1.232 . S
C38 O37 1.232 . S
C38 O39 1.218 . S
O39 C38 1.218 . S
C40 O33 1.275 . S
C40 O35 1.255 . S
C41 O42 1.258 . S
C41 O43 1.256 . S
O42 Cd34 2.381 . S
O42 C41 1.258 . S
O43 Cd34 2.378 . S
O43 C41 1.256 . S
O44 Cd45 2.300 . S
O44 C51 1.275 . S
Cd45 O44 2.300 . S
Cd45 O53 2.381 . S
Cd45 O54 2.378 . S
O46 Cd47 2.385 . S
O46 C51 1.255 . S
Cd47 O46 2.385 . S
Cd47 O48 2.317 1_554 S
O48 Cd47 2.317 1_556 S
O48 C49 1.232 . S
C49 O48 1.232 . S
C49 O50 1.218 . S
O50 C49 1.218 . S
C51 O44 1.275 . S
C51 O46 1.255 . S
C52 O53 1.258 . S
C52 O54 1.256 . S
O53 Cd45 2.381 . S
O53 C52 1.258 . S
O54 Cd45 2.378 . S
O54 C52 1.256 . S
O55 Cd56 2.300 . S
O55 C62 1.275 . S
Cd56 O55 2.300 . S
Cd56 O64 2.381 . S
Cd56 O65 2.378 . S
O57 Cd58 2.385 . S
O57 C62 1.255 . S
Cd58 O57 2.385 . S
Cd58 O59 2.317 1_554 S
O59 Cd58 2.317 1_556 S
O59 C60 1.232 . S
C60 O59 1.232 . S
C60 O61 1.218 . S
O61 C60 1.218 . S
C62 O55 1.275 . S
C62 O57 1.255 . S
C63 O64 1.258 . S
C63 O65 1.256 . S
O64 Cd56 2.381 . S
O64 C63 1.258 . S
O65 Cd56 2.378 . S
O65 C63 1.256 . S
O66 Cd67 2.300 . S
O66 C73 1.275 . S
Cd67 O66 2.300 . S
Cd67 O75 2.381 . S
Cd67 O76 2.378 . S
O68 Cd69 2.385 1_554 S
O68 C73 1.255 . S
Cd69 O68 2.385 1_556 S
Cd69 O70 2.317 . S
O70 Cd69 2.317 . S
O70 C71 1.232 . S
C71 O70 1.232 . S
C71 O72 1.218 . S
O72 C71 1.218 . S
C73 O66 1.275 . S
C73 O68 1.255 . S
C74 O75 1.258 . S
C74 O76 1.256 . S
O75 Cd67 2.381 . S
O75 C74 1.258 . S
O76 Cd67 2.378 . S
O76 C74 1.256 . S
O77 Cd78 2.300 . S
O77 C84 1.275 . S
Cd78 O77 2.300 . S
Cd78 O86 2.381 . S
Cd78 O87 2.378 . S
O79 Cd80 2.385 . S
O79 C84 1.255 . S
Cd80 O79 2.385 . S
Cd80 O81 2.317 1_554 S
O81 Cd80 2.317 1_556 S
O81 C82 1.232 . S
C82 O81 1.232 . S
C82 O83 1.218 . S
O83 C82 1.218 . S
C84 O77 1.275 . S
C84 O79 1.255 . S
C85 O86 1.258 . S
C85 O87 1.256 . S
O86 Cd78 2.381 . S
O86 C85 1.258 . S
O87 Cd78 2.378 . S
O87 C85 1.256 . S
Eu88 C97 2.828 . S
Eu88 O99 2.392 . S
Eu88 O101 2.418 1_545 S
Eu88 O106 2.373 1_655 S
Eu88 O109 2.488 . S
Eu88 O110 2.483 . S
Eu88 O111 2.349 1_655 S
Eu89 O98 2.373 1_455 S
Eu89 O102 2.488 . S
Eu89 O103 2.471 . S
Eu89 O104 2.349 . S
Eu89 O107 2.392 1_565 S
Eu89 O108 2.418 1_565 S
Eu89 C118 2.828 . S
C90 O108 1.244 . S
C90 O111 1.265 . S
C91 C92 1.379 1_655 S
C91 C95 1.373 . S
C91 C97 1.505 . S
C92 C91 1.379 1_455 S
C92 C94 1.369 . S
C92 H120 0.930 . S
C93 C95 1.383 . S
C93 C96 1.382 1_655 S
C93 H121 0.930 . S
C94 C92 1.369 . S
C94 C96 1.392 . S
C94 H122 0.930 . S
C95 C91 1.373 . S
C95 C93 1.383 . S
C95 H123 0.931 . S
C96 C93 1.382 1_455 S
C96 C94 1.392 . S
C97 Eu88 2.828 . S
C97 C91 1.505 . S
C97 O109 1.249 . S
C97 O110 1.253 . S
O98 Eu89 2.373 1_655 S
O98 C100 1.258 1_565 S
O99 Eu88 2.392 . S
O99 C100 1.242 . S
C100 O98 1.258 1_545 S
C100 O99 1.242 . S
O101 Eu88 2.418 1_565 S
O101 C105 1.244 . S
O102 Eu89 2.488 . S
O102 C118 1.249 . S
O103 Eu89 2.471 . S
O103 C118 1.244 . S
O104 Eu89 2.349 . S
O104 C105 1.265 1_455 S
C105 O101 1.244 . S
C105 O104 1.265 1_655 S
O106 Eu88 2.373 1_455 S
O106 C119 1.258 . S
O107 Eu89 2.392 1_545 S
O107 C119 1.242 . S
O108 Eu89 2.418 1_545 S
O108 C90 1.244 . S
O109 Eu88 2.488 . S
O109 C97 1.249 . S
O110 Eu88 2.483 . S
O110 C97 1.253 . S
O111 Eu88 2.349 1_455 S
O111 C90 1.265 . S
C112 C113 1.379 . S
C112 C116 1.373 1_556 S
C112 C118 1.505 . S
C113 C112 1.379 . S
C113 C115 1.369 1_556 S
C113 H124 0.930 1_455 S
C114 C116 1.383 . S
C114 C117 1.382 . S
C114 H125 0.930 . S
C115 C113 1.369 1_554 S
C115 C117 1.392 . S
C115 H126 0.932 1_455 S
C116 C112 1.373 1_554 S
C116 C114 1.383 . S
C116 H127 0.931 . S
C117 C114 1.382 . S
C117 C115 1.392 . S
C118 Eu89 2.828 . S
C118 O102 1.249 . S
C118 O103 1.244 . S
C118 C112 1.505 . S
C119 O106 1.258 . S
C119 O107 1.242 . S
H120 C92 0.930 . S
H121 C93 0.930 . S
H122 C94 0.930 . S
H123 C95 0.931 . S
H124 C113 0.930 1_655 S
H125 C114 0.930 . S
H126 C115 0.932 1_655 S
H127 C116 0.931 . S
Eu128 C137 2.828 . S
Eu128 O139 2.392 . S
Eu128 O141 2.418 . S
Eu128 O146 2.373 . S
Eu128 O149 2.488 . S
Eu128 O150 2.471 . S
Eu128 O151 2.349 1_545 S
Eu129 O138 2.373 1_565 S
Eu129 O142 2.488 . S
Eu129 O143 2.471 1_565 S
Eu129 O144 2.349 1_565 S
Eu129 O147 2.392 . S
Eu129 O148 2.418 . S
Eu129 C158 2.828 . S
C130 O148 1.244 . S
C130 O151 1.265 . S
C131 C132 1.379 . S
C131 C135 1.373 . S
C131 C137 1.505 . S
C132 C131 1.379 . S
C132 C134 1.369 . S
C132 H160 0.930 1_545 S
C133 C135 1.383 . S
C133 C136 1.382 . S
C133 H161 0.930 . S
C134 C132 1.369 . S
C134 C136 1.392 . S
C134 H162 0.930 1_545 S
C135 C131 1.373 . S
C135 C133 1.383 . S
C135 H163 0.931 . S
C136 C133 1.382 . S
C136 C134 1.392 . S
C137 Eu128 2.828 . S
C137 C131 1.505 . S
C137 O149 1.249 . S
C137 O150 1.244 . S
O138 Eu129 2.373 1_545 S
O138 C140 1.258 . S
O139 Eu128 2.392 . S
O139 C140 1.242 . S
C140 O138 1.258 . S
C140 O139 1.242 . S
O141 Eu128 2.418 . S
O141 C145 1.244 . S
O142 Eu129 2.488 . S
O142 C158 1.249 . S
O143 Eu129 2.471 1_545 S
O143 C158 1.244 1_545 S
O144 Eu129 2.349 1_545 S
O144 C145 1.265 . S
C145 O141 1.244 . S
C145 O144 1.265 . S
O146 Eu128 2.373 . S
O146 C159 1.258 1_545 S
O147 Eu129 2.392 . S
O147 C159 1.242 . S
O148 Eu129 2.418 . S
O148 C130 1.244 . S
O149 Eu128 2.488 . S
O149 C137 1.249 . S
O150 Eu128 2.471 . S
O150 C137 1.244 . S
O151 Eu128 2.349 1_565 S
O151 C130 1.265 . S
C152 C153 1.379 1_565 S
C152 C156 1.373 . S
C152 C158 1.505 . S
C153 C152 1.379 1_545 S
C153 C155 1.369 . S
C153 H164 0.930 . S
C154 C156 1.383 . S
C154 C157 1.382 . S
C154 H165 0.930 . S
C155 C153 1.369 . S
C155 C157 1.392 1_545 S
C155 H166 0.930 . S
C156 C152 1.373 . S
C156 C154 1.383 . S
C156 H167 0.931 . S
C157 C154 1.382 . S
C157 C155 1.392 1_565 S
C158 Eu129 2.828 . S
C158 O142 1.249 . S
C158 O143 1.244 1_565 S
C158 C152 1.505 . S
C159 O146 1.258 1_565 S
C159 O147 1.242 . S
H160 C132 0.930 1_565 S
H161 C133 0.930 . S
H162 C134 0.930 1_565 S
H163 C135 0.931 . S
H164 C153 0.930 . S
H165 C154 0.930 . S
H166 C155 0.930 . S
H167 C156 0.931 . S
Eu168 C177 2.828 . S
Eu168 O179 2.392 . S
Eu168 O181 2.418 . S
Eu168 O186 2.373 . S
Eu168 O189 2.488 . S
Eu168 O190 2.471 . S
Eu168 O191 2.349 . S
Eu169 O178 2.373 . S
Eu169 O182 2.488 . S
Eu169 O183 2.471 . S
Eu169 O184 2.349 . S
Eu169 O187 2.392 . S
Eu169 O188 2.418 . S
Eu169 C198 2.828 . S
C170 O188 1.244 . S
C170 O191 1.265 . S
C171 C172 1.379 . S
C171 C175 1.373 . S
C171 C177 1.505 . S
C172 C171 1.379 . S
C172 C174 1.369 . S
C172 H200 0.930 . S
C173 C175 1.383 . S
C173 C176 1.382 . S
C173 H201 0.930 . S
C174 C172 1.369 . S
C174 C176 1.392 . S
C174 H202 0.930 . S
C175 C171 1.373 . S
C175 C173 1.383 . S
C175 H203 0.931 . S
C176 C173 1.382 . S
C176 C174 1.392 . S
C177 Eu168 2.828 . S
C177 C171 1.505 . S
C177 O189 1.249 . S
C177 O190 1.244 . S
O178 Eu169 2.373 . S
O178 C180 1.258 . S
O179 Eu168 2.392 . S
O179 C180 1.242 . S
C180 O178 1.258 . S
C180 O179 1.242 . S
O181 Eu168 2.418 . S
O181 C185 1.244 . S
O182 Eu169 2.488 . S
O182 C198 1.249 . S
O183 Eu169 2.471 . S
O183 C198 1.244 . S
O184 Eu169 2.349 . S
O184 C185 1.265 . S
C185 O181 1.244 . S
C185 O184 1.265 . S
O186 Eu168 2.373 . S
O186 C199 1.258 . S
O187 Eu169 2.392 . S
O187 C199 1.242 . S
O188 Eu169 2.418 . S
O188 C170 1.244 . S
O189 Eu168 2.488 . S
O189 C177 1.249 . S
O190 Eu168 2.471 . S
O190 C177 1.244 . S
O191 Eu168 2.349 . S
O191 C170 1.265 . S
C192 C193 1.379 . S
C192 C196 1.373 . S
C192 C198 1.505 . S
C193 C192 1.379 . S
C193 C195 1.369 . S
C193 H204 0.930 . S
C194 C196 1.383 . S
C194 C197 1.382 . S
C194 H205 0.930 . S
C195 C193 1.369 . S
C195 C197 1.392 . S
C195 H206 0.930 . S
C196 C192 1.373 . S
C196 C194 1.383 . S
C196 H207 0.931 . S
C197 C194 1.382 . S
C197 C195 1.392 . S
C198 Eu169 2.828 . S
C198 O182 1.249 . S
C198 O183 1.244 . S
C198 C192 1.505 . S
C199 O186 1.258 . S
C199 O187 1.242 . S
H200 C172 0.930 . S
H201 C173 0.930 . S
H202 C174 0.930 . S
H203 C175 0.931 . S
H204 C193 0.930 . S
H205 C194 0.930 . S
H206 C195 0.930 . S
H207 C196 0.931 . S
Eu208 C217 2.828 . S
Eu208 O219 2.392 . S
Eu208 O221 2.418 1_455 S
Eu208 O226 2.373 . S
Eu208 O229 2.488 . S
Eu208 O230 2.471 . S
Eu208 O231 2.349 . S
Eu209 O218 2.373 . S
Eu209 O222 2.488 . S
Eu209 O223 2.471 . S
Eu209 O224 2.349 . S
Eu209 O227 2.392 1_655 S
Eu209 O228 2.418 1_655 S
Eu209 C238 2.828 . S
C210 O228 1.244 . S
C210 O231 1.265 . S
C211 C212 1.379 . S
C211 C215 1.373 . S
C211 C217 1.505 . S
C212 C211 1.379 . S
C212 C214 1.369 . S
C212 H240 0.930 . S
C213 C215 1.383 . S
C213 C216 1.382 . S
C213 H241 0.930 . S
C214 C212 1.369 . S
C214 C216 1.392 . S
C214 H242 0.930 . S
C215 C211 1.373 . S
C215 C213 1.383 . S
C215 H243 0.931 . S
C216 C213 1.382 . S
C216 C214 1.392 . S
C217 Eu208 2.828 . S
C217 C211 1.505 . S
C217 O229 1.249 . S
C217 O230 1.244 . S
O218 Eu209 2.373 . S
O218 C220 1.258 1_655 S
O219 Eu208 2.392 . S
O219 C220 1.242 . S
C220 O218 1.258 1_455 S
C220 O219 1.242 . S
O221 Eu208 2.418 1_655 S
O221 C225 1.244 . S
O222 Eu209 2.488 . S
O222 C238 1.249 . S
O223 Eu209 2.471 . S
O223 C238 1.244 . S
O224 Eu209 2.349 . S
O224 C225 1.265 . S
C225 O221 1.244 . S
C225 O224 1.265 . S
O226 Eu208 2.373 . S
O226 C239 1.258 . S
O227 Eu209 2.392 1_455 S
O227 C239 1.242 . S
O228 Eu209 2.418 1_455 S
O228 C210 1.244 . S
O229 Eu208 2.488 . S
O229 C217 1.249 . S
O230 Eu208 2.471 . S
O230 C217 1.244 . S
O231 Eu208 2.349 . S
O231 C210 1.265 . S
C232 C233 1.379 . S
C232 C236 1.373 1_556 S
C232 C238 1.505 . S
C233 C232 1.379 . S
C233 C235 1.369 . S
C233 H244 0.930 . S
C234 C236 1.383 . S
C234 C237 1.382 . S
C234 H245 0.930 . S
C235 C233 1.369 . S
C235 C237 1.392 1_556 S
C235 H246 0.930 . S
C236 C232 1.373 1_554 S
C236 C234 1.383 . S
C236 H247 0.931 . S
C237 C234 1.382 . S
C237 C235 1.392 1_554 S
C238 Eu209 2.828 . S
C238 O222 1.249 . S
C238 O223 1.244 . S
C238 C232 1.505 . S
C239 O226 1.258 . S
C239 O227 1.242 . S
H240 C212 0.930 . S
H241 C213 0.930 . S
H242 C214 0.930 . S
H243 C215 0.931 . S
H244 C233 0.930 . S
H245 C234 0.930 . S
H246 C235 0.930 . S
H247 C236 0.931 . S
H248 C254 0.930 . S
H249 C257 0.930 . S
H250 C258 0.923 1_565 S
H251 C259 0.930 . S
H252 C262 0.930 . S
H253 C263 0.930 . S
C254 H248 0.930 . S
C254 C255 1.355 . S
C254 C256 1.415 . S
C255 C254 1.355 . S
C255 C257 1.419 . S
C256 C254 1.415 . S
C256 C261 1.425 . S
C256 C263 1.409 . S
C257 H249 0.930 . S
C257 C255 1.419 . S
C257 C258 1.362 . S
C258 H250 0.923 1_545 S
C258 C257 1.362 . S
C258 C261 1.409 . S
C259 H251 0.930 . S
C259 C260 1.355 . S
C259 C261 1.415 . S
C260 C259 1.355 . S
C260 C262 1.419 . S
C261 C256 1.425 . S
C261 C258 1.409 . S
C261 C259 1.415 . S
C262 H252 0.930 . S
C262 C260 1.419 . S
C262 C263 1.362 . S
C263 H253 0.930 . S
C263 C256 1.409 . S
C263 C262 1.362 . S
H264 C270 0.930 . S
H265 C273 0.930 . S
H266 C274 0.930 . S
H267 C275 0.930 . S
H268 C278 0.930 . S
H269 C279 0.930 . S
C270 H264 0.930 . S
C270 C271 1.355 . S
C270 C272 1.415 . S
C271 C270 1.355 . S
C271 C273 1.419 . S
C272 C270 1.415 . S
C272 C277 1.425 . S
C272 C279 1.409 . S
C273 H265 0.930 . S
C273 C271 1.419 . S
C273 C274 1.362 . S
C274 H266 0.930 . S
C274 C273 1.362 . S
C274 C277 1.409 . S
C275 H267 0.930 . S
C275 C276 1.355 . S
C275 C277 1.415 . S
C276 C275 1.355 . S
C276 C278 1.419 . S
C277 C272 1.425 . S
C277 C274 1.409 . S
C277 C275 1.415 . S
C278 H268 0.930 . S
C278 C276 1.419 . S
C278 C279 1.362 . S
C279 H269 0.930 . S
C279 C272 1.409 . S
C279 C278 1.362 . S
H280 C286 0.930 . S
H281 C289 0.930 . S
H282 C290 0.930 . S
H283 C291 0.930 . S
H284 C294 0.930 . S
H285 C295 0.930 . S
C286 H280 0.930 . S
C286 C287 1.355 . S
C286 C288 1.415 . S
C287 C286 1.355 . S
C287 C289 1.419 . S
C288 C286 1.415 . S
C288 C293 1.425 . S
C288 C295 1.409 . S
C289 H281 0.930 . S
C289 C287 1.419 . S
C289 C290 1.362 . S
C290 H282 0.930 . S
C290 C289 1.362 . S
C290 C293 1.409 . S
C291 H283 0.930 . S
C291 C292 1.355 . S
C291 C293 1.415 . S
C292 C291 1.355 . S
C292 C294 1.419 . S
C293 C288 1.425 . S
C293 C290 1.409 . S
C293 C291 1.415 . S
C294 H284 0.930 . S
C294 C292 1.419 . S
C294 C295 1.362 . S
C295 H285 0.930 . S
C295 C288 1.409 . S
C295 C294 1.362 . S
H296 C302 0.930 . S
H297 C305 0.930 . S
H298 C306 0.930 1_655 S
H299 C307 0.930 . S
H300 C310 0.930 . S
H301 C311 0.930 . S
C302 H296 0.930 . S
C302 C303 1.355 . S
C302 C304 1.415 . S
C303 C302 1.355 . S
C303 C305 1.419 . S
C304 C302 1.415 . S
C304 C309 1.425 . S
C304 C311 1.409 . S
C305 H297 0.930 . S
C305 C303 1.419 . S
C305 C306 1.362 . S
C306 H298 0.930 1_455 S
C306 C305 1.362 . S
C306 C309 1.409 . S
C307 H299 0.930 . S
C307 C308 1.355 . S
C307 C309 1.415 . S
C308 C307 1.355 . S
C308 C310 1.419 . S
C309 C304 1.425 . S
C309 C306 1.409 . S
C309 C307 1.415 . S
C310 H300 0.930 . S
C310 C308 1.419 . S
C310 C311 1.362 . S
C311 H301 0.930 . S
C311 C304 1.409 . S
C311 C310 1.362 . S
H312 C318 0.930 . S
H313 C321 0.930 . S
H314 C322 0.930 . S
H315 C323 0.930 . S
H316 C326 0.930 . S
H317 C327 0.930 . S
C318 H312 0.930 . S
C318 C319 1.355 . S
C318 C320 1.415 . S
C319 C318 1.355 . S
C319 C321 1.419 1_565 S
C320 C318 1.415 . S
C320 C325 1.425 1_565 S
C320 C327 1.409 . S
C321 H313 0.930 . S
C321 C319 1.419 1_545 S
C321 C322 1.362 . S
C322 H314 0.930 . S
C322 C321 1.362 . S
C322 C325 1.409 . S
C323 H315 0.930 . S
C323 C324 1.355 1_545 S
C323 C325 1.415 1_556 S
C324 C323 1.355 1_565 S
C324 C326 1.419 . S
C325 C320 1.425 1_545 S
C325 C322 1.409 . S
C325 C323 1.415 1_554 S
C326 H316 0.930 . S
C326 C324 1.419 . S
C326 C327 1.362 1_556 S
C327 H317 0.930 . S
C327 C320 1.409 . S
C327 C326 1.362 1_554 S
H328 C334 0.930 . S
H329 C337 0.930 . S
H330 C338 0.930 . S
H331 C339 0.930 . S
H332 C342 0.930 . S
H333 C343 0.930 . S
C334 H328 0.930 . S
C334 C335 1.355 . S
C334 C336 1.415 . S
C335 C334 1.355 . S
C335 C337 1.419 . S
C336 C334 1.415 . S
C336 C341 1.425 1_554 S
C336 C343 1.409 1_554 S
C337 H329 0.930 . S
C337 C335 1.419 . S
C337 C338 1.362 . S
C338 H330 0.930 . S
C338 C337 1.362 . S
C338 C341 1.409 1_554 S
C339 H331 0.930 . S
C339 C340 1.355 . S
C339 C341 1.415 . S
C340 C339 1.355 . S
C340 C342 1.419 . S
C341 C336 1.425 1_556 S
C341 C338 1.409 1_556 S
C341 C339 1.415 . S
C342 H332 0.930 . S
C342 C340 1.419 . S
C342 C343 1.362 . S
C343 H333 0.930 . S
C343 C336 1.409 1_556 S
C343 C342 1.362 . S
H344 C350 0.930 . S
H345 C353 0.930 . S
H346 C354 0.930 . S
H347 C355 0.930 . S
H348 C358 0.930 . S
H349 C359 0.930 1_554 S
C350 H344 0.930 . S
C350 C351 1.355 . S
C350 C352 1.415 . S
C351 C350 1.355 . S
C351 C353 1.419 . S
C352 C350 1.415 . S
C352 C357 1.425 1_554 S
C352 C359 1.409 1_554 S
C353 H345 0.930 . S
C353 C351 1.419 . S
C353 C354 1.362 1_554 S
C354 H346 0.930 . S
C354 C353 1.362 1_556 S
C354 C357 1.409 . S
C355 H347 0.930 . S
C355 C356 1.355 . S
C355 C357 1.415 . S
C356 C355 1.355 . S
C356 C358 1.419 . S
C357 C352 1.425 1_556 S
C357 C354 1.409 . S
C357 C355 1.415 . S
C358 H348 0.930 . S
C358 C356 1.419 . S
C358 C359 1.362 . S
C359 H349 0.930 1_556 S
C359 C352 1.409 1_556 S
C359 C358 1.362 . S
H360 C366 0.930 . S
H361 C369 0.930 . S
H362 C370 0.930 . S
H363 C371 0.930 . S
H364 C374 0.930 . S
H365 C375 0.930 . S
C366 H360 0.930 . S
C366 C367 1.355 . S
C366 C368 1.415 . S
C367 C366 1.355 . S
C367 C369 1.419 . S
C368 C366 1.415 . S
C368 C373 1.425 1_554 S
C368 C375 1.409 1_655 S
C369 H361 0.930 . S
C369 C367 1.419 . S
C369 C370 1.362 1_554 S
C370 H362 0.930 . S
C370 C369 1.362 1_556 S
C370 C373 1.409 . S
C371 H363 0.930 . S
C371 C372 1.355 . S
C371 C373 1.415 . S
C372 C371 1.355 . S
C372 C374 1.419 1_655 S
C373 C368 1.425 1_556 S
C373 C370 1.409 . S
C373 C371 1.415 . S
C374 H364 0.930 . S
C374 C372 1.419 1_455 S
C374 C375 1.362 1_556 S
C375 H365 0.930 . S
C375 C368 1.409 1_455 S
C375 C374 1.362 1_554 S
H376 C382 0.930 . S
H377 C385 0.930 . S
H378 C386 0.930 1_655 S
H379 C387 0.950 . S
H380 C390 0.930 . S
H381 C391 0.930 . S
C382 H376 0.930 . S
C382 C383 1.355 . S
C382 C384 1.415 . S
C383 C382 1.355 . S
C383 C385 1.419 . S
C384 C382 1.415 . S
C384 C389 1.425 . S
C384 C391 1.409 . S
C385 H377 0.930 . S
C385 C383 1.419 . S
C385 C386 1.362 . S
C386 H378 0.930 1_455 S
C386 C385 1.362 . S
C386 C389 1.409 . S
C387 H379 0.950 . S
C387 C388 1.347 1_655 S
C387 C389 1.403 1_655 S
C388 C387 1.347 1_455 S
C388 C390 1.419 . S
C389 C384 1.425 . S
C389 C386 1.409 . S
C389 C387 1.403 1_455 S
C390 H380 0.930 . S
C390 C388 1.419 . S
C390 C391 1.362 . S
C391 H381 0.930 . S
C391 C384 1.409 . S
C391 C390 1.362 . S
H392 C398 0.930 . S
H393 C401 0.930 . S
H394 C402 0.930 . S
H395 C403 0.930 . S
H396 C406 0.930 . S
H397 C407 0.930 . S
C398 H392 0.930 . S
C398 C399 1.355 . S
C398 C400 1.415 . S
C399 C398 1.355 . S
C399 C401 1.419 . S
C400 C398 1.415 . S
C400 C405 1.425 . S
C400 C407 1.409 . S
C401 H393 0.930 . S
C401 C399 1.419 . S
C401 C402 1.362 . S
C402 H394 0.930 . S
C402 C401 1.362 . S
C402 C405 1.409 . S
C403 H395 0.930 . S
C403 C404 1.355 1_545 S
C403 C405 1.415 . S
C404 C403 1.355 1_565 S
C404 C406 1.419 . S
C405 C400 1.425 . S
C405 C402 1.409 . S
C405 C403 1.415 . S
C406 H396 0.930 . S
C406 C404 1.419 . S
C406 C407 1.362 1_565 S
C407 H397 0.930 . S
C407 C400 1.409 . S
C407 C406 1.362 1_545 S
H408 C414 0.930 . S
H409 C417 0.930 . S
H410 C418 0.930 . S
H411 C419 0.930 . S
H412 C422 0.930 . S
H413 C423 0.930 . S
C414 H408 0.930 . S
C414 C415 1.355 . S
C414 C416 1.415 . S
C415 C414 1.355 . S
C415 C417 1.419 . S
C416 C414 1.415 . S
C416 C421 1.425 . S
C416 C423 1.409 . S
C417 H409 0.930 . S
C417 C415 1.419 . S
C417 C418 1.362 . S
C418 H410 0.930 . S
C418 C417 1.362 . S
C418 C421 1.409 . S
C419 H411 0.930 . S
C419 C420 1.355 . S
C419 C421 1.415 . S
C420 C419 1.355 . S
C420 C422 1.419 . S
C421 C416 1.425 . S
C421 C418 1.409 . S
C421 C419 1.415 . S
C422 H412 0.930 . S
C422 C420 1.419 . S
C422 C423 1.362 . S
C423 H413 0.930 . S
C423 C416 1.409 . S
C423 C422 1.362 . S
H424 C430 0.930 . S
H425 C433 0.930 . S
H426 C434 0.930 . S
H427 C435 0.930 . S
H428 C438 0.930 . S
H429 C439 0.930 . S
C430 H424 0.930 . S
C430 C431 1.355 . S
C430 C432 1.415 . S
C431 C430 1.355 . S
C431 C433 1.419 . S
C432 C430 1.415 . S
C432 C437 1.425 . S
C432 C439 1.409 . S
C433 H425 0.930 . S
C433 C431 1.419 . S
C433 C434 1.362 . S
C434 H426 0.930 . S
C434 C433 1.362 . S
C434 C437 1.409 . S
C435 H427 0.930 . S
C435 C436 1.355 . S
C435 C437 1.415 . S
C436 C435 1.355 . S
C436 C438 1.419 . S
C437 C432 1.425 . S
C437 C434 1.409 . S
C437 C435 1.415 . S
C438 H428 0.930 . S
C438 C436 1.419 . S
C438 C439 1.362 . S
C439 H429 0.930 . S
C439 C432 1.409 . S
C439 C438 1.362 . S
H440 C446 0.930 1_455 S
H441 C449 0.930 . S
H442 C450 0.930 . S
H443 C451 0.930 . S
H444 C454 0.930 . S
H445 C455 0.930 . S
C446 H440 0.930 1_655 S
C446 C447 1.355 . S
C446 C448 1.408 1_655 S
C447 C446 1.355 . S
C447 C449 1.419 . S
C448 C446 1.408 1_455 S
C448 C453 1.410 1_455 S
C448 C455 1.431 . S
C449 H441 0.930 . S
C449 C447 1.419 . S
C449 C450 1.362 . S
C450 H442 0.930 . S
C450 C449 1.362 . S
C450 C453 1.409 . S
C451 H443 0.930 . S
C451 C452 1.355 1_655 S
C451 C453 1.415 . S
C452 C451 1.355 1_455 S
C452 C454 1.419 . S
C453 C448 1.410 1_655 S
C453 C450 1.409 . S
C453 C451 1.415 . S
C454 H444 0.930 . S
C454 C452 1.419 . S
C454 C455 1.362 . S
C455 H445 0.930 . S
C455 C448 1.431 . S
C455 C454 1.362 . S
H456 C462 0.931 . S
H457 C465 0.930 . S
H458 C466 0.930 . S
H459 C467 0.930 1_556 S
H460 C470 0.930 . S
H461 C471 0.930 . S
C462 H456 0.931 . S
C462 C463 1.355 . S
C462 C464 1.415 1_565 S
C463 C462 1.355 . S
C463 C465 1.419 . S
C464 C462 1.415 1_545 S
C464 C469 1.425 1_545 S
C464 C471 1.409 . S
C465 H457 0.930 . S
C465 C463 1.419 . S
C465 C466 1.362 . S
C466 H458 0.930 . S
C466 C465 1.362 . S
C466 C469 1.409 . S
C467 H459 0.930 1_554 S
C467 C468 1.355 . S
C467 C469 1.415 1_545 S
C468 C467 1.355 . S
C468 C470 1.419 . S
C469 C464 1.425 1_565 S
C469 C466 1.409 . S
C469 C467 1.415 1_565 S
C470 H460 0.930 . S
C470 C468 1.419 . S
C470 C471 1.362 . S
C471 H461 0.930 . S
C471 C464 1.409 . S
C471 C470 1.362 . S
H472 C478 0.930 . S
H473 C481 0.930 . S
H474 C482 0.930 1_556 S
H475 C483 0.930 . S
H476 C486 0.930 . S
H477 C487 0.930 . S
C478 H472 0.930 . S
C478 C479 1.355 . S
C478 C480 1.415 . S
C479 C478 1.355 . S
C479 C481 1.419 . S
C480 C478 1.415 . S
C480 C485 1.425 . S
C480 C487 1.409 . S
C481 H473 0.930 . S
C481 C479 1.419 . S
C481 C482 1.362 . S
C482 H474 0.930 1_554 S
C482 C481 1.362 . S
C482 C485 1.409 . S
C483 H475 0.930 . S
C483 C484 1.355 . S
C483 C485 1.415 1_556 S
C484 C483 1.355 . S
C484 C486 1.419 1_556 S
C485 C480 1.425 . S
C485 C482 1.409 . S
C485 C483 1.415 1_554 S
C486 H476 0.930 . S
C486 C484 1.419 1_554 S
C486 C487 1.362 . S
C487 H477 0.930 . S
C487 C480 1.409 . S
C487 C486 1.362 . S
H488 C494 0.930 . S
H489 C497 0.930 . S
H490 C498 0.930 . S
H491 C499 0.930 . S
H492 C502 0.930 . S
H493 C503 0.930 . S
C494 H488 0.930 . S
C494 C495 1.355 . S
C494 C496 1.415 . S
C495 C494 1.355 . S
C495 C497 1.419 . S
C496 C494 1.415 . S
C496 C501 1.425 . S
C496 C503 1.409 . S
C497 H489 0.930 . S
C497 C495 1.419 . S
C497 C498 1.362 . S
C498 H490 0.930 . S
C498 C497 1.362 . S
C498 C501 1.409 . S
C499 H491 0.930 . S
C499 C500 1.355 . S
C499 C501 1.415 . S
C500 C499 1.355 . S
C500 C502 1.419 . S
C501 C496 1.425 . S
C501 C498 1.409 . S
C501 C499 1.415 . S
C502 H492 0.930 . S
C502 C500 1.419 . S
C502 C503 1.362 . S
C503 H493 0.930 . S
C503 C496 1.409 . S
C503 C502 1.362 . S
H504 C510 0.930 . S
H505 C513 0.930 . S
H506 C514 0.930 . S
H507 C515 0.930 . S
H508 C518 0.930 1_655 S
H509 C519 0.930 1_655 S
C510 H504 0.930 . S
C510 C511 1.355 . S
C510 C512 1.415 . S
C511 C510 1.355 . S
C511 C513 1.419 . S
C512 C510 1.415 . S
C512 C517 1.425 . S
C512 C519 1.409 . S
C513 H505 0.930 . S
C513 C511 1.419 . S
C513 C514 1.362 . S
C514 H506 0.930 . S
C514 C513 1.362 . S
C514 C517 1.409 . S
C515 H507 0.930 . S
C515 C516 1.355 . S
C515 C517 1.415 . S
C516 C515 1.355 . S
C516 C518 1.419 . S
C517 C512 1.425 . S
C517 C514 1.409 . S
C517 C515 1.415 . S
C518 H508 0.930 1_455 S
C518 C516 1.419 . S
C518 C519 1.362 . S
C519 H509 0.930 1_455 S
C519 C512 1.409 . S
C519 C518 1.362 . S
H520 C526 0.930 . S
H521 C529 0.930 . S
H522 C530 0.930 . S
H523 C531 0.930 . S
H524 C534 0.930 . S
H525 C535 0.930 . S
C526 H520 0.930 . S
C526 C527 1.355 . S
C526 C528 1.415 . S
C527 C526 1.355 . S
C527 C529 1.419 . S
C528 C526 1.415 . S
C528 C533 1.425 . S
C528 C535 1.409 . S
C529 H521 0.930 . S
C529 C527 1.419 . S
C529 C530 1.362 . S
C530 H522 0.930 . S
C530 C529 1.362 . S
C530 C533 1.409 . S
C531 H523 0.930 . S
C531 C532 1.355 . S
C531 C533 1.415 . S
C532 C531 1.355 . S
C532 C534 1.419 . S
C533 C528 1.425 . S
C533 C530 1.409 . S
C533 C531 1.415 . S
C534 H524 0.930 . S
C534 C532 1.419 . S
C534 C535 1.362 . S
C535 H525 0.930 . S
C535 C528 1.409 . S
C535 C534 1.362 . S
H536 C542 0.930 . S
H537 C545 0.930 . S
H538 C546 0.930 . S
H539 C547 0.930 . S
H540 C550 0.930 . S
H541 C551 0.930 . S
C542 H536 0.930 . S
C542 C543 1.355 . S
C542 C544 1.415 . S
C543 C542 1.355 . S
C543 C545 1.419 . S
C544 C542 1.415 . S
C544 C549 1.425 . S
C544 C551 1.409 . S
C545 H537 0.930 . S
C545 C543 1.419 . S
C545 C546 1.362 . S
C546 H538 0.930 . S
C546 C545 1.362 . S
C546 C549 1.409 . S
C547 H539 0.930 . S
C547 C548 1.355 . S
C547 C549 1.415 . S
C548 C547 1.355 . S
C548 C550 1.419 . S
C549 C544 1.425 . S
C549 C546 1.409 . S
C549 C547 1.415 . S
C550 H540 0.930 . S
C550 C548 1.419 . S
C550 C551 1.362 . S
C551 H541 0.930 . S
C551 C544 1.409 . S
C551 C550 1.362 . S
H552 C558 0.930 . S
H553 C561 0.930 1_554 S
H554 C562 0.930 1_554 S
H555 C563 0.930 . S
H556 C566 0.930 . S
H557 C567 0.930 . S
C558 H552 0.930 . S
C558 C559 1.355 . S
C558 C560 1.415 . S
C559 C558 1.355 . S
C559 C561 1.419 . S
C560 C558 1.415 . S
C560 C565 1.425 . S
C560 C567 1.409 . S
C561 H553 0.930 1_556 S
C561 C559 1.419 . S
C561 C562 1.362 . S
C562 H554 0.930 1_556 S
C562 C561 1.362 . S
C562 C565 1.409 . S
C563 H555 0.930 . S
C563 C564 1.355 . S
C563 C565 1.415 . S
C564 C563 1.355 . S
C564 C566 1.419 . S
C565 C560 1.425 . S
C565 C562 1.409 . S
C565 C563 1.415 . S
C566 H556 0.930 . S
C566 C564 1.419 . S
C566 C567 1.362 . S
C567 H557 0.930 . S
C567 C560 1.409 . S
C567 C566 1.362 . S
H568 C574 0.930 . S
H569 C577 0.930 . S
H570 C578 0.930 . S
H571 C579 0.930 . S
H572 C582 0.930 . S
H573 C583 0.930 . S
C574 H568 0.930 . S
C574 C575 1.355 . S
C574 C576 1.415 . S
C575 C574 1.355 . S
C575 C577 1.419 1_655 S
C576 C574 1.415 . S
C576 C581 1.425 . S
C576 C583 1.409 . S
C577 H569 0.930 . S
C577 C575 1.419 1_455 S
C577 C578 1.362 . S
C578 H570 0.930 . S
C578 C577 1.362 . S
C578 C581 1.409 1_455 S
C579 H571 0.930 . S
C579 C580 1.355 1_455 S
C579 C581 1.415 1_455 S
C580 C579 1.355 1_655 S
C580 C582 1.419 . S
C581 C576 1.425 . S
C581 C578 1.409 1_655 S
C581 C579 1.415 1_655 S
C582 H572 0.930 . S
C582 C580 1.419 . S
C582 C583 1.362 . S
C583 H573 0.930 . S
C583 C576 1.409 . S
C583 C582 1.362 . S
H584 C590 0.930 . S
H585 C593 0.930 . S
H586 C594 0.930 . S
H587 C595 0.930 . S
H588 C598 0.930 . S
H589 C599 0.930 . S
C590 H584 0.930 . S
C590 C591 1.355 . S
C590 C592 1.415 . S
C591 C590 1.355 . S
C591 C593 1.419 . S
C592 C590 1.415 . S
C592 C597 1.425 . S
C592 C599 1.409 . S
C593 H585 0.930 . S
C593 C591 1.419 . S
C593 C594 1.362 . S
C594 H586 0.930 . S
C594 C593 1.362 . S
C594 C597 1.409 . S
C595 H587 0.930 . S
C595 C596 1.355 . S
C595 C597 1.415 . S
C596 C595 1.355 . S
C596 C598 1.419 . S
C597 C592 1.425 . S
C597 C594 1.409 . S
C597 C595 1.415 . S
C598 H588 0.930 . S
C598 C596 1.419 . S
C598 C599 1.362 . S
C599 H589 0.930 . S
C599 C592 1.409 . S
C599 C598 1.362 . S
H600 C606 0.930 . S
H601 C609 0.930 . S
H602 C610 0.930 . S
H603 C611 0.930 . S
H604 C614 0.930 . S
H605 C615 0.930 . S
C606 H600 0.930 . S
C606 C607 1.355 . S
C606 C608 1.415 . S
C607 C606 1.355 . S
C607 C609 1.419 . S
C608 C606 1.415 . S
C608 C613 1.425 . S
C608 C615 1.409 . S
C609 H601 0.930 . S
C609 C607 1.419 . S
C609 C610 1.362 . S
C610 H602 0.930 . S
C610 C609 1.362 . S
C610 C613 1.409 . S
C611 H603 0.930 . S
C611 C612 1.355 . S
C611 C613 1.415 . S
C612 C611 1.355 . S
C612 C614 1.419 . S
C613 C608 1.425 . S
C613 C610 1.409 . S
C613 C611 1.415 . S
C614 H604 0.930 . S
C614 C612 1.419 . S
C614 C615 1.362 . S
C615 H605 0.930 . S
C615 C608 1.409 . S
C615 C614 1.362 . S
H616 C622 0.930 . S
H617 C625 0.930 . S
H618 C626 0.930 . S
H619 C627 0.930 . S
H620 C630 0.930 . S
H621 C631 0.930 . S
C622 H616 0.930 . S
C622 C623 1.355 . S
C622 C624 1.415 . S
C623 C622 1.355 . S
C623 C625 1.419 . S
C624 C622 1.415 . S
C624 C629 1.425 . S
C624 C631 1.409 . S
C625 H617 0.930 . S
C625 C623 1.419 . S
C625 C626 1.362 . S
C626 H618 0.930 . S
C626 C625 1.362 . S
C626 C629 1.409 . S
C627 H619 0.930 . S
C627 C628 1.355 . S
C627 C629 1.415 . S
C628 C627 1.355 . S
C628 C630 1.419 . S
C629 C624 1.425 . S
C629 C626 1.409 . S
C629 C627 1.415 . S
C630 H620 0.930 . S
C630 C628 1.419 . S
C630 C631 1.362 . S
C631 H621 0.930 . S
C631 C624 1.409 . S
C631 C630 1.362 . S
C255 C74 2.219 . S
C260 C119 2.343 . S
C276 C145 1.932 . S
C271 C85 1.796 . S
C292 C185 1.958 . S
C287 C52 1.874 . S
C308 C239 2.348 . S
C303 C63 2.244 . S
C324 C100 2.334 1_565 S
C319 C30 2.150 . S
C335 C41 1.771 . S
C340 C130 1.907 . S
C351 C8 1.772 . S
C356 C170 1.961 . S
C367 C19 2.164 . S
C372 C220 2.328 1_655 S
C388 C96 0.633 . S
C383 C62 0.669 . S
C404 C157 0.937 . S
C399 C73 0.930 . S
C420 C197 0.717 . S
C415 C84 0.773 . S
C431 C51 0.541 . S
C436 C216 0.494 . S
C447 C18 0.804 . S
C452 C117 0.719 . S
C468 C136 0.886 1_554 S
C463 C29 0.880 . S
C484 C176 0.699 . S
C479 C40 0.706 . S
C495 C7 0.518 . S
C500 C237 0.612 . S
C511 C60 1.702 . S
C516 C90 2.197 . S
C527 C71 2.142 . S
C532 C140 2.628 . S
C548 C180 2.414 . S
C543 C82 1.806 . S
C564 C210 1.954 . S
C559 C49 1.522 . S
C575 C16 1.536 . S
C580 C105 2.188 . S
C596 C159 2.621 . S
C591 C27 2.054 . S
C612 C199 2.412 . S
C607 C38 2.070 . S
C623 C5 1.460 . S
C628 C225 1.964 . S
