# Generated by pormake.
# Topology iac, (4,6)-cn, num edge types: 1
# Building blocks:
#     Node 0, Type 0, BuildingBlock: QUQFOY_clean_sbu_1, # of connection points: 4
#     Node 1, Type 0, BuildingBlock: QUQFOY_clean_sbu_1, # of connection points: 4
#     Node 2, Type 0, BuildingBlock: QUQFOY_clean_sbu_1, # of connection points: 4
#     Node 3, Type 0, BuildingBlock: QUQFOY_clean_sbu_1, # of connection points: 4
#     Node 4, Type 0, BuildingBlock: QUQFOY_clean_sbu_1, # of connection points: 4
#     Node 5, Type 0, BuildingBlock: QUQFOY_clean_sbu_1, # of connection points: 4
#     Node 6, Type 0, BuildingBlock: QUQFOY_clean_sbu_1, # of connection points: 4
#     Node 7, Type 0, BuildingBlock: QUQFOY_clean_sbu_1, # of connection points: 4
#     Node 8, Type 0, BuildingBlock: QUQFOY_clean_sbu_1, # of connection points: 4
#     Node 9, Type 0, BuildingBlock: QUQFOY_clean_sbu_1, # of connection points: 4
#     Node 10, Type 0, BuildingBlock: QUQFOY_clean_sbu_1, # of connection points: 4
#     Node 11, Type 0, BuildingBlock: QUQFOY_clean_sbu_1, # of connection points: 4
#     Node 12, Type 0, BuildingBlock: QUQFOY_clean_sbu_1, # of connection points: 4
#     Node 13, Type 0, BuildingBlock: QUQFOY_clean_sbu_1, # of connection points: 4
#     Node 14, Type 0, BuildingBlock: QUQFOY_clean_sbu_1, # of connection points: 4
#     Node 15, Type 0, BuildingBlock: QUQFOY_clean_sbu_1, # of connection points: 4
#     Node 16, Type 0, BuildingBlock: QUQFOY_clean_sbu_1, # of connection points: 4
#     Node 17, Type 0, BuildingBlock: QUQFOY_clean_sbu_1, # of connection points: 4
#     Node 18, Type 0, BuildingBlock: QUQFOY_clean_sbu_1, # of connection points: 4
#     Node 19, Type 0, BuildingBlock: QUQFOY_clean_sbu_1, # of connection points: 4
#     Node 20, Type 0, BuildingBlock: QUQFOY_clean_sbu_1, # of connection points: 4
#     Node 21, Type 0, BuildingBlock: QUQFOY_clean_sbu_1, # of connection points: 4
#     Node 22, Type 0, BuildingBlock: QUQFOY_clean_sbu_1, # of connection points: 4
#     Node 23, Type 0, BuildingBlock: QUQFOY_clean_sbu_1, # of connection points: 4
#     Node 24, Type 1, BuildingBlock: LEVNOQ01_clean_sbu_1, # of connection points: 6
#     Node 25, Type 1, BuildingBlock: LEVNOQ01_clean_sbu_1, # of connection points: 6
#     Node 26, Type 1, BuildingBlock: LEVNOQ01_clean_sbu_1, # of connection points: 6
#     Node 27, Type 1, BuildingBlock: LEVNOQ01_clean_sbu_1, # of connection points: 6
#     Node 28, Type 1, BuildingBlock: LEVNOQ01_clean_sbu_1, # of connection points: 6
#     Node 29, Type 1, BuildingBlock: LEVNOQ01_clean_sbu_1, # of connection points: 6
#     Node 30, Type 1, BuildingBlock: LEVNOQ01_clean_sbu_1, # of connection points: 6
#     Node 31, Type 1, BuildingBlock: LEVNOQ01_clean_sbu_1, # of connection points: 6
#     Node 32, Type 1, BuildingBlock: LEVNOQ01_clean_sbu_1, # of connection points: 6
#     Node 33, Type 1, BuildingBlock: LEVNOQ01_clean_sbu_1, # of connection points: 6
#     Node 34, Type 1, BuildingBlock: LEVNOQ01_clean_sbu_1, # of connection points: 6
#     Node 35, Type 1, BuildingBlock: LEVNOQ01_clean_sbu_1, # of connection points: 6
#     Node 36, Type 1, BuildingBlock: LEVNOQ01_clean_sbu_1, # of connection points: 6
#     Node 37, Type 1, BuildingBlock: LEVNOQ01_clean_sbu_1, # of connection points: 6
#     Node 38, Type 1, BuildingBlock: LEVNOQ01_clean_sbu_1, # of connection points: 6
#     Node 39, Type 1, BuildingBlock: LEVNOQ01_clean_sbu_1, # of connection points: 6
#     Edge 40, Type (0, 1), BuildingBlock: XUDNAN_clean_linker_2, # of connection points: 2
#     Edge 41, Type (0, 1), BuildingBlock: XUDNAN_clean_linker_2, # of connection points: 2
#     Edge 42, Type (0, 1), BuildingBlock: XUDNAN_clean_linker_2, # of connection points: 2
#     Edge 43, Type (0, 1), BuildingBlock: XUDNAN_clean_linker_2, # of connection points: 2
#     Edge 44, Type (0, 1), BuildingBlock: XUDNAN_clean_linker_2, # of connection points: 2
#     Edge 45, Type (0, 1), BuildingBlock: XUDNAN_clean_linker_2, # of connection points: 2
#     Edge 46, Type (0, 1), BuildingBlock: XUDNAN_clean_linker_2, # of connection points: 2
#     Edge 47, Type (0, 1), BuildingBlock: XUDNAN_clean_linker_2, # of connection points: 2
#     Edge 48, Type (0, 1), BuildingBlock: XUDNAN_clean_linker_2, # of connection points: 2
#     Edge 49, Type (0, 1), BuildingBlock: XUDNAN_clean_linker_2, # of connection points: 2
#     Edge 50, Type (0, 1), BuildingBlock: XUDNAN_clean_linker_2, # of connection points: 2
#     Edge 51, Type (0, 1), BuildingBlock: XUDNAN_clean_linker_2, # of connection points: 2
#     Edge 52, Type (0, 1), BuildingBlock: XUDNAN_clean_linker_2, # of connection points: 2
#     Edge 53, Type (0, 1), BuildingBlock: XUDNAN_clean_linker_2, # of connection points: 2
#     Edge 54, Type (0, 1), BuildingBlock: XUDNAN_clean_linker_2, # of connection points: 2
#     Edge 55, Type (0, 1), BuildingBlock: XUDNAN_clean_linker_2, # of connection points: 2
#     Edge 56, Type (0, 1), BuildingBlock: XUDNAN_clean_linker_2, # of connection points: 2
#     Edge 57, Type (0, 1), BuildingBlock: XUDNAN_clean_linker_2, # of connection points: 2
#     Edge 58, Type (0, 1), BuildingBlock: XUDNAN_clean_linker_2, # of connection points: 2
#     Edge 59, Type (0, 1), BuildingBlock: XUDNAN_clean_linker_2, # of connection points: 2
#     Edge 60, Type (0, 1), BuildingBlock: XUDNAN_clean_linker_2, # of connection points: 2
#     Edge 61, Type (0, 1), BuildingBlock: XUDNAN_clean_linker_2, # of connection points: 2
#     Edge 62, Type (0, 1), BuildingBlock: XUDNAN_clean_linker_2, # of connection points: 2
#     Edge 63, Type (0, 1), BuildingBlock: XUDNAN_clean_linker_2, # of connection points: 2
#     Edge 64, Type (0, 1), BuildingBlock: XUDNAN_clean_linker_2, # of connection points: 2
#     Edge 65, Type (0, 1), BuildingBlock: XUDNAN_clean_linker_2, # of connection points: 2
#     Edge 66, Type (0, 1), BuildingBlock: XUDNAN_clean_linker_2, # of connection points: 2
#     Edge 67, Type (0, 1), BuildingBlock: XUDNAN_clean_linker_2, # of connection points: 2
#     Edge 68, Type (0, 1), BuildingBlock: XUDNAN_clean_linker_2, # of connection points: 2
#     Edge 69, Type (0, 1), BuildingBlock: XUDNAN_clean_linker_2, # of connection points: 2
#     Edge 70, Type (0, 1), BuildingBlock: XUDNAN_clean_linker_2, # of connection points: 2
#     Edge 71, Type (0, 1), BuildingBlock: XUDNAN_clean_linker_2, # of connection points: 2
#     Edge 72, Type (0, 1), BuildingBlock: XUDNAN_clean_linker_2, # of connection points: 2
#     Edge 73, Type (0, 1), BuildingBlock: XUDNAN_clean_linker_2, # of connection points: 2
#     Edge 74, Type (0, 1), BuildingBlock: XUDNAN_clean_linker_2, # of connection points: 2
#     Edge 75, Type (0, 1), BuildingBlock: XUDNAN_clean_linker_2, # of connection points: 2
#     Edge 76, Type (0, 1), BuildingBlock: XUDNAN_clean_linker_2, # of connection points: 2
#     Edge 77, Type (0, 1), BuildingBlock: XUDNAN_clean_linker_2, # of connection points: 2
#     Edge 78, Type (0, 1), BuildingBlock: XUDNAN_clean_linker_2, # of connection points: 2
#     Edge 79, Type (0, 1), BuildingBlock: XUDNAN_clean_linker_2, # of connection points: 2
#     Edge 80, Type (0, 1), BuildingBlock: XUDNAN_clean_linker_2, # of connection points: 2
#     Edge 81, Type (0, 1), BuildingBlock: XUDNAN_clean_linker_2, # of connection points: 2
#     Edge 82, Type (0, 1), BuildingBlock: XUDNAN_clean_linker_2, # of connection points: 2
#     Edge 83, Type (0, 1), BuildingBlock: XUDNAN_clean_linker_2, # of connection points: 2
#     Edge 84, Type (0, 1), BuildingBlock: XUDNAN_clean_linker_2, # of connection points: 2
#     Edge 85, Type (0, 1), BuildingBlock: XUDNAN_clean_linker_2, # of connection points: 2
#     Edge 86, Type (0, 1), BuildingBlock: XUDNAN_clean_linker_2, # of connection points: 2
#     Edge 87, Type (0, 1), BuildingBlock: XUDNAN_clean_linker_2, # of connection points: 2
#     Edge 88, Type (0, 1), BuildingBlock: XUDNAN_clean_linker_2, # of connection points: 2
#     Edge 89, Type (0, 1), BuildingBlock: XUDNAN_clean_linker_2, # of connection points: 2
#     Edge 90, Type (0, 1), BuildingBlock: XUDNAN_clean_linker_2, # of connection points: 2
#     Edge 91, Type (0, 1), BuildingBlock: XUDNAN_clean_linker_2, # of connection points: 2
#     Edge 92, Type (0, 1), BuildingBlock: XUDNAN_clean_linker_2, # of connection points: 2
#     Edge 93, Type (0, 1), BuildingBlock: XUDNAN_clean_linker_2, # of connection points: 2
#     Edge 94, Type (0, 1), BuildingBlock: XUDNAN_clean_linker_2, # of connection points: 2
#     Edge 95, Type (0, 1), BuildingBlock: XUDNAN_clean_linker_2, # of connection points: 2
#     Edge 96, Type (0, 1), BuildingBlock: XUDNAN_clean_linker_2, # of connection points: 2
#     Edge 97, Type (0, 1), BuildingBlock: XUDNAN_clean_linker_2, # of connection points: 2
#     Edge 98, Type (0, 1), BuildingBlock: XUDNAN_clean_linker_2, # of connection points: 2
#     Edge 99, Type (0, 1), BuildingBlock: XUDNAN_clean_linker_2, # of connection points: 2
#     Edge 100, Type (0, 1), BuildingBlock: XUDNAN_clean_linker_2, # of connection points: 2
#     Edge 101, Type (0, 1), BuildingBlock: XUDNAN_clean_linker_2, # of connection points: 2
#     Edge 102, Type (0, 1), BuildingBlock: XUDNAN_clean_linker_2, # of connection points: 2
#     Edge 103, Type (0, 1), BuildingBlock: XUDNAN_clean_linker_2, # of connection points: 2
#     Edge 104, Type (0, 1), BuildingBlock: XUDNAN_clean_linker_2, # of connection points: 2
#     Edge 105, Type (0, 1), BuildingBlock: XUDNAN_clean_linker_2, # of connection points: 2
#     Edge 106, Type (0, 1), BuildingBlock: XUDNAN_clean_linker_2, # of connection points: 2
#     Edge 107, Type (0, 1), BuildingBlock: XUDNAN_clean_linker_2, # of connection points: 2
#     Edge 108, Type (0, 1), BuildingBlock: XUDNAN_clean_linker_2, # of connection points: 2
#     Edge 109, Type (0, 1), BuildingBlock: XUDNAN_clean_linker_2, # of connection points: 2
#     Edge 110, Type (0, 1), BuildingBlock: XUDNAN_clean_linker_2, # of connection points: 2
#     Edge 111, Type (0, 1), BuildingBlock: XUDNAN_clean_linker_2, # of connection points: 2
#     Edge 112, Type (0, 1), BuildingBlock: XUDNAN_clean_linker_2, # of connection points: 2
#     Edge 113, Type (0, 1), BuildingBlock: XUDNAN_clean_linker_2, # of connection points: 2
#     Edge 114, Type (0, 1), BuildingBlock: XUDNAN_clean_linker_2, # of connection points: 2
#     Edge 115, Type (0, 1), BuildingBlock: XUDNAN_clean_linker_2, # of connection points: 2
#     Edge 116, Type (0, 1), BuildingBlock: XUDNAN_clean_linker_2, # of connection points: 2
#     Edge 117, Type (0, 1), BuildingBlock: XUDNAN_clean_linker_2, # of connection points: 2
#     Edge 118, Type (0, 1), BuildingBlock: XUDNAN_clean_linker_2, # of connection points: 2
#     Edge 119, Type (0, 1), BuildingBlock: XUDNAN_clean_linker_2, # of connection points: 2
#     Edge 120, Type (0, 1), BuildingBlock: XUDNAN_clean_linker_2, # of connection points: 2
#     Edge 121, Type (0, 1), BuildingBlock: XUDNAN_clean_linker_2, # of connection points: 2
#     Edge 122, Type (0, 1), BuildingBlock: XUDNAN_clean_linker_2, # of connection points: 2
#     Edge 123, Type (0, 1), BuildingBlock: XUDNAN_clean_linker_2, # of connection points: 2
#     Edge 124, Type (0, 1), BuildingBlock: XUDNAN_clean_linker_2, # of connection points: 2
#     Edge 125, Type (0, 1), BuildingBlock: XUDNAN_clean_linker_2, # of connection points: 2
#     Edge 126, Type (0, 1), BuildingBlock: XUDNAN_clean_linker_2, # of connection points: 2
#     Edge 127, Type (0, 1), BuildingBlock: XUDNAN_clean_linker_2, # of connection points: 2
#     Edge 128, Type (0, 1), BuildingBlock: XUDNAN_clean_linker_2, # of connection points: 2
#     Edge 129, Type (0, 1), BuildingBlock: XUDNAN_clean_linker_2, # of connection points: 2
#     Edge 130, Type (0, 1), BuildingBlock: XUDNAN_clean_linker_2, # of connection points: 2
#     Edge 131, Type (0, 1), BuildingBlock: XUDNAN_clean_linker_2, # of connection points: 2
#     Edge 132, Type (0, 1), BuildingBlock: XUDNAN_clean_linker_2, # of connection points: 2
#     Edge 133, Type (0, 1), BuildingBlock: XUDNAN_clean_linker_2, # of connection points: 2
#     Edge 134, Type (0, 1), BuildingBlock: XUDNAN_clean_linker_2, # of connection points: 2
#     Edge 135, Type (0, 1), BuildingBlock: XUDNAN_clean_linker_2, # of connection points: 2
# Relax obj value: 0.119
# Max RMSD: 0.181
# Mean RMSD: 0.148
data_MOF--net-iac--node1-QUQFOY_clean_sbu_1--node2-LEVNOQ01_clean_sbu_1--edge1-XUDNAN_clean_linker_2
_symmetry_space_group_name_H-M    P1
_symmetry_Int_Tables_number       1
_symmetry_cell_setting            triclinic
loop_
_symmetry_equiv_pos_as_xyz
'x, y, z'
_cell_length_a     55.734637
_cell_length_b     55.214516
_cell_length_c     55.477469
_cell_angle_alpha  91.29578
_cell_angle_beta   90.294567
_cell_angle_gamma 93.215587
loop_
_atom_site_label
_atom_site_type_symbol
_atom_site_fract_x
_atom_site_fract_y
_atom_site_fract_z
_atom_type_partial_charge
O0 O 0.99117 0.21602 0.11257 0.0
Cd1 Cd -0.00792 0.24446 0.13662 0.0
Cd2 Cd 0.02072 0.26185 0.10148 0.0
O3 O 0.01198 0.22993 0.08175 0.0
O4 O 0.96928 0.22901 0.1594 0.0
O5 O 0.96102 0.26177 0.13949 0.0
C6 C 0.95388 0.24417 0.15306 0.0
C7 C 0.00443 0.29871 0.09365 0.0
C8 C -0.00067 0.21306 0.09154 0.0
C9 C 0.04373 0.25615 0.14956 0.0
O10 O 0.04743 0.26115 0.12754 0.0
O11 O 0.02271 0.25038 0.15704 0.0
O12 O 0.02249 0.29153 0.08141 0.0
O13 O -0.00474 0.28471 0.10991 0.0
O14 O 0.02954 0.74545 0.35834 0.0
Cd15 Cd 0.00156 0.75076 0.3825 0.0
Cd16 Cd 0.99123 0.78059 0.34499 0.0
O17 O 0.01967 0.76699 0.32704 0.0
O18 O 0.01233 0.73588 0.41263 0.0
O19 O 0.98166 0.72066 0.39039 0.0
C20 C -0.00484 0.71959 0.40928 0.0
C21 C 0.95113 0.77279 0.33674 0.0
C22 C 0.03351 0.7527 0.33704 0.0
C23 C 0.99126 0.80464 0.39007 0.0
O24 O -0.00335 0.80926 0.36847 0.0
O25 O 0.99046 0.78292 0.3971 0.0
O26 O 0.96381 0.78863 0.32472 0.0
O27 O 0.96177 0.75957 0.35198 0.0
O28 O 0.48365 0.72663 0.62142 0.0
Cd29 Cd 0.48297 0.76045 0.63771 0.0
Cd30 Cd 0.51161 0.77199 0.60144 0.0
O31 O 0.50559 0.73625 0.58978 0.0
O32 O 0.45627 0.75507 0.66088 0.0
O33 O 0.45596 0.78323 0.63323 0.0
C34 C 0.44537 0.77204 0.65065 0.0
C35 C 0.49865 0.8047 0.58023 0.0
C36 C 0.49416 0.72039 0.60219 0.0
C37 C 0.53359 0.7748 0.65101 0.0
O38 O 0.53724 0.77758 0.62855 0.0
O39 O 0.51271 0.76893 0.65874 0.0
O40 O 0.51748 0.79381 0.57344 0.0
O41 O 0.48702 0.79671 0.59875 0.0
O42 O 0.53696 0.24986 0.87063 0.0
Cd43 Cd 0.50486 0.25155 0.88974 0.0
Cd44 Cd 0.4958 0.27712 0.85098 0.0
O45 O 0.52729 0.26764 0.83693 0.0
O46 O 0.51083 0.23397 0.91974 0.0
O47 O 0.48508 0.22005 0.8914 0.0
C48 C 0.49537 0.2174 0.91198 0.0
C49 C 0.45838 0.26383 0.83813 0.0
C50 C 0.54216 0.25669 0.84943 0.0
C51 C 0.49031 0.30378 0.89465 0.0
O52 O 0.49583 0.30687 0.87282 0.0
O53 O 0.49093 0.28292 0.90371 0.0
O54 O 0.47048 0.28076 0.82696 0.0
O55 O 0.46858 0.25282 0.8554 0.0
O56 O 0.10615 0.98337 0.22076 0.0
Cd57 Cd 0.13485 0.99187 0.2437 0.0
Cd58 Cd 0.10048 0.01132 0.26844 0.0
O59 O 0.07665 -0.00376 0.24304 0.0
O60 O 0.15889 0.96925 0.23179 0.0
O61 O 0.14419 0.96815 0.26875 0.0
C62 C 0.15741 0.95892 0.25237 0.0
C63 C 0.0989 0.00169 0.30889 0.0
C64 C 0.08389 0.98624 0.22376 0.0
C65 C 0.13863 0.04556 0.24826 0.0
O66 O 0.11835 0.04321 0.25861 0.0
O67 O 0.1498 0.02693 0.24216 0.0
O68 O 0.08407 0.01625 0.29991 0.0
O69 O 0.11438 0.99226 0.29489 0.0
O70 O 0.22388 0.87049 0.54056 0.0
Cd71 Cd 0.23572 0.89446 0.51463 0.0
Cd72 Cd 0.25623 0.8547 0.50063 0.0
O73 O 0.24354 0.83827 0.53081 0.0
O74 O 0.21685 0.92216 0.52446 0.0
O75 O 0.21199 0.90352 0.4889 0.0
C76 C 0.20534 0.91959 0.50434 0.0
C77 C 0.24408 0.84089 0.4633 0.0
C78 C 0.22923 0.84891 0.54454 0.0
C79 C 0.28944 0.89716 0.5095 0.0
O80 O 0.2875 0.87514 0.50259 0.0
O81 O 0.27111 0.90847 0.51562 0.0
O82 O 0.25972 0.82978 0.47552 0.0
O83 O 0.23477 0.85975 0.47282 0.0
O84 O 0.38419 0.0234 0.71316 0.0
Cd85 Cd 0.36168 0.01677 0.74202 0.0
Cd86 Cd 0.40452 0.00088 0.75553 0.0
O87 O 0.42059 0.01809 0.72712 0.0
O88 O 0.33186 0.02725 0.7269 0.0
O89 O 0.34946 0.04714 0.75777 0.0
C90 C 0.33319 0.04605 0.74106 0.0
C91 C 0.41173 0.0067 0.79583 0.0
C92 C 0.40683 0.02469 0.71054 0.0
C93 C 0.36576 0.96405 0.7521 0.0
O94 O 0.38815 0.96757 0.7491 0.0
O95 O 0.35211 0.98174 0.75284 0.0
O96 O 0.42646 -0.00468 0.78237 0.0
O97 O 0.39416 0.01722 0.78588 0.0
O98 O 0.27784 0.12278 0.03088 0.0
Cd99 Cd 0.27127 0.10664 -0.00247 0.0
Cd100 Cd 0.25346 0.14774 0.9871 0.0
O101 O 0.26812 0.15915 0.01998 0.0
O102 O 0.2956 0.08213 0.99385 0.0
O103 O 0.29533 0.11524 0.97184 0.0
C104 C 0.30582 0.09603 0.97808 0.0
C105 C 0.25304 0.1738 0.95449 0.0
C106 C 0.276 0.14516 0.03571 0.0
C107 C 0.21882 0.10424 0.99116 0.0
O108 O 0.22184 0.12706 0.98958 0.0
O109 O 0.23678 0.09115 0.99287 0.0
O110 O 0.24141 0.17783 0.974 0.0
O111 O 0.26642 0.15546 0.95385 0.0
O112 O 0.73774 0.37656 0.04382 0.0
Cd113 Cd 0.7447 0.40162 0.0179 0.0
Cd114 Cd 0.7484 0.36307 0.98774 0.0
O115 O 0.73454 0.34611 0.01743 0.0
O116 O 0.72942 0.43228 0.0253 0.0
O117 O 0.71806 0.40681 -0.00494 0.0
C118 C 0.71526 0.42666 0.0073 0.0
C119 C 0.74452 0.34025 0.95222 0.0
C120 C 0.73331 0.35418 0.03893 0.0
C121 C 0.79263 0.39564 -0.0015 0.0
O122 O 0.78338 0.37643 0.9887 0.0
O123 O 0.7799 0.4097 0.01065 0.0
O124 O 0.75595 0.3331 0.97059 0.0
O125 O 0.73339 0.36003 0.9544 0.0
O126 O 0.87708 0.50716 0.20841 0.0
Cd127 Cd 0.84869 0.50801 0.23172 0.0
Cd128 Cd 0.88265 0.50907 0.26257 0.0
O129 O 0.90117 0.52587 0.23501 0.0
O130 O 0.82309 0.52261 0.2134 0.0
O131 O 0.8404 0.53995 0.24616 0.0
C132 C 0.82577 0.54106 0.22809 0.0
C133 C 0.89578 0.51734 0.30153 0.0
C134 C 0.8968 0.51869 0.21352 0.0
C135 C 0.85265 0.46278 0.25426 0.0
O136 O 0.87317 0.47228 0.26002 0.0
O137 O 0.83704 0.47548 0.24476 0.0
O138 O 0.90886 0.50699 0.28581 0.0
O139 O 0.87554 0.52518 0.29455 0.0
O140 O 0.76111 0.63224 0.52534 0.0
Cd141 Cd 0.75888 0.60977 0.4954 0.0
Cd142 Cd 0.7458 0.64853 0.47347 0.0
O143 O 0.75144 0.66533 0.50694 0.0
O144 O 0.7787 0.5826 0.5045 0.0
O145 O 0.78786 0.60718 0.4744 0.0
C146 C 0.79341 0.58955 0.48784 0.0
C147 C 0.76302 0.66292 0.4379 0.0
C148 C 0.75712 0.6546 0.52601 0.0
C149 C 0.70818 0.60828 0.4772 0.0
O150 O 0.71298 0.62969 0.47003 0.0
O151 O 0.72444 0.59633 0.48686 0.0
O152 O 0.74658 0.67433 0.44893 0.0
O153 O 0.7705 0.64369 0.44763 0.0
O154 O 0.60958 0.49111 0.7208 0.0
Cd155 Cd 0.63903 0.49488 0.74364 0.0
Cd156 Cd 0.60666 0.50686 0.77495 0.0
O157 O 0.58299 0.50446 0.74648 0.0
O158 O 0.66188 0.47041 0.73298 0.0
O159 O 0.64425 0.47023 0.76876 0.0
C160 C 0.65791 0.46004 0.75334 0.0
C161 C 0.59433 0.49082 0.8116 0.0
C162 C 0.58841 0.4972 0.72547 0.0
C163 C 0.64524 0.545 0.76231 0.0
O164 O 0.62785 0.53842 0.77583 0.0
O165 O 0.65385 0.52992 0.74748 0.0
O166 O 0.58632 0.51066 0.80393 0.0
O167 O 0.60929 0.47962 0.79845 0.0
O168 O 0.04143 0.74719 0.86799 0.0
Cd169 Cd 0.0141 0.7452 0.89221 0.0
Cd170 Cd 0.98699 0.76182 0.85536 0.0
O171 O 0.01899 0.75732 0.83741 0.0
O172 O 0.02348 0.72142 0.91627 0.0
O173 O -0.00647 0.71451 0.88997 0.0
C174 C 0.00717 0.70667 0.90669 0.0
C175 C 0.95306 0.75083 0.83226 0.0
C176 C 0.03907 0.75143 0.84577 0.0
C177 C -0.00715 0.79285 0.90103 0.0
O178 O 0.98392 0.79022 0.87998 0.0
O179 O 0.00553 0.77674 0.90979 0.0
O180 O 0.96491 0.77122 0.82942 0.0
O181 O 0.96019 0.73657 0.84864 0.0
O182 O -0.00284 0.20865 0.63372 0.0
Cd183 Cd -0.00279 0.23908 0.65551 0.0
Cd184 Cd 0.00886 0.26218 0.61642 0.0
O185 O -0.0077 0.23077 0.60183 0.0
O186 O 0.97497 0.22968 0.68165 0.0
O187 O 0.96778 0.25834 0.65552 0.0
C188 C 0.96049 0.24484 0.67309 0.0
C189 C 0.00331 0.29756 0.59537 0.0
C190 C -0.00794 0.21017 0.61159 0.0
C191 C 0.04691 0.25586 0.65442 0.0
O192 O 0.0422 0.25953 0.63243 0.0
O193 O 0.03008 0.25052 0.66901 0.0
O194 O 0.01669 0.28106 0.58714 0.0
O195 O -0.00707 0.29403 0.61586 0.0
O196 O 0.51325 0.20972 0.38457 0.0
Cd197 Cd 0.51255 0.23696 0.36059 0.0
Cd198 Cd 0.49075 0.25971 0.39722 0.0
O199 O 0.50178 0.23023 0.41668 0.0
O200 O 0.53992 0.23268 0.33851 0.0
O201 O 0.5371 0.26437 0.36353 0.0
C202 C 0.54912 0.2529 0.3475 0.0
C203 C 0.49635 0.29989 0.41054 0.0
C204 C 0.5094 0.21098 0.40706 0.0
C205 C 0.46285 0.24865 0.35079 0.0
O206 O 0.46259 0.2557 0.37274 0.0
O207 O 0.48164 0.24071 0.34141 0.0
O208 O 0.48051 0.28534 0.42031 0.0
O209 O 0.5103 0.29107 0.39446 0.0
O210 O 0.48849 0.71029 0.13885 0.0
Cd211 Cd 0.49149 0.74391 0.15513 0.0
Cd212 Cd 0.49896 0.7572 0.11045 0.0
O213 O 0.48004 0.72468 0.10318 0.0
O214 O 0.47331 0.74286 0.18627 0.0
O215 O 0.46138 0.76203 0.15398 0.0
C216 C 0.45729 0.75495 0.17567 0.0
C217 C 0.48962 0.7948 0.09752 0.0
C218 C 0.48117 0.70693 0.11728 0.0
C219 C 0.54158 0.75821 0.1425 0.0
O220 O 0.53424 0.75599 0.12084 0.0
O221 O 0.52671 0.75726 0.15987 0.0
O222 O 0.49852 0.77942 0.08264 0.0
O223 O 0.48426 0.78786 0.11902 0.0
O224 O 0.871 0.01684 0.71543 0.0
Cd225 Cd 0.85273 0.01372 0.74717 0.0
Cd226 Cd 0.89277 -0.00493 0.76267 0.0
O227 O 0.9041 0.00079 0.7279 0.0
O228 O 0.82745 0.03698 0.74319 0.0
O229 O 0.85565 0.04081 0.77172 0.0
C230 C 0.83749 0.04933 0.76086 0.0
C231 C 0.91718 0.00717 0.79515 0.0
C232 C 0.89199 0.01015 0.71139 0.0
C233 C 0.84752 0.96282 0.76379 0.0
O234 O 0.86989 0.9652 0.76828 0.0
O235 O 0.83663 0.98035 0.75519 0.0
O236 O 0.92129 0.98813 0.78233 0.0
O237 O 0.89963 0.02009 0.78903 0.0
O238 O 0.75383 0.12914 0.54054 0.0
Cd239 Cd 0.75117 0.10222 0.51463 0.0
Cd240 Cd 0.74072 0.13715 0.48455 0.0
O241 O 0.74207 0.15718 0.51611 0.0
O242 O 0.77385 0.07672 0.52255 0.0
O243 O 0.77626 0.09882 0.48955 0.0
C244 C 0.78474 0.08223 0.50274 0.0
C245 C 0.75402 0.15518 0.44921 0.0
C246 C 0.74736 0.15046 0.53713 0.0
C247 C 0.70227 0.09851 0.4925 0.0
O248 O 0.70973 0.11622 0.47993 0.0
O249 O 0.71596 0.08956 0.50802 0.0
O250 O 0.73554 0.16246 0.46042 0.0
O251 O 0.7657 0.13819 0.45866 0.0
O252 O 0.61869 0.99241 0.20636 0.0
Cd253 Cd 0.64268 0.9912 0.23444 0.0
Cd254 Cd 0.60537 0.00303 0.26205 0.0
O255 O 0.58775 0.00057 0.2294 0.0
O256 O 0.66631 0.96571 0.22963 0.0
O257 O 0.63854 0.96521 0.25824 0.0
C258 C 0.6561 0.95497 0.24769 0.0
C259 C 0.58544 0.99184 0.29751 0.0
C260 C 0.59683 -0.00255 0.20863 0.0
C261 C 0.64694 0.04009 0.25664 0.0
O262 O 0.62662 0.03432 0.26567 0.0
O263 O 0.65803 0.02468 0.24424 0.0
O264 O 0.58014 0.01081 0.28606 0.0
O265 O 0.60137 0.97837 0.28835 0.0
O266 O 0.73438 0.88503 0.04976 0.0
Cd267 Cd 0.74203 0.90785 0.02225 0.0
Cd268 Cd 0.7481 0.86578 -0.00404 0.0
O269 O 0.73397 0.85107 0.02783 0.0
O270 O 0.71916 0.93455 0.02372 0.0
O271 O 0.7183 0.90508 -0.00422 0.0
C272 C 0.70863 0.92364 0.00534 0.0
C273 C 0.73634 0.85075 0.95732 0.0
C274 C 0.7307 0.86218 0.04787 0.0
C275 C 0.79149 0.90124 0.00469 0.0
O276 O 0.78305 0.88069 -0.00326 0.0
O277 O 0.77796 0.91609 0.01505 0.0
O278 O 0.74885 0.83831 0.97166 0.0
O279 O 0.72931 0.87122 0.96531 0.0
O280 O 0.25442 0.62546 0.04196 0.0
Cd281 Cd 0.25461 0.60452 0.0112 0.0
Cd282 Cd 0.24282 0.64511 0.99344 0.0
O283 O 0.26187 0.65921 0.02272 0.0
O284 O 0.27156 0.5767 0.02279 0.0
O285 O 0.28562 0.60069 0.99392 0.0
C286 C 0.28863 0.58297 0.00826 0.0
C287 C 0.24513 0.66662 0.95829 0.0
C288 C 0.26065 0.64785 0.0423 0.0
C289 C 0.20498 0.60547 0.0002 0.0
O290 O 0.20976 0.62819 0.00015 0.0
O291 O 0.22178 0.59095 1e-05 0.0
O292 O 0.2344 0.67484 0.97698 0.0
O293 O 0.25497 0.64605 0.95962 0.0
O294 O 0.12473 0.48928 0.7129 0.0
Cd295 Cd 0.14659 0.4971 0.74188 0.0
Cd296 Cd 0.10797 0.51641 0.76025 0.0
O297 O 0.09267 0.50569 0.72763 0.0
O298 O 0.1723 0.47446 0.73593 0.0
O299 O 0.14914 0.47311 0.76837 0.0
C300 C 0.16563 0.46379 0.75541 0.0
C301 C 0.08525 0.51204 0.79513 0.0
C302 C 0.10326 0.49519 0.71043 0.0
C303 C 0.15042 0.55047 0.75002 0.0
O304 O 0.12957 0.54777 0.75894 0.0
O305 O 0.16129 0.53227 0.74221 0.0
O306 O 0.08067 0.52787 0.77934 0.0
O307 O 0.10249 0.4979 0.79085 0.0
O308 O 0.23168 0.36864 0.54663 0.0
Cd309 Cd 0.23574 0.39072 0.51813 0.0
Cd310 Cd 0.24729 0.35075 0.4975 0.0
O311 O 0.22958 0.334 0.52638 0.0
O312 O 0.21727 0.41825 0.52989 0.0
O313 O 0.20705 0.39556 0.49748 0.0
C314 C 0.20209 0.41241 0.51287 0.0
C315 C 0.23622 0.34392 0.45723 0.0
C316 C 0.2274 0.3459 0.54607 0.0
C317 C 0.28712 0.38812 0.50795 0.0
O318 O 0.28197 0.36561 0.50396 0.0
O319 O 0.2704 0.40263 0.51108 0.0
O320 O 0.24707 0.32787 0.46911 0.0
O321 O 0.23091 0.36366 0.4684 0.0
O322 O 0.38073 0.51297 0.20877 0.0
Cd323 Cd 0.35218 0.51041 0.23126 0.0
Cd324 Cd 0.37877 0.48828 0.26284 0.0
O325 O 0.40124 0.49128 0.23356 0.0
O326 O 0.33209 0.53779 0.22513 0.0
O327 O 0.35173 0.53274 0.25959 0.0
C328 C 0.33849 0.5458 0.24642 0.0
C329 C 0.39942 0.49059 0.29988 0.0
C330 C 0.39932 0.50181 0.21356 0.0
C331 C 0.33634 0.45961 0.24243 0.0
O332 O 0.352 0.46118 0.25917 0.0
O333 O 0.33323 0.47753 0.22901 0.0
O334 O 0.40047 0.47227 0.28535 0.0
O335 O 0.3861 0.50782 0.29371 0.0
O336 O 0.96029 0.00347 0.97353 0.0
Mg337 Mg 0.96612 0.0077 0.01183 0.0
O338 O -0.00083 0.00963 0.96894 0.0
Mg339 Mg 0.00681 -0.00186 0.00759 0.0
O340 O 0.98966 0.03426 0.02488 0.0
O341 O 0.94969 0.03726 0.02217 0.0
O342 O 0.01476 0.98717 0.04697 0.0
O343 O 0.04055 0.02609 0.00783 0.0
Mg344 Mg 0.05641 0.97361 0.00998 0.0
O345 O 0.02577 0.96553 0.99064 0.0
O346 O 0.04948 0.96938 0.04737 0.0
O347 O 0.07307 0.00643 -0.00094 0.0
O348 O 0.05824 0.94398 0.98737 0.0
C349 C 0.95699 0.96359 0.0204 0.0
C350 C 0.97816 0.00769 0.95996 0.0
C351 C 0.97057 0.04647 0.02851 0.0
C352 C 0.03122 0.97682 0.05832 0.0
C353 C 0.06279 0.02605 0.00236 0.0
C354 C 0.03633 0.94725 0.98112 0.0
O355 O 0.95364 0.98036 0.03548 0.0
O356 O 0.97405 0.96714 0.00545 0.0
O357 O 0.22032 0.73874 0.30911 0.0
Mg358 Mg 0.22357 0.71122 0.28263 0.0
O359 O 0.2407 0.76525 0.28687 0.0
Mg360 Mg 0.23879 0.74484 0.25062 0.0
O361 O 0.25549 0.70955 0.26524 0.0
O362 O 0.24327 0.68536 0.29566 0.0
O363 O 0.23792 0.72274 0.21394 0.0
O364 O 0.27862 0.75646 0.24379 0.0
Mg365 Mg 0.23688 0.76776 0.20674 0.0
O366 O 0.2263 0.78245 0.23854 0.0
O367 O 0.21086 0.74105 0.19463 0.0
O368 O 0.27518 0.76296 0.20477 0.0
O369 O 0.22606 0.80184 0.20339 0.0
C370 C 0.18334 0.71629 0.2585 0.0
C371 C 0.23047 0.75955 0.30648 0.0
C372 C 0.25867 0.6914 0.27928 0.0
C373 C 0.2238 0.72323 0.19593 0.0
C374 C 0.28821 0.76039 0.22332 0.0
C375 C 0.2216 0.80133 0.22619 0.0
O376 O 0.19295 0.69711 0.26419 0.0
O377 O 0.19682 0.73551 0.25577 0.0
O378 O 0.54979 0.99209 0.48217 0.0
Mg379 Mg 0.54644 -0.00386 0.52109 0.0
O380 O 0.51274 0.00034 0.47004 0.0
Mg381 Mg 0.49285 0.01254 0.50373 0.0
O382 O 0.51179 0.98574 0.52515 0.0
O383 O 0.53933 0.96512 0.54233 0.0
O384 O 0.47271 0.02461 0.53741 0.0
O385 O 0.46322 0.98204 0.49852 0.0
Mg386 Mg 0.43869 0.02989 0.48676 0.0
O387 O 0.47362 0.03865 0.4822 0.0
O388 O 0.43636 0.03526 0.52543 0.0
O389 O 0.4345 0.9932 0.4741 0.0
O390 O 0.447 0.05985 0.46432 0.0
C391 C 0.54077 0.04842 0.52282 0.0
C392 C 0.53401 0.99407 0.46564 0.0
C393 C 0.51707 0.96693 0.53679 0.0
C394 C 0.4519 0.03214 0.54194 0.0
C395 C 0.44412 0.97705 0.48623 0.0
C396 C 0.46915 0.05703 0.46964 0.0
O397 O 0.549 0.03202 0.53566 0.0
O398 O 0.52258 0.04361 0.50911 0.0
O399 O 0.31437 0.27471 0.74871 0.0
Mg400 Mg 0.302 0.26206 0.71402 0.0
O401 O 0.28241 0.25993 0.7687 0.0
Mg402 Mg 0.24951 0.25416 0.74363 0.0
O403 O 0.26785 0.27144 0.71251 0.0
O404 O 0.29308 0.2845 0.68498 0.0
O405 O 0.21824 0.24913 0.71443 0.0
O406 O 0.23711 0.29134 0.75511 0.0
Mg407 Mg 0.20712 0.24308 0.75553 0.0
O408 O 0.23342 0.23693 0.77965 0.0
O409 O 0.20198 0.21592 0.72832 0.0
O410 O 0.19869 0.2805 0.75104 0.0
O411 O 0.19375 0.23192 0.78712 0.0
C412 C 0.28082 0.20921 0.72034 0.0
C413 C 0.30404 0.26868 0.76826 0.0
C414 C 0.27137 0.28269 0.69279 0.0
C415 C 0.20474 0.23005 0.71099 0.0
C416 C 0.21533 0.29688 0.75439 0.0
C417 C 0.21579 0.23112 0.7941 0.0
O418 O 0.29716 0.22315 0.71109 0.0
O419 O 0.26333 0.21717 0.73239 0.0
O420 O -0.00148 0.94281 0.51476 0.0
Mg421 Mg 0.00708 0.97364 0.53597 0.0
O422 O 0.98739 0.9669 0.48624 0.0
Mg423 Mg -0.00436 0.00602 0.50236 0.0
O424 O 0.98032 -0.00276 0.54141 0.0
O425 O 0.99083 0.96862 0.56713 0.0
O426 O 0.00102 0.046 0.51701 0.0
O427 O 0.95503 0.01359 0.4938 0.0
Mg428 Mg 0.98843 0.04146 0.45742 0.0
O429 O 0.01019 0.01512 0.46531 0.0
O430 O -0.00525 0.06829 0.4848 0.0
O431 O 0.95287 0.02673 0.45635 0.0
O432 O 0.0131 0.03425 0.4307 0.0
C433 C 0.05146 0.99247 0.52415 0.0
C434 C 0.98962 0.94567 0.49414 0.0
C435 C 0.97751 0.98608 0.56178 0.0
C436 C -0.00148 0.06653 0.50732 0.0
C437 C 0.9427 0.01941 0.47547 0.0
C438 C 0.02077 0.01816 0.44486 0.0
O439 O 0.0429 0.98348 0.54309 0.0
O440 O 0.03709 -0.00029 0.5082 0.0
O441 O 0.25925 0.71281 0.78061 0.0
Mg442 Mg 0.26082 0.7182 0.74282 0.0
O443 O 0.24799 0.74998 0.78759 0.0
Mg444 Mg 0.23962 0.76558 0.75098 0.0
O445 O 0.27368 0.75153 0.73237 0.0
O446 O 0.29294 0.71737 0.72644 0.0
O447 O 0.22953 0.78284 0.7155 0.0
O448 O 0.26607 0.79851 0.76046 0.0
Mg449 Mg 0.21433 0.81732 0.76372 0.0
O450 O 0.20828 0.78163 0.76892 0.0
O451 O 0.21226 0.81741 0.72517 0.0
O452 O 0.24797 0.82798 0.77976 0.0
O453 O 0.18306 0.80761 0.783 0.0
C454 C 0.2124 0.71304 0.72841 0.0
C455 C 0.2539 0.72962 0.79522 0.0
C456 C 0.29162 0.74037 0.72334 0.0
C457 C 0.21911 0.8019 0.70964 0.0
C458 C 0.2669 0.81845 0.77257 0.0
C459 C 0.1881 0.78542 0.77895 0.0
O460 O 0.23212 0.70564 0.72114 0.0
O461 O 0.21202 0.7321 0.74187 0.0
O462 O 0.46411 0.96819 0.04391 0.0
Mg463 Mg 0.46428 0.00583 0.05037 0.0
O464 O 0.497 0.96908 0.02135 0.0
Mg465 Mg 0.50178 0.00789 0.00487 0.0
O466 O 0.46627 0.02073 0.01811 0.0
O467 O 0.43534 0.0262 0.04197 0.0
O468 O 0.50424 0.04869 0.99253 0.0
O469 O 0.47979 0.99409 0.97133 0.0
Mg470 Mg 0.52856 0.02106 0.96978 0.0
O471 O 0.5389 0.99302 0.9906 0.0
O472 O 0.54084 0.05625 0.97959 0.0
O473 O 0.49809 0.01957 0.94693 0.0
O474 O 0.5538 0.00214 0.95391 0.0
C475 C 0.51593 0.02589 0.06151 0.0
C476 C 0.48152 0.95766 0.03444 0.0
C477 C 0.44605 0.03041 0.02183 0.0
C478 C 0.52098 0.06388 0.98626 0.0
C479 C 0.48059 0.00492 0.9514 0.0
C480 C 0.5541 0.98953 0.97318 0.0
O481 O 0.49451 0.02187 0.06875 0.0
O482 O 0.52226 0.02126 0.03984 0.0
O483 O 0.24072 0.23451 0.18897 0.0
Mg484 Mg 0.24284 0.26605 0.21144 0.0
O485 O 0.26599 0.22038 0.21445 0.0
Mg486 Mg 0.25475 0.24441 0.24739 0.0
O487 O 0.27126 0.28104 0.23086 0.0
O488 O 0.26262 0.29048 0.19271 0.0
O489 O 0.2448 0.26729 0.28174 0.0
O490 O 0.29408 0.24354 0.2609 0.0
Mg491 Mg 0.26086 0.21213 0.29674 0.0
O492 O 0.24395 0.209 0.2645 0.0
O493 O 0.24561 0.24288 0.31326 0.0
O494 O 0.29821 0.21637 0.28942 0.0
O495 O 0.24093 0.17918 0.29024 0.0
C496 C 0.20007 0.26181 0.22891 0.0
C497 C 0.25545 0.21888 0.19408 0.0
C498 C 0.27522 0.29432 0.21207 0.0
C499 C 0.24162 0.26328 0.30418 0.0
C500 C 0.30718 0.23198 0.27507 0.0
C501 C 0.2352 0.18775 0.26973 0.0
O502 O 0.21106 0.28059 0.22134 0.0
O503 O 0.21247 0.24439 0.23598 0.0
O504 O 0.46299 0.54651 0.98312 0.0
Mg505 Mg 0.50065 0.55328 0.97737 0.0
O506 O 0.46352 0.51454 0.00714 0.0
Mg507 Mg 0.50259 0.50432 0.01133 0.0
O508 O 0.51271 0.5198 0.97565 0.0
O509 O 0.51805 0.5443 0.94519 0.0
O510 O 0.54446 0.49818 0.01193 0.0
O511 O 0.49216 0.46868 0.9898 0.0
Mg512 Mg 0.51703 0.47085 0.03587 0.0
O513 O 0.48886 0.48895 0.04975 0.0
O514 O 0.55177 0.4816 0.04621 0.0
O515 O 0.51108 0.44243 0.01072 0.0
O516 O 0.50365 0.45537 0.06481 0.0
C517 C 0.51572 0.56299 0.02801 0.0
C518 C 0.45228 0.53057 -0.00388 0.0
C519 C 0.52111 0.52353 0.95447 0.0
C520 C 0.55948 0.49157 0.02746 0.0
C521 C 0.49804 0.44712 0.99304 0.0
C522 C 0.48873 0.47225 0.06604 0.0
O523 O 0.52012 0.57005 0.0068 0.0
O524 O 0.50912 0.54094 0.03183 0.0
O525 O 0.78981 0.23597 0.28106 0.0
Mg526 Mg 0.77249 0.22174 0.24982 0.0
O527 O 0.75127 0.23744 0.28318 0.0
Mg528 Mg 0.74765 0.25246 0.24299 0.0
O529 O 0.78085 0.23831 0.21915 0.0
O530 O 0.79729 0.20438 0.23139 0.0
O531 O 0.74388 0.26522 0.20263 0.0
O532 O 0.77464 0.28376 0.25439 0.0
Mg533 Mg 0.72481 0.28742 0.23438 0.0
O534 O 0.71456 0.26879 0.26423 0.0
O535 O 0.70703 0.2762 0.20253 0.0
O536 O 0.75713 0.30929 0.23158 0.0
O537 O 0.70282 0.30598 0.25529 0.0
C538 C 0.72418 0.19962 0.24003 0.0
C539 C 0.77124 0.23495 0.29378 0.0
C540 C 0.796 0.22143 0.21609 0.0
C541 C 0.72511 0.27004 0.19095 0.0
C542 C 0.77495 0.30405 0.24419 0.0
C543 C 0.70145 0.2872 0.26868 0.0
O544 O 0.74348 0.19544 0.25081 0.0
O545 O 0.72104 0.22069 0.23242 0.0
O546 O 0.97729 0.47421 0.55705 0.0
Mg547 Mg 0.97529 0.51271 0.55976 0.0
O548 O -0.00642 0.47262 0.52056 0.0
Mg549 Mg 0.00041 0.51202 0.50815 0.0
O550 O 0.96599 0.52409 0.52677 0.0
O551 O 0.94286 0.52877 0.55901 0.0
O552 O 0.00622 0.55262 0.49707 0.0
O553 O 0.97495 0.50389 0.47465 0.0
Mg554 Mg 0.02709 0.51683 0.4615 0.0
O555 O 0.03566 0.49789 0.49064 0.0
O556 O 0.03084 0.55423 0.46603 0.0
O557 O -0.0023 0.5023 0.44219 0.0
O558 O 0.05728 0.49974 0.45655 0.0
C559 C 0.02562 0.52937 0.56217 0.0
C560 C 0.98532 0.46213 0.53932 0.0
C561 C 0.94625 0.53118 0.53619 0.0
C562 C 0.01832 0.56476 0.48155 0.0
C563 C 0.97732 0.50025 0.45199 0.0
C564 C 0.05427 0.49183 0.47813 0.0
O565 O 0.00585 0.53315 0.57231 0.0
O566 O 0.02599 0.52015 0.54092 0.0
O567 O 0.69374 0.7727 0.26877 0.0
Mg568 Mg 0.69473 0.73424 0.26455 0.0
O569 O 0.7277 0.78562 0.25063 0.0
Mg570 Mg 0.74672 0.7508 0.23844 0.0
O571 O 0.72974 0.72947 0.2681 0.0
O572 O 0.70424 0.71246 0.29349 0.0
O573 O 0.76466 0.71568 0.22698 0.0
O574 O 0.77781 0.76025 0.26586 0.0
Mg575 Mg 0.79929 0.7621 0.21178 0.0
O576 O 0.76471 0.77117 0.20806 0.0
O577 O 0.79807 0.72376 0.20594 0.0
O578 O 0.81084 0.77377 0.2468 0.0
O579 O 0.79272 0.78506 0.18325 0.0
C580 C 0.69483 0.72951 0.21056 0.0
C581 C 0.70823 0.7898 0.2618 0.0
C582 C 0.72616 0.71673 0.28693 0.0
C583 C 0.78266 0.7088 0.21502 0.0
C584 C 0.79942 0.76922 0.26607 0.0
C585 C 0.77039 0.78336 0.18921 0.0
O586 O 0.6857 0.72063 0.2296 0.0
O587 O 0.71505 0.74169 0.21115 0.0
O588 O 0.72404 0.25208 0.79307 0.0
Mg589 Mg 0.72365 0.22459 0.76522 0.0
O590 O 0.75256 0.271 0.77279 0.0
Mg591 Mg 0.73851 0.25098 0.73901 0.0
O592 O 0.75437 0.21289 0.75258 0.0
O593 O 0.73397 0.19623 0.78357 0.0
O594 O 0.72464 0.23039 0.70453 0.0
O595 O 0.77704 0.25369 0.72416 0.0
Mg596 Mg 0.7445 0.28501 0.69256 0.0
O597 O 0.72939 0.28804 0.7257 0.0
O598 O 0.72383 0.25685 0.67487 0.0
O599 O 0.78221 0.28076 0.69548 0.0
O600 O 0.72914 0.3176 0.69931 0.0
C601 C 0.68283 0.2325 0.75026 0.0
C602 C 0.74059 0.26861 0.79195 0.0
C603 C 0.75214 0.19677 0.76935 0.0
C604 C 0.71905 0.23588 0.6831 0.0
C605 C 0.79051 0.26515 0.70925 0.0
C606 C 0.72311 0.30938 0.72013 0.0
O607 O 0.69228 0.21271 0.74614 0.0
O608 O 0.69694 0.25143 0.75205 0.0
O609 O 0.76492 0.75308 0.67633 0.0
Mg610 Mg 0.74619 0.78136 0.69234 0.0
O611 O 0.74793 0.73052 0.7043 0.0
Mg612 Mg 0.74574 0.75321 0.74054 0.0
O613 O 0.759 0.79 0.72586 0.0
O614 O 0.76275 0.81545 0.69535 0.0
O615 O 0.74221 0.77373 0.77807 0.0
O616 O 0.78667 0.74676 0.74767 0.0
Mg617 Mg 0.75546 0.71627 0.78268 0.0
O618 O 0.73141 0.71747 0.75557 0.0
O619 O 0.74985 0.74645 0.80558 0.0
O620 O 0.78946 0.7128 0.7678 0.0
O621 O 0.73087 0.68711 0.78122 0.0
C622 C 0.69589 0.76895 0.71312 0.0
C623 C 0.75781 0.73245 0.6837 0.0
C624 C 0.76654 0.81083 0.71771 0.0
C625 C 0.74445 0.76772 0.80013 0.0
C626 C 0.79908 0.72992 0.75581 0.0
C627 C 0.72185 0.69707 0.7627 0.0
O628 O 0.70812 0.77721 0.6955 0.0
O629 O 0.70598 0.76026 0.73153 0.0
O630 O 0.56052 0.50378 0.51445 0.0
Mg631 Mg 0.53919 0.47221 0.52282 0.0
O632 O 0.53116 0.52793 0.50561 0.0
Mg633 Mg 0.49488 0.50597 0.51295 0.0
O634 O 0.51037 0.47059 0.50058 0.0
O635 O 0.53664 0.44185 0.50023 0.0
O636 O 0.45889 0.48321 0.52002 0.0
O637 O 0.48426 0.50918 0.47247 0.0
Mg638 Mg 0.44835 0.5374 0.50556 0.0
O639 O 0.47998 0.54235 0.52381 0.0
O640 O 0.42851 0.50754 0.52013 0.0
O641 O 0.45528 0.53477 0.46822 0.0
O642 O 0.45266 0.57019 0.52403 0.0
C643 C 0.51502 0.48707 0.56749 0.0
C644 C 0.55348 0.52409 0.50779 0.0
C645 C 0.51728 0.45029 0.49181 0.0
C646 C 0.43658 0.48671 0.52285 0.0
C647 C 0.47012 0.52057 0.45915 0.0
C648 C 0.47328 0.56337 0.53097 0.0
O649 O 0.52681 0.47036 0.5581 0.0
O650 O 0.50477 0.50226 0.5543 0.0
O651 O 0.04216 0.47516 0.96853 0.0
Mg652 Mg 0.0473 0.47359 0.00674 0.0
O653 O 0.01252 0.50033 0.97149 0.0
Mg654 Mg -0.00077 0.50557 0.01024 0.0
O655 O 0.01453 0.47074 0.02248 0.0
O656 O 0.04028 0.44207 0.0262 0.0
O657 O 0.98692 0.51171 0.05003 0.0
O658 O 0.96544 0.48192 0.00082 0.0
Mg659 Mg 0.95233 0.53808 0.01529 0.0
O660 O 0.98324 0.53963 -0.00356 0.0
O661 O 0.96276 0.54248 0.05155 0.0
O662 O 0.93392 0.50463 0.00546 0.0
O663 O 0.95618 0.56724 0.99253 0.0
C664 C 0.05501 0.52567 0.02558 0.0
C665 C 0.02743 0.48886 0.95888 0.0
C666 C 0.01962 0.45019 0.0312 0.0
C667 C 0.97565 0.52757 0.06186 0.0
C668 C 0.94294 0.48453 0.00032 0.0
C669 C 0.97676 0.55933 0.98684 0.0
O670 O 0.06395 0.50507 0.02344 0.0
O671 O 0.03331 0.52912 0.01997 0.0
H672 H 0.02692 0.17935 0.06822 0.0
H673 H 0.95402 0.19514 0.08766 0.0
H674 H 0.93969 0.15411 0.07431 0.0
H675 H 0.01058 0.14025 0.01441 0.0
H676 H 0.03347 0.11928 0.02026 0.0
H677 H 0.03809 0.1507 0.02952 0.0
H678 H 0.04597 0.13748 0.07321 0.0
H679 H 0.04091 0.10606 0.06412 0.0
H680 H 0.02354 0.11856 0.08824 0.0
H681 H 0.93322 0.11178 0.06255 0.0
H682 H 0.93356 0.06978 0.04766 0.0
H683 H 0.01037 0.07901 0.03464 0.0
C684 C 0.00789 0.17429 0.06885 0.0
C685 C 0.99143 0.19043 0.0786 0.0
C686 C 0.96677 0.18307 0.07996 0.0
C687 C 0.95849 0.15978 0.07259 0.0
C688 C 0.97511 0.14397 0.06388 0.0
C689 C -0.00079 0.15079 0.06155 0.0
C690 C 0.013 0.12953 0.05211 0.0
C691 C 0.02446 0.13529 0.02761 0.0
C692 C 0.03198 0.1225 0.07052 0.0
C693 C -0.00722 0.10992 0.04956 0.0
C694 C 0.97122 0.11884 0.05672 0.0
C695 C 0.9499 0.10459 0.05655 0.0
C696 C 0.95033 0.08069 0.04803 0.0
C697 C 0.97193 0.07113 0.03965 0.0
C698 C -0.00641 0.08583 0.04087 0.0
H699 H 0.07202 0.77811 0.3177 0.0
H700 H 0.04002 0.7055 0.32621 0.0
H701 H 0.07273 0.68871 0.30205 0.0
H702 H 0.09557 0.77147 0.25761 0.0
H703 H 0.12353 0.78838 0.26422 0.0
H704 H 0.09682 0.79503 0.2807 0.0
H705 H 0.11863 0.78798 0.32115 0.0
H706 H 0.14549 0.78183 0.30476 0.0
H707 H 0.13288 0.75985 0.32535 0.0
H708 H 0.1089 0.6799 0.27743 0.0
H709 H 0.14934 0.67874 0.25972 0.0
H710 H 0.15899 0.75698 0.26876 0.0
C711 C 0.07189 0.75873 0.31419 0.0
C712 C 0.05345 0.74302 0.3233 0.0
C713 C 0.05401 0.71771 0.31911 0.0
C714 C 0.07239 0.70808 0.30533 0.0
C715 C 0.09024 0.72403 0.29629 0.0
C716 C 0.09047 0.74876 0.301 0.0
C717 C 0.113 0.76159 0.29122 0.0
C718 C 0.10685 0.78022 0.27231 0.0
C719 C 0.12841 0.77351 0.31184 0.0
C720 C 0.12512 0.74032 0.27982 0.0
C721 C 0.11159 0.71885 0.28279 0.0
C722 C 0.11962 0.6966 0.27491 0.0
C723 C 0.14256 0.69614 0.26473 0.0
C724 C 0.15728 0.71777 0.26269 0.0
C725 C 0.14801 0.7402 0.26957 0.0
H726 H 0.48859 0.84696 0.60236 0.0
H727 H 0.49551 0.81292 0.53193 0.0
H728 H 0.48903 0.85214 0.51275 0.0
H729 H 0.44674 0.89644 0.58504 0.0
H730 H 0.46302 0.91825 0.60451 0.0
H731 H 0.46037 0.8867 0.61245 0.0
H732 H 0.5068 0.88599 0.61557 0.0
H733 H 0.50944 0.9174 0.60799 0.0
H734 H 0.52486 0.89544 0.59021 0.0
H735 H 0.48755 0.89559 0.50155 0.0
H736 H 0.50031 0.93905 0.49936 0.0
H737 H 0.49995 0.94531 0.57718 0.0
C738 C 0.4877 0.84767 0.58288 0.0
C739 C 0.49187 0.82699 0.56851 0.0
C740 C 0.4919 0.8286 0.54313 0.0
C741 C 0.48801 0.85073 0.53214 0.0
C742 C 0.48453 0.87111 0.54684 0.0
C743 C 0.48473 0.8698 0.57173 0.0
C744 C 0.48595 0.89485 0.58355 0.0
C745 C 0.46263 0.89932 0.59719 0.0
C746 C 0.50808 0.89863 0.60028 0.0
C747 C 0.48815 0.91047 0.56151 0.0
C748 C 0.48584 0.89651 0.54049 0.0
C749 C 0.48896 0.90671 0.51786 0.0
C750 C 0.49603 0.93144 0.51676 0.0
C751 C 0.50064 0.94535 0.53814 0.0
C752 C 0.4958 0.93504 0.56068 0.0
H753 H 0.42841 0.29786 0.82595 0.0
H754 H 0.43038 0.22128 0.84068 0.0
H755 H 0.38644 0.21614 0.83269 0.0
H756 H 0.3666 0.30484 0.85205 0.0
H757 H 0.36 0.32684 0.82981 0.0
H758 H 0.39037 0.32482 0.84069 0.0
H759 H 0.40527 0.31874 0.79683 0.0
H760 H 0.3752 0.32117 0.78594 0.0
H761 H 0.39134 0.2947 0.77813 0.0
H762 H 0.34383 0.21895 0.81809 0.0
H763 H 0.30856 0.2279 0.79341 0.0
H764 H 0.33539 0.30267 0.78832 0.0
C765 C 0.41953 0.28003 0.82764 0.0
C766 C 0.43256 0.25987 0.83351 0.0
C767 C 0.42049 0.23688 0.83605 0.0
C768 C 0.3956 0.23391 0.83184 0.0
C769 C 0.3832 0.2543 0.82598 0.0
C770 C 0.39485 0.27693 0.82404 0.0
C771 C 0.37822 0.29559 0.81539 0.0
C772 C 0.37352 0.31412 0.83569 0.0
C773 C 0.38809 0.30824 0.79272 0.0
C774 C 0.35601 0.27944 0.81007 0.0
C775 C 0.35874 0.25594 0.81752 0.0
C776 C 0.3413 0.23735 0.8127 0.0
C777 C 0.32127 0.24263 0.7988 0.0
C778 C 0.31941 0.26605 0.78936 0.0
C779 C 0.33637 0.28483 0.79588 0.0
H780 H -0.00623 0.85414 0.38373 0.0
H781 H 0.97251 0.79847 0.43476 0.0
H782 H 0.96199 0.82982 0.46415 0.0
H783 H 0.02273 0.89344 0.4231 0.0
H784 H 0.01248 0.92114 0.41101 0.0
H785 H 0.01405 0.89467 0.39177 0.0
H786 H 0.96914 0.89745 0.3807 0.0
H787 H 0.96783 0.92413 0.39991 0.0
H788 H 0.94709 0.8984 0.4043 0.0
H789 H 0.96103 0.86546 0.49024 0.0
H790 H 0.97009 0.90413 0.51204 0.0
H791 H 0.99074 0.93827 0.44504 0.0
C792 C 0.98645 0.84861 0.40091 0.0
C793 C 0.98415 0.82388 0.40699 0.0
C794 C 0.97466 0.8173 0.42971 0.0
C795 C 0.96831 0.83497 0.44648 0.0
C796 C 0.97128 0.85917 0.44021 0.0
C797 C 0.97993 0.86612 0.41795 0.0
C798 C 0.98382 0.89347 0.41698 0.0
C799 C 0.00985 0.90106 0.41033 0.0
C800 C 0.96589 0.90398 0.39943 0.0
C801 C 0.97828 0.90049 0.44284 0.0
C802 C 0.97027 0.88041 0.45561 0.0
C803 C 0.96668 0.88145 0.48038 0.0
C804 C 0.9721 0.90342 0.49263 0.0
C805 C 0.98104 0.92403 0.48011 0.0
C806 C 0.98343 0.92281 0.45482 0.0
H807 H 0.40948 0.73831 0.64831 0.0
H808 H 0.42559 0.81377 0.66777 0.0
H809 H 0.38434 0.81639 0.68446 0.0
H810 H 0.34426 0.74352 0.63327 0.0
H811 H 0.33694 0.71413 0.64562 0.0
H812 H 0.36571 0.72028 0.63167 0.0
H813 H 0.38691 0.70746 0.67076 0.0
H814 H 0.35837 0.70164 0.68491 0.0
H815 H 0.38048 0.72255 0.69896 0.0
H816 H 0.34293 0.80769 0.70488 0.0
H817 H 0.30691 0.78914 0.72523 0.0
H818 H 0.31974 0.72002 0.69044 0.0
C819 C 0.40401 0.75557 0.65545 0.0
C820 C 0.42033 0.77582 0.65685 0.0
C821 C 0.41298 0.79814 0.66644 0.0
C822 C 0.38967 0.79973 0.67591 0.0
C823 C 0.37408 0.77897 0.67501 0.0
C824 C 0.38098 0.75745 0.66454 0.0
C825 C 0.36233 0.737 0.66757 0.0
C826 C 0.35168 0.72823 0.64307 0.0
C827 C 0.37264 0.71595 0.68138 0.0
C828 C 0.3442 0.74987 0.68239 0.0
C829 C 0.35084 0.77414 0.68636 0.0
C830 C 0.33741 0.78882 0.70143 0.0
C831 C 0.31702 0.77819 0.71292 0.0
C832 C 0.31071 0.75314 0.70944 0.0
C833 C 0.32417 0.7392 0.6935 0.0
H834 H 0.50851 0.17312 0.89815 0.0
H835 H 0.4763 0.21265 0.95673 0.0
H836 H 0.47717 0.17636 0.98226 0.0
H837 H 0.48173 0.11131 0.91111 0.0
H838 H 0.5093 0.09747 0.90351 0.0
H839 H 0.50142 0.12468 0.88876 0.0
H840 H 0.54241 0.14544 0.9021 0.0
H841 H 0.55013 0.11858 0.91743 0.0
H842 H 0.55023 0.14722 0.93369 0.0
H843 H 0.48346 0.13597 0.00171 0.0
H844 H 0.49682 0.09586 0.01411 0.0
H845 H 0.5299 0.08605 0.94433 0.0
C846 C 0.5008 0.17369 0.91604 0.0
C847 C 0.49165 0.19511 0.92544 0.0
C848 C 0.4828 0.19597 0.94924 0.0
C849 C 0.48329 0.17554 0.96379 0.0
C850 C 0.49318 0.15477 0.95428 0.0
C851 C 0.50184 0.15376 0.93094 0.0
C852 C 0.51425 0.13057 0.92594 0.0
C853 C 0.50087 0.1151 0.90616 0.0
C854 C 0.54083 0.13578 0.91942 0.0
C855 C 0.51173 0.11894 0.95022 0.0
C856 C 0.49898 0.13278 0.96618 0.0
C857 C 0.49366 0.12509 0.98944 0.0
C858 C 0.50141 0.1025 -0.0036 0.0
C859 C 0.51495 0.08851 0.98038 0.0
C860 C 0.52025 0.09691 0.95714 0.0
H861 H 0.08348 0.28743 0.15411 0.0
H862 H 0.04983 0.22141 0.18237 0.0
H863 H 0.08498 0.21697 0.20897 0.0
H864 H 0.14276 0.2699 0.1529 0.0
H865 H 0.15614 0.29893 0.1628 0.0
H866 H 0.12784 0.29733 0.14699 0.0
H867 H 0.10868 0.32063 0.18247 0.0
H868 H 0.13697 0.3221 0.19847 0.0
H869 H 0.11034 0.30905 0.21252 0.0
H870 H 0.12586 0.21754 0.22911 0.0
H871 H 0.16815 0.22457 0.24254 0.0
H872 H 0.17287 0.29205 0.2039 0.0
C873 C 0.08349 0.27223 0.16612 0.0
C874 C 0.06412 0.25474 0.1663 0.0
C875 C 0.06454 0.23508 0.18221 0.0
C876 C 0.08439 0.23241 0.19734 0.0
C877 C 0.10332 0.24994 0.19677 0.0
C878 C 0.10284 0.26969 0.18186 0.0
C879 C 0.12553 0.28583 0.18454 0.0
C880 C 0.13885 0.28811 0.16037 0.0
C881 C 0.12004 0.31088 0.19513 0.0
C882 C 0.13924 0.27151 0.2024 0.0
C883 C 0.12619 0.2509 0.20935 0.0
C884 C 0.1361 0.2339 0.22418 0.0
C885 C 0.16014 0.23796 0.23171 0.0
C886 C 0.17386 0.25882 0.22445 0.0
C887 C 0.16289 0.27603 0.21015 0.0
H888 H 0.09085 0.95659 0.18474 0.0
H889 H 0.04007 0.00496 0.21583 0.0
H890 H 0.01695 0.00293 0.17764 0.0
H891 H 0.09522 0.98178 0.13035 0.0
H892 H 0.09705 0.95417 0.11266 0.0
H893 H 0.10656 0.95516 0.14364 0.0
H894 H 0.07704 0.91861 0.15273 0.0
H895 H 0.06757 0.91731 0.12157 0.0
H896 H 0.04566 0.91994 0.14513 0.0
H897 H 0.00372 0.00136 0.13402 0.0
H898 H 0.0009 -0.00069 0.08954 0.0
H899 H 0.06025 0.95168 0.08738 0.0
C900 C 0.07439 0.96608 0.1838 0.0
C901 C 0.06719 0.98085 0.20327 0.0
C902 C 0.04574 0.99326 0.20125 0.0
C903 C 0.03251 0.99225 0.17959 0.0
C904 C 0.04071 0.97834 0.16034 0.0
C905 C 0.06093 0.9651 0.16243 0.0
C906 C 0.0674 0.95348 0.13854 0.0
C907 C 0.09306 0.96166 0.13086 0.0
C908 C 0.06422 0.92569 0.13956 0.0
C909 C 0.04864 0.96354 0.12234 0.0
C910 C 0.03306 0.9774 0.13526 0.0
C911 C 0.01547 0.99008 0.1238 0.0
C912 C 0.01401 0.98882 0.0985 0.0
C913 C 0.03029 0.97525 0.08494 0.0
C914 C 0.0474 0.96205 0.09719 0.0
H915 H 0.25465 0.79813 0.44218 0.0
H916 H 0.22046 0.86531 0.42869 0.0
H917 H 0.21405 0.85238 0.38599 0.0
H918 H 0.28564 0.79451 0.38663 0.0
H919 H 0.28139 0.76198 0.38375 0.0
H920 H 0.28283 0.77639 0.4132 0.0
H921 H 0.24134 0.75584 0.42387 0.0
H922 H 0.23994 0.74109 0.39459 0.0
H923 H 0.21594 0.75952 0.40428 0.0
H924 H 0.21306 0.83242 0.34434 0.0
H925 H 0.21407 0.8051 0.30821 0.0
H926 H 0.24809 0.75145 0.35039 0.0
C927 C 0.24568 0.81011 0.43032 0.0
C928 C 0.2381 0.83271 0.43858 0.0
C929 C 0.22631 0.84783 0.4226 0.0
C930 C 0.22273 0.84073 0.39836 0.0
C931 C 0.23093 0.81847 0.39069 0.0
C932 C 0.24188 0.80329 0.40631 0.0
C933 C 0.24889 0.78023 0.39387 0.0
C934 C 0.27631 0.77818 0.3944 0.0
C935 C 0.23573 0.75786 0.4048 0.0
C936 C 0.23999 0.78465 0.36877 0.0
C937 C 0.22998 0.80692 0.36711 0.0
C938 C 0.22084 0.81495 0.34543 0.0
C939 C 0.22168 0.79955 0.32505 0.0
C940 C 0.23134 0.77655 0.32686 0.0
C941 C 0.24064 0.76907 0.34883 0.0
H942 H 0.43802 0.00209 0.68102 0.0
H943 H 0.3952 0.06499 0.68756 0.0
H944 H 0.40485 0.07564 0.64555 0.0
H945 H 0.48467 0.0273 0.63976 0.0
H946 H 0.48538 -0.00071 0.62248 0.0
H947 H 0.47808 -0.00129 0.65407 0.0
H948 H 0.43831 0.97398 0.64378 0.0
H949 H 0.44537 0.97476 0.61218 0.0
H950 H 0.41745 0.98593 0.6228 0.0
H951 H 0.41445 0.07644 0.60191 0.0
H952 H 0.4259 0.06884 0.55948 0.0
H953 H 0.46271 0.00554 0.5809 0.0
C954 C 0.43154 0.01859 0.67379 0.0
C955 C 0.41639 0.03312 0.68746 0.0
C956 C 0.40718 0.05396 0.67729 0.0
C957 C 0.4125 0.06008 0.65351 0.0
C958 C 0.42684 0.04497 0.64013 0.0
C959 C 0.43635 0.02471 0.64987 0.0
C960 C 0.44917 0.01022 0.63086 0.0
C961 C 0.47592 0.00882 0.63717 0.0
C962 C 0.43683 0.98473 0.6272 0.0
C963 C 0.4456 0.02568 0.60907 0.0
C964 C 0.43247 0.0455 0.61477 0.0
C965 C 0.42515 0.06128 0.59726 0.0
C966 C 0.43159 0.05678 0.57327 0.0
C967 C 0.44545 0.0369 0.56717 0.0
C968 C 0.45261 0.02123 0.5853 0.0
H969 H 0.27239 0.16932 0.90873 0.0
H970 H 0.22329 0.2108 0.95153 0.0
H971 H 0.2106 0.23119 0.91524 0.0
H972 H 0.28898 0.21968 0.86634 0.0
H973 H 0.29047 0.19919 0.84071 0.0
H974 H 0.29784 0.18912 0.87041 0.0
H975 H 0.2661 0.15319 0.86539 0.0
H976 H 0.25857 0.16327 0.8358 0.0
H977 H 0.23545 0.15925 0.8582 0.0
H978 H 0.19862 0.24256 0.87492 0.0
H979 H 0.19169 0.24888 0.83172 0.0
H980 H 0.2503 0.20334 0.81373 0.0
C981 C 0.25945 0.18315 0.9105 0.0
C982 C 0.24883 0.18842 0.93303 0.0
C983 C 0.23174 0.20643 0.93457 0.0
C984 C 0.22436 0.21815 0.91402 0.0
C985 C 0.23453 0.21205 0.89206 0.0
C986 C 0.25207 0.19541 0.89007 0.0
C987 C 0.25932 0.19187 0.86388 0.0
C988 C 0.28572 0.20048 0.86012 0.0
C989 C 0.25457 0.16532 0.85533 0.0
C990 C 0.24244 0.20844 0.85161 0.0
C991 C 0.22829 0.21976 0.86834 0.0
C992 C 0.20992 0.23429 0.86162 0.0
C993 C 0.206 0.2376 0.83709 0.0
C994 C 0.22057 0.22671 0.81961 0.0
C995 C 0.2392 0.21212 0.82689 0.0
H996 H 0.06999 0.96914 0.33238 0.0
H997 H 0.12653 0.02518 0.34307 0.0
H998 H 0.12033 0.02413 0.38708 0.0
H999 H 0.02979 0.98699 0.36689 0.0
H1000 H 0.0194 0.95908 0.38077 0.0
H1001 H 0.03421 0.95803 0.35234 0.0
H1002 H 0.06393 0.92967 0.37055 0.0
H1003 H 0.05149 0.93201 0.40041 0.0
H1004 H 0.08274 0.93976 0.39575 0.0
H1005 H 0.09961 0.0275 0.42503 0.0
H1006 H 0.06595 0.03619 0.45162 0.0
H1007 H 0.0234 0.97611 0.41956 0.0
C1008 C 0.08171 0.98023 0.3443 0.0
C1009 C 0.0988 -0.00294 0.33477 0.0
C1010 C 0.11359 0.01195 0.35034 0.0
C1011 C 0.11029 0.01129 0.37534 0.0
C1012 C 0.09245 -0.00473 0.3844 0.0
C1013 C 0.07876 0.97952 0.36936 0.0
C1014 C 0.05846 0.96686 0.38309 0.0
C1015 C 0.03405 0.96788 0.37 0.0
C1016 C 0.06449 0.94052 0.38769 0.0
C1017 C 0.0597 0.98172 0.40645 0.0
C1018 C 0.08058 -0.00334 0.40757 0.0
C1019 C 0.08376 0.01525 0.42493 0.0
C1020 C 0.06455 0.02007 0.44008 0.0
C1021 C 0.04259 0.00618 0.43807 0.0
C1022 C 0.04058 0.986 0.42209 0.0
H1023 H 0.25183 0.81709 0.57242 0.0
H1024 H 0.18645 0.85558 0.56611 0.0
H1025 H 0.17377 0.84162 0.60622 0.0
H1026 H 0.22654 0.76535 0.6102 0.0
H1027 H 0.25372 0.76564 0.628 0.0
H1028 H 0.25508 0.77371 0.5967 0.0
H1029 H 0.27732 0.81468 0.60884 0.0
H1030 H 0.2758 0.80687 0.64008 0.0
H1031 H 0.26367 0.83462 0.63029 0.0
H1032 H 0.1719 0.83092 0.64876 0.0
H1033 H 0.18006 0.82233 0.69135 0.0
H1034 H 0.24658 0.79046 0.67087 0.0
C1035 C 0.2344 0.82168 0.57913 0.0
C1036 C 0.21993 0.83713 0.56626 0.0
C1037 C 0.19766 0.84362 0.5758 0.0
C1038 C 0.19028 0.83569 0.59846 0.0
C1039 C 0.20542 0.82134 0.61125 0.0
C1040 C 0.22695 0.81418 0.60192 0.0
C1041 C 0.24141 0.80171 0.62068 0.0
C1042 C 0.24434 0.77501 0.61346 0.0
C1043 C 0.26598 0.81529 0.62523 0.0
C1044 C 0.2251 0.80393 0.64223 0.0
C1045 C 0.20431 0.81504 0.63627 0.0
C1046 C 0.18777 0.82166 0.65359 0.0
C1047 C 0.19268 0.81697 0.6777 0.0
C1048 C 0.21386 0.80569 0.68416 0.0
C1049 C 0.23003 0.79867 0.6662 0.0
H1050 H 0.42159 0.04152 0.83095 0.0
H1051 H 0.40522 0.9647 0.81864 0.0
H1052 H 0.41189 0.95725 0.86175 0.0
H1053 H 0.46986 0.03575 0.86484 0.0
H1054 H 0.46605 0.06045 0.88604 0.0
H1055 H 0.45272 0.06109 0.8566 0.0
H1056 H 0.41089 0.066 0.87589 0.0
H1057 H 0.42429 0.06527 0.90552 0.0
H1058 H 0.39956 0.04423 0.89736 0.0
H1059 H 0.42775 0.95667 0.90326 0.0
H1060 H 0.45485 0.9628 0.93868 0.0
H1061 H 0.46329 0.03946 0.92374 0.0
C1062 C 0.4185 0.02338 0.83774 0.0
C1063 C 0.41262 0.00368 0.82191 0.0
C1064 C 0.40951 0.97996 0.83082 0.0
C1065 C 0.41303 0.97561 0.85526 0.0
C1066 C 0.41974 -0.00478 0.87051 0.0
C1067 C 0.42239 0.01872 0.86214 0.0
C1068 C 0.43402 0.03576 0.8811 0.0
C1069 C 0.45702 0.049 0.87157 0.0
C1070 C 0.41611 0.05388 0.89052 0.0
C1071 C 0.43954 0.01778 0.90027 0.0
C1072 C 0.43011 0.99472 0.89441 0.0
C1073 C 0.43481 0.97473 0.90834 0.0
C1074 C 0.45023 0.9783 0.92833 0.0
C1075 C 0.46117 0.0015 0.93353 0.0
C1076 C 0.4551 0.02153 0.91989 0.0
H1077 H 0.24087 0.16229 0.06296 0.0
H1078 H 0.31599 0.14626 0.06497 0.0
H1079 H 0.31832 0.15957 0.10814 0.0
H1080 H 0.24312 0.21449 0.09967 0.0
H1081 H 0.21513 0.20704 0.11466 0.0
H1082 H 0.22 0.19552 0.08463 0.0
H1083 H 0.21078 0.15171 0.09927 0.0
H1084 H 0.20627 0.16313 0.12951 0.0
H1085 H 0.22786 0.14059 0.12395 0.0
H1086 H 0.31219 0.17708 0.15074 0.0
H1087 H 0.29898 0.19879 0.18754 0.0
H1088 H 0.22738 0.20089 0.15708 0.0
C1089 C 0.25782 0.16174 0.07254 0.0
C1090 C 0.27838 0.15379 0.06084 0.0
C1091 C 0.30016 0.15261 0.07382 0.0
C1092 C 0.30155 0.15995 0.09827 0.0
C1093 C 0.28078 0.16761 0.10944 0.0
C1094 C 0.2593 0.16831 0.09694 0.0
C1095 C 0.23953 0.17726 0.11275 0.0
C1096 C 0.22884 0.19993 0.10231 0.0
C1097 C 0.21995 0.15696 0.11659 0.0
C1098 C 0.25352 0.1831 0.13574 0.0
C1099 C 0.27715 0.1769 0.13379 0.0
C1100 C 0.29366 0.18171 0.15254 0.0
C1101 C 0.28599 0.19391 0.17342 0.0
C1102 C 0.26218 0.20145 0.17507 0.0
C1103 C 0.24567 0.19525 0.15629 0.0
H1104 H 0.18166 0.09246 0.95955 0.0
H1105 H 0.20152 0.09496 0.03518 0.0
H1106 H 0.15939 0.08412 0.04619 0.0
H1107 H 0.12033 0.11441 0.96709 0.0
H1108 H 0.10739 0.09396 0.94417 0.0
H1109 H 0.13832 0.10513 0.94199 0.0
H1110 H 0.15231 0.06109 0.93954 0.0
H1111 H 0.12142 0.05005 0.94074 0.0
H1112 H 0.14274 0.04 0.96239 0.0
H1113 H 0.11597 0.07212 0.04912 0.0
H1114 H 0.07724 0.04867 0.04369 0.0
H1115 H 0.08587 0.05022 0.96627 0.0
C1116 C 0.17699 0.09056 0.97836 0.0
C1117 C 0.19459 0.09429 -0.00339 0.0
C1118 C 0.18813 0.09183 0.02105 0.0
C1119 C 0.16424 0.08613 0.02745 0.0
C1120 C 0.14708 0.08294 0.00914 0.0
C1121 C 0.15322 0.0844 0.98505 0.0
C1122 C 0.13186 0.07714 0.96893 0.0
C1123 C 0.12402 0.09896 0.9547 0.0
C1124 C 0.13742 0.05579 0.95192 0.0
C1125 C 0.11327 0.06984 0.9877 0.0
C1126 C 0.12206 0.07466 0.01078 0.0
C1127 C 0.10877 0.06846 0.03117 0.0
C1128 C 0.08666 0.0554 0.02794 0.0
C1129 C 0.07856 0.04812 0.00459 0.0
C1130 C 0.09146 0.05629 0.98423 0.0
H1131 H 0.66948 0.41011 0.00997 0.0
H1132 H 0.71449 0.4751 -0.00181 0.0
H1133 H 0.6783 0.49949 -0.00211 0.0
H1134 H 0.61496 0.42567 0.97737 0.0
H1135 H 0.59575 0.41284 0.00039 0.0
H1136 H 0.62448 0.40056 0.99458 0.0
H1137 H 0.63599 0.40738 0.03969 0.0
H1138 H 0.60753 0.42004 0.04557 0.0
H1139 H 0.63503 0.43735 0.05311 0.0
H1140 H 0.63642 0.51662 0.00124 0.0
H1141 H 0.59425 0.52512 0.01193 0.0
H1142 H 0.57963 0.44902 0.02663 0.0
C1143 C 0.67153 0.42932 0.00638 0.0
C1144 C 0.69434 0.4408 0.00326 0.0
C1145 C 0.69683 0.46612 -1e-05 0.0
C1146 C 0.67646 0.48001 -0.00019 0.0
C1147 C 0.65404 0.4682 0.00357 0.0
C1148 C 0.65162 0.44342 0.00707 0.0
C1149 C 0.6265 0.43538 0.01438 0.0
C1150 C 0.61473 0.41757 -0.00445 0.0
C1151 C 0.62627 0.42441 0.03968 0.0
C1152 C 0.61505 0.45944 0.01446 0.0
C1153 C 0.6309 0.47819 0.00773 0.0
C1154 C 0.6239 0.50207 0.0066 0.0
C1155 C 0.6001 0.50677 0.01271 0.0
C1156 C 0.5842 0.48773 0.02043 0.0
C1157 C 0.59175 0.4639 0.02113 0.0
H1158 H 0.8308 0.43332 0.22079 0.0
H1159 H 0.86396 0.4336 0.29156 0.0
H1160 H 0.85321 0.38945 0.29457 0.0
H1161 H 0.78187 0.39625 0.23186 0.0
H1162 H 0.78129 0.38052 0.20301 0.0
H1163 H 0.79466 0.41077 0.20573 0.0
H1164 H 0.83445 0.39583 0.18805 0.0
H1165 H 0.82111 0.36536 0.18549 0.0
H1166 H 0.84878 0.37126 0.2021 0.0
H1167 H 0.83303 0.34677 0.29163 0.0
H1168 H 0.80551 0.31062 0.28322 0.0
H1169 H 0.78845 0.33904 0.21341 0.0
C1170 C 0.83605 0.42396 0.23678 0.0
C1171 C 0.84783 0.43657 0.25607 0.0
C1172 C 0.8548 0.42397 0.27665 0.0
C1173 C 0.84892 0.39898 0.27841 0.0
C1174 C 0.83686 0.38701 0.25906 0.0
C1175 C 0.8309 0.39914 0.2385 0.0
C1176 C 0.81665 0.38292 0.22082 0.0
C1177 C 0.79218 0.39323 0.21505 0.0
C1178 C 0.83112 0.37858 0.19776 0.0
C1179 C 0.81388 0.36022 0.23531 0.0
C1180 C 0.82606 0.36254 0.25711 0.0
C1181 C 0.82391 0.34455 0.27439 0.0
C1182 C 0.8083 0.32411 0.26949 0.0
C1183 C 0.79493 0.32227 0.24771 0.0
C1184 C 0.79855 0.34006 0.23017 0.0
H1185 H 0.82831 0.60146 0.51986 0.0
H1186 H 0.81238 0.55756 0.45553 0.0
H1187 H 0.85266 0.54041 0.45832 0.0
H1188 H 0.89312 0.61412 0.50769 0.0
H1189 H 0.90093 0.61265 0.53917 0.0
H1190 H 0.87208 0.6229 0.53041 0.0
H1191 H 0.8509 0.58998 0.5567 0.0
H1192 H 0.8796 0.57966 0.56549 0.0
H1193 H 0.85737 0.55863 0.55182 0.0
H1194 H 0.89184 0.52392 0.47231 0.0
H1195 H 0.9281 0.51181 0.49426 0.0
H1196 H 0.91913 0.56896 0.54737 0.0
C1197 C 0.83359 0.58856 0.50614 0.0
C1198 C 0.81764 0.5807 0.48749 0.0
C1199 C 0.82468 0.56373 0.46985 0.0
C1200 C 0.84742 0.55401 0.47132 0.0
C1201 C 0.86275 0.56187 0.49028 0.0
C1202 C 0.85621 0.57906 0.50716 0.0
C1203 C 0.87522 0.58365 0.52649 0.0
C1204 C 0.88598 0.60989 0.52588 0.0
C1205 C 0.86517 0.57761 0.55159 0.0
C1206 C 0.89325 0.5658 0.51838 0.0
C1207 C 0.88584 0.55342 0.49743 0.0
C1208 C 0.89836 0.5342 0.48808 0.0
C1209 C 0.91903 0.52763 0.50038 0.0
C1210 C 0.92695 0.54036 0.52152 0.0
C1211 C 0.91389 0.55963 0.53061 0.0
H1212 H 0.18516 0.05919 0.23645 0.0
H1213 H 0.11516 0.0876 0.24874 0.0
H1214 H 0.13247 0.12908 0.24356 0.0
H1215 H 0.21667 0.09919 0.27085 0.0
H1216 H 0.24302 0.10269 0.25224 0.0
H1217 H 0.22419 0.07535 0.24992 0.0
H1218 H 0.21928 0.08183 0.20403 0.0
H1219 H 0.23789 0.10959 0.20645 0.0
H1220 H 0.20815 0.10979 0.1936 0.0
H1221 H 0.15766 0.16674 0.24643 0.0
H1222 H 0.18928 0.19668 0.26105 0.0
H1223 H 0.24335 0.14548 0.24668 0.0
C1224 C 0.17339 0.07412 0.23726 0.0
C1225 C 0.14884 0.07017 0.24299 0.0
C1226 C 0.13405 0.09017 0.24444 0.0
C1227 C 0.14366 0.11382 0.24118 0.0
C1228 C 0.16808 0.11726 0.23627 0.0
C1229 C 0.18279 0.09793 0.23422 0.0
C1230 C 0.209 0.10671 0.23297 0.0
C1231 C 0.22407 0.09533 0.25268 0.0
C1232 C 0.21917 0.10168 0.20776 0.0
C1233 C 0.20684 0.13369 0.23738 0.0
C1234 C 0.18301 0.13956 0.23793 0.0
C1235 C 0.17637 0.16263 0.24507 0.0
C1236 C 0.19437 0.1797 0.25306 0.0
C1237 C 0.21853 0.17355 0.25385 0.0
C1238 C 0.22497 0.15068 0.24515 0.0
H1239 H 0.32047 0.90308 0.47255 0.0
H1240 H 0.31205 0.91772 0.549 0.0
H1241 H 0.35482 0.93269 0.55183 0.0
H1242 H 0.38206 0.88525 0.47368 0.0
H1243 H 0.39033 0.90077 0.44645 0.0
H1244 H 0.35979 0.88914 0.45061 0.0
H1245 H 0.34398 0.93181 0.44401 0.0
H1246 H 0.37432 0.94322 0.43888 0.0
H1247 H 0.35648 0.95731 0.4617 0.0
H1248 H 0.39842 0.94411 0.54651 0.0
H1249 H 0.43598 0.96414 0.53206 0.0
H1250 H 0.41447 0.94683 0.45815 0.0
C1251 C 0.32776 0.90952 0.48983 0.0
C1252 C 0.31343 0.90915 0.51065 0.0
C1253 C 0.32305 0.91797 0.53295 0.0
C1254 C 0.34728 0.9261 0.53474 0.0
C1255 C 0.36128 0.9255 0.51398 0.0
C1256 C 0.35165 0.91831 0.49178 0.0
C1257 C 0.36971 0.9222 0.47178 0.0
C1258 C 0.37583 0.89789 0.45993 0.0
C1259 C 0.36058 0.93969 0.453 0.0
C1260 C 0.39084 0.9334 0.48611 0.0
C1261 C 0.38593 0.93401 0.51054 0.0
C1262 C 0.40248 0.94379 0.52745 0.0
C1263 C 0.42391 0.95484 0.51906 0.0
C1264 C 0.42801 0.95689 0.49399 0.0
C1265 C 0.41182 0.94511 0.47737 0.0
H1266 H 0.81153 0.57728 0.25907 0.0
H1267 H 0.81709 0.55668 0.18342 0.0
H1268 H 0.80472 0.59692 0.17192 0.0
H1269 H 0.75735 0.61315 0.25022 0.0
H1270 H 0.76678 0.63535 0.27314 0.0
H1271 H 0.77496 0.60441 0.27561 0.0
H1272 H 0.81981 0.61927 0.27897 0.0
H1273 H 0.81166 0.65017 0.27631 0.0
H1274 H 0.83296 0.63789 0.25566 0.0
H1275 H 0.79773 0.64044 0.16849 0.0
H1276 H 0.79014 0.68402 0.1733 0.0
H1277 H 0.78423 0.67581 0.25059 0.0
C1278 C 0.80967 0.58119 0.24014 0.0
C1279 C 0.81516 0.56395 0.22209 0.0
C1280 C 0.81264 0.56957 0.19748 0.0
C1281 C 0.80577 0.59241 0.19076 0.0
C1282 C 0.80083 0.60917 0.20887 0.0
C1283 C 0.80205 0.60375 0.23306 0.0
C1284 C 0.79548 0.62521 0.24875 0.0
C1285 C 0.77226 0.61917 0.26275 0.0
C1286 C 0.81623 0.63362 0.26592 0.0
C1287 C 0.79154 0.64375 0.22957 0.0
C1288 C 0.79486 0.63408 0.20672 0.0
C1289 C 0.79439 0.64813 0.18619 0.0
C1290 C 0.79019 0.67277 0.18905 0.0
C1291 C 0.7861 0.68283 0.21219 0.0
C1292 C 0.78661 0.66817 0.23267 0.0
H1293 H 0.64906 0.42173 0.72374 0.0
H1294 H 0.68352 0.44317 0.79153 0.0
H1295 H 0.69777 0.40147 0.79547 0.0
H1296 H 0.63127 0.35749 0.74172 0.0
H1297 H 0.63609 0.34639 0.71144 0.0
H1298 H 0.62571 0.37643 0.71647 0.0
H1299 H 0.66169 0.39479 0.69201 0.0
H1300 H 0.67172 0.36491 0.68662 0.0
H1301 H 0.69182 0.38796 0.70046 0.0
H1302 H 0.71425 0.35958 0.78729 0.0
H1303 H 0.73172 0.32395 0.76729 0.0
H1304 H 0.68311 0.32973 0.70702 0.0
C1305 C 0.65931 0.41745 0.73958 0.0
C1306 C 0.66561 0.43542 0.75714 0.0
C1307 C 0.67873 0.42943 0.77784 0.0
C1308 C 0.68666 0.40581 0.78028 0.0
C1309 C 0.68043 0.3884 0.76229 0.0
C1310 C 0.66663 0.39399 0.74256 0.0
C1311 C 0.66385 0.3731 0.72463 0.0
C1312 C 0.63767 0.36274 0.72351 0.0
C1313 C 0.67283 0.38065 0.69948 0.0
C1314 C 0.67995 0.35553 0.73615 0.0
C1315 C 0.68892 0.36419 0.75823 0.0
C1316 C 0.70679 0.35234 0.77039 0.0
C1317 C 0.71653 0.33204 0.75905 0.0
C1318 C 0.70843 0.32421 0.73584 0.0
C1319 C 0.68916 0.33527 0.725 0.0
H1320 H 0.03182 0.82194 0.91071 0.0
H1321 H 0.95432 0.81798 0.91675 0.0
H1322 H 0.95604 0.85986 0.93466 0.0
H1323 H 0.04691 0.85438 0.96391 0.0
H1324 H 0.07107 0.87248 0.95057 0.0
H1325 H 0.06274 0.84282 0.93821 0.0
H1326 H 0.05657 0.86164 0.89632 0.0
H1327 H 0.06444 0.89149 0.90876 0.0
H1328 H 0.03612 0.88556 0.89331 0.0
H1329 H 0.96757 0.90208 0.95388 0.0
H1330 H 0.98765 0.93846 0.97392 0.0
H1331 H 0.05689 0.91409 0.9523 0.0
C1332 C 0.01524 0.82987 0.91601 0.0
C1333 C -0.00699 0.81685 0.91294 0.0
C1334 C 0.97154 0.82782 0.91934 0.0
C1335 C 0.97238 0.85156 0.92931 0.0
C1336 C -0.00524 0.86411 0.93191 0.0
C1337 C 0.01574 0.85358 0.92521 0.0
C1338 C 0.03756 0.87055 0.92956 0.0
C1339 C 0.05561 0.85939 0.94659 0.0
C1340 C 0.04936 0.87773 0.90556 0.0
C1341 C 0.0259 0.89179 0.94128 0.0
C1342 C 0.00117 0.88814 0.94207 0.0
C1343 C 0.98691 0.9051 0.95318 0.0
C1344 C -0.00162 0.92572 0.96453 0.0
C1345 C 0.02372 0.9289 0.96504 0.0
C1346 C 0.03744 0.91213 0.95241 0.0
H1347 H 0.92828 0.28077 0.66931 0.0
H1348 H 0.93602 0.20803 0.69535 0.0
H1349 H 0.89353 0.20563 0.70736 0.0
H1350 H 0.88847 0.29897 0.71774 0.0
H1351 H 0.87078 0.31703 0.69854 0.0
H1352 H 0.90198 0.31329 0.69186 0.0
H1353 H 0.89026 0.29698 0.649 0.0
H1354 H 0.85906 0.30071 0.65554 0.0
H1355 H 0.8687 0.27153 0.64557 0.0
H1356 H 0.85063 0.21051 0.7162 0.0
H1357 H 0.80919 0.22275 0.72185 0.0
H1358 H 0.82853 0.29254 0.69058 0.0
C1359 C 0.92102 0.26446 0.67771 0.0
C1360 C 0.93547 0.24468 0.68163 0.0
C1361 C 0.92538 0.22356 0.69257 0.0
C1362 C 0.90123 0.22194 0.69932 0.0
C1363 C 0.88747 0.24172 0.69531 0.0
C1364 C 0.89693 0.26265 0.68493 0.0
C1365 C 0.87813 0.28136 0.6831 0.0
C1366 C 0.88527 0.304 0.69874 0.0
C1367 C 0.87378 0.28802 0.65673 0.0
C1368 C 0.85655 0.26735 0.69347 0.0
C1369 C 0.86247 0.2446 0.70056 0.0
C1370 C 0.84576 0.22833 0.71087 0.0
C1371 C 0.8223 0.2355 0.71409 0.0
C1372 C 0.81571 0.25865 0.70679 0.0
C1373 C 0.83309 0.27474 0.69631 0.0
H1374 H 0.50712 0.16478 0.38989 0.0
H1375 H 0.5165 0.20739 0.45618 0.0
H1376 H 0.51731 0.16942 0.47919 0.0
H1377 H 0.4649 0.12569 0.41188 0.0
H1378 H 0.47352 0.09947 0.39475 0.0
H1379 H 0.48022 0.12925 0.38351 0.0
H1380 H 0.52548 0.12031 0.38094 0.0
H1381 H 0.51857 0.09038 0.3922 0.0
H1382 H 0.54078 0.11035 0.40734 0.0
H1383 H 0.51121 0.1271 0.49513 0.0
H1384 H 0.49234 0.08639 0.5029 0.0
H1385 H 0.48394 0.07261 0.42623 0.0
C1386 C 0.5102 0.16619 0.40917 0.0
C1387 C 0.5121 0.18898 0.42125 0.0
C1388 C 0.51517 0.19006 0.44659 0.0
C1389 C 0.51591 0.1686 0.45972 0.0
C1390 C 0.51343 0.14633 0.4472 0.0
C1391 C 0.51041 0.1451 0.42244 0.0
C1392 C 0.50349 0.11959 0.41352 0.0
C1393 C 0.4791 0.11845 0.40016 0.0
C1394 C 0.52328 0.10957 0.39756 0.0
C1395 C 0.50187 0.10671 0.4372 0.0
C1396 C 0.50864 0.12214 0.45639 0.0
C1397 C 0.50636 0.11479 0.48021 0.0
C1398 C 0.49578 0.09163 0.48448 0.0
C1399 C 0.48725 0.07651 0.46503 0.0
C1400 C 0.49107 0.08375 0.44121 0.0
H1401 H 0.56194 0.72602 0.17049 0.0
H1402 H 0.57897 0.78667 0.12432 0.0
H1403 H 0.62263 0.7818 0.13107 0.0
H1404 H 0.60739 0.73698 0.21356 0.0
H1405 H 0.61248 0.7053 0.21709 0.0
H1406 H 0.5835 0.71423 0.20758 0.0
H1407 H 0.58607 0.6858 0.16982 0.0
H1408 H 0.61553 0.67746 0.17891 0.0
H1409 H 0.61107 0.68988 0.14955 0.0
H1410 H 0.66436 0.77232 0.14734 0.0
H1411 H 0.69854 0.7607 0.17235 0.0
H1412 H 0.65334 0.7026 0.20249 0.0
C1413 C 0.57491 0.73837 0.16196 0.0
C1414 C 0.56737 0.75704 0.14742 0.0
C1415 C 0.58465 0.77247 0.13587 0.0
C1416 C 0.60937 0.76966 0.13941 0.0
C1417 C 0.61628 0.75074 0.15375 0.0
C1418 C 0.59941 0.73526 0.16459 0.0
C1419 C 0.61104 0.71659 0.17944 0.0
C1420 C 0.60315 0.71841 0.20598 0.0
C1421 C 0.6056 0.69091 0.16878 0.0
C1422 C 0.63717 0.72463 0.17641 0.0
C1423 C 0.64003 0.74424 0.1614 0.0
C1424 C 0.66237 0.75664 0.15867 0.0
C1425 C 0.6818 0.74977 0.17282 0.0
C1426 C 0.67858 0.73076 0.18947 0.0
C1427 C 0.65644 0.71709 0.18984 0.0
H1428 H 0.00959 0.1649 0.61636 0.0
H1429 H 0.96201 0.20632 0.57325 0.0
H1430 H 0.95559 0.17157 0.54508 0.0
H1431 H 0.03927 0.13922 0.56943 0.0
H1432 H 0.04197 0.1095 0.58163 0.0
H1433 H 0.03939 0.13533 0.60161 0.0
H1434 H 0.00236 0.11434 0.6219 0.0
H1435 H 0.00505 0.08817 0.60226 0.0
H1436 H 0.97714 0.10311 0.60362 0.0
H1437 H 0.95898 0.13708 0.51887 0.0
H1438 H 0.96983 0.10176 0.49524 0.0
H1439 H 0.0156 0.07989 0.55373 0.0
C1440 C -0.00274 0.16623 0.60136 0.0
C1441 C 0.98619 0.18818 0.59687 0.0
C1442 C 0.97065 0.18968 0.57686 0.0
C1443 C 0.96678 0.17 0.56089 0.0
C1444 C 0.97863 0.14898 0.56517 0.0
C1445 C -0.00664 0.14667 0.58496 0.0
C1446 C 0.00569 0.12274 0.58364 0.0
C1447 C 0.03321 0.12697 0.58409 0.0
C1448 C -0.00296 0.1061 0.60407 0.0
C1449 C -0.00334 0.11284 0.55922 0.0
C1450 C 0.98075 0.12828 0.54937 0.0
C1451 C 0.97111 0.1246 0.52645 0.0
C1452 C 0.97774 0.10456 0.51303 0.0
C1453 C -0.00613 0.08813 0.52244 0.0
C1454 C 0.00327 0.09214 0.54607 0.0
H1455 H 0.58469 0.22734 0.32736 0.0
H1456 H 0.56731 0.29978 0.35078 0.0
H1457 H 0.60723 0.31579 0.33738 0.0
H1458 H 0.64893 0.23402 0.34504 0.0
H1459 H 0.65819 0.21613 0.31952 0.0
H1460 H 0.62897 0.21006 0.33258 0.0
H1461 H 0.60888 0.21546 0.29091 0.0
H1462 H 0.638 0.22128 0.27779 0.0
H1463 H 0.61531 0.24307 0.27483 0.0
H1464 H 0.64678 0.32436 0.31792 0.0
H1465 H 0.68346 0.32516 0.29322 0.0
H1466 H 0.67628 0.24681 0.28444 0.0
C1467 C 0.58939 0.24655 0.3298 0.0
C1468 C 0.57301 0.26241 0.33999 0.0
C1469 C 0.57972 0.28737 0.34307 0.0
C1470 C 0.60234 0.29658 0.33561 0.0
C1471 C 0.61811 0.28045 0.32564 0.0
C1472 C 0.61203 0.25594 0.32288 0.0
C1473 C 0.63191 0.24266 0.31078 0.0
C1474 C 0.64263 0.22465 0.32801 0.0
C1475 C 0.62299 0.22989 0.28718 0.0
C1476 C 0.64964 0.26375 0.30608 0.0
C1477 C 0.64145 0.28533 0.3151 0.0
C1478 C 0.65365 0.30756 0.31122 0.0
C1479 C 0.67444 0.30782 0.29719 0.0
C1480 C 0.68279 0.286 0.28729 0.0
C1481 C 0.67063 0.26365 0.29239 0.0
H1482 H 0.49212 0.81513 0.05244 0.0
H1483 H 0.48515 0.83257 0.1288 0.0
H1484 H 0.48768 0.87596 0.12002 0.0
H1485 H 0.53316 0.8672 0.038 0.0
H1486 H 0.51917 0.87218 0.0093 0.0
H1487 H 0.51882 0.84203 0.02118 0.0
H1488 H 0.4724 0.83829 0.01773 0.0
H1489 H 0.47267 0.86824 0.00555 0.0
H1490 H 0.45498 0.86116 0.03185 0.0
H1491 H 0.49102 0.91635 0.10435 0.0
H1492 H 0.48733 0.95342 0.08151 0.0
H1493 H 0.48953 0.91197 0.01419 0.0
C1494 C 0.49107 0.82815 0.06724 0.0
C1495 C 0.48848 0.8205 0.09133 0.0
C1496 C 0.487 0.83798 0.11022 0.0
C1497 C 0.48873 0.86269 0.10546 0.0
C1498 C 0.49171 0.86966 0.08169 0.0
C1499 C 0.49238 0.85308 0.06275 0.0
C1500 C 0.49376 0.86588 0.03876 0.0
C1501 C 0.51765 0.86156 0.02606 0.0
C1502 C 0.47216 0.85792 0.02252 0.0
C1503 C 0.49277 0.89215 0.0473 0.0
C1504 C 0.49244 0.89365 0.07223 0.0
C1505 C 0.49114 0.91549 0.08484 0.0
C1506 C 0.489 0.93639 0.07171 0.0
C1507 C 0.48781 0.93535 0.04622 0.0
C1508 C 0.49047 0.91311 0.03368 0.0
H1509 H 0.91825 0.77997 0.81793 0.0
H1510 H 0.94137 0.70646 0.81165 0.0
H1511 H 0.90773 0.69581 0.78331 0.0
H1512 H 0.85654 0.76203 0.82093 0.0
H1513 H 0.84676 0.78806 0.80534 0.0
H1514 H 0.87447 0.79024 0.82216 0.0
H1515 H 0.89676 0.80485 0.78375 0.0
H1516 H 0.86909 0.80198 0.7667 0.0
H1517 H 0.89482 0.78624 0.75661 0.0
H1518 H 0.87058 0.6924 0.75841 0.0
H1519 H 0.8284 0.69389 0.74509 0.0
H1520 H 0.82831 0.7693 0.76829 0.0
C1521 C 0.91633 0.76174 0.81026 0.0
C1522 C 0.93239 0.74404 0.81657 0.0
C1523 C 0.92913 0.72019 0.80691 0.0
C1524 C 0.91032 0.71412 0.7906 0.0
C1525 C 0.89486 0.73207 0.78449 0.0
C1526 C 0.89733 0.75525 0.79446 0.0
C1527 C 0.87638 0.77012 0.78771 0.0
C1528 C 0.86273 0.77806 0.81037 0.0
C1529 C 0.88478 0.7921 0.77279 0.0
C1530 C 0.86154 0.75159 0.77258 0.0
C1531 C 0.87285 0.72994 0.77051 0.0
C1532 C 0.86169 0.70932 0.75956 0.0
C1533 C 0.83782 0.71035 0.75192 0.0
C1534 C 0.82543 0.73181 0.75534 0.0
C1535 C 0.83776 0.75299 0.76469 0.0
H1536 H 0.92005 0.97626 0.8315 0.0
H1537 H 0.94255 0.04893 0.81011 0.0
H1538 H 0.96398 0.05596 0.84932 0.0
H1539 H 0.90635 0.99326 0.89158 0.0
H1540 H 0.91555 0.96543 0.90423 0.0
H1541 H 0.90466 0.96557 0.87365 0.0
H1542 H 0.94399 0.94735 0.85881 0.0
H1543 H 0.95506 0.94727 0.88937 0.0
H1544 H 0.97253 0.96263 0.86647 0.0
H1545 H 0.98332 0.05418 0.89101 0.0
H1546 H -0.00643 0.04647 0.93367 0.0
H1547 H 0.95382 0.97683 0.92864 0.0
C1548 C 0.92982 0.99351 0.83502 0.0
C1549 C 0.93021 0.01194 0.81791 0.0
C1550 C 0.94239 0.0346 0.82313 0.0
C1551 C 0.95464 0.03864 0.84521 0.0
C1552 C 0.95391 0.01999 0.86185 0.0
C1553 C 0.94139 -0.00195 0.85712 0.0
C1554 C 0.94121 0.98181 0.8787 0.0
C1555 C 0.91541 0.9762 0.88756 0.0
C1556 C 0.95397 0.95838 0.87299 0.0
C1557 C 0.95554 -0.00199 0.89645 0.0
C1558 C 0.96325 0.01972 0.88626 0.0
C1559 C 0.97724 0.03733 0.89918 0.0
C1560 C 0.98305 0.0328 0.92327 0.0
C1561 C 0.97429 0.01118 0.93416 0.0
C1562 C 0.96055 0.99355 0.92058 0.0
H1563 H 0.76414 0.14998 0.58383 0.0
H1564 H 0.71263 0.18288 0.53749 0.0
H1565 H 0.69338 0.20041 0.57303 0.0
H1566 H 0.72481 0.13695 0.6345 0.0
H1567 H 0.7472 0.14594 0.65702 0.0
H1568 H 0.75621 0.13383 0.62822 0.0
H1569 H 0.78394 0.17234 0.62088 0.0
H1570 H 0.77586 0.18372 0.65015 0.0
H1571 H 0.7717 0.20179 0.62395 0.0
H1572 H 0.68045 0.21549 0.61225 0.0
H1573 H 0.68179 0.23671 0.65183 0.0
H1574 H 0.74111 0.19467 0.6737 0.0
C1575 C 0.74892 0.16103 0.58124 0.0
C1576 C 0.73978 0.16495 0.55797 0.0
C1577 C 0.72005 0.17976 0.55516 0.0
C1578 C 0.70866 0.18939 0.57526 0.0
C1579 C 0.71738 0.1843 0.598 0.0
C1580 C 0.73756 0.17122 0.60113 0.0
C1581 C 0.74508 0.1712 0.62737 0.0
C1582 C 0.7432 0.14544 0.63736 0.0
C1583 C 0.77064 0.18298 0.63078 0.0
C1584 C 0.72626 0.1868 0.63834 0.0
C1585 C 0.71002 0.19348 0.6211 0.0
C1586 C 0.69277 0.21017 0.62605 0.0
C1587 C 0.69348 0.22197 0.64858 0.0
C1588 C 0.71132 0.21692 0.66562 0.0
C1589 C 0.7268 0.19806 0.66113 0.0
H1590 H 0.57641 0.02506 0.33257 0.0
H1591 H 0.57208 0.94778 0.31632 0.0
H1592 H 0.55652 0.94001 0.35741 0.0
H1593 H 0.59886 0.01919 0.39223 0.0
H1594 H 0.58345 0.04441 0.40463 0.0
H1595 H 0.59189 0.04402 0.37335 0.0
H1596 H 0.54771 0.04939 0.36092 0.0
H1597 H 0.53912 0.04977 0.39218 0.0
H1598 H 0.52437 0.02825 0.37129 0.0
H1599 H 0.54283 0.94077 0.40063 0.0
H1600 H 0.53319 0.94988 0.44339 0.0
H1601 H 0.54845 0.0265 0.43181 0.0
C1602 C 0.57174 0.00654 0.33757 0.0
C1603 C 0.57502 0.98697 0.32134 0.0
C1604 C 0.56951 0.96294 0.32859 0.0
C1605 C 0.56065 0.95841 0.35181 0.0
C1606 C 0.55794 0.97812 0.36756 0.0
C1607 C 0.5635 0.00171 0.36081 0.0
C1608 C 0.56086 0.01951 0.3817 0.0
C1609 C 0.58521 0.03254 0.38836 0.0
C1610 C 0.54187 0.0378 0.37618 0.0
C1611 C 0.55252 0.00229 0.40117 0.0
C1612 C 0.55093 0.97849 0.39266 0.0
C1613 C 0.54404 0.9593 0.40749 0.0
C1614 C 0.5387 0.96457 0.43166 0.0
C1615 C 0.54032 0.98876 0.44058 0.0
C1616 C 0.54719 0.00785 0.42521 0.0
H1617 H 0.74094 0.8157 0.05792 0.0
H1618 H 0.70839 0.87893 0.08811 0.0
H1619 H 0.70602 0.85971 0.12778 0.0
H1620 H 0.71027 0.76863 0.09996 0.0
H1621 H 0.73759 0.75272 0.10143 0.0
H1622 H 0.72982 0.76781 0.0742 0.0
H1623 H 0.77105 0.79206 0.07563 0.0
H1624 H 0.77881 0.77718 0.10272 0.0
H1625 H 0.77946 0.80986 0.10232 0.0
H1626 H 0.71499 0.83801 0.16545 0.0
H1627 H 0.73702 0.81722 0.19724 0.0
H1628 H 0.76512 0.76917 0.14299 0.0
C1629 C 0.73227 0.82494 0.07262 0.0
C1630 C 0.72463 0.84863 0.06991 0.0
C1631 C 0.71422 0.86065 0.08978 0.0
C1632 C 0.71263 0.8498 0.11236 0.0
C1633 C 0.72145 0.82686 0.11483 0.0
C1634 C 0.73094 0.81448 0.09539 0.0
C1635 C 0.74315 0.79225 0.10349 0.0
C1636 C 0.72938 0.76897 0.09422 0.0
C1637 C 0.76967 0.79292 0.09559 0.0
C1638 C 0.74082 0.79518 0.13056 0.0
C1639 C 0.72736 0.81463 0.13679 0.0
C1640 C 0.72502 0.82236 0.16082 0.0
C1641 C 0.73751 0.81051 0.17877 0.0
C1642 C 0.75241 0.79161 0.17235 0.0
C1643 C 0.75339 0.78337 0.14818 0.0
H1644 H 0.91846 0.97685 0.68952 0.0
H1645 H 0.88571 0.04499 0.6778 0.0
H1646 H 0.90105 0.04519 0.63582 0.0
H1647 H 0.97116 0.98788 0.65709 0.0
H1648 H 0.97176 0.95733 0.64503 0.0
H1649 H 0.95737 0.9629 0.67336 0.0
H1650 H 0.91803 0.9411 0.65668 0.0
H1651 H 0.9323 0.93579 0.62813 0.0
H1652 H 0.90479 0.95143 0.62932 0.0
H1653 H 0.92332 0.0388 0.5959 0.0
H1654 H 0.94997 0.02634 0.5626 0.0
H1655 H 0.96422 0.96107 0.6012 0.0
C1656 C 0.91462 0.99186 0.67814 0.0
C1657 C 0.90136 0.01108 0.68678 0.0
C1658 C 0.89609 0.03018 0.67133 0.0
C1659 C 0.90459 0.03037 0.64753 0.0
C1660 C 0.91765 0.01098 0.63948 0.0
C1661 C 0.92232 0.99198 0.65434 0.0
C1662 C 0.93676 0.97331 0.64178 0.0
C1663 C 0.96068 0.9702 0.6551 0.0
C1664 C 0.92209 0.94897 0.6388 0.0
C1665 C 0.94061 0.98532 0.61789 0.0
C1666 C 0.92933 0.0069 0.61659 0.0
C1667 C 0.93199 0.02178 0.59662 0.0
C1668 C 0.94712 0.01461 0.57783 0.0
C1669 C 0.95931 0.99289 0.57945 0.0
C1670 C 0.9553 0.97788 0.59941 0.0
H1671 H 0.73466 0.19329 0.42661 0.0
H1672 H 0.78768 0.13897 0.41822 0.0
H1673 H 0.79715 0.15393 0.37767 0.0
H1674 H 0.71275 0.19043 0.36549 0.0
H1675 H 0.70921 0.2226 0.36374 0.0
H1676 H 0.70651 0.20792 0.39234 0.0
H1677 H 0.73956 0.23792 0.41044 0.0
H1678 H 0.74233 0.25273 0.3819 0.0
H1679 H 0.76839 0.24104 0.39593 0.0
H1680 H 0.8016 0.17452 0.33934 0.0
H1681 H 0.80052 0.19935 0.30339 0.0
H1682 H 0.74355 0.24015 0.33484 0.0
C1683 C 0.74835 0.18463 0.41627 0.0
C1684 C 0.7606 0.16507 0.42559 0.0
C1685 C 0.7783 0.15413 0.41153 0.0
C1686 C 0.78371 0.16243 0.38847 0.0
C1687 C 0.77131 0.18167 0.37984 0.0
C1688 C 0.75399 0.19269 0.39318 0.0
C1689 C 0.7435 0.21317 0.37946 0.0
C1690 C 0.71639 0.20822 0.37499 0.0
C1691 C 0.74876 0.23766 0.39273 0.0
C1692 C 0.75759 0.21175 0.35622 0.0
C1693 C 0.77362 0.19353 0.35711 0.0
C1694 C 0.78922 0.18888 0.3384 0.0
C1695 C 0.78858 0.20327 0.31815 0.0
C1696 C 0.77222 0.22193 0.31655 0.0
C1697 C 0.75632 0.22611 0.33574 0.0
H1698 H 0.60278 0.98427 0.16077 0.0
H1699 H 0.56178 0.02945 0.20857 0.0
H1700 H 0.54452 0.04876 0.17361 0.0
H1701 H 0.613 0.02883 0.11244 0.0
H1702 H 0.60833 0.00641 0.0885 0.0
H1703 H 0.62052 -0.00205 0.11709 0.0
H1704 H 0.58635 0.96442 0.12146 0.0
H1705 H 0.5749 0.97231 0.09252 0.0
H1706 H 0.55553 0.97232 0.11847 0.0
H1707 H 0.53066 0.06245 0.13499 0.0
H1708 H 0.51137 0.06119 0.09502 0.0
H1709 H 0.55862 0.00598 0.0709 0.0
C1710 C 0.59012 -0.0018 0.16377 0.0
C1711 C 0.58372 0.00545 0.18738 0.0
C1712 C 0.56687 0.02348 0.19067 0.0
C1713 C 0.55732 0.03494 0.17093 0.0
C1714 C 0.56455 0.02801 0.14796 0.0
C1715 C 0.57991 0.00952 0.14414 0.0
C1716 C 0.58189 0.00334 0.11746 0.0
C1717 C 0.60746 0.00951 0.10834 0.0
C1718 C 0.57419 0.97652 0.11218 0.0
C1719 C 0.56419 0.02035 0.10714 0.0
C1720 C 0.55542 0.03523 0.12506 0.0
C1721 C 0.53748 0.05112 0.12071 0.0
C1722 C 0.52674 0.0504 0.09794 0.0
C1723 C 0.5337 0.03361 0.08006 0.0
C1724 C 0.55356 0.01944 0.08415 0.0
H1725 H 0.73908 0.805 0.93863 0.0
H1726 H 0.72472 0.87827 0.9187 0.0
H1727 H 0.72329 0.86531 0.8756 0.0
H1728 H 0.77775 0.79232 0.89208 0.0
H1729 H 0.76708 0.76109 0.8878 0.0
H1730 H 0.76456 0.7758 0.91684 0.0
H1731 H 0.7186 0.76523 0.91679 0.0
H1732 H 0.72102 0.75021 0.88781 0.0
H1733 H 0.70052 0.77407 0.89178 0.0
H1734 H 0.72759 0.8441 0.83367 0.0
H1735 H 0.73437 0.8165 0.7986 0.0
H1736 H 0.74494 0.758 0.84788 0.0
C1737 C 0.7352 0.81825 0.92526 0.0
C1738 C 0.73204 0.8426 0.93199 0.0
C1739 C 0.72703 0.85942 0.91393 0.0
C1740 C 0.72627 0.85224 0.8894 0.0
C1741 C 0.73016 0.82812 0.88331 0.0
C1742 C 0.73411 0.81136 0.90088 0.0
C1743 C 0.73849 0.78674 0.88998 0.0
C1744 C 0.76345 0.77853 0.8971 0.0
C1745 C 0.71846 0.76796 0.897 0.0
C1746 C 0.73722 0.79233 0.86352 0.0
C1747 C 0.73227 0.81617 0.85977 0.0
C1748 C 0.73118 0.82531 0.83649 0.0
C1749 C 0.73512 0.80955 0.81667 0.0
C1750 C 0.74017 0.78503 0.82036 0.0
C1751 C 0.74111 0.77657 0.84419 0.0
H1752 H 0.82203 0.9196 0.03997 0.0
H1753 H 0.81956 0.89522 0.96518 0.0
H1754 H 0.86364 0.90341 0.96223 0.0
H1755 H 0.86606 0.9673 0.0355 0.0
H1756 H 0.88064 0.96136 0.06367 0.0
H1757 H 0.84928 0.95283 0.05943 0.0
H1758 H 0.85774 0.90861 0.07029 0.0
H1759 H 0.8893 0.91701 0.07395 0.0
H1760 H 0.87965 0.89269 0.0533 0.0
H1761 H 0.90742 0.91782 0.96681 0.0
H1762 H 0.94628 0.9386 0.97794 0.0
H1763 H 0.92094 0.9496 0.05092 0.0
C1764 C 0.83083 0.9161 0.02299 0.0
C1765 C 0.81753 0.90711 0.0027 0.0
C1766 C 0.82957 0.90223 0.98087 0.0
C1767 C 0.85456 0.90667 0.97909 0.0
C1768 C 0.86729 0.91526 -0.00045 0.0
C1769 C 0.85583 0.91973 0.02113 0.0
C1770 C 0.87353 0.92912 0.04038 0.0
C1771 C 0.86699 0.95414 0.05031 0.0
C1772 C 0.87515 0.91076 0.06068 0.0
C1773 C 0.89651 0.93072 0.02591 0.0
C1774 C 0.89267 0.92224 0.00249 0.0
C1775 C 0.91078 0.92395 0.98525 0.0
C1776 C 0.93301 0.93554 0.99184 0.0
C1777 C 0.93693 0.94533 0.01547 0.0
C1778 C 0.91868 0.94192 0.03285 0.0
H1779 H 0.32358 0.58109 0.97372 0.0
H1780 H 0.3058 0.55955 0.04656 0.0
H1781 H 0.34515 0.5418 0.05054 0.0
H1782 H 0.35546 0.52684 0.9583 0.0
H1783 H 0.37765 0.54311 0.94042 0.0
H1784 H 0.34776 0.55376 0.94288 0.0
H1785 H 0.36527 0.59583 0.95827 0.0
H1786 H 0.39517 0.5854 0.9556 0.0
H1787 H 0.38523 0.5976 0.98402 0.0
H1788 H 0.38644 0.52733 0.04718 0.0
H1789 H 0.42812 0.5183 0.03697 0.0
H1790 H 0.41905 0.54886 0.9663 0.0
C1791 C 0.32795 0.57244 0.99039 0.0
C1792 C 0.31164 0.57138 0.00971 0.0
C1793 C 0.31793 0.5601 0.03136 0.0
C1794 C 0.34024 0.55005 0.03385 0.0
C1795 C 0.35586 0.55116 0.0144 0.0
C1796 C 0.35004 0.562 0.99307 0.0
C1797 C 0.37024 0.56088 0.97506 0.0
C1798 C 0.3623 0.54522 0.95285 0.0
C1799 C 0.37952 0.58645 0.96783 0.0
C1800 C 0.38857 0.5485 0.98993 0.0
C1801 C 0.37977 0.54273 0.01244 0.0
C1802 C 0.3935 0.5315 0.02952 0.0
C1803 C 0.41704 0.5263 0.02351 0.0
C1804 C 0.42659 0.5327 0.00079 0.0
C1805 C 0.41207 0.54367 0.98374 0.0
H1806 H 0.16206 0.59036 0.77928 0.0
H1807 H 0.1558 0.56565 0.7047 0.0
H1808 H 0.16275 0.60782 0.69131 0.0
H1809 H 0.13573 0.64849 0.77407 0.0
H1810 H 0.15743 0.66458 0.79362 0.0
H1811 H 0.1501 0.63274 0.79782 0.0
H1812 H 0.19502 0.62334 0.79383 0.0
H1813 H 0.20243 0.6552 0.79054 0.0
H1814 H 0.21159 0.63378 0.76788 0.0
H1815 H 0.17188 0.65173 0.68581 0.0
H1816 H 0.19098 0.69316 0.68822 0.0
H1817 H 0.19196 0.6902 0.76609 0.0
C1818 C 0.16239 0.59397 0.76017 0.0
C1819 C 0.15865 0.57496 0.74292 0.0
C1820 C 0.15911 0.58008 0.71807 0.0
C1821 C 0.16262 0.60397 0.71035 0.0
C1822 C 0.16589 0.62246 0.72774 0.0
C1823 C 0.16651 0.61773 0.75211 0.0
C1824 C 0.17316 0.64062 0.76682 0.0
C1825 C 0.15288 0.64697 0.7841 0.0
C1826 C 0.19696 0.63809 0.78056 0.0
C1827 C 0.17605 0.65892 0.7469 0.0
C1828 C 0.17136 0.64809 0.72453 0.0
C1829 C 0.1752 0.66058 0.70321 0.0
C1830 C 0.18572 0.68421 0.70471 0.0
C1831 C 0.19211 0.69502 0.72733 0.0
C1832 C 0.18609 0.68272 0.74868 0.0
H1833 H 0.18032 0.4323 0.47472 0.0
H1834 H 0.17133 0.41596 0.55024 0.0
H1835 H 0.13058 0.43182 0.54945 0.0
H1836 H 0.15222 0.48927 0.47971 0.0
H1837 H 0.13934 0.48663 0.44983 0.0
H1838 H 0.16687 0.47245 0.45635 0.0
H1839 H 0.14752 0.43101 0.4412 0.0
H1840 H 0.11987 0.44505 0.43483 0.0
H1841 H 0.11981 0.41942 0.45439 0.0
H1842 H 0.09042 0.44972 0.53985 0.0
H1843 H 0.05654 0.47171 0.52329 0.0
H1844 H 0.09418 0.47793 0.45517 0.0
C1845 C 0.16966 0.43204 0.491 0.0
C1846 C 0.17863 0.42299 0.51249 0.0
C1847 C 0.16456 0.42311 0.53365 0.0
C1848 C 0.14142 0.43186 0.53332 0.0
C1849 C 0.13298 0.44079 0.51178 0.0
C1850 C 0.14688 0.44131 0.49115 0.0
C1851 C 0.1346 0.45358 0.47088 0.0
C1852 C 0.14912 0.47686 0.46379 0.0
C1853 C 0.13018 0.43621 0.44905 0.0
C1854 C 0.1114 0.45935 0.48311 0.0
C1855 C 0.1106 0.45182 0.50665 0.0
C1856 C 0.09091 0.4558 0.52144 0.0
C1857 C 0.07181 0.46832 0.51197 0.0
C1858 C 0.07284 0.47681 0.4881 0.0
C1859 C 0.09275 0.4718 0.47353 0.0
H1860 H 0.80404 0.94755 0.74452 0.0
H1861 H 0.86304 0.9234 0.78745 0.0
H1862 H 0.84468 0.88161 0.7859 0.0
H1863 H 0.75575 0.90385 0.76755 0.0
H1864 H 0.74251 0.90002 0.7379 0.0
H1865 H 0.75743 0.92863 0.74691 0.0
H1866 H 0.78498 0.92641 0.70945 0.0
H1867 H 0.77024 0.89788 0.70045 0.0
H1868 H 0.80237 0.90017 0.70472 0.0
H1869 H 0.82253 0.8414 0.77502 0.0
H1870 H 0.80011 0.80704 0.75367 0.0
H1871 H 0.75753 0.85804 0.71657 0.0
C1872 C 0.81267 0.93368 0.75435 0.0
C1873 C 0.83481 0.93879 0.76631 0.0
C1874 C 0.84593 0.91993 0.77831 0.0
C1875 C 0.83558 0.89615 0.77764 0.0
C1876 C 0.8141 0.89155 0.76495 0.0
C1877 C 0.80277 0.90987 0.75358 0.0
C1878 C 0.78177 0.89991 0.73837 0.0
C1879 C 0.75796 0.90862 0.74828 0.0
C1880 C 0.78507 0.90648 0.71168 0.0
C1881 C 0.7837 0.87309 0.74205 0.0
C1882 C 0.80198 0.8685 0.75795 0.0
C1883 C 0.80793 0.84482 0.76285 0.0
C1884 C 0.79517 0.82544 0.75072 0.0
C1885 C 0.7773 0.83013 0.73356 0.0
C1886 C 0.77118 0.85412 0.72968 0.0
H1887 H 0.67444 0.0876 0.5312 0.0
H1888 H 0.67149 0.09799 0.45405 0.0
H1889 H 0.62702 0.09586 0.45552 0.0
H1890 H 0.62545 0.04552 0.53607 0.0
H1891 H 0.61545 0.05808 0.56432 0.0
H1892 H 0.64656 0.06165 0.55623 0.0
H1893 H 0.64422 0.10827 0.56229 0.0
H1894 H 0.61266 0.10468 0.56923 0.0
H1895 H 0.62269 0.12405 0.54514 0.0
H1896 H 0.58327 0.08991 0.46512 0.0
H1897 H 0.54496 0.07228 0.48027 0.0
H1898 H 0.57616 0.06881 0.55176 0.0
C1899 C 0.66439 0.08897 0.51456 0.0
C1900 C 0.67625 0.09246 0.49244 0.0
C1901 C 0.6626 0.09495 0.47112 0.0
C1902 C 0.63742 0.09421 0.47187 0.0
C1903 C 0.62627 0.09167 0.49418 0.0
C1904 C 0.63933 0.08887 0.51508 0.0
C1905 C 0.62308 0.08508 0.53654 0.0
C1906 C 0.62791 0.06116 0.54899 0.0
C1907 C 0.62583 0.10682 0.55435 0.0
C1908 C 0.59879 0.08411 0.52412 0.0
C1909 C 0.60094 0.08894 0.49983 0.0
C1910 C 0.58128 0.08646 0.48415 0.0
C1911 C 0.55941 0.07667 0.49303 0.0
C1912 C 0.55771 0.06898 0.51719 0.0
C1913 C 0.577 0.07472 0.53328 0.0
H1914 H 0.16975 0.42655 0.72379 0.0
H1915 H 0.18049 0.44728 0.79903 0.0
H1916 H 0.19532 0.40655 0.80699 0.0
H1917 H 0.14659 0.3657 0.73549 0.0
H1918 H 0.1599 0.35281 0.70894 0.0
H1919 H 0.15153 0.38385 0.70917 0.0
H1920 H 0.19497 0.39781 0.69749 0.0
H1921 H 0.20345 0.36682 0.69755 0.0
H1922 H 0.21978 0.38951 0.71598 0.0
H1923 H 0.21108 0.36425 0.80565 0.0
H1924 H 0.22169 0.32198 0.79657 0.0
H1925 H 0.19603 0.32795 0.72324 0.0
C1926 C 0.17547 0.42254 0.74189 0.0
C1927 C 0.17457 0.43999 0.76077 0.0
C1928 C 0.18139 0.43406 0.78438 0.0
C1929 C 0.18982 0.41108 0.78899 0.0
C1930 C 0.19058 0.39423 0.76988 0.0
C1931 C 0.18313 0.39956 0.7469 0.0
C1932 C 0.18424 0.37791 0.72981 0.0
C1933 C 0.15906 0.36958 0.7203 0.0
C1934 C 0.20166 0.38338 0.70898 0.0
C1935 C 0.19395 0.3596 0.74659 0.0
C1936 C 0.1978 0.36944 0.76956 0.0
C1937 C 0.20781 0.35628 0.78785 0.0
C1938 C 0.21383 0.33242 0.78256 0.0
C1939 C 0.20935 0.32197 0.75937 0.0
C1940 C 0.19927 0.33563 0.74119 0.0
H1941 H 0.3162 0.5796 0.22056 0.0
H1942 H 0.3459 0.56649 0.2913 0.0
H1943 H 0.33519 0.60727 0.30509 0.0
H1944 H 0.33409 0.64563 0.21956 0.0
H1945 H 0.30674 0.65257 0.20436 0.0
H1946 H 0.31952 0.62367 0.19898 0.0
H1947 H 0.27939 0.60129 0.21117 0.0
H1948 H 0.26651 0.63007 0.21603 0.0
H1949 H 0.26627 0.60846 0.23992 0.0
H1950 H 0.31663 0.6461 0.31277 0.0
H1951 H 0.28896 0.67945 0.31458 0.0
H1952 H 0.27313 0.66888 0.23846 0.0
C1953 C 0.32071 0.58541 0.23888 0.0
C1954 C 0.33188 0.56995 0.25489 0.0
C1955 C 0.33737 0.57811 0.27874 0.0
C1956 C 0.33158 0.6013 0.28665 0.0
C1957 C 0.32066 0.61614 0.27037 0.0
C1958 C 0.31526 0.60854 0.24698 0.0
C1959 C 0.30149 0.62708 0.23376 0.0
C1960 C 0.31636 0.63788 0.21294 0.0
C1961 C 0.27696 0.61607 0.22472 0.0
C1962 C 0.29874 0.64568 0.25386 0.0
C1963 C 0.31043 0.63924 0.27466 0.0
C1964 C 0.30796 0.65175 0.29649 0.0
C1965 C 0.29227 0.67061 0.29737 0.0
C1966 C 0.27952 0.67678 0.27652 0.0
C1967 C 0.28349 0.66492 0.25432 0.0
H1968 H 0.50467 0.69905 0.55837 0.0
H1969 H 0.48612 0.68256 0.63231 0.0
H1970 H 0.48919 0.63903 0.62325 0.0
H1971 H 0.46911 0.65212 0.53241 0.0
H1972 H 0.48942 0.64583 0.50816 0.0
H1973 H 0.48996 0.67563 0.52182 0.0
H1974 H 0.53552 0.67285 0.53062 0.0
H1975 H 0.53473 0.64257 0.51764 0.0
H1976 H 0.5456 0.64814 0.54802 0.0
H1977 H 0.48957 0.59742 0.60568 0.0
H1978 H 0.47972 0.56157 0.57925 0.0
H1979 H 0.49703 0.60415 0.51661 0.0
C1980 C 0.50164 0.68627 0.57271 0.0
C1981 C 0.49528 0.69424 0.59606 0.0
C1982 C 0.49096 0.67692 0.61424 0.0
C1983 C 0.49302 0.65213 0.60938 0.0
C1984 C 0.4994 0.64482 0.58622 0.0
C1985 C 0.5033 0.66134 0.56806 0.0
C1986 C 0.50644 0.64851 0.54397 0.0
C1987 C 0.4876 0.65595 0.52553 0.0
C1988 C 0.5321 0.65331 0.53451 0.0
C1989 C 0.50218 0.6223 0.55118 0.0
C1990 C 0.49917 0.6205 0.57582 0.0
C1991 C 0.49245 0.59848 0.58645 0.0
C1992 C 0.48712 0.57812 0.57138 0.0
C1993 C 0.48832 0.58016 0.54611 0.0
C1994 C 0.49695 0.60212 0.53599 0.0
H1995 H 0.5746 0.28527 0.82474 0.0
H1996 H 0.55873 0.21165 0.84791 0.0
H1997 H 0.59147 0.19739 0.82222 0.0
H1998 H 0.58934 0.27281 0.76465 0.0
H1999 H 0.61447 0.29472 0.76299 0.0
H2000 H 0.59038 0.29974 0.78371 0.0
H2001 H 0.62052 0.30365 0.81953 0.0
H2002 H 0.64475 0.2994 0.79877 0.0
H2003 H 0.64084 0.2799 0.82424 0.0
H2004 H 0.62161 0.19063 0.79047 0.0
H2005 H 0.65585 0.19225 0.76289 0.0
H2006 H 0.65589 0.27101 0.76346 0.0
C2007 C 0.57844 0.26625 0.82467 0.0
C2008 C 0.56429 0.24941 0.83802 0.0
C2009 C 0.56961 0.2247 0.8378 0.0
C2010 C 0.58794 0.21646 0.82313 0.0
C2011 C 0.60101 0.23335 0.80941 0.0
C2012 C 0.59721 0.25785 0.81075 0.0
C2013 C 0.61469 0.27221 0.79497 0.0
C2014 C 0.60141 0.28566 0.77542 0.0
C2015 C 0.63118 0.28982 0.8103 0.0
C2016 C 0.62848 0.25184 0.78409 0.0
C2017 C 0.61986 0.22958 0.79233 0.0
C2018 C 0.62889 0.20795 0.78425 0.0
C2019 C 0.64822 0.20912 0.76835 0.0
C2020 C 0.65877 0.23182 0.76123 0.0
C2021 C 0.64825 0.25342 0.76863 0.0
H2022 H 0.98923 0.31803 0.05201 0.0
H2023 H 0.00156 0.33431 0.1278 0.0
H2024 H -0.0052 0.37756 0.12104 0.0
H2025 H 0.01867 0.36353 0.02835 0.0
H2026 H -0.00192 0.37013 0.00448 0.0
H2027 H -0.00271 0.34038 0.01665 0.0
H2028 H 0.95207 0.34348 0.02626 0.0
H2029 H 0.95293 0.37366 0.01433 0.0
H2030 H 0.94249 0.36849 0.04456 0.0
H2031 H -0.00196 0.41902 0.10431 0.0
H2032 H 0.01133 0.45369 0.07931 0.0
H2033 H -0.00659 0.4112 0.01479 0.0
C2034 C 0.98949 0.33067 0.06723 0.0
C2035 C -0.00422 0.32311 0.09037 0.0
C2036 C -0.00359 0.33989 0.11 0.0
C2037 C -0.00754 0.36443 0.10632 0.0
C2038 C 0.98699 0.37164 0.08305 0.0
C2039 C 0.9848 0.35506 0.06393 0.0
C2040 C 0.98159 0.3677 0.0403 0.0
C2041 C 3e-05 0.36 0.02138 0.0
C2042 C 0.95573 0.36305 0.03081 0.0
C2043 C 0.98593 0.39391 0.04857 0.0
C2044 C 0.98782 0.39596 0.07346 0.0
C2045 C -0.00437 0.41782 0.08494 0.0
C2046 C 0.00303 0.43752 0.07064 0.0
C2047 C 0.00266 0.43508 0.04526 0.0
C2048 C -0.00717 0.41357 0.0342 0.0
H2049 H 0.91837 0.73577 0.32336 0.0
H2050 H 0.92533 0.81091 0.34759 0.0
H2051 H 0.88173 0.81437 0.34245 0.0
H2052 H 0.88241 0.74461 0.27666 0.0
H2053 H 0.86353 0.71709 0.27824 0.0
H2054 H 0.89333 0.71816 0.29067 0.0
H2055 H 0.87587 0.70495 0.33189 0.0
H2056 H 0.84585 0.70422 0.31946 0.0
H2057 H 0.85325 0.72239 0.34614 0.0
H2058 H 0.84109 0.81322 0.32591 0.0
H2059 H 0.80733 0.80796 0.29683 0.0
H2060 H 0.82489 0.73367 0.28311 0.0
C2061 C 0.91036 0.75256 0.32839 0.0
C2062 C 0.92486 0.77306 0.33598 0.0
C2063 C 0.91426 0.79507 0.34175 0.0
C2064 C 0.88951 0.79709 0.33916 0.0
C2065 C 0.87558 0.77691 0.33075 0.0
C2066 C 0.88556 0.75496 0.3255 0.0
C2067 C 0.86751 0.73759 0.31257 0.0
C2068 C 0.87728 0.72889 0.28809 0.0
C2069 C 0.86019 0.71601 0.32848 0.0
C2070 C 0.84678 0.75394 0.3095 0.0
C2071 C 0.85142 0.77623 0.32097 0.0
C2072 C 0.83676 0.7956 0.31757 0.0
C2073 C 0.8176 0.79252 0.30111 0.0
C2074 C 0.81336 0.77025 0.28849 0.0
C2075 C 0.8274 0.7505 0.29346 0.0
H2076 H 0.50001 0.35191 0.88711 0.0
H2077 H 0.464 0.30164 0.93587 0.0
H2078 H 0.45429 0.33583 0.96271 0.0
H2079 H 0.52931 0.38552 0.92986 0.0
H2080 H 0.52759 0.41468 0.91624 0.0
H2081 H 0.52621 0.38766 0.89761 0.0
H2082 H 0.48561 0.39904 0.87952 0.0
H2083 H 0.48667 0.42641 0.89796 0.0
H2084 H 0.46096 0.40518 0.89924 0.0
H2085 H 0.45567 0.37299 0.9876 0.0
H2086 H 0.46896 0.41085 0.00947 0.0
H2087 H 0.5043 0.43746 0.94526 0.0
C2088 C 0.48942 0.34824 0.90306 0.0
C2089 C 0.48273 0.32427 0.9095 0.0
C2090 C 0.46939 0.31995 0.93074 0.0
C2091 C 0.46354 0.33926 0.94592 0.0
C2092 C 0.47109 0.36269 0.9395 0.0
C2093 C 0.48369 0.3673 0.91853 0.0
C2094 C 0.49309 0.39351 0.91771 0.0
C2095 C 0.52067 0.39544 0.91523 0.0
C2096 C 0.48084 0.40682 0.8974 0.0
C2097 C 0.48522 0.40249 0.94219 0.0
C2098 C 0.47194 0.38459 0.95416 0.0
C2099 C 0.46537 0.38741 0.9782 0.0
C2100 C 0.47309 0.40881 0.99049 0.0
C2101 C 0.48713 0.42698 0.97867 0.0
C2102 C 0.49275 0.42413 0.95417 0.0
H2103 H 0.91745 0.27492 0.1635 0.0
H2104 H 0.93277 0.19946 0.15118 0.0
H2105 H 0.89022 0.18725 0.15667 0.0
H2106 H 0.87937 0.26444 0.21137 0.0
H2107 H 0.85837 0.28699 0.20438 0.0
H2108 H 0.88892 0.29066 0.19434 0.0
H2109 H 0.87371 0.2942 0.1504 0.0
H2110 H 0.84303 0.29011 0.1604 0.0
H2111 H 0.85414 0.2703 0.13726 0.0
H2112 H 0.8487 0.18193 0.16791 0.0
H2113 H 0.8114 0.18301 0.19119 0.0
H2114 H 0.82116 0.26127 0.19868 0.0
C2115 C 0.91159 0.25594 0.16159 0.0
C2116 C 0.92824 0.23809 0.15695 0.0
C2117 C 0.92025 0.21337 0.15496 0.0
C2118 C 0.89605 0.20627 0.15763 0.0
C2119 C 0.88 0.22411 0.16243 0.0
C2120 C 0.88733 0.24841 0.16479 0.0
C2121 C 0.86686 0.26318 0.17377 0.0
C2122 C 0.8738 0.27711 0.19737 0.0
C2123 C 0.85897 0.28047 0.15429 0.0
C2124 C 0.84763 0.24307 0.17773 0.0
C2125 C 0.85539 0.22088 0.16994 0.0
C2126 C 0.84214 0.19919 0.17367 0.0
C2127 C 0.821 0.19997 0.1869 0.0
C2128 C 0.81347 0.22222 0.19643 0.0
C2129 C 0.82628 0.24417 0.1909 0.0
H2130 H -0.00545 0.6726 0.39593 0.0
H2131 H -0.00685 0.72075 0.45847 0.0
H2132 H -0.00406 0.68558 0.48533 0.0
H2133 H 0.9639 0.61804 0.42085 0.0
H2134 H 0.98426 0.59845 0.40594 0.0
H2135 H 0.9773 0.62665 0.39256 0.0
H2136 H 0.02289 0.63913 0.3911 0.0
H2137 H 0.02993 0.61124 0.40495 0.0
H2138 H 0.04037 0.63988 0.41857 0.0
H2139 H 0.00083 0.6441 0.50499 0.0
H2140 H 0.01041 0.60181 0.51477 0.0
H2141 H 0.01381 0.58426 0.43834 0.0
C2142 C -0.00607 0.67553 0.41529 0.0
C2143 C -0.00705 0.69898 0.42533 0.0
C2144 C -0.00659 0.70261 0.45066 0.0
C2145 C -0.005 0.68282 0.46596 0.0
C2146 C -0.00329 0.6598 0.45546 0.0
C2147 C -0.00361 0.65623 0.43064 0.0
C2148 C 0.00188 0.63068 0.42351 0.0
C2149 C 0.98056 0.61769 0.40993 0.0
C2150 C 0.02514 0.63022 0.40867 0.0
C2151 C 0.00523 0.62033 0.44809 0.0
C2152 C 0.00179 0.63704 0.46645 0.0
C2153 C 0.00369 0.63093 0.4907 0.0
C2154 C 0.00919 0.60703 0.49612 0.0
C2155 C 0.01337 0.59013 0.47728 0.0
C2156 C 0.01131 0.59701 0.45313 0.0
H2157 H 0.57571 0.80255 0.64916 0.0
H2158 H 0.53825 0.74609 0.68976 0.0
H2159 H 0.57505 0.7409 0.71369 0.0
H2160 H 0.62937 0.77701 0.64332 0.0
H2161 H 0.64822 0.80439 0.64772 0.0
H2162 H 0.61815 0.80606 0.63633 0.0
H2163 H 0.60839 0.83592 0.67122 0.0
H2164 H 0.63861 0.8345 0.68265 0.0
H2165 H 0.61338 0.82751 0.70197 0.0
H2166 H 0.61775 0.7381 0.72917 0.0
H2167 H 0.66186 0.73955 0.7359 0.0
H2168 H 0.67031 0.79886 0.68612 0.0
C2169 C 0.57513 0.78959 0.66354 0.0
C2170 C 0.55422 0.77484 0.66775 0.0
C2171 C 0.55407 0.75786 0.68654 0.0
C2172 C 0.57489 0.75473 0.70018 0.0
C2173 C 0.59548 0.76918 0.69521 0.0
C2174 C 0.59557 0.78665 0.67768 0.0
C2175 C 0.62024 0.79904 0.67503 0.0
C2176 C 0.62953 0.79644 0.64907 0.0
C2177 C 0.62014 0.82583 0.6832 0.0
C2178 C 0.63436 0.78466 0.69248 0.0
C2179 C 0.61979 0.76783 0.70438 0.0
C2180 C 0.62926 0.75157 0.72034 0.0
C2181 C 0.65429 0.75252 0.72407 0.0
C2182 C 0.66944 0.76936 0.71158 0.0
C2183 C 0.65918 0.78579 0.69595 0.0
H2184 H 0.58086 0.46381 0.68918 0.0
H2185 H 0.55698 0.53221 0.71714 0.0
H2186 H 0.53078 0.53546 0.68123 0.0
H2187 H 0.58442 0.47883 0.62923 0.0
H2188 H 0.57355 0.44949 0.61758 0.0
H2189 H 0.5884 0.45199 0.64641 0.0
H2190 H 0.55129 0.43014 0.66614 0.0
H2191 H 0.53621 0.42776 0.63729 0.0
H2192 H 0.52207 0.4421 0.66259 0.0
H2193 H 0.51186 0.53354 0.639 0.0
H2194 H 0.50097 0.52556 0.59602 0.0
H2195 H 0.53421 0.45645 0.59885 0.0
C2196 C 0.56968 0.47918 0.68794 0.0
C2197 C 0.57068 0.49766 0.70582 0.0
C2198 C 0.55607 0.51767 0.70366 0.0
C2199 C 0.54121 0.51969 0.68335 0.0
C2200 C 0.54076 0.50118 0.6658 0.0
C2201 C 0.55433 0.4811 0.6682 0.0
C2202 C 0.55155 0.46415 0.64657 0.0
C2203 C 0.57592 0.46095 0.63423 0.0
C2204 C 0.53956 0.43958 0.65357 0.0
C2205 C 0.53506 0.47819 0.63116 0.0
C2206 C 0.52892 0.49952 0.64239 0.0
C2207 C 0.51603 0.51658 0.63026 0.0
C2208 C 0.50983 0.51189 0.60588 0.0
C2209 C 0.51658 0.49034 0.59404 0.0
C2210 C 0.52852 0.47302 0.6073 0.0
H2211 H 0.72696 0.35219 0.9077 0.0
H2212 H 0.76787 0.29913 0.94444 0.0
H2213 H 0.77655 0.27953 0.90569 0.0
H2214 H 0.69909 0.31105 0.86519 0.0
H2215 H 0.70039 0.33181 0.84055 0.0
H2216 H 0.69933 0.34332 0.87108 0.0
H2217 H 0.73838 0.36986 0.86359 0.0
H2218 H 0.73976 0.35786 0.83315 0.0
H2219 H 0.76494 0.35564 0.85335 0.0
H2220 H 0.77979 0.26449 0.86446 0.0
H2221 H 0.77155 0.2505 0.82253 0.0
H2222 H 0.72743 0.31153 0.81165 0.0
C2223 C 0.73768 0.33643 0.90752 0.0
C2224 C 0.74687 0.32729 0.92904 0.0
C2225 C 0.76072 0.30655 0.92817 0.0
C2226 C 0.76602 0.29541 0.90622 0.0
C2227 C 0.75728 0.30517 0.88531 0.0
C2228 C 0.74305 0.32489 0.88566 0.0
C2229 C 0.73426 0.33022 0.86055 0.0
C2230 C 0.70663 0.32901 0.85928 0.0
C2231 C 0.74498 0.35486 0.85217 0.0
C2232 C 0.74467 0.30953 0.84644 0.0
C2233 C 0.75865 0.29593 0.86103 0.0
C2234 C 0.76918 0.2751 0.8527 0.0
C2235 C 0.76448 0.26734 0.82898 0.0
C2236 C 0.74925 0.28029 0.81423 0.0
C2237 C 0.73962 0.30187 0.82269 0.0
H2238 H 0.90692 0.48771 0.17687 0.0
H2239 H 0.92709 0.55866 0.20807 0.0
H2240 H 0.95603 0.56604 0.17495 0.0
H2241 H 0.96871 0.47504 0.15492 0.0
H2242 H 0.95689 0.45927 0.12824 0.0
H2243 H 0.93993 0.45847 0.15584 0.0
H2244 H 0.90337 0.47506 0.13376 0.0
H2245 H 0.92005 0.47552 0.10616 0.0
H2246 H 0.90732 0.50284 0.1174 0.0
H2247 H 0.97671 0.56826 0.13541 0.0
H2248 H 0.98847 0.56481 0.09261 0.0
H2249 H 0.95841 0.49083 0.08908 0.0
C2250 C 0.91774 0.50463 0.17684 0.0
C2251 C 0.91489 0.52271 0.19476 0.0
C2252 C 0.92925 0.54462 0.19443 0.0
C2253 C 0.94574 0.54887 0.17581 0.0
C2254 C 0.94808 0.53069 0.15825 0.0
C2255 C 0.93471 0.50885 0.15882 0.0
C2256 C 0.9395 0.49289 0.13705 0.0
C2257 C 0.95201 0.47007 0.14447 0.0
C2258 C 0.91618 0.48622 0.12275 0.0
C2259 C 0.95641 0.50982 0.1233 0.0
C2260 C 0.96141 0.53142 0.13601 0.0
C2261 C 0.97373 0.55117 0.12562 0.0
C2262 C 0.98038 0.54907 0.10141 0.0
C2263 C 0.97497 0.5273 0.08813 0.0
C2264 C 0.96365 0.5072 0.09938 0.0
H2265 H 0.76107 0.7076 0.41889 0.0
H2266 H 0.78109 0.63456 0.4019 0.0
H2267 H 0.78424 0.64474 0.35883 0.0
H2268 H 0.7227 0.7124 0.37502 0.0
H2269 H 0.72935 0.74382 0.36819 0.0
H2270 H 0.73586 0.73317 0.3976 0.0
H2271 H 0.78043 0.74871 0.39333 0.0
H2272 H 0.77392 0.7595 0.36368 0.0
H2273 H 0.79756 0.73896 0.36775 0.0
H2274 H 0.77397 0.65906 0.31774 0.0
H2275 H 0.75209 0.6764 0.28376 0.0
H2276 H 0.74082 0.74067 0.32703 0.0
C2277 C 0.76715 0.69411 0.4062 0.0
C2278 C 0.77089 0.67038 0.41364 0.0
C2279 C 0.77845 0.65299 0.39659 0.0
C2280 C 0.78032 0.65864 0.37207 0.0
C2281 C 0.77521 0.68194 0.36505 0.0
C2282 C 0.76932 0.69959 0.3818 0.0
C2283 C 0.76109 0.72195 0.36966 0.0
C2284 C 0.73576 0.72815 0.3781 0.0
C2285 C 0.77935 0.74355 0.37385 0.0
C2286 C 0.76105 0.71335 0.34359 0.0
C2287 C 0.76996 0.69051 0.3411 0.0
C2288 C 0.76792 0.67731 0.31929 0.0
C2289 C 0.75559 0.68726 0.30002 0.0
C2290 C 0.74564 0.71008 0.30281 0.0
C2291 C 0.74928 0.72362 0.32439 0.0
H2292 H 0.61043 0.51124 0.85301 0.0
H2293 H 0.56225 0.45396 0.82353 0.0
H2294 H 0.54405 0.4482 0.86385 0.0
H2295 H 0.6147 0.48676 0.91788 0.0
H2296 H 0.61479 0.51736 0.92993 0.0
H2297 H 0.62892 0.51136 0.9014 0.0
H2298 H 0.60283 0.54267 0.88114 0.0
H2299 H 0.58877 0.54875 0.90937 0.0
H2300 H 0.57056 0.53924 0.88353 0.0
H2301 H 0.5239 0.45735 0.9026 0.0
H2302 H 0.50471 0.47972 0.93586 0.0
H2303 H 0.56678 0.52995 0.94096 0.0
C2304 C 0.59693 0.49665 0.85553 0.0
C2305 C 0.5879 0.48271 0.8357 0.0
C2306 C 0.56962 0.46436 0.8389 0.0
C2307 C 0.55928 0.46099 0.86171 0.0
C2308 C 0.56777 0.47594 0.88094 0.0
C2309 C 0.58658 0.49313 0.87811 0.0
C2310 C 0.58963 0.50989 0.89994 0.0
C2311 C 0.61342 0.5061 0.91306 0.0
C2312 C 0.5878 0.53668 0.89307 0.0
C2313 C 0.5684 0.50086 0.91469 0.0
C2314 C 0.55633 0.48082 0.90386 0.0
C2315 C 0.53379 0.47219 0.91194 0.0
C2316 C 0.52302 0.48485 0.93087 0.0
C2317 C 0.53481 0.50586 0.94122 0.0
C2318 C 0.55804 0.5133 0.93376 0.0
H2319 H 0.7274 0.36464 0.08678 0.0
H2320 H 0.73175 0.30458 0.03533 0.0
H2321 H 0.73101 0.27586 0.06878 0.0
H2322 H 0.76536 0.34166 0.13133 0.0
H2323 H 0.74818 0.35249 0.15638 0.0
H2324 H 0.74841 0.36831 0.12836 0.0
H2325 H 0.70186 0.3637 0.12608 0.0
H2326 H 0.70145 0.34819 0.15427 0.0
H2327 H 0.68701 0.33395 0.12804 0.0
H2328 H 0.73241 0.25393 0.10844 0.0
H2329 H 0.73098 0.24063 0.15106 0.0
H2330 H 0.72417 0.3151 0.17508 0.0
C2331 C 0.72789 0.34544 0.08248 0.0
C2332 C 0.72964 0.33686 0.05851 0.0
C2333 C 0.73028 0.31157 0.05363 0.0
C2334 C 0.73004 0.29511 0.07248 0.0
C2335 C 0.72896 0.30427 0.09599 0.0
C2336 C 0.72755 0.32882 0.10098 0.0
C2337 C 0.72639 0.33411 0.1277 0.0
C2338 C 0.74839 0.35008 0.13644 0.0
C2339 C 0.70277 0.34566 0.13441 0.0
C2340 C 0.72709 0.30871 0.13695 0.0
C2341 C 0.72897 0.29169 0.11852 0.0
C2342 C 0.73065 0.26705 0.12302 0.0
C2343 C 0.72987 0.25965 0.14709 0.0
C2344 C 0.72706 0.27693 0.16586 0.0
C2345 C 0.72591 0.30163 0.16076 0.0
H2346 H 0.9321 0.49329 0.32015 0.0
H2347 H 0.87481 0.53964 0.34056 0.0
H2348 H 0.88554 0.53503 0.38366 0.0
H2349 H 0.92463 0.45129 0.36841 0.0
H2350 H 0.95648 0.44788 0.37146 0.0
H2351 H 0.94392 0.45466 0.34257 0.0
H2352 H 0.97296 0.49289 0.33954 0.0
H2353 H 0.98608 0.48576 0.36798 0.0
H2354 H 0.97423 0.5151 0.3639 0.0
H2355 H 0.90662 0.5294 0.42353 0.0
H2356 H 0.93618 0.52394 0.45578 0.0
H2357 H 0.97435 0.47561 0.40955 0.0
C2358 C 0.92173 0.50259 0.33358 0.0
C2359 C 0.90274 0.51698 0.32708 0.0
C2360 C 0.88958 0.52867 0.34525 0.0
C2361 C 0.89539 0.52595 0.36969 0.0
C2362 C 0.91398 0.5111 0.3754 0.0
C2363 C 0.92688 0.49964 0.35777 0.0
C2364 C 0.94666 0.48549 0.36818 0.0
C2365 C 0.94266 0.45821 0.36231 0.0
C2366 C 0.97143 0.49541 0.35939 0.0
C2367 C 0.94322 0.49099 0.39462 0.0
C2368 C 0.92438 0.50589 0.39852 0.0
C2369 C 0.92057 0.51674 0.42097 0.0
C2370 C 0.937 0.513 0.43955 0.0
C2371 C 0.95642 0.49803 0.43575 0.0
C2372 C 0.95894 0.4862 0.41325 0.0
H2373 H 0.7895 0.661 0.56357 0.0
H2374 H 0.71651 0.67342 0.5417 0.0
H2375 H 0.70744 0.68745 0.58308 0.0
H2376 H 0.77655 0.64305 0.62581 0.0
H2377 H 0.8028 0.65935 0.63833 0.0
H2378 H 0.80325 0.64732 0.60786 0.0
H2379 H 0.8153 0.69003 0.59187 0.0
H2380 H 0.81556 0.70192 0.62232 0.0
H2381 H 0.7973 0.71514 0.59973 0.0
H2382 H 0.70579 0.69909 0.6263 0.0
H2383 H 0.71434 0.71941 0.6657 0.0
H2384 H 0.7897 0.70531 0.65866 0.0
C2385 C 0.7717 0.66684 0.56761 0.0
C2386 C 0.75363 0.66626 0.54965 0.0
C2387 C 0.73057 0.67406 0.5553 0.0
C2388 C 0.72517 0.68162 0.57879 0.0
C2389 C 0.74318 0.68164 0.59628 0.0
C2390 C 0.76621 0.67527 0.59087 0.0
C2391 C 0.7829 0.67992 0.61238 0.0
C2392 C 0.7919 0.65599 0.62164 0.0
C2393 C 0.804 0.69783 0.6062 0.0
C2394 C 0.76585 0.69092 0.63027 0.0
C2395 C 0.74276 0.69045 0.62096 0.0
C2396 C 0.72377 0.69961 0.63383 0.0
C2397 C 0.72874 0.7109 0.65625 0.0
C2398 C 0.75258 0.71361 0.6651 0.0
C2399 C 0.77129 0.70297 0.65233 0.0
H2400 H 0.68777 0.57702 0.50924 0.0
H2401 H 0.67145 0.61891 0.44666 0.0
H2402 H 0.62844 0.60518 0.44982 0.0
H2403 H 0.64833 0.52627 0.49781 0.0
H2404 H 0.64 0.52268 0.52894 0.0
H2405 H 0.66891 0.53652 0.52158 0.0
H2406 H 0.65952 0.57432 0.54776 0.0
H2407 H 0.63033 0.5607 0.55481 0.0
H2408 H 0.63288 0.5902 0.54152 0.0
H2409 H 0.58711 0.58521 0.45947 0.0
H2410 H 0.55248 0.5587 0.47292 0.0
H2411 H 0.59677 0.53167 0.52968 0.0
C2412 C 0.67521 0.58309 0.49601 0.0
C2413 C 0.68293 0.59867 0.47746 0.0
C2414 C 0.66586 0.60676 0.46088 0.0
C2415 C 0.64142 0.59922 0.46266 0.0
C2416 C 0.63435 0.58408 0.48145 0.0
C2417 C 0.65083 0.57621 0.49785 0.0
C2418 C 0.63891 0.55994 0.51632 0.0
C2419 C 0.64967 0.53487 0.51612 0.0
C2420 C 0.6405 0.57202 0.54159 0.0
C2421 C 0.61338 0.55858 0.5069 0.0
C2422 C 0.61085 0.57308 0.48716 0.0
C2423 C 0.58889 0.57394 0.47502 0.0
C2424 C 0.56931 0.55895 0.4828 0.0
C2425 C 0.57211 0.54311 0.50218 0.0
C2426 C 0.59421 0.54355 0.51472 0.0
H2427 H 0.17052 0.92288 0.53686 0.0
H2428 H 0.19033 0.94449 0.46477 0.0
H2429 H 0.15389 0.96861 0.46263 0.0
H2430 H 0.10615 0.9162 0.52406 0.0
H2431 H 0.09874 0.92581 0.55424 0.0
H2432 H 0.12593 0.91048 0.54885 0.0
H2433 H 0.15027 0.94655 0.56975 0.0
H2434 H 0.12327 0.96237 0.5745 0.0
H2435 H 0.14807 0.97673 0.55848 0.0
H2436 H 0.1155 0.99192 0.47021 0.0
H2437 H 0.07665 0.00691 0.48409 0.0
H2438 H 0.08339 0.96837 0.55065 0.0
C2439 C 0.16719 0.93274 0.52062 0.0
C2440 C 0.18323 0.9324 0.50117 0.0
C2441 C 0.17814 0.94483 0.4799 0.0
C2442 C 0.15763 0.95858 0.47863 0.0
C2443 C 0.14243 0.95912 0.4986 0.0
C2444 C 0.14678 0.94597 0.51892 0.0
C2445 C 0.12747 0.94838 0.53761 0.0
C2446 C 0.11377 0.92377 0.5414 0.0
C2447 C 0.13791 0.95916 0.56149 0.0
C2448 C 0.11192 0.96584 0.52521 0.0
C2449 C 0.12062 0.97181 0.50268 0.0
C2450 C 0.10856 0.98719 0.48778 0.0
C2451 C 0.08658 -0.00428 0.49577 0.0
C2452 C 0.07689 0.98874 0.51825 0.0
C2453 C 0.09028 0.97429 0.53341 0.0
H2454 H 0.33954 0.93163 0.7235 0.0
H2455 H 0.37093 0.94251 0.79473 0.0
H2456 H 0.35392 0.90211 0.80653 0.0
H2457 H 0.28545 0.90384 0.74106 0.0
H2458 H 0.28271 0.88249 0.716 0.0
H2459 H 0.29964 0.91087 0.71274 0.0
H2460 H 0.3367 0.88756 0.69945 0.0
H2461 H 0.31988 0.85903 0.70307 0.0
H2462 H 0.34803 0.86496 0.71882 0.0
H2463 H 0.32813 0.86411 0.8123 0.0
H2464 H 0.29631 0.83078 0.81103 0.0
H2465 H 0.28509 0.84254 0.73507 0.0
C2466 C 0.34306 0.92518 0.7414 0.0
C2467 C 0.35636 0.9398 0.75833 0.0
C2468 C 0.36072 0.93123 0.78165 0.0
C2469 C 0.35128 0.90836 0.78841 0.0
C2470 C 0.33802 0.89423 0.77139 0.0
C2471 C 0.33416 0.90219 0.74826 0.0
C2472 C 0.31798 0.88425 0.73392 0.0
C2473 C 0.2951 0.89607 0.72545 0.0
C2474 C 0.33146 0.87331 0.71255 0.0
C2475 C 0.31245 0.86554 0.7529 0.0
C2476 C 0.32429 0.87149 0.77437 0.0
C2477 C 0.31936 0.85875 0.79541 0.0
C2478 C 0.30138 0.83989 0.79458 0.0
C2479 C 0.28906 0.83387 0.77279 0.0
C2480 C 0.29512 0.84633 0.75164 0.0
H2481 H 0.34202 0.11187 0.00632 0.0
H2482 H 0.32593 0.0719 0.93984 0.0
H2483 H 0.36805 0.05942 0.93818 0.0
H2484 H 0.40932 0.12754 -0.0036 0.0
H2485 H 0.41531 0.12162 0.02761 0.0
H2486 H 0.38739 0.13413 0.01907 0.0
H2487 H 0.36376 0.09883 0.04012 0.0
H2488 H 0.39143 0.08643 0.04868 0.0
H2489 H 0.36942 0.06798 0.03156 0.0
H2490 H 0.40745 0.04286 0.94951 0.0
H2491 H 0.43747 0.02236 0.97365 0.0
H2492 H 0.42791 0.07292 0.03283 0.0
C2493 C 0.34788 0.10159 0.99077 0.0
C2494 C 0.33128 0.09333 0.97287 0.0
C2495 C 0.33879 0.07887 0.95333 0.0
C2496 C 0.36265 0.07178 0.9523 0.0
C2497 C 0.37851 0.0793 0.971 0.0
C2498 C 0.37135 0.0941 0.98983 0.0
C2499 C 0.3894 0.09547 0.0103 0.0
C2500 C 0.40105 0.12123 0.01351 0.0
C2501 C 0.37781 0.08663 0.03402 0.0
C2502 C 0.40722 0.07806 0.00077 0.0
C2503 C 0.40116 0.0694 0.97778 0.0
C2504 C 0.41284 0.05014 0.96711 0.0
C2505 C 0.43006 0.03868 0.98078 0.0
C2506 C 0.43516 0.0465 0.00474 0.0
C2507 C 0.42458 0.06712 0.01427 0.0
H2508 H 0.67941 0.56813 0.73349 0.0
H2509 H 0.62636 0.58147 0.78864 0.0
H2510 H 0.63289 0.62526 0.78337 0.0
H2511 H 0.72072 0.61363 0.75227 0.0
H2512 H 0.73033 0.62183 0.72239 0.0
H2513 H 0.718 0.59174 0.72763 0.0
H2514 H 0.68675 0.5977 0.69365 0.0
H2515 H 0.69843 0.62845 0.68952 0.0
H2516 H 0.66705 0.62242 0.69603 0.0
H2517 H 0.64679 0.66681 0.77561 0.0
H2518 H 0.67612 0.70177 0.77594 0.0
H2519 H 0.72143 0.66329 0.72706 0.0
C2520 C 0.66907 0.58029 0.74433 0.0
C2521 C 0.6521 0.57124 0.7612 0.0
C2522 C 0.63929 0.58781 0.77537 0.0
C2523 C 0.64253 0.6128 0.77222 0.0
C2524 C 0.65869 0.62113 0.75485 0.0
C2525 C 0.67228 0.60546 0.7416 0.0
C2526 C 0.69118 0.61938 0.72707 0.0
C2527 C 0.71654 0.61118 0.73272 0.0
C2528 C 0.68551 0.61683 0.69996 0.0
C2529 C 0.68762 0.64505 0.73621 0.0
C2530 C 0.66766 0.64575 0.75092 0.0
C2531 C 0.66218 0.66667 0.76381 0.0
C2532 C 0.67879 0.6866 0.7637 0.0
C2533 C 0.70068 0.68504 0.75129 0.0
C2534 C 0.70432 0.66493 0.73594 0.0
H2535 H 0.82158 0.419 0.03162 0.0
H2536 H 0.82158 0.38455 0.96068 0.0
H2537 H 0.86468 0.39708 0.95626 0.0
H2538 H 0.85363 0.46949 0.01865 0.0
H2539 H 0.87045 0.47261 0.04649 0.0
H2540 H 0.84169 0.45639 0.04587 0.0
H2541 H 0.86101 0.41862 0.06308 0.0
H2542 H 0.89 0.43488 0.0636 0.0
H2543 H 0.88608 0.40606 0.04775 0.0
H2544 H 0.90501 0.42017 0.95674 0.0
H2545 H 0.93807 0.45203 0.96214 0.0
H2546 H 0.91111 0.46981 0.03298 0.0
C2547 C 0.83084 0.4137 0.01538 0.0
C2548 C 0.8185 0.40114 -0.0036 0.0
C2549 C 0.83098 0.39425 0.97541 0.0
C2550 C 0.85542 0.40109 0.97285 0.0
C2551 C 0.86706 0.41411 0.99175 0.0
C2552 C 0.85519 0.41996 0.01279 0.0
C2553 C 0.87061 0.43637 0.02931 0.0
C2554 C 0.85837 0.46011 0.03539 0.0
C2555 C 0.87733 0.42319 0.05229 0.0
C2556 C 0.89216 0.44068 0.01341 0.0
C2557 C 0.89031 0.42712 0.99213 0.0
C2558 C 0.90697 0.43039 0.97357 0.0
C2559 C 0.92555 0.44848 0.97668 0.0
C2560 C 0.92664 0.46311 -0.00211 0.0
C2561 C 0.91039 0.4586 0.01667 0.0
H2562 H 0.32274 0.08503 0.77071 0.0
H2563 H 0.31333 0.05531 0.69791 0.0
H2564 H 0.2963 0.09307 0.68522 0.0
H2565 H 0.26589 0.11874 0.76988 0.0
H2566 H 0.27922 0.14378 0.78762 0.0
H2567 H 0.28889 0.11354 0.79183 0.0
H2568 H 0.33289 0.1288 0.78382 0.0
H2569 H 0.3233 0.15897 0.77944 0.0
H2570 H 0.34 0.14417 0.75619 0.0
H2571 H 0.28671 0.1358 0.67864 0.0
H2572 H 0.27926 0.17968 0.68039 0.0
H2573 H 0.2903 0.18078 0.75776 0.0
C2574 C 0.31648 0.08629 0.75229 0.0
C2575 C 0.31926 0.06718 0.73535 0.0
C2576 C 0.31111 0.06956 0.71132 0.0
C2577 C 0.3015 0.09101 0.70385 0.0
C2578 C 0.29951 0.10972 0.72076 0.0
C2579 C 0.30614 0.10743 0.74464 0.0
C2580 C 0.30236 0.13062 0.75895 0.0
C2581 C 0.28293 0.12641 0.77821 0.0
C2582 C 0.32605 0.14126 0.77025 0.0
C2583 C 0.29368 0.14647 0.73911 0.0
C2584 C 0.29226 0.13408 0.7172 0.0
C2585 C 0.287 0.14555 0.69579 0.0
C2586 C 0.28288 0.17036 0.69689 0.0
C2587 C 0.28367 0.18308 0.71925 0.0
C2588 C 0.28893 0.17103 0.74059 0.0
H2589 H 0.15412 0.92184 0.22052 0.0
H2590 H 0.18217 0.94253 0.2914 0.0
H2591 H 0.19896 0.90185 0.29491 0.0
H2592 H 0.13763 0.85809 0.23602 0.0
H2593 H 0.14456 0.84734 0.20608 0.0
H2594 H 0.1336 0.8772 0.21056 0.0
H2595 H 0.17104 0.89597 0.18867 0.0
H2596 H 0.182 0.86626 0.18409 0.0
H2597 H 0.20064 0.88966 0.19929 0.0
H2598 H 0.21593 0.85969 0.28793 0.0
H2599 H 0.23092 0.82116 0.27133 0.0
H2600 H 0.18905 0.82905 0.20632 0.0
C2601 C 0.1638 0.91777 0.23679 0.0
C2602 C 0.1674 0.93519 0.25548 0.0
C2603 C 0.17954 0.92925 0.27682 0.0
C2604 C 0.18895 0.90624 0.27898 0.0
C2605 C 0.18523 0.8894 0.25996 0.0
C2606 C 0.17256 0.8949 0.23947 0.0
C2607 C 0.1712 0.8742 0.22127 0.0
C2608 C 0.14521 0.86359 0.21832 0.0
C2609 C 0.18188 0.882 0.19691 0.0
C2610 C 0.18661 0.85674 0.2338 0.0
C2611 C 0.19416 0.86538 0.25635 0.0
C2612 C 0.20974 0.85262 0.2705 0.0
C2613 C 0.21806 0.83078 0.26105 0.0
C2614 C 0.21094 0.82231 0.2377 0.0
C2615 C 0.19471 0.83522 0.22424 0.0
H2616 H 0.47422 0.32283 0.44783 0.0
H2617 H 0.52061 0.3363 0.38646 0.0
H2618 H 0.52144 0.38027 0.39575 0.0
H2619 H 0.44135 0.38072 0.44498 0.0
H2620 H 0.44092 0.38391 0.47738 0.0
H2621 H 0.43973 0.35411 0.46325 0.0
H2622 H 0.47721 0.34294 0.48773 0.0
H2623 H 0.47787 0.37229 0.50231 0.0
H2624 H 0.50415 0.36257 0.48681 0.0
H2625 H 0.52195 0.42141 0.41445 0.0
H2626 H 0.52828 0.45448 0.44486 0.0
H2627 H 0.48214 0.41491 0.49447 0.0
C2628 C 0.4842 0.33509 0.43609 0.0
C2629 C 0.49727 0.32618 0.41638 0.0
C2630 C 0.51047 0.34273 0.40169 0.0
C2631 C 0.51075 0.36777 0.40661 0.0
C2632 C 0.49763 0.37601 0.4262 0.0
C2633 C 0.48479 0.36011 0.44087 0.0
C2634 C 0.47526 0.37314 0.46283 0.0
C2635 C 0.44768 0.37295 0.46205 0.0
C2636 C 0.48418 0.36209 0.48629 0.0
C2637 C 0.48631 0.39847 0.4592 0.0
C2638 C 0.49821 0.40001 0.43738 0.0
C2639 C 0.51223 0.42065 0.43127 0.0
C2640 C 0.51559 0.43944 0.44855 0.0
C2641 C 0.50514 0.43729 0.47158 0.0
C2642 C 0.48941 0.41722 0.47654 0.0
H2643 H 0.41351 0.73726 0.15985 0.0
H2644 H 0.44881 0.78003 0.2175 0.0
H2645 H 0.40923 0.7857 0.23661 0.0
H2646 H 0.36085 0.76881 0.15365 0.0
H2647 H 0.34088 0.74214 0.14973 0.0
H2648 H 0.37188 0.74119 0.14105 0.0
H2649 H 0.37689 0.70455 0.16861 0.0
H2650 H 0.34583 0.70536 0.17733 0.0
H2651 H 0.36913 0.70699 0.20003 0.0
H2652 H 0.36548 0.7867 0.2491 0.0
H2653 H 0.32119 0.78345 0.25373 0.0
H2654 H 0.3147 0.74003 0.18773 0.0
C2655 C 0.41278 0.74792 0.17644 0.0
C2656 C 0.43396 0.75858 0.18714 0.0
C2657 C 0.43263 0.77191 0.20909 0.0
C2658 C 0.41028 0.77514 0.22002 0.0
C2659 C 0.38961 0.76439 0.20902 0.0
C2660 C 0.39072 0.7508 0.18785 0.0
C2661 C 0.366 0.74057 0.18005 0.0
C2662 C 0.35953 0.74869 0.15462 0.0
C2663 C 0.36438 0.71272 0.1816 0.0
C2664 C 0.3506 0.75192 0.19918 0.0
C2665 C 0.36459 0.76503 0.21612 0.0
C2666 C 0.35439 0.77649 0.23593 0.0
C2667 C 0.32927 0.77454 0.23845 0.0
C2668 C 0.31465 0.76172 0.22098 0.0
C2669 C 0.32551 0.75026 0.20114 0.0
H2670 H 0.01947 0.68802 0.94984 0.0
H2671 H 0.99123 0.66764 0.87884 0.0
H2672 H 0.99022 0.62441 0.88968 0.0
H2673 H 0.05494 0.63414 0.95973 0.0
H2674 H 0.04651 0.63239 0.99102 0.0
H2675 H 0.04909 0.66139 0.97667 0.0
H2676 H 0.00535 0.66996 0.98835 0.0
H2677 H 0.00302 0.64157 0.00351 0.0
H2678 H 0.98142 0.64782 0.98049 0.0
H2679 H 0.98754 0.58452 0.90945 0.0
H2680 H 0.97671 0.55252 0.9385 0.0
H2681 H 0.00632 0.59833 -0.00322 0.0
C2682 C 0.01344 0.67438 0.93648 0.0
C2683 C 0.00553 0.68102 0.9135 0.0
C2684 C -0.00276 0.66283 0.89662 0.0
C2685 C -0.00302 0.63825 0.90248 0.0
C2686 C 0.00497 0.63223 0.92532 0.0
C2687 C 0.01267 0.64983 0.9422 0.0
C2688 C 0.01679 0.63899 0.96657 0.0
C2689 C 0.04342 0.6419 0.97393 0.0
C2690 C 0.00068 0.65024 0.98584 0.0
C2691 C 0.0092 0.61268 0.96107 0.0
C2692 C 0.00319 0.609 0.93695 0.0
C2693 C -0.00725 0.58697 0.9282 0.0
C2694 C 0.98684 0.56881 0.94474 0.0
C2695 C 0.99151 0.57288 0.96956 0.0
C2696 C 0.00371 0.59457 0.97767 0.0
H2697 H 0.08925 0.28443 0.65908 0.0
H2698 H 0.0584 0.21071 0.66228 0.0
H2699 H 0.09874 0.19553 0.66755 0.0
H2700 H 0.14701 0.2705 0.62991 0.0
H2701 H 0.1647 0.292 0.64849 0.0
H2702 H 0.13395 0.29762 0.64122 0.0
H2703 H 0.12372 0.30161 0.6867 0.0
H2704 H 0.15459 0.29698 0.6938 0.0
H2705 H 0.13104 0.27767 0.70658 0.0
H2706 H 0.14066 0.18806 0.67447 0.0
H2707 H 0.18083 0.18944 0.69317 0.0
H2708 H 0.18573 0.26783 0.68803 0.0
C2709 C 0.09123 0.26514 0.66082 0.0
C2710 C 0.071 0.24858 0.66028 0.0
C2711 C 0.07387 0.22353 0.66285 0.0
C2712 C 0.09667 0.21473 0.66542 0.0
C2713 C 0.11641 0.23129 0.66556 0.0
C2714 C 0.11401 0.25603 0.66404 0.0
C2715 C 0.13799 0.26991 0.66834 0.0
C2716 C 0.1464 0.2833 0.64563 0.0
C2717 C 0.13676 0.28756 0.69016 0.0
C2718 C 0.15381 0.2491 0.67348 0.0
C2719 C 0.1411 0.22697 0.67075 0.0
C2720 C 0.15096 0.2052 0.67645 0.0
C2721 C 0.17381 0.20613 0.68695 0.0
C2722 C 0.18625 0.2287 0.69198 0.0
C2723 C 0.17679 0.25031 0.68385 0.0
H2724 H 0.5098 0.66995 0.12486 0.0
H2725 H 0.44623 0.68936 0.08613 0.0
H2726 H 0.44495 0.64982 0.06425 0.0
H2727 H 0.53769 0.64807 0.0762 0.0
H2728 H 0.55205 0.6236 0.0904 0.0
H2729 H 0.54448 0.64974 0.10803 0.0
H2730 H 0.51953 0.62239 0.1371 0.0
H2731 H 0.52739 0.596 0.11976 0.0
H2732 H 0.49626 0.60143 0.12514 0.0
H2733 H 0.45381 0.61267 0.04258 0.0
H2734 H 0.47327 0.58043 0.02011 0.0
H2735 H 0.53338 0.58562 0.07022 0.0
C2736 C 0.49503 0.66528 0.11255 0.0
C2737 C 0.47774 0.68219 0.10744 0.0
C2738 C 0.45932 0.6763 0.09043 0.0
C2739 C 0.45843 0.65391 0.07808 0.0
C2740 C 0.47628 0.63792 0.08283 0.0
C2741 C 0.49431 0.64328 0.09961 0.0
C2742 C 0.5136 0.62496 0.09823 0.0
C2743 C 0.53841 0.63734 0.09289 0.0
C2744 C 0.51422 0.61033 0.12144 0.0
C2745 C 0.50428 0.60926 0.07713 0.0
C2746 C 0.48232 0.6167 0.06915 0.0
C2747 C 0.47074 0.60641 0.04889 0.0
C2748 C 0.48199 0.58828 0.03618 0.0
C2749 C 0.50471 0.58084 0.04356 0.0
C2750 C 0.5159 0.59102 0.06451 0.0
H2751 H 0.08481 0.74094 0.85808 0.0
H2752 H 0.03998 0.75631 0.79673 0.0
H2753 H 0.07494 0.75381 0.77001 0.0
H2754 H 0.13142 0.77751 0.84532 0.0
H2755 H 0.15483 0.7584 0.85464 0.0
H2756 H 0.12547 0.75444 0.86736 0.0
H2757 H 0.12374 0.70912 0.85362 0.0
H2758 H 0.15314 0.71329 0.84037 0.0
H2759 H 0.1281 0.70123 0.82231 0.0
H2760 H 0.11471 0.75707 0.75145 0.0
H2761 H 0.15596 0.77353 0.74426 0.0
H2762 H 0.17576 0.75818 0.81752 0.0
C2763 C 0.08222 0.74313 0.83892 0.0
C2764 C 0.05966 0.74874 0.82948 0.0
C2765 C 0.05707 0.7519 0.80438 0.0
C2766 C 0.07677 0.75015 0.78899 0.0
C2767 C 0.09889 0.74494 0.79892 0.0
C2768 C 0.10174 0.74154 0.82336 0.0
C2769 C 0.128 0.74039 0.83014 0.0
C2770 C 0.13533 0.75881 0.85053 0.0
C2771 C 0.13356 0.71447 0.83702 0.0
C2772 C 0.13957 0.7469 0.80635 0.0
C2773 C 0.12246 0.7477 0.7882 0.0
C2774 C 0.12832 0.75588 0.76529 0.0
C2775 C 0.15181 0.76509 0.76131 0.0
C2776 C 0.16881 0.76656 0.78031 0.0
C2777 C 0.16308 0.75632 0.80265 0.0
H2778 H 0.97956 0.3378 0.60925 0.0
H2779 H 0.02092 0.30785 0.55071 0.0
H2780 H 0.01777 0.34561 0.52835 0.0
H2781 H 0.93941 0.3717 0.57152 0.0
H2782 H 0.93925 0.39693 0.5927 0.0
H2783 H 0.94304 0.36676 0.6033 0.0
H2784 H 0.98275 0.38174 0.62478 0.0
H2785 H 0.97903 0.41191 0.61433 0.0
H2786 H 0.00623 0.39698 0.60762 0.0
H2787 H 0.01242 0.38742 0.51347 0.0
H2788 H 0.00623 0.43081 0.50775 0.0
H2789 H 0.96839 0.4335 0.57595 0.0
C2790 C 0.98768 0.33907 0.59159 0.0
C2791 C 0.00041 0.31985 0.5817 0.0
C2792 C 0.01103 0.32232 0.55865 0.0
C2793 C 0.00927 0.34366 0.54575 0.0
C2794 C -0.00323 0.36234 0.55609 0.0
C2795 C 0.98615 0.36027 0.57847 0.0
C2796 C 0.97491 0.38354 0.58609 0.0
C2797 C 0.94753 0.37948 0.58854 0.0
C2798 C 0.98643 0.39416 0.60959 0.0
C2799 C 0.9814 0.39917 0.56477 0.0
C2800 C -0.00624 0.38652 0.54753 0.0
C2801 C 0.00254 0.39746 0.52671 0.0
C2802 C -0.0011 0.42212 0.52362 0.0
C2803 C 0.98676 0.43559 0.54135 0.0
C2804 C 0.97761 0.42374 0.56197 0.0
H2805 H 0.43697 0.21307 0.32574 0.0
H2806 H 0.44069 0.29008 0.34296 0.0
H2807 H 0.40441 0.295 0.31799 0.0
H2808 H 0.41079 0.21556 0.26391 0.0
H2809 H 0.39118 0.18895 0.26823 0.0
H2810 H 0.4199 0.19205 0.28344 0.0
H2811 H 0.39894 0.18621 0.32472 0.0
H2812 H 0.37034 0.18273 0.30958 0.0
H2813 H 0.37518 0.20554 0.33314 0.0
H2814 H 0.36684 0.29121 0.29323 0.0
H2815 H 0.32642 0.27812 0.27776 0.0
H2816 H 0.34471 0.20298 0.28059 0.0
C2817 C 0.43033 0.23098 0.32371 0.0
C2818 C 0.44159 0.25131 0.33571 0.0
C2819 C 0.43221 0.27441 0.33357 0.0
C2820 C 0.41184 0.27738 0.31928 0.0
C2821 C 0.40098 0.25696 0.30761 0.0
C2822 C 0.4096 0.23411 0.31008 0.0
C2823 C 0.39256 0.21469 0.29886 0.0
C2824 C 0.40432 0.20207 0.27733 0.0
C2825 C 0.38373 0.19622 0.3177 0.0
C2826 C 0.37258 0.23006 0.29059 0.0
C2827 C 0.37826 0.25448 0.29487 0.0
C2828 C 0.36225 0.27216 0.28961 0.0
C2829 C 0.33941 0.26459 0.28072 0.0
C2830 C 0.33269 0.2396 0.27799 0.0
C2831 C 0.34966 0.22219 0.28234 0.0
H2832 H 0.40637 0.52902 0.33213 0.0
H2833 H 0.42456 0.45449 0.3187 0.0
H2834 H 0.44914 0.45597 0.35578 0.0
H2835 H 0.46509 0.5502 0.35777 0.0
H2836 H 0.45204 0.56985 0.37988 0.0
H2837 H 0.43716 0.56374 0.35128 0.0
H2838 H 0.39834 0.5486 0.37319 0.0
H2839 H 0.41298 0.55506 0.40176 0.0
H2840 H 0.39991 0.52504 0.39504 0.0
H2841 H 0.47027 0.46473 0.39518 0.0
H2842 H 0.48274 0.47891 0.43611 0.0
H2843 H 0.45095 0.5476 0.424 0.0
C2844 C 0.41563 0.51307 0.33694 0.0
C2845 C 0.41364 0.49169 0.32246 0.0
C2846 C 0.42594 0.47115 0.32942 0.0
C2847 C 0.44007 0.47183 0.35039 0.0
C2848 C 0.44191 0.49325 0.36413 0.0
C2849 C 0.42993 0.51347 0.35779 0.0
C2850 C 0.43386 0.53375 0.37645 0.0
C2851 C 0.44787 0.55568 0.36569 0.0
C2852 C 0.40985 0.54102 0.38725 0.0
C2853 C 0.44902 0.52139 0.39471 0.0
C2854 C 0.45396 0.49825 0.38701 0.0
C2855 C 0.46676 0.48294 0.40131 0.0
C2856 C 0.47393 0.4912 0.42447 0.0
C2857 C 0.4679 0.51438 0.43317 0.0
C2858 C 0.45595 0.52986 0.41776 0.0
H2859 H 0.24559 0.63214 0.08628 0.0
H2860 H 0.27938 0.69407 0.05018 0.0
H2861 H 0.27636 0.71876 0.08749 0.0
H2862 H 0.20292 0.66365 0.11572 0.0
H2863 H 0.2029 0.64702 0.1433 0.0
H2864 H 0.21137 0.6326 0.11546 0.0
H2865 H 0.25221 0.62243 0.13412 0.0
H2866 H 0.24369 0.63641 0.16225 0.0
H2867 H 0.27133 0.64636 0.14788 0.0
H2868 H 0.26445 0.73797 0.12522 0.0
H2869 H 0.24714 0.75068 0.16379 0.0
H2870 H 0.22127 0.67655 0.17668 0.0
C2871 C 0.25311 0.65066 0.08647 0.0
C2872 C 0.26285 0.66124 0.06544 0.0
C2873 C 0.27194 0.68566 0.06616 0.0
C2874 C 0.27033 0.69978 0.08724 0.0
C2875 C 0.2597 0.68909 0.10733 0.0
C2876 C 0.25151 0.66504 0.10732 0.0
C2877 C 0.23882 0.65872 0.13067 0.0
C2878 C 0.21244 0.64999 0.12599 0.0
C2879 C 0.25233 0.63986 0.14455 0.0
C2880 C 0.24062 0.68321 0.14351 0.0
C2881 C 0.25283 0.70035 0.12963 0.0
C2882 C 0.25533 0.72468 0.13651 0.0
C2883 C 0.24533 0.73171 0.15832 0.0
C2884 C 0.23311 0.71447 0.17302 0.0
C2885 C 0.23078 0.68989 0.16572 0.0
H2886 H 0.0784 0.47389 0.82589 0.0
H2887 H 0.06272 0.54917 0.81617 0.0
H2888 H 0.04267 0.54989 0.85562 0.0
H2889 H 0.02057 0.45779 0.85765 0.0
H2890 H 0.03458 0.43702 0.87717 0.0
H2891 H 0.04578 0.44156 0.84708 0.0
H2892 H 0.08829 0.45293 0.86444 0.0
H2893 H 0.07725 0.44839 0.89449 0.0
H2894 H 0.09213 0.47702 0.88686 0.0
H2895 H 0.02749 0.54383 0.89691 0.0
H2896 H 0.01865 0.53141 0.9384 0.0
H2897 H 0.04336 0.45984 0.92194 0.0
C2898 C 0.07046 0.49037 0.832 0.0
C2899 C 0.072 0.51145 0.81803 0.0
C2900 C 0.06146 0.53275 0.82651 0.0
C2901 C 0.05002 0.53333 0.84887 0.0
C2902 C 0.04884 0.51232 0.86228 0.0
C2903 C 0.05854 0.49115 0.85416 0.0
C2904 C 0.05541 0.47141 0.87262 0.0
C2905 C 0.03806 0.45072 0.86306 0.0
C2906 C 0.07973 0.4619 0.88004 0.0
C2907 C 0.04413 0.48539 0.89303 0.0
C2908 C 0.03986 0.50874 0.88635 0.0
C2909 C 0.0303 0.52545 0.90223 0.0
C2910 C 0.02517 0.51819 0.9257 0.0
C2911 C 0.02995 0.49459 0.93319 0.0
C2912 C 0.03934 0.47791 0.91656 0.0
H2913 H 0.23703 0.36492 0.59047 0.0
H2914 H 0.20835 0.29931 0.55386 0.0
H2915 H 0.20599 0.2787 0.59311 0.0
H2916 H 0.2768 0.33742 0.6228 0.0
H2917 H 0.27581 0.35682 0.64932 0.0
H2918 H 0.26783 0.36818 0.62058 0.0
H2919 H 0.22617 0.37914 0.63714 0.0
H2920 H 0.23469 0.3681 0.66609 0.0
H2921 H 0.20731 0.35624 0.65157 0.0
H2922 H 0.21442 0.26332 0.63417 0.0
H2923 H 0.23778 0.2531 0.67009 0.0
H2924 H 0.26342 0.32809 0.67897 0.0
C2925 C 0.22935 0.34647 0.59073 0.0
C2926 C 0.22262 0.33376 0.56917 0.0
C2927 C 0.21346 0.30941 0.57022 0.0
C2928 C 0.21185 0.29769 0.59247 0.0
C2929 C 0.21959 0.31058 0.61336 0.0
C2930 C 0.2283 0.33448 0.61253 0.0
C2931 C 0.24033 0.34296 0.63595 0.0
C2932 C 0.26674 0.35182 0.6319 0.0
C2933 C 0.22625 0.36277 0.64843 0.0
C2934 C 0.23846 0.31967 0.64974 0.0
C2935 C 0.22549 0.30145 0.63688 0.0
C2936 C 0.22399 0.27757 0.64465 0.0
C2937 C 0.23714 0.27193 0.66521 0.0
C2938 C 0.25169 0.29004 0.6775 0.0
C2939 C 0.25165 0.31425 0.67023 0.0
H2940 H 0.40984 0.52766 0.17237 0.0
H2941 H 0.42545 0.46231 0.21045 0.0
H2942 H 0.44632 0.44717 0.17499 0.0
H2943 H 0.40067 0.50089 0.1138 0.0
H2944 H 0.41635 0.52476 0.09752 0.0
H2945 H 0.40216 0.53155 0.12581 0.0
H2946 H 0.44245 0.55025 0.14318 0.0
H2947 H 0.45658 0.54415 0.11472 0.0
H2948 H 0.46878 0.53273 0.14211 0.0
H2949 H 0.46089 0.43665 0.13565 0.0
H2950 H 0.48039 0.43537 0.09647 0.0
H2951 H 0.46072 0.50911 0.08323 0.0
C2952 C 0.41808 0.5104 0.17328 0.0
C2953 C 0.41593 0.49608 0.19409 0.0
C2954 C 0.42698 0.47365 0.19479 0.0
C2955 C 0.43861 0.46471 0.17463 0.0
C2956 C 0.43955 0.47868 0.15413 0.0
C2957 C 0.43053 0.50142 0.15341 0.0
C2958 C 0.43573 0.51303 0.12924 0.0
C2959 C 0.41233 0.51783 0.11581 0.0
C2960 C 0.45185 0.53642 0.13252 0.0
C2961 C 0.449 0.49307 0.1167 0.0
C2962 C 0.45017 0.47327 0.13137 0.0
C2963 C 0.46069 0.45219 0.12413 0.0
C2964 C 0.47172 0.45172 0.10177 0.0
C2965 C 0.47271 0.47243 0.08706 0.0
C2966 C 0.46045 0.49314 0.09421 0.0
H2967 H 0.24941 0.64896 0.91227 0.0
H2968 H 0.24154 0.71526 0.95428 0.0
H2969 H 0.24237 0.73874 0.9169 0.0
H2970 H 0.28924 0.67222 0.86846 0.0
H2971 H 0.2754 0.65517 0.84348 0.0
H2972 H 0.27337 0.64342 0.87344 0.0
H2973 H 0.22688 0.63997 0.86989 0.0
H2974 H 0.22877 0.65161 0.83984 0.0
H2975 H 0.21101 0.66634 0.86227 0.0
H2976 H 0.24563 0.75504 0.87534 0.0
H2977 H 0.24969 0.76303 0.83192 0.0
H2978 H 0.25459 0.68585 0.81716 0.0
C2979 C 0.24797 0.66842 0.91354 0.0
C2980 C 0.24571 0.68043 0.93602 0.0
C2981 C 0.24336 0.70582 0.93712 0.0
C2982 C 0.24378 0.71928 0.91604 0.0
C2983 C 0.24615 0.70693 0.89412 0.0
C2984 C 0.24789 0.68205 0.89267 0.0
C2985 C 0.24998 0.6732 0.86683 0.0
C2986 C 0.2734 0.66025 0.86283 0.0
C2987 C 0.22785 0.65682 0.85927 0.0
C2988 C 0.25036 0.69712 0.85411 0.0
C2989 C 0.24777 0.71631 0.87012 0.0
C2990 C 0.24759 0.74017 0.86258 0.0
C2991 C 0.25 0.74452 0.83793 0.0
C2992 C 0.25271 0.72507 0.82123 0.0
C2993 C 0.25289 0.70112 0.82952 0.0
H2994 H 0.07038 0.5252 0.69394 0.0
H2995 H 0.11462 0.46663 0.67148 0.0
H2996 H 0.10476 0.47408 0.62879 0.0
H2997 H 0.02394 0.5158 0.64951 0.0
H2998 H 0.02071 0.5479 0.64654 0.0
H2999 H 0.03103 0.53639 0.67455 0.0
H3000 H 0.06864 0.56625 0.67213 0.0
H3001 H 0.05895 0.57681 0.64336 0.0
H3002 H 0.08815 0.56468 0.6464 0.0
H3003 H 0.08993 0.48835 0.58868 0.0
H3004 H 0.06497 0.50247 0.55558 0.0
H3005 H 0.03329 0.55352 0.60487 0.0
C3006 C 0.07755 0.51351 0.68012 0.0
C3007 C 0.0931 0.49524 0.68594 0.0
C3008 C 0.10252 0.48066 0.6673 0.0
C3009 C 0.09732 0.48499 0.64306 0.0
C3010 C 0.08306 0.50419 0.63792 0.0
C3011 C 0.07303 0.51792 0.65597 0.0
C3012 C 0.05805 0.53727 0.64592 0.0
C3013 C 0.03189 0.53413 0.65463 0.0
C3014 C 0.06912 0.56276 0.65233 0.0
C3015 C 0.0602 0.53158 0.6193 0.0
C3016 C 0.07518 0.51284 0.61496 0.0
C3017 C 0.0783 0.50314 0.59185 0.0
C3018 C 0.06421 0.51145 0.57307 0.0
C3019 C 0.04698 0.52883 0.57783 0.0
C3020 C 0.04636 0.54024 0.60077 0.0
H3021 H 0.21368 0.30443 0.43562 0.0
H3022 H 0.24894 0.37421 0.42068 0.0
H3023 H 0.24762 0.36405 0.37687 0.0
H3024 H 0.24262 0.27015 0.39695 0.0
H3025 H 0.21751 0.25027 0.38715 0.0
H3026 H 0.21687 0.26518 0.41616 0.0
H3027 H 0.17675 0.28388 0.40487 0.0
H3028 H 0.17729 0.26889 0.37566 0.0
H3029 H 0.17496 0.30129 0.37789 0.0
H3030 H 0.24949 0.34247 0.33575 0.0
H3031 H 0.25361 0.31232 0.30239 0.0
H3032 H 0.21505 0.25788 0.3445 0.0
C3033 C 0.22032 0.31784 0.42298 0.0
C3034 C 0.23128 0.34006 0.43128 0.0
C3035 C 0.24014 0.3572 0.41447 0.0
C3036 C 0.23944 0.35157 0.38959 0.0
C3037 C 0.22908 0.32907 0.3819 0.0
C3038 C 0.21912 0.31275 0.39816 0.0
C3039 C 0.2109 0.28904 0.38581 0.0
C3040 C 0.2227 0.26742 0.39719 0.0
C3041 C 0.18334 0.28558 0.38608 0.0
C3042 C 0.21988 0.29358 0.36057 0.0
C3043 C 0.22968 0.31699 0.35831 0.0
C3044 C 0.24127 0.32434 0.33717 0.0
C3045 C 0.2435 0.30713 0.31827 0.0
C3046 C 0.23457 0.28283 0.32093 0.0
C3047 C 0.22188 0.27639 0.34197 0.0
H3048 H 0.3032 0.43313 0.52405 0.0
H3049 H 0.32838 0.36413 0.49874 0.0
H3050 H 0.37048 0.38011 0.50491 0.0
H3051 H 0.34715 0.47041 0.49612 0.0
H3052 H 0.34927 0.49248 0.52059 0.0
H3053 H 0.32171 0.4746 0.51542 0.0
H3054 H 0.32311 0.46017 0.55958 0.0
H3055 H 0.35102 0.47766 0.56469 0.0
H3056 H 0.34916 0.44557 0.57022 0.0
H3057 H 0.41016 0.40542 0.51128 0.0
H3058 H 0.44258 0.43794 0.51457 0.0
H3059 H 0.39024 0.48895 0.53727 0.0
C3060 C 0.3175 0.42125 0.51984 0.0
C3061 C 0.31246 0.39739 0.51083 0.0
C3062 C 0.33179 0.38251 0.50564 0.0
C3063 C 0.35575 0.39138 0.50924 0.0
C3064 C 0.36001 0.41502 0.51833 0.0
C3065 C 0.34132 0.42967 0.52353 0.0
C3066 C 0.35035 0.45475 0.53194 0.0
C3067 C 0.34161 0.47419 0.515 0.0
C3068 C 0.34297 0.45982 0.55817 0.0
C3069 C 0.37711 0.45229 0.52997 0.0
C3070 C 0.38251 0.42921 0.52238 0.0
C3071 C 0.40612 0.42344 0.51754 0.0
C3072 C 0.42445 0.442 0.51958 0.0
C3073 C 0.41894 0.46601 0.52617 0.0
C3074 C 0.39509 0.47079 0.5323 0.0
H3075 H 0.82254 0.06934 0.53076 0.0
H3076 H 0.7954 0.06762 0.45731 0.0
H3077 H 0.83099 0.04641 0.44378 0.0
H3078 H 0.88381 0.08335 0.51375 0.0
H3079 H 0.89658 0.06611 0.53734 0.0
H3080 H 0.86791 0.07898 0.54168 0.0
H3081 H 0.84901 0.0364 0.55126 0.0
H3082 H 0.87762 0.0234 0.54662 0.0
H3083 H 0.85158 0.01173 0.52975 0.0
H3084 H 0.86914 0.02655 0.43787 0.0
H3085 H 0.91089 0.01427 0.43842 0.0
H3086 H 0.9155 0.03058 0.51526 0.0
C3087 C 0.82403 0.06411 0.51191 0.0
C3088 C 0.80611 0.06961 0.49505 0.0
C3089 C 0.80889 0.06333 0.47044 0.0
C3090 C 0.82894 0.05117 0.46265 0.0
C3091 C 0.84625 0.04585 0.47966 0.0
C3092 C 0.84433 0.05252 0.5037 0.0
C3093 C 0.86681 0.04683 0.51766 0.0
C3094 C 0.87953 0.07021 0.52822 0.0
C3095 C 0.86089 0.02849 0.5375 0.0
C3096 C 0.88151 0.03573 0.49769 0.0
C3097 C 0.86905 0.03512 0.47604 0.0
C3098 C 0.87905 0.0268 0.4547 0.0
C3099 C 0.90276 0.01978 0.45522 0.0
C3100 C 0.91636 0.02122 0.47689 0.0
C3101 C 0.90534 0.02868 0.49856 0.0
H3102 H 0.68872 0.06046 0.23804 0.0
H3103 H 0.6231 0.07843 0.27465 0.0
H3104 H 0.63291 0.12183 0.26831 0.0
H3105 H 0.72532 0.11 0.26295 0.0
H3106 H 0.74242 0.11421 0.23573 0.0
H3107 H 0.72923 0.0847 0.24249 0.0
H3108 H 0.70765 0.08345 0.20083 0.0
H3109 H 0.72012 0.11343 0.19447 0.0
H3110 H 0.68804 0.10712 0.19346 0.0
H3111 H 0.64979 0.16343 0.25807 0.0
H3112 H 0.6768 0.20003 0.25209 0.0
H3113 H 0.73123 0.1547 0.22319 0.0
C3114 C 0.67651 0.0735 0.24493 0.0
C3115 C 0.65511 0.06598 0.25672 0.0
C3116 C 0.63966 0.0837 0.26556 0.0
C3117 C 0.64488 0.10841 0.26177 0.0
C3118 C 0.66564 0.11512 0.24922 0.0
C3119 C 0.68148 0.09823 0.24143 0.0
C3120 C 0.70342 0.11029 0.22997 0.0
C3121 C 0.72645 0.10446 0.24361 0.0
C3122 C 0.70488 0.10314 0.20309 0.0
C3123 C 0.6978 0.13661 0.23331 0.0
C3124 C 0.6756 0.13907 0.24377 0.0
C3125 C 0.66715 0.16177 0.24973 0.0
C3126 C 0.68243 0.18242 0.24612 0.0
C3127 C 0.70584 0.17986 0.23715 0.0
C3128 C 0.71322 0.15689 0.22984 0.0
H3129 H 0.67391 0.94608 0.0309 0.0
H3130 H 0.68992 0.91587 0.96028 0.0
H3131 H 0.64935 0.92468 0.94604 0.0
H3132 H 0.61018 0.92268 0.0307 0.0
H3133 H 0.60021 0.94907 0.0466 0.0
H3134 H 0.63004 0.93916 0.05181 0.0
H3135 H 0.64828 0.98171 0.04085 0.0
H3136 H 0.61851 0.99169 0.036 0.0
H3137 H 0.64054 0.99443 0.01237 0.0
H3138 H 0.60907 0.93973 0.93847 0.0
H3139 H 0.57182 0.96174 0.93745 0.0
H3140 H 0.58024 0.98013 0.01354 0.0
C3141 C 0.66887 0.94149 0.0124 0.0
C3142 C 0.68508 0.93062 -0.00347 0.0
C3143 C 0.67777 0.92438 0.97263 0.0
C3144 C 0.65473 0.9291 0.96446 0.0
C3145 C 0.63906 0.93958 0.9806 0.0
C3146 C 0.64571 0.94561 0.0041 0.0
C3147 C 0.62556 0.95732 0.0175 0.0
C3148 C 0.61593 0.94109 0.03786 0.0
C3149 C 0.63371 0.9828 0.02723 0.0
C3150 C 0.60717 0.95837 -0.00261 0.0
C3151 C 0.61518 0.94753 0.97642 0.0
C3152 C 0.60238 0.94789 0.95485 0.0
C3153 C 0.58128 0.96042 0.95445 0.0
C3154 C 0.57315 0.97234 0.97548 0.0
C3155 C 0.58581 0.97061 -0.0026 0.0
H3156 H 0.32198 0.42055 0.27011 0.0
H3157 H 0.33147 0.44368 0.19632 0.0
H3158 H 0.32415 0.40154 0.18171 0.0
H3159 H 0.34749 0.36141 0.26358 0.0
H3160 H 0.32517 0.34599 0.282 0.0
H3161 H 0.33323 0.37772 0.28758 0.0
H3162 H 0.28868 0.38824 0.28288 0.0
H3163 H 0.28055 0.35649 0.27816 0.0
H3164 H 0.27224 0.37806 0.25611 0.0
H3165 H 0.31588 0.358 0.17464 0.0
H3166 H 0.2971 0.31663 0.17439 0.0
H3167 H 0.29027 0.32086 0.25227 0.0
C3168 C 0.32223 0.41665 0.25089 0.0
C3169 C 0.32715 0.43531 0.23431 0.0
C3170 C 0.32732 0.4297 0.20929 0.0
C3171 C 0.32367 0.40576 0.20083 0.0
C3172 C 0.31947 0.38769 0.2176 0.0
C3173 C 0.31794 0.39283 0.24202 0.0
C3174 C 0.3104 0.37022 0.25574 0.0
C3175 C 0.33027 0.36344 0.27326 0.0
C3176 C 0.28655 0.37345 0.26899 0.0
C3177 C 0.30737 0.35184 0.23506 0.0
C3178 C 0.31353 0.36225 0.21336 0.0
C3179 C 0.31097 0.34958 0.19147 0.0
C3180 C 0.30029 0.32611 0.19152 0.0
C3181 C 0.29207 0.31576 0.21328 0.0
C3182 C 0.29669 0.32829 0.23544 0.0
H3183 H 0.1611 0.60484 0.97739 0.0
H3184 H 0.19711 0.58726 0.04362 0.0
H3185 H 0.15821 0.57483 0.0617 0.0
H3186 H 0.10322 0.62406 0.00462 0.0
H3187 H 0.0854 0.60899 0.98094 0.0
H3188 H 0.11521 0.6215 0.97459 0.0
H3189 H 0.1272 0.57949 0.95806 0.0
H3190 H 0.09723 0.56749 0.96374 0.0
H3191 H 0.1225 0.55327 0.97662 0.0
H3192 H 0.11816 0.5588 0.07048 0.0
H3193 H 0.08027 0.53369 0.0669 0.0
H3194 H 0.06836 0.56142 -0.00422 0.0
C3195 C 0.1605 0.59866 -0.00422 0.0
C3196 C 0.18171 0.5969 0.00931 0.0
C3197 C 0.18078 0.58845 0.03312 0.0
C3198 C 0.15881 0.5818 0.04363 0.0
C3199 C 0.13802 0.58367 0.02999 0.0
C3200 C 0.13862 0.59145 0.00643 0.0
C3201 C 0.11419 0.58769 0.99449 0.0
C3202 C 0.10391 0.61203 0.98831 0.0
C3203 C 0.11536 0.57099 0.97192 0.0
C3204 C 0.10018 0.57549 0.01464 0.0
C3205 C 0.11413 0.57412 0.03523 0.0
C3206 C 0.10671 0.56032 0.05484 0.0
C3207 C 0.08519 0.54621 0.05275 0.0
C3208 C 0.07149 0.54633 0.03134 0.0
C3209 C 0.07827 0.56206 0.01266 0.0
H3210 H 0.69231 0.92811 0.22933 0.0
H3211 H 0.63652 0.92777 0.28375 0.0
H3212 H 0.64688 0.88695 0.29559 0.0
H3213 H 0.68308 0.86732 0.21022 0.0
H3214 H 0.7144 0.8619 0.2061 0.0
H3215 H 0.70423 0.89205 0.20325 0.0
H3216 H 0.7353 0.90782 0.23565 0.0
H3217 H 0.74543 0.87758 0.2386 0.0
H3218 H 0.73535 0.89397 0.26476 0.0
H3219 H 0.66034 0.84551 0.29933 0.0
H3220 H 0.67609 0.80502 0.29472 0.0
H3221 H 0.72396 0.83137 0.23836 0.0
C3222 C 0.68254 0.91958 0.24398 0.0
C3223 C 0.66364 0.93118 0.25568 0.0
C3224 C 0.65112 0.91933 0.27461 0.0
C3225 C 0.65691 0.89615 0.28152 0.0
C3226 C 0.6754 0.88512 0.26949 0.0
C3227 C 0.68815 0.8964 0.25121 0.0
C3228 C 0.7064 0.87986 0.2405 0.0
C3229 C 0.70172 0.875 0.21341 0.0
C3230 C 0.73215 0.89044 0.24516 0.0
C3231 C 0.70115 0.85721 0.25499 0.0
C3232 C 0.68343 0.86089 0.27181 0.0
C3233 C 0.67444 0.84246 0.28646 0.0
C3234 C 0.68348 0.81948 0.28362 0.0
C3235 C 0.7013 0.815 0.26619 0.0
C3236 C 0.71059 0.8343 0.25203 0.0
H3237 H 0.82392 0.08342 0.73018 0.0
H3238 H 0.83216 0.0687 0.80609 0.0
H3239 H 0.81525 0.10814 0.81662 0.0
H3240 H 0.83943 0.15018 0.73688 0.0
H3241 H 0.81848 0.15724 0.71357 0.0
H3242 H 0.83325 0.12901 0.71212 0.0
H3243 H 0.79186 0.10518 0.70935 0.0
H3244 H 0.77702 0.13324 0.71067 0.0
H3245 H 0.76973 0.11011 0.73229 0.0
H3246 H 0.79245 0.1456 0.81846 0.0
H3247 H 0.76699 0.17998 0.81192 0.0
H3248 H 0.77662 0.17234 0.73467 0.0
C3249 C 0.8224 0.08873 0.74901 0.0
C3250 C 0.82904 0.07321 0.76743 0.0
C3251 C 0.82713 0.08056 0.79185 0.0
C3252 C 0.81765 0.10287 0.79793 0.0
C3253 C 0.81101 0.11773 0.77929 0.0
C3254 C 0.81368 0.11118 0.75532 0.0
C3255 C 0.80443 0.13004 0.73875 0.0
C3256 C 0.82513 0.14234 0.72449 0.0
C3257 C 0.78458 0.11898 0.72179 0.0
C3258 C 0.79462 0.14746 0.75713 0.0
C3259 C 0.7989 0.14015 0.78041 0.0
C3260 C 0.78952 0.15187 0.80039 0.0
C3261 C 0.77502 0.17127 0.79648 0.0
C3262 C 0.77018 0.17881 0.77281 0.0
C3263 C 0.78061 0.16722 0.75293 0.0
loop_
_geom_bond_atom_site_label_1
_geom_bond_atom_site_label_2
_geom_bond_distance
_geom_bond_site_symmetry_2
_ccdc_geom_bond_type
O0 Cd1 2.223 . S
O0 C8 1.315 . S
Cd1 O0 2.223 . S
Cd1 O4 2.297 1_455 S
Cd1 O5 2.439 1_455 S
Cd1 O11 2.240 . S
Cd2 O3 2.240 . S
Cd2 O10 2.223 . S
Cd2 O12 2.297 . S
Cd2 O13 2.439 . S
O3 Cd2 2.240 . S
O3 C8 1.279 . S
O4 Cd1 2.297 1_655 S
O4 C6 1.247 . S
O5 Cd1 2.439 1_655 S
O5 C6 1.208 . S
C6 O4 1.247 . S
C6 O5 1.208 . S
C7 O12 1.247 . S
C7 O13 1.208 . S
C8 O0 1.315 . S
C8 O3 1.279 . S
C9 O10 1.315 . S
C9 O11 1.279 . S
O10 Cd2 2.223 . S
O10 C9 1.315 . S
O11 Cd1 2.240 . S
O11 C9 1.279 . S
O12 Cd2 2.297 . S
O12 C7 1.247 . S
O13 Cd2 2.439 . S
O13 C7 1.208 . S
O14 Cd15 2.223 . S
O14 C22 1.315 . S
Cd15 O14 2.223 . S
Cd15 O18 2.297 . S
Cd15 O19 2.439 1_455 S
Cd15 O25 2.240 1_455 S
Cd16 O17 2.240 1_655 S
Cd16 O24 2.223 1_655 S
Cd16 O26 2.297 . S
Cd16 O27 2.439 . S
O17 Cd16 2.240 1_455 S
O17 C22 1.279 . S
O18 Cd15 2.297 . S
O18 C20 1.247 . S
O19 Cd15 2.439 1_655 S
O19 C20 1.208 1_655 S
C20 O18 1.247 . S
C20 O19 1.208 1_455 S
C21 O26 1.247 . S
C21 O27 1.208 . S
C22 O14 1.315 . S
C22 O17 1.279 . S
C23 O24 1.315 . S
C23 O25 1.279 1_455 S
O24 Cd16 2.223 1_455 S
O24 C23 1.315 . S
O25 Cd15 2.240 1_655 S
O25 C23 1.279 1_655 S
O26 Cd16 2.297 . S
O26 C21 1.247 . S
O27 Cd16 2.439 . S
O27 C21 1.208 . S
O28 Cd29 2.223 . S
O28 C36 1.315 . S
Cd29 O28 2.223 . S
Cd29 O32 2.297 . S
Cd29 O33 2.439 . S
Cd29 O39 2.240 . S
Cd30 O31 2.240 . S
Cd30 O38 2.223 . S
Cd30 O40 2.297 . S
Cd30 O41 2.439 . S
O31 Cd30 2.240 . S
O31 C36 1.279 . S
O32 Cd29 2.297 . S
O32 C34 1.247 . S
O33 Cd29 2.439 . S
O33 C34 1.208 . S
C34 O32 1.247 . S
C34 O33 1.208 . S
C35 O40 1.247 . S
C35 O41 1.208 . S
C36 O28 1.315 . S
C36 O31 1.279 . S
C37 O38 1.315 . S
C37 O39 1.279 . S
O38 Cd30 2.223 . S
O38 C37 1.315 . S
O39 Cd29 2.240 . S
O39 C37 1.279 . S
O40 Cd30 2.297 . S
O40 C35 1.247 . S
O41 Cd30 2.439 . S
O41 C35 1.208 . S
O42 Cd43 2.223 . S
O42 C50 1.315 . S
Cd43 O42 2.223 . S
Cd43 O46 2.297 . S
Cd43 O47 2.439 . S
Cd43 O53 2.240 . S
Cd44 O45 2.240 . S
Cd44 O52 2.223 . S
Cd44 O54 2.297 . S
Cd44 O55 2.439 . S
O45 Cd44 2.240 . S
O45 C50 1.279 . S
O46 Cd43 2.297 . S
O46 C48 1.247 . S
O47 Cd43 2.439 . S
O47 C48 1.208 . S
C48 O46 1.247 . S
C48 O47 1.208 . S
C49 O54 1.247 . S
C49 O55 1.208 . S
C50 O42 1.315 . S
C50 O45 1.279 . S
C51 O52 1.315 . S
C51 O53 1.279 . S
O52 Cd44 2.223 . S
O52 C51 1.315 . S
O53 Cd43 2.240 . S
O53 C51 1.279 . S
O54 Cd44 2.297 . S
O54 C49 1.247 . S
O55 Cd44 2.439 . S
O55 C49 1.208 . S
O56 Cd57 2.223 1_545 S
O56 C64 1.318 . S
Cd57 O56 2.223 1_565 S
Cd57 O60 2.297 . S
Cd57 O61 2.439 . S
Cd57 O67 2.240 1_565 S
Cd58 O59 2.240 1_545 S
Cd58 O66 2.223 . S
Cd58 O68 2.297 . S
Cd58 O69 2.439 1_545 S
O59 Cd58 2.240 1_565 S
O59 C64 1.264 1_565 S
O60 Cd57 2.297 . S
O60 C62 1.247 . S
O61 Cd57 2.439 . S
O61 C62 1.208 . S
C62 O60 1.247 . S
C62 O61 1.208 . S
C63 O68 1.247 . S
C63 O69 1.208 1_545 S
C64 O56 1.318 . S
C64 O59 1.264 1_545 S
C65 O66 1.315 . S
C65 O67 1.279 . S
O66 Cd58 2.223 . S
O66 C65 1.315 . S
O67 Cd57 2.240 1_545 S
O67 C65 1.279 . S
O68 Cd58 2.297 . S
O68 C63 1.247 . S
O69 Cd58 2.439 1_565 S
O69 C63 1.208 1_565 S
O70 Cd71 2.223 . S
O70 C78 1.315 . S
Cd71 O70 2.223 . S
Cd71 O74 2.297 . S
Cd71 O75 2.439 . S
Cd71 O81 2.240 . S
Cd72 O73 2.240 . S
Cd72 O80 2.223 . S
Cd72 O82 2.297 . S
Cd72 O83 2.439 . S
O73 Cd72 2.240 . S
O73 C78 1.279 . S
O74 Cd71 2.297 . S
O74 C76 1.247 . S
O75 Cd71 2.439 . S
O75 C76 1.208 . S
C76 O74 1.247 . S
C76 O75 1.208 . S
C77 O82 1.247 . S
C77 O83 1.208 . S
C78 O70 1.315 . S
C78 O73 1.279 . S
C79 O80 1.315 . S
C79 O81 1.279 . S
O80 Cd72 2.223 . S
O80 C79 1.315 . S
O81 Cd71 2.240 . S
O81 C79 1.279 . S
O82 Cd72 2.297 . S
O82 C77 1.247 . S
O83 Cd72 2.439 . S
O83 C77 1.208 . S
O84 Cd85 2.223 . S
O84 C92 1.315 . S
Cd85 O84 2.223 . S
Cd85 O88 2.297 . S
Cd85 O89 2.439 . S
Cd85 O95 2.240 1_545 S
Cd86 O87 2.240 . S
Cd86 O94 2.223 1_545 S
Cd86 O96 2.297 1_545 S
Cd86 O97 2.439 . S
O87 Cd86 2.240 . S
O87 C92 1.279 . S
O88 Cd85 2.297 . S
O88 C90 1.247 . S
O89 Cd85 2.439 . S
O89 C90 1.208 . S
C90 O88 1.247 . S
C90 O89 1.208 . S
C91 O96 1.247 1_545 S
C91 O97 1.208 . S
C92 O84 1.315 . S
C92 O87 1.279 . S
C93 O94 1.315 . S
C93 O95 1.279 . S
O94 Cd86 2.223 1_565 S
O94 C93 1.315 . S
O95 Cd85 2.240 1_565 S
O95 C93 1.279 . S
O96 Cd86 2.297 1_565 S
O96 C91 1.247 1_565 S
O97 Cd86 2.439 . S
O97 C91 1.208 . S
O98 Cd99 2.223 . S
O98 C106 1.315 . S
Cd99 O98 2.223 . S
Cd99 O102 2.297 . S
Cd99 O103 2.439 1_554 S
Cd99 O109 2.240 1_554 S
Cd100 O101 2.240 1_556 S
Cd100 O108 2.223 1_556 S
Cd100 O110 2.297 . S
Cd100 O111 2.439 . S
O101 Cd100 2.240 1_554 S
O101 C106 1.279 . S
O102 Cd99 2.297 . S
O102 C104 1.247 . S
O103 Cd99 2.439 1_556 S
O103 C104 1.208 1_556 S
C104 O102 1.247 . S
C104 O103 1.208 1_554 S
C105 O110 1.247 . S
C105 O111 1.208 . S
C106 O98 1.315 . S
C106 O101 1.279 . S
C107 O108 1.315 . S
C107 O109 1.279 1_554 S
O108 Cd100 2.223 1_554 S
O108 C107 1.315 . S
O109 Cd99 2.240 1_556 S
O109 C107 1.279 1_556 S
O110 Cd100 2.297 . S
O110 C105 1.247 . S
O111 Cd100 2.439 . S
O111 C105 1.208 . S
O112 Cd113 2.223 . S
O112 C120 1.315 . S
Cd113 O112 2.223 . S
Cd113 O116 2.297 . S
Cd113 O117 2.439 . S
Cd113 O123 2.240 . S
Cd114 O115 2.209 1_556 S
Cd114 O122 2.212 1_556 S
Cd114 O124 2.335 . S
Cd114 O125 2.471 . S
O115 Cd114 2.209 1_554 S
O115 C120 1.279 . S
O116 Cd113 2.297 . S
O116 C118 1.247 . S
O117 Cd113 2.439 . S
O117 C118 1.208 . S
C118 O116 1.247 . S
C118 O117 1.208 . S
C119 O124 1.247 . S
C119 O125 1.208 . S
C120 O112 1.315 . S
C120 O115 1.279 . S
C121 O122 1.315 . S
C121 O123 1.279 . S
O122 Cd114 2.212 1_554 S
O122 C121 1.315 . S
O123 Cd113 2.240 . S
O123 C121 1.279 . S
O124 Cd114 2.335 . S
O124 C119 1.247 . S
O125 Cd114 2.471 . S
O125 C119 1.208 . S
O126 Cd127 2.223 . S
O126 C134 1.315 . S
Cd127 O126 2.223 . S
Cd127 O130 2.297 . S
Cd127 O131 2.439 . S
Cd127 O137 2.240 . S
Cd128 O129 2.240 . S
Cd128 O136 2.223 . S
Cd128 O138 2.297 . S
Cd128 O139 2.439 . S
O129 Cd128 2.240 . S
O129 C134 1.279 . S
O130 Cd127 2.297 . S
O130 C132 1.247 . S
O131 Cd127 2.439 . S
O131 C132 1.208 . S
C132 O130 1.247 . S
C132 O131 1.208 . S
C133 O138 1.247 . S
C133 O139 1.208 . S
C134 O126 1.315 . S
C134 O129 1.279 . S
C135 O136 1.315 . S
C135 O137 1.279 . S
O136 Cd128 2.223 . S
O136 C135 1.315 . S
O137 Cd127 2.240 . S
O137 C135 1.279 . S
O138 Cd128 2.297 . S
O138 C133 1.247 . S
O139 Cd128 2.439 . S
O139 C133 1.208 . S
O140 Cd141 2.223 . S
O140 C148 1.315 . S
Cd141 O140 2.223 . S
Cd141 O144 2.297 . S
Cd141 O145 2.439 . S
Cd141 O151 2.240 . S
Cd142 O143 2.240 . S
Cd142 O150 2.223 . S
Cd142 O152 2.297 . S
Cd142 O153 2.439 . S
O143 Cd142 2.240 . S
O143 C148 1.279 . S
O144 Cd141 2.297 . S
O144 C146 1.247 . S
O145 Cd141 2.439 . S
O145 C146 1.208 . S
C146 O144 1.247 . S
C146 O145 1.208 . S
C147 O152 1.247 . S
C147 O153 1.208 . S
C148 O140 1.315 . S
C148 O143 1.279 . S
C149 O150 1.315 . S
C149 O151 1.279 . S
O150 Cd142 2.223 . S
O150 C149 1.315 . S
O151 Cd141 2.240 . S
O151 C149 1.279 . S
O152 Cd142 2.297 . S
O152 C147 1.247 . S
O153 Cd142 2.439 . S
O153 C147 1.208 . S
O154 Cd155 2.223 . S
O154 C162 1.315 . S
Cd155 O154 2.223 . S
Cd155 O158 2.297 . S
Cd155 O159 2.439 . S
Cd155 O165 2.240 . S
Cd156 O157 2.240 . S
Cd156 O164 2.223 . S
Cd156 O166 2.297 . S
Cd156 O167 2.439 . S
O157 Cd156 2.240 . S
O157 C162 1.279 . S
O158 Cd155 2.297 . S
O158 C160 1.247 . S
O159 Cd155 2.439 . S
O159 C160 1.208 . S
C160 O158 1.247 . S
C160 O159 1.208 . S
C161 O166 1.247 . S
C161 O167 1.208 . S
C162 O154 1.315 . S
C162 O157 1.279 . S
C163 O164 1.315 . S
C163 O165 1.279 . S
O164 Cd156 2.223 . S
O164 C163 1.315 . S
O165 Cd155 2.240 . S
O165 C163 1.279 . S
O166 Cd156 2.297 . S
O166 C161 1.247 . S
O167 Cd156 2.439 . S
O167 C161 1.208 . S
O168 Cd169 2.223 . S
O168 C176 1.315 . S
Cd169 O168 2.223 . S
Cd169 O172 2.297 . S
Cd169 O173 2.426 1_455 S
Cd169 O179 2.232 1_455 S
Cd170 O171 2.240 1_655 S
Cd170 O178 2.223 1_655 S
Cd170 O180 2.297 . S
Cd170 O181 2.439 . S
O171 Cd170 2.240 1_455 S
O171 C176 1.279 . S
O172 Cd169 2.297 . S
O172 C174 1.247 . S
O173 Cd169 2.426 1_655 S
O173 C174 1.187 1_655 S
C174 O172 1.247 . S
C174 O173 1.187 1_455 S
C175 O180 1.247 . S
C175 O181 1.208 . S
C176 O168 1.315 . S
C176 O171 1.279 . S
C177 O178 1.315 . S
C177 O179 1.274 1_455 S
O178 Cd170 2.223 1_455 S
O178 C177 1.315 . S
O179 Cd169 2.232 1_655 S
O179 C177 1.274 1_655 S
O180 Cd170 2.297 . S
O180 C175 1.247 . S
O181 Cd170 2.439 . S
O181 C175 1.208 . S
O182 Cd183 2.223 1_455 S
O182 C190 1.319 . S
Cd183 O182 2.223 1_655 S
Cd183 O186 2.297 . S
Cd183 O187 2.439 . S
Cd183 O193 2.240 1_655 S
Cd184 O185 2.240 1_455 S
Cd184 O192 2.223 . S
Cd184 O194 2.297 . S
Cd184 O195 2.439 1_455 S
O185 Cd184 2.240 1_655 S
O185 C190 1.264 1_655 S
O186 Cd183 2.297 . S
O186 C188 1.247 . S
O187 Cd183 2.439 . S
O187 C188 1.208 . S
C188 O186 1.247 . S
C188 O187 1.208 . S
C189 O194 1.247 . S
C189 O195 1.208 1_455 S
C190 O182 1.319 . S
C190 O185 1.264 1_455 S
C191 O192 1.315 . S
C191 O193 1.279 . S
O192 Cd184 2.223 . S
O192 C191 1.315 . S
O193 Cd183 2.240 1_455 S
O193 C191 1.279 . S
O194 Cd184 2.297 . S
O194 C189 1.247 . S
O195 Cd184 2.439 1_655 S
O195 C189 1.208 1_655 S
O196 Cd197 2.223 . S
O196 C204 1.315 . S
Cd197 O196 2.223 . S
Cd197 O200 2.297 . S
Cd197 O201 2.439 . S
Cd197 O207 2.240 . S
Cd198 O199 2.240 . S
Cd198 O206 2.223 . S
Cd198 O208 2.297 . S
Cd198 O209 2.439 . S
O199 Cd198 2.240 . S
O199 C204 1.279 . S
O200 Cd197 2.297 . S
O200 C202 1.247 . S
O201 Cd197 2.439 . S
O201 C202 1.208 . S
C202 O200 1.247 . S
C202 O201 1.208 . S
C203 O208 1.247 . S
C203 O209 1.208 . S
C204 O196 1.315 . S
C204 O199 1.279 . S
C205 O206 1.315 . S
C205 O207 1.279 . S
O206 Cd198 2.223 . S
O206 C205 1.315 . S
O207 Cd197 2.240 . S
O207 C205 1.279 . S
O208 Cd198 2.297 . S
O208 C203 1.247 . S
O209 Cd198 2.439 . S
O209 C203 1.208 . S
O210 Cd211 2.223 . S
O210 C218 1.315 . S
Cd211 O210 2.223 . S
Cd211 O214 2.297 . S
Cd211 O215 2.439 . S
Cd211 O221 2.240 . S
Cd212 O213 2.240 . S
Cd212 O220 2.223 . S
Cd212 O222 2.297 . S
Cd212 O223 2.439 . S
O213 Cd212 2.240 . S
O213 C218 1.279 . S
O214 Cd211 2.297 . S
O214 C216 1.247 . S
O215 Cd211 2.439 . S
O215 C216 1.208 . S
C216 O214 1.247 . S
C216 O215 1.208 . S
C217 O222 1.247 . S
C217 O223 1.208 . S
C218 O210 1.315 . S
C218 O213 1.279 . S
C219 O220 1.315 . S
C219 O221 1.279 . S
O220 Cd212 2.223 . S
O220 C219 1.315 . S
O221 Cd211 2.240 . S
O221 C219 1.279 . S
O222 Cd212 2.297 . S
O222 C217 1.247 . S
O223 Cd212 2.439 . S
O223 C217 1.208 . S
O224 Cd225 2.224 . S
O224 C232 1.315 . S
Cd225 O224 2.224 . S
Cd225 O228 2.297 . S
Cd225 O229 2.439 . S
Cd225 O235 2.240 1_545 S
Cd226 O227 2.240 1_565 S
Cd226 O234 2.223 . S
Cd226 O236 2.297 . S
Cd226 O237 2.439 1_565 S
O227 Cd226 2.240 1_545 S
O227 C232 1.279 . S
O228 Cd225 2.297 . S
O228 C230 1.247 . S
O229 Cd225 2.439 . S
O229 C230 1.208 . S
C230 O228 1.247 . S
C230 O229 1.208 . S
C231 O236 1.247 . S
C231 O237 1.208 1_565 S
C232 O224 1.315 . S
C232 O227 1.279 . S
C233 O234 1.315 . S
C233 O235 1.279 . S
O234 Cd226 2.223 . S
O234 C233 1.315 . S
O235 Cd225 2.240 1_565 S
O235 C233 1.279 . S
O236 Cd226 2.297 . S
O236 C231 1.247 . S
O237 Cd226 2.439 1_545 S
O237 C231 1.208 1_545 S
O238 Cd239 2.223 . S
O238 C246 1.315 . S
Cd239 O238 2.223 . S
Cd239 O242 2.297 . S
Cd239 O243 2.439 . S
Cd239 O249 2.240 . S
Cd240 O241 2.240 . S
Cd240 O248 2.223 . S
Cd240 O250 2.297 . S
Cd240 O251 2.439 . S
O241 Cd240 2.240 . S
O241 C246 1.279 . S
O242 Cd239 2.297 . S
O242 C244 1.247 . S
O243 Cd239 2.439 . S
O243 C244 1.208 . S
C244 O242 1.247 . S
C244 O243 1.208 . S
C245 O250 1.247 . S
C245 O251 1.208 . S
C246 O238 1.315 . S
C246 O241 1.279 . S
C247 O248 1.315 . S
C247 O249 1.279 . S
O248 Cd240 2.223 . S
O248 C247 1.315 . S
O249 Cd239 2.240 . S
O249 C247 1.279 . S
O250 Cd240 2.297 . S
O250 C245 1.247 . S
O251 Cd240 2.439 . S
O251 C245 1.208 . S
O252 Cd253 2.223 . S
O252 C260 1.315 . S
Cd253 O252 2.223 . S
Cd253 O256 2.297 1_545 S
Cd253 O257 2.439 1_545 S
Cd253 O263 2.240 . S
Cd254 O255 2.240 . S
Cd254 O262 2.223 . S
Cd254 O264 2.297 . S
Cd254 O265 2.439 . S
O255 Cd254 2.240 . S
O255 C260 1.279 . S
O256 Cd253 2.297 1_565 S
O256 C258 1.247 . S
O257 Cd253 2.439 1_565 S
O257 C258 1.208 . S
C258 O256 1.247 . S
C258 O257 1.208 . S
C259 O264 1.247 . S
C259 O265 1.208 . S
C260 O252 1.315 . S
C260 O255 1.279 . S
C261 O262 1.315 . S
C261 O263 1.279 . S
O262 Cd254 2.223 . S
O262 C261 1.315 . S
O263 Cd253 2.240 . S
O263 C261 1.279 . S
O264 Cd254 2.297 . S
O264 C259 1.247 . S
O265 Cd254 2.439 . S
O265 C259 1.208 . S
O266 Cd267 2.223 . S
O266 C274 1.315 . S
Cd267 O266 2.223 . S
Cd267 O270 2.297 . S
Cd267 O271 2.439 1_554 S
Cd267 O277 2.240 1_554 S
Cd268 O269 2.240 1_556 S
Cd268 O276 2.223 1_556 S
Cd268 O278 2.297 . S
Cd268 O279 2.439 . S
O269 Cd268 2.240 1_554 S
O269 C274 1.279 . S
O270 Cd267 2.297 . S
O270 C272 1.247 . S
O271 Cd267 2.439 1_556 S
O271 C272 1.208 1_556 S
C272 O270 1.247 . S
C272 O271 1.208 1_554 S
C273 O278 1.247 . S
C273 O279 1.208 . S
C274 O266 1.315 . S
C274 O269 1.279 . S
C275 O276 1.315 . S
C275 O277 1.279 1_554 S
O276 Cd268 2.223 1_554 S
O276 C275 1.315 . S
O277 Cd267 2.240 1_556 S
O277 C275 1.279 1_556 S
O278 Cd268 2.297 . S
O278 C273 1.247 . S
O279 Cd268 2.439 . S
O279 C273 1.208 . S
O280 Cd281 2.223 . S
O280 C288 1.315 . S
Cd281 O280 2.223 . S
Cd281 O284 2.297 . S
Cd281 O285 2.439 1_554 S
Cd281 O291 2.240 1_554 S
Cd282 O283 2.240 1_556 S
Cd282 O290 2.223 1_556 S
Cd282 O292 2.297 . S
Cd282 O293 2.439 . S
O283 Cd282 2.240 1_554 S
O283 C288 1.279 . S
O284 Cd281 2.297 . S
O284 C286 1.247 . S
O285 Cd281 2.439 1_556 S
O285 C286 1.208 1_556 S
C286 O284 1.247 . S
C286 O285 1.208 1_554 S
C287 O292 1.247 . S
C287 O293 1.208 . S
C288 O280 1.315 . S
C288 O283 1.279 . S
C289 O290 1.315 . S
C289 O291 1.279 1_554 S
O290 Cd282 2.223 1_554 S
O290 C289 1.315 . S
O291 Cd281 2.240 1_556 S
O291 C289 1.279 1_556 S
O292 Cd282 2.297 . S
O292 C287 1.247 . S
O293 Cd282 2.439 . S
O293 C287 1.208 . S
O294 Cd295 2.223 . S
O294 C302 1.315 . S
Cd295 O294 2.223 . S
Cd295 O298 2.297 . S
Cd295 O299 2.439 . S
Cd295 O305 2.240 . S
Cd296 O297 2.240 . S
Cd296 O304 2.223 . S
Cd296 O306 2.297 . S
Cd296 O307 2.439 . S
O297 Cd296 2.240 . S
O297 C302 1.279 . S
O298 Cd295 2.297 . S
O298 C300 1.247 . S
O299 Cd295 2.439 . S
O299 C300 1.208 . S
C300 O298 1.247 . S
C300 O299 1.208 . S
C301 O306 1.247 . S
C301 O307 1.208 . S
C302 O294 1.315 . S
C302 O297 1.279 . S
C303 O304 1.315 . S
C303 O305 1.279 . S
O304 Cd296 2.223 . S
O304 C303 1.315 . S
O305 Cd295 2.240 . S
O305 C303 1.279 . S
O306 Cd296 2.297 . S
O306 C301 1.247 . S
O307 Cd296 2.439 . S
O307 C301 1.208 . S
O308 Cd309 2.223 . S
O308 C316 1.315 . S
Cd309 O308 2.223 . S
Cd309 O312 2.297 . S
Cd309 O313 2.439 . S
Cd309 O319 2.240 . S
Cd310 O311 2.240 . S
Cd310 O318 2.223 . S
Cd310 O320 2.297 . S
Cd310 O321 2.439 . S
O311 Cd310 2.240 . S
O311 C316 1.279 . S
O312 Cd309 2.297 . S
O312 C314 1.247 . S
O313 Cd309 2.439 . S
O313 C314 1.208 . S
C314 O312 1.247 . S
C314 O313 1.208 . S
C315 O320 1.247 . S
C315 O321 1.208 . S
C316 O308 1.315 . S
C316 O311 1.279 . S
C317 O318 1.315 . S
C317 O319 1.279 . S
O318 Cd310 2.223 . S
O318 C317 1.315 . S
O319 Cd309 2.240 . S
O319 C317 1.279 . S
O320 Cd310 2.297 . S
O320 C315 1.247 . S
O321 Cd310 2.439 . S
O321 C315 1.208 . S
O322 Cd323 2.223 . S
O322 C330 1.315 . S
Cd323 O322 2.223 . S
Cd323 O326 2.297 . S
Cd323 O327 2.439 . S
Cd323 O333 2.240 . S
Cd324 O325 2.240 . S
Cd324 O332 2.223 . S
Cd324 O334 2.297 . S
Cd324 O335 2.439 . S
O325 Cd324 2.240 . S
O325 C330 1.279 . S
O326 Cd323 2.297 . S
O326 C328 1.247 . S
O327 Cd323 2.439 . S
O327 C328 1.208 . S
C328 O326 1.247 . S
C328 O327 1.208 . S
C329 O334 1.247 . S
C329 O335 1.208 . S
C330 O322 1.315 . S
C330 O325 1.279 . S
C331 O332 1.315 . S
C331 O333 1.279 . S
O332 Cd324 2.223 . S
O332 C331 1.315 . S
O333 Cd323 2.240 . S
O333 C331 1.279 . S
O334 Cd324 2.297 . S
O334 C329 1.247 . S
O335 Cd324 2.439 . S
O335 C329 1.208 . S
O336 Mg337 1.990 1_556 S
O336 C350 1.253 . S
Mg337 O336 1.990 1_554 S
Mg337 O340 2.180 . S
Mg337 O341 2.117 . S
Mg337 O355 2.030 . S
O338 Mg339 2.070 1_546 S
O338 C350 1.283 1_455 S
Mg339 O338 2.070 1_564 S
Mg339 O340 2.095 1_465 S
Mg339 O342 2.079 . S
Mg339 O343 2.070 1_565 S
Mg339 O345 2.103 . S
Mg339 O356 2.080 1_455 S
O340 Mg337 2.180 . S
O340 Mg339 2.095 1_645 S
O340 C351 1.281 . S
O341 Mg337 2.117 . S
O341 C351 1.267 . S
O342 Mg339 2.079 . S
O342 C352 1.264 . S
O343 Mg339 2.070 1_545 S
O343 C353 1.260 . S
Mg344 O345 2.180 . S
Mg344 O346 2.030 . S
Mg344 O347 1.990 . S
Mg344 O348 2.117 1_554 S
O345 Mg339 2.103 . S
O345 Mg344 2.180 . S
O345 C354 1.279 1_554 S
O346 Mg344 2.030 . S
O346 C352 1.248 . S
O347 Mg344 1.990 . S
O347 C353 1.253 1_565 S
O348 Mg344 2.117 1_556 S
O348 C354 1.250 . S
C349 O355 1.248 1_565 S
C349 O356 1.264 . S
C350 O336 1.253 . S
C350 O338 1.283 1_655 S
C351 O340 1.281 . S
C351 O341 1.267 . S
C352 O342 1.264 . S
C352 O346 1.248 . S
C353 O343 1.260 . S
C353 O347 1.253 1_545 S
C354 O345 1.279 1_556 S
C354 O348 1.250 . S
O355 Mg337 2.030 . S
O355 C349 1.248 1_545 S
O356 Mg339 2.080 1_655 S
O356 C349 1.264 . S
O357 Mg358 1.990 . S
O357 C371 1.253 . S
Mg358 O357 1.990 . S
Mg358 O361 2.180 . S
Mg358 O362 2.117 . S
Mg358 O376 2.030 . S
O359 Mg360 2.072 . S
O359 C371 1.260 . S
Mg360 O359 2.072 . S
Mg360 O361 2.099 . S
Mg360 O363 2.079 . S
Mg360 O364 2.072 . S
Mg360 O366 2.099 . S
Mg360 O377 2.079 . S
O361 Mg358 2.180 . S
O361 Mg360 2.099 . S
O361 C372 1.279 . S
O362 Mg358 2.117 . S
O362 C372 1.250 . S
O363 Mg360 2.079 . S
O363 C373 1.264 . S
O364 Mg360 2.072 . S
O364 C374 1.260 . S
Mg365 O366 2.180 . S
Mg365 O367 2.030 . S
Mg365 O368 1.990 . S
Mg365 O369 2.117 . S
O366 Mg360 2.099 . S
O366 Mg365 2.180 . S
O366 C375 1.279 . S
O367 Mg365 2.030 . S
O367 C373 1.248 . S
O368 Mg365 1.990 . S
O368 C374 1.253 . S
O369 Mg365 2.117 . S
O369 C375 1.250 . S
C370 O376 1.248 . S
C370 O377 1.264 . S
C371 O357 1.253 . S
C371 O359 1.260 . S
C372 O361 1.279 . S
C372 O362 1.250 . S
C373 O363 1.264 . S
C373 O367 1.248 . S
C374 O364 1.260 . S
C374 O368 1.253 . S
C375 O366 1.279 . S
C375 O369 1.250 . S
O376 Mg358 2.030 . S
O376 C370 1.248 . S
O377 Mg360 2.079 . S
O377 C370 1.264 . S
O378 Mg379 1.990 . S
O378 C392 1.253 1_565 S
Mg379 O378 1.990 . S
Mg379 O382 2.180 . S
Mg379 O383 2.117 . S
Mg379 O397 2.030 1_565 S
O380 Mg381 2.072 . S
O380 C392 1.260 . S
Mg381 O380 2.072 . S
Mg381 O382 2.099 1_545 S
Mg381 O384 2.079 . S
Mg381 O385 2.070 1_545 S
Mg381 O387 2.099 . S
Mg381 O398 2.079 . S
O382 Mg379 2.180 . S
O382 Mg381 2.099 1_565 S
O382 C393 1.279 . S
O383 Mg379 2.117 . S
O383 C393 1.250 . S
O384 Mg381 2.079 . S
O384 C394 1.264 . S
O385 Mg381 2.070 1_565 S
O385 C395 1.259 1_565 S
Mg386 O387 2.180 . S
Mg386 O388 2.030 . S
Mg386 O389 1.990 . S
Mg386 O390 2.117 . S
O387 Mg381 2.099 . S
O387 Mg386 2.180 . S
O387 C396 1.279 . S
O388 Mg386 2.030 . S
O388 C394 1.248 . S
O389 Mg386 1.990 . S
O389 C395 1.253 . S
O390 Mg386 2.117 . S
O390 C396 1.250 . S
C391 O397 1.248 . S
C391 O398 1.264 . S
C392 O378 1.253 1_545 S
C392 O380 1.260 . S
C393 O382 1.279 . S
C393 O383 1.250 . S
C394 O384 1.264 . S
C394 O388 1.248 . S
C395 O385 1.259 1_545 S
C395 O389 1.253 . S
C396 O387 1.279 . S
C396 O390 1.250 . S
O397 Mg379 2.030 1_545 S
O397 C391 1.248 . S
O398 Mg381 2.079 . S
O398 C391 1.264 . S
O399 Mg400 1.990 . S
O399 C413 1.253 . S
Mg400 O399 1.990 . S
Mg400 O403 2.180 . S
Mg400 O404 2.117 . S
Mg400 O418 2.030 . S
O401 Mg402 2.072 . S
O401 C413 1.260 . S
Mg402 O401 2.072 . S
Mg402 O403 2.099 . S
Mg402 O405 2.079 . S
Mg402 O406 2.072 . S
Mg402 O408 2.099 . S
Mg402 O419 2.079 . S
O403 Mg400 2.180 . S
O403 Mg402 2.099 . S
O403 C414 1.279 . S
O404 Mg400 2.117 . S
O404 C414 1.250 . S
O405 Mg402 2.079 . S
O405 C415 1.264 . S
O406 Mg402 2.072 . S
O406 C416 1.260 . S
Mg407 O408 2.180 . S
Mg407 O409 2.030 . S
Mg407 O410 1.990 . S
Mg407 O411 2.117 . S
O408 Mg402 2.099 . S
O408 Mg407 2.180 . S
O408 C417 1.279 . S
O409 Mg407 2.030 . S
O409 C415 1.248 . S
O410 Mg407 1.990 . S
O410 C416 1.253 . S
O411 Mg407 2.117 . S
O411 C417 1.250 . S
C412 O418 1.248 . S
C412 O419 1.264 . S
C413 O399 1.253 . S
C413 O401 1.260 . S
C414 O403 1.279 . S
C414 O404 1.250 . S
C415 O405 1.264 . S
C415 O409 1.248 . S
C416 O406 1.260 . S
C416 O410 1.253 . S
C417 O408 1.279 . S
C417 O411 1.250 . S
O418 Mg400 2.030 . S
O418 C412 1.248 . S
O419 Mg402 2.079 . S
O419 C412 1.264 . S
O420 Mg421 1.990 1_655 S
O420 C434 1.253 . S
Mg421 O420 1.990 1_455 S
Mg421 O424 2.180 1_455 S
Mg421 O425 2.117 1_455 S
Mg421 O439 2.030 . S
O422 Mg423 2.068 1_665 S
O422 C434 1.264 . S
Mg423 O422 2.068 1_445 S
Mg423 O424 2.099 1_445 S
Mg423 O426 2.079 . S
Mg423 O427 2.072 1_455 S
Mg423 O429 2.099 . S
Mg423 O440 2.080 . S
O424 Mg421 2.180 1_655 S
O424 Mg423 2.099 1_665 S
O424 C435 1.279 . S
O425 Mg421 2.117 1_655 S
O425 C435 1.250 . S
O426 Mg423 2.079 . S
O426 C436 1.264 . S
O427 Mg423 2.072 1_655 S
O427 C437 1.260 . S
Mg428 O429 2.180 1_655 S
Mg428 O430 2.030 1_655 S
Mg428 O431 1.990 . S
Mg428 O432 2.117 1_655 S
O429 Mg423 2.099 . S
O429 Mg428 2.180 1_455 S
O429 C438 1.279 . S
O430 Mg428 2.030 1_455 S
O430 C436 1.248 . S
O431 Mg428 1.990 . S
O431 C437 1.253 . S
O432 Mg428 2.117 1_455 S
O432 C438 1.250 . S
C433 O439 1.248 . S
C433 O440 1.260 1_565 S
C434 O420 1.253 . S
C434 O422 1.264 . S
C435 O424 1.279 . S
C435 O425 1.250 . S
C436 O426 1.264 . S
C436 O430 1.248 . S
C437 O427 1.260 . S
C437 O431 1.253 . S
C438 O429 1.279 . S
C438 O432 1.250 . S
O439 Mg421 2.030 . S
O439 C433 1.248 . S
O440 Mg423 2.080 . S
O440 C433 1.260 1_545 S
O441 Mg442 1.990 . S
O441 C455 1.253 . S
Mg442 O441 1.990 . S
Mg442 O445 2.180 . S
Mg442 O446 2.117 . S
Mg442 O460 2.030 . S
O443 Mg444 2.072 . S
O443 C455 1.260 . S
Mg444 O443 2.072 . S
Mg444 O445 2.099 . S
Mg444 O447 2.079 . S
Mg444 O448 2.072 . S
Mg444 O450 2.099 . S
Mg444 O461 2.079 . S
O445 Mg442 2.180 . S
O445 Mg444 2.099 . S
O445 C456 1.279 . S
O446 Mg442 2.117 . S
O446 C456 1.250 . S
O447 Mg444 2.079 . S
O447 C457 1.264 . S
O448 Mg444 2.072 . S
O448 C458 1.260 . S
Mg449 O450 2.180 . S
Mg449 O451 2.030 . S
Mg449 O452 1.990 . S
Mg449 O453 2.117 . S
O450 Mg444 2.099 . S
O450 Mg449 2.180 . S
O450 C459 1.279 . S
O451 Mg449 2.030 . S
O451 C457 1.248 . S
O452 Mg449 1.990 . S
O452 C458 1.253 . S
O453 Mg449 2.117 . S
O453 C459 1.250 . S
C454 O460 1.248 . S
C454 O461 1.264 . S
C455 O441 1.253 . S
C455 O443 1.260 . S
C456 O445 1.279 . S
C456 O446 1.250 . S
C457 O447 1.264 . S
C457 O451 1.248 . S
C458 O448 1.260 . S
C458 O452 1.253 . S
C459 O450 1.279 . S
C459 O453 1.250 . S
O460 Mg442 2.030 . S
O460 C454 1.248 . S
O461 Mg444 2.079 . S
O461 C454 1.264 . S
O462 Mg463 1.990 1_565 S
O462 C476 1.253 . S
Mg463 O462 1.990 1_545 S
Mg463 O466 2.180 . S
Mg463 O467 2.117 . S
Mg463 O481 2.030 . S
O464 Mg465 2.072 1_565 S
O464 C476 1.260 . S
Mg465 O464 2.072 1_545 S
Mg465 O466 2.099 . S
Mg465 O468 2.079 . S
Mg465 O469 2.072 1_554 S
Mg465 O471 2.099 1_554 S
Mg465 O482 2.079 . S
O466 Mg463 2.180 . S
O466 Mg465 2.099 . S
O466 C477 1.279 . S
O467 Mg463 2.117 . S
O467 C477 1.250 . S
O468 Mg465 2.079 . S
O468 C478 1.264 1_554 S
O469 Mg465 2.072 1_556 S
O469 C479 1.260 . S
Mg470 O471 2.180 . S
Mg470 O472 2.030 . S
Mg470 O473 1.990 . S
Mg470 O474 2.117 1_545 S
O471 Mg465 2.099 1_556 S
O471 Mg470 2.180 . S
O471 C480 1.279 1_545 S
O472 Mg470 2.030 . S
O472 C478 1.248 . S
O473 Mg470 1.990 . S
O473 C479 1.253 . S
O474 Mg470 2.117 1_565 S
O474 C480 1.250 . S
C475 O481 1.248 . S
C475 O482 1.264 . S
C476 O462 1.253 . S
C476 O464 1.260 . S
C477 O466 1.279 . S
C477 O467 1.250 . S
C478 O468 1.264 1_556 S
C478 O472 1.248 . S
C479 O469 1.260 . S
C479 O473 1.253 . S
C480 O471 1.279 1_565 S
C480 O474 1.250 . S
O481 Mg463 2.030 . S
O481 C475 1.248 . S
O482 Mg465 2.079 . S
O482 C475 1.264 . S
O483 Mg484 1.990 . S
O483 C497 1.253 . S
Mg484 O483 1.990 . S
Mg484 O487 2.180 . S
Mg484 O488 2.117 . S
Mg484 O502 2.030 . S
O485 Mg486 2.072 . S
O485 C497 1.260 . S
Mg486 O485 2.072 . S
Mg486 O487 2.099 . S
Mg486 O489 2.079 . S
Mg486 O490 2.072 . S
Mg486 O492 2.099 . S
Mg486 O503 2.079 . S
O487 Mg484 2.180 . S
O487 Mg486 2.099 . S
O487 C498 1.279 . S
O488 Mg484 2.117 . S
O488 C498 1.250 . S
O489 Mg486 2.079 . S
O489 C499 1.264 . S
O490 Mg486 2.072 . S
O490 C500 1.260 . S
Mg491 O492 2.180 . S
Mg491 O493 2.030 . S
Mg491 O494 1.990 . S
Mg491 O495 2.117 . S
O492 Mg486 2.099 . S
O492 Mg491 2.180 . S
O492 C501 1.279 . S
O493 Mg491 2.030 . S
O493 C499 1.248 . S
O494 Mg491 1.990 . S
O494 C500 1.253 . S
O495 Mg491 2.117 . S
O495 C501 1.250 . S
C496 O502 1.248 . S
C496 O503 1.264 . S
C497 O483 1.253 . S
C497 O485 1.260 . S
C498 O487 1.279 . S
C498 O488 1.250 . S
C499 O489 1.264 . S
C499 O493 1.248 . S
C500 O490 1.260 . S
C500 O494 1.253 . S
C501 O492 1.279 . S
C501 O495 1.250 . S
O502 Mg484 2.030 . S
O502 C496 1.248 . S
O503 Mg486 2.079 . S
O503 C496 1.264 . S
O504 Mg505 1.990 . S
O504 C518 1.253 1_556 S
Mg505 O504 1.990 . S
Mg505 O508 2.180 . S
Mg505 O509 2.117 . S
Mg505 O523 2.030 1_556 S
O506 Mg507 2.072 . S
O506 C518 1.260 . S
Mg507 O506 2.072 . S
Mg507 O508 2.099 1_554 S
Mg507 O510 2.079 . S
Mg507 O511 2.079 . S
Mg507 O513 2.099 . S
Mg507 O524 2.079 . S
O508 Mg505 2.180 . S
O508 Mg507 2.099 1_556 S
O508 C519 1.279 . S
O509 Mg505 2.117 . S
O509 C519 1.250 . S
O510 Mg507 2.079 . S
O510 C520 1.264 . S
O511 Mg507 2.079 . S
O511 C521 1.262 . S
Mg512 O513 2.180 . S
Mg512 O514 2.030 . S
Mg512 O515 1.990 . S
Mg512 O516 2.117 . S
O513 Mg507 2.099 . S
O513 Mg512 2.180 . S
O513 C522 1.279 . S
O514 Mg512 2.030 . S
O514 C520 1.248 . S
O515 Mg512 1.990 . S
O515 C521 1.253 . S
O516 Mg512 2.117 . S
O516 C522 1.250 . S
C517 O523 1.248 . S
C517 O524 1.264 . S
C518 O504 1.253 1_554 S
C518 O506 1.260 . S
C519 O508 1.279 . S
C519 O509 1.250 . S
C520 O510 1.264 . S
C520 O514 1.248 . S
C521 O511 1.262 . S
C521 O515 1.253 . S
C522 O513 1.279 . S
C522 O516 1.250 . S
O523 Mg505 2.030 1_554 S
O523 C517 1.248 . S
O524 Mg507 2.079 . S
O524 C517 1.264 . S
O525 Mg526 1.990 . S
O525 C539 1.253 . S
Mg526 O525 1.990 . S
Mg526 O529 2.180 . S
Mg526 O530 2.117 . S
Mg526 O544 2.030 . S
O527 Mg528 2.072 . S
O527 C539 1.260 . S
Mg528 O527 2.072 . S
Mg528 O529 2.099 . S
Mg528 O531 2.079 . S
Mg528 O532 2.072 . S
Mg528 O534 2.099 . S
Mg528 O545 2.079 . S
O529 Mg526 2.180 . S
O529 Mg528 2.099 . S
O529 C540 1.279 . S
O530 Mg526 2.117 . S
O530 C540 1.250 . S
O531 Mg528 2.079 . S
O531 C541 1.264 . S
O532 Mg528 2.072 . S
O532 C542 1.260 . S
Mg533 O534 2.180 . S
Mg533 O535 2.030 . S
Mg533 O536 1.990 . S
Mg533 O537 2.117 . S
O534 Mg528 2.099 . S
O534 Mg533 2.180 . S
O534 C543 1.279 . S
O535 Mg533 2.030 . S
O535 C541 1.248 . S
O536 Mg533 1.990 . S
O536 C542 1.253 . S
O537 Mg533 2.117 . S
O537 C543 1.250 . S
C538 O544 1.248 . S
C538 O545 1.264 . S
C539 O525 1.253 . S
C539 O527 1.260 . S
C540 O529 1.279 . S
C540 O530 1.250 . S
C541 O531 1.264 . S
C541 O535 1.248 . S
C542 O532 1.260 . S
C542 O536 1.253 . S
C543 O534 1.279 . S
C543 O537 1.250 . S
O544 Mg526 2.030 . S
O544 C538 1.248 . S
O545 Mg528 2.079 . S
O545 C538 1.264 . S
O546 Mg547 1.990 . S
O546 C560 1.253 . S
Mg547 O546 1.990 . S
Mg547 O550 2.180 . S
Mg547 O551 2.117 . S
Mg547 O565 2.030 1_655 S
O548 Mg549 2.072 . S
O548 C560 1.260 1_455 S
Mg549 O548 2.072 . S
Mg549 O550 2.099 1_455 S
Mg549 O552 2.079 . S
Mg549 O553 2.072 1_455 S
Mg549 O555 2.099 . S
Mg549 O566 2.079 . S
O550 Mg547 2.180 . S
O550 Mg549 2.099 1_655 S
O550 C561 1.279 . S
O551 Mg547 2.117 . S
O551 C561 1.250 . S
O552 Mg549 2.079 . S
O552 C562 1.264 . S
O553 Mg549 2.072 1_655 S
O553 C563 1.260 . S
Mg554 O555 2.180 . S
Mg554 O556 2.030 . S
Mg554 O557 1.990 . S
Mg554 O558 2.117 . S
O555 Mg549 2.099 . S
O555 Mg554 2.180 . S
O555 C564 1.279 . S
O556 Mg554 2.030 . S
O556 C562 1.248 . S
O557 Mg554 1.990 . S
O557 C563 1.253 1_455 S
O558 Mg554 2.117 . S
O558 C564 1.250 . S
C559 O565 1.248 . S
C559 O566 1.264 . S
C560 O546 1.253 . S
C560 O548 1.260 1_655 S
C561 O550 1.279 . S
C561 O551 1.250 . S
C562 O552 1.264 . S
C562 O556 1.248 . S
C563 O553 1.260 . S
C563 O557 1.253 1_655 S
C564 O555 1.279 . S
C564 O558 1.250 . S
O565 Mg547 2.030 1_455 S
O565 C559 1.248 . S
O566 Mg549 2.079 . S
O566 C559 1.264 . S
O567 Mg568 1.990 . S
O567 C581 1.253 . S
Mg568 O567 1.990 . S
Mg568 O571 2.180 . S
Mg568 O572 2.117 . S
Mg568 O586 2.030 . S
O569 Mg570 2.072 . S
O569 C581 1.260 . S
Mg570 O569 2.072 . S
Mg570 O571 2.099 . S
Mg570 O573 2.079 . S
Mg570 O574 2.072 . S
Mg570 O576 2.099 . S
Mg570 O587 2.079 . S
O571 Mg568 2.180 . S
O571 Mg570 2.099 . S
O571 C582 1.279 . S
O572 Mg568 2.117 . S
O572 C582 1.250 . S
O573 Mg570 2.079 . S
O573 C583 1.264 . S
O574 Mg570 2.072 . S
O574 C584 1.260 . S
Mg575 O576 2.180 . S
Mg575 O577 2.030 . S
Mg575 O578 1.990 . S
Mg575 O579 2.117 . S
O576 Mg570 2.099 . S
O576 Mg575 2.180 . S
O576 C585 1.279 . S
O577 Mg575 2.030 . S
O577 C583 1.248 . S
O578 Mg575 1.990 . S
O578 C584 1.253 . S
O579 Mg575 2.117 . S
O579 C585 1.250 . S
C580 O586 1.248 . S
C580 O587 1.264 . S
C581 O567 1.253 . S
C581 O569 1.260 . S
C582 O571 1.279 . S
C582 O572 1.250 . S
C583 O573 1.264 . S
C583 O577 1.248 . S
C584 O574 1.260 . S
C584 O578 1.253 . S
C585 O576 1.279 . S
C585 O579 1.250 . S
O586 Mg568 2.030 . S
O586 C580 1.248 . S
O587 Mg570 2.079 . S
O587 C580 1.264 . S
O588 Mg589 1.990 . S
O588 C602 1.253 . S
Mg589 O588 1.990 . S
Mg589 O592 2.180 . S
Mg589 O593 2.117 . S
Mg589 O607 2.030 . S
O590 Mg591 2.072 . S
O590 C602 1.260 . S
Mg591 O590 2.072 . S
Mg591 O592 2.099 . S
Mg591 O594 2.079 . S
Mg591 O595 2.072 . S
Mg591 O597 2.099 . S
Mg591 O608 2.079 . S
O592 Mg589 2.180 . S
O592 Mg591 2.099 . S
O592 C603 1.279 . S
O593 Mg589 2.117 . S
O593 C603 1.250 . S
O594 Mg591 2.079 . S
O594 C604 1.264 . S
O595 Mg591 2.072 . S
O595 C605 1.260 . S
Mg596 O597 2.180 . S
Mg596 O598 2.030 . S
Mg596 O599 1.990 . S
Mg596 O600 2.117 . S
O597 Mg591 2.099 . S
O597 Mg596 2.180 . S
O597 C606 1.279 . S
O598 Mg596 2.030 . S
O598 C604 1.248 . S
O599 Mg596 1.990 . S
O599 C605 1.253 . S
O600 Mg596 2.117 . S
O600 C606 1.250 . S
C601 O607 1.248 . S
C601 O608 1.264 . S
C602 O588 1.253 . S
C602 O590 1.260 . S
C603 O592 1.279 . S
C603 O593 1.250 . S
C604 O594 1.264 . S
C604 O598 1.248 . S
C605 O595 1.260 . S
C605 O599 1.253 . S
C606 O597 1.279 . S
C606 O600 1.250 . S
O607 Mg589 2.030 . S
O607 C601 1.248 . S
O608 Mg591 2.079 . S
O608 C601 1.264 . S
O609 Mg610 1.990 . S
O609 C623 1.253 . S
Mg610 O609 1.990 . S
Mg610 O613 2.180 . S
Mg610 O614 2.117 . S
Mg610 O628 2.030 . S
O611 Mg612 2.072 . S
O611 C623 1.260 . S
Mg612 O611 2.072 . S
Mg612 O613 2.099 . S
Mg612 O615 2.079 . S
Mg612 O616 2.072 . S
Mg612 O618 2.099 . S
Mg612 O629 2.079 . S
O613 Mg610 2.180 . S
O613 Mg612 2.099 . S
O613 C624 1.279 . S
O614 Mg610 2.117 . S
O614 C624 1.250 . S
O615 Mg612 2.079 . S
O615 C625 1.264 . S
O616 Mg612 2.072 . S
O616 C626 1.260 . S
Mg617 O618 2.180 . S
Mg617 O619 2.030 . S
Mg617 O620 1.990 . S
Mg617 O621 2.117 . S
O618 Mg612 2.099 . S
O618 Mg617 2.180 . S
O618 C627 1.279 . S
O619 Mg617 2.030 . S
O619 C625 1.248 . S
O620 Mg617 1.990 . S
O620 C626 1.253 . S
O621 Mg617 2.117 . S
O621 C627 1.250 . S
C622 O628 1.248 . S
C622 O629 1.264 . S
C623 O609 1.253 . S
C623 O611 1.260 . S
C624 O613 1.279 . S
C624 O614 1.250 . S
C625 O615 1.264 . S
C625 O619 1.248 . S
C626 O616 1.260 . S
C626 O620 1.253 . S
C627 O618 1.279 . S
C627 O621 1.250 . S
O628 Mg610 2.030 . S
O628 C622 1.248 . S
O629 Mg612 2.079 . S
O629 C622 1.264 . S
O630 Mg631 1.990 . S
O630 C644 1.253 . S
Mg631 O630 1.990 . S
Mg631 O634 2.180 . S
Mg631 O635 2.117 . S
Mg631 O649 2.030 . S
O632 Mg633 2.072 . S
O632 C644 1.260 . S
Mg633 O632 2.072 . S
Mg633 O634 2.099 . S
Mg633 O636 2.079 . S
Mg633 O637 2.072 . S
Mg633 O639 2.099 . S
Mg633 O650 2.079 . S
O634 Mg631 2.180 . S
O634 Mg633 2.099 . S
O634 C645 1.279 . S
O635 Mg631 2.117 . S
O635 C645 1.250 . S
O636 Mg633 2.079 . S
O636 C646 1.264 . S
O637 Mg633 2.072 . S
O637 C647 1.260 . S
Mg638 O639 2.180 . S
Mg638 O640 2.030 . S
Mg638 O641 1.990 . S
Mg638 O642 2.117 . S
O639 Mg633 2.099 . S
O639 Mg638 2.180 . S
O639 C648 1.279 . S
O640 Mg638 2.030 . S
O640 C646 1.248 . S
O641 Mg638 1.990 . S
O641 C647 1.253 . S
O642 Mg638 2.117 . S
O642 C648 1.250 . S
C643 O649 1.248 . S
C643 O650 1.264 . S
C644 O630 1.253 . S
C644 O632 1.260 . S
C645 O634 1.279 . S
C645 O635 1.250 . S
C646 O636 1.264 . S
C646 O640 1.248 . S
C647 O637 1.260 . S
C647 O641 1.253 . S
C648 O639 1.279 . S
C648 O642 1.250 . S
O649 Mg631 2.030 . S
O649 C643 1.248 . S
O650 Mg633 2.079 . S
O650 C643 1.264 . S
O651 Mg652 1.990 1_556 S
O651 C665 1.253 . S
Mg652 O651 1.990 1_554 S
Mg652 O655 2.180 . S
Mg652 O656 2.117 . S
Mg652 O670 2.030 . S
O653 Mg654 2.072 1_556 S
O653 C665 1.260 . S
Mg654 O653 2.072 1_554 S
Mg654 O655 2.099 . S
Mg654 O657 2.079 . S
Mg654 O658 2.072 1_455 S
Mg654 O660 2.099 1_455 S
Mg654 O671 2.079 . S
O655 Mg652 2.180 . S
O655 Mg654 2.099 . S
O655 C666 1.279 . S
O656 Mg652 2.117 . S
O656 C666 1.250 . S
O657 Mg654 2.079 . S
O657 C667 1.264 1_455 S
O658 Mg654 2.072 1_655 S
O658 C668 1.260 . S
Mg659 O660 2.180 . S
Mg659 O661 2.030 . S
Mg659 O662 1.990 . S
Mg659 O663 2.117 1_554 S
O660 Mg654 2.099 1_655 S
O660 Mg659 2.180 . S
O660 C669 1.279 1_554 S
O661 Mg659 2.030 . S
O661 C667 1.248 . S
O662 Mg659 1.990 . S
O662 C668 1.253 . S
O663 Mg659 2.117 1_556 S
O663 C669 1.250 . S
C664 O670 1.248 . S
C664 O671 1.264 . S
C665 O651 1.253 . S
C665 O653 1.260 . S
C666 O655 1.279 . S
C666 O656 1.250 . S
C667 O657 1.264 1_655 S
C667 O661 1.248 . S
C668 O658 1.260 . S
C668 O662 1.253 . S
C669 O660 1.279 1_556 S
C669 O663 1.250 . S
O670 Mg652 2.030 . S
O670 C664 1.248 . S
O671 Mg654 2.079 . S
O671 C664 1.264 . S
H672 C684 0.930 . S
H673 C686 0.930 . S
H674 C687 0.930 . S
H675 C691 0.959 . S
H676 C691 0.959 . S
H677 C691 0.961 . S
H678 C692 0.960 . S
H679 C692 0.961 . S
H680 C692 0.959 . S
H681 C695 0.929 . S
H682 C696 0.931 . S
H683 C698 0.930 . S
C684 H672 0.930 . S
C684 C685 1.399 . S
C684 C689 1.399 . S
C685 C684 1.399 . S
C685 C686 1.376 1_455 S
C686 H673 0.930 . S
C686 C685 1.376 1_655 S
C686 C687 1.388 . S
C687 H674 0.930 . S
C687 C686 1.388 . S
C687 C688 1.390 . S
C688 C687 1.390 . S
C688 C689 1.394 1_655 S
C688 C694 1.465 . S
C689 C684 1.399 . S
C689 C688 1.394 1_455 S
C689 C690 1.516 . S
C690 C689 1.516 . S
C690 C691 1.502 . S
C690 C692 1.561 . S
C690 C693 1.526 . S
C691 H675 0.959 . S
C691 H676 0.959 . S
C691 H677 0.961 . S
C691 C690 1.502 . S
C692 H678 0.960 . S
C692 H679 0.961 . S
C692 H680 0.959 . S
C692 C690 1.561 . S
C693 C690 1.526 . S
C693 C694 1.396 1_455 S
C693 C698 1.390 . S
C694 C688 1.465 . S
C694 C693 1.396 1_655 S
C694 C695 1.399 . S
C695 H681 0.929 . S
C695 C694 1.399 . S
C695 C696 1.385 . S
C696 H682 0.931 . S
C696 C695 1.385 . S
C696 C697 1.389 1_655 S
C697 C696 1.389 1_455 S
C697 C698 1.387 . S
C698 H683 0.930 . S
C698 C693 1.390 . S
C698 C697 1.387 . S
H699 C711 0.930 . S
H700 C713 0.930 . S
H701 C714 0.930 . S
H702 C718 0.959 . S
H703 C718 0.959 . S
H704 C718 0.961 . S
H705 C719 0.960 . S
H706 C719 0.961 . S
H707 C719 0.959 . S
H708 C722 0.929 . S
H709 C723 0.931 . S
H710 C725 0.930 . S
C711 H699 0.930 . S
C711 C712 1.399 . S
C711 C716 1.399 . S
C712 C711 1.399 . S
C712 C713 1.376 . S
C713 H700 0.930 . S
C713 C712 1.376 . S
C713 C714 1.388 . S
C714 H701 0.930 . S
C714 C713 1.388 . S
C714 C715 1.390 . S
C715 C714 1.390 . S
C715 C716 1.394 . S
C715 C721 1.465 . S
C716 C711 1.399 . S
C716 C715 1.394 . S
C716 C717 1.516 . S
C717 C716 1.516 . S
C717 C718 1.502 . S
C717 C719 1.561 . S
C717 C720 1.526 . S
C718 H702 0.959 . S
C718 H703 0.959 . S
C718 H704 0.961 . S
C718 C717 1.502 . S
C719 H705 0.960 . S
C719 H706 0.961 . S
C719 H707 0.959 . S
C719 C717 1.561 . S
C720 C717 1.526 . S
C720 C721 1.396 . S
C720 C725 1.390 . S
C721 C715 1.465 . S
C721 C720 1.396 . S
C721 C722 1.399 . S
C722 H708 0.929 . S
C722 C721 1.399 . S
C722 C723 1.385 . S
C723 H709 0.931 . S
C723 C722 1.385 . S
C723 C724 1.389 . S
C724 C723 1.389 . S
C724 C725 1.387 . S
C725 H710 0.930 . S
C725 C720 1.390 . S
C725 C724 1.387 . S
H726 C738 0.930 . S
H727 C740 0.930 . S
H728 C741 0.930 . S
H729 C745 0.959 . S
H730 C745 0.959 . S
H731 C745 0.961 . S
H732 C746 0.960 . S
H733 C746 0.961 . S
H734 C746 0.959 . S
H735 C749 0.929 . S
H736 C750 0.931 . S
H737 C752 0.930 . S
C738 H726 0.930 . S
C738 C739 1.399 . S
C738 C743 1.399 . S
C739 C738 1.399 . S
C739 C740 1.376 . S
C740 H727 0.930 . S
C740 C739 1.376 . S
C740 C741 1.388 . S
C741 H728 0.930 . S
C741 C740 1.388 . S
C741 C742 1.390 . S
C742 C741 1.390 . S
C742 C743 1.394 . S
C742 C748 1.465 . S
C743 C738 1.399 . S
C743 C742 1.394 . S
C743 C744 1.516 . S
C744 C743 1.516 . S
C744 C745 1.502 . S
C744 C746 1.561 . S
C744 C747 1.526 . S
C745 H729 0.959 . S
C745 H730 0.959 . S
C745 H731 0.961 . S
C745 C744 1.502 . S
C746 H732 0.960 . S
C746 H733 0.961 . S
C746 H734 0.959 . S
C746 C744 1.561 . S
C747 C744 1.526 . S
C747 C748 1.396 . S
C747 C752 1.390 . S
C748 C742 1.465 . S
C748 C747 1.396 . S
C748 C749 1.399 . S
C749 H735 0.929 . S
C749 C748 1.399 . S
C749 C750 1.385 . S
C750 H736 0.931 . S
C750 C749 1.385 . S
C750 C751 1.389 . S
C751 C750 1.389 . S
C751 C752 1.387 . S
C752 H737 0.930 . S
C752 C747 1.390 . S
C752 C751 1.387 . S
H753 C765 0.930 . S
H754 C767 0.930 . S
H755 C768 0.930 . S
H756 C772 0.959 . S
H757 C772 0.959 . S
H758 C772 0.961 . S
H759 C773 0.960 . S
H760 C773 0.961 . S
H761 C773 0.959 . S
H762 C776 0.929 . S
H763 C777 0.931 . S
H764 C779 0.930 . S
C765 H753 0.930 . S
C765 C766 1.399 . S
C765 C770 1.399 . S
C766 C765 1.399 . S
C766 C767 1.376 . S
C767 H754 0.930 . S
C767 C766 1.376 . S
C767 C768 1.388 . S
C768 H755 0.930 . S
C768 C767 1.388 . S
C768 C769 1.390 . S
C769 C768 1.390 . S
C769 C770 1.394 . S
C769 C775 1.465 . S
C770 C765 1.399 . S
C770 C769 1.394 . S
C770 C771 1.516 . S
C771 C770 1.516 . S
C771 C772 1.502 . S
C771 C773 1.561 . S
C771 C774 1.526 . S
C772 H756 0.959 . S
C772 H757 0.959 . S
C772 H758 0.961 . S
C772 C771 1.502 . S
C773 H759 0.960 . S
C773 H760 0.961 . S
C773 H761 0.959 . S
C773 C771 1.561 . S
C774 C771 1.526 . S
C774 C775 1.396 . S
C774 C779 1.390 . S
C775 C769 1.465 . S
C775 C774 1.396 . S
C775 C776 1.399 . S
C776 H762 0.929 . S
C776 C775 1.399 . S
C776 C777 1.385 . S
C777 H763 0.931 . S
C777 C776 1.385 . S
C777 C778 1.389 . S
C778 C777 1.389 . S
C778 C779 1.387 . S
C779 H764 0.930 . S
C779 C774 1.390 . S
C779 C778 1.387 . S
H780 C792 0.930 . S
H781 C794 0.930 . S
H782 C795 0.930 . S
H783 C799 0.959 . S
H784 C799 0.959 . S
H785 C799 0.961 . S
H786 C800 0.960 . S
H787 C800 0.961 . S
H788 C800 0.959 . S
H789 C803 0.929 . S
H790 C804 0.931 . S
H791 C806 0.939 . S
C792 H780 0.930 . S
C792 C793 1.399 . S
C792 C797 1.399 . S
C793 C792 1.399 . S
C793 C794 1.376 1_455 S
C794 H781 0.930 . S
C794 C793 1.376 1_655 S
C794 C795 1.388 . S
C795 H782 0.930 . S
C795 C794 1.388 . S
C795 C796 1.390 . S
C796 C795 1.390 . S
C796 C797 1.394 1_655 S
C796 C802 1.465 . S
C797 C792 1.399 . S
C797 C796 1.394 1_455 S
C797 C798 1.516 . S
C798 C797 1.516 . S
C798 C799 1.502 . S
C798 C800 1.561 1_455 S
C798 C801 1.537 . S
C799 H783 0.959 . S
C799 H784 0.959 . S
C799 H785 0.961 . S
C799 C798 1.502 . S
C800 H786 0.960 . S
C800 H787 0.961 . S
C800 H788 0.959 . S
C800 C798 1.561 1_655 S
C801 C798 1.537 . S
C801 C802 1.388 1_455 S
C801 C806 1.389 . S
C802 C796 1.465 . S
C802 C801 1.388 1_655 S
C802 C803 1.399 . S
C803 H789 0.929 . S
C803 C802 1.399 . S
C803 C804 1.385 . S
C804 H790 0.931 . S
C804 C803 1.385 . S
C804 C805 1.389 . S
C805 C804 1.389 . S
C805 C806 1.376 1_655 S
C806 H791 0.939 . S
C806 C801 1.389 . S
C806 C805 1.376 1_455 S
H807 C819 0.930 . S
H808 C821 0.930 . S
H809 C822 0.930 . S
H810 C826 0.959 . S
H811 C826 0.959 . S
H812 C826 0.961 . S
H813 C827 0.960 . S
H814 C827 0.961 . S
H815 C827 0.959 . S
H816 C830 0.929 . S
H817 C831 0.931 . S
H818 C833 0.930 . S
C819 H807 0.930 . S
C819 C820 1.399 . S
C819 C824 1.399 . S
C820 C819 1.399 . S
C820 C821 1.376 . S
C821 H808 0.930 . S
C821 C820 1.376 . S
C821 C822 1.388 . S
C822 H809 0.930 . S
C822 C821 1.388 . S
C822 C823 1.390 . S
C823 C822 1.390 . S
C823 C824 1.394 . S
C823 C829 1.465 . S
C824 C819 1.399 . S
C824 C823 1.394 . S
C824 C825 1.516 . S
C825 C824 1.516 . S
C825 C826 1.502 . S
C825 C827 1.561 . S
C825 C828 1.526 . S
C826 H810 0.959 . S
C826 H811 0.959 . S
C826 H812 0.961 . S
C826 C825 1.502 . S
C827 H813 0.960 . S
C827 H814 0.961 . S
C827 H815 0.959 . S
C827 C825 1.561 . S
C828 C825 1.526 . S
C828 C829 1.396 . S
C828 C833 1.390 . S
C829 C823 1.465 . S
C829 C828 1.396 . S
C829 C830 1.399 . S
C830 H816 0.929 . S
C830 C829 1.399 . S
C830 C831 1.385 . S
C831 H817 0.931 . S
C831 C830 1.385 . S
C831 C832 1.389 . S
C832 C831 1.389 . S
C832 C833 1.387 . S
C833 H818 0.930 . S
C833 C828 1.390 . S
C833 C832 1.387 . S
H834 C846 0.930 . S
H835 C848 0.930 . S
H836 C849 0.930 . S
H837 C853 0.959 . S
H838 C853 0.959 . S
H839 C853 0.961 . S
H840 C854 0.960 . S
H841 C854 0.961 . S
H842 C854 0.959 . S
H843 C857 0.921 1_554 S
H844 C858 0.908 1_554 S
H845 C860 0.930 . S
C846 H834 0.930 . S
C846 C847 1.399 . S
C846 C851 1.399 . S
C847 C846 1.399 . S
C847 C848 1.376 . S
C848 H835 0.930 . S
C848 C847 1.376 . S
C848 C849 1.388 . S
C849 H836 0.930 . S
C849 C848 1.388 . S
C849 C850 1.390 . S
C850 C849 1.390 . S
C850 C851 1.394 . S
C850 C856 1.465 . S
C851 C846 1.399 . S
C851 C850 1.394 . S
C851 C852 1.516 . S
C852 C851 1.516 . S
C852 C853 1.502 . S
C852 C854 1.561 . S
C852 C855 1.526 . S
C853 H837 0.959 . S
C853 H838 0.959 . S
C853 H839 0.961 . S
C853 C852 1.502 . S
C854 H840 0.960 . S
C854 H841 0.961 . S
C854 H842 0.959 . S
C854 C852 1.561 . S
C855 C852 1.526 . S
C855 C856 1.396 . S
C855 C860 1.390 . S
C856 C850 1.465 . S
C856 C855 1.396 . S
C856 C857 1.399 . S
C857 H843 0.921 1_556 S
C857 C856 1.399 . S
C857 C858 1.394 . S
C858 H844 0.908 1_556 S
C858 C857 1.394 . S
C858 C859 1.403 . S
C859 C858 1.403 . S
C859 C860 1.387 . S
C860 H845 0.930 . S
C860 C855 1.390 . S
C860 C859 1.387 . S
H861 C873 0.930 . S
H862 C875 0.930 . S
H863 C876 0.930 . S
H864 C880 0.959 . S
H865 C880 0.959 . S
H866 C880 0.961 . S
H867 C881 0.960 . S
H868 C881 0.961 . S
H869 C881 0.959 . S
H870 C884 0.929 . S
H871 C885 0.931 . S
H872 C887 0.930 . S
C873 H861 0.930 . S
C873 C874 1.399 . S
C873 C878 1.399 . S
C874 C873 1.399 . S
C874 C875 1.376 . S
C875 H862 0.930 . S
C875 C874 1.376 . S
C875 C876 1.388 . S
C876 H863 0.930 . S
C876 C875 1.388 . S
C876 C877 1.390 . S
C877 C876 1.390 . S
C877 C878 1.394 . S
C877 C883 1.465 . S
C878 C873 1.399 . S
C878 C877 1.394 . S
C878 C879 1.516 . S
C879 C878 1.516 . S
C879 C880 1.502 . S
C879 C881 1.561 . S
C879 C882 1.526 . S
C880 H864 0.959 . S
C880 H865 0.959 . S
C880 H866 0.961 . S
C880 C879 1.502 . S
C881 H867 0.960 . S
C881 H868 0.961 . S
C881 H869 0.959 . S
C881 C879 1.561 . S
C882 C879 1.526 . S
C882 C883 1.396 . S
C882 C887 1.390 . S
C883 C877 1.465 . S
C883 C882 1.396 . S
C883 C884 1.399 . S
C884 H870 0.929 . S
C884 C883 1.399 . S
C884 C885 1.385 . S
C885 H871 0.931 . S
C885 C884 1.385 . S
C885 C886 1.389 . S
C886 C885 1.389 . S
C886 C887 1.387 . S
C887 H872 0.930 . S
C887 C882 1.390 . S
C887 C886 1.387 . S
H888 C900 0.930 . S
H889 C902 0.930 . S
H890 C903 0.930 . S
H891 C907 0.959 . S
H892 C907 0.959 . S
H893 C907 0.961 . S
H894 C908 0.960 . S
H895 C908 0.961 . S
H896 C908 0.959 . S
H897 C911 0.929 . S
H898 C912 0.931 . S
H899 C914 0.930 . S
C900 H888 0.930 . S
C900 C901 1.399 1_565 S
C900 C905 1.399 . S
C901 C900 1.399 1_545 S
C901 C902 1.376 . S
C902 H889 0.930 . S
C902 C901 1.376 . S
C902 C903 1.388 . S
C903 H890 0.930 . S
C903 C902 1.388 . S
C903 C904 1.390 . S
C904 C903 1.390 . S
C904 C905 1.394 1_545 S
C904 C910 1.465 . S
C905 C900 1.399 . S
C905 C904 1.394 1_565 S
C905 C906 1.516 . S
C906 C905 1.516 . S
C906 C907 1.502 . S
C906 C908 1.561 . S
C906 C909 1.526 . S
C907 H891 0.959 . S
C907 H892 0.959 . S
C907 H893 0.961 . S
C907 C906 1.502 . S
C908 H894 0.960 . S
C908 H895 0.961 . S
C908 H896 0.959 . S
C908 C906 1.561 . S
C909 C906 1.526 . S
C909 C910 1.396 1_565 S
C909 C914 1.390 . S
C910 C904 1.465 . S
C910 C909 1.396 1_545 S
C910 C911 1.399 . S
C911 H897 0.929 . S
C911 C910 1.399 . S
C911 C912 1.385 . S
C912 H898 0.931 . S
C912 C911 1.385 . S
C912 C913 1.389 1_545 S
C913 C912 1.389 1_565 S
C913 C914 1.387 . S
C914 H899 0.930 . S
C914 C909 1.390 . S
C914 C913 1.387 . S
H915 C927 0.930 . S
H916 C929 0.930 . S
H917 C930 0.930 . S
H918 C934 0.959 . S
H919 C934 0.959 . S
H920 C934 0.961 . S
H921 C935 0.960 . S
H922 C935 0.961 . S
H923 C935 0.959 . S
H924 C938 0.929 . S
H925 C939 0.931 . S
H926 C941 0.930 . S
C927 H915 0.930 . S
C927 C928 1.399 . S
C927 C932 1.399 . S
C928 C927 1.399 . S
C928 C929 1.376 . S
C929 H916 0.930 . S
C929 C928 1.376 . S
C929 C930 1.388 . S
C930 H917 0.930 . S
C930 C929 1.388 . S
C930 C931 1.390 . S
C931 C930 1.390 . S
C931 C932 1.394 . S
C931 C937 1.465 . S
C932 C927 1.399 . S
C932 C931 1.394 . S
C932 C933 1.516 . S
C933 C932 1.516 . S
C933 C934 1.502 . S
C933 C935 1.561 . S
C933 C936 1.526 . S
C934 H918 0.959 . S
C934 H919 0.959 . S
C934 H920 0.961 . S
C934 C933 1.502 . S
C935 H921 0.960 . S
C935 H922 0.961 . S
C935 H923 0.959 . S
C935 C933 1.561 . S
C936 C933 1.526 . S
C936 C937 1.396 . S
C936 C941 1.390 . S
C937 C931 1.465 . S
C937 C936 1.396 . S
C937 C938 1.399 . S
C938 H924 0.929 . S
C938 C937 1.399 . S
C938 C939 1.385 . S
C939 H925 0.931 . S
C939 C938 1.385 . S
C939 C940 1.389 . S
C940 C939 1.389 . S
C940 C941 1.387 . S
C941 H926 0.930 . S
C941 C936 1.390 . S
C941 C940 1.387 . S
H942 C954 0.930 1_565 S
H943 C956 0.930 . S
H944 C957 0.930 . S
H945 C961 0.938 1_545 S
H946 C961 0.959 . S
H947 C961 0.961 . S
H948 C962 0.960 . S
H949 C962 0.961 . S
H950 C962 0.959 . S
H951 C965 0.929 . S
H952 C966 0.931 . S
H953 C968 0.930 1_565 S
C954 H942 0.930 1_545 S
C954 C955 1.399 . S
C954 C959 1.399 . S
C955 C954 1.399 . S
C955 C956 1.376 . S
C956 H943 0.930 . S
C956 C955 1.376 . S
C956 C957 1.388 . S
C957 H944 0.930 . S
C957 C956 1.388 . S
C957 C958 1.390 . S
C958 C957 1.390 . S
C958 C959 1.394 . S
C958 C964 1.465 . S
C959 C954 1.399 . S
C959 C958 1.394 . S
C959 C960 1.516 1_545 S
C960 C959 1.516 1_565 S
C960 C961 1.502 . S
C960 C962 1.561 . S
C960 C963 1.526 1_565 S
C961 H945 0.938 1_565 S
C961 H946 0.959 . S
C961 H947 0.961 . S
C961 C960 1.502 . S
C962 H948 0.960 . S
C962 H949 0.961 . S
C962 H950 0.959 . S
C962 C960 1.561 . S
C963 C960 1.526 1_545 S
C963 C964 1.396 . S
C963 C968 1.390 . S
C964 C958 1.465 . S
C964 C963 1.396 . S
C964 C965 1.399 . S
C965 H951 0.929 . S
C965 C964 1.399 . S
C965 C966 1.385 . S
C966 H952 0.931 . S
C966 C965 1.385 . S
C966 C967 1.389 . S
C967 C966 1.389 . S
C967 C968 1.387 . S
C968 H953 0.930 1_545 S
C968 C963 1.390 . S
C968 C967 1.387 . S
H969 C981 0.930 . S
H970 C983 0.930 . S
H971 C984 0.930 . S
H972 C988 0.959 . S
H973 C988 0.959 . S
H974 C988 0.961 . S
H975 C989 0.960 . S
H976 C989 0.961 . S
H977 C989 0.959 . S
H978 C992 0.929 . S
H979 C993 0.931 . S
H980 C995 0.930 . S
C981 H969 0.930 . S
C981 C982 1.399 . S
C981 C986 1.399 . S
C982 C981 1.399 . S
C982 C983 1.376 . S
C983 H970 0.930 . S
C983 C982 1.376 . S
C983 C984 1.388 . S
C984 H971 0.930 . S
C984 C983 1.388 . S
C984 C985 1.390 . S
C985 C984 1.390 . S
C985 C986 1.394 . S
C985 C991 1.465 . S
C986 C981 1.399 . S
C986 C985 1.394 . S
C986 C987 1.516 . S
C987 C986 1.516 . S
C987 C988 1.502 . S
C987 C989 1.561 . S
C987 C990 1.526 . S
C988 H972 0.959 . S
C988 H973 0.959 . S
C988 H974 0.961 . S
C988 C987 1.502 . S
C989 H975 0.960 . S
C989 H976 0.961 . S
C989 H977 0.959 . S
C989 C987 1.561 . S
C990 C987 1.526 . S
C990 C991 1.396 . S
C990 C995 1.390 . S
C991 C985 1.465 . S
C991 C990 1.396 . S
C991 C992 1.399 . S
C992 H978 0.929 . S
C992 C991 1.399 . S
C992 C993 1.385 . S
C993 H979 0.931 . S
C993 C992 1.385 . S
C993 C994 1.389 . S
C994 C993 1.389 . S
C994 C995 1.387 . S
C995 H980 0.930 . S
C995 C990 1.390 . S
C995 C994 1.387 . S
H996 C1008 0.930 . S
H997 C1010 0.930 . S
H998 C1011 0.930 . S
H999 C1015 0.959 . S
H1000 C1015 0.959 . S
H1001 C1015 0.961 . S
H1002 C1016 0.960 . S
H1003 C1016 0.961 . S
H1004 C1016 0.959 . S
H1005 C1019 0.929 . S
H1006 C1020 0.931 . S
H1007 C1022 0.930 . S
C1008 H996 0.930 . S
C1008 C1009 1.399 1_565 S
C1008 C1013 1.395 1_565 S
C1009 C1008 1.399 1_545 S
C1009 C1010 1.376 . S
C1010 H997 0.930 . S
C1010 C1009 1.376 . S
C1010 C1011 1.388 . S
C1011 H998 0.930 . S
C1011 C1010 1.388 . S
C1011 C1012 1.390 . S
C1012 C1011 1.390 . S
C1012 C1013 1.411 . S
C1012 C1018 1.465 . S
C1013 C1008 1.395 1_545 S
C1013 C1012 1.411 . S
C1013 C1014 1.505 1_545 S
C1014 C1013 1.505 1_565 S
C1014 C1015 1.502 . S
C1014 C1016 1.561 . S
C1014 C1017 1.526 1_565 S
C1015 H999 0.959 . S
C1015 H1000 0.959 . S
C1015 H1001 0.961 . S
C1015 C1014 1.502 . S
C1016 H1002 0.960 . S
C1016 H1003 0.961 . S
C1016 H1004 0.959 . S
C1016 C1014 1.561 . S
C1017 C1014 1.526 1_545 S
C1017 C1018 1.396 . S
C1017 C1022 1.390 1_545 S
C1018 C1012 1.465 . S
C1018 C1017 1.396 . S
C1018 C1019 1.399 . S
C1019 H1005 0.929 . S
C1019 C1018 1.399 . S
C1019 C1020 1.385 . S
C1020 H1006 0.931 . S
C1020 C1019 1.385 . S
C1020 C1021 1.389 . S
C1021 C1020 1.389 . S
C1021 C1022 1.387 1_545 S
C1022 H1007 0.930 . S
C1022 C1017 1.390 1_565 S
C1022 C1021 1.387 1_565 S
H1023 C1035 0.930 . S
H1024 C1037 0.930 . S
H1025 C1038 0.930 . S
H1026 C1042 0.959 . S
H1027 C1042 0.959 . S
H1028 C1042 0.961 . S
H1029 C1043 0.960 . S
H1030 C1043 0.961 . S
H1031 C1043 0.959 . S
H1032 C1046 0.929 . S
H1033 C1047 0.931 . S
H1034 C1049 0.930 . S
C1035 H1023 0.930 . S
C1035 C1036 1.399 . S
C1035 C1040 1.399 . S
C1036 C1035 1.399 . S
C1036 C1037 1.376 . S
C1037 H1024 0.930 . S
C1037 C1036 1.376 . S
C1037 C1038 1.388 . S
C1038 H1025 0.930 . S
C1038 C1037 1.388 . S
C1038 C1039 1.390 . S
C1039 C1038 1.390 . S
C1039 C1040 1.394 . S
C1039 C1045 1.465 . S
C1040 C1035 1.399 . S
C1040 C1039 1.394 . S
C1040 C1041 1.516 . S
C1041 C1040 1.516 . S
C1041 C1042 1.502 . S
C1041 C1043 1.561 . S
C1041 C1044 1.526 . S
C1042 H1026 0.959 . S
C1042 H1027 0.959 . S
C1042 H1028 0.961 . S
C1042 C1041 1.502 . S
C1043 H1029 0.960 . S
C1043 H1030 0.961 . S
C1043 H1031 0.959 . S
C1043 C1041 1.561 . S
C1044 C1041 1.526 . S
C1044 C1045 1.396 . S
C1044 C1049 1.390 . S
C1045 C1039 1.465 . S
C1045 C1044 1.396 . S
C1045 C1046 1.399 . S
C1046 H1032 0.929 . S
C1046 C1045 1.399 . S
C1046 C1047 1.385 . S
C1047 H1033 0.931 . S
C1047 C1046 1.385 . S
C1047 C1048 1.389 . S
C1048 C1047 1.389 . S
C1048 C1049 1.387 . S
C1049 H1034 0.930 . S
C1049 C1044 1.390 . S
C1049 C1048 1.387 . S
H1050 C1062 0.930 . S
H1051 C1064 0.930 . S
H1052 C1065 0.930 . S
H1053 C1069 0.959 . S
H1054 C1069 0.959 . S
H1055 C1069 0.961 . S
H1056 C1070 0.960 . S
H1057 C1070 0.961 . S
H1058 C1070 0.959 . S
H1059 C1073 0.929 . S
H1060 C1074 0.931 . S
H1061 C1076 0.930 . S
C1062 H1050 0.930 . S
C1062 C1063 1.399 . S
C1062 C1067 1.399 . S
C1063 C1062 1.399 . S
C1063 C1064 1.376 1_545 S
C1064 H1051 0.930 . S
C1064 C1063 1.376 1_565 S
C1064 C1065 1.388 . S
C1065 H1052 0.930 . S
C1065 C1064 1.388 . S
C1065 C1066 1.390 . S
C1066 C1065 1.390 . S
C1066 C1067 1.394 1_565 S
C1066 C1072 1.465 . S
C1067 C1062 1.399 . S
C1067 C1066 1.394 1_545 S
C1067 C1068 1.516 . S
C1068 C1067 1.516 . S
C1068 C1069 1.502 . S
C1068 C1070 1.561 . S
C1068 C1071 1.526 . S
C1069 H1053 0.959 . S
C1069 H1054 0.959 . S
C1069 H1055 0.961 . S
C1069 C1068 1.502 . S
C1070 H1056 0.960 . S
C1070 H1057 0.961 . S
C1070 H1058 0.959 . S
C1070 C1068 1.561 . S
C1071 C1068 1.526 . S
C1071 C1072 1.396 1_545 S
C1071 C1076 1.390 . S
C1072 C1066 1.465 . S
C1072 C1071 1.396 1_565 S
C1072 C1073 1.399 . S
C1073 H1059 0.929 . S
C1073 C1072 1.399 . S
C1073 C1074 1.385 . S
C1074 H1060 0.931 . S
C1074 C1073 1.385 . S
C1074 C1075 1.389 1_565 S
C1075 C1074 1.389 1_545 S
C1075 C1076 1.387 . S
C1076 H1061 0.930 . S
C1076 C1071 1.390 . S
C1076 C1075 1.387 . S
H1077 C1089 0.930 . S
H1078 C1091 0.930 . S
H1079 C1092 0.930 . S
H1080 C1096 0.959 . S
H1081 C1096 0.959 . S
H1082 C1096 0.961 . S
H1083 C1097 0.960 . S
H1084 C1097 0.961 . S
H1085 C1097 0.959 . S
H1086 C1100 0.929 . S
H1087 C1101 0.931 . S
H1088 C1103 0.930 . S
C1089 H1077 0.930 . S
C1089 C1090 1.399 . S
C1089 C1094 1.399 . S
C1090 C1089 1.399 . S
C1090 C1091 1.376 . S
C1091 H1078 0.930 . S
C1091 C1090 1.376 . S
C1091 C1092 1.388 . S
C1092 H1079 0.930 . S
C1092 C1091 1.388 . S
C1092 C1093 1.390 . S
C1093 C1092 1.390 . S
C1093 C1094 1.394 . S
C1093 C1099 1.465 . S
C1094 C1089 1.399 . S
C1094 C1093 1.394 . S
C1094 C1095 1.516 . S
C1095 C1094 1.516 . S
C1095 C1096 1.502 . S
C1095 C1097 1.561 . S
C1095 C1098 1.526 . S
C1096 H1080 0.959 . S
C1096 H1081 0.959 . S
C1096 H1082 0.961 . S
C1096 C1095 1.502 . S
C1097 H1083 0.960 . S
C1097 H1084 0.961 . S
C1097 H1085 0.959 . S
C1097 C1095 1.561 . S
C1098 C1095 1.526 . S
C1098 C1099 1.396 . S
C1098 C1103 1.390 . S
C1099 C1093 1.465 . S
C1099 C1098 1.396 . S
C1099 C1100 1.399 . S
C1100 H1086 0.929 . S
C1100 C1099 1.399 . S
C1100 C1101 1.385 . S
C1101 H1087 0.931 . S
C1101 C1100 1.385 . S
C1101 C1102 1.389 . S
C1102 C1101 1.389 . S
C1102 C1103 1.387 . S
C1103 H1088 0.930 . S
C1103 C1098 1.390 . S
C1103 C1102 1.387 . S
H1104 C1116 0.930 . S
H1105 C1118 0.930 . S
H1106 C1119 0.930 . S
H1107 C1123 0.959 . S
H1108 C1123 0.959 . S
H1109 C1123 0.961 . S
H1110 C1124 0.960 . S
H1111 C1124 0.961 . S
H1112 C1124 0.959 . S
H1113 C1127 0.929 . S
H1114 C1128 0.931 . S
H1115 C1130 0.930 . S
C1116 H1104 0.930 . S
C1116 C1117 1.399 1_556 S
C1116 C1121 1.399 . S
C1117 C1116 1.399 1_554 S
C1117 C1118 1.376 . S
C1118 H1105 0.930 . S
C1118 C1117 1.376 . S
C1118 C1119 1.388 . S
C1119 H1106 0.930 . S
C1119 C1118 1.388 . S
C1119 C1120 1.390 . S
C1120 C1119 1.390 . S
C1120 C1121 1.394 1_554 S
C1120 C1126 1.465 . S
C1121 C1116 1.399 . S
C1121 C1120 1.394 1_556 S
C1121 C1122 1.516 . S
C1122 C1121 1.516 . S
C1122 C1123 1.502 . S
C1122 C1124 1.561 . S
C1122 C1125 1.526 . S
C1123 H1107 0.959 . S
C1123 H1108 0.959 . S
C1123 H1109 0.961 . S
C1123 C1122 1.502 . S
C1124 H1110 0.960 . S
C1124 H1111 0.961 . S
C1124 H1112 0.959 . S
C1124 C1122 1.561 . S
C1125 C1122 1.526 . S
C1125 C1126 1.396 1_556 S
C1125 C1130 1.390 . S
C1126 C1120 1.465 . S
C1126 C1125 1.396 1_554 S
C1126 C1127 1.399 . S
C1127 H1113 0.929 . S
C1127 C1126 1.399 . S
C1127 C1128 1.385 . S
C1128 H1114 0.931 . S
C1128 C1127 1.385 . S
C1128 C1129 1.389 . S
C1129 C1128 1.389 . S
C1129 C1130 1.387 1_554 S
C1130 H1115 0.930 . S
C1130 C1125 1.390 . S
C1130 C1129 1.387 1_556 S
H1131 C1143 0.930 . S
H1132 C1145 0.930 . S
H1133 C1146 0.930 . S
H1134 C1150 0.959 1_556 S
H1135 C1150 0.959 . S
H1136 C1150 0.961 . S
H1137 C1151 0.960 . S
H1138 C1151 0.961 . S
H1139 C1151 0.959 . S
H1140 C1154 0.929 . S
H1141 C1155 0.931 . S
H1142 C1157 0.930 . S
C1143 H1131 0.930 . S
C1143 C1144 1.399 . S
C1143 C1148 1.399 . S
C1144 C1143 1.399 . S
C1144 C1145 1.376 . S
C1145 H1132 0.930 . S
C1145 C1144 1.376 . S
C1145 C1146 1.388 . S
C1146 H1133 0.930 . S
C1146 C1145 1.388 . S
C1146 C1147 1.390 . S
C1147 C1146 1.390 . S
C1147 C1148 1.394 . S
C1147 C1153 1.465 . S
C1148 C1143 1.399 . S
C1148 C1147 1.394 . S
C1148 C1149 1.516 . S
C1149 C1148 1.516 . S
C1149 C1150 1.502 . S
C1149 C1151 1.561 . S
C1149 C1152 1.526 . S
C1150 H1134 0.959 1_554 S
C1150 H1135 0.959 . S
C1150 H1136 0.961 . S
C1150 C1149 1.502 . S
C1151 H1137 0.960 . S
C1151 H1138 0.961 . S
C1151 H1139 0.959 . S
C1151 C1149 1.561 . S
C1152 C1149 1.526 . S
C1152 C1153 1.396 . S
C1152 C1157 1.390 . S
C1153 C1147 1.465 . S
C1153 C1152 1.396 . S
C1153 C1154 1.399 . S
C1154 H1140 0.929 . S
C1154 C1153 1.399 . S
C1154 C1155 1.385 . S
C1155 H1141 0.931 . S
C1155 C1154 1.385 . S
C1155 C1156 1.389 . S
C1156 C1155 1.389 . S
C1156 C1157 1.387 . S
C1157 H1142 0.930 . S
C1157 C1152 1.390 . S
C1157 C1156 1.387 . S
H1158 C1170 0.930 . S
H1159 C1172 0.930 . S
H1160 C1173 0.930 . S
H1161 C1177 0.959 . S
H1162 C1177 0.959 . S
H1163 C1177 0.961 . S
H1164 C1178 0.960 . S
H1165 C1178 0.961 . S
H1166 C1178 0.959 . S
H1167 C1181 0.929 . S
H1168 C1182 0.931 . S
H1169 C1184 0.930 . S
C1170 H1158 0.930 . S
C1170 C1171 1.399 . S
C1170 C1175 1.399 . S
C1171 C1170 1.399 . S
C1171 C1172 1.376 . S
C1172 H1159 0.930 . S
C1172 C1171 1.376 . S
C1172 C1173 1.388 . S
C1173 H1160 0.930 . S
C1173 C1172 1.388 . S
C1173 C1174 1.390 . S
C1174 C1173 1.390 . S
C1174 C1175 1.394 . S
C1174 C1180 1.465 . S
C1175 C1170 1.399 . S
C1175 C1174 1.394 . S
C1175 C1176 1.516 . S
C1176 C1175 1.516 . S
C1176 C1177 1.502 . S
C1176 C1178 1.561 . S
C1176 C1179 1.526 . S
C1177 H1161 0.959 . S
C1177 H1162 0.959 . S
C1177 H1163 0.961 . S
C1177 C1176 1.502 . S
C1178 H1164 0.960 . S
C1178 H1165 0.961 . S
C1178 H1166 0.959 . S
C1178 C1176 1.561 . S
C1179 C1176 1.526 . S
C1179 C1180 1.396 . S
C1179 C1184 1.390 . S
C1180 C1174 1.465 . S
C1180 C1179 1.396 . S
C1180 C1181 1.399 . S
C1181 H1167 0.929 . S
C1181 C1180 1.399 . S
C1181 C1182 1.385 . S
C1182 H1168 0.931 . S
C1182 C1181 1.385 . S
C1182 C1183 1.389 . S
C1183 C1182 1.389 . S
C1183 C1184 1.387 . S
C1184 H1169 0.930 . S
C1184 C1179 1.390 . S
C1184 C1183 1.387 . S
H1185 C1197 0.930 . S
H1186 C1199 0.930 . S
H1187 C1200 0.930 . S
H1188 C1204 0.959 . S
H1189 C1204 0.959 . S
H1190 C1204 0.961 . S
H1191 C1205 0.960 . S
H1192 C1205 0.961 . S
H1193 C1205 0.959 . S
H1194 C1208 0.929 . S
H1195 C1209 0.931 . S
H1196 C1211 0.930 . S
C1197 H1185 0.930 . S
C1197 C1198 1.399 . S
C1197 C1202 1.399 . S
C1198 C1197 1.399 . S
C1198 C1199 1.376 . S
C1199 H1186 0.930 . S
C1199 C1198 1.376 . S
C1199 C1200 1.388 . S
C1200 H1187 0.930 . S
C1200 C1199 1.388 . S
C1200 C1201 1.390 . S
C1201 C1200 1.390 . S
C1201 C1202 1.394 . S
C1201 C1207 1.465 . S
C1202 C1197 1.399 . S
C1202 C1201 1.394 . S
C1202 C1203 1.516 . S
C1203 C1202 1.516 . S
C1203 C1204 1.502 . S
C1203 C1205 1.561 . S
C1203 C1206 1.526 . S
C1204 H1188 0.959 . S
C1204 H1189 0.959 . S
C1204 H1190 0.961 . S
C1204 C1203 1.502 . S
C1205 H1191 0.960 . S
C1205 H1192 0.961 . S
C1205 H1193 0.959 . S
C1205 C1203 1.561 . S
C1206 C1203 1.526 . S
C1206 C1207 1.396 . S
C1206 C1211 1.390 . S
C1207 C1201 1.465 . S
C1207 C1206 1.396 . S
C1207 C1208 1.399 . S
C1208 H1194 0.929 . S
C1208 C1207 1.399 . S
C1208 C1209 1.385 . S
C1209 H1195 0.931 . S
C1209 C1208 1.385 . S
C1209 C1210 1.389 . S
C1210 C1209 1.389 . S
C1210 C1211 1.387 . S
C1211 H1196 0.930 . S
C1211 C1206 1.390 . S
C1211 C1210 1.387 . S
H1212 C1224 0.930 . S
H1213 C1226 0.930 . S
H1214 C1227 0.930 . S
H1215 C1231 0.959 . S
H1216 C1231 0.959 . S
H1217 C1231 0.961 . S
H1218 C1232 0.960 . S
H1219 C1232 0.961 . S
H1220 C1232 0.959 . S
H1221 C1235 0.929 . S
H1222 C1236 0.931 . S
H1223 C1238 0.930 . S
C1224 H1212 0.930 . S
C1224 C1225 1.399 . S
C1224 C1229 1.399 . S
C1225 C1224 1.399 . S
C1225 C1226 1.376 . S
C1226 H1213 0.930 . S
C1226 C1225 1.376 . S
C1226 C1227 1.388 . S
C1227 H1214 0.930 . S
C1227 C1226 1.388 . S
C1227 C1228 1.390 . S
C1228 C1227 1.390 . S
C1228 C1229 1.394 . S
C1228 C1234 1.465 . S
C1229 C1224 1.399 . S
C1229 C1228 1.394 . S
C1229 C1230 1.516 . S
C1230 C1229 1.516 . S
C1230 C1231 1.502 . S
C1230 C1232 1.561 . S
C1230 C1233 1.526 . S
C1231 H1215 0.959 . S
C1231 H1216 0.959 . S
C1231 H1217 0.961 . S
C1231 C1230 1.502 . S
C1232 H1218 0.960 . S
C1232 H1219 0.961 . S
C1232 H1220 0.959 . S
C1232 C1230 1.561 . S
C1233 C1230 1.526 . S
C1233 C1234 1.396 . S
C1233 C1238 1.390 . S
C1234 C1228 1.465 . S
C1234 C1233 1.396 . S
C1234 C1235 1.399 . S
C1235 H1221 0.929 . S
C1235 C1234 1.399 . S
C1235 C1236 1.385 . S
C1236 H1222 0.931 . S
C1236 C1235 1.385 . S
C1236 C1237 1.389 . S
C1237 C1236 1.389 . S
C1237 C1238 1.387 . S
C1238 H1223 0.930 . S
C1238 C1233 1.390 . S
C1238 C1237 1.387 . S
H1239 C1251 0.930 . S
H1240 C1253 0.930 . S
H1241 C1254 0.930 . S
H1242 C1258 0.959 . S
H1243 C1258 0.959 . S
H1244 C1258 0.961 . S
H1245 C1259 0.960 . S
H1246 C1259 0.961 . S
H1247 C1259 0.959 . S
H1248 C1262 0.929 . S
H1249 C1263 0.931 1_545 S
H1250 C1265 0.930 . S
C1251 H1239 0.930 . S
C1251 C1252 1.399 . S
C1251 C1256 1.399 . S
C1252 C1251 1.399 . S
C1252 C1253 1.376 . S
C1253 H1240 0.930 . S
C1253 C1252 1.376 . S
C1253 C1254 1.388 . S
C1254 H1241 0.930 . S
C1254 C1253 1.388 . S
C1254 C1255 1.390 . S
C1255 C1254 1.390 . S
C1255 C1256 1.394 . S
C1255 C1261 1.465 . S
C1256 C1251 1.399 . S
C1256 C1255 1.394 . S
C1256 C1257 1.516 . S
C1257 C1256 1.516 . S
C1257 C1258 1.502 . S
C1257 C1259 1.561 . S
C1257 C1260 1.526 . S
C1258 H1242 0.959 . S
C1258 H1243 0.959 . S
C1258 H1244 0.961 . S
C1258 C1257 1.502 . S
C1259 H1245 0.960 . S
C1259 H1246 0.961 . S
C1259 H1247 0.959 . S
C1259 C1257 1.561 . S
C1260 C1257 1.526 . S
C1260 C1261 1.396 . S
C1260 C1265 1.390 . S
C1261 C1255 1.465 . S
C1261 C1260 1.396 . S
C1261 C1262 1.399 . S
C1262 H1248 0.929 . S
C1262 C1261 1.399 . S
C1262 C1263 1.385 . S
C1263 H1249 0.931 1_565 S
C1263 C1262 1.385 . S
C1263 C1264 1.389 . S
C1264 C1263 1.389 . S
C1264 C1265 1.387 . S
C1265 H1250 0.930 . S
C1265 C1260 1.390 . S
C1265 C1264 1.387 . S
H1266 C1278 0.930 . S
H1267 C1280 0.930 . S
H1268 C1281 0.930 . S
H1269 C1285 0.959 . S
H1270 C1285 0.959 . S
H1271 C1285 0.961 . S
H1272 C1286 0.960 . S
H1273 C1286 0.961 . S
H1274 C1286 0.959 . S
H1275 C1289 0.929 . S
H1276 C1290 0.931 . S
H1277 C1292 0.930 . S
C1278 H1266 0.930 . S
C1278 C1279 1.399 . S
C1278 C1283 1.399 . S
C1279 C1278 1.399 . S
C1279 C1280 1.376 . S
C1280 H1267 0.930 . S
C1280 C1279 1.376 . S
C1280 C1281 1.388 . S
C1281 H1268 0.930 . S
C1281 C1280 1.388 . S
C1281 C1282 1.390 . S
C1282 C1281 1.390 . S
C1282 C1283 1.394 . S
C1282 C1288 1.465 . S
C1283 C1278 1.399 . S
C1283 C1282 1.394 . S
C1283 C1284 1.516 . S
C1284 C1283 1.516 . S
C1284 C1285 1.502 . S
C1284 C1286 1.561 . S
C1284 C1287 1.526 . S
C1285 H1269 0.959 . S
C1285 H1270 0.959 . S
C1285 H1271 0.961 . S
C1285 C1284 1.502 . S
C1286 H1272 0.960 . S
C1286 H1273 0.961 . S
C1286 H1274 0.959 . S
C1286 C1284 1.561 . S
C1287 C1284 1.526 . S
C1287 C1288 1.396 . S
C1287 C1292 1.390 . S
C1288 C1282 1.465 . S
C1288 C1287 1.396 . S
C1288 C1289 1.399 . S
C1289 H1275 0.929 . S
C1289 C1288 1.399 . S
C1289 C1290 1.385 . S
C1290 H1276 0.931 . S
C1290 C1289 1.385 . S
C1290 C1291 1.389 . S
C1291 C1290 1.389 . S
C1291 C1292 1.387 . S
C1292 H1277 0.930 . S
C1292 C1287 1.390 . S
C1292 C1291 1.387 . S
H1293 C1305 0.930 . S
H1294 C1307 0.930 . S
H1295 C1308 0.930 . S
H1296 C1312 0.959 . S
H1297 C1312 0.959 . S
H1298 C1312 0.961 . S
H1299 C1313 0.960 . S
H1300 C1313 0.961 . S
H1301 C1313 0.959 . S
H1302 C1316 0.929 . S
H1303 C1317 0.931 . S
H1304 C1319 0.930 . S
C1305 H1293 0.930 . S
C1305 C1306 1.399 . S
C1305 C1310 1.399 . S
C1306 C1305 1.399 . S
C1306 C1307 1.376 . S
C1307 H1294 0.930 . S
C1307 C1306 1.376 . S
C1307 C1308 1.388 . S
C1308 H1295 0.930 . S
C1308 C1307 1.388 . S
C1308 C1309 1.390 . S
C1309 C1308 1.390 . S
C1309 C1310 1.394 . S
C1309 C1315 1.465 . S
C1310 C1305 1.399 . S
C1310 C1309 1.394 . S
C1310 C1311 1.516 . S
C1311 C1310 1.516 . S
C1311 C1312 1.502 . S
C1311 C1313 1.561 . S
C1311 C1314 1.526 . S
C1312 H1296 0.959 . S
C1312 H1297 0.959 . S
C1312 H1298 0.961 . S
C1312 C1311 1.502 . S
C1313 H1299 0.960 . S
C1313 H1300 0.961 . S
C1313 H1301 0.959 . S
C1313 C1311 1.561 . S
C1314 C1311 1.526 . S
C1314 C1315 1.396 . S
C1314 C1319 1.390 . S
C1315 C1309 1.465 . S
C1315 C1314 1.396 . S
C1315 C1316 1.399 . S
C1316 H1302 0.929 . S
C1316 C1315 1.399 . S
C1316 C1317 1.385 . S
C1317 H1303 0.931 . S
C1317 C1316 1.385 . S
C1317 C1318 1.389 . S
C1318 C1317 1.389 . S
C1318 C1319 1.387 . S
C1319 H1304 0.930 . S
C1319 C1314 1.390 . S
C1319 C1318 1.387 . S
H1320 C1332 0.930 . S
H1321 C1334 0.930 . S
H1322 C1335 0.930 . S
H1323 C1339 0.959 . S
H1324 C1339 0.959 . S
H1325 C1339 0.961 . S
H1326 C1340 0.960 . S
H1327 C1340 0.961 . S
H1328 C1340 0.959 . S
H1329 C1343 0.929 . S
H1330 C1344 0.931 . S
H1331 C1346 0.930 . S
C1332 H1320 0.930 . S
C1332 C1333 1.399 . S
C1332 C1337 1.399 . S
C1333 C1332 1.399 . S
C1333 C1334 1.376 1_455 S
C1334 H1321 0.930 . S
C1334 C1333 1.376 1_655 S
C1334 C1335 1.388 . S
C1335 H1322 0.930 . S
C1335 C1334 1.388 . S
C1335 C1336 1.390 1_655 S
C1336 C1335 1.390 1_455 S
C1336 C1337 1.394 . S
C1336 C1342 1.465 . S
C1337 C1332 1.399 . S
C1337 C1336 1.394 . S
C1337 C1338 1.516 . S
C1338 C1337 1.516 . S
C1338 C1339 1.502 . S
C1338 C1340 1.561 . S
C1338 C1341 1.526 . S
C1339 H1323 0.959 . S
C1339 H1324 0.959 . S
C1339 H1325 0.961 . S
C1339 C1338 1.502 . S
C1340 H1326 0.960 . S
C1340 H1327 0.961 . S
C1340 H1328 0.959 . S
C1340 C1338 1.561 . S
C1341 C1338 1.526 . S
C1341 C1342 1.396 . S
C1341 C1346 1.390 . S
C1342 C1336 1.465 . S
C1342 C1341 1.396 . S
C1342 C1343 1.399 1_455 S
C1343 H1329 0.929 . S
C1343 C1342 1.399 1_655 S
C1343 C1344 1.385 . S
C1344 H1330 0.931 . S
C1344 C1343 1.385 . S
C1344 C1345 1.389 1_655 S
C1345 C1344 1.389 1_455 S
C1345 C1346 1.387 . S
C1346 H1331 0.930 . S
C1346 C1341 1.390 . S
C1346 C1345 1.387 . S
H1347 C1359 0.930 . S
H1348 C1361 0.930 . S
H1349 C1362 0.930 . S
H1350 C1366 0.959 . S
H1351 C1366 0.959 . S
H1352 C1366 0.961 . S
H1353 C1367 0.960 . S
H1354 C1367 0.961 . S
H1355 C1367 0.959 . S
H1356 C1370 0.929 . S
H1357 C1371 0.931 . S
H1358 C1373 0.930 . S
C1359 H1347 0.930 . S
C1359 C1360 1.399 . S
C1359 C1364 1.399 . S
C1360 C1359 1.399 . S
C1360 C1361 1.376 . S
C1361 H1348 0.930 . S
C1361 C1360 1.376 . S
C1361 C1362 1.388 . S
C1362 H1349 0.930 . S
C1362 C1361 1.388 . S
C1362 C1363 1.390 . S
C1363 C1362 1.390 . S
C1363 C1364 1.394 . S
C1363 C1369 1.465 . S
C1364 C1359 1.399 . S
C1364 C1363 1.394 . S
C1364 C1365 1.516 . S
C1365 C1364 1.516 . S
C1365 C1366 1.502 . S
C1365 C1367 1.561 . S
C1365 C1368 1.526 . S
C1366 H1350 0.959 . S
C1366 H1351 0.959 . S
C1366 H1352 0.961 . S
C1366 C1365 1.502 . S
C1367 H1353 0.960 . S
C1367 H1354 0.961 . S
C1367 H1355 0.959 . S
C1367 C1365 1.561 . S
C1368 C1365 1.526 . S
C1368 C1369 1.396 . S
C1368 C1373 1.390 . S
C1369 C1363 1.465 . S
C1369 C1368 1.396 . S
C1369 C1370 1.399 . S
C1370 H1356 0.929 . S
C1370 C1369 1.399 . S
C1370 C1371 1.385 . S
C1371 H1357 0.931 . S
C1371 C1370 1.385 . S
C1371 C1372 1.389 . S
C1372 C1371 1.389 . S
C1372 C1373 1.387 . S
C1373 H1358 0.930 . S
C1373 C1368 1.390 . S
C1373 C1372 1.387 . S
H1374 C1386 0.930 . S
H1375 C1388 0.930 . S
H1376 C1389 0.930 . S
H1377 C1393 0.959 . S
H1378 C1393 0.959 . S
H1379 C1393 0.961 . S
H1380 C1394 0.960 . S
H1381 C1394 0.961 . S
H1382 C1394 0.959 . S
H1383 C1397 0.929 . S
H1384 C1398 0.931 . S
H1385 C1400 0.930 . S
C1386 H1374 0.930 . S
C1386 C1387 1.399 . S
C1386 C1391 1.399 . S
C1387 C1386 1.399 . S
C1387 C1388 1.376 . S
C1388 H1375 0.930 . S
C1388 C1387 1.376 . S
C1388 C1389 1.388 . S
C1389 H1376 0.930 . S
C1389 C1388 1.388 . S
C1389 C1390 1.390 . S
C1390 C1389 1.390 . S
C1390 C1391 1.394 . S
C1390 C1396 1.465 . S
C1391 C1386 1.399 . S
C1391 C1390 1.394 . S
C1391 C1392 1.516 . S
C1392 C1391 1.516 . S
C1392 C1393 1.502 . S
C1392 C1394 1.561 . S
C1392 C1395 1.526 . S
C1393 H1377 0.959 . S
C1393 H1378 0.959 . S
C1393 H1379 0.961 . S
C1393 C1392 1.502 . S
C1394 H1380 0.960 . S
C1394 H1381 0.961 . S
C1394 H1382 0.959 . S
C1394 C1392 1.561 . S
C1395 C1392 1.526 . S
C1395 C1396 1.396 . S
C1395 C1400 1.390 . S
C1396 C1390 1.465 . S
C1396 C1395 1.396 . S
C1396 C1397 1.399 . S
C1397 H1383 0.929 . S
C1397 C1396 1.399 . S
C1397 C1398 1.385 . S
C1398 H1384 0.931 . S
C1398 C1397 1.385 . S
C1398 C1399 1.389 . S
C1399 C1398 1.389 . S
C1399 C1400 1.387 . S
C1400 H1385 0.930 . S
C1400 C1395 1.390 . S
C1400 C1399 1.387 . S
H1401 C1413 0.930 . S
H1402 C1415 0.930 . S
H1403 C1416 0.930 . S
H1404 C1420 0.959 . S
H1405 C1420 0.959 . S
H1406 C1420 0.961 . S
H1407 C1421 0.960 . S
H1408 C1421 0.961 . S
H1409 C1421 0.959 . S
H1410 C1424 0.929 . S
H1411 C1425 0.931 . S
H1412 C1427 0.930 . S
C1413 H1401 0.930 . S
C1413 C1414 1.399 . S
C1413 C1418 1.399 . S
C1414 C1413 1.399 . S
C1414 C1415 1.376 . S
C1415 H1402 0.930 . S
C1415 C1414 1.376 . S
C1415 C1416 1.388 . S
C1416 H1403 0.930 . S
C1416 C1415 1.388 . S
C1416 C1417 1.390 . S
C1417 C1416 1.390 . S
C1417 C1418 1.394 . S
C1417 C1423 1.465 . S
C1418 C1413 1.399 . S
C1418 C1417 1.394 . S
C1418 C1419 1.516 . S
C1419 C1418 1.516 . S
C1419 C1420 1.502 . S
C1419 C1421 1.561 . S
C1419 C1422 1.526 . S
C1420 H1404 0.959 . S
C1420 H1405 0.959 . S
C1420 H1406 0.961 . S
C1420 C1419 1.502 . S
C1421 H1407 0.960 . S
C1421 H1408 0.961 . S
C1421 H1409 0.959 . S
C1421 C1419 1.561 . S
C1422 C1419 1.526 . S
C1422 C1423 1.396 . S
C1422 C1427 1.390 . S
C1423 C1417 1.465 . S
C1423 C1422 1.396 . S
C1423 C1424 1.399 . S
C1424 H1410 0.929 . S
C1424 C1423 1.399 . S
C1424 C1425 1.385 . S
C1425 H1411 0.931 . S
C1425 C1424 1.385 . S
C1425 C1426 1.389 . S
C1426 C1425 1.389 . S
C1426 C1427 1.387 . S
C1427 H1412 0.930 . S
C1427 C1422 1.390 . S
C1427 C1426 1.387 . S
H1428 C1440 0.930 . S
H1429 C1442 0.930 . S
H1430 C1443 0.930 . S
H1431 C1447 0.959 . S
H1432 C1447 0.959 . S
H1433 C1447 0.961 . S
H1434 C1448 0.960 . S
H1435 C1448 0.961 . S
H1436 C1448 0.959 1_655 S
H1437 C1451 0.929 . S
H1438 C1452 0.931 . S
H1439 C1454 0.930 . S
C1440 H1428 0.930 . S
C1440 C1441 1.399 . S
C1440 C1445 1.399 . S
C1441 C1440 1.399 . S
C1441 C1442 1.376 1_455 S
C1442 H1429 0.930 . S
C1442 C1441 1.376 1_655 S
C1442 C1443 1.388 . S
C1443 H1430 0.930 . S
C1443 C1442 1.388 . S
C1443 C1444 1.414 . S
C1444 C1443 1.414 . S
C1444 C1445 1.372 1_655 S
C1444 C1450 1.459 1_655 S
C1445 C1440 1.399 . S
C1445 C1444 1.372 1_455 S
C1445 C1446 1.516 . S
C1446 C1445 1.516 . S
C1446 C1447 1.502 . S
C1446 C1448 1.561 . S
C1446 C1449 1.526 . S
C1447 H1431 0.959 . S
C1447 H1432 0.959 . S
C1447 H1433 0.961 . S
C1447 C1446 1.502 . S
C1448 H1434 0.960 . S
C1448 H1435 0.961 . S
C1448 H1436 0.959 1_455 S
C1448 C1446 1.561 . S
C1449 C1446 1.526 . S
C1449 C1450 1.396 . S
C1449 C1454 1.390 . S
C1450 C1444 1.459 1_455 S
C1450 C1449 1.396 . S
C1450 C1451 1.399 1_455 S
C1451 H1437 0.929 . S
C1451 C1450 1.399 1_655 S
C1451 C1452 1.385 . S
C1452 H1438 0.931 . S
C1452 C1451 1.385 . S
C1452 C1453 1.389 1_655 S
C1453 C1452 1.389 1_455 S
C1453 C1454 1.387 . S
C1454 H1439 0.930 . S
C1454 C1449 1.390 . S
C1454 C1453 1.387 . S
H1455 C1467 0.930 . S
H1456 C1469 0.930 . S
H1457 C1470 0.930 . S
H1458 C1474 0.959 . S
H1459 C1474 0.959 . S
H1460 C1474 0.961 . S
H1461 C1475 0.960 . S
H1462 C1475 0.961 . S
H1463 C1475 0.959 . S
H1464 C1478 0.929 . S
H1465 C1479 0.931 . S
H1466 C1481 0.930 . S
C1467 H1455 0.930 . S
C1467 C1468 1.399 . S
C1467 C1472 1.399 . S
C1468 C1467 1.399 . S
C1468 C1469 1.376 . S
C1469 H1456 0.930 . S
C1469 C1468 1.376 . S
C1469 C1470 1.388 . S
C1470 H1457 0.930 . S
C1470 C1469 1.388 . S
C1470 C1471 1.390 . S
C1471 C1470 1.390 . S
C1471 C1472 1.394 . S
C1471 C1477 1.465 . S
C1472 C1467 1.399 . S
C1472 C1471 1.394 . S
C1472 C1473 1.516 . S
C1473 C1472 1.516 . S
C1473 C1474 1.502 . S
C1473 C1475 1.561 . S
C1473 C1476 1.526 . S
C1474 H1458 0.959 . S
C1474 H1459 0.959 . S
C1474 H1460 0.961 . S
C1474 C1473 1.502 . S
C1475 H1461 0.960 . S
C1475 H1462 0.961 . S
C1475 H1463 0.959 . S
C1475 C1473 1.561 . S
C1476 C1473 1.526 . S
C1476 C1477 1.396 . S
C1476 C1481 1.390 . S
C1477 C1471 1.465 . S
C1477 C1476 1.396 . S
C1477 C1478 1.399 . S
C1478 H1464 0.929 . S
C1478 C1477 1.399 . S
C1478 C1479 1.385 . S
C1479 H1465 0.931 . S
C1479 C1478 1.385 . S
C1479 C1480 1.389 . S
C1480 C1479 1.389 . S
C1480 C1481 1.387 . S
C1481 H1466 0.930 . S
C1481 C1476 1.390 . S
C1481 C1480 1.387 . S
H1482 C1494 0.930 . S
H1483 C1496 0.930 . S
H1484 C1497 0.930 . S
H1485 C1501 0.959 . S
H1486 C1501 0.959 . S
H1487 C1501 0.961 . S
H1488 C1502 0.960 . S
H1489 C1502 0.961 . S
H1490 C1502 0.959 . S
H1491 C1505 0.929 . S
H1492 C1506 0.931 . S
H1493 C1508 0.930 . S
C1494 H1482 0.930 . S
C1494 C1495 1.399 . S
C1494 C1499 1.399 . S
C1495 C1494 1.399 . S
C1495 C1496 1.376 . S
C1496 H1483 0.930 . S
C1496 C1495 1.376 . S
C1496 C1497 1.388 . S
C1497 H1484 0.930 . S
C1497 C1496 1.388 . S
C1497 C1498 1.390 . S
C1498 C1497 1.390 . S
C1498 C1499 1.394 . S
C1498 C1504 1.465 . S
C1499 C1494 1.399 . S
C1499 C1498 1.394 . S
C1499 C1500 1.516 . S
C1500 C1499 1.516 . S
C1500 C1501 1.502 . S
C1500 C1502 1.561 . S
C1500 C1503 1.526 . S
C1501 H1485 0.959 . S
C1501 H1486 0.959 . S
C1501 H1487 0.961 . S
C1501 C1500 1.502 . S
C1502 H1488 0.960 . S
C1502 H1489 0.961 . S
C1502 H1490 0.959 . S
C1502 C1500 1.561 . S
C1503 C1500 1.526 . S
C1503 C1504 1.396 . S
C1503 C1508 1.390 . S
C1504 C1498 1.465 . S
C1504 C1503 1.396 . S
C1504 C1505 1.399 . S
C1505 H1491 0.929 . S
C1505 C1504 1.399 . S
C1505 C1506 1.385 . S
C1506 H1492 0.931 . S
C1506 C1505 1.385 . S
C1506 C1507 1.389 . S
C1507 C1506 1.389 . S
C1507 C1508 1.387 . S
C1508 H1493 0.930 . S
C1508 C1503 1.390 . S
C1508 C1507 1.387 . S
H1509 C1521 0.930 . S
H1510 C1523 0.930 . S
H1511 C1524 0.930 . S
H1512 C1528 0.959 . S
H1513 C1528 0.959 . S
H1514 C1528 0.961 . S
H1515 C1529 0.960 . S
H1516 C1529 0.961 . S
H1517 C1529 0.959 . S
H1518 C1532 0.929 . S
H1519 C1533 0.931 . S
H1520 C1535 0.930 . S
C1521 H1509 0.930 . S
C1521 C1522 1.399 . S
C1521 C1526 1.399 . S
C1522 C1521 1.399 . S
C1522 C1523 1.376 . S
C1523 H1510 0.930 . S
C1523 C1522 1.376 . S
C1523 C1524 1.388 . S
C1524 H1511 0.930 . S
C1524 C1523 1.388 . S
C1524 C1525 1.390 . S
C1525 C1524 1.390 . S
C1525 C1526 1.394 . S
C1525 C1531 1.465 . S
C1526 C1521 1.399 . S
C1526 C1525 1.394 . S
C1526 C1527 1.516 . S
C1527 C1526 1.516 . S
C1527 C1528 1.502 . S
C1527 C1529 1.561 . S
C1527 C1530 1.526 . S
C1528 H1512 0.959 . S
C1528 H1513 0.959 . S
C1528 H1514 0.961 . S
C1528 C1527 1.502 . S
C1529 H1515 0.960 . S
C1529 H1516 0.961 . S
C1529 H1517 0.959 . S
C1529 C1527 1.561 . S
C1530 C1527 1.526 . S
C1530 C1531 1.396 . S
C1530 C1535 1.390 . S
C1531 C1525 1.465 . S
C1531 C1530 1.396 . S
C1531 C1532 1.399 . S
C1532 H1518 0.929 . S
C1532 C1531 1.399 . S
C1532 C1533 1.385 . S
C1533 H1519 0.931 . S
C1533 C1532 1.385 . S
C1533 C1534 1.389 . S
C1534 C1533 1.389 . S
C1534 C1535 1.387 . S
C1535 H1520 0.930 . S
C1535 C1530 1.390 . S
C1535 C1534 1.387 . S
H1536 C1548 0.930 . S
H1537 C1550 0.930 . S
H1538 C1551 0.930 . S
H1539 C1555 0.959 . S
H1540 C1555 0.959 . S
H1541 C1555 0.961 . S
H1542 C1556 0.960 . S
H1543 C1556 0.961 . S
H1544 C1556 0.959 . S
H1545 C1559 0.929 . S
H1546 C1560 0.931 . S
H1547 C1562 0.930 . S
C1548 H1536 0.930 . S
C1548 C1549 1.407 . S
C1548 C1553 1.399 . S
C1549 C1548 1.407 . S
C1549 C1550 1.367 1_565 S
C1550 H1537 0.930 . S
C1550 C1549 1.367 1_545 S
C1550 C1551 1.388 . S
C1551 H1538 0.930 . S
C1551 C1550 1.388 . S
C1551 C1552 1.390 . S
C1552 C1551 1.390 . S
C1552 C1553 1.394 1_545 S
C1552 C1558 1.465 . S
C1553 C1548 1.399 . S
C1553 C1552 1.394 1_565 S
C1553 C1554 1.516 . S
C1554 C1553 1.516 . S
C1554 C1555 1.502 . S
C1554 C1556 1.561 . S
C1554 C1557 1.526 . S
C1555 H1539 0.959 . S
C1555 H1540 0.959 . S
C1555 H1541 0.961 . S
C1555 C1554 1.502 . S
C1556 H1542 0.960 . S
C1556 H1543 0.961 . S
C1556 H1544 0.959 . S
C1556 C1554 1.561 . S
C1557 C1554 1.526 . S
C1557 C1558 1.396 1_565 S
C1557 C1562 1.390 . S
C1558 C1552 1.465 . S
C1558 C1557 1.396 1_545 S
C1558 C1559 1.399 . S
C1559 H1545 0.929 . S
C1559 C1558 1.399 . S
C1559 C1560 1.385 . S
C1560 H1546 0.931 . S
C1560 C1559 1.385 . S
C1560 C1561 1.389 . S
C1561 C1560 1.389 . S
C1561 C1562 1.387 1_545 S
C1562 H1547 0.930 . S
C1562 C1557 1.390 . S
C1562 C1561 1.387 1_565 S
H1563 C1575 0.930 . S
H1564 C1577 0.930 . S
H1565 C1578 0.930 . S
H1566 C1582 0.959 . S
H1567 C1582 0.959 . S
H1568 C1582 0.961 . S
H1569 C1583 0.960 . S
H1570 C1583 0.961 . S
H1571 C1583 0.959 . S
H1572 C1586 0.929 . S
H1573 C1587 0.931 . S
H1574 C1589 0.930 . S
C1575 H1563 0.930 . S
C1575 C1576 1.399 . S
C1575 C1580 1.399 . S
C1576 C1575 1.399 . S
C1576 C1577 1.376 . S
C1577 H1564 0.930 . S
C1577 C1576 1.376 . S
C1577 C1578 1.388 . S
C1578 H1565 0.930 . S
C1578 C1577 1.388 . S
C1578 C1579 1.390 . S
C1579 C1578 1.390 . S
C1579 C1580 1.394 . S
C1579 C1585 1.465 . S
C1580 C1575 1.399 . S
C1580 C1579 1.394 . S
C1580 C1581 1.516 . S
C1581 C1580 1.516 . S
C1581 C1582 1.502 . S
C1581 C1583 1.561 . S
C1581 C1584 1.526 . S
C1582 H1566 0.959 . S
C1582 H1567 0.959 . S
C1582 H1568 0.961 . S
C1582 C1581 1.502 . S
C1583 H1569 0.960 . S
C1583 H1570 0.961 . S
C1583 H1571 0.959 . S
C1583 C1581 1.561 . S
C1584 C1581 1.526 . S
C1584 C1585 1.396 . S
C1584 C1589 1.390 . S
C1585 C1579 1.465 . S
C1585 C1584 1.396 . S
C1585 C1586 1.399 . S
C1586 H1572 0.929 . S
C1586 C1585 1.399 . S
C1586 C1587 1.385 . S
C1587 H1573 0.931 . S
C1587 C1586 1.385 . S
C1587 C1588 1.389 . S
C1588 C1587 1.389 . S
C1588 C1589 1.387 . S
C1589 H1574 0.930 . S
C1589 C1584 1.390 . S
C1589 C1588 1.387 . S
H1590 C1602 0.930 . S
H1591 C1604 0.930 . S
H1592 C1605 0.930 . S
H1593 C1609 0.959 . S
H1594 C1609 0.959 . S
H1595 C1609 0.961 . S
H1596 C1610 0.960 . S
H1597 C1610 0.961 . S
H1598 C1610 0.959 . S
H1599 C1613 0.929 . S
H1600 C1614 0.931 . S
H1601 C1616 0.930 . S
C1602 H1590 0.930 . S
C1602 C1603 1.399 . S
C1602 C1607 1.399 . S
C1603 C1602 1.399 . S
C1603 C1604 1.376 1_545 S
C1604 H1591 0.930 . S
C1604 C1603 1.376 1_565 S
C1604 C1605 1.388 . S
C1605 H1592 0.930 . S
C1605 C1604 1.388 . S
C1605 C1606 1.390 1_565 S
C1606 C1605 1.390 1_545 S
C1606 C1607 1.394 . S
C1606 C1612 1.465 . S
C1607 C1602 1.399 . S
C1607 C1606 1.394 . S
C1607 C1608 1.516 . S
C1608 C1607 1.516 . S
C1608 C1609 1.502 . S
C1608 C1610 1.561 . S
C1608 C1611 1.526 . S
C1609 H1593 0.959 . S
C1609 H1594 0.959 . S
C1609 H1595 0.961 . S
C1609 C1608 1.502 . S
C1610 H1596 0.960 . S
C1610 H1597 0.961 . S
C1610 H1598 0.959 . S
C1610 C1608 1.561 . S
C1611 C1608 1.526 . S
C1611 C1612 1.396 . S
C1611 C1616 1.390 . S
C1612 C1606 1.465 . S
C1612 C1611 1.396 . S
C1612 C1613 1.399 1_545 S
C1613 H1599 0.929 . S
C1613 C1612 1.399 1_565 S
C1613 C1614 1.385 . S
C1614 H1600 0.931 . S
C1614 C1613 1.385 . S
C1614 C1615 1.389 1_565 S
C1615 C1614 1.389 1_545 S
C1615 C1616 1.387 . S
C1616 H1601 0.930 . S
C1616 C1611 1.390 . S
C1616 C1615 1.387 . S
H1617 C1629 0.930 . S
H1618 C1631 0.930 . S
H1619 C1632 0.930 . S
H1620 C1636 0.959 . S
H1621 C1636 0.959 . S
H1622 C1636 0.961 . S
H1623 C1637 0.960 . S
H1624 C1637 0.961 . S
H1625 C1637 0.959 . S
H1626 C1640 0.929 . S
H1627 C1641 0.931 . S
H1628 C1643 0.930 . S
C1629 H1617 0.930 . S
C1629 C1630 1.399 . S
C1629 C1634 1.399 . S
C1630 C1629 1.399 . S
C1630 C1631 1.376 . S
C1631 H1618 0.930 . S
C1631 C1630 1.376 . S
C1631 C1632 1.388 . S
C1632 H1619 0.930 . S
C1632 C1631 1.388 . S
C1632 C1633 1.390 . S
C1633 C1632 1.390 . S
C1633 C1634 1.394 . S
C1633 C1639 1.465 . S
C1634 C1629 1.399 . S
C1634 C1633 1.394 . S
C1634 C1635 1.516 . S
C1635 C1634 1.516 . S
C1635 C1636 1.502 . S
C1635 C1637 1.561 . S
C1635 C1638 1.526 . S
C1636 H1620 0.959 . S
C1636 H1621 0.959 . S
C1636 H1622 0.961 . S
C1636 C1635 1.502 . S
C1637 H1623 0.960 . S
C1637 H1624 0.961 . S
C1637 H1625 0.959 . S
C1637 C1635 1.561 . S
C1638 C1635 1.526 . S
C1638 C1639 1.396 . S
C1638 C1643 1.390 . S
C1639 C1633 1.465 . S
C1639 C1638 1.396 . S
C1639 C1640 1.399 . S
C1640 H1626 0.929 . S
C1640 C1639 1.399 . S
C1640 C1641 1.385 . S
C1641 H1627 0.931 . S
C1641 C1640 1.385 . S
C1641 C1642 1.389 . S
C1642 C1641 1.389 . S
C1642 C1643 1.387 . S
C1643 H1628 0.930 . S
C1643 C1638 1.390 . S
C1643 C1642 1.387 . S
H1644 C1656 0.930 . S
H1645 C1658 0.930 . S
H1646 C1659 0.930 . S
H1647 C1663 0.959 . S
H1648 C1663 0.959 . S
H1649 C1663 0.961 . S
H1650 C1664 0.960 . S
H1651 C1664 0.961 . S
H1652 C1664 0.959 . S
H1653 C1667 0.929 . S
H1654 C1668 0.931 . S
H1655 C1670 0.930 . S
C1656 H1644 0.930 . S
C1656 C1657 1.399 1_565 S
C1656 C1661 1.399 . S
C1657 C1656 1.399 1_545 S
C1657 C1658 1.376 . S
C1658 H1645 0.930 . S
C1658 C1657 1.376 . S
C1658 C1659 1.388 . S
C1659 H1646 0.930 . S
C1659 C1658 1.388 . S
C1659 C1660 1.390 . S
C1660 C1659 1.390 . S
C1660 C1661 1.394 1_545 S
C1660 C1666 1.465 . S
C1661 C1656 1.399 . S
C1661 C1660 1.394 1_565 S
C1661 C1662 1.516 . S
C1662 C1661 1.516 . S
C1662 C1663 1.502 . S
C1662 C1664 1.561 . S
C1662 C1665 1.526 . S
C1663 H1647 0.959 . S
C1663 H1648 0.959 . S
C1663 H1649 0.961 . S
C1663 C1662 1.502 . S
C1664 H1650 0.960 . S
C1664 H1651 0.961 . S
C1664 H1652 0.959 . S
C1664 C1662 1.561 . S
C1665 C1662 1.526 . S
C1665 C1666 1.396 1_565 S
C1665 C1670 1.390 . S
C1666 C1660 1.465 . S
C1666 C1665 1.396 1_545 S
C1666 C1667 1.399 . S
C1667 H1653 0.929 . S
C1667 C1666 1.399 . S
C1667 C1668 1.385 . S
C1668 H1654 0.931 . S
C1668 C1667 1.385 . S
C1668 C1669 1.389 1_545 S
C1669 C1668 1.389 1_565 S
C1669 C1670 1.387 . S
C1670 H1655 0.930 . S
C1670 C1665 1.390 . S
C1670 C1669 1.387 . S
H1671 C1683 0.930 . S
H1672 C1685 0.930 . S
H1673 C1686 0.930 . S
H1674 C1690 0.959 . S
H1675 C1690 0.959 . S
H1676 C1690 0.961 . S
H1677 C1691 0.960 . S
H1678 C1691 0.961 . S
H1679 C1691 0.959 . S
H1680 C1694 0.929 . S
H1681 C1695 0.931 . S
H1682 C1697 0.930 . S
C1683 H1671 0.930 . S
C1683 C1684 1.399 . S
C1683 C1688 1.399 . S
C1684 C1683 1.399 . S
C1684 C1685 1.376 . S
C1685 H1672 0.930 . S
C1685 C1684 1.376 . S
C1685 C1686 1.388 . S
C1686 H1673 0.930 . S
C1686 C1685 1.388 . S
C1686 C1687 1.390 . S
C1687 C1686 1.390 . S
C1687 C1688 1.394 . S
C1687 C1693 1.465 . S
C1688 C1683 1.399 . S
C1688 C1687 1.394 . S
C1688 C1689 1.516 . S
C1689 C1688 1.516 . S
C1689 C1690 1.502 . S
C1689 C1691 1.561 . S
C1689 C1692 1.526 . S
C1690 H1674 0.959 . S
C1690 H1675 0.959 . S
C1690 H1676 0.961 . S
C1690 C1689 1.502 . S
C1691 H1677 0.960 . S
C1691 H1678 0.961 . S
C1691 H1679 0.959 . S
C1691 C1689 1.561 . S
C1692 C1689 1.526 . S
C1692 C1693 1.396 . S
C1692 C1697 1.390 . S
C1693 C1687 1.465 . S
C1693 C1692 1.396 . S
C1693 C1694 1.399 . S
C1694 H1680 0.929 . S
C1694 C1693 1.399 . S
C1694 C1695 1.385 . S
C1695 H1681 0.931 . S
C1695 C1694 1.385 . S
C1695 C1696 1.389 . S
C1696 C1695 1.389 . S
C1696 C1697 1.387 . S
C1697 H1682 0.930 . S
C1697 C1692 1.390 . S
C1697 C1696 1.387 . S
H1698 C1710 0.930 1_565 S
H1699 C1712 0.930 . S
H1700 C1713 0.930 . S
H1701 C1717 0.959 . S
H1702 C1717 0.959 . S
H1703 C1717 0.961 . S
H1704 C1718 0.960 . S
H1705 C1718 0.961 . S
H1706 C1718 0.959 . S
H1707 C1721 0.929 . S
H1708 C1722 0.931 . S
H1709 C1724 0.930 . S
C1710 H1698 0.930 1_545 S
C1710 C1711 1.399 . S
C1710 C1715 1.399 . S
C1711 C1710 1.399 . S
C1711 C1712 1.376 . S
C1712 H1699 0.930 . S
C1712 C1711 1.376 . S
C1712 C1713 1.388 . S
C1713 H1700 0.930 . S
C1713 C1712 1.388 . S
C1713 C1714 1.390 . S
C1714 C1713 1.390 . S
C1714 C1715 1.394 . S
C1714 C1720 1.465 . S
C1715 C1710 1.399 . S
C1715 C1714 1.394 . S
C1715 C1716 1.516 . S
C1716 C1715 1.516 . S
C1716 C1717 1.502 . S
C1716 C1718 1.561 1_545 S
C1716 C1719 1.526 . S
C1717 H1701 0.959 . S
C1717 H1702 0.959 . S
C1717 H1703 0.961 . S
C1717 C1716 1.502 . S
C1718 H1704 0.960 . S
C1718 H1705 0.961 . S
C1718 H1706 0.959 . S
C1718 C1716 1.561 1_565 S
C1719 C1716 1.526 . S
C1719 C1720 1.396 . S
C1719 C1724 1.390 . S
C1720 C1714 1.465 . S
C1720 C1719 1.396 . S
C1720 C1721 1.399 . S
C1721 H1707 0.929 . S
C1721 C1720 1.399 . S
C1721 C1722 1.385 . S
C1722 H1708 0.931 . S
C1722 C1721 1.385 . S
C1722 C1723 1.389 . S
C1723 C1722 1.389 . S
C1723 C1724 1.387 . S
C1724 H1709 0.930 . S
C1724 C1719 1.390 . S
C1724 C1723 1.387 . S
H1725 C1737 0.930 . S
H1726 C1739 0.930 . S
H1727 C1740 0.930 . S
H1728 C1744 0.959 . S
H1729 C1744 0.959 . S
H1730 C1744 0.961 . S
H1731 C1745 0.960 . S
H1732 C1745 0.961 . S
H1733 C1745 0.959 . S
H1734 C1748 0.929 . S
H1735 C1749 0.931 . S
H1736 C1751 0.930 . S
C1737 H1725 0.930 . S
C1737 C1738 1.399 . S
C1737 C1742 1.399 . S
C1738 C1737 1.399 . S
C1738 C1739 1.376 . S
C1739 H1726 0.930 . S
C1739 C1738 1.376 . S
C1739 C1740 1.388 . S
C1740 H1727 0.930 . S
C1740 C1739 1.388 . S
C1740 C1741 1.390 . S
C1741 C1740 1.390 . S
C1741 C1742 1.394 . S
C1741 C1747 1.465 . S
C1742 C1737 1.399 . S
C1742 C1741 1.394 . S
C1742 C1743 1.516 . S
C1743 C1742 1.516 . S
C1743 C1744 1.502 . S
C1743 C1745 1.561 . S
C1743 C1746 1.526 . S
C1744 H1728 0.959 . S
C1744 H1729 0.959 . S
C1744 H1730 0.961 . S
C1744 C1743 1.502 . S
C1745 H1731 0.960 . S
C1745 H1732 0.961 . S
C1745 H1733 0.959 . S
C1745 C1743 1.561 . S
C1746 C1743 1.526 . S
C1746 C1747 1.396 . S
C1746 C1751 1.390 . S
C1747 C1741 1.465 . S
C1747 C1746 1.396 . S
C1747 C1748 1.399 . S
C1748 H1734 0.929 . S
C1748 C1747 1.399 . S
C1748 C1749 1.385 . S
C1749 H1735 0.931 . S
C1749 C1748 1.385 . S
C1749 C1750 1.389 . S
C1750 C1749 1.389 . S
C1750 C1751 1.387 . S
C1751 H1736 0.930 . S
C1751 C1746 1.390 . S
C1751 C1750 1.387 . S
H1752 C1764 0.930 . S
H1753 C1766 0.930 . S
H1754 C1767 0.930 . S
H1755 C1771 0.959 . S
H1756 C1771 0.959 . S
H1757 C1771 0.961 . S
H1758 C1772 0.960 . S
H1759 C1772 0.961 . S
H1760 C1772 0.959 . S
H1761 C1775 0.929 . S
H1762 C1776 0.931 . S
H1763 C1778 0.930 . S
C1764 H1752 0.930 . S
C1764 C1765 1.399 . S
C1764 C1769 1.399 . S
C1765 C1764 1.399 . S
C1765 C1766 1.376 1_554 S
C1766 H1753 0.930 . S
C1766 C1765 1.376 1_556 S
C1766 C1767 1.388 . S
C1767 H1754 0.930 . S
C1767 C1766 1.388 . S
C1767 C1768 1.390 1_556 S
C1768 C1767 1.390 1_554 S
C1768 C1769 1.394 . S
C1768 C1774 1.465 . S
C1769 C1764 1.399 . S
C1769 C1768 1.394 . S
C1769 C1770 1.516 . S
C1770 C1769 1.516 . S
C1770 C1771 1.502 . S
C1770 C1772 1.561 . S
C1770 C1773 1.526 . S
C1771 H1755 0.959 . S
C1771 H1756 0.959 . S
C1771 H1757 0.961 . S
C1771 C1770 1.502 . S
C1772 H1758 0.960 . S
C1772 H1759 0.961 . S
C1772 H1760 0.959 . S
C1772 C1770 1.561 . S
C1773 C1770 1.526 . S
C1773 C1774 1.396 . S
C1773 C1778 1.390 . S
C1774 C1768 1.465 . S
C1774 C1773 1.396 . S
C1774 C1775 1.399 1_554 S
C1775 H1761 0.929 . S
C1775 C1774 1.399 1_556 S
C1775 C1776 1.385 . S
C1776 H1762 0.931 . S
C1776 C1775 1.385 . S
C1776 C1777 1.389 1_556 S
C1777 C1776 1.389 1_554 S
C1777 C1778 1.387 . S
C1778 H1763 0.930 . S
C1778 C1773 1.390 . S
C1778 C1777 1.387 . S
H1779 C1791 0.930 . S
H1780 C1793 0.930 . S
H1781 C1794 0.930 . S
H1782 C1798 0.959 . S
H1783 C1798 0.959 . S
H1784 C1798 0.961 . S
H1785 C1799 0.960 . S
H1786 C1799 0.961 . S
H1787 C1799 0.959 . S
H1788 C1802 0.929 . S
H1789 C1803 0.931 . S
H1790 C1805 0.930 . S
C1791 H1779 0.930 . S
C1791 C1792 1.399 1_556 S
C1791 C1796 1.402 . S
C1792 C1791 1.399 1_554 S
C1792 C1793 1.376 . S
C1793 H1780 0.930 . S
C1793 C1792 1.376 . S
C1793 C1794 1.388 . S
C1794 H1781 0.930 . S
C1794 C1793 1.388 . S
C1794 C1795 1.390 . S
C1795 C1794 1.390 . S
C1795 C1796 1.377 1_554 S
C1795 C1801 1.465 . S
C1796 C1791 1.402 . S
C1796 C1795 1.377 1_556 S
C1796 C1797 1.528 . S
C1797 C1796 1.528 . S
C1797 C1798 1.502 . S
C1797 C1799 1.561 . S
C1797 C1800 1.546 . S
C1798 H1782 0.959 . S
C1798 H1783 0.959 . S
C1798 H1784 0.961 . S
C1798 C1797 1.502 . S
C1799 H1785 0.960 . S
C1799 H1786 0.961 . S
C1799 H1787 0.959 . S
C1799 C1797 1.561 . S
C1800 C1797 1.546 . S
C1800 C1801 1.367 1_556 S
C1800 C1805 1.396 . S
C1801 C1795 1.465 . S
C1801 C1800 1.367 1_554 S
C1801 C1802 1.399 . S
C1802 H1788 0.929 . S
C1802 C1801 1.399 . S
C1802 C1803 1.385 . S
C1803 H1789 0.931 . S
C1803 C1802 1.385 . S
C1803 C1804 1.389 . S
C1804 C1803 1.389 . S
C1804 C1805 1.387 1_554 S
C1805 H1790 0.930 . S
C1805 C1800 1.396 . S
C1805 C1804 1.387 1_556 S
H1806 C1818 0.930 . S
H1807 C1820 0.930 . S
H1808 C1821 0.930 . S
H1809 C1825 0.959 . S
H1810 C1825 0.959 . S
H1811 C1825 0.961 . S
H1812 C1826 0.960 . S
H1813 C1826 0.961 . S
H1814 C1826 0.959 . S
H1815 C1829 0.929 . S
H1816 C1830 0.931 . S
H1817 C1832 0.930 . S
C1818 H1806 0.930 . S
C1818 C1819 1.399 . S
C1818 C1823 1.399 . S
C1819 C1818 1.399 . S
C1819 C1820 1.376 . S
C1820 H1807 0.930 . S
C1820 C1819 1.376 . S
C1820 C1821 1.388 . S
C1821 H1808 0.930 . S
C1821 C1820 1.388 . S
C1821 C1822 1.390 . S
C1822 C1821 1.390 . S
C1822 C1823 1.394 . S
C1822 C1828 1.465 . S
C1823 C1818 1.399 . S
C1823 C1822 1.394 . S
C1823 C1824 1.516 . S
C1824 C1823 1.516 . S
C1824 C1825 1.502 . S
C1824 C1826 1.561 . S
C1824 C1827 1.526 . S
C1825 H1809 0.959 . S
C1825 H1810 0.959 . S
C1825 H1811 0.961 . S
C1825 C1824 1.502 . S
C1826 H1812 0.960 . S
C1826 H1813 0.961 . S
C1826 H1814 0.959 . S
C1826 C1824 1.561 . S
C1827 C1824 1.526 . S
C1827 C1828 1.396 . S
C1827 C1832 1.390 . S
C1828 C1822 1.465 . S
C1828 C1827 1.396 . S
C1828 C1829 1.399 . S
C1829 H1815 0.929 . S
C1829 C1828 1.399 . S
C1829 C1830 1.385 . S
C1830 H1816 0.931 . S
C1830 C1829 1.385 . S
C1830 C1831 1.389 . S
C1831 C1830 1.389 . S
C1831 C1832 1.387 . S
C1832 H1817 0.930 . S
C1832 C1827 1.390 . S
C1832 C1831 1.387 . S
H1833 C1845 0.930 . S
H1834 C1847 0.930 . S
H1835 C1848 0.930 . S
H1836 C1852 0.959 . S
H1837 C1852 0.959 . S
H1838 C1852 0.961 . S
H1839 C1853 0.960 . S
H1840 C1853 0.961 . S
H1841 C1853 0.959 . S
H1842 C1856 0.929 . S
H1843 C1857 0.931 . S
H1844 C1859 0.930 . S
C1845 H1833 0.930 . S
C1845 C1846 1.399 . S
C1845 C1850 1.399 . S
C1846 C1845 1.399 . S
C1846 C1847 1.376 . S
C1847 H1834 0.930 . S
C1847 C1846 1.376 . S
C1847 C1848 1.388 . S
C1848 H1835 0.930 . S
C1848 C1847 1.388 . S
C1848 C1849 1.390 . S
C1849 C1848 1.390 . S
C1849 C1850 1.394 . S
C1849 C1855 1.465 . S
C1850 C1845 1.399 . S
C1850 C1849 1.394 . S
C1850 C1851 1.516 . S
C1851 C1850 1.516 . S
C1851 C1852 1.502 . S
C1851 C1853 1.561 . S
C1851 C1854 1.526 . S
C1852 H1836 0.959 . S
C1852 H1837 0.959 . S
C1852 H1838 0.961 . S
C1852 C1851 1.502 . S
C1853 H1839 0.960 . S
C1853 H1840 0.961 . S
C1853 H1841 0.959 . S
C1853 C1851 1.561 . S
C1854 C1851 1.526 . S
C1854 C1855 1.396 . S
C1854 C1859 1.390 . S
C1855 C1849 1.465 . S
C1855 C1854 1.396 . S
C1855 C1856 1.399 . S
C1856 H1842 0.929 . S
C1856 C1855 1.399 . S
C1856 C1857 1.385 . S
C1857 H1843 0.931 . S
C1857 C1856 1.385 . S
C1857 C1858 1.389 . S
C1858 C1857 1.389 . S
C1858 C1859 1.387 . S
C1859 H1844 0.930 . S
C1859 C1854 1.390 . S
C1859 C1858 1.387 . S
H1860 C1872 0.930 . S
H1861 C1874 0.930 . S
H1862 C1875 0.930 . S
H1863 C1879 0.959 . S
H1864 C1879 0.959 . S
H1865 C1879 0.961 . S
H1866 C1880 0.960 . S
H1867 C1880 0.961 . S
H1868 C1880 0.959 . S
H1869 C1883 0.929 . S
H1870 C1884 0.931 . S
H1871 C1886 0.930 . S
C1872 H1860 0.930 . S
C1872 C1873 1.399 . S
C1872 C1877 1.399 . S
C1873 C1872 1.399 . S
C1873 C1874 1.376 . S
C1874 H1861 0.930 . S
C1874 C1873 1.376 . S
C1874 C1875 1.388 . S
C1875 H1862 0.930 . S
C1875 C1874 1.388 . S
C1875 C1876 1.390 . S
C1876 C1875 1.390 . S
C1876 C1877 1.394 . S
C1876 C1882 1.465 . S
C1877 C1872 1.399 . S
C1877 C1876 1.394 . S
C1877 C1878 1.516 . S
C1878 C1877 1.516 . S
C1878 C1879 1.502 . S
C1878 C1880 1.561 . S
C1878 C1881 1.526 . S
C1879 H1863 0.959 . S
C1879 H1864 0.959 . S
C1879 H1865 0.961 . S
C1879 C1878 1.502 . S
C1880 H1866 0.960 . S
C1880 H1867 0.961 . S
C1880 H1868 0.959 . S
C1880 C1878 1.561 . S
C1881 C1878 1.526 . S
C1881 C1882 1.396 . S
C1881 C1886 1.390 . S
C1882 C1876 1.465 . S
C1882 C1881 1.396 . S
C1882 C1883 1.399 . S
C1883 H1869 0.929 . S
C1883 C1882 1.399 . S
C1883 C1884 1.385 . S
C1884 H1870 0.931 . S
C1884 C1883 1.385 . S
C1884 C1885 1.389 . S
C1885 C1884 1.389 . S
C1885 C1886 1.387 . S
C1886 H1871 0.930 . S
C1886 C1881 1.390 . S
C1886 C1885 1.387 . S
H1887 C1899 0.930 . S
H1888 C1901 0.930 . S
H1889 C1902 0.930 . S
H1890 C1906 0.959 . S
H1891 C1906 0.959 . S
H1892 C1906 0.961 . S
H1893 C1907 0.960 . S
H1894 C1907 0.961 . S
H1895 C1907 0.959 . S
H1896 C1910 0.929 . S
H1897 C1911 0.931 . S
H1898 C1913 0.930 . S
C1899 H1887 0.930 . S
C1899 C1900 1.399 . S
C1899 C1904 1.399 . S
C1900 C1899 1.399 . S
C1900 C1901 1.376 . S
C1901 H1888 0.930 . S
C1901 C1900 1.376 . S
C1901 C1902 1.388 . S
C1902 H1889 0.930 . S
C1902 C1901 1.388 . S
C1902 C1903 1.390 . S
C1903 C1902 1.390 . S
C1903 C1904 1.394 . S
C1903 C1909 1.465 . S
C1904 C1899 1.399 . S
C1904 C1903 1.394 . S
C1904 C1905 1.516 . S
C1905 C1904 1.516 . S
C1905 C1906 1.502 . S
C1905 C1907 1.561 . S
C1905 C1908 1.526 . S
C1906 H1890 0.959 . S
C1906 H1891 0.959 . S
C1906 H1892 0.961 . S
C1906 C1905 1.502 . S
C1907 H1893 0.960 . S
C1907 H1894 0.961 . S
C1907 H1895 0.959 . S
C1907 C1905 1.561 . S
C1908 C1905 1.526 . S
C1908 C1909 1.396 . S
C1908 C1913 1.390 . S
C1909 C1903 1.465 . S
C1909 C1908 1.396 . S
C1909 C1910 1.399 . S
C1910 H1896 0.929 . S
C1910 C1909 1.399 . S
C1910 C1911 1.385 . S
C1911 H1897 0.931 . S
C1911 C1910 1.385 . S
C1911 C1912 1.389 . S
C1912 C1911 1.389 . S
C1912 C1913 1.387 . S
C1913 H1898 0.930 . S
C1913 C1908 1.390 . S
C1913 C1912 1.387 . S
H1914 C1926 0.930 . S
H1915 C1928 0.930 . S
H1916 C1929 0.930 . S
H1917 C1933 0.959 . S
H1918 C1933 0.959 . S
H1919 C1933 0.961 . S
H1920 C1934 0.960 . S
H1921 C1934 0.961 . S
H1922 C1934 0.959 . S
H1923 C1937 0.929 . S
H1924 C1938 0.931 . S
H1925 C1940 0.930 . S
C1926 H1914 0.930 . S
C1926 C1927 1.399 . S
C1926 C1931 1.399 . S
C1927 C1926 1.399 . S
C1927 C1928 1.376 . S
C1928 H1915 0.930 . S
C1928 C1927 1.376 . S
C1928 C1929 1.388 . S
C1929 H1916 0.930 . S
C1929 C1928 1.388 . S
C1929 C1930 1.390 . S
C1930 C1929 1.390 . S
C1930 C1931 1.394 . S
C1930 C1936 1.465 . S
C1931 C1926 1.399 . S
C1931 C1930 1.394 . S
C1931 C1932 1.516 . S
C1932 C1931 1.516 . S
C1932 C1933 1.502 . S
C1932 C1934 1.561 . S
C1932 C1935 1.526 . S
C1933 H1917 0.959 . S
C1933 H1918 0.959 . S
C1933 H1919 0.961 . S
C1933 C1932 1.502 . S
C1934 H1920 0.960 . S
C1934 H1921 0.961 . S
C1934 H1922 0.959 . S
C1934 C1932 1.561 . S
C1935 C1932 1.526 . S
C1935 C1936 1.396 . S
C1935 C1940 1.390 . S
C1936 C1930 1.465 . S
C1936 C1935 1.396 . S
C1936 C1937 1.399 . S
C1937 H1923 0.929 . S
C1937 C1936 1.399 . S
C1937 C1938 1.385 . S
C1938 H1924 0.931 . S
C1938 C1937 1.385 . S
C1938 C1939 1.389 . S
C1939 C1938 1.389 . S
C1939 C1940 1.387 . S
C1940 H1925 0.930 . S
C1940 C1935 1.390 . S
C1940 C1939 1.387 . S
H1941 C1953 0.930 . S
H1942 C1955 0.930 . S
H1943 C1956 0.930 . S
H1944 C1960 0.959 . S
H1945 C1960 0.959 . S
H1946 C1960 0.961 . S
H1947 C1961 0.960 . S
H1948 C1961 0.961 . S
H1949 C1961 0.959 . S
H1950 C1964 0.929 . S
H1951 C1965 0.931 . S
H1952 C1967 0.930 . S
C1953 H1941 0.930 . S
C1953 C1954 1.399 . S
C1953 C1958 1.399 . S
C1954 C1953 1.399 . S
C1954 C1955 1.376 . S
C1955 H1942 0.930 . S
C1955 C1954 1.376 . S
C1955 C1956 1.388 . S
C1956 H1943 0.930 . S
C1956 C1955 1.388 . S
C1956 C1957 1.390 . S
C1957 C1956 1.390 . S
C1957 C1958 1.394 . S
C1957 C1963 1.465 . S
C1958 C1953 1.399 . S
C1958 C1957 1.394 . S
C1958 C1959 1.516 . S
C1959 C1958 1.516 . S
C1959 C1960 1.502 . S
C1959 C1961 1.561 . S
C1959 C1962 1.526 . S
C1960 H1944 0.959 . S
C1960 H1945 0.959 . S
C1960 H1946 0.961 . S
C1960 C1959 1.502 . S
C1961 H1947 0.960 . S
C1961 H1948 0.961 . S
C1961 H1949 0.959 . S
C1961 C1959 1.561 . S
C1962 C1959 1.526 . S
C1962 C1963 1.396 . S
C1962 C1967 1.390 . S
C1963 C1957 1.465 . S
C1963 C1962 1.396 . S
C1963 C1964 1.399 . S
C1964 H1950 0.929 . S
C1964 C1963 1.399 . S
C1964 C1965 1.385 . S
C1965 H1951 0.931 . S
C1965 C1964 1.385 . S
C1965 C1966 1.389 . S
C1966 C1965 1.389 . S
C1966 C1967 1.387 . S
C1967 H1952 0.930 . S
C1967 C1962 1.390 . S
C1967 C1966 1.387 . S
H1968 C1980 0.930 . S
H1969 C1982 0.930 . S
H1970 C1983 0.930 . S
H1971 C1987 0.959 . S
H1972 C1987 0.959 . S
H1973 C1987 0.961 . S
H1974 C1988 0.960 . S
H1975 C1988 0.961 . S
H1976 C1988 0.959 . S
H1977 C1991 0.929 . S
H1978 C1992 0.931 . S
H1979 C1994 0.930 . S
C1980 H1968 0.930 . S
C1980 C1981 1.399 . S
C1980 C1985 1.399 . S
C1981 C1980 1.399 . S
C1981 C1982 1.376 . S
C1982 H1969 0.930 . S
C1982 C1981 1.376 . S
C1982 C1983 1.388 . S
C1983 H1970 0.930 . S
C1983 C1982 1.388 . S
C1983 C1984 1.390 . S
C1984 C1983 1.390 . S
C1984 C1985 1.394 . S
C1984 C1990 1.465 . S
C1985 C1980 1.399 . S
C1985 C1984 1.394 . S
C1985 C1986 1.516 . S
C1986 C1985 1.516 . S
C1986 C1987 1.502 . S
C1986 C1988 1.561 . S
C1986 C1989 1.526 . S
C1987 H1971 0.959 . S
C1987 H1972 0.959 . S
C1987 H1973 0.961 . S
C1987 C1986 1.502 . S
C1988 H1974 0.960 . S
C1988 H1975 0.961 . S
C1988 H1976 0.959 . S
C1988 C1986 1.561 . S
C1989 C1986 1.526 . S
C1989 C1990 1.396 . S
C1989 C1994 1.390 . S
C1990 C1984 1.465 . S
C1990 C1989 1.396 . S
C1990 C1991 1.399 . S
C1991 H1977 0.929 . S
C1991 C1990 1.399 . S
C1991 C1992 1.385 . S
C1992 H1978 0.931 . S
C1992 C1991 1.385 . S
C1992 C1993 1.389 . S
C1993 C1992 1.389 . S
C1993 C1994 1.387 . S
C1994 H1979 0.930 . S
C1994 C1989 1.390 . S
C1994 C1993 1.387 . S
H1995 C2007 0.930 . S
H1996 C2009 0.930 . S
H1997 C2010 0.930 . S
H1998 C2014 0.959 . S
H1999 C2014 0.959 . S
H2000 C2014 0.961 . S
H2001 C2015 0.960 . S
H2002 C2015 0.961 . S
H2003 C2015 0.959 . S
H2004 C2018 0.929 . S
H2005 C2019 0.931 . S
H2006 C2021 0.930 . S
C2007 H1995 0.930 . S
C2007 C2008 1.399 . S
C2007 C2012 1.399 . S
C2008 C2007 1.399 . S
C2008 C2009 1.376 . S
C2009 H1996 0.930 . S
C2009 C2008 1.376 . S
C2009 C2010 1.388 . S
C2010 H1997 0.930 . S
C2010 C2009 1.388 . S
C2010 C2011 1.390 . S
C2011 C2010 1.390 . S
C2011 C2012 1.394 . S
C2011 C2017 1.465 . S
C2012 C2007 1.399 . S
C2012 C2011 1.394 . S
C2012 C2013 1.516 . S
C2013 C2012 1.516 . S
C2013 C2014 1.502 . S
C2013 C2015 1.561 . S
C2013 C2016 1.526 . S
C2014 H1998 0.959 . S
C2014 H1999 0.959 . S
C2014 H2000 0.961 . S
C2014 C2013 1.502 . S
C2015 H2001 0.960 . S
C2015 H2002 0.961 . S
C2015 H2003 0.959 . S
C2015 C2013 1.561 . S
C2016 C2013 1.526 . S
C2016 C2017 1.396 . S
C2016 C2021 1.390 . S
C2017 C2011 1.465 . S
C2017 C2016 1.396 . S
C2017 C2018 1.399 . S
C2018 H2004 0.929 . S
C2018 C2017 1.399 . S
C2018 C2019 1.385 . S
C2019 H2005 0.931 . S
C2019 C2018 1.385 . S
C2019 C2020 1.389 . S
C2020 C2019 1.389 . S
C2020 C2021 1.387 . S
C2021 H2006 0.930 . S
C2021 C2016 1.390 . S
C2021 C2020 1.387 . S
H2022 C2034 0.912 1_655 S
H2023 C2036 0.930 . S
H2024 C2037 0.930 . S
H2025 C2041 0.955 . S
H2026 C2041 0.962 1_655 S
H2027 C2041 0.962 1_655 S
H2028 C2042 0.960 . S
H2029 C2042 0.961 . S
H2030 C2042 0.959 . S
H2031 C2045 0.929 . S
H2032 C2046 0.931 . S
H2033 C2048 0.930 1_655 S
C2034 H2022 0.912 1_455 S
C2034 C2035 1.399 . S
C2034 C2039 1.399 . S
C2035 C2034 1.399 . S
C2035 C2036 1.376 . S
C2036 H2023 0.930 . S
C2036 C2035 1.376 . S
C2036 C2037 1.388 . S
C2037 H2024 0.930 . S
C2037 C2036 1.388 . S
C2037 C2038 1.390 . S
C2038 C2037 1.390 . S
C2038 C2039 1.394 . S
C2038 C2044 1.465 . S
C2039 C2034 1.399 . S
C2039 C2038 1.394 . S
C2039 C2040 1.516 1_455 S
C2040 C2039 1.516 1_655 S
C2040 C2041 1.502 1_655 S
C2040 C2042 1.561 . S
C2040 C2043 1.526 1_655 S
C2041 H2025 0.955 . S
C2041 H2026 0.962 1_455 S
C2041 H2027 0.962 1_455 S
C2041 C2040 1.502 1_455 S
C2042 H2028 0.960 . S
C2042 H2029 0.961 . S
C2042 H2030 0.959 . S
C2042 C2040 1.561 . S
C2043 C2040 1.526 1_455 S
C2043 C2044 1.396 . S
C2043 C2048 1.390 . S
C2044 C2038 1.465 . S
C2044 C2043 1.396 . S
C2044 C2045 1.399 . S
C2045 H2031 0.929 . S
C2045 C2044 1.399 . S
C2045 C2046 1.385 . S
C2046 H2032 0.931 . S
C2046 C2045 1.385 . S
C2046 C2047 1.389 . S
C2047 C2046 1.389 . S
C2047 C2048 1.387 . S
C2048 H2033 0.930 1_455 S
C2048 C2043 1.390 . S
C2048 C2047 1.387 . S
H2049 C2061 0.930 . S
H2050 C2063 0.930 . S
H2051 C2064 0.930 . S
H2052 C2068 0.959 . S
H2053 C2068 0.959 . S
H2054 C2068 0.961 . S
H2055 C2069 0.960 . S
H2056 C2069 0.961 . S
H2057 C2069 0.959 . S
H2058 C2072 0.929 . S
H2059 C2073 0.931 . S
H2060 C2075 0.930 . S
C2061 H2049 0.930 . S
C2061 C2062 1.399 . S
C2061 C2066 1.399 . S
C2062 C2061 1.399 . S
C2062 C2063 1.376 . S
C2063 H2050 0.930 . S
C2063 C2062 1.376 . S
C2063 C2064 1.388 . S
C2064 H2051 0.930 . S
C2064 C2063 1.388 . S
C2064 C2065 1.390 . S
C2065 C2064 1.390 . S
C2065 C2066 1.394 . S
C2065 C2071 1.465 . S
C2066 C2061 1.399 . S
C2066 C2065 1.394 . S
C2066 C2067 1.516 . S
C2067 C2066 1.516 . S
C2067 C2068 1.502 . S
C2067 C2069 1.561 . S
C2067 C2070 1.526 . S
C2068 H2052 0.959 . S
C2068 H2053 0.959 . S
C2068 H2054 0.961 . S
C2068 C2067 1.502 . S
C2069 H2055 0.960 . S
C2069 H2056 0.961 . S
C2069 H2057 0.959 . S
C2069 C2067 1.561 . S
C2070 C2067 1.526 . S
C2070 C2071 1.396 . S
C2070 C2075 1.390 . S
C2071 C2065 1.465 . S
C2071 C2070 1.396 . S
C2071 C2072 1.399 . S
C2072 H2058 0.929 . S
C2072 C2071 1.399 . S
C2072 C2073 1.385 . S
C2073 H2059 0.931 . S
C2073 C2072 1.385 . S
C2073 C2074 1.389 . S
C2074 C2073 1.389 . S
C2074 C2075 1.387 . S
C2075 H2060 0.930 . S
C2075 C2070 1.390 . S
C2075 C2074 1.387 . S
H2076 C2088 0.930 . S
H2077 C2090 0.930 . S
H2078 C2091 0.930 . S
H2079 C2095 0.959 . S
H2080 C2095 0.959 . S
H2081 C2095 0.961 . S
H2082 C2096 0.960 . S
H2083 C2096 0.961 . S
H2084 C2096 0.959 . S
H2085 C2099 0.929 . S
H2086 C2100 0.931 1_554 S
H2087 C2102 0.930 . S
C2088 H2076 0.930 . S
C2088 C2089 1.399 . S
C2088 C2093 1.399 . S
C2089 C2088 1.399 . S
C2089 C2090 1.376 . S
C2090 H2077 0.930 . S
C2090 C2089 1.376 . S
C2090 C2091 1.388 . S
C2091 H2078 0.930 . S
C2091 C2090 1.388 . S
C2091 C2092 1.390 . S
C2092 C2091 1.390 . S
C2092 C2093 1.394 . S
C2092 C2098 1.465 . S
C2093 C2088 1.399 . S
C2093 C2092 1.394 . S
C2093 C2094 1.516 . S
C2094 C2093 1.516 . S
C2094 C2095 1.502 . S
C2094 C2096 1.561 . S
C2094 C2097 1.526 . S
C2095 H2079 0.959 . S
C2095 H2080 0.959 . S
C2095 H2081 0.961 . S
C2095 C2094 1.502 . S
C2096 H2082 0.960 . S
C2096 H2083 0.961 . S
C2096 H2084 0.959 . S
C2096 C2094 1.561 . S
C2097 C2094 1.526 . S
C2097 C2098 1.396 . S
C2097 C2102 1.390 . S
C2098 C2092 1.465 . S
C2098 C2097 1.396 . S
C2098 C2099 1.399 . S
C2099 H2085 0.929 . S
C2099 C2098 1.399 . S
C2099 C2100 1.385 . S
C2100 H2086 0.931 1_556 S
C2100 C2099 1.385 . S
C2100 C2101 1.389 . S
C2101 C2100 1.389 . S
C2101 C2102 1.387 . S
C2102 H2087 0.930 . S
C2102 C2097 1.390 . S
C2102 C2101 1.387 . S
H2103 C2115 0.930 . S
H2104 C2117 0.930 . S
H2105 C2118 0.930 . S
H2106 C2122 0.959 . S
H2107 C2122 0.959 . S
H2108 C2122 0.961 . S
H2109 C2123 0.960 . S
H2110 C2123 0.961 . S
H2111 C2123 0.959 . S
H2112 C2126 0.929 . S
H2113 C2127 0.931 . S
H2114 C2129 0.930 . S
C2115 H2103 0.930 . S
C2115 C2116 1.399 . S
C2115 C2120 1.399 . S
C2116 C2115 1.399 . S
C2116 C2117 1.376 . S
C2117 H2104 0.930 . S
C2117 C2116 1.376 . S
C2117 C2118 1.388 . S
C2118 H2105 0.930 . S
C2118 C2117 1.388 . S
C2118 C2119 1.390 . S
C2119 C2118 1.390 . S
C2119 C2120 1.394 . S
C2119 C2125 1.465 . S
C2120 C2115 1.399 . S
C2120 C2119 1.394 . S
C2120 C2121 1.516 . S
C2121 C2120 1.516 . S
C2121 C2122 1.502 . S
C2121 C2123 1.561 . S
C2121 C2124 1.526 . S
C2122 H2106 0.959 . S
C2122 H2107 0.959 . S
C2122 H2108 0.961 . S
C2122 C2121 1.502 . S
C2123 H2109 0.960 . S
C2123 H2110 0.961 . S
C2123 H2111 0.959 . S
C2123 C2121 1.561 . S
C2124 C2121 1.526 . S
C2124 C2125 1.396 . S
C2124 C2129 1.390 . S
C2125 C2119 1.465 . S
C2125 C2124 1.396 . S
C2125 C2126 1.399 . S
C2126 H2112 0.929 . S
C2126 C2125 1.399 . S
C2126 C2127 1.385 . S
C2127 H2113 0.931 . S
C2127 C2126 1.385 . S
C2127 C2128 1.389 . S
C2128 C2127 1.389 . S
C2128 C2129 1.387 . S
C2129 H2114 0.930 . S
C2129 C2124 1.390 . S
C2129 C2128 1.387 . S
H2130 C2142 0.930 . S
H2131 C2144 0.930 . S
H2132 C2145 0.930 . S
H2133 C2149 0.959 . S
H2134 C2149 0.959 1_455 S
H2135 C2149 0.961 . S
H2136 C2150 0.960 . S
H2137 C2150 0.961 . S
H2138 C2150 0.959 . S
H2139 C2153 0.929 . S
H2140 C2154 0.931 . S
H2141 C2156 0.930 . S
C2142 H2130 0.930 . S
C2142 C2143 1.399 . S
C2142 C2147 1.399 . S
C2143 C2142 1.399 . S
C2143 C2144 1.376 . S
C2144 H2131 0.930 . S
C2144 C2143 1.376 . S
C2144 C2145 1.388 . S
C2145 H2132 0.930 . S
C2145 C2144 1.388 . S
C2145 C2146 1.390 . S
C2146 C2145 1.390 . S
C2146 C2147 1.394 . S
C2146 C2152 1.465 . S
C2147 C2142 1.399 . S
C2147 C2146 1.394 . S
C2147 C2148 1.516 . S
C2148 C2147 1.516 . S
C2148 C2149 1.502 1_455 S
C2148 C2150 1.561 . S
C2148 C2151 1.526 . S
C2149 H2133 0.959 . S
C2149 H2134 0.959 1_655 S
C2149 H2135 0.961 . S
C2149 C2148 1.502 1_655 S
C2150 H2136 0.960 . S
C2150 H2137 0.961 . S
C2150 H2138 0.959 . S
C2150 C2148 1.561 . S
C2151 C2148 1.526 . S
C2151 C2152 1.396 . S
C2151 C2156 1.390 . S
C2152 C2146 1.465 . S
C2152 C2151 1.396 . S
C2152 C2153 1.399 . S
C2153 H2139 0.929 . S
C2153 C2152 1.399 . S
C2153 C2154 1.385 . S
C2154 H2140 0.931 . S
C2154 C2153 1.385 . S
C2154 C2155 1.389 . S
C2155 C2154 1.389 . S
C2155 C2156 1.387 . S
C2156 H2141 0.930 . S
C2156 C2151 1.390 . S
C2156 C2155 1.387 . S
H2157 C2169 0.930 . S
H2158 C2171 0.930 . S
H2159 C2172 0.930 . S
H2160 C2176 0.959 . S
H2161 C2176 0.959 . S
H2162 C2176 0.961 . S
H2163 C2177 0.960 . S
H2164 C2177 0.961 . S
H2165 C2177 0.959 . S
H2166 C2180 0.929 . S
H2167 C2181 0.931 . S
H2168 C2183 0.930 . S
C2169 H2157 0.930 . S
C2169 C2170 1.399 . S
C2169 C2174 1.399 . S
C2170 C2169 1.399 . S
C2170 C2171 1.376 . S
C2171 H2158 0.930 . S
C2171 C2170 1.376 . S
C2171 C2172 1.388 . S
C2172 H2159 0.930 . S
C2172 C2171 1.388 . S
C2172 C2173 1.390 . S
C2173 C2172 1.390 . S
C2173 C2174 1.394 . S
C2173 C2179 1.465 . S
C2174 C2169 1.399 . S
C2174 C2173 1.394 . S
C2174 C2175 1.516 . S
C2175 C2174 1.516 . S
C2175 C2176 1.502 . S
C2175 C2177 1.561 . S
C2175 C2178 1.526 . S
C2176 H2160 0.959 . S
C2176 H2161 0.959 . S
C2176 H2162 0.961 . S
C2176 C2175 1.502 . S
C2177 H2163 0.960 . S
C2177 H2164 0.961 . S
C2177 H2165 0.959 . S
C2177 C2175 1.561 . S
C2178 C2175 1.526 . S
C2178 C2179 1.396 . S
C2178 C2183 1.390 . S
C2179 C2173 1.465 . S
C2179 C2178 1.396 . S
C2179 C2180 1.399 . S
C2180 H2166 0.929 . S
C2180 C2179 1.399 . S
C2180 C2181 1.385 . S
C2181 H2167 0.931 . S
C2181 C2180 1.385 . S
C2181 C2182 1.389 . S
C2182 C2181 1.389 . S
C2182 C2183 1.387 . S
C2183 H2168 0.930 . S
C2183 C2178 1.390 . S
C2183 C2182 1.387 . S
H2184 C2196 0.930 . S
H2185 C2198 0.930 . S
H2186 C2199 0.930 . S
H2187 C2203 0.959 . S
H2188 C2203 0.959 . S
H2189 C2203 0.961 . S
H2190 C2204 0.960 . S
H2191 C2204 0.961 . S
H2192 C2204 0.959 . S
H2193 C2207 0.929 . S
H2194 C2208 0.931 . S
H2195 C2210 0.930 . S
C2196 H2184 0.930 . S
C2196 C2197 1.399 . S
C2196 C2201 1.399 . S
C2197 C2196 1.399 . S
C2197 C2198 1.376 . S
C2198 H2185 0.930 . S
C2198 C2197 1.376 . S
C2198 C2199 1.388 . S
C2199 H2186 0.930 . S
C2199 C2198 1.388 . S
C2199 C2200 1.390 . S
C2200 C2199 1.390 . S
C2200 C2201 1.394 . S
C2200 C2206 1.465 . S
C2201 C2196 1.399 . S
C2201 C2200 1.394 . S
C2201 C2202 1.516 . S
C2202 C2201 1.516 . S
C2202 C2203 1.502 . S
C2202 C2204 1.561 . S
C2202 C2205 1.526 . S
C2203 H2187 0.959 . S
C2203 H2188 0.959 . S
C2203 H2189 0.961 . S
C2203 C2202 1.502 . S
C2204 H2190 0.960 . S
C2204 H2191 0.961 . S
C2204 H2192 0.959 . S
C2204 C2202 1.561 . S
C2205 C2202 1.526 . S
C2205 C2206 1.396 . S
C2205 C2210 1.390 . S
C2206 C2200 1.465 . S
C2206 C2205 1.396 . S
C2206 C2207 1.399 . S
C2207 H2193 0.929 . S
C2207 C2206 1.399 . S
C2207 C2208 1.385 . S
C2208 H2194 0.931 . S
C2208 C2207 1.385 . S
C2208 C2209 1.389 . S
C2209 C2208 1.389 . S
C2209 C2210 1.387 . S
C2210 H2195 0.930 . S
C2210 C2205 1.390 . S
C2210 C2209 1.387 . S
H2211 C2223 0.930 . S
H2212 C2225 0.930 . S
H2213 C2226 0.930 . S
H2214 C2230 0.959 . S
H2215 C2230 0.959 . S
H2216 C2230 0.961 . S
H2217 C2231 0.960 . S
H2218 C2231 0.961 . S
H2219 C2231 0.959 . S
H2220 C2234 0.929 . S
H2221 C2235 0.931 . S
H2222 C2237 0.930 . S
C2223 H2211 0.930 . S
C2223 C2224 1.399 . S
C2223 C2228 1.399 . S
C2224 C2223 1.399 . S
C2224 C2225 1.376 . S
C2225 H2212 0.930 . S
C2225 C2224 1.376 . S
C2225 C2226 1.388 . S
C2226 H2213 0.930 . S
C2226 C2225 1.388 . S
C2226 C2227 1.390 . S
C2227 C2226 1.390 . S
C2227 C2228 1.394 . S
C2227 C2233 1.465 . S
C2228 C2223 1.399 . S
C2228 C2227 1.394 . S
C2228 C2229 1.516 . S
C2229 C2228 1.516 . S
C2229 C2230 1.502 . S
C2229 C2231 1.561 . S
C2229 C2232 1.526 . S
C2230 H2214 0.959 . S
C2230 H2215 0.959 . S
C2230 H2216 0.961 . S
C2230 C2229 1.502 . S
C2231 H2217 0.960 . S
C2231 H2218 0.961 . S
C2231 H2219 0.959 . S
C2231 C2229 1.561 . S
C2232 C2229 1.526 . S
C2232 C2233 1.396 . S
C2232 C2237 1.390 . S
C2233 C2227 1.465 . S
C2233 C2232 1.396 . S
C2233 C2234 1.399 . S
C2234 H2220 0.929 . S
C2234 C2233 1.399 . S
C2234 C2235 1.385 . S
C2235 H2221 0.931 . S
C2235 C2234 1.385 . S
C2235 C2236 1.389 . S
C2236 C2235 1.389 . S
C2236 C2237 1.387 . S
C2237 H2222 0.930 . S
C2237 C2232 1.390 . S
C2237 C2236 1.387 . S
H2238 C2250 0.930 . S
H2239 C2252 0.930 . S
H2240 C2253 0.930 . S
H2241 C2257 0.959 . S
H2242 C2257 0.959 . S
H2243 C2257 0.961 . S
H2244 C2258 0.960 . S
H2245 C2258 0.961 . S
H2246 C2258 0.959 . S
H2247 C2261 0.929 . S
H2248 C2262 0.931 . S
H2249 C2264 0.930 . S
C2250 H2238 0.930 . S
C2250 C2251 1.399 . S
C2250 C2255 1.399 . S
C2251 C2250 1.399 . S
C2251 C2252 1.376 . S
C2252 H2239 0.930 . S
C2252 C2251 1.376 . S
C2252 C2253 1.388 . S
C2253 H2240 0.930 . S
C2253 C2252 1.388 . S
C2253 C2254 1.390 . S
C2254 C2253 1.390 . S
C2254 C2255 1.394 . S
C2254 C2260 1.465 . S
C2255 C2250 1.399 . S
C2255 C2254 1.394 . S
C2255 C2256 1.516 . S
C2256 C2255 1.516 . S
C2256 C2257 1.502 . S
C2256 C2258 1.561 . S
C2256 C2259 1.526 . S
C2257 H2241 0.959 . S
C2257 H2242 0.959 . S
C2257 H2243 0.961 . S
C2257 C2256 1.502 . S
C2258 H2244 0.960 . S
C2258 H2245 0.961 . S
C2258 H2246 0.959 . S
C2258 C2256 1.561 . S
C2259 C2256 1.526 . S
C2259 C2260 1.396 . S
C2259 C2264 1.390 . S
C2260 C2254 1.465 . S
C2260 C2259 1.396 . S
C2260 C2261 1.399 . S
C2261 H2247 0.929 . S
C2261 C2260 1.399 . S
C2261 C2262 1.385 . S
C2262 H2248 0.931 . S
C2262 C2261 1.385 . S
C2262 C2263 1.389 . S
C2263 C2262 1.389 . S
C2263 C2264 1.387 . S
C2264 H2249 0.930 . S
C2264 C2259 1.390 . S
C2264 C2263 1.387 . S
H2265 C2277 0.930 . S
H2266 C2279 0.930 . S
H2267 C2280 0.930 . S
H2268 C2284 0.959 . S
H2269 C2284 0.959 . S
H2270 C2284 0.961 . S
H2271 C2285 0.960 . S
H2272 C2285 0.961 . S
H2273 C2285 0.959 . S
H2274 C2288 0.929 . S
H2275 C2289 0.931 . S
H2276 C2291 0.930 . S
C2277 H2265 0.930 . S
C2277 C2278 1.399 . S
C2277 C2282 1.399 . S
C2278 C2277 1.399 . S
C2278 C2279 1.376 . S
C2279 H2266 0.930 . S
C2279 C2278 1.376 . S
C2279 C2280 1.388 . S
C2280 H2267 0.930 . S
C2280 C2279 1.388 . S
C2280 C2281 1.390 . S
C2281 C2280 1.390 . S
C2281 C2282 1.394 . S
C2281 C2287 1.465 . S
C2282 C2277 1.399 . S
C2282 C2281 1.394 . S
C2282 C2283 1.516 . S
C2283 C2282 1.516 . S
C2283 C2284 1.502 . S
C2283 C2285 1.561 . S
C2283 C2286 1.526 . S
C2284 H2268 0.959 . S
C2284 H2269 0.959 . S
C2284 H2270 0.961 . S
C2284 C2283 1.502 . S
C2285 H2271 0.960 . S
C2285 H2272 0.961 . S
C2285 H2273 0.959 . S
C2285 C2283 1.561 . S
C2286 C2283 1.526 . S
C2286 C2287 1.396 . S
C2286 C2291 1.390 . S
C2287 C2281 1.465 . S
C2287 C2286 1.396 . S
C2287 C2288 1.399 . S
C2288 H2274 0.929 . S
C2288 C2287 1.399 . S
C2288 C2289 1.385 . S
C2289 H2275 0.931 . S
C2289 C2288 1.385 . S
C2289 C2290 1.389 . S
C2290 C2289 1.389 . S
C2290 C2291 1.387 . S
C2291 H2276 0.930 . S
C2291 C2286 1.390 . S
C2291 C2290 1.387 . S
H2292 C2304 0.930 . S
H2293 C2306 0.930 . S
H2294 C2307 0.930 . S
H2295 C2311 0.959 . S
H2296 C2311 0.959 . S
H2297 C2311 0.961 . S
H2298 C2312 0.960 . S
H2299 C2312 0.961 . S
H2300 C2312 0.959 . S
H2301 C2315 0.929 . S
H2302 C2316 0.931 . S
H2303 C2318 0.930 . S
C2304 H2292 0.930 . S
C2304 C2305 1.399 . S
C2304 C2309 1.399 . S
C2305 C2304 1.399 . S
C2305 C2306 1.376 . S
C2306 H2293 0.930 . S
C2306 C2305 1.376 . S
C2306 C2307 1.388 . S
C2307 H2294 0.930 . S
C2307 C2306 1.388 . S
C2307 C2308 1.390 . S
C2308 C2307 1.390 . S
C2308 C2309 1.394 . S
C2308 C2314 1.465 . S
C2309 C2304 1.399 . S
C2309 C2308 1.394 . S
C2309 C2310 1.516 . S
C2310 C2309 1.516 . S
C2310 C2311 1.502 . S
C2310 C2312 1.561 . S
C2310 C2313 1.526 . S
C2311 H2295 0.959 . S
C2311 H2296 0.959 . S
C2311 H2297 0.961 . S
C2311 C2310 1.502 . S
C2312 H2298 0.960 . S
C2312 H2299 0.961 . S
C2312 H2300 0.959 . S
C2312 C2310 1.561 . S
C2313 C2310 1.526 . S
C2313 C2314 1.396 . S
C2313 C2318 1.390 . S
C2314 C2308 1.465 . S
C2314 C2313 1.396 . S
C2314 C2315 1.399 . S
C2315 H2301 0.929 . S
C2315 C2314 1.399 . S
C2315 C2316 1.385 . S
C2316 H2302 0.931 . S
C2316 C2315 1.385 . S
C2316 C2317 1.389 . S
C2317 C2316 1.389 . S
C2317 C2318 1.387 . S
C2318 H2303 0.930 . S
C2318 C2313 1.390 . S
C2318 C2317 1.387 . S
H2319 C2331 0.930 . S
H2320 C2333 0.930 . S
H2321 C2334 0.930 . S
H2322 C2338 0.959 . S
H2323 C2338 0.959 . S
H2324 C2338 0.961 . S
H2325 C2339 0.960 . S
H2326 C2339 0.961 . S
H2327 C2339 0.959 . S
H2328 C2342 0.929 . S
H2329 C2343 0.931 . S
H2330 C2345 0.930 . S
C2331 H2319 0.930 . S
C2331 C2332 1.399 . S
C2331 C2336 1.399 . S
C2332 C2331 1.399 . S
C2332 C2333 1.376 . S
C2333 H2320 0.930 . S
C2333 C2332 1.376 . S
C2333 C2334 1.388 . S
C2334 H2321 0.930 . S
C2334 C2333 1.388 . S
C2334 C2335 1.390 . S
C2335 C2334 1.390 . S
C2335 C2336 1.394 . S
C2335 C2341 1.465 . S
C2336 C2331 1.399 . S
C2336 C2335 1.394 . S
C2336 C2337 1.516 . S
C2337 C2336 1.516 . S
C2337 C2338 1.502 . S
C2337 C2339 1.561 . S
C2337 C2340 1.526 . S
C2338 H2322 0.959 . S
C2338 H2323 0.959 . S
C2338 H2324 0.961 . S
C2338 C2337 1.502 . S
C2339 H2325 0.960 . S
C2339 H2326 0.961 . S
C2339 H2327 0.959 . S
C2339 C2337 1.561 . S
C2340 C2337 1.526 . S
C2340 C2341 1.396 . S
C2340 C2345 1.390 . S
C2341 C2335 1.465 . S
C2341 C2340 1.396 . S
C2341 C2342 1.399 . S
C2342 H2328 0.929 . S
C2342 C2341 1.399 . S
C2342 C2343 1.385 . S
C2343 H2329 0.931 . S
C2343 C2342 1.385 . S
C2343 C2344 1.389 . S
C2344 C2343 1.389 . S
C2344 C2345 1.387 . S
C2345 H2330 0.930 . S
C2345 C2340 1.390 . S
C2345 C2344 1.387 . S
H2346 C2358 0.930 . S
H2347 C2360 0.930 . S
H2348 C2361 0.930 . S
H2349 C2365 0.959 . S
H2350 C2365 0.959 . S
H2351 C2365 0.961 . S
H2352 C2366 0.960 . S
H2353 C2366 0.961 1_455 S
H2354 C2366 0.959 . S
H2355 C2369 0.929 . S
H2356 C2370 0.931 . S
H2357 C2372 0.930 . S
C2358 H2346 0.930 . S
C2358 C2359 1.399 . S
C2358 C2363 1.399 . S
C2359 C2358 1.399 . S
C2359 C2360 1.376 . S
C2360 H2347 0.930 . S
C2360 C2359 1.376 . S
C2360 C2361 1.388 . S
C2361 H2348 0.930 . S
C2361 C2360 1.388 . S
C2361 C2362 1.390 . S
C2362 C2361 1.390 . S
C2362 C2363 1.394 . S
C2362 C2368 1.465 . S
C2363 C2358 1.399 . S
C2363 C2362 1.394 . S
C2363 C2364 1.516 . S
C2364 C2363 1.516 . S
C2364 C2365 1.502 . S
C2364 C2366 1.561 . S
C2364 C2367 1.526 . S
C2365 H2349 0.959 . S
C2365 H2350 0.959 . S
C2365 H2351 0.961 . S
C2365 C2364 1.502 . S
C2366 H2352 0.960 . S
C2366 H2353 0.961 1_655 S
C2366 H2354 0.959 . S
C2366 C2364 1.561 . S
C2367 C2364 1.526 . S
C2367 C2368 1.396 . S
C2367 C2372 1.390 . S
C2368 C2362 1.465 . S
C2368 C2367 1.396 . S
C2368 C2369 1.399 . S
C2369 H2355 0.929 . S
C2369 C2368 1.399 . S
C2369 C2370 1.385 . S
C2370 H2356 0.931 . S
C2370 C2369 1.385 . S
C2370 C2371 1.389 . S
C2371 C2370 1.389 . S
C2371 C2372 1.387 . S
C2372 H2357 0.930 . S
C2372 C2367 1.390 . S
C2372 C2371 1.387 . S
H2373 C2385 0.930 . S
H2374 C2387 0.930 . S
H2375 C2388 0.930 . S
H2376 C2392 0.959 . S
H2377 C2392 0.959 . S
H2378 C2392 0.961 . S
H2379 C2393 0.960 . S
H2380 C2393 0.961 . S
H2381 C2393 0.959 . S
H2382 C2396 0.929 . S
H2383 C2397 0.931 . S
H2384 C2399 0.930 . S
C2385 H2373 0.930 . S
C2385 C2386 1.399 . S
C2385 C2390 1.399 . S
C2386 C2385 1.399 . S
C2386 C2387 1.376 . S
C2387 H2374 0.930 . S
C2387 C2386 1.376 . S
C2387 C2388 1.388 . S
C2388 H2375 0.930 . S
C2388 C2387 1.388 . S
C2388 C2389 1.390 . S
C2389 C2388 1.390 . S
C2389 C2390 1.394 . S
C2389 C2395 1.465 . S
C2390 C2385 1.399 . S
C2390 C2389 1.394 . S
C2390 C2391 1.516 . S
C2391 C2390 1.516 . S
C2391 C2392 1.502 . S
C2391 C2393 1.561 . S
C2391 C2394 1.526 . S
C2392 H2376 0.959 . S
C2392 H2377 0.959 . S
C2392 H2378 0.961 . S
C2392 C2391 1.502 . S
C2393 H2379 0.960 . S
C2393 H2380 0.961 . S
C2393 H2381 0.959 . S
C2393 C2391 1.561 . S
C2394 C2391 1.526 . S
C2394 C2395 1.396 . S
C2394 C2399 1.390 . S
C2395 C2389 1.465 . S
C2395 C2394 1.396 . S
C2395 C2396 1.399 . S
C2396 H2382 0.929 . S
C2396 C2395 1.399 . S
C2396 C2397 1.385 . S
C2397 H2383 0.931 . S
C2397 C2396 1.385 . S
C2397 C2398 1.389 . S
C2398 C2397 1.389 . S
C2398 C2399 1.387 . S
C2399 H2384 0.930 . S
C2399 C2394 1.390 . S
C2399 C2398 1.387 . S
H2400 C2412 0.930 . S
H2401 C2414 0.930 . S
H2402 C2415 0.930 . S
H2403 C2419 0.959 . S
H2404 C2419 0.959 . S
H2405 C2419 0.961 . S
H2406 C2420 0.960 . S
H2407 C2420 0.961 . S
H2408 C2420 0.959 . S
H2409 C2423 0.929 . S
H2410 C2424 0.931 . S
H2411 C2426 0.930 . S
C2412 H2400 0.930 . S
C2412 C2413 1.399 . S
C2412 C2417 1.399 . S
C2413 C2412 1.399 . S
C2413 C2414 1.376 . S
C2414 H2401 0.930 . S
C2414 C2413 1.376 . S
C2414 C2415 1.388 . S
C2415 H2402 0.930 . S
C2415 C2414 1.388 . S
C2415 C2416 1.390 . S
C2416 C2415 1.390 . S
C2416 C2417 1.394 . S
C2416 C2422 1.465 . S
C2417 C2412 1.399 . S
C2417 C2416 1.394 . S
C2417 C2418 1.516 . S
C2418 C2417 1.516 . S
C2418 C2419 1.502 . S
C2418 C2420 1.561 . S
C2418 C2421 1.526 . S
C2419 H2403 0.959 . S
C2419 H2404 0.959 . S
C2419 H2405 0.961 . S
C2419 C2418 1.502 . S
C2420 H2406 0.960 . S
C2420 H2407 0.961 . S
C2420 H2408 0.959 . S
C2420 C2418 1.561 . S
C2421 C2418 1.526 . S
C2421 C2422 1.396 . S
C2421 C2426 1.390 . S
C2422 C2416 1.465 . S
C2422 C2421 1.396 . S
C2422 C2423 1.399 . S
C2423 H2409 0.929 . S
C2423 C2422 1.399 . S
C2423 C2424 1.385 . S
C2424 H2410 0.931 . S
C2424 C2423 1.385 . S
C2424 C2425 1.389 . S
C2425 C2424 1.389 . S
C2425 C2426 1.387 . S
C2426 H2411 0.930 . S
C2426 C2421 1.390 . S
C2426 C2425 1.387 . S
H2427 C2439 0.930 . S
H2428 C2441 0.930 . S
H2429 C2442 0.930 . S
H2430 C2446 0.959 . S
H2431 C2446 0.959 . S
H2432 C2446 0.961 . S
H2433 C2447 0.960 . S
H2434 C2447 0.961 . S
H2435 C2447 0.959 . S
H2436 C2450 0.929 . S
H2437 C2451 0.942 . S
H2438 C2453 0.930 . S
C2439 H2427 0.930 . S
C2439 C2440 1.399 . S
C2439 C2444 1.399 . S
C2440 C2439 1.399 . S
C2440 C2441 1.376 . S
C2441 H2428 0.930 . S
C2441 C2440 1.376 . S
C2441 C2442 1.388 . S
C2442 H2429 0.930 . S
C2442 C2441 1.388 . S
C2442 C2443 1.390 . S
C2443 C2442 1.390 . S
C2443 C2444 1.394 . S
C2443 C2449 1.465 . S
C2444 C2439 1.399 . S
C2444 C2443 1.394 . S
C2444 C2445 1.516 . S
C2445 C2444 1.516 . S
C2445 C2446 1.502 . S
C2445 C2447 1.561 . S
C2445 C2448 1.526 . S
C2446 H2430 0.959 . S
C2446 H2431 0.959 . S
C2446 H2432 0.961 . S
C2446 C2445 1.502 . S
C2447 H2433 0.960 . S
C2447 H2434 0.961 . S
C2447 H2435 0.959 . S
C2447 C2445 1.561 . S
C2448 C2445 1.526 . S
C2448 C2449 1.396 . S
C2448 C2453 1.390 . S
C2449 C2443 1.465 . S
C2449 C2448 1.396 . S
C2449 C2450 1.399 . S
C2450 H2436 0.929 . S
C2450 C2449 1.399 . S
C2450 C2451 1.385 . S
C2451 H2437 0.942 . S
C2451 C2450 1.385 . S
C2451 C2452 1.389 . S
C2452 C2451 1.389 . S
C2452 C2453 1.387 . S
C2453 H2438 0.930 . S
C2453 C2448 1.390 . S
C2453 C2452 1.387 . S
H2454 C2466 0.930 . S
H2455 C2468 0.930 . S
H2456 C2469 0.930 . S
H2457 C2473 0.959 . S
H2458 C2473 0.959 . S
H2459 C2473 0.961 . S
H2460 C2474 0.960 . S
H2461 C2474 0.961 . S
H2462 C2474 0.959 . S
H2463 C2477 0.929 . S
H2464 C2478 0.931 . S
H2465 C2480 0.930 . S
C2466 H2454 0.930 . S
C2466 C2467 1.399 . S
C2466 C2471 1.399 . S
C2467 C2466 1.399 . S
C2467 C2468 1.376 . S
C2468 H2455 0.930 . S
C2468 C2467 1.376 . S
C2468 C2469 1.388 . S
C2469 H2456 0.930 . S
C2469 C2468 1.388 . S
C2469 C2470 1.390 . S
C2470 C2469 1.390 . S
C2470 C2471 1.394 . S
C2470 C2476 1.465 . S
C2471 C2466 1.399 . S
C2471 C2470 1.394 . S
C2471 C2472 1.516 . S
C2472 C2471 1.516 . S
C2472 C2473 1.502 . S
C2472 C2474 1.561 . S
C2472 C2475 1.526 . S
C2473 H2457 0.959 . S
C2473 H2458 0.959 . S
C2473 H2459 0.961 . S
C2473 C2472 1.502 . S
C2474 H2460 0.960 . S
C2474 H2461 0.961 . S
C2474 H2462 0.959 . S
C2474 C2472 1.561 . S
C2475 C2472 1.526 . S
C2475 C2476 1.396 . S
C2475 C2480 1.390 . S
C2476 C2470 1.465 . S
C2476 C2475 1.396 . S
C2476 C2477 1.399 . S
C2477 H2463 0.929 . S
C2477 C2476 1.399 . S
C2477 C2478 1.385 . S
C2478 H2464 0.931 . S
C2478 C2477 1.385 . S
C2478 C2479 1.389 . S
C2479 C2478 1.389 . S
C2479 C2480 1.387 . S
C2480 H2465 0.930 . S
C2480 C2475 1.390 . S
C2480 C2479 1.387 . S
H2481 C2493 0.930 . S
H2482 C2495 0.930 . S
H2483 C2496 0.930 . S
H2484 C2500 0.959 . S
H2485 C2500 0.959 . S
H2486 C2500 0.961 . S
H2487 C2501 0.960 . S
H2488 C2501 0.961 . S
H2489 C2501 0.959 . S
H2490 C2504 0.929 . S
H2491 C2505 0.931 . S
H2492 C2507 0.930 . S
C2493 H2481 0.930 . S
C2493 C2494 1.399 . S
C2493 C2498 1.399 . S
C2494 C2493 1.399 . S
C2494 C2495 1.376 1_554 S
C2495 H2482 0.930 . S
C2495 C2494 1.376 1_556 S
C2495 C2496 1.388 . S
C2496 H2483 0.930 . S
C2496 C2495 1.388 . S
C2496 C2497 1.390 1_556 S
C2497 C2496 1.390 1_554 S
C2497 C2498 1.394 . S
C2497 C2503 1.465 . S
C2498 C2493 1.399 . S
C2498 C2497 1.394 . S
C2498 C2499 1.516 . S
C2499 C2498 1.516 . S
C2499 C2500 1.502 . S
C2499 C2501 1.561 . S
C2499 C2502 1.526 . S
C2500 H2484 0.959 . S
C2500 H2485 0.959 . S
C2500 H2486 0.961 . S
C2500 C2499 1.502 . S
C2501 H2487 0.960 . S
C2501 H2488 0.961 . S
C2501 H2489 0.959 . S
C2501 C2499 1.561 . S
C2502 C2499 1.526 . S
C2502 C2503 1.396 . S
C2502 C2507 1.390 . S
C2503 C2497 1.465 . S
C2503 C2502 1.396 . S
C2503 C2504 1.399 1_554 S
C2504 H2490 0.929 . S
C2504 C2503 1.399 1_556 S
C2504 C2505 1.385 . S
C2505 H2491 0.931 . S
C2505 C2504 1.385 . S
C2505 C2506 1.389 1_556 S
C2506 C2505 1.389 1_554 S
C2506 C2507 1.387 . S
C2507 H2492 0.930 . S
C2507 C2502 1.390 . S
C2507 C2506 1.387 . S
H2508 C2520 0.930 . S
H2509 C2522 0.930 . S
H2510 C2523 0.930 . S
H2511 C2527 0.959 . S
H2512 C2527 0.959 . S
H2513 C2527 0.961 . S
H2514 C2528 0.960 . S
H2515 C2528 0.961 . S
H2516 C2528 0.959 . S
H2517 C2531 0.929 . S
H2518 C2532 0.931 . S
H2519 C2534 0.930 . S
C2520 H2508 0.930 . S
C2520 C2521 1.399 . S
C2520 C2525 1.399 . S
C2521 C2520 1.399 . S
C2521 C2522 1.376 . S
C2522 H2509 0.930 . S
C2522 C2521 1.376 . S
C2522 C2523 1.388 . S
C2523 H2510 0.930 . S
C2523 C2522 1.388 . S
C2523 C2524 1.390 . S
C2524 C2523 1.390 . S
C2524 C2525 1.394 . S
C2524 C2530 1.465 . S
C2525 C2520 1.399 . S
C2525 C2524 1.394 . S
C2525 C2526 1.516 . S
C2526 C2525 1.516 . S
C2526 C2527 1.502 . S
C2526 C2528 1.561 . S
C2526 C2529 1.526 . S
C2527 H2511 0.959 . S
C2527 H2512 0.959 . S
C2527 H2513 0.961 . S
C2527 C2526 1.502 . S
C2528 H2514 0.960 . S
C2528 H2515 0.961 . S
C2528 H2516 0.959 . S
C2528 C2526 1.561 . S
C2529 C2526 1.526 . S
C2529 C2530 1.396 . S
C2529 C2534 1.390 . S
C2530 C2524 1.465 . S
C2530 C2529 1.396 . S
C2530 C2531 1.399 . S
C2531 H2517 0.929 . S
C2531 C2530 1.399 . S
C2531 C2532 1.385 . S
C2532 H2518 0.931 . S
C2532 C2531 1.385 . S
C2532 C2533 1.389 . S
C2533 C2532 1.389 . S
C2533 C2534 1.387 . S
C2534 H2519 0.930 . S
C2534 C2529 1.390 . S
C2534 C2533 1.387 . S
H2535 C2547 0.930 . S
H2536 C2549 0.930 . S
H2537 C2550 0.930 . S
H2538 C2554 0.959 . S
H2539 C2554 0.959 . S
H2540 C2554 0.961 . S
H2541 C2555 0.960 . S
H2542 C2555 0.961 . S
H2543 C2555 0.959 . S
H2544 C2558 0.929 . S
H2545 C2559 0.931 . S
H2546 C2561 0.930 . S
C2547 H2535 0.930 . S
C2547 C2548 1.399 . S
C2547 C2552 1.399 . S
C2548 C2547 1.399 . S
C2548 C2549 1.376 1_554 S
C2549 H2536 0.930 . S
C2549 C2548 1.376 1_556 S
C2549 C2550 1.388 . S
C2550 H2537 0.930 . S
C2550 C2549 1.388 . S
C2550 C2551 1.391 . S
C2551 C2550 1.391 . S
C2551 C2552 1.393 1_556 S
C2551 C2557 1.465 . S
C2552 C2547 1.399 . S
C2552 C2551 1.393 1_554 S
C2552 C2553 1.516 . S
C2553 C2552 1.516 . S
C2553 C2554 1.502 . S
C2553 C2555 1.561 . S
C2553 C2556 1.526 . S
C2554 H2538 0.959 . S
C2554 H2539 0.959 . S
C2554 H2540 0.961 . S
C2554 C2553 1.502 . S
C2555 H2541 0.960 . S
C2555 H2542 0.961 . S
C2555 H2543 0.959 . S
C2555 C2553 1.561 . S
C2556 C2553 1.526 . S
C2556 C2557 1.396 1_554 S
C2556 C2561 1.390 . S
C2557 C2551 1.465 . S
C2557 C2556 1.396 1_556 S
C2557 C2558 1.399 . S
C2558 H2544 0.929 . S
C2558 C2557 1.399 . S
C2558 C2559 1.385 . S
C2559 H2545 0.931 . S
C2559 C2558 1.385 . S
C2559 C2560 1.389 1_556 S
C2560 C2559 1.389 1_554 S
C2560 C2561 1.387 . S
C2561 H2546 0.930 . S
C2561 C2556 1.390 . S
C2561 C2560 1.387 . S
H2562 C2574 0.930 . S
H2563 C2576 0.930 . S
H2564 C2577 0.930 . S
H2565 C2581 0.959 . S
H2566 C2581 0.959 . S
H2567 C2581 0.961 . S
H2568 C2582 0.960 . S
H2569 C2582 0.961 . S
H2570 C2582 0.959 . S
H2571 C2585 0.929 . S
H2572 C2586 0.931 . S
H2573 C2588 0.930 . S
C2574 H2562 0.930 . S
C2574 C2575 1.399 . S
C2574 C2579 1.399 . S
C2575 C2574 1.399 . S
C2575 C2576 1.376 . S
C2576 H2563 0.930 . S
C2576 C2575 1.376 . S
C2576 C2577 1.388 . S
C2577 H2564 0.930 . S
C2577 C2576 1.388 . S
C2577 C2578 1.390 . S
C2578 C2577 1.390 . S
C2578 C2579 1.394 . S
C2578 C2584 1.465 . S
C2579 C2574 1.399 . S
C2579 C2578 1.394 . S
C2579 C2580 1.516 . S
C2580 C2579 1.516 . S
C2580 C2581 1.502 . S
C2580 C2582 1.561 . S
C2580 C2583 1.526 . S
C2581 H2565 0.959 . S
C2581 H2566 0.959 . S
C2581 H2567 0.961 . S
C2581 C2580 1.502 . S
C2582 H2568 0.960 . S
C2582 H2569 0.961 . S
C2582 H2570 0.959 . S
C2582 C2580 1.561 . S
C2583 C2580 1.526 . S
C2583 C2584 1.396 . S
C2583 C2588 1.390 . S
C2584 C2578 1.465 . S
C2584 C2583 1.396 . S
C2584 C2585 1.399 . S
C2585 H2571 0.929 . S
C2585 C2584 1.399 . S
C2585 C2586 1.385 . S
C2586 H2572 0.931 . S
C2586 C2585 1.385 . S
C2586 C2587 1.389 . S
C2587 C2586 1.389 . S
C2587 C2588 1.387 . S
C2588 H2573 0.930 . S
C2588 C2583 1.390 . S
C2588 C2587 1.387 . S
H2589 C2601 0.930 . S
H2590 C2603 0.930 . S
H2591 C2604 0.930 . S
H2592 C2608 0.959 . S
H2593 C2608 0.959 . S
H2594 C2608 0.961 . S
H2595 C2609 0.960 . S
H2596 C2609 0.961 . S
H2597 C2609 0.959 . S
H2598 C2612 0.929 . S
H2599 C2613 0.931 . S
H2600 C2615 0.930 . S
C2601 H2589 0.930 . S
C2601 C2602 1.399 . S
C2601 C2606 1.399 . S
C2602 C2601 1.399 . S
C2602 C2603 1.376 . S
C2603 H2590 0.930 . S
C2603 C2602 1.376 . S
C2603 C2604 1.388 . S
C2604 H2591 0.930 . S
C2604 C2603 1.388 . S
C2604 C2605 1.390 . S
C2605 C2604 1.390 . S
C2605 C2606 1.394 . S
C2605 C2611 1.465 . S
C2606 C2601 1.399 . S
C2606 C2605 1.394 . S
C2606 C2607 1.516 . S
C2607 C2606 1.516 . S
C2607 C2608 1.502 . S
C2607 C2609 1.561 . S
C2607 C2610 1.526 . S
C2608 H2592 0.959 . S
C2608 H2593 0.959 . S
C2608 H2594 0.961 . S
C2608 C2607 1.502 . S
C2609 H2595 0.960 . S
C2609 H2596 0.961 . S
C2609 H2597 0.959 . S
C2609 C2607 1.561 . S
C2610 C2607 1.526 . S
C2610 C2611 1.396 . S
C2610 C2615 1.390 . S
C2611 C2605 1.465 . S
C2611 C2610 1.396 . S
C2611 C2612 1.399 . S
C2612 H2598 0.929 . S
C2612 C2611 1.399 . S
C2612 C2613 1.385 . S
C2613 H2599 0.931 . S
C2613 C2612 1.385 . S
C2613 C2614 1.389 . S
C2614 C2613 1.389 . S
C2614 C2615 1.387 . S
C2615 H2600 0.930 . S
C2615 C2610 1.390 . S
C2615 C2614 1.387 . S
H2616 C2628 0.930 . S
H2617 C2630 0.930 . S
H2618 C2631 0.930 . S
H2619 C2635 0.959 . S
H2620 C2635 0.959 . S
H2621 C2635 0.961 . S
H2622 C2636 0.960 . S
H2623 C2636 0.961 . S
H2624 C2636 0.959 . S
H2625 C2639 0.929 . S
H2626 C2640 0.931 . S
H2627 C2642 0.930 . S
C2628 H2616 0.930 . S
C2628 C2629 1.399 . S
C2628 C2633 1.399 . S
C2629 C2628 1.399 . S
C2629 C2630 1.376 . S
C2630 H2617 0.930 . S
C2630 C2629 1.376 . S
C2630 C2631 1.388 . S
C2631 H2618 0.930 . S
C2631 C2630 1.388 . S
C2631 C2632 1.390 . S
C2632 C2631 1.390 . S
C2632 C2633 1.394 . S
C2632 C2638 1.465 . S
C2633 C2628 1.399 . S
C2633 C2632 1.394 . S
C2633 C2634 1.516 . S
C2634 C2633 1.516 . S
C2634 C2635 1.502 . S
C2634 C2636 1.561 . S
C2634 C2637 1.526 . S
C2635 H2619 0.959 . S
C2635 H2620 0.959 . S
C2635 H2621 0.961 . S
C2635 C2634 1.502 . S
C2636 H2622 0.960 . S
C2636 H2623 0.961 . S
C2636 H2624 0.959 . S
C2636 C2634 1.561 . S
C2637 C2634 1.526 . S
C2637 C2638 1.396 . S
C2637 C2642 1.390 . S
C2638 C2632 1.465 . S
C2638 C2637 1.396 . S
C2638 C2639 1.399 . S
C2639 H2625 0.929 . S
C2639 C2638 1.399 . S
C2639 C2640 1.385 . S
C2640 H2626 0.931 . S
C2640 C2639 1.385 . S
C2640 C2641 1.389 . S
C2641 C2640 1.389 . S
C2641 C2642 1.387 . S
C2642 H2627 0.930 . S
C2642 C2637 1.390 . S
C2642 C2641 1.387 . S
H2643 C2655 0.930 . S
H2644 C2657 0.930 . S
H2645 C2658 0.930 . S
H2646 C2662 0.959 . S
H2647 C2662 0.959 . S
H2648 C2662 0.961 . S
H2649 C2663 0.960 . S
H2650 C2663 0.961 . S
H2651 C2663 0.959 . S
H2652 C2666 0.929 . S
H2653 C2667 0.931 . S
H2654 C2669 0.930 . S
C2655 H2643 0.930 . S
C2655 C2656 1.399 . S
C2655 C2660 1.399 . S
C2656 C2655 1.399 . S
C2656 C2657 1.376 . S
C2657 H2644 0.930 . S
C2657 C2656 1.376 . S
C2657 C2658 1.388 . S
C2658 H2645 0.930 . S
C2658 C2657 1.388 . S
C2658 C2659 1.390 . S
C2659 C2658 1.390 . S
C2659 C2660 1.394 . S
C2659 C2665 1.465 . S
C2660 C2655 1.399 . S
C2660 C2659 1.394 . S
C2660 C2661 1.516 . S
C2661 C2660 1.516 . S
C2661 C2662 1.502 . S
C2661 C2663 1.561 . S
C2661 C2664 1.526 . S
C2662 H2646 0.959 . S
C2662 H2647 0.959 . S
C2662 H2648 0.961 . S
C2662 C2661 1.502 . S
C2663 H2649 0.960 . S
C2663 H2650 0.961 . S
C2663 H2651 0.959 . S
C2663 C2661 1.561 . S
C2664 C2661 1.526 . S
C2664 C2665 1.396 . S
C2664 C2669 1.390 . S
C2665 C2659 1.465 . S
C2665 C2664 1.396 . S
C2665 C2666 1.399 . S
C2666 H2652 0.929 . S
C2666 C2665 1.399 . S
C2666 C2667 1.385 . S
C2667 H2653 0.931 . S
C2667 C2666 1.385 . S
C2667 C2668 1.389 . S
C2668 C2667 1.389 . S
C2668 C2669 1.387 . S
C2669 H2654 0.930 . S
C2669 C2664 1.390 . S
C2669 C2668 1.387 . S
H2670 C2682 0.930 . S
H2671 C2684 0.924 1_655 S
H2672 C2685 0.930 . S
H2673 C2689 0.959 . S
H2674 C2689 0.959 1_554 S
H2675 C2689 0.961 . S
H2676 C2690 0.960 . S
H2677 C2690 0.961 1_554 S
H2678 C2690 0.959 . S
H2679 C2693 0.929 . S
H2680 C2694 0.931 . S
H2681 C2696 0.930 1_554 S
C2682 H2670 0.930 . S
C2682 C2683 1.399 . S
C2682 C2687 1.399 . S
C2683 C2682 1.399 . S
C2683 C2684 1.387 . S
C2684 H2671 0.924 1_455 S
C2684 C2683 1.387 . S
C2684 C2685 1.385 1_455 S
C2685 H2672 0.930 . S
C2685 C2684 1.385 1_655 S
C2685 C2686 1.384 1_655 S
C2686 C2685 1.384 1_455 S
C2686 C2687 1.404 . S
C2686 C2692 1.465 1_455 S
C2687 C2682 1.399 . S
C2687 C2686 1.404 . S
C2687 C2688 1.516 . S
C2688 C2687 1.516 . S
C2688 C2689 1.502 . S
C2688 C2690 1.561 1_455 S
C2688 C2691 1.526 . S
C2689 H2673 0.959 . S
C2689 H2674 0.959 1_556 S
C2689 H2675 0.961 . S
C2689 C2688 1.502 . S
C2690 H2676 0.960 . S
C2690 H2677 0.961 1_556 S
C2690 H2678 0.959 . S
C2690 C2688 1.561 1_655 S
C2691 C2688 1.526 . S
C2691 C2692 1.396 1_455 S
C2691 C2696 1.390 . S
C2692 C2686 1.465 1_655 S
C2692 C2691 1.396 1_655 S
C2692 C2693 1.399 . S
C2693 H2679 0.929 . S
C2693 C2692 1.399 . S
C2693 C2694 1.385 . S
C2694 H2680 0.931 . S
C2694 C2693 1.385 . S
C2694 C2695 1.401 . S
C2695 C2694 1.401 . S
C2695 C2696 1.379 1_655 S
C2696 H2681 0.930 1_556 S
C2696 C2691 1.390 . S
C2696 C2695 1.379 1_455 S
H2697 C2709 0.930 . S
H2698 C2711 0.930 . S
H2699 C2712 0.930 . S
H2700 C2716 0.959 . S
H2701 C2716 0.959 . S
H2702 C2716 0.961 . S
H2703 C2717 0.960 . S
H2704 C2717 0.961 . S
H2705 C2717 0.959 . S
H2706 C2720 0.929 . S
H2707 C2721 0.931 . S
H2708 C2723 0.930 . S
C2709 H2697 0.930 . S
C2709 C2710 1.399 . S
C2709 C2714 1.399 . S
C2710 C2709 1.399 . S
C2710 C2711 1.376 . S
C2711 H2698 0.930 . S
C2711 C2710 1.376 . S
C2711 C2712 1.388 . S
C2712 H2699 0.930 . S
C2712 C2711 1.388 . S
C2712 C2713 1.390 . S
C2713 C2712 1.390 . S
C2713 C2714 1.394 . S
C2713 C2719 1.465 . S
C2714 C2709 1.399 . S
C2714 C2713 1.394 . S
C2714 C2715 1.516 . S
C2715 C2714 1.516 . S
C2715 C2716 1.502 . S
C2715 C2717 1.561 . S
C2715 C2718 1.526 . S
C2716 H2700 0.959 . S
C2716 H2701 0.959 . S
C2716 H2702 0.961 . S
C2716 C2715 1.502 . S
C2717 H2703 0.960 . S
C2717 H2704 0.961 . S
C2717 H2705 0.959 . S
C2717 C2715 1.561 . S
C2718 C2715 1.526 . S
C2718 C2719 1.396 . S
C2718 C2723 1.390 . S
C2719 C2713 1.465 . S
C2719 C2718 1.396 . S
C2719 C2720 1.399 . S
C2720 H2706 0.929 . S
C2720 C2719 1.399 . S
C2720 C2721 1.385 . S
C2721 H2707 0.931 . S
C2721 C2720 1.385 . S
C2721 C2722 1.389 . S
C2722 C2721 1.389 . S
C2722 C2723 1.387 . S
C2723 H2708 0.930 . S
C2723 C2718 1.390 . S
C2723 C2722 1.387 . S
H2724 C2736 0.930 . S
H2725 C2738 0.930 . S
H2726 C2739 0.930 . S
H2727 C2743 0.959 . S
H2728 C2743 0.959 . S
H2729 C2743 0.961 . S
H2730 C2744 0.960 . S
H2731 C2744 0.961 . S
H2732 C2744 0.959 . S
H2733 C2747 0.929 . S
H2734 C2748 0.931 . S
H2735 C2750 0.930 . S
C2736 H2724 0.930 . S
C2736 C2737 1.399 . S
C2736 C2741 1.399 . S
C2737 C2736 1.399 . S
C2737 C2738 1.376 . S
C2738 H2725 0.930 . S
C2738 C2737 1.376 . S
C2738 C2739 1.388 . S
C2739 H2726 0.930 . S
C2739 C2738 1.388 . S
C2739 C2740 1.390 . S
C2740 C2739 1.390 . S
C2740 C2741 1.394 . S
C2740 C2746 1.465 . S
C2741 C2736 1.399 . S
C2741 C2740 1.394 . S
C2741 C2742 1.516 . S
C2742 C2741 1.516 . S
C2742 C2743 1.502 . S
C2742 C2744 1.561 . S
C2742 C2745 1.526 . S
C2743 H2727 0.959 . S
C2743 H2728 0.959 . S
C2743 H2729 0.961 . S
C2743 C2742 1.502 . S
C2744 H2730 0.960 . S
C2744 H2731 0.961 . S
C2744 H2732 0.959 . S
C2744 C2742 1.561 . S
C2745 C2742 1.526 . S
C2745 C2746 1.396 . S
C2745 C2750 1.390 . S
C2746 C2740 1.465 . S
C2746 C2745 1.396 . S
C2746 C2747 1.399 . S
C2747 H2733 0.929 . S
C2747 C2746 1.399 . S
C2747 C2748 1.385 . S
C2748 H2734 0.931 . S
C2748 C2747 1.385 . S
C2748 C2749 1.389 . S
C2749 C2748 1.389 . S
C2749 C2750 1.387 . S
C2750 H2735 0.930 . S
C2750 C2745 1.390 . S
C2750 C2749 1.387 . S
H2751 C2763 0.930 . S
H2752 C2765 0.930 . S
H2753 C2766 0.930 . S
H2754 C2770 0.959 . S
H2755 C2770 0.959 . S
H2756 C2770 0.961 . S
H2757 C2771 0.960 . S
H2758 C2771 0.961 . S
H2759 C2771 0.959 . S
H2760 C2774 0.929 . S
H2761 C2775 0.931 . S
H2762 C2777 0.930 . S
C2763 H2751 0.930 . S
C2763 C2764 1.399 . S
C2763 C2768 1.399 . S
C2764 C2763 1.399 . S
C2764 C2765 1.376 . S
C2765 H2752 0.930 . S
C2765 C2764 1.376 . S
C2765 C2766 1.388 . S
C2766 H2753 0.930 . S
C2766 C2765 1.388 . S
C2766 C2767 1.390 . S
C2767 C2766 1.390 . S
C2767 C2768 1.394 . S
C2767 C2773 1.465 . S
C2768 C2763 1.399 . S
C2768 C2767 1.394 . S
C2768 C2769 1.516 . S
C2769 C2768 1.516 . S
C2769 C2770 1.502 . S
C2769 C2771 1.561 . S
C2769 C2772 1.526 . S
C2770 H2754 0.959 . S
C2770 H2755 0.959 . S
C2770 H2756 0.961 . S
C2770 C2769 1.502 . S
C2771 H2757 0.960 . S
C2771 H2758 0.961 . S
C2771 H2759 0.959 . S
C2771 C2769 1.561 . S
C2772 C2769 1.526 . S
C2772 C2773 1.396 . S
C2772 C2777 1.390 . S
C2773 C2767 1.465 . S
C2773 C2772 1.396 . S
C2773 C2774 1.399 . S
C2774 H2760 0.929 . S
C2774 C2773 1.399 . S
C2774 C2775 1.385 . S
C2775 H2761 0.931 . S
C2775 C2774 1.385 . S
C2775 C2776 1.389 . S
C2776 C2775 1.389 . S
C2776 C2777 1.387 . S
C2777 H2762 0.930 . S
C2777 C2772 1.390 . S
C2777 C2776 1.387 . S
H2778 C2790 0.930 . S
H2779 C2792 0.930 . S
H2780 C2793 0.930 . S
H2781 C2797 0.959 . S
H2782 C2797 0.959 . S
H2783 C2797 0.961 . S
H2784 C2798 0.960 . S
H2785 C2798 0.961 . S
H2786 C2798 0.959 1_455 S
H2787 C2801 0.929 . S
H2788 C2802 0.931 . S
H2789 C2804 0.930 . S
C2790 H2778 0.930 . S
C2790 C2791 1.399 1_655 S
C2790 C2795 1.397 1_655 S
C2791 C2790 1.399 1_455 S
C2791 C2792 1.376 . S
C2792 H2779 0.930 . S
C2792 C2791 1.376 . S
C2792 C2793 1.388 . S
C2793 H2780 0.930 . S
C2793 C2792 1.388 . S
C2793 C2794 1.390 . S
C2794 C2793 1.390 . S
C2794 C2795 1.424 . S
C2794 C2800 1.465 . S
C2795 C2790 1.397 1_455 S
C2795 C2794 1.424 . S
C2795 C2796 1.493 1_455 S
C2796 C2795 1.493 1_655 S
C2796 C2797 1.502 . S
C2796 C2798 1.561 . S
C2796 C2799 1.526 . S
C2797 H2781 0.959 . S
C2797 H2782 0.959 . S
C2797 H2783 0.961 . S
C2797 C2796 1.502 . S
C2798 H2784 0.960 . S
C2798 H2785 0.961 . S
C2798 H2786 0.959 1_655 S
C2798 C2796 1.561 . S
C2799 C2796 1.526 . S
C2799 C2800 1.396 1_655 S
C2799 C2804 1.390 . S
C2800 C2794 1.465 . S
C2800 C2799 1.396 1_455 S
C2800 C2801 1.399 . S
C2801 H2787 0.929 . S
C2801 C2800 1.399 . S
C2801 C2802 1.385 . S
C2802 H2788 0.931 . S
C2802 C2801 1.385 . S
C2802 C2803 1.389 . S
C2803 C2802 1.389 . S
C2803 C2804 1.387 1_455 S
C2804 H2789 0.930 . S
C2804 C2799 1.390 . S
C2804 C2803 1.387 1_655 S
H2805 C2817 0.930 . S
H2806 C2819 0.930 . S
H2807 C2820 0.930 . S
H2808 C2824 0.959 . S
H2809 C2824 0.959 . S
H2810 C2824 0.961 . S
H2811 C2825 0.960 . S
H2812 C2825 0.961 . S
H2813 C2825 0.959 . S
H2814 C2828 0.929 . S
H2815 C2829 0.931 . S
H2816 C2831 0.930 . S
C2817 H2805 0.930 . S
C2817 C2818 1.399 . S
C2817 C2822 1.399 . S
C2818 C2817 1.399 . S
C2818 C2819 1.376 . S
C2819 H2806 0.930 . S
C2819 C2818 1.376 . S
C2819 C2820 1.388 . S
C2820 H2807 0.930 . S
C2820 C2819 1.388 . S
C2820 C2821 1.390 . S
C2821 C2820 1.390 . S
C2821 C2822 1.394 . S
C2821 C2827 1.465 . S
C2822 C2817 1.399 . S
C2822 C2821 1.394 . S
C2822 C2823 1.516 . S
C2823 C2822 1.516 . S
C2823 C2824 1.502 . S
C2823 C2825 1.561 . S
C2823 C2826 1.526 . S
C2824 H2808 0.959 . S
C2824 H2809 0.959 . S
C2824 H2810 0.961 . S
C2824 C2823 1.502 . S
C2825 H2811 0.960 . S
C2825 H2812 0.961 . S
C2825 H2813 0.959 . S
C2825 C2823 1.561 . S
C2826 C2823 1.526 . S
C2826 C2827 1.396 . S
C2826 C2831 1.390 . S
C2827 C2821 1.465 . S
C2827 C2826 1.396 . S
C2827 C2828 1.399 . S
C2828 H2814 0.929 . S
C2828 C2827 1.399 . S
C2828 C2829 1.385 . S
C2829 H2815 0.931 . S
C2829 C2828 1.385 . S
C2829 C2830 1.389 . S
C2830 C2829 1.389 . S
C2830 C2831 1.387 . S
C2831 H2816 0.930 . S
C2831 C2826 1.390 . S
C2831 C2830 1.387 . S
H2832 C2844 0.930 . S
H2833 C2846 0.930 . S
H2834 C2847 0.930 . S
H2835 C2851 0.959 . S
H2836 C2851 0.959 . S
H2837 C2851 0.961 . S
H2838 C2852 0.960 . S
H2839 C2852 0.961 . S
H2840 C2852 0.959 . S
H2841 C2855 0.929 . S
H2842 C2856 0.931 . S
H2843 C2858 0.930 . S
C2844 H2832 0.930 . S
C2844 C2845 1.399 . S
C2844 C2849 1.399 . S
C2845 C2844 1.399 . S
C2845 C2846 1.376 . S
C2846 H2833 0.930 . S
C2846 C2845 1.376 . S
C2846 C2847 1.388 . S
C2847 H2834 0.930 . S
C2847 C2846 1.388 . S
C2847 C2848 1.390 . S
C2848 C2847 1.390 . S
C2848 C2849 1.394 . S
C2848 C2854 1.465 . S
C2849 C2844 1.399 . S
C2849 C2848 1.394 . S
C2849 C2850 1.516 . S
C2850 C2849 1.516 . S
C2850 C2851 1.502 . S
C2850 C2852 1.561 . S
C2850 C2853 1.526 . S
C2851 H2835 0.959 . S
C2851 H2836 0.959 . S
C2851 H2837 0.961 . S
C2851 C2850 1.502 . S
C2852 H2838 0.960 . S
C2852 H2839 0.961 . S
C2852 H2840 0.959 . S
C2852 C2850 1.561 . S
C2853 C2850 1.526 . S
C2853 C2854 1.396 . S
C2853 C2858 1.390 . S
C2854 C2848 1.465 . S
C2854 C2853 1.396 . S
C2854 C2855 1.399 . S
C2855 H2841 0.929 . S
C2855 C2854 1.399 . S
C2855 C2856 1.385 . S
C2856 H2842 0.931 . S
C2856 C2855 1.385 . S
C2856 C2857 1.389 . S
C2857 C2856 1.389 . S
C2857 C2858 1.387 . S
C2858 H2843 0.930 . S
C2858 C2853 1.390 . S
C2858 C2857 1.387 . S
H2859 C2871 0.930 . S
H2860 C2873 0.930 . S
H2861 C2874 0.930 . S
H2862 C2878 0.959 . S
H2863 C2878 0.959 . S
H2864 C2878 0.961 . S
H2865 C2879 0.960 . S
H2866 C2879 0.961 . S
H2867 C2879 0.959 . S
H2868 C2882 0.929 . S
H2869 C2883 0.931 . S
H2870 C2885 0.930 . S
C2871 H2859 0.930 . S
C2871 C2872 1.399 . S
C2871 C2876 1.399 . S
C2872 C2871 1.399 . S
C2872 C2873 1.376 . S
C2873 H2860 0.930 . S
C2873 C2872 1.376 . S
C2873 C2874 1.388 . S
C2874 H2861 0.930 . S
C2874 C2873 1.388 . S
C2874 C2875 1.390 . S
C2875 C2874 1.390 . S
C2875 C2876 1.394 . S
C2875 C2881 1.465 . S
C2876 C2871 1.399 . S
C2876 C2875 1.394 . S
C2876 C2877 1.516 . S
C2877 C2876 1.516 . S
C2877 C2878 1.502 . S
C2877 C2879 1.561 . S
C2877 C2880 1.526 . S
C2878 H2862 0.959 . S
C2878 H2863 0.959 . S
C2878 H2864 0.961 . S
C2878 C2877 1.502 . S
C2879 H2865 0.960 . S
C2879 H2866 0.961 . S
C2879 H2867 0.959 . S
C2879 C2877 1.561 . S
C2880 C2877 1.526 . S
C2880 C2881 1.396 . S
C2880 C2885 1.390 . S
C2881 C2875 1.465 . S
C2881 C2880 1.396 . S
C2881 C2882 1.399 . S
C2882 H2868 0.929 . S
C2882 C2881 1.399 . S
C2882 C2883 1.385 . S
C2883 H2869 0.931 . S
C2883 C2882 1.385 . S
C2883 C2884 1.389 . S
C2884 C2883 1.389 . S
C2884 C2885 1.387 . S
C2885 H2870 0.930 . S
C2885 C2880 1.390 . S
C2885 C2884 1.387 . S
H2886 C2898 0.930 . S
H2887 C2900 0.930 . S
H2888 C2901 0.930 . S
H2889 C2905 0.959 . S
H2890 C2905 0.959 . S
H2891 C2905 0.961 . S
H2892 C2906 0.960 . S
H2893 C2906 0.961 . S
H2894 C2906 0.959 . S
H2895 C2909 0.929 . S
H2896 C2910 0.931 . S
H2897 C2912 0.930 . S
C2898 H2886 0.930 . S
C2898 C2899 1.399 . S
C2898 C2903 1.399 . S
C2899 C2898 1.399 . S
C2899 C2900 1.376 . S
C2900 H2887 0.930 . S
C2900 C2899 1.376 . S
C2900 C2901 1.388 . S
C2901 H2888 0.930 . S
C2901 C2900 1.388 . S
C2901 C2902 1.390 . S
C2902 C2901 1.390 . S
C2902 C2903 1.394 . S
C2902 C2908 1.465 . S
C2903 C2898 1.399 . S
C2903 C2902 1.394 . S
C2903 C2904 1.516 . S
C2904 C2903 1.516 . S
C2904 C2905 1.502 . S
C2904 C2906 1.561 . S
C2904 C2907 1.526 . S
C2905 H2889 0.959 . S
C2905 H2890 0.959 . S
C2905 H2891 0.961 . S
C2905 C2904 1.502 . S
C2906 H2892 0.960 . S
C2906 H2893 0.961 . S
C2906 H2894 0.959 . S
C2906 C2904 1.561 . S
C2907 C2904 1.526 . S
C2907 C2908 1.396 . S
C2907 C2912 1.390 . S
C2908 C2902 1.465 . S
C2908 C2907 1.396 . S
C2908 C2909 1.399 . S
C2909 H2895 0.929 . S
C2909 C2908 1.399 . S
C2909 C2910 1.385 . S
C2910 H2896 0.931 . S
C2910 C2909 1.385 . S
C2910 C2911 1.389 . S
C2911 C2910 1.389 . S
C2911 C2912 1.387 . S
C2912 H2897 0.930 . S
C2912 C2907 1.390 . S
C2912 C2911 1.387 . S
H2913 C2925 0.930 . S
H2914 C2927 0.930 . S
H2915 C2928 0.930 . S
H2916 C2932 0.959 . S
H2917 C2932 0.959 . S
H2918 C2932 0.961 . S
H2919 C2933 0.960 . S
H2920 C2933 0.961 . S
H2921 C2933 0.959 . S
H2922 C2936 0.929 . S
H2923 C2937 0.931 . S
H2924 C2939 0.930 . S
C2925 H2913 0.930 . S
C2925 C2926 1.399 . S
C2925 C2930 1.399 . S
C2926 C2925 1.399 . S
C2926 C2927 1.376 . S
C2927 H2914 0.930 . S
C2927 C2926 1.376 . S
C2927 C2928 1.388 . S
C2928 H2915 0.930 . S
C2928 C2927 1.388 . S
C2928 C2929 1.390 . S
C2929 C2928 1.390 . S
C2929 C2930 1.394 . S
C2929 C2935 1.465 . S
C2930 C2925 1.399 . S
C2930 C2929 1.394 . S
C2930 C2931 1.516 . S
C2931 C2930 1.516 . S
C2931 C2932 1.502 . S
C2931 C2933 1.561 . S
C2931 C2934 1.526 . S
C2932 H2916 0.959 . S
C2932 H2917 0.959 . S
C2932 H2918 0.961 . S
C2932 C2931 1.502 . S
C2933 H2919 0.960 . S
C2933 H2920 0.961 . S
C2933 H2921 0.959 . S
C2933 C2931 1.561 . S
C2934 C2931 1.526 . S
C2934 C2935 1.396 . S
C2934 C2939 1.390 . S
C2935 C2929 1.465 . S
C2935 C2934 1.396 . S
C2935 C2936 1.399 . S
C2936 H2922 0.929 . S
C2936 C2935 1.399 . S
C2936 C2937 1.385 . S
C2937 H2923 0.931 . S
C2937 C2936 1.385 . S
C2937 C2938 1.389 . S
C2938 C2937 1.389 . S
C2938 C2939 1.387 . S
C2939 H2924 0.930 . S
C2939 C2934 1.390 . S
C2939 C2938 1.387 . S
H2940 C2952 0.930 . S
H2941 C2954 0.930 . S
H2942 C2955 0.930 . S
H2943 C2959 0.959 . S
H2944 C2959 0.959 . S
H2945 C2959 0.961 . S
H2946 C2960 0.960 . S
H2947 C2960 0.961 . S
H2948 C2960 0.959 . S
H2949 C2963 0.929 . S
H2950 C2964 0.931 . S
H2951 C2966 0.930 . S
C2952 H2940 0.930 . S
C2952 C2953 1.399 . S
C2952 C2957 1.399 . S
C2953 C2952 1.399 . S
C2953 C2954 1.376 . S
C2954 H2941 0.930 . S
C2954 C2953 1.376 . S
C2954 C2955 1.388 . S
C2955 H2942 0.930 . S
C2955 C2954 1.388 . S
C2955 C2956 1.390 . S
C2956 C2955 1.390 . S
C2956 C2957 1.394 . S
C2956 C2962 1.465 . S
C2957 C2952 1.399 . S
C2957 C2956 1.394 . S
C2957 C2958 1.516 . S
C2958 C2957 1.516 . S
C2958 C2959 1.502 . S
C2958 C2960 1.561 . S
C2958 C2961 1.526 . S
C2959 H2943 0.959 . S
C2959 H2944 0.959 . S
C2959 H2945 0.961 . S
C2959 C2958 1.502 . S
C2960 H2946 0.960 . S
C2960 H2947 0.961 . S
C2960 H2948 0.959 . S
C2960 C2958 1.561 . S
C2961 C2958 1.526 . S
C2961 C2962 1.396 . S
C2961 C2966 1.390 . S
C2962 C2956 1.465 . S
C2962 C2961 1.396 . S
C2962 C2963 1.399 . S
C2963 H2949 0.929 . S
C2963 C2962 1.399 . S
C2963 C2964 1.385 . S
C2964 H2950 0.931 . S
C2964 C2963 1.385 . S
C2964 C2965 1.389 . S
C2965 C2964 1.389 . S
C2965 C2966 1.387 . S
C2966 H2951 0.930 . S
C2966 C2961 1.390 . S
C2966 C2965 1.387 . S
H2967 C2979 0.930 . S
H2968 C2981 0.930 . S
H2969 C2982 0.930 . S
H2970 C2986 0.959 . S
H2971 C2986 0.959 . S
H2972 C2986 0.961 . S
H2973 C2987 0.960 . S
H2974 C2987 0.961 . S
H2975 C2987 0.959 . S
H2976 C2990 0.929 . S
H2977 C2991 0.931 . S
H2978 C2993 0.930 . S
C2979 H2967 0.930 . S
C2979 C2980 1.399 . S
C2979 C2984 1.399 . S
C2980 C2979 1.399 . S
C2980 C2981 1.376 . S
C2981 H2968 0.930 . S
C2981 C2980 1.376 . S
C2981 C2982 1.388 . S
C2982 H2969 0.930 . S
C2982 C2981 1.388 . S
C2982 C2983 1.390 . S
C2983 C2982 1.390 . S
C2983 C2984 1.394 . S
C2983 C2989 1.465 . S
C2984 C2979 1.399 . S
C2984 C2983 1.394 . S
C2984 C2985 1.516 . S
C2985 C2984 1.516 . S
C2985 C2986 1.502 . S
C2985 C2987 1.561 . S
C2985 C2988 1.526 . S
C2986 H2970 0.959 . S
C2986 H2971 0.959 . S
C2986 H2972 0.961 . S
C2986 C2985 1.502 . S
C2987 H2973 0.960 . S
C2987 H2974 0.961 . S
C2987 H2975 0.959 . S
C2987 C2985 1.561 . S
C2988 C2985 1.526 . S
C2988 C2989 1.396 . S
C2988 C2993 1.390 . S
C2989 C2983 1.465 . S
C2989 C2988 1.396 . S
C2989 C2990 1.399 . S
C2990 H2976 0.929 . S
C2990 C2989 1.399 . S
C2990 C2991 1.385 . S
C2991 H2977 0.931 . S
C2991 C2990 1.385 . S
C2991 C2992 1.389 . S
C2992 C2991 1.389 . S
C2992 C2993 1.387 . S
C2993 H2978 0.930 . S
C2993 C2988 1.390 . S
C2993 C2992 1.387 . S
H2994 C3006 0.930 . S
H2995 C3008 0.930 . S
H2996 C3009 0.930 . S
H2997 C3013 0.959 . S
H2998 C3013 0.959 . S
H2999 C3013 0.961 . S
H3000 C3014 0.960 . S
H3001 C3014 0.961 . S
H3002 C3014 0.959 . S
H3003 C3017 0.929 . S
H3004 C3018 0.931 . S
H3005 C3020 0.930 . S
C3006 H2994 0.930 . S
C3006 C3007 1.399 . S
C3006 C3011 1.399 . S
C3007 C3006 1.399 . S
C3007 C3008 1.376 . S
C3008 H2995 0.930 . S
C3008 C3007 1.376 . S
C3008 C3009 1.388 . S
C3009 H2996 0.930 . S
C3009 C3008 1.388 . S
C3009 C3010 1.390 . S
C3010 C3009 1.390 . S
C3010 C3011 1.394 . S
C3010 C3016 1.465 . S
C3011 C3006 1.399 . S
C3011 C3010 1.394 . S
C3011 C3012 1.516 . S
C3012 C3011 1.516 . S
C3012 C3013 1.502 . S
C3012 C3014 1.561 . S
C3012 C3015 1.526 . S
C3013 H2997 0.959 . S
C3013 H2998 0.959 . S
C3013 H2999 0.961 . S
C3013 C3012 1.502 . S
C3014 H3000 0.960 . S
C3014 H3001 0.961 . S
C3014 H3002 0.959 . S
C3014 C3012 1.561 . S
C3015 C3012 1.526 . S
C3015 C3016 1.396 . S
C3015 C3020 1.390 . S
C3016 C3010 1.465 . S
C3016 C3015 1.396 . S
C3016 C3017 1.399 . S
C3017 H3003 0.929 . S
C3017 C3016 1.399 . S
C3017 C3018 1.385 . S
C3018 H3004 0.931 . S
C3018 C3017 1.385 . S
C3018 C3019 1.389 . S
C3019 C3018 1.389 . S
C3019 C3020 1.387 . S
C3020 H3005 0.930 . S
C3020 C3015 1.390 . S
C3020 C3019 1.387 . S
H3021 C3033 0.930 . S
H3022 C3035 0.930 . S
H3023 C3036 0.930 . S
H3024 C3040 0.959 . S
H3025 C3040 0.959 . S
H3026 C3040 0.961 . S
H3027 C3041 0.960 . S
H3028 C3041 0.961 . S
H3029 C3041 0.959 . S
H3030 C3044 0.929 . S
H3031 C3045 0.931 . S
H3032 C3047 0.930 . S
C3033 H3021 0.930 . S
C3033 C3034 1.399 . S
C3033 C3038 1.399 . S
C3034 C3033 1.399 . S
C3034 C3035 1.376 . S
C3035 H3022 0.930 . S
C3035 C3034 1.376 . S
C3035 C3036 1.388 . S
C3036 H3023 0.930 . S
C3036 C3035 1.388 . S
C3036 C3037 1.390 . S
C3037 C3036 1.390 . S
C3037 C3038 1.394 . S
C3037 C3043 1.465 . S
C3038 C3033 1.399 . S
C3038 C3037 1.394 . S
C3038 C3039 1.516 . S
C3039 C3038 1.516 . S
C3039 C3040 1.502 . S
C3039 C3041 1.561 . S
C3039 C3042 1.526 . S
C3040 H3024 0.959 . S
C3040 H3025 0.959 . S
C3040 H3026 0.961 . S
C3040 C3039 1.502 . S
C3041 H3027 0.960 . S
C3041 H3028 0.961 . S
C3041 H3029 0.959 . S
C3041 C3039 1.561 . S
C3042 C3039 1.526 . S
C3042 C3043 1.396 . S
C3042 C3047 1.390 . S
C3043 C3037 1.465 . S
C3043 C3042 1.396 . S
C3043 C3044 1.399 . S
C3044 H3030 0.929 . S
C3044 C3043 1.399 . S
C3044 C3045 1.385 . S
C3045 H3031 0.931 . S
C3045 C3044 1.385 . S
C3045 C3046 1.389 . S
C3046 C3045 1.389 . S
C3046 C3047 1.387 . S
C3047 H3032 0.930 . S
C3047 C3042 1.390 . S
C3047 C3046 1.387 . S
H3048 C3060 0.930 . S
H3049 C3062 0.930 . S
H3050 C3063 0.930 . S
H3051 C3067 0.959 . S
H3052 C3067 0.959 . S
H3053 C3067 0.961 . S
H3054 C3068 0.960 . S
H3055 C3068 0.961 . S
H3056 C3068 0.959 . S
H3057 C3071 0.929 . S
H3058 C3072 0.931 . S
H3059 C3074 0.930 . S
C3060 H3048 0.930 . S
C3060 C3061 1.399 . S
C3060 C3065 1.399 . S
C3061 C3060 1.399 . S
C3061 C3062 1.376 . S
C3062 H3049 0.930 . S
C3062 C3061 1.376 . S
C3062 C3063 1.388 . S
C3063 H3050 0.930 . S
C3063 C3062 1.388 . S
C3063 C3064 1.390 . S
C3064 C3063 1.390 . S
C3064 C3065 1.394 . S
C3064 C3070 1.465 . S
C3065 C3060 1.399 . S
C3065 C3064 1.394 . S
C3065 C3066 1.516 . S
C3066 C3065 1.516 . S
C3066 C3067 1.502 . S
C3066 C3068 1.561 . S
C3066 C3069 1.526 . S
C3067 H3051 0.959 . S
C3067 H3052 0.959 . S
C3067 H3053 0.961 . S
C3067 C3066 1.502 . S
C3068 H3054 0.960 . S
C3068 H3055 0.961 . S
C3068 H3056 0.959 . S
C3068 C3066 1.561 . S
C3069 C3066 1.526 . S
C3069 C3070 1.396 . S
C3069 C3074 1.390 . S
C3070 C3064 1.465 . S
C3070 C3069 1.396 . S
C3070 C3071 1.399 . S
C3071 H3057 0.929 . S
C3071 C3070 1.399 . S
C3071 C3072 1.385 . S
C3072 H3058 0.931 . S
C3072 C3071 1.385 . S
C3072 C3073 1.389 . S
C3073 C3072 1.389 . S
C3073 C3074 1.387 . S
C3074 H3059 0.930 . S
C3074 C3069 1.390 . S
C3074 C3073 1.387 . S
H3075 C3087 0.930 . S
H3076 C3089 0.930 . S
H3077 C3090 0.930 . S
H3078 C3094 0.959 . S
H3079 C3094 0.959 . S
H3080 C3094 0.961 . S
H3081 C3095 0.960 . S
H3082 C3095 0.961 . S
H3083 C3095 0.959 . S
H3084 C3098 0.929 . S
H3085 C3099 0.931 . S
H3086 C3101 0.930 . S
C3087 H3075 0.930 . S
C3087 C3088 1.399 . S
C3087 C3092 1.399 . S
C3088 C3087 1.399 . S
C3088 C3089 1.376 . S
C3089 H3076 0.930 . S
C3089 C3088 1.376 . S
C3089 C3090 1.388 . S
C3090 H3077 0.930 . S
C3090 C3089 1.388 . S
C3090 C3091 1.390 . S
C3091 C3090 1.390 . S
C3091 C3092 1.394 . S
C3091 C3097 1.465 . S
C3092 C3087 1.399 . S
C3092 C3091 1.394 . S
C3092 C3093 1.516 . S
C3093 C3092 1.516 . S
C3093 C3094 1.502 . S
C3093 C3095 1.561 . S
C3093 C3096 1.526 . S
C3094 H3078 0.959 . S
C3094 H3079 0.959 . S
C3094 H3080 0.961 . S
C3094 C3093 1.502 . S
C3095 H3081 0.960 . S
C3095 H3082 0.961 . S
C3095 H3083 0.959 . S
C3095 C3093 1.561 . S
C3096 C3093 1.526 . S
C3096 C3097 1.396 . S
C3096 C3101 1.390 . S
C3097 C3091 1.465 . S
C3097 C3096 1.396 . S
C3097 C3098 1.399 . S
C3098 H3084 0.929 . S
C3098 C3097 1.399 . S
C3098 C3099 1.385 . S
C3099 H3085 0.931 . S
C3099 C3098 1.385 . S
C3099 C3100 1.389 . S
C3100 C3099 1.389 . S
C3100 C3101 1.387 . S
C3101 H3086 0.930 . S
C3101 C3096 1.390 . S
C3101 C3100 1.387 . S
H3102 C3114 0.930 . S
H3103 C3116 0.930 . S
H3104 C3117 0.930 . S
H3105 C3121 0.959 . S
H3106 C3121 0.959 . S
H3107 C3121 0.961 . S
H3108 C3122 0.960 . S
H3109 C3122 0.961 . S
H3110 C3122 0.959 . S
H3111 C3125 0.929 . S
H3112 C3126 0.931 . S
H3113 C3128 0.930 . S
C3114 H3102 0.930 . S
C3114 C3115 1.399 . S
C3114 C3119 1.399 . S
C3115 C3114 1.399 . S
C3115 C3116 1.376 . S
C3116 H3103 0.930 . S
C3116 C3115 1.376 . S
C3116 C3117 1.388 . S
C3117 H3104 0.930 . S
C3117 C3116 1.388 . S
C3117 C3118 1.390 . S
C3118 C3117 1.390 . S
C3118 C3119 1.394 . S
C3118 C3124 1.465 . S
C3119 C3114 1.399 . S
C3119 C3118 1.394 . S
C3119 C3120 1.516 . S
C3120 C3119 1.516 . S
C3120 C3121 1.502 . S
C3120 C3122 1.561 . S
C3120 C3123 1.526 . S
C3121 H3105 0.959 . S
C3121 H3106 0.959 . S
C3121 H3107 0.961 . S
C3121 C3120 1.502 . S
C3122 H3108 0.960 . S
C3122 H3109 0.961 . S
C3122 H3110 0.959 . S
C3122 C3120 1.561 . S
C3123 C3120 1.526 . S
C3123 C3124 1.396 . S
C3123 C3128 1.390 . S
C3124 C3118 1.465 . S
C3124 C3123 1.396 . S
C3124 C3125 1.399 . S
C3125 H3111 0.929 . S
C3125 C3124 1.399 . S
C3125 C3126 1.385 . S
C3126 H3112 0.931 . S
C3126 C3125 1.385 . S
C3126 C3127 1.389 . S
C3127 C3126 1.389 . S
C3127 C3128 1.387 . S
C3128 H3113 0.930 . S
C3128 C3123 1.390 . S
C3128 C3127 1.387 . S
H3129 C3141 0.930 . S
H3130 C3143 0.930 . S
H3131 C3144 0.930 . S
H3132 C3148 0.959 . S
H3133 C3148 0.959 . S
H3134 C3148 0.961 . S
H3135 C3149 0.960 . S
H3136 C3149 0.961 . S
H3137 C3149 0.959 . S
H3138 C3152 0.929 . S
H3139 C3153 0.931 . S
H3140 C3155 0.930 . S
C3141 H3129 0.930 . S
C3141 C3142 1.399 . S
C3141 C3146 1.399 . S
C3142 C3141 1.399 . S
C3142 C3143 1.376 1_554 S
C3143 H3130 0.930 . S
C3143 C3142 1.376 1_556 S
C3143 C3144 1.388 . S
C3144 H3131 0.930 . S
C3144 C3143 1.388 . S
C3144 C3145 1.390 . S
C3145 C3144 1.390 . S
C3145 C3146 1.394 1_556 S
C3145 C3151 1.465 . S
C3146 C3141 1.399 . S
C3146 C3145 1.394 1_554 S
C3146 C3147 1.516 . S
C3147 C3146 1.516 . S
C3147 C3148 1.502 . S
C3147 C3149 1.561 . S
C3147 C3150 1.526 . S
C3148 H3132 0.959 . S
C3148 H3133 0.959 . S
C3148 H3134 0.961 . S
C3148 C3147 1.502 . S
C3149 H3135 0.960 . S
C3149 H3136 0.961 . S
C3149 H3137 0.959 . S
C3149 C3147 1.561 . S
C3150 C3147 1.526 . S
C3150 C3151 1.396 1_554 S
C3150 C3155 1.390 . S
C3151 C3145 1.465 . S
C3151 C3150 1.396 1_556 S
C3151 C3152 1.399 . S
C3152 H3138 0.929 . S
C3152 C3151 1.399 . S
C3152 C3153 1.385 . S
C3153 H3139 0.931 . S
C3153 C3152 1.385 . S
C3153 C3154 1.389 . S
C3154 C3153 1.389 . S
C3154 C3155 1.387 1_556 S
C3155 H3140 0.930 . S
C3155 C3150 1.390 . S
C3155 C3154 1.387 1_554 S
H3156 C3168 0.930 . S
H3157 C3170 0.930 . S
H3158 C3171 0.930 . S
H3159 C3175 0.959 . S
H3160 C3175 0.959 . S
H3161 C3175 0.961 . S
H3162 C3176 0.960 . S
H3163 C3176 0.961 . S
H3164 C3176 0.959 . S
H3165 C3179 0.929 . S
H3166 C3180 0.931 . S
H3167 C3182 0.930 . S
C3168 H3156 0.930 . S
C3168 C3169 1.399 . S
C3168 C3173 1.399 . S
C3169 C3168 1.399 . S
C3169 C3170 1.376 . S
C3170 H3157 0.930 . S
C3170 C3169 1.376 . S
C3170 C3171 1.388 . S
C3171 H3158 0.930 . S
C3171 C3170 1.388 . S
C3171 C3172 1.390 . S
C3172 C3171 1.390 . S
C3172 C3173 1.394 . S
C3172 C3178 1.465 . S
C3173 C3168 1.399 . S
C3173 C3172 1.394 . S
C3173 C3174 1.516 . S
C3174 C3173 1.516 . S
C3174 C3175 1.502 . S
C3174 C3176 1.561 . S
C3174 C3177 1.526 . S
C3175 H3159 0.959 . S
C3175 H3160 0.959 . S
C3175 H3161 0.961 . S
C3175 C3174 1.502 . S
C3176 H3162 0.960 . S
C3176 H3163 0.961 . S
C3176 H3164 0.959 . S
C3176 C3174 1.561 . S
C3177 C3174 1.526 . S
C3177 C3178 1.396 . S
C3177 C3182 1.390 . S
C3178 C3172 1.465 . S
C3178 C3177 1.396 . S
C3178 C3179 1.399 . S
C3179 H3165 0.929 . S
C3179 C3178 1.399 . S
C3179 C3180 1.385 . S
C3180 H3166 0.931 . S
C3180 C3179 1.385 . S
C3180 C3181 1.389 . S
C3181 C3180 1.389 . S
C3181 C3182 1.387 . S
C3182 H3167 0.930 . S
C3182 C3177 1.390 . S
C3182 C3181 1.387 . S
H3183 C3195 0.930 . S
H3184 C3197 0.930 . S
H3185 C3198 0.930 . S
H3186 C3202 0.959 . S
H3187 C3202 0.959 . S
H3188 C3202 0.961 . S
H3189 C3203 0.960 . S
H3190 C3203 0.961 . S
H3191 C3203 0.959 . S
H3192 C3206 0.929 . S
H3193 C3207 0.931 . S
H3194 C3209 0.930 1_556 S
C3195 H3183 0.930 . S
C3195 C3196 1.399 1_556 S
C3195 C3200 1.399 1_556 S
C3196 C3195 1.399 1_554 S
C3196 C3197 1.376 . S
C3197 H3184 0.930 . S
C3197 C3196 1.376 . S
C3197 C3198 1.388 . S
C3198 H3185 0.930 . S
C3198 C3197 1.388 . S
C3198 C3199 1.390 . S
C3199 C3198 1.390 . S
C3199 C3200 1.394 . S
C3199 C3205 1.465 . S
C3200 C3195 1.399 1_554 S
C3200 C3199 1.394 . S
C3200 C3201 1.516 1_554 S
C3201 C3200 1.516 1_556 S
C3201 C3202 1.502 . S
C3201 C3203 1.561 . S
C3201 C3204 1.526 1_556 S
C3202 H3186 0.959 . S
C3202 H3187 0.959 . S
C3202 H3188 0.961 . S
C3202 C3201 1.502 . S
C3203 H3189 0.960 . S
C3203 H3190 0.961 . S
C3203 H3191 0.959 . S
C3203 C3201 1.561 . S
C3204 C3201 1.526 1_554 S
C3204 C3205 1.396 . S
C3204 C3209 1.390 . S
C3205 C3199 1.465 . S
C3205 C3204 1.396 . S
C3205 C3206 1.399 . S
C3206 H3192 0.929 . S
C3206 C3205 1.399 . S
C3206 C3207 1.385 . S
C3207 H3193 0.931 . S
C3207 C3206 1.385 . S
C3207 C3208 1.389 . S
C3208 C3207 1.389 . S
C3208 C3209 1.387 . S
C3209 H3194 0.930 1_554 S
C3209 C3204 1.390 . S
C3209 C3208 1.387 . S
H3210 C3222 0.930 . S
H3211 C3224 0.930 . S
H3212 C3225 0.930 . S
H3213 C3229 0.959 . S
H3214 C3229 0.959 . S
H3215 C3229 0.961 . S
H3216 C3230 0.960 . S
H3217 C3230 0.961 . S
H3218 C3230 0.959 . S
H3219 C3233 0.929 . S
H3220 C3234 0.931 . S
H3221 C3236 0.930 . S
C3222 H3210 0.930 . S
C3222 C3223 1.399 . S
C3222 C3227 1.399 . S
C3223 C3222 1.399 . S
C3223 C3224 1.376 . S
C3224 H3211 0.930 . S
C3224 C3223 1.376 . S
C3224 C3225 1.388 . S
C3225 H3212 0.930 . S
C3225 C3224 1.388 . S
C3225 C3226 1.390 . S
C3226 C3225 1.390 . S
C3226 C3227 1.394 . S
C3226 C3232 1.465 . S
C3227 C3222 1.399 . S
C3227 C3226 1.394 . S
C3227 C3228 1.516 . S
C3228 C3227 1.516 . S
C3228 C3229 1.502 . S
C3228 C3230 1.561 . S
C3228 C3231 1.526 . S
C3229 H3213 0.959 . S
C3229 H3214 0.959 . S
C3229 H3215 0.961 . S
C3229 C3228 1.502 . S
C3230 H3216 0.960 . S
C3230 H3217 0.961 . S
C3230 H3218 0.959 . S
C3230 C3228 1.561 . S
C3231 C3228 1.526 . S
C3231 C3232 1.396 . S
C3231 C3236 1.390 . S
C3232 C3226 1.465 . S
C3232 C3231 1.396 . S
C3232 C3233 1.399 . S
C3233 H3219 0.929 . S
C3233 C3232 1.399 . S
C3233 C3234 1.385 . S
C3234 H3220 0.931 . S
C3234 C3233 1.385 . S
C3234 C3235 1.389 . S
C3235 C3234 1.389 . S
C3235 C3236 1.387 . S
C3236 H3221 0.930 . S
C3236 C3231 1.390 . S
C3236 C3235 1.387 . S
H3237 C3249 0.930 . S
H3238 C3251 0.930 . S
H3239 C3252 0.930 . S
H3240 C3256 0.959 . S
H3241 C3256 0.959 . S
H3242 C3256 0.961 . S
H3243 C3257 0.960 . S
H3244 C3257 0.961 . S
H3245 C3257 0.959 . S
H3246 C3260 0.929 . S
H3247 C3261 0.931 . S
H3248 C3263 0.930 . S
C3249 H3237 0.930 . S
C3249 C3250 1.399 . S
C3249 C3254 1.399 . S
C3250 C3249 1.399 . S
C3250 C3251 1.376 . S
C3251 H3238 0.930 . S
C3251 C3250 1.376 . S
C3251 C3252 1.388 . S
C3252 H3239 0.930 . S
C3252 C3251 1.388 . S
C3252 C3253 1.390 . S
C3253 C3252 1.390 . S
C3253 C3254 1.394 . S
C3253 C3259 1.465 . S
C3254 C3249 1.399 . S
C3254 C3253 1.394 . S
C3254 C3255 1.516 . S
C3255 C3254 1.516 . S
C3255 C3256 1.502 . S
C3255 C3257 1.561 . S
C3255 C3258 1.526 . S
C3256 H3240 0.959 . S
C3256 H3241 0.959 . S
C3256 H3242 0.961 . S
C3256 C3255 1.502 . S
C3257 H3243 0.960 . S
C3257 H3244 0.961 . S
C3257 H3245 0.959 . S
C3257 C3255 1.561 . S
C3258 C3255 1.526 . S
C3258 C3259 1.396 . S
C3258 C3263 1.390 . S
C3259 C3253 1.465 . S
C3259 C3258 1.396 . S
C3259 C3260 1.399 . S
C3260 H3246 0.929 . S
C3260 C3259 1.399 . S
C3260 C3261 1.385 . S
C3261 H3247 0.931 . S
C3261 C3260 1.385 . S
C3261 C3262 1.389 . S
C3262 C3261 1.389 . S
C3262 C3263 1.387 . S
C3263 H3248 0.930 . S
C3263 C3258 1.390 . S
C3263 C3262 1.387 . S
C697 C351 1.301 1_455 S
C685 C8 1.472 . S
C712 C22 1.455 . S
C724 C370 1.447 . S
C739 C35 1.176 . S
C751 C393 1.045 . S
C778 C413 1.300 . S
C766 C49 1.273 . S
C793 C23 1.681 . S
C805 C434 1.673 . S
C832 C456 1.215 . S
C820 C34 1.227 . S
C859 C478 1.125 . S
C847 C48 1.023 . S
C874 C9 1.520 . S
C886 C496 1.486 . S
C901 C64 1.456 . S
C913 C352 1.415 . S
C928 C77 1.303 . S
C940 C371 1.306 . S
C967 C394 1.354 . S
C955 C92 1.385 . S
C994 C417 1.339 . S
C982 C105 1.447 . S
C1009 C63 1.380 . S
C1021 C438 1.250 . S
C1048 C457 1.332 . S
C1036 C78 1.375 . S
C1075 C479 1.385 . S
C1063 C91 1.367 . S
C1102 C497 1.387 . S
C1090 C106 1.365 . S
C1129 C353 1.414 . S
C1117 C107 1.460 . S
C1156 C520 1.125 . S
C1144 C118 1.035 . S
C1171 C135 1.571 . S
C1183 C542 1.584 . S
C1210 C561 1.376 . S
C1198 C146 1.386 . S
C1225 C65 1.448 . S
C1237 C501 1.334 . S
C1264 C395 1.537 1_565 S
C1252 C79 1.584 . S
C1279 C132 1.208 . S
C1291 C583 1.154 . S
C1318 C606 1.234 . S
C1306 C160 1.246 . S
C1333 C177 1.412 . S
C1345 C354 1.378 . S
C1372 C605 1.132 . S
C1360 C188 1.156 . S
C1387 C204 1.574 . S
C1399 C396 1.443 . S
C1414 C219 1.259 . S
C1426 C580 1.234 . S
C1453 C436 1.250 . S
C1441 C190 1.337 . S
C1480 C543 1.152 . S
C1468 C202 1.250 . S
C1507 C476 1.152 . S
C1495 C217 1.225 . S
C1534 C626 1.268 . S
C1522 C175 1.259 . S
C1561 C350 1.305 . S
C1549 C231 1.285 . S
C1576 C246 1.368 . S
C1588 C604 1.314 . S
C1615 C392 1.161 . S
C1603 C259 1.143 . S
C1630 C274 1.440 . S
C1642 C585 1.365 . S
C1657 C232 1.465 . S
C1669 C435 1.420 . S
C1684 C245 1.228 . S
C1696 C539 1.166 . S
C1723 C475 1.166 . S
C1711 C260 1.234 . S
C1738 C273 1.178 . S
C1750 C625 1.175 . S
C1765 C275 1.385 . S
C1777 C349 1.336 . S
C1792 C286 1.290 . S
C1804 C518 1.269 . S
C1819 C303 1.332 . S
C1831 C454 1.304 . S
C1846 C314 1.240 . S
C1858 C564 1.210 . S
C1885 C624 1.321 . S
C1873 C233 1.361 . S
C1912 C391 1.267 . S
C1900 C247 1.322 . S
C1939 C416 1.176 . S
C1927 C300 1.175 . S
C1966 C372 1.195 . S
C1954 C328 1.301 . S
C1981 C36 1.470 . S
C1993 C648 1.373 . S
C2020 C601 1.427 . S
C2008 C50 1.457 . S
C2047 C666 1.090 . S
C2035 C7 1.228 . S
C2062 C21 1.320 . S
C2074 C584 1.345 . S
C2089 C51 1.682 . S
C2101 C521 1.677 1_556 S
C2128 C540 1.074 . S
C2116 C6 1.238 . S
C2155 C562 1.125 . S
C2143 C20 1.021 . S
C2182 C622 1.478 . S
C2170 C37 1.512 . S
C2209 C643 1.346 . S
C2197 C162 1.389 . S
C2224 C119 1.228 . S
C2236 C602 1.244 . S
C2251 C134 1.328 . S
C2263 C667 1.286 . S
C2290 C582 1.412 . S
C2278 C147 1.486 . S
C2317 C519 1.295 . S
C2305 C161 1.313 . S
C2332 C120 1.340 . S
C2344 C541 1.338 . S
C2371 C563 1.381 . S
C2359 C133 1.379 . S
C2386 C148 1.355 . S
C2398 C623 1.299 . S
C2425 C644 1.485 . S
C2413 C149 1.475 . S
C2452 C433 1.053 . S
C2440 C76 0.989 . S
C2479 C458 1.554 . S
C2467 C93 1.528 . S
C2494 C104 1.320 . S
C2506 C477 1.313 . S
C2533 C627 1.300 . S
C2521 C163 1.486 . S
C2548 C121 1.591 . S
C2560 C668 1.607 . S
C2587 C412 1.110 . S
C2575 C90 1.136 . S
C2614 C375 1.188 . S
C2602 C62 1.193 . S
C2629 C203 1.194 . S
C2641 C645 1.096 . S
C2668 C374 1.176 . S
C2656 C216 1.141 . S
C2695 C669 1.276 . S
C2683 C174 1.348 . S
C2710 C191 1.343 . S
C2722 C415 1.300 . S
C2737 C218 1.281 . S
C2749 C517 1.196 . S
C2764 C176 1.538 . S
C2776 C459 1.356 . S
C2791 C189 1.142 . S
C2803 C560 1.185 1_455 S
C2818 C205 1.526 . S
C2830 C500 1.495 . S
C2857 C647 1.298 . S
C2845 C329 1.311 . S
C2872 C288 1.296 . S
C2884 C373 1.203 . S
C2911 C665 1.139 . S
C2899 C301 1.173 . S
C2926 C316 1.387 . S
C2938 C414 1.284 . S
C2953 C330 1.560 . S
C2965 C522 1.369 . S
C2992 C455 1.268 . S
C2980 C287 1.198 . S
C3007 C302 1.266 . S
C3019 C559 1.244 . S
C3046 C499 1.180 . S
C3034 C315 1.212 . S
C3073 C646 1.325 . S
C3061 C317 1.331 . S
C3100 C437 1.245 . S
C3088 C244 1.248 . S
C3115 C261 1.246 . S
C3127 C538 1.238 . S
C3154 C480 1.080 . S
C3142 C272 1.179 . S
C3181 C498 1.280 . S
C3169 C331 1.452 . S
C3196 C289 1.278 . S
C3208 C664 1.238 . S
C3235 C581 1.149 . S
C3223 C258 1.222 . S
C3262 C603 1.205 . S
C3250 C230 1.298 . S
