# Generated by pormake.
# Topology scu, (8,4)-cn, num edge types: 1
# Building blocks:
#     Node 0, Type 0, BuildingBlock: VETTIZ_charged_sbu_0, # of connection points: 8
#     Node 1, Type 1, BuildingBlock: NAWXER_clean_sbu_0, # of connection points: 4
#     Node 2, Type 1, BuildingBlock: NAWXER_clean_sbu_0, # of connection points: 4
#     Edge 3, Type (0, 1), BuildingBlock: XUDNAN_clean_linker_2, # of connection points: 2
#     Edge 4, Type (0, 1), BuildingBlock: XUDNAN_clean_linker_2, # of connection points: 2
#     Edge 5, Type (0, 1), BuildingBlock: XUDNAN_clean_linker_2, # of connection points: 2
#     Edge 6, Type (0, 1), BuildingBlock: XUDNAN_clean_linker_2, # of connection points: 2
#     Edge 7, Type (0, 1), BuildingBlock: XUDNAN_clean_linker_2, # of connection points: 2
#     Edge 8, Type (0, 1), BuildingBlock: XUDNAN_clean_linker_2, # of connection points: 2
#     Edge 9, Type (0, 1), BuildingBlock: XUDNAN_clean_linker_2, # of connection points: 2
#     Edge 10, Type (0, 1), BuildingBlock: XUDNAN_clean_linker_2, # of connection points: 2
# Relax obj value: 0.013
# Max RMSD: 0.059
# Mean RMSD: 0.052
data_MOF--net-scu--node1-VETTIZ_charged_sbu_0--node2-NAWXER_clean_sbu_0--edge1-XUDNAN_clean_linker_2
_symmetry_space_group_name_H-M    P1
_symmetry_Int_Tables_number       1
_symmetry_cell_setting            triclinic
loop_
_symmetry_equiv_pos_as_xyz
'x, y, z'
_cell_length_a     24.072706
_cell_length_b     25.09407
_cell_length_c     19.739865
_cell_angle_alpha  89.583446
_cell_angle_beta   90.62157
_cell_angle_gamma 90.348284
loop_
_atom_site_label
_atom_site_type_symbol
_atom_site_fract_x
_atom_site_fract_y
_atom_site_fract_z
_atom_type_partial_charge
Fe0 Fe 0.03357 1.00615 0.08019 0.0
O1 O 1.01491 0.05619 0.00445 0.0
Fe2 Fe 0.09687 0.90112 1.00101 0.0
Fe3 Fe 0.95401 0.10727 0.00689 0.0
O4 O 0.03595 0.95198 0.0069 0.0
O5 O 0.03346 0.95116 0.99977 0.0
O6 O 1.01534 0.05639 0.99786 0.0
Fe7 Fe 1.02048 1.00288 0.92342 0.0
C8 C 0.91126 0.01839 0.10367 0.0
O9 O 1.02895 0.07012 0.14811 0.0
O10 O 1.00176 0.14139 0.08148 0.0
O11 O 0.10498 0.01779 0.91522 0.0
O12 O 0.13603 0.93483 0.91985 0.0
O13 O 0.14976 0.9431 0.06664 0.0
O14 O 0.11544 0.02502 0.06797 0.0
O15 O 0.99305 0.14021 0.92406 0.0
O16 O 1.00976 0.06738 0.85503 0.0
C17 C 0.15506 0.99288 0.07848 0.0
O18 O 1.02536 0.9369 0.85721 0.0
O19 O 0.04687 0.86608 0.92894 0.0
O20 O 0.95193 0.98736 0.09462 0.0
O21 O 0.91176 0.067 0.08367 0.0
C22 C 1.02091 0.12071 0.13717 0.0
C23 C 1.00704 0.11861 0.86695 0.0
C24 C 0.89713 0.02317 0.91866 0.0
O25 O 0.90414 0.07084 0.93765 0.0
O26 O 0.93526 0.98822 0.92344 0.0
C27 C 0.14087 0.98281 0.90035 0.0
O28 O 0.06064 0.87046 0.08658 0.0
O29 O 0.05407 0.94597 0.15139 0.0
C30 C 1.02852 0.88593 0.87184 0.0
C31 C 0.05654 0.89447 0.14415 0.0
C32 C 0.99105 0.57424 0.58635 0.0
C33 C 0.03797 0.43688 0.4228 0.0
O34 O 0.04288 0.56317 0.58416 0.0
Zn35 Zn 0.0984 0.51515 0.52835 0.0
O36 O 0.95677 0.55038 0.54735 0.0
Zn37 Zn 1.01171 0.50675 0.50207 0.0
O38 O 0.04184 0.45384 0.57983 0.0
O39 O 0.13156 0.46911 0.59667 0.0
O40 O 0.98986 0.45584 0.43296 0.0
O41 O 0.08016 0.45685 0.45367 0.0
O42 O 0.14226 0.56973 0.48228 0.0
O43 O 0.05496 0.56663 0.44716 0.0
C44 C 0.08778 0.44242 0.60989 0.0
C45 C 0.10339 0.58782 0.44466 0.0
C46 C 0.60565 0.05425 0.5785 0.0
C47 C 0.4637 0.05715 0.39631 0.0
O48 O 0.58561 0.0086 0.563 0.0
Zn49 Zn 0.52565 0.97432 0.4968 0.0
O50 O 0.58785 0.09608 0.54861 0.0
Zn51 Zn 0.53484 0.06121 0.48716 0.0
O52 O 0.47429 0.03571 0.55555 0.0
O53 O 0.46885 0.94815 0.56144 0.0
O54 O 0.48879 0.09829 0.41921 0.0
O55 O 0.47476 0.01127 0.42167 0.0
O56 O 0.5734 0.92964 0.43997 0.0
O57 O 0.58667 0.01604 0.42487 0.0
C58 C 0.45208 0.99374 0.58053 0.0
C59 C 0.59837 0.96794 0.40992 0.0
H60 H 0.95316 0.20005 0.17475 0.0
H61 H 0.11236 0.12777 0.22093 0.0
H62 H 0.1339 0.20145 0.30066 0.0
H63 H 0.99656 0.3325 0.17336 0.0
H64 H 0.93545 0.35861 0.21298 0.0
H65 H 0.9308 0.29837 0.16427 0.0
H66 H 0.88973 0.24763 0.26719 0.0
H67 H 0.89321 0.308 0.31595 0.0
H68 H 0.92652 0.24842 0.34722 0.0
H69 H 0.14106 0.28772 0.36492 0.0
H70 H 0.12977 0.37393 0.42152 0.0
H71 H 0.96336 0.38776 0.33615 0.0
C72 C 0.99218 0.19934 0.20264 0.0
C73 C 0.0313 0.15865 0.19216 0.0
C74 C 0.08183 0.15854 0.22917 0.0
C75 C 0.09441 0.2003 0.27398 0.0
C76 C 0.05546 0.24085 0.28157 0.0
C77 C 1.00487 0.24001 0.24798 0.0
C78 C 0.97038 0.28845 0.26413 0.0
C79 C 0.95757 0.32141 0.19985 0.0
C80 C 0.9168 0.27214 0.30082 0.0
C81 C 1.01002 0.31768 0.31088 0.0
C82 C 0.05892 0.28965 0.32001 0.0
C83 C 0.10271 0.30963 0.35882 0.0
C84 C 0.09596 0.35894 0.39028 0.0
C85 C 0.04557 0.3877 0.38324 0.0
C86 C 1.00223 0.36674 0.34263 0.0
H87 H 0.81981 0.07339 0.14646 0.0
H88 H 0.89425 0.91618 0.15029 0.0
H89 H 0.81784 0.88291 0.2216 0.0
H90 H 0.77948 0.07349 0.31598 0.0
H91 H 0.71544 0.10867 0.30077 0.0
H92 H 0.77303 0.1184 0.24466 0.0
H93 H 0.71066 0.09158 0.14235 0.0
H94 H 0.65276 0.08178 0.19828 0.0
H95 H 0.67434 0.02855 0.14387 0.0
H96 H 0.7355 0.86848 0.30075 0.0
H97 H 0.65681 0.87603 0.38062 0.0
H98 H 0.63835 0.04218 0.3225 0.0
C99 C 0.81973 0.03174 0.1613 0.0
C100 C 0.86317 0.99756 0.1425 0.0
C101 C 0.86151 0.94337 0.16385 0.0
C102 C 0.81812 0.92394 0.20431 0.0
C103 C 0.77643 0.95899 0.22285 0.0
C104 C 0.77688 0.01172 0.20172 0.0
C105 C 0.72921 0.04216 0.2316 0.0
C106 C 0.75059 0.08838 0.27588 0.0
C107 C 0.68938 0.06218 0.17568 0.0
C108 C 0.70257 0.99872 0.27393 0.0
C109 C 0.72979 0.95079 0.26802 0.0
C110 C 0.71353 0.90576 0.30523 0.0
C111 C 0.6688 0.91028 0.35035 0.0
C112 C 0.64148 0.9596 0.35804 0.0
C113 C 0.65828 1.00379 0.31815 0.0
H114 H 1.00905 0.79772 0.165 0.0
H115 H 0.12226 0.9123 0.25568 0.0
H116 H 0.15005 0.84498 0.3421 0.0
H117 H 0.96598 0.73345 0.32519 0.0
H118 H 0.96139 0.66887 0.28607 0.0
H119 H 0.9481 0.72808 0.23656 0.0
H120 H 1.02312 0.69874 0.15148 0.0
H121 H 0.0379 0.64033 0.2018 0.0
H122 H 0.09294 0.68656 0.18148 0.0
H123 H 0.17209 0.76046 0.41104 0.0
H124 H 0.17472 0.67192 0.46786 0.0
H125 H 0.04519 0.61541 0.33148 0.0
C126 C 0.03849 0.80905 0.20431 0.0
C127 C 0.06312 0.86014 0.20444 0.0
C128 C 0.10207 0.87359 0.25585 0.0
C129 C 0.11857 0.83542 0.30448 0.0
C130 C 0.09505 0.78448 0.30121 0.0
C131 C 0.05477 0.77184 0.25337 0.0
C132 C 0.03613 0.71444 0.25969 0.0
C133 C 0.97424 0.71103 0.278 0.0
C134 C 0.04827 0.68321 0.19475 0.0
C135 C 0.07281 0.69625 0.31783 0.0
C136 C 0.10694 0.73686 0.34096 0.0
C137 C 0.14515 0.72857 0.39367 0.0
C138 C 0.14689 0.67805 0.42507 0.0
C139 C 0.11028 0.63691 0.40387 0.0
C140 C 0.07371 0.64612 0.34875 0.0
H141 H 0.23401 0.93539 0.14823 0.0
H142 H 0.18841 0.09695 0.09199 0.0
H143 H 0.26583 0.13185 0.16212 0.0
H144 H 0.26434 0.96327 0.31834 0.0
H145 H 0.32154 0.91748 0.32537 0.0
H146 H 0.26631 0.90519 0.26524 0.0
H147 H 0.33778 0.90131 0.16806 0.0
H148 H 0.39333 0.91327 0.22803 0.0
H149 H 0.38502 0.9564 0.15525 0.0
H150 H 0.34569 0.14931 0.24526 0.0
H151 H 0.41987 0.14684 0.33354 0.0
H152 H 0.4105 0.97398 0.33511 0.0
C153 C 0.24109 0.97804 0.14923 0.0
C154 C 0.20543 0.01332 0.11394 0.0
C155 C 0.21537 0.06902 0.11821 0.0
C156 C 0.25928 0.08929 0.15794 0.0
C157 C 0.29297 0.05343 0.19326 0.0
C158 C 0.2844 0.99896 0.18904 0.0
C159 C 0.32399 0.96896 0.23522 0.0
C160 C 0.29214 0.93685 0.28922 0.0
C161 C 0.36231 0.93286 0.19418 0.0
C162 C 0.3559 0.01497 0.26642 0.0
C163 C 0.33782 0.06345 0.24151 0.0
C164 C 0.36045 0.11148 0.26474 0.0
C165 C 0.40253 0.10976 0.31488 0.0
C166 C 0.42117 0.06034 0.34138 0.0
C167 C 0.39749 0.01258 0.31609 0.0
H168 H 0.06558 0.7848 0.86322 0.0
H169 H 0.95327 0.89648 0.76498 0.0
H170 H 0.92194 0.82483 0.68658 0.0
H171 H 0.10749 0.71872 0.71548 0.0
H172 H 0.11243 0.65488 0.75746 0.0
H173 H 0.12296 0.71501 0.80494 0.0
H174 H 0.04578 0.6849 0.88797 0.0
H175 H 0.03418 0.62513 0.83973 0.0
H176 H 0.9773 0.66959 0.85545 0.0
H177 H 0.90498 0.73805 0.61778 0.0
H178 H 0.91275 0.6512 0.55898 0.0
H179 H 0.03575 0.60039 0.70719 0.0
C180 C 0.03408 0.79448 0.82559 0.0
C181 C 1.01153 0.84614 0.82054 0.0
C182 C 0.97125 0.85714 0.76955 0.0
C183 C 0.95288 0.81657 0.72537 0.0
C184 C 0.97536 0.76556 0.73308 0.0
C185 C 1.01558 0.75497 0.78172 0.0
C186 C 0.03579 0.69832 0.77868 0.0
C187 C 0.09834 0.69667 0.76318 0.0
C188 C 1.02244 0.6677 0.84436 0.0
C189 C 1.00122 0.67822 0.72006 0.0
C190 C 0.96597 0.71701 0.69453 0.0
C191 C 0.93211 0.70742 0.63791 0.0
C192 C 0.93628 0.65785 0.60526 0.0
C193 C 0.97447 0.61915 0.62915 0.0
C194 C 1.00575 0.62909 0.6884 0.0
H195 H 0.20849 0.91295 0.83554 0.0
H196 H 0.1797 0.08214 0.86278 0.0
H197 H 0.2573 0.10235 0.78518 0.0
H198 H 0.35806 0.91956 0.82872 0.0
H199 H 0.36285 0.86877 0.76497 0.0
H200 H 0.30598 0.86777 0.82354 0.0
H201 H 0.23584 0.86774 0.7231 0.0
H202 H 0.29242 0.86878 0.66416 0.0
H203 H 0.23986 0.91957 0.65959 0.0
H204 H 0.33694 0.10372 0.70515 0.0
H205 H 0.4122 0.088 0.62553 0.0
H206 H 0.38928 0.91685 0.6485 0.0
C207 C 0.21862 0.95439 0.82579 0.0
C208 C 0.18795 0.99612 0.85541 0.0
C209 C 0.20236 0.04962 0.84049 0.0
C210 C 0.24646 0.06139 0.79671 0.0
C211 C 0.27554 0.01918 0.76835 0.0
C212 C 0.26218 0.96677 0.78216 0.0
C213 C 0.29915 0.92876 0.74394 0.0
C214 C 0.33355 0.89418 0.79325 0.0
C215 C 0.26476 0.89419 0.69478 0.0
C216 C 0.33563 0.96805 0.70612 0.0
C217 C 0.32126 0.01991 0.72134 0.0
C218 C 0.34851 0.06334 0.69289 0.0
C219 C 0.39139 0.05373 0.6475 0.0
C220 C 0.40693 1.00097 0.63033 0.0
C221 C 0.37857 0.95754 0.66043 0.0
H222 H 0.95448 0.20934 0.8291 0.0
H223 H 0.10035 0.11483 0.78937 0.0
H224 H 0.14019 0.18976 0.72256 0.0
H225 H 0.94874 0.2748 0.66065 0.0
H226 H 0.92398 0.33615 0.69603 0.0
H227 H 0.90701 0.27346 0.73593 0.0
H228 H 0.94872 0.30861 0.84885 0.0
H229 H 0.96745 0.37073 0.80881 0.0
H230 H 1.01984 0.3315 0.85147 0.0
H231 H 0.16776 0.28016 0.67139 0.0
H232 H 0.17279 0.37073 0.62057 0.0
H233 H 1.00602 0.40251 0.68969 0.0
C234 C 0.99414 0.20398 0.8047 0.0
C235 C 1.02447 0.15655 0.81397 0.0
C236 C 0.07636 0.1508 0.78198 0.0
C237 C 0.09944 0.19331 0.74466 0.0
C238 C 0.06941 0.24062 0.73899 0.0
C239 C 1.01709 0.24542 0.76645 0.0
C240 C 0.99288 0.29998 0.75298 0.0
C241 C 0.94004 0.29584 0.70875 0.0
C242 C 0.98158 0.32941 0.8195 0.0
C243 C 0.04011 0.32572 0.71476 0.0
C244 C 0.08426 0.29127 0.70783 0.0
C245 C 0.13315 0.30719 0.67591 0.0
C246 C 0.13596 0.35887 0.64803 0.0
C247 C 0.08988 0.39349 0.65162 0.0
C248 C 0.0419 0.37684 0.68644 0.0
H249 H 0.87813 0.97914 0.79303 0.0
H250 H 0.79654 0.04883 0.96553 0.0
H251 H 0.71253 0.06435 0.89604 0.0
H252 H 0.83104 0.06613 0.67318 0.0
H253 H 0.81828 0.01953 0.60563 0.0
H254 H 0.86933 1.00466 0.67022 0.0
H255 H 0.81968 0.91581 0.69915 0.0
H256 H 0.7695 0.92925 0.63285 0.0
H257 H 0.74655 0.91589 0.71795 0.0
H258 H 0.64594 0.08924 0.80407 0.0
H259 H 0.58914 0.10105 0.69968 0.0
H260 H 0.70875 0.00963 0.58722 0.0
C261 C 0.84142 0.99481 0.81688 0.0
C262 C 0.84342 0.01223 0.8848 0.0
C263 C 0.7954 0.03462 0.91379 0.0
C264 C 0.74772 0.04412 0.87455 0.0
C265 C 0.74827 0.03014 0.80652 0.0
C266 C 0.79287 1.00409 0.77831 0.0
C267 C 0.78302 0.99536 0.70304 0.0
C268 C 0.82811 0.02308 0.66055 0.0
C269 C 0.77945 0.93552 0.68733 0.0
C270 C 0.72707 0.02224 0.69331 0.0
C271 C 0.70822 0.04262 0.75359 0.0
C272 C 0.6596 0.07249 0.75676 0.0
C273 C 0.6281 0.07978 0.69722 0.0
C274 C 0.64508 0.05679 0.63582 0.0
C275 C 0.69531 0.02795 0.63374 0.0
loop_
_geom_bond_atom_site_label_1
_geom_bond_atom_site_label_2
_geom_bond_distance
_geom_bond_site_symmetry_2
_ccdc_geom_bond_type
Fe0 O1 1.894 . S
Fe0 O4 1.707 1_645 S
Fe0 O9 2.077 1_655 S
Fe0 O14 1.920 1_655 S
Fe0 O20 2.093 1_545 S
Fe0 O29 1.938 1_545 S
O1 Fe0 1.894 . S
O1 Fe3 1.715 1_554 S
Fe2 O4 1.886 . S
Fe2 O5 1.715 1_554 S
Fe2 O12 1.935 1_554 S
Fe2 O13 2.077 . S
Fe2 O19 1.935 1_554 S
Fe2 O28 2.077 . S
Fe3 O1 1.715 1_556 S
Fe3 O6 1.886 . S
Fe3 O10 1.935 1_556 S
Fe3 O15 2.077 . S
Fe3 O21 1.935 1_556 S
Fe3 O25 2.077 . S
O4 Fe0 1.707 1_465 S
O4 Fe2 1.886 . S
O5 Fe2 1.715 1_556 S
O5 Fe7 1.894 . S
O6 Fe3 1.886 . S
O6 Fe7 1.707 1_645 S
Fe7 O5 1.894 . S
Fe7 O6 1.707 1_465 S
Fe7 O11 2.077 1_565 S
Fe7 O16 1.920 1_565 S
Fe7 O18 2.093 1_455 S
Fe7 O26 1.938 1_455 S
C8 O20 1.381 1_545 S
C8 O21 1.421 . S
O9 Fe0 2.077 1_455 S
O9 C22 1.381 1_455 S
O10 Fe3 1.935 1_554 S
O10 C22 1.421 . S
O11 Fe7 2.077 1_545 S
O11 C27 1.381 1_545 S
O12 Fe2 1.935 1_556 S
O12 C27 1.421 . S
O13 Fe2 2.077 . S
O13 C17 1.381 . S
O14 Fe0 1.920 1_455 S
O14 C17 1.421 1_545 S
O15 Fe3 2.077 . S
O15 C23 1.381 . S
O16 Fe7 1.920 1_545 S
O16 C23 1.421 1_455 S
C17 O13 1.381 . S
C17 O14 1.421 1_565 S
O18 Fe7 2.093 1_655 S
O18 C30 1.381 1_655 S
O19 Fe2 1.935 1_556 S
O19 C30 1.421 . S
O20 Fe0 2.093 1_565 S
O20 C8 1.381 1_565 S
O21 Fe3 1.935 1_554 S
O21 C8 1.421 . S
C22 O9 1.381 1_655 S
C22 O10 1.421 . S
C23 O15 1.381 . S
C23 O16 1.421 1_655 S
C24 O25 1.381 . S
C24 O26 1.421 1_545 S
O25 Fe3 2.077 . S
O25 C24 1.381 . S
O26 Fe7 1.938 1_655 S
O26 C24 1.421 1_565 S
C27 O11 1.381 1_565 S
C27 O12 1.421 . S
O28 Fe2 2.077 . S
O28 C31 1.381 . S
O29 Fe0 1.938 1_565 S
O29 C31 1.421 1_655 S
C30 O18 1.381 1_455 S
C30 O19 1.421 . S
C31 O28 1.381 . S
C31 O29 1.421 1_455 S
C32 O34 1.252 . S
C32 O36 1.253 1_455 S
C33 O40 1.245 . S
C33 O41 1.259 1_655 S
O34 C32 1.252 . S
O34 Zn35 2.028 . S
Zn35 O34 2.028 . S
Zn35 O39 2.035 . S
Zn35 O41 2.035 . S
Zn35 O42 2.028 . S
O36 C32 1.253 1_655 S
O36 Zn37 2.035 . S
Zn37 O36 2.035 . S
Zn37 O38 2.028 . S
Zn37 O40 2.028 . S
Zn37 O43 2.035 . S
O38 Zn37 2.028 . S
O38 C44 1.245 . S
O39 Zn35 2.035 . S
O39 C44 1.259 1_455 S
O40 C33 1.245 . S
O40 Zn37 2.028 . S
O41 C33 1.259 1_455 S
O41 Zn35 2.035 . S
O42 Zn35 2.028 . S
O42 C45 1.252 . S
O43 Zn37 2.035 . S
O43 C45 1.253 1_655 S
C44 O38 1.245 . S
C44 O39 1.259 1_655 S
C45 O42 1.252 . S
C45 O43 1.253 1_455 S
C46 O48 1.245 . S
C46 O50 1.260 1_565 S
C47 O54 1.252 . S
C47 O55 1.253 1_545 S
O48 C46 1.245 . S
O48 Zn49 2.028 . S
Zn49 O48 2.028 . S
Zn49 O53 2.035 . S
Zn49 O55 2.035 . S
Zn49 O56 2.028 . S
O50 C46 1.260 1_545 S
O50 Zn51 2.035 . S
Zn51 O50 2.035 . S
Zn51 O52 2.028 . S
Zn51 O54 2.028 . S
Zn51 O57 2.035 . S
O52 Zn51 2.028 . S
O52 C58 1.252 . S
O53 Zn49 2.035 . S
O53 C58 1.253 1_565 S
O54 C47 1.252 . S
O54 Zn51 2.028 . S
O55 C47 1.253 1_565 S
O55 Zn49 2.035 . S
O56 Zn49 2.028 . S
O56 C59 1.245 . S
O57 Zn51 2.035 . S
O57 C59 1.260 1_545 S
C58 O52 1.252 . S
C58 O53 1.253 1_545 S
C59 O56 1.245 . S
C59 O57 1.260 1_565 S
H60 C72 0.930 . S
H61 C74 0.930 . S
H62 C75 0.930 . S
H63 C79 0.959 . S
H64 C79 0.959 . S
H65 C79 0.961 . S
H66 C80 0.960 . S
H67 C80 0.961 . S
H68 C80 0.959 1_455 S
H69 C83 0.929 . S
H70 C84 0.931 . S
H71 C86 0.930 . S
C72 H60 0.930 . S
C72 C73 1.399 1_655 S
C72 C77 1.399 . S
C73 C72 1.399 1_455 S
C73 C74 1.376 . S
C74 H61 0.930 . S
C74 C73 1.376 . S
C74 C75 1.388 . S
C75 H62 0.930 . S
C75 C74 1.388 . S
C75 C76 1.390 . S
C76 C75 1.390 . S
C76 C77 1.394 1_455 S
C76 C82 1.465 . S
C77 C72 1.399 . S
C77 C76 1.394 1_655 S
C77 C78 1.516 . S
C78 C77 1.516 . S
C78 C79 1.502 . S
C78 C80 1.561 . S
C78 C81 1.526 . S
C79 H63 0.959 . S
C79 H64 0.959 . S
C79 H65 0.961 . S
C79 C78 1.502 . S
C80 H66 0.960 . S
C80 H67 0.961 . S
C80 H68 0.959 1_655 S
C80 C78 1.561 . S
C81 C78 1.526 . S
C81 C82 1.396 1_655 S
C81 C86 1.390 . S
C82 C76 1.465 . S
C82 C81 1.396 1_455 S
C82 C83 1.399 . S
C83 H69 0.929 . S
C83 C82 1.399 . S
C83 C84 1.385 . S
C84 H70 0.931 . S
C84 C83 1.385 . S
C84 C85 1.389 . S
C85 C84 1.389 . S
C85 C86 1.387 1_455 S
C86 H71 0.930 . S
C86 C81 1.390 . S
C86 C85 1.387 1_655 S
H87 C99 0.930 . S
H88 C101 0.930 . S
H89 C102 0.930 . S
H90 C106 0.959 . S
H91 C106 0.959 . S
H92 C106 0.961 . S
H93 C107 0.960 . S
H94 C107 0.961 . S
H95 C107 0.959 . S
H96 C110 0.929 . S
H97 C111 0.931 . S
H98 C113 0.930 . S
C99 H87 0.930 . S
C99 C100 1.399 1_565 S
C99 C104 1.399 . S
C100 C99 1.399 1_545 S
C100 C101 1.376 . S
C101 H88 0.930 . S
C101 C100 1.376 . S
C101 C102 1.388 . S
C102 H89 0.930 . S
C102 C101 1.388 . S
C102 C103 1.390 . S
C103 C102 1.390 . S
C103 C104 1.394 1_545 S
C103 C109 1.465 . S
C104 C99 1.399 . S
C104 C103 1.394 1_565 S
C104 C105 1.516 . S
C105 C104 1.516 . S
C105 C106 1.502 . S
C105 C107 1.561 . S
C105 C108 1.526 . S
C106 H90 0.959 . S
C106 H91 0.959 . S
C106 H92 0.961 . S
C106 C105 1.502 . S
C107 H93 0.960 . S
C107 H94 0.961 . S
C107 H95 0.959 . S
C107 C105 1.561 . S
C108 C105 1.526 . S
C108 C109 1.396 1_565 S
C108 C113 1.390 . S
C109 C103 1.465 . S
C109 C108 1.396 1_545 S
C109 C110 1.399 . S
C110 H96 0.929 . S
C110 C109 1.399 . S
C110 C111 1.385 . S
C111 H97 0.931 . S
C111 C110 1.385 . S
C111 C112 1.389 . S
C112 C111 1.389 . S
C112 C113 1.387 1_545 S
C113 H98 0.930 . S
C113 C108 1.390 . S
C113 C112 1.387 1_565 S
H114 C126 0.930 . S
H115 C128 0.930 . S
H116 C129 0.930 . S
H117 C133 0.959 . S
H118 C133 0.959 . S
H119 C133 0.961 . S
H120 C134 0.960 . S
H121 C134 0.961 . S
H122 C134 0.959 1_655 S
H123 C137 0.929 . S
H124 C138 0.931 . S
H125 C140 0.930 . S
C126 H114 0.930 . S
C126 C127 1.399 1_455 S
C126 C131 1.399 . S
C127 C126 1.399 1_655 S
C127 C128 1.376 . S
C128 H115 0.930 . S
C128 C127 1.376 . S
C128 C129 1.388 . S
C129 H116 0.930 . S
C129 C128 1.388 . S
C129 C130 1.390 . S
C130 C129 1.390 . S
C130 C131 1.394 1_655 S
C130 C136 1.465 . S
C131 C126 1.399 . S
C131 C130 1.394 1_455 S
C131 C132 1.516 . S
C132 C131 1.516 . S
C132 C133 1.502 . S
C132 C134 1.561 . S
C132 C135 1.526 . S
C133 H117 0.959 . S
C133 H118 0.959 . S
C133 H119 0.961 . S
C133 C132 1.502 . S
C134 H120 0.960 . S
C134 H121 0.961 . S
C134 H122 0.959 1_455 S
C134 C132 1.561 . S
C135 C132 1.526 . S
C135 C136 1.396 1_455 S
C135 C140 1.390 . S
C136 C130 1.465 . S
C136 C135 1.396 1_655 S
C136 C137 1.399 . S
C137 H123 0.929 . S
C137 C136 1.399 . S
C137 C138 1.385 . S
C138 H124 0.931 . S
C138 C137 1.385 . S
C138 C139 1.389 . S
C139 C138 1.389 . S
C139 C140 1.387 1_655 S
C140 H125 0.930 . S
C140 C135 1.390 . S
C140 C139 1.387 1_455 S
H141 C153 0.930 . S
H142 C155 0.930 . S
H143 C156 0.930 . S
H144 C160 0.959 . S
H145 C160 0.959 . S
H146 C160 0.961 . S
H147 C161 0.960 . S
H148 C161 0.961 . S
H149 C161 0.959 1_545 S
H150 C164 0.929 . S
H151 C165 0.931 . S
H152 C167 0.930 . S
C153 H141 0.930 . S
C153 C154 1.399 1_565 S
C153 C158 1.399 . S
C154 C153 1.399 1_545 S
C154 C155 1.376 . S
C155 H142 0.930 . S
C155 C154 1.376 . S
C155 C156 1.388 . S
C156 H143 0.930 . S
C156 C155 1.388 . S
C156 C157 1.390 . S
C157 C156 1.390 . S
C157 C158 1.394 1_545 S
C157 C163 1.465 . S
C158 C153 1.399 . S
C158 C157 1.394 1_565 S
C158 C159 1.516 . S
C159 C158 1.516 . S
C159 C160 1.502 . S
C159 C161 1.561 . S
C159 C162 1.526 . S
C160 H144 0.959 . S
C160 H145 0.959 . S
C160 H146 0.961 . S
C160 C159 1.502 . S
C161 H147 0.960 . S
C161 H148 0.961 . S
C161 H149 0.959 1_565 S
C161 C159 1.561 . S
C162 C159 1.526 . S
C162 C163 1.396 1_565 S
C162 C167 1.390 . S
C163 C157 1.465 . S
C163 C162 1.396 1_545 S
C163 C164 1.399 . S
C164 H150 0.929 . S
C164 C163 1.399 . S
C164 C165 1.385 . S
C165 H151 0.931 . S
C165 C164 1.385 . S
C165 C166 1.389 . S
C166 C165 1.389 . S
C166 C167 1.387 1_545 S
C167 H152 0.930 . S
C167 C162 1.390 . S
C167 C166 1.387 1_565 S
H168 C180 0.930 . S
H169 C182 0.930 . S
H170 C183 0.930 . S
H171 C187 0.959 . S
H172 C187 0.959 . S
H173 C187 0.961 . S
H174 C188 0.960 . S
H175 C188 0.961 . S
H176 C188 0.959 . S
H177 C191 0.929 . S
H178 C192 0.931 . S
H179 C194 0.930 . S
C180 H168 0.930 . S
C180 C181 1.399 1_655 S
C180 C185 1.399 . S
C181 C180 1.399 1_455 S
C181 C182 1.376 . S
C182 H169 0.930 . S
C182 C181 1.376 . S
C182 C183 1.388 . S
C183 H170 0.930 . S
C183 C182 1.388 . S
C183 C184 1.390 . S
C184 C183 1.390 . S
C184 C185 1.394 1_455 S
C184 C190 1.465 . S
C185 C180 1.399 . S
C185 C184 1.394 1_655 S
C185 C186 1.516 . S
C186 C185 1.516 . S
C186 C187 1.502 . S
C186 C188 1.561 1_655 S
C186 C189 1.526 . S
C187 H171 0.959 . S
C187 H172 0.959 . S
C187 H173 0.961 . S
C187 C186 1.502 . S
C188 H174 0.960 . S
C188 H175 0.961 . S
C188 H176 0.959 . S
C188 C186 1.561 1_455 S
C189 C186 1.526 . S
C189 C190 1.396 1_655 S
C189 C194 1.390 . S
C190 C184 1.465 . S
C190 C189 1.396 1_455 S
C190 C191 1.399 . S
C191 H177 0.929 . S
C191 C190 1.399 . S
C191 C192 1.385 . S
C192 H178 0.931 . S
C192 C191 1.385 . S
C192 C193 1.389 . S
C193 C192 1.389 . S
C193 C194 1.387 1_455 S
C194 H179 0.930 . S
C194 C189 1.390 . S
C194 C193 1.387 1_655 S
H195 C207 0.930 . S
H196 C209 0.930 . S
H197 C210 0.930 . S
H198 C214 0.959 . S
H199 C214 0.959 . S
H200 C214 0.961 . S
H201 C215 0.960 . S
H202 C215 0.961 . S
H203 C215 0.959 . S
H204 C218 0.929 . S
H205 C219 0.931 . S
H206 C221 0.930 . S
C207 H195 0.930 . S
C207 C208 1.399 1_565 S
C207 C212 1.399 . S
C208 C207 1.399 1_545 S
C208 C209 1.376 . S
C209 H196 0.930 . S
C209 C208 1.376 . S
C209 C210 1.388 . S
C210 H197 0.930 . S
C210 C209 1.388 . S
C210 C211 1.390 . S
C211 C210 1.390 . S
C211 C212 1.394 1_545 S
C211 C217 1.465 . S
C212 C207 1.399 . S
C212 C211 1.394 1_565 S
C212 C213 1.516 . S
C213 C212 1.516 . S
C213 C214 1.502 . S
C213 C215 1.561 . S
C213 C216 1.526 . S
C214 H198 0.959 . S
C214 H199 0.959 . S
C214 H200 0.961 . S
C214 C213 1.502 . S
C215 H201 0.960 . S
C215 H202 0.961 . S
C215 H203 0.959 . S
C215 C213 1.561 . S
C216 C213 1.526 . S
C216 C217 1.396 1_565 S
C216 C221 1.390 . S
C217 C211 1.465 . S
C217 C216 1.396 1_545 S
C217 C218 1.399 . S
C218 H204 0.929 . S
C218 C217 1.399 . S
C218 C219 1.385 . S
C219 H205 0.931 . S
C219 C218 1.385 . S
C219 C220 1.389 . S
C220 C219 1.389 . S
C220 C221 1.387 1_545 S
C221 H206 0.930 . S
C221 C216 1.390 . S
C221 C220 1.387 1_565 S
H222 C234 0.930 . S
H223 C236 0.930 . S
H224 C237 0.930 . S
H225 C241 0.959 1_655 S
H226 C241 0.959 . S
H227 C241 0.961 . S
H228 C242 0.960 . S
H229 C242 0.961 . S
H230 C242 0.959 . S
H231 C245 0.929 . S
H232 C246 0.931 . S
H233 C248 0.930 . S
C234 H222 0.930 . S
C234 C235 1.397 1_455 S
C234 C239 1.399 . S
C235 C234 1.397 1_655 S
C235 C236 1.379 . S
C236 H223 0.930 . S
C236 C235 1.379 . S
C236 C237 1.388 . S
C237 H224 0.930 . S
C237 C236 1.388 . S
C237 C238 1.390 . S
C238 C237 1.390 . S
C238 C239 1.394 1_655 S
C238 C244 1.465 . S
C239 C234 1.399 . S
C239 C238 1.394 1_455 S
C239 C240 1.516 . S
C240 C239 1.516 . S
C240 C241 1.502 . S
C240 C242 1.561 . S
C240 C243 1.526 . S
C241 H225 0.959 1_455 S
C241 H226 0.959 . S
C241 H227 0.961 . S
C241 C240 1.502 . S
C242 H228 0.960 . S
C242 H229 0.961 . S
C242 H230 0.959 . S
C242 C240 1.561 . S
C243 C240 1.526 . S
C243 C244 1.396 1_455 S
C243 C248 1.390 . S
C244 C238 1.465 . S
C244 C243 1.396 1_655 S
C244 C245 1.399 . S
C245 H231 0.929 . S
C245 C244 1.399 . S
C245 C246 1.385 . S
C246 H232 0.931 . S
C246 C245 1.385 . S
C246 C247 1.389 . S
C247 C246 1.389 . S
C247 C248 1.387 1_655 S
C248 H233 0.930 . S
C248 C243 1.390 . S
C248 C247 1.387 1_455 S
H249 C261 0.930 . S
H250 C263 0.930 . S
H251 C264 0.930 . S
H252 C268 0.959 . S
H253 C268 0.959 . S
H254 C268 0.961 . S
H255 C269 0.960 . S
H256 C269 0.961 . S
H257 C269 0.959 . S
H258 C272 0.929 . S
H259 C273 0.931 . S
H260 C275 0.930 . S
C261 H249 0.930 . S
C261 C262 1.399 1_565 S
C261 C266 1.399 . S
C262 C261 1.399 1_545 S
C262 C263 1.376 . S
C263 H250 0.930 . S
C263 C262 1.376 . S
C263 C264 1.388 . S
C264 H251 0.930 . S
C264 C263 1.388 . S
C264 C265 1.390 . S
C265 C264 1.390 . S
C265 C266 1.394 1_545 S
C265 C271 1.465 . S
C266 C261 1.399 . S
C266 C265 1.394 1_565 S
C266 C267 1.516 . S
C267 C266 1.516 . S
C267 C268 1.502 . S
C267 C269 1.561 . S
C267 C270 1.526 . S
C268 H252 0.959 . S
C268 H253 0.959 . S
C268 H254 0.961 . S
C268 C267 1.502 . S
C269 H255 0.960 . S
C269 H256 0.961 . S
C269 H257 0.959 . S
C269 C267 1.561 . S
C270 C267 1.526 . S
C270 C271 1.396 1_565 S
C270 C275 1.390 . S
C271 C265 1.465 . S
C271 C270 1.396 1_545 S
C271 C272 1.399 . S
C272 H258 0.929 . S
C272 C271 1.399 . S
C272 C273 1.385 . S
C273 H259 0.931 . S
C273 C272 1.385 . S
C273 C274 1.389 . S
C274 C273 1.389 . S
C274 C275 1.387 1_545 S
C275 H260 0.930 . S
C275 C270 1.390 . S
C275 C274 1.387 1_565 S
C73 C22 1.441 1_455 S
C85 C33 1.450 1_455 S
C100 C8 1.362 . S
C112 C59 1.452 1_545 S
C127 C31 1.435 1_655 S
C139 C45 1.449 1_655 S
C154 C17 1.411 1_545 S
C166 C47 1.453 . S
C181 C30 1.387 . S
C193 C32 1.451 . S
C208 C27 1.416 1_545 S
C220 C58 1.454 . S
C247 C44 1.454 . S
C235 C23 1.370 . S
C262 C24 1.403 . S
C274 C46 1.452 1_545 S
