# Generated by pormake.
# Topology iac, (4,6)-cn, num edge types: 1
# Building blocks:
#     Node 0, Type 0, BuildingBlock: AZAVOO_clean_sbu_0, # of connection points: 4
#     Node 1, Type 0, BuildingBlock: AZAVOO_clean_sbu_0, # of connection points: 4
#     Node 2, Type 0, BuildingBlock: AZAVOO_clean_sbu_0, # of connection points: 4
#     Node 3, Type 0, BuildingBlock: AZAVOO_clean_sbu_0, # of connection points: 4
#     Node 4, Type 0, BuildingBlock: AZAVOO_clean_sbu_0, # of connection points: 4
#     Node 5, Type 0, BuildingBlock: AZAVOO_clean_sbu_0, # of connection points: 4
#     Node 6, Type 0, BuildingBlock: AZAVOO_clean_sbu_0, # of connection points: 4
#     Node 7, Type 0, BuildingBlock: AZAVOO_clean_sbu_0, # of connection points: 4
#     Node 8, Type 0, BuildingBlock: AZAVOO_clean_sbu_0, # of connection points: 4
#     Node 9, Type 0, BuildingBlock: AZAVOO_clean_sbu_0, # of connection points: 4
#     Node 10, Type 0, BuildingBlock: AZAVOO_clean_sbu_0, # of connection points: 4
#     Node 11, Type 0, BuildingBlock: AZAVOO_clean_sbu_0, # of connection points: 4
#     Node 12, Type 0, BuildingBlock: AZAVOO_clean_sbu_0, # of connection points: 4
#     Node 13, Type 0, BuildingBlock: AZAVOO_clean_sbu_0, # of connection points: 4
#     Node 14, Type 0, BuildingBlock: AZAVOO_clean_sbu_0, # of connection points: 4
#     Node 15, Type 0, BuildingBlock: AZAVOO_clean_sbu_0, # of connection points: 4
#     Node 16, Type 0, BuildingBlock: AZAVOO_clean_sbu_0, # of connection points: 4
#     Node 17, Type 0, BuildingBlock: AZAVOO_clean_sbu_0, # of connection points: 4
#     Node 18, Type 0, BuildingBlock: AZAVOO_clean_sbu_0, # of connection points: 4
#     Node 19, Type 0, BuildingBlock: AZAVOO_clean_sbu_0, # of connection points: 4
#     Node 20, Type 0, BuildingBlock: AZAVOO_clean_sbu_0, # of connection points: 4
#     Node 21, Type 0, BuildingBlock: AZAVOO_clean_sbu_0, # of connection points: 4
#     Node 22, Type 0, BuildingBlock: AZAVOO_clean_sbu_0, # of connection points: 4
#     Node 23, Type 0, BuildingBlock: AZAVOO_clean_sbu_0, # of connection points: 4
#     Node 24, Type 1, BuildingBlock: JUFBIX_clean_sbu_0, # of connection points: 6
#     Node 25, Type 1, BuildingBlock: JUFBIX_clean_sbu_0, # of connection points: 6
#     Node 26, Type 1, BuildingBlock: JUFBIX_clean_sbu_0, # of connection points: 6
#     Node 27, Type 1, BuildingBlock: JUFBIX_clean_sbu_0, # of connection points: 6
#     Node 28, Type 1, BuildingBlock: JUFBIX_clean_sbu_0, # of connection points: 6
#     Node 29, Type 1, BuildingBlock: JUFBIX_clean_sbu_0, # of connection points: 6
#     Node 30, Type 1, BuildingBlock: JUFBIX_clean_sbu_0, # of connection points: 6
#     Node 31, Type 1, BuildingBlock: JUFBIX_clean_sbu_0, # of connection points: 6
#     Node 32, Type 1, BuildingBlock: JUFBIX_clean_sbu_0, # of connection points: 6
#     Node 33, Type 1, BuildingBlock: JUFBIX_clean_sbu_0, # of connection points: 6
#     Node 34, Type 1, BuildingBlock: JUFBIX_clean_sbu_0, # of connection points: 6
#     Node 35, Type 1, BuildingBlock: JUFBIX_clean_sbu_0, # of connection points: 6
#     Node 36, Type 1, BuildingBlock: JUFBIX_clean_sbu_0, # of connection points: 6
#     Node 37, Type 1, BuildingBlock: JUFBIX_clean_sbu_0, # of connection points: 6
#     Node 38, Type 1, BuildingBlock: JUFBIX_clean_sbu_0, # of connection points: 6
#     Node 39, Type 1, BuildingBlock: JUFBIX_clean_sbu_0, # of connection points: 6
#     Edge 40, Type (0, 1), BuildingBlock: OJICUG_clean_linker_0, # of connection points: 2
#     Edge 41, Type (0, 1), BuildingBlock: OJICUG_clean_linker_0, # of connection points: 2
#     Edge 42, Type (0, 1), BuildingBlock: OJICUG_clean_linker_0, # of connection points: 2
#     Edge 43, Type (0, 1), BuildingBlock: OJICUG_clean_linker_0, # of connection points: 2
#     Edge 44, Type (0, 1), BuildingBlock: OJICUG_clean_linker_0, # of connection points: 2
#     Edge 45, Type (0, 1), BuildingBlock: OJICUG_clean_linker_0, # of connection points: 2
#     Edge 46, Type (0, 1), BuildingBlock: OJICUG_clean_linker_0, # of connection points: 2
#     Edge 47, Type (0, 1), BuildingBlock: OJICUG_clean_linker_0, # of connection points: 2
#     Edge 48, Type (0, 1), BuildingBlock: OJICUG_clean_linker_0, # of connection points: 2
#     Edge 49, Type (0, 1), BuildingBlock: OJICUG_clean_linker_0, # of connection points: 2
#     Edge 50, Type (0, 1), BuildingBlock: OJICUG_clean_linker_0, # of connection points: 2
#     Edge 51, Type (0, 1), BuildingBlock: OJICUG_clean_linker_0, # of connection points: 2
#     Edge 52, Type (0, 1), BuildingBlock: OJICUG_clean_linker_0, # of connection points: 2
#     Edge 53, Type (0, 1), BuildingBlock: OJICUG_clean_linker_0, # of connection points: 2
#     Edge 54, Type (0, 1), BuildingBlock: OJICUG_clean_linker_0, # of connection points: 2
#     Edge 55, Type (0, 1), BuildingBlock: OJICUG_clean_linker_0, # of connection points: 2
#     Edge 56, Type (0, 1), BuildingBlock: OJICUG_clean_linker_0, # of connection points: 2
#     Edge 57, Type (0, 1), BuildingBlock: OJICUG_clean_linker_0, # of connection points: 2
#     Edge 58, Type (0, 1), BuildingBlock: OJICUG_clean_linker_0, # of connection points: 2
#     Edge 59, Type (0, 1), BuildingBlock: OJICUG_clean_linker_0, # of connection points: 2
#     Edge 60, Type (0, 1), BuildingBlock: OJICUG_clean_linker_0, # of connection points: 2
#     Edge 61, Type (0, 1), BuildingBlock: OJICUG_clean_linker_0, # of connection points: 2
#     Edge 62, Type (0, 1), BuildingBlock: OJICUG_clean_linker_0, # of connection points: 2
#     Edge 63, Type (0, 1), BuildingBlock: OJICUG_clean_linker_0, # of connection points: 2
#     Edge 64, Type (0, 1), BuildingBlock: OJICUG_clean_linker_0, # of connection points: 2
#     Edge 65, Type (0, 1), BuildingBlock: OJICUG_clean_linker_0, # of connection points: 2
#     Edge 66, Type (0, 1), BuildingBlock: OJICUG_clean_linker_0, # of connection points: 2
#     Edge 67, Type (0, 1), BuildingBlock: OJICUG_clean_linker_0, # of connection points: 2
#     Edge 68, Type (0, 1), BuildingBlock: OJICUG_clean_linker_0, # of connection points: 2
#     Edge 69, Type (0, 1), BuildingBlock: OJICUG_clean_linker_0, # of connection points: 2
#     Edge 70, Type (0, 1), BuildingBlock: OJICUG_clean_linker_0, # of connection points: 2
#     Edge 71, Type (0, 1), BuildingBlock: OJICUG_clean_linker_0, # of connection points: 2
#     Edge 72, Type (0, 1), BuildingBlock: OJICUG_clean_linker_0, # of connection points: 2
#     Edge 73, Type (0, 1), BuildingBlock: OJICUG_clean_linker_0, # of connection points: 2
#     Edge 74, Type (0, 1), BuildingBlock: OJICUG_clean_linker_0, # of connection points: 2
#     Edge 75, Type (0, 1), BuildingBlock: OJICUG_clean_linker_0, # of connection points: 2
#     Edge 76, Type (0, 1), BuildingBlock: OJICUG_clean_linker_0, # of connection points: 2
#     Edge 77, Type (0, 1), BuildingBlock: OJICUG_clean_linker_0, # of connection points: 2
#     Edge 78, Type (0, 1), BuildingBlock: OJICUG_clean_linker_0, # of connection points: 2
#     Edge 79, Type (0, 1), BuildingBlock: OJICUG_clean_linker_0, # of connection points: 2
#     Edge 80, Type (0, 1), BuildingBlock: OJICUG_clean_linker_0, # of connection points: 2
#     Edge 81, Type (0, 1), BuildingBlock: OJICUG_clean_linker_0, # of connection points: 2
#     Edge 82, Type (0, 1), BuildingBlock: OJICUG_clean_linker_0, # of connection points: 2
#     Edge 83, Type (0, 1), BuildingBlock: OJICUG_clean_linker_0, # of connection points: 2
#     Edge 84, Type (0, 1), BuildingBlock: OJICUG_clean_linker_0, # of connection points: 2
#     Edge 85, Type (0, 1), BuildingBlock: OJICUG_clean_linker_0, # of connection points: 2
#     Edge 86, Type (0, 1), BuildingBlock: OJICUG_clean_linker_0, # of connection points: 2
#     Edge 87, Type (0, 1), BuildingBlock: OJICUG_clean_linker_0, # of connection points: 2
#     Edge 88, Type (0, 1), BuildingBlock: OJICUG_clean_linker_0, # of connection points: 2
#     Edge 89, Type (0, 1), BuildingBlock: OJICUG_clean_linker_0, # of connection points: 2
#     Edge 90, Type (0, 1), BuildingBlock: OJICUG_clean_linker_0, # of connection points: 2
#     Edge 91, Type (0, 1), BuildingBlock: OJICUG_clean_linker_0, # of connection points: 2
#     Edge 92, Type (0, 1), BuildingBlock: OJICUG_clean_linker_0, # of connection points: 2
#     Edge 93, Type (0, 1), BuildingBlock: OJICUG_clean_linker_0, # of connection points: 2
#     Edge 94, Type (0, 1), BuildingBlock: OJICUG_clean_linker_0, # of connection points: 2
#     Edge 95, Type (0, 1), BuildingBlock: OJICUG_clean_linker_0, # of connection points: 2
#     Edge 96, Type (0, 1), BuildingBlock: OJICUG_clean_linker_0, # of connection points: 2
#     Edge 97, Type (0, 1), BuildingBlock: OJICUG_clean_linker_0, # of connection points: 2
#     Edge 98, Type (0, 1), BuildingBlock: OJICUG_clean_linker_0, # of connection points: 2
#     Edge 99, Type (0, 1), BuildingBlock: OJICUG_clean_linker_0, # of connection points: 2
#     Edge 100, Type (0, 1), BuildingBlock: OJICUG_clean_linker_0, # of connection points: 2
#     Edge 101, Type (0, 1), BuildingBlock: OJICUG_clean_linker_0, # of connection points: 2
#     Edge 102, Type (0, 1), BuildingBlock: OJICUG_clean_linker_0, # of connection points: 2
#     Edge 103, Type (0, 1), BuildingBlock: OJICUG_clean_linker_0, # of connection points: 2
#     Edge 104, Type (0, 1), BuildingBlock: OJICUG_clean_linker_0, # of connection points: 2
#     Edge 105, Type (0, 1), BuildingBlock: OJICUG_clean_linker_0, # of connection points: 2
#     Edge 106, Type (0, 1), BuildingBlock: OJICUG_clean_linker_0, # of connection points: 2
#     Edge 107, Type (0, 1), BuildingBlock: OJICUG_clean_linker_0, # of connection points: 2
#     Edge 108, Type (0, 1), BuildingBlock: OJICUG_clean_linker_0, # of connection points: 2
#     Edge 109, Type (0, 1), BuildingBlock: OJICUG_clean_linker_0, # of connection points: 2
#     Edge 110, Type (0, 1), BuildingBlock: OJICUG_clean_linker_0, # of connection points: 2
#     Edge 111, Type (0, 1), BuildingBlock: OJICUG_clean_linker_0, # of connection points: 2
#     Edge 112, Type (0, 1), BuildingBlock: OJICUG_clean_linker_0, # of connection points: 2
#     Edge 113, Type (0, 1), BuildingBlock: OJICUG_clean_linker_0, # of connection points: 2
#     Edge 114, Type (0, 1), BuildingBlock: OJICUG_clean_linker_0, # of connection points: 2
#     Edge 115, Type (0, 1), BuildingBlock: OJICUG_clean_linker_0, # of connection points: 2
#     Edge 116, Type (0, 1), BuildingBlock: OJICUG_clean_linker_0, # of connection points: 2
#     Edge 117, Type (0, 1), BuildingBlock: OJICUG_clean_linker_0, # of connection points: 2
#     Edge 118, Type (0, 1), BuildingBlock: OJICUG_clean_linker_0, # of connection points: 2
#     Edge 119, Type (0, 1), BuildingBlock: OJICUG_clean_linker_0, # of connection points: 2
#     Edge 120, Type (0, 1), BuildingBlock: OJICUG_clean_linker_0, # of connection points: 2
#     Edge 121, Type (0, 1), BuildingBlock: OJICUG_clean_linker_0, # of connection points: 2
#     Edge 122, Type (0, 1), BuildingBlock: OJICUG_clean_linker_0, # of connection points: 2
#     Edge 123, Type (0, 1), BuildingBlock: OJICUG_clean_linker_0, # of connection points: 2
#     Edge 124, Type (0, 1), BuildingBlock: OJICUG_clean_linker_0, # of connection points: 2
#     Edge 125, Type (0, 1), BuildingBlock: OJICUG_clean_linker_0, # of connection points: 2
#     Edge 126, Type (0, 1), BuildingBlock: OJICUG_clean_linker_0, # of connection points: 2
#     Edge 127, Type (0, 1), BuildingBlock: OJICUG_clean_linker_0, # of connection points: 2
#     Edge 128, Type (0, 1), BuildingBlock: OJICUG_clean_linker_0, # of connection points: 2
#     Edge 129, Type (0, 1), BuildingBlock: OJICUG_clean_linker_0, # of connection points: 2
#     Edge 130, Type (0, 1), BuildingBlock: OJICUG_clean_linker_0, # of connection points: 2
#     Edge 131, Type (0, 1), BuildingBlock: OJICUG_clean_linker_0, # of connection points: 2
#     Edge 132, Type (0, 1), BuildingBlock: OJICUG_clean_linker_0, # of connection points: 2
#     Edge 133, Type (0, 1), BuildingBlock: OJICUG_clean_linker_0, # of connection points: 2
#     Edge 134, Type (0, 1), BuildingBlock: OJICUG_clean_linker_0, # of connection points: 2
#     Edge 135, Type (0, 1), BuildingBlock: OJICUG_clean_linker_0, # of connection points: 2
# Relax obj value: 0.284
# Max RMSD: 0.238
# Mean RMSD: 0.175
data_MOF--net-iac--node1-AZAVOO_clean_sbu_0--node2-JUFBIX_clean_sbu_0--edge1-OJICUG_clean_linker_0
_symmetry_space_group_name_H-M    P1
_symmetry_Int_Tables_number       1
_symmetry_cell_setting            triclinic
loop_
_symmetry_equiv_pos_as_xyz
'x, y, z'
_cell_length_a     41.150408
_cell_length_b     40.085671
_cell_length_c     40.66733
_cell_angle_alpha  92.154063
_cell_angle_beta   87.855885
_cell_angle_gamma 90.007027
loop_
_atom_site_label
_atom_site_type_symbol
_atom_site_fract_x
_atom_site_fract_y
_atom_site_fract_z
_atom_type_partial_charge
Mg0 Mg 0.03408 0.31014 0.1733 0.0
O1 O 0.03172 0.25991 0.13914 0.0
O2 O 0.98677 0.26484 0.1106 0.0
Mg3 Mg 0.95823 0.31275 0.12773 0.0
C4 C 0.01194 0.24826 0.11773 0.0
C5 C 0.09731 0.288 0.21269 0.0
O6 O 0.07421 0.27349 0.23014 0.0
O7 O 0.04452 0.34957 0.13145 0.0
O8 O 0.99568 0.3513 0.10928 0.0
O9 O 0.00283 0.28628 0.21431 0.0
O10 O 0.98251 0.31451 0.17504 0.0
C11 C 0.02454 0.3627 0.11191 0.0
C12 C 0.97744 0.29861 0.20145 0.0
O13 O 0.08943 0.30313 0.18692 0.0
Mg14 Mg 0.03393 0.72325 0.40438 0.0
O15 O 0.01 0.77084 0.42705 0.0
O16 O 0.96136 0.75655 0.4482 0.0
Mg17 Mg 0.95334 0.70113 0.43705 0.0
C18 C 0.9835 0.77821 0.44301 0.0
C19 C 0.09038 0.74126 0.36698 0.0
O20 O 0.07633 0.71518 0.35309 0.0
O21 O 0.04422 0.7077 0.45565 0.0
O22 O 0.99447 0.6918 0.47287 0.0
O23 O 0.01365 0.73042 0.3565 0.0
O24 O 0.98868 0.70137 0.39514 0.0
C25 C 0.02487 0.69581 0.47747 0.0
C26 C 0.98906 0.71278 0.36585 0.0
O27 O 0.08113 0.75071 0.39602 0.0
Mg28 Mg 0.53328 0.80279 0.67108 0.0
O29 O 0.53223 0.75348 0.63582 0.0
O30 O 0.48885 0.75897 0.60503 0.0
Mg31 Mg 0.46016 0.80692 0.62093 0.0
C32 C 0.5135 0.74222 0.61327 0.0
C33 C 0.60274 0.81645 0.70386 0.0
O34 O 0.58882 0.84592 0.70756 0.0
O35 O 0.54687 0.84249 0.6301 0.0
O36 O 0.4995 0.84444 0.60501 0.0
O37 O 0.49924 0.7778 0.7092 0.0
O38 O 0.48168 0.80743 0.66956 0.0
C39 C 0.52823 0.85556 0.60919 0.0
C40 C 0.4748 0.79032 0.69484 0.0
O41 O 0.58741 0.79323 0.68837 0.0
Mg42 Mg 0.5576 0.23646 0.89194 0.0
O43 O 0.53333 0.28269 0.91803 0.0
O44 O 0.48294 0.26753 0.93382 0.0
Mg45 Mg 0.47483 0.2134 0.91813 0.0
C46 C 0.50561 0.28919 0.93218 0.0
C47 C 0.61987 0.25332 0.86231 0.0
O48 O 0.60337 0.2345 0.84173 0.0
O49 O 0.56451 0.21435 0.94114 0.0
O50 O 0.51338 0.19972 0.95467 0.0
O51 O 0.53962 0.24997 0.84405 0.0
O52 O 0.51238 0.21827 0.87891 0.0
C53 C 0.54357 0.20166 0.9608 0.0
C54 C 0.51373 0.23316 0.85134 0.0
O55 O 0.60751 0.26006 0.89088 0.0
Mg56 Mg 0.15019 0.98611 0.32247 0.0
O57 O 0.1735 0.038 0.32727 0.0
O58 O 0.20179 0.0369 0.37317 0.0
Mg59 Mg 0.19505 0.98737 0.39825 0.0
C60 C 0.19234 0.05181 0.34799 0.0
C61 C 0.12322 0.01875 0.26086 0.0
O62 O 0.11705 0.04347 0.28231 0.0
O63 O 0.19906 0.96453 0.30739 0.0
O64 O 0.22361 0.96015 0.3551 0.0
O65 O 0.10548 0.00229 0.3506 0.0
O66 O 0.14935 0.98203 0.37275 0.0
C67 C 0.22287 0.95502 0.32389 0.0
C68 C 0.12062 0.99459 0.37661 0.0
O69 O 0.13824 0.99319 0.26976 0.0
Mg70 Mg 0.26769 0.90614 0.56045 0.0
O71 O 0.27508 0.87072 0.51507 0.0
O72 O 0.326 0.85118 0.51741 0.0
Mg73 Mg 0.35022 0.87308 0.56209 0.0
C74 C 0.29866 0.8523 0.50369 0.0
C75 C 0.20168 0.9194 0.58573 0.0
O76 O 0.22183 0.92663 0.60929 0.0
O77 O 0.2632 0.86099 0.5904 0.0
O78 O 0.31395 0.84169 0.59213 0.0
O79 O 0.28544 0.9491 0.53237 0.0
O80 O 0.31652 0.91525 0.55948 0.0
C81 C 0.28355 0.83962 0.59933 0.0
C82 C 0.31424 0.93965 0.53992 0.0
O83 O 0.2132 0.90785 0.55818 0.0
Mg84 Mg 0.4089 0.09 0.78004 0.0
O85 O 0.38337 0.03966 0.78594 0.0
O86 O 0.3581 0.04251 0.8358 0.0
Mg87 Mg 0.37055 0.09127 0.86242 0.0
C88 C 0.36476 0.02732 0.80822 0.0
C89 C 0.43571 0.0585 0.71628 0.0
O90 O 0.44699 0.03922 0.73864 0.0
O91 O 0.35985 0.1121 0.77434 0.0
O92 O 0.33753 0.116 0.82523 0.0
O93 O 0.45412 0.07051 0.79844 0.0
O94 O 0.41485 0.09355 0.83038 0.0
C95 C 0.33634 0.12017 0.79425 0.0
C96 C 0.44205 0.07736 0.82771 0.0
O97 O 0.41556 0.08133 0.72507 0.0
Mg98 Mg 0.29145 0.15473 0.01946 0.0
O99 O 0.29007 0.18956 0.06862 0.0
O100 O 0.33613 0.21901 0.06602 0.0
Mg101 Mg 0.36757 0.20278 0.0194 0.0
C102 C 0.30966 0.21108 0.08132 0.0
C103 C 0.22413 0.11362 0.03328 0.0
O104 O 0.24516 0.09287 0.04493 0.0
O105 O 0.28439 0.19661 0.97945 0.0
O106 O 0.33374 0.2196 0.97846 0.0
O107 O 0.31906 0.11542 0.04799 0.0
O108 O 0.34359 0.15361 0.01934 0.0
C109 C 0.30563 0.21621 0.9663 0.0
C110 C 0.34613 0.12874 0.03806 0.0
O111 O 0.23472 0.14153 0.02279 0.0
Mg112 Mg 0.75945 0.44194 0.07367 0.0
O113 O 0.78156 0.4053 0.03386 0.0
O114 O 0.83458 0.40158 0.044 0.0
Mg115 Mg 0.84529 0.4328 0.08982 0.0
C116 C 0.81009 0.39359 0.02704 0.0
C117 C 0.69152 0.44095 0.08833 0.0
O118 O 0.70726 0.45079 0.1145 0.0
O119 O 0.76034 0.40095 0.10896 0.0
O120 O 0.81337 0.39538 0.11774 0.0
O121 O 0.77134 0.48431 0.04225 0.0
O122 O 0.80338 0.4637 0.07942 0.0
C123 C 0.78375 0.38647 0.12209 0.0
C124 C 0.79919 0.48387 0.05605 0.0
O125 O 0.7078 0.43003 0.06302 0.0
Mg126 Mg 0.907 0.611 0.27753 0.0
O127 O 0.88607 0.5585 0.28659 0.0
O128 O 0.86482 0.56335 0.33816 0.0
Mg129 Mg 0.87576 0.6136 0.36248 0.0
C130 C 0.86993 0.54678 0.31104 0.0
C131 C 0.93693 0.61766 0.21286 0.0
O132 O 0.95066 0.63864 0.23373 0.0
O133 O 0.85539 0.62848 0.27477 0.0
O134 O 0.83765 0.63335 0.32733 0.0
O135 O 0.95526 0.59642 0.29238 0.0
O136 O 0.91708 0.61728 0.32698 0.0
C137 C 0.83312 0.63556 0.29652 0.0
C138 C 0.94555 0.60385 0.32235 0.0
O139 O 0.91244 0.60105 0.22287 0.0
Mg140 Mg 0.78981 0.65468 0.522 0.0
O141 O 0.78929 0.68882 0.57195 0.0
O142 O 0.83493 0.71881 0.56833 0.0
Mg143 Mg 0.86566 0.70278 0.52109 0.0
C144 C 0.80885 0.71069 0.5842 0.0
C145 C 0.7242 0.61194 0.53664 0.0
O146 O 0.74593 0.59203 0.54838 0.0
O147 O 0.78126 0.69748 0.48356 0.0
O148 O 0.83069 0.72029 0.48145 0.0
O149 O 0.81797 0.6141 0.54782 0.0
O150 O 0.84189 0.65344 0.52019 0.0
C151 C 0.80217 0.71724 0.47015 0.0
C152 C 0.84484 0.62739 0.53728 0.0
O153 O 0.73372 0.64018 0.52608 0.0
Mg154 Mg 0.66732 0.47885 0.80442 0.0
O155 O 0.68695 0.53179 0.81316 0.0
O156 O 0.70361 0.53506 0.8648 0.0
Mg157 Mg 0.69721 0.48442 0.88777 0.0
C158 C 0.6989 0.54821 0.83728 0.0
C159 C 0.64573 0.51279 0.74404 0.0
O160 O 0.63864 0.53522 0.7676 0.0
O161 O 0.71861 0.45963 0.79793 0.0
O162 O 0.73449 0.4611 0.84994 0.0
O163 O 0.61925 0.49485 0.82478 0.0
O164 O 0.658 0.4733 0.85416 0.0
C165 C 0.73978 0.45419 0.81924 0.0
C166 C 0.6297 0.48676 0.853 0.0
O167 O 0.66233 0.48738 0.75063 0.0
Mg168 Mg 0.02623 0.79183 0.89212 0.0
O169 O 0.02776 0.84477 0.92042 0.0
O170 O 0.98466 0.84574 0.95515 0.0
Mg171 Mg 0.95185 0.79969 0.9433 0.0
C172 C 0.01055 0.85937 0.94363 0.0
C173 C 0.0941 0.77276 0.85834 0.0
O174 O 0.07712 0.74545 0.85301 0.0
O175 O 0.03645 0.75891 0.93777 0.0
O176 O 0.9869 0.76041 0.96219 0.0
O177 O 0.99697 0.81148 0.85013 0.0
O178 O 0.97442 0.78935 0.89366 0.0
C179 C 0.01557 0.74804 0.95915 0.0
C180 C 0.97075 0.80137 0.8652 0.0
O181 O 0.08069 0.79686 0.87518 0.0
Mg182 Mg 0.01902 0.32999 0.66501 0.0
O183 O 0.03334 0.27877 0.6412 0.0
O184 O 0.9869 0.25993 0.62031 0.0
Mg185 Mg 0.94395 0.2941 0.63521 0.0
C186 C 0.01734 0.25686 0.6248 0.0
C187 C 0.0715 0.36738 0.69396 0.0
O188 O 0.04396 0.37968 0.70656 0.0
O189 O 0.01395 0.35065 0.61472 0.0
O190 O 0.96362 0.33511 0.60168 0.0
O191 O 0.01012 0.30806 0.71379 0.0
O192 O 0.97352 0.31245 0.67558 0.0
C193 C 0.9897 0.35159 0.59615 0.0
C194 C 0.98113 0.30208 0.7039 0.0
O195 O 0.07051 0.347 0.6693 0.0
Mg196 Mg 0.52658 0.28654 0.39232 0.0
O197 O 0.52729 0.33827 0.42167 0.0
O198 O 0.48352 0.33938 0.45542 0.0
Mg199 Mg 0.45107 0.2935 0.44151 0.0
C200 C 0.5098 0.35281 0.4446 0.0
C201 C 0.59591 0.27392 0.35766 0.0
O202 O 0.57915 0.24901 0.34496 0.0
O203 O 0.53522 0.25223 0.43774 0.0
O204 O 0.48518 0.25352 0.46102 0.0
O205 O 0.49851 0.30828 0.35017 0.0
O206 O 0.47468 0.2842 0.39194 0.0
C207 C 0.51385 0.24108 0.45852 0.0
C208 C 0.47182 0.29784 0.36409 0.0
O209 O 0.58171 0.29365 0.37893 0.0
Mg210 Mg 0.48394 0.80321 0.17896 0.0
O211 O 0.50472 0.76734 0.13905 0.0
O212 O 0.46841 0.76207 0.09982 0.0
Mg213 Mg 0.42289 0.79166 0.11674 0.0
C214 C 0.49615 0.75565 0.11115 0.0
C215 C 0.54119 0.83181 0.21921 0.0
O216 O 0.51935 0.85464 0.22807 0.0
O217 O 0.49141 0.846 0.14549 0.0
O218 O 0.45139 0.84031 0.10983 0.0
O219 O 0.4615 0.76206 0.20653 0.0
O220 O 0.43731 0.79002 0.16836 0.0
C221 C 0.47557 0.85622 0.12144 0.0
C222 C 0.43599 0.76694 0.18956 0.0
O223 O 0.5339 0.80847 0.19889 0.0
Mg224 Mg 0.87194 0.08828 0.77796 0.0
O225 O 0.89876 0.04286 0.79443 0.0
O226 O 0.87018 0.0268 0.83861 0.0
Mg227 Mg 0.84483 0.0714 0.86432 0.0
C228 C 0.88921 0.02032 0.81367 0.0
C229 C 0.92116 0.06874 0.72567 0.0
O230 O 0.9364 0.07861 0.75206 0.0
O231 O 0.82636 0.05616 0.77884 0.0
O232 O 0.80482 0.05603 0.8281 0.0
O233 O 0.9111 0.12125 0.79551 0.0
O234 O 0.87047 0.10511 0.82813 0.0
C235 C 0.80664 0.0695 0.80033 0.0
C236 C 0.89906 0.11822 0.82504 0.0
O237 O 0.89023 0.07097 0.72601 0.0
Mg238 Mg 0.82701 0.15069 0.48877 0.0
O239 O 0.82684 0.17835 0.5381 0.0
O240 O 0.87395 0.20476 0.5448 0.0
Mg241 Mg 0.9055 0.19205 0.49844 0.0
C242 C 0.84521 0.19733 0.55488 0.0
C243 C 0.76472 0.11416 0.50245 0.0
O244 O 0.7857 0.09 0.49561 0.0
O245 O 0.82142 0.19934 0.46565 0.0
O246 O 0.87082 0.22253 0.46793 0.0
O247 O 0.84664 0.10632 0.5096 0.0
O248 O 0.87722 0.14617 0.48797 0.0
C249 C 0.8413 0.22274 0.45915 0.0
C250 C 0.87516 0.11832 0.50279 0.0
O251 O 0.7732 0.14409 0.49774 0.0
Mg252 Mg 0.67967 0.98544 0.31983 0.0
O253 O 0.69955 0.03773 0.31913 0.0
O254 O 0.72433 0.04985 0.36592 0.0
Mg255 Mg 0.7165 0.00527 0.39865 0.0
C256 C 0.71617 0.05734 0.33715 0.0
C257 C 0.6426 0.97927 0.25907 0.0
O258 O 0.62765 0.95918 0.27947 0.0
O259 O 0.73128 0.9674 0.31277 0.0
O260 O 0.75125 0.97525 0.36302 0.0
O261 O 0.63275 0.00286 0.34066 0.0
O262 O 0.67408 0.98852 0.37067 0.0
C263 C 0.75416 0.96487 0.33292 0.0
C264 C 0.64496 1.00025 0.36929 0.0
O265 O 0.67062 0.99003 0.26602 0.0
Mg266 Mg 0.78808 0.9317 0.03859 0.0
O267 O 0.78599 0.90001 0.98777 0.0
O268 O 0.82833 0.86547 0.98649 0.0
Mg269 Mg 0.86076 0.8805 0.03084 0.0
C270 C 0.80272 0.87624 0.97349 0.0
C271 C 0.71957 0.96342 0.05916 0.0
O272 O 0.73683 0.97132 0.08485 0.0
O273 O 0.77744 0.8877 0.07524 0.0
O274 O 0.82559 0.86198 0.07245 0.0
O275 O 0.81782 0.9735 0.01458 0.0
O276 O 0.84029 0.93197 0.03859 0.0
C277 C 0.79718 0.86606 0.08597 0.0
C278 C 0.84413 0.95983 0.02414 0.0
O279 O 0.73317 0.94616 0.03544 0.0
Mg280 Mg 0.31964 0.66956 0.97762 0.0
O281 O 0.31313 0.69337 0.02811 0.0
O282 O 0.35402 0.72817 0.03791 0.0
Mg283 Mg 0.39281 0.71616 0.99689 0.0
C284 C 0.3263 0.71598 0.04573 0.0
C285 C 0.26004 0.62723 0.98661 0.0
O286 O 0.28281 0.6051 0.97881 0.0
O287 O 0.31254 0.71986 0.95681 0.0
O288 O 0.3611 0.7446 0.9621 0.0
O289 O 0.3415 0.62518 0.99659 0.0
O290 O 0.36985 0.66874 0.97953 0.0
C291 C 0.33221 0.74389 0.95152 0.0
C292 C 0.36937 0.63916 0.99096 0.0
O293 O 0.26614 0.65796 0.98297 0.0
Mg294 Mg 0.16688 0.47633 0.81946 0.0
O295 O 0.18598 0.52947 0.81972 0.0
O296 O 0.20989 0.54074 0.86734 0.0
Mg297 Mg 0.20421 0.49505 0.89851 0.0
C298 C 0.20184 0.54895 0.83875 0.0
C299 C 0.12968 0.4647 0.75966 0.0
O300 O 0.11725 0.44488 0.78187 0.0
O301 O 0.21885 0.46007 0.81136 0.0
O302 O 0.2396 0.46818 0.86124 0.0
O303 O 0.11985 0.49232 0.84119 0.0
O304 O 0.16214 0.47871 0.8702 0.0
C305 C 0.24234 0.45856 0.83092 0.0
C306 C 0.13285 0.49009 0.86948 0.0
O307 O 0.15627 0.47946 0.7656 0.0
Mg308 Mg 0.28869 0.42944 0.53436 0.0
O309 O 0.28704 0.39735 0.48403 0.0
O310 O 0.32993 0.36349 0.48277 0.0
Mg311 Mg 0.36241 0.37896 0.52673 0.0
C312 C 0.30404 0.37372 0.46991 0.0
C313 C 0.21709 0.45561 0.55505 0.0
O314 O 0.23108 0.45819 0.58355 0.0
O315 O 0.27851 0.38511 0.57086 0.0
O316 O 0.32709 0.36018 0.56772 0.0
O317 O 0.31872 0.47137 0.51048 0.0
O318 O 0.34081 0.42969 0.5345 0.0
C319 C 0.29865 0.36365 0.58127 0.0
C320 C 0.3449 0.45752 0.52016 0.0
O321 O 0.23368 0.44368 0.53015 0.0
Mg322 Mg 0.39066 0.60542 0.25604 0.0
O323 O 0.38102 0.55104 0.26407 0.0
O324 O 0.36077 0.54451 0.3151 0.0
Mg325 Mg 0.35807 0.59601 0.34013 0.0
C326 C 0.36966 0.53271 0.28662 0.0
C327 C 0.42466 0.60478 0.19091 0.0
O328 O 0.43867 0.62826 0.2088 0.0
O329 O 0.33668 0.61183 0.25151 0.0
O330 O 0.3187 0.60812 0.30375 0.0
O331 O 0.44012 0.60096 0.2738 0.0
O332 O 0.39707 0.6134 0.3063 0.0
C333 C 0.31358 0.61207 0.27332 0.0
C334 C 0.42763 0.60616 0.30318 0.0
O335 O 0.39885 0.59157 0.20228 0.0
Co336 Co 0.02383 0.06366 0.00489 0.0
C337 C 0.01812 0.11103 0.05912 0.0
Co338 Co 0.03029 0.04203 0.05282 0.0
C339 C 0.99195 0.08288 0.94634 0.0
C340 C 0.03547 0.11066 0.9544 0.0
N341 N 0.01781 0.08484 0.96578 0.0
N342 N 0.99258 0.10668 0.92372 0.0
C343 C 0.02015 0.12396 0.92846 0.0
H344 H 0.97246 0.06502 0.94928 0.0
H345 H 0.05705 0.12069 0.96544 0.0
C346 C 0.03506 0.99474 0.99873 0.0
N347 N 0.03603 0.02219 0.09207 0.0
C348 C 0.05429 0.03332 0.11698 0.0
C349 C 0.02481 0.99214 0.1011 0.0
N350 N 0.05528 0.01119 0.14099 0.0
C351 C 0.03678 0.98522 0.13119 0.0
C352 C 0.96624 0.03569 0.03213 0.0
O353 O 0.03177 0.02046 0.98147 0.0
O354 O 0.0367 0.99921 0.02982 0.0
O355 O 0.98458 0.03144 0.05613 0.0
O356 O 0.97772 0.05164 0.0078 0.0
O357 O 0.02365 0.0855 0.07589 0.0
H358 H 0.00954 0.976 0.0864 0.0
H359 H 0.06764 0.0566 0.11691 0.0
O360 O 0.01552 0.10648 0.02814 0.0
O361 O 0.07024 0.07488 1.00253 0.0
O362 O 0.07626 0.05166 0.04956 0.0
C363 C 0.08865 0.06764 0.02575 0.0
H364 H 0.02783 0.14576 0.91531 0.0
H365 H 0.03247 0.96279 0.1447 0.0
Co366 Co 0.26347 0.76874 0.29125 0.0
C367 C 0.23688 0.71211 0.26234 0.0
Co368 Co 0.24318 0.77676 0.24315 0.0
C369 C 0.2722 0.78307 0.35885 0.0
C370 C 0.29416 0.73624 0.34391 0.0
N371 N 0.27709 0.76191 0.33273 0.0
N372 N 0.28568 0.77193 0.38595 0.0
C373 C 0.29967 0.74245 0.37677 0.0
H374 H 0.25994 0.80686 0.35764 0.0
H375 H 0.30243 0.71474 0.32902 0.0
C376 C 0.26921 0.83374 0.27337 0.0
N377 N 0.23094 0.78328 0.20049 0.0
C378 C 0.24019 0.7615 0.17588 0.0
C379 C 0.22546 0.81216 0.18554 0.0
N380 N 0.24256 0.77579 0.14658 0.0
C381 C 0.23312 0.8077 0.15231 0.0
C382 C 0.19792 0.78667 0.29229 0.0
O383 O 0.27741 0.8134 0.29468 0.0
O384 O 0.25383 0.82284 0.24867 0.0
O385 O 0.20066 0.78554 0.26096 0.0
O386 O 0.22263 0.78137 0.30903 0.0
O387 O 0.23257 0.73069 0.23835 0.0
H388 H 0.22052 0.83589 0.19829 0.0
H389 H 0.25038 0.73718 0.18003 0.0
O390 O 0.24936 0.72443 0.2881 0.0
O391 O 0.30451 0.75571 0.27355 0.0
O392 O 0.2858 0.76748 0.22582 0.0
C393 C 0.30884 0.75732 0.24268 0.0
H394 H 0.31314 0.72675 0.39253 0.0
H395 H 0.2348 0.82709 0.1345 0.0
Co396 Co 0.51343 0.04477 0.52514 0.0
C397 C 0.53023 0.11168 0.51901 0.0
Co398 Co 0.55782 0.05676 0.55093 0.0
C399 C 0.45315 0.01319 0.51714 0.0
C400 C 0.46473 0.04255 0.4755 0.0
N401 N 0.47596 0.03349 0.50462 0.0
N402 N 0.4281 0.00888 0.49715 0.0
C403 C 0.43499 0.02749 0.47089 0.0
H404 H 0.45463 0.0023 0.541 0.0
H405 H 0.4773 0.05902 0.45882 0.0
C406 C 0.54075 0.9893 0.55632 0.0
N407 N 0.59557 0.06801 0.57095 0.0
C408 C 0.61916 0.08628 0.55674 0.0
C409 C 0.60864 0.05604 0.59806 0.0
N410 N 0.64679 0.08559 0.57317 0.0
C411 C 0.64051 0.06653 0.59924 0.0
C412 C 0.50336 0.0639 0.59083 0.0
O413 O 0.51845 0.99874 0.53781 0.0
O414 O 0.56136 0.01102 0.56575 0.0
O415 O 0.5339 0.06819 0.58971 0.0
O416 O 0.48914 0.05439 0.56497 0.0
O417 O 0.55418 0.10272 0.53566 0.0
H418 H 0.59665 0.03881 0.61438 0.0
H419 H 0.61724 0.09696 0.53281 0.0
O420 O 0.50848 0.09014 0.51257 0.0
O421 O 0.53754 0.03507 0.4857 0.0
O422 O 0.58204 0.0446 0.5123 0.0
C423 C 0.56831 0.03622 0.48593 0.0
H424 H 0.41982 0.02984 0.44993 0.0
H425 H 0.65826 0.0589 0.61646 0.0
Co426 Co 0.3146 0.28459 0.76878 0.0
C427 C 0.28608 0.30497 0.71137 0.0
Co428 Co 0.26213 0.29166 0.77658 0.0
C429 C 0.37555 0.25303 0.77782 0.0
C430 C 0.37934 0.29139 0.7427 0.0
N431 N 0.3578 0.27494 0.76185 0.0
N432 N 0.4076 0.25585 0.77035 0.0
C433 C 0.40997 0.27973 0.74787 0.0
H434 H 0.3652 0.23664 0.79595 0.0
H435 H 0.37346 0.3121 0.72767 0.0
C436 C 0.29111 0.27086 0.83417 0.0
N437 N 0.2191 0.3028 0.78271 0.0
C438 C 0.20487 0.32781 0.76742 0.0
C439 C 0.19487 0.28813 0.80007 0.0
N440 N 0.17263 0.32892 0.77355 0.0
C441 C 0.16607 0.30419 0.79436 0.0
C442 C 0.27547 0.22836 0.75747 0.0
O443 O 0.31637 0.27235 0.81505 0.0
O444 O 0.26392 0.27905 0.82268 0.0
O445 O 0.25137 0.24712 0.76525 0.0
O446 O 0.30403 0.2404 0.75691 0.0
O447 O 0.26046 0.30414 0.72991 0.0
H448 H 0.19771 0.26624 0.81447 0.0
H449 H 0.2177 0.34408 0.75072 0.0
O450 O 0.31268 0.29652 0.72352 0.0
O451 O 0.32555 0.32894 0.78071 0.0
O452 O 0.27293 0.33581 0.78845 0.0
C453 C 0.30152 0.34752 0.78856 0.0
H454 H 0.43235 0.29024 0.73801 0.0
H455 H 0.14199 0.29664 0.80273 0.0
Co456 Co 0.01649 0.98732 0.55611 0.0
C457 C 1.00057 0.01651 0.61651 0.0
Co458 Co 0.04473 0.03326 0.56633 0.0
C459 C 0.00271 0.92263 0.52586 0.0
C460 C 0.96173 0.94359 0.5532 0.0
N461 N 0.99345 0.94891 0.54575 0.0
N462 N 0.9779 0.90125 0.52025 0.0
C463 C 0.95213 0.91443 0.53764 0.0
H464 H 0.02707 0.91974 0.51521 0.0
H465 H 0.94617 0.96063 0.56781 0.0
C466 C 0.05963 0.00599 0.50546 0.0
N467 N 0.06582 0.07307 0.5763 0.0
C468 C 0.0498 0.10138 0.58554 0.0
C469 C 0.09741 0.08207 0.57399 0.0
N470 N 0.06966 0.12789 0.58837 0.0
C471 C 0.09986 0.11595 0.58157 0.0
C472 C 0.07552 0.97653 0.58424 0.0
O473 O 0.03771 0.98523 0.51371 0.0
O474 O 0.06742 0.02937 0.52552 0.0
O475 O 0.07734 0.00825 0.58525 0.0
O476 O 0.05063 0.9621 0.57269 0.0
O477 O 0.02194 0.03716 0.60702 0.0
H478 H 0.11715 0.06541 0.56626 0.0
H479 H 0.02366 0.10269 0.58956 0.0
O480 O 0.9948 0.99076 0.5985 0.0
O481 O 0.9833 0.01213 0.53951 0.0
O482 O 0.01164 0.05774 0.54683 0.0
C483 C 0.98603 0.04337 0.53744 0.0
H484 H 0.92766 0.90456 0.53815 0.0
H485 H 0.12182 0.13082 0.58075 0.0
Co486 Co 0.28105 0.81065 0.77292 0.0
C487 C 0.22376 0.78199 0.79626 0.0
Co488 Co 0.28407 0.75624 0.77215 0.0
C489 C 0.30301 0.8781 0.77705 0.0
C490 C 0.25265 0.87512 0.76564 0.0
N491 N 0.27888 0.85623 0.77121 0.0
N492 N 0.29279 0.90985 0.77573 0.0
C493 C 0.2611 0.90826 0.76875 0.0
H494 H 0.32725 0.87093 0.78352 0.0
H495 H 0.22879 0.86543 0.76041 0.0
C496 C 0.34172 0.78446 0.74933 0.0
N497 N 0.28554 0.71058 0.77312 0.0
C498 C 0.26892 0.69121 0.79421 0.0
C499 C 0.29897 0.68927 0.75001 0.0
N500 N 0.2707 0.65876 0.78471 0.0
C501 C 0.28968 0.65728 0.757 0.0
C502 C 0.26268 0.77917 0.715 0.0
O503 O 0.32467 0.811 0.75283 0.0
O504 O 0.32901 0.75705 0.75778 0.0
O505 O 0.27199 0.75275 0.72788 0.0
O506 O 0.26376 0.80677 0.73116 0.0
O507 O 0.239 0.75551 0.78686 0.0
H508 H 0.31298 0.69671 0.72846 0.0
H509 H 0.25387 0.7009 0.81481 0.0
O510 O 0.23797 0.80986 0.79293 0.0
O511 O 0.29809 0.81477 0.81506 0.0
O512 O 0.29611 0.75998 0.81619 0.0
C513 C 0.30156 0.78813 0.83026 0.0
H514 H 0.24522 0.92953 0.76651 0.0
H515 H 0.29535 0.63486 0.74222 0.0
Co516 Co 0.52832 0.03274 0.03242 0.0
C517 C 0.58728 0.01589 0.05542 0.0
Co518 Co 0.53119 0.05057 0.08387 0.0
C519 C 0.5081 0.0413 0.96759 0.0
C520 C 0.53018 0.99335 0.97162 0.0
N521 N 0.52294 0.02196 0.98881 0.0
N522 N 0.50528 0.02586 0.93792 0.0
C523 C 0.51938 0.99572 0.94013 0.0
H524 H 0.49926 0.06623 0.97392 0.0
H525 H 0.54172 0.9719 0.9816 0.0
C526 C 0.47238 0.06818 0.06005 0.0
N527 N 0.53796 0.0604 0.12781 0.0
C528 C 0.55028 0.03752 0.14734 0.0
C529 C 0.54082 0.08978 0.14477 0.0
N530 N 0.56137 0.05115 0.17535 0.0
C531 C 0.55559 0.08415 0.17407 0.0
C532 C 0.55359 0.09676 0.04196 0.0
O533 O 0.48598 0.05386 0.03468 0.0
O534 O 0.48747 0.06908 0.08693 0.0
O535 O 0.54746 0.09259 0.07228 0.0
O536 O 0.54753 0.0736 0.02095 0.0
O537 O 0.57499 0.03214 0.08036 0.0
H538 H 0.53518 0.11389 0.13532 0.0
H539 H 0.55453 0.01173 0.13955 0.0
O540 O 0.57033 0.01218 0.0301 0.0
O541 O 0.50941 0.99162 0.04393 0.0
O542 O 0.5147 0.00864 0.09515 0.0
C543 C 0.50679 0.98607 0.07437 0.0
H544 H 0.5208 0.97642 0.92079 0.0
H545 H 0.56318 0.10293 0.192 0.0
Co546 Co 0.28568 0.26308 0.28848 0.0
C547 C 0.35023 0.28623 0.29369 0.0
Co548 Co 0.29343 0.31268 0.26924 0.0
C549 C 0.25702 0.19792 0.30328 0.0
C550 C 0.29729 0.21195 0.33261 0.0
N551 N 0.27993 0.22183 0.30719 0.0
N552 N 0.2595 0.17389 0.32556 0.0
C553 C 0.28505 0.18261 0.34369 0.0
H554 H 0.23798 0.19897 0.28569 0.0
H555 H 0.31672 0.22598 0.34368 0.0
C556 C 0.22877 0.29056 0.26457 0.0
N557 N 0.30009 0.35367 0.25236 0.0
C558 C 0.31677 0.37821 0.26741 0.0
C559 C 0.2918 0.36584 0.22337 0.0
N560 N 0.31936 0.40535 0.24918 0.0
C561 C 0.30377 0.39785 0.2213 0.0
C562 C 0.29963 0.26087 0.21992 0.0
O563 O 0.23953 0.2659 0.27994 0.0
O564 O 0.24821 0.31439 0.25826 0.0
O565 O 0.3031 0.29205 0.22613 0.0
O566 O 0.29256 0.24225 0.24406 0.0
O567 O 0.33878 0.31142 0.2801 0.0
H568 H 0.27818 0.35227 0.20497 0.0
H569 H 0.32743 0.37592 0.29115 0.0
O570 O 0.33183 0.261 0.29707 0.0
O571 O 0.27913 0.28392 0.33238 0.0
O572 O 0.2839 0.33363 0.31287 0.0
C573 C 0.28043 0.31539 0.33773 0.0
H574 H 0.29391 0.16907 0.36409 0.0
H575 H 0.30082 0.41441 0.2012 0.0
Co576 Co 0.51483 0.50795 0.02583 0.0
C577 C 0.49896 0.5447 0.08141 0.0
Co578 Co 0.54363 0.55435 0.029 0.0
C579 C 0.50642 0.43997 0.00593 0.0
C580 C 0.46118 0.46144 0.02361 0.0
N581 N 0.49316 0.46808 0.01982 0.0
N582 N 0.48402 0.41614 1.00009 0.0
C583 C 0.45547 0.42948 0.01151 0.0
H584 H 0.53205 0.43753 0.9994 0.0
H585 H 0.44304 0.47921 0.03308 0.0
C586 C 0.55906 0.51961 0.97311 0.0
N587 N 0.56452 0.59489 0.0349 0.0
C588 C 0.54805 0.6237 0.04001 0.0
C589 C 0.59589 0.60306 0.03961 0.0
N590 N 0.5674 0.64952 0.04768 0.0
C591 C 0.59768 0.63682 0.04797 0.0
C592 C 0.57303 0.50116 0.05607 0.0
O593 O 0.53776 0.49992 0.98475 0.0
O594 O 0.56602 0.54634 0.9889 0.0
O595 O 0.5763 0.53209 0.05099 0.0
O596 O 0.5478 0.48577 0.04701 0.0
O597 O 0.52105 0.56281 0.06899 0.0
H598 H 0.61583 0.58542 0.03877 0.0
H599 H 0.52177 0.62539 0.04084 0.0
O600 O 0.49194 0.51706 0.06697 0.0
O601 O 0.4818 0.53001 0.00487 0.0
O602 O 0.51048 0.57584 0.00715 0.0
C603 C 0.48451 0.56089 0.99988 0.0
H604 H 0.4319 0.4177 0.00983 0.0
H605 H 0.61915 0.65058 0.05491 0.0
Co606 Co 0.78963 0.32286 0.29495 0.0
C607 C 0.72967 0.2926 0.30902 0.0
Co608 Co 0.78901 0.26956 0.28094 0.0
C609 C 0.80738 0.39319 0.29293 0.0
C610 C 0.77427 0.38182 0.33283 0.0
N611 N 0.79012 0.36795 0.30611 0.0
N612 N 0.80272 0.42223 0.31046 0.0
C613 C 0.78186 0.41499 0.33552 0.0
H614 H 0.82349 0.39015 0.27137 0.0
H615 H 0.75921 0.36841 0.35022 0.0
C616 C 0.84874 0.29805 0.26612 0.0
N617 N 0.78757 0.22455 0.27149 0.0
C618 C 0.77424 0.20232 0.29193 0.0
C619 C 0.7965 0.20667 0.24387 0.0
N620 N 0.7742 0.1713 0.27833 0.0
C621 C 0.78807 0.17372 0.24796 0.0
C622 C 0.7711 0.30859 0.23169 0.0
O623 O 0.83395 0.32478 0.27619 0.0
O624 O 0.83377 0.27041 0.26758 0.0
O625 O 0.77789 0.27861 0.23766 0.0
O626 O 0.7736 0.33146 0.25386 0.0
O627 O 0.74412 0.26815 0.29419 0.0
H628 H 0.80766 0.21704 0.22202 0.0
H629 H 0.76345 0.20905 0.31596 0.0
O630 O 0.74528 0.31975 0.31301 0.0
O631 O 0.80574 0.31464 0.33626 0.0
O632 O 0.80028 0.2612 0.3243 0.0
C633 C 0.8073 0.28469 0.34451 0.0
H634 H 0.77384 0.43204 0.35545 0.0
H635 H 0.79159 0.15328 0.23002 0.0
Co636 Co 0.02997 0.53293 0.5204 0.0
C637 C 0.08567 0.50947 0.54621 0.0
Co638 Co 0.02557 0.53615 0.57453 0.0
C639 C 0.0166 0.55806 0.45787 0.0
C640 C 0.04267 0.51181 0.45276 0.0
N641 N 0.03097 0.53465 0.47532 0.0
N642 N 0.01815 0.55048 0.42533 0.0
C643 C 0.03482 0.5215 0.42193 0.0
H644 H 0.00439 0.57982 0.46896 0.0
H645 H 0.05474 0.48889 0.45849 0.0
C646 C 0.97007 0.56042 0.54841 0.0
N647 N 0.02454 0.53363 0.61999 0.0
C648 C 0.05057 0.53043 0.63888 0.0
C649 C 0.99887 0.52481 0.63935 0.0
N650 N 0.04246 0.51845 0.66858 0.0
C651 C 0.00982 0.5154 0.66921 0.0
C652 C 0.05081 0.59281 0.54992 0.0
O653 O 0.98659 0.55261 0.52213 0.0
O654 O 0.9821 0.55433 0.57591 0.0
O655 O 0.04214 0.58033 0.57714 0.0
O656 O 0.048 0.57577 0.52324 0.0
O657 O 0.0694 0.51785 0.57245 0.0
H658 H 0.97423 0.52225 0.63125 0.0
H659 H 0.0754 0.53361 0.62994 0.0
O660 O 0.07285 0.5139 0.51879 0.0
O661 O 0.01218 0.48957 0.51761 0.0
O662 O 0.00861 0.49241 0.57162 0.0
C663 C 0.00451 0.47638 0.54461 0.0
H664 H 0.03939 0.50734 0.39904 0.0
H665 H 0.99512 0.50497 0.68891 0.0
Co666 Co 0.80834 0.78461 0.27344 0.0
C667 C 0.7818 0.80831 0.21673 0.0
Co668 Co 0.75692 0.79685 0.28249 0.0
C669 C 0.86109 0.74178 0.28243 0.0
C670 C 0.87522 0.78042 0.24988 0.0
N671 N 0.84952 0.76804 0.26682 0.0
N672 N 0.89333 0.73803 0.27735 0.0
C673 C 0.90231 0.76201 0.25641 0.0
H674 H 0.84648 0.72703 0.29912 0.0
H675 H 0.87471 0.80273 0.23574 0.0
C676 C 0.78447 0.77303 0.33933 0.0
N677 N 0.71538 0.8128 0.28981 0.0
C678 C 0.69077 0.81002 0.26906 0.0
C679 C 0.70343 0.83134 0.31586 0.0
N680 N 0.66382 0.82614 0.28097 0.0
C681 C 0.67166 0.83963 0.31048 0.0
C682 C 0.76306 0.73291 0.26286 0.0
O683 O 0.80924 0.77277 0.31961 0.0
O684 O 0.75767 0.78319 0.32852 0.0
O685 O 0.74081 0.75379 0.27099 0.0
O686 O 0.79245 0.74234 0.26213 0.0
O687 O 0.75646 0.81057 0.23591 0.0
H688 H 0.71709 0.8387 0.33716 0.0
H689 H 0.69296 0.79707 0.24525 0.0
O690 O 0.80755 0.79648 0.22822 0.0
O691 O 0.82475 0.82718 0.2847 0.0
O692 O 0.77313 0.83933 0.29455 0.0
C693 C 0.80282 0.84799 0.29377 0.0
H694 H 0.92711 0.76797 0.24898 0.0
H695 H 0.65559 0.8542 0.32707 0.0
Co696 Co 0.81813 0.27671 0.82288 0.0
C697 C 0.80719 0.21276 0.80027 0.0
Co698 Co 0.80073 0.2741 0.7724 0.0
C699 C 0.81786 0.30298 0.88838 0.0
C700 C 0.85272 0.26346 0.88161 0.0
N701 N 0.83019 0.28053 0.86584 0.0
N702 N 0.83181 0.30092 0.91761 0.0
C703 C 0.85389 0.2761 0.91355 0.0
H704 H 0.79964 0.32128 0.88303 0.0
H705 H 0.86757 0.2435 0.87048 0.0
C706 C 0.81091 0.33834 0.79481 0.0
N707 N 0.7888 0.27044 0.72924 0.0
C708 C 0.80488 0.25216 0.70544 0.0
C709 C 0.76482 0.28581 0.71384 0.0
N710 N 0.79244 0.25583 0.67575 0.0
C711 C 0.76693 0.27668 0.68075 0.0
C712 C 0.75056 0.27862 0.81757 0.0
O713 O 0.81959 0.32377 0.82025 0.0
O714 O 0.80183 0.32087 0.77017 0.0
O715 O 0.75718 0.27635 0.78687 0.0
O716 O 0.77358 0.27929 0.83753 0.0
O717 O 0.79954 0.22745 0.77459 0.0
H718 H 0.74753 0.30311 0.72572 0.0
H719 H 0.82563 0.23653 0.70972 0.0
O720 O 0.81631 0.22976 0.82523 0.0
O721 O 0.86261 0.27396 0.8081 0.0
O722 O 0.84414 0.27171 0.75829 0.0
C723 C 0.86785 0.27125 0.77716 0.0
H724 H 0.86979 0.26779 0.93221 0.0
H725 H 0.75174 0.28556 0.66174 0.0
Co726 Co 0.78332 0.76757 0.79045 0.0
C727 C 0.84889 0.78534 0.79674 0.0
Co728 Co 0.7948 0.8166 0.77106 0.0
C729 C 0.75321 0.70162 0.80181 0.0
C730 C 0.78734 0.71837 0.8373 0.0
N731 N 0.7739 0.72689 0.809 0.0
N732 N 0.75326 0.67813 0.82491 0.0
C733 C 0.7749 0.68865 0.84698 0.0
H734 H 0.73783 0.70095 0.78078 0.0
H735 H 0.80471 0.73327 0.8507 0.0
C736 C 0.72924 0.80038 0.76455 0.0
N737 N 0.80713 0.85752 0.75594 0.0
C738 C 0.82735 0.87672 0.77363 0.0
C739 C 0.8038 0.87354 0.72772 0.0
N740 N 0.83718 0.90402 0.7581 0.0
C741 C 0.8223 0.90243 0.72903 0.0
C742 C 0.79863 0.7645 0.72182 0.0
O743 O 0.73787 0.77393 0.77869 0.0
O744 O 0.75027 0.82341 0.76037 0.0
O745 O 0.80259 0.79578 0.72749 0.0
O746 O 0.79131 0.74637 0.74632 0.0
O747 O 0.83928 0.81001 0.78135 0.0
H748 H 0.78962 0.86449 0.70738 0.0
H749 H 0.83582 0.86985 0.79726 0.0
O750 O 0.82872 0.76197 0.80195 0.0
O751 O 0.77559 0.78885 0.83427 0.0
O752 O 0.78691 0.83756 0.81524 0.0
C753 C 0.78019 0.81988 0.83991 0.0
H754 H 0.78134 0.67569 0.8687 0.0
H755 H 0.82443 0.92073 0.71019 0.0
Co756 Co 0.52728 0.55671 0.5026 0.0
C757 C 0.52052 0.60524 0.55517 0.0
Co758 Co 0.5319 0.536 0.55106 0.0
C759 C 0.50253 0.5699 0.43893 0.0
C760 C 0.54259 0.6014 0.45133 0.0
N761 N 0.52413 0.57602 0.46247 0.0
N762 N 0.50697 0.59034 0.41361 0.0
C763 C 0.53224 0.61007 0.42115 0.0
H764 H 0.48365 0.55116 0.44043 0.0
H765 H 0.56174 0.61365 0.46469 0.0
C766 C 0.53746 0.48746 0.49879 0.0
N767 N 0.53615 0.5175 0.59111 0.0
C768 C 0.55613 0.52864 0.61452 0.0
C769 C 0.52521 0.48772 0.6012 0.0
N770 N 0.55889 0.50665 0.63837 0.0
C771 C 0.53942 0.48084 0.6303 0.0
C772 C 0.46849 0.5305 0.52823 0.0
O773 O 0.53531 0.51282 0.48089 0.0
O774 O 0.53829 0.49253 0.52983 0.0
O775 O 0.48605 0.52632 0.55289 0.0
O776 O 0.48093 0.54569 0.50379 0.0
O777 O 0.52517 0.57999 0.57256 0.0
H778 H 0.50953 0.47124 0.58733 0.0
H779 H 0.57033 0.5513 0.61282 0.0
O780 O 0.51882 0.60027 0.52414 0.0
O781 O 0.57357 0.56722 0.50169 0.0
O782 O 0.57816 0.54492 0.54921 0.0
C783 C 0.59122 0.56053 0.52556 0.0
H784 H 0.54156 0.63024 0.40654 0.0
H785 H 0.53671 0.45816 0.64377 0.0
Co786 Co 0.0114 0.55267 0.0272 0.0
C787 C 0.03205 0.61812 0.01759 0.0
Co788 Co 0.05734 0.56333 0.05079 0.0
C789 C 0.94612 0.53203 0.02497 0.0
C790 C 0.96134 0.55385 0.97978 0.0
N791 N 0.97217 0.54446 0.00896 0.0
N792 N 0.91907 0.53418 0.00761 0.0
C793 C 0.92848 0.54744 0.97885 0.0
H794 H 0.94693 0.52259 0.04951 0.0
H795 H 0.97599 0.56614 0.96121 0.0
C796 C 0.03599 0.49723 0.0598 0.0
N797 N 0.09737 0.57248 0.0675 0.0
C798 C 0.11977 0.59068 0.05131 0.0
C799 C 0.11328 0.55922 0.09234 0.0
N800 N 0.14907 0.58913 0.06444 0.0
C801 C 0.14543 0.56916 0.09024 0.0
C802 C 0.00531 0.57804 0.09189 0.0
O803 O 0.01333 0.50724 0.04197 0.0
O804 O 0.05812 0.51809 0.06764 0.0
O805 O 0.03617 0.57937 0.09011 0.0
O806 O 0.99007 0.56663 0.06739 0.0
O807 O 0.05612 0.60855 0.03357 0.0
H808 H 0.10285 0.54167 0.10932 0.0
H809 H 0.11559 0.6022 0.02817 0.0
O810 O 0.00923 0.59748 0.01257 0.0
O811 O 0.03245 0.53899 0.98746 0.0
O812 O 0.07856 0.5472 0.01156 0.0
C813 C 0.0632 0.53802 0.9864 0.0
H814 H 0.91257 0.55361 0.95936 0.0
H815 H 0.16489 0.56095 0.10521 0.0
C816 C 0.03066 0.18723 0.11852 0.0
C817 C 0.01597 0.21344 0.10217 0.0
H818 H 0.04212 0.13465 0.1186 0.0
C819 C 0.002 0.20526 0.07172 0.0
H820 H 0.04131 0.19218 0.14216 0.0
C821 C 0.00273 0.17238 0.05806 0.0
C822 C 0.01671 0.146 0.07464 0.0
H823 H 0.99029 0.22444 0.05828 0.0
H824 H 0.99189 0.16757 0.03449 0.0
C825 C 0.03073 0.15402 0.10515 0.0
C826 C 0.11463 0.75692 0.31305 0.0
C827 C 0.1145 0.75996 0.34762 0.0
H828 H 0.14102 0.7648 0.26778 0.0
C829 C 0.13832 0.77932 0.3629 0.0
H830 H 0.09587 0.74292 0.30062 0.0
C831 C 0.16412 0.79206 0.34398 0.0
C832 C 0.16608 0.78576 0.30965 0.0
H833 H 0.13833 0.78253 0.38947 0.0
H834 H 0.18389 0.80436 0.35647 0.0
C835 C 0.14012 0.77001 0.29413 0.0
C836 C 0.55928 0.91091 0.60496 0.0
C837 C 0.53684 0.88756 0.5923 0.0
H838 H 0.57826 0.96111 0.60384 0.0
C839 C 0.51808 0.8975 0.56597 0.0
H840 H 0.57388 0.9046 0.62545 0.0
C841 C 0.52024 0.92986 0.55394 0.0
C842 C 0.54141 0.95379 0.56752 0.0
H843 H 0.50051 0.88056 0.55531 0.0
H844 H 0.50448 0.93636 0.53441 0.0
C845 C 0.56157 0.94353 0.5927 0.0
C846 C 0.45444 0.22846 0.84152 0.0
C847 C 0.48631 0.23329 0.82941 0.0
H848 H 0.40411 0.23211 0.83237 0.0
C849 C 0.49193 0.2404 0.79617 0.0
H850 H 0.44944 0.22266 0.86694 0.0
C851 C 0.46594 0.24507 0.77594 0.0
C852 C 0.43387 0.24344 0.78877 0.0
H853 H 0.51644 0.24336 0.78602 0.0
H854 H 0.47103 0.25148 0.75065 0.0
C855 C 0.42838 0.23368 0.82144 0.0
C856 C 0.00408 0.83618 0.45546 0.0
C857 C 0.98016 0.81154 0.45987 0.0
H858 H 0.02196 0.88412 0.47069 0.0
C859 C 0.95466 0.81773 0.48329 0.0
H860 H 0.02402 0.8323 0.43758 0.0
C861 C 0.95383 0.84714 0.50276 0.0
C862 C 0.97828 0.8714 0.49917 0.0
H863 H 0.93589 0.79928 0.48756 0.0
H864 H 0.93445 0.85026 0.52131 0.0
C865 C 0.0031 0.8658 0.4748 0.0
C866 C 0.41714 0.81115 0.6998 0.0
C867 C 0.44047 0.78733 0.70779 0.0
H868 H 0.36824 0.82941 0.70711 0.0
C869 C 0.43089 0.76225 0.72941 0.0
H870 H 0.42366 0.831 0.68345 0.0
C871 C 0.39875 0.76097 0.74248 0.0
C872 C 0.37569 0.78532 0.73506 0.0
H873 H 0.4482 0.74359 0.73617 0.0
H874 H 0.39211 0.74127 0.75895 0.0
C875 C 0.38536 0.81043 0.71356 0.0
C876 C 0.58019 0.15999 0.98279 0.0
C877 C 0.55478 0.18305 0.98846 0.0
H878 H 0.59974 0.11316 0.99628 0.0
C879 C 0.53536 0.18203 0.01749 0.0
H880 H 0.59534 0.16032 0.96043 0.0
C881 C 0.53867 0.15572 0.03855 0.0
C882 C 0.56068 0.12987 0.03 0.0
H883 H 0.51566 0.19971 0.02222 0.0
H884 H 0.52121 0.1534 0.05896 0.0
C885 C 0.58277 0.13309 0.00324 0.0
C886 C 0.14044 0.26601 0.24906 0.0
C887 C 0.13146 0.28821 0.22481 0.0
H888 H 0.17756 0.24914 0.28038 0.0
C889 C 0.15484 0.31144 0.21407 0.0
H890 H 0.12323 0.24774 0.25808 0.0
C891 C 0.18599 0.31266 0.22747 0.0
C892 C 0.19493 0.29038 0.2517 0.0
H893 H 0.14892 0.32909 0.19569 0.0
H894 H 0.20325 0.33091 0.21851 0.0
C895 C 0.17168 0.26688 0.26205 0.0
C896 C 0.10633 0.98749 0.21029 0.0
C897 C 0.10832 0.01791 0.22846 0.0
H898 H 0.08749 0.96159 0.16822 0.0
C899 C 0.09379 0.04654 0.21654 0.0
H900 H 0.11725 0.96494 0.2188 0.0
C901 C 0.07693 0.04453 0.18734 0.0
C902 C 0.07391 0.01378 0.17003 0.0
H903 H 0.09497 0.0703 0.23004 0.0
H904 H 0.06539 0.06672 0.17881 0.0
C905 C 0.08906 0.98541 0.18152 0.0
C906 C 0.26623 0.83285 0.45577 0.0
C907 C 0.29433 0.83067 0.47408 0.0
H908 H 0.2412 0.81513 0.41343 0.0
C909 C 0.31858 0.80733 0.46397 0.0
H910 H 0.247 0.85036 0.46307 0.0
C911 C 0.31519 0.78719 0.43569 0.0
C912 C 0.28761 0.79009 0.41685 0.0
H913 H 0.34045 0.80476 0.47767 0.0
H914 H 0.33469 0.77021 0.42797 0.0
C915 C 0.26294 0.81276 0.42735 0.0
C916 C 0.43562 0.06934 0.65611 0.0
C917 C 0.45203 0.05903 0.68364 0.0
H918 H 0.43917 0.07862 0.60441 0.0
C919 C 0.4853 0.05152 0.68054 0.0
H920 H 0.40996 0.07547 0.65812 0.0
C921 C 0.50208 0.05459 0.65053 0.0
C922 C 0.48571 0.06436 0.62281 0.0
H923 H 0.49861 0.04399 0.70153 0.0
H924 H 0.52775 0.04844 0.64883 0.0
C925 C 0.45228 0.07139 0.62564 0.0
C926 C 0.26974 0.23297 0.91867 0.0
C927 C 0.30016 0.23247 0.93367 0.0
H928 H 0.24274 0.24578 0.87631 0.0
C929 C 0.32694 0.24584 0.91569 0.0
H930 H 0.24851 0.22282 0.93123 0.0
C931 C 0.32378 0.25831 0.88401 0.0
C932 C 0.29356 0.25873 0.86892 0.0
H933 H 0.35095 0.24588 0.9257 0.0
H934 H 0.34531 0.26756 0.87121 0.0
C935 C 0.26645 0.24621 0.88701 0.0
C936 C 0.12303 0.00954 0.43644 0.0
C937 C 0.105 0.99897 0.40939 0.0
H938 H 0.1223 0.02074 0.48842 0.0
C939 C 0.07201 0.99097 0.41402 0.0
H940 H 0.14849 0.01594 0.43328 0.0
C941 C 0.05737 0.9927 0.44549 0.0
C942 C 0.07529 0.0035 0.47254 0.0
H943 H 0.05779 0.98251 0.39342 0.0
H944 H 0.03195 0.98602 0.44864 0.0
C945 C 0.1081 0.01233 0.4678 0.0
C946 C 0.24201 0.81869 0.63932 0.0
C947 C 0.27205 0.8142 0.6221 0.0
H948 H 0.21473 0.8093 0.68373 0.0
C949 C 0.29289 0.78848 0.63073 0.0
H950 H 0.22505 0.83779 0.63277 0.0
C951 C 0.28622 0.7713 0.65936 0.0
C952 C 0.25917 0.78047 0.67967 0.0
H953 H 0.31578 0.78388 0.61729 0.0
H954 H 0.30461 0.75469 0.66793 0.0
C955 C 0.23575 0.80205 0.66824 0.0
C956 C 0.44733 0.07366 0.88854 0.0
C957 C 0.45796 0.0643 0.85636 0.0
H958 H 0.45403 0.06837 0.93995 0.0
C959 C 0.48419 0.04195 0.85145 0.0
H960 H 0.4272 0.09082 0.89303 0.0
C961 C 0.49952 0.02915 0.8782 0.0
C962 C 0.48912 0.03864 0.91037 0.0
H963 H 0.49293 0.0342 0.82689 0.0
H964 H 0.51984 0.01224 0.87372 0.0
C965 C 0.46285 0.06098 0.91535 0.0
C966 C 0.31903 0.25492 0.12667 0.0
C967 C 0.30431 0.22469 0.11638 0.0
H968 H 0.32902 0.28979 0.16642 0.0
C969 C 0.28801 0.20617 0.14085 0.0
H970 H 0.33205 0.26989 0.10889 0.0
C971 C 0.28709 0.21724 0.17441 0.0
C972 C 0.30192 0.2475 0.18457 0.0
H973 H 0.2768 0.18255 0.13423 0.0
H974 H 0.27447 0.20219 0.19239 0.0
C975 C 0.31751 0.26627 0.15993 0.0
C976 C 0.16747 0.11741 0.00971 0.0
C977 C 0.18901 0.10315 0.03145 0.0
H978 H 0.11944 0.11708 0.99017 0.0
C979 C 0.17713 0.07689 0.05065 0.0
H980 H 0.17566 0.13745 0.99432 0.0
C981 C 0.14495 0.06542 0.04848 0.0
C982 C 0.12346 0.07928 0.02655 0.0
H983 H 0.19276 0.06513 0.06767 0.0
H984 H 0.13694 0.04545 0.06406 0.0
C985 C 0.13526 0.10546 0.0071 0.0
C986 C 0.64743 0.48164 0.10184 0.0
C987 C 0.65797 0.45209 0.08501 0.0
H988 H 0.61208 0.52093 0.10511 0.0
C989 C 0.63811 0.43661 0.06171 0.0
H990 H 0.66242 0.49418 0.11982 0.0
C991 C 0.60889 0.45153 0.05403 0.0
C992 C 0.5999 0.48252 0.06887 0.0
H993 H 0.64586 0.41385 0.04847 0.0
H994 H 0.59451 0.44006 0.03489 0.0
C995 C 0.61882 0.49707 0.09338 0.0
C996 C 0.82062 0.51309 0.32048 0.0
C997 C 0.85245 0.51497 0.30713 0.0
H998 H 0.7794 0.48262 0.33049 0.0
C999 C 0.86672 0.48652 0.29142 0.0
H1000 H 0.80872 0.53494 0.33191 0.0
C1001 C 0.84997 0.45599 0.2912 0.0
C1002 C 0.81864 0.45387 0.30624 0.0
H1003 H 0.89118 0.48757 0.28071 0.0
H1004 H 0.86204 0.43393 0.28058 0.0
C1005 C 0.80383 0.48307 0.31972 0.0
C1006 C 0.88249 0.58986 0.56756 0.0
C1007 C 0.87737 0.61174 0.54191 0.0
H1008 H 0.91588 0.55712 0.59028 0.0
C1009 C 0.90324 0.61688 0.519 0.0
H1010 H 0.86313 0.5852 0.58557 0.0
C1011 C 0.93296 0.59996 0.52105 0.0
C1012 C 0.93814 0.57809 0.54664 0.0
H1013 H 0.90021 0.6333 0.49878 0.0
H1014 H 0.95208 0.60426 0.50266 0.0
C1015 C 0.9127 0.5737 0.57023 0.0
C1016 C 0.21803 0.10424 0.36861 0.0
C1017 C 0.20525 0.08556 0.34226 0.0
H1018 H 0.24433 0.14745 0.38402 0.0
C1019 C 0.20737 0.0984 0.3105 0.0
H1020 H 0.2162 0.09542 0.39348 0.0
C1021 C 0.224 0.12834 0.30499 0.0
C1022 C 0.23857 0.14577 0.33118 0.0
H1023 H 0.19761 0.08455 0.28973 0.0
H1024 H 0.22683 0.13696 0.28014 0.0
C1025 C 0.23432 0.13401 0.36316 0.0
C1026 C 0.34112 0.98236 0.50476 0.0
C1027 C 0.34354 0.95569 0.52603 0.0
H1028 H 0.36663 0.0205 0.47869 0.0
C1029 C 0.37434 0.94515 0.53502 0.0
H1030 H 0.31764 0.99094 0.49732 0.0
C1031 C 0.4021 0.96159 0.52398 0.0
C1032 C 0.39971 0.98931 0.50415 0.0
H1033 H 0.37716 0.9248 0.55137 0.0
H1034 H 0.42549 0.95306 0.53168 0.0
C1035 C 0.36908 0.9991 0.49387 0.0
C1036 C 0.77931 0.66375 0.30843 0.0
C1037 C 0.80235 0.64977 0.28552 0.0
H1038 H 0.7427 0.7011 0.31695 0.0
C1039 C 0.79793 0.65387 0.25176 0.0
H1040 H 0.78115 0.66005 0.33454 0.0
C1041 C 0.77537 0.67705 0.24177 0.0
C1042 C 0.75827 0.69705 0.26557 0.0
H1043 H 0.81428 0.64222 0.23325 0.0
H1044 H 0.77635 0.68397 0.21624 0.0
C1045 C 0.75649 0.68663 0.29818 0.0
C1046 C 0.78852 0.42138 0.83324 0.0
C1047 C 0.76809 0.43304 0.8092 0.0
H1048 H 0.81921 0.38179 0.84716 0.0
C1049 C 0.77052 0.41854 0.77718 0.0
H1050 H 0.78798 0.43259 0.85791 0.0
C1051 C 0.78849 0.38936 0.77101 0.0
C1052 C 0.80425 0.37447 0.79677 0.0
H1053 H 0.75582 0.42751 0.7578 0.0
H1054 H 0.78705 0.37668 0.7471 0.0
C1055 C 0.80653 0.39222 0.82704 0.0
C1056 C 0.01335 0.90188 0.99103 0.0
C1057 C 0.01989 0.8934 0.95752 0.0
H1058 H 0.01379 0.93934 0.03004 0.0
C1059 C 0.03323 0.91848 0.93758 0.0
H1060 H 0.00303 0.88349 0.00723 0.0
C1061 C 0.03866 0.95127 0.9506 0.0
C1062 C 0.03198 0.95962 0.98421 0.0
H1063 H 0.03831 0.91312 0.9116 0.0
H1064 H 0.04788 0.97011 0.93431 0.0
C1065 C 0.01971 0.9341 0.00418 0.0
C1066 C 0.95485 0.29401 0.75899 0.0
C1067 C 0.95681 0.28603 0.72503 0.0
H1068 H 0.92421 0.29537 0.80291 0.0
C1069 C 0.93243 0.26682 0.71063 0.0
H1070 H 0.97367 0.30873 0.77052 0.0
C1071 C 0.90465 0.25889 0.72905 0.0
C1072 C 0.90069 0.27054 0.76198 0.0
H1073 H 0.93395 0.2596 0.6847 0.0
H1074 H 0.88523 0.24578 0.71678 0.0
C1075 C 0.92669 0.28637 0.77749 0.0
C1076 C 0.55092 0.196 0.48073 0.0
C1077 C 0.51974 0.2097 0.47695 0.0
H1078 H 0.57895 0.15487 0.49781 0.0
C1079 C 0.49274 0.19143 0.489 0.0
H1080 H 0.57232 0.20901 0.47171 0.0
C1081 C 0.49648 0.16028 0.50301 0.0
C1082 C 0.5274 0.14635 0.50649 0.0
H1083 H 0.46822 0.20058 0.48652 0.0
H1084 H 0.47489 0.14684 0.5109 0.0
C1085 C 0.55472 0.16494 0.49577 0.0
C1086 C 0.59469 0.80482 0.22694 0.0
C1087 C 0.57318 0.83148 0.23436 0.0
H1088 H 0.63985 0.78183 0.2365 0.0
C1089 C 0.58212 0.85678 0.25708 0.0
H1090 H 0.58851 0.7848 0.20966 0.0
C1091 C 0.61192 0.85517 0.27237 0.0
C1092 C 0.63323 0.82822 0.26519 0.0
H1093 H 0.56608 0.87771 0.26319 0.0
H1094 H 0.61835 0.87512 0.28959 0.0
C1095 C 0.62428 0.80317 0.24224 0.0
C1096 C 0.06416 0.21599 0.62306 0.0
C1097 C 0.03352 0.22562 0.61227 0.0
H1098 H 0.09989 0.1768 0.62377 0.0
C1099 C 0.01693 0.20375 0.59094 0.0
H1100 H 0.07761 0.23231 0.63944 0.0
C1101 C 0.02961 0.17237 0.58215 0.0
C1102 C 0.05923 0.1619 0.5944 0.0
H1103 H 0.99358 0.21044 0.58163 0.0
H1104 H 0.01583 0.15593 0.5662 0.0
C1105 C 0.07696 0.18433 0.61411 0.0
C1106 C 0.6475 0.30861 0.35421 0.0
C1107 C 0.6304 0.27912 0.34618 0.0
H1108 H 0.69206 0.33634 0.34859 0.0
C1109 C 0.64634 0.25451 0.32597 0.0
H1110 H 0.63598 0.32817 0.36962 0.0
C1111 C 0.67831 0.25912 0.31409 0.0
C1112 C 0.69542 0.28863 0.32176 0.0
H1113 H 0.63412 0.23145 0.31925 0.0
H1114 H 0.68959 0.2394 0.29869 0.0
C1115 C 0.6796 0.31337 0.34202 0.0
C1116 C 0.4996 0.91255 0.1287 0.0
C1117 C 0.48393 0.88897 0.10849 0.0
H1118 H 0.51832 0.96183 0.13394 0.0
C1119 C 0.47522 0.89759 0.0768 0.0
H1120 H 0.50629 0.90675 0.15336 0.0
C1121 C 0.48248 0.92932 0.06543 0.0
C1122 C 0.49784 0.95294 0.08592 0.0
H1123 H 0.46306 0.87979 0.06079 0.0
H1124 H 0.47595 0.93541 0.0408 0.0
C1125 C 0.5062 0.94427 0.11765 0.0
C1126 C 0.91489 0.77599 0.85939 0.0
C1127 C 0.93912 0.7982 0.84818 0.0
H1128 H 0.86818 0.75358 0.85154 0.0
C1129 C 0.93395 0.81471 0.81889 0.0
H1130 H 0.91811 0.76246 0.88159 0.0
C1131 C 0.90521 0.80965 0.8017 0.0
C1132 C 0.88107 0.78727 0.81277 0.0
H1133 H 0.9521 0.83171 0.80929 0.0
H1134 H 0.90177 0.82351 0.77973 0.0
C1135 C 0.88643 0.77041 0.84182 0.0
C1136 C 0.91193 0.10965 0.88393 0.0
C1137 C 0.92105 0.12143 0.85286 0.0
H1138 H 0.92772 0.09553 0.93099 0.0
C1139 C 0.95338 0.13164 0.84692 0.0
H1140 H 0.88717 0.10232 0.88963 0.0
C1141 C 0.9766 0.12769 0.87055 0.0
C1142 C 0.96802 0.11349 0.90064 0.0
H1143 H 0.96124 0.14111 0.82333 0.0
H1144 H 1.00158 0.13428 0.8646 0.0
C1145 C 0.93526 0.1055 0.90755 0.0
C1146 C 0.7979 0.21491 0.5917 0.0
C1147 C 0.83181 0.21247 0.58609 0.0
H1148 H 0.75879 0.23128 0.62477 0.0
C1149 C 0.85248 0.22519 0.61018 0.0
H1150 H 0.78134 0.20559 0.57342 0.0
C1151 C 0.83946 0.23951 0.63957 0.0
C1152 C 0.80559 0.2419 0.64512 0.0
H1153 H 0.87866 0.22376 0.60648 0.0
H1154 H 0.85585 0.24905 0.65789 0.0
C1155 C 0.78493 0.22981 0.62085 0.0
C1156 C 0.64007 0.01207 0.42995 0.0
C1157 C 0.62584 0.01054 0.39913 0.0
H1158 H 0.63292 0.0218 0.48172 0.0
C1159 C 0.59262 0.01792 0.397 0.0
H1160 H 0.66551 0.00632 0.43238 0.0
C1161 C 0.57383 0.02623 0.42528 0.0
C1162 C 0.58806 0.02773 0.45607 0.0
H1163 H 0.58095 0.01678 0.37355 0.0
H1164 H 0.54821 0.03156 0.423 0.0
C1165 C 0.62137 0.02088 0.45819 0.0
C1166 C 0.81219 0.82487 0.12866 0.0
C1167 C 0.78961 0.84802 0.11752 0.0
H1168 H 0.82749 0.79464 0.16761 0.0
C1169 C 0.76252 0.85606 0.13878 0.0
H1170 H 0.8334 0.81772 0.11345 0.0
C1171 C 0.75899 0.84234 0.17042 0.0
C1172 C 0.78259 0.82041 0.18189 0.0
H1173 H 0.74464 0.87389 0.13151 0.0
H1174 H 0.73843 0.84993 0.18635 0.0
C1175 C 0.80884 0.81154 0.1601 0.0
C1176 C 0.92707 0.03272 0.67355 0.0
C1177 C 0.94063 0.05406 0.69757 0.0
H1178 H 0.93598 0.00284 0.62906 0.0
C1179 C 0.97425 0.06022 0.69599 0.0
H1180 H 0.9013 0.02719 0.67451 0.0
C1181 C 0.99384 0.04627 0.67055 0.0
C1182 C 0.98043 0.02551 0.64614 0.0
H1183 H 0.98553 0.0764 0.71419 0.0
H1184 H 0.01949 0.05244 0.66954 0.0
C1185 C 0.94696 0.01833 0.64802 0.0
C1186 C 0.85422 0.2662 0.41833 0.0
C1187 C 0.831 0.24733 0.4358 0.0
H1188 H 0.86446 0.29338 0.37465 0.0
C1189 C 0.79854 0.24704 0.42613 0.0
H1190 H 0.87934 0.26708 0.42538 0.0
C1191 C 0.79045 0.26136 0.39703 0.0
C1192 C 0.81443 0.27696 0.37792 0.0
H1193 H 0.77994 0.23333 0.43947 0.0
H1194 H 0.76592 0.25854 0.38846 0.0
C1195 C 0.84586 0.28108 0.38936 0.0
C1196 C 0.59405 0.98278 0.2246 0.0
C1197 C 0.62331 0.99674 0.23518 0.0
H1198 H 0.55108 0.98971 0.1975 0.0
C1199 C 0.63159 0.02936 0.22632 0.0
H1200 H 0.58691 0.95784 0.23131 0.0
C1201 C 0.61064 0.04786 0.20775 0.0
C1202 C 0.58137 0.03385 0.19732 0.0
H1203 H 0.65378 0.04099 0.23454 0.0
H1204 H 0.61758 0.0728 0.20096 0.0
C1205 C 0.57342 1.00107 0.20563 0.0
C1206 C 0.78212 0.88168 0.91524 0.0
C1207 C 0.79359 0.86156 0.94015 0.0
H1208 H 0.76959 0.88491 0.86432 0.0
C1209 C 0.79871 0.82741 0.93193 0.0
H1210 H 0.77823 0.90812 0.92028 0.0
C1211 C 0.7927 0.81387 0.90015 0.0
C1212 C 0.78238 0.83412 0.87485 0.0
H1213 H 0.80767 0.81104 0.95016 0.0
H1214 H 0.79749 0.78758 0.895 0.0
C1215 C 0.77719 0.86833 0.883 0.0
C1216 C 0.90007 0.96997 0.04633 0.0
C1217 C 0.87601 0.97842 0.02433 0.0
H1218 H 0.94623 0.98163 0.06672 0.0
C1219 C 0.88164 0.00667 0.00519 0.0
H1220 H 0.89666 0.94874 0.06179 0.0
C1221 C 0.91054 0.02557 0.00779 0.0
C1222 C 0.93425 0.01743 0.03036 0.0
H1223 H 0.86367 0.01421 0.98815 0.0
H1224 H 0.91422 0.0467 0.99225 0.0
C1225 C 0.92845 0.98927 0.04952 0.0
C1226 C 0.42989 0.63459 0.98915 0.0
C1227 C 0.39924 0.6196 0.9928 0.0
H1228 H 0.48142 0.62739 0.98781 0.0
C1229 C 0.39702 0.58486 0.99549 0.0
H1230 H 0.4322 0.66128 0.98653 0.0
C1231 C 0.42493 0.56544 0.99528 0.0
C1232 C 0.45567 0.58045 0.99292 0.0
H1233 H 0.37366 0.57251 0.99768 0.0
H1234 H 0.42235 0.53882 0.99834 0.0
C1235 C 0.45797 0.61514 0.9894 0.0
C1236 C 0.22946 0.6042 0.846 0.0
C1237 C 0.2159 0.57954 0.8252 0.0
H1238 H 0.25781 0.64903 0.84906 0.0
C1239 C 0.21951 0.58228 0.79089 0.0
H1240 H 0.22711 0.60269 0.87252 0.0
C1241 C 0.23759 0.60824 0.77767 0.0
C1242 C 0.25191 0.63226 0.79844 0.0
H1243 H 0.20953 0.56361 0.77417 0.0
H1244 H 0.24043 0.60955 0.75117 0.0
C1245 C 0.24708 0.63055 0.83267 0.0
C1246 C 0.16864 0.47072 0.52151 0.0
C1247 C 0.183 0.46805 0.55223 0.0
H1248 H 0.12696 0.48595 0.49537 0.0
C1249 C 0.16472 0.47859 0.58071 0.0
H1250 H 0.18192 0.46295 0.49903 0.0
C1251 C 0.13329 0.49166 0.57864 0.0
C1252 C 0.11905 0.49487 0.54798 0.0
H1253 H 0.17475 0.47691 0.60484 0.0
H1254 H 0.12026 0.4995 0.60124 0.0
C1255 C 0.13712 0.48403 0.51942 0.0
C1256 C 0.87695 0.96052 0.81985 0.0
C1257 C 0.88857 0.98585 0.79982 0.0
H1258 H 0.85013 0.91576 0.82273 0.0
C1259 C 0.88909 0.98045 0.76532 0.0
H1260 H 0.87651 0.96378 0.84645 0.0
C1261 C 0.87358 0.95266 0.75135 0.0
C1262 C 0.85792 0.92962 0.77163 0.0
H1263 H 0.89827 0.99934 0.74904 0.0
H1264 H 0.87234 0.95025 0.72484 0.0
C1265 C 0.86149 0.9329 0.80598 0.0
C1266 C 0.7096 0.13129 0.52454 0.0
C1267 C 0.73438 0.10722 0.52109 0.0
H1268 H 0.6619 0.14305 0.54464 0.0
C1269 C 0.7309 0.07709 0.53745 0.0
H1270 H 0.71183 0.15484 0.51242 0.0
C1271 C 0.7029 0.0709 0.55652 0.0
C1272 C 0.67776 0.0945 0.55911 0.0
H1273 H 0.74984 0.05826 0.5356 0.0
H1274 H 0.70023 0.04707 0.56802 0.0
C1275 C 0.68135 0.1248 0.54318 0.0
C1276 C 0.27712 0.43353 0.78541 0.0
C1277 C 0.27138 0.43963 0.81935 0.0
H1278 H 0.29403 0.39796 0.74826 0.0
C1279 C 0.28825 0.42086 0.84173 0.0
H1280 H 0.26504 0.44821 0.76764 0.0
C1281 C 0.30504 0.39219 0.83049 0.0
C1282 C 0.30519 0.38274 0.797 0.0
H1283 H 0.2847 0.42538 0.86804 0.0
H1284 H 0.31337 0.375 0.84833 0.0
C1285 C 0.29413 0.40507 0.77425 0.0
C1286 C 0.27726 0.63708 0.23318 0.0
C1287 C 0.28129 0.62408 0.26442 0.0
H1288 H 0.25624 0.67639 0.20711 0.0
C1289 C 0.25749 0.63099 0.28944 0.0
H1290 H 0.29434 0.63111 0.21289 0.0
C1291 C 0.23544 0.65685 0.28593 0.0
C1292 C 0.23758 0.67575 0.2576 0.0
H1293 H 0.25895 0.62019 0.31337 0.0
H1294 H 0.22125 0.66584 0.30745 0.0
C1295 C 0.25497 0.6628 0.22967 0.0
C1296 C 0.53161 0.68126 0.61478 0.0
C1297 C 0.51799 0.70756 0.59774 0.0
H1298 H 0.54235 0.62861 0.61544 0.0
C1299 C 0.50536 0.6996 0.56661 0.0
H1300 H 0.5412 0.68608 0.63894 0.0
C1301 C 0.50628 0.66674 0.55299 0.0
C1302 C 0.51911 0.64026 0.5703 0.0
H1303 H 0.4945 0.71892 0.55266 0.0
H1304 H 0.49643 0.662 0.52893 0.0
C1305 C 0.53188 0.64811 0.60143 0.0
C1306 C 0.66009 0.2665 0.8181 0.0
C1307 C 0.65233 0.26492 0.85189 0.0
H1308 H 0.69708 0.27274 0.78082 0.0
C1309 C 0.6764 0.27179 0.87472 0.0
H1310 H 0.64181 0.26184 0.79999 0.0
C1311 C 0.7084 0.27782 0.86368 0.0
C1312 C 0.71646 0.27737 0.82973 0.0
H1313 H 0.67089 0.27081 0.90092 0.0
H1314 H 0.72696 0.28153 0.88166 0.0
C1315 C 0.69177 0.27285 0.80713 0.0
C1316 C 0.01098 0.4062 0.07115 0.0
C1317 C 0.03194 0.39512 0.09522 0.0
H1318 H 0.99566 0.44603 0.04161 0.0
C1319 C 0.05604 0.41763 0.10607 0.0
H1320 H 0.99206 0.38997 0.06195 0.0
C1321 C 0.05807 0.45043 0.0942 0.0
C1322 C 0.03599 0.46176 0.07122 0.0
H1323 H 0.07242 0.41045 0.1248 0.0
H1324 H 0.07634 0.46722 0.10379 0.0
C1325 C 0.01292 0.43873 0.05949 0.0
C1326 C 0.93001 0.71158 0.35455 0.0
C1327 C 0.96241 0.70823 0.34335 0.0
H1328 H 0.88186 0.72389 0.34174 0.0
C1329 C 0.97003 0.70677 0.30937 0.0
H1330 H 0.92367 0.7126 0.38066 0.0
C1331 C 0.94626 0.71306 0.28702 0.0
C1332 C 0.91462 0.72109 0.29839 0.0
H1333 H 0.99495 0.70342 0.30023 0.0
H1334 H 0.95316 0.71441 0.26115 0.0
C1335 C 0.90613 0.71802 0.33212 0.0
C1336 C 0.52216 0.34838 0.94496 0.0
C1337 C 0.49976 0.32228 0.94876 0.0
H1338 H 0.53447 0.39878 0.95758 0.0
C1339 C 0.47195 0.3277 0.96948 0.0
H1340 H 0.54373 0.34513 0.92907 0.0
C1341 C 0.46685 0.35834 0.98631 0.0
C1342 C 0.48931 0.38444 0.98272 0.0
H1343 H 0.45424 0.30807 0.97318 0.0
H1344 H 0.44552 0.36135 1.00252 0.0
C1345 C 0.51693 0.37914 0.96162 0.0
C1346 C 0.93506 0.27205 0.23881 0.0
C1347 C 0.9444 0.29769 0.2178 0.0
H1348 H 0.89725 0.25179 0.27009 0.0
C1349 C 0.9223 0.32395 0.2137 0.0
H1350 H 0.95153 0.2516 0.24264 0.0
C1351 C 0.8918 0.32476 0.2304 0.0
C1352 C 0.88219 0.2988 0.25085 0.0
H1353 H 0.92883 0.3443 0.19797 0.0
H1354 H 0.87538 0.34527 0.22661 0.0
C1355 C 0.90406 0.27227 0.25463 0.0
C1356 C 0.01819 0.67358 0.53369 0.0
C1357 C 0.03857 0.68061 0.50634 0.0
H1358 H 0.00814 0.63985 0.57217 0.0
C1359 C 0.06966 0.66607 0.50345 0.0
H1360 H 0.99436 0.68501 0.53688 0.0
C1361 C 0.07741 0.64003 0.52358 0.0
C1362 C 0.0543 0.62882 0.54686 0.0
H1363 H 0.08612 0.67139 0.4829 0.0
H1364 H 0.09915 0.62545 0.5175 0.0
C1365 C 0.02636 0.64809 0.55432 0.0
C1366 C 0.64684 0.77939 0.72654 0.0
C1367 C 0.63529 0.81119 0.71883 0.0
H1368 H 0.68484 0.75093 0.74772 0.0
C1369 C 0.65462 0.83905 0.72729 0.0
H1370 H 0.63266 0.75734 0.72073 0.0
C1371 C 0.68448 0.8354 0.74247 0.0
C1372 C 0.69604 0.80378 0.75049 0.0
H1373 H 0.64677 0.86399 0.72193 0.0
H1374 H 0.6986 0.85759 0.74797 0.0
C1375 C 0.67666 0.77576 0.7424 0.0
C1376 C 0.62176 0.48189 0.69658 0.0
C1377 C 0.62704 0.51228 0.71394 0.0
H1378 H 0.59511 0.45625 0.65917 0.0
C1379 C 0.61052 0.54104 0.70511 0.0
H1380 H 0.634 0.45924 0.70298 0.0
C1381 C 0.58831 0.53921 0.68005 0.0
C1382 C 0.58192 0.50852 0.66386 0.0
H1383 H 0.61407 0.56474 0.71817 0.0
H1384 H 0.57539 0.56154 0.67393 0.0
C1385 C 0.59915 0.47999 0.67194 0.0
C1386 C 0.78991 0.36083 0.97816 0.0
C1387 C 0.81521 0.36918 0.99917 0.0
H1388 H 0.77527 0.33197 0.93598 0.0
C1389 C 0.8457 0.35362 0.9936 0.0
H1390 H 0.76609 0.37214 0.98189 0.0
C1391 C 0.8509 0.33062 0.96737 0.0
C1392 C 0.82582 0.32277 0.94602 0.0
H1393 H 0.86575 0.3593 0.00939 0.0
H1394 H 0.87482 0.31967 0.96331 0.0
C1395 C 0.79519 0.33789 0.95182 0.0
C1396 C 0.9378 0.5897 0.15681 0.0
C1397 C 0.95311 0.60978 0.18062 0.0
H1398 H 0.94241 0.56403 0.10977 0.0
C1399 C 0.98526 0.62038 0.17445 0.0
H1400 H 0.91305 0.58119 0.16095 0.0
C1401 C 0.00221 0.61012 0.14554 0.0
C1402 C 0.98716 0.58953 0.12202 0.0
H1403 H 0.99776 0.6358 0.19239 0.0
H1404 H 0.02714 0.6182 0.14171 0.0
C1405 C 0.95463 0.57986 0.1276 0.0
C1406 C 0.82214 0.74715 0.41939 0.0
C1407 C 0.79576 0.73398 0.43804 0.0
H1408 H 0.83942 0.76897 0.37464 0.0
C1409 C 0.76483 0.73507 0.42411 0.0
H1410 H 0.8465 0.74674 0.42857 0.0
C1411 C 0.76069 0.74867 0.39273 0.0
C1412 C 0.78744 0.7609 0.37394 0.0
H1413 H 0.74386 0.72507 0.43725 0.0
H1414 H 0.73666 0.74865 0.38275 0.0
C1415 C 0.81813 0.75994 0.38804 0.0
C1416 C 0.60598 0.47073 0.90682 0.0
C1417 C 0.61094 0.495 0.88325 0.0
H1418 H 0.58432 0.45953 0.95386 0.0
C1419 C 0.59835 0.52725 0.88898 0.0
H1420 H 0.61562 0.44572 0.9026 0.0
C1421 C 0.58154 0.53542 0.91856 0.0
C1422 C 0.57622 0.51103 0.94198 0.0
H1423 H 0.60222 0.54624 0.87097 0.0
H1424 H 0.57243 0.56061 0.92304 0.0
C1425 C 0.58812 0.47854 0.93585 0.0
C1426 C 0.74748 0.36218 0.16482 0.0
C1427 C 0.77613 0.36013 0.14501 0.0
H1428 H 0.72316 0.34622 0.20892 0.0
C1429 C 0.79882 0.3348 0.14972 0.0
H1430 H 0.72956 0.38143 0.16143 0.0
C1431 C 0.79441 0.31384 0.17603 0.0
C1432 C 0.76779 0.31879 0.19817 0.0
H1433 H 0.82083 0.33255 0.13433 0.0
H1434 H 0.81359 0.29645 0.18115 0.0
C1435 C 0.74358 0.34189 0.19167 0.0
C1436 C 0.99534 0.57737 0.34239 0.0
C1437 C 0.96541 0.59348 0.34962 0.0
H1438 H 0.03574 0.55146 0.36093 0.0
C1439 C 0.95441 0.59775 0.38256 0.0
H1440 H 0.00478 0.57405 0.31726 0.0
C1441 C 0.97229 0.58463 0.40765 0.0
C1442 C 1.00146 0.56707 0.40015 0.0
H1443 H 0.93164 0.61033 0.38891 0.0
H1444 H 0.96253 0.58707 0.4327 0.0
C1445 C 0.0131 0.56427 0.36735 0.0
C1446 C 0.7872 0.70747 0.64407 0.0
C1447 C 0.80364 0.72515 0.61907 0.0
H1448 H 0.7734 0.70515 0.69573 0.0
C1449 C 0.81832 0.75569 0.62857 0.0
H1450 H 0.77596 0.68369 0.63812 0.0
C1451 C 0.81662 0.76813 0.66152 0.0
C1452 C 0.80088 0.75021 0.6867 0.0
H1453 H 0.8314 0.77012 0.61039 0.0
H1454 H 0.82813 0.79181 0.66735 0.0
C1455 C 0.78611 0.71963 0.67734 0.0
C1456 C 0.6783 0.57355 0.55342 0.0
C1457 C 0.68968 0.59997 0.53414 0.0
H1458 H 0.6389 0.5407 0.56604 0.0
C1459 C 0.6684 0.61291 0.51143 0.0
H1460 H 0.69384 0.5628 0.57115 0.0
C1461 C 0.6369 0.59954 0.50791 0.0
C1462 C 0.62553 0.57323 0.5274 0.0
H1463 H 0.67627 0.63299 0.49594 0.0
H1464 H 0.62124 0.61021 0.49023 0.0
C1465 C 0.6467 0.56068 0.55037 0.0
C1466 C 0.1585 0.95562 0.61235 0.0
C1467 C 0.16741 0.92958 0.5897 0.0
H1468 H 0.12185 0.99118 0.62832 0.0
C1469 C 0.14398 0.9157 0.56909 0.0
H1470 H 0.1761 0.96673 0.62861 0.0
C1471 C 0.11264 0.92909 0.56968 0.0
C1472 C 0.1047 0.95705 0.59028 0.0
H1473 H 0.15023 0.89542 0.55163 0.0
H1474 H 0.0955 0.91922 0.55222 0.0
C1475 C 0.12749 0.96958 0.61231 0.0
C1476 C 0.31558 0.99195 0.814 0.0
C1477 C 0.34721 0.99623 0.80061 0.0
H1478 H 0.27316 0.96104 0.81578 0.0
C1479 C 0.36076 0.9716 0.77879 0.0
H1480 H 0.30441 0.01076 0.83059 0.0
C1481 C 0.34296 0.94291 0.77082 0.0
C1482 C 0.31113 0.93912 0.78377 0.0
H1483 H 0.38507 0.97445 0.76809 0.0
H1484 H 0.35371 0.92395 0.75414 0.0
C1485 C 0.29756 0.96381 0.80532 0.0
C1486 C 0.38356 0.09624 0.07394 0.0
C1487 C 0.37876 0.11497 0.04582 0.0
H1488 H 0.41714 0.06764 0.10128 0.0
C1489 C 0.40544 0.11919 0.0237 0.0
H1490 H 0.36358 0.09244 0.09149 0.0
C1491 C 0.43559 0.10421 0.02877 0.0
C1492 C 0.44047 0.08542 0.05671 0.0
H1493 H 0.40275 0.13322 1.00171 0.0
H1494 H 0.45523 0.1073 0.01064 0.0
C1495 C 0.41425 0.08212 0.07963 0.0
C1496 C 0.71318 0.60403 0.86125 0.0
C1497 C 0.70858 0.58334 0.83324 0.0
H1498 H 0.72984 0.65096 0.88032 0.0
C1499 C 0.71503 0.5961 0.80185 0.0
H1500 H 0.70773 0.59528 0.88573 0.0
C1501 C 0.72809 0.6282 0.79878 0.0
C1502 C 0.73466 0.64788 0.82703 0.0
H1503 H 0.71148 0.58075 0.77979 0.0
H1504 H 0.73465 0.63687 0.77453 0.0
C1505 C 0.72587 0.63594 0.85815 0.0
C1506 C 0.84987 0.51449 0.06506 0.0
C1507 C 0.82694 0.5024 0.04311 0.0
H1508 H 0.89668 0.53564 0.07087 0.0
C1509 C 0.83295 0.50437 0.00907 0.0
H1510 H 0.84537 0.5135 0.09144 0.0
C1511 C 0.86293 0.51609 0.99712 0.0
C1512 C 0.88679 0.52621 0.0192 0.0
H1513 H 0.81544 0.49488 0.99182 0.0
H1514 H 0.86801 0.51561 0.9708 0.0
C1515 C 0.87936 0.52672 0.05322 0.0
C1516 C 0.28544 0.15416 0.80252 0.0
C1517 C 0.30896 0.13869 0.78115 0.0
H1518 H 0.25282 0.19544 0.80982 0.0
C1519 C 0.30942 0.14587 0.74751 0.0
H1520 H 0.28378 0.14849 0.82836 0.0
C1521 C 0.29161 0.17272 0.73695 0.0
C1522 C 0.27312 0.19228 0.7599 0.0
H1523 H 0.32641 0.13353 0.73005 0.0
H1524 H 0.29635 0.18123 0.71225 0.0
C1525 C 0.26712 0.18064 0.79169 0.0
C1526 C 0.26619 0.91167 0.32628 0.0
C1527 C 0.24631 0.93133 0.30739 0.0
H1528 H 0.29018 0.86479 0.32968 0.0
C1529 C 0.24351 0.92282 0.27372 0.0
H1530 H 0.26957 0.91793 0.35207 0.0
C1531 C 0.25525 0.89222 0.26087 0.0
C1532 C 0.27004 0.8699 0.28151 0.0
H1533 H 0.2292 0.93798 0.25816 0.0
H1534 H 0.24952 0.88465 0.23589 0.0
C1535 C 0.27806 0.88111 0.31337 0.0
C1536 C 0.51163 0.39584 0.49166 0.0
C1537 C 0.51944 0.38661 0.45857 0.0
H1538 H 0.51203 0.43387 0.53016 0.0
C1539 C 0.53498 0.41064 0.4389 0.0
H1540 H 0.49967 0.37821 0.50762 0.0
C1541 C 0.54139 0.44322 0.4517 0.0
C1542 C 0.53351 0.45235 0.48486 0.0
H1543 H 0.54116 0.40462 0.41324 0.0
H1544 H 0.55233 0.46133 0.43557 0.0
C1545 C 0.51896 0.42788 0.50466 0.0
C1546 C 0.37763 0.75726 0.17953 0.0
C1547 C 0.4043 0.75294 0.19946 0.0
H1548 H 0.32608 0.76179 0.1777 0.0
C1549 C 0.39893 0.74283 0.23191 0.0
H1550 H 0.38108 0.76444 0.15425 0.0
C1551 C 0.36736 0.74177 0.24557 0.0
C1552 C 0.34092 0.75046 0.22676 0.0
H1553 H 0.41908 0.73903 0.24775 0.0
H1554 H 0.36394 0.73658 0.27142 0.0
C1555 C 0.34611 0.75596 0.19307 0.0
C1556 C 0.9951 0.69927 0.9911 0.0
C1557 C 0.02184 0.71672 0.97737 0.0
H1558 H 0.9774 0.65505 0.01367 0.0
C1559 C 0.05289 0.70199 0.97884 0.0
H1560 H 0.97069 0.70925 0.99047 0.0
C1561 C 0.05677 0.67062 0.99317 0.0
C1562 C 0.02958 0.65282 0.0054 0.0
H1563 H 0.07406 0.71438 0.96845 0.0
H1564 H 0.08083 0.6597 0.99348 0.0
C1565 C 0.99885 0.66784 0.00438 0.0
C1566 C 0.09551 0.36799 0.74909 0.0
C1567 C 0.1 0.36671 0.71459 0.0
H1568 H 0.11556 0.35612 0.7952 0.0
C1569 C 0.13052 0.35804 0.70042 0.0
H1570 H 0.07215 0.37457 0.76069 0.0
C1571 C 0.1553 0.34796 0.72024 0.0
C1572 C 0.1497 0.34589 0.75444 0.0
H1573 H 0.13452 0.3569 0.67392 0.0
H1574 H 0.17793 0.33926 0.70849 0.0
C1575 C 0.12012 0.3572 0.76886 0.0
C1576 C 0.51036 0.72069 0.06053 0.0
C1577 C 0.51843 0.73265 0.09206 0.0
H1578 H 0.52078 0.68508 0.02109 0.0
C1579 C 0.54691 0.72075 0.1059 0.0
H1580 H 0.48899 0.7297 0.04885 0.0
C1581 C 0.56525 0.69528 0.08973 0.0
C1582 C 0.55535 0.68144 0.05957 0.0
H1583 H 0.55404 0.72974 0.13002 0.0
H1584 H 0.58555 0.68466 0.10194 0.0
C1585 C 0.52868 0.69538 0.04447 0.0
C1586 C 0.1431 0.74711 0.82847 0.0
C1587 C 0.12765 0.77548 0.84333 0.0
H1588 H 0.18513 0.72683 0.80221 0.0
C1589 C 0.14415 0.80622 0.84249 0.0
H1590 H 0.13126 0.72298 0.82861 0.0
C1591 C 0.17512 0.80851 0.8269 0.0
C1592 C 0.19049 0.78006 0.81202 0.0
H1593 H 0.13298 0.82862 0.85353 0.0
H1594 H 0.18709 0.83257 0.82667 0.0
C1595 C 0.17408 0.74932 0.8132 0.0
C1596 C 0.96283 0.39955 0.57194 0.0
C1597 C 0.98968 0.37792 0.57207 0.0
H1598 H 0.94679 0.44916 0.56291 0.0
C1599 C 0.01882 0.38655 0.55549 0.0
H1600 H 0.94024 0.39354 0.58493 0.0
C1601 C 0.02213 0.41791 0.54201 0.0
C1602 C 0.9966 0.44103 0.54576 0.0
H1603 H 0.03983 0.37026 0.55548 0.0
H1604 H 0.04571 0.42536 0.53204 0.0
C1605 C 0.9665 0.4313 0.55939 0.0
C1606 C 0.41651 0.2727 0.35522 0.0
C1607 C 0.44038 0.29627 0.34643 0.0
H1608 H 0.37051 0.25026 0.34506 0.0
C1609 C 0.43482 0.31586 0.31912 0.0
H1610 H 0.41996 0.25682 0.37578 0.0
C1611 C 0.40594 0.31236 0.30158 0.0
C1612 C 0.38231 0.28838 0.31017 0.0
H1613 H 0.4527 0.33407 0.31141 0.0
H1614 H 0.40215 0.3284 0.28122 0.0
C1615 C 0.3882 0.26857 0.3372 0.0
C1616 C 0.4336 0.59518 0.36282 0.0
C1617 C 0.44776 0.60184 0.33182 0.0
H1618 H 0.44176 0.58567 0.41333 0.0
C1619 C 0.48176 0.60386 0.32804 0.0
H1620 H 0.40759 0.5933 0.36654 0.0
C1621 C 0.50122 0.59984 0.3549 0.0
C1622 C 0.48704 0.59307 0.38579 0.0
H1623 H 0.49334 0.609 0.30441 0.0
H1624 H 0.52737 0.60182 0.35158 0.0
C1625 C 0.45314 0.59049 0.38954 0.0
C1626 C 0.27921 0.71361 0.08585 0.0
C1627 C 0.30617 0.73119 0.07314 0.0
H1628 H 0.2374 0.71466 0.11888 0.0
C1629 C 0.31101 0.76446 0.08402 0.0
H1630 H 0.27469 0.68799 0.07786 0.0
C1631 C 0.28903 0.77989 0.1069 0.0
C1632 C 0.26215 0.76217 0.11944 0.0
H1633 H 0.33132 0.77876 0.07437 0.0
H1634 H 0.29352 0.8053 0.11553 0.0
C1635 C 0.2576 0.72889 0.1089 0.0
C1636 C 0.0827 0.51274 0.89798 0.0
C1637 C 0.11513 0.50216 0.89954 0.0
H1638 H 0.04069 0.53232 0.92451 0.0
C1639 C 0.13022 0.50325 0.92992 0.0
H1640 H 0.07037 0.51201 0.87489 0.0
C1641 C 0.11338 0.51534 0.95817 0.0
C1642 C 0.08099 0.52585 0.95656 0.0
H1643 H 0.15496 0.49479 0.93203 0.0
H1644 H 0.1256 0.51601 0.98134 0.0
C1645 C 0.06568 0.52431 0.92633 0.0
C1646 C 0.26438 0.35198 0.63389 0.0
C1647 C 0.29165 0.34508 0.61255 0.0
H1648 H 0.2408 0.34466 0.6815 0.0
C1649 C 0.31508 0.32263 0.62338 0.0
H1650 H 0.24586 0.36922 0.62683 0.0
C1651 C 0.31244 0.30908 0.65471 0.0
C1652 C 0.28602 0.31689 0.67659 0.0
H1653 H 0.33645 0.31631 0.60806 0.0
H1654 H 0.33173 0.2929 0.66209 0.0
C1655 C 0.26151 0.33791 0.66539 0.0
C1656 C 0.43176 0.55964 0.14664 0.0
C1657 C 0.44221 0.58975 0.16176 0.0
H1658 H 0.44189 0.52114 0.10947 0.0
C1659 C 0.47155 0.60401 0.1508 0.0
H1660 H 0.40933 0.5479 0.15484 0.0
C1661 C 0.49024 0.58853 0.12551 0.0
C1662 C 0.48002 0.55842 0.11031 0.0
H1663 H 0.4804 0.62706 0.16199 0.0
H1664 H 0.5127 0.6005 0.11771 0.0
C1665 C 0.45057 0.54406 0.12105 0.0
C1666 C 0.34774 0.78128 0.90623 0.0
C1667 C 0.32331 0.76755 0.92672 0.0
H1668 H 0.35956 0.79893 0.85807 0.0
C1669 C 0.29068 0.76962 0.91808 0.0
H1670 H 0.37308 0.78019 0.91241 0.0
C1671 C 0.28317 0.78019 0.88714 0.0
C1672 C 0.30814 0.7893 0.865 0.0
H1673 H 0.27135 0.75973 0.93371 0.0
H1674 H 0.25829 0.77824 0.87939 0.0
C1675 C 0.34014 0.79194 0.87518 0.0
C1676 C 0.07788 0.46229 0.72968 0.0
C1677 C 0.10897 0.47615 0.73338 0.0
H1678 H 0.03234 0.46494 0.70639 0.0
C1679 C 0.11813 0.50367 0.71473 0.0
H1680 H 0.07004 0.44107 0.74364 0.0
C1681 C 0.09623 0.5177 0.6937 0.0
C1682 C 0.06474 0.50452 0.69088 0.0
H1683 H 0.14182 0.51509 0.71717 0.0
H1684 H 0.10369 0.5393 0.68014 0.0
C1685 C 0.05602 0.47634 0.70873 0.0
C1686 C 0.28097 0.37759 0.41261 0.0
C1687 C 0.29473 0.35841 0.437 0.0
H1688 H 0.26624 0.37965 0.36229 0.0
C1689 C 0.30171 0.32463 0.42872 0.0
H1690 H 0.27553 0.40373 0.41777 0.0
C1691 C 0.29543 0.31056 0.39727 0.0
C1692 C 0.28283 0.32994 0.37243 0.0
H1693 H 0.31238 0.30898 0.4466 0.0
H1694 H 0.30177 0.28463 0.392 0.0
C1695 C 0.27565 0.36374 0.38068 0.0
C1696 C 0.40094 0.46641 0.54216 0.0
C1697 C 0.37706 0.4755 0.52023 0.0
H1698 H 0.44733 0.47687 0.5625 0.0
C1699 C 0.38333 0.50359 0.50104 0.0
H1700 H 0.39708 0.44525 0.55762 0.0
C1701 C 0.41271 0.52173 0.50357 0.0
C1702 C 0.43619 0.51298 0.52615 0.0
H1703 H 0.36552 0.51158 0.48404 0.0
H1704 H 0.4169 0.5428 0.48805 0.0
C1705 C 0.42974 0.48497 0.5453 0.0
C1706 C 0.9348 0.11496 0.51158 0.0
C1707 C 0.90406 0.09983 0.51126 0.0
H1708 H 0.98538 0.10872 0.52049 0.0
C1709 C 0.90081 0.06605 0.51845 0.0
H1710 H 0.93791 0.14094 0.50594 0.0
C1711 C 0.92778 0.04761 0.52603 0.0
C1712 C 0.95846 0.06275 0.52702 0.0
H1713 H 0.87742 0.05366 0.51803 0.0
H1714 H 0.92439 0.02163 0.53175 0.0
C1715 C 0.96189 0.09655 0.51976 0.0
C1716 C 0.72831 0.09174 0.28828 0.0
C1717 C 0.7295 0.08776 0.32248 0.0
H1718 H 0.74217 0.12138 0.24735 0.0
C1719 C 0.74578 0.1117 0.3418 0.0
H1720 H 0.71615 0.07361 0.2726 0.0
C1721 C 0.76068 0.13895 0.32718 0.0
C1722 C 0.75985 0.14259 0.29299 0.0
H1723 H 0.7473 0.10925 0.36813 0.0
H1724 H 0.77326 0.15699 0.34256 0.0
C1725 C 0.74355 0.11879 0.27367 0.0
C1726 C 0.66681 0.97078 0.02973 0.0
C1727 C 0.6853 0.97572 0.05795 0.0
H1728 H 0.62158 0.97954 0.00663 0.0
C1729 C 0.67094 0.99353 0.08528 0.0
H1730 H 0.677 0.95726 0.0082 0.0
C1731 C 0.63927 0.00626 0.08441 0.0
C1732 C 0.62087 1.00171 0.05613 0.0
H1733 H 0.68424 0.99785 0.10752 0.0
H1734 H 0.62929 0.01987 0.106 0.0
C1735 C 0.63502 0.98364 0.02882 0.0
C1736 C 0.36287 0.4868 0.24435 0.0
C1737 C 0.36157 0.49789 0.27764 0.0
H1738 H 0.35 0.44844 0.20916 0.0
C1739 C 0.34827 0.47697 0.3015 0.0
H1740 H 0.373 0.50234 0.22531 0.0
C1741 C 0.33497 0.44635 0.29211 0.0
C1742 C 0.33474 0.43606 0.25871 0.0
H1743 H 0.34688 0.48479 0.32731 0.0
H1744 H 0.32368 0.43136 0.31094 0.0
C1745 C 0.34937 0.45619 0.23497 0.0
C1746 C 0.20553 0.63996 0.01313 0.0
C1747 C 0.23121 0.61739 0.00646 0.0
H1748 H 0.15915 0.64848 0.0377 0.0
C1749 C 0.23047 0.58624 0.02132 0.0
H1750 H 0.20563 0.66426 1.00233 0.0
C1751 C 0.20436 0.5777 0.0422 0.0
C1752 C 0.1784 0.59995 0.04814 0.0
H1753 H 0.25015 0.56849 0.01705 0.0
H1754 H 0.20378 0.55323 0.05261 0.0
C1755 C 0.17924 0.63117 0.0336 0.0
C1756 C 0.78826 0.93626 0.28889 0.0
C1757 C 0.78187 0.94331 0.3226 0.0
H1758 H 0.80263 0.89863 0.25266 0.0
C1759 C 0.79572 0.92298 0.34578 0.0
H1760 H 0.77847 0.95197 0.27053 0.0
C1761 C 0.80961 0.89246 0.33543 0.0
C1762 C 0.81007 0.88268 0.302 0.0
H1763 H 0.79158 0.92809 0.37195 0.0
H1764 H 0.81523 0.87461 0.35378 0.0
C1765 C 0.80249 0.90593 0.27861 0.0
C1766 C 0.80035 0.12524 0.83037 0.0
C1767 C 0.80484 0.10627 0.8007 0.0
H1768 H 0.79873 0.17413 0.85353 0.0
C1769 C 0.80824 0.12276 0.77091 0.0
H1770 H 0.79701 0.11334 0.85371 0.0
C1771 C 0.80858 0.15745 0.77085 0.0
C1772 C 0.80579 0.17628 0.8006 0.0
H1773 H 0.8111 0.10879 0.74765 0.0
H1774 H 0.81174 0.16952 0.74754 0.0
C1775 C 0.80145 0.16001 0.83035 0.0
loop_
_geom_bond_atom_site_label_1
_geom_bond_atom_site_label_2
_geom_bond_distance
_geom_bond_site_symmetry_2
_ccdc_geom_bond_type
Mg0 O1 2.028 . S
Mg0 O7 1.986 . S
Mg0 O9 2.114 . S
Mg0 O10 2.251 1_455 S
Mg0 O13 2.010 . S
O1 Mg0 2.028 . S
O1 C4 1.250 . S
O2 Mg3 2.028 1_455 S
O2 C4 1.248 . S
Mg3 O2 2.028 1_655 S
Mg3 O8 2.032 1_655 S
Mg3 O10 2.079 . S
C4 O1 1.250 . S
C4 O2 1.248 . S
C5 O6 1.264 . S
C5 O13 1.249 . S
O6 C5 1.264 . S
O7 Mg0 1.986 . S
O7 C11 1.246 . S
O8 Mg3 2.032 1_455 S
O8 C11 1.259 . S
O9 Mg0 2.114 . S
O9 C12 1.252 1_455 S
O10 Mg0 2.251 1_655 S
O10 Mg3 2.079 . S
O10 C12 1.273 . S
C11 O7 1.246 . S
C11 O8 1.259 . S
C12 O9 1.252 1_655 S
C12 O10 1.273 . S
O13 Mg0 2.010 . S
O13 C5 1.249 . S
Mg14 O15 2.028 . S
Mg14 O21 1.986 . S
Mg14 O23 2.114 . S
Mg14 O24 2.251 . S
Mg14 O27 2.010 . S
O15 Mg14 2.028 . S
O15 C18 1.250 . S
O16 Mg17 2.028 1_455 S
O16 C18 1.248 . S
Mg17 O16 2.028 1_655 S
Mg17 O22 2.032 1_655 S
Mg17 O24 2.079 1_655 S
C18 O15 1.250 . S
C18 O16 1.248 . S
C19 O20 1.264 . S
C19 O27 1.249 . S
O20 C19 1.264 . S
O21 Mg14 1.986 . S
O21 C25 1.246 . S
O22 Mg17 2.032 1_455 S
O22 C25 1.259 . S
O23 Mg14 2.114 . S
O23 C26 1.252 . S
O24 Mg14 2.251 . S
O24 Mg17 2.079 1_455 S
O24 C26 1.273 . S
C25 O21 1.246 . S
C25 O22 1.259 . S
C26 O23 1.252 . S
C26 O24 1.273 . S
O27 Mg14 2.010 . S
O27 C19 1.249 . S
Mg28 O29 2.028 . S
Mg28 O35 1.986 . S
Mg28 O37 2.114 . S
Mg28 O38 2.251 . S
Mg28 O41 2.010 . S
O29 Mg28 2.028 . S
O29 C32 1.250 . S
O30 Mg31 2.028 . S
O30 C32 1.248 . S
Mg31 O30 2.028 . S
Mg31 O36 2.032 . S
Mg31 O38 2.079 . S
C32 O29 1.250 . S
C32 O30 1.248 . S
C33 O34 1.264 . S
C33 O41 1.249 . S
O34 C33 1.264 . S
O35 Mg28 1.986 . S
O35 C39 1.246 . S
O36 Mg31 2.032 . S
O36 C39 1.259 . S
O37 Mg28 2.114 . S
O37 C40 1.252 . S
O38 Mg28 2.251 . S
O38 Mg31 2.079 . S
O38 C40 1.273 . S
C39 O35 1.246 . S
C39 O36 1.259 . S
C40 O37 1.252 . S
C40 O38 1.273 . S
O41 Mg28 2.010 . S
O41 C33 1.249 . S
Mg42 O43 2.028 . S
Mg42 O49 1.986 . S
Mg42 O51 2.114 . S
Mg42 O52 2.251 . S
Mg42 O55 2.010 . S
O43 Mg42 2.028 . S
O43 C46 1.250 . S
O44 Mg45 2.028 . S
O44 C46 1.248 . S
Mg45 O44 2.028 . S
Mg45 O50 2.032 . S
Mg45 O52 2.079 . S
C46 O43 1.250 . S
C46 O44 1.248 . S
C47 O48 1.264 . S
C47 O55 1.249 . S
O48 C47 1.264 . S
O49 Mg42 1.986 . S
O49 C53 1.246 . S
O50 Mg45 2.032 . S
O50 C53 1.259 . S
O51 Mg42 2.114 . S
O51 C54 1.252 . S
O52 Mg42 2.251 . S
O52 Mg45 2.079 . S
O52 C54 1.273 . S
C53 O49 1.246 . S
C53 O50 1.259 . S
C54 O51 1.252 . S
C54 O52 1.273 . S
O55 Mg42 2.010 . S
O55 C47 1.249 . S
Mg56 O57 2.028 1_565 S
Mg56 O63 1.986 . S
Mg56 O65 2.114 1_565 S
Mg56 O66 2.251 . S
Mg56 O69 2.010 . S
O57 Mg56 2.028 1_545 S
O57 C60 1.250 . S
O58 Mg59 2.047 . S
O58 C60 1.248 . S
Mg59 O58 2.047 . S
Mg59 O64 2.015 1_545 S
Mg59 O66 2.076 1_545 S
C60 O57 1.250 . S
C60 O58 1.248 . S
C61 O62 1.264 . S
C61 O69 1.249 . S
O62 C61 1.264 . S
O63 Mg56 1.986 . S
O63 C67 1.246 . S
O64 Mg59 2.015 1_565 S
O64 C67 1.259 . S
O65 Mg56 2.114 1_545 S
O65 C68 1.252 . S
O66 Mg56 2.251 . S
O66 Mg59 2.076 1_565 S
O66 C68 1.273 1_565 S
C67 O63 1.246 . S
C67 O64 1.259 . S
C68 O65 1.252 . S
C68 O66 1.273 1_545 S
O69 Mg56 2.010 . S
O69 C61 1.249 . S
Mg70 O71 2.028 . S
Mg70 O77 1.986 . S
Mg70 O79 2.114 . S
Mg70 O80 2.251 . S
Mg70 O83 2.010 . S
O71 Mg70 2.028 . S
O71 C74 1.250 . S
O72 Mg73 2.028 . S
O72 C74 1.248 . S
Mg73 O72 2.028 . S
Mg73 O78 2.032 . S
Mg73 O80 2.079 . S
C74 O71 1.250 . S
C74 O72 1.248 . S
C75 O76 1.264 . S
C75 O83 1.249 . S
O76 C75 1.264 . S
O77 Mg70 1.986 . S
O77 C81 1.246 . S
O78 Mg73 2.032 . S
O78 C81 1.259 . S
O79 Mg70 2.114 . S
O79 C82 1.252 . S
O80 Mg70 2.251 . S
O80 Mg73 2.079 . S
O80 C82 1.273 . S
C81 O77 1.246 . S
C81 O78 1.259 . S
C82 O79 1.252 . S
C82 O80 1.273 . S
O83 Mg70 2.010 . S
O83 C75 1.249 . S
Mg84 O85 2.028 . S
Mg84 O91 1.986 . S
Mg84 O93 2.114 . S
Mg84 O94 2.251 . S
Mg84 O97 2.010 . S
O85 Mg84 2.028 . S
O85 C88 1.250 . S
O86 Mg87 2.028 . S
O86 C88 1.248 . S
Mg87 O86 2.028 . S
Mg87 O92 2.032 . S
Mg87 O94 2.079 . S
C88 O85 1.250 . S
C88 O86 1.248 . S
C89 O90 1.264 . S
C89 O97 1.249 . S
O90 C89 1.264 . S
O91 Mg84 1.986 . S
O91 C95 1.246 . S
O92 Mg87 2.032 . S
O92 C95 1.259 . S
O93 Mg84 2.114 . S
O93 C96 1.252 . S
O94 Mg84 2.251 . S
O94 Mg87 2.079 . S
O94 C96 1.273 . S
C95 O91 1.246 . S
C95 O92 1.259 . S
C96 O93 1.252 . S
C96 O94 1.273 . S
O97 Mg84 2.010 . S
O97 C89 1.249 . S
Mg98 O99 2.028 . S
Mg98 O105 1.986 1_554 S
Mg98 O107 2.114 . S
Mg98 O108 2.251 . S
Mg98 O111 2.010 . S
O99 Mg98 2.028 . S
O99 C102 1.250 . S
O100 Mg101 2.028 . S
O100 C102 1.248 . S
Mg101 O100 2.028 . S
Mg101 O106 2.039 . S
Mg101 O108 2.079 . S
C102 O99 1.250 . S
C102 O100 1.248 . S
C103 O104 1.264 . S
C103 O111 1.249 . S
O104 C103 1.264 . S
O105 Mg98 1.986 1_556 S
O105 C109 1.246 . S
O106 Mg101 2.039 . S
O106 C109 1.255 1_554 S
O107 Mg98 2.114 . S
O107 C110 1.252 . S
O108 Mg98 2.251 . S
O108 Mg101 2.079 . S
O108 C110 1.273 . S
C109 O105 1.246 . S
C109 O106 1.255 1_556 S
C110 O107 1.252 . S
C110 O108 1.273 . S
O111 Mg98 2.010 . S
O111 C103 1.249 . S
Mg112 O113 2.028 . S
Mg112 O119 1.986 . S
Mg112 O121 2.114 . S
Mg112 O122 2.251 . S
Mg112 O125 2.010 . S
O113 Mg112 2.028 . S
O113 C116 1.250 . S
O114 Mg115 2.028 . S
O114 C116 1.248 . S
Mg115 O114 2.028 . S
Mg115 O120 2.032 . S
Mg115 O122 2.079 . S
C116 O113 1.250 . S
C116 O114 1.248 . S
C117 O118 1.264 . S
C117 O125 1.249 . S
O118 C117 1.264 . S
O119 Mg112 1.986 . S
O119 C123 1.246 . S
O120 Mg115 2.032 . S
O120 C123 1.259 . S
O121 Mg112 2.114 . S
O121 C124 1.252 . S
O122 Mg112 2.251 . S
O122 Mg115 2.079 . S
O122 C124 1.273 . S
C123 O119 1.246 . S
C123 O120 1.259 . S
C124 O121 1.252 . S
C124 O122 1.273 . S
O125 Mg112 2.010 . S
O125 C117 1.249 . S
Mg126 O127 2.028 . S
Mg126 O133 1.986 . S
Mg126 O135 2.114 . S
Mg126 O136 2.251 . S
Mg126 O139 2.010 . S
O127 Mg126 2.028 . S
O127 C130 1.250 . S
O128 Mg129 2.028 . S
O128 C130 1.248 . S
Mg129 O128 2.028 . S
Mg129 O134 2.032 . S
Mg129 O136 2.079 . S
C130 O127 1.250 . S
C130 O128 1.248 . S
C131 O132 1.264 . S
C131 O139 1.249 . S
O132 C131 1.264 . S
O133 Mg126 1.986 . S
O133 C137 1.246 . S
O134 Mg129 2.032 . S
O134 C137 1.259 . S
O135 Mg126 2.114 . S
O135 C138 1.252 . S
O136 Mg126 2.251 . S
O136 Mg129 2.079 . S
O136 C138 1.273 . S
C137 O133 1.246 . S
C137 O134 1.259 . S
C138 O135 1.252 . S
C138 O136 1.273 . S
O139 Mg126 2.010 . S
O139 C131 1.249 . S
Mg140 O141 2.028 . S
Mg140 O147 1.986 . S
Mg140 O149 2.114 . S
Mg140 O150 2.251 . S
Mg140 O153 2.010 . S
O141 Mg140 2.028 . S
O141 C144 1.250 . S
O142 Mg143 2.028 . S
O142 C144 1.248 . S
Mg143 O142 2.028 . S
Mg143 O148 2.032 . S
Mg143 O150 2.079 . S
C144 O141 1.250 . S
C144 O142 1.248 . S
C145 O146 1.264 . S
C145 O153 1.249 . S
O146 C145 1.264 . S
O147 Mg140 1.986 . S
O147 C151 1.246 . S
O148 Mg143 2.032 . S
O148 C151 1.259 . S
O149 Mg140 2.114 . S
O149 C152 1.252 . S
O150 Mg140 2.251 . S
O150 Mg143 2.079 . S
O150 C152 1.273 . S
C151 O147 1.246 . S
C151 O148 1.259 . S
C152 O149 1.252 . S
C152 O150 1.273 . S
O153 Mg140 2.010 . S
O153 C145 1.249 . S
Mg154 O155 2.028 . S
Mg154 O161 1.986 . S
Mg154 O163 2.114 . S
Mg154 O164 2.251 . S
Mg154 O167 2.010 . S
O155 Mg154 2.028 . S
O155 C158 1.250 . S
O156 Mg157 2.028 . S
O156 C158 1.248 . S
Mg157 O156 2.028 . S
Mg157 O162 2.032 . S
Mg157 O164 2.079 . S
C158 O155 1.250 . S
C158 O156 1.248 . S
C159 O160 1.264 . S
C159 O167 1.249 . S
O160 C159 1.264 . S
O161 Mg154 1.986 . S
O161 C165 1.246 . S
O162 Mg157 2.032 . S
O162 C165 1.259 . S
O163 Mg154 2.114 . S
O163 C166 1.252 . S
O164 Mg154 2.251 . S
O164 Mg157 2.079 . S
O164 C166 1.273 . S
C165 O161 1.246 . S
C165 O162 1.259 . S
C166 O163 1.252 . S
C166 O164 1.273 . S
O167 Mg154 2.010 . S
O167 C159 1.249 . S
Mg168 O169 2.028 . S
Mg168 O175 1.986 . S
Mg168 O177 2.134 . S
Mg168 O178 2.251 1_455 S
Mg168 O181 2.010 . S
O169 Mg168 2.028 . S
O169 C172 1.250 . S
O170 Mg171 2.028 . S
O170 C172 1.248 1_655 S
Mg171 O170 2.028 . S
Mg171 O176 2.032 . S
Mg171 O178 2.079 . S
C172 O169 1.250 . S
C172 O170 1.248 1_455 S
C173 O174 1.264 . S
C173 O181 1.249 . S
O174 C173 1.264 . S
O175 Mg168 1.986 . S
O175 C179 1.246 . S
O176 Mg171 2.032 . S
O176 C179 1.259 1_655 S
O177 Mg168 2.134 . S
O177 C180 1.222 1_455 S
O178 Mg168 2.251 1_655 S
O178 Mg171 2.079 . S
O178 C180 1.273 . S
C179 O175 1.246 . S
C179 O176 1.259 1_455 S
C180 O177 1.222 1_655 S
C180 O178 1.273 . S
O181 Mg168 2.010 . S
O181 C173 1.249 . S
Mg182 O183 2.028 1_655 S
Mg182 O189 1.986 1_655 S
Mg182 O191 2.114 . S
Mg182 O192 2.251 . S
Mg182 O195 2.010 1_655 S
O183 Mg182 2.028 1_455 S
O183 C186 1.250 1_455 S
O184 Mg185 2.028 . S
O184 C186 1.248 . S
Mg185 O184 2.028 . S
Mg185 O190 2.032 . S
Mg185 O192 2.079 . S
C186 O183 1.250 1_655 S
C186 O184 1.248 . S
C187 O188 1.264 . S
C187 O195 1.249 . S
O188 C187 1.264 . S
O189 Mg182 1.986 1_455 S
O189 C193 1.246 1_455 S
O190 Mg185 2.032 . S
O190 C193 1.259 . S
O191 Mg182 2.114 . S
O191 C194 1.252 . S
O192 Mg182 2.251 . S
O192 Mg185 2.079 . S
O192 C194 1.273 . S
C193 O189 1.246 1_655 S
C193 O190 1.259 . S
C194 O191 1.252 . S
C194 O192 1.273 . S
O195 Mg182 2.010 1_455 S
O195 C187 1.249 . S
Mg196 O197 2.028 . S
Mg196 O203 1.986 . S
Mg196 O205 2.114 . S
Mg196 O206 2.251 . S
Mg196 O209 2.010 . S
O197 Mg196 2.028 . S
O197 C200 1.250 . S
O198 Mg199 2.028 . S
O198 C200 1.248 . S
Mg199 O198 2.028 . S
Mg199 O204 2.032 . S
Mg199 O206 2.079 . S
C200 O197 1.250 . S
C200 O198 1.248 . S
C201 O202 1.264 . S
C201 O209 1.249 . S
O202 C201 1.264 . S
O203 Mg196 1.986 . S
O203 C207 1.246 . S
O204 Mg199 2.032 . S
O204 C207 1.259 . S
O205 Mg196 2.114 . S
O205 C208 1.252 . S
O206 Mg196 2.251 . S
O206 Mg199 2.079 . S
O206 C208 1.273 . S
C207 O203 1.246 . S
C207 O204 1.259 . S
C208 O205 1.252 . S
C208 O206 1.273 . S
O209 Mg196 2.010 . S
O209 C201 1.249 . S
Mg210 O211 2.028 . S
Mg210 O217 1.986 . S
Mg210 O219 2.114 . S
Mg210 O220 2.251 . S
Mg210 O223 2.010 . S
O211 Mg210 2.028 . S
O211 C214 1.250 . S
O212 Mg213 2.028 . S
O212 C214 1.248 . S
Mg213 O212 2.028 . S
Mg213 O218 2.032 . S
Mg213 O220 2.079 . S
C214 O211 1.250 . S
C214 O212 1.248 . S
C215 O216 1.264 . S
C215 O223 1.249 . S
O216 C215 1.264 . S
O217 Mg210 1.986 . S
O217 C221 1.246 . S
O218 Mg213 2.032 . S
O218 C221 1.259 . S
O219 Mg210 2.114 . S
O219 C222 1.252 . S
O220 Mg210 2.251 . S
O220 Mg213 2.079 . S
O220 C222 1.273 . S
C221 O217 1.246 . S
C221 O218 1.259 . S
C222 O219 1.252 . S
C222 O220 1.273 . S
O223 Mg210 2.010 . S
O223 C215 1.249 . S
Mg224 O225 2.028 . S
Mg224 O231 1.986 . S
Mg224 O233 2.114 . S
Mg224 O234 2.251 . S
Mg224 O237 2.010 . S
O225 Mg224 2.028 . S
O225 C228 1.250 . S
O226 Mg227 2.028 . S
O226 C228 1.248 . S
Mg227 O226 2.028 . S
Mg227 O232 2.032 . S
Mg227 O234 2.079 . S
C228 O225 1.250 . S
C228 O226 1.248 . S
C229 O230 1.264 . S
C229 O237 1.249 . S
O230 C229 1.264 . S
O231 Mg224 1.986 . S
O231 C235 1.246 . S
O232 Mg227 2.032 . S
O232 C235 1.259 . S
O233 Mg224 2.114 . S
O233 C236 1.252 . S
O234 Mg224 2.251 . S
O234 Mg227 2.079 . S
O234 C236 1.273 . S
C235 O231 1.246 . S
C235 O232 1.259 . S
C236 O233 1.252 . S
C236 O234 1.273 . S
O237 Mg224 2.010 . S
O237 C229 1.249 . S
Mg238 O239 2.028 . S
Mg238 O245 1.986 . S
Mg238 O247 2.114 . S
Mg238 O248 2.251 . S
Mg238 O251 2.010 . S
O239 Mg238 2.028 . S
O239 C242 1.250 . S
O240 Mg241 2.028 . S
O240 C242 1.248 . S
Mg241 O240 2.028 . S
Mg241 O246 2.032 . S
Mg241 O248 2.079 . S
C242 O239 1.250 . S
C242 O240 1.248 . S
C243 O244 1.264 . S
C243 O251 1.249 . S
O244 C243 1.264 . S
O245 Mg238 1.986 . S
O245 C249 1.246 . S
O246 Mg241 2.032 . S
O246 C249 1.259 . S
O247 Mg238 2.114 . S
O247 C250 1.252 . S
O248 Mg238 2.251 . S
O248 Mg241 2.079 . S
O248 C250 1.273 . S
C249 O245 1.246 . S
C249 O246 1.259 . S
C250 O247 1.252 . S
C250 O248 1.273 . S
O251 Mg238 2.010 . S
O251 C243 1.249 . S
Mg252 O253 2.028 1_565 S
Mg252 O259 1.986 . S
Mg252 O261 2.114 1_565 S
Mg252 O262 2.251 . S
Mg252 O265 2.010 . S
O253 Mg252 2.028 1_545 S
O253 C256 1.250 . S
O254 Mg255 2.028 . S
O254 C256 1.248 . S
Mg255 O254 2.028 . S
Mg255 O260 2.032 1_545 S
Mg255 O262 2.079 1_545 S
C256 O253 1.250 . S
C256 O254 1.248 . S
C257 O258 1.265 . S
C257 O265 1.250 . S
O258 C257 1.265 . S
O259 Mg252 1.986 . S
O259 C263 1.246 . S
O260 Mg255 2.032 1_565 S
O260 C263 1.259 . S
O261 Mg252 2.114 1_545 S
O261 C264 1.252 . S
O262 Mg252 2.251 . S
O262 Mg255 2.079 1_565 S
O262 C264 1.273 1_565 S
C263 O259 1.246 . S
C263 O260 1.259 . S
C264 O261 1.252 . S
C264 O262 1.273 1_545 S
O265 Mg252 2.010 . S
O265 C257 1.250 . S
Mg266 O267 2.028 . S
Mg266 O273 1.986 . S
Mg266 O275 2.114 . S
Mg266 O276 2.251 . S
Mg266 O279 2.010 . S
O267 Mg266 2.028 . S
O267 C270 1.250 1_554 S
O268 Mg269 2.028 1_556 S
O268 C270 1.248 . S
Mg269 O268 2.028 1_554 S
Mg269 O274 2.032 . S
Mg269 O276 2.079 . S
C270 O267 1.250 1_556 S
C270 O268 1.248 . S
C271 O272 1.264 . S
C271 O279 1.249 . S
O272 C271 1.264 . S
O273 Mg266 1.986 . S
O273 C277 1.246 . S
O274 Mg269 2.032 . S
O274 C277 1.259 . S
O275 Mg266 2.114 . S
O275 C278 1.252 . S
O276 Mg266 2.251 . S
O276 Mg269 2.079 . S
O276 C278 1.273 . S
C277 O273 1.246 . S
C277 O274 1.259 . S
C278 O275 1.252 . S
C278 O276 1.273 . S
O279 Mg266 2.010 . S
O279 C271 1.249 . S
Mg280 O281 2.028 1_556 S
Mg280 O287 1.986 . S
Mg280 O289 2.114 1_556 S
Mg280 O290 2.251 . S
Mg280 O293 2.010 . S
O281 Mg280 2.028 1_554 S
O281 C284 1.250 . S
O282 Mg283 2.028 1_554 S
O282 C284 1.248 . S
Mg283 O282 2.028 1_556 S
Mg283 O288 2.032 . S
Mg283 O290 2.079 . S
C284 O281 1.250 . S
C284 O282 1.248 . S
C285 O286 1.264 . S
C285 O293 1.249 . S
O286 C285 1.264 . S
O287 Mg280 1.986 . S
O287 C291 1.246 . S
O288 Mg283 2.032 . S
O288 C291 1.259 . S
O289 Mg280 2.114 1_554 S
O289 C292 1.257 . S
O290 Mg280 2.251 . S
O290 Mg283 2.079 . S
O290 C292 1.266 1_556 S
C291 O287 1.246 . S
C291 O288 1.259 . S
C292 O289 1.257 . S
C292 O290 1.266 1_554 S
O293 Mg280 2.010 . S
O293 C285 1.249 . S
Mg294 O295 2.028 . S
Mg294 O301 1.986 . S
Mg294 O303 2.114 . S
Mg294 O304 2.251 . S
Mg294 O307 2.010 . S
O295 Mg294 2.028 . S
O295 C298 1.250 . S
O296 Mg297 2.028 . S
O296 C298 1.248 . S
Mg297 O296 2.028 . S
Mg297 O302 2.032 . S
Mg297 O304 2.079 . S
C298 O295 1.250 . S
C298 O296 1.248 . S
C299 O300 1.264 . S
C299 O307 1.249 . S
O300 C299 1.264 . S
O301 Mg294 1.986 . S
O301 C305 1.246 . S
O302 Mg297 2.032 . S
O302 C305 1.259 . S
O303 Mg294 2.114 . S
O303 C306 1.252 . S
O304 Mg294 2.251 . S
O304 Mg297 2.079 . S
O304 C306 1.273 . S
C305 O301 1.246 . S
C305 O302 1.259 . S
C306 O303 1.252 . S
C306 O304 1.273 . S
O307 Mg294 2.010 . S
O307 C299 1.249 . S
Mg308 O309 2.028 . S
Mg308 O315 1.986 . S
Mg308 O317 2.114 . S
Mg308 O318 2.251 . S
Mg308 O321 2.010 . S
O309 Mg308 2.028 . S
O309 C312 1.250 . S
O310 Mg311 2.028 . S
O310 C312 1.248 . S
Mg311 O310 2.028 . S
Mg311 O316 2.032 . S
Mg311 O318 2.079 . S
C312 O309 1.250 . S
C312 O310 1.248 . S
C313 O314 1.264 . S
C313 O321 1.249 . S
O314 C313 1.264 . S
O315 Mg308 1.986 . S
O315 C319 1.246 . S
O316 Mg311 2.032 . S
O316 C319 1.259 . S
O317 Mg308 2.114 . S
O317 C320 1.252 . S
O318 Mg308 2.251 . S
O318 Mg311 2.079 . S
O318 C320 1.273 . S
C319 O315 1.246 . S
C319 O316 1.259 . S
C320 O317 1.252 . S
C320 O318 1.273 . S
O321 Mg308 2.010 . S
O321 C313 1.249 . S
Mg322 O323 2.028 . S
Mg322 O329 1.986 . S
Mg322 O331 2.114 . S
Mg322 O332 2.251 . S
Mg322 O335 2.010 . S
O323 Mg322 2.028 . S
O323 C326 1.250 . S
O324 Mg325 2.028 . S
O324 C326 1.248 . S
Mg325 O324 2.028 . S
Mg325 O330 2.032 . S
Mg325 O332 2.079 . S
C326 O323 1.250 . S
C326 O324 1.248 . S
C327 O328 1.264 . S
C327 O335 1.249 . S
O328 C327 1.264 . S
O329 Mg322 1.986 . S
O329 C333 1.246 . S
O330 Mg325 2.032 . S
O330 C333 1.259 . S
O331 Mg322 2.114 . S
O331 C334 1.252 . S
O332 Mg322 2.251 . S
O332 Mg325 2.079 . S
O332 C334 1.273 . S
C333 O329 1.246 . S
C333 O330 1.259 . S
C334 O331 1.252 . S
C334 O332 1.273 . S
O335 Mg322 2.010 . S
O335 C327 1.249 . S
Co336 N341 2.054 . S
Co336 O353 2.020 1_545 S
Co336 O356 2.063 1_456 S
Co336 O360 2.119 1_556 S
Co336 O361 2.020 . S
C337 O357 1.259 . S
C337 O360 1.258 . S
Co338 N347 2.057 . S
Co338 O354 2.117 1_545 S
Co338 O355 2.020 1_455 S
Co338 O357 2.021 . S
Co338 O362 2.062 . S
C339 N341 1.316 1_655 S
C339 N342 1.347 . S
C339 H344 0.932 . S
C340 N341 1.375 1_655 S
C340 C343 1.350 . S
C340 H345 0.930 . S
N341 Co336 2.054 . S
N341 C339 1.316 1_455 S
N341 C340 1.375 1_455 S
N342 C339 1.347 . S
N342 C343 1.373 . S
C343 C340 1.350 . S
C343 N342 1.373 . S
C343 H364 0.931 . S
H344 C339 0.932 . S
H345 C340 0.930 . S
C346 O353 1.259 1_554 S
C346 O354 1.258 . S
N347 Co338 2.057 . S
N347 C348 1.316 . S
N347 C349 1.375 1_545 S
C348 N347 1.316 . S
C348 N350 1.347 1_545 S
C348 H359 0.931 . S
C349 N347 1.375 1_565 S
C349 C351 1.350 . S
C349 H358 0.930 . S
N350 C348 1.347 1_565 S
N350 C351 1.373 . S
C351 C349 1.350 . S
C351 N350 1.373 . S
C351 H365 0.931 . S
C352 O355 1.256 . S
C352 O356 1.255 . S
O353 Co336 2.020 1_565 S
O353 C346 1.259 1_556 S
O354 Co338 2.117 1_565 S
O354 C346 1.258 . S
O355 Co338 2.020 1_655 S
O355 C352 1.256 . S
O356 Co336 2.063 1_654 S
O356 C352 1.255 . S
O357 C337 1.259 . S
O357 Co338 2.021 . S
H358 C349 0.930 . S
H359 C348 0.931 . S
O360 Co336 2.119 1_554 S
O360 C337 1.258 . S
O361 Co336 2.020 . S
O361 C363 1.250 1_556 S
O362 Co338 2.062 . S
O362 C363 1.255 . S
C363 O361 1.250 1_554 S
C363 O362 1.255 . S
H364 C343 0.931 . S
H365 C351 0.931 . S
Co366 N371 2.057 . S
Co366 O383 2.021 . S
Co366 O386 2.062 . S
Co366 O390 2.117 . S
Co366 O391 2.020 . S
C367 O387 1.259 . S
C367 O390 1.258 . S
Co368 N377 2.057 . S
Co368 O384 2.117 . S
Co368 O385 2.020 . S
Co368 O387 2.021 . S
Co368 O392 2.062 . S
C369 N371 1.316 . S
C369 N372 1.347 . S
C369 H374 0.931 . S
C370 N371 1.375 . S
C370 C373 1.350 . S
C370 H375 0.930 . S
N371 Co366 2.057 . S
N371 C369 1.316 . S
N371 C370 1.375 . S
N372 C369 1.347 . S
N372 C373 1.373 . S
C373 C370 1.350 . S
C373 N372 1.373 . S
C373 H394 0.931 . S
H374 C369 0.931 . S
H375 C370 0.930 . S
C376 O383 1.259 . S
C376 O384 1.258 . S
N377 Co368 2.057 . S
N377 C378 1.316 . S
N377 C379 1.375 . S
C378 N377 1.316 . S
C378 N380 1.347 . S
C378 H389 0.931 . S
C379 N377 1.375 . S
C379 C381 1.350 . S
C379 H388 0.930 . S
N380 C378 1.347 . S
N380 C381 1.373 . S
C381 C379 1.350 . S
C381 N380 1.373 . S
C381 H395 0.931 . S
C382 O385 1.256 . S
C382 O386 1.255 . S
O383 Co366 2.021 . S
O383 C376 1.259 . S
O384 Co368 2.117 . S
O384 C376 1.258 . S
O385 Co368 2.020 . S
O385 C382 1.256 . S
O386 Co366 2.062 . S
O386 C382 1.255 . S
O387 C367 1.259 . S
O387 Co368 2.021 . S
H388 C379 0.930 . S
H389 C378 0.931 . S
O390 Co366 2.117 . S
O390 C367 1.258 . S
O391 Co366 2.020 . S
O391 C393 1.256 . S
O392 Co368 2.062 . S
O392 C393 1.255 . S
C393 O391 1.256 . S
C393 O392 1.255 . S
H394 C373 0.931 . S
H395 C381 0.931 . S
Co396 N401 2.057 . S
Co396 O413 2.021 1_545 S
Co396 O416 2.062 . S
Co396 O420 2.117 . S
Co396 O421 2.020 . S
C397 O417 1.259 . S
C397 O420 1.258 . S
Co398 N407 2.057 . S
Co398 O414 2.091 1_545 S
Co398 O415 2.020 . S
Co398 O417 2.021 . S
Co398 O422 2.062 . S
C399 N401 1.316 1_565 S
C399 N402 1.347 . S
C399 H404 0.931 . S
C400 N401 1.375 . S
C400 C403 1.350 . S
C400 H405 0.930 . S
N401 Co396 2.057 . S
N401 C399 1.316 1_545 S
N401 C400 1.375 . S
N402 C399 1.347 . S
N402 C403 1.373 1_565 S
C403 C400 1.350 . S
C403 N402 1.373 1_545 S
C403 H424 0.931 . S
H404 C399 0.931 . S
H405 C400 0.930 . S
C406 O413 1.259 . S
C406 O414 1.279 . S
N407 Co398 2.057 . S
N407 C408 1.316 . S
N407 C409 1.375 . S
C408 N407 1.316 . S
C408 N410 1.347 . S
C408 H419 0.931 . S
C409 N407 1.375 . S
C409 C411 1.350 . S
C409 H418 0.930 . S
N410 C408 1.347 . S
N410 C411 1.373 . S
C411 C409 1.350 . S
C411 N410 1.373 . S
C411 H425 0.931 . S
C412 O415 1.256 . S
C412 O416 1.255 . S
O413 Co396 2.021 1_565 S
O413 C406 1.259 . S
O414 Co398 2.091 1_565 S
O414 C406 1.279 . S
O415 Co398 2.020 . S
O415 C412 1.256 . S
O416 Co396 2.062 . S
O416 C412 1.255 . S
O417 C397 1.259 . S
O417 Co398 2.021 . S
H418 C409 0.930 . S
H419 C408 0.931 . S
O420 Co396 2.117 . S
O420 C397 1.258 . S
O421 Co396 2.020 . S
O421 C423 1.256 . S
O422 Co398 2.062 . S
O422 C423 1.255 . S
C423 O421 1.256 . S
C423 O422 1.255 . S
H424 C403 0.931 . S
H425 C411 0.931 . S
Co426 N431 2.057 . S
Co426 O443 2.021 . S
Co426 O446 2.062 . S
Co426 O450 2.117 . S
Co426 O451 2.020 . S
C427 O447 1.259 . S
C427 O450 1.258 . S
Co428 N437 2.057 . S
Co428 O444 2.117 . S
Co428 O445 2.020 . S
Co428 O447 2.021 . S
Co428 O452 2.062 . S
C429 N431 1.316 . S
C429 N432 1.347 . S
C429 H434 0.931 . S
C430 N431 1.375 . S
C430 C433 1.350 . S
C430 H435 0.930 . S
N431 Co426 2.057 . S
N431 C429 1.316 . S
N431 C430 1.375 . S
N432 C429 1.347 . S
N432 C433 1.373 . S
C433 C430 1.350 . S
C433 N432 1.373 . S
C433 H454 0.931 . S
H434 C429 0.931 . S
H435 C430 0.930 . S
C436 O443 1.259 . S
C436 O444 1.258 . S
N437 Co428 2.057 . S
N437 C438 1.316 . S
N437 C439 1.375 . S
C438 N437 1.316 . S
C438 N440 1.347 . S
C438 H449 0.931 . S
C439 N437 1.375 . S
C439 C441 1.350 . S
C439 H448 0.930 . S
N440 C438 1.347 . S
N440 C441 1.373 . S
C441 C439 1.350 . S
C441 N440 1.373 . S
C441 H455 0.931 . S
C442 O445 1.256 . S
C442 O446 1.255 . S
O443 Co426 2.021 . S
O443 C436 1.259 . S
O444 Co428 2.117 . S
O444 C436 1.258 . S
O445 Co428 2.020 . S
O445 C442 1.256 . S
O446 Co426 2.062 . S
O446 C442 1.255 . S
O447 C427 1.259 . S
O447 Co428 2.021 . S
H448 C439 0.930 . S
H449 C438 0.931 . S
O450 Co426 2.117 . S
O450 C427 1.258 . S
O451 Co426 2.020 . S
O451 C453 1.256 . S
O452 Co428 2.062 . S
O452 C453 1.255 . S
C453 O451 1.256 . S
C453 O452 1.255 . S
H454 C433 0.931 . S
H455 C441 0.931 . S
Co456 N461 2.057 1_545 S
Co456 O473 2.021 . S
Co456 O476 2.062 1_545 S
Co456 O480 2.117 . S
Co456 O481 2.020 1_455 S
C457 O477 1.259 . S
C457 O480 1.258 . S
Co458 N467 2.057 . S
Co458 O474 2.117 . S
Co458 O475 2.020 . S
Co458 O477 2.021 . S
Co458 O482 2.062 1_455 S
C459 N461 1.316 . S
C459 N462 1.347 . S
C459 H464 0.931 . S
C460 N461 1.375 1_655 S
C460 C463 1.350 . S
C460 H465 0.930 . S
N461 Co456 2.057 1_565 S
N461 C459 1.316 . S
N461 C460 1.375 1_455 S
N462 C459 1.347 . S
N462 C463 1.373 1_455 S
C463 C460 1.350 . S
C463 N462 1.373 1_655 S
C463 H484 0.931 . S
H464 C459 0.931 . S
H465 C460 0.930 . S
C466 O473 1.259 . S
C466 O474 1.258 . S
N467 Co458 2.057 . S
N467 C468 1.316 . S
N467 C469 1.375 . S
C468 N467 1.316 . S
C468 N470 1.347 . S
C468 H479 0.931 . S
C469 N467 1.375 . S
C469 C471 1.350 . S
C469 H478 0.930 . S
N470 C468 1.347 . S
N470 C471 1.373 . S
C471 C469 1.350 . S
C471 N470 1.373 . S
C471 H485 0.931 . S
C472 O475 1.256 . S
C472 O476 1.255 1_545 S
O473 Co456 2.021 . S
O473 C466 1.259 . S
O474 Co458 2.117 . S
O474 C466 1.258 . S
O475 Co458 2.020 . S
O475 C472 1.256 . S
O476 Co456 2.062 1_565 S
O476 C472 1.255 1_565 S
O477 C457 1.259 . S
O477 Co458 2.021 . S
H478 C469 0.930 . S
H479 C468 0.931 . S
O480 Co456 2.117 . S
O480 C457 1.258 . S
O481 Co456 2.020 1_655 S
O481 C483 1.256 . S
O482 Co458 2.062 1_655 S
O482 C483 1.255 . S
C483 O481 1.256 . S
C483 O482 1.255 . S
H484 C463 0.931 . S
H485 C471 0.931 . S
Co486 N491 2.057 . S
Co486 O503 2.021 . S
Co486 O506 2.062 . S
Co486 O510 2.117 . S
Co486 O511 2.020 . S
C487 O507 1.259 . S
C487 O510 1.258 . S
Co488 N497 2.057 . S
Co488 O504 2.117 . S
Co488 O505 2.020 . S
Co488 O507 2.021 . S
Co488 O512 2.062 . S
C489 N491 1.316 . S
C489 N492 1.347 . S
C489 H494 0.931 . S
C490 N491 1.375 . S
C490 C493 1.350 . S
C490 H495 0.930 . S
N491 Co486 2.057 . S
N491 C489 1.316 . S
N491 C490 1.375 . S
N492 C489 1.347 . S
N492 C493 1.373 . S
C493 C490 1.350 . S
C493 N492 1.373 . S
C493 H514 0.931 . S
H494 C489 0.931 . S
H495 C490 0.930 . S
C496 O503 1.259 . S
C496 O504 1.258 . S
N497 Co488 2.057 . S
N497 C498 1.316 . S
N497 C499 1.375 . S
C498 N497 1.316 . S
C498 N500 1.347 . S
C498 H509 0.931 . S
C499 N497 1.375 . S
C499 C501 1.350 . S
C499 H508 0.930 . S
N500 C498 1.347 . S
N500 C501 1.373 . S
C501 C499 1.350 . S
C501 N500 1.373 . S
C501 H515 0.931 . S
C502 O505 1.256 . S
C502 O506 1.255 . S
O503 Co486 2.021 . S
O503 C496 1.259 . S
O504 Co488 2.117 . S
O504 C496 1.258 . S
O505 Co488 2.020 . S
O505 C502 1.256 . S
O506 Co486 2.062 . S
O506 C502 1.255 . S
O507 C487 1.259 . S
O507 Co488 2.021 . S
H508 C499 0.930 . S
H509 C498 0.931 . S
O510 Co486 2.117 . S
O510 C487 1.258 . S
O511 Co486 2.020 . S
O511 C513 1.256 . S
O512 Co488 2.062 . S
O512 C513 1.255 . S
C513 O511 1.256 . S
C513 O512 1.255 . S
H514 C493 0.931 . S
H515 C501 0.931 . S
Co516 N521 2.057 1_554 S
Co516 O533 2.021 . S
Co516 O536 2.062 1_554 S
Co516 O540 2.117 . S
Co516 O541 2.020 1_545 S
C517 O537 1.259 . S
C517 O540 1.258 . S
Co518 N527 2.057 . S
Co518 O534 2.117 . S
Co518 O535 2.020 . S
Co518 O537 2.021 . S
Co518 O542 2.076 . S
C519 N521 1.316 . S
C519 N522 1.347 . S
C519 H524 0.931 . S
C520 N521 1.375 1_565 S
C520 C523 1.350 . S
C520 H525 0.930 . S
N521 Co516 2.057 1_556 S
N521 C519 1.316 . S
N521 C520 1.375 1_545 S
N522 C519 1.347 . S
N522 C523 1.373 1_545 S
C523 C520 1.350 . S
C523 N522 1.373 1_565 S
C523 H544 0.931 . S
H524 C519 0.931 . S
H525 C520 0.930 . S
C526 O533 1.259 . S
C526 O534 1.258 . S
N527 Co518 2.057 . S
N527 C528 1.316 . S
N527 C529 1.375 . S
C528 N527 1.316 . S
C528 N530 1.347 . S
C528 H539 0.931 . S
C529 N527 1.375 . S
C529 C531 1.350 . S
C529 H538 0.930 . S
N530 C528 1.347 . S
N530 C531 1.373 . S
C531 C529 1.350 . S
C531 N530 1.373 . S
C531 H545 0.931 . S
C532 O535 1.256 . S
C532 O536 1.255 1_554 S
O533 Co516 2.021 . S
O533 C526 1.259 . S
O534 Co518 2.117 . S
O534 C526 1.258 . S
O535 Co518 2.020 . S
O535 C532 1.256 . S
O536 Co516 2.062 1_556 S
O536 C532 1.255 1_556 S
O537 C517 1.259 . S
O537 Co518 2.021 . S
H538 C529 0.930 . S
H539 C528 0.931 . S
O540 Co516 2.117 . S
O540 C517 1.258 . S
O541 Co516 2.020 1_565 S
O541 C543 1.256 . S
O542 Co518 2.076 . S
O542 C543 1.245 1_545 S
C543 O541 1.256 . S
C543 O542 1.245 1_565 S
H544 C523 0.931 . S
H545 C531 0.931 . S
Co546 N551 2.057 . S
Co546 O563 2.021 . S
Co546 O566 2.062 . S
Co546 O570 2.117 . S
Co546 O571 2.020 . S
C547 O567 1.259 . S
C547 O570 1.258 . S
Co548 N557 2.057 . S
Co548 O564 2.117 . S
Co548 O565 2.020 . S
Co548 O567 2.021 . S
Co548 O572 2.062 . S
C549 N551 1.316 . S
C549 N552 1.347 . S
C549 H554 0.931 . S
C550 N551 1.375 . S
C550 C553 1.350 . S
C550 H555 0.930 . S
N551 Co546 2.057 . S
N551 C549 1.316 . S
N551 C550 1.375 . S
N552 C549 1.347 . S
N552 C553 1.373 . S
C553 C550 1.350 . S
C553 N552 1.373 . S
C553 H574 0.931 . S
H554 C549 0.931 . S
H555 C550 0.930 . S
C556 O563 1.259 . S
C556 O564 1.258 . S
N557 Co548 2.057 . S
N557 C558 1.316 . S
N557 C559 1.375 . S
C558 N557 1.316 . S
C558 N560 1.347 . S
C558 H569 0.931 . S
C559 N557 1.375 . S
C559 C561 1.350 . S
C559 H568 0.930 . S
N560 C558 1.347 . S
N560 C561 1.373 . S
C561 C559 1.350 . S
C561 N560 1.373 . S
C561 H575 0.931 . S
C562 O565 1.256 . S
C562 O566 1.255 . S
O563 Co546 2.021 . S
O563 C556 1.259 . S
O564 Co548 2.117 . S
O564 C556 1.258 . S
O565 Co548 2.020 . S
O565 C562 1.256 . S
O566 Co546 2.062 . S
O566 C562 1.255 . S
O567 C547 1.259 . S
O567 Co548 2.021 . S
H568 C559 0.930 . S
H569 C558 0.931 . S
O570 Co546 2.117 . S
O570 C547 1.258 . S
O571 Co546 2.020 . S
O571 C573 1.256 . S
O572 Co548 2.062 . S
O572 C573 1.255 . S
C573 O571 1.256 . S
C573 O572 1.255 . S
H574 C553 0.931 . S
H575 C561 0.931 . S
Co576 N581 2.057 . S
Co576 O593 2.021 1_554 S
Co576 O596 2.062 . S
Co576 O600 2.117 . S
Co576 O601 2.020 . S
C577 O597 1.259 . S
C577 O600 1.258 . S
Co578 N587 2.057 . S
Co578 O594 2.117 1_554 S
Co578 O595 2.020 . S
Co578 O597 2.021 . S
Co578 O602 2.062 . S
C579 N581 1.316 1_556 S
C579 N582 1.347 . S
C579 H584 0.931 . S
C580 N581 1.375 . S
C580 C583 1.350 . S
C580 H585 0.930 . S
N581 Co576 2.057 . S
N581 C579 1.316 1_554 S
N581 C580 1.375 . S
N582 C579 1.347 . S
N582 C583 1.373 1_556 S
C583 C580 1.350 . S
C583 N582 1.373 1_554 S
C583 H604 0.931 . S
H584 C579 0.931 . S
H585 C580 0.930 . S
C586 O593 1.259 . S
C586 O594 1.258 . S
N587 Co578 2.057 . S
N587 C588 1.316 . S
N587 C589 1.375 . S
C588 N587 1.316 . S
C588 N590 1.347 . S
C588 H599 0.931 . S
C589 N587 1.375 . S
C589 C591 1.350 . S
C589 H598 0.930 . S
N590 C588 1.347 . S
N590 C591 1.373 . S
C591 C589 1.350 . S
C591 N590 1.373 . S
C591 H605 0.931 . S
C592 O595 1.256 . S
C592 O596 1.255 . S
O593 Co576 2.021 1_556 S
O593 C586 1.259 . S
O594 Co578 2.117 1_556 S
O594 C586 1.258 . S
O595 Co578 2.020 . S
O595 C592 1.256 . S
O596 Co576 2.062 . S
O596 C592 1.255 . S
O597 C577 1.259 . S
O597 Co578 2.021 . S
H598 C589 0.930 . S
H599 C588 0.931 . S
O600 Co576 2.117 . S
O600 C577 1.258 . S
O601 Co576 2.020 . S
O601 C603 1.256 . S
O602 Co578 2.062 . S
O602 C603 1.255 . S
C603 O601 1.256 . S
C603 O602 1.255 . S
H604 C583 0.931 . S
H605 C591 0.931 . S
Co606 N611 2.057 . S
Co606 O623 2.021 . S
Co606 O626 2.062 . S
Co606 O630 2.117 . S
Co606 O631 2.020 . S
C607 O627 1.259 . S
C607 O630 1.258 . S
Co608 N617 2.057 . S
Co608 O624 2.117 . S
Co608 O625 2.020 . S
Co608 O627 2.021 . S
Co608 O632 2.062 . S
C609 N611 1.316 . S
C609 N612 1.347 . S
C609 H614 0.931 . S
C610 N611 1.375 . S
C610 C613 1.350 . S
C610 H615 0.930 . S
N611 Co606 2.057 . S
N611 C609 1.316 . S
N611 C610 1.375 . S
N612 C609 1.347 . S
N612 C613 1.373 . S
C613 C610 1.350 . S
C613 N612 1.373 . S
C613 H634 0.931 . S
H614 C609 0.931 . S
H615 C610 0.930 . S
C616 O623 1.259 . S
C616 O624 1.258 . S
N617 Co608 2.057 . S
N617 C618 1.316 . S
N617 C619 1.375 . S
C618 N617 1.316 . S
C618 N620 1.347 . S
C618 H629 0.931 . S
C619 N617 1.375 . S
C619 C621 1.350 . S
C619 H628 0.930 . S
N620 C618 1.347 . S
N620 C621 1.373 . S
C621 C619 1.350 . S
C621 N620 1.373 . S
C621 H635 0.931 . S
C622 O625 1.256 . S
C622 O626 1.255 . S
O623 Co606 2.021 . S
O623 C616 1.259 . S
O624 Co608 2.117 . S
O624 C616 1.258 . S
O625 Co608 2.020 . S
O625 C622 1.256 . S
O626 Co606 2.062 . S
O626 C622 1.255 . S
O627 C607 1.259 . S
O627 Co608 2.021 . S
H628 C619 0.930 . S
H629 C618 0.931 . S
O630 Co606 2.117 . S
O630 C607 1.258 . S
O631 Co606 2.020 . S
O631 C633 1.256 . S
O632 Co608 2.062 . S
O632 C633 1.255 . S
C633 O631 1.256 . S
C633 O632 1.255 . S
H634 C613 0.931 . S
H635 C621 0.931 . S
Co636 N641 2.057 . S
Co636 O653 2.021 1_455 S
Co636 O656 2.062 . S
Co636 O660 2.117 . S
Co636 O661 2.020 . S
C637 O657 1.259 . S
C637 O660 1.258 . S
Co638 N647 2.057 . S
Co638 O654 2.117 1_455 S
Co638 O655 2.020 . S
Co638 O657 2.021 . S
Co638 O662 2.062 . S
C639 N641 1.316 1_655 S
C639 N642 1.347 . S
C639 H644 0.931 . S
C640 N641 1.375 . S
C640 C643 1.350 . S
C640 H645 0.930 . S
N641 Co636 2.057 . S
N641 C639 1.316 1_455 S
N641 C640 1.375 . S
N642 C639 1.347 . S
N642 C643 1.373 1_655 S
C643 C640 1.350 . S
C643 N642 1.373 1_455 S
C643 H664 0.931 . S
H644 C639 0.931 . S
H645 C640 0.930 . S
C646 O653 1.259 . S
C646 O654 1.258 . S
N647 Co638 2.057 . S
N647 C648 1.316 . S
N647 C649 1.375 . S
C648 N647 1.316 . S
C648 N650 1.347 . S
C648 H659 0.931 . S
C649 N647 1.375 . S
C649 C651 1.350 . S
C649 H658 0.930 . S
N650 C648 1.347 . S
N650 C651 1.373 . S
C651 C649 1.350 . S
C651 N650 1.373 . S
C651 H665 0.931 . S
C652 O655 1.256 . S
C652 O656 1.255 . S
O653 Co636 2.021 1_655 S
O653 C646 1.259 . S
O654 Co638 2.117 1_655 S
O654 C646 1.258 . S
O655 Co638 2.020 . S
O655 C652 1.256 . S
O656 Co636 2.062 . S
O656 C652 1.255 . S
O657 C637 1.259 . S
O657 Co638 2.021 . S
H658 C649 0.930 . S
H659 C648 0.931 . S
O660 Co636 2.117 . S
O660 C637 1.258 . S
O661 Co636 2.020 . S
O661 C663 1.256 . S
O662 Co638 2.062 . S
O662 C663 1.255 . S
C663 O661 1.256 . S
C663 O662 1.255 . S
H664 C643 0.931 . S
H665 C651 0.931 . S
Co666 N671 2.057 . S
Co666 O683 2.021 . S
Co666 O686 2.062 . S
Co666 O690 2.117 . S
Co666 O691 2.020 . S
C667 O687 1.259 . S
C667 O690 1.258 . S
Co668 N677 2.057 . S
Co668 O684 2.117 . S
Co668 O685 2.020 . S
Co668 O687 2.021 . S
Co668 O692 2.062 . S
C669 N671 1.316 . S
C669 N672 1.347 . S
C669 H674 0.931 . S
C670 N671 1.375 . S
C670 C673 1.350 . S
C670 H675 0.930 . S
N671 Co666 2.057 . S
N671 C669 1.316 . S
N671 C670 1.375 . S
N672 C669 1.347 . S
N672 C673 1.373 . S
C673 C670 1.350 . S
C673 N672 1.373 . S
C673 H694 0.931 . S
H674 C669 0.931 . S
H675 C670 0.930 . S
C676 O683 1.259 . S
C676 O684 1.258 . S
N677 Co668 2.057 . S
N677 C678 1.316 . S
N677 C679 1.375 . S
C678 N677 1.316 . S
C678 N680 1.347 . S
C678 H689 0.931 . S
C679 N677 1.375 . S
C679 C681 1.350 . S
C679 H688 0.930 . S
N680 C678 1.347 . S
N680 C681 1.373 . S
C681 C679 1.350 . S
C681 N680 1.373 . S
C681 H695 0.931 . S
C682 O685 1.256 . S
C682 O686 1.255 . S
O683 Co666 2.021 . S
O683 C676 1.259 . S
O684 Co668 2.117 . S
O684 C676 1.258 . S
O685 Co668 2.020 . S
O685 C682 1.256 . S
O686 Co666 2.062 . S
O686 C682 1.255 . S
O687 C667 1.259 . S
O687 Co668 2.021 . S
H688 C679 0.930 . S
H689 C678 0.931 . S
O690 Co666 2.117 . S
O690 C667 1.258 . S
O691 Co666 2.020 . S
O691 C693 1.256 . S
O692 Co668 2.062 . S
O692 C693 1.255 . S
C693 O691 1.256 . S
C693 O692 1.255 . S
H694 C673 0.931 . S
H695 C681 0.931 . S
Co696 N701 2.057 . S
Co696 O713 2.021 . S
Co696 O716 2.062 . S
Co696 O720 2.117 . S
Co696 O721 2.020 . S
C697 O717 1.259 . S
C697 O720 1.258 . S
Co698 N707 2.057 . S
Co698 O714 2.117 . S
Co698 O715 2.020 . S
Co698 O717 2.021 . S
Co698 O722 2.062 . S
C699 N701 1.316 . S
C699 N702 1.347 . S
C699 H704 0.931 . S
C700 N701 1.375 . S
C700 C703 1.350 . S
C700 H705 0.930 . S
N701 Co696 2.057 . S
N701 C699 1.316 . S
N701 C700 1.375 . S
N702 C699 1.347 . S
N702 C703 1.373 . S
C703 C700 1.350 . S
C703 N702 1.373 . S
C703 H724 0.931 . S
H704 C699 0.931 . S
H705 C700 0.930 . S
C706 O713 1.259 . S
C706 O714 1.258 . S
N707 Co698 2.057 . S
N707 C708 1.316 . S
N707 C709 1.375 . S
C708 N707 1.316 . S
C708 N710 1.347 . S
C708 H719 0.931 . S
C709 N707 1.375 . S
C709 C711 1.350 . S
C709 H718 0.930 . S
N710 C708 1.347 . S
N710 C711 1.373 . S
C711 C709 1.350 . S
C711 N710 1.373 . S
C711 H725 0.931 . S
C712 O715 1.256 . S
C712 O716 1.255 . S
O713 Co696 2.021 . S
O713 C706 1.259 . S
O714 Co698 2.117 . S
O714 C706 1.258 . S
O715 Co698 2.020 . S
O715 C712 1.256 . S
O716 Co696 2.062 . S
O716 C712 1.255 . S
O717 C697 1.259 . S
O717 Co698 2.021 . S
H718 C709 0.930 . S
H719 C708 0.931 . S
O720 Co696 2.117 . S
O720 C697 1.258 . S
O721 Co696 2.020 . S
O721 C723 1.256 . S
O722 Co698 2.062 . S
O722 C723 1.255 . S
C723 O721 1.256 . S
C723 O722 1.255 . S
H724 C703 0.931 . S
H725 C711 0.931 . S
Co726 N731 2.057 . S
Co726 O743 2.021 . S
Co726 O746 2.062 . S
Co726 O750 2.117 . S
Co726 O751 2.020 . S
C727 O747 1.259 . S
C727 O750 1.258 . S
Co728 N737 2.057 . S
Co728 O744 2.117 . S
Co728 O745 2.020 . S
Co728 O747 2.021 . S
Co728 O752 2.062 . S
C729 N731 1.316 . S
C729 N732 1.347 . S
C729 H734 0.931 . S
C730 N731 1.375 . S
C730 C733 1.350 . S
C730 H735 0.930 . S
N731 Co726 2.057 . S
N731 C729 1.316 . S
N731 C730 1.375 . S
N732 C729 1.347 . S
N732 C733 1.373 . S
C733 C730 1.350 . S
C733 N732 1.373 . S
C733 H754 0.931 . S
H734 C729 0.931 . S
H735 C730 0.930 . S
C736 O743 1.259 . S
C736 O744 1.258 . S
N737 Co728 2.057 . S
N737 C738 1.316 . S
N737 C739 1.375 . S
C738 N737 1.316 . S
C738 N740 1.347 . S
C738 H749 0.931 . S
C739 N737 1.375 . S
C739 C741 1.350 . S
C739 H748 0.930 . S
N740 C738 1.347 . S
N740 C741 1.373 . S
C741 C739 1.350 . S
C741 N740 1.373 . S
C741 H755 0.931 . S
C742 O745 1.256 . S
C742 O746 1.255 . S
O743 Co726 2.021 . S
O743 C736 1.259 . S
O744 Co728 2.117 . S
O744 C736 1.258 . S
O745 Co728 2.020 . S
O745 C742 1.256 . S
O746 Co726 2.062 . S
O746 C742 1.255 . S
O747 C727 1.259 . S
O747 Co728 2.021 . S
H748 C739 0.930 . S
H749 C738 0.931 . S
O750 Co726 2.117 . S
O750 C727 1.258 . S
O751 Co726 2.020 . S
O751 C753 1.256 . S
O752 Co728 2.062 . S
O752 C753 1.255 . S
C753 O751 1.256 . S
C753 O752 1.255 . S
H754 C733 0.931 . S
H755 C741 0.931 . S
Co756 N761 2.057 . S
Co756 O773 2.021 . S
Co756 O776 2.062 . S
Co756 O780 2.117 . S
Co756 O781 2.020 . S
C757 O777 1.259 . S
C757 O780 1.258 . S
Co758 N767 2.057 . S
Co758 O774 2.117 . S
Co758 O775 2.020 . S
Co758 O777 2.021 . S
Co758 O782 2.062 . S
C759 N761 1.316 . S
C759 N762 1.347 . S
C759 H764 0.931 . S
C760 N761 1.375 . S
C760 C763 1.350 . S
C760 H765 0.930 . S
N761 Co756 2.057 . S
N761 C759 1.316 . S
N761 C760 1.375 . S
N762 C759 1.347 . S
N762 C763 1.373 . S
C763 C760 1.350 . S
C763 N762 1.373 . S
C763 H784 0.931 . S
H764 C759 0.931 . S
H765 C760 0.930 . S
C766 O773 1.259 . S
C766 O774 1.258 . S
N767 Co758 2.057 . S
N767 C768 1.316 . S
N767 C769 1.375 . S
C768 N767 1.316 . S
C768 N770 1.347 . S
C768 H779 0.931 . S
C769 N767 1.375 . S
C769 C771 1.350 . S
C769 H778 0.930 . S
N770 C768 1.347 . S
N770 C771 1.373 . S
C771 C769 1.350 . S
C771 N770 1.373 . S
C771 H785 0.931 . S
C772 O775 1.256 . S
C772 O776 1.255 . S
O773 Co756 2.021 . S
O773 C766 1.259 . S
O774 Co758 2.117 . S
O774 C766 1.258 . S
O775 Co758 2.020 . S
O775 C772 1.256 . S
O776 Co756 2.062 . S
O776 C772 1.255 . S
O777 C757 1.259 . S
O777 Co758 2.021 . S
H778 C769 0.930 . S
H779 C768 0.931 . S
O780 Co756 2.117 . S
O780 C757 1.258 . S
O781 Co756 2.020 . S
O781 C783 1.256 . S
O782 Co758 2.062 . S
O782 C783 1.255 . S
C783 O781 1.256 . S
C783 O782 1.255 . S
H784 C763 0.931 . S
H785 C771 0.931 . S
Co786 N791 2.058 1_455 S
Co786 O803 2.021 . S
Co786 O806 2.062 1_455 S
Co786 O810 2.117 1_455 S
Co786 O811 2.019 1_554 S
C787 O807 1.259 . S
C787 O810 1.258 1_455 S
Co788 N797 2.057 . S
Co788 O804 2.117 . S
Co788 O805 2.020 . S
Co788 O807 2.021 . S
Co788 O812 2.062 1_554 S
C789 N791 1.316 . S
C789 N792 1.347 . S
C789 H794 0.931 . S
C790 N791 1.375 1_556 S
C790 C793 1.350 . S
C790 H795 0.930 . S
N791 Co786 2.058 1_655 S
N791 C789 1.316 . S
N791 C790 1.375 1_554 S
N792 C789 1.347 . S
N792 C793 1.373 1_554 S
C793 C790 1.350 . S
C793 N792 1.373 1_556 S
C793 H814 0.931 . S
H794 C789 0.931 . S
H795 C790 0.930 . S
C796 O803 1.259 . S
C796 O804 1.258 . S
N797 Co788 2.057 . S
N797 C798 1.316 . S
N797 C799 1.375 . S
C798 N797 1.316 . S
C798 N800 1.347 . S
C798 H809 0.931 . S
C799 N797 1.375 . S
C799 C801 1.350 . S
C799 H808 0.930 . S
N800 C798 1.347 . S
N800 C801 1.373 . S
C801 C799 1.350 . S
C801 N800 1.373 . S
C801 H815 0.931 . S
C802 O805 1.256 . S
C802 O806 1.255 1_455 S
O803 Co786 2.021 . S
O803 C796 1.259 . S
O804 Co788 2.117 . S
O804 C796 1.258 . S
O805 Co788 2.020 . S
O805 C802 1.256 . S
O806 Co786 2.062 1_655 S
O806 C802 1.255 1_655 S
O807 C787 1.259 . S
O807 Co788 2.021 . S
H808 C799 0.930 . S
H809 C798 0.931 . S
O810 Co786 2.117 1_655 S
O810 C787 1.258 1_655 S
O811 Co786 2.019 1_556 S
O811 C813 1.256 . S
O812 Co788 2.062 1_556 S
O812 C813 1.255 . S
C813 O811 1.256 . S
C813 O812 1.255 . S
H814 C793 0.931 . S
H815 C801 0.931 . S
C816 C817 1.387 . S
C816 H820 0.950 1_455 S
C816 C825 1.390 1_455 S
C817 C816 1.387 . S
C817 C819 1.387 . S
H818 C825 0.950 . S
C819 C817 1.387 . S
C819 C821 1.390 . S
C819 H823 0.950 . S
H820 C816 0.950 1_655 S
C821 C819 1.390 . S
C821 C822 1.387 . S
C821 H824 0.950 . S
C822 C821 1.387 . S
C822 C825 1.387 1_455 S
H823 C819 0.950 . S
H824 C821 0.950 . S
C825 C816 1.390 1_655 S
C825 H818 0.950 . S
C825 C822 1.387 1_655 S
C826 C827 1.387 . S
C826 H830 0.950 . S
C826 C835 1.390 . S
C827 C826 1.387 . S
C827 C829 1.387 . S
H828 C835 0.950 . S
C829 C827 1.387 . S
C829 C831 1.390 . S
C829 H833 0.950 . S
H830 C826 0.950 . S
C831 C829 1.390 . S
C831 C832 1.387 . S
C831 H834 0.950 . S
C832 C831 1.387 . S
C832 C835 1.387 . S
H833 C829 0.950 . S
H834 C831 0.950 . S
C835 C826 1.390 . S
C835 H828 0.950 . S
C835 C832 1.387 . S
C836 C837 1.387 . S
C836 H840 0.950 . S
C836 C845 1.390 . S
C837 C836 1.387 . S
C837 C839 1.387 . S
H838 C845 0.950 . S
C839 C837 1.387 . S
C839 C841 1.390 . S
C839 H843 0.950 . S
H840 C836 0.950 . S
C841 C839 1.390 . S
C841 C842 1.387 . S
C841 H844 0.950 . S
C842 C841 1.387 . S
C842 C845 1.387 . S
H843 C839 0.950 . S
H844 C841 0.950 . S
C845 C836 1.390 . S
C845 H838 0.950 . S
C845 C842 1.387 . S
C846 C847 1.387 . S
C846 H850 0.950 . S
C846 C855 1.390 . S
C847 C846 1.387 . S
C847 C849 1.387 . S
H848 C855 0.950 . S
C849 C847 1.387 . S
C849 C851 1.390 . S
C849 H853 0.950 . S
H850 C846 0.950 . S
C851 C849 1.390 . S
C851 C852 1.387 . S
C851 H854 0.950 . S
C852 C851 1.387 . S
C852 C855 1.387 . S
H853 C849 0.950 . S
H854 C851 0.950 . S
C855 C846 1.390 . S
C855 H848 0.950 . S
C855 C852 1.387 . S
C856 C857 1.387 . S
C856 H860 0.950 . S
C856 C865 1.390 . S
C857 C856 1.387 . S
C857 C859 1.387 . S
H858 C865 0.950 . S
C859 C857 1.387 . S
C859 C861 1.390 . S
C859 H863 0.950 . S
H860 C856 0.950 . S
C861 C859 1.390 . S
C861 C862 1.387 . S
C861 H864 0.950 . S
C862 C861 1.387 . S
C862 C865 1.387 . S
H863 C859 0.950 . S
H864 C861 0.950 . S
C865 C856 1.390 . S
C865 H858 0.950 . S
C865 C862 1.387 . S
C866 C867 1.387 . S
C866 H870 0.950 . S
C866 C875 1.390 . S
C867 C866 1.387 . S
C867 C869 1.387 . S
H868 C875 0.950 . S
C869 C867 1.387 . S
C869 C871 1.390 . S
C869 H873 0.950 . S
H870 C866 0.950 . S
C871 C869 1.390 . S
C871 C872 1.387 . S
C871 H874 0.950 . S
C872 C871 1.387 . S
C872 C875 1.387 . S
H873 C869 0.950 . S
H874 C871 0.950 . S
C875 C866 1.390 . S
C875 H868 0.950 . S
C875 C872 1.387 . S
C876 C877 1.387 . S
C876 H880 0.950 . S
C876 C885 1.390 . S
C877 C876 1.387 . S
C877 C879 1.387 . S
H878 C885 0.950 . S
C879 C877 1.387 . S
C879 C881 1.390 1_556 S
C879 H883 0.950 1_556 S
H880 C876 0.950 . S
C881 C879 1.390 1_554 S
C881 C882 1.387 1_554 S
C881 H884 0.950 . S
C882 C881 1.387 1_556 S
C882 C885 1.387 . S
H883 C879 0.950 1_554 S
H884 C881 0.950 . S
C885 C876 1.390 . S
C885 H878 0.950 . S
C885 C882 1.387 . S
C886 C887 1.387 . S
C886 H890 0.950 . S
C886 C895 1.390 . S
C887 C886 1.387 . S
C887 C889 1.387 . S
H888 C895 0.950 . S
C889 C887 1.387 . S
C889 C891 1.390 . S
C889 H893 0.950 . S
H890 C886 0.950 . S
C891 C889 1.390 . S
C891 C892 1.387 . S
C891 H894 0.950 . S
C892 C891 1.387 . S
C892 C895 1.387 . S
H893 C889 0.950 . S
H894 C891 0.950 . S
C895 C886 1.390 . S
C895 H888 0.950 . S
C895 C892 1.387 . S
C896 C897 1.387 1_565 S
C896 H900 0.950 . S
C896 C905 1.390 . S
C897 C896 1.387 1_545 S
C897 C899 1.387 . S
H898 C905 0.950 . S
C899 C897 1.387 . S
C899 C901 1.390 . S
C899 H903 0.950 . S
H900 C896 0.950 . S
C901 C899 1.390 . S
C901 C902 1.385 1_545 S
C901 H904 0.950 . S
C902 C901 1.385 1_565 S
C902 C905 1.390 . S
H903 C899 0.950 . S
H904 C901 0.950 . S
C905 C896 1.390 . S
C905 H898 0.950 . S
C905 C902 1.390 . S
C906 C907 1.387 . S
C906 H910 0.950 . S
C906 C915 1.390 . S
C907 C906 1.387 . S
C907 C909 1.387 . S
H908 C915 0.950 . S
C909 C907 1.387 . S
C909 C911 1.390 . S
C909 H913 0.950 . S
H910 C906 0.950 . S
C911 C909 1.390 . S
C911 C912 1.387 . S
C911 H914 0.950 . S
C912 C911 1.387 . S
C912 C915 1.387 . S
H913 C909 0.950 . S
H914 C911 0.950 . S
C915 C906 1.390 . S
C915 H908 0.950 . S
C915 C912 1.387 . S
C916 C917 1.387 . S
C916 H920 0.950 . S
C916 C925 1.390 . S
C917 C916 1.387 . S
C917 C919 1.387 . S
H918 C925 0.950 . S
C919 C917 1.387 . S
C919 C921 1.390 . S
C919 H923 0.950 . S
H920 C916 0.950 . S
C921 C919 1.390 . S
C921 C922 1.387 . S
C921 H924 0.950 . S
C922 C921 1.387 . S
C922 C925 1.387 . S
H923 C919 0.950 . S
H924 C921 0.950 . S
C925 C916 1.390 . S
C925 H918 0.950 . S
C925 C922 1.387 . S
C926 C927 1.387 . S
C926 H930 0.950 . S
C926 C935 1.390 . S
C927 C926 1.387 . S
C927 C929 1.387 . S
H928 C935 0.950 . S
C929 C927 1.387 . S
C929 C931 1.390 . S
C929 H933 0.950 . S
H930 C926 0.950 . S
C931 C929 1.390 . S
C931 C932 1.387 . S
C931 H934 0.950 . S
C932 C931 1.387 . S
C932 C935 1.387 . S
H933 C929 0.950 . S
H934 C931 0.950 . S
C935 C926 1.390 . S
C935 H928 0.950 . S
C935 C932 1.387 . S
C936 C937 1.387 . S
C936 H940 0.950 . S
C936 C945 1.390 . S
C937 C936 1.387 . S
C937 C939 1.387 1_545 S
H938 C945 0.950 . S
C939 C937 1.387 1_565 S
C939 C941 1.390 1_565 S
C939 H943 0.950 . S
H940 C936 0.950 . S
C941 C939 1.390 1_545 S
C941 C942 1.387 . S
C941 H944 0.950 . S
C942 C941 1.387 . S
C942 C945 1.387 . S
H943 C939 0.950 . S
H944 C941 0.950 . S
C945 C936 1.390 . S
C945 H938 0.950 . S
C945 C942 1.387 . S
C946 C947 1.387 . S
C946 H950 0.950 . S
C946 C955 1.390 . S
C947 C946 1.387 . S
C947 C949 1.387 . S
H948 C955 0.950 . S
C949 C947 1.387 . S
C949 C951 1.390 . S
C949 H953 0.950 . S
H950 C946 0.950 . S
C951 C949 1.390 . S
C951 C952 1.387 . S
C951 H954 0.950 . S
C952 C951 1.387 . S
C952 C955 1.387 . S
H953 C949 0.950 . S
H954 C951 0.950 . S
C955 C946 1.390 . S
C955 H948 0.950 . S
C955 C952 1.387 . S
C956 C957 1.387 . S
C956 H960 0.950 . S
C956 C965 1.390 . S
C957 C956 1.387 . S
C957 C959 1.387 . S
H958 C965 0.950 . S
C959 C957 1.387 . S
C959 C961 1.390 . S
C959 H963 0.950 . S
H960 C956 0.950 . S
C961 C959 1.390 . S
C961 C962 1.387 . S
C961 H964 0.950 1_545 S
C962 C961 1.387 . S
C962 C965 1.387 . S
H963 C959 0.950 . S
H964 C961 0.950 1_565 S
C965 C956 1.390 . S
C965 H958 0.950 . S
C965 C962 1.387 . S
C966 C967 1.387 . S
C966 H970 0.950 . S
C966 C975 1.390 . S
C967 C966 1.387 . S
C967 C969 1.387 . S
H968 C975 0.950 . S
C969 C967 1.387 . S
C969 C971 1.390 . S
C969 H973 0.950 . S
H970 C966 0.950 . S
C971 C969 1.390 . S
C971 C972 1.387 . S
C971 H974 0.950 . S
C972 C971 1.387 . S
C972 C975 1.387 . S
H973 C969 0.950 . S
H974 C971 0.950 . S
C975 C966 1.390 . S
C975 H968 0.950 . S
C975 C972 1.387 . S
C976 C977 1.387 . S
C976 H980 0.950 . S
C976 C985 1.390 . S
C977 C976 1.387 . S
C977 C979 1.387 . S
H978 C985 0.950 . S
C979 C977 1.387 . S
C979 C981 1.390 . S
C979 H983 0.950 . S
H980 C976 0.950 . S
C981 C979 1.390 . S
C981 C982 1.387 . S
C981 H984 0.950 . S
C982 C981 1.387 . S
C982 C985 1.387 . S
H983 C979 0.950 . S
H984 C981 0.950 . S
C985 C976 1.390 . S
C985 H978 0.950 . S
C985 C982 1.387 . S
C986 C987 1.387 . S
C986 H990 0.950 . S
C986 C995 1.390 . S
C987 C986 1.387 . S
C987 C989 1.387 . S
H988 C995 0.950 . S
C989 C987 1.387 . S
C989 C991 1.390 . S
C989 H993 0.950 . S
H990 C986 0.950 . S
C991 C989 1.390 . S
C991 C992 1.387 . S
C991 H994 0.950 . S
C992 C991 1.387 . S
C992 C995 1.387 . S
H993 C989 0.950 . S
H994 C991 0.950 . S
C995 C986 1.390 . S
C995 H988 0.950 . S
C995 C992 1.387 . S
C996 C997 1.387 . S
C996 H1000 0.950 . S
C996 C1005 1.390 . S
C997 C996 1.387 . S
C997 C999 1.387 . S
H998 C1005 0.950 . S
C999 C997 1.387 . S
C999 C1001 1.390 . S
C999 H1003 0.950 . S
H1000 C996 0.950 . S
C1001 C999 1.390 . S
C1001 C1002 1.387 . S
C1001 H1004 0.950 . S
C1002 C1001 1.387 . S
C1002 C1005 1.387 . S
H1003 C999 0.950 . S
H1004 C1001 0.950 . S
C1005 C996 1.390 . S
C1005 H998 0.950 . S
C1005 C1002 1.387 . S
C1006 C1007 1.387 . S
C1006 H1010 0.950 . S
C1006 C1015 1.390 . S
C1007 C1006 1.387 . S
C1007 C1009 1.387 . S
H1008 C1015 0.950 . S
C1009 C1007 1.387 . S
C1009 C1011 1.390 . S
C1009 H1013 0.950 . S
H1010 C1006 0.950 . S
C1011 C1009 1.390 . S
C1011 C1012 1.387 . S
C1011 H1014 0.950 . S
C1012 C1011 1.387 . S
C1012 C1015 1.387 . S
H1013 C1009 0.950 . S
H1014 C1011 0.950 . S
C1015 C1006 1.390 . S
C1015 H1008 0.950 . S
C1015 C1012 1.387 . S
C1016 C1017 1.387 . S
C1016 H1020 0.950 . S
C1016 C1025 1.390 . S
C1017 C1016 1.387 . S
C1017 C1019 1.387 . S
H1018 C1025 0.950 . S
C1019 C1017 1.387 . S
C1019 C1021 1.390 . S
C1019 H1023 0.950 . S
H1020 C1016 0.950 . S
C1021 C1019 1.390 . S
C1021 C1022 1.387 . S
C1021 H1024 0.950 . S
C1022 C1021 1.387 . S
C1022 C1025 1.387 . S
H1023 C1019 0.950 . S
H1024 C1021 0.950 . S
C1025 C1016 1.390 . S
C1025 H1018 0.950 . S
C1025 C1022 1.387 . S
C1026 C1027 1.387 . S
C1026 H1030 0.950 1_565 S
C1026 C1035 1.390 1_565 S
C1027 C1026 1.387 . S
C1027 C1029 1.387 . S
H1028 C1035 0.950 . S
C1029 C1027 1.387 . S
C1029 C1031 1.390 . S
C1029 H1033 0.950 . S
H1030 C1026 0.950 1_545 S
C1031 C1029 1.390 . S
C1031 C1032 1.387 . S
C1031 H1034 0.950 . S
C1032 C1031 1.387 . S
C1032 C1035 1.387 1_565 S
H1033 C1029 0.950 . S
H1034 C1031 0.950 . S
C1035 C1026 1.390 1_545 S
C1035 H1028 0.950 . S
C1035 C1032 1.387 1_545 S
C1036 C1037 1.387 . S
C1036 H1040 0.950 . S
C1036 C1045 1.390 . S
C1037 C1036 1.387 . S
C1037 C1039 1.387 . S
H1038 C1045 0.950 . S
C1039 C1037 1.387 . S
C1039 C1041 1.390 . S
C1039 H1043 0.950 . S
H1040 C1036 0.950 . S
C1041 C1039 1.390 . S
C1041 C1042 1.387 . S
C1041 H1044 0.950 . S
C1042 C1041 1.387 . S
C1042 C1045 1.387 . S
H1043 C1039 0.950 . S
H1044 C1041 0.950 . S
C1045 C1036 1.390 . S
C1045 H1038 0.950 . S
C1045 C1042 1.387 . S
C1046 C1047 1.387 . S
C1046 H1050 0.950 . S
C1046 C1055 1.390 . S
C1047 C1046 1.387 . S
C1047 C1049 1.387 . S
H1048 C1055 0.950 . S
C1049 C1047 1.387 . S
C1049 C1051 1.390 . S
C1049 H1053 0.950 . S
H1050 C1046 0.950 . S
C1051 C1049 1.390 . S
C1051 C1052 1.387 . S
C1051 H1054 0.950 . S
C1052 C1051 1.387 . S
C1052 C1055 1.387 . S
H1053 C1049 0.950 . S
H1054 C1051 0.950 . S
C1055 C1046 1.390 . S
C1055 H1048 0.950 . S
C1055 C1052 1.387 . S
C1056 C1057 1.387 . S
C1056 H1060 0.950 1_556 S
C1056 C1065 1.390 1_556 S
C1057 C1056 1.387 . S
C1057 C1059 1.387 . S
H1058 C1065 0.950 . S
C1059 C1057 1.387 . S
C1059 C1061 1.390 . S
C1059 H1063 0.950 . S
H1060 C1056 0.950 1_554 S
C1061 C1059 1.390 . S
C1061 C1062 1.387 . S
C1061 H1064 0.950 . S
C1062 C1061 1.387 . S
C1062 C1065 1.387 1_556 S
H1063 C1059 0.950 . S
H1064 C1061 0.950 . S
C1065 C1056 1.390 1_554 S
C1065 H1058 0.950 . S
C1065 C1062 1.387 1_554 S
C1066 C1067 1.387 . S
C1066 H1070 0.950 . S
C1066 C1075 1.390 . S
C1067 C1066 1.387 . S
C1067 C1069 1.387 . S
H1068 C1075 0.950 . S
C1069 C1067 1.387 . S
C1069 C1071 1.390 . S
C1069 H1073 0.950 . S
H1070 C1066 0.950 . S
C1071 C1069 1.390 . S
C1071 C1072 1.387 . S
C1071 H1074 0.950 . S
C1072 C1071 1.387 . S
C1072 C1075 1.387 . S
H1073 C1069 0.950 . S
H1074 C1071 0.950 . S
C1075 C1066 1.390 . S
C1075 H1068 0.950 . S
C1075 C1072 1.387 . S
C1076 C1077 1.387 . S
C1076 H1080 0.950 . S
C1076 C1085 1.390 . S
C1077 C1076 1.387 . S
C1077 C1079 1.387 . S
H1078 C1085 0.950 . S
C1079 C1077 1.387 . S
C1079 C1081 1.390 . S
C1079 H1083 0.950 . S
H1080 C1076 0.950 . S
C1081 C1079 1.390 . S
C1081 C1082 1.387 . S
C1081 H1084 0.950 . S
C1082 C1081 1.387 . S
C1082 C1085 1.387 . S
H1083 C1079 0.950 . S
H1084 C1081 0.950 . S
C1085 C1076 1.390 . S
C1085 H1078 0.950 . S
C1085 C1082 1.387 . S
C1086 C1087 1.387 . S
C1086 H1090 0.950 . S
C1086 C1095 1.390 . S
C1087 C1086 1.387 . S
C1087 C1089 1.387 . S
H1088 C1095 0.950 . S
C1089 C1087 1.387 . S
C1089 C1091 1.390 . S
C1089 H1093 0.950 . S
H1090 C1086 0.950 . S
C1091 C1089 1.390 . S
C1091 C1092 1.387 . S
C1091 H1094 0.950 . S
C1092 C1091 1.387 . S
C1092 C1095 1.387 . S
H1093 C1089 0.950 . S
H1094 C1091 0.950 . S
C1095 C1086 1.390 . S
C1095 H1088 0.950 . S
C1095 C1092 1.387 . S
C1096 C1097 1.387 . S
C1096 H1100 0.950 . S
C1096 C1105 1.390 . S
C1097 C1096 1.387 . S
C1097 C1099 1.387 . S
H1098 C1105 0.950 . S
C1099 C1097 1.387 . S
C1099 C1101 1.390 . S
C1099 H1103 0.950 1_455 S
H1100 C1096 0.950 . S
C1101 C1099 1.390 . S
C1101 C1102 1.387 . S
C1101 H1104 0.950 . S
C1102 C1101 1.387 . S
C1102 C1105 1.387 . S
H1103 C1099 0.950 1_655 S
H1104 C1101 0.950 . S
C1105 C1096 1.390 . S
C1105 H1098 0.950 . S
C1105 C1102 1.387 . S
C1106 C1107 1.387 . S
C1106 H1110 0.950 . S
C1106 C1115 1.390 . S
C1107 C1106 1.387 . S
C1107 C1109 1.387 . S
H1108 C1115 0.950 . S
C1109 C1107 1.387 . S
C1109 C1111 1.390 . S
C1109 H1113 0.950 . S
H1110 C1106 0.950 . S
C1111 C1109 1.390 . S
C1111 C1112 1.387 . S
C1111 H1114 0.950 . S
C1112 C1111 1.387 . S
C1112 C1115 1.387 . S
H1113 C1109 0.950 . S
H1114 C1111 0.950 . S
C1115 C1106 1.390 . S
C1115 H1108 0.950 . S
C1115 C1112 1.387 . S
C1116 C1117 1.387 . S
C1116 H1120 0.950 . S
C1116 C1125 1.390 . S
C1117 C1116 1.387 . S
C1117 C1119 1.387 . S
H1118 C1125 0.950 . S
C1119 C1117 1.387 . S
C1119 C1121 1.390 . S
C1119 H1123 0.950 . S
H1120 C1116 0.950 . S
C1121 C1119 1.390 . S
C1121 C1122 1.387 . S
C1121 H1124 0.950 . S
C1122 C1121 1.387 . S
C1122 C1125 1.387 . S
H1123 C1119 0.950 . S
H1124 C1121 0.950 . S
C1125 C1116 1.390 . S
C1125 H1118 0.950 . S
C1125 C1122 1.387 . S
C1126 C1127 1.387 . S
C1126 H1130 0.950 . S
C1126 C1135 1.390 . S
C1127 C1126 1.387 . S
C1127 C1129 1.387 . S
H1128 C1135 0.950 . S
C1129 C1127 1.387 . S
C1129 C1131 1.390 . S
C1129 H1133 0.950 . S
H1130 C1126 0.950 . S
C1131 C1129 1.390 . S
C1131 C1132 1.387 . S
C1131 H1134 0.950 . S
C1132 C1131 1.387 . S
C1132 C1135 1.387 . S
H1133 C1129 0.950 . S
H1134 C1131 0.950 . S
C1135 C1126 1.390 . S
C1135 H1128 0.950 . S
C1135 C1132 1.387 . S
C1136 C1137 1.387 . S
C1136 H1140 0.950 . S
C1136 C1145 1.390 . S
C1137 C1136 1.387 . S
C1137 C1139 1.387 . S
H1138 C1145 0.950 . S
C1139 C1137 1.387 . S
C1139 C1141 1.390 . S
C1139 H1143 0.950 . S
H1140 C1136 0.950 . S
C1141 C1139 1.390 . S
C1141 C1142 1.387 . S
C1141 H1144 0.950 . S
C1142 C1141 1.387 . S
C1142 C1145 1.387 . S
H1143 C1139 0.950 . S
H1144 C1141 0.950 . S
C1145 C1136 1.390 . S
C1145 H1138 0.950 . S
C1145 C1142 1.387 . S
C1146 C1147 1.387 . S
C1146 H1150 0.950 . S
C1146 C1155 1.390 . S
C1147 C1146 1.387 . S
C1147 C1149 1.387 . S
H1148 C1155 0.950 . S
C1149 C1147 1.387 . S
C1149 C1151 1.390 . S
C1149 H1153 0.950 . S
H1150 C1146 0.950 . S
C1151 C1149 1.390 . S
C1151 C1152 1.387 . S
C1151 H1154 0.950 . S
C1152 C1151 1.387 . S
C1152 C1155 1.387 . S
H1153 C1149 0.950 . S
H1154 C1151 0.950 . S
C1155 C1146 1.390 . S
C1155 H1148 0.950 . S
C1155 C1152 1.387 . S
C1156 C1157 1.387 . S
C1156 H1160 0.950 . S
C1156 C1165 1.390 . S
C1157 C1156 1.387 . S
C1157 C1159 1.387 1_545 S
H1158 C1165 0.950 . S
C1159 C1157 1.387 1_565 S
C1159 C1161 1.390 . S
C1159 H1163 0.950 . S
H1160 C1156 0.950 . S
C1161 C1159 1.390 . S
C1161 C1162 1.387 1_565 S
C1161 H1164 0.950 . S
C1162 C1161 1.387 1_545 S
C1162 C1165 1.387 . S
H1163 C1159 0.950 . S
H1164 C1161 0.950 . S
C1165 C1156 1.390 . S
C1165 H1158 0.950 . S
C1165 C1162 1.387 . S
C1166 C1167 1.387 . S
C1166 H1170 0.950 . S
C1166 C1175 1.390 . S
C1167 C1166 1.387 . S
C1167 C1169 1.387 . S
H1168 C1175 0.950 . S
C1169 C1167 1.387 . S
C1169 C1171 1.390 . S
C1169 H1173 0.950 . S
H1170 C1166 0.950 . S
C1171 C1169 1.390 . S
C1171 C1172 1.387 . S
C1171 H1174 0.950 . S
C1172 C1171 1.387 . S
C1172 C1175 1.387 . S
H1173 C1169 0.950 . S
H1174 C1171 0.950 . S
C1175 C1166 1.390 . S
C1175 H1168 0.950 . S
C1175 C1172 1.387 . S
C1176 C1177 1.387 . S
C1176 H1180 0.950 . S
C1176 C1185 1.390 . S
C1177 C1176 1.387 . S
C1177 C1179 1.387 . S
H1178 C1185 0.950 . S
C1179 C1177 1.387 . S
C1179 C1181 1.390 1_655 S
C1179 H1183 0.950 . S
H1180 C1176 0.950 . S
C1181 C1179 1.390 1_455 S
C1181 C1182 1.387 1_455 S
C1181 H1184 0.950 . S
C1182 C1181 1.387 1_655 S
C1182 C1185 1.387 . S
H1183 C1179 0.950 . S
H1184 C1181 0.950 . S
C1185 C1176 1.390 . S
C1185 H1178 0.950 . S
C1185 C1182 1.387 . S
C1186 C1187 1.387 . S
C1186 H1190 0.950 . S
C1186 C1195 1.390 . S
C1187 C1186 1.387 . S
C1187 C1189 1.387 . S
H1188 C1195 0.950 . S
C1189 C1187 1.387 . S
C1189 C1191 1.390 . S
C1189 H1193 0.950 . S
H1190 C1186 0.950 . S
C1191 C1189 1.390 . S
C1191 C1192 1.387 . S
C1191 H1194 0.950 . S
C1192 C1191 1.387 . S
C1192 C1195 1.387 . S
H1193 C1189 0.950 . S
H1194 C1191 0.950 . S
C1195 C1186 1.390 . S
C1195 H1188 0.950 . S
C1195 C1192 1.387 . S
C1196 C1197 1.387 . S
C1196 H1200 0.950 1_545 S
C1196 C1205 1.390 . S
C1197 C1196 1.387 . S
C1197 C1199 1.387 . S
H1198 C1205 0.950 . S
C1199 C1197 1.387 . S
C1199 C1201 1.390 . S
C1199 H1203 0.950 . S
H1200 C1196 0.950 1_565 S
C1201 C1199 1.390 . S
C1201 C1202 1.387 . S
C1201 H1204 0.950 . S
C1202 C1201 1.387 . S
C1202 C1205 1.387 . S
H1203 C1199 0.950 . S
H1204 C1201 0.950 . S
C1205 C1196 1.390 . S
C1205 H1198 0.950 . S
C1205 C1202 1.387 . S
C1206 C1207 1.387 . S
C1206 H1210 0.950 . S
C1206 C1215 1.390 . S
C1207 C1206 1.387 . S
C1207 C1209 1.387 . S
H1208 C1215 0.950 . S
C1209 C1207 1.387 . S
C1209 C1211 1.390 . S
C1209 H1213 0.950 . S
H1210 C1206 0.950 . S
C1211 C1209 1.390 . S
C1211 C1212 1.387 . S
C1211 H1214 0.950 . S
C1212 C1211 1.387 . S
C1212 C1215 1.387 . S
H1213 C1209 0.950 . S
H1214 C1211 0.950 . S
C1215 C1206 1.390 . S
C1215 H1208 0.950 . S
C1215 C1212 1.387 . S
C1216 C1217 1.387 . S
C1216 H1220 0.950 . S
C1216 C1225 1.390 . S
C1217 C1216 1.387 . S
C1217 C1219 1.387 . S
H1218 C1225 0.950 . S
C1219 C1217 1.387 . S
C1219 C1221 1.390 1_565 S
C1219 H1223 0.950 1_554 S
H1220 C1216 0.950 . S
C1221 C1219 1.390 1_545 S
C1221 C1222 1.388 . S
C1221 H1224 0.950 1_554 S
C1222 C1221 1.388 . S
C1222 C1225 1.375 1_545 S
H1223 C1219 0.950 1_556 S
H1224 C1221 0.950 1_556 S
C1225 C1216 1.390 . S
C1225 H1218 0.950 . S
C1225 C1222 1.375 1_565 S
C1226 C1227 1.387 . S
C1226 H1230 0.950 . S
C1226 C1235 1.390 . S
C1227 C1226 1.387 . S
C1227 C1229 1.387 1_554 S
H1228 C1235 0.950 . S
C1229 C1227 1.387 1_556 S
C1229 C1231 1.390 . S
C1229 H1233 0.950 . S
H1230 C1226 0.950 . S
C1231 C1229 1.390 . S
C1231 C1232 1.387 1_556 S
C1231 H1234 0.950 . S
C1232 C1231 1.387 1_554 S
C1232 C1235 1.387 . S
H1233 C1229 0.950 . S
H1234 C1231 0.950 . S
C1235 C1226 1.390 . S
C1235 H1228 0.950 . S
C1235 C1232 1.387 . S
C1236 C1237 1.387 . S
C1236 H1240 0.950 . S
C1236 C1245 1.390 . S
C1237 C1236 1.387 . S
C1237 C1239 1.387 . S
H1238 C1245 0.950 . S
C1239 C1237 1.387 . S
C1239 C1241 1.390 . S
C1239 H1243 0.950 . S
H1240 C1236 0.950 . S
C1241 C1239 1.390 . S
C1241 C1242 1.387 . S
C1241 H1244 0.950 . S
C1242 C1241 1.387 . S
C1242 C1245 1.387 . S
H1243 C1239 0.950 . S
H1244 C1241 0.950 . S
C1245 C1236 1.390 . S
C1245 H1238 0.950 . S
C1245 C1242 1.387 . S
C1246 C1247 1.387 . S
C1246 H1250 0.950 . S
C1246 C1255 1.390 . S
C1247 C1246 1.387 . S
C1247 C1249 1.387 . S
H1248 C1255 0.950 . S
C1249 C1247 1.387 . S
C1249 C1251 1.390 . S
C1249 H1253 0.950 . S
H1250 C1246 0.950 . S
C1251 C1249 1.390 . S
C1251 C1252 1.387 . S
C1251 H1254 0.950 . S
C1252 C1251 1.387 . S
C1252 C1255 1.387 . S
H1253 C1249 0.950 . S
H1254 C1251 0.950 . S
C1255 C1246 1.390 . S
C1255 H1248 0.950 . S
C1255 C1252 1.387 . S
C1256 C1257 1.387 . S
C1256 H1260 0.950 . S
C1256 C1265 1.390 . S
C1257 C1256 1.387 . S
C1257 C1259 1.387 . S
H1258 C1265 0.950 . S
C1259 C1257 1.387 . S
C1259 C1261 1.390 . S
C1259 H1263 0.950 . S
H1260 C1256 0.950 . S
C1261 C1259 1.390 . S
C1261 C1262 1.387 . S
C1261 H1264 0.950 . S
C1262 C1261 1.387 . S
C1262 C1265 1.387 . S
H1263 C1259 0.950 . S
H1264 C1261 0.950 . S
C1265 C1256 1.390 . S
C1265 H1258 0.950 . S
C1265 C1262 1.387 . S
C1266 C1267 1.387 . S
C1266 H1270 0.950 . S
C1266 C1275 1.390 . S
C1267 C1266 1.387 . S
C1267 C1269 1.387 . S
H1268 C1275 0.950 . S
C1269 C1267 1.387 . S
C1269 C1271 1.390 . S
C1269 H1273 0.950 . S
H1270 C1266 0.950 . S
C1271 C1269 1.390 . S
C1271 C1272 1.387 . S
C1271 H1274 0.950 . S
C1272 C1271 1.387 . S
C1272 C1275 1.387 . S
H1273 C1269 0.950 . S
H1274 C1271 0.950 . S
C1275 C1266 1.390 . S
C1275 H1268 0.950 . S
C1275 C1272 1.387 . S
C1276 C1277 1.387 . S
C1276 H1280 0.950 . S
C1276 C1285 1.390 . S
C1277 C1276 1.387 . S
C1277 C1279 1.387 . S
H1278 C1285 0.950 . S
C1279 C1277 1.387 . S
C1279 C1281 1.390 . S
C1279 H1283 0.950 . S
H1280 C1276 0.950 . S
C1281 C1279 1.390 . S
C1281 C1282 1.387 . S
C1281 H1284 0.950 . S
C1282 C1281 1.387 . S
C1282 C1285 1.387 . S
H1283 C1279 0.950 . S
H1284 C1281 0.950 . S
C1285 C1276 1.390 . S
C1285 H1278 0.950 . S
C1285 C1282 1.387 . S
C1286 C1287 1.387 . S
C1286 H1290 0.950 . S
C1286 C1295 1.390 . S
C1287 C1286 1.387 . S
C1287 C1289 1.387 . S
H1288 C1295 0.950 . S
C1289 C1287 1.387 . S
C1289 C1291 1.390 . S
C1289 H1293 0.950 . S
H1290 C1286 0.950 . S
C1291 C1289 1.390 . S
C1291 C1292 1.387 . S
C1291 H1294 0.950 . S
C1292 C1291 1.387 . S
C1292 C1295 1.387 . S
H1293 C1289 0.950 . S
H1294 C1291 0.950 . S
C1295 C1286 1.390 . S
C1295 H1288 0.950 . S
C1295 C1292 1.387 . S
C1296 C1297 1.387 . S
C1296 H1300 0.950 . S
C1296 C1305 1.390 . S
C1297 C1296 1.387 . S
C1297 C1299 1.387 . S
H1298 C1305 0.950 . S
C1299 C1297 1.387 . S
C1299 C1301 1.390 . S
C1299 H1303 0.950 . S
H1300 C1296 0.950 . S
C1301 C1299 1.390 . S
C1301 C1302 1.387 . S
C1301 H1304 0.950 . S
C1302 C1301 1.387 . S
C1302 C1305 1.387 . S
H1303 C1299 0.950 . S
H1304 C1301 0.950 . S
C1305 C1296 1.390 . S
C1305 H1298 0.950 . S
C1305 C1302 1.387 . S
C1306 C1307 1.387 . S
C1306 H1310 0.950 . S
C1306 C1315 1.390 . S
C1307 C1306 1.387 . S
C1307 C1309 1.387 . S
H1308 C1315 0.950 . S
C1309 C1307 1.387 . S
C1309 C1311 1.390 . S
C1309 H1313 0.950 . S
H1310 C1306 0.950 . S
C1311 C1309 1.390 . S
C1311 C1312 1.387 . S
C1311 H1314 0.950 . S
C1312 C1311 1.387 . S
C1312 C1315 1.387 . S
H1313 C1309 0.950 . S
H1314 C1311 0.950 . S
C1315 C1306 1.390 . S
C1315 H1308 0.950 . S
C1315 C1312 1.387 . S
C1316 C1317 1.387 . S
C1316 H1320 0.950 . S
C1316 C1325 1.390 . S
C1317 C1316 1.387 . S
C1317 C1319 1.387 . S
H1318 C1325 0.950 . S
C1319 C1317 1.387 . S
C1319 C1321 1.390 . S
C1319 H1323 0.950 . S
H1320 C1316 0.950 . S
C1321 C1319 1.390 . S
C1321 C1322 1.387 . S
C1321 H1324 0.950 . S
C1322 C1321 1.387 . S
C1322 C1325 1.387 . S
H1323 C1319 0.950 . S
H1324 C1321 0.950 . S
C1325 C1316 1.390 . S
C1325 H1318 0.950 . S
C1325 C1322 1.387 . S
C1326 C1327 1.387 . S
C1326 H1330 0.950 . S
C1326 C1335 1.390 . S
C1327 C1326 1.387 . S
C1327 C1329 1.387 . S
H1328 C1335 0.950 . S
C1329 C1327 1.387 . S
C1329 C1331 1.390 . S
C1329 H1333 0.950 . S
H1330 C1326 0.950 . S
C1331 C1329 1.390 . S
C1331 C1332 1.387 . S
C1331 H1334 0.950 . S
C1332 C1331 1.387 . S
C1332 C1335 1.387 . S
H1333 C1329 0.950 . S
H1334 C1331 0.950 . S
C1335 C1326 1.390 . S
C1335 H1328 0.950 . S
C1335 C1332 1.387 . S
C1336 C1337 1.387 . S
C1336 H1340 0.950 . S
C1336 C1345 1.390 . S
C1337 C1336 1.387 . S
C1337 C1339 1.387 . S
H1338 C1345 0.950 . S
C1339 C1337 1.387 . S
C1339 C1341 1.390 . S
C1339 H1343 0.950 . S
H1340 C1336 0.950 . S
C1341 C1339 1.390 . S
C1341 C1342 1.387 . S
C1341 H1344 0.958 . S
C1342 C1341 1.387 . S
C1342 C1345 1.387 . S
H1343 C1339 0.950 . S
H1344 C1341 0.958 . S
C1345 C1336 1.390 . S
C1345 H1338 0.950 . S
C1345 C1342 1.387 . S
C1346 C1347 1.387 . S
C1346 H1350 0.950 . S
C1346 C1355 1.390 . S
C1347 C1346 1.387 . S
C1347 C1349 1.387 . S
H1348 C1355 0.950 . S
C1349 C1347 1.387 . S
C1349 C1351 1.390 . S
C1349 H1353 0.950 . S
H1350 C1346 0.950 . S
C1351 C1349 1.390 . S
C1351 C1352 1.387 . S
C1351 H1354 0.950 . S
C1352 C1351 1.387 . S
C1352 C1355 1.387 . S
H1353 C1349 0.950 . S
H1354 C1351 0.950 . S
C1355 C1346 1.390 . S
C1355 H1348 0.950 . S
C1355 C1352 1.387 . S
C1356 C1357 1.387 . S
C1356 H1360 0.950 . S
C1356 C1365 1.390 . S
C1357 C1356 1.387 . S
C1357 C1359 1.387 . S
H1358 C1365 0.950 . S
C1359 C1357 1.387 . S
C1359 C1361 1.390 . S
C1359 H1363 0.950 . S
H1360 C1356 0.950 . S
C1361 C1359 1.390 . S
C1361 C1362 1.387 . S
C1361 H1364 0.950 . S
C1362 C1361 1.387 . S
C1362 C1365 1.387 . S
H1363 C1359 0.950 . S
H1364 C1361 0.950 . S
C1365 C1356 1.390 . S
C1365 H1358 0.950 . S
C1365 C1362 1.387 . S
C1366 C1367 1.387 . S
C1366 H1370 0.950 . S
C1366 C1375 1.390 . S
C1367 C1366 1.387 . S
C1367 C1369 1.387 . S
H1368 C1375 0.950 . S
C1369 C1367 1.387 . S
C1369 C1371 1.390 . S
C1369 H1373 0.950 . S
H1370 C1366 0.950 . S
C1371 C1369 1.390 . S
C1371 C1372 1.387 . S
C1371 H1374 0.950 . S
C1372 C1371 1.387 . S
C1372 C1375 1.387 . S
H1373 C1369 0.950 . S
H1374 C1371 0.950 . S
C1375 C1366 1.390 . S
C1375 H1368 0.950 . S
C1375 C1372 1.387 . S
C1376 C1377 1.387 . S
C1376 H1380 0.950 . S
C1376 C1385 1.390 . S
C1377 C1376 1.387 . S
C1377 C1379 1.387 . S
H1378 C1385 0.950 . S
C1379 C1377 1.387 . S
C1379 C1381 1.390 . S
C1379 H1383 0.950 . S
H1380 C1376 0.950 . S
C1381 C1379 1.390 . S
C1381 C1382 1.387 . S
C1381 H1384 0.950 . S
C1382 C1381 1.387 . S
C1382 C1385 1.387 . S
H1383 C1379 0.950 . S
H1384 C1381 0.950 . S
C1385 C1376 1.390 . S
C1385 H1378 0.950 . S
C1385 C1382 1.387 . S
C1386 C1387 1.387 . S
C1386 H1390 0.950 . S
C1386 C1395 1.390 . S
C1387 C1386 1.387 . S
C1387 C1389 1.387 . S
H1388 C1395 0.950 . S
C1389 C1387 1.387 . S
C1389 C1391 1.390 . S
C1389 H1393 0.950 . S
H1390 C1386 0.950 . S
C1391 C1389 1.390 . S
C1391 C1392 1.387 . S
C1391 H1394 0.950 . S
C1392 C1391 1.387 . S
C1392 C1395 1.387 . S
H1393 C1389 0.950 . S
H1394 C1391 0.950 . S
C1395 C1386 1.390 . S
C1395 H1388 0.950 . S
C1395 C1392 1.387 . S
C1396 C1397 1.387 . S
C1396 H1400 0.950 . S
C1396 C1405 1.390 . S
C1397 C1396 1.387 . S
C1397 C1399 1.387 . S
H1398 C1405 0.950 . S
C1399 C1397 1.387 . S
C1399 C1401 1.390 . S
C1399 H1403 0.950 . S
H1400 C1396 0.950 . S
C1401 C1399 1.390 . S
C1401 C1402 1.387 . S
C1401 H1404 0.950 . S
C1402 C1401 1.387 . S
C1402 C1405 1.387 . S
H1403 C1399 0.950 . S
H1404 C1401 0.950 . S
C1405 C1396 1.390 . S
C1405 H1398 0.950 . S
C1405 C1402 1.387 . S
C1406 C1407 1.387 . S
C1406 H1410 0.950 . S
C1406 C1415 1.390 . S
C1407 C1406 1.387 . S
C1407 C1409 1.387 . S
H1408 C1415 0.950 . S
C1409 C1407 1.387 . S
C1409 C1411 1.390 . S
C1409 H1413 0.950 . S
H1410 C1406 0.950 . S
C1411 C1409 1.390 . S
C1411 C1412 1.387 . S
C1411 H1414 0.950 . S
C1412 C1411 1.387 . S
C1412 C1415 1.387 . S
H1413 C1409 0.950 . S
H1414 C1411 0.950 . S
C1415 C1406 1.390 . S
C1415 H1408 0.950 . S
C1415 C1412 1.387 . S
C1416 C1417 1.387 . S
C1416 H1420 0.950 . S
C1416 C1425 1.390 . S
C1417 C1416 1.387 . S
C1417 C1419 1.387 . S
H1418 C1425 0.950 . S
C1419 C1417 1.387 . S
C1419 C1421 1.390 . S
C1419 H1423 0.950 . S
H1420 C1416 0.950 . S
C1421 C1419 1.390 . S
C1421 C1422 1.387 . S
C1421 H1424 0.950 . S
C1422 C1421 1.387 . S
C1422 C1425 1.387 . S
H1423 C1419 0.950 . S
H1424 C1421 0.950 . S
C1425 C1416 1.390 . S
C1425 H1418 0.950 . S
C1425 C1422 1.387 . S
C1426 C1427 1.387 . S
C1426 H1430 0.950 . S
C1426 C1435 1.390 . S
C1427 C1426 1.387 . S
C1427 C1429 1.387 . S
H1428 C1435 0.950 . S
C1429 C1427 1.387 . S
C1429 C1431 1.390 . S
C1429 H1433 0.950 . S
H1430 C1426 0.950 . S
C1431 C1429 1.390 . S
C1431 C1432 1.387 . S
C1431 H1434 0.950 . S
C1432 C1431 1.387 . S
C1432 C1435 1.387 . S
H1433 C1429 0.950 . S
H1434 C1431 0.950 . S
C1435 C1426 1.390 . S
C1435 H1428 0.950 . S
C1435 C1432 1.387 . S
C1436 C1437 1.387 . S
C1436 H1440 0.950 . S
C1436 C1445 1.390 . S
C1437 C1436 1.387 . S
C1437 C1439 1.387 . S
H1438 C1445 0.950 . S
C1439 C1437 1.387 . S
C1439 C1441 1.390 . S
C1439 H1443 0.950 . S
H1440 C1436 0.950 . S
C1441 C1439 1.390 . S
C1441 C1442 1.387 . S
C1441 H1444 0.950 . S
C1442 C1441 1.387 . S
C1442 C1445 1.387 . S
H1443 C1439 0.950 . S
H1444 C1441 0.950 . S
C1445 C1436 1.390 . S
C1445 H1438 0.950 . S
C1445 C1442 1.387 . S
C1446 C1447 1.387 . S
C1446 H1450 0.950 . S
C1446 C1455 1.390 . S
C1447 C1446 1.387 . S
C1447 C1449 1.387 . S
H1448 C1455 0.950 . S
C1449 C1447 1.387 . S
C1449 C1451 1.390 . S
C1449 H1453 0.950 . S
H1450 C1446 0.950 . S
C1451 C1449 1.390 . S
C1451 C1452 1.387 . S
C1451 H1454 0.950 . S
C1452 C1451 1.387 . S
C1452 C1455 1.387 . S
H1453 C1449 0.950 . S
H1454 C1451 0.950 . S
C1455 C1446 1.390 . S
C1455 H1448 0.950 . S
C1455 C1452 1.387 . S
C1456 C1457 1.387 . S
C1456 H1460 0.950 . S
C1456 C1465 1.390 . S
C1457 C1456 1.387 . S
C1457 C1459 1.387 . S
H1458 C1465 0.950 . S
C1459 C1457 1.387 . S
C1459 C1461 1.390 . S
C1459 H1463 0.950 . S
H1460 C1456 0.950 . S
C1461 C1459 1.390 . S
C1461 C1462 1.387 . S
C1461 H1464 0.950 . S
C1462 C1461 1.387 . S
C1462 C1465 1.387 . S
H1463 C1459 0.950 . S
H1464 C1461 0.950 . S
C1465 C1456 1.390 . S
C1465 H1458 0.950 . S
C1465 C1462 1.387 . S
C1466 C1467 1.387 . S
C1466 H1470 0.950 . S
C1466 C1475 1.397 . S
C1467 C1466 1.387 . S
C1467 C1469 1.387 . S
H1468 C1475 0.944 1_545 S
C1469 C1467 1.387 . S
C1469 C1471 1.390 . S
C1469 H1473 0.950 . S
H1470 C1466 0.950 . S
C1471 C1469 1.390 . S
C1471 C1472 1.387 1_565 S
C1471 H1474 0.950 . S
C1472 C1471 1.387 1_545 S
C1472 C1475 1.387 1_545 S
H1473 C1469 0.950 . S
H1474 C1471 0.950 . S
C1475 C1466 1.397 . S
C1475 H1468 0.944 1_565 S
C1475 C1472 1.387 1_565 S
C1476 C1477 1.387 . S
C1476 H1480 0.950 1_565 S
C1476 C1485 1.390 . S
C1477 C1476 1.387 . S
C1477 C1479 1.387 . S
H1478 C1485 0.950 . S
C1479 C1477 1.387 . S
C1479 C1481 1.390 . S
C1479 H1483 0.950 . S
H1480 C1476 0.950 1_545 S
C1481 C1479 1.390 . S
C1481 C1482 1.387 . S
C1481 H1484 0.950 . S
C1482 C1481 1.387 . S
C1482 C1485 1.387 . S
H1483 C1479 0.950 . S
H1484 C1481 0.950 . S
C1485 C1476 1.390 . S
C1485 H1478 0.950 . S
C1485 C1482 1.387 . S
C1486 C1487 1.387 . S
C1486 H1490 0.950 . S
C1486 C1495 1.390 . S
C1487 C1486 1.387 . S
C1487 C1489 1.387 . S
H1488 C1495 0.950 . S
C1489 C1487 1.387 . S
C1489 C1491 1.390 . S
C1489 H1493 0.950 1_554 S
H1490 C1486 0.950 . S
C1491 C1489 1.390 . S
C1491 C1492 1.387 . S
C1491 H1494 0.977 . S
C1492 C1491 1.387 . S
C1492 C1495 1.387 . S
H1493 C1489 0.950 1_556 S
H1494 C1491 0.977 . S
C1495 C1486 1.390 . S
C1495 H1488 0.950 . S
C1495 C1492 1.387 . S
C1496 C1497 1.387 . S
C1496 H1500 0.950 . S
C1496 C1505 1.390 . S
C1497 C1496 1.387 . S
C1497 C1499 1.387 . S
H1498 C1505 0.950 . S
C1499 C1497 1.387 . S
C1499 C1501 1.390 . S
C1499 H1503 0.950 . S
H1500 C1496 0.950 . S
C1501 C1499 1.390 . S
C1501 C1502 1.387 . S
C1501 H1504 0.950 . S
C1502 C1501 1.387 . S
C1502 C1505 1.387 . S
H1503 C1499 0.950 . S
H1504 C1501 0.950 . S
C1505 C1496 1.390 . S
C1505 H1498 0.950 . S
C1505 C1502 1.387 . S
C1506 C1507 1.387 . S
C1506 H1510 0.950 . S
C1506 C1515 1.390 . S
C1507 C1506 1.387 . S
C1507 C1509 1.387 . S
H1508 C1515 0.950 . S
C1509 C1507 1.387 . S
C1509 C1511 1.390 . S
C1509 H1513 0.950 . S
H1510 C1506 0.950 . S
C1511 C1509 1.390 . S
C1511 C1512 1.387 . S
C1511 H1514 0.950 1_554 S
C1512 C1511 1.387 . S
C1512 C1515 1.387 . S
H1513 C1509 0.950 . S
H1514 C1511 0.950 1_556 S
C1515 C1506 1.390 . S
C1515 H1508 0.950 . S
C1515 C1512 1.387 . S
C1516 C1517 1.387 . S
C1516 H1520 0.950 . S
C1516 C1525 1.390 . S
C1517 C1516 1.387 . S
C1517 C1519 1.387 . S
H1518 C1525 0.950 . S
C1519 C1517 1.387 . S
C1519 C1521 1.390 . S
C1519 H1523 0.950 . S
H1520 C1516 0.950 . S
C1521 C1519 1.390 . S
C1521 C1522 1.387 . S
C1521 H1524 0.950 . S
C1522 C1521 1.387 . S
C1522 C1525 1.387 . S
H1523 C1519 0.950 . S
H1524 C1521 0.950 . S
C1525 C1516 1.390 . S
C1525 H1518 0.950 . S
C1525 C1522 1.387 . S
C1526 C1527 1.387 . S
C1526 H1530 0.950 . S
C1526 C1535 1.390 . S
C1527 C1526 1.387 . S
C1527 C1529 1.387 . S
H1528 C1535 0.950 . S
C1529 C1527 1.387 . S
C1529 C1531 1.390 . S
C1529 H1533 0.950 . S
H1530 C1526 0.950 . S
C1531 C1529 1.390 . S
C1531 C1532 1.387 . S
C1531 H1534 0.950 . S
C1532 C1531 1.387 . S
C1532 C1535 1.387 . S
H1533 C1529 0.950 . S
H1534 C1531 0.950 . S
C1535 C1526 1.390 . S
C1535 H1528 0.950 . S
C1535 C1532 1.387 . S
C1536 C1537 1.387 . S
C1536 H1540 0.950 . S
C1536 C1545 1.390 . S
C1537 C1536 1.387 . S
C1537 C1539 1.387 . S
H1538 C1545 0.950 . S
C1539 C1537 1.387 . S
C1539 C1541 1.390 . S
C1539 H1543 0.950 . S
H1540 C1536 0.950 . S
C1541 C1539 1.390 . S
C1541 C1542 1.387 . S
C1541 H1544 0.950 . S
C1542 C1541 1.387 . S
C1542 C1545 1.387 . S
H1543 C1539 0.950 . S
H1544 C1541 0.950 . S
C1545 C1536 1.390 . S
C1545 H1538 0.950 . S
C1545 C1542 1.387 . S
C1546 C1547 1.387 . S
C1546 H1550 0.950 . S
C1546 C1555 1.390 . S
C1547 C1546 1.387 . S
C1547 C1549 1.387 . S
H1548 C1555 0.950 . S
C1549 C1547 1.387 . S
C1549 C1551 1.390 . S
C1549 H1553 0.950 . S
H1550 C1546 0.950 . S
C1551 C1549 1.390 . S
C1551 C1552 1.387 . S
C1551 H1554 0.950 . S
C1552 C1551 1.387 . S
C1552 C1555 1.387 . S
H1553 C1549 0.950 . S
H1554 C1551 0.950 . S
C1555 C1546 1.390 . S
C1555 H1548 0.950 . S
C1555 C1552 1.387 . S
C1556 C1557 1.404 . S
C1556 H1560 0.940 1_456 S
C1556 C1565 1.384 1_556 S
C1557 C1556 1.404 . S
C1557 C1559 1.387 . S
H1558 C1565 0.950 1_655 S
C1559 C1557 1.387 . S
C1559 C1561 1.390 . S
C1559 H1563 0.950 . S
H1560 C1556 0.940 1_654 S
C1561 C1559 1.390 . S
C1561 C1562 1.387 . S
C1561 H1564 0.950 . S
C1562 C1561 1.387 . S
C1562 C1565 1.387 1_556 S
H1563 C1559 0.950 . S
H1564 C1561 0.950 . S
C1565 C1556 1.384 1_554 S
C1565 H1558 0.950 1_455 S
C1565 C1562 1.387 1_554 S
C1566 C1567 1.387 . S
C1566 H1570 0.950 . S
C1566 C1575 1.390 . S
C1567 C1566 1.387 . S
C1567 C1569 1.387 . S
H1568 C1575 0.950 . S
C1569 C1567 1.387 . S
C1569 C1571 1.390 . S
C1569 H1573 0.950 . S
H1570 C1566 0.950 . S
C1571 C1569 1.390 . S
C1571 C1572 1.387 . S
C1571 H1574 0.950 . S
C1572 C1571 1.387 . S
C1572 C1575 1.387 . S
H1573 C1569 0.950 . S
H1574 C1571 0.950 . S
C1575 C1566 1.390 . S
C1575 H1568 0.950 . S
C1575 C1572 1.387 . S
C1576 C1577 1.387 . S
C1576 H1580 0.950 . S
C1576 C1585 1.390 . S
C1577 C1576 1.387 . S
C1577 C1579 1.387 . S
H1578 C1585 0.950 . S
C1579 C1577 1.387 . S
C1579 C1581 1.390 . S
C1579 H1583 0.950 . S
H1580 C1576 0.950 . S
C1581 C1579 1.390 . S
C1581 C1582 1.387 . S
C1581 H1584 0.950 . S
C1582 C1581 1.387 . S
C1582 C1585 1.387 . S
H1583 C1579 0.950 . S
H1584 C1581 0.950 . S
C1585 C1576 1.390 . S
C1585 H1578 0.950 . S
C1585 C1582 1.387 . S
C1586 C1587 1.387 . S
C1586 H1590 0.950 . S
C1586 C1595 1.390 . S
C1587 C1586 1.387 . S
C1587 C1589 1.387 . S
H1588 C1595 0.950 . S
C1589 C1587 1.387 . S
C1589 C1591 1.390 . S
C1589 H1593 0.950 . S
H1590 C1586 0.950 . S
C1591 C1589 1.390 . S
C1591 C1592 1.387 . S
C1591 H1594 0.950 . S
C1592 C1591 1.387 . S
C1592 C1595 1.387 . S
H1593 C1589 0.950 . S
H1594 C1591 0.950 . S
C1595 C1586 1.390 . S
C1595 H1588 0.950 . S
C1595 C1592 1.387 . S
C1596 C1597 1.387 . S
C1596 H1600 0.950 . S
C1596 C1605 1.390 . S
C1597 C1596 1.387 . S
C1597 C1599 1.387 1_655 S
H1598 C1605 0.950 . S
C1599 C1597 1.387 1_455 S
C1599 C1601 1.390 . S
C1599 H1603 0.950 . S
H1600 C1596 0.950 . S
C1601 C1599 1.390 . S
C1601 C1602 1.387 . S
C1601 H1604 0.950 . S
C1602 C1601 1.387 . S
C1602 C1605 1.387 1_455 S
H1603 C1599 0.950 . S
H1604 C1601 0.950 . S
C1605 C1596 1.390 . S
C1605 H1598 0.950 . S
C1605 C1602 1.387 1_655 S
C1606 C1607 1.387 . S
C1606 H1610 0.950 . S
C1606 C1615 1.390 . S
C1607 C1606 1.387 . S
C1607 C1609 1.387 . S
H1608 C1615 0.950 . S
C1609 C1607 1.387 . S
C1609 C1611 1.390 . S
C1609 H1613 0.950 . S
H1610 C1606 0.950 . S
C1611 C1609 1.390 . S
C1611 C1612 1.387 . S
C1611 H1614 0.950 . S
C1612 C1611 1.387 . S
C1612 C1615 1.387 . S
H1613 C1609 0.950 . S
H1614 C1611 0.950 . S
C1615 C1606 1.390 . S
C1615 H1608 0.950 . S
C1615 C1612 1.387 . S
C1616 C1617 1.387 . S
C1616 H1620 0.950 . S
C1616 C1625 1.390 . S
C1617 C1616 1.387 . S
C1617 C1619 1.387 . S
H1618 C1625 0.950 . S
C1619 C1617 1.387 . S
C1619 C1621 1.390 . S
C1619 H1623 0.950 . S
H1620 C1616 0.950 . S
C1621 C1619 1.390 . S
C1621 C1622 1.387 . S
C1621 H1624 0.950 . S
C1622 C1621 1.387 . S
C1622 C1625 1.387 . S
H1623 C1619 0.950 . S
H1624 C1621 0.950 . S
C1625 C1616 1.390 . S
C1625 H1618 0.950 . S
C1625 C1622 1.387 . S
C1626 C1627 1.387 . S
C1626 H1630 0.950 . S
C1626 C1635 1.390 . S
C1627 C1626 1.387 . S
C1627 C1629 1.387 . S
H1628 C1635 0.950 . S
C1629 C1627 1.387 . S
C1629 C1631 1.390 . S
C1629 H1633 0.950 . S
H1630 C1626 0.950 . S
C1631 C1629 1.390 . S
C1631 C1632 1.387 . S
C1631 H1634 0.950 . S
C1632 C1631 1.387 . S
C1632 C1635 1.387 . S
H1633 C1629 0.950 . S
H1634 C1631 0.950 . S
C1635 C1626 1.390 . S
C1635 H1628 0.950 . S
C1635 C1632 1.387 . S
C1636 C1637 1.387 . S
C1636 H1640 0.950 . S
C1636 C1645 1.390 . S
C1637 C1636 1.387 . S
C1637 C1639 1.387 . S
H1638 C1645 0.950 . S
C1639 C1637 1.387 . S
C1639 C1641 1.390 . S
C1639 H1643 0.950 . S
H1640 C1636 0.950 . S
C1641 C1639 1.390 . S
C1641 C1642 1.387 . S
C1641 H1644 0.950 . S
C1642 C1641 1.387 . S
C1642 C1645 1.387 . S
H1643 C1639 0.950 . S
H1644 C1641 0.950 . S
C1645 C1636 1.390 . S
C1645 H1638 0.950 . S
C1645 C1642 1.387 . S
C1646 C1647 1.387 . S
C1646 H1650 0.950 . S
C1646 C1655 1.390 . S
C1647 C1646 1.387 . S
C1647 C1649 1.387 . S
H1648 C1655 0.950 . S
C1649 C1647 1.387 . S
C1649 C1651 1.390 . S
C1649 H1653 0.950 . S
H1650 C1646 0.950 . S
C1651 C1649 1.390 . S
C1651 C1652 1.387 . S
C1651 H1654 0.950 . S
C1652 C1651 1.387 . S
C1652 C1655 1.387 . S
H1653 C1649 0.950 . S
H1654 C1651 0.950 . S
C1655 C1646 1.390 . S
C1655 H1648 0.950 . S
C1655 C1652 1.387 . S
C1656 C1657 1.387 . S
C1656 H1660 0.950 . S
C1656 C1665 1.390 . S
C1657 C1656 1.387 . S
C1657 C1659 1.387 . S
H1658 C1665 0.950 . S
C1659 C1657 1.387 . S
C1659 C1661 1.390 . S
C1659 H1663 0.950 . S
H1660 C1656 0.950 . S
C1661 C1659 1.390 . S
C1661 C1662 1.387 . S
C1661 H1664 0.950 . S
C1662 C1661 1.387 . S
C1662 C1665 1.387 . S
H1663 C1659 0.950 . S
H1664 C1661 0.950 . S
C1665 C1656 1.390 . S
C1665 H1658 0.950 . S
C1665 C1662 1.387 . S
C1666 C1667 1.387 . S
C1666 H1670 0.950 . S
C1666 C1675 1.390 . S
C1667 C1666 1.387 . S
C1667 C1669 1.387 . S
H1668 C1675 0.950 . S
C1669 C1667 1.387 . S
C1669 C1671 1.390 . S
C1669 H1673 0.950 . S
H1670 C1666 0.950 . S
C1671 C1669 1.390 . S
C1671 C1672 1.387 . S
C1671 H1674 0.950 . S
C1672 C1671 1.387 . S
C1672 C1675 1.387 . S
H1673 C1669 0.950 . S
H1674 C1671 0.950 . S
C1675 C1666 1.390 . S
C1675 H1668 0.950 . S
C1675 C1672 1.387 . S
C1676 C1677 1.387 . S
C1676 H1680 0.950 . S
C1676 C1685 1.390 . S
C1677 C1676 1.387 . S
C1677 C1679 1.387 . S
H1678 C1685 0.950 . S
C1679 C1677 1.387 . S
C1679 C1681 1.390 . S
C1679 H1683 0.950 . S
H1680 C1676 0.950 . S
C1681 C1679 1.390 . S
C1681 C1682 1.387 . S
C1681 H1684 0.950 . S
C1682 C1681 1.387 . S
C1682 C1685 1.387 . S
H1683 C1679 0.950 . S
H1684 C1681 0.950 . S
C1685 C1676 1.390 . S
C1685 H1678 0.950 . S
C1685 C1682 1.387 . S
C1686 C1687 1.387 . S
C1686 H1690 0.950 . S
C1686 C1695 1.390 . S
C1687 C1686 1.387 . S
C1687 C1689 1.387 . S
H1688 C1695 0.950 . S
C1689 C1687 1.387 . S
C1689 C1691 1.390 . S
C1689 H1693 0.950 . S
H1690 C1686 0.950 . S
C1691 C1689 1.390 . S
C1691 C1692 1.387 . S
C1691 H1694 0.950 . S
C1692 C1691 1.387 . S
C1692 C1695 1.387 . S
H1693 C1689 0.950 . S
H1694 C1691 0.950 . S
C1695 C1686 1.390 . S
C1695 H1688 0.950 . S
C1695 C1692 1.387 . S
C1696 C1697 1.387 . S
C1696 H1700 0.950 . S
C1696 C1705 1.390 . S
C1697 C1696 1.387 . S
C1697 C1699 1.387 . S
H1698 C1705 0.950 . S
C1699 C1697 1.387 . S
C1699 C1701 1.390 . S
C1699 H1703 0.950 . S
H1700 C1696 0.950 . S
C1701 C1699 1.390 . S
C1701 C1702 1.387 . S
C1701 H1704 0.950 . S
C1702 C1701 1.387 . S
C1702 C1705 1.387 . S
H1703 C1699 0.950 . S
H1704 C1701 0.950 . S
C1705 C1696 1.390 . S
C1705 H1698 0.950 . S
C1705 C1702 1.387 . S
C1706 C1707 1.387 . S
C1706 H1710 0.950 . S
C1706 C1715 1.390 . S
C1707 C1706 1.387 . S
C1707 C1709 1.387 . S
H1708 C1715 0.950 . S
C1709 C1707 1.387 . S
C1709 C1711 1.390 . S
C1709 H1713 0.950 . S
H1710 C1706 0.950 . S
C1711 C1709 1.390 . S
C1711 C1712 1.387 . S
C1711 H1714 0.950 . S
C1712 C1711 1.387 . S
C1712 C1715 1.387 . S
H1713 C1709 0.950 . S
H1714 C1711 0.950 . S
C1715 C1706 1.390 . S
C1715 H1708 0.950 . S
C1715 C1712 1.387 . S
C1716 C1717 1.387 . S
C1716 H1720 0.950 . S
C1716 C1725 1.390 . S
C1717 C1716 1.387 . S
C1717 C1719 1.387 . S
H1718 C1725 0.950 . S
C1719 C1717 1.387 . S
C1719 C1721 1.390 . S
C1719 H1723 0.950 . S
H1720 C1716 0.950 . S
C1721 C1719 1.390 . S
C1721 C1722 1.387 . S
C1721 H1724 0.950 . S
C1722 C1721 1.387 . S
C1722 C1725 1.387 . S
H1723 C1719 0.950 . S
H1724 C1721 0.950 . S
C1725 C1716 1.390 . S
C1725 H1718 0.950 . S
C1725 C1722 1.387 . S
C1726 C1727 1.387 1_556 S
C1726 H1730 0.950 . S
C1726 C1735 1.390 . S
C1727 C1726 1.387 1_554 S
C1727 C1729 1.387 . S
H1728 C1735 0.950 . S
C1729 C1727 1.387 . S
C1729 C1731 1.390 . S
C1729 H1733 0.950 . S
H1730 C1726 0.950 . S
C1731 C1729 1.390 . S
C1731 C1732 1.387 . S
C1731 H1734 0.950 . S
C1732 C1731 1.387 . S
C1732 C1735 1.387 1_554 S
H1733 C1729 0.950 . S
H1734 C1731 0.950 . S
C1735 C1726 1.390 . S
C1735 H1728 0.950 . S
C1735 C1732 1.387 1_556 S
C1736 C1737 1.387 . S
C1736 H1740 0.950 . S
C1736 C1745 1.390 . S
C1737 C1736 1.387 . S
C1737 C1739 1.387 . S
H1738 C1745 0.950 . S
C1739 C1737 1.387 . S
C1739 C1741 1.390 . S
C1739 H1743 0.950 . S
H1740 C1736 0.950 . S
C1741 C1739 1.390 . S
C1741 C1742 1.387 . S
C1741 H1744 0.950 . S
C1742 C1741 1.387 . S
C1742 C1745 1.387 . S
H1743 C1739 0.950 . S
H1744 C1741 0.950 . S
C1745 C1736 1.390 . S
C1745 H1738 0.950 . S
C1745 C1742 1.387 . S
C1746 C1747 1.387 . S
C1746 H1750 0.950 . S
C1746 C1755 1.390 . S
C1747 C1746 1.387 . S
C1747 C1749 1.387 . S
H1748 C1755 0.950 . S
C1749 C1747 1.387 . S
C1749 C1751 1.390 . S
C1749 H1753 0.950 1_554 S
H1750 C1746 0.950 . S
C1751 C1749 1.390 . S
C1751 C1752 1.387 . S
C1751 H1754 0.950 . S
C1752 C1751 1.387 . S
C1752 C1755 1.387 . S
H1753 C1749 0.950 1_556 S
H1754 C1751 0.950 . S
C1755 C1746 1.390 . S
C1755 H1748 0.950 . S
C1755 C1752 1.387 . S
C1756 C1757 1.387 . S
C1756 H1760 0.950 . S
C1756 C1765 1.390 . S
C1757 C1756 1.387 . S
C1757 C1759 1.387 . S
H1758 C1765 0.950 . S
C1759 C1757 1.387 . S
C1759 C1761 1.390 . S
C1759 H1763 0.950 . S
H1760 C1756 0.950 . S
C1761 C1759 1.390 . S
C1761 C1762 1.387 . S
C1761 H1764 0.950 . S
C1762 C1761 1.387 . S
C1762 C1765 1.387 . S
H1763 C1759 0.950 . S
H1764 C1761 0.950 . S
C1765 C1756 1.390 . S
C1765 H1758 0.950 . S
C1765 C1762 1.387 . S
C1766 C1767 1.387 . S
C1766 H1770 0.950 . S
C1766 C1775 1.390 . S
C1767 C1766 1.387 . S
C1767 C1769 1.387 . S
H1768 C1775 0.950 . S
C1769 C1767 1.387 . S
C1769 C1771 1.390 . S
C1769 H1773 0.950 . S
H1770 C1766 0.950 . S
C1771 C1769 1.390 . S
C1771 C1772 1.387 . S
C1771 H1774 0.950 . S
C1772 C1771 1.387 . S
C1772 C1775 1.387 . S
H1773 C1769 0.950 . S
H1774 C1771 0.950 . S
C1775 C1766 1.390 . S
C1775 H1768 0.950 . S
C1775 C1772 1.387 . S
C822 C337 1.835 . S
C817 C4 1.794 . S
C827 C19 0.889 . S
C832 C382 0.982 . S
C837 C39 1.678 . S
C842 C406 1.643 . S
C852 N432 1.183 . S
C847 C54 1.166 . S
C857 C18 1.151 . S
C862 N462 1.264 . S
C872 C496 1.621 . S
C867 C40 1.657 . S
C882 C532 1.128 1_556 S
C877 C53 1.107 . S
C887 C5 1.430 . S
C892 C556 1.762 . S
C897 C61 0.852 1_545 S
C902 N350 0.991 . S
C907 C74 1.192 . S
C912 N372 1.311 . S
C922 C412 0.933 . S
C917 C89 0.846 . S
C932 C436 1.776 . S
C927 C109 1.817 . S
C937 C68 1.190 . S
C942 C466 1.145 . S
C952 C502 1.174 . S
C947 C81 1.143 . S
C962 N522 1.198 . S
C957 C96 1.181 . S
C972 C562 1.864 . S
C967 C102 1.822 . S
C982 C363 1.691 . S
C977 C103 1.354 . S
C992 C592 1.028 . S
C987 C117 0.923 . S
C997 C130 1.159 . S
C1002 N612 1.277 . S
C1012 C646 1.618 . S
C1007 C152 1.652 . S
C1017 C60 1.051 . S
C1022 N552 1.070 . S
C1032 N402 1.174 . S
C1027 C82 1.157 . S
C1037 C137 1.011 . S
C1042 C682 1.017 . S
C1052 C706 1.065 . S
C1047 C165 1.121 . S
C1057 C172 1.879 . S
C1062 C346 1.853 1_556 S
C1072 C723 1.021 . S
C1067 C194 1.031 . S
C1077 C207 1.664 . S
C1082 C397 1.654 . S
C1087 C215 1.103 . S
C1092 N680 1.165 . S
C1102 N470 1.307 . S
C1097 C186 1.312 1_455 S
C1112 C607 1.620 . S
C1107 C201 1.470 . S
C1122 C543 1.138 . S
C1117 C221 1.139 . S
C1132 C727 1.786 . S
C1127 C180 1.826 . S
C1142 N342 1.034 . S
C1137 C236 1.028 . S
C1147 C242 1.343 . S
C1152 N710 1.335 . S
C1162 C423 1.036 . S
C1157 C264 1.048 . S
C1167 C277 1.837 . S
C1172 C667 1.826 . S
C1177 C229 1.037 . S
C1182 C457 1.075 1_655 S
C1187 C249 1.157 . S
C1192 C633 1.155 . S
C1202 N530 1.193 . S
C1197 C257 1.127 1_545 S
C1207 C270 1.892 . S
C1212 C753 1.866 . S
C1217 C278 1.718 . S
C1222 C352 1.711 . S
C1227 C292 1.075 . S
C1232 C603 1.064 . S
C1237 C298 1.369 . S
C1242 N500 1.360 . S
C1247 C313 1.504 . S
C1252 C637 1.655 . S
C1262 N740 1.076 . S
C1257 C228 1.071 1_565 S
C1272 N410 1.122 . S
C1267 C243 1.069 . S
C1282 C453 1.043 . S
C1277 C305 1.044 . S
C1292 C367 1.004 . S
C1287 C333 1.004 . S
C1297 C32 1.794 . S
C1302 C757 1.835 . S
C1312 C712 0.982 . S
C1307 C47 0.886 . S
C1322 C796 1.642 . S
C1317 C11 1.679 . S
C1327 C26 1.166 1_655 S
C1332 N672 1.183 . S
C1337 C46 1.149 . S
C1342 N582 1.264 . S
C1352 C616 1.620 . S
C1347 C12 1.657 . S
C1362 C652 1.127 . S
C1357 C25 1.110 . S
C1372 C736 1.762 . S
C1367 C33 1.431 . S
C1382 N770 0.990 . S
C1377 C159 0.855 . S
C1387 C116 1.192 1_556 S
C1392 N702 1.311 . S
C1397 C131 0.841 . S
C1402 C802 0.932 1_655 S
C1412 C676 1.774 . S
C1407 C151 1.817 . S
C1422 C586 1.145 . S
C1417 C166 1.189 . S
C1427 C123 1.144 . S
C1432 C622 1.175 . S
C1442 N642 1.198 . S
C1437 C138 1.181 . S
C1447 C144 1.824 . S
C1452 C742 1.866 . S
C1462 C783 1.689 . S
C1457 C145 1.349 . S
C1472 C472 1.028 . S
C1467 C75 0.923 . S
C1482 N492 1.278 . S
C1477 C88 1.163 1_565 S
C1487 C110 1.652 . S
C1492 C526 1.617 . S
C1502 N732 1.070 . S
C1497 C158 1.050 . S
C1507 C124 1.159 . S
C1512 N792 1.175 . S
C1522 C442 1.017 . S
C1517 C95 1.011 . S
C1532 C376 1.066 . S
C1527 C67 1.121 . S
C1537 C200 1.879 . S
C1542 C766 1.853 . S
C1552 C393 1.023 . S
C1547 C222 1.030 . S
C1562 C787 1.656 1_556 S
C1557 C179 1.665 . S
C1567 C187 1.105 . S
C1572 N440 1.163 . S
C1577 C214 1.313 . S
C1582 N590 1.305 . S
C1587 C173 1.471 . S
C1592 C487 1.620 . S
C1597 C193 1.138 . S
C1602 C663 1.136 . S
C1607 C208 1.825 . S
C1612 C547 1.785 . S
C1622 N762 1.034 . S
C1617 C334 1.027 . S
C1627 C284 1.343 . S
C1632 N380 1.332 . S
C1642 C813 1.034 . S
C1637 C306 1.047 . S
C1647 C319 1.835 . S
C1652 C427 1.824 . S
C1657 C327 1.031 . S
C1662 C577 1.078 . S
C1672 C513 1.155 . S
C1667 C291 1.160 . S
C1677 C299 1.130 . S
C1682 N650 1.193 . S
C1692 C573 1.865 . S
C1687 C312 1.892 . S
C1702 C772 1.700 . S
C1697 C320 1.718 . S
C1712 C483 1.064 . S
C1707 C250 1.073 . S
C1717 C256 1.368 . S
C1722 N620 1.360 . S
C1732 C517 1.655 1_565 S
C1727 C271 1.504 . S
C1742 N560 1.078 . S
C1737 C326 1.071 . S
C1747 C285 1.069 1_554 S
C1752 N800 1.120 . S
C1762 C693 1.043 . S
C1757 C263 1.044 . S
C1772 C697 1.008 . S
C1767 C235 1.008 . S
