# Generated by pormake.
# Topology gar, (4,6)-cn, num edge types: 1
# Building blocks:
#     Node 0, Type 0, BuildingBlock: AZAVOO_clean_sbu_0, # of connection points: 4
#     Node 1, Type 0, BuildingBlock: AZAVOO_clean_sbu_0, # of connection points: 4
#     Node 2, Type 0, BuildingBlock: AZAVOO_clean_sbu_0, # of connection points: 4
#     Node 3, Type 0, BuildingBlock: AZAVOO_clean_sbu_0, # of connection points: 4
#     Node 4, Type 0, BuildingBlock: AZAVOO_clean_sbu_0, # of connection points: 4
#     Node 5, Type 0, BuildingBlock: AZAVOO_clean_sbu_0, # of connection points: 4
#     Node 6, Type 0, BuildingBlock: AZAVOO_clean_sbu_0, # of connection points: 4
#     Node 7, Type 0, BuildingBlock: AZAVOO_clean_sbu_0, # of connection points: 4
#     Node 8, Type 0, BuildingBlock: AZAVOO_clean_sbu_0, # of connection points: 4
#     Node 9, Type 0, BuildingBlock: AZAVOO_clean_sbu_0, # of connection points: 4
#     Node 10, Type 0, BuildingBlock: AZAVOO_clean_sbu_0, # of connection points: 4
#     Node 11, Type 0, BuildingBlock: AZAVOO_clean_sbu_0, # of connection points: 4
#     Node 12, Type 0, BuildingBlock: AZAVOO_clean_sbu_0, # of connection points: 4
#     Node 13, Type 0, BuildingBlock: AZAVOO_clean_sbu_0, # of connection points: 4
#     Node 14, Type 0, BuildingBlock: AZAVOO_clean_sbu_0, # of connection points: 4
#     Node 15, Type 0, BuildingBlock: AZAVOO_clean_sbu_0, # of connection points: 4
#     Node 16, Type 0, BuildingBlock: AZAVOO_clean_sbu_0, # of connection points: 4
#     Node 17, Type 0, BuildingBlock: AZAVOO_clean_sbu_0, # of connection points: 4
#     Node 18, Type 0, BuildingBlock: AZAVOO_clean_sbu_0, # of connection points: 4
#     Node 19, Type 0, BuildingBlock: AZAVOO_clean_sbu_0, # of connection points: 4
#     Node 20, Type 0, BuildingBlock: AZAVOO_clean_sbu_0, # of connection points: 4
#     Node 21, Type 0, BuildingBlock: AZAVOO_clean_sbu_0, # of connection points: 4
#     Node 22, Type 0, BuildingBlock: AZAVOO_clean_sbu_0, # of connection points: 4
#     Node 23, Type 0, BuildingBlock: AZAVOO_clean_sbu_0, # of connection points: 4
#     Node 24, Type 1, BuildingBlock: PAMTOO_clean_sbu_0, # of connection points: 6
#     Node 25, Type 1, BuildingBlock: PAMTOO_clean_sbu_0, # of connection points: 6
#     Node 26, Type 1, BuildingBlock: PAMTOO_clean_sbu_0, # of connection points: 6
#     Node 27, Type 1, BuildingBlock: PAMTOO_clean_sbu_0, # of connection points: 6
#     Node 28, Type 1, BuildingBlock: PAMTOO_clean_sbu_0, # of connection points: 6
#     Node 29, Type 1, BuildingBlock: PAMTOO_clean_sbu_0, # of connection points: 6
#     Node 30, Type 1, BuildingBlock: PAMTOO_clean_sbu_0, # of connection points: 6
#     Node 31, Type 1, BuildingBlock: PAMTOO_clean_sbu_0, # of connection points: 6
#     Node 32, Type 1, BuildingBlock: PAMTOO_clean_sbu_0, # of connection points: 6
#     Node 33, Type 1, BuildingBlock: PAMTOO_clean_sbu_0, # of connection points: 6
#     Node 34, Type 1, BuildingBlock: PAMTOO_clean_sbu_0, # of connection points: 6
#     Node 35, Type 1, BuildingBlock: PAMTOO_clean_sbu_0, # of connection points: 6
#     Node 36, Type 1, BuildingBlock: PAMTOO_clean_sbu_0, # of connection points: 6
#     Node 37, Type 1, BuildingBlock: PAMTOO_clean_sbu_0, # of connection points: 6
#     Node 38, Type 1, BuildingBlock: PAMTOO_clean_sbu_0, # of connection points: 6
#     Node 39, Type 1, BuildingBlock: PAMTOO_clean_sbu_0, # of connection points: 6
#     Edge 40, Type (0, 1), BuildingBlock: TEMPAE_clean_linker_10, # of connection points: 2
#     Edge 41, Type (0, 1), BuildingBlock: TEMPAE_clean_linker_10, # of connection points: 2
#     Edge 42, Type (0, 1), BuildingBlock: TEMPAE_clean_linker_10, # of connection points: 2
#     Edge 43, Type (0, 1), BuildingBlock: TEMPAE_clean_linker_10, # of connection points: 2
#     Edge 44, Type (0, 1), BuildingBlock: TEMPAE_clean_linker_10, # of connection points: 2
#     Edge 45, Type (0, 1), BuildingBlock: TEMPAE_clean_linker_10, # of connection points: 2
#     Edge 46, Type (0, 1), BuildingBlock: TEMPAE_clean_linker_10, # of connection points: 2
#     Edge 47, Type (0, 1), BuildingBlock: TEMPAE_clean_linker_10, # of connection points: 2
#     Edge 48, Type (0, 1), BuildingBlock: TEMPAE_clean_linker_10, # of connection points: 2
#     Edge 49, Type (0, 1), BuildingBlock: TEMPAE_clean_linker_10, # of connection points: 2
#     Edge 50, Type (0, 1), BuildingBlock: TEMPAE_clean_linker_10, # of connection points: 2
#     Edge 51, Type (0, 1), BuildingBlock: TEMPAE_clean_linker_10, # of connection points: 2
#     Edge 52, Type (0, 1), BuildingBlock: TEMPAE_clean_linker_10, # of connection points: 2
#     Edge 53, Type (0, 1), BuildingBlock: TEMPAE_clean_linker_10, # of connection points: 2
#     Edge 54, Type (0, 1), BuildingBlock: TEMPAE_clean_linker_10, # of connection points: 2
#     Edge 55, Type (0, 1), BuildingBlock: TEMPAE_clean_linker_10, # of connection points: 2
#     Edge 56, Type (0, 1), BuildingBlock: TEMPAE_clean_linker_10, # of connection points: 2
#     Edge 57, Type (0, 1), BuildingBlock: TEMPAE_clean_linker_10, # of connection points: 2
#     Edge 58, Type (0, 1), BuildingBlock: TEMPAE_clean_linker_10, # of connection points: 2
#     Edge 59, Type (0, 1), BuildingBlock: TEMPAE_clean_linker_10, # of connection points: 2
#     Edge 60, Type (0, 1), BuildingBlock: TEMPAE_clean_linker_10, # of connection points: 2
#     Edge 61, Type (0, 1), BuildingBlock: TEMPAE_clean_linker_10, # of connection points: 2
#     Edge 62, Type (0, 1), BuildingBlock: TEMPAE_clean_linker_10, # of connection points: 2
#     Edge 63, Type (0, 1), BuildingBlock: TEMPAE_clean_linker_10, # of connection points: 2
#     Edge 64, Type (0, 1), BuildingBlock: TEMPAE_clean_linker_10, # of connection points: 2
#     Edge 65, Type (0, 1), BuildingBlock: TEMPAE_clean_linker_10, # of connection points: 2
#     Edge 66, Type (0, 1), BuildingBlock: TEMPAE_clean_linker_10, # of connection points: 2
#     Edge 67, Type (0, 1), BuildingBlock: TEMPAE_clean_linker_10, # of connection points: 2
#     Edge 68, Type (0, 1), BuildingBlock: TEMPAE_clean_linker_10, # of connection points: 2
#     Edge 69, Type (0, 1), BuildingBlock: TEMPAE_clean_linker_10, # of connection points: 2
#     Edge 70, Type (0, 1), BuildingBlock: TEMPAE_clean_linker_10, # of connection points: 2
#     Edge 71, Type (0, 1), BuildingBlock: TEMPAE_clean_linker_10, # of connection points: 2
#     Edge 72, Type (0, 1), BuildingBlock: TEMPAE_clean_linker_10, # of connection points: 2
#     Edge 73, Type (0, 1), BuildingBlock: TEMPAE_clean_linker_10, # of connection points: 2
#     Edge 74, Type (0, 1), BuildingBlock: TEMPAE_clean_linker_10, # of connection points: 2
#     Edge 75, Type (0, 1), BuildingBlock: TEMPAE_clean_linker_10, # of connection points: 2
#     Edge 76, Type (0, 1), BuildingBlock: TEMPAE_clean_linker_10, # of connection points: 2
#     Edge 77, Type (0, 1), BuildingBlock: TEMPAE_clean_linker_10, # of connection points: 2
#     Edge 78, Type (0, 1), BuildingBlock: TEMPAE_clean_linker_10, # of connection points: 2
#     Edge 79, Type (0, 1), BuildingBlock: TEMPAE_clean_linker_10, # of connection points: 2
#     Edge 80, Type (0, 1), BuildingBlock: TEMPAE_clean_linker_10, # of connection points: 2
#     Edge 81, Type (0, 1), BuildingBlock: TEMPAE_clean_linker_10, # of connection points: 2
#     Edge 82, Type (0, 1), BuildingBlock: TEMPAE_clean_linker_10, # of connection points: 2
#     Edge 83, Type (0, 1), BuildingBlock: TEMPAE_clean_linker_10, # of connection points: 2
#     Edge 84, Type (0, 1), BuildingBlock: TEMPAE_clean_linker_10, # of connection points: 2
#     Edge 85, Type (0, 1), BuildingBlock: TEMPAE_clean_linker_10, # of connection points: 2
#     Edge 86, Type (0, 1), BuildingBlock: TEMPAE_clean_linker_10, # of connection points: 2
#     Edge 87, Type (0, 1), BuildingBlock: TEMPAE_clean_linker_10, # of connection points: 2
#     Edge 88, Type (0, 1), BuildingBlock: TEMPAE_clean_linker_10, # of connection points: 2
#     Edge 89, Type (0, 1), BuildingBlock: TEMPAE_clean_linker_10, # of connection points: 2
#     Edge 90, Type (0, 1), BuildingBlock: TEMPAE_clean_linker_10, # of connection points: 2
#     Edge 91, Type (0, 1), BuildingBlock: TEMPAE_clean_linker_10, # of connection points: 2
#     Edge 92, Type (0, 1), BuildingBlock: TEMPAE_clean_linker_10, # of connection points: 2
#     Edge 93, Type (0, 1), BuildingBlock: TEMPAE_clean_linker_10, # of connection points: 2
#     Edge 94, Type (0, 1), BuildingBlock: TEMPAE_clean_linker_10, # of connection points: 2
#     Edge 95, Type (0, 1), BuildingBlock: TEMPAE_clean_linker_10, # of connection points: 2
#     Edge 96, Type (0, 1), BuildingBlock: TEMPAE_clean_linker_10, # of connection points: 2
#     Edge 97, Type (0, 1), BuildingBlock: TEMPAE_clean_linker_10, # of connection points: 2
#     Edge 98, Type (0, 1), BuildingBlock: TEMPAE_clean_linker_10, # of connection points: 2
#     Edge 99, Type (0, 1), BuildingBlock: TEMPAE_clean_linker_10, # of connection points: 2
#     Edge 100, Type (0, 1), BuildingBlock: TEMPAE_clean_linker_10, # of connection points: 2
#     Edge 101, Type (0, 1), BuildingBlock: TEMPAE_clean_linker_10, # of connection points: 2
#     Edge 102, Type (0, 1), BuildingBlock: TEMPAE_clean_linker_10, # of connection points: 2
#     Edge 103, Type (0, 1), BuildingBlock: TEMPAE_clean_linker_10, # of connection points: 2
#     Edge 104, Type (0, 1), BuildingBlock: TEMPAE_clean_linker_10, # of connection points: 2
#     Edge 105, Type (0, 1), BuildingBlock: TEMPAE_clean_linker_10, # of connection points: 2
#     Edge 106, Type (0, 1), BuildingBlock: TEMPAE_clean_linker_10, # of connection points: 2
#     Edge 107, Type (0, 1), BuildingBlock: TEMPAE_clean_linker_10, # of connection points: 2
#     Edge 108, Type (0, 1), BuildingBlock: TEMPAE_clean_linker_10, # of connection points: 2
#     Edge 109, Type (0, 1), BuildingBlock: TEMPAE_clean_linker_10, # of connection points: 2
#     Edge 110, Type (0, 1), BuildingBlock: TEMPAE_clean_linker_10, # of connection points: 2
#     Edge 111, Type (0, 1), BuildingBlock: TEMPAE_clean_linker_10, # of connection points: 2
#     Edge 112, Type (0, 1), BuildingBlock: TEMPAE_clean_linker_10, # of connection points: 2
#     Edge 113, Type (0, 1), BuildingBlock: TEMPAE_clean_linker_10, # of connection points: 2
#     Edge 114, Type (0, 1), BuildingBlock: TEMPAE_clean_linker_10, # of connection points: 2
#     Edge 115, Type (0, 1), BuildingBlock: TEMPAE_clean_linker_10, # of connection points: 2
#     Edge 116, Type (0, 1), BuildingBlock: TEMPAE_clean_linker_10, # of connection points: 2
#     Edge 117, Type (0, 1), BuildingBlock: TEMPAE_clean_linker_10, # of connection points: 2
#     Edge 118, Type (0, 1), BuildingBlock: TEMPAE_clean_linker_10, # of connection points: 2
#     Edge 119, Type (0, 1), BuildingBlock: TEMPAE_clean_linker_10, # of connection points: 2
#     Edge 120, Type (0, 1), BuildingBlock: TEMPAE_clean_linker_10, # of connection points: 2
#     Edge 121, Type (0, 1), BuildingBlock: TEMPAE_clean_linker_10, # of connection points: 2
#     Edge 122, Type (0, 1), BuildingBlock: TEMPAE_clean_linker_10, # of connection points: 2
#     Edge 123, Type (0, 1), BuildingBlock: TEMPAE_clean_linker_10, # of connection points: 2
#     Edge 124, Type (0, 1), BuildingBlock: TEMPAE_clean_linker_10, # of connection points: 2
#     Edge 125, Type (0, 1), BuildingBlock: TEMPAE_clean_linker_10, # of connection points: 2
#     Edge 126, Type (0, 1), BuildingBlock: TEMPAE_clean_linker_10, # of connection points: 2
#     Edge 127, Type (0, 1), BuildingBlock: TEMPAE_clean_linker_10, # of connection points: 2
#     Edge 128, Type (0, 1), BuildingBlock: TEMPAE_clean_linker_10, # of connection points: 2
#     Edge 129, Type (0, 1), BuildingBlock: TEMPAE_clean_linker_10, # of connection points: 2
#     Edge 130, Type (0, 1), BuildingBlock: TEMPAE_clean_linker_10, # of connection points: 2
#     Edge 131, Type (0, 1), BuildingBlock: TEMPAE_clean_linker_10, # of connection points: 2
#     Edge 132, Type (0, 1), BuildingBlock: TEMPAE_clean_linker_10, # of connection points: 2
#     Edge 133, Type (0, 1), BuildingBlock: TEMPAE_clean_linker_10, # of connection points: 2
#     Edge 134, Type (0, 1), BuildingBlock: TEMPAE_clean_linker_10, # of connection points: 2
#     Edge 135, Type (0, 1), BuildingBlock: TEMPAE_clean_linker_10, # of connection points: 2
# Relax obj value: 0.175
# Max RMSD: 0.273
# Mean RMSD: 0.197
data_MOF--net-gar--node1-AZAVOO_clean_sbu_0--node2-PAMTOO_clean_sbu_0--edge1-TEMPAE_clean_linker_10
_symmetry_space_group_name_H-M    P1
_symmetry_Int_Tables_number       1
_symmetry_cell_setting            triclinic
loop_
_symmetry_equiv_pos_as_xyz
'x, y, z'
_cell_length_a     61.813178
_cell_length_b     59.898633
_cell_length_c     58.753176
_cell_angle_alpha  99.366695
_cell_angle_beta   95.729486
_cell_angle_gamma 105.65515
loop_
_atom_site_label
_atom_site_type_symbol
_atom_site_fract_x
_atom_site_fract_y
_atom_site_fract_z
_atom_type_partial_charge
Mg0 Mg 0.0331 0.30505 0.34262 0.0
O1 O 0.03731 0.33982 0.37181 0.0
O2 O 0.00465 0.33146 0.3866 0.0
Mg3 Mg 0.97944 0.29595 0.36956 0.0
C4 C 0.02426 0.34539 0.38623 0.0
C5 C 0.07847 0.30228 0.31915 0.0
O6 O 0.06181 0.2887 0.30296 0.0
O7 O 0.03704 0.28255 0.37112 0.0
O8 O 0.00371 0.27754 0.3846 0.0
O9 O 0.01244 0.31793 0.31422 0.0
O10 O 0.9969 0.29862 0.33948 0.0
C11 C 0.02309 0.27387 0.38442 0.0
C12 C 0.99421 0.30894 0.32255 0.0
O13 O 0.07302 0.31273 0.33772 0.0
Mg14 Mg 0.01166 0.76117 0.70497 0.0
O15 O 0.00537 0.72428 0.68015 0.0
O16 O 0.97484 0.71908 0.65395 0.0
Mg17 Mg 0.9575 0.74847 0.66407 0.0
C18 C 0.99159 0.71232 0.66173 0.0
C19 C 0.06039 0.75984 0.73446 0.0
O20 O 0.04794 0.75471 0.75082 0.0
O21 O 0.02075 0.78179 0.67499 0.0
O22 O 0.98645 0.77719 0.65501 0.0
O23 O 0.98724 0.74963 0.7324 0.0
O24 O 0.97535 0.75807 0.70014 0.0
C25 C 0.00792 0.78689 0.65932 0.0
C26 C 0.97053 0.75268 0.71954 0.0
O27 O 0.05073 0.76305 0.71543 0.0
Mg28 Mg 0.5327 0.80481 0.84215 0.0
O29 O 0.5373 0.83985 0.87139 0.0
O30 O 0.50397 0.83251 0.88496 0.0
Mg31 Mg 0.47819 0.79741 0.86768 0.0
C32 C 0.52394 0.846 0.88517 0.0
C33 C 0.58029 0.80948 0.8183 0.0
O34 O 0.56589 0.80743 0.79951 0.0
O35 O 0.53492 0.78179 0.87076 0.0
O36 O 0.50117 0.77796 0.88298 0.0
O37 O 0.51307 0.8187 0.81351 0.0
O38 O 0.49659 0.79957 0.83834 0.0
C39 C 0.5202 0.77342 0.88352 0.0
C40 C 0.49454 0.81022 0.82158 0.0
O41 O 0.5728 0.81055 0.83804 0.0
Mg42 Mg 0.51192 0.26181 0.20326 0.0
O43 O 0.50546 0.22523 0.17795 0.0
O44 O 0.47577 0.22064 0.15104 0.0
Mg45 Mg 0.45886 0.2504 0.16142 0.0
C46 C 0.4922 0.2136 0.15913 0.0
C47 C 0.56047 0.26007 0.23305 0.0
O48 O 0.5486 0.25724 0.25026 0.0
O49 O 0.52195 0.2832 0.17398 0.0
O50 O 0.48837 0.27842 0.15234 0.0
O51 O 0.48606 0.24938 0.22932 0.0
O52 O 0.47614 0.26065 0.198 0.0
C53 C 0.50981 0.28801 0.15748 0.0
C54 C 0.47034 0.25437 0.21677 0.0
O55 O 0.5505 0.26207 0.21361 0.0
Mg56 Mg 0.06295 0.80761 0.11808 0.0
O57 O 0.05698 0.77173 0.09129 0.0
O58 O 0.02182 0.76278 0.07222 0.0
Mg59 Mg 0.00622 0.79332 0.08351 0.0
C60 C 0.04025 0.75744 0.07672 0.0
C61 C 0.10639 0.80736 0.15091 0.0
O62 O 0.09071 0.80812 0.16432 0.0
O63 O 0.06733 0.83487 0.09146 0.0
O64 O 0.0316 0.82483 0.07278 0.0
O65 O 0.04399 0.78666 0.14298 0.0
O66 O 0.02724 0.80274 0.1183 0.0
C67 C 0.05205 0.83841 0.07684 0.0
C68 C 0.02569 0.79083 0.13464 0.0
O69 O 0.1014 0.80808 0.12935 0.0
Mg70 Mg 0.49154 0.76343 0.43085 0.0
O71 O 0.49703 0.79922 0.45735 0.0
O72 O 0.46753 0.79361 0.47673 0.0
Mg73 Mg 0.44351 0.7553 0.46174 0.0
C74 C 0.4859 0.80714 0.47241 0.0
C75 C 0.53511 0.76203 0.40907 0.0
O76 O 0.52036 0.74173 0.3988 0.0
O77 O 0.49903 0.73963 0.45745 0.0
O78 O 0.46643 0.73127 0.47186 0.0
O79 O 0.47359 0.77793 0.40425 0.0
O80 O 0.45506 0.7562 0.42691 0.0
C81 C 0.48572 0.72776 0.46952 0.0
C82 C 0.45446 0.76862 0.41089 0.0
O83 O 0.52904 0.77544 0.42473 0.0
Mg84 Mg 0.5637 0.31055 0.61916 0.0
O85 O 0.55977 0.27448 0.59394 0.0
O86 O 0.52576 0.26346 0.57201 0.0
Mg87 Mg 0.5064 0.29068 0.58382 0.0
C88 C 0.54466 0.25962 0.57808 0.0
C89 C 0.60678 0.30876 0.65159 0.0
O90 O 0.59006 0.30567 0.66397 0.0
O91 O 0.56622 0.33668 0.59093 0.0
O92 O 0.52967 0.3241 0.57479 0.0
O93 O 0.54592 0.29023 0.64524 0.0
O94 O 0.52738 0.30228 0.61859 0.0
C95 C 0.54932 0.33914 0.5776 0.0
C96 C 0.52676 0.29184 0.63599 0.0
O97 O 0.60279 0.31329 0.6312 0.0
Mg98 Mg 0.98989 0.26086 0.928 0.0
O99 O 0.99698 0.29704 0.95457 0.0
O100 O 0.968 0.2924 0.97468 0.0
Mg101 Mg 0.94441 0.25376 0.96219 0.0
C102 C 0.98615 0.30557 0.9696 0.0
C103 C 0.03218 0.28436 0.905 0.0
O104 O 0.01661 0.29274 0.89565 0.0
O105 O -0.00159 0.23683 0.95366 0.0
O106 O 0.96873 0.23132 0.97284 0.0
O107 O 0.97064 0.27652 0.90367 0.0
O108 O 0.95352 0.25335 0.9261 0.0
C109 C 0.98705 0.22663 0.96815 0.0
C110 C 0.95208 0.26659 0.91099 0.0
O111 O 0.02704 0.27149 0.92008 0.0
Mg112 Mg 0.41693 0.04696 0.31224 0.0
O113 O 0.38914 0.01216 0.30829 0.0
O114 O 0.37087 0.01233 0.33946 0.0
Mg115 Mg 0.3875 0.04772 0.36364 0.0
C116 C 0.37387 0.00243 0.31959 0.0
C117 C 0.4245 0.01725 0.26917 0.0
O118 O 0.42771 0.00598 0.28598 0.0
O119 O 0.39009 0.06432 0.30412 0.0
O120 O 0.37227 0.06386 0.33545 0.0
O121 O 0.44084 0.03149 0.32822 0.0
O122 O 0.41878 0.04843 0.34809 0.0
C123 C 0.37459 0.06861 0.31527 0.0
C124 C 0.43186 0.03476 0.34692 0.0
O125 O 0.41975 0.03672 0.274 0.0
Mg126 Mg 0.27103 0.18435 0.50554 0.0
O127 O 0.27253 0.20967 0.5404 0.0
O128 O 0.30746 0.23467 0.54917 0.0
Mg129 Mg 0.3288 0.22395 0.52128 0.0
C130 C 0.28737 0.2271 0.55395 0.0
C131 C 0.22473 0.16223 0.51917 0.0
O132 O 0.23948 0.16315 0.53727 0.0
O133 O 0.27137 0.21245 0.48237 0.0
O134 O 0.30852 0.23161 0.48958 0.0
O135 O 0.28212 0.1591 0.52498 0.0
O136 O 0.30612 0.18733 0.51277 0.0
C137 C 0.28883 0.22713 0.47762 0.0
C138 C 0.30292 0.16982 0.52342 0.0
O139 O 0.23208 0.17117 0.50218 0.0
Mg140 Mg 0.10624 0.03595 0.78382 0.0
O141 O 0.13319 0.07258 0.78878 0.0
O142 O 0.15858 0.07524 0.8197 0.0
Mg143 Mg 0.14503 0.0444 0.83814 0.0
C144 C 0.15187 0.08335 0.80238 0.0
C145 C 0.08484 0.0223 0.72969 0.0
O146 O 0.08491 0.00087 0.73202 0.0
O147 O 0.1324 0.0161 0.77261 0.0
O148 O 0.15144 0.0191 0.808 0.0
O149 O 0.08312 0.04996 0.80626 0.0
O150 O 0.11037 0.03633 0.81968 0.0
C151 C 0.14697 0.01059 0.7861 0.0
C152 C 0.09382 0.04474 0.82377 0.0
O153 O 0.09324 0.03946 0.7469 0.0
Mg154 Mg 0.2861 0.93594 0.01751 0.0
O155 O 0.28839 0.90855 0.98777 0.0
O156 O 0.32076 0.89919 0.99395 0.0
Mg157 Mg 0.33915 0.92151 0.02946 0.0
C158 C 0.3017 0.89657 0.98163 0.0
C159 C 0.24251 0.94043 0.99109 0.0
O160 O 0.25683 0.95212 0.97908 0.0
O161 O 0.2768 0.90729 0.03802 0.0
O162 O 0.31002 0.89935 0.04481 0.0
O163 O 0.305 0.96477 0.00088 0.0
O164 O 0.32071 0.94774 0.02609 0.0
C165 C 0.28896 0.89569 0.04644 0.0
C166 C 0.32308 0.96259 0.01236 0.0
O167 O 0.2493 0.92827 0.00433 0.0
Mg168 Mg 0.28592 0.37779 0.03986 0.0
O169 O 0.28354 0.35221 0.00481 0.0
O170 O 0.31314 0.33773 0.0082 0.0
Mg171 Mg 0.33487 0.35488 0.04439 0.0
C172 C 0.29542 0.33938 -0.00379 0.0
C173 C 0.25045 0.40151 0.0295 0.0
O174 O 0.27008 0.41786 0.03608 0.0
O175 O 0.27545 0.34906 0.0624 0.0
O176 O 0.30815 0.34002 0.06713 0.0
O177 O 0.30681 0.40639 0.02434 0.0
O178 O 0.32166 0.38568 0.04576 0.0
C179 C 0.28832 0.33875 0.07237 0.0
C180 C 0.32465 0.40196 0.03357 0.0
O181 O 0.24967 0.38008 0.02976 0.0
Mg182 Mg 0.77281 0.12921 0.03426 0.0
O183 O 0.7618 0.15046 0.06444 0.0
O184 O 0.79507 0.17922 0.07637 0.0
Mg185 Mg 0.82593 0.17237 0.061 0.0
C186 C 0.77376 0.17052 0.0768 0.0
C187 C 0.71869 0.11024 0.0111 0.0
O188 O 0.7042 0.09984 0.99195 0.0
O189 O 0.77572 0.16056 0.01766 0.0
O190 O 0.81133 0.1839 0.029 0.0
O191 O 0.77961 0.10122 0.05177 0.0
O192 O 0.80312 0.13672 0.05528 0.0
C193 C 0.79184 0.17849 0.01666 0.0
C194 C 0.80032 0.11495 0.05631 0.0
O195 O 0.73951 0.1123 0.01056 0.0
Mg196 Mg 0.13911 0.52323 0.24435 0.0
O197 O 0.16411 0.55979 0.25222 0.0
O198 O 0.17945 0.57077 0.28997 0.0
Mg199 Mg 0.16567 0.53895 0.3063 0.0
C200 C 0.17711 0.57471 0.26933 0.0
C201 C 0.12321 0.53683 0.20024 0.0
O202 O 0.10859 0.53949 0.21433 0.0
O203 O 0.16924 0.50836 0.24384 0.0
O204 O 0.18427 0.51997 0.28172 0.0
O205 O 0.11219 0.53873 0.2567 0.0
O206 O 0.13527 0.52687 0.27982 0.0
C207 C 0.18464 0.51022 0.26081 0.0
C208 C 0.11995 0.53746 0.2774 0.0
O209 O 0.13797 0.52673 0.20594 0.0
Mg210 Mg 0.7845 0.88019 0.53709 0.0
O211 O 0.78268 0.85302 0.50273 0.0
O212 O 0.81341 0.84067 0.50821 0.0
Mg213 Mg 0.83453 0.85882 0.54428 0.0
C214 C 0.79557 0.84078 0.49525 0.0
C215 C 0.74134 0.89669 0.53971 0.0
O216 O 0.75332 0.90624 0.56046 0.0
O217 O 0.77435 0.85261 0.56142 0.0
O218 O 0.80784 0.84542 0.56746 0.0
O219 O 0.80538 0.909 0.5215 0.0
O220 O 0.82032 0.88849 0.54297 0.0
C221 C 0.78791 0.84379 0.57256 0.0
C222 C 0.82333 0.90459 0.53057 0.0
O223 O 0.74837 0.8824 0.52592 0.0
Mg224 Mg 0.9502 0.03477 0.27293 0.0
O225 O 0.9236 -0.00237 0.26729 0.0
O226 O 0.90956 -0.00374 0.30092 0.0
Mg227 Mg 0.92459 0.03082 0.32699 0.0
C228 C 0.91061 0.98679 0.28016 0.0
C229 C 0.97242 0.02924 0.22721 0.0
O230 O 0.98924 0.02991 0.2431 0.0
O231 O 0.92196 0.05336 0.26885 0.0
O232 O 0.91031 0.05138 0.30344 0.0
O233 O 0.97767 0.02161 0.29108 0.0
O234 O 0.95429 0.0372 0.30913 0.0
C235 C 0.90976 0.05852 0.28416 0.0
C236 C 0.97057 0.02786 0.31043 0.0
O237 O 0.95353 0.03015 0.23365 0.0
Mg238 Mg 0.28118 0.64501 0.53611 0.0
O239 O 0.28487 0.66407 0.57262 0.0
O240 O 0.3194 0.68954 0.58308 0.0
Mg241 Mg 0.33979 0.68111 0.554 0.0
C242 C 0.29921 0.68083 0.58698 0.0
C243 C 0.23626 0.6271 0.5527 0.0
O244 O 0.25036 0.62282 0.56853 0.0
O245 O 0.28254 0.67909 0.52475 0.0
O246 O 0.31973 0.69894 0.53161 0.0
O247 O 0.29073 0.61509 0.54696 0.0
O248 O 0.31449 0.64674 0.53866 0.0
C249 C 0.2991 0.69674 0.52357 0.0
C250 C 0.31106 0.62625 0.54408 0.0
O251 O 0.24381 0.63594 0.53585 0.0
Mg252 Mg 0.45 0.53256 0.77007 0.0
O253 O 0.42214 0.49656 0.76584 0.0
O254 O 0.40645 0.49863 0.79869 0.0
Mg255 Mg 0.4255 0.5329 0.82474 0.0
C256 C 0.40753 0.4878 0.77843 0.0
C257 C 0.47171 0.52735 0.72423 0.0
O258 O 0.48874 0.52853 0.74012 0.0
O259 O 0.42296 0.55242 0.76597 0.0
O260 O 0.41247 0.55529 0.80154 0.0
O261 O 0.47661 0.51794 0.78673 0.0
O262 O 0.45448 0.53473 0.80604 0.0
C263 C 0.41201 0.56029 0.78122 0.0
C264 C 0.46985 0.52403 0.80631 0.0
O265 O 0.45267 0.52759 0.73067 0.0
Mg266 Mg 0.6425 0.02501 0.74111 0.0
O267 O 0.66671 0.06205 0.74825 0.0
O268 O 0.67836 0.07346 0.78669 0.0
Mg269 Mg 0.65952 0.04469 0.80434 0.0
C270 C 0.6781 0.07741 0.766 0.0
C271 C 0.65007 0.02973 0.68758 0.0
O272 O 0.66042 0.02505 0.6697 0.0
O273 O 0.67087 0.0097 0.75051 0.0
O274 O 0.68142 0.02288 0.78892 0.0
O275 O 0.61446 0.04269 0.7438 0.0
O276 O 0.63259 0.03315 0.77337 0.0
C277 C 0.68367 0.01154 0.76944 0.0
C278 C 0.61894 0.04416 0.76606 0.0
O279 O 0.65243 0.0199 0.70482 0.0
Mg280 Mg 0.76997 0.68758 0.0055 0.0
O281 O 0.77145 0.71263 0.04065 0.0
O282 O 0.80676 0.73693 0.04945 0.0
Mg283 Mg 0.82641 0.72973 0.01894 0.0
C284 C 0.78686 0.72918 0.05458 0.0
C285 C 0.72484 0.66119 0.01941 0.0
O286 O 0.74029 0.66026 0.036 0.0
O287 O 0.76766 0.71467 0.98212 0.0
O288 O 0.80344 0.73823 0.98962 0.0
O289 O 0.78398 0.66426 0.02516 0.0
O290 O 0.80549 0.6923 0.01021 0.0
C291 C 0.78338 0.73176 0.97798 0.0
C292 C 0.804 0.67573 0.02196 0.0
O293 O 0.73128 0.67275 0.00371 0.0
Mg294 Mg 0.91152 0.54809 0.81345 0.0
O295 O 0.88798 0.51153 0.81105 0.0
O296 O 0.86916 0.50964 0.84163 0.0
Mg297 Mg 0.87656 0.54774 0.86029 0.0
C298 C 0.87451 0.50001 0.82287 0.0
C299 C 0.92407 0.51587 0.77494 0.0
O300 O 0.92832 0.50689 0.79325 0.0
O301 O 0.88202 0.55827 0.7986 0.0
O302 O 0.86024 0.55606 0.82675 0.0
O303 O 0.93613 0.5384 0.83558 0.0
O304 O 0.91026 0.55458 0.84913 0.0
C305 C 0.86375 0.55933 0.80629 0.0
C306 C 0.92465 0.5428 0.85214 0.0
O307 O 0.91777 0.53454 0.77741 0.0
Mg308 Mg 0.77601 0.41872 0.51549 0.0
O309 O 0.78112 0.40418 0.47852 0.0
O310 O 0.81486 0.39671 0.47959 0.0
Mg311 Mg 0.82017 0.38958 0.51588 0.0
C312 C 0.79674 0.39839 0.46837 0.0
C313 C 0.7467 0.4467 0.51351 0.0
O314 O 0.76381 0.45616 0.53059 0.0
O315 O 0.75623 0.3823 0.5207 0.0
O316 O 0.78252 0.37181 0.50437 0.0
O317 O 0.80167 0.45177 0.51485 0.0
O318 O 0.81053 0.42204 0.52778 0.0
C319 C 0.76811 0.36807 0.51815 0.0
C320 C 0.81697 0.44262 0.52232 0.0
O321 O 0.74442 0.42626 0.50185 0.0
Mg322 Mg 0.61012 0.53449 0.28337 0.0
O323 O 0.63653 0.57135 0.28842 0.0
O324 O 0.66071 0.57596 0.32086 0.0
Mg325 Mg 0.64915 0.54388 0.33789 0.0
C326 C 0.65425 0.58341 0.30296 0.0
C327 C 0.57942 0.54013 0.23977 0.0
O328 O 0.56658 0.54277 0.25593 0.0
O329 O 0.63686 0.51596 0.27268 0.0
O330 O 0.65827 0.52112 0.30729 0.0
O331 O 0.5869 0.54849 0.3058 0.0
O332 O 0.61439 0.53517 0.31926 0.0
C333 C 0.65334 0.51263 0.28539 0.0
C334 C 0.59799 0.5438 0.32341 0.0
O335 O 0.59845 0.53655 0.24547 0.0
Dy336 Dy 0.04892 0.04887 0.03538 0.0
Dy337 Dy -0.0001 0.01772 0.00711 0.0
C338 C 0.04069 0.03122 0.9797 0.0
O339 O 0.03462 0.07874 0.03067 0.0
O340 O 0.00221 0.05641 0.0059 0.0
O341 O 0.08256 0.07197 0.03595 0.0
O342 O 0.07391 0.05743 0.06632 0.0
O343 O 0.99543 0.02109 0.04482 0.0
O344 O 0.02643 0.05216 0.0622 0.0
O345 O 0.01256 0.98797 0.01622 0.0
O346 O 0.04847 0.01022 0.03392 0.0
O347 O 0.96587 -0.00542 0.00464 0.0
O348 O 0.97621 0.00981 0.97518 0.0
C349 C 0.01625 0.07728 0.01643 0.0
O350 O 0.05028 0.04863 -0.00256 0.0
O351 O 0.02399 0.01333 0.98204 0.0
C352 C 0.1074 0.05469 0.05347 0.0
C353 C 0.13752 0.02752 0.04987 0.0
C354 C 0.11712 0.02055 0.03449 0.0
C355 C 0.10232 0.0342 0.03608 0.0
C356 C 0.12766 0.06159 0.06922 0.0
C357 C 0.14295 0.04814 0.06719 0.0
C358 C 0.09024 0.06713 0.05547 0.0
C359 C 0.00715 0.03679 0.06322 0.0
C360 C 0.03276 0.98953 0.02704 0.0
C361 C 0.94209 0.01263 0.98662 0.0
C362 C 0.911 0.03875 0.99141 0.0
C363 C 0.93232 0.04686 0.00535 0.0
C364 C 0.94755 0.03374 0.0032 0.0
C365 C 0.92104 0.00465 0.97208 0.0
C366 C 0.90535 0.01759 0.97468 0.0
C367 C 0.95915 -4e-05 0.98507 0.0
H368 H 0.11303 0.00496 0.02072 0.0
H369 H 0.0869 0.0288 0.02355 0.0
H370 H 0.13165 0.07727 0.08283 0.0
H371 H 0.15895 0.05381 0.07889 0.0
H372 H 0.93679 0.06277 0.01877 0.0
H373 H 0.96346 0.03984 0.01499 0.0
H374 H 0.91666 0.98839 0.95918 0.0
H375 H 0.88877 0.01099 0.96399 0.0
Dy376 Dy 0.29839 0.78155 0.25093 0.0
Dy377 Dy 0.26673 0.78204 0.29231 0.0
C378 C 0.29427 0.83044 0.27803 0.0
O379 O 0.32195 0.78229 0.28338 0.0
O380 O 0.29877 0.7795 0.31194 0.0
O381 O 0.32809 0.79528 0.23521 0.0
O382 O 0.3043 0.76109 0.2197 0.0
O383 O 0.27346 0.74732 0.28619 0.0
O384 O 0.27422 0.74575 0.2476 0.0
O385 O 0.24324 0.77763 0.25871 0.0
O386 O 0.26855 0.7913 0.23455 0.0
O387 O 0.23582 0.76485 0.30428 0.0
O388 O 0.25769 0.79873 0.32381 0.0
C389 C 0.31859 0.78073 0.30499 0.0
O390 O 0.29918 0.81902 0.25927 0.0
O391 O 0.28411 0.81994 0.2936 0.0
C392 C 0.31662 0.7864 0.19482 0.0
C393 C 0.29997 0.79525 0.15221 0.0
C394 C 0.29534 0.80663 0.17314 0.0
C395 C 0.30369 0.80234 0.19427 0.0
C396 C 0.32197 0.77556 0.17403 0.0
C397 C 0.31387 0.7802 0.15273 0.0
C398 C 0.32088 0.77854 0.21661 0.0
C399 C 0.27105 0.7351 0.26517 0.0
C400 C 0.24772 0.7854 0.23948 0.0
C401 C 0.24144 0.77084 0.34513 0.0
C402 C 0.24923 0.75727 0.38789 0.0
C403 C 0.25586 0.74627 0.3679 0.0
C404 C 0.25209 0.75309 0.34669 0.0
C405 C 0.23419 0.78136 0.36485 0.0
C406 C 0.23809 0.77463 0.38618 0.0
C407 C 0.2406 0.78035 0.32383 0.0
H408 H 0.2852 0.81884 0.17315 0.0
H409 H 0.29939 0.8109 0.21015 0.0
H410 H 0.33173 0.76303 0.17422 0.0
H411 H 0.31791 0.7716 0.1367 0.0
H412 H 0.26482 0.73312 0.36888 0.0
H413 H 0.25823 0.74511 0.33172 0.0
H414 H 0.22624 0.79531 0.36393 0.0
H415 H 0.23278 0.78325 0.4014 0.0
Dy416 Dy 0.50025 0.03365 0.53917 0.0
Dy417 Dy 0.55167 0.03733 0.52534 0.0
C418 C 0.50945 0.03118 0.48919 0.0
O419 O 0.49971 -0.00409 0.52445 0.0
O420 O 0.53804 0.00021 0.53157 0.0
O421 O 0.46401 0.02307 0.52768 0.0
O422 O 0.47777 0.04131 0.56334 0.0
O423 O 0.5546 0.05136 0.56329 0.0
O424 O 0.52068 0.02816 0.56984 0.0
O425 O 0.54831 0.07441 0.52582 0.0
O426 O 0.51935 0.07239 0.54805 0.0
O427 O 0.5868 0.04028 0.53613 0.0
O428 O 0.57459 0.03676 0.49954 0.0
C429 C 0.51683 0.98661 0.52588 0.0
O430 O 0.50405 0.04504 0.50565 0.0
O431 O 0.52524 0.02123 0.49398 0.0
C432 C 0.44591 0.05018 0.54552 0.0
C433 C 0.41914 0.08164 0.54323 0.0
C434 C 0.43411 0.07945 0.52699 0.0
C435 C 0.44745 0.06397 0.5282 0.0
C436 C 0.43109 0.0524 0.56176 0.0
C437 C 0.41789 0.06797 0.56067 0.0
C438 C 0.45988 0.0338 0.54725 0.0
C439 C 0.54149 0.04161 0.57732 0.0
C440 C 0.53586 0.08481 0.53857 0.0
C441 C 0.6034 0.01879 0.50944 0.0
C442 C 0.63025 0.98711 0.50462 0.0
C443 C 0.61042 0.98181 0.51511 0.0
C444 C 0.59713 -0.00258 0.51742 0.0
C445 C 0.62254 0.02371 0.49806 0.0
C446 C 0.63579 0.00803 0.4956 0.0
C447 C 0.59144 0.03689 0.51491 0.0
H448 H 0.43566 0.08988 0.51349 0.0
H449 H 0.45898 0.0628 0.51561 0.0
H450 H 0.42969 0.042 0.5753 0.0
H451 H 0.40636 0.06899 0.57327 0.0
H452 H 0.60565 0.96609 0.52252 0.0
H453 H 0.58244 -0.0068 0.52629 0.0
H454 H 0.62765 0.04006 0.49169 0.0
H455 H 0.65065 0.01255 0.48703 0.0
Dy456 Dy 0.30342 0.27287 0.77331 0.0
Dy457 Dy 0.25627 0.28911 0.77183 0.0
C458 C 0.30388 0.32443 0.76792 0.0
O459 O 0.30269 0.29047 0.8103 0.0
O460 O 0.26411 0.28311 0.80791 0.0
O461 O 0.3398 0.28186 0.78339 0.0
O462 O 0.32137 0.24717 0.76304 0.0
O463 O 0.24557 0.24954 0.76621 0.0
O464 O 0.27779 0.24391 0.78458 0.0
O465 O 0.26364 0.28596 0.73469 0.0
O466 O 0.28456 0.25981 0.73693 0.0
O467 O 0.22036 0.28362 0.76092 0.0
O468 O 0.24026 0.31556 0.78497 0.0
C469 C 0.28435 0.28901 0.82041 0.0
O470 O 0.31009 0.30605 0.75908 0.0
O471 O 0.28606 0.32188 0.77874 0.0
C472 C 0.35865 0.2643 0.75514 0.0
C473 C 0.39282 0.26797 0.72571 0.0
C474 C 0.38378 0.28693 0.73207 0.0
C475 C 0.36686 0.2851 0.74652 0.0
C476 C 0.3674 0.24527 0.74858 0.0
C477 C 0.38422 0.24703 0.73402 0.0
C478 C 0.34131 0.26224 0.77114 0.0
C479 C 0.25592 0.23641 0.77629 0.0
C480 C 0.27317 0.2705 0.72451 0.0
C481 C 0.20228 0.29999 0.79084 0.0
C482 C 0.16899 0.29637 0.82112 0.0
C483 C 0.17584 0.27651 0.81213 0.0
C484 C 0.19239 0.27832 0.79726 0.0
C485 C 0.19559 0.31984 0.79992 0.0
C486 C 0.17921 0.31809 0.81492 0.0
C487 C 0.21993 0.30253 0.77528 0.0
H488 H 0.38971 0.3032 0.72576 0.0
H489 H 0.36031 0.30002 0.75103 0.0
H490 H 0.36138 0.22904 0.75494 0.0
H491 H 0.39086 0.23215 0.72971 0.0
H492 H 0.16852 0.25958 0.81675 0.0
H493 H 0.19744 0.26278 0.79083 0.0
H494 H 0.20304 0.33677 0.79534 0.0
H495 H 0.1742 0.33368 0.82129 0.0
Dy496 Dy 0.03316 0.00943 0.52374 0.0
Dy497 Dy 0.01363 0.05625 0.52392 0.0
C498 C 0.98142 0.00564 0.52567 0.0
O499 O 0.01878 0.00761 0.48667 0.0
O500 O 0.02287 0.04718 0.4886 0.0
O501 O 0.02819 0.97189 0.51326 0.0
O502 O 0.05884 -0.00619 0.53603 0.0
O503 O 0.0515 0.0697 0.52937 0.0
O504 O 0.06069 0.03659 0.51275 0.0
O505 O 0.01399 0.04897 0.56035 0.0
O506 O 0.04329 0.03231 0.55915 0.0
O507 O 0.01552 0.09281 0.53691 0.0
O508 O 0.98893 0.07146 0.50898 0.0
C509 C 0.01992 0.02584 0.47653 0.0
O510 O -0.00097 0.0005 0.53535 0.0
O511 O 0.98371 0.02394 0.51559 0.0
C512 C 0.04434 0.9544 0.54177 0.0
C513 C 0.04093 0.91884 0.56895 0.0
C514 C 0.02137 0.924 0.55959 0.0
C515 C 0.02304 0.94161 0.54624 0.0
C516 C 0.06391 0.94953 0.55137 0.0
C517 C 0.06225 0.93204 0.56489 0.0
C518 C 0.0465 0.97229 0.52667 0.0
C519 C 0.06586 0.05968 0.51999 0.0
C520 C 0.03039 0.04244 0.5709 0.0
C521 C 0.0039 0.11161 0.50731 0.0
C522 C 0.01161 0.14661 0.47945 0.0
C523 C 0.02694 0.13324 0.48216 0.0
C524 C 0.02308 0.11586 0.49587 0.0
C525 C 0.98863 0.12492 0.50475 0.0
C526 C 0.99242 0.14222 0.49097 0.0
C527 C -0.00087 0.09267 0.521 0.0
H528 H 0.00471 0.91444 0.56267 0.0
H529 H 0.00763 0.94506 0.53927 0.0
H530 H 0.08052 0.95909 0.54817 0.0
H531 H 0.07764 0.92845 0.5717 0.0
H532 H 0.04174 0.13593 0.47334 0.0
H533 H 0.03495 0.10557 0.49737 0.0
H534 H 0.97367 0.12184 0.51333 0.0
H535 H 0.9804 0.15233 0.4895 0.0
Dy536 Dy 0.28191 0.81352 0.76943 0.0
Dy537 Dy 0.2754 0.76084 0.7832 0.0
C538 C 0.27718 0.80456 0.82064 0.0
O539 O 0.31719 0.80878 0.77065 0.0
O540 O 0.31284 0.78038 0.79339 0.0
O541 O 0.28723 0.85084 0.78127 0.0
O542 O 0.28321 0.83663 0.74434 0.0
O543 O 0.28817 0.76283 0.74986 0.0
O544 O 0.26801 0.78575 0.73712 0.0
O545 O 0.23983 0.76088 0.7687 0.0
O546 O 0.24518 0.80106 0.77389 0.0
O547 O 0.26377 0.72292 0.77129 0.0
O548 O 0.28142 0.73799 0.80659 0.0
C549 C 0.32598 0.79642 0.78376 0.0
O550 O 0.28976 0.81707 0.80783 0.0
O551 O 0.26591 0.78234 0.81268 0.0
C552 C 0.26768 0.86811 0.7561 0.0
C553 C 0.23778 0.8961 0.75163 0.0
C554 C 0.23212 0.87649 0.76257 0.0
C555 C 0.2469 0.86263 0.76474 0.0
C556 C 0.27312 0.88716 0.74458 0.0
C557 C 0.25831 0.90099 0.74231 0.0
C558 C 0.28429 0.85498 0.76027 0.0
C559 C 0.27608 0.76771 0.733 0.0
C560 C 0.23159 0.77921 0.76928 0.0
C561 C 0.28884 0.7033 0.78726 0.0
C562 C 0.31715 0.67306 0.78241 0.0
C563 C 0.30589 0.67796 0.76262 0.0
C564 C 0.29189 0.69286 0.765 0.0
C565 C 0.30019 0.69853 0.80701 0.0
C566 C 0.3142 0.68369 0.80464 0.0
C567 C 0.27386 0.71895 0.79022 0.0
H568 H 0.21667 0.87231 0.77026 0.0
H569 H 0.24238 0.84803 0.77377 0.0
H570 H 0.28904 0.89164 0.73775 0.0
H571 H 0.26308 0.91569 0.73346 0.0
H572 H 0.30753 0.6699 0.74524 0.0
H573 H 0.28336 0.69602 0.74936 0.0
H574 H 0.2982 0.7063 0.82438 0.0
H575 H 0.32286 0.68066 0.82028 0.0
Dy576 Dy 0.53589 0.05575 0.0055 0.0
Dy577 Dy 0.53171 0.02262 0.04387 0.0
C578 C 0.54095 0.00322 0.99329 0.0
O579 O 0.49965 0.04685 0.01031 0.0
O580 O 0.49828 0.01153 0.02064 0.0
O581 O 0.52429 0.06286 0.9723 0.0
O582 O 0.55269 0.08849 -0.00421 0.0
O583 O 0.51788 0.05213 0.05929 0.0
O584 O 0.5365 0.07956 0.03955 0.0
O585 O 0.56601 0.04889 0.05359 0.0
O586 O 0.57058 0.05342 0.01644 0.0
O587 O 0.53893 0.01618 0.07846 0.0
O588 O 0.51963 0.98733 0.05051 0.0
C589 C 0.48811 0.02577 0.0125 0.0
O590 O 0.53198 0.01878 0.98568 0.0
O591 O 0.54767 0.00569 0.01574 0.0
C592 C 0.55275 0.08622 0.95553 0.0
C593 C 0.57433 0.09049 0.91595 0.0
C594 C 0.58306 0.08102 0.93399 0.0
C595 C 0.57224 0.07875 0.95359 0.0
C596 C 0.54445 0.09637 0.93804 0.0
C597 C 0.55511 0.09846 0.91837 0.0
C598 C 0.54038 0.08279 0.9752 0.0
C599 C 0.52525 0.0743 0.05678 0.0
C600 C 0.57906 0.05558 0.0383 0.0
C601 C 0.50853 0.98793 0.08724 0.0
C602 C 0.47766 0.98046 0.11874 0.0
C603 C 0.47661 -0.00374 0.10382 0.0
C604 C 0.49192 -9e-05 0.08804 0.0
C605 C 0.50876 0.97109 0.10114 0.0
C606 C 0.49332 0.96736 0.11694 0.0
C607 C 0.52627 -0.00575 0.07289 0.0
H608 H 0.59798 0.07497 0.93277 0.0
H609 H 0.57883 0.07084 0.96701 0.0
H610 H 0.52936 0.10213 0.93933 0.0
H611 H 0.54772 0.10542 0.90464 0.0
H612 H 0.46489 0.00681 0.10541 0.0
H613 H 0.49155 0.01292 0.07727 0.0
H614 H 0.52147 0.96168 0.10054 0.0
H615 H 0.49453 0.95544 0.12872 0.0
Dy616 Dy 0.26531 0.2579 0.26292 0.0
Dy617 Dy 0.29127 0.31271 0.28596 0.0
C618 C 0.2843 0.27294 0.31794 0.0
O619 O 0.23836 0.27086 0.27933 0.0
O620 O 0.25362 0.31064 0.28178 0.0
O621 O 0.24391 0.22328 0.26451 0.0
O622 O 0.25684 0.22966 0.23262 0.0
O623 O 0.28646 0.31164 0.24741 0.0
O624 O 0.25713 0.27755 0.23548 0.0
O625 O 0.32044 0.29647 0.28279 0.0
O626 O 0.3015 0.26301 0.25582 0.0
O627 O 0.31763 0.34508 0.28684 0.0
O628 O 0.29456 0.34369 0.31222 0.0
C629 C 0.23639 0.29244 0.2832 0.0
O630 O 0.28025 0.25641 0.29899 0.0
O631 O 0.28687 0.29515 0.31667 0.0
C632 C 0.25788 0.19473 0.24457 0.0
C633 C 0.27813 0.1597 0.2526 0.0
C634 C 0.29125 0.18343 0.25673 0.0
C635 C 0.28118 0.20079 0.25287 0.0
C636 C 0.24489 0.17092 0.23909 0.0
C637 C 0.25505 0.15335 0.24301 0.0
C638 C 0.24737 0.21376 0.24415 0.0
C639 C 0.27046 0.29705 0.23122 0.0
C640 C 0.32073 0.27798 0.26722 0.0
C641 C 0.30408 0.3778 0.29668 0.0
C642 C 0.28799 0.415 0.28613 0.0
C643 C 0.28419 0.39435 0.26925 0.0
C644 C 0.29202 0.37582 0.27455 0.0
C645 C 0.30842 0.39863 0.31343 0.0
C646 C 0.3003 0.41714 0.30821 0.0
C647 C 0.3099 0.35722 0.30286 0.0
H648 H 0.30913 0.18864 0.26391 0.0
H649 H 0.29142 0.21907 0.2574 0.0
H650 H 0.22686 0.16605 0.23274 0.0
H651 H 0.24472 0.13507 0.23976 0.0
H652 H 0.2743 0.39213 0.25231 0.0
H653 H 0.28804 0.35965 0.26159 0.0
H654 H 0.31743 0.40025 0.33069 0.0
H655 H 0.30325 0.43291 0.3215 0.0
Dy656 Dy 0.53179 0.50863 0.02054 0.0
Dy657 Dy 0.51432 0.55753 0.02525 0.0
C658 C 0.48014 0.5071 0.02491 0.0
O659 O 0.52954 0.51555 0.98417 0.0
O660 O 0.50541 0.53888 0.98795 0.0
O661 O 0.52735 0.47137 0.00784 0.0
O662 O 0.55669 0.49232 0.033 0.0
O663 O 0.54781 0.56758 0.01312 0.0
O664 O 0.56311 0.5392 0.02416 0.0
O665 O 0.5306 0.55728 0.06116 0.0
O666 O 0.52445 0.51724 0.05673 0.0
O667 O 0.52 0.59486 0.03826 0.0
O668 O 0.48897 0.57452 0.01522 0.0
C669 C 0.5157 0.52615 0.97504 0.0
O670 O 0.4939 0.49722 0.01418 0.0
O671 O 0.48641 0.5297 0.03468 0.0
C672 C 0.54212 0.45229 0.03581 0.0
C673 C 0.53818 0.41708 0.06347 0.0
C674 C 0.5198 0.42603 0.05809 0.0
C675 C 0.52178 0.44352 0.0445 0.0
C676 C 0.56042 0.44341 0.04113 0.0
C677 C 0.55852 0.42606 0.0548 0.0
C678 C 0.54502 0.47115 0.02189 0.0
C679 C 0.56516 0.55959 0.0177 0.0
C680 C 0.52947 0.53828 0.07007 0.0
C681 C 0.50572 0.61348 0.00977 0.0
C682 C 0.51202 0.64702 0.98017 0.0
C683 C 0.53025 0.63925 0.98865 0.0
C684 C 0.52712 0.62259 0.00316 0.0
C685 C 0.48747 0.62112 0.00127 0.0
C686 C 0.49056 0.63765 0.98658 0.0
C687 C 0.50211 0.59562 0.02493 0.0
H688 H 0.50399 0.41976 0.0647 0.0
H689 H 0.50747 0.45028 0.04091 0.0
H690 H 0.57631 0.44997 0.03472 0.0
H691 H 0.57293 0.41947 0.05835 0.0
H692 H 0.54692 0.64584 0.98384 0.0
H693 H 0.54147 0.61682 0.00914 0.0
H694 H 0.47079 0.6143 0.00599 0.0
H695 H 0.4762 0.64338 0.98054 0.0
Dy696 Dy 0.78247 0.30907 0.26441 0.0
Dy697 Dy 0.77382 0.25665 0.27864 0.0
C698 C 0.77602 0.3013 0.3137 0.0
O699 O 0.81674 0.30239 0.2638 0.0
O700 O 0.8117 0.27484 0.28745 0.0
O701 O 0.79102 0.34625 0.27885 0.0
O702 O 0.78351 0.33421 0.24141 0.0
O703 O 0.78315 0.25438 0.24304 0.0
O704 O 0.76813 0.28241 0.23175 0.0
O705 O 0.73868 0.25734 0.26408 0.0
O706 O 0.74532 0.29766 0.26834 0.0
O707 O 0.76142 0.21854 0.2697 0.0
O708 O 0.77918 0.23606 0.30445 0.0
C709 C 0.82515 0.29012 0.2773 0.0
O710 O 0.79175 0.31003 0.30179 0.0
O711 O 0.76324 0.27959 0.30639 0.0
C712 C 0.77035 0.36644 0.25801 0.0
C713 C 0.74012 0.39449 0.25669 0.0
C714 C 0.75 0.39137 0.27811 0.0
C715 C 0.76494 0.37759 0.27878 0.0
C716 C 0.76049 0.36954 0.23658 0.0
C717 C 0.74553 0.3834 0.23592 0.0
C718 C 0.7863 0.35185 0.25882 0.0
C719 C 0.77356 0.26272 0.22679 0.0
C720 C 0.73114 0.27604 0.26412 0.0
C721 C 0.78637 0.20094 0.28772 0.0
C722 C 0.81523 0.17166 0.28365 0.0
C723 C 0.82033 0.1929 0.27527 0.0
C724 C 0.806 0.2074 0.27727 0.0
C725 C 0.78141 0.18005 0.29648 0.0
C726 C 0.79571 0.16552 0.29447 0.0
C727 C 0.77116 0.21603 0.28952 0.0
H728 H 0.74656 0.40001 0.29446 0.0
H729 H 0.77234 0.37583 0.29566 0.0
H730 H 0.76437 0.36128 0.22029 0.0
H731 H 0.7381 0.38534 0.21913 0.0
H732 H 0.83514 0.19807 0.26676 0.0
H733 H 0.81013 0.22357 0.2705 0.0
H734 H 0.76645 0.17495 0.30481 0.0
H735 H 0.79155 0.14951 0.3015 0.0
Dy736 Dy 0.02487 0.55066 0.50461 0.0
Dy737 Dy 0.02634 0.51959 0.54521 0.0
C738 C 0.03371 0.49968 0.4938 0.0
O739 O 0.98931 0.54006 0.51169 0.0
O740 O 0.99193 0.50677 0.52465 0.0
O741 O 0.01284 0.55543 0.47047 0.0
O742 O 0.03775 0.58427 0.4947 0.0
O743 O 0.0127 0.54901 0.56121 0.0
O744 O 0.02713 0.5754 0.53846 0.0
O745 O 0.05944 0.54714 0.55164 0.0
O746 O 0.06065 0.55078 0.51361 0.0
O747 O 0.03684 0.515 0.57985 0.0
O748 O 0.01603 0.48498 0.55391 0.0
C749 C 0.97993 0.51983 0.51736 0.0
O750 O 0.02273 0.51375 0.48619 0.0
O751 O 0.04149 0.50293 0.51614 0.0
C752 C 0.04199 0.58053 0.45554 0.0
C753 C 0.07243 0.58921 0.42339 0.0
C754 C 0.06552 0.56678 0.4293 0.0
C755 C 0.05056 0.56253 0.44536 0.0
C756 C 0.04902 0.60301 0.45 0.0
C757 C 0.06415 0.60735 0.43398 0.0
C758 C 0.02726 0.57649 0.47335 0.0
C759 C 0.01832 0.57076 0.55725 0.0
C760 C 0.07058 0.55388 0.53507 0.0
C761 C 0.00723 0.48822 0.59166 0.0
C762 C 0.97714 0.48216 0.62421 0.0
C763 C 0.97723 0.49895 0.61013 0.0
C764 C 0.99218 0.50196 0.59399 0.0
C765 C 0.00627 0.47041 0.60463 0.0
C766 C 0.99119 0.46735 0.62089 0.0
C767 C 0.024 0.49314 0.57594 0.0
H768 H 0.0712 0.55227 0.42108 0.0
H769 H 0.04567 0.54516 0.44977 0.0
H770 H 0.0429 0.61722 0.45815 0.0
H771 H 0.0693 0.62481 0.42984 0.0
H772 H 0.96648 0.51051 0.61243 0.0
H773 H 0.99261 0.51564 0.58393 0.0
H774 H 0.01766 0.45951 0.60277 0.0
H775 H 0.99145 0.45442 0.63177 0.0
Dy776 Dy 0.80205 0.77225 0.27102 0.0
Dy777 Dy 0.75654 0.79226 0.2731 0.0
C778 C 0.80426 0.82582 0.2658 0.0
O779 O 0.79601 0.77628 0.3087 0.0
O780 O 0.77743 0.80475 0.30865 0.0
O781 O 0.83734 0.77494 0.28245 0.0
O782 O 0.817 0.74607 0.25505 0.0
O783 O 0.74914 0.75892 0.28688 0.0
O784 O 0.77125 0.74068 0.26641 0.0
O785 O 0.7548 0.7746 0.23552 0.0
O786 O 0.79277 0.77833 0.23535 0.0
O787 O 0.72011 0.78505 0.26535 0.0
O788 O 0.74068 0.8194 0.28468 0.0
C789 C 0.78833 0.79282 0.3199 0.0
O790 O 0.81479 0.81129 0.27302 0.0
O791 O 0.78199 0.82076 0.26158 0.0
C792 C 0.85614 0.76055 0.25232 0.0
C793 C 0.89186 0.76551 0.22482 0.0
C794 C 0.87324 0.7741 0.21943 0.0
C795 C 0.85561 0.77171 0.23307 0.0
C796 C 0.87463 0.75198 0.25774 0.0
C797 C 0.89228 0.75446 0.24421 0.0
C798 C 0.83732 0.75702 0.26646 0.0
C799 C 0.75384 0.73963 0.27779 0.0
C800 C 0.77222 0.77445 0.22429 0.0
C801 C 0.70404 0.80453 0.29469 0.0
C802 C 0.67186 0.80249 0.32614 0.0
C803 C 0.68521 0.78672 0.32466 0.0
C804 C 0.70115 0.78776 0.30916 0.0
C805 C 0.6912 0.82061 0.29646 0.0
C806 C 0.67532 0.81965 0.312 0.0
C807 C 0.72014 0.80531 0.27757 0.0
H808 H 0.87241 0.78293 0.20482 0.0
H809 H 0.84152 0.77849 0.22854 0.0
H810 H 0.87534 0.74317 0.27239 0.0
H811 H 0.90613 0.74735 0.24875 0.0
H812 H 0.68292 0.7731 0.33502 0.0
H813 H 0.71097 0.77522 0.30822 0.0
H814 H 0.69331 0.83384 0.28563 0.0
H815 H 0.66571 0.83236 0.31288 0.0
Dy816 Dy 0.79959 0.27926 0.74923 0.0
Dy817 Dy 0.766 0.28446 0.79392 0.0
C818 C 0.79802 0.32836 0.78053 0.0
O819 O 0.81878 0.27543 0.78266 0.0
O820 O 0.79824 0.28193 0.81299 0.0
O821 O 0.83227 0.29782 0.74158 0.0
O822 O 0.80946 0.26843 0.71605 0.0
O823 O 0.76812 0.25445 0.77 0.0
O824 O 0.78484 0.24043 0.74256 0.0
O825 O 0.74725 0.29311 0.76345 0.0
O826 O 0.76479 0.28031 0.73238 0.0
O827 O 0.74019 0.25879 0.80582 0.0
O828 O 0.74922 0.296 0.82221 0.0
C829 C 0.81636 0.27789 0.80503 0.0
O830 O 0.79675 0.3156 0.75978 0.0
O831 O 0.78896 0.32017 0.79784 0.0
C832 C 0.82953 0.30064 0.70211 0.0
C833 C 0.82161 0.32035 0.66336 0.0
C834 C 0.8165 0.32969 0.68492 0.0
C835 C 0.82033 0.31978 0.70422 0.0
C836 C 0.8363 0.29257 0.68106 0.0
C837 C 0.83232 0.30238 0.6617 0.0
C838 C 0.82785 0.28629 0.71999 0.0
C839 C 0.76935 0.23641 0.75566 0.0
C840 C 0.74831 0.28803 0.74087 0.0
C841 C 0.74205 0.26808 0.84639 0.0
C842 C 0.75012 0.25738 0.89066 0.0
C843 C 0.76544 0.25597 0.87478 0.0
C844 C 0.76135 0.26113 0.85279 0.0
C845 C 0.72668 0.26952 0.86218 0.0
C846 C 0.73061 0.26403 0.8842 0.0
C847 C 0.73849 0.2743 0.82346 0.0
H848 H 0.80804 0.34341 0.68641 0.0
H849 H 0.8147 0.326 0.72029 0.0
H850 H 0.84321 0.27767 0.67917 0.0
H851 H 0.83643 0.29508 0.64513 0.0
H852 H 0.78035 0.25041 0.87924 0.0
H853 H 0.77323 0.25959 0.84071 0.0
H854 H 0.71171 0.27488 0.85748 0.0
H855 H 0.71857 0.2651 0.89623 0.0
Dy856 Dy 0.76535 0.75761 0.76291 0.0
Dy857 Dy 0.79173 0.81168 0.78552 0.0
C858 C 0.78346 0.77369 0.81783 0.0
O859 O 0.73644 0.77394 0.76566 0.0
O860 O 0.75547 0.80741 0.79265 0.0
O861 O 0.74143 0.72407 0.76367 0.0
O862 O 0.75896 0.72827 0.73394 0.0
O863 O 0.77577 0.8135 0.74988 0.0
O864 O 0.77124 0.77535 0.7324 0.0
O865 O 0.8183 0.79748 0.76934 0.0
O866 O 0.80255 0.7583 0.76897 0.0
O867 O 0.81635 0.84471 0.78474 0.0
O868 O 0.79859 0.84119 0.81445 0.0
C869 C 0.73618 0.79227 0.78141 0.0
O870 O 0.76678 0.76034 0.80166 0.0
O871 O 0.79871 0.79164 0.81319 0.0
C872 C 0.75446 0.69268 0.74665 0.0
C873 C 0.77571 0.6571 0.74924 0.0
C874 C 0.77486 0.67263 0.76958 0.0
C875 C 0.7645 0.69038 0.76829 0.0
C876 C 0.7545 0.67668 0.72638 0.0
C877 C 0.76507 0.65894 0.72765 0.0
C878 C 0.74665 0.71342 0.74476 0.0
C879 C 0.77243 0.79723 0.7309 0.0
C880 C 0.82012 0.77584 0.76696 0.0
C881 C 0.80313 0.87595 0.80026 0.0
C882 C 0.78579 0.9134 0.79395 0.0
C883 C 0.77677 0.89134 0.77897 0.0
C884 C 0.78525 0.87271 0.78222 0.0
C885 C 0.81218 0.89796 0.8154 0.0
C886 C 0.8034 0.91668 0.81234 0.0
C887 C 0.81116 0.85574 0.80347 0.0
H888 H 0.78257 0.67132 0.78651 0.0
H889 H 0.76499 0.7027 0.78417 0.0
H890 H 0.74712 0.67846 0.7095 0.0
H891 H 0.76561 0.64724 0.71173 0.0
H892 H 0.76283 0.88842 0.76502 0.0
H893 H 0.77769 0.85567 0.77074 0.0
H894 H 0.82578 0.90056 0.82959 0.0
H895 H 0.8103 0.93363 0.82418 0.0
Dy896 Dy 0.54835 0.55059 0.53515 0.0
Dy897 Dy 0.50101 0.51764 0.50536 0.0
C898 C 0.5437 0.53305 0.47878 0.0
O899 O 0.53524 0.57796 0.52139 0.0
O900 O 0.49812 0.55561 0.509 0.0
O901 O 0.58061 0.57771 0.54056 0.0
O902 O 0.57181 0.55729 0.56708 0.0
O903 O 0.49852 0.51882 0.54338 0.0
O904 O 0.52253 0.55557 0.55779 0.0
O905 O 0.52096 0.49123 0.50758 0.0
O906 O 0.54499 0.51294 0.54032 0.0
O907 O 0.47096 0.48817 0.5026 0.0
O908 O 0.47459 0.50912 0.47576 0.0
C909 C 0.51424 0.5762 0.51286 0.0
O910 O 0.55677 0.54333 0.49883 0.0
O911 O 0.52211 0.52209 0.47724 0.0
C912 C 0.60597 0.55885 0.55366 0.0
C913 C 0.63807 0.53607 0.54126 0.0
C914 C 0.61591 0.52761 0.52939 0.0
C915 C 0.59999 0.53878 0.53568 0.0
C916 C 0.62807 0.56723 0.56604 0.0
C917 C 0.64417 0.55564 0.55992 0.0
C918 C 0.58825 0.57003 0.5583 0.0
C919 C 0.50638 0.53733 0.56044 0.0
C920 C 0.53557 0.49245 0.52596 0.0
C921 C 0.44003 0.50037 0.48905 0.0
C922 C 0.40797 0.52504 0.49478 0.0
C923 C 0.42373 0.52563 0.51386 0.0
C924 C 0.43967 0.51344 0.51103 0.0
C925 C 0.42338 0.49848 0.47021 0.0
C926 C 0.40721 0.51072 0.47311 0.0
C927 C 0.46065 0.49398 0.48501 0.0
H928 H 0.61089 0.51227 0.51525 0.0
H929 H 0.58293 0.53173 0.52628 0.0
H930 H 0.63281 0.58255 0.58013 0.0
H931 H 0.66133 0.56208 0.56934 0.0
H932 H 0.42433 0.53636 0.53079 0.0
H933 H 0.45265 0.51559 0.52571 0.0
H934 H 0.42379 0.48887 0.45304 0.0
H935 H 0.39505 0.51011 0.45824 0.0
Dy936 Dy 0.99488 0.5315 0.02895 0.0
Dy937 Dy 0.05428 0.5376 0.01295 0.0
C938 C 0.01679 0.52835 0.979 0.0
O939 O -0.00148 0.49417 0.01916 0.0
O940 O 0.03609 0.49835 0.01028 0.0
O941 O 0.96641 0.53404 0.00632 0.0
O942 O 0.96193 0.52527 0.04044 0.0
O943 O 0.0335 0.53682 0.04064 0.0
O944 O 0.01122 0.53508 0.06602 0.0
O945 O 0.04955 0.57468 0.02031 0.0
O946 O 0.01422 0.57072 0.03471 0.0
O947 O 0.08423 0.54022 0.03651 0.0
O948 O 0.08633 0.54148 -4e-05 0.0
C949 C 0.01544 0.48548 0.01295 0.0
O950 O 0.01543 0.53147 0.00097 0.0
O951 O 0.03773 0.53148 0.97565 0.0
C952 C 0.94063 0.5496 0.02677 0.0
C953 C 0.91579 0.58288 0.03475 0.0
C954 C 0.92977 0.58362 0.01725 0.0
C955 C 0.94199 0.56718 0.01326 0.0
C956 C 0.92686 0.54901 0.04444 0.0
C957 C 0.91461 0.56547 0.04841 0.0
C958 C 0.95304 0.53164 0.02224 0.0
C959 C 0.03212 0.538 0.06248 0.0
C960 C 0.03375 0.58346 0.0294 0.0
C961 C 0.10919 0.52134 0.01849 0.0
C962 C 0.13379 0.48765 0.01626 0.0
C963 C 0.12319 0.49264 0.03577 0.0
C964 C 0.11109 0.50931 0.03692 0.0
C965 C 0.11964 0.51623 -0.00112 0.0
C966 C 0.13173 0.49949 -0.00227 0.0
C967 C 0.09655 0.53923 0.01973 0.0
H968 H 0.93078 0.59652 0.00613 0.0
H969 H 0.95227 0.56812 -0.00064 0.0
H970 H 0.92542 0.53567 0.0551 0.0
H971 H 0.90415 0.56451 0.06215 0.0
H972 H 0.12431 0.48368 0.05025 0.0
H973 H 0.10333 0.5128 0.05233 0.0
H974 H 0.11864 0.52532 0.98449 0.0
H975 H 0.13997 0.49629 0.98261 0.0
C976 C 0.98601 0.19945 -0.00226 0.0
C977 C 0.99338 0.20653 0.97737 0.0
C978 C 0.98997 0.17928 0.00525 0.0
C979 C 0.00098 0.16493 0.99182 0.0
C980 C 0.00852 0.17206 0.97129 0.0
C981 C 0.00495 0.1927 0.96458 0.0
C982 C 0.98214 0.1732 0.02757 0.0
C983 C 0.01987 0.15741 0.95594 0.0
C984 C 0.0282 0.12205 0.01883 0.0
C985 C 0.01176 0.09984 0.01111 0.0
C986 C 0.02484 0.14312 0.01299 0.0
C987 C 0.00445 0.1425 -0.00101 0.0
C988 C 0.98761 0.1202 0.99149 0.0
C989 C 0.99145 0.09937 -0.00248 0.0
C990 C 0.04334 0.16616 0.02173 0.0
C991 C 0.96547 0.11823 0.97681 0.0
H992 H 0.97701 0.20972 0.00788 0.0
H993 H 0.01049 0.19749 0.94864 0.0
H994 H 0.96866 0.156 0.02367 0.0
H995 H 0.99644 0.17123 0.03931 0.0
H996 H 0.97535 0.18685 0.03696 0.0
H997 H 0.02476 0.16508 0.94056 0.0
H998 H 0.03532 0.15583 0.9661 0.0
H999 H 0.0082 0.13924 0.94969 0.0
H1000 H 0.04402 0.123 0.02925 0.0
H1001 H 0.97846 0.08258 0.99139 0.0
H1002 H 0.03638 0.17934 0.03165 0.0
H1003 H 0.04983 0.17347 0.00673 0.0
H1004 H 0.05782 0.16406 0.03313 0.0
H1005 H 0.95621 0.12916 0.98657 0.0
H1006 H 0.9543 0.09971 0.9718 0.0
H1007 H 0.96885 0.12518 0.96071 0.0
C1008 C 0.13307 0.80629 0.18576 0.0
C1009 C 0.12871 0.8048 0.16147 0.0
C1010 C 0.15302 0.80297 0.1967 0.0
C1011 C 0.16948 0.79781 0.18324 0.0
C1012 C 0.16539 0.79636 0.15867 0.0
C1013 C 0.14517 0.79992 0.14812 0.0
C1014 C 0.15638 0.80492 0.22285 0.0
C1015 C 0.1822 0.79058 0.14348 0.0
C1016 C 0.22947 0.80986 0.21714 0.0
C1017 C 0.22864 0.78798 0.22324 0.0
C1018 C 0.21067 0.81318 0.20369 0.0
C1019 C 0.19073 0.79392 0.1952 0.0
C1020 C 0.19039 0.77145 0.20034 0.0
C1021 C 0.20904 0.7689 0.21468 0.0
C1022 C 0.21177 0.83763 0.19953 0.0
C1023 C 0.17006 0.75013 0.19114 0.0
H1024 H 0.1207 0.81002 0.19649 0.0
H1025 H 0.1421 0.79852 0.12938 0.0
H1026 H 0.15722 0.78778 0.22712 0.0
H1027 H 0.17275 0.81832 0.23084 0.0
H1028 H 0.14247 0.80993 0.23101 0.0
H1029 H 0.17691 0.79045 0.12482 0.0
H1030 H 0.19918 0.80364 0.14943 0.0
H1031 H 0.18409 0.77296 0.14506 0.0
H1032 H 0.24448 0.82473 0.22382 0.0
H1033 H 0.20832 0.75188 0.21916 0.0
H1034 H 0.19877 0.84397 0.20819 0.0
H1035 H 0.20781 0.8372 0.18061 0.0
H1036 H 0.22871 0.85054 0.20636 0.0
H1037 H 0.15544 0.75218 0.19993 0.0
H1038 H 0.17349 0.73346 0.19407 0.0
H1039 H 0.16495 0.7486 0.17217 0.0
C1040 C 0.48083 0.84251 0.49961 0.0
C1041 C 0.49269 0.83338 0.48289 0.0
C1042 C 0.48516 0.86718 0.50761 0.0
C1043 C 0.50162 0.88361 0.49861 0.0
C1044 C 0.51401 0.87453 0.48213 0.0
C1045 C 0.50952 0.84976 0.47463 0.0
C1046 C 0.47172 0.87569 0.52545 0.0
C1047 C 0.53157 0.89105 0.47176 0.0
C1048 C 0.49511 0.94633 0.50141 0.0
C1049 C 0.51237 0.96018 0.51961 0.0
C1050 C 0.49176 0.92172 0.49417 0.0
C1051 C 0.50538 0.91012 0.50593 0.0
C1052 C 0.52252 0.924 0.52469 0.0
C1053 C 0.5261 0.94875 0.53093 0.0
C1054 C 0.47387 0.90818 0.47356 0.0
C1055 C 0.53703 0.91266 0.53837 0.0
H1056 H 0.46775 0.83034 0.50624 0.0
H1057 H 0.51878 0.84324 0.46162 0.0
H1058 H 0.48339 0.88841 0.5404 0.0
H1059 H 0.46071 0.88516 0.51758 0.0
H1060 H 0.46081 0.86092 0.53211 0.0
H1061 H 0.54027 0.88142 0.4597 0.0
H1062 H 0.52331 0.9017 0.46202 0.0
H1063 H 0.54456 0.90359 0.48579 0.0
H1064 H 0.4846 0.9549 0.49225 0.0
H1065 H 0.5395 0.95918 0.54499 0.0
H1066 H 0.46083 0.89418 0.47902 0.0
H1067 H 0.4817 0.89928 0.46 0.0
H1068 H 0.46529 0.91979 0.46565 0.0
H1069 H 0.52603 0.89864 0.54585 0.0
H1070 H 0.54924 0.92564 0.55281 0.0
H1071 H 0.54671 0.90405 0.52667 0.0
C1072 C 0.50552 0.27414 0.66628 0.0
C1073 C 0.50552 0.28436 0.6464 0.0
C1074 C 0.48653 0.26997 0.67816 0.0
C1075 C 0.46699 0.27623 0.67008 0.0
C1076 C 0.46656 0.28569 0.64949 0.0
C1077 C 0.48576 0.2896 0.63793 0.0
C1078 C 0.48772 0.25967 0.69988 0.0
C1079 C 0.44615 0.29258 0.64017 0.0
C1080 C 0.41149 0.25135 0.69324 0.0
C1081 C 0.41148 0.27019 0.71096 0.0
C1082 C 0.42924 0.25309 0.67966 0.0
C1083 C 0.4476 0.27415 0.68391 0.0
C1084 C 0.44759 0.29329 0.70165 0.0
C1085 C 0.4296 0.2911 0.71486 0.0
C1086 C 0.42837 0.23235 0.66081 0.0
C1087 C 0.46678 0.31606 0.70687 0.0
H1088 H 0.52065 0.27003 0.67302 0.0
H1089 H 0.48553 0.29758 0.62266 0.0
H1090 H 0.48719 0.27291 0.71524 0.0
H1091 H 0.4728 0.24401 0.69852 0.0
H1092 H 0.50345 0.25432 0.70306 0.0
H1093 H 0.44773 0.29796 0.62304 0.0
H1094 H 0.43046 0.27765 0.63821 0.0
H1095 H 0.44411 0.30756 0.65275 0.0
H1096 H 0.39747 0.23522 0.68982 0.0
H1097 H 0.42998 0.30568 0.72866 0.0
H1098 H 0.44346 0.22609 0.6644 0.0
H1099 H 0.42893 0.23789 0.64369 0.0
H1100 H 0.41281 0.21735 0.65943 0.0
H1101 H 0.48305 0.31248 0.71221 0.0
H1102 H 0.46413 0.32942 0.72096 0.0
H1103 H 0.46855 0.32371 0.69094 0.0
C1104 C 0.00718 0.82588 0.65081 0.0
C1105 C 0.01706 0.80731 0.64824 0.0
C1106 C 0.01353 0.84469 0.63905 0.0
C1107 C 0.02979 0.8447 0.62369 0.0
C1108 C 0.04035 0.82627 0.6215 0.0
C1109 C 0.03404 0.80787 0.63404 0.0
C1110 C 0.00222 0.86416 0.64249 0.0
C1111 C 0.05758 0.82548 0.60515 0.0
C1112 C 0.02225 0.8777 0.57461 0.0
C1113 C 0.039 0.8995 0.58252 0.0
C1114 C 0.01976 0.85946 0.58736 0.0
C1115 C 0.0342 0.86304 0.60877 0.0
C1116 C 0.05145 0.88485 0.61665 0.0
C1117 C 0.0537 0.90275 0.6034 0.0
C1118 C 0.00125 0.83648 0.57815 0.0
C1119 C 0.06699 0.88964 0.63951 0.0
H1120 H 0.99415 0.82553 0.66195 0.0
H1121 H 0.04161 0.79346 0.63195 0.0
H1122 H 0.01519 0.88172 0.64675 0.0
H1123 H 0.99126 0.86344 0.62608 0.0
H1124 H 0.99157 0.86273 0.65664 0.0
H1125 H 0.06542 0.81103 0.60662 0.0
H1126 H 0.04921 0.82276 0.58689 0.0
H1127 H 0.07121 0.84256 0.60876 0.0
H1128 H 0.01106 0.87487 0.55832 0.0
H1129 H 0.06659 0.91958 0.60975 0.0
H1130 H 0.98836 0.83418 0.5901 0.0
H1131 H 0.00845 0.82133 0.57747 0.0
H1132 H 0.99258 0.83579 0.56044 0.0
H1133 H 0.05703 0.89077 0.65414 0.0
H1134 H 0.08095 0.90641 0.64204 0.0
H1135 H 0.07452 0.87492 0.64049 0.0
C1136 C 0.46039 0.82377 0.82927 0.0
C1137 C 0.4719 0.81315 0.81332 0.0
C1138 C 0.4374 0.82299 0.8234 0.0
C1139 C 0.42505 0.81055 0.80119 0.0
C1140 C 0.43682 0.8003 0.78477 0.0
C1141 C 0.46006 0.8019 0.79094 0.0
C1142 C 0.42608 0.83473 0.84142 0.0
C1143 C 0.42453 0.78647 0.76108 0.0
C1144 C 0.36043 0.78447 0.79834 0.0
C1145 C 0.35138 0.80015 0.78776 0.0
C1146 C 0.38408 0.78745 0.80235 0.0
C1147 C 0.39958 0.80679 0.79596 0.0
C1148 C 0.39062 0.82269 0.78522 0.0
C1149 C 0.36679 0.81913 0.78114 0.0
C1150 C 0.39249 0.76978 0.81356 0.0
C1151 C 0.40628 0.8437 0.77828 0.0
H1152 H 0.46929 0.8323 0.84667 0.0
H1153 H 0.46861 0.79317 0.77867 0.0
H1154 H 0.41695 0.84594 0.83363 0.0
H1155 H 0.4133 0.82103 0.84756 0.0
H1156 H 0.43847 0.84587 0.85675 0.0
H1157 H 0.43627 0.78112 0.74964 0.0
H1158 H 0.41161 0.77029 0.76316 0.0
H1159 H 0.41538 0.79705 0.7523 0.0
H1160 H 0.34895 0.76962 0.80345 0.0
H1161 H 0.36025 0.83144 0.77298 0.0
H1162 H 0.40346 0.77881 0.83046 0.0
H1163 H 0.40302 0.76201 0.80225 0.0
H1164 H 0.37836 0.75522 0.81676 0.0
H1165 H 0.41798 0.85519 0.79389 0.0
H1166 H 0.39684 0.8544 0.77001 0.0
H1167 H 0.41692 0.83768 0.7659 0.0
C1168 C 0.48232 0.17913 0.12469 0.0
C1169 C 0.49655 0.19194 0.14559 0.0
C1170 C 0.48672 0.15954 0.11109 0.0
C1171 C 0.50588 0.15223 0.11833 0.0
C1172 C 0.52017 0.16486 0.13954 0.0
C1173 C 0.51536 0.18442 0.15284 0.0
C1174 C 0.471 0.14687 0.08865 0.0
C1175 C 0.54084 0.15795 0.14801 0.0
C1176 C 0.50725 0.08965 0.09087 0.0
C1177 C 0.52068 0.09404 0.0732 0.0
C1178 C 0.50253 0.1083 0.10579 0.0
C1179 C 0.51141 0.13209 0.10319 0.0
C1180 C 0.52519 0.1366 0.08557 0.0
C1181 C 0.52959 0.11769 0.07091 0.0
C1182 C 0.48779 0.10249 0.12424 0.0
C1183 C 0.53515 0.16149 0.08199 0.0
H1184 H 0.46776 0.18458 0.1187 0.0
H1185 H 0.52662 0.19404 0.16882 0.0
H1186 H 0.48053 0.1484 0.07367 0.0
H1187 H 0.46433 0.12775 0.08882 0.0
H1188 H 0.45641 0.1541 0.08575 0.0
H1189 H 0.54983 0.16889 0.1652 0.0
H1190 H 0.53585 0.13908 0.14951 0.0
H1191 H 0.55287 0.15994 0.13516 0.0
H1192 H 0.50022 0.07158 0.09293 0.0
H1193 H 0.54003 0.12154 0.05747 0.0
H1194 H 0.47229 0.10822 0.12113 0.0
H1195 H 0.49703 0.11232 0.14171 0.0
H1196 H 0.48256 0.08328 0.12447 0.0
H1197 H 0.52129 0.16916 0.07722 0.0
H1198 H 0.54609 0.16222 0.06806 0.0
H1199 H 0.54543 0.17284 0.09844 0.0
C1200 C 0.12165 0.31306 0.33308 0.0
C1201 C 0.10282 0.30406 0.31517 0.0
C1202 C 0.14396 0.31273 0.32899 0.0
C1203 C 0.14793 0.30341 0.30638 0.0
C1204 C 0.12905 0.29488 0.28822 0.0
C1205 C 0.10706 0.29521 0.2928 0.0
C1206 C 0.16326 0.32188 0.34907 0.0
C1207 C 0.13197 0.2849 0.26379 0.0
C1208 C 0.20839 0.31701 0.28865 0.0
C1209 C 0.21412 0.29593 0.28963 0.0
C1210 C 0.18729 0.31987 0.29433 0.0
C1211 C 0.17135 0.30144 0.3017 0.0
C1212 C 0.17734 0.28037 0.30321 0.0
C1213 C 0.19828 0.27783 0.29704 0.0
C1214 C 0.18184 0.34252 0.29194 0.0
C1215 C 0.16143 0.26022 0.31116 0.0
H1216 H 0.1189 0.31985 0.35046 0.0
H1217 H 0.09297 0.28824 0.2786 0.0
H1218 H 0.17037 0.30734 0.3523 0.0
H1219 H 0.17715 0.33583 0.34466 0.0
H1220 H 0.15782 0.32925 0.36539 0.0
H1221 H 0.116 0.28017 0.25123 0.0
H1222 H 0.14534 0.29792 0.25755 0.0
H1223 H 0.13761 0.26882 0.26378 0.0
H1224 H 0.22024 0.33122 0.28302 0.0
H1225 H 0.20232 0.2615 0.29821 0.0
H1226 H 0.17773 0.3507 0.30866 0.0
H1227 H 0.1666 0.33862 0.27858 0.0
H1228 H 0.19612 0.35551 0.28681 0.0
H1229 H 0.15674 0.26667 0.32823 0.0
H1230 H 0.16902 0.24564 0.31292 0.0
H1231 H 0.1455 0.25299 0.29848 0.0
C1232 C 0.99655 0.02633 0.19554 0.0
C1233 C 0.97607 0.02881 0.20245 0.0
C1234 C 0.00088 0.02702 0.17257 0.0
C1235 C 0.98441 0.03048 0.15601 0.0
C1236 C 0.96357 0.03266 0.16275 0.0
C1237 C 0.95961 0.03171 0.18583 0.0
C1238 C 0.02321 0.02431 0.16611 0.0
C1239 C 0.94562 0.03645 0.14567 0.0
C1240 C 0.006 0.05579 0.10422 0.0
C1241 C -0.00034 0.03563 0.08634 0.0
C1242 C 0.00066 0.05446 0.12679 0.0
C1243 C 0.98922 0.0323 0.1318 0.0
C1244 C 0.9828 0.01187 0.11378 0.0
C1245 C 0.98781 0.01383 0.09122 0.0
C1246 C 0.00756 0.07673 0.14536 0.0
C1247 C 0.97125 0.9878 0.1185 0.0
H1248 H 0.00938 0.02399 0.20816 0.0
H1249 H 0.94375 0.03367 0.19094 0.0
H1250 H 0.02011 0.00968 0.15081 0.0
H1251 H 0.03303 0.0407 0.16104 0.0
H1252 H 0.03377 0.02065 0.18068 0.0
H1253 H 0.93025 0.03762 0.15352 0.0
H1254 H 0.95265 0.05299 0.1393 0.0
H1255 H 0.9405 0.02173 0.13025 0.0
H1256 H 0.01523 0.07265 0.10058 0.0
H1257 H 0.98326 -0.00192 0.0776 0.0
H1258 H 0.01993 0.07519 0.15962 0.0
H1259 H 0.99252 0.0792 0.15312 0.0
H1260 H 0.01539 0.09271 0.1384 0.0
H1261 H 0.98238 0.98333 0.13198 0.0
H1262 H 0.96725 0.97367 0.10259 0.0
H1263 H 0.95525 0.98795 0.12547 0.0
C1264 C 0.27331 0.71796 0.50859 0.0
C1265 C 0.29434 0.7133 0.50949 0.0
C1266 C 0.26615 0.7289 0.49121 0.0
C1267 C 0.28023 0.73465 0.4742 0.0
C1268 C 0.30221 0.7316 0.47613 0.0
C1269 C 0.30916 0.72118 0.49407 0.0
C1270 C 0.24281 0.7324 0.48994 0.0
C1271 C 0.31751 0.73716 0.45803 0.0
C1272 C 0.25169 0.72791 0.41271 0.0
C1273 C 0.2553 0.75154 0.41066 0.0
C1274 C 0.25933 0.7222 0.43357 0.0
C1275 C 0.27082 0.74063 0.45273 0.0
C1276 C 0.27398 0.76451 0.45101 0.0
C1277 C 0.26614 0.76972 0.42989 0.0
C1278 C 0.25566 0.69647 0.43488 0.0
C1279 C 0.28615 0.78447 0.47122 0.0
H1280 H 0.26199 0.71195 0.52075 0.0
H1281 H 0.32537 0.71736 0.49475 0.0
H1282 H 0.24324 0.74993 0.48582 0.0
H1283 H 0.23104 0.71871 0.47575 0.0
H1284 H 0.23583 0.73096 0.50652 0.0
H1285 H 0.33499 0.73645 0.46361 0.0
H1286 H 0.31032 0.72411 0.44149 0.0
H1287 H 0.31851 0.75494 0.4543 0.0
H1288 H 0.24313 0.71391 0.39785 0.0
H1289 H 0.26918 0.78801 0.42815 0.0
H1290 H 0.24616 0.69219 0.44942 0.0
H1291 H 0.27229 0.69302 0.43852 0.0
H1292 H 0.24608 0.68434 0.41847 0.0
H1293 H 0.27796 0.78205 0.48697 0.0
H1294 H 0.28625 0.80205 0.46737 0.0
H1295 H 0.30399 0.78431 0.47552 0.0
C1296 C 0.61219 0.03519 0.69123 0.0
C1297 C 0.63405 0.04371 0.68576 0.0
C1298 C 0.59412 0.04191 0.68092 0.0
C1299 C 0.59818 0.05631 0.6641 0.0
C1300 C 0.62077 0.06854 0.66229 0.0
C1301 C 0.63861 0.0619 0.67311 0.0
C1302 C 0.57029 0.03028 0.68476 0.0
C1303 C 0.62591 0.08526 0.64559 0.0
C1304 C 0.5651 0.02794 0.60427 0.0
C1305 C 0.55209 0.0431 0.60091 0.0
C1306 C 0.57949 0.03167 0.62523 0.0
C1307 C 0.58073 0.05113 0.64327 0.0
C1308 C 0.56674 0.06597 0.64021 0.0
C1309 C 0.55251 0.06177 0.61882 0.0
C1310 C 0.59424 0.01542 0.62739 0.0
C1311 C 0.56686 0.08635 0.65913 0.0
H1312 H 0.60863 0.02109 0.70101 0.0
H1313 H 0.65571 0.06895 0.66945 0.0
H1314 H 0.55953 0.04231 0.68352 0.0
H1315 H 0.56265 0.01409 0.67108 0.0
H1316 H 0.57021 0.02508 0.70207 0.0
H1317 H 0.6435 0.09738 0.65036 0.0
H1318 H 0.62426 0.07485 0.62772 0.0
H1319 H 0.61378 0.09593 0.64525 0.0
H1320 H 0.56482 0.0138 0.59 0.0
H1321 H 0.5424 0.07354 0.61578 0.0
H1322 H 0.59111 0.00696 0.64265 0.0
H1323 H 0.61245 0.0257 0.63004 0.0
H1324 H 0.59097 0.0012 0.61166 0.0
H1325 H 0.55465 0.07967 0.67082 0.0
H1326 H 0.56145 0.10025 0.6517 0.0
H1327 H 0.58383 0.09449 0.66993 0.0
C1328 C 0.28343 0.34188 0.95481 0.0
C1329 C 0.29092 0.32931 0.97061 0.0
C1330 C 0.28245 0.33481 0.93054 0.0
C1331 C 0.28842 0.31419 0.92158 0.0
C1332 C 0.2951 0.30087 0.93742 0.0
C1333 C 0.29668 0.30881 0.96169 0.0
C1334 C 0.2758 0.34995 0.91451 0.0
C1335 C 0.30087 0.27837 0.92874 0.0
C1336 C 0.26669 0.28665 0.85705 0.0
C1337 C 0.28606 0.29432 0.84644 0.0
C1338 C 0.26736 0.29247 0.88139 0.0
C1339 C 0.28783 0.30673 0.89571 0.0
C1340 C 0.30753 0.31434 0.88516 0.0
C1341 C 0.30647 0.30788 0.86075 0.0
C1342 C 0.24604 0.28353 0.89174 0.0
C1343 C 0.32962 0.32988 0.89961 0.0
H1344 H 0.27937 0.35799 0.96151 0.0
H1345 H 0.30258 0.29904 0.97373 0.0
H1346 H 0.28988 0.35633 0.90466 0.0
H1347 H 0.26077 0.33934 0.90154 0.0
H1348 H 0.27175 0.36551 0.92415 0.0
H1349 H 0.30425 0.26919 0.94309 0.0
H1350 H 0.28671 0.26612 0.91564 0.0
H1351 H 0.31613 0.2824 0.91995 0.0
H1352 H 0.25082 0.27603 0.84627 0.0
H1353 H 0.32149 0.31405 0.8528 0.0
H1354 H 0.24043 0.29866 0.89983 0.0
H1355 H 0.2495 0.274 0.90574 0.0
H1356 H 0.23188 0.27146 0.87848 0.0
H1357 H 0.32719 0.34666 0.9085 0.0
H1358 H 0.34346 0.33415 0.88891 0.0
H1359 H 0.33505 0.32104 0.91339 0.0
C1360 C -0.00203 0.01436 0.33606 0.0
C1361 C 0.97992 0.02423 0.3334 0.0
C1362 C 0.00713 0.01229 0.35836 0.0
C1363 C 0.99754 0.01961 0.37818 0.0
C1364 C 0.97903 0.02903 0.37541 0.0
C1365 C 0.97101 0.03183 0.35332 0.0
C1366 C 0.02742 0.00297 0.36084 0.0
C1367 C 0.96795 0.03679 0.39591 0.0
C1368 C 0.00383 0.00121 0.43667 0.0
C1369 C 0.01733 0.02257 0.45082 0.0
C1370 C -0.00149 -0.00069 0.41246 0.0
C1371 C 0.00734 0.01908 0.40222 0.0
C1372 C 0.02243 0.04004 0.41628 0.0
C1373 C 0.02703 0.04162 0.44043 0.0
C1374 C 0.98188 0.97689 0.39823 0.0
C1375 C 0.03244 0.06146 0.40611 0.0
H1376 H 0.00526 0.0088 0.32087 0.0
H1377 H 0.95792 0.04056 0.35194 0.0
H1378 H 0.04204 0.01688 0.37187 0.0
H1379 H 0.02367 0.98772 0.36978 0.0
H1380 H 0.0325 -0.00265 0.34371 0.0
H1381 H 0.95215 0.04121 0.39036 0.0
H1382 H 0.96368 0.02266 0.40622 0.0
H1383 H 0.97991 0.05266 0.40764 0.0
H1384 H 0.99627 0.98647 0.44467 0.0
H1385 H 0.03773 0.05808 0.4513 0.0
H1386 H 0.98788 0.97137 0.38165 0.0
H1387 H 0.96529 0.98017 0.39368 0.0
H1388 H 0.97912 0.96213 0.4079 0.0
H1389 H 0.03857 0.05623 0.38952 0.0
H1390 H 0.04676 0.07464 0.41835 0.0
H1391 H 0.01915 0.07014 0.40217 0.0
C1392 C 0.26901 0.68175 0.61198 0.0
C1393 C 0.29083 0.69222 0.60699 0.0
C1394 C 0.26014 0.69299 0.62997 0.0
C1395 C 0.2736 0.71497 0.64345 0.0
C1396 C 0.29512 0.72614 0.6378 0.0
C1397 C 0.30353 0.71455 0.61968 0.0
C1398 C 0.23688 0.68077 0.63507 0.0
C1399 C 0.30978 0.74988 0.65164 0.0
C1400 C 0.26014 0.75724 0.6905 0.0
C1401 C 0.2712 0.75202 0.71005 0.0
C1402 C 0.2581 0.74331 0.66832 0.0
C1403 C 0.26777 0.72432 0.66601 0.0
C1404 C 0.27656 0.7175 0.68603 0.0
C1405 C 0.27813 0.73145 0.70782 0.0
C1406 C 0.24714 0.74994 0.64734 0.0
C1407 C 0.28646 0.6969 0.68437 0.0
H1408 H 0.25883 0.66465 0.60194 0.0
H1409 H 0.32007 0.72302 0.61547 0.0
H1410 H 0.23864 0.66987 0.64831 0.0
H1411 H 0.22808 0.69368 0.64208 0.0
H1412 H 0.22603 0.66877 0.61917 0.0
H1413 H 0.3253 0.75688 0.6439 0.0
H1414 H 0.30001 0.76296 0.6526 0.0
H1415 H 0.31507 0.74825 0.66976 0.0
H1416 H 0.25397 0.77266 0.69234 0.0
H1417 H 0.28588 0.72676 0.72302 0.0
H1418 H 0.2377 0.73396 0.63403 0.0
H1419 H 0.2605 0.76095 0.63924 0.0
H1420 H 0.23528 0.76028 0.65228 0.0
H1421 H 0.27442 0.68089 0.67298 0.0
H1422 H 0.29059 0.69266 0.70171 0.0
H1423 H 0.3023 0.70117 0.67648 0.0
C1424 C 0.62852 0.07782 0.79939 0.0
C1425 C 0.61184 0.06064 0.78303 0.0
C1426 C 0.62338 0.08845 0.82026 0.0
C1427 C 0.60065 0.0822 0.82439 0.0
C1428 C 0.58317 0.06776 0.80627 0.0
C1429 C 0.58902 0.05675 0.78574 0.0
C1430 C 0.64282 0.10361 0.83882 0.0
C1431 C 0.55856 0.06184 0.80965 0.0
C1432 C 0.58977 0.07004 0.88384 0.0
C1433 C 0.58376 0.09 0.89372 0.0
C1434 C 0.59607 0.06783 0.86159 0.0
C1435 C 0.5959 0.0858 0.84869 0.0
C1436 C 0.5909 0.10652 0.8589 0.0
C1437 C 0.585 0.10844 0.88143 0.0
C1438 C 0.60234 0.04589 0.85167 0.0
C1439 C 0.59132 0.12634 0.84588 0.0
H1440 H 0.64592 0.08187 0.79677 0.0
H1441 H 0.57599 0.04379 0.77283 0.0
H1442 H 0.63762 0.11652 0.85118 0.0
H1443 H 0.64922 0.09198 0.84896 0.0
H1444 H 0.65714 0.11333 0.83085 0.0
H1445 H 0.54701 0.05494 0.79273 0.0
H1446 H 0.55509 0.04811 0.82051 0.0
H1447 H 0.55468 0.07765 0.81893 0.0
H1448 H 0.58869 0.05562 0.8931 0.0
H1449 H 0.58091 0.12418 0.88925 0.0
H1450 H 0.61929 0.0509 0.846 0.0
H1451 H 0.58985 0.03563 0.83609 0.0
H1452 H 0.60277 0.03421 0.86448 0.0
H1453 H 0.60843 0.13315 0.84104 0.0
H1454 H 0.58696 0.14127 0.85633 0.0
H1455 H 0.57912 0.1196 0.82941 0.0
C1456 C 0.26055 0.3252 0.10003 0.0
C1457 C 0.28228 0.32864 0.09346 0.0
C1458 C 0.25608 0.31864 0.12157 0.0
C1459 C 0.27384 0.31598 0.13723 0.0
C1460 C 0.29561 0.3189 0.13043 0.0
C1461 C 0.29945 0.32489 0.1087 0.0
C1462 C 0.2325 0.31523 0.12788 0.0
C1463 C 0.3152 0.31657 0.14651 0.0
C1464 C 0.27449 0.32515 0.20331 0.0
C1465 C 0.2687 0.30187 0.20708 0.0
C1466 C 0.27493 0.32993 0.18061 0.0
C1467 C 0.27018 0.311 0.16109 0.0
C1468 C 0.26394 0.28743 0.1648 0.0
C1469 C 0.26298 0.28316 0.18766 0.0
C1470 C 0.28128 0.35532 0.17759 0.0
C1471 C 0.2593 0.26671 0.14474 0.0
H1472 H 0.24712 0.32804 0.08855 0.0
H1473 H 0.31641 0.32764 0.10415 0.0
H1474 H 0.22641 0.2979 0.13313 0.0
H1475 H 0.2329 0.32912 0.14305 0.0
H1476 H 0.22013 0.31606 0.11319 0.0
H1477 H 0.33086 0.31845 0.13831 0.0
H1478 H 0.31904 0.33035 0.16265 0.0
H1479 H 0.31057 0.29913 0.15178 0.0
H1480 H 0.27886 0.3397 0.21819 0.0
H1481 H 0.25879 0.26512 0.19041 0.0
H1482 H 0.26858 0.3578 0.16425 0.0
H1483 H 0.29795 0.35984 0.1713 0.0
H1484 H 0.28242 0.36786 0.19414 0.0
H1485 H 0.24648 0.26789 0.13072 0.0
H1486 H 0.25315 0.24948 0.15021 0.0
H1487 H 0.27511 0.26712 0.13715 0.0
C1488 C 0.205 0.94847 0.98586 0.0
C1489 C 0.2256 0.95108 -0.00039 0.0
C1490 C 0.18918 0.959 -0.00501 0.0
C1491 C 0.19462 0.97253 0.01806 0.0
C1492 C 0.21531 0.97471 0.03201 0.0
C1493 C 0.23057 0.96394 0.02256 0.0
C1494 C 0.16702 0.95621 0.9799 0.0
C1495 C 0.22171 0.9891 0.05662 0.0
C1496 C 0.17138 0.02405 0.03311 0.0
C1497 C 0.15396 0.01461 0.04526 0.0
C1498 C 0.18439 0.0102 0.02366 0.0
C1499 C 0.18003 0.98661 0.02698 0.0
C1500 C 0.16284 0.97722 0.03992 0.0
C1501 C 0.14967 0.99134 0.04867 0.0
C1502 C 0.20249 0.02065 0.00973 0.0
C1503 C 0.15811 0.95225 0.04411 0.0
H1504 H 0.20132 0.93827 0.96817 0.0
H1505 H 0.2467 0.96588 0.03302 0.0
H1506 H 0.15253 0.94959 0.98917 0.0
H1507 H 0.16635 0.97367 0.97637 0.0
H1508 H 0.16476 0.94383 0.96298 0.0
H1509 H 0.23775 0.98752 0.06562 0.0
H1510 H 0.22388 0.00804 0.05626 0.0
H1511 H 0.20795 0.98337 0.06705 0.0
H1512 H 0.17402 0.0419 0.03004 0.0
H1513 H 0.13568 0.98411 0.05765 0.0
H1514 H 0.19924 0.00966 0.99192 0.0
H1515 H 0.2194 0.02067 0.01809 0.0
H1516 H 0.20315 0.03906 0.0082 0.0
H1517 H 0.15179 0.93952 0.02726 0.0
H1518 H 0.14527 0.94834 0.05598 0.0
H1519 H 0.17399 0.94922 0.05174 0.0
C1520 C 0.69482 0.63312 0.03483 0.0
C1521 C 0.70074 0.64739 0.01836 0.0
C1522 C 0.67244 0.61902 0.03379 0.0
C1523 C 0.65543 0.61913 0.01585 0.0
C1524 C 0.66118 0.6336 -0.00077 0.0
C1525 C 0.68379 0.64757 0.00067 0.0
C1526 C 0.66702 0.60393 0.05191 0.0
C1527 C 0.64349 0.63415 0.97984 0.0
C1528 C 0.60309 0.56558 0.00451 0.0
C1529 C 0.58791 0.57478 0.01639 0.0
C1530 C 0.62477 0.58015 0.00316 0.0
C1531 C 0.63164 0.60418 0.01479 0.0
C1532 C 0.61625 0.61347 0.02682 0.0
C1533 C 0.5944 0.59874 0.02708 0.0
C1534 C 0.6404 0.56978 0.98952 0.0
C1535 C 0.62311 0.63874 0.04007 0.0
H1536 H 0.70775 0.63275 0.04853 0.0
H1537 H 0.68821 0.65848 0.98785 0.0
H1538 H 0.65359 0.60854 0.06122 0.0
H1539 H 0.66035 0.585 0.04331 0.0
H1540 H 0.68213 0.60613 0.06495 0.0
H1541 H 0.65071 0.64618 0.9682 0.0
H1542 H 0.63568 0.61609 0.9692 0.0
H1543 H 0.62966 0.64001 0.98727 0.0
H1544 H 0.59787 0.54708 -0.00401 0.0
H1545 H 0.58257 0.60576 0.03633 0.0
H1546 H 0.6553 0.56953 0.00156 0.0
H1547 H 0.64691 0.58093 0.97692 0.0
H1548 H 0.63178 0.55146 0.97979 0.0
H1549 H 0.63732 0.64144 0.05432 0.0
H1550 H 0.60886 0.64345 0.04781 0.0
H1551 H 0.6293 0.65108 0.02839 0.0
C1552 C 0.65585 0.47732 0.25732 0.0
C1553 C 0.66626 0.49685 0.27544 0.0
C1554 C 0.66673 0.45988 0.25101 0.0
C1555 C 0.68856 0.46224 0.26297 0.0
C1556 C 0.69965 0.48268 0.28025 0.0
C1557 C 0.68834 0.49963 0.28632 0.0
C1558 C 0.6543 0.43832 0.23256 0.0
C1559 C 0.72302 0.48609 0.29325 0.0
C1560 C 0.70889 0.40939 0.27161 0.0
C1561 C 0.72495 0.41002 0.25626 0.0
C1562 C 0.69607 0.42553 0.27309 0.0
C1563 C 0.69935 0.44277 0.25887 0.0
C1564 C 0.71472 0.44277 0.24254 0.0
C1565 C 0.72734 0.42641 0.24144 0.0
C1566 C 0.67972 0.42479 0.29061 0.0
C1567 C 0.71866 0.46081 0.22705 0.0
H1568 H 0.63871 0.47497 0.24899 0.0
H1569 H 0.69654 0.51479 0.30022 0.0
H1570 H 0.66573 0.43398 0.22024 0.0
H1571 H 0.64854 0.42291 0.241 0.0
H1572 H 0.63919 0.44077 0.22252 0.0
H1573 H 0.73004 0.50384 0.30476 0.0
H1574 H 0.7222 0.47249 0.30418 0.0
H1575 H 0.73497 0.48379 0.28079 0.0
H1576 H 0.70662 0.39648 0.2828 0.0
H1577 H 0.73981 0.42714 0.22964 0.0
H1578 H 0.66279 0.42451 0.28208 0.0
H1579 H 0.68596 0.44097 0.30449 0.0
H1580 H 0.67771 0.40912 0.29893 0.0
H1581 H 0.70222 0.46153 0.2182 0.0
H1582 H 0.72925 0.45688 0.21359 0.0
H1583 H 0.72737 0.47861 0.23784 0.0
C1584 C 0.84821 0.47965 0.52817 0.0
C1585 C 0.84086 0.45491 0.52238 0.0
C1586 C 0.87055 0.49213 0.52695 0.0
C1587 C 0.88547 0.47947 0.51896 0.0
C1588 C 0.87801 0.45448 0.51269 0.0
C1589 C 0.85582 0.44242 0.51498 0.0
C1590 C 0.87829 0.51873 0.53462 0.0
C1591 C 0.89345 0.44052 0.50359 0.0
C1592 C 0.93977 0.5113 0.49908 0.0
C1593 C 0.95564 0.51213 0.5181 0.0
C1594 C 0.91654 0.50101 0.49917 0.0
C1595 C 0.90946 0.49213 0.519 0.0
C1596 C 0.92549 0.49424 0.5387 0.0
C1597 C 0.94847 0.50396 0.53784 0.0
C1598 C 0.89978 0.49854 0.47773 0.0
C1599 C 0.91851 0.48554 0.56039 0.0
H1600 H 0.83651 0.48922 0.53395 0.0
H1601 H 0.85005 0.42334 0.51028 0.0
H1602 H 0.89233 0.52396 0.54955 0.0
H1603 H 0.88505 0.52711 0.52029 0.0
H1604 H 0.86436 0.52588 0.53999 0.0
H1605 H 0.88437 0.42139 0.49757 0.0
H1606 H 0.90092 0.44749 0.48885 0.0
H1607 H 0.90772 0.44245 0.5175 0.0
H1608 H 0.94559 0.51759 0.48383 0.0
H1609 H 0.96094 0.50492 0.55257 0.0
H1610 H 0.88553 0.50538 0.48251 0.0
H1611 H 0.89241 0.47954 0.46957 0.0
H1612 H 0.90783 0.50807 0.4646 0.0
H1613 H 0.90483 0.49272 0.56637 0.0
H1614 H 0.93295 0.49065 0.57492 0.0
H1615 H 0.91168 0.46598 0.55641 0.0
C1616 C 0.33547 0.07162 0.30664 0.0
C1617 C 0.35846 0.07897 0.30417 0.0
C1618 C 0.31993 0.08148 0.29613 0.0
C1619 C 0.32788 0.09957 0.28362 0.0
C1620 C 0.35105 0.1067 0.28074 0.0
C1621 C 0.36604 0.09602 0.29082 0.0
C1622 C 0.29522 0.07311 0.29901 0.0
C1623 C 0.36024 0.12643 0.26806 0.0
C1624 C 0.28871 0.12203 0.24552 0.0
C1625 C 0.28837 0.14243 0.26075 0.0
C1626 C 0.30089 0.10719 0.25295 0.0
C1627 C 0.31275 0.11311 0.27603 0.0
C1628 C 0.3115 0.13314 0.2917 0.0
C1629 C 0.29924 0.14752 0.28384 0.0
C1630 C 0.3018 0.08578 0.23597 0.0
C1631 C 0.32395 0.14003 0.31644 0.0
H1632 H 0.32963 0.05807 0.31667 0.0
H1633 H 0.38388 0.1016 0.28898 0.0
H1634 H 0.29074 0.08727 0.31052 0.0
H1635 H 0.28419 0.06925 0.2819 0.0
H1636 H 0.29136 0.05701 0.30675 0.0
H1637 H 0.37836 0.12874 0.26608 0.0
H1638 H 0.35014 0.12294 0.25049 0.0
H1639 H 0.35877 0.14331 0.27785 0.0
H1640 H 0.28023 0.11823 0.22767 0.0
H1641 H 0.2986 0.16321 0.29562 0.0
H1642 H 0.29682 0.06975 0.24368 0.0
H1643 H 0.31946 0.08798 0.23237 0.0
H1644 H 0.29049 0.08284 0.21916 0.0
H1645 H 0.31888 0.12514 0.3257 0.0
H1646 H 0.32056 0.15577 0.32654 0.0
H1647 H 0.34253 0.14401 0.31625 0.0
C1648 C 0.34442 0.17216 0.52962 0.0
C1649 C 0.32177 0.16029 0.53083 0.0
C1650 C 0.36188 0.16157 0.53341 0.0
C1651 C 0.35651 0.13838 0.5381 0.0
C1652 C 0.33382 0.12673 0.54026 0.0
C1653 C 0.31681 0.13788 0.53679 0.0
C1654 C 0.38591 0.17484 0.53148 0.0
C1655 C 0.32725 0.10196 0.54508 0.0
C1656 C 0.39272 0.09805 0.52018 0.0
C1657 C 0.40445 0.09762 0.54175 0.0
C1658 C 0.37758 0.11175 0.51871 0.0
C1659 C 0.37415 0.12556 0.53928 0.0
C1660 C 0.38654 0.12586 0.561 0.0
C1661 C 0.40143 0.11182 0.56199 0.0
C1662 C 0.36463 0.11079 0.4952 0.0
C1663 C 0.3837 0.14064 0.58328 0.0
H1664 H 0.34845 0.18949 0.52508 0.0
H1665 H 0.29937 0.12851 0.53772 0.0
H1666 H 0.39788 0.17415 0.54656 0.0
H1667 H 0.39097 0.16636 0.51547 0.0
H1668 H 0.38777 0.19366 0.53067 0.0
H1669 H 0.30915 0.09586 0.54752 0.0
H1670 H 0.33012 0.08953 0.53031 0.0
H1671 H 0.33806 0.10106 0.56095 0.0
H1672 H 0.3948 0.08702 0.50448 0.0
H1673 H 0.4107 0.1119 0.57868 0.0
H1674 H 0.36727 0.1289 0.49168 0.0
H1675 H 0.34615 0.10316 0.49519 0.0
H1676 H 0.36987 0.09996 0.48076 0.0
H1677 H 0.38666 0.15932 0.58141 0.0
H1678 H 0.39554 0.14004 0.59854 0.0
H1679 H 0.36603 0.13422 0.58685 0.0
C1680 C 0.6608 0.61689 0.28096 0.0
C1681 C 0.66836 0.60633 0.29864 0.0
C1682 C 0.67432 0.63837 0.27668 0.0
C1683 C 0.69602 0.64951 0.29025 0.0
C1684 C 0.70378 0.63888 0.30799 0.0
C1685 C 0.68988 0.61756 0.31202 0.0
C1686 C 0.66535 0.64923 0.25772 0.0
C1687 C 0.72681 0.65008 0.32281 0.0
C1688 C 0.74077 0.69509 0.2682 0.0
C1689 C 0.73913 0.71645 0.28075 0.0
C1690 C 0.72657 0.67318 0.27076 0.0
C1691 C 0.71046 0.67259 0.28639 0.0
C1692 C 0.70871 0.69409 0.29906 0.0
C1693 C 0.72298 0.71569 0.29604 0.0
C1694 C 0.72888 0.65066 0.25684 0.0
C1695 C 0.69191 0.69431 0.31602 0.0
H1696 H 0.64424 0.60843 0.27051 0.0
H1697 H 0.69604 0.60956 0.32561 0.0
H1698 H 0.66428 0.66705 0.2653 0.0
H1699 H 0.6772 0.65154 0.24472 0.0
H1700 H 0.64825 0.63827 0.24855 0.0
H1701 H 0.73054 0.63936 0.33562 0.0
H1702 H 0.74029 0.65237 0.31152 0.0
H1703 H 0.72771 0.66792 0.33245 0.0
H1704 H 0.75306 0.69546 0.25623 0.0
H1705 H 0.72155 0.73205 0.3059 0.0
H1706 H 0.71232 0.64011 0.24622 0.0
H1707 H 0.73372 0.63969 0.26883 0.0
H1708 H 0.74183 0.65411 0.24502 0.0
H1709 H 0.67444 0.68465 0.307 0.0
H1710 H 0.69226 0.71255 0.32409 0.0
H1711 H 0.69572 0.68505 0.33012 0.0
C1712 C 0.85929 0.46512 0.79078 0.0
C1713 C 0.86546 0.47452 0.81472 0.0
C1714 C 0.84978 0.44078 0.78275 0.0
C1715 C 0.84701 0.42582 0.79918 0.0
C1716 C 0.8547 0.43514 0.82323 0.0
C1717 C 0.86352 0.45957 0.8308 0.0
C1718 C 0.84152 0.43139 0.75699 0.0
C1719 C 0.85288 0.41937 0.84102 0.0
C1720 C 0.79875 0.37004 0.79013 0.0
C1721 C 0.80992 0.35317 0.78397 0.0
C1722 C 0.81047 0.39403 0.79361 0.0
C1723 C 0.83393 0.40082 0.7918 0.0
C1724 C 0.84509 0.38363 0.78512 0.0
C1725 C 0.83271 0.3598 0.78086 0.0
C1726 C 0.79794 0.41207 0.79981 0.0
C1727 C 0.87016 0.39031 0.78342 0.0
H1728 H 0.86111 0.47688 0.77841 0.0
H1729 H 0.86899 0.46699 0.84926 0.0
H1730 H 0.84561 0.41469 0.75097 0.0
H1731 H 0.82275 0.42745 0.7537 0.0
H1732 H 0.84897 0.4444 0.74632 0.0
H1733 H 0.86209 0.42914 0.85855 0.0
H1734 H 0.83475 0.41167 0.84251 0.0
H1735 H 0.85984 0.40446 0.83537 0.0
H1736 H 0.78092 0.36444 0.79204 0.0
H1737 H 0.84099 0.34629 0.77593 0.0
H1738 H 0.80114 0.42528 0.78838 0.0
H1739 H 0.80428 0.42171 0.81807 0.0
H1740 H 0.77931 0.40381 0.79808 0.0
H1741 H 0.87415 0.40286 0.77142 0.0
H1742 H 0.87591 0.37466 0.77712 0.0
H1743 H 0.88009 0.39941 0.80082 0.0
C1744 C 0.06405 0.88333 0.08252 0.0
C1745 C 0.0559 0.86109 0.06737 0.0
C1746 C 0.06187 0.90439 0.07546 0.0
C1747 C 0.05184 0.90372 0.05235 0.0
C1748 C 0.04492 0.88149 0.03659 0.0
C1749 C 0.0465 0.86062 0.04436 0.0
C1750 C 0.06896 0.92716 0.09331 0.0
C1751 C 0.03501 0.8795 0.01156 0.0
C1752 C 0.02097 0.94992 0.0398 0.0
C1753 C 0.03771 0.96733 0.03266 0.0
C1754 C 0.02546 0.92966 0.04651 0.0
C1755 C 0.04705 0.9257 0.04523 0.0
C1756 C 0.06384 0.94291 0.03729 0.0
C1757 C 0.05918 0.9636 0.03171 0.0
C1758 C 0.00707 0.91266 0.05549 0.0
C1759 C 0.08676 0.93942 0.03444 0.0
H1760 H 0.07068 0.88408 0.1005 0.0
H1761 H 0.03973 0.84367 0.03248 0.0
H1762 H 0.08089 0.94124 0.08679 0.0
H1763 H 0.0538 0.93316 0.09631 0.0
H1764 H 0.07721 0.9252 0.11025 0.0
H1765 H 0.03394 0.86215 0.00061 0.0
H1766 H 0.01764 0.88149 0.01078 0.0
H1767 H 0.04543 0.89381 0.00397 0.0
H1768 H 0.00439 0.95253 0.0409 0.0
H1769 H 0.0723 0.9767 0.02614 0.0
H1770 H 0.01363 0.91031 0.07296 0.0
H1771 H 0.00195 0.89507 0.04371 0.0
H1772 H 0.99175 0.91883 0.05687 0.0
H1773 H 0.09652 0.94095 0.05179 0.0
H1774 H 0.09691 0.95266 0.02545 0.0
H1775 H 0.08466 0.92143 0.02433 0.0
C1776 C 0.92629 0.2901 0.89916 0.0
C1777 C 0.92994 0.26806 0.89972 0.0
C1778 C 0.90689 0.29199 0.88559 0.0
C1779 C 0.89117 0.27144 0.87131 0.0
C1780 C 0.89473 0.2491 0.87209 0.0
C1781 C 0.91382 0.24767 0.88652 0.0
C1782 C 0.90361 0.31611 0.88599 0.0
C1783 C 0.87899 0.22679 0.85675 0.0
C1784 C 0.83221 0.27309 0.84494 0.0
C1785 C 0.8354 0.27628 0.82216 0.0
C1786 C 0.85006 0.2715 0.86106 0.0
C1787 C 0.8719 0.27341 0.85453 0.0
C1788 C 0.87527 0.27694 0.83168 0.0
C1789 C 0.85708 0.27819 0.81586 0.0
C1790 C 0.84553 0.26772 0.88513 0.0
C1791 C 0.89819 0.27935 0.82386 0.0
H1792 H 0.93882 0.30594 0.90913 0.0
H1793 H 0.91684 0.23065 0.88646 0.0
H1794 H 0.90591 0.32119 0.86887 0.0
H1795 H 0.88607 0.31575 0.88893 0.0
H1796 H 0.91583 0.3299 0.89981 0.0
H1797 H 0.88343 0.21071 0.86006 0.0
H1798 H 0.86117 0.22496 0.85957 0.0
H1799 H 0.87979 0.22778 0.83814 0.0
H1800 H 0.81565 0.2716 0.85018 0.0
H1801 H 0.85999 0.28092 0.7985 0.0
H1802 H 0.85742 0.2822 0.89854 0.0
H1803 H 0.84862 0.25094 0.88806 0.0
H1804 H 0.82782 0.26702 0.88775 0.0
H1805 H 0.91119 0.29455 0.83542 0.0
H1806 H 0.89813 0.28204 0.80559 0.0
H1807 H 0.90346 0.26326 0.82526 0.0
C1808 C 0.56338 0.22704 0.58077 0.0
C1809 C 0.54761 0.23577 0.56872 0.0
C1810 C 0.56374 0.2033 0.57446 0.0
C1811 C 0.54817 0.18765 0.55536 0.0
C1812 C 0.53319 0.19678 0.54225 0.0
C1813 C 0.53294 0.22047 0.54917 0.0
C1814 C 0.57996 0.1946 0.58913 0.0
C1815 C 0.51658 0.18117 0.52149 0.0
C1816 C 0.5554 0.12624 0.53179 0.0
C1817 C 0.53983 0.11128 0.54268 0.0
C1818 C 0.55839 0.15101 0.53565 0.0
C1819 C 0.54565 0.16132 0.55087 0.0
C1820 C 0.53006 0.14629 0.56194 0.0
C1821 C 0.52735 0.12175 0.55772 0.0
C1822 C 0.57504 0.16614 0.52324 0.0
C1823 C 0.51607 0.15613 0.57835 0.0
H1824 H 0.57477 0.23843 0.59595 0.0
H1825 H 0.52073 0.22683 0.53954 0.0
H1826 H 0.57023 0.1819 0.59887 0.0
H1827 H 0.58931 0.18505 0.57787 0.0
H1828 H 0.59247 0.20927 0.60188 0.0
H1829 H 0.50817 0.19145 0.51136 0.0
H1830 H 0.52533 0.17133 0.50974 0.0
H1831 H 0.50327 0.16791 0.52753 0.0
H1832 H 0.56513 0.11859 0.52008 0.0
H1833 H 0.51524 0.11071 0.56637 0.0
H1834 H 0.58792 0.18027 0.53613 0.0
H1835 H 0.56601 0.17499 0.51197 0.0
H1836 H 0.58393 0.15569 0.51226 0.0
H1837 H 0.52742 0.16986 0.59279 0.0
H1838 H 0.505 0.14226 0.58597 0.0
H1839 H 0.50517 0.16472 0.56894 0.0
C1840 C 0.57155 0.79314 0.40733 0.0
C1841 C 0.5575 0.76968 0.40079 0.0
C1842 C 0.59163 0.80073 0.39762 0.0
C1843 C 0.59783 0.78449 0.381 0.0
C1844 C 0.58412 0.76064 0.37504 0.0
C1845 C 0.56421 0.75358 0.38493 0.0
C1846 C 0.60571 0.82631 0.40451 0.0
C1847 C 0.5901 0.74264 0.35759 0.0
C1848 C 0.63257 0.80318 0.33367 0.0
C1849 C 0.65372 0.80032 0.34149 0.0
C1850 C 0.61469 0.79937 0.34698 0.0
C1851 C 0.61781 0.79235 0.36867 0.0
C1852 C 0.63939 0.79046 0.37718 0.0
C1853 C 0.65704 0.79445 0.36352 0.0
C1854 C 0.59207 0.80181 0.33726 0.0
C1855 C 0.64361 0.78338 0.40035 0.0
H1856 H 0.56654 0.80575 0.41953 0.0
H1857 H 0.55363 0.73539 0.37984 0.0
H1858 H 0.624 0.82771 0.4086 0.0
H1859 H 0.60382 0.83531 0.38967 0.0
H1860 H 0.60046 0.83584 0.41984 0.0
H1861 H 0.57831 0.72456 0.35566 0.0
H1862 H 0.58957 0.74778 0.34027 0.0
H1863 H 0.60766 0.74214 0.36298 0.0
H1864 H 0.62963 0.8075 0.31665 0.0
H1865 H 0.67341 0.79269 0.37003 0.0
H1866 H 0.586 0.81314 0.35051 0.0
H1867 H 0.57924 0.78416 0.33287 0.0
H1868 H 0.59297 0.80955 0.32131 0.0
H1869 H 0.63804 0.79454 0.4142 0.0
H1870 H 0.66181 0.78492 0.40557 0.0
H1871 H 0.63345 0.76479 0.39929 0.0
C1872 C 0.02299 0.2603 0.42219 0.0
C1873 C 0.02803 0.2576 0.39934 0.0
C1874 C 0.02236 0.24253 0.43526 0.0
C1875 C 0.0263 0.22115 0.42505 0.0
C1876 C 0.03221 0.21864 0.40223 0.0
C1877 C 0.03322 0.23702 0.3897 0.0
C1878 C 0.01633 0.2462 0.4596 0.0
C1879 C 0.03608 0.19599 0.3905 0.0
C1880 C 0.0374 0.18071 0.46601 0.0
C1881 C 0.01561 0.16508 0.46474 0.0
C1882 C 0.04123 0.19869 0.45285 0.0
C1883 C 0.02291 0.20107 0.43786 0.0
C1884 C 0.00097 0.18501 0.43612 0.0
C1885 C 0.99758 0.16733 0.44962 0.0
C1886 C 0.0648 0.21556 0.45545 0.0
C1887 C 0.98095 0.18671 0.42024 0.0
H1888 H 0.01871 0.27608 0.42957 0.0
H1889 H 0.03655 0.23463 0.37183 0.0
H1890 H -0.00064 0.23397 0.45988 0.0
H1891 H 0.02875 0.24211 0.47203 0.0
H1892 H 0.01593 0.26461 0.46582 0.0
H1893 H 0.04231 0.19748 0.37356 0.0
H1894 H 0.04855 0.19093 0.40199 0.0
H1895 H 0.01991 0.18147 0.38732 0.0
H1896 H 0.05139 0.17929 0.47779 0.0
H1897 H 0.98076 0.15514 0.44824 0.0
H1898 H 0.06457 0.23379 0.4627 0.0
H1899 H 0.07047 0.21575 0.43814 0.0
H1900 H 0.07742 0.21083 0.46712 0.0
H1901 H 0.97741 0.20375 0.4262 0.0
H1902 H 0.96532 0.17207 0.41982 0.0
H1903 H 0.98493 0.18642 0.40221 0.0
C1904 C 0.59597 0.25996 0.25862 0.0
C1905 C 0.58536 0.26132 0.23673 0.0
C1906 C 0.61933 0.26158 0.26284 0.0
C1907 C 0.63284 0.26461 0.24479 0.0
C1908 C 0.62222 0.26566 0.22254 0.0
C1909 C 0.59877 0.26406 0.2188 0.0
C1910 C 0.62963 0.26034 0.28684 0.0
C1911 C 0.63572 0.26866 0.20266 0.0
C1912 C 0.69748 0.2926 0.26219 0.0
C1913 C 0.70594 0.27288 0.25934 0.0
C1914 C 0.67397 0.29015 0.25749 0.0
C1915 C 0.65813 0.2674 0.24948 0.0
C1916 C 0.66654 0.24741 0.24648 0.0
C1917 C 0.69016 0.25036 0.2515 0.0
C1918 C 0.66607 0.31203 0.26125 0.0
C1919 C 0.65053 0.2228 0.23792 0.0
H1920 H 0.58601 0.25779 0.2727 0.0
H1921 H 0.59097 0.26506 0.20179 0.0
H1922 H 0.63765 0.24579 0.28563 0.0
H1923 H 0.6432 0.27703 0.29448 0.0
H1924 H 0.61685 0.25741 0.29889 0.0
H1925 H 0.62501 0.26847 0.18624 0.0
H1926 H 0.64951 0.28565 0.2073 0.0
H1927 H 0.64391 0.25431 0.19948 0.0
H1928 H 0.70928 0.31013 0.26824 0.0
H1929 H 0.69629 0.23493 0.24907 0.0
H1930 H 0.65431 0.31079 0.27438 0.0
H1931 H 0.65652 0.3134 0.24477 0.0
H1932 H 0.68042 0.32847 0.26732 0.0
H1933 H 0.63836 0.21863 0.25036 0.0
H1934 H 0.65964 0.20912 0.23586 0.0
H1935 H 0.64043 0.22178 0.22087 0.0
C1936 C 0.54953 0.88842 0.90078 0.0
C1937 C 0.53045 0.86963 0.9017 0.0
C1938 C 0.55384 0.911 0.9154 0.0
C1939 C 0.53871 0.91506 0.93128 0.0
C1940 C 0.51984 0.89597 0.93263 0.0
C1941 C 0.51606 0.87376 0.91808 0.0
C1942 C 0.57438 0.93067 0.91358 0.0
C1943 C 0.50317 0.89909 0.94917 0.0
C1944 C 0.55354 0.96622 0.98433 0.0
C1945 C 0.54242 0.9819 0.97665 0.0
C1946 C 0.55353 0.94513 0.96946 0.0
C1947 C 0.54193 0.93916 0.94621 0.0
C1948 C 0.53123 0.95523 0.93816 0.0
C1949 C 0.53169 0.97632 0.95334 0.0
C1950 C 0.56525 0.92876 0.97895 0.0
C1951 C 0.51837 0.94963 0.91372 0.0
H1952 H 0.56082 0.88565 0.88834 0.0
H1953 H 0.50134 0.85957 0.91939 0.0
H1954 H 0.56888 0.94516 0.90753 0.0
H1955 H 0.58485 0.93819 0.93102 0.0
H1956 H 0.58511 0.92457 0.90131 0.0
H1957 H 0.48951 0.88243 0.94841 0.0
H1958 H 0.51216 0.9054 0.96736 0.0
H1959 H 0.49518 0.9127 0.94488 0.0
H1960 H 0.56199 0.9702 0.0022 0.0
H1961 H 0.52297 0.98811 0.94708 0.0
H1962 H 0.57656 0.92365 0.96685 0.0
H1963 H 0.55239 0.91229 0.9804 0.0
H1964 H 0.57548 0.93692 -0.00356 0.0
H1965 H 0.52926 0.94518 0.90082 0.0
H1966 H 0.51241 0.96457 0.90944 0.0
H1967 H 0.50338 0.93391 0.9118 0.0
C1968 C 0.92805 0.74781 0.71114 0.0
C1969 C 0.94787 0.75268 0.72742 0.0
C1970 C 0.90727 0.75028 0.718 0.0
C1971 C 0.906 0.75863 0.74178 0.0
C1972 C 0.92597 0.76349 0.75833 0.0
C1973 C 0.94636 0.76016 0.75106 0.0
C1974 C 0.88668 0.74436 0.69957 0.0
C1975 C 0.92605 0.77304 0.78374 0.0
C1976 C 0.85939 0.7891 0.75483 0.0
C1977 C 0.84231 0.77137 0.76128 0.0
C1978 C 0.87994 0.78526 0.74869 0.0
C1979 C 0.88416 0.76312 0.74906 0.0
C1980 C 0.86717 0.74525 0.75591 0.0
C1981 C 0.8466 0.74948 0.76174 0.0
C1982 C 0.89715 0.80501 0.74155 0.0
C1983 C 0.87063 0.72143 0.75692 0.0
H1984 H 0.92878 0.74211 0.69285 0.0
H1985 H 0.9615 0.76447 0.76387 0.0
H1986 H 0.8721 0.73167 0.70457 0.0
H1987 H 0.88167 0.76059 0.69817 0.0
H1988 H 0.8898 0.73657 0.68216 0.0
H1989 H 0.94258 0.77541 0.79461 0.0
H1990 H 0.92249 0.79039 0.78564 0.0
H1991 H 0.9124 0.76095 0.79057 0.0
H1992 H 0.85658 0.8061 0.75422 0.0
H1993 H 0.83384 0.73554 0.7667 0.0
H1994 H 0.89975 0.79934 0.72335 0.0
H1995 H 0.91379 0.80917 0.75283 0.0
H1996 H 0.8918 0.82138 0.74268 0.0
H1997 H 0.87254 0.71279 0.73935 0.0
H1998 H 0.85628 0.70953 0.76309 0.0
H1999 H 0.88654 0.72366 0.76877 0.0
C2000 C 0.0645 0.04851 0.84978 0.0
C2001 C 0.08594 0.04564 0.84692 0.0
C2002 C 0.05569 0.04613 0.87077 0.0
C2003 C 0.06871 0.04094 0.8894 0.0
C2004 C 0.09054 0.03857 0.88674 0.0
C2005 C 0.09881 0.04087 0.86559 0.0
C2006 C 0.03231 0.0487 0.87286 0.0
C2007 C 0.10506 0.0332 0.90616 0.0
C2008 C 0.05912 0.05558 0.9523 0.0
C2009 C 0.04737 0.03334 0.95634 0.0
C2010 C 0.06527 0.05841 0.93036 0.0
C2011 C 0.05995 0.03846 0.91195 0.0
C2012 C 0.04777 0.01599 0.91574 0.0
C2013 C 0.04146 0.01372 0.93784 0.0
C2014 C 0.07785 0.08275 0.92699 0.0
C2015 C 0.04183 -0.00575 0.89659 0.0
H2016 H 0.05428 0.05188 0.83537 0.0
H2017 H 0.11528 0.03842 0.86358 0.0
H2018 H 0.02098 0.03198 0.8759 0.0
H2019 H 0.03319 0.06273 0.88809 0.0
H2020 H 0.02451 0.05315 0.85697 0.0
H2021 H 0.12168 0.03193 0.90135 0.0
H2022 H 0.10827 0.04721 0.92202 0.0
H2023 H 0.09597 0.01625 0.91075 0.0
H2024 H 0.06338 0.07096 0.96631 0.0
H2025 H 0.03223 -0.00348 0.94074 0.0
H2026 H 0.06903 0.08715 0.9117 0.0
H2027 H 0.09519 0.08305 0.92337 0.0
H2028 H 0.07933 0.09669 0.94254 0.0
H2029 H 0.03234 -0.00283 0.88084 0.0
H2030 H 0.03141 0.9783 0.90195 0.0
H2031 H 0.05763 0.99079 0.89156 0.0
C2032 C 0.79293 0.3503 0.54057 0.0
C2033 C 0.77336 0.35781 0.5383 0.0
C2034 C 0.80035 0.34429 0.5613 0.0
C2035 C 0.78735 0.3449 0.57971 0.0
C2036 C 0.76683 0.35102 0.57704 0.0
C2037 C 0.76008 0.35751 0.55629 0.0
C2038 C 0.82245 0.33797 0.56373 0.0
C2039 C 0.75234 0.35125 0.59626 0.0
C2040 C 0.79858 0.30931 0.62424 0.0
C2041 C 0.81298 0.32699 0.64211 0.0
C2042 C 0.78949 0.31504 0.60404 0.0
C2043 C 0.79528 0.33894 0.60172 0.0
C2044 C 0.80959 0.35694 0.61987 0.0
C2045 C 0.81816 0.35071 0.64009 0.0
C2046 C 0.77394 0.29554 0.5851 0.0
C2047 C 0.81629 0.38259 0.61764 0.0
H2048 H 0.80298 0.34997 0.52651 0.0
H2049 H 0.74472 0.36291 0.55439 0.0
H2050 H 0.8343 0.34998 0.57898 0.0
H2051 H 0.8193 0.3197 0.56691 0.0
H2052 H 0.83091 0.3392 0.54797 0.0
H2053 H 0.73668 0.35613 0.59117 0.0
H2054 H 0.74737 0.33355 0.60096 0.0
H2055 H 0.76222 0.36403 0.61213 0.0
H2056 H 0.79424 0.29101 0.62621 0.0
H2057 H 0.82919 0.36426 0.65414 0.0
H2058 H 0.78212 0.29408 0.56917 0.0
H2059 H 0.75786 0.29973 0.58034 0.0
H2060 H 0.7698 0.2781 0.59045 0.0
H2061 H 0.82655 0.38486 0.60327 0.0
H2062 H 0.82638 0.39451 0.63395 0.0
H2063 H 0.80095 0.38817 0.61312 0.0
C2064 C 0.42106 0.01754 0.38184 0.0
C2065 C 0.43555 0.02145 0.36509 0.0
C2066 C 0.42708 0.00787 0.40084 0.0
C2067 C 0.44852 0.0037 0.4035 0.0
C2068 C 0.46082 0.00329 0.38451 0.0
C2069 C 0.45415 0.01227 0.36543 0.0
C2070 C 0.41209 0.00513 0.41952 0.0
C2071 C 0.48307 -0.0027 0.38596 0.0
C2072 C 0.48814 0.04071 0.45684 0.0
C2073 C 0.49444 0.02358 0.46703 0.0
C2074 C 0.47223 0.03425 0.4367 0.0
C2075 C 0.4619 0.00986 0.42697 0.0
C2076 C 0.46736 0.99237 0.43804 0.0
C2077 C 0.48399 -0.00048 0.45793 0.0
C2078 C 0.46704 0.05375 0.42568 0.0
C2079 C 0.45522 0.96635 0.42966 0.0
H2080 H 0.40567 0.02284 0.38077 0.0
H2081 H 0.46473 0.01396 0.3518 0.0
H2082 H 0.41476 0.99135 0.42914 0.0
H2083 H 0.4162 0.02213 0.43218 0.0
H2084 H 0.39389 0.00036 0.41184 0.0
H2085 H 0.48848 -0.00585 0.36854 0.0
H2086 H 0.4965 0.01221 0.39742 0.0
H2087 H 0.48177 0.98133 0.39359 0.0
H2088 H 0.49594 0.05927 0.46459 0.0
H2089 H 0.48824 0.9864 0.4668 0.0
H2090 H 0.44894 0.053 0.42579 0.0
H2091 H 0.47015 0.05161 0.4073 0.0
H2092 H 0.47755 0.07164 0.43505 0.0
H2093 H 0.43935 0.96199 0.43748 0.0
H2094 H 0.46574 0.95524 0.43522 0.0
H2095 H 0.45032 0.96154 0.41043 0.0
C2096 C 0.76279 0.74316 0.08288 0.0
C2097 C 0.78268 0.73721 0.07867 0.0
C2098 C 0.75888 0.75024 0.10589 0.0
C2099 C 0.7747 0.75027 0.12519 0.0
C2100 C 0.79453 0.74369 0.12089 0.0
C2101 C 0.79847 0.73775 0.09779 0.0
C2102 C 0.738 0.758 0.10957 0.0
C2103 C 0.8115 0.74255 0.14071 0.0
C2104 C 0.78105 0.78634 0.18669 0.0
C2105 C 0.7692 0.76943 0.19841 0.0
C2106 C 0.78163 0.78079 0.16255 0.0
C2107 C 0.77092 0.75741 0.14991 0.0
C2108 C 0.75845 0.7404 0.16165 0.0
C2109 C 0.7575 0.74672 0.18569 0.0
C2110 C 0.79452 0.79974 0.1508 0.0
C2111 C 0.74737 0.71511 0.14923 0.0
H2112 H 0.75051 0.74272 0.06816 0.0
H2113 H 0.81368 0.73275 0.09465 0.0
H2114 H 0.72714 0.74629 0.11937 0.0
H2115 H 0.74307 0.77619 0.12023 0.0
H2116 H 0.72775 0.75776 0.09283 0.0
H2117 H 0.82528 0.73566 0.13443 0.0
H2118 H 0.81932 0.76041 0.15171 0.0
H2119 H 0.80277 0.73099 0.15202 0.0
H2120 H 0.79033 0.80385 0.19657 0.0
H2121 H 0.74874 0.73349 0.19484 0.0
H2122 H 0.78429 0.79983 0.13419 0.0
H2123 H 0.81042 0.79603 0.14647 0.0
H2124 H 0.79906 0.81761 0.16208 0.0
H2125 H 0.73622 0.71443 0.13298 0.0
H2126 H 0.73711 0.70443 0.16031 0.0
H2127 H 0.76068 0.70685 0.14414 0.0
C2128 C 0.07192 0.01044 0.68651 0.0
C2129 C 0.07417 0.02634 0.70754 0.0
C2130 C 0.06242 0.01442 0.66533 0.0
C2131 C 0.0545 0.03454 0.66522 0.0
C2132 C 0.05583 0.0501 0.68655 0.0
C2133 C 0.06591 0.04599 0.7074 0.0
C2134 C 0.06157 -0.0025 0.64295 0.0
C2135 C 0.04706 0.07136 0.68727 0.0
C2136 C 0.05693 0.05588 0.608 0.0
C2137 C 0.03466 0.04536 0.59647 0.0
C2138 C 0.0632 0.05377 0.63097 0.0
C2139 C 0.04687 0.04032 0.64254 0.0
C2140 C 0.02398 0.03076 0.6314 0.0
C2141 C 0.01809 0.03351 0.60843 0.0
C2142 C 0.08769 0.06458 0.64223 0.0
C2143 C 0.00606 0.0163 0.64309 0.0
H2144 H 0.07818 -0.00481 0.6865 0.0
H2145 H 0.06721 0.05813 0.72367 0.0
H2146 H 0.04401 0.99092 0.63325 0.0
H2147 H 0.07256 0.00689 0.63157 0.0
H2148 H 0.06734 0.98209 0.6461 0.0
H2149 H 0.04738 0.08045 0.70542 0.0
H2150 H 0.05758 0.08417 0.67818 0.0
H2151 H 0.02937 0.06599 0.67796 0.0
H2152 H 0.06974 0.06485 0.59858 0.0
H2153 H 0.00096 0.02495 0.59929 0.0
H2154 H 0.09562 0.05032 0.64426 0.0
H2155 H 0.08872 0.07507 0.65991 0.0
H2156 H 0.09774 0.07626 0.63177 0.0
H2157 H 0.00926 -0.00094 0.64383 0.0
H2158 H 0.98867 0.01285 0.63356 0.0
H2159 H 0.00684 0.0254 0.66131 0.0
C2160 C 0.80118 0.37001 0.43513 0.0
C2161 C 0.79098 0.38727 0.44358 0.0
C2162 C 0.79323 0.35568 0.41314 0.0
C2163 C 0.77509 0.35924 0.39894 0.0
C2164 C 0.76475 0.37672 0.40714 0.0
C2165 C 0.77281 0.39057 0.42956 0.0
C2166 C 0.80433 0.33673 0.40514 0.0
C2167 C 0.74523 0.38063 0.39232 0.0
C2168 C 0.78436 0.34088 0.33838 0.0
C2169 C 0.77213 0.31685 0.3338 0.0
C2170 C 0.78316 0.3559 0.35858 0.0
C2171 C 0.76944 0.34654 0.37457 0.0
C2172 C 0.75505 0.32298 0.36885 0.0
C2173 C 0.75666 0.30821 0.3484 0.0
C2174 C 0.79876 0.38096 0.36405 0.0
C2175 C 0.73962 0.31264 0.38521 0.0
H2176 H 0.81483 0.36691 0.44609 0.0
H2177 H 0.76468 0.40368 0.43626 0.0
H2178 H 0.79137 0.31919 0.40033 0.0
H2179 H 0.81221 0.34019 0.38942 0.0
H2180 H 0.81768 0.3358 0.41879 0.0
H2181 H 0.73798 0.39373 0.40197 0.0
H2182 H 0.75105 0.38701 0.37664 0.0
H2183 H 0.73158 0.36368 0.38609 0.0
H2184 H 0.79585 0.34787 0.32678 0.0
H2185 H 0.74665 0.28977 0.34447 0.0
H2186 H 0.8135 0.3822 0.37714 0.0
H2187 H 0.78991 0.39356 0.37161 0.0
H2188 H 0.80533 0.38654 0.3483 0.0
H2189 H 0.7489 0.30444 0.39699 0.0
H2190 H 0.72438 0.29861 0.37536 0.0
H2191 H 0.73403 0.32634 0.39613 0.0
C2192 C 0.41885 0.01568 0.2262 0.0
C2193 C 0.42689 0.00734 0.24528 0.0
C2194 C 0.42246 0.0072 0.20366 0.0
C2195 C 0.43493 0.99057 0.20043 0.0
C2196 C 0.44169 0.98093 0.21939 0.0
C2197 C 0.43756 0.98943 0.24163 0.0
C2198 C 0.41435 0.01723 0.1836 0.0
C2199 C 0.455 0.96314 0.21663 0.0
C2200 C 0.44546 0.96588 0.14016 0.0
C2201 C 0.46634 0.98196 0.13934 0.0
C2202 C 0.43467 0.96838 0.15996 0.0
C2203 C 0.44523 0.98738 0.17897 0.0
C2204 C 0.46646 0.00348 0.17802 0.0
C2205 C 0.47671 0.00056 0.15813 0.0
C2206 C 0.412 0.95101 0.16041 0.0
C2207 C 0.47844 0.02379 0.19806 0.0
H2208 H 0.41017 0.02917 0.22892 0.0
H2209 H 0.44366 0.98276 0.25632 0.0
H2210 H 0.429 0.03013 0.17897 0.0
H2211 H 0.4069 0.00303 0.16795 0.0
H2212 H 0.40147 0.0264 0.18805 0.0
H2213 H 0.45518 0.95417 0.23176 0.0
H2214 H 0.44788 0.94951 0.20049 0.0
H2215 H 0.47283 0.97235 0.21518 0.0
H2216 H 0.43758 0.95161 0.12532 0.0
H2217 H 0.49291 0.01289 0.15717 0.0
H2218 H 0.39852 0.95998 0.15919 0.0
H2219 H 0.41187 0.94456 0.17707 0.0
H2220 H 0.40765 0.93555 0.14571 0.0
H2221 H 0.46754 0.03554 0.20167 0.0
H2222 H 0.49494 0.03457 0.19443 0.0
H2223 H 0.48167 0.01693 0.21411 0.0
C2224 C 0.76474 0.72702 0.93668 0.0
C2225 C 0.77992 0.74134 0.95632 0.0
C2226 C 0.76475 0.73345 0.91461 0.0
C2227 C 0.77992 0.75505 0.91203 0.0
C2228 C 0.7942 0.77031 0.93212 0.0
C2229 C 0.79427 0.76315 0.95386 0.0
C2230 C 0.74939 0.71644 0.89377 0.0
C2231 C 0.81007 0.79387 0.93051 0.0
C2232 C 0.79846 0.759 0.85205 0.0
C2233 C 0.78349 0.76991 0.8422 0.0
C2234 C 0.79758 0.75424 0.87476 0.0
C2235 C 0.78164 0.76097 0.88818 0.0
C2236 C 0.76695 0.77265 0.87842 0.0
C2237 C 0.76785 0.77667 0.85548 0.0
C2238 C 0.8134 0.74151 0.88422 0.0
C2239 C 0.75013 0.78075 0.89213 0.0
H2240 H 0.75377 0.71001 0.9382 0.0
H2241 H 0.80607 0.77439 0.96885 0.0
H2242 H 0.73892 0.72548 0.88442 0.0
H2243 H 0.75987 0.71011 0.88135 0.0
H2244 H 0.73789 0.70086 0.89875 0.0
H2245 H 0.81799 0.80488 0.94799 0.0
H2246 H 0.82378 0.791 0.92062 0.0
H2247 H 0.80081 0.80384 0.9209 0.0
H2248 H 0.81051 0.75371 0.84176 0.0
H2249 H 0.7563 0.78519 0.84788 0.0
H2250 H 0.80334 0.72469 0.88834 0.0
H2251 H 0.824 0.75241 0.9007 0.0
H2252 H 0.8248 0.73747 0.8717 0.0
H2253 H 0.73718 0.76519 0.89534 0.0
H2254 H 0.7413 0.79133 0.88288 0.0
H2255 H 0.75889 0.79158 0.90941 0.0
C2256 C 0.81537 0.09749 0.02375 0.0
C2257 C 0.81766 0.10493 0.04791 0.0
C2258 C 0.83181 0.08917 0.01366 0.0
C2259 C 0.85076 0.08778 0.02824 0.0
C2260 C 0.85358 0.09596 0.05273 0.0
C2261 C 0.83694 0.10483 0.06239 0.0
C2262 C 0.8285 0.08124 0.98745 0.0
C2263 C 0.87379 0.09473 0.06863 0.0
C2264 C 0.87432 0.03848 0.0045 0.0
C2265 C 0.89405 0.05092 -0.00287 0.0
C2266 C 0.8603 0.05046 0.01505 0.0
C2267 C 0.86607 0.07537 0.01786 0.0
C2268 C 0.88549 0.08796 0.0095 0.0
C2269 C 0.89942 0.07553 -0.00066 0.0
C2270 C 0.83962 0.03652 0.02374 0.0
C2271 C 0.89173 0.11448 0.01166 0.0
H2272 H 0.80064 0.09843 0.01264 0.0
H2273 H 0.8388 0.11132 0.08102 0.0
H2274 H 0.84423 0.08908 0.98045 0.0
H2275 H 0.82479 0.06173 0.98294 0.0
H2276 H 0.81428 0.08621 0.97855 0.0
H2277 H 0.87421 0.10318 0.08703 0.0
H2278 H 0.87325 0.07596 0.06796 0.0
H2279 H 0.88981 0.10353 0.06264 0.0
H2280 H 0.87054 0.01951 0.00317 0.0
H2281 H 0.91489 0.08504 0.99373 0.0
H2282 H 0.82402 0.0391 0.01488 0.0
H2283 H 0.84066 0.04303 0.04273 0.0
H2284 H 0.83787 0.01728 0.02064 0.0
H2285 H 0.87723 0.11961 0.00365 0.0
H2286 H 0.90678 0.12135 0.00318 0.0
H2287 H 0.89552 0.12322 0.03035 0.0
C2288 C 0.35081 0.42862 0.01318 0.0
C2289 C 0.34759 0.41623 0.03143 0.0
C2290 C 0.37222 0.4437 0.01194 0.0
C2291 C 0.39066 0.44686 0.02969 0.0
C2292 C 0.38744 0.43446 0.04823 0.0
C2293 C 0.36598 0.41903 0.04871 0.0
C2294 C 0.37511 0.45625 0.99164 0.0
C2295 C 0.40658 0.43774 0.06772 0.0
C2296 C 0.45062 0.46775 0.01609 0.0
C2297 C 0.45708 0.49197 0.02608 0.0
C2298 C 0.42906 0.45295 0.01711 0.0
C2299 C 0.41351 0.46253 0.02846 0.0
C2300 C 0.41983 0.48694 0.0386 0.0
C2301 C 0.44156 0.5014 0.03727 0.0
C2302 C 0.42291 0.42702 0.00603 0.0
C2303 C 0.40369 0.49772 0.05096 0.0
H2304 H 0.33657 0.42649 -0.00018 0.0
H2305 H 0.36342 0.40974 0.06305 0.0
H2306 H 0.38095 0.47568 -0.00189 0.0
H2307 H 0.38835 0.4515 0.9821 0.0
H2308 H 0.35909 0.45174 0.9792 0.0
H2309 H 0.4011 0.42729 0.0812 0.0
H2310 H 0.42076 0.43235 0.06058 0.0
H2311 H 0.41333 0.45669 0.07623 0.0
H2312 H 0.46246 0.46021 0.00744 0.0
H2313 H 0.44638 0.52006 0.04506 0.0
H2314 H 0.40749 0.42219 0.99273 0.0
H2315 H 0.41885 0.41608 0.01943 0.0
H2316 H 0.43684 0.42242 -0.00244 0.0
H2317 H 0.38798 0.49524 0.03871 0.0
H2318 H 0.4113 0.51693 0.05818 0.0
H2319 H 0.39859 0.48863 0.06544 0.0
C2320 C 0.40808 0.6007 0.78981 0.0
C2321 C 0.40003 0.57765 0.77659 0.0
C2322 C 0.39546 0.61687 0.7887 0.0
C2323 C 0.37395 0.6096 0.77443 0.0
C2324 C 0.3661 0.5865 0.76041 0.0
C2325 C 0.37935 0.57079 0.76155 0.0
C2326 C 0.40469 0.64136 0.8037 0.0
C2327 C 0.3432 0.57799 0.74515 0.0
C2328 C 0.33086 0.64036 0.79481 0.0
C2329 C 0.33154 0.65661 0.77998 0.0
C2330 C 0.34437 0.62486 0.79298 0.0
C2331 C 0.35896 0.62547 0.77582 0.0
C2332 C 0.35968 0.64171 0.76067 0.0
C2333 C 0.34597 0.65706 0.76291 0.0
C2334 C 0.34312 0.6079 0.80956 0.0
C2335 C 0.37518 0.64309 0.74233 0.0
H2336 H 0.42407 0.60587 0.80154 0.0
H2337 H 0.37304 0.55281 0.7516 0.0
H2338 H 0.40354 0.65495 0.79324 0.0
H2339 H 0.39434 0.64318 0.81789 0.0
H2340 H 0.42268 0.64508 0.8117 0.0
H2341 H 0.34033 0.5603 0.73398 0.0
H2342 H 0.3296 0.57691 0.75628 0.0
H2343 H 0.34157 0.59073 0.73382 0.0
H2344 H 0.31954 0.63955 0.8078 0.0
H2345 H 0.34686 0.66972 0.75154 0.0
H2346 H 0.36005 0.61141 0.82008 0.0
H2347 H 0.33831 0.58945 0.79958 0.0
H2348 H 0.33063 0.60934 0.82166 0.0
H2349 H 0.39312 0.64788 0.75079 0.0
H2350 H 0.37343 0.65633 0.73159 0.0
H2351 H 0.37141 0.62556 0.73063 0.0
C2352 C 0.20344 0.61214 0.57297 0.0
C2353 C 0.21181 0.62054 0.55371 0.0
C2354 C 0.18004 0.60353 0.57292 0.0
C2355 C 0.16496 0.6033 0.5531 0.0
C2356 C 0.17328 0.61318 0.53431 0.0
C2357 C 0.1967 0.62176 0.53487 0.0
C2358 C 0.17153 0.5934 0.59338 0.0
C2359 C 0.15754 0.61339 0.51298 0.0
C2360 C 0.11025 0.55428 0.5342 0.0
C2361 C 0.0946 0.56601 0.54089 0.0
C2362 C 0.13348 0.56605 0.53917 0.0
C2363 C 0.14078 0.59015 0.55052 0.0
C2364 C 0.12485 0.60192 0.55758 0.0
C2365 C 0.10175 0.58948 0.55288 0.0
C2366 C 0.15012 0.55295 0.53167 0.0
C2367 C 0.13214 0.62767 0.56946 0.0
H2368 H 0.21514 0.61162 0.58777 0.0
H2369 H 0.20313 0.62854 0.52007 0.0
H2370 H 0.15751 0.60025 0.59893 0.0
H2371 H 0.16461 0.57389 0.58809 0.0
H2372 H 0.18521 0.59763 0.60855 0.0
H2373 H 0.1666 0.62397 0.50109 0.0
H2374 H 0.14956 0.595 0.50317 0.0
H2375 H 0.14365 0.62067 0.51816 0.0
H2376 H 0.10429 0.53597 0.52505 0.0
H2377 H 0.08922 0.59821 0.55796 0.0
H2378 H 0.16327 0.55463 0.54666 0.0
H2379 H 0.15896 0.56086 0.51807 0.0
H2380 H 0.14167 0.53386 0.52453 0.0
H2381 H 0.14286 0.63006 0.58649 0.0
H2382 H 0.11742 0.63444 0.57254 0.0
H2383 H 0.14261 0.6386 0.55874 0.0
C2384 C 0.72361 0.01196 0.77951 0.0
C2385 C 0.70132 -0.00043 0.76911 0.0
C2386 C 0.74015 0.00013 0.78155 0.0
C2387 C 0.73379 0.9753 0.7739 0.0
C2388 C 0.71147 0.96293 0.76243 0.0
C2389 C 0.69553 0.97539 0.7598 0.0
C2390 C 0.76406 0.01396 0.79292 0.0
C2391 C 0.70393 0.93636 0.7545 0.0
C2392 C 0.7761 0.94019 0.76939 0.0
C2393 C 0.77576 0.93235 0.79055 0.0
C2394 C 0.76331 0.95521 0.76409 0.0
C2395 C 0.74958 0.96193 0.7802 0.0
C2396 C 0.7498 0.95462 0.80196 0.0
C2397 C 0.76315 0.94002 0.80698 0.0
C2398 C 0.76379 0.96309 0.74097 0.0
C2399 C 0.73501 0.96114 0.81935 0.0
H2400 H 0.72797 0.03083 0.78634 0.0
H2401 H 0.67818 0.966 0.75177 0.0
H2402 H 0.76706 0.01055 0.8108 0.0
H2403 H 0.77666 0.00826 0.783 0.0
H2404 H 0.76714 0.03331 0.79417 0.0
H2405 H 0.68679 0.92984 0.74379 0.0
H2406 H 0.71615 0.93048 0.74417 0.0
H2407 H 0.70342 0.92794 0.77001 0.0
H2408 H 0.78585 0.93396 0.75673 0.0
H2409 H 0.76274 0.9335 0.82315 0.0
H2410 H 0.76739 0.98259 0.74371 0.0
H2411 H 0.74692 0.95519 0.72994 0.0
H2412 H 0.77677 0.95785 0.73129 0.0
H2413 H 0.73884 0.98065 0.8241 0.0
H2414 H 0.7374 0.95423 0.83557 0.0
H2415 H 0.71685 0.95396 0.8114 0.0
C2416 C 0.71128 0.91634 0.54799 0.0
C2417 C 0.72228 0.90564 0.53159 0.0
C2418 C 0.69538 0.92784 0.54121 0.0
C2419 C 0.69057 0.92913 0.51744 0.0
C2420 C 0.70114 0.91778 0.50066 0.0
C2421 C 0.71673 0.90599 0.50791 0.0
C2422 C 0.68426 0.93931 0.55967 0.0
C2423 C 0.69686 0.91905 0.47523 0.0
C2424 C 0.63711 0.94708 0.50186 0.0
C2425 C 0.64582 0.97177 0.50474 0.0
C2426 C 0.65152 0.9328 0.50481 0.0
C2427 C 0.67531 0.94337 0.51065 0.0
C2428 C 0.68431 0.96807 0.51224 0.0
C2429 C 0.66951 0.98194 0.50939 0.0
C2430 C 0.64119 0.90654 0.50271 0.0
C2431 C 0.70958 0.98008 0.51808 0.0
H2432 H 0.71544 0.91612 0.5663 0.0
H2433 H 0.72537 0.89805 0.49515 0.0
H2434 H 0.68966 0.95877 0.561 0.0
H2435 H 0.6655 0.93309 0.55475 0.0
H2436 H 0.68869 0.93545 0.57711 0.0
H2437 H 0.70431 0.90717 0.46405 0.0
H2438 H 0.67837 0.91431 0.46896 0.0
H2439 H 0.70449 0.93745 0.47306 0.0
H2440 H 0.6189 0.93889 0.49774 0.0
H2441 H 0.67655 0.00096 0.51187 0.0
H2442 H 0.64365 0.90185 0.5201 0.0
H2443 H 0.64981 0.89653 0.49097 0.0
H2444 H 0.6227 0.90072 0.49594 0.0
H2445 H 0.71558 0.97946 0.53634 0.0
H2446 H 0.71405 -0.00112 0.51621 0.0
H2447 H 0.71888 0.97068 0.50662 0.0
C2448 C 0.3691 0.45918 0.76451 0.0
C2449 C 0.39252 0.46339 0.77062 0.0
C2450 C 0.35409 0.43619 0.76107 0.0
C2451 C 0.36268 0.41716 0.76474 0.0
C2452 C 0.38649 0.42132 0.77017 0.0
C2453 C 0.40114 0.44439 0.77284 0.0
C2454 C 0.32895 0.43247 0.75454 0.0
C2455 C 0.39641 0.40174 0.7747 0.0
C2456 C 0.32343 0.36668 0.78626 0.0
C2457 C 0.31792 0.34834 0.76663 0.0
C2458 C 0.33812 0.38905 0.78589 0.0
C2459 C 0.34676 0.39349 0.76506 0.0
C2460 C 0.34055 0.3752 0.74492 0.0
C2461 C 0.3266 0.35268 0.7461 0.0
C2462 C 0.34487 0.40775 0.80798 0.0
C2463 C 0.34859 0.37941 0.72214 0.0
H2464 H 0.36247 0.47399 0.76304 0.0
H2465 H 0.41926 0.44781 0.77799 0.0
H2466 H 0.32154 0.41681 0.74023 0.0
H2467 H 0.32021 0.42902 0.76976 0.0
H2468 H 0.32537 0.44813 0.74896 0.0
H2469 H 0.41529 0.40749 0.77716 0.0
H2470 H 0.39084 0.39573 0.79064 0.0
H2471 H 0.39012 0.38628 0.76004 0.0
H2472 H 0.31692 0.36324 0.80221 0.0
H2473 H 0.3222 0.3385 0.73087 0.0
H2474 H 0.3395 0.42344 0.80515 0.0
H2475 H 0.36364 0.41367 0.81279 0.0
H2476 H 0.33721 0.40126 0.82288 0.0
H2477 H 0.344 0.39482 0.71713 0.0
H2478 H 0.34114 0.36379 0.70774 0.0
H2479 H 0.36737 0.3837 0.72413 0.0
C2480 C 0.1849 0.61764 0.27157 0.0
C2481 C 0.19072 0.59689 0.26471 0.0
C2482 C 0.19832 0.63916 0.26774 0.0
C2483 C 0.21818 0.6397 0.25744 0.0
C2484 C 0.22362 0.61852 0.2498 0.0
C2485 C 0.20958 0.59718 0.25337 0.0
C2486 C 0.19176 0.66141 0.27559 0.0
C2487 C 0.24481 0.61857 0.23904 0.0
C2488 C 0.24638 0.69748 0.24039 0.0
C2489 C 0.26082 0.7095 0.26121 0.0
C2490 C 0.23295 0.67412 0.23835 0.0
C2491 C 0.23454 0.66271 0.25745 0.0
C2492 C 0.25045 0.67424 0.27778 0.0
C2493 C 0.26332 0.69764 0.27947 0.0
C2494 C 0.21598 0.66233 0.21652 0.0
C2495 C 0.25283 0.66242 0.29835 0.0
H2496 H 0.17001 0.61701 0.28005 0.0
H2497 H 0.21373 0.58081 0.24801 0.0
H2498 H 0.2041 0.6727 0.29086 0.0
H2499 H 0.19232 0.67177 0.26152 0.0
H2500 H 0.17447 0.65753 0.28062 0.0
H2501 H 0.24538 0.60039 0.23202 0.0
H2502 H 0.24595 0.62866 0.22475 0.0
H2503 H 0.26002 0.6275 0.25242 0.0
H2504 H 0.24446 0.70678 0.2263 0.0
H2505 H 0.27474 0.70698 0.29547 0.0
H2506 H 0.19848 0.65982 0.22073 0.0
H2507 H 0.21756 0.64455 0.20966 0.0
H2508 H 0.21819 0.67292 0.2026 0.0
H2509 H 0.23725 0.66015 0.30669 0.0
H2510 H 0.26765 0.6729 0.31171 0.0
H2511 H 0.25472 0.64457 0.29251 0.0
C2512 C 0.50407 0.70749 0.49809 0.0
C2513 C 0.49046 0.70623 0.47696 0.0
C2514 C 0.50762 0.68681 0.50497 0.0
C2515 C 0.49767 0.66405 0.49033 0.0
C2516 C 0.48392 0.66287 0.46901 0.0
C2517 C 0.48041 0.6837 0.46276 0.0
C2518 C 0.52192 0.68933 0.5281 0.0
C2519 C 0.47296 0.63945 0.45257 0.0
C2520 C 0.52481 0.61355 0.49626 0.0
C2521 C 0.50932 0.5983 0.507 0.0
C2522 C 0.52117 0.63459 0.4907 0.0
C2523 C 0.50196 0.64163 0.49682 0.0
C2524 C 0.48657 0.62659 0.50831 0.0
C2525 C 0.49008 0.60499 0.51267 0.0
C2526 C 0.53787 0.64918 0.4779 0.0
C2527 C 0.4663 0.63326 0.5162 0.0
H2528 H 0.51178 0.72464 0.50939 0.0
H2529 H 0.46975 0.68236 0.44649 0.0
H2530 H 0.51266 0.67685 0.53834 0.0
H2531 H 0.53777 0.68473 0.52516 0.0
H2532 H 0.52656 0.70759 0.53858 0.0
H2533 H 0.46324 0.64135 0.43641 0.0
H2534 H 0.48616 0.63094 0.44767 0.0
H2535 H 0.46124 0.62739 0.4614 0.0
H2536 H 0.53973 0.60872 0.49168 0.0
H2537 H 0.47805 0.59368 0.52119 0.0
H2538 H 0.54592 0.66709 0.48872 0.0
H2539 H 0.52883 0.6514 0.46151 0.0
H2540 H 0.55145 0.64101 0.47352 0.0
H2541 H 0.47055 0.65258 0.52299 0.0
H2542 H 0.45993 0.62382 0.53007 0.0
H2543 H 0.45244 0.62847 0.50117 0.0
C2544 C 0.64932 0.31258 0.65256 0.0
C2545 C 0.62893 0.3055 0.66169 0.0
C2546 C 0.66992 0.30993 0.66332 0.0
C2547 C 0.67021 0.29962 0.68352 0.0
C2548 C 0.64952 0.29195 0.69233 0.0
C2549 C 0.62944 0.2951 0.68153 0.0
C2550 C 0.6915 0.3186 0.65337 0.0
C2551 C 0.64855 0.28057 0.7135 0.0
C2552 C 0.71836 0.27461 0.70463 0.0
C2553 C 0.72993 0.29177 0.72448 0.0
C2554 C 0.69933 0.27714 0.69076 0.0
C2555 C 0.69202 0.29769 0.69631 0.0
C2556 C 0.7044 0.3155 0.71575 0.0
C2557 C 0.72279 0.31214 0.72972 0.0
C2558 C 0.68637 0.25726 0.67083 0.0
C2559 C 0.69779 0.33792 0.72229 0.0
H2560 H 0.64931 0.32059 0.6373 0.0
H2561 H 0.61393 0.28924 0.68881 0.0
H2562 H 0.70413 0.33256 0.66666 0.0
H2563 H 0.69907 0.30393 0.64891 0.0
H2564 H 0.68859 0.32588 0.6375 0.0
H2565 H 0.63095 0.2742 0.71737 0.0
H2566 H 0.65568 0.26537 0.71084 0.0
H2567 H 0.65906 0.29347 0.729 0.0
H2568 H 0.72352 0.25868 0.70057 0.0
H2569 H 0.73163 0.32555 0.74495 0.0
H2570 H 0.68467 0.26409 0.6545 0.0
H2571 H 0.66893 0.24955 0.6745 0.0
H2572 H 0.6947 0.24298 0.66797 0.0
H2573 H 0.69592 0.346 0.70678 0.0
H2574 H 0.71049 0.35112 0.73619 0.0
H2575 H 0.68112 0.33375 0.72861 0.0
C2576 C 0.01004 0.34787 0.97066 0.0
C2577 C 0.99272 0.33203 0.97888 0.0
C2578 C 0.01424 0.37274 0.97685 0.0
C2579 C 0.00092 0.38244 0.99178 0.0
C2580 C 0.9839 0.36659 0.00071 0.0
C2581 C 0.98001 0.34183 0.99418 0.0
C2582 C 0.03255 0.38866 0.96678 0.0
C2583 C 0.96936 0.37579 0.01686 0.0
C2584 C 0.02388 0.44844 0.02156 0.0
C2585 C 0.01101 0.45911 0.00816 0.0
C2586 C 0.02046 0.42367 0.01681 0.0
C2587 C 0.00435 0.409 -0.00244 0.0
C2588 C 0.99151 0.41985 0.98382 0.0
C2589 C 0.99472 0.44457 0.98949 0.0
C2590 C 0.03409 0.41316 0.03251 0.0
C2591 C 0.97459 0.40536 0.9628 0.0
H2592 H 0.01998 0.34084 0.95874 0.0
H2593 H 0.9665 0.33009 0.00071 0.0
H2594 H 0.02485 0.3987 0.95571 0.0
H2595 H 0.04486 0.40178 0.98099 0.0
H2596 H 0.04196 0.37862 0.95608 0.0
H2597 H 0.95783 0.36144 0.02352 0.0
H2598 H 0.98027 0.38902 0.03193 0.0
H2599 H 0.95889 0.38486 0.00752 0.0
H2600 H 0.03652 0.45953 0.036 0.0
H2601 H 0.98491 0.45268 0.97886 0.0
H2602 H 0.04491 0.40462 0.02236 0.0
H2603 H 0.02249 0.39923 0.03957 0.0
H2604 H 0.04515 0.42666 0.04735 0.0
H2605 H 0.98324 0.39609 0.95039 0.0
H2606 H 0.96631 0.41636 0.95356 0.0
H2607 H 0.96124 0.3916 0.96819 0.0
C2608 C 0.9959 0.76317 0.15148 0.0
C2609 C 0.00465 0.78521 0.14549 0.0
C2610 C 0.97651 0.75854 0.16282 0.0
C2611 C 0.96633 0.77677 0.16936 0.0
C2612 C 0.97526 0.79908 0.16335 0.0
C2613 C 0.99394 0.80282 0.15108 0.0
C2614 C 0.96703 0.73422 0.16795 0.0
C2615 C 0.96563 0.81933 0.17062 0.0
C2616 C 0.90639 0.76396 0.18595 0.0
C2617 C 0.91085 0.7681 0.21045 0.0
C2618 C 0.92415 0.76616 0.17235 0.0
C2619 C 0.94706 0.77301 0.18342 0.0
C2620 C 0.95165 0.77723 0.20812 0.0
C2621 C 0.93357 0.77461 0.22126 0.0
C2622 C 0.91838 0.76112 0.14609 0.0
C2623 C 0.97575 0.78498 0.22076 0.0
H2624 H 0.00409 0.74948 0.14709 0.0
H2625 H 0.00083 0.82 0.14672 0.0
H2626 H 0.96903 0.73517 0.18709 0.0
H2627 H 0.94856 0.72735 0.16123 0.0
H2628 H 0.97562 0.72147 0.16003 0.0
H2629 H 0.97451 0.83559 0.16464 0.0
H2630 H 0.9473 0.81429 0.16347 0.0
H2631 H 0.96708 0.82347 0.18993 0.0
H2632 H 0.88893 0.75863 0.17736 0.0
H2633 H 0.9373 0.77816 0.24014 0.0
H2634 H 0.9261 0.74753 0.13831 0.0
H2635 H 0.9256 0.77735 0.13932 0.0
H2636 H 0.89975 0.75483 0.14009 0.0
H2637 H 0.98454 0.77164 0.21507 0.0
H2638 H 0.97651 0.78754 0.24002 0.0
H2639 H 0.9853 0.80185 0.21633 0.0
C2640 C 0.53062 0.30556 0.12695 0.0
C2641 C 0.51956 0.30822 0.14645 0.0
C2642 C 0.53588 0.32366 0.11394 0.0
C2643 C 0.52978 0.34478 0.12055 0.0
C2644 C 0.5195 0.34781 0.14089 0.0
C2645 C 0.51443 0.32947 0.15346 0.0
C2646 C 0.54696 0.31974 0.0925 0.0
C2647 C 0.51278 0.36995 0.14874 0.0
C2648 C 0.5541 0.3997 0.09535 0.0
C2649 C 0.53621 0.39843 0.07797 0.0
C2650 C 0.55245 0.38226 0.1091 0.0
C2651 C 0.53245 0.36292 0.10537 0.0
C2652 C 0.51441 0.36146 0.08773 0.0
C2653 C 0.51648 0.37919 0.07434 0.0
C2654 C 0.57197 0.38474 0.12786 0.0
C2655 C 0.49279 0.34118 0.08309 0.0
H2656 H 0.53425 0.28897 0.12132 0.0
H2657 H 0.5056 0.33137 0.16839 0.0
H2658 H 0.53477 0.31814 0.0767 0.0
H2659 H 0.5619 0.33511 0.09286 0.0
H2660 H 0.55255 0.30349 0.09091 0.0
H2661 H 0.50685 0.37047 0.166 0.0
H2662 H 0.52733 0.3859 0.14983 0.0
H2663 H 0.4989 0.37089 0.13576 0.0
H2664 H 0.56932 0.41461 0.09852 0.0
H2665 H 0.50267 0.37784 0.06079 0.0
H2666 H 0.57769 0.36859 0.12531 0.0
H2667 H 0.56629 0.38658 0.14522 0.0
H2668 H 0.58668 0.4003 0.12801 0.0
H2669 H 0.49677 0.3241 0.07913 0.0
H2670 H 0.48063 0.34218 0.06831 0.0
H2671 H 0.48436 0.34114 0.0989 0.0
C2672 C 0.96011 0.29909 0.29122 0.0
C2673 C 0.97111 0.31049 0.31386 0.0
C2674 C 0.9368 0.29659 0.28425 0.0
C2675 C 0.92412 0.30624 0.30004 0.0
C2676 C 0.93559 0.31877 0.32257 0.0
C2677 C 0.95866 0.3203 0.32931 0.0
C2678 C 0.92545 0.28256 0.26033 0.0
C2679 C 0.9233 0.33 0.33992 0.0
C2680 C 0.86619 0.31338 0.27649 0.0
C2681 C 0.85053 0.29406 0.28229 0.0
C2682 C 0.89 0.31759 0.28211 0.0
C2683 C 0.8987 0.30199 0.2936 0.0
C2684 C 0.88296 0.28231 0.29921 0.0
C2685 C 0.85931 0.27869 0.29365 0.0
C2686 C 0.9059 0.33899 0.27604 0.0
C2687 C 0.89112 0.26497 0.3112 0.0
H2688 H 0.96942 0.29099 0.27933 0.0
H2689 H 0.96694 0.32895 0.3469 0.0
H2690 H 0.91233 0.26638 0.26206 0.0
H2691 H 0.91666 0.29302 0.25091 0.0
H2692 H 0.93772 0.27722 0.24963 0.0
H2693 H 0.93509 0.3414 0.35556 0.0
H2694 H 0.91404 0.34084 0.33168 0.0
H2695 H 0.91052 0.31601 0.3457 0.0
H2696 H 0.85985 0.32554 0.26787 0.0
H2697 H 0.84762 0.26364 0.29825 0.0
H2698 H 0.91728 0.33342 0.26431 0.0
H2699 H 0.91686 0.35045 0.29211 0.0
H2700 H 0.89664 0.34959 0.26735 0.0
H2701 H 0.90243 0.25749 0.30075 0.0
H2702 H 0.87686 0.25018 0.3138 0.0
H2703 H 0.90123 0.27419 0.32847 0.0
C2704 C 0.01622 0.68516 0.6524 0.0
C2705 C 0.99546 0.69039 0.64831 0.0
C2706 C 0.02036 0.66535 0.63882 0.0
C2707 C 0.00331 0.65003 0.62074 0.0
C2708 C 0.98218 0.65493 0.6169 0.0
C2709 C 0.97858 0.67495 0.63054 0.0
C2710 C 0.04325 0.66116 0.64345 0.0
C2711 C 0.96341 0.63922 0.59799 0.0
C2712 C 0.02006 0.61376 0.56899 0.0
C2713 C 0.01476 0.59087 0.57401 0.0
C2714 C 0.01672 0.63301 0.58409 0.0
C2715 C 0.00785 0.62964 0.60503 0.0
C2716 C 0.00268 0.60665 0.61039 0.0
C2717 C 0.00614 0.58761 0.59488 0.0
C2718 C 0.02252 0.65701 0.57744 0.0
C2719 C 0.9933 0.60211 0.63248 0.0
H2720 H 0.02951 0.69689 0.6659 0.0
H2721 H 0.96244 0.67857 0.62712 0.0
H2722 H 0.0411 0.64293 0.64649 0.0
H2723 H 0.05199 0.66278 0.62794 0.0
H2724 H 0.05434 0.6739 0.65878 0.0
H2725 H 0.9476 0.64468 0.59785 0.0
H2726 H 0.96906 0.63967 0.58069 0.0
H2727 H 0.95946 0.62062 0.60037 0.0
H2728 H 0.02676 0.61674 0.55304 0.0
H2729 H 0.00201 0.57014 0.5991 0.0
H2730 H 0.03493 0.67023 0.5915 0.0
H2731 H 0.00703 0.66293 0.5754 0.0
H2732 H 0.0298 0.65693 0.5609 0.0
H2733 H 0.00514 0.61387 0.64787 0.0
H2734 H 0.99054 0.58346 0.63446 0.0
H2735 H 0.9769 0.60634 0.63254 0.0
C2736 C 0.61791 0.80083 0.83078 0.0
C2737 C 0.60444 0.80918 0.81536 0.0
C2738 C 0.63941 0.79817 0.82613 0.0
C2739 C 0.64824 0.80441 0.80577 0.0
C2740 C 0.63497 0.81351 0.79059 0.0
C2741 C 0.61344 0.8155 0.79539 0.0
C2742 C 0.65246 0.78805 0.84276 0.0
C2743 C 0.6434 0.82093 0.76895 0.0
C2744 C 0.71265 0.8163 0.80194 0.0
C2745 C 0.71364 0.79553 0.78736 0.0
C2746 C 0.6918 0.81933 0.80813 0.0
C2747 C 0.67098 0.80111 0.79996 0.0
C2748 C 0.67191 0.78004 0.78537 0.0
C2749 C 0.69296 0.77759 0.77921 0.0
C2750 C 0.69205 0.8423 0.82332 0.0
C2751 C 0.65055 0.75991 0.77622 0.0
H2752 H 0.61129 0.79554 0.8461 0.0
H2753 H 0.60348 0.822 0.78321 0.0
H2754 H 0.65486 0.77143 0.83345 0.0
H2755 H 0.66961 0.80057 0.84934 0.0
H2756 H 0.64365 0.78423 0.85789 0.0
H2757 H 0.63179 0.82879 0.75949 0.0
H2758 H 0.66048 0.83405 0.77363 0.0
H2759 H 0.64515 0.8054 0.75693 0.0
H2760 H 0.72827 0.83041 0.8085 0.0
H2761 H 0.69319 0.76135 0.76813 0.0
H2762 H 0.68484 0.8388 0.83938 0.0
H2763 H 0.68119 0.85096 0.81393 0.0
H2764 H 0.70946 0.85476 0.82842 0.0
H2765 H 0.64195 0.7544 0.79096 0.0
H2766 H 0.65403 0.74432 0.76593 0.0
H2767 H 0.63856 0.76579 0.76497 0.0
C2768 C 0.4956 0.52446 0.69237 0.0
C2769 C 0.47538 0.52745 0.69955 0.0
C2770 C 0.50003 0.52575 0.66953 0.0
C2771 C 0.48399 0.53041 0.65341 0.0
C2772 C 0.46344 0.5332 0.66045 0.0
C2773 C 0.45932 0.53156 0.68337 0.0
C2774 C 0.52202 0.52233 0.66272 0.0
C2775 C 0.44594 0.5383 0.64386 0.0
C2776 C 0.50599 0.55609 0.60191 0.0
C2777 C 0.49926 0.53608 0.58379 0.0
C2778 C 0.50079 0.55458 0.62451 0.0
C2779 C 0.48879 0.53249 0.62925 0.0
C2780 C 0.4818 0.51228 0.61099 0.0
C2781 C 0.48695 0.51435 0.5885 0.0
C2782 C 0.50847 0.57659 0.64343 0.0
C2783 C 0.46938 0.4883 0.61533 0.0
H2784 H 0.5081 0.52118 0.70468 0.0
H2785 H 0.4437 0.534 0.68873 0.0
H2786 H 0.51843 0.50781 0.64724 0.0
H2787 H 0.53224 0.53862 0.6578 0.0
H2788 H 0.5324 0.5181 0.67705 0.0
H2789 H 0.43082 0.53997 0.65195 0.0
H2790 H 0.4536 0.55497 0.63796 0.0
H2791 H 0.44028 0.52396 0.62811 0.0
H2792 H 0.51553 0.57293 0.5985 0.0
H2793 H 0.48185 0.4987 0.57474 0.0
H2794 H 0.52059 0.57429 0.65747 0.0
H2795 H 0.49371 0.57959 0.65141 0.0
H2796 H 0.51685 0.59257 0.63675 0.0
H2797 H 0.48017 0.48304 0.62848 0.0
H2798 H 0.46477 0.47439 0.59921 0.0
H2799 H 0.45363 0.48909 0.62256 0.0
C2800 C 0.79066 0.18879 0.9778 0.0
C2801 C 0.78722 0.19361 0.00095 0.0
C2802 C 0.78357 0.20113 0.96167 0.0
C2803 C 0.77288 0.21864 0.9691 0.0
C2804 C 0.76955 0.22363 0.99266 0.0
C2805 C 0.77673 0.21089 0.00838 0.0
C2806 C 0.78713 0.1951 0.9366 0.0
C2807 C 0.75827 0.24219 0.00116 0.0
C2808 C 0.77531 0.2607 0.92758 0.0
C2809 C 0.7542 0.25056 0.91333 0.0
C2810 C 0.78097 0.25156 0.94706 0.0
C2811 C 0.76529 0.23156 0.95197 0.0
C2812 C 0.74341 0.22219 0.93847 0.0
C2813 C 0.73804 0.23197 0.91932 0.0
C2814 C 0.80427 0.2623 0.96142 0.0
C2815 C 0.72632 0.20072 0.94309 0.0
H2816 H 0.79837 0.17496 0.97223 0.0
H2817 H 0.77378 0.21407 0.02636 0.0
H2818 H 0.77059 0.18958 0.9249 0.0
H2819 H 0.798 0.21095 0.93151 0.0
H2820 H 0.79528 0.18067 0.93366 0.0
H2821 H 0.75599 0.24306 0.01977 0.0
H2822 H 0.76871 0.25978 -0.00088 0.0
H2823 H 0.74139 0.23851 0.99048 0.0
H2824 H 0.78769 0.27522 0.92294 0.0
H2825 H 0.72178 0.22411 0.90815 0.0
H2826 H 0.81472 0.25002 0.95805 0.0
H2827 H 0.80299 0.26497 0.98032 0.0
H2828 H 0.81326 0.27952 0.95723 0.0
H2829 H 0.73214 0.18487 0.93807 0.0
H2830 H 0.70921 0.19756 0.93303 0.0
H2831 H 0.72488 0.20264 0.96193 0.0
C2832 C 0.1102 0.56284 0.17728 0.0
C2833 C 0.12168 0.54573 0.17846 0.0
C2834 C 0.10229 0.56706 0.15583 0.0
C2835 C 0.10613 0.55384 0.13527 0.0
C2836 C 0.12151 0.5402 0.13659 0.0
C2837 C 0.12896 0.53589 0.15841 0.0
C2838 C 0.08688 0.58277 0.15521 0.0
C2839 C 0.12774 0.52791 0.11482 0.0
C2840 C 0.05018 0.52649 0.09599 0.0
C2841 C 0.05146 0.5417 0.08032 0.0
C2842 C 0.06873 0.52937 0.11293 0.0
C2843 C 0.08878 0.54832 0.11441 0.0
C2844 C 0.09027 0.5634 0.09808 0.0
C2845 C 0.07141 0.55989 0.08115 0.0
C2846 C 0.06647 0.51261 0.12981 0.0
C2847 C 0.11113 0.58378 0.09881 0.0
H2848 H 0.10562 0.57148 0.193 0.0
H2849 H 0.13872 0.52344 0.15944 0.0
H2850 H 0.09078 0.59394 0.14199 0.0
H2851 H 0.06895 0.57161 0.15026 0.0
H2852 H 0.08848 0.59445 0.17242 0.0
H2853 H 0.14403 0.52376 0.11861 0.0
H2854 H 0.11422 0.51107 0.10755 0.0
H2855 H 0.12918 0.539 0.10131 0.0
H2856 H 0.03468 0.51226 0.09487 0.0
H2857 H 0.07212 0.57165 0.06883 0.0
H2858 H 0.06761 0.52249 0.1478 0.0
H2859 H 0.08049 0.50432 0.12967 0.0
H2860 H 0.05009 0.49829 0.12552 0.0
H2861 H 0.10829 0.6004 0.10754 0.0
H2862 H 0.11414 0.58582 0.08083 0.0
H2863 H 0.12661 0.58161 0.10835 0.0
C2864 C 0.77352 0.82973 0.45412 0.0
C2865 C 0.79202 0.82927 0.46987 0.0
C2866 C 0.77202 0.82191 0.42979 0.0
C2867 C 0.78959 0.81374 0.42075 0.0
C2868 C 0.80786 0.81247 0.43661 0.0
C2869 C 0.80874 0.82 0.46079 0.0
C2870 C 0.75193 0.82308 0.41368 0.0
C2871 C 0.82715 0.80424 0.42797 0.0
C2872 C 0.78142 0.7795 0.35767 0.0
C2873 C 0.79048 0.79759 0.34583 0.0
C2874 C 0.78061 0.78447 0.38189 0.0
C2875 C 0.78974 0.80801 0.3948 0.0
C2876 C 0.79946 0.82619 0.38288 0.0
C2877 C 0.79926 0.82084 0.35856 0.0
C2878 C 0.76942 0.76463 0.39356 0.0
C2879 C 0.81003 0.85139 0.39582 0.0
H2880 H 0.76046 0.83679 0.46073 0.0
H2881 H 0.82319 0.8195 0.47254 0.0
H2882 H 0.75765 0.83666 0.40306 0.0
H2883 H 0.74425 0.80589 0.40141 0.0
H2884 H 0.73865 0.82759 0.42338 0.0
H2885 H 0.83958 0.80318 0.44248 0.0
H2886 H 0.8205 0.78658 0.41632 0.0
H2887 H 0.83622 0.81665 0.41757 0.0
H2888 H 0.77409 0.76158 0.3478 0.0
H2889 H 0.80606 0.83491 0.34943 0.0
H2890 H 0.75506 0.76871 0.40156 0.0
H2891 H 0.78166 0.76292 0.40783 0.0
H2892 H 0.76288 0.74738 0.38112 0.0
H2893 H 0.79696 0.85828 0.4037 0.0
H2894 H 0.8178 0.86326 0.38427 0.0
H2895 H 0.82334 0.85208 0.41029 0.0
C2896 C 0.5014 0.53152 0.83888 0.0
C2897 C 0.47912 0.51912 0.82839 0.0
C2898 C 0.50905 0.53094 0.86208 0.0
C2899 C 0.49419 0.51714 0.87477 0.0
C2900 C 0.47215 0.50331 0.86355 0.0
C2901 C 0.46473 0.50483 0.84062 0.0
C2902 C 0.5324 0.54649 0.87352 0.0
C2903 C 0.45592 0.48798 0.87622 0.0
C2904 C 0.51734 0.50714 0.93386 0.0
C2905 C 0.51096 0.52385 0.94931 0.0
C2906 C 0.51212 0.50474 0.9095 0.0
C2907 C 0.50048 0.51955 0.90044 0.0
C2908 C 0.49439 0.5367 0.91598 0.0
C2909 C 0.49961 0.53857 0.94011 0.0
C2910 C 0.51873 0.48615 0.89347 0.0
C2911 C 0.48221 0.55308 0.90715 0.0
H2912 H 0.51233 0.54289 0.82946 0.0
H2913 H 0.44743 0.49539 0.83244 0.0
H2914 H 0.5307 0.56126 0.88665 0.0
H2915 H 0.54167 0.53639 0.88288 0.0
H2916 H 0.54273 0.55411 0.8607 0.0
H2917 H 0.44087 0.47579 0.86415 0.0
H2918 H 0.46461 0.47736 0.88553 0.0
H2919 H 0.44991 0.49935 0.88949 0.0
H2920 H 0.52609 0.4957 0.94076 0.0
H2921 H 0.49477 0.55173 0.95181 0.0
H2922 H 0.52972 0.49449 0.88152 0.0
H2923 H 0.5033 0.47345 0.88248 0.0
H2924 H 0.52793 0.4762 0.90321 0.0
H2925 H 0.49219 0.56301 0.89541 0.0
H2926 H 0.47937 0.566 0.92155 0.0
H2927 H 0.46548 0.54264 0.89684 0.0
C2928 C 0.7731 0.20904 0.0986 0.0
C2929 C 0.76343 0.18445 0.09294 0.0
C2930 C 0.76864 0.2224 0.11833 0.0
C2931 C 0.75399 0.21079 0.13249 0.0
C2932 C 0.74146 0.18665 0.12483 0.0
C2933 C 0.74645 0.17356 0.10501 0.0
C2934 C 0.78215 0.24819 0.12566 0.0
C2935 C 0.7248 0.17407 0.13896 0.0
C2936 C 0.77913 0.23237 0.19585 0.0
C2937 C 0.7678 0.249 0.20285 0.0
C2938 C 0.77393 0.21902 0.17318 0.0
C2939 C 0.75667 0.22213 0.15728 0.0
C2940 C 0.74441 0.23812 0.16458 0.0
C2941 C 0.75038 0.25169 0.18729 0.0
C2942 C 0.78761 0.20229 0.16602 0.0
C2943 C 0.72551 0.24143 0.14835 0.0
H2944 H 0.78563 0.21758 0.08866 0.0
H2945 H 0.73853 0.15461 0.10024 0.0
H2946 H 0.77131 0.25907 0.13221 0.0
H2947 H 0.79602 0.2502 0.14006 0.0
H2948 H 0.78989 0.25528 0.11107 0.0
H2949 H 0.71239 0.15794 0.12803 0.0
H2950 H 0.73417 0.16864 0.15317 0.0
H2951 H 0.71543 0.18588 0.14712 0.0
H2952 H 0.79249 0.23019 0.20795 0.0
H2953 H 0.74127 0.26424 0.19291 0.0
H2954 H 0.79706 0.20793 0.15184 0.0
H2955 H 0.77613 0.18416 0.15919 0.0
H2956 H 0.80003 0.20161 0.18073 0.0
H2957 H 0.73288 0.25338 0.13675 0.0
H2958 H 0.71409 0.24947 0.15814 0.0
H2959 H 0.71524 0.22434 0.13714 0.0
C2960 C 0.1293 0.57377 0.30779 0.0
C2961 C 0.11458 0.55139 0.29756 0.0
C2962 C 0.12559 0.58638 0.32854 0.0
C2963 C 0.10665 0.57617 0.33896 0.0
C2964 C 0.09094 0.55418 0.32768 0.0
C2965 C 0.09518 0.54198 0.30703 0.0
C2966 C 0.14261 0.60985 0.33973 0.0
C2967 C 0.07025 0.54293 0.33803 0.0
C2968 C 0.10387 0.58173 0.40275 0.0
C2969 C 0.08649 0.59258 0.40459 0.0
C2970 C 0.1127 0.57858 0.38187 0.0
C2971 C 0.10409 0.58678 0.36267 0.0
C2972 C 0.08914 0.60082 0.36559 0.0
C2973 C 0.08029 0.60341 0.38657 0.0
C2974 C 0.12925 0.56412 0.37957 0.0
C2975 C 0.08056 0.61087 0.34577 0.0
H2976 H 0.14391 0.58124 0.29983 0.0
H2977 H 0.08375 0.52476 0.29867 0.0
H2978 H 0.13448 0.62207 0.3494 0.0
H2979 H 0.15564 0.60687 0.35233 0.0
H2980 H 0.15146 0.61853 0.32652 0.0
H2981 H 0.059 0.52663 0.32623 0.0
H2982 H 0.07566 0.53828 0.35478 0.0
H2983 H 0.06024 0.55557 0.34182 0.0
H2984 H 0.1093 0.5741 0.41703 0.0
H2985 H 0.06709 0.61213 0.38799 0.0
H2986 H 0.14328 0.57254 0.37056 0.0
H2987 H 0.12034 0.54632 0.36884 0.0
H2988 H 0.13661 0.56189 0.39679 0.0
H2989 H 0.0944 0.6177 0.33581 0.0
H2990 H 0.07329 0.62537 0.35216 0.0
H2991 H 0.06706 0.59668 0.33358 0.0
C2992 C 0.80094 0.83627 0.61167 0.0
C2993 C 0.78272 0.8352 0.59467 0.0
C2994 C 0.79751 0.83039 0.63353 0.0
C2995 C 0.77517 0.82255 0.63876 0.0
C2996 C 0.75657 0.82098 0.62162 0.0
C2997 C 0.76055 0.82766 0.59996 0.0
C2998 C 0.81797 0.83283 0.65117 0.0
C2999 C 0.73245 0.81221 0.6262 0.0
C3000 C 0.77048 0.78659 0.68724 0.0
C3001 C 0.77111 0.80352 0.70715 0.0
C3002 C 0.77081 0.79228 0.66489 0.0
C3003 C 0.77168 0.81553 0.66199 0.0
C3004 C 0.77156 0.83253 0.68187 0.0
C3005 C 0.77136 0.82639 0.70414 0.0
C3006 C 0.77112 0.77353 0.64445 0.0
C3007 C 0.77246 0.85752 0.67977 0.0
H3008 H 0.81823 0.84243 0.6082 0.0
H3009 H 0.74633 0.82684 0.58715 0.0
H3010 H 0.81774 0.84493 0.66753 0.0
H3011 H 0.81742 0.8154 0.65561 0.0
H3012 H 0.83426 0.83979 0.64469 0.0
H3013 H 0.71982 0.81137 0.61101 0.0
H3014 H 0.72933 0.79431 0.63041 0.0
H3015 H 0.72973 0.82402 0.64156 0.0
H3016 H 0.77031 0.76885 0.68914 0.0
H3017 H 0.77179 0.83965 0.71924 0.0
H3018 H 0.78777 0.77838 0.63815 0.0
H3019 H 0.75785 0.77238 0.62977 0.0
H3020 H 0.76833 0.75582 0.64908 0.0
H3021 H 0.78906 0.8664 0.67489 0.0
H3022 H 0.77029 0.86809 0.69631 0.0
H3023 H 0.75902 0.85744 0.66572 0.0
C3024 C 0.73726 0.4842 0.51673 0.0
C3025 C 0.73038 0.45965 0.50911 0.0
C3026 C 0.72136 0.49678 0.51729 0.0
C3027 C 0.69814 0.48432 0.51012 0.0
C3028 C 0.69136 0.45991 0.50004 0.0
C3029 C 0.70775 0.44773 0.4996 0.0
C3030 C 0.72923 0.52293 0.52781 0.0
C3031 C 0.66671 0.44622 0.49183 0.0
C3032 C 0.66217 0.5104 0.54806 0.0
C3033 C 0.65432 0.52385 0.53375 0.0
C3034 C 0.6755 0.49627 0.53993 0.0
C3035 C 0.68123 0.49612 0.51715 0.0
C3036 C 0.67296 0.50941 0.5025 0.0
C3037 C 0.65942 0.52314 0.51101 0.0
C3038 C 0.68378 0.48185 0.55581 0.0
C3039 C 0.67882 0.50954 0.47817 0.0
H3040 H 0.75497 0.49345 0.52347 0.0
H3041 H 0.7026 0.42872 0.4934 0.0
H3042 H 0.72082 0.53284 0.51725 0.0
H3043 H 0.72452 0.52577 0.54557 0.0
H3044 H 0.74794 0.53046 0.52924 0.0
H3045 H 0.66491 0.42952 0.47936 0.0
H3046 H 0.65853 0.4416 0.5071 0.0
H3047 H 0.65739 0.45688 0.48339 0.0
H3048 H 0.65745 0.51057 0.56537 0.0
H3049 H 0.65273 0.53331 0.49994 0.0
H3050 H 0.70256 0.48856 0.56035 0.0
H3051 H 0.67946 0.4631 0.54678 0.0
H3052 H 0.67628 0.48255 0.57224 0.0
H3053 H 0.69715 0.5188 0.47919 0.0
H3054 H 0.66882 0.51856 0.46812 0.0
H3055 H 0.67578 0.4912 0.46844 0.0
C3056 C 0.19337 0.1388 0.53696 0.0
C3057 C 0.20045 0.14893 0.51803 0.0
C3058 C 0.17103 0.12463 0.5359 0.0
C3059 C 0.1552 0.12049 0.51544 0.0
C3060 C 0.16201 0.13105 0.4964 0.0
C3061 C 0.1846 0.14514 0.49791 0.0
C3062 C 0.16445 0.11381 0.55664 0.0
C3063 C 0.14554 0.12719 0.47437 0.0
C3064 C 0.10473 0.06559 0.50828 0.0
C3065 C 0.08834 0.07518 0.51742 0.0
C3066 C 0.12628 0.08024 0.5066 0.0
C3067 C 0.13157 0.10505 0.51425 0.0
C3068 C 0.11483 0.11488 0.52271 0.0
C3069 C 0.09347 0.09986 0.52421 0.0
C3070 C 0.14363 0.06908 0.49733 0.0
C3071 C 0.11973 0.14123 0.53096 0.0
H3072 H 0.20542 0.14163 0.55262 0.0
H3073 H 0.18991 0.15288 0.48319 0.0
H3074 H 0.15005 0.11943 0.56297 0.0
H3075 H 0.15866 0.09424 0.5514 0.0
H3076 H 0.17874 0.11889 0.57132 0.0
H3077 H 0.15333 0.13707 0.46136 0.0
H3078 H 0.13938 0.10808 0.46636 0.0
H3079 H 0.13046 0.13282 0.47853 0.0
H3080 H 0.10089 0.0466 0.50278 0.0
H3081 H 0.08088 0.10756 0.53103 0.0
H3082 H 0.15796 0.07188 0.51148 0.0
H3083 H 0.15072 0.07762 0.48322 0.0
H3084 H 0.13633 0.04978 0.49043 0.0
H3085 H 0.13274 0.1473 0.54684 0.0
H3086 H 0.10431 0.14623 0.53514 0.0
H3087 H 0.12675 0.15082 0.51746 0.0
C3088 C 0.16775 0.9815 0.79321 0.0
C3089 C 0.15837 0.9927 0.77719 0.0
C3090 C 0.17917 0.96494 0.78617 0.0
C3091 C 0.18159 0.95934 0.76243 0.0
C3092 C 0.17177 0.97008 0.74595 0.0
C3093 C 0.16011 0.98657 0.7535 0.0
C3094 C 0.18903 0.95375 0.80437 0.0
C3095 C 0.174 0.9645 0.72047 0.0
C3096 C 0.23282 0.9368 0.75559 0.0
C3097 C 0.22303 0.91218 0.75128 0.0
C3098 C 0.21935 0.95233 0.75765 0.0
C3099 C 0.19544 0.94311 0.75553 0.0
C3100 C 0.18533 0.91829 0.75013 0.0
C3101 C 0.19922 0.90314 0.74805 0.0
C3102 C 0.23088 0.97866 0.76357 0.0
C3103 C 0.15993 0.90768 0.74784 0.0
H3104 H 0.16617 0.98567 0.81151 0.0
H3105 H 0.15282 -0.00501 0.741 0.0
H3106 H 0.18257 0.93419 0.79934 0.0
H3107 H 0.2078 0.9587 0.80552 0.0
H3108 H 0.18481 0.95928 0.82195 0.0
H3109 H 0.16463 0.97351 0.7097 0.0
H3110 H 0.19219 0.97005 0.71835 0.0
H3111 H 0.16748 0.94513 0.71372 0.0
H3112 H 0.25116 0.94407 0.75845 0.0
H3113 H 0.19142 0.88416 0.74434 0.0
H3114 H 0.22926 0.98574 0.78178 0.0
H3115 H 0.22254 0.98781 0.75202 0.0
H3116 H 0.24923 0.98305 0.76193 0.0
H3117 H 0.15457 0.91046 0.76529 0.0
H3118 H 0.1545 0.88839 0.74047 0.0
H3119 H 0.1509 0.91654 0.73659 0.0
C3120 C 0.35124 0.98005 0.98769 0.0
C3121 C 0.346 0.97571 0.00949 0.0
C3122 C 0.37389 0.98991 0.98477 0.0
C3123 C 0.39129 -0.00409 0.00425 0.0
C3124 C 0.38574 0.99278 0.02653 0.0
C3125 C 0.36317 0.98244 0.02878 0.0
C3126 C 0.37933 0.99268 0.96073 0.0
C3127 C 0.40374 -0.00065 0.04784 0.0
C3128 C 0.45134 -0.00594 0.00176 0.0
C3129 C 0.4632 0.01819 0.00678 0.0
C3130 C 0.42759 0.9865 -0.00119 0.0
C3131 C 0.41554 0.00355 0.00145 0.0
C3132 C 0.42736 0.02792 0.00518 0.0
C3133 C 0.45115 0.03497 0.00762 0.0
C3134 C 0.41551 0.96032 0.99446 0.0
C3135 C 0.41507 0.04657 0.0084 0.0
H3136 H 0.33785 0.97466 0.97278 0.0
H3137 H 0.35895 0.97924 0.04568 0.0
H3138 H 0.39085 0.01059 0.96126 0.0
H3139 H 0.38834 0.97974 0.95436 0.0
H3140 H 0.36379 0.98971 0.94801 0.0
H3141 H 0.39628 -0.00212 0.06417 0.0
H3142 H 0.41477 0.9875 0.04603 0.0
H3143 H 0.41473 0.01773 0.04954 0.0
H3144 H 0.46065 0.98105 0.00072 0.0
H3145 H 0.46033 0.05366 0.01147 0.0
H3146 H 0.40071 0.95556 0.98042 0.0
H3147 H 0.40897 0.95567 0.01052 0.0
H3148 H 0.42693 0.94945 0.98952 0.0
H3149 H 0.40002 0.04209 0.99471 0.0
H3150 H 0.42626 0.0644 0.00794 0.0
H3151 H 0.40885 0.04729 0.02551 0.0
C3152 C 0.85134 0.57153 0.76977 0.0
C3153 C 0.84687 0.56612 0.79153 0.0
C3154 C 0.8377 0.58216 0.75749 0.0
C3155 C 0.81928 0.58744 0.76729 0.0
C3156 C 0.81315 0.57952 0.78782 0.0
C3157 C 0.82709 0.56895 0.79977 0.0
C3158 C 0.84444 0.58983 0.73534 0.0
C3159 C 0.79327 0.58442 0.79852 0.0
C3160 C 0.80926 0.64625 0.76531 0.0
C3161 C 0.78822 0.63951 0.75087 0.0
C3162 C 0.82006 0.62945 0.76987 0.0
C3163 C 0.80969 0.60538 0.75936 0.0
C3164 C 0.78939 0.59869 0.74325 0.0
C3165 C 0.77873 0.61591 0.73928 0.0
C3166 C 0.84191 0.63734 0.78698 0.0
C3167 C 0.77829 0.57328 0.73122 0.0
H3168 H 0.86626 0.56878 0.7629 0.0
H3169 H 0.82318 0.5642 0.81624 0.0
H3170 H 0.82928 0.58814 0.72261 0.0
H3171 H 0.85466 0.60871 0.73952 0.0
H3172 H 0.8549 0.57934 0.72702 0.0
H3173 H 0.78853 0.57377 0.81205 0.0
H3174 H 0.7978 0.60343 0.80679 0.0
H3175 H 0.77822 0.58058 0.78495 0.0
H3176 H 0.81696 0.66465 0.77367 0.0
H3177 H 0.76252 0.61073 0.72797 0.0
H3178 H 0.85531 0.63108 0.77908 0.0
H3179 H 0.83913 0.62948 0.80268 0.0
H3180 H 0.84827 0.65688 0.79264 0.0
H3181 H 0.79117 0.56461 0.72561 0.0
H3182 H 0.76573 0.57184 0.71575 0.0
H3183 H 0.7693 0.56339 0.74358 0.0
C3184 C 0.8305 0.65431 0.0078 0.0
C3185 C 0.82337 0.66644 0.02663 0.0
C3186 C 0.84688 0.64248 0.01141 0.0
C3187 C 0.85689 0.64341 0.03445 0.0
C3188 C 0.85046 0.65665 0.05354 0.0
C3189 C 0.83336 0.66765 0.04941 0.0
C3190 C 0.85275 0.62814 0.99057 0.0
C3191 C 0.86127 0.65875 0.07827 0.0
C3192 C 0.87866 0.59083 0.04053 0.0
C3193 C 0.90152 0.59936 0.03773 0.0
C3194 C 0.86425 0.60539 0.04079 0.0
C3195 C 0.87288 0.62916 0.03828 0.0
C3196 C 0.89624 0.63827 0.03676 0.0
C3197 C 0.91024 0.62324 0.03638 0.0
C3198 C 0.83945 0.59489 0.04234 0.0
C3199 C 0.90623 0.66361 0.03451 0.0
H3200 H 0.82247 0.65321 0.9902 0.0
H3201 H 0.82772 0.67705 0.06393 0.0
H3202 H 0.8713 0.63409 0.99016 0.0
H3203 H 0.84825 0.60923 0.99199 0.0
H3204 H 0.84368 0.62953 0.9738 0.0
H3205 H 0.85601 0.67148 0.09089 0.0
H3206 H 0.85643 0.64122 0.08334 0.0
H3207 H 0.88006 0.66454 0.07964 0.0
H3208 H 0.87171 0.57238 0.04141 0.0
H3209 H 0.92799 0.6301 0.03464 0.0
H3210 H 0.82899 0.59388 0.02551 0.0
H3211 H 0.83397 0.60631 0.05603 0.0
H3212 H 0.83585 0.57685 0.0463 0.0
H3213 H 0.8999 0.66594 0.01696 0.0
H3214 H 0.9251 0.66888 0.03684 0.0
H3215 H 0.90079 0.67576 0.04755 0.0
C3216 C 0.19036 0.10861 0.79898 0.0
C3217 C 0.1669 0.10538 0.79745 0.0
C3218 C 0.20508 0.1293 0.79449 0.0
C3219 C 0.19628 0.14772 0.78926 0.0
C3220 C 0.17255 0.14458 0.7878 0.0
C3221 C 0.15808 0.12324 0.79145 0.0
C3222 C 0.23005 0.13142 0.7953 0.0
C3223 C 0.16251 0.16398 0.78295 0.0
C3224 C 0.23827 0.20973 0.80206 0.0
C3225 C 0.24194 0.21327 0.77963 0.0
C3226 C 0.22316 0.18868 0.8054 0.0
C3227 C 0.21202 0.17042 0.78586 0.0
C3228 C 0.21616 0.17383 0.76317 0.0
C3229 C 0.23072 0.19542 0.76031 0.0
C3230 C 0.21873 0.18618 0.8298 0.0
C3231 C 0.20531 0.15463 0.74193 0.0
H3232 H 0.19719 0.09469 0.80332 0.0
H3233 H 0.13996 0.12082 0.79033 0.0
H3234 H 0.23575 0.13584 0.77882 0.0
H3235 H 0.24013 0.146 0.80973 0.0
H3236 H 0.23393 0.11487 0.79791 0.0
H3237 H 0.14381 0.15892 0.78269 0.0
H3238 H 0.17043 0.1802 0.79652 0.0
H3239 H 0.16623 0.16851 0.76592 0.0
H3240 H 0.24664 0.2238 0.81694 0.0
H3241 H 0.23349 0.19831 0.74295 0.0
H3242 H 0.22397 0.17102 0.83453 0.0
H3243 H 0.20026 0.18244 0.8306 0.0
H3244 H 0.228 0.20234 0.84299 0.0
H3245 H 0.2098 0.13825 0.74395 0.0
H3246 H 0.21077 0.15981 0.72561 0.0
H3247 H 0.18654 0.15033 0.74015 0.0
C3248 C 0.37151 0.961 0.3042 0.0
C3249 C 0.36041 0.97806 0.31023 0.0
C3250 C 0.35923 0.9371 0.29763 0.0
C3251 C 0.33529 0.93049 0.29633 0.0
C3252 C 0.32392 0.94789 0.30121 0.0
C3253 C 0.33675 0.9716 0.30863 0.0
C3254 C 0.37195 0.9189 0.29329 0.0
C3255 C 0.29835 0.94138 0.2992 0.0
C3256 C 0.30533 0.86821 0.264 0.0
C3257 C 0.30211 0.8563 0.28258 0.0
C3258 C 0.31526 0.89269 0.26821 0.0
C3259 C 0.32242 0.90523 0.2915 0.0
C3260 C 0.31859 0.89336 0.31032 0.0
C3261 C 0.30818 0.86897 0.3056 0.0
C3262 C 0.31874 0.90501 0.24781 0.0
C3263 C 0.32652 0.90618 0.33539 0.0
H3264 H 0.38991 0.96627 0.30574 0.0
H3265 H 0.32837 0.98508 0.31323 0.0
H3266 H 0.3698 0.9079 0.30686 0.0
H3267 H 0.36496 0.90687 0.27615 0.0
H3268 H 0.39042 0.92715 0.29368 0.0
H3269 H 0.29208 0.95722 0.30134 0.0
H3270 H 0.29037 0.9299 0.28197 0.0
H3271 H 0.29262 0.93117 0.31274 0.0
H3272 H 0.30039 0.85833 0.24619 0.0
H3273 H 0.30583 0.85966 0.31994 0.0
H3274 H 0.33716 0.91296 0.24781 0.0
H3275 H 0.31082 0.91964 0.24945 0.0
H3276 H 0.3114 0.89276 0.2308 0.0
H3277 H 0.34528 0.91378 0.33837 0.0
H3278 H 0.32176 0.89436 0.34796 0.0
H3279 H 0.31915 0.92109 0.33917 0.0
C3280 C 0.57016 0.37787 0.56457 0.0
C3281 C 0.55014 0.36157 0.56798 0.0
C3282 C 0.56963 0.39891 0.55621 0.0
C3283 C 0.54874 0.40454 0.55184 0.0
C3284 C 0.52864 0.38815 0.55536 0.0
C3285 C 0.52956 0.36713 0.56292 0.0
C3286 C 0.59149 0.41518 0.55202 0.0
C3287 C 0.50595 0.39306 0.55173 0.0
C3288 C 0.54701 0.46922 0.55537 0.0
C3289 C 0.54027 0.47025 0.53202 0.0
C3290 C 0.55027 0.44839 0.56188 0.0
C3291 C 0.54757 0.42777 0.54469 0.0
C3292 C 0.54154 0.42894 0.52094 0.0
C3293 C 0.53764 0.44982 0.51498 0.0
C3294 C 0.55572 0.4482 0.58744 0.0
C3295 C 0.5391 0.408 0.50172 0.0
H3296 H 0.58622 0.37415 0.56824 0.0
H3297 H 0.5138 0.35522 0.56557 0.0
H3298 H 0.58943 0.41897 0.53418 0.0
H3299 H 0.59577 0.43231 0.56449 0.0
H3300 H 0.60591 0.40755 0.55403 0.0
H3301 H 0.49187 0.37885 0.55556 0.0
H3302 H 0.50671 0.41002 0.56317 0.0
H3303 H 0.50186 0.3949 0.53345 0.0
H3304 H 0.54899 0.48461 0.56886 0.0
H3305 H 0.53266 0.45019 0.49686 0.0
H3306 H 0.57162 0.44325 0.59076 0.0
H3307 H 0.54192 0.43469 0.59258 0.0
H3308 H 0.55771 0.46562 0.59874 0.0
H3309 H 0.55503 0.40278 0.50272 0.0
H3310 H 0.53527 0.41181 0.48412 0.0
H3311 H 0.5253 0.39262 0.50392 0.0
C3312 C 0.42775 0.75897 0.37351 0.0
C3313 C 0.43284 0.76907 0.3974 0.0
C3314 C 0.40855 0.76053 0.35945 0.0
C3315 C 0.39427 0.7733 0.36919 0.0
C3316 C 0.39938 0.7836 0.39342 0.0
C3317 C 0.4184 0.7811 0.40729 0.0
C3318 C 0.4037 0.74864 0.33401 0.0
C3319 C 0.38521 0.79799 0.40453 0.0
C3320 C 0.35957 0.79527 0.32435 0.0
C3321 C 0.33773 0.77944 0.32202 0.0
C3322 C 0.37775 0.79419 0.34038 0.0
C3323 C 0.37443 0.77613 0.35378 0.0
C3324 C 0.35237 0.76 0.35131 0.0
C3325 C 0.33427 0.76216 0.33591 0.0
C3326 C 0.40059 0.81239 0.34294 0.0
C3327 C 0.34803 0.73988 0.36435 0.0
H3328 H 0.43894 0.74979 0.36575 0.0
H3329 H 0.42246 0.7893 0.42565 0.0
H3330 H 0.38587 0.73713 0.32953 0.0
H3331 H 0.40572 0.76218 0.32294 0.0
H3332 H 0.41523 0.73775 0.32956 0.0
H3333 H 0.39118 0.8047 0.42352 0.0
H3334 H 0.38582 0.81329 0.39592 0.0
H3335 H 0.36717 0.7872 0.402 0.0
H3336 H 0.36236 0.80882 0.31388 0.0
H3337 H 0.31749 0.74976 0.33411 0.0
H3338 H 0.41318 0.80377 0.33647 0.0
H3339 H 0.40683 0.82055 0.36162 0.0
H3340 H 0.3999 0.82661 0.33312 0.0
H3341 H 0.35874 0.72828 0.3592 0.0
H3342 H 0.32994 0.72902 0.36085 0.0
H3343 H 0.35289 0.74681 0.3834 0.0
C3344 C 0.02093 0.71357 0.06465 0.0
C3345 C 0.04077 0.73264 0.06729 0.0
C3346 C 0.02102 0.68984 0.05786 0.0
C3347 C 0.04129 0.68464 0.05271 0.0
C3348 C 0.06125 0.70387 0.05457 0.0
C3349 C 0.06087 0.72748 0.06227 0.0
C3350 C -0.00058 0.67023 0.05685 0.0
C3351 C 0.08308 0.69948 0.04852 0.0
C3352 C 0.04479 0.62235 0.05788 0.0
C3353 C 0.03816 0.60977 0.03477 0.0
C3354 C 0.04673 0.64676 0.06377 0.0
C3355 C 0.04159 0.65911 0.04621 0.0
C3356 C 0.0353 0.64647 0.02271 0.0
C3357 C 0.03368 0.62206 0.01731 0.0
C3358 C 0.0536 0.65918 0.089 0.0
C3359 C 0.02958 0.65856 0.00331 0.0
H3360 H 0.00534 0.71715 0.06878 0.0
H3361 H 0.0763 0.74195 0.06418 0.0
H3362 H 0.99447 0.65898 0.03912 0.0
H3363 H 0.0023 0.65872 0.06916 0.0
H3364 H 0.98505 0.67706 0.06136 0.0
H3365 H 0.09667 0.71619 0.04925 0.0
H3366 H 0.08917 0.68946 0.06079 0.0
H3367 H 0.08008 0.6885 0.03072 0.0
H3368 H 0.0481 0.61293 0.07149 0.0
H3369 H 0.02825 0.61241 -0.00055 0.0
H3370 H 0.03936 0.66514 0.09532 0.0
H3371 H 0.06827 0.67517 0.09077 0.0
H3372 H 0.05827 0.6476 0.10039 0.0
H3373 H 0.01372 0.66344 0.00552 0.0
H3374 H 0.02712 0.64709 0.98582 0.0
H3375 H 0.04326 0.67516 0.00403 0.0
C3376 C 0.07082 0.27767 0.90423 0.0
C3377 C 0.05444 0.28803 0.89615 0.0
C3378 C 0.09093 0.27947 0.89428 0.0
C3379 C 0.09473 0.29178 0.87568 0.0
C3380 C 0.07863 0.30294 0.86804 0.0
C3381 C 0.05882 0.30099 0.87837 0.0
C3382 C 0.1078 0.26764 0.90321 0.0
C3383 C 0.08192 0.31629 0.84834 0.0
C3384 C 0.15281 0.31185 0.85611 0.0
C3385 C 0.15074 0.29436 0.83626 0.0
C3386 C 0.13514 0.31079 0.86968 0.0
C3387 C 0.11472 0.29192 0.86314 0.0
C3388 C 0.11278 0.27393 0.84346 0.0
C3389 C 0.13079 0.27531 0.83036 0.0
C3390 C 0.13811 0.33014 0.89072 0.0
C3391 C 0.09129 0.25361 0.83569 0.0
H3392 H 0.06772 0.26771 0.91801 0.0
H3393 H 0.04643 0.30921 0.87202 0.0
H3394 H 0.10853 0.25296 0.88939 0.0
H3395 H 0.12508 0.28039 0.90758 0.0
H3396 H 0.10331 0.26039 0.91892 0.0
H3397 H 0.06835 0.32485 0.84513 0.0
H3398 H 0.09858 0.33013 0.85225 0.0
H3399 H 0.08201 0.30399 0.83206 0.0
H3400 H 0.16829 0.32646 0.86101 0.0
H3401 H 0.12891 0.26183 0.81496 0.0
H3402 H 0.13453 0.32238 0.90633 0.0
H3403 H 0.12578 0.34023 0.88782 0.0
H3404 H 0.15554 0.34267 0.89444 0.0
H3405 H 0.08692 0.24449 0.85032 0.0
H3406 H 0.09285 0.24045 0.82073 0.0
H3407 H 0.07695 0.26045 0.83045 0.0
C3408 C 0.51284 0.75571 0.91856 0.0
C3409 C 0.52386 0.7568 0.8988 0.0
C3410 C 0.5124 0.73785 0.93143 0.0
C3411 C 0.52315 0.72034 0.92442 0.0
C3412 C 0.53499 0.7217 0.90493 0.0
C3413 C 0.53531 0.74001 0.8924 0.0
C3414 C 0.49972 0.73732 0.95212 0.0
C3415 C 0.54649 0.70326 0.89676 0.0
C3416 C 0.53458 0.6852 0.97059 0.0
C3417 C 0.51551 0.66512 0.96503 0.0
C3418 C 0.53767 0.70289 0.9571 0.0
C3419 C 0.52142 0.70047 0.93737 0.0
C3420 C 0.50244 0.67992 0.93128 0.0
C3421 C 0.49966 0.66261 0.94523 0.0
C3422 C 0.55794 0.72461 0.96445 0.0
C3423 C 0.48476 0.67648 0.91034 0.0
H3424 H 0.50397 0.76863 0.92368 0.0
H3425 H 0.54356 0.74049 0.87697 0.0
H3426 H 0.48507 0.72108 0.94867 0.0
H3427 H 0.51094 0.73678 0.96785 0.0
H3428 H 0.49325 0.75291 0.95601 0.0
H3429 H 0.55606 0.70749 0.88223 0.0
H3430 H 0.55836 0.70158 0.9114 0.0
H3431 H 0.53354 0.68579 0.89075 0.0
H3432 H 0.5468 0.68744 0.98597 0.0
H3433 H 0.48504 0.64702 0.9406 0.0
H3434 H 0.55208 0.7404 0.96961 0.0
H3435 H 0.56743 0.72756 0.94963 0.0
H3436 H 0.56974 0.72322 0.97936 0.0
H3437 H 0.47573 0.69015 0.91319 0.0
H3438 H 0.47201 0.65877 0.90688 0.0
H3439 H 0.493 0.67865 0.89459 0.0
C3440 C 0.09965 0.76741 0.72173 0.0
C3441 C 0.08549 0.76201 0.73863 0.0
C3442 C 0.12323 0.76965 0.72594 0.0
C3443 C 0.13321 0.76651 0.74763 0.0
C3444 C 0.11897 0.76095 0.76466 0.0
C3445 C 0.09552 0.75876 0.75998 0.0
C3446 C 0.13754 0.77552 0.70717 0.0
C3447 C 0.12857 0.75753 0.78806 0.0
C3448 C 0.19106 0.75322 0.75396 0.0
C3449 C 0.20632 0.77554 0.76408 0.0
C3450 C 0.16745 0.75008 0.74822 0.0
C3451 C 0.15854 0.76963 0.75285 0.0
C3452 C 0.17387 0.79215 0.76318 0.0
C3453 C 0.19736 0.79482 0.76851 0.0
C3454 C 0.152 0.72578 0.73705 0.0
C3455 C 0.16546 0.81355 0.76877 0.0
H3456 H 0.09232 0.76996 0.70516 0.0
H3457 H 0.085 0.75459 0.77329 0.0
H3458 H 0.15101 0.79254 0.7137 0.0
H3459 H 0.14616 0.76173 0.70264 0.0
H3460 H 0.12732 0.77692 0.69109 0.0
H3461 H 0.11533 0.75296 0.79937 0.0
H3462 H 0.1369 0.74324 0.78561 0.0
H3463 H 0.14179 0.77395 0.79726 0.0
H3464 H 0.1976 0.73817 0.7502 0.0
H3465 H 0.20875 0.81218 0.77635 0.0
H3466 H 0.14274 0.72636 0.72008 0.0
H3467 H 0.13908 0.71986 0.74831 0.0
H3468 H 0.16146 0.71248 0.73405 0.0
H3469 H 0.15639 0.81638 0.75272 0.0
H3470 H 0.17949 0.8299 0.77646 0.0
H3471 H 0.15313 0.81058 0.78126 0.0
C3472 C 0.01834 0.37145 0.42157 0.0
C3473 C 0.03076 0.36881 0.40297 0.0
C3474 C 0.02142 0.39348 0.43615 0.0
C3475 C 0.03755 0.41386 0.43249 0.0
C3476 C 0.05103 0.41129 0.41451 0.0
C3477 C 0.04747 0.38884 0.39994 0.0
C3478 C 0.00667 0.39502 0.45504 0.0
C3479 C 0.06879 0.43238 0.41027 0.0
C3480 C 0.02389 0.47158 0.45464 0.0
C3481 C 0.03658 0.47916 0.47715 0.0
C3482 C 0.02488 0.45105 0.43957 0.0
C3483 C 0.03917 0.43774 0.44687 0.0
C3484 C 0.05286 0.44596 0.46913 0.0
C3485 C 0.05127 0.46634 0.484 0.0
C3486 C 0.00972 0.44295 0.41622 0.0
C3487 C 0.06859 0.4327 0.47768 0.0
H3488 H 0.0056 0.35621 0.42452 0.0
H3489 H 0.05723 0.38716 0.38576 0.0
H3490 H 0.01742 0.40305 0.47225 0.0
H3491 H 0.99592 0.4066 0.45161 0.0
H3492 H 0.9954 0.37744 0.45615 0.0
H3493 H 0.07924 0.42727 0.39714 0.0
H3494 H 0.06042 0.44493 0.404 0.0
H3495 H 0.08019 0.44191 0.4268 0.0
H3496 H 0.01249 0.48123 0.44903 0.0
H3497 H 0.06135 0.47203 0.50121 0.0
H3498 H 0.99675 0.42597 0.41602 0.0
H3499 H 0.01981 0.43971 0.4021 0.0
H3500 H 0.00086 0.45604 0.4123 0.0
H3501 H 0.05844 0.41587 0.48168 0.0
H3502 H 0.08047 0.44307 0.49368 0.0
H3503 H 0.07864 0.42813 0.46395 0.0
C3504 C 0.4409 0.2485 0.24491 0.0
C3505 C 0.44786 0.25577 0.22449 0.0
C3506 C 0.42069 0.25167 0.25292 0.0
C3507 C 0.40693 0.26279 0.2406 0.0
C3508 C 0.41397 0.2702 0.22004 0.0
C3509 C 0.43398 0.2665 0.21226 0.0
C3510 C 0.41411 0.24316 0.27473 0.0
C3511 C 0.40047 0.28245 0.20629 0.0
C3512 C 0.34327 0.25307 0.24648 0.0
C3513 C 0.3431 0.27387 0.26162 0.0
C3514 C 0.36369 0.24908 0.24009 0.0
C3515 C 0.38502 0.26629 0.24872 0.0
C3516 C 0.38506 0.28722 0.26426 0.0
C3517 C 0.36434 0.29069 0.27053 0.0
C3518 C 0.36235 0.2264 0.22372 0.0
C3519 C 0.40707 0.30626 0.27402 0.0
H3520 H 0.45136 0.24043 0.2548 0.0
H3521 H 0.43906 0.27261 0.19669 0.0
H3522 H 0.41352 0.25828 0.28811 0.0
H3523 H 0.39683 0.2304 0.27086 0.0
H3524 H 0.42617 0.2345 0.28219 0.0
H3525 H 0.4082 0.28752 0.19091 0.0
H3526 H 0.3829 0.27072 0.20017 0.0
H3527 H 0.39922 0.29864 0.21764 0.0
H3528 H 0.32727 0.23973 0.23936 0.0
H3529 H 0.36478 0.30687 0.28218 0.0
H3530 H 0.37367 0.21724 0.2316 0.0
H3531 H 0.36834 0.23043 0.20725 0.0
H3532 H 0.34479 0.21416 0.21944 0.0
H3533 H 0.41903 0.29879 0.28345 0.0
H3534 H 0.40454 0.3213 0.28616 0.0
H3535 H 0.41524 0.31307 0.25956 0.0
C3536 C 0.60405 0.54096 0.36544 0.0
C3537 C 0.5912 0.54623 0.34707 0.0
C3538 C 0.59667 0.54007 0.38717 0.0
C3539 C 0.57578 0.54446 0.39078 0.0
C3540 C 0.56298 0.55052 0.37259 0.0
C3541 C 0.57085 0.55135 0.35094 0.0
C3542 C 0.61086 0.53352 0.40603 0.0
C3543 C 0.54063 0.55538 0.37575 0.0
C3544 C 0.54603 0.51673 0.43747 0.0
C3545 C 0.553 0.5355 0.45678 0.0
C3546 C 0.55323 0.51943 0.41587 0.0
C3547 C 0.56711 0.54169 0.41331 0.0
C3548 C 0.57376 0.56085 0.43268 0.0
C3549 C 0.56695 0.55741 0.4543 0.0
C3550 C 0.54615 0.49839 0.39584 0.0
C3551 C 0.58792 0.58503 0.4305 0.0
H3552 H 0.61967 0.53677 0.36271 0.0
H3553 H 0.56068 0.55525 0.33683 0.0
H3554 H 0.61488 0.54729 0.42218 0.0
H3555 H 0.6011 0.51668 0.41035 0.0
H3556 H 0.62705 0.53138 0.40073 0.0
H3557 H 0.5336 0.56162 0.36064 0.0
H3558 H 0.52805 0.53902 0.37792 0.0
H3559 H 0.54275 0.5689 0.3918 0.0
H3560 H 0.53506 0.49984 0.43934 0.0
H3561 H 0.57184 0.57212 0.46907 0.0
H3562 H 0.56145 0.49431 0.39005 0.0
H3563 H 0.53679 0.50254 0.38075 0.0
H3564 H 0.53519 0.48237 0.40063 0.0
H3565 H 0.60481 0.58419 0.42628 0.0
H3566 H 0.59043 0.59843 0.44675 0.0
H3567 H 0.57964 0.59101 0.41595 0.0
C3568 C 0.28037 0.8821 0.0825 0.0
C3569 C 0.27859 0.87701 0.05829 0.0
C3570 C 0.27699 0.86383 0.09499 0.0
C3571 C 0.27183 0.84015 0.08269 0.0
C3572 C 0.26716 0.83492 0.05805 0.0
C3573 C 0.27093 0.85361 0.046 0.0
C3574 C 0.28184 0.87016 0.12132 0.0
C3575 C 0.26066 0.80987 0.0444 0.0
C3576 C 0.30648 0.81018 0.11593 0.0
C3577 C 0.29121 0.80058 0.1302 0.0
C3578 C 0.29965 0.82131 0.09857 0.0
C3579 C 0.27694 0.82245 0.09542 0.0
C3580 C 0.26083 0.81027 0.10793 0.0
C3581 C 0.26825 0.79963 0.12549 0.0
C3582 C 0.31736 0.834 0.08541 0.0
C3583 C 0.2363 0.81024 0.10431 0.0
H3584 H 0.28627 0.90038 0.09171 0.0
H3585 H 0.26951 0.84996 0.02712 0.0
H3586 H 0.26853 0.85865 0.12904 0.0
H3587 H 0.29833 0.8674 0.12741 0.0
H3588 H 0.28278 0.8889 0.12804 0.0
H3589 H 0.25119 0.80828 0.02683 0.0
H3590 H 0.27628 0.80456 0.042 0.0
H3591 H 0.25011 0.79734 0.05375 0.0
H3592 H 0.3242 0.81083 0.11969 0.0
H3593 H 0.25642 0.7918 0.13644 0.0
H3594 H 0.32058 0.85341 0.09075 0.0
H3595 H 0.31122 0.82912 0.06638 0.0
H3596 H 0.33373 0.82988 0.08872 0.0
H3597 H 0.23464 0.82689 0.11437 0.0
H3598 H 0.22513 0.79524 0.11046 0.0
H3599 H 0.23019 0.8092 0.08565 0.0
C3600 C 0.92263 0.54165 0.89404 0.0
C3601 C 0.92534 0.53094 0.87196 0.0
C3602 C 0.92955 0.5335 0.91377 0.0
C3603 C 0.9395 0.51474 0.91078 0.0
C3604 C 0.93713 0.50073 0.88843 0.0
C3605 C 0.93043 0.50932 0.86902 0.0
C3606 C 0.92986 0.54742 0.93767 0.0
C3607 C 0.94549 0.47917 0.88485 0.0
C3608 C -0.00026 0.53377 0.94167 0.0
C3609 C 0.99744 0.52274 0.96071 0.0
C3610 C 0.98088 0.531 0.92523 0.0
C3611 C 0.95931 0.51632 0.92781 0.0
C3612 C 0.95719 0.50414 0.94652 0.0
C3613 C 0.97647 0.50755 0.96288 0.0
C3614 C 0.98412 0.54433 0.90545 0.0
C3615 C 0.93496 0.48739 0.94934 0.0
H3616 H 0.91742 0.55767 0.89613 0.0
H3617 H 0.93095 0.50009 0.85168 0.0
H3618 H 0.92748 0.5358 0.95069 0.0
H3619 H 0.94657 0.56106 0.94327 0.0
H3620 H 0.91639 0.55651 0.93753 0.0
H3621 H 0.93702 0.46699 0.86807 0.0
H3622 H 0.96406 0.48476 0.88441 0.0
H3623 H 0.94244 0.46953 0.89937 0.0
H3624 H 0.01615 0.54539 0.94019 0.0
H3625 H 0.97512 0.49849 0.97745 0.0
H3626 H 0.97298 0.55608 0.90555 0.0
H3627 H 0.9795 0.53171 0.88847 0.0
H3628 H 0.00193 0.55542 0.9066 0.0
H3629 H 0.92006 0.49233 0.94203 0.0
H3630 H 0.93406 0.48662 0.96801 0.0
H3631 H 0.93375 0.46935 0.93997 0.0
C3632 C 0.26178 0.22607 0.58502 0.0
C3633 C 0.28202 0.23702 0.57716 0.0
C3634 C 0.25807 0.23294 0.6081 0.0
C3635 C 0.27491 0.25132 0.62388 0.0
C3636 C 0.29473 0.26339 0.61564 0.0
C3637 C 0.29805 0.2561 0.59252 0.0
C3638 C 0.23665 0.21958 0.61596 0.0
C3639 C 0.3131 0.2832 0.63166 0.0
C3640 C 0.26267 0.27749 0.68383 0.0
C3641 C 0.27212 0.26513 0.69852 0.0
C3642 C 0.2631 0.27306 0.65948 0.0
C3643 C 0.27323 0.25588 0.64952 0.0
C3644 C 0.28244 0.24316 0.66426 0.0
C3645 C 0.28175 0.24788 0.68836 0.0
C3646 C 0.25305 0.28702 0.64446 0.0
C3647 C 0.29342 0.22469 0.65462 0.0
H3648 H 0.24916 0.21136 0.57344 0.0
H3649 H 0.31369 0.26488 0.58676 0.0
H3650 H 0.24093 0.20862 0.62824 0.0
H3651 H 0.22866 0.23205 0.62545 0.0
H3652 H 0.22405 0.20778 0.6011 0.0
H3653 H 0.32609 0.29266 0.62204 0.0
H3654 H 0.30564 0.29614 0.6412 0.0
H3655 H 0.32171 0.27588 0.64487 0.0
H3656 H 0.25525 0.29088 0.69136 0.0
H3657 H 0.28911 0.23809 0.69933 0.0
H3658 H 0.24015 0.27484 0.63011 0.0
H3659 H 0.26654 0.29777 0.6363 0.0
H3660 H 0.24496 0.29901 0.65459 0.0
H3661 H 0.2812 0.2109 0.64085 0.0
H3662 H 0.29938 0.21598 0.66829 0.0
H3663 H 0.30819 0.23296 0.64643 0.0
C3664 C 0.5844 0.53668 0.19751 0.0
C3665 C 0.57157 0.54102 0.21524 0.0
C3666 C 0.57691 0.5371 0.17423 0.0
C3667 C 0.5561 0.54207 0.16846 0.0
C3668 C 0.54314 0.5466 0.18628 0.0
C3669 C 0.55101 0.546 0.20941 0.0
C3670 C 0.59114 0.53197 0.15572 0.0
C3671 C 0.52082 0.55183 0.18087 0.0
C3672 C 0.54695 0.56155 0.11044 0.0
C3673 C 0.53444 0.54011 0.09569 0.0
C3674 C 0.55373 0.56259 0.1343 0.0
C3675 C 0.54764 0.54176 0.14365 0.0
C3676 C 0.5342 0.5203 0.12902 0.0
C3677 C 0.52787 0.51972 0.10526 0.0
C3678 C 0.56806 0.5858 0.14934 0.0
C3679 C 0.52702 0.49774 0.13827 0.0
H3680 H 0.60027 0.53275 0.20179 0.0
H3681 H 0.54094 0.54939 0.22293 0.0
H3682 H 0.58127 0.51609 0.14251 0.0
H3683 H 0.59557 0.54697 0.1465 0.0
H3684 H 0.6071 0.52886 0.16308 0.0
H3685 H 0.51297 0.55541 0.19676 0.0
H3686 H 0.5234 0.56738 0.17236 0.0
H3687 H 0.50871 0.53662 0.16842 0.0
H3688 H 0.55215 0.57735 0.1032 0.0
H3689 H 0.51799 0.5031 0.09408 0.0
H3690 H 0.58506 0.58431 0.15557 0.0
H3691 H 0.56017 0.59013 0.16499 0.0
H3692 H 0.57032 0.60063 0.1398 0.0
H3693 H 0.54224 0.49247 0.14404 0.0
H3694 H 0.51537 0.48291 0.12497 0.0
H3695 H 0.51839 0.50057 0.1537 0.0
C3696 C 0.30727 0.86377 0.95286 0.0
C3697 C 0.29431 0.8789 0.95967 0.0
C3698 C 0.30105 0.8481 0.93128 0.0
C3699 C 0.28161 0.84784 0.91623 0.0
C3700 C 0.26751 0.86171 0.92371 0.0
C3701 C 0.27406 0.87715 0.94537 0.0
C3702 C 0.31613 0.83302 0.92391 0.0
C3703 C 0.2464 0.8615 0.9082 0.0
C3704 C 0.28886 0.83947 0.85299 0.0
C3705 C 0.27692 0.81558 0.8448 0.0
C3706 C 0.28989 0.85023 0.87611 0.0
C3707 C 0.27863 0.83676 0.89139 0.0
C3708 C 0.26571 0.81289 0.88308 0.0
C3709 C 0.2651 0.80248 0.85978 0.0
C3710 C 0.30354 0.87592 0.8843 0.0
C3711 C 0.25317 0.79813 0.89883 0.0
H3712 H 0.32262 0.86461 0.96407 0.0
H3713 H 0.26363 0.88843 0.95068 0.0
H3714 H 0.30576 0.81451 0.91663 0.0
H3715 H 0.32525 0.83979 0.90995 0.0
H3716 H 0.3289 0.83305 0.93863 0.0
H3717 H 0.23532 0.87002 0.91804 0.0
H3718 H 0.25139 0.87123 0.89411 0.0
H3719 H 0.23643 0.84314 0.89978 0.0
H3720 H 0.29776 0.8498 0.84142 0.0
H3721 H 0.25565 0.78403 0.85344 0.0
H3722 H 0.3178 0.87747 0.8981 0.0
H3723 H 0.29273 0.88629 0.892 0.0
H3724 H 0.31069 0.88401 0.86993 0.0
H3725 H 0.2654 0.7921 0.90963 0.0
H3726 H 0.23983 0.78225 0.88868 0.0
H3727 H 0.24514 0.80856 0.91088 0.0
C3728 C 0.91349 0.50602 0.73185 0.0
C3729 C 0.92695 0.50456 0.75185 0.0
C3730 C 0.91753 0.49723 0.70962 0.0
C3731 C 0.93596 0.48764 0.70756 0.0
C3732 C 0.94854 0.48462 0.72774 0.0
C3733 C 0.94365 0.49289 0.74974 0.0
C3734 C 0.90325 0.49994 0.68844 0.0
C3735 C 0.96857 0.47482 0.72627 0.0
C3736 C 0.94996 0.46282 0.64902 0.0
C3737 C 0.96532 0.48303 0.64468 0.0
C3738 C 0.93954 0.46403 0.66919 0.0
C3739 C 0.94519 0.48579 0.68532 0.0
C3740 C 0.96066 0.50619 0.68081 0.0
C3741 C 0.97039 0.50455 0.66045 0.0
C3742 C 0.92258 0.4422 0.67325 0.0
C3743 C 0.96743 0.52967 0.69776 0.0
H3744 H 0.90014 0.5145 0.73358 0.0
H3745 H 0.95387 0.49158 0.76529 0.0
H3746 H 0.91276 0.51536 0.68166 0.0
H3747 H 0.89947 0.48407 0.67432 0.0
H3748 H 0.88697 0.50286 0.69265 0.0
H3749 H 0.97443 0.47051 0.74307 0.0
H3750 H 0.96425 0.45867 0.71244 0.0
H3751 H 0.98289 0.48812 0.7216 0.0
H3752 H 0.94606 0.44624 0.63663 0.0
H3753 H 0.98253 0.52005 0.65711 0.0
H3754 H 0.90585 0.44553 0.67422 0.0
H3755 H 0.92805 0.43796 0.69018 0.0
H3756 H 0.92036 0.42658 0.65918 0.0
H3757 H 0.95224 0.5357 0.70036 0.0
H3758 H 0.97995 0.54367 0.69164 0.0
H3759 H 0.97498 0.5277 0.715 0.0
C3760 C 0.30598 0.23828 0.4428 0.0
C3761 C 0.28748 0.23594 0.45526 0.0
C3762 C 0.30494 0.24424 0.42062 0.0
C3763 C 0.28514 0.24879 0.41063 0.0
C3764 C 0.26659 0.24719 0.42339 0.0
C3765 C 0.2678 0.24032 0.44533 0.0
C3766 C 0.32495 0.24514 0.40761 0.0
C3767 C 0.24544 0.25261 0.41381 0.0
C3768 C 0.2929 0.28425 0.36185 0.0
C3769 C 0.28495 0.26652 0.34157 0.0
C3770 C 0.29263 0.27881 0.38431 0.0
C3771 C 0.28405 0.25502 0.3868 0.0
C3772 C 0.27583 0.23704 0.36642 0.0
C3773 C 0.27647 0.24296 0.34413 0.0
C3774 C 0.30171 0.29858 0.40542 0.0
C3775 C 0.26648 0.21146 0.36815 0.0
H3776 H 0.32115 0.23453 0.45005 0.0
H3777 H 0.25342 0.23853 0.45476 0.0
H3778 H 0.31947 0.23234 0.39073 0.0
H3779 H 0.33155 0.26298 0.4036 0.0
H3780 H 0.33903 0.24093 0.41767 0.0
H3781 H 0.23309 0.25197 0.42638 0.0
H3782 H 0.24998 0.27045 0.40937 0.0
H3783 H 0.23704 0.23972 0.39748 0.0
H3784 H 0.29946 0.30253 0.36023 0.0
H3785 H 0.27001 0.22911 0.32869 0.0
H3786 H 0.31671 0.29601 0.41549 0.0
H3787 H 0.28867 0.29833 0.41713 0.0
H3788 H 0.3068 0.31626 0.40062 0.0
H3789 H 0.27992 0.20555 0.37723 0.0
H3790 H 0.26007 0.19964 0.35076 0.0
H3791 H 0.2524 0.20945 0.37868 0.0
C3792 C 0.33274 0.59791 0.55098 0.0
C3793 C 0.32635 0.61263 0.53721 0.0
C3794 C 0.34591 0.58352 0.5427 0.0
C3795 C 0.35166 0.58338 0.51993 0.0
C3796 C 0.3447 0.5979 0.50588 0.0
C3797 C 0.33243 0.61269 0.5149 0.0
C3798 C 0.3538 0.56864 0.55826 0.0
C3799 C 0.35002 0.59767 0.48129 0.0
C3800 C 0.40321 0.56446 0.50789 0.0
C3801 C 0.39334 0.54051 0.49775 0.0
C3802 C 0.38969 0.5788 0.51474 0.0
C3803 C 0.36586 0.56886 0.5111 0.0
C3804 C 0.35574 0.54511 0.49942 0.0
C3805 C 0.36973 0.53108 0.49285 0.0
C3806 C 0.4009 0.60422 0.52687 0.0
C3807 C 0.33027 0.53428 0.4948 0.0
H3808 H 0.32763 0.59783 0.5681 0.0
H3809 H 0.3268 0.62372 0.50409 0.0
H3810 H 0.34765 0.5497 0.54962 0.0
H3811 H 0.37266 0.5737 0.56125 0.0
H3812 H 0.34775 0.5707 0.57544 0.0
H3813 H 0.34205 0.60905 0.47226 0.0
H3814 H 0.36866 0.60397 0.4816 0.0
H3815 H 0.34395 0.57936 0.4709 0.0
H3816 H 0.42157 0.57171 0.51122 0.0
H3817 H 0.36228 0.51253 0.48494 0.0
H3818 H 0.39748 0.60671 0.54516 0.0
H3819 H 0.39378 0.61633 0.51817 0.0
H3820 H 0.41955 0.60948 0.52709 0.0
H3821 H 0.32384 0.5324 0.51156 0.0
H3822 H 0.32515 0.51656 0.48315 0.0
H3823 H 0.32192 0.54594 0.48676 0.0
C3824 C 0.8654 0.91086 0.53437 0.0
C3825 C 0.8464 0.91811 0.52752 0.0
C3826 C 0.88748 0.92447 0.53315 0.0
C3827 C 0.8907 0.94612 0.52535 0.0
C3828 C 0.87158 0.95339 0.5181 0.0
C3829 C 0.84965 0.93919 0.51907 0.0
C3830 C 0.9074 0.91587 0.5406 0.0
C3831 C 0.87432 0.97653 0.51 0.0
C3832 C 0.94817 0.99225 0.54579 0.0
C3833 C 0.95848 0.99033 0.52573 0.0
C3834 C 0.92596 0.97815 0.54581 0.0
C3835 C 0.91411 0.96146 0.52542 0.0
C3836 C 0.9247 0.95936 0.50519 0.0
C3837 C 0.94674 0.97406 0.50553 0.0
C3838 C 0.91511 0.98123 0.56758 0.0
C3839 C 0.91283 0.94149 0.48329 0.0
H3840 H 0.86311 0.89466 0.54094 0.0
H3841 H 0.83508 0.94501 0.51389 0.0
H3842 H 0.91816 0.91545 0.5266 0.0
H3843 H 0.91815 0.92827 0.55627 0.0
H3844 H 0.90193 0.89793 0.54475 0.0
H3845 H 0.85772 0.97939 0.50448 0.0
H3846 H 0.88412 0.99141 0.52431 0.0
H3847 H 0.88408 0.97707 0.49515 0.0
H3848 H 0.95739 0.00503 0.56132 0.0
H3849 H 0.95491 0.97271 0.49007 0.0
H3850 H 0.91083 0.96445 0.57411 0.0
H3851 H 0.89899 0.98558 0.56349 0.0
H3852 H 0.92638 -0.00456 0.58172 0.0
H3853 H 0.9083 0.92343 0.48718 0.0
H3854 H 0.92351 0.94195 0.46915 0.0
H3855 H 0.89675 0.94487 0.47685 0.0
C3856 C 0.88729 0.08426 0.30077 0.0
C3857 C 0.89616 0.07519 0.28137 0.0
C3858 C 0.87532 0.10088 0.29969 0.0
C3859 C 0.87168 0.10856 0.27852 0.0
C3860 C 0.88057 0.09967 0.2588 0.0
C3861 C 0.89287 0.08314 0.26047 0.0
C3862 C 0.86644 0.11008 0.32127 0.0
C3863 C 0.87695 0.10752 0.23596 0.0
C3864 C 0.82012 0.13121 0.27388 0.0
C3865 C 0.82994 0.15573 0.28082 0.0
C3866 C 0.83362 0.11576 0.27197 0.0
C3867 C 0.85756 0.12501 0.27713 0.0
C3868 C 0.86766 0.1498 0.28355 0.0
C3869 C 0.85372 0.16488 0.28527 0.0
C3870 C 0.82219 0.08944 0.26527 0.0
C3871 C 0.89312 0.16032 0.28955 0.0
H3872 H 0.8899 0.0786 0.31717 0.0
H3873 H 0.89979 0.07643 0.24548 0.0
H3874 H 0.87253 0.12969 0.32556 0.0
H3875 H 0.8476 0.10486 0.31799 0.0
H3876 H 0.87182 0.10325 0.3367 0.0
H3877 H 0.88522 0.09927 0.22235 0.0
H3878 H 0.85849 0.10288 0.22953 0.0
H3879 H 0.88382 0.12704 0.23855 0.0
H3880 H 0.80178 0.12404 0.27003 0.0
H3881 H 0.86143 0.1838 0.29083 0.0
H3882 H 0.82535 0.08098 0.28023 0.0
H3883 H 0.82946 0.08147 0.2506 0.0
H3884 H 0.80353 0.08517 0.26008 0.0
H3885 H 0.89934 0.15484 0.3055 0.0
H3886 H 0.89837 0.17996 0.29265 0.0
H3887 H 0.90159 0.15361 0.27528 0.0
C3888 C 0.71053 0.10526 0.05055 0.0
C3889 C 0.7099 0.11769 0.03237 0.0
C3890 C 0.6921 0.10066 0.06305 0.0
C3891 C 0.673 0.10815 0.05637 0.0
C3892 C 0.67525 0.12556 0.04242 0.0
C3893 C 0.69385 0.13008 0.03037 0.0
C3894 C 0.69117 0.08419 0.07998 0.0
C3895 C 0.65594 0.13544 0.03614 0.0
C3896 C 0.61831 0.06101 0.03049 0.0
C3897 C 0.60357 0.06626 0.04557 0.0
C3898 C 0.64142 0.07324 0.0351 0.0
C3899 C 0.6499 0.09178 0.05507 0.0
C3900 C 0.63523 0.09624 0.07114 0.0
C3901 C 0.61213 0.08308 0.06633 0.0
C3902 C 0.65634 0.06716 0.01761 0.0
C3903 C 0.64363 0.1151 0.09304 0.0
H3904 H 0.72342 0.09623 0.0526 0.0
H3905 H 0.69388 0.14032 0.01674 0.0
H3906 H 0.68121 0.08849 0.0939 0.0
H3907 H 0.68268 0.06574 0.07057 0.0
H3908 H 0.70852 0.08517 0.08806 0.0
H3909 H 0.66208 0.15227 0.02993 0.0
H3910 H 0.64347 0.1225 0.02189 0.0
H3911 H 0.64704 0.13859 0.05129 0.0
H3912 H 0.61157 0.04767 0.01467 0.0
H3913 H 0.60058 0.08687 0.0781 0.0
H3914 H 0.67146 0.06377 0.02652 0.0
H3915 H 0.66228 0.08217 0.00872 0.0
H3916 H 0.64726 0.05124 0.00404 0.0
H3917 H 0.65156 0.10773 0.10668 0.0
H3918 H 0.62948 0.12094 0.09981 0.0
H3919 H 0.65668 0.13078 0.09019 0.0
C3920 C 0.19827 0.47619 0.24582 0.0
C3921 C 0.20314 0.49977 0.25708 0.0
C3922 C 0.21464 0.46409 0.2479 0.0
C3923 C 0.23635 0.47621 0.26108 0.0
C3924 C 0.24201 0.50074 0.27022 0.0
C3925 C 0.22516 0.51219 0.2684 0.0
C3926 C 0.2079 0.43786 0.2381 0.0
C3927 C 0.26516 0.51445 0.28375 0.0
C3928 C 0.26243 0.43959 0.29575 0.0
C3929 C 0.27718 0.43313 0.28116 0.0
C3930 C 0.24937 0.45408 0.28957 0.0
C3931 C 0.25152 0.46255 0.26851 0.0
C3932 C 0.26729 0.45707 0.25432 0.0
C3933 C 0.27979 0.44212 0.2607 0.0
C3934 C 0.23261 0.45948 0.30511 0.0
C3935 C 0.27046 0.46643 0.23217 0.0
H3936 H 0.18114 0.46668 0.23719 0.0
H3937 H 0.22885 0.53058 0.27691 0.0
H3938 H 0.22146 0.43301 0.22921 0.0
H3939 H 0.20547 0.4281 0.25262 0.0
H3940 H 0.19183 0.4319 0.22556 0.0
H3941 H 0.26843 0.5338 0.2849 0.0
H3942 H 0.26614 0.51098 0.30176 0.0
H3943 H 0.27879 0.50884 0.27565 0.0
H3944 H 0.26029 0.43237 0.31142 0.0
H3945 H 0.29133 0.4371 0.24952 0.0
H3946 H 0.21511 0.45262 0.29525 0.0
H3947 H 0.23624 0.47888 0.31076 0.0
H3948 H 0.23312 0.45154 0.3209 0.0
H3949 H 0.25473 0.45866 0.21927 0.0
H3950 H 0.28483 0.46222 0.22423 0.0
H3951 H 0.27361 0.4859 0.23573 0.0
C3952 C 0.20849 0.39703 0.02596 0.0
C3953 C 0.23026 0.40879 0.02204 0.0
C3954 C 0.19031 0.40672 0.02233 0.0
C3955 C 0.19409 0.4284 0.0144 0.0
C3956 C 0.21564 0.4392 0.00868 0.0
C3957 C 0.23344 0.42935 0.01272 0.0
C3958 C 0.1675 0.3946 0.02842 0.0
C3959 C 0.22041 0.4621 -0.00017 0.0
C3960 C 0.14696 0.4545 -0.0043 0.0
C3961 C 0.148 0.47115 0.0159 0.0
C3962 C 0.16118 0.43966 -0.00486 0.0
C3963 C 0.17687 0.44167 0.01519 0.0
C3964 C 0.17764 0.45814 0.03572 0.0
C3965 C 0.16321 0.47261 0.03582 0.0
C3966 C 0.1598 0.42227 0.97296 0.0
C3967 C 0.19437 0.46117 0.05738 0.0
H3968 H 0.20597 0.38109 0.03308 0.0
H3969 H 0.25017 0.43827 0.00925 0.0
H3970 H 0.16452 0.4052 0.04449 0.0
H3971 H 0.15368 0.3934 0.01429 0.0
H3972 H 0.16644 0.37654 0.03147 0.0
H3973 H 0.2371 0.4666 0.99351 0.0
H3974 H 0.20695 0.46109 0.9854 0.0
H3975 H 0.22042 0.47673 0.01411 0.0
H3976 H 0.13507 0.45314 0.98032 0.0
H3977 H 0.16438 0.48567 0.05136 0.0
H3978 H 0.15683 0.40417 0.9766 0.0
H3979 H 0.17618 0.42673 0.96608 0.0
H3980 H 0.14602 0.42215 0.95923 0.0
H3981 H 0.1927 0.44389 0.06264 0.0
H3982 H 0.19191 0.47378 0.0723 0.0
H3983 H 0.21197 0.46781 0.05368 0.0
C3984 C 0.8798 0.95492 0.2528 0.0
C3985 C 0.8972 0.96183 0.27196 0.0
C3986 C 0.86422 0.93208 0.24806 0.0
C3987 C 0.86639 0.91592 0.26272 0.0
C3988 C 0.88491 0.92249 0.28112 0.0
C3989 C 0.89991 0.94543 0.28563 0.0
C3990 C 0.84477 0.92572 0.22825 0.0
C3991 C 0.88815 0.90578 0.29696 0.0
C3992 C 0.81503 0.86981 0.27402 0.0
C3993 C 0.81831 0.84888 0.26257 0.0
C3994 C 0.83011 0.89189 0.27345 0.0
C3995 C 0.84841 0.893 0.26047 0.0
C3996 C 0.85082 0.87187 0.24764 0.0
C3997 C 0.83599 0.84999 0.24924 0.0
C3998 C 0.82723 0.9139 0.28785 0.0
C3999 C 0.8696 0.87228 0.23302 0.0
H4000 H 0.87761 0.96775 0.24239 0.0
H4001 H 0.91343 0.95087 0.30044 0.0
H4002 H 0.84277 0.90794 0.21771 0.0
H4003 H 0.82871 0.92501 0.23542 0.0
H4004 H 0.84718 0.9388 0.21663 0.0
H4005 H 0.90439 0.91295 0.30924 0.0
H4006 H 0.87392 0.90241 0.30727 0.0
H4007 H 0.88794 0.88852 0.28652 0.0
H4008 H 0.80139 0.86883 0.28443 0.0
H4009 H 0.83831 0.8337 0.24022 0.0
H4010 H 0.82706 0.92736 0.27697 0.0
H4011 H 0.84186 0.9217 0.30212 0.0
H4012 H 0.81134 0.91021 0.29573 0.0
H4013 H 0.8704 0.88567 0.22186 0.0
H4014 H 0.86728 0.85479 0.22169 0.0
H4015 H 0.88619 0.87738 0.24457 0.0
C4016 C 0.68632 0.10772 0.74099 0.0
C4017 C 0.68844 0.10172 0.76307 0.0
C4018 C 0.69528 0.13107 0.73839 0.0
C4019 C 0.70687 0.14843 0.75822 0.0
C4020 C 0.70762 0.14291 0.78068 0.0
C4021 C 0.69849 0.11953 0.78283 0.0
C4022 C 0.69317 0.13703 0.71441 0.0
C4023 C 0.71913 0.16143 0.8023 0.0
C4024 C 0.75981 0.19335 0.75085 0.0
C4025 C 0.75308 0.21378 0.75432 0.0
C4026 C 0.7445 0.17175 0.75156 0.0
C4027 C 0.72199 0.17089 0.75526 0.0
C4028 C 0.71498 0.19161 0.75808 0.0
C4029 C 0.73086 0.21304 0.75788 0.0
C4030 C 0.75265 0.14999 0.74913 0.0
C4031 C 0.69089 0.19131 0.76096 0.0
H4032 H 0.67781 0.09422 0.72572 0.0
H4033 H 0.69947 0.11524 0.80006 0.0
H4034 H 0.68788 0.1534 0.71507 0.0
H4035 H 0.70994 0.14045 0.70827 0.0
H4036 H 0.68071 0.1225 0.70147 0.0
H4037 H 0.7162 0.15468 0.8186 0.0
H4038 H 0.73771 0.16736 0.80199 0.0
H4039 H 0.71284 0.17716 0.80274 0.0
H4040 H 0.77721 0.19443 0.74849 0.0
H4041 H 0.72589 0.22922 0.76034 0.0
H4042 H 0.74235 0.13655 0.73389 0.0
H4043 H 0.75047 0.14208 0.76488 0.0
H4044 H 0.77082 0.15395 0.74679 0.0
H4045 H 0.68023 0.18562 0.74352 0.0
H4046 H 0.68986 0.20913 0.76874 0.0
H4047 H 0.6835 0.17867 0.77194 0.0
loop_
_geom_bond_atom_site_label_1
_geom_bond_atom_site_label_2
_geom_bond_distance
_geom_bond_site_symmetry_2
_ccdc_geom_bond_type
Mg0 O1 2.028 . S
Mg0 O7 1.986 . S
Mg0 O9 2.114 . S
Mg0 O10 2.251 1_455 S
Mg0 O13 2.010 . S
O1 Mg0 2.028 . S
O1 C4 1.250 . S
O2 Mg3 2.028 1_455 S
O2 C4 1.248 . S
Mg3 O2 2.028 1_655 S
Mg3 O8 2.032 1_655 S
Mg3 O10 2.079 . S
C4 O1 1.250 . S
C4 O2 1.248 . S
C5 O6 1.264 . S
C5 O13 1.249 . S
O6 C5 1.264 . S
O7 Mg0 1.986 . S
O7 C11 1.246 . S
O8 Mg3 2.032 1_455 S
O8 C11 1.259 . S
O9 Mg0 2.114 . S
O9 C12 1.252 1_455 S
O10 Mg0 2.251 1_655 S
O10 Mg3 2.079 . S
O10 C12 1.273 . S
C11 O7 1.246 . S
C11 O8 1.259 . S
C12 O9 1.252 1_655 S
C12 O10 1.273 . S
O13 Mg0 2.010 . S
O13 C5 1.249 . S
Mg14 O15 2.028 . S
Mg14 O21 1.986 . S
Mg14 O23 2.114 . S
Mg14 O24 2.251 1_455 S
Mg14 O27 2.010 . S
O15 Mg14 2.028 . S
O15 C18 1.250 . S
O16 Mg17 2.028 . S
O16 C18 1.248 1_655 S
Mg17 O16 2.028 . S
Mg17 O22 2.032 1_655 S
Mg17 O24 2.079 . S
C18 O15 1.250 . S
C18 O16 1.248 1_455 S
C19 O20 1.264 . S
C19 O27 1.249 . S
O20 C19 1.264 . S
O21 Mg14 1.986 . S
O21 C25 1.246 . S
O22 Mg17 2.032 1_455 S
O22 C25 1.259 . S
O23 Mg14 2.114 . S
O23 C26 1.252 1_455 S
O24 Mg14 2.251 1_655 S
O24 Mg17 2.079 . S
O24 C26 1.273 . S
C25 O21 1.246 . S
C25 O22 1.259 . S
C26 O23 1.252 1_655 S
C26 O24 1.273 . S
O27 Mg14 2.010 . S
O27 C19 1.249 . S
Mg28 O29 2.028 . S
Mg28 O35 1.986 . S
Mg28 O37 2.114 . S
Mg28 O38 2.251 . S
Mg28 O41 2.010 . S
O29 Mg28 2.028 . S
O29 C32 1.250 . S
O30 Mg31 2.028 . S
O30 C32 1.248 . S
Mg31 O30 2.028 . S
Mg31 O36 2.032 . S
Mg31 O38 2.079 . S
C32 O29 1.250 . S
C32 O30 1.248 . S
C33 O34 1.264 . S
C33 O41 1.249 . S
O34 C33 1.264 . S
O35 Mg28 1.986 . S
O35 C39 1.246 . S
O36 Mg31 2.032 . S
O36 C39 1.259 . S
O37 Mg28 2.114 . S
O37 C40 1.252 . S
O38 Mg28 2.251 . S
O38 Mg31 2.079 . S
O38 C40 1.273 . S
C39 O35 1.246 . S
C39 O36 1.259 . S
C40 O37 1.252 . S
C40 O38 1.273 . S
O41 Mg28 2.010 . S
O41 C33 1.249 . S
Mg42 O43 2.028 . S
Mg42 O49 1.986 . S
Mg42 O51 2.114 . S
Mg42 O52 2.251 . S
Mg42 O55 2.010 . S
O43 Mg42 2.028 . S
O43 C46 1.250 . S
O44 Mg45 2.028 . S
O44 C46 1.248 . S
Mg45 O44 2.028 . S
Mg45 O50 2.032 . S
Mg45 O52 2.079 . S
C46 O43 1.250 . S
C46 O44 1.248 . S
C47 O48 1.264 . S
C47 O55 1.249 . S
O48 C47 1.264 . S
O49 Mg42 1.986 . S
O49 C53 1.246 . S
O50 Mg45 2.032 . S
O50 C53 1.259 . S
O51 Mg42 2.114 . S
O51 C54 1.252 . S
O52 Mg42 2.251 . S
O52 Mg45 2.079 . S
O52 C54 1.273 . S
C53 O49 1.246 . S
C53 O50 1.259 . S
C54 O51 1.252 . S
C54 O52 1.273 . S
O55 Mg42 2.010 . S
O55 C47 1.249 . S
Mg56 O57 2.028 . S
Mg56 O63 1.986 . S
Mg56 O65 2.114 . S
Mg56 O66 2.251 . S
Mg56 O69 2.010 . S
O57 Mg56 2.028 . S
O57 C60 1.250 . S
O58 Mg59 2.028 . S
O58 C60 1.248 . S
Mg59 O58 2.028 . S
Mg59 O64 2.032 . S
Mg59 O66 2.079 . S
C60 O57 1.250 . S
C60 O58 1.248 . S
C61 O62 1.264 . S
C61 O69 1.249 . S
O62 C61 1.264 . S
O63 Mg56 1.986 . S
O63 C67 1.246 . S
O64 Mg59 2.032 . S
O64 C67 1.259 . S
O65 Mg56 2.114 . S
O65 C68 1.252 . S
O66 Mg56 2.251 . S
O66 Mg59 2.079 . S
O66 C68 1.273 . S
C67 O63 1.246 . S
C67 O64 1.259 . S
C68 O65 1.252 . S
C68 O66 1.273 . S
O69 Mg56 2.010 . S
O69 C61 1.249 . S
Mg70 O71 2.028 . S
Mg70 O77 1.986 . S
Mg70 O79 2.114 . S
Mg70 O80 2.251 . S
Mg70 O83 2.010 . S
O71 Mg70 2.028 . S
O71 C74 1.250 . S
O72 Mg73 2.028 . S
O72 C74 1.248 . S
Mg73 O72 2.028 . S
Mg73 O78 2.032 . S
Mg73 O80 2.079 . S
C74 O71 1.250 . S
C74 O72 1.248 . S
C75 O76 1.264 . S
C75 O83 1.249 . S
O76 C75 1.264 . S
O77 Mg70 1.986 . S
O77 C81 1.246 . S
O78 Mg73 2.032 . S
O78 C81 1.259 . S
O79 Mg70 2.114 . S
O79 C82 1.252 . S
O80 Mg70 2.251 . S
O80 Mg73 2.079 . S
O80 C82 1.273 . S
C81 O77 1.246 . S
C81 O78 1.259 . S
C82 O79 1.252 . S
C82 O80 1.273 . S
O83 Mg70 2.010 . S
O83 C75 1.249 . S
Mg84 O85 2.028 . S
Mg84 O91 1.986 . S
Mg84 O93 2.114 . S
Mg84 O94 2.251 . S
Mg84 O97 2.010 . S
O85 Mg84 2.028 . S
O85 C88 1.250 . S
O86 Mg87 2.028 . S
O86 C88 1.248 . S
Mg87 O86 2.028 . S
Mg87 O92 2.032 . S
Mg87 O94 2.079 . S
C88 O85 1.250 . S
C88 O86 1.248 . S
C89 O90 1.264 . S
C89 O97 1.249 . S
O90 C89 1.264 . S
O91 Mg84 1.986 . S
O91 C95 1.246 . S
O92 Mg87 2.032 . S
O92 C95 1.259 . S
O93 Mg84 2.114 . S
O93 C96 1.252 . S
O94 Mg84 2.251 . S
O94 Mg87 2.079 . S
O94 C96 1.273 . S
C95 O91 1.246 . S
C95 O92 1.259 . S
C96 O93 1.252 . S
C96 O94 1.273 . S
O97 Mg84 2.010 . S
O97 C89 1.249 . S
Mg98 O99 2.028 1_655 S
Mg98 O105 1.986 1_655 S
Mg98 O107 2.114 . S
Mg98 O108 2.251 . S
Mg98 O111 2.010 1_655 S
O99 Mg98 2.028 1_455 S
O99 C102 1.250 . S
O100 Mg101 2.028 . S
O100 C102 1.248 1_655 S
Mg101 O100 2.028 . S
Mg101 O106 2.032 . S
Mg101 O108 2.079 . S
C102 O99 1.250 . S
C102 O100 1.248 1_455 S
C103 O104 1.264 . S
C103 O111 1.249 . S
O104 C103 1.264 . S
O105 Mg98 1.986 1_455 S
O105 C109 1.246 1_455 S
O106 Mg101 2.032 . S
O106 C109 1.259 . S
O107 Mg98 2.114 . S
O107 C110 1.252 . S
O108 Mg98 2.251 . S
O108 Mg101 2.079 . S
O108 C110 1.273 . S
C109 O105 1.246 1_655 S
C109 O106 1.259 . S
C110 O107 1.252 . S
C110 O108 1.273 . S
O111 Mg98 2.010 1_455 S
O111 C103 1.249 . S
Mg112 O113 2.028 1_545 S
Mg112 O119 1.986 . S
Mg112 O121 2.114 . S
Mg112 O122 2.251 . S
Mg112 O125 2.010 . S
O113 Mg112 2.028 1_565 S
O113 C116 1.250 . S
O114 Mg115 2.028 1_565 S
O114 C116 1.248 . S
Mg115 O114 2.028 1_545 S
Mg115 O120 2.032 . S
Mg115 O122 2.079 . S
C116 O113 1.250 . S
C116 O114 1.248 . S
C117 O118 1.264 . S
C117 O125 1.249 . S
O118 C117 1.264 . S
O119 Mg112 1.986 . S
O119 C123 1.246 . S
O120 Mg115 2.032 . S
O120 C123 1.259 . S
O121 Mg112 2.114 . S
O121 C124 1.252 . S
O122 Mg112 2.251 . S
O122 Mg115 2.079 . S
O122 C124 1.273 . S
C123 O119 1.246 . S
C123 O120 1.259 . S
C124 O121 1.252 . S
C124 O122 1.273 . S
O125 Mg112 2.010 . S
O125 C117 1.249 . S
Mg126 O127 2.028 . S
Mg126 O133 1.986 . S
Mg126 O135 2.114 . S
Mg126 O136 2.251 . S
Mg126 O139 2.010 . S
O127 Mg126 2.028 . S
O127 C130 1.250 . S
O128 Mg129 2.028 . S
O128 C130 1.248 . S
Mg129 O128 2.028 . S
Mg129 O134 2.032 . S
Mg129 O136 2.079 . S
C130 O127 1.250 . S
C130 O128 1.248 . S
C131 O132 1.264 . S
C131 O139 1.249 . S
O132 C131 1.264 . S
O133 Mg126 1.986 . S
O133 C137 1.246 . S
O134 Mg129 2.032 . S
O134 C137 1.259 . S
O135 Mg126 2.114 . S
O135 C138 1.252 . S
O136 Mg126 2.251 . S
O136 Mg129 2.079 . S
O136 C138 1.273 . S
C137 O133 1.246 . S
C137 O134 1.259 . S
C138 O135 1.252 . S
C138 O136 1.273 . S
O139 Mg126 2.010 . S
O139 C131 1.249 . S
Mg140 O141 2.028 . S
Mg140 O147 1.986 . S
Mg140 O149 2.114 . S
Mg140 O150 2.251 . S
Mg140 O153 2.010 . S
O141 Mg140 2.028 . S
O141 C144 1.250 . S
O142 Mg143 2.028 . S
O142 C144 1.248 . S
Mg143 O142 2.028 . S
Mg143 O148 2.032 . S
Mg143 O150 2.079 . S
C144 O141 1.250 . S
C144 O142 1.248 . S
C145 O146 1.264 . S
C145 O153 1.249 . S
O146 C145 1.264 . S
O147 Mg140 1.986 . S
O147 C151 1.246 . S
O148 Mg143 2.032 . S
O148 C151 1.259 . S
O149 Mg140 2.114 . S
O149 C152 1.252 . S
O150 Mg140 2.251 . S
O150 Mg143 2.079 . S
O150 C152 1.273 . S
C151 O147 1.246 . S
C151 O148 1.259 . S
C152 O149 1.252 . S
C152 O150 1.273 . S
O153 Mg140 2.010 . S
O153 C145 1.249 . S
Mg154 O155 2.028 1_554 S
Mg154 O161 1.986 . S
Mg154 O163 2.114 1_554 S
Mg154 O164 2.251 . S
Mg154 O167 2.010 . S
O155 Mg154 2.028 1_556 S
O155 C158 1.250 . S
O156 Mg157 2.028 1_556 S
O156 C158 1.248 . S
Mg157 O156 2.028 1_554 S
Mg157 O162 2.032 . S
Mg157 O164 2.079 . S
C158 O155 1.250 . S
C158 O156 1.248 . S
C159 O160 1.264 . S
C159 O167 1.249 . S
O160 C159 1.264 . S
O161 Mg154 1.986 . S
O161 C165 1.246 . S
O162 Mg157 2.032 . S
O162 C165 1.259 . S
O163 Mg154 2.114 1_556 S
O163 C166 1.252 1_556 S
O164 Mg154 2.251 . S
O164 Mg157 2.079 . S
O164 C166 1.273 . S
C165 O161 1.246 . S
C165 O162 1.259 . S
C166 O163 1.252 1_554 S
C166 O164 1.273 . S
O167 Mg154 2.010 . S
O167 C159 1.249 . S
Mg168 O169 2.028 . S
Mg168 O175 1.986 . S
Mg168 O177 2.114 . S
Mg168 O178 2.251 . S
Mg168 O181 2.010 . S
O169 Mg168 2.028 . S
O169 C172 1.250 1_554 S
O170 Mg171 2.028 . S
O170 C172 1.248 1_554 S
Mg171 O170 2.028 . S
Mg171 O176 2.032 . S
Mg171 O178 2.079 . S
C172 O169 1.250 1_556 S
C172 O170 1.248 1_556 S
C173 O174 1.264 . S
C173 O181 1.249 . S
O174 C173 1.264 . S
O175 Mg168 1.986 . S
O175 C179 1.246 . S
O176 Mg171 2.032 . S
O176 C179 1.259 . S
O177 Mg168 2.114 . S
O177 C180 1.252 . S
O178 Mg168 2.251 . S
O178 Mg171 2.079 . S
O178 C180 1.273 . S
C179 O175 1.246 . S
C179 O176 1.259 . S
C180 O177 1.252 . S
C180 O178 1.273 . S
O181 Mg168 2.010 . S
O181 C173 1.249 . S
Mg182 O183 2.028 . S
Mg182 O189 1.986 . S
Mg182 O191 2.114 . S
Mg182 O192 2.251 . S
Mg182 O195 2.010 . S
O183 Mg182 2.028 . S
O183 C186 1.250 . S
O184 Mg185 2.028 . S
O184 C186 1.248 . S
Mg185 O184 2.028 . S
Mg185 O190 2.032 . S
Mg185 O192 2.079 . S
C186 O183 1.250 . S
C186 O184 1.248 . S
C187 O188 1.264 . S
C187 O195 1.249 . S
O188 C187 1.264 . S
O189 Mg182 1.986 . S
O189 C193 1.246 . S
O190 Mg185 2.032 . S
O190 C193 1.259 . S
O191 Mg182 2.114 . S
O191 C194 1.252 . S
O192 Mg182 2.251 . S
O192 Mg185 2.079 . S
O192 C194 1.273 . S
C193 O189 1.246 . S
C193 O190 1.259 . S
C194 O191 1.252 . S
C194 O192 1.273 . S
O195 Mg182 2.010 . S
O195 C187 1.249 . S
Mg196 O197 2.028 . S
Mg196 O203 1.986 . S
Mg196 O205 2.114 . S
Mg196 O206 2.251 . S
Mg196 O209 2.010 . S
O197 Mg196 2.028 . S
O197 C200 1.250 . S
O198 Mg199 2.028 . S
O198 C200 1.248 . S
Mg199 O198 2.028 . S
Mg199 O204 2.032 . S
Mg199 O206 2.079 . S
C200 O197 1.250 . S
C200 O198 1.248 . S
C201 O202 1.264 . S
C201 O209 1.249 . S
O202 C201 1.264 . S
O203 Mg196 1.986 . S
O203 C207 1.246 . S
O204 Mg199 2.032 . S
O204 C207 1.259 . S
O205 Mg196 2.114 . S
O205 C208 1.252 . S
O206 Mg196 2.251 . S
O206 Mg199 2.079 . S
O206 C208 1.273 . S
C207 O203 1.246 . S
C207 O204 1.259 . S
C208 O205 1.252 . S
C208 O206 1.273 . S
O209 Mg196 2.010 . S
O209 C201 1.249 . S
Mg210 O211 2.028 . S
Mg210 O217 1.986 . S
Mg210 O219 2.114 . S
Mg210 O220 2.251 . S
Mg210 O223 2.010 . S
O211 Mg210 2.028 . S
O211 C214 1.250 . S
O212 Mg213 2.028 . S
O212 C214 1.248 . S
Mg213 O212 2.028 . S
Mg213 O218 2.032 . S
Mg213 O220 2.079 . S
C214 O211 1.250 . S
C214 O212 1.248 . S
C215 O216 1.264 . S
C215 O223 1.249 . S
O216 C215 1.264 . S
O217 Mg210 1.986 . S
O217 C221 1.246 . S
O218 Mg213 2.032 . S
O218 C221 1.259 . S
O219 Mg210 2.114 . S
O219 C222 1.252 . S
O220 Mg210 2.251 . S
O220 Mg213 2.079 . S
O220 C222 1.273 . S
C221 O217 1.246 . S
C221 O218 1.259 . S
C222 O219 1.252 . S
C222 O220 1.273 . S
O223 Mg210 2.010 . S
O223 C215 1.249 . S
Mg224 O225 2.028 . S
Mg224 O231 1.986 . S
Mg224 O233 2.114 . S
Mg224 O234 2.251 . S
Mg224 O237 2.010 . S
O225 Mg224 2.028 . S
O225 C228 1.250 1_545 S
O226 Mg227 2.028 . S
O226 C228 1.248 1_545 S
Mg227 O226 2.028 . S
Mg227 O232 2.032 . S
Mg227 O234 2.079 . S
C228 O225 1.250 1_565 S
C228 O226 1.248 1_565 S
C229 O230 1.264 . S
C229 O237 1.249 . S
O230 C229 1.264 . S
O231 Mg224 1.986 . S
O231 C235 1.246 . S
O232 Mg227 2.032 . S
O232 C235 1.259 . S
O233 Mg224 2.114 . S
O233 C236 1.252 . S
O234 Mg224 2.251 . S
O234 Mg227 2.079 . S
O234 C236 1.273 . S
C235 O231 1.246 . S
C235 O232 1.259 . S
C236 O233 1.252 . S
C236 O234 1.273 . S
O237 Mg224 2.010 . S
O237 C229 1.249 . S
Mg238 O239 2.028 . S
Mg238 O245 1.986 . S
Mg238 O247 2.114 . S
Mg238 O248 2.251 . S
Mg238 O251 2.010 . S
O239 Mg238 2.028 . S
O239 C242 1.250 . S
O240 Mg241 2.028 . S
O240 C242 1.248 . S
Mg241 O240 2.028 . S
Mg241 O246 2.032 . S
Mg241 O248 2.079 . S
C242 O239 1.250 . S
C242 O240 1.248 . S
C243 O244 1.264 . S
C243 O251 1.249 . S
O244 C243 1.264 . S
O245 Mg238 1.986 . S
O245 C249 1.246 . S
O246 Mg241 2.032 . S
O246 C249 1.259 . S
O247 Mg238 2.114 . S
O247 C250 1.252 . S
O248 Mg238 2.251 . S
O248 Mg241 2.079 . S
O248 C250 1.273 . S
C249 O245 1.246 . S
C249 O246 1.259 . S
C250 O247 1.252 . S
C250 O248 1.273 . S
O251 Mg238 2.010 . S
O251 C243 1.249 . S
Mg252 O253 2.028 . S
Mg252 O259 1.986 . S
Mg252 O261 2.114 . S
Mg252 O262 2.251 . S
Mg252 O265 2.010 . S
O253 Mg252 2.028 . S
O253 C256 1.250 . S
O254 Mg255 2.028 . S
O254 C256 1.248 . S
Mg255 O254 2.028 . S
Mg255 O260 2.032 . S
Mg255 O262 2.079 . S
C256 O253 1.250 . S
C256 O254 1.248 . S
C257 O258 1.264 . S
C257 O265 1.249 . S
O258 C257 1.264 . S
O259 Mg252 1.986 . S
O259 C263 1.246 . S
O260 Mg255 2.032 . S
O260 C263 1.259 . S
O261 Mg252 2.114 . S
O261 C264 1.252 . S
O262 Mg252 2.251 . S
O262 Mg255 2.079 . S
O262 C264 1.273 . S
C263 O259 1.246 . S
C263 O260 1.259 . S
C264 O261 1.252 . S
C264 O262 1.273 . S
O265 Mg252 2.010 . S
O265 C257 1.249 . S
Mg266 O267 2.028 . S
Mg266 O273 1.986 . S
Mg266 O275 2.114 . S
Mg266 O276 2.251 . S
Mg266 O279 2.010 . S
O267 Mg266 2.028 . S
O267 C270 1.250 . S
O268 Mg269 2.028 . S
O268 C270 1.248 . S
Mg269 O268 2.028 . S
Mg269 O274 2.032 . S
Mg269 O276 2.079 . S
C270 O267 1.250 . S
C270 O268 1.248 . S
C271 O272 1.264 . S
C271 O279 1.249 . S
O272 C271 1.264 . S
O273 Mg266 1.986 . S
O273 C277 1.246 . S
O274 Mg269 2.032 . S
O274 C277 1.259 . S
O275 Mg266 2.114 . S
O275 C278 1.252 . S
O276 Mg266 2.251 . S
O276 Mg269 2.079 . S
O276 C278 1.273 . S
C277 O273 1.246 . S
C277 O274 1.259 . S
C278 O275 1.252 . S
C278 O276 1.273 . S
O279 Mg266 2.010 . S
O279 C271 1.249 . S
Mg280 O281 2.028 . S
Mg280 O287 1.986 1_554 S
Mg280 O289 2.114 . S
Mg280 O290 2.251 . S
Mg280 O293 2.010 . S
O281 Mg280 2.028 . S
O281 C284 1.250 . S
O282 Mg283 2.028 . S
O282 C284 1.248 . S
Mg283 O282 2.028 . S
Mg283 O288 2.032 . S
Mg283 O290 2.079 . S
C284 O281 1.250 . S
C284 O282 1.248 . S
C285 O286 1.264 1_554 S
C285 O293 1.249 . S
O286 C285 1.264 1_556 S
O287 Mg280 1.986 1_556 S
O287 C291 1.246 . S
O288 Mg283 2.032 . S
O288 C291 1.259 1_554 S
O289 Mg280 2.114 . S
O289 C292 1.252 . S
O290 Mg280 2.251 . S
O290 Mg283 2.079 . S
O290 C292 1.273 . S
C291 O287 1.246 . S
C291 O288 1.259 1_556 S
C292 O289 1.252 . S
C292 O290 1.273 . S
O293 Mg280 2.010 . S
O293 C285 1.249 . S
Mg294 O295 2.028 . S
Mg294 O301 1.986 . S
Mg294 O303 2.114 . S
Mg294 O304 2.251 . S
Mg294 O307 2.010 . S
O295 Mg294 2.028 . S
O295 C298 1.250 . S
O296 Mg297 2.028 . S
O296 C298 1.248 . S
Mg297 O296 2.028 . S
Mg297 O302 2.032 . S
Mg297 O304 2.079 . S
C298 O295 1.250 . S
C298 O296 1.248 . S
C299 O300 1.264 . S
C299 O307 1.249 . S
O300 C299 1.264 . S
O301 Mg294 1.986 . S
O301 C305 1.246 . S
O302 Mg297 2.032 . S
O302 C305 1.259 . S
O303 Mg294 2.114 . S
O303 C306 1.252 . S
O304 Mg294 2.251 . S
O304 Mg297 2.079 . S
O304 C306 1.273 . S
C305 O301 1.246 . S
C305 O302 1.259 . S
C306 O303 1.252 . S
C306 O304 1.273 . S
O307 Mg294 2.010 . S
O307 C299 1.249 . S
Mg308 O309 2.028 . S
Mg308 O315 1.986 . S
Mg308 O317 2.114 . S
Mg308 O318 2.251 . S
Mg308 O321 2.010 . S
O309 Mg308 2.028 . S
O309 C312 1.250 . S
O310 Mg311 2.028 . S
O310 C312 1.248 . S
Mg311 O310 2.028 . S
Mg311 O316 2.032 . S
Mg311 O318 2.079 . S
C312 O309 1.250 . S
C312 O310 1.248 . S
C313 O314 1.264 . S
C313 O321 1.249 . S
O314 C313 1.264 . S
O315 Mg308 1.986 . S
O315 C319 1.246 . S
O316 Mg311 2.032 . S
O316 C319 1.259 . S
O317 Mg308 2.114 . S
O317 C320 1.252 . S
O318 Mg308 2.251 . S
O318 Mg311 2.079 . S
O318 C320 1.273 . S
C319 O315 1.246 . S
C319 O316 1.259 . S
C320 O317 1.252 . S
C320 O318 1.273 . S
O321 Mg308 2.010 . S
O321 C313 1.249 . S
Mg322 O323 2.028 . S
Mg322 O329 1.986 . S
Mg322 O331 2.114 . S
Mg322 O332 2.251 . S
Mg322 O335 2.010 . S
O323 Mg322 2.028 . S
O323 C326 1.250 . S
O324 Mg325 2.028 . S
O324 C326 1.248 . S
Mg325 O324 2.028 . S
Mg325 O330 2.032 . S
Mg325 O332 2.079 . S
C326 O323 1.250 . S
C326 O324 1.248 . S
C327 O328 1.264 . S
C327 O335 1.249 . S
O328 C327 1.264 . S
O329 Mg322 1.986 . S
O329 C333 1.246 . S
O330 Mg325 2.032 . S
O330 C333 1.259 . S
O331 Mg322 2.114 . S
O331 C334 1.252 . S
O332 Mg322 2.251 . S
O332 Mg325 2.079 . S
O332 C334 1.273 . S
C333 O329 1.246 . S
C333 O330 1.259 . S
C334 O331 1.252 . S
C334 O332 1.273 . S
O335 Mg322 2.010 . S
O335 C327 1.249 . S
Dy336 O339 2.307 . S
Dy336 O341 2.395 . S
Dy336 O342 2.379 . S
Dy336 O344 2.339 . S
Dy336 O346 2.298 . S
Dy336 O350 2.291 . S
Dy336 C358 2.738 . S
Dy337 O340 2.298 1_655 S
Dy337 O343 2.275 1_655 S
Dy337 O345 2.307 1_645 S
Dy337 O347 2.395 . S
Dy337 O348 2.379 1_554 S
Dy337 O351 2.339 1_654 S
Dy337 C367 2.738 . S
C338 O350 1.238 1_556 S
C338 O351 1.257 . S
O339 Dy336 2.307 . S
O339 C349 1.266 . S
O340 Dy337 2.298 1_455 S
O340 C349 1.236 . S
O341 Dy336 2.395 . S
O341 C358 1.255 . S
O342 Dy336 2.379 . S
O342 C358 1.249 . S
O343 Dy337 2.275 1_455 S
O343 C359 1.254 . S
O344 Dy336 2.339 . S
O344 C359 1.257 . S
O345 Dy337 2.307 1_465 S
O345 C360 1.266 . S
O346 Dy336 2.298 . S
O346 C360 1.236 1_545 S
O347 Dy337 2.395 . S
O347 C367 1.255 . S
O348 Dy337 2.379 1_556 S
O348 C367 1.249 1_556 S
C349 O339 1.266 . S
C349 O340 1.236 . S
O350 Dy336 2.291 . S
O350 C338 1.238 1_554 S
O351 Dy337 2.339 1_456 S
O351 C338 1.257 . S
C352 C355 1.344 . S
C352 C356 1.328 . S
C352 C358 1.516 . S
C353 C354 1.304 . S
C353 C357 1.323 . S
C354 C353 1.304 . S
C354 C355 1.371 . S
C354 H368 0.930 1_545 S
C355 C352 1.344 . S
C355 C354 1.371 . S
C355 H369 0.931 . S
C356 C352 1.328 . S
C356 C357 1.433 . S
C356 H370 0.931 . S
C357 C353 1.323 . S
C357 C356 1.433 . S
C357 H371 0.933 . S
C358 Dy336 2.738 . S
C358 O341 1.255 . S
C358 O342 1.249 . S
C358 C352 1.516 . S
C359 O343 1.254 . S
C359 O344 1.257 . S
C360 O345 1.266 . S
C360 O346 1.236 1_565 S
C361 C364 1.344 . S
C361 C365 1.328 1_554 S
C361 C367 1.516 . S
C362 C363 1.304 . S
C362 C366 1.323 1_554 S
C363 C362 1.304 . S
C363 C364 1.371 . S
C363 H372 0.930 . S
C364 C361 1.344 . S
C364 C363 1.371 . S
C364 H373 0.931 . S
C365 C361 1.328 1_556 S
C365 C366 1.433 . S
C365 H374 0.931 . S
C366 C362 1.323 1_556 S
C366 C365 1.433 . S
C366 H375 0.933 . S
C367 Dy337 2.738 . S
C367 O347 1.255 . S
C367 O348 1.249 1_554 S
C367 C361 1.516 . S
H368 C354 0.930 1_565 S
H369 C355 0.931 . S
H370 C356 0.931 . S
H371 C357 0.933 . S
H372 C363 0.930 . S
H373 C364 0.931 . S
H374 C365 0.931 . S
H375 C366 0.933 . S
Dy376 O379 2.307 . S
Dy376 O381 2.395 . S
Dy376 O382 2.379 . S
Dy376 O384 2.339 . S
Dy376 O386 2.298 . S
Dy376 O390 2.275 . S
Dy376 C398 2.738 . S
Dy377 O380 2.298 . S
Dy377 O383 2.275 . S
Dy377 O385 2.307 . S
Dy377 O387 2.395 . S
Dy377 O388 2.379 . S
Dy377 O391 2.339 . S
Dy377 C407 2.738 . S
C378 O390 1.254 . S
C378 O391 1.257 . S
O379 Dy376 2.307 . S
O379 C389 1.266 . S
O380 Dy377 2.298 . S
O380 C389 1.236 . S
O381 Dy376 2.395 . S
O381 C398 1.255 . S
O382 Dy376 2.379 . S
O382 C398 1.249 . S
O383 Dy377 2.275 . S
O383 C399 1.254 . S
O384 Dy376 2.339 . S
O384 C399 1.257 . S
O385 Dy377 2.307 . S
O385 C400 1.266 . S
O386 Dy376 2.298 . S
O386 C400 1.236 . S
O387 Dy377 2.395 . S
O387 C407 1.255 . S
O388 Dy377 2.379 . S
O388 C407 1.249 . S
C389 O379 1.266 . S
C389 O380 1.236 . S
O390 Dy376 2.275 . S
O390 C378 1.254 . S
O391 Dy377 2.339 . S
O391 C378 1.257 . S
C392 C395 1.344 . S
C392 C396 1.328 . S
C392 C398 1.516 . S
C393 C394 1.304 . S
C393 C397 1.323 . S
C394 C393 1.304 . S
C394 C395 1.371 . S
C394 H408 0.930 . S
C395 C392 1.344 . S
C395 C394 1.371 . S
C395 H409 0.931 . S
C396 C392 1.328 . S
C396 C397 1.433 . S
C396 H410 0.931 . S
C397 C393 1.323 . S
C397 C396 1.433 . S
C397 H411 0.933 . S
C398 Dy376 2.738 . S
C398 O381 1.255 . S
C398 O382 1.249 . S
C398 C392 1.516 . S
C399 O383 1.254 . S
C399 O384 1.257 . S
C400 O385 1.266 . S
C400 O386 1.236 . S
C401 C404 1.344 . S
C401 C405 1.328 . S
C401 C407 1.516 . S
C402 C403 1.304 . S
C402 C406 1.323 . S
C403 C402 1.304 . S
C403 C404 1.371 . S
C403 H412 0.930 . S
C404 C401 1.344 . S
C404 C403 1.371 . S
C404 H413 0.931 . S
C405 C401 1.328 . S
C405 C406 1.433 . S
C405 H414 0.931 . S
C406 C402 1.323 . S
C406 C405 1.433 . S
C406 H415 0.933 . S
C407 Dy377 2.738 . S
C407 O387 1.255 . S
C407 O388 1.249 . S
C407 C401 1.516 . S
H408 C394 0.930 . S
H409 C395 0.931 . S
H410 C396 0.931 . S
H411 C397 0.933 . S
H412 C403 0.930 . S
H413 C404 0.931 . S
H414 C405 0.931 . S
H415 C406 0.933 . S
Dy416 O419 2.307 . S
Dy416 O421 2.395 . S
Dy416 O422 2.379 . S
Dy416 O424 2.339 . S
Dy416 O426 2.298 . S
Dy416 O430 2.275 . S
Dy416 C438 2.738 . S
Dy417 O420 2.298 . S
Dy417 O423 2.275 . S
Dy417 O425 2.307 . S
Dy417 O427 2.395 . S
Dy417 O428 2.379 . S
Dy417 O431 2.339 . S
Dy417 C447 2.738 . S
C418 O430 1.254 . S
C418 O431 1.257 . S
O419 Dy416 2.307 . S
O419 C429 1.266 1_545 S
O420 Dy417 2.298 . S
O420 C429 1.236 1_545 S
O421 Dy416 2.395 . S
O421 C438 1.255 . S
O422 Dy416 2.379 . S
O422 C438 1.249 . S
O423 Dy417 2.275 . S
O423 C439 1.254 . S
O424 Dy416 2.339 . S
O424 C439 1.257 . S
O425 Dy417 2.307 . S
O425 C440 1.266 . S
O426 Dy416 2.298 . S
O426 C440 1.236 . S
O427 Dy417 2.395 . S
O427 C447 1.255 . S
O428 Dy417 2.379 . S
O428 C447 1.249 . S
C429 O419 1.266 1_565 S
C429 O420 1.236 1_565 S
O430 Dy416 2.275 . S
O430 C418 1.254 . S
O431 Dy417 2.339 . S
O431 C418 1.257 . S
C432 C435 1.344 . S
C432 C436 1.328 . S
C432 C438 1.516 . S
C433 C434 1.304 . S
C433 C437 1.323 . S
C434 C433 1.304 . S
C434 C435 1.371 . S
C434 H448 0.930 . S
C435 C432 1.344 . S
C435 C434 1.371 . S
C435 H449 0.931 . S
C436 C432 1.328 . S
C436 C437 1.433 . S
C436 H450 0.931 . S
C437 C433 1.323 . S
C437 C436 1.433 . S
C437 H451 0.933 . S
C438 Dy416 2.738 . S
C438 O421 1.255 . S
C438 O422 1.249 . S
C438 C432 1.516 . S
C439 O423 1.254 . S
C439 O424 1.257 . S
C440 O425 1.266 . S
C440 O426 1.236 . S
C441 C444 1.344 1_545 S
C441 C445 1.328 . S
C441 C447 1.516 . S
C442 C443 1.304 . S
C442 C446 1.323 . S
C443 C442 1.304 . S
C443 C444 1.371 . S
C443 H452 0.930 . S
C444 C441 1.344 1_565 S
C444 C443 1.371 . S
C444 H453 0.931 . S
C445 C441 1.328 . S
C445 C446 1.433 1_545 S
C445 H454 0.931 . S
C446 C442 1.323 . S
C446 C445 1.433 1_565 S
C446 H455 0.933 . S
C447 Dy417 2.738 . S
C447 O427 1.255 . S
C447 O428 1.249 . S
C447 C441 1.516 . S
H448 C434 0.930 . S
H449 C435 0.931 . S
H450 C436 0.931 . S
H451 C437 0.933 . S
H452 C443 0.930 . S
H453 C444 0.931 . S
H454 C445 0.931 . S
H455 C446 0.933 . S
Dy456 O459 2.307 . S
Dy456 O461 2.395 . S
Dy456 O462 2.379 . S
Dy456 O464 2.339 . S
Dy456 O466 2.298 . S
Dy456 O470 2.275 . S
Dy456 C478 2.738 . S
Dy457 O460 2.298 . S
Dy457 O463 2.275 . S
Dy457 O465 2.307 . S
Dy457 O467 2.395 . S
Dy457 O468 2.379 . S
Dy457 O471 2.339 . S
Dy457 C487 2.738 . S
C458 O470 1.254 . S
C458 O471 1.257 . S
O459 Dy456 2.307 . S
O459 C469 1.266 . S
O460 Dy457 2.298 . S
O460 C469 1.236 . S
O461 Dy456 2.395 . S
O461 C478 1.255 . S
O462 Dy456 2.379 . S
O462 C478 1.249 . S
O463 Dy457 2.275 . S
O463 C479 1.254 . S
O464 Dy456 2.339 . S
O464 C479 1.257 . S
O465 Dy457 2.307 . S
O465 C480 1.266 . S
O466 Dy456 2.298 . S
O466 C480 1.236 . S
O467 Dy457 2.395 . S
O467 C487 1.255 . S
O468 Dy457 2.379 . S
O468 C487 1.249 . S
C469 O459 1.266 . S
C469 O460 1.236 . S
O470 Dy456 2.275 . S
O470 C458 1.254 . S
O471 Dy457 2.339 . S
O471 C458 1.257 . S
C472 C475 1.344 . S
C472 C476 1.328 . S
C472 C478 1.516 . S
C473 C474 1.304 . S
C473 C477 1.323 . S
C474 C473 1.304 . S
C474 C475 1.371 . S
C474 H488 0.930 . S
C475 C472 1.344 . S
C475 C474 1.371 . S
C475 H489 0.931 . S
C476 C472 1.328 . S
C476 C477 1.433 . S
C476 H490 0.931 . S
C477 C473 1.323 . S
C477 C476 1.433 . S
C477 H491 0.933 . S
C478 Dy456 2.738 . S
C478 O461 1.255 . S
C478 O462 1.249 . S
C478 C472 1.516 . S
C479 O463 1.254 . S
C479 O464 1.257 . S
C480 O465 1.266 . S
C480 O466 1.236 . S
C481 C484 1.344 . S
C481 C485 1.328 . S
C481 C487 1.516 . S
C482 C483 1.304 . S
C482 C486 1.323 . S
C483 C482 1.304 . S
C483 C484 1.371 . S
C483 H492 0.930 . S
C484 C481 1.344 . S
C484 C483 1.371 . S
C484 H493 0.931 . S
C485 C481 1.328 . S
C485 C486 1.433 . S
C485 H494 0.931 . S
C486 C482 1.323 . S
C486 C485 1.433 . S
C486 H495 0.933 . S
C487 Dy457 2.738 . S
C487 O467 1.255 . S
C487 O468 1.249 . S
C487 C481 1.516 . S
H488 C474 0.930 . S
H489 C475 0.931 . S
H490 C476 0.931 . S
H491 C477 0.933 . S
H492 C483 0.930 . S
H493 C484 0.931 . S
H494 C485 0.931 . S
H495 C486 0.933 . S
Dy496 O499 2.307 . S
Dy496 O501 2.395 1_545 S
Dy496 O502 2.379 1_545 S
Dy496 O504 2.339 . S
Dy496 O506 2.298 . S
Dy496 O510 2.275 1_455 S
Dy496 C518 2.738 1_545 S
Dy497 O500 2.298 . S
Dy497 O503 2.275 . S
Dy497 O505 2.307 . S
Dy497 O507 2.395 . S
Dy497 O508 2.379 1_455 S
Dy497 O511 2.339 1_455 S
Dy497 C527 2.738 . S
C498 O510 1.254 . S
C498 O511 1.257 . S
O499 Dy496 2.307 . S
O499 C509 1.266 . S
O500 Dy497 2.298 . S
O500 C509 1.236 . S
O501 Dy496 2.395 1_565 S
O501 C518 1.255 . S
O502 Dy496 2.379 1_565 S
O502 C518 1.249 . S
O503 Dy497 2.275 . S
O503 C519 1.254 . S
O504 Dy496 2.339 . S
O504 C519 1.257 . S
O505 Dy497 2.307 . S
O505 C520 1.266 . S
O506 Dy496 2.298 . S
O506 C520 1.236 . S
O507 Dy497 2.395 . S
O507 C527 1.255 . S
O508 Dy497 2.379 1_655 S
O508 C527 1.249 1_655 S
C509 O499 1.266 . S
C509 O500 1.236 . S
O510 Dy496 2.275 1_655 S
O510 C498 1.254 . S
O511 Dy497 2.339 1_655 S
O511 C498 1.257 . S
C512 C515 1.344 . S
C512 C516 1.328 . S
C512 C518 1.516 . S
C513 C514 1.304 . S
C513 C517 1.323 . S
C514 C513 1.304 . S
C514 C515 1.371 . S
C514 H528 0.930 . S
C515 C512 1.344 . S
C515 C514 1.371 . S
C515 H529 0.931 . S
C516 C512 1.328 . S
C516 C517 1.433 . S
C516 H530 0.931 . S
C517 C513 1.323 . S
C517 C516 1.433 . S
C517 H531 0.933 . S
C518 Dy496 2.738 1_565 S
C518 O501 1.255 . S
C518 O502 1.249 . S
C518 C512 1.516 . S
C519 O503 1.254 . S
C519 O504 1.257 . S
C520 O505 1.266 . S
C520 O506 1.236 . S
C521 C524 1.344 . S
C521 C525 1.328 1_455 S
C521 C527 1.516 . S
C522 C523 1.304 . S
C522 C526 1.323 1_455 S
C523 C522 1.304 . S
C523 C524 1.371 . S
C523 H532 0.930 . S
C524 C521 1.344 . S
C524 C523 1.371 . S
C524 H533 0.931 . S
C525 C521 1.328 1_655 S
C525 C526 1.433 . S
C525 H534 0.931 . S
C526 C522 1.323 1_655 S
C526 C525 1.433 . S
C526 H535 0.933 . S
C527 Dy497 2.738 . S
C527 O507 1.255 . S
C527 O508 1.249 1_455 S
C527 C521 1.516 . S
H528 C514 0.930 . S
H529 C515 0.931 . S
H530 C516 0.931 . S
H531 C517 0.933 . S
H532 C523 0.930 . S
H533 C524 0.931 . S
H534 C525 0.931 . S
H535 C526 0.933 . S
Dy536 O539 2.307 . S
Dy536 O541 2.395 . S
Dy536 O542 2.379 . S
Dy536 O544 2.339 . S
Dy536 O546 2.298 . S
Dy536 O550 2.275 . S
Dy536 C558 2.738 . S
Dy537 O540 2.298 . S
Dy537 O543 2.275 . S
Dy537 O545 2.307 . S
Dy537 O547 2.395 . S
Dy537 O548 2.379 . S
Dy537 O551 2.339 . S
Dy537 C567 2.738 . S
C538 O550 1.254 . S
C538 O551 1.257 . S
O539 Dy536 2.307 . S
O539 C549 1.266 . S
O540 Dy537 2.298 . S
O540 C549 1.236 . S
O541 Dy536 2.395 . S
O541 C558 1.255 . S
O542 Dy536 2.379 . S
O542 C558 1.249 . S
O543 Dy537 2.275 . S
O543 C559 1.254 . S
O544 Dy536 2.339 . S
O544 C559 1.257 . S
O545 Dy537 2.307 . S
O545 C560 1.266 . S
O546 Dy536 2.298 . S
O546 C560 1.236 . S
O547 Dy537 2.395 . S
O547 C567 1.255 . S
O548 Dy537 2.379 . S
O548 C567 1.249 . S
C549 O539 1.266 . S
C549 O540 1.236 . S
O550 Dy536 2.275 . S
O550 C538 1.254 . S
O551 Dy537 2.339 . S
O551 C538 1.257 . S
C552 C555 1.344 . S
C552 C556 1.328 . S
C552 C558 1.516 . S
C553 C554 1.304 . S
C553 C557 1.323 . S
C554 C553 1.304 . S
C554 C555 1.371 . S
C554 H568 0.930 . S
C555 C552 1.344 . S
C555 C554 1.371 . S
C555 H569 0.931 . S
C556 C552 1.328 . S
C556 C557 1.433 . S
C556 H570 0.931 . S
C557 C553 1.323 . S
C557 C556 1.433 . S
C557 H571 0.933 . S
C558 Dy536 2.738 . S
C558 O541 1.255 . S
C558 O542 1.249 . S
C558 C552 1.516 . S
C559 O543 1.254 . S
C559 O544 1.257 . S
C560 O545 1.266 . S
C560 O546 1.236 . S
C561 C564 1.344 . S
C561 C565 1.328 . S
C561 C567 1.516 . S
C562 C563 1.304 . S
C562 C566 1.323 . S
C563 C562 1.304 . S
C563 C564 1.371 . S
C563 H572 0.930 . S
C564 C561 1.344 . S
C564 C563 1.371 . S
C564 H573 0.931 . S
C565 C561 1.328 . S
C565 C566 1.433 . S
C565 H574 0.931 . S
C566 C562 1.323 . S
C566 C565 1.433 . S
C566 H575 0.933 . S
C567 Dy537 2.738 . S
C567 O547 1.255 . S
C567 O548 1.249 . S
C567 C561 1.516 . S
H568 C554 0.930 . S
H569 C555 0.931 . S
H570 C556 0.931 . S
H571 C557 0.933 . S
H572 C563 0.930 . S
H573 C564 0.931 . S
H574 C565 0.931 . S
H575 C566 0.933 . S
Dy576 O579 2.307 1_556 S
Dy576 O581 2.395 . S
Dy576 O582 2.379 . S
Dy576 O584 2.339 1_556 S
Dy576 O586 2.298 1_556 S
Dy576 O590 2.275 1_556 S
Dy576 C598 2.738 . S
Dy577 O580 2.298 . S
Dy577 O583 2.275 . S
Dy577 O585 2.307 . S
Dy577 O587 2.395 . S
Dy577 O588 2.379 1_545 S
Dy577 O591 2.339 1_545 S
Dy577 C607 2.738 . S
C578 O590 1.254 1_565 S
C578 O591 1.257 . S
O579 Dy576 2.307 1_554 S
O579 C589 1.266 . S
O580 Dy577 2.298 . S
O580 C589 1.236 . S
O581 Dy576 2.395 . S
O581 C598 1.255 . S
O582 Dy576 2.379 . S
O582 C598 1.249 . S
O583 Dy577 2.275 . S
O583 C599 1.254 . S
O584 Dy576 2.339 1_554 S
O584 C599 1.257 . S
O585 Dy577 2.307 . S
O585 C600 1.266 . S
O586 Dy576 2.298 1_554 S
O586 C600 1.236 . S
O587 Dy577 2.395 . S
O587 C607 1.255 . S
O588 Dy577 2.379 1_565 S
O588 C607 1.249 1_565 S
C589 O579 1.266 . S
C589 O580 1.236 . S
O590 Dy576 2.275 1_554 S
O590 C578 1.254 1_545 S
O591 Dy577 2.339 1_565 S
O591 C578 1.257 . S
C592 C595 1.344 . S
C592 C596 1.328 . S
C592 C598 1.516 . S
C593 C594 1.304 . S
C593 C597 1.323 . S
C594 C593 1.304 . S
C594 C595 1.371 . S
C594 H608 0.930 . S
C595 C592 1.344 . S
C595 C594 1.371 . S
C595 H609 0.931 . S
C596 C592 1.328 . S
C596 C597 1.433 . S
C596 H610 0.931 . S
C597 C593 1.323 . S
C597 C596 1.433 . S
C597 H611 0.933 . S
C598 Dy576 2.738 . S
C598 O581 1.255 . S
C598 O582 1.249 . S
C598 C592 1.516 . S
C599 O583 1.254 . S
C599 O584 1.257 . S
C600 O585 1.266 . S
C600 O586 1.236 . S
C601 C604 1.344 . S
C601 C605 1.328 1_545 S
C601 C607 1.516 . S
C602 C603 1.304 1_565 S
C602 C606 1.323 . S
C603 C602 1.304 1_545 S
C603 C604 1.371 . S
C603 H612 0.930 . S
C604 C601 1.344 . S
C604 C603 1.371 . S
C604 H613 0.931 . S
C605 C601 1.328 1_565 S
C605 C606 1.433 . S
C605 H614 0.931 . S
C606 C602 1.323 . S
C606 C605 1.433 . S
C606 H615 0.933 . S
C607 Dy577 2.738 . S
C607 O587 1.255 . S
C607 O588 1.249 1_545 S
C607 C601 1.516 . S
H608 C594 0.930 . S
H609 C595 0.931 . S
H610 C596 0.931 . S
H611 C597 0.933 . S
H612 C603 0.930 . S
H613 C604 0.931 . S
H614 C605 0.931 . S
H615 C606 0.933 . S
Dy616 O619 2.307 . S
Dy616 O621 2.395 . S
Dy616 O622 2.379 . S
Dy616 O624 2.339 . S
Dy616 O626 2.298 . S
Dy616 O630 2.275 . S
Dy616 C638 2.738 . S
Dy617 O620 2.298 . S
Dy617 O623 2.275 . S
Dy617 O625 2.307 . S
Dy617 O627 2.395 . S
Dy617 O628 2.379 . S
Dy617 O631 2.339 . S
Dy617 C647 2.738 . S
C618 O630 1.254 . S
C618 O631 1.257 . S
O619 Dy616 2.307 . S
O619 C629 1.266 . S
O620 Dy617 2.298 . S
O620 C629 1.236 . S
O621 Dy616 2.395 . S
O621 C638 1.255 . S
O622 Dy616 2.379 . S
O622 C638 1.249 . S
O623 Dy617 2.275 . S
O623 C639 1.254 . S
O624 Dy616 2.339 . S
O624 C639 1.257 . S
O625 Dy617 2.307 . S
O625 C640 1.266 . S
O626 Dy616 2.298 . S
O626 C640 1.236 . S
O627 Dy617 2.395 . S
O627 C647 1.255 . S
O628 Dy617 2.379 . S
O628 C647 1.249 . S
C629 O619 1.266 . S
C629 O620 1.236 . S
O630 Dy616 2.275 . S
O630 C618 1.254 . S
O631 Dy617 2.339 . S
O631 C618 1.257 . S
C632 C635 1.344 . S
C632 C636 1.328 . S
C632 C638 1.516 . S
C633 C634 1.304 . S
C633 C637 1.323 . S
C634 C633 1.304 . S
C634 C635 1.371 . S
C634 H648 0.930 . S
C635 C632 1.344 . S
C635 C634 1.371 . S
C635 H649 0.931 . S
C636 C632 1.328 . S
C636 C637 1.433 . S
C636 H650 0.931 . S
C637 C633 1.323 . S
C637 C636 1.433 . S
C637 H651 0.933 . S
C638 Dy616 2.738 . S
C638 O621 1.255 . S
C638 O622 1.249 . S
C638 C632 1.516 . S
C639 O623 1.254 . S
C639 O624 1.257 . S
C640 O625 1.266 . S
C640 O626 1.236 . S
C641 C644 1.344 . S
C641 C645 1.328 . S
C641 C647 1.516 . S
C642 C643 1.304 . S
C642 C646 1.323 . S
C643 C642 1.304 . S
C643 C644 1.371 . S
C643 H652 0.930 . S
C644 C641 1.344 . S
C644 C643 1.371 . S
C644 H653 0.931 . S
C645 C641 1.328 . S
C645 C646 1.433 . S
C645 H654 0.931 . S
C646 C642 1.323 . S
C646 C645 1.433 . S
C646 H655 0.933 . S
C647 Dy617 2.738 . S
C647 O627 1.255 . S
C647 O628 1.249 . S
C647 C641 1.516 . S
H648 C634 0.930 . S
H649 C635 0.931 . S
H650 C636 0.931 . S
H651 C637 0.933 . S
H652 C643 0.930 . S
H653 C644 0.931 . S
H654 C645 0.931 . S
H655 C646 0.933 . S
Dy656 O659 2.307 1_554 S
Dy656 O661 2.395 . S
Dy656 O662 2.379 . S
Dy656 O664 2.339 . S
Dy656 O666 2.298 . S
Dy656 O670 2.275 . S
Dy656 C678 2.738 . S
Dy657 O660 2.298 1_554 S
Dy657 O663 2.275 . S
Dy657 O665 2.307 . S
Dy657 O667 2.395 . S
Dy657 O668 2.379 . S
Dy657 O671 2.339 . S
Dy657 C687 2.738 . S
C658 O670 1.254 . S
C658 O671 1.257 . S
O659 Dy656 2.307 1_556 S
O659 C669 1.266 . S
O660 Dy657 2.298 1_556 S
O660 C669 1.236 . S
O661 Dy656 2.395 . S
O661 C678 1.255 . S
O662 Dy656 2.379 . S
O662 C678 1.249 . S
O663 Dy657 2.275 . S
O663 C679 1.254 . S
O664 Dy656 2.339 . S
O664 C679 1.257 . S
O665 Dy657 2.307 . S
O665 C680 1.266 . S
O666 Dy656 2.298 . S
O666 C680 1.236 . S
O667 Dy657 2.395 . S
O667 C687 1.255 . S
O668 Dy657 2.379 . S
O668 C687 1.249 . S
C669 O659 1.266 . S
C669 O660 1.236 . S
O670 Dy656 2.275 . S
O670 C658 1.254 . S
O671 Dy657 2.339 . S
O671 C658 1.257 . S
C672 C675 1.344 . S
C672 C676 1.328 . S
C672 C678 1.516 . S
C673 C674 1.304 . S
C673 C677 1.323 . S
C674 C673 1.304 . S
C674 C675 1.371 . S
C674 H688 0.930 . S
C675 C672 1.344 . S
C675 C674 1.371 . S
C675 H689 0.931 . S
C676 C672 1.328 . S
C676 C677 1.433 . S
C676 H690 0.931 . S
C677 C673 1.323 . S
C677 C676 1.433 . S
C677 H691 0.933 . S
C678 Dy656 2.738 . S
C678 O661 1.255 . S
C678 O662 1.249 . S
C678 C672 1.516 . S
C679 O663 1.254 . S
C679 O664 1.257 . S
C680 O665 1.266 . S
C680 O666 1.236 . S
C681 C684 1.344 . S
C681 C685 1.328 . S
C681 C687 1.516 1_556 S
C682 C683 1.304 . S
C682 C686 1.323 . S
C683 C682 1.304 . S
C683 C684 1.371 . S
C683 H692 0.930 . S
C684 C681 1.344 . S
C684 C683 1.371 . S
C684 H693 0.931 . S
C685 C681 1.328 . S
C685 C686 1.433 . S
C685 H694 0.931 1_556 S
C686 C682 1.323 . S
C686 C685 1.433 . S
C686 H695 0.933 . S
C687 Dy657 2.738 . S
C687 O667 1.255 . S
C687 O668 1.249 . S
C687 C681 1.516 1_554 S
H688 C674 0.930 . S
H689 C675 0.931 . S
H690 C676 0.931 . S
H691 C677 0.933 . S
H692 C683 0.930 . S
H693 C684 0.931 . S
H694 C685 0.931 1_554 S
H695 C686 0.933 . S
Dy696 O699 2.307 . S
Dy696 O701 2.395 . S
Dy696 O702 2.379 . S
Dy696 O704 2.339 . S
Dy696 O706 2.298 . S
Dy696 O710 2.275 . S
Dy696 C718 2.738 . S
Dy697 O700 2.298 . S
Dy697 O703 2.275 . S
Dy697 O705 2.307 . S
Dy697 O707 2.395 . S
Dy697 O708 2.379 . S
Dy697 O711 2.339 . S
Dy697 C727 2.738 . S
C698 O710 1.254 . S
C698 O711 1.257 . S
O699 Dy696 2.307 . S
O699 C709 1.266 . S
O700 Dy697 2.298 . S
O700 C709 1.236 . S
O701 Dy696 2.395 . S
O701 C718 1.255 . S
O702 Dy696 2.379 . S
O702 C718 1.249 . S
O703 Dy697 2.275 . S
O703 C719 1.254 . S
O704 Dy696 2.339 . S
O704 C719 1.257 . S
O705 Dy697 2.307 . S
O705 C720 1.266 . S
O706 Dy696 2.298 . S
O706 C720 1.236 . S
O707 Dy697 2.395 . S
O707 C727 1.255 . S
O708 Dy697 2.379 . S
O708 C727 1.249 . S
C709 O699 1.266 . S
C709 O700 1.236 . S
O710 Dy696 2.275 . S
O710 C698 1.254 . S
O711 Dy697 2.339 . S
O711 C698 1.257 . S
C712 C715 1.344 . S
C712 C716 1.328 . S
C712 C718 1.516 . S
C713 C714 1.304 . S
C713 C717 1.323 . S
C714 C713 1.304 . S
C714 C715 1.371 . S
C714 H728 0.930 . S
C715 C712 1.344 . S
C715 C714 1.371 . S
C715 H729 0.931 . S
C716 C712 1.328 . S
C716 C717 1.433 . S
C716 H730 0.931 . S
C717 C713 1.323 . S
C717 C716 1.433 . S
C717 H731 0.933 . S
C718 Dy696 2.738 . S
C718 O701 1.255 . S
C718 O702 1.249 . S
C718 C712 1.516 . S
C719 O703 1.254 . S
C719 O704 1.257 . S
C720 O705 1.266 . S
C720 O706 1.236 . S
C721 C724 1.344 . S
C721 C725 1.328 . S
C721 C727 1.516 . S
C722 C723 1.304 . S
C722 C726 1.323 . S
C723 C722 1.304 . S
C723 C724 1.371 . S
C723 H732 0.930 . S
C724 C721 1.344 . S
C724 C723 1.371 . S
C724 H733 0.931 . S
C725 C721 1.328 . S
C725 C726 1.433 . S
C725 H734 0.931 . S
C726 C722 1.323 . S
C726 C725 1.433 . S
C726 H735 0.933 . S
C727 Dy697 2.738 . S
C727 O707 1.255 . S
C727 O708 1.249 . S
C727 C721 1.516 . S
H728 C714 0.930 . S
H729 C715 0.931 . S
H730 C716 0.931 . S
H731 C717 0.933 . S
H732 C723 0.930 . S
H733 C724 0.931 . S
H734 C725 0.931 . S
H735 C726 0.933 . S
Dy736 O739 2.307 1_455 S
Dy736 O741 2.395 . S
Dy736 O742 2.379 . S
Dy736 O744 2.339 . S
Dy736 O746 2.298 . S
Dy736 O750 2.275 . S
Dy736 C758 2.738 . S
Dy737 O740 2.298 1_455 S
Dy737 O743 2.275 . S
Dy737 O745 2.307 . S
Dy737 O747 2.395 . S
Dy737 O748 2.379 . S
Dy737 O751 2.339 . S
Dy737 C767 2.738 . S
C738 O750 1.254 . S
C738 O751 1.257 . S
O739 Dy736 2.307 1_655 S
O739 C749 1.266 . S
O740 Dy737 2.298 1_655 S
O740 C749 1.236 . S
O741 Dy736 2.395 . S
O741 C758 1.255 . S
O742 Dy736 2.379 . S
O742 C758 1.249 . S
O743 Dy737 2.275 . S
O743 C759 1.254 . S
O744 Dy736 2.339 . S
O744 C759 1.257 . S
O745 Dy737 2.307 . S
O745 C760 1.266 . S
O746 Dy736 2.298 . S
O746 C760 1.236 . S
O747 Dy737 2.395 . S
O747 C767 1.255 . S
O748 Dy737 2.379 . S
O748 C767 1.249 . S
C749 O739 1.266 . S
C749 O740 1.236 . S
O750 Dy736 2.275 . S
O750 C738 1.254 . S
O751 Dy737 2.339 . S
O751 C738 1.257 . S
C752 C755 1.344 . S
C752 C756 1.328 . S
C752 C758 1.516 . S
C753 C754 1.304 . S
C753 C757 1.323 . S
C754 C753 1.304 . S
C754 C755 1.371 . S
C754 H768 0.930 . S
C755 C752 1.344 . S
C755 C754 1.371 . S
C755 H769 0.931 . S
C756 C752 1.328 . S
C756 C757 1.433 . S
C756 H770 0.931 . S
C757 C753 1.323 . S
C757 C756 1.433 . S
C757 H771 0.933 . S
C758 Dy736 2.738 . S
C758 O741 1.255 . S
C758 O742 1.249 . S
C758 C752 1.516 . S
C759 O743 1.254 . S
C759 O744 1.257 . S
C760 O745 1.266 . S
C760 O746 1.236 . S
C761 C764 1.344 . S
C761 C765 1.328 . S
C761 C767 1.516 1_655 S
C762 C763 1.304 . S
C762 C766 1.323 . S
C763 C762 1.304 . S
C763 C764 1.371 . S
C763 H772 0.930 . S
C764 C761 1.344 . S
C764 C763 1.371 . S
C764 H773 0.931 . S
C765 C761 1.328 . S
C765 C766 1.433 . S
C765 H774 0.931 . S
C766 C762 1.323 . S
C766 C765 1.433 . S
C766 H775 0.933 . S
C767 Dy737 2.738 . S
C767 O747 1.255 . S
C767 O748 1.249 . S
C767 C761 1.516 1_455 S
H768 C754 0.930 . S
H769 C755 0.931 . S
H770 C756 0.931 . S
H771 C757 0.933 . S
H772 C763 0.930 . S
H773 C764 0.931 . S
H774 C765 0.931 . S
H775 C766 0.933 . S
Dy776 O779 2.307 . S
Dy776 O781 2.395 . S
Dy776 O782 2.379 . S
Dy776 O784 2.339 . S
Dy776 O786 2.298 . S
Dy776 O790 2.275 . S
Dy776 C798 2.738 . S
Dy777 O780 2.298 . S
Dy777 O783 2.275 . S
Dy777 O785 2.307 . S
Dy777 O787 2.395 . S
Dy777 O788 2.379 . S
Dy777 O791 2.339 . S
Dy777 C807 2.738 . S
C778 O790 1.254 . S
C778 O791 1.257 . S
O779 Dy776 2.307 . S
O779 C789 1.266 . S
O780 Dy777 2.298 . S
O780 C789 1.236 . S
O781 Dy776 2.395 . S
O781 C798 1.255 . S
O782 Dy776 2.379 . S
O782 C798 1.249 . S
O783 Dy777 2.275 . S
O783 C799 1.254 . S
O784 Dy776 2.339 . S
O784 C799 1.257 . S
O785 Dy777 2.307 . S
O785 C800 1.266 . S
O786 Dy776 2.298 . S
O786 C800 1.236 . S
O787 Dy777 2.395 . S
O787 C807 1.255 . S
O788 Dy777 2.379 . S
O788 C807 1.249 . S
C789 O779 1.266 . S
C789 O780 1.236 . S
O790 Dy776 2.275 . S
O790 C778 1.254 . S
O791 Dy777 2.339 . S
O791 C778 1.257 . S
C792 C795 1.344 . S
C792 C796 1.328 . S
C792 C798 1.516 . S
C793 C794 1.304 . S
C793 C797 1.323 . S
C794 C793 1.304 . S
C794 C795 1.371 . S
C794 H808 0.930 . S
C795 C792 1.344 . S
C795 C794 1.371 . S
C795 H809 0.931 . S
C796 C792 1.328 . S
C796 C797 1.433 . S
C796 H810 0.931 . S
C797 C793 1.323 . S
C797 C796 1.433 . S
C797 H811 0.933 . S
C798 Dy776 2.738 . S
C798 O781 1.255 . S
C798 O782 1.249 . S
C798 C792 1.516 . S
C799 O783 1.254 . S
C799 O784 1.257 . S
C800 O785 1.266 . S
C800 O786 1.236 . S
C801 C804 1.344 . S
C801 C805 1.328 . S
C801 C807 1.516 . S
C802 C803 1.304 . S
C802 C806 1.323 . S
C803 C802 1.304 . S
C803 C804 1.371 . S
C803 H812 0.930 . S
C804 C801 1.344 . S
C804 C803 1.371 . S
C804 H813 0.931 . S
C805 C801 1.328 . S
C805 C806 1.433 . S
C805 H814 0.931 . S
C806 C802 1.323 . S
C806 C805 1.433 . S
C806 H815 0.933 . S
C807 Dy777 2.738 . S
C807 O787 1.255 . S
C807 O788 1.249 . S
C807 C801 1.516 . S
H808 C794 0.930 . S
H809 C795 0.931 . S
H810 C796 0.931 . S
H811 C797 0.933 . S
H812 C803 0.930 . S
H813 C804 0.931 . S
H814 C805 0.931 . S
H815 C806 0.933 . S
Dy816 O819 2.307 . S
Dy816 O821 2.395 . S
Dy816 O822 2.379 . S
Dy816 O824 2.339 . S
Dy816 O826 2.298 . S
Dy816 O830 2.275 . S
Dy816 C838 2.738 . S
Dy817 O820 2.298 . S
Dy817 O823 2.275 . S
Dy817 O825 2.307 . S
Dy817 O827 2.395 . S
Dy817 O828 2.379 . S
Dy817 O831 2.339 . S
Dy817 C847 2.738 . S
C818 O830 1.254 . S
C818 O831 1.257 . S
O819 Dy816 2.307 . S
O819 C829 1.266 . S
O820 Dy817 2.298 . S
O820 C829 1.236 . S
O821 Dy816 2.395 . S
O821 C838 1.255 . S
O822 Dy816 2.379 . S
O822 C838 1.249 . S
O823 Dy817 2.275 . S
O823 C839 1.254 . S
O824 Dy816 2.339 . S
O824 C839 1.257 . S
O825 Dy817 2.307 . S
O825 C840 1.266 . S
O826 Dy816 2.298 . S
O826 C840 1.236 . S
O827 Dy817 2.395 . S
O827 C847 1.255 . S
O828 Dy817 2.379 . S
O828 C847 1.249 . S
C829 O819 1.266 . S
C829 O820 1.236 . S
O830 Dy816 2.275 . S
O830 C818 1.254 . S
O831 Dy817 2.339 . S
O831 C818 1.257 . S
C832 C835 1.344 . S
C832 C836 1.328 . S
C832 C838 1.516 . S
C833 C834 1.304 . S
C833 C837 1.323 . S
C834 C833 1.304 . S
C834 C835 1.371 . S
C834 H848 0.930 . S
C835 C832 1.344 . S
C835 C834 1.371 . S
C835 H849 0.931 . S
C836 C832 1.328 . S
C836 C837 1.433 . S
C836 H850 0.931 . S
C837 C833 1.323 . S
C837 C836 1.433 . S
C837 H851 0.933 . S
C838 Dy816 2.738 . S
C838 O821 1.255 . S
C838 O822 1.249 . S
C838 C832 1.516 . S
C839 O823 1.254 . S
C839 O824 1.257 . S
C840 O825 1.266 . S
C840 O826 1.236 . S
C841 C844 1.344 . S
C841 C845 1.328 . S
C841 C847 1.516 . S
C842 C843 1.304 . S
C842 C846 1.323 . S
C843 C842 1.304 . S
C843 C844 1.371 . S
C843 H852 0.930 . S
C844 C841 1.344 . S
C844 C843 1.371 . S
C844 H853 0.931 . S
C845 C841 1.328 . S
C845 C846 1.433 . S
C845 H854 0.931 . S
C846 C842 1.323 . S
C846 C845 1.433 . S
C846 H855 0.933 . S
C847 Dy817 2.738 . S
C847 O827 1.255 . S
C847 O828 1.249 . S
C847 C841 1.516 . S
H848 C834 0.930 . S
H849 C835 0.931 . S
H850 C836 0.931 . S
H851 C837 0.933 . S
H852 C843 0.930 . S
H853 C844 0.931 . S
H854 C845 0.931 . S
H855 C846 0.933 . S
Dy856 O859 2.307 . S
Dy856 O861 2.395 . S
Dy856 O862 2.379 . S
Dy856 O864 2.339 . S
Dy856 O866 2.298 . S
Dy856 O870 2.275 . S
Dy856 C878 2.738 . S
Dy857 O860 2.298 . S
Dy857 O863 2.275 . S
Dy857 O865 2.307 . S
Dy857 O867 2.395 . S
Dy857 O868 2.379 . S
Dy857 O871 2.339 . S
Dy857 C887 2.738 . S
C858 O870 1.254 . S
C858 O871 1.257 . S
O859 Dy856 2.307 . S
O859 C869 1.266 . S
O860 Dy857 2.298 . S
O860 C869 1.236 . S
O861 Dy856 2.395 . S
O861 C878 1.255 . S
O862 Dy856 2.379 . S
O862 C878 1.249 . S
O863 Dy857 2.275 . S
O863 C879 1.254 . S
O864 Dy856 2.339 . S
O864 C879 1.257 . S
O865 Dy857 2.307 . S
O865 C880 1.266 . S
O866 Dy856 2.298 . S
O866 C880 1.236 . S
O867 Dy857 2.395 . S
O867 C887 1.255 . S
O868 Dy857 2.379 . S
O868 C887 1.249 . S
C869 O859 1.266 . S
C869 O860 1.236 . S
O870 Dy856 2.275 . S
O870 C858 1.254 . S
O871 Dy857 2.339 . S
O871 C858 1.257 . S
C872 C875 1.344 . S
C872 C876 1.328 . S
C872 C878 1.516 . S
C873 C874 1.304 . S
C873 C877 1.323 . S
C874 C873 1.304 . S
C874 C875 1.371 . S
C874 H888 0.930 . S
C875 C872 1.344 . S
C875 C874 1.371 . S
C875 H889 0.931 . S
C876 C872 1.328 . S
C876 C877 1.433 . S
C876 H890 0.931 . S
C877 C873 1.323 . S
C877 C876 1.433 . S
C877 H891 0.933 . S
C878 Dy856 2.738 . S
C878 O861 1.255 . S
C878 O862 1.249 . S
C878 C872 1.516 . S
C879 O863 1.254 . S
C879 O864 1.257 . S
C880 O865 1.266 . S
C880 O866 1.236 . S
C881 C884 1.344 . S
C881 C885 1.328 . S
C881 C887 1.516 . S
C882 C883 1.304 . S
C882 C886 1.323 . S
C883 C882 1.304 . S
C883 C884 1.371 . S
C883 H892 0.930 . S
C884 C881 1.344 . S
C884 C883 1.371 . S
C884 H893 0.931 . S
C885 C881 1.328 . S
C885 C886 1.433 . S
C885 H894 0.931 . S
C886 C882 1.323 . S
C886 C885 1.433 . S
C886 H895 0.933 . S
C887 Dy857 2.738 . S
C887 O867 1.255 . S
C887 O868 1.249 . S
C887 C881 1.516 . S
H888 C874 0.930 . S
H889 C875 0.931 . S
H890 C876 0.931 . S
H891 C877 0.933 . S
H892 C883 0.930 . S
H893 C884 0.931 . S
H894 C885 0.931 . S
H895 C886 0.933 . S
Dy896 O899 2.307 . S
Dy896 O901 2.395 . S
Dy896 O902 2.379 . S
Dy896 O904 2.339 . S
Dy896 O906 2.298 . S
Dy896 O910 2.275 . S
Dy896 C918 2.738 . S
Dy897 O900 2.298 . S
Dy897 O903 2.275 . S
Dy897 O905 2.307 . S
Dy897 O907 2.395 . S
Dy897 O908 2.379 . S
Dy897 O911 2.339 . S
Dy897 C927 2.738 . S
C898 O910 1.254 . S
C898 O911 1.257 . S
O899 Dy896 2.307 . S
O899 C909 1.266 . S
O900 Dy897 2.298 . S
O900 C909 1.236 . S
O901 Dy896 2.395 . S
O901 C918 1.255 . S
O902 Dy896 2.379 . S
O902 C918 1.249 . S
O903 Dy897 2.275 . S
O903 C919 1.254 . S
O904 Dy896 2.339 . S
O904 C919 1.257 . S
O905 Dy897 2.307 . S
O905 C920 1.266 . S
O906 Dy896 2.298 . S
O906 C920 1.236 . S
O907 Dy897 2.395 . S
O907 C927 1.255 . S
O908 Dy897 2.379 . S
O908 C927 1.249 . S
C909 O899 1.266 . S
C909 O900 1.236 . S
O910 Dy896 2.275 . S
O910 C898 1.254 . S
O911 Dy897 2.339 . S
O911 C898 1.257 . S
C912 C915 1.344 . S
C912 C916 1.328 . S
C912 C918 1.516 . S
C913 C914 1.304 . S
C913 C917 1.323 . S
C914 C913 1.304 . S
C914 C915 1.371 . S
C914 H928 0.930 . S
C915 C912 1.344 . S
C915 C914 1.371 . S
C915 H929 0.931 . S
C916 C912 1.328 . S
C916 C917 1.433 . S
C916 H930 0.931 . S
C917 C913 1.323 . S
C917 C916 1.433 . S
C917 H931 0.933 . S
C918 Dy896 2.738 . S
C918 O901 1.255 . S
C918 O902 1.249 . S
C918 C912 1.516 . S
C919 O903 1.254 . S
C919 O904 1.257 . S
C920 O905 1.266 . S
C920 O906 1.236 . S
C921 C924 1.344 . S
C921 C925 1.328 . S
C921 C927 1.516 . S
C922 C923 1.304 . S
C922 C926 1.323 . S
C923 C922 1.304 . S
C923 C924 1.371 . S
C923 H932 0.930 . S
C924 C921 1.344 . S
C924 C923 1.371 . S
C924 H933 0.931 . S
C925 C921 1.328 . S
C925 C926 1.433 . S
C925 H934 0.931 . S
C926 C922 1.323 . S
C926 C925 1.433 . S
C926 H935 0.933 . S
C927 Dy897 2.738 . S
C927 O907 1.255 . S
C927 O908 1.249 . S
C927 C921 1.516 . S
H928 C914 0.930 . S
H929 C915 0.931 . S
H930 C916 0.931 . S
H931 C917 0.933 . S
H932 C923 0.930 . S
H933 C924 0.931 . S
H934 C925 0.931 . S
H935 C926 0.933 . S
Dy936 O939 2.307 1_655 S
Dy936 O941 2.395 . S
Dy936 O942 2.379 . S
Dy936 O944 2.339 1_655 S
Dy936 O946 2.298 1_655 S
Dy936 O950 2.275 1_655 S
Dy936 C958 2.738 . S
Dy937 O940 2.298 . S
Dy937 O943 2.275 . S
Dy937 O945 2.307 . S
Dy937 O947 2.395 . S
Dy937 O948 2.379 1_554 S
Dy937 O951 2.339 1_554 S
Dy937 C967 2.738 . S
C938 O950 1.254 1_556 S
C938 O951 1.257 . S
O939 Dy936 2.307 1_455 S
O939 C949 1.266 . S
O940 Dy937 2.298 . S
O940 C949 1.236 . S
O941 Dy936 2.395 . S
O941 C958 1.255 . S
O942 Dy936 2.379 . S
O942 C958 1.249 . S
O943 Dy937 2.275 . S
O943 C959 1.254 . S
O944 Dy936 2.339 1_455 S
O944 C959 1.257 . S
O945 Dy937 2.307 . S
O945 C960 1.266 . S
O946 Dy936 2.298 1_455 S
O946 C960 1.236 . S
O947 Dy937 2.395 . S
O947 C967 1.255 . S
O948 Dy937 2.379 1_556 S
O948 C967 1.249 1_556 S
C949 O939 1.266 . S
C949 O940 1.236 . S
O950 Dy936 2.275 1_455 S
O950 C938 1.254 1_554 S
O951 Dy937 2.339 1_556 S
O951 C938 1.257 . S
C952 C955 1.344 . S
C952 C956 1.328 . S
C952 C958 1.516 . S
C953 C954 1.304 . S
C953 C957 1.323 . S
C954 C953 1.304 . S
C954 C955 1.371 . S
C954 H968 0.930 . S
C955 C952 1.344 . S
C955 C954 1.371 . S
C955 H969 0.931 . S
C956 C952 1.328 . S
C956 C957 1.433 . S
C956 H970 0.931 . S
C957 C953 1.323 . S
C957 C956 1.433 . S
C957 H971 0.933 . S
C958 Dy936 2.738 . S
C958 O941 1.255 . S
C958 O942 1.249 . S
C958 C952 1.516 . S
C959 O943 1.254 . S
C959 O944 1.257 . S
C960 O945 1.266 . S
C960 O946 1.236 . S
C961 C964 1.344 . S
C961 C965 1.328 1_554 S
C961 C967 1.516 . S
C962 C963 1.304 1_556 S
C962 C966 1.323 . S
C963 C962 1.304 1_554 S
C963 C964 1.371 . S
C963 H972 0.930 . S
C964 C961 1.344 . S
C964 C963 1.371 . S
C964 H973 0.931 . S
C965 C961 1.328 1_556 S
C965 C966 1.433 . S
C965 H974 0.931 . S
C966 C962 1.323 . S
C966 C965 1.433 . S
C966 H975 0.933 . S
C967 Dy937 2.738 . S
C967 O947 1.255 . S
C967 O948 1.249 1_554 S
C967 C961 1.516 . S
H968 C954 0.930 . S
H969 C955 0.931 . S
H970 C956 0.931 . S
H971 C957 0.933 . S
H972 C963 0.930 . S
H973 C964 0.931 . S
H974 C965 0.931 . S
H975 C966 0.933 . S
C976 C977 1.391 1_554 S
C976 C978 1.394 . S
C976 H992 0.931 . S
C977 C976 1.391 1_556 S
C977 C981 1.355 1_655 S
C978 C976 1.394 . S
C978 C979 1.340 1_655 S
C978 C982 1.531 . S
C979 C978 1.340 1_455 S
C979 C980 1.418 1_554 S
C979 C987 1.531 . S
C980 C979 1.418 1_556 S
C980 C981 1.409 . S
C980 C983 1.511 . S
C981 C977 1.355 1_455 S
C981 C980 1.409 . S
C981 H993 0.935 . S
C982 C978 1.531 . S
C982 H994 0.960 . S
C982 H995 0.962 1_655 S
C982 H996 0.960 . S
C983 C980 1.511 . S
C983 H997 0.961 . S
C983 H998 0.961 . S
C983 H999 0.961 1_455 S
C984 C985 1.370 . S
C984 C986 1.363 . S
C984 H1000 0.931 . S
C985 C984 1.370 . S
C985 C989 1.408 1_455 S
C986 C984 1.363 . S
C986 C987 1.370 . S
C986 C990 1.524 . S
C987 C979 1.531 . S
C987 C986 1.370 . S
C987 C988 1.403 1_455 S
C988 C987 1.403 1_655 S
C988 C989 1.404 . S
C988 C991 1.539 1_554 S
C989 C985 1.408 1_655 S
C989 C988 1.404 . S
C989 H1001 0.930 . S
C990 C986 1.524 . S
C990 H1002 0.956 . S
C990 H1003 0.961 . S
C990 H1004 0.961 . S
C991 C988 1.539 1_556 S
C991 H1005 0.958 1_556 S
C991 H1006 0.961 . S
C991 H1007 0.960 . S
H992 C976 0.931 . S
H993 C981 0.935 . S
H994 C982 0.960 . S
H995 C982 0.962 1_455 S
H996 C982 0.960 . S
H997 C983 0.961 . S
H998 C983 0.961 . S
H999 C983 0.961 1_655 S
H1000 C984 0.931 . S
H1001 C989 0.930 . S
H1002 C990 0.956 . S
H1003 C990 0.961 . S
H1004 C990 0.961 . S
H1005 C991 0.958 1_554 S
H1006 C991 0.961 . S
H1007 C991 0.960 . S
C1008 C1009 1.391 . S
C1008 C1010 1.394 . S
C1008 H1024 0.931 . S
C1009 C1008 1.391 . S
C1009 C1013 1.376 . S
C1010 C1008 1.394 . S
C1010 C1011 1.369 . S
C1010 C1014 1.531 . S
C1011 C1010 1.369 . S
C1011 C1012 1.410 . S
C1011 C1019 1.503 . S
C1012 C1011 1.410 . S
C1012 C1013 1.392 . S
C1012 C1015 1.511 . S
C1013 C1009 1.376 . S
C1013 C1012 1.392 . S
C1013 H1025 0.929 . S
C1014 C1010 1.531 . S
C1014 H1026 0.960 . S
C1014 H1027 0.962 . S
C1014 H1028 0.960 . S
C1015 C1012 1.511 . S
C1015 H1029 0.961 . S
C1015 H1030 0.961 . S
C1015 H1031 0.961 . S
C1016 C1017 1.370 . S
C1016 C1018 1.363 . S
C1016 H1032 0.931 . S
C1017 C1016 1.370 . S
C1017 C1021 1.408 . S
C1018 C1016 1.363 . S
C1018 C1019 1.370 . S
C1018 C1022 1.524 . S
C1019 C1011 1.503 . S
C1019 C1018 1.370 . S
C1019 C1020 1.403 . S
C1020 C1019 1.403 . S
C1020 C1021 1.404 . S
C1020 C1023 1.539 . S
C1021 C1017 1.408 . S
C1021 C1020 1.404 . S
C1021 H1033 0.930 . S
C1022 C1018 1.524 . S
C1022 H1034 0.956 . S
C1022 H1035 0.961 . S
C1022 H1036 0.961 . S
C1023 C1020 1.539 . S
C1023 H1037 0.958 . S
C1023 H1038 0.961 . S
C1023 H1039 0.960 . S
H1024 C1008 0.931 . S
H1025 C1013 0.929 . S
H1026 C1014 0.960 . S
H1027 C1014 0.962 . S
H1028 C1014 0.960 . S
H1029 C1015 0.961 . S
H1030 C1015 0.961 . S
H1031 C1015 0.961 . S
H1032 C1016 0.931 . S
H1033 C1021 0.930 . S
H1034 C1022 0.956 . S
H1035 C1022 0.961 . S
H1036 C1022 0.961 . S
H1037 C1023 0.958 . S
H1038 C1023 0.961 . S
H1039 C1023 0.960 . S
C1040 C1041 1.391 . S
C1040 C1042 1.394 . S
C1040 H1056 0.931 . S
C1041 C1040 1.391 . S
C1041 C1045 1.376 . S
C1042 C1040 1.394 . S
C1042 C1043 1.369 . S
C1042 C1046 1.531 . S
C1043 C1042 1.369 . S
C1043 C1044 1.410 . S
C1043 C1051 1.503 . S
C1044 C1043 1.410 . S
C1044 C1045 1.392 . S
C1044 C1047 1.511 . S
C1045 C1041 1.376 . S
C1045 C1044 1.392 . S
C1045 H1057 0.929 . S
C1046 C1042 1.531 . S
C1046 H1058 0.960 . S
C1046 H1059 0.962 . S
C1046 H1060 0.960 . S
C1047 C1044 1.511 . S
C1047 H1061 0.961 . S
C1047 H1062 0.961 . S
C1047 H1063 0.961 . S
C1048 C1049 1.370 . S
C1048 C1050 1.363 . S
C1048 H1064 0.931 . S
C1049 C1048 1.370 . S
C1049 C1053 1.408 . S
C1050 C1048 1.363 . S
C1050 C1051 1.370 . S
C1050 C1054 1.524 . S
C1051 C1043 1.503 . S
C1051 C1050 1.370 . S
C1051 C1052 1.403 . S
C1052 C1051 1.403 . S
C1052 C1053 1.404 . S
C1052 C1055 1.539 . S
C1053 C1049 1.408 . S
C1053 C1052 1.404 . S
C1053 H1065 0.930 . S
C1054 C1050 1.524 . S
C1054 H1066 0.956 . S
C1054 H1067 0.961 . S
C1054 H1068 0.961 . S
C1055 C1052 1.539 . S
C1055 H1069 0.958 . S
C1055 H1070 0.961 . S
C1055 H1071 0.960 . S
H1056 C1040 0.931 . S
H1057 C1045 0.929 . S
H1058 C1046 0.960 . S
H1059 C1046 0.962 . S
H1060 C1046 0.960 . S
H1061 C1047 0.961 . S
H1062 C1047 0.961 . S
H1063 C1047 0.961 . S
H1064 C1048 0.931 . S
H1065 C1053 0.930 . S
H1066 C1054 0.956 . S
H1067 C1054 0.961 . S
H1068 C1054 0.961 . S
H1069 C1055 0.958 . S
H1070 C1055 0.961 . S
H1071 C1055 0.960 . S
C1072 C1073 1.391 . S
C1072 C1074 1.394 . S
C1072 H1088 0.931 . S
C1073 C1072 1.391 . S
C1073 C1077 1.376 . S
C1074 C1072 1.394 . S
C1074 C1075 1.369 . S
C1074 C1078 1.531 . S
C1075 C1074 1.369 . S
C1075 C1076 1.410 . S
C1075 C1083 1.503 . S
C1076 C1075 1.410 . S
C1076 C1077 1.392 . S
C1076 C1079 1.511 . S
C1077 C1073 1.376 . S
C1077 C1076 1.392 . S
C1077 H1089 0.929 . S
C1078 C1074 1.531 . S
C1078 H1090 0.960 . S
C1078 H1091 0.962 . S
C1078 H1092 0.960 . S
C1079 C1076 1.511 . S
C1079 H1093 0.961 . S
C1079 H1094 0.961 . S
C1079 H1095 0.961 . S
C1080 C1081 1.370 . S
C1080 C1082 1.363 . S
C1080 H1096 0.931 . S
C1081 C1080 1.370 . S
C1081 C1085 1.408 . S
C1082 C1080 1.363 . S
C1082 C1083 1.370 . S
C1082 C1086 1.524 . S
C1083 C1075 1.503 . S
C1083 C1082 1.370 . S
C1083 C1084 1.403 . S
C1084 C1083 1.403 . S
C1084 C1085 1.404 . S
C1084 C1087 1.539 . S
C1085 C1081 1.408 . S
C1085 C1084 1.404 . S
C1085 H1097 0.930 . S
C1086 C1082 1.524 . S
C1086 H1098 0.956 . S
C1086 H1099 0.961 . S
C1086 H1100 0.961 . S
C1087 C1084 1.539 . S
C1087 H1101 0.958 . S
C1087 H1102 0.961 . S
C1087 H1103 0.960 . S
H1088 C1072 0.931 . S
H1089 C1077 0.929 . S
H1090 C1078 0.960 . S
H1091 C1078 0.962 . S
H1092 C1078 0.960 . S
H1093 C1079 0.961 . S
H1094 C1079 0.961 . S
H1095 C1079 0.961 . S
H1096 C1080 0.931 . S
H1097 C1085 0.930 . S
H1098 C1086 0.956 . S
H1099 C1086 0.961 . S
H1100 C1086 0.961 . S
H1101 C1087 0.958 . S
H1102 C1087 0.961 . S
H1103 C1087 0.960 . S
C1104 C1105 1.391 . S
C1104 C1106 1.394 . S
C1104 H1120 0.931 . S
C1105 C1104 1.391 . S
C1105 C1109 1.376 . S
C1106 C1104 1.394 . S
C1106 C1107 1.369 . S
C1106 C1110 1.531 . S
C1107 C1106 1.369 . S
C1107 C1108 1.410 . S
C1107 C1115 1.503 . S
C1108 C1107 1.410 . S
C1108 C1109 1.392 . S
C1108 C1111 1.511 . S
C1109 C1105 1.376 . S
C1109 C1108 1.392 . S
C1109 H1121 0.929 . S
C1110 C1106 1.531 . S
C1110 H1122 0.960 . S
C1110 H1123 0.962 1_455 S
C1110 H1124 0.960 . S
C1111 C1108 1.511 . S
C1111 H1125 0.961 . S
C1111 H1126 0.961 . S
C1111 H1127 0.961 . S
C1112 C1113 1.370 . S
C1112 C1114 1.363 . S
C1112 H1128 0.931 . S
C1113 C1112 1.370 . S
C1113 C1117 1.408 . S
C1114 C1112 1.363 . S
C1114 C1115 1.370 . S
C1114 C1118 1.524 . S
C1115 C1107 1.503 . S
C1115 C1114 1.370 . S
C1115 C1116 1.403 . S
C1116 C1115 1.403 . S
C1116 C1117 1.404 . S
C1116 C1119 1.539 . S
C1117 C1113 1.408 . S
C1117 C1116 1.404 . S
C1117 H1129 0.930 . S
C1118 C1114 1.524 . S
C1118 H1130 0.956 1_455 S
C1118 H1131 0.961 . S
C1118 H1132 0.961 . S
C1119 C1116 1.539 . S
C1119 H1133 0.958 . S
C1119 H1134 0.961 . S
C1119 H1135 0.960 . S
H1120 C1104 0.931 . S
H1121 C1109 0.929 . S
H1122 C1110 0.960 . S
H1123 C1110 0.962 1_655 S
H1124 C1110 0.960 . S
H1125 C1111 0.961 . S
H1126 C1111 0.961 . S
H1127 C1111 0.961 . S
H1128 C1112 0.931 . S
H1129 C1117 0.930 . S
H1130 C1118 0.956 1_655 S
H1131 C1118 0.961 . S
H1132 C1118 0.961 . S
H1133 C1119 0.958 . S
H1134 C1119 0.961 . S
H1135 C1119 0.960 . S
C1136 C1137 1.391 . S
C1136 C1138 1.394 . S
C1136 H1152 0.931 . S
C1137 C1136 1.391 . S
C1137 C1141 1.376 . S
C1138 C1136 1.394 . S
C1138 C1139 1.369 . S
C1138 C1142 1.531 . S
C1139 C1138 1.369 . S
C1139 C1140 1.410 . S
C1139 C1147 1.503 . S
C1140 C1139 1.410 . S
C1140 C1141 1.392 . S
C1140 C1143 1.511 . S
C1141 C1137 1.376 . S
C1141 C1140 1.392 . S
C1141 H1153 0.929 . S
C1142 C1138 1.531 . S
C1142 H1154 0.960 . S
C1142 H1155 0.962 . S
C1142 H1156 0.960 . S
C1143 C1140 1.511 . S
C1143 H1157 0.961 . S
C1143 H1158 0.961 . S
C1143 H1159 0.961 . S
C1144 C1145 1.370 . S
C1144 C1146 1.363 . S
C1144 H1160 0.931 . S
C1145 C1144 1.370 . S
C1145 C1149 1.408 . S
C1146 C1144 1.363 . S
C1146 C1147 1.370 . S
C1146 C1150 1.524 . S
C1147 C1139 1.503 . S
C1147 C1146 1.370 . S
C1147 C1148 1.403 . S
C1148 C1147 1.403 . S
C1148 C1149 1.404 . S
C1148 C1151 1.539 . S
C1149 C1145 1.408 . S
C1149 C1148 1.404 . S
C1149 H1161 0.930 . S
C1150 C1146 1.524 . S
C1150 H1162 0.956 . S
C1150 H1163 0.961 . S
C1150 H1164 0.961 . S
C1151 C1148 1.539 . S
C1151 H1165 0.958 . S
C1151 H1166 0.961 . S
C1151 H1167 0.960 . S
H1152 C1136 0.931 . S
H1153 C1141 0.929 . S
H1154 C1142 0.960 . S
H1155 C1142 0.962 . S
H1156 C1142 0.960 . S
H1157 C1143 0.961 . S
H1158 C1143 0.961 . S
H1159 C1143 0.961 . S
H1160 C1144 0.931 . S
H1161 C1149 0.930 . S
H1162 C1150 0.956 . S
H1163 C1150 0.961 . S
H1164 C1150 0.961 . S
H1165 C1151 0.958 . S
H1166 C1151 0.961 . S
H1167 C1151 0.960 . S
C1168 C1169 1.391 . S
C1168 C1170 1.394 . S
C1168 H1184 0.931 . S
C1169 C1168 1.391 . S
C1169 C1173 1.376 . S
C1170 C1168 1.394 . S
C1170 C1171 1.369 . S
C1170 C1174 1.531 . S
C1171 C1170 1.369 . S
C1171 C1172 1.410 . S
C1171 C1179 1.503 . S
C1172 C1171 1.410 . S
C1172 C1173 1.392 . S
C1172 C1175 1.511 . S
C1173 C1169 1.376 . S
C1173 C1172 1.392 . S
C1173 H1185 0.929 . S
C1174 C1170 1.531 . S
C1174 H1186 0.960 . S
C1174 H1187 0.962 . S
C1174 H1188 0.960 . S
C1175 C1172 1.511 . S
C1175 H1189 0.961 . S
C1175 H1190 0.961 . S
C1175 H1191 0.961 . S
C1176 C1177 1.370 . S
C1176 C1178 1.363 . S
C1176 H1192 0.931 . S
C1177 C1176 1.370 . S
C1177 C1181 1.408 . S
C1178 C1176 1.363 . S
C1178 C1179 1.370 . S
C1178 C1182 1.524 . S
C1179 C1171 1.503 . S
C1179 C1178 1.370 . S
C1179 C1180 1.403 . S
C1180 C1179 1.403 . S
C1180 C1181 1.404 . S
C1180 C1183 1.539 . S
C1181 C1177 1.408 . S
C1181 C1180 1.404 . S
C1181 H1193 0.930 . S
C1182 C1178 1.524 . S
C1182 H1194 0.956 . S
C1182 H1195 0.961 . S
C1182 H1196 0.961 . S
C1183 C1180 1.539 . S
C1183 H1197 0.958 . S
C1183 H1198 0.961 . S
C1183 H1199 0.960 . S
H1184 C1168 0.931 . S
H1185 C1173 0.929 . S
H1186 C1174 0.960 . S
H1187 C1174 0.962 . S
H1188 C1174 0.960 . S
H1189 C1175 0.961 . S
H1190 C1175 0.961 . S
H1191 C1175 0.961 . S
H1192 C1176 0.931 . S
H1193 C1181 0.930 . S
H1194 C1182 0.956 . S
H1195 C1182 0.961 . S
H1196 C1182 0.961 . S
H1197 C1183 0.958 . S
H1198 C1183 0.961 . S
H1199 C1183 0.960 . S
C1200 C1201 1.391 . S
C1200 C1202 1.394 . S
C1200 H1216 0.931 . S
C1201 C1200 1.391 . S
C1201 C1205 1.376 . S
C1202 C1200 1.394 . S
C1202 C1203 1.369 . S
C1202 C1206 1.531 . S
C1203 C1202 1.369 . S
C1203 C1204 1.410 . S
C1203 C1211 1.503 . S
C1204 C1203 1.410 . S
C1204 C1205 1.392 . S
C1204 C1207 1.511 . S
C1205 C1201 1.376 . S
C1205 C1204 1.392 . S
C1205 H1217 0.929 . S
C1206 C1202 1.531 . S
C1206 H1218 0.960 . S
C1206 H1219 0.962 . S
C1206 H1220 0.960 . S
C1207 C1204 1.511 . S
C1207 H1221 0.961 . S
C1207 H1222 0.961 . S
C1207 H1223 0.961 . S
C1208 C1209 1.370 . S
C1208 C1210 1.363 . S
C1208 H1224 0.931 . S
C1209 C1208 1.370 . S
C1209 C1213 1.408 . S
C1210 C1208 1.363 . S
C1210 C1211 1.370 . S
C1210 C1214 1.524 . S
C1211 C1203 1.503 . S
C1211 C1210 1.370 . S
C1211 C1212 1.403 . S
C1212 C1211 1.403 . S
C1212 C1213 1.404 . S
C1212 C1215 1.539 . S
C1213 C1209 1.408 . S
C1213 C1212 1.404 . S
C1213 H1225 0.930 . S
C1214 C1210 1.524 . S
C1214 H1226 0.956 . S
C1214 H1227 0.961 . S
C1214 H1228 0.961 . S
C1215 C1212 1.539 . S
C1215 H1229 0.958 . S
C1215 H1230 0.961 . S
C1215 H1231 0.960 . S
H1216 C1200 0.931 . S
H1217 C1205 0.929 . S
H1218 C1206 0.960 . S
H1219 C1206 0.962 . S
H1220 C1206 0.960 . S
H1221 C1207 0.961 . S
H1222 C1207 0.961 . S
H1223 C1207 0.961 . S
H1224 C1208 0.931 . S
H1225 C1213 0.930 . S
H1226 C1214 0.956 . S
H1227 C1214 0.961 . S
H1228 C1214 0.961 . S
H1229 C1215 0.958 . S
H1230 C1215 0.961 . S
H1231 C1215 0.960 . S
C1232 C1233 1.391 . S
C1232 C1234 1.394 1_655 S
C1232 H1248 0.931 1_655 S
C1233 C1232 1.391 . S
C1233 C1237 1.376 . S
C1234 C1232 1.394 1_455 S
C1234 C1235 1.369 1_455 S
C1234 C1238 1.531 . S
C1235 C1234 1.369 1_655 S
C1235 C1236 1.410 . S
C1235 C1243 1.503 . S
C1236 C1235 1.410 . S
C1236 C1237 1.392 . S
C1236 C1239 1.511 . S
C1237 C1233 1.376 . S
C1237 C1236 1.392 . S
C1237 H1249 0.929 . S
C1238 C1234 1.531 . S
C1238 H1250 0.960 . S
C1238 H1251 0.962 . S
C1238 H1252 0.960 . S
C1239 C1236 1.511 . S
C1239 H1253 0.961 . S
C1239 H1254 0.961 . S
C1239 H1255 0.961 . S
C1240 C1241 1.370 . S
C1240 C1242 1.363 . S
C1240 H1256 0.931 . S
C1241 C1240 1.370 . S
C1241 C1245 1.417 . S
C1242 C1240 1.363 . S
C1242 C1243 1.370 1_455 S
C1242 C1246 1.524 . S
C1243 C1235 1.503 . S
C1243 C1242 1.370 1_655 S
C1243 C1244 1.403 . S
C1244 C1243 1.403 . S
C1244 C1245 1.386 1_655 S
C1244 C1247 1.539 1_545 S
C1245 C1241 1.417 . S
C1245 C1244 1.386 1_455 S
C1245 H1257 0.954 1_455 S
C1246 C1242 1.524 . S
C1246 H1258 0.956 . S
C1246 H1259 0.961 1_455 S
C1246 H1260 0.961 . S
C1247 C1244 1.539 1_565 S
C1247 H1261 0.958 . S
C1247 H1262 0.961 . S
C1247 H1263 0.960 . S
H1248 C1232 0.931 1_455 S
H1249 C1237 0.929 . S
H1250 C1238 0.960 . S
H1251 C1238 0.962 . S
H1252 C1238 0.960 . S
H1253 C1239 0.961 . S
H1254 C1239 0.961 . S
H1255 C1239 0.961 . S
H1256 C1240 0.931 . S
H1257 C1245 0.954 1_655 S
H1258 C1246 0.956 . S
H1259 C1246 0.961 1_655 S
H1260 C1246 0.961 . S
H1261 C1247 0.958 . S
H1262 C1247 0.961 . S
H1263 C1247 0.960 . S
C1264 C1265 1.391 . S
C1264 C1266 1.394 . S
C1264 H1280 0.931 . S
C1265 C1264 1.391 . S
C1265 C1269 1.376 . S
C1266 C1264 1.394 . S
C1266 C1267 1.369 . S
C1266 C1270 1.531 . S
C1267 C1266 1.369 . S
C1267 C1268 1.410 . S
C1267 C1275 1.503 . S
C1268 C1267 1.410 . S
C1268 C1269 1.392 . S
C1268 C1271 1.511 . S
C1269 C1265 1.376 . S
C1269 C1268 1.392 . S
C1269 H1281 0.929 . S
C1270 C1266 1.531 . S
C1270 H1282 0.960 . S
C1270 H1283 0.962 . S
C1270 H1284 0.960 . S
C1271 C1268 1.511 . S
C1271 H1285 0.961 . S
C1271 H1286 0.961 . S
C1271 H1287 0.961 . S
C1272 C1273 1.370 . S
C1272 C1274 1.363 . S
C1272 H1288 0.931 . S
C1273 C1272 1.370 . S
C1273 C1277 1.408 . S
C1274 C1272 1.363 . S
C1274 C1275 1.370 . S
C1274 C1278 1.524 . S
C1275 C1267 1.503 . S
C1275 C1274 1.370 . S
C1275 C1276 1.403 . S
C1276 C1275 1.403 . S
C1276 C1277 1.404 . S
C1276 C1279 1.539 . S
C1277 C1273 1.408 . S
C1277 C1276 1.404 . S
C1277 H1289 0.930 . S
C1278 C1274 1.524 . S
C1278 H1290 0.956 . S
C1278 H1291 0.961 . S
C1278 H1292 0.961 . S
C1279 C1276 1.539 . S
C1279 H1293 0.958 . S
C1279 H1294 0.961 . S
C1279 H1295 0.960 . S
H1280 C1264 0.931 . S
H1281 C1269 0.929 . S
H1282 C1270 0.960 . S
H1283 C1270 0.962 . S
H1284 C1270 0.960 . S
H1285 C1271 0.961 . S
H1286 C1271 0.961 . S
H1287 C1271 0.961 . S
H1288 C1272 0.931 . S
H1289 C1277 0.930 . S
H1290 C1278 0.956 . S
H1291 C1278 0.961 . S
H1292 C1278 0.961 . S
H1293 C1279 0.958 . S
H1294 C1279 0.961 . S
H1295 C1279 0.960 . S
C1296 C1297 1.391 . S
C1296 C1298 1.394 . S
C1296 H1312 0.931 . S
C1297 C1296 1.391 . S
C1297 C1301 1.376 . S
C1298 C1296 1.394 . S
C1298 C1299 1.369 . S
C1298 C1302 1.531 . S
C1299 C1298 1.369 . S
C1299 C1300 1.410 . S
C1299 C1307 1.503 . S
C1300 C1299 1.410 . S
C1300 C1301 1.392 . S
C1300 C1303 1.511 . S
C1301 C1297 1.376 . S
C1301 C1300 1.392 . S
C1301 H1313 0.929 . S
C1302 C1298 1.531 . S
C1302 H1314 0.960 . S
C1302 H1315 0.962 . S
C1302 H1316 0.960 . S
C1303 C1300 1.511 . S
C1303 H1317 0.961 . S
C1303 H1318 0.961 . S
C1303 H1319 0.961 . S
C1304 C1305 1.370 . S
C1304 C1306 1.363 . S
C1304 H1320 0.931 . S
C1305 C1304 1.370 . S
C1305 C1309 1.408 . S
C1306 C1304 1.363 . S
C1306 C1307 1.370 . S
C1306 C1310 1.524 . S
C1307 C1299 1.503 . S
C1307 C1306 1.370 . S
C1307 C1308 1.403 . S
C1308 C1307 1.403 . S
C1308 C1309 1.404 . S
C1308 C1311 1.539 . S
C1309 C1305 1.408 . S
C1309 C1308 1.404 . S
C1309 H1321 0.930 . S
C1310 C1306 1.524 . S
C1310 H1322 0.956 . S
C1310 H1323 0.961 . S
C1310 H1324 0.961 . S
C1311 C1308 1.539 . S
C1311 H1325 0.958 . S
C1311 H1326 0.961 . S
C1311 H1327 0.960 . S
H1312 C1296 0.931 . S
H1313 C1301 0.929 . S
H1314 C1302 0.960 . S
H1315 C1302 0.962 . S
H1316 C1302 0.960 . S
H1317 C1303 0.961 . S
H1318 C1303 0.961 . S
H1319 C1303 0.961 . S
H1320 C1304 0.931 . S
H1321 C1309 0.930 . S
H1322 C1310 0.956 . S
H1323 C1310 0.961 . S
H1324 C1310 0.961 . S
H1325 C1311 0.958 . S
H1326 C1311 0.961 . S
H1327 C1311 0.960 . S
C1328 C1329 1.391 . S
C1328 C1330 1.394 . S
C1328 H1344 0.931 . S
C1329 C1328 1.391 . S
C1329 C1333 1.376 . S
C1330 C1328 1.394 . S
C1330 C1331 1.369 . S
C1330 C1334 1.531 . S
C1331 C1330 1.369 . S
C1331 C1332 1.410 . S
C1331 C1339 1.503 . S
C1332 C1331 1.410 . S
C1332 C1333 1.392 . S
C1332 C1335 1.511 . S
C1333 C1329 1.376 . S
C1333 C1332 1.392 . S
C1333 H1345 0.929 . S
C1334 C1330 1.531 . S
C1334 H1346 0.960 . S
C1334 H1347 0.962 . S
C1334 H1348 0.960 . S
C1335 C1332 1.511 . S
C1335 H1349 0.961 . S
C1335 H1350 0.961 . S
C1335 H1351 0.961 . S
C1336 C1337 1.370 . S
C1336 C1338 1.363 . S
C1336 H1352 0.931 . S
C1337 C1336 1.370 . S
C1337 C1341 1.408 . S
C1338 C1336 1.363 . S
C1338 C1339 1.370 . S
C1338 C1342 1.524 . S
C1339 C1331 1.503 . S
C1339 C1338 1.370 . S
C1339 C1340 1.403 . S
C1340 C1339 1.403 . S
C1340 C1341 1.404 . S
C1340 C1343 1.539 . S
C1341 C1337 1.408 . S
C1341 C1340 1.404 . S
C1341 H1353 0.930 . S
C1342 C1338 1.524 . S
C1342 H1354 0.956 . S
C1342 H1355 0.961 . S
C1342 H1356 0.961 . S
C1343 C1340 1.539 . S
C1343 H1357 0.958 . S
C1343 H1358 0.961 . S
C1343 H1359 0.960 . S
H1344 C1328 0.931 . S
H1345 C1333 0.929 . S
H1346 C1334 0.960 . S
H1347 C1334 0.962 . S
H1348 C1334 0.960 . S
H1349 C1335 0.961 . S
H1350 C1335 0.961 . S
H1351 C1335 0.961 . S
H1352 C1336 0.931 . S
H1353 C1341 0.930 . S
H1354 C1342 0.956 . S
H1355 C1342 0.961 . S
H1356 C1342 0.961 . S
H1357 C1343 0.958 . S
H1358 C1343 0.961 . S
H1359 C1343 0.960 . S
C1360 C1361 1.391 . S
C1360 C1362 1.394 1_655 S
C1360 H1376 0.931 1_655 S
C1361 C1360 1.391 . S
C1361 C1365 1.376 . S
C1362 C1360 1.394 1_455 S
C1362 C1363 1.369 1_455 S
C1362 C1366 1.531 . S
C1363 C1362 1.369 1_655 S
C1363 C1364 1.410 . S
C1363 C1371 1.503 . S
C1364 C1363 1.410 . S
C1364 C1365 1.392 . S
C1364 C1367 1.511 . S
C1365 C1361 1.376 . S
C1365 C1364 1.392 . S
C1365 H1377 0.929 . S
C1366 C1362 1.531 . S
C1366 H1378 0.960 . S
C1366 H1379 0.962 . S
C1366 H1380 0.960 . S
C1367 C1364 1.511 . S
C1367 H1381 0.961 . S
C1367 H1382 0.961 . S
C1367 H1383 0.961 . S
C1368 C1369 1.370 1_655 S
C1368 C1370 1.363 . S
C1368 H1384 0.931 . S
C1369 C1368 1.370 1_455 S
C1369 C1373 1.408 . S
C1370 C1368 1.363 . S
C1370 C1371 1.370 . S
C1370 C1374 1.524 1_545 S
C1371 C1363 1.503 . S
C1371 C1370 1.370 . S
C1371 C1372 1.403 1_655 S
C1372 C1371 1.403 1_455 S
C1372 C1373 1.404 . S
C1372 C1375 1.539 . S
C1373 C1369 1.408 . S
C1373 C1372 1.404 . S
C1373 H1385 0.930 . S
C1374 C1370 1.524 1_565 S
C1374 H1386 0.956 . S
C1374 H1387 0.961 1_565 S
C1374 H1388 0.961 . S
C1375 C1372 1.539 . S
C1375 H1389 0.958 . S
C1375 H1390 0.961 . S
C1375 H1391 0.960 . S
H1376 C1360 0.931 1_455 S
H1377 C1365 0.929 . S
H1378 C1366 0.960 . S
H1379 C1366 0.962 . S
H1380 C1366 0.960 . S
H1381 C1367 0.961 . S
H1382 C1367 0.961 . S
H1383 C1367 0.961 . S
H1384 C1368 0.931 . S
H1385 C1373 0.930 . S
H1386 C1374 0.956 . S
H1387 C1374 0.961 1_545 S
H1388 C1374 0.961 . S
H1389 C1375 0.958 . S
H1390 C1375 0.961 . S
H1391 C1375 0.960 . S
C1392 C1393 1.391 . S
C1392 C1394 1.394 . S
C1392 H1408 0.931 . S
C1393 C1392 1.391 . S
C1393 C1397 1.376 . S
C1394 C1392 1.394 . S
C1394 C1395 1.369 . S
C1394 C1398 1.531 . S
C1395 C1394 1.369 . S
C1395 C1396 1.410 . S
C1395 C1403 1.503 . S
C1396 C1395 1.410 . S
C1396 C1397 1.392 . S
C1396 C1399 1.511 . S
C1397 C1393 1.376 . S
C1397 C1396 1.392 . S
C1397 H1409 0.929 . S
C1398 C1394 1.531 . S
C1398 H1410 0.960 . S
C1398 H1411 0.962 . S
C1398 H1412 0.960 . S
C1399 C1396 1.511 . S
C1399 H1413 0.961 . S
C1399 H1414 0.961 . S
C1399 H1415 0.961 . S
C1400 C1401 1.370 . S
C1400 C1402 1.363 . S
C1400 H1416 0.931 . S
C1401 C1400 1.370 . S
C1401 C1405 1.408 . S
C1402 C1400 1.363 . S
C1402 C1403 1.370 . S
C1402 C1406 1.524 . S
C1403 C1395 1.503 . S
C1403 C1402 1.370 . S
C1403 C1404 1.403 . S
C1404 C1403 1.403 . S
C1404 C1405 1.404 . S
C1404 C1407 1.539 . S
C1405 C1401 1.408 . S
C1405 C1404 1.404 . S
C1405 H1417 0.930 . S
C1406 C1402 1.524 . S
C1406 H1418 0.956 . S
C1406 H1419 0.961 . S
C1406 H1420 0.961 . S
C1407 C1404 1.539 . S
C1407 H1421 0.958 . S
C1407 H1422 0.961 . S
C1407 H1423 0.960 . S
H1408 C1392 0.931 . S
H1409 C1397 0.929 . S
H1410 C1398 0.960 . S
H1411 C1398 0.962 . S
H1412 C1398 0.960 . S
H1413 C1399 0.961 . S
H1414 C1399 0.961 . S
H1415 C1399 0.961 . S
H1416 C1400 0.931 . S
H1417 C1405 0.930 . S
H1418 C1406 0.956 . S
H1419 C1406 0.961 . S
H1420 C1406 0.961 . S
H1421 C1407 0.958 . S
H1422 C1407 0.961 . S
H1423 C1407 0.960 . S
C1424 C1425 1.391 . S
C1424 C1426 1.394 . S
C1424 H1440 0.931 . S
C1425 C1424 1.391 . S
C1425 C1429 1.376 . S
C1426 C1424 1.394 . S
C1426 C1427 1.369 . S
C1426 C1430 1.531 . S
C1427 C1426 1.369 . S
C1427 C1428 1.410 . S
C1427 C1435 1.503 . S
C1428 C1427 1.410 . S
C1428 C1429 1.392 . S
C1428 C1431 1.511 . S
C1429 C1425 1.376 . S
C1429 C1428 1.392 . S
C1429 H1441 0.929 . S
C1430 C1426 1.531 . S
C1430 H1442 0.960 . S
C1430 H1443 0.962 . S
C1430 H1444 0.960 . S
C1431 C1428 1.511 . S
C1431 H1445 0.961 . S
C1431 H1446 0.961 . S
C1431 H1447 0.961 . S
C1432 C1433 1.370 . S
C1432 C1434 1.363 . S
C1432 H1448 0.931 . S
C1433 C1432 1.370 . S
C1433 C1437 1.408 . S
C1434 C1432 1.363 . S
C1434 C1435 1.370 . S
C1434 C1438 1.524 . S
C1435 C1427 1.503 . S
C1435 C1434 1.370 . S
C1435 C1436 1.403 . S
C1436 C1435 1.403 . S
C1436 C1437 1.404 . S
C1436 C1439 1.539 . S
C1437 C1433 1.408 . S
C1437 C1436 1.404 . S
C1437 H1449 0.930 . S
C1438 C1434 1.524 . S
C1438 H1450 0.956 . S
C1438 H1451 0.961 . S
C1438 H1452 0.961 . S
C1439 C1436 1.539 . S
C1439 H1453 0.958 . S
C1439 H1454 0.961 . S
C1439 H1455 0.960 . S
H1440 C1424 0.931 . S
H1441 C1429 0.929 . S
H1442 C1430 0.960 . S
H1443 C1430 0.962 . S
H1444 C1430 0.960 . S
H1445 C1431 0.961 . S
H1446 C1431 0.961 . S
H1447 C1431 0.961 . S
H1448 C1432 0.931 . S
H1449 C1437 0.930 . S
H1450 C1438 0.956 . S
H1451 C1438 0.961 . S
H1452 C1438 0.961 . S
H1453 C1439 0.958 . S
H1454 C1439 0.961 . S
H1455 C1439 0.960 . S
C1456 C1457 1.391 . S
C1456 C1458 1.394 . S
C1456 H1472 0.931 . S
C1457 C1456 1.391 . S
C1457 C1461 1.376 . S
C1458 C1456 1.394 . S
C1458 C1459 1.369 . S
C1458 C1462 1.531 . S
C1459 C1458 1.369 . S
C1459 C1460 1.410 . S
C1459 C1467 1.503 . S
C1460 C1459 1.410 . S
C1460 C1461 1.392 . S
C1460 C1463 1.511 . S
C1461 C1457 1.376 . S
C1461 C1460 1.392 . S
C1461 H1473 0.929 . S
C1462 C1458 1.531 . S
C1462 H1474 0.960 . S
C1462 H1475 0.962 . S
C1462 H1476 0.960 . S
C1463 C1460 1.511 . S
C1463 H1477 0.961 . S
C1463 H1478 0.961 . S
C1463 H1479 0.961 . S
C1464 C1465 1.370 . S
C1464 C1466 1.363 . S
C1464 H1480 0.931 . S
C1465 C1464 1.370 . S
C1465 C1469 1.408 . S
C1466 C1464 1.363 . S
C1466 C1467 1.370 . S
C1466 C1470 1.524 . S
C1467 C1459 1.503 . S
C1467 C1466 1.370 . S
C1467 C1468 1.403 . S
C1468 C1467 1.403 . S
C1468 C1469 1.404 . S
C1468 C1471 1.539 . S
C1469 C1465 1.408 . S
C1469 C1468 1.404 . S
C1469 H1481 0.930 . S
C1470 C1466 1.524 . S
C1470 H1482 0.956 . S
C1470 H1483 0.961 . S
C1470 H1484 0.961 . S
C1471 C1468 1.539 . S
C1471 H1485 0.958 . S
C1471 H1486 0.961 . S
C1471 H1487 0.960 . S
H1472 C1456 0.931 . S
H1473 C1461 0.929 . S
H1474 C1462 0.960 . S
H1475 C1462 0.962 . S
H1476 C1462 0.960 . S
H1477 C1463 0.961 . S
H1478 C1463 0.961 . S
H1479 C1463 0.961 . S
H1480 C1464 0.931 . S
H1481 C1469 0.930 . S
H1482 C1470 0.956 . S
H1483 C1470 0.961 . S
H1484 C1470 0.961 . S
H1485 C1471 0.958 . S
H1486 C1471 0.961 . S
H1487 C1471 0.960 . S
C1488 C1489 1.404 . S
C1488 C1490 1.394 . S
C1488 H1504 0.931 . S
C1489 C1488 1.404 . S
C1489 C1493 1.347 1_556 S
C1490 C1488 1.394 . S
C1490 C1491 1.369 1_556 S
C1490 C1494 1.531 . S
C1491 C1490 1.369 1_554 S
C1491 C1492 1.410 . S
C1491 C1499 1.503 . S
C1492 C1491 1.410 . S
C1492 C1493 1.392 . S
C1492 C1495 1.511 . S
C1493 C1489 1.347 1_554 S
C1493 C1492 1.392 . S
C1493 H1505 0.929 . S
C1494 C1490 1.531 . S
C1494 H1506 0.960 . S
C1494 H1507 0.962 . S
C1494 H1508 0.960 . S
C1495 C1492 1.511 . S
C1495 H1509 0.961 . S
C1495 H1510 0.961 1_565 S
C1495 H1511 0.961 . S
C1496 C1497 1.370 . S
C1496 C1498 1.363 . S
C1496 H1512 0.931 . S
C1497 C1496 1.370 . S
C1497 C1501 1.408 1_545 S
C1498 C1496 1.363 . S
C1498 C1499 1.370 1_545 S
C1498 C1502 1.524 . S
C1499 C1491 1.503 . S
C1499 C1498 1.370 1_565 S
C1499 C1500 1.403 . S
C1500 C1499 1.403 . S
C1500 C1501 1.404 . S
C1500 C1503 1.539 . S
C1501 C1497 1.408 1_565 S
C1501 C1500 1.404 . S
C1501 H1513 0.930 . S
C1502 C1498 1.524 . S
C1502 H1514 0.956 1_554 S
C1502 H1515 0.961 . S
C1502 H1516 0.961 . S
C1503 C1500 1.539 . S
C1503 H1517 0.958 . S
C1503 H1518 0.961 . S
C1503 H1519 0.960 . S
H1504 C1488 0.931 . S
H1505 C1493 0.929 . S
H1506 C1494 0.960 . S
H1507 C1494 0.962 . S
H1508 C1494 0.960 . S
H1509 C1495 0.961 . S
H1510 C1495 0.961 1_545 S
H1511 C1495 0.961 . S
H1512 C1496 0.931 . S
H1513 C1501 0.930 . S
H1514 C1502 0.956 1_556 S
H1515 C1502 0.961 . S
H1516 C1502 0.961 . S
H1517 C1503 0.958 . S
H1518 C1503 0.961 . S
H1519 C1503 0.960 . S
C1520 C1521 1.391 . S
C1520 C1522 1.394 . S
C1520 H1536 0.931 . S
C1521 C1520 1.391 . S
C1521 C1525 1.376 . S
C1522 C1520 1.394 . S
C1522 C1523 1.369 . S
C1522 C1526 1.531 . S
C1523 C1522 1.369 . S
C1523 C1524 1.410 . S
C1523 C1531 1.503 . S
C1524 C1523 1.410 . S
C1524 C1525 1.392 . S
C1524 C1527 1.511 1_554 S
C1525 C1521 1.376 . S
C1525 C1524 1.392 . S
C1525 H1537 0.929 1_554 S
C1526 C1522 1.531 . S
C1526 H1538 0.960 . S
C1526 H1539 0.962 . S
C1526 H1540 0.960 . S
C1527 C1524 1.511 1_556 S
C1527 H1541 0.961 . S
C1527 H1542 0.961 . S
C1527 H1543 0.961 1_556 S
C1528 C1529 1.370 . S
C1528 C1530 1.363 . S
C1528 H1544 0.931 1_554 S
C1529 C1528 1.370 . S
C1529 C1533 1.408 . S
C1530 C1528 1.363 . S
C1530 C1531 1.370 . S
C1530 C1534 1.524 1_554 S
C1531 C1523 1.503 . S
C1531 C1530 1.370 . S
C1531 C1532 1.403 . S
C1532 C1531 1.403 . S
C1532 C1533 1.404 . S
C1532 C1535 1.539 . S
C1533 C1529 1.408 . S
C1533 C1532 1.404 . S
C1533 H1545 0.930 . S
C1534 C1530 1.524 1_556 S
C1534 H1546 0.956 1_556 S
C1534 H1547 0.961 . S
C1534 H1548 0.961 . S
C1535 C1532 1.539 . S
C1535 H1549 0.958 . S
C1535 H1550 0.961 . S
C1535 H1551 0.960 . S
H1536 C1520 0.931 . S
H1537 C1525 0.929 1_556 S
H1538 C1526 0.960 . S
H1539 C1526 0.962 . S
H1540 C1526 0.960 . S
H1541 C1527 0.961 . S
H1542 C1527 0.961 . S
H1543 C1527 0.961 1_554 S
H1544 C1528 0.931 1_556 S
H1545 C1533 0.930 . S
H1546 C1534 0.956 1_554 S
H1547 C1534 0.961 . S
H1548 C1534 0.961 . S
H1549 C1535 0.958 . S
H1550 C1535 0.961 . S
H1551 C1535 0.960 . S
C1552 C1553 1.391 . S
C1552 C1554 1.394 . S
C1552 H1568 0.931 . S
C1553 C1552 1.391 . S
C1553 C1557 1.376 . S
C1554 C1552 1.394 . S
C1554 C1555 1.369 . S
C1554 C1558 1.531 . S
C1555 C1554 1.369 . S
C1555 C1556 1.410 . S
C1555 C1563 1.503 . S
C1556 C1555 1.410 . S
C1556 C1557 1.392 . S
C1556 C1559 1.511 . S
C1557 C1553 1.376 . S
C1557 C1556 1.392 . S
C1557 H1569 0.929 . S
C1558 C1554 1.531 . S
C1558 H1570 0.960 . S
C1558 H1571 0.962 . S
C1558 H1572 0.960 . S
C1559 C1556 1.511 . S
C1559 H1573 0.961 . S
C1559 H1574 0.961 . S
C1559 H1575 0.961 . S
C1560 C1561 1.370 . S
C1560 C1562 1.363 . S
C1560 H1576 0.931 . S
C1561 C1560 1.370 . S
C1561 C1565 1.408 . S
C1562 C1560 1.363 . S
C1562 C1563 1.370 . S
C1562 C1566 1.524 . S
C1563 C1555 1.503 . S
C1563 C1562 1.370 . S
C1563 C1564 1.403 . S
C1564 C1563 1.403 . S
C1564 C1565 1.404 . S
C1564 C1567 1.539 . S
C1565 C1561 1.408 . S
C1565 C1564 1.404 . S
C1565 H1577 0.930 . S
C1566 C1562 1.524 . S
C1566 H1578 0.956 . S
C1566 H1579 0.961 . S
C1566 H1580 0.961 . S
C1567 C1564 1.539 . S
C1567 H1581 0.958 . S
C1567 H1582 0.961 . S
C1567 H1583 0.960 . S
H1568 C1552 0.931 . S
H1569 C1557 0.929 . S
H1570 C1558 0.960 . S
H1571 C1558 0.962 . S
H1572 C1558 0.960 . S
H1573 C1559 0.961 . S
H1574 C1559 0.961 . S
H1575 C1559 0.961 . S
H1576 C1560 0.931 . S
H1577 C1565 0.930 . S
H1578 C1566 0.956 . S
H1579 C1566 0.961 . S
H1580 C1566 0.961 . S
H1581 C1567 0.958 . S
H1582 C1567 0.961 . S
H1583 C1567 0.960 . S
C1584 C1585 1.391 . S
C1584 C1586 1.394 . S
C1584 H1600 0.931 . S
C1585 C1584 1.391 . S
C1585 C1589 1.376 . S
C1586 C1584 1.394 . S
C1586 C1587 1.369 . S
C1586 C1590 1.531 . S
C1587 C1586 1.369 . S
C1587 C1588 1.410 . S
C1587 C1595 1.503 . S
C1588 C1587 1.410 . S
C1588 C1589 1.392 . S
C1588 C1591 1.511 . S
C1589 C1585 1.376 . S
C1589 C1588 1.392 . S
C1589 H1601 0.929 . S
C1590 C1586 1.531 . S
C1590 H1602 0.960 . S
C1590 H1603 0.962 . S
C1590 H1604 0.960 . S
C1591 C1588 1.511 . S
C1591 H1605 0.961 . S
C1591 H1606 0.961 . S
C1591 H1607 0.961 . S
C1592 C1593 1.370 . S
C1592 C1594 1.363 . S
C1592 H1608 0.931 . S
C1593 C1592 1.370 . S
C1593 C1597 1.408 . S
C1594 C1592 1.363 . S
C1594 C1595 1.370 . S
C1594 C1598 1.524 . S
C1595 C1587 1.503 . S
C1595 C1594 1.370 . S
C1595 C1596 1.403 . S
C1596 C1595 1.403 . S
C1596 C1597 1.404 . S
C1596 C1599 1.539 . S
C1597 C1593 1.408 . S
C1597 C1596 1.404 . S
C1597 H1609 0.930 . S
C1598 C1594 1.524 . S
C1598 H1610 0.956 . S
C1598 H1611 0.961 . S
C1598 H1612 0.961 . S
C1599 C1596 1.539 . S
C1599 H1613 0.958 . S
C1599 H1614 0.961 . S
C1599 H1615 0.960 . S
H1600 C1584 0.931 . S
H1601 C1589 0.929 . S
H1602 C1590 0.960 . S
H1603 C1590 0.962 . S
H1604 C1590 0.960 . S
H1605 C1591 0.961 . S
H1606 C1591 0.961 . S
H1607 C1591 0.961 . S
H1608 C1592 0.931 . S
H1609 C1597 0.930 . S
H1610 C1598 0.956 . S
H1611 C1598 0.961 . S
H1612 C1598 0.961 . S
H1613 C1599 0.958 . S
H1614 C1599 0.961 . S
H1615 C1599 0.960 . S
C1616 C1617 1.391 . S
C1616 C1618 1.394 . S
C1616 H1632 0.931 . S
C1617 C1616 1.391 . S
C1617 C1621 1.376 . S
C1618 C1616 1.394 . S
C1618 C1619 1.369 . S
C1618 C1622 1.531 . S
C1619 C1618 1.369 . S
C1619 C1620 1.410 . S
C1619 C1627 1.503 . S
C1620 C1619 1.410 . S
C1620 C1621 1.392 . S
C1620 C1623 1.511 . S
C1621 C1617 1.376 . S
C1621 C1620 1.392 . S
C1621 H1633 0.929 . S
C1622 C1618 1.531 . S
C1622 H1634 0.960 . S
C1622 H1635 0.962 . S
C1622 H1636 0.960 . S
C1623 C1620 1.511 . S
C1623 H1637 0.961 . S
C1623 H1638 0.961 . S
C1623 H1639 0.961 . S
C1624 C1625 1.370 . S
C1624 C1626 1.363 . S
C1624 H1640 0.931 . S
C1625 C1624 1.370 . S
C1625 C1629 1.408 . S
C1626 C1624 1.363 . S
C1626 C1627 1.370 . S
C1626 C1630 1.524 . S
C1627 C1619 1.503 . S
C1627 C1626 1.370 . S
C1627 C1628 1.403 . S
C1628 C1627 1.403 . S
C1628 C1629 1.404 . S
C1628 C1631 1.539 . S
C1629 C1625 1.408 . S
C1629 C1628 1.404 . S
C1629 H1641 0.930 . S
C1630 C1626 1.524 . S
C1630 H1642 0.956 . S
C1630 H1643 0.961 . S
C1630 H1644 0.961 . S
C1631 C1628 1.539 . S
C1631 H1645 0.958 . S
C1631 H1646 0.961 . S
C1631 H1647 0.960 . S
H1632 C1616 0.931 . S
H1633 C1621 0.929 . S
H1634 C1622 0.960 . S
H1635 C1622 0.962 . S
H1636 C1622 0.960 . S
H1637 C1623 0.961 . S
H1638 C1623 0.961 . S
H1639 C1623 0.961 . S
H1640 C1624 0.931 . S
H1641 C1629 0.930 . S
H1642 C1630 0.956 . S
H1643 C1630 0.961 . S
H1644 C1630 0.961 . S
H1645 C1631 0.958 . S
H1646 C1631 0.961 . S
H1647 C1631 0.960 . S
C1648 C1649 1.391 . S
C1648 C1650 1.394 . S
C1648 H1664 0.931 . S
C1649 C1648 1.391 . S
C1649 C1653 1.376 . S
C1650 C1648 1.394 . S
C1650 C1651 1.369 . S
C1650 C1654 1.531 . S
C1651 C1650 1.369 . S
C1651 C1652 1.410 . S
C1651 C1659 1.503 . S
C1652 C1651 1.410 . S
C1652 C1653 1.392 . S
C1652 C1655 1.511 . S
C1653 C1649 1.376 . S
C1653 C1652 1.392 . S
C1653 H1665 0.929 . S
C1654 C1650 1.531 . S
C1654 H1666 0.960 . S
C1654 H1667 0.962 . S
C1654 H1668 0.960 . S
C1655 C1652 1.511 . S
C1655 H1669 0.961 . S
C1655 H1670 0.961 . S
C1655 H1671 0.961 . S
C1656 C1657 1.370 . S
C1656 C1658 1.363 . S
C1656 H1672 0.931 . S
C1657 C1656 1.370 . S
C1657 C1661 1.408 . S
C1658 C1656 1.363 . S
C1658 C1659 1.370 . S
C1658 C1662 1.524 . S
C1659 C1651 1.503 . S
C1659 C1658 1.370 . S
C1659 C1660 1.403 . S
C1660 C1659 1.403 . S
C1660 C1661 1.404 . S
C1660 C1663 1.539 . S
C1661 C1657 1.408 . S
C1661 C1660 1.404 . S
C1661 H1673 0.930 . S
C1662 C1658 1.524 . S
C1662 H1674 0.956 . S
C1662 H1675 0.961 . S
C1662 H1676 0.961 . S
C1663 C1660 1.539 . S
C1663 H1677 0.958 . S
C1663 H1678 0.961 . S
C1663 H1679 0.960 . S
H1664 C1648 0.931 . S
H1665 C1653 0.929 . S
H1666 C1654 0.960 . S
H1667 C1654 0.962 . S
H1668 C1654 0.960 . S
H1669 C1655 0.961 . S
H1670 C1655 0.961 . S
H1671 C1655 0.961 . S
H1672 C1656 0.931 . S
H1673 C1661 0.930 . S
H1674 C1662 0.956 . S
H1675 C1662 0.961 . S
H1676 C1662 0.961 . S
H1677 C1663 0.958 . S
H1678 C1663 0.961 . S
H1679 C1663 0.960 . S
C1680 C1681 1.391 . S
C1680 C1682 1.394 . S
C1680 H1696 0.931 . S
C1681 C1680 1.391 . S
C1681 C1685 1.376 . S
C1682 C1680 1.394 . S
C1682 C1683 1.369 . S
C1682 C1686 1.531 . S
C1683 C1682 1.369 . S
C1683 C1684 1.410 . S
C1683 C1691 1.503 . S
C1684 C1683 1.410 . S
C1684 C1685 1.392 . S
C1684 C1687 1.511 . S
C1685 C1681 1.376 . S
C1685 C1684 1.392 . S
C1685 H1697 0.929 . S
C1686 C1682 1.531 . S
C1686 H1698 0.960 . S
C1686 H1699 0.962 . S
C1686 H1700 0.960 . S
C1687 C1684 1.511 . S
C1687 H1701 0.961 . S
C1687 H1702 0.961 . S
C1687 H1703 0.961 . S
C1688 C1689 1.370 . S
C1688 C1690 1.363 . S
C1688 H1704 0.931 . S
C1689 C1688 1.370 . S
C1689 C1693 1.408 . S
C1690 C1688 1.363 . S
C1690 C1691 1.370 . S
C1690 C1694 1.524 . S
C1691 C1683 1.503 . S
C1691 C1690 1.370 . S
C1691 C1692 1.403 . S
C1692 C1691 1.403 . S
C1692 C1693 1.404 . S
C1692 C1695 1.539 . S
C1693 C1689 1.408 . S
C1693 C1692 1.404 . S
C1693 H1705 0.930 . S
C1694 C1690 1.524 . S
C1694 H1706 0.956 . S
C1694 H1707 0.961 . S
C1694 H1708 0.961 . S
C1695 C1692 1.539 . S
C1695 H1709 0.958 . S
C1695 H1710 0.961 . S
C1695 H1711 0.960 . S
H1696 C1680 0.931 . S
H1697 C1685 0.929 . S
H1698 C1686 0.960 . S
H1699 C1686 0.962 . S
H1700 C1686 0.960 . S
H1701 C1687 0.961 . S
H1702 C1687 0.961 . S
H1703 C1687 0.961 . S
H1704 C1688 0.931 . S
H1705 C1693 0.930 . S
H1706 C1694 0.956 . S
H1707 C1694 0.961 . S
H1708 C1694 0.961 . S
H1709 C1695 0.958 . S
H1710 C1695 0.961 . S
H1711 C1695 0.960 . S
C1712 C1713 1.391 . S
C1712 C1714 1.394 . S
C1712 H1728 0.931 . S
C1713 C1712 1.391 . S
C1713 C1717 1.376 . S
C1714 C1712 1.394 . S
C1714 C1715 1.369 . S
C1714 C1718 1.531 . S
C1715 C1714 1.369 . S
C1715 C1716 1.410 . S
C1715 C1723 1.503 . S
C1716 C1715 1.410 . S
C1716 C1717 1.392 . S
C1716 C1719 1.511 . S
C1717 C1713 1.376 . S
C1717 C1716 1.392 . S
C1717 H1729 0.929 . S
C1718 C1714 1.531 . S
C1718 H1730 0.960 . S
C1718 H1731 0.962 . S
C1718 H1732 0.960 . S
C1719 C1716 1.511 . S
C1719 H1733 0.961 . S
C1719 H1734 0.961 . S
C1719 H1735 0.961 . S
C1720 C1721 1.370 . S
C1720 C1722 1.363 . S
C1720 H1736 0.931 . S
C1721 C1720 1.370 . S
C1721 C1725 1.408 . S
C1722 C1720 1.363 . S
C1722 C1723 1.370 . S
C1722 C1726 1.524 . S
C1723 C1715 1.503 . S
C1723 C1722 1.370 . S
C1723 C1724 1.403 . S
C1724 C1723 1.403 . S
C1724 C1725 1.404 . S
C1724 C1727 1.539 . S
C1725 C1721 1.408 . S
C1725 C1724 1.404 . S
C1725 H1737 0.930 . S
C1726 C1722 1.524 . S
C1726 H1738 0.956 . S
C1726 H1739 0.961 . S
C1726 H1740 0.961 . S
C1727 C1724 1.539 . S
C1727 H1741 0.958 . S
C1727 H1742 0.961 . S
C1727 H1743 0.960 . S
H1728 C1712 0.931 . S
H1729 C1717 0.929 . S
H1730 C1718 0.960 . S
H1731 C1718 0.962 . S
H1732 C1718 0.960 . S
H1733 C1719 0.961 . S
H1734 C1719 0.961 . S
H1735 C1719 0.961 . S
H1736 C1720 0.931 . S
H1737 C1725 0.930 . S
H1738 C1726 0.956 . S
H1739 C1726 0.961 . S
H1740 C1726 0.961 . S
H1741 C1727 0.958 . S
H1742 C1727 0.961 . S
H1743 C1727 0.960 . S
C1744 C1745 1.391 . S
C1744 C1746 1.394 . S
C1744 H1760 0.931 . S
C1745 C1744 1.391 . S
C1745 C1749 1.376 . S
C1746 C1744 1.394 . S
C1746 C1747 1.369 . S
C1746 C1750 1.531 . S
C1747 C1746 1.369 . S
C1747 C1748 1.410 . S
C1747 C1755 1.503 . S
C1748 C1747 1.410 . S
C1748 C1749 1.392 . S
C1748 C1751 1.511 . S
C1749 C1745 1.376 . S
C1749 C1748 1.392 . S
C1749 H1761 0.929 . S
C1750 C1746 1.531 . S
C1750 H1762 0.960 . S
C1750 H1763 0.962 . S
C1750 H1764 0.960 . S
C1751 C1748 1.511 . S
C1751 H1765 0.956 1_554 S
C1751 H1766 0.961 . S
C1751 H1767 0.961 1_554 S
C1752 C1753 1.370 . S
C1752 C1754 1.363 . S
C1752 H1768 0.931 . S
C1753 C1752 1.370 . S
C1753 C1757 1.408 . S
C1754 C1752 1.363 . S
C1754 C1755 1.370 . S
C1754 C1758 1.524 . S
C1755 C1747 1.503 . S
C1755 C1754 1.370 . S
C1755 C1756 1.403 . S
C1756 C1755 1.403 . S
C1756 C1757 1.404 . S
C1756 C1759 1.539 . S
C1757 C1753 1.408 . S
C1757 C1756 1.404 . S
C1757 H1769 0.930 . S
C1758 C1754 1.524 . S
C1758 H1770 0.956 . S
C1758 H1771 0.961 . S
C1758 H1772 0.961 1_455 S
C1759 C1756 1.539 . S
C1759 H1773 0.958 . S
C1759 H1774 0.961 . S
C1759 H1775 0.960 . S
H1760 C1744 0.931 . S
H1761 C1749 0.929 . S
H1762 C1750 0.960 . S
H1763 C1750 0.962 . S
H1764 C1750 0.960 . S
H1765 C1751 0.956 1_556 S
H1766 C1751 0.961 . S
H1767 C1751 0.961 1_556 S
H1768 C1752 0.931 . S
H1769 C1757 0.930 . S
H1770 C1758 0.956 . S
H1771 C1758 0.961 . S
H1772 C1758 0.961 1_655 S
H1773 C1759 0.958 . S
H1774 C1759 0.961 . S
H1775 C1759 0.960 . S
C1776 C1777 1.391 . S
C1776 C1778 1.394 . S
C1776 H1792 0.931 . S
C1777 C1776 1.391 . S
C1777 C1781 1.376 . S
C1778 C1776 1.394 . S
C1778 C1779 1.369 . S
C1778 C1782 1.531 . S
C1779 C1778 1.369 . S
C1779 C1780 1.410 . S
C1779 C1787 1.503 . S
C1780 C1779 1.410 . S
C1780 C1781 1.392 . S
C1780 C1783 1.511 . S
C1781 C1777 1.376 . S
C1781 C1780 1.392 . S
C1781 H1793 0.929 . S
C1782 C1778 1.531 . S
C1782 H1794 0.960 . S
C1782 H1795 0.962 . S
C1782 H1796 0.960 . S
C1783 C1780 1.511 . S
C1783 H1797 0.961 . S
C1783 H1798 0.961 . S
C1783 H1799 0.961 . S
C1784 C1785 1.370 . S
C1784 C1786 1.363 . S
C1784 H1800 0.931 . S
C1785 C1784 1.370 . S
C1785 C1789 1.408 . S
C1786 C1784 1.363 . S
C1786 C1787 1.370 . S
C1786 C1790 1.524 . S
C1787 C1779 1.503 . S
C1787 C1786 1.370 . S
C1787 C1788 1.403 . S
C1788 C1787 1.403 . S
C1788 C1789 1.404 . S
C1788 C1791 1.539 . S
C1789 C1785 1.408 . S
C1789 C1788 1.404 . S
C1789 H1801 0.930 . S
C1790 C1786 1.524 . S
C1790 H1802 0.956 . S
C1790 H1803 0.961 . S
C1790 H1804 0.961 . S
C1791 C1788 1.539 . S
C1791 H1805 0.958 . S
C1791 H1806 0.961 . S
C1791 H1807 0.960 . S
H1792 C1776 0.931 . S
H1793 C1781 0.929 . S
H1794 C1782 0.960 . S
H1795 C1782 0.962 . S
H1796 C1782 0.960 . S
H1797 C1783 0.961 . S
H1798 C1783 0.961 . S
H1799 C1783 0.961 . S
H1800 C1784 0.931 . S
H1801 C1789 0.930 . S
H1802 C1790 0.956 . S
H1803 C1790 0.961 . S
H1804 C1790 0.961 . S
H1805 C1791 0.958 . S
H1806 C1791 0.961 . S
H1807 C1791 0.960 . S
C1808 C1809 1.391 . S
C1808 C1810 1.394 . S
C1808 H1824 0.931 . S
C1809 C1808 1.391 . S
C1809 C1813 1.376 . S
C1810 C1808 1.394 . S
C1810 C1811 1.369 . S
C1810 C1814 1.531 . S
C1811 C1810 1.369 . S
C1811 C1812 1.410 . S
C1811 C1819 1.503 . S
C1812 C1811 1.410 . S
C1812 C1813 1.392 . S
C1812 C1815 1.511 . S
C1813 C1809 1.376 . S
C1813 C1812 1.392 . S
C1813 H1825 0.929 . S
C1814 C1810 1.531 . S
C1814 H1826 0.960 . S
C1814 H1827 0.962 . S
C1814 H1828 0.960 . S
C1815 C1812 1.511 . S
C1815 H1829 0.961 . S
C1815 H1830 0.961 . S
C1815 H1831 0.961 . S
C1816 C1817 1.370 . S
C1816 C1818 1.363 . S
C1816 H1832 0.931 . S
C1817 C1816 1.370 . S
C1817 C1821 1.408 . S
C1818 C1816 1.363 . S
C1818 C1819 1.370 . S
C1818 C1822 1.524 . S
C1819 C1811 1.503 . S
C1819 C1818 1.370 . S
C1819 C1820 1.403 . S
C1820 C1819 1.403 . S
C1820 C1821 1.404 . S
C1820 C1823 1.539 . S
C1821 C1817 1.408 . S
C1821 C1820 1.404 . S
C1821 H1833 0.930 . S
C1822 C1818 1.524 . S
C1822 H1834 0.956 . S
C1822 H1835 0.961 . S
C1822 H1836 0.961 . S
C1823 C1820 1.539 . S
C1823 H1837 0.958 . S
C1823 H1838 0.961 . S
C1823 H1839 0.960 . S
H1824 C1808 0.931 . S
H1825 C1813 0.929 . S
H1826 C1814 0.960 . S
H1827 C1814 0.962 . S
H1828 C1814 0.960 . S
H1829 C1815 0.961 . S
H1830 C1815 0.961 . S
H1831 C1815 0.961 . S
H1832 C1816 0.931 . S
H1833 C1821 0.930 . S
H1834 C1822 0.956 . S
H1835 C1822 0.961 . S
H1836 C1822 0.961 . S
H1837 C1823 0.958 . S
H1838 C1823 0.961 . S
H1839 C1823 0.960 . S
C1840 C1841 1.391 . S
C1840 C1842 1.394 . S
C1840 H1856 0.931 . S
C1841 C1840 1.391 . S
C1841 C1845 1.376 . S
C1842 C1840 1.394 . S
C1842 C1843 1.369 . S
C1842 C1846 1.531 . S
C1843 C1842 1.369 . S
C1843 C1844 1.410 . S
C1843 C1851 1.503 . S
C1844 C1843 1.410 . S
C1844 C1845 1.392 . S
C1844 C1847 1.511 . S
C1845 C1841 1.376 . S
C1845 C1844 1.392 . S
C1845 H1857 0.929 . S
C1846 C1842 1.531 . S
C1846 H1858 0.960 . S
C1846 H1859 0.962 . S
C1846 H1860 0.960 . S
C1847 C1844 1.511 . S
C1847 H1861 0.961 . S
C1847 H1862 0.961 . S
C1847 H1863 0.961 . S
C1848 C1849 1.370 . S
C1848 C1850 1.363 . S
C1848 H1864 0.931 . S
C1849 C1848 1.370 . S
C1849 C1853 1.408 . S
C1850 C1848 1.363 . S
C1850 C1851 1.370 . S
C1850 C1854 1.524 . S
C1851 C1843 1.503 . S
C1851 C1850 1.370 . S
C1851 C1852 1.403 . S
C1852 C1851 1.403 . S
C1852 C1853 1.404 . S
C1852 C1855 1.539 . S
C1853 C1849 1.408 . S
C1853 C1852 1.404 . S
C1853 H1865 0.930 . S
C1854 C1850 1.524 . S
C1854 H1866 0.956 . S
C1854 H1867 0.961 . S
C1854 H1868 0.961 . S
C1855 C1852 1.539 . S
C1855 H1869 0.958 . S
C1855 H1870 0.961 . S
C1855 H1871 0.960 . S
H1856 C1840 0.931 . S
H1857 C1845 0.929 . S
H1858 C1846 0.960 . S
H1859 C1846 0.962 . S
H1860 C1846 0.960 . S
H1861 C1847 0.961 . S
H1862 C1847 0.961 . S
H1863 C1847 0.961 . S
H1864 C1848 0.931 . S
H1865 C1853 0.930 . S
H1866 C1854 0.956 . S
H1867 C1854 0.961 . S
H1868 C1854 0.961 . S
H1869 C1855 0.958 . S
H1870 C1855 0.961 . S
H1871 C1855 0.960 . S
C1872 C1873 1.391 . S
C1872 C1874 1.394 . S
C1872 H1888 0.931 . S
C1873 C1872 1.391 . S
C1873 C1877 1.376 . S
C1874 C1872 1.394 . S
C1874 C1875 1.369 . S
C1874 C1878 1.531 . S
C1875 C1874 1.369 . S
C1875 C1876 1.410 . S
C1875 C1883 1.503 . S
C1876 C1875 1.410 . S
C1876 C1877 1.392 . S
C1876 C1879 1.511 . S
C1877 C1873 1.376 . S
C1877 C1876 1.392 . S
C1877 H1889 0.929 . S
C1878 C1874 1.531 . S
C1878 H1890 0.960 1_455 S
C1878 H1891 0.962 . S
C1878 H1892 0.960 1_455 S
C1879 C1876 1.511 . S
C1879 H1893 0.961 . S
C1879 H1894 0.961 . S
C1879 H1895 0.975 . S
C1880 C1881 1.379 . S
C1880 C1882 1.363 . S
C1880 H1896 0.931 . S
C1881 C1880 1.379 . S
C1881 C1885 1.399 1_455 S
C1882 C1880 1.363 . S
C1882 C1883 1.370 . S
C1882 C1886 1.524 . S
C1883 C1875 1.503 . S
C1883 C1882 1.370 . S
C1883 C1884 1.403 1_455 S
C1884 C1883 1.403 1_655 S
C1884 C1885 1.404 . S
C1884 C1887 1.539 . S
C1885 C1881 1.399 1_655 S
C1885 C1884 1.404 . S
C1885 H1897 0.930 . S
C1886 C1882 1.524 . S
C1886 H1898 0.956 . S
C1886 H1899 0.961 . S
C1886 H1900 0.961 . S
C1887 C1884 1.539 . S
C1887 H1901 0.958 . S
C1887 H1902 0.961 . S
C1887 H1903 0.960 . S
H1888 C1872 0.931 . S
H1889 C1877 0.929 . S
H1890 C1878 0.960 1_655 S
H1891 C1878 0.962 . S
H1892 C1878 0.960 1_655 S
H1893 C1879 0.961 . S
H1894 C1879 0.961 . S
H1895 C1879 0.975 . S
H1896 C1880 0.931 . S
H1897 C1885 0.930 . S
H1898 C1886 0.956 . S
H1899 C1886 0.961 . S
H1900 C1886 0.961 . S
H1901 C1887 0.958 . S
H1902 C1887 0.961 . S
H1903 C1887 0.960 . S
C1904 C1905 1.391 . S
C1904 C1906 1.394 . S
C1904 H1920 0.931 . S
C1905 C1904 1.391 . S
C1905 C1909 1.376 . S
C1906 C1904 1.394 . S
C1906 C1907 1.369 . S
C1906 C1910 1.531 . S
C1907 C1906 1.369 . S
C1907 C1908 1.410 . S
C1907 C1915 1.503 . S
C1908 C1907 1.410 . S
C1908 C1909 1.392 . S
C1908 C1911 1.511 . S
C1909 C1905 1.376 . S
C1909 C1908 1.392 . S
C1909 H1921 0.929 . S
C1910 C1906 1.531 . S
C1910 H1922 0.960 . S
C1910 H1923 0.962 . S
C1910 H1924 0.960 . S
C1911 C1908 1.511 . S
C1911 H1925 0.961 . S
C1911 H1926 0.961 . S
C1911 H1927 0.961 . S
C1912 C1913 1.370 . S
C1912 C1914 1.363 . S
C1912 H1928 0.931 . S
C1913 C1912 1.370 . S
C1913 C1917 1.408 . S
C1914 C1912 1.363 . S
C1914 C1915 1.370 . S
C1914 C1918 1.524 . S
C1915 C1907 1.503 . S
C1915 C1914 1.370 . S
C1915 C1916 1.403 . S
C1916 C1915 1.403 . S
C1916 C1917 1.404 . S
C1916 C1919 1.539 . S
C1917 C1913 1.408 . S
C1917 C1916 1.404 . S
C1917 H1929 0.930 . S
C1918 C1914 1.524 . S
C1918 H1930 0.956 . S
C1918 H1931 0.961 . S
C1918 H1932 0.961 . S
C1919 C1916 1.539 . S
C1919 H1933 0.958 . S
C1919 H1934 0.961 . S
C1919 H1935 0.960 . S
H1920 C1904 0.931 . S
H1921 C1909 0.929 . S
H1922 C1910 0.960 . S
H1923 C1910 0.962 . S
H1924 C1910 0.960 . S
H1925 C1911 0.961 . S
H1926 C1911 0.961 . S
H1927 C1911 0.961 . S
H1928 C1912 0.931 . S
H1929 C1917 0.930 . S
H1930 C1918 0.956 . S
H1931 C1918 0.961 . S
H1932 C1918 0.961 . S
H1933 C1919 0.958 . S
H1934 C1919 0.961 . S
H1935 C1919 0.960 . S
C1936 C1937 1.391 . S
C1936 C1938 1.394 . S
C1936 H1952 0.931 . S
C1937 C1936 1.391 . S
C1937 C1941 1.376 . S
C1938 C1936 1.394 . S
C1938 C1939 1.369 . S
C1938 C1942 1.531 . S
C1939 C1938 1.369 . S
C1939 C1940 1.410 . S
C1939 C1947 1.503 . S
C1940 C1939 1.410 . S
C1940 C1941 1.392 . S
C1940 C1943 1.511 . S
C1941 C1937 1.376 . S
C1941 C1940 1.392 . S
C1941 H1953 0.929 . S
C1942 C1938 1.531 . S
C1942 H1954 0.960 . S
C1942 H1955 0.962 . S
C1942 H1956 0.960 . S
C1943 C1940 1.511 . S
C1943 H1957 0.961 . S
C1943 H1958 0.961 . S
C1943 H1959 0.961 . S
C1944 C1945 1.370 . S
C1944 C1946 1.363 . S
C1944 H1960 0.931 1_556 S
C1945 C1944 1.370 . S
C1945 C1949 1.408 . S
C1946 C1944 1.363 . S
C1946 C1947 1.370 . S
C1946 C1950 1.524 . S
C1947 C1939 1.503 . S
C1947 C1946 1.370 . S
C1947 C1948 1.403 . S
C1948 C1947 1.403 . S
C1948 C1949 1.404 . S
C1948 C1951 1.539 . S
C1949 C1945 1.408 . S
C1949 C1948 1.404 . S
C1949 H1961 0.930 . S
C1950 C1946 1.524 . S
C1950 H1962 0.956 . S
C1950 H1963 0.961 . S
C1950 H1964 0.961 . S
C1951 C1948 1.539 . S
C1951 H1965 0.958 . S
C1951 H1966 0.961 . S
C1951 H1967 0.960 . S
H1952 C1936 0.931 . S
H1953 C1941 0.929 . S
H1954 C1942 0.960 . S
H1955 C1942 0.962 . S
H1956 C1942 0.960 . S
H1957 C1943 0.961 . S
H1958 C1943 0.961 . S
H1959 C1943 0.961 . S
H1960 C1944 0.931 1_554 S
H1961 C1949 0.930 . S
H1962 C1950 0.956 . S
H1963 C1950 0.961 . S
H1964 C1950 0.961 . S
H1965 C1951 0.958 . S
H1966 C1951 0.961 . S
H1967 C1951 0.960 . S
C1968 C1969 1.391 . S
C1968 C1970 1.394 . S
C1968 H1984 0.931 . S
C1969 C1968 1.391 . S
C1969 C1973 1.376 . S
C1970 C1968 1.394 . S
C1970 C1971 1.369 . S
C1970 C1974 1.531 . S
C1971 C1970 1.369 . S
C1971 C1972 1.410 . S
C1971 C1979 1.503 . S
C1972 C1971 1.410 . S
C1972 C1973 1.392 . S
C1972 C1975 1.511 . S
C1973 C1969 1.376 . S
C1973 C1972 1.392 . S
C1973 H1985 0.929 . S
C1974 C1970 1.531 . S
C1974 H1986 0.960 . S
C1974 H1987 0.962 . S
C1974 H1988 0.960 . S
C1975 C1972 1.511 . S
C1975 H1989 0.961 . S
C1975 H1990 0.961 . S
C1975 H1991 0.961 . S
C1976 C1977 1.370 . S
C1976 C1978 1.363 . S
C1976 H1992 0.931 . S
C1977 C1976 1.370 . S
C1977 C1981 1.408 . S
C1978 C1976 1.363 . S
C1978 C1979 1.370 . S
C1978 C1982 1.524 . S
C1979 C1971 1.503 . S
C1979 C1978 1.370 . S
C1979 C1980 1.403 . S
C1980 C1979 1.403 . S
C1980 C1981 1.404 . S
C1980 C1983 1.539 . S
C1981 C1977 1.408 . S
C1981 C1980 1.404 . S
C1981 H1993 0.930 . S
C1982 C1978 1.524 . S
C1982 H1994 0.956 . S
C1982 H1995 0.961 . S
C1982 H1996 0.961 . S
C1983 C1980 1.539 . S
C1983 H1997 0.958 . S
C1983 H1998 0.961 . S
C1983 H1999 0.960 . S
H1984 C1968 0.931 . S
H1985 C1973 0.929 . S
H1986 C1974 0.960 . S
H1987 C1974 0.962 . S
H1988 C1974 0.960 . S
H1989 C1975 0.961 . S
H1990 C1975 0.961 . S
H1991 C1975 0.961 . S
H1992 C1976 0.931 . S
H1993 C1981 0.930 . S
H1994 C1982 0.956 . S
H1995 C1982 0.961 . S
H1996 C1982 0.961 . S
H1997 C1983 0.958 . S
H1998 C1983 0.961 . S
H1999 C1983 0.960 . S
C2000 C2001 1.391 . S
C2000 C2002 1.394 . S
C2000 H2016 0.931 . S
C2001 C2000 1.391 . S
C2001 C2005 1.376 . S
C2002 C2000 1.394 . S
C2002 C2003 1.369 . S
C2002 C2006 1.531 . S
C2003 C2002 1.369 . S
C2003 C2004 1.410 . S
C2003 C2011 1.503 . S
C2004 C2003 1.410 . S
C2004 C2005 1.392 . S
C2004 C2007 1.511 . S
C2005 C2001 1.376 . S
C2005 C2004 1.392 . S
C2005 H2017 0.929 . S
C2006 C2002 1.531 . S
C2006 H2018 0.960 . S
C2006 H2019 0.962 . S
C2006 H2020 0.960 . S
C2007 C2004 1.511 . S
C2007 H2021 0.961 . S
C2007 H2022 0.961 . S
C2007 H2023 0.961 . S
C2008 C2009 1.370 . S
C2008 C2010 1.363 . S
C2008 H2024 0.931 . S
C2009 C2008 1.370 . S
C2009 C2013 1.408 . S
C2010 C2008 1.363 . S
C2010 C2011 1.370 . S
C2010 C2014 1.524 . S
C2011 C2003 1.503 . S
C2011 C2010 1.370 . S
C2011 C2012 1.403 . S
C2012 C2011 1.403 . S
C2012 C2013 1.404 . S
C2012 C2015 1.539 1_545 S
C2013 C2009 1.408 . S
C2013 C2012 1.404 . S
C2013 H2025 0.930 1_545 S
C2014 C2010 1.524 . S
C2014 H2026 0.956 . S
C2014 H2027 0.961 . S
C2014 H2028 0.961 . S
C2015 C2012 1.539 1_565 S
C2015 H2029 0.958 . S
C2015 H2030 0.961 . S
C2015 H2031 0.960 . S
H2016 C2000 0.931 . S
H2017 C2005 0.929 . S
H2018 C2006 0.960 . S
H2019 C2006 0.962 . S
H2020 C2006 0.960 . S
H2021 C2007 0.961 . S
H2022 C2007 0.961 . S
H2023 C2007 0.961 . S
H2024 C2008 0.931 . S
H2025 C2013 0.930 1_565 S
H2026 C2014 0.956 . S
H2027 C2014 0.961 . S
H2028 C2014 0.961 . S
H2029 C2015 0.958 . S
H2030 C2015 0.961 . S
H2031 C2015 0.960 . S
C2032 C2033 1.391 . S
C2032 C2034 1.394 . S
C2032 H2048 0.931 . S
C2033 C2032 1.391 . S
C2033 C2037 1.376 . S
C2034 C2032 1.394 . S
C2034 C2035 1.369 . S
C2034 C2038 1.531 . S
C2035 C2034 1.369 . S
C2035 C2036 1.410 . S
C2035 C2043 1.503 . S
C2036 C2035 1.410 . S
C2036 C2037 1.392 . S
C2036 C2039 1.511 . S
C2037 C2033 1.376 . S
C2037 C2036 1.392 . S
C2037 H2049 0.929 . S
C2038 C2034 1.531 . S
C2038 H2050 0.960 . S
C2038 H2051 0.962 . S
C2038 H2052 0.960 . S
C2039 C2036 1.511 . S
C2039 H2053 0.961 . S
C2039 H2054 0.961 . S
C2039 H2055 0.961 . S
C2040 C2041 1.370 . S
C2040 C2042 1.363 . S
C2040 H2056 0.931 . S
C2041 C2040 1.370 . S
C2041 C2045 1.408 . S
C2042 C2040 1.363 . S
C2042 C2043 1.370 . S
C2042 C2046 1.524 . S
C2043 C2035 1.503 . S
C2043 C2042 1.370 . S
C2043 C2044 1.403 . S
C2044 C2043 1.403 . S
C2044 C2045 1.404 . S
C2044 C2047 1.539 . S
C2045 C2041 1.408 . S
C2045 C2044 1.404 . S
C2045 H2057 0.930 . S
C2046 C2042 1.524 . S
C2046 H2058 0.956 . S
C2046 H2059 0.961 . S
C2046 H2060 0.961 . S
C2047 C2044 1.539 . S
C2047 H2061 0.958 . S
C2047 H2062 0.961 . S
C2047 H2063 0.960 . S
H2048 C2032 0.931 . S
H2049 C2037 0.929 . S
H2050 C2038 0.960 . S
H2051 C2038 0.962 . S
H2052 C2038 0.960 . S
H2053 C2039 0.961 . S
H2054 C2039 0.961 . S
H2055 C2039 0.961 . S
H2056 C2040 0.931 . S
H2057 C2045 0.930 . S
H2058 C2046 0.956 . S
H2059 C2046 0.961 . S
H2060 C2046 0.961 . S
H2061 C2047 0.958 . S
H2062 C2047 0.961 . S
H2063 C2047 0.960 . S
C2064 C2065 1.391 . S
C2064 C2066 1.394 . S
C2064 H2080 0.931 . S
C2065 C2064 1.391 . S
C2065 C2069 1.376 . S
C2066 C2064 1.394 . S
C2066 C2067 1.369 . S
C2066 C2070 1.531 . S
C2067 C2066 1.369 . S
C2067 C2068 1.410 . S
C2067 C2075 1.503 . S
C2068 C2067 1.410 . S
C2068 C2069 1.392 . S
C2068 C2071 1.511 . S
C2069 C2065 1.376 . S
C2069 C2068 1.392 . S
C2069 H2081 0.929 . S
C2070 C2066 1.531 . S
C2070 H2082 0.960 . S
C2070 H2083 0.962 . S
C2070 H2084 0.960 1_545 S
C2071 C2068 1.511 . S
C2071 H2085 0.961 . S
C2071 H2086 0.961 . S
C2071 H2087 0.961 . S
C2072 C2073 1.370 . S
C2072 C2074 1.363 . S
C2072 H2088 0.931 . S
C2073 C2072 1.370 . S
C2073 C2077 1.408 . S
C2074 C2072 1.363 . S
C2074 C2075 1.370 . S
C2074 C2078 1.524 . S
C2075 C2067 1.503 . S
C2075 C2074 1.370 . S
C2075 C2076 1.403 . S
C2076 C2075 1.403 . S
C2076 C2077 1.404 . S
C2076 C2079 1.539 1_545 S
C2077 C2073 1.408 . S
C2077 C2076 1.404 . S
C2077 H2089 0.930 . S
C2078 C2074 1.524 . S
C2078 H2090 0.956 . S
C2078 H2091 0.961 . S
C2078 H2092 0.961 . S
C2079 C2076 1.539 1_565 S
C2079 H2093 0.958 . S
C2079 H2094 0.961 . S
C2079 H2095 0.960 . S
H2080 C2064 0.931 . S
H2081 C2069 0.929 . S
H2082 C2070 0.960 . S
H2083 C2070 0.962 . S
H2084 C2070 0.960 1_565 S
H2085 C2071 0.961 . S
H2086 C2071 0.961 . S
H2087 C2071 0.961 . S
H2088 C2072 0.931 . S
H2089 C2077 0.930 . S
H2090 C2078 0.956 . S
H2091 C2078 0.961 . S
H2092 C2078 0.961 . S
H2093 C2079 0.958 . S
H2094 C2079 0.961 . S
H2095 C2079 0.960 . S
C2096 C2097 1.391 . S
C2096 C2098 1.394 . S
C2096 H2112 0.931 . S
C2097 C2096 1.391 . S
C2097 C2101 1.376 . S
C2098 C2096 1.394 . S
C2098 C2099 1.369 . S
C2098 C2102 1.531 . S
C2099 C2098 1.369 . S
C2099 C2100 1.410 . S
C2099 C2107 1.503 . S
C2100 C2099 1.410 . S
C2100 C2101 1.392 . S
C2100 C2103 1.511 . S
C2101 C2097 1.376 . S
C2101 C2100 1.392 . S
C2101 H2113 0.929 . S
C2102 C2098 1.531 . S
C2102 H2114 0.960 . S
C2102 H2115 0.962 . S
C2102 H2116 0.960 . S
C2103 C2100 1.511 . S
C2103 H2117 0.961 . S
C2103 H2118 0.961 . S
C2103 H2119 0.961 . S
C2104 C2105 1.370 . S
C2104 C2106 1.363 . S
C2104 H2120 0.931 . S
C2105 C2104 1.370 . S
C2105 C2109 1.408 . S
C2106 C2104 1.363 . S
C2106 C2107 1.370 . S
C2106 C2110 1.524 . S
C2107 C2099 1.503 . S
C2107 C2106 1.370 . S
C2107 C2108 1.403 . S
C2108 C2107 1.403 . S
C2108 C2109 1.404 . S
C2108 C2111 1.539 . S
C2109 C2105 1.408 . S
C2109 C2108 1.404 . S
C2109 H2121 0.930 . S
C2110 C2106 1.524 . S
C2110 H2122 0.956 . S
C2110 H2123 0.961 . S
C2110 H2124 0.961 . S
C2111 C2108 1.539 . S
C2111 H2125 0.958 . S
C2111 H2126 0.961 . S
C2111 H2127 0.960 . S
H2112 C2096 0.931 . S
H2113 C2101 0.929 . S
H2114 C2102 0.960 . S
H2115 C2102 0.962 . S
H2116 C2102 0.960 . S
H2117 C2103 0.961 . S
H2118 C2103 0.961 . S
H2119 C2103 0.961 . S
H2120 C2104 0.931 . S
H2121 C2109 0.930 . S
H2122 C2110 0.956 . S
H2123 C2110 0.961 . S
H2124 C2110 0.961 . S
H2125 C2111 0.958 . S
H2126 C2111 0.961 . S
H2127 C2111 0.960 . S
C2128 C2129 1.391 . S
C2128 C2130 1.394 . S
C2128 H2144 0.931 . S
C2129 C2128 1.391 . S
C2129 C2133 1.376 . S
C2130 C2128 1.394 . S
C2130 C2131 1.369 . S
C2130 C2134 1.531 . S
C2131 C2130 1.369 . S
C2131 C2132 1.410 . S
C2131 C2139 1.503 . S
C2132 C2131 1.410 . S
C2132 C2133 1.392 . S
C2132 C2135 1.511 . S
C2133 C2129 1.376 . S
C2133 C2132 1.392 . S
C2133 H2145 0.929 . S
C2134 C2130 1.531 . S
C2134 H2146 0.960 . S
C2134 H2147 0.962 . S
C2134 H2148 0.960 1_545 S
C2135 C2132 1.511 . S
C2135 H2149 0.961 . S
C2135 H2150 0.961 . S
C2135 H2151 0.961 . S
C2136 C2137 1.370 . S
C2136 C2138 1.363 . S
C2136 H2152 0.931 . S
C2137 C2136 1.370 . S
C2137 C2141 1.408 . S
C2138 C2136 1.363 . S
C2138 C2139 1.370 . S
C2138 C2142 1.524 . S
C2139 C2131 1.503 . S
C2139 C2138 1.370 . S
C2139 C2140 1.403 . S
C2140 C2139 1.403 . S
C2140 C2141 1.404 . S
C2140 C2143 1.539 . S
C2141 C2137 1.408 . S
C2141 C2140 1.404 . S
C2141 H2153 0.930 . S
C2142 C2138 1.524 . S
C2142 H2154 0.956 . S
C2142 H2155 0.961 . S
C2142 H2156 0.961 . S
C2143 C2140 1.539 . S
C2143 H2157 0.958 1_545 S
C2143 H2158 0.961 1_455 S
C2143 H2159 0.960 . S
H2144 C2128 0.931 . S
H2145 C2133 0.929 . S
H2146 C2134 0.960 . S
H2147 C2134 0.962 . S
H2148 C2134 0.960 1_565 S
H2149 C2135 0.961 . S
H2150 C2135 0.961 . S
H2151 C2135 0.961 . S
H2152 C2136 0.931 . S
H2153 C2141 0.930 . S
H2154 C2142 0.956 . S
H2155 C2142 0.961 . S
H2156 C2142 0.961 . S
H2157 C2143 0.958 1_565 S
H2158 C2143 0.961 1_655 S
H2159 C2143 0.960 . S
C2160 C2161 1.391 . S
C2160 C2162 1.394 . S
C2160 H2176 0.931 . S
C2161 C2160 1.391 . S
C2161 C2165 1.376 . S
C2162 C2160 1.394 . S
C2162 C2163 1.369 . S
C2162 C2166 1.531 . S
C2163 C2162 1.369 . S
C2163 C2164 1.410 . S
C2163 C2171 1.503 . S
C2164 C2163 1.410 . S
C2164 C2165 1.392 . S
C2164 C2167 1.511 . S
C2165 C2161 1.376 . S
C2165 C2164 1.392 . S
C2165 H2177 0.929 . S
C2166 C2162 1.531 . S
C2166 H2178 0.960 . S
C2166 H2179 0.962 . S
C2166 H2180 0.960 . S
C2167 C2164 1.511 . S
C2167 H2181 0.961 . S
C2167 H2182 0.961 . S
C2167 H2183 0.961 . S
C2168 C2169 1.370 . S
C2168 C2170 1.363 . S
C2168 H2184 0.931 . S
C2169 C2168 1.370 . S
C2169 C2173 1.408 . S
C2170 C2168 1.363 . S
C2170 C2171 1.370 . S
C2170 C2174 1.524 . S
C2171 C2163 1.503 . S
C2171 C2170 1.370 . S
C2171 C2172 1.403 . S
C2172 C2171 1.403 . S
C2172 C2173 1.404 . S
C2172 C2175 1.539 . S
C2173 C2169 1.408 . S
C2173 C2172 1.404 . S
C2173 H2185 0.930 . S
C2174 C2170 1.524 . S
C2174 H2186 0.956 . S
C2174 H2187 0.961 . S
C2174 H2188 0.961 . S
C2175 C2172 1.539 . S
C2175 H2189 0.958 . S
C2175 H2190 0.961 . S
C2175 H2191 0.960 . S
H2176 C2160 0.931 . S
H2177 C2165 0.929 . S
H2178 C2166 0.960 . S
H2179 C2166 0.962 . S
H2180 C2166 0.960 . S
H2181 C2167 0.961 . S
H2182 C2167 0.961 . S
H2183 C2167 0.961 . S
H2184 C2168 0.931 . S
H2185 C2173 0.930 . S
H2186 C2174 0.956 . S
H2187 C2174 0.961 . S
H2188 C2174 0.961 . S
H2189 C2175 0.958 . S
H2190 C2175 0.961 . S
H2191 C2175 0.960 . S
C2192 C2193 1.375 1_545 S
C2192 C2194 1.394 . S
C2192 H2208 0.931 . S
C2193 C2192 1.375 1_565 S
C2193 C2197 1.393 . S
C2194 C2192 1.394 . S
C2194 C2195 1.369 1_545 S
C2194 C2198 1.531 . S
C2195 C2194 1.369 1_565 S
C2195 C2196 1.410 . S
C2195 C2203 1.503 . S
C2196 C2195 1.410 . S
C2196 C2197 1.392 . S
C2196 C2199 1.511 . S
C2197 C2193 1.393 . S
C2197 C2196 1.392 . S
C2197 H2209 0.929 . S
C2198 C2194 1.531 . S
C2198 H2210 0.960 . S
C2198 H2211 0.962 . S
C2198 H2212 0.960 . S
C2199 C2196 1.511 . S
C2199 H2213 0.961 . S
C2199 H2214 0.961 . S
C2199 H2215 0.961 . S
C2200 C2201 1.370 . S
C2200 C2202 1.363 . S
C2200 H2216 0.931 . S
C2201 C2200 1.370 . S
C2201 C2205 1.408 1_565 S
C2202 C2200 1.363 . S
C2202 C2203 1.370 . S
C2202 C2206 1.524 . S
C2203 C2195 1.503 . S
C2203 C2202 1.370 . S
C2203 C2204 1.403 1_565 S
C2204 C2203 1.403 1_545 S
C2204 C2205 1.404 . S
C2204 C2207 1.539 . S
C2205 C2201 1.408 1_545 S
C2205 C2204 1.404 . S
C2205 H2217 0.930 . S
C2206 C2202 1.524 . S
C2206 H2218 0.956 . S
C2206 H2219 0.961 . S
C2206 H2220 0.961 . S
C2207 C2204 1.539 . S
C2207 H2221 0.958 . S
C2207 H2222 0.961 . S
C2207 H2223 0.960 . S
H2208 C2192 0.931 . S
H2209 C2197 0.929 . S
H2210 C2198 0.960 . S
H2211 C2198 0.962 . S
H2212 C2198 0.960 . S
H2213 C2199 0.961 . S
H2214 C2199 0.961 . S
H2215 C2199 0.961 . S
H2216 C2200 0.931 . S
H2217 C2205 0.930 . S
H2218 C2206 0.956 . S
H2219 C2206 0.961 . S
H2220 C2206 0.961 . S
H2221 C2207 0.958 . S
H2222 C2207 0.961 . S
H2223 C2207 0.960 . S
C2224 C2225 1.391 . S
C2224 C2226 1.394 . S
C2224 H2240 0.931 . S
C2225 C2224 1.391 . S
C2225 C2229 1.376 . S
C2226 C2224 1.394 . S
C2226 C2227 1.369 . S
C2226 C2230 1.531 . S
C2227 C2226 1.369 . S
C2227 C2228 1.410 . S
C2227 C2235 1.503 . S
C2228 C2227 1.410 . S
C2228 C2229 1.392 . S
C2228 C2231 1.511 . S
C2229 C2225 1.376 . S
C2229 C2228 1.392 . S
C2229 H2241 0.929 . S
C2230 C2226 1.531 . S
C2230 H2242 0.960 . S
C2230 H2243 0.962 . S
C2230 H2244 0.960 . S
C2231 C2228 1.511 . S
C2231 H2245 0.961 . S
C2231 H2246 0.961 . S
C2231 H2247 0.961 . S
C2232 C2233 1.370 . S
C2232 C2234 1.363 . S
C2232 H2248 0.931 . S
C2233 C2232 1.370 . S
C2233 C2237 1.408 . S
C2234 C2232 1.363 . S
C2234 C2235 1.370 . S
C2234 C2238 1.524 . S
C2235 C2227 1.503 . S
C2235 C2234 1.370 . S
C2235 C2236 1.403 . S
C2236 C2235 1.403 . S
C2236 C2237 1.404 . S
C2236 C2239 1.539 . S
C2237 C2233 1.408 . S
C2237 C2236 1.404 . S
C2237 H2249 0.930 . S
C2238 C2234 1.524 . S
C2238 H2250 0.956 . S
C2238 H2251 0.961 . S
C2238 H2252 0.961 . S
C2239 C2236 1.539 . S
C2239 H2253 0.958 . S
C2239 H2254 0.961 . S
C2239 H2255 0.960 . S
H2240 C2224 0.931 . S
H2241 C2229 0.929 . S
H2242 C2230 0.960 . S
H2243 C2230 0.962 . S
H2244 C2230 0.960 . S
H2245 C2231 0.961 . S
H2246 C2231 0.961 . S
H2247 C2231 0.961 . S
H2248 C2232 0.931 . S
H2249 C2237 0.930 . S
H2250 C2238 0.956 . S
H2251 C2238 0.961 . S
H2252 C2238 0.961 . S
H2253 C2239 0.958 . S
H2254 C2239 0.961 . S
H2255 C2239 0.960 . S
C2256 C2257 1.391 . S
C2256 C2258 1.394 . S
C2256 H2272 0.931 . S
C2257 C2256 1.391 . S
C2257 C2261 1.376 . S
C2258 C2256 1.394 . S
C2258 C2259 1.369 . S
C2258 C2262 1.531 1_554 S
C2259 C2258 1.369 . S
C2259 C2260 1.410 . S
C2259 C2267 1.503 . S
C2260 C2259 1.410 . S
C2260 C2261 1.392 . S
C2260 C2263 1.511 . S
C2261 C2257 1.376 . S
C2261 C2260 1.392 . S
C2261 H2273 0.929 . S
C2262 C2258 1.531 1_556 S
C2262 H2274 0.960 . S
C2262 H2275 0.962 . S
C2262 H2276 0.960 . S
C2263 C2260 1.511 . S
C2263 H2277 0.961 . S
C2263 H2278 0.961 . S
C2263 H2279 0.961 . S
C2264 C2265 1.370 . S
C2264 C2266 1.363 . S
C2264 H2280 0.931 . S
C2265 C2264 1.370 . S
C2265 C2269 1.408 . S
C2266 C2264 1.363 . S
C2266 C2267 1.370 . S
C2266 C2270 1.524 . S
C2267 C2259 1.503 . S
C2267 C2266 1.370 . S
C2267 C2268 1.403 . S
C2268 C2267 1.403 . S
C2268 C2269 1.404 . S
C2268 C2271 1.539 . S
C2269 C2265 1.408 . S
C2269 C2268 1.404 . S
C2269 H2281 0.930 1_554 S
C2270 C2266 1.524 . S
C2270 H2282 0.956 . S
C2270 H2283 0.961 . S
C2270 H2284 0.961 . S
C2271 C2268 1.539 . S
C2271 H2285 0.958 1_554 S
C2271 H2286 0.961 . S
C2271 H2287 0.960 . S
H2272 C2256 0.931 . S
H2273 C2261 0.929 . S
H2274 C2262 0.960 . S
H2275 C2262 0.962 . S
H2276 C2262 0.960 . S
H2277 C2263 0.961 . S
H2278 C2263 0.961 . S
H2279 C2263 0.961 . S
H2280 C2264 0.931 . S
H2281 C2269 0.930 1_556 S
H2282 C2270 0.956 . S
H2283 C2270 0.961 . S
H2284 C2270 0.961 . S
H2285 C2271 0.958 1_556 S
H2286 C2271 0.961 . S
H2287 C2271 0.960 . S
C2288 C2289 1.391 . S
C2288 C2290 1.394 . S
C2288 H2304 0.931 . S
C2289 C2288 1.391 . S
C2289 C2293 1.376 . S
C2290 C2288 1.394 . S
C2290 C2291 1.369 . S
C2290 C2294 1.531 1_554 S
C2291 C2290 1.369 . S
C2291 C2292 1.410 . S
C2291 C2299 1.503 . S
C2292 C2291 1.410 . S
C2292 C2293 1.392 . S
C2292 C2295 1.511 . S
C2293 C2289 1.376 . S
C2293 C2292 1.392 . S
C2293 H2305 0.929 . S
C2294 C2290 1.531 1_556 S
C2294 H2306 0.960 1_556 S
C2294 H2307 0.962 . S
C2294 H2308 0.960 . S
C2295 C2292 1.511 . S
C2295 H2309 0.961 . S
C2295 H2310 0.961 . S
C2295 H2311 0.961 . S
C2296 C2297 1.370 . S
C2296 C2298 1.363 . S
C2296 H2312 0.931 . S
C2297 C2296 1.370 . S
C2297 C2301 1.408 . S
C2298 C2296 1.363 . S
C2298 C2299 1.370 . S
C2298 C2302 1.524 . S
C2299 C2291 1.503 . S
C2299 C2298 1.370 . S
C2299 C2300 1.403 . S
C2300 C2299 1.403 . S
C2300 C2301 1.404 . S
C2300 C2303 1.539 . S
C2301 C2297 1.408 . S
C2301 C2300 1.404 . S
C2301 H2313 0.930 . S
C2302 C2298 1.524 . S
C2302 H2314 0.956 . S
C2302 H2315 0.961 . S
C2302 H2316 0.961 . S
C2303 C2300 1.539 . S
C2303 H2317 0.958 . S
C2303 H2318 0.961 . S
C2303 H2319 0.960 . S
H2304 C2288 0.931 . S
H2305 C2293 0.929 . S
H2306 C2294 0.960 1_554 S
H2307 C2294 0.962 . S
H2308 C2294 0.960 . S
H2309 C2295 0.961 . S
H2310 C2295 0.961 . S
H2311 C2295 0.961 . S
H2312 C2296 0.931 . S
H2313 C2301 0.930 . S
H2314 C2302 0.956 . S
H2315 C2302 0.961 . S
H2316 C2302 0.961 . S
H2317 C2303 0.958 . S
H2318 C2303 0.961 . S
H2319 C2303 0.960 . S
C2320 C2321 1.391 . S
C2320 C2322 1.394 . S
C2320 H2336 0.931 . S
C2321 C2320 1.391 . S
C2321 C2325 1.376 . S
C2322 C2320 1.394 . S
C2322 C2323 1.369 . S
C2322 C2326 1.531 . S
C2323 C2322 1.369 . S
C2323 C2324 1.410 . S
C2323 C2331 1.503 . S
C2324 C2323 1.410 . S
C2324 C2325 1.392 . S
C2324 C2327 1.511 . S
C2325 C2321 1.376 . S
C2325 C2324 1.392 . S
C2325 H2337 0.929 . S
C2326 C2322 1.531 . S
C2326 H2338 0.960 . S
C2326 H2339 0.962 . S
C2326 H2340 0.960 . S
C2327 C2324 1.511 . S
C2327 H2341 0.961 . S
C2327 H2342 0.961 . S
C2327 H2343 0.961 . S
C2328 C2329 1.370 . S
C2328 C2330 1.363 . S
C2328 H2344 0.931 . S
C2329 C2328 1.370 . S
C2329 C2333 1.408 . S
C2330 C2328 1.363 . S
C2330 C2331 1.370 . S
C2330 C2334 1.524 . S
C2331 C2323 1.503 . S
C2331 C2330 1.370 . S
C2331 C2332 1.403 . S
C2332 C2331 1.403 . S
C2332 C2333 1.404 . S
C2332 C2335 1.539 . S
C2333 C2329 1.408 . S
C2333 C2332 1.404 . S
C2333 H2345 0.930 . S
C2334 C2330 1.524 . S
C2334 H2346 0.956 . S
C2334 H2347 0.961 . S
C2334 H2348 0.961 . S
C2335 C2332 1.539 . S
C2335 H2349 0.958 . S
C2335 H2350 0.961 . S
C2335 H2351 0.960 . S
H2336 C2320 0.931 . S
H2337 C2325 0.929 . S
H2338 C2326 0.960 . S
H2339 C2326 0.962 . S
H2340 C2326 0.960 . S
H2341 C2327 0.961 . S
H2342 C2327 0.961 . S
H2343 C2327 0.961 . S
H2344 C2328 0.931 . S
H2345 C2333 0.930 . S
H2346 C2334 0.956 . S
H2347 C2334 0.961 . S
H2348 C2334 0.961 . S
H2349 C2335 0.958 . S
H2350 C2335 0.961 . S
H2351 C2335 0.960 . S
C2352 C2353 1.391 . S
C2352 C2354 1.394 . S
C2352 H2368 0.931 . S
C2353 C2352 1.391 . S
C2353 C2357 1.376 . S
C2354 C2352 1.394 . S
C2354 C2355 1.369 . S
C2354 C2358 1.531 . S
C2355 C2354 1.369 . S
C2355 C2356 1.410 . S
C2355 C2363 1.503 . S
C2356 C2355 1.410 . S
C2356 C2357 1.392 . S
C2356 C2359 1.511 . S
C2357 C2353 1.376 . S
C2357 C2356 1.392 . S
C2357 H2369 0.929 . S
C2358 C2354 1.531 . S
C2358 H2370 0.960 . S
C2358 H2371 0.962 . S
C2358 H2372 0.960 . S
C2359 C2356 1.511 . S
C2359 H2373 0.961 . S
C2359 H2374 0.961 . S
C2359 H2375 0.961 . S
C2360 C2361 1.370 . S
C2360 C2362 1.363 . S
C2360 H2376 0.931 . S
C2361 C2360 1.370 . S
C2361 C2365 1.408 . S
C2362 C2360 1.363 . S
C2362 C2363 1.370 . S
C2362 C2366 1.524 . S
C2363 C2355 1.503 . S
C2363 C2362 1.370 . S
C2363 C2364 1.403 . S
C2364 C2363 1.403 . S
C2364 C2365 1.404 . S
C2364 C2367 1.539 . S
C2365 C2361 1.408 . S
C2365 C2364 1.404 . S
C2365 H2377 0.930 . S
C2366 C2362 1.524 . S
C2366 H2378 0.956 . S
C2366 H2379 0.961 . S
C2366 H2380 0.961 . S
C2367 C2364 1.539 . S
C2367 H2381 0.958 . S
C2367 H2382 0.961 . S
C2367 H2383 0.960 . S
H2368 C2352 0.931 . S
H2369 C2357 0.929 . S
H2370 C2358 0.960 . S
H2371 C2358 0.962 . S
H2372 C2358 0.960 . S
H2373 C2359 0.961 . S
H2374 C2359 0.961 . S
H2375 C2359 0.961 . S
H2376 C2360 0.931 . S
H2377 C2365 0.930 . S
H2378 C2366 0.956 . S
H2379 C2366 0.961 . S
H2380 C2366 0.961 . S
H2381 C2367 0.958 . S
H2382 C2367 0.961 . S
H2383 C2367 0.960 . S
C2384 C2385 1.391 . S
C2384 C2386 1.394 . S
C2384 H2400 0.931 . S
C2385 C2384 1.391 . S
C2385 C2389 1.376 . S
C2386 C2384 1.394 . S
C2386 C2387 1.369 . S
C2386 C2390 1.531 . S
C2387 C2386 1.369 . S
C2387 C2388 1.410 1_545 S
C2387 C2395 1.503 1_545 S
C2388 C2387 1.410 1_565 S
C2388 C2389 1.392 1_565 S
C2388 C2391 1.511 . S
C2389 C2385 1.376 . S
C2389 C2388 1.392 1_545 S
C2389 H2401 0.929 . S
C2390 C2386 1.531 . S
C2390 H2402 0.960 . S
C2390 H2403 0.962 . S
C2390 H2404 0.960 . S
C2391 C2388 1.511 . S
C2391 H2405 0.961 . S
C2391 H2406 0.961 . S
C2391 H2407 0.961 . S
C2392 C2393 1.370 . S
C2392 C2394 1.363 . S
C2392 H2408 0.931 . S
C2393 C2392 1.370 . S
C2393 C2397 1.408 . S
C2394 C2392 1.363 . S
C2394 C2395 1.370 . S
C2394 C2398 1.524 . S
C2395 C2387 1.503 1_565 S
C2395 C2394 1.370 . S
C2395 C2396 1.403 . S
C2396 C2395 1.403 . S
C2396 C2397 1.404 . S
C2396 C2399 1.539 . S
C2397 C2393 1.408 . S
C2397 C2396 1.404 . S
C2397 H2409 0.930 . S
C2398 C2394 1.524 . S
C2398 H2410 0.956 . S
C2398 H2411 0.961 . S
C2398 H2412 0.961 . S
C2399 C2396 1.539 . S
C2399 H2413 0.958 1_565 S
C2399 H2414 0.961 . S
C2399 H2415 0.960 . S
H2400 C2384 0.931 . S
H2401 C2389 0.929 . S
H2402 C2390 0.960 . S
H2403 C2390 0.962 . S
H2404 C2390 0.960 . S
H2405 C2391 0.961 . S
H2406 C2391 0.961 . S
H2407 C2391 0.961 . S
H2408 C2392 0.931 . S
H2409 C2397 0.930 . S
H2410 C2398 0.956 . S
H2411 C2398 0.961 . S
H2412 C2398 0.961 . S
H2413 C2399 0.958 1_545 S
H2414 C2399 0.961 . S
H2415 C2399 0.960 . S
C2416 C2417 1.391 . S
C2416 C2418 1.394 . S
C2416 H2432 0.931 . S
C2417 C2416 1.391 . S
C2417 C2421 1.376 . S
C2418 C2416 1.394 . S
C2418 C2419 1.369 . S
C2418 C2422 1.531 . S
C2419 C2418 1.369 . S
C2419 C2420 1.410 . S
C2419 C2427 1.503 . S
C2420 C2419 1.410 . S
C2420 C2421 1.392 . S
C2420 C2423 1.511 . S
C2421 C2417 1.376 . S
C2421 C2420 1.392 . S
C2421 H2433 0.929 . S
C2422 C2418 1.531 . S
C2422 H2434 0.960 . S
C2422 H2435 0.962 . S
C2422 H2436 0.960 . S
C2423 C2420 1.511 . S
C2423 H2437 0.961 . S
C2423 H2438 0.961 . S
C2423 H2439 0.961 . S
C2424 C2425 1.370 . S
C2424 C2426 1.363 . S
C2424 H2440 0.931 . S
C2425 C2424 1.370 . S
C2425 C2429 1.408 . S
C2426 C2424 1.363 . S
C2426 C2427 1.370 . S
C2426 C2430 1.524 . S
C2427 C2419 1.503 . S
C2427 C2426 1.370 . S
C2427 C2428 1.403 . S
C2428 C2427 1.403 . S
C2428 C2429 1.404 . S
C2428 C2431 1.539 . S
C2429 C2425 1.408 . S
C2429 C2428 1.404 . S
C2429 H2441 0.930 1_565 S
C2430 C2426 1.524 . S
C2430 H2442 0.956 . S
C2430 H2443 0.961 . S
C2430 H2444 0.961 . S
C2431 C2428 1.539 . S
C2431 H2445 0.958 . S
C2431 H2446 0.961 1_565 S
C2431 H2447 0.960 . S
H2432 C2416 0.931 . S
H2433 C2421 0.929 . S
H2434 C2422 0.960 . S
H2435 C2422 0.962 . S
H2436 C2422 0.960 . S
H2437 C2423 0.961 . S
H2438 C2423 0.961 . S
H2439 C2423 0.961 . S
H2440 C2424 0.931 . S
H2441 C2429 0.930 1_545 S
H2442 C2430 0.956 . S
H2443 C2430 0.961 . S
H2444 C2430 0.961 . S
H2445 C2431 0.958 . S
H2446 C2431 0.961 1_545 S
H2447 C2431 0.960 . S
C2448 C2449 1.391 . S
C2448 C2450 1.394 . S
C2448 H2464 0.931 . S
C2449 C2448 1.391 . S
C2449 C2453 1.376 . S
C2450 C2448 1.394 . S
C2450 C2451 1.369 . S
C2450 C2454 1.531 . S
C2451 C2450 1.369 . S
C2451 C2452 1.410 . S
C2451 C2459 1.503 . S
C2452 C2451 1.410 . S
C2452 C2453 1.392 . S
C2452 C2455 1.511 . S
C2453 C2449 1.376 . S
C2453 C2452 1.392 . S
C2453 H2465 0.929 . S
C2454 C2450 1.531 . S
C2454 H2466 0.960 . S
C2454 H2467 0.962 . S
C2454 H2468 0.960 . S
C2455 C2452 1.511 . S
C2455 H2469 0.961 . S
C2455 H2470 0.961 . S
C2455 H2471 0.961 . S
C2456 C2457 1.370 . S
C2456 C2458 1.363 . S
C2456 H2472 0.931 . S
C2457 C2456 1.370 . S
C2457 C2461 1.408 . S
C2458 C2456 1.363 . S
C2458 C2459 1.370 . S
C2458 C2462 1.524 . S
C2459 C2451 1.503 . S
C2459 C2458 1.370 . S
C2459 C2460 1.403 . S
C2460 C2459 1.403 . S
C2460 C2461 1.404 . S
C2460 C2463 1.539 . S
C2461 C2457 1.408 . S
C2461 C2460 1.404 . S
C2461 H2473 0.930 . S
C2462 C2458 1.524 . S
C2462 H2474 0.956 . S
C2462 H2475 0.961 . S
C2462 H2476 0.961 . S
C2463 C2460 1.539 . S
C2463 H2477 0.958 . S
C2463 H2478 0.961 . S
C2463 H2479 0.960 . S
H2464 C2448 0.931 . S
H2465 C2453 0.929 . S
H2466 C2454 0.960 . S
H2467 C2454 0.962 . S
H2468 C2454 0.960 . S
H2469 C2455 0.961 . S
H2470 C2455 0.961 . S
H2471 C2455 0.961 . S
H2472 C2456 0.931 . S
H2473 C2461 0.930 . S
H2474 C2462 0.956 . S
H2475 C2462 0.961 . S
H2476 C2462 0.961 . S
H2477 C2463 0.958 . S
H2478 C2463 0.961 . S
H2479 C2463 0.960 . S
C2480 C2481 1.391 . S
C2480 C2482 1.394 . S
C2480 H2496 0.931 . S
C2481 C2480 1.391 . S
C2481 C2485 1.376 . S
C2482 C2480 1.394 . S
C2482 C2483 1.369 . S
C2482 C2486 1.531 . S
C2483 C2482 1.369 . S
C2483 C2484 1.410 . S
C2483 C2491 1.503 . S
C2484 C2483 1.410 . S
C2484 C2485 1.392 . S
C2484 C2487 1.511 . S
C2485 C2481 1.376 . S
C2485 C2484 1.392 . S
C2485 H2497 0.929 . S
C2486 C2482 1.531 . S
C2486 H2498 0.960 . S
C2486 H2499 0.962 . S
C2486 H2500 0.960 . S
C2487 C2484 1.511 . S
C2487 H2501 0.961 . S
C2487 H2502 0.961 . S
C2487 H2503 0.961 . S
C2488 C2489 1.370 . S
C2488 C2490 1.363 . S
C2488 H2504 0.931 . S
C2489 C2488 1.370 . S
C2489 C2493 1.408 . S
C2490 C2488 1.363 . S
C2490 C2491 1.370 . S
C2490 C2494 1.524 . S
C2491 C2483 1.503 . S
C2491 C2490 1.370 . S
C2491 C2492 1.403 . S
C2492 C2491 1.403 . S
C2492 C2493 1.404 . S
C2492 C2495 1.539 . S
C2493 C2489 1.408 . S
C2493 C2492 1.404 . S
C2493 H2505 0.930 . S
C2494 C2490 1.524 . S
C2494 H2506 0.956 . S
C2494 H2507 0.961 . S
C2494 H2508 0.961 . S
C2495 C2492 1.539 . S
C2495 H2509 0.958 . S
C2495 H2510 0.961 . S
C2495 H2511 0.960 . S
H2496 C2480 0.931 . S
H2497 C2485 0.929 . S
H2498 C2486 0.960 . S
H2499 C2486 0.962 . S
H2500 C2486 0.960 . S
H2501 C2487 0.961 . S
H2502 C2487 0.961 . S
H2503 C2487 0.961 . S
H2504 C2488 0.931 . S
H2505 C2493 0.930 . S
H2506 C2494 0.956 . S
H2507 C2494 0.961 . S
H2508 C2494 0.961 . S
H2509 C2495 0.958 . S
H2510 C2495 0.961 . S
H2511 C2495 0.960 . S
C2512 C2513 1.391 . S
C2512 C2514 1.394 . S
C2512 H2528 0.931 . S
C2513 C2512 1.391 . S
C2513 C2517 1.376 . S
C2514 C2512 1.394 . S
C2514 C2515 1.369 . S
C2514 C2518 1.531 . S
C2515 C2514 1.369 . S
C2515 C2516 1.410 . S
C2515 C2523 1.503 . S
C2516 C2515 1.410 . S
C2516 C2517 1.392 . S
C2516 C2519 1.511 . S
C2517 C2513 1.376 . S
C2517 C2516 1.392 . S
C2517 H2529 0.929 . S
C2518 C2514 1.531 . S
C2518 H2530 0.960 . S
C2518 H2531 0.962 . S
C2518 H2532 0.960 . S
C2519 C2516 1.511 . S
C2519 H2533 0.961 . S
C2519 H2534 0.961 . S
C2519 H2535 0.961 . S
C2520 C2521 1.370 . S
C2520 C2522 1.363 . S
C2520 H2536 0.931 . S
C2521 C2520 1.370 . S
C2521 C2525 1.408 . S
C2522 C2520 1.363 . S
C2522 C2523 1.370 . S
C2522 C2526 1.524 . S
C2523 C2515 1.503 . S
C2523 C2522 1.370 . S
C2523 C2524 1.403 . S
C2524 C2523 1.403 . S
C2524 C2525 1.404 . S
C2524 C2527 1.539 . S
C2525 C2521 1.408 . S
C2525 C2524 1.404 . S
C2525 H2537 0.930 . S
C2526 C2522 1.524 . S
C2526 H2538 0.956 . S
C2526 H2539 0.961 . S
C2526 H2540 0.961 . S
C2527 C2524 1.539 . S
C2527 H2541 0.958 . S
C2527 H2542 0.961 . S
C2527 H2543 0.960 . S
H2528 C2512 0.931 . S
H2529 C2517 0.929 . S
H2530 C2518 0.960 . S
H2531 C2518 0.962 . S
H2532 C2518 0.960 . S
H2533 C2519 0.961 . S
H2534 C2519 0.961 . S
H2535 C2519 0.961 . S
H2536 C2520 0.931 . S
H2537 C2525 0.930 . S
H2538 C2526 0.956 . S
H2539 C2526 0.961 . S
H2540 C2526 0.961 . S
H2541 C2527 0.958 . S
H2542 C2527 0.961 . S
H2543 C2527 0.960 . S
C2544 C2545 1.391 . S
C2544 C2546 1.394 . S
C2544 H2560 0.931 . S
C2545 C2544 1.391 . S
C2545 C2549 1.376 . S
C2546 C2544 1.394 . S
C2546 C2547 1.369 . S
C2546 C2550 1.531 . S
C2547 C2546 1.369 . S
C2547 C2548 1.410 . S
C2547 C2555 1.503 . S
C2548 C2547 1.410 . S
C2548 C2549 1.392 . S
C2548 C2551 1.511 . S
C2549 C2545 1.376 . S
C2549 C2548 1.392 . S
C2549 H2561 0.929 . S
C2550 C2546 1.531 . S
C2550 H2562 0.960 . S
C2550 H2563 0.962 . S
C2550 H2564 0.960 . S
C2551 C2548 1.511 . S
C2551 H2565 0.961 . S
C2551 H2566 0.961 . S
C2551 H2567 0.961 . S
C2552 C2553 1.370 . S
C2552 C2554 1.363 . S
C2552 H2568 0.931 . S
C2553 C2552 1.370 . S
C2553 C2557 1.408 . S
C2554 C2552 1.363 . S
C2554 C2555 1.370 . S
C2554 C2558 1.524 . S
C2555 C2547 1.503 . S
C2555 C2554 1.370 . S
C2555 C2556 1.403 . S
C2556 C2555 1.403 . S
C2556 C2557 1.404 . S
C2556 C2559 1.539 . S
C2557 C2553 1.408 . S
C2557 C2556 1.404 . S
C2557 H2569 0.930 . S
C2558 C2554 1.524 . S
C2558 H2570 0.956 . S
C2558 H2571 0.961 . S
C2558 H2572 0.961 . S
C2559 C2556 1.539 . S
C2559 H2573 0.958 . S
C2559 H2574 0.961 . S
C2559 H2575 0.960 . S
H2560 C2544 0.931 . S
H2561 C2549 0.929 . S
H2562 C2550 0.960 . S
H2563 C2550 0.962 . S
H2564 C2550 0.960 . S
H2565 C2551 0.961 . S
H2566 C2551 0.961 . S
H2567 C2551 0.961 . S
H2568 C2552 0.931 . S
H2569 C2557 0.930 . S
H2570 C2558 0.956 . S
H2571 C2558 0.961 . S
H2572 C2558 0.961 . S
H2573 C2559 0.958 . S
H2574 C2559 0.961 . S
H2575 C2559 0.960 . S
C2576 C2577 1.391 . S
C2576 C2578 1.394 . S
C2576 H2592 0.931 . S
C2577 C2576 1.391 . S
C2577 C2581 1.357 1_456 S
C2578 C2576 1.394 . S
C2578 C2579 1.369 . S
C2578 C2582 1.531 . S
C2579 C2578 1.369 . S
C2579 C2580 1.410 1_456 S
C2579 C2587 1.503 1_556 S
C2580 C2579 1.410 1_654 S
C2580 C2581 1.392 . S
C2580 C2583 1.511 . S
C2581 C2577 1.357 1_654 S
C2581 C2580 1.392 . S
C2581 H2593 0.950 . S
C2582 C2578 1.531 . S
C2582 H2594 0.960 . S
C2582 H2595 0.962 . S
C2582 H2596 0.960 . S
C2583 C2580 1.511 . S
C2583 H2597 0.961 . S
C2583 H2598 0.961 . S
C2583 H2599 0.961 . S
C2584 C2585 1.370 . S
C2584 C2586 1.363 . S
C2584 H2600 0.931 . S
C2585 C2584 1.370 . S
C2585 C2589 1.408 1_554 S
C2586 C2584 1.363 . S
C2586 C2587 1.370 . S
C2586 C2590 1.524 . S
C2587 C2579 1.503 1_554 S
C2587 C2586 1.370 . S
C2587 C2588 1.403 1_554 S
C2588 C2587 1.403 1_556 S
C2588 C2589 1.404 . S
C2588 C2591 1.539 1_455 S
C2589 C2585 1.408 1_556 S
C2589 C2588 1.404 . S
C2589 H2601 0.930 1_455 S
C2590 C2586 1.524 . S
C2590 H2602 0.956 . S
C2590 H2603 0.961 . S
C2590 H2604 0.961 . S
C2591 C2588 1.539 1_655 S
C2591 H2605 0.958 . S
C2591 H2606 0.961 . S
C2591 H2607 0.960 . S
H2592 C2576 0.931 . S
H2593 C2581 0.950 . S
H2594 C2582 0.960 . S
H2595 C2582 0.962 . S
H2596 C2582 0.960 . S
H2597 C2583 0.961 . S
H2598 C2583 0.961 . S
H2599 C2583 0.961 . S
H2600 C2584 0.931 . S
H2601 C2589 0.930 1_655 S
H2602 C2590 0.956 . S
H2603 C2590 0.961 . S
H2604 C2590 0.961 . S
H2605 C2591 0.958 . S
H2606 C2591 0.961 . S
H2607 C2591 0.960 . S
C2608 C2609 1.391 1_655 S
C2608 C2610 1.394 . S
C2608 H2624 0.931 1_655 S
C2609 C2608 1.391 1_455 S
C2609 C2613 1.376 . S
C2610 C2608 1.394 . S
C2610 C2611 1.369 . S
C2610 C2614 1.531 . S
C2611 C2610 1.369 . S
C2611 C2612 1.410 . S
C2611 C2619 1.503 . S
C2612 C2611 1.410 . S
C2612 C2613 1.392 1_655 S
C2612 C2615 1.511 . S
C2613 C2609 1.376 . S
C2613 C2612 1.392 1_455 S
C2613 H2625 0.929 . S
C2614 C2610 1.531 . S
C2614 H2626 0.960 . S
C2614 H2627 0.962 . S
C2614 H2628 0.960 . S
C2615 C2612 1.511 . S
C2615 H2629 0.961 . S
C2615 H2630 0.961 . S
C2615 H2631 0.961 . S
C2616 C2617 1.370 . S
C2616 C2618 1.363 . S
C2616 H2632 0.931 . S
C2617 C2616 1.370 . S
C2617 C2621 1.408 . S
C2618 C2616 1.363 . S
C2618 C2619 1.370 . S
C2618 C2622 1.524 . S
C2619 C2611 1.503 . S
C2619 C2618 1.370 . S
C2619 C2620 1.403 . S
C2620 C2619 1.403 . S
C2620 C2621 1.404 . S
C2620 C2623 1.539 . S
C2621 C2617 1.408 . S
C2621 C2620 1.404 . S
C2621 H2633 0.930 . S
C2622 C2618 1.524 . S
C2622 H2634 0.956 . S
C2622 H2635 0.961 . S
C2622 H2636 0.961 . S
C2623 C2620 1.539 . S
C2623 H2637 0.958 . S
C2623 H2638 0.961 . S
C2623 H2639 0.960 . S
H2624 C2608 0.931 1_455 S
H2625 C2613 0.929 . S
H2626 C2614 0.960 . S
H2627 C2614 0.962 . S
H2628 C2614 0.960 . S
H2629 C2615 0.961 . S
H2630 C2615 0.961 . S
H2631 C2615 0.961 . S
H2632 C2616 0.931 . S
H2633 C2621 0.930 . S
H2634 C2622 0.956 . S
H2635 C2622 0.961 . S
H2636 C2622 0.961 . S
H2637 C2623 0.958 . S
H2638 C2623 0.961 . S
H2639 C2623 0.960 . S
C2640 C2641 1.391 . S
C2640 C2642 1.394 . S
C2640 H2656 0.931 . S
C2641 C2640 1.391 . S
C2641 C2645 1.376 . S
C2642 C2640 1.394 . S
C2642 C2643 1.369 . S
C2642 C2646 1.531 . S
C2643 C2642 1.369 . S
C2643 C2644 1.410 . S
C2643 C2651 1.503 . S
C2644 C2643 1.410 . S
C2644 C2645 1.392 . S
C2644 C2647 1.511 . S
C2645 C2641 1.376 . S
C2645 C2644 1.392 . S
C2645 H2657 0.929 . S
C2646 C2642 1.531 . S
C2646 H2658 0.960 . S
C2646 H2659 0.962 . S
C2646 H2660 0.960 . S
C2647 C2644 1.511 . S
C2647 H2661 0.961 . S
C2647 H2662 0.961 . S
C2647 H2663 0.961 . S
C2648 C2649 1.370 . S
C2648 C2650 1.363 . S
C2648 H2664 0.931 . S
C2649 C2648 1.370 . S
C2649 C2653 1.408 . S
C2650 C2648 1.363 . S
C2650 C2651 1.370 . S
C2650 C2654 1.524 . S
C2651 C2643 1.503 . S
C2651 C2650 1.370 . S
C2651 C2652 1.403 . S
C2652 C2651 1.403 . S
C2652 C2653 1.404 . S
C2652 C2655 1.539 . S
C2653 C2649 1.408 . S
C2653 C2652 1.404 . S
C2653 H2665 0.930 . S
C2654 C2650 1.524 . S
C2654 H2666 0.956 . S
C2654 H2667 0.961 . S
C2654 H2668 0.961 . S
C2655 C2652 1.539 . S
C2655 H2669 0.958 . S
C2655 H2670 0.961 . S
C2655 H2671 0.960 . S
H2656 C2640 0.931 . S
H2657 C2645 0.929 . S
H2658 C2646 0.960 . S
H2659 C2646 0.962 . S
H2660 C2646 0.960 . S
H2661 C2647 0.961 . S
H2662 C2647 0.961 . S
H2663 C2647 0.961 . S
H2664 C2648 0.931 . S
H2665 C2653 0.930 . S
H2666 C2654 0.956 . S
H2667 C2654 0.961 . S
H2668 C2654 0.961 . S
H2669 C2655 0.958 . S
H2670 C2655 0.961 . S
H2671 C2655 0.960 . S
C2672 C2673 1.391 . S
C2672 C2674 1.394 . S
C2672 H2688 0.931 . S
C2673 C2672 1.391 . S
C2673 C2677 1.376 . S
C2674 C2672 1.394 . S
C2674 C2675 1.369 . S
C2674 C2678 1.531 . S
C2675 C2674 1.369 . S
C2675 C2676 1.410 . S
C2675 C2683 1.503 . S
C2676 C2675 1.410 . S
C2676 C2677 1.392 . S
C2676 C2679 1.511 . S
C2677 C2673 1.376 . S
C2677 C2676 1.392 . S
C2677 H2689 0.929 . S
C2678 C2674 1.531 . S
C2678 H2690 0.960 . S
C2678 H2691 0.962 . S
C2678 H2692 0.960 . S
C2679 C2676 1.511 . S
C2679 H2693 0.961 . S
C2679 H2694 0.961 . S
C2679 H2695 0.961 . S
C2680 C2681 1.370 . S
C2680 C2682 1.363 . S
C2680 H2696 0.931 . S
C2681 C2680 1.370 . S
C2681 C2685 1.408 . S
C2682 C2680 1.363 . S
C2682 C2683 1.370 . S
C2682 C2686 1.524 . S
C2683 C2675 1.503 . S
C2683 C2682 1.370 . S
C2683 C2684 1.403 . S
C2684 C2683 1.403 . S
C2684 C2685 1.404 . S
C2684 C2687 1.539 . S
C2685 C2681 1.408 . S
C2685 C2684 1.404 . S
C2685 H2697 0.930 . S
C2686 C2682 1.524 . S
C2686 H2698 0.956 . S
C2686 H2699 0.961 . S
C2686 H2700 0.961 . S
C2687 C2684 1.539 . S
C2687 H2701 0.958 . S
C2687 H2702 0.961 . S
C2687 H2703 0.960 . S
H2688 C2672 0.931 . S
H2689 C2677 0.929 . S
H2690 C2678 0.960 . S
H2691 C2678 0.962 . S
H2692 C2678 0.960 . S
H2693 C2679 0.961 . S
H2694 C2679 0.961 . S
H2695 C2679 0.961 . S
H2696 C2680 0.931 . S
H2697 C2685 0.930 . S
H2698 C2686 0.956 . S
H2699 C2686 0.961 . S
H2700 C2686 0.961 . S
H2701 C2687 0.958 . S
H2702 C2687 0.961 . S
H2703 C2687 0.960 . S
C2704 C2705 1.391 . S
C2704 C2706 1.394 . S
C2704 H2720 0.931 . S
C2705 C2704 1.391 . S
C2705 C2709 1.376 1_455 S
C2706 C2704 1.394 . S
C2706 C2707 1.369 . S
C2706 C2710 1.531 . S
C2707 C2706 1.369 . S
C2707 C2708 1.410 1_455 S
C2707 C2715 1.503 . S
C2708 C2707 1.410 1_655 S
C2708 C2709 1.392 . S
C2708 C2711 1.511 . S
C2709 C2705 1.376 1_655 S
C2709 C2708 1.392 . S
C2709 H2721 0.929 . S
C2710 C2706 1.531 . S
C2710 H2722 0.960 . S
C2710 H2723 0.962 . S
C2710 H2724 0.960 . S
C2711 C2708 1.511 . S
C2711 H2725 0.961 . S
C2711 H2726 0.961 . S
C2711 H2727 0.961 . S
C2712 C2713 1.370 . S
C2712 C2714 1.363 . S
C2712 H2728 0.931 . S
C2713 C2712 1.370 . S
C2713 C2717 1.408 . S
C2714 C2712 1.363 . S
C2714 C2715 1.370 . S
C2714 C2718 1.524 . S
C2715 C2707 1.503 . S
C2715 C2714 1.370 . S
C2715 C2716 1.403 . S
C2716 C2715 1.403 . S
C2716 C2717 1.404 . S
C2716 C2719 1.539 . S
C2717 C2713 1.408 . S
C2717 C2716 1.404 . S
C2717 H2729 0.930 . S
C2718 C2714 1.524 . S
C2718 H2730 0.956 . S
C2718 H2731 0.961 . S
C2718 H2732 0.961 . S
C2719 C2716 1.539 . S
C2719 H2733 0.958 . S
C2719 H2734 0.961 1_455 S
C2719 H2735 0.964 1_455 S
H2720 C2704 0.931 . S
H2721 C2709 0.929 . S
H2722 C2710 0.960 . S
H2723 C2710 0.962 . S
H2724 C2710 0.960 . S
H2725 C2711 0.961 . S
H2726 C2711 0.961 . S
H2727 C2711 0.961 . S
H2728 C2712 0.931 . S
H2729 C2717 0.930 . S
H2730 C2718 0.956 . S
H2731 C2718 0.961 . S
H2732 C2718 0.961 . S
H2733 C2719 0.958 . S
H2734 C2719 0.961 1_655 S
H2735 C2719 0.964 1_655 S
C2736 C2737 1.391 . S
C2736 C2738 1.394 . S
C2736 H2752 0.931 . S
C2737 C2736 1.391 . S
C2737 C2741 1.376 . S
C2738 C2736 1.394 . S
C2738 C2739 1.369 . S
C2738 C2742 1.531 . S
C2739 C2738 1.369 . S
C2739 C2740 1.410 . S
C2739 C2747 1.503 . S
C2740 C2739 1.410 . S
C2740 C2741 1.392 . S
C2740 C2743 1.511 . S
C2741 C2737 1.376 . S
C2741 C2740 1.392 . S
C2741 H2753 0.929 . S
C2742 C2738 1.531 . S
C2742 H2754 0.960 . S
C2742 H2755 0.962 . S
C2742 H2756 0.960 . S
C2743 C2740 1.511 . S
C2743 H2757 0.961 . S
C2743 H2758 0.961 . S
C2743 H2759 0.961 . S
C2744 C2745 1.370 . S
C2744 C2746 1.363 . S
C2744 H2760 0.931 . S
C2745 C2744 1.370 . S
C2745 C2749 1.408 . S
C2746 C2744 1.363 . S
C2746 C2747 1.370 . S
C2746 C2750 1.524 . S
C2747 C2739 1.503 . S
C2747 C2746 1.370 . S
C2747 C2748 1.403 . S
C2748 C2747 1.403 . S
C2748 C2749 1.404 . S
C2748 C2751 1.539 . S
C2749 C2745 1.408 . S
C2749 C2748 1.404 . S
C2749 H2761 0.930 . S
C2750 C2746 1.524 . S
C2750 H2762 0.956 . S
C2750 H2763 0.961 . S
C2750 H2764 0.961 . S
C2751 C2748 1.539 . S
C2751 H2765 0.958 . S
C2751 H2766 0.961 . S
C2751 H2767 0.960 . S
H2752 C2736 0.931 . S
H2753 C2741 0.929 . S
H2754 C2742 0.960 . S
H2755 C2742 0.962 . S
H2756 C2742 0.960 . S
H2757 C2743 0.961 . S
H2758 C2743 0.961 . S
H2759 C2743 0.961 . S
H2760 C2744 0.931 . S
H2761 C2749 0.930 . S
H2762 C2750 0.956 . S
H2763 C2750 0.961 . S
H2764 C2750 0.961 . S
H2765 C2751 0.958 . S
H2766 C2751 0.961 . S
H2767 C2751 0.960 . S
C2768 C2769 1.391 . S
C2768 C2770 1.394 . S
C2768 H2784 0.931 . S
C2769 C2768 1.391 . S
C2769 C2773 1.376 . S
C2770 C2768 1.394 . S
C2770 C2771 1.369 . S
C2770 C2774 1.531 . S
C2771 C2770 1.369 . S
C2771 C2772 1.410 . S
C2771 C2779 1.503 . S
C2772 C2771 1.410 . S
C2772 C2773 1.392 . S
C2772 C2775 1.511 . S
C2773 C2769 1.376 . S
C2773 C2772 1.392 . S
C2773 H2785 0.929 . S
C2774 C2770 1.531 . S
C2774 H2786 0.960 . S
C2774 H2787 0.962 . S
C2774 H2788 0.960 . S
C2775 C2772 1.511 . S
C2775 H2789 0.961 . S
C2775 H2790 0.961 . S
C2775 H2791 0.961 . S
C2776 C2777 1.370 . S
C2776 C2778 1.363 . S
C2776 H2792 0.931 . S
C2777 C2776 1.370 . S
C2777 C2781 1.408 . S
C2778 C2776 1.363 . S
C2778 C2779 1.370 . S
C2778 C2782 1.524 . S
C2779 C2771 1.503 . S
C2779 C2778 1.370 . S
C2779 C2780 1.403 . S
C2780 C2779 1.403 . S
C2780 C2781 1.404 . S
C2780 C2783 1.539 . S
C2781 C2777 1.408 . S
C2781 C2780 1.404 . S
C2781 H2793 0.930 . S
C2782 C2778 1.524 . S
C2782 H2794 0.956 . S
C2782 H2795 0.961 . S
C2782 H2796 0.961 . S
C2783 C2780 1.539 . S
C2783 H2797 0.958 . S
C2783 H2798 0.961 . S
C2783 H2799 0.960 . S
H2784 C2768 0.931 . S
H2785 C2773 0.929 . S
H2786 C2774 0.960 . S
H2787 C2774 0.962 . S
H2788 C2774 0.960 . S
H2789 C2775 0.961 . S
H2790 C2775 0.961 . S
H2791 C2775 0.961 . S
H2792 C2776 0.931 . S
H2793 C2781 0.930 . S
H2794 C2782 0.956 . S
H2795 C2782 0.961 . S
H2796 C2782 0.961 . S
H2797 C2783 0.958 . S
H2798 C2783 0.961 . S
H2799 C2783 0.960 . S
C2800 C2801 1.391 1_556 S
C2800 C2802 1.394 . S
C2800 H2816 0.931 . S
C2801 C2800 1.391 1_554 S
C2801 C2805 1.376 . S
C2802 C2800 1.394 . S
C2802 C2803 1.369 . S
C2802 C2806 1.531 . S
C2803 C2802 1.369 . S
C2803 C2804 1.395 1_556 S
C2803 C2811 1.503 . S
C2804 C2803 1.395 1_554 S
C2804 C2805 1.407 . S
C2804 C2807 1.511 . S
C2805 C2801 1.376 . S
C2805 C2804 1.407 . S
C2805 H2817 0.929 . S
C2806 C2802 1.531 . S
C2806 H2818 0.960 . S
C2806 H2819 0.962 . S
C2806 H2820 0.960 . S
C2807 C2804 1.511 . S
C2807 H2821 0.961 . S
C2807 H2822 0.961 1_554 S
C2807 H2823 0.961 1_554 S
C2808 C2809 1.370 . S
C2808 C2810 1.363 . S
C2808 H2824 0.931 . S
C2809 C2808 1.370 . S
C2809 C2813 1.408 . S
C2810 C2808 1.363 . S
C2810 C2811 1.370 . S
C2810 C2814 1.524 . S
C2811 C2803 1.503 . S
C2811 C2810 1.370 . S
C2811 C2812 1.403 . S
C2812 C2811 1.403 . S
C2812 C2813 1.404 . S
C2812 C2815 1.539 . S
C2813 C2809 1.408 . S
C2813 C2812 1.404 . S
C2813 H2825 0.930 . S
C2814 C2810 1.524 . S
C2814 H2826 0.956 . S
C2814 H2827 0.961 1_556 S
C2814 H2828 0.961 . S
C2815 C2812 1.539 . S
C2815 H2829 0.958 . S
C2815 H2830 0.961 . S
C2815 H2831 0.960 . S
H2816 C2800 0.931 . S
H2817 C2805 0.929 . S
H2818 C2806 0.960 . S
H2819 C2806 0.962 . S
H2820 C2806 0.960 . S
H2821 C2807 0.961 . S
H2822 C2807 0.961 1_556 S
H2823 C2807 0.961 1_556 S
H2824 C2808 0.931 . S
H2825 C2813 0.930 . S
H2826 C2814 0.956 . S
H2827 C2814 0.961 1_554 S
H2828 C2814 0.961 . S
H2829 C2815 0.958 . S
H2830 C2815 0.961 . S
H2831 C2815 0.960 . S
C2832 C2833 1.391 . S
C2832 C2834 1.394 . S
C2832 H2848 0.931 . S
C2833 C2832 1.391 . S
C2833 C2837 1.376 . S
C2834 C2832 1.394 . S
C2834 C2835 1.369 . S
C2834 C2838 1.531 . S
C2835 C2834 1.369 . S
C2835 C2836 1.410 . S
C2835 C2843 1.503 . S
C2836 C2835 1.410 . S
C2836 C2837 1.392 . S
C2836 C2839 1.511 . S
C2837 C2833 1.376 . S
C2837 C2836 1.392 . S
C2837 H2849 0.929 . S
C2838 C2834 1.531 . S
C2838 H2850 0.960 . S
C2838 H2851 0.962 . S
C2838 H2852 0.960 . S
C2839 C2836 1.511 . S
C2839 H2853 0.961 . S
C2839 H2854 0.961 . S
C2839 H2855 0.961 . S
C2840 C2841 1.370 . S
C2840 C2842 1.363 . S
C2840 H2856 0.931 . S
C2841 C2840 1.370 . S
C2841 C2845 1.408 . S
C2842 C2840 1.363 . S
C2842 C2843 1.370 . S
C2842 C2846 1.524 . S
C2843 C2835 1.503 . S
C2843 C2842 1.370 . S
C2843 C2844 1.403 . S
C2844 C2843 1.403 . S
C2844 C2845 1.404 . S
C2844 C2847 1.539 . S
C2845 C2841 1.408 . S
C2845 C2844 1.404 . S
C2845 H2857 0.930 . S
C2846 C2842 1.524 . S
C2846 H2858 0.956 . S
C2846 H2859 0.961 . S
C2846 H2860 0.961 . S
C2847 C2844 1.539 . S
C2847 H2861 0.958 . S
C2847 H2862 0.961 . S
C2847 H2863 0.960 . S
H2848 C2832 0.931 . S
H2849 C2837 0.929 . S
H2850 C2838 0.960 . S
H2851 C2838 0.962 . S
H2852 C2838 0.960 . S
H2853 C2839 0.961 . S
H2854 C2839 0.961 . S
H2855 C2839 0.961 . S
H2856 C2840 0.931 . S
H2857 C2845 0.930 . S
H2858 C2846 0.956 . S
H2859 C2846 0.961 . S
H2860 C2846 0.961 . S
H2861 C2847 0.958 . S
H2862 C2847 0.961 . S
H2863 C2847 0.960 . S
C2864 C2865 1.391 . S
C2864 C2866 1.394 . S
C2864 H2880 0.931 . S
C2865 C2864 1.391 . S
C2865 C2869 1.376 . S
C2866 C2864 1.394 . S
C2866 C2867 1.369 . S
C2866 C2870 1.531 . S
C2867 C2866 1.369 . S
C2867 C2868 1.410 . S
C2867 C2875 1.503 . S
C2868 C2867 1.410 . S
C2868 C2869 1.392 . S
C2868 C2871 1.511 . S
C2869 C2865 1.376 . S
C2869 C2868 1.392 . S
C2869 H2881 0.929 . S
C2870 C2866 1.531 . S
C2870 H2882 0.960 . S
C2870 H2883 0.962 . S
C2870 H2884 0.960 . S
C2871 C2868 1.511 . S
C2871 H2885 0.961 . S
C2871 H2886 0.961 . S
C2871 H2887 0.961 . S
C2872 C2873 1.370 . S
C2872 C2874 1.363 . S
C2872 H2888 0.931 . S
C2873 C2872 1.370 . S
C2873 C2877 1.408 . S
C2874 C2872 1.363 . S
C2874 C2875 1.370 . S
C2874 C2878 1.524 . S
C2875 C2867 1.503 . S
C2875 C2874 1.370 . S
C2875 C2876 1.403 . S
C2876 C2875 1.403 . S
C2876 C2877 1.404 . S
C2876 C2879 1.539 . S
C2877 C2873 1.408 . S
C2877 C2876 1.404 . S
C2877 H2889 0.930 . S
C2878 C2874 1.524 . S
C2878 H2890 0.956 . S
C2878 H2891 0.961 . S
C2878 H2892 0.961 . S
C2879 C2876 1.539 . S
C2879 H2893 0.958 . S
C2879 H2894 0.961 . S
C2879 H2895 0.960 . S
H2880 C2864 0.931 . S
H2881 C2869 0.929 . S
H2882 C2870 0.960 . S
H2883 C2870 0.962 . S
H2884 C2870 0.960 . S
H2885 C2871 0.961 . S
H2886 C2871 0.961 . S
H2887 C2871 0.961 . S
H2888 C2872 0.931 . S
H2889 C2877 0.930 . S
H2890 C2878 0.956 . S
H2891 C2878 0.961 . S
H2892 C2878 0.961 . S
H2893 C2879 0.958 . S
H2894 C2879 0.961 . S
H2895 C2879 0.960 . S
C2896 C2897 1.391 . S
C2896 C2898 1.394 . S
C2896 H2912 0.931 . S
C2897 C2896 1.391 . S
C2897 C2901 1.376 . S
C2898 C2896 1.394 . S
C2898 C2899 1.369 . S
C2898 C2902 1.531 . S
C2899 C2898 1.369 . S
C2899 C2900 1.410 . S
C2899 C2907 1.503 . S
C2900 C2899 1.410 . S
C2900 C2901 1.392 . S
C2900 C2903 1.511 . S
C2901 C2897 1.376 . S
C2901 C2900 1.392 . S
C2901 H2913 0.929 . S
C2902 C2898 1.531 . S
C2902 H2914 0.960 . S
C2902 H2915 0.962 . S
C2902 H2916 0.960 . S
C2903 C2900 1.511 . S
C2903 H2917 0.961 . S
C2903 H2918 0.961 . S
C2903 H2919 0.961 . S
C2904 C2905 1.370 . S
C2904 C2906 1.363 . S
C2904 H2920 0.931 . S
C2905 C2904 1.370 . S
C2905 C2909 1.408 . S
C2906 C2904 1.363 . S
C2906 C2907 1.370 . S
C2906 C2910 1.524 . S
C2907 C2899 1.503 . S
C2907 C2906 1.370 . S
C2907 C2908 1.403 . S
C2908 C2907 1.403 . S
C2908 C2909 1.404 . S
C2908 C2911 1.539 . S
C2909 C2905 1.408 . S
C2909 C2908 1.404 . S
C2909 H2921 0.930 . S
C2910 C2906 1.524 . S
C2910 H2922 0.956 . S
C2910 H2923 0.961 . S
C2910 H2924 0.961 . S
C2911 C2908 1.539 . S
C2911 H2925 0.958 . S
C2911 H2926 0.961 . S
C2911 H2927 0.960 . S
H2912 C2896 0.931 . S
H2913 C2901 0.929 . S
H2914 C2902 0.960 . S
H2915 C2902 0.962 . S
H2916 C2902 0.960 . S
H2917 C2903 0.961 . S
H2918 C2903 0.961 . S
H2919 C2903 0.961 . S
H2920 C2904 0.931 . S
H2921 C2909 0.930 . S
H2922 C2910 0.956 . S
H2923 C2910 0.961 . S
H2924 C2910 0.961 . S
H2925 C2911 0.958 . S
H2926 C2911 0.961 . S
H2927 C2911 0.960 . S
C2928 C2929 1.391 . S
C2928 C2930 1.394 . S
C2928 H2944 0.931 . S
C2929 C2928 1.391 . S
C2929 C2933 1.376 . S
C2930 C2928 1.394 . S
C2930 C2931 1.369 . S
C2930 C2934 1.531 . S
C2931 C2930 1.369 . S
C2931 C2932 1.410 . S
C2931 C2939 1.503 . S
C2932 C2931 1.410 . S
C2932 C2933 1.392 . S
C2932 C2935 1.511 . S
C2933 C2929 1.376 . S
C2933 C2932 1.392 . S
C2933 H2945 0.929 . S
C2934 C2930 1.531 . S
C2934 H2946 0.960 . S
C2934 H2947 0.962 . S
C2934 H2948 0.960 . S
C2935 C2932 1.511 . S
C2935 H2949 0.961 . S
C2935 H2950 0.961 . S
C2935 H2951 0.961 . S
C2936 C2937 1.370 . S
C2936 C2938 1.363 . S
C2936 H2952 0.931 . S
C2937 C2936 1.370 . S
C2937 C2941 1.408 . S
C2938 C2936 1.363 . S
C2938 C2939 1.370 . S
C2938 C2942 1.524 . S
C2939 C2931 1.503 . S
C2939 C2938 1.370 . S
C2939 C2940 1.403 . S
C2940 C2939 1.403 . S
C2940 C2941 1.404 . S
C2940 C2943 1.539 . S
C2941 C2937 1.408 . S
C2941 C2940 1.404 . S
C2941 H2953 0.930 . S
C2942 C2938 1.524 . S
C2942 H2954 0.956 . S
C2942 H2955 0.961 . S
C2942 H2956 0.961 . S
C2943 C2940 1.539 . S
C2943 H2957 0.958 . S
C2943 H2958 0.961 . S
C2943 H2959 0.960 . S
H2944 C2928 0.931 . S
H2945 C2933 0.929 . S
H2946 C2934 0.960 . S
H2947 C2934 0.962 . S
H2948 C2934 0.960 . S
H2949 C2935 0.961 . S
H2950 C2935 0.961 . S
H2951 C2935 0.961 . S
H2952 C2936 0.931 . S
H2953 C2941 0.930 . S
H2954 C2942 0.956 . S
H2955 C2942 0.961 . S
H2956 C2942 0.961 . S
H2957 C2943 0.958 . S
H2958 C2943 0.961 . S
H2959 C2943 0.960 . S
C2960 C2961 1.391 . S
C2960 C2962 1.394 . S
C2960 H2976 0.931 . S
C2961 C2960 1.391 . S
C2961 C2965 1.376 . S
C2962 C2960 1.394 . S
C2962 C2963 1.369 . S
C2962 C2966 1.531 . S
C2963 C2962 1.369 . S
C2963 C2964 1.410 . S
C2963 C2971 1.503 . S
C2964 C2963 1.410 . S
C2964 C2965 1.392 . S
C2964 C2967 1.511 . S
C2965 C2961 1.376 . S
C2965 C2964 1.392 . S
C2965 H2977 0.929 . S
C2966 C2962 1.531 . S
C2966 H2978 0.960 . S
C2966 H2979 0.962 . S
C2966 H2980 0.960 . S
C2967 C2964 1.511 . S
C2967 H2981 0.961 . S
C2967 H2982 0.961 . S
C2967 H2983 0.961 . S
C2968 C2969 1.370 . S
C2968 C2970 1.363 . S
C2968 H2984 0.931 . S
C2969 C2968 1.370 . S
C2969 C2973 1.408 . S
C2970 C2968 1.363 . S
C2970 C2971 1.370 . S
C2970 C2974 1.524 . S
C2971 C2963 1.503 . S
C2971 C2970 1.370 . S
C2971 C2972 1.403 . S
C2972 C2971 1.403 . S
C2972 C2973 1.404 . S
C2972 C2975 1.539 . S
C2973 C2969 1.408 . S
C2973 C2972 1.404 . S
C2973 H2985 0.930 . S
C2974 C2970 1.524 . S
C2974 H2986 0.956 . S
C2974 H2987 0.961 . S
C2974 H2988 0.961 . S
C2975 C2972 1.539 . S
C2975 H2989 0.958 . S
C2975 H2990 0.961 . S
C2975 H2991 0.960 . S
H2976 C2960 0.931 . S
H2977 C2965 0.929 . S
H2978 C2966 0.960 . S
H2979 C2966 0.962 . S
H2980 C2966 0.960 . S
H2981 C2967 0.961 . S
H2982 C2967 0.961 . S
H2983 C2967 0.961 . S
H2984 C2968 0.931 . S
H2985 C2973 0.930 . S
H2986 C2974 0.956 . S
H2987 C2974 0.961 . S
H2988 C2974 0.961 . S
H2989 C2975 0.958 . S
H2990 C2975 0.961 . S
H2991 C2975 0.960 . S
C2992 C2993 1.391 . S
C2992 C2994 1.394 . S
C2992 H3008 0.931 . S
C2993 C2992 1.391 . S
C2993 C2997 1.376 . S
C2994 C2992 1.394 . S
C2994 C2995 1.369 . S
C2994 C2998 1.531 . S
C2995 C2994 1.369 . S
C2995 C2996 1.410 . S
C2995 C3003 1.503 . S
C2996 C2995 1.410 . S
C2996 C2997 1.392 . S
C2996 C2999 1.511 . S
C2997 C2993 1.376 . S
C2997 C2996 1.392 . S
C2997 H3009 0.929 . S
C2998 C2994 1.531 . S
C2998 H3010 0.960 . S
C2998 H3011 0.962 . S
C2998 H3012 0.960 . S
C2999 C2996 1.511 . S
C2999 H3013 0.961 . S
C2999 H3014 0.961 . S
C2999 H3015 0.961 . S
C3000 C3001 1.370 . S
C3000 C3002 1.363 . S
C3000 H3016 0.931 . S
C3001 C3000 1.370 . S
C3001 C3005 1.408 . S
C3002 C3000 1.363 . S
C3002 C3003 1.370 . S
C3002 C3006 1.524 . S
C3003 C2995 1.503 . S
C3003 C3002 1.370 . S
C3003 C3004 1.403 . S
C3004 C3003 1.403 . S
C3004 C3005 1.404 . S
C3004 C3007 1.539 . S
C3005 C3001 1.408 . S
C3005 C3004 1.404 . S
C3005 H3017 0.930 . S
C3006 C3002 1.524 . S
C3006 H3018 0.956 . S
C3006 H3019 0.961 . S
C3006 H3020 0.961 . S
C3007 C3004 1.539 . S
C3007 H3021 0.958 . S
C3007 H3022 0.961 . S
C3007 H3023 0.960 . S
H3008 C2992 0.931 . S
H3009 C2997 0.929 . S
H3010 C2998 0.960 . S
H3011 C2998 0.962 . S
H3012 C2998 0.960 . S
H3013 C2999 0.961 . S
H3014 C2999 0.961 . S
H3015 C2999 0.961 . S
H3016 C3000 0.931 . S
H3017 C3005 0.930 . S
H3018 C3006 0.956 . S
H3019 C3006 0.961 . S
H3020 C3006 0.961 . S
H3021 C3007 0.958 . S
H3022 C3007 0.961 . S
H3023 C3007 0.960 . S
C3024 C3025 1.391 . S
C3024 C3026 1.394 . S
C3024 H3040 0.931 . S
C3025 C3024 1.391 . S
C3025 C3029 1.376 . S
C3026 C3024 1.394 . S
C3026 C3027 1.369 . S
C3026 C3030 1.531 . S
C3027 C3026 1.369 . S
C3027 C3028 1.410 . S
C3027 C3035 1.503 . S
C3028 C3027 1.410 . S
C3028 C3029 1.392 . S
C3028 C3031 1.511 . S
C3029 C3025 1.376 . S
C3029 C3028 1.392 . S
C3029 H3041 0.929 . S
C3030 C3026 1.531 . S
C3030 H3042 0.960 . S
C3030 H3043 0.962 . S
C3030 H3044 0.960 . S
C3031 C3028 1.511 . S
C3031 H3045 0.961 . S
C3031 H3046 0.961 . S
C3031 H3047 0.961 . S
C3032 C3033 1.370 . S
C3032 C3034 1.363 . S
C3032 H3048 0.931 . S
C3033 C3032 1.370 . S
C3033 C3037 1.408 . S
C3034 C3032 1.363 . S
C3034 C3035 1.370 . S
C3034 C3038 1.524 . S
C3035 C3027 1.503 . S
C3035 C3034 1.370 . S
C3035 C3036 1.403 . S
C3036 C3035 1.403 . S
C3036 C3037 1.404 . S
C3036 C3039 1.539 . S
C3037 C3033 1.408 . S
C3037 C3036 1.404 . S
C3037 H3049 0.930 . S
C3038 C3034 1.524 . S
C3038 H3050 0.956 . S
C3038 H3051 0.961 . S
C3038 H3052 0.961 . S
C3039 C3036 1.539 . S
C3039 H3053 0.958 . S
C3039 H3054 0.961 . S
C3039 H3055 0.960 . S
H3040 C3024 0.931 . S
H3041 C3029 0.929 . S
H3042 C3030 0.960 . S
H3043 C3030 0.962 . S
H3044 C3030 0.960 . S
H3045 C3031 0.961 . S
H3046 C3031 0.961 . S
H3047 C3031 0.961 . S
H3048 C3032 0.931 . S
H3049 C3037 0.930 . S
H3050 C3038 0.956 . S
H3051 C3038 0.961 . S
H3052 C3038 0.961 . S
H3053 C3039 0.958 . S
H3054 C3039 0.961 . S
H3055 C3039 0.960 . S
C3056 C3057 1.391 . S
C3056 C3058 1.394 . S
C3056 H3072 0.931 . S
C3057 C3056 1.391 . S
C3057 C3061 1.376 . S
C3058 C3056 1.394 . S
C3058 C3059 1.369 . S
C3058 C3062 1.531 . S
C3059 C3058 1.369 . S
C3059 C3060 1.410 . S
C3059 C3067 1.503 . S
C3060 C3059 1.410 . S
C3060 C3061 1.392 . S
C3060 C3063 1.511 . S
C3061 C3057 1.376 . S
C3061 C3060 1.392 . S
C3061 H3073 0.929 . S
C3062 C3058 1.531 . S
C3062 H3074 0.960 . S
C3062 H3075 0.962 . S
C3062 H3076 0.960 . S
C3063 C3060 1.511 . S
C3063 H3077 0.961 . S
C3063 H3078 0.961 . S
C3063 H3079 0.961 . S
C3064 C3065 1.370 . S
C3064 C3066 1.363 . S
C3064 H3080 0.931 . S
C3065 C3064 1.370 . S
C3065 C3069 1.408 . S
C3066 C3064 1.363 . S
C3066 C3067 1.370 . S
C3066 C3070 1.524 . S
C3067 C3059 1.503 . S
C3067 C3066 1.370 . S
C3067 C3068 1.403 . S
C3068 C3067 1.403 . S
C3068 C3069 1.404 . S
C3068 C3071 1.539 . S
C3069 C3065 1.408 . S
C3069 C3068 1.404 . S
C3069 H3081 0.930 . S
C3070 C3066 1.524 . S
C3070 H3082 0.956 . S
C3070 H3083 0.961 . S
C3070 H3084 0.961 . S
C3071 C3068 1.539 . S
C3071 H3085 0.958 . S
C3071 H3086 0.961 . S
C3071 H3087 0.960 . S
H3072 C3056 0.931 . S
H3073 C3061 0.929 . S
H3074 C3062 0.960 . S
H3075 C3062 0.962 . S
H3076 C3062 0.960 . S
H3077 C3063 0.961 . S
H3078 C3063 0.961 . S
H3079 C3063 0.961 . S
H3080 C3064 0.931 . S
H3081 C3069 0.930 . S
H3082 C3070 0.956 . S
H3083 C3070 0.961 . S
H3084 C3070 0.961 . S
H3085 C3071 0.958 . S
H3086 C3071 0.961 . S
H3087 C3071 0.960 . S
C3088 C3089 1.393 1_565 S
C3088 C3090 1.394 . S
C3088 H3104 0.931 . S
C3089 C3088 1.393 1_545 S
C3089 C3093 1.376 1_545 S
C3090 C3088 1.394 . S
C3090 C3091 1.369 . S
C3090 C3094 1.531 . S
C3091 C3090 1.369 . S
C3091 C3092 1.410 . S
C3091 C3099 1.503 . S
C3092 C3091 1.410 . S
C3092 C3093 1.392 . S
C3092 C3095 1.511 . S
C3093 C3089 1.376 1_565 S
C3093 C3092 1.392 . S
C3093 H3105 0.929 1_565 S
C3094 C3090 1.531 . S
C3094 H3106 0.960 . S
C3094 H3107 0.962 . S
C3094 H3108 0.960 . S
C3095 C3092 1.511 . S
C3095 H3109 0.961 . S
C3095 H3110 0.961 . S
C3095 H3111 0.961 . S
C3096 C3097 1.370 . S
C3096 C3098 1.363 . S
C3096 H3112 0.931 . S
C3097 C3096 1.370 . S
C3097 C3101 1.408 . S
C3098 C3096 1.363 . S
C3098 C3099 1.370 . S
C3098 C3102 1.524 . S
C3099 C3091 1.503 . S
C3099 C3098 1.370 . S
C3099 C3100 1.403 . S
C3100 C3099 1.403 . S
C3100 C3101 1.404 . S
C3100 C3103 1.539 . S
C3101 C3097 1.408 . S
C3101 C3100 1.404 . S
C3101 H3113 0.930 . S
C3102 C3098 1.524 . S
C3102 H3114 0.956 . S
C3102 H3115 0.961 . S
C3102 H3116 0.961 . S
C3103 C3100 1.539 . S
C3103 H3117 0.958 . S
C3103 H3118 0.961 . S
C3103 H3119 0.960 . S
H3104 C3088 0.931 . S
H3105 C3093 0.929 1_545 S
H3106 C3094 0.960 . S
H3107 C3094 0.962 . S
H3108 C3094 0.960 . S
H3109 C3095 0.961 . S
H3110 C3095 0.961 . S
H3111 C3095 0.961 . S
H3112 C3096 0.931 . S
H3113 C3101 0.930 . S
H3114 C3102 0.956 . S
H3115 C3102 0.961 . S
H3116 C3102 0.961 . S
H3117 C3103 0.958 . S
H3118 C3103 0.961 . S
H3119 C3103 0.960 . S
C3120 C3121 1.391 1_556 S
C3120 C3122 1.394 . S
C3120 H3136 0.931 . S
C3121 C3120 1.391 1_554 S
C3121 C3125 1.376 . S
C3122 C3120 1.394 . S
C3122 C3123 1.369 1_556 S
C3122 C3126 1.531 . S
C3123 C3122 1.369 1_554 S
C3123 C3124 1.410 . S
C3123 C3131 1.503 . S
C3124 C3123 1.410 . S
C3124 C3125 1.392 . S
C3124 C3127 1.511 . S
C3125 C3121 1.376 . S
C3125 C3124 1.392 . S
C3125 H3137 0.929 . S
C3126 C3122 1.531 . S
C3126 H3138 0.960 1_565 S
C3126 H3139 0.962 . S
C3126 H3140 0.960 . S
C3127 C3124 1.511 . S
C3127 H3141 0.961 . S
C3127 H3142 0.961 . S
C3127 H3143 0.961 1_565 S
C3128 C3129 1.370 1_565 S
C3128 C3130 1.363 . S
C3128 H3144 0.931 . S
C3129 C3128 1.370 1_545 S
C3129 C3133 1.408 . S
C3130 C3128 1.363 . S
C3130 C3131 1.370 . S
C3130 C3134 1.524 . S
C3131 C3123 1.503 . S
C3131 C3130 1.370 . S
C3131 C3132 1.403 1_565 S
C3132 C3131 1.403 1_545 S
C3132 C3133 1.404 . S
C3132 C3135 1.539 . S
C3133 C3129 1.408 . S
C3133 C3132 1.404 . S
C3133 H3145 0.930 . S
C3134 C3130 1.524 . S
C3134 H3146 0.956 1_554 S
C3134 H3147 0.961 . S
C3134 H3148 0.961 . S
C3135 C3132 1.539 . S
C3135 H3149 0.958 . S
C3135 H3150 0.961 . S
C3135 H3151 0.960 . S
H3136 C3120 0.931 . S
H3137 C3125 0.929 . S
H3138 C3126 0.960 1_545 S
H3139 C3126 0.962 . S
H3140 C3126 0.960 . S
H3141 C3127 0.961 . S
H3142 C3127 0.961 . S
H3143 C3127 0.961 1_545 S
H3144 C3128 0.931 . S
H3145 C3133 0.930 . S
H3146 C3134 0.956 1_556 S
H3147 C3134 0.961 . S
H3148 C3134 0.961 . S
H3149 C3135 0.958 . S
H3150 C3135 0.961 . S
H3151 C3135 0.960 . S
C3152 C3153 1.391 . S
C3152 C3154 1.394 . S
C3152 H3168 0.931 . S
C3153 C3152 1.391 . S
C3153 C3157 1.376 . S
C3154 C3152 1.394 . S
C3154 C3155 1.369 . S
C3154 C3158 1.531 . S
C3155 C3154 1.369 . S
C3155 C3156 1.410 . S
C3155 C3163 1.503 . S
C3156 C3155 1.410 . S
C3156 C3157 1.392 . S
C3156 C3159 1.511 . S
C3157 C3153 1.376 . S
C3157 C3156 1.392 . S
C3157 H3169 0.929 . S
C3158 C3154 1.531 . S
C3158 H3170 0.960 . S
C3158 H3171 0.962 . S
C3158 H3172 0.960 . S
C3159 C3156 1.511 . S
C3159 H3173 0.961 . S
C3159 H3174 0.961 . S
C3159 H3175 0.961 . S
C3160 C3161 1.370 . S
C3160 C3162 1.363 . S
C3160 H3176 0.931 . S
C3161 C3160 1.370 . S
C3161 C3165 1.408 . S
C3162 C3160 1.363 . S
C3162 C3163 1.370 . S
C3162 C3166 1.524 . S
C3163 C3155 1.503 . S
C3163 C3162 1.370 . S
C3163 C3164 1.403 . S
C3164 C3163 1.403 . S
C3164 C3165 1.404 . S
C3164 C3167 1.539 . S
C3165 C3161 1.408 . S
C3165 C3164 1.404 . S
C3165 H3177 0.930 . S
C3166 C3162 1.524 . S
C3166 H3178 0.956 . S
C3166 H3179 0.961 . S
C3166 H3180 0.961 . S
C3167 C3164 1.539 . S
C3167 H3181 0.958 . S
C3167 H3182 0.961 . S
C3167 H3183 0.960 . S
H3168 C3152 0.931 . S
H3169 C3157 0.929 . S
H3170 C3158 0.960 . S
H3171 C3158 0.962 . S
H3172 C3158 0.960 . S
H3173 C3159 0.961 . S
H3174 C3159 0.961 . S
H3175 C3159 0.961 . S
H3176 C3160 0.931 . S
H3177 C3165 0.930 . S
H3178 C3166 0.956 . S
H3179 C3166 0.961 . S
H3180 C3166 0.961 . S
H3181 C3167 0.958 . S
H3182 C3167 0.961 . S
H3183 C3167 0.960 . S
C3184 C3185 1.391 . S
C3184 C3186 1.394 . S
C3184 H3200 0.931 1_554 S
C3185 C3184 1.391 . S
C3185 C3189 1.376 . S
C3186 C3184 1.394 . S
C3186 C3187 1.369 . S
C3186 C3190 1.531 1_554 S
C3187 C3186 1.369 . S
C3187 C3188 1.410 . S
C3187 C3195 1.503 . S
C3188 C3187 1.410 . S
C3188 C3189 1.392 . S
C3188 C3191 1.511 . S
C3189 C3185 1.376 . S
C3189 C3188 1.392 . S
C3189 H3201 0.929 . S
C3190 C3186 1.531 1_556 S
C3190 H3202 0.957 1_556 S
C3190 H3203 0.962 . S
C3190 H3204 0.960 . S
C3191 C3188 1.511 . S
C3191 H3205 0.961 . S
C3191 H3206 0.961 . S
C3191 H3207 0.961 . S
C3192 C3193 1.370 . S
C3192 C3194 1.363 . S
C3192 H3208 0.931 . S
C3193 C3192 1.370 . S
C3193 C3197 1.408 . S
C3194 C3192 1.363 . S
C3194 C3195 1.370 . S
C3194 C3198 1.524 . S
C3195 C3187 1.503 . S
C3195 C3194 1.370 . S
C3195 C3196 1.403 . S
C3196 C3195 1.403 . S
C3196 C3197 1.404 . S
C3196 C3199 1.539 . S
C3197 C3193 1.408 . S
C3197 C3196 1.404 . S
C3197 H3209 0.930 . S
C3198 C3194 1.524 . S
C3198 H3210 0.956 . S
C3198 H3211 0.961 . S
C3198 H3212 0.961 . S
C3199 C3196 1.539 . S
C3199 H3213 0.958 . S
C3199 H3214 0.961 . S
C3199 H3215 0.960 . S
H3200 C3184 0.931 1_556 S
H3201 C3189 0.929 . S
H3202 C3190 0.957 1_554 S
H3203 C3190 0.962 . S
H3204 C3190 0.960 . S
H3205 C3191 0.961 . S
H3206 C3191 0.961 . S
H3207 C3191 0.961 . S
H3208 C3192 0.931 . S
H3209 C3197 0.930 . S
H3210 C3198 0.956 . S
H3211 C3198 0.961 . S
H3212 C3198 0.961 . S
H3213 C3199 0.958 . S
H3214 C3199 0.961 . S
H3215 C3199 0.960 . S
C3216 C3217 1.391 . S
C3216 C3218 1.394 . S
C3216 H3232 0.931 . S
C3217 C3216 1.391 . S
C3217 C3221 1.376 . S
C3218 C3216 1.394 . S
C3218 C3219 1.369 . S
C3218 C3222 1.531 . S
C3219 C3218 1.369 . S
C3219 C3220 1.410 . S
C3219 C3227 1.503 . S
C3220 C3219 1.410 . S
C3220 C3221 1.392 . S
C3220 C3223 1.511 . S
C3221 C3217 1.376 . S
C3221 C3220 1.392 . S
C3221 H3233 0.929 . S
C3222 C3218 1.531 . S
C3222 H3234 0.960 . S
C3222 H3235 0.962 . S
C3222 H3236 0.960 . S
C3223 C3220 1.511 . S
C3223 H3237 0.961 . S
C3223 H3238 0.961 . S
C3223 H3239 0.961 . S
C3224 C3225 1.370 . S
C3224 C3226 1.363 . S
C3224 H3240 0.931 . S
C3225 C3224 1.370 . S
C3225 C3229 1.408 . S
C3226 C3224 1.363 . S
C3226 C3227 1.370 . S
C3226 C3230 1.524 . S
C3227 C3219 1.503 . S
C3227 C3226 1.370 . S
C3227 C3228 1.403 . S
C3228 C3227 1.403 . S
C3228 C3229 1.404 . S
C3228 C3231 1.539 . S
C3229 C3225 1.408 . S
C3229 C3228 1.404 . S
C3229 H3241 0.930 . S
C3230 C3226 1.524 . S
C3230 H3242 0.956 . S
C3230 H3243 0.961 . S
C3230 H3244 0.961 . S
C3231 C3228 1.539 . S
C3231 H3245 0.958 . S
C3231 H3246 0.961 . S
C3231 H3247 0.960 . S
H3232 C3216 0.931 . S
H3233 C3221 0.929 . S
H3234 C3222 0.960 . S
H3235 C3222 0.962 . S
H3236 C3222 0.960 . S
H3237 C3223 0.961 . S
H3238 C3223 0.961 . S
H3239 C3223 0.961 . S
H3240 C3224 0.931 . S
H3241 C3229 0.930 . S
H3242 C3230 0.956 . S
H3243 C3230 0.961 . S
H3244 C3230 0.961 . S
H3245 C3231 0.958 . S
H3246 C3231 0.961 . S
H3247 C3231 0.960 . S
C3248 C3249 1.391 . S
C3248 C3250 1.394 . S
C3248 H3264 0.931 . S
C3249 C3248 1.391 . S
C3249 C3253 1.376 . S
C3250 C3248 1.394 . S
C3250 C3251 1.369 . S
C3250 C3254 1.531 . S
C3251 C3250 1.369 . S
C3251 C3252 1.410 . S
C3251 C3259 1.503 . S
C3252 C3251 1.410 . S
C3252 C3253 1.392 . S
C3252 C3255 1.511 . S
C3253 C3249 1.376 . S
C3253 C3252 1.392 . S
C3253 H3265 0.929 . S
C3254 C3250 1.531 . S
C3254 H3266 0.960 . S
C3254 H3267 0.962 . S
C3254 H3268 0.960 . S
C3255 C3252 1.511 . S
C3255 H3269 0.961 . S
C3255 H3270 0.961 . S
C3255 H3271 0.961 . S
C3256 C3257 1.370 . S
C3256 C3258 1.363 . S
C3256 H3272 0.931 . S
C3257 C3256 1.370 . S
C3257 C3261 1.408 . S
C3258 C3256 1.363 . S
C3258 C3259 1.370 . S
C3258 C3262 1.524 . S
C3259 C3251 1.503 . S
C3259 C3258 1.370 . S
C3259 C3260 1.403 . S
C3260 C3259 1.403 . S
C3260 C3261 1.404 . S
C3260 C3263 1.539 . S
C3261 C3257 1.408 . S
C3261 C3260 1.404 . S
C3261 H3273 0.930 . S
C3262 C3258 1.524 . S
C3262 H3274 0.956 . S
C3262 H3275 0.961 . S
C3262 H3276 0.961 . S
C3263 C3260 1.539 . S
C3263 H3277 0.958 . S
C3263 H3278 0.961 . S
C3263 H3279 0.960 . S
H3264 C3248 0.931 . S
H3265 C3253 0.929 . S
H3266 C3254 0.960 . S
H3267 C3254 0.962 . S
H3268 C3254 0.960 . S
H3269 C3255 0.961 . S
H3270 C3255 0.961 . S
H3271 C3255 0.961 . S
H3272 C3256 0.931 . S
H3273 C3261 0.930 . S
H3274 C3262 0.956 . S
H3275 C3262 0.961 . S
H3276 C3262 0.961 . S
H3277 C3263 0.958 . S
H3278 C3263 0.961 . S
H3279 C3263 0.960 . S
C3280 C3281 1.391 . S
C3280 C3282 1.394 . S
C3280 H3296 0.931 . S
C3281 C3280 1.391 . S
C3281 C3285 1.376 . S
C3282 C3280 1.394 . S
C3282 C3283 1.369 . S
C3282 C3286 1.531 . S
C3283 C3282 1.369 . S
C3283 C3284 1.410 . S
C3283 C3291 1.503 . S
C3284 C3283 1.410 . S
C3284 C3285 1.392 . S
C3284 C3287 1.511 . S
C3285 C3281 1.376 . S
C3285 C3284 1.392 . S
C3285 H3297 0.929 . S
C3286 C3282 1.531 . S
C3286 H3298 0.960 . S
C3286 H3299 0.962 . S
C3286 H3300 0.960 . S
C3287 C3284 1.511 . S
C3287 H3301 0.961 . S
C3287 H3302 0.961 . S
C3287 H3303 0.961 . S
C3288 C3289 1.370 . S
C3288 C3290 1.363 . S
C3288 H3304 0.931 . S
C3289 C3288 1.370 . S
C3289 C3293 1.408 . S
C3290 C3288 1.363 . S
C3290 C3291 1.370 . S
C3290 C3294 1.524 . S
C3291 C3283 1.503 . S
C3291 C3290 1.370 . S
C3291 C3292 1.403 . S
C3292 C3291 1.403 . S
C3292 C3293 1.404 . S
C3292 C3295 1.539 . S
C3293 C3289 1.408 . S
C3293 C3292 1.404 . S
C3293 H3305 0.930 . S
C3294 C3290 1.524 . S
C3294 H3306 0.956 . S
C3294 H3307 0.961 . S
C3294 H3308 0.961 . S
C3295 C3292 1.539 . S
C3295 H3309 0.958 . S
C3295 H3310 0.961 . S
C3295 H3311 0.960 . S
H3296 C3280 0.931 . S
H3297 C3285 0.929 . S
H3298 C3286 0.960 . S
H3299 C3286 0.962 . S
H3300 C3286 0.960 . S
H3301 C3287 0.961 . S
H3302 C3287 0.961 . S
H3303 C3287 0.961 . S
H3304 C3288 0.931 . S
H3305 C3293 0.930 . S
H3306 C3294 0.956 . S
H3307 C3294 0.961 . S
H3308 C3294 0.961 . S
H3309 C3295 0.958 . S
H3310 C3295 0.961 . S
H3311 C3295 0.960 . S
C3312 C3313 1.391 . S
C3312 C3314 1.394 . S
C3312 H3328 0.931 . S
C3313 C3312 1.391 . S
C3313 C3317 1.376 . S
C3314 C3312 1.394 . S
C3314 C3315 1.369 . S
C3314 C3318 1.531 . S
C3315 C3314 1.369 . S
C3315 C3316 1.410 . S
C3315 C3323 1.503 . S
C3316 C3315 1.410 . S
C3316 C3317 1.392 . S
C3316 C3319 1.511 . S
C3317 C3313 1.376 . S
C3317 C3316 1.392 . S
C3317 H3329 0.929 . S
C3318 C3314 1.531 . S
C3318 H3330 0.960 . S
C3318 H3331 0.962 . S
C3318 H3332 0.960 . S
C3319 C3316 1.511 . S
C3319 H3333 0.961 . S
C3319 H3334 0.961 . S
C3319 H3335 0.961 . S
C3320 C3321 1.370 . S
C3320 C3322 1.363 . S
C3320 H3336 0.931 . S
C3321 C3320 1.370 . S
C3321 C3325 1.408 . S
C3322 C3320 1.363 . S
C3322 C3323 1.370 . S
C3322 C3326 1.524 . S
C3323 C3315 1.503 . S
C3323 C3322 1.370 . S
C3323 C3324 1.403 . S
C3324 C3323 1.403 . S
C3324 C3325 1.404 . S
C3324 C3327 1.539 . S
C3325 C3321 1.408 . S
C3325 C3324 1.404 . S
C3325 H3337 0.930 . S
C3326 C3322 1.524 . S
C3326 H3338 0.956 . S
C3326 H3339 0.961 . S
C3326 H3340 0.961 . S
C3327 C3324 1.539 . S
C3327 H3341 0.958 . S
C3327 H3342 0.961 . S
C3327 H3343 0.960 . S
H3328 C3312 0.931 . S
H3329 C3317 0.929 . S
H3330 C3318 0.960 . S
H3331 C3318 0.962 . S
H3332 C3318 0.960 . S
H3333 C3319 0.961 . S
H3334 C3319 0.961 . S
H3335 C3319 0.961 . S
H3336 C3320 0.931 . S
H3337 C3325 0.930 . S
H3338 C3326 0.956 . S
H3339 C3326 0.961 . S
H3340 C3326 0.961 . S
H3341 C3327 0.958 . S
H3342 C3327 0.961 . S
H3343 C3327 0.960 . S
C3344 C3345 1.391 . S
C3344 C3346 1.394 . S
C3344 H3360 0.931 . S
C3345 C3344 1.391 . S
C3345 C3349 1.376 . S
C3346 C3344 1.394 . S
C3346 C3347 1.369 . S
C3346 C3350 1.531 . S
C3347 C3346 1.369 . S
C3347 C3348 1.410 . S
C3347 C3355 1.503 . S
C3348 C3347 1.410 . S
C3348 C3349 1.392 . S
C3348 C3351 1.511 . S
C3349 C3345 1.376 . S
C3349 C3348 1.392 . S
C3349 H3361 0.929 . S
C3350 C3346 1.531 . S
C3350 H3362 0.960 . S
C3350 H3363 0.962 . S
C3350 H3364 0.960 1_455 S
C3351 C3348 1.511 . S
C3351 H3365 0.961 . S
C3351 H3366 0.961 . S
C3351 H3367 0.961 . S
C3352 C3353 1.370 . S
C3352 C3354 1.363 . S
C3352 H3368 0.931 . S
C3353 C3352 1.370 . S
C3353 C3357 1.408 . S
C3354 C3352 1.363 . S
C3354 C3355 1.370 . S
C3354 C3358 1.524 . S
C3355 C3347 1.503 . S
C3355 C3354 1.370 . S
C3355 C3356 1.403 . S
C3356 C3355 1.403 . S
C3356 C3357 1.404 . S
C3356 C3359 1.539 . S
C3357 C3353 1.408 . S
C3357 C3356 1.404 . S
C3357 H3369 0.930 . S
C3358 C3354 1.524 . S
C3358 H3370 0.956 . S
C3358 H3371 0.961 . S
C3358 H3372 0.961 . S
C3359 C3356 1.539 . S
C3359 H3373 0.958 . S
C3359 H3374 0.961 1_554 S
C3359 H3375 0.960 . S
H3360 C3344 0.931 . S
H3361 C3349 0.929 . S
H3362 C3350 0.960 . S
H3363 C3350 0.962 . S
H3364 C3350 0.960 1_655 S
H3365 C3351 0.961 . S
H3366 C3351 0.961 . S
H3367 C3351 0.961 . S
H3368 C3352 0.931 . S
H3369 C3357 0.930 . S
H3370 C3358 0.956 . S
H3371 C3358 0.961 . S
H3372 C3358 0.961 . S
H3373 C3359 0.958 . S
H3374 C3359 0.961 1_556 S
H3375 C3359 0.960 . S
C3376 C3377 1.391 . S
C3376 C3378 1.394 . S
C3376 H3392 0.931 . S
C3377 C3376 1.391 . S
C3377 C3381 1.376 . S
C3378 C3376 1.394 . S
C3378 C3379 1.369 . S
C3378 C3382 1.531 . S
C3379 C3378 1.369 . S
C3379 C3380 1.410 . S
C3379 C3387 1.503 . S
C3380 C3379 1.410 . S
C3380 C3381 1.392 . S
C3380 C3383 1.511 . S
C3381 C3377 1.376 . S
C3381 C3380 1.392 . S
C3381 H3393 0.929 . S
C3382 C3378 1.531 . S
C3382 H3394 0.960 . S
C3382 H3395 0.962 . S
C3382 H3396 0.960 . S
C3383 C3380 1.511 . S
C3383 H3397 0.961 . S
C3383 H3398 0.961 . S
C3383 H3399 0.961 . S
C3384 C3385 1.370 . S
C3384 C3386 1.363 . S
C3384 H3400 0.931 . S
C3385 C3384 1.370 . S
C3385 C3389 1.408 . S
C3386 C3384 1.363 . S
C3386 C3387 1.370 . S
C3386 C3390 1.524 . S
C3387 C3379 1.503 . S
C3387 C3386 1.370 . S
C3387 C3388 1.403 . S
C3388 C3387 1.403 . S
C3388 C3389 1.404 . S
C3388 C3391 1.539 . S
C3389 C3385 1.408 . S
C3389 C3388 1.404 . S
C3389 H3401 0.930 . S
C3390 C3386 1.524 . S
C3390 H3402 0.956 . S
C3390 H3403 0.961 . S
C3390 H3404 0.961 . S
C3391 C3388 1.539 . S
C3391 H3405 0.958 . S
C3391 H3406 0.961 . S
C3391 H3407 0.960 . S
H3392 C3376 0.931 . S
H3393 C3381 0.929 . S
H3394 C3382 0.960 . S
H3395 C3382 0.962 . S
H3396 C3382 0.960 . S
H3397 C3383 0.961 . S
H3398 C3383 0.961 . S
H3399 C3383 0.961 . S
H3400 C3384 0.931 . S
H3401 C3389 0.930 . S
H3402 C3390 0.956 . S
H3403 C3390 0.961 . S
H3404 C3390 0.961 . S
H3405 C3391 0.958 . S
H3406 C3391 0.961 . S
H3407 C3391 0.960 . S
C3408 C3409 1.391 . S
C3408 C3410 1.394 . S
C3408 H3424 0.931 . S
C3409 C3408 1.391 . S
C3409 C3413 1.376 . S
C3410 C3408 1.394 . S
C3410 C3411 1.369 . S
C3410 C3414 1.531 . S
C3411 C3410 1.369 . S
C3411 C3412 1.410 . S
C3411 C3419 1.503 . S
C3412 C3411 1.410 . S
C3412 C3413 1.392 . S
C3412 C3415 1.511 . S
C3413 C3409 1.376 . S
C3413 C3412 1.392 . S
C3413 H3425 0.929 . S
C3414 C3410 1.531 . S
C3414 H3426 0.960 . S
C3414 H3427 0.962 . S
C3414 H3428 0.960 . S
C3415 C3412 1.511 . S
C3415 H3429 0.961 . S
C3415 H3430 0.961 . S
C3415 H3431 0.961 . S
C3416 C3417 1.370 . S
C3416 C3418 1.363 . S
C3416 H3432 0.931 . S
C3417 C3416 1.370 . S
C3417 C3421 1.408 . S
C3418 C3416 1.363 . S
C3418 C3419 1.370 . S
C3418 C3422 1.524 . S
C3419 C3411 1.503 . S
C3419 C3418 1.370 . S
C3419 C3420 1.403 . S
C3420 C3419 1.403 . S
C3420 C3421 1.404 . S
C3420 C3423 1.539 . S
C3421 C3417 1.408 . S
C3421 C3420 1.404 . S
C3421 H3433 0.930 . S
C3422 C3418 1.524 . S
C3422 H3434 0.956 . S
C3422 H3435 0.961 . S
C3422 H3436 0.961 . S
C3423 C3420 1.539 . S
C3423 H3437 0.958 . S
C3423 H3438 0.961 . S
C3423 H3439 0.960 . S
H3424 C3408 0.931 . S
H3425 C3413 0.929 . S
H3426 C3414 0.960 . S
H3427 C3414 0.962 . S
H3428 C3414 0.960 . S
H3429 C3415 0.961 . S
H3430 C3415 0.961 . S
H3431 C3415 0.961 . S
H3432 C3416 0.931 . S
H3433 C3421 0.930 . S
H3434 C3422 0.956 . S
H3435 C3422 0.961 . S
H3436 C3422 0.961 . S
H3437 C3423 0.958 . S
H3438 C3423 0.961 . S
H3439 C3423 0.960 . S
C3440 C3441 1.391 . S
C3440 C3442 1.394 . S
C3440 H3456 0.931 . S
C3441 C3440 1.391 . S
C3441 C3445 1.376 . S
C3442 C3440 1.394 . S
C3442 C3443 1.369 . S
C3442 C3446 1.531 . S
C3443 C3442 1.369 . S
C3443 C3444 1.410 . S
C3443 C3451 1.503 . S
C3444 C3443 1.410 . S
C3444 C3445 1.392 . S
C3444 C3447 1.511 . S
C3445 C3441 1.376 . S
C3445 C3444 1.392 . S
C3445 H3457 0.929 . S
C3446 C3442 1.531 . S
C3446 H3458 0.960 . S
C3446 H3459 0.962 . S
C3446 H3460 0.960 . S
C3447 C3444 1.511 . S
C3447 H3461 0.961 . S
C3447 H3462 0.961 . S
C3447 H3463 0.961 . S
C3448 C3449 1.370 . S
C3448 C3450 1.363 . S
C3448 H3464 0.931 . S
C3449 C3448 1.370 . S
C3449 C3453 1.408 . S
C3450 C3448 1.363 . S
C3450 C3451 1.370 . S
C3450 C3454 1.524 . S
C3451 C3443 1.503 . S
C3451 C3450 1.370 . S
C3451 C3452 1.403 . S
C3452 C3451 1.403 . S
C3452 C3453 1.404 . S
C3452 C3455 1.539 . S
C3453 C3449 1.408 . S
C3453 C3452 1.404 . S
C3453 H3465 0.930 . S
C3454 C3450 1.524 . S
C3454 H3466 0.956 . S
C3454 H3467 0.961 . S
C3454 H3468 0.961 . S
C3455 C3452 1.539 . S
C3455 H3469 0.958 . S
C3455 H3470 0.961 . S
C3455 H3471 0.960 . S
H3456 C3440 0.931 . S
H3457 C3445 0.929 . S
H3458 C3446 0.960 . S
H3459 C3446 0.962 . S
H3460 C3446 0.960 . S
H3461 C3447 0.961 . S
H3462 C3447 0.961 . S
H3463 C3447 0.961 . S
H3464 C3448 0.931 . S
H3465 C3453 0.930 . S
H3466 C3454 0.956 . S
H3467 C3454 0.961 . S
H3468 C3454 0.961 . S
H3469 C3455 0.958 . S
H3470 C3455 0.961 . S
H3471 C3455 0.960 . S
C3472 C3473 1.391 . S
C3472 C3474 1.394 . S
C3472 H3488 0.931 . S
C3473 C3472 1.391 . S
C3473 C3477 1.376 . S
C3474 C3472 1.394 . S
C3474 C3475 1.369 . S
C3474 C3478 1.531 . S
C3475 C3474 1.369 . S
C3475 C3476 1.410 . S
C3475 C3483 1.503 . S
C3476 C3475 1.410 . S
C3476 C3477 1.392 . S
C3476 C3479 1.511 . S
C3477 C3473 1.376 . S
C3477 C3476 1.392 . S
C3477 H3489 0.929 . S
C3478 C3474 1.531 . S
C3478 H3490 0.960 . S
C3478 H3491 0.962 1_455 S
C3478 H3492 0.960 . S
C3479 C3476 1.511 . S
C3479 H3493 0.961 . S
C3479 H3494 0.961 . S
C3479 H3495 0.961 . S
C3480 C3481 1.370 . S
C3480 C3482 1.363 . S
C3480 H3496 0.931 . S
C3481 C3480 1.370 . S
C3481 C3485 1.408 . S
C3482 C3480 1.363 . S
C3482 C3483 1.370 . S
C3482 C3486 1.524 . S
C3483 C3475 1.503 . S
C3483 C3482 1.370 . S
C3483 C3484 1.403 . S
C3484 C3483 1.403 . S
C3484 C3485 1.404 . S
C3484 C3487 1.539 . S
C3485 C3481 1.408 . S
C3485 C3484 1.404 . S
C3485 H3497 0.930 . S
C3486 C3482 1.524 . S
C3486 H3498 0.956 . S
C3486 H3499 0.961 . S
C3486 H3500 0.961 . S
C3487 C3484 1.539 . S
C3487 H3501 0.958 . S
C3487 H3502 0.961 . S
C3487 H3503 0.960 . S
H3488 C3472 0.931 . S
H3489 C3477 0.929 . S
H3490 C3478 0.960 . S
H3491 C3478 0.962 1_655 S
H3492 C3478 0.960 . S
H3493 C3479 0.961 . S
H3494 C3479 0.961 . S
H3495 C3479 0.961 . S
H3496 C3480 0.931 . S
H3497 C3485 0.930 . S
H3498 C3486 0.956 . S
H3499 C3486 0.961 . S
H3500 C3486 0.961 . S
H3501 C3487 0.958 . S
H3502 C3487 0.961 . S
H3503 C3487 0.960 . S
C3504 C3505 1.391 . S
C3504 C3506 1.394 . S
C3504 H3520 0.931 . S
C3505 C3504 1.391 . S
C3505 C3509 1.376 . S
C3506 C3504 1.394 . S
C3506 C3507 1.369 . S
C3506 C3510 1.531 . S
C3507 C3506 1.369 . S
C3507 C3508 1.410 . S
C3507 C3515 1.503 . S
C3508 C3507 1.410 . S
C3508 C3509 1.392 . S
C3508 C3511 1.511 . S
C3509 C3505 1.376 . S
C3509 C3508 1.392 . S
C3509 H3521 0.929 . S
C3510 C3506 1.531 . S
C3510 H3522 0.960 . S
C3510 H3523 0.962 . S
C3510 H3524 0.960 . S
C3511 C3508 1.511 . S
C3511 H3525 0.961 . S
C3511 H3526 0.961 . S
C3511 H3527 0.961 . S
C3512 C3513 1.370 . S
C3512 C3514 1.363 . S
C3512 H3528 0.931 . S
C3513 C3512 1.370 . S
C3513 C3517 1.408 . S
C3514 C3512 1.363 . S
C3514 C3515 1.370 . S
C3514 C3518 1.524 . S
C3515 C3507 1.503 . S
C3515 C3514 1.370 . S
C3515 C3516 1.403 . S
C3516 C3515 1.403 . S
C3516 C3517 1.404 . S
C3516 C3519 1.539 . S
C3517 C3513 1.408 . S
C3517 C3516 1.404 . S
C3517 H3529 0.930 . S
C3518 C3514 1.524 . S
C3518 H3530 0.956 . S
C3518 H3531 0.961 . S
C3518 H3532 0.961 . S
C3519 C3516 1.539 . S
C3519 H3533 0.958 . S
C3519 H3534 0.961 . S
C3519 H3535 0.960 . S
H3520 C3504 0.931 . S
H3521 C3509 0.929 . S
H3522 C3510 0.960 . S
H3523 C3510 0.962 . S
H3524 C3510 0.960 . S
H3525 C3511 0.961 . S
H3526 C3511 0.961 . S
H3527 C3511 0.961 . S
H3528 C3512 0.931 . S
H3529 C3517 0.930 . S
H3530 C3518 0.956 . S
H3531 C3518 0.961 . S
H3532 C3518 0.961 . S
H3533 C3519 0.958 . S
H3534 C3519 0.961 . S
H3535 C3519 0.960 . S
C3536 C3537 1.391 . S
C3536 C3538 1.394 . S
C3536 H3552 0.931 . S
C3537 C3536 1.391 . S
C3537 C3541 1.376 . S
C3538 C3536 1.394 . S
C3538 C3539 1.369 . S
C3538 C3542 1.531 . S
C3539 C3538 1.369 . S
C3539 C3540 1.410 . S
C3539 C3547 1.503 . S
C3540 C3539 1.410 . S
C3540 C3541 1.392 . S
C3540 C3543 1.511 . S
C3541 C3537 1.376 . S
C3541 C3540 1.392 . S
C3541 H3553 0.929 . S
C3542 C3538 1.531 . S
C3542 H3554 0.960 . S
C3542 H3555 0.962 . S
C3542 H3556 0.960 . S
C3543 C3540 1.511 . S
C3543 H3557 0.961 . S
C3543 H3558 0.961 . S
C3543 H3559 0.961 . S
C3544 C3545 1.370 . S
C3544 C3546 1.363 . S
C3544 H3560 0.931 . S
C3545 C3544 1.370 . S
C3545 C3549 1.408 . S
C3546 C3544 1.363 . S
C3546 C3547 1.370 . S
C3546 C3550 1.524 . S
C3547 C3539 1.503 . S
C3547 C3546 1.370 . S
C3547 C3548 1.403 . S
C3548 C3547 1.403 . S
C3548 C3549 1.404 . S
C3548 C3551 1.539 . S
C3549 C3545 1.408 . S
C3549 C3548 1.404 . S
C3549 H3561 0.930 . S
C3550 C3546 1.524 . S
C3550 H3562 0.956 . S
C3550 H3563 0.961 . S
C3550 H3564 0.961 . S
C3551 C3548 1.539 . S
C3551 H3565 0.958 . S
C3551 H3566 0.961 . S
C3551 H3567 0.960 . S
H3552 C3536 0.931 . S
H3553 C3541 0.929 . S
H3554 C3542 0.960 . S
H3555 C3542 0.962 . S
H3556 C3542 0.960 . S
H3557 C3543 0.961 . S
H3558 C3543 0.961 . S
H3559 C3543 0.961 . S
H3560 C3544 0.931 . S
H3561 C3549 0.930 . S
H3562 C3550 0.956 . S
H3563 C3550 0.961 . S
H3564 C3550 0.961 . S
H3565 C3551 0.958 . S
H3566 C3551 0.961 . S
H3567 C3551 0.960 . S
C3568 C3569 1.391 . S
C3568 C3570 1.394 . S
C3568 H3584 0.931 . S
C3569 C3568 1.391 . S
C3569 C3573 1.376 . S
C3570 C3568 1.394 . S
C3570 C3571 1.369 . S
C3570 C3574 1.531 . S
C3571 C3570 1.369 . S
C3571 C3572 1.410 . S
C3571 C3579 1.503 . S
C3572 C3571 1.410 . S
C3572 C3573 1.392 . S
C3572 C3575 1.511 . S
C3573 C3569 1.376 . S
C3573 C3572 1.392 . S
C3573 H3585 0.929 . S
C3574 C3570 1.531 . S
C3574 H3586 0.960 . S
C3574 H3587 0.962 . S
C3574 H3588 0.960 . S
C3575 C3572 1.511 . S
C3575 H3589 0.961 . S
C3575 H3590 0.961 . S
C3575 H3591 0.961 . S
C3576 C3577 1.370 . S
C3576 C3578 1.363 . S
C3576 H3592 0.931 . S
C3577 C3576 1.370 . S
C3577 C3581 1.408 . S
C3578 C3576 1.363 . S
C3578 C3579 1.370 . S
C3578 C3582 1.524 . S
C3579 C3571 1.503 . S
C3579 C3578 1.370 . S
C3579 C3580 1.403 . S
C3580 C3579 1.403 . S
C3580 C3581 1.404 . S
C3580 C3583 1.539 . S
C3581 C3577 1.408 . S
C3581 C3580 1.404 . S
C3581 H3593 0.930 . S
C3582 C3578 1.524 . S
C3582 H3594 0.956 . S
C3582 H3595 0.961 . S
C3582 H3596 0.961 . S
C3583 C3580 1.539 . S
C3583 H3597 0.958 . S
C3583 H3598 0.961 . S
C3583 H3599 0.960 . S
H3584 C3568 0.931 . S
H3585 C3573 0.929 . S
H3586 C3574 0.960 . S
H3587 C3574 0.962 . S
H3588 C3574 0.960 . S
H3589 C3575 0.961 . S
H3590 C3575 0.961 . S
H3591 C3575 0.961 . S
H3592 C3576 0.931 . S
H3593 C3581 0.930 . S
H3594 C3582 0.956 . S
H3595 C3582 0.961 . S
H3596 C3582 0.961 . S
H3597 C3583 0.958 . S
H3598 C3583 0.961 . S
H3599 C3583 0.960 . S
C3600 C3601 1.391 . S
C3600 C3602 1.394 . S
C3600 H3616 0.931 . S
C3601 C3600 1.391 . S
C3601 C3605 1.376 . S
C3602 C3600 1.394 . S
C3602 C3603 1.369 . S
C3602 C3606 1.531 . S
C3603 C3602 1.369 . S
C3603 C3604 1.410 . S
C3603 C3611 1.503 . S
C3604 C3603 1.410 . S
C3604 C3605 1.392 . S
C3604 C3607 1.511 . S
C3605 C3601 1.376 . S
C3605 C3604 1.392 . S
C3605 H3617 0.929 . S
C3606 C3602 1.531 . S
C3606 H3618 0.960 . S
C3606 H3619 0.962 . S
C3606 H3620 0.960 . S
C3607 C3604 1.511 . S
C3607 H3621 0.961 . S
C3607 H3622 0.961 . S
C3607 H3623 0.961 . S
C3608 C3609 1.370 1_455 S
C3608 C3610 1.363 1_455 S
C3608 H3624 0.931 . S
C3609 C3608 1.370 1_655 S
C3609 C3613 1.408 . S
C3610 C3608 1.363 1_655 S
C3610 C3611 1.370 . S
C3610 C3614 1.524 . S
C3611 C3603 1.503 . S
C3611 C3610 1.370 . S
C3611 C3612 1.403 . S
C3612 C3611 1.403 . S
C3612 C3613 1.404 . S
C3612 C3615 1.539 . S
C3613 C3609 1.408 . S
C3613 C3612 1.404 . S
C3613 H3625 0.930 . S
C3614 C3610 1.524 . S
C3614 H3626 0.956 . S
C3614 H3627 0.961 . S
C3614 H3628 0.961 1_655 S
C3615 C3612 1.539 . S
C3615 H3629 0.958 . S
C3615 H3630 0.961 . S
C3615 H3631 0.960 . S
H3616 C3600 0.931 . S
H3617 C3605 0.929 . S
H3618 C3606 0.960 . S
H3619 C3606 0.962 . S
H3620 C3606 0.960 . S
H3621 C3607 0.961 . S
H3622 C3607 0.961 . S
H3623 C3607 0.961 . S
H3624 C3608 0.931 . S
H3625 C3613 0.930 . S
H3626 C3614 0.956 . S
H3627 C3614 0.961 . S
H3628 C3614 0.961 1_455 S
H3629 C3615 0.958 . S
H3630 C3615 0.961 . S
H3631 C3615 0.960 . S
C3632 C3633 1.391 . S
C3632 C3634 1.394 . S
C3632 H3648 0.931 . S
C3633 C3632 1.391 . S
C3633 C3637 1.376 . S
C3634 C3632 1.394 . S
C3634 C3635 1.369 . S
C3634 C3638 1.531 . S
C3635 C3634 1.369 . S
C3635 C3636 1.410 . S
C3635 C3643 1.503 . S
C3636 C3635 1.410 . S
C3636 C3637 1.392 . S
C3636 C3639 1.511 . S
C3637 C3633 1.376 . S
C3637 C3636 1.392 . S
C3637 H3649 0.929 . S
C3638 C3634 1.531 . S
C3638 H3650 0.960 . S
C3638 H3651 0.962 . S
C3638 H3652 0.960 . S
C3639 C3636 1.511 . S
C3639 H3653 0.961 . S
C3639 H3654 0.961 . S
C3639 H3655 0.961 . S
C3640 C3641 1.370 . S
C3640 C3642 1.363 . S
C3640 H3656 0.931 . S
C3641 C3640 1.370 . S
C3641 C3645 1.408 . S
C3642 C3640 1.363 . S
C3642 C3643 1.370 . S
C3642 C3646 1.524 . S
C3643 C3635 1.503 . S
C3643 C3642 1.370 . S
C3643 C3644 1.403 . S
C3644 C3643 1.403 . S
C3644 C3645 1.404 . S
C3644 C3647 1.539 . S
C3645 C3641 1.408 . S
C3645 C3644 1.404 . S
C3645 H3657 0.930 . S
C3646 C3642 1.524 . S
C3646 H3658 0.956 . S
C3646 H3659 0.961 . S
C3646 H3660 0.961 . S
C3647 C3644 1.539 . S
C3647 H3661 0.958 . S
C3647 H3662 0.961 . S
C3647 H3663 0.960 . S
H3648 C3632 0.931 . S
H3649 C3637 0.929 . S
H3650 C3638 0.960 . S
H3651 C3638 0.962 . S
H3652 C3638 0.960 . S
H3653 C3639 0.961 . S
H3654 C3639 0.961 . S
H3655 C3639 0.961 . S
H3656 C3640 0.931 . S
H3657 C3645 0.930 . S
H3658 C3646 0.956 . S
H3659 C3646 0.961 . S
H3660 C3646 0.961 . S
H3661 C3647 0.958 . S
H3662 C3647 0.961 . S
H3663 C3647 0.960 . S
C3664 C3665 1.391 . S
C3664 C3666 1.394 . S
C3664 H3680 0.931 . S
C3665 C3664 1.391 . S
C3665 C3669 1.376 . S
C3666 C3664 1.394 . S
C3666 C3667 1.369 . S
C3666 C3670 1.531 . S
C3667 C3666 1.369 . S
C3667 C3668 1.410 . S
C3667 C3675 1.503 . S
C3668 C3667 1.410 . S
C3668 C3669 1.392 . S
C3668 C3671 1.511 . S
C3669 C3665 1.376 . S
C3669 C3668 1.392 . S
C3669 H3681 0.929 . S
C3670 C3666 1.531 . S
C3670 H3682 0.960 . S
C3670 H3683 0.962 . S
C3670 H3684 0.960 . S
C3671 C3668 1.511 . S
C3671 H3685 0.961 . S
C3671 H3686 0.961 . S
C3671 H3687 0.961 . S
C3672 C3673 1.370 . S
C3672 C3674 1.363 . S
C3672 H3688 0.931 . S
C3673 C3672 1.370 . S
C3673 C3677 1.408 . S
C3674 C3672 1.363 . S
C3674 C3675 1.370 . S
C3674 C3678 1.524 . S
C3675 C3667 1.503 . S
C3675 C3674 1.370 . S
C3675 C3676 1.403 . S
C3676 C3675 1.403 . S
C3676 C3677 1.404 . S
C3676 C3679 1.539 . S
C3677 C3673 1.408 . S
C3677 C3676 1.404 . S
C3677 H3689 0.930 . S
C3678 C3674 1.524 . S
C3678 H3690 0.956 . S
C3678 H3691 0.961 . S
C3678 H3692 0.961 . S
C3679 C3676 1.539 . S
C3679 H3693 0.958 . S
C3679 H3694 0.961 . S
C3679 H3695 0.960 . S
H3680 C3664 0.931 . S
H3681 C3669 0.929 . S
H3682 C3670 0.960 . S
H3683 C3670 0.962 . S
H3684 C3670 0.960 . S
H3685 C3671 0.961 . S
H3686 C3671 0.961 . S
H3687 C3671 0.961 . S
H3688 C3672 0.931 . S
H3689 C3677 0.930 . S
H3690 C3678 0.956 . S
H3691 C3678 0.961 . S
H3692 C3678 0.961 . S
H3693 C3679 0.958 . S
H3694 C3679 0.961 . S
H3695 C3679 0.960 . S
C3696 C3697 1.391 . S
C3696 C3698 1.394 . S
C3696 H3712 0.931 . S
C3697 C3696 1.391 . S
C3697 C3701 1.376 . S
C3698 C3696 1.394 . S
C3698 C3699 1.369 . S
C3698 C3702 1.531 . S
C3699 C3698 1.369 . S
C3699 C3700 1.410 . S
C3699 C3707 1.503 . S
C3700 C3699 1.410 . S
C3700 C3701 1.392 . S
C3700 C3703 1.511 . S
C3701 C3697 1.376 . S
C3701 C3700 1.392 . S
C3701 H3713 0.929 . S
C3702 C3698 1.531 . S
C3702 H3714 0.960 . S
C3702 H3715 0.962 . S
C3702 H3716 0.960 . S
C3703 C3700 1.511 . S
C3703 H3717 0.961 . S
C3703 H3718 0.961 . S
C3703 H3719 0.961 . S
C3704 C3705 1.370 . S
C3704 C3706 1.363 . S
C3704 H3720 0.931 . S
C3705 C3704 1.370 . S
C3705 C3709 1.408 . S
C3706 C3704 1.363 . S
C3706 C3707 1.370 . S
C3706 C3710 1.524 . S
C3707 C3699 1.503 . S
C3707 C3706 1.370 . S
C3707 C3708 1.403 . S
C3708 C3707 1.403 . S
C3708 C3709 1.404 . S
C3708 C3711 1.539 . S
C3709 C3705 1.408 . S
C3709 C3708 1.404 . S
C3709 H3721 0.930 . S
C3710 C3706 1.524 . S
C3710 H3722 0.956 . S
C3710 H3723 0.961 . S
C3710 H3724 0.961 . S
C3711 C3708 1.539 . S
C3711 H3725 0.958 . S
C3711 H3726 0.961 . S
C3711 H3727 0.960 . S
H3712 C3696 0.931 . S
H3713 C3701 0.929 . S
H3714 C3702 0.960 . S
H3715 C3702 0.962 . S
H3716 C3702 0.960 . S
H3717 C3703 0.961 . S
H3718 C3703 0.961 . S
H3719 C3703 0.961 . S
H3720 C3704 0.931 . S
H3721 C3709 0.930 . S
H3722 C3710 0.956 . S
H3723 C3710 0.961 . S
H3724 C3710 0.961 . S
H3725 C3711 0.958 . S
H3726 C3711 0.961 . S
H3727 C3711 0.960 . S
C3728 C3729 1.391 . S
C3728 C3730 1.394 . S
C3728 H3744 0.931 . S
C3729 C3728 1.391 . S
C3729 C3733 1.376 . S
C3730 C3728 1.394 . S
C3730 C3731 1.369 . S
C3730 C3734 1.531 . S
C3731 C3730 1.369 . S
C3731 C3732 1.410 . S
C3731 C3739 1.503 . S
C3732 C3731 1.410 . S
C3732 C3733 1.392 . S
C3732 C3735 1.511 . S
C3733 C3729 1.376 . S
C3733 C3732 1.392 . S
C3733 H3745 0.929 . S
C3734 C3730 1.531 . S
C3734 H3746 0.960 . S
C3734 H3747 0.962 . S
C3734 H3748 0.960 . S
C3735 C3732 1.511 . S
C3735 H3749 0.961 . S
C3735 H3750 0.961 . S
C3735 H3751 0.961 . S
C3736 C3737 1.370 . S
C3736 C3738 1.363 . S
C3736 H3752 0.931 . S
C3737 C3736 1.370 . S
C3737 C3741 1.408 . S
C3738 C3736 1.363 . S
C3738 C3739 1.370 . S
C3738 C3742 1.524 . S
C3739 C3731 1.503 . S
C3739 C3738 1.370 . S
C3739 C3740 1.403 . S
C3740 C3739 1.403 . S
C3740 C3741 1.404 . S
C3740 C3743 1.539 . S
C3741 C3737 1.408 . S
C3741 C3740 1.404 . S
C3741 H3753 0.930 . S
C3742 C3738 1.524 . S
C3742 H3754 0.956 . S
C3742 H3755 0.961 . S
C3742 H3756 0.961 . S
C3743 C3740 1.539 . S
C3743 H3757 0.958 . S
C3743 H3758 0.961 . S
C3743 H3759 0.960 . S
H3744 C3728 0.931 . S
H3745 C3733 0.929 . S
H3746 C3734 0.960 . S
H3747 C3734 0.962 . S
H3748 C3734 0.960 . S
H3749 C3735 0.961 . S
H3750 C3735 0.961 . S
H3751 C3735 0.961 . S
H3752 C3736 0.931 . S
H3753 C3741 0.930 . S
H3754 C3742 0.956 . S
H3755 C3742 0.961 . S
H3756 C3742 0.961 . S
H3757 C3743 0.958 . S
H3758 C3743 0.961 . S
H3759 C3743 0.960 . S
C3760 C3761 1.391 . S
C3760 C3762 1.394 . S
C3760 H3776 0.931 . S
C3761 C3760 1.391 . S
C3761 C3765 1.376 . S
C3762 C3760 1.394 . S
C3762 C3763 1.369 . S
C3762 C3766 1.531 . S
C3763 C3762 1.369 . S
C3763 C3764 1.410 . S
C3763 C3771 1.503 . S
C3764 C3763 1.410 . S
C3764 C3765 1.392 . S
C3764 C3767 1.511 . S
C3765 C3761 1.376 . S
C3765 C3764 1.392 . S
C3765 H3777 0.929 . S
C3766 C3762 1.531 . S
C3766 H3778 0.960 . S
C3766 H3779 0.962 . S
C3766 H3780 0.960 . S
C3767 C3764 1.511 . S
C3767 H3781 0.961 . S
C3767 H3782 0.961 . S
C3767 H3783 0.961 . S
C3768 C3769 1.370 . S
C3768 C3770 1.363 . S
C3768 H3784 0.931 . S
C3769 C3768 1.370 . S
C3769 C3773 1.408 . S
C3770 C3768 1.363 . S
C3770 C3771 1.370 . S
C3770 C3774 1.524 . S
C3771 C3763 1.503 . S
C3771 C3770 1.370 . S
C3771 C3772 1.403 . S
C3772 C3771 1.403 . S
C3772 C3773 1.404 . S
C3772 C3775 1.539 . S
C3773 C3769 1.408 . S
C3773 C3772 1.404 . S
C3773 H3785 0.930 . S
C3774 C3770 1.524 . S
C3774 H3786 0.956 . S
C3774 H3787 0.961 . S
C3774 H3788 0.961 . S
C3775 C3772 1.539 . S
C3775 H3789 0.958 . S
C3775 H3790 0.961 . S
C3775 H3791 0.960 . S
H3776 C3760 0.931 . S
H3777 C3765 0.929 . S
H3778 C3766 0.960 . S
H3779 C3766 0.962 . S
H3780 C3766 0.960 . S
H3781 C3767 0.961 . S
H3782 C3767 0.961 . S
H3783 C3767 0.961 . S
H3784 C3768 0.931 . S
H3785 C3773 0.930 . S
H3786 C3774 0.956 . S
H3787 C3774 0.961 . S
H3788 C3774 0.961 . S
H3789 C3775 0.958 . S
H3790 C3775 0.961 . S
H3791 C3775 0.960 . S
C3792 C3793 1.391 . S
C3792 C3794 1.394 . S
C3792 H3808 0.931 . S
C3793 C3792 1.391 . S
C3793 C3797 1.376 . S
C3794 C3792 1.394 . S
C3794 C3795 1.369 . S
C3794 C3798 1.531 . S
C3795 C3794 1.369 . S
C3795 C3796 1.410 . S
C3795 C3803 1.503 . S
C3796 C3795 1.410 . S
C3796 C3797 1.392 . S
C3796 C3799 1.511 . S
C3797 C3793 1.376 . S
C3797 C3796 1.392 . S
C3797 H3809 0.929 . S
C3798 C3794 1.531 . S
C3798 H3810 0.960 . S
C3798 H3811 0.962 . S
C3798 H3812 0.960 . S
C3799 C3796 1.511 . S
C3799 H3813 0.961 . S
C3799 H3814 0.961 . S
C3799 H3815 0.961 . S
C3800 C3801 1.370 . S
C3800 C3802 1.363 . S
C3800 H3816 0.931 . S
C3801 C3800 1.370 . S
C3801 C3805 1.408 . S
C3802 C3800 1.363 . S
C3802 C3803 1.370 . S
C3802 C3806 1.524 . S
C3803 C3795 1.503 . S
C3803 C3802 1.370 . S
C3803 C3804 1.403 . S
C3804 C3803 1.403 . S
C3804 C3805 1.404 . S
C3804 C3807 1.539 . S
C3805 C3801 1.408 . S
C3805 C3804 1.404 . S
C3805 H3817 0.930 . S
C3806 C3802 1.524 . S
C3806 H3818 0.956 . S
C3806 H3819 0.961 . S
C3806 H3820 0.961 . S
C3807 C3804 1.539 . S
C3807 H3821 0.958 . S
C3807 H3822 0.961 . S
C3807 H3823 0.960 . S
H3808 C3792 0.931 . S
H3809 C3797 0.929 . S
H3810 C3798 0.960 . S
H3811 C3798 0.962 . S
H3812 C3798 0.960 . S
H3813 C3799 0.961 . S
H3814 C3799 0.961 . S
H3815 C3799 0.961 . S
H3816 C3800 0.931 . S
H3817 C3805 0.930 . S
H3818 C3806 0.956 . S
H3819 C3806 0.961 . S
H3820 C3806 0.961 . S
H3821 C3807 0.958 . S
H3822 C3807 0.961 . S
H3823 C3807 0.960 . S
C3824 C3825 1.391 . S
C3824 C3826 1.394 . S
C3824 H3840 0.931 . S
C3825 C3824 1.391 . S
C3825 C3829 1.376 . S
C3826 C3824 1.394 . S
C3826 C3827 1.369 . S
C3826 C3830 1.531 . S
C3827 C3826 1.369 . S
C3827 C3828 1.410 . S
C3827 C3835 1.503 . S
C3828 C3827 1.410 . S
C3828 C3829 1.392 . S
C3828 C3831 1.511 . S
C3829 C3825 1.376 . S
C3829 C3828 1.392 . S
C3829 H3841 0.929 . S
C3830 C3826 1.531 . S
C3830 H3842 0.960 . S
C3830 H3843 0.962 . S
C3830 H3844 0.960 . S
C3831 C3828 1.511 . S
C3831 H3845 0.961 . S
C3831 H3846 0.961 . S
C3831 H3847 0.961 . S
C3832 C3833 1.370 . S
C3832 C3834 1.363 1_545 S
C3832 H3848 0.931 . S
C3833 C3832 1.370 . S
C3833 C3837 1.408 1_545 S
C3834 C3832 1.363 1_565 S
C3834 C3835 1.370 . S
C3834 C3838 1.524 . S
C3835 C3827 1.503 . S
C3835 C3834 1.370 . S
C3835 C3836 1.403 . S
C3836 C3835 1.403 . S
C3836 C3837 1.404 . S
C3836 C3839 1.539 . S
C3837 C3833 1.408 1_565 S
C3837 C3836 1.404 . S
C3837 H3849 0.930 . S
C3838 C3834 1.524 . S
C3838 H3850 0.956 . S
C3838 H3851 0.961 . S
C3838 H3852 0.961 1_565 S
C3839 C3836 1.539 . S
C3839 H3853 0.958 . S
C3839 H3854 0.961 . S
C3839 H3855 0.960 . S
H3840 C3824 0.931 . S
H3841 C3829 0.929 . S
H3842 C3830 0.960 . S
H3843 C3830 0.962 . S
H3844 C3830 0.960 . S
H3845 C3831 0.961 . S
H3846 C3831 0.961 . S
H3847 C3831 0.961 . S
H3848 C3832 0.931 . S
H3849 C3837 0.930 . S
H3850 C3838 0.956 . S
H3851 C3838 0.961 . S
H3852 C3838 0.961 1_545 S
H3853 C3839 0.958 . S
H3854 C3839 0.961 . S
H3855 C3839 0.960 . S
C3856 C3857 1.391 . S
C3856 C3858 1.394 . S
C3856 H3872 0.931 . S
C3857 C3856 1.391 . S
C3857 C3861 1.376 . S
C3858 C3856 1.394 . S
C3858 C3859 1.369 . S
C3858 C3862 1.531 . S
C3859 C3858 1.369 . S
C3859 C3860 1.410 . S
C3859 C3867 1.503 . S
C3860 C3859 1.410 . S
C3860 C3861 1.392 . S
C3860 C3863 1.511 . S
C3861 C3857 1.376 . S
C3861 C3860 1.392 . S
C3861 H3873 0.929 . S
C3862 C3858 1.531 . S
C3862 H3874 0.960 . S
C3862 H3875 0.962 . S
C3862 H3876 0.960 . S
C3863 C3860 1.511 . S
C3863 H3877 0.961 . S
C3863 H3878 0.961 . S
C3863 H3879 0.961 . S
C3864 C3865 1.370 . S
C3864 C3866 1.363 . S
C3864 H3880 0.931 . S
C3865 C3864 1.370 . S
C3865 C3869 1.408 . S
C3866 C3864 1.363 . S
C3866 C3867 1.370 . S
C3866 C3870 1.524 . S
C3867 C3859 1.503 . S
C3867 C3866 1.370 . S
C3867 C3868 1.403 . S
C3868 C3867 1.403 . S
C3868 C3869 1.404 . S
C3868 C3871 1.539 . S
C3869 C3865 1.408 . S
C3869 C3868 1.404 . S
C3869 H3881 0.930 . S
C3870 C3866 1.524 . S
C3870 H3882 0.956 . S
C3870 H3883 0.961 . S
C3870 H3884 0.961 . S
C3871 C3868 1.539 . S
C3871 H3885 0.958 . S
C3871 H3886 0.961 . S
C3871 H3887 0.960 . S
H3872 C3856 0.931 . S
H3873 C3861 0.929 . S
H3874 C3862 0.960 . S
H3875 C3862 0.962 . S
H3876 C3862 0.960 . S
H3877 C3863 0.961 . S
H3878 C3863 0.961 . S
H3879 C3863 0.961 . S
H3880 C3864 0.931 . S
H3881 C3869 0.930 . S
H3882 C3870 0.956 . S
H3883 C3870 0.961 . S
H3884 C3870 0.961 . S
H3885 C3871 0.958 . S
H3886 C3871 0.961 . S
H3887 C3871 0.960 . S
C3888 C3889 1.391 . S
C3888 C3890 1.394 . S
C3888 H3904 0.931 . S
C3889 C3888 1.391 . S
C3889 C3893 1.376 . S
C3890 C3888 1.394 . S
C3890 C3891 1.369 . S
C3890 C3894 1.531 . S
C3891 C3890 1.369 . S
C3891 C3892 1.410 . S
C3891 C3899 1.503 . S
C3892 C3891 1.410 . S
C3892 C3893 1.392 . S
C3892 C3895 1.511 . S
C3893 C3889 1.376 . S
C3893 C3892 1.392 . S
C3893 H3905 0.929 . S
C3894 C3890 1.531 . S
C3894 H3906 0.960 . S
C3894 H3907 0.962 . S
C3894 H3908 0.960 . S
C3895 C3892 1.511 . S
C3895 H3909 0.961 . S
C3895 H3910 0.961 . S
C3895 H3911 0.961 . S
C3896 C3897 1.370 . S
C3896 C3898 1.363 . S
C3896 H3912 0.931 . S
C3897 C3896 1.370 . S
C3897 C3901 1.408 . S
C3898 C3896 1.363 . S
C3898 C3899 1.370 . S
C3898 C3902 1.524 . S
C3899 C3891 1.503 . S
C3899 C3898 1.370 . S
C3899 C3900 1.403 . S
C3900 C3899 1.403 . S
C3900 C3901 1.404 . S
C3900 C3903 1.539 . S
C3901 C3897 1.408 . S
C3901 C3900 1.404 . S
C3901 H3913 0.930 . S
C3902 C3898 1.524 . S
C3902 H3914 0.956 . S
C3902 H3915 0.961 . S
C3902 H3916 0.961 . S
C3903 C3900 1.539 . S
C3903 H3917 0.958 . S
C3903 H3918 0.961 . S
C3903 H3919 0.960 . S
H3904 C3888 0.931 . S
H3905 C3893 0.929 . S
H3906 C3894 0.960 . S
H3907 C3894 0.962 . S
H3908 C3894 0.960 . S
H3909 C3895 0.961 . S
H3910 C3895 0.961 . S
H3911 C3895 0.961 . S
H3912 C3896 0.931 . S
H3913 C3901 0.930 . S
H3914 C3902 0.956 . S
H3915 C3902 0.961 . S
H3916 C3902 0.961 . S
H3917 C3903 0.958 . S
H3918 C3903 0.961 . S
H3919 C3903 0.960 . S
C3920 C3921 1.391 . S
C3920 C3922 1.394 . S
C3920 H3936 0.931 . S
C3921 C3920 1.391 . S
C3921 C3925 1.376 . S
C3922 C3920 1.394 . S
C3922 C3923 1.369 . S
C3922 C3926 1.531 . S
C3923 C3922 1.369 . S
C3923 C3924 1.410 . S
C3923 C3931 1.503 . S
C3924 C3923 1.410 . S
C3924 C3925 1.392 . S
C3924 C3927 1.511 . S
C3925 C3921 1.376 . S
C3925 C3924 1.392 . S
C3925 H3937 0.929 . S
C3926 C3922 1.531 . S
C3926 H3938 0.960 . S
C3926 H3939 0.962 . S
C3926 H3940 0.960 . S
C3927 C3924 1.511 . S
C3927 H3941 0.961 . S
C3927 H3942 0.961 . S
C3927 H3943 0.961 . S
C3928 C3929 1.370 . S
C3928 C3930 1.363 . S
C3928 H3944 0.931 . S
C3929 C3928 1.370 . S
C3929 C3933 1.408 . S
C3930 C3928 1.363 . S
C3930 C3931 1.370 . S
C3930 C3934 1.524 . S
C3931 C3923 1.503 . S
C3931 C3930 1.370 . S
C3931 C3932 1.403 . S
C3932 C3931 1.403 . S
C3932 C3933 1.404 . S
C3932 C3935 1.539 . S
C3933 C3929 1.408 . S
C3933 C3932 1.404 . S
C3933 H3945 0.930 . S
C3934 C3930 1.524 . S
C3934 H3946 0.956 . S
C3934 H3947 0.961 . S
C3934 H3948 0.961 . S
C3935 C3932 1.539 . S
C3935 H3949 0.958 . S
C3935 H3950 0.961 . S
C3935 H3951 0.960 . S
H3936 C3920 0.931 . S
H3937 C3925 0.929 . S
H3938 C3926 0.960 . S
H3939 C3926 0.962 . S
H3940 C3926 0.960 . S
H3941 C3927 0.961 . S
H3942 C3927 0.961 . S
H3943 C3927 0.961 . S
H3944 C3928 0.931 . S
H3945 C3933 0.930 . S
H3946 C3934 0.956 . S
H3947 C3934 0.961 . S
H3948 C3934 0.961 . S
H3949 C3935 0.958 . S
H3950 C3935 0.961 . S
H3951 C3935 0.960 . S
C3952 C3953 1.391 . S
C3952 C3954 1.394 . S
C3952 H3968 0.931 . S
C3953 C3952 1.391 . S
C3953 C3957 1.376 . S
C3954 C3952 1.394 . S
C3954 C3955 1.369 . S
C3954 C3958 1.531 . S
C3955 C3954 1.369 . S
C3955 C3956 1.410 . S
C3955 C3963 1.503 . S
C3956 C3955 1.410 . S
C3956 C3957 1.392 . S
C3956 C3959 1.511 . S
C3957 C3953 1.376 . S
C3957 C3956 1.392 . S
C3957 H3969 0.929 . S
C3958 C3954 1.531 . S
C3958 H3970 0.960 . S
C3958 H3971 0.962 . S
C3958 H3972 0.960 . S
C3959 C3956 1.511 . S
C3959 H3973 0.961 1_554 S
C3959 H3974 0.961 1_554 S
C3959 H3975 0.961 . S
C3960 C3961 1.370 . S
C3960 C3962 1.363 . S
C3960 H3976 0.931 . S
C3961 C3960 1.370 . S
C3961 C3965 1.408 1_556 S
C3962 C3960 1.363 . S
C3962 C3963 1.370 1_556 S
C3962 C3966 1.524 . S
C3963 C3955 1.503 . S
C3963 C3962 1.370 1_554 S
C3963 C3964 1.403 . S
C3964 C3963 1.403 . S
C3964 C3965 1.404 . S
C3964 C3967 1.539 . S
C3965 C3961 1.408 1_554 S
C3965 C3964 1.404 . S
C3965 H3977 0.930 . S
C3966 C3962 1.524 . S
C3966 H3978 0.956 . S
C3966 H3979 0.961 . S
C3966 H3980 0.961 . S
C3967 C3964 1.539 . S
C3967 H3981 0.958 . S
C3967 H3982 0.961 . S
C3967 H3983 0.960 . S
H3968 C3952 0.931 . S
H3969 C3957 0.929 . S
H3970 C3958 0.960 . S
H3971 C3958 0.962 . S
H3972 C3958 0.960 . S
H3973 C3959 0.961 1_556 S
H3974 C3959 0.961 1_556 S
H3975 C3959 0.961 . S
H3976 C3960 0.931 . S
H3977 C3965 0.930 . S
H3978 C3966 0.956 . S
H3979 C3966 0.961 . S
H3980 C3966 0.961 . S
H3981 C3967 0.958 . S
H3982 C3967 0.961 . S
H3983 C3967 0.960 . S
C3984 C3985 1.391 . S
C3984 C3986 1.394 . S
C3984 H4000 0.931 . S
C3985 C3984 1.391 . S
C3985 C3989 1.376 . S
C3986 C3984 1.394 . S
C3986 C3987 1.369 . S
C3986 C3990 1.531 . S
C3987 C3986 1.369 . S
C3987 C3988 1.410 . S
C3987 C3995 1.503 . S
C3988 C3987 1.410 . S
C3988 C3989 1.392 . S
C3988 C3991 1.511 . S
C3989 C3985 1.376 . S
C3989 C3988 1.392 . S
C3989 H4001 0.929 . S
C3990 C3986 1.531 . S
C3990 H4002 0.960 . S
C3990 H4003 0.962 . S
C3990 H4004 0.960 . S
C3991 C3988 1.511 . S
C3991 H4005 0.961 . S
C3991 H4006 0.961 . S
C3991 H4007 0.961 . S
C3992 C3993 1.370 . S
C3992 C3994 1.363 . S
C3992 H4008 0.931 . S
C3993 C3992 1.370 . S
C3993 C3997 1.408 . S
C3994 C3992 1.363 . S
C3994 C3995 1.370 . S
C3994 C3998 1.524 . S
C3995 C3987 1.503 . S
C3995 C3994 1.370 . S
C3995 C3996 1.403 . S
C3996 C3995 1.403 . S
C3996 C3997 1.404 . S
C3996 C3999 1.539 . S
C3997 C3993 1.408 . S
C3997 C3996 1.404 . S
C3997 H4009 0.930 . S
C3998 C3994 1.524 . S
C3998 H4010 0.956 . S
C3998 H4011 0.961 . S
C3998 H4012 0.961 . S
C3999 C3996 1.539 . S
C3999 H4013 0.958 . S
C3999 H4014 0.961 . S
C3999 H4015 0.960 . S
H4000 C3984 0.931 . S
H4001 C3989 0.929 . S
H4002 C3990 0.960 . S
H4003 C3990 0.962 . S
H4004 C3990 0.960 . S
H4005 C3991 0.961 . S
H4006 C3991 0.961 . S
H4007 C3991 0.961 . S
H4008 C3992 0.931 . S
H4009 C3997 0.930 . S
H4010 C3998 0.956 . S
H4011 C3998 0.961 . S
H4012 C3998 0.961 . S
H4013 C3999 0.958 . S
H4014 C3999 0.961 . S
H4015 C3999 0.960 . S
C4016 C4017 1.391 . S
C4016 C4018 1.394 . S
C4016 H4032 0.931 . S
C4017 C4016 1.391 . S
C4017 C4021 1.376 . S
C4018 C4016 1.394 . S
C4018 C4019 1.369 . S
C4018 C4022 1.531 . S
C4019 C4018 1.369 . S
C4019 C4020 1.410 . S
C4019 C4027 1.503 . S
C4020 C4019 1.410 . S
C4020 C4021 1.392 . S
C4020 C4023 1.511 . S
C4021 C4017 1.376 . S
C4021 C4020 1.392 . S
C4021 H4033 0.929 . S
C4022 C4018 1.531 . S
C4022 H4034 0.960 . S
C4022 H4035 0.962 . S
C4022 H4036 0.960 . S
C4023 C4020 1.511 . S
C4023 H4037 0.961 . S
C4023 H4038 0.961 . S
C4023 H4039 0.961 . S
C4024 C4025 1.370 . S
C4024 C4026 1.363 . S
C4024 H4040 0.931 . S
C4025 C4024 1.370 . S
C4025 C4029 1.408 . S
C4026 C4024 1.363 . S
C4026 C4027 1.370 . S
C4026 C4030 1.524 . S
C4027 C4019 1.503 . S
C4027 C4026 1.370 . S
C4027 C4028 1.403 . S
C4028 C4027 1.403 . S
C4028 C4029 1.404 . S
C4028 C4031 1.539 . S
C4029 C4025 1.408 . S
C4029 C4028 1.404 . S
C4029 H4041 0.930 . S
C4030 C4026 1.524 . S
C4030 H4042 0.956 . S
C4030 H4043 0.961 . S
C4030 H4044 0.961 . S
C4031 C4028 1.539 . S
C4031 H4045 0.958 . S
C4031 H4046 0.961 . S
C4031 H4047 0.960 . S
H4032 C4016 0.931 . S
H4033 C4021 0.929 . S
H4034 C4022 0.960 . S
H4035 C4022 0.962 . S
H4036 C4022 0.960 . S
H4037 C4023 0.961 . S
H4038 C4023 0.961 . S
H4039 C4023 0.961 . S
H4040 C4024 0.931 . S
H4041 C4029 0.930 . S
H4042 C4030 0.956 . S
H4043 C4030 0.961 . S
H4044 C4030 0.961 . S
H4045 C4031 0.958 . S
H4046 C4031 0.961 . S
H4047 C4031 0.960 . S
C977 C109 2.121 . S
C985 C349 2.101 . S
C1009 C61 1.798 . S
C1017 C400 2.010 . S
C1041 C74 1.580 . S
C1049 C429 1.609 . S
C1081 C473 1.438 . S
C1073 C96 1.492 . S
C1105 C25 1.290 . S
C1113 C513 1.252 . S
C1145 C549 1.620 . S
C1137 C40 1.603 . S
C1177 C599 1.894 . S
C1169 C46 1.866 . S
C1201 C5 1.859 . S
C1209 C629 2.292 . S
C1241 C359 1.822 . S
C1233 C229 1.602 . S
C1265 C249 0.480 . S
C1273 C402 0.570 . S
C1305 C439 1.087 . S
C1297 C271 0.948 . S
C1337 C469 1.529 . S
C1329 C172 1.435 . S
C1361 C236 1.397 . S
C1369 C509 1.394 . S
C1401 C559 1.065 . S
C1393 C242 1.044 . S
C1433 C593 0.763 . S
C1425 C278 0.733 . S
C1465 C639 1.937 . S
C1457 C179 1.965 . S
C1497 C353 1.060 . S
C1489 C159 0.812 1_556 S
C1521 C285 1.431 . S
C1529 C679 1.601 . S
C1561 C713 1.299 . S
C1553 C333 1.316 . S
C1593 C749 0.786 . S
C1585 C320 0.770 . S
C1617 C123 1.375 . S
C1625 C633 1.285 . S
C1649 C138 1.522 . S
C1657 C433 1.492 . S
C1681 C326 1.664 . S
C1689 C799 1.688 . S
C1721 C818 0.240 . S
C1713 C298 0.352 . S
C1753 C360 2.066 . S
C1745 C67 2.032 . S
C1785 C829 1.935 . S
C1777 C110 1.928 . S
C1809 C88 1.537 . S
C1817 C440 1.568 . S
C1841 C75 1.192 . S
C1849 C802 1.336 . S
C1881 C522 1.240 . S
C1873 C11 1.218 . S
C1905 C47 1.460 . S
C1913 C720 1.567 . S
C1945 C578 1.767 1_556 S
C1937 C32 1.661 . S
C1977 C880 2.307 . S
C1969 C26 2.316 . S
C2009 C338 1.908 . S
C2001 C152 1.915 . S
C2041 C833 0.515 . S
C2033 C319 0.546 . S
C2065 C124 1.074 . S
C2073 C418 1.054 . S
C2097 C284 1.519 . S
C2105 C800 1.528 . S
C2129 C145 1.143 . S
C2137 C520 1.330 . S
C2169 C698 0.900 . S
C2161 C312 0.910 . S
C2193 C117 0.566 1_565 S
C2201 C602 0.624 . S
C2225 C291 1.858 . S
C2233 C858 1.835 . S
C2257 C194 1.175 . S
C2265 C362 1.134 . S
C2289 C180 1.557 . S
C2297 C658 1.550 . S
C2321 C263 1.264 . S
C2329 C562 1.208 . S
C2353 C243 0.811 . S
C2361 C760 0.707 . S
C2393 C882 1.346 . S
C2385 C277 1.278 . S
C2417 C215 1.277 . S
C2425 C442 1.463 . S
C2457 C458 1.569 . S
C2449 C256 1.533 . S
C2489 C399 0.327 . S
C2481 C200 0.232 . S
C2513 C81 2.128 . S
C2521 C909 2.106 . S
C2553 C840 2.021 . S
C2545 C89 1.721 . S
C2577 C102 1.531 . S
C2585 C949 1.601 . S
C2609 C68 1.485 . S
C2617 C793 1.450 . S
C2641 C53 1.253 . S
C2649 C673 1.240 . S
C2681 C709 1.611 . S
C2673 C12 1.584 . S
C2713 C759 1.903 . S
C2705 C18 1.888 . S
C2745 C869 2.297 . S
C2737 C33 1.847 . S
C2777 C919 1.823 . S
C2769 C257 1.602 . S
C2801 C193 0.567 . S
C2809 C842 0.538 . S
C2841 C959 1.093 . S
C2833 C201 1.012 . S
C2873 C789 1.525 . S
C2865 C214 1.447 . S
C2905 C669 1.389 . S
C2897 C264 1.377 . S
C2929 C186 1.061 . S
C2937 C719 1.042 . S
C2969 C753 0.759 . S
C2961 C208 0.734 . S
C2993 C221 1.958 . S
C3001 C879 1.952 . S
C3033 C913 1.037 . S
C3025 C313 0.905 . S
C3057 C131 1.420 . S
C3065 C519 1.603 . S
C3097 C553 1.282 . S
C3089 C151 1.329 . S
C3129 C589 0.801 . S
C3121 C166 0.806 . S
C3161 C873 1.322 . S
C3153 C305 1.361 . S
C3185 C292 1.543 . S
C3193 C953 1.471 . S
C3225 C479 1.681 . S
C3217 C144 1.677 . S
C3257 C378 0.197 . S
C3249 C116 0.225 . S
C3281 C95 2.011 . S
C3289 C920 2.072 . S
C3321 C389 1.935 . S
C3313 C82 1.949 . S
C3345 C60 1.559 . S
C3353 C960 1.579 . S
C3377 C103 1.104 . S
C3385 C482 1.346 . S
C3409 C39 1.231 . S
C3417 C682 1.229 . S
C3449 C560 1.571 . S
C3441 C19 1.359 . S
C3473 C4 1.672 . S
C3481 C738 1.766 . S
C3505 C54 2.295 . S
C3513 C640 2.310 . S
C3545 C898 1.896 . S
C3537 C334 1.931 . S
C3569 C165 0.588 . S
C3577 C393 0.531 . S
C3609 C938 1.060 1_655 S
C3601 C306 1.081 . S
C3633 C130 1.503 . S
C3641 C480 1.529 . S
C3665 C327 1.138 . S
C3673 C680 1.328 . S
C3705 C538 0.898 . S
C3697 C158 0.905 . S
C3729 C299 0.580 . S
C3737 C762 0.615 . S
C3769 C618 1.843 . S
C3761 C137 1.843 . S
C3801 C922 1.160 . S
C3793 C250 1.166 . S
C3833 C498 1.550 . S
C3825 C222 1.557 . S
C3857 C235 1.237 . S
C3865 C722 1.217 . S
C3897 C600 0.705 . S
C3889 C187 0.841 . S
C3921 C207 1.361 . S
C3929 C642 1.324 . S
C3953 C173 1.265 . S
C3961 C962 1.451 . S
C3993 C778 1.571 . S
C3985 C228 1.534 . S
C4025 C839 0.293 . S
C4017 C270 0.347 . S
