# Generated by pormake.
# Topology iac, (4,6)-cn, num edge types: 1
# Building blocks:
#     Node 0, Type 0, BuildingBlock: QUQFOY_clean_sbu_3, # of connection points: 4
#     Node 1, Type 0, BuildingBlock: QUQFOY_clean_sbu_3, # of connection points: 4
#     Node 2, Type 0, BuildingBlock: QUQFOY_clean_sbu_3, # of connection points: 4
#     Node 3, Type 0, BuildingBlock: QUQFOY_clean_sbu_3, # of connection points: 4
#     Node 4, Type 0, BuildingBlock: QUQFOY_clean_sbu_3, # of connection points: 4
#     Node 5, Type 0, BuildingBlock: QUQFOY_clean_sbu_3, # of connection points: 4
#     Node 6, Type 0, BuildingBlock: QUQFOY_clean_sbu_3, # of connection points: 4
#     Node 7, Type 0, BuildingBlock: QUQFOY_clean_sbu_3, # of connection points: 4
#     Node 8, Type 0, BuildingBlock: QUQFOY_clean_sbu_3, # of connection points: 4
#     Node 9, Type 0, BuildingBlock: QUQFOY_clean_sbu_3, # of connection points: 4
#     Node 10, Type 0, BuildingBlock: QUQFOY_clean_sbu_3, # of connection points: 4
#     Node 11, Type 0, BuildingBlock: QUQFOY_clean_sbu_3, # of connection points: 4
#     Node 12, Type 0, BuildingBlock: QUQFOY_clean_sbu_3, # of connection points: 4
#     Node 13, Type 0, BuildingBlock: QUQFOY_clean_sbu_3, # of connection points: 4
#     Node 14, Type 0, BuildingBlock: QUQFOY_clean_sbu_3, # of connection points: 4
#     Node 15, Type 0, BuildingBlock: QUQFOY_clean_sbu_3, # of connection points: 4
#     Node 16, Type 0, BuildingBlock: QUQFOY_clean_sbu_3, # of connection points: 4
#     Node 17, Type 0, BuildingBlock: QUQFOY_clean_sbu_3, # of connection points: 4
#     Node 18, Type 0, BuildingBlock: QUQFOY_clean_sbu_3, # of connection points: 4
#     Node 19, Type 0, BuildingBlock: QUQFOY_clean_sbu_3, # of connection points: 4
#     Node 20, Type 0, BuildingBlock: QUQFOY_clean_sbu_3, # of connection points: 4
#     Node 21, Type 0, BuildingBlock: QUQFOY_clean_sbu_3, # of connection points: 4
#     Node 22, Type 0, BuildingBlock: QUQFOY_clean_sbu_3, # of connection points: 4
#     Node 23, Type 0, BuildingBlock: QUQFOY_clean_sbu_3, # of connection points: 4
#     Node 24, Type 1, BuildingBlock: VOLQOD_clean_sbu_1, # of connection points: 6
#     Node 25, Type 1, BuildingBlock: VOLQOD_clean_sbu_1, # of connection points: 6
#     Node 26, Type 1, BuildingBlock: VOLQOD_clean_sbu_1, # of connection points: 6
#     Node 27, Type 1, BuildingBlock: VOLQOD_clean_sbu_1, # of connection points: 6
#     Node 28, Type 1, BuildingBlock: VOLQOD_clean_sbu_1, # of connection points: 6
#     Node 29, Type 1, BuildingBlock: VOLQOD_clean_sbu_1, # of connection points: 6
#     Node 30, Type 1, BuildingBlock: VOLQOD_clean_sbu_1, # of connection points: 6
#     Node 31, Type 1, BuildingBlock: VOLQOD_clean_sbu_1, # of connection points: 6
#     Node 32, Type 1, BuildingBlock: VOLQOD_clean_sbu_1, # of connection points: 6
#     Node 33, Type 1, BuildingBlock: VOLQOD_clean_sbu_1, # of connection points: 6
#     Node 34, Type 1, BuildingBlock: VOLQOD_clean_sbu_1, # of connection points: 6
#     Node 35, Type 1, BuildingBlock: VOLQOD_clean_sbu_1, # of connection points: 6
#     Node 36, Type 1, BuildingBlock: VOLQOD_clean_sbu_1, # of connection points: 6
#     Node 37, Type 1, BuildingBlock: VOLQOD_clean_sbu_1, # of connection points: 6
#     Node 38, Type 1, BuildingBlock: VOLQOD_clean_sbu_1, # of connection points: 6
#     Node 39, Type 1, BuildingBlock: VOLQOD_clean_sbu_1, # of connection points: 6
#     Edge 40, Type (0, 1), BuildingBlock: MIFKUJ_clean_linker_0, # of connection points: 2
#     Edge 41, Type (0, 1), BuildingBlock: MIFKUJ_clean_linker_0, # of connection points: 2
#     Edge 42, Type (0, 1), BuildingBlock: MIFKUJ_clean_linker_0, # of connection points: 2
#     Edge 43, Type (0, 1), BuildingBlock: MIFKUJ_clean_linker_0, # of connection points: 2
#     Edge 44, Type (0, 1), BuildingBlock: MIFKUJ_clean_linker_0, # of connection points: 2
#     Edge 45, Type (0, 1), BuildingBlock: MIFKUJ_clean_linker_0, # of connection points: 2
#     Edge 46, Type (0, 1), BuildingBlock: MIFKUJ_clean_linker_0, # of connection points: 2
#     Edge 47, Type (0, 1), BuildingBlock: MIFKUJ_clean_linker_0, # of connection points: 2
#     Edge 48, Type (0, 1), BuildingBlock: MIFKUJ_clean_linker_0, # of connection points: 2
#     Edge 49, Type (0, 1), BuildingBlock: MIFKUJ_clean_linker_0, # of connection points: 2
#     Edge 50, Type (0, 1), BuildingBlock: MIFKUJ_clean_linker_0, # of connection points: 2
#     Edge 51, Type (0, 1), BuildingBlock: MIFKUJ_clean_linker_0, # of connection points: 2
#     Edge 52, Type (0, 1), BuildingBlock: MIFKUJ_clean_linker_0, # of connection points: 2
#     Edge 53, Type (0, 1), BuildingBlock: MIFKUJ_clean_linker_0, # of connection points: 2
#     Edge 54, Type (0, 1), BuildingBlock: MIFKUJ_clean_linker_0, # of connection points: 2
#     Edge 55, Type (0, 1), BuildingBlock: MIFKUJ_clean_linker_0, # of connection points: 2
#     Edge 56, Type (0, 1), BuildingBlock: MIFKUJ_clean_linker_0, # of connection points: 2
#     Edge 57, Type (0, 1), BuildingBlock: MIFKUJ_clean_linker_0, # of connection points: 2
#     Edge 58, Type (0, 1), BuildingBlock: MIFKUJ_clean_linker_0, # of connection points: 2
#     Edge 59, Type (0, 1), BuildingBlock: MIFKUJ_clean_linker_0, # of connection points: 2
#     Edge 60, Type (0, 1), BuildingBlock: MIFKUJ_clean_linker_0, # of connection points: 2
#     Edge 61, Type (0, 1), BuildingBlock: MIFKUJ_clean_linker_0, # of connection points: 2
#     Edge 62, Type (0, 1), BuildingBlock: MIFKUJ_clean_linker_0, # of connection points: 2
#     Edge 63, Type (0, 1), BuildingBlock: MIFKUJ_clean_linker_0, # of connection points: 2
#     Edge 64, Type (0, 1), BuildingBlock: MIFKUJ_clean_linker_0, # of connection points: 2
#     Edge 65, Type (0, 1), BuildingBlock: MIFKUJ_clean_linker_0, # of connection points: 2
#     Edge 66, Type (0, 1), BuildingBlock: MIFKUJ_clean_linker_0, # of connection points: 2
#     Edge 67, Type (0, 1), BuildingBlock: MIFKUJ_clean_linker_0, # of connection points: 2
#     Edge 68, Type (0, 1), BuildingBlock: MIFKUJ_clean_linker_0, # of connection points: 2
#     Edge 69, Type (0, 1), BuildingBlock: MIFKUJ_clean_linker_0, # of connection points: 2
#     Edge 70, Type (0, 1), BuildingBlock: MIFKUJ_clean_linker_0, # of connection points: 2
#     Edge 71, Type (0, 1), BuildingBlock: MIFKUJ_clean_linker_0, # of connection points: 2
#     Edge 72, Type (0, 1), BuildingBlock: MIFKUJ_clean_linker_0, # of connection points: 2
#     Edge 73, Type (0, 1), BuildingBlock: MIFKUJ_clean_linker_0, # of connection points: 2
#     Edge 74, Type (0, 1), BuildingBlock: MIFKUJ_clean_linker_0, # of connection points: 2
#     Edge 75, Type (0, 1), BuildingBlock: MIFKUJ_clean_linker_0, # of connection points: 2
#     Edge 76, Type (0, 1), BuildingBlock: MIFKUJ_clean_linker_0, # of connection points: 2
#     Edge 77, Type (0, 1), BuildingBlock: MIFKUJ_clean_linker_0, # of connection points: 2
#     Edge 78, Type (0, 1), BuildingBlock: MIFKUJ_clean_linker_0, # of connection points: 2
#     Edge 79, Type (0, 1), BuildingBlock: MIFKUJ_clean_linker_0, # of connection points: 2
#     Edge 80, Type (0, 1), BuildingBlock: MIFKUJ_clean_linker_0, # of connection points: 2
#     Edge 81, Type (0, 1), BuildingBlock: MIFKUJ_clean_linker_0, # of connection points: 2
#     Edge 82, Type (0, 1), BuildingBlock: MIFKUJ_clean_linker_0, # of connection points: 2
#     Edge 83, Type (0, 1), BuildingBlock: MIFKUJ_clean_linker_0, # of connection points: 2
#     Edge 84, Type (0, 1), BuildingBlock: MIFKUJ_clean_linker_0, # of connection points: 2
#     Edge 85, Type (0, 1), BuildingBlock: MIFKUJ_clean_linker_0, # of connection points: 2
#     Edge 86, Type (0, 1), BuildingBlock: MIFKUJ_clean_linker_0, # of connection points: 2
#     Edge 87, Type (0, 1), BuildingBlock: MIFKUJ_clean_linker_0, # of connection points: 2
#     Edge 88, Type (0, 1), BuildingBlock: MIFKUJ_clean_linker_0, # of connection points: 2
#     Edge 89, Type (0, 1), BuildingBlock: MIFKUJ_clean_linker_0, # of connection points: 2
#     Edge 90, Type (0, 1), BuildingBlock: MIFKUJ_clean_linker_0, # of connection points: 2
#     Edge 91, Type (0, 1), BuildingBlock: MIFKUJ_clean_linker_0, # of connection points: 2
#     Edge 92, Type (0, 1), BuildingBlock: MIFKUJ_clean_linker_0, # of connection points: 2
#     Edge 93, Type (0, 1), BuildingBlock: MIFKUJ_clean_linker_0, # of connection points: 2
#     Edge 94, Type (0, 1), BuildingBlock: MIFKUJ_clean_linker_0, # of connection points: 2
#     Edge 95, Type (0, 1), BuildingBlock: MIFKUJ_clean_linker_0, # of connection points: 2
#     Edge 96, Type (0, 1), BuildingBlock: MIFKUJ_clean_linker_0, # of connection points: 2
#     Edge 97, Type (0, 1), BuildingBlock: MIFKUJ_clean_linker_0, # of connection points: 2
#     Edge 98, Type (0, 1), BuildingBlock: MIFKUJ_clean_linker_0, # of connection points: 2
#     Edge 99, Type (0, 1), BuildingBlock: MIFKUJ_clean_linker_0, # of connection points: 2
#     Edge 100, Type (0, 1), BuildingBlock: MIFKUJ_clean_linker_0, # of connection points: 2
#     Edge 101, Type (0, 1), BuildingBlock: MIFKUJ_clean_linker_0, # of connection points: 2
#     Edge 102, Type (0, 1), BuildingBlock: MIFKUJ_clean_linker_0, # of connection points: 2
#     Edge 103, Type (0, 1), BuildingBlock: MIFKUJ_clean_linker_0, # of connection points: 2
#     Edge 104, Type (0, 1), BuildingBlock: MIFKUJ_clean_linker_0, # of connection points: 2
#     Edge 105, Type (0, 1), BuildingBlock: MIFKUJ_clean_linker_0, # of connection points: 2
#     Edge 106, Type (0, 1), BuildingBlock: MIFKUJ_clean_linker_0, # of connection points: 2
#     Edge 107, Type (0, 1), BuildingBlock: MIFKUJ_clean_linker_0, # of connection points: 2
#     Edge 108, Type (0, 1), BuildingBlock: MIFKUJ_clean_linker_0, # of connection points: 2
#     Edge 109, Type (0, 1), BuildingBlock: MIFKUJ_clean_linker_0, # of connection points: 2
#     Edge 110, Type (0, 1), BuildingBlock: MIFKUJ_clean_linker_0, # of connection points: 2
#     Edge 111, Type (0, 1), BuildingBlock: MIFKUJ_clean_linker_0, # of connection points: 2
#     Edge 112, Type (0, 1), BuildingBlock: MIFKUJ_clean_linker_0, # of connection points: 2
#     Edge 113, Type (0, 1), BuildingBlock: MIFKUJ_clean_linker_0, # of connection points: 2
#     Edge 114, Type (0, 1), BuildingBlock: MIFKUJ_clean_linker_0, # of connection points: 2
#     Edge 115, Type (0, 1), BuildingBlock: MIFKUJ_clean_linker_0, # of connection points: 2
#     Edge 116, Type (0, 1), BuildingBlock: MIFKUJ_clean_linker_0, # of connection points: 2
#     Edge 117, Type (0, 1), BuildingBlock: MIFKUJ_clean_linker_0, # of connection points: 2
#     Edge 118, Type (0, 1), BuildingBlock: MIFKUJ_clean_linker_0, # of connection points: 2
#     Edge 119, Type (0, 1), BuildingBlock: MIFKUJ_clean_linker_0, # of connection points: 2
#     Edge 120, Type (0, 1), BuildingBlock: MIFKUJ_clean_linker_0, # of connection points: 2
#     Edge 121, Type (0, 1), BuildingBlock: MIFKUJ_clean_linker_0, # of connection points: 2
#     Edge 122, Type (0, 1), BuildingBlock: MIFKUJ_clean_linker_0, # of connection points: 2
#     Edge 123, Type (0, 1), BuildingBlock: MIFKUJ_clean_linker_0, # of connection points: 2
#     Edge 124, Type (0, 1), BuildingBlock: MIFKUJ_clean_linker_0, # of connection points: 2
#     Edge 125, Type (0, 1), BuildingBlock: MIFKUJ_clean_linker_0, # of connection points: 2
#     Edge 126, Type (0, 1), BuildingBlock: MIFKUJ_clean_linker_0, # of connection points: 2
#     Edge 127, Type (0, 1), BuildingBlock: MIFKUJ_clean_linker_0, # of connection points: 2
#     Edge 128, Type (0, 1), BuildingBlock: MIFKUJ_clean_linker_0, # of connection points: 2
#     Edge 129, Type (0, 1), BuildingBlock: MIFKUJ_clean_linker_0, # of connection points: 2
#     Edge 130, Type (0, 1), BuildingBlock: MIFKUJ_clean_linker_0, # of connection points: 2
#     Edge 131, Type (0, 1), BuildingBlock: MIFKUJ_clean_linker_0, # of connection points: 2
#     Edge 132, Type (0, 1), BuildingBlock: MIFKUJ_clean_linker_0, # of connection points: 2
#     Edge 133, Type (0, 1), BuildingBlock: MIFKUJ_clean_linker_0, # of connection points: 2
#     Edge 134, Type (0, 1), BuildingBlock: MIFKUJ_clean_linker_0, # of connection points: 2
#     Edge 135, Type (0, 1), BuildingBlock: MIFKUJ_clean_linker_0, # of connection points: 2
# Relax obj value: 0.302
# Max RMSD: 0.293
# Mean RMSD: 0.139
data_MOF--net-iac--node1-QUQFOY_clean_sbu_3--node2-VOLQOD_clean_sbu_1--edge1-MIFKUJ_clean_linker_0
_symmetry_space_group_name_H-M    P1
_symmetry_Int_Tables_number       1
_symmetry_cell_setting            triclinic
loop_
_symmetry_equiv_pos_as_xyz
'x, y, z'
_cell_length_a     70.336352
_cell_length_b     71.810678
_cell_length_c     70.945533
_cell_angle_alpha  90.962869
_cell_angle_beta   90.131019
_cell_angle_gamma 90.803191
loop_
_atom_site_label
_atom_site_type_symbol
_atom_site_fract_x
_atom_site_fract_y
_atom_site_fract_z
_atom_type_partial_charge
C0 C 0.94906 0.24683 0.1477 0.0
O1 O 0.96083 0.24266 0.16049 0.0
Cd2 Cd -0.00634 0.23689 0.15449 0.0
O3 O 0.95474 0.2497 0.13096 0.0
Cd4 Cd 0.98549 0.25002 0.11412 0.0
C5 C 0.98581 0.2037 0.12031 0.0
O6 O 0.00666 0.26329 0.13847 0.0
O7 O 0.02005 0.24916 0.11504 0.0
O8 O 0.97487 0.27771 0.09828 0.0
C9 C 0.02177 0.25968 0.12948 0.0
O10 O -0.00754 0.20727 0.13671 0.0
C11 C 0.98121 0.27291 0.08219 0.0
O12 O 0.98116 0.21678 0.10943 0.0
O13 O 0.98853 0.25688 0.0807 0.0
C14 C 0.00109 0.76668 0.36396 0.0
O15 O 0.01462 0.76826 0.35225 0.0
Cd16 Cd 0.04534 0.75574 0.35631 0.0
O17 O 0.00342 0.75837 0.37956 0.0
Cd18 Cd 0.03028 0.74322 0.39611 0.0
C19 C 0.05781 0.78257 0.39399 0.0
O20 O 0.03712 0.72536 0.36835 0.0
O21 O 0.05751 0.72208 0.39059 0.0
O22 O 0.00707 0.72472 0.41342 0.0
C23 C 0.05109 0.71661 0.37469 0.0
O24 O 0.06058 0.77962 0.3765 0.0
C25 C 0.01554 0.72667 0.42919 0.0
O26 O 0.04721 0.77173 0.40338 0.0
O27 O 0.03048 0.73678 0.42953 0.0
C28 C 0.47825 0.73565 0.62973 0.0
O29 O 0.49396 0.7297 0.63587 0.0
Cd30 Cd 0.52345 0.73805 0.62178 0.0
O31 O 0.47781 0.7468 0.61595 0.0
Cd32 Cd 0.5006 0.76208 0.59454 0.0
C33 C 0.512 0.71991 0.57839 0.0
O34 O 0.5228 0.77118 0.61859 0.0
O35 O 0.53468 0.77056 0.5906 0.0
O36 O 0.48129 0.78973 0.59627 0.0
C37 C 0.53608 0.77594 0.60767 0.0
O38 O 0.52291 0.71931 0.59271 0.0
C39 C 0.48314 0.79371 0.579 0.0
O40 O 0.50112 0.73365 0.576 0.0
O41 O 0.49174 0.78197 0.56862 0.0
C42 C 0.49207 0.26865 0.86004 0.0
O43 O 0.50475 0.27623 0.84987 0.0
Cd44 Cd 0.53811 0.27467 0.85601 0.0
O45 O 0.49656 0.25991 0.87487 0.0
Cd46 Cd 0.52561 0.25235 0.89266 0.0
C47 C 0.53818 0.2982 0.89789 0.0
O48 O 0.54104 0.24254 0.86407 0.0
O49 O 0.55779 0.23952 0.88933 0.0
O50 O 0.50747 0.22528 0.90223 0.0
C51 C 0.55595 0.23662 0.87176 0.0
O52 O 0.54298 0.29822 0.88062 0.0
C53 C 0.5135 0.22552 0.91911 0.0
O54 O 0.53121 0.28359 0.90523 0.0
O55 O 0.5244 0.23899 0.92403 0.0
C56 C 0.11742 0.03749 0.28336 0.0
O57 O 0.10659 0.04361 0.2706 0.0
Cd58 Cd 0.11274 0.04009 0.2377 0.0
O59 O 0.13224 0.02832 0.27908 0.0
Cd60 Cd 0.148 0.0166 0.25009 0.0
C61 C 0.15707 0.06036 0.23598 0.0
O62 O 0.11874 0.00746 0.23397 0.0
O63 O 0.14429 0.00555 0.21735 0.0
O64 O 0.15489 0.9887 0.26755 0.0
C65 C 0.12666 0.00209 0.21887 0.0
O66 O 0.13948 0.06128 0.23193 0.0
C67 C 0.17187 0.98738 0.26171 0.0
O68 O 0.1638 0.04585 0.24335 0.0
O69 O 0.1781 0.0004 0.25142 0.0
C70 C 0.28417 0.91509 0.49825 0.0
O71 O 0.27164 0.92585 0.49177 0.0
Cd72 Cd 0.23791 0.92039 0.49319 0.0
O73 O 0.27936 0.90003 0.5063 0.0
Cd74 Cd 0.24947 0.88331 0.51315 0.0
C75 C 0.23614 0.8806 0.467 0.0
O76 O 0.23113 0.90986 0.52452 0.0
O77 O 0.216 0.88361 0.52128 0.0
O78 O 0.26191 0.87098 0.54242 0.0
C79 C 0.21602 0.9004 0.52703 0.0
O80 O 0.23129 0.89759 0.46805 0.0
C81 C 0.25862 0.85406 0.53783 0.0
O82 O 0.24385 0.87281 0.48098 0.0
O83 O 0.25202 0.85083 0.52142 0.0
C84 C 0.36494 0.97247 0.76956 0.0
O85 O 0.37315 0.96917 0.75395 0.0
Cd86 Cd 0.36198 0.97991 0.7244 0.0
O87 O 0.34983 0.98207 0.77029 0.0
Cd88 Cd 0.329 -0.00089 0.7484 0.0
C89 C 0.31737 0.96026 0.7231 0.0
O90 O 0.35546 0.01184 0.73179 0.0
O91 O 0.32866 0.01657 0.71831 0.0
O92 O 0.32435 0.02304 0.77252 0.0
C93 C 0.34645 0.01965 0.7188 0.0
O94 O 0.33406 0.96063 0.7162 0.0
C95 C 0.30635 0.02299 0.77117 0.0
O96 O 0.31248 0.97209 0.73563 0.0
O97 O 0.29886 0.01132 0.75965 0.0
C98 C 0.24814 0.09361 0.0288 0.0
O99 O 0.23674 0.08985 0.04212 0.0
Cd100 Cd 0.20605 0.10356 0.04545 0.0
O101 O 0.2438 0.10551 0.01643 0.0
Cd102 Cd 0.21695 0.12622 0.00999 0.0
C103 C 0.21898 0.14854 0.0526 0.0
O104 O 0.19307 0.10216 0.01393 0.0
O105 O 0.18227 0.12964 0.00896 0.0
O106 O 0.22265 0.12532 0.97589 0.0
C107 C 0.17904 0.1123 0.01014 0.0
O108 O 0.21137 0.13431 0.06009 0.0
C109 C 0.22419 0.1429 0.97465 0.0
O110 O 0.22302 0.1484 0.03519 0.0
O111 O 0.22299 0.15236 0.98985 0.0
C112 C 0.77395 0.43131 0.00962 0.0
O113 O 0.76102 0.43965 0.00069 0.0
Cd114 Cd 0.73174 0.42527 0.99108 0.0
O115 O 0.77183 0.4143 0.01418 0.0
Cd116 Cd 0.74698 0.38955 0.01202 0.0
C117 C 0.74628 0.38808 0.96426 0.0
O118 O 0.72141 0.41049 0.01941 0.0
O119 O 0.71273 0.38228 0.01246 0.0
O120 O 0.75625 0.37973 0.04329 0.0
C121 C 0.7082 0.39838 0.01828 0.0
O122 O 0.73862 0.40403 0.96466 0.0
C123 C 0.75756 0.36259 0.03889 0.0
O124 O 0.7512 0.38021 0.97939 0.0
O125 O 0.75485 0.35814 0.02169 0.0
C126 C 0.88814 0.48873 0.26218 0.0
O127 O 0.8971 0.48409 0.24736 0.0
Cd128 Cd 0.88118 0.47912 0.21809 0.0
O129 O 0.87046 0.49239 0.26157 0.0
Cd130 Cd 0.84409 0.49594 0.23858 0.0
C131 C 0.84449 0.44966 0.23219 0.0
O132 O 0.86377 0.50702 0.21392 0.0
O133 O 0.83626 0.49745 0.20442 0.0
O134 O 0.83902 0.52481 0.25523 0.0
C135 C 0.85207 0.50513 0.20048 0.0
O136 O 0.86008 0.45214 0.2234 0.0
C137 C 0.82107 0.52336 0.25624 0.0
O138 O 0.83587 0.46327 0.23987 0.0
O139 O 0.81344 0.50869 0.24912 0.0
C140 C 0.74786 0.58311 0.53575 0.0
O141 O 0.73579 0.57642 0.5472 0.0
Cd142 Cd 0.70239 0.58198 0.54546 0.0
O143 O 0.74274 0.59398 0.5227 0.0
Cd144 Cd 0.71339 0.60856 0.51137 0.0
C145 C 0.70438 0.62816 0.55476 0.0
O146 O 0.69778 0.57862 0.5119 0.0
O147 O 0.6805 0.6006 0.50124 0.0
O148 O 0.73076 0.61323 0.48173 0.0
C149 C 0.68237 0.58341 0.50439 0.0
O150 O 0.69885 0.61245 0.56086 0.0
C151 C 0.72367 0.62916 0.47899 0.0
O152 O 0.71054 0.62963 0.53805 0.0
O153 O 0.71204 0.63516 0.49123 0.0
C154 C 0.61075 0.52314 0.788 0.0
O155 O 0.59964 0.53054 0.77625 0.0
Cd156 Cd 0.60399 0.52934 0.74302 0.0
O157 O 0.62519 0.5141 0.78232 0.0
Cd158 Cd 0.63908 0.50531 0.75114 0.0
C159 C 0.64799 0.55012 0.74043 0.0
O160 O 0.60915 0.49712 0.73592 0.0
O161 O 0.63316 0.49939 0.71725 0.0
O162 O 0.64519 0.47506 0.76427 0.0
C163 C 0.61609 0.49413 0.71974 0.0
O164 O 0.63028 0.55088 0.73683 0.0
C165 C 0.66186 0.4736 0.75769 0.0
O166 O 0.65511 0.53533 0.7469 0.0
O167 O 0.66859 0.48761 0.74913 0.0
C168 C 0.97406 0.74892 0.8456 0.0
O169 O 0.98878 0.75427 0.83673 0.0
Cd170 Cd 0.02128 0.74959 0.84507 0.0
O171 O 0.97546 0.74035 0.86115 0.0
Cd172 Cd 0.00166 0.73064 0.88208 0.0
C173 C 0.02101 0.77457 0.8862 0.0
O174 O 0.02088 0.71869 0.85685 0.0
O175 O 0.03433 0.71849 0.88399 0.0
O176 O 0.98338 0.70411 0.89406 0.0
C177 C 0.03529 0.71466 0.86653 0.0
O178 O 0.0279 0.77302 0.86968 0.0
C179 C 0.98632 0.70845 0.91129 0.0
O180 O 0.01041 0.7618 0.8929 0.0
O181 O -0.00443 0.72343 0.91467 0.0
C182 C 0.98235 0.26359 0.65957 0.0
O183 O -0.00342 0.25769 0.66863 0.0
Cd184 Cd 0.02656 0.25192 0.65402 0.0
O185 O 0.98358 0.26691 0.64203 0.0
Cd186 Cd 0.00679 0.26645 0.61603 0.0
C187 C 0.01212 0.22008 0.62003 0.0
O188 O 0.032 0.27883 0.63528 0.0
O189 O 0.04117 0.26861 0.60822 0.0
O190 O -0.00945 0.29398 0.60584 0.0
C191 C 0.04545 0.27669 0.62371 0.0
O192 O 0.02216 0.22351 0.63469 0.0
C193 C 0.98959 0.28923 0.58855 0.0
O194 O 0.00382 0.23308 0.61141 0.0
O195 O -0.00324 0.27369 0.58387 0.0
C196 C 0.47645 0.24421 0.34349 0.0
O197 O 0.49144 0.2499 0.33533 0.0
Cd198 Cd 0.51996 0.25705 0.35252 0.0
O199 O 0.47658 0.24049 0.36098 0.0
Cd200 Cd 0.49794 0.239 0.38833 0.0
C201 C 0.50062 0.28588 0.38628 0.0
O202 O 0.52558 0.23027 0.3715 0.0
O203 O 0.53117 0.24007 0.39984 0.0
O204 O 0.48373 0.20978 0.39792 0.0
C205 C 0.53761 0.2335 0.38447 0.0
O206 O 0.51086 0.28469 0.37151 0.0
C207 C 0.4785 0.21587 0.41399 0.0
O208 O 0.49415 0.27141 0.39421 0.0
O209 O 0.48279 0.23266 0.41824 0.0
C210 C 0.47204 0.75068 0.1788 0.0
O211 O 0.4842 0.74469 0.19043 0.0
Cd212 Cd 0.51776 0.74488 0.18426 0.0
O213 O 0.47732 0.75764 0.16324 0.0
Cd214 Cd 0.50621 0.76549 0.14529 0.0
C215 C 0.51963 0.72021 0.1424 0.0
O216 O 0.52429 0.77551 0.17262 0.0
O217 O 0.53963 0.7756 0.14639 0.0
O218 O 0.48974 0.79326 0.13574 0.0
C219 C 0.53976 0.7786 0.16405 0.0
O220 O 0.52264 0.72066 0.16011 0.0
C221 C 0.49184 0.79039 0.11817 0.0
O222 O 0.51325 0.73428 0.13391 0.0
O223 O 0.50085 0.77591 0.11318 0.0
C224 C 0.93087 -0.0034 0.78765 0.0
O225 O 0.94239 0.99027 0.77542 0.0
Cd226 Cd 0.93689 -0.00471 0.74186 0.0
O227 O 0.91742 0.00719 0.78295 0.0
Cd228 Cd 0.90181 0.02335 0.7579 0.0
C229 C 0.88998 0.9803 0.73991 0.0
O230 O 0.92894 0.02724 0.73799 0.0
O231 O 0.90219 0.03572 0.72625 0.0
O232 O 0.89944 0.0517 0.77697 0.0
C233 C 0.91977 0.03281 0.72377 0.0
O234 O 0.9073 0.97782 0.7353 0.0
C235 C 0.88135 0.05143 0.7771 0.0
O236 O 0.88479 -0.00503 0.74875 0.0
O237 O 0.87299 0.03817 0.76817 0.0
C238 C 0.78318 0.07076 0.48705 0.0
O239 O 0.77048 0.06249 0.49665 0.0
Cd240 Cd 0.74297 0.07773 0.50917 0.0
O241 O 0.78195 0.08803 0.48346 0.0
Cd242 Cd 0.7617 0.1155 0.48726 0.0
C243 C 0.76285 0.11493 0.53498 0.0
O244 O 0.73408 0.0964 0.48354 0.0
O245 O 0.7281 0.1253 0.48808 0.0
O246 O 0.77506 0.12155 0.45666 0.0
C247 C 0.72176 0.10875 0.48638 0.0
O248 O 0.75323 0.09974 0.53413 0.0
C249 C 0.77596 0.13912 0.45875 0.0
O250 O 0.76889 0.12273 0.52008 0.0
O251 O 0.77034 0.14592 0.47439 0.0
C252 C 0.56079 0.98264 0.2835 0.0
O253 O 0.54918 0.98756 0.27081 0.0
Cd254 Cd 0.55473 0.98466 0.23726 0.0
O255 O 0.57652 0.97518 0.2791 0.0
Cd256 Cd 0.59563 0.96574 0.25187 0.0
C257 C 0.59648 0.01022 0.23512 0.0
O258 O 0.56983 0.95556 0.23208 0.0
O259 O 0.59735 0.95604 0.21886 0.0
O260 O 0.60739 0.93679 0.26441 0.0
C261 C 0.57954 0.95351 0.21716 0.0
O262 O 0.57882 0.00869 0.23119 0.0
C263 C 0.6243 0.94288 0.26675 0.0
O264 O 0.60528 -0.00286 0.24318 0.0
O265 O 0.6278 0.95962 0.26224 0.0
C266 C 0.74385 0.8884 0.02873 0.0
O267 O 0.73192 0.89948 0.02173 0.0
Cd268 Cd 0.70013 0.89036 0.01325 0.0
O269 O 0.73917 0.87157 0.03211 0.0
Cd270 Cd 0.71248 0.84875 0.03135 0.0
C271 C 0.70929 0.85224 0.98376 0.0
O272 O 0.69004 0.87189 0.03883 0.0
O273 O 0.67732 0.8452 0.03235 0.0
O274 O 0.7244 0.83999 0.06162 0.0
C275 C 0.67502 0.86237 0.03605 0.0
O276 O 0.70374 0.86893 0.98631 0.0
C277 C 0.72677 0.8229 0.05758 0.0
O278 O 0.71411 0.84217 -0.00243 0.0
O279 O 0.72148 0.8173 0.04126 0.0
C280 C 0.27603 0.60229 0.9785 0.0
O281 O 0.26623 0.5911 0.98836 0.0
Cd282 Cd 0.23375 0.59527 -0.0031 0.0
O283 O 0.26901 0.61739 0.97263 0.0
Cd284 Cd 0.23939 0.63531 0.97328 0.0
C285 C 0.23812 0.63715 0.02119 0.0
O286 O 0.22119 0.60792 0.96889 0.0
O287 O 0.20402 0.63209 0.97289 0.0
O288 O 0.24852 0.64561 0.94252 0.0
C289 C 0.20478 0.61451 0.9709 0.0
O290 O 0.23418 0.61977 0.02135 0.0
C291 C 0.24851 0.66287 0.94673 0.0
O292 O 0.2416 0.64543 0.00584 0.0
O293 O 0.24289 0.66746 0.96315 0.0
C294 C 0.06962 0.4943 0.78244 0.0
O295 O 0.05968 0.49983 0.7687 0.0
Cd296 Cd 0.07047 0.49789 0.7365 0.0
O297 O 0.08555 0.48652 0.77971 0.0
Cd298 Cd 0.107 0.47647 0.75458 0.0
C299 C 0.11328 0.52111 0.74011 0.0
O300 O 0.08261 0.46698 0.73265 0.0
O301 O 0.11098 0.4674 0.72135 0.0
O302 O 0.11628 0.44772 0.76968 0.0
C303 C 0.09338 0.46436 0.7186 0.0
O304 O 0.09635 0.52117 0.73367 0.0
C305 C 0.13353 0.45281 0.77196 0.0
O306 O 0.11959 0.50708 0.7487 0.0
O307 O 0.13828 0.46882 0.76614 0.0
C308 C 0.25127 0.38634 0.51377 0.0
O309 O 0.23968 0.39775 0.50675 0.0
Cd310 Cd 0.20637 0.39201 0.50351 0.0
O311 O 0.24563 0.37047 0.5195 0.0
Cd312 Cd 0.21667 0.35066 0.52263 0.0
C313 C 0.20841 0.35207 0.4754 0.0
O314 O 0.19874 0.37686 0.53204 0.0
O315 O 0.1819 0.35185 0.52906 0.0
O316 O 0.23269 0.34199 0.55102 0.0
C317 C 0.18248 0.36924 0.53257 0.0
O318 O 0.20464 0.36926 0.47769 0.0
C319 C 0.23099 0.32451 0.54857 0.0
O320 O 0.21383 0.3422 0.48914 0.0
O321 O 0.22177 0.31884 0.53407 0.0
C322 C 0.43483 0.5293 0.30043 0.0
O323 O 0.44478 0.52127 0.28782 0.0
Cd324 Cd 0.43365 0.51424 0.25596 0.0
O325 O 0.41791 0.53429 0.29699 0.0
Cd326 Cd 0.39419 0.5349 0.27199 0.0
C327 C 0.39316 0.48795 0.26351 0.0
O328 O 0.41691 0.54152 0.24775 0.0
O329 O 0.38781 0.54003 0.23851 0.0
O330 O 0.38303 0.56398 0.28569 0.0
C331 C 0.40521 0.54156 0.23417 0.0
O332 O 0.40972 0.48898 0.25629 0.0
C333 C 0.36576 0.55862 0.28653 0.0
O334 O 0.38552 0.5021 0.27126 0.0
O335 O 0.36188 0.54216 0.28077 0.0
O336 O 0.96717 0.01674 0.03471 0.0
Zn337 Zn 0.97352 -0.00221 0.01521 0.0
O338 O 0.97659 0.97358 0.02645 0.0
Zn339 Zn 0.00321 0.96667 0.02491 0.0
Zn340 Zn 0.96803 0.97465 0.05278 0.0
Zn341 Zn 0.96151 0.95546 0.01229 0.0
O342 O 0.00698 0.94443 0.00794 0.0
O343 O 0.97756 0.93576 0.00019 0.0
O344 O -0.00214 0.00732 0.00463 0.0
O345 O 0.01933 0.98735 0.01441 0.0
O346 O 0.013 0.96056 0.05046 0.0
O347 O 0.98848 0.96458 0.06976 0.0
O348 O 0.94363 0.95966 0.05594 0.0
O349 O 0.9548 -0.00246 -0.00599 0.0
O350 O 0.94179 0.94399 0.02866 0.0
O351 O 0.94787 0.96744 0.99095 0.0
C352 C 0.9642 0.01652 0.05236 0.0
C353 C -0.00455 0.93351 -0.00077 0.0
C354 C 0.00571 0.96003 0.06685 0.0
C355 C 0.01502 0.00229 0.0061 0.0
C356 C 0.93563 0.94746 0.04518 0.0
C357 C 0.94627 0.98413 0.98548 0.0
O358 O 0.96392 0.00141 0.06151 0.0
O359 O 0.22385 0.72292 0.21222 0.0
Zn360 Zn 0.2214 0.7272 0.23994 0.0
O361 O 0.22841 0.75252 0.24674 0.0
Zn362 Zn 0.24931 0.75257 0.26467 0.0
Zn363 Zn 0.23615 0.76579 0.2243 0.0
Zn364 Zn 0.20677 0.76466 0.25803 0.0
O365 O 0.24397 0.76915 0.28701 0.0
O366 O 0.21283 0.77318 0.28448 0.0
O367 O 0.23691 0.70898 0.25416 0.0
O368 O 0.25392 0.72679 0.27397 0.0
O369 O 0.27363 0.76045 0.25229 0.0
O370 O 0.2646 0.76852 0.22362 0.0
O371 O 0.22483 0.79143 0.22432 0.0
O372 O 0.19442 0.72148 0.2465 0.0
O373 O 0.20141 0.78843 0.24503 0.0
O374 O 0.18359 0.74799 0.25847 0.0
C375 C 0.22576 0.73379 0.19833 0.0
C376 C 0.22838 0.77536 0.29351 0.0
C377 C 0.27759 0.76599 0.2358 0.0
C378 C 0.24852 0.7108 0.26786 0.0
C379 C 0.21054 0.79803 0.23305 0.0
C380 C 0.18105 0.73098 0.25361 0.0
O381 O 0.22905 0.75117 0.20077 0.0
O382 O 0.52268 0.9791 0.52603 0.0
Zn383 Zn 0.50956 -0.00205 0.5106 0.0
O384 O 0.5055 0.02079 0.52493 0.0
Zn385 Zn 0.47863 0.02603 0.52473 0.0
Zn386 Zn 0.51458 0.01795 0.5509 0.0
Zn387 Zn 0.51851 0.04126 0.51287 0.0
O388 O 0.47292 0.052 0.51712 0.0
O389 O 0.50139 0.06291 0.50937 0.0
O390 O 0.48471 0.98603 0.50215 0.0
O391 O 0.46398 0.00833 0.50822 0.0
O392 O 0.46835 0.02357 0.55048 0.0
O393 O 0.49335 0.02271 0.56965 0.0
O394 O 0.53743 0.0348 0.55613 0.0
O395 O 0.52438 0.00289 0.48725 0.0
O396 O 0.53969 0.05036 0.5293 0.0
O397 O 0.52884 0.03356 0.48741 0.0
C398 C 0.52604 0.97797 0.54359 0.0
C399 C 0.48363 0.06519 0.51159 0.0
C400 C 0.47543 0.02331 0.56696 0.0
C401 C 0.46799 -0.00751 0.50118 0.0
C402 C 0.54545 0.04702 0.54589 0.0
C403 C 0.53052 0.01762 0.47946 0.0
O404 O 0.52276 -0.0085 0.55491 0.0
O405 O 0.24727 0.25298 0.80513 0.0
Zn406 Zn 0.26243 0.26551 0.78499 0.0
O407 O 0.25696 0.25379 0.76087 0.0
Zn408 Zn 0.27793 0.2385 0.75284 0.0
Zn409 Zn 0.23418 0.23827 0.76262 0.0
Zn410 Zn 0.25377 0.273 0.74266 0.0
O411 O 0.28321 0.24206 0.72511 0.0
O412 O 0.27271 0.27088 0.72171 0.0
O413 O 0.29018 0.26368 0.7908 0.0
O414 O 0.30131 0.24533 0.76791 0.0
O415 O 0.27185 0.21164 0.7575 0.0
O416 O 0.24034 0.21125 0.75924 0.0
O417 O 0.21436 0.24549 0.74368 0.0
O418 O 0.25596 0.29262 0.78514 0.0
O419 O 0.2283 0.26988 0.73034 0.0
O420 O 0.25397 0.29848 0.7546 0.0
C421 C 0.23175 0.24361 0.80459 0.0
C422 C 0.28159 0.25674 0.71542 0.0
C423 C 0.25612 0.2028 0.75903 0.0
C424 C 0.30387 0.25534 0.78272 0.0
C425 C 0.21428 0.25861 0.73182 0.0
C426 C 0.25384 0.30399 0.77175 0.0
O427 O 0.22392 0.23881 0.78901 0.0
O428 O 0.017 0.00648 0.45629 0.0
Zn429 Zn -0.00142 -0.008 0.472 0.0
O430 O 0.00196 -0.00127 0.49837 0.0
Zn431 Zn 0.00284 0.97616 0.51331 0.0
Zn432 Zn 0.0254 0.01316 0.50194 0.0
Zn433 Zn 0.98066 0.01383 0.50576 0.0
O434 O 0.98184 0.97546 0.53257 0.0
O435 O 0.96708 0.00202 0.52727 0.0
O436 O 0.0041 0.96507 0.46793 0.0
O437 O 0.00336 0.95311 0.4966 0.0
O438 O 0.02732 0.97529 0.52778 0.0
O439 O 0.04411 -0.0005 0.51769 0.0
O440 O 0.02041 0.0374 0.51539 0.0
O441 O 0.97211 -0.00306 0.46254 0.0
O442 O 0.98893 0.03907 0.51528 0.0
O443 O 0.96206 0.01659 0.48477 0.0
C444 C 0.03199 0.01596 0.4601 0.0
C445 C 0.96891 0.98714 0.53654 0.0
C446 C 0.04258 0.98501 0.52768 0.0
C447 C 0.00507 0.95118 0.47879 0.0
C448 C 0.0052 0.04609 0.51916 0.0
C449 C 0.95989 0.00828 0.46893 0.0
O450 O 0.03744 0.01899 0.47702 0.0
O451 O 0.29658 0.73369 0.72879 0.0
Zn452 Zn 0.27457 0.74225 0.74426 0.0
O453 O 0.25253 0.72715 0.73818 0.0
Zn454 Zn 0.23098 0.74279 0.73285 0.0
Zn455 Zn 0.25742 0.71124 0.71663 0.0
Zn456 Zn 0.24735 0.71155 0.75915 0.0
O457 O 0.20862 0.73636 0.74947 0.0
O458 O 0.22301 0.71924 0.77097 0.0
O459 O 0.26944 0.76909 0.74011 0.0
O460 O 0.23799 0.76975 0.73718 0.0
O461 O 0.22474 0.74189 0.70517 0.0
O462 O 0.24681 0.72305 0.69364 0.0
O463 O 0.24515 0.68602 0.71978 0.0
O464 O 0.28228 0.73988 0.77136 0.0
O465 O 0.24251 0.68517 0.75091 0.0
O466 O 0.26751 0.71355 0.77901 0.0
C467 C 0.29921 0.71976 0.71779 0.0
C468 C 0.20852 0.72785 0.76511 0.0
C469 C 0.23348 0.73459 0.69123 0.0
C470 C 0.25405 0.77807 0.73858 0.0
C471 C 0.24074 0.67741 0.73473 0.0
C472 C 0.27933 0.72669 0.78276 0.0
O473 O 0.28557 0.70891 0.71274 0.0
O474 O 0.50806 0.00565 0.02822 0.0
Zn475 Zn 0.50413 0.00611 0.00019 0.0
O476 O 0.47929 -0.00482 -0.00633 0.0
Zn477 Zn 0.48244 0.97211 0.97924 0.0
Zn478 Zn 0.46485 0.99006 0.01652 0.0
Zn479 Zn 0.4654 0.01257 0.97852 0.0
O480 O 0.46944 0.97301 0.95412 0.0
O481 O 0.46073 0.00255 0.95233 0.0
O482 O 0.52527 -0.00907 0.98902 0.0
O483 O 0.51008 0.96714 0.97504 0.0
O484 O 0.47217 0.95007 -0.00678 0.0
O485 O 0.45976 0.96268 0.01904 0.0
O486 O 0.43976 0.00304 0.01706 0.0
O487 O 0.50649 0.03293 -0.00779 0.0
O488 O 0.43996 0.01776 0.98982 0.0
O489 O 0.47902 0.03706 0.97748 0.0
C490 C 0.49712 0.00229 0.04206 0.0
C491 C 0.46218 0.98631 0.94506 0.0
C492 C 0.46361 0.94846 0.0089 0.0
C493 C 0.52545 0.97561 0.9797 0.0
C494 C 0.43176 0.01341 0.00513 0.0
C495 C 0.49497 0.0433 0.98349 0.0
O496 O 0.4799 -0.00282 0.03951 0.0
O497 O 0.20533 0.28216 0.23033 0.0
Zn498 Zn 0.22709 0.277 0.24762 0.0
O499 O 0.25012 0.28872 0.23798 0.0
Zn500 Zn 0.26812 0.2696 0.23074 0.0
Zn501 Zn 0.24452 0.30397 0.21593 0.0
Zn502 Zn 0.26128 0.30394 0.25804 0.0
O503 O 0.29292 0.27321 0.24374 0.0
O504 O 0.28696 0.29449 0.26593 0.0
O505 O 0.22979 0.24933 0.24875 0.0
O506 O 0.2585 0.24407 0.23714 0.0
O507 O 0.27285 0.26927 0.20315 0.0
O508 O 0.25665 0.29317 0.19253 0.0
O509 O 0.25496 0.33035 0.21946 0.0
O510 O 0.22058 0.2859 0.27393 0.0
O511 O 0.26537 0.32974 0.24911 0.0
O512 O 0.24458 0.30528 0.28073 0.0
C513 C 0.20273 0.29293 0.2165 0.0
C514 C 0.29806 0.28289 0.25805 0.0
C515 C 0.26746 0.27935 0.18965 0.0
C516 C 0.24299 0.23819 0.24422 0.0
C517 C 0.26264 0.33832 0.23383 0.0
C518 C 0.22902 0.29729 0.28517 0.0
O519 O 0.21619 0.30317 0.21018 0.0
O520 O 0.51129 0.51695 0.9665 0.0
Zn521 Zn 0.48964 0.50874 0.98268 0.0
O522 O 0.49687 0.51035 0.00923 0.0
Zn523 Zn 0.49299 0.4862 0.02096 0.0
Zn524 Zn 0.52354 0.5185 0.01165 0.0
Zn525 Zn 0.48066 0.52805 0.02181 0.0
O526 O 0.47461 0.48703 0.04257 0.0
O527 O 0.46472 0.51619 0.04163 0.0
O528 O 0.48397 0.48218 0.97496 0.0
O529 O 0.4847 0.46696 0.00191 0.0
O530 O 0.51746 0.47686 0.03111 0.0
O531 O 0.53867 0.49906 0.02484 0.0
O532 O 0.52607 0.54258 0.02673 0.0
O533 O 0.46741 0.52498 0.97658 0.0
O534 O 0.4961 0.54781 0.03491 0.0
O535 O 0.46323 0.54011 0.00373 0.0
C536 C 0.52864 0.5213 0.9695 0.0
C537 C 0.46415 0.50007 0.04875 0.0
C538 C 0.53438 0.48327 0.03168 0.0
C539 C 0.4824 0.46714 0.98412 0.0
C540 C 0.51369 0.55213 0.03551 0.0
C541 C 0.45902 0.53731 0.98647 0.0
O542 O 0.53556 0.52207 0.9861 0.0
O543 O 0.76794 0.21625 0.22527 0.0
Zn544 Zn 0.75083 0.22968 0.24293 0.0
O545 O 0.72456 0.22779 0.23426 0.0
Zn546 Zn 0.71428 0.25285 0.23179 0.0
Zn547 Zn 0.72323 0.21385 0.21021 0.0
Zn548 Zn 0.70989 0.21464 0.25277 0.0
O549 O 0.69167 0.25771 0.24867 0.0
O550 O 0.68881 0.23016 0.26224 0.0
O551 O 0.76013 0.2562 0.24374 0.0
O552 O 0.73404 0.27225 0.23823 0.0
O553 O 0.70803 0.25738 0.20469 0.0
O554 O 0.71448 0.23076 0.1898 0.0
O555 O 0.706 0.19093 0.21162 0.0
O556 O 0.75429 0.21939 0.26874 0.0
O557 O 0.69794 0.19171 0.24187 0.0
O558 O 0.72559 0.2081 0.27525 0.0
C559 C 0.76571 0.20791 0.20945 0.0
C560 C 0.68322 0.2467 0.25985 0.0
C561 C 0.70929 0.24768 0.18956 0.0
C562 C 0.7517 0.27163 0.24202 0.0
C563 C 0.69712 0.18407 0.22559 0.0
C564 C 0.74289 0.21112 0.2798 0.0
O565 O 0.74938 0.206 0.20183 0.0
O566 O 0.01119 0.51076 0.53251 0.0
Zn567 Zn 0.00789 0.51536 0.50505 0.0
O568 O 0.98442 0.50328 0.49605 0.0
Zn569 Zn 0.99022 0.48323 0.47826 0.0
Zn570 Zn 0.97009 0.49333 0.51729 0.0
Zn571 Zn 0.96934 0.5215 0.48337 0.0
O572 O 0.98114 0.48873 0.4521 0.0
O573 O 0.96694 0.51598 0.45572 0.0
O574 O 0.03085 0.50346 0.49336 0.0
O575 O 0.0183 0.47916 0.4778 0.0
O576 O 0.97807 0.45904 0.48593 0.0
O577 O 0.96436 0.46613 0.51318 0.0
O578 O 0.94505 0.50611 0.52056 0.0
O579 O 0.00797 0.54329 0.50171 0.0
O580 O 0.94345 0.52291 0.49463 0.0
O581 O 0.98065 0.54685 0.48662 0.0
C582 C 0.00145 0.50261 0.54508 0.0
C583 C 0.97219 0.50239 0.44535 0.0
C584 C 0.96834 0.45435 0.50023 0.0
C585 C 0.03272 0.48836 0.4839 0.0
C586 C 0.93606 0.51692 0.50976 0.0
C587 C -0.00433 0.55367 0.49413 0.0
O588 O 0.98521 0.49541 0.54135 0.0
O589 O 0.76638 0.75618 0.3174 0.0
Zn590 Zn 0.77504 0.77065 0.29495 0.0
O591 O 0.76774 0.75783 0.27202 0.0
Zn592 Zn 0.78866 0.7437 0.2618 0.0
Zn593 Zn 0.74654 0.74129 0.27714 0.0
Zn594 Zn 0.76071 0.77663 0.25463 0.0
O595 O 0.79088 0.74755 0.23357 0.0
O596 O 0.77441 0.77351 0.23024 0.0
O597 O 0.80321 0.77283 0.29584 0.0
O598 O 0.81326 0.75234 0.2743 0.0
O599 O 0.78381 0.71641 0.26625 0.0
O600 O 0.7523 0.71511 0.26882 0.0
O601 O 0.72237 0.75022 0.26534 0.0
O602 O 0.76455 0.79656 0.2959 0.0
O603 O 0.73277 0.77461 0.2493 0.0
O604 O 0.76453 0.80234 0.2653 0.0
C605 C 0.7529 0.74432 0.31915 0.0
C606 C 0.78506 0.76087 0.2235 0.0
C607 C 0.76829 0.70709 0.26738 0.0
C608 C 0.81658 0.76453 0.28724 0.0
C609 C 0.71932 0.76386 0.25454 0.0
C610 C 0.76308 0.80789 0.28236 0.0
O611 O 0.74312 0.73869 0.30499 0.0
O612 O 0.74674 0.21569 0.71969 0.0
Zn613 Zn 0.74467 0.2232 0.74686 0.0
O614 O 0.75031 0.24952 0.75051 0.0
Zn615 Zn 0.77192 0.2525 0.76769 0.0
Zn616 Zn 0.75636 0.2608 0.72628 0.0
Zn617 Zn 0.72818 0.26143 0.76141 0.0
O618 O 0.76595 0.27032 0.78875 0.0
O619 O 0.73489 0.27467 0.78595 0.0
O620 O 0.76199 0.20781 0.7622 0.0
O621 O 0.77989 0.22802 0.77861 0.0
O622 O 0.79455 0.26268 0.75419 0.0
O623 O 0.78386 0.26866 0.72551 0.0
O624 O 0.74057 0.28368 0.72204 0.0
O625 O 0.71864 0.2163 0.75561 0.0
O626 O 0.71897 0.28147 0.74472 0.0
O627 O 0.70681 0.24317 0.76567 0.0
C628 C 0.74952 0.22463 0.70458 0.0
C629 C 0.75061 0.27764 0.79452 0.0
C630 C 0.79726 0.26854 0.73758 0.0
C631 C 0.77472 0.21137 0.77455 0.0
C632 C 0.72567 0.28951 0.73029 0.0
C633 C 0.7052 0.22568 0.76271 0.0
O634 O 0.75268 0.24216 0.70487 0.0
O635 O 0.69604 0.7818 0.73978 0.0
Zn636 Zn 0.71769 0.77233 0.75545 0.0
O637 O 0.74177 0.78105 0.7453 0.0
Zn638 Zn 0.75804 0.75995 0.73973 0.0
Zn639 Zn 0.73752 0.79461 0.72244 0.0
Zn640 Zn 0.75394 0.79809 0.76281 0.0
O641 O 0.78383 0.76342 0.75171 0.0
O642 O 0.7796 0.78863 0.76976 0.0
O643 O 0.71644 0.74434 0.75495 0.0
O644 O 0.74624 0.73622 0.74912 0.0
O645 O 0.75969 0.75515 0.71164 0.0
O646 O 0.74214 0.77789 0.70035 0.0
O647 O 0.7536 0.81792 0.7209 0.0
O648 O 0.71434 0.7813 0.78241 0.0
O649 O 0.75891 0.82293 0.75142 0.0
O650 O 0.73858 0.80125 0.78623 0.0
C651 C 0.69527 0.79392 0.72688 0.0
C652 C 0.78991 0.77531 0.76392 0.0
C653 C 0.7513 0.76291 0.69798 0.0
C654 C 0.72913 0.73195 0.7532 0.0
C655 C 0.75971 0.82824 0.73442 0.0
C656 C 0.72358 0.79331 0.79234 0.0
O657 O 0.71025 0.80129 0.72009 0.0
O658 O 0.49657 0.52279 0.54156 0.0
Zn659 Zn 0.49403 0.50445 0.52048 0.0
O660 O 0.47608 0.48521 0.52625 0.0
Zn661 Zn 0.48881 0.46142 0.52712 0.0
Zn662 Zn 0.46495 0.49131 0.55021 0.0
Zn663 Zn 0.45645 0.48469 0.50758 0.0
O664 O 0.47444 0.44231 0.51133 0.0
O665 O 0.45874 0.46119 0.49235 0.0
O666 O 0.51873 0.49387 0.51331 0.0
O667 O 0.51495 0.46316 0.51526 0.0
O668 O 0.4932 0.45434 0.55424 0.0
O669 O 0.4788 0.47722 0.56993 0.0
O670 O 0.4372 0.48381 0.55051 0.0
O671 O 0.486 0.51892 0.49809 0.0
O672 O 0.43102 0.48337 0.51977 0.0
O673 O 0.45814 0.50631 0.49009 0.0
C674 C 0.48347 0.52874 0.55233 0.0
C675 C 0.46479 0.44511 0.4964 0.0
C676 C 0.48909 0.46274 0.56966 0.0
C677 C 0.52485 0.47745 0.51107 0.0
C678 C 0.42556 0.48202 0.53679 0.0
C679 C 0.47128 0.51841 0.48769 0.0
O680 O 0.46854 0.51898 0.55547 0.0
O681 O 0.00419 0.46098 0.01358 0.0
Zn682 Zn -0.00054 0.48818 0.01049 0.0
O683 O 0.01383 0.50248 0.02888 0.0
Zn684 Zn -0.00286 0.51836 0.04342 0.0
Zn685 Zn 0.02651 0.48599 0.04623 0.0
Zn686 Zn 0.03183 0.51796 0.0163 0.0
O687 O -0.00077 0.54519 0.03619 0.0
O688 O 0.02385 0.5446 0.01677 0.0
O689 O 0.97165 0.49188 0.01401 0.0
O690 O 0.96988 0.51086 0.03894 0.0
O691 O 0.00191 0.51536 0.0709 0.0
O692 O 0.01086 0.48589 0.07006 0.0
O693 O 0.05368 0.49479 0.05144 0.0
O694 O 0.00709 0.49474 0.98418 0.0
O695 O 0.05652 0.51656 0.0295 0.0
O696 O 0.03398 0.51074 0.98898 0.0
C697 C 0.01562 0.4517 0.02356 0.0
C698 C 0.01069 0.55341 0.02516 0.0
C699 C 0.00307 0.49954 0.0786 0.0
C700 C 0.96194 0.50068 0.02627 0.0
C701 C 0.06328 0.50734 0.04305 0.0
C702 C 0.022 0.50275 0.97794 0.0
O703 O 0.02625 0.45955 0.03601 0.0
H704 H 0.96069 0.19119 0.09365 0.0
H705 H 0.953 0.15901 0.08485 0.0
H706 H -0.00498 0.13991 0.1243 0.0
H707 H 0.00209 0.17218 0.13384 0.0
H708 H 0.97169 0.13433 0.06857 0.0
H709 H 0.98459 0.097 0.13976 0.0
H710 H 0.98089 0.1034 0.17381 0.0
H711 H 0.93796 0.14359 0.1622 0.0
H712 H 0.94122 0.13725 0.1281 0.0
H713 H -0.00886 0.04288 0.04938 0.0
H714 H -0.00813 0.07389 0.06376 0.0
H715 H 0.93877 0.06222 0.09184 0.0
H716 H 0.93859 0.03038 0.07812 0.0
H717 H 0.96145 0.08334 0.11397 0.0
H718 H 0.93945 0.08666 0.05093 0.0
H719 H 0.93946 0.08039 0.01666 0.0
H720 H -0.00716 0.10957 0.01159 0.0
H721 H -0.00668 0.11579 0.04588 0.0
C722 C 0.9683 0.18014 0.10045 0.0
C723 C 0.98204 0.18419 0.11439 0.0
C724 C 0.96385 0.16172 0.09545 0.0
C725 C 0.97323 0.14697 0.10407 0.0
C726 C 0.98721 0.15101 0.11779 0.0
C727 C -0.00861 0.16945 0.12309 0.0
C728 C 0.96906 0.12746 0.09792 0.0
C729 C 0.96933 0.12325 0.07854 0.0
C730 C 0.96546 0.11299 0.11085 0.0
C731 C 0.96328 0.11675 0.13136 0.0
C732 C 0.9743 0.10714 0.14447 0.0
C733 C 0.9723 0.11077 0.16379 0.0
C734 C 0.95924 0.12393 0.17016 0.0
C735 C 0.94812 0.13345 0.15724 0.0
C736 C 0.95006 0.12986 0.13792 0.0
C737 C 0.9797 0.04688 0.05876 0.0
C738 C 0.96463 0.0345 0.06247 0.0
C739 C 0.9801 0.0646 0.0669 0.0
C740 C 0.96509 0.07058 0.07836 0.0
C741 C 0.9504 0.05793 0.08285 0.0
C742 C 0.95025 0.03984 0.07502 0.0
C743 C 0.96466 0.09033 0.08474 0.0
C744 C 0.96356 0.09454 0.10408 0.0
C745 C 0.96684 0.10497 0.07176 0.0
C746 C 0.96648 0.10157 0.05103 0.0
C747 C 0.95125 0.09166 0.04253 0.0
C748 C 0.95117 0.08811 0.02309 0.0
C749 C 0.96617 0.09454 0.01197 0.0
C750 C 0.98125 0.10458 0.02024 0.0
C751 C 0.98142 0.10815 0.03968 0.0
H752 H 0.96609 0.09176 -0.00308 0.0
H753 H 0.95772 0.12673 0.18512 0.0
H754 H 0.03641 0.69444 0.34693 0.0
H755 H 0.05391 0.68009 0.32092 0.0
H756 H 0.10676 0.69741 0.34744 0.0
H757 H 0.08929 0.71084 0.37381 0.0
H758 H 0.07086 0.70026 0.29845 0.0
H759 H 0.1444 0.6784 0.33151 0.0
H760 H 0.15537 0.658 0.35675 0.0
H761 H 0.1023 0.62776 0.35471 0.0
H762 H 0.09107 0.64778 0.32923 0.0
H763 H 0.14912 0.74651 0.26846 0.0
H764 H 0.12176 0.7302 0.28135 0.0
H765 H 0.14432 0.67763 0.26217 0.0
H766 H 0.17207 0.69389 0.24939 0.0
H767 H 0.13653 0.67614 0.29801 0.0
H768 H 0.10085 0.69101 0.24536 0.0
H769 H 0.08899 0.70934 0.21885 0.0
H770 H 0.06455 0.74869 0.25769 0.0
H771 H 0.0765 0.7308 0.28445 0.0
C772 C 0.05178 0.69447 0.3475 0.0
C773 C 0.06157 0.70395 0.36213 0.0
C774 C 0.06178 0.68626 0.33266 0.0
C775 C 0.08168 0.68773 0.33207 0.0
C776 C 0.09146 0.6957 0.34764 0.0
C777 C 0.08145 0.70356 0.36268 0.0
C778 C 0.09188 0.68507 0.31396 0.0
C779 C 0.08507 0.69459 0.29822 0.0
C780 C 0.11003 0.67686 0.31315 0.0
C781 C 0.11689 0.66463 0.32837 0.0
C782 C 0.13512 0.66729 0.33627 0.0
C783 C 0.14137 0.65582 0.35068 0.0
C784 C 0.12955 0.64159 0.35733 0.0
C785 C 0.11144 0.63881 0.34957 0.0
C786 C 0.10511 0.65023 0.33515 0.0
C787 C 0.1481 0.73153 0.26657 0.0
C788 C 0.1629 0.7215 0.25813 0.0
C789 C 0.13233 0.7222 0.2738 0.0
C790 C 0.13092 0.70267 0.2726 0.0
C791 C 0.14511 0.69269 0.26318 0.0
C792 C 0.16094 0.70204 0.2559 0.0
C793 C 0.11612 0.693 0.2837 0.0
C794 C 0.12203 0.68107 0.29798 0.0
C795 C 0.09697 0.69858 0.28297 0.0
C796 C 0.08956 0.70947 0.26696 0.0
C797 C 0.09301 0.70361 0.24827 0.0
C798 C 0.08627 0.71393 0.23318 0.0
C799 C 0.076 0.73016 0.23658 0.0
C800 C 0.07246 0.73609 0.25508 0.0
C801 C 0.07917 0.72582 0.27022 0.0
H802 H 0.07081 0.73814 0.22488 0.0
H803 H 0.13442 0.63274 0.3685 0.0
H804 H 0.49149 0.80812 0.54461 0.0
H805 H 0.49752 0.84102 0.53871 0.0
H806 H 0.4739 0.85553 0.59293 0.0
H807 H 0.46776 0.82262 0.599 0.0
H808 H 0.46992 0.88393 0.56438 0.0
H809 H 0.51674 0.84601 0.59422 0.0
H810 H 0.53591 0.81777 0.5969 0.0
H811 H 0.56288 0.82944 0.54409 0.0
H812 H 0.54341 0.85756 0.54083 0.0
H813 H 0.51986 0.96581 0.57935 0.0
H814 H 0.51458 0.93333 0.58774 0.0
H815 H 0.53501 0.91555 0.53318 0.0
H816 H 0.54035 0.94796 0.52463 0.0
H817 H 0.54053 0.88905 0.56364 0.0
H818 H 0.49237 0.92722 0.53412 0.0
H819 H 0.47583 0.95727 0.53413 0.0
H820 H 0.4518 0.9455 0.58822 0.0
H821 H 0.46899 0.91579 0.58902 0.0
C822 C 0.48679 0.81832 0.55495 0.0
C823 C 0.47968 0.81277 0.57251 0.0
C824 C 0.49028 0.83713 0.55155 0.0
C825 C 0.48663 0.85054 0.56563 0.0
C826 C 0.47696 0.8453 0.58198 0.0
C827 C 0.4735 0.82647 0.58543 0.0
C828 C 0.49622 0.86892 0.56497 0.0
C829 C 0.48532 0.88507 0.56435 0.0
C830 C 0.51635 0.87035 0.56507 0.0
C831 C 0.52847 0.85376 0.56718 0.0
C832 C 0.52665 0.84248 0.5831 0.0
C833 C 0.53758 0.82649 0.58474 0.0
C834 C 0.55062 0.82178 0.57069 0.0
C835 C 0.55276 0.83309 0.55496 0.0
C836 C 0.54176 0.84905 0.5532 0.0
C837 C 0.52409 0.95499 0.56945 0.0
C838 C 0.52995 0.9594 0.55111 0.0
C839 C 0.52104 0.93643 0.57429 0.0
C840 C 0.52393 0.9222 0.56086 0.0
C841 C 0.53255 0.92642 0.54364 0.0
C842 C 0.53549 0.94496 0.53875 0.0
C843 C 0.51426 0.904 0.56287 0.0
C844 C 0.52513 0.88789 0.56371 0.0
C845 C 0.49412 0.90262 0.56308 0.0
C846 C 0.48214 0.91939 0.56172 0.0
C847 C 0.48355 0.93104 0.54602 0.0
C848 C 0.47412 0.94803 0.5459 0.0
C849 C 0.46282 0.9533 0.56118 0.0
C850 C 0.46067 0.94145 0.57647 0.0
C851 C 0.47029 0.92454 0.57679 0.0
H852 H 0.45583 0.96662 0.56118 0.0
H853 H 0.55908 0.80938 0.572 0.0
H854 H 0.46271 0.24682 0.87233 0.0
H855 H 0.43032 0.24525 0.85993 0.0
H856 H 0.44349 0.29012 0.82218 0.0
H857 H 0.47611 0.29134 0.83405 0.0
H858 H 0.40148 0.26744 0.85826 0.0
H859 H 0.42107 0.28301 0.78069 0.0
H860 H 0.44823 0.2794 0.75904 0.0
H861 H 0.46848 0.23372 0.79144 0.0
H862 H 0.44131 0.2369 0.81312 0.0
H863 H 0.31709 0.28241 0.80697 0.0
H864 H 0.34884 0.28531 0.82076 0.0
H865 H 0.36555 0.23508 0.79129 0.0
H866 H 0.33404 0.23251 0.77687 0.0
H867 H 0.39262 0.25928 0.78919 0.0
H868 H 0.35432 0.23596 0.83937 0.0
H869 H 0.32722 0.23525 0.86134 0.0
H870 H 0.34446 0.28851 0.88445 0.0
H871 H 0.37154 0.28965 0.86243 0.0
C872 C 0.45868 0.25645 0.86149 0.0
C873 C 0.47201 0.26905 0.85399 0.0
C874 C 0.44015 0.25557 0.85445 0.0
C875 C 0.43461 0.26734 0.8399 0.0
C876 C 0.44761 0.28061 0.8331 0.0
C877 C 0.46622 0.28133 0.83995 0.0
C878 C 0.41548 0.26521 0.83136 0.0
C879 C 0.39952 0.26569 0.84316 0.0
C880 C 0.41297 0.26248 0.8117 0.0
C881 C 0.42927 0.26034 0.79863 0.0
C882 C 0.43129 0.27216 0.78315 0.0
C883 C 0.44669 0.27019 0.77088 0.0
C884 C 0.46011 0.25638 0.7739 0.0
C885 C 0.45812 0.24446 0.78915 0.0
C886 C 0.44273 0.24635 0.80145 0.0
C887 C 0.32754 0.27199 0.80343 0.0
C888 C 0.32309 0.25719 0.7909 0.0
C889 C 0.34565 0.27362 0.81139 0.0
C890 C 0.35947 0.26024 0.8073 0.0
C891 C 0.3551 0.24556 0.79465 0.0
C892 C 0.33709 0.24409 0.78644 0.0
C893 C 0.37856 0.26164 0.81607 0.0
C894 C 0.39454 0.26107 0.80429 0.0
C895 C 0.38108 0.26364 0.83581 0.0
C896 C 0.36486 0.26297 0.84913 0.0
C897 C 0.35226 0.24758 0.84904 0.0
C898 C 0.33691 0.24709 0.86152 0.0
C899 C 0.3341 0.26184 0.87425 0.0
C900 C 0.34665 0.2771 0.87457 0.0
C901 C 0.36201 0.27767 0.8621 0.0
H902 H 0.32221 0.26144 0.8839 0.0
H903 H 0.47202 0.25489 0.76439 0.0
H904 H 0.06595 0.78928 0.43096 0.0
H905 H 0.0634 0.81945 0.44708 0.0
H906 H 0.05828 0.84634 0.39342 0.0
H907 H 0.06144 0.81626 0.37719 0.0
H908 H 0.07366 0.86998 0.42042 0.0
H909 H 0.01939 0.82868 0.41314 0.0
H910 H 0.00243 0.79857 0.41605 0.0
H911 H 0.00867 0.80176 0.47626 0.0
H912 H 0.02596 0.83177 0.47365 0.0
H913 H 0.01037 0.94224 0.44163 0.0
H914 H 0.02386 0.9138 0.42851 0.0
H915 H 0.02611 0.89043 0.48406 0.0
H916 H 0.01261 0.91892 0.49743 0.0
H917 H 0.01428 0.86515 0.4579 0.0
H918 H 0.06643 0.90923 0.46408 0.0
H919 H 0.08276 0.93946 0.45946 0.0
H920 H 0.07896 0.93162 0.39944 0.0
H921 H 0.06248 0.90143 0.40372 0.0
C922 C 0.06516 0.80174 0.42259 0.0
C923 C 0.0635 0.80046 0.40288 0.0
C924 C 0.06363 0.81894 0.43181 0.0
C925 C 0.06 0.83496 0.42143 0.0
C926 C 0.06089 0.83407 0.40168 0.0
C927 C 0.06274 0.81687 0.39241 0.0
C928 C 0.05189 0.85154 0.43088 0.0
C929 C 0.06067 0.86898 0.42859 0.0
C930 C 0.03492 0.85016 0.44154 0.0
C931 C 0.02413 0.83235 0.44319 0.0
C932 C 0.01722 0.82291 0.42699 0.0
C933 C 0.00756 0.80586 0.42858 0.0
C934 C 0.00452 0.79823 0.44633 0.0
C935 C 0.01107 0.80767 0.46252 0.0
C936 C 0.0208 0.8247 0.461 0.0
C937 C 0.01355 0.93102 0.45109 0.0
C938 C 0.01057 0.93295 0.47063 0.0
C939 C 0.0214 0.91482 0.44356 0.0
C940 C 0.02651 0.90027 0.4554 0.0
C941 C 0.02254 0.90167 0.47474 0.0
C942 C 0.01474 0.91792 0.48233 0.0
C943 C 0.03608 0.88366 0.44756 0.0
C944 C 0.02745 0.86618 0.45003 0.0
C945 C 0.05301 0.88509 0.43685 0.0
C946 C 0.06309 0.90315 0.43425 0.0
C947 C 0.06898 0.91402 0.44992 0.0
C948 C 0.07827 0.93113 0.44736 0.0
C949 C 0.08182 0.93748 0.42918 0.0
C950 C 0.07617 0.92669 0.41352 0.0
C951 C 0.06689 0.90957 0.41601 0.0
H952 H 0.089 0.95073 0.42722 0.0
H953 H -0.00295 0.78502 0.44754 0.0
H954 H 0.44276 0.74908 0.62359 0.0
H955 H 0.41329 0.73987 0.63904 0.0
H956 H 0.44341 0.69869 0.67064 0.0
H957 H 0.47317 0.70827 0.65567 0.0
H958 H 0.39274 0.70918 0.64065 0.0
H959 H 0.42327 0.69608 0.71434 0.0
H960 H 0.45102 0.70498 0.73405 0.0
H961 H 0.45654 0.75658 0.7047 0.0
H962 H 0.4287 0.74807 0.68499 0.0
H963 H 0.312 0.68939 0.69783 0.0
H964 H 0.34365 0.6853 0.68416 0.0
H965 H 0.36117 0.73897 0.70693 0.0
H966 H 0.33002 0.74293 0.721 0.0
H967 H 0.38892 0.71541 0.71029 0.0
H968 H 0.34488 0.73304 0.66088 0.0
H969 H 0.31625 0.72883 0.64102 0.0
H970 H 0.33655 0.67588 0.62125 0.0
H971 H 0.36522 0.67971 0.64118 0.0
C972 C 0.44314 0.73804 0.6338 0.0
C973 C 0.46032 0.72956 0.63858 0.0
C974 C 0.42626 0.73269 0.64251 0.0
C975 C 0.4262 0.7187 0.65607 0.0
C976 C 0.44321 0.70972 0.66041 0.0
C977 C 0.46018 0.71524 0.65187 0.0
C978 C 0.40846 0.71446 0.66635 0.0
C979 C 0.39193 0.71031 0.6559 0.0
C980 C 0.40742 0.716 0.68623 0.0
C981 C 0.4241 0.72131 0.69804 0.0
C982 C 0.43041 0.70933 0.71213 0.0
C983 C 0.44614 0.7143 0.72329 0.0
C984 C 0.45559 0.7313 0.72057 0.0
C985 C 0.44926 0.74339 0.70673 0.0
C986 C 0.43353 0.73848 0.69555 0.0
C987 C 0.32268 0.70023 0.70005 0.0
C988 C 0.31847 0.71656 0.71035 0.0
C989 C 0.34072 0.69787 0.69224 0.0
C990 C 0.35467 0.71192 0.6944 0.0
C991 C 0.35064 0.72792 0.70517 0.0
C992 C 0.33276 0.7302 0.71312 0.0
C993 C 0.3731 0.71081 0.68454 0.0
C994 C 0.3898 0.71378 0.69508 0.0
C995 C 0.3742 0.70882 0.66471 0.0
C996 C 0.35704 0.70655 0.65268 0.0
C997 C 0.34316 0.72045 0.65239 0.0
C998 C 0.32695 0.71814 0.64112 0.0
C999 C 0.32455 0.70207 0.62993 0.0
C1000 C 0.33841 0.6883 0.62996 0.0
C1001 C 0.35464 0.69053 0.64123 0.0
H1002 H 0.31199 0.7003 0.62121 0.0
H1003 H 0.46777 0.73512 0.72922 0.0
H1004 H 0.52581 0.22121 0.95543 0.0
H1005 H 0.52559 0.19217 0.9732 0.0
H1006 H 0.49412 0.16469 0.92828 0.0
H1007 H 0.49403 0.19349 0.91057 0.0
H1008 H 0.49417 0.1647 0.98384 0.0
H1009 H 0.52216 0.12728 0.91703 0.0
H1010 H 0.54125 0.13487 0.88899 0.0
H1011 H 0.57053 0.17824 0.92029 0.0
H1012 H 0.55187 0.17067 0.9486 0.0
H1013 H 0.4705 0.07067 0.97428 0.0
H1014 H 0.47745 0.10367 0.97057 0.0
H1015 H 0.53649 0.09451 0.98355 0.0
H1016 H 0.52961 0.06115 0.98751 0.0
H1017 H 0.53056 0.11516 0.95088 0.0
H1018 H 0.51251 0.11724 0.01508 0.0
H1019 H 0.49309 0.1101 0.04299 0.0
H1020 H 0.44549 0.1377 0.01849 0.0
H1021 H 0.46452 0.14477 0.99029 0.0
C1022 C 0.51842 0.20909 0.94957 0.0
C1023 C 0.51012 0.20955 0.93152 0.0
C1024 C 0.51832 0.19257 0.95974 0.0
C1025 C 0.51009 0.17636 0.95184 0.0
C1026 C 0.50068 0.17711 0.93445 0.0
C1027 C 0.50062 0.19359 0.92439 0.0
C1028 C 0.51268 0.15814 0.96066 0.0
C1029 C 0.50228 0.15387 0.97686 0.0
C1030 C 0.52373 0.14429 0.9517 0.0
C1031 C 0.53551 0.14847 0.93491 0.0
C1032 C 0.53278 0.13833 0.91797 0.0
C1033 C 0.54351 0.14265 0.90202 0.0
C1034 C 0.55706 0.15706 0.90284 0.0
C1035 C 0.55999 0.16711 0.91965 0.0
C1036 C 0.54933 0.16282 0.93565 0.0
C1037 C 0.48499 0.07559 0.97638 0.0
C1038 C 0.49954 0.06326 0.9811 0.0
C1039 C 0.48889 0.09451 0.97443 0.0
C1040 C 0.50741 0.10151 0.97705 0.0
C1041 C 0.52206 0.08931 0.98165 0.0
C1042 C 0.51812 0.07031 0.98386 0.0
C1043 C 0.51134 0.12142 0.97365 0.0
C1044 C 0.5229 0.12604 0.95831 0.0
C1045 C 0.5015 0.13559 0.98354 0.0
C1046 C 0.48995 0.13148 0.00051 0.0
C1047 C 0.49786 0.12169 0.01558 0.0
C1048 C 0.48692 0.11767 0.03146 0.0
C1049 C 0.46806 0.12343 0.0325 0.0
C1050 C 0.46011 0.13326 0.01767 0.0
C1051 C 0.47098 0.1373 0.00174 0.0
H1052 H 0.45962 0.1203 0.04481 0.0
H1053 H 0.56531 0.16042 0.89046 0.0
H1054 H 0.03018 0.28 0.1615 0.0
H1055 H 0.06178 0.28902 0.17336 0.0
H1056 H 0.08739 0.2634 0.12437 0.0
H1057 H 0.05598 0.25416 0.11257 0.0
H1058 H 0.10303 0.25148 0.15552 0.0
H1059 H 0.08799 0.31037 0.13012 0.0
H1060 H 0.06888 0.33835 0.1249 0.0
H1061 H 0.07275 0.35275 0.18378 0.0
H1062 H 0.09167 0.32471 0.18941 0.0
H1063 H 0.19124 0.31297 0.18589 0.0
H1064 H 0.16151 0.3091 0.16809 0.0
H1065 H 0.14259 0.26713 0.20686 0.0
H1066 H 0.17213 0.27068 0.22451 0.0
H1067 H 0.12523 0.31415 0.17713 0.0
H1068 H 0.11804 0.23489 0.18679 0.0
H1069 H 0.13635 0.20583 0.18518 0.0
H1070 H 0.17791 0.23232 0.15008 0.0
H1071 H 0.15994 0.26169 0.15173 0.0
C1072 C 0.04255 0.27644 0.15319 0.0
C1073 C 0.04063 0.2662 0.13621 0.0
C1074 C 0.06057 0.28172 0.15991 0.0
C1075 C 0.07691 0.27695 0.14969 0.0
C1076 C 0.07495 0.26721 0.13248 0.0
C1077 C 0.057 0.2619 0.12578 0.0
C1078 C 0.09609 0.28053 0.15772 0.0
C1079 C 0.10788 0.26521 0.16021 0.0
C1080 C 0.10253 0.29848 0.16352 0.0
C1081 C 0.09111 0.31534 0.16022 0.0
C1082 C 0.08462 0.31941 0.14199 0.0
C1083 C 0.07385 0.33531 0.13895 0.0
C1084 C 0.06956 0.3473 0.15401 0.0
C1085 C 0.07607 0.34344 0.17214 0.0
C1086 C 0.08684 0.32756 0.17526 0.0
C1087 C 0.18068 0.30302 0.19071 0.0
C1088 C 0.18412 0.29213 0.20663 0.0
C1089 C 0.16374 0.30078 0.18047 0.0
C1090 C 0.14999 0.28757 0.18594 0.0
C1091 C 0.15317 0.27708 0.20211 0.0
C1092 C 0.17004 0.2793 0.21232 0.0
C1093 C 0.13203 0.285 0.17517 0.0
C1094 C 0.12039 0.30046 0.17233 0.0
C1095 C 0.12579 0.26721 0.16866 0.0
C1096 C 0.13781 0.25049 0.16956 0.0
C1097 C 0.13125 0.23458 0.17897 0.0
C1098 C 0.14153 0.21808 0.17802 0.0
C1099 C 0.15826 0.21727 0.16751 0.0
C1100 C 0.16501 0.23308 0.15831 0.0
C1101 C 0.15488 0.24969 0.15937 0.0
H1102 H 0.16595 0.20436 0.1664 0.0
H1103 H 0.06123 0.3596 0.15163 0.0
H1104 H 0.14026 0.98511 0.18695 0.0
H1105 H 0.12166 0.97046 0.16137 0.0
H1106 H 0.0698 0.98328 0.19097 0.0
H1107 H 0.08825 -0.00244 0.21669 0.0
H1108 H 0.06749 0.94922 0.17468 0.0
H1109 H 0.08676 0.01145 0.15644 0.0
H1110 H 0.10999 0.03662 0.15012 0.0
H1111 H 0.13688 0.00221 0.10819 0.0
H1112 H 0.11392 0.97675 0.11444 0.0
H1113 H -0.00238 0.96343 0.1045 0.0
H1114 H 0.02022 0.96253 0.13059 0.0
H1115 H 0.06469 0.94668 0.09199 0.0
H1116 H 0.04228 0.94774 0.06578 0.0
H1117 H 0.07413 0.97729 0.11159 0.0
H1118 H 0.0502 0.91704 0.12623 0.0
H1119 H 0.0259 0.89285 0.1324 0.0
H1120 H 0.00665 0.92393 0.18076 0.0
H1121 H 0.03065 0.94845 0.17474 0.0
C1122 C 0.12489 0.98473 0.18801 0.0
C1123 C 0.11567 -0.0073 0.20367 0.0
C1124 C 0.11431 0.97632 0.17343 0.0
C1125 C 0.09435 0.97597 0.1742 0.0
C1126 C 0.08519 0.98336 0.19012 0.0
C1127 C 0.09574 -0.00836 0.20474 0.0
C1128 C 0.08286 0.96913 0.15796 0.0
C1129 C 0.06887 0.95534 0.16086 0.0
C1130 C 0.08503 0.97683 0.13986 0.0
C1131 C 0.09879 -0.00787 0.13607 0.0
C1132 C 0.09772 0.00921 0.14598 0.0
C1133 C 0.11082 0.02353 0.14239 0.0
C1134 C 0.12495 0.02099 0.12881 0.0
C1135 C 0.12596 0.00414 0.11874 0.0
C1136 C 0.11291 0.98976 0.12229 0.0
C1137 C 0.01209 0.9593 0.1016 0.0
C1138 C 0.0182 0.95595 0.08301 0.0
C1139 C 0.02498 0.9587 0.11656 0.0
C1140 C 0.04414 0.95455 0.11321 0.0
C1141 C 0.04998 0.94996 0.09486 0.0
C1142 C 0.03713 0.9506 0.07989 0.0
C1143 C 0.05845 0.95757 0.12832 0.0
C1144 C 0.07297 0.97076 0.12523 0.0
C1145 C 0.05663 0.9494 0.14623 0.0
C1146 C 0.04218 0.93466 0.14996 0.0
C1147 C 0.0407 0.9188 0.13811 0.0
C1148 C 0.02698 0.90501 0.14159 0.0
C1149 C 0.01472 0.90687 0.15695 0.0
C1150 C 0.01616 0.9225 0.16887 0.0
C1151 C 0.02984 0.93634 0.16545 0.0
H1152 H 0.00411 0.89617 0.15962 0.0
H1153 H 0.13507 0.03209 0.12605 0.0
H1154 H 0.24393 0.84397 0.46041 0.0
H1155 H 0.24127 0.8266 0.43071 0.0
H1156 H 0.21947 0.87525 0.40362 0.0
H1157 H 0.2223 0.89291 0.43332 0.0
H1158 H 0.21163 0.81771 0.4083 0.0
H1159 H 0.23724 0.8752 0.358 0.0
H1160 H 0.25733 0.90366 0.35863 0.0
H1161 H 0.2896 0.88226 0.40472 0.0
H1162 H 0.26987 0.85358 0.4042 0.0
H1163 H 0.19777 0.7894 0.31243 0.0
H1164 H 0.19797 0.8076 0.34183 0.0
H1165 H 0.25904 0.80366 0.34473 0.0
H1166 H 0.25905 0.78554 0.31529 0.0
H1167 H 0.24674 0.8391 0.35186 0.0
H1168 H 0.23255 0.77677 0.37198 0.0
H1169 H 0.21473 0.74695 0.37195 0.0
H1170 H 0.1638 0.77558 0.38759 0.0
H1171 H 0.18127 0.80562 0.38746 0.0
C1172 C 0.23849 0.85101 0.44818 0.0
C1173 C 0.23343 0.86987 0.44921 0.0
C1174 C 0.23692 0.84102 0.43123 0.0
C1175 C 0.23034 0.84969 0.41496 0.0
C1176 C 0.2248 0.86838 0.416 0.0
C1177 C 0.22637 0.87842 0.43299 0.0
C1178 C 0.22974 0.83917 0.39688 0.0
C1179 C 0.21922 0.82243 0.39593 0.0
C1180 C 0.23985 0.84525 0.38084 0.0
C1181 C 0.25191 0.86237 0.38121 0.0
C1182 C 0.24864 0.87657 0.36825 0.0
C1183 C 0.25997 0.89273 0.36858 0.0
C1184 C 0.27468 0.8948 0.38176 0.0
C1185 C 0.27814 0.88067 0.39458 0.0
C1186 C 0.26688 0.86448 0.39429 0.0
C1187 C 0.21126 0.79233 0.31934 0.0
C1188 C 0.2284 0.78592 0.31157 0.0
C1189 C 0.21132 0.8027 0.33614 0.0
C1190 C 0.22851 0.80683 0.34546 0.0
C1191 C 0.24564 0.80059 0.3377 0.0
C1192 C 0.2456 0.79016 0.32094 0.0
C1193 C 0.22866 0.81767 0.36332 0.0
C1194 C 0.23902 0.83448 0.3642 0.0
C1195 C 0.21869 0.8115 0.37939 0.0
C1196 C 0.20817 0.79346 0.37951 0.0
C1197 C 0.21751 0.77672 0.37526 0.0
C1198 C 0.20749 0.75978 0.3753 0.0
C1199 C 0.18814 0.75937 0.37971 0.0
C1200 C 0.17878 0.77592 0.38414 0.0
C1201 C 0.18874 0.79291 0.3841 0.0
H1202 H 0.1804 0.74624 0.37974 0.0
H1203 H 0.28342 0.90732 0.382 0.0
H1204 H 0.38212 0.03414 0.71942 0.0
H1205 H 0.40246 0.03991 0.69229 0.0
H1206 H 0.35525 0.02778 0.6549 0.0
H1207 H 0.33472 0.02201 0.68214 0.0
H1208 H 0.38595 0.00472 0.64969 0.0
H1209 H 0.37522 0.07026 0.65499 0.0
H1210 H 0.37332 0.10078 0.67126 0.0
H1211 H 0.43261 0.09841 0.68542 0.0
H1212 H 0.43482 0.06774 0.66947 0.0
H1213 H 0.43738 0.01657 0.56605 0.0
H1214 H 0.41487 0.01904 0.59185 0.0
H1215 H 0.4606 0.03369 0.63019 0.0
H1216 H 0.48347 0.0314 0.60416 0.0
H1217 H 0.43 0.05678 0.63426 0.0
H1218 H 0.44095 -0.00849 0.63306 0.0
H1219 H 0.44404 0.95973 0.61991 0.0
H1220 H 0.38614 0.96059 0.60067 0.0
H1221 H 0.38271 -0.00755 0.6137 0.0
C1222 C 0.37593 0.03326 0.70542 0.0
C1223 C 0.35695 0.02742 0.7028 0.0
C1224 C 0.38754 0.03666 0.68995 0.0
C1225 C 0.38034 0.03422 0.67163 0.0
C1226 C 0.361 0.02975 0.66898 0.0
C1227 C 0.3493 0.02652 0.68451 0.0
C1228 C 0.39367 0.03336 0.65562 0.0
C1229 C 0.39526 0.01625 0.64598 0.0
C1230 C 0.40641 0.04814 0.65154 0.0
C1231 C 0.40514 0.06661 0.66114 0.0
C1232 C 0.38782 0.07616 0.66171 0.0
C1233 C 0.3867 0.09351 0.67084 0.0
C1234 C 0.40283 0.10151 0.6794 0.0
C1235 C 0.42012 0.0922 0.67879 0.0
C1236 C 0.42132 0.07484 0.66968 0.0
C1237 C 0.44274 0.0203 0.57995 0.0
C1238 C 0.46222 0.02389 0.58307 0.0
C1239 C 0.42983 0.02161 0.5947 0.0
C1240 C 0.43611 0.02647 0.6129 0.0
C1241 C 0.45554 0.02994 0.61618 0.0
C1242 C 0.46856 0.02853 0.60137 0.0
C1243 C 0.42213 0.02818 0.6283 0.0
C1244 C 0.42051 0.04536 0.63785 0.0
C1245 C 0.40952 0.01337 0.63259 0.0
C1246 C 0.41163 -0.00557 0.62422 0.0
C1247 C 0.42893 0.985 0.62586 0.0
C1248 C 0.43071 0.96694 0.6185 0.0
C1249 C 0.41529 0.95813 0.60947 0.0
C1250 C 0.39805 0.9674 0.60773 0.0
C1251 C 0.39617 0.98546 0.61513 0.0
H1252 H 0.4167 0.94414 0.60378 0.0
H1253 H 0.40193 0.11495 0.68646 0.0
H1254 H 0.21787 0.12785 0.9395 0.0
H1255 H 0.21654 0.14456 0.90974 0.0
H1256 H 0.23284 0.19559 0.93889 0.0
H1257 H 0.23367 0.17912 0.96865 0.0
H1258 H 0.20351 0.20147 0.91743 0.0
H1259 H 0.26336 0.17147 0.90968 0.0
H1260 H 0.28571 0.14536 0.90817 0.0
H1261 H 0.25435 0.12091 0.86179 0.0
H1262 H 0.23155 0.14672 0.86326 0.0
H1263 H 0.23859 0.25562 0.84072 0.0
H1264 H 0.23293 0.23796 0.86942 0.0
H1265 H 0.20436 0.19475 0.83678 0.0
H1266 H 0.20961 0.21242 0.80807 0.0
H1267 H 0.23696 0.18343 0.85859 0.0
H1268 H 0.17852 0.21622 0.86567 0.0
H1269 H 0.15823 0.24391 0.86722 0.0
H1270 H 0.1899 0.26492 0.91502 0.0
H1271 H 0.21057 0.23747 0.91359 0.0
C1272 C 0.22144 0.14257 0.93948 0.0
C1273 C 0.22581 0.15221 0.95637 0.0
C1274 C 0.22068 0.1521 0.92248 0.0
C1275 C 0.22458 0.17133 0.9221 0.0
C1276 C 0.22962 0.18079 0.93888 0.0
C1277 C 0.23018 0.17134 0.95586 0.0
C1278 C 0.22265 0.18187 0.90446 0.0
C1279 C 0.21098 0.1976 0.90462 0.0
C1280 C 0.232 0.17655 0.8876 0.0
C1281 C 0.24557 0.16089 0.88678 0.0
C1282 C 0.26108 0.16042 0.89931 0.0
C1283 C 0.27385 0.1457 0.89843 0.0
C1284 C 0.27139 0.13145 0.88497 0.0
C1285 C 0.25619 0.13192 0.87228 0.0
C1286 C 0.24333 0.14659 0.87313 0.0
C1287 C 0.23062 0.24262 0.83974 0.0
C1288 C 0.22463 0.23537 0.82216 0.0
C1289 C 0.2274 0.23257 0.85611 0.0
C1290 C 0.21835 0.21505 0.85509 0.0
C1291 C 0.21138 0.20826 0.83776 0.0
C1292 C 0.2143 0.21845 0.82142 0.0
C1293 C 0.21809 0.20307 0.87176 0.0
C1294 C 0.22934 0.18709 0.87138 0.0
C1295 C 0.20863 0.20832 0.88848 0.0
C1296 C 0.1962 0.22484 0.88941 0.0
C1297 C 0.18127 0.22682 0.87641 0.0
C1298 C 0.16967 0.24246 0.87729 0.0
C1299 C 0.1728 0.25619 0.89118 0.0
C1300 C 0.1875 0.25428 0.90426 0.0
C1301 C 0.19915 0.23867 0.90343 0.0
H1302 H 0.16381 0.26829 0.89184 0.0
H1303 H 0.2813 0.12008 0.88436 0.0
H1304 H 0.14008 0.03382 0.31446 0.0
H1305 H 0.13045 0.03586 0.34754 0.0
H1306 H 0.07318 0.04835 0.3303 0.0
H1307 H 0.08287 0.04711 0.29739 0.0
H1308 H 0.08133 0.06779 0.36025 0.0
H1309 H 0.08813 0.00313 0.34137 0.0
H1310 H 0.10524 0.97568 0.32926 0.0
H1311 H 0.14579 0.98139 0.3744 0.0
H1312 H 0.12903 0.00903 0.38665 0.0
H1313 H 0.02003 0.02341 0.4246 0.0
H1314 H 0.03949 0.03301 0.39789 0.0
H1315 H 0.0895 0.03362 0.43319 0.0
H1316 H 0.07001 0.02434 0.46022 0.0
H1317 H 0.09089 0.01127 0.39822 0.0
H1318 H 0.07741 0.07297 0.42008 0.0
H1319 H 0.05689 0.09825 0.43162 0.0
H1320 H 0.02516 0.09583 0.37984 0.0
H1321 H 0.0453 0.07033 0.36809 0.0
C1322 C 0.12549 0.0372 0.31776 0.0
C1323 C 0.11218 0.04013 0.30334 0.0
C1324 C 0.12 0.03833 0.33665 0.0
C1325 C 0.10101 0.04193 0.34139 0.0
C1326 C 0.08792 0.04557 0.32701 0.0
C1327 C 0.09346 0.04478 0.30817 0.0
C1328 C 0.09429 0.04079 0.36112 0.0
C1329 C 0.08344 0.05544 0.36855 0.0
C1330 C 0.09738 0.02483 0.37214 0.0
C1331 C 0.10749 0.00828 0.36476 0.0
C1332 C 0.10079 -0.00139 0.34862 0.0
C1333 C 0.1104 0.98301 0.34175 0.0
C1334 C 0.12663 0.97684 0.35101 0.0
C1335 C 0.13325 0.98622 0.3672 0.0
C1336 C 0.1237 0.00185 0.37412 0.0
C1337 C 0.03513 0.02579 0.42674 0.0
C1338 C 0.04355 0.02308 0.44444 0.0
C1339 C 0.04618 0.03137 0.41153 0.0
C1340 C 0.06584 0.0341 0.41369 0.0
C1341 C 0.0743 0.03167 0.43137 0.0
C1342 C 0.06317 0.02641 0.44674 0.0
C1343 C 0.07753 0.038 0.39698 0.0
C1344 C 0.08927 0.02384 0.39011 0.0
C1345 C 0.07488 0.05418 0.38631 0.0
C1346 C 0.06283 0.06966 0.39324 0.0
C1347 C 0.06597 0.07774 0.4112 0.0
C1348 C 0.05442 0.09212 0.41778 0.0
C1349 C 0.03971 0.09862 0.40648 0.0
C1350 C 0.03656 0.09078 0.38857 0.0
C1351 C 0.04806 0.07638 0.38194 0.0
H1352 H 0.03078 0.10976 0.4116 0.0
H1353 H 0.13406 0.96476 0.34567 0.0
H1354 H 0.26517 0.85762 0.5756 0.0
H1355 H 0.26185 0.83343 0.59909 0.0
H1356 H 0.25206 0.79232 0.55491 0.0
H1357 H 0.25481 0.81662 0.53131 0.0
H1358 H 0.22562 0.78927 0.58027 0.0
H1359 H 0.29305 0.79213 0.58235 0.0
H1360 H 0.325 0.80664 0.58417 0.0
H1361 H 0.31226 0.82929 0.63903 0.0
H1362 H 0.28017 0.81513 0.63738 0.0
H1363 H 0.24523 0.72015 0.65736 0.0
H1364 H 0.24881 0.73726 0.62797 0.0
H1365 H 0.22125 0.78461 0.65339 0.0
H1366 H 0.21715 0.7676 0.68261 0.0
H1367 H 0.2679 0.78059 0.6354 0.0
H1368 H 0.19695 0.78209 0.62706 0.0
H1369 H 0.16616 0.76536 0.62428 0.0
H1370 H 0.18852 0.73104 0.57964 0.0
H1371 H 0.21953 0.74746 0.58237 0.0
C1372 C 0.26273 0.84337 0.57085 0.0
C1373 C 0.26017 0.83902 0.55163 0.0
C1374 C 0.26089 0.82952 0.5843 0.0
C1375 C 0.25678 0.81103 0.57875 0.0
C1376 C 0.25516 0.8065 0.55949 0.0
C1377 C 0.25683 0.82039 0.54604 0.0
C1378 C 0.25257 0.79686 0.59315 0.0
C1379 C 0.23506 0.7872 0.59214 0.0
C1380 C 0.26481 0.7941 0.60868 0.0
C1381 C 0.28414 0.80264 0.60972 0.0
C1382 C 0.29702 0.80031 0.59475 0.0
C1383 C 0.31517 0.80846 0.59575 0.0
C1384 C 0.32066 0.8189 0.61169 0.0
C1385 C 0.30801 0.82119 0.62668 0.0
C1386 C 0.28984 0.81308 0.62574 0.0
C1387 C 0.23931 0.73395 0.65647 0.0
C1388 C 0.23098 0.74254 0.67234 0.0
C1389 C 0.24142 0.74369 0.63971 0.0
C1390 C 0.23526 0.76209 0.63864 0.0
C1391 C 0.22586 0.77029 0.65397 0.0
C1392 C 0.22349 0.7605 0.67063 0.0
C1393 C 0.24091 0.7736 0.62259 0.0
C1394 C 0.25869 0.78264 0.62334 0.0
C1395 C 0.22912 0.7756 0.60673 0.0
C1396 C 0.21056 0.76579 0.6051 0.0
C1397 C 0.19534 0.77083 0.61681 0.0
C1398 C 0.17784 0.76145 0.6152 0.0
C1399 C 0.1754 0.74709 0.60184 0.0
C1400 C 0.19044 0.74213 0.59002 0.0
C1401 C 0.20797 0.75146 0.59159 0.0
H1402 H 0.16185 0.73985 0.6006 0.0
H1403 H 0.33471 0.8252 0.61244 0.0
H1404 H 0.34894 0.9683 0.80434 0.0
H1405 H 0.36582 0.96571 0.83435 0.0
H1406 H 0.4193 0.96397 0.80467 0.0
H1407 H 0.40249 0.96553 0.77471 0.0
H1408 H 0.42246 0.9444 0.83421 0.0
H1409 H 0.39995 0.0057 0.82171 0.0
H1410 H 0.37601 0.02926 0.81426 0.0
H1411 H 0.34597 0.01673 0.86522 0.0
H1412 H 0.36961 -0.0071 0.87284 0.0
H1413 H 0.45679 0.01122 0.91708 0.0
H1414 H 0.44169 0.00542 0.88647 0.0
H1415 H 0.4334 0.94754 0.9003 0.0
H1416 H 0.44935 0.95309 0.93051 0.0
H1417 H 0.40784 -0.00361 0.87854 0.0
H1418 H 0.43043 0.92035 0.86127 0.0
H1419 H 0.45804 0.9001 0.86594 0.0
H1420 H 0.4949 0.94817 0.87009 0.0
H1421 H 0.46756 0.96869 0.8652 0.0
C1422 C 0.36425 0.9669 0.80423 0.0
C1423 C 0.37443 0.9674 0.78724 0.0
C1424 C 0.37389 0.9655 0.82137 0.0
C1425 C 0.39386 0.96522 0.82177 0.0
C1426 C 0.4039 0.96428 0.80473 0.0
C1427 C 0.39426 0.96522 0.78759 0.0
C1428 C 0.4044 0.96784 0.83975 0.0
C1429 C 0.41922 0.95569 0.84397 0.0
C1430 C 0.40058 0.98295 0.85219 0.0
C1431 C 0.38643 -0.00261 0.84774 0.0
C1432 C 0.38818 0.0079 0.83127 0.0
C1433 C 0.37467 0.0213 0.82702 0.0
C1434 C 0.35945 0.02446 0.83923 0.0
C1435 C 0.35775 0.01425 0.85576 0.0
C1436 C 0.3712 0.00079 0.86005 0.0
C1437 C 0.45197 -0.00279 0.91345 0.0
C1438 C 0.45426 0.9826 0.92612 0.0
C1439 C 0.44329 -0.00608 0.896 0.0
C1440 C 0.43647 0.97602 0.89102 0.0
C1441 C 0.43889 0.96137 0.90363 0.0
C1442 C 0.44794 0.96458 0.92092 0.0
C1443 C 0.42599 0.97296 0.87306 0.0
C1444 C 0.41109 0.98502 0.86887 0.0
C1445 C 0.43033 0.95828 0.86028 0.0
C1446 C 0.4469 0.94604 0.86307 0.0
C1447 C 0.44443 0.92658 0.86312 0.0
C1448 C 0.46003 0.91506 0.86582 0.0
C1449 C 0.47819 0.92284 0.86838 0.0
C1450 C 0.48081 0.94216 0.86818 0.0
C1451 C 0.46526 0.95374 0.86547 0.0
H1452 H 0.49025 0.9139 0.87048 0.0
H1453 H 0.349 0.03484 0.83591 0.0
H1454 H 0.23466 0.18122 0.04064 0.0
H1455 H 0.24545 0.20775 0.05991 0.0
H1456 H 0.22598 0.18014 0.10998 0.0
H1457 H 0.21493 0.15349 0.09078 0.0
H1458 H 0.21762 0.21693 0.11093 0.0
H1459 H 0.27189 0.17877 0.09828 0.0
H1460 H 0.29452 0.16159 0.07825 0.0
H1461 H 0.31067 0.21235 0.05101 0.0
H1462 H 0.28792 0.22979 0.07072 0.0
H1463 H 0.28872 0.24967 0.17839 0.0
H1464 H 0.28501 0.23256 0.14873 0.0
H1465 H 0.25091 0.27673 0.12682 0.0
H1466 H 0.25405 0.29381 0.15673 0.0
H1467 H 0.28631 0.23399 0.10936 0.0
H1468 H 0.21109 0.25896 0.11548 0.0
H1469 H 0.19143 0.27559 0.13897 0.0
H1470 H 0.21952 0.24725 0.18375 0.0
H1471 H 0.2393 0.23046 0.16051 0.0
C1472 C 0.23251 0.1808 0.05574 0.0
C1473 C 0.22407 0.16515 0.06421 0.0
C1474 C 0.23874 0.19598 0.06671 0.0
C1475 C 0.23673 0.19577 0.08635 0.0
C1476 C 0.22767 0.18052 0.09481 0.0
C1477 C 0.22142 0.1653 0.08384 0.0
C1478 C 0.24474 0.21112 0.09815 0.0
C1479 C 0.23258 0.22075 0.1104 0.0
C1480 C 0.26433 0.21599 0.09764 0.0
C1481 C 0.27805 0.20554 0.08581 0.0
C1482 C 0.28015 0.18624 0.08791 0.0
C1483 C 0.29301 0.17646 0.07663 0.0
C1484 C 0.30398 0.18586 0.06332 0.0
C1485 C 0.30214 0.20508 0.0613 0.0
C1486 C 0.28927 0.21492 0.07252 0.0
C1487 C 0.28096 0.25611 0.16707 0.0
C1488 C 0.27102 0.27275 0.17016 0.0
C1489 C 0.27902 0.24635 0.15003 0.0
C1490 C 0.26724 0.25317 0.13586 0.0
C1491 C 0.25981 0.27114 0.13779 0.0
C1492 C 0.26158 0.28086 0.15492 0.0
C1493 C 0.25914 0.23987 0.12181 0.0
C1494 C 0.27126 0.23048 0.10936 0.0
C1495 C 0.23962 0.23485 0.12243 0.0
C1496 C 0.2266 0.2435 0.13629 0.0
C1497 C 0.21288 0.25614 0.13032 0.0
C1498 C 0.20183 0.26568 0.14359 0.0
C1499 C 0.20426 0.26249 0.16283 0.0
C1500 C 0.21768 0.24971 0.16885 0.0
C1501 C 0.22878 0.24016 0.15564 0.0
H1502 H 0.19563 0.26978 0.17305 0.0
H1503 H 0.31394 0.17827 0.05461 0.0
H1504 H 0.16926 0.07567 0.01117 0.0
H1505 H 0.13894 0.06122 0.00258 0.0
H1506 H 0.11603 0.11512 0.9903 0.0
H1507 H 0.14658 0.12988 -0.00091 0.0
H1508 H 0.09196 0.09414 0.01133 0.0
H1509 H 0.12488 0.08629 0.95414 0.0
H1510 H 0.15166 0.07895 0.93306 0.0
H1511 H 0.14993 0.02206 0.9507 0.0
H1512 H 0.12334 0.02909 0.97212 0.0
H1513 H 0.01112 0.03662 0.99048 0.0
H1514 H 0.03643 0.05897 0.98316 0.0
H1515 H 0.07844 0.01896 -0.00081 0.0
H1516 H 0.05332 -0.00353 0.0064 0.0
H1517 H 0.08919 0.03913 0.96805 0.0
H1518 H 0.06113 0.05041 0.03043 0.0
H1519 H 0.03504 0.05865 0.05208 0.0
H1520 H 0.02798 0.11051 0.02382 0.0
H1521 H 0.05372 0.10237 0.00171 0.0
C1522 C 0.15781 0.08451 0.00665 0.0
C1523 C 0.16029 0.10391 0.00576 0.0
C1524 C 0.14054 0.0762 0.00157 0.0
C1525 C 0.12543 0.08708 -0.00461 0.0
C1526 C 0.12765 0.10651 -0.00517 0.0
C1527 C 0.14504 0.11488 -9e-05 0.0
C1528 C 0.1071 0.07788 0.99062 0.0
C1529 C 0.09115 0.08245 0.00145 0.0
C1530 C 0.10613 0.06265 0.97773 0.0
C1531 C 0.12211 0.05825 0.9648 0.0
C1532 C 0.13028 0.07223 0.95362 0.0
C1533 C 0.14542 0.06812 0.94159 0.0
C1534 C 0.15249 0.05005 0.94055 0.0
C1535 C 0.14442 0.03605 0.95151 0.0
C1536 C 0.12928 0.04008 0.96358 0.0
C1537 C 0.02575 0.03244 -0.00784 0.0
C1538 C 0.03023 0.01484 -0.00071 0.0
C1539 C 0.04016 0.04525 0.98796 0.0
C1540 C 0.05923 0.04066 0.99087 0.0
C1541 C 0.06377 0.02274 -0.00313 0.0
C1542 C 0.04939 0.00994 0.00109 0.0
C1543 C 0.0745 0.05484 0.98946 0.0
C1544 C 0.08983 0.05122 0.97743 0.0
C1545 C 0.07486 0.07101 0.00116 0.0
C1546 C 0.05915 0.07566 0.01425 0.0
C1547 C 0.05385 0.06345 0.02868 0.0
C1548 C 0.03914 0.06811 0.04104 0.0
C1549 C 0.02983 0.08506 0.03928 0.0
C1550 C 0.03514 0.09735 0.02511 0.0
C1551 C 0.04976 0.09271 0.01264 0.0
H1552 H 0.01861 0.08875 0.04897 0.0
H1553 H 0.16422 0.0469 0.93123 0.0
H1554 H 0.67708 0.37502 0.01969 0.0
H1555 H 0.64459 0.3833 0.02876 0.0
H1556 H 0.66282 0.44043 0.03763 0.0
H1557 H 0.69511 0.43227 0.02897 0.0
H1558 H 0.64008 0.42952 0.06544 0.0
H1559 H 0.64094 0.42517 -0.00309 0.0
H1560 H 0.64439 0.40949 0.96594 0.0
H1561 H 0.60076 0.36987 0.98044 0.0
H1562 H 0.59728 0.38515 0.01166 0.0
H1563 H 0.57105 0.49335 0.03998 0.0
H1564 H 0.59745 0.47257 0.04586 0.0
H1565 H 0.55892 0.42529 0.04449 0.0
H1566 H 0.53234 0.44599 0.03865 0.0
H1567 H 0.58786 0.42275 0.01865 0.0
H1568 H 0.58212 0.43409 0.08431 0.0
H1569 H 0.578 0.45274 0.11346 0.0
H1570 H 0.63046 0.48197 0.10291 0.0
H1571 H 0.63478 0.46371 0.07355 0.0
C1572 C 0.67411 0.38932 0.02362 0.0
C1573 C 0.68858 0.40302 0.02355 0.0
C1574 C 0.65559 0.39401 0.0288 0.0
C1575 C 0.65134 0.41247 0.03384 0.0
C1576 C 0.66584 0.42607 0.03394 0.0
C1577 C 0.68427 0.4214 0.02886 0.0
C1578 C 0.63174 0.41816 0.03831 0.0
C1579 C 0.6286 0.428 0.05527 0.0
C1580 C 0.61663 0.41557 0.02529 0.0
C1581 C 0.6191 0.40609 0.00674 0.0
C1582 C 0.63227 0.41296 -0.0064 0.0
C1583 C 0.6342 0.40418 0.97598 0.0
C1584 C 0.62288 0.38864 0.97126 0.0
C1585 C 0.60959 0.38186 0.98415 0.0
C1586 C 0.60766 0.39055 0.00182 0.0
C1587 C 0.56811 0.47859 0.04136 0.0
C1588 C 0.54967 0.47129 0.03862 0.0
C1589 C 0.58318 0.46674 0.04487 0.0
C1590 C 0.58007 0.44743 0.04566 0.0
C1591 C 0.56154 0.44018 0.044 0.0
C1592 C 0.5464 0.45205 0.04067 0.0
C1593 C 0.59653 0.43493 0.04533 0.0
C1594 C 0.59908 0.42373 0.02917 0.0
C1595 C 0.61117 0.43654 0.05892 0.0
C1596 C 0.60874 0.44752 0.07667 0.0
C1597 C 0.59273 0.44456 0.08814 0.0
C1598 C 0.59036 0.45506 0.10472 0.0
C1599 C 0.60395 0.46854 0.11003 0.0
C1600 C 0.61995 0.47152 0.09879 0.0
C1601 C 0.62239 0.46106 0.08219 0.0
H1602 H 0.60209 0.47666 0.12287 0.0
H1603 H 0.62436 0.3819 0.95759 0.0
H1604 H 0.80837 0.43994 0.24229 0.0
H1605 H 0.79484 0.40866 0.24487 0.0
H1606 H 0.84855 0.38516 0.22831 0.0
H1607 H 0.86204 0.41653 0.22508 0.0
H1608 H 0.82068 0.367 0.21128 0.0
H1609 H 0.83384 0.38543 0.27482 0.0
H1610 H 0.83361 0.40588 0.30309 0.0
H1611 H 0.77263 0.40266 0.30459 0.0
H1612 H 0.77247 0.38239 0.27617 0.0
H1613 H 0.79032 0.27619 0.24031 0.0
H1614 H 0.80831 0.30562 0.23974 0.0
H1615 H 0.75619 0.33606 0.24586 0.0
H1616 H 0.73808 0.3068 0.24633 0.0
H1617 H 0.7863 0.34907 0.26938 0.0
H1618 H 0.77438 0.33113 0.20404 0.0
H1619 H 0.77601 0.30979 0.17651 0.0
H1620 H 0.83698 0.31109 0.17953 0.0
H1621 H 0.83571 0.33214 0.2073 0.0
C1622 C 0.81733 0.42813 0.23922 0.0
C1623 C 0.83631 0.43069 0.2336 0.0
C1624 C 0.8096 0.41025 0.24077 0.0
C1625 C 0.8208 0.39457 0.23715 0.0
C1626 C 0.83968 0.39707 0.23125 0.0
C1627 C 0.84737 0.41499 0.22945 0.0
C1628 C 0.81266 0.37561 0.23939 0.0
C1629 C 0.81346 0.36297 0.22411 0.0
C1630 C 0.80312 0.37039 0.25609 0.0
C1631 C 0.80315 0.3825 0.27327 0.0
C1632 C 0.82037 0.38918 0.2811 0.0
C1633 C 0.82031 0.40073 0.29716 0.0
C1634 C 0.80312 0.40559 0.30561 0.0
C1635 C 0.78594 0.39889 0.29803 0.0
C1636 C 0.78592 0.38735 0.28195 0.0
C1637 C 0.78271 0.28915 0.24173 0.0
C1638 C 0.76277 0.2892 0.24329 0.0
C1639 C 0.793 0.30591 0.24131 0.0
C1640 C 0.78351 0.32291 0.24259 0.0
C1641 C 0.76372 0.32301 0.24481 0.0
C1642 C 0.75341 0.3063 0.24503 0.0
C1643 C 0.79405 0.34072 0.2412 0.0
C1644 C 0.79371 0.3531 0.25666 0.0
C1645 C 0.80422 0.34556 0.22477 0.0
C1646 C 0.80494 0.33302 0.20793 0.0
C1647 C 0.78813 0.32671 0.19896 0.0
C1648 C 0.78899 0.31465 0.18331 0.0
C1649 C 0.80659 0.30898 0.17634 0.0
C1650 C 0.82336 0.31542 0.18497 0.0
C1651 C 0.82258 0.3274 0.20068 0.0
H1652 H 0.80724 0.29971 0.16417 0.0
H1653 H 0.8031 0.41454 0.31804 0.0
H1654 H 0.77672 0.59234 0.5119 0.0
H1655 H 0.80869 0.57971 0.51123 0.0
H1656 H 0.79637 0.54777 0.56077 0.0
H1657 H 0.76421 0.56037 0.56166 0.0
H1658 H 0.83359 0.56447 0.56035 0.0
H1659 H 0.79316 0.52556 0.52172 0.0
H1660 H 0.76901 0.51878 0.49721 0.0
H1661 H 0.80525 0.54321 0.45544 0.0
H1662 H 0.8295 0.5504 0.47977 0.0
H1663 H 0.91506 0.50733 0.54079 0.0
H1664 H 0.88282 0.51728 0.54863 0.0
H1665 H 0.8813 0.54995 0.49818 0.0
H1666 H 0.91321 0.54002 0.49013 0.0
H1667 H 0.84958 0.52889 0.50206 0.0
H1668 H 0.88861 0.57032 0.54101 0.0
H1669 H 0.91265 0.57778 0.56545 0.0
H1670 H 0.87922 0.54878 0.60648 0.0
H1671 H 0.85508 0.54093 0.5822 0.0
C1672 C 0.78082 0.58282 0.52282 0.0
C1673 C 0.76784 0.57717 0.5367 0.0
C1674 C 0.79908 0.5756 0.52238 0.0
C1675 C 0.80468 0.56264 0.53579 0.0
C1676 C 0.79219 0.55772 0.55028 0.0
C1677 C 0.77384 0.56489 0.55071 0.0
C1678 C 0.82318 0.55346 0.53379 0.0
C1679 C 0.83705 0.5564 0.54778 0.0
C1680 C 0.82758 0.54307 0.51732 0.0
C1681 C 0.81309 0.53864 0.50261 0.0
C1682 C 0.79592 0.52961 0.50734 0.0
C1683 C 0.78222 0.52568 0.49347 0.0
C1684 C 0.78558 0.53059 0.47479 0.0
C1685 C 0.80266 0.53942 0.46993 0.0
C1686 C 0.8164 0.54341 0.48374 0.0
C1687 C 0.90785 0.51664 0.53138 0.0
C1688 C 0.91669 0.52285 0.51482 0.0
C1689 C 0.88949 0.52235 0.53593 0.0
C1690 C 0.87978 0.53439 0.52401 0.0
C1691 C 0.88857 0.5406 0.50752 0.0
C1692 C 0.90684 0.53492 0.50297 0.0
C1693 C 0.86027 0.54041 0.52831 0.0
C1694 C 0.84611 0.53676 0.51476 0.0
C1695 C 0.85568 0.55013 0.54516 0.0
C1696 C 0.87017 0.55484 0.55974 0.0
C1697 C 0.88648 0.56539 0.5552 0.0
C1698 C 0.9001 0.56972 0.56903 0.0
C1699 C 0.8975 0.56371 0.58749 0.0
C1700 C 0.88123 0.55339 0.59217 0.0
C1701 C 0.86758 0.54901 0.57838 0.0
H1702 H 0.90805 0.56708 0.59818 0.0
H1703 H 0.77496 0.52753 0.46408 0.0
H1704 H 0.19596 0.06206 0.23661 0.0
H1705 H 0.21615 0.09007 0.23634 0.0
H1706 H 0.16631 0.12398 0.23081 0.0
H1707 H 0.14619 0.0961 0.23034 0.0
H1708 H 0.1932 0.13808 0.21067 0.0
H1709 H 0.18836 0.11542 0.27445 0.0
H1710 H 0.19174 0.09227 0.29949 0.0
H1711 H 0.25185 0.09012 0.28938 0.0
H1712 H 0.24877 0.11312 0.26411 0.0
H1713 H 0.21332 0.22082 0.26172 0.0
H1714 H 0.20535 0.18764 0.2607 0.0
H1715 H 0.25674 0.17651 0.2298 0.0
H1716 H 0.265 0.20976 0.23074 0.0
H1717 H 0.2346 0.14957 0.26661 0.0
H1718 H 0.23447 0.16955 0.19677 0.0
H1719 H 0.22906 0.19639 0.17613 0.0
H1720 H 0.17584 0.20669 0.20373 0.0
H1721 H 0.18086 0.17976 0.22424 0.0
C1722 C 0.18935 0.07548 0.23507 0.0
C1723 C 0.16948 0.0769 0.23366 0.0
C1724 C 0.20089 0.09147 0.235 0.0
C1725 C 0.19271 0.10914 0.23393 0.0
C1726 C 0.17295 0.11049 0.23166 0.0
C1727 C 0.16145 0.09453 0.23144 0.0
C1728 C 0.20441 0.12635 0.23617 0.0
C1729 C 0.20242 0.14037 0.22278 0.0
C1730 C 0.21644 0.12954 0.25203 0.0
C1731 C 0.2183 0.1158 0.26726 0.0
C1732 C 0.20227 0.10991 0.27749 0.0
C1733 C 0.20413 0.09683 0.29173 0.0
C1734 C 0.22198 0.08968 0.29598 0.0
C1735 C 0.23802 0.09564 0.28604 0.0
C1736 C 0.23623 0.1087 0.27176 0.0
C1737 C 0.22318 0.21132 0.25505 0.0
C1738 C 0.23967 0.21795 0.24608 0.0
C1739 C 0.21868 0.19236 0.25466 0.0
C1740 C 0.23056 0.17978 0.2453 0.0
C1741 C 0.24758 0.1861 0.23729 0.0
C1742 C 0.25217 0.2051 0.23774 0.0
C1743 C 0.22333 0.16085 0.24111 0.0
C1744 C 0.22595 0.14676 0.25417 0.0
C1745 C 0.21168 0.15758 0.22519 0.0
C1746 C 0.20792 0.17261 0.21179 0.0
C1747 C 0.22151 0.17741 0.19818 0.0
C1748 C 0.21854 0.19265 0.18656 0.0
C1749 C 0.20208 0.20317 0.18855 0.0
C1750 C 0.1885 0.19843 0.20207 0.0
C1751 C 0.19134 0.18314 0.21361 0.0
H1752 H 0.19984 0.21499 0.17962 0.0
H1753 H 0.2234 0.07956 0.30701 0.0
H1754 H 0.2997 0.94373 0.47833 0.0
H1755 H 0.33333 0.95168 0.47479 0.0
H1756 H 0.34839 0.90528 0.50937 0.0
H1757 H 0.31472 0.89721 0.51309 0.0
H1758 H 0.36619 0.93777 0.52035 0.0
H1759 H 0.35693 0.9028 0.46325 0.0
H1760 H 0.34091 0.89365 0.4335 0.0
H1761 H 0.35155 0.94817 0.41157 0.0
H1762 H 0.36738 0.95776 0.4413 0.0
H1763 H 0.46445 0.95464 0.50233 0.0
H1764 H 0.43496 0.93652 0.49766 0.0
H1765 H 0.40689 0.9856 0.47814 0.0
H1766 H 0.43595 0.004 0.48374 0.0
H1767 H 0.39794 0.94685 0.45866 0.0
H1768 H 0.39855 0.98347 0.51719 0.0
H1769 H 0.4125 -0.00522 0.54724 0.0
H1770 H 0.41663 0.93851 0.56621 0.0
H1771 H 0.40301 0.92685 0.53605 0.0
C1772 C 0.31014 0.93517 0.48515 0.0
C1773 C 0.30453 0.91987 0.49603 0.0
C1774 C 0.32936 0.93964 0.48298 0.0
C1775 C 0.34331 0.9289 0.49161 0.0
C1776 C 0.3378 0.91364 0.5025 0.0
C1777 C 0.31857 0.90909 0.50461 0.0
C1778 C 0.36356 0.93441 0.49019 0.0
C1779 C 0.37328 0.93927 0.50688 0.0
C1780 C 0.37261 0.93679 0.47257 0.0
C1781 C 0.36324 0.93104 0.45458 0.0
C1782 C 0.35574 0.91289 0.45214 0.0
C1783 C 0.3467 0.90761 0.43527 0.0
C1784 C 0.34518 0.92033 0.42067 0.0
C1785 C 0.35274 0.93833 0.42289 0.0
C1786 C 0.36177 0.94369 0.43975 0.0
C1787 C 0.45211 0.96146 0.49667 0.0
C1788 C 0.45228 0.98076 0.49377 0.0
C1789 C 0.43535 0.9511 0.49396 0.0
C1790 C 0.41885 0.95984 0.48769 0.0
C1791 C 0.41956 0.97869 0.48295 0.0
C1792 C 0.4361 0.98916 0.48623 0.0
C1793 C 0.40029 0.95025 0.48876 0.0
C1794 C 0.39093 0.94478 0.47208 0.0
C1795 C 0.39142 0.94744 0.50635 0.0
C1796 C 0.40009 0.95428 0.52427 0.0
C1797 C 0.40271 0.97349 0.52765 0.0
C1798 C 0.41046 0.97998 0.54473 0.0
C1799 C 0.41543 0.96738 0.55862 0.0
C1800 C 0.41275 0.94825 0.55543 0.0
C1801 C 0.40505 0.9417 0.53833 0.0
H1802 H 0.42144 0.97246 0.57181 0.0
H1803 H 0.33817 0.91622 0.40762 0.0
H1804 H 0.83453 0.55437 0.27437 0.0
H1805 H 0.8172 0.58228 0.28253 0.0
H1806 H 0.76475 0.55566 0.26428 0.0
H1807 H 0.78231 0.52753 0.25551 0.0
H1808 H 0.76884 0.58749 0.2479 0.0
H1809 H 0.77148 0.57 0.31135 0.0
H1810 H 0.78505 0.55782 0.34066 0.0
H1811 H 0.82537 0.60325 0.34297 0.0
H1812 H 0.81226 0.61557 0.31353 0.0
H1813 H 0.73848 0.68211 0.26525 0.0
H1814 H 0.73967 0.64827 0.26891 0.0
H1815 H 0.80045 0.65203 0.27661 0.0
H1816 H 0.79948 0.6857 0.27287 0.0
H1817 H 0.78147 0.62911 0.30316 0.0
H1818 H 0.78348 0.63984 0.235 0.0
H1819 H 0.77012 0.6515 0.20533 0.0
H1820 H 0.71986 0.61785 0.21302 0.0
H1821 H 0.73286 0.60617 0.24288 0.0
C1822 C 0.81925 0.55425 0.27241 0.0
C1823 C 0.80981 0.53883 0.26409 0.0
C1824 C 0.80928 0.57021 0.27731 0.0
C1825 C 0.7896 0.57104 0.27424 0.0
C1826 C 0.77992 0.55529 0.26686 0.0
C1827 C 0.78995 0.53924 0.26187 0.0
C1828 C 0.78004 0.58925 0.27623 0.0
C1829 C 0.77104 0.59637 0.26026 0.0
C1830 C 0.78295 0.60093 0.2923 0.0
C1831 C 0.79086 0.5937 0.31016 0.0
C1832 C 0.7833 0.57735 0.31804 0.0
C1833 C 0.79091 0.57042 0.33469 0.0
C1834 C 0.80606 0.57975 0.34366 0.0
C1835 C 0.81361 0.59605 0.33602 0.0
C1836 C 0.80606 0.60304 0.31936 0.0
C1837 C 0.75211 0.67572 0.26764 0.0
C1838 C 0.76893 0.68658 0.2686 0.0
C1839 C 0.75273 0.65642 0.2698 0.0
C1840 C 0.77013 0.64775 0.27308 0.0
C1841 C 0.78687 0.65854 0.2742 0.0
C1842 C 0.78631 0.67776 0.27186 0.0
C1843 C 0.77132 0.62732 0.27456 0.0
C1844 C 0.77867 0.6199 0.29117 0.0
C1845 C 0.76677 0.61532 0.25918 0.0
C1846 C 0.75901 0.62235 0.24127 0.0
C1847 C 0.7695 0.63507 0.23044 0.0
C1848 C 0.76202 0.64165 0.21358 0.0
C1849 C 0.74412 0.63548 0.20733 0.0
C1850 C 0.7337 0.62266 0.21791 0.0
C1851 C 0.74112 0.61606 0.23479 0.0
H1852 H 0.73835 0.64058 0.19427 0.0
H1853 H 0.81195 0.57435 0.35654 0.0
H1854 H 0.69715 0.4656 0.74369 0.0
H1855 H 0.71018 0.43459 0.73796 0.0
H1856 H 0.66107 0.40979 0.76454 0.0
H1857 H 0.64836 0.44061 0.77087 0.0
H1858 H 0.69072 0.39054 0.77256 0.0
H1859 H 0.66419 0.41529 0.71581 0.0
H1860 H 0.66065 0.43824 0.69062 0.0
H1861 H 0.71894 0.43078 0.67467 0.0
H1862 H 0.7229 0.40795 0.69996 0.0
H1863 H 0.6895 0.30124 0.7358 0.0
H1864 H 0.67934 0.3336 0.73733 0.0
H1865 H 0.73418 0.35158 0.71686 0.0
H1866 H 0.74431 0.31914 0.71484 0.0
H1867 H 0.70409 0.37462 0.70554 0.0
H1868 H 0.72824 0.34694 0.76271 0.0
H1869 H 0.7286 0.32269 0.78691 0.0
H1870 H 0.67076 0.33482 0.8013 0.0
H1871 H 0.66993 0.35887 0.77689 0.0
C1872 C 0.68937 0.45355 0.74871 0.0
C1873 C 0.67163 0.45553 0.75754 0.0
C1874 C 0.69675 0.43584 0.74528 0.0
C1875 C 0.68634 0.41985 0.75036 0.0
C1876 C 0.6693 0.4219 0.76036 0.0
C1877 C 0.66204 0.43956 0.76397 0.0
C1878 C 0.69242 0.40099 0.7443 0.0
C1879 C 0.69354 0.38708 0.75789 0.0
C1880 C 0.69626 0.39645 0.72517 0.0
C1881 C 0.6939 0.41009 0.7099 0.0
C1882 C 0.67629 0.41865 0.70702 0.0
C1883 C 0.6742 0.43162 0.69271 0.0
C1884 C 0.68958 0.43601 0.68109 0.0
C1885 C 0.70706 0.4274 0.68371 0.0
C1886 C 0.70923 0.41444 0.69802 0.0
C1887 C 0.69915 0.31204 0.73098 0.0
C1888 C 0.71779 0.30774 0.72551 0.0
C1889 C 0.69336 0.3305 0.73191 0.0
C1890 C 0.70624 0.34494 0.72776 0.0
C1891 C 0.72412 0.3406 0.72029 0.0
C1892 C 0.72986 0.32205 0.7191 0.0
C1893 C 0.70206 0.36426 0.73375 0.0
C1894 C 0.70141 0.3782 0.7202 0.0
C1895 C 0.69828 0.36878 0.75288 0.0
C1896 C 0.69898 0.35462 0.76787 0.0
C1897 C 0.71556 0.34433 0.77093 0.0
C1898 C 0.71583 0.33059 0.78466 0.0
C1899 C 0.69968 0.32717 0.79558 0.0
C1900 C 0.68323 0.33746 0.79278 0.0
C1901 C 0.68285 0.35114 0.77901 0.0
H1902 H 0.6999 0.31664 0.80629 0.0
H1903 H 0.68793 0.44605 0.67002 0.0
H1904 H 0.04298 0.805 0.87707 0.0
H1905 H 0.04748 0.8338 0.89563 0.0
H1906 H 0.01172 0.81152 0.93941 0.0
H1907 H 0.0075 0.78275 0.9213 0.0
H1908 H 0.02208 0.85816 0.9055 0.0
H1909 H 0.02342 0.8277 0.9816 0.0
H1910 H 0.03712 0.80087 -0.00224 0.0
H1911 H 0.0799 0.79616 0.95494 0.0
H1912 H 0.06665 0.82314 0.93865 0.0
H1913 H 0.9759 0.91205 0.97345 0.0
H1914 H 0.98844 0.88792 0.95254 0.0
H1915 H 0.04451 0.89697 0.97598 0.0
H1916 H 0.0321 0.92128 -0.00299 0.0
H1917 H 0.03485 0.86046 0.97431 0.0
H1918 H 0.03675 0.91063 0.93316 0.0
H1919 H 0.02694 0.93809 0.91542 0.0
H1920 H 0.98398 0.90528 0.88677 0.0
H1921 H -0.0069 0.87772 0.90475 0.0
C1922 C 0.03628 0.80616 0.89077 0.0
C1923 C 0.02483 0.79159 0.89768 0.0
C1924 C 0.03888 0.82262 0.90134 0.0
C1925 C 0.03015 0.82471 0.919 0.0
C1926 C 0.01897 0.81007 0.92602 0.0
C1927 C 0.01644 0.79365 0.91554 0.0
C1928 C 0.03117 0.84267 0.92955 0.0
C1929 C 0.02504 0.85875 0.92051 0.0
C1930 C 0.03577 0.84355 0.94897 0.0
C1931 C 0.04396 0.82743 0.95885 0.0
C1932 C 0.03583 0.82104 0.97569 0.0
C1933 C 0.0435 0.80577 0.98486 0.0
C1934 C 0.05935 0.7968 0.97737 0.0
C1935 C 0.06759 0.8031 0.9607 0.0
C1936 C 0.05999 0.81836 0.95148 0.0
C1937 C -0.00909 0.90893 0.97421 0.0
C1938 C 0.00299 0.91854 0.98695 0.0
C1939 C -0.00192 0.89526 0.96211 0.0
C1940 C 0.01744 0.89087 0.96256 0.0
C1941 C 0.02955 0.90029 0.97535 0.0
C1942 C 0.02242 0.91412 0.98736 0.0
C1943 C 0.02456 0.87555 0.95047 0.0
C1944 C 0.03225 0.85999 0.95923 0.0
C1945 C 0.0218 0.8753 0.9307 0.0
C1946 C 0.0156 0.89206 0.92041 0.0
C1947 C 0.02503 0.90929 0.92328 0.0
C1948 C 0.01963 0.92488 0.91312 0.0
C1949 C 0.00493 0.9234 0.89988 0.0
C1950 C -0.00454 0.90637 0.89693 0.0
C1951 C 0.0007 0.89077 0.90716 0.0
H1952 H 0.00077 0.93548 0.89203 0.0
H1953 H 0.06525 0.78498 0.98448 0.0
H1954 H 0.94854 0.27373 0.64412 0.0
H1955 H 0.91849 0.2788 0.6603 0.0
H1956 H 0.94498 0.2664 0.71347 0.0
H1957 H 0.97511 0.2609 0.69733 0.0
H1958 H 0.91206 0.24829 0.7095 0.0
H1959 H 0.93336 0.31118 0.70265 0.0
H1960 H 0.94589 0.3385 0.68587 0.0
H1961 H 0.89668 0.33779 0.64993 0.0
H1962 H 0.88396 0.31029 0.66632 0.0
H1963 H 0.82921 0.27044 0.75957 0.0
H1964 H 0.86199 0.27443 0.74901 0.0
H1965 H 0.84233 0.28213 0.69208 0.0
H1966 H 0.80946 0.27837 0.70248 0.0
H1967 H 0.87329 0.30483 0.70123 0.0
H1968 H 0.85439 0.2399 0.70544 0.0
H1969 H 0.84165 0.21245 0.72191 0.0
H1970 H 0.88673 0.21717 0.7627 0.0
H1971 H 0.89958 0.24483 0.74661 0.0
C1972 C 0.94803 0.27214 0.65927 0.0
C1973 C 0.96422 0.26689 0.66944 0.0
C1974 C 0.93086 0.27518 0.66851 0.0
C1975 C 0.9296 0.27327 0.68811 0.0
C1976 C 0.94571 0.26804 0.69833 0.0
C1977 C 0.9629 0.26489 0.68908 0.0
C1978 C 0.91117 0.27575 0.69773 0.0
C1979 C 0.90377 0.26083 0.70804 0.0
C1980 C 0.90023 0.29196 0.69548 0.0
C1981 C 0.90777 0.30858 0.68564 0.0
C1982 C 0.92527 0.31677 0.69108 0.0
C1983 C 0.93239 0.3323 0.68165 0.0
C1984 C 0.92211 0.33986 0.66682 0.0
C1985 C 0.90464 0.33192 0.66142 0.0
C1986 C 0.89745 0.31637 0.67079 0.0
C1987 C 0.83181 0.27329 0.74485 0.0
C1988 C 0.81674 0.27377 0.7318 0.0
C1989 C 0.85054 0.27558 0.73887 0.0
C1990 C 0.85451 0.27824 0.71974 0.0
C1991 C 0.8395 0.28002 0.7069 0.0
C1992 C 0.82073 0.27779 0.71287 0.0
C1993 C 0.87424 0.27733 0.71278 0.0
C1994 C 0.88179 0.29248 0.70294 0.0
C1995 C 0.88536 0.26132 0.71542 0.0
C1996 C 0.87781 0.24455 0.72495 0.0
C1997 C 0.8615 0.23516 0.718 0.0
C1998 C 0.85428 0.21956 0.72725 0.0
C1999 C 0.86334 0.21311 0.74338 0.0
C2000 C 0.8797 0.22221 0.75023 0.0
C2001 C 0.88697 0.23784 0.74105 0.0
H2002 H 0.85772 0.20104 0.75053 0.0
H2003 H 0.92765 0.35188 0.65954 0.0
H2004 H 0.47189 0.17861 0.4105 0.0
H2005 H 0.45872 0.158 0.43401 0.0
H2006 H 0.44846 0.20511 0.47107 0.0
H2007 H 0.46237 0.22588 0.44764 0.0
H2008 H 0.46632 0.18137 0.48934 0.0
H2009 H 0.41027 0.17597 0.45548 0.0
H2010 H 0.38838 0.17374 0.42834 0.0
H2011 H 0.41057 0.12013 0.41332 0.0
H2012 H 0.43281 0.12212 0.44015 0.0
H2013 H 0.44634 0.07561 0.51462 0.0
H2014 H 0.43297 0.10595 0.50712 0.0
H2015 H 0.48894 0.12613 0.49218 0.0
H2016 H 0.50235 0.09629 0.49988 0.0
H2017 H 0.43185 0.12222 0.47443 0.0
H2018 H 0.49629 0.16915 0.50108 0.0
H2019 H 0.51636 0.17183 0.52951 0.0
H2020 H 0.47314 0.14426 0.56182 0.0
H2021 H 0.45264 0.14165 0.53366 0.0
C2022 C 0.46654 0.18465 0.4235 0.0
C2023 C 0.46841 0.2038 0.42736 0.0
C2024 C 0.45872 0.17286 0.43688 0.0
C2025 C 0.45228 0.18 0.45425 0.0
C2026 C 0.45323 0.19929 0.45774 0.0
C2027 C 0.46127 0.21111 0.44439 0.0
C2028 C 0.4478 0.1669 0.46957 0.0
C2029 C 0.45843 0.1686 0.48629 0.0
C2030 C 0.43661 0.15065 0.46618 0.0
C2031 C 0.4232 0.14919 0.44995 0.0
C2032 C 0.41055 0.16373 0.44636 0.0
C2033 C 0.39807 0.16251 0.43101 0.0
C2034 C 0.39807 0.1468 0.41913 0.0
C2035 C 0.41054 0.13227 0.42257 0.0
C2036 C 0.42306 0.13341 0.4379 0.0
C2037 C 0.4558 0.08662 0.50994 0.0
C2038 C 0.47541 0.08353 0.50777 0.0
C2039 C 0.44813 0.10393 0.50574 0.0
C2040 C 0.45999 0.1184 0.49948 0.0
C2041 C 0.47957 0.11535 0.49754 0.0
C2042 C 0.48721 0.09817 0.50173 0.0
C2043 C 0.45214 0.13609 0.4928 0.0
C2044 C 0.43904 0.13529 0.47787 0.0
C2045 C 0.46064 0.15335 0.4981 0.0
C2046 C 0.47285 0.15526 0.5152 0.0
C2047 C 0.49093 0.16384 0.51427 0.0
C2048 C 0.50243 0.16529 0.53035 0.0
C2049 C 0.49603 0.15823 0.54746 0.0
C2050 C 0.4781 0.14971 0.54855 0.0
C2051 C 0.46654 0.14823 0.53252 0.0
H2052 H 0.50496 0.15935 0.55988 0.0
H2053 H 0.3884 0.14589 0.40725 0.0
H2054 H 0.57565 0.78055 0.14966 0.0
H2055 H 0.6055 0.78144 0.16737 0.0
H2056 H 0.57431 0.78508 0.21954 0.0
H2057 H 0.54434 0.78421 0.20195 0.0
H2058 H 0.60832 0.80709 0.2194 0.0
H2059 H 0.58638 0.74435 0.206 0.0
H2060 H 0.57475 0.71877 0.1852 0.0
H2061 H 0.62646 0.72149 0.15323 0.0
H2062 H 0.63825 0.74732 0.17366 0.0
H2063 H 0.68733 0.74242 0.25981 0.0
H2064 H 0.65541 0.74783 0.24754 0.0
H2065 H 0.67527 0.79854 0.22192 0.0
H2066 H 0.7071 0.79342 0.23427 0.0
H2067 H 0.64528 0.74911 0.21129 0.0
H2068 H 0.64004 0.82906 0.21985 0.0
H2069 H 0.65024 0.85412 0.24207 0.0
H2070 H 0.65061 0.81519 0.28732 0.0
H2071 H 0.64064 0.78989 0.26537 0.0
C2072 C 0.57514 0.78189 0.16488 0.0
C2073 C 0.55767 0.78204 0.17445 0.0
C2074 C 0.59219 0.78241 0.17495 0.0
C2075 C 0.59202 0.7831 0.19472 0.0
C2076 C 0.57467 0.78453 0.20428 0.0
C2077 C 0.55759 0.78394 0.19421 0.0
C2078 C 0.60975 0.78031 0.20539 0.0
C2079 C 0.61646 0.79446 0.21765 0.0
C2080 C 0.62004 0.76362 0.20336 0.0
C2081 C 0.61312 0.74788 0.19125 0.0
C2082 C 0.59522 0.73958 0.19445 0.0
C2083 C 0.5886 0.72503 0.18274 0.0
C2084 C 0.59984 0.71854 0.16787 0.0
C2085 C 0.61775 0.72655 0.16473 0.0
C2086 C 0.62442 0.74114 0.17638 0.0
C2087 C 0.68488 0.75481 0.2517 0.0
C2088 C 0.6998 0.7674 0.24788 0.0
C2089 C 0.66664 0.75787 0.24472 0.0
C2090 C 0.66298 0.77364 0.23394 0.0
C2091 C 0.67773 0.78643 0.23043 0.0
C2092 C 0.69597 0.78337 0.23737 0.0
C2093 C 0.64411 0.77601 0.22516 0.0
C2094 C 0.63718 0.76176 0.21315 0.0
C2095 C 0.63352 0.79248 0.22767 0.0
C2096 C 0.63971 0.80757 0.24093 0.0
C2097 C 0.64232 0.82586 0.23455 0.0
C2098 C 0.64813 0.84008 0.24708 0.0
C2099 C 0.65118 0.83622 0.26607 0.0
C2100 C 0.64843 0.81812 0.27258 0.0
C2101 C 0.64279 0.80382 0.26008 0.0
H2102 H 0.6556 0.84725 0.27576 0.0
H2103 H 0.59469 0.70727 0.15881 0.0
H2104 H 0.98424 0.20541 0.59732 0.0
H2105 H 0.98296 0.17428 0.58274 0.0
H2106 H 0.03544 0.16052 0.61044 0.0
H2107 H 0.03665 0.19152 0.62542 0.0
H2108 H 0.03406 0.15525 0.56953 0.0
H2109 H -0.0005 0.13995 0.62548 0.0
H2110 H 0.97447 0.14309 0.64953 0.0
H2111 H 0.93154 0.13397 0.60712 0.0
H2112 H 0.95631 0.13114 0.58273 0.0
H2113 H 0.03578 0.06117 0.53797 0.0
H2114 H 0.03695 0.08995 0.55672 0.0
H2115 H 0.97863 0.10079 0.54194 0.0
H2116 H 0.97714 0.07168 0.52365 0.0
H2117 H 0.98378 0.10698 0.57798 0.0
H2118 H 0.01667 0.12468 0.52182 0.0
H2119 H 0.04072 0.12211 0.4967 0.0
H2120 H 0.08536 0.12776 0.53787 0.0
H2121 H 0.06156 0.13012 0.56327 0.0
C2122 C -0.00461 0.19568 0.60048 0.0
C2123 C 0.01059 0.20088 0.61244 0.0
C2124 C -0.00541 0.17792 0.59222 0.0
C2125 C 0.00908 0.1652 0.5956 0.0
C2126 C 0.02411 0.1702 0.60777 0.0
C2127 C 0.02474 0.18786 0.61632 0.0
C2128 C 0.00921 0.14722 0.58527 0.0
C2129 C 0.02328 0.14452 0.57156 0.0
C2130 C -0.00526 0.13362 0.58761 0.0
C2131 C 0.97979 0.13559 0.60222 0.0
C2132 C 0.98473 0.13887 0.62123 0.0
C2133 C 0.97058 0.14055 0.63493 0.0
C2134 C 0.95142 0.13884 0.62984 0.0
C2135 C 0.94638 0.13538 0.61104 0.0
C2136 C 0.96048 0.13373 0.59727 0.0
C2137 C 0.02325 0.06976 0.53856 0.0
C2138 C 0.00638 0.06419 0.52928 0.0
C2139 C 0.02395 0.08623 0.54927 0.0
C2140 C 0.00794 0.09762 0.55057 0.0
C2141 C -0.00886 0.09218 0.54115 0.0
C2142 C 0.99034 0.0756 0.53064 0.0
C2143 C 0.00856 0.11502 0.56206 0.0
C2144 C -0.00537 0.11765 0.57596 0.0
C2145 C 0.02299 0.12871 0.55971 0.0
C2146 C 0.03733 0.12739 0.54446 0.0
C2147 C 0.03161 0.12523 0.52553 0.0
C2148 C 0.0452 0.12384 0.51124 0.0
C2149 C 0.06456 0.12472 0.5157 0.0
C2150 C 0.07036 0.12705 0.53445 0.0
C2151 C 0.05683 0.12844 0.54879 0.0
H2152 H 0.07505 0.12363 0.50461 0.0
H2153 H 0.94049 0.14008 0.64048 0.0
H2154 H 0.56389 0.25878 0.39807 0.0
H2155 H 0.5946 0.26627 0.38341 0.0
H2156 H 0.58696 0.21967 0.3448 0.0
H2157 H 0.55642 0.21231 0.3592 0.0
H2158 H 0.62458 0.22519 0.35544 0.0
H2159 H 0.56967 0.26137 0.33347 0.0
H2160 H 0.54376 0.28352 0.3395 0.0
H2161 H 0.58423 0.32423 0.36034 0.0
H2162 H 0.61036 0.30224 0.35455 0.0
H2163 H 0.64957 0.22936 0.26481 0.0
H2164 H 0.62836 0.2338 0.29161 0.0
H2165 H 0.66146 0.28181 0.30994 0.0
H2166 H 0.6826 0.27763 0.28262 0.0
H2167 H 0.61881 0.28228 0.31737 0.0
H2168 H 0.67473 0.24634 0.32901 0.0
H2169 H 0.69863 0.22277 0.32071 0.0
H2170 H 0.65502 0.18035 0.31848 0.0
H2171 H 0.63082 0.20369 0.32645 0.0
C2172 C 0.56915 0.24977 0.38691 0.0
C2173 C 0.55783 0.23506 0.3796 0.0
C2174 C 0.5866 0.25412 0.37852 0.0
C2175 C 0.59287 0.24364 0.36291 0.0
C2176 C 0.58236 0.22791 0.35684 0.0
C2177 C 0.56491 0.22373 0.36503 0.0
C2178 C 0.60872 0.25013 0.351 0.0
C2179 C 0.62358 0.23783 0.34736 0.0
C2180 C 0.60752 0.26682 0.34072 0.0
C2181 C 0.5919 0.28014 0.34377 0.0
C2182 C 0.57301 0.27503 0.3394 0.0
C2183 C 0.5583 0.28754 0.34278 0.0
C2184 C 0.56234 0.30524 0.35037 0.0
C2185 C 0.58112 0.3105 0.3545 0.0
C2186 C 0.59588 0.29803 0.35117 0.0
C2187 C 0.65181 0.24133 0.27409 0.0
C2188 C 0.66762 0.25314 0.27181 0.0
C2189 C 0.63978 0.24381 0.28942 0.0
C2190 C 0.64368 0.25787 0.30289 0.0
C2191 C 0.65834 0.27086 0.29966 0.0
C2192 C 0.67029 0.26852 0.28406 0.0
C2193 C 0.63411 0.25687 0.32132 0.0
C2194 C 0.62045 0.27013 0.32609 0.0
C2195 C 0.63633 0.24098 0.33262 0.0
C2196 C 0.65096 0.22679 0.32833 0.0
C2197 C 0.67023 0.232 0.32669 0.0
C2198 C 0.68383 0.21868 0.32203 0.0
C2199 C 0.67833 0.20008 0.31908 0.0
C2200 C 0.65925 0.19475 0.32081 0.0
C2201 C 0.6456 0.20802 0.32543 0.0
H2202 H 0.68884 0.18976 0.31549 0.0
H2203 H 0.55092 0.31489 0.35301 0.0
H2204 H 0.47227 0.82224 0.12513 0.0
H2205 H 0.46197 0.84508 0.10235 0.0
H2206 H 0.48418 0.81111 0.05697 0.0
H2207 H 0.49483 0.78825 0.07978 0.0
H2208 H 0.49665 0.84621 0.05505 0.0
H2209 H 0.4361 0.81656 0.06203 0.0
H2210 H 0.40891 0.80325 0.07934 0.0
H2211 H 0.3979 0.85677 0.10459 0.0
H2212 H 0.42518 0.87037 0.08763 0.0
H2213 H 0.46947 0.91474 -0.00858 0.0
H2214 H 0.46857 0.88412 0.0059 0.0
H2215 H 0.44929 0.90903 0.05807 0.0
H2216 H 0.44986 0.93963 0.0437 0.0
H2217 H 0.43295 0.87491 0.05215 0.0
H2218 H 0.49668 0.9019 0.052 0.0
H2219 H 0.52496 0.91602 0.03705 0.0
H2220 H 0.52997 0.86804 0.00056 0.0
H2221 H 0.50181 0.85361 0.01543 0.0
C2222 C 0.4748 0.81952 0.11029 0.0
C2223 C 0.48447 0.80352 0.10424 0.0
C2224 C 0.46874 0.83252 0.09727 0.0
C2225 C 0.4721 0.82968 0.07795 0.0
C2226 C 0.48137 0.8135 0.07182 0.0
C2227 C 0.48746 0.80048 0.08486 0.0
C2228 C 0.46758 0.84449 0.06447 0.0
C2229 C 0.48258 0.85213 0.05403 0.0
C2230 C 0.44934 0.85254 0.06354 0.0
C2231 C 0.43277 0.84447 0.07362 0.0
C2232 C 0.42795 0.82548 0.07136 0.0
C2233 C 0.41251 0.81788 0.0811 0.0
C2234 C 0.4017 0.82915 0.09308 0.0
C2235 C 0.40628 0.84806 0.0953 0.0
C2236 C 0.42171 0.85573 0.08559 0.0
C2237 C 0.46468 0.91368 0.00586 0.0
C2238 C 0.46 0.92968 0.01648 0.0
C2239 C 0.4642 0.89617 0.01412 0.0
C2240 C 0.45921 0.89439 0.03315 0.0
C2241 C 0.45324 0.91012 0.04337 0.0
C2242 C 0.45364 0.92762 0.03513 0.0
C2243 C 0.46208 0.87665 0.043 0.0
C2244 C 0.44685 0.86859 0.05282 0.0
C2245 C 0.48014 0.86825 0.04356 0.0
C2246 C 0.49709 0.8768 0.03468 0.0
C2247 C 0.50381 0.89442 0.04076 0.0
C2248 C 0.51983 0.90243 0.03236 0.0
C2249 C 0.52925 0.89291 0.0179 0.0
C2250 C 0.5227 0.87535 0.01183 0.0
C2251 C 0.50675 0.86723 0.02027 0.0
H2252 H 0.54161 0.89914 0.01143 0.0
H2253 H 0.38977 0.82324 0.10063 0.0
H2254 H 0.96565 0.77244 0.81711 0.0
H2255 H 0.93452 0.7786 0.8036 0.0
H2256 H 0.90859 0.73984 0.842 0.0
H2257 H 0.93969 0.734 0.85601 0.0
H2258 H 0.91076 0.75723 0.78524 0.0
H2259 H 0.86371 0.75308 0.85221 0.0
H2260 H 0.86623 0.75961 0.88639 0.0
H2261 H 0.91096 0.79956 0.87655 0.0
H2262 H 0.90854 0.79345 0.84231 0.0
H2263 H 0.81383 0.74575 0.76043 0.0
H2264 H 0.84549 0.74278 0.77422 0.0
H2265 H 0.84159 0.79815 0.79837 0.0
H2266 H 0.80983 0.80112 0.78496 0.0
H2267 H 0.85473 0.77484 0.82361 0.0
H2268 H 0.86904 0.79007 0.76001 0.0
H2269 H 0.86725 0.78723 0.72537 0.0
H2270 H 0.88956 0.73196 0.72766 0.0
H2271 H 0.89124 0.73437 0.76236 0.0
C2272 C 0.95332 0.76526 0.82275 0.0
C2273 C 0.95512 0.75274 0.83765 0.0
C2274 C 0.93555 0.76878 0.81498 0.0
C2275 C 0.91923 0.75979 0.82187 0.0
C2276 C 0.92096 0.74719 0.83669 0.0
C2277 C 0.93875 0.74381 0.84463 0.0
C2278 C 0.90048 0.76336 0.81324 0.0
C2279 C 0.89852 0.76109 0.79364 0.0
C2280 C 0.8846 0.76876 0.82415 0.0
C2281 C 0.88606 0.77266 0.84471 0.0
C2282 C 0.87404 0.76331 0.85734 0.0
C2283 C 0.87546 0.76693 0.87672 0.0
C2284 C 0.88879 0.77995 0.88364 0.0
C2285 C 0.90069 0.78942 0.87118 0.0
C2286 C 0.89932 0.78587 0.85179 0.0
C2287 C 0.81974 0.75732 0.76861 0.0
C2288 C 0.8093 0.77364 0.77165 0.0
C2289 C 0.83784 0.75562 0.77644 0.0
C2290 C 0.8459 0.7703 0.78721 0.0
C2291 C 0.83558 0.78664 0.79017 0.0
C2292 C 0.81744 0.78831 0.78246 0.0
C2293 C 0.865 0.76847 0.79567 0.0
C2294 C 0.867 0.77101 0.81523 0.0
C2295 C 0.88104 0.76384 0.78467 0.0
C2296 C 0.8801 0.76234 0.7638 0.0
C2297 C 0.87342 0.77725 0.75314 0.0
C2298 C 0.87246 0.77573 0.73349 0.0
C2299 C 0.87825 0.75941 0.72432 0.0
C2300 C 0.88506 0.74459 0.73478 0.0
C2301 C 0.88604 0.74603 0.75444 0.0
H2302 H 0.87749 0.75826 0.7091 0.0
H2303 H 0.88988 0.78272 0.89865 0.0
H2304 H 0.90147 0.99039 0.81093 0.0
H2305 H 0.9024 0.98678 0.84497 0.0
H2306 H 0.96374 0.98831 0.84372 0.0
H2307 H 0.96286 -0.00857 0.80919 0.0
H2308 H 0.9495 0.96385 0.87027 0.0
H2309 H 0.94089 0.02747 0.85301 0.0
H2310 H 0.92585 0.05289 0.8357 0.0
H2311 H 0.87244 0.04063 0.86226 0.0
H2312 H 0.8871 0.01494 0.87952 0.0
H2313 H 0.94907 0.01544 0.96432 0.0
H2314 H 0.9432 0.01716 0.93056 0.0
H2315 H 0.91764 0.9622 0.93075 0.0
H2316 H 0.92403 0.96007 0.96448 0.0
H2317 H 0.91559 0.01421 0.9047 0.0
H2318 H 0.93528 0.93738 0.89508 0.0
H2319 H 0.95093 0.91301 0.91344 0.0
H2320 H 0.98607 0.95453 0.94113 0.0
H2321 H 0.97075 0.97912 0.9228 0.0
C2322 C 0.91518 0.98967 0.81786 0.0
C2323 C 0.93212 -0.00851 0.80757 0.0
C2324 C 0.91568 0.98761 0.83729 0.0
C2325 C 0.93311 0.98777 0.84685 0.0
C2326 C 0.95014 0.9883 0.83652 0.0
C2327 C 0.94965 0.99009 0.81689 0.0
C2328 C 0.93326 0.9889 0.86766 0.0
C2329 C 0.94213 0.97486 0.8778 0.0
C2330 C 0.92383 0.00343 0.87746 0.0
C2331 C 0.91507 0.01919 0.86745 0.0
C2332 C 0.92592 0.03014 0.85509 0.0
C2333 C 0.91746 0.04459 0.84529 0.0
C2334 C 0.89819 0.04834 0.84784 0.0
C2335 C 0.88736 0.0377 0.86028 0.0
C2336 C 0.89574 0.0232 0.8701 0.0
C2337 C 0.94169 0.00391 0.95733 0.0
C2338 C 0.93746 0.9874 0.96696 0.0
C2339 C 0.93834 0.00494 0.938 0.0
C2340 C 0.93056 0.98957 0.92811 0.0
C2341 C 0.92414 0.97401 0.9381 0.0
C2342 C 0.92771 0.97285 0.95739 0.0
C2343 C 0.93146 0.98896 0.9073 0.0
C2344 C 0.9229 0.00316 0.89716 0.0
C2345 C 0.94154 0.97483 0.89754 0.0
C2346 C 0.95175 0.96007 0.90769 0.0
C2347 C 0.94644 0.94128 0.90498 0.0
C2348 C 0.95517 0.92745 0.91546 0.0
C2349 C 0.96933 0.93226 0.92858 0.0
C2350 C 0.97498 0.95086 0.93107 0.0
C2351 C 0.9663 0.96474 0.92063 0.0
H2352 H 0.97608 0.92152 0.93663 0.0
H2353 H 0.89166 0.05951 0.8402 0.0
H2354 H 0.78018 0.14871 0.54206 0.0
H2355 H 0.77912 0.16712 0.57122 0.0
H2356 H 0.74913 0.12229 0.59857 0.0
H2357 H 0.74979 0.10387 0.56937 0.0
H2358 H 0.73127 0.15425 0.60363 0.0
H2359 H 0.79542 0.13368 0.6099 0.0
H2360 H 0.82852 0.12843 0.59998 0.0
H2361 H 0.83732 0.18734 0.59412 0.0
H2362 H 0.80418 0.19293 0.60377 0.0
H2363 H 0.73748 0.18886 0.69776 0.0
H2364 H 0.74026 0.17075 0.66852 0.0
H2365 H 0.76551 0.21825 0.64123 0.0
H2366 H 0.76279 0.23657 0.67051 0.0
H2367 H 0.78587 0.18569 0.63584 0.0
H2368 H 0.7216 0.206 0.6304 0.0
H2369 H 0.68851 0.21087 0.64052 0.0
H2370 H 0.68 0.15179 0.64507 0.0
H2371 H 0.71315 0.14657 0.63526 0.0
C2372 C 0.77365 0.1426 0.55435 0.0
C2373 C 0.765 0.12482 0.55334 0.0
C2374 C 0.7731 0.15315 0.57104 0.0
C2375 C 0.76408 0.14606 0.58707 0.0
C2376 C 0.75612 0.12804 0.58633 0.0
C2377 C 0.75661 0.11749 0.56964 0.0
C2378 C 0.76174 0.15791 0.60416 0.0
C2379 C 0.74324 0.16089 0.61086 0.0
C2380 C 0.77731 0.16702 0.6132 0.0
C2381 C 0.79725 0.1637 0.60738 0.0
C2382 C 0.80436 0.14551 0.60634 0.0
C2383 C 0.82314 0.14247 0.6008 0.0
C2384 C 0.835 0.15754 0.59637 0.0
C2385 C 0.82811 0.17568 0.59753 0.0
C2386 C 0.80933 0.17879 0.60305 0.0
C2387 C 0.7435 0.19554 0.68551 0.0
C2388 C 0.74994 0.21417 0.68646 0.0
C2389 C 0.74501 0.18517 0.6688 0.0
C2390 C 0.75302 0.19321 0.65274 0.0
C2391 C 0.75928 0.21184 0.65352 0.0
C2392 C 0.75763 0.22229 0.67021 0.0
C2393 C 0.75545 0.18186 0.63535 0.0
C2394 C 0.77393 0.17903 0.62859 0.0
C2395 C 0.73987 0.1728 0.62629 0.0
C2396 C 0.71994 0.17591 0.6323 0.0
C2397 C 0.71274 0.19405 0.63375 0.0
C2398 C 0.69395 0.19688 0.63939 0.0
C2399 C 0.68217 0.18166 0.64349 0.0
C2400 C 0.68915 0.16357 0.64192 0.0
C2401 C 0.70793 0.16067 0.63631 0.0
H2402 H 0.66763 0.18387 0.64785 0.0
H2403 H 0.84953 0.15516 0.59209 0.0
H2404 H 0.52994 0.00042 0.29866 0.0
H2405 H 0.52517 0.00954 0.33172 0.0
H2406 H 0.57791 0.98355 0.34665 0.0
H2407 H 0.58288 0.9745 0.31382 0.0
H2408 H 0.5219 0.98922 0.36356 0.0
H2409 H 0.60047 0.01029 0.37987 0.0
H2410 H 0.6282 0.02326 0.3631 0.0
H2411 H 0.59113 0.04897 0.32335 0.0
H2412 H 0.56317 0.0364 0.34004 0.0
H2413 H 0.53852 0.98592 0.45956 0.0
H2414 H 0.54471 0.98303 0.4259 0.0
H2415 H 0.54485 0.04282 0.42122 0.0
H2416 H 0.53875 0.04594 0.45513 0.0
H2417 H 0.57198 0.02546 0.3981 0.0
H2418 H 0.50547 0.02114 0.41115 0.0
H2419 H 0.47697 0.00956 0.42769 0.0
H2420 H 0.48782 0.95402 0.40752 0.0
H2421 H 0.51657 0.96521 0.39111 0.0
C2422 C 0.54046 -0.00346 0.309 0.0
C2423 C 0.55685 0.98683 0.30358 0.0
C2424 C 0.53772 0.00178 0.32786 0.0
C2425 C 0.55137 -0.0025 0.34151 0.0
C2426 C 0.5674 0.98731 0.33624 0.0
C2427 C 0.57014 0.98205 0.31746 0.0
C2428 C 0.54891 0.00351 0.36138 0.0
C2429 C 0.53279 -0.00278 0.37108 0.0
C2430 C 0.56297 0.0143 0.37105 0.0
C2431 C 0.57972 0.02226 0.36115 0.0
C2432 C 0.59822 0.0188 0.36762 0.0
C2433 C 0.61398 0.02607 0.35811 0.0
C2434 C 0.61143 0.03689 0.34214 0.0
C2435 C 0.59309 0.04053 0.33569 0.0
C2436 C 0.57728 0.03332 0.34516 0.0
C2437 C 0.54017 -0.00149 0.4515 0.0
C2438 C 0.53777 0.01616 0.45996 0.0
C2439 C 0.54368 -0.00319 0.43224 0.0
C2440 C 0.54478 0.0127 0.42108 0.0
C2441 C 0.54388 0.0304 0.42965 0.0
C2442 C 0.54038 0.03214 0.449 0.0
C2443 C 0.54533 0.01058 0.40034 0.0
C2444 C 0.56105 0.0176 0.3905 0.0
C2445 C 0.53073 0.00075 0.39044 0.0
C2446 C 0.51326 -0.006 0.40001 0.0
C2447 C 0.50184 0.00644 0.41034 0.0
C2448 C 0.48564 -6e-05 0.41968 0.0
C2449 C 0.48061 0.98106 0.41868 0.0
C2450 C 0.49174 0.96864 0.40829 0.0
C2451 C 0.50798 0.97506 0.39895 0.0
H2452 H 0.46807 0.97606 0.42594 0.0
H2453 H 0.62364 0.04248 0.33479 0.0
H2454 H 0.73277 0.78514 0.05447 0.0
H2455 H 0.75037 0.76572 0.07664 0.0
H2456 H 0.7605 0.81392 0.11257 0.0
H2457 H 0.74306 0.83316 0.09087 0.0
H2458 H 0.79318 0.79257 0.10636 0.0
H2459 H 0.72511 0.78412 0.12235 0.0
H2460 H 0.69246 0.77344 0.11468 0.0
H2461 H 0.71283 0.71846 0.10242 0.0
H2462 H 0.74565 0.72892 0.10984 0.0
H2463 H 0.78987 0.79131 0.20209 0.0
H2464 H 0.78921 0.79255 0.16789 0.0
H2465 H 0.78775 0.73248 0.16439 0.0
H2466 H 0.7885 0.73121 0.19901 0.0
H2467 H 0.75812 0.74762 0.14617 0.0
H2468 H 0.82424 0.75523 0.143 0.0
H2469 H 0.85638 0.76637 0.15187 0.0
H2470 H 0.84064 0.82257 0.14017 0.0
H2471 H 0.80832 0.81185 0.13151 0.0
C2472 C 0.73872 0.79151 0.06715 0.0
C2473 C 0.73645 0.81065 0.07098 0.0
C2474 C 0.74881 0.78045 0.07971 0.0
C2475 C 0.75687 0.78846 0.09612 0.0
C2476 C 0.75459 0.80752 0.09987 0.0
C2477 C 0.74444 0.81847 0.08751 0.0
C2478 C 0.76699 0.77728 0.11019 0.0
C2479 C 0.78568 0.78255 0.115 0.0
C2480 C 0.75748 0.76356 0.12082 0.0
C2481 C 0.73781 0.75734 0.11638 0.0
C2482 C 0.72263 0.7698 0.11786 0.0
C2483 C 0.7041 0.76378 0.1136 0.0
C2484 C 0.70058 0.7453 0.108 0.0
C2485 C 0.71558 0.73279 0.10671 0.0
C2486 C 0.73414 0.73875 0.11094 0.0
C2487 C 0.79 0.77836 0.19405 0.0
C2488 C 0.78912 0.76118 0.20315 0.0
C2489 C 0.78977 0.77906 0.17446 0.0
C2490 C 0.78857 0.7626 0.16354 0.0
C2491 C 0.78884 0.74533 0.17256 0.0
C2492 C 0.78933 0.74462 0.19229 0.0
C2493 C 0.78386 0.764 0.14325 0.0
C2494 C 0.76615 0.75688 0.13714 0.0
C2495 C 0.79431 0.77604 0.13143 0.0
C2496 C 0.8138 0.78269 0.13655 0.0
C2497 C 0.82758 0.76998 0.1424 0.0
C2498 C 0.84586 0.77623 0.14739 0.0
C2499 C 0.85056 0.79516 0.14657 0.0
C2500 C 0.837 0.80789 0.14075 0.0
C2501 C 0.8187 0.80173 0.13575 0.0
H2502 H 0.86471 0.79997 0.15044 0.0
H2503 H 0.68623 0.74066 0.10471 0.0
H2504 H 0.95112 0.01372 0.71212 0.0
H2505 H 0.95913 0.00508 0.67958 0.0
H2506 H 0.91282 0.03814 0.65937 0.0
H2507 H 0.90468 0.04675 0.69177 0.0
H2508 H 0.93423 0.98539 0.65601 0.0
H2509 H 0.92516 0.05413 0.61506 0.0
H2510 H 0.93107 0.08789 0.61946 0.0
H2511 H 0.97424 0.07697 0.66053 0.0
H2512 H 0.96885 0.04318 0.65616 0.0
H2513 H 0.93608 0.00449 0.54641 0.0
H2514 H 0.92482 0.00988 0.57853 0.0
H2515 H 0.96745 0.97277 0.59942 0.0
H2516 H 0.97847 0.96699 0.56735 0.0
H2517 H 0.94753 0.02736 0.60271 0.0
H2518 H 0.95625 0.95852 0.64359 0.0
H2519 H 0.95055 0.9248 0.63881 0.0
H2520 H 0.90766 0.93589 0.59748 0.0
H2521 H 0.9129 0.96967 0.60219 0.0
C2522 C 0.94294 0.0195 0.70072 0.0
C2523 C 0.92718 0.03078 0.70445 0.0
C2524 C 0.94746 0.01446 0.68218 0.0
C2525 C 0.9365 0.02091 0.66714 0.0
C2526 C 0.92151 0.0331 0.67079 0.0
C2527 C 0.91687 0.03799 0.68929 0.0
C2528 C 0.93963 0.01372 0.64778 0.0
C2529 C 0.93743 -0.0055 0.64435 0.0
C2530 C 0.94313 0.02575 0.63259 0.0
C2531 C 0.94641 0.04609 0.63544 0.0
C2532 C 0.93593 0.05893 0.62502 0.0
C2533 C 0.93921 0.07807 0.62749 0.0
C2534 C 0.95297 0.08456 0.64032 0.0
C2535 C 0.96352 0.07192 0.65067 0.0
C2536 C 0.96033 0.05277 0.64822 0.0
C2537 C 0.94258 -0.00306 0.55778 0.0
C2538 C 0.95836 0.98556 0.55441 0.0
C2539 C 0.93619 0.0001 0.57613 0.0
C2540 C 0.94547 -0.00805 0.59139 0.0
C2541 C 0.95998 0.97912 0.58787 0.0
C2542 C 0.96627 0.97581 0.56948 0.0
C2543 C 0.94203 -0.00103 0.61081 0.0
C2544 C 0.94421 0.01821 0.6143 0.0
C2545 C 0.93846 0.98695 0.62601 0.0
C2546 C 0.93512 0.96664 0.62312 0.0
C2547 C 0.94555 0.95377 0.63352 0.0
C2548 C 0.94241 0.93464 0.63082 0.0
C2549 C 0.92879 0.92821 0.6178 0.0
C2550 C 0.91826 0.94089 0.6075 0.0
C2551 C 0.92134 0.96003 0.61015 0.0
H2552 H 0.92638 0.9134 0.61573 0.0
H2553 H 0.95549 0.09937 0.64223 0.0
H2554 H 0.76446 0.17448 0.45212 0.0
H2555 H 0.76573 0.19015 0.42179 0.0
H2556 H 0.80078 0.14629 0.39926 0.0
H2557 H 0.79885 0.13018 0.42928 0.0
H2558 H 0.7892 0.20332 0.39445 0.0
H2559 H 0.78197 0.13125 0.35875 0.0
H2560 H 0.77303 0.09899 0.36686 0.0
H2561 H 0.73625 0.11945 0.41054 0.0
H2562 H 0.7448 0.1518 0.40252 0.0
H2563 H 0.77896 0.2144 0.29437 0.0
H2564 H 0.78985 0.20482 0.32547 0.0
H2565 H 0.73307 0.18565 0.33863 0.0
H2566 H 0.7222 0.19477 0.30755 0.0
H2567 H 0.75831 0.1605 0.34761 0.0
H2568 H 0.751 0.2265 0.35693 0.0
H2569 H 0.75664 0.2597 0.35023 0.0
H2570 H 0.81629 0.2534 0.36103 0.0
H2571 H 0.81102 0.22007 0.36755 0.0
C2572 C 0.77292 0.1685 0.44087 0.0
C2573 C 0.78117 0.15094 0.4428 0.0
C2574 C 0.77371 0.1775 0.42358 0.0
C2575 C 0.78294 0.16911 0.40819 0.0
C2576 C 0.79326 0.15277 0.41089 0.0
C2577 C 0.79213 0.14358 0.42801 0.0
C2578 C 0.77882 0.1754 0.38888 0.0
C2579 C 0.78265 0.19395 0.3841 0.0
C2580 C 0.76983 0.16326 0.37557 0.0
C2581 C 0.76418 0.14389 0.38016 0.0
C2582 C 0.77191 0.12884 0.37002 0.0
C2583 C 0.76693 0.11055 0.37461 0.0
C2584 C 0.75413 0.10717 0.38925 0.0
C2585 C 0.7462 0.12208 0.39925 0.0
C2586 C 0.75111 0.14038 0.39468 0.0
C2587 C 0.7688 0.20813 0.30389 0.0
C2588 C 0.74969 0.20531 0.29848 0.0
C2589 C 0.77503 0.20277 0.32168 0.0
C2590 C 0.76224 0.19465 0.33437 0.0
C2591 C 0.74319 0.19186 0.32901 0.0
C2592 C 0.73698 0.19711 0.31125 0.0
C2593 C 0.76863 0.18847 0.35308 0.0
C2594 C 0.76519 0.16986 0.35777 0.0
C2595 C 0.77747 0.20072 0.36638 0.0
C2596 C 0.78065 0.22075 0.36251 0.0
C2597 C 0.76534 0.23216 0.35772 0.0
C2598 C 0.76847 0.25101 0.35399 0.0
C2599 C 0.78682 0.25864 0.35515 0.0
C2600 C 0.80208 0.24746 0.3601 0.0
C2601 C 0.79904 0.22859 0.36383 0.0
H2602 H 0.78921 0.27324 0.35226 0.0
H2603 H 0.75033 0.09301 0.39281 0.0
H2604 H 0.59715 0.95615 0.18311 0.0
H2605 H 0.58241 0.96396 0.15314 0.0
H2606 H 0.52695 0.96068 0.17873 0.0
H2607 H 0.54156 0.95296 0.20891 0.0
H2608 H 0.52907 0.94593 0.14061 0.0
H2609 H 0.54549 0.00124 0.17729 0.0
H2610 H 0.56725 0.02152 0.19591 0.0
H2611 H 0.60479 0.02576 0.14849 0.0
H2612 H 0.58327 0.00535 0.1296 0.0
H2613 H 0.47805 -0.00317 0.07507 0.0
H2614 H 0.4919 0.98923 0.10548 0.0
H2615 H 0.54817 -0.00197 0.08298 0.0
H2616 H 0.53448 0.00591 0.05253 0.0
H2617 H 0.54564 0.0098 0.11969 0.0
H2618 H 0.52941 0.95555 0.08252 0.0
H2619 H 0.50815 0.93517 0.06343 0.0
H2620 H 0.47147 0.92785 0.1111 0.0
H2621 H 0.49228 0.94859 0.13038 0.0
C2622 C 0.58179 0.95669 0.1823 0.0
C2623 C 0.57051 0.95422 0.19843 0.0
C2624 C 0.57342 0.96119 0.16518 0.0
C2625 C 0.55367 0.96319 0.16391 0.0
C2626 C 0.54224 0.95927 0.17955 0.0
C2627 C 0.55061 0.95488 0.19675 0.0
C2628 C 0.54518 0.97099 0.14681 0.0
C2629 C 0.53247 0.95996 0.13612 0.0
C2630 C 0.55003 0.98916 0.14087 0.0
C2631 C 0.56286 0.00163 0.1521 0.0
C2632 C 0.55845 0.00639 0.17088 0.0
C2633 C 0.57073 0.01792 0.18148 0.0
C2634 C 0.58745 0.02486 0.17343 0.0
C2635 C 0.59185 0.02035 0.15472 0.0
C2636 C 0.5796 0.00883 0.14405 0.0
C2637 C 0.49336 -0.00246 0.07666 0.0
C2638 C 0.50518 0.00165 0.06127 0.0
C2639 C 0.50124 -0.00687 0.09404 0.0
C2640 C 0.52103 -0.00738 0.09627 0.0
C2641 C 0.53284 -0.00179 0.08145 0.0
C2642 C 0.52498 0.0027 0.06405 0.0
C2643 C 0.5294 0.98478 0.11346 0.0
C2644 C 0.54216 -0.00421 0.12416 0.0
C2645 C 0.5247 0.96652 0.11932 0.0
C2646 C 0.51231 0.95379 0.10785 0.0
C2647 C 0.51673 0.94972 0.0889 0.0
C2648 C 0.50477 0.93809 0.07805 0.0
C2649 C 0.48846 0.93023 0.08604 0.0
C2650 C 0.4841 0.93397 0.10492 0.0
C2651 C 0.49597 0.94568 0.11582 0.0
H2652 H 0.47922 0.92122 0.07763 0.0
H2653 H 0.59696 0.03377 0.18167 0.0
H2654 H 0.70902 0.81547 0.97306 0.0
H2655 H 0.70751 0.80254 0.94098 0.0
H2656 H 0.70878 0.85815 0.91878 0.0
H2657 H 0.70953 0.87112 0.95077 0.0
H2658 H 0.68366 0.83857 0.90046 0.0
H2659 H 0.74863 0.82885 0.91917 0.0
H2660 H 0.77446 0.81722 0.93918 0.0
H2661 H 0.75438 0.76105 0.92995 0.0
H2662 H 0.72828 0.77239 0.91006 0.0
H2663 H 0.72783 0.82633 0.81105 0.0
H2664 H 0.72045 0.83316 0.84409 0.0
H2665 H 0.6989 0.77714 0.8506 0.0
H2666 H 0.70574 0.77031 0.81722 0.0
H2667 H 0.73032 0.79242 0.87725 0.0
H2668 H 0.66756 0.80395 0.85406 0.0
H2669 H 0.64407 0.81744 0.83256 0.0
H2670 H 0.66279 0.87256 0.8489 0.0
H2671 H 0.68661 0.85939 0.87029 0.0
C2672 C 0.70908 0.82492 0.96133 0.0
C2673 C 0.70945 0.84431 0.96442 0.0
C2674 C 0.70824 0.81751 0.943 0.0
C2675 C 0.7082 0.82937 0.92745 0.0
C2676 C 0.70869 0.84873 0.93055 0.0
C2677 C 0.70922 0.85613 0.94884 0.0
C2678 C 0.70765 0.82176 0.90788 0.0
C2679 C 0.69393 0.82854 0.8954 0.0
C2680 C 0.72073 0.80831 0.90134 0.0
C2681 C 0.73637 0.80148 0.91333 0.0
C2682 C 0.74963 0.81404 0.92154 0.0
C2683 C 0.76433 0.8075 0.93283 0.0
C2684 C 0.76602 0.78842 0.93589 0.0
C2685 C 0.75303 0.77583 0.92761 0.0
C2686 C 0.73829 0.7823 0.91632 0.0
C2687 C 0.72126 0.81555 0.81945 0.0
C2688 C 0.71737 0.79779 0.81166 0.0
C2689 C 0.71703 0.81948 0.83825 0.0
C2690 C 0.70915 0.80564 0.84965 0.0
C2691 C 0.70493 0.78797 0.8419 0.0
C2692 C 0.70876 0.78414 0.8229 0.0
C2693 C 0.70666 0.80955 0.86994 0.0
C2694 C 0.71983 0.80214 0.8825 0.0
C2695 C 0.69335 0.82268 0.87646 0.0
C2696 C 0.67898 0.83067 0.86367 0.0
C2697 C 0.66679 0.81895 0.85295 0.0
C2698 C 0.65339 0.82653 0.84081 0.0
C2699 C 0.65196 0.84584 0.83934 0.0
C2700 C 0.66391 0.8576 0.85004 0.0
C2701 C 0.67736 0.85008 0.8622 0.0
H2702 H 0.64157 0.85169 0.82993 0.0
H2703 H 0.77742 0.78338 0.94463 0.0
H2704 H 0.77272 0.86875 0.04443 0.0
H2705 H 0.80483 0.87981 0.05199 0.0
H2706 H 0.79107 0.93431 0.03172 0.0
H2707 H 0.75894 0.92332 0.02384 0.0
H2708 H 0.8239 0.92288 0.01772 0.0
H2709 H 0.7958 0.92699 0.07873 0.0
H2710 H 0.77766 0.91588 0.10613 0.0
H2711 H 0.81888 0.87337 0.11515 0.0
H2712 H 0.83714 0.88408 0.08764 0.0
H2713 H 0.90986 0.96006 0.07119 0.0
H2714 H 0.87656 0.94982 0.07366 0.0
H2715 H 0.88696 0.9052 0.03374 0.0
H2716 H 0.92004 0.91534 0.03108 0.0
H2717 H 0.85483 0.91573 0.08014 0.0
H2718 H 0.85431 0.91003 -0.00106 0.0
H2719 H 0.8723 0.92244 0.97198 0.0
H2720 H 0.88695 0.97162 0.00439 0.0
H2721 H 0.86876 0.95966 0.03141 0.0
C2722 C 0.77647 0.88311 0.04161 0.0
C2723 C 0.76327 0.89514 0.03347 0.0
C2724 C 0.7948 0.88944 0.04609 0.0
C2725 C 0.80024 0.90794 0.04263 0.0
C2726 C 0.78711 0.92 0.03455 0.0
C2727 C 0.76877 0.91368 0.03005 0.0
C2728 C 0.81997 0.91437 0.04646 0.0
C2729 C 0.83059 0.92141 0.03141 0.0
C2730 C 0.82863 0.91266 0.06438 0.0
C2731 C 0.81777 0.90626 0.08103 0.0
C2732 C 0.80093 0.91519 0.08648 0.0
C2733 C 0.79063 0.90898 0.10204 0.0
C2734 C 0.79709 0.89391 0.11236 0.0
C2735 C 0.81389 0.88504 0.10715 0.0
C2736 C 0.82423 0.8912 0.09158 0.0
C2737 C 0.90519 0.9477 0.06343 0.0
C2738 C 0.91741 0.93871 0.05065 0.0
C2739 C 0.88619 0.94188 0.06487 0.0
C2740 C 0.87933 0.92702 0.05358 0.0
C2741 C 0.892 0.91687 0.04235 0.0
C2742 C 0.91087 0.92271 0.04083 0.0
C2743 C 0.85869 0.92372 0.05129 0.0
C2744 C 0.84799 0.9173 0.06655 0.0
C2745 C 0.8498 0.92626 0.03363 0.0
C2746 C 0.8603 0.93385 0.01725 0.0
C2747 C 0.86127 0.92354 0.00027 0.0
C2748 C 0.87151 0.93049 0.98499 0.0
C2749 C 0.8808 0.94779 0.98649 0.0
C2750 C 0.87979 0.95821 0.00326 0.0
C2751 C 0.86952 0.95134 0.01857 0.0
H2752 H 0.88874 0.95313 0.97465 0.0
H2753 H 0.7891 0.88911 0.1244 0.0
H2754 H 0.29754 0.57491 -0.00672 0.0
H2755 H 0.33006 0.56699 0.98523 0.0
H2756 H 0.3315 0.61035 0.94382 0.0
H2757 H 0.29893 0.61875 0.9522 0.0
H2758 H 0.346 0.55462 0.95414 0.0
H2759 H 0.37912 0.62684 0.94245 0.0
H2760 H 0.37369 0.65993 0.95041 0.0
H2761 H 0.34438 0.64416 0.00084 0.0
H2762 H 0.35006 0.61102 -0.00658 0.0
H2763 H 0.44398 0.53441 0.9507 0.0
H2764 H 0.41537 0.54961 0.93905 0.0
H2765 H 0.41009 0.57916 -0.00778 0.0
H2766 H 0.43866 0.56461 0.00369 0.0
H2767 H 0.39849 0.60048 0.96477 0.0
H2768 H 0.38864 0.53561 0.98406 0.0
H2769 H 0.394 0.50178 0.98142 0.0
H2770 H 0.37576 0.50195 0.9236 0.0
H2771 H 0.37049 0.53585 0.9259 0.0
C2772 C 0.30473 0.58277 0.98244 0.0
C2773 C 0.29571 0.59752 0.97346 0.0
C2774 C 0.32328 0.57816 0.97776 0.0
C2775 C 0.33318 0.58808 0.96392 0.0
C2776 C 0.32415 0.60262 0.95464 0.0
C2777 C 0.30558 0.60741 0.95948 0.0
C2778 C 0.35321 0.58341 0.96006 0.0
C2779 C 0.35749 0.56473 0.95611 0.0
C2780 C 0.36818 0.59661 0.96249 0.0
C2781 C 0.36471 0.61646 0.96718 0.0
C2782 C 0.37152 0.63045 0.95523 0.0
C2783 C 0.36842 0.64921 0.95966 0.0
C2784 C 0.35854 0.65414 0.97603 0.0
C2785 C 0.35192 0.64032 0.9881 0.0
C2786 C 0.35508 0.62155 0.9838 0.0
C2787 C 0.43691 0.54443 0.95975 0.0
C2788 C 0.44336 0.54802 0.97826 0.0
C2789 C 0.42061 0.55311 0.95306 0.0
C2790 C 0.41049 0.56532 0.96487 0.0
C2791 C 0.41769 0.56984 0.98283 0.0
C2792 C 0.43396 0.56132 0.98945 0.0
C2793 C 0.39118 0.57154 0.95998 0.0
C2794 C 0.38702 0.59053 0.96203 0.0
C2795 C 0.37624 0.55855 0.95646 0.0
C2796 C 0.37943 0.53824 0.95507 0.0
C2797 C 0.3859 0.52843 0.97076 0.0
C2798 C 0.3889 0.50926 0.96933 0.0
C2799 C 0.38529 0.49973 0.95233 0.0
C2800 C 0.37861 0.50936 0.93674 0.0
C2801 C 0.37562 0.52854 0.93809 0.0
H2802 H 0.38762 0.48489 0.95125 0.0
H2803 H 0.35611 0.66867 0.9794 0.0
H2804 H 0.15075 0.5238 0.74951 0.0
H2805 H 0.17223 0.55023 0.74566 0.0
H2806 H 0.12702 0.58153 0.72069 0.0
H2807 H 0.10513 0.55497 0.72462 0.0
H2808 H 0.18428 0.56815 0.71465 0.0
H2809 H 0.13477 0.62812 0.73598 0.0
H2810 H 0.10594 0.63374 0.75491 0.0
H2811 H 0.11922 0.58735 0.78976 0.0
H2812 H 0.14825 0.58165 0.77124 0.0
H2813 H 0.22917 0.65835 0.70278 0.0
H2814 H 0.20786 0.63113 0.70116 0.0
H2815 H 0.2082 0.62829 0.76184 0.0
H2816 H 0.22937 0.65538 0.76366 0.0
H2817 H 0.17217 0.62841 0.74735 0.0
H2818 H 0.23123 0.59663 0.73655 0.0
H2819 H 0.2615 0.59056 0.72025 0.0
H2820 H 0.23129 0.57922 0.66856 0.0
H2821 H 0.20084 0.58547 0.68452 0.0
C2822 C 0.14527 0.53626 0.74318 0.0
C2823 C 0.12616 0.53729 0.73745 0.0
C2824 C 0.15765 0.55132 0.74088 0.0
C2825 C 0.1512 0.5678 0.73292 0.0
C2826 C 0.1322 0.56892 0.72697 0.0
C2827 C 0.11975 0.55375 0.72922 0.0
C2828 C 0.16446 0.58385 0.7315 0.0
C2829 C 0.18156 0.5814 0.72164 0.0
C2830 C 0.16095 0.60103 0.74078 0.0
C2831 C 0.14352 0.60429 0.75202 0.0
C2832 C 0.13152 0.61913 0.74769 0.0
C2833 C 0.11517 0.62234 0.75836 0.0
C2834 C 0.1107 0.61085 0.77347 0.0
C2835 C 0.12264 0.59617 0.77799 0.0
C2836 C 0.13903 0.59293 0.76739 0.0
C2837 C 0.22502 0.65171 0.71577 0.0
C2838 C 0.23086 0.65914 0.73336 0.0
C2839 C 0.2128 0.6362 0.7148 0.0
C2840 C 0.20634 0.62788 0.73139 0.0
C2841 C 0.21289 0.63469 0.74889 0.0
C2842 C 0.22509 0.65011 0.74988 0.0
C2843 C 0.19208 0.6126 0.73073 0.0
C2844 C 0.17475 0.61526 0.7401 0.0
C2845 C 0.19551 0.59552 0.72127 0.0
C2846 C 0.21378 0.59173 0.71167 0.0
C2847 C 0.23106 0.593 0.72167 0.0
C2848 C 0.24824 0.58949 0.7125 0.0
C2849 C 0.24832 0.58456 0.69336 0.0
C2850 C 0.2312 0.58307 0.68337 0.0
C2851 C 0.21398 0.58659 0.69247 0.0
H2852 H 0.26164 0.58185 0.68629 0.0
H2853 H 0.09803 0.61333 0.7817 0.0
H2854 H 0.17903 0.40525 0.54394 0.0
H2855 H 0.15372 0.42656 0.53551 0.0
H2856 H 0.12267 0.38118 0.50859 0.0
H2857 H 0.14794 0.3597 0.5171 0.0
H2858 H 0.12953 0.41159 0.48517 0.0
H2859 H 0.10528 0.40008 0.54722 0.0
H2860 H 0.10633 0.3981 0.58186 0.0
H2861 H 0.12105 0.45624 0.5862 0.0
H2862 H 0.12036 0.45852 0.55154 0.0
H2863 H 0.0417 0.45492 0.46755 0.0
H2864 H 0.06943 0.43641 0.47449 0.0
H2865 H 0.09419 0.4826 0.50605 0.0
H2866 H 0.06619 0.50117 0.49955 0.0
H2867 H 0.09187 0.45282 0.52709 0.0
H2868 H 0.1153 0.46521 0.46571 0.0
H2869 H 0.11433 0.46793 0.43113 0.0
H2870 H 0.10211 0.40935 0.42539 0.0
H2871 H 0.10273 0.40632 0.45996 0.0
C2872 C 0.16657 0.39972 0.53665 0.0
C2873 C 0.16546 0.38086 0.5311 0.0
C2874 C 0.15215 0.4119 0.53185 0.0
C2875 C 0.13642 0.40542 0.52136 0.0
C2876 C 0.13476 0.3864 0.51666 0.0
C2877 C 0.14912 0.37414 0.52165 0.0
C2878 C 0.12263 0.4188 0.51392 0.0
C2879 C 0.12105 0.42044 0.4943 0.0
C2880 C 0.11227 0.43083 0.52591 0.0
C2881 C 0.11298 0.42941 0.54675 0.0
C2882 C 0.10896 0.4124 0.55553 0.0
C2883 C 0.10944 0.41123 0.57518 0.0
C2884 C 0.11381 0.42702 0.58622 0.0
C2885 C 0.1177 0.44401 0.57763 0.0
C2886 C 0.11725 0.44525 0.55799 0.0
C2887 C 0.05325 0.46139 0.4755 0.0
C2888 C 0.05154 0.47943 0.48328 0.0
C2889 C 0.06918 0.45076 0.47941 0.0
C2890 C 0.08382 0.45807 0.49091 0.0
C2891 C 0.08295 0.47665 0.49726 0.0
C2892 C 0.06697 0.48728 0.49343 0.0
C2893 C 0.0986 0.44559 0.49826 0.0
C2894 C 0.10041 0.4441 0.5179 0.0
C2895 C 0.1093 0.43382 0.48628 0.0
C2896 C 0.10891 0.43557 0.46546 0.0
C2897 C 0.11224 0.45293 0.45709 0.0
C2898 C 0.11179 0.45452 0.43748 0.0
C2899 C 0.10812 0.43883 0.42607 0.0
C2900 C 0.10494 0.4215 0.43425 0.0
C2901 C 0.10536 0.41983 0.45385 0.0
H2902 H 0.10778 0.44009 0.41089 0.0
H2903 H 0.11413 0.42609 0.60143 0.0
H2904 H 0.89179 0.95263 0.713 0.0
H2905 H 0.86864 0.9272 0.7074 0.0
H2906 H 0.83345 0.94891 0.75207 0.0
H2907 H 0.85614 0.97455 0.75749 0.0
H2908 H 0.84778 0.90715 0.75155 0.0
H2909 H 0.81533 0.95613 0.71663 0.0
H2910 H 0.81437 0.9797 0.69178 0.0
H2911 H 0.82664 0.93772 0.64991 0.0
H2912 H 0.82795 0.91394 0.6746 0.0
H2913 H 0.76423 0.85792 0.75822 0.0
H2914 H 0.78562 0.88455 0.75432 0.0
H2915 H 0.79982 0.86493 0.69836 0.0
H2916 H 0.77795 0.8383 0.70201 0.0
H2917 H 0.79911 0.90336 0.70074 0.0
H2918 H 0.82825 0.85385 0.73264 0.0
H2919 H 0.83093 0.82882 0.75583 0.0
H2920 H 0.8285 0.86913 0.8011 0.0
H2921 H 0.82547 0.8944 0.77819 0.0
C2922 C 0.87903 0.95205 0.7215 0.0
C2923 C 0.87576 0.96553 0.7357 0.0
C2924 C 0.86586 0.9376 0.71824 0.0
C2925 C 0.84945 0.93634 0.72932 0.0
C2926 C 0.84606 0.94981 0.74337 0.0
C2927 C 0.859 0.96443 0.7464 0.0
C2928 C 0.83624 0.92039 0.72715 0.0
C2929 C 0.83705 0.90633 0.74054 0.0
C2930 C 0.8229 0.91906 0.71227 0.0
C2931 C 0.82199 0.93333 0.69747 0.0
C2932 C 0.81804 0.95197 0.70216 0.0
C2933 C 0.81737 0.96535 0.68809 0.0
C2934 C 0.82051 0.96022 0.66928 0.0
C2935 C 0.82426 0.94168 0.66449 0.0
C2936 C 0.82495 0.92825 0.67851 0.0
C2937 C 0.7716 0.85945 0.74493 0.0
C2938 C 0.76969 0.84591 0.73052 0.0
C2939 C 0.78383 0.87464 0.74273 0.0
C2940 C 0.79463 0.87638 0.72625 0.0
C2941 C 0.79168 0.8637 0.71123 0.0
C2942 C 0.7792 0.84854 0.71334 0.0
C2943 C 0.81012 0.89046 0.72565 0.0
C2944 C 0.80992 0.90405 0.71168 0.0
C2945 C 0.82438 0.89114 0.73978 0.0
C2946 C 0.82649 0.87603 0.75367 0.0
C2947 C 0.82816 0.85738 0.74754 0.0
C2948 C 0.82975 0.84314 0.76063 0.0
C2949 C 0.82985 0.84738 0.77992 0.0
C2950 C 0.82841 0.86587 0.78615 0.0
C2951 C 0.82677 0.88016 0.77311 0.0
H2952 H 0.83108 0.83634 0.79003 0.0
H2953 H 0.81999 0.9706 0.65841 0.0
H2954 H 0.69407 0.13194 0.4996 0.0
H2955 H 0.66445 0.12278 0.51519 0.0
H2956 H 0.67729 0.06488 0.50502 0.0
H2957 H 0.70658 0.07389 0.4891 0.0
H2958 H 0.6414 0.07068 0.49853 0.0
H2959 H 0.68536 0.08585 0.54784 0.0
H2960 H 0.70866 0.10528 0.56555 0.0
H2961 H 0.66585 0.14605 0.5766 0.0
H2962 H 0.64236 0.12703 0.55862 0.0
H2963 H 0.57704 0.03039 0.55897 0.0
H2964 H 0.60929 0.0434 0.55626 0.0
H2965 H 0.58621 0.09688 0.54284 0.0
H2966 H 0.55402 0.08378 0.54489 0.0
H2967 H 0.62797 0.09297 0.56377 0.0
H2968 H 0.58732 0.07861 0.50677 0.0
H2969 H 0.56482 0.05735 0.49007 0.0
H2970 H 0.60387 0.01235 0.49588 0.0
H2971 H 0.62645 0.03333 0.51285 0.0
C2972 C 0.69042 0.11727 0.50044 0.0
C2973 C 0.70268 0.10362 0.49324 0.0
C2974 C 0.67361 0.11206 0.50952 0.0
C2975 C 0.66893 0.09315 0.51162 0.0
C2976 C 0.68073 0.07955 0.50367 0.0
C2977 C 0.69743 0.08473 0.49453 0.0
C2978 C 0.65172 0.0874 0.52205 0.0
C2979 C 0.63865 0.07545 0.51285 0.0
C2980 C 0.64807 0.09363 0.54077 0.0
C2981 C 0.66213 0.10509 0.5517 0.0
C2982 C 0.68094 0.09903 0.5539 0.0
C2983 C 0.69419 0.10997 0.56401 0.0
C2984 C 0.68875 0.12691 0.57216 0.0
C2985 C 0.67004 0.13293 0.57025 0.0
C2986 C 0.65676 0.12208 0.5601 0.0
C2987 C 0.57888 0.04515 0.55649 0.0
C2988 C 0.56323 0.05612 0.55197 0.0
C2989 C 0.59727 0.05256 0.55497 0.0
C2990 C 0.6 0.07103 0.54927 0.0
C2991 C 0.58431 0.08265 0.54741 0.0
C2992 C 0.56596 0.07515 0.54851 0.0
C2993 C 0.61795 0.07643 0.54013 0.0
C2994 C 0.63098 0.08827 0.5495 0.0
C2995 C 0.62184 0.06993 0.52166 0.0
C2996 C 0.60844 0.05745 0.51119 0.0
C2997 C 0.59102 0.06415 0.50458 0.0
C2998 C 0.57827 0.05217 0.49506 0.0
C2999 C 0.5829 0.03351 0.49196 0.0
C3000 C 0.60029 0.0268 0.49833 0.0
C3001 C 0.61307 0.03872 0.50788 0.0
H3002 H 0.57305 0.02425 0.48458 0.0
H3003 H 0.69902 0.13534 0.58 0.0
H3004 H 0.16836 0.46217 0.78652 0.0
H3005 H 0.1936 0.44092 0.79546 0.0
H3006 H 0.15634 0.39399 0.78302 0.0
H3007 H 0.13088 0.41515 0.77499 0.0
H3008 H 0.17821 0.38546 0.81074 0.0
H3009 H 0.18778 0.41366 0.7494 0.0
H3010 H 0.19255 0.44007 0.72802 0.0
H3011 H 0.24261 0.45709 0.7589 0.0
H3012 H 0.23798 0.43087 0.78059 0.0
H3013 H 0.24225 0.33027 0.74716 0.0
H3014 H 0.22769 0.35985 0.75485 0.0
H3015 H 0.23959 0.35196 0.81388 0.0
H3016 H 0.25366 0.32177 0.80632 0.0
H3017 H 0.23536 0.39187 0.77036 0.0
H3018 H 0.20164 0.36784 0.83906 0.0
H3019 H 0.19395 0.33886 0.85588 0.0
H3020 H 0.1877 0.30937 0.80301 0.0
H3021 H 0.19515 0.33821 0.78592 0.0
C3022 C 0.16549 0.44731 0.78606 0.0
C3023 C 0.14779 0.44025 0.77979 0.0
C3024 C 0.17991 0.4352 0.79115 0.0
C3025 C 0.17701 0.41586 0.78951 0.0
C3026 C 0.15894 0.40886 0.7844 0.0
C3027 C 0.1444 0.42096 0.7797 0.0
C3028 C 0.19308 0.40283 0.79099 0.0
C3029 C 0.19086 0.38701 0.80215 0.0
C3030 C 0.20959 0.40479 0.77974 0.0
C3031 C 0.2124 0.4205 0.76673 0.0
C3032 C 0.19973 0.42312 0.75168 0.0
C3033 C 0.20241 0.43803 0.73951 0.0
C3034 C 0.21784 0.45029 0.74214 0.0
C3035 C 0.23064 0.44762 0.75692 0.0
C3036 C 0.22799 0.43274 0.76915 0.0
C3037 C 0.24213 0.33492 0.76177 0.0
C3038 C 0.24876 0.32347 0.77617 0.0
C3039 C 0.23386 0.35194 0.76615 0.0
C3040 C 0.23221 0.35796 0.78498 0.0
C3041 C 0.24037 0.34738 0.79928 0.0
C3042 C 0.24845 0.33017 0.79492 0.0
C3043 C 0.22002 0.37411 0.78939 0.0
C3044 C 0.22305 0.39061 0.77948 0.0
C3045 C 0.20388 0.37244 0.80118 0.0
C3046 C 0.1992 0.35509 0.81127 0.0
C3047 C 0.1986 0.35516 0.83106 0.0
C3048 C 0.19428 0.33877 0.84062 0.0
C3049 C 0.19042 0.32227 0.83052 0.0
C3050 C 0.19077 0.32214 0.81082 0.0
C3051 C 0.19504 0.33849 0.80119 0.0
H3052 H 0.18711 0.30959 0.83795 0.0
H3053 H 0.2199 0.46183 0.7327 0.0
H3054 H 0.3699 0.59337 0.30234 0.0
H3055 H 0.34503 0.61646 0.30684 0.0
H3056 H 0.30275 0.57618 0.28806 0.0
H3057 H 0.32747 0.55294 0.28365 0.0
H3058 H 0.30539 0.60834 0.26644 0.0
H3059 H 0.29943 0.59196 0.33115 0.0
H3060 H 0.31078 0.58549 0.36324 0.0
H3061 H 0.33277 0.6414 0.36871 0.0
H3062 H 0.32181 0.64814 0.33653 0.0
H3063 H 0.23494 0.67515 0.26463 0.0
H3064 H 0.25039 0.64689 0.27509 0.0
H3065 H 0.2958 0.68003 0.30004 0.0
H3066 H 0.2802 0.70843 0.29004 0.0
H3067 H 0.2882 0.6491 0.32078 0.0
H3068 H 0.30056 0.66407 0.25624 0.0
H3069 H 0.29211 0.67189 0.22358 0.0
H3070 H 0.26168 0.6199 0.21725 0.0
H3071 H 0.26977 0.61188 0.24998 0.0
C3072 C 0.35525 0.5893 0.2996 0.0
C3073 C 0.35063 0.57146 0.29238 0.0
C3074 C 0.34106 0.60245 0.30232 0.0
C3075 C 0.32211 0.59796 0.29779 0.0
C3076 C 0.31732 0.57982 0.29169 0.0
C3077 C 0.33146 0.56661 0.28915 0.0
C3078 C 0.30804 0.6129 0.29643 0.0
C3079 C 0.30121 0.61695 0.27841 0.0
C3080 C 0.3033 0.62449 0.31196 0.0
C3081 C 0.30991 0.62051 0.33134 0.0
C3082 C 0.30683 0.60283 0.33912 0.0
C3083 C 0.31317 0.59913 0.35735 0.0
C3084 C 0.32252 0.61301 0.368 0.0
C3085 C 0.32553 0.63065 0.36045 0.0
C3086 C 0.31923 0.63443 0.34222 0.0
C3087 C 0.24807 0.67645 0.2726 0.0
C3088 C 0.25656 0.69397 0.27622 0.0
C3089 C 0.25682 0.6603 0.27862 0.0
C3090 C 0.27437 0.66141 0.28803 0.0
C3091 C 0.28225 0.67891 0.29278 0.0
C3092 C 0.27338 0.69511 0.28695 0.0
C3093 C 0.28558 0.64443 0.2908 0.0
C3094 C 0.29203 0.64016 0.30894 0.0
C3095 C 0.29039 0.63277 0.27532 0.0
C3096 C 0.28558 0.63748 0.25561 0.0
C3097 C 0.29196 0.65437 0.24791 0.0
C3098 C 0.28725 0.65883 0.22939 0.0
C3099 C 0.27631 0.64643 0.21837 0.0
C3100 C 0.27011 0.62951 0.22582 0.0
C3101 C 0.27476 0.62499 0.24436 0.0
H3102 H 0.27267 0.6499 0.20403 0.0
H3103 H 0.32742 0.61011 0.38211 0.0
H3104 H 0.47964 0.70858 0.56032 0.0
H3105 H 0.47163 0.67653 0.55089 0.0
H3106 H 0.52935 0.66031 0.56175 0.0
H3107 H 0.53739 0.69224 0.57176 0.0
H3108 H 0.50637 0.64109 0.52838 0.0
H3109 H 0.50577 0.65818 0.59685 0.0
H3110 H 0.49443 0.67826 0.62294 0.0
H3111 H 0.43656 0.66512 0.60788 0.0
H3112 H 0.44759 0.64525 0.58146 0.0
H3113 H 0.51516 0.55056 0.55511 0.0
H3114 H 0.51638 0.58444 0.55626 0.0
H3115 H 0.45545 0.58587 0.56286 0.0
H3116 H 0.45408 0.55171 0.5618 0.0
H3117 H 0.47372 0.61349 0.58358 0.0
H3118 H 0.47117 0.59251 0.52087 0.0
H3119 H 0.47829 0.57366 0.49246 0.0
H3120 H 0.53577 0.59456 0.49299 0.0
H3121 H 0.52908 0.61339 0.52158 0.0
C3122 C 0.49083 0.69837 0.55997 0.0
C3123 C 0.50909 0.70279 0.56701 0.0
C3124 C 0.4862 0.68008 0.55461 0.0
C3125 C 0.49987 0.66617 0.55585 0.0
C3126 C 0.51866 0.67097 0.56071 0.0
C3127 C 0.52321 0.68916 0.56646 0.0
C3128 C 0.49403 0.64642 0.55562 0.0
C3129 C 0.49929 0.63498 0.54041 0.0
C3130 C 0.48401 0.63876 0.57099 0.0
C3131 C 0.47749 0.65044 0.58707 0.0
C3132 C 0.49063 0.65972 0.599 0.0
C3133 C 0.48427 0.67104 0.61386 0.0
C3134 C 0.46479 0.67299 0.61703 0.0
C3135 C 0.45164 0.66361 0.60538 0.0
C3136 C 0.45794 0.65234 0.59046 0.0
C3137 C 0.50204 0.55804 0.55726 0.0
C3138 C 0.48449 0.54851 0.55812 0.0
C3139 C 0.50276 0.57739 0.55778 0.0
C3140 C 0.48594 0.58757 0.55906 0.0
C3141 C 0.46854 0.57817 0.56163 0.0
C3142 C 0.46781 0.5587 0.56116 0.0
C3143 C 0.48676 0.60793 0.55665 0.0
C3144 C 0.48053 0.61954 0.57136 0.0
C3145 C 0.49531 0.6158 0.54051 0.0
C3146 C 0.49963 0.60432 0.52345 0.0
C3147 C 0.48538 0.59298 0.51504 0.0
C3148 C 0.48932 0.58233 0.49888 0.0
C3149 C 0.50744 0.58297 0.4909 0.0
C3150 C 0.52171 0.59415 0.49916 0.0
C3151 C 0.51785 0.60484 0.51533 0.0
H3152 H 0.51039 0.57484 0.4783 0.0
H3153 H 0.45987 0.68169 0.62856 0.0
H3154 H 0.57931 0.20889 0.88329 0.0
H3155 H 0.60234 0.19179 0.8639 0.0
H3156 H 0.58738 0.22508 0.81603 0.0
H3157 H 0.56377 0.24117 0.83495 0.0
H3158 H 0.59373 0.19195 0.80397 0.0
H3159 H 0.62709 0.23533 0.84847 0.0
H3160 H 0.63614 0.24619 0.8805 0.0
H3161 H 0.65771 0.19204 0.89271 0.0
H3162 H 0.64864 0.18086 0.86077 0.0
H3163 H 0.66917 0.23869 0.76359 0.0
H3164 H 0.64191 0.22467 0.77955 0.0
H3165 H 0.6756 0.17711 0.79361 0.0
H3166 H 0.70285 0.19081 0.77702 0.0
H3167 H 0.66076 0.19997 0.82464 0.0
H3168 H 0.63894 0.16515 0.77206 0.0
H3169 H 0.63128 0.15854 0.73868 0.0
H3170 H 0.58882 0.20091 0.73995 0.0
H3171 H 0.59641 0.20801 0.77324 0.0
C3172 C 0.581 0.21242 0.86859 0.0
C3173 C 0.57007 0.22648 0.86059 0.0
C3174 C 0.59405 0.20262 0.85753 0.0
C3175 C 0.59676 0.20726 0.83854 0.0
C3176 C 0.58547 0.22108 0.83057 0.0
C3177 C 0.57213 0.23044 0.84144 0.0
C3178 C 0.61241 0.19937 0.82712 0.0
C3179 C 0.60841 0.19352 0.8085 0.0
C3180 C 0.63155 0.20052 0.83328 0.0
C3181 C 0.63698 0.20721 0.85241 0.0
C3182 C 0.63368 0.22574 0.85805 0.0
C3183 C 0.63881 0.23195 0.87616 0.0
C3184 C 0.64743 0.21979 0.88866 0.0
C3185 C 0.65098 0.20142 0.88304 0.0
C3186 C 0.64585 0.19514 0.86495 0.0
C3187 C 0.67057 0.225 0.76959 0.0
C3188 C 0.68806 0.21588 0.76926 0.0
C3189 C 0.65499 0.21693 0.77853 0.0
C3190 C 0.6568 0.19982 0.7876 0.0
C3191 C 0.67395 0.1902 0.78646 0.0
C3192 C 0.68944 0.19807 0.77705 0.0
C3193 C 0.642 0.19436 0.80114 0.0
C3194 C 0.64613 0.1975 0.82027 0.0
C3195 C 0.62303 0.1913 0.79528 0.0
C3196 C 0.61825 0.18708 0.77522 0.0
C3197 C 0.62804 0.17313 0.76521 0.0
C3198 C 0.6237 0.16929 0.74629 0.0
C3199 C 0.60956 0.17928 0.7372 0.0
C3200 C 0.59974 0.19314 0.74702 0.0
C3201 C 0.60402 0.19705 0.76594 0.0
H3202 H 0.60623 0.17629 0.72255 0.0
H3203 H 0.6514 0.22462 0.90267 0.0
H3204 H 0.95909 0.3031 0.07648 0.0
H3205 H 0.96703 0.32978 0.05679 0.0
H3206 H 0.01609 0.30105 0.03543 0.0
H3207 H 0.00783 0.274 0.05449 0.0
H3208 H 0.01527 0.34018 0.06295 0.0
H3209 H 0.00027 0.30875 0.00343 0.0
H3210 H 0.97915 0.29063 0.982 0.0
H3211 H 0.93733 0.33352 0.98563 0.0
H3212 H 0.95809 0.35176 0.00735 0.0
H3213 H 0.04453 0.42725 0.02913 0.0
H3214 H 0.0419 0.39321 0.03014 0.0
H3215 H 0.98198 0.39638 0.01727 0.0
H3216 H 0.98493 0.43005 0.01488 0.0
H3217 H -0.0068 0.36659 0.00272 0.0
H3218 H 0.00193 0.39502 0.06448 0.0
H3219 H 0.01842 0.41363 0.08924 0.0
H3220 H 0.06653 0.3776 0.08553 0.0
H3221 H 0.0504 0.35891 0.06055 0.0
C3222 C 0.97111 0.30219 0.067 0.0
C3223 C 0.98289 0.28657 0.06703 0.0
C3224 C 0.9756 0.31738 0.05575 0.0
C3225 C -0.00794 0.31725 0.04465 0.0
C3226 C 0.00316 0.30122 0.0437 0.0
C3227 C -0.00159 0.28581 0.05459 0.0
C3228 C -0.00055 0.335 0.03738 0.0
C3229 C 0.01091 0.34586 0.04955 0.0
C3230 C -0.00688 0.34242 0.02025 0.0
C3231 C 0.98065 0.33151 0.00718 0.0
C3232 C 0.98648 0.31421 -0.00015 0.0
C3233 C 0.9746 0.30395 0.98759 0.0
C3234 C 0.95689 0.31089 0.9825 0.0
C3235 C 0.95104 0.32814 0.98961 0.0
C3236 C 0.96287 0.33846 0.00187 0.0
C3237 C 0.03093 0.42057 0.02616 0.0
C3238 C 0.0149 0.43122 0.0221 0.0
C3239 C 0.02939 0.40115 0.02683 0.0
C3240 C 0.01161 0.3922 0.0243 0.0
C3241 C -0.00414 0.40286 0.01929 0.0
C3242 C -0.00247 0.42215 0.01801 0.0
C3243 C 0.00883 0.37214 0.02849 0.0
C3244 C -0.00189 0.36085 0.01588 0.0
C3245 C 0.01531 0.36445 0.04559 0.0
C3246 C 0.02508 0.37575 0.06048 0.0
C3247 C 0.01608 0.39117 0.06885 0.0
C3248 C 0.02536 0.40171 0.08293 0.0
C3249 C 0.04354 0.39685 0.0889 0.0
C3250 C 0.05247 0.38139 0.08084 0.0
C3251 C 0.04328 0.37083 0.06672 0.0
H3252 H 0.05069 0.40501 0.09982 0.0
H3253 H 0.94771 0.30293 0.97301 0.0
H3254 H -0.0074 0.79223 0.33739 0.0
H3255 H 0.96124 0.79908 0.32465 0.0
H3256 H 0.93549 0.76154 0.36439 0.0
H3257 H 0.96672 0.75517 0.37763 0.0
H3258 H 0.93957 0.77628 0.30665 0.0
H3259 H 0.89025 0.77136 0.37273 0.0
H3260 H 0.89079 0.78109 0.40623 0.0
H3261 H 0.93174 0.82411 0.39408 0.0
H3262 H 0.93125 0.81484 0.36046 0.0
H3263 H 0.84805 0.74298 0.28281 0.0
H3264 H 0.87998 0.74954 0.29513 0.0
H3265 H 0.86154 0.80303 0.31627 0.0
H3266 H 0.82949 0.79625 0.30465 0.0
H3267 H 0.88006 0.78729 0.34221 0.0
H3268 H 0.89223 0.79887 0.27787 0.0
H3269 H 0.89199 0.79311 0.24351 0.0
H3270 H 0.92593 0.74448 0.25065 0.0
H3271 H 0.92615 0.7498 0.28509 0.0
C3272 C 0.98019 0.78576 0.34368 0.0
C3273 C 0.98208 0.77307 0.35842 0.0
C3274 C 0.9623 0.78966 0.33636 0.0
C3275 C 0.94601 0.78083 0.34353 0.0
C3276 C 0.94781 0.76879 0.35882 0.0
C3277 C 0.96568 0.76509 0.36635 0.0
C3278 C 0.92747 0.78267 0.33387 0.0
C3279 C 0.92657 0.77888 0.3144 0.0
C3280 C 0.91057 0.78652 0.34387 0.0
C3281 C 0.9108 0.7923 0.36407 0.0
C3282 C 0.8993 0.78297 0.37718 0.0
C3283 C 0.89961 0.78839 0.3962 0.0
C3284 C 0.91133 0.80318 0.40228 0.0
C3285 C 0.92272 0.81262 0.38935 0.0
C3286 C 0.92244 0.80726 0.37032 0.0
C3287 C 0.85089 0.75622 0.28989 0.0
C3288 C 0.8363 0.76905 0.29289 0.0
C3289 C 0.86915 0.76 0.29685 0.0
C3290 C 0.87319 0.77686 0.30651 0.0
C3291 C 0.85874 0.78992 0.30895 0.0
C3292 C 0.84045 0.78602 0.30228 0.0
C3293 C 0.89213 0.78032 0.31513 0.0
C3294 C 0.89309 0.78503 0.3344 0.0
C3295 C 0.90913 0.77794 0.30482 0.0
C3296 C 0.9091 0.77468 0.28409 0.0
C3297 C 0.89954 0.78688 0.27213 0.0
C3298 C 0.89942 0.7837 0.25263 0.0
C3299 C 0.90891 0.76842 0.24491 0.0
C3300 C 0.91858 0.75631 0.25666 0.0
C3301 C 0.91873 0.75941 0.27617 0.0
H3302 H 0.9088 0.76599 0.22981 0.0
H3303 H 0.91156 0.80734 0.41702 0.0
H3304 H 0.54403 0.33332 0.88459 0.0
H3305 H 0.5353 0.36241 0.90023 0.0
H3306 H 0.52224 0.33265 0.95102 0.0
H3307 H 0.53055 0.30338 0.93535 0.0
H3308 H 0.49286 0.35187 0.9403 0.0
H3309 H 0.55884 0.36491 0.94911 0.0
H3310 H 0.59266 0.36911 0.94106 0.0
H3311 H 0.57847 0.41283 0.90317 0.0
H3312 H 0.54448 0.40868 0.91073 0.0
H3313 H 0.47783 0.43237 -0.00136 0.0
H3314 H 0.48605 0.40308 0.98308 0.0
H3315 H 0.49439 0.43169 0.93071 0.0
H3316 H 0.48633 0.46114 0.94616 0.0
H3317 H 0.52603 0.41323 0.94227 0.0
H3318 H 0.45939 0.39956 0.93456 0.0
H3319 H 0.42612 0.39579 0.94486 0.0
H3320 H 0.44269 0.35337 0.98329 0.0
H3321 H 0.47611 0.35706 0.97341 0.0
C3322 C 0.53982 0.33299 0.89926 0.0
C3323 C 0.53769 0.31599 0.90864 0.0
C3324 C 0.53487 0.34968 0.9082 0.0
C3325 C 0.52798 0.34967 0.92675 0.0
C3326 C 0.52736 0.33292 0.93664 0.0
C3327 C 0.53218 0.31621 0.92767 0.0
C3328 C 0.5192 0.36658 0.93491 0.0
C3329 C 0.50025 0.36524 0.94103 0.0
C3330 C 0.52864 0.3841 0.93531 0.0
C3331 C 0.54905 0.3863 0.93032 0.0
C3332 C 0.56288 0.37525 0.93887 0.0
C3333 C 0.5821 0.37767 0.93444 0.0
C3334 C 0.58771 0.39119 0.92158 0.0
C3335 C 0.5741 0.40232 0.9131 0.0
C3336 C 0.55485 0.39994 0.91745 0.0
C3337 C 0.48084 0.43238 0.98368 0.0
C3338 C 0.48174 0.44915 0.97372 0.0
C3339 C 0.48551 0.4156 0.9748 0.0
C3340 C 0.49101 0.4153 0.95581 0.0
C3341 C 0.4903 0.43171 0.94542 0.0
C3342 C 0.48557 0.44851 0.95427 0.0
C3343 C 0.49977 0.39846 0.94757 0.0
C3344 C 0.5187 0.39985 0.94146 0.0
C3345 C 0.4904 0.38095 0.94738 0.0
C3346 C 0.47029 0.37871 0.95335 0.0
C3347 C 0.45597 0.38954 0.94532 0.0
C3348 C 0.43707 0.38739 0.95106 0.0
C3349 C 0.4323 0.37438 0.96475 0.0
C3350 C 0.44641 0.36346 0.9727 0.0
C3351 C 0.46533 0.36556 0.96701 0.0
H3352 H 0.41766 0.37274 0.96917 0.0
H3353 H 0.60261 0.39308 0.91823 0.0
H3354 H 0.91938 0.24999 0.12282 0.0
H3355 H 0.88607 0.24142 0.1284 0.0
H3356 H 0.8989 0.23181 0.18687 0.0
H3357 H 0.93208 0.2403 0.18152 0.0
H3358 H 0.88253 0.20126 0.16841 0.0
H3359 H 0.87331 0.26774 0.17437 0.0
H3360 H 0.87282 0.30043 0.16439 0.0
H3361 H 0.83434 0.28564 0.11935 0.0
H3362 H 0.83497 0.25275 0.12877 0.0
H3363 H 0.80062 0.20001 0.22329 0.0
H3364 H 0.83054 0.20221 0.20628 0.0
H3365 H 0.79995 0.20903 0.15411 0.0
H3366 H 0.76978 0.20689 0.17117 0.0
H3367 H 0.8238 0.23793 0.16166 0.0
H3368 H 0.82933 0.17247 0.15844 0.0
H3369 H 0.82823 0.14014 0.16957 0.0
H3370 H 0.87243 0.15302 0.20974 0.0
H3371 H 0.87362 0.1855 0.19907 0.0
C3372 C 0.91503 0.24648 0.13697 0.0
C3373 C 0.92845 0.24558 0.15168 0.0
C3374 C 0.89599 0.24158 0.1401 0.0
C3375 C 0.89015 0.23579 0.15798 0.0
C3376 C 0.90323 0.23608 0.17292 0.0
C3377 C 0.92218 0.24101 0.16984 0.0
C3378 C 0.87095 0.22777 0.16095 0.0
C3379 C 0.86966 0.20928 0.16702 0.0
C3380 C 0.85418 0.238 0.1582 0.0
C3381 C 0.85448 0.25768 0.15207 0.0
C3382 C 0.86504 0.27136 0.16211 0.0
C3383 C 0.86468 0.28996 0.15659 0.0
C3384 C 0.85362 0.2951 0.14119 0.0
C3385 C 0.84295 0.28164 0.13123 0.0
C3386 C 0.84335 0.26301 0.13663 0.0
C3387 C 0.80024 0.2013 0.2081 0.0
C3388 C 0.78292 0.20347 0.19857 0.0
C3389 C 0.81736 0.20249 0.19836 0.0
C3390 C 0.81745 0.20585 0.17893 0.0
C3391 C 0.80014 0.20643 0.1691 0.0
C3392 C 0.78294 0.20507 0.17885 0.0
C3393 C 0.83545 0.21167 0.16988 0.0
C3394 C 0.83659 0.22971 0.16259 0.0
C3395 C 0.8521 0.20105 0.17148 0.0
C3396 C 0.8515 0.18148 0.17797 0.0
C3397 C 0.83873 0.16845 0.16974 0.0
C3398 C 0.83811 0.15009 0.17595 0.0
C3399 C 0.85024 0.14453 0.19036 0.0
C3400 C 0.86305 0.15734 0.19857 0.0
C3401 C 0.86373 0.17573 0.19241 0.0
H3402 H 0.84974 0.13031 0.19516 0.0
H3403 H 0.85324 0.30952 0.13703 0.0
H3404 H 0.98538 0.70266 0.43201 0.0
H3405 H 0.98092 0.67903 0.45582 0.0
H3406 H 0.02855 0.70186 0.48741 0.0
H3407 H 0.03325 0.72552 0.46343 0.0
H3408 H 0.03425 0.66683 0.47783 0.0
H3409 H 0.98469 0.6983 0.50853 0.0
H3410 H 0.95558 0.71676 0.5119 0.0
H3411 H 0.9229 0.67269 0.4853 0.0
H3412 H 0.95183 0.65407 0.48149 0.0
H3413 H 0.02158 0.57485 0.51458 0.0
H3414 H 0.02449 0.60896 0.51558 0.0
H3415 H 0.97836 0.61251 0.47564 0.0
H3416 H 0.97513 0.57883 0.47484 0.0
H3417 H 0.97492 0.63855 0.5027 0.0
H3418 H 0.02609 0.61428 0.46225 0.0
H3419 H 0.05514 0.59617 0.45654 0.0
H3420 H 0.08424 0.62747 0.5002 0.0
H3421 H 0.05527 0.64563 0.50628 0.0
C3422 C -0.00547 0.70304 0.44431 0.0
C3423 C 0.00988 0.71569 0.44568 0.0
C3424 C -0.00813 0.6896 0.45804 0.0
C3425 C 0.00442 0.68867 0.47342 0.0
C3426 C 0.01871 0.70235 0.47567 0.0
C3427 C 0.02138 0.71583 0.46193 0.0
C3428 C 0.0048 0.67148 0.48463 0.0
C3429 C 0.02143 0.6609 0.48389 0.0
C3430 C 0.98806 0.66369 0.49241 0.0
C3431 C 0.9705 0.67476 0.49473 0.0
C3432 C 0.97132 0.69257 0.50331 0.0
C3433 C 0.95483 0.70307 0.5053 0.0
C3434 C 0.9374 0.6959 0.49882 0.0
C3435 C 0.93641 0.67821 0.49035 0.0
C3436 C 0.95285 0.66765 0.48831 0.0
C3437 C 0.01209 0.58295 0.50602 0.0
C3438 C -0.00179 0.57413 0.49455 0.0
C3439 C 0.01371 0.6024 0.50669 0.0
C3440 C 0.00161 0.61326 0.49571 0.0
C3441 C 0.98769 0.60444 0.48441 0.0
C3442 C 0.98599 0.58513 0.48384 0.0
C3443 C 0.00396 0.63372 0.49463 0.0
C3444 C 0.9879 0.64485 0.49738 0.0
C3445 C 0.02114 0.64204 0.48852 0.0
C3446 C 0.03848 0.6311 0.48489 0.0
C3447 C 0.03865 0.61719 0.47072 0.0
C3448 C 0.0551 0.60694 0.4674 0.0
C3449 C 0.0715 0.61062 0.47805 0.0
C3450 C 0.07151 0.62459 0.49201 0.0
C3451 C 0.05509 0.63486 0.49539 0.0
H3452 H 0.08423 0.60267 0.47546 0.0
H3453 H 0.92465 0.70406 0.50037 0.0
H3454 H 0.5722 0.76402 0.60214 0.0
H3455 H 0.59983 0.77244 0.62177 0.0
H3456 H 0.56695 0.8148 0.65014 0.0
H3457 H 0.53904 0.80535 0.63157 0.0
H3458 H 0.62246 0.79915 0.63128 0.0
H3459 H 0.57522 0.81544 0.69627 0.0
H3460 H 0.54309 0.80788 0.70808 0.0
H3461 H 0.54243 0.75697 0.67544 0.0
H3462 H 0.57464 0.7641 0.66366 0.0
H3463 H 0.68652 0.82286 0.70408 0.0
H3464 H 0.65879 0.82502 0.68348 0.0
H3465 H 0.6357 0.77441 0.7068 0.0
H3466 H 0.66298 0.77253 0.72786 0.0
H3467 H 0.60826 0.79616 0.69969 0.0
H3468 H 0.66188 0.7739 0.66493 0.0
H3469 H 0.69469 0.77447 0.65272 0.0
H3470 H 0.68389 0.82586 0.62483 0.0
H3471 H 0.65098 0.8256 0.63689 0.0
C3472 C 0.5711 0.77539 0.61229 0.0
C3473 C 0.55362 0.78394 0.61563 0.0
C3474 C 0.58685 0.78023 0.62347 0.0
C3475 C 0.58527 0.79389 0.6378 0.0
C3476 C 0.56831 0.80382 0.63959 0.0
C3477 C 0.55245 0.79854 0.62891 0.0
C3478 C 0.60048 0.7962 0.65217 0.0
C3479 C 0.61934 0.79865 0.64623 0.0
C3480 C 0.59649 0.79499 0.6717 0.0
C3481 C 0.57723 0.79043 0.67892 0.0
C3482 C 0.56823 0.80261 0.69168 0.0
C3483 C 0.55001 0.79839 0.69836 0.0
C3484 C 0.5407 0.78198 0.69246 0.0
C3485 C 0.54962 0.7697 0.67994 0.0
C3486 C 0.56786 0.77383 0.67326 0.0
C3487 C 0.67531 0.81243 0.70511 0.0
C3488 C 0.67701 0.79741 0.71743 0.0
C3489 C 0.65956 0.81361 0.69323 0.0
C3490 C 0.64545 0.79961 0.69325 0.0
C3491 C 0.64648 0.78533 0.70648 0.0
C3492 C 0.66208 0.78429 0.71855 0.0
C3493 C 0.63023 0.7991 0.67882 0.0
C3494 C 0.61135 0.79698 0.68475 0.0
C3495 C 0.63432 0.79963 0.65928 0.0
C3496 C 0.65408 0.79986 0.65202 0.0
C3497 C 0.66655 0.78539 0.6563 0.0
C3498 C 0.68515 0.78564 0.64939 0.0
C3499 C 0.69141 0.80026 0.63814 0.0
C3500 C 0.67903 0.81458 0.63361 0.0
C3501 C 0.6604 0.81437 0.64045 0.0
H3502 H 0.70585 0.80049 0.6329 0.0
H3503 H 0.52658 0.77877 0.69762 0.0
H3504 H 0.62381 0.4932 0.68194 0.0
H3505 H 0.60281 0.48163 0.65655 0.0
H3506 H 0.56121 0.46471 0.69766 0.0
H3507 H 0.58194 0.47635 0.72303 0.0
H3508 H 0.56552 0.43881 0.66623 0.0
H3509 H 0.55573 0.50478 0.68039 0.0
H3510 H 0.56678 0.53737 0.68437 0.0
H3511 H 0.58706 0.53717 0.62733 0.0
H3512 H 0.57636 0.50447 0.62311 0.0
H3513 H 0.48167 0.47524 0.60534 0.0
H3514 H 0.50312 0.47426 0.6323 0.0
H3515 H 0.54081 0.43856 0.60089 0.0
H3516 H 0.51941 0.43947 0.57367 0.0
H3517 H 0.53964 0.48915 0.627 0.0
H3518 H 0.56704 0.41469 0.63657 0.0
H3519 H 0.55568 0.38216 0.63299 0.0
H3520 H 0.49835 0.39946 0.64303 0.0
H3521 H 0.50939 0.43204 0.64693 0.0
C3522 C 0.61028 0.48681 0.68555 0.0
C3523 C 0.60435 0.48592 0.70441 0.0
C3524 C 0.59838 0.48015 0.67107 0.0
C3525 C 0.5805 0.47236 0.67531 0.0
C3526 C 0.57501 0.47058 0.69416 0.0
C3527 C 0.58678 0.47742 0.7086 0.0
C3528 C 0.56658 0.46812 0.6602 0.0
C3529 C 0.55991 0.44974 0.65752 0.0
C3530 C 0.55922 0.48245 0.64905 0.0
C3531 C 0.56544 0.50215 0.65151 0.0
C3532 C 0.56268 0.51165 0.66875 0.0
C3533 C 0.56885 0.53014 0.67104 0.0
C3534 C 0.57767 0.53932 0.65613 0.0
C3535 C 0.58027 0.53004 0.63888 0.0
C3536 C 0.57414 0.51153 0.63653 0.0
C3537 C 0.49423 0.46673 0.60428 0.0
C3538 C 0.49902 0.45774 0.58722 0.0
C3539 C 0.50648 0.46621 0.61971 0.0
C3540 C 0.52361 0.45656 0.61844 0.0
C3541 C 0.5276 0.44607 0.6021 0.0
C3542 C 0.51533 0.44661 0.58658 0.0
C3543 C 0.53836 0.45982 0.63302 0.0
C3544 C 0.54529 0.47811 0.63554 0.0
C3545 C 0.54586 0.44538 0.64396 0.0
C3546 C 0.53904 0.42583 0.64182 0.0
C3547 C 0.55202 0.41154 0.63807 0.0
C3548 C 0.54563 0.39309 0.63598 0.0
C3549 C 0.52629 0.38876 0.63771 0.0
C3550 C 0.51331 0.40285 0.6416 0.0
C3551 C 0.51962 0.42132 0.64371 0.0
H3552 H 0.52138 0.37447 0.63609 0.0
H3553 H 0.58244 0.55364 0.65793 0.0
H3554 H 0.74597 0.35067 0.95812 0.0
H3555 H 0.74855 0.33398 0.92807 0.0
H3556 H 0.75554 0.38627 0.89948 0.0
H3557 H 0.75174 0.40306 0.92953 0.0
H3558 H 0.73413 0.36628 0.87954 0.0
H3559 H 0.79374 0.35484 0.90781 0.0
H3560 H 0.81641 0.34573 0.93245 0.0
H3561 H 0.7931 0.29014 0.93133 0.0
H3562 H 0.77011 0.29898 0.90685 0.0
H3563 H 0.78209 0.29343 0.81111 0.0
H3564 H 0.78337 0.31509 0.83792 0.0
H3565 H 0.72219 0.31269 0.84214 0.0
H3566 H 0.7208 0.29101 0.81519 0.0
H3567 H 0.77434 0.31044 0.87242 0.0
H3568 H 0.70542 0.35334 0.8592 0.0
H3569 H 0.68883 0.36889 0.83325 0.0
H3570 H 0.74012 0.36893 0.80059 0.0
H3571 H 0.75701 0.35337 0.82629 0.0
C3572 C 0.74817 0.35859 0.94543 0.0
C3573 C 0.74875 0.37814 0.94612 0.0
C3574 C 0.74976 0.34904 0.92825 0.0
C3575 C 0.75265 0.35881 0.91148 0.0
C3576 C 0.75334 0.37839 0.91219 0.0
C3577 C 0.75123 0.38798 0.92935 0.0
C3578 C 0.75427 0.34858 0.8932 0.0
C3579 C 0.74296 0.35409 0.87799 0.0
C3580 C 0.76628 0.33304 0.89088 0.0
C3581 C 0.7801 0.32762 0.90559 0.0
C3582 C 0.79336 0.34071 0.91291 0.0
C3583 C 0.80628 0.33558 0.92683 0.0
C3584 C 0.80617 0.31738 0.93347 0.0
C3585 C 0.79316 0.30424 0.92618 0.0
C3586 C 0.78019 0.30929 0.91226 0.0
C3587 C 0.76888 0.29748 0.81773 0.0
C3588 C 0.75131 0.2905 0.81101 0.0
C3589 C 0.76965 0.30993 0.83303 0.0
C3590 C 0.75288 0.31567 0.84194 0.0
C3591 C 0.7353 0.30874 0.83527 0.0
C3592 C 0.73452 0.29628 0.81993 0.0
C3593 C 0.75387 0.32792 0.85895 0.0
C3594 C 0.76559 0.32269 0.87395 0.0
C3595 C 0.74295 0.34423 0.86076 0.0
C3596 C 0.73243 0.35207 0.84464 0.0
C3597 C 0.71312 0.35656 0.84643 0.0
C3598 C 0.70368 0.36542 0.83179 0.0
C3599 C 0.71346 0.37002 0.81536 0.0
C3600 C 0.73259 0.36542 0.81336 0.0
C3601 C 0.74206 0.35645 0.8279 0.0
H3602 H 0.70621 0.3771 0.80416 0.0
H3603 H 0.81618 0.31344 0.94425 0.0
H3604 H 0.87383 0.53208 0.18537 0.0
H3605 H 0.89488 0.52821 0.15836 0.0
H3606 H 0.86943 0.4743 0.14618 0.0
H3607 H 0.84798 0.47836 0.17313 0.0
H3608 H 0.90766 0.47304 0.15494 0.0
H3609 H 0.86877 0.50493 0.11244 0.0
H3610 H 0.848 0.52934 0.10035 0.0
H3611 H 0.8934 0.56961 0.10621 0.0
H3612 H 0.91445 0.5455 0.11854 0.0
H3613 H 0.98413 0.46718 0.08621 0.0
H3614 H 0.95457 0.46488 0.10411 0.0
H3615 H 0.96229 0.5217 0.1237 0.0
H3616 H -0.0084 0.52423 0.10551 0.0
H3617 H 0.92873 0.51611 0.10503 0.0
H3618 H 0.96501 0.4851 0.15346 0.0
H3619 H 0.98577 0.46054 0.16544 0.0
H3620 H 0.94469 0.41874 0.1484 0.0
H3621 H 0.92378 0.44305 0.13612 0.0
C3622 C 0.87211 0.51984 0.17634 0.0
C3623 C 0.85937 0.50553 0.18119 0.0
C3624 C 0.88412 0.51761 0.16093 0.0
C3625 C 0.88373 0.50093 0.15036 0.0
C3626 C 0.86984 0.48729 0.15417 0.0
C3627 C 0.85753 0.48968 0.16944 0.0
C3628 C 0.90011 0.49661 0.13817 0.0
C3629 C 0.91207 0.48216 0.14368 0.0
C3630 C 0.90589 0.50868 0.1237 0.0
C3631 C 0.89321 0.52335 0.11648 0.0
C3632 C 0.87433 0.519 0.11128 0.0
C3633 C 0.8625 0.53279 0.10434 0.0
C3634 C 0.86937 0.55102 0.10252 0.0
C3635 C 0.8881 0.55548 0.10761 0.0
C3636 C 0.9 0.54174 0.11453 0.0
C3637 C 0.97996 0.47892 0.09498 0.0
C3638 C 0.99006 0.49596 0.09438 0.0
C3639 C 0.96298 0.47762 0.10507 0.0
C3640 C 0.95614 0.49323 0.11493 0.0
C3641 C 0.96724 0.5096 0.11592 0.0
C3642 C 0.98407 0.51097 0.10571 0.0
C3643 C 0.93667 0.49332 0.12265 0.0
C3644 C 0.92414 0.50684 0.1161 0.0
C3645 C 0.9304 0.48046 0.1362 0.0
C3646 C 0.94296 0.46587 0.14363 0.0
C3647 C 0.96049 0.47066 0.1521 0.0
C3648 C 0.97226 0.45679 0.15899 0.0
C3649 C 0.96659 0.43809 0.15761 0.0
C3650 C 0.94909 0.43323 0.14941 0.0
C3651 C 0.93727 0.44705 0.14249 0.0
H3652 H 0.97572 0.42737 0.16296 0.0
H3653 H 0.86018 0.56168 0.09715 0.0
H3654 H 0.75155 0.62283 0.45275 0.0
H3655 H 0.76013 0.64259 0.42609 0.0
H3656 H 0.7151 0.6802 0.44111 0.0
H3657 H 0.70683 0.66094 0.46785 0.0
H3658 H 0.7418 0.65293 0.3955 0.0
H3659 H 0.72747 0.72411 0.43351 0.0
H3660 H 0.73031 0.73796 0.46545 0.0
H3661 H 0.77298 0.69828 0.47945 0.0
H3662 H 0.7706 0.68435 0.44751 0.0
H3663 H 0.72376 0.72099 0.32908 0.0
H3664 H 0.72205 0.70143 0.35681 0.0
H3665 H 0.77461 0.72584 0.37758 0.0
H3666 H 0.77626 0.74577 0.35005 0.0
H3667 H 0.75095 0.72106 0.40549 0.0
H3668 H 0.77427 0.68341 0.35548 0.0
H3669 H 0.77529 0.66913 0.32362 0.0
H3670 H 0.72218 0.64091 0.33374 0.0
H3671 H 0.72066 0.65525 0.36553 0.0
C3672 C 0.74353 0.63533 0.45034 0.0
C3673 C 0.72864 0.64044 0.46247 0.0
C3674 C 0.74842 0.64657 0.43512 0.0
C3675 C 0.73847 0.66304 0.43184 0.0
C3676 C 0.72327 0.66781 0.44364 0.0
C3677 C 0.7185 0.65672 0.45888 0.0
C3678 C 0.7437 0.67531 0.41604 0.0
C3679 C 0.7439 0.6678 0.39766 0.0
C3680 C 0.74705 0.69464 0.41895 0.0
C3681 C 0.74874 0.7031 0.43814 0.0
C3682 C 0.73753 0.7184 0.44336 0.0
C3683 C 0.73905 0.72625 0.46148 0.0
C3684 C 0.75179 0.71898 0.47448 0.0
C3685 C 0.76308 0.70386 0.46938 0.0
C3686 C 0.76163 0.69597 0.45128 0.0
C3687 C 0.73483 0.72241 0.33967 0.0
C3688 C 0.75022 0.73484 0.33729 0.0
C3689 C 0.73391 0.7111 0.35543 0.0
C3690 C 0.74847 0.71184 0.36898 0.0
C3691 C 0.76332 0.72493 0.36718 0.0
C3692 C 0.76419 0.73637 0.35147 0.0
C3693 C 0.74822 0.69879 0.3849 0.0
C3694 C 0.74901 0.70616 0.40331 0.0
C3695 C 0.74641 0.67928 0.38201 0.0
C3696 C 0.74728 0.67054 0.36288 0.0
C3697 C 0.76273 0.67427 0.35087 0.0
C3698 C 0.76341 0.66615 0.33282 0.0
C3699 C 0.74879 0.65415 0.32666 0.0
C3700 C 0.73349 0.65022 0.33853 0.0
C3701 C 0.73271 0.65833 0.35658 0.0
H3702 H 0.74933 0.64788 0.3127 0.0
H3703 H 0.75293 0.72507 0.4885 0.0
H3704 H 0.57953 0.53857 0.80426 0.0
H3705 H 0.57153 0.54026 0.83752 0.0
H3706 H 0.624 0.51323 0.85145 0.0
H3707 H 0.63201 0.51105 0.81786 0.0
H3708 H 0.59493 0.49836 0.87035 0.0
H3709 H 0.61842 0.55983 0.86121 0.0
H3710 H 0.62212 0.58999 0.84544 0.0
H3711 H 0.56298 0.6012 0.8543 0.0
H3712 H 0.55884 0.57098 0.86989 0.0
H3713 H 0.56706 0.51629 0.96695 0.0
H3714 H 0.58671 0.51852 0.93846 0.0
H3715 H 0.53778 0.53579 0.90682 0.0
H3716 H 0.51806 0.53328 0.93498 0.0
H3717 H 0.5722 0.55691 0.90022 0.0
H3718 H 0.54831 0.49306 0.90377 0.0
H3719 H 0.54427 0.46259 0.9189 0.0
H3720 H 0.60485 0.45617 0.92055 0.0
H3721 H 0.60925 0.48677 0.90567 0.0
C3722 C 0.58949 0.53307 0.81434 0.0
C3723 C 0.60645 0.52471 0.80837 0.0
C3724 C 0.58493 0.53416 0.83341 0.0
C3725 C 0.59734 0.52719 0.84701 0.0
C3726 C 0.6143 0.51881 0.84118 0.0
C3727 C 0.61885 0.5176 0.822 0.0
C3728 C 0.5919 0.52798 0.86718 0.0
C3729 C 0.59045 0.51125 0.87706 0.0
C3730 C 0.58587 0.54478 0.87589 0.0
C3731 C 0.58831 0.56308 0.86666 0.0
C3732 C 0.60618 0.56867 0.85971 0.0
C3733 C 0.60836 0.58579 0.8508 0.0
C3734 C 0.5928 0.59749 0.84885 0.0
C3735 C 0.57503 0.59212 0.85583 0.0
C3736 C 0.57276 0.57501 0.86473 0.0
C3737 C 0.5606 0.52081 0.95396 0.0
C3738 C 0.54104 0.52455 0.95312 0.0
C3739 C 0.5718 0.52199 0.93774 0.0
C3740 C 0.56362 0.52724 0.92061 0.0
C3741 C 0.54431 0.53174 0.91996 0.0
C3742 C 0.53307 0.53023 0.93602 0.0
C3743 C 0.57475 0.52727 0.903 0.0
C3744 C 0.57723 0.54415 0.89365 0.0
C3745 C 0.58177 0.51065 0.89483 0.0
C3746 C 0.57912 0.49232 0.90388 0.0
C3747 C 0.56078 0.48525 0.90756 0.0
C3748 C 0.55841 0.46794 0.91604 0.0
C3749 C 0.57429 0.45749 0.92076 0.0
C3750 C 0.59256 0.46431 0.91695 0.0
C3751 C 0.595 0.48164 0.90849 0.0
H3752 H 0.57243 0.44409 0.92733 0.0
H3753 H 0.59452 0.61074 0.84195 0.0
H3754 H 0.75909 0.36809 0.07693 0.0
H3755 H 0.75435 0.34468 0.10088 0.0
H3756 H 0.75529 0.3013 0.05803 0.0
H3757 H 0.75951 0.32483 0.03382 0.0
H3758 H 0.72453 0.29814 0.07731 0.0
H3759 H 0.7894 0.30304 0.09472 0.0
H3760 H 0.82038 0.31748 0.10306 0.0
H3761 H 0.79529 0.34449 0.15117 0.0
H3762 H 0.76416 0.33022 0.14315 0.0
H3763 H 0.71382 0.23254 0.15413 0.0
H3764 H 0.72319 0.24953 0.12599 0.0
H3765 H 0.71472 0.30163 0.15565 0.0
H3766 H 0.70518 0.28491 0.18376 0.0
H3767 H 0.75242 0.29583 0.14146 0.0
H3768 H 0.68653 0.29116 0.12102 0.0
H3769 H 0.65695 0.27412 0.11262 0.0
H3770 H 0.68646 0.2438 0.06927 0.0
H3771 H 0.71629 0.26051 0.07759 0.0
C3772 C 0.75882 0.35354 0.07263 0.0
C3773 C 0.7594 0.34831 0.05347 0.0
C3774 C 0.75623 0.34011 0.08638 0.0
C3775 C 0.75446 0.32119 0.08128 0.0
C3776 C 0.75654 0.31583 0.06228 0.0
C3777 C 0.759 0.32929 0.04847 0.0
C3778 C 0.74763 0.30762 0.09533 0.0
C3779 C 0.73095 0.2973 0.09119 0.0
C3780 C 0.75579 0.30666 0.11353 0.0
C3781 C 0.77439 0.31565 0.11823 0.0
C3782 C 0.79045 0.31218 0.10699 0.0
C3783 C 0.80805 0.32028 0.11171 0.0
C3784 C 0.8098 0.3319 0.12763 0.0
C3785 C 0.79392 0.33548 0.13884 0.0
C3786 C 0.77631 0.32733 0.13426 0.0
C3787 C 0.71333 0.24761 0.15451 0.0
C3788 C 0.70906 0.25736 0.17133 0.0
C3789 C 0.71876 0.25727 0.13842 0.0
C3790 C 0.71995 0.27677 0.13895 0.0
C3791 C 0.71408 0.28654 0.15512 0.0
C3792 C 0.7085 0.27693 0.17113 0.0
C3793 C 0.72916 0.28698 0.1235 0.0
C3794 C 0.74628 0.29654 0.12745 0.0
C3795 C 0.72162 0.28695 0.10506 0.0
C3796 C 0.70369 0.27692 0.10008 0.0
C3797 C 0.68676 0.28073 0.10983 0.0
C3798 C 0.66993 0.27116 0.10505 0.0
C3799 C 0.66984 0.25784 0.09046 0.0
C3800 C 0.68656 0.2541 0.08059 0.0
C3801 C 0.70342 0.26362 0.08532 0.0
H3802 H 0.6568 0.25045 0.08678 0.0
H3803 H 0.82345 0.3381 0.13129 0.0
H3804 H 0.87351 0.4861 0.29756 0.0
H3805 H 0.89054 0.48967 0.32746 0.0
H3806 H 0.94285 0.49996 0.29738 0.0
H3807 H 0.92603 0.49541 0.26744 0.0
H3808 H 0.95042 0.47966 0.32509 0.0
H3809 H 0.91649 0.53592 0.319 0.0
H3810 H 0.8888 0.55585 0.31357 0.0
H3811 H 0.86127 0.53351 0.36236 0.0
H3812 H 0.88868 0.51325 0.36794 0.0
H3813 H 0.96558 0.53217 0.4231 0.0
H3814 H 0.95508 0.53165 0.39023 0.0
H3815 H 0.9553 0.4715 0.38991 0.0
H3816 H 0.96677 0.47202 0.42239 0.0
H3817 H 0.92445 0.52041 0.37567 0.0
H3818 H 0.96114 0.45317 0.34718 0.0
H3819 H -0.00851 0.43686 0.35107 0.0
H3820 H 0.01883 0.48813 0.3686 0.0
H3821 H 0.98871 0.5048 0.36457 0.0
C3822 C 0.88865 0.48908 0.29736 0.0
C3823 C 0.89845 0.49056 0.28022 0.0
C3824 C 0.89835 0.49124 0.31444 0.0
C3825 C 0.91791 0.49549 0.31468 0.0
C3826 C 0.92776 0.49672 0.29755 0.0
C3827 C 0.91814 0.49414 0.28046 0.0
C3828 C 0.92808 0.49854 0.33282 0.0
C3829 C 0.9448 0.48864 0.33613 0.0
C3830 C 0.9211 0.51071 0.34702 0.0
C3831 C 0.9046 0.52296 0.3438 0.0
C3832 C 0.90448 0.53517 0.3285 0.0
C3833 C 0.88884 0.54654 0.3254 0.0
C3834 C 0.87327 0.54592 0.33758 0.0
C3835 C 0.87333 0.53396 0.35292 0.0
C3836 C 0.88893 0.52255 0.35608 0.0
C3837 C 0.96363 0.51886 0.41589 0.0
C3838 C 0.96701 0.50213 0.42523 0.0
C3839 C 0.9576 0.51857 0.39714 0.0
C3840 C 0.95455 0.50155 0.38749 0.0
C3841 C 0.95802 0.48483 0.39683 0.0
C3842 C 0.96447 0.48512 0.41544 0.0
C3843 C 0.9466 0.50122 0.36811 0.0
C3844 C 0.93023 0.5116 0.36458 0.0
C3845 C 0.95436 0.49009 0.35346 0.0
C3846 C 0.97261 0.4802 0.35571 0.0
C3847 C 0.97365 0.46098 0.35177 0.0
C3848 C -0.00919 0.45167 0.35402 0.0
C3849 C 0.00706 0.46144 0.36013 0.0
C3850 C 0.00621 0.48056 0.36394 0.0
C3851 C 0.98909 0.48994 0.36169 0.0
H3852 H 0.02033 0.4542 0.36188 0.0
H3853 H 0.86117 0.55472 0.33516 0.0
H3854 H 0.72226 0.66131 0.5482 0.0
H3855 H 0.72995 0.68589 0.57104 0.0
H3856 H 0.69775 0.65694 0.61349 0.0
H3857 H 0.69063 0.63174 0.59081 0.0
H3858 H 0.71305 0.71014 0.5914 0.0
H3859 H 0.71849 0.66135 0.65509 0.0
H3860 H 0.72564 0.6286 0.66177 0.0
H3861 H 0.75885 0.62489 0.61116 0.0
H3862 H 0.75214 0.65775 0.6044 0.0
H3863 H 0.72121 0.76442 0.67436 0.0
H3864 H 0.7133 0.74312 0.64856 0.0
H3865 H 0.76744 0.71628 0.65503 0.0
H3866 H 0.77481 0.73689 0.68206 0.0
H3867 H 0.74278 0.69122 0.65146 0.0
H3868 H 0.7549 0.74567 0.61529 0.0
H3869 H 0.75236 0.77866 0.6066 0.0
H3870 H 0.69222 0.77148 0.59814 0.0
H3871 H 0.69438 0.73847 0.60691 0.0
C3872 C 0.71658 0.66022 0.56232 0.0
C3873 C 0.70604 0.64441 0.56777 0.0
C3874 C 0.72098 0.67435 0.57537 0.0
C3875 C 0.7148 0.67308 0.59408 0.0
C3876 C 0.7031 0.65797 0.59923 0.0
C3877 C 0.69892 0.64365 0.58623 0.0
C3878 C 0.72153 0.68703 0.60832 0.0
C3879 C 0.71954 0.70603 0.60455 0.0
C3880 C 0.73051 0.68169 0.62522 0.0
C3881 C 0.73473 0.66197 0.62924 0.0
C3882 C 0.72743 0.65359 0.6455 0.0
C3883 C 0.73138 0.635 0.64927 0.0
C3884 C 0.74267 0.62465 0.63688 0.0
C3885 C 0.75008 0.6329 0.62072 0.0
C3886 C 0.7462 0.65151 0.61692 0.0
C3887 C 0.73166 0.7543 0.67001 0.0
C3888 C 0.74874 0.75243 0.68009 0.0
C3889 C 0.72712 0.74211 0.65516 0.0
C3890 C 0.73988 0.72825 0.64953 0.0
C3891 C 0.75734 0.72686 0.6591 0.0
C3892 C 0.76164 0.73872 0.67441 0.0
C3893 C 0.73434 0.71445 0.63461 0.0
C3894 C 0.73641 0.69543 0.6383 0.0
C3895 C 0.72614 0.71981 0.61729 0.0
C3896 C 0.7248 0.73962 0.61183 0.0
C3897 C 0.74113 0.75114 0.61163 0.0
C3898 C 0.73975 0.76984 0.60667 0.0
C3899 C 0.72214 0.77714 0.60178 0.0
C3900 C 0.70586 0.76577 0.60185 0.0
C3901 C 0.70716 0.74706 0.60678 0.0
H3902 H 0.72111 0.79163 0.59798 0.0
H3903 H 0.74569 0.61025 0.6398 0.0
H3904 H 0.67955 0.54807 0.517 0.0
H3905 H 0.65519 0.52478 0.50935 0.0
H3906 H 0.62814 0.56334 0.47207 0.0
H3907 H 0.65221 0.58711 0.48039 0.0
H3908 H 0.60302 0.54877 0.4928 0.0
H3909 H 0.65145 0.5229 0.45531 0.0
H3910 H 0.68339 0.51193 0.44677 0.0
H3911 H 0.67945 0.46961 0.48868 0.0
H3912 H 0.6476 0.48049 0.49768 0.0
H3913 H 0.53345 0.48417 0.47505 0.0
H3914 H 0.56455 0.4952 0.46441 0.0
H3915 H 0.58914 0.47977 0.51754 0.0
H3916 H 0.55793 0.46863 0.52819 0.0
H3917 H 0.61534 0.48163 0.48105 0.0
H3918 H 0.57127 0.51807 0.5234 0.0
H3919 H 0.53883 0.52903 0.53025 0.0
H3920 H 0.53482 0.55098 0.47445 0.0
H3921 H 0.56721 0.54017 0.46737 0.0
C3922 C 0.66847 0.55157 0.50708 0.0
C3923 C 0.66767 0.56941 0.49935 0.0
C3924 C 0.65468 0.53814 0.50252 0.0
C3925 C 0.64005 0.54213 0.4898 0.0
C3926 C 0.63938 0.55991 0.48183 0.0
C3927 C 0.65304 0.57349 0.48665 0.0
C3928 C 0.62446 0.52837 0.4865 0.0
C3929 C 0.6058 0.53421 0.48971 0.0
C3930 C 0.62796 0.50927 0.48259 0.0
C3931 C 0.64713 0.5026 0.47724 0.0
C3932 C 0.65743 0.51134 0.46281 0.0
C3933 C 0.67552 0.50512 0.45787 0.0
C3934 C 0.68345 0.49009 0.46719 0.0
C3935 C 0.67329 0.48124 0.48146 0.0
C3936 C 0.65519 0.48741 0.48647 0.0
C3937 C 0.54575 0.48204 0.48394 0.0
C3938 C 0.54351 0.47561 0.50237 0.0
C3939 C 0.56348 0.48833 0.47786 0.0
C3940 C 0.57898 0.48844 0.4903 0.0
C3941 C 0.5773 0.47961 0.50773 0.0
C3942 C 0.55952 0.47326 0.51382 0.0
C3943 C 0.5944 0.5022 0.48772 0.0
C3944 C 0.61283 0.49633 0.48357 0.0
C3945 C 0.59078 0.52137 0.49039 0.0
C3946 C 0.57153 0.52826 0.49484 0.0
C3947 C 0.56342 0.52524 0.51263 0.0
C3948 C 0.54507 0.53145 0.51656 0.0
C3949 C 0.53473 0.54068 0.5028 0.0
C3950 C 0.5428 0.54385 0.48513 0.0
C3951 C 0.56117 0.53773 0.48116 0.0
H3952 H 0.52049 0.54538 0.50584 0.0
H3953 H 0.69746 0.4853 0.46335 0.0
H3954 H 0.20796 0.93731 0.53063 0.0
H3955 H 0.17804 0.9509 0.54093 0.0
H3956 H 0.15569 0.896 0.55269 0.0
H3957 H 0.18534 0.88231 0.54162 0.0
H3958 H 0.13207 0.91277 0.5323 0.0
H3959 H 0.16456 0.92987 0.58851 0.0
H3960 H 0.19038 0.94266 0.60863 0.0
H3961 H 0.18209 -0.00304 0.5858 0.0
H3962 H 0.15641 0.98446 0.56533 0.0
H3963 H 0.04497 0.95441 0.55003 0.0
H3964 H 0.07404 0.93981 0.56099 0.0
H3965 H 0.10735 0.98535 0.53895 0.0
H3966 H 0.07843 0.00021 0.52819 0.0
H3967 H 0.12352 0.96999 0.57136 0.0
H3968 H 0.09513 0.94964 0.51108 0.0
H3969 H 0.06866 0.93638 0.49207 0.0
H3970 H 0.06969 0.88643 0.52444 0.0
H3971 H 0.09575 0.89965 0.54407 0.0
C3972 C 0.19675 0.92818 0.53567 0.0
C3973 C 0.19884 0.90877 0.53514 0.0
C3974 C 0.17971 0.93596 0.54174 0.0
C3975 C 0.16465 0.92449 0.5478 0.0
C3976 C 0.1671 0.90512 0.54808 0.0
C3977 C 0.18401 0.89732 0.54171 0.0
C3978 C 0.14568 0.93248 0.55146 0.0
C3979 C 0.13016 0.92497 0.5413 0.0
C3980 C 0.14314 0.94855 0.563 0.0
C3981 C 0.1586 0.95618 0.57529 0.0
C3982 C 0.16833 0.94452 0.58767 0.0
C3983 C 0.18293 0.95172 0.59916 0.0
C3984 C 0.18789 0.9706 0.59848 0.0
C3985 C 0.17823 0.98233 0.58632 0.0
C3986 C 0.16362 0.9752 0.57479 0.0
C3987 C 0.05843 0.96158 0.54794 0.0
C3988 C 0.05945 0.97823 0.53778 0.0
C3989 C 0.07501 0.95325 0.5543 0.0
C3990 C 0.0928 0.96136 0.55043 0.0
C3991 C 0.09373 0.97886 0.542 0.0
C3992 C 0.07717 0.98725 0.53572 0.0
C3993 C 0.11031 0.9504 0.55197 0.0
C3994 C 0.12549 0.95744 0.56292 0.0
C3995 C 0.11257 0.93376 0.5413 0.0
C3996 C 0.0972 0.92573 0.5292 0.0
C3997 C 0.08961 0.93589 0.51424 0.0
C3998 C 0.07469 0.92839 0.50335 0.0
C3999 C 0.06752 0.91058 0.50706 0.0
C4000 C 0.07524 0.90024 0.52164 0.0
C4001 C 0.09004 0.90775 0.53268 0.0
H4002 H 0.05601 0.90478 0.49861 0.0
H4003 H 0.1992 0.97616 0.60738 0.0
H4004 H 0.28009 0.95637 0.73321 0.0
H4005 H 0.26089 0.92783 0.7315 0.0
H4006 H 0.30548 0.90048 0.70048 0.0
H4007 H 0.32474 0.92901 0.7019 0.0
H4008 H 0.26865 0.88651 0.69107 0.0
H4009 H 0.30864 0.90041 0.74619 0.0
H4010 H 0.31928 0.92045 0.77288 0.0
H4011 H 0.26264 0.91998 0.79536 0.0
H4012 H 0.25163 0.90014 0.76861 0.0
H4013 H 0.28375 0.80072 0.74871 0.0
H4014 H 0.28689 0.83413 0.74398 0.0
H4015 H 0.23007 0.83524 0.72101 0.0
H4016 H 0.22677 0.80159 0.72569 0.0
H4017 H 0.26649 0.86412 0.75691 0.0
H4018 H 0.23422 0.86735 0.6828 0.0
H4019 H 0.22593 0.84605 0.65627 0.0
H4020 H 0.27112 0.80977 0.67189 0.0
H4021 H 0.28003 0.83111 0.69813 0.0
C4022 C 0.28561 0.94446 0.72554 0.0
C4023 C 0.30416 0.94476 0.71815 0.0
C4024 C 0.27455 0.92821 0.72448 0.0
C4025 C 0.28194 0.91203 0.71616 0.0
C4026 C 0.29956 0.91287 0.70697 0.0
C4027 C 0.31061 0.92915 0.70794 0.0
C4028 C 0.27343 0.89366 0.72034 0.0
C4029 C 0.26783 0.88168 0.70546 0.0
C4030 C 0.27262 0.88734 0.73911 0.0
C4031 C 0.27928 0.899 0.75533 0.0
C4032 C 0.29845 0.90468 0.75677 0.0
C4033 C 0.30454 0.91599 0.7719 0.0
C4034 C 0.29163 0.92153 0.78578 0.0
C4035 C 0.27261 0.91572 0.78458 0.0
C4036 C 0.26643 0.90444 0.76944 0.0
C4037 C 0.27183 0.80806 0.74282 0.0
C4038 C 0.25507 0.79853 0.73745 0.0
C4039 C 0.27361 0.82716 0.74023 0.0
C4040 C 0.25875 0.83705 0.73205 0.0
C4041 C 0.24171 0.82776 0.72726 0.0
C4042 C 0.23985 0.80859 0.72999 0.0
C4043 C 0.26187 0.85685 0.72767 0.0
C4044 C 0.26659 0.86911 0.74255 0.0
C4045 C 0.26218 0.86322 0.70889 0.0
C4046 C 0.25758 0.8507 0.69261 0.0
C4047 C 0.24246 0.85489 0.68048 0.0
C4048 C 0.23767 0.84282 0.66548 0.0
C4049 C 0.24793 0.82652 0.66244 0.0
C4050 C 0.26314 0.82236 0.67429 0.0
C4051 C 0.26809 0.83446 0.6892 0.0
H4052 H 0.24415 0.81714 0.65088 0.0
H4053 H 0.29637 0.93029 0.79748 0.0
H4054 H 0.27548 0.09761 0.00186 0.0
H4055 H 0.30571 0.08155 -0.00042 0.0
H4056 H 0.29275 0.0517 0.05033 0.0
H4057 H 0.26246 0.06787 0.05289 0.0
H4058 H 0.32914 0.06535 0.05028 0.0
H4059 H 0.28903 0.02943 0.00878 0.0
H4060 H 0.266 0.02396 0.98297 0.0
H4061 H 0.30547 0.04736 0.9435 0.0
H4062 H 0.32866 0.05322 0.96913 0.0
H4063 H 0.40831 0.00517 0.03476 0.0
H4064 H 0.37622 0.01669 0.04045 0.0
H4065 H 0.3798 0.04931 0.99002 0.0
H4066 H 0.41162 0.03771 0.98405 0.0
H4067 H 0.3466 0.03076 -0.00815 0.0
H4068 H 0.38535 0.06927 0.03385 0.0
H4069 H 0.40835 0.07504 0.05965 0.0
H4070 H 0.37136 0.04669 0.09815 0.0
H4071 H 0.34824 0.04055 0.07249 0.0
C4072 C 0.27901 0.08764 0.01256 0.0
C4073 C 0.26652 0.08397 0.02753 0.0
C4074 C 0.29626 0.07841 0.01118 0.0
C4075 C 0.3013 0.06528 0.02465 0.0
C4076 C 0.28904 0.06175 0.03976 0.0
C4077 C 0.27174 0.07097 0.04116 0.0
C4078 C 0.31956 0.05547 0.02298 0.0
C4079 C 0.33287 0.05749 0.03766 0.0
C4080 C 0.32442 0.04544 0.0064 0.0
C4081 C 0.31053 0.04189 0.99092 0.0
C4082 C 0.29275 0.03354 -0.00537 0.0
C4083 C 0.27967 0.03034 0.98002 0.0
C4084 C 0.28425 0.03534 0.96161 0.0
C4085 C 0.30194 0.04351 0.95777 0.0
C4086 C 0.31506 0.04675 0.97233 0.0
C4087 C 0.40227 0.01483 0.02491 0.0
C4088 C 0.41252 0.02052 0.00895 0.0
C4089 C 0.38397 0.02142 0.02821 0.0
C4090 C 0.37572 0.03392 0.01571 0.0
C4091 C 0.38591 0.03962 -0.0002 0.0
C4092 C 0.40413 0.033 -0.00355 0.0
C4093 C 0.35637 0.04105 0.01893 0.0
C4094 C 0.34281 0.03845 0.00456 0.0
C4095 C 0.35131 0.05054 0.03578 0.0
C4096 C 0.36518 0.05427 0.05121 0.0
C4097 C 0.3822 0.06414 0.04778 0.0
C4098 C 0.39524 0.0675 0.06238 0.0
C4099 C 0.39135 0.06119 0.08051 0.0
C4100 C 0.37437 0.05155 0.08409 0.0
C4101 C 0.36129 0.04813 0.06952 0.0
H4102 H 0.40146 0.06381 0.0918 0.0
H4103 H 0.27411 0.03285 0.95032 0.0
H4104 H 0.68613 0.55452 0.7479 0.0
H4105 H 0.70472 0.58358 0.74798 0.0
H4106 H 0.65546 0.61319 0.72905 0.0
H4107 H 0.63694 0.58428 0.72853 0.0
H4108 H 0.68674 0.62648 0.71252 0.0
H4109 H 0.66723 0.61122 0.77604 0.0
H4110 H 0.66529 0.59139 0.80404 0.0
H4111 H 0.7262 0.59177 0.80834 0.0
H4112 H 0.7285 0.61143 0.78019 0.0
H4113 H 0.69336 0.71714 0.75009 0.0
H4114 H 0.68444 0.68428 0.74661 0.0
H4115 H 0.74296 0.66881 0.75393 0.0
H4116 H 0.75218 0.7018 0.7571 0.0
H4117 H 0.7129 0.64686 0.7747 0.0
H4118 H 0.73129 0.66699 0.71335 0.0
H4119 H 0.73156 0.68905 0.6871 0.0
H4120 H 0.67147 0.68066 0.67941 0.0
H4121 H 0.67074 0.65889 0.70595 0.0
C4122 C 0.67933 0.56717 0.74349 0.0
C4123 C 0.65997 0.5671 0.73843 0.0
C4124 C 0.68997 0.58377 0.74359 0.0
C4125 C 0.68139 0.6006 0.73881 0.0
C4126 C 0.66237 0.60038 0.73281 0.0
C4127 C 0.65177 0.58382 0.73262 0.0
C4128 C 0.69159 0.61868 0.74133 0.0
C4129 C 0.69247 0.63091 0.7261 0.0
C4130 C 0.69941 0.62436 0.75898 0.0
C4131 C 0.69804 0.61258 0.77589 0.0
C4132 C 0.68021 0.60695 0.78287 0.0
C4133 C 0.67904 0.59576 0.79878 0.0
C4134 C 0.69561 0.59027 0.80792 0.0
C4135 C 0.71338 0.596 0.80121 0.0
C4136 C 0.71463 0.60716 0.78529 0.0
C4137 C 0.70433 0.70678 0.75126 0.0
C4138 C 0.7235 0.71207 0.75379 0.0
C4139 C 0.69921 0.68804 0.74918 0.0
C4140 C 0.7131 0.67425 0.74982 0.0
C4141 C 0.7321 0.67934 0.75333 0.0
C4142 C 0.73731 0.69815 0.75511 0.0
C4143 C 0.70763 0.65464 0.74604 0.0
C4144 C 0.70759 0.6422 0.76102 0.0
C4145 C 0.70047 0.64883 0.72821 0.0
C4146 C 0.70093 0.66143 0.71179 0.0
C4147 C 0.71809 0.66996 0.70618 0.0
C4148 C 0.71833 0.68244 0.69126 0.0
C4149 C 0.70152 0.68635 0.68167 0.0
C4150 C 0.68447 0.67768 0.6869 0.0
C4151 C 0.68414 0.66526 0.70189 0.0
H4152 H 0.70175 0.69598 0.67009 0.0
H4153 H 0.69468 0.58162 0.82024 0.0
H4154 H 0.78006 0.46894 0.01004 0.0
H4155 H 0.80964 0.48574 0.01749 0.0
H4156 H 0.83719 0.43365 0.02828 0.0
H4157 H 0.80751 0.41679 0.02146 0.0
H4158 H 0.84947 0.45959 0.05261 0.0
H4159 H 0.84007 0.45459 0.98496 0.0
H4160 H 0.8227 0.45905 0.95516 0.0
H4161 H 0.82345 0.51823 0.96495 0.0
H4162 H 0.84064 0.51408 -0.00506 0.0
H4163 H 0.94039 0.48224 -7e-05 0.0
H4164 H 0.90643 0.47585 0.00079 0.0
H4165 H 0.90194 0.50731 0.05293 0.0
H4166 H 0.93628 0.51356 0.05239 0.0
H4167 H 0.87597 0.497 0.00044 0.0
H4168 H 0.86574 0.48243 0.07962 0.0
H4169 H 0.88447 0.47392 0.10754 0.0
H4170 H 0.92639 0.44867 0.07189 0.0
H4171 H 0.90746 0.45614 0.0438 0.0
C4172 C 0.79239 0.46107 0.01412 0.0
C4173 C 0.79156 0.44152 0.0149 0.0
C4174 C 0.80925 0.4707 0.01842 0.0
C4175 C 0.82565 0.46092 0.02319 0.0
C4176 C 0.82467 0.44147 0.02468 0.0
C4177 C 0.80774 0.43184 0.02064 0.0
C4178 C 0.84425 0.47065 0.02506 0.0
C4179 C 0.85522 0.46797 0.04133 0.0
C4180 C 0.85173 0.4815 0.01028 0.0
C4181 C 0.84141 0.48401 -0.00772 0.0
C4182 C 0.8364 0.46853 0.98082 0.0
C4183 C 0.82661 0.47101 0.96389 0.0
C4184 C 0.82192 0.48891 0.9582 0.0
C4185 C 0.82705 0.50437 0.9694 0.0
C4186 C 0.83681 0.50197 0.98636 0.0
C4187 C 0.93223 0.48794 0.01155 0.0
C4188 C 0.94107 0.49829 0.02616 0.0
C4189 C 0.91277 0.48437 0.01195 0.0
C4190 C 0.90172 0.49103 0.02696 0.0
C4191 C 0.9103 0.50194 0.04129 0.0
C4192 C 0.92988 0.50552 0.04092 0.0
C4193 C 0.88145 0.4855 0.02774 0.0
C4194 C 0.87007 0.48908 0.01199 0.0
C4195 C 0.87387 0.47503 0.04277 0.0
C4196 C 0.88535 0.47023 0.05956 0.0
C4197 C 0.87893 0.47503 0.07774 0.0
C4198 C 0.88957 0.47036 0.0936 0.0
C4199 C 0.90674 0.46101 0.09148 0.0
C4200 C 0.91316 0.45605 0.0735 0.0
C4201 C 0.90244 0.46043 0.0576 0.0
H4202 H 0.91498 0.45746 0.10376 0.0
H4203 H 0.81434 0.4908 0.94509 0.0
H4204 H 0.31941 0.05376 0.79025 0.0
H4205 H 0.30168 0.08179 0.79697 0.0
H4206 H 0.24964 0.05365 0.77981 0.0
H4207 H 0.26761 0.02563 0.77222 0.0
H4208 H 0.25395 0.08198 0.75982 0.0
H4209 H 0.25526 0.07518 0.8253 0.0
H4210 H 0.26773 0.0679 0.85677 0.0
H4211 H 0.30856 0.11265 0.85285 0.0
H4212 H 0.29656 0.12006 0.82124 0.0
H4213 H 0.2257 0.17855 0.7603 0.0
H4214 H 0.22595 0.14588 0.76973 0.0
H4215 H 0.28684 0.14914 0.77669 0.0
H4216 H 0.28682 0.18161 0.76721 0.0
H4217 H 0.26673 0.13197 0.8074 0.0
H4218 H 0.26984 0.13044 0.738 0.0
H4219 H 0.25691 0.13709 0.7065 0.0
H4220 H 0.20558 0.107 0.7197 0.0
H4221 H 0.21815 0.10038 0.75138 0.0
C4222 C 0.30411 0.05331 0.78847 0.0
C4223 C 0.29495 0.03766 0.7803 0.0
C4224 C 0.29388 0.06936 0.79253 0.0
C4225 C 0.27425 0.06992 0.78887 0.0
C4226 C 0.26478 0.0536 0.78264 0.0
C4227 C 0.27507 0.03759 0.7783 0.0
C4228 C 0.26485 0.08825 0.78776 0.0
C4229 C 0.25616 0.09271 0.77058 0.0
C4230 C 0.26773 0.10238 0.80167 0.0
C4231 C 0.27501 0.09814 0.8208 0.0
C4232 C 0.26698 0.08341 0.83107 0.0
C4233 C 0.27397 0.07926 0.84896 0.0
C4234 C 0.28897 0.08976 0.85677 0.0
C4235 C 0.29696 0.1045 0.84675 0.0
C4236 C 0.29002 0.10872 0.82887 0.0
C4237 C 0.23916 0.17227 0.7637 0.0
C4238 C 0.25627 0.18265 0.7629 0.0
C4239 C 0.23924 0.15367 0.7692 0.0
C4240 C 0.25639 0.14527 0.77408 0.0
C4241 C 0.27345 0.15552 0.77317 0.0
C4242 C 0.27342 0.174 0.76752 0.0
C4243 C 0.25698 0.12548 0.77926 0.0
C4244 C 0.26391 0.12092 0.79713 0.0
C4245 C 0.2523 0.11117 0.76613 0.0
C4246 C 0.24481 0.11514 0.74711 0.0
C4247 C 0.25573 0.12539 0.73423 0.0
C4248 C 0.24848 0.12912 0.71634 0.0
C4249 C 0.2304 0.12253 0.71113 0.0
C4250 C 0.21956 0.11214 0.72378 0.0
C4251 C 0.22674 0.10839 0.74169 0.0
H4252 H 0.22482 0.12543 0.69727 0.0
H4253 H 0.29437 0.08652 0.87061 0.0
H4254 H 0.20531 0.97785 0.24492 0.0
H4255 H 0.21749 0.94631 0.24125 0.0
H4256 H 0.17441 0.92596 0.27917 0.0
H4257 H 0.16214 0.95743 0.28297 0.0
H4258 H 0.2086 0.90626 0.28136 0.0
H4259 H 0.16356 0.9273 0.2349 0.0
H4260 H 0.15196 0.94901 0.21102 0.0
H4261 H 0.20194 0.93962 0.17774 0.0
H4262 H 0.21399 0.91808 0.20161 0.0
H4263 H 0.18245 0.81691 0.25123 0.0
H4264 H 0.18066 0.85046 0.25611 0.0
H4265 H 0.22779 0.85864 0.21827 0.0
H4266 H 0.22996 0.82487 0.21339 0.0
H4267 H 0.19669 0.88507 0.2153 0.0
H4268 H 0.23875 0.85935 0.26081 0.0
H4269 H 0.24866 0.83735 0.28513 0.0
H4270 H 0.2028 0.85498 0.32071 0.0
H4271 H 0.19233 0.87684 0.29641 0.0
C4272 C 0.19883 0.96678 0.253 0.0
C4273 C 0.18252 0.97001 0.26392 0.0
C4274 C 0.2058 0.94877 0.25084 0.0
C4275 C 0.19656 0.93383 0.25962 0.0
C4276 C 0.18165 0.93734 0.2722 0.0
C4277 C 0.17462 0.95533 0.27431 0.0
C4278 C 0.20032 0.91447 0.25352 0.0
C4279 C 0.20603 0.90159 0.26694 0.0
C4280 C 0.19711 0.90852 0.23462 0.0
C4281 C 0.18978 0.92127 0.22014 0.0
C4282 C 0.17214 0.92998 0.22256 0.0
C4283 C 0.16548 0.94224 0.20903 0.0
C4284 C 0.17623 0.94574 0.1929 0.0
C4285 C 0.19364 0.93693 0.19026 0.0
C4286 C 0.2004 0.9247 0.20378 0.0
C4287 C 0.19223 0.82578 0.24359 0.0
C4288 C 0.20655 0.81816 0.23213 0.0
C4289 C 0.19122 0.84495 0.2465 0.0
C4290 C 0.20439 0.85687 0.2379 0.0
C4291 C 0.21766 0.84954 0.22517 0.0
C4292 C 0.2188 0.83027 0.22235 0.0
C4293 C 0.2048 0.87682 0.24317 0.0
C4294 C 0.19971 0.88979 0.22961 0.0
C4295 C 0.20841 0.88278 0.26199 0.0
C4296 C 0.21465 0.86964 0.27668 0.0
C4297 C 0.23064 0.85841 0.27372 0.0
C4298 C 0.23638 0.84599 0.28752 0.0
C4299 C 0.22635 0.84476 0.30444 0.0
C4300 C 0.21054 0.85595 0.30758 0.0
C4301 C 0.2047 0.86836 0.2938 0.0
H4302 H 0.23088 0.8352 0.31512 0.0
H4303 H 0.17104 0.95523 0.18244 0.0
H4304 H 0.50021 0.31981 0.36895 0.0
H4305 H 0.48911 0.34938 0.38259 0.0
H4306 H 0.47885 0.32236 0.43559 0.0
H4307 H 0.48931 0.29299 0.42205 0.0
H4308 H 0.44986 0.34337 0.42727 0.0
H4309 H 0.51889 0.34998 0.42724 0.0
H4310 H 0.55046 0.35112 0.41219 0.0
H4311 H 0.53265 0.39646 0.37793 0.0
H4312 H 0.50088 0.39541 0.39264 0.0
H4313 H 0.46652 0.4077 0.50237 0.0
H4314 H 0.46662 0.38285 0.47833 0.0
H4315 H 0.45848 0.42329 0.4349 0.0
H4316 H 0.45791 0.44819 0.45882 0.0
H4317 H 0.49185 0.39935 0.43159 0.0
H4318 H 0.42461 0.39626 0.4383 0.0
H4319 H 0.39418 0.39496 0.45545 0.0
H4320 H 0.40963 0.34274 0.47931 0.0
H4321 H 0.44029 0.34384 0.46253 0.0
C4322 C 0.49569 0.32029 0.38354 0.0
C4323 C 0.49558 0.30413 0.39443 0.0
C4324 C 0.4893 0.33713 0.39128 0.0
C4325 C 0.48309 0.33802 0.41009 0.0
C4326 C 0.48333 0.32194 0.42099 0.0
C4327 C 0.48944 0.30518 0.41324 0.0
C4328 C 0.47666 0.35562 0.41892 0.0
C4329 C 0.45903 0.35563 0.4282 0.0
C4330 C 0.48837 0.37179 0.41962 0.0
C4331 C 0.50746 0.37245 0.41084 0.0
C4332 C 0.52167 0.36009 0.41639 0.0
C4333 C 0.5396 0.36074 0.40795 0.0
C4334 C 0.54354 0.37381 0.39406 0.0
C4335 C 0.52956 0.38631 0.38865 0.0
C4336 C 0.5116 0.3857 0.39703 0.0
C4337 C 0.46438 0.41124 0.48775 0.0
C4338 C 0.4623 0.42985 0.48245 0.0
C4339 C 0.46436 0.39707 0.47407 0.0
C4340 C 0.46253 0.40135 0.45494 0.0
C4341 C 0.45982 0.41981 0.44964 0.0
C4342 C 0.45946 0.43395 0.46333 0.0
C4343 C 0.46551 0.38671 0.44055 0.0
C4344 C 0.48246 0.38728 0.43021 0.0
C4345 C 0.45331 0.37099 0.43912 0.0
C4346 C 0.43483 0.3702 0.44922 0.0
C4347 C 0.4216 0.38457 0.44732 0.0
C4348 C 0.40429 0.38386 0.45695 0.0
C4349 C 0.39999 0.3688 0.46848 0.0
C4350 C 0.41298 0.3544 0.47037 0.0
C4351 C 0.43032 0.35505 0.46077 0.0
H4352 H 0.38658 0.36828 0.47593 0.0
H4353 H 0.55743 0.37429 0.38754 0.0
H4354 H 0.44204 0.759 0.15607 0.0
H4355 H 0.40867 0.7615 0.16495 0.0
H4356 H 0.42247 0.74538 0.22162 0.0
H4357 H 0.45586 0.74243 0.21276 0.0
H4358 H 0.38992 0.72898 0.20963 0.0
H4359 H 0.4168 0.79137 0.21039 0.0
H4360 H 0.43386 0.81807 0.19657 0.0
H4361 H 0.39165 0.82099 0.15293 0.0
H4362 H 0.37444 0.79416 0.16639 0.0
H4363 H 0.30908 0.76026 0.25748 0.0
H4364 H 0.34197 0.75833 0.2469 0.0
H4365 H 0.32477 0.77268 0.19065 0.0
H4366 H 0.29177 0.77482 0.20109 0.0
H4367 H 0.35845 0.78974 0.20117 0.0
H4368 H 0.33106 0.72839 0.20021 0.0
H4369 H 0.31368 0.70148 0.21322 0.0
H4370 H 0.3564 0.69613 0.25604 0.0
H4371 H 0.37391 0.72321 0.24345 0.0
C4372 C 0.43798 0.75584 0.1704 0.0
C4373 C 0.45164 0.75068 0.18377 0.0
C4374 C 0.41891 0.75735 0.17546 0.0
C4375 C 0.41318 0.75398 0.19403 0.0
C4376 C 0.42663 0.74813 0.20722 0.0
C4377 C 0.44571 0.74647 0.20214 0.0
C4378 C 0.39327 0.75707 0.19987 0.0
C4379 C 0.38311 0.74232 0.208 0.0
C4380 C 0.38425 0.77435 0.19724 0.0
C4381 C 0.39443 0.79066 0.18931 0.0
C4382 C 0.41121 0.79765 0.19779 0.0
C4383 C 0.4209 0.81281 0.19003 0.0
C4384 C 0.41387 0.82119 0.17386 0.0
C4385 C 0.39709 0.81447 0.16545 0.0
C4386 C 0.38735 0.79931 0.17316 0.0
C4387 C 0.31228 0.76329 0.24291 0.0
C4388 C 0.29775 0.76751 0.23009 0.0
C4389 C 0.33108 0.76208 0.23688 0.0
C4390 C 0.33569 0.76501 0.21793 0.0
C4391 C 0.32144 0.77027 0.20532 0.0
C4392 C 0.3026 0.77147 0.21133 0.0
C4393 C 0.35522 0.76172 0.21114 0.0
C4394 C 0.36527 0.7764 0.2028 0.0
C4395 C 0.36411 0.74434 0.21347 0.0
C4396 C 0.3537 0.72795 0.22099 0.0
C4397 C 0.33668 0.72157 0.21249 0.0
C4398 C 0.32681 0.70627 0.21978 0.0
C4399 C 0.33391 0.69713 0.23548 0.0
C4400 C 0.35091 0.70324 0.24389 0.0
C4401 C 0.36082 0.71856 0.23668 0.0
H4402 H 0.32627 0.68528 0.24109 0.0
H4403 H 0.4214 0.83292 0.16786 0.0
H4404 H -0.0039 0.712 0.94833 0.0
H4405 H -0.00451 0.68753 0.97168 0.0
H4406 H 0.96513 0.65123 0.9326 0.0
H4407 H 0.9663 0.67551 0.90882 0.0
H4408 H 0.9725 0.66514 0.99056 0.0
H4409 H 0.98548 0.60816 0.93379 0.0
H4410 H -0.00298 0.60502 0.90108 0.0
H4411 H 0.02992 0.65552 0.90793 0.0
H4412 H 0.01887 0.65876 0.94078 0.0
H4413 H 0.97767 0.5728 0.02844 0.0
H4414 H 0.97036 0.60222 0.0134 0.0
H4415 H 0.02866 0.60742 -0.00485 0.0
H4416 H 0.03592 0.57779 0.00966 0.0
H4417 H 0.00582 0.60919 0.96647 0.0
H4418 H 0.00884 0.63782 0.02785 0.0
H4419 H 0.001 0.64185 0.06151 0.0
H4420 H 0.94235 0.6499 0.04727 0.0
H4421 H 0.94981 0.64568 0.01352 0.0
C4422 C 0.9889 0.69897 0.94482 0.0
C4423 C 0.98164 0.6955 0.92659 0.0
C4424 C 0.98848 0.68501 0.95825 0.0
C4425 C 0.98069 0.66742 0.95371 0.0
C4426 C 0.97158 0.6646 0.93622 0.0
C4427 C 0.97222 0.67849 0.92267 0.0
C4428 C 0.98454 0.65154 0.96614 0.0
C4429 C 0.97965 0.65282 0.9853 0.0
C4430 C -0.00571 0.63567 0.95936 0.0
C4431 C 0.0011 0.63386 0.93963 0.0
C4432 C -0.00481 0.61858 0.92831 0.0
C4433 C 0.00166 0.61677 0.90976 0.0
C4434 C 0.01411 0.63012 0.9024 0.0
C4435 C 0.02021 0.64524 0.91362 0.0
C4436 C 0.01384 0.64707 0.9322 0.0
C4437 C 0.98905 0.58046 0.02166 0.0
C4438 C 0.00731 0.57289 0.01999 0.0
C4439 C 0.98484 0.5973 0.01309 0.0
C4440 C -0.00107 0.60694 0.00304 0.0
C4441 C 0.01753 0.6001 0.00268 0.0
C4442 C 0.02167 0.58319 0.011 0.0
C4443 C -0.00607 0.62277 0.99097 0.0
C4444 C -0.00147 0.62142 0.97179 0.0
C4445 C 0.98438 0.63868 -0.00212 0.0
C4446 C 0.97985 0.64124 0.01816 0.0
C4447 C -0.00576 0.64029 0.0319 0.0
C4448 C 0.98987 0.64264 0.051 0.0
C4449 C 0.97118 0.64608 0.05653 0.0
C4450 C 0.95682 0.64722 0.04297 0.0
C4451 C 0.96111 0.64486 0.02385 0.0
H4452 H 0.96782 0.64789 0.07132 0.0
H4453 H 0.01908 0.62871 0.88803 0.0
H4454 H 0.05834 0.29903 0.65214 0.0
H4455 H 0.08938 0.29809 0.66745 0.0
H4456 H 0.10797 0.25749 0.62616 0.0
H4457 H 0.07695 0.25874 0.61045 0.0
H4458 H 0.10141 0.26803 0.684 0.0
H4459 H 0.15764 0.25882 0.62517 0.0
H4460 H 0.1637 0.269 0.59266 0.0
H4461 H 0.13028 0.31776 0.60258 0.0
H4462 H 0.12426 0.30802 0.63521 0.0
H4463 H 0.18587 0.23324 0.72384 0.0
H4464 H 0.15891 0.23703 0.70243 0.0
H4465 H 0.17855 0.29265 0.68995 0.0
H4466 H 0.20556 0.28894 0.71109 0.0
H4467 H 0.16667 0.27453 0.65837 0.0
H4468 H 0.14336 0.28601 0.72137 0.0
H4469 H 0.13751 0.27839 0.75465 0.0
H4470 H 0.10477 0.23012 0.7374 0.0
H4471 H 0.11064 0.23733 0.704 0.0
C4472 C 0.06921 0.29025 0.64605 0.0
C4473 C 0.06524 0.27883 0.63025 0.0
C4474 C 0.0869 0.28969 0.65483 0.0
C4475 C 0.1009 0.2776 0.64806 0.0
C4476 C 0.09741 0.26703 0.63154 0.0
C4477 C 0.0797 0.26775 0.62258 0.0
C4478 C 0.11816 0.27465 0.65952 0.0
C4479 C 0.11567 0.26948 0.67836 0.0
C4480 C 0.13675 0.27651 0.65216 0.0
C4481 C 0.14031 0.28255 0.63257 0.0
C4482 C 0.15162 0.27173 0.62042 0.0
C4483 C 0.15505 0.27743 0.60198 0.0
C4484 C 0.14731 0.29398 0.59554 0.0
C4485 C 0.13618 0.3049 0.60756 0.0
C4486 C 0.13273 0.29928 0.62602 0.0
C4487 C 0.1844 0.24629 0.71658 0.0
C4488 C 0.19777 0.26082 0.71923 0.0
C4489 C 0.16906 0.2484 0.70431 0.0
C4490 C 0.16673 0.26516 0.6947 0.0
C4491 C 0.18017 0.27958 0.69716 0.0
C4492 C 0.19551 0.27747 0.70935 0.0
C4493 C 0.14981 0.26809 0.68279 0.0
C4494 C 0.15237 0.27306 0.6639 0.0
C4495 C 0.13123 0.26641 0.69015 0.0
C4496 C 0.1276 0.26211 0.71021 0.0
C4497 C 0.13503 0.2737 0.72469 0.0
C4498 C 0.13169 0.26947 0.74356 0.0
C4499 C 0.12082 0.25375 0.74814 0.0
C4500 C 0.11322 0.24227 0.73383 0.0
C4501 C 0.11653 0.24643 0.71493 0.0
H4502 H 0.11825 0.2505 0.76276 0.0
H4503 H 0.14998 0.29837 0.58125 0.0
H4504 H 0.53302 0.71742 0.10658 0.0
H4505 H 0.53835 0.68898 0.08805 0.0
H4506 H 0.51898 0.65603 0.13484 0.0
H4507 H 0.51497 0.68445 0.15379 0.0
H4508 H 0.54537 0.63845 0.11932 0.0
H4509 H 0.48991 0.66788 0.09492 0.0
H4510 H 0.47102 0.6931 0.0814 0.0
H4511 H 0.50768 0.69429 0.0331 0.0
H4512 H 0.52693 0.66921 0.04646 0.0
H4513 H 0.49755 0.5645 0.06786 0.0
H4514 H 0.50534 0.59299 0.08575 0.0
H4515 H 0.55016 0.60574 0.04647 0.0
H4516 H 0.54283 0.57675 0.02871 0.0
H4517 H 0.51587 0.63374 0.0558 0.0
H4518 H 0.56805 0.59881 0.08163 0.0
H4519 H 0.58174 0.57117 0.09637 0.0
H4520 H 0.5445 0.57792 0.1438 0.0
H4521 H 0.53039 0.60546 0.12921 0.0
C4522 C 0.53005 0.70407 0.1129 0.0
C4523 C 0.52343 0.70305 0.13151 0.0
C4524 C 0.533 0.68782 0.10229 0.0
C4525 C 0.52862 0.67032 0.10985 0.0
C4526 C 0.52246 0.66933 0.12864 0.0
C4527 C 0.52008 0.68556 0.13945 0.0
C4528 C 0.52979 0.65308 0.09805 0.0
C4529 C 0.53887 0.63748 0.10546 0.0
C4530 C 0.52149 0.65172 0.07982 0.0
C4531 C 0.51 0.66685 0.0718 0.0
C4532 C 0.49403 0.67363 0.08149 0.0
C4533 C 0.48324 0.68787 0.07384 0.0
C4534 C 0.48819 0.69533 0.05643 0.0
C4535 C 0.5039 0.68853 0.0466 0.0
C4536 C 0.51475 0.6743 0.0542 0.0
C4537 C 0.50923 0.57325 0.06316 0.0
C4538 C 0.51956 0.56854 0.04689 0.0
C4539 C 0.51369 0.58943 0.07342 0.0
C4540 C 0.52832 0.60131 0.06739 0.0
C4541 C 0.5389 0.59658 0.05132 0.0
C4542 C 0.53473 0.58009 0.04126 0.0
C4543 C 0.53125 0.61935 0.07721 0.0
C4544 C 0.52276 0.635 0.06948 0.0
C4545 C 0.53945 0.62054 0.09536 0.0
C4546 C 0.54808 0.60412 0.10426 0.0
C4547 C 0.56267 0.59431 0.09513 0.0
C4548 C 0.57054 0.57868 0.10348 0.0
C4549 C 0.56398 0.57277 0.12099 0.0
C4550 C 0.54957 0.58251 0.13023 0.0
C4551 C 0.54166 0.59815 0.12194 0.0
H4552 H 0.57007 0.56066 0.12743 0.0
H4553 H 0.47982 0.70636 0.05053 0.0
H4554 H 0.04191 0.71047 0.82898 0.0
H4555 H 0.07263 0.70907 0.81338 0.0
H4556 H 0.10078 0.70814 0.86747 0.0
H4557 H 0.06994 0.70999 0.88327 0.0
H4558 H 0.11568 0.73425 0.8468 0.0
H4559 H 0.10146 0.67033 0.83705 0.0
H4560 H 0.08301 0.6421 0.82813 0.0
H4561 H 0.08073 0.65997 0.77075 0.0
H4562 H 0.09887 0.6885 0.77935 0.0
H4563 H 0.20579 0.72023 0.8024 0.0
H4564 H 0.17687 0.71595 0.82085 0.0
H4565 H 0.14289 0.72845 0.7721 0.0
H4566 H 0.17188 0.73301 0.75347 0.0
H4567 H 0.13284 0.69434 0.79184 0.0
H4568 H 0.14565 0.76002 0.80411 0.0
H4569 H 0.16633 0.78646 0.81397 0.0
H4570 H 0.17349 0.76233 0.86845 0.0
H4571 H 0.15302 0.73563 0.85882 0.0
C4572 C 0.0546 0.70961 0.83758 0.0
C4573 C 0.05355 0.71054 0.85734 0.0
C4574 C 0.07217 0.70869 0.82863 0.0
C4575 C 0.089 0.70844 0.83926 0.0
C4576 C 0.08794 0.70836 0.85902 0.0
C4577 C 0.07034 0.70937 0.86801 0.0
C4578 C 0.10758 0.71027 0.82969 0.0
C4579 C 0.11958 0.72527 0.83503 0.0
C4580 C 0.11255 0.69873 0.81415 0.0
C4581 C 0.10138 0.68169 0.8089 0.0
C4582 C 0.09685 0.66836 0.82256 0.0
C4583 C 0.08648 0.65228 0.81755 0.0
C4584 C 0.08064 0.64928 0.7989 0.0
C4585 C 0.08522 0.66234 0.7852 0.0
C4586 C 0.09556 0.67847 0.79013 0.0
C4587 C 0.19218 0.72225 0.79563 0.0
C4588 C 0.19106 0.72695 0.77649 0.0
C4589 C 0.17571 0.7198 0.80619 0.0
C4590 C 0.15786 0.72186 0.79776 0.0
C4591 C 0.15663 0.72679 0.77876 0.0
C4592 C 0.17315 0.7295 0.76821 0.0
C4593 C 0.14048 0.71844 0.80877 0.0
C4594 C 0.12884 0.70316 0.80371 0.0
C4595 C 0.136 0.72949 0.82475 0.0
C4596 C 0.14795 0.74575 0.83069 0.0
C4597 C 0.15173 0.7603 0.81815 0.0
C4598 C 0.16339 0.77534 0.82371 0.0
C4599 C 0.17127 0.77605 0.84181 0.0
C4600 C 0.1674 0.76176 0.85443 0.0
C4601 C 0.15575 0.74668 0.84894 0.0
H4602 H 0.18033 0.78768 0.84607 0.0
H4603 H 0.07261 0.63682 0.79505 0.0
H4604 H 0.99044 0.28581 0.55004 0.0
H4605 H 0.97967 0.30867 0.52719 0.0
H4606 H 0.95931 0.34356 0.57272 0.0
H4607 H 0.96987 0.32088 0.59551 0.0
H4608 H 0.9355 0.34398 0.54166 0.0
H4609 H 0.00353 0.34985 0.55618 0.0
H4610 H 0.03629 0.33807 0.55732 0.0
H4611 H 0.0347 0.32715 0.49763 0.0
H4612 H 0.00182 0.33868 0.49621 0.0
H4613 H 0.95042 0.43884 0.53035 0.0
H4614 H 0.9468 0.40592 0.537 0.0
H4615 H 0.97047 0.39183 0.48262 0.0
H4616 H 0.97463 0.42494 0.47599 0.0
H4617 H 0.98906 0.37532 0.50899 0.0
H4618 H 0.92384 0.37912 0.49418 0.0
H4619 H 0.89165 0.39225 0.49381 0.0
H4620 H 0.88749 0.38581 0.55372 0.0
H4621 H 0.91976 0.37291 0.55452 0.0
C4622 C 0.98337 0.29821 0.55512 0.0
C4623 C 0.98123 0.30171 0.57456 0.0
C4624 C 0.97721 0.31122 0.54207 0.0
C4625 C 0.96884 0.32784 0.54831 0.0
C4626 C 0.96569 0.33079 0.56762 0.0
C4627 C 0.97188 0.31788 0.58064 0.0
C4628 C 0.96536 0.34325 0.53524 0.0
C4629 C 0.94711 0.35084 0.53437 0.0
C4630 C 0.98044 0.35177 0.52527 0.0
C4631 C 0.00017 0.34486 0.52613 0.0
C4632 C 0.01013 0.34479 0.54334 0.0
C4633 C 0.02872 0.33819 0.54403 0.0
C4634 C 0.03755 0.3318 0.52757 0.0
C4635 C 0.02782 0.33205 0.51038 0.0
C4636 C 0.00921 0.33861 0.50962 0.0
C4637 C 0.95449 0.42879 0.51959 0.0
C4638 C 0.96306 0.43454 0.50274 0.0
C4639 C 0.95223 0.4099 0.52335 0.0
C4640 C 0.95822 0.39636 0.51024 0.0
C4641 C 0.96572 0.40204 0.49291 0.0
C4642 C 0.9681 0.42098 0.48917 0.0
C4643 C 0.95927 0.37664 0.51598 0.0
C4644 C 0.97714 0.36821 0.51555 0.0
C4645 C 0.94382 0.36743 0.52476 0.0
C4646 C 0.92429 0.37506 0.5244 0.0
C4647 C 0.91612 0.3806 0.5073 0.0
C4648 C 0.89784 0.38799 0.50701 0.0
C4649 C 0.88754 0.38987 0.52373 0.0
C4650 C 0.89548 0.38433 0.54077 0.0
C4651 C 0.91376 0.37693 0.54114 0.0
H4652 H 0.87339 0.39561 0.52348 0.0
H4653 H 0.05194 0.3267 0.52813 0.0
H4654 H 0.47066 0.24519 0.30535 0.0
H4655 H 0.44038 0.24947 0.28909 0.0
H4656 H 0.411 0.24823 0.34243 0.0
H4657 H 0.44096 0.24312 0.35861 0.0
H4658 H 0.38989 0.23211 0.31736 0.0
H4659 H 0.42506 0.28987 0.32099 0.0
H4660 H 0.45261 0.31089 0.31627 0.0
H4661 H 0.44815 0.30249 0.25634 0.0
H4662 H 0.42071 0.28121 0.26074 0.0
H4663 H 0.30965 0.28761 0.29458 0.0
H4664 H 0.34067 0.27953 0.30784 0.0
H4665 H 0.36034 0.26361 0.25243 0.0
H4666 H 0.32933 0.27121 0.23913 0.0
H4667 H 0.38618 0.28773 0.27696 0.0
H4668 H 0.34876 0.23036 0.27534 0.0
H4669 H 0.32018 0.2114 0.28221 0.0
H4670 H 0.32799 0.22196 0.34149 0.0
H4671 H 0.35647 0.24123 0.33494 0.0
C4672 C 0.45769 0.2455 0.31354 0.0
C4673 C 0.45819 0.24403 0.33326 0.0
C4674 C 0.44043 0.24805 0.30426 0.0
C4675 C 0.42351 0.24966 0.31461 0.0
C4676 C 0.42388 0.24712 0.33416 0.0
C4677 C 0.44105 0.24423 0.3434 0.0
C4678 C 0.40558 0.25504 0.30537 0.0
C4679 C 0.3891 0.24434 0.30864 0.0
C4680 C 0.40453 0.27097 0.2939 0.0
C4681 C 0.42098 0.28379 0.29121 0.0
C4682 C 0.43005 0.29241 0.30682 0.0
C4683 C 0.44562 0.30438 0.3042 0.0
C4684 C 0.45216 0.30798 0.28602 0.0
C4685 C 0.44309 0.29966 0.27041 0.0
C4686 C 0.42752 0.28765 0.27296 0.0
C4687 C 0.32067 0.28259 0.28523 0.0
C4688 C 0.31713 0.27992 0.26588 0.0
C4689 C 0.33828 0.27794 0.2928 0.0
C4690 C 0.35259 0.27091 0.28105 0.0
C4691 C 0.34937 0.269 0.26164 0.0
C4692 C 0.33168 0.27328 0.25412 0.0
C4693 C 0.37071 0.26486 0.2891 0.0
C4694 C 0.38714 0.27545 0.2856 0.0
C4695 C 0.37164 0.2491 0.30068 0.0
C4696 C 0.35462 0.2374 0.30463 0.0
C4697 C 0.34428 0.22878 0.28983 0.0
C4698 C 0.32812 0.21795 0.29366 0.0
C4699 C 0.32224 0.21552 0.31227 0.0
C4700 C 0.33255 0.22388 0.32708 0.0
C4701 C 0.3487 0.23474 0.32332 0.0
H4702 H 0.30973 0.20713 0.31521 0.0
H4703 H 0.46422 0.31726 0.28401 0.0
H4704 H 0.47236 0.53247 0.31089 0.0
H4705 H 0.4849 0.54027 0.34239 0.0
H4706 H 0.42759 0.54255 0.36395 0.0
H4707 H 0.41511 0.53559 0.33262 0.0
H4708 H 0.44731 0.56959 0.37915 0.0
H4709 H 0.45741 0.5031 0.3678 0.0
H4710 H 0.47091 0.47605 0.35091 0.0
H4711 H 0.52731 0.49789 0.36054 0.0
H4712 H 0.5141 0.52517 0.37734 0.0
H4713 H 0.44027 0.52694 0.46656 0.0
H4714 H 0.44055 0.53983 0.43497 0.0
H4715 H 0.50122 0.54878 0.43889 0.0
H4716 H 0.50103 0.53613 0.47067 0.0
H4717 H 0.48931 0.52418 0.40985 0.0
H4718 H 0.47623 0.58526 0.43117 0.0
H4719 H 0.46046 0.60964 0.45004 0.0
H4720 H 0.40709 0.59581 0.42347 0.0
H4721 H 0.42243 0.5711 0.40466 0.0
C4722 C 0.4625 0.53464 0.3224 0.0
C4723 C 0.44278 0.53332 0.31934 0.0
C4724 C 0.46966 0.53915 0.34035 0.0
C4725 C 0.45718 0.54192 0.35557 0.0
C4726 C 0.43751 0.54068 0.35242 0.0
C4727 C 0.43038 0.53653 0.33451 0.0
C4728 C 0.46424 0.54504 0.37509 0.0
C4729 C 0.45655 0.55971 0.38588 0.0
C4730 C 0.47687 0.53258 0.38372 0.0
C4731 C 0.48478 0.51627 0.37356 0.0
C4732 C 0.47268 0.50218 0.36618 0.0
C4733 C 0.48028 0.48681 0.35665 0.0
C4734 C 0.49995 0.48529 0.35458 0.0
C4735 C 0.51208 0.49912 0.3621 0.0
C4736 C 0.50455 0.51453 0.37162 0.0
C4737 C 0.45358 0.53219 0.46094 0.0
C4738 C 0.47066 0.53024 0.47093 0.0
C4739 C 0.45371 0.53967 0.44295 0.0
C4740 C 0.47093 0.54518 0.43463 0.0
C4741 C 0.4878 0.54464 0.44513 0.0
C4742 C 0.48764 0.53741 0.46328 0.0
C4743 C 0.47146 0.54802 0.41408 0.0
C4744 C 0.48063 0.5345 0.40304 0.0
C4745 C 0.45986 0.56126 0.40536 0.0
C4746 C 0.45052 0.57627 0.41649 0.0
C4747 C 0.46111 0.58733 0.42941 0.0
C4748 C 0.45224 0.60122 0.4401 0.0
C4749 C 0.43279 0.60428 0.43795 0.0
C4750 C 0.42217 0.59345 0.42509 0.0
C4751 C 0.43096 0.57951 0.41438 0.0
H4752 H 0.42595 0.61504 0.44625 0.0
H4753 H 0.50581 0.47337 0.34722 0.0
H4754 H 0.23061 0.62477 0.05667 0.0
H4755 H 0.22735 0.64353 0.08549 0.0
H4756 H 0.24141 0.69317 0.05478 0.0
H4757 H 0.24458 0.67458 0.02585 0.0
H4758 H 0.25982 0.69188 0.0889 0.0
H4759 H 0.19668 0.68511 0.06499 0.0
H4760 H 0.1683 0.66851 0.05254 0.0
H4761 H 0.16335 0.63819 0.10398 0.0
H4762 H 0.19192 0.65438 0.11663 0.0
H4763 H 0.23208 0.75153 0.16492 0.0
H4764 H 0.23279 0.73736 0.13331 0.0
H4765 H 0.21848 0.68387 0.15661 0.0
H4766 H 0.21747 0.69783 0.18808 0.0
H4767 H 0.19904 0.69004 0.12429 0.0
H4768 H 0.2641 0.69521 0.14679 0.0
H4769 H 0.29221 0.71237 0.15916 0.0
H4770 H 0.29312 0.74637 0.10995 0.0
H4771 H 0.26485 0.72956 0.0974 0.0
C4772 C 0.23301 0.63966 0.05603 0.0
C4773 C 0.23762 0.64819 0.03893 0.0
C4774 C 0.23112 0.65036 0.07249 0.0
C4775 C 0.23388 0.66974 0.07214 0.0
C4776 C 0.23915 0.67823 0.05527 0.0
C4777 C 0.24093 0.66757 0.03877 0.0
C4778 C 0.23108 0.68113 0.08938 0.0
C4779 C 0.24645 0.69173 0.0965 0.0
C4780 C 0.21366 0.68075 0.0993 0.0
C4781 C 0.19654 0.67086 0.0917 0.0
C4782 C 0.18965 0.67478 0.07359 0.0
C4783 C 0.17351 0.66547 0.0665 0.0
C4784 C 0.16402 0.65232 0.07747 0.0
C4785 C 0.1707 0.64841 0.09552 0.0
C4786 C 0.18687 0.65764 0.10265 0.0
C4787 C 0.2289 0.73678 0.16329 0.0
C4788 C 0.22487 0.72578 0.17904 0.0
C4789 C 0.22938 0.72872 0.14525 0.0
C4790 C 0.22591 0.70955 0.14272 0.0
C4791 C 0.22121 0.69869 0.1583 0.0
C4792 C 0.22073 0.70671 0.17629 0.0
C4793 C 0.2279 0.70047 0.12402 0.0
C4794 C 0.21236 0.69032 0.1166 0.0
C4795 C 0.24514 0.7013 0.11381 0.0
C4796 C 0.26225 0.71127 0.12126 0.0
C4797 C 0.27022 0.70643 0.13867 0.0
C4798 C 0.28619 0.71608 0.14571 0.0
C4799 C 0.29441 0.73049 0.13538 0.0
C4800 C 0.28672 0.73523 0.11795 0.0
C4801 C 0.27073 0.72564 0.11087 0.0
H4802 H 0.30677 0.73794 0.14085 0.0
H4803 H 0.15149 0.64516 0.07197 0.0
H4804 H 0.09141 0.49817 0.81376 0.0
H4805 H 0.08089 0.50076 0.84635 0.0
H4806 H 0.02235 0.49833 0.82793 0.0
H4807 H 0.03291 0.49656 0.79498 0.0
H4808 H 0.02638 0.52249 0.85629 0.0
H4809 H 0.0445 0.45945 0.84529 0.0
H4810 H 0.06523 0.43399 0.83455 0.0
H4811 H 0.10804 0.45171 0.87447 0.0
H4812 H 0.08767 0.47743 0.88527 0.0
H4813 H -0.00349 0.49486 0.94968 0.0
H4814 H 0.00244 0.49482 0.91567 0.0
H4815 H 0.06097 0.51063 0.92593 0.0
H4816 H 0.05513 0.51113 0.95985 0.0
H4817 H 0.05396 0.47807 0.90135 0.0
H4818 H 0.03564 0.54234 0.9107 0.0
H4819 H 0.01428 0.56742 0.92113 0.0
H4820 H 0.97036 0.54578 0.88442 0.0
H4821 H -0.00859 0.52044 0.8739 0.0
C4822 C 0.07629 0.49826 0.81664 0.0
C4823 C 0.06295 0.49691 0.80192 0.0
C4824 C 0.07029 0.49968 0.83526 0.0
C4825 C 0.05084 0.4992 0.83958 0.0
C4826 C 0.03743 0.49856 0.82488 0.0
C4827 C 0.04346 0.49752 0.80612 0.0
C4828 C 0.04474 0.49894 0.85951 0.0
C4829 C 0.03214 0.51257 0.86608 0.0
C4830 C 0.05239 0.48607 0.8723 0.0
C4831 C 0.06459 0.47045 0.866 0.0
C4832 C 0.05838 0.45798 0.8517 0.0
C4833 C 0.07006 0.44349 0.84561 0.0
C4834 C 0.08795 0.44126 0.85379 0.0
C4835 C 0.09418 0.45346 0.86813 0.0
C4836 C 0.08256 0.46798 0.87427 0.0
C4837 C 0.01063 0.49837 0.94469 0.0
C4838 C 0.02541 0.50287 0.95744 0.0
C4839 C 0.01394 0.49843 0.9253 0.0
C4840 C 0.0321 0.50277 0.91844 0.0
C4841 C 0.04685 0.50728 0.93107 0.0
C4842 C 0.0435 0.50753 0.95042 0.0
C4843 C 0.03601 0.50181 0.89809 0.0
C4844 C 0.0481 0.48786 0.89147 0.0
C4845 C 0.02771 0.51421 0.8853 0.0
C4846 C 0.01502 0.52936 0.89169 0.0
C4847 C 0.02136 0.54281 0.905 0.0
C4848 C 0.00933 0.55711 0.91089 0.0
C4849 C -0.00904 0.55816 0.9035 0.0
C4850 C 0.98459 0.54493 0.89016 0.0
C4851 C -0.00343 0.53062 0.88422 0.0
H4852 H 0.98168 0.56924 0.90806 0.0
H4853 H 0.09699 0.43004 0.84904 0.0
H4854 H 0.25527 0.33363 0.57707 0.0
H4855 H 0.27025 0.313 0.59926 0.0
H4856 H 0.2425 0.26556 0.57244 0.0
H4857 H 0.22725 0.28636 0.54991 0.0
H4858 H 0.23834 0.26634 0.61091 0.0
H4859 H 0.28982 0.26938 0.56845 0.0
H4860 H 0.31267 0.28405 0.54677 0.0
H4861 H 0.33596 0.31705 0.59251 0.0
H4862 H 0.31307 0.3028 0.61442 0.0
H4863 H 0.28015 0.22731 0.69066 0.0
H4864 H 0.27887 0.22951 0.65623 0.0
H4865 H 0.2931 0.28805 0.66062 0.0
H4866 H 0.29405 0.28601 0.6949 0.0
H4867 H 0.30697 0.2707 0.62718 0.0
H4868 H 0.2494 0.27591 0.66509 0.0
H4869 H 0.2259 0.26398 0.68762 0.0
H4870 H 0.21294 0.21785 0.65025 0.0
H4871 H 0.23703 0.2292 0.62774 0.0
C4872 C 0.25237 0.31881 0.57576 0.0
C4873 C 0.24001 0.31162 0.56178 0.0
C4874 C 0.26114 0.307 0.58835 0.0
C4875 C 0.2578 0.28772 0.58725 0.0
C4876 C 0.24544 0.2804 0.57334 0.0
C4877 C 0.2367 0.29227 0.56056 0.0
C4878 C 0.26601 0.27578 0.60191 0.0
C4879 C 0.25345 0.26665 0.61409 0.0
C4880 C 0.2857 0.27646 0.60617 0.0
C4881 C 0.29968 0.28499 0.5931 0.0
C4882 C 0.29975 0.27983 0.57388 0.0
C4883 C 0.31272 0.28807 0.56155 0.0
C4884 C 0.32575 0.30147 0.56826 0.0
C4885 C 0.32587 0.30664 0.58733 0.0
C4886 C 0.31293 0.29844 0.59973 0.0
C4887 C 0.28381 0.24045 0.68421 0.0
C4888 C 0.28695 0.25657 0.69537 0.0
C4889 C 0.28302 0.24168 0.66457 0.0
C4890 C 0.28564 0.25899 0.65596 0.0
C4891 C 0.29105 0.27457 0.667 0.0
C4892 C 0.29151 0.27342 0.68659 0.0
C4893 C 0.27918 0.26199 0.63641 0.0
C4894 C 0.29203 0.26954 0.62344 0.0
C4895 C 0.25972 0.26005 0.63145 0.0
C4896 C 0.24525 0.2532 0.64491 0.0
C4897 C 0.24172 0.26309 0.66178 0.0
C4898 C 0.22824 0.25646 0.67454 0.0
C4899 C 0.21786 0.24016 0.67039 0.0
C4900 C 0.22102 0.23044 0.65348 0.0
C4901 C 0.23465 0.23693 0.64074 0.0
H4902 H 0.20737 0.23509 0.68027 0.0
H4903 H 0.33577 0.30785 0.55868 0.0
H4904 H 0.4401 0.5308 0.22179 0.0
H4905 H 0.44861 0.52114 0.18981 0.0
H4906 H 0.39276 0.53599 0.17022 0.0
H4907 H 0.38391 0.54495 0.20238 0.0
H4908 H 0.40099 0.50348 0.15672 0.0
H4909 H 0.43375 0.56216 0.1602 0.0
H4910 H 0.45533 0.58658 0.17307 0.0
H4911 H 0.50252 0.54957 0.16781 0.0
H4912 H 0.48116 0.52482 0.15517 0.0
H4913 H 0.43144 0.51714 0.05913 0.0
H4914 H 0.41876 0.51957 0.09118 0.0
H4915 H 0.46101 0.4813 0.11041 0.0
H4916 H 0.4734 0.4783 0.07828 0.0
H4917 H 0.45987 0.52358 0.12407 0.0
H4918 H 0.42523 0.46534 0.11862 0.0
H4919 H 0.40259 0.44299 0.10381 0.0
H4920 H 0.35759 0.48233 0.11053 0.0
H4921 H 0.38004 0.50504 0.12512 0.0
C4922 C 0.42974 0.53229 0.21061 0.0
C4923 C 0.41134 0.53859 0.21454 0.0
C4924 C 0.43463 0.52678 0.19233 0.0
C4925 C 0.42134 0.52791 0.17759 0.0
C4926 C 0.40319 0.53488 0.1814 0.0
C4927 C 0.3982 0.54012 0.19973 0.0
C4928 C 0.4261 0.52108 0.15839 0.0
C4929 C 0.41377 0.50806 0.14951 0.0
C4930 C 0.44295 0.52677 0.14911 0.0
C4931 C 0.4558 0.54156 0.15694 0.0
C4932 C 0.44869 0.55916 0.16196 0.0
C4933 C 0.46089 0.57308 0.16918 0.0
C4934 C 0.48027 0.56961 0.17131 0.0
C4935 C 0.48749 0.55223 0.16619 0.0
C4936 C 0.47535 0.53825 0.15899 0.0
C4937 C 0.43753 0.5087 0.07005 0.0
C4938 C 0.45344 0.49763 0.06632 0.0
C4939 C 0.43027 0.51007 0.08829 0.0
C4940 C 0.43904 0.50064 0.103 0.0
C4941 C 0.45404 0.48854 0.0991 0.0
C4942 C 0.46103 0.48682 0.08077 0.0
C4943 C 0.4348 0.50609 0.12259 0.0
C4944 C 0.4472 0.51895 0.13145 0.0
C4945 C 0.41788 0.50055 0.13163 0.0
C4946 C 0.40438 0.48698 0.12275 0.0
C4947 C 0.41056 0.46932 0.11673 0.0
C4948 C 0.39775 0.45656 0.10843 0.0
C4949 C 0.37868 0.46126 0.10617 0.0
C4950 C 0.37237 0.47872 0.11225 0.0
C4951 C 0.38514 0.49153 0.12055 0.0
H4952 H 0.36877 0.45136 0.09976 0.0
H4953 H 0.4897 0.58042 0.17687 0.0
H4954 H 0.26376 0.65603 0.9123 0.0
H4955 H 0.27929 0.67807 0.8916 0.0
H4956 H 0.26731 0.72302 0.93072 0.0
H4957 H 0.25157 0.7008 0.95181 0.0
H4958 H 0.25792 0.73032 0.89326 0.0
H4959 H 0.31266 0.71269 0.92625 0.0
H4960 H 0.33402 0.69128 0.94259 0.0
H4961 H 0.34305 0.66096 0.8908 0.0
H4962 H 0.32153 0.68193 0.87419 0.0
H4963 H 0.28912 0.75772 0.80358 0.0
H4964 H 0.2956 0.75878 0.83759 0.0
H4965 H 0.29515 0.69869 0.83823 0.0
H4966 H 0.2885 0.69757 0.80456 0.0
H4967 H 0.32028 0.71475 0.86496 0.0
H4968 H 0.25312 0.72093 0.84173 0.0
H4969 H 0.22853 0.73823 0.8247 0.0
H4970 H 0.24188 0.78743 0.85763 0.0
H4971 H 0.26669 0.7704 0.87473 0.0
C4972 C 0.26435 0.67058 0.91656 0.0
C4973 C 0.25643 0.67669 0.93367 0.0
C4974 C 0.27346 0.68314 0.90482 0.0
C4975 C 0.27492 0.70206 0.90993 0.0
C4976 C 0.26661 0.70839 0.92676 0.0
C4977 C 0.25752 0.69573 0.93866 0.0
C4978 C 0.2838 0.71501 0.89652 0.0
C4979 C 0.27192 0.72761 0.88753 0.0
C4980 C 0.3021 0.71148 0.88915 0.0
C4981 C 0.31551 0.69901 0.89893 0.0
C4982 C 0.31918 0.70145 0.91833 0.0
C4983 C 0.33131 0.68936 0.92766 0.0
C4984 C 0.3399 0.67479 0.91773 0.0
C4985 C 0.33643 0.6723 0.89846 0.0
C4986 C 0.32431 0.68432 0.88906 0.0
C4987 C 0.2911 0.74477 0.81091 0.0
C4988 C 0.288 0.72753 0.80162 0.0
C4989 C 0.29482 0.74542 0.83029 0.0
C4990 C 0.29569 0.72883 0.84039 0.0
C4991 C 0.29461 0.71166 0.83067 0.0
C4992 C 0.29064 0.71101 0.81146 0.0
C4993 C 0.29373 0.72867 0.86108 0.0
C4994 C 0.3069 0.71853 0.87145 0.0
C4995 C 0.27654 0.73425 0.86967 0.0
C4996 C 0.26183 0.7445 0.85931 0.0
C4997 C 0.25086 0.73547 0.84523 0.0
C4998 C 0.23689 0.74521 0.83559 0.0
C4999 C 0.23367 0.76393 0.84005 0.0
C5000 C 0.24442 0.77294 0.85416 0.0
C5001 C 0.25844 0.76327 0.86382 0.0
H5002 H 0.22281 0.77143 0.83261 0.0
H5003 H 0.34922 0.6654 0.92496 0.0
H5004 H 0.05716 0.45481 0.70846 0.0
H5005 H 0.04248 0.45848 0.67748 0.0
H5006 H 0.09665 0.4755 0.65464 0.0
H5007 H 0.11152 0.47161 0.68551 0.0
H5008 H 0.06688 0.50155 0.65072 0.0
H5009 H 0.07919 0.43715 0.63834 0.0
H5010 H 0.07895 0.40352 0.64476 0.0
H5011 H 0.01791 0.40311 0.64621 0.0
H5012 H 0.0178 0.43682 0.64004 0.0
H5013 H 0.03749 0.51204 0.55628 0.0
H5014 H 0.05322 0.50398 0.58553 0.0
H5015 H 0.00119 0.47876 0.60558 0.0
H5016 H 0.98536 0.48636 0.57601 0.0
H5017 H 0.03046 0.45629 0.61072 0.0
H5018 H 0.0179 0.52063 0.62374 0.0
H5019 H 0.01789 0.55435 0.61778 0.0
H5020 H 0.07891 0.55518 0.61598 0.0
H5021 H 0.07928 0.52139 0.62167 0.0
C5022 C 0.06602 0.45889 0.69673 0.0
C5023 C 0.08542 0.46309 0.6994 0.0
C5024 C 0.05764 0.46093 0.67906 0.0
C5025 C 0.06851 0.46733 0.66389 0.0
C5026 C 0.08808 0.47055 0.66625 0.0
C5027 C 0.09654 0.46827 0.68386 0.0
C5028 C 0.05902 0.47272 0.6463 0.0
C5029 C 0.05918 0.49164 0.64175 0.0
C5030 C 0.04849 0.45981 0.6351 0.0
C5031 C 0.0485 0.43956 0.63893 0.0
C5032 C 0.06572 0.42994 0.64022 0.0
C5033 C 0.06565 0.41084 0.64376 0.0
C5034 C 0.04843 0.40119 0.64594 0.0
C5035 C 0.03124 0.41061 0.64454 0.0
C5036 C 0.03124 0.4297 0.641 0.0
C5037 C 0.02926 0.50501 0.56698 0.0
C5038 C 0.01014 0.49983 0.56379 0.0
C5039 C 0.03829 0.50044 0.58373 0.0
C5040 C 0.02834 0.49088 0.59777 0.0
C5041 C 0.00912 0.48612 0.59488 0.0
C5042 C 8e-05 0.49056 0.57803 0.0
C5043 C 0.03828 0.48519 0.61509 0.0
C5044 C 0.03818 0.46622 0.61964 0.0
C5045 C 0.04879 0.4981 0.62639 0.0
C5046 C 0.04861 0.51843 0.62296 0.0
C5047 C 0.03131 0.52797 0.62192 0.0
C5048 C 0.03124 0.5471 0.61862 0.0
C5049 C 0.04838 0.55689 0.61646 0.0
C5050 C 0.06564 0.54757 0.61764 0.0
C5051 C 0.06579 0.52843 0.62092 0.0
H5052 H 0.0483 0.57171 0.61391 0.0
H5053 H 0.0484 0.38641 0.64868 0.0
H5054 H 0.20412 0.31516 0.46547 0.0
H5055 H 0.20142 0.30181 0.43353 0.0
H5056 H 0.20716 0.35686 0.41045 0.0
H5057 H 0.20898 0.37023 0.44214 0.0
H5058 H 0.18169 0.339 0.39151 0.0
H5059 H 0.24506 0.32446 0.4134 0.0
H5060 H 0.26851 0.3106 0.43473 0.0
H5061 H 0.24397 0.25633 0.42408 0.0
H5062 H 0.22023 0.26993 0.40285 0.0
H5063 H 0.2327 0.32901 0.30625 0.0
H5064 H 0.2224 0.33419 0.33877 0.0
H5065 H 0.19818 0.27873 0.33975 0.0
H5066 H 0.20801 0.27357 0.30684 0.0
H5067 H 0.22695 0.29074 0.3701 0.0
H5068 H 0.16765 0.30727 0.34213 0.0
H5069 H 0.14718 0.32319 0.3194 0.0
H5070 H 0.16742 0.37632 0.34035 0.0
H5071 H 0.18824 0.36071 0.36301 0.0
C5072 C 0.20475 0.32437 0.45355 0.0
C5073 C 0.20682 0.34373 0.45628 0.0
C5074 C 0.20324 0.31674 0.43531 0.0
C5075 C 0.20428 0.32831 0.41955 0.0
C5076 C 0.20619 0.34764 0.42236 0.0
C5077 C 0.20732 0.35527 0.4405 0.0
C5078 C 0.20395 0.32054 0.40003 0.0
C5079 C 0.1916 0.32844 0.38687 0.0
C5080 C 0.21651 0.3064 0.39398 0.0
C5081 C 0.23073 0.29823 0.40676 0.0
C5082 C 0.24458 0.30959 0.41573 0.0
C5083 C 0.25794 0.30178 0.42778 0.0
C5084 C 0.25769 0.2826 0.43081 0.0
C5085 C 0.24412 0.27119 0.42176 0.0
C5086 C 0.23071 0.27894 0.40972 0.0
C5087 C 0.22494 0.31801 0.31329 0.0
C5088 C 0.22116 0.30089 0.30409 0.0
C5089 C 0.21904 0.321 0.33181 0.0
C5090 C 0.20954 0.30684 0.34153 0.0
C5091 C 0.20544 0.28981 0.33235 0.0
C5092 C 0.21099 0.28693 0.31361 0.0
C5093 C 0.20522 0.3097 0.36169 0.0
C5094 C 0.2167 0.30091 0.37492 0.0
C5095 C 0.19221 0.32333 0.36773 0.0
C5096 C 0.1796 0.33279 0.3542 0.0
C5097 C 0.16786 0.32234 0.34179 0.0
C5098 C 0.15616 0.33131 0.32894 0.0
C5099 C 0.15602 0.35075 0.32841 0.0
C5100 C 0.16754 0.36126 0.34077 0.0
C5101 C 0.17927 0.35235 0.35364 0.0
H5102 H 0.14695 0.35767 0.31845 0.0
H5103 H 0.26804 0.27658 0.44014 0.0
H5104 H 0.2712 0.41222 0.49408 0.0
H5105 H 0.30297 0.42466 0.50119 0.0
H5106 H 0.30789 0.38688 0.54752 0.0
H5107 H 0.27616 0.37402 0.54023 0.0
H5108 H 0.31472 0.42525 0.55702 0.0
H5109 H 0.3361 0.37927 0.51425 0.0
H5110 H 0.33812 0.35981 0.4854 0.0
H5111 H 0.35051 0.40834 0.45285 0.0
H5112 H 0.34821 0.42817 0.48144 0.0
H5113 H 0.41241 0.46123 0.5661 0.0
H5114 H 0.38283 0.44277 0.56619 0.0
H5115 H 0.36543 0.46857 0.51457 0.0
H5116 H 0.3949 0.48682 0.51427 0.0
H5117 H 0.36788 0.43045 0.51156 0.0
H5118 H 0.34199 0.47649 0.55519 0.0
H5119 H 0.34158 0.49485 0.58487 0.0
H5120 H 0.33937 0.44448 0.61661 0.0
H5121 H 0.34001 0.4258 0.5871 0.0
C5122 C 0.27917 0.40634 0.50558 0.0
C5123 C 0.27123 0.39222 0.51664 0.0
C5124 C 0.29731 0.4134 0.50958 0.0
C5125 C 0.30769 0.40664 0.52485 0.0
C5126 C 0.30005 0.3922 0.53565 0.0
C5127 C 0.282 0.38485 0.53142 0.0
C5128 C 0.32579 0.4159 0.53023 0.0
C5129 C 0.32656 0.4261 0.54729 0.0
C5130 C 0.34109 0.41701 0.51744 0.0
C5131 C 0.34179 0.40525 0.50002 0.0
C5132 C 0.33898 0.38585 0.50091 0.0
C5133 C 0.34024 0.37474 0.4846 0.0
C5134 C 0.34439 0.38284 0.4673 0.0
C5135 C 0.34726 0.40208 0.46626 0.0
C5136 C 0.34599 0.41327 0.48252 0.0
C5137 C 0.40195 0.46344 0.55516 0.0
C5138 C 0.40601 0.47526 0.54003 0.0
C5139 C 0.38512 0.45283 0.55519 0.0
C5140 C 0.37215 0.45415 0.54023 0.0
C5141 C 0.37542 0.46722 0.52611 0.0
C5142 C 0.39221 0.47769 0.526 0.0
C5143 C 0.35635 0.44056 0.53784 0.0
C5144 C 0.35614 0.42942 0.52139 0.0
C5145 C 0.34169 0.43851 0.55125 0.0
C5146 C 0.34129 0.44975 0.56895 0.0
C5147 C 0.3416 0.46933 0.5685 0.0
C5148 C 0.34128 0.47979 0.58529 0.0
C5149 C 0.34052 0.47084 0.60262 0.0
C5150 C 0.34 0.4514 0.60318 0.0
C5151 C 0.34033 0.44087 0.58643 0.0
H5152 H 0.34027 0.47897 0.6156 0.0
H5153 H 0.34544 0.3742 0.4547 0.0
H5154 H 0.81623 0.08472 0.47291 0.0
H5155 H 0.84258 0.06753 0.45945 0.0
H5156 H 0.81245 0.0157 0.46869 0.0
H5157 H 0.78614 0.03291 0.4829 0.0
H5158 H 0.84682 0.0128 0.48011 0.0
H5159 H 0.82058 0.03217 0.42282 0.0
H5160 H 0.80585 0.05338 0.40025 0.0
H5161 H 0.85624 0.08782 0.4009 0.0
H5162 H 0.87119 0.06701 0.4237 0.0
H5163 H 0.93711 0.98178 0.45226 0.0
H5164 H 0.90362 0.98572 0.4434 0.0
H5165 H 0.90917 0.04485 0.45423 0.0
H5166 H 0.94227 0.04089 0.46355 0.0
H5167 H 0.88242 0.03409 0.42393 0.0
H5168 H 0.89989 0.02057 0.49042 0.0
H5169 H 0.91472 0.00024 0.51383 0.0
H5170 H 0.87968 0.95428 0.49452 0.0
H5171 H 0.86485 0.97434 0.47082 0.0
C5172 C 0.81514 0.06966 0.47201 0.0
C5173 C 0.79915 0.06016 0.47904 0.0
C5174 C 0.83013 0.05984 0.46406 0.0
C5175 C 0.8293 0.04032 0.46256 0.0
C5176 C 0.8133 0.03076 0.46951 0.0
C5177 C 0.79836 0.0406 0.47773 0.0
C5178 C 0.84607 0.03009 0.45554 0.0
C5179 C 0.85421 0.01696 0.46742 0.0
C5180 C 0.8558 0.03546 0.43898 0.0
C5181 C 0.84702 0.04797 0.42501 0.0
C5182 C 0.82851 0.0443 0.41822 0.0
C5183 C 0.82011 0.05626 0.40538 0.0
C5184 C 0.8301 0.07194 0.39915 0.0
C5185 C 0.84853 0.07565 0.40572 0.0
C5186 C 0.857 0.06374 0.41857 0.0
C5187 C 0.93131 -0.00433 0.45201 0.0
C5188 C 0.94202 0.01104 0.45875 0.0
C5189 C 0.91226 -0.0021 0.44693 0.0
C5190 C 0.904 0.01555 0.44826 0.0
C5191 C 0.91536 0.03114 0.453 0.0
C5192 C 0.93418 0.02887 0.45845 0.0
C5193 C 0.8832 0.01762 0.44893 0.0
C5194 C 0.87441 0.02926 0.43599 0.0
C5195 C 0.87274 0.0108 0.4644 0.0
C5196 C 0.88145 -0.00115 0.47876 0.0
C5197 C 0.89545 0.0061 0.49112 0.0
C5198 C 0.90384 -0.00536 0.50443 0.0
C5199 C 0.89818 0.97597 0.50563 0.0
C5200 C 0.88408 0.96873 0.49355 0.0
C5201 C 0.87569 0.98013 0.48017 0.0
H5202 H 0.90469 0.96712 0.51595 0.0
H5203 H 0.82356 0.0812 0.38923 0.0
H5204 H 0.63471 0.01704 0.23775 0.0
H5205 H 0.65156 0.04642 0.2325 0.0
H5206 H 0.59878 0.07221 0.21733 0.0
H5207 H 0.58178 0.0428 0.22232 0.0
H5208 H 0.62775 0.08423 0.19519 0.0
H5209 H 0.61531 0.07751 0.26115 0.0
H5210 H 0.61551 0.06168 0.29175 0.0
H5211 H 0.67654 0.06102 0.29101 0.0
H5212 H 0.67669 0.07661 0.26027 0.0
H5213 H 0.66842 0.17251 0.24817 0.0
H5214 H 0.65052 0.14334 0.24632 0.0
H5215 H 0.68174 0.12719 0.1965 0.0
H5216 H 0.69951 0.15687 0.19798 0.0
H5217 H 0.66322 0.11019 0.2504 0.0
H5218 H 0.65385 0.09623 0.17022 0.0
H5219 H 0.65018 0.11388 0.14092 0.0
H5220 H 0.62682 0.15971 0.1724 0.0
H5221 H 0.63012 0.14224 0.20184 0.0
C5222 C 0.62667 0.02891 0.23316 0.0
C5223 C 0.60686 0.02763 0.23068 0.0
C5224 C 0.63634 0.04567 0.23014 0.0
C5225 C 0.62637 0.06152 0.22477 0.0
C5226 C 0.60673 0.06012 0.22148 0.0
C5227 C 0.59704 0.04332 0.22443 0.0
C5228 C 0.63619 0.07983 0.22396 0.0
C5229 C 0.63558 0.08993 0.2072 0.0
C5230 C 0.64603 0.08737 0.2398 0.0
C5231 C 0.646 0.07805 0.25832 0.0
C5232 C 0.62877 0.07385 0.26745 0.0
C5233 C 0.62882 0.06495 0.28482 0.0
C5234 C 0.64603 0.0603 0.29329 0.0
C5235 C 0.66322 0.0646 0.28442 0.0
C5236 C 0.66325 0.07348 0.26703 0.0
C5237 C 0.67142 0.16284 0.2367 0.0
C5238 C 0.6855 0.1669 0.22329 0.0
C5239 C 0.66117 0.14615 0.23569 0.0
C5240 C 0.66482 0.13305 0.22133 0.0
C5241 C 0.67855 0.1372 0.20759 0.0
C5242 C 0.68872 0.15411 0.20847 0.0
C5243 C 0.65488 0.11472 0.22158 0.0
C5244 C 0.65552 0.10453 0.23828 0.0
C5245 C 0.64462 0.10742 0.20588 0.0
C5246 C 0.64245 0.118 0.18825 0.0
C5247 C 0.64789 0.11006 0.17088 0.0
C5248 C 0.64588 0.12003 0.15425 0.0
C5249 C 0.63834 0.13793 0.15481 0.0
C5250 C 0.63273 0.14587 0.172 0.0
C5251 C 0.6347 0.13595 0.18866 0.0
H5252 H 0.6368 0.14563 0.14192 0.0
H5253 H 0.64605 0.05341 0.30674 0.0
H5254 H 0.66518 0.89771 0.04529 0.0
H5255 H 0.63985 0.91582 0.03128 0.0
H5256 H 0.6206 0.8672 -0.00029 0.0
H5257 H 0.6457 0.84888 0.01406 0.0
H5258 H 0.63679 0.92347 -0.00501 0.0
H5259 H 0.5743 0.8714 0.98865 0.0
H5260 H 0.56008 0.8449 0.00559 0.0
H5261 H 0.58225 0.86692 0.05795 0.0
H5262 H 0.59661 0.89351 0.04131 0.0
H5263 H 0.5318 0.94356 0.9594 0.0
H5264 H 0.5593 0.92343 0.96216 0.0
H5265 H 0.5873 0.96484 -0.00234 0.0
H5266 H 0.56016 0.98517 -0.00538 0.0
H5267 H 0.56767 0.90932 -0.00561 0.0
H5268 H 0.63419 0.95879 0.00016 0.0
H5269 H 0.64749 0.98614 0.98399 0.0
H5270 H 0.61602 0.97114 0.93394 0.0
H5271 H 0.60274 0.94354 0.9497 0.0
C5272 C 0.65525 0.89077 0.03573 0.0
C5273 C 0.65742 0.87191 0.03074 0.0
C5274 C 0.64089 0.90116 0.02761 0.0
C5275 C 0.62845 0.89291 0.01433 0.0
C5276 C 0.62995 0.87382 0.01004 0.0
C5277 C 0.64426 0.86334 0.0183 0.0
C5278 C 0.61471 0.90465 0.00427 0.0
C5279 C 0.62162 0.92054 -0.00495 0.0
C5280 C 0.59507 0.90032 0.0036 0.0
C5281 C 0.58671 0.88429 0.0137 0.0
C5282 C 0.57617 0.87054 0.00377 0.0
C5283 C 0.56812 0.8555 0.01332 0.0
C5284 C 0.5703 0.8542 0.03283 0.0
C5285 C 0.58062 0.8679 0.04283 0.0
C5286 C 0.58879 0.88292 0.03334 0.0
C5287 C 0.54407 0.94865 0.96728 0.0
C5288 C 0.54365 0.96584 0.97707 0.0
C5289 C 0.55978 0.9371 0.96885 0.0
C5290 C 0.57532 0.94255 0.9802 0.0
C5291 C 0.57561 0.96039 0.98861 0.0
C5292 C 0.55998 0.97201 0.98694 0.0
C5293 C 0.58955 0.92868 0.98591 0.0
C5294 C 0.58281 0.91225 -0.00581 0.0
C5295 C 0.60929 0.93263 0.98585 0.0
C5296 C 0.61737 0.94913 0.97618 0.0
C5297 C 0.63018 0.96125 0.98567 0.0
C5298 C 0.6377 0.97682 0.97658 0.0
C5299 C 0.63257 0.9804 0.95797 0.0
C5300 C 0.61994 0.96839 0.94839 0.0
C5301 C 0.61238 0.95279 0.9574 0.0
H5302 H 0.63841 -0.00754 0.95096 0.0
H5303 H 0.56397 0.8426 0.0402 0.0
H5304 H 0.36198 0.47745 0.28363 0.0
H5305 H 0.33998 0.45168 0.27647 0.0
H5306 H 0.37532 0.43442 0.22994 0.0
H5307 H 0.39759 0.46017 0.23711 0.0
H5308 H 0.33603 0.43848 0.22068 0.0
H5309 H 0.37487 0.40805 0.26591 0.0
H5310 H 0.39181 0.4047 0.29611 0.0
H5311 H 0.33897 0.40835 0.32605 0.0
H5312 H 0.32174 0.41199 0.29604 0.0
H5313 H 0.28465 0.35187 0.2056 0.0
H5314 H 0.30655 0.3786 0.20834 0.0
H5315 H 0.28184 0.39338 0.26212 0.0
H5316 H 0.26068 0.36619 0.25977 0.0
H5317 H 0.31788 0.38963 0.26608 0.0
H5318 H 0.27886 0.42126 0.22132 0.0
H5319 H 0.26168 0.42519 0.19135 0.0
H5320 H 0.31397 0.41994 0.16073 0.0
H5321 H 0.33144 0.41573 0.19052 0.0
C5322 C 0.36525 0.468 0.27206 0.0
C5323 C 0.38152 0.47082 0.26094 0.0
C5324 C 0.35267 0.45331 0.26799 0.0
C5325 C 0.35604 0.44123 0.25265 0.0
C5326 C 0.3725 0.44366 0.2418 0.0
C5327 C 0.38527 0.45825 0.24603 0.0
C5328 C 0.3419 0.42654 0.24769 0.0
C5329 C 0.3322 0.42757 0.23043 0.0
C5330 C 0.33672 0.41267 0.26064 0.0
C5331 C 0.34704 0.41046 0.27873 0.0
C5332 C 0.36688 0.4083 0.27895 0.0
C5333 C 0.37653 0.40631 0.29603 0.0
C5334 C 0.36648 0.40636 0.31299 0.0
C5335 C 0.34674 0.40834 0.3129 0.0
C5336 C 0.33702 0.41034 0.29586 0.0
C5337 C 0.28345 0.36128 0.21763 0.0
C5338 C 0.27106 0.35707 0.23249 0.0
C5339 C 0.296 0.37652 0.21923 0.0
C5340 C 0.29594 0.38796 0.23552 0.0
C5341 C 0.28229 0.38466 0.24953 0.0
C5342 C 0.27009 0.36924 0.24812 0.0
C5343 C 0.31147 0.40176 0.23921 0.0
C5344 C 0.32159 0.40049 0.25624 0.0
C5345 C 0.3169 0.41545 0.22607 0.0
C5346 C 0.30642 0.41798 0.20815 0.0
C5347 C 0.28667 0.42078 0.20819 0.0
C5348 C 0.27689 0.42309 0.19123 0.0
C5349 C 0.28672 0.42276 0.17414 0.0
C5350 C 0.30637 0.42017 0.17398 0.0
C5351 C 0.31622 0.41784 0.19089 0.0
H5352 H 0.27912 0.42455 0.16103 0.0
H5353 H 0.37397 0.40482 0.3262 0.0
H5354 H 0.17411 0.62374 -0.00721 0.0
H5355 H 0.15361 0.60191 0.00985 0.0
H5356 H 0.18137 0.55566 0.9824 0.0
H5357 H 0.20161 0.57729 0.96516 0.0
H5358 H 0.14397 0.54988 0.98466 0.0
H5359 H 0.19414 0.57088 0.02635 0.0
H5360 H 0.21366 0.59374 0.04438 0.0
H5361 H 0.16432 0.61126 0.07505 0.0
H5362 H 0.14439 0.58901 0.0568 0.0
H5363 H 0.09488 0.48697 0.03665 0.0
H5364 H 0.12596 0.50141 0.03047 0.0
H5365 H 0.10585 0.55357 0.05338 0.0
H5366 H 0.07518 0.53904 0.05995 0.0
H5367 H 0.14386 0.55305 0.05461 0.0
H5368 H 0.09367 0.54009 0.00843 0.0
H5369 H 0.07182 0.51917 0.99066 0.0
H5370 H 0.11925 0.48871 0.96875 0.0
H5371 H 0.1414 0.50937 0.98664 0.0
C5372 C 0.17546 0.60893 0.99003 0.0
C5373 C 0.18949 0.60217 0.97773 0.0
C5374 C 0.16396 0.59649 -2e-05 0.0
C5375 C 0.16639 0.5772 -0.00225 0.0
C5376 C 0.17945 0.5705 0.98449 0.0
C5377 C 0.19092 0.58287 0.97459 0.0
C5378 C 0.1555 0.56387 0.00932 0.0
C5379 C 0.14426 0.55037 -4e-05 0.0
C5380 C 0.15569 0.5647 0.02929 0.0
C5381 C 0.16771 0.57836 0.04005 0.0
C5382 C 0.18739 0.5798 0.03675 0.0
C5383 C 0.19854 0.59269 0.047 0.0
C5384 C 0.19021 0.60409 0.06075 0.0
C5385 C 0.17073 0.6026 0.06427 0.0
C5386 C 0.1595 0.58984 0.05397 0.0
C5387 C 0.09762 0.50113 0.04156 0.0
C5388 C 0.08278 0.51202 0.04863 0.0
C5389 C 0.11528 0.50944 0.03784 0.0
C5390 C 0.11792 0.52872 0.04084 0.0
C5391 C 0.10409 0.53873 0.05078 0.0
C5392 C 0.08656 0.53041 0.05461 0.0
C5393 C 0.13222 0.53929 0.02993 0.0
C5394 C 0.14403 0.55233 0.03933 0.0
C5395 C 0.13236 0.53834 0.00996 0.0
C5396 C 0.11913 0.52608 -0.00097 0.0
C5397 C 0.09941 0.52887 -0.00012 0.0
C5398 C 0.08698 0.51706 0.9898 0.0
C5399 C 0.09412 0.50256 0.97863 0.0
C5400 C 0.11373 0.49991 0.97745 0.0
C5401 C 0.12623 0.51165 0.98756 0.0
H5402 H 0.08447 0.4934 0.97085 0.0
H5403 H 0.19884 0.614 0.06877 0.0
H5404 H 0.65559 0.95301 0.28732 0.0
H5405 H 0.68185 0.93309 0.29661 0.0
H5406 H 0.6539 0.88599 0.26914 0.0
H5407 H 0.6271 0.90558 0.26116 0.0
H5408 H 0.66982 0.87384 0.29744 0.0
H5409 H 0.69108 0.91412 0.24816 0.0
H5410 H 0.69769 0.94406 0.23276 0.0
H5411 H 0.7359 0.96002 0.27768 0.0
H5412 H 0.72934 0.93023 0.29345 0.0
H5413 H 0.7596 0.83582 0.25708 0.0
H5414 H 0.73982 0.86312 0.26063 0.0
H5415 H 0.73114 0.85077 0.31932 0.0
H5416 H 0.75061 0.82301 0.31579 0.0
H5417 H 0.73502 0.89436 0.27997 0.0
H5418 H 0.68361 0.85281 0.32756 0.0
H5419 H 0.67651 0.82002 0.33528 0.0
H5420 H 0.69688 0.80234 0.28092 0.0
H5421 H 0.70377 0.835 0.27281 0.0
C5422 C 0.65502 0.93833 0.28353 0.0
C5423 C 0.63947 0.93078 0.27345 0.0
C5424 C 0.67006 0.92699 0.28873 0.0
C5425 C 0.67011 0.9081 0.28322 0.0
C5426 C 0.65423 0.90049 0.27362 0.0
C5427 C 0.63894 0.91169 0.26898 0.0
C5428 C 0.68696 0.89636 0.28657 0.0
C5429 C 0.68407 0.87845 0.29377 0.0
C5430 C 0.7056 0.90216 0.28151 0.0
C5431 C 0.70953 0.92008 0.27209 0.0
C5432 C 0.70078 0.92408 0.25481 0.0
C5433 C 0.70453 0.941 0.24601 0.0
C5434 C 0.71715 0.95396 0.25427 0.0
C5435 C 0.72609 0.94999 0.27132 0.0
C5436 C 0.72237 0.93309 0.2802 0.0
C5437 C 0.75393 0.83914 0.2709 0.0
C5438 C 0.7562 0.82694 0.28602 0.0
C5439 C 0.74271 0.85486 0.27293 0.0
C5440 C 0.73364 0.85867 0.29011 0.0
C5441 C 0.73777 0.84783 0.30585 0.0
C5442 C 0.74894 0.83199 0.30381 0.0
C5443 C 0.71772 0.87189 0.2905 0.0
C5444 C 0.72079 0.89002 0.28406 0.0
C5445 C 0.69906 0.86593 0.29513 0.0
C5446 C 0.69451 0.8463 0.29974 0.0
C5447 C 0.68653 0.84191 0.31727 0.0
C5448 C 0.68255 0.82336 0.3217 0.0
C5449 C 0.6864 0.8091 0.30866 0.0
C5450 C 0.69408 0.81337 0.29108 0.0
C5451 C 0.698 0.8319 0.28656 0.0
H5452 H 0.68332 0.79475 0.31213 0.0
H5453 H 0.72005 0.96705 0.24743 0.0
H5454 H 0.84365 0.05115 0.78553 0.0
H5455 H 0.82445 0.07785 0.7947 0.0
H5456 H 0.87494 0.1126 0.79745 0.0
H5457 H 0.89436 0.08577 0.78877 0.0
H5458 H 0.84687 0.12382 0.8235 0.0
H5459 H 0.85285 0.10893 0.75697 0.0
H5460 H 0.85113 0.08804 0.72904 0.0
H5461 H 0.79161 0.07839 0.73886 0.0
H5462 H 0.79306 0.09903 0.76703 0.0
H5463 H 0.81081 0.2101 0.78892 0.0
H5464 H 0.82768 0.18216 0.79848 0.0
H5465 H 0.77629 0.14939 0.79047 0.0
H5466 H 0.7596 0.17705 0.78041 0.0
H5467 H 0.80393 0.1364 0.76974 0.0
H5468 H 0.79719 0.15523 0.83427 0.0
H5469 H 0.79938 0.17656 0.8618 0.0
H5470 H 0.86004 0.17986 0.85564 0.0
H5471 H 0.8582 0.15875 0.82789 0.0
C5472 C 0.85072 0.06437 0.78853 0.0
C5473 C 0.87042 0.06654 0.786 0.0
C5474 C 0.83976 0.07957 0.79386 0.0
C5475 C 0.84827 0.09723 0.79635 0.0
C5476 C 0.86813 0.09908 0.79554 0.0
C5477 C 0.87917 0.08378 0.79044 0.0
C5478 C 0.83636 0.114 0.79653 0.0
C5479 C 0.8375 0.12669 0.81177 0.0
C5480 C 0.82406 0.11756 0.78126 0.0
C5481 C 0.82311 0.10535 0.7642 0.0
C5482 C 0.83943 0.10225 0.75324 0.0
C5483 C 0.8385 0.09047 0.73736 0.0
C5484 C 0.82128 0.08185 0.73221 0.0
C5485 C 0.80494 0.08505 0.74289 0.0
C5486 C 0.80581 0.09679 0.7588 0.0
C5487 C 0.80304 0.197 0.78965 0.0
C5488 C 0.78403 0.19562 0.78362 0.0
C5489 C 0.81265 0.18108 0.79523 0.0
C5490 C 0.80323 0.16369 0.79515 0.0
C5491 C 0.78384 0.16265 0.79053 0.0
C5492 C 0.77436 0.17844 0.78472 0.0
C5493 C 0.81406 0.14629 0.79687 0.0
C5494 C 0.81296 0.13351 0.78174 0.0
C5495 C 0.82637 0.14282 0.8122 0.0
C5496 C 0.82754 0.15552 0.82889 0.0
C5497 C 0.81099 0.16062 0.83868 0.0
C5498 C 0.81217 0.17265 0.85435 0.0
C5499 C 0.82983 0.1796 0.86044 0.0
C5500 C 0.84636 0.17449 0.8509 0.0
C5501 C 0.84526 0.16247 0.83521 0.0
H5502 H 0.83072 0.18891 0.87258 0.0
H5503 H 0.82059 0.07273 0.71992 0.0
loop_
_geom_bond_atom_site_label_1
_geom_bond_atom_site_label_2
_geom_bond_distance
_geom_bond_site_symmetry_2
_ccdc_geom_bond_type
C0 O1 1.306 . S
C0 O3 1.160 . S
O1 C0 1.306 . S
O1 Cd2 2.228 1_655 S
Cd2 O1 2.228 1_455 S
Cd2 O6 2.273 . S
Cd2 O10 2.277 . S
O3 C0 1.160 . S
O3 Cd4 2.203 1_655 S
Cd4 O3 2.203 1_455 S
Cd4 O6 2.411 . S
Cd4 O7 2.333 . S
Cd4 O8 2.352 . S
Cd4 O12 2.277 . S
Cd4 O13 2.356 . S
C5 O10 1.209 . S
C5 O12 1.226 . S
O6 Cd2 2.273 . S
O6 Cd4 2.411 . S
O6 C9 1.320 . S
O7 Cd4 2.333 . S
O7 C9 1.214 . S
O8 Cd4 2.352 . S
O8 C11 1.258 . S
C9 O6 1.320 . S
C9 O7 1.214 . S
O10 Cd2 2.277 . S
O10 C5 1.209 . S
C11 O8 1.258 . S
C11 O13 1.282 . S
O12 Cd4 2.277 . S
O12 C5 1.226 . S
O13 Cd4 2.356 . S
O13 C11 1.282 . S
C14 O15 1.306 . S
C14 O17 1.160 . S
O15 C14 1.306 . S
O15 Cd16 2.228 1_655 S
Cd16 O15 2.228 1_455 S
Cd16 O20 2.273 . S
Cd16 O24 2.277 . S
O17 C14 1.160 . S
O17 Cd18 2.203 1_655 S
Cd18 O17 2.203 1_455 S
Cd18 O20 2.411 . S
Cd18 O21 2.333 . S
Cd18 O22 2.352 . S
Cd18 O26 2.277 . S
Cd18 O27 2.356 . S
C19 O24 1.209 . S
C19 O26 1.226 . S
O20 Cd16 2.273 . S
O20 Cd18 2.411 . S
O20 C23 1.320 . S
O21 Cd18 2.333 . S
O21 C23 1.214 . S
O22 Cd18 2.352 . S
O22 C25 1.258 . S
C23 O20 1.320 . S
C23 O21 1.214 . S
O24 Cd16 2.277 . S
O24 C19 1.209 . S
C25 O22 1.258 . S
C25 O27 1.282 . S
O26 Cd18 2.277 . S
O26 C19 1.226 . S
O27 Cd18 2.356 . S
O27 C25 1.282 . S
C28 O29 1.306 . S
C28 O31 1.160 . S
O29 C28 1.306 . S
O29 Cd30 2.228 . S
Cd30 O29 2.228 . S
Cd30 O34 2.273 . S
Cd30 O38 2.277 . S
O31 C28 1.160 . S
O31 Cd32 2.203 . S
Cd32 O31 2.203 . S
Cd32 O34 2.411 . S
Cd32 O35 2.333 . S
Cd32 O36 2.352 . S
Cd32 O40 2.277 . S
Cd32 O41 2.356 . S
C33 O38 1.209 . S
C33 O40 1.226 . S
O34 Cd30 2.273 . S
O34 Cd32 2.411 . S
O34 C37 1.320 . S
O35 Cd32 2.333 . S
O35 C37 1.214 . S
O36 Cd32 2.352 . S
O36 C39 1.258 . S
C37 O34 1.320 . S
C37 O35 1.214 . S
O38 Cd30 2.277 . S
O38 C33 1.209 . S
C39 O36 1.258 . S
C39 O41 1.282 . S
O40 Cd32 2.277 . S
O40 C33 1.226 . S
O41 Cd32 2.356 . S
O41 C39 1.282 . S
C42 O43 1.306 . S
C42 O45 1.160 . S
O43 C42 1.306 . S
O43 Cd44 2.228 . S
Cd44 O43 2.228 . S
Cd44 O48 2.273 . S
Cd44 O52 2.277 . S
O45 C42 1.160 . S
O45 Cd46 2.203 . S
Cd46 O45 2.203 . S
Cd46 O48 2.411 . S
Cd46 O49 2.333 . S
Cd46 O50 2.352 . S
Cd46 O54 2.277 . S
Cd46 O55 2.356 . S
C47 O52 1.209 . S
C47 O54 1.226 . S
O48 Cd44 2.273 . S
O48 Cd46 2.411 . S
O48 C51 1.320 . S
O49 Cd46 2.333 . S
O49 C51 1.214 . S
O50 Cd46 2.352 . S
O50 C53 1.258 . S
C51 O48 1.320 . S
C51 O49 1.214 . S
O52 Cd44 2.277 . S
O52 C47 1.209 . S
C53 O50 1.258 . S
C53 O55 1.282 . S
O54 Cd46 2.277 . S
O54 C47 1.226 . S
O55 Cd46 2.356 . S
O55 C53 1.282 . S
C56 O57 1.306 . S
C56 O59 1.160 . S
O57 C56 1.306 . S
O57 Cd58 2.228 . S
Cd58 O57 2.228 . S
Cd58 O62 2.273 . S
Cd58 O66 2.277 . S
O59 C56 1.160 . S
O59 Cd60 2.203 . S
Cd60 O59 2.203 . S
Cd60 O62 2.411 . S
Cd60 O63 2.333 . S
Cd60 O64 2.352 1_545 S
Cd60 O68 2.277 . S
Cd60 O69 2.356 1_545 S
C61 O66 1.209 . S
C61 O68 1.226 . S
O62 Cd58 2.273 . S
O62 Cd60 2.411 . S
O62 C65 1.320 . S
O63 Cd60 2.333 . S
O63 C65 1.214 . S
O64 Cd60 2.352 1_565 S
O64 C67 1.258 . S
C65 O62 1.320 . S
C65 O63 1.214 . S
O66 Cd58 2.277 . S
O66 C61 1.209 . S
C67 O64 1.258 . S
C67 O69 1.282 . S
O68 Cd60 2.277 . S
O68 C61 1.226 . S
O69 Cd60 2.356 1_565 S
O69 C67 1.282 . S
C70 O71 1.306 . S
C70 O73 1.160 . S
O71 C70 1.306 . S
O71 Cd72 2.228 . S
Cd72 O71 2.228 . S
Cd72 O76 2.273 . S
Cd72 O80 2.277 . S
O73 C70 1.160 . S
O73 Cd74 2.203 . S
Cd74 O73 2.203 . S
Cd74 O76 2.411 . S
Cd74 O77 2.333 . S
Cd74 O78 2.352 . S
Cd74 O82 2.277 . S
Cd74 O83 2.356 . S
C75 O80 1.209 . S
C75 O82 1.226 . S
O76 Cd72 2.273 . S
O76 Cd74 2.411 . S
O76 C79 1.320 . S
O77 Cd74 2.333 . S
O77 C79 1.214 . S
O78 Cd74 2.352 . S
O78 C81 1.258 . S
C79 O76 1.320 . S
C79 O77 1.214 . S
O80 Cd72 2.277 . S
O80 C75 1.209 . S
C81 O78 1.258 . S
C81 O83 1.282 . S
O82 Cd74 2.277 . S
O82 C75 1.226 . S
O83 Cd74 2.356 . S
O83 C81 1.282 . S
C84 O85 1.306 . S
C84 O87 1.160 1_565 S
O85 C84 1.306 . S
O85 Cd86 2.228 . S
Cd86 O85 2.228 . S
Cd86 O90 2.268 1_565 S
Cd86 O94 2.277 . S
O87 C84 1.160 1_545 S
O87 Cd88 2.203 . S
Cd88 O87 2.203 . S
Cd88 O90 2.412 . S
Cd88 O91 2.333 . S
Cd88 O92 2.352 . S
Cd88 O96 2.277 1_545 S
Cd88 O97 2.356 . S
C89 O94 1.209 . S
C89 O96 1.226 . S
O90 Cd86 2.268 1_545 S
O90 Cd88 2.412 . S
O90 C93 1.321 . S
O91 Cd88 2.333 . S
O91 C93 1.214 . S
O92 Cd88 2.352 . S
O92 C95 1.258 . S
C93 O90 1.321 . S
C93 O91 1.214 . S
O94 Cd86 2.277 . S
O94 C89 1.209 . S
C95 O92 1.258 . S
C95 O97 1.282 . S
O96 Cd88 2.277 1_565 S
O96 C89 1.226 . S
O97 Cd88 2.356 . S
O97 C95 1.282 . S
C98 O99 1.306 . S
C98 O101 1.160 . S
O99 C98 1.306 . S
O99 Cd100 2.228 . S
Cd100 O99 2.228 . S
Cd100 O104 2.273 . S
Cd100 O108 2.277 . S
O101 C98 1.160 . S
O101 Cd102 2.203 . S
Cd102 O101 2.203 . S
Cd102 O104 2.411 . S
Cd102 O105 2.333 . S
Cd102 O106 2.352 1_554 S
Cd102 O110 2.277 . S
Cd102 O111 2.356 1_554 S
C103 O108 1.209 . S
C103 O110 1.226 . S
O104 Cd100 2.273 . S
O104 Cd102 2.411 . S
O104 C107 1.320 . S
O105 Cd102 2.333 . S
O105 C107 1.214 . S
O106 Cd102 2.352 1_556 S
O106 C109 1.258 . S
C107 O104 1.320 . S
C107 O105 1.214 . S
O108 Cd100 2.277 . S
O108 C103 1.209 . S
C109 O106 1.258 . S
C109 O111 1.282 . S
O110 Cd102 2.277 . S
O110 C103 1.226 . S
O111 Cd102 2.356 1_556 S
O111 C109 1.282 . S
C112 O113 1.287 1_554 S
C112 O115 1.160 . S
O113 C112 1.287 1_556 S
O113 Cd114 2.255 . S
Cd114 O113 2.255 . S
Cd114 O118 2.273 1_556 S
Cd114 O122 2.277 . S
O115 C112 1.160 . S
O115 Cd116 2.203 . S
Cd116 O115 2.203 . S
Cd116 O118 2.411 . S
Cd116 O119 2.333 . S
Cd116 O120 2.352 . S
Cd116 O124 2.277 1_554 S
Cd116 O125 2.356 . S
C117 O122 1.209 . S
C117 O124 1.226 . S
O118 Cd114 2.273 1_554 S
O118 Cd116 2.411 . S
O118 C121 1.320 . S
O119 Cd116 2.333 . S
O119 C121 1.214 . S
O120 Cd116 2.352 . S
O120 C123 1.258 . S
C121 O118 1.320 . S
C121 O119 1.214 . S
O122 Cd114 2.277 . S
O122 C117 1.209 . S
C123 O120 1.258 . S
C123 O125 1.282 . S
O124 Cd116 2.277 1_556 S
O124 C117 1.226 . S
O125 Cd116 2.356 . S
O125 C123 1.282 . S
C126 O127 1.306 . S
C126 O129 1.160 . S
O127 C126 1.306 . S
O127 Cd128 2.228 . S
Cd128 O127 2.228 . S
Cd128 O132 2.273 . S
Cd128 O136 2.277 . S
O129 C126 1.160 . S
O129 Cd130 2.203 . S
Cd130 O129 2.203 . S
Cd130 O132 2.411 . S
Cd130 O133 2.333 . S
Cd130 O134 2.352 . S
Cd130 O138 2.277 . S
Cd130 O139 2.356 . S
C131 O136 1.209 . S
C131 O138 1.226 . S
O132 Cd128 2.273 . S
O132 Cd130 2.411 . S
O132 C135 1.320 . S
O133 Cd130 2.333 . S
O133 C135 1.214 . S
O134 Cd130 2.352 . S
O134 C137 1.258 . S
C135 O132 1.320 . S
C135 O133 1.214 . S
O136 Cd128 2.277 . S
O136 C131 1.209 . S
C137 O134 1.258 . S
C137 O139 1.282 . S
O138 Cd130 2.277 . S
O138 C131 1.226 . S
O139 Cd130 2.356 . S
O139 C137 1.282 . S
C140 O141 1.306 . S
C140 O143 1.160 . S
O141 C140 1.306 . S
O141 Cd142 2.228 . S
Cd142 O141 2.228 . S
Cd142 O146 2.273 . S
Cd142 O150 2.277 . S
O143 C140 1.160 . S
O143 Cd144 2.203 . S
Cd144 O143 2.203 . S
Cd144 O146 2.411 . S
Cd144 O147 2.333 . S
Cd144 O148 2.352 . S
Cd144 O152 2.277 . S
Cd144 O153 2.356 . S
C145 O150 1.209 . S
C145 O152 1.226 . S
O146 Cd142 2.273 . S
O146 Cd144 2.411 . S
O146 C149 1.320 . S
O147 Cd144 2.333 . S
O147 C149 1.214 . S
O148 Cd144 2.352 . S
O148 C151 1.258 . S
C149 O146 1.320 . S
C149 O147 1.214 . S
O150 Cd142 2.277 . S
O150 C145 1.209 . S
C151 O148 1.258 . S
C151 O153 1.282 . S
O152 Cd144 2.277 . S
O152 C145 1.226 . S
O153 Cd144 2.356 . S
O153 C151 1.282 . S
C154 O155 1.306 . S
C154 O157 1.160 . S
O155 C154 1.306 . S
O155 Cd156 2.228 . S
Cd156 O155 2.228 . S
Cd156 O160 2.273 . S
Cd156 O164 2.277 . S
O157 C154 1.160 . S
O157 Cd158 2.203 . S
Cd158 O157 2.203 . S
Cd158 O160 2.411 . S
Cd158 O161 2.333 . S
Cd158 O162 2.352 . S
Cd158 O166 2.277 . S
Cd158 O167 2.356 . S
C159 O164 1.209 . S
C159 O166 1.226 . S
O160 Cd156 2.273 . S
O160 Cd158 2.411 . S
O160 C163 1.320 . S
O161 Cd158 2.333 . S
O161 C163 1.214 . S
O162 Cd158 2.352 . S
O162 C165 1.258 . S
C163 O160 1.320 . S
C163 O161 1.214 . S
O164 Cd156 2.277 . S
O164 C159 1.209 . S
C165 O162 1.258 . S
C165 O167 1.282 . S
O166 Cd158 2.277 . S
O166 C159 1.226 . S
O167 Cd158 2.356 . S
O167 C165 1.282 . S
C168 O169 1.306 . S
C168 O171 1.160 . S
O169 C168 1.306 . S
O169 Cd170 2.228 1_655 S
Cd170 O169 2.228 1_455 S
Cd170 O174 2.273 . S
Cd170 O178 2.277 . S
O171 C168 1.160 . S
O171 Cd172 2.203 1_655 S
Cd172 O171 2.203 1_455 S
Cd172 O174 2.411 . S
Cd172 O175 2.333 . S
Cd172 O176 2.352 . S
Cd172 O180 2.277 . S
Cd172 O181 2.356 . S
C173 O178 1.209 . S
C173 O180 1.226 . S
O174 Cd170 2.273 . S
O174 Cd172 2.411 . S
O174 C177 1.320 . S
O175 Cd172 2.333 . S
O175 C177 1.214 . S
O176 Cd172 2.352 . S
O176 C179 1.258 . S
C177 O174 1.320 . S
C177 O175 1.214 . S
O178 Cd170 2.277 . S
O178 C173 1.209 . S
C179 O176 1.258 . S
C179 O181 1.282 . S
O180 Cd172 2.277 . S
O180 C173 1.226 . S
O181 Cd172 2.356 . S
O181 C179 1.282 . S
C182 O183 1.306 . S
C182 O185 1.160 . S
O183 C182 1.306 . S
O183 Cd184 2.228 1_655 S
Cd184 O183 2.228 1_455 S
Cd184 O188 2.273 . S
Cd184 O192 2.277 . S
O185 C182 1.160 . S
O185 Cd186 2.203 1_655 S
Cd186 O185 2.203 1_455 S
Cd186 O188 2.411 . S
Cd186 O189 2.333 . S
Cd186 O190 2.352 . S
Cd186 O194 2.277 . S
Cd186 O195 2.356 . S
C187 O192 1.209 . S
C187 O194 1.226 . S
O188 Cd184 2.273 . S
O188 Cd186 2.411 . S
O188 C191 1.320 . S
O189 Cd186 2.333 . S
O189 C191 1.214 . S
O190 Cd186 2.352 . S
O190 C193 1.258 . S
C191 O188 1.320 . S
C191 O189 1.214 . S
O192 Cd184 2.277 . S
O192 C187 1.209 . S
C193 O190 1.258 . S
C193 O195 1.282 . S
O194 Cd186 2.277 . S
O194 C187 1.226 . S
O195 Cd186 2.356 . S
O195 C193 1.282 . S
C196 O197 1.306 . S
C196 O199 1.160 . S
O197 C196 1.306 . S
O197 Cd198 2.228 . S
Cd198 O197 2.228 . S
Cd198 O202 2.273 . S
Cd198 O206 2.277 . S
O199 C196 1.160 . S
O199 Cd200 2.203 . S
Cd200 O199 2.203 . S
Cd200 O202 2.411 . S
Cd200 O203 2.333 . S
Cd200 O204 2.352 . S
Cd200 O208 2.277 . S
Cd200 O209 2.356 . S
C201 O206 1.209 . S
C201 O208 1.226 . S
O202 Cd198 2.273 . S
O202 Cd200 2.411 . S
O202 C205 1.320 . S
O203 Cd200 2.333 . S
O203 C205 1.214 . S
O204 Cd200 2.352 . S
O204 C207 1.258 . S
C205 O202 1.320 . S
C205 O203 1.214 . S
O206 Cd198 2.277 . S
O206 C201 1.209 . S
C207 O204 1.258 . S
C207 O209 1.282 . S
O208 Cd200 2.277 . S
O208 C201 1.226 . S
O209 Cd200 2.356 . S
O209 C207 1.282 . S
C210 O211 1.306 . S
C210 O213 1.160 . S
O211 C210 1.306 . S
O211 Cd212 2.228 . S
Cd212 O211 2.228 . S
Cd212 O216 2.273 . S
Cd212 O220 2.277 . S
O213 C210 1.160 . S
O213 Cd214 2.203 . S
Cd214 O213 2.203 . S
Cd214 O216 2.411 . S
Cd214 O217 2.333 . S
Cd214 O218 2.352 . S
Cd214 O222 2.277 . S
Cd214 O223 2.356 . S
C215 O220 1.209 . S
C215 O222 1.226 . S
O216 Cd212 2.273 . S
O216 Cd214 2.411 . S
O216 C219 1.320 . S
O217 Cd214 2.333 . S
O217 C219 1.214 . S
O218 Cd214 2.352 . S
O218 C221 1.258 . S
C219 O216 1.320 . S
C219 O217 1.214 . S
O220 Cd212 2.277 . S
O220 C215 1.209 . S
C221 O218 1.258 . S
C221 O223 1.282 . S
O222 Cd214 2.277 . S
O222 C215 1.226 . S
O223 Cd214 2.356 . S
O223 C221 1.282 . S
C224 O225 1.306 . S
C224 O227 1.160 . S
O225 C224 1.306 . S
O225 Cd226 2.228 1_545 S
Cd226 O225 2.228 1_565 S
Cd226 O230 2.273 1_565 S
Cd226 O234 2.277 . S
O227 C224 1.160 . S
O227 Cd228 2.203 . S
Cd228 O227 2.203 . S
Cd228 O230 2.411 . S
Cd228 O231 2.333 . S
Cd228 O232 2.352 . S
Cd228 O236 2.277 1_545 S
Cd228 O237 2.356 . S
C229 O234 1.209 . S
C229 O236 1.226 . S
O230 Cd226 2.273 1_545 S
O230 Cd228 2.411 . S
O230 C233 1.320 . S
O231 Cd228 2.333 . S
O231 C233 1.214 . S
O232 Cd228 2.352 . S
O232 C235 1.258 . S
C233 O230 1.320 . S
C233 O231 1.214 . S
O234 Cd226 2.277 . S
O234 C229 1.209 . S
C235 O232 1.258 . S
C235 O237 1.282 . S
O236 Cd228 2.277 1_565 S
O236 C229 1.226 . S
O237 Cd228 2.356 . S
O237 C235 1.282 . S
C238 O239 1.306 . S
C238 O241 1.160 . S
O239 C238 1.306 . S
O239 Cd240 2.228 . S
Cd240 O239 2.228 . S
Cd240 O244 2.273 . S
Cd240 O248 2.277 . S
O241 C238 1.160 . S
O241 Cd242 2.203 . S
Cd242 O241 2.203 . S
Cd242 O244 2.411 . S
Cd242 O245 2.333 . S
Cd242 O246 2.352 . S
Cd242 O250 2.277 . S
Cd242 O251 2.356 . S
C243 O248 1.209 . S
C243 O250 1.226 . S
O244 Cd240 2.273 . S
O244 Cd242 2.411 . S
O244 C247 1.320 . S
O245 Cd242 2.333 . S
O245 C247 1.214 . S
O246 Cd242 2.352 . S
O246 C249 1.258 . S
C247 O244 1.320 . S
C247 O245 1.214 . S
O248 Cd240 2.277 . S
O248 C243 1.209 . S
C249 O246 1.258 . S
C249 O251 1.282 . S
O250 Cd242 2.277 . S
O250 C243 1.226 . S
O251 Cd242 2.356 . S
O251 C249 1.282 . S
C252 O253 1.306 . S
C252 O255 1.160 1_545 S
O253 C252 1.306 . S
O253 Cd254 2.228 . S
Cd254 O253 2.228 . S
Cd254 O258 2.273 . S
Cd254 O262 2.277 . S
O255 C252 1.160 1_565 S
O255 Cd256 2.203 . S
Cd256 O255 2.203 . S
Cd256 O258 2.411 1_565 S
Cd256 O259 2.333 . S
Cd256 O260 2.352 . S
Cd256 O264 2.277 1_565 S
Cd256 O265 2.356 . S
C257 O262 1.209 . S
C257 O264 1.226 . S
O258 Cd254 2.273 . S
O258 Cd256 2.411 1_545 S
O258 C261 1.317 1_545 S
O259 Cd256 2.333 . S
O259 C261 1.221 . S
O260 Cd256 2.352 . S
O260 C263 1.258 . S
C261 O258 1.317 1_565 S
C261 O259 1.221 . S
O262 Cd254 2.277 . S
O262 C257 1.209 . S
C263 O260 1.258 . S
C263 O265 1.282 . S
O264 Cd256 2.277 1_545 S
O264 C257 1.226 . S
O265 Cd256 2.356 . S
O265 C263 1.282 . S
C266 O267 1.306 1_554 S
C266 O269 1.160 . S
O267 C266 1.306 1_556 S
O267 Cd268 2.228 . S
Cd268 O267 2.228 . S
Cd268 O272 2.273 1_556 S
Cd268 O276 2.277 . S
O269 C266 1.160 . S
O269 Cd270 2.203 . S
Cd270 O269 2.203 . S
Cd270 O272 2.411 . S
Cd270 O273 2.333 . S
Cd270 O274 2.352 . S
Cd270 O278 2.277 1_554 S
Cd270 O279 2.356 . S
C271 O276 1.209 . S
C271 O278 1.226 . S
O272 Cd268 2.273 1_554 S
O272 Cd270 2.411 . S
O272 C275 1.320 . S
O273 Cd270 2.333 . S
O273 C275 1.214 . S
O274 Cd270 2.352 . S
O274 C277 1.258 . S
C275 O272 1.320 . S
C275 O273 1.214 . S
O276 Cd268 2.277 . S
O276 C271 1.209 . S
C277 O274 1.258 . S
C277 O279 1.282 . S
O278 Cd270 2.277 1_556 S
O278 C271 1.226 . S
O279 Cd270 2.356 . S
O279 C277 1.282 . S
C280 O281 1.306 . S
C280 O283 1.173 . S
O281 C280 1.306 . S
O281 Cd282 2.228 . S
Cd282 O281 2.228 . S
Cd282 O286 2.273 . S
Cd282 O290 2.277 . S
O283 C280 1.173 . S
O283 Cd284 2.202 1_554 S
Cd284 O283 2.202 1_556 S
Cd284 O286 2.410 1_556 S
Cd284 O287 2.333 1_556 S
Cd284 O288 2.361 . S
Cd284 O292 2.270 1_556 S
Cd284 O293 2.362 . S
C285 O290 1.209 . S
C285 O292 1.226 . S
O286 Cd282 2.273 . S
O286 Cd284 2.410 1_554 S
O286 C289 1.320 . S
O287 Cd284 2.333 1_554 S
O287 C289 1.214 . S
O288 Cd284 2.361 . S
O288 C291 1.258 . S
C289 O286 1.320 . S
C289 O287 1.214 . S
O290 Cd282 2.277 . S
O290 C285 1.209 . S
C291 O288 1.258 . S
C291 O293 1.282 . S
O292 Cd284 2.270 1_554 S
O292 C285 1.226 . S
O293 Cd284 2.362 . S
O293 C291 1.282 . S
C294 O295 1.306 . S
C294 O297 1.160 . S
O295 C294 1.306 . S
O295 Cd296 2.228 . S
Cd296 O295 2.228 . S
Cd296 O300 2.273 . S
Cd296 O304 2.277 . S
O297 C294 1.160 . S
O297 Cd298 2.203 . S
Cd298 O297 2.203 . S
Cd298 O300 2.411 . S
Cd298 O301 2.333 . S
Cd298 O302 2.352 . S
Cd298 O306 2.277 . S
Cd298 O307 2.356 . S
C299 O304 1.209 . S
C299 O306 1.226 . S
O300 Cd296 2.273 . S
O300 Cd298 2.411 . S
O300 C303 1.320 . S
O301 Cd298 2.333 . S
O301 C303 1.214 . S
O302 Cd298 2.352 . S
O302 C305 1.258 . S
C303 O300 1.320 . S
C303 O301 1.214 . S
O304 Cd296 2.277 . S
O304 C299 1.209 . S
C305 O302 1.258 . S
C305 O307 1.282 . S
O306 Cd298 2.277 . S
O306 C299 1.226 . S
O307 Cd298 2.356 . S
O307 C305 1.282 . S
C308 O309 1.306 . S
C308 O311 1.160 . S
O309 C308 1.306 . S
O309 Cd310 2.228 . S
Cd310 O309 2.228 . S
Cd310 O314 2.273 . S
Cd310 O318 2.277 . S
O311 C308 1.160 . S
O311 Cd312 2.203 . S
Cd312 O311 2.203 . S
Cd312 O314 2.411 . S
Cd312 O315 2.333 . S
Cd312 O316 2.352 . S
Cd312 O320 2.277 . S
Cd312 O321 2.356 . S
C313 O318 1.209 . S
C313 O320 1.226 . S
O314 Cd310 2.273 . S
O314 Cd312 2.411 . S
O314 C317 1.320 . S
O315 Cd312 2.333 . S
O315 C317 1.214 . S
O316 Cd312 2.352 . S
O316 C319 1.258 . S
C317 O314 1.320 . S
C317 O315 1.214 . S
O318 Cd310 2.277 . S
O318 C313 1.209 . S
C319 O316 1.258 . S
C319 O321 1.282 . S
O320 Cd312 2.277 . S
O320 C313 1.226 . S
O321 Cd312 2.356 . S
O321 C319 1.282 . S
C322 O323 1.306 . S
C322 O325 1.160 . S
O323 C322 1.306 . S
O323 Cd324 2.228 . S
Cd324 O323 2.228 . S
Cd324 O328 2.273 . S
Cd324 O332 2.277 . S
O325 C322 1.160 . S
O325 Cd326 2.203 . S
Cd326 O325 2.203 . S
Cd326 O328 2.411 . S
Cd326 O329 2.333 . S
Cd326 O330 2.352 . S
Cd326 O334 2.277 . S
Cd326 O335 2.356 . S
C327 O332 1.209 . S
C327 O334 1.226 . S
O328 Cd324 2.273 . S
O328 Cd326 2.411 . S
O328 C331 1.320 . S
O329 Cd326 2.333 . S
O329 C331 1.214 . S
O330 Cd326 2.352 . S
O330 C333 1.258 . S
C331 O328 1.320 . S
C331 O329 1.214 . S
O332 Cd324 2.277 . S
O332 C327 1.209 . S
C333 O330 1.258 . S
C333 O335 1.282 . S
O334 Cd326 2.277 . S
O334 C327 1.226 . S
O335 Cd326 2.356 . S
O335 C333 1.282 . S
O336 Zn337 1.953 . S
O336 C352 1.225 1_455 S
Zn337 O336 1.953 . S
Zn337 O338 1.949 . S
Zn337 O344 1.919 . S
Zn337 O349 1.924 1_454 S
O338 Zn337 1.949 . S
O338 Zn339 1.923 1_545 S
O338 Zn340 1.950 1_455 S
O338 Zn341 1.945 1_444 S
Zn339 O338 1.923 1_565 S
Zn339 O342 1.933 . S
Zn339 O345 1.941 1_565 S
Zn339 O346 1.965 . S
Zn340 O338 1.950 1_655 S
Zn340 O347 1.938 . S
Zn340 O348 1.906 1_545 S
Zn340 O358 1.953 . S
Zn341 O338 1.945 1_666 S
Zn341 O343 1.932 . S
Zn341 O350 1.977 1_556 S
Zn341 O351 1.910 1_565 S
O342 Zn339 1.933 . S
O342 C353 1.252 . S
O343 Zn341 1.932 . S
O343 C353 1.293 1_656 S
O344 Zn337 1.919 . S
O344 C355 1.253 . S
O345 Zn339 1.941 1_545 S
O345 C355 1.283 . S
O346 Zn339 1.965 . S
O346 C354 1.303 1_565 S
O347 Zn340 1.938 . S
O347 C354 1.247 1_655 S
O348 Zn340 1.906 1_565 S
O348 C356 1.304 . S
O349 Zn337 1.924 1_656 S
O349 C357 1.311 . S
O350 Zn341 1.977 1_554 S
O350 C356 1.272 . S
O351 Zn341 1.910 1_545 S
O351 C357 1.231 . S
C352 O336 1.225 1_655 S
C352 O358 1.298 . S
C353 O342 1.252 . S
C353 O343 1.293 1_454 S
C354 O346 1.303 1_545 S
C354 O347 1.247 1_455 S
C355 O344 1.253 . S
C355 O345 1.283 . S
C356 O348 1.304 . S
C356 O350 1.272 . S
C357 O349 1.311 . S
C357 O351 1.231 . S
O358 Zn340 1.953 . S
O358 C352 1.298 . S
O359 Zn360 1.953 . S
O359 C375 1.225 . S
Zn360 O359 1.953 . S
Zn360 O361 1.949 . S
Zn360 O367 1.919 . S
Zn360 O372 1.924 . S
O361 Zn360 1.949 . S
O361 Zn362 1.923 . S
O361 Zn363 1.950 . S
O361 Zn364 1.945 . S
Zn362 O361 1.923 . S
Zn362 O365 1.933 . S
Zn362 O368 1.941 . S
Zn362 O369 1.965 . S
Zn363 O361 1.950 . S
Zn363 O370 1.938 . S
Zn363 O371 1.906 . S
Zn363 O381 1.953 . S
Zn364 O361 1.945 . S
Zn364 O366 1.932 . S
Zn364 O373 1.977 . S
Zn364 O374 1.910 . S
O365 Zn362 1.933 . S
O365 C376 1.226 . S
O366 Zn364 1.932 . S
O366 C376 1.307 . S
O367 Zn360 1.919 . S
O367 C378 1.253 . S
O368 Zn362 1.941 . S
O368 C378 1.283 . S
O369 Zn362 1.965 . S
O369 C377 1.303 . S
O370 Zn363 1.938 . S
O370 C377 1.247 . S
O371 Zn363 1.906 . S
O371 C379 1.304 . S
O372 Zn360 1.924 . S
O372 C380 1.311 . S
O373 Zn364 1.977 . S
O373 C379 1.272 . S
O374 Zn364 1.910 . S
O374 C380 1.231 . S
C375 O359 1.225 . S
C375 O381 1.298 . S
C376 O365 1.226 . S
C376 O366 1.307 . S
C377 O369 1.303 . S
C377 O370 1.247 . S
C378 O367 1.253 . S
C378 O368 1.283 . S
C379 O371 1.304 . S
C379 O373 1.272 . S
C380 O372 1.311 . S
C380 O374 1.231 . S
O381 Zn363 1.953 . S
O381 C375 1.298 . S
O382 Zn383 1.953 . S
O382 C398 1.225 . S
Zn383 O382 1.953 . S
Zn383 O384 1.949 1_565 S
Zn383 O390 1.919 . S
Zn383 O395 1.924 . S
O384 Zn383 1.949 1_545 S
O384 Zn385 1.923 . S
O384 Zn386 1.950 . S
O384 Zn387 1.945 . S
Zn385 O384 1.923 . S
Zn385 O388 1.933 . S
Zn385 O391 1.941 . S
Zn385 O392 1.965 . S
Zn386 O384 1.950 . S
Zn386 O393 1.938 . S
Zn386 O394 1.906 . S
Zn386 O404 1.953 1_545 S
Zn387 O384 1.945 . S
Zn387 O389 1.932 . S
Zn387 O396 1.977 . S
Zn387 O397 1.910 . S
O388 Zn385 1.933 . S
O388 C399 1.226 . S
O389 Zn387 1.932 . S
O389 C399 1.307 . S
O390 Zn383 1.919 . S
O390 C401 1.207 1_565 S
O391 Zn385 1.941 . S
O391 C401 1.328 . S
O392 Zn385 1.965 . S
O392 C400 1.303 . S
O393 Zn386 1.938 . S
O393 C400 1.247 . S
O394 Zn386 1.906 . S
O394 C402 1.304 . S
O395 Zn383 1.924 . S
O395 C403 1.311 . S
O396 Zn387 1.977 . S
O396 C402 1.272 . S
O397 Zn387 1.910 . S
O397 C403 1.231 1_545 S
C398 O382 1.225 . S
C398 O404 1.298 . S
C399 O388 1.226 . S
C399 O389 1.307 . S
C400 O392 1.303 . S
C400 O393 1.247 . S
C401 O390 1.207 1_545 S
C401 O391 1.328 . S
C402 O394 1.304 . S
C402 O396 1.272 . S
C403 O395 1.311 . S
C403 O397 1.231 1_565 S
O404 Zn386 1.953 1_565 S
O404 C398 1.298 . S
O405 Zn406 1.953 . S
O405 C421 1.225 . S
Zn406 O405 1.953 . S
Zn406 O407 1.949 . S
Zn406 O413 1.919 . S
Zn406 O418 1.924 . S
O407 Zn406 1.949 . S
O407 Zn408 1.923 . S
O407 Zn409 1.950 . S
O407 Zn410 1.945 . S
Zn408 O407 1.923 . S
Zn408 O411 1.933 . S
Zn408 O414 1.941 . S
Zn408 O415 1.965 . S
Zn409 O407 1.950 . S
Zn409 O416 1.938 . S
Zn409 O417 1.906 . S
Zn409 O427 1.953 . S
Zn410 O407 1.945 . S
Zn410 O412 1.932 . S
Zn410 O419 1.977 . S
Zn410 O420 1.910 . S
O411 Zn408 1.933 . S
O411 C422 1.226 . S
O412 Zn410 1.932 . S
O412 C422 1.307 . S
O413 Zn406 1.919 . S
O413 C424 1.253 . S
O414 Zn408 1.941 . S
O414 C424 1.283 . S
O415 Zn408 1.965 . S
O415 C423 1.303 . S
O416 Zn409 1.938 . S
O416 C423 1.247 . S
O417 Zn409 1.906 . S
O417 C425 1.304 . S
O418 Zn406 1.924 . S
O418 C426 1.311 . S
O419 Zn410 1.977 . S
O419 C425 1.272 . S
O420 Zn410 1.910 . S
O420 C426 1.231 . S
C421 O405 1.225 . S
C421 O427 1.298 . S
C422 O411 1.226 . S
C422 O412 1.307 . S
C423 O415 1.303 . S
C423 O416 1.247 . S
C424 O413 1.253 . S
C424 O414 1.283 . S
C425 O417 1.304 . S
C425 O419 1.272 . S
C426 O418 1.311 . S
C426 O420 1.231 . S
O427 Zn409 1.953 . S
O427 C421 1.298 . S
O428 Zn429 1.953 1_455 S
O428 C444 1.225 . S
Zn429 O428 1.953 1_655 S
Zn429 O430 1.949 1_655 S
Zn429 O436 1.919 1_545 S
Zn429 O441 1.924 . S
O430 Zn429 1.949 1_455 S
O430 Zn431 1.923 1_545 S
O430 Zn432 1.950 . S
O430 Zn433 1.945 1_455 S
Zn431 O430 1.923 1_565 S
Zn431 O434 1.933 . S
Zn431 O437 1.941 . S
Zn431 O438 1.965 . S
Zn432 O430 1.950 . S
Zn432 O439 1.938 . S
Zn432 O440 1.906 . S
Zn432 O450 1.953 . S
Zn433 O430 1.945 1_655 S
Zn433 O435 1.932 . S
Zn433 O442 1.977 1_655 S
Zn433 O443 1.910 . S
O434 Zn431 1.933 . S
O434 C445 1.193 1_465 S
O435 Zn433 1.932 . S
O435 C445 1.357 . S
O436 Zn429 1.919 1_565 S
O436 C447 1.253 . S
O437 Zn431 1.941 . S
O437 C447 1.283 1_455 S
O438 Zn431 1.965 . S
O438 C446 1.289 1_565 S
O439 Zn432 1.938 . S
O439 C446 1.273 . S
O440 Zn432 1.906 . S
O440 C448 1.304 . S
O441 Zn429 1.924 . S
O441 C449 1.311 . S
O442 Zn433 1.977 1_455 S
O442 C448 1.272 . S
O443 Zn433 1.910 . S
O443 C449 1.231 . S
C444 O428 1.225 . S
C444 O450 1.298 . S
C445 O434 1.193 1_645 S
C445 O435 1.357 . S
C446 O438 1.289 1_545 S
C446 O439 1.273 . S
C447 O436 1.253 . S
C447 O437 1.283 1_655 S
C448 O440 1.304 . S
C448 O442 1.272 . S
C449 O441 1.311 . S
C449 O443 1.231 . S
O450 Zn432 1.953 . S
O450 C444 1.298 . S
O451 Zn452 1.953 . S
O451 C467 1.225 . S
Zn452 O451 1.953 . S
Zn452 O453 1.949 . S
Zn452 O459 1.919 . S
Zn452 O464 1.924 . S
O453 Zn452 1.949 . S
O453 Zn454 1.923 . S
O453 Zn455 1.950 . S
O453 Zn456 1.945 . S
Zn454 O453 1.923 . S
Zn454 O457 1.933 . S
Zn454 O460 1.941 . S
Zn454 O461 1.965 . S
Zn455 O453 1.950 . S
Zn455 O462 1.938 . S
Zn455 O463 1.906 . S
Zn455 O473 1.953 . S
Zn456 O453 1.945 . S
Zn456 O458 1.932 . S
Zn456 O465 1.977 . S
Zn456 O466 1.910 . S
O457 Zn454 1.933 . S
O457 C468 1.226 . S
O458 Zn456 1.932 . S
O458 C468 1.307 . S
O459 Zn452 1.919 . S
O459 C470 1.253 . S
O460 Zn454 1.941 . S
O460 C470 1.283 . S
O461 Zn454 1.965 . S
O461 C469 1.303 . S
O462 Zn455 1.938 . S
O462 C469 1.247 . S
O463 Zn455 1.906 . S
O463 C471 1.304 . S
O464 Zn452 1.924 . S
O464 C472 1.311 . S
O465 Zn456 1.977 . S
O465 C471 1.272 . S
O466 Zn456 1.910 . S
O466 C472 1.231 . S
C467 O451 1.225 . S
C467 O473 1.298 . S
C468 O457 1.226 . S
C468 O458 1.307 . S
C469 O461 1.303 . S
C469 O462 1.247 . S
C470 O459 1.253 . S
C470 O460 1.283 . S
C471 O463 1.304 . S
C471 O465 1.272 . S
C472 O464 1.311 . S
C472 O466 1.231 . S
O473 Zn455 1.953 . S
O473 C467 1.298 . S
O474 Zn475 1.953 . S
O474 C490 1.225 . S
Zn475 O474 1.953 . S
Zn475 O476 1.949 . S
Zn475 O482 1.915 . S
Zn475 O487 1.924 . S
O476 Zn475 1.949 . S
O476 Zn477 1.923 1_545 S
O476 Zn478 1.950 . S
O476 Zn479 1.945 1_554 S
Zn477 O476 1.923 1_565 S
Zn477 O480 1.933 1_554 S
Zn477 O483 1.948 . S
Zn477 O484 1.965 . S
Zn478 O476 1.950 . S
Zn478 O485 1.938 1_545 S
Zn478 O486 1.906 . S
Zn478 O496 1.953 . S
Zn479 O476 1.945 1_556 S
Zn479 O481 1.932 . S
Zn479 O488 1.977 1_556 S
Zn479 O489 1.910 . S
O480 Zn477 1.933 1_556 S
O480 C491 1.226 . S
O481 Zn479 1.932 . S
O481 C491 1.307 1_545 S
O482 Zn475 1.915 . S
O482 C493 1.257 1_545 S
O483 Zn477 1.948 . S
O483 C493 1.281 . S
O484 Zn477 1.965 . S
O484 C492 1.303 . S
O485 Zn478 1.938 1_565 S
O485 C492 1.247 . S
O486 Zn478 1.906 . S
O486 C494 1.304 . S
O487 Zn475 1.924 . S
O487 C495 1.311 . S
O488 Zn479 1.977 1_554 S
O488 C494 1.272 . S
O489 Zn479 1.910 . S
O489 C495 1.231 1_556 S
C490 O474 1.225 . S
C490 O496 1.298 . S
C491 O480 1.226 . S
C491 O481 1.307 1_565 S
C492 O484 1.303 . S
C492 O485 1.247 . S
C493 O482 1.257 1_565 S
C493 O483 1.281 . S
C494 O486 1.304 . S
C494 O488 1.272 . S
C495 O487 1.311 . S
C495 O489 1.231 1_554 S
O496 Zn478 1.953 . S
O496 C490 1.298 . S
O497 Zn498 1.953 . S
O497 C513 1.225 . S
Zn498 O497 1.953 . S
Zn498 O499 1.949 . S
Zn498 O505 1.919 . S
Zn498 O510 1.924 . S
O499 Zn498 1.949 . S
O499 Zn500 1.923 . S
O499 Zn501 1.950 . S
O499 Zn502 1.945 . S
Zn500 O499 1.923 . S
Zn500 O503 1.933 . S
Zn500 O506 1.941 . S
Zn500 O507 1.965 . S
Zn501 O499 1.950 . S
Zn501 O508 1.938 . S
Zn501 O509 1.906 . S
Zn501 O519 1.953 . S
Zn502 O499 1.945 . S
Zn502 O504 1.932 . S
Zn502 O511 1.977 . S
Zn502 O512 1.910 . S
O503 Zn500 1.933 . S
O503 C514 1.226 . S
O504 Zn502 1.932 . S
O504 C514 1.307 . S
O505 Zn498 1.919 . S
O505 C516 1.253 . S
O506 Zn500 1.941 . S
O506 C516 1.283 . S
O507 Zn500 1.965 . S
O507 C515 1.303 . S
O508 Zn501 1.938 . S
O508 C515 1.247 . S
O509 Zn501 1.906 . S
O509 C517 1.304 . S
O510 Zn498 1.924 . S
O510 C518 1.311 . S
O511 Zn502 1.977 . S
O511 C517 1.272 . S
O512 Zn502 1.910 . S
O512 C518 1.231 . S
C513 O497 1.225 . S
C513 O519 1.298 . S
C514 O503 1.226 . S
C514 O504 1.307 . S
C515 O507 1.303 . S
C515 O508 1.247 . S
C516 O505 1.253 . S
C516 O506 1.283 . S
C517 O509 1.304 . S
C517 O511 1.272 . S
C518 O510 1.311 . S
C518 O512 1.231 . S
O519 Zn501 1.953 . S
O519 C513 1.298 . S
O520 Zn521 1.953 . S
O520 C536 1.225 . S
Zn521 O520 1.953 . S
Zn521 O522 1.949 1_556 S
Zn521 O528 1.919 . S
Zn521 O533 1.924 . S
O522 Zn521 1.949 1_554 S
O522 Zn523 1.923 . S
O522 Zn524 1.950 . S
O522 Zn525 1.945 . S
Zn523 O522 1.923 . S
Zn523 O526 1.933 . S
Zn523 O529 1.941 . S
Zn523 O530 1.965 . S
Zn524 O522 1.950 . S
Zn524 O531 1.938 . S
Zn524 O532 1.906 . S
Zn524 O542 1.953 1_554 S
Zn525 O522 1.945 . S
Zn525 O527 1.932 . S
Zn525 O534 1.977 . S
Zn525 O535 1.910 . S
O526 Zn523 1.933 . S
O526 C537 1.226 . S
O527 Zn525 1.932 . S
O527 C537 1.307 . S
O528 Zn521 1.919 . S
O528 C539 1.253 1_556 S
O529 Zn523 1.941 . S
O529 C539 1.283 . S
O530 Zn523 1.965 . S
O530 C538 1.303 . S
O531 Zn524 1.938 . S
O531 C538 1.247 . S
O532 Zn524 1.906 . S
O532 C540 1.304 . S
O533 Zn521 1.924 . S
O533 C541 1.311 . S
O534 Zn525 1.977 . S
O534 C540 1.272 . S
O535 Zn525 1.910 . S
O535 C541 1.231 1_554 S
C536 O520 1.225 . S
C536 O542 1.298 . S
C537 O526 1.226 . S
C537 O527 1.307 . S
C538 O530 1.303 . S
C538 O531 1.247 . S
C539 O528 1.253 1_554 S
C539 O529 1.283 . S
C540 O532 1.304 . S
C540 O534 1.272 . S
C541 O533 1.311 . S
C541 O535 1.231 1_556 S
O542 Zn524 1.953 1_556 S
O542 C536 1.298 . S
O543 Zn544 1.953 . S
O543 C559 1.225 . S
Zn544 O543 1.953 . S
Zn544 O545 1.949 . S
Zn544 O551 1.919 . S
Zn544 O556 1.924 . S
O545 Zn544 1.949 . S
O545 Zn546 1.923 . S
O545 Zn547 1.950 . S
O545 Zn548 1.945 . S
Zn546 O545 1.923 . S
Zn546 O549 1.933 . S
Zn546 O552 1.941 . S
Zn546 O553 1.965 . S
Zn547 O545 1.950 . S
Zn547 O554 1.938 . S
Zn547 O555 1.906 . S
Zn547 O565 1.953 . S
Zn548 O545 1.945 . S
Zn548 O550 1.932 . S
Zn548 O557 1.977 . S
Zn548 O558 1.910 . S
O549 Zn546 1.933 . S
O549 C560 1.226 . S
O550 Zn548 1.932 . S
O550 C560 1.307 . S
O551 Zn544 1.919 . S
O551 C562 1.253 . S
O552 Zn546 1.941 . S
O552 C562 1.283 . S
O553 Zn546 1.965 . S
O553 C561 1.303 . S
O554 Zn547 1.938 . S
O554 C561 1.247 . S
O555 Zn547 1.906 . S
O555 C563 1.304 . S
O556 Zn544 1.924 . S
O556 C564 1.311 . S
O557 Zn548 1.977 . S
O557 C563 1.272 . S
O558 Zn548 1.910 . S
O558 C564 1.231 . S
C559 O543 1.225 . S
C559 O565 1.298 . S
C560 O549 1.226 . S
C560 O550 1.307 . S
C561 O553 1.303 . S
C561 O554 1.247 . S
C562 O551 1.253 . S
C562 O552 1.283 . S
C563 O555 1.304 . S
C563 O557 1.272 . S
C564 O556 1.311 . S
C564 O558 1.231 . S
O565 Zn547 1.953 . S
O565 C559 1.298 . S
O566 Zn567 1.953 . S
O566 C582 1.225 . S
Zn567 O566 1.953 . S
Zn567 O568 1.977 . S
Zn567 O574 1.919 . S
Zn567 O579 1.924 . S
O568 Zn567 1.977 . S
O568 Zn569 1.924 . S
O568 Zn570 1.934 1_455 S
O568 Zn571 1.932 1_455 S
Zn569 O568 1.924 . S
Zn569 O572 1.933 1_455 S
Zn569 O575 1.941 . S
Zn569 O576 1.965 1_455 S
Zn570 O568 1.934 1_655 S
Zn570 O577 1.938 . S
Zn570 O578 1.906 . S
Zn570 O588 1.935 1_655 S
Zn571 O568 1.932 1_655 S
Zn571 O573 1.932 . S
Zn571 O580 1.977 . S
Zn571 O581 1.910 1_655 S
O572 Zn569 1.933 1_655 S
O572 C583 1.226 . S
O573 Zn571 1.932 . S
O573 C583 1.307 . S
O574 Zn567 1.919 . S
O574 C585 1.253 . S
O575 Zn569 1.941 . S
O575 C585 1.283 . S
O576 Zn569 1.965 1_655 S
O576 C584 1.303 . S
O577 Zn570 1.938 . S
O577 C584 1.247 . S
O578 Zn570 1.906 . S
O578 C586 1.304 . S
O579 Zn567 1.924 . S
O579 C587 1.311 . S
O580 Zn571 1.977 . S
O580 C586 1.272 . S
O581 Zn571 1.910 1_455 S
O581 C587 1.231 . S
C582 O566 1.225 . S
C582 O588 1.334 . S
C583 O572 1.226 . S
C583 O573 1.307 . S
C584 O576 1.303 . S
C584 O577 1.247 . S
C585 O574 1.253 . S
C585 O575 1.283 . S
C586 O578 1.304 . S
C586 O580 1.272 . S
C587 O579 1.311 . S
C587 O581 1.231 . S
O588 Zn570 1.935 1_455 S
O588 C582 1.334 . S
O589 Zn590 1.953 . S
O589 C605 1.225 . S
Zn590 O589 1.953 . S
Zn590 O591 1.949 . S
Zn590 O597 1.919 . S
Zn590 O602 1.924 . S
O591 Zn590 1.949 . S
O591 Zn592 1.923 . S
O591 Zn593 1.950 . S
O591 Zn594 1.945 . S
Zn592 O591 1.923 . S
Zn592 O595 1.933 . S
Zn592 O598 1.941 . S
Zn592 O599 1.965 . S
Zn593 O591 1.950 . S
Zn593 O600 1.938 . S
Zn593 O601 1.906 . S
Zn593 O611 1.953 . S
Zn594 O591 1.945 . S
Zn594 O596 1.932 . S
Zn594 O603 1.977 . S
Zn594 O604 1.910 . S
O595 Zn592 1.933 . S
O595 C606 1.226 . S
O596 Zn594 1.932 . S
O596 C606 1.307 . S
O597 Zn590 1.919 . S
O597 C608 1.253 . S
O598 Zn592 1.941 . S
O598 C608 1.283 . S
O599 Zn592 1.965 . S
O599 C607 1.303 . S
O600 Zn593 1.938 . S
O600 C607 1.247 . S
O601 Zn593 1.906 . S
O601 C609 1.304 . S
O602 Zn590 1.924 . S
O602 C610 1.311 . S
O603 Zn594 1.977 . S
O603 C609 1.272 . S
O604 Zn594 1.910 . S
O604 C610 1.231 . S
C605 O589 1.225 . S
C605 O611 1.298 . S
C606 O595 1.226 . S
C606 O596 1.307 . S
C607 O599 1.303 . S
C607 O600 1.247 . S
C608 O597 1.253 . S
C608 O598 1.283 . S
C609 O601 1.304 . S
C609 O603 1.272 . S
C610 O602 1.311 . S
C610 O604 1.231 . S
O611 Zn593 1.953 . S
O611 C605 1.298 . S
O612 Zn613 1.953 . S
O612 C628 1.225 . S
Zn613 O612 1.953 . S
Zn613 O614 1.949 . S
Zn613 O620 1.919 . S
Zn613 O625 1.924 . S
O614 Zn613 1.949 . S
O614 Zn615 1.923 . S
O614 Zn616 1.950 . S
O614 Zn617 1.945 . S
Zn615 O614 1.923 . S
Zn615 O618 1.933 . S
Zn615 O621 1.941 . S
Zn615 O622 1.965 . S
Zn616 O614 1.950 . S
Zn616 O623 1.938 . S
Zn616 O624 1.906 . S
Zn616 O634 1.953 . S
Zn617 O614 1.945 . S
Zn617 O619 1.932 . S
Zn617 O626 1.977 . S
Zn617 O627 1.910 . S
O618 Zn615 1.933 . S
O618 C629 1.226 . S
O619 Zn617 1.932 . S
O619 C629 1.307 . S
O620 Zn613 1.919 . S
O620 C631 1.253 . S
O621 Zn615 1.941 . S
O621 C631 1.283 . S
O622 Zn615 1.965 . S
O622 C630 1.303 . S
O623 Zn616 1.938 . S
O623 C630 1.247 . S
O624 Zn616 1.906 . S
O624 C632 1.304 . S
O625 Zn613 1.924 . S
O625 C633 1.311 . S
O626 Zn617 1.977 . S
O626 C632 1.272 . S
O627 Zn617 1.910 . S
O627 C633 1.231 . S
C628 O612 1.225 . S
C628 O634 1.298 . S
C629 O618 1.226 . S
C629 O619 1.307 . S
C630 O622 1.303 . S
C630 O623 1.247 . S
C631 O620 1.253 . S
C631 O621 1.283 . S
C632 O624 1.304 . S
C632 O626 1.272 . S
C633 O625 1.311 . S
C633 O627 1.231 . S
O634 Zn616 1.953 . S
O634 C628 1.298 . S
O635 Zn636 1.953 . S
O635 C651 1.225 . S
Zn636 O635 1.953 . S
Zn636 O637 1.949 . S
Zn636 O643 1.919 . S
Zn636 O648 1.924 . S
O637 Zn636 1.949 . S
O637 Zn638 1.923 . S
O637 Zn639 1.950 . S
O637 Zn640 1.945 . S
Zn638 O637 1.923 . S
Zn638 O641 1.933 . S
Zn638 O644 1.941 . S
Zn638 O645 1.965 . S
Zn639 O637 1.950 . S
Zn639 O646 1.938 . S
Zn639 O647 1.906 . S
Zn639 O657 1.953 . S
Zn640 O637 1.945 . S
Zn640 O642 1.932 . S
Zn640 O649 1.977 . S
Zn640 O650 1.910 . S
O641 Zn638 1.933 . S
O641 C652 1.226 . S
O642 Zn640 1.932 . S
O642 C652 1.307 . S
O643 Zn636 1.919 . S
O643 C654 1.253 . S
O644 Zn638 1.941 . S
O644 C654 1.283 . S
O645 Zn638 1.965 . S
O645 C653 1.303 . S
O646 Zn639 1.938 . S
O646 C653 1.247 . S
O647 Zn639 1.906 . S
O647 C655 1.304 . S
O648 Zn636 1.924 . S
O648 C656 1.311 . S
O649 Zn640 1.977 . S
O649 C655 1.272 . S
O650 Zn640 1.910 . S
O650 C656 1.231 . S
C651 O635 1.225 . S
C651 O657 1.298 . S
C652 O641 1.226 . S
C652 O642 1.307 . S
C653 O645 1.303 . S
C653 O646 1.247 . S
C654 O643 1.253 . S
C654 O644 1.283 . S
C655 O647 1.304 . S
C655 O649 1.272 . S
C656 O648 1.311 . S
C656 O650 1.231 . S
O657 Zn639 1.953 . S
O657 C651 1.298 . S
O658 Zn659 1.953 . S
O658 C674 1.225 . S
Zn659 O658 1.953 . S
Zn659 O660 1.949 . S
Zn659 O666 1.919 . S
Zn659 O671 1.924 . S
O660 Zn659 1.949 . S
O660 Zn661 1.923 . S
O660 Zn662 1.950 . S
O660 Zn663 1.945 . S
Zn661 O660 1.923 . S
Zn661 O664 1.933 . S
Zn661 O667 1.941 . S
Zn661 O668 1.965 . S
Zn662 O660 1.950 . S
Zn662 O669 1.938 . S
Zn662 O670 1.906 . S
Zn662 O680 1.953 . S
Zn663 O660 1.945 . S
Zn663 O665 1.932 . S
Zn663 O672 1.977 . S
Zn663 O673 1.910 . S
O664 Zn661 1.933 . S
O664 C675 1.226 . S
O665 Zn663 1.932 . S
O665 C675 1.307 . S
O666 Zn659 1.919 . S
O666 C677 1.253 . S
O667 Zn661 1.941 . S
O667 C677 1.283 . S
O668 Zn661 1.965 . S
O668 C676 1.303 . S
O669 Zn662 1.938 . S
O669 C676 1.247 . S
O670 Zn662 1.906 . S
O670 C678 1.304 . S
O671 Zn659 1.924 . S
O671 C679 1.311 . S
O672 Zn663 1.977 . S
O672 C678 1.272 . S
O673 Zn663 1.910 . S
O673 C679 1.231 . S
C674 O658 1.225 . S
C674 O680 1.298 . S
C675 O664 1.226 . S
C675 O665 1.307 . S
C676 O668 1.303 . S
C676 O669 1.247 . S
C677 O666 1.253 . S
C677 O667 1.283 . S
C678 O670 1.304 . S
C678 O672 1.272 . S
C679 O671 1.311 . S
C679 O673 1.231 . S
O680 Zn662 1.953 . S
O680 C674 1.298 . S
O681 Zn682 1.944 1_455 S
O681 C697 1.225 . S
Zn682 O681 1.944 1_655 S
Zn682 O683 1.938 1_655 S
Zn682 O689 1.951 . S
Zn682 O694 1.909 1_654 S
O683 Zn682 1.938 1_455 S
O683 Zn684 1.923 1_455 S
O683 Zn685 1.950 . S
O683 Zn686 1.904 1_554 S
Zn684 O683 1.923 1_655 S
Zn684 O687 1.933 . S
Zn684 O690 1.941 . S
Zn684 O691 1.965 . S
Zn685 O683 1.950 . S
Zn685 O692 1.938 . S
Zn685 O693 1.906 . S
Zn685 O703 1.953 . S
Zn686 O683 1.904 1_556 S
Zn686 O688 1.944 . S
Zn686 O695 1.954 1_556 S
Zn686 O696 1.955 . S
O687 Zn684 1.933 . S
O687 C698 1.226 . S
O688 Zn686 1.944 . S
O688 C698 1.307 1_456 S
O689 Zn682 1.951 . S
O689 C700 1.253 . S
O690 Zn684 1.941 . S
O690 C700 1.283 . S
O691 Zn684 1.965 . S
O691 C699 1.303 . S
O692 Zn685 1.938 . S
O692 C699 1.247 1_455 S
O693 Zn685 1.906 . S
O693 C701 1.304 . S
O694 Zn682 1.909 1_456 S
O694 C702 1.311 . S
O695 Zn686 1.954 1_554 S
O695 C701 1.272 . S
O696 Zn686 1.955 . S
O696 C702 1.231 . S
C697 O681 1.225 . S
C697 O703 1.298 . S
C698 O687 1.226 . S
C698 O688 1.307 1_654 S
C699 O691 1.303 . S
C699 O692 1.247 1_655 S
C700 O689 1.253 . S
C700 O690 1.283 . S
C701 O693 1.304 . S
C701 O695 1.272 . S
C702 O694 1.311 . S
C702 O696 1.231 . S
O703 Zn685 1.953 . S
O703 C697 1.298 . S
H704 C722 0.951 . S
H705 C724 0.951 . S
H706 C726 0.950 . S
H707 C727 0.950 . S
H708 C729 0.950 . S
H709 C732 0.950 . S
H710 C733 0.950 . S
H711 C735 0.950 . S
H712 C736 0.950 . S
H713 C737 0.951 . S
H714 C739 0.951 . S
H715 C741 0.950 . S
H716 C742 0.950 . S
H717 C744 0.950 . S
H718 C747 0.950 1_655 S
H719 C748 0.941 1_556 S
H720 C750 0.950 . S
H721 C751 0.950 . S
C722 H704 0.951 . S
C722 C723 1.366 1_655 S
C722 C724 1.388 . S
C723 C722 1.366 1_455 S
C723 C727 1.385 . S
C724 H705 0.951 . S
C724 C722 1.388 . S
C724 C725 1.386 . S
C725 C724 1.386 . S
C725 C726 1.392 1_655 S
C725 C728 1.500 . S
C726 H706 0.950 . S
C726 C725 1.392 1_455 S
C726 C727 1.374 . S
C727 H707 0.950 . S
C727 C723 1.385 . S
C727 C726 1.374 . S
C728 C725 1.500 . S
C728 C729 1.373 1_655 S
C728 C730 1.389 . S
C729 H708 0.950 . S
C729 C728 1.373 1_455 S
C729 C745 1.377 . S
C730 C728 1.389 . S
C730 C731 1.524 . S
C730 C744 1.377 . S
C731 C730 1.524 . S
C731 C732 1.397 . S
C731 C736 1.363 . S
C732 H709 0.950 . S
C732 C731 1.397 . S
C732 C733 1.334 . S
C733 H710 0.950 . S
C733 C732 1.334 . S
C733 C734 1.287 . S
C734 C733 1.287 . S
C734 C735 1.524 . S
C734 H753 0.913 . S
C735 H711 0.950 . S
C735 C734 1.524 . S
C735 C736 1.415 . S
C736 H712 0.950 . S
C736 C731 1.363 . S
C736 C735 1.415 . S
C737 H713 0.951 . S
C737 C738 1.366 1_455 S
C737 C739 1.388 . S
C738 C737 1.366 1_655 S
C738 C742 1.385 . S
C739 H714 0.951 . S
C739 C737 1.388 . S
C739 C740 1.366 1_455 S
C740 C739 1.366 1_655 S
C740 C741 1.414 . S
C740 C743 1.499 . S
C741 H715 0.950 . S
C741 C740 1.414 . S
C741 C742 1.374 . S
C742 H716 0.950 . S
C742 C738 1.385 . S
C742 C741 1.374 . S
C743 C740 1.499 . S
C743 C744 1.373 . S
C743 C745 1.389 1_655 S
C744 H717 0.950 . S
C744 C730 1.377 . S
C744 C743 1.373 . S
C745 C729 1.377 . S
C745 C743 1.389 1_455 S
C745 C746 1.524 . S
C746 C745 1.524 . S
C746 C747 1.397 . S
C746 C751 1.363 . S
C747 H718 0.950 1_455 S
C747 C746 1.397 . S
C747 C748 1.334 . S
C748 H719 0.941 1_554 S
C748 C747 1.334 . S
C748 C749 1.287 . S
C749 C748 1.287 . S
C749 C750 1.524 . S
C749 H752 0.998 1_554 S
C750 H720 0.950 . S
C750 C749 1.524 . S
C750 C751 1.415 . S
C751 H721 0.950 . S
C751 C746 1.363 . S
C751 C750 1.415 . S
H752 C749 0.998 1_556 S
H753 C734 0.913 . S
H754 C772 0.951 . S
H755 C774 0.951 . S
H756 C776 0.950 . S
H757 C777 0.950 . S
H758 C779 0.950 . S
H759 C782 0.950 . S
H760 C783 0.950 . S
H761 C785 0.950 . S
H762 C786 0.950 . S
H763 C787 0.951 . S
H764 C789 0.951 . S
H765 C791 0.950 . S
H766 C792 0.950 . S
H767 C794 0.950 . S
H768 C797 0.950 . S
H769 C798 0.950 . S
H770 C800 0.950 . S
H771 C801 0.950 . S
C772 H754 0.951 . S
C772 C773 1.366 . S
C772 C774 1.388 . S
C773 C772 1.366 . S
C773 C777 1.385 . S
C774 H755 0.951 . S
C774 C772 1.388 . S
C774 C775 1.366 . S
C775 C774 1.366 . S
C775 C776 1.414 . S
C775 C778 1.499 . S
C776 H756 0.950 . S
C776 C775 1.414 . S
C776 C777 1.374 . S
C777 H757 0.950 . S
C777 C773 1.385 . S
C777 C776 1.374 . S
C778 C775 1.499 . S
C778 C779 1.373 . S
C778 C780 1.389 . S
C779 H758 0.950 . S
C779 C778 1.373 . S
C779 C795 1.377 . S
C780 C778 1.389 . S
C780 C781 1.524 . S
C780 C794 1.377 . S
C781 C780 1.524 . S
C781 C782 1.397 . S
C781 C786 1.363 . S
C782 H759 0.950 . S
C782 C781 1.397 . S
C782 C783 1.334 . S
C783 H760 0.950 . S
C783 C782 1.334 . S
C783 C784 1.287 . S
C784 C783 1.287 . S
C784 C785 1.524 . S
C784 H803 0.913 . S
C785 H761 0.950 . S
C785 C784 1.524 . S
C785 C786 1.415 . S
C786 H762 0.950 . S
C786 C781 1.363 . S
C786 C785 1.415 . S
C787 H763 0.951 . S
C787 C788 1.366 . S
C787 C789 1.388 . S
C788 C787 1.366 . S
C788 C792 1.385 . S
C789 H764 0.951 . S
C789 C787 1.388 . S
C789 C790 1.366 . S
C790 C789 1.366 . S
C790 C791 1.414 . S
C790 C793 1.499 . S
C791 H765 0.950 . S
C791 C790 1.414 . S
C791 C792 1.374 . S
C792 H766 0.950 . S
C792 C788 1.385 . S
C792 C791 1.374 . S
C793 C790 1.499 . S
C793 C794 1.373 . S
C793 C795 1.389 . S
C794 H767 0.950 . S
C794 C780 1.377 . S
C794 C793 1.373 . S
C795 C779 1.377 . S
C795 C793 1.389 . S
C795 C796 1.524 . S
C796 C795 1.524 . S
C796 C797 1.397 . S
C796 C801 1.363 . S
C797 H768 0.950 . S
C797 C796 1.397 . S
C797 C798 1.334 . S
C798 H769 0.950 . S
C798 C797 1.334 . S
C798 C799 1.287 . S
C799 C798 1.287 . S
C799 C800 1.524 . S
C799 H802 0.999 . S
C800 H770 0.950 . S
C800 C799 1.524 . S
C800 C801 1.415 . S
C801 H771 0.950 . S
C801 C796 1.363 . S
C801 C800 1.415 . S
H802 C799 0.999 . S
H803 C784 0.913 . S
H804 C822 0.951 . S
H805 C824 0.951 . S
H806 C826 0.950 . S
H807 C827 0.950 . S
H808 C829 0.950 . S
H809 C832 0.950 . S
H810 C833 0.950 . S
H811 C835 0.950 . S
H812 C836 0.950 . S
H813 C837 0.951 . S
H814 C839 0.951 . S
H815 C841 0.950 . S
H816 C842 0.950 . S
H817 C844 0.950 . S
H818 C847 0.950 . S
H819 C848 0.950 . S
H820 C850 0.950 . S
H821 C851 0.950 . S
C822 H804 0.951 . S
C822 C823 1.366 . S
C822 C824 1.388 . S
C823 C822 1.366 . S
C823 C827 1.385 . S
C824 H805 0.951 . S
C824 C822 1.388 . S
C824 C825 1.366 . S
C825 C824 1.366 . S
C825 C826 1.414 . S
C825 C828 1.499 . S
C826 H806 0.950 . S
C826 C825 1.414 . S
C826 C827 1.374 . S
C827 H807 0.950 . S
C827 C823 1.385 . S
C827 C826 1.374 . S
C828 C825 1.499 . S
C828 C829 1.373 . S
C828 C830 1.389 . S
C829 H808 0.950 . S
C829 C828 1.373 . S
C829 C845 1.377 . S
C830 C828 1.389 . S
C830 C831 1.524 . S
C830 C844 1.377 . S
C831 C830 1.524 . S
C831 C832 1.397 . S
C831 C836 1.363 . S
C832 H809 0.950 . S
C832 C831 1.397 . S
C832 C833 1.334 . S
C833 H810 0.950 . S
C833 C832 1.334 . S
C833 C834 1.287 . S
C834 C833 1.287 . S
C834 C835 1.524 . S
C834 H853 0.913 . S
C835 H811 0.950 . S
C835 C834 1.524 . S
C835 C836 1.415 . S
C836 H812 0.950 . S
C836 C831 1.363 . S
C836 C835 1.415 . S
C837 H813 0.951 . S
C837 C838 1.366 . S
C837 C839 1.388 . S
C838 C837 1.366 . S
C838 C842 1.385 . S
C839 H814 0.951 . S
C839 C837 1.388 . S
C839 C840 1.366 . S
C840 C839 1.366 . S
C840 C841 1.414 . S
C840 C843 1.499 . S
C841 H815 0.950 . S
C841 C840 1.414 . S
C841 C842 1.374 . S
C842 H816 0.950 . S
C842 C838 1.385 . S
C842 C841 1.374 . S
C843 C840 1.499 . S
C843 C844 1.373 . S
C843 C845 1.389 . S
C844 H817 0.950 . S
C844 C830 1.377 . S
C844 C843 1.373 . S
C845 C829 1.377 . S
C845 C843 1.389 . S
C845 C846 1.524 . S
C846 C845 1.524 . S
C846 C847 1.397 . S
C846 C851 1.363 . S
C847 H818 0.950 . S
C847 C846 1.397 . S
C847 C848 1.334 . S
C848 H819 0.950 . S
C848 C847 1.334 . S
C848 C849 1.287 . S
C849 C848 1.287 . S
C849 C850 1.524 . S
C849 H852 0.999 . S
C850 H820 0.950 . S
C850 C849 1.524 . S
C850 C851 1.415 . S
C851 H821 0.950 . S
C851 C846 1.363 . S
C851 C850 1.415 . S
H852 C849 0.999 . S
H853 C834 0.913 . S
H854 C872 0.951 . S
H855 C874 0.951 . S
H856 C876 0.950 . S
H857 C877 0.950 . S
H858 C879 0.950 . S
H859 C882 0.950 . S
H860 C883 0.950 . S
H861 C885 0.950 . S
H862 C886 0.950 . S
H863 C887 0.951 . S
H864 C889 0.951 . S
H865 C891 0.950 . S
H866 C892 0.950 . S
H867 C894 0.950 . S
H868 C897 0.950 . S
H869 C898 0.950 . S
H870 C900 0.950 . S
H871 C901 0.950 . S
C872 H854 0.951 . S
C872 C873 1.366 . S
C872 C874 1.388 . S
C873 C872 1.366 . S
C873 C877 1.385 . S
C874 H855 0.951 . S
C874 C872 1.388 . S
C874 C875 1.366 . S
C875 C874 1.366 . S
C875 C876 1.414 . S
C875 C878 1.499 . S
C876 H856 0.950 . S
C876 C875 1.414 . S
C876 C877 1.374 . S
C877 H857 0.950 . S
C877 C873 1.385 . S
C877 C876 1.374 . S
C878 C875 1.499 . S
C878 C879 1.373 . S
C878 C880 1.389 . S
C879 H858 0.950 . S
C879 C878 1.373 . S
C879 C895 1.377 . S
C880 C878 1.389 . S
C880 C881 1.524 . S
C880 C894 1.377 . S
C881 C880 1.524 . S
C881 C882 1.397 . S
C881 C886 1.363 . S
C882 H859 0.950 . S
C882 C881 1.397 . S
C882 C883 1.334 . S
C883 H860 0.950 . S
C883 C882 1.334 . S
C883 C884 1.287 . S
C884 C883 1.287 . S
C884 C885 1.524 . S
C884 H903 0.913 . S
C885 H861 0.950 . S
C885 C884 1.524 . S
C885 C886 1.415 . S
C886 H862 0.950 . S
C886 C881 1.363 . S
C886 C885 1.415 . S
C887 H863 0.951 . S
C887 C888 1.366 . S
C887 C889 1.388 . S
C888 C887 1.366 . S
C888 C892 1.385 . S
C889 H864 0.951 . S
C889 C887 1.388 . S
C889 C890 1.366 . S
C890 C889 1.366 . S
C890 C891 1.414 . S
C890 C893 1.499 . S
C891 H865 0.950 . S
C891 C890 1.414 . S
C891 C892 1.374 . S
C892 H866 0.950 . S
C892 C888 1.385 . S
C892 C891 1.374 . S
C893 C890 1.499 . S
C893 C894 1.373 . S
C893 C895 1.389 . S
C894 H867 0.950 . S
C894 C880 1.377 . S
C894 C893 1.373 . S
C895 C879 1.377 . S
C895 C893 1.389 . S
C895 C896 1.524 . S
C896 C895 1.524 . S
C896 C897 1.397 . S
C896 C901 1.363 . S
C897 H868 0.950 . S
C897 C896 1.397 . S
C897 C898 1.334 . S
C898 H869 0.950 . S
C898 C897 1.334 . S
C898 C899 1.287 . S
C899 C898 1.287 . S
C899 C900 1.524 . S
C899 H902 0.999 . S
C900 H870 0.950 . S
C900 C899 1.524 . S
C900 C901 1.415 . S
C901 H871 0.950 . S
C901 C896 1.363 . S
C901 C900 1.415 . S
H902 C899 0.999 . S
H903 C884 0.913 . S
H904 C922 0.951 . S
H905 C924 0.951 . S
H906 C926 0.950 . S
H907 C927 0.950 . S
H908 C929 0.950 . S
H909 C932 0.950 . S
H910 C933 0.950 . S
H911 C935 0.950 . S
H912 C936 0.942 1_455 S
H913 C937 0.951 . S
H914 C939 0.951 . S
H915 C941 0.950 . S
H916 C942 0.950 . S
H917 C944 0.950 . S
H918 C947 0.950 . S
H919 C948 0.950 . S
H920 C950 0.950 . S
H921 C951 0.950 1_655 S
C922 H904 0.951 . S
C922 C923 1.366 . S
C922 C924 1.388 . S
C923 C922 1.366 . S
C923 C927 1.385 1_455 S
C924 H905 0.951 . S
C924 C922 1.388 . S
C924 C925 1.366 . S
C925 C924 1.366 . S
C925 C926 1.414 1_455 S
C925 C928 1.495 1_455 S
C926 H906 0.950 . S
C926 C925 1.414 1_655 S
C926 C927 1.374 . S
C927 H907 0.950 . S
C927 C923 1.385 1_655 S
C927 C926 1.374 . S
C928 C925 1.495 1_655 S
C928 C929 1.360 1_655 S
C928 C930 1.405 . S
C929 H908 0.950 . S
C929 C928 1.360 1_455 S
C929 C945 1.377 . S
C930 C928 1.405 . S
C930 C931 1.524 . S
C930 C944 1.377 . S
C931 C930 1.524 . S
C931 C932 1.397 . S
C931 C936 1.363 . S
C932 H909 0.950 . S
C932 C931 1.397 . S
C932 C933 1.334 . S
C933 H910 0.950 . S
C933 C932 1.334 . S
C933 C934 1.287 . S
C934 C933 1.287 . S
C934 C935 1.524 . S
C934 H953 0.913 . S
C935 H911 0.950 . S
C935 C934 1.524 . S
C935 C936 1.415 . S
C936 H912 0.942 1_655 S
C936 C931 1.363 . S
C936 C935 1.415 . S
C937 H913 0.951 . S
C937 C938 1.366 . S
C937 C939 1.388 . S
C938 C937 1.366 . S
C938 C942 1.385 1_655 S
C939 H914 0.951 . S
C939 C937 1.388 . S
C939 C940 1.366 . S
C940 C939 1.366 . S
C940 C941 1.414 1_655 S
C940 C943 1.505 . S
C941 H915 0.950 . S
C941 C940 1.414 1_455 S
C941 C942 1.374 . S
C942 H916 0.950 . S
C942 C938 1.385 1_455 S
C942 C941 1.374 . S
C943 C940 1.505 . S
C943 C944 1.391 . S
C943 C945 1.373 1_655 S
C944 H917 0.950 . S
C944 C930 1.377 . S
C944 C943 1.391 . S
C945 C929 1.377 . S
C945 C943 1.373 1_455 S
C945 C946 1.524 . S
C946 C945 1.524 . S
C946 C947 1.397 . S
C946 C951 1.363 . S
C947 H918 0.950 . S
C947 C946 1.397 . S
C947 C948 1.334 . S
C948 H919 0.950 . S
C948 C947 1.334 . S
C948 C949 1.287 . S
C949 C948 1.287 . S
C949 C950 1.524 . S
C949 H952 0.999 . S
C950 H920 0.950 . S
C950 C949 1.524 . S
C950 C951 1.415 . S
C951 H921 0.950 1_455 S
C951 C946 1.363 . S
C951 C950 1.415 . S
H952 C949 0.999 . S
H953 C934 0.913 . S
H954 C972 0.951 . S
H955 C974 0.951 . S
H956 C976 0.950 . S
H957 C977 0.950 . S
H958 C979 0.950 . S
H959 C982 0.950 . S
H960 C983 0.950 . S
H961 C985 0.950 . S
H962 C986 0.950 . S
H963 C987 0.951 . S
H964 C989 0.951 . S
H965 C991 0.950 . S
H966 C992 0.950 . S
H967 C994 0.950 . S
H968 C997 0.950 . S
H969 C998 0.950 . S
H970 C1000 0.950 . S
H971 C1001 0.950 . S
C972 H954 0.951 . S
C972 C973 1.366 . S
C972 C974 1.388 . S
C973 C972 1.366 . S
C973 C977 1.385 . S
C974 H955 0.951 . S
C974 C972 1.388 . S
C974 C975 1.366 . S
C975 C974 1.366 . S
C975 C976 1.414 . S
C975 C978 1.499 . S
C976 H956 0.950 . S
C976 C975 1.414 . S
C976 C977 1.374 . S
C977 H957 0.950 . S
C977 C973 1.385 . S
C977 C976 1.374 . S
C978 C975 1.499 . S
C978 C979 1.373 . S
C978 C980 1.389 . S
C979 H958 0.950 . S
C979 C978 1.373 . S
C979 C995 1.377 . S
C980 C978 1.389 . S
C980 C981 1.524 . S
C980 C994 1.377 . S
C981 C980 1.524 . S
C981 C982 1.397 . S
C981 C986 1.363 . S
C982 H959 0.950 . S
C982 C981 1.397 . S
C982 C983 1.334 . S
C983 H960 0.950 . S
C983 C982 1.334 . S
C983 C984 1.287 . S
C984 C983 1.287 . S
C984 C985 1.524 . S
C984 H1003 0.913 . S
C985 H961 0.950 . S
C985 C984 1.524 . S
C985 C986 1.415 . S
C986 H962 0.950 . S
C986 C981 1.363 . S
C986 C985 1.415 . S
C987 H963 0.951 . S
C987 C988 1.366 . S
C987 C989 1.388 . S
C988 C987 1.366 . S
C988 C992 1.385 . S
C989 H964 0.951 . S
C989 C987 1.388 . S
C989 C990 1.366 . S
C990 C989 1.366 . S
C990 C991 1.414 . S
C990 C993 1.499 . S
C991 H965 0.950 . S
C991 C990 1.414 . S
C991 C992 1.374 . S
C992 H966 0.950 . S
C992 C988 1.385 . S
C992 C991 1.374 . S
C993 C990 1.499 . S
C993 C994 1.373 . S
C993 C995 1.389 . S
C994 H967 0.950 . S
C994 C980 1.377 . S
C994 C993 1.373 . S
C995 C979 1.377 . S
C995 C993 1.389 . S
C995 C996 1.524 . S
C996 C995 1.524 . S
C996 C997 1.397 . S
C996 C1001 1.363 . S
C997 H968 0.950 . S
C997 C996 1.397 . S
C997 C998 1.334 . S
C998 H969 0.950 . S
C998 C997 1.334 . S
C998 C999 1.287 . S
C999 C998 1.287 . S
C999 C1000 1.524 . S
C999 H1002 0.999 . S
C1000 H970 0.950 . S
C1000 C999 1.524 . S
C1000 C1001 1.415 . S
C1001 H971 0.950 . S
C1001 C996 1.363 . S
C1001 C1000 1.415 . S
H1002 C999 0.999 . S
H1003 C984 0.913 . S
H1004 C1022 0.951 . S
H1005 C1024 0.951 . S
H1006 C1026 0.950 . S
H1007 C1027 0.950 . S
H1008 C1029 0.950 . S
H1009 C1032 0.950 . S
H1010 C1033 0.950 . S
H1011 C1035 0.950 . S
H1012 C1036 0.950 . S
H1013 C1037 0.951 1_554 S
H1014 C1039 0.951 . S
H1015 C1041 0.950 . S
H1016 C1042 0.937 1_554 S
H1017 C1044 0.950 . S
H1018 C1047 0.950 . S
H1019 C1048 0.950 . S
H1020 C1050 0.950 . S
H1021 C1051 0.950 . S
C1022 H1004 0.951 . S
C1022 C1023 1.366 . S
C1022 C1024 1.388 . S
C1023 C1022 1.366 . S
C1023 C1027 1.385 . S
C1024 H1005 0.951 . S
C1024 C1022 1.388 . S
C1024 C1025 1.366 . S
C1025 C1024 1.366 . S
C1025 C1026 1.414 . S
C1025 C1028 1.499 . S
C1026 H1006 0.950 . S
C1026 C1025 1.414 . S
C1026 C1027 1.374 . S
C1027 H1007 0.950 . S
C1027 C1023 1.385 . S
C1027 C1026 1.374 . S
C1028 C1025 1.499 . S
C1028 C1029 1.373 . S
C1028 C1030 1.389 . S
C1029 H1008 0.950 . S
C1029 C1028 1.373 . S
C1029 C1045 1.377 . S
C1030 C1028 1.389 . S
C1030 C1031 1.524 . S
C1030 C1044 1.377 . S
C1031 C1030 1.524 . S
C1031 C1032 1.397 . S
C1031 C1036 1.363 . S
C1032 H1009 0.950 . S
C1032 C1031 1.397 . S
C1032 C1033 1.334 . S
C1033 H1010 0.950 . S
C1033 C1032 1.334 . S
C1033 C1034 1.287 . S
C1034 C1033 1.287 . S
C1034 C1035 1.524 . S
C1034 H1053 0.913 . S
C1035 H1011 0.950 . S
C1035 C1034 1.524 . S
C1035 C1036 1.415 . S
C1036 H1012 0.950 . S
C1036 C1031 1.363 . S
C1036 C1035 1.415 . S
C1037 H1013 0.951 1_556 S
C1037 C1038 1.366 1_556 S
C1037 C1039 1.388 . S
C1038 C1037 1.366 1_554 S
C1038 C1042 1.385 1_554 S
C1039 H1014 0.951 . S
C1039 C1037 1.388 . S
C1039 C1040 1.366 . S
C1040 C1039 1.366 . S
C1040 C1041 1.414 . S
C1040 C1043 1.499 . S
C1041 H1015 0.950 . S
C1041 C1040 1.414 . S
C1041 C1042 1.374 . S
C1042 H1016 0.937 1_556 S
C1042 C1038 1.385 1_556 S
C1042 C1041 1.374 . S
C1043 C1040 1.499 . S
C1043 C1044 1.373 . S
C1043 C1045 1.389 . S
C1044 H1017 0.950 . S
C1044 C1030 1.377 . S
C1044 C1043 1.373 . S
C1045 C1029 1.377 . S
C1045 C1043 1.389 . S
C1045 C1046 1.524 . S
C1046 C1045 1.524 . S
C1046 C1047 1.397 1_556 S
C1046 C1051 1.363 . S
C1047 H1018 0.950 . S
C1047 C1046 1.397 1_554 S
C1047 C1048 1.334 . S
C1048 H1019 0.950 . S
C1048 C1047 1.334 . S
C1048 C1049 1.287 . S
C1049 C1048 1.287 . S
C1049 C1050 1.524 . S
C1049 H1052 0.999 . S
C1050 H1020 0.950 . S
C1050 C1049 1.524 . S
C1050 C1051 1.415 1_554 S
C1051 H1021 0.950 . S
C1051 C1046 1.363 . S
C1051 C1050 1.415 1_556 S
H1052 C1049 0.999 . S
H1053 C1034 0.913 . S
H1054 C1072 0.951 . S
H1055 C1074 0.951 . S
H1056 C1076 0.950 . S
H1057 C1077 0.950 . S
H1058 C1079 0.950 . S
H1059 C1082 0.950 . S
H1060 C1083 0.950 . S
H1061 C1085 0.950 . S
H1062 C1086 0.950 . S
H1063 C1087 0.951 . S
H1064 C1089 0.951 . S
H1065 C1091 0.950 . S
H1066 C1092 0.950 . S
H1067 C1094 0.950 . S
H1068 C1097 0.950 . S
H1069 C1098 0.950 . S
H1070 C1100 0.950 . S
H1071 C1101 0.950 . S
C1072 H1054 0.951 . S
C1072 C1073 1.366 . S
C1072 C1074 1.388 . S
C1073 C1072 1.366 . S
C1073 C1077 1.385 . S
C1074 H1055 0.951 . S
C1074 C1072 1.388 . S
C1074 C1075 1.366 . S
C1075 C1074 1.366 . S
C1075 C1076 1.414 . S
C1075 C1078 1.499 . S
C1076 H1056 0.950 . S
C1076 C1075 1.414 . S
C1076 C1077 1.374 . S
C1077 H1057 0.950 . S
C1077 C1073 1.385 . S
C1077 C1076 1.374 . S
C1078 C1075 1.499 . S
C1078 C1079 1.373 . S
C1078 C1080 1.389 . S
C1079 H1058 0.950 . S
C1079 C1078 1.373 . S
C1079 C1095 1.377 . S
C1080 C1078 1.389 . S
C1080 C1081 1.524 . S
C1080 C1094 1.377 . S
C1081 C1080 1.524 . S
C1081 C1082 1.397 . S
C1081 C1086 1.363 . S
C1082 H1059 0.950 . S
C1082 C1081 1.397 . S
C1082 C1083 1.334 . S
C1083 H1060 0.950 . S
C1083 C1082 1.334 . S
C1083 C1084 1.287 . S
C1084 C1083 1.287 . S
C1084 C1085 1.524 . S
C1084 H1103 0.913 . S
C1085 H1061 0.950 . S
C1085 C1084 1.524 . S
C1085 C1086 1.415 . S
C1086 H1062 0.950 . S
C1086 C1081 1.363 . S
C1086 C1085 1.415 . S
C1087 H1063 0.951 . S
C1087 C1088 1.366 . S
C1087 C1089 1.388 . S
C1088 C1087 1.366 . S
C1088 C1092 1.385 . S
C1089 H1064 0.951 . S
C1089 C1087 1.388 . S
C1089 C1090 1.366 . S
C1090 C1089 1.366 . S
C1090 C1091 1.414 . S
C1090 C1093 1.499 . S
C1091 H1065 0.950 . S
C1091 C1090 1.414 . S
C1091 C1092 1.374 . S
C1092 H1066 0.950 . S
C1092 C1088 1.385 . S
C1092 C1091 1.374 . S
C1093 C1090 1.499 . S
C1093 C1094 1.373 . S
C1093 C1095 1.389 . S
C1094 H1067 0.950 . S
C1094 C1080 1.377 . S
C1094 C1093 1.373 . S
C1095 C1079 1.377 . S
C1095 C1093 1.389 . S
C1095 C1096 1.524 . S
C1096 C1095 1.524 . S
C1096 C1097 1.397 . S
C1096 C1101 1.363 . S
C1097 H1068 0.950 . S
C1097 C1096 1.397 . S
C1097 C1098 1.334 . S
C1098 H1069 0.950 . S
C1098 C1097 1.334 . S
C1098 C1099 1.287 . S
C1099 C1098 1.287 . S
C1099 C1100 1.524 . S
C1099 H1102 0.999 . S
C1100 H1070 0.950 . S
C1100 C1099 1.524 . S
C1100 C1101 1.415 . S
C1101 H1071 0.950 . S
C1101 C1096 1.363 . S
C1101 C1100 1.415 . S
H1102 C1099 0.999 . S
H1103 C1084 0.913 . S
H1104 C1122 0.951 . S
H1105 C1124 0.951 . S
H1106 C1126 0.950 . S
H1107 C1127 0.950 . S
H1108 C1129 0.950 . S
H1109 C1132 0.950 . S
H1110 C1133 0.950 . S
H1111 C1135 0.950 . S
H1112 C1136 0.950 . S
H1113 C1137 0.951 . S
H1114 C1139 0.951 . S
H1115 C1141 0.955 . S
H1116 C1142 0.950 . S
H1117 C1144 0.950 . S
H1118 C1147 0.950 . S
H1119 C1148 0.950 . S
H1120 C1150 0.911 1_655 S
H1121 C1151 0.950 . S
C1122 H1104 0.951 . S
C1122 C1123 1.366 . S
C1122 C1124 1.388 . S
C1123 C1122 1.366 . S
C1123 C1127 1.385 . S
C1124 H1105 0.951 . S
C1124 C1122 1.388 . S
C1124 C1125 1.366 . S
C1125 C1124 1.366 . S
C1125 C1126 1.414 . S
C1125 C1128 1.499 . S
C1126 H1106 0.950 . S
C1126 C1125 1.414 . S
C1126 C1127 1.374 . S
C1127 H1107 0.950 . S
C1127 C1123 1.385 . S
C1127 C1126 1.374 . S
C1128 C1125 1.499 . S
C1128 C1129 1.373 . S
C1128 C1130 1.389 . S
C1129 H1108 0.950 . S
C1129 C1128 1.373 . S
C1129 C1145 1.377 . S
C1130 C1128 1.389 . S
C1130 C1131 1.524 . S
C1130 C1144 1.377 . S
C1131 C1130 1.524 . S
C1131 C1132 1.397 . S
C1131 C1136 1.363 . S
C1132 H1109 0.950 . S
C1132 C1131 1.397 . S
C1132 C1133 1.334 . S
C1133 H1110 0.950 . S
C1133 C1132 1.334 . S
C1133 C1134 1.287 . S
C1134 C1133 1.287 . S
C1134 C1135 1.524 . S
C1134 H1153 0.913 . S
C1135 H1111 0.950 . S
C1135 C1134 1.524 . S
C1135 C1136 1.415 . S
C1136 H1112 0.950 . S
C1136 C1131 1.363 . S
C1136 C1135 1.415 . S
C1137 H1113 0.951 . S
C1137 C1138 1.366 . S
C1137 C1139 1.388 . S
C1138 C1137 1.366 . S
C1138 C1142 1.385 1_545 S
C1139 H1114 0.951 . S
C1139 C1137 1.388 . S
C1139 C1140 1.366 . S
C1140 C1139 1.366 . S
C1140 C1141 1.409 1_545 S
C1140 C1143 1.499 . S
C1141 H1115 0.955 . S
C1141 C1140 1.409 1_565 S
C1141 C1142 1.374 . S
C1142 H1116 0.950 . S
C1142 C1138 1.385 1_565 S
C1142 C1141 1.374 . S
C1143 C1140 1.499 . S
C1143 C1144 1.373 . S
C1143 C1145 1.389 . S
C1144 H1117 0.950 . S
C1144 C1130 1.377 . S
C1144 C1143 1.373 . S
C1145 C1129 1.377 . S
C1145 C1143 1.389 . S
C1145 C1146 1.524 1_545 S
C1146 C1145 1.524 1_565 S
C1146 C1147 1.397 . S
C1146 C1151 1.363 1_565 S
C1147 H1118 0.950 . S
C1147 C1146 1.397 . S
C1147 C1148 1.334 . S
C1148 H1119 0.950 . S
C1148 C1147 1.334 . S
C1148 C1149 1.274 1_455 S
C1149 C1148 1.274 1_655 S
C1149 C1150 1.522 1_655 S
C1149 H1152 1.016 . S
C1150 H1120 0.911 1_455 S
C1150 C1149 1.522 1_455 S
C1150 C1151 1.462 1_565 S
C1151 H1121 0.950 . S
C1151 C1146 1.363 1_545 S
C1151 C1150 1.462 1_545 S
H1152 C1149 1.016 . S
H1153 C1134 0.913 . S
H1154 C1172 0.951 . S
H1155 C1174 0.951 . S
H1156 C1176 0.950 . S
H1157 C1177 0.950 . S
H1158 C1179 0.950 . S
H1159 C1182 0.950 . S
H1160 C1183 0.950 . S
H1161 C1185 0.950 . S
H1162 C1186 0.950 . S
H1163 C1187 0.951 . S
H1164 C1189 0.951 . S
H1165 C1191 0.950 . S
H1166 C1192 0.950 . S
H1167 C1194 0.950 . S
H1168 C1197 0.950 . S
H1169 C1198 0.950 . S
H1170 C1200 0.950 . S
H1171 C1201 0.950 . S
C1172 H1154 0.951 . S
C1172 C1173 1.366 . S
C1172 C1174 1.388 . S
C1173 C1172 1.366 . S
C1173 C1177 1.385 . S
C1174 H1155 0.951 . S
C1174 C1172 1.388 . S
C1174 C1175 1.366 . S
C1175 C1174 1.366 . S
C1175 C1176 1.414 . S
C1175 C1178 1.499 . S
C1176 H1156 0.950 . S
C1176 C1175 1.414 . S
C1176 C1177 1.374 . S
C1177 H1157 0.950 . S
C1177 C1173 1.385 . S
C1177 C1176 1.374 . S
C1178 C1175 1.499 . S
C1178 C1179 1.373 . S
C1178 C1180 1.389 . S
C1179 H1158 0.950 . S
C1179 C1178 1.373 . S
C1179 C1195 1.377 . S
C1180 C1178 1.389 . S
C1180 C1181 1.524 . S
C1180 C1194 1.377 . S
C1181 C1180 1.524 . S
C1181 C1182 1.397 . S
C1181 C1186 1.363 . S
C1182 H1159 0.950 . S
C1182 C1181 1.397 . S
C1182 C1183 1.334 . S
C1183 H1160 0.950 . S
C1183 C1182 1.334 . S
C1183 C1184 1.287 . S
C1184 C1183 1.287 . S
C1184 C1185 1.524 . S
C1184 H1203 0.913 . S
C1185 H1161 0.950 . S
C1185 C1184 1.524 . S
C1185 C1186 1.415 . S
C1186 H1162 0.950 . S
C1186 C1181 1.363 . S
C1186 C1185 1.415 . S
C1187 H1163 0.951 . S
C1187 C1188 1.366 . S
C1187 C1189 1.388 . S
C1188 C1187 1.366 . S
C1188 C1192 1.385 . S
C1189 H1164 0.951 . S
C1189 C1187 1.388 . S
C1189 C1190 1.366 . S
C1190 C1189 1.366 . S
C1190 C1191 1.414 . S
C1190 C1193 1.499 . S
C1191 H1165 0.950 . S
C1191 C1190 1.414 . S
C1191 C1192 1.374 . S
C1192 H1166 0.950 . S
C1192 C1188 1.385 . S
C1192 C1191 1.374 . S
C1193 C1190 1.499 . S
C1193 C1194 1.373 . S
C1193 C1195 1.389 . S
C1194 H1167 0.950 . S
C1194 C1180 1.377 . S
C1194 C1193 1.373 . S
C1195 C1179 1.377 . S
C1195 C1193 1.389 . S
C1195 C1196 1.524 . S
C1196 C1195 1.524 . S
C1196 C1197 1.397 . S
C1196 C1201 1.363 . S
C1197 H1168 0.950 . S
C1197 C1196 1.397 . S
C1197 C1198 1.334 . S
C1198 H1169 0.950 . S
C1198 C1197 1.334 . S
C1198 C1199 1.287 . S
C1199 C1198 1.287 . S
C1199 C1200 1.524 . S
C1199 H1202 0.999 . S
C1200 H1170 0.950 . S
C1200 C1199 1.524 . S
C1200 C1201 1.415 . S
C1201 H1171 0.950 . S
C1201 C1196 1.363 . S
C1201 C1200 1.415 . S
H1202 C1199 0.999 . S
H1203 C1184 0.913 . S
H1204 C1222 0.951 . S
H1205 C1224 0.951 . S
H1206 C1226 0.950 . S
H1207 C1227 0.950 . S
H1208 C1229 0.950 . S
H1209 C1232 0.950 . S
H1210 C1233 0.950 . S
H1211 C1235 0.950 . S
H1212 C1236 0.950 . S
H1213 C1237 0.951 1_565 S
H1214 C1239 0.951 1_565 S
H1215 C1241 0.950 . S
H1216 C1242 0.950 . S
H1217 C1244 0.950 . S
H1218 C1247 0.950 . S
H1219 C1248 0.950 . S
H1220 C1250 0.950 . S
H1221 C1251 0.950 . S
C1222 H1204 0.951 . S
C1222 C1223 1.366 . S
C1222 C1224 1.388 . S
C1223 C1222 1.366 . S
C1223 C1227 1.385 1_545 S
C1224 H1205 0.951 . S
C1224 C1222 1.388 . S
C1224 C1225 1.366 . S
C1225 C1224 1.366 . S
C1225 C1226 1.414 1_545 S
C1225 C1228 1.499 . S
C1226 H1206 0.950 . S
C1226 C1225 1.414 1_565 S
C1226 C1227 1.374 . S
C1227 H1207 0.950 . S
C1227 C1223 1.385 1_565 S
C1227 C1226 1.374 . S
C1228 C1225 1.499 . S
C1228 C1229 1.373 1_545 S
C1228 C1230 1.389 . S
C1229 H1208 0.950 . S
C1229 C1228 1.373 1_565 S
C1229 C1245 1.377 . S
C1230 C1228 1.389 . S
C1230 C1231 1.524 . S
C1230 C1244 1.377 . S
C1231 C1230 1.524 . S
C1231 C1232 1.397 . S
C1231 C1236 1.363 . S
C1232 H1209 0.950 . S
C1232 C1231 1.397 . S
C1232 C1233 1.334 . S
C1233 H1210 0.950 . S
C1233 C1232 1.334 . S
C1233 C1234 1.287 . S
C1234 C1233 1.287 . S
C1234 C1235 1.524 . S
C1234 H1253 0.913 . S
C1235 H1211 0.950 . S
C1235 C1234 1.524 . S
C1235 C1236 1.415 . S
C1236 H1212 0.950 . S
C1236 C1231 1.363 . S
C1236 C1235 1.415 . S
C1237 H1213 0.951 1_545 S
C1237 C1238 1.366 . S
C1237 C1239 1.388 . S
C1238 C1237 1.366 . S
C1238 C1242 1.385 . S
C1239 H1214 0.951 1_545 S
C1239 C1237 1.388 . S
C1239 C1240 1.366 . S
C1240 C1239 1.366 . S
C1240 C1241 1.414 . S
C1240 C1243 1.499 . S
C1241 H1215 0.950 . S
C1241 C1240 1.414 . S
C1241 C1242 1.374 . S
C1242 H1216 0.950 . S
C1242 C1238 1.385 . S
C1242 C1241 1.374 . S
C1243 C1240 1.499 . S
C1243 C1244 1.373 . S
C1243 C1245 1.389 1_545 S
C1244 H1217 0.950 . S
C1244 C1230 1.377 . S
C1244 C1243 1.373 . S
C1245 C1229 1.377 . S
C1245 C1243 1.389 1_565 S
C1245 C1246 1.524 . S
C1246 C1245 1.524 . S
C1246 C1247 1.397 . S
C1246 C1251 1.363 . S
C1247 H1218 0.950 . S
C1247 C1246 1.397 . S
C1247 C1248 1.334 . S
C1248 H1219 0.950 . S
C1248 C1247 1.334 . S
C1248 C1249 1.287 . S
C1249 C1248 1.287 . S
C1249 C1250 1.524 . S
C1249 H1252 0.999 . S
C1250 H1220 0.950 . S
C1250 C1249 1.524 . S
C1250 C1251 1.415 . S
C1251 H1221 0.950 . S
C1251 C1246 1.363 . S
C1251 C1250 1.415 . S
H1252 C1249 0.999 . S
H1253 C1234 0.913 . S
H1254 C1272 0.951 . S
H1255 C1274 0.951 . S
H1256 C1276 0.950 . S
H1257 C1277 0.950 . S
H1258 C1279 0.950 . S
H1259 C1282 0.950 . S
H1260 C1283 0.950 . S
H1261 C1285 0.950 . S
H1262 C1286 0.950 . S
H1263 C1287 0.951 . S
H1264 C1289 0.951 . S
H1265 C1291 0.950 . S
H1266 C1292 0.950 . S
H1267 C1294 0.950 . S
H1268 C1297 0.950 . S
H1269 C1298 0.950 . S
H1270 C1300 0.950 . S
H1271 C1301 0.950 . S
C1272 H1254 0.951 . S
C1272 C1273 1.366 . S
C1272 C1274 1.388 . S
C1273 C1272 1.366 . S
C1273 C1277 1.385 . S
C1274 H1255 0.951 . S
C1274 C1272 1.388 . S
C1274 C1275 1.366 . S
C1275 C1274 1.366 . S
C1275 C1276 1.414 . S
C1275 C1278 1.499 . S
C1276 H1256 0.950 . S
C1276 C1275 1.414 . S
C1276 C1277 1.374 . S
C1277 H1257 0.950 . S
C1277 C1273 1.385 . S
C1277 C1276 1.374 . S
C1278 C1275 1.499 . S
C1278 C1279 1.373 . S
C1278 C1280 1.389 . S
C1279 H1258 0.950 . S
C1279 C1278 1.373 . S
C1279 C1295 1.377 . S
C1280 C1278 1.389 . S
C1280 C1281 1.524 . S
C1280 C1294 1.377 . S
C1281 C1280 1.524 . S
C1281 C1282 1.397 . S
C1281 C1286 1.363 . S
C1282 H1259 0.950 . S
C1282 C1281 1.397 . S
C1282 C1283 1.334 . S
C1283 H1260 0.950 . S
C1283 C1282 1.334 . S
C1283 C1284 1.287 . S
C1284 C1283 1.287 . S
C1284 C1285 1.524 . S
C1284 H1303 0.913 . S
C1285 H1261 0.950 . S
C1285 C1284 1.524 . S
C1285 C1286 1.415 . S
C1286 H1262 0.950 . S
C1286 C1281 1.363 . S
C1286 C1285 1.415 . S
C1287 H1263 0.951 . S
C1287 C1288 1.366 . S
C1287 C1289 1.388 . S
C1288 C1287 1.366 . S
C1288 C1292 1.385 . S
C1289 H1264 0.951 . S
C1289 C1287 1.388 . S
C1289 C1290 1.366 . S
C1290 C1289 1.366 . S
C1290 C1291 1.414 . S
C1290 C1293 1.499 . S
C1291 H1265 0.950 . S
C1291 C1290 1.414 . S
C1291 C1292 1.374 . S
C1292 H1266 0.950 . S
C1292 C1288 1.385 . S
C1292 C1291 1.374 . S
C1293 C1290 1.499 . S
C1293 C1294 1.373 . S
C1293 C1295 1.389 . S
C1294 H1267 0.950 . S
C1294 C1280 1.377 . S
C1294 C1293 1.373 . S
C1295 C1279 1.377 . S
C1295 C1293 1.389 . S
C1295 C1296 1.524 . S
C1296 C1295 1.524 . S
C1296 C1297 1.397 . S
C1296 C1301 1.363 . S
C1297 H1268 0.950 . S
C1297 C1296 1.397 . S
C1297 C1298 1.334 . S
C1298 H1269 0.950 . S
C1298 C1297 1.334 . S
C1298 C1299 1.287 . S
C1299 C1298 1.287 . S
C1299 C1300 1.524 . S
C1299 H1302 0.999 . S
C1300 H1270 0.950 . S
C1300 C1299 1.524 . S
C1300 C1301 1.415 . S
C1301 H1271 0.950 . S
C1301 C1296 1.363 . S
C1301 C1300 1.415 . S
H1302 C1299 0.999 . S
H1303 C1284 0.913 . S
H1304 C1322 0.951 . S
H1305 C1324 0.951 . S
H1306 C1326 0.950 . S
H1307 C1327 0.950 . S
H1308 C1329 0.950 . S
H1309 C1332 0.950 . S
H1310 C1333 0.950 . S
H1311 C1335 0.950 . S
H1312 C1336 0.950 . S
H1313 C1337 0.951 . S
H1314 C1339 0.951 . S
H1315 C1341 0.950 . S
H1316 C1342 0.950 . S
H1317 C1344 0.950 . S
H1318 C1347 0.950 . S
H1319 C1348 0.950 . S
H1320 C1350 0.950 1_655 S
H1321 C1351 0.950 . S
C1322 H1304 0.951 . S
C1322 C1323 1.366 . S
C1322 C1324 1.388 . S
C1323 C1322 1.366 . S
C1323 C1327 1.385 . S
C1324 H1305 0.951 . S
C1324 C1322 1.388 . S
C1324 C1325 1.366 . S
C1325 C1324 1.366 . S
C1325 C1326 1.414 . S
C1325 C1328 1.499 . S
C1326 H1306 0.950 . S
C1326 C1325 1.414 . S
C1326 C1327 1.374 . S
C1327 H1307 0.950 . S
C1327 C1323 1.385 . S
C1327 C1326 1.374 . S
C1328 C1325 1.499 . S
C1328 C1329 1.373 . S
C1328 C1330 1.389 . S
C1329 H1308 0.950 . S
C1329 C1328 1.373 . S
C1329 C1345 1.377 . S
C1330 C1328 1.389 . S
C1330 C1331 1.524 . S
C1330 C1344 1.377 . S
C1331 C1330 1.524 . S
C1331 C1332 1.397 1_545 S
C1331 C1336 1.363 . S
C1332 H1309 0.950 . S
C1332 C1331 1.397 1_565 S
C1332 C1333 1.334 . S
C1333 H1310 0.950 . S
C1333 C1332 1.334 . S
C1333 C1334 1.287 . S
C1334 C1333 1.287 . S
C1334 C1335 1.524 1_565 S
C1334 H1353 0.913 . S
C1335 H1311 0.950 . S
C1335 C1334 1.524 1_545 S
C1335 C1336 1.415 . S
C1336 H1312 0.950 . S
C1336 C1331 1.363 . S
C1336 C1335 1.415 . S
C1337 H1313 0.951 . S
C1337 C1338 1.366 . S
C1337 C1339 1.388 . S
C1338 C1337 1.366 . S
C1338 C1342 1.385 . S
C1339 H1314 0.951 . S
C1339 C1337 1.388 . S
C1339 C1340 1.366 . S
C1340 C1339 1.366 . S
C1340 C1341 1.414 . S
C1340 C1343 1.499 . S
C1341 H1315 0.950 . S
C1341 C1340 1.414 . S
C1341 C1342 1.374 . S
C1342 H1316 0.950 . S
C1342 C1338 1.385 . S
C1342 C1341 1.374 . S
C1343 C1340 1.499 . S
C1343 C1344 1.373 . S
C1343 C1345 1.389 . S
C1344 H1317 0.950 . S
C1344 C1330 1.377 . S
C1344 C1343 1.373 . S
C1345 C1329 1.377 . S
C1345 C1343 1.389 . S
C1345 C1346 1.524 . S
C1346 C1345 1.524 . S
C1346 C1347 1.397 . S
C1346 C1351 1.363 . S
C1347 H1318 0.950 . S
C1347 C1346 1.397 . S
C1347 C1348 1.334 . S
C1348 H1319 0.950 . S
C1348 C1347 1.334 . S
C1348 C1349 1.287 . S
C1349 C1348 1.287 . S
C1349 C1350 1.524 . S
C1349 H1352 0.999 1_455 S
C1350 H1320 0.950 1_455 S
C1350 C1349 1.524 . S
C1350 C1351 1.415 . S
C1351 H1321 0.950 . S
C1351 C1346 1.363 . S
C1351 C1350 1.415 . S
H1352 C1349 0.999 1_655 S
H1353 C1334 0.913 . S
H1354 C1372 0.951 . S
H1355 C1374 0.951 . S
H1356 C1376 0.950 . S
H1357 C1377 0.950 . S
H1358 C1379 0.950 . S
H1359 C1382 0.950 . S
H1360 C1383 0.950 . S
H1361 C1385 0.950 . S
H1362 C1386 0.950 . S
H1363 C1387 0.951 . S
H1364 C1389 0.951 . S
H1365 C1391 0.950 . S
H1366 C1392 0.950 . S
H1367 C1394 0.950 . S
H1368 C1397 0.950 . S
H1369 C1398 0.950 . S
H1370 C1400 0.950 . S
H1371 C1401 0.950 . S
C1372 H1354 0.951 . S
C1372 C1373 1.366 . S
C1372 C1374 1.388 . S
C1373 C1372 1.366 . S
C1373 C1377 1.385 . S
C1374 H1355 0.951 . S
C1374 C1372 1.388 . S
C1374 C1375 1.366 . S
C1375 C1374 1.366 . S
C1375 C1376 1.414 . S
C1375 C1378 1.499 . S
C1376 H1356 0.950 . S
C1376 C1375 1.414 . S
C1376 C1377 1.374 . S
C1377 H1357 0.950 . S
C1377 C1373 1.385 . S
C1377 C1376 1.374 . S
C1378 C1375 1.499 . S
C1378 C1379 1.373 . S
C1378 C1380 1.389 . S
C1379 H1358 0.950 . S
C1379 C1378 1.373 . S
C1379 C1395 1.377 . S
C1380 C1378 1.389 . S
C1380 C1381 1.524 . S
C1380 C1394 1.377 . S
C1381 C1380 1.524 . S
C1381 C1382 1.397 . S
C1381 C1386 1.363 . S
C1382 H1359 0.950 . S
C1382 C1381 1.397 . S
C1382 C1383 1.334 . S
C1383 H1360 0.950 . S
C1383 C1382 1.334 . S
C1383 C1384 1.287 . S
C1384 C1383 1.287 . S
C1384 C1385 1.524 . S
C1384 H1403 0.913 . S
C1385 H1361 0.950 . S
C1385 C1384 1.524 . S
C1385 C1386 1.415 . S
C1386 H1362 0.950 . S
C1386 C1381 1.363 . S
C1386 C1385 1.415 . S
C1387 H1363 0.951 . S
C1387 C1388 1.366 . S
C1387 C1389 1.388 . S
C1388 C1387 1.366 . S
C1388 C1392 1.385 . S
C1389 H1364 0.951 . S
C1389 C1387 1.388 . S
C1389 C1390 1.366 . S
C1390 C1389 1.366 . S
C1390 C1391 1.414 . S
C1390 C1393 1.499 . S
C1391 H1365 0.950 . S
C1391 C1390 1.414 . S
C1391 C1392 1.374 . S
C1392 H1366 0.950 . S
C1392 C1388 1.385 . S
C1392 C1391 1.374 . S
C1393 C1390 1.499 . S
C1393 C1394 1.373 . S
C1393 C1395 1.389 . S
C1394 H1367 0.950 . S
C1394 C1380 1.377 . S
C1394 C1393 1.373 . S
C1395 C1379 1.377 . S
C1395 C1393 1.389 . S
C1395 C1396 1.524 . S
C1396 C1395 1.524 . S
C1396 C1397 1.397 . S
C1396 C1401 1.363 . S
C1397 H1368 0.950 . S
C1397 C1396 1.397 . S
C1397 C1398 1.334 . S
C1398 H1369 0.950 . S
C1398 C1397 1.334 . S
C1398 C1399 1.287 . S
C1399 C1398 1.287 . S
C1399 C1400 1.524 . S
C1399 H1402 0.999 . S
C1400 H1370 0.950 . S
C1400 C1399 1.524 . S
C1400 C1401 1.415 . S
C1401 H1371 0.950 . S
C1401 C1396 1.363 . S
C1401 C1400 1.415 . S
H1402 C1399 0.999 . S
H1403 C1384 0.913 . S
H1404 C1422 0.951 . S
H1405 C1424 0.951 . S
H1406 C1426 0.950 . S
H1407 C1427 0.950 . S
H1408 C1429 0.950 . S
H1409 C1432 0.950 . S
H1410 C1433 0.950 . S
H1411 C1435 0.950 . S
H1412 C1436 0.950 1_565 S
H1413 C1437 0.966 . S
H1414 C1439 0.951 . S
H1415 C1441 0.950 . S
H1416 C1442 0.950 . S
H1417 C1444 0.950 1_545 S
H1418 C1447 0.950 . S
H1419 C1448 0.950 . S
H1420 C1450 0.950 . S
H1421 C1451 0.951 1_545 S
C1422 H1404 0.951 . S
C1422 C1423 1.380 . S
C1422 C1424 1.388 . S
C1423 C1422 1.380 . S
C1423 C1427 1.372 1_565 S
C1424 H1405 0.951 . S
C1424 C1422 1.388 . S
C1424 C1425 1.366 . S
C1425 C1424 1.366 . S
C1425 C1426 1.414 1_565 S
C1425 C1428 1.499 . S
C1426 H1406 0.950 . S
C1426 C1425 1.414 1_545 S
C1426 C1427 1.374 . S
C1427 H1407 0.950 . S
C1427 C1423 1.372 1_545 S
C1427 C1426 1.374 . S
C1428 C1425 1.499 . S
C1428 C1429 1.373 . S
C1428 C1430 1.389 1_565 S
C1429 H1408 0.950 . S
C1429 C1428 1.373 . S
C1429 C1445 1.377 . S
C1430 C1428 1.389 1_545 S
C1430 C1431 1.524 . S
C1430 C1444 1.377 1_545 S
C1431 C1430 1.524 . S
C1431 C1432 1.397 . S
C1431 C1436 1.363 . S
C1432 H1409 0.950 . S
C1432 C1431 1.397 . S
C1432 C1433 1.334 . S
C1433 H1410 0.950 . S
C1433 C1432 1.334 . S
C1433 C1434 1.287 . S
C1434 C1433 1.287 . S
C1434 C1435 1.524 . S
C1434 H1453 0.913 . S
C1435 H1411 0.950 . S
C1435 C1434 1.524 . S
C1435 C1436 1.415 . S
C1436 H1412 0.950 1_545 S
C1436 C1431 1.363 . S
C1436 C1435 1.415 . S
C1437 H1413 0.966 . S
C1437 C1438 1.350 1_545 S
C1437 C1439 1.390 . S
C1438 C1437 1.350 1_565 S
C1438 C1442 1.385 . S
C1439 H1414 0.951 . S
C1439 C1437 1.390 . S
C1439 C1440 1.366 1_545 S
C1440 C1439 1.366 1_565 S
C1440 C1441 1.414 . S
C1440 C1443 1.499 . S
C1441 H1415 0.950 . S
C1441 C1440 1.414 . S
C1441 C1442 1.374 . S
C1442 H1416 0.950 . S
C1442 C1438 1.385 . S
C1442 C1441 1.374 . S
C1443 C1440 1.499 . S
C1443 C1444 1.373 . S
C1443 C1445 1.389 . S
C1444 H1417 0.950 1_565 S
C1444 C1430 1.377 1_565 S
C1444 C1443 1.373 . S
C1445 C1429 1.377 . S
C1445 C1443 1.389 . S
C1445 C1446 1.524 . S
C1446 C1445 1.524 . S
C1446 C1447 1.397 . S
C1446 C1451 1.363 . S
C1447 H1418 0.950 . S
C1447 C1446 1.397 . S
C1447 C1448 1.334 . S
C1448 H1419 0.950 . S
C1448 C1447 1.334 . S
C1448 C1449 1.287 . S
C1449 C1448 1.287 . S
C1449 C1450 1.524 . S
C1449 H1452 0.999 . S
C1450 H1420 0.950 . S
C1450 C1449 1.524 . S
C1450 C1451 1.415 . S
C1451 H1421 0.951 1_565 S
C1451 C1446 1.363 . S
C1451 C1450 1.415 . S
H1452 C1449 0.999 . S
H1453 C1434 0.913 . S
H1454 C1472 0.951 . S
H1455 C1474 0.951 . S
H1456 C1476 0.950 . S
H1457 C1477 0.950 . S
H1458 C1479 0.950 . S
H1459 C1482 0.950 . S
H1460 C1483 0.950 . S
H1461 C1485 0.950 . S
H1462 C1486 0.950 . S
H1463 C1487 0.951 . S
H1464 C1489 0.951 . S
H1465 C1491 0.950 . S
H1466 C1492 0.950 . S
H1467 C1494 0.950 . S
H1468 C1497 0.950 . S
H1469 C1498 0.950 . S
H1470 C1500 0.950 . S
H1471 C1501 0.950 . S
C1472 H1454 0.951 . S
C1472 C1473 1.366 . S
C1472 C1474 1.388 . S
C1473 C1472 1.366 . S
C1473 C1477 1.385 . S
C1474 H1455 0.951 . S
C1474 C1472 1.388 . S
C1474 C1475 1.366 . S
C1475 C1474 1.366 . S
C1475 C1476 1.414 . S
C1475 C1478 1.499 . S
C1476 H1456 0.950 . S
C1476 C1475 1.414 . S
C1476 C1477 1.374 . S
C1477 H1457 0.950 . S
C1477 C1473 1.385 . S
C1477 C1476 1.374 . S
C1478 C1475 1.499 . S
C1478 C1479 1.373 . S
C1478 C1480 1.389 . S
C1479 H1458 0.950 . S
C1479 C1478 1.373 . S
C1479 C1495 1.377 . S
C1480 C1478 1.389 . S
C1480 C1481 1.524 . S
C1480 C1494 1.377 . S
C1481 C1480 1.524 . S
C1481 C1482 1.397 . S
C1481 C1486 1.363 . S
C1482 H1459 0.950 . S
C1482 C1481 1.397 . S
C1482 C1483 1.334 . S
C1483 H1460 0.950 . S
C1483 C1482 1.334 . S
C1483 C1484 1.287 . S
C1484 C1483 1.287 . S
C1484 C1485 1.524 . S
C1484 H1503 0.913 . S
C1485 H1461 0.950 . S
C1485 C1484 1.524 . S
C1485 C1486 1.415 . S
C1486 H1462 0.950 . S
C1486 C1481 1.363 . S
C1486 C1485 1.415 . S
C1487 H1463 0.951 . S
C1487 C1488 1.366 . S
C1487 C1489 1.388 . S
C1488 C1487 1.366 . S
C1488 C1492 1.385 . S
C1489 H1464 0.951 . S
C1489 C1487 1.388 . S
C1489 C1490 1.366 . S
C1490 C1489 1.366 . S
C1490 C1491 1.414 . S
C1490 C1493 1.499 . S
C1491 H1465 0.950 . S
C1491 C1490 1.414 . S
C1491 C1492 1.374 . S
C1492 H1466 0.950 . S
C1492 C1488 1.385 . S
C1492 C1491 1.374 . S
C1493 C1490 1.499 . S
C1493 C1494 1.373 . S
C1493 C1495 1.389 . S
C1494 H1467 0.950 . S
C1494 C1480 1.377 . S
C1494 C1493 1.373 . S
C1495 C1479 1.377 . S
C1495 C1493 1.389 . S
C1495 C1496 1.524 . S
C1496 C1495 1.524 . S
C1496 C1497 1.397 . S
C1496 C1501 1.363 . S
C1497 H1468 0.950 . S
C1497 C1496 1.397 . S
C1497 C1498 1.334 . S
C1498 H1469 0.950 . S
C1498 C1497 1.334 . S
C1498 C1499 1.287 . S
C1499 C1498 1.287 . S
C1499 C1500 1.524 . S
C1499 H1502 0.999 . S
C1500 H1470 0.950 . S
C1500 C1499 1.524 . S
C1500 C1501 1.415 . S
C1501 H1471 0.950 . S
C1501 C1496 1.363 . S
C1501 C1500 1.415 . S
H1502 C1499 0.999 . S
H1503 C1484 0.913 . S
H1504 C1522 0.951 . S
H1505 C1524 0.951 . S
H1506 C1526 0.950 . S
H1507 C1527 0.950 . S
H1508 C1529 0.950 . S
H1509 C1532 0.950 . S
H1510 C1533 0.950 . S
H1511 C1535 0.950 . S
H1512 C1536 0.950 . S
H1513 C1537 0.953 . S
H1514 C1539 0.951 . S
H1515 C1541 0.950 . S
H1516 C1542 0.950 1_565 S
H1517 C1544 0.950 . S
H1518 C1547 0.950 . S
H1519 C1548 0.950 . S
H1520 C1550 0.950 . S
H1521 C1551 0.950 . S
C1522 H1504 0.951 . S
C1522 C1523 1.366 . S
C1522 C1524 1.388 . S
C1523 C1522 1.366 . S
C1523 C1527 1.385 . S
C1524 H1505 0.951 . S
C1524 C1522 1.388 . S
C1524 C1525 1.366 . S
C1525 C1524 1.366 . S
C1525 C1526 1.414 . S
C1525 C1528 1.499 . S
C1526 H1506 0.950 . S
C1526 C1525 1.414 . S
C1526 C1527 1.374 . S
C1527 H1507 0.950 . S
C1527 C1523 1.385 . S
C1527 C1526 1.374 . S
C1528 C1525 1.499 . S
C1528 C1529 1.373 . S
C1528 C1530 1.389 1_554 S
C1529 H1508 0.950 . S
C1529 C1528 1.373 . S
C1529 C1545 1.377 . S
C1530 C1528 1.389 1_556 S
C1530 C1531 1.524 . S
C1530 C1544 1.377 . S
C1531 C1530 1.524 . S
C1531 C1532 1.397 . S
C1531 C1536 1.363 . S
C1532 H1509 0.950 . S
C1532 C1531 1.397 . S
C1532 C1533 1.334 . S
C1533 H1510 0.950 . S
C1533 C1532 1.334 . S
C1533 C1534 1.287 . S
C1534 C1533 1.287 . S
C1534 C1535 1.524 . S
C1534 H1553 0.913 . S
C1535 H1511 0.950 . S
C1535 C1534 1.524 . S
C1535 C1536 1.415 . S
C1536 H1512 0.950 . S
C1536 C1531 1.363 . S
C1536 C1535 1.415 . S
C1537 H1513 0.953 . S
C1537 C1538 1.366 . S
C1537 C1539 1.388 . S
C1538 C1537 1.366 . S
C1538 C1542 1.385 . S
C1539 H1514 0.951 . S
C1539 C1537 1.388 . S
C1539 C1540 1.366 . S
C1540 C1539 1.366 . S
C1540 C1541 1.414 . S
C1540 C1543 1.499 . S
C1541 H1515 0.950 . S
C1541 C1540 1.414 . S
C1541 C1542 1.374 . S
C1542 H1516 0.950 1_545 S
C1542 C1538 1.385 . S
C1542 C1541 1.374 . S
C1543 C1540 1.499 . S
C1543 C1544 1.373 1_554 S
C1543 C1545 1.389 . S
C1544 H1517 0.950 . S
C1544 C1530 1.377 . S
C1544 C1543 1.373 1_556 S
C1545 C1529 1.377 . S
C1545 C1543 1.389 . S
C1545 C1546 1.524 . S
C1546 C1545 1.524 . S
C1546 C1547 1.397 . S
C1546 C1551 1.363 . S
C1547 H1518 0.950 . S
C1547 C1546 1.397 . S
C1547 C1548 1.334 . S
C1548 H1519 0.950 . S
C1548 C1547 1.334 . S
C1548 C1549 1.287 . S
C1549 C1548 1.287 . S
C1549 C1550 1.524 . S
C1549 H1552 0.999 . S
C1550 H1520 0.950 . S
C1550 C1549 1.524 . S
C1550 C1551 1.415 . S
C1551 H1521 0.950 . S
C1551 C1546 1.363 . S
C1551 C1550 1.415 . S
H1552 C1549 0.999 . S
H1553 C1534 0.913 . S
H1554 C1572 0.951 . S
H1555 C1574 0.951 . S
H1556 C1576 0.924 1_556 S
H1557 C1577 0.948 . S
H1558 C1579 0.950 . S
H1559 C1582 0.950 . S
H1560 C1583 0.950 . S
H1561 C1585 0.975 . S
H1562 C1586 0.950 . S
H1563 C1587 0.951 . S
H1564 C1589 0.951 . S
H1565 C1591 0.950 . S
H1566 C1592 0.950 . S
H1567 C1594 0.950 . S
H1568 C1597 0.950 . S
H1569 C1598 0.950 . S
H1570 C1600 0.950 . S
H1571 C1601 0.950 . S
C1572 H1554 0.951 . S
C1572 C1573 1.366 . S
C1572 C1574 1.388 . S
C1573 C1572 1.366 . S
C1573 C1577 1.386 1_554 S
C1574 H1555 0.951 . S
C1574 C1572 1.388 . S
C1574 C1575 1.366 . S
C1575 C1574 1.366 . S
C1575 C1576 1.445 . S
C1575 C1578 1.499 . S
C1576 H1556 0.924 1_554 S
C1576 C1575 1.445 . S
C1576 C1577 1.372 1_554 S
C1577 H1557 0.948 . S
C1577 C1573 1.386 1_556 S
C1577 C1576 1.372 1_556 S
C1578 C1575 1.499 . S
C1578 C1579 1.373 . S
C1578 C1580 1.389 . S
C1579 H1558 0.950 . S
C1579 C1578 1.373 . S
C1579 C1595 1.377 . S
C1580 C1578 1.389 . S
C1580 C1581 1.541 . S
C1580 C1594 1.377 . S
C1581 C1580 1.541 . S
C1581 C1582 1.359 1_554 S
C1581 C1586 1.382 . S
C1582 H1559 0.950 . S
C1582 C1581 1.359 1_556 S
C1582 C1583 1.334 . S
C1583 H1560 0.950 . S
C1583 C1582 1.334 . S
C1583 C1584 1.287 . S
C1584 C1583 1.287 . S
C1584 C1585 1.475 1_556 S
C1584 H1603 0.913 . S
C1585 H1561 0.975 . S
C1585 C1584 1.475 1_554 S
C1585 C1586 1.438 . S
C1586 H1562 0.950 . S
C1586 C1581 1.382 . S
C1586 C1585 1.438 . S
C1587 H1563 0.951 . S
C1587 C1588 1.366 . S
C1587 C1589 1.388 . S
C1588 C1587 1.366 . S
C1588 C1592 1.385 . S
C1589 H1564 0.951 . S
C1589 C1587 1.388 . S
C1589 C1590 1.366 . S
C1590 C1589 1.366 . S
C1590 C1591 1.414 . S
C1590 C1593 1.499 . S
C1591 H1565 0.950 . S
C1591 C1590 1.414 . S
C1591 C1592 1.374 . S
C1592 H1566 0.950 . S
C1592 C1588 1.385 . S
C1592 C1591 1.374 . S
C1593 C1590 1.499 . S
C1593 C1594 1.373 . S
C1593 C1595 1.389 . S
C1594 H1567 0.950 . S
C1594 C1580 1.377 . S
C1594 C1593 1.373 . S
C1595 C1579 1.377 . S
C1595 C1593 1.389 . S
C1595 C1596 1.524 . S
C1596 C1595 1.524 . S
C1596 C1597 1.397 . S
C1596 C1601 1.363 . S
C1597 H1568 0.950 . S
C1597 C1596 1.397 . S
C1597 C1598 1.334 . S
C1598 H1569 0.950 . S
C1598 C1597 1.334 . S
C1598 C1599 1.287 . S
C1599 C1598 1.287 . S
C1599 C1600 1.524 . S
C1599 H1602 0.999 . S
C1600 H1570 0.950 . S
C1600 C1599 1.524 . S
C1600 C1601 1.415 . S
C1601 H1571 0.950 . S
C1601 C1596 1.363 . S
C1601 C1600 1.415 . S
H1602 C1599 0.999 . S
H1603 C1584 0.913 . S
H1604 C1622 0.951 . S
H1605 C1624 0.951 . S
H1606 C1626 0.950 . S
H1607 C1627 0.950 . S
H1608 C1629 0.950 . S
H1609 C1632 0.950 . S
H1610 C1633 0.950 . S
H1611 C1635 0.950 . S
H1612 C1636 0.950 . S
H1613 C1637 0.951 . S
H1614 C1639 0.951 . S
H1615 C1641 0.950 . S
H1616 C1642 0.950 . S
H1617 C1644 0.950 . S
H1618 C1647 0.950 . S
H1619 C1648 0.950 . S
H1620 C1650 0.950 . S
H1621 C1651 0.950 . S
C1622 H1604 0.951 . S
C1622 C1623 1.366 . S
C1622 C1624 1.388 . S
C1623 C1622 1.366 . S
C1623 C1627 1.385 . S
C1624 H1605 0.951 . S
C1624 C1622 1.388 . S
C1624 C1625 1.366 . S
C1625 C1624 1.366 . S
C1625 C1626 1.414 . S
C1625 C1628 1.499 . S
C1626 H1606 0.950 . S
C1626 C1625 1.414 . S
C1626 C1627 1.374 . S
C1627 H1607 0.950 . S
C1627 C1623 1.385 . S
C1627 C1626 1.374 . S
C1628 C1625 1.499 . S
C1628 C1629 1.373 . S
C1628 C1630 1.389 . S
C1629 H1608 0.950 . S
C1629 C1628 1.373 . S
C1629 C1645 1.377 . S
C1630 C1628 1.389 . S
C1630 C1631 1.524 . S
C1630 C1644 1.377 . S
C1631 C1630 1.524 . S
C1631 C1632 1.397 . S
C1631 C1636 1.363 . S
C1632 H1609 0.950 . S
C1632 C1631 1.397 . S
C1632 C1633 1.334 . S
C1633 H1610 0.950 . S
C1633 C1632 1.334 . S
C1633 C1634 1.287 . S
C1634 C1633 1.287 . S
C1634 C1635 1.524 . S
C1634 H1653 0.913 . S
C1635 H1611 0.950 . S
C1635 C1634 1.524 . S
C1635 C1636 1.415 . S
C1636 H1612 0.950 . S
C1636 C1631 1.363 . S
C1636 C1635 1.415 . S
C1637 H1613 0.951 . S
C1637 C1638 1.366 . S
C1637 C1639 1.388 . S
C1638 C1637 1.366 . S
C1638 C1642 1.385 . S
C1639 H1614 0.951 . S
C1639 C1637 1.388 . S
C1639 C1640 1.366 . S
C1640 C1639 1.366 . S
C1640 C1641 1.414 . S
C1640 C1643 1.499 . S
C1641 H1615 0.950 . S
C1641 C1640 1.414 . S
C1641 C1642 1.374 . S
C1642 H1616 0.950 . S
C1642 C1638 1.385 . S
C1642 C1641 1.374 . S
C1643 C1640 1.499 . S
C1643 C1644 1.373 . S
C1643 C1645 1.389 . S
C1644 H1617 0.950 . S
C1644 C1630 1.377 . S
C1644 C1643 1.373 . S
C1645 C1629 1.377 . S
C1645 C1643 1.389 . S
C1645 C1646 1.524 . S
C1646 C1645 1.524 . S
C1646 C1647 1.397 . S
C1646 C1651 1.363 . S
C1647 H1618 0.950 . S
C1647 C1646 1.397 . S
C1647 C1648 1.334 . S
C1648 H1619 0.950 . S
C1648 C1647 1.334 . S
C1648 C1649 1.287 . S
C1649 C1648 1.287 . S
C1649 C1650 1.524 . S
C1649 H1652 0.999 . S
C1650 H1620 0.950 . S
C1650 C1649 1.524 . S
C1650 C1651 1.415 . S
C1651 H1621 0.950 . S
C1651 C1646 1.363 . S
C1651 C1650 1.415 . S
H1652 C1649 0.999 . S
H1653 C1634 0.913 . S
H1654 C1672 0.951 . S
H1655 C1674 0.951 . S
H1656 C1676 0.950 . S
H1657 C1677 0.950 . S
H1658 C1679 0.950 . S
H1659 C1682 0.950 . S
H1660 C1683 0.950 . S
H1661 C1685 0.950 . S
H1662 C1686 0.950 . S
H1663 C1687 0.951 . S
H1664 C1689 0.951 . S
H1665 C1691 0.950 . S
H1666 C1692 0.950 . S
H1667 C1694 0.950 . S
H1668 C1697 0.950 . S
H1669 C1698 0.950 . S
H1670 C1700 0.950 . S
H1671 C1701 0.950 . S
C1672 H1654 0.951 . S
C1672 C1673 1.366 . S
C1672 C1674 1.388 . S
C1673 C1672 1.366 . S
C1673 C1677 1.385 . S
C1674 H1655 0.951 . S
C1674 C1672 1.388 . S
C1674 C1675 1.366 . S
C1675 C1674 1.366 . S
C1675 C1676 1.414 . S
C1675 C1678 1.499 . S
C1676 H1656 0.950 . S
C1676 C1675 1.414 . S
C1676 C1677 1.374 . S
C1677 H1657 0.950 . S
C1677 C1673 1.385 . S
C1677 C1676 1.374 . S
C1678 C1675 1.499 . S
C1678 C1679 1.373 . S
C1678 C1680 1.389 . S
C1679 H1658 0.950 . S
C1679 C1678 1.373 . S
C1679 C1695 1.377 . S
C1680 C1678 1.389 . S
C1680 C1681 1.524 . S
C1680 C1694 1.377 . S
C1681 C1680 1.524 . S
C1681 C1682 1.397 . S
C1681 C1686 1.363 . S
C1682 H1659 0.950 . S
C1682 C1681 1.397 . S
C1682 C1683 1.334 . S
C1683 H1660 0.950 . S
C1683 C1682 1.334 . S
C1683 C1684 1.287 . S
C1684 C1683 1.287 . S
C1684 C1685 1.524 . S
C1684 H1703 0.913 . S
C1685 H1661 0.950 . S
C1685 C1684 1.524 . S
C1685 C1686 1.415 . S
C1686 H1662 0.950 . S
C1686 C1681 1.363 . S
C1686 C1685 1.415 . S
C1687 H1663 0.951 . S
C1687 C1688 1.366 . S
C1687 C1689 1.388 . S
C1688 C1687 1.366 . S
C1688 C1692 1.385 . S
C1689 H1664 0.951 . S
C1689 C1687 1.388 . S
C1689 C1690 1.366 . S
C1690 C1689 1.366 . S
C1690 C1691 1.414 . S
C1690 C1693 1.499 . S
C1691 H1665 0.950 . S
C1691 C1690 1.414 . S
C1691 C1692 1.374 . S
C1692 H1666 0.950 . S
C1692 C1688 1.385 . S
C1692 C1691 1.374 . S
C1693 C1690 1.499 . S
C1693 C1694 1.373 . S
C1693 C1695 1.389 . S
C1694 H1667 0.950 . S
C1694 C1680 1.377 . S
C1694 C1693 1.373 . S
C1695 C1679 1.377 . S
C1695 C1693 1.389 . S
C1695 C1696 1.524 . S
C1696 C1695 1.524 . S
C1696 C1697 1.397 . S
C1696 C1701 1.363 . S
C1697 H1668 0.950 . S
C1697 C1696 1.397 . S
C1697 C1698 1.334 . S
C1698 H1669 0.950 . S
C1698 C1697 1.334 . S
C1698 C1699 1.287 . S
C1699 C1698 1.287 . S
C1699 C1700 1.524 . S
C1699 H1702 0.999 . S
C1700 H1670 0.950 . S
C1700 C1699 1.524 . S
C1700 C1701 1.415 . S
C1701 H1671 0.950 . S
C1701 C1696 1.363 . S
C1701 C1700 1.415 . S
H1702 C1699 0.999 . S
H1703 C1684 0.913 . S
H1704 C1722 0.951 . S
H1705 C1724 0.951 . S
H1706 C1726 0.950 . S
H1707 C1727 0.950 . S
H1708 C1729 0.950 . S
H1709 C1732 0.950 . S
H1710 C1733 0.950 . S
H1711 C1735 0.950 . S
H1712 C1736 0.950 . S
H1713 C1737 0.951 . S
H1714 C1739 0.951 . S
H1715 C1741 0.950 . S
H1716 C1742 0.950 . S
H1717 C1744 0.950 . S
H1718 C1747 0.950 . S
H1719 C1748 0.950 . S
H1720 C1750 0.950 . S
H1721 C1751 0.950 . S
C1722 H1704 0.951 . S
C1722 C1723 1.366 . S
C1722 C1724 1.388 . S
C1723 C1722 1.366 . S
C1723 C1727 1.385 . S
C1724 H1705 0.951 . S
C1724 C1722 1.388 . S
C1724 C1725 1.366 . S
C1725 C1724 1.366 . S
C1725 C1726 1.414 . S
C1725 C1728 1.499 . S
C1726 H1706 0.950 . S
C1726 C1725 1.414 . S
C1726 C1727 1.374 . S
C1727 H1707 0.950 . S
C1727 C1723 1.385 . S
C1727 C1726 1.374 . S
C1728 C1725 1.499 . S
C1728 C1729 1.373 . S
C1728 C1730 1.389 . S
C1729 H1708 0.950 . S
C1729 C1728 1.373 . S
C1729 C1745 1.377 . S
C1730 C1728 1.389 . S
C1730 C1731 1.524 . S
C1730 C1744 1.377 . S
C1731 C1730 1.524 . S
C1731 C1732 1.397 . S
C1731 C1736 1.363 . S
C1732 H1709 0.950 . S
C1732 C1731 1.397 . S
C1732 C1733 1.334 . S
C1733 H1710 0.950 . S
C1733 C1732 1.334 . S
C1733 C1734 1.287 . S
C1734 C1733 1.287 . S
C1734 C1735 1.524 . S
C1734 H1753 0.913 . S
C1735 H1711 0.950 . S
C1735 C1734 1.524 . S
C1735 C1736 1.415 . S
C1736 H1712 0.950 . S
C1736 C1731 1.363 . S
C1736 C1735 1.415 . S
C1737 H1713 0.951 . S
C1737 C1738 1.366 . S
C1737 C1739 1.388 . S
C1738 C1737 1.366 . S
C1738 C1742 1.385 . S
C1739 H1714 0.951 . S
C1739 C1737 1.388 . S
C1739 C1740 1.366 . S
C1740 C1739 1.366 . S
C1740 C1741 1.414 . S
C1740 C1743 1.499 . S
C1741 H1715 0.950 . S
C1741 C1740 1.414 . S
C1741 C1742 1.374 . S
C1742 H1716 0.950 . S
C1742 C1738 1.385 . S
C1742 C1741 1.374 . S
C1743 C1740 1.499 . S
C1743 C1744 1.373 . S
C1743 C1745 1.389 . S
C1744 H1717 0.950 . S
C1744 C1730 1.377 . S
C1744 C1743 1.373 . S
C1745 C1729 1.377 . S
C1745 C1743 1.389 . S
C1745 C1746 1.524 . S
C1746 C1745 1.524 . S
C1746 C1747 1.397 . S
C1746 C1751 1.363 . S
C1747 H1718 0.950 . S
C1747 C1746 1.397 . S
C1747 C1748 1.334 . S
C1748 H1719 0.950 . S
C1748 C1747 1.334 . S
C1748 C1749 1.287 . S
C1749 C1748 1.287 . S
C1749 C1750 1.524 . S
C1749 H1752 0.999 . S
C1750 H1720 0.950 . S
C1750 C1749 1.524 . S
C1750 C1751 1.415 . S
C1751 H1721 0.950 . S
C1751 C1746 1.363 . S
C1751 C1750 1.415 . S
H1752 C1749 0.999 . S
H1753 C1734 0.913 . S
H1754 C1772 0.951 . S
H1755 C1774 0.951 . S
H1756 C1776 0.950 . S
H1757 C1777 0.950 . S
H1758 C1779 0.950 . S
H1759 C1782 0.950 . S
H1760 C1783 0.950 . S
H1761 C1785 0.950 . S
H1762 C1786 0.950 . S
H1763 C1787 0.951 . S
H1764 C1789 0.951 . S
H1765 C1791 0.932 1_545 S
H1766 C1792 0.950 . S
H1767 C1794 0.950 . S
H1768 C1797 0.950 . S
H1769 C1798 0.950 . S
H1770 C1800 0.950 . S
H1771 C1801 0.950 . S
C1772 H1754 0.951 . S
C1772 C1773 1.366 . S
C1772 C1774 1.388 . S
C1773 C1772 1.366 . S
C1773 C1777 1.385 . S
C1774 H1755 0.951 . S
C1774 C1772 1.388 . S
C1774 C1775 1.366 . S
C1775 C1774 1.366 . S
C1775 C1776 1.414 . S
C1775 C1778 1.499 . S
C1776 H1756 0.950 . S
C1776 C1775 1.414 . S
C1776 C1777 1.374 . S
C1777 H1757 0.950 . S
C1777 C1773 1.385 . S
C1777 C1776 1.374 . S
C1778 C1775 1.499 . S
C1778 C1779 1.373 . S
C1778 C1780 1.389 . S
C1779 H1758 0.950 . S
C1779 C1778 1.373 . S
C1779 C1795 1.377 . S
C1780 C1778 1.389 . S
C1780 C1781 1.524 . S
C1780 C1794 1.377 . S
C1781 C1780 1.524 . S
C1781 C1782 1.397 . S
C1781 C1786 1.363 . S
C1782 H1759 0.950 . S
C1782 C1781 1.397 . S
C1782 C1783 1.334 . S
C1783 H1760 0.950 . S
C1783 C1782 1.334 . S
C1783 C1784 1.287 . S
C1784 C1783 1.287 . S
C1784 C1785 1.524 . S
C1784 H1803 0.913 . S
C1785 H1761 0.950 . S
C1785 C1784 1.524 . S
C1785 C1786 1.415 . S
C1786 H1762 0.950 . S
C1786 C1781 1.363 . S
C1786 C1785 1.415 . S
C1787 H1763 0.951 . S
C1787 C1788 1.317 1_565 S
C1787 C1789 1.388 . S
C1788 C1787 1.317 1_545 S
C1788 C1792 1.408 . S
C1789 H1764 0.951 . S
C1789 C1787 1.388 . S
C1789 C1790 1.366 . S
C1790 C1789 1.366 . S
C1790 C1791 1.454 . S
C1790 C1793 1.499 . S
C1791 H1765 0.932 1_565 S
C1791 C1790 1.454 . S
C1791 C1792 1.353 1_565 S
C1792 H1766 0.950 . S
C1792 C1788 1.408 . S
C1792 C1791 1.353 1_545 S
C1793 C1790 1.499 . S
C1793 C1794 1.373 . S
C1793 C1795 1.389 . S
C1794 H1767 0.950 . S
C1794 C1780 1.377 . S
C1794 C1793 1.373 . S
C1795 C1779 1.377 . S
C1795 C1793 1.389 . S
C1795 C1796 1.524 . S
C1796 C1795 1.524 . S
C1796 C1797 1.397 . S
C1796 C1801 1.363 . S
C1797 H1768 0.950 . S
C1797 C1796 1.397 . S
C1797 C1798 1.334 . S
C1798 H1769 0.950 . S
C1798 C1797 1.334 . S
C1798 C1799 1.287 . S
C1799 C1798 1.287 . S
C1799 C1800 1.524 . S
C1799 H1802 0.999 . S
C1800 H1770 0.950 . S
C1800 C1799 1.524 . S
C1800 C1801 1.415 . S
C1801 H1771 0.950 . S
C1801 C1796 1.363 . S
C1801 C1800 1.415 . S
H1802 C1799 0.999 . S
H1803 C1784 0.913 . S
H1804 C1822 0.951 . S
H1805 C1824 0.951 . S
H1806 C1826 0.950 . S
H1807 C1827 0.950 . S
H1808 C1829 0.950 . S
H1809 C1832 0.950 . S
H1810 C1833 0.950 . S
H1811 C1835 0.950 . S
H1812 C1836 0.950 . S
H1813 C1837 0.951 . S
H1814 C1839 0.951 . S
H1815 C1841 0.950 . S
H1816 C1842 0.950 . S
H1817 C1844 0.950 . S
H1818 C1847 0.950 . S
H1819 C1848 0.950 . S
H1820 C1850 0.950 . S
H1821 C1851 0.950 . S
C1822 H1804 0.951 . S
C1822 C1823 1.366 . S
C1822 C1824 1.388 . S
C1823 C1822 1.366 . S
C1823 C1827 1.385 . S
C1824 H1805 0.951 . S
C1824 C1822 1.388 . S
C1824 C1825 1.366 . S
C1825 C1824 1.366 . S
C1825 C1826 1.414 . S
C1825 C1828 1.499 . S
C1826 H1806 0.950 . S
C1826 C1825 1.414 . S
C1826 C1827 1.374 . S
C1827 H1807 0.950 . S
C1827 C1823 1.385 . S
C1827 C1826 1.374 . S
C1828 C1825 1.499 . S
C1828 C1829 1.373 . S
C1828 C1830 1.389 . S
C1829 H1808 0.950 . S
C1829 C1828 1.373 . S
C1829 C1845 1.377 . S
C1830 C1828 1.389 . S
C1830 C1831 1.524 . S
C1830 C1844 1.377 . S
C1831 C1830 1.524 . S
C1831 C1832 1.397 . S
C1831 C1836 1.363 . S
C1832 H1809 0.950 . S
C1832 C1831 1.397 . S
C1832 C1833 1.334 . S
C1833 H1810 0.950 . S
C1833 C1832 1.334 . S
C1833 C1834 1.287 . S
C1834 C1833 1.287 . S
C1834 C1835 1.524 . S
C1834 H1853 0.913 . S
C1835 H1811 0.950 . S
C1835 C1834 1.524 . S
C1835 C1836 1.415 . S
C1836 H1812 0.950 . S
C1836 C1831 1.363 . S
C1836 C1835 1.415 . S
C1837 H1813 0.951 . S
C1837 C1838 1.366 . S
C1837 C1839 1.388 . S
C1838 C1837 1.366 . S
C1838 C1842 1.385 . S
C1839 H1814 0.951 . S
C1839 C1837 1.388 . S
C1839 C1840 1.366 . S
C1840 C1839 1.366 . S
C1840 C1841 1.414 . S
C1840 C1843 1.499 . S
C1841 H1815 0.950 . S
C1841 C1840 1.414 . S
C1841 C1842 1.374 . S
C1842 H1816 0.950 . S
C1842 C1838 1.385 . S
C1842 C1841 1.374 . S
C1843 C1840 1.499 . S
C1843 C1844 1.373 . S
C1843 C1845 1.389 . S
C1844 H1817 0.950 . S
C1844 C1830 1.377 . S
C1844 C1843 1.373 . S
C1845 C1829 1.377 . S
C1845 C1843 1.389 . S
C1845 C1846 1.524 . S
C1846 C1845 1.524 . S
C1846 C1847 1.397 . S
C1846 C1851 1.363 . S
C1847 H1818 0.950 . S
C1847 C1846 1.397 . S
C1847 C1848 1.334 . S
C1848 H1819 0.950 . S
C1848 C1847 1.334 . S
C1848 C1849 1.287 . S
C1849 C1848 1.287 . S
C1849 C1850 1.524 . S
C1849 H1852 0.999 . S
C1850 H1820 0.950 . S
C1850 C1849 1.524 . S
C1850 C1851 1.415 . S
C1851 H1821 0.950 . S
C1851 C1846 1.363 . S
C1851 C1850 1.415 . S
H1852 C1849 0.999 . S
H1853 C1834 0.913 . S
H1854 C1872 0.951 . S
H1855 C1874 0.951 . S
H1856 C1876 0.950 . S
H1857 C1877 0.950 . S
H1858 C1879 0.950 . S
H1859 C1882 0.950 . S
H1860 C1883 0.950 . S
H1861 C1885 0.950 . S
H1862 C1886 0.950 . S
H1863 C1887 0.951 . S
H1864 C1889 0.951 . S
H1865 C1891 0.950 . S
H1866 C1892 0.950 . S
H1867 C1894 0.950 . S
H1868 C1897 0.950 . S
H1869 C1898 0.950 . S
H1870 C1900 0.950 . S
H1871 C1901 0.950 . S
C1872 H1854 0.951 . S
C1872 C1873 1.366 . S
C1872 C1874 1.388 . S
C1873 C1872 1.366 . S
C1873 C1877 1.385 . S
C1874 H1855 0.951 . S
C1874 C1872 1.388 . S
C1874 C1875 1.366 . S
C1875 C1874 1.366 . S
C1875 C1876 1.414 . S
C1875 C1878 1.499 . S
C1876 H1856 0.950 . S
C1876 C1875 1.414 . S
C1876 C1877 1.374 . S
C1877 H1857 0.950 . S
C1877 C1873 1.385 . S
C1877 C1876 1.374 . S
C1878 C1875 1.499 . S
C1878 C1879 1.373 . S
C1878 C1880 1.389 . S
C1879 H1858 0.950 . S
C1879 C1878 1.373 . S
C1879 C1895 1.377 . S
C1880 C1878 1.389 . S
C1880 C1881 1.524 . S
C1880 C1894 1.377 . S
C1881 C1880 1.524 . S
C1881 C1882 1.397 . S
C1881 C1886 1.363 . S
C1882 H1859 0.950 . S
C1882 C1881 1.397 . S
C1882 C1883 1.334 . S
C1883 H1860 0.950 . S
C1883 C1882 1.334 . S
C1883 C1884 1.287 . S
C1884 C1883 1.287 . S
C1884 C1885 1.524 . S
C1884 H1903 0.913 . S
C1885 H1861 0.950 . S
C1885 C1884 1.524 . S
C1885 C1886 1.415 . S
C1886 H1862 0.950 . S
C1886 C1881 1.363 . S
C1886 C1885 1.415 . S
C1887 H1863 0.951 . S
C1887 C1888 1.366 . S
C1887 C1889 1.388 . S
C1888 C1887 1.366 . S
C1888 C1892 1.385 . S
C1889 H1864 0.951 . S
C1889 C1887 1.388 . S
C1889 C1890 1.366 . S
C1890 C1889 1.366 . S
C1890 C1891 1.414 . S
C1890 C1893 1.499 . S
C1891 H1865 0.950 . S
C1891 C1890 1.414 . S
C1891 C1892 1.374 . S
C1892 H1866 0.950 . S
C1892 C1888 1.385 . S
C1892 C1891 1.374 . S
C1893 C1890 1.499 . S
C1893 C1894 1.373 . S
C1893 C1895 1.389 . S
C1894 H1867 0.950 . S
C1894 C1880 1.377 . S
C1894 C1893 1.373 . S
C1895 C1879 1.377 . S
C1895 C1893 1.389 . S
C1895 C1896 1.524 . S
C1896 C1895 1.524 . S
C1896 C1897 1.397 . S
C1896 C1901 1.363 . S
C1897 H1868 0.950 . S
C1897 C1896 1.397 . S
C1897 C1898 1.334 . S
C1898 H1869 0.950 . S
C1898 C1897 1.334 . S
C1898 C1899 1.287 . S
C1899 C1898 1.287 . S
C1899 C1900 1.524 . S
C1899 H1902 0.999 . S
C1900 H1870 0.950 . S
C1900 C1899 1.524 . S
C1900 C1901 1.415 . S
C1901 H1871 0.950 . S
C1901 C1896 1.363 . S
C1901 C1900 1.415 . S
H1902 C1899 0.999 . S
H1903 C1884 0.913 . S
H1904 C1922 0.951 . S
H1905 C1924 0.951 . S
H1906 C1926 0.950 . S
H1907 C1927 0.950 . S
H1908 C1929 0.950 1_655 S
H1909 C1932 0.950 1_655 S
H1910 C1933 0.950 . S
H1911 C1935 0.950 . S
H1912 C1936 0.950 . S
H1913 C1937 0.994 . S
H1914 C1939 0.951 . S
H1915 C1941 0.950 . S
H1916 C1942 0.950 . S
H1917 C1944 0.950 . S
H1918 C1947 0.950 . S
H1919 C1948 0.950 . S
H1920 C1950 0.950 . S
H1921 C1951 0.950 . S
C1922 H1904 0.951 . S
C1922 C1923 1.366 . S
C1922 C1924 1.388 . S
C1923 C1922 1.366 . S
C1923 C1927 1.385 1_455 S
C1924 H1905 0.951 . S
C1924 C1922 1.388 . S
C1924 C1925 1.366 . S
C1925 C1924 1.366 . S
C1925 C1926 1.414 1_455 S
C1925 C1928 1.499 . S
C1926 H1906 0.950 . S
C1926 C1925 1.414 1_655 S
C1926 C1927 1.374 . S
C1927 H1907 0.950 . S
C1927 C1923 1.385 1_655 S
C1927 C1926 1.374 . S
C1928 C1925 1.499 . S
C1928 C1929 1.373 . S
C1928 C1930 1.389 . S
C1929 H1908 0.950 1_455 S
C1929 C1928 1.373 . S
C1929 C1945 1.377 . S
C1930 C1928 1.389 . S
C1930 C1931 1.524 . S
C1930 C1944 1.377 . S
C1931 C1930 1.524 . S
C1931 C1932 1.397 . S
C1931 C1936 1.363 . S
C1932 H1909 0.950 1_455 S
C1932 C1931 1.397 . S
C1932 C1933 1.334 . S
C1933 H1910 0.950 . S
C1933 C1932 1.334 . S
C1933 C1934 1.287 . S
C1934 C1933 1.287 . S
C1934 C1935 1.524 . S
C1934 H1953 0.913 1_556 S
C1935 H1911 0.950 . S
C1935 C1934 1.524 . S
C1935 C1936 1.415 . S
C1936 H1912 0.950 . S
C1936 C1931 1.363 . S
C1936 C1935 1.415 . S
C1937 H1913 0.994 . S
C1937 C1938 1.321 1_655 S
C1937 C1939 1.392 . S
C1938 C1937 1.321 1_455 S
C1938 C1942 1.385 . S
C1939 H1914 0.951 . S
C1939 C1937 1.392 . S
C1939 C1940 1.366 1_655 S
C1940 C1939 1.366 1_455 S
C1940 C1941 1.414 . S
C1940 C1943 1.499 . S
C1941 H1915 0.950 . S
C1941 C1940 1.414 . S
C1941 C1942 1.374 . S
C1942 H1916 0.950 . S
C1942 C1938 1.385 . S
C1942 C1941 1.374 . S
C1943 C1940 1.499 . S
C1943 C1944 1.373 . S
C1943 C1945 1.389 . S
C1944 H1917 0.950 . S
C1944 C1930 1.377 . S
C1944 C1943 1.373 . S
C1945 C1929 1.377 . S
C1945 C1943 1.389 . S
C1945 C1946 1.524 1_455 S
C1946 C1945 1.524 1_655 S
C1946 C1947 1.397 1_655 S
C1946 C1951 1.363 . S
C1947 H1918 0.950 . S
C1947 C1946 1.397 1_455 S
C1947 C1948 1.334 . S
C1948 H1919 0.950 . S
C1948 C1947 1.334 . S
C1948 C1949 1.287 1_455 S
C1949 C1948 1.287 1_655 S
C1949 C1950 1.524 . S
C1949 H1952 0.999 . S
C1950 H1920 0.950 . S
C1950 C1949 1.524 . S
C1950 C1951 1.415 . S
C1951 H1921 0.950 . S
C1951 C1946 1.363 . S
C1951 C1950 1.415 . S
H1952 C1949 0.999 . S
H1953 C1934 0.913 1_554 S
H1954 C1972 0.951 . S
H1955 C1974 0.951 . S
H1956 C1976 0.950 . S
H1957 C1977 0.950 . S
H1958 C1979 0.950 . S
H1959 C1982 0.950 . S
H1960 C1983 0.950 . S
H1961 C1985 0.950 . S
H1962 C1986 0.950 . S
H1963 C1987 0.951 . S
H1964 C1989 0.951 . S
H1965 C1991 0.950 . S
H1966 C1992 0.950 . S
H1967 C1994 0.950 . S
H1968 C1997 0.950 . S
H1969 C1998 0.950 . S
H1970 C2000 0.950 . S
H1971 C2001 0.950 . S
C1972 H1954 0.951 . S
C1972 C1973 1.366 . S
C1972 C1974 1.388 . S
C1973 C1972 1.366 . S
C1973 C1977 1.385 . S
C1974 H1955 0.951 . S
C1974 C1972 1.388 . S
C1974 C1975 1.366 . S
C1975 C1974 1.366 . S
C1975 C1976 1.414 . S
C1975 C1978 1.499 . S
C1976 H1956 0.950 . S
C1976 C1975 1.414 . S
C1976 C1977 1.374 . S
C1977 H1957 0.950 . S
C1977 C1973 1.385 . S
C1977 C1976 1.374 . S
C1978 C1975 1.499 . S
C1978 C1979 1.373 . S
C1978 C1980 1.389 . S
C1979 H1958 0.950 . S
C1979 C1978 1.373 . S
C1979 C1995 1.377 . S
C1980 C1978 1.389 . S
C1980 C1981 1.524 . S
C1980 C1994 1.377 . S
C1981 C1980 1.524 . S
C1981 C1982 1.397 . S
C1981 C1986 1.363 . S
C1982 H1959 0.950 . S
C1982 C1981 1.397 . S
C1982 C1983 1.334 . S
C1983 H1960 0.950 . S
C1983 C1982 1.334 . S
C1983 C1984 1.287 . S
C1984 C1983 1.287 . S
C1984 C1985 1.524 . S
C1984 H2003 0.913 . S
C1985 H1961 0.950 . S
C1985 C1984 1.524 . S
C1985 C1986 1.415 . S
C1986 H1962 0.950 . S
C1986 C1981 1.363 . S
C1986 C1985 1.415 . S
C1987 H1963 0.951 . S
C1987 C1988 1.366 . S
C1987 C1989 1.388 . S
C1988 C1987 1.366 . S
C1988 C1992 1.385 . S
C1989 H1964 0.951 . S
C1989 C1987 1.388 . S
C1989 C1990 1.366 . S
C1990 C1989 1.366 . S
C1990 C1991 1.414 . S
C1990 C1993 1.499 . S
C1991 H1965 0.950 . S
C1991 C1990 1.414 . S
C1991 C1992 1.374 . S
C1992 H1966 0.950 . S
C1992 C1988 1.385 . S
C1992 C1991 1.374 . S
C1993 C1990 1.499 . S
C1993 C1994 1.373 . S
C1993 C1995 1.389 . S
C1994 H1967 0.950 . S
C1994 C1980 1.377 . S
C1994 C1993 1.373 . S
C1995 C1979 1.377 . S
C1995 C1993 1.389 . S
C1995 C1996 1.524 . S
C1996 C1995 1.524 . S
C1996 C1997 1.397 . S
C1996 C2001 1.363 . S
C1997 H1968 0.950 . S
C1997 C1996 1.397 . S
C1997 C1998 1.334 . S
C1998 H1969 0.950 . S
C1998 C1997 1.334 . S
C1998 C1999 1.287 . S
C1999 C1998 1.287 . S
C1999 C2000 1.524 . S
C1999 H2002 0.999 . S
C2000 H1970 0.950 . S
C2000 C1999 1.524 . S
C2000 C2001 1.415 . S
C2001 H1971 0.950 . S
C2001 C1996 1.363 . S
C2001 C2000 1.415 . S
H2002 C1999 0.999 . S
H2003 C1984 0.913 . S
H2004 C2022 0.951 . S
H2005 C2024 0.951 . S
H2006 C2026 0.950 . S
H2007 C2027 0.950 . S
H2008 C2029 0.950 . S
H2009 C2032 0.950 . S
H2010 C2033 0.950 . S
H2011 C2035 0.950 . S
H2012 C2036 0.950 . S
H2013 C2037 0.951 . S
H2014 C2039 0.951 . S
H2015 C2041 0.950 . S
H2016 C2042 0.950 . S
H2017 C2044 0.950 . S
H2018 C2047 0.950 . S
H2019 C2048 0.950 . S
H2020 C2050 0.950 . S
H2021 C2051 0.950 . S
C2022 H2004 0.951 . S
C2022 C2023 1.366 . S
C2022 C2024 1.388 . S
C2023 C2022 1.366 . S
C2023 C2027 1.385 . S
C2024 H2005 0.951 . S
C2024 C2022 1.388 . S
C2024 C2025 1.366 . S
C2025 C2024 1.366 . S
C2025 C2026 1.414 . S
C2025 C2028 1.499 . S
C2026 H2006 0.950 . S
C2026 C2025 1.414 . S
C2026 C2027 1.374 . S
C2027 H2007 0.950 . S
C2027 C2023 1.385 . S
C2027 C2026 1.374 . S
C2028 C2025 1.499 . S
C2028 C2029 1.373 . S
C2028 C2030 1.389 . S
C2029 H2008 0.950 . S
C2029 C2028 1.373 . S
C2029 C2045 1.377 . S
C2030 C2028 1.389 . S
C2030 C2031 1.524 . S
C2030 C2044 1.377 . S
C2031 C2030 1.524 . S
C2031 C2032 1.397 . S
C2031 C2036 1.363 . S
C2032 H2009 0.950 . S
C2032 C2031 1.397 . S
C2032 C2033 1.334 . S
C2033 H2010 0.950 . S
C2033 C2032 1.334 . S
C2033 C2034 1.287 . S
C2034 C2033 1.287 . S
C2034 C2035 1.524 . S
C2034 H2053 0.913 . S
C2035 H2011 0.950 . S
C2035 C2034 1.524 . S
C2035 C2036 1.415 . S
C2036 H2012 0.950 . S
C2036 C2031 1.363 . S
C2036 C2035 1.415 . S
C2037 H2013 0.951 . S
C2037 C2038 1.366 . S
C2037 C2039 1.388 . S
C2038 C2037 1.366 . S
C2038 C2042 1.385 . S
C2039 H2014 0.951 . S
C2039 C2037 1.388 . S
C2039 C2040 1.366 . S
C2040 C2039 1.366 . S
C2040 C2041 1.414 . S
C2040 C2043 1.499 . S
C2041 H2015 0.950 . S
C2041 C2040 1.414 . S
C2041 C2042 1.374 . S
C2042 H2016 0.950 . S
C2042 C2038 1.385 . S
C2042 C2041 1.374 . S
C2043 C2040 1.499 . S
C2043 C2044 1.373 . S
C2043 C2045 1.389 . S
C2044 H2017 0.950 . S
C2044 C2030 1.377 . S
C2044 C2043 1.373 . S
C2045 C2029 1.377 . S
C2045 C2043 1.389 . S
C2045 C2046 1.524 . S
C2046 C2045 1.524 . S
C2046 C2047 1.397 . S
C2046 C2051 1.363 . S
C2047 H2018 0.950 . S
C2047 C2046 1.397 . S
C2047 C2048 1.334 . S
C2048 H2019 0.950 . S
C2048 C2047 1.334 . S
C2048 C2049 1.287 . S
C2049 C2048 1.287 . S
C2049 C2050 1.524 . S
C2049 H2052 0.999 . S
C2050 H2020 0.950 . S
C2050 C2049 1.524 . S
C2050 C2051 1.415 . S
C2051 H2021 0.950 . S
C2051 C2046 1.363 . S
C2051 C2050 1.415 . S
H2052 C2049 0.999 . S
H2053 C2034 0.913 . S
H2054 C2072 0.951 . S
H2055 C2074 0.951 . S
H2056 C2076 0.950 . S
H2057 C2077 0.950 . S
H2058 C2079 0.950 . S
H2059 C2082 0.950 . S
H2060 C2083 0.950 . S
H2061 C2085 0.950 . S
H2062 C2086 0.950 . S
H2063 C2087 0.951 . S
H2064 C2089 0.951 . S
H2065 C2091 0.950 . S
H2066 C2092 0.950 . S
H2067 C2094 0.950 . S
H2068 C2097 0.950 . S
H2069 C2098 0.950 . S
H2070 C2100 0.950 . S
H2071 C2101 0.950 . S
C2072 H2054 0.951 . S
C2072 C2073 1.366 . S
C2072 C2074 1.388 . S
C2073 C2072 1.366 . S
C2073 C2077 1.385 . S
C2074 H2055 0.951 . S
C2074 C2072 1.388 . S
C2074 C2075 1.366 . S
C2075 C2074 1.366 . S
C2075 C2076 1.414 . S
C2075 C2078 1.499 . S
C2076 H2056 0.950 . S
C2076 C2075 1.414 . S
C2076 C2077 1.374 . S
C2077 H2057 0.950 . S
C2077 C2073 1.385 . S
C2077 C2076 1.374 . S
C2078 C2075 1.499 . S
C2078 C2079 1.373 . S
C2078 C2080 1.389 . S
C2079 H2058 0.950 . S
C2079 C2078 1.373 . S
C2079 C2095 1.377 . S
C2080 C2078 1.389 . S
C2080 C2081 1.524 . S
C2080 C2094 1.377 . S
C2081 C2080 1.524 . S
C2081 C2082 1.397 . S
C2081 C2086 1.363 . S
C2082 H2059 0.950 . S
C2082 C2081 1.397 . S
C2082 C2083 1.334 . S
C2083 H2060 0.950 . S
C2083 C2082 1.334 . S
C2083 C2084 1.287 . S
C2084 C2083 1.287 . S
C2084 C2085 1.524 . S
C2084 H2103 0.913 . S
C2085 H2061 0.950 . S
C2085 C2084 1.524 . S
C2085 C2086 1.415 . S
C2086 H2062 0.950 . S
C2086 C2081 1.363 . S
C2086 C2085 1.415 . S
C2087 H2063 0.951 . S
C2087 C2088 1.366 . S
C2087 C2089 1.388 . S
C2088 C2087 1.366 . S
C2088 C2092 1.385 . S
C2089 H2064 0.951 . S
C2089 C2087 1.388 . S
C2089 C2090 1.366 . S
C2090 C2089 1.366 . S
C2090 C2091 1.414 . S
C2090 C2093 1.499 . S
C2091 H2065 0.950 . S
C2091 C2090 1.414 . S
C2091 C2092 1.374 . S
C2092 H2066 0.950 . S
C2092 C2088 1.385 . S
C2092 C2091 1.374 . S
C2093 C2090 1.499 . S
C2093 C2094 1.373 . S
C2093 C2095 1.389 . S
C2094 H2067 0.950 . S
C2094 C2080 1.377 . S
C2094 C2093 1.373 . S
C2095 C2079 1.377 . S
C2095 C2093 1.389 . S
C2095 C2096 1.524 . S
C2096 C2095 1.524 . S
C2096 C2097 1.397 . S
C2096 C2101 1.363 . S
C2097 H2068 0.950 . S
C2097 C2096 1.397 . S
C2097 C2098 1.334 . S
C2098 H2069 0.950 . S
C2098 C2097 1.334 . S
C2098 C2099 1.287 . S
C2099 C2098 1.287 . S
C2099 C2100 1.524 . S
C2099 H2102 0.999 . S
C2100 H2070 0.950 . S
C2100 C2099 1.524 . S
C2100 C2101 1.415 . S
C2101 H2071 0.950 . S
C2101 C2096 1.363 . S
C2101 C2100 1.415 . S
H2102 C2099 0.999 . S
H2103 C2084 0.913 . S
H2104 C2122 0.951 . S
H2105 C2124 0.951 . S
H2106 C2126 0.950 . S
H2107 C2127 0.950 . S
H2108 C2129 0.950 . S
H2109 C2132 0.950 . S
H2110 C2133 0.950 . S
H2111 C2135 0.950 . S
H2112 C2136 0.950 . S
H2113 C2137 0.951 . S
H2114 C2139 0.951 . S
H2115 C2141 0.950 1_655 S
H2116 C2142 0.950 1_655 S
H2117 C2144 0.950 . S
H2118 C2147 0.950 . S
H2119 C2148 0.950 . S
H2120 C2150 0.950 . S
H2121 C2151 0.950 . S
C2122 H2104 0.951 . S
C2122 C2123 1.366 1_655 S
C2122 C2124 1.388 . S
C2123 C2122 1.366 1_455 S
C2123 C2127 1.385 . S
C2124 H2105 0.951 . S
C2124 C2122 1.388 . S
C2124 C2125 1.366 1_655 S
C2125 C2124 1.366 1_455 S
C2125 C2126 1.414 . S
C2125 C2128 1.499 . S
C2126 H2106 0.950 . S
C2126 C2125 1.414 . S
C2126 C2127 1.374 . S
C2127 H2107 0.950 . S
C2127 C2123 1.385 . S
C2127 C2126 1.374 . S
C2128 C2125 1.499 . S
C2128 C2129 1.373 . S
C2128 C2130 1.389 1_455 S
C2129 H2108 0.950 . S
C2129 C2128 1.373 . S
C2129 C2145 1.377 . S
C2130 C2128 1.389 1_655 S
C2130 C2131 1.524 . S
C2130 C2144 1.377 . S
C2131 C2130 1.524 . S
C2131 C2132 1.397 . S
C2131 C2136 1.363 . S
C2132 H2109 0.950 . S
C2132 C2131 1.397 . S
C2132 C2133 1.334 . S
C2133 H2110 0.950 . S
C2133 C2132 1.334 . S
C2133 C2134 1.287 . S
C2134 C2133 1.287 . S
C2134 C2135 1.524 . S
C2134 H2153 0.913 . S
C2135 H2111 0.950 . S
C2135 C2134 1.524 . S
C2135 C2136 1.415 . S
C2136 H2112 0.950 . S
C2136 C2131 1.363 . S
C2136 C2135 1.415 . S
C2137 H2113 0.951 . S
C2137 C2138 1.366 . S
C2137 C2139 1.388 . S
C2138 C2137 1.366 . S
C2138 C2142 1.385 . S
C2139 H2114 0.951 . S
C2139 C2137 1.388 . S
C2139 C2140 1.366 . S
C2140 C2139 1.366 . S
C2140 C2141 1.414 . S
C2140 C2143 1.499 . S
C2141 H2115 0.950 1_455 S
C2141 C2140 1.414 . S
C2141 C2142 1.374 . S
C2142 H2116 0.950 1_455 S
C2142 C2138 1.385 . S
C2142 C2141 1.374 . S
C2143 C2140 1.499 . S
C2143 C2144 1.373 1_455 S
C2143 C2145 1.389 . S
C2144 H2117 0.950 . S
C2144 C2130 1.377 . S
C2144 C2143 1.373 1_655 S
C2145 C2129 1.377 . S
C2145 C2143 1.389 . S
C2145 C2146 1.524 . S
C2146 C2145 1.524 . S
C2146 C2147 1.397 . S
C2146 C2151 1.363 . S
C2147 H2118 0.950 . S
C2147 C2146 1.397 . S
C2147 C2148 1.334 . S
C2148 H2119 0.950 . S
C2148 C2147 1.334 . S
C2148 C2149 1.287 . S
C2149 C2148 1.287 . S
C2149 C2150 1.524 . S
C2149 H2152 0.999 . S
C2150 H2120 0.950 . S
C2150 C2149 1.524 . S
C2150 C2151 1.415 . S
C2151 H2121 0.950 . S
C2151 C2146 1.363 . S
C2151 C2150 1.415 . S
H2152 C2149 0.999 . S
H2153 C2134 0.913 . S
H2154 C2172 0.951 . S
H2155 C2174 0.951 . S
H2156 C2176 0.950 . S
H2157 C2177 0.950 . S
H2158 C2179 0.950 . S
H2159 C2182 0.950 . S
H2160 C2183 0.950 . S
H2161 C2185 0.950 . S
H2162 C2186 0.950 . S
H2163 C2187 0.951 . S
H2164 C2189 0.951 . S
H2165 C2191 0.950 . S
H2166 C2192 0.950 . S
H2167 C2194 0.950 . S
H2168 C2197 0.950 . S
H2169 C2198 0.950 . S
H2170 C2200 0.950 . S
H2171 C2201 0.950 . S
C2172 H2154 0.951 . S
C2172 C2173 1.366 . S
C2172 C2174 1.388 . S
C2173 C2172 1.366 . S
C2173 C2177 1.385 . S
C2174 H2155 0.951 . S
C2174 C2172 1.388 . S
C2174 C2175 1.366 . S
C2175 C2174 1.366 . S
C2175 C2176 1.414 . S
C2175 C2178 1.499 . S
C2176 H2156 0.950 . S
C2176 C2175 1.414 . S
C2176 C2177 1.374 . S
C2177 H2157 0.950 . S
C2177 C2173 1.385 . S
C2177 C2176 1.374 . S
C2178 C2175 1.499 . S
C2178 C2179 1.373 . S
C2178 C2180 1.389 . S
C2179 H2158 0.950 . S
C2179 C2178 1.373 . S
C2179 C2195 1.377 . S
C2180 C2178 1.389 . S
C2180 C2181 1.524 . S
C2180 C2194 1.377 . S
C2181 C2180 1.524 . S
C2181 C2182 1.397 . S
C2181 C2186 1.363 . S
C2182 H2159 0.950 . S
C2182 C2181 1.397 . S
C2182 C2183 1.334 . S
C2183 H2160 0.950 . S
C2183 C2182 1.334 . S
C2183 C2184 1.287 . S
C2184 C2183 1.287 . S
C2184 C2185 1.524 . S
C2184 H2203 0.913 . S
C2185 H2161 0.950 . S
C2185 C2184 1.524 . S
C2185 C2186 1.415 . S
C2186 H2162 0.950 . S
C2186 C2181 1.363 . S
C2186 C2185 1.415 . S
C2187 H2163 0.951 . S
C2187 C2188 1.366 . S
C2187 C2189 1.388 . S
C2188 C2187 1.366 . S
C2188 C2192 1.385 . S
C2189 H2164 0.951 . S
C2189 C2187 1.388 . S
C2189 C2190 1.366 . S
C2190 C2189 1.366 . S
C2190 C2191 1.414 . S
C2190 C2193 1.499 . S
C2191 H2165 0.950 . S
C2191 C2190 1.414 . S
C2191 C2192 1.374 . S
C2192 H2166 0.950 . S
C2192 C2188 1.385 . S
C2192 C2191 1.374 . S
C2193 C2190 1.499 . S
C2193 C2194 1.373 . S
C2193 C2195 1.389 . S
C2194 H2167 0.950 . S
C2194 C2180 1.377 . S
C2194 C2193 1.373 . S
C2195 C2179 1.377 . S
C2195 C2193 1.389 . S
C2195 C2196 1.524 . S
C2196 C2195 1.524 . S
C2196 C2197 1.397 . S
C2196 C2201 1.363 . S
C2197 H2168 0.950 . S
C2197 C2196 1.397 . S
C2197 C2198 1.334 . S
C2198 H2169 0.950 . S
C2198 C2197 1.334 . S
C2198 C2199 1.287 . S
C2199 C2198 1.287 . S
C2199 C2200 1.524 . S
C2199 H2202 0.999 . S
C2200 H2170 0.950 . S
C2200 C2199 1.524 . S
C2200 C2201 1.415 . S
C2201 H2171 0.950 . S
C2201 C2196 1.363 . S
C2201 C2200 1.415 . S
H2202 C2199 0.999 . S
H2203 C2184 0.913 . S
H2204 C2222 0.951 . S
H2205 C2224 0.951 . S
H2206 C2226 0.950 . S
H2207 C2227 0.950 . S
H2208 C2229 0.950 . S
H2209 C2232 0.950 . S
H2210 C2233 0.950 . S
H2211 C2235 0.950 . S
H2212 C2236 0.950 . S
H2213 C2237 0.951 . S
H2214 C2239 0.951 . S
H2215 C2241 0.950 . S
H2216 C2242 0.950 . S
H2217 C2244 0.950 . S
H2218 C2247 0.950 . S
H2219 C2248 0.950 . S
H2220 C2250 0.950 . S
H2221 C2251 0.950 . S
C2222 H2204 0.951 . S
C2222 C2223 1.366 . S
C2222 C2224 1.388 . S
C2223 C2222 1.366 . S
C2223 C2227 1.385 . S
C2224 H2205 0.951 . S
C2224 C2222 1.388 . S
C2224 C2225 1.366 . S
C2225 C2224 1.366 . S
C2225 C2226 1.414 . S
C2225 C2228 1.499 . S
C2226 H2206 0.950 . S
C2226 C2225 1.414 . S
C2226 C2227 1.374 . S
C2227 H2207 0.950 . S
C2227 C2223 1.385 . S
C2227 C2226 1.374 . S
C2228 C2225 1.499 . S
C2228 C2229 1.373 . S
C2228 C2230 1.389 . S
C2229 H2208 0.950 . S
C2229 C2228 1.373 . S
C2229 C2245 1.377 . S
C2230 C2228 1.389 . S
C2230 C2231 1.524 . S
C2230 C2244 1.377 . S
C2231 C2230 1.524 . S
C2231 C2232 1.397 . S
C2231 C2236 1.363 . S
C2232 H2209 0.950 . S
C2232 C2231 1.397 . S
C2232 C2233 1.334 . S
C2233 H2210 0.950 . S
C2233 C2232 1.334 . S
C2233 C2234 1.287 . S
C2234 C2233 1.287 . S
C2234 C2235 1.524 . S
C2234 H2253 0.913 . S
C2235 H2211 0.950 . S
C2235 C2234 1.524 . S
C2235 C2236 1.415 . S
C2236 H2212 0.950 . S
C2236 C2231 1.363 . S
C2236 C2235 1.415 . S
C2237 H2213 0.951 . S
C2237 C2238 1.366 . S
C2237 C2239 1.388 . S
C2238 C2237 1.366 . S
C2238 C2242 1.385 . S
C2239 H2214 0.951 . S
C2239 C2237 1.388 . S
C2239 C2240 1.366 . S
C2240 C2239 1.366 . S
C2240 C2241 1.414 . S
C2240 C2243 1.499 . S
C2241 H2215 0.950 . S
C2241 C2240 1.414 . S
C2241 C2242 1.374 . S
C2242 H2216 0.950 . S
C2242 C2238 1.385 . S
C2242 C2241 1.374 . S
C2243 C2240 1.499 . S
C2243 C2244 1.373 . S
C2243 C2245 1.389 . S
C2244 H2217 0.950 . S
C2244 C2230 1.377 . S
C2244 C2243 1.373 . S
C2245 C2229 1.377 . S
C2245 C2243 1.389 . S
C2245 C2246 1.524 . S
C2246 C2245 1.524 . S
C2246 C2247 1.397 . S
C2246 C2251 1.363 . S
C2247 H2218 0.950 . S
C2247 C2246 1.397 . S
C2247 C2248 1.334 . S
C2248 H2219 0.950 . S
C2248 C2247 1.334 . S
C2248 C2249 1.287 . S
C2249 C2248 1.287 . S
C2249 C2250 1.524 . S
C2249 H2252 0.999 . S
C2250 H2220 0.950 . S
C2250 C2249 1.524 . S
C2250 C2251 1.415 . S
C2251 H2221 0.950 . S
C2251 C2246 1.363 . S
C2251 C2250 1.415 . S
H2252 C2249 0.999 . S
H2253 C2234 0.913 . S
H2254 C2272 0.951 . S
H2255 C2274 0.951 . S
H2256 C2276 0.950 . S
H2257 C2277 0.950 . S
H2258 C2279 0.950 . S
H2259 C2282 0.950 . S
H2260 C2283 0.950 . S
H2261 C2285 0.950 . S
H2262 C2286 0.950 . S
H2263 C2287 0.951 . S
H2264 C2289 0.951 . S
H2265 C2291 0.950 . S
H2266 C2292 0.950 . S
H2267 C2294 0.950 . S
H2268 C2297 0.950 . S
H2269 C2298 0.950 . S
H2270 C2300 0.950 . S
H2271 C2301 0.950 . S
C2272 H2254 0.951 . S
C2272 C2273 1.366 . S
C2272 C2274 1.388 . S
C2273 C2272 1.366 . S
C2273 C2277 1.385 . S
C2274 H2255 0.951 . S
C2274 C2272 1.388 . S
C2274 C2275 1.366 . S
C2275 C2274 1.366 . S
C2275 C2276 1.414 . S
C2275 C2278 1.499 . S
C2276 H2256 0.950 . S
C2276 C2275 1.414 . S
C2276 C2277 1.374 . S
C2277 H2257 0.950 . S
C2277 C2273 1.385 . S
C2277 C2276 1.374 . S
C2278 C2275 1.499 . S
C2278 C2279 1.373 . S
C2278 C2280 1.389 . S
C2279 H2258 0.950 . S
C2279 C2278 1.373 . S
C2279 C2295 1.377 . S
C2280 C2278 1.389 . S
C2280 C2281 1.524 . S
C2280 C2294 1.377 . S
C2281 C2280 1.524 . S
C2281 C2282 1.397 . S
C2281 C2286 1.363 . S
C2282 H2259 0.950 . S
C2282 C2281 1.397 . S
C2282 C2283 1.334 . S
C2283 H2260 0.950 . S
C2283 C2282 1.334 . S
C2283 C2284 1.287 . S
C2284 C2283 1.287 . S
C2284 C2285 1.524 . S
C2284 H2303 0.913 . S
C2285 H2261 0.950 . S
C2285 C2284 1.524 . S
C2285 C2286 1.415 . S
C2286 H2262 0.950 . S
C2286 C2281 1.363 . S
C2286 C2285 1.415 . S
C2287 H2263 0.951 . S
C2287 C2288 1.366 . S
C2287 C2289 1.388 . S
C2288 C2287 1.366 . S
C2288 C2292 1.385 . S
C2289 H2264 0.951 . S
C2289 C2287 1.388 . S
C2289 C2290 1.366 . S
C2290 C2289 1.366 . S
C2290 C2291 1.414 . S
C2290 C2293 1.499 . S
C2291 H2265 0.950 . S
C2291 C2290 1.414 . S
C2291 C2292 1.374 . S
C2292 H2266 0.950 . S
C2292 C2288 1.385 . S
C2292 C2291 1.374 . S
C2293 C2290 1.499 . S
C2293 C2294 1.373 . S
C2293 C2295 1.389 . S
C2294 H2267 0.950 . S
C2294 C2280 1.377 . S
C2294 C2293 1.373 . S
C2295 C2279 1.377 . S
C2295 C2293 1.389 . S
C2295 C2296 1.524 . S
C2296 C2295 1.524 . S
C2296 C2297 1.397 . S
C2296 C2301 1.363 . S
C2297 H2268 0.950 . S
C2297 C2296 1.397 . S
C2297 C2298 1.334 . S
C2298 H2269 0.950 . S
C2298 C2297 1.334 . S
C2298 C2299 1.287 . S
C2299 C2298 1.287 . S
C2299 C2300 1.524 . S
C2299 H2302 0.999 . S
C2300 H2270 0.950 . S
C2300 C2299 1.524 . S
C2300 C2301 1.415 . S
C2301 H2271 0.950 . S
C2301 C2296 1.363 . S
C2301 C2300 1.415 . S
H2302 C2299 0.999 . S
H2303 C2284 0.913 . S
H2304 C2322 0.951 . S
H2305 C2324 0.951 . S
H2306 C2326 0.950 . S
H2307 C2327 0.950 . S
H2308 C2329 0.950 . S
H2309 C2332 0.950 . S
H2310 C2333 0.950 . S
H2311 C2335 0.950 . S
H2312 C2336 0.950 . S
H2313 C2337 0.951 1_455 S
H2314 C2339 0.951 . S
H2315 C2341 0.950 . S
H2316 C2342 0.950 . S
H2317 C2344 0.950 . S
H2318 C2347 0.950 . S
H2319 C2348 0.950 . S
H2320 C2350 0.950 1_455 S
H2321 C2351 0.984 . S
C2322 H2304 0.951 . S
C2322 C2323 1.366 . S
C2322 C2324 1.388 . S
C2323 C2322 1.366 . S
C2323 C2327 1.385 . S
C2324 H2305 0.951 . S
C2324 C2322 1.388 . S
C2324 C2325 1.366 . S
C2325 C2324 1.366 . S
C2325 C2326 1.414 . S
C2325 C2328 1.499 . S
C2326 H2306 0.950 . S
C2326 C2325 1.414 . S
C2326 C2327 1.374 . S
C2327 H2307 0.950 . S
C2327 C2323 1.385 . S
C2327 C2326 1.374 . S
C2328 C2325 1.499 . S
C2328 C2329 1.373 . S
C2328 C2330 1.389 . S
C2329 H2308 0.950 . S
C2329 C2328 1.373 . S
C2329 C2345 1.377 . S
C2330 C2328 1.389 . S
C2330 C2331 1.524 . S
C2330 C2344 1.377 . S
C2331 C2330 1.524 . S
C2331 C2332 1.397 . S
C2331 C2336 1.363 . S
C2332 H2309 0.950 . S
C2332 C2331 1.397 . S
C2332 C2333 1.334 . S
C2333 H2310 0.950 . S
C2333 C2332 1.334 . S
C2333 C2334 1.287 . S
C2334 C2333 1.287 . S
C2334 C2335 1.524 . S
C2334 H2353 0.913 . S
C2335 H2311 0.950 . S
C2335 C2334 1.524 . S
C2335 C2336 1.415 . S
C2336 H2312 0.950 . S
C2336 C2331 1.363 . S
C2336 C2335 1.415 . S
C2337 H2313 0.951 1_655 S
C2337 C2338 1.366 . S
C2337 C2339 1.388 . S
C2338 C2337 1.366 . S
C2338 C2342 1.385 . S
C2339 H2314 0.951 . S
C2339 C2337 1.388 . S
C2339 C2340 1.366 . S
C2340 C2339 1.366 . S
C2340 C2341 1.414 . S
C2340 C2343 1.499 . S
C2341 H2315 0.950 . S
C2341 C2340 1.414 . S
C2341 C2342 1.374 . S
C2342 H2316 0.950 . S
C2342 C2338 1.385 . S
C2342 C2341 1.374 . S
C2343 C2340 1.499 . S
C2343 C2344 1.373 . S
C2343 C2345 1.389 . S
C2344 H2317 0.950 . S
C2344 C2330 1.377 . S
C2344 C2343 1.373 . S
C2345 C2329 1.377 . S
C2345 C2343 1.389 . S
C2345 C2346 1.524 1_545 S
C2346 C2345 1.524 1_565 S
C2346 C2347 1.397 . S
C2346 C2351 1.363 . S
C2347 H2318 0.950 . S
C2347 C2346 1.397 . S
C2347 C2348 1.334 . S
C2348 H2319 0.950 . S
C2348 C2347 1.334 . S
C2348 C2349 1.287 . S
C2349 C2348 1.287 . S
C2349 C2350 1.524 . S
C2349 H2352 0.998 . S
C2350 H2320 0.950 1_655 S
C2350 C2349 1.524 . S
C2350 C2351 1.415 . S
C2351 H2321 0.984 . S
C2351 C2346 1.363 . S
C2351 C2350 1.415 . S
H2352 C2349 0.998 . S
H2353 C2334 0.913 . S
H2354 C2372 0.951 . S
H2355 C2374 0.951 . S
H2356 C2376 0.950 . S
H2357 C2377 0.950 . S
H2358 C2379 0.950 . S
H2359 C2382 0.950 . S
H2360 C2383 0.950 . S
H2361 C2385 0.950 . S
H2362 C2386 0.950 . S
H2363 C2387 0.951 . S
H2364 C2389 0.951 . S
H2365 C2391 0.950 . S
H2366 C2392 0.950 . S
H2367 C2394 0.950 . S
H2368 C2397 0.950 . S
H2369 C2398 0.950 . S
H2370 C2400 0.950 . S
H2371 C2401 0.950 . S
C2372 H2354 0.951 . S
C2372 C2373 1.366 . S
C2372 C2374 1.388 . S
C2373 C2372 1.366 . S
C2373 C2377 1.385 . S
C2374 H2355 0.951 . S
C2374 C2372 1.388 . S
C2374 C2375 1.366 . S
C2375 C2374 1.366 . S
C2375 C2376 1.414 . S
C2375 C2378 1.499 . S
C2376 H2356 0.950 . S
C2376 C2375 1.414 . S
C2376 C2377 1.374 . S
C2377 H2357 0.950 . S
C2377 C2373 1.385 . S
C2377 C2376 1.374 . S
C2378 C2375 1.499 . S
C2378 C2379 1.373 . S
C2378 C2380 1.389 . S
C2379 H2358 0.950 . S
C2379 C2378 1.373 . S
C2379 C2395 1.377 . S
C2380 C2378 1.389 . S
C2380 C2381 1.524 . S
C2380 C2394 1.377 . S
C2381 C2380 1.524 . S
C2381 C2382 1.397 . S
C2381 C2386 1.363 . S
C2382 H2359 0.950 . S
C2382 C2381 1.397 . S
C2382 C2383 1.334 . S
C2383 H2360 0.950 . S
C2383 C2382 1.334 . S
C2383 C2384 1.287 . S
C2384 C2383 1.287 . S
C2384 C2385 1.524 . S
C2384 H2403 0.913 . S
C2385 H2361 0.950 . S
C2385 C2384 1.524 . S
C2385 C2386 1.415 . S
C2386 H2362 0.950 . S
C2386 C2381 1.363 . S
C2386 C2385 1.415 . S
C2387 H2363 0.951 . S
C2387 C2388 1.366 . S
C2387 C2389 1.388 . S
C2388 C2387 1.366 . S
C2388 C2392 1.385 . S
C2389 H2364 0.951 . S
C2389 C2387 1.388 . S
C2389 C2390 1.366 . S
C2390 C2389 1.366 . S
C2390 C2391 1.414 . S
C2390 C2393 1.499 . S
C2391 H2365 0.950 . S
C2391 C2390 1.414 . S
C2391 C2392 1.374 . S
C2392 H2366 0.950 . S
C2392 C2388 1.385 . S
C2392 C2391 1.374 . S
C2393 C2390 1.499 . S
C2393 C2394 1.373 . S
C2393 C2395 1.389 . S
C2394 H2367 0.950 . S
C2394 C2380 1.377 . S
C2394 C2393 1.373 . S
C2395 C2379 1.377 . S
C2395 C2393 1.389 . S
C2395 C2396 1.524 . S
C2396 C2395 1.524 . S
C2396 C2397 1.397 . S
C2396 C2401 1.363 . S
C2397 H2368 0.950 . S
C2397 C2396 1.397 . S
C2397 C2398 1.334 . S
C2398 H2369 0.950 . S
C2398 C2397 1.334 . S
C2398 C2399 1.287 . S
C2399 C2398 1.287 . S
C2399 C2400 1.524 . S
C2399 H2402 0.999 . S
C2400 H2370 0.950 . S
C2400 C2399 1.524 . S
C2400 C2401 1.415 . S
C2401 H2371 0.950 . S
C2401 C2396 1.363 . S
C2401 C2400 1.415 . S
H2402 C2399 0.999 . S
H2403 C2384 0.913 . S
H2404 C2422 0.951 . S
H2405 C2424 0.951 . S
H2406 C2426 0.950 . S
H2407 C2427 0.950 . S
H2408 C2429 0.950 . S
H2409 C2432 0.950 . S
H2410 C2433 0.950 . S
H2411 C2435 0.950 . S
H2412 C2436 0.950 . S
H2413 C2437 0.951 . S
H2414 C2439 0.951 . S
H2415 C2441 0.950 . S
H2416 C2442 0.950 . S
H2417 C2444 0.950 . S
H2418 C2447 0.950 . S
H2419 C2448 0.950 . S
H2420 C2450 0.950 . S
H2421 C2451 0.950 . S
C2422 H2404 0.951 . S
C2422 C2423 1.366 . S
C2422 C2424 1.388 . S
C2423 C2422 1.366 . S
C2423 C2427 1.385 1_545 S
C2424 H2405 0.951 . S
C2424 C2422 1.388 . S
C2424 C2425 1.366 1_545 S
C2425 C2424 1.366 1_565 S
C2425 C2426 1.414 . S
C2425 C2428 1.499 . S
C2426 H2406 0.950 . S
C2426 C2425 1.414 . S
C2426 C2427 1.374 . S
C2427 H2407 0.950 . S
C2427 C2423 1.385 1_565 S
C2427 C2426 1.374 . S
C2428 C2425 1.499 . S
C2428 C2429 1.373 . S
C2428 C2430 1.389 . S
C2429 H2408 0.950 . S
C2429 C2428 1.373 . S
C2429 C2445 1.377 . S
C2430 C2428 1.389 . S
C2430 C2431 1.524 . S
C2430 C2444 1.377 . S
C2431 C2430 1.524 . S
C2431 C2432 1.397 . S
C2431 C2436 1.363 1_565 S
C2432 H2409 0.950 . S
C2432 C2431 1.397 . S
C2432 C2433 1.334 . S
C2433 H2410 0.950 . S
C2433 C2432 1.334 . S
C2433 C2434 1.287 . S
C2434 C2433 1.287 . S
C2434 C2435 1.524 1_565 S
C2434 H2453 0.913 . S
C2435 H2411 0.950 . S
C2435 C2434 1.524 1_545 S
C2435 C2436 1.415 . S
C2436 H2412 0.950 . S
C2436 C2431 1.363 1_545 S
C2436 C2435 1.415 . S
C2437 H2413 0.951 . S
C2437 C2438 1.366 . S
C2437 C2439 1.388 . S
C2438 C2437 1.366 . S
C2438 C2442 1.385 1_565 S
C2439 H2414 0.951 . S
C2439 C2437 1.388 . S
C2439 C2440 1.366 . S
C2440 C2439 1.366 . S
C2440 C2441 1.414 1_565 S
C2440 C2443 1.499 . S
C2441 H2415 0.950 . S
C2441 C2440 1.414 1_545 S
C2441 C2442 1.374 . S
C2442 H2416 0.950 . S
C2442 C2438 1.385 1_545 S
C2442 C2441 1.374 . S
C2443 C2440 1.499 . S
C2443 C2444 1.373 . S
C2443 C2445 1.389 . S
C2444 H2417 0.950 . S
C2444 C2430 1.377 . S
C2444 C2443 1.373 . S
C2445 C2429 1.377 . S
C2445 C2443 1.389 . S
C2445 C2446 1.524 . S
C2446 C2445 1.524 . S
C2446 C2447 1.397 1_565 S
C2446 C2451 1.363 . S
C2447 H2418 0.950 . S
C2447 C2446 1.397 1_545 S
C2447 C2448 1.334 . S
C2448 H2419 0.950 . S
C2448 C2447 1.334 . S
C2448 C2449 1.305 . S
C2449 C2448 1.305 . S
C2449 C2450 1.501 1_545 S
C2449 H2452 1.001 . S
C2450 H2420 0.950 . S
C2450 C2449 1.501 1_565 S
C2450 C2451 1.415 . S
C2451 H2421 0.950 . S
C2451 C2446 1.363 . S
C2451 C2450 1.415 . S
H2452 C2449 1.001 . S
H2453 C2434 0.913 . S
H2454 C2472 0.951 . S
H2455 C2474 0.951 . S
H2456 C2476 0.950 . S
H2457 C2477 0.950 . S
H2458 C2479 0.950 . S
H2459 C2482 0.950 . S
H2460 C2483 0.950 . S
H2461 C2485 0.950 . S
H2462 C2486 0.950 . S
H2463 C2487 0.951 . S
H2464 C2489 0.951 . S
H2465 C2491 0.950 . S
H2466 C2492 0.950 . S
H2467 C2494 0.950 . S
H2468 C2497 0.950 . S
H2469 C2498 0.950 . S
H2470 C2500 0.950 . S
H2471 C2501 0.950 . S
C2472 H2454 0.951 . S
C2472 C2473 1.366 . S
C2472 C2474 1.388 . S
C2473 C2472 1.366 . S
C2473 C2477 1.385 . S
C2474 H2455 0.951 . S
C2474 C2472 1.388 . S
C2474 C2475 1.366 . S
C2475 C2474 1.366 . S
C2475 C2476 1.414 . S
C2475 C2478 1.499 . S
C2476 H2456 0.950 . S
C2476 C2475 1.414 . S
C2476 C2477 1.374 . S
C2477 H2457 0.950 . S
C2477 C2473 1.385 . S
C2477 C2476 1.374 . S
C2478 C2475 1.499 . S
C2478 C2479 1.373 . S
C2478 C2480 1.389 . S
C2479 H2458 0.950 . S
C2479 C2478 1.373 . S
C2479 C2495 1.377 . S
C2480 C2478 1.389 . S
C2480 C2481 1.524 . S
C2480 C2494 1.377 . S
C2481 C2480 1.524 . S
C2481 C2482 1.397 . S
C2481 C2486 1.363 . S
C2482 H2459 0.950 . S
C2482 C2481 1.397 . S
C2482 C2483 1.334 . S
C2483 H2460 0.950 . S
C2483 C2482 1.334 . S
C2483 C2484 1.287 . S
C2484 C2483 1.287 . S
C2484 C2485 1.524 . S
C2484 H2503 0.913 . S
C2485 H2461 0.950 . S
C2485 C2484 1.524 . S
C2485 C2486 1.415 . S
C2486 H2462 0.950 . S
C2486 C2481 1.363 . S
C2486 C2485 1.415 . S
C2487 H2463 0.951 . S
C2487 C2488 1.366 . S
C2487 C2489 1.388 . S
C2488 C2487 1.366 . S
C2488 C2492 1.385 . S
C2489 H2464 0.951 . S
C2489 C2487 1.388 . S
C2489 C2490 1.366 . S
C2490 C2489 1.366 . S
C2490 C2491 1.414 . S
C2490 C2493 1.499 . S
C2491 H2465 0.950 . S
C2491 C2490 1.414 . S
C2491 C2492 1.374 . S
C2492 H2466 0.950 . S
C2492 C2488 1.385 . S
C2492 C2491 1.374 . S
C2493 C2490 1.499 . S
C2493 C2494 1.373 . S
C2493 C2495 1.389 . S
C2494 H2467 0.950 . S
C2494 C2480 1.377 . S
C2494 C2493 1.373 . S
C2495 C2479 1.377 . S
C2495 C2493 1.389 . S
C2495 C2496 1.524 . S
C2496 C2495 1.524 . S
C2496 C2497 1.397 . S
C2496 C2501 1.363 . S
C2497 H2468 0.950 . S
C2497 C2496 1.397 . S
C2497 C2498 1.334 . S
C2498 H2469 0.950 . S
C2498 C2497 1.334 . S
C2498 C2499 1.287 . S
C2499 C2498 1.287 . S
C2499 C2500 1.524 . S
C2499 H2502 0.999 . S
C2500 H2470 0.950 . S
C2500 C2499 1.524 . S
C2500 C2501 1.415 . S
C2501 H2471 0.950 . S
C2501 C2496 1.363 . S
C2501 C2500 1.415 . S
H2502 C2499 0.999 . S
H2503 C2484 0.913 . S
H2504 C2522 0.951 . S
H2505 C2524 0.951 . S
H2506 C2526 0.950 . S
H2507 C2527 0.953 . S
H2508 C2529 0.950 . S
H2509 C2532 0.950 . S
H2510 C2533 0.950 . S
H2511 C2535 0.950 . S
H2512 C2536 0.950 . S
H2513 C2537 0.951 . S
H2514 C2539 0.951 . S
H2515 C2541 0.950 . S
H2516 C2542 0.950 . S
H2517 C2544 0.950 . S
H2518 C2547 0.950 1_545 S
H2519 C2548 0.950 . S
H2520 C2550 0.950 . S
H2521 C2551 0.950 . S
C2522 H2504 0.951 . S
C2522 C2523 1.366 . S
C2522 C2524 1.388 . S
C2523 C2522 1.366 . S
C2523 C2527 1.381 1_545 S
C2524 H2505 0.951 . S
C2524 C2522 1.388 . S
C2524 C2525 1.366 . S
C2525 C2524 1.366 . S
C2525 C2526 1.414 1_545 S
C2525 C2528 1.499 . S
C2526 H2506 0.950 . S
C2526 C2525 1.414 1_565 S
C2526 C2527 1.374 . S
C2527 H2507 0.953 . S
C2527 C2523 1.381 1_565 S
C2527 C2526 1.374 . S
C2528 C2525 1.499 . S
C2528 C2529 1.373 1_545 S
C2528 C2530 1.389 . S
C2529 H2508 0.950 . S
C2529 C2528 1.373 1_565 S
C2529 C2545 1.377 . S
C2530 C2528 1.389 . S
C2530 C2531 1.524 . S
C2530 C2544 1.377 . S
C2531 C2530 1.524 . S
C2531 C2532 1.397 . S
C2531 C2536 1.363 . S
C2532 H2509 0.950 . S
C2532 C2531 1.397 . S
C2532 C2533 1.334 . S
C2533 H2510 0.950 . S
C2533 C2532 1.334 . S
C2533 C2534 1.287 . S
C2534 C2533 1.287 . S
C2534 C2535 1.524 . S
C2534 H2553 0.913 . S
C2535 H2511 0.950 . S
C2535 C2534 1.524 . S
C2535 C2536 1.415 . S
C2536 H2512 0.950 . S
C2536 C2531 1.363 . S
C2536 C2535 1.415 . S
C2537 H2513 0.951 . S
C2537 C2538 1.407 . S
C2537 C2539 1.388 . S
C2538 C2537 1.407 . S
C2538 C2542 1.338 1_565 S
C2539 H2514 0.951 . S
C2539 C2537 1.388 . S
C2539 C2540 1.366 1_565 S
C2540 C2539 1.366 1_545 S
C2540 C2541 1.414 . S
C2540 C2543 1.499 . S
C2541 H2515 0.950 . S
C2541 C2540 1.414 . S
C2541 C2542 1.374 . S
C2542 H2516 0.950 . S
C2542 C2538 1.338 1_545 S
C2542 C2541 1.374 . S
C2543 C2540 1.499 . S
C2543 C2544 1.373 . S
C2543 C2545 1.389 1_545 S
C2544 H2517 0.950 . S
C2544 C2530 1.377 . S
C2544 C2543 1.373 . S
C2545 C2529 1.377 . S
C2545 C2543 1.389 1_565 S
C2545 C2546 1.524 . S
C2546 C2545 1.524 . S
C2546 C2547 1.397 . S
C2546 C2551 1.363 . S
C2547 H2518 0.950 1_565 S
C2547 C2546 1.397 . S
C2547 C2548 1.334 1_655 S
C2548 H2519 0.950 . S
C2548 C2547 1.334 1_455 S
C2548 C2549 1.287 . S
C2549 C2548 1.287 . S
C2549 C2550 1.524 1_455 S
C2549 H2552 0.999 . S
C2550 H2520 0.950 . S
C2550 C2549 1.524 1_655 S
C2550 C2551 1.415 . S
C2551 H2521 0.950 . S
C2551 C2546 1.363 . S
C2551 C2550 1.415 . S
H2552 C2549 0.999 . S
H2553 C2534 0.913 . S
H2554 C2572 0.951 . S
H2555 C2574 0.951 . S
H2556 C2576 0.950 . S
H2557 C2577 0.950 . S
H2558 C2579 0.950 . S
H2559 C2582 0.950 . S
H2560 C2583 0.950 . S
H2561 C2585 0.950 . S
H2562 C2586 0.950 . S
H2563 C2587 0.951 . S
H2564 C2589 0.951 . S
H2565 C2591 0.950 . S
H2566 C2592 0.950 . S
H2567 C2594 0.950 . S
H2568 C2597 0.950 . S
H2569 C2598 0.950 . S
H2570 C2600 0.950 . S
H2571 C2601 0.950 . S
C2572 H2554 0.951 . S
C2572 C2573 1.366 . S
C2572 C2574 1.388 . S
C2573 C2572 1.366 . S
C2573 C2577 1.385 . S
C2574 H2555 0.951 . S
C2574 C2572 1.388 . S
C2574 C2575 1.366 . S
C2575 C2574 1.366 . S
C2575 C2576 1.414 . S
C2575 C2578 1.499 . S
C2576 H2556 0.950 . S
C2576 C2575 1.414 . S
C2576 C2577 1.374 . S
C2577 H2557 0.950 . S
C2577 C2573 1.385 . S
C2577 C2576 1.374 . S
C2578 C2575 1.499 . S
C2578 C2579 1.373 . S
C2578 C2580 1.389 . S
C2579 H2558 0.950 . S
C2579 C2578 1.373 . S
C2579 C2595 1.377 . S
C2580 C2578 1.389 . S
C2580 C2581 1.524 . S
C2580 C2594 1.377 . S
C2581 C2580 1.524 . S
C2581 C2582 1.397 . S
C2581 C2586 1.363 . S
C2582 H2559 0.950 . S
C2582 C2581 1.397 . S
C2582 C2583 1.334 . S
C2583 H2560 0.950 . S
C2583 C2582 1.334 . S
C2583 C2584 1.287 . S
C2584 C2583 1.287 . S
C2584 C2585 1.524 . S
C2584 H2603 0.913 . S
C2585 H2561 0.950 . S
C2585 C2584 1.524 . S
C2585 C2586 1.415 . S
C2586 H2562 0.950 . S
C2586 C2581 1.363 . S
C2586 C2585 1.415 . S
C2587 H2563 0.951 . S
C2587 C2588 1.366 . S
C2587 C2589 1.388 . S
C2588 C2587 1.366 . S
C2588 C2592 1.385 . S
C2589 H2564 0.951 . S
C2589 C2587 1.388 . S
C2589 C2590 1.366 . S
C2590 C2589 1.366 . S
C2590 C2591 1.414 . S
C2590 C2593 1.499 . S
C2591 H2565 0.950 . S
C2591 C2590 1.414 . S
C2591 C2592 1.374 . S
C2592 H2566 0.950 . S
C2592 C2588 1.385 . S
C2592 C2591 1.374 . S
C2593 C2590 1.499 . S
C2593 C2594 1.373 . S
C2593 C2595 1.389 . S
C2594 H2567 0.950 . S
C2594 C2580 1.377 . S
C2594 C2593 1.373 . S
C2595 C2579 1.377 . S
C2595 C2593 1.389 . S
C2595 C2596 1.524 . S
C2596 C2595 1.524 . S
C2596 C2597 1.397 . S
C2596 C2601 1.363 . S
C2597 H2568 0.950 . S
C2597 C2596 1.397 . S
C2597 C2598 1.334 . S
C2598 H2569 0.950 . S
C2598 C2597 1.334 . S
C2598 C2599 1.287 . S
C2599 C2598 1.287 . S
C2599 C2600 1.524 . S
C2599 H2602 0.999 . S
C2600 H2570 0.950 . S
C2600 C2599 1.524 . S
C2600 C2601 1.415 . S
C2601 H2571 0.950 . S
C2601 C2596 1.363 . S
C2601 C2600 1.415 . S
H2602 C2599 0.999 . S
H2603 C2584 0.913 . S
H2604 C2622 0.951 . S
H2605 C2624 0.951 . S
H2606 C2626 0.950 . S
H2607 C2627 0.950 . S
H2608 C2629 0.950 . S
H2609 C2632 0.950 . S
H2610 C2633 0.950 . S
H2611 C2635 0.950 . S
H2612 C2636 0.950 . S
H2613 C2637 0.951 1_565 S
H2614 C2639 0.951 1_565 S
H2615 C2641 0.950 . S
H2616 C2642 0.950 . S
H2617 C2644 0.950 . S
H2618 C2647 0.950 . S
H2619 C2648 0.950 . S
H2620 C2650 0.950 . S
H2621 C2651 0.950 . S
C2622 H2604 0.951 . S
C2622 C2623 1.366 . S
C2622 C2624 1.388 . S
C2623 C2622 1.366 . S
C2623 C2627 1.385 1_545 S
C2624 H2605 0.951 . S
C2624 C2622 1.388 . S
C2624 C2625 1.366 . S
C2625 C2624 1.366 . S
C2625 C2626 1.414 1_545 S
C2625 C2628 1.499 . S
C2626 H2606 0.950 . S
C2626 C2625 1.414 1_565 S
C2626 C2627 1.374 . S
C2627 H2607 0.950 . S
C2627 C2623 1.385 1_565 S
C2627 C2626 1.374 . S
C2628 C2625 1.499 . S
C2628 C2629 1.373 1_545 S
C2628 C2630 1.389 . S
C2629 H2608 0.950 . S
C2629 C2628 1.373 1_565 S
C2629 C2645 1.377 . S
C2630 C2628 1.389 . S
C2630 C2631 1.524 . S
C2630 C2644 1.377 . S
C2631 C2630 1.524 . S
C2631 C2632 1.397 . S
C2631 C2636 1.363 . S
C2632 H2609 0.950 . S
C2632 C2631 1.397 . S
C2632 C2633 1.334 . S
C2633 H2610 0.950 . S
C2633 C2632 1.334 . S
C2633 C2634 1.287 . S
C2634 C2633 1.287 . S
C2634 C2635 1.524 . S
C2634 H2653 0.913 . S
C2635 H2611 0.950 . S
C2635 C2634 1.524 . S
C2635 C2636 1.415 . S
C2636 H2612 0.950 . S
C2636 C2631 1.363 . S
C2636 C2635 1.415 . S
C2637 H2613 0.951 1_545 S
C2637 C2638 1.366 . S
C2637 C2639 1.388 . S
C2638 C2637 1.366 . S
C2638 C2642 1.385 . S
C2639 H2614 0.951 1_545 S
C2639 C2637 1.388 . S
C2639 C2640 1.366 . S
C2640 C2639 1.366 . S
C2640 C2641 1.414 . S
C2640 C2643 1.499 . S
C2641 H2615 0.950 . S
C2641 C2640 1.414 . S
C2641 C2642 1.374 . S
C2642 H2616 0.950 . S
C2642 C2638 1.385 . S
C2642 C2641 1.374 . S
C2643 C2640 1.499 . S
C2643 C2644 1.373 . S
C2643 C2645 1.389 1_545 S
C2644 H2617 0.950 . S
C2644 C2630 1.377 . S
C2644 C2643 1.373 . S
C2645 C2629 1.377 . S
C2645 C2643 1.389 1_565 S
C2645 C2646 1.524 . S
C2646 C2645 1.524 . S
C2646 C2647 1.397 . S
C2646 C2651 1.363 . S
C2647 H2618 0.950 . S
C2647 C2646 1.397 . S
C2647 C2648 1.334 . S
C2648 H2619 0.950 . S
C2648 C2647 1.334 . S
C2648 C2649 1.287 . S
C2649 C2648 1.287 . S
C2649 C2650 1.524 . S
C2649 H2652 0.999 . S
C2650 H2620 0.950 . S
C2650 C2649 1.524 . S
C2650 C2651 1.415 . S
C2651 H2621 0.950 . S
C2651 C2646 1.363 . S
C2651 C2650 1.415 . S
H2652 C2649 0.999 . S
H2653 C2634 0.913 . S
H2654 C2672 0.951 . S
H2655 C2674 0.951 . S
H2656 C2676 0.950 . S
H2657 C2677 0.950 . S
H2658 C2679 0.950 . S
H2659 C2682 0.950 . S
H2660 C2683 0.950 . S
H2661 C2685 0.950 . S
H2662 C2686 0.950 . S
H2663 C2687 0.951 . S
H2664 C2689 0.951 . S
H2665 C2691 0.950 . S
H2666 C2692 0.950 . S
H2667 C2694 0.950 . S
H2668 C2697 0.950 . S
H2669 C2698 0.950 . S
H2670 C2700 0.950 . S
H2671 C2701 0.950 . S
C2672 H2654 0.951 . S
C2672 C2673 1.366 . S
C2672 C2674 1.388 . S
C2673 C2672 1.366 . S
C2673 C2677 1.385 . S
C2674 H2655 0.951 . S
C2674 C2672 1.388 . S
C2674 C2675 1.366 . S
C2675 C2674 1.366 . S
C2675 C2676 1.414 . S
C2675 C2678 1.499 . S
C2676 H2656 0.950 . S
C2676 C2675 1.414 . S
C2676 C2677 1.374 . S
C2677 H2657 0.950 . S
C2677 C2673 1.385 . S
C2677 C2676 1.374 . S
C2678 C2675 1.499 . S
C2678 C2679 1.373 . S
C2678 C2680 1.389 . S
C2679 H2658 0.950 . S
C2679 C2678 1.373 . S
C2679 C2695 1.377 . S
C2680 C2678 1.389 . S
C2680 C2681 1.524 . S
C2680 C2694 1.377 . S
C2681 C2680 1.524 . S
C2681 C2682 1.397 . S
C2681 C2686 1.363 . S
C2682 H2659 0.950 . S
C2682 C2681 1.397 . S
C2682 C2683 1.334 . S
C2683 H2660 0.950 . S
C2683 C2682 1.334 . S
C2683 C2684 1.287 . S
C2684 C2683 1.287 . S
C2684 C2685 1.524 . S
C2684 H2703 0.913 . S
C2685 H2661 0.950 . S
C2685 C2684 1.524 . S
C2685 C2686 1.415 . S
C2686 H2662 0.950 . S
C2686 C2681 1.363 . S
C2686 C2685 1.415 . S
C2687 H2663 0.951 . S
C2687 C2688 1.366 . S
C2687 C2689 1.388 . S
C2688 C2687 1.366 . S
C2688 C2692 1.385 . S
C2689 H2664 0.951 . S
C2689 C2687 1.388 . S
C2689 C2690 1.366 . S
C2690 C2689 1.366 . S
C2690 C2691 1.414 . S
C2690 C2693 1.499 . S
C2691 H2665 0.950 . S
C2691 C2690 1.414 . S
C2691 C2692 1.374 . S
C2692 H2666 0.950 . S
C2692 C2688 1.385 . S
C2692 C2691 1.374 . S
C2693 C2690 1.499 . S
C2693 C2694 1.373 . S
C2693 C2695 1.389 . S
C2694 H2667 0.950 . S
C2694 C2680 1.377 . S
C2694 C2693 1.373 . S
C2695 C2679 1.377 . S
C2695 C2693 1.389 . S
C2695 C2696 1.524 . S
C2696 C2695 1.524 . S
C2696 C2697 1.397 . S
C2696 C2701 1.363 . S
C2697 H2668 0.950 . S
C2697 C2696 1.397 . S
C2697 C2698 1.334 . S
C2698 H2669 0.950 . S
C2698 C2697 1.334 . S
C2698 C2699 1.287 . S
C2699 C2698 1.287 . S
C2699 C2700 1.524 . S
C2699 H2702 0.999 . S
C2700 H2670 0.950 . S
C2700 C2699 1.524 . S
C2700 C2701 1.415 . S
C2701 H2671 0.950 . S
C2701 C2696 1.363 . S
C2701 C2700 1.415 . S
H2702 C2699 0.999 . S
H2703 C2684 0.913 . S
H2704 C2722 0.951 . S
H2705 C2724 0.951 . S
H2706 C2726 0.961 . S
H2707 C2727 0.935 1_556 S
H2708 C2729 0.947 . S
H2709 C2732 0.950 . S
H2710 C2733 0.950 . S
H2711 C2735 0.950 . S
H2712 C2736 0.950 . S
H2713 C2737 0.951 . S
H2714 C2739 0.951 . S
H2715 C2741 0.950 . S
H2716 C2742 0.950 . S
H2717 C2744 0.950 . S
H2718 C2747 0.950 . S
H2719 C2748 0.950 . S
H2720 C2750 0.950 . S
H2721 C2751 0.950 . S
C2722 H2704 0.951 . S
C2722 C2723 1.366 . S
C2722 C2724 1.388 . S
C2723 C2722 1.366 . S
C2723 C2727 1.394 . S
C2724 H2705 0.951 . S
C2724 C2722 1.388 . S
C2724 C2725 1.366 . S
C2725 C2724 1.366 . S
C2725 C2726 1.414 . S
C2725 C2728 1.499 . S
C2726 H2706 0.961 . S
C2726 C2725 1.414 . S
C2726 C2727 1.381 . S
C2727 H2707 0.935 1_554 S
C2727 C2723 1.394 . S
C2727 C2726 1.381 . S
C2728 C2725 1.499 . S
C2728 C2729 1.376 1_554 S
C2728 C2730 1.389 . S
C2729 H2708 0.947 . S
C2729 C2728 1.376 1_556 S
C2729 C2745 1.377 1_556 S
C2730 C2728 1.389 . S
C2730 C2731 1.524 . S
C2730 C2744 1.377 . S
C2731 C2730 1.524 . S
C2731 C2732 1.397 . S
C2731 C2736 1.363 . S
C2732 H2709 0.950 . S
C2732 C2731 1.397 . S
C2732 C2733 1.334 . S
C2733 H2710 0.950 . S
C2733 C2732 1.334 . S
C2733 C2734 1.287 . S
C2734 C2733 1.287 . S
C2734 C2735 1.524 . S
C2734 H2753 0.913 . S
C2735 H2711 0.950 . S
C2735 C2734 1.524 . S
C2735 C2736 1.415 . S
C2736 H2712 0.950 . S
C2736 C2731 1.363 . S
C2736 C2735 1.415 . S
C2737 H2713 0.951 . S
C2737 C2738 1.366 . S
C2737 C2739 1.388 . S
C2738 C2737 1.366 . S
C2738 C2742 1.385 . S
C2739 H2714 0.951 . S
C2739 C2737 1.388 . S
C2739 C2740 1.366 . S
C2740 C2739 1.366 . S
C2740 C2741 1.414 . S
C2740 C2743 1.499 . S
C2741 H2715 0.950 . S
C2741 C2740 1.414 . S
C2741 C2742 1.374 . S
C2742 H2716 0.950 . S
C2742 C2738 1.385 . S
C2742 C2741 1.374 . S
C2743 C2740 1.499 . S
C2743 C2744 1.373 . S
C2743 C2745 1.389 . S
C2744 H2717 0.950 . S
C2744 C2730 1.377 . S
C2744 C2743 1.373 . S
C2745 C2729 1.377 1_554 S
C2745 C2743 1.389 . S
C2745 C2746 1.524 1_554 S
C2746 C2745 1.524 1_556 S
C2746 C2747 1.397 . S
C2746 C2751 1.363 . S
C2747 H2718 0.950 . S
C2747 C2746 1.397 . S
C2747 C2748 1.334 . S
C2748 H2719 0.950 . S
C2748 C2747 1.334 . S
C2748 C2749 1.287 . S
C2749 C2748 1.287 . S
C2749 C2750 1.524 . S
C2749 H2752 0.999 . S
C2750 H2720 0.950 . S
C2750 C2749 1.524 . S
C2750 C2751 1.415 . S
C2751 H2721 0.950 . S
C2751 C2746 1.363 . S
C2751 C2750 1.415 . S
H2752 C2749 0.999 . S
H2753 C2734 0.913 . S
H2754 C2772 0.951 . S
H2755 C2774 0.951 . S
H2756 C2776 0.950 . S
H2757 C2777 0.950 . S
H2758 C2779 0.950 . S
H2759 C2782 0.950 . S
H2760 C2783 0.950 . S
H2761 C2785 0.950 . S
H2762 C2786 0.950 . S
H2763 C2787 0.951 . S
H2764 C2789 0.951 . S
H2765 C2791 0.950 . S
H2766 C2792 0.950 . S
H2767 C2794 0.950 . S
H2768 C2797 0.950 . S
H2769 C2798 0.950 . S
H2770 C2800 0.950 . S
H2771 C2801 0.950 . S
C2772 H2754 0.951 . S
C2772 C2773 1.366 . S
C2772 C2774 1.388 . S
C2773 C2772 1.366 . S
C2773 C2777 1.385 1_554 S
C2774 H2755 0.951 . S
C2774 C2772 1.388 . S
C2774 C2775 1.406 . S
C2775 C2774 1.406 . S
C2775 C2776 1.379 1_554 S
C2775 C2778 1.495 1_554 S
C2776 H2756 0.950 . S
C2776 C2775 1.379 1_556 S
C2776 C2777 1.374 . S
C2777 H2757 0.950 . S
C2777 C2773 1.385 1_556 S
C2777 C2776 1.374 . S
C2778 C2775 1.495 1_556 S
C2778 C2779 1.373 . S
C2778 C2780 1.389 1_556 S
C2779 H2758 0.950 . S
C2779 C2778 1.373 . S
C2779 C2795 1.377 . S
C2780 C2778 1.389 1_554 S
C2780 C2781 1.524 . S
C2780 C2794 1.377 . S
C2781 C2780 1.524 . S
C2781 C2782 1.397 1_554 S
C2781 C2786 1.363 . S
C2782 H2759 0.950 . S
C2782 C2781 1.397 1_556 S
C2782 C2783 1.334 . S
C2783 H2760 0.950 . S
C2783 C2782 1.334 . S
C2783 C2784 1.287 1_556 S
C2784 C2783 1.287 1_554 S
C2784 C2785 1.524 . S
C2784 H2803 0.913 . S
C2785 H2761 0.950 . S
C2785 C2784 1.524 . S
C2785 C2786 1.415 . S
C2786 H2762 0.950 . S
C2786 C2781 1.363 . S
C2786 C2785 1.415 . S
C2787 H2763 0.951 . S
C2787 C2788 1.366 . S
C2787 C2789 1.388 . S
C2788 C2787 1.366 . S
C2788 C2792 1.385 1_556 S
C2789 H2764 0.951 . S
C2789 C2787 1.388 . S
C2789 C2790 1.366 . S
C2790 C2789 1.366 . S
C2790 C2791 1.414 1_556 S
C2790 C2793 1.499 . S
C2791 H2765 0.950 . S
C2791 C2790 1.414 1_554 S
C2791 C2792 1.374 . S
C2792 H2766 0.950 . S
C2792 C2788 1.385 1_554 S
C2792 C2791 1.374 . S
C2793 C2790 1.499 . S
C2793 C2794 1.373 1_556 S
C2793 C2795 1.389 . S
C2794 H2767 0.950 . S
C2794 C2780 1.377 . S
C2794 C2793 1.373 1_554 S
C2795 C2779 1.377 . S
C2795 C2793 1.389 . S
C2795 C2796 1.524 . S
C2796 C2795 1.524 . S
C2796 C2797 1.397 1_556 S
C2796 C2801 1.363 . S
C2797 H2768 0.950 . S
C2797 C2796 1.397 1_554 S
C2797 C2798 1.334 . S
C2798 H2769 0.950 . S
C2798 C2797 1.334 . S
C2798 C2799 1.287 1_554 S
C2799 C2798 1.287 1_556 S
C2799 C2800 1.524 . S
C2799 H2802 0.999 . S
C2800 H2770 0.950 . S
C2800 C2799 1.524 . S
C2800 C2801 1.415 . S
C2801 H2771 0.950 . S
C2801 C2796 1.363 . S
C2801 C2800 1.415 . S
H2802 C2799 0.999 . S
H2803 C2784 0.913 . S
H2804 C2822 0.951 . S
H2805 C2824 0.951 . S
H2806 C2826 0.950 . S
H2807 C2827 0.950 . S
H2808 C2829 0.950 . S
H2809 C2832 0.950 . S
H2810 C2833 0.950 . S
H2811 C2835 0.950 . S
H2812 C2836 0.950 . S
H2813 C2837 0.951 . S
H2814 C2839 0.951 . S
H2815 C2841 0.950 . S
H2816 C2842 0.950 . S
H2817 C2844 0.950 . S
H2818 C2847 0.950 . S
H2819 C2848 0.950 . S
H2820 C2850 0.950 . S
H2821 C2851 0.950 . S
C2822 H2804 0.951 . S
C2822 C2823 1.366 . S
C2822 C2824 1.388 . S
C2823 C2822 1.366 . S
C2823 C2827 1.385 . S
C2824 H2805 0.951 . S
C2824 C2822 1.388 . S
C2824 C2825 1.366 . S
C2825 C2824 1.366 . S
C2825 C2826 1.414 . S
C2825 C2828 1.499 . S
C2826 H2806 0.950 . S
C2826 C2825 1.414 . S
C2826 C2827 1.374 . S
C2827 H2807 0.950 . S
C2827 C2823 1.385 . S
C2827 C2826 1.374 . S
C2828 C2825 1.499 . S
C2828 C2829 1.373 . S
C2828 C2830 1.389 . S
C2829 H2808 0.950 . S
C2829 C2828 1.373 . S
C2829 C2845 1.377 . S
C2830 C2828 1.389 . S
C2830 C2831 1.524 . S
C2830 C2844 1.377 . S
C2831 C2830 1.524 . S
C2831 C2832 1.397 . S
C2831 C2836 1.363 . S
C2832 H2809 0.950 . S
C2832 C2831 1.397 . S
C2832 C2833 1.334 . S
C2833 H2810 0.950 . S
C2833 C2832 1.334 . S
C2833 C2834 1.287 . S
C2834 C2833 1.287 . S
C2834 C2835 1.524 . S
C2834 H2853 0.913 . S
C2835 H2811 0.950 . S
C2835 C2834 1.524 . S
C2835 C2836 1.415 . S
C2836 H2812 0.950 . S
C2836 C2831 1.363 . S
C2836 C2835 1.415 . S
C2837 H2813 0.951 . S
C2837 C2838 1.366 . S
C2837 C2839 1.388 . S
C2838 C2837 1.366 . S
C2838 C2842 1.385 . S
C2839 H2814 0.951 . S
C2839 C2837 1.388 . S
C2839 C2840 1.366 . S
C2840 C2839 1.366 . S
C2840 C2841 1.414 . S
C2840 C2843 1.499 . S
C2841 H2815 0.950 . S
C2841 C2840 1.414 . S
C2841 C2842 1.374 . S
C2842 H2816 0.950 . S
C2842 C2838 1.385 . S
C2842 C2841 1.374 . S
C2843 C2840 1.499 . S
C2843 C2844 1.373 . S
C2843 C2845 1.389 . S
C2844 H2817 0.950 . S
C2844 C2830 1.377 . S
C2844 C2843 1.373 . S
C2845 C2829 1.377 . S
C2845 C2843 1.389 . S
C2845 C2846 1.524 . S
C2846 C2845 1.524 . S
C2846 C2847 1.397 . S
C2846 C2851 1.363 . S
C2847 H2818 0.950 . S
C2847 C2846 1.397 . S
C2847 C2848 1.334 . S
C2848 H2819 0.950 . S
C2848 C2847 1.334 . S
C2848 C2849 1.287 . S
C2849 C2848 1.287 . S
C2849 C2850 1.524 . S
C2849 H2852 0.999 . S
C2850 H2820 0.950 . S
C2850 C2849 1.524 . S
C2850 C2851 1.415 . S
C2851 H2821 0.950 . S
C2851 C2846 1.363 . S
C2851 C2850 1.415 . S
H2852 C2849 0.999 . S
H2853 C2834 0.913 . S
H2854 C2872 0.951 . S
H2855 C2874 0.951 . S
H2856 C2876 0.950 . S
H2857 C2877 0.950 . S
H2858 C2879 0.950 . S
H2859 C2882 0.950 . S
H2860 C2883 0.950 . S
H2861 C2885 0.950 . S
H2862 C2886 0.950 . S
H2863 C2887 0.951 . S
H2864 C2889 0.951 . S
H2865 C2891 0.950 . S
H2866 C2892 0.950 . S
H2867 C2894 0.950 . S
H2868 C2897 0.950 . S
H2869 C2898 0.950 . S
H2870 C2900 0.950 . S
H2871 C2901 0.950 . S
C2872 H2854 0.951 . S
C2872 C2873 1.366 . S
C2872 C2874 1.388 . S
C2873 C2872 1.366 . S
C2873 C2877 1.385 . S
C2874 H2855 0.951 . S
C2874 C2872 1.388 . S
C2874 C2875 1.366 . S
C2875 C2874 1.366 . S
C2875 C2876 1.414 . S
C2875 C2878 1.499 . S
C2876 H2856 0.950 . S
C2876 C2875 1.414 . S
C2876 C2877 1.374 . S
C2877 H2857 0.950 . S
C2877 C2873 1.385 . S
C2877 C2876 1.374 . S
C2878 C2875 1.499 . S
C2878 C2879 1.373 . S
C2878 C2880 1.389 . S
C2879 H2858 0.950 . S
C2879 C2878 1.373 . S
C2879 C2895 1.377 . S
C2880 C2878 1.389 . S
C2880 C2881 1.524 . S
C2880 C2894 1.377 . S
C2881 C2880 1.524 . S
C2881 C2882 1.397 . S
C2881 C2886 1.363 . S
C2882 H2859 0.950 . S
C2882 C2881 1.397 . S
C2882 C2883 1.334 . S
C2883 H2860 0.950 . S
C2883 C2882 1.334 . S
C2883 C2884 1.287 . S
C2884 C2883 1.287 . S
C2884 C2885 1.524 . S
C2884 H2903 0.913 . S
C2885 H2861 0.950 . S
C2885 C2884 1.524 . S
C2885 C2886 1.415 . S
C2886 H2862 0.950 . S
C2886 C2881 1.363 . S
C2886 C2885 1.415 . S
C2887 H2863 0.951 . S
C2887 C2888 1.366 . S
C2887 C2889 1.388 . S
C2888 C2887 1.366 . S
C2888 C2892 1.385 . S
C2889 H2864 0.951 . S
C2889 C2887 1.388 . S
C2889 C2890 1.366 . S
C2890 C2889 1.366 . S
C2890 C2891 1.414 . S
C2890 C2893 1.499 . S
C2891 H2865 0.950 . S
C2891 C2890 1.414 . S
C2891 C2892 1.374 . S
C2892 H2866 0.950 . S
C2892 C2888 1.385 . S
C2892 C2891 1.374 . S
C2893 C2890 1.499 . S
C2893 C2894 1.373 . S
C2893 C2895 1.389 . S
C2894 H2867 0.950 . S
C2894 C2880 1.377 . S
C2894 C2893 1.373 . S
C2895 C2879 1.377 . S
C2895 C2893 1.389 . S
C2895 C2896 1.524 . S
C2896 C2895 1.524 . S
C2896 C2897 1.397 . S
C2896 C2901 1.363 . S
C2897 H2868 0.950 . S
C2897 C2896 1.397 . S
C2897 C2898 1.334 . S
C2898 H2869 0.950 . S
C2898 C2897 1.334 . S
C2898 C2899 1.287 . S
C2899 C2898 1.287 . S
C2899 C2900 1.524 . S
C2899 H2902 0.999 . S
C2900 H2870 0.950 . S
C2900 C2899 1.524 . S
C2900 C2901 1.415 . S
C2901 H2871 0.950 . S
C2901 C2896 1.363 . S
C2901 C2900 1.415 . S
H2902 C2899 0.999 . S
H2903 C2884 0.913 . S
H2904 C2922 0.951 . S
H2905 C2924 0.951 . S
H2906 C2926 0.950 . S
H2907 C2927 0.950 . S
H2908 C2929 0.950 . S
H2909 C2932 0.950 . S
H2910 C2933 0.950 . S
H2911 C2935 0.950 . S
H2912 C2936 0.950 . S
H2913 C2937 0.951 . S
H2914 C2939 0.951 . S
H2915 C2941 0.950 . S
H2916 C2942 0.950 . S
H2917 C2944 0.950 . S
H2918 C2947 0.950 . S
H2919 C2948 0.950 . S
H2920 C2950 0.950 . S
H2921 C2951 0.950 . S
C2922 H2904 0.951 . S
C2922 C2923 1.366 . S
C2922 C2924 1.388 . S
C2923 C2922 1.366 . S
C2923 C2927 1.385 . S
C2924 H2905 0.951 . S
C2924 C2922 1.388 . S
C2924 C2925 1.366 . S
C2925 C2924 1.366 . S
C2925 C2926 1.414 . S
C2925 C2928 1.499 . S
C2926 H2906 0.950 . S
C2926 C2925 1.414 . S
C2926 C2927 1.374 . S
C2927 H2907 0.950 . S
C2927 C2923 1.385 . S
C2927 C2926 1.374 . S
C2928 C2925 1.499 . S
C2928 C2929 1.373 . S
C2928 C2930 1.389 . S
C2929 H2908 0.950 . S
C2929 C2928 1.373 . S
C2929 C2945 1.377 . S
C2930 C2928 1.389 . S
C2930 C2931 1.524 . S
C2930 C2944 1.377 . S
C2931 C2930 1.524 . S
C2931 C2932 1.397 . S
C2931 C2936 1.363 . S
C2932 H2909 0.950 . S
C2932 C2931 1.397 . S
C2932 C2933 1.334 . S
C2933 H2910 0.950 . S
C2933 C2932 1.334 . S
C2933 C2934 1.287 . S
C2934 C2933 1.287 . S
C2934 C2935 1.524 . S
C2934 H2953 0.913 . S
C2935 H2911 0.950 . S
C2935 C2934 1.524 . S
C2935 C2936 1.415 . S
C2936 H2912 0.950 . S
C2936 C2931 1.363 . S
C2936 C2935 1.415 . S
C2937 H2913 0.951 . S
C2937 C2938 1.366 . S
C2937 C2939 1.388 . S
C2938 C2937 1.366 . S
C2938 C2942 1.385 . S
C2939 H2914 0.951 . S
C2939 C2937 1.388 . S
C2939 C2940 1.366 . S
C2940 C2939 1.366 . S
C2940 C2941 1.414 . S
C2940 C2943 1.499 . S
C2941 H2915 0.950 . S
C2941 C2940 1.414 . S
C2941 C2942 1.374 . S
C2942 H2916 0.950 . S
C2942 C2938 1.385 . S
C2942 C2941 1.374 . S
C2943 C2940 1.499 . S
C2943 C2944 1.373 . S
C2943 C2945 1.389 . S
C2944 H2917 0.950 . S
C2944 C2930 1.377 . S
C2944 C2943 1.373 . S
C2945 C2929 1.377 . S
C2945 C2943 1.389 . S
C2945 C2946 1.524 . S
C2946 C2945 1.524 . S
C2946 C2947 1.397 . S
C2946 C2951 1.363 . S
C2947 H2918 0.950 . S
C2947 C2946 1.397 . S
C2947 C2948 1.334 . S
C2948 H2919 0.950 . S
C2948 C2947 1.334 . S
C2948 C2949 1.287 . S
C2949 C2948 1.287 . S
C2949 C2950 1.524 . S
C2949 H2952 0.999 . S
C2950 H2920 0.950 . S
C2950 C2949 1.524 . S
C2950 C2951 1.415 . S
C2951 H2921 0.950 . S
C2951 C2946 1.363 . S
C2951 C2950 1.415 . S
H2952 C2949 0.999 . S
H2953 C2934 0.913 . S
H2954 C2972 0.951 . S
H2955 C2974 0.951 . S
H2956 C2976 0.950 . S
H2957 C2977 0.950 . S
H2958 C2979 0.950 . S
H2959 C2982 0.950 . S
H2960 C2983 0.950 . S
H2961 C2985 0.950 . S
H2962 C2986 0.950 . S
H2963 C2987 0.951 . S
H2964 C2989 0.951 . S
H2965 C2991 0.950 . S
H2966 C2992 0.950 . S
H2967 C2994 0.950 . S
H2968 C2997 0.950 . S
H2969 C2998 0.950 . S
H2970 C3000 0.950 . S
H2971 C3001 0.950 . S
C2972 H2954 0.951 . S
C2972 C2973 1.366 . S
C2972 C2974 1.388 . S
C2973 C2972 1.366 . S
C2973 C2977 1.385 . S
C2974 H2955 0.951 . S
C2974 C2972 1.388 . S
C2974 C2975 1.366 . S
C2975 C2974 1.366 . S
C2975 C2976 1.414 . S
C2975 C2978 1.499 . S
C2976 H2956 0.950 . S
C2976 C2975 1.414 . S
C2976 C2977 1.374 . S
C2977 H2957 0.950 . S
C2977 C2973 1.385 . S
C2977 C2976 1.374 . S
C2978 C2975 1.499 . S
C2978 C2979 1.373 . S
C2978 C2980 1.389 . S
C2979 H2958 0.950 . S
C2979 C2978 1.373 . S
C2979 C2995 1.377 . S
C2980 C2978 1.389 . S
C2980 C2981 1.524 . S
C2980 C2994 1.377 . S
C2981 C2980 1.524 . S
C2981 C2982 1.397 . S
C2981 C2986 1.363 . S
C2982 H2959 0.950 . S
C2982 C2981 1.397 . S
C2982 C2983 1.334 . S
C2983 H2960 0.950 . S
C2983 C2982 1.334 . S
C2983 C2984 1.287 . S
C2984 C2983 1.287 . S
C2984 C2985 1.524 . S
C2984 H3003 0.913 . S
C2985 H2961 0.950 . S
C2985 C2984 1.524 . S
C2985 C2986 1.415 . S
C2986 H2962 0.950 . S
C2986 C2981 1.363 . S
C2986 C2985 1.415 . S
C2987 H2963 0.951 . S
C2987 C2988 1.366 . S
C2987 C2989 1.388 . S
C2988 C2987 1.366 . S
C2988 C2992 1.385 . S
C2989 H2964 0.951 . S
C2989 C2987 1.388 . S
C2989 C2990 1.366 . S
C2990 C2989 1.366 . S
C2990 C2991 1.414 . S
C2990 C2993 1.499 . S
C2991 H2965 0.950 . S
C2991 C2990 1.414 . S
C2991 C2992 1.374 . S
C2992 H2966 0.950 . S
C2992 C2988 1.385 . S
C2992 C2991 1.374 . S
C2993 C2990 1.499 . S
C2993 C2994 1.373 . S
C2993 C2995 1.389 . S
C2994 H2967 0.950 . S
C2994 C2980 1.377 . S
C2994 C2993 1.373 . S
C2995 C2979 1.377 . S
C2995 C2993 1.389 . S
C2995 C2996 1.524 . S
C2996 C2995 1.524 . S
C2996 C2997 1.397 . S
C2996 C3001 1.363 . S
C2997 H2968 0.950 . S
C2997 C2996 1.397 . S
C2997 C2998 1.334 . S
C2998 H2969 0.950 . S
C2998 C2997 1.334 . S
C2998 C2999 1.287 . S
C2999 C2998 1.287 . S
C2999 C3000 1.524 . S
C2999 H3002 0.999 1_545 S
C3000 H2970 0.950 . S
C3000 C2999 1.524 . S
C3000 C3001 1.415 . S
C3001 H2971 0.950 . S
C3001 C2996 1.363 . S
C3001 C3000 1.415 . S
H3002 C2999 0.999 1_565 S
H3003 C2984 0.913 . S
H3004 C3022 0.951 . S
H3005 C3024 0.951 . S
H3006 C3026 0.950 . S
H3007 C3027 0.950 . S
H3008 C3029 0.950 . S
H3009 C3032 0.950 . S
H3010 C3033 0.950 . S
H3011 C3035 0.950 . S
H3012 C3036 0.950 . S
H3013 C3037 0.951 . S
H3014 C3039 0.951 . S
H3015 C3041 0.950 . S
H3016 C3042 0.950 . S
H3017 C3044 0.950 . S
H3018 C3047 0.950 . S
H3019 C3048 0.950 . S
H3020 C3050 0.950 . S
H3021 C3051 0.950 . S
C3022 H3004 0.951 . S
C3022 C3023 1.366 . S
C3022 C3024 1.388 . S
C3023 C3022 1.366 . S
C3023 C3027 1.385 . S
C3024 H3005 0.951 . S
C3024 C3022 1.388 . S
C3024 C3025 1.366 . S
C3025 C3024 1.366 . S
C3025 C3026 1.414 . S
C3025 C3028 1.499 . S
C3026 H3006 0.950 . S
C3026 C3025 1.414 . S
C3026 C3027 1.374 . S
C3027 H3007 0.950 . S
C3027 C3023 1.385 . S
C3027 C3026 1.374 . S
C3028 C3025 1.499 . S
C3028 C3029 1.373 . S
C3028 C3030 1.389 . S
C3029 H3008 0.950 . S
C3029 C3028 1.373 . S
C3029 C3045 1.377 . S
C3030 C3028 1.389 . S
C3030 C3031 1.524 . S
C3030 C3044 1.377 . S
C3031 C3030 1.524 . S
C3031 C3032 1.397 . S
C3031 C3036 1.363 . S
C3032 H3009 0.950 . S
C3032 C3031 1.397 . S
C3032 C3033 1.334 . S
C3033 H3010 0.950 . S
C3033 C3032 1.334 . S
C3033 C3034 1.287 . S
C3034 C3033 1.287 . S
C3034 C3035 1.524 . S
C3034 H3053 0.913 . S
C3035 H3011 0.950 . S
C3035 C3034 1.524 . S
C3035 C3036 1.415 . S
C3036 H3012 0.950 . S
C3036 C3031 1.363 . S
C3036 C3035 1.415 . S
C3037 H3013 0.951 . S
C3037 C3038 1.366 . S
C3037 C3039 1.388 . S
C3038 C3037 1.366 . S
C3038 C3042 1.385 . S
C3039 H3014 0.951 . S
C3039 C3037 1.388 . S
C3039 C3040 1.366 . S
C3040 C3039 1.366 . S
C3040 C3041 1.414 . S
C3040 C3043 1.499 . S
C3041 H3015 0.950 . S
C3041 C3040 1.414 . S
C3041 C3042 1.374 . S
C3042 H3016 0.950 . S
C3042 C3038 1.385 . S
C3042 C3041 1.374 . S
C3043 C3040 1.499 . S
C3043 C3044 1.373 . S
C3043 C3045 1.389 . S
C3044 H3017 0.950 . S
C3044 C3030 1.377 . S
C3044 C3043 1.373 . S
C3045 C3029 1.377 . S
C3045 C3043 1.389 . S
C3045 C3046 1.524 . S
C3046 C3045 1.524 . S
C3046 C3047 1.397 . S
C3046 C3051 1.363 . S
C3047 H3018 0.950 . S
C3047 C3046 1.397 . S
C3047 C3048 1.334 . S
C3048 H3019 0.950 . S
C3048 C3047 1.334 . S
C3048 C3049 1.287 . S
C3049 C3048 1.287 . S
C3049 C3050 1.524 . S
C3049 H3052 0.999 . S
C3050 H3020 0.950 . S
C3050 C3049 1.524 . S
C3050 C3051 1.415 . S
C3051 H3021 0.950 . S
C3051 C3046 1.363 . S
C3051 C3050 1.415 . S
H3052 C3049 0.999 . S
H3053 C3034 0.913 . S
H3054 C3072 0.951 . S
H3055 C3074 0.951 . S
H3056 C3076 0.950 . S
H3057 C3077 0.950 . S
H3058 C3079 0.950 . S
H3059 C3082 0.950 . S
H3060 C3083 0.950 . S
H3061 C3085 0.950 . S
H3062 C3086 0.950 . S
H3063 C3087 0.951 . S
H3064 C3089 0.951 . S
H3065 C3091 0.950 . S
H3066 C3092 0.950 . S
H3067 C3094 0.950 . S
H3068 C3097 0.950 . S
H3069 C3098 0.950 . S
H3070 C3100 0.950 . S
H3071 C3101 0.950 . S
C3072 H3054 0.951 . S
C3072 C3073 1.366 . S
C3072 C3074 1.388 . S
C3073 C3072 1.366 . S
C3073 C3077 1.385 . S
C3074 H3055 0.951 . S
C3074 C3072 1.388 . S
C3074 C3075 1.366 . S
C3075 C3074 1.366 . S
C3075 C3076 1.414 . S
C3075 C3078 1.499 . S
C3076 H3056 0.950 . S
C3076 C3075 1.414 . S
C3076 C3077 1.374 . S
C3077 H3057 0.950 . S
C3077 C3073 1.385 . S
C3077 C3076 1.374 . S
C3078 C3075 1.499 . S
C3078 C3079 1.373 . S
C3078 C3080 1.389 . S
C3079 H3058 0.950 . S
C3079 C3078 1.373 . S
C3079 C3095 1.377 . S
C3080 C3078 1.389 . S
C3080 C3081 1.524 . S
C3080 C3094 1.377 . S
C3081 C3080 1.524 . S
C3081 C3082 1.397 . S
C3081 C3086 1.363 . S
C3082 H3059 0.950 . S
C3082 C3081 1.397 . S
C3082 C3083 1.334 . S
C3083 H3060 0.950 . S
C3083 C3082 1.334 . S
C3083 C3084 1.287 . S
C3084 C3083 1.287 . S
C3084 C3085 1.524 . S
C3084 H3103 0.913 . S
C3085 H3061 0.950 . S
C3085 C3084 1.524 . S
C3085 C3086 1.415 . S
C3086 H3062 0.950 . S
C3086 C3081 1.363 . S
C3086 C3085 1.415 . S
C3087 H3063 0.951 . S
C3087 C3088 1.366 . S
C3087 C3089 1.388 . S
C3088 C3087 1.366 . S
C3088 C3092 1.385 . S
C3089 H3064 0.951 . S
C3089 C3087 1.388 . S
C3089 C3090 1.366 . S
C3090 C3089 1.366 . S
C3090 C3091 1.414 . S
C3090 C3093 1.499 . S
C3091 H3065 0.950 . S
C3091 C3090 1.414 . S
C3091 C3092 1.374 . S
C3092 H3066 0.950 . S
C3092 C3088 1.385 . S
C3092 C3091 1.374 . S
C3093 C3090 1.499 . S
C3093 C3094 1.373 . S
C3093 C3095 1.389 . S
C3094 H3067 0.950 . S
C3094 C3080 1.377 . S
C3094 C3093 1.373 . S
C3095 C3079 1.377 . S
C3095 C3093 1.389 . S
C3095 C3096 1.524 . S
C3096 C3095 1.524 . S
C3096 C3097 1.397 . S
C3096 C3101 1.363 . S
C3097 H3068 0.950 . S
C3097 C3096 1.397 . S
C3097 C3098 1.334 . S
C3098 H3069 0.950 . S
C3098 C3097 1.334 . S
C3098 C3099 1.287 . S
C3099 C3098 1.287 . S
C3099 C3100 1.524 . S
C3099 H3102 0.999 . S
C3100 H3070 0.950 . S
C3100 C3099 1.524 . S
C3100 C3101 1.415 . S
C3101 H3071 0.950 . S
C3101 C3096 1.363 . S
C3101 C3100 1.415 . S
H3102 C3099 0.999 . S
H3103 C3084 0.913 . S
H3104 C3122 0.951 . S
H3105 C3124 0.951 . S
H3106 C3126 0.950 . S
H3107 C3127 0.950 . S
H3108 C3129 0.950 . S
H3109 C3132 0.950 . S
H3110 C3133 0.950 . S
H3111 C3135 0.950 . S
H3112 C3136 0.950 . S
H3113 C3137 0.951 . S
H3114 C3139 0.951 . S
H3115 C3141 0.950 . S
H3116 C3142 0.950 . S
H3117 C3144 0.950 . S
H3118 C3147 0.950 . S
H3119 C3148 0.950 . S
H3120 C3150 0.950 . S
H3121 C3151 0.950 . S
C3122 H3104 0.951 . S
C3122 C3123 1.366 . S
C3122 C3124 1.388 . S
C3123 C3122 1.366 . S
C3123 C3127 1.385 . S
C3124 H3105 0.951 . S
C3124 C3122 1.388 . S
C3124 C3125 1.366 . S
C3125 C3124 1.366 . S
C3125 C3126 1.414 . S
C3125 C3128 1.499 . S
C3126 H3106 0.950 . S
C3126 C3125 1.414 . S
C3126 C3127 1.374 . S
C3127 H3107 0.950 . S
C3127 C3123 1.385 . S
C3127 C3126 1.374 . S
C3128 C3125 1.499 . S
C3128 C3129 1.373 . S
C3128 C3130 1.389 . S
C3129 H3108 0.950 . S
C3129 C3128 1.373 . S
C3129 C3145 1.377 . S
C3130 C3128 1.389 . S
C3130 C3131 1.524 . S
C3130 C3144 1.377 . S
C3131 C3130 1.524 . S
C3131 C3132 1.397 . S
C3131 C3136 1.363 . S
C3132 H3109 0.950 . S
C3132 C3131 1.397 . S
C3132 C3133 1.334 . S
C3133 H3110 0.950 . S
C3133 C3132 1.334 . S
C3133 C3134 1.287 . S
C3134 C3133 1.287 . S
C3134 C3135 1.524 . S
C3134 H3153 0.913 . S
C3135 H3111 0.950 . S
C3135 C3134 1.524 . S
C3135 C3136 1.415 . S
C3136 H3112 0.950 . S
C3136 C3131 1.363 . S
C3136 C3135 1.415 . S
C3137 H3113 0.951 . S
C3137 C3138 1.366 . S
C3137 C3139 1.388 . S
C3138 C3137 1.366 . S
C3138 C3142 1.385 . S
C3139 H3114 0.951 . S
C3139 C3137 1.388 . S
C3139 C3140 1.366 . S
C3140 C3139 1.366 . S
C3140 C3141 1.414 . S
C3140 C3143 1.499 . S
C3141 H3115 0.950 . S
C3141 C3140 1.414 . S
C3141 C3142 1.374 . S
C3142 H3116 0.950 . S
C3142 C3138 1.385 . S
C3142 C3141 1.374 . S
C3143 C3140 1.499 . S
C3143 C3144 1.373 . S
C3143 C3145 1.389 . S
C3144 H3117 0.950 . S
C3144 C3130 1.377 . S
C3144 C3143 1.373 . S
C3145 C3129 1.377 . S
C3145 C3143 1.389 . S
C3145 C3146 1.524 . S
C3146 C3145 1.524 . S
C3146 C3147 1.397 . S
C3146 C3151 1.363 . S
C3147 H3118 0.950 . S
C3147 C3146 1.397 . S
C3147 C3148 1.334 . S
C3148 H3119 0.950 . S
C3148 C3147 1.334 . S
C3148 C3149 1.287 . S
C3149 C3148 1.287 . S
C3149 C3150 1.524 . S
C3149 H3152 0.999 . S
C3150 H3120 0.950 . S
C3150 C3149 1.524 . S
C3150 C3151 1.415 . S
C3151 H3121 0.950 . S
C3151 C3146 1.363 . S
C3151 C3150 1.415 . S
H3152 C3149 0.999 . S
H3153 C3134 0.913 . S
H3154 C3172 0.951 . S
H3155 C3174 0.951 . S
H3156 C3176 0.950 . S
H3157 C3177 0.950 . S
H3158 C3179 0.950 . S
H3159 C3182 0.950 . S
H3160 C3183 0.950 . S
H3161 C3185 0.950 . S
H3162 C3186 0.950 . S
H3163 C3187 0.951 . S
H3164 C3189 0.951 . S
H3165 C3191 0.950 . S
H3166 C3192 0.950 . S
H3167 C3194 0.950 . S
H3168 C3197 0.950 . S
H3169 C3198 0.950 . S
H3170 C3200 0.950 . S
H3171 C3201 0.950 . S
C3172 H3154 0.951 . S
C3172 C3173 1.366 . S
C3172 C3174 1.388 . S
C3173 C3172 1.366 . S
C3173 C3177 1.385 . S
C3174 H3155 0.951 . S
C3174 C3172 1.388 . S
C3174 C3175 1.366 . S
C3175 C3174 1.366 . S
C3175 C3176 1.414 . S
C3175 C3178 1.499 . S
C3176 H3156 0.950 . S
C3176 C3175 1.414 . S
C3176 C3177 1.374 . S
C3177 H3157 0.950 . S
C3177 C3173 1.385 . S
C3177 C3176 1.374 . S
C3178 C3175 1.499 . S
C3178 C3179 1.373 . S
C3178 C3180 1.389 . S
C3179 H3158 0.950 . S
C3179 C3178 1.373 . S
C3179 C3195 1.377 . S
C3180 C3178 1.389 . S
C3180 C3181 1.524 . S
C3180 C3194 1.377 . S
C3181 C3180 1.524 . S
C3181 C3182 1.397 . S
C3181 C3186 1.363 . S
C3182 H3159 0.950 . S
C3182 C3181 1.397 . S
C3182 C3183 1.334 . S
C3183 H3160 0.950 . S
C3183 C3182 1.334 . S
C3183 C3184 1.287 . S
C3184 C3183 1.287 . S
C3184 C3185 1.524 . S
C3184 H3203 0.913 . S
C3185 H3161 0.950 . S
C3185 C3184 1.524 . S
C3185 C3186 1.415 . S
C3186 H3162 0.950 . S
C3186 C3181 1.363 . S
C3186 C3185 1.415 . S
C3187 H3163 0.951 . S
C3187 C3188 1.366 . S
C3187 C3189 1.388 . S
C3188 C3187 1.366 . S
C3188 C3192 1.385 . S
C3189 H3164 0.951 . S
C3189 C3187 1.388 . S
C3189 C3190 1.366 . S
C3190 C3189 1.366 . S
C3190 C3191 1.414 . S
C3190 C3193 1.499 . S
C3191 H3165 0.950 . S
C3191 C3190 1.414 . S
C3191 C3192 1.374 . S
C3192 H3166 0.950 . S
C3192 C3188 1.385 . S
C3192 C3191 1.374 . S
C3193 C3190 1.499 . S
C3193 C3194 1.373 . S
C3193 C3195 1.389 . S
C3194 H3167 0.950 . S
C3194 C3180 1.377 . S
C3194 C3193 1.373 . S
C3195 C3179 1.377 . S
C3195 C3193 1.389 . S
C3195 C3196 1.524 . S
C3196 C3195 1.524 . S
C3196 C3197 1.397 . S
C3196 C3201 1.363 . S
C3197 H3168 0.950 . S
C3197 C3196 1.397 . S
C3197 C3198 1.334 . S
C3198 H3169 0.950 . S
C3198 C3197 1.334 . S
C3198 C3199 1.287 . S
C3199 C3198 1.287 . S
C3199 C3200 1.524 . S
C3199 H3202 0.999 . S
C3200 H3170 0.950 . S
C3200 C3199 1.524 . S
C3200 C3201 1.415 . S
C3201 H3171 0.950 . S
C3201 C3196 1.363 . S
C3201 C3200 1.415 . S
H3202 C3199 0.999 . S
H3203 C3184 0.913 . S
H3204 C3222 0.951 . S
H3205 C3224 0.951 . S
H3206 C3226 0.950 . S
H3207 C3227 0.950 . S
H3208 C3229 0.950 . S
H3209 C3232 0.950 1_455 S
H3210 C3233 0.950 . S
H3211 C3235 0.950 . S
H3212 C3236 0.950 . S
H3213 C3237 0.951 . S
H3214 C3239 0.951 . S
H3215 C3241 0.950 1_655 S
H3216 C3242 0.950 1_655 S
H3217 C3244 0.950 1_655 S
H3218 C3247 0.950 . S
H3219 C3248 0.950 . S
H3220 C3250 0.950 . S
H3221 C3251 0.950 . S
C3222 H3204 0.951 . S
C3222 C3223 1.366 1_655 S
C3222 C3224 1.388 . S
C3223 C3222 1.366 1_455 S
C3223 C3227 1.385 . S
C3224 H3205 0.951 . S
C3224 C3222 1.388 . S
C3224 C3225 1.366 1_655 S
C3225 C3224 1.366 1_455 S
C3225 C3226 1.414 . S
C3225 C3228 1.499 . S
C3226 H3206 0.950 . S
C3226 C3225 1.414 . S
C3226 C3227 1.374 . S
C3227 H3207 0.950 . S
C3227 C3223 1.385 . S
C3227 C3226 1.374 . S
C3228 C3225 1.499 . S
C3228 C3229 1.373 . S
C3228 C3230 1.417 . S
C3229 H3208 0.950 . S
C3229 C3228 1.373 . S
C3229 C3245 1.377 . S
C3230 C3228 1.417 . S
C3230 C3231 1.495 1_455 S
C3230 C3244 1.380 . S
C3231 C3230 1.495 1_655 S
C3231 C3232 1.397 . S
C3231 C3236 1.363 . S
C3232 H3209 0.950 1_655 S
C3232 C3231 1.397 . S
C3232 C3233 1.334 . S
C3233 H3210 0.950 . S
C3233 C3232 1.334 . S
C3233 C3234 1.287 . S
C3234 C3233 1.287 . S
C3234 C3235 1.524 . S
C3234 H3253 0.913 . S
C3235 H3211 0.950 . S
C3235 C3234 1.524 . S
C3235 C3236 1.415 . S
C3236 H3212 0.950 . S
C3236 C3231 1.363 . S
C3236 C3235 1.415 . S
C3237 H3213 0.951 . S
C3237 C3238 1.366 . S
C3237 C3239 1.388 . S
C3238 C3237 1.366 . S
C3238 C3242 1.385 . S
C3239 H3214 0.951 . S
C3239 C3237 1.388 . S
C3239 C3240 1.366 . S
C3240 C3239 1.366 . S
C3240 C3241 1.414 . S
C3240 C3243 1.499 . S
C3241 H3215 0.950 1_455 S
C3241 C3240 1.414 . S
C3241 C3242 1.374 . S
C3242 H3216 0.950 1_455 S
C3242 C3238 1.385 . S
C3242 C3241 1.374 . S
C3243 C3240 1.499 . S
C3243 C3244 1.373 . S
C3243 C3245 1.389 . S
C3244 H3217 0.950 1_455 S
C3244 C3230 1.380 . S
C3244 C3243 1.373 . S
C3245 C3229 1.377 . S
C3245 C3243 1.389 . S
C3245 C3246 1.524 . S
C3246 C3245 1.524 . S
C3246 C3247 1.397 . S
C3246 C3251 1.363 . S
C3247 H3218 0.950 . S
C3247 C3246 1.397 . S
C3247 C3248 1.334 . S
C3248 H3219 0.950 . S
C3248 C3247 1.334 . S
C3248 C3249 1.287 . S
C3249 C3248 1.287 . S
C3249 C3250 1.524 . S
C3249 H3252 0.999 . S
C3250 H3220 0.950 . S
C3250 C3249 1.524 . S
C3250 C3251 1.415 . S
C3251 H3221 0.950 . S
C3251 C3246 1.363 . S
C3251 C3250 1.415 . S
H3252 C3249 0.999 . S
H3253 C3234 0.913 . S
H3254 C3272 0.951 . S
H3255 C3274 0.951 . S
H3256 C3276 0.950 . S
H3257 C3277 0.950 . S
H3258 C3279 0.950 . S
H3259 C3282 0.950 . S
H3260 C3283 0.950 . S
H3261 C3285 0.950 . S
H3262 C3286 0.950 . S
H3263 C3287 0.951 . S
H3264 C3289 0.951 . S
H3265 C3291 0.950 . S
H3266 C3292 0.950 . S
H3267 C3294 0.950 . S
H3268 C3297 0.950 . S
H3269 C3298 0.950 . S
H3270 C3300 0.950 . S
H3271 C3301 0.950 . S
C3272 H3254 0.951 . S
C3272 C3273 1.366 . S
C3272 C3274 1.388 . S
C3273 C3272 1.366 . S
C3273 C3277 1.385 . S
C3274 H3255 0.951 . S
C3274 C3272 1.388 . S
C3274 C3275 1.366 . S
C3275 C3274 1.366 . S
C3275 C3276 1.414 . S
C3275 C3278 1.499 . S
C3276 H3256 0.950 . S
C3276 C3275 1.414 . S
C3276 C3277 1.374 . S
C3277 H3257 0.950 . S
C3277 C3273 1.385 . S
C3277 C3276 1.374 . S
C3278 C3275 1.499 . S
C3278 C3279 1.373 . S
C3278 C3280 1.389 . S
C3279 H3258 0.950 . S
C3279 C3278 1.373 . S
C3279 C3295 1.377 . S
C3280 C3278 1.389 . S
C3280 C3281 1.524 . S
C3280 C3294 1.377 . S
C3281 C3280 1.524 . S
C3281 C3282 1.397 . S
C3281 C3286 1.363 . S
C3282 H3259 0.950 . S
C3282 C3281 1.397 . S
C3282 C3283 1.334 . S
C3283 H3260 0.950 . S
C3283 C3282 1.334 . S
C3283 C3284 1.287 . S
C3284 C3283 1.287 . S
C3284 C3285 1.524 . S
C3284 H3303 0.913 . S
C3285 H3261 0.950 . S
C3285 C3284 1.524 . S
C3285 C3286 1.415 . S
C3286 H3262 0.950 . S
C3286 C3281 1.363 . S
C3286 C3285 1.415 . S
C3287 H3263 0.951 . S
C3287 C3288 1.366 . S
C3287 C3289 1.388 . S
C3288 C3287 1.366 . S
C3288 C3292 1.385 . S
C3289 H3264 0.951 . S
C3289 C3287 1.388 . S
C3289 C3290 1.366 . S
C3290 C3289 1.366 . S
C3290 C3291 1.414 . S
C3290 C3293 1.499 . S
C3291 H3265 0.950 . S
C3291 C3290 1.414 . S
C3291 C3292 1.374 . S
C3292 H3266 0.950 . S
C3292 C3288 1.385 . S
C3292 C3291 1.374 . S
C3293 C3290 1.499 . S
C3293 C3294 1.373 . S
C3293 C3295 1.389 . S
C3294 H3267 0.950 . S
C3294 C3280 1.377 . S
C3294 C3293 1.373 . S
C3295 C3279 1.377 . S
C3295 C3293 1.389 . S
C3295 C3296 1.524 . S
C3296 C3295 1.524 . S
C3296 C3297 1.397 . S
C3296 C3301 1.363 . S
C3297 H3268 0.950 . S
C3297 C3296 1.397 . S
C3297 C3298 1.334 . S
C3298 H3269 0.950 . S
C3298 C3297 1.334 . S
C3298 C3299 1.287 . S
C3299 C3298 1.287 . S
C3299 C3300 1.524 . S
C3299 H3302 0.999 . S
C3300 H3270 0.950 . S
C3300 C3299 1.524 . S
C3300 C3301 1.415 . S
C3301 H3271 0.950 . S
C3301 C3296 1.363 . S
C3301 C3300 1.415 . S
H3302 C3299 0.999 . S
H3303 C3284 0.913 . S
H3304 C3322 0.951 . S
H3305 C3324 0.951 . S
H3306 C3326 0.950 . S
H3307 C3327 0.950 . S
H3308 C3329 0.950 . S
H3309 C3332 0.950 . S
H3310 C3333 0.950 . S
H3311 C3335 0.950 . S
H3312 C3336 0.950 . S
H3313 C3337 0.951 . S
H3314 C3339 0.968 . S
H3315 C3341 0.950 . S
H3316 C3342 0.950 . S
H3317 C3344 0.950 . S
H3318 C3347 0.929 1_556 S
H3319 C3348 0.950 . S
H3320 C3350 0.950 . S
H3321 C3351 0.950 . S
C3322 H3304 0.951 . S
C3322 C3323 1.366 . S
C3322 C3324 1.388 . S
C3323 C3322 1.366 . S
C3323 C3327 1.385 . S
C3324 H3305 0.951 . S
C3324 C3322 1.388 . S
C3324 C3325 1.366 . S
C3325 C3324 1.366 . S
C3325 C3326 1.414 . S
C3325 C3328 1.499 . S
C3326 H3306 0.950 . S
C3326 C3325 1.414 . S
C3326 C3327 1.374 . S
C3327 H3307 0.950 . S
C3327 C3323 1.385 . S
C3327 C3326 1.374 . S
C3328 C3325 1.499 . S
C3328 C3329 1.373 . S
C3328 C3330 1.389 . S
C3329 H3308 0.950 . S
C3329 C3328 1.373 . S
C3329 C3345 1.377 . S
C3330 C3328 1.389 . S
C3330 C3331 1.524 . S
C3330 C3344 1.377 . S
C3331 C3330 1.524 . S
C3331 C3332 1.397 . S
C3331 C3336 1.363 . S
C3332 H3309 0.950 . S
C3332 C3331 1.397 . S
C3332 C3333 1.334 . S
C3333 H3310 0.950 . S
C3333 C3332 1.334 . S
C3333 C3334 1.287 . S
C3334 C3333 1.287 . S
C3334 C3335 1.524 . S
C3334 H3353 0.913 . S
C3335 H3311 0.950 . S
C3335 C3334 1.524 . S
C3335 C3336 1.415 . S
C3336 H3312 0.950 . S
C3336 C3331 1.363 . S
C3336 C3335 1.415 . S
C3337 H3313 0.951 . S
C3337 C3338 1.366 . S
C3337 C3339 1.388 1_554 S
C3338 C3337 1.366 . S
C3338 C3342 1.385 1_554 S
C3339 H3314 0.968 . S
C3339 C3337 1.388 1_556 S
C3339 C3340 1.366 . S
C3340 C3339 1.366 . S
C3340 C3341 1.414 . S
C3340 C3343 1.499 . S
C3341 H3315 0.950 . S
C3341 C3340 1.414 . S
C3341 C3342 1.374 . S
C3342 H3316 0.950 . S
C3342 C3338 1.385 1_556 S
C3342 C3341 1.374 . S
C3343 C3340 1.499 . S
C3343 C3344 1.373 . S
C3343 C3345 1.389 . S
C3344 H3317 0.950 . S
C3344 C3330 1.377 . S
C3344 C3343 1.373 . S
C3345 C3329 1.377 . S
C3345 C3343 1.389 . S
C3345 C3346 1.569 . S
C3346 C3345 1.569 . S
C3346 C3347 1.379 1_556 S
C3346 C3351 1.339 1_556 S
C3347 H3318 0.929 1_554 S
C3347 C3346 1.379 1_554 S
C3347 C3348 1.334 . S
C3348 H3319 0.950 . S
C3348 C3347 1.334 . S
C3348 C3349 1.287 . S
C3349 C3348 1.287 . S
C3349 C3350 1.524 . S
C3349 H3352 0.999 . S
C3350 H3320 0.950 . S
C3350 C3349 1.524 . S
C3350 C3351 1.415 . S
C3351 H3321 0.950 . S
C3351 C3346 1.339 1_554 S
C3351 C3350 1.415 . S
H3352 C3349 0.999 . S
H3353 C3334 0.913 . S
H3354 C3372 0.951 . S
H3355 C3374 0.951 . S
H3356 C3376 0.950 . S
H3357 C3377 0.950 . S
H3358 C3379 0.950 . S
H3359 C3382 0.950 . S
H3360 C3383 0.950 . S
H3361 C3385 0.950 . S
H3362 C3386 0.950 . S
H3363 C3387 0.951 . S
H3364 C3389 0.951 . S
H3365 C3391 0.950 . S
H3366 C3392 0.950 . S
H3367 C3394 0.950 . S
H3368 C3397 0.950 . S
H3369 C3398 0.950 . S
H3370 C3400 0.950 . S
H3371 C3401 0.950 . S
C3372 H3354 0.951 . S
C3372 C3373 1.366 . S
C3372 C3374 1.388 . S
C3373 C3372 1.366 . S
C3373 C3377 1.385 . S
C3374 H3355 0.951 . S
C3374 C3372 1.388 . S
C3374 C3375 1.366 . S
C3375 C3374 1.366 . S
C3375 C3376 1.414 . S
C3375 C3378 1.499 . S
C3376 H3356 0.950 . S
C3376 C3375 1.414 . S
C3376 C3377 1.374 . S
C3377 H3357 0.950 . S
C3377 C3373 1.385 . S
C3377 C3376 1.374 . S
C3378 C3375 1.499 . S
C3378 C3379 1.373 . S
C3378 C3380 1.389 . S
C3379 H3358 0.950 . S
C3379 C3378 1.373 . S
C3379 C3395 1.377 . S
C3380 C3378 1.389 . S
C3380 C3381 1.524 . S
C3380 C3394 1.377 . S
C3381 C3380 1.524 . S
C3381 C3382 1.397 . S
C3381 C3386 1.363 . S
C3382 H3359 0.950 . S
C3382 C3381 1.397 . S
C3382 C3383 1.334 . S
C3383 H3360 0.950 . S
C3383 C3382 1.334 . S
C3383 C3384 1.287 . S
C3384 C3383 1.287 . S
C3384 C3385 1.524 . S
C3384 H3403 0.913 . S
C3385 H3361 0.950 . S
C3385 C3384 1.524 . S
C3385 C3386 1.415 . S
C3386 H3362 0.950 . S
C3386 C3381 1.363 . S
C3386 C3385 1.415 . S
C3387 H3363 0.951 . S
C3387 C3388 1.366 . S
C3387 C3389 1.388 . S
C3388 C3387 1.366 . S
C3388 C3392 1.385 . S
C3389 H3364 0.951 . S
C3389 C3387 1.388 . S
C3389 C3390 1.366 . S
C3390 C3389 1.366 . S
C3390 C3391 1.414 . S
C3390 C3393 1.499 . S
C3391 H3365 0.950 . S
C3391 C3390 1.414 . S
C3391 C3392 1.374 . S
C3392 H3366 0.950 . S
C3392 C3388 1.385 . S
C3392 C3391 1.374 . S
C3393 C3390 1.499 . S
C3393 C3394 1.373 . S
C3393 C3395 1.389 . S
C3394 H3367 0.950 . S
C3394 C3380 1.377 . S
C3394 C3393 1.373 . S
C3395 C3379 1.377 . S
C3395 C3393 1.389 . S
C3395 C3396 1.524 . S
C3396 C3395 1.524 . S
C3396 C3397 1.397 . S
C3396 C3401 1.363 . S
C3397 H3368 0.950 . S
C3397 C3396 1.397 . S
C3397 C3398 1.334 . S
C3398 H3369 0.950 . S
C3398 C3397 1.334 . S
C3398 C3399 1.287 . S
C3399 C3398 1.287 . S
C3399 C3400 1.524 . S
C3399 H3402 0.999 . S
C3400 H3370 0.950 . S
C3400 C3399 1.524 . S
C3400 C3401 1.415 . S
C3401 H3371 0.950 . S
C3401 C3396 1.363 . S
C3401 C3400 1.415 . S
H3402 C3399 0.999 . S
H3403 C3384 0.913 . S
H3404 C3422 0.951 . S
H3405 C3424 0.951 . S
H3406 C3426 0.950 . S
H3407 C3427 0.950 . S
H3408 C3429 0.950 . S
H3409 C3432 0.950 . S
H3410 C3433 0.950 . S
H3411 C3435 0.950 . S
H3412 C3436 0.950 . S
H3413 C3437 0.951 . S
H3414 C3439 0.951 . S
H3415 C3441 0.950 . S
H3416 C3442 0.950 . S
H3417 C3444 0.950 1_655 S
H3418 C3447 0.950 . S
H3419 C3448 0.950 . S
H3420 C3450 0.950 . S
H3421 C3451 0.950 . S
C3422 H3404 0.951 . S
C3422 C3423 1.366 . S
C3422 C3424 1.388 . S
C3423 C3422 1.366 . S
C3423 C3427 1.385 . S
C3424 H3405 0.951 . S
C3424 C3422 1.388 . S
C3424 C3425 1.366 . S
C3425 C3424 1.366 . S
C3425 C3426 1.414 . S
C3425 C3428 1.499 . S
C3426 H3406 0.950 . S
C3426 C3425 1.414 . S
C3426 C3427 1.374 . S
C3427 H3407 0.950 . S
C3427 C3423 1.385 . S
C3427 C3426 1.374 . S
C3428 C3425 1.499 . S
C3428 C3429 1.373 . S
C3428 C3430 1.385 1_455 S
C3429 H3408 0.950 . S
C3429 C3428 1.373 . S
C3429 C3445 1.377 . S
C3430 C3428 1.385 1_655 S
C3430 C3431 1.530 . S
C3430 C3444 1.375 1_655 S
C3431 C3430 1.530 . S
C3431 C3432 1.397 . S
C3431 C3436 1.363 . S
C3432 H3409 0.950 . S
C3432 C3431 1.397 . S
C3432 C3433 1.334 . S
C3433 H3410 0.950 . S
C3433 C3432 1.334 . S
C3433 C3434 1.287 . S
C3434 C3433 1.287 . S
C3434 C3435 1.524 . S
C3434 H3453 0.913 . S
C3435 H3411 0.950 . S
C3435 C3434 1.524 . S
C3435 C3436 1.415 . S
C3436 H3412 0.950 . S
C3436 C3431 1.363 . S
C3436 C3435 1.415 . S
C3437 H3413 0.951 . S
C3437 C3438 1.366 . S
C3437 C3439 1.388 . S
C3438 C3437 1.366 . S
C3438 C3442 1.385 . S
C3439 H3414 0.951 . S
C3439 C3437 1.388 . S
C3439 C3440 1.366 . S
C3440 C3439 1.366 . S
C3440 C3441 1.414 . S
C3440 C3443 1.499 . S
C3441 H3415 0.950 . S
C3441 C3440 1.414 . S
C3441 C3442 1.374 . S
C3442 H3416 0.950 . S
C3442 C3438 1.385 . S
C3442 C3441 1.374 . S
C3443 C3440 1.499 . S
C3443 C3444 1.373 . S
C3443 C3445 1.389 . S
C3444 H3417 0.950 1_455 S
C3444 C3430 1.375 1_455 S
C3444 C3443 1.373 . S
C3445 C3429 1.377 . S
C3445 C3443 1.389 . S
C3445 C3446 1.524 . S
C3446 C3445 1.524 . S
C3446 C3447 1.397 . S
C3446 C3451 1.363 . S
C3447 H3418 0.950 . S
C3447 C3446 1.397 . S
C3447 C3448 1.334 . S
C3448 H3419 0.950 . S
C3448 C3447 1.334 . S
C3448 C3449 1.287 . S
C3449 C3448 1.287 . S
C3449 C3450 1.524 . S
C3449 H3452 0.999 . S
C3450 H3420 0.950 . S
C3450 C3449 1.524 . S
C3450 C3451 1.415 . S
C3451 H3421 0.950 . S
C3451 C3446 1.363 . S
C3451 C3450 1.415 . S
H3452 C3449 0.999 . S
H3453 C3434 0.913 . S
H3454 C3472 0.951 . S
H3455 C3474 0.951 . S
H3456 C3476 0.950 . S
H3457 C3477 0.950 . S
H3458 C3479 0.950 . S
H3459 C3482 0.950 . S
H3460 C3483 0.950 . S
H3461 C3485 0.950 . S
H3462 C3486 0.950 . S
H3463 C3487 0.951 . S
H3464 C3489 0.951 . S
H3465 C3491 0.950 . S
H3466 C3492 0.950 . S
H3467 C3494 0.950 . S
H3468 C3497 0.950 . S
H3469 C3498 0.950 . S
H3470 C3500 0.950 . S
H3471 C3501 0.950 . S
C3472 H3454 0.951 . S
C3472 C3473 1.366 . S
C3472 C3474 1.388 . S
C3473 C3472 1.366 . S
C3473 C3477 1.385 . S
C3474 H3455 0.951 . S
C3474 C3472 1.388 . S
C3474 C3475 1.366 . S
C3475 C3474 1.366 . S
C3475 C3476 1.414 . S
C3475 C3478 1.499 . S
C3476 H3456 0.950 . S
C3476 C3475 1.414 . S
C3476 C3477 1.374 . S
C3477 H3457 0.950 . S
C3477 C3473 1.385 . S
C3477 C3476 1.374 . S
C3478 C3475 1.499 . S
C3478 C3479 1.373 . S
C3478 C3480 1.389 . S
C3479 H3458 0.950 . S
C3479 C3478 1.373 . S
C3479 C3495 1.377 . S
C3480 C3478 1.389 . S
C3480 C3481 1.524 . S
C3480 C3494 1.377 . S
C3481 C3480 1.524 . S
C3481 C3482 1.397 . S
C3481 C3486 1.363 . S
C3482 H3459 0.950 . S
C3482 C3481 1.397 . S
C3482 C3483 1.334 . S
C3483 H3460 0.950 . S
C3483 C3482 1.334 . S
C3483 C3484 1.287 . S
C3484 C3483 1.287 . S
C3484 C3485 1.524 . S
C3484 H3503 0.913 . S
C3485 H3461 0.950 . S
C3485 C3484 1.524 . S
C3485 C3486 1.415 . S
C3486 H3462 0.950 . S
C3486 C3481 1.363 . S
C3486 C3485 1.415 . S
C3487 H3463 0.951 . S
C3487 C3488 1.366 . S
C3487 C3489 1.388 . S
C3488 C3487 1.366 . S
C3488 C3492 1.385 . S
C3489 H3464 0.951 . S
C3489 C3487 1.388 . S
C3489 C3490 1.366 . S
C3490 C3489 1.366 . S
C3490 C3491 1.414 . S
C3490 C3493 1.499 . S
C3491 H3465 0.950 . S
C3491 C3490 1.414 . S
C3491 C3492 1.374 . S
C3492 H3466 0.950 . S
C3492 C3488 1.385 . S
C3492 C3491 1.374 . S
C3493 C3490 1.499 . S
C3493 C3494 1.373 . S
C3493 C3495 1.389 . S
C3494 H3467 0.950 . S
C3494 C3480 1.377 . S
C3494 C3493 1.373 . S
C3495 C3479 1.377 . S
C3495 C3493 1.389 . S
C3495 C3496 1.524 . S
C3496 C3495 1.524 . S
C3496 C3497 1.397 . S
C3496 C3501 1.363 . S
C3497 H3468 0.950 . S
C3497 C3496 1.397 . S
C3497 C3498 1.334 . S
C3498 H3469 0.950 . S
C3498 C3497 1.334 . S
C3498 C3499 1.287 . S
C3499 C3498 1.287 . S
C3499 C3500 1.524 . S
C3499 H3502 0.999 . S
C3500 H3470 0.950 . S
C3500 C3499 1.524 . S
C3500 C3501 1.415 . S
C3501 H3471 0.950 . S
C3501 C3496 1.363 . S
C3501 C3500 1.415 . S
H3502 C3499 0.999 . S
H3503 C3484 0.913 . S
H3504 C3522 0.951 . S
H3505 C3524 0.951 . S
H3506 C3526 0.950 . S
H3507 C3527 0.950 . S
H3508 C3529 0.950 . S
H3509 C3532 0.950 . S
H3510 C3533 0.950 . S
H3511 C3535 0.950 . S
H3512 C3536 0.950 . S
H3513 C3537 0.951 . S
H3514 C3539 0.951 . S
H3515 C3541 0.950 . S
H3516 C3542 0.950 . S
H3517 C3544 0.950 . S
H3518 C3547 0.950 . S
H3519 C3548 0.950 . S
H3520 C3550 0.950 . S
H3521 C3551 0.950 . S
C3522 H3504 0.951 . S
C3522 C3523 1.366 . S
C3522 C3524 1.388 . S
C3523 C3522 1.366 . S
C3523 C3527 1.385 . S
C3524 H3505 0.951 . S
C3524 C3522 1.388 . S
C3524 C3525 1.366 . S
C3525 C3524 1.366 . S
C3525 C3526 1.414 . S
C3525 C3528 1.499 . S
C3526 H3506 0.950 . S
C3526 C3525 1.414 . S
C3526 C3527 1.374 . S
C3527 H3507 0.950 . S
C3527 C3523 1.385 . S
C3527 C3526 1.374 . S
C3528 C3525 1.499 . S
C3528 C3529 1.373 . S
C3528 C3530 1.389 . S
C3529 H3508 0.950 . S
C3529 C3528 1.373 . S
C3529 C3545 1.377 . S
C3530 C3528 1.389 . S
C3530 C3531 1.524 . S
C3530 C3544 1.377 . S
C3531 C3530 1.524 . S
C3531 C3532 1.397 . S
C3531 C3536 1.363 . S
C3532 H3509 0.950 . S
C3532 C3531 1.397 . S
C3532 C3533 1.334 . S
C3533 H3510 0.950 . S
C3533 C3532 1.334 . S
C3533 C3534 1.287 . S
C3534 C3533 1.287 . S
C3534 C3535 1.524 . S
C3534 H3553 0.913 . S
C3535 H3511 0.950 . S
C3535 C3534 1.524 . S
C3535 C3536 1.415 . S
C3536 H3512 0.950 . S
C3536 C3531 1.363 . S
C3536 C3535 1.415 . S
C3537 H3513 0.951 . S
C3537 C3538 1.366 . S
C3537 C3539 1.388 . S
C3538 C3537 1.366 . S
C3538 C3542 1.385 . S
C3539 H3514 0.951 . S
C3539 C3537 1.388 . S
C3539 C3540 1.366 . S
C3540 C3539 1.366 . S
C3540 C3541 1.414 . S
C3540 C3543 1.499 . S
C3541 H3515 0.950 . S
C3541 C3540 1.414 . S
C3541 C3542 1.374 . S
C3542 H3516 0.950 . S
C3542 C3538 1.385 . S
C3542 C3541 1.374 . S
C3543 C3540 1.499 . S
C3543 C3544 1.373 . S
C3543 C3545 1.389 . S
C3544 H3517 0.950 . S
C3544 C3530 1.377 . S
C3544 C3543 1.373 . S
C3545 C3529 1.377 . S
C3545 C3543 1.389 . S
C3545 C3546 1.524 . S
C3546 C3545 1.524 . S
C3546 C3547 1.397 . S
C3546 C3551 1.363 . S
C3547 H3518 0.950 . S
C3547 C3546 1.397 . S
C3547 C3548 1.334 . S
C3548 H3519 0.950 . S
C3548 C3547 1.334 . S
C3548 C3549 1.287 . S
C3549 C3548 1.287 . S
C3549 C3550 1.524 . S
C3549 H3552 0.999 . S
C3550 H3520 0.950 . S
C3550 C3549 1.524 . S
C3550 C3551 1.415 . S
C3551 H3521 0.950 . S
C3551 C3546 1.363 . S
C3551 C3550 1.415 . S
H3552 C3549 0.999 . S
H3553 C3534 0.913 . S
H3554 C3572 0.951 . S
H3555 C3574 0.951 . S
H3556 C3576 0.950 . S
H3557 C3577 0.950 . S
H3558 C3579 0.950 . S
H3559 C3582 0.950 . S
H3560 C3583 0.950 . S
H3561 C3585 0.950 . S
H3562 C3586 0.950 . S
H3563 C3587 0.951 . S
H3564 C3589 0.951 . S
H3565 C3591 0.950 . S
H3566 C3592 0.950 . S
H3567 C3594 0.950 . S
H3568 C3597 0.950 . S
H3569 C3598 0.950 . S
H3570 C3600 0.950 . S
H3571 C3601 0.950 . S
C3572 H3554 0.951 . S
C3572 C3573 1.366 . S
C3572 C3574 1.388 . S
C3573 C3572 1.366 . S
C3573 C3577 1.385 . S
C3574 H3555 0.951 . S
C3574 C3572 1.388 . S
C3574 C3575 1.366 . S
C3575 C3574 1.366 . S
C3575 C3576 1.414 . S
C3575 C3578 1.499 . S
C3576 H3556 0.950 . S
C3576 C3575 1.414 . S
C3576 C3577 1.374 . S
C3577 H3557 0.950 . S
C3577 C3573 1.385 . S
C3577 C3576 1.374 . S
C3578 C3575 1.499 . S
C3578 C3579 1.373 . S
C3578 C3580 1.389 . S
C3579 H3558 0.950 . S
C3579 C3578 1.373 . S
C3579 C3595 1.377 . S
C3580 C3578 1.389 . S
C3580 C3581 1.524 . S
C3580 C3594 1.377 . S
C3581 C3580 1.524 . S
C3581 C3582 1.397 . S
C3581 C3586 1.363 . S
C3582 H3559 0.950 . S
C3582 C3581 1.397 . S
C3582 C3583 1.334 . S
C3583 H3560 0.950 . S
C3583 C3582 1.334 . S
C3583 C3584 1.287 . S
C3584 C3583 1.287 . S
C3584 C3585 1.524 . S
C3584 H3603 0.913 . S
C3585 H3561 0.950 . S
C3585 C3584 1.524 . S
C3585 C3586 1.415 . S
C3586 H3562 0.950 . S
C3586 C3581 1.363 . S
C3586 C3585 1.415 . S
C3587 H3563 0.951 . S
C3587 C3588 1.366 . S
C3587 C3589 1.388 . S
C3588 C3587 1.366 . S
C3588 C3592 1.385 . S
C3589 H3564 0.951 . S
C3589 C3587 1.388 . S
C3589 C3590 1.366 . S
C3590 C3589 1.366 . S
C3590 C3591 1.414 . S
C3590 C3593 1.499 . S
C3591 H3565 0.950 . S
C3591 C3590 1.414 . S
C3591 C3592 1.374 . S
C3592 H3566 0.950 . S
C3592 C3588 1.385 . S
C3592 C3591 1.374 . S
C3593 C3590 1.499 . S
C3593 C3594 1.373 . S
C3593 C3595 1.389 . S
C3594 H3567 0.950 . S
C3594 C3580 1.377 . S
C3594 C3593 1.373 . S
C3595 C3579 1.377 . S
C3595 C3593 1.389 . S
C3595 C3596 1.524 . S
C3596 C3595 1.524 . S
C3596 C3597 1.397 . S
C3596 C3601 1.363 . S
C3597 H3568 0.950 . S
C3597 C3596 1.397 . S
C3597 C3598 1.334 . S
C3598 H3569 0.950 . S
C3598 C3597 1.334 . S
C3598 C3599 1.287 . S
C3599 C3598 1.287 . S
C3599 C3600 1.524 . S
C3599 H3602 0.999 . S
C3600 H3570 0.950 . S
C3600 C3599 1.524 . S
C3600 C3601 1.415 . S
C3601 H3571 0.950 . S
C3601 C3596 1.363 . S
C3601 C3600 1.415 . S
H3602 C3599 0.999 . S
H3603 C3584 0.913 . S
H3604 C3622 0.951 . S
H3605 C3624 0.951 . S
H3606 C3626 0.950 . S
H3607 C3627 0.950 . S
H3608 C3629 0.950 . S
H3609 C3632 0.950 . S
H3610 C3633 0.950 . S
H3611 C3635 0.950 . S
H3612 C3636 0.950 . S
H3613 C3637 0.951 . S
H3614 C3639 0.951 . S
H3615 C3641 0.950 . S
H3616 C3642 0.950 . S
H3617 C3644 0.950 . S
H3618 C3647 0.950 . S
H3619 C3648 0.950 . S
H3620 C3650 0.950 . S
H3621 C3651 0.950 . S
C3622 H3604 0.951 . S
C3622 C3623 1.366 . S
C3622 C3624 1.388 . S
C3623 C3622 1.366 . S
C3623 C3627 1.385 . S
C3624 H3605 0.951 . S
C3624 C3622 1.388 . S
C3624 C3625 1.366 . S
C3625 C3624 1.366 . S
C3625 C3626 1.414 . S
C3625 C3628 1.499 . S
C3626 H3606 0.950 . S
C3626 C3625 1.414 . S
C3626 C3627 1.374 . S
C3627 H3607 0.950 . S
C3627 C3623 1.385 . S
C3627 C3626 1.374 . S
C3628 C3625 1.499 . S
C3628 C3629 1.373 . S
C3628 C3630 1.389 . S
C3629 H3608 0.950 . S
C3629 C3628 1.373 . S
C3629 C3645 1.377 . S
C3630 C3628 1.389 . S
C3630 C3631 1.524 . S
C3630 C3644 1.377 . S
C3631 C3630 1.524 . S
C3631 C3632 1.397 . S
C3631 C3636 1.363 . S
C3632 H3609 0.950 . S
C3632 C3631 1.397 . S
C3632 C3633 1.334 . S
C3633 H3610 0.950 . S
C3633 C3632 1.334 . S
C3633 C3634 1.287 . S
C3634 C3633 1.287 . S
C3634 C3635 1.524 . S
C3634 H3653 0.913 . S
C3635 H3611 0.950 . S
C3635 C3634 1.524 . S
C3635 C3636 1.415 . S
C3636 H3612 0.950 . S
C3636 C3631 1.363 . S
C3636 C3635 1.415 . S
C3637 H3613 0.951 . S
C3637 C3638 1.366 . S
C3637 C3639 1.388 . S
C3638 C3637 1.366 . S
C3638 C3642 1.385 . S
C3639 H3614 0.951 . S
C3639 C3637 1.388 . S
C3639 C3640 1.366 . S
C3640 C3639 1.366 . S
C3640 C3641 1.414 . S
C3640 C3643 1.499 . S
C3641 H3615 0.950 . S
C3641 C3640 1.414 . S
C3641 C3642 1.374 . S
C3642 H3616 0.950 . S
C3642 C3638 1.385 . S
C3642 C3641 1.374 . S
C3643 C3640 1.499 . S
C3643 C3644 1.373 . S
C3643 C3645 1.389 . S
C3644 H3617 0.950 . S
C3644 C3630 1.377 . S
C3644 C3643 1.373 . S
C3645 C3629 1.377 . S
C3645 C3643 1.389 . S
C3645 C3646 1.524 . S
C3646 C3645 1.524 . S
C3646 C3647 1.397 . S
C3646 C3651 1.363 . S
C3647 H3618 0.950 . S
C3647 C3646 1.397 . S
C3647 C3648 1.334 1_655 S
C3648 H3619 0.950 . S
C3648 C3647 1.334 1_455 S
C3648 C3649 1.287 1_455 S
C3649 C3648 1.287 1_655 S
C3649 C3650 1.524 . S
C3649 H3652 0.999 1_655 S
C3650 H3620 0.950 . S
C3650 C3649 1.524 . S
C3650 C3651 1.415 . S
C3651 H3621 0.950 . S
C3651 C3646 1.363 . S
C3651 C3650 1.415 . S
H3652 C3649 0.999 1_455 S
H3653 C3634 0.913 . S
H3654 C3672 0.951 . S
H3655 C3674 0.951 . S
H3656 C3676 0.950 . S
H3657 C3677 0.950 . S
H3658 C3679 0.950 . S
H3659 C3682 0.950 . S
H3660 C3683 0.950 . S
H3661 C3685 0.950 . S
H3662 C3686 0.950 . S
H3663 C3687 0.951 . S
H3664 C3689 0.951 . S
H3665 C3691 0.950 . S
H3666 C3692 0.950 . S
H3667 C3694 0.950 . S
H3668 C3697 0.950 . S
H3669 C3698 0.950 . S
H3670 C3700 0.950 . S
H3671 C3701 0.950 . S
C3672 H3654 0.951 . S
C3672 C3673 1.366 . S
C3672 C3674 1.388 . S
C3673 C3672 1.366 . S
C3673 C3677 1.385 . S
C3674 H3655 0.951 . S
C3674 C3672 1.388 . S
C3674 C3675 1.366 . S
C3675 C3674 1.366 . S
C3675 C3676 1.414 . S
C3675 C3678 1.499 . S
C3676 H3656 0.950 . S
C3676 C3675 1.414 . S
C3676 C3677 1.374 . S
C3677 H3657 0.950 . S
C3677 C3673 1.385 . S
C3677 C3676 1.374 . S
C3678 C3675 1.499 . S
C3678 C3679 1.373 . S
C3678 C3680 1.389 . S
C3679 H3658 0.950 . S
C3679 C3678 1.373 . S
C3679 C3695 1.377 . S
C3680 C3678 1.389 . S
C3680 C3681 1.524 . S
C3680 C3694 1.377 . S
C3681 C3680 1.524 . S
C3681 C3682 1.397 . S
C3681 C3686 1.363 . S
C3682 H3659 0.950 . S
C3682 C3681 1.397 . S
C3682 C3683 1.334 . S
C3683 H3660 0.950 . S
C3683 C3682 1.334 . S
C3683 C3684 1.287 . S
C3684 C3683 1.287 . S
C3684 C3685 1.524 . S
C3684 H3703 0.913 . S
C3685 H3661 0.950 . S
C3685 C3684 1.524 . S
C3685 C3686 1.415 . S
C3686 H3662 0.950 . S
C3686 C3681 1.363 . S
C3686 C3685 1.415 . S
C3687 H3663 0.951 . S
C3687 C3688 1.366 . S
C3687 C3689 1.388 . S
C3688 C3687 1.366 . S
C3688 C3692 1.385 . S
C3689 H3664 0.951 . S
C3689 C3687 1.388 . S
C3689 C3690 1.366 . S
C3690 C3689 1.366 . S
C3690 C3691 1.414 . S
C3690 C3693 1.499 . S
C3691 H3665 0.950 . S
C3691 C3690 1.414 . S
C3691 C3692 1.374 . S
C3692 H3666 0.950 . S
C3692 C3688 1.385 . S
C3692 C3691 1.374 . S
C3693 C3690 1.499 . S
C3693 C3694 1.373 . S
C3693 C3695 1.389 . S
C3694 H3667 0.950 . S
C3694 C3680 1.377 . S
C3694 C3693 1.373 . S
C3695 C3679 1.377 . S
C3695 C3693 1.389 . S
C3695 C3696 1.524 . S
C3696 C3695 1.524 . S
C3696 C3697 1.397 . S
C3696 C3701 1.363 . S
C3697 H3668 0.950 . S
C3697 C3696 1.397 . S
C3697 C3698 1.334 . S
C3698 H3669 0.950 . S
C3698 C3697 1.334 . S
C3698 C3699 1.287 . S
C3699 C3698 1.287 . S
C3699 C3700 1.524 . S
C3699 H3702 0.999 . S
C3700 H3670 0.950 . S
C3700 C3699 1.524 . S
C3700 C3701 1.415 . S
C3701 H3671 0.950 . S
C3701 C3696 1.363 . S
C3701 C3700 1.415 . S
H3702 C3699 0.999 . S
H3703 C3684 0.913 . S
H3704 C3722 0.951 . S
H3705 C3724 0.951 . S
H3706 C3726 0.950 . S
H3707 C3727 0.950 . S
H3708 C3729 0.950 . S
H3709 C3732 0.950 . S
H3710 C3733 0.950 . S
H3711 C3735 0.950 . S
H3712 C3736 0.950 . S
H3713 C3737 0.951 . S
H3714 C3739 0.951 . S
H3715 C3741 0.950 . S
H3716 C3742 0.950 . S
H3717 C3744 0.950 . S
H3718 C3747 0.950 . S
H3719 C3748 0.950 . S
H3720 C3750 0.950 . S
H3721 C3751 0.950 . S
C3722 H3704 0.951 . S
C3722 C3723 1.366 . S
C3722 C3724 1.388 . S
C3723 C3722 1.366 . S
C3723 C3727 1.385 . S
C3724 H3705 0.951 . S
C3724 C3722 1.388 . S
C3724 C3725 1.366 . S
C3725 C3724 1.366 . S
C3725 C3726 1.414 . S
C3725 C3728 1.499 . S
C3726 H3706 0.950 . S
C3726 C3725 1.414 . S
C3726 C3727 1.374 . S
C3727 H3707 0.950 . S
C3727 C3723 1.385 . S
C3727 C3726 1.374 . S
C3728 C3725 1.499 . S
C3728 C3729 1.373 . S
C3728 C3730 1.389 . S
C3729 H3708 0.950 . S
C3729 C3728 1.373 . S
C3729 C3745 1.377 . S
C3730 C3728 1.389 . S
C3730 C3731 1.524 . S
C3730 C3744 1.377 . S
C3731 C3730 1.524 . S
C3731 C3732 1.397 . S
C3731 C3736 1.363 . S
C3732 H3709 0.950 . S
C3732 C3731 1.397 . S
C3732 C3733 1.334 . S
C3733 H3710 0.950 . S
C3733 C3732 1.334 . S
C3733 C3734 1.287 . S
C3734 C3733 1.287 . S
C3734 C3735 1.524 . S
C3734 H3753 0.913 . S
C3735 H3711 0.950 . S
C3735 C3734 1.524 . S
C3735 C3736 1.415 . S
C3736 H3712 0.950 . S
C3736 C3731 1.363 . S
C3736 C3735 1.415 . S
C3737 H3713 0.951 . S
C3737 C3738 1.366 . S
C3737 C3739 1.388 . S
C3738 C3737 1.366 . S
C3738 C3742 1.385 . S
C3739 H3714 0.951 . S
C3739 C3737 1.388 . S
C3739 C3740 1.366 . S
C3740 C3739 1.366 . S
C3740 C3741 1.414 . S
C3740 C3743 1.499 . S
C3741 H3715 0.950 . S
C3741 C3740 1.414 . S
C3741 C3742 1.374 . S
C3742 H3716 0.950 . S
C3742 C3738 1.385 . S
C3742 C3741 1.374 . S
C3743 C3740 1.499 . S
C3743 C3744 1.373 . S
C3743 C3745 1.389 . S
C3744 H3717 0.950 . S
C3744 C3730 1.377 . S
C3744 C3743 1.373 . S
C3745 C3729 1.377 . S
C3745 C3743 1.389 . S
C3745 C3746 1.524 . S
C3746 C3745 1.524 . S
C3746 C3747 1.397 . S
C3746 C3751 1.363 . S
C3747 H3718 0.950 . S
C3747 C3746 1.397 . S
C3747 C3748 1.334 . S
C3748 H3719 0.950 . S
C3748 C3747 1.334 . S
C3748 C3749 1.287 . S
C3749 C3748 1.287 . S
C3749 C3750 1.524 . S
C3749 H3752 0.999 . S
C3750 H3720 0.950 . S
C3750 C3749 1.524 . S
C3750 C3751 1.415 . S
C3751 H3721 0.950 . S
C3751 C3746 1.363 . S
C3751 C3750 1.415 . S
H3752 C3749 0.999 . S
H3753 C3734 0.913 . S
H3754 C3772 0.951 . S
H3755 C3774 0.951 . S
H3756 C3776 0.950 . S
H3757 C3777 0.950 . S
H3758 C3779 0.950 . S
H3759 C3782 0.950 . S
H3760 C3783 0.950 . S
H3761 C3785 0.950 . S
H3762 C3786 0.950 . S
H3763 C3787 0.951 . S
H3764 C3789 0.951 . S
H3765 C3791 0.950 . S
H3766 C3792 0.950 . S
H3767 C3794 0.950 . S
H3768 C3797 0.950 . S
H3769 C3798 0.950 . S
H3770 C3800 0.950 . S
H3771 C3801 0.950 . S
C3772 H3754 0.951 . S
C3772 C3773 1.366 . S
C3772 C3774 1.388 . S
C3773 C3772 1.366 . S
C3773 C3777 1.385 . S
C3774 H3755 0.951 . S
C3774 C3772 1.388 . S
C3774 C3775 1.366 . S
C3775 C3774 1.366 . S
C3775 C3776 1.414 . S
C3775 C3778 1.499 . S
C3776 H3756 0.950 . S
C3776 C3775 1.414 . S
C3776 C3777 1.374 . S
C3777 H3757 0.950 . S
C3777 C3773 1.385 . S
C3777 C3776 1.374 . S
C3778 C3775 1.499 . S
C3778 C3779 1.373 . S
C3778 C3780 1.389 . S
C3779 H3758 0.950 . S
C3779 C3778 1.373 . S
C3779 C3795 1.377 . S
C3780 C3778 1.389 . S
C3780 C3781 1.524 . S
C3780 C3794 1.377 . S
C3781 C3780 1.524 . S
C3781 C3782 1.397 . S
C3781 C3786 1.363 . S
C3782 H3759 0.950 . S
C3782 C3781 1.397 . S
C3782 C3783 1.334 . S
C3783 H3760 0.950 . S
C3783 C3782 1.334 . S
C3783 C3784 1.287 . S
C3784 C3783 1.287 . S
C3784 C3785 1.524 . S
C3784 H3803 0.913 . S
C3785 H3761 0.950 . S
C3785 C3784 1.524 . S
C3785 C3786 1.415 . S
C3786 H3762 0.950 . S
C3786 C3781 1.363 . S
C3786 C3785 1.415 . S
C3787 H3763 0.951 . S
C3787 C3788 1.366 . S
C3787 C3789 1.388 . S
C3788 C3787 1.366 . S
C3788 C3792 1.385 . S
C3789 H3764 0.951 . S
C3789 C3787 1.388 . S
C3789 C3790 1.366 . S
C3790 C3789 1.366 . S
C3790 C3791 1.414 . S
C3790 C3793 1.499 . S
C3791 H3765 0.950 . S
C3791 C3790 1.414 . S
C3791 C3792 1.374 . S
C3792 H3766 0.950 . S
C3792 C3788 1.385 . S
C3792 C3791 1.374 . S
C3793 C3790 1.499 . S
C3793 C3794 1.373 . S
C3793 C3795 1.389 . S
C3794 H3767 0.950 . S
C3794 C3780 1.377 . S
C3794 C3793 1.373 . S
C3795 C3779 1.377 . S
C3795 C3793 1.389 . S
C3795 C3796 1.524 . S
C3796 C3795 1.524 . S
C3796 C3797 1.397 . S
C3796 C3801 1.363 . S
C3797 H3768 0.950 . S
C3797 C3796 1.397 . S
C3797 C3798 1.334 . S
C3798 H3769 0.950 . S
C3798 C3797 1.334 . S
C3798 C3799 1.287 . S
C3799 C3798 1.287 . S
C3799 C3800 1.524 . S
C3799 H3802 0.999 . S
C3800 H3770 0.950 . S
C3800 C3799 1.524 . S
C3800 C3801 1.415 . S
C3801 H3771 0.950 . S
C3801 C3796 1.363 . S
C3801 C3800 1.415 . S
H3802 C3799 0.999 . S
H3803 C3784 0.913 . S
H3804 C3822 0.951 . S
H3805 C3824 0.951 . S
H3806 C3826 0.950 . S
H3807 C3827 0.950 . S
H3808 C3829 0.950 . S
H3809 C3832 0.950 . S
H3810 C3833 0.950 . S
H3811 C3835 0.950 . S
H3812 C3836 0.950 . S
H3813 C3837 0.951 . S
H3814 C3839 0.951 . S
H3815 C3841 0.950 . S
H3816 C3842 0.950 . S
H3817 C3844 0.950 . S
H3818 C3847 0.950 . S
H3819 C3848 0.950 . S
H3820 C3850 0.950 . S
H3821 C3851 0.950 . S
C3822 H3804 0.951 . S
C3822 C3823 1.366 . S
C3822 C3824 1.388 . S
C3823 C3822 1.366 . S
C3823 C3827 1.385 . S
C3824 H3805 0.951 . S
C3824 C3822 1.388 . S
C3824 C3825 1.366 . S
C3825 C3824 1.366 . S
C3825 C3826 1.414 . S
C3825 C3828 1.499 . S
C3826 H3806 0.950 . S
C3826 C3825 1.414 . S
C3826 C3827 1.374 . S
C3827 H3807 0.950 . S
C3827 C3823 1.385 . S
C3827 C3826 1.374 . S
C3828 C3825 1.499 . S
C3828 C3829 1.373 . S
C3828 C3830 1.389 . S
C3829 H3808 0.950 . S
C3829 C3828 1.373 . S
C3829 C3845 1.377 . S
C3830 C3828 1.389 . S
C3830 C3831 1.524 . S
C3830 C3844 1.377 . S
C3831 C3830 1.524 . S
C3831 C3832 1.397 . S
C3831 C3836 1.363 . S
C3832 H3809 0.950 . S
C3832 C3831 1.397 . S
C3832 C3833 1.334 . S
C3833 H3810 0.950 . S
C3833 C3832 1.334 . S
C3833 C3834 1.287 . S
C3834 C3833 1.287 . S
C3834 C3835 1.524 . S
C3834 H3853 0.913 . S
C3835 H3811 0.950 . S
C3835 C3834 1.524 . S
C3835 C3836 1.415 . S
C3836 H3812 0.950 . S
C3836 C3831 1.363 . S
C3836 C3835 1.415 . S
C3837 H3813 0.951 . S
C3837 C3838 1.366 . S
C3837 C3839 1.388 . S
C3838 C3837 1.366 . S
C3838 C3842 1.385 . S
C3839 H3814 0.951 . S
C3839 C3837 1.388 . S
C3839 C3840 1.366 . S
C3840 C3839 1.366 . S
C3840 C3841 1.414 . S
C3840 C3843 1.499 . S
C3841 H3815 0.950 . S
C3841 C3840 1.414 . S
C3841 C3842 1.374 . S
C3842 H3816 0.950 . S
C3842 C3838 1.385 . S
C3842 C3841 1.374 . S
C3843 C3840 1.499 . S
C3843 C3844 1.373 . S
C3843 C3845 1.389 . S
C3844 H3817 0.950 . S
C3844 C3830 1.377 . S
C3844 C3843 1.373 . S
C3845 C3829 1.377 . S
C3845 C3843 1.389 . S
C3845 C3846 1.524 . S
C3846 C3845 1.524 . S
C3846 C3847 1.397 . S
C3846 C3851 1.363 . S
C3847 H3818 0.950 . S
C3847 C3846 1.397 . S
C3847 C3848 1.334 1_655 S
C3848 H3819 0.950 . S
C3848 C3847 1.334 1_455 S
C3848 C3849 1.287 . S
C3849 C3848 1.287 . S
C3849 C3850 1.524 . S
C3849 H3852 0.999 . S
C3850 H3820 0.950 . S
C3850 C3849 1.524 . S
C3850 C3851 1.415 1_455 S
C3851 H3821 0.950 . S
C3851 C3846 1.363 . S
C3851 C3850 1.415 1_655 S
H3852 C3849 0.999 . S
H3853 C3834 0.913 . S
H3854 C3872 0.951 . S
H3855 C3874 0.951 . S
H3856 C3876 0.950 . S
H3857 C3877 0.950 . S
H3858 C3879 0.950 . S
H3859 C3882 0.950 . S
H3860 C3883 0.950 . S
H3861 C3885 0.950 . S
H3862 C3886 0.950 . S
H3863 C3887 0.951 . S
H3864 C3889 0.951 . S
H3865 C3891 0.950 . S
H3866 C3892 0.950 . S
H3867 C3894 0.950 . S
H3868 C3897 0.950 . S
H3869 C3898 0.950 . S
H3870 C3900 0.950 . S
H3871 C3901 0.950 . S
C3872 H3854 0.951 . S
C3872 C3873 1.366 . S
C3872 C3874 1.388 . S
C3873 C3872 1.366 . S
C3873 C3877 1.385 . S
C3874 H3855 0.951 . S
C3874 C3872 1.388 . S
C3874 C3875 1.366 . S
C3875 C3874 1.366 . S
C3875 C3876 1.414 . S
C3875 C3878 1.499 . S
C3876 H3856 0.950 . S
C3876 C3875 1.414 . S
C3876 C3877 1.374 . S
C3877 H3857 0.950 . S
C3877 C3873 1.385 . S
C3877 C3876 1.374 . S
C3878 C3875 1.499 . S
C3878 C3879 1.373 . S
C3878 C3880 1.389 . S
C3879 H3858 0.950 . S
C3879 C3878 1.373 . S
C3879 C3895 1.377 . S
C3880 C3878 1.389 . S
C3880 C3881 1.524 . S
C3880 C3894 1.377 . S
C3881 C3880 1.524 . S
C3881 C3882 1.397 . S
C3881 C3886 1.363 . S
C3882 H3859 0.950 . S
C3882 C3881 1.397 . S
C3882 C3883 1.334 . S
C3883 H3860 0.950 . S
C3883 C3882 1.334 . S
C3883 C3884 1.287 . S
C3884 C3883 1.287 . S
C3884 C3885 1.524 . S
C3884 H3903 0.913 . S
C3885 H3861 0.950 . S
C3885 C3884 1.524 . S
C3885 C3886 1.415 . S
C3886 H3862 0.950 . S
C3886 C3881 1.363 . S
C3886 C3885 1.415 . S
C3887 H3863 0.951 . S
C3887 C3888 1.366 . S
C3887 C3889 1.388 . S
C3888 C3887 1.366 . S
C3888 C3892 1.385 . S
C3889 H3864 0.951 . S
C3889 C3887 1.388 . S
C3889 C3890 1.366 . S
C3890 C3889 1.366 . S
C3890 C3891 1.414 . S
C3890 C3893 1.499 . S
C3891 H3865 0.950 . S
C3891 C3890 1.414 . S
C3891 C3892 1.374 . S
C3892 H3866 0.950 . S
C3892 C3888 1.385 . S
C3892 C3891 1.374 . S
C3893 C3890 1.499 . S
C3893 C3894 1.373 . S
C3893 C3895 1.389 . S
C3894 H3867 0.950 . S
C3894 C3880 1.377 . S
C3894 C3893 1.373 . S
C3895 C3879 1.377 . S
C3895 C3893 1.389 . S
C3895 C3896 1.524 . S
C3896 C3895 1.524 . S
C3896 C3897 1.397 . S
C3896 C3901 1.363 . S
C3897 H3868 0.950 . S
C3897 C3896 1.397 . S
C3897 C3898 1.334 . S
C3898 H3869 0.950 . S
C3898 C3897 1.334 . S
C3898 C3899 1.287 . S
C3899 C3898 1.287 . S
C3899 C3900 1.524 . S
C3899 H3902 0.999 . S
C3900 H3870 0.950 . S
C3900 C3899 1.524 . S
C3900 C3901 1.415 . S
C3901 H3871 0.950 . S
C3901 C3896 1.363 . S
C3901 C3900 1.415 . S
H3902 C3899 0.999 . S
H3903 C3884 0.913 . S
H3904 C3922 0.951 . S
H3905 C3924 0.951 . S
H3906 C3926 0.950 . S
H3907 C3927 0.950 . S
H3908 C3929 0.950 . S
H3909 C3932 0.950 . S
H3910 C3933 0.950 . S
H3911 C3935 0.950 . S
H3912 C3936 0.950 . S
H3913 C3937 0.951 . S
H3914 C3939 0.951 . S
H3915 C3941 0.950 . S
H3916 C3942 0.950 . S
H3917 C3944 0.950 . S
H3918 C3947 0.950 . S
H3919 C3948 0.950 . S
H3920 C3950 0.950 . S
H3921 C3951 0.950 . S
C3922 H3904 0.951 . S
C3922 C3923 1.366 . S
C3922 C3924 1.388 . S
C3923 C3922 1.366 . S
C3923 C3927 1.385 . S
C3924 H3905 0.951 . S
C3924 C3922 1.388 . S
C3924 C3925 1.366 . S
C3925 C3924 1.366 . S
C3925 C3926 1.414 . S
C3925 C3928 1.499 . S
C3926 H3906 0.950 . S
C3926 C3925 1.414 . S
C3926 C3927 1.374 . S
C3927 H3907 0.950 . S
C3927 C3923 1.385 . S
C3927 C3926 1.374 . S
C3928 C3925 1.499 . S
C3928 C3929 1.373 . S
C3928 C3930 1.389 . S
C3929 H3908 0.950 . S
C3929 C3928 1.373 . S
C3929 C3945 1.377 . S
C3930 C3928 1.389 . S
C3930 C3931 1.524 . S
C3930 C3944 1.377 . S
C3931 C3930 1.524 . S
C3931 C3932 1.397 . S
C3931 C3936 1.363 . S
C3932 H3909 0.950 . S
C3932 C3931 1.397 . S
C3932 C3933 1.334 . S
C3933 H3910 0.950 . S
C3933 C3932 1.334 . S
C3933 C3934 1.287 . S
C3934 C3933 1.287 . S
C3934 C3935 1.524 . S
C3934 H3953 0.913 . S
C3935 H3911 0.950 . S
C3935 C3934 1.524 . S
C3935 C3936 1.415 . S
C3936 H3912 0.950 . S
C3936 C3931 1.363 . S
C3936 C3935 1.415 . S
C3937 H3913 0.951 . S
C3937 C3938 1.366 . S
C3937 C3939 1.388 . S
C3938 C3937 1.366 . S
C3938 C3942 1.385 . S
C3939 H3914 0.951 . S
C3939 C3937 1.388 . S
C3939 C3940 1.366 . S
C3940 C3939 1.366 . S
C3940 C3941 1.414 . S
C3940 C3943 1.499 . S
C3941 H3915 0.950 . S
C3941 C3940 1.414 . S
C3941 C3942 1.374 . S
C3942 H3916 0.950 . S
C3942 C3938 1.385 . S
C3942 C3941 1.374 . S
C3943 C3940 1.499 . S
C3943 C3944 1.373 . S
C3943 C3945 1.389 . S
C3944 H3917 0.950 . S
C3944 C3930 1.377 . S
C3944 C3943 1.373 . S
C3945 C3929 1.377 . S
C3945 C3943 1.389 . S
C3945 C3946 1.524 . S
C3946 C3945 1.524 . S
C3946 C3947 1.397 . S
C3946 C3951 1.363 . S
C3947 H3918 0.950 . S
C3947 C3946 1.397 . S
C3947 C3948 1.334 . S
C3948 H3919 0.950 . S
C3948 C3947 1.334 . S
C3948 C3949 1.287 . S
C3949 C3948 1.287 . S
C3949 C3950 1.524 . S
C3949 H3952 0.999 . S
C3950 H3920 0.950 . S
C3950 C3949 1.524 . S
C3950 C3951 1.415 . S
C3951 H3921 0.950 . S
C3951 C3946 1.363 . S
C3951 C3950 1.415 . S
H3952 C3949 0.999 . S
H3953 C3934 0.913 . S
H3954 C3972 0.951 . S
H3955 C3974 0.951 . S
H3956 C3976 0.950 . S
H3957 C3977 0.950 . S
H3958 C3979 0.950 . S
H3959 C3982 0.950 . S
H3960 C3983 0.950 . S
H3961 C3985 0.950 . S
H3962 C3986 0.950 . S
H3963 C3987 0.951 . S
H3964 C3989 0.951 . S
H3965 C3991 0.935 1_545 S
H3966 C3992 0.950 . S
H3967 C3994 0.950 . S
H3968 C3997 0.950 . S
H3969 C3998 0.950 . S
H3970 C4000 0.950 . S
H3971 C4001 0.950 . S
C3972 H3954 0.951 . S
C3972 C3973 1.366 . S
C3972 C3974 1.388 . S
C3973 C3972 1.366 . S
C3973 C3977 1.385 . S
C3974 H3955 0.951 . S
C3974 C3972 1.388 . S
C3974 C3975 1.366 . S
C3975 C3974 1.366 . S
C3975 C3976 1.414 . S
C3975 C3978 1.499 . S
C3976 H3956 0.950 . S
C3976 C3975 1.414 . S
C3976 C3977 1.374 . S
C3977 H3957 0.950 . S
C3977 C3973 1.385 . S
C3977 C3976 1.374 . S
C3978 C3975 1.499 . S
C3978 C3979 1.373 . S
C3978 C3980 1.389 . S
C3979 H3958 0.950 . S
C3979 C3978 1.373 . S
C3979 C3995 1.377 . S
C3980 C3978 1.389 . S
C3980 C3981 1.524 . S
C3980 C3994 1.377 . S
C3981 C3980 1.524 . S
C3981 C3982 1.397 . S
C3981 C3986 1.363 . S
C3982 H3959 0.950 . S
C3982 C3981 1.397 . S
C3982 C3983 1.334 . S
C3983 H3960 0.950 . S
C3983 C3982 1.334 . S
C3983 C3984 1.287 . S
C3984 C3983 1.287 . S
C3984 C3985 1.524 . S
C3984 H4003 0.913 . S
C3985 H3961 0.950 . S
C3985 C3984 1.524 . S
C3985 C3986 1.415 . S
C3986 H3962 0.950 . S
C3986 C3981 1.363 . S
C3986 C3985 1.415 . S
C3987 H3963 0.951 . S
C3987 C3988 1.366 . S
C3987 C3989 1.388 . S
C3988 C3987 1.366 . S
C3988 C3992 1.385 1_565 S
C3989 H3964 0.951 . S
C3989 C3987 1.388 . S
C3989 C3990 1.366 . S
C3990 C3989 1.366 . S
C3990 C3991 1.414 . S
C3990 C3993 1.499 . S
C3991 H3965 0.935 1_565 S
C3991 C3990 1.414 . S
C3991 C3992 1.374 1_565 S
C3992 H3966 0.950 . S
C3992 C3988 1.385 1_545 S
C3992 C3991 1.374 1_545 S
C3993 C3990 1.499 . S
C3993 C3994 1.373 . S
C3993 C3995 1.389 . S
C3994 H3967 0.950 . S
C3994 C3980 1.377 . S
C3994 C3993 1.373 . S
C3995 C3979 1.377 . S
C3995 C3993 1.389 . S
C3995 C3996 1.524 . S
C3996 C3995 1.524 . S
C3996 C3997 1.397 . S
C3996 C4001 1.363 . S
C3997 H3968 0.950 . S
C3997 C3996 1.397 . S
C3997 C3998 1.334 . S
C3998 H3969 0.950 . S
C3998 C3997 1.334 . S
C3998 C3999 1.287 . S
C3999 C3998 1.287 . S
C3999 C4000 1.524 . S
C3999 H4002 0.999 . S
C4000 H3970 0.950 . S
C4000 C3999 1.524 . S
C4000 C4001 1.415 . S
C4001 H3971 0.950 . S
C4001 C3996 1.363 . S
C4001 C4000 1.415 . S
H4002 C3999 0.999 . S
H4003 C3984 0.913 . S
H4004 C4022 0.951 . S
H4005 C4024 0.951 . S
H4006 C4026 0.950 . S
H4007 C4027 0.950 . S
H4008 C4029 0.950 . S
H4009 C4032 0.950 . S
H4010 C4033 0.950 . S
H4011 C4035 0.950 . S
H4012 C4036 0.950 . S
H4013 C4037 0.951 . S
H4014 C4039 0.951 . S
H4015 C4041 0.950 . S
H4016 C4042 0.950 . S
H4017 C4044 0.950 . S
H4018 C4047 0.950 . S
H4019 C4048 0.950 . S
H4020 C4050 0.950 . S
H4021 C4051 0.950 . S
C4022 H4004 0.951 . S
C4022 C4023 1.366 . S
C4022 C4024 1.388 . S
C4023 C4022 1.366 . S
C4023 C4027 1.385 . S
C4024 H4005 0.951 . S
C4024 C4022 1.388 . S
C4024 C4025 1.366 . S
C4025 C4024 1.366 . S
C4025 C4026 1.414 . S
C4025 C4028 1.499 . S
C4026 H4006 0.950 . S
C4026 C4025 1.414 . S
C4026 C4027 1.374 . S
C4027 H4007 0.950 . S
C4027 C4023 1.385 . S
C4027 C4026 1.374 . S
C4028 C4025 1.499 . S
C4028 C4029 1.373 . S
C4028 C4030 1.389 . S
C4029 H4008 0.950 . S
C4029 C4028 1.373 . S
C4029 C4045 1.377 . S
C4030 C4028 1.389 . S
C4030 C4031 1.524 . S
C4030 C4044 1.377 . S
C4031 C4030 1.524 . S
C4031 C4032 1.397 . S
C4031 C4036 1.363 . S
C4032 H4009 0.950 . S
C4032 C4031 1.397 . S
C4032 C4033 1.334 . S
C4033 H4010 0.950 . S
C4033 C4032 1.334 . S
C4033 C4034 1.287 . S
C4034 C4033 1.287 . S
C4034 C4035 1.524 . S
C4034 H4053 0.913 . S
C4035 H4011 0.950 . S
C4035 C4034 1.524 . S
C4035 C4036 1.415 . S
C4036 H4012 0.950 . S
C4036 C4031 1.363 . S
C4036 C4035 1.415 . S
C4037 H4013 0.951 . S
C4037 C4038 1.366 . S
C4037 C4039 1.388 . S
C4038 C4037 1.366 . S
C4038 C4042 1.385 . S
C4039 H4014 0.951 . S
C4039 C4037 1.388 . S
C4039 C4040 1.366 . S
C4040 C4039 1.366 . S
C4040 C4041 1.414 . S
C4040 C4043 1.499 . S
C4041 H4015 0.950 . S
C4041 C4040 1.414 . S
C4041 C4042 1.374 . S
C4042 H4016 0.950 . S
C4042 C4038 1.385 . S
C4042 C4041 1.374 . S
C4043 C4040 1.499 . S
C4043 C4044 1.373 . S
C4043 C4045 1.389 . S
C4044 H4017 0.950 . S
C4044 C4030 1.377 . S
C4044 C4043 1.373 . S
C4045 C4029 1.377 . S
C4045 C4043 1.389 . S
C4045 C4046 1.524 . S
C4046 C4045 1.524 . S
C4046 C4047 1.397 . S
C4046 C4051 1.363 . S
C4047 H4018 0.950 . S
C4047 C4046 1.397 . S
C4047 C4048 1.334 . S
C4048 H4019 0.950 . S
C4048 C4047 1.334 . S
C4048 C4049 1.287 . S
C4049 C4048 1.287 . S
C4049 C4050 1.524 . S
C4049 H4052 0.999 . S
C4050 H4020 0.950 . S
C4050 C4049 1.524 . S
C4050 C4051 1.415 . S
C4051 H4021 0.950 . S
C4051 C4046 1.363 . S
C4051 C4050 1.415 . S
H4052 C4049 0.999 . S
H4053 C4034 0.913 . S
H4054 C4072 0.951 . S
H4055 C4074 0.951 . S
H4056 C4076 0.950 . S
H4057 C4077 0.950 . S
H4058 C4079 0.950 . S
H4059 C4082 0.950 . S
H4060 C4083 0.950 . S
H4061 C4085 0.950 . S
H4062 C4086 0.950 . S
H4063 C4087 0.951 . S
H4064 C4089 0.951 . S
H4065 C4091 0.950 . S
H4066 C4092 0.950 . S
H4067 C4094 0.950 1_556 S
H4068 C4097 0.950 . S
H4069 C4098 0.950 . S
H4070 C4100 0.970 . S
H4071 C4101 0.950 . S
C4072 H4054 0.951 . S
C4072 C4073 1.366 . S
C4072 C4074 1.388 . S
C4073 C4072 1.366 . S
C4073 C4077 1.385 . S
C4074 H4055 0.951 . S
C4074 C4072 1.388 . S
C4074 C4075 1.366 . S
C4075 C4074 1.366 . S
C4075 C4076 1.414 . S
C4075 C4078 1.499 . S
C4076 H4056 0.950 . S
C4076 C4075 1.414 . S
C4076 C4077 1.374 . S
C4077 H4057 0.950 . S
C4077 C4073 1.385 . S
C4077 C4076 1.374 . S
C4078 C4075 1.499 . S
C4078 C4079 1.373 . S
C4078 C4080 1.389 . S
C4079 H4058 0.950 . S
C4079 C4078 1.373 . S
C4079 C4095 1.377 . S
C4080 C4078 1.389 . S
C4080 C4081 1.524 1_554 S
C4080 C4094 1.377 . S
C4081 C4080 1.524 1_556 S
C4081 C4082 1.397 . S
C4081 C4086 1.363 . S
C4082 H4059 0.950 . S
C4082 C4081 1.397 . S
C4082 C4083 1.334 . S
C4083 H4060 0.950 . S
C4083 C4082 1.334 . S
C4083 C4084 1.287 . S
C4084 C4083 1.287 . S
C4084 C4085 1.524 . S
C4084 H4103 0.913 . S
C4085 H4061 0.950 . S
C4085 C4084 1.524 . S
C4085 C4086 1.415 . S
C4086 H4062 0.950 . S
C4086 C4081 1.363 . S
C4086 C4085 1.415 . S
C4087 H4063 0.951 . S
C4087 C4088 1.366 . S
C4087 C4089 1.388 . S
C4088 C4087 1.366 . S
C4088 C4092 1.385 . S
C4089 H4064 0.951 . S
C4089 C4087 1.388 . S
C4089 C4090 1.366 . S
C4090 C4089 1.366 . S
C4090 C4091 1.414 . S
C4090 C4093 1.499 . S
C4091 H4065 0.950 . S
C4091 C4090 1.414 . S
C4091 C4092 1.374 . S
C4092 H4066 0.950 . S
C4092 C4088 1.385 . S
C4092 C4091 1.374 . S
C4093 C4090 1.499 . S
C4093 C4094 1.373 . S
C4093 C4095 1.389 . S
C4094 H4067 0.950 1_554 S
C4094 C4080 1.377 . S
C4094 C4093 1.373 . S
C4095 C4079 1.377 . S
C4095 C4093 1.389 . S
C4095 C4096 1.524 . S
C4096 C4095 1.524 . S
C4096 C4097 1.397 . S
C4096 C4101 1.363 . S
C4097 H4068 0.950 . S
C4097 C4096 1.397 . S
C4097 C4098 1.334 . S
C4098 H4069 0.950 . S
C4098 C4097 1.334 . S
C4098 C4099 1.287 . S
C4099 C4098 1.287 . S
C4099 C4100 1.524 . S
C4099 H4102 0.999 . S
C4100 H4070 0.970 . S
C4100 C4099 1.524 . S
C4100 C4101 1.415 . S
C4101 H4071 0.950 . S
C4101 C4096 1.363 . S
C4101 C4100 1.415 . S
H4102 C4099 0.999 . S
H4103 C4084 0.913 . S
H4104 C4122 0.951 . S
H4105 C4124 0.951 . S
H4106 C4126 0.950 . S
H4107 C4127 0.950 . S
H4108 C4129 0.950 . S
H4109 C4132 0.950 . S
H4110 C4133 0.950 . S
H4111 C4135 0.950 . S
H4112 C4136 0.950 . S
H4113 C4137 0.951 . S
H4114 C4139 0.951 . S
H4115 C4141 0.950 . S
H4116 C4142 0.950 . S
H4117 C4144 0.950 . S
H4118 C4147 0.950 . S
H4119 C4148 0.950 . S
H4120 C4150 0.950 . S
H4121 C4151 0.950 . S
C4122 H4104 0.951 . S
C4122 C4123 1.366 . S
C4122 C4124 1.388 . S
C4123 C4122 1.366 . S
C4123 C4127 1.385 . S
C4124 H4105 0.951 . S
C4124 C4122 1.388 . S
C4124 C4125 1.366 . S
C4125 C4124 1.366 . S
C4125 C4126 1.414 . S
C4125 C4128 1.499 . S
C4126 H4106 0.950 . S
C4126 C4125 1.414 . S
C4126 C4127 1.374 . S
C4127 H4107 0.950 . S
C4127 C4123 1.385 . S
C4127 C4126 1.374 . S
C4128 C4125 1.499 . S
C4128 C4129 1.373 . S
C4128 C4130 1.389 . S
C4129 H4108 0.950 . S
C4129 C4128 1.373 . S
C4129 C4145 1.377 . S
C4130 C4128 1.389 . S
C4130 C4131 1.524 . S
C4130 C4144 1.377 . S
C4131 C4130 1.524 . S
C4131 C4132 1.397 . S
C4131 C4136 1.363 . S
C4132 H4109 0.950 . S
C4132 C4131 1.397 . S
C4132 C4133 1.334 . S
C4133 H4110 0.950 . S
C4133 C4132 1.334 . S
C4133 C4134 1.287 . S
C4134 C4133 1.287 . S
C4134 C4135 1.524 . S
C4134 H4153 0.913 . S
C4135 H4111 0.950 . S
C4135 C4134 1.524 . S
C4135 C4136 1.415 . S
C4136 H4112 0.950 . S
C4136 C4131 1.363 . S
C4136 C4135 1.415 . S
C4137 H4113 0.951 . S
C4137 C4138 1.366 . S
C4137 C4139 1.388 . S
C4138 C4137 1.366 . S
C4138 C4142 1.385 . S
C4139 H4114 0.951 . S
C4139 C4137 1.388 . S
C4139 C4140 1.366 . S
C4140 C4139 1.366 . S
C4140 C4141 1.414 . S
C4140 C4143 1.499 . S
C4141 H4115 0.950 . S
C4141 C4140 1.414 . S
C4141 C4142 1.374 . S
C4142 H4116 0.950 . S
C4142 C4138 1.385 . S
C4142 C4141 1.374 . S
C4143 C4140 1.499 . S
C4143 C4144 1.373 . S
C4143 C4145 1.389 . S
C4144 H4117 0.950 . S
C4144 C4130 1.377 . S
C4144 C4143 1.373 . S
C4145 C4129 1.377 . S
C4145 C4143 1.389 . S
C4145 C4146 1.524 . S
C4146 C4145 1.524 . S
C4146 C4147 1.397 . S
C4146 C4151 1.363 . S
C4147 H4118 0.950 . S
C4147 C4146 1.397 . S
C4147 C4148 1.334 . S
C4148 H4119 0.950 . S
C4148 C4147 1.334 . S
C4148 C4149 1.287 . S
C4149 C4148 1.287 . S
C4149 C4150 1.524 . S
C4149 H4152 0.999 . S
C4150 H4120 0.950 . S
C4150 C4149 1.524 . S
C4150 C4151 1.415 . S
C4151 H4121 0.950 . S
C4151 C4146 1.363 . S
C4151 C4150 1.415 . S
H4152 C4149 0.999 . S
H4153 C4134 0.913 . S
H4154 C4172 0.951 . S
H4155 C4174 0.951 . S
H4156 C4176 0.950 . S
H4157 C4177 0.950 . S
H4158 C4179 0.950 . S
H4159 C4182 0.950 . S
H4160 C4183 0.950 . S
H4161 C4185 0.950 . S
H4162 C4186 0.950 . S
H4163 C4187 0.951 . S
H4164 C4189 0.951 . S
H4165 C4191 0.950 . S
H4166 C4192 0.950 . S
H4167 C4194 0.950 . S
H4168 C4197 0.950 . S
H4169 C4198 0.950 . S
H4170 C4200 0.950 . S
H4171 C4201 0.950 . S
C4172 H4154 0.951 . S
C4172 C4173 1.366 . S
C4172 C4174 1.388 . S
C4173 C4172 1.366 . S
C4173 C4177 1.385 . S
C4174 H4155 0.951 . S
C4174 C4172 1.388 . S
C4174 C4175 1.366 . S
C4175 C4174 1.366 . S
C4175 C4176 1.414 . S
C4175 C4178 1.499 . S
C4176 H4156 0.950 . S
C4176 C4175 1.414 . S
C4176 C4177 1.374 . S
C4177 H4157 0.950 . S
C4177 C4173 1.385 . S
C4177 C4176 1.374 . S
C4178 C4175 1.499 . S
C4178 C4179 1.373 . S
C4178 C4180 1.389 1_554 S
C4179 H4158 0.950 . S
C4179 C4178 1.373 . S
C4179 C4195 1.377 . S
C4180 C4178 1.389 1_556 S
C4180 C4181 1.524 . S
C4180 C4194 1.377 . S
C4181 C4180 1.524 . S
C4181 C4182 1.397 . S
C4181 C4186 1.363 . S
C4182 H4159 0.950 . S
C4182 C4181 1.397 . S
C4182 C4183 1.334 . S
C4183 H4160 0.950 . S
C4183 C4182 1.334 . S
C4183 C4184 1.287 . S
C4184 C4183 1.287 . S
C4184 C4185 1.524 . S
C4184 H4203 0.913 . S
C4185 H4161 0.950 . S
C4185 C4184 1.524 . S
C4185 C4186 1.415 . S
C4186 H4162 0.950 . S
C4186 C4181 1.363 . S
C4186 C4185 1.415 . S
C4187 H4163 0.951 . S
C4187 C4188 1.366 . S
C4187 C4189 1.388 . S
C4188 C4187 1.366 . S
C4188 C4192 1.385 . S
C4189 H4164 0.951 . S
C4189 C4187 1.388 . S
C4189 C4190 1.366 . S
C4190 C4189 1.366 . S
C4190 C4191 1.414 . S
C4190 C4193 1.499 . S
C4191 H4165 0.950 . S
C4191 C4190 1.414 . S
C4191 C4192 1.374 . S
C4192 H4166 0.950 . S
C4192 C4188 1.385 . S
C4192 C4191 1.374 . S
C4193 C4190 1.499 . S
C4193 C4194 1.373 1_554 S
C4193 C4195 1.389 . S
C4194 H4167 0.950 . S
C4194 C4180 1.377 . S
C4194 C4193 1.373 1_556 S
C4195 C4179 1.377 . S
C4195 C4193 1.389 . S
C4195 C4196 1.524 . S
C4196 C4195 1.524 . S
C4196 C4197 1.397 . S
C4196 C4201 1.363 . S
C4197 H4168 0.950 . S
C4197 C4196 1.397 . S
C4197 C4198 1.334 . S
C4198 H4169 0.950 . S
C4198 C4197 1.334 . S
C4198 C4199 1.287 . S
C4199 C4198 1.287 . S
C4199 C4200 1.524 . S
C4199 H4202 0.999 . S
C4200 H4170 0.950 . S
C4200 C4199 1.524 . S
C4200 C4201 1.415 . S
C4201 H4171 0.950 . S
C4201 C4196 1.363 . S
C4201 C4200 1.415 . S
H4202 C4199 0.999 . S
H4203 C4184 0.913 . S
H4204 C4222 0.951 . S
H4205 C4224 0.951 . S
H4206 C4226 0.950 . S
H4207 C4227 0.950 . S
H4208 C4229 0.950 . S
H4209 C4232 0.950 . S
H4210 C4233 0.950 . S
H4211 C4235 0.950 . S
H4212 C4236 0.950 . S
H4213 C4237 0.951 . S
H4214 C4239 0.951 . S
H4215 C4241 0.950 . S
H4216 C4242 0.950 . S
H4217 C4244 0.950 . S
H4218 C4247 0.950 . S
H4219 C4248 0.950 . S
H4220 C4250 0.950 . S
H4221 C4251 0.950 . S
C4222 H4204 0.951 . S
C4222 C4223 1.366 . S
C4222 C4224 1.388 . S
C4223 C4222 1.366 . S
C4223 C4227 1.385 . S
C4224 H4205 0.951 . S
C4224 C4222 1.388 . S
C4224 C4225 1.366 . S
C4225 C4224 1.366 . S
C4225 C4226 1.414 . S
C4225 C4228 1.499 . S
C4226 H4206 0.950 . S
C4226 C4225 1.414 . S
C4226 C4227 1.374 . S
C4227 H4207 0.950 . S
C4227 C4223 1.385 . S
C4227 C4226 1.374 . S
C4228 C4225 1.499 . S
C4228 C4229 1.373 . S
C4228 C4230 1.389 . S
C4229 H4208 0.950 . S
C4229 C4228 1.373 . S
C4229 C4245 1.377 . S
C4230 C4228 1.389 . S
C4230 C4231 1.524 . S
C4230 C4244 1.377 . S
C4231 C4230 1.524 . S
C4231 C4232 1.397 . S
C4231 C4236 1.363 . S
C4232 H4209 0.950 . S
C4232 C4231 1.397 . S
C4232 C4233 1.334 . S
C4233 H4210 0.950 . S
C4233 C4232 1.334 . S
C4233 C4234 1.287 . S
C4234 C4233 1.287 . S
C4234 C4235 1.524 . S
C4234 H4253 0.913 . S
C4235 H4211 0.950 . S
C4235 C4234 1.524 . S
C4235 C4236 1.415 . S
C4236 H4212 0.950 . S
C4236 C4231 1.363 . S
C4236 C4235 1.415 . S
C4237 H4213 0.951 . S
C4237 C4238 1.366 . S
C4237 C4239 1.388 . S
C4238 C4237 1.366 . S
C4238 C4242 1.385 . S
C4239 H4214 0.951 . S
C4239 C4237 1.388 . S
C4239 C4240 1.366 . S
C4240 C4239 1.366 . S
C4240 C4241 1.414 . S
C4240 C4243 1.499 . S
C4241 H4215 0.950 . S
C4241 C4240 1.414 . S
C4241 C4242 1.374 . S
C4242 H4216 0.950 . S
C4242 C4238 1.385 . S
C4242 C4241 1.374 . S
C4243 C4240 1.499 . S
C4243 C4244 1.373 . S
C4243 C4245 1.389 . S
C4244 H4217 0.950 . S
C4244 C4230 1.377 . S
C4244 C4243 1.373 . S
C4245 C4229 1.377 . S
C4245 C4243 1.389 . S
C4245 C4246 1.524 . S
C4246 C4245 1.524 . S
C4246 C4247 1.397 . S
C4246 C4251 1.363 . S
C4247 H4218 0.950 . S
C4247 C4246 1.397 . S
C4247 C4248 1.334 . S
C4248 H4219 0.950 . S
C4248 C4247 1.334 . S
C4248 C4249 1.287 . S
C4249 C4248 1.287 . S
C4249 C4250 1.524 . S
C4249 H4252 0.999 . S
C4250 H4220 0.950 . S
C4250 C4249 1.524 . S
C4250 C4251 1.415 . S
C4251 H4221 0.950 . S
C4251 C4246 1.363 . S
C4251 C4250 1.415 . S
H4252 C4249 0.999 . S
H4253 C4234 0.913 . S
H4254 C4272 0.951 . S
H4255 C4274 0.951 . S
H4256 C4276 0.950 . S
H4257 C4277 0.950 . S
H4258 C4279 0.950 . S
H4259 C4282 0.950 . S
H4260 C4283 0.950 . S
H4261 C4285 0.950 . S
H4262 C4286 0.950 . S
H4263 C4287 0.951 . S
H4264 C4289 0.951 . S
H4265 C4291 0.950 . S
H4266 C4292 0.950 . S
H4267 C4294 0.950 . S
H4268 C4297 0.950 . S
H4269 C4298 0.950 . S
H4270 C4300 0.950 . S
H4271 C4301 0.950 . S
C4272 H4254 0.951 . S
C4272 C4273 1.366 . S
C4272 C4274 1.388 . S
C4273 C4272 1.366 . S
C4273 C4277 1.385 . S
C4274 H4255 0.951 . S
C4274 C4272 1.388 . S
C4274 C4275 1.366 . S
C4275 C4274 1.366 . S
C4275 C4276 1.414 . S
C4275 C4278 1.499 . S
C4276 H4256 0.950 . S
C4276 C4275 1.414 . S
C4276 C4277 1.374 . S
C4277 H4257 0.950 . S
C4277 C4273 1.385 . S
C4277 C4276 1.374 . S
C4278 C4275 1.499 . S
C4278 C4279 1.373 . S
C4278 C4280 1.389 . S
C4279 H4258 0.950 . S
C4279 C4278 1.373 . S
C4279 C4295 1.377 . S
C4280 C4278 1.389 . S
C4280 C4281 1.524 . S
C4280 C4294 1.377 . S
C4281 C4280 1.524 . S
C4281 C4282 1.397 . S
C4281 C4286 1.363 . S
C4282 H4259 0.950 . S
C4282 C4281 1.397 . S
C4282 C4283 1.334 . S
C4283 H4260 0.950 . S
C4283 C4282 1.334 . S
C4283 C4284 1.287 . S
C4284 C4283 1.287 . S
C4284 C4285 1.524 . S
C4284 H4303 0.913 . S
C4285 H4261 0.950 . S
C4285 C4284 1.524 . S
C4285 C4286 1.415 . S
C4286 H4262 0.950 . S
C4286 C4281 1.363 . S
C4286 C4285 1.415 . S
C4287 H4263 0.951 . S
C4287 C4288 1.366 . S
C4287 C4289 1.388 . S
C4288 C4287 1.366 . S
C4288 C4292 1.385 . S
C4289 H4264 0.951 . S
C4289 C4287 1.388 . S
C4289 C4290 1.366 . S
C4290 C4289 1.366 . S
C4290 C4291 1.414 . S
C4290 C4293 1.499 . S
C4291 H4265 0.950 . S
C4291 C4290 1.414 . S
C4291 C4292 1.374 . S
C4292 H4266 0.950 . S
C4292 C4288 1.385 . S
C4292 C4291 1.374 . S
C4293 C4290 1.499 . S
C4293 C4294 1.373 . S
C4293 C4295 1.389 . S
C4294 H4267 0.950 . S
C4294 C4280 1.377 . S
C4294 C4293 1.373 . S
C4295 C4279 1.377 . S
C4295 C4293 1.389 . S
C4295 C4296 1.524 . S
C4296 C4295 1.524 . S
C4296 C4297 1.397 . S
C4296 C4301 1.363 . S
C4297 H4268 0.950 . S
C4297 C4296 1.397 . S
C4297 C4298 1.334 . S
C4298 H4269 0.950 . S
C4298 C4297 1.334 . S
C4298 C4299 1.287 . S
C4299 C4298 1.287 . S
C4299 C4300 1.524 . S
C4299 H4302 0.999 . S
C4300 H4270 0.950 . S
C4300 C4299 1.524 . S
C4300 C4301 1.415 . S
C4301 H4271 0.950 . S
C4301 C4296 1.363 . S
C4301 C4300 1.415 . S
H4302 C4299 0.999 . S
H4303 C4284 0.913 . S
H4304 C4322 0.951 . S
H4305 C4324 0.951 . S
H4306 C4326 0.950 . S
H4307 C4327 0.950 . S
H4308 C4329 0.950 . S
H4309 C4332 0.950 . S
H4310 C4333 0.950 . S
H4311 C4335 0.950 . S
H4312 C4336 0.950 . S
H4313 C4337 0.951 . S
H4314 C4339 0.951 . S
H4315 C4341 0.950 . S
H4316 C4342 0.950 . S
H4317 C4344 0.950 . S
H4318 C4347 0.950 . S
H4319 C4348 0.950 . S
H4320 C4350 0.950 . S
H4321 C4351 0.950 . S
C4322 H4304 0.951 . S
C4322 C4323 1.366 . S
C4322 C4324 1.388 . S
C4323 C4322 1.366 . S
C4323 C4327 1.385 . S
C4324 H4305 0.951 . S
C4324 C4322 1.388 . S
C4324 C4325 1.366 . S
C4325 C4324 1.366 . S
C4325 C4326 1.414 . S
C4325 C4328 1.499 . S
C4326 H4306 0.950 . S
C4326 C4325 1.414 . S
C4326 C4327 1.374 . S
C4327 H4307 0.950 . S
C4327 C4323 1.385 . S
C4327 C4326 1.374 . S
C4328 C4325 1.499 . S
C4328 C4329 1.373 . S
C4328 C4330 1.389 . S
C4329 H4308 0.950 . S
C4329 C4328 1.373 . S
C4329 C4345 1.377 . S
C4330 C4328 1.389 . S
C4330 C4331 1.524 . S
C4330 C4344 1.377 . S
C4331 C4330 1.524 . S
C4331 C4332 1.397 . S
C4331 C4336 1.363 . S
C4332 H4309 0.950 . S
C4332 C4331 1.397 . S
C4332 C4333 1.334 . S
C4333 H4310 0.950 . S
C4333 C4332 1.334 . S
C4333 C4334 1.287 . S
C4334 C4333 1.287 . S
C4334 C4335 1.524 . S
C4334 H4353 0.913 . S
C4335 H4311 0.950 . S
C4335 C4334 1.524 . S
C4335 C4336 1.415 . S
C4336 H4312 0.950 . S
C4336 C4331 1.363 . S
C4336 C4335 1.415 . S
C4337 H4313 0.951 . S
C4337 C4338 1.366 . S
C4337 C4339 1.388 . S
C4338 C4337 1.366 . S
C4338 C4342 1.385 . S
C4339 H4314 0.951 . S
C4339 C4337 1.388 . S
C4339 C4340 1.366 . S
C4340 C4339 1.366 . S
C4340 C4341 1.414 . S
C4340 C4343 1.499 . S
C4341 H4315 0.950 . S
C4341 C4340 1.414 . S
C4341 C4342 1.374 . S
C4342 H4316 0.950 . S
C4342 C4338 1.385 . S
C4342 C4341 1.374 . S
C4343 C4340 1.499 . S
C4343 C4344 1.373 . S
C4343 C4345 1.389 . S
C4344 H4317 0.950 . S
C4344 C4330 1.377 . S
C4344 C4343 1.373 . S
C4345 C4329 1.377 . S
C4345 C4343 1.389 . S
C4345 C4346 1.524 . S
C4346 C4345 1.524 . S
C4346 C4347 1.397 . S
C4346 C4351 1.363 . S
C4347 H4318 0.950 . S
C4347 C4346 1.397 . S
C4347 C4348 1.334 . S
C4348 H4319 0.950 . S
C4348 C4347 1.334 . S
C4348 C4349 1.287 . S
C4349 C4348 1.287 . S
C4349 C4350 1.524 . S
C4349 H4352 0.999 . S
C4350 H4320 0.950 . S
C4350 C4349 1.524 . S
C4350 C4351 1.415 . S
C4351 H4321 0.950 . S
C4351 C4346 1.363 . S
C4351 C4350 1.415 . S
H4352 C4349 0.999 . S
H4353 C4334 0.913 . S
H4354 C4372 0.951 . S
H4355 C4374 0.951 . S
H4356 C4376 0.950 . S
H4357 C4377 0.950 . S
H4358 C4379 0.950 . S
H4359 C4382 0.950 . S
H4360 C4383 0.950 . S
H4361 C4385 0.950 . S
H4362 C4386 0.950 . S
H4363 C4387 0.951 . S
H4364 C4389 0.951 . S
H4365 C4391 0.950 . S
H4366 C4392 0.950 . S
H4367 C4394 0.950 . S
H4368 C4397 0.950 . S
H4369 C4398 0.950 . S
H4370 C4400 0.950 . S
H4371 C4401 0.950 . S
C4372 H4354 0.951 . S
C4372 C4373 1.366 . S
C4372 C4374 1.388 . S
C4373 C4372 1.366 . S
C4373 C4377 1.385 . S
C4374 H4355 0.951 . S
C4374 C4372 1.388 . S
C4374 C4375 1.366 . S
C4375 C4374 1.366 . S
C4375 C4376 1.414 . S
C4375 C4378 1.499 . S
C4376 H4356 0.950 . S
C4376 C4375 1.414 . S
C4376 C4377 1.374 . S
C4377 H4357 0.950 . S
C4377 C4373 1.385 . S
C4377 C4376 1.374 . S
C4378 C4375 1.499 . S
C4378 C4379 1.373 . S
C4378 C4380 1.389 . S
C4379 H4358 0.950 . S
C4379 C4378 1.373 . S
C4379 C4395 1.377 . S
C4380 C4378 1.389 . S
C4380 C4381 1.524 . S
C4380 C4394 1.377 . S
C4381 C4380 1.524 . S
C4381 C4382 1.397 . S
C4381 C4386 1.363 . S
C4382 H4359 0.950 . S
C4382 C4381 1.397 . S
C4382 C4383 1.334 . S
C4383 H4360 0.950 . S
C4383 C4382 1.334 . S
C4383 C4384 1.287 . S
C4384 C4383 1.287 . S
C4384 C4385 1.524 . S
C4384 H4403 0.913 . S
C4385 H4361 0.950 . S
C4385 C4384 1.524 . S
C4385 C4386 1.415 . S
C4386 H4362 0.950 . S
C4386 C4381 1.363 . S
C4386 C4385 1.415 . S
C4387 H4363 0.951 . S
C4387 C4388 1.366 . S
C4387 C4389 1.388 . S
C4388 C4387 1.366 . S
C4388 C4392 1.385 . S
C4389 H4364 0.951 . S
C4389 C4387 1.388 . S
C4389 C4390 1.366 . S
C4390 C4389 1.366 . S
C4390 C4391 1.414 . S
C4390 C4393 1.499 . S
C4391 H4365 0.950 . S
C4391 C4390 1.414 . S
C4391 C4392 1.374 . S
C4392 H4366 0.950 . S
C4392 C4388 1.385 . S
C4392 C4391 1.374 . S
C4393 C4390 1.499 . S
C4393 C4394 1.373 . S
C4393 C4395 1.389 . S
C4394 H4367 0.950 . S
C4394 C4380 1.377 . S
C4394 C4393 1.373 . S
C4395 C4379 1.377 . S
C4395 C4393 1.389 . S
C4395 C4396 1.524 . S
C4396 C4395 1.524 . S
C4396 C4397 1.397 . S
C4396 C4401 1.363 . S
C4397 H4368 0.950 . S
C4397 C4396 1.397 . S
C4397 C4398 1.334 . S
C4398 H4369 0.950 . S
C4398 C4397 1.334 . S
C4398 C4399 1.287 . S
C4399 C4398 1.287 . S
C4399 C4400 1.524 . S
C4399 H4402 0.999 . S
C4400 H4370 0.950 . S
C4400 C4399 1.524 . S
C4400 C4401 1.415 . S
C4401 H4371 0.950 . S
C4401 C4396 1.363 . S
C4401 C4400 1.415 . S
H4402 C4399 0.999 . S
H4403 C4384 0.913 . S
H4404 C4422 0.951 . S
H4405 C4424 0.951 . S
H4406 C4426 0.950 . S
H4407 C4427 0.950 . S
H4408 C4429 0.950 . S
H4409 C4432 0.950 . S
H4410 C4433 0.964 . S
H4411 C4435 0.950 . S
H4412 C4436 0.950 . S
H4413 C4437 0.951 1_554 S
H4414 C4439 0.951 . S
H4415 C4441 0.950 . S
H4416 C4442 0.950 . S
H4417 C4444 0.950 . S
H4418 C4447 0.950 . S
H4419 C4448 0.950 1_455 S
H4420 C4450 0.950 . S
H4421 C4451 0.932 1_556 S
C4422 H4404 0.951 . S
C4422 C4423 1.366 . S
C4422 C4424 1.388 . S
C4423 C4422 1.366 . S
C4423 C4427 1.385 1_455 S
C4424 H4405 0.951 . S
C4424 C4422 1.388 . S
C4424 C4425 1.366 . S
C4425 C4424 1.366 . S
C4425 C4426 1.414 1_455 S
C4425 C4428 1.495 1_455 S
C4426 H4406 0.950 . S
C4426 C4425 1.414 1_655 S
C4426 C4427 1.374 . S
C4427 H4407 0.950 . S
C4427 C4423 1.385 1_655 S
C4427 C4426 1.374 . S
C4428 C4425 1.495 1_655 S
C4428 C4429 1.392 . S
C4428 C4430 1.374 1_655 S
C4429 H4408 0.950 . S
C4429 C4428 1.392 . S
C4429 C4445 1.377 . S
C4430 C4428 1.374 1_455 S
C4430 C4431 1.524 . S
C4430 C4444 1.377 . S
C4431 C4430 1.524 . S
C4431 C4432 1.397 1_455 S
C4431 C4436 1.363 . S
C4432 H4409 0.950 . S
C4432 C4431 1.397 1_655 S
C4432 C4433 1.338 . S
C4433 H4410 0.964 . S
C4433 C4432 1.338 . S
C4433 C4434 1.269 1_655 S
C4434 C4433 1.269 1_455 S
C4434 C4435 1.524 . S
C4434 H4453 0.913 . S
C4435 H4411 0.950 . S
C4435 C4434 1.524 . S
C4435 C4436 1.415 . S
C4436 H4412 0.950 . S
C4436 C4431 1.363 . S
C4436 C4435 1.415 . S
C4437 H4413 0.951 1_556 S
C4437 C4438 1.366 . S
C4437 C4439 1.388 . S
C4438 C4437 1.366 . S
C4438 C4442 1.385 1_655 S
C4439 H4414 0.951 . S
C4439 C4437 1.388 . S
C4439 C4440 1.366 . S
C4440 C4439 1.366 . S
C4440 C4441 1.414 1_655 S
C4440 C4443 1.499 . S
C4441 H4415 0.950 . S
C4441 C4440 1.414 1_455 S
C4441 C4442 1.374 . S
C4442 H4416 0.950 . S
C4442 C4438 1.385 1_455 S
C4442 C4441 1.374 . S
C4443 C4440 1.499 . S
C4443 C4444 1.373 1_655 S
C4443 C4445 1.389 . S
C4444 H4417 0.950 . S
C4444 C4430 1.377 . S
C4444 C4443 1.373 1_455 S
C4445 C4429 1.377 . S
C4445 C4443 1.389 . S
C4445 C4446 1.524 . S
C4446 C4445 1.524 . S
C4446 C4447 1.397 1_656 S
C4446 C4451 1.356 1_556 S
C4447 H4418 0.950 . S
C4447 C4446 1.397 1_454 S
C4447 C4448 1.334 1_455 S
C4448 H4419 0.950 1_655 S
C4448 C4447 1.334 1_655 S
C4448 C4449 1.287 . S
C4449 C4448 1.287 . S
C4449 C4450 1.524 . S
C4449 H4452 0.999 . S
C4450 H4420 0.950 . S
C4450 C4449 1.524 . S
C4450 C4451 1.441 . S
C4451 H4421 0.932 1_554 S
C4451 C4446 1.356 1_554 S
C4451 C4450 1.441 . S
H4452 C4449 0.999 . S
H4453 C4434 0.913 . S
H4454 C4472 0.951 . S
H4455 C4474 0.951 . S
H4456 C4476 0.950 . S
H4457 C4477 0.950 . S
H4458 C4479 0.950 . S
H4459 C4482 0.950 . S
H4460 C4483 0.950 . S
H4461 C4485 0.950 . S
H4462 C4486 0.950 . S
H4463 C4487 0.951 . S
H4464 C4489 0.951 . S
H4465 C4491 0.950 . S
H4466 C4492 0.950 . S
H4467 C4494 0.950 . S
H4468 C4497 0.950 . S
H4469 C4498 0.950 . S
H4470 C4500 0.950 . S
H4471 C4501 0.950 . S
C4472 H4454 0.951 . S
C4472 C4473 1.366 . S
C4472 C4474 1.388 . S
C4473 C4472 1.366 . S
C4473 C4477 1.385 . S
C4474 H4455 0.951 . S
C4474 C4472 1.388 . S
C4474 C4475 1.366 . S
C4475 C4474 1.366 . S
C4475 C4476 1.414 . S
C4475 C4478 1.499 . S
C4476 H4456 0.950 . S
C4476 C4475 1.414 . S
C4476 C4477 1.374 . S
C4477 H4457 0.950 . S
C4477 C4473 1.385 . S
C4477 C4476 1.374 . S
C4478 C4475 1.499 . S
C4478 C4479 1.373 . S
C4478 C4480 1.389 . S
C4479 H4458 0.950 . S
C4479 C4478 1.373 . S
C4479 C4495 1.377 . S
C4480 C4478 1.389 . S
C4480 C4481 1.524 . S
C4480 C4494 1.377 . S
C4481 C4480 1.524 . S
C4481 C4482 1.397 . S
C4481 C4486 1.363 . S
C4482 H4459 0.950 . S
C4482 C4481 1.397 . S
C4482 C4483 1.334 . S
C4483 H4460 0.950 . S
C4483 C4482 1.334 . S
C4483 C4484 1.287 . S
C4484 C4483 1.287 . S
C4484 C4485 1.524 . S
C4484 H4503 0.913 . S
C4485 H4461 0.950 . S
C4485 C4484 1.524 . S
C4485 C4486 1.415 . S
C4486 H4462 0.950 . S
C4486 C4481 1.363 . S
C4486 C4485 1.415 . S
C4487 H4463 0.951 . S
C4487 C4488 1.366 . S
C4487 C4489 1.388 . S
C4488 C4487 1.366 . S
C4488 C4492 1.385 . S
C4489 H4464 0.951 . S
C4489 C4487 1.388 . S
C4489 C4490 1.366 . S
C4490 C4489 1.366 . S
C4490 C4491 1.414 . S
C4490 C4493 1.499 . S
C4491 H4465 0.950 . S
C4491 C4490 1.414 . S
C4491 C4492 1.374 . S
C4492 H4466 0.950 . S
C4492 C4488 1.385 . S
C4492 C4491 1.374 . S
C4493 C4490 1.499 . S
C4493 C4494 1.373 . S
C4493 C4495 1.389 . S
C4494 H4467 0.950 . S
C4494 C4480 1.377 . S
C4494 C4493 1.373 . S
C4495 C4479 1.377 . S
C4495 C4493 1.389 . S
C4495 C4496 1.524 . S
C4496 C4495 1.524 . S
C4496 C4497 1.397 . S
C4496 C4501 1.363 . S
C4497 H4468 0.950 . S
C4497 C4496 1.397 . S
C4497 C4498 1.334 . S
C4498 H4469 0.950 . S
C4498 C4497 1.334 . S
C4498 C4499 1.287 . S
C4499 C4498 1.287 . S
C4499 C4500 1.524 . S
C4499 H4502 0.999 . S
C4500 H4470 0.950 . S
C4500 C4499 1.524 . S
C4500 C4501 1.415 . S
C4501 H4471 0.950 . S
C4501 C4496 1.363 . S
C4501 C4500 1.415 . S
H4502 C4499 0.999 . S
H4503 C4484 0.913 . S
H4504 C4522 0.951 . S
H4505 C4524 0.951 . S
H4506 C4526 0.950 . S
H4507 C4527 0.950 . S
H4508 C4529 0.950 . S
H4509 C4532 0.950 . S
H4510 C4533 0.950 . S
H4511 C4535 0.950 . S
H4512 C4536 0.950 . S
H4513 C4537 0.951 . S
H4514 C4539 0.951 . S
H4515 C4541 0.950 . S
H4516 C4542 0.950 . S
H4517 C4544 0.950 . S
H4518 C4547 0.950 . S
H4519 C4548 0.950 . S
H4520 C4550 0.950 . S
H4521 C4551 0.950 . S
C4522 H4504 0.951 . S
C4522 C4523 1.366 . S
C4522 C4524 1.388 . S
C4523 C4522 1.366 . S
C4523 C4527 1.385 . S
C4524 H4505 0.951 . S
C4524 C4522 1.388 . S
C4524 C4525 1.366 . S
C4525 C4524 1.366 . S
C4525 C4526 1.414 . S
C4525 C4528 1.499 . S
C4526 H4506 0.950 . S
C4526 C4525 1.414 . S
C4526 C4527 1.374 . S
C4527 H4507 0.950 . S
C4527 C4523 1.385 . S
C4527 C4526 1.374 . S
C4528 C4525 1.499 . S
C4528 C4529 1.373 . S
C4528 C4530 1.389 . S
C4529 H4508 0.950 . S
C4529 C4528 1.373 . S
C4529 C4545 1.377 . S
C4530 C4528 1.389 . S
C4530 C4531 1.524 . S
C4530 C4544 1.377 . S
C4531 C4530 1.524 . S
C4531 C4532 1.397 . S
C4531 C4536 1.363 . S
C4532 H4509 0.950 . S
C4532 C4531 1.397 . S
C4532 C4533 1.334 . S
C4533 H4510 0.950 . S
C4533 C4532 1.334 . S
C4533 C4534 1.287 . S
C4534 C4533 1.287 . S
C4534 C4535 1.524 . S
C4534 H4553 0.913 . S
C4535 H4511 0.950 . S
C4535 C4534 1.524 . S
C4535 C4536 1.415 . S
C4536 H4512 0.950 . S
C4536 C4531 1.363 . S
C4536 C4535 1.415 . S
C4537 H4513 0.951 . S
C4537 C4538 1.366 . S
C4537 C4539 1.388 . S
C4538 C4537 1.366 . S
C4538 C4542 1.385 . S
C4539 H4514 0.951 . S
C4539 C4537 1.388 . S
C4539 C4540 1.366 . S
C4540 C4539 1.366 . S
C4540 C4541 1.414 . S
C4540 C4543 1.499 . S
C4541 H4515 0.950 . S
C4541 C4540 1.414 . S
C4541 C4542 1.374 . S
C4542 H4516 0.950 . S
C4542 C4538 1.385 . S
C4542 C4541 1.374 . S
C4543 C4540 1.499 . S
C4543 C4544 1.373 . S
C4543 C4545 1.389 . S
C4544 H4517 0.950 . S
C4544 C4530 1.377 . S
C4544 C4543 1.373 . S
C4545 C4529 1.377 . S
C4545 C4543 1.389 . S
C4545 C4546 1.524 . S
C4546 C4545 1.524 . S
C4546 C4547 1.397 . S
C4546 C4551 1.363 . S
C4547 H4518 0.950 . S
C4547 C4546 1.397 . S
C4547 C4548 1.334 . S
C4548 H4519 0.950 . S
C4548 C4547 1.334 . S
C4548 C4549 1.287 . S
C4549 C4548 1.287 . S
C4549 C4550 1.524 . S
C4549 H4552 0.999 . S
C4550 H4520 0.950 . S
C4550 C4549 1.524 . S
C4550 C4551 1.415 . S
C4551 H4521 0.950 . S
C4551 C4546 1.363 . S
C4551 C4550 1.415 . S
H4552 C4549 0.999 . S
H4553 C4534 0.913 . S
H4554 C4572 0.951 . S
H4555 C4574 0.951 . S
H4556 C4576 0.950 . S
H4557 C4577 0.950 . S
H4558 C4579 0.950 . S
H4559 C4582 0.950 . S
H4560 C4583 0.950 . S
H4561 C4585 0.950 . S
H4562 C4586 0.950 . S
H4563 C4587 0.951 . S
H4564 C4589 0.951 . S
H4565 C4591 0.950 . S
H4566 C4592 0.950 . S
H4567 C4594 0.950 . S
H4568 C4597 0.950 . S
H4569 C4598 0.950 . S
H4570 C4600 0.950 . S
H4571 C4601 0.950 . S
C4572 H4554 0.951 . S
C4572 C4573 1.366 . S
C4572 C4574 1.388 . S
C4573 C4572 1.366 . S
C4573 C4577 1.385 . S
C4574 H4555 0.951 . S
C4574 C4572 1.388 . S
C4574 C4575 1.366 . S
C4575 C4574 1.366 . S
C4575 C4576 1.414 . S
C4575 C4578 1.499 . S
C4576 H4556 0.950 . S
C4576 C4575 1.414 . S
C4576 C4577 1.374 . S
C4577 H4557 0.950 . S
C4577 C4573 1.385 . S
C4577 C4576 1.374 . S
C4578 C4575 1.499 . S
C4578 C4579 1.373 . S
C4578 C4580 1.389 . S
C4579 H4558 0.950 . S
C4579 C4578 1.373 . S
C4579 C4595 1.377 . S
C4580 C4578 1.389 . S
C4580 C4581 1.524 . S
C4580 C4594 1.377 . S
C4581 C4580 1.524 . S
C4581 C4582 1.397 . S
C4581 C4586 1.363 . S
C4582 H4559 0.950 . S
C4582 C4581 1.397 . S
C4582 C4583 1.334 . S
C4583 H4560 0.950 . S
C4583 C4582 1.334 . S
C4583 C4584 1.287 . S
C4584 C4583 1.287 . S
C4584 C4585 1.524 . S
C4584 H4603 0.913 . S
C4585 H4561 0.950 . S
C4585 C4584 1.524 . S
C4585 C4586 1.415 . S
C4586 H4562 0.950 . S
C4586 C4581 1.363 . S
C4586 C4585 1.415 . S
C4587 H4563 0.951 . S
C4587 C4588 1.366 . S
C4587 C4589 1.388 . S
C4588 C4587 1.366 . S
C4588 C4592 1.385 . S
C4589 H4564 0.951 . S
C4589 C4587 1.388 . S
C4589 C4590 1.366 . S
C4590 C4589 1.366 . S
C4590 C4591 1.414 . S
C4590 C4593 1.499 . S
C4591 H4565 0.950 . S
C4591 C4590 1.414 . S
C4591 C4592 1.374 . S
C4592 H4566 0.950 . S
C4592 C4588 1.385 . S
C4592 C4591 1.374 . S
C4593 C4590 1.499 . S
C4593 C4594 1.373 . S
C4593 C4595 1.389 . S
C4594 H4567 0.950 . S
C4594 C4580 1.377 . S
C4594 C4593 1.373 . S
C4595 C4579 1.377 . S
C4595 C4593 1.389 . S
C4595 C4596 1.524 . S
C4596 C4595 1.524 . S
C4596 C4597 1.397 . S
C4596 C4601 1.363 . S
C4597 H4568 0.950 . S
C4597 C4596 1.397 . S
C4597 C4598 1.334 . S
C4598 H4569 0.950 . S
C4598 C4597 1.334 . S
C4598 C4599 1.287 . S
C4599 C4598 1.287 . S
C4599 C4600 1.524 . S
C4599 H4602 0.999 . S
C4600 H4570 0.950 . S
C4600 C4599 1.524 . S
C4600 C4601 1.415 . S
C4601 H4571 0.950 . S
C4601 C4596 1.363 . S
C4601 C4600 1.415 . S
H4602 C4599 0.999 . S
H4603 C4584 0.913 . S
H4604 C4622 0.951 . S
H4605 C4624 0.951 . S
H4606 C4626 0.950 . S
H4607 C4627 0.950 . S
H4608 C4629 0.950 . S
H4609 C4632 0.950 . S
H4610 C4633 0.950 . S
H4611 C4635 0.950 . S
H4612 C4636 0.950 . S
H4613 C4637 0.951 . S
H4614 C4639 0.951 . S
H4615 C4641 0.950 . S
H4616 C4642 0.950 1_455 S
H4617 C4644 0.950 . S
H4618 C4647 0.950 . S
H4619 C4648 0.950 . S
H4620 C4650 0.950 . S
H4621 C4651 0.950 . S
C4622 H4604 0.951 . S
C4622 C4623 1.366 . S
C4622 C4624 1.388 . S
C4623 C4622 1.366 . S
C4623 C4627 1.385 1_455 S
C4624 H4605 0.951 . S
C4624 C4622 1.388 . S
C4624 C4625 1.366 . S
C4625 C4624 1.366 . S
C4625 C4626 1.414 1_455 S
C4625 C4628 1.499 . S
C4626 H4606 0.950 . S
C4626 C4625 1.414 1_655 S
C4626 C4627 1.374 . S
C4627 H4607 0.950 . S
C4627 C4623 1.385 1_655 S
C4627 C4626 1.374 . S
C4628 C4625 1.499 . S
C4628 C4629 1.373 1_455 S
C4628 C4630 1.389 . S
C4629 H4608 0.950 . S
C4629 C4628 1.373 1_655 S
C4629 C4645 1.377 . S
C4630 C4628 1.389 . S
C4630 C4631 1.524 . S
C4630 C4644 1.377 . S
C4631 C4630 1.524 . S
C4631 C4632 1.397 . S
C4631 C4636 1.363 . S
C4632 H4609 0.950 . S
C4632 C4631 1.397 . S
C4632 C4633 1.334 . S
C4633 H4610 0.950 . S
C4633 C4632 1.334 . S
C4633 C4634 1.287 . S
C4634 C4633 1.287 . S
C4634 C4635 1.524 . S
C4634 H4653 0.913 . S
C4635 H4611 0.950 . S
C4635 C4634 1.524 . S
C4635 C4636 1.415 . S
C4636 H4612 0.950 . S
C4636 C4631 1.363 . S
C4636 C4635 1.415 . S
C4637 H4613 0.951 . S
C4637 C4638 1.366 . S
C4637 C4639 1.388 . S
C4638 C4637 1.366 . S
C4638 C4642 1.385 . S
C4639 H4614 0.951 . S
C4639 C4637 1.388 . S
C4639 C4640 1.366 . S
C4640 C4639 1.366 . S
C4640 C4641 1.414 1_655 S
C4640 C4643 1.499 . S
C4641 H4615 0.950 . S
C4641 C4640 1.414 1_455 S
C4641 C4642 1.374 1_455 S
C4642 H4616 0.950 1_655 S
C4642 C4638 1.385 . S
C4642 C4641 1.374 1_655 S
C4643 C4640 1.499 . S
C4643 C4644 1.373 1_655 S
C4643 C4645 1.389 . S
C4644 H4617 0.950 . S
C4644 C4630 1.377 . S
C4644 C4643 1.373 1_455 S
C4645 C4629 1.377 . S
C4645 C4643 1.389 . S
C4645 C4646 1.524 . S
C4646 C4645 1.524 . S
C4646 C4647 1.397 . S
C4646 C4651 1.363 . S
C4647 H4618 0.950 . S
C4647 C4646 1.397 . S
C4647 C4648 1.334 . S
C4648 H4619 0.950 . S
C4648 C4647 1.334 . S
C4648 C4649 1.287 . S
C4649 C4648 1.287 . S
C4649 C4650 1.524 . S
C4649 H4652 0.999 . S
C4650 H4620 0.950 . S
C4650 C4649 1.524 . S
C4650 C4651 1.415 . S
C4651 H4621 0.950 . S
C4651 C4646 1.363 . S
C4651 C4650 1.415 . S
H4652 C4649 0.999 . S
H4653 C4634 0.913 . S
H4654 C4672 0.951 . S
H4655 C4674 0.951 . S
H4656 C4676 0.950 . S
H4657 C4677 0.950 . S
H4658 C4679 0.950 . S
H4659 C4682 0.950 . S
H4660 C4683 0.950 . S
H4661 C4685 0.950 . S
H4662 C4686 0.950 . S
H4663 C4687 0.951 . S
H4664 C4689 0.951 . S
H4665 C4691 0.950 . S
H4666 C4692 0.950 . S
H4667 C4694 0.950 . S
H4668 C4697 0.950 . S
H4669 C4698 0.950 . S
H4670 C4700 0.950 . S
H4671 C4701 0.950 . S
C4672 H4654 0.951 . S
C4672 C4673 1.366 . S
C4672 C4674 1.388 . S
C4673 C4672 1.366 . S
C4673 C4677 1.385 . S
C4674 H4655 0.951 . S
C4674 C4672 1.388 . S
C4674 C4675 1.366 . S
C4675 C4674 1.366 . S
C4675 C4676 1.414 . S
C4675 C4678 1.499 . S
C4676 H4656 0.950 . S
C4676 C4675 1.414 . S
C4676 C4677 1.374 . S
C4677 H4657 0.950 . S
C4677 C4673 1.385 . S
C4677 C4676 1.374 . S
C4678 C4675 1.499 . S
C4678 C4679 1.373 . S
C4678 C4680 1.389 . S
C4679 H4658 0.950 . S
C4679 C4678 1.373 . S
C4679 C4695 1.377 . S
C4680 C4678 1.389 . S
C4680 C4681 1.524 . S
C4680 C4694 1.377 . S
C4681 C4680 1.524 . S
C4681 C4682 1.397 . S
C4681 C4686 1.363 . S
C4682 H4659 0.950 . S
C4682 C4681 1.397 . S
C4682 C4683 1.334 . S
C4683 H4660 0.950 . S
C4683 C4682 1.334 . S
C4683 C4684 1.287 . S
C4684 C4683 1.287 . S
C4684 C4685 1.524 . S
C4684 H4703 0.913 . S
C4685 H4661 0.950 . S
C4685 C4684 1.524 . S
C4685 C4686 1.415 . S
C4686 H4662 0.950 . S
C4686 C4681 1.363 . S
C4686 C4685 1.415 . S
C4687 H4663 0.951 . S
C4687 C4688 1.366 . S
C4687 C4689 1.388 . S
C4688 C4687 1.366 . S
C4688 C4692 1.385 . S
C4689 H4664 0.951 . S
C4689 C4687 1.388 . S
C4689 C4690 1.366 . S
C4690 C4689 1.366 . S
C4690 C4691 1.414 . S
C4690 C4693 1.499 . S
C4691 H4665 0.950 . S
C4691 C4690 1.414 . S
C4691 C4692 1.374 . S
C4692 H4666 0.950 . S
C4692 C4688 1.385 . S
C4692 C4691 1.374 . S
C4693 C4690 1.499 . S
C4693 C4694 1.373 . S
C4693 C4695 1.389 . S
C4694 H4667 0.950 . S
C4694 C4680 1.377 . S
C4694 C4693 1.373 . S
C4695 C4679 1.377 . S
C4695 C4693 1.389 . S
C4695 C4696 1.524 . S
C4696 C4695 1.524 . S
C4696 C4697 1.397 . S
C4696 C4701 1.363 . S
C4697 H4668 0.950 . S
C4697 C4696 1.397 . S
C4697 C4698 1.334 . S
C4698 H4669 0.950 . S
C4698 C4697 1.334 . S
C4698 C4699 1.287 . S
C4699 C4698 1.287 . S
C4699 C4700 1.524 . S
C4699 H4702 0.999 . S
C4700 H4670 0.950 . S
C4700 C4699 1.524 . S
C4700 C4701 1.415 . S
C4701 H4671 0.950 . S
C4701 C4696 1.363 . S
C4701 C4700 1.415 . S
H4702 C4699 0.999 . S
H4703 C4684 0.913 . S
H4704 C4722 0.951 . S
H4705 C4724 0.951 . S
H4706 C4726 0.950 . S
H4707 C4727 0.950 . S
H4708 C4729 0.950 . S
H4709 C4732 0.950 . S
H4710 C4733 0.950 . S
H4711 C4735 0.950 . S
H4712 C4736 0.950 . S
H4713 C4737 0.951 . S
H4714 C4739 0.951 . S
H4715 C4741 0.950 . S
H4716 C4742 0.950 . S
H4717 C4744 0.950 . S
H4718 C4747 0.950 . S
H4719 C4748 0.950 . S
H4720 C4750 0.950 . S
H4721 C4751 0.950 . S
C4722 H4704 0.951 . S
C4722 C4723 1.366 . S
C4722 C4724 1.388 . S
C4723 C4722 1.366 . S
C4723 C4727 1.385 . S
C4724 H4705 0.951 . S
C4724 C4722 1.388 . S
C4724 C4725 1.366 . S
C4725 C4724 1.366 . S
C4725 C4726 1.414 . S
C4725 C4728 1.499 . S
C4726 H4706 0.950 . S
C4726 C4725 1.414 . S
C4726 C4727 1.374 . S
C4727 H4707 0.950 . S
C4727 C4723 1.385 . S
C4727 C4726 1.374 . S
C4728 C4725 1.499 . S
C4728 C4729 1.373 . S
C4728 C4730 1.389 . S
C4729 H4708 0.950 . S
C4729 C4728 1.373 . S
C4729 C4745 1.377 . S
C4730 C4728 1.389 . S
C4730 C4731 1.524 . S
C4730 C4744 1.377 . S
C4731 C4730 1.524 . S
C4731 C4732 1.397 . S
C4731 C4736 1.363 . S
C4732 H4709 0.950 . S
C4732 C4731 1.397 . S
C4732 C4733 1.334 . S
C4733 H4710 0.950 . S
C4733 C4732 1.334 . S
C4733 C4734 1.287 . S
C4734 C4733 1.287 . S
C4734 C4735 1.524 . S
C4734 H4753 0.913 . S
C4735 H4711 0.950 . S
C4735 C4734 1.524 . S
C4735 C4736 1.415 . S
C4736 H4712 0.950 . S
C4736 C4731 1.363 . S
C4736 C4735 1.415 . S
C4737 H4713 0.951 . S
C4737 C4738 1.366 . S
C4737 C4739 1.388 . S
C4738 C4737 1.366 . S
C4738 C4742 1.385 . S
C4739 H4714 0.951 . S
C4739 C4737 1.388 . S
C4739 C4740 1.366 . S
C4740 C4739 1.366 . S
C4740 C4741 1.414 . S
C4740 C4743 1.499 . S
C4741 H4715 0.950 . S
C4741 C4740 1.414 . S
C4741 C4742 1.374 . S
C4742 H4716 0.950 . S
C4742 C4738 1.385 . S
C4742 C4741 1.374 . S
C4743 C4740 1.499 . S
C4743 C4744 1.373 . S
C4743 C4745 1.389 . S
C4744 H4717 0.950 . S
C4744 C4730 1.377 . S
C4744 C4743 1.373 . S
C4745 C4729 1.377 . S
C4745 C4743 1.389 . S
C4745 C4746 1.524 . S
C4746 C4745 1.524 . S
C4746 C4747 1.397 . S
C4746 C4751 1.363 . S
C4747 H4718 0.950 . S
C4747 C4746 1.397 . S
C4747 C4748 1.334 . S
C4748 H4719 0.950 . S
C4748 C4747 1.334 . S
C4748 C4749 1.287 . S
C4749 C4748 1.287 . S
C4749 C4750 1.524 . S
C4749 H4752 0.999 . S
C4750 H4720 0.950 . S
C4750 C4749 1.524 . S
C4750 C4751 1.415 . S
C4751 H4721 0.950 . S
C4751 C4746 1.363 . S
C4751 C4750 1.415 . S
H4752 C4749 0.999 . S
H4753 C4734 0.913 . S
H4754 C4772 0.951 . S
H4755 C4774 0.951 . S
H4756 C4776 0.950 . S
H4757 C4777 0.950 . S
H4758 C4779 0.950 . S
H4759 C4782 0.950 . S
H4760 C4783 0.950 . S
H4761 C4785 0.950 . S
H4762 C4786 0.950 . S
H4763 C4787 0.951 . S
H4764 C4789 0.951 . S
H4765 C4791 0.950 . S
H4766 C4792 0.950 . S
H4767 C4794 0.950 . S
H4768 C4797 0.950 . S
H4769 C4798 0.950 . S
H4770 C4800 0.950 . S
H4771 C4801 0.950 . S
C4772 H4754 0.951 . S
C4772 C4773 1.366 . S
C4772 C4774 1.388 . S
C4773 C4772 1.366 . S
C4773 C4777 1.385 . S
C4774 H4755 0.951 . S
C4774 C4772 1.388 . S
C4774 C4775 1.366 . S
C4775 C4774 1.366 . S
C4775 C4776 1.414 . S
C4775 C4778 1.499 . S
C4776 H4756 0.950 . S
C4776 C4775 1.414 . S
C4776 C4777 1.374 . S
C4777 H4757 0.950 . S
C4777 C4773 1.385 . S
C4777 C4776 1.374 . S
C4778 C4775 1.499 . S
C4778 C4779 1.373 . S
C4778 C4780 1.389 . S
C4779 H4758 0.950 . S
C4779 C4778 1.373 . S
C4779 C4795 1.377 . S
C4780 C4778 1.389 . S
C4780 C4781 1.524 . S
C4780 C4794 1.377 . S
C4781 C4780 1.524 . S
C4781 C4782 1.397 . S
C4781 C4786 1.363 . S
C4782 H4759 0.950 . S
C4782 C4781 1.397 . S
C4782 C4783 1.334 . S
C4783 H4760 0.950 . S
C4783 C4782 1.334 . S
C4783 C4784 1.287 . S
C4784 C4783 1.287 . S
C4784 C4785 1.524 . S
C4784 H4803 0.913 . S
C4785 H4761 0.950 . S
C4785 C4784 1.524 . S
C4785 C4786 1.415 . S
C4786 H4762 0.950 . S
C4786 C4781 1.363 . S
C4786 C4785 1.415 . S
C4787 H4763 0.951 . S
C4787 C4788 1.366 . S
C4787 C4789 1.388 . S
C4788 C4787 1.366 . S
C4788 C4792 1.385 . S
C4789 H4764 0.951 . S
C4789 C4787 1.388 . S
C4789 C4790 1.366 . S
C4790 C4789 1.366 . S
C4790 C4791 1.414 . S
C4790 C4793 1.499 . S
C4791 H4765 0.950 . S
C4791 C4790 1.414 . S
C4791 C4792 1.374 . S
C4792 H4766 0.950 . S
C4792 C4788 1.385 . S
C4792 C4791 1.374 . S
C4793 C4790 1.499 . S
C4793 C4794 1.373 . S
C4793 C4795 1.389 . S
C4794 H4767 0.950 . S
C4794 C4780 1.377 . S
C4794 C4793 1.373 . S
C4795 C4779 1.377 . S
C4795 C4793 1.389 . S
C4795 C4796 1.524 . S
C4796 C4795 1.524 . S
C4796 C4797 1.397 . S
C4796 C4801 1.363 . S
C4797 H4768 0.950 . S
C4797 C4796 1.397 . S
C4797 C4798 1.334 . S
C4798 H4769 0.950 . S
C4798 C4797 1.334 . S
C4798 C4799 1.287 . S
C4799 C4798 1.287 . S
C4799 C4800 1.524 . S
C4799 H4802 0.999 . S
C4800 H4770 0.950 . S
C4800 C4799 1.524 . S
C4800 C4801 1.415 . S
C4801 H4771 0.950 . S
C4801 C4796 1.363 . S
C4801 C4800 1.415 . S
H4802 C4799 0.999 . S
H4803 C4784 0.913 . S
H4804 C4822 0.951 . S
H4805 C4824 0.951 . S
H4806 C4826 0.950 . S
H4807 C4827 0.950 . S
H4808 C4829 0.950 . S
H4809 C4832 0.950 . S
H4810 C4833 0.950 . S
H4811 C4835 0.950 . S
H4812 C4836 0.950 . S
H4813 C4837 0.951 . S
H4814 C4839 0.951 . S
H4815 C4841 0.950 . S
H4816 C4842 0.950 . S
H4817 C4844 0.950 . S
H4818 C4847 0.950 . S
H4819 C4848 0.950 . S
H4820 C4850 0.947 1_655 S
H4821 C4851 0.950 . S
C4822 H4804 0.951 . S
C4822 C4823 1.366 . S
C4822 C4824 1.388 . S
C4823 C4822 1.366 . S
C4823 C4827 1.385 . S
C4824 H4805 0.951 . S
C4824 C4822 1.388 . S
C4824 C4825 1.366 . S
C4825 C4824 1.366 . S
C4825 C4826 1.414 . S
C4825 C4828 1.499 . S
C4826 H4806 0.950 . S
C4826 C4825 1.414 . S
C4826 C4827 1.374 . S
C4827 H4807 0.950 . S
C4827 C4823 1.385 . S
C4827 C4826 1.374 . S
C4828 C4825 1.499 . S
C4828 C4829 1.373 . S
C4828 C4830 1.389 . S
C4829 H4808 0.950 . S
C4829 C4828 1.373 . S
C4829 C4845 1.377 . S
C4830 C4828 1.389 . S
C4830 C4831 1.524 . S
C4830 C4844 1.377 . S
C4831 C4830 1.524 . S
C4831 C4832 1.397 . S
C4831 C4836 1.363 . S
C4832 H4809 0.950 . S
C4832 C4831 1.397 . S
C4832 C4833 1.334 . S
C4833 H4810 0.950 . S
C4833 C4832 1.334 . S
C4833 C4834 1.287 . S
C4834 C4833 1.287 . S
C4834 C4835 1.524 . S
C4834 H4853 0.913 . S
C4835 H4811 0.950 . S
C4835 C4834 1.524 . S
C4835 C4836 1.415 . S
C4836 H4812 0.950 . S
C4836 C4831 1.363 . S
C4836 C4835 1.415 . S
C4837 H4813 0.951 . S
C4837 C4838 1.366 . S
C4837 C4839 1.388 . S
C4838 C4837 1.366 . S
C4838 C4842 1.385 . S
C4839 H4814 0.951 . S
C4839 C4837 1.388 . S
C4839 C4840 1.366 . S
C4840 C4839 1.366 . S
C4840 C4841 1.414 . S
C4840 C4843 1.499 . S
C4841 H4815 0.950 . S
C4841 C4840 1.414 . S
C4841 C4842 1.374 . S
C4842 H4816 0.950 . S
C4842 C4838 1.385 . S
C4842 C4841 1.374 . S
C4843 C4840 1.499 . S
C4843 C4844 1.373 . S
C4843 C4845 1.389 . S
C4844 H4817 0.950 . S
C4844 C4830 1.377 . S
C4844 C4843 1.373 . S
C4845 C4829 1.377 . S
C4845 C4843 1.389 . S
C4845 C4846 1.524 . S
C4846 C4845 1.524 . S
C4846 C4847 1.397 . S
C4846 C4851 1.363 . S
C4847 H4818 0.950 . S
C4847 C4846 1.397 . S
C4847 C4848 1.334 . S
C4848 H4819 0.950 . S
C4848 C4847 1.334 . S
C4848 C4849 1.287 . S
C4849 C4848 1.287 . S
C4849 C4850 1.524 . S
C4849 H4852 0.999 1_455 S
C4850 H4820 0.947 1_455 S
C4850 C4849 1.524 . S
C4850 C4851 1.417 . S
C4851 H4821 0.950 . S
C4851 C4846 1.363 . S
C4851 C4850 1.417 . S
H4852 C4849 0.999 1_655 S
H4853 C4834 0.913 . S
H4854 C4872 0.951 . S
H4855 C4874 0.951 . S
H4856 C4876 0.950 . S
H4857 C4877 0.950 . S
H4858 C4879 0.950 . S
H4859 C4882 0.950 . S
H4860 C4883 0.950 . S
H4861 C4885 0.950 . S
H4862 C4886 0.950 . S
H4863 C4887 0.951 . S
H4864 C4889 0.951 . S
H4865 C4891 0.950 . S
H4866 C4892 0.950 . S
H4867 C4894 0.950 . S
H4868 C4897 0.950 . S
H4869 C4898 0.950 . S
H4870 C4900 0.950 . S
H4871 C4901 0.950 . S
C4872 H4854 0.951 . S
C4872 C4873 1.366 . S
C4872 C4874 1.388 . S
C4873 C4872 1.366 . S
C4873 C4877 1.385 . S
C4874 H4855 0.951 . S
C4874 C4872 1.388 . S
C4874 C4875 1.366 . S
C4875 C4874 1.366 . S
C4875 C4876 1.414 . S
C4875 C4878 1.499 . S
C4876 H4856 0.950 . S
C4876 C4875 1.414 . S
C4876 C4877 1.374 . S
C4877 H4857 0.950 . S
C4877 C4873 1.385 . S
C4877 C4876 1.374 . S
C4878 C4875 1.499 . S
C4878 C4879 1.373 . S
C4878 C4880 1.389 . S
C4879 H4858 0.950 . S
C4879 C4878 1.373 . S
C4879 C4895 1.377 . S
C4880 C4878 1.389 . S
C4880 C4881 1.524 . S
C4880 C4894 1.377 . S
C4881 C4880 1.524 . S
C4881 C4882 1.397 . S
C4881 C4886 1.363 . S
C4882 H4859 0.950 . S
C4882 C4881 1.397 . S
C4882 C4883 1.334 . S
C4883 H4860 0.950 . S
C4883 C4882 1.334 . S
C4883 C4884 1.287 . S
C4884 C4883 1.287 . S
C4884 C4885 1.524 . S
C4884 H4903 0.913 . S
C4885 H4861 0.950 . S
C4885 C4884 1.524 . S
C4885 C4886 1.415 . S
C4886 H4862 0.950 . S
C4886 C4881 1.363 . S
C4886 C4885 1.415 . S
C4887 H4863 0.951 . S
C4887 C4888 1.366 . S
C4887 C4889 1.388 . S
C4888 C4887 1.366 . S
C4888 C4892 1.385 . S
C4889 H4864 0.951 . S
C4889 C4887 1.388 . S
C4889 C4890 1.366 . S
C4890 C4889 1.366 . S
C4890 C4891 1.414 . S
C4890 C4893 1.499 . S
C4891 H4865 0.950 . S
C4891 C4890 1.414 . S
C4891 C4892 1.374 . S
C4892 H4866 0.950 . S
C4892 C4888 1.385 . S
C4892 C4891 1.374 . S
C4893 C4890 1.499 . S
C4893 C4894 1.373 . S
C4893 C4895 1.389 . S
C4894 H4867 0.950 . S
C4894 C4880 1.377 . S
C4894 C4893 1.373 . S
C4895 C4879 1.377 . S
C4895 C4893 1.389 . S
C4895 C4896 1.524 . S
C4896 C4895 1.524 . S
C4896 C4897 1.397 . S
C4896 C4901 1.363 . S
C4897 H4868 0.950 . S
C4897 C4896 1.397 . S
C4897 C4898 1.334 . S
C4898 H4869 0.950 . S
C4898 C4897 1.334 . S
C4898 C4899 1.287 . S
C4899 C4898 1.287 . S
C4899 C4900 1.524 . S
C4899 H4902 0.999 . S
C4900 H4870 0.950 . S
C4900 C4899 1.524 . S
C4900 C4901 1.415 . S
C4901 H4871 0.950 . S
C4901 C4896 1.363 . S
C4901 C4900 1.415 . S
H4902 C4899 0.999 . S
H4903 C4884 0.913 . S
H4904 C4922 0.951 . S
H4905 C4924 0.951 . S
H4906 C4926 0.950 . S
H4907 C4927 0.950 . S
H4908 C4929 0.950 . S
H4909 C4932 0.950 . S
H4910 C4933 0.950 . S
H4911 C4935 0.950 . S
H4912 C4936 0.950 . S
H4913 C4937 0.951 . S
H4914 C4939 0.951 . S
H4915 C4941 0.950 . S
H4916 C4942 0.950 . S
H4917 C4944 0.950 . S
H4918 C4947 0.950 . S
H4919 C4948 0.950 . S
H4920 C4950 0.950 . S
H4921 C4951 0.950 . S
C4922 H4904 0.951 . S
C4922 C4923 1.366 . S
C4922 C4924 1.388 . S
C4923 C4922 1.366 . S
C4923 C4927 1.385 . S
C4924 H4905 0.951 . S
C4924 C4922 1.388 . S
C4924 C4925 1.366 . S
C4925 C4924 1.366 . S
C4925 C4926 1.414 . S
C4925 C4928 1.499 . S
C4926 H4906 0.950 . S
C4926 C4925 1.414 . S
C4926 C4927 1.374 . S
C4927 H4907 0.950 . S
C4927 C4923 1.385 . S
C4927 C4926 1.374 . S
C4928 C4925 1.499 . S
C4928 C4929 1.373 . S
C4928 C4930 1.389 . S
C4929 H4908 0.950 . S
C4929 C4928 1.373 . S
C4929 C4945 1.377 . S
C4930 C4928 1.389 . S
C4930 C4931 1.524 . S
C4930 C4944 1.377 . S
C4931 C4930 1.524 . S
C4931 C4932 1.397 . S
C4931 C4936 1.363 . S
C4932 H4909 0.950 . S
C4932 C4931 1.397 . S
C4932 C4933 1.334 . S
C4933 H4910 0.950 . S
C4933 C4932 1.334 . S
C4933 C4934 1.287 . S
C4934 C4933 1.287 . S
C4934 C4935 1.524 . S
C4934 H4953 0.913 . S
C4935 H4911 0.950 . S
C4935 C4934 1.524 . S
C4935 C4936 1.415 . S
C4936 H4912 0.950 . S
C4936 C4931 1.363 . S
C4936 C4935 1.415 . S
C4937 H4913 0.951 . S
C4937 C4938 1.366 . S
C4937 C4939 1.388 . S
C4938 C4937 1.366 . S
C4938 C4942 1.385 . S
C4939 H4914 0.951 . S
C4939 C4937 1.388 . S
C4939 C4940 1.366 . S
C4940 C4939 1.366 . S
C4940 C4941 1.414 . S
C4940 C4943 1.499 . S
C4941 H4915 0.950 . S
C4941 C4940 1.414 . S
C4941 C4942 1.374 . S
C4942 H4916 0.950 . S
C4942 C4938 1.385 . S
C4942 C4941 1.374 . S
C4943 C4940 1.499 . S
C4943 C4944 1.373 . S
C4943 C4945 1.389 . S
C4944 H4917 0.950 . S
C4944 C4930 1.377 . S
C4944 C4943 1.373 . S
C4945 C4929 1.377 . S
C4945 C4943 1.389 . S
C4945 C4946 1.524 . S
C4946 C4945 1.524 . S
C4946 C4947 1.397 . S
C4946 C4951 1.363 . S
C4947 H4918 0.950 . S
C4947 C4946 1.397 . S
C4947 C4948 1.334 . S
C4948 H4919 0.950 . S
C4948 C4947 1.334 . S
C4948 C4949 1.287 . S
C4949 C4948 1.287 . S
C4949 C4950 1.524 . S
C4949 H4952 0.999 . S
C4950 H4920 0.950 . S
C4950 C4949 1.524 . S
C4950 C4951 1.415 . S
C4951 H4921 0.950 . S
C4951 C4946 1.363 . S
C4951 C4950 1.415 . S
H4952 C4949 0.999 . S
H4953 C4934 0.913 . S
H4954 C4972 0.951 . S
H4955 C4974 0.951 . S
H4956 C4976 0.950 . S
H4957 C4977 0.950 . S
H4958 C4979 0.950 . S
H4959 C4982 0.950 . S
H4960 C4983 0.950 . S
H4961 C4985 0.950 . S
H4962 C4986 0.950 . S
H4963 C4987 0.951 . S
H4964 C4989 0.951 . S
H4965 C4991 0.950 . S
H4966 C4992 0.950 . S
H4967 C4994 0.950 . S
H4968 C4997 0.950 . S
H4969 C4998 0.950 . S
H4970 C5000 0.950 . S
H4971 C5001 0.950 . S
C4972 H4954 0.951 . S
C4972 C4973 1.366 . S
C4972 C4974 1.388 . S
C4973 C4972 1.366 . S
C4973 C4977 1.385 . S
C4974 H4955 0.951 . S
C4974 C4972 1.388 . S
C4974 C4975 1.366 . S
C4975 C4974 1.366 . S
C4975 C4976 1.414 . S
C4975 C4978 1.499 . S
C4976 H4956 0.950 . S
C4976 C4975 1.414 . S
C4976 C4977 1.374 . S
C4977 H4957 0.950 . S
C4977 C4973 1.385 . S
C4977 C4976 1.374 . S
C4978 C4975 1.499 . S
C4978 C4979 1.373 . S
C4978 C4980 1.389 . S
C4979 H4958 0.950 . S
C4979 C4978 1.373 . S
C4979 C4995 1.377 . S
C4980 C4978 1.389 . S
C4980 C4981 1.524 . S
C4980 C4994 1.377 . S
C4981 C4980 1.524 . S
C4981 C4982 1.397 . S
C4981 C4986 1.363 . S
C4982 H4959 0.950 . S
C4982 C4981 1.397 . S
C4982 C4983 1.334 . S
C4983 H4960 0.950 . S
C4983 C4982 1.334 . S
C4983 C4984 1.287 . S
C4984 C4983 1.287 . S
C4984 C4985 1.524 . S
C4984 H5003 0.913 . S
C4985 H4961 0.950 . S
C4985 C4984 1.524 . S
C4985 C4986 1.415 . S
C4986 H4962 0.950 . S
C4986 C4981 1.363 . S
C4986 C4985 1.415 . S
C4987 H4963 0.951 . S
C4987 C4988 1.366 . S
C4987 C4989 1.388 . S
C4988 C4987 1.366 . S
C4988 C4992 1.385 . S
C4989 H4964 0.951 . S
C4989 C4987 1.388 . S
C4989 C4990 1.366 . S
C4990 C4989 1.366 . S
C4990 C4991 1.414 . S
C4990 C4993 1.499 . S
C4991 H4965 0.950 . S
C4991 C4990 1.414 . S
C4991 C4992 1.374 . S
C4992 H4966 0.950 . S
C4992 C4988 1.385 . S
C4992 C4991 1.374 . S
C4993 C4990 1.499 . S
C4993 C4994 1.373 . S
C4993 C4995 1.389 . S
C4994 H4967 0.950 . S
C4994 C4980 1.377 . S
C4994 C4993 1.373 . S
C4995 C4979 1.377 . S
C4995 C4993 1.389 . S
C4995 C4996 1.524 . S
C4996 C4995 1.524 . S
C4996 C4997 1.397 . S
C4996 C5001 1.363 . S
C4997 H4968 0.950 . S
C4997 C4996 1.397 . S
C4997 C4998 1.334 . S
C4998 H4969 0.950 . S
C4998 C4997 1.334 . S
C4998 C4999 1.287 . S
C4999 C4998 1.287 . S
C4999 C5000 1.524 . S
C4999 H5002 0.999 . S
C5000 H4970 0.950 . S
C5000 C4999 1.524 . S
C5000 C5001 1.415 . S
C5001 H4971 0.950 . S
C5001 C4996 1.363 . S
C5001 C5000 1.415 . S
H5002 C4999 0.999 . S
H5003 C4984 0.913 . S
H5004 C5022 0.951 . S
H5005 C5024 0.951 . S
H5006 C5026 0.950 . S
H5007 C5027 0.950 . S
H5008 C5029 0.950 . S
H5009 C5032 0.950 . S
H5010 C5033 0.950 . S
H5011 C5035 0.950 . S
H5012 C5036 0.950 . S
H5013 C5037 0.951 . S
H5014 C5039 0.951 . S
H5015 C5041 0.950 . S
H5016 C5042 0.950 . S
H5017 C5044 0.950 . S
H5018 C5047 0.950 . S
H5019 C5048 0.950 1_655 S
H5020 C5050 0.950 . S
H5021 C5051 0.950 . S
C5022 H5004 0.951 . S
C5022 C5023 1.366 . S
C5022 C5024 1.388 . S
C5023 C5022 1.366 . S
C5023 C5027 1.385 . S
C5024 H5005 0.951 . S
C5024 C5022 1.388 . S
C5024 C5025 1.366 . S
C5025 C5024 1.366 . S
C5025 C5026 1.414 . S
C5025 C5028 1.499 . S
C5026 H5006 0.950 . S
C5026 C5025 1.414 . S
C5026 C5027 1.374 . S
C5027 H5007 0.950 . S
C5027 C5023 1.385 . S
C5027 C5026 1.374 . S
C5028 C5025 1.499 . S
C5028 C5029 1.373 . S
C5028 C5030 1.389 . S
C5029 H5008 0.950 . S
C5029 C5028 1.373 . S
C5029 C5045 1.377 . S
C5030 C5028 1.389 . S
C5030 C5031 1.524 . S
C5030 C5044 1.377 . S
C5031 C5030 1.524 . S
C5031 C5032 1.397 . S
C5031 C5036 1.363 . S
C5032 H5009 0.950 . S
C5032 C5031 1.397 . S
C5032 C5033 1.334 . S
C5033 H5010 0.950 . S
C5033 C5032 1.334 . S
C5033 C5034 1.287 . S
C5034 C5033 1.287 . S
C5034 C5035 1.524 . S
C5034 H5053 0.913 . S
C5035 H5011 0.950 . S
C5035 C5034 1.524 . S
C5035 C5036 1.415 . S
C5036 H5012 0.950 . S
C5036 C5031 1.363 . S
C5036 C5035 1.415 . S
C5037 H5013 0.951 . S
C5037 C5038 1.366 . S
C5037 C5039 1.388 . S
C5038 C5037 1.366 . S
C5038 C5042 1.385 . S
C5039 H5014 0.951 . S
C5039 C5037 1.388 . S
C5039 C5040 1.366 . S
C5040 C5039 1.366 . S
C5040 C5041 1.414 . S
C5040 C5043 1.499 . S
C5041 H5015 0.950 . S
C5041 C5040 1.414 . S
C5041 C5042 1.374 . S
C5042 H5016 0.950 . S
C5042 C5038 1.385 . S
C5042 C5041 1.374 . S
C5043 C5040 1.499 . S
C5043 C5044 1.373 . S
C5043 C5045 1.389 . S
C5044 H5017 0.950 . S
C5044 C5030 1.377 . S
C5044 C5043 1.373 . S
C5045 C5029 1.377 . S
C5045 C5043 1.389 . S
C5045 C5046 1.524 . S
C5046 C5045 1.524 . S
C5046 C5047 1.397 . S
C5046 C5051 1.363 . S
C5047 H5018 0.950 . S
C5047 C5046 1.397 . S
C5047 C5048 1.334 . S
C5048 H5019 0.950 1_455 S
C5048 C5047 1.334 . S
C5048 C5049 1.287 . S
C5049 C5048 1.287 . S
C5049 C5050 1.524 . S
C5049 H5052 0.999 1_455 S
C5050 H5020 0.950 . S
C5050 C5049 1.524 . S
C5050 C5051 1.415 . S
C5051 H5021 0.950 . S
C5051 C5046 1.363 . S
C5051 C5050 1.415 . S
H5052 C5049 0.999 1_655 S
H5053 C5034 0.913 . S
H5054 C5072 0.951 . S
H5055 C5074 0.951 . S
H5056 C5076 0.950 . S
H5057 C5077 0.950 . S
H5058 C5079 0.950 . S
H5059 C5082 0.950 . S
H5060 C5083 0.950 . S
H5061 C5085 0.950 . S
H5062 C5086 0.950 . S
H5063 C5087 0.951 . S
H5064 C5089 0.951 . S
H5065 C5091 0.950 . S
H5066 C5092 0.950 . S
H5067 C5094 0.950 . S
H5068 C5097 0.950 . S
H5069 C5098 0.950 . S
H5070 C5100 0.950 . S
H5071 C5101 0.950 . S
C5072 H5054 0.951 . S
C5072 C5073 1.366 . S
C5072 C5074 1.388 . S
C5073 C5072 1.366 . S
C5073 C5077 1.385 . S
C5074 H5055 0.951 . S
C5074 C5072 1.388 . S
C5074 C5075 1.366 . S
C5075 C5074 1.366 . S
C5075 C5076 1.414 . S
C5075 C5078 1.499 . S
C5076 H5056 0.950 . S
C5076 C5075 1.414 . S
C5076 C5077 1.374 . S
C5077 H5057 0.950 . S
C5077 C5073 1.385 . S
C5077 C5076 1.374 . S
C5078 C5075 1.499 . S
C5078 C5079 1.373 . S
C5078 C5080 1.389 . S
C5079 H5058 0.950 . S
C5079 C5078 1.373 . S
C5079 C5095 1.377 . S
C5080 C5078 1.389 . S
C5080 C5081 1.524 . S
C5080 C5094 1.377 . S
C5081 C5080 1.524 . S
C5081 C5082 1.397 . S
C5081 C5086 1.363 . S
C5082 H5059 0.950 . S
C5082 C5081 1.397 . S
C5082 C5083 1.334 . S
C5083 H5060 0.950 . S
C5083 C5082 1.334 . S
C5083 C5084 1.287 . S
C5084 C5083 1.287 . S
C5084 C5085 1.524 . S
C5084 H5103 0.913 . S
C5085 H5061 0.950 . S
C5085 C5084 1.524 . S
C5085 C5086 1.415 . S
C5086 H5062 0.950 . S
C5086 C5081 1.363 . S
C5086 C5085 1.415 . S
C5087 H5063 0.951 . S
C5087 C5088 1.366 . S
C5087 C5089 1.388 . S
C5088 C5087 1.366 . S
C5088 C5092 1.385 . S
C5089 H5064 0.951 . S
C5089 C5087 1.388 . S
C5089 C5090 1.366 . S
C5090 C5089 1.366 . S
C5090 C5091 1.414 . S
C5090 C5093 1.499 . S
C5091 H5065 0.950 . S
C5091 C5090 1.414 . S
C5091 C5092 1.374 . S
C5092 H5066 0.950 . S
C5092 C5088 1.385 . S
C5092 C5091 1.374 . S
C5093 C5090 1.499 . S
C5093 C5094 1.373 . S
C5093 C5095 1.389 . S
C5094 H5067 0.950 . S
C5094 C5080 1.377 . S
C5094 C5093 1.373 . S
C5095 C5079 1.377 . S
C5095 C5093 1.389 . S
C5095 C5096 1.524 . S
C5096 C5095 1.524 . S
C5096 C5097 1.397 . S
C5096 C5101 1.363 . S
C5097 H5068 0.950 . S
C5097 C5096 1.397 . S
C5097 C5098 1.334 . S
C5098 H5069 0.950 . S
C5098 C5097 1.334 . S
C5098 C5099 1.287 . S
C5099 C5098 1.287 . S
C5099 C5100 1.524 . S
C5099 H5102 0.999 . S
C5100 H5070 0.950 . S
C5100 C5099 1.524 . S
C5100 C5101 1.415 . S
C5101 H5071 0.950 . S
C5101 C5096 1.363 . S
C5101 C5100 1.415 . S
H5102 C5099 0.999 . S
H5103 C5084 0.913 . S
H5104 C5122 0.951 . S
H5105 C5124 0.951 . S
H5106 C5126 0.950 . S
H5107 C5127 0.950 . S
H5108 C5129 0.950 . S
H5109 C5132 0.950 . S
H5110 C5133 0.950 . S
H5111 C5135 0.950 . S
H5112 C5136 0.950 . S
H5113 C5137 0.951 . S
H5114 C5139 0.951 . S
H5115 C5141 0.950 . S
H5116 C5142 0.950 . S
H5117 C5144 0.950 . S
H5118 C5147 0.950 . S
H5119 C5148 0.950 . S
H5120 C5150 0.950 . S
H5121 C5151 0.950 . S
C5122 H5104 0.951 . S
C5122 C5123 1.366 . S
C5122 C5124 1.388 . S
C5123 C5122 1.366 . S
C5123 C5127 1.385 . S
C5124 H5105 0.951 . S
C5124 C5122 1.388 . S
C5124 C5125 1.366 . S
C5125 C5124 1.366 . S
C5125 C5126 1.414 . S
C5125 C5128 1.499 . S
C5126 H5106 0.950 . S
C5126 C5125 1.414 . S
C5126 C5127 1.374 . S
C5127 H5107 0.950 . S
C5127 C5123 1.385 . S
C5127 C5126 1.374 . S
C5128 C5125 1.499 . S
C5128 C5129 1.373 . S
C5128 C5130 1.389 . S
C5129 H5108 0.950 . S
C5129 C5128 1.373 . S
C5129 C5145 1.377 . S
C5130 C5128 1.389 . S
C5130 C5131 1.524 . S
C5130 C5144 1.377 . S
C5131 C5130 1.524 . S
C5131 C5132 1.397 . S
C5131 C5136 1.363 . S
C5132 H5109 0.950 . S
C5132 C5131 1.397 . S
C5132 C5133 1.334 . S
C5133 H5110 0.950 . S
C5133 C5132 1.334 . S
C5133 C5134 1.287 . S
C5134 C5133 1.287 . S
C5134 C5135 1.524 . S
C5134 H5153 0.913 . S
C5135 H5111 0.950 . S
C5135 C5134 1.524 . S
C5135 C5136 1.415 . S
C5136 H5112 0.950 . S
C5136 C5131 1.363 . S
C5136 C5135 1.415 . S
C5137 H5113 0.951 . S
C5137 C5138 1.366 . S
C5137 C5139 1.388 . S
C5138 C5137 1.366 . S
C5138 C5142 1.385 . S
C5139 H5114 0.951 . S
C5139 C5137 1.388 . S
C5139 C5140 1.366 . S
C5140 C5139 1.366 . S
C5140 C5141 1.414 . S
C5140 C5143 1.499 . S
C5141 H5115 0.950 . S
C5141 C5140 1.414 . S
C5141 C5142 1.374 . S
C5142 H5116 0.950 . S
C5142 C5138 1.385 . S
C5142 C5141 1.374 . S
C5143 C5140 1.499 . S
C5143 C5144 1.373 . S
C5143 C5145 1.389 . S
C5144 H5117 0.950 . S
C5144 C5130 1.377 . S
C5144 C5143 1.373 . S
C5145 C5129 1.377 . S
C5145 C5143 1.389 . S
C5145 C5146 1.524 . S
C5146 C5145 1.524 . S
C5146 C5147 1.397 . S
C5146 C5151 1.363 . S
C5147 H5118 0.950 . S
C5147 C5146 1.397 . S
C5147 C5148 1.334 . S
C5148 H5119 0.950 . S
C5148 C5147 1.334 . S
C5148 C5149 1.287 . S
C5149 C5148 1.287 . S
C5149 C5150 1.524 . S
C5149 H5152 0.999 . S
C5150 H5120 0.950 . S
C5150 C5149 1.524 . S
C5150 C5151 1.415 . S
C5151 H5121 0.950 . S
C5151 C5146 1.363 . S
C5151 C5150 1.415 . S
H5152 C5149 0.999 . S
H5153 C5134 0.913 . S
H5154 C5172 0.951 . S
H5155 C5174 0.951 . S
H5156 C5176 0.950 . S
H5157 C5177 0.950 . S
H5158 C5179 0.950 . S
H5159 C5182 0.950 . S
H5160 C5183 0.950 . S
H5161 C5185 0.950 . S
H5162 C5186 0.950 . S
H5163 C5187 0.951 . S
H5164 C5189 0.951 . S
H5165 C5191 0.950 . S
H5166 C5192 0.950 . S
H5167 C5194 0.950 . S
H5168 C5197 0.950 . S
H5169 C5198 0.950 . S
H5170 C5200 0.950 . S
H5171 C5201 0.950 . S
C5172 H5154 0.951 . S
C5172 C5173 1.366 . S
C5172 C5174 1.388 . S
C5173 C5172 1.366 . S
C5173 C5177 1.385 . S
C5174 H5155 0.951 . S
C5174 C5172 1.388 . S
C5174 C5175 1.366 . S
C5175 C5174 1.366 . S
C5175 C5176 1.414 . S
C5175 C5178 1.499 . S
C5176 H5156 0.950 . S
C5176 C5175 1.414 . S
C5176 C5177 1.374 . S
C5177 H5157 0.950 . S
C5177 C5173 1.385 . S
C5177 C5176 1.374 . S
C5178 C5175 1.499 . S
C5178 C5179 1.373 . S
C5178 C5180 1.389 . S
C5179 H5158 0.950 . S
C5179 C5178 1.373 . S
C5179 C5195 1.377 . S
C5180 C5178 1.389 . S
C5180 C5181 1.524 . S
C5180 C5194 1.377 . S
C5181 C5180 1.524 . S
C5181 C5182 1.397 . S
C5181 C5186 1.363 . S
C5182 H5159 0.950 . S
C5182 C5181 1.397 . S
C5182 C5183 1.334 . S
C5183 H5160 0.950 . S
C5183 C5182 1.334 . S
C5183 C5184 1.287 . S
C5184 C5183 1.287 . S
C5184 C5185 1.524 . S
C5184 H5203 0.913 . S
C5185 H5161 0.950 . S
C5185 C5184 1.524 . S
C5185 C5186 1.415 . S
C5186 H5162 0.950 . S
C5186 C5181 1.363 . S
C5186 C5185 1.415 . S
C5187 H5163 0.951 . S
C5187 C5188 1.366 . S
C5187 C5189 1.388 . S
C5188 C5187 1.366 . S
C5188 C5192 1.385 . S
C5189 H5164 0.951 . S
C5189 C5187 1.388 . S
C5189 C5190 1.366 . S
C5190 C5189 1.366 . S
C5190 C5191 1.414 . S
C5190 C5193 1.499 . S
C5191 H5165 0.950 . S
C5191 C5190 1.414 . S
C5191 C5192 1.374 . S
C5192 H5166 0.950 . S
C5192 C5188 1.385 . S
C5192 C5191 1.374 . S
C5193 C5190 1.499 . S
C5193 C5194 1.373 . S
C5193 C5195 1.389 . S
C5194 H5167 0.950 . S
C5194 C5180 1.377 . S
C5194 C5193 1.373 . S
C5195 C5179 1.377 . S
C5195 C5193 1.389 . S
C5195 C5196 1.524 . S
C5196 C5195 1.524 . S
C5196 C5197 1.397 . S
C5196 C5201 1.363 . S
C5197 H5168 0.950 . S
C5197 C5196 1.397 . S
C5197 C5198 1.334 . S
C5198 H5169 0.950 . S
C5198 C5197 1.334 . S
C5198 C5199 1.287 . S
C5199 C5198 1.287 . S
C5199 C5200 1.524 . S
C5199 H5202 1.023 . S
C5200 H5170 0.950 . S
C5200 C5199 1.524 . S
C5200 C5201 1.415 . S
C5201 H5171 0.950 . S
C5201 C5196 1.363 . S
C5201 C5200 1.415 . S
H5202 C5199 1.023 . S
H5203 C5184 0.913 . S
H5204 C5222 0.951 . S
H5205 C5224 0.951 . S
H5206 C5226 0.950 . S
H5207 C5227 0.950 . S
H5208 C5229 0.950 . S
H5209 C5232 0.950 . S
H5210 C5233 0.950 . S
H5211 C5235 0.950 . S
H5212 C5236 0.950 . S
H5213 C5237 0.951 . S
H5214 C5239 0.951 . S
H5215 C5241 0.950 . S
H5216 C5242 0.950 . S
H5217 C5244 0.950 . S
H5218 C5247 0.950 . S
H5219 C5248 0.950 . S
H5220 C5250 0.950 . S
H5221 C5251 0.950 . S
C5222 H5204 0.951 . S
C5222 C5223 1.366 . S
C5222 C5224 1.388 . S
C5223 C5222 1.366 . S
C5223 C5227 1.385 . S
C5224 H5205 0.951 . S
C5224 C5222 1.388 . S
C5224 C5225 1.366 . S
C5225 C5224 1.366 . S
C5225 C5226 1.414 . S
C5225 C5228 1.499 . S
C5226 H5206 0.950 . S
C5226 C5225 1.414 . S
C5226 C5227 1.374 . S
C5227 H5207 0.950 . S
C5227 C5223 1.385 . S
C5227 C5226 1.374 . S
C5228 C5225 1.499 . S
C5228 C5229 1.373 . S
C5228 C5230 1.389 . S
C5229 H5208 0.950 . S
C5229 C5228 1.373 . S
C5229 C5245 1.377 . S
C5230 C5228 1.389 . S
C5230 C5231 1.524 . S
C5230 C5244 1.377 . S
C5231 C5230 1.524 . S
C5231 C5232 1.397 . S
C5231 C5236 1.363 . S
C5232 H5209 0.950 . S
C5232 C5231 1.397 . S
C5232 C5233 1.334 . S
C5233 H5210 0.950 . S
C5233 C5232 1.334 . S
C5233 C5234 1.287 . S
C5234 C5233 1.287 . S
C5234 C5235 1.524 . S
C5234 H5253 0.913 . S
C5235 H5211 0.950 . S
C5235 C5234 1.524 . S
C5235 C5236 1.415 . S
C5236 H5212 0.950 . S
C5236 C5231 1.363 . S
C5236 C5235 1.415 . S
C5237 H5213 0.951 . S
C5237 C5238 1.366 . S
C5237 C5239 1.388 . S
C5238 C5237 1.366 . S
C5238 C5242 1.385 . S
C5239 H5214 0.951 . S
C5239 C5237 1.388 . S
C5239 C5240 1.366 . S
C5240 C5239 1.366 . S
C5240 C5241 1.414 . S
C5240 C5243 1.499 . S
C5241 H5215 0.950 . S
C5241 C5240 1.414 . S
C5241 C5242 1.374 . S
C5242 H5216 0.950 . S
C5242 C5238 1.385 . S
C5242 C5241 1.374 . S
C5243 C5240 1.499 . S
C5243 C5244 1.373 . S
C5243 C5245 1.389 . S
C5244 H5217 0.950 . S
C5244 C5230 1.377 . S
C5244 C5243 1.373 . S
C5245 C5229 1.377 . S
C5245 C5243 1.389 . S
C5245 C5246 1.524 . S
C5246 C5245 1.524 . S
C5246 C5247 1.397 . S
C5246 C5251 1.363 . S
C5247 H5218 0.950 . S
C5247 C5246 1.397 . S
C5247 C5248 1.334 . S
C5248 H5219 0.950 . S
C5248 C5247 1.334 . S
C5248 C5249 1.287 . S
C5249 C5248 1.287 . S
C5249 C5250 1.524 . S
C5249 H5252 0.999 . S
C5250 H5220 0.950 . S
C5250 C5249 1.524 . S
C5250 C5251 1.415 . S
C5251 H5221 0.950 . S
C5251 C5246 1.363 . S
C5251 C5250 1.415 . S
H5252 C5249 0.999 . S
H5253 C5234 0.913 . S
H5254 C5272 0.951 . S
H5255 C5274 0.951 . S
H5256 C5276 0.950 . S
H5257 C5277 0.950 . S
H5258 C5279 0.950 . S
H5259 C5282 0.905 1_556 S
H5260 C5283 0.950 1_556 S
H5261 C5285 0.950 . S
H5262 C5286 0.950 . S
H5263 C5287 0.951 . S
H5264 C5289 0.951 . S
H5265 C5291 0.950 . S
H5266 C5292 0.950 . S
H5267 C5294 0.950 . S
H5268 C5297 0.950 1_554 S
H5269 C5298 0.977 . S
H5270 C5300 0.947 1_545 S
H5271 C5301 0.950 . S
C5272 H5254 0.951 . S
C5272 C5273 1.366 . S
C5272 C5274 1.388 . S
C5273 C5272 1.366 . S
C5273 C5277 1.385 1_554 S
C5274 H5255 0.951 . S
C5274 C5272 1.388 . S
C5274 C5275 1.406 . S
C5275 C5274 1.406 . S
C5275 C5276 1.378 1_554 S
C5275 C5278 1.495 1_554 S
C5276 H5256 0.950 . S
C5276 C5275 1.378 1_556 S
C5276 C5277 1.374 . S
C5277 H5257 0.950 . S
C5277 C5273 1.385 1_556 S
C5277 C5276 1.374 . S
C5278 C5275 1.495 1_556 S
C5278 C5279 1.373 . S
C5278 C5280 1.389 1_556 S
C5279 H5258 0.950 . S
C5279 C5278 1.373 . S
C5279 C5295 1.377 . S
C5280 C5278 1.389 1_554 S
C5280 C5281 1.524 . S
C5280 C5294 1.377 . S
C5281 C5280 1.524 . S
C5281 C5282 1.428 . S
C5281 C5286 1.363 . S
C5282 H5259 0.905 1_554 S
C5282 C5281 1.428 . S
C5282 C5283 1.348 . S
C5283 H5260 0.950 1_554 S
C5283 C5282 1.348 . S
C5283 C5284 1.287 . S
C5284 C5283 1.287 . S
C5284 C5285 1.524 . S
C5284 H5303 0.913 . S
C5285 H5261 0.950 . S
C5285 C5284 1.524 . S
C5285 C5286 1.415 . S
C5286 H5262 0.950 . S
C5286 C5281 1.363 . S
C5286 C5285 1.415 . S
C5287 H5263 0.951 . S
C5287 C5288 1.366 . S
C5287 C5289 1.388 . S
C5288 C5287 1.366 . S
C5288 C5292 1.385 1_556 S
C5289 H5264 0.951 . S
C5289 C5287 1.388 . S
C5289 C5290 1.366 . S
C5290 C5289 1.366 . S
C5290 C5291 1.414 1_556 S
C5290 C5293 1.499 . S
C5291 H5265 0.950 . S
C5291 C5290 1.414 1_554 S
C5291 C5292 1.374 . S
C5292 H5266 0.950 . S
C5292 C5288 1.385 1_554 S
C5292 C5291 1.374 . S
C5293 C5290 1.499 . S
C5293 C5294 1.373 1_556 S
C5293 C5295 1.389 . S
C5294 H5267 0.950 . S
C5294 C5280 1.377 . S
C5294 C5293 1.373 1_554 S
C5295 C5279 1.377 . S
C5295 C5293 1.389 . S
C5295 C5296 1.524 . S
C5296 C5295 1.524 . S
C5296 C5297 1.397 . S
C5296 C5301 1.363 . S
C5297 H5268 0.950 1_556 S
C5297 C5296 1.397 . S
C5297 C5298 1.334 1_565 S
C5298 H5269 0.977 . S
C5298 C5297 1.334 1_545 S
C5298 C5299 1.287 . S
C5299 C5298 1.287 . S
C5299 C5300 1.519 1_545 S
C5299 H5302 0.999 . S
C5300 H5270 0.947 1_565 S
C5300 C5299 1.519 1_565 S
C5300 C5301 1.423 . S
C5301 H5271 0.950 . S
C5301 C5296 1.363 . S
C5301 C5300 1.423 . S
H5302 C5299 0.999 . S
H5303 C5284 0.913 . S
H5304 C5322 0.951 . S
H5305 C5324 0.951 . S
H5306 C5326 0.950 . S
H5307 C5327 0.950 . S
H5308 C5329 0.950 . S
H5309 C5332 0.950 . S
H5310 C5333 0.950 . S
H5311 C5335 0.950 . S
H5312 C5336 0.950 . S
H5313 C5337 0.951 . S
H5314 C5339 0.951 . S
H5315 C5341 0.950 . S
H5316 C5342 0.950 . S
H5317 C5344 0.950 . S
H5318 C5347 0.950 . S
H5319 C5348 0.950 . S
H5320 C5350 0.950 . S
H5321 C5351 0.950 . S
C5322 H5304 0.951 . S
C5322 C5323 1.366 . S
C5322 C5324 1.388 . S
C5323 C5322 1.366 . S
C5323 C5327 1.385 . S
C5324 H5305 0.951 . S
C5324 C5322 1.388 . S
C5324 C5325 1.366 . S
C5325 C5324 1.366 . S
C5325 C5326 1.414 . S
C5325 C5328 1.499 . S
C5326 H5306 0.950 . S
C5326 C5325 1.414 . S
C5326 C5327 1.374 . S
C5327 H5307 0.950 . S
C5327 C5323 1.385 . S
C5327 C5326 1.374 . S
C5328 C5325 1.499 . S
C5328 C5329 1.373 . S
C5328 C5330 1.389 . S
C5329 H5308 0.950 . S
C5329 C5328 1.373 . S
C5329 C5345 1.377 . S
C5330 C5328 1.389 . S
C5330 C5331 1.524 . S
C5330 C5344 1.377 . S
C5331 C5330 1.524 . S
C5331 C5332 1.397 . S
C5331 C5336 1.363 . S
C5332 H5309 0.950 . S
C5332 C5331 1.397 . S
C5332 C5333 1.334 . S
C5333 H5310 0.950 . S
C5333 C5332 1.334 . S
C5333 C5334 1.287 . S
C5334 C5333 1.287 . S
C5334 C5335 1.524 . S
C5334 H5353 0.913 . S
C5335 H5311 0.950 . S
C5335 C5334 1.524 . S
C5335 C5336 1.415 . S
C5336 H5312 0.950 . S
C5336 C5331 1.363 . S
C5336 C5335 1.415 . S
C5337 H5313 0.951 . S
C5337 C5338 1.366 . S
C5337 C5339 1.388 . S
C5338 C5337 1.366 . S
C5338 C5342 1.385 . S
C5339 H5314 0.951 . S
C5339 C5337 1.388 . S
C5339 C5340 1.366 . S
C5340 C5339 1.366 . S
C5340 C5341 1.414 . S
C5340 C5343 1.499 . S
C5341 H5315 0.950 . S
C5341 C5340 1.414 . S
C5341 C5342 1.374 . S
C5342 H5316 0.950 . S
C5342 C5338 1.385 . S
C5342 C5341 1.374 . S
C5343 C5340 1.499 . S
C5343 C5344 1.373 . S
C5343 C5345 1.389 . S
C5344 H5317 0.950 . S
C5344 C5330 1.377 . S
C5344 C5343 1.373 . S
C5345 C5329 1.377 . S
C5345 C5343 1.389 . S
C5345 C5346 1.524 . S
C5346 C5345 1.524 . S
C5346 C5347 1.397 . S
C5346 C5351 1.363 . S
C5347 H5318 0.950 . S
C5347 C5346 1.397 . S
C5347 C5348 1.334 . S
C5348 H5319 0.950 . S
C5348 C5347 1.334 . S
C5348 C5349 1.287 . S
C5349 C5348 1.287 . S
C5349 C5350 1.524 . S
C5349 H5352 0.999 . S
C5350 H5320 0.950 . S
C5350 C5349 1.524 . S
C5350 C5351 1.415 . S
C5351 H5321 0.950 . S
C5351 C5346 1.363 . S
C5351 C5350 1.415 . S
H5352 C5349 0.999 . S
H5353 C5334 0.913 . S
H5354 C5372 0.951 . S
H5355 C5374 0.953 . S
H5356 C5376 0.950 . S
H5357 C5377 0.950 . S
H5358 C5379 0.950 . S
H5359 C5382 0.950 . S
H5360 C5383 0.950 . S
H5361 C5385 0.950 . S
H5362 C5386 0.950 . S
H5363 C5387 0.951 . S
H5364 C5389 0.951 . S
H5365 C5391 0.950 . S
H5366 C5392 0.950 . S
H5367 C5394 0.950 . S
H5368 C5397 0.950 . S
H5369 C5398 0.950 . S
H5370 C5400 0.950 . S
H5371 C5401 0.950 . S
C5372 H5354 0.951 . S
C5372 C5373 1.366 1_556 S
C5372 C5374 1.389 . S
C5373 C5372 1.366 1_554 S
C5373 C5377 1.385 . S
C5374 H5355 0.953 . S
C5374 C5372 1.389 . S
C5374 C5375 1.362 1_556 S
C5375 C5374 1.362 1_554 S
C5375 C5376 1.414 . S
C5375 C5378 1.499 . S
C5376 H5356 0.950 . S
C5376 C5375 1.414 . S
C5376 C5377 1.374 . S
C5377 H5357 0.950 . S
C5377 C5373 1.385 . S
C5377 C5376 1.374 . S
C5378 C5375 1.499 . S
C5378 C5379 1.373 . S
C5378 C5380 1.389 . S
C5379 H5358 0.950 . S
C5379 C5378 1.373 . S
C5379 C5395 1.377 . S
C5380 C5378 1.389 . S
C5380 C5381 1.524 . S
C5380 C5394 1.377 . S
C5381 C5380 1.524 . S
C5381 C5382 1.397 . S
C5381 C5386 1.363 . S
C5382 H5359 0.950 . S
C5382 C5381 1.397 . S
C5382 C5383 1.334 . S
C5383 H5360 0.950 . S
C5383 C5382 1.334 . S
C5383 C5384 1.287 . S
C5384 C5383 1.287 . S
C5384 C5385 1.524 . S
C5384 H5403 0.913 . S
C5385 H5361 0.950 . S
C5385 C5384 1.524 . S
C5385 C5386 1.415 . S
C5386 H5362 0.950 . S
C5386 C5381 1.363 . S
C5386 C5385 1.415 . S
C5387 H5363 0.951 . S
C5387 C5388 1.366 . S
C5387 C5389 1.388 . S
C5388 C5387 1.366 . S
C5388 C5392 1.385 . S
C5389 H5364 0.951 . S
C5389 C5387 1.388 . S
C5389 C5390 1.366 . S
C5390 C5389 1.366 . S
C5390 C5391 1.414 . S
C5390 C5393 1.499 . S
C5391 H5365 0.950 . S
C5391 C5390 1.414 . S
C5391 C5392 1.374 . S
C5392 H5366 0.950 . S
C5392 C5388 1.385 . S
C5392 C5391 1.374 . S
C5393 C5390 1.499 . S
C5393 C5394 1.373 . S
C5393 C5395 1.389 . S
C5394 H5367 0.950 . S
C5394 C5380 1.377 . S
C5394 C5393 1.373 . S
C5395 C5379 1.377 . S
C5395 C5393 1.389 . S
C5395 C5396 1.524 . S
C5396 C5395 1.524 . S
C5396 C5397 1.397 1_554 S
C5396 C5401 1.363 . S
C5397 H5368 0.950 . S
C5397 C5396 1.397 1_556 S
C5397 C5398 1.334 . S
C5398 H5369 0.950 . S
C5398 C5397 1.334 . S
C5398 C5399 1.308 . S
C5399 C5398 1.308 . S
C5399 C5400 1.489 1_556 S
C5399 H5402 1.010 . S
C5400 H5370 0.950 . S
C5400 C5399 1.489 1_554 S
C5400 C5401 1.415 . S
C5401 H5371 0.950 . S
C5401 C5396 1.363 . S
C5401 C5400 1.415 . S
H5402 C5399 1.010 . S
H5403 C5384 0.913 . S
H5404 C5422 0.951 . S
H5405 C5424 0.951 . S
H5406 C5426 0.950 . S
H5407 C5427 0.950 . S
H5408 C5429 0.950 . S
H5409 C5432 0.950 . S
H5410 C5433 0.950 . S
H5411 C5435 0.950 . S
H5412 C5436 0.950 . S
H5413 C5437 0.951 . S
H5414 C5439 0.951 . S
H5415 C5441 0.950 . S
H5416 C5442 0.950 . S
H5417 C5444 0.950 . S
H5418 C5447 0.950 . S
H5419 C5448 0.950 . S
H5420 C5450 0.950 . S
H5421 C5451 0.950 . S
C5422 H5404 0.951 . S
C5422 C5423 1.366 . S
C5422 C5424 1.388 . S
C5423 C5422 1.366 . S
C5423 C5427 1.385 . S
C5424 H5405 0.951 . S
C5424 C5422 1.388 . S
C5424 C5425 1.366 . S
C5425 C5424 1.366 . S
C5425 C5426 1.414 . S
C5425 C5428 1.499 . S
C5426 H5406 0.950 . S
C5426 C5425 1.414 . S
C5426 C5427 1.374 . S
C5427 H5407 0.950 . S
C5427 C5423 1.385 . S
C5427 C5426 1.374 . S
C5428 C5425 1.499 . S
C5428 C5429 1.373 . S
C5428 C5430 1.389 . S
C5429 H5408 0.950 . S
C5429 C5428 1.373 . S
C5429 C5445 1.377 . S
C5430 C5428 1.389 . S
C5430 C5431 1.524 . S
C5430 C5444 1.377 . S
C5431 C5430 1.524 . S
C5431 C5432 1.397 . S
C5431 C5436 1.363 . S
C5432 H5409 0.950 . S
C5432 C5431 1.397 . S
C5432 C5433 1.334 . S
C5433 H5410 0.950 . S
C5433 C5432 1.334 . S
C5433 C5434 1.287 . S
C5434 C5433 1.287 . S
C5434 C5435 1.524 . S
C5434 H5453 0.913 . S
C5435 H5411 0.950 . S
C5435 C5434 1.524 . S
C5435 C5436 1.415 . S
C5436 H5412 0.950 . S
C5436 C5431 1.363 . S
C5436 C5435 1.415 . S
C5437 H5413 0.951 . S
C5437 C5438 1.366 . S
C5437 C5439 1.388 . S
C5438 C5437 1.366 . S
C5438 C5442 1.385 . S
C5439 H5414 0.951 . S
C5439 C5437 1.388 . S
C5439 C5440 1.366 . S
C5440 C5439 1.366 . S
C5440 C5441 1.414 . S
C5440 C5443 1.499 . S
C5441 H5415 0.950 . S
C5441 C5440 1.414 . S
C5441 C5442 1.374 . S
C5442 H5416 0.950 . S
C5442 C5438 1.385 . S
C5442 C5441 1.374 . S
C5443 C5440 1.499 . S
C5443 C5444 1.373 . S
C5443 C5445 1.389 . S
C5444 H5417 0.950 . S
C5444 C5430 1.377 . S
C5444 C5443 1.373 . S
C5445 C5429 1.377 . S
C5445 C5443 1.389 . S
C5445 C5446 1.524 . S
C5446 C5445 1.524 . S
C5446 C5447 1.397 . S
C5446 C5451 1.363 . S
C5447 H5418 0.950 . S
C5447 C5446 1.397 . S
C5447 C5448 1.334 . S
C5448 H5419 0.950 . S
C5448 C5447 1.334 . S
C5448 C5449 1.287 . S
C5449 C5448 1.287 . S
C5449 C5450 1.524 . S
C5449 H5452 0.999 . S
C5450 H5420 0.950 . S
C5450 C5449 1.524 . S
C5450 C5451 1.415 . S
C5451 H5421 0.950 . S
C5451 C5446 1.363 . S
C5451 C5450 1.415 . S
H5452 C5449 0.999 . S
H5453 C5434 0.913 . S
H5454 C5472 0.951 . S
H5455 C5474 0.951 . S
H5456 C5476 0.950 . S
H5457 C5477 0.950 . S
H5458 C5479 0.950 . S
H5459 C5482 0.950 . S
H5460 C5483 0.950 . S
H5461 C5485 0.950 . S
H5462 C5486 0.950 . S
H5463 C5487 0.951 . S
H5464 C5489 0.951 . S
H5465 C5491 0.950 . S
H5466 C5492 0.950 . S
H5467 C5494 0.950 . S
H5468 C5497 0.950 . S
H5469 C5498 0.950 . S
H5470 C5500 0.950 . S
H5471 C5501 0.950 . S
C5472 H5454 0.951 . S
C5472 C5473 1.366 . S
C5472 C5474 1.388 . S
C5473 C5472 1.366 . S
C5473 C5477 1.385 . S
C5474 H5455 0.951 . S
C5474 C5472 1.388 . S
C5474 C5475 1.366 . S
C5475 C5474 1.366 . S
C5475 C5476 1.414 . S
C5475 C5478 1.499 . S
C5476 H5456 0.950 . S
C5476 C5475 1.414 . S
C5476 C5477 1.374 . S
C5477 H5457 0.950 . S
C5477 C5473 1.385 . S
C5477 C5476 1.374 . S
C5478 C5475 1.499 . S
C5478 C5479 1.373 . S
C5478 C5480 1.389 . S
C5479 H5458 0.950 . S
C5479 C5478 1.373 . S
C5479 C5495 1.377 . S
C5480 C5478 1.389 . S
C5480 C5481 1.524 . S
C5480 C5494 1.377 . S
C5481 C5480 1.524 . S
C5481 C5482 1.397 . S
C5481 C5486 1.363 . S
C5482 H5459 0.950 . S
C5482 C5481 1.397 . S
C5482 C5483 1.334 . S
C5483 H5460 0.950 . S
C5483 C5482 1.334 . S
C5483 C5484 1.287 . S
C5484 C5483 1.287 . S
C5484 C5485 1.524 . S
C5484 H5503 0.913 . S
C5485 H5461 0.950 . S
C5485 C5484 1.524 . S
C5485 C5486 1.415 . S
C5486 H5462 0.950 . S
C5486 C5481 1.363 . S
C5486 C5485 1.415 . S
C5487 H5463 0.951 . S
C5487 C5488 1.366 . S
C5487 C5489 1.388 . S
C5488 C5487 1.366 . S
C5488 C5492 1.385 . S
C5489 H5464 0.951 . S
C5489 C5487 1.388 . S
C5489 C5490 1.366 . S
C5490 C5489 1.366 . S
C5490 C5491 1.414 . S
C5490 C5493 1.499 . S
C5491 H5465 0.950 . S
C5491 C5490 1.414 . S
C5491 C5492 1.374 . S
C5492 H5466 0.950 . S
C5492 C5488 1.385 . S
C5492 C5491 1.374 . S
C5493 C5490 1.499 . S
C5493 C5494 1.373 . S
C5493 C5495 1.389 . S
C5494 H5467 0.950 . S
C5494 C5480 1.377 . S
C5494 C5493 1.373 . S
C5495 C5479 1.377 . S
C5495 C5493 1.389 . S
C5495 C5496 1.524 . S
C5496 C5495 1.524 . S
C5496 C5497 1.397 . S
C5496 C5501 1.363 . S
C5497 H5468 0.950 . S
C5497 C5496 1.397 . S
C5497 C5498 1.334 . S
C5498 H5469 0.950 . S
C5498 C5497 1.334 . S
C5498 C5499 1.287 . S
C5499 C5498 1.287 . S
C5499 C5500 1.524 . S
C5499 H5502 0.999 . S
C5500 H5470 0.950 . S
C5500 C5499 1.524 . S
C5500 C5501 1.415 . S
C5501 H5471 0.950 . S
C5501 C5496 1.363 . S
C5501 C5500 1.415 . S
H5502 C5499 0.999 . S
H5503 C5484 0.913 . S
C738 C352 1.026 . S
C723 C5 1.040 . S
C773 C23 1.313 . S
C788 C380 1.229 . S
C823 C39 0.974 . S
C838 C398 0.965 . S
C888 C424 1.240 . S
C873 C42 1.343 . S
C923 C19 1.386 . S
C938 C447 1.269 . S
C988 C467 0.997 . S
C973 C28 1.004 . S
C1038 C495 1.202 . S
C1023 C53 1.279 . S
C1073 C9 0.997 . S
C1088 C513 0.987 . S
C1123 C65 1.366 . S
C1138 C354 1.366 . S
C1173 C75 0.964 . S
C1188 C376 0.953 . S
C1238 C400 1.384 . S
C1223 C93 1.383 . S
C1288 C421 0.936 . S
C1273 C109 0.942 . S
C1323 C56 1.011 . S
C1338 C444 1.007 . S
C1388 C469 1.252 . S
C1373 C81 1.245 . S
C1438 C491 0.971 . S
C1423 C84 0.978 . S
C1488 C515 1.324 . S
C1473 C103 1.326 . S
C1538 C355 0.800 . S
C1523 C107 0.817 . S
C1588 C538 1.100 . S
C1573 C121 1.098 . S
C1623 C131 0.941 . S
C1638 C562 0.893 . S
C1688 C586 1.055 . S
C1673 C140 1.071 . S
C1723 C61 0.883 . S
C1738 C516 0.851 . S
C1788 C401 0.829 . S
C1773 C70 0.855 . S
C1823 C137 1.028 . S
C1838 C607 1.030 . S
C1888 C632 0.972 . S
C1873 C165 0.986 . S
C1923 C173 1.037 . S
C1938 C353 1.012 1_556 S
C1988 C630 0.873 . S
C1973 C182 0.874 . S
C2023 C207 0.979 . S
C2038 C399 0.972 . S
C2073 C219 0.828 . S
C2088 C609 0.821 . S
C2138 C448 0.851 . S
C2123 C187 0.863 . S
C2188 C560 1.009 . S
C2173 C205 1.019 . S
C2238 C492 0.867 . S
C2223 C221 0.868 . S
C2288 C652 0.981 . S
C2273 C168 0.987 . S
C2338 C357 0.794 . S
C2323 C224 0.804 . S
C2373 C243 1.234 . S
C2388 C628 1.213 . S
C2438 C403 0.799 . S
C2423 C252 0.813 . S
C2473 C277 1.149 . S
C2488 C606 1.131 . S
C2523 C233 1.266 . S
C2538 C445 1.240 1_565 S
C2573 C249 0.714 . S
C2588 C564 0.722 . S
C2638 C490 1.272 . S
C2623 C261 1.287 1_545 S
C2673 C271 0.775 . S
C2688 C656 0.768 . S
C2723 C266 1.224 . S
C2738 C356 1.188 . S
C2773 C280 1.097 . S
C2788 C541 1.049 . S
C2823 C299 1.301 . S
C2838 C471 1.261 . S
C2873 C317 1.140 . S
C2888 C585 1.058 . S
C2938 C655 1.251 . S
C2923 C229 1.289 . S
C2988 C402 1.216 . S
C2973 C247 1.254 . S
C3038 C426 1.009 . S
C3023 C305 1.057 . S
C3088 C378 0.996 . S
C3073 C333 1.060 . S
C3123 C33 1.040 . S
C3138 C674 1.026 . S
C3188 C633 1.228 . S
C3173 C51 1.313 . S
C3238 C697 0.964 . S
C3223 C11 0.974 . S
C3273 C14 1.343 . S
C3288 C608 1.239 . S
C3323 C47 1.386 . S
C3338 C539 1.267 . S
C3388 C559 0.996 . S
C3373 C0 1.004 . S
C3438 C587 1.202 . S
C3423 C25 1.279 . S
C3488 C651 0.988 . S
C3473 C37 0.996 . S
C3538 C676 1.366 . S
C3523 C163 1.366 . S
C3573 C117 0.964 . S
C3588 C629 0.954 . S
C3623 C135 1.383 . S
C3638 C699 1.384 . S
C3688 C605 0.936 . S
C3673 C151 0.942 . S
C3738 C536 1.007 . S
C3723 C154 1.012 . S
C3773 C123 1.245 . S
C3788 C561 1.252 . S
C3838 C583 0.971 . S
C3823 C126 0.976 . S
C3873 C145 1.326 . S
C3888 C653 1.324 . S
C3938 C677 0.800 . S
C3923 C149 0.817 . S
C3988 C446 1.085 1_565 S
C3973 C79 1.098 . S
C4038 C470 0.893 . S
C4023 C89 0.941 . S
C4073 C98 1.070 . S
C4088 C494 1.054 . S
C4138 C654 0.850 . S
C4123 C159 0.883 . S
C4173 C112 0.854 . S
C4188 C700 0.829 . S
C4238 C423 1.030 . S
C4223 C95 1.028 . S
C4288 C379 0.971 . S
C4273 C67 0.985 . S
C4323 C201 1.036 . S
C4338 C675 1.026 . S
C4388 C377 0.873 . S
C4373 C210 0.874 . S
C4438 C698 0.972 1_556 S
C4423 C179 0.979 . S
C4473 C191 0.828 . S
C4488 C425 0.821 . S
C4523 C215 0.863 . S
C4538 C540 0.850 . S
C4573 C177 1.019 . S
C4588 C468 1.008 . S
C4623 C193 0.868 . S
C4638 C584 0.867 . S
C4673 C196 0.988 . S
C4688 C514 0.981 . S
C4738 C679 0.792 . S
C4723 C322 0.805 . S
C4773 C285 1.235 . S
C4788 C375 1.214 . S
C4838 C702 0.800 . S
C4823 C294 0.812 . S
C4873 C319 1.149 . S
C4888 C422 1.132 . S
C4923 C331 1.266 . S
C4938 C537 1.247 . S
C4988 C472 0.723 . S
C4973 C291 0.713 . S
C5023 C303 1.292 . S
C5038 C582 1.271 . S
C5088 C518 0.768 . S
C5073 C313 0.775 . S
C5138 C678 1.187 . S
C5123 C308 1.224 . S
C5188 C449 1.050 . S
C5173 C238 1.097 . S
C5223 C257 1.300 . S
C5238 C563 1.253 . S
C5288 C493 1.059 1_556 S
C5273 C275 1.140 . S
C5338 C517 1.250 . S
C5323 C327 1.289 . S
C5373 C289 1.254 . S
C5388 C701 1.216 . S
C5438 C610 1.010 . S
C5423 C263 1.064 . S
C5488 C631 0.995 . S
C5473 C235 1.061 . S
