# Generated by pormake.
# Topology rtl, (3,6)-cn, num edge types: 1
# Building blocks:
#     Node 0, Type 0, BuildingBlock: OLANEW_clean_sbu_2, # of connection points: 3
#     Node 1, Type 0, BuildingBlock: OLANEW_clean_sbu_2, # of connection points: 3
#     Node 2, Type 0, BuildingBlock: OLANEW_clean_sbu_2, # of connection points: 3
#     Node 3, Type 0, BuildingBlock: OLANEW_clean_sbu_2, # of connection points: 3
#     Node 4, Type 1, BuildingBlock: KUMBUR_clean_sbu_1, # of connection points: 6
#     Node 5, Type 1, BuildingBlock: KUMBUR_clean_sbu_1, # of connection points: 6
#     Edge 6, Type (0, 1), BuildingBlock: UVAHIK_clean_linker_0, # of connection points: 2
#     Edge 7, Type (0, 1), BuildingBlock: UVAHIK_clean_linker_0, # of connection points: 2
#     Edge 8, Type (0, 1), BuildingBlock: UVAHIK_clean_linker_0, # of connection points: 2
#     Edge 9, Type (0, 1), BuildingBlock: UVAHIK_clean_linker_0, # of connection points: 2
#     Edge 10, Type (0, 1), BuildingBlock: UVAHIK_clean_linker_0, # of connection points: 2
#     Edge 11, Type (0, 1), BuildingBlock: UVAHIK_clean_linker_0, # of connection points: 2
#     Edge 12, Type (0, 1), BuildingBlock: UVAHIK_clean_linker_0, # of connection points: 2
#     Edge 13, Type (0, 1), BuildingBlock: UVAHIK_clean_linker_0, # of connection points: 2
#     Edge 14, Type (0, 1), BuildingBlock: UVAHIK_clean_linker_0, # of connection points: 2
#     Edge 15, Type (0, 1), BuildingBlock: UVAHIK_clean_linker_0, # of connection points: 2
#     Edge 16, Type (0, 1), BuildingBlock: UVAHIK_clean_linker_0, # of connection points: 2
#     Edge 17, Type (0, 1), BuildingBlock: UVAHIK_clean_linker_0, # of connection points: 2
# Relax obj value: 0.040
# Max RMSD: 0.158
# Mean RMSD: 0.126
data_MOF--net-rtl--node1-OLANEW_clean_sbu_2--node2-KUMBUR_clean_sbu_1--edge1-UVAHIK_clean_linker_0
_symmetry_space_group_name_H-M    P1
_symmetry_Int_Tables_number       1
_symmetry_cell_setting            triclinic
loop_
_symmetry_equiv_pos_as_xyz
'x, y, z'
_cell_length_a     47.657763
_cell_length_b     47.247166
_cell_length_c     36.2203
_cell_angle_alpha  78.394833
_cell_angle_beta   102.1789
_cell_angle_gamma 90.75535
loop_
_atom_site_label
_atom_site_type_symbol
_atom_site_fract_x
_atom_site_fract_y
_atom_site_fract_z
_atom_type_partial_charge
O0 O 0.21277 0.83296 0.99757 0.0
Cd1 Cd 0.23854 0.81171 0.06301 0.0
O2 O 0.22305 0.8779 0.00184 0.0
Cd3 Cd 0.23747 0.8682 0.06457 0.0
O4 O 0.22719 0.87602 0.11786 0.0
C5 C 0.20533 0.89276 0.11204 0.0
O6 O 0.19206 0.90324 0.07628 0.0
C7 C 0.21209 0.85964 0.98192 0.0
C8 C 0.27751 0.76865 0.06076 0.0
O9 O 0.25153 0.76276 0.06304 0.0
O10 O 0.28518 0.79483 0.06004 0.0
O11 O 0.64682 0.74896 0.66479 0.0
Cd12 Cd 0.65876 0.78252 0.60957 0.0
O13 O 0.63223 0.72438 0.61989 0.0
Cd14 Cd 0.61563 0.6902 0.58916 0.0
O15 O 0.6088 0.66948 0.53933 0.0
C16 C 0.58935 0.65152 0.53206 0.0
O17 O 0.57208 0.64398 0.55601 0.0
C18 C 0.63485 0.72665 0.65487 0.0
C19 C 0.71162 0.80927 0.61874 0.0
O20 O 0.68906 0.82174 0.62284 0.0
O21 O 0.70944 0.78366 0.61189 0.0
O22 O 0.74661 0.13349 0.13682 0.0
Cd23 Cd 0.70505 0.14283 0.08277 0.0
O24 O 0.77308 0.1269 0.09668 0.0
Cd25 Cd 0.80973 0.11882 0.07196 0.0
O26 O 0.83548 0.11268 0.03057 0.0
C27 C 0.84918 0.08907 0.03399 0.0
O28 O 0.84869 0.06818 0.06386 0.0
C29 C 0.77099 0.12721 0.13108 0.0
C30 C 0.67605 0.1953 0.07524 0.0
O31 O 0.6699 0.17231 0.09724 0.0
O32 O 0.69615 0.19354 0.05713 0.0
O33 O 0.36222 0.26107 0.56947 0.0
Cd34 Cd 0.35274 0.22246 0.53258 0.0
O35 O 0.36574 0.29102 0.51625 0.0
Cd36 Cd 0.37644 0.33013 0.47858 0.0
O37 O 0.38662 0.35763 0.42713 0.0
C38 C 0.41259 0.36016 0.42374 0.0
O39 O 0.43302 0.34721 0.45227 0.0
C40 C 0.36729 0.28628 0.55248 0.0
C41 C 0.29971 0.19635 0.53125 0.0
O42 O 0.32104 0.18857 0.55965 0.0
O43 O 0.3032 0.21697 0.50376 0.0
Tb44 Tb 0.01838 0.96798 0.52774 0.0
C45 C 0.9647 0.08958 0.51388 0.0
N46 N 0.99022 0.07817 0.53614 0.0
C47 C 0.01352 0.12201 0.51548 0.0
C48 C 0.96273 0.1176 0.49081 0.0
C49 C 0.01447 0.094 0.53761 0.0
C50 C 0.98757 0.13385 0.49187 0.0
C51 C 0.9141 0.08316 0.48932 0.0
C52 C 0.94077 0.07241 0.51293 0.0
C53 C 0.91201 0.11109 0.46625 0.0
C54 C 0.93625 0.12827 0.467 0.0
Tb55 Tb 0.98929 0.03211 0.57012 0.0
N56 N 0.94383 0.04505 0.53463 0.0
C57 C 0.89032 0.06555 0.48972 0.0
C58 C 0.92019 0.02873 0.53722 0.0
C59 C 0.8933 0.03841 0.51425 0.0
H60 H 0.03447 0.08526 0.55636 0.0
H61 H 0.87477 0.0251 0.51598 0.0
H62 H 0.98114 0.91204 0.55913 0.0
H63 H 0.1332 0.98448 0.54992 0.0
H64 H 0.92144 0.0087 0.55773 0.0
H65 H 0.86944 0.07298 0.472 0.0
H66 H 0.08291 0.99414 0.51638 0.0
H67 H 0.03279 0.13448 0.51667 0.0
H68 H 0.89173 0.11962 0.44775 0.0
H69 H 0.93432 0.14972 0.44894 0.0
H70 H 0.99075 0.86524 0.60528 0.0
H71 H 0.98695 0.15548 0.47457 0.0
H72 H 0.14641 0.94185 0.60302 0.0
N73 N 0.0248 0.92412 0.56913 0.0
C74 C 0.0523 0.91625 0.58761 0.0
C75 C 0.00823 0.87945 0.60069 0.0
C76 C 0.05878 0.88982 0.61427 0.0
C77 C 0.00282 0.90601 0.57475 0.0
C78 C 0.0363 0.87137 0.62069 0.0
N79 N 0.0666 0.9605 0.55426 0.0
C80 C 0.0878 0.97689 0.54141 0.0
C81 C 0.10259 0.92803 0.59933 0.0
C82 C 0.07379 0.93534 0.58055 0.0
C83 C 0.12403 0.94666 0.58929 0.0
C84 C 0.11664 0.97085 0.55955 0.0
H85 H 0.04039 0.85087 0.64098 0.0
H86 H 0.0927 0.86284 0.65486 0.0
H87 H 0.13112 0.89618 0.64154 0.0
O88 O 0.03544 0.96709 0.47796 0.0
O89 O 0.01964 0.96169 0.58996 0.0
O90 O 0.02729 0.00657 0.60489 0.0
O91 O 0.00648 0.93448 0.49819 0.0
O92 O 0.03626 0.01167 0.51596 0.0
O93 O 0.03486 0.03075 0.56973 0.0
O94 O 0.96805 0.0289 0.6162 0.0
O95 O 0.98661 0.03827 0.50753 0.0
O96 O 0.98032 0.99309 0.49305 0.0
O97 O 0.9964 0.06358 0.6044 0.0
O98 O 0.97017 0.98939 0.58139 0.0
O99 O 0.9729 0.96747 0.53026 0.0
C100 C 0.03119 0.97832 0.61364 0.0
C101 C 0.02194 0.92891 0.4407 0.0
C102 C 0.04256 0.92029 0.3876 0.0
C103 C 0.01994 0.90195 0.37792 0.0
C104 C 0.99969 0.91023 0.43071 0.0
C105 C 0.99875 0.89686 0.39952 0.0
C106 C 0.04359 0.93369 0.41922 0.0
C107 C 0.0463 0.0287 0.54028 0.0
C108 C 0.02162 0.94381 0.47271 0.0
C109 C 0.0873 0.88292 0.63398 0.0
C110 C 0.10915 0.90199 0.62656 0.0
C111 C 0.97587 0.02121 0.48398 0.0
C112 C 0.99529 0.04533 0.66948 0.0
C113 C 0.99243 0.043 0.73658 0.0
C114 C 0.02148 0.03379 0.74816 0.0
C115 C 0.02435 0.03649 0.68167 0.0
C116 C 0.97944 0.04866 0.69699 0.0
C117 C 0.03729 0.03061 0.72082 0.0
C118 C 0.96155 0.97038 0.55951 0.0
C119 C 0.98124 0.05066 0.62831 0.0
H120 H 0.01885 0.89133 0.3538 0.0
H121 H 0.98273 0.90622 0.4467 0.0
H122 H 0.98146 0.88262 0.39194 0.0
H123 H 0.06086 0.94805 0.42663 0.0
H124 H 0.03216 0.02956 0.77833 0.0
H125 H 0.03708 0.03428 0.66095 0.0
H126 H 0.95695 0.05535 0.68758 0.0
H127 H 0.05969 0.02375 0.72998 0.0
Tb128 Tb 0.46582 0.50565 0.96856 0.0
C129 C 0.57215 0.57498 0.98087 0.0
N130 N 0.57256 0.54694 0.99902 0.0
C131 C 0.61377 0.53697 0.97487 0.0
C132 C 0.59206 0.58507 0.95782 0.0
C133 C 0.59335 0.52796 0.99711 0.0
C134 C 0.61299 0.56561 0.95487 0.0
C135 C 0.55107 0.62309 0.96836 0.0
C136 C 0.55185 0.59353 0.98594 0.0
C137 C 0.56989 0.63312 0.9438 0.0
C138 C 0.59042 0.61414 0.93862 0.0
Tb139 Tb 0.53839 0.5337 0.03425 0.0
N140 N 0.53427 0.58298 0.01023 0.0
C141 C 0.53232 0.64188 0.97735 0.0
C142 C 0.51871 0.60199 0.02261 0.0
C143 C 0.51662 0.63138 0.00538 0.0
H144 H 0.59374 0.50569 0.01212 0.0
H145 H 0.50342 0.64603 0.01442 0.0
H146 H 0.43519 0.56501 0.91086 0.0
H147 H 0.41752 0.41023 0.03518 0.0
H148 H 0.50821 0.59498 0.04636 0.0
H149 H 0.53102 0.66473 0.96447 0.0
H150 H 0.45538 0.43778 0.00728 0.0
H151 H 0.62994 0.52178 0.97295 0.0
H152 H 0.56933 0.65566 0.92964 0.0
H153 H 0.6052 0.62224 0.92024 0.0
H154 H 0.38886 0.59226 0.89794 0.0
H155 H 0.62865 0.5725 0.93739 0.0
H156 H 0.37183 0.43502 0.03434 0.0
N157 N 0.42312 0.53091 0.95191 0.0
C158 C 0.40179 0.51899 0.96874 0.0
C159 C 0.39227 0.57173 0.91812 0.0
C160 C 0.37494 0.53335 0.96199 0.0
C161 C 0.41844 0.55632 0.92551 0.0
C162 C 0.37058 0.56043 0.937 0.0
N163 N 0.43172 0.47776 0.99273 0.0
C164 C 0.43548 0.44865 0.00696 0.0
C165 C 0.3839 0.47647 0.00489 0.0
C166 C 0.40621 0.49118 0.98988 0.0
C167 C 0.38841 0.44716 0.02236 0.0
C168 C 0.41414 0.43307 0.02278 0.0
H169 H 0.35027 0.57227 0.93103 0.0
H170 H 0.33235 0.53038 0.97457 0.0
H171 H 0.3402 0.4804 0.01215 0.0
O172 O 0.48553 0.48786 0.93125 0.0
O173 O 0.47042 0.48906 0.03076 0.0
O174 O 0.51065 0.50733 0.06782 0.0
O175 O 0.43962 0.49435 0.91958 0.0
O176 O 0.49917 0.47213 0.99697 0.0
O177 O 0.54225 0.48875 0.03003 0.0
O178 O 0.55785 0.55268 0.08122 0.0
O179 O 0.53384 0.52576 0.97545 0.0
O180 O 0.48887 0.5431 0.94636 0.0
O181 O 0.57506 0.51361 0.07293 0.0
O182 O 0.49607 0.54768 0.04001 0.0
O183 O 0.47178 0.54958 0.97837 0.0
C184 C 0.48739 0.49163 0.0638 0.0
C185 C 0.46093 0.49751 0.86599 0.0
C186 C 0.45314 0.48889 0.8004 0.0
C187 C 0.46104 0.51738 0.78765 0.0
C188 C 0.4679 0.52611 0.85258 0.0
C189 C 0.46822 0.53588 0.81363 0.0
C190 C 0.45328 0.47908 0.8398 0.0
C191 C 0.52609 0.46859 0.01665 0.0
C192 C 0.46132 0.48648 0.90705 0.0
C193 C 0.35309 0.51962 0.979 0.0
C194 C 0.35755 0.49116 1.00041 0.0
C195 C 0.51605 0.5409 0.94565 0.0
C196 C 0.57662 0.51711 0.13737 0.0
C197 C 0.57363 0.52058 0.20296 0.0
C198 C 0.57655 0.49031 0.21404 0.0
C199 C 0.58013 0.48687 0.14954 0.0
C200 C 0.57376 0.53388 0.16449 0.0
C201 C 0.57991 0.47366 0.18751 0.0
C202 C 0.47311 0.5553 0.01253 0.0
C203 C 0.57575 0.53094 0.09656 0.0
H204 H 0.46106 0.5255 0.75747 0.0
H205 H 0.47294 0.54085 0.87211 0.0
H206 H 0.47386 0.55793 0.80351 0.0
H207 H 0.44767 0.45701 0.85014 0.0
H208 H 0.57686 0.47952 0.2435 0.0
H209 H 0.58267 0.47325 0.12966 0.0
H210 H 0.57129 0.55719 0.15558 0.0
H211 H 0.58237 0.45039 0.19643 0.0
C212 C 0.26622 0.16382 0.56336 0.0
C213 C 0.27215 0.18136 0.52985 0.0
C214 C 0.24062 0.14891 0.56195 0.0
C215 C 0.18551 0.1169 0.49832 0.0
H216 H 0.13992 0.12032 0.57427 0.0
C217 C 0.0778 0.05725 0.49958 0.0
C218 C 0.07206 0.0457 0.53598 0.0
C219 C 0.10146 0.07486 0.49638 0.0
C220 C 0.15256 0.11875 0.55314 0.0
H221 H 0.25597 0.19691 0.46852 0.0
H222 H 0.21136 0.1703 0.466 0.0
H223 H 0.18261 0.1491 0.57367 0.0
H224 H 0.08707 0.04228 0.59755 0.0
H225 H 0.12858 0.07181 0.59222 0.0
H226 H 0.15607 0.08574 0.4786 0.0
C227 C 0.22651 0.16833 0.49333 0.0
C228 C 0.17693 0.13541 0.55272 0.0
C229 C 0.25193 0.18366 0.49486 0.0
C230 C 0.09074 0.05128 0.56906 0.0
C231 C 0.11446 0.06843 0.56594 0.0
C232 C 0.16127 0.09986 0.49906 0.0
C233 C 0.22062 0.15085 0.52689 0.0
C234 C 0.19383 0.13442 0.52561 0.0
C235 C 0.11991 0.08093 0.52959 0.0
C236 C 0.1447 0.10026 0.52687 0.0
H237 H 0.28136 0.1616 0.59074 0.0
H238 H 0.23669 0.13541 0.5882 0.0
H239 H 0.19829 0.11564 0.47724 0.0
H240 H 0.0636 0.05333 0.47365 0.0
H241 H 0.10486 0.08423 0.4679 0.0
C242 C 0.32678 0.75228 0.05814 0.0
C243 C 0.29788 0.74603 0.05823 0.0
C244 C 0.34579 0.73119 0.05458 0.0
C245 C 0.35525 0.65197 0.06348 0.0
H246 H 0.41081 0.67534 0.99979 0.0
C247 C 0.44543 0.57428 0.05419 0.0
C248 C 0.45219 0.57602 0.01794 0.0
C249 C 0.42636 0.59453 0.05969 0.0
C250 C 0.39527 0.66836 0.0174 0.0
H251 H 0.26633 0.71262 0.05487 0.0
H252 H 0.29933 0.67601 0.04796 0.0
H253 H 0.37792 0.71133 0.00807 0.0
H254 H 0.44539 0.60088 0.95949 0.0
H255 H 0.41124 0.63549 0.96844 0.0
H256 H 0.37211 0.60882 0.07185 0.0
C257 C 0.30747 0.69706 0.05131 0.0
C258 C 0.37665 0.6891 0.02261 0.0
C259 C 0.28849 0.71812 0.05505 0.0
C260 C 0.4398 0.59848 0.9874 0.0
C261 C 0.42066 0.61864 0.99278 0.0
C262 C 0.37384 0.63118 0.05815 0.0
C263 C 0.33634 0.70336 0.05082 0.0
C264 C 0.35638 0.6812 0.0457 0.0
C265 C 0.41379 0.61704 0.02905 0.0
C266 C 0.39405 0.6391 0.03497 0.0
H267 H 0.33475 0.77352 0.06074 0.0
H268 H 0.36797 0.73669 0.05497 0.0
H269 H 0.34014 0.64513 0.08179 0.0
H270 H 0.45496 0.55727 0.0783 0.0
H271 H 0.42191 0.59288 0.08814 0.0
C272 C 0.73899 0.85498 0.61527 0.0
C273 C 0.73885 0.82478 0.61907 0.0
C274 C 0.76394 0.87009 0.61127 0.0
C275 C 0.84227 0.86368 0.62883 0.0
H276 H 0.83488 0.9279 0.54134 0.0
C277 C 0.93141 0.94612 0.60481 0.0
C278 C 0.93734 0.952 0.56766 0.0
C279 C 0.90804 0.92945 0.61232 0.0
C280 C 0.83725 0.90997 0.5658 0.0
H281 H 0.76511 0.78663 0.62335 0.0
H282 H 0.80894 0.81309 0.61724 0.0
H283 H 0.79238 0.90123 0.55379 0.0
H284 H 0.92354 0.94503 0.50928 0.0
H285 H 0.88229 0.91634 0.52229 0.0
H286 H 0.88716 0.87271 0.64103 0.0
C287 C 0.78962 0.825 0.61702 0.0
C288 C 0.81294 0.89489 0.57311 0.0
C289 C 0.76453 0.8099 0.6204 0.0
C290 C 0.91955 0.94075 0.53822 0.0
C291 C 0.89588 0.9245 0.54559 0.0
C292 C 0.86655 0.87911 0.6219 0.0
C293 C 0.78939 0.85529 0.61162 0.0
C294 C 0.81522 0.87155 0.60462 0.0
C295 C 0.88987 0.91876 0.58268 0.0
C296 C 0.86426 0.9023 0.59019 0.0
H297 H 0.71956 0.86709 0.61406 0.0
H298 H 0.76327 0.89343 0.60751 0.0
H299 H 0.84458 0.84581 0.65336 0.0
H300 H 0.94485 0.95441 0.6281 0.0
H301 H 0.90377 0.92547 0.64111 0.0
C302 C 0.66455 0.24711 0.0427 0.0
C303 C 0.66011 0.22296 0.0704 0.0
C304 C 0.64899 0.273 0.03747 0.0
C305 C 0.60869 0.31414 0.08623 0.0
H306 H 0.57627 0.35596 0.98251 0.0
C307 C 0.52724 0.41824 0.00411 0.0
C308 C 0.53954 0.43926 0.02461 0.0
C309 C 0.54079 0.39109 0.01044 0.0
C310 C 0.585 0.34442 0.01165 0.0
H311 H 0.63603 0.20716 0.11458 0.0
H312 H 0.60901 0.25247 0.10556 0.0
H313 H 0.60239 0.31004 0.99191 0.0
H314 H 0.5754 0.44777 0.0687 0.0
H315 H 0.59881 0.40046 0.07973 0.0
H316 H 0.59138 0.34859 0.10595 0.0
C317 C 0.62458 0.25134 0.08797 0.0
C318 C 0.6002 0.31829 0.01702 0.0
C319 C 0.63997 0.22536 0.09301 0.0
C320 C 0.56534 0.43222 0.05221 0.0
C321 C 0.57871 0.405 0.05877 0.0
C322 C 0.5937 0.3404 0.08085 0.0
C323 C 0.62882 0.2754 0.06002 0.0
C324 C 0.61229 0.30292 0.05436 0.0
C325 C 0.56674 0.38424 0.0377 0.0
C326 C 0.58177 0.35586 0.0435 0.0
H327 H 0.67991 0.24598 0.02482 0.0
H328 H 0.65298 0.29128 0.01601 0.0
H329 H 0.61791 0.30288 0.11535 0.0
H330 H 0.50741 0.4229 0.98263 0.0
H331 H 0.53094 0.3754 0.99403 0.0
C332 C 0.16863 0.91645 0.13681 0.0
C333 C 0.19421 0.89985 0.14445 0.0
C334 C 0.15725 0.92255 0.1669 0.0
C335 C 0.15799 0.89587 0.27006 0.0
H336 H 0.1149 0.96765 0.25649 0.0
C337 C 0.09376 0.91784 0.38116 0.0
C338 C 0.06478 0.92511 0.36422 0.0
C339 C 0.114 0.9186 0.358 0.0
C340 C 0.127 0.94757 0.26077 0.0
H341 H 0.22829 0.87715 0.18985 0.0
H342 H 0.20857 0.8882 0.24264 0.0
H343 H 0.14291 0.96158 0.20934 0.0
H344 H 0.03435 0.94022 0.31043 0.0
H345 H 0.06968 0.94217 0.27006 0.0
H346 H 0.14163 0.88183 0.32131 0.0
C347 C 0.19709 0.89613 0.21325 0.0
C348 C 0.14292 0.94399 0.23368 0.0
C349 C 0.20846 0.88989 0.183 0.0
C350 C 0.0566 0.93452 0.32408 0.0
C351 C 0.07683 0.93575 0.30106 0.0
C352 C 0.14227 0.89959 0.29739 0.0
C353 C 0.17122 0.91241 0.20554 0.0
C354 C 0.15786 0.91774 0.23729 0.0
C355 C 0.10561 0.92718 0.31767 0.0
C356 C 0.12594 0.92515 0.29238 0.0
H357 H 0.157 0.9244 0.10748 0.0
H358 H 0.137 0.93461 0.15976 0.0
H359 H 0.169 0.87528 0.27366 0.0
H360 H 0.10048 0.91035 0.41207 0.0
H361 H 0.13607 0.91197 0.37151 0.0
C362 C 0.60164 0.68655 0.6713 0.0
C363 C 0.624 0.70452 0.6833 0.0
C364 C 0.5903 0.66695 0.69838 0.0
C365 C 0.60537 0.62902 0.80086 0.0
H366 H 0.52255 0.62309 0.78346 0.0
C367 C 0.55027 0.54644 0.90123 0.0
C368 C 0.52685 0.55724 0.91257 0.0
C369 C 0.56175 0.56292 0.87163 0.0
C370 C 0.5457 0.62457 0.78878 0.0
H371 H 0.65198 0.71598 0.73323 0.0
H372 H 0.6321 0.68192 0.7805 0.0
H373 H 0.54401 0.65476 0.73564 0.0
H374 H 0.49629 0.59307 0.90117 0.0
H375 H 0.51634 0.62197 0.84953 0.0
H376 H 0.60696 0.59932 0.85448 0.0
C377 C 0.6236 0.68265 0.75012 0.0
C378 C 0.55804 0.64247 0.76119 0.0
C379 C 0.63488 0.70231 0.72303 0.0
C380 C 0.51435 0.58427 0.89286 0.0
C381 C 0.52581 0.60075 0.86329 0.0
C382 C 0.59303 0.61101 0.8284 0.0
C383 C 0.601 0.6649 0.73813 0.0
C384 C 0.58801 0.64505 0.76697 0.0
C385 C 0.5499 0.59044 0.85269 0.0
C386 C 0.56304 0.60871 0.82276 0.0
H387 H 0.59215 0.68824 0.64106 0.0
H388 H 0.57301 0.65349 0.68814 0.0
H389 H 0.62853 0.63032 0.80607 0.0
H390 H 0.55995 0.52542 0.91563 0.0
H391 H 0.58004 0.55419 0.86375 0.0
C392 C 0.81964 0.10368 0.16284 0.0
C393 C 0.79569 0.12007 0.16439 0.0
C394 C 0.84167 0.09533 0.19556 0.0
C395 C 0.87074 0.10932 0.29426 0.0
H396 H 0.90219 0.03122 0.31346 0.0
C397 C 0.95944 0.0628 0.42857 0.0
C398 C 0.95709 0.03384 0.44639 0.0
C399 C 0.94139 0.07459 0.39311 0.0
C400 C 0.89349 0.05302 0.30873 0.0
H401 H 0.77628 0.1407 0.20165 0.0
H402 H 0.81407 0.12556 0.25869 0.0
H403 H 0.86797 0.04987 0.25371 0.0
H404 H 0.93384 0.99459 0.44137 0.0
H405 H 0.90217 0.0151 0.37998 0.0
H406 H 0.89529 0.11192 0.35018 0.0
C407 C 0.81635 0.11971 0.23205 0.0
C408 C 0.87417 0.06392 0.27409 0.0
C409 C 0.79448 0.12818 0.19932 0.0
C410 C 0.93639 0.0169 0.42811 0.0
C411 C 0.91829 0.02866 0.39281 0.0
C412 C 0.88994 0.09834 0.32906 0.0
C413 C 0.84012 0.10291 0.23076 0.0
C414 C 0.86228 0.09211 0.26652 0.0
C415 C 0.92062 0.05762 0.37471 0.0
C416 C 0.90131 0.06992 0.33693 0.0
H417 H 0.821 0.09629 0.13693 0.0
H418 H 0.85976 0.08261 0.19336 0.0
H419 H 0.86236 0.13127 0.28925 0.0
H420 H 0.97549 0.07626 0.44176 0.0
H421 H 0.94403 0.09686 0.37986 0.0
C422 C 0.39184 0.30069 0.61357 0.0
C423 C 0.37644 0.30878 0.57526 0.0
C424 C 0.40069 0.32156 0.63561 0.0
C425 C 0.38297 0.39355 0.64701 0.0
H426 H 0.46135 0.39132 0.70579 0.0
C427 C 0.41919 0.45384 0.7726 0.0
C428 C 0.44445 0.46952 0.77265 0.0
C429 C 0.41084 0.4357 0.74636 0.0
C430 C 0.43945 0.3923 0.68936 0.0
H431 H 0.35736 0.345 0.53041 0.0
H432 H 0.37262 0.38162 0.56925 0.0
H433 H 0.44703 0.35691 0.66348 0.0
H434 H 0.4809 0.47838 0.74552 0.0
H435 H 0.46657 0.44618 0.70001 0.0
H436 H 0.37525 0.42853 0.67361 0.0
C437 C 0.37816 0.35909 0.5819 0.0
C438 C 0.43122 0.37253 0.66537 0.0
C439 C 0.3697 0.33819 0.55958 0.0
C440 C 0.46126 0.46664 0.74598 0.0
C441 C 0.45315 0.44813 0.72013 0.0
C442 C 0.39109 0.41304 0.6715 0.0
C443 C 0.39388 0.35096 0.62008 0.0
C444 C 0.40287 0.37286 0.64408 0.0
C445 C 0.42782 0.43253 0.72 0.0
C446 C 0.41939 0.41253 0.69303 0.0
H447 H 0.3973 0.27817 0.62646 0.0
H448 H 0.41249 0.31464 0.66508 0.0
H449 H 0.36095 0.39416 0.63111 0.0
H450 H 0.40572 0.45583 0.79265 0.0
H451 H 0.39134 0.42376 0.7471 0.0
C452 C 0.60321 0.64963 0.46962 0.0
C453 C 0.58612 0.63965 0.49655 0.0
C454 C 0.60032 0.6386 0.43607 0.0
C455 C 0.55088 0.5986 0.37259 0.0
H456 H 0.61989 0.58333 0.3382 0.0
C457 C 0.55367 0.52923 0.25864 0.0
C458 C 0.57136 0.53798 0.23212 0.0
C459 C 0.55368 0.54384 0.28857 0.0
C460 C 0.60037 0.58787 0.34708 0.0
H461 H 0.55251 0.61024 0.50923 0.0
H462 H 0.54781 0.59056 0.45093 0.0
H463 H 0.6237 0.60374 0.39557 0.0
H464 H 0.60224 0.56945 0.21546 0.0
H465 H 0.6021 0.59516 0.26763 0.0
H466 H 0.52765 0.58215 0.32433 0.0
C467 C 0.56315 0.60729 0.45549 0.0
C468 C 0.60255 0.59956 0.38001 0.0
C469 C 0.56597 0.61843 0.48905 0.0
C470 C 0.58829 0.5623 0.23534 0.0
C471 C 0.58842 0.57681 0.26543 0.0
C472 C 0.54872 0.58678 0.3397 0.0
C473 C 0.58035 0.6172 0.42863 0.0
C474 C 0.57785 0.60502 0.39326 0.0
C475 C 0.57148 0.56744 0.29276 0.0
C476 C 0.57346 0.58121 0.32663 0.0
H477 H 0.61882 0.66611 0.47432 0.0
H478 H 0.61359 0.64707 0.41576 0.0
H479 H 0.53139 0.60295 0.38163 0.0
H480 H 0.54016 0.51075 0.25662 0.0
H481 H 0.5405 0.53597 0.30924 0.0
C482 C 0.88038 0.05907 0.00792 0.0
C483 C 0.86436 0.08472 0.00369 0.0
C484 C 0.89391 0.05458 0.97877 0.0
C485 C 0.91888 0.09328 0.89235 0.0
H486 H 0.91844 0.01704 0.86786 0.0
C487 C 0.95805 0.07168 0.75969 0.0
C488 C 0.97597 0.04703 0.76582 0.0
C489 C 0.94368 0.07613 0.78805 0.0
C490 C 0.91895 0.03839 0.87457 0.0
H491 H 0.8501 0.12584 0.96547 0.0
H492 H 0.8733 0.11783 0.91449 0.0
H493 H 0.8953 0.02526 0.91891 0.0
H494 H 0.99218 0.00734 0.80606 0.0
H495 H 0.96726 0.0152 0.85564 0.0
H496 H 0.9424 0.1064 0.84781 0.0
C497 C 0.87581 0.10134 0.94057 0.0
C498 C 0.90575 0.04311 0.9039 0.0
C499 C 0.86238 0.10587 0.96977 0.0
C500 C 0.97875 0.02668 0.80063 0.0
C501 C 0.96426 0.03105 0.82888 0.0
C502 C 0.93197 0.08859 0.8629 0.0
C503 C 0.89166 0.07559 0.94462 0.0
C504 C 0.90563 0.0706 0.91326 0.0
C505 C 0.94676 0.05595 0.82307 0.0
C506 C 0.93223 0.06107 0.85375 0.0
H507 H 0.88245 0.04237 0.03374 0.0
H508 H 0.90632 0.03469 0.98316 0.0
H509 H 0.9196 0.11461 0.89914 0.0
H510 H 0.95564 0.08786 0.7333 0.0
H511 H 0.93012 0.09538 0.78255 0.0
C512 C 0.39772 0.3862 0.35474 0.0
C513 C 0.41963 0.37577 0.38719 0.0
C514 C 0.40444 0.39943 0.31964 0.0
C515 C 0.46248 0.43583 0.27702 0.0
H516 H 0.42162 0.41319 0.18344 0.0
C517 C 0.50006 0.46903 0.1339 0.0
C518 C 0.47905 0.47701 0.09982 0.0
C519 C 0.49238 0.45669 0.1686 0.0
C520 C 0.43299 0.42007 0.20919 0.0
H521 H 0.4658 0.3716 0.40836 0.0
H522 H 0.47748 0.39474 0.34718 0.0
H523 H 0.40879 0.39268 0.24484 0.0
H524 H 0.43337 0.4785 0.07543 0.0
H525 H 0.41977 0.45703 0.136 0.0
H526 H 0.48656 0.46337 0.24152 0.0
C527 C 0.45511 0.39278 0.34893 0.0
C528 C 0.42564 0.40828 0.24439 0.0
C529 C 0.4484 0.3794 0.38396 0.0
C530 C 0.45011 0.47206 0.10104 0.0
C531 C 0.44234 0.45981 0.13583 0.0
C532 C 0.46973 0.44774 0.24182 0.0
C533 C 0.43321 0.4027 0.31629 0.0
C534 C 0.44042 0.41591 0.27873 0.0
C535 C 0.46338 0.45217 0.17014 0.0
C536 C 0.45521 0.43987 0.20747 0.0
H537 H 0.37533 0.38379 0.35624 0.0
H538 H 0.3871 0.40716 0.29512 0.0
H539 H 0.47399 0.44246 0.30289 0.0
H540 H 0.52253 0.47225 0.1337 0.0
H541 H 0.50923 0.45055 0.19421 0.0
C542 C 0.1793 0.85104 0.92153 0.0
C543 C 0.19689 0.86975 0.94128 0.0
C544 C 0.16282 0.8613 0.8845 0.0
C545 C 0.15546 0.92022 0.799 0.0
H546 H 0.07469 0.90228 0.78236 0.0
C547 C 0.07281 0.98075 0.66776 0.0
C548 C 0.05028 0.96508 0.65061 0.0
C549 C 0.0914 0.96804 0.70223 0.0
C550 C 0.09726 0.90713 0.78619 0.0
H551 H 0.21182 0.91365 0.93693 0.0
H552 H 0.18326 0.93142 0.87216 0.0
H553 H 0.10673 0.8814 0.84342 0.0
H554 H 0.02908 0.92412 0.65637 0.0
H555 H 0.06223 0.90137 0.71564 0.0
H556 H 0.14614 0.94578 0.74174 0.0
C557 C 0.1822 0.90884 0.8854 0.0
C558 C 0.11561 0.89519 0.82126 0.0
C559 C 0.19845 0.89867 0.92258 0.0
C560 C 0.04656 0.93653 0.66869 0.0
C561 C 0.06535 0.92365 0.70293 0.0
C562 C 0.13717 0.93195 0.76377 0.0
C563 C 0.16384 0.89039 0.86626 0.0
C564 C 0.14483 0.90182 0.82816 0.0
C565 C 0.08801 0.93926 0.72019 0.0
C566 C 0.10776 0.92581 0.75705 0.0
H567 H 0.17761 0.82863 0.93506 0.0
H568 H 0.14908 0.84652 0.87023 0.0
H569 H 0.17796 0.92544 0.80339 0.0
H570 H 0.0763 0.00276 0.65432 0.0
H571 H 0.10825 0.98092 0.71497 0.0
loop_
_geom_bond_atom_site_label_1
_geom_bond_atom_site_label_2
_geom_bond_distance
_geom_bond_site_symmetry_2
_ccdc_geom_bond_type
O0 Cd1 2.300 1_556 S
O0 C7 1.275 . S
Cd1 O0 2.300 1_554 S
Cd1 O9 2.381 . S
Cd1 O10 2.378 . S
O2 Cd3 2.385 . S
O2 C7 1.255 1_554 S
Cd3 O2 2.385 . S
Cd3 O4 2.317 . S
O4 Cd3 2.317 . S
O4 C5 1.232 . S
C5 O4 1.232 . S
C5 O6 1.218 . S
O6 C5 1.218 . S
C7 O0 1.275 . S
C7 O2 1.255 1_556 S
C8 O9 1.258 . S
C8 O10 1.256 . S
O9 Cd1 2.381 . S
O9 C8 1.258 . S
O10 Cd1 2.378 . S
O10 C8 1.256 . S
O11 Cd12 2.300 . S
O11 C18 1.275 . S
Cd12 O11 2.300 . S
Cd12 O20 2.381 . S
Cd12 O21 2.378 . S
O13 Cd14 2.385 . S
O13 C18 1.255 . S
Cd14 O13 2.385 . S
Cd14 O15 2.317 . S
O15 Cd14 2.317 . S
O15 C16 1.232 . S
C16 O15 1.232 . S
C16 O17 1.218 . S
O17 C16 1.218 . S
C18 O11 1.275 . S
C18 O13 1.255 . S
C19 O20 1.258 . S
C19 O21 1.256 . S
O20 Cd12 2.381 . S
O20 C19 1.258 . S
O21 Cd12 2.378 . S
O21 C19 1.256 . S
O22 Cd23 2.300 . S
O22 C29 1.275 . S
Cd23 O22 2.300 . S
Cd23 O31 2.381 . S
Cd23 O32 2.378 . S
O24 Cd25 2.385 . S
O24 C29 1.255 . S
Cd25 O24 2.385 . S
Cd25 O26 2.317 1_554 S
O26 Cd25 2.317 1_556 S
O26 C27 1.232 . S
C27 O26 1.232 . S
C27 O28 1.218 1_556 S
O28 C27 1.218 1_554 S
C29 O22 1.275 . S
C29 O24 1.255 . S
C30 O31 1.258 . S
C30 O32 1.256 . S
O31 Cd23 2.381 . S
O31 C30 1.258 . S
O32 Cd23 2.378 . S
O32 C30 1.256 . S
O33 Cd34 2.300 . S
O33 C40 1.275 . S
Cd34 O33 2.300 . S
Cd34 O42 2.381 . S
Cd34 O43 2.378 . S
O35 Cd36 2.385 . S
O35 C40 1.255 . S
Cd36 O35 2.385 . S
Cd36 O37 2.317 . S
O37 Cd36 2.317 . S
O37 C38 1.232 . S
C38 O37 1.232 . S
C38 O39 1.218 . S
O39 C38 1.218 . S
C40 O33 1.275 . S
C40 O35 1.255 . S
C41 O42 1.258 . S
C41 O43 1.256 . S
O42 Cd34 2.381 . S
O42 C41 1.258 . S
O43 Cd34 2.378 . S
O43 C41 1.256 . S
Tb44 N73 2.617 . S
Tb44 N79 2.572 . S
Tb44 O88 2.465 . S
Tb44 O89 2.387 . S
Tb44 O91 2.428 . S
Tb44 O92 2.308 1_565 S
Tb44 O96 2.349 1_465 S
Tb44 O99 2.393 1_455 S
Tb44 C108 2.802 . S
C45 N46 1.379 . S
C45 C48 1.416 . S
C45 C52 1.424 . S
N46 C45 1.379 . S
N46 C49 1.334 1_655 S
N46 Tb55 2.617 . S
C47 C49 1.390 . S
C47 C50 1.339 1_455 S
C47 H67 0.930 . S
C48 C45 1.416 . S
C48 C50 1.416 . S
C48 C54 1.448 . S
C49 N46 1.334 1_455 S
C49 C47 1.390 . S
C49 H60 0.930 . S
C50 C47 1.339 1_655 S
C50 C48 1.416 . S
C50 H71 0.930 . S
C51 C52 1.413 . S
C51 C53 1.427 . S
C51 C57 1.416 . S
C52 C45 1.424 . S
C52 C51 1.413 . S
C52 N56 1.361 . S
C53 C51 1.427 . S
C53 C54 1.328 . S
C53 H68 0.929 . S
C54 C48 1.448 . S
C54 C53 1.328 . S
C54 H69 0.930 . S
Tb55 N46 2.617 . S
Tb55 N56 2.572 . S
Tb55 O90 2.349 1_655 S
Tb55 O93 2.393 1_655 S
Tb55 O94 2.465 . S
Tb55 O95 2.387 . S
Tb55 O97 2.428 . S
Tb55 O98 2.308 1_545 S
Tb55 C119 2.802 . S
N56 C52 1.361 . S
N56 Tb55 2.572 . S
N56 C58 1.340 . S
C57 C51 1.416 . S
C57 C59 1.332 . S
C57 H65 0.931 . S
C58 N56 1.340 . S
C58 C59 1.407 . S
C58 H64 0.930 . S
C59 C57 1.332 . S
C59 C58 1.407 . S
C59 H61 0.929 . S
H60 C49 0.930 . S
H61 C59 0.929 . S
H62 C77 0.930 1_655 S
H63 C84 0.929 . S
H64 C58 0.930 . S
H65 C57 0.931 . S
H66 C80 0.930 . S
H67 C47 0.930 . S
H68 C53 0.929 . S
H69 C54 0.930 . S
H70 C75 0.930 1_655 S
H71 C50 0.930 . S
H72 C83 0.931 . S
N73 Tb44 2.617 . S
N73 C74 1.379 . S
N73 C77 1.334 . S
C74 N73 1.379 . S
C74 C76 1.416 . S
C74 C82 1.424 . S
C75 H70 0.930 1_455 S
C75 C77 1.390 . S
C75 C78 1.339 . S
C76 C74 1.416 . S
C76 C78 1.416 . S
C76 C109 1.448 . S
C77 H62 0.930 1_455 S
C77 N73 1.334 . S
C77 C75 1.390 . S
C78 C75 1.339 . S
C78 C76 1.416 . S
C78 H85 0.930 . S
N79 Tb44 2.572 . S
N79 C80 1.340 . S
N79 C82 1.361 . S
C80 H66 0.930 . S
C80 N79 1.340 . S
C80 C84 1.407 . S
C81 C82 1.413 . S
C81 C83 1.416 . S
C81 C110 1.427 . S
C82 C74 1.424 . S
C82 N79 1.361 . S
C82 C81 1.413 . S
C83 H72 0.931 . S
C83 C81 1.416 . S
C83 C84 1.332 . S
C84 H63 0.929 . S
C84 C80 1.407 . S
C84 C83 1.332 . S
H85 C78 0.930 . S
H86 C109 0.930 . S
H87 C110 0.929 . S
O88 Tb44 2.465 . S
O88 C108 1.264 . S
O89 Tb44 2.387 . S
O89 C100 1.264 . S
O90 Tb55 2.349 1_455 S
O90 C100 1.243 1_545 S
O91 Tb44 2.428 . S
O91 C108 1.256 . S
O92 Tb44 2.308 1_545 S
O92 C107 1.266 . S
O93 Tb55 2.393 1_455 S
O93 C107 1.248 . S
O94 Tb55 2.465 . S
O94 C119 1.264 . S
O95 Tb55 2.387 . S
O95 C111 1.264 . S
O96 Tb44 2.349 1_645 S
O96 C111 1.243 . S
O97 Tb55 2.428 . S
O97 C119 1.256 . S
O98 Tb55 2.308 1_565 S
O98 C118 1.266 . S
O99 Tb44 2.393 1_655 S
O99 C118 1.248 . S
C100 O89 1.264 . S
C100 O90 1.243 1_565 S
C101 C104 1.399 . S
C101 C106 1.383 . S
C101 C108 1.496 . S
C102 C103 1.399 . S
C102 C106 1.389 . S
C103 C102 1.399 . S
C103 C105 1.380 . S
C103 H120 0.929 . S
C104 C101 1.399 . S
C104 C105 1.392 . S
C104 H121 0.929 . S
C105 C103 1.380 . S
C105 C104 1.392 . S
C105 H122 0.929 . S
C106 C101 1.383 . S
C106 C102 1.389 . S
C106 H123 0.931 . S
C107 O92 1.266 . S
C107 O93 1.248 . S
C108 Tb44 2.802 . S
C108 O88 1.264 . S
C108 O91 1.256 . S
C108 C101 1.496 . S
C109 C76 1.448 . S
C109 H86 0.930 . S
C109 C110 1.328 . S
C110 C81 1.427 . S
C110 H87 0.929 . S
C110 C109 1.328 . S
C111 O95 1.264 . S
C111 O96 1.243 . S
C112 C115 1.399 . S
C112 C116 1.383 . S
C112 C119 1.496 . S
C113 C114 1.399 . S
C113 C116 1.389 . S
C114 C113 1.399 . S
C114 C117 1.380 . S
C114 H124 0.929 . S
C115 C112 1.399 . S
C115 C117 1.392 . S
C115 H125 0.929 . S
C116 C112 1.383 . S
C116 C113 1.389 . S
C116 H126 0.931 . S
C117 C114 1.380 . S
C117 C115 1.392 . S
C117 H127 0.929 . S
C118 O98 1.266 . S
C118 O99 1.248 . S
C119 Tb55 2.802 . S
C119 O94 1.264 . S
C119 O97 1.256 . S
C119 C112 1.496 . S
H120 C103 0.929 . S
H121 C104 0.929 . S
H122 C105 0.929 . S
H123 C106 0.931 . S
H124 C114 0.929 . S
H125 C115 0.929 . S
H126 C116 0.931 . S
H127 C117 0.929 . S
Tb128 N157 2.617 . S
Tb128 N163 2.572 1_556 S
Tb128 O172 2.465 . S
Tb128 O173 2.387 1_556 S
Tb128 O175 2.428 . S
Tb128 O176 2.308 1_556 S
Tb128 O180 2.349 . S
Tb128 O183 2.393 . S
Tb128 C192 2.802 . S
C129 N130 1.379 . S
C129 C132 1.416 . S
C129 C136 1.424 . S
N130 C129 1.379 . S
N130 C133 1.334 . S
N130 Tb139 2.617 . S
C131 C133 1.390 . S
C131 C134 1.339 . S
C131 H151 0.930 . S
C132 C129 1.416 . S
C132 C134 1.416 . S
C132 C138 1.448 . S
C133 N130 1.334 . S
C133 C131 1.390 . S
C133 H144 0.930 . S
C134 C131 1.339 . S
C134 C132 1.416 . S
C134 H155 0.930 . S
C135 C136 1.413 . S
C135 C137 1.427 . S
C135 C141 1.416 . S
C136 C129 1.424 . S
C136 C135 1.413 . S
C136 N140 1.361 . S
C137 C135 1.427 . S
C137 C138 1.328 . S
C137 H152 0.929 . S
C138 C132 1.448 . S
C138 C137 1.328 . S
C138 H153 0.930 . S
Tb139 N130 2.617 . S
Tb139 N140 2.572 . S
Tb139 O174 2.349 . S
Tb139 O177 2.393 . S
Tb139 O178 2.465 . S
Tb139 O179 2.387 1_554 S
Tb139 O181 2.428 . S
Tb139 O182 2.308 . S
Tb139 C203 2.802 . S
N140 C136 1.361 . S
N140 Tb139 2.572 . S
N140 C142 1.340 . S
C141 C135 1.416 . S
C141 C143 1.332 . S
C141 H149 0.940 . S
C142 N140 1.340 . S
C142 C143 1.407 . S
C142 H148 0.930 . S
C143 C141 1.332 . S
C143 C142 1.407 . S
C143 H145 0.929 . S
H144 C133 0.930 . S
H145 C143 0.929 . S
H146 C161 0.930 . S
H147 C168 0.929 . S
H148 C142 0.930 . S
H149 C141 0.940 . S
H150 C164 0.930 . S
H151 C131 0.930 . S
H152 C137 0.929 . S
H153 C138 0.930 . S
H154 C159 0.930 . S
H155 C134 0.930 . S
H156 C167 0.931 . S
N157 Tb128 2.617 . S
N157 C158 1.379 1_556 S
N157 C161 1.334 . S
C158 N157 1.379 1_554 S
C158 C160 1.416 . S
C158 C166 1.424 . S
C159 H154 0.930 . S
C159 C161 1.390 . S
C159 C162 1.335 1_556 S
C160 C158 1.416 . S
C160 C162 1.415 . S
C160 C193 1.448 . S
C161 H146 0.930 . S
C161 N157 1.334 . S
C161 C159 1.390 . S
C162 C159 1.335 1_554 S
C162 C160 1.415 . S
C162 H169 0.935 . S
N163 Tb128 2.572 1_554 S
N163 C164 1.340 . S
N163 C166 1.361 . S
C164 H150 0.930 . S
C164 N163 1.340 . S
C164 C168 1.407 . S
C165 C166 1.413 . S
C165 C167 1.416 . S
C165 C194 1.427 . S
C166 C158 1.424 . S
C166 N163 1.361 . S
C166 C165 1.413 . S
C167 H156 0.931 . S
C167 C165 1.416 . S
C167 C168 1.332 . S
C168 H147 0.929 . S
C168 C164 1.407 . S
C168 C167 1.332 . S
H169 C162 0.935 . S
H170 C193 0.930 . S
H171 C194 0.929 . S
O172 Tb128 2.465 . S
O172 C192 1.264 . S
O173 Tb128 2.387 1_554 S
O173 C184 1.264 . S
O174 Tb139 2.349 . S
O174 C184 1.243 . S
O175 Tb128 2.428 . S
O175 C192 1.256 . S
O176 Tb128 2.308 1_554 S
O176 C191 1.266 . S
O177 Tb139 2.393 . S
O177 C191 1.248 . S
O178 Tb139 2.465 . S
O178 C203 1.264 . S
O179 Tb139 2.387 1_556 S
O179 C195 1.264 . S
O180 Tb128 2.349 . S
O180 C195 1.243 . S
O181 Tb139 2.428 . S
O181 C203 1.256 . S
O182 Tb139 2.308 . S
O182 C202 1.266 . S
O183 Tb128 2.393 . S
O183 C202 1.248 1_556 S
C184 O173 1.264 . S
C184 O174 1.243 . S
C185 C188 1.399 . S
C185 C190 1.383 . S
C185 C192 1.496 . S
C186 C187 1.399 . S
C186 C190 1.389 . S
C187 C186 1.399 . S
C187 C189 1.380 . S
C187 H204 0.929 . S
C188 C185 1.399 . S
C188 C189 1.392 . S
C188 H205 0.929 . S
C189 C187 1.380 . S
C189 C188 1.392 . S
C189 H206 0.929 . S
C190 C185 1.383 . S
C190 C186 1.389 . S
C190 H207 0.931 . S
C191 O176 1.266 . S
C191 O177 1.248 . S
C192 Tb128 2.802 . S
C192 O172 1.264 . S
C192 O175 1.256 . S
C192 C185 1.496 . S
C193 C160 1.448 . S
C193 H170 0.930 . S
C193 C194 1.328 . S
C194 C165 1.427 . S
C194 H171 0.929 . S
C194 C193 1.328 . S
C195 O179 1.264 . S
C195 O180 1.243 . S
C196 C199 1.399 . S
C196 C200 1.383 . S
C196 C203 1.496 . S
C197 C198 1.399 . S
C197 C200 1.389 . S
C198 C197 1.399 . S
C198 C201 1.380 . S
C198 H208 0.929 . S
C199 C196 1.399 . S
C199 C201 1.392 . S
C199 H209 0.929 . S
C200 C196 1.383 . S
C200 C197 1.389 . S
C200 H210 0.931 . S
C201 C198 1.380 . S
C201 C199 1.392 . S
C201 H211 0.929 . S
C202 O182 1.266 . S
C202 O183 1.248 1_554 S
C203 Tb139 2.802 . S
C203 O178 1.264 . S
C203 O181 1.256 . S
C203 C196 1.496 . S
H204 C187 0.929 . S
H205 C188 0.929 . S
H206 C189 0.929 . S
H207 C190 0.931 . S
H208 C198 0.929 . S
H209 C199 0.929 . S
H210 C200 0.931 . S
H211 C201 0.929 . S
C212 C213 1.349 . S
C212 C214 1.327 . S
C212 H237 0.950 . S
C213 C212 1.349 . S
C213 C229 1.349 . S
C214 C212 1.327 . S
C214 C233 1.429 . S
C214 H238 0.950 . S
C215 C232 1.574 . S
C215 C234 1.368 . S
C215 H239 0.949 . S
H216 C220 0.949 . S
C217 C218 1.349 . S
C217 C219 1.327 . S
C217 H240 0.950 . S
C218 C217 1.349 . S
C218 C230 1.349 . S
C219 C217 1.327 . S
C219 C235 1.429 . S
C219 H241 0.950 . S
C220 H216 0.949 . S
C220 C228 1.574 . S
C220 C236 1.368 . S
H221 C229 0.950 . S
H222 C227 0.950 . S
H223 C228 0.949 . S
H224 C230 0.950 . S
H225 C231 0.950 . S
H226 C232 0.949 . S
C227 H222 0.950 . S
C227 C229 1.327 . S
C227 C233 1.429 . S
C228 C220 1.574 . S
C228 H223 0.949 . S
C228 C234 1.368 . S
C229 C213 1.349 . S
C229 H221 0.950 . S
C229 C227 1.327 . S
C230 C218 1.349 . S
C230 H224 0.950 . S
C230 C231 1.327 . S
C231 H225 0.950 . S
C231 C230 1.327 . S
C231 C235 1.429 . S
C232 C215 1.574 . S
C232 H226 0.949 . S
C232 C236 1.368 . S
C233 C214 1.429 . S
C233 C227 1.429 . S
C233 C234 1.523 . S
C234 C215 1.368 . S
C234 C228 1.368 . S
C234 C233 1.523 . S
C235 C219 1.429 . S
C235 C231 1.429 . S
C235 C236 1.523 . S
C236 C220 1.368 . S
C236 C232 1.368 . S
C236 C235 1.523 . S
H237 C212 0.950 . S
H238 C214 0.950 . S
H239 C215 0.949 . S
H240 C217 0.950 . S
H241 C219 0.950 . S
C242 C243 1.349 . S
C242 C244 1.327 . S
C242 H267 0.950 . S
C243 C242 1.349 . S
C243 C259 1.349 . S
C244 C242 1.327 . S
C244 C263 1.429 . S
C244 H268 0.950 1_554 S
C245 C262 1.574 . S
C245 C264 1.368 . S
C245 H269 0.949 . S
H246 C250 0.949 1_556 S
C247 C248 1.349 . S
C247 C249 1.327 . S
C247 H270 0.950 . S
C248 C247 1.349 . S
C248 C260 1.349 . S
C249 C247 1.327 . S
C249 C265 1.429 . S
C249 H271 0.950 . S
C250 H246 0.949 1_554 S
C250 C258 1.574 . S
C250 C266 1.368 . S
H251 C259 0.950 . S
H252 C257 0.950 . S
H253 C258 0.949 1_556 S
H254 C260 0.950 1_556 S
H255 C261 0.950 1_556 S
H256 C262 0.949 . S
C257 H252 0.950 . S
C257 C259 1.327 . S
C257 C263 1.429 . S
C258 C250 1.574 . S
C258 H253 0.949 1_554 S
C258 C264 1.368 . S
C259 C243 1.349 . S
C259 H251 0.950 . S
C259 C257 1.327 . S
C260 C248 1.349 . S
C260 H254 0.950 1_554 S
C260 C261 1.327 . S
C261 H255 0.950 1_554 S
C261 C260 1.327 . S
C261 C265 1.429 . S
C262 C245 1.574 . S
C262 H256 0.949 . S
C262 C266 1.368 . S
C263 C244 1.429 . S
C263 C257 1.429 . S
C263 C264 1.523 . S
C264 C245 1.368 . S
C264 C258 1.368 . S
C264 C263 1.523 . S
C265 C249 1.429 . S
C265 C261 1.429 . S
C265 C266 1.523 . S
C266 C250 1.368 . S
C266 C262 1.368 . S
C266 C265 1.523 . S
H267 C242 0.950 . S
H268 C244 0.950 1_556 S
H269 C245 0.949 . S
H270 C247 0.950 . S
H271 C249 0.950 . S
C272 C273 1.349 . S
C272 C274 1.327 . S
C272 H297 0.950 . S
C273 C272 1.349 . S
C273 C289 1.349 . S
C274 C272 1.327 . S
C274 C293 1.429 . S
C274 H298 0.950 . S
C275 C292 1.574 . S
C275 C294 1.368 . S
C275 H299 0.949 . S
H276 C280 0.949 . S
C277 C278 1.349 . S
C277 C279 1.327 . S
C277 H300 0.950 . S
C278 C277 1.349 . S
C278 C290 1.349 . S
C279 C277 1.327 . S
C279 C295 1.429 . S
C279 H301 0.950 . S
C280 H276 0.949 . S
C280 C288 1.574 . S
C280 C296 1.368 . S
H281 C289 0.950 . S
H282 C287 0.950 . S
H283 C288 0.949 . S
H284 C290 0.950 . S
H285 C291 0.950 . S
H286 C292 0.949 . S
C287 H282 0.950 . S
C287 C289 1.327 . S
C287 C293 1.429 . S
C288 C280 1.574 . S
C288 H283 0.949 . S
C288 C294 1.368 . S
C289 C273 1.349 . S
C289 H281 0.950 . S
C289 C287 1.327 . S
C290 C278 1.349 . S
C290 H284 0.950 . S
C290 C291 1.327 . S
C291 H285 0.950 . S
C291 C290 1.327 . S
C291 C295 1.429 . S
C292 C275 1.574 . S
C292 H286 0.949 . S
C292 C296 1.368 . S
C293 C274 1.429 . S
C293 C287 1.429 . S
C293 C294 1.523 . S
C294 C275 1.368 . S
C294 C288 1.368 . S
C294 C293 1.523 . S
C295 C279 1.429 . S
C295 C291 1.429 . S
C295 C296 1.523 . S
C296 C280 1.368 . S
C296 C292 1.368 . S
C296 C295 1.523 . S
H297 C272 0.950 . S
H298 C274 0.950 . S
H299 C275 0.949 . S
H300 C277 0.950 . S
H301 C279 0.950 . S
C302 C303 1.349 . S
C302 C304 1.327 . S
C302 H327 0.950 . S
C303 C302 1.349 . S
C303 C319 1.349 . S
C304 C302 1.327 . S
C304 C323 1.429 . S
C304 H328 0.950 . S
C305 C322 1.574 . S
C305 C324 1.368 . S
C305 H329 0.949 1_554 S
H306 C310 0.949 . S
C307 C308 1.349 1_556 S
C307 C309 1.319 . S
C307 H330 0.950 . S
C308 C307 1.349 1_554 S
C308 C320 1.349 . S
C309 C307 1.319 . S
C309 C325 1.413 1_556 S
C309 H331 0.974 . S
C310 H306 0.949 . S
C310 C318 1.574 . S
C310 C326 1.368 . S
H311 C319 0.950 1_556 S
H312 C317 0.950 1_556 S
H313 C318 0.949 . S
H314 C320 0.950 . S
H315 C321 0.950 . S
H316 C322 0.949 1_556 S
C317 H312 0.950 1_554 S
C317 C319 1.327 . S
C317 C323 1.429 . S
C318 C310 1.574 . S
C318 H313 0.949 . S
C318 C324 1.368 . S
C319 C303 1.349 . S
C319 H311 0.950 1_554 S
C319 C317 1.327 . S
C320 C308 1.349 . S
C320 H314 0.950 . S
C320 C321 1.327 . S
C321 H315 0.950 . S
C321 C320 1.327 . S
C321 C325 1.429 . S
C322 C305 1.574 . S
C322 H316 0.949 1_554 S
C322 C326 1.368 . S
C323 C304 1.429 . S
C323 C317 1.429 . S
C323 C324 1.523 . S
C324 C305 1.368 . S
C324 C318 1.368 . S
C324 C323 1.523 . S
C325 C309 1.413 1_554 S
C325 C321 1.429 . S
C325 C326 1.523 . S
C326 C310 1.368 . S
C326 C322 1.368 . S
C326 C325 1.523 . S
H327 C302 0.950 . S
H328 C304 0.950 . S
H329 C305 0.949 1_556 S
H330 C307 0.950 . S
H331 C309 0.974 . S
C332 C333 1.349 . S
C332 C334 1.327 . S
C332 H357 0.950 . S
C333 C332 1.349 . S
C333 C349 1.349 . S
C334 C332 1.327 . S
C334 C353 1.429 . S
C334 H358 0.950 . S
C335 C352 1.574 . S
C335 C354 1.368 . S
C335 H359 0.949 . S
H336 C340 0.949 . S
C337 C338 1.349 . S
C337 C339 1.327 . S
C337 H360 0.950 . S
C338 C337 1.349 . S
C338 C350 1.349 . S
C339 C337 1.327 . S
C339 C355 1.429 . S
C339 H361 0.950 . S
C340 H336 0.949 . S
C340 C348 1.574 . S
C340 C356 1.368 . S
H341 C349 0.950 . S
H342 C347 0.950 . S
H343 C348 0.949 . S
H344 C350 0.950 . S
H345 C351 0.950 . S
H346 C352 0.949 . S
C347 H342 0.950 . S
C347 C349 1.327 . S
C347 C353 1.429 . S
C348 C340 1.574 . S
C348 H343 0.949 . S
C348 C354 1.368 . S
C349 C333 1.349 . S
C349 H341 0.950 . S
C349 C347 1.327 . S
C350 C338 1.349 . S
C350 H344 0.950 . S
C350 C351 1.327 . S
C351 H345 0.950 . S
C351 C350 1.327 . S
C351 C355 1.429 . S
C352 C335 1.574 . S
C352 H346 0.949 . S
C352 C356 1.368 . S
C353 C334 1.429 . S
C353 C347 1.429 . S
C353 C354 1.523 . S
C354 C335 1.368 . S
C354 C348 1.368 . S
C354 C353 1.523 . S
C355 C339 1.429 . S
C355 C351 1.429 . S
C355 C356 1.523 . S
C356 C340 1.368 . S
C356 C352 1.368 . S
C356 C355 1.523 . S
H357 C332 0.950 . S
H358 C334 0.950 . S
H359 C335 0.949 . S
H360 C337 0.950 . S
H361 C339 0.950 . S
C362 C363 1.349 . S
C362 C364 1.327 . S
C362 H387 0.950 . S
C363 C362 1.349 . S
C363 C379 1.349 . S
C364 C362 1.327 . S
C364 C383 1.429 . S
C364 H388 0.950 . S
C365 C382 1.574 . S
C365 C384 1.368 . S
C365 H389 0.949 . S
H366 C370 0.949 . S
C367 C368 1.349 . S
C367 C369 1.327 . S
C367 H390 0.950 . S
C368 C367 1.349 . S
C368 C380 1.349 . S
C369 C367 1.327 . S
C369 C385 1.429 . S
C369 H391 0.950 . S
C370 H366 0.949 . S
C370 C378 1.574 . S
C370 C386 1.368 . S
H371 C379 0.950 . S
H372 C377 0.950 . S
H373 C378 0.949 . S
H374 C380 0.950 . S
H375 C381 0.950 . S
H376 C382 0.949 . S
C377 H372 0.950 . S
C377 C379 1.327 . S
C377 C383 1.429 . S
C378 C370 1.574 . S
C378 H373 0.949 . S
C378 C384 1.368 . S
C379 C363 1.349 . S
C379 H371 0.950 . S
C379 C377 1.327 . S
C380 C368 1.349 . S
C380 H374 0.950 . S
C380 C381 1.327 . S
C381 H375 0.950 . S
C381 C380 1.327 . S
C381 C385 1.429 . S
C382 C365 1.574 . S
C382 H376 0.949 . S
C382 C386 1.368 . S
C383 C364 1.429 . S
C383 C377 1.429 . S
C383 C384 1.523 . S
C384 C365 1.368 . S
C384 C378 1.368 . S
C384 C383 1.523 . S
C385 C369 1.429 . S
C385 C381 1.429 . S
C385 C386 1.523 . S
C386 C370 1.368 . S
C386 C382 1.368 . S
C386 C385 1.523 . S
H387 C362 0.950 . S
H388 C364 0.950 . S
H389 C365 0.949 . S
H390 C367 0.950 . S
H391 C369 0.950 . S
C392 C393 1.349 . S
C392 C394 1.327 . S
C392 H417 0.950 . S
C393 C392 1.349 . S
C393 C409 1.349 . S
C394 C392 1.327 . S
C394 C413 1.429 . S
C394 H418 0.950 . S
C395 C412 1.574 . S
C395 C414 1.368 . S
C395 H419 0.949 . S
H396 C400 0.949 . S
C397 C398 1.349 . S
C397 C399 1.327 . S
C397 H420 0.950 . S
C398 C397 1.349 . S
C398 C410 1.349 . S
C399 C397 1.327 . S
C399 C415 1.429 . S
C399 H421 0.950 . S
C400 H396 0.949 . S
C400 C408 1.574 . S
C400 C416 1.368 . S
H401 C409 0.950 . S
H402 C407 0.950 . S
H403 C408 0.949 . S
H404 C410 0.924 1_565 S
H405 C411 0.950 . S
H406 C412 0.949 . S
C407 H402 0.950 . S
C407 C409 1.327 . S
C407 C413 1.429 . S
C408 C400 1.574 . S
C408 H403 0.949 . S
C408 C414 1.368 . S
C409 C393 1.349 . S
C409 H401 0.950 . S
C409 C407 1.327 . S
C410 C398 1.349 . S
C410 H404 0.924 1_545 S
C410 C411 1.327 . S
C411 H405 0.950 . S
C411 C410 1.327 . S
C411 C415 1.429 . S
C412 C395 1.574 . S
C412 H406 0.949 . S
C412 C416 1.368 . S
C413 C394 1.429 . S
C413 C407 1.429 . S
C413 C414 1.523 . S
C414 C395 1.368 . S
C414 C408 1.368 . S
C414 C413 1.523 . S
C415 C399 1.429 . S
C415 C411 1.429 . S
C415 C416 1.523 . S
C416 C400 1.368 . S
C416 C412 1.368 . S
C416 C415 1.523 . S
H417 C392 0.950 . S
H418 C394 0.950 . S
H419 C395 0.949 . S
H420 C397 0.950 . S
H421 C399 0.950 . S
C422 C423 1.349 . S
C422 C424 1.327 . S
C422 H447 0.950 . S
C423 C422 1.349 . S
C423 C439 1.349 . S
C424 C422 1.327 . S
C424 C443 1.429 . S
C424 H448 0.950 . S
C425 C442 1.574 . S
C425 C444 1.368 . S
C425 H449 0.949 . S
H426 C430 0.949 . S
C427 C428 1.349 . S
C427 C429 1.327 . S
C427 H450 0.950 . S
C428 C427 1.349 . S
C428 C440 1.349 . S
C429 C427 1.327 . S
C429 C445 1.429 . S
C429 H451 0.950 . S
C430 H426 0.949 . S
C430 C438 1.574 . S
C430 C446 1.368 . S
H431 C439 0.950 . S
H432 C437 0.950 . S
H433 C438 0.949 . S
H434 C440 0.950 . S
H435 C441 0.950 . S
H436 C442 0.949 . S
C437 H432 0.950 . S
C437 C439 1.327 . S
C437 C443 1.429 . S
C438 C430 1.574 . S
C438 H433 0.949 . S
C438 C444 1.368 . S
C439 C423 1.349 . S
C439 H431 0.950 . S
C439 C437 1.327 . S
C440 C428 1.349 . S
C440 H434 0.950 . S
C440 C441 1.327 . S
C441 H435 0.950 . S
C441 C440 1.327 . S
C441 C445 1.429 . S
C442 C425 1.574 . S
C442 H436 0.949 . S
C442 C446 1.368 . S
C443 C424 1.429 . S
C443 C437 1.429 . S
C443 C444 1.523 . S
C444 C425 1.368 . S
C444 C438 1.368 . S
C444 C443 1.523 . S
C445 C429 1.429 . S
C445 C441 1.429 . S
C445 C446 1.523 . S
C446 C430 1.368 . S
C446 C442 1.368 . S
C446 C445 1.523 . S
H447 C422 0.950 . S
H448 C424 0.950 . S
H449 C425 0.949 . S
H450 C427 0.950 . S
H451 C429 0.950 . S
C452 C453 1.349 . S
C452 C454 1.327 . S
C452 H477 0.950 . S
C453 C452 1.349 . S
C453 C469 1.349 . S
C454 C452 1.327 . S
C454 C473 1.429 . S
C454 H478 0.950 . S
C455 C472 1.574 . S
C455 C474 1.368 . S
C455 H479 0.949 . S
H456 C460 0.949 . S
C457 C458 1.349 . S
C457 C459 1.327 . S
C457 H480 0.950 . S
C458 C457 1.349 . S
C458 C470 1.349 . S
C459 C457 1.327 . S
C459 C475 1.429 . S
C459 H481 0.950 . S
C460 H456 0.949 . S
C460 C468 1.574 . S
C460 C476 1.368 . S
H461 C469 0.950 . S
H462 C467 0.950 . S
H463 C468 0.949 . S
H464 C470 0.950 . S
H465 C471 0.950 . S
H466 C472 0.949 . S
C467 H462 0.950 . S
C467 C469 1.327 . S
C467 C473 1.429 . S
C468 C460 1.574 . S
C468 H463 0.949 . S
C468 C474 1.368 . S
C469 C453 1.349 . S
C469 H461 0.950 . S
C469 C467 1.327 . S
C470 C458 1.349 . S
C470 H464 0.950 . S
C470 C471 1.327 . S
C471 H465 0.950 . S
C471 C470 1.327 . S
C471 C475 1.429 . S
C472 C455 1.574 . S
C472 H466 0.949 . S
C472 C476 1.368 . S
C473 C454 1.429 . S
C473 C467 1.429 . S
C473 C474 1.523 . S
C474 C455 1.368 . S
C474 C468 1.368 . S
C474 C473 1.523 . S
C475 C459 1.429 . S
C475 C471 1.429 . S
C475 C476 1.523 . S
C476 C460 1.368 . S
C476 C472 1.368 . S
C476 C475 1.523 . S
H477 C452 0.950 . S
H478 C454 0.950 . S
H479 C455 0.949 . S
H480 C457 0.950 . S
H481 C459 0.950 . S
C482 C483 1.349 . S
C482 C484 1.327 . S
C482 H507 0.950 . S
C483 C482 1.349 . S
C483 C499 1.349 . S
C484 C482 1.327 . S
C484 C503 1.429 . S
C484 H508 0.950 . S
C485 C502 1.574 . S
C485 C504 1.368 . S
C485 H509 0.949 . S
H486 C490 0.949 . S
C487 C488 1.349 . S
C487 C489 1.327 . S
C487 H510 0.950 . S
C488 C487 1.349 . S
C488 C500 1.349 . S
C489 C487 1.327 . S
C489 C505 1.429 . S
C489 H511 0.950 . S
C490 H486 0.949 . S
C490 C498 1.574 . S
C490 C506 1.368 . S
H491 C499 0.950 . S
H492 C497 0.950 . S
H493 C498 0.949 . S
H494 C500 0.950 . S
H495 C501 0.950 . S
H496 C502 0.949 . S
C497 H492 0.950 . S
C497 C499 1.327 . S
C497 C503 1.429 . S
C498 C490 1.574 . S
C498 H493 0.949 . S
C498 C504 1.368 . S
C499 C483 1.349 . S
C499 H491 0.950 . S
C499 C497 1.327 . S
C500 C488 1.349 . S
C500 H494 0.950 . S
C500 C501 1.327 . S
C501 H495 0.950 . S
C501 C500 1.327 . S
C501 C505 1.429 . S
C502 C485 1.574 . S
C502 H496 0.949 . S
C502 C506 1.368 . S
C503 C484 1.429 . S
C503 C497 1.429 . S
C503 C504 1.523 . S
C504 C485 1.368 . S
C504 C498 1.368 . S
C504 C503 1.523 . S
C505 C489 1.429 . S
C505 C501 1.429 . S
C505 C506 1.523 . S
C506 C490 1.368 . S
C506 C502 1.368 . S
C506 C505 1.523 . S
H507 C482 0.950 . S
H508 C484 0.950 . S
H509 C485 0.949 . S
H510 C487 0.950 . S
H511 C489 0.950 . S
C512 C513 1.349 . S
C512 C514 1.327 . S
C512 H537 0.950 . S
C513 C512 1.349 . S
C513 C529 1.349 . S
C514 C512 1.327 . S
C514 C533 1.429 . S
C514 H538 0.950 . S
C515 C532 1.574 . S
C515 C534 1.368 . S
C515 H539 0.949 . S
H516 C520 0.949 . S
C517 C518 1.349 . S
C517 C519 1.327 . S
C517 H540 0.950 . S
C518 C517 1.349 . S
C518 C530 1.349 . S
C519 C517 1.327 . S
C519 C535 1.429 . S
C519 H541 0.950 . S
C520 H516 0.949 . S
C520 C528 1.574 . S
C520 C536 1.368 . S
H521 C529 0.950 . S
H522 C527 0.950 . S
H523 C528 0.949 . S
H524 C530 0.950 . S
H525 C531 0.950 . S
H526 C532 0.949 . S
C527 H522 0.950 . S
C527 C529 1.327 . S
C527 C533 1.429 . S
C528 C520 1.574 . S
C528 H523 0.949 . S
C528 C534 1.368 . S
C529 C513 1.349 . S
C529 H521 0.950 . S
C529 C527 1.327 . S
C530 C518 1.349 . S
C530 H524 0.950 . S
C530 C531 1.327 . S
C531 H525 0.950 . S
C531 C530 1.327 . S
C531 C535 1.429 . S
C532 C515 1.574 . S
C532 H526 0.949 . S
C532 C536 1.368 . S
C533 C514 1.429 . S
C533 C527 1.429 . S
C533 C534 1.523 . S
C534 C515 1.368 . S
C534 C528 1.368 . S
C534 C533 1.523 . S
C535 C519 1.429 . S
C535 C531 1.429 . S
C535 C536 1.523 . S
C536 C520 1.368 . S
C536 C532 1.368 . S
C536 C535 1.523 . S
H537 C512 0.950 . S
H538 C514 0.950 . S
H539 C515 0.949 . S
H540 C517 0.950 . S
H541 C519 0.950 . S
C542 C543 1.349 . S
C542 C544 1.327 . S
C542 H567 0.950 . S
C543 C542 1.349 . S
C543 C559 1.349 . S
C544 C542 1.327 . S
C544 C563 1.429 . S
C544 H568 0.950 . S
C545 C562 1.574 . S
C545 C564 1.368 . S
C545 H569 0.949 . S
H546 C550 0.949 . S
C547 C548 1.349 . S
C547 C549 1.327 . S
C547 H570 0.950 1_565 S
C548 C547 1.349 . S
C548 C560 1.349 . S
C549 C547 1.327 . S
C549 C565 1.429 . S
C549 H571 0.950 . S
C550 H546 0.949 . S
C550 C558 1.574 . S
C550 C566 1.368 . S
H551 C559 0.950 . S
H552 C557 0.950 . S
H553 C558 0.949 . S
H554 C560 0.950 . S
H555 C561 0.950 . S
H556 C562 0.949 . S
C557 H552 0.950 . S
C557 C559 1.327 . S
C557 C563 1.429 . S
C558 C550 1.574 . S
C558 H553 0.949 . S
C558 C564 1.368 . S
C559 C543 1.349 . S
C559 H551 0.950 . S
C559 C557 1.327 . S
C560 C548 1.349 . S
C560 H554 0.950 . S
C560 C561 1.327 . S
C561 H555 0.950 . S
C561 C560 1.327 . S
C561 C565 1.429 . S
C562 C545 1.574 . S
C562 H556 0.949 . S
C562 C566 1.368 . S
C563 C544 1.429 . S
C563 C557 1.429 . S
C563 C564 1.523 . S
C564 C545 1.368 . S
C564 C558 1.368 . S
C564 C563 1.523 . S
C565 C549 1.429 . S
C565 C561 1.429 . S
C565 C566 1.523 . S
C566 C550 1.368 . S
C566 C562 1.368 . S
C566 C565 1.523 . S
H567 C542 0.950 . S
H568 C544 0.950 . S
H569 C545 0.949 . S
H570 C547 0.950 1_545 S
H571 C549 0.950 . S
C218 C107 1.650 . S
C213 C41 1.650 . S
C243 C8 1.664 . S
C248 C202 1.655 . S
C273 C19 1.744 . S
C278 C118 1.753 . S
C303 C30 1.632 . S
C308 C191 1.635 . S
C338 C102 1.504 . S
C333 C5 1.514 . S
C368 C195 1.816 . S
C363 C18 1.760 . S
C393 C29 1.629 . S
C398 C111 1.722 . S
C423 C40 1.616 . S
C428 C186 1.530 . S
C458 C197 1.385 . S
C453 C16 1.315 . S
C488 C113 1.365 . S
C483 C27 1.297 . S
C518 C184 1.551 . S
C513 C38 1.303 . S
C543 C7 1.471 . S
C548 C100 1.508 . S
