# Generated by pormake.
# Topology zzz, (3,6)-cn, num edge types: 1
# Building blocks:
#     Node 0, Type 0, BuildingBlock: OLANEW_clean_sbu_2, # of connection points: 3
#     Node 1, Type 0, BuildingBlock: OLANEW_clean_sbu_2, # of connection points: 3
#     Node 2, Type 0, BuildingBlock: OLANEW_clean_sbu_2, # of connection points: 3
#     Node 3, Type 0, BuildingBlock: OLANEW_clean_sbu_2, # of connection points: 3
#     Node 4, Type 0, BuildingBlock: OLANEW_clean_sbu_2, # of connection points: 3
#     Node 5, Type 0, BuildingBlock: OLANEW_clean_sbu_2, # of connection points: 3
#     Node 6, Type 0, BuildingBlock: OLANEW_clean_sbu_2, # of connection points: 3
#     Node 7, Type 0, BuildingBlock: OLANEW_clean_sbu_2, # of connection points: 3
#     Node 8, Type 1, BuildingBlock: CUKXOW_clean_sbu_0, # of connection points: 6
#     Node 9, Type 1, BuildingBlock: CUKXOW_clean_sbu_0, # of connection points: 6
#     Node 10, Type 1, BuildingBlock: CUKXOW_clean_sbu_0, # of connection points: 6
#     Node 11, Type 1, BuildingBlock: CUKXOW_clean_sbu_0, # of connection points: 6
#     Edge 12, Type (0, 1), BuildingBlock: CIFDUS_clean_linker_0, # of connection points: 2
#     Edge 13, Type (0, 1), BuildingBlock: CIFDUS_clean_linker_0, # of connection points: 2
#     Edge 14, Type (0, 1), BuildingBlock: CIFDUS_clean_linker_0, # of connection points: 2
#     Edge 15, Type (0, 1), BuildingBlock: CIFDUS_clean_linker_0, # of connection points: 2
#     Edge 16, Type (0, 1), BuildingBlock: CIFDUS_clean_linker_0, # of connection points: 2
#     Edge 17, Type (0, 1), BuildingBlock: CIFDUS_clean_linker_0, # of connection points: 2
#     Edge 18, Type (0, 1), BuildingBlock: CIFDUS_clean_linker_0, # of connection points: 2
#     Edge 19, Type (0, 1), BuildingBlock: CIFDUS_clean_linker_0, # of connection points: 2
#     Edge 20, Type (0, 1), BuildingBlock: CIFDUS_clean_linker_0, # of connection points: 2
#     Edge 21, Type (0, 1), BuildingBlock: CIFDUS_clean_linker_0, # of connection points: 2
#     Edge 22, Type (0, 1), BuildingBlock: CIFDUS_clean_linker_0, # of connection points: 2
#     Edge 23, Type (0, 1), BuildingBlock: CIFDUS_clean_linker_0, # of connection points: 2
#     Edge 24, Type (0, 1), BuildingBlock: CIFDUS_clean_linker_0, # of connection points: 2
#     Edge 25, Type (0, 1), BuildingBlock: CIFDUS_clean_linker_0, # of connection points: 2
#     Edge 26, Type (0, 1), BuildingBlock: CIFDUS_clean_linker_0, # of connection points: 2
#     Edge 27, Type (0, 1), BuildingBlock: CIFDUS_clean_linker_0, # of connection points: 2
#     Edge 28, Type (0, 1), BuildingBlock: CIFDUS_clean_linker_0, # of connection points: 2
#     Edge 29, Type (0, 1), BuildingBlock: CIFDUS_clean_linker_0, # of connection points: 2
#     Edge 30, Type (0, 1), BuildingBlock: CIFDUS_clean_linker_0, # of connection points: 2
#     Edge 31, Type (0, 1), BuildingBlock: CIFDUS_clean_linker_0, # of connection points: 2
#     Edge 32, Type (0, 1), BuildingBlock: CIFDUS_clean_linker_0, # of connection points: 2
#     Edge 33, Type (0, 1), BuildingBlock: CIFDUS_clean_linker_0, # of connection points: 2
#     Edge 34, Type (0, 1), BuildingBlock: CIFDUS_clean_linker_0, # of connection points: 2
#     Edge 35, Type (0, 1), BuildingBlock: CIFDUS_clean_linker_0, # of connection points: 2
# Relax obj value: 0.073
# Max RMSD: 0.134
# Mean RMSD: 0.093
data_MOF--net-zzz--node1-OLANEW_clean_sbu_2--node2-CUKXOW_clean_sbu_0--edge1-CIFDUS_clean_linker_0
_symmetry_space_group_name_H-M    P1
_symmetry_Int_Tables_number       1
_symmetry_cell_setting            triclinic
loop_
_symmetry_equiv_pos_as_xyz
'x, y, z'
_cell_length_a     47.15283
_cell_length_b     48.842992
_cell_length_c     15.467312
_cell_angle_alpha  93.348457
_cell_angle_beta   86.719249
_cell_angle_gamma 94.292521
loop_
_atom_site_label
_atom_site_type_symbol
_atom_site_fract_x
_atom_site_fract_y
_atom_site_fract_z
_atom_type_partial_charge
O0 O 0.79311 0.49095 0.09921 0.0
Cd1 Cd 0.74966 0.49302 0.19495 0.0
O2 O 0.784 0.44941 0.04023 0.0
Cd3 Cd 0.75571 0.44254 0.1544 0.0
O4 O 0.77529 0.44529 0.27965 0.0
C5 C 0.79971 0.43572 0.27422 0.0
O6 O 0.80853 0.42404 0.1998 0.0
C7 C 0.7995 0.47184 0.0436 0.0
C8 C 0.6983 0.49106 0.11132 0.0
O9 O 0.71363 0.51368 0.12178 0.0
O10 O 0.70743 0.46929 0.13897 0.0
O11 O 0.92823 0.7922 0.74363 0.0
Cd12 Cd 0.90653 0.74603 0.7693 0.0
O13 O 0.95928 0.78902 0.84235 0.0
Cd14 Cd 0.98729 0.80988 0.93665 0.0
O15 O 0.9986 0.83794 0.04606 0.0
C16 C 0.98794 0.86114 0.04969 0.0
O17 O 0.97189 0.86683 0.98741 0.0
C18 C 0.94828 0.80313 0.78829 0.0
C19 C 0.94036 0.70141 0.76387 0.0
O20 O 0.92851 0.70797 0.69614 0.0
O21 O 0.93738 0.71681 0.83334 0.0
O22 O 0.69937 0.94094 0.88723 0.0
Cd23 Cd 0.74164 0.92045 0.93217 0.0
O24 O 0.70522 0.97245 0.99262 0.0
Cd25 Cd 0.68809 0.00371 0.08309 0.0
O26 O 0.65829 0.018 0.18516 0.0
C27 C 0.64816 0.99939 0.23456 0.0
O28 O 0.65671 0.97443 0.22067 0.0
C29 C 0.69065 0.96177 0.93099 0.0
C30 C 0.79435 0.94786 0.89136 0.0
O31 O 0.78301 0.92952 0.83872 0.0
O32 O 0.78032 0.9539 0.96252 0.0
O33 O 0.59316 0.71057 0.86994 0.0
Cd34 Cd 0.62417 0.75245 0.85349 0.0
O35 O 0.62038 0.69878 0.96953 0.0
Cd36 Cd 0.63485 0.6724 0.06562 0.0
O37 O 0.62662 0.64804 0.1795 0.0
C38 C 0.61138 0.65889 0.24076 0.0
O39 O 0.60347 0.68383 0.233 0.0
C40 C 0.59852 0.69358 0.9249 0.0
C41 C 0.59305 0.79826 0.84119 0.0
O42 O 0.59971 0.78301 0.77392 0.0
O43 O 0.60113 0.79185 0.91465 0.0
O44 O 0.20953 0.5368 0.52468 0.0
Cd45 Cd 0.25577 0.55437 0.46227 0.0
O46 O 0.18819 0.5653 0.44918 0.0
Cd47 Cd 0.2216 0.57314 0.34851 0.0
O48 O 0.19976 0.56158 0.229 0.0
C49 C 0.18612 0.53814 0.23137 0.0
O50 O 0.18937 0.52306 0.29728 0.0
C51 C 0.18709 0.54787 0.50748 0.0
C52 C 0.30253 0.54024 0.54919 0.0
O53 O 0.28726 0.55955 0.57967 0.0
O54 O 0.29554 0.52726 0.47826 0.0
O55 O 0.08421 0.20352 0.75376 0.0
Cd56 Cd 0.10671 0.25048 0.75345 0.0
O57 O 0.09841 0.20345 0.61641 0.0
Cd58 Cd 0.1005 0.18266 0.48744 0.0
O59 O 0.09353 0.15163 0.38224 0.0
C60 C 0.0717 0.15197 0.33795 0.0
O61 O 0.05435 0.17167 0.35475 0.0
C62 C 0.08713 0.19062 0.68042 0.0
C63 C 0.07381 0.29546 0.78788 0.0
O64 O 0.07493 0.28305 0.71253 0.0
O65 O 0.08716 0.28582 0.848 0.0
O66 O 0.32135 0.07983 0.5704 0.0
Cd67 Cd 0.28013 0.09623 0.50482 0.0
O68 O 0.35047 0.11125 0.5095 0.0
Cd69 Cd 0.32136 0.11987 0.41219 0.0
O70 O 0.34 0.1074 0.28476 0.0
C71 C 0.35389 0.08603 0.28435 0.0
O72 O 0.35338 0.07258 0.35561 0.0
C73 C 0.34617 0.0917 0.56042 0.0
C74 C 0.22764 0.07718 0.58055 0.0
O75 O 0.24041 0.06303 0.51986 0.0
O76 O 0.23987 0.10029 0.60647 0.0
O77 O 0.45248 0.30803 0.46273 0.0
Cd78 Cd 0.42519 0.26914 0.39325 0.0
O79 O 0.41457 0.32582 0.52491 0.0
Cd80 Cd 0.39065 0.30655 0.41854 0.0
O81 O 0.39722 0.32634 0.295 0.0
C82 C 0.39762 0.35244 0.30231 0.0
O83 O 0.39186 0.36427 0.37918 0.0
C84 C 0.44151 0.32534 0.51681 0.0
C85 C 0.43462 0.22205 0.47798 0.0
O86 O 0.45135 0.2304 0.41518 0.0
O87 O 0.41281 0.23559 0.49959 0.0
Tb88 Tb 0.01534 0.98265 0.634 0.0
C89 C 0.07312 0.00724 0.69969 0.0
Tb90 Tb 0.01492 0.01228 0.815 0.0
O91 O 0.02962 0.0213 0.57479 0.0
O92 O 0.00443 0.02133 0.6898 0.0
O93 O 0.06072 0.98742 0.64971 0.0
C94 C 0.0212 0.04885 0.94865 0.0
O95 O 0.0587 0.0215 0.76127 0.0
C96 C 0.012 0.95858 0.81254 0.0
C97 C 0.95675 0.98761 0.74623 0.0
O98 O 0.03326 0.02575 0.93859 0.0
O99 O 0.00531 0.05117 0.88407 0.0
O100 O 1.00088 0.9738 0.87535 0.0
O101 O 0.02596 0.97369 0.75963 0.0
O102 O 0.96908 0.00611 0.80139 0.0
O103 O 0.97125 0.97454 0.68228 0.0
C104 C 0.0112 0.94707 0.4972 0.0
O105 O 0.00297 0.97189 0.50162 0.0
O106 O 0.02166 0.94216 0.57014 0.0
C107 C 0.01842 0.03656 0.63736 0.0
Tb108 Tb 0.50835 0.05098 0.76828 0.0
C109 C 0.54083 0.00875 0.65096 0.0
Tb110 Tb 0.50695 0.99047 0.82243 0.0
O111 O 0.552 0.06157 0.80798 0.0
O112 O 0.52776 0.02879 0.8594 0.0
O113 O 0.52477 0.02988 0.65032 0.0
C114 C 0.52029 0.94062 0.86085 0.0
O115 O 0.54011 0.99299 0.71806 0.0
C116 C 0.46275 0.00363 0.74279 0.0
C117 C 0.47281 0.03279 0.93999 0.0
O118 O 0.51088 0.94692 0.78793 0.0
O119 O 0.52159 0.96235 0.91353 0.0
O120 O 0.46165 0.984 0.7964 0.0
O121 O 0.48829 0.01248 0.72959 0.0
O122 O 0.48467 0.00879 0.93634 0.0
O123 O 0.47802 0.05131 0.88022 0.0
C124 C 0.49614 0.09823 0.70489 0.0
O125 O 0.5204 0.08732 0.69499 0.0
O126 O 0.4787 0.08278 0.7522 0.0
C127 C 0.55266 0.03992 0.85225 0.0
Tb128 Tb 0.5222 0.52138 0.70369 0.0
C129 C 0.45535 0.51356 0.70762 0.0
Tb130 Tb 0.49009 0.49853 0.86883 0.0
O131 O 0.5118 0.48354 0.62606 0.0
O132 O 0.51418 0.48301 0.76042 0.0
O133 O 0.47876 0.52493 0.66846 0.0
C134 C 0.4608 0.46628 0.98141 0.0
O135 O 0.45509 0.50135 0.78251 0.0
C136 C 0.50532 0.55118 0.87738 0.0
C137 C 0.55656 0.50909 0.86654 0.0
O138 O 0.46033 0.49283 0.98156 0.0
O139 O 0.47782 0.45792 0.91809 0.0
O140 O 0.50237 0.53636 0.94501 0.0
O141 O 0.49748 0.53674 0.81164 0.0
O142 O 0.5341 0.49436 0.89975 0.0
O143 O 0.55556 0.5236 0.79685 0.0
C144 C 0.55241 0.5517 0.58806 0.0
O145 O 0.55677 0.52653 0.6033 0.0
O146 O 0.53116 0.55961 0.63767 0.0
C147 C 0.50683 0.46896 0.69348 0.0
Tb148 Tb 0.97319 0.4833 0.67459 0.0
C149 C 0.0047 0.43816 0.76019 0.0
Tb150 Tb 0.01466 0.50055 0.81615 0.0
O151 O 0.00201 0.50299 0.57781 0.0
O152 O 0.01808 0.48641 0.68493 0.0
O153 O 0.98093 0.44382 0.72525 0.0
C154 C 0.06007 0.51765 0.90613 0.0
O155 O 0.02371 0.45781 0.78672 0.0
C156 C 0.96214 0.48626 0.87362 0.0
C157 C 0.98299 0.54643 0.72787 0.0
O158 O 0.04049 0.49895 0.92817 0.0
O159 O 0.05388 0.52734 0.8336 0.0
O160 O 0.98438 0.48613 0.91912 0.0
O161 O 0.96982 0.49815 0.80547 0.0
O162 O 0.00354 0.54102 0.77875 0.0
O163 O 0.96667 0.52693 0.68733 0.0
C164 C 0.93098 0.46275 0.57663 0.0
O165 O 0.95782 0.45925 0.56095 0.0
O166 O 0.92779 0.47785 0.64796 0.0
C167 C 0.02456 0.50051 0.62015 0.0
H168 H 0.19989 0.027 0.55301 0.0
H169 H 0.19143 0.10562 0.69079 0.0
H170 H 0.14338 0.09038 0.74444 0.0
H171 H 0.1029 0.05539 0.74646 0.0
H172 H 0.11174 0.97704 0.60686 0.0
H173 H 0.16056 0.99147 0.56058 0.0
C174 C 0.18763 0.04077 0.5952 0.0
C175 C 0.19922 0.06744 0.61747 0.0
C176 C 0.16006 0.03191 0.62573 0.0
C177 C 0.18305 0.08496 0.67261 0.0
C178 C 0.15554 0.07628 0.70328 0.0
C179 C 0.11566 0.04131 0.70709 0.0
C180 C 0.10364 0.01516 0.68023 0.0
C181 C 0.14372 0.04986 0.67964 0.0
C182 C 0.12039 0.99732 0.62826 0.0
C183 C 0.14833 0.00555 0.60159 0.0
H184 H 0.48452 0.19801 0.47363 0.0
H185 H 0.39924 0.19272 0.59137 0.0
H186 H 0.41078 0.15408 0.67385 0.0
H187 H 0.44552 0.122 0.71328 0.0
H188 H 0.5308 0.12839 0.59573 0.0
H189 H 0.51897 0.16669 0.51348 0.0
C190 C 0.46839 0.18836 0.51704 0.0
C191 C 0.44106 0.19816 0.52614 0.0
C192 C 0.47528 0.16655 0.56508 0.0
C193 C 0.42048 0.18556 0.58329 0.0
C194 C 0.42707 0.16352 0.63059 0.0
C195 C 0.46149 0.13195 0.67002 0.0
C196 C 0.48897 0.12248 0.66051 0.0
C197 C 0.45448 0.15393 0.62237 0.0
C198 C 0.50951 0.1354 0.60422 0.0
C199 C 0.50274 0.15723 0.5569 0.0
H200 H 0.35131 0.52177 0.47424 0.0
H201 H 0.31114 0.54522 0.72217 0.0
H202 H 0.35429 0.53683 0.79444 0.0
H203 H 0.40432 0.52482 0.78612 0.0
H204 H 0.4459 0.50631 0.53636 0.0
H205 H 0.40144 0.51061 0.4656 0.0
C206 C 0.35196 0.52477 0.54417 0.0
C207 C 0.3281 0.5339 0.593 0.0
C208 C 0.37717 0.5209 0.58475 0.0
C209 C 0.32931 0.5382 0.68334 0.0
C210 C 0.35395 0.5334 0.72462 0.0
C211 C 0.40347 0.52152 0.71632 0.0
C212 C 0.42816 0.51516 0.66632 0.0
C213 C 0.37812 0.52504 0.6759 0.0
C214 C 0.42708 0.51133 0.57588 0.0
C215 C 0.4017 0.51375 0.53551 0.0
H216 H 0.03355 0.31457 0.69225 0.0
H217 H 0.08287 0.33511 0.91655 0.0
H218 H 0.06489 0.38085 0.93017 0.0
H219 H 0.03807 0.41626 0.87148 0.0
H220 H 0.98695 0.39513 0.65153 0.0
H221 H 0.00253 0.34838 0.64344 0.0
C222 C 0.04009 0.32896 0.74469 0.0
C223 C 0.05974 0.32155 0.80272 0.0
C224 C 0.02949 0.35519 0.75259 0.0
C225 C 0.06776 0.34029 0.87098 0.0
C226 C 0.05761 0.36652 0.87857 0.0
C227 C 0.03018 0.40133 0.82227 0.0
C228 C 0.01167 0.40919 0.76161 0.0
C229 C 0.03895 0.37439 0.81866 0.0
C230 C 0.00123 0.38956 0.69899 0.0
C231 C 0.01022 0.36286 0.69409 0.0
H232 H 0.82988 0.93663 0.75174 0.0
H233 H 0.82443 0.9872 0.98956 0.0
H234 H 0.87383 0.00513 0.96384 0.0
H235 H 0.91941 0.00457 0.87729 0.0
H236 H 0.92433 0.95293 0.64109 0.0
H237 H 0.87442 0.93743 0.663 0.0
C238 C 0.83937 0.95175 0.7977 0.0
C239 C 0.82347 0.96047 0.87258 0.0
C240 C 0.86783 0.96172 0.78309 0.0
C241 C 0.83618 0.98008 0.93138 0.0
C242 C 0.86447 0.99031 0.91683 0.0
C243 C 0.90951 0.99013 0.83019 0.0
C244 C 0.92578 0.97996 0.75777 0.0
C245 C 0.88064 0.981 0.84342 0.0
C246 C 0.91251 0.96114 0.69763 0.0
C247 C 0.88387 0.95219 0.71002 0.0
H248 H 0.58273 0.83872 0.96545 0.0
H249 H 0.567 0.8128 0.69973 0.0
H250 H 0.54143 0.85371 0.68481 0.0
H251 H 0.52515 0.89765 0.74495 0.0
H252 H 0.54235 0.92494 0.00814 0.0
H253 H 0.56556 0.88257 0.02673 0.0
C254 C 0.57357 0.84196 0.90445 0.0
C255 C 0.57683 0.82274 0.83377 0.0
C256 C 0.55915 0.86574 0.89593 0.0
C257 C 0.56492 0.8273 0.75506 0.0
C258 C 0.55025 0.85068 0.74645 0.0
C259 C 0.5337 0.89416 0.80669 0.0
C260 C 0.53195 0.91421 0.87529 0.0
C261 C 0.54744 0.87011 0.81616 0.0
C262 C 0.54332 0.90964 0.95465 0.0
C263 C 0.55668 0.88551 0.96511 0.0
H264 H 0.67817 0.5304 0.01856 0.0
H265 H 0.65613 0.4496 0.1119 0.0
H266 H 0.60995 0.44834 0.04723 0.0
H267 H 0.57575 0.47015 0.96338 0.0
H268 H 0.5989 0.55003 0.86457 0.0
H269 H 0.64456 0.55171 0.93223 0.0
C270 C 0.66327 0.51251 0.02478 0.0
C271 C 0.6706 0.49016 0.07017 0.0
C272 C 0.63688 0.51177 0.98647 0.0
C273 C 0.65109 0.46706 0.07707 0.0
C274 C 0.62462 0.46635 0.0403 0.0
C275 C 0.59076 0.48795 0.95706 0.0
C276 C 0.58395 0.50992 0.90908 0.0
C277 C 0.61726 0.48858 0.99486 0.0
C278 C 0.60372 0.53274 0.90064 0.0
C279 C 0.62982 0.53377 0.93948 0.0
H280 H 0.93933 0.65972 0.64037 0.0
H281 H 0.97294 0.68441 0.88892 0.0
H282 H 0.99136 0.63915 0.8968 0.0
H283 H 0.9944 0.59121 0.8382 0.0
H284 H 0.95795 0.56645 0.59357 0.0
H285 H 0.94429 0.61301 0.57906 0.0
C286 C 0.95105 0.65539 0.69576 0.0
C287 C 0.95468 0.67542 0.764 0.0
C288 C 0.96084 0.62913 0.70099 0.0
C289 C 0.96977 0.66934 0.83553 0.0
C290 C 0.98024 0.64342 0.84021 0.0
C291 C 0.98376 0.59613 0.78134 0.0
C292 C 0.97699 0.57533 0.71746 0.0
C293 C 0.97536 0.62294 0.77416 0.0
C294 C 0.96309 0.58198 0.64427 0.0
C295 C 0.95532 0.60864 0.63573 0.0
H296 H 0.03939 0.16282 0.74876 0.0
H297 H 0.1163 0.15177 0.59004 0.0
H298 H 0.10149 0.10338 0.56077 0.0
H299 H 0.06625 0.0644 0.57708 0.0
H300 H 0.98985 0.07409 0.73902 0.0
H301 H 0.0048 0.12266 0.77092 0.0
C302 C 0.05284 0.14971 0.70806 0.0
C303 C 0.07841 0.16099 0.6691 0.0
C304 C 0.04424 0.12172 0.69195 0.0
C305 C 0.09596 0.14377 0.61775 0.0
C306 C 0.08763 0.11605 0.60154 0.0
C307 C 0.05281 0.07723 0.61887 0.0
C308 C 0.02697 0.06589 0.65539 0.0
C309 C 0.06164 0.10491 0.63717 0.0
C310 C 0.00992 0.08249 0.71057 0.0
C311 C 0.01844 0.11022 0.72861 0.0
H312 H 0.34587 0.05159 0.67638 0.0
H313 H 0.40238 0.10543 0.52207 0.0
H314 H 0.44305 0.08176 0.56063 0.0
H315 H 0.4626 0.04466 0.6332 0.0
H316 H 0.40715 0.99256 0.79499 0.0
H317 H 0.36601 0.01627 0.75718 0.0
C318 C 0.36712 0.05843 0.65235 0.0
C319 C 0.37094 0.08019 0.59612 0.0
C320 C 0.39061 0.04483 0.67522 0.0
C321 C 0.3987 0.0888 0.56563 0.0
C322 C 0.42204 0.07517 0.58717 0.0
C323 C 0.44154 0.03875 0.6609 0.0
C324 C 0.43786 0.01711 0.71712 0.0
C325 C 0.41822 0.05298 0.641 0.0
C326 C 0.41044 0.0092 0.75134 0.0
C327 C 0.38697 0.02285 0.73021 0.0
H328 H 0.4264 0.36208 0.6477 0.0
H329 H 0.49799 0.33835 0.4807 0.0
H330 H 0.52591 0.37982 0.52905 0.0
H331 H 0.52765 0.42582 0.60318 0.0
H332 H 0.45634 0.44956 0.76968 0.0
H333 H 0.43081 0.40512 0.73836 0.0
C334 C 0.44828 0.36573 0.62313 0.0
C335 C 0.45988 0.34738 0.55955 0.0
C336 C 0.46424 0.38974 0.65086 0.0
C337 C 0.48841 0.35221 0.52924 0.0
C338 C 0.5044 0.37602 0.5565 0.0
C339 C 0.50682 0.42085 0.63419 0.0
C340 C 0.49399 0.44065 0.68945 0.0
C341 C 0.49219 0.39536 0.6149 0.0
C342 C 0.46693 0.43437 0.72874 0.0
C343 C 0.45217 0.40905 0.70989 0.0
H344 H 0.13571 0.56084 0.46053 0.0
H345 H 0.17496 0.51397 0.64316 0.0
H346 H 0.12778 0.49603 0.69805 0.0
H347 H 0.07527 0.49167 0.68729 0.0
H348 H 0.03755 0.53752 0.49886 0.0
H349 H 0.08436 0.55777 0.45279 0.0
C350 C 0.1341 0.54692 0.51304 0.0
C351 C 0.1589 0.53877 0.5476 0.0
C352 C 0.10714 0.53627 0.54256 0.0
C353 C 0.15623 0.52058 0.61528 0.0
C354 C 0.12926 0.51024 0.64647 0.0
C355 C 0.07741 0.50622 0.63654 0.0
C356 C 0.05309 0.51303 0.5961 0.0
C357 C 0.10456 0.5176 0.60953 0.0
C358 C 0.05601 0.53184 0.53043 0.0
C359 C 0.08274 0.54347 0.50419 0.0
H360 H 1.00079 0.82919 0.76285 0.0
H361 H 0.91206 0.84352 0.81085 0.0
H362 H 0.92392 0.89321 0.82288 0.0
H363 H 0.9599 0.93233 0.828 0.0
H364 H 0.048 0.91895 0.76314 0.0
H365 H 0.03627 0.86907 0.74946 0.0
C366 C 0.98415 0.84332 0.77511 0.0
C367 C 0.95568 0.83294 0.78687 0.0
C368 C 0.99107 0.87188 0.77948 0.0
C369 C 0.93412 0.85122 0.80164 0.0
C370 C 0.94089 0.87956 0.80882 0.0
C371 C 0.97642 0.91842 0.81024 0.0
C372 C 0.00477 0.92895 0.79784 0.0
C373 C 0.96932 0.89007 0.79918 0.0
C374 C 0.02605 0.91103 0.7734 0.0
C375 C 0.01935 0.88262 0.76571 0.0
H376 H 0.67683 0.01479 0.93713 0.0
H377 H 0.64232 0.93153 0.88672 0.0
H378 H 0.59568 0.9481 0.86441 0.0
H379 H 0.56529 0.98654 0.85618 0.0
H380 H 0.60017 0.06974 0.90085 0.0
H381 H 0.64612 0.05306 0.93048 0.0
C382 C 0.65896 1.00029 0.92269 0.0
C383 C 0.66282 0.97199 0.91499 0.0
C384 C 0.63233 0.00999 0.90958 0.0
C385 C 0.6398 0.95343 0.89299 0.0
C386 C 0.61313 0.96288 0.88073 0.0
C387 C 0.58263 0.0009 0.87465 0.0
C388 C 0.57915 0.02923 0.87833 0.0
C389 C 0.60915 0.99112 0.88898 0.0
C390 C 0.60232 0.04778 0.89856 0.0
C391 C 0.62859 0.03827 0.9151 0.0
H392 H 0.56586 0.66728 0.80261 0.0
H393 H 0.58686 0.66344 0.06873 0.0
H394 H 0.56114 0.61845 0.07676 0.0
H395 H 0.53366 0.57937 0.0058 0.0
H396 H 0.50501 0.58711 0.7496 0.0
H397 H 0.53236 0.63151 0.73956 0.0
C398 C 0.56474 0.65665 0.86249 0.0
C399 C 0.58008 0.66782 0.93323 0.0
C400 C 0.54848 0.63145 0.86796 0.0
C401 C 0.57749 0.65423 0.01113 0.0
C402 C 0.5621 0.62877 0.01638 0.0
C403 C 0.53329 0.59089 0.94806 0.0
C404 C 0.51872 0.57942 0.87638 0.0
C405 C 0.54793 0.61695 0.94463 0.0
C406 C 0.51764 0.59485 0.80311 0.0
C407 C 0.53285 0.62041 0.79806 0.0
H408 H 0.8477 0.49881 0.09627 0.0
H409 H 0.8137 0.44878 0.88223 0.0
H410 H 0.86118 0.44983 0.80774 0.0
H411 H 0.91304 0.46342 0.80774 0.0
H412 H 0.9466 0.5097 0.02963 0.0
H413 H 0.8987 0.51147 0.09763 0.0
C414 C 0.85058 0.48848 0.03268 0.0
C415 C 0.82723 0.4741 0.99404 0.0
C416 C 0.87796 0.48822 0.99243 0.0
C417 C 0.83139 0.46016 0.91279 0.0
C418 C 0.85851 0.46068 0.8705 0.0
C419 C 0.90966 0.47403 0.87055 0.0
C420 C 0.9331 0.48654 0.91363 0.0
C421 C 0.88205 0.47438 0.91024 0.0
C422 C 0.92878 0.49981 0.99573 0.0
C423 C 0.90143 0.50094 0.03439 0.0
H424 H 0.0316 0.15052 0.21795 0.0
H425 H 0.09788 0.10414 0.30561 0.0
H426 H 0.08738 0.06771 0.19478 0.0
H427 H 0.05969 0.04916 0.07194 0.0
H428 H 0.99454 0.09612 0.98114 0.0
H429 H 0.00415 0.13214 0.09453 0.0
C430 C 0.04374 0.13243 0.21289 0.0
C431 C 0.0655 0.13009 0.26996 0.0
C432 C 0.03773 0.11164 0.14861 0.0
C433 C 0.0811 0.10655 0.26227 0.0
C434 C 0.07507 0.08565 0.19904 0.0
C435 C 0.04752 0.06723 0.07742 0.0
C436 C 0.02635 0.07 0.0189 0.0
C437 C 0.05347 0.08799 0.14183 0.0
C438 C 0.01087 0.09356 0.0259 0.0
C439 C 0.0164 0.11415 0.09053 0.0
H440 H 0.38943 0.04457 0.27193 0.0
H441 H 0.36174 0.11006 0.12842 0.0
H442 H 0.39626 0.09931 0.0097 0.0
H443 H 0.43506 0.07229 0.94881 0.0
H444 H 0.46284 0.0068 0.09217 0.0
H445 H 0.42745 0.01674 0.20928 0.0
C446 C 0.39076 0.05641 0.21448 0.0
C447 C 0.37303 0.07815 0.20923 0.0
C448 C 0.41082 0.05029 0.14689 0.0
C449 C 0.3751 0.09323 0.13422 0.0
C450 C 0.39491 0.08716 0.06643 0.0
C451 C 0.43357 0.06027 0.00587 0.0
C452 C 0.45183 0.039 0.01205 0.0
C453 C 0.41308 0.06596 0.07258 0.0
C454 C 0.44917 0.02335 0.08584 0.0
C455 C 0.42891 0.029 0.1528 0.0
H456 H 0.3971 0.40779 0.2966 0.0
H457 H 0.42084 0.33554 0.14335 0.0
H458 H 0.44176 0.36445 0.02895 0.0
H459 H 0.45573 0.41051 0.97621 0.0
H460 H 0.43154 0.48247 0.12965 0.0
H461 H 0.40839 0.4534 0.24038 0.0
C462 C 0.40664 0.3983 0.23792 0.0
C463 C 0.40755 0.36953 0.2289 0.0
C464 C 0.41874 0.41502 0.17273 0.0
C465 C 0.41983 0.35762 0.15206 0.0
C466 C 0.43192 0.37415 0.08674 0.0
C467 C 0.44525 0.41976 0.03377 0.0
C468 C 0.44548 0.44854 0.04533 0.0
C469 C 0.4319 0.4029 0.097 0.0
C470 C 0.43167 0.46034 0.11961 0.0
C471 C 0.41846 0.44374 0.18291 0.0
H472 H 0.17053 0.56532 0.09286 0.0
H473 H 0.15126 0.49134 0.23151 0.0
H474 H 0.11096 0.4787 0.14272 0.0
H475 H 0.07957 0.48948 0.03143 0.0
H476 H 0.09857 0.56212 0.88747 0.0
H477 H 0.14054 0.5745 0.97253 0.0
C478 C 0.15769 0.5463 0.10295 0.0
C479 C 0.16388 0.52945 0.1694 0.0
C480 C 0.13432 0.53904 0.05134 0.0
C481 C 0.14704 0.50481 0.18126 0.0
C482 C 0.12386 0.49755 0.13065 0.0
C483 C 0.09292 0.50803 0.01863 0.0
C484 C 0.08588 0.5251 0.95438 0.0
C485 C 0.11703 0.5147 0.06666 0.0
C486 C 0.10354 0.54881 0.93728 0.0
C487 C 0.1275 0.55584 0.98581 0.0
H488 H 0.01097 0.85231 0.20235 0.0
H489 H 0.97359 0.91422 0.06626 0.0
H490 H 0.9777 0.94627 0.19264 0.0
H491 H 0.99088 0.95644 0.34283 0.0
H492 H 0.02767 0.89465 0.48029 0.0
H493 H 0.02476 0.86275 0.35242 0.0
C494 C 0.00389 0.87287 0.20017 0.0
C495 C 0.99194 0.88083 0.12504 0.0
C496 C 0.00606 0.89114 0.27344 0.0
C497 C 0.98276 0.90751 0.12339 0.0
C498 C 0.98508 0.92587 0.19564 0.0
C499 C 0.99826 0.93598 0.34466 0.0
C500 C 0.00942 0.92781 0.42054 0.0
C501 C 0.99648 0.91783 0.27117 0.0
C502 C 0.01896 0.90132 0.42236 0.0
C503 C 0.01732 0.88312 0.34935 0.0
H504 H 0.62873 0.96599 0.36183 0.0
H505 H 0.62033 0.04639 0.26835 0.0
H506 H 0.58544 0.05602 0.38729 0.0
H507 H 0.55792 0.04176 0.51914 0.0
H508 H 0.56783 0.96177 0.61398 0.0
H509 H 0.60149 0.95182 0.49279 0.0
C510 C 0.61925 0.98561 0.36724 0.0
C511 C 0.62712 0.00543 0.30634 0.0
C512 C 0.59945 0.99107 0.43596 0.0
C513 C 0.61471 0.0308 0.31459 0.0
C514 C 0.59472 0.0363 0.38246 0.0
C515 C 0.56729 0.02208 0.51292 0.0
C516 C 0.5603 0.00252 0.57536 0.0
C517 C 0.58698 0.0166 0.44364 0.0
C518 C 0.57286 0.97722 0.56691 0.0
C519 C 0.59212 0.97149 0.49762 0.0
H520 H 0.6217 0.60636 0.27426 0.0
H521 H 0.57597 0.6757 0.37546 0.0
H522 H 0.5546 0.64885 0.49331 0.0
H523 H 0.54706 0.60518 0.56407 0.0
H524 H 0.59247 0.53562 0.46481 0.0
H525 H 0.61593 0.56308 0.34995 0.0
C526 C 0.60724 0.61566 0.32247 0.0
C527 C 0.60037 0.64298 0.31565 0.0
C528 C 0.59488 0.60004 0.3902 0.0
C529 C 0.58162 0.65472 0.37886 0.0
C530 C 0.56932 0.63936 0.44632 0.0
C531 C 0.56221 0.59609 0.51748 0.0
C532 C 0.56796 0.56846 0.5222 0.0
C533 C 0.5755 0.61194 0.45197 0.0
C534 C 0.58773 0.55691 0.46208 0.0
C535 C 0.60108 0.57257 0.39645 0.0
H536 H 0.8527 0.41827 0.27697 0.0
H537 H 0.79113 0.4636 0.43204 0.0
H538 H 0.8259 0.47463 0.54287 0.0
H539 H 0.87506 0.47385 0.59083 0.0
H540 H 0.93634 0.4295 0.43151 0.0
H541 H 0.90037 0.41555 0.32735 0.0
C542 C 0.84671 0.43038 0.33529 0.0
C543 C 0.81938 0.44022 0.34588 0.0
C544 C 0.86686 0.43694 0.39781 0.0
C545 C 0.81204 0.45578 0.42214 0.0
C546 C 0.83195 0.46217 0.48543 0.0
C547 C 0.88037 0.46093 0.53363 0.0
C548 C 0.90829 0.45281 0.51843 0.0
C549 C 0.8596 0.45325 0.47324 0.0
C550 C 0.915 0.43609 0.4443 0.0
C551 C 0.89446 0.42812 0.3847 0.0
loop_
_geom_bond_atom_site_label_1
_geom_bond_atom_site_label_2
_geom_bond_distance
_geom_bond_site_symmetry_2
_ccdc_geom_bond_type
O0 Cd1 2.300 1_556 S
O0 C7 1.275 . S
Cd1 O0 2.300 1_554 S
Cd1 O9 2.381 1_554 S
Cd1 O10 2.378 . S
O2 Cd3 2.385 . S
O2 C7 1.255 1_554 S
Cd3 O2 2.385 . S
Cd3 O4 2.317 . S
O4 Cd3 2.317 . S
O4 C5 1.232 . S
C5 O4 1.232 . S
C5 O6 1.218 . S
O6 C5 1.218 . S
C7 O0 1.275 . S
C7 O2 1.255 1_556 S
C8 O9 1.258 1_554 S
C8 O10 1.256 . S
O9 Cd1 2.381 1_556 S
O9 C8 1.258 1_556 S
O10 Cd1 2.378 . S
O10 C8 1.256 . S
O11 Cd12 2.300 . S
O11 C18 1.275 . S
Cd12 O11 2.300 . S
Cd12 O20 2.381 . S
Cd12 O21 2.378 1_556 S
O13 Cd14 2.390 1_655 S
O13 C18 1.250 1_554 S
Cd14 O13 2.390 1_455 S
Cd14 O15 2.317 1_455 S
O15 Cd14 2.317 1_655 S
O15 C16 1.232 . S
C16 O15 1.232 . S
C16 O17 1.218 . S
O17 C16 1.218 . S
C18 O11 1.275 . S
C18 O13 1.250 1_556 S
C19 O20 1.258 . S
C19 O21 1.256 1_556 S
O20 Cd12 2.381 . S
O20 C19 1.258 . S
O21 Cd12 2.378 1_554 S
O21 C19 1.256 1_554 S
O22 Cd23 2.300 1_556 S
O22 C29 1.275 1_556 S
Cd23 O22 2.300 1_554 S
Cd23 O31 2.381 1_554 S
Cd23 O32 2.378 . S
O24 Cd25 2.385 1_565 S
O24 C29 1.255 . S
Cd25 O24 2.385 1_545 S
Cd25 O26 2.317 1_545 S
O26 Cd25 2.317 1_565 S
O26 C27 1.232 . S
C27 O26 1.232 . S
C27 O28 1.218 . S
O28 C27 1.218 . S
C29 O22 1.275 1_554 S
C29 O24 1.255 . S
C30 O31 1.258 1_554 S
C30 O32 1.256 . S
O31 Cd23 2.381 1_556 S
O31 C30 1.258 1_556 S
O32 Cd23 2.378 . S
O32 C30 1.256 . S
O33 Cd34 2.300 1_556 S
O33 C40 1.275 1_556 S
Cd34 O33 2.300 1_554 S
Cd34 O42 2.381 1_554 S
Cd34 O43 2.378 . S
O35 Cd36 2.385 . S
O35 C40 1.255 . S
Cd36 O35 2.385 . S
Cd36 O37 2.317 . S
O37 Cd36 2.317 . S
O37 C38 1.232 . S
C38 O37 1.232 . S
C38 O39 1.218 . S
O39 C38 1.218 . S
C40 O33 1.275 1_554 S
C40 O35 1.255 . S
C41 O42 1.258 1_554 S
C41 O43 1.256 . S
O42 Cd34 2.381 1_556 S
O42 C41 1.258 1_556 S
O43 Cd34 2.378 . S
O43 C41 1.256 . S
O44 Cd45 2.300 . S
O44 C51 1.275 . S
Cd45 O44 2.300 . S
Cd45 O53 2.381 . S
Cd45 O54 2.378 . S
O46 Cd47 2.385 . S
O46 C51 1.255 . S
Cd47 O46 2.385 . S
Cd47 O48 2.317 . S
O48 Cd47 2.317 . S
O48 C49 1.232 . S
C49 O48 1.232 . S
C49 O50 1.218 . S
O50 C49 1.218 . S
C51 O44 1.275 . S
C51 O46 1.255 . S
C52 O53 1.258 . S
C52 O54 1.256 . S
O53 Cd45 2.381 . S
O53 C52 1.258 . S
O54 Cd45 2.378 . S
O54 C52 1.256 . S
O55 Cd56 2.300 . S
O55 C62 1.275 . S
Cd56 O55 2.300 . S
Cd56 O64 2.381 . S
Cd56 O65 2.378 . S
O57 Cd58 2.385 . S
O57 C62 1.255 . S
Cd58 O57 2.385 . S
Cd58 O59 2.317 . S
O59 Cd58 2.317 . S
O59 C60 1.232 . S
C60 O59 1.232 . S
C60 O61 1.218 . S
O61 C60 1.218 . S
C62 O55 1.275 . S
C62 O57 1.255 . S
C63 O64 1.258 . S
C63 O65 1.256 . S
O64 Cd56 2.381 . S
O64 C63 1.258 . S
O65 Cd56 2.378 . S
O65 C63 1.256 . S
O66 Cd67 2.300 . S
O66 C73 1.275 . S
Cd67 O66 2.300 . S
Cd67 O75 2.381 . S
Cd67 O76 2.378 . S
O68 Cd69 2.385 . S
O68 C73 1.255 . S
Cd69 O68 2.385 . S
Cd69 O70 2.317 . S
O70 Cd69 2.317 . S
O70 C71 1.232 . S
C71 O70 1.232 . S
C71 O72 1.218 . S
O72 C71 1.218 . S
C73 O66 1.275 . S
C73 O68 1.255 . S
C74 O75 1.258 . S
C74 O76 1.256 . S
O75 Cd67 2.381 . S
O75 C74 1.258 . S
O76 Cd67 2.378 . S
O76 C74 1.256 . S
O77 Cd78 2.300 . S
O77 C84 1.275 . S
Cd78 O77 2.300 . S
Cd78 O86 2.381 . S
Cd78 O87 2.378 . S
O79 Cd80 2.385 . S
O79 C84 1.255 . S
Cd80 O79 2.385 . S
Cd80 O81 2.317 . S
O81 Cd80 2.317 . S
O81 C82 1.232 . S
C82 O81 1.232 . S
C82 O83 1.218 . S
O83 C82 1.218 . S
C84 O77 1.275 . S
C84 O79 1.255 . S
C85 O86 1.258 . S
C85 O87 1.256 . S
O86 Cd78 2.381 . S
O86 C85 1.258 . S
O87 Cd78 2.378 . S
O87 C85 1.256 . S
Tb88 O91 2.421 1_565 S
Tb88 O92 2.575 1_665 S
Tb88 O93 2.375 1_665 S
Tb88 O101 2.360 1_655 S
Tb88 O103 2.348 1_565 S
Tb88 O105 2.452 . S
Tb88 O106 2.542 1_655 S
C89 O93 1.251 . S
C89 O95 1.263 . S
Tb90 O92 2.343 . S
Tb90 O95 2.353 . S
Tb90 O98 2.427 . S
Tb90 O99 2.513 . S
Tb90 O100 2.453 1_545 S
Tb90 O101 2.596 1_545 S
Tb90 O102 2.374 1_455 S
O91 Tb88 2.421 1_545 S
O91 C107 1.245 1_655 S
O92 Tb88 2.575 1_445 S
O92 Tb90 2.343 . S
O92 C107 1.259 . S
O93 Tb88 2.375 1_445 S
O93 C89 1.251 . S
C94 O98 1.275 . S
C94 O99 1.246 . S
O95 C89 1.263 . S
O95 Tb90 2.353 . S
C96 O100 1.245 . S
C96 O101 1.259 . S
C97 O102 1.250 . S
C97 O103 1.263 . S
O98 Tb90 2.427 . S
O98 C94 1.275 . S
O99 Tb90 2.513 . S
O99 C94 1.246 . S
O100 Tb90 2.453 1_565 S
O100 C96 1.245 . S
O101 Tb88 2.360 1_455 S
O101 Tb90 2.596 1_565 S
O101 C96 1.259 . S
O102 Tb90 2.374 1_655 S
O102 C97 1.250 . S
O103 Tb88 2.348 1_545 S
O103 C97 1.263 . S
C104 O105 1.275 . S
C104 O106 1.246 1_655 S
O105 Tb88 2.452 . S
O105 C104 1.275 . S
O106 Tb88 2.542 1_455 S
O106 C104 1.246 1_455 S
C107 O91 1.245 1_455 S
C107 O92 1.259 . S
Tb108 O111 2.453 . S
Tb108 O112 2.596 1_545 S
Tb108 O113 2.374 . S
Tb108 O121 2.343 . S
Tb108 O123 2.353 . S
Tb108 O125 2.427 . S
Tb108 O126 2.513 . S
C109 O113 1.219 1_565 S
C109 O115 1.287 . S
Tb110 O112 2.343 . S
Tb110 O115 2.353 . S
Tb110 O118 2.427 . S
Tb110 O119 2.513 . S
Tb110 O120 2.453 . S
Tb110 O121 2.596 1_565 S
Tb110 O122 2.374 . S
O111 Tb108 2.453 . S
O111 C127 1.245 . S
O112 Tb108 2.596 1_565 S
O112 Tb110 2.343 . S
O112 C127 1.259 1_565 S
O113 Tb108 2.374 . S
O113 C109 1.219 1_545 S
C114 O118 1.275 . S
C114 O119 1.246 . S
O115 C109 1.287 . S
O115 Tb110 2.353 . S
C116 O120 1.245 1_545 S
C116 O121 1.259 . S
C117 O122 1.250 1_545 S
C117 O123 1.263 . S
O118 Tb110 2.427 . S
O118 C114 1.275 . S
O119 Tb110 2.513 . S
O119 C114 1.246 . S
O120 Tb110 2.453 . S
O120 C116 1.245 1_565 S
O121 Tb108 2.343 . S
O121 Tb110 2.596 1_545 S
O121 C116 1.259 . S
O122 Tb110 2.374 . S
O122 C117 1.250 1_565 S
O123 Tb108 2.353 . S
O123 C117 1.263 . S
C124 O125 1.275 . S
C124 O126 1.246 . S
O125 Tb108 2.427 . S
O125 C124 1.275 . S
O126 Tb108 2.513 . S
O126 C124 1.246 . S
C127 O111 1.245 . S
C127 O112 1.259 1_545 S
Tb128 O131 2.453 . S
Tb128 O132 2.596 . S
Tb128 O133 2.374 . S
Tb128 O141 2.343 . S
Tb128 O143 2.353 . S
Tb128 O145 2.427 . S
Tb128 O146 2.513 . S
C129 O133 1.251 . S
C129 O135 1.263 . S
Tb130 O132 2.343 . S
Tb130 O135 2.353 . S
Tb130 O138 2.427 . S
Tb130 O139 2.513 . S
Tb130 O140 2.453 . S
Tb130 O141 2.596 . S
Tb130 O142 2.374 . S
O131 Tb128 2.453 . S
O131 C147 1.245 . S
O132 Tb128 2.596 . S
O132 Tb130 2.343 . S
O132 C147 1.259 . S
O133 Tb128 2.374 . S
O133 C129 1.251 . S
C134 O138 1.275 . S
C134 O139 1.246 . S
O135 C129 1.263 . S
O135 Tb130 2.353 . S
C136 O140 1.245 . S
C136 O141 1.259 . S
C137 O142 1.250 . S
C137 O143 1.263 . S
O138 Tb130 2.427 . S
O138 C134 1.275 . S
O139 Tb130 2.513 . S
O139 C134 1.246 . S
O140 Tb130 2.453 . S
O140 C136 1.245 . S
O141 Tb128 2.343 . S
O141 Tb130 2.596 . S
O141 C136 1.259 . S
O142 Tb130 2.374 . S
O142 C137 1.250 . S
O143 Tb128 2.353 . S
O143 C137 1.263 . S
C144 O145 1.275 . S
C144 O146 1.246 . S
O145 Tb128 2.427 . S
O145 C144 1.275 . S
O146 Tb128 2.513 . S
O146 C144 1.246 . S
C147 O131 1.245 . S
C147 O132 1.259 . S
Tb148 O151 2.418 1_655 S
Tb148 O152 2.569 1_655 S
Tb148 O153 2.368 1_655 S
Tb148 O161 2.358 . S
Tb148 O163 2.352 1_655 S
Tb148 O165 2.458 . S
Tb148 O166 2.543 . S
C149 O153 1.251 . S
C149 O155 1.263 . S
Tb150 O152 2.343 . S
Tb150 O155 2.353 . S
Tb150 O158 2.427 . S
Tb150 O159 2.513 . S
Tb150 O160 2.453 1_455 S
Tb150 O161 2.596 1_455 S
Tb150 O162 2.374 . S
O151 Tb148 2.418 1_455 S
O151 C167 1.245 . S
O152 Tb148 2.569 1_455 S
O152 Tb150 2.343 . S
O152 C167 1.259 . S
O153 Tb148 2.368 1_455 S
O153 C149 1.251 . S
C154 O158 1.275 . S
C154 O159 1.246 . S
O155 C149 1.263 . S
O155 Tb150 2.353 . S
C156 O160 1.245 . S
C156 O161 1.259 . S
C157 O162 1.250 . S
C157 O163 1.263 . S
O158 Tb150 2.427 . S
O158 C154 1.275 . S
O159 Tb150 2.513 . S
O159 C154 1.246 . S
O160 Tb150 2.453 1_655 S
O160 C156 1.245 . S
O161 Tb148 2.358 . S
O161 Tb150 2.596 1_655 S
O161 C156 1.259 . S
O162 Tb150 2.374 . S
O162 C157 1.250 . S
O163 Tb148 2.352 1_455 S
O163 C157 1.263 . S
C164 O165 1.275 . S
C164 O166 1.246 . S
O165 Tb148 2.458 . S
O165 C164 1.275 . S
O166 Tb148 2.543 . S
O166 C164 1.246 . S
C167 O151 1.245 . S
C167 O152 1.259 . S
H168 C174 0.930 . S
H169 C177 0.930 . S
H170 C178 0.930 . S
H171 C179 0.930 . S
H172 C182 0.930 . S
H173 C183 0.945 . S
C174 H168 0.930 . S
C174 C175 1.355 . S
C174 C176 1.415 . S
C175 C174 1.355 . S
C175 C177 1.419 . S
C176 C174 1.415 . S
C176 C181 1.425 . S
C176 C183 1.394 1_545 S
C177 H169 0.930 . S
C177 C175 1.419 . S
C177 C178 1.362 . S
C178 H170 0.930 . S
C178 C177 1.362 . S
C178 C181 1.409 . S
C179 H171 0.930 . S
C179 C180 1.355 . S
C179 C181 1.415 . S
C180 C179 1.355 . S
C180 C182 1.419 1_545 S
C181 C176 1.425 . S
C181 C178 1.409 . S
C181 C179 1.415 . S
C182 H172 0.930 . S
C182 C180 1.419 1_565 S
C182 C183 1.363 . S
C183 H173 0.945 . S
C183 C176 1.394 1_565 S
C183 C182 1.363 . S
H184 C190 0.930 . S
H185 C193 0.930 . S
H186 C194 0.930 . S
H187 C195 0.930 . S
H188 C198 0.930 . S
H189 C199 0.930 . S
C190 H184 0.930 . S
C190 C191 1.355 . S
C190 C192 1.415 . S
C191 C190 1.355 . S
C191 C193 1.419 . S
C192 C190 1.415 . S
C192 C197 1.425 . S
C192 C199 1.409 . S
C193 H185 0.930 . S
C193 C191 1.419 . S
C193 C194 1.362 . S
C194 H186 0.930 . S
C194 C193 1.362 . S
C194 C197 1.409 . S
C195 H187 0.930 . S
C195 C196 1.355 . S
C195 C197 1.415 . S
C196 C195 1.355 . S
C196 C198 1.419 . S
C197 C192 1.425 . S
C197 C194 1.409 . S
C197 C195 1.415 . S
C198 H188 0.930 . S
C198 C196 1.419 . S
C198 C199 1.362 . S
C199 H189 0.930 . S
C199 C192 1.409 . S
C199 C198 1.362 . S
H200 C206 0.930 . S
H201 C209 0.930 . S
H202 C210 0.930 . S
H203 C211 0.930 . S
H204 C214 0.930 . S
H205 C215 0.930 . S
C206 H200 0.930 . S
C206 C207 1.355 . S
C206 C208 1.415 . S
C207 C206 1.355 . S
C207 C209 1.419 . S
C208 C206 1.415 . S
C208 C213 1.425 . S
C208 C215 1.409 . S
C209 H201 0.930 . S
C209 C207 1.419 . S
C209 C210 1.362 . S
C210 H202 0.930 . S
C210 C209 1.362 . S
C210 C213 1.409 . S
C211 H203 0.930 . S
C211 C212 1.355 . S
C211 C213 1.415 . S
C212 C211 1.355 . S
C212 C214 1.419 . S
C213 C208 1.425 . S
C213 C210 1.409 . S
C213 C211 1.415 . S
C214 H204 0.930 . S
C214 C212 1.419 . S
C214 C215 1.362 . S
C215 H205 0.930 . S
C215 C208 1.409 . S
C215 C214 1.362 . S
H216 C222 0.930 . S
H217 C225 0.930 . S
H218 C226 0.930 . S
H219 C227 0.930 . S
H220 C230 0.930 1_655 S
H221 C231 0.927 1_655 S
C222 H216 0.930 . S
C222 C223 1.355 . S
C222 C224 1.415 . S
C223 C222 1.355 . S
C223 C225 1.419 . S
C224 C222 1.415 . S
C224 C229 1.425 . S
C224 C231 1.409 . S
C225 H217 0.930 . S
C225 C223 1.419 . S
C225 C226 1.362 . S
C226 H218 0.930 . S
C226 C225 1.362 . S
C226 C229 1.409 . S
C227 H219 0.930 . S
C227 C228 1.355 . S
C227 C229 1.415 . S
C228 C227 1.355 . S
C228 C230 1.419 . S
C229 C224 1.425 . S
C229 C226 1.409 . S
C229 C227 1.415 . S
C230 H220 0.930 1_455 S
C230 C228 1.419 . S
C230 C231 1.362 . S
C231 H221 0.927 1_455 S
C231 C224 1.409 . S
C231 C230 1.362 . S
H232 C238 0.930 . S
H233 C241 0.930 . S
H234 C242 0.930 . S
H235 C243 0.930 . S
H236 C246 0.930 . S
H237 C247 0.930 . S
C238 H232 0.930 . S
C238 C239 1.355 . S
C238 C240 1.415 . S
C239 C238 1.355 . S
C239 C241 1.419 1_565 S
C240 C238 1.415 . S
C240 C245 1.425 . S
C240 C247 1.409 . S
C241 H233 0.930 . S
C241 C239 1.419 1_545 S
C241 C242 1.362 . S
C242 H234 0.930 . S
C242 C241 1.362 . S
C242 C245 1.409 1_545 S
C243 H235 0.930 . S
C243 C244 1.355 1_545 S
C243 C245 1.415 1_545 S
C244 C243 1.355 1_565 S
C244 C246 1.419 . S
C245 C240 1.425 . S
C245 C242 1.409 1_565 S
C245 C243 1.415 1_565 S
C246 H236 0.930 . S
C246 C244 1.419 . S
C246 C247 1.362 . S
C247 H237 0.930 . S
C247 C240 1.409 . S
C247 C246 1.362 . S
H248 C254 0.930 . S
H249 C257 0.930 . S
H250 C258 0.930 . S
H251 C259 0.930 . S
H252 C262 0.930 . S
H253 C263 0.930 1_554 S
C254 H248 0.930 . S
C254 C255 1.355 1_554 S
C254 C256 1.415 1_554 S
C255 C254 1.355 1_556 S
C255 C257 1.419 . S
C256 C254 1.415 1_556 S
C256 C261 1.425 . S
C256 C263 1.409 . S
C257 H249 0.930 . S
C257 C255 1.419 . S
C257 C258 1.362 . S
C258 H250 0.930 . S
C258 C257 1.362 . S
C258 C261 1.409 . S
C259 H251 0.930 . S
C259 C260 1.355 . S
C259 C261 1.415 . S
C260 C259 1.355 . S
C260 C262 1.419 . S
C261 C256 1.425 . S
C261 C258 1.409 . S
C261 C259 1.415 . S
C262 H252 0.930 . S
C262 C260 1.419 . S
C262 C263 1.362 . S
C263 H253 0.930 1_556 S
C263 C256 1.409 . S
C263 C262 1.362 . S
H264 C270 0.930 . S
H265 C273 0.930 . S
H266 C274 0.930 . S
H267 C275 0.930 . S
H268 C278 0.930 . S
H269 C279 0.930 . S
C270 H264 0.930 . S
C270 C271 1.355 . S
C270 C272 1.415 . S
C271 C270 1.355 . S
C271 C273 1.419 1_556 S
C272 C270 1.415 . S
C272 C277 1.425 . S
C272 C279 1.409 . S
C273 H265 0.930 . S
C273 C271 1.419 1_554 S
C273 C274 1.362 . S
C274 H266 0.930 . S
C274 C273 1.362 . S
C274 C277 1.409 1_554 S
C275 H267 0.930 . S
C275 C276 1.355 . S
C275 C277 1.415 . S
C276 C275 1.355 . S
C276 C278 1.419 . S
C277 C272 1.425 . S
C277 C274 1.409 1_556 S
C277 C275 1.415 . S
C278 H268 0.930 . S
C278 C276 1.419 . S
C278 C279 1.362 . S
C279 H269 0.930 . S
C279 C272 1.409 . S
C279 C278 1.362 . S
H280 C286 0.930 . S
H281 C289 0.930 1_554 S
H282 C290 0.930 1_455 S
H283 C291 0.930 1_455 S
H284 C294 0.930 . S
H285 C295 0.930 . S
C286 H280 0.930 . S
C286 C287 1.355 . S
C286 C288 1.415 . S
C287 C286 1.355 . S
C287 C289 1.419 . S
C288 C286 1.415 . S
C288 C293 1.425 . S
C288 C295 1.409 . S
C289 H281 0.930 1_556 S
C289 C287 1.419 . S
C289 C290 1.362 . S
C290 H282 0.930 1_655 S
C290 C289 1.362 . S
C290 C293 1.409 . S
C291 H283 0.930 1_655 S
C291 C292 1.355 . S
C291 C293 1.415 . S
C292 C291 1.355 . S
C292 C294 1.419 . S
C293 C288 1.425 . S
C293 C290 1.409 . S
C293 C291 1.415 . S
C294 H284 0.930 . S
C294 C292 1.419 . S
C294 C295 1.362 . S
C295 H285 0.930 . S
C295 C288 1.409 . S
C295 C294 1.362 . S
H296 C302 0.930 . S
H297 C305 0.930 . S
H298 C306 0.930 . S
H299 C307 0.930 . S
H300 C310 0.930 1_655 S
H301 C311 0.926 1_655 S
C302 H296 0.930 . S
C302 C303 1.355 . S
C302 C304 1.415 . S
C303 C302 1.355 . S
C303 C305 1.419 . S
C304 C302 1.415 . S
C304 C309 1.425 . S
C304 C311 1.409 . S
C305 H297 0.930 . S
C305 C303 1.419 . S
C305 C306 1.362 . S
C306 H298 0.930 . S
C306 C305 1.362 . S
C306 C309 1.409 . S
C307 H299 0.930 . S
C307 C308 1.355 . S
C307 C309 1.415 . S
C308 C307 1.355 . S
C308 C310 1.419 . S
C309 C304 1.425 . S
C309 C306 1.409 . S
C309 C307 1.415 . S
C310 H300 0.930 1_455 S
C310 C308 1.419 . S
C310 C311 1.362 . S
C311 H301 0.926 1_455 S
C311 C304 1.409 . S
C311 C310 1.362 . S
H312 C318 0.930 . S
H313 C321 0.930 . S
H314 C322 0.930 . S
H315 C323 0.930 . S
H316 C326 0.930 1_565 S
H317 C327 0.930 1_565 S
C318 H312 0.930 . S
C318 C319 1.355 . S
C318 C320 1.415 . S
C319 C318 1.355 . S
C319 C321 1.419 . S
C320 C318 1.415 . S
C320 C325 1.425 . S
C320 C327 1.409 . S
C321 H313 0.930 . S
C321 C319 1.419 . S
C321 C322 1.362 . S
C322 H314 0.930 . S
C322 C321 1.362 . S
C322 C325 1.409 . S
C323 H315 0.930 . S
C323 C324 1.355 . S
C323 C325 1.415 . S
C324 C323 1.355 . S
C324 C326 1.419 . S
C325 C320 1.425 . S
C325 C322 1.409 . S
C325 C323 1.415 . S
C326 H316 0.930 1_545 S
C326 C324 1.419 . S
C326 C327 1.362 . S
C327 H317 0.930 1_545 S
C327 C320 1.409 . S
C327 C326 1.362 . S
H328 C334 0.930 . S
H329 C337 0.930 . S
H330 C338 0.930 . S
H331 C339 0.930 . S
H332 C342 0.930 . S
H333 C343 0.930 . S
C334 H328 0.930 . S
C334 C335 1.355 . S
C334 C336 1.415 . S
C335 C334 1.355 . S
C335 C337 1.419 . S
C336 C334 1.415 . S
C336 C341 1.425 . S
C336 C343 1.409 . S
C337 H329 0.930 . S
C337 C335 1.419 . S
C337 C338 1.362 . S
C338 H330 0.930 . S
C338 C337 1.362 . S
C338 C341 1.409 . S
C339 H331 0.930 . S
C339 C340 1.355 . S
C339 C341 1.415 . S
C340 C339 1.355 . S
C340 C342 1.419 . S
C341 C336 1.425 . S
C341 C338 1.409 . S
C341 C339 1.415 . S
C342 H332 0.930 . S
C342 C340 1.419 . S
C342 C343 1.362 . S
C343 H333 0.930 . S
C343 C336 1.409 . S
C343 C342 1.362 . S
H344 C350 0.930 . S
H345 C353 0.930 . S
H346 C354 0.930 . S
H347 C355 0.930 . S
H348 C358 0.930 . S
H349 C359 0.930 . S
C350 H344 0.930 . S
C350 C351 1.355 . S
C350 C352 1.415 . S
C351 C350 1.355 . S
C351 C353 1.419 . S
C352 C350 1.415 . S
C352 C357 1.425 . S
C352 C359 1.409 . S
C353 H345 0.930 . S
C353 C351 1.419 . S
C353 C354 1.362 . S
C354 H346 0.930 . S
C354 C353 1.362 . S
C354 C357 1.409 . S
C355 H347 0.930 . S
C355 C356 1.355 . S
C355 C357 1.415 . S
C356 C355 1.355 . S
C356 C358 1.419 . S
C357 C352 1.425 . S
C357 C354 1.409 . S
C357 C355 1.415 . S
C358 H348 0.930 . S
C358 C356 1.419 . S
C358 C359 1.362 . S
C359 H349 0.930 . S
C359 C352 1.409 . S
C359 C358 1.362 . S
H360 C366 0.930 . S
H361 C369 0.930 . S
H362 C370 0.930 . S
H363 C371 0.930 . S
H364 C374 0.930 . S
H365 C375 0.930 . S
C366 H360 0.930 . S
C366 C367 1.355 . S
C366 C368 1.415 . S
C367 C366 1.355 . S
C367 C369 1.419 . S
C368 C366 1.415 . S
C368 C373 1.425 . S
C368 C375 1.409 1_655 S
C369 H361 0.930 . S
C369 C367 1.419 . S
C369 C370 1.362 . S
C370 H362 0.930 . S
C370 C369 1.362 . S
C370 C373 1.409 . S
C371 H363 0.930 . S
C371 C372 1.355 . S
C371 C373 1.415 . S
C372 C371 1.355 . S
C372 C374 1.419 1_655 S
C373 C368 1.425 . S
C373 C370 1.409 . S
C373 C371 1.415 . S
C374 H364 0.930 . S
C374 C372 1.419 1_455 S
C374 C375 1.362 . S
C375 H365 0.930 . S
C375 C368 1.409 1_455 S
C375 C374 1.362 . S
H376 C382 0.930 1_544 S
H377 C385 0.930 . S
H378 C386 0.930 . S
H379 C387 0.930 . S
H380 C390 0.930 . S
H381 C391 0.930 . S
C382 H376 0.930 1_566 S
C382 C383 1.355 . S
C382 C384 1.415 . S
C383 C382 1.355 . S
C383 C385 1.419 . S
C384 C382 1.415 . S
C384 C389 1.425 . S
C384 C391 1.409 1_565 S
C385 H377 0.930 . S
C385 C383 1.419 . S
C385 C386 1.362 . S
C386 H378 0.930 . S
C386 C385 1.362 . S
C386 C389 1.409 . S
C387 H379 0.930 . S
C387 C388 1.355 . S
C387 C389 1.415 . S
C388 C387 1.355 . S
C388 C390 1.419 1_565 S
C389 C384 1.425 . S
C389 C386 1.409 . S
C389 C387 1.415 . S
C390 H380 0.930 . S
C390 C388 1.419 1_545 S
C390 C391 1.362 . S
C391 H381 0.930 . S
C391 C384 1.409 1_545 S
C391 C390 1.362 . S
H392 C398 0.930 . S
H393 C401 0.930 . S
H394 C402 0.930 1_554 S
H395 C403 0.930 . S
H396 C406 0.930 . S
H397 C407 0.930 . S
C398 H392 0.930 . S
C398 C399 1.355 . S
C398 C400 1.415 . S
C399 C398 1.355 . S
C399 C401 1.419 1_556 S
C400 C398 1.415 . S
C400 C405 1.425 . S
C400 C407 1.409 . S
C401 H393 0.930 . S
C401 C399 1.419 1_554 S
C401 C402 1.362 1_554 S
C402 H394 0.930 1_556 S
C402 C401 1.362 1_556 S
C402 C405 1.409 . S
C403 H395 0.930 . S
C403 C404 1.355 . S
C403 C405 1.415 . S
C404 C403 1.355 . S
C404 C406 1.419 . S
C405 C400 1.425 . S
C405 C402 1.409 . S
C405 C403 1.415 . S
C406 H396 0.930 . S
C406 C404 1.419 . S
C406 C407 1.362 . S
C407 H397 0.930 . S
C407 C400 1.409 . S
C407 C406 1.362 . S
H408 C414 0.930 1_554 S
H409 C417 0.930 . S
H410 C418 0.930 . S
H411 C419 0.930 . S
H412 C422 0.930 . S
H413 C423 0.930 1_554 S
C414 H408 0.930 1_556 S
C414 C415 1.355 . S
C414 C416 1.415 . S
C415 C414 1.355 . S
C415 C417 1.419 . S
C416 C414 1.415 . S
C416 C421 1.425 . S
C416 C423 1.409 . S
C417 H409 0.930 . S
C417 C415 1.419 . S
C417 C418 1.362 . S
C418 H410 0.930 . S
C418 C417 1.362 . S
C418 C421 1.409 . S
C419 H411 0.930 . S
C419 C420 1.355 . S
C419 C421 1.415 . S
C420 C419 1.355 . S
C420 C422 1.419 . S
C421 C416 1.425 . S
C421 C418 1.409 . S
C421 C419 1.415 . S
C422 H412 0.930 . S
C422 C420 1.419 . S
C422 C423 1.362 . S
C423 H413 0.930 1_556 S
C423 C416 1.409 . S
C423 C422 1.362 . S
H424 C430 0.930 . S
H425 C433 0.930 . S
H426 C434 0.930 . S
H427 C435 0.930 1_556 S
H428 C438 0.930 1_655 S
H429 C439 0.930 1_655 S
C430 H424 0.930 . S
C430 C431 1.355 . S
C430 C432 1.415 . S
C431 C430 1.355 . S
C431 C433 1.419 . S
C432 C430 1.415 . S
C432 C437 1.425 . S
C432 C439 1.409 . S
C433 H425 0.930 . S
C433 C431 1.419 . S
C433 C434 1.362 . S
C434 H426 0.930 . S
C434 C433 1.362 . S
C434 C437 1.409 . S
C435 H427 0.930 1_554 S
C435 C436 1.355 1_554 S
C435 C437 1.415 . S
C436 C435 1.355 1_556 S
C436 C438 1.419 1_556 S
C437 C432 1.425 . S
C437 C434 1.409 . S
C437 C435 1.415 . S
C438 H428 0.930 1_455 S
C438 C436 1.419 1_554 S
C438 C439 1.362 . S
C439 H429 0.930 1_455 S
C439 C432 1.409 . S
C439 C438 1.362 . S
H440 C446 0.930 . S
H441 C449 0.930 . S
H442 C450 0.930 . S
H443 C451 0.930 . S
H444 C454 0.930 1_565 S
H445 C455 0.930 1_565 S
C446 H440 0.930 . S
C446 C447 1.355 . S
C446 C448 1.415 . S
C447 C446 1.355 . S
C447 C449 1.419 . S
C448 C446 1.415 . S
C448 C453 1.425 . S
C448 C455 1.409 1_554 S
C449 H441 0.930 . S
C449 C447 1.419 . S
C449 C450 1.362 . S
C450 H442 0.930 . S
C450 C449 1.362 . S
C450 C453 1.409 . S
C451 H443 0.930 . S
C451 C452 1.355 1_554 S
C451 C453 1.415 . S
C452 C451 1.355 1_556 S
C452 C454 1.419 . S
C453 C448 1.425 . S
C453 C450 1.409 . S
C453 C451 1.415 . S
C454 H444 0.930 1_545 S
C454 C452 1.419 . S
C454 C455 1.362 . S
C455 H445 0.930 1_545 S
C455 C448 1.409 1_556 S
C455 C454 1.362 . S
H456 C462 0.930 . S
H457 C465 0.930 . S
H458 C466 0.930 1_556 S
H459 C467 0.930 . S
H460 C470 0.930 . S
H461 C471 0.930 . S
C462 H456 0.930 . S
C462 C463 1.355 . S
C462 C464 1.415 . S
C463 C462 1.355 . S
C463 C465 1.419 . S
C464 C462 1.415 . S
C464 C469 1.425 . S
C464 C471 1.409 . S
C465 H457 0.930 . S
C465 C463 1.419 . S
C465 C466 1.362 . S
C466 H458 0.930 1_554 S
C466 C465 1.362 . S
C466 C469 1.409 . S
C467 H459 0.930 . S
C467 C468 1.355 . S
C467 C469 1.415 1_556 S
C468 C467 1.355 . S
C468 C470 1.419 1_556 S
C469 C464 1.425 . S
C469 C466 1.409 . S
C469 C467 1.415 1_554 S
C470 H460 0.930 . S
C470 C468 1.419 1_554 S
C470 C471 1.362 . S
C471 H461 0.930 . S
C471 C464 1.409 . S
C471 C470 1.362 . S
H472 C478 0.930 . S
H473 C481 0.930 . S
H474 C482 0.930 . S
H475 C483 0.930 . S
H476 C486 0.930 . S
H477 C487 0.930 . S
C478 H472 0.930 . S
C478 C479 1.355 . S
C478 C480 1.415 . S
C479 C478 1.355 . S
C479 C481 1.419 . S
C480 C478 1.415 . S
C480 C485 1.425 . S
C480 C487 1.409 1_554 S
C481 H473 0.930 . S
C481 C479 1.419 . S
C481 C482 1.362 . S
C482 H474 0.930 . S
C482 C481 1.362 . S
C482 C485 1.409 . S
C483 H475 0.930 . S
C483 C484 1.355 1_554 S
C483 C485 1.415 . S
C484 C483 1.355 1_556 S
C484 C486 1.419 . S
C485 C480 1.425 . S
C485 C482 1.409 . S
C485 C483 1.415 . S
C486 H476 0.930 . S
C486 C484 1.419 . S
C486 C487 1.362 . S
C487 H477 0.930 . S
C487 C480 1.409 1_556 S
C487 C486 1.362 . S
H488 C494 0.930 . S
H489 C497 0.930 . S
H490 C498 0.930 . S
H491 C499 0.930 . S
H492 C502 0.930 . S
H493 C503 0.920 1_455 S
C494 H488 0.930 . S
C494 C495 1.355 . S
C494 C496 1.415 . S
C495 C494 1.355 . S
C495 C497 1.419 . S
C496 C494 1.415 . S
C496 C501 1.425 . S
C496 C503 1.420 . S
C497 H489 0.930 . S
C497 C495 1.419 . S
C497 C498 1.362 . S
C498 H490 0.930 . S
C498 C497 1.362 . S
C498 C501 1.409 . S
C499 H491 0.930 . S
C499 C500 1.355 . S
C499 C501 1.415 . S
C500 C499 1.355 . S
C500 C502 1.419 1_655 S
C501 C496 1.425 . S
C501 C498 1.409 . S
C501 C499 1.415 . S
C502 H492 0.930 . S
C502 C500 1.419 1_455 S
C502 C503 1.361 1_455 S
C503 H493 0.920 1_655 S
C503 C496 1.420 . S
C503 C502 1.361 1_655 S
H504 C510 0.930 . S
H505 C513 0.930 1_545 S
H506 C514 0.930 . S
H507 C515 0.930 . S
H508 C518 0.930 . S
H509 C519 0.930 . S
C510 H504 0.930 . S
C510 C511 1.355 . S
C510 C512 1.415 . S
C511 C510 1.355 . S
C511 C513 1.419 . S
C512 C510 1.415 . S
C512 C517 1.425 . S
C512 C519 1.409 . S
C513 H505 0.930 1_565 S
C513 C511 1.419 . S
C513 C514 1.362 1_565 S
C514 H506 0.930 . S
C514 C513 1.362 1_545 S
C514 C517 1.409 1_545 S
C515 H507 0.930 . S
C515 C516 1.355 1_545 S
C515 C517 1.415 1_545 S
C516 C515 1.355 1_565 S
C516 C518 1.419 . S
C517 C512 1.425 . S
C517 C514 1.409 1_565 S
C517 C515 1.415 1_565 S
C518 H508 0.930 . S
C518 C516 1.419 . S
C518 C519 1.362 . S
C519 H509 0.930 . S
C519 C512 1.409 . S
C519 C518 1.362 . S
H520 C526 0.930 . S
H521 C529 0.930 . S
H522 C530 0.930 . S
H523 C531 0.930 . S
H524 C534 0.930 . S
H525 C535 0.930 . S
C526 H520 0.930 . S
C526 C527 1.355 . S
C526 C528 1.415 . S
C527 C526 1.355 . S
C527 C529 1.419 . S
C528 C526 1.415 . S
C528 C533 1.425 . S
C528 C535 1.409 . S
C529 H521 0.930 . S
C529 C527 1.419 . S
C529 C530 1.362 . S
C530 H522 0.930 . S
C530 C529 1.362 . S
C530 C533 1.409 . S
C531 H523 0.930 . S
C531 C532 1.355 . S
C531 C533 1.415 . S
C532 C531 1.355 . S
C532 C534 1.419 . S
C533 C528 1.425 . S
C533 C530 1.409 . S
C533 C531 1.415 . S
C534 H524 0.930 . S
C534 C532 1.419 . S
C534 C535 1.362 . S
C535 H525 0.930 . S
C535 C528 1.409 . S
C535 C534 1.362 . S
H536 C542 0.930 . S
H537 C545 0.930 . S
H538 C546 0.930 . S
H539 C547 0.930 . S
H540 C550 0.930 . S
H541 C551 0.930 . S
C542 H536 0.930 . S
C542 C543 1.355 . S
C542 C544 1.415 . S
C543 C542 1.355 . S
C543 C545 1.419 . S
C544 C542 1.415 . S
C544 C549 1.425 . S
C544 C551 1.409 . S
C545 H537 0.930 . S
C545 C543 1.419 . S
C545 C546 1.362 . S
C546 H538 0.930 . S
C546 C545 1.362 . S
C546 C549 1.409 . S
C547 H539 0.930 . S
C547 C548 1.355 . S
C547 C549 1.415 . S
C548 C547 1.355 . S
C548 C550 1.419 . S
C549 C544 1.425 . S
C549 C546 1.409 . S
C549 C547 1.415 . S
C550 H540 0.930 . S
C550 C548 1.419 . S
C550 C551 1.362 . S
C551 H541 0.930 . S
C551 C544 1.409 . S
C551 C550 1.362 . S
C175 C74 1.582 . S
C180 C89 1.575 . S
C196 C124 1.641 . S
C191 C85 1.650 . S
C212 C129 1.278 . S
C207 C52 1.271 . S
C228 C149 1.523 . S
C223 C63 1.529 . S
C244 C97 1.582 1_565 S
C239 C30 1.503 1_556 S
C255 C41 1.511 1_556 S
C260 C114 1.656 . S
C271 C8 1.299 1_556 S
C276 C137 1.299 . S
C287 C19 1.443 . S
C292 C157 1.527 1_655 S
C308 C107 1.416 . S
C303 C62 1.457 . S
C324 C116 1.104 . S
C319 C73 1.147 . S
C340 C147 1.522 . S
C335 C84 1.525 . S
C351 C51 1.121 . S
C356 C167 1.051 . S
C367 C18 1.406 . S
C372 C96 1.422 1_655 S
C388 C127 1.097 1_565 S
C383 C29 1.154 1_556 S
C404 C136 1.506 . S
C399 C40 1.342 1_556 S
C415 C7 1.102 . S
C420 C156 1.034 . S
C431 C60 1.326 . S
C436 C94 1.513 . S
C447 C71 1.287 . S
C452 C117 1.537 . S
C468 C134 1.606 . S
C463 C82 1.538 . S
C484 C154 1.595 . S
C479 C49 1.347 . S
C495 C16 1.262 . S
C500 C104 1.509 . S
C516 C109 1.547 . S
C511 C27 1.101 . S
C532 C144 1.603 . S
C527 C38 1.256 . S
C543 C5 1.314 . S
C548 C164 1.549 . S
