# Generated by pormake.
# Topology pth, (4,4)-cn, num edge types: 1
# Building blocks:
#     Node 0, Type 0, BuildingBlock: TATPOV_clean_sbu_0, # of connection points: 4
#     Node 1, Type 0, BuildingBlock: TATPOV_clean_sbu_0, # of connection points: 4
#     Node 2, Type 0, BuildingBlock: TATPOV_clean_sbu_0, # of connection points: 4
#     Node 3, Type 1, BuildingBlock: MUDLON_clean_sbu_0, # of connection points: 4
#     Node 4, Type 1, BuildingBlock: MUDLON_clean_sbu_0, # of connection points: 4
#     Node 5, Type 1, BuildingBlock: MUDLON_clean_sbu_0, # of connection points: 4
#     Edge 6, Type (0, 1), BuildingBlock: FUNLAD_clean_linker_0, # of connection points: 2
#     Edge 7, Type (0, 1), BuildingBlock: FUNLAD_clean_linker_0, # of connection points: 2
#     Edge 8, Type (0, 1), BuildingBlock: FUNLAD_clean_linker_0, # of connection points: 2
#     Edge 9, Type (0, 1), BuildingBlock: FUNLAD_clean_linker_0, # of connection points: 2
#     Edge 10, Type (0, 1), BuildingBlock: FUNLAD_clean_linker_0, # of connection points: 2
#     Edge 11, Type (0, 1), BuildingBlock: FUNLAD_clean_linker_0, # of connection points: 2
#     Edge 12, Type (0, 1), BuildingBlock: FUNLAD_clean_linker_0, # of connection points: 2
#     Edge 13, Type (0, 1), BuildingBlock: FUNLAD_clean_linker_0, # of connection points: 2
#     Edge 14, Type (0, 1), BuildingBlock: FUNLAD_clean_linker_0, # of connection points: 2
#     Edge 15, Type (0, 1), BuildingBlock: FUNLAD_clean_linker_0, # of connection points: 2
#     Edge 16, Type (0, 1), BuildingBlock: FUNLAD_clean_linker_0, # of connection points: 2
#     Edge 17, Type (0, 1), BuildingBlock: FUNLAD_clean_linker_0, # of connection points: 2
# Relax obj value: 0.072
# Max RMSD: 0.185
# Mean RMSD: 0.119
data_MOF--net-pth--node1-TATPOV_clean_sbu_0--node2-MUDLON_clean_sbu_0--edge1-FUNLAD_clean_linker_0
_symmetry_space_group_name_H-M    P1
_symmetry_Int_Tables_number       1
_symmetry_cell_setting            triclinic
loop_
_symmetry_equiv_pos_as_xyz
'x, y, z'
_cell_length_a     26.387233
_cell_length_b     26.238734
_cell_length_c     67.954501
_cell_angle_alpha  92.604595
_cell_angle_beta   92.013606
_cell_angle_gamma 120.63488
loop_
_atom_site_label
_atom_site_type_symbol
_atom_site_fract_x
_atom_site_fract_y
_atom_site_fract_z
_atom_type_partial_charge
Zn0 Zn 0.18529 0.06636 0.07105 0.0
Zn1 Zn 0.11614 0.10274 0.08658 0.0
O2 O 0.14564 0.0745 0.11006 0.0
O3 O 0.20766 0.05075 0.09791 0.0
O4 O 0.07252 0.13885 0.09972 0.0
O5 O 0.23389 0.14414 0.05872 0.0
O6 O 0.1776 0.17391 0.07194 0.0
C7 C 0.18131 0.05562 0.11245 0.0
C8 C 0.06152 0.99594 0.05641 0.0
O9 O 0.05507 0.03255 0.06752 0.0
O10 O 0.11182 1.00099 0.05571 0.0
C11 C 0.04511 0.12107 0.11532 0.0
O12 O 0.04085 0.07403 0.12296 0.0
C13 C 0.22025 0.18362 0.06139 0.0
Zn14 Zn 0.19728 0.13414 0.38983 0.0
Zn15 Zn 0.11052 0.11573 0.41219 0.0
O16 O 0.18246 0.13903 0.43228 0.0
O17 O 0.25541 0.16131 0.41312 0.0
O18 O 0.04485 0.10077 0.43014 0.0
O19 O 0.18735 0.19421 0.37561 0.0
O20 O 0.11866 0.18349 0.39533 0.0
C21 C 0.23698 0.15749 0.43022 0.0
C22 C 0.10038 0.01527 0.38379 0.0
O23 O 0.07677 0.03518 0.39555 0.0
O24 O 0.15338 0.04826 0.37963 0.0
C25 C 0.02462 0.05656 0.44073 0.0
O26 O 0.04667 0.02159 0.43963 0.0
C27 C 0.15079 0.20872 0.38113 0.0
Zn28 Zn 0.0885 0.91071 0.75375 0.0
Zn29 Zn 0.06583 0.99104 0.73974 0.0
O30 O 0.09944 0.96487 0.71667 0.0
O31 O 0.11736 0.898 0.72795 0.0
O32 O 0.03732 0.04071 0.72651 0.0
O33 O 1.00443 0.85789 0.76065 0.0
O34 O 0.98932 0.92894 0.75188 0.0
C35 C 0.11813 0.9289 0.71408 0.0
C36 C 0.15561 0.02979 0.77442 0.0
O37 O 0.12958 0.0445 0.76166 0.0
O38 O 0.14507 0.97684 0.77398 0.0
C39 C 0.06185 0.07233 0.71223 0.0
O40 O 0.11133 0.07771 0.70655 0.0
C41 C 0.97094 0.87914 0.75928 0.0
Mg42 Mg 0.0282 0.57769 0.2457 0.0
C43 C 0.03732 0.52542 0.28208 0.0
O44 O 0.9831 0.51524 0.2813 0.0
C45 C 0.10824 0.70813 0.23691 0.0
O46 O 0.09743 0.71826 0.25495 0.0
C47 C 0.99443 0.50611 0.20629 0.0
O48 O 0.02331 0.55995 0.20021 0.0
O49 O 0.98551 0.50002 0.22455 0.0
O50 O 0.07071 0.55387 0.26858 0.0
O51 O 0.97092 0.5999 0.26158 0.0
C52 C 0.95731 0.63774 0.25656 0.0
O53 O 0.97016 0.65881 0.2391 0.0
O54 O 0.08823 0.65479 0.23015 0.0
Mg55 Mg 0.59593 0.07049 0.5825 0.0
C56 C 0.57454 0.14342 0.55375 0.0
O57 O 0.60857 0.13128 0.54332 0.0
C58 C 0.71993 0.13718 0.6036 0.0
O59 O 0.7364 0.14967 0.58557 0.0
C60 C 0.46695 0.99303 0.58973 0.0
O61 O 0.4622 0.01782 0.57396 0.0
O62 O 0.51757 0.00223 0.59551 0.0
O63 O 0.56708 0.12897 0.57148 0.0
O64 O 0.6283 0.04109 0.55784 0.0
C65 C 0.66392 0.02242 0.56042 0.0
O66 O 0.67645 0.01394 0.57842 0.0
O67 O 0.6651 0.10901 0.60645 0.0
Mg68 Mg 0.56471 0.55871 0.913 0.0
C69 C 0.48359 0.42592 0.90235 0.0
O70 O 0.4531 0.43137 0.91628 0.0
C71 C 0.69276 0.63236 0.92911 0.0
O72 O 0.70085 0.64444 0.91054 0.0
C73 C 0.49941 0.56137 0.94833 0.0
O74 O 0.55377 0.5947 0.95605 0.0
O75 O 0.49114 0.54759 0.92981 0.0
O76 O 0.53447 0.46967 0.89971 0.0
O77 O 0.58915 0.61523 0.88796 0.0
C78 C 0.60151 0.59393 0.87287 0.0
O79 O 0.59729 0.54205 0.87359 0.0
O80 O 0.64135 0.5949 0.93394 0.0
C81 C 0.03112 0.20888 0.11834 0.0
C82 C 0.02387 0.15671 0.1259 0.0
C83 C 0.01631 0.24553 0.1292 0.0
C84 C 0.99353 0.23068 0.1479 0.0
C85 C 0.98503 0.1778 0.15519 0.0
C86 C 0.99972 0.14111 0.14431 0.0
C87 C 0.983 0.27127 0.16093 0.0
C88 C 0.97557 0.31504 0.1544 0.0
C89 C 0.97347 0.36071 0.1677 0.0
C90 C 0.98889 0.4156 0.16034 0.0
C91 C 0.99314 0.46193 0.17267 0.0
C92 C 0.98147 0.45437 0.19268 0.0
H93 H 0.94425 0.30979 0.19361 0.0
C94 C 0.96255 0.39835 0.19981 0.0
C95 C 0.95851 0.35197 0.18747 0.0
H96 H 0.95267 0.39079 0.21511 0.0
H97 H 0.0499 0.22245 0.10426 0.0
H98 H 0.02521 0.28649 0.12316 0.0
H99 H 0.96796 0.1653 0.16956 0.0
H100 H 0.9936 0.10134 0.15062 0.0
H101 H 0.98364 0.2657 0.17664 0.0
H102 H 0.97466 0.32036 0.13868 0.0
H103 H 0.99992 0.42351 0.14513 0.0
H104 H 1.00738 0.5043 0.16661 0.0
C105 C 0.95481 0.08279 0.45635 0.0
C106 C 0.97788 0.045 0.45447 0.0
C107 C 0.91198 0.07242 0.46979 0.0
C108 C 0.89096 0.02369 0.48161 0.0
C109 C 0.91397 0.98597 0.4796 0.0
C110 C 0.95664 0.99629 0.46619 0.0
C111 C 0.84792 0.01236 0.49694 0.0
C112 C 0.81167 0.03458 0.49729 0.0
C113 C 0.77107 0.02567 0.5133 0.0
C114 C 0.72491 0.03686 0.50983 0.0
C115 C 0.68856 0.03351 0.52486 0.0
C116 C 0.69768 0.01915 0.54384 0.0
H117 H 0.81512 0.00251 0.53584 0.0
C118 C 0.74293 0.00656 0.54722 0.0
C119 C 0.77934 0.01002 0.53221 0.0
H120 H 0.75162 0.99589 0.5617 0.0
H121 H 0.97043 0.12093 0.44763 0.0
H122 H 0.89685 0.10365 0.47117 0.0
H123 H 0.8991 0.94836 0.48856 0.0
H124 H 0.97335 0.96623 0.46518 0.0
H125 H 0.84537 0.98308 0.50813 0.0
H126 H 0.81057 0.05968 0.48519 0.0
H127 H 0.7175 0.04929 0.49549 0.0
H128 H 0.65431 0.04374 0.52172 0.0
C129 C 0.88999 0.79104 0.77412 0.0
C130 C 0.91358 0.84935 0.7685 0.0
C131 C 0.84107 0.76565 0.78551 0.0
C132 C 0.81433 0.79796 0.79158 0.0
C133 C 0.83677 0.85559 0.78545 0.0
C134 C 0.88553 0.88087 0.77386 0.0
C135 C 0.76718 0.7746 0.80582 0.0
C136 C 0.72958 0.71595 0.80687 0.0
C137 C 0.68954 0.68831 0.82307 0.0
C138 C 0.65344 0.62622 0.82161 0.0
C139 C 0.62224 0.59628 0.83749 0.0
C140 C 0.62581 0.62758 0.8553 0.0
H141 H 0.71762 0.76801 0.84243 0.0
C142 C 0.6585 0.68994 0.85649 0.0
C143 C 0.69045 0.72019 0.84054 0.0
H144 H 0.66222 0.71516 0.87009 0.0
H145 H 0.91069 0.76564 0.77034 0.0
H146 H 0.8264 0.72182 0.79036 0.0
H147 H 0.81742 0.88167 0.79004 0.0
H148 H 0.90292 0.9261 0.76992 0.0
H149 H 0.76504 0.80666 0.81585 0.0
H150 H 0.72999 0.68552 0.79557 0.0
H151 H 0.6514 0.60028 0.80841 0.0
H152 H 0.59698 0.54816 0.83604 0.0
C153 C 0.22537 0.01083 0.13395 0.0
C154 C 0.1869 0.03274 0.13151 0.0
C155 C 0.22447 0.98103 0.15061 0.0
C156 C 0.18463 0.97195 0.16518 0.0
C157 C 0.14903 0.99729 0.16337 0.0
C158 C 0.14997 0.0272 0.14671 0.0
C159 C 0.17729 0.93462 0.18199 0.0
C160 C 0.18909 0.89018 0.18111 0.0
C161 C 0.17343 0.84643 0.19641 0.0
C162 C 0.16525 0.79038 0.19082 0.0
C163 C 0.14615 0.74617 0.20416 0.0
C164 C 0.13535 0.75713 0.22355 0.0
H165 H 0.17302 0.90158 0.2212 0.0
C166 C 0.14643 0.81418 0.22949 0.0
C167 C 0.16531 0.85841 0.21608 0.0
H168 H 0.13898 0.82431 0.24436 0.0
H169 H 0.25508 0.01508 0.12269 0.0
H170 H 0.25446 0.96449 0.1518 0.0
H171 H 0.11854 0.99183 0.17449 0.0
H172 H 0.12002 0.04383 0.1454 0.0
H173 H 0.15584 0.94014 0.19457 0.0
H174 H 0.20567 0.88151 0.16775 0.0
H175 H 0.17181 0.78001 0.17585 0.0
H176 H 0.13844 0.70288 0.1991 0.0
C177 C 0.26152 0.15338 0.46618 0.0
C178 C 0.27975 0.17377 0.44747 0.0
C179 C 0.30341 0.16457 0.48167 0.0
C180 C 0.36435 0.19681 0.4787 0.0
C181 C 0.38205 0.21957 0.46027 0.0
C182 C 0.3405 0.20797 0.44487 0.0
C183 C 0.41144 0.20569 0.49366 0.0
C184 C 0.40226 0.17454 0.50973 0.0
C185 C 0.45125 0.17587 0.52182 0.0
C186 C 0.44304 0.16068 0.54148 0.0
C187 C 0.48509 0.15404 0.55239 0.0
C188 C 0.53585 0.16139 0.54372 0.0
H189 H 0.51091 0.19597 0.49821 0.0
C190 C 0.54515 0.17879 0.5243 0.0
C191 C 0.50343 0.1859 0.51347 0.0
H192 H 0.58356 0.18448 0.51714 0.0
H193 H 0.21499 0.12723 0.46867 0.0
H194 H 0.2876 0.14728 0.49573 0.0
H195 H 0.42846 0.24492 0.45751 0.0
H196 H 0.35622 0.22512 0.43074 0.0
H197 H 0.45663 0.23679 0.49041 0.0
H198 H 0.35771 0.14472 0.5138 0.0
H199 H 0.40315 0.15224 0.54825 0.0
H200 H 0.47627 0.14018 0.56728 0.0
C201 C 0.21988 0.13442 0.78963 0.0
C202 C 0.19634 0.07302 0.79049 0.0
C203 C 0.25741 0.17425 0.80523 0.0
C204 C 0.27146 0.1532 0.82205 0.0
C205 C 0.24751 0.09195 0.82292 0.0
C206 C 0.21097 0.05239 0.80727 0.0
C207 C 0.30811 0.19331 0.83941 0.0
C208 C 0.35263 0.24932 0.838 0.0
C209 C 0.38815 0.2898 0.8555 0.0
C210 C 0.44583 0.33627 0.85323 0.0
C211 C 0.47854 0.37838 0.8689 0.0
C212 C 0.45377 0.37552 0.88711 0.0
H213 H 0.31953 0.25104 0.87622 0.0
C214 C 0.39678 0.32782 0.8896 0.0
C215 C 0.36428 0.28542 0.87398 0.0
H216 H 0.37624 0.32448 0.90338 0.0
H217 H 0.20922 0.15165 0.77696 0.0
H218 H 0.27403 0.22119 0.8043 0.0
H219 H 0.25719 0.07456 0.83576 0.0
H220 H 0.19326 0.00536 0.80853 0.0
H221 H 0.29971 0.1748 0.85373 0.0
H222 H 0.36475 0.26576 0.82348 0.0
H223 H 0.46523 0.34078 0.83915 0.0
H224 H 0.52218 0.41468 0.8664 0.0
C225 C 0.97531 0.08585 0.70537 0.0
C226 C 0.03106 0.09632 0.70053 0.0
C227 C 0.94331 0.10252 0.69308 0.0
C228 C 0.96653 0.13046 0.67565 0.0
C229 C 0.02305 0.14251 0.6712 0.0
C230 C 0.05502 0.1259 0.68349 0.0
C231 C 0.93168 0.14296 0.66089 0.0
C232 C 0.88321 0.14561 0.66482 0.0
C233 C 0.84422 0.15004 0.64937 0.0
C234 C 0.78537 0.13031 0.65332 0.0
C235 C 0.74557 0.12846 0.63874 0.0
C236 C 0.76378 0.14678 0.61984 0.0
H237 H 0.90866 0.18928 0.62728 0.0
C238 C 0.82345 0.16971 0.61619 0.0
C239 C 0.86328 0.1715 0.63078 0.0
H240 H 0.83918 0.18481 0.60186 0.0
H241 H 0.95535 0.06291 0.71833 0.0
H242 H 0.89952 0.09095 0.69695 0.0
H243 H 0.0421 0.16372 0.65788 0.0
H244 H 0.0978 0.13469 0.67928 0.0
H245 H 0.94589 0.14786 0.64596 0.0
H246 H 0.86903 0.14082 0.67976 0.0
H247 H 0.76946 0.11421 0.66755 0.0
H248 H 0.70006 0.11089 0.64214 0.0
C249 C 0.01893 0.90579 0.03279 0.0
C250 C 0.01115 0.94761 0.04389 0.0
C251 C 0.97301 0.86136 0.0203 0.0
C252 C 0.91805 0.8578 0.01841 0.0
C253 C 0.90949 0.89827 0.02998 0.0
C254 C 0.95562 0.94292 0.04255 0.0
C255 C 0.86901 0.81223 1.00462 0.0
C256 C 0.87839 0.78896 0.98799 0.0
C257 C 0.83037 0.74595 0.97344 0.0
C258 C 0.84305 0.74421 0.95361 0.0
C259 C 0.79875 0.7061 0.93929 0.0
C260 C 0.74088 0.66807 0.94455 0.0
H261 H 0.76195 0.70519 0.99409 0.0
C262 C 0.7287 0.66785 0.96456 0.0
C263 C 0.77293 0.70648 0.97886 0.0
H264 H 0.6846 0.63892 0.96913 0.0
H265 H 0.06077 0.90734 0.03366 0.0
H266 H 0.98081 0.82971 0.01227 0.0
H267 H 0.86734 0.89609 0.029 0.0
H268 H 0.94799 0.97412 0.05098 0.0
H269 H 0.82437 0.80066 1.00763 0.0
H270 H 0.92333 0.8051 0.98403 0.0
H271 H 0.88711 0.77355 0.94907 0.0
H272 H 0.80969 0.70717 0.92405 0.0
C273 C 1.00746 0.93058 0.36674 0.0
C274 C 0.0663 0.95467 0.37408 0.0
C275 C 0.97902 0.87719 0.35476 0.0
C276 C 0.00877 0.84666 0.35036 0.0
C277 C 0.06613 0.86904 0.3588 0.0
C278 C 0.09492 0.92288 0.37027 0.0
C279 C 0.9831 0.79294 0.33642 0.0
C280 C 0.95006 0.78599 0.3198 0.0
C281 C 0.93935 0.74121 0.30345 0.0
C282 C 0.93932 0.75595 0.28384 0.0
C283 C 0.94077 0.71996 0.26828 0.0
C284 C 0.94171 0.66817 0.27205 0.0
H285 H 0.93236 0.67277 0.32189 0.0
C286 C 0.93589 0.65055 0.29149 0.0
C287 C 0.93467 0.68663 0.30702 0.0
H288 H 0.93548 0.61043 0.29491 0.0
H289 H 0.98455 0.95443 0.36944 0.0
H290 H 0.93431 0.86035 0.34876 0.0
H291 H 0.08987 0.84619 0.35576 0.0
H292 H 0.1402 0.94038 0.37583 0.0
H293 H 0.99967 0.76301 0.33837 0.0
H294 H 0.93864 0.81941 0.31683 0.0
H295 H 0.9421 0.79736 0.28064 0.0
H296 H 0.9447 0.73463 0.25347 0.0
C297 C 0.16385 0.88523 0.6925 0.0
C298 C 0.14529 0.92648 0.69554 0.0
C299 C 0.19517 0.88674 0.67613 0.0
C300 C 0.2093 0.93004 0.66245 0.0
C301 C 0.18819 0.96933 0.66498 0.0
C302 C 0.15667 0.9677 0.68134 0.0
C303 C 0.24669 0.93658 0.64566 0.0
C304 C 0.28507 0.91688 0.64536 0.0
C305 C 0.32802 0.93024 0.62988 0.0
C306 C 0.37995 0.92952 0.63457 0.0
C307 C 0.42397 0.94699 0.62116 0.0
C308 C 0.41687 0.96521 0.60265 0.0
H309 H 0.27908 0.94386 0.60635 0.0
C310 C 0.36334 0.96236 0.59747 0.0
C311 C 0.31934 0.94496 0.61089 0.0
H312 H 0.35603 0.97542 0.58324 0.0
H313 H 0.15513 0.85226 0.70298 0.0
H314 H 0.20835 0.85403 0.6744 0.0
H315 H 0.19766 0.00269 0.65458 0.0
H316 H 0.14283 0.99995 0.68313 0.0
H317 H 0.24604 0.96318 0.63399 0.0
H318 H 0.2894 0.8947 0.65785 0.0
H319 H 0.38756 0.91755 0.64896 0.0
H320 H 0.46446 0.94831 0.62563 0.0
C321 C 0.28281 0.24084 0.03451 0.0
C322 C 0.25106 0.23889 0.05094 0.0
C323 C 0.30901 0.29108 0.02372 0.0
C324 C 0.30473 0.34099 0.02919 0.0
C325 C 0.27468 0.33999 0.04596 0.0
C326 C 0.2473 0.28906 0.05658 0.0
C327 C 0.33383 0.39507 0.018 0.0
C328 C 0.33508 0.39154 0.99818 0.0
C329 C 0.37137 0.44282 0.98633 0.0
C330 C 0.35795 0.43666 0.96585 0.0
C331 C 0.39718 0.47833 0.95356 0.0
C332 C 0.45134 0.52672 0.96145 0.0
H333 H 0.4356 0.50009 0.01006 0.0
C334 C 0.46267 0.5354 0.98209 0.0
C335 C 0.42318 0.49391 0.99442 0.0
H336 H 0.50386 0.57228 0.98869 0.0
H337 H 0.28661 0.20304 0.02974 0.0
H338 H 0.33334 0.29105 0.01121 0.0
H339 H 0.2715 0.37823 0.05063 0.0
H340 H 0.22334 0.28901 0.06921 0.0
H341 H 0.35419 0.43806 0.02625 0.0
H342 H 0.30953 0.34816 0.99016 0.0
H343 H 0.31831 0.39785 0.95921 0.0
H344 H 0.38669 0.47037 0.93776 0.0
C345 C 0.10225 0.26858 0.37482 0.0
C346 C 0.14523 0.25399 0.37049 0.0
C347 C 0.09589 0.30926 0.36387 0.0
C348 C 0.13275 0.33643 0.3484 0.0
C349 C 0.17604 0.32225 0.34434 0.0
C350 C 0.18238 0.28183 0.35523 0.0
C351 C 0.12561 0.37666 0.33528 0.0
C352 C 0.09643 0.40495 0.33976 0.0
C353 C 0.08548 0.44039 0.32554 0.0
C354 C 0.03512 0.44499 0.32715 0.0
C355 C 0.02054 0.47398 0.31331 0.0
C356 C 0.0565 0.49984 0.29762 0.0
H357 H 0.16342 0.4679 0.309 0.0
C358 C 0.10858 0.49796 0.29652 0.0
C359 C 0.12301 0.46854 0.31033 0.0
H360 H 0.13751 0.51798 0.2847 0.0
H361 H 0.0727 0.24769 0.3864 0.0
H362 H 0.06093 0.31762 0.36724 0.0
H363 H 0.20489 0.34213 0.3325 0.0
H364 H 0.21611 0.27188 0.35146 0.0
H365 H 0.14454 0.38194 0.32106 0.0
H366 H 0.07676 0.39954 0.35382 0.0
H367 H 1.00583 0.42445 0.33882 0.0
H368 H 0.98043 0.47515 0.31474 0.0
loop_
_geom_bond_atom_site_label_1
_geom_bond_atom_site_label_2
_geom_bond_distance
_geom_bond_site_symmetry_2
_ccdc_geom_bond_type
Zn0 O3 2.031 1_545 S
Zn0 O5 2.049 . S
Zn0 O10 2.067 . S
Zn1 O2 1.962 . S
Zn1 O4 1.986 . S
Zn1 O6 1.996 . S
Zn1 O9 1.943 . S
O2 Zn1 1.962 . S
O2 C7 1.254 . S
O3 Zn0 2.031 1_565 S
O3 C7 1.269 1_565 S
O4 Zn1 1.986 . S
O4 C11 1.262 . S
O5 Zn0 2.049 . S
O5 C13 1.260 . S
O6 Zn1 1.996 . S
O6 C13 1.257 . S
C7 O2 1.254 . S
C7 O3 1.269 1_545 S
C8 O9 1.249 . S
C8 O10 1.270 . S
O9 Zn1 1.943 . S
O9 C8 1.249 . S
O10 Zn0 2.067 . S
O10 C8 1.270 . S
C11 O4 1.262 . S
C11 O12 1.232 . S
O12 C11 1.232 . S
C13 O5 1.260 . S
C13 O6 1.257 . S
Zn14 O17 2.031 . S
Zn14 O19 2.049 . S
Zn14 O24 2.067 . S
Zn15 O16 1.962 . S
Zn15 O18 1.986 1_455 S
Zn15 O20 1.996 . S
Zn15 O23 1.943 . S
O16 Zn15 1.962 . S
O16 C21 1.254 . S
O17 Zn14 2.031 . S
O17 C21 1.269 . S
O18 Zn15 1.986 1_655 S
O18 C25 1.262 . S
O19 Zn14 2.049 . S
O19 C27 1.260 . S
O20 Zn15 1.996 . S
O20 C27 1.257 . S
C21 O16 1.254 . S
C21 O17 1.269 . S
C22 O23 1.249 . S
C22 O24 1.270 . S
O23 Zn15 1.943 . S
O23 C22 1.249 . S
O24 Zn14 2.067 . S
O24 C22 1.270 . S
C25 O18 1.262 . S
C25 O26 1.232 . S
O26 C25 1.232 . S
C27 O19 1.260 . S
C27 O20 1.257 . S
Zn28 O31 2.031 1_565 S
Zn28 O33 2.049 . S
Zn28 O38 2.067 1_565 S
Zn29 O30 1.962 1_545 S
Zn29 O32 1.986 1_455 S
Zn29 O34 1.996 1_545 S
Zn29 O37 1.943 . S
O30 Zn29 1.962 1_565 S
O30 C35 1.254 1_565 S
O31 Zn28 2.031 1_545 S
O31 C35 1.269 . S
O32 Zn29 1.986 1_655 S
O32 C39 1.262 . S
O33 Zn28 2.049 . S
O33 C41 1.253 1_455 S
O34 Zn29 1.996 1_565 S
O34 C41 1.257 1_455 S
C35 O30 1.254 1_545 S
C35 O31 1.269 . S
C36 O37 1.249 . S
C36 O38 1.270 . S
O37 Zn29 1.943 . S
O37 C36 1.249 . S
O38 Zn28 2.067 1_545 S
O38 C36 1.270 . S
C39 O32 1.262 . S
C39 O40 1.232 1_655 S
O40 C39 1.232 1_455 S
C41 O33 1.253 1_655 S
C41 O34 1.257 1_655 S
Mg42 O49 2.141 . S
Mg42 O50 2.048 . S
Mg42 O51 2.048 . S
Mg42 O54 2.141 . S
C43 O44 1.313 . S
C43 O50 1.195 . S
O44 C43 1.313 . S
C45 O46 1.245 . S
C45 O54 1.289 . S
O46 C45 1.245 . S
C47 O48 1.245 . S
C47 O49 1.289 . S
O48 C47 1.245 . S
O49 Mg42 2.141 . S
O49 C47 1.289 . S
O50 Mg42 2.048 . S
O50 C43 1.195 . S
O51 Mg42 2.048 . S
O51 C52 1.195 . S
C52 O51 1.195 . S
C52 O53 1.313 . S
O53 C52 1.313 . S
O54 Mg42 2.141 . S
O54 C45 1.289 . S
Mg55 O62 2.141 . S
Mg55 O63 2.048 . S
Mg55 O64 2.048 . S
Mg55 O67 2.141 . S
C56 O57 1.313 . S
C56 O63 1.195 . S
O57 C56 1.313 . S
C58 O59 1.245 1_545 S
C58 O67 1.289 . S
O59 C58 1.245 1_565 S
C60 O61 1.245 1_545 S
C60 O62 1.289 . S
O61 C60 1.245 1_565 S
O62 Mg55 2.141 . S
O62 C60 1.289 . S
O63 Mg55 2.048 . S
O63 C56 1.195 . S
O64 Mg55 2.048 . S
O64 C65 1.195 . S
C65 O64 1.195 . S
C65 O66 1.313 . S
O66 C65 1.313 . S
O67 Mg55 2.141 . S
O67 C58 1.289 . S
Mg68 O75 2.141 . S
Mg68 O76 2.048 . S
Mg68 O77 2.048 . S
Mg68 O80 2.141 . S
C69 O70 1.313 . S
C69 O76 1.195 . S
O70 C69 1.313 . S
C71 O72 1.245 . S
C71 O80 1.289 . S
O72 C71 1.245 . S
C73 O74 1.245 . S
C73 O75 1.289 . S
O74 C73 1.245 . S
O75 Mg68 2.141 . S
O75 C73 1.289 . S
O76 Mg68 2.048 . S
O76 C69 1.195 . S
O77 Mg68 2.048 . S
O77 C78 1.195 . S
C78 O77 1.195 . S
C78 O79 1.313 . S
O79 C78 1.313 . S
O80 Mg68 2.141 . S
O80 C71 1.289 . S
C81 C82 1.386 . S
C81 C83 1.383 . S
C81 H97 0.951 . S
C82 C81 1.386 . S
C82 C86 1.383 . S
C83 C81 1.383 . S
C83 C84 1.402 . S
C83 H98 0.951 . S
C84 C83 1.402 . S
C84 C85 1.375 . S
C84 C87 1.481 . S
C85 C84 1.375 . S
C85 C86 1.367 . S
C85 H99 0.951 . S
C86 C82 1.383 . S
C86 C85 1.367 . S
C86 H100 0.950 . S
C87 C84 1.481 . S
C87 C88 1.297 . S
C87 H101 0.950 . S
C88 C87 1.297 . S
C88 C89 1.479 . S
C88 H102 0.950 . S
C89 C88 1.479 . S
C89 C90 1.375 . S
C89 C95 1.404 . S
C90 C89 1.375 . S
C90 C91 1.369 . S
C90 H103 0.950 . S
C91 C90 1.369 . S
C91 C92 1.392 . S
C91 H104 0.951 . S
C92 C91 1.392 . S
C92 C94 1.384 . S
H93 C95 0.949 . S
C94 C92 1.384 . S
C94 C95 1.385 . S
C94 H96 0.950 . S
C95 C89 1.404 . S
C95 H93 0.949 . S
C95 C94 1.385 . S
H96 C94 0.950 . S
H97 C81 0.951 . S
H98 C83 0.951 . S
H99 C85 0.951 . S
H100 C86 0.950 . S
H101 C87 0.950 . S
H102 C88 0.950 . S
H103 C90 0.950 . S
H104 C91 0.951 . S
C105 C106 1.386 . S
C105 C107 1.383 . S
C105 H121 0.951 . S
C106 C105 1.386 . S
C106 C110 1.383 . S
C107 C105 1.383 . S
C107 C108 1.402 . S
C107 H122 0.951 . S
C108 C107 1.402 . S
C108 C109 1.375 . S
C108 C111 1.481 . S
C109 C108 1.375 . S
C109 C110 1.367 . S
C109 H123 0.951 1_545 S
C110 C106 1.383 . S
C110 C109 1.367 . S
C110 H124 0.950 1_545 S
C111 C108 1.481 . S
C111 C112 1.297 . S
C111 H125 0.950 . S
C112 C111 1.297 . S
C112 C113 1.479 . S
C112 H126 0.950 . S
C113 C112 1.479 . S
C113 C114 1.375 . S
C113 C119 1.404 . S
C114 C113 1.375 . S
C114 C115 1.369 . S
C114 H127 0.950 . S
C115 C114 1.369 . S
C115 C116 1.392 . S
C115 H128 0.951 . S
C116 C115 1.392 . S
C116 C118 1.384 . S
H117 C119 0.949 1_565 S
C118 C116 1.384 . S
C118 C119 1.385 . S
C118 H120 0.950 1_545 S
C119 C113 1.404 . S
C119 H117 0.949 1_545 S
C119 C118 1.385 . S
H120 C118 0.950 1_565 S
H121 C105 0.951 . S
H122 C107 0.951 . S
H123 C109 0.951 1_565 S
H124 C110 0.950 1_565 S
H125 C111 0.950 . S
H126 C112 0.950 . S
H127 C114 0.950 . S
H128 C115 0.951 . S
C129 C130 1.386 . S
C129 C131 1.383 . S
C129 H145 0.951 . S
C130 C129 1.386 . S
C130 C134 1.383 . S
C131 C129 1.383 . S
C131 C132 1.402 . S
C131 H146 0.951 . S
C132 C131 1.402 . S
C132 C133 1.375 . S
C132 C135 1.481 . S
C133 C132 1.375 . S
C133 C134 1.367 . S
C133 H147 0.951 . S
C134 C130 1.383 . S
C134 C133 1.367 . S
C134 H148 0.950 . S
C135 C132 1.481 . S
C135 C136 1.297 . S
C135 H149 0.950 . S
C136 C135 1.297 . S
C136 C137 1.479 . S
C136 H150 0.950 . S
C137 C136 1.479 . S
C137 C138 1.375 . S
C137 C143 1.404 . S
C138 C137 1.375 . S
C138 C139 1.369 . S
C138 H151 0.950 . S
C139 C138 1.369 . S
C139 C140 1.392 . S
C139 H152 0.951 . S
C140 C139 1.392 . S
C140 C142 1.384 . S
H141 C143 0.949 . S
C142 C140 1.384 . S
C142 C143 1.385 . S
C142 H144 0.950 . S
C143 C137 1.404 . S
C143 H141 0.949 . S
C143 C142 1.385 . S
H144 C142 0.950 . S
H145 C129 0.951 . S
H146 C131 0.951 . S
H147 C133 0.951 . S
H148 C134 0.950 . S
H149 C135 0.950 . S
H150 C136 0.950 . S
H151 C138 0.950 . S
H152 C139 0.951 . S
C153 C154 1.386 . S
C153 C155 1.383 . S
C153 H169 0.951 . S
C154 C153 1.386 . S
C154 C158 1.383 . S
C155 C153 1.383 . S
C155 C156 1.402 . S
C155 H170 0.951 . S
C156 C155 1.402 . S
C156 C157 1.375 . S
C156 C159 1.481 . S
C157 C156 1.375 . S
C157 C158 1.367 . S
C157 H171 0.951 . S
C158 C154 1.383 . S
C158 C157 1.367 . S
C158 H172 0.950 . S
C159 C156 1.481 . S
C159 C160 1.297 . S
C159 H173 0.950 . S
C160 C159 1.297 . S
C160 C161 1.479 . S
C160 H174 0.950 . S
C161 C160 1.479 . S
C161 C162 1.375 . S
C161 C167 1.404 . S
C162 C161 1.375 . S
C162 C163 1.369 . S
C162 H175 0.950 . S
C163 C162 1.369 . S
C163 C164 1.392 . S
C163 H176 0.951 . S
C164 C163 1.392 . S
C164 C166 1.384 . S
H165 C167 0.949 . S
C166 C164 1.384 . S
C166 C167 1.385 . S
C166 H168 0.950 . S
C167 C161 1.404 . S
C167 H165 0.949 . S
C167 C166 1.385 . S
H168 C166 0.950 . S
H169 C153 0.951 . S
H170 C155 0.951 . S
H171 C157 0.951 . S
H172 C158 0.950 . S
H173 C159 0.950 . S
H174 C160 0.950 . S
H175 C162 0.950 . S
H176 C163 0.951 . S
C177 C178 1.386 . S
C177 C179 1.383 . S
C177 H193 0.951 . S
C178 C177 1.386 . S
C178 C182 1.383 . S
C179 C177 1.383 . S
C179 C180 1.402 . S
C179 H194 0.951 . S
C180 C179 1.402 . S
C180 C181 1.375 . S
C180 C183 1.481 . S
C181 C180 1.375 . S
C181 C182 1.367 . S
C181 H195 0.951 . S
C182 C178 1.383 . S
C182 C181 1.367 . S
C182 H196 0.950 . S
C183 C180 1.481 . S
C183 C184 1.297 . S
C183 H197 0.950 . S
C184 C183 1.297 . S
C184 C185 1.479 . S
C184 H198 0.950 . S
C185 C184 1.479 . S
C185 C186 1.375 . S
C185 C191 1.404 . S
C186 C185 1.375 . S
C186 C187 1.369 . S
C186 H199 0.950 . S
C187 C186 1.369 . S
C187 C188 1.392 . S
C187 H200 0.951 . S
C188 C187 1.392 . S
C188 C190 1.384 . S
H189 C191 0.949 . S
C190 C188 1.384 . S
C190 C191 1.385 . S
C190 H192 0.950 . S
C191 C185 1.404 . S
C191 H189 0.949 . S
C191 C190 1.385 . S
H192 C190 0.950 . S
H193 C177 0.951 . S
H194 C179 0.951 . S
H195 C181 0.951 . S
H196 C182 0.950 . S
H197 C183 0.950 . S
H198 C184 0.950 . S
H199 C186 0.950 . S
H200 C187 0.951 . S
C201 C202 1.386 . S
C201 C203 1.383 . S
C201 H217 0.951 . S
C202 C201 1.386 . S
C202 C206 1.383 . S
C203 C201 1.383 . S
C203 C204 1.402 . S
C203 H218 0.951 . S
C204 C203 1.402 . S
C204 C205 1.375 . S
C204 C207 1.481 . S
C205 C204 1.375 . S
C205 C206 1.367 . S
C205 H219 0.951 . S
C206 C202 1.383 . S
C206 C205 1.367 . S
C206 H220 0.950 . S
C207 C204 1.481 . S
C207 C208 1.297 . S
C207 H221 0.950 . S
C208 C207 1.297 . S
C208 C209 1.479 . S
C208 H222 0.950 . S
C209 C208 1.479 . S
C209 C210 1.375 . S
C209 C215 1.404 . S
C210 C209 1.375 . S
C210 C211 1.369 . S
C210 H223 0.950 . S
C211 C210 1.369 . S
C211 C212 1.392 . S
C211 H224 0.951 . S
C212 C211 1.392 . S
C212 C214 1.384 . S
H213 C215 0.949 . S
C214 C212 1.384 . S
C214 C215 1.385 . S
C214 H216 0.950 . S
C215 C209 1.404 . S
C215 H213 0.949 . S
C215 C214 1.385 . S
H216 C214 0.950 . S
H217 C201 0.951 . S
H218 C203 0.951 . S
H219 C205 0.951 . S
H220 C206 0.950 . S
H221 C207 0.950 . S
H222 C208 0.950 . S
H223 C210 0.950 . S
H224 C211 0.951 . S
C225 C226 1.386 . S
C225 C227 1.383 . S
C225 H241 0.951 . S
C226 C225 1.386 . S
C226 C230 1.383 . S
C227 C225 1.383 . S
C227 C228 1.402 . S
C227 H242 0.951 . S
C228 C227 1.402 . S
C228 C229 1.375 . S
C228 C231 1.481 . S
C229 C228 1.375 . S
C229 C230 1.367 . S
C229 H243 0.951 . S
C230 C226 1.383 . S
C230 C229 1.367 . S
C230 H244 0.950 . S
C231 C228 1.481 . S
C231 C232 1.297 . S
C231 H245 0.950 . S
C232 C231 1.297 . S
C232 C233 1.479 . S
C232 H246 0.950 . S
C233 C232 1.479 . S
C233 C234 1.375 . S
C233 C239 1.404 . S
C234 C233 1.375 . S
C234 C235 1.369 . S
C234 H247 0.950 . S
C235 C234 1.369 . S
C235 C236 1.392 . S
C235 H248 0.951 . S
C236 C235 1.392 . S
C236 C238 1.384 . S
H237 C239 0.949 . S
C238 C236 1.384 . S
C238 C239 1.385 . S
C238 H240 0.950 . S
C239 C233 1.404 . S
C239 H237 0.949 . S
C239 C238 1.385 . S
H240 C238 0.950 . S
H241 C225 0.951 . S
H242 C227 0.951 . S
H243 C229 0.951 . S
H244 C230 0.950 . S
H245 C231 0.950 . S
H246 C232 0.950 . S
H247 C234 0.950 . S
H248 C235 0.951 . S
C249 C250 1.386 . S
C249 C251 1.383 . S
C249 H265 0.951 1_655 S
C250 C249 1.386 . S
C250 C254 1.383 . S
C251 C249 1.383 . S
C251 C252 1.402 . S
C251 H266 0.951 1_554 S
C252 C251 1.402 . S
C252 C253 1.375 . S
C252 C255 1.481 . S
C253 C252 1.375 . S
C253 C254 1.367 . S
C253 H267 0.951 . S
C254 C250 1.383 . S
C254 C253 1.367 . S
C254 H268 0.950 . S
C255 C252 1.481 . S
C255 C256 1.297 1_554 S
C255 H269 0.950 . S
C256 C255 1.297 1_556 S
C256 C257 1.479 . S
C256 H270 0.950 . S
C257 C256 1.479 . S
C257 C258 1.375 . S
C257 C263 1.404 . S
C258 C257 1.375 . S
C258 C259 1.369 . S
C258 H271 0.950 . S
C259 C258 1.369 . S
C259 C260 1.392 . S
C259 H272 0.951 . S
C260 C259 1.392 . S
C260 C262 1.384 . S
H261 C263 0.949 . S
C262 C260 1.384 . S
C262 C263 1.385 . S
C262 H264 0.950 . S
C263 C257 1.404 . S
C263 H261 0.949 . S
C263 C262 1.385 . S
H264 C262 0.950 . S
H265 C249 0.951 1_455 S
H266 C251 0.951 1_556 S
H267 C253 0.951 . S
H268 C254 0.950 . S
H269 C255 0.950 . S
H270 C256 0.950 . S
H271 C258 0.950 . S
H272 C259 0.951 . S
C273 C274 1.386 . S
C273 C275 1.383 . S
C273 H289 0.951 1_455 S
C274 C273 1.386 . S
C274 C278 1.383 . S
C275 C273 1.383 . S
C275 C276 1.402 . S
C275 H290 0.951 1_455 S
C276 C275 1.402 . S
C276 C277 1.375 . S
C276 C279 1.481 . S
C277 C276 1.375 . S
C277 C278 1.367 . S
C277 H291 0.951 . S
C278 C274 1.383 . S
C278 C277 1.367 . S
C278 H292 0.950 . S
C279 C276 1.481 . S
C279 C280 1.297 . S
C279 H293 0.950 . S
C280 C279 1.297 . S
C280 C281 1.479 . S
C280 H294 0.950 . S
C281 C280 1.479 . S
C281 C282 1.375 . S
C281 C287 1.404 . S
C282 C281 1.375 . S
C282 C283 1.369 . S
C282 H295 0.950 1_455 S
C283 C282 1.369 . S
C283 C284 1.392 . S
C283 H296 0.951 1_455 S
C284 C283 1.392 . S
C284 C286 1.384 . S
H285 C287 0.949 . S
C286 C284 1.384 . S
C286 C287 1.385 . S
C286 H288 0.950 . S
C287 C281 1.404 . S
C287 H285 0.949 . S
C287 C286 1.385 . S
H288 C286 0.950 . S
H289 C273 0.951 1_655 S
H290 C275 0.951 1_655 S
H291 C277 0.951 . S
H292 C278 0.950 . S
H293 C279 0.950 . S
H294 C280 0.950 . S
H295 C282 0.950 1_655 S
H296 C283 0.951 1_655 S
C297 C298 1.386 . S
C297 C299 1.383 . S
C297 H313 0.951 . S
C298 C297 1.386 . S
C298 C302 1.383 1_545 S
C299 C297 1.383 . S
C299 C300 1.406 . S
C299 H314 0.951 . S
C300 C299 1.406 . S
C300 C301 1.374 1_545 S
C300 C303 1.477 1_545 S
C301 C300 1.374 1_565 S
C301 C302 1.367 . S
C301 H315 0.951 . S
C302 C298 1.383 1_565 S
C302 C301 1.367 . S
C302 H316 0.950 . S
C303 C300 1.477 1_565 S
C303 C304 1.297 1_565 S
C303 H317 0.950 . S
C304 C303 1.297 1_545 S
C304 C305 1.479 . S
C304 H318 0.950 . S
C305 C304 1.479 . S
C305 C306 1.375 . S
C305 C311 1.404 1_545 S
C306 C305 1.375 . S
C306 C307 1.369 . S
C306 H319 0.950 . S
C307 C306 1.369 . S
C307 C308 1.392 . S
C307 H320 0.951 . S
C308 C307 1.392 . S
C308 C310 1.377 1_545 S
H309 C311 0.949 . S
C310 C308 1.377 1_565 S
C310 C311 1.382 . S
C310 H312 0.961 . S
C311 C305 1.404 1_565 S
C311 H309 0.949 . S
C311 C310 1.382 . S
H312 C310 0.961 . S
H313 C297 0.951 . S
H314 C299 0.951 . S
H315 C301 0.951 . S
H316 C302 0.950 . S
H317 C303 0.950 . S
H318 C304 0.950 . S
H319 C306 0.950 . S
H320 C307 0.951 . S
C321 C322 1.386 . S
C321 C323 1.383 . S
C321 H337 0.951 . S
C322 C321 1.386 . S
C322 C326 1.383 . S
C323 C321 1.383 . S
C323 C324 1.402 . S
C323 H338 0.951 1_554 S
C324 C323 1.402 . S
C324 C325 1.375 . S
C324 C327 1.481 . S
C325 C324 1.375 . S
C325 C326 1.367 . S
C325 H339 0.951 . S
C326 C322 1.383 . S
C326 C325 1.367 . S
C326 H340 0.950 . S
C327 C324 1.481 . S
C327 C328 1.297 1_554 S
C327 H341 0.950 . S
C328 C327 1.297 1_556 S
C328 C329 1.479 . S
C328 H342 0.950 . S
C329 C328 1.479 . S
C329 C330 1.375 . S
C329 C335 1.404 . S
C330 C329 1.375 . S
C330 C331 1.369 . S
C330 H343 0.950 . S
C331 C330 1.369 . S
C331 C332 1.392 . S
C331 H344 0.951 . S
C332 C331 1.392 . S
C332 C334 1.384 . S
H333 C335 0.949 . S
C334 C332 1.384 . S
C334 C335 1.385 . S
C334 H336 0.950 . S
C335 C329 1.404 . S
C335 H333 0.949 . S
C335 C334 1.385 . S
H336 C334 0.950 . S
H337 C321 0.951 . S
H338 C323 0.951 1_556 S
H339 C325 0.951 . S
H340 C326 0.950 . S
H341 C327 0.950 . S
H342 C328 0.950 . S
H343 C330 0.950 . S
H344 C331 0.951 . S
C345 C346 1.386 . S
C345 C347 1.383 . S
C345 H361 0.951 . S
C346 C345 1.386 . S
C346 C350 1.383 . S
C347 C345 1.383 . S
C347 C348 1.402 . S
C347 H362 0.951 . S
C348 C347 1.402 . S
C348 C349 1.375 . S
C348 C351 1.481 . S
C349 C348 1.375 . S
C349 C350 1.367 . S
C349 H363 0.951 . S
C350 C346 1.383 . S
C350 C349 1.367 . S
C350 H364 0.950 . S
C351 C348 1.481 . S
C351 C352 1.297 . S
C351 H365 0.950 . S
C352 C351 1.297 . S
C352 C353 1.479 . S
C352 H366 0.950 . S
C353 C352 1.479 . S
C353 C354 1.375 . S
C353 C359 1.404 . S
C354 C353 1.375 . S
C354 C355 1.369 . S
C354 H367 0.950 . S
C355 C354 1.369 . S
C355 C356 1.392 . S
C355 H368 0.951 . S
C356 C355 1.392 . S
C356 C358 1.384 . S
H357 C359 0.949 . S
C358 C356 1.384 . S
C358 C359 1.385 . S
C358 H360 0.950 . S
C359 C353 1.404 . S
C359 H357 0.949 . S
C359 C358 1.385 . S
H360 C358 0.950 . S
H361 C345 0.951 . S
H362 C347 0.951 . S
H363 C349 0.951 . S
H364 C350 0.950 . S
H365 C351 0.950 . S
H366 C352 0.950 . S
H367 C354 0.950 . S
H368 C355 0.951 . S
C92 C47 1.205 . S
C82 C11 1.223 . S
C106 C25 1.379 . S
C116 C65 1.360 . S
C130 C41 1.357 . S
C140 C78 1.400 . S
C154 C7 1.307 1_565 S
C164 C45 1.313 . S
C188 C56 1.415 . S
C178 C21 1.431 . S
C202 C36 1.357 . S
C212 C69 1.453 . S
C236 C58 1.317 . S
C226 C39 1.278 . S
C250 C8 1.320 1_665 S
C260 C71 1.356 . S
C284 C52 1.501 . S
C274 C22 1.413 1_565 S
C308 C60 1.315 . S
C298 C35 1.359 . S
C332 C73 1.344 . S
C322 C13 1.305 . S
C346 C27 1.363 . S
C356 C43 1.449 . S
