# Generated by pormake.
# Topology soc, (4,6)-cn, num edge types: 1
# Building blocks:
#     Node 0, Type 0, BuildingBlock: ESEHIV_clean_sbu_0, # of connection points: 4
#     Node 1, Type 0, BuildingBlock: ESEHIV_clean_sbu_0, # of connection points: 4
#     Node 2, Type 0, BuildingBlock: ESEHIV_clean_sbu_0, # of connection points: 4
#     Node 3, Type 0, BuildingBlock: ESEHIV_clean_sbu_0, # of connection points: 4
#     Node 4, Type 0, BuildingBlock: ESEHIV_clean_sbu_0, # of connection points: 4
#     Node 5, Type 0, BuildingBlock: ESEHIV_clean_sbu_0, # of connection points: 4
#     Node 6, Type 0, BuildingBlock: ESEHIV_clean_sbu_0, # of connection points: 4
#     Node 7, Type 0, BuildingBlock: ESEHIV_clean_sbu_0, # of connection points: 4
#     Node 8, Type 0, BuildingBlock: ESEHIV_clean_sbu_0, # of connection points: 4
#     Node 9, Type 0, BuildingBlock: ESEHIV_clean_sbu_0, # of connection points: 4
#     Node 10, Type 0, BuildingBlock: ESEHIV_clean_sbu_0, # of connection points: 4
#     Node 11, Type 0, BuildingBlock: ESEHIV_clean_sbu_0, # of connection points: 4
#     Node 12, Type 1, BuildingBlock: BETDIP_clean_sbu_0, # of connection points: 6
#     Node 13, Type 1, BuildingBlock: BETDIP_clean_sbu_0, # of connection points: 6
#     Node 14, Type 1, BuildingBlock: BETDIP_clean_sbu_0, # of connection points: 6
#     Node 15, Type 1, BuildingBlock: BETDIP_clean_sbu_0, # of connection points: 6
#     Node 16, Type 1, BuildingBlock: BETDIP_clean_sbu_0, # of connection points: 6
#     Node 17, Type 1, BuildingBlock: BETDIP_clean_sbu_0, # of connection points: 6
#     Node 18, Type 1, BuildingBlock: BETDIP_clean_sbu_0, # of connection points: 6
#     Node 19, Type 1, BuildingBlock: BETDIP_clean_sbu_0, # of connection points: 6
#     Edge 20, Type (0, 1), BuildingBlock: XUDNAN_clean_linker_2, # of connection points: 2
#     Edge 21, Type (0, 1), BuildingBlock: XUDNAN_clean_linker_2, # of connection points: 2
#     Edge 22, Type (0, 1), BuildingBlock: XUDNAN_clean_linker_2, # of connection points: 2
#     Edge 23, Type (0, 1), BuildingBlock: XUDNAN_clean_linker_2, # of connection points: 2
#     Edge 24, Type (0, 1), BuildingBlock: XUDNAN_clean_linker_2, # of connection points: 2
#     Edge 25, Type (0, 1), BuildingBlock: XUDNAN_clean_linker_2, # of connection points: 2
#     Edge 26, Type (0, 1), BuildingBlock: XUDNAN_clean_linker_2, # of connection points: 2
#     Edge 27, Type (0, 1), BuildingBlock: XUDNAN_clean_linker_2, # of connection points: 2
#     Edge 28, Type (0, 1), BuildingBlock: XUDNAN_clean_linker_2, # of connection points: 2
#     Edge 29, Type (0, 1), BuildingBlock: XUDNAN_clean_linker_2, # of connection points: 2
#     Edge 30, Type (0, 1), BuildingBlock: XUDNAN_clean_linker_2, # of connection points: 2
#     Edge 31, Type (0, 1), BuildingBlock: XUDNAN_clean_linker_2, # of connection points: 2
#     Edge 32, Type (0, 1), BuildingBlock: XUDNAN_clean_linker_2, # of connection points: 2
#     Edge 33, Type (0, 1), BuildingBlock: XUDNAN_clean_linker_2, # of connection points: 2
#     Edge 34, Type (0, 1), BuildingBlock: XUDNAN_clean_linker_2, # of connection points: 2
#     Edge 35, Type (0, 1), BuildingBlock: XUDNAN_clean_linker_2, # of connection points: 2
#     Edge 36, Type (0, 1), BuildingBlock: XUDNAN_clean_linker_2, # of connection points: 2
#     Edge 37, Type (0, 1), BuildingBlock: XUDNAN_clean_linker_2, # of connection points: 2
#     Edge 38, Type (0, 1), BuildingBlock: XUDNAN_clean_linker_2, # of connection points: 2
#     Edge 39, Type (0, 1), BuildingBlock: XUDNAN_clean_linker_2, # of connection points: 2
#     Edge 40, Type (0, 1), BuildingBlock: XUDNAN_clean_linker_2, # of connection points: 2
#     Edge 41, Type (0, 1), BuildingBlock: XUDNAN_clean_linker_2, # of connection points: 2
#     Edge 42, Type (0, 1), BuildingBlock: XUDNAN_clean_linker_2, # of connection points: 2
#     Edge 43, Type (0, 1), BuildingBlock: XUDNAN_clean_linker_2, # of connection points: 2
#     Edge 44, Type (0, 1), BuildingBlock: XUDNAN_clean_linker_2, # of connection points: 2
#     Edge 45, Type (0, 1), BuildingBlock: XUDNAN_clean_linker_2, # of connection points: 2
#     Edge 46, Type (0, 1), BuildingBlock: XUDNAN_clean_linker_2, # of connection points: 2
#     Edge 47, Type (0, 1), BuildingBlock: XUDNAN_clean_linker_2, # of connection points: 2
#     Edge 48, Type (0, 1), BuildingBlock: XUDNAN_clean_linker_2, # of connection points: 2
#     Edge 49, Type (0, 1), BuildingBlock: XUDNAN_clean_linker_2, # of connection points: 2
#     Edge 50, Type (0, 1), BuildingBlock: XUDNAN_clean_linker_2, # of connection points: 2
#     Edge 51, Type (0, 1), BuildingBlock: XUDNAN_clean_linker_2, # of connection points: 2
#     Edge 52, Type (0, 1), BuildingBlock: XUDNAN_clean_linker_2, # of connection points: 2
#     Edge 53, Type (0, 1), BuildingBlock: XUDNAN_clean_linker_2, # of connection points: 2
#     Edge 54, Type (0, 1), BuildingBlock: XUDNAN_clean_linker_2, # of connection points: 2
#     Edge 55, Type (0, 1), BuildingBlock: XUDNAN_clean_linker_2, # of connection points: 2
#     Edge 56, Type (0, 1), BuildingBlock: XUDNAN_clean_linker_2, # of connection points: 2
#     Edge 57, Type (0, 1), BuildingBlock: XUDNAN_clean_linker_2, # of connection points: 2
#     Edge 58, Type (0, 1), BuildingBlock: XUDNAN_clean_linker_2, # of connection points: 2
#     Edge 59, Type (0, 1), BuildingBlock: XUDNAN_clean_linker_2, # of connection points: 2
#     Edge 60, Type (0, 1), BuildingBlock: XUDNAN_clean_linker_2, # of connection points: 2
#     Edge 61, Type (0, 1), BuildingBlock: XUDNAN_clean_linker_2, # of connection points: 2
#     Edge 62, Type (0, 1), BuildingBlock: XUDNAN_clean_linker_2, # of connection points: 2
#     Edge 63, Type (0, 1), BuildingBlock: XUDNAN_clean_linker_2, # of connection points: 2
#     Edge 64, Type (0, 1), BuildingBlock: XUDNAN_clean_linker_2, # of connection points: 2
#     Edge 65, Type (0, 1), BuildingBlock: XUDNAN_clean_linker_2, # of connection points: 2
#     Edge 66, Type (0, 1), BuildingBlock: XUDNAN_clean_linker_2, # of connection points: 2
#     Edge 67, Type (0, 1), BuildingBlock: XUDNAN_clean_linker_2, # of connection points: 2
# Relax obj value: 0.222
# Max RMSD: 0.299
# Mean RMSD: 0.198
data_MOF--net-soc--node1-ESEHIV_clean_sbu_0--node2-BETDIP_clean_sbu_0--edge1-XUDNAN_clean_linker_2
_symmetry_space_group_name_H-M    P1
_symmetry_Int_Tables_number       1
_symmetry_cell_setting            triclinic
loop_
_symmetry_equiv_pos_as_xyz
'x, y, z'
_cell_length_a     45.517743
_cell_length_b     54.959866
_cell_length_c     43.237719
_cell_angle_alpha  91.646236
_cell_angle_beta   92.112218
_cell_angle_gamma 70.169357
loop_
_atom_site_label
_atom_site_type_symbol
_atom_site_fract_x
_atom_site_fract_y
_atom_site_fract_z
_atom_type_partial_charge
Cu0 Cu 0.04699 0.07094 0.35361 0.0
N1 N 0.06354 0.08794 0.3838 0.0
N2 N 0.08972 0.11336 0.40233 0.0
C3 C 0.08061 0.10264 0.37688 0.0
C4 C 0.07759 0.10506 0.42631 0.0
C5 C 0.0614 0.08942 0.4148 0.0
O6 O 0.08418 0.0458 0.33416 0.0
C7 C 0.99595 0.11575 0.34483 0.0
O8 O 0.99628 0.11266 0.37488 0.0
H9 H 0.0855 0.10577 0.35333 0.0
H10 H 0.04866 0.08016 0.4281 0.0
N11 N 1.02496 0.05196 0.37092 0.0
N12 N 0.99455 0.02748 0.37074 0.0
C13 C 1.00261 0.04526 0.35552 0.0
C14 C 1.03114 0.0382 0.39707 0.0
C15 C 1.01219 0.0232 0.39714 0.0
C16 C 0.08649 0.02405 0.32106 0.0
O17 O 0.06103 0.01867 0.31402 0.0
H18 H 0.99394 0.05215 0.33262 0.0
H19 H 0.04967 0.03757 0.41372 0.0
O20 O 1.01672 0.0988 0.32895 0.0
H21 H 0.08015 0.10985 0.45047 0.0
H22 H 1.01321 1.00874 0.41401 0.0
Cu23 Cu 0.03613 0.06318 0.69409 0.0
N24 N 1.01359 0.04657 0.6695 0.0
N25 N 0.98047 0.02527 0.65754 0.0
C26 C 0.99097 0.03835 0.67973 0.0
C27 C 0.99723 0.02517 0.63241 0.0
C28 C 1.01782 0.03806 0.63993 0.0
O29 O 1.00487 0.0918 0.71659 0.0
C30 C 0.08808 0.01911 0.7033 0.0
O31 O 0.08846 0.0219 0.67327 0.0
H32 H 0.9828 0.04152 0.70319 0.0
H33 H 0.03554 0.03997 0.62521 0.0
N34 N 0.05951 0.07804 0.6706 0.0
N35 N 0.09281 0.09864 0.65999 0.0
C36 C 0.08182 0.08719 0.68198 0.0
C37 C 0.05621 0.08395 0.64039 0.0
C38 C 0.07669 0.09653 0.63379 0.0
C39 C 0.99115 0.11288 0.7021 0.0
O40 O 0.99881 0.11471 0.67352 0.0
H41 H 0.08938 0.08583 0.70608 0.0
H42 H 0.03898 0.08069 0.62454 0.0
O43 O 0.06664 0.03568 0.71878 0.0
H44 H 0.99578 0.01539 0.61061 0.0
H45 H 0.07839 0.10459 0.61166 0.0
Cu46 Cu 0.26944 0.1288 0.02107 0.0
N47 N 0.24123 0.12308 0.99189 0.0
N48 N 0.22016 0.09761 0.96492 0.0
C49 C 0.23358 0.10161 0.99184 0.0
C50 C 0.21853 0.11782 0.94713 0.0
C51 C 0.23178 0.13351 0.96386 0.0
O52 O 0.28362 0.09744 0.04601 0.0
C53 C 0.29082 0.16034 0.9874 0.0
O54 O 0.26276 0.17544 0.99494 0.0
H55 H 0.2402 0.08786 1.01015 0.0
H56 H 0.23659 0.14997 0.95514 0.0
N57 N 0.24968 0.15656 0.0473 0.0
N58 N 0.24522 0.18765 0.08261 0.0
C59 C 0.26407 0.16524 0.07052 0.0
C60 C 0.22055 0.17389 0.04485 0.0
C61 C 0.21789 0.19342 0.06648 0.0
C62 C 0.26316 0.09517 0.06412 0.0
O63 O 0.23702 0.11472 0.06714 0.0
H64 H 0.28856 0.15631 0.07688 0.0
H65 H 0.20327 0.17317 0.02732 0.0
O66 O 0.3007 0.13731 0.99759 0.0
H67 H 0.21096 0.11987 0.92303 0.0
H68 H 0.1981 0.21104 0.06919 0.0
Cu69 Cu 0.0447 0.3355 0.02853 0.0
N70 N 0.05741 0.35668 1.0019 0.0
N71 N 0.08553 0.36619 0.96497 0.0
C72 C 0.08015 0.34729 0.98094 0.0
C73 C 0.06518 0.38841 0.9766 0.0
C74 C 0.04802 0.38252 0.99926 0.0
O75 O 0.08447 0.32062 0.05544 0.0
C76 C 1.00022 0.33165 0.98176 0.0
O77 O 0.9934 0.35675 0.98552 0.0
H78 H 0.09235 0.32681 0.97743 0.0
H79 H 1.03013 0.39615 1.01293 0.0
N80 N 1.01264 0.35235 0.05639 0.0
N81 N 0.97456 0.35478 0.08961 0.0
C82 C 0.9935 0.34064 0.06731 0.0
C83 C 1.00578 0.37484 0.07243 0.0
C84 C 0.98231 0.37642 0.09284 0.0
C85 C 0.08743 0.32041 0.08537 0.0
O86 O 0.06252 0.32409 0.10174 0.0
H87 H 0.99461 0.32142 0.05979 0.0
H88 H 1.01763 0.38873 0.07022 0.0
O89 O 1.02331 0.31685 0.99845 0.0
H90 H 0.06306 0.40771 0.9697 0.0
H91 H 0.97206 0.3922 0.10897 0.0
Cu92 Cu 0.81413 0.99569 1.00605 0.0
N93 N 0.83795 1.00508 0.97757 0.0
N94 N 0.84564 0.03893 0.95636 0.0
C95 C 0.84636 0.02607 0.98253 0.0
C96 C 0.83872 0.02444 0.93347 0.0
C97 C 0.83395 1.00355 0.94663 0.0
O98 O 0.79501 0.02634 0.03191 0.0
C99 C 0.79323 0.96126 0.97211 0.0
O100 O 0.82167 0.94617 0.97967 0.0
H101 H 0.8478 0.03433 1.00516 0.0
H102 H 0.82316 0.9909 0.93502 0.0
N103 N 0.83756 0.96918 0.03184 0.0
N104 N 0.84572 0.94233 0.07123 0.0
C105 C 0.82454 0.95735 0.05116 0.0
C106 C 0.86821 0.96122 0.03972 0.0
C107 C 0.87324 0.94484 0.06452 0.0
C108 C 0.81254 0.03259 0.052 0.0
O109 O 0.84161 0.01739 0.05615 0.0
H110 H 0.79958 0.96146 0.05222 0.0
H111 H 0.88509 0.96839 0.02978 0.0
O112 O 0.78383 0.98452 0.98221 0.0
H113 H 0.83269 0.03059 0.9098 0.0
H114 H 0.89487 0.93672 0.07777 0.0
Cu115 Cu 0.04075 0.79877 0.01922 0.0
N116 N 1.02351 0.7808 0.99001 0.0
N117 N 0.99063 0.77734 0.95118 0.0
C118 C 1.00034 0.79346 0.96992 0.0
C119 C 1.00853 0.75334 0.96017 0.0
C120 C 1.02874 0.75553 0.98409 0.0
O121 O 1.00347 0.81477 0.0467 0.0
C122 C 0.08097 0.80269 0.97161 0.0
O123 O 0.08173 0.7787 0.9677 0.0
H124 H 0.99049 0.81434 0.96966 0.0
H125 H 0.04594 0.73983 0.99623 0.0
N126 N 0.07264 0.77849 0.04578 0.0
N127 N 0.10898 0.77266 0.08396 0.0
C128 C 0.09354 0.78771 0.06037 0.0
C129 C 0.0748 0.75682 0.0608 0.0
C130 C 0.09706 0.7533 0.08451 0.0
C131 C 1.00226 0.81717 0.0765 0.0
O132 O 1.02782 0.8157 0.09256 0.0
H133 H 0.09492 0.80658 0.05594 0.0
H134 H 0.05925 0.74584 0.0568 0.0
O135 O 0.06324 0.81664 0.99289 0.0
H136 H 1.00739 0.73541 0.9501 0.0
H137 H 0.10208 0.73898 0.10244 0.0
Cu138 Cu 0.53561 0.56554 0.8558 0.0
N139 N 0.55758 0.58333 0.879 0.0
N140 N 0.58999 0.60591 0.88675 0.0
C141 C 0.58407 0.58671 0.87035 0.0
C142 C 0.56643 0.61478 0.90669 0.0
C143 C 0.54636 0.60106 0.90163 0.0
O144 O 0.56658 0.53308 0.84082 0.0
C145 C 0.47909 0.60075 0.826 0.0
O146 O 0.46374 0.58661 0.83677 0.0
H147 H 0.59688 0.57721 0.85029 0.0
H148 H 0.52367 0.60559 0.91158 0.0
N149 N 0.51072 0.55401 0.88112 0.0
N150 N 0.48446 0.52876 0.89619 0.0
C151 C 0.4972 0.5365 0.87225 0.0
C152 C 0.50667 0.55729 0.91184 0.0
C153 C 0.49031 0.54193 0.92113 0.0
C154 C 0.58883 0.52696 0.8218 0.0
O155 O 0.59231 0.54456 0.80378 0.0
H156 H 0.49824 0.5286 0.84894 0.0
H157 H 0.51625 0.56888 0.92689 0.0
O158 O 0.50904 0.59233 0.82755 0.0
H159 H 0.56269 0.63129 0.92223 0.0
H160 H 0.48398 0.54016 0.94462 0.0
Cu161 Cu 0.54435 0.56655 0.19611 0.0
N162 N 0.51818 0.55271 0.17333 0.0
N163 N 0.48236 0.53318 0.17283 0.0
C164 C 0.49157 0.5523 0.18527 0.0
C165 C 0.50346 0.52175 0.15109 0.0
C166 C 0.52575 0.53372 0.15164 0.0
O167 O 0.5164 0.59519 0.22103 0.0
C168 C 0.59937 0.52324 0.21149 0.0
O169 O 0.61122 0.5302 0.18742 0.0
H170 H 0.48149 0.56371 0.20548 0.0
H171 H 0.5478 0.52686 0.14006 0.0
N172 N 0.56761 0.57955 0.17067 0.0
N173 N 0.59854 0.60128 0.15664 0.0
C174 C 0.58526 0.59371 0.18038 0.0
C175 C 0.56956 0.57796 0.13972 0.0
C176 C 0.58861 0.59127 0.13098 0.0
C177 C 0.50284 0.617 0.20822 0.0
O178 O 0.50942 0.62001 0.17956 0.0
H179 H 0.58766 0.59859 0.2045 0.0
H180 H 0.55763 0.56815 0.12452 0.0
O181 O 0.57215 0.53724 0.22017 0.0
H182 H 0.50498 0.50401 0.13864 0.0
H183 H 0.59423 0.59347 0.1074 0.0
Cu184 Cu 0.7528 0.63047 0.5211 0.0
N185 N 0.74075 0.65312 0.48784 0.0
N186 N 0.74682 0.6776 0.44986 0.0
C187 C 0.75781 0.66668 0.47734 0.0
C188 C 0.72162 0.67067 0.44264 0.0
C189 C 0.71786 0.65559 0.46625 0.0
O190 O 0.76424 0.64704 0.55765 0.0
C191 C 0.79005 0.59121 0.48171 0.0
O192 O 0.77762 0.60789 0.45973 0.0
H193 H 0.77936 0.66686 0.48832 0.0
H194 H 0.70085 0.64584 0.46672 0.0
N195 N 0.72099 0.61842 0.53205 0.0
N196 N 0.7123 0.58295 0.54742 0.0
C197 C 0.72322 0.59389 0.52499 0.0
C198 C 0.70595 0.62394 0.55894 0.0
C199 C 0.70046 0.60211 0.56841 0.0
C200 C 0.78712 0.65535 0.56043 0.0
O201 O 0.80615 0.65261 0.53753 0.0
H202 H 0.73796 0.58275 0.50692 0.0
H203 H 0.70419 0.64079 0.5733 0.0
O204 O 0.78653 0.59892 0.5098 0.0
H205 H 0.70762 0.6754 0.42145 0.0
H206 H 0.69339 0.59932 0.59132 0.0
Cu207 Cu 0.54479 0.82939 0.5231 0.0
N208 N 0.56326 0.84919 0.49937 0.0
N209 N 0.59687 0.85191 0.46271 0.0
C210 C 0.59115 0.83768 0.48561 0.0
C211 C 0.57119 0.87351 0.46228 0.0
C212 C 0.5506 0.87169 0.48444 0.0
O213 O 0.58221 0.80911 0.54758 0.0
C214 C 0.50707 0.80317 0.48399 0.0
O215 O 0.50311 0.78922 0.50655 0.0
H216 H 0.6058 0.81811 0.4908 0.0
H217 H 0.52714 0.88499 0.48773 0.0
N218 N 0.5118 0.84481 0.55193 0.0
N219 N 0.47498 0.84585 0.58682 0.0
C220 C 0.49352 0.83236 0.56372 0.0
C221 C 0.50455 0.86712 0.56844 0.0
C222 C 0.48203 0.86783 0.58973 0.0
C223 C 0.58404 0.80916 0.57724 0.0
O224 O 0.55878 0.81239 0.59284 0.0
H225 H 0.49522 0.81294 0.5568 0.0
H226 H 0.51562 0.88152 0.56603 0.0
O227 O 0.52548 0.81618 0.48787 0.0
H228 H 0.56671 0.88917 0.44621 0.0
H229 H 0.47193 0.88331 0.60627 0.0
Cu230 Cu 0.30259 0.50471 0.52468 0.0
N231 N 0.33228 0.51201 0.50156 0.0
N232 N 0.35374 0.5364 0.47608 0.0
C233 C 0.33021 0.53613 0.49408 0.0
C234 C 0.37128 0.5112 0.47212 0.0
C235 C 0.35794 0.49623 0.48778 0.0
O236 O 0.28593 0.53469 0.55138 0.0
C237 C 0.28349 0.47528 0.48339 0.0
O238 O 0.31263 0.46128 0.49007 0.0
H239 H 0.31102 0.55303 0.50104 0.0
H240 H 0.36606 0.47534 0.48847 0.0
N241 N 0.31989 0.47622 0.55044 0.0
N242 N 0.32275 0.44982 0.58939 0.0
C243 C 0.30392 0.46908 0.57194 0.0
C244 C 0.34993 0.46098 0.55466 0.0
C245 C 0.35176 0.44467 0.57891 0.0
C246 C 0.30416 0.53595 0.57394 0.0
O247 O 0.33118 0.51742 0.57764 0.0
H248 H 0.27925 0.47868 0.5757 0.0
H249 H 0.36933 0.46251 0.54215 0.0
O250 O 0.27227 0.49743 0.49631 0.0
H251 H 0.3921 0.50389 0.45863 0.0
H252 H 0.37279 0.43095 0.58895 0.0
Cu253 Cu 0.53348 0.30314 0.53455 0.0
N254 N 0.56275 0.29811 0.50241 0.0
N255 N 0.60213 0.29368 0.47007 0.0
C256 C 0.59227 0.28336 0.49437 0.0
C257 C 0.57828 0.31517 0.46273 0.0
C258 C 0.55455 0.31777 0.48234 0.0
O259 O 0.55219 0.32202 0.56663 0.0
C260 C 0.49346 0.29443 0.48882 0.0
O261 O 0.51729 0.27291 0.49247 0.0
H262 H 0.60664 0.26642 0.50675 0.0
H263 H 0.5328 0.33385 0.48287 0.0
N264 N 0.52709 0.27717 0.55894 0.0
N265 N 0.50315 0.2612 0.5942 0.0
C266 C 0.50389 0.28253 0.5797 0.0
C267 C 0.54179 0.25149 0.56049 0.0
C268 C 0.52715 0.24166 0.58204 0.0
C269 C 0.57789 0.30733 0.57985 0.0
O270 O 0.58788 0.28277 0.57156 0.0
H271 H 0.48733 0.30177 0.58349 0.0
H272 H 0.5616 0.24066 0.54685 0.0
O273 O 0.49345 0.31356 0.50707 0.0
H274 H 0.57829 0.32836 0.4446 0.0
H275 H 0.53385 0.22153 0.58822 0.0
Tb276 Tb 0.26496 0.3101 0.3011 0.0
Tb277 Tb 0.30677 0.337 0.26728 0.0
C278 C 0.22127 0.29422 0.31387 0.0
C279 C 0.21493 0.27246 0.32787 0.0
C280 C 0.1948 0.26175 0.3118 0.0
C281 C 0.18593 0.24261 0.32518 0.0
C282 C 0.19695 0.23378 0.35504 0.0
C283 C 0.21784 0.24403 0.37083 0.0
C284 C 0.22683 0.2632 0.35733 0.0
C285 C 0.32028 0.30356 0.33203 0.0
C286 C 0.30993 0.28049 0.24822 0.0
C287 C 0.35271 0.35084 0.25736 0.0
C288 C 0.36046 0.37417 0.25168 0.0
C289 C 0.38663 0.37703 0.26727 0.0
C290 C 0.39539 0.39849 0.26213 0.0
C291 C 0.37819 0.41751 0.24117 0.0
C292 C 0.35199 0.41462 0.22537 0.0
C293 C 0.34305 0.39313 0.23072 0.0
C294 C 0.25389 0.34173 0.23362 0.0
C295 C 0.2549 0.37013 0.31233 0.0
O296 O 0.23555 0.28931 0.2875 0.0
O297 O 0.23088 0.30964 0.33216 0.0
O298 O 0.30902 0.31497 0.30714 0.0
O299 O 0.29988 0.29317 0.33962 0.0
O300 O 0.28592 0.28189 0.26532 0.0
O301 O 0.32529 0.29709 0.25076 0.0
O302 O 0.34323 0.34889 0.28514 0.0
O303 O 0.33709 0.34304 0.23548 0.0
O304 O 0.26248 0.33159 0.26005 0.0
O305 O 0.2749 0.35193 0.22726 0.0
O306 O 0.28024 0.3685 0.29711 0.0
O307 O 0.24313 0.35114 0.31331 0.0
H308 H 0.18526 0.2687 0.28911 0.0
H309 H 0.16947 0.23543 0.31254 0.0
H310 H 0.22699 0.23741 0.39372 0.0
H311 H 0.24256 0.27107 0.37014 0.0
H312 H 0.40047 0.36252 0.28334 0.0
H313 H 0.41596 0.40001 0.27428 0.0
H314 H 0.33829 0.4291 0.20921 0.0
H315 H 0.32268 0.39133 0.21846 0.0
Tb316 Tb 0.79451 0.33341 0.29614 0.0
Tb317 Tb 0.77504 0.29696 0.24965 0.0
C318 C 0.79071 0.37469 0.3246 0.0
C319 C 0.78873 0.38795 0.35509 0.0
C320 C 0.76044 0.40706 0.36307 0.0
C321 C 0.75958 0.42442 0.38751 0.0
C322 C 0.78706 0.42317 0.40433 0.0
C323 C 0.81476 0.40265 0.39815 0.0
C324 C 0.81564 0.38524 0.37364 0.0
C325 C 0.83224 0.28418 0.30173 0.0
C326 C 0.75255 0.30089 0.3184 0.0
C327 C 0.76974 0.26368 0.2112 0.0
C328 C 0.78601 0.24232 0.1899 0.0
C329 C 0.80746 0.21905 0.20117 0.0
C330 C 0.81426 0.19633 0.18326 0.0
C331 C 0.79998 0.19676 0.15389 0.0
C332 C 0.78156 0.22046 0.14128 0.0
C333 C 0.77462 0.24313 0.1592 0.0
C334 C 0.73501 0.34469 0.25594 0.0
C335 C 0.8271 0.32057 0.23142 0.0
O336 O 0.7663 0.36881 0.3147 0.0
O337 O 0.81739 0.35723 0.31687 0.0
O338 O 0.80937 0.29408 0.28372 0.0
O339 O 0.83433 0.30305 0.31957 0.0
O340 O 0.76149 0.32144 0.32326 0.0
O341 O 0.75907 0.28663 0.29263 0.0
O342 O 0.77475 0.25961 0.241 0.0
O343 O 0.76633 0.28744 0.20354 0.0
O344 O 0.76439 0.33799 0.25574 0.0
O345 O 0.72721 0.32438 0.25079 0.0
O346 O 0.81554 0.30145 0.22795 0.0
O347 O 0.81929 0.33748 0.25486 0.0
H348 H 0.73935 0.40973 0.34912 0.0
H349 H 0.7378 0.43985 0.39199 0.0
H350 H 0.83635 0.40127 0.41058 0.0
H351 H 0.83784 0.3708 0.36803 0.0
H352 H 0.81676 0.21785 0.22472 0.0
H353 H 0.82832 0.17812 0.19341 0.0
H354 H 0.77011 0.22104 0.11876 0.0
H355 H 0.75798 0.26081 0.15006 0.0
Tb356 Tb 0.81789 0.82349 0.29063 0.0
Tb357 Tb 0.78807 0.79931 0.24434 0.0
C358 C 0.85232 0.83909 0.32722 0.0
C359 C 0.86637 0.85971 0.32734 0.0
C360 C 0.8911 0.85826 0.30803 0.0
C361 C 0.90362 0.87822 0.3083 0.0
C362 C 0.89164 0.90009 0.32778 0.0
C363 C 0.86707 0.90137 0.34721 0.0
C364 C 0.85469 0.88135 0.34709 0.0
C365 C 0.75866 0.82826 0.30363 0.0
C366 C 0.78612 0.85629 0.23485 0.0
C367 C 0.74896 0.78274 0.21653 0.0
C368 C 0.73541 0.76186 0.21888 0.0
C369 C 0.70285 0.76793 0.21709 0.0
C370 C 0.68986 0.74837 0.21184 0.0
C371 C 0.70929 0.72253 0.20815 0.0
C372 C 0.74168 0.71619 0.21202 0.0
C373 C 0.75466 0.73564 0.21761 0.0
C374 C 0.84062 0.79875 0.2179 0.0
C375 C 0.82566 0.76465 0.29921 0.0
O376 O 0.86302 0.81966 0.30776 0.0
O377 O 0.82193 0.84701 0.32836 0.0
O378 O 0.77986 0.80875 0.29273 0.0
O379 O 0.77062 0.84652 0.30585 0.0
O380 O 0.80915 0.85158 0.25542 0.0
O381 O 0.77077 0.8399 0.22964 0.0
O382 O 0.74073 0.80237 0.23622 0.0
O383 O 0.7787 0.77506 0.21072 0.0
O384 O 0.83209 0.80794 0.24498 0.0
O385 O 0.82084 0.78835 0.20726 0.0
O386 O 0.80752 0.76602 0.27432 0.0
O387 O 0.83447 0.78433 0.30816 0.0
H388 H 0.9008 0.84176 0.29267 0.0
H389 H 0.92293 0.87639 0.29344 0.0
H390 H 0.85705 0.91804 0.36224 0.0
H391 H 0.83572 0.88291 0.3623 0.0
H392 H 0.68752 0.78791 0.21785 0.0
H393 H 0.66477 0.75358 0.20871 0.0
H394 H 0.75702 0.69636 0.20902 0.0
H395 H 0.77988 0.73018 0.21898 0.0
Tb396 Tb 0.28394 0.80612 0.30493 0.0
Tb397 Tb 0.30623 0.83394 0.25568 0.0
C398 C 0.26972 0.7734 0.33488 0.0
C399 C 0.28632 0.75028 0.3528 0.0
C400 C 0.31907 0.73987 0.35376 0.0
C401 C 0.3343 0.71651 0.36875 0.0
C402 C 0.31695 0.70337 0.38314 0.0
C403 C 0.28415 0.71441 0.3828 0.0
C404 C 0.26902 0.73763 0.36774 0.0
C405 C 0.25981 0.85745 0.3074 0.0
C406 C 0.34285 0.82075 0.32067 0.0
C407 C 0.31568 0.86841 0.2249 0.0
C408 C 0.30281 0.88962 0.20305 0.0
C409 C 0.27267 0.90795 0.20527 0.0
C410 C 0.26292 0.92902 0.18524 0.0
C411 C 0.28336 0.932 0.16313 0.0
C412 C 0.31292 0.91301 0.16034 0.0
C413 C 0.32249 0.89203 0.18007 0.0
C414 C 0.343 0.78423 0.25677 0.0
C415 C 0.24967 0.81467 0.23782 0.0
O416 O 0.27474 0.77136 0.30516 0.0
O417 O 0.27001 0.7955 0.34672 0.0
O418 O 0.26514 0.84343 0.28313 0.0
O419 O 0.26658 0.84253 0.33117 0.0
O420 O 0.32995 0.80282 0.32433 0.0
O421 O 0.33332 0.83763 0.29789 0.0
O422 O 0.30661 0.87196 0.25367 0.0
O423 O 0.31943 0.84509 0.21409 0.0
O424 O 0.31984 0.79577 0.27298 0.0
O425 O 0.3463 0.80139 0.23877 0.0
O426 O 0.26856 0.82653 0.22823 0.0
O427 O 0.25094 0.80646 0.26655 0.0
H428 H 0.33278 0.74954 0.34245 0.0
H429 H 0.35958 0.70864 0.36886 0.0
H430 H 0.27003 0.70464 0.39319 0.0
H431 H 0.24371 0.7454 0.36709 0.0
H432 H 0.25707 0.90631 0.22281 0.0
H433 H 0.23999 0.94347 0.18781 0.0
H434 H 0.3289 0.91467 0.14321 0.0
H435 H 0.34575 0.87796 0.1779 0.0
Tb436 Tb 0.29845 0.83149 0.80057 0.0
Tb437 Tb 0.27045 0.7992 0.75992 0.0
C438 C 0.306 0.86967 0.82841 0.0
C439 C 0.28947 0.88733 0.85281 0.0
C440 C 0.25842 0.89028 0.85909 0.0
C441 C 0.24209 0.90896 0.88053 0.0
C442 C 0.25659 0.92502 0.89567 0.0
C443 C 0.28842 0.92063 0.89083 0.0
C444 C 0.30472 0.90187 0.86953 0.0
C445 C 0.33347 0.78198 0.80894 0.0
C446 C 0.24294 0.81428 0.82656 0.0
C447 C 0.25896 0.76682 0.72395 0.0
C448 C 0.27514 0.74578 0.70255 0.0
C449 C 0.30583 0.7294 0.70892 0.0
C450 C 0.3179 0.70604 0.69253 0.0
C451 C 0.29948 0.69904 0.66965 0.0
C452 C 0.27027 0.71682 0.66095 0.0
C453 C 0.2581 0.74006 0.67745 0.0
C454 C 0.23789 0.84946 0.76206 0.0
C455 C 0.32824 0.8151 0.73527 0.0
O456 O 0.29085 0.87124 0.80184 0.0
O457 O 0.31995 0.84583 0.83686 0.0
O458 O 0.30933 0.7904 0.79138 0.0
O459 O 0.33788 0.80189 0.82199 0.0
O460 O 0.25877 0.83067 0.82813 0.0
O461 O 0.24684 0.7974 0.80315 0.0
O462 O 0.26628 0.76276 0.75344 0.0
O463 O 0.25582 0.79031 0.71572 0.0
O464 O 0.26712 0.8388 0.76144 0.0
O465 O 0.22556 0.83145 0.75986 0.0
O466 O 0.31023 0.80035 0.73194 0.0
O467 O 0.32676 0.82998 0.76022 0.0
H468 H 0.24642 0.87896 0.84651 0.0
H469 H 0.21771 0.91177 0.88406 0.0
H470 H 0.30021 0.93286 0.9018 0.0
H471 H 0.32883 0.89952 0.86513 0.0
H472 H 0.31957 0.73379 0.72787 0.0
H473 H 0.34065 0.69257 0.69905 0.0
H474 H 0.25564 0.71169 0.64344 0.0
H475 H 0.23448 0.75265 0.67207 0.0
Tb476 Tb 0.32346 0.31138 0.80589 0.0
Tb477 Tb 0.27795 0.29408 0.76439 0.0
C478 C 0.365 0.32825 0.82791 0.0
C479 C 0.37071 0.35301 0.83359 0.0
C480 C 0.39481 0.35779 0.81814 0.0
C481 C 0.40379 0.37911 0.82652 0.0
C482 C 0.38911 0.39582 0.85079 0.0
C483 C 0.36403 0.39179 0.86521 0.0
C484 C 0.35481 0.37068 0.85663 0.0
C485 C 0.26703 0.31928 0.82854 0.0
C486 C 0.2849 0.34815 0.75208 0.0
C487 C 0.22996 0.28342 0.7483 0.0
C488 C 0.22233 0.26025 0.7384 0.0
C489 C 0.19418 0.25783 0.74744 0.0
C490 C 0.18571 0.23662 0.73735 0.0
C491 C 0.20521 0.21739 0.71789 0.0
C492 C 0.23387 0.21953 0.70959 0.0
C493 C 0.24239 0.2407 0.71981 0.0
C494 C 0.33458 0.27638 0.73981 0.0
C495 C 0.32252 0.25651 0.81459 0.0
O496 O 0.36412 0.32041 0.79913 0.0
O497 O 0.34396 0.3238 0.84452 0.0
O498 O 0.27316 0.32237 0.80091 0.0
O499 O 0.29297 0.3126 0.84471 0.0
O500 O 0.30531 0.34431 0.77556 0.0
O501 O 0.26977 0.33196 0.74444 0.0
O502 O 0.23957 0.28399 0.77716 0.0
O503 O 0.24595 0.29186 0.72923 0.0
O504 O 0.32635 0.28942 0.76447 0.0
O505 O 0.31034 0.27121 0.72912 0.0
O506 O 0.295 0.26424 0.79975 0.0
O507 O 0.34125 0.27028 0.81483 0.0
H508 H 0.4076 0.34441 0.80047 0.0
H509 H 0.42335 0.3817 0.81522 0.0
H510 H 0.35222 0.40454 0.88386 0.0
H511 H 0.33607 0.36767 0.86895 0.0
H512 H 0.17844 0.27261 0.76191 0.0
H513 H 0.16336 0.23578 0.74397 0.0
H514 H 0.24967 0.20489 0.69503 0.0
H515 H 0.26446 0.24194 0.71287 0.0
Tb516 Tb 0.77809 0.30358 0.79611 0.0
Tb517 Tb 0.80511 0.33306 0.75958 0.0
C518 C 0.76324 0.27395 0.83076 0.0
C519 C 0.77587 0.25605 0.85611 0.0
C520 C 0.80811 0.24388 0.86109 0.0
C521 C 0.81904 0.22472 0.8834 0.0
C522 C 0.79782 0.21763 0.90087 0.0
C523 C 0.76566 0.23117 0.89703 0.0
C524 C 0.75482 0.2502 0.87479 0.0
C525 C 0.74651 0.35398 0.79651 0.0
C526 C 0.83859 0.31596 0.82384 0.0
C527 C 0.81478 0.3662 0.72621 0.0
C528 C 0.80013 0.38285 0.69969 0.0
C529 C 0.77467 0.4059 0.70346 0.0
C530 C 0.76449 0.42333 0.67912 0.0
C531 C 0.77964 0.41805 0.65067 0.0
C532 C 0.8036 0.39418 0.64637 0.0
C533 C 0.81386 0.37688 0.67066 0.0
C534 C 0.83657 0.28265 0.75712 0.0
C535 C 0.74543 0.31937 0.73149 0.0
O536 O 0.77544 0.26693 0.80363 0.0
O537 O 0.75829 0.29832 0.83725 0.0
O538 O 0.77586 0.34347 0.79852 0.0
O539 O 0.73428 0.33598 0.79583 0.0
O540 O 0.8222 0.29994 0.82317 0.0
O541 O 0.833 0.33375 0.80226 0.0
O542 O 0.80108 0.37174 0.75285 0.0
O543 O 0.82579 0.34131 0.72057 0.0
O544 O 0.80712 0.29311 0.7569 0.0
O545 O 0.84899 0.30059 0.75685 0.0
O546 O 0.76199 0.33521 0.7316 0.0
O547 O 0.75083 0.30195 0.75343 0.0
H548 H 0.82466 0.2485 0.84703 0.0
H549 H 0.84396 0.21474 0.88614 0.0
H550 H 0.74869 0.22595 0.90978 0.0
H551 H 0.72985 0.25962 0.87127 0.0
H552 H 0.76354 0.41108 0.72555 0.0
H553 H 0.74608 0.44161 0.68328 0.0
H554 H 0.81541 0.38935 0.62457 0.0
H555 H 0.83349 0.35927 0.66706 0.0
Tb556 Tb 0.75397 0.80963 0.78216 0.0
Tb557 Tb 0.79948 0.82942 0.7451 0.0
C558 C 0.71152 0.79366 0.79919 0.0
C559 C 0.70598 0.76927 0.80451 0.0
C560 C 0.67571 0.76851 0.79974 0.0
C561 C 0.66883 0.74657 0.80742 0.0
C562 C 0.69212 0.72494 0.82014 0.0
C563 C 0.7228 0.72537 0.82379 0.0
C564 C 0.72968 0.74739 0.81604 0.0
C565 C 0.80917 0.80361 0.80916 0.0
C566 C 0.79548 0.77361 0.72987 0.0
C567 C 0.84637 0.84113 0.7318 0.0
C568 C 0.85355 0.86441 0.72385 0.0
C569 C 0.88325 0.8656 0.73145 0.0
C570 C 0.89123 0.88692 0.72312 0.0
C571 C 0.86965 0.90754 0.70691 0.0
C572 C 0.83954 0.90659 0.70004 0.0
C573 C 0.83153 0.88526 0.70851 0.0
C574 C 0.74257 0.84356 0.71783 0.0
C575 C 0.75434 0.86522 0.79513 0.0
O576 O 0.71463 0.79907 0.77052 0.0
O577 O 0.73136 0.79933 0.81822 0.0
O578 O 0.80359 0.80191 0.78047 0.0
O579 O 0.78395 0.80643 0.82385 0.0
O580 O 0.77425 0.77691 0.75122 0.0
O581 O 0.80988 0.79048 0.72496 0.0
O582 O 0.83763 0.84035 0.76013 0.0
O583 O 0.82985 0.83273 0.7114 0.0
O584 O 0.75211 0.83203 0.74293 0.0
O585 O 0.76571 0.84986 0.70837 0.0
O586 O 0.78118 0.85916 0.78082 0.0
O587 O 0.7364 0.85068 0.79326 0.0
H588 H 0.65717 0.78515 0.79068 0.0
H589 H 0.64513 0.74667 0.80368 0.0
H590 H 0.74123 0.70907 0.83361 0.0
H591 H 0.75328 0.74756 0.81979 0.0
H592 H 0.90052 0.84976 0.74341 0.0
H593 H 0.9147 0.88683 0.7285 0.0
H594 H 0.82222 0.92228 0.68796 0.0
H595 H 0.80831 0.8849 0.70276 0.0
H596 H 0.12517 0.12088 0.35637 0.0
H597 H 0.09518 0.14567 0.44985 0.0
H598 H 0.12382 0.17652 0.44976 0.0
H599 H 0.20181 0.12726 0.36334 0.0
H600 H 0.19946 0.13948 0.32475 0.0
H601 H 0.17918 0.11758 0.33343 0.0
H602 H 0.12709 0.15078 0.31318 0.0
H603 H 0.1472 0.17272 0.30437 0.0
H604 H 0.11415 0.18319 0.32926 0.0
H605 H 0.15308 0.20685 0.43799 0.0
H606 H 0.17834 0.23505 0.41485 0.0
H607 H 0.18771 0.19077 0.32882 0.0
C608 C 0.12442 0.13267 0.37695 0.0
C609 C 0.10768 0.13064 0.40313 0.0
C610 C 0.10801 0.14645 0.42958 0.0
C611 C 0.1242 0.16415 0.42974 0.0
C612 C 0.13998 0.16584 0.4033 0.0
C613 C 0.14013 0.15053 0.37739 0.0
C614 C 0.15712 0.15711 0.35119 0.0
C615 C 0.18612 0.13398 0.34269 0.0
C616 C 0.13507 0.16651 0.32284 0.0
C617 C 0.16614 0.17884 0.36623 0.0
C618 C 0.15638 0.18343 0.3964 0.0
C619 C 0.1611 0.20325 0.41449 0.0
C620 C 0.17564 0.21907 0.40121 0.0
C621 C 0.18507 0.2151 0.37005 0.0
C622 C 0.18066 0.19439 0.35265 0.0
H623 H 0.9591 0.15885 0.37556 0.0
H624 H 0.97771 0.1257 0.28309 0.0
H625 H 0.93595 0.16421 0.26192 0.0
H626 H 0.87523 0.18812 0.3654 0.0
H627 H 0.87342 0.21623 0.38881 0.0
H628 H 0.90361 0.18569 0.3964 0.0
H629 H 0.94588 0.20697 0.3907 0.0
H630 H 0.91584 0.23756 0.38327 0.0
H631 H 0.94631 0.2241 0.35586 0.0
H632 H 0.88957 0.20671 0.25156 0.0
H633 H 0.84913 0.25046 0.2523 0.0
H634 H 0.8648 0.25655 0.35117 0.0
C635 C 0.95446 0.15952 0.3508 0.0
C636 C 0.97173 0.139 0.33101 0.0
C637 C 0.9649 0.14104 0.29876 0.0
C638 C 0.94108 0.16284 0.28658 0.0
C639 C 0.92439 0.18259 0.30689 0.0
C640 C 0.93116 0.18116 0.33833 0.0
C641 C 0.91088 0.20521 0.35533 0.0
C642 C 0.88953 0.1984 0.37781 0.0
C643 C 0.93093 0.21929 0.37227 0.0
C644 C 0.89203 0.22084 0.32855 0.0
C645 C 0.89946 0.20725 0.30083 0.0
C646 C 0.88394 0.2175 0.27315 0.0
C647 C 0.86087 0.24232 0.27378 0.0
C648 C 0.85402 0.25695 0.30173 0.0
C649 C 0.86975 0.2459 0.32942 0.0
H650 H 0.96216 1.00366 0.4031 0.0
H651 H 0.98684 0.01593 0.31023 0.0
H652 H 0.95961 0.98719 0.28905 0.0
H653 H 0.97438 0.9376 0.39419 0.0
H654 H 0.9417 0.93765 0.41654 0.0
H655 H 0.96004 0.96154 0.42447 0.0
H656 H 0.90676 0.99811 0.41647 0.0
H657 H 0.88819 0.97428 0.40859 0.0
H658 H 0.88452 0.99909 0.38087 0.0
H659 H 0.93386 0.95452 0.27801 0.0
H660 H 0.91001 0.9204 0.27785 0.0
H661 H 0.90303 0.92805 0.37783 0.0
C662 C 0.96146 1.00052 0.3783 0.0
C663 C 0.97638 0.01231 0.35836 0.0
C664 C 0.97502 1.00768 0.32599 0.0
C665 C 0.95974 0.99122 0.31369 0.0
C666 C 0.94568 0.97965 0.33398 0.0
C667 C 0.94613 0.9842 0.36557 0.0
C668 C 0.93034 0.96834 0.38229 0.0
C669 C 0.95298 0.95021 0.40574 0.0
C670 C 0.90069 0.98601 0.39798 0.0
C671 C 0.92226 0.95338 0.35525 0.0
C672 C 0.93091 0.9605 0.32758 0.0
C673 C 0.92677 0.94886 0.2995 0.0
C674 C 0.91349 0.92932 0.29969 0.0
C675 C 0.90474 0.92143 0.32781 0.0
C676 C 0.90903 0.93385 0.35588 0.0
H677 H 0.1058 0.9822 0.27996 0.0
H678 H 0.13735 0.01748 0.35958 0.0
H679 H 0.18633 0.9801 0.36228 0.0
H680 H 0.13564 0.9176 0.30274 0.0
H681 H 0.14871 0.90386 0.26522 0.0
H682 H 0.11686 0.93406 0.26809 0.0
H683 H 0.14643 0.95599 0.23459 0.0
H684 H 0.17839 0.92578 0.23156 0.0
H685 H 0.18549 0.95438 0.24617 0.0
H686 H 0.22889 0.93662 0.36052 0.0
H687 H 0.2644 0.8919 0.35143 0.0
H688 H 0.20911 0.88532 0.26992 0.0
C689 C 0.12332 0.98226 0.29757 0.0
C690 C 0.11765 1.003 0.31948 0.0
C691 C 0.14116 1.00216 0.34226 0.0
C692 C 0.16908 0.98088 0.34407 0.0
C693 C 0.17378 0.96066 0.32244 0.0
C694 C 0.15189 0.96139 0.29916 0.0
C695 C 0.16298 0.93699 0.27887 0.0
C696 C 0.13966 0.92226 0.27874 0.0
C697 C 0.16865 0.94369 0.24584 0.0
C698 C 0.19369 0.9219 0.29532 0.0
C699 C 0.19942 0.93605 0.32037 0.0
C700 C 0.22499 0.92565 0.34056 0.0
C701 C 0.24507 0.9002 0.33522 0.0
C702 C 0.24 0.88529 0.30966 0.0
C703 C 0.21412 0.89649 0.28916 0.0
H704 H 0.08617 0.97609 0.73383 0.0
H705 H 0.14919 0.01345 0.70228 0.0
H706 H 0.19446 0.97523 0.71704 0.0
H707 H 0.13683 0.94034 0.79939 0.0
H708 H 0.12606 0.91195 0.79232 0.0
H709 H 0.09871 0.94348 0.78308 0.0
H710 H 0.09363 0.92779 0.72674 0.0
H711 H 0.12113 0.89634 0.73572 0.0
H712 H 0.12825 0.9143 0.70432 0.0
H713 H 0.23297 0.93189 0.73183 0.0
H714 H 0.2618 0.88628 0.74471 0.0
H715 H 0.17449 0.87547 0.76502 0.0
C716 C 0.10956 0.97651 0.7312 0.0
C717 C 0.11427 0.99811 0.71792 0.0
C718 C 0.14516 0.99742 0.71324 0.0
C719 C 0.17101 0.97573 0.72143 0.0
C720 C 0.16572 0.95455 0.734 0.0
C721 C 0.13579 0.95471 0.73893 0.0
C722 C 0.1367 0.92856 0.75053 0.0
C723 C 0.1238 0.93125 0.78328 0.0
C724 C 0.11887 0.91601 0.72798 0.0
C725 C 0.17166 0.91365 0.75085 0.0
C726 C 0.18796 0.92915 0.74157 0.0
C727 C 0.22044 0.91967 0.73943 0.0
C728 C 0.23667 0.89372 0.74691 0.0
C729 C 0.22052 0.87733 0.75618 0.0
C730 C 0.18754 0.88756 0.7582 0.0
H731 H 0.10834 0.12014 0.71331 0.0
H732 H 0.12758 0.10854 0.61535 0.0
H733 H 0.1617 0.13498 0.62059 0.0
H734 H 0.10352 0.18443 0.71921 0.0
H735 H 0.12296 0.18219 0.75665 0.0
H736 H 0.10246 0.16025 0.74605 0.0
H737 H 0.15269 0.12119 0.75706 0.0
H738 H 0.17336 0.14305 0.76788 0.0
H739 H 0.18818 0.11879 0.73808 0.0
H740 H 0.19036 0.16546 0.63535 0.0
H741 H 0.21117 0.198 0.65853 0.0
H742 H 0.17472 0.18919 0.74732 0.0
C743 C 0.12023 0.12261 0.69307 0.0
C744 C 0.11498 0.11224 0.66383 0.0
C745 C 0.13072 0.11649 0.6379 0.0
C746 C 0.15042 0.13134 0.64069 0.0
C747 C 0.15454 0.14167 0.66965 0.0
C748 C 0.14011 0.13734 0.69546 0.0
C749 C 0.14736 0.15169 0.72361 0.0
C750 C 0.11728 0.17077 0.73716 0.0
C751 C 0.16654 0.13254 0.74811 0.0
C752 C 0.16687 0.16572 0.70924 0.0
C753 C 0.17122 0.15926 0.67822 0.0
C754 C 0.18749 0.17039 0.65973 0.0
C755 C 0.19938 0.1888 0.67317 0.0
C756 C 0.19478 0.19614 0.70481 0.0
C757 C 0.17856 0.18412 0.72306 0.0
H758 H 0.97874 0.16407 0.69125 0.0
H759 H 0.94615 0.11227 0.74292 0.0
H760 H 0.90106 0.14975 0.76038 0.0
H761 H 0.95975 0.21598 0.74787 0.0
H762 H 0.94861 0.24097 0.71929 0.0
H763 H 0.97718 0.20995 0.71039 0.0
H764 H 0.94377 0.20548 0.66221 0.0
H765 H 0.91489 0.23636 0.67118 0.0
H766 H 0.90363 0.20799 0.66674 0.0
H767 H 0.8574 0.1937 0.7696 0.0
H768 H 0.82466 0.23974 0.77659 0.0
H769 H 0.88891 0.26265 0.72266 0.0
C770 C 0.96224 0.16061 0.70645 0.0
C771 C 0.96601 0.1352 0.71581 0.0
C772 C 0.94395 0.13155 0.73576 0.0
C773 C 0.9181 0.15273 0.74551 0.0
C774 C 0.9149 0.17752 0.7355 0.0
C775 C 0.93679 0.18153 0.71686 0.0
C776 C 0.92898 0.21007 0.71035 0.0
C777 C 0.95519 0.21981 0.72273 0.0
C778 C 0.92243 0.21527 0.67556 0.0
C779 C 0.89945 0.22167 0.72859 0.0
C780 C 0.89117 0.20259 0.74228 0.0
C781 C 0.864 0.20873 0.75928 0.0
C782 C 0.84538 0.23497 0.76304 0.0
C783 C 0.85431 0.25484 0.75052 0.0
C784 C 0.88161 0.24793 0.73286 0.0
H785 H 0.97037 1.00185 0.70876 0.0
H786 H 0.94075 0.01814 0.61288 0.0
H787 H 0.90536 0.9928 0.61659 0.0
H788 H 0.9736 0.93744 0.70672 0.0
H789 H 0.95934 0.93762 0.74511 0.0
H790 H 0.97952 0.95944 0.73605 0.0
H791 H 0.93227 0.99839 0.75394 0.0
H792 H 0.91194 0.97665 0.76319 0.0
H793 H 0.894 1.00291 0.7371 0.0
H794 H 0.87594 0.96335 0.62968 0.0
H795 H 0.85638 0.93051 0.65029 0.0
H796 H 0.90539 0.93288 0.73776 0.0
C797 C 0.95588 1.00059 0.68879 0.0
C798 C 0.95817 0.0121 0.66055 0.0
C799 C 0.93944 0.0094 0.63467 0.0
C800 C 0.91914 0.99519 0.63664 0.0
C801 C 0.91782 0.98373 0.66466 0.0
C802 C 0.93568 0.98627 0.6903 0.0
C803 C 0.93157 0.97048 0.71698 0.0
C804 C 0.96287 0.95003 0.72677 0.0
C805 C 0.91655 0.98817 0.74443 0.0
C806 C 0.90935 0.95806 0.70204 0.0
C807 C 0.90128 0.96633 0.67205 0.0
C808 C 0.88183 0.95695 0.65325 0.0
C809 C 0.87069 0.93836 0.66524 0.0
C810 C 0.87921 0.9291 0.69569 0.0
C811 C 0.89852 0.93944 0.71436 0.0
H812 H 0.26649 0.17778 0.14145 0.0
H813 H 0.24685 0.23454 0.06934 0.0
H814 H 0.26961 0.26153 0.10264 0.0
H815 H 0.24453 0.2244 0.20393 0.0
H816 H 0.27383 0.20493 0.23068 0.0
H817 H 0.25825 0.18961 0.20008 0.0
H818 H 0.31457 0.16567 0.18173 0.0
H819 H 0.33023 0.18154 0.21183 0.0
H820 H 0.33883 0.18415 0.17196 0.0
H821 H 0.2959 0.28115 0.14271 0.0
H822 H 0.31172 0.29825 0.19133 0.0
H823 H 0.30914 0.23106 0.2398 0.0
C824 C 0.26702 0.19596 0.13296 0.0
C825 C 0.25522 0.20432 0.10309 0.0
C826 C 0.25578 0.22817 0.09237 0.0
C827 C 0.26896 0.24333 0.11091 0.0
C828 C 0.28107 0.23434 0.14012 0.0
C829 C 0.27938 0.21161 0.15148 0.0
C830 C 0.29128 0.20766 0.18478 0.0
C831 C 0.26542 0.20661 0.20612 0.0
C832 C 0.32046 0.1833 0.18774 0.0
C833 C 0.29946 0.23194 0.19052 0.0
C834 C 0.29445 0.24654 0.16407 0.0
C835 C 0.30004 0.26988 0.16354 0.0
C836 C 0.30949 0.27923 0.1912 0.0
C837 C 0.31221 0.26567 0.21911 0.0
C838 C 0.30795 0.24142 0.21859 0.0
H839 H 0.94799 0.37444 0.14568 0.0
H840 H 0.94838 0.31856 0.07233 0.0
H841 H 0.91216 0.30417 0.1012 0.0
H842 H 0.94363 0.33524 0.20962 0.0
H843 H 0.91707 0.36142 0.23146 0.0
H844 H 0.94346 0.36783 0.2054 0.0
H845 H 0.89682 0.40123 0.17688 0.0
H846 H 0.87029 0.395 0.20295 0.0
H847 H 0.86491 0.39159 0.16174 0.0
H848 H 0.8771 0.29456 0.13756 0.0
H849 H 0.84266 0.29165 0.17842 0.0
H850 H 0.86131 0.35453 0.22919 0.0
C851 C 0.94034 0.35931 0.13552 0.0
C852 C 0.95184 0.34746 0.10659 0.0
C853 C 0.94093 0.32767 0.09453 0.0
C854 C 0.92002 0.3194 0.11074 0.0
C855 C 0.90963 0.33113 0.13914 0.0
C856 C 0.91908 0.35082 0.15144 0.0
C857 C 0.9037 0.36015 0.18243 0.0
C858 C 0.92845 0.3559 0.20879 0.0
C859 C 0.88268 0.38869 0.1809 0.0
C860 C 0.88436 0.34248 0.18553 0.0
C861 C 0.8884 0.32591 0.16018 0.0
C862 C 0.87363 0.30752 0.15745 0.0
C863 C 0.85403 0.30602 0.18102 0.0
C864 C 0.84893 0.32285 0.20732 0.0
C865 C 0.86449 0.34138 0.20949 0.0
H866 H 0.81785 0.90636 0.07479 0.0
H867 H 0.8552 0.95696 0.12935 0.0
H868 H 0.83468 0.94515 0.17682 0.0
H869 H 0.74785 0.9169 0.11786 0.0
H870 H 0.74952 0.88367 0.11549 0.0
H871 H 0.76564 0.8968 0.08527 0.0
H872 H 0.82016 0.86077 0.09302 0.0
H873 H 0.80264 0.8471 0.1214 0.0
H874 H 0.83714 0.85483 0.13161 0.0
H875 H 0.80908 0.92937 0.21721 0.0
H876 H 0.79273 0.90171 0.25148 0.0
H877 H 0.7753 0.85817 0.1719 0.0
C878 C 0.82188 0.91459 0.09691 0.0
C879 C 0.83804 0.93244 0.09885 0.0
C880 C 0.84311 0.94304 0.12783 0.0
C881 C 0.83117 0.93674 0.15466 0.0
C882 C 0.81455 0.91961 0.15194 0.0
C883 C 0.81076 0.90799 0.12405 0.0
C884 C 0.79419 0.88859 0.12812 0.0
C885 C 0.76242 0.897 0.11064 0.0
C886 C 0.81478 0.86122 0.11794 0.0
C887 C 0.79004 0.89065 0.16284 0.0
C888 C 0.80093 0.90942 0.17578 0.0
C889 C 0.80055 0.9146 0.20742 0.0
C890 C 0.79093 0.89894 0.22666 0.0
C891 C 0.78269 0.87793 0.21426 0.0
C892 C 0.78071 0.87451 0.18187 0.0
H893 H 0.17045 0.7683 0.08808 0.0
H894 H 0.08352 0.79581 0.1366 0.0
H895 H 0.10978 0.8113 0.18025 0.0
H896 H 0.22002 0.74559 0.15665 0.0
H897 H 0.25178 0.75478 0.14338 0.0
H898 H 0.22607 0.74631 0.11577 0.0
H899 H 0.21403 0.79041 0.08925 0.0
H900 H 0.23958 0.79906 0.11688 0.0
H901 H 0.19952 0.81988 0.11192 0.0
H902 H 0.14553 0.82231 0.21918 0.0
H903 H 0.18861 0.82835 0.25137 0.0
H904 H 0.25315 0.795 0.17788 0.0
C905 C 0.15717 0.77759 0.108 0.0
C906 C 0.12504 0.78087 0.1093 0.0
C907 C 0.10817 0.79307 0.13553 0.0
C908 C 0.12288 0.80195 0.16026 0.0
C909 C 0.15461 0.79842 0.15847 0.0
C910 C 0.17166 0.78647 0.1331 0.0
C911 C 0.20569 0.78459 0.1376 0.0
C912 C 0.22716 0.75613 0.1384 0.0
C913 C 0.21526 0.79938 0.11241 0.0
C914 C 0.20496 0.79767 0.1692 0.0
C915 C 0.17524 0.80529 0.18084 0.0
C916 C 0.16882 0.8166 0.21021 0.0
C917 C 0.19342 0.81994 0.22834 0.0
C918 C 0.22404 0.81242 0.21699 0.0
C919 C 0.2298 0.8014 0.18685 0.0
H920 H 0.25396 0.04965 0.98485 0.0
H921 H 0.17734 0.09129 0.92295 0.0
H922 H 0.17105 0.04971 0.90643 0.0
H923 H 0.2883 0.99969 0.93587 0.0
H924 H 0.30066 0.97524 0.96509 0.0
H925 H 0.2952 1.00831 0.97536 0.0
H926 H 0.25679 1.00686 0.01729 0.0
H927 H 0.26149 0.97383 1.0067 0.0
H928 H 0.22305 0.99801 1.00668 0.0
H929 H 0.17734 1.00415 0.89256 0.0
H930 H 0.20019 0.95857 0.87648 0.0
H931 H 0.27186 0.94668 0.94899 0.0
C932 C 0.23499 0.0503 0.96872 0.0
C933 C 0.21552 0.07381 0.95571 0.0
C934 C 0.19223 0.07349 0.93334 0.0
C935 C 0.18829 0.05005 0.92419 0.0
C936 C 0.20774 0.02727 0.93781 0.0
C937 C 0.2308 0.02724 0.95947 0.0
C938 C 0.25147 1.0001 0.96756 0.0
C939 C 0.28591 0.99559 0.96051 0.0
C940 C 0.24796 0.99437 1.00157 0.0
C941 C 0.23745 0.98474 0.94578 0.0
C942 C 0.21167 1.00073 0.92952 0.0
C943 C 0.19701 0.99135 0.90557 0.0
C944 C 0.21007 0.96532 0.89674 0.0
C945 C 0.23778 0.94912 0.91157 0.0
C946 C 0.25054 0.95865 0.93745 0.0
H947 H 0.13802 0.32425 0.95294 0.0
H948 H 0.0853 0.40157 0.92156 0.0
H949 H 0.12408 0.39722 0.88151 0.0
H950 H 0.21399 0.32547 0.94396 0.0
H951 H 0.22962 0.29272 0.92935 0.0
H952 H 0.19694 0.30176 0.95449 0.0
H953 H 0.16615 0.28469 0.91367 0.0
H954 H 0.19678 0.27693 0.88606 0.0
H955 H 0.15857 0.29848 0.87565 0.0
H956 H 0.16975 0.38392 0.84372 0.0
H957 H 0.21936 0.36461 0.81596 0.0
H958 H 0.24344 0.29723 0.87375 0.0
C959 C 0.13433 0.34028 0.93762 0.0
C960 C 0.10825 0.36335 0.94091 0.0
C961 C 0.10498 0.38377 0.92014 0.0
C962 C 0.12691 0.38142 0.897 0.0
C963 C 0.1523 0.35847 0.89455 0.0
C964 C 0.1561 0.33832 0.91445 0.0
C965 C 0.18537 0.3157 0.90706 0.0
C966 C 0.2078 0.3085 0.93541 0.0
C967 C 0.17623 0.29257 0.89496 0.0
C968 C 0.19876 0.32684 0.88141 0.0
C969 C 0.17872 0.35119 0.87366 0.0
C970 C 0.18559 0.36492 0.84982 0.0
C971 C 0.21382 0.35376 0.83404 0.0
C972 C 0.23546 0.32942 0.84264 0.0
C973 C 0.22754 0.31585 0.8666 0.0
H974 H 0.86556 0.06527 0.91452 0.0
H975 H 0.808 0.07477 0.99468 0.0
H976 H 0.79447 0.12192 0.99266 0.0
H977 H 0.89499 0.11863 0.93224 0.0
H978 H 0.89209 0.12858 0.89255 0.0
H979 H 0.89938 0.09511 0.90125 0.0
H980 H 0.85078 0.0954 0.86766 0.0
H981 H 0.84384 0.12862 0.85838 0.0
H982 H 0.81345 0.11964 0.87526 0.0
H983 H 0.78671 0.16794 0.98221 0.0
H984 H 0.77807 0.21009 0.95796 0.0
H985 H 0.83965 0.17104 0.88414 0.0
C986 C 0.85078 0.07737 0.93201 0.0
C987 C 0.83891 0.06638 0.95546 0.0
C988 C 0.81857 0.08273 0.97738 0.0
C989 C 0.81071 0.10956 0.97645 0.0
C990 C 0.82369 0.11979 0.95377 0.0
C991 C 0.84289 0.1043 0.93162 0.0
C992 C 0.85116 0.12047 0.90796 0.0
C993 C 0.88651 0.11539 0.90855 0.0
C994 C 0.83908 0.11575 0.8754 0.0
C995 C 0.83342 0.14735 0.92016 0.0
C996 C 0.81807 0.14653 0.94684 0.0
C997 C 0.79873 0.16889 0.96138 0.0
C998 C 0.79398 0.19269 0.94749 0.0
C999 C 0.80832 0.1938 0.91928 0.0
C1000 C 0.82902 0.17088 0.9061 0.0
H1001 H 0.95865 0.7475 0.92338 0.0
H1002 H 0.96654 0.82411 0.92321 0.0
H1003 H 0.92332 0.8379 0.88493 0.0
H1004 H 0.93994 0.74547 0.83955 0.0
H1005 H 0.913 0.72837 0.84461 0.0
H1006 H 0.94565 0.72375 0.87142 0.0
H1007 H 0.90784 0.73659 0.91706 0.0
H1008 H 0.87513 0.7412 0.89043 0.0
H1009 H 0.87622 0.76714 0.91642 0.0
H1010 H 0.87647 0.84498 0.84971 0.0
H1011 H 0.83021 0.84406 0.81888 0.0
H1012 H 0.85332 0.76269 0.83789 0.0
C1013 C 0.95167 0.76707 0.91507 0.0
C1014 C 0.96618 0.7847 0.92705 0.0
C1015 C 0.95577 0.81021 0.91534 0.0
C1016 C 0.93124 0.81826 0.8932 0.0
C1017 C 0.91728 0.80061 0.88232 0.0
C1018 C 0.92721 0.77546 0.8926 0.0
C1019 C 0.90755 0.76062 0.87738 0.0
C1020 C 0.92775 0.73822 0.85703 0.0
C1021 C 0.89068 0.75082 0.90178 0.0
C1022 C 0.88456 0.78158 0.85769 0.0
C1023 C 0.89084 0.80444 0.86078 0.0
C1024 C 0.8719 0.82698 0.84639 0.0
C1025 C 0.84581 0.82624 0.82853 0.0
C1026 C 0.83907 0.80304 0.82456 0.0
C1027 C 0.85866 0.78045 0.83953 0.0
H1028 H 0.11191 0.30292 0.14473 0.0
H1029 H 0.12933 0.34206 0.06539 0.0
H1030 H 0.1719 0.35127 0.09508 0.0
H1031 H 0.12693 0.34252 0.20479 0.0
H1032 H 0.14832 0.317 0.23068 0.0
H1033 H 0.11987 0.31214 0.20337 0.0
H1034 H 0.16179 0.27139 0.18108 0.0
H1035 H 0.19021 0.27601 0.20868 0.0
H1036 H 0.19783 0.27376 0.16791 0.0
H1037 H 0.20894 0.36036 0.13456 0.0
H1038 H 0.24362 0.36354 0.1778 0.0
H1039 H 0.20834 0.31534 0.23315 0.0
C1040 C 0.12513 0.31297 0.13337 0.0
C1041 C 0.11696 0.3216 0.1022 0.0
C1042 C 0.135 0.33482 0.08868 0.0
C1043 C 0.15922 0.34035 0.10562 0.0
C1044 C 0.16619 0.33206 0.1362 0.0
C1045 C 0.15036 0.31795 0.14979 0.0
C1046 C 0.16371 0.31071 0.18285 0.0
C1047 C 0.13817 0.32122 0.20684 0.0
C1048 C 0.1793 0.28122 0.18527 0.0
C1049 C 0.18827 0.32414 0.18628 0.0
C1050 C 0.18905 0.33624 0.15882 0.0
C1051 C 0.20875 0.35059 0.15588 0.0
C1052 C 0.22849 0.35233 0.181 0.0
C1053 C 0.22937 0.33973 0.2095 0.0
C1054 C 0.2086 0.32535 0.21205 0.0
H1055 H 0.10524 0.78292 0.91499 0.0
H1056 H 0.10745 0.84098 0.98416 0.0
H1057 H 0.14842 0.85011 0.95484 0.0
H1058 H 0.18607 0.75755 0.90055 0.0
H1059 H 0.18154 0.7532 0.85939 0.0
H1060 H 0.15148 0.75223 0.88477 0.0
H1061 H 0.11049 0.78846 0.85386 0.0
H1062 H 0.14036 0.78937 0.82814 0.0
H1063 H 0.11718 0.81847 0.84795 0.0
H1064 H 0.19239 0.85078 0.91866 0.0
H1065 H 0.23128 0.84563 0.87864 0.0
H1066 H 0.2001 0.78759 0.83151 0.0
C1067 C 0.11397 0.79786 0.92389 0.0
C1068 C 0.10265 0.81132 0.95217 0.0
C1069 C 0.11509 0.83061 0.96262 0.0
C1070 C 0.13866 0.83576 0.94609 0.0
C1071 C 0.14959 0.82177 0.91869 0.0
C1072 C 0.1372 0.80346 0.90744 0.0
C1073 C 0.15278 0.79113 0.87738 0.0
C1074 C 0.16893 0.76179 0.88074 0.0
C1075 C 0.12877 0.79722 0.85022 0.0
C1076 C 0.17664 0.80474 0.87376 0.0
C1077 C 0.17429 0.82242 0.89782 0.0
C1078 C 0.19405 0.83711 0.89973 0.0
C1079 C 0.21632 0.83396 0.87666 0.0
C1080 C 0.21928 0.81619 0.85139 0.0
C1081 C 0.19889 0.80134 0.85026 0.0
H1082 H 0.27475 0.20937 0.96808 0.0
H1083 H 0.34331 0.13316 0.95349 0.0
H1084 H 0.36345 0.14999 0.90898 0.0
H1085 H 0.25435 0.21946 0.8926 0.0
H1086 H 0.24786 0.25358 0.89256 0.0
H1087 H 0.24227 0.23872 0.92737 0.0
H1088 H 0.2812 0.25474 0.95852 0.0
H1089 H 0.28661 0.27153 0.92517 0.0
H1090 H 0.31989 0.24868 0.94445 0.0
H1091 H 0.37215 0.17623 0.86191 0.0
H1092 H 0.36699 0.20734 0.8193 0.0
H1093 H 0.28934 0.26317 0.8652 0.0
C1094 C 0.29453 0.19615 0.95616 0.0
C1095 C 0.30748 0.16993 0.96436 0.0
C1096 C 0.33316 0.15342 0.94778 0.0
C1097 C 0.34466 0.16283 0.92243 0.0
C1098 C 0.33017 0.18871 0.91414 0.0
C1099 C 0.30572 0.20501 0.93088 0.0
C1100 C 0.29132 0.23099 0.91606 0.0
C1101 C 0.25688 0.23594 0.90666 0.0
C1102 C 0.29498 0.25277 0.93733 0.0
C1103 C 0.31113 0.22706 0.88805 0.0
C1104 C 0.33385 0.2028 0.88719 0.0
C1105 C 0.35438 0.19522 0.86258 0.0
C1106 C 0.35128 0.21286 0.83847 0.0
C1107 C 0.32738 0.23735 0.83904 0.0
C1108 C 0.30744 0.2444 0.86419 0.0
H1109 H 0.95716 0.36068 0.93866 0.0
H1110 H 0.99576 0.28216 0.97177 0.0
H1111 H 0.95933 0.26953 0.93558 0.0
H1112 H 0.87734 0.36335 0.92991 0.0
H1113 H 0.86952 0.38258 0.89553 0.0
H1114 H 0.89867 0.38498 0.92364 0.0
H1115 H 0.93988 0.37387 0.8811 0.0
H1116 H 0.91086 0.37149 0.85283 0.0
H1117 H 0.94673 0.34467 0.85812 0.0
H1118 H 0.91475 0.26654 0.89601 0.0
H1119 H 0.87203 0.27242 0.85669 0.0
H1120 H 0.86458 0.3526 0.84748 0.0
C1121 C 0.95828 0.34069 0.9384 0.0
C1122 C 0.97984 0.32246 0.95859 0.0
C1123 C 0.97995 0.2966 0.95685 0.0
C1124 C 0.95907 0.2893 0.93627 0.0
C1125 C 0.93801 0.30791 0.91705 0.0
C1126 C 0.93783 0.33308 0.91786 0.0
C1127 C 0.91325 0.34961 0.89493 0.0
C1128 C 0.88822 0.37142 0.91202 0.0
C1129 C 0.9286 0.36055 0.87028 0.0
C1130 C 0.89948 0.32995 0.88071 0.0
C1131 C 0.91375 0.30604 0.89404 0.0
C1132 C 0.90387 0.2852 0.88547 0.0
C1133 C 0.8793 0.28878 0.86298 0.0
C1134 C 0.86459 0.31294 0.84838 0.0
C1135 C 0.87524 0.33373 0.85762 0.0
H1136 H 0.80117 0.9114 0.95687 0.0
H1137 H 0.74578 0.99011 0.93308 0.0
H1138 H 0.72396 0.97369 0.88689 0.0
H1139 H 0.82412 0.88997 0.88406 0.0
H1140 H 0.82261 0.85791 0.88857 0.0
H1141 H 0.82913 0.87584 0.92187 0.0
H1142 H 0.78131 0.87003 0.94766 0.0
H1143 H 0.77489 0.85215 0.91401 0.0
H1144 H 0.74383 0.88021 0.92754 0.0
H1145 H 0.7155 0.9486 0.83854 0.0
H1146 H 0.71892 0.91706 0.79509 0.0
H1147 H 0.77952 0.85565 0.85204 0.0
C1148 C 0.78375 0.92517 0.94244 0.0
C1149 C 0.77513 0.95198 0.94847 0.0
C1150 C 0.75245 0.96943 0.92899 0.0
C1151 C 0.74004 0.96027 0.90268 0.0
C1152 C 0.75022 0.93366 0.89659 0.0
C1153 C 0.77119 0.91637 0.91635 0.0
C1154 C 0.78068 0.88899 0.90367 0.0
C1155 C 0.81623 0.87755 0.89927 0.0
C1156 C 0.76949 0.87184 0.92445 0.0
C1157 C 0.7629 0.8936 0.87301 0.0
C1158 C 0.74512 0.91938 0.86929 0.0
C1159 C 0.72878 0.92831 0.84152 0.0
C1160 C 0.73086 0.91041 0.81699 0.0
C1161 C 0.74921 0.88414 0.82068 0.0
C1162 C 0.765 0.87568 0.84903 0.0
H1163 H 0.97085 0.84377 0.12928 0.0
H1164 H 0.97356 0.78195 0.0636 0.0
H1165 H 0.93616 0.77028 0.09475 0.0
H1166 H 0.96209 0.81338 0.19913 0.0
H1167 H 0.93354 0.84138 0.21621 0.0
H1168 H 0.96089 0.84539 0.1894 0.0
H1169 H 0.91526 0.87424 0.15618 0.0
H1170 H 0.88694 0.86999 0.18166 0.0
H1171 H 0.88562 0.86195 0.14105 0.0
H1172 H 0.90314 0.76202 0.13485 0.0
H1173 H 0.86671 0.7627 0.17519 0.0
H1174 H 0.87668 0.83319 0.2146 0.0
C1175 C 0.96307 0.82808 0.1212 0.0
C1176 C 0.97531 0.81387 0.0935 0.0
C1177 C 0.96447 0.79343 0.08412 0.0
C1178 C 0.94336 0.78647 0.10197 0.0
C1179 C 0.93218 0.80047 0.12913 0.0
C1180 C 0.94073 0.82142 0.13833 0.0
C1181 C 0.92323 0.8339 0.16776 0.0
C1182 C 0.94633 0.83349 0.19472 0.0
C1183 C 0.90146 0.86166 0.16131 0.0
C1184 C 0.90439 0.81613 0.17409 0.0
C1185 C 0.91063 0.79684 0.15149 0.0
C1186 C 0.89766 0.77733 0.15224 0.0
C1187 C 0.87691 0.77789 0.17565 0.0
C1188 C 0.86823 0.79794 0.19855 0.0
C1189 C 0.88276 0.81731 0.19794 0.0
H1190 H 0.30894 0.05707 0.09617 0.0
H1191 H 0.21635 0.07611 0.05347 0.0
H1192 H 0.2127 0.03506 0.07097 0.0
H1193 H 0.33482 0.98659 0.08349 0.0
H1194 H 0.35378 0.97977 0.12116 0.0
H1195 H 0.35092 0.00925 0.1021 0.0
H1196 H 0.32382 0.03589 0.14992 0.0
H1197 H 0.32647 1.00651 0.16902 0.0
H1198 H 0.28906 0.03157 0.16375 0.0
H1199 H 0.21692 0.99375 0.09656 0.0
H1200 H 0.22979 0.95437 0.12824 0.0
H1201 H 0.31843 0.96276 0.15599 0.0
C1202 C 0.28829 0.05222 0.09002 0.0
C1203 C 0.26317 0.06948 0.0731 0.0
C1204 C 0.23602 0.06298 0.0662 0.0
C1205 C 0.23367 0.03972 0.07604 0.0
C1206 C 0.25846 0.02329 0.09328 0.0
C1207 C 0.28523 0.02922 0.10034 0.0
C1208 C 0.30719 0.00922 0.12154 0.0
C1209 C 0.33853 0.99539 0.10613 0.0
C1210 C 0.31191 0.02154 0.15291 0.0
C1211 C 0.28872 0.99118 0.12496 0.0
C1212 C 0.26064 0.99963 0.10851 0.0
C1213 C 0.23898 0.98678 0.10936 0.0
C1214 C 0.24633 0.96459 0.1275 0.0
C1215 C 0.27512 0.95553 0.14427 0.0
C1216 C 0.29647 0.96906 0.14291 0.0
H1217 H 0.8429 0.06728 0.05047 0.0
H1218 H 0.76114 0.05564 0.0865 0.0
H1219 H 0.74887 0.09717 0.1159 0.0
H1220 H 0.86666 0.09416 0.11642 0.0
H1221 H 0.87784 0.11809 0.09688 0.0
H1222 H 0.87915 0.08855 0.07695 0.0
H1223 H 0.84315 0.11476 0.0332 0.0
H1224 H 0.84194 0.1444 0.0528 0.0
H1225 H 0.80606 0.13877 0.04262 0.0
H1226 H 0.74849 0.13721 0.1447 0.0
H1227 H 0.75636 0.17644 0.16733 0.0
H1228 H 0.83692 0.16358 0.11058 0.0
C1229 C 0.82215 0.07377 0.06421 0.0
C1230 C 0.80285 0.05848 0.06649 0.0
C1231 C 0.77591 0.06734 0.08446 0.0
C1232 C 0.7689 0.09077 0.10122 0.0
C1233 C 0.78872 0.10521 0.09898 0.0
C1234 C 0.8144 0.09739 0.08036 0.0
C1235 C 0.83195 0.1165 0.08218 0.0
C1236 C 0.86591 0.10354 0.09382 0.0
C1237 C 0.83067 0.12935 0.05081 0.0
C1238 C 0.81285 0.13574 0.10573 0.0
C1239 C 0.78799 0.12883 0.11499 0.0
C1240 C 0.76753 0.14303 0.13728 0.0
C1241 C 0.77223 0.16513 0.15005 0.0
C1242 C 0.7971 0.17278 0.14048 0.0
C1243 C 0.81773 0.15797 0.1181 0.0
H1244 H 0.58129 0.65721 0.89095 0.0
H1245 H 0.64792 0.583 0.86399 0.0
H1246 H 0.68351 0.60505 0.84636 0.0
H1247 H 0.59073 0.69109 0.82728 0.0
H1248 H 0.58638 0.7208 0.84842 0.0
H1249 H 0.56789 0.69897 0.86167 0.0
H1250 H 0.59598 0.69684 0.91531 0.0
H1251 H 0.61432 0.71892 0.90233 0.0
H1252 H 0.63792 0.68799 0.91755 0.0
H1253 H 0.71027 0.63607 0.82891 0.0
H1254 H 0.72526 0.67299 0.81263 0.0
H1255 H 0.64039 0.72629 0.85135 0.0
C1256 C 0.60372 0.64547 0.88216 0.0
C1257 C 0.61202 0.61833 0.87917 0.0
C1258 C 0.64117 0.60381 0.8665 0.0
C1259 C 0.66152 0.61617 0.85654 0.0
C1260 C 0.6523 0.64305 0.85936 0.0
C1261 C 0.62408 0.65747 0.87195 0.0
C1262 C 0.61855 0.68616 0.87067 0.0
C1263 C 0.58915 0.70006 0.85083 0.0
C1264 C 0.61659 0.69818 0.90342 0.0
C1265 C 0.64791 0.68573 0.85508 0.0
C1266 C 0.66727 0.66074 0.84891 0.0
C1267 C 0.69536 0.6557 0.83386 0.0
C1268 C 0.70374 0.67678 0.82477 0.0
C1269 C 0.68394 0.70254 0.83056 0.0
C1270 C 0.65585 0.70687 0.84618 0.0
H1271 H 0.4209 0.62542 0.79734 0.0
H1272 H 0.49815 0.63998 0.84684 0.0
H1273 H 0.46827 0.68662 0.84792 0.0
H1274 H 0.40125 0.68453 0.74944 0.0
H1275 H 0.3598 0.6906 0.74946 0.0
H1276 H 0.38674 0.6579 0.75166 0.0
H1277 H 0.36109 0.65157 0.80166 0.0
H1278 H 0.33399 0.68419 0.79929 0.0
H1279 H 0.35792 0.67384 0.83385 0.0
H1280 H 0.42983 0.73029 0.84801 0.0
H1281 H 0.38762 0.77122 0.84067 0.0
H1282 H 0.33391 0.73226 0.78638 0.0
C1283 C 0.43163 0.63856 0.80788 0.0
C1284 C 0.46214 0.62896 0.82176 0.0
C1285 C 0.47524 0.64676 0.83553 0.0
C1286 C 0.45826 0.67333 0.83653 0.0
C1287 C 0.42831 0.68213 0.82301 0.0
C1288 C 0.41524 0.66553 0.80824 0.0
C1289 C 0.38293 0.6808 0.79457 0.0
C1290 C 0.38272 0.67826 0.75914 0.0
C1291 C 0.35748 0.67207 0.80817 0.0
C1292 C 0.37956 0.70843 0.80491 0.0
C1293 C 0.4062 0.7083 0.82148 0.0
C1294 C 0.40912 0.73071 0.83458 0.0
C1295 C 0.38469 0.75402 0.8302 0.0
C1296 C 0.35725 0.75542 0.81249 0.0
C1297 C 0.35458 0.73208 0.7997 0.0
H1298 H 0.45593 0.51297 0.84682 0.0
H1299 H 0.48104 0.49897 0.94419 0.0
H1300 H 0.45749 0.46472 0.94321 0.0
H1301 H 0.38207 0.50148 0.8486 0.0
H1302 H 0.38648 0.48574 0.81106 0.0
H1303 H 0.40412 0.51007 0.81962 0.0
H1304 H 0.45816 0.47764 0.80484 0.0
H1305 H 0.4407 0.45324 0.79618 0.0
H1306 H 0.47305 0.44683 0.82369 0.0
H1307 H 0.43164 0.43189 0.93192 0.0
H1308 H 0.40721 0.40102 0.91031 0.0
H1309 H 0.40089 0.43449 0.81964 0.0
C1310 C 0.45659 0.50268 0.86793 0.0
C1311 C 0.47022 0.50892 0.89565 0.0
C1312 C 0.47027 0.49503 0.92281 0.0
C1313 C 0.45708 0.47539 0.92246 0.0
C1314 C 0.44388 0.46979 0.89478 0.0
C1315 C 0.44359 0.48294 0.86798 0.0
C1316 C 0.42843 0.47271 0.84117 0.0
C1317 C 0.3985 0.49375 0.82943 0.0
C1318 C 0.45147 0.46196 0.81493 0.0
C1319 C 0.42091 0.45134 0.85698 0.0
C1320 C 0.4296 0.45031 0.88803 0.0
C1321 C 0.4247 0.43251 0.90767 0.0
C1322 C 0.4107 0.41516 0.89524 0.0
C1323 C 0.40211 0.4155 0.86342 0.0
C1324 C 0.40732 0.43383 0.84405 0.0
H1325 H 0.63172 0.50021 0.7777 0.0
H1326 H 0.60107 0.49386 0.87011 0.0
H1327 H 0.64177 0.45108 0.87517 0.0
H1328 H 0.64624 0.43328 0.75626 0.0
H1329 H 0.67986 0.43025 0.7337 0.0
H1330 H 0.64952 0.46123 0.73783 0.0
H1331 H 0.69074 0.48097 0.75892 0.0
H1332 H 0.72103 0.44988 0.75511 0.0
H1333 H 0.71521 0.46673 0.79198 0.0
H1334 H 0.68477 0.40854 0.87042 0.0
H1335 H 0.72381 0.36711 0.8537 0.0
H1336 H 0.72656 0.39913 0.76395 0.0
C1337 C 0.63369 0.48984 0.79902 0.0
C1338 C 0.61307 0.50061 0.82353 0.0
C1339 C 0.61631 0.48616 0.8509 0.0
C1340 C 0.63959 0.46184 0.85414 0.0
C1341 C 0.65952 0.45184 0.82971 0.0
C1342 C 0.65663 0.46515 0.80248 0.0
C1343 C 0.6799 0.44902 0.7791 0.0
C1344 C 0.66286 0.44309 0.75 0.0
C1345 C 0.70309 0.46246 0.77079 0.0
C1346 C 0.69612 0.42465 0.79743 0.0
C1347 C 0.68421 0.4269 0.82674 0.0
C1348 C 0.69446 0.40666 0.84763 0.0
C1349 C 0.71678 0.38327 0.83806 0.0
C1350 C 0.72869 0.38026 0.80791 0.0
C1351 C 0.71853 0.40131 0.78747 0.0
H1352 H 0.6622 0.49447 0.21012 0.0
H1353 H 0.57387 0.49312 0.24303 0.0
H1354 H 0.59992 0.44829 0.26052 0.0
H1355 H 0.69102 0.43041 0.18157 0.0
H1356 H 0.73103 0.42429 0.19418 0.0
H1357 H 0.70604 0.45678 0.18589 0.0
H1358 H 0.71769 0.47183 0.24084 0.0
H1359 H 0.74283 0.43935 0.24929 0.0
H1360 H 0.71087 0.45567 0.27412 0.0
H1361 H 0.6342 0.40234 0.26963 0.0
H1362 H 0.67501 0.35928 0.27318 0.0
H1363 H 0.74269 0.3903 0.23782 0.0
C1364 C 0.64845 0.48488 0.2215 0.0
C1365 C 0.61592 0.49747 0.22537 0.0
C1366 C 0.5988 0.48413 0.24018 0.0
C1367 C 0.61342 0.45857 0.25007 0.0
C1368 C 0.64537 0.44665 0.24557 0.0
C1369 C 0.66284 0.45947 0.23209 0.0
C1370 C 0.69681 0.44202 0.22973 0.0
C1371 C 0.7068 0.43815 0.19582 0.0
C1372 C 0.71832 0.45287 0.24968 0.0
C1373 C 0.6955 0.4171 0.24305 0.0
C1374 C 0.66553 0.4203 0.25203 0.0
C1375 C 0.65783 0.39977 0.26321 0.0
C1376 C 0.68119 0.37535 0.26511 0.0
C1377 C 0.71211 0.37149 0.25623 0.0
C1378 C 0.71943 0.39279 0.24542 0.0
H1379 H 0.61921 0.6211 0.20888 0.0
H1380 H 0.62276 0.61895 0.10833 0.0
H1381 H 0.65389 0.64764 0.1113 0.0
H1382 H 0.6093 0.6869 0.21919 0.0
H1383 H 0.6335 0.68263 0.25396 0.0
H1384 H 0.61344 0.66018 0.24422 0.0
H1385 H 0.66601 0.62211 0.24683 0.0
H1386 H 0.68629 0.64444 0.25663 0.0
H1387 H 0.69785 0.62282 0.22371 0.0
H1388 H 0.68282 0.67817 0.12471 0.0
H1389 H 0.70638 0.70919 0.14799 0.0
H1390 H 0.68301 0.69249 0.23936 0.0
C1391 C 0.62644 0.62635 0.18731 0.0
C1392 C 0.61803 0.61744 0.15832 0.0
C1393 C 0.62855 0.62517 0.13095 0.0
C1394 C 0.64643 0.64155 0.13233 0.0
C1395 C 0.65383 0.65009 0.16123 0.0
C1396 C 0.64422 0.64274 0.18822 0.0
C1397 C 0.65434 0.65541 0.21632 0.0
C1398 C 0.62595 0.67229 0.23448 0.0
C1399 C 0.6775 0.63498 0.2371 0.0
C1400 C 0.67031 0.67172 0.2008 0.0
C1401 C 0.67017 0.66802 0.16901 0.0
C1402 C 0.68317 0.68115 0.14955 0.0
C1403 C 0.69642 0.69869 0.1629 0.0
C1404 C 0.6963 0.70308 0.19527 0.0
C1405 C 0.68328 0.68935 0.21451 0.0
H1406 H 0.4915 0.66842 0.20155 0.0
H1407 H 0.45871 0.6147 0.24919 0.0
H1408 H 0.41448 0.6516 0.26946 0.0
H1409 H 0.47103 0.71907 0.26262 0.0
H1410 H 0.46085 0.74467 0.23486 0.0
H1411 H 0.49036 0.71404 0.22615 0.0
H1412 H 0.45969 0.70995 0.17569 0.0
H1413 H 0.43009 0.74046 0.18429 0.0
H1414 H 0.41943 0.71195 0.17772 0.0
H1415 H 0.37084 0.69603 0.2814 0.0
H1416 H 0.33511 0.7418 0.28441 0.0
H1417 H 0.39883 0.76477 0.22974 0.0
C1418 C 0.47529 0.66441 0.21665 0.0
C1419 C 0.47865 0.6387 0.22397 0.0
C1420 C 0.45687 0.63428 0.24371 0.0
C1421 C 0.43157 0.65514 0.25516 0.0
C1422 C 0.42871 0.68035 0.24711 0.0
C1423 C 0.45041 0.68492 0.22862 0.0
C1424 C 0.44243 0.71349 0.22289 0.0
C1425 C 0.46767 0.7234 0.2375 0.0
C1426 C 0.43761 0.71928 0.18809 0.0
C1427 C 0.41212 0.72438 0.23987 0.0
C1428 C 0.40452 0.7052 0.25409 0.0
C1429 C 0.37692 0.71111 0.27055 0.0
C1430 C 0.35676 0.73715 0.27228 0.0
C1431 C 0.36424 0.75685 0.25748 0.0
C1432 C 0.39241 0.75018 0.24136 0.0
H1433 H 0.44837 0.50574 0.14501 0.0
H1434 H 0.47254 0.53322 0.23424 0.0
H1435 H 0.44269 0.51074 0.26024 0.0
H1436 H 0.36814 0.50794 0.16702 0.0
H1437 H 0.37096 0.47885 0.14517 0.0
H1438 H 0.39067 0.50008 0.13244 0.0
H1439 H 0.44314 0.4619 0.13268 0.0
H1440 H 0.42365 0.4406 0.14536 0.0
H1441 H 0.45657 0.44366 0.16754 0.0
H1442 H 0.4162 0.48189 0.2776 0.0
H1443 H 0.39373 0.44763 0.28524 0.0
H1444 H 0.38576 0.43771 0.18571 0.0
C1445 C 0.44672 0.50742 0.16994 0.0
C1446 C 0.46227 0.5218 0.18741 0.0
C1447 C 0.46007 0.52318 0.2201 0.0
C1448 C 0.44326 0.51029 0.23523 0.0
C1449 C 0.42846 0.49618 0.21746 0.0
C1450 C 0.42972 0.49472 0.18554 0.0
C1451 C 0.41324 0.4767 0.17243 0.0
C1452 C 0.38402 0.4918 0.15312 0.0
C1453 C 0.43549 0.45439 0.1534 0.0
C1454 C 0.40432 0.46719 0.2021 0.0
C1455 C 0.41284 0.47914 0.22771 0.0
C1456 C 0.40894 0.47263 0.25778 0.0
C1457 C 0.39635 0.45307 0.26189 0.0
C1458 C 0.38801 0.44011 0.23609 0.0
C1459 C 0.39146 0.44764 0.2058 0.0
H1460 H 0.80147 0.69972 0.56787 0.0
H1461 H 0.78272 0.63986 0.61848 0.0
H1462 H 0.78923 0.66147 0.66791 0.0
H1463 H 0.85769 0.71304 0.62223 0.0
H1464 H 0.8417 0.74758 0.61745 0.0
H1465 H 0.83888 0.72616 0.58601 0.0
H1466 H 0.77877 0.74861 0.58304 0.0
H1467 H 0.78145 0.77017 0.6143 0.0
H1468 H 0.75651 0.751 0.61733 0.0
H1469 H 0.79459 0.6903 0.71119 0.0
H1470 H 0.7943 0.72663 0.74612 0.0
H1471 H 0.80797 0.76907 0.66804 0.0
C1472 C 0.79939 0.69098 0.58946 0.0
C1473 C 0.79218 0.66794 0.58964 0.0
C1474 C 0.78849 0.65742 0.61808 0.0
C1475 C 0.79228 0.66948 0.64618 0.0
C1476 C 0.79924 0.69225 0.64534 0.0
C1477 C 0.80234 0.70316 0.61776 0.0
C1478 C 0.80658 0.72917 0.62338 0.0
C1479 C 0.8381 0.72895 0.61157 0.0
C1480 C 0.77921 0.75102 0.60864 0.0
C1481 C 0.8059 0.73092 0.65844 0.0
C1482 C 0.80173 0.70935 0.67054 0.0
C1483 C 0.79823 0.70715 0.70207 0.0
C1484 C 0.79817 0.72784 0.72173 0.0
C1485 C 0.80169 0.75038 0.70982 0.0
C1486 C 0.80625 0.7517 0.67785 0.0
H1487 H 0.45268 0.86271 0.64537 0.0
H1488 H 0.44648 0.81092 0.5697 0.0
H1489 H 0.40979 0.79708 0.5993 0.0
H1490 H 0.44927 0.82028 0.70734 0.0
H1491 H 0.42608 0.84619 0.73193 0.0
H1492 H 0.4521 0.8521 0.70501 0.0
H1493 H 0.40605 0.8891 0.68083 0.0
H1494 H 0.37991 0.88335 0.70771 0.0
H1495 H 0.37161 0.88264 0.66667 0.0
H1496 H 0.37239 0.78886 0.63749 0.0
H1497 H 0.33837 0.78732 0.6801 0.0
H1498 H 0.36801 0.8442 0.73181 0.0
C1499 C 0.44357 0.84854 0.63486 0.0
C1500 C 0.45303 0.83795 0.60481 0.0
C1501 C 0.44036 0.81923 0.59255 0.0
C1502 C 0.4192 0.81127 0.60926 0.0
C1503 C 0.41055 0.82197 0.63867 0.0
C1504 C 0.4224 0.84019 0.65142 0.0
C1505 C 0.40934 0.84852 0.6836 0.0
C1506 C 0.43577 0.84135 0.70844 0.0
C1507 C 0.39061 0.87763 0.68476 0.0
C1508 C 0.38802 0.83246 0.68678 0.0
C1509 C 0.38918 0.81719 0.6606 0.0
C1510 C 0.37146 0.80078 0.65805 0.0
C1511 C 0.35207 0.80001 0.68256 0.0
C1512 C 0.35014 0.81554 0.70975 0.0
C1513 C 0.3687 0.83193 0.71162 0.0
H1514 H 0.30391 0.4086 0.59312 0.0
H1515 H 0.32295 0.4694 0.64685 0.0
H1516 H 0.30842 0.45286 0.69477 0.0
H1517 H 0.23724 0.40671 0.63745 0.0
H1518 H 0.24827 0.372 0.63428 0.0
H1519 H 0.2579 0.38979 0.60416 0.0
H1520 H 0.31628 0.36164 0.61025 0.0
H1521 H 0.30703 0.34367 0.6403 0.0
H1522 H 0.33557 0.35936 0.64775 0.0
H1523 H 0.29589 0.4278 0.73661 0.0
H1524 H 0.28894 0.39474 0.77027 0.0
H1525 H 0.2765 0.35053 0.68924 0.0
C1526 C 0.30464 0.4184 0.61507 0.0
C1527 C 0.31434 0.44016 0.6168 0.0
C1528 C 0.31545 0.45267 0.64556 0.0
C1529 C 0.30711 0.44351 0.67265 0.0
C1530 C 0.29751 0.42195 0.67032 0.0
C1531 C 0.29629 0.4095 0.64228 0.0
C1532 C 0.28707 0.3858 0.64642 0.0
C1533 C 0.25575 0.38876 0.62958 0.0
C1534 C 0.31303 0.36116 0.63554 0.0
C1535 C 0.28394 0.38651 0.68123 0.0
C1536 C 0.28977 0.40768 0.69451 0.0
C1537 C 0.29075 0.41141 0.72648 0.0
C1538 C 0.28669 0.39258 0.7454 0.0
C1539 C 0.28159 0.37039 0.73231 0.0
C1540 C 0.2793 0.36774 0.69982 0.0
H1541 H 0.62391 0.27687 0.61902 0.0
H1542 H 0.57924 0.35719 0.59431 0.0
H1543 H 0.61689 0.36903 0.62972 0.0
H1544 H 0.63941 0.28789 0.70017 0.0
H1545 H 0.67636 0.26179 0.70138 0.0
H1546 H 0.64579 0.26022 0.67456 0.0
H1547 H 0.6834 0.25361 0.62922 0.0
H1548 H 0.71403 0.25532 0.65587 0.0
H1549 H 0.70259 0.27688 0.62357 0.0
H1550 H 0.66365 0.37109 0.66656 0.0
H1551 H 0.7088 0.36415 0.70319 0.0
H1552 H 0.7207 0.28263 0.70614 0.0
C1553 C 0.62166 0.29709 0.62107 0.0
C1554 C 0.59812 0.31608 0.60346 0.0
C1555 C 0.59656 0.3422 0.60736 0.0
C1556 C 0.61814 0.34905 0.62743 0.0
C1557 C 0.64128 0.32969 0.64394 0.0
C1558 C 0.64275 0.30423 0.64116 0.0
C1559 C 0.66949 0.28687 0.66136 0.0
C1560 C 0.65701 0.2734 0.68582 0.0
C1561 C 0.69381 0.26699 0.64131 0.0
C1562 C 0.683 0.30639 0.67633 0.0
C1563 C 0.66676 0.33097 0.66562 0.0
C1564 C 0.67607 0.3519 0.67511 0.0
C1565 C 0.70203 0.34772 0.69596 0.0
C1566 C 0.71863 0.32286 0.70801 0.0
C1567 C 0.7086 0.30198 0.69786 0.0
H1568 H 0.76937 0.57024 0.43153 0.0
H1569 H 0.82464 0.54947 0.51673 0.0
H1570 H 0.82778 0.50379 0.50828 0.0
H1571 H 0.72412 0.53003 0.44171 0.0
H1572 H 0.72227 0.52207 0.40111 0.0
H1573 H 0.72607 0.55255 0.41302 0.0
H1574 H 0.7762 0.54247 0.38123 0.0
H1575 H 0.77203 0.51232 0.36853 0.0
H1576 H 0.80796 0.51252 0.38733 0.0
H1577 H 0.82375 0.46009 0.48992 0.0
H1578 H 0.81615 0.42259 0.46168 0.0
H1579 H 0.76162 0.47405 0.3905 0.0
C1580 C 0.78281 0.55607 0.44814 0.0
C1581 C 0.7971 0.56335 0.47464 0.0
C1582 C 0.8138 0.54421 0.4961 0.0
C1583 C 0.81544 0.51831 0.49162 0.0
C1584 C 0.80001 0.51204 0.46575 0.0
C1585 C 0.78421 0.53044 0.44432 0.0
C1586 C 0.76907 0.51919 0.41869 0.0
C1587 C 0.73326 0.53171 0.41865 0.0
C1588 C 0.78211 0.52177 0.38708 0.0
C1589 C 0.77931 0.49136 0.42856 0.0
C1590 C 0.79697 0.48749 0.45584 0.0
C1591 C 0.8099 0.46296 0.46859 0.0
C1592 C 0.80547 0.44181 0.45245 0.0
C1593 C 0.78806 0.44544 0.42407 0.0
C1594 C 0.77439 0.47067 0.4125 0.0
H1595 H 0.60367 0.87524 0.40816 0.0
H1596 H 0.65191 0.81125 0.46859 0.0
H1597 H 0.69585 0.79739 0.43334 0.0
H1598 H 0.63125 0.84029 0.33535 0.0
H1599 H 0.63548 0.86789 0.31701 0.0
H1600 H 0.60658 0.87247 0.34607 0.0
H1601 H 0.63033 0.9023 0.37769 0.0
H1602 H 0.65914 0.89792 0.34867 0.0
H1603 H 0.67133 0.89059 0.38848 0.0
H1604 H 0.73533 0.78919 0.39026 0.0
H1605 H 0.76855 0.79073 0.3469 0.0
H1606 H 0.69818 0.8616 0.31558 0.0
C1607 C 0.62337 0.85833 0.41423 0.0
C1608 C 0.62338 0.84433 0.44165 0.0
C1609 C 0.65025 0.8223 0.44793 0.0
C1610 C 0.67571 0.81419 0.42787 0.0
C1611 C 0.67471 0.82818 0.40117 0.0
C1612 C 0.64934 0.84996 0.39442 0.0
C1613 C 0.65471 0.86187 0.36447 0.0
C1614 C 0.63056 0.86056 0.33923 0.0
C1615 C 0.65383 0.88983 0.37019 0.0
C1616 C 0.68745 0.844 0.35615 0.0
C1617 C 0.69813 0.82424 0.37721 0.0
C1618 C 0.72714 0.80474 0.37385 0.0
C1619 C 0.74589 0.80568 0.3489 0.0
C1620 C 0.73625 0.82625 0.32758 0.0
C1621 C 0.7064 0.84562 0.33139 0.0
H1622 H 0.32412 0.58749 0.49128 0.0
H1623 H 0.39163 0.53685 0.42859 0.0
H1624 H 0.39469 0.5749 0.40229 0.0
H1625 H 0.28168 0.62991 0.43465 0.0
H1626 H 0.27294 0.65858 0.45889 0.0
H1627 H 0.27966 0.62765 0.47599 0.0
H1628 H 0.3218 0.63546 0.51129 0.0
H1629 H 0.3177 0.6657 0.49379 0.0
H1630 H 0.35536 0.64041 0.49535 0.0
H1631 H 0.38628 0.61825 0.37898 0.0
H1632 H 0.36543 0.66295 0.35982 0.0
H1633 H 0.3028 0.68502 0.43691 0.0
C1634 C 0.33978 0.58414 0.47221 0.0
C1635 C 0.35757 0.55879 0.4622 0.0
C1636 C 0.37793 0.55581 0.43719 0.0
C1637 C 0.37985 0.57741 0.42197 0.0
C1638 C 0.36138 0.60197 0.43198 0.0
C1639 C 0.34176 0.60544 0.45658 0.0
C1640 C 0.32215 0.63369 0.46092 0.0
C1641 C 0.28704 0.63767 0.45738 0.0
C1642 C 0.32979 0.64444 0.49219 0.0
C1643 C 0.3332 0.6454 0.43443 0.0
C1644 C 0.35619 0.62691 0.41828 0.0
C1645 C 0.36863 0.63296 0.39175 0.0
C1646 C 0.35675 0.65846 0.38113 0.0
C1647 C 0.3325 0.67752 0.39688 0.0
C1648 C 0.32123 0.67089 0.42428 0.0
H1649 H 0.43608 0.3334 0.46668 0.0
H1650 H 0.49602 0.25384 0.45065 0.0
H1651 H 0.46134 0.24923 0.40852 0.0
H1652 H 0.36622 0.32021 0.45336 0.0
H1653 H 0.34331 0.34763 0.43165 0.0
H1654 H 0.3726 0.35067 0.45922 0.0
H1655 H 0.40268 0.36577 0.4211 0.0
H1656 H 0.37527 0.36608 0.38983 0.0
H1657 H 0.41578 0.34766 0.38584 0.0
H1658 H 0.41946 0.25134 0.36803 0.0
H1659 H 0.37229 0.26058 0.33386 0.0
H1660 H 0.3368 0.33814 0.37239 0.0
C1661 C 0.44204 0.31506 0.45428 0.0
C1662 C 0.4696 0.29412 0.46287 0.0
C1663 C 0.47564 0.27053 0.44544 0.0
C1664 C 0.45589 0.26753 0.42095 0.0
C1665 C 0.42933 0.28822 0.4131 0.0
C1666 C 0.42219 0.31154 0.42917 0.0
C1667 C 0.39123 0.33016 0.4161 0.0
C1668 C 0.36693 0.33771 0.44157 0.0
C1669 C 0.39647 0.35385 0.40249 0.0
C1670 C 0.38227 0.31369 0.39045 0.0
C1671 C 0.4049 0.28951 0.38925 0.0
C1672 C 0.4018 0.27039 0.36856 0.0
C1673 C 0.37488 0.27585 0.34894 0.0
C1674 C 0.35099 0.30036 0.34938 0.0
C1675 C 0.355 0.31955 0.37059 0.0
H1676 H 0.61664 0.78887 0.63144 0.0
H1677 H 0.60857 0.84541 0.56083 0.0
H1678 H 0.64468 0.86219 0.59146 0.0
H1679 H 0.62263 0.8268 0.69809 0.0
H1680 H 0.65252 0.80132 0.71811 0.0
H1681 H 0.62578 0.79351 0.69112 0.0
H1682 H 0.67224 0.76333 0.66008 0.0
H1683 H 0.699 0.77071 0.68741 0.0
H1684 H 0.70129 0.77584 0.64673 0.0
H1685 H 0.67922 0.87462 0.63094 0.0
H1686 H 0.71727 0.87705 0.67198 0.0
H1687 H 0.708 0.81005 0.71529 0.0
C1688 C 0.62299 0.80446 0.62224 0.0
C1689 C 0.60999 0.81565 0.5935 0.0
C1690 C 0.61865 0.83619 0.58239 0.0
C1691 C 0.63888 0.84606 0.59985 0.0
C1692 C 0.65093 0.83491 0.62822 0.0
C1693 C 0.64409 0.81406 0.63899 0.0
C1694 C 0.66188 0.80475 0.66941 0.0
C1695 C 0.63935 0.80672 0.69574 0.0
C1696 C 0.68497 0.77701 0.66568 0.0
C1697 C 0.67911 0.82401 0.67439 0.0
C1698 C 0.67205 0.84141 0.65047 0.0
C1699 C 0.68501 0.86099 0.64966 0.0
C1700 C 0.70651 0.8623 0.67323 0.0
C1701 C 0.71522 0.84413 0.6974 0.0
C1702 C 0.70099 0.82487 0.69806 0.0
H1703 H 0.64022 0.32146 0.46325 0.0
H1704 H 0.62727 0.24918 0.43728 0.0
H1705 H 0.66755 0.2415 0.39742 0.0
H1706 H 0.64677 0.34162 0.39049 0.0
H1707 H 0.67662 0.35564 0.39964 0.0
H1708 H 0.65084 0.35347 0.42917 0.0
H1709 H 0.69815 0.32802 0.464 0.0
H1710 H 0.7242 0.33053 0.43479 0.0
H1711 H 0.72702 0.29924 0.44887 0.0
H1712 H 0.70378 0.24517 0.35553 0.0
H1713 H 0.73594 0.25734 0.31843 0.0
H1714 H 0.72626 0.32749 0.37207 0.0
C1715 C 0.64699 0.30346 0.45007 0.0
C1716 C 0.63126 0.28549 0.45394 0.0
C1717 C 0.63977 0.26266 0.43547 0.0
C1718 C 0.66236 0.25838 0.41252 0.0
C1719 C 0.67659 0.27698 0.40857 0.0
C1720 C 0.66969 0.29883 0.42735 0.0
C1721 C 0.68691 0.31657 0.41735 0.0
C1722 C 0.6639 0.3434 0.40864 0.0
C1723 C 0.71047 0.31872 0.44277 0.0
C1724 C 0.70359 0.30191 0.38916 0.0
C1725 C 0.69751 0.27902 0.38465 0.0
C1726 C 0.70906 0.26283 0.35926 0.0
C1727 C 0.72732 0.27003 0.33815 0.0
C1728 C 0.73408 0.29337 0.34219 0.0
C1729 C 0.72202 0.30939 0.36832 0.0
H1730 H 0.74683 0.67921 0.38659 0.0
H1731 H 0.78099 0.70656 0.47096 0.0
H1732 H 0.81202 0.72547 0.44027 0.0
H1733 H 0.81842 0.66449 0.34353 0.0
H1734 H 0.79845 0.67591 0.30723 0.0
H1735 H 0.78002 0.66278 0.33547 0.0
H1736 H 0.73191 0.70501 0.33546 0.0
H1737 H 0.74985 0.71778 0.30656 0.0
H1738 H 0.73771 0.73563 0.34222 0.0
H1739 H 0.84002 0.74059 0.40147 0.0
H1740 H 0.8538 0.76038 0.35663 0.0
H1741 H 0.79916 0.72625 0.29637 0.0
C1742 C 0.76066 0.68934 0.39855 0.0
C1743 C 0.76198 0.69094 0.43128 0.0
C1744 C 0.7803 0.70446 0.44601 0.0
C1745 C 0.79807 0.71522 0.42878 0.0
C1746 C 0.79724 0.71243 0.39673 0.0
C1747 C 0.7785 0.70041 0.38161 0.0
C1748 C 0.7804 0.7018 0.34676 0.0
C1749 C 0.7952 0.67463 0.33241 0.0
C1750 C 0.74805 0.71591 0.33189 0.0
C1751 C 0.80211 0.71741 0.34483 0.0
C1752 C 0.81236 0.72246 0.37398 0.0
C1753 C 0.8321 0.73687 0.37849 0.0
C1754 C 0.83999 0.74789 0.3527 0.0
C1755 C 0.82733 0.74517 0.32285 0.0
C1756 C 0.80943 0.72861 0.31876 0.0
H1757 H 0.47401 0.77318 0.45728 0.0
H1758 H 0.48984 0.84621 0.44845 0.0
H1759 H 0.4503 0.85827 0.40605 0.0
H1760 H 0.46296 0.76428 0.37275 0.0
H1761 H 0.4339 0.74926 0.3776 0.0
H1762 H 0.46419 0.74586 0.40689 0.0
H1763 H 0.42209 0.76423 0.44817 0.0
H1764 H 0.39174 0.76781 0.41898 0.0
H1765 H 0.3923 0.79535 0.44239 0.0
H1766 H 0.40726 0.8636 0.36587 0.0
H1767 H 0.36565 0.86071 0.3292 0.0
H1768 H 0.37785 0.78395 0.36226 0.0
C1769 C 0.46938 0.79156 0.44617 0.0
C1770 C 0.48532 0.80863 0.45628 0.0
C1771 C 0.47843 0.83256 0.44104 0.0
C1772 C 0.4558 0.83971 0.41694 0.0
C1773 C 0.4404 0.8226 0.4077 0.0
C1774 C 0.44717 0.79885 0.42148 0.0
C1775 C 0.42748 0.78395 0.40655 0.0
C1776 C 0.44837 0.75938 0.38997 0.0
C1777 C 0.40719 0.77747 0.43046 0.0
C1778 C 0.40766 0.8035 0.3833 0.0
C1779 C 0.41578 0.82555 0.38415 0.0
C1780 C 0.40089 0.84632 0.36485 0.0
C1781 C 0.37724 0.84448 0.34402 0.0
C1782 C 0.36837 0.82212 0.34265 0.0
C1783 C 0.38391 0.80139 0.36271 0.0
H1784 H 0.29623 0.4253 0.46857 0.0
H1785 H 0.23192 0.50142 0.44587 0.0
H1786 H 0.21061 0.48214 0.40132 0.0
H1787 H 0.3146 0.41269 0.39382 0.0
H1788 H 0.32234 0.37857 0.39392 0.0
H1789 H 0.32846 0.39504 0.42894 0.0
H1790 H 0.29118 0.37987 0.46014 0.0
H1791 H 0.2857 0.3607 0.42737 0.0
H1792 H 0.25234 0.38411 0.445 0.0
H1793 H 0.20393 0.45357 0.35309 0.0
H1794 H 0.21149 0.42015 0.31085 0.0
H1795 H 0.28064 0.36486 0.36824 0.0
C1796 C 0.27689 0.43796 0.45498 0.0
C1797 C 0.26567 0.46478 0.46066 0.0
C1798 C 0.24069 0.48068 0.44197 0.0
C1799 C 0.22853 0.46987 0.41663 0.0
C1800 C 0.24149 0.44322 0.41073 0.0
C1801 C 0.26493 0.42765 0.42989 0.0
C1802 C 0.27927 0.40089 0.41659 0.0
C1803 C 0.3132 0.39653 0.40793 0.0
C1804 C 0.27697 0.38017 0.43859 0.0
C1805 C 0.25906 0.40276 0.38795 0.0
C1806 C 0.23778 0.42741 0.38406 0.0
C1807 C 0.21993 0.4341 0.35652 0.0
C1808 C 0.22431 0.41511 0.33267 0.0
C1809 C 0.2461 0.38995 0.33696 0.0
C1810 C 0.26314 0.3838 0.36498 0.0
H1811 H 0.46788 0.29831 0.63566 0.0
H1812 H 0.48596 0.21929 0.60293 0.0
H1813 H 0.44839 0.21445 0.63952 0.0
H1814 H 0.45838 0.28584 0.71736 0.0
H1815 H 0.42724 0.31606 0.7237 0.0
H1816 H 0.4563 0.31385 0.6955 0.0
H1817 H 0.41287 0.33051 0.65317 0.0
H1818 H 0.38381 0.33299 0.6814 0.0
H1819 H 0.38493 0.3141 0.6464 0.0
H1820 H 0.40732 0.21796 0.67733 0.0
H1821 H 0.36412 0.23007 0.71375 0.0
H1822 H 0.37119 0.3065 0.72528 0.0
C1823 C 0.46394 0.27999 0.6362 0.0
C1824 C 0.48052 0.25905 0.61622 0.0
C1825 C 0.47441 0.23548 0.61804 0.0
C1826 C 0.45285 0.23255 0.6388 0.0
C1827 C 0.43729 0.25327 0.6582 0.0
C1828 C 0.44243 0.2766 0.65724 0.0
C1829 C 0.42192 0.29573 0.68071 0.0
C1830 C 0.44217 0.30332 0.7058 0.0
C1831 C 0.39956 0.31975 0.66444 0.0
C1832 C 0.40406 0.27964 0.69434 0.0
C1833 C 0.41364 0.25515 0.68095 0.0
C1834 C 0.39997 0.23695 0.68827 0.0
C1835 C 0.37549 0.24397 0.70919 0.0
C1836 C 0.36475 0.2689 0.72321 0.0
C1837 C 0.3796 0.28695 0.71592 0.0
H1838 H 0.68298 0.55178 0.57047 0.0
H1839 H 0.77295 0.55424 0.54479 0.0
H1840 H 0.79831 0.50943 0.56124 0.0
H1841 H 0.70801 0.51881 0.63852 0.0
H1842 H 0.68401 0.49859 0.63532 0.0
H1843 H 0.67163 0.52931 0.61644 0.0
H1844 H 0.66737 0.50657 0.56396 0.0
H1845 H 0.67985 0.47569 0.58275 0.0
H1846 H 0.70073 0.48055 0.5502 0.0
H1847 H 0.81511 0.46728 0.58545 0.0
H1848 H 0.82314 0.43021 0.61901 0.0
H1849 H 0.72297 0.4533 0.63088 0.0
C1850 C 0.70783 0.54246 0.56758 0.0
C1851 C 0.72587 0.55604 0.55508 0.0
C1852 C 0.75855 0.54369 0.55268 0.0
C1853 C 0.7732 0.5183 0.56221 0.0
C1854 C 0.7549 0.50534 0.57425 0.0
C1855 C 0.72295 0.51684 0.57703 0.0
C1856 C 0.70953 0.49909 0.59349 0.0
C1857 C 0.6923 0.51225 0.62268 0.0
C1858 C 0.68809 0.48993 0.57128 0.0
C1859 C 0.73924 0.47689 0.60148 0.0
C1860 C 0.76492 0.48064 0.58921 0.0
C1861 C 0.79516 0.46376 0.59468 0.0
C1862 C 0.79945 0.44265 0.6137 0.0
C1863 C 0.77367 0.43861 0.62732 0.0
C1864 C 0.7431 0.4558 0.62067 0.0
H1865 H 0.30136 0.5831 0.55463 0.0
H1866 H 0.29817 0.53984 0.63586 0.0
H1867 H 0.30063 0.57637 0.66953 0.0
H1868 H 0.35815 0.61018 0.59087 0.0
H1869 H 0.34227 0.63921 0.56864 0.0
H1870 H 0.34003 0.60885 0.55359 0.0
H1871 H 0.27885 0.63261 0.54691 0.0
H1872 H 0.28286 0.66171 0.56367 0.0
H1873 H 0.25713 0.64738 0.58061 0.0
H1874 H 0.3065 0.61599 0.69392 0.0
H1875 H 0.30693 0.65966 0.70811 0.0
H1876 H 0.30622 0.67755 0.61099 0.0
C1877 C 0.30001 0.58186 0.57948 0.0
C1878 C 0.29847 0.55932 0.59294 0.0
C1879 C 0.29846 0.55745 0.62544 0.0
C1880 C 0.30026 0.57787 0.64461 0.0
C1881 C 0.30277 0.59961 0.63072 0.0
C1882 C 0.30242 0.60186 0.59895 0.0
C1883 C 0.30694 0.62676 0.59007 0.0
C1884 C 0.33868 0.62095 0.57485 0.0
C1885 C 0.27981 0.64308 0.56909 0.0
C1886 C 0.30718 0.63915 0.62174 0.0
C1887 C 0.30618 0.6226 0.64487 0.0
C1888 C 0.30716 0.62919 0.67608 0.0
C1889 C 0.30772 0.65388 0.6839 0.0
C1890 C 0.30669 0.67171 0.66057 0.0
C1891 C 0.30713 0.6641 0.62913 0.0
loop_
_geom_bond_atom_site_label_1
_geom_bond_atom_site_label_2
_geom_bond_distance
_geom_bond_site_symmetry_2
_ccdc_geom_bond_type
Cu0 N1 1.999 . S
Cu0 O6 1.974 . S
Cu0 N11 1.985 1_455 S
Cu0 O20 1.959 1_455 S
N1 Cu0 1.999 . S
N1 C3 1.263 . S
N1 C5 1.389 . S
N2 C3 1.358 . S
N2 C4 1.400 . S
C3 N1 1.263 . S
C3 N2 1.358 . S
C3 H9 0.930 . S
C4 N2 1.400 . S
C4 C5 1.351 . S
C4 H21 0.930 . S
C5 N1 1.389 . S
C5 C4 1.351 . S
C5 H10 0.930 . S
O6 Cu0 1.974 . S
O6 C16 1.282 . S
C7 O8 1.261 . S
C7 O20 1.251 . S
O8 C7 1.261 . S
H9 C3 0.930 . S
H10 C5 0.930 . S
N11 Cu0 1.985 1_655 S
N11 C13 1.335 . S
N11 C14 1.391 . S
N12 C13 1.345 . S
N12 C15 1.349 . S
C13 N11 1.335 . S
C13 N12 1.345 . S
C13 H18 0.930 . S
C14 N11 1.391 . S
C14 C15 1.376 . S
C14 H19 0.919 1_655 S
C15 N12 1.349 . S
C15 C14 1.376 . S
C15 H22 0.904 1_545 S
C16 O6 1.282 . S
C16 O17 1.216 . S
O17 C16 1.216 . S
H18 C13 0.930 . S
H19 C14 0.919 1_455 S
O20 Cu0 1.959 1_655 S
O20 C7 1.251 . S
H21 C4 0.930 . S
H22 C15 0.904 1_565 S
Cu23 N24 1.999 1_455 S
Cu23 O29 1.974 1_455 S
Cu23 N34 1.985 . S
Cu23 O43 1.959 . S
N24 Cu23 1.999 1_655 S
N24 C26 1.263 . S
N24 C28 1.389 . S
N25 C26 1.358 . S
N25 C27 1.400 1_545 S
C26 N24 1.263 . S
C26 N25 1.358 . S
C26 H32 0.930 . S
C27 N25 1.400 1_565 S
C27 C28 1.351 1_565 S
C27 H44 0.930 . S
C28 N24 1.389 . S
C28 C27 1.351 1_545 S
C28 H33 0.924 1_645 S
O29 Cu23 1.974 1_655 S
O29 C39 1.282 . S
C30 O31 1.261 . S
C30 O43 1.251 . S
O31 C30 1.261 . S
H32 C26 0.930 . S
H33 C28 0.924 1_465 S
N34 Cu23 1.985 . S
N34 C36 1.335 . S
N34 C37 1.390 . S
N35 C36 1.345 . S
N35 C38 1.336 . S
C36 N34 1.335 . S
C36 N35 1.345 . S
C36 H41 0.930 . S
C37 N34 1.390 . S
C37 C38 1.346 . S
C37 H42 0.907 1_455 S
C38 N35 1.336 . S
C38 C37 1.346 . S
C38 H45 0.929 . S
C39 O29 1.282 . S
C39 O40 1.216 . S
O40 C39 1.216 . S
H41 C36 0.930 . S
H42 C37 0.907 1_655 S
O43 Cu23 1.959 . S
O43 C30 1.251 . S
H44 C27 0.930 . S
H45 C38 0.929 . S
Cu46 N47 1.999 1_554 S
Cu46 O52 1.974 . S
Cu46 N57 1.985 . S
Cu46 O66 1.959 1_554 S
N47 Cu46 1.999 1_556 S
N47 C49 1.263 . S
N47 C51 1.389 . S
N48 C49 1.358 . S
N48 C50 1.400 . S
C49 N47 1.263 . S
C49 N48 1.358 . S
C49 H55 0.920 1_556 S
C50 N48 1.400 . S
C50 C51 1.351 . S
C50 H67 0.930 . S
C51 N47 1.389 . S
C51 C50 1.351 . S
C51 H56 0.930 . S
O52 Cu46 1.974 . S
O52 C62 1.282 . S
C53 O54 1.261 . S
C53 O66 1.251 . S
O54 C53 1.261 . S
H55 C49 0.920 1_554 S
H56 C51 0.930 . S
N57 Cu46 1.985 . S
N57 C59 1.335 . S
N57 C60 1.390 . S
N58 C59 1.345 . S
N58 C61 1.336 . S
C59 N57 1.335 . S
C59 N58 1.345 . S
C59 H64 0.930 . S
C60 N57 1.390 . S
C60 C61 1.346 . S
C60 H65 0.930 . S
C61 N58 1.336 . S
C61 C60 1.346 . S
C61 H68 0.929 . S
C62 O52 1.282 . S
C62 O63 1.216 . S
O63 C62 1.216 . S
H64 C59 0.930 . S
H65 C60 0.930 . S
O66 Cu46 1.959 1_556 S
O66 C53 1.251 . S
H67 C50 0.930 . S
H68 C61 0.929 . S
Cu69 N70 1.999 1_554 S
Cu69 O75 1.974 . S
Cu69 N80 1.985 1_455 S
Cu69 O89 1.959 1_454 S
N70 Cu69 1.999 1_556 S
N70 C72 1.263 . S
N70 C74 1.389 . S
N71 C72 1.358 . S
N71 C73 1.400 . S
C72 N70 1.263 . S
C72 N71 1.358 . S
C72 H78 0.930 . S
C73 N71 1.400 . S
C73 C74 1.351 . S
C73 H90 0.930 . S
C74 N70 1.389 . S
C74 C73 1.351 . S
C74 H79 0.930 . S
O75 Cu69 1.974 . S
O75 C85 1.282 . S
C76 O77 1.261 . S
C76 O89 1.251 . S
O77 C76 1.261 . S
H78 C72 0.930 . S
H79 C74 0.930 . S
N80 Cu69 1.985 1_655 S
N80 C82 1.335 . S
N80 C83 1.390 . S
N81 C82 1.345 . S
N81 C84 1.336 . S
C82 N80 1.335 . S
C82 N81 1.345 . S
C82 H87 0.930 . S
C83 N80 1.390 . S
C83 C84 1.346 . S
C83 H88 0.930 1_655 S
C84 N81 1.336 . S
C84 C83 1.346 . S
C84 H91 0.929 . S
C85 O75 1.282 . S
C85 O86 1.216 . S
O86 C85 1.216 . S
H87 C82 0.930 . S
H88 C83 0.930 1_455 S
O89 Cu69 1.959 1_656 S
O89 C76 1.251 . S
H90 C73 0.930 . S
H91 C84 0.929 . S
Cu92 N93 1.999 1_554 S
Cu92 O98 1.974 . S
Cu92 N103 1.985 1_545 S
Cu92 O112 1.959 1_544 S
N93 Cu92 1.999 1_556 S
N93 C95 1.263 . S
N93 C97 1.389 . S
N94 C95 1.358 . S
N94 C96 1.400 . S
C95 N93 1.263 . S
C95 N94 1.358 . S
C95 H101 0.930 . S
C96 N94 1.400 . S
C96 C97 1.351 . S
C96 H113 0.930 . S
C97 N93 1.389 . S
C97 C96 1.351 . S
C97 H102 0.930 . S
O98 Cu92 1.974 . S
O98 C108 1.282 . S
C99 O100 1.261 . S
C99 O112 1.251 . S
O100 C99 1.261 . S
H101 C95 0.930 . S
H102 C97 0.930 . S
N103 Cu92 1.985 1_565 S
N103 C105 1.335 . S
N103 C106 1.390 . S
N104 C105 1.345 . S
N104 C107 1.336 . S
C105 N103 1.335 . S
C105 N104 1.345 . S
C105 H110 0.930 . S
C106 N103 1.390 . S
C106 C107 1.346 . S
C106 H111 0.930 . S
C107 N104 1.336 . S
C107 C106 1.346 . S
C107 H114 0.929 . S
C108 O98 1.282 . S
C108 O109 1.216 . S
O109 C108 1.216 . S
H110 C105 0.930 . S
H111 C106 0.930 . S
O112 Cu92 1.959 1_566 S
O112 C99 1.251 . S
H113 C96 0.930 . S
H114 C107 0.929 . S
Cu115 N116 1.999 1_454 S
Cu115 O121 1.974 1_455 S
Cu115 N126 1.985 . S
Cu115 O135 1.959 1_554 S
N116 Cu115 1.999 1_656 S
N116 C118 1.263 . S
N116 C120 1.389 . S
N117 C118 1.358 . S
N117 C119 1.400 . S
C118 N116 1.263 . S
C118 N117 1.358 . S
C118 H124 0.930 . S
C119 N117 1.400 . S
C119 C120 1.351 . S
C119 H136 0.930 . S
C120 N116 1.389 . S
C120 C119 1.351 . S
C120 H125 0.930 1_655 S
O121 Cu115 1.974 1_655 S
O121 C131 1.282 . S
C122 O123 1.261 . S
C122 O135 1.251 . S
O123 C122 1.261 . S
H124 C118 0.930 . S
H125 C120 0.930 1_455 S
N126 Cu115 1.985 . S
N126 C128 1.335 . S
N126 C129 1.390 . S
N127 C128 1.345 . S
N127 C130 1.336 . S
C128 N126 1.335 . S
C128 N127 1.345 . S
C128 H133 0.930 . S
C129 N126 1.390 . S
C129 C130 1.346 . S
C129 H134 0.930 . S
C130 N127 1.336 . S
C130 C129 1.346 . S
C130 H137 0.929 . S
C131 O121 1.282 . S
C131 O132 1.216 . S
O132 C131 1.216 . S
H133 C128 0.930 . S
H134 C129 0.930 . S
O135 Cu115 1.959 1_556 S
O135 C122 1.251 . S
H136 C119 0.930 . S
H137 C130 0.929 . S
Cu138 N139 1.999 . S
Cu138 O144 1.974 . S
Cu138 N149 1.985 . S
Cu138 O158 1.959 . S
N139 Cu138 1.999 . S
N139 C141 1.263 . S
N139 C143 1.389 . S
N140 C141 1.358 . S
N140 C142 1.400 . S
C141 N139 1.263 . S
C141 N140 1.358 . S
C141 H147 0.930 . S
C142 N140 1.400 . S
C142 C143 1.351 . S
C142 H159 0.930 . S
C143 N139 1.389 . S
C143 C142 1.351 . S
C143 H148 0.930 . S
O144 Cu138 1.974 . S
O144 C154 1.282 . S
C145 O146 1.261 . S
C145 O158 1.251 . S
O146 C145 1.261 . S
H147 C141 0.930 . S
H148 C143 0.930 . S
N149 Cu138 1.985 . S
N149 C151 1.335 . S
N149 C152 1.390 . S
N150 C151 1.345 . S
N150 C153 1.336 . S
C151 N149 1.335 . S
C151 N150 1.345 . S
C151 H156 0.930 . S
C152 N149 1.390 . S
C152 C153 1.346 . S
C152 H157 0.930 . S
C153 N150 1.336 . S
C153 C152 1.346 . S
C153 H160 0.929 . S
C154 O144 1.282 . S
C154 O155 1.216 . S
O155 C154 1.216 . S
H156 C151 0.930 . S
H157 C152 0.930 . S
O158 Cu138 1.959 . S
O158 C145 1.251 . S
H159 C142 0.930 . S
H160 C153 0.929 . S
Cu161 N162 1.999 . S
Cu161 O167 1.974 . S
Cu161 N172 1.985 . S
Cu161 O181 1.959 . S
N162 Cu161 1.999 . S
N162 C164 1.263 . S
N162 C166 1.389 . S
N163 C164 1.358 . S
N163 C165 1.400 . S
C164 N162 1.263 . S
C164 N163 1.358 . S
C164 H170 0.930 . S
C165 N163 1.400 . S
C165 C166 1.351 . S
C165 H182 0.930 . S
C166 N162 1.389 . S
C166 C165 1.351 . S
C166 H171 0.930 . S
O167 Cu161 1.974 . S
O167 C177 1.282 . S
C168 O169 1.261 . S
C168 O181 1.251 . S
O169 C168 1.261 . S
H170 C164 0.930 . S
H171 C166 0.930 . S
N172 Cu161 1.985 . S
N172 C174 1.335 . S
N172 C175 1.390 . S
N173 C174 1.345 . S
N173 C176 1.336 . S
C174 N172 1.335 . S
C174 N173 1.345 . S
C174 H179 0.930 . S
C175 N172 1.390 . S
C175 C176 1.346 . S
C175 H180 0.930 . S
C176 N173 1.336 . S
C176 C175 1.346 . S
C176 H183 0.929 . S
C177 O167 1.282 . S
C177 O178 1.216 . S
O178 C177 1.216 . S
H179 C174 0.930 . S
H180 C175 0.930 . S
O181 Cu161 1.959 . S
O181 C168 1.251 . S
H182 C165 0.930 . S
H183 C176 0.929 . S
Cu184 N185 1.999 . S
Cu184 O190 1.974 . S
Cu184 N195 1.985 . S
Cu184 O204 1.959 . S
N185 Cu184 1.999 . S
N185 C187 1.263 . S
N185 C189 1.389 . S
N186 C187 1.358 . S
N186 C188 1.400 . S
C187 N185 1.263 . S
C187 N186 1.358 . S
C187 H193 0.930 . S
C188 N186 1.400 . S
C188 C189 1.351 . S
C188 H205 0.930 . S
C189 N185 1.389 . S
C189 C188 1.351 . S
C189 H194 0.930 . S
O190 Cu184 1.974 . S
O190 C200 1.282 . S
C191 O192 1.261 . S
C191 O204 1.251 . S
O192 C191 1.261 . S
H193 C187 0.930 . S
H194 C189 0.930 . S
N195 Cu184 1.985 . S
N195 C197 1.335 . S
N195 C198 1.390 . S
N196 C197 1.345 . S
N196 C199 1.336 . S
C197 N195 1.335 . S
C197 N196 1.345 . S
C197 H202 0.930 . S
C198 N195 1.390 . S
C198 C199 1.346 . S
C198 H203 0.930 . S
C199 N196 1.336 . S
C199 C198 1.346 . S
C199 H206 0.929 . S
C200 O190 1.282 . S
C200 O201 1.216 . S
O201 C200 1.216 . S
H202 C197 0.930 . S
H203 C198 0.930 . S
O204 Cu184 1.959 . S
O204 C191 1.251 . S
H205 C188 0.930 . S
H206 C199 0.929 . S
Cu207 N208 1.999 . S
Cu207 O213 1.974 . S
Cu207 N218 1.985 . S
Cu207 O227 1.959 . S
N208 Cu207 1.999 . S
N208 C210 1.263 . S
N208 C212 1.389 . S
N209 C210 1.358 . S
N209 C211 1.400 . S
C210 N208 1.263 . S
C210 N209 1.358 . S
C210 H216 0.930 . S
C211 N209 1.400 . S
C211 C212 1.351 . S
C211 H228 0.930 . S
C212 N208 1.389 . S
C212 C211 1.351 . S
C212 H217 0.930 . S
O213 Cu207 1.974 . S
O213 C223 1.282 . S
C214 O215 1.261 . S
C214 O227 1.251 . S
O215 C214 1.261 . S
H216 C210 0.930 . S
H217 C212 0.930 . S
N218 Cu207 1.985 . S
N218 C220 1.335 . S
N218 C221 1.390 . S
N219 C220 1.345 . S
N219 C222 1.336 . S
C220 N218 1.335 . S
C220 N219 1.345 . S
C220 H225 0.930 . S
C221 N218 1.390 . S
C221 C222 1.346 . S
C221 H226 0.930 . S
C222 N219 1.336 . S
C222 C221 1.346 . S
C222 H229 0.929 . S
C223 O213 1.282 . S
C223 O224 1.216 . S
O224 C223 1.216 . S
H225 C220 0.930 . S
H226 C221 0.930 . S
O227 Cu207 1.959 . S
O227 C214 1.251 . S
H228 C211 0.930 . S
H229 C222 0.929 . S
Cu230 N231 1.999 . S
Cu230 O236 1.974 . S
Cu230 N241 1.985 . S
Cu230 O250 1.959 . S
N231 Cu230 1.999 . S
N231 C233 1.263 . S
N231 C235 1.389 . S
N232 C233 1.358 . S
N232 C234 1.400 . S
C233 N231 1.263 . S
C233 N232 1.358 . S
C233 H239 0.930 . S
C234 N232 1.400 . S
C234 C235 1.351 . S
C234 H251 0.930 . S
C235 N231 1.389 . S
C235 C234 1.351 . S
C235 H240 0.930 . S
O236 Cu230 1.974 . S
O236 C246 1.282 . S
C237 O238 1.261 . S
C237 O250 1.251 . S
O238 C237 1.261 . S
H239 C233 0.930 . S
H240 C235 0.930 . S
N241 Cu230 1.985 . S
N241 C243 1.335 . S
N241 C244 1.390 . S
N242 C243 1.345 . S
N242 C245 1.336 . S
C243 N241 1.335 . S
C243 N242 1.345 . S
C243 H248 0.930 . S
C244 N241 1.390 . S
C244 C245 1.346 . S
C244 H249 0.930 . S
C245 N242 1.336 . S
C245 C244 1.346 . S
C245 H252 0.929 . S
C246 O236 1.282 . S
C246 O247 1.216 . S
O247 C246 1.216 . S
H248 C243 0.930 . S
H249 C244 0.930 . S
O250 Cu230 1.959 . S
O250 C237 1.251 . S
H251 C234 0.930 . S
H252 C245 0.929 . S
Cu253 N254 1.999 . S
Cu253 O259 1.974 . S
Cu253 N264 1.985 . S
Cu253 O273 1.959 . S
N254 Cu253 1.999 . S
N254 C256 1.263 . S
N254 C258 1.389 . S
N255 C256 1.358 . S
N255 C257 1.400 . S
C256 N254 1.263 . S
C256 N255 1.358 . S
C256 H262 0.930 . S
C257 N255 1.400 . S
C257 C258 1.351 . S
C257 H274 0.930 . S
C258 N254 1.389 . S
C258 C257 1.351 . S
C258 H263 0.930 . S
O259 Cu253 1.974 . S
O259 C269 1.282 . S
C260 O261 1.261 . S
C260 O273 1.251 . S
O261 C260 1.261 . S
H262 C256 0.930 . S
H263 C258 0.930 . S
N264 Cu253 1.985 . S
N264 C266 1.335 . S
N264 C267 1.390 . S
N265 C266 1.345 . S
N265 C268 1.336 . S
C266 N264 1.335 . S
C266 N265 1.345 . S
C266 H271 0.930 . S
C267 N264 1.390 . S
C267 C268 1.346 . S
C267 H272 0.930 . S
C268 N265 1.336 . S
C268 C267 1.346 . S
C268 H275 0.929 . S
C269 O259 1.282 . S
C269 O270 1.216 . S
O270 C269 1.216 . S
H271 C266 0.930 . S
H272 C267 0.930 . S
O273 Cu253 1.959 . S
O273 C260 1.251 . S
H274 C257 0.930 . S
H275 C268 0.929 . S
Tb276 C278 2.809 . S
Tb276 O296 2.484 . S
Tb276 O297 2.440 . S
Tb276 O298 2.658 . S
Tb276 O299 2.409 . S
Tb276 O300 2.378 . S
Tb276 O304 2.325 . S
Tb276 O307 2.341 . S
Tb277 C287 2.809 . S
Tb277 O298 2.325 . S
Tb277 O301 2.341 . S
Tb277 O302 2.484 . S
Tb277 O303 2.440 . S
Tb277 O304 2.658 . S
Tb277 O305 2.409 . S
Tb277 O306 2.378 . S
C278 Tb276 2.809 . S
C278 C279 1.514 . S
C278 O296 1.248 . S
C278 O297 1.266 . S
C279 C278 1.514 . S
C279 C280 1.359 . S
C279 C284 1.348 . S
C280 C279 1.359 . S
C280 C281 1.380 . S
C280 H308 0.929 . S
C281 C280 1.380 . S
C281 C282 1.347 . S
C281 H309 0.931 . S
C282 C281 1.347 . S
C282 C283 1.369 . S
C283 C282 1.369 . S
C283 C284 1.408 . S
C283 H310 0.930 . S
C284 C279 1.348 . S
C284 C283 1.408 . S
C284 H311 0.930 . S
C285 O298 1.281 . S
C285 O299 1.254 . S
C286 O300 1.236 . S
C286 O301 1.266 . S
C287 Tb277 2.809 . S
C287 C288 1.514 . S
C287 O302 1.248 . S
C287 O303 1.266 . S
C288 C287 1.514 . S
C288 C289 1.359 . S
C288 C293 1.348 . S
C289 C288 1.359 . S
C289 C290 1.380 . S
C289 H312 0.929 . S
C290 C289 1.380 . S
C290 C291 1.347 . S
C290 H313 0.931 . S
C291 C290 1.347 . S
C291 C292 1.369 . S
C292 C291 1.369 . S
C292 C293 1.408 . S
C292 H314 0.930 . S
C293 C288 1.348 . S
C293 C292 1.408 . S
C293 H315 0.930 . S
C294 O304 1.281 . S
C294 O305 1.254 . S
C295 O306 1.236 . S
C295 O307 1.266 . S
O296 Tb276 2.484 . S
O296 C278 1.248 . S
O297 Tb276 2.440 . S
O297 C278 1.266 . S
O298 Tb276 2.658 . S
O298 Tb277 2.325 . S
O298 C285 1.281 . S
O299 Tb276 2.409 . S
O299 C285 1.254 . S
O300 Tb276 2.378 . S
O300 C286 1.236 . S
O301 Tb277 2.341 . S
O301 C286 1.266 . S
O302 Tb277 2.484 . S
O302 C287 1.248 . S
O303 Tb277 2.440 . S
O303 C287 1.266 . S
O304 Tb276 2.325 . S
O304 Tb277 2.658 . S
O304 C294 1.281 . S
O305 Tb277 2.409 . S
O305 C294 1.254 . S
O306 Tb277 2.378 . S
O306 C295 1.236 . S
O307 Tb276 2.341 . S
O307 C295 1.266 . S
H308 C280 0.929 . S
H309 C281 0.931 . S
H310 C283 0.930 . S
H311 C284 0.930 . S
H312 C289 0.929 . S
H313 C290 0.931 . S
H314 C292 0.930 . S
H315 C293 0.930 . S
Tb316 C318 2.809 . S
Tb316 O336 2.484 . S
Tb316 O337 2.440 . S
Tb316 O338 2.658 . S
Tb316 O339 2.409 . S
Tb316 O340 2.378 . S
Tb316 O344 2.325 . S
Tb316 O347 2.341 . S
Tb317 C327 2.809 . S
Tb317 O338 2.325 . S
Tb317 O341 2.341 . S
Tb317 O342 2.484 . S
Tb317 O343 2.440 . S
Tb317 O344 2.658 . S
Tb317 O345 2.409 . S
Tb317 O346 2.378 . S
C318 Tb316 2.809 . S
C318 C319 1.514 . S
C318 O336 1.248 . S
C318 O337 1.266 . S
C319 C318 1.514 . S
C319 C320 1.359 . S
C319 C324 1.348 . S
C320 C319 1.359 . S
C320 C321 1.380 . S
C320 H348 0.929 . S
C321 C320 1.380 . S
C321 C322 1.347 . S
C321 H349 0.931 . S
C322 C321 1.347 . S
C322 C323 1.369 . S
C323 C322 1.369 . S
C323 C324 1.408 . S
C323 H350 0.930 . S
C324 C319 1.348 . S
C324 C323 1.408 . S
C324 H351 0.930 . S
C325 O338 1.281 . S
C325 O339 1.254 . S
C326 O340 1.236 . S
C326 O341 1.266 . S
C327 Tb317 2.809 . S
C327 C328 1.514 . S
C327 O342 1.248 . S
C327 O343 1.266 . S
C328 C327 1.514 . S
C328 C329 1.359 . S
C328 C333 1.348 . S
C329 C328 1.359 . S
C329 C330 1.380 . S
C329 H352 0.929 . S
C330 C329 1.380 . S
C330 C331 1.347 . S
C330 H353 0.931 . S
C331 C330 1.347 . S
C331 C332 1.369 . S
C332 C331 1.369 . S
C332 C333 1.408 . S
C332 H354 0.930 . S
C333 C328 1.348 . S
C333 C332 1.408 . S
C333 H355 0.930 . S
C334 O344 1.281 . S
C334 O345 1.254 . S
C335 O346 1.236 . S
C335 O347 1.266 . S
O336 Tb316 2.484 . S
O336 C318 1.248 . S
O337 Tb316 2.440 . S
O337 C318 1.266 . S
O338 Tb316 2.658 . S
O338 Tb317 2.325 . S
O338 C325 1.281 . S
O339 Tb316 2.409 . S
O339 C325 1.254 . S
O340 Tb316 2.378 . S
O340 C326 1.236 . S
O341 Tb317 2.341 . S
O341 C326 1.266 . S
O342 Tb317 2.484 . S
O342 C327 1.248 . S
O343 Tb317 2.440 . S
O343 C327 1.266 . S
O344 Tb316 2.325 . S
O344 Tb317 2.658 . S
O344 C334 1.281 . S
O345 Tb317 2.409 . S
O345 C334 1.254 . S
O346 Tb317 2.378 . S
O346 C335 1.236 . S
O347 Tb316 2.341 . S
O347 C335 1.266 . S
H348 C320 0.929 . S
H349 C321 0.931 . S
H350 C323 0.930 . S
H351 C324 0.930 . S
H352 C329 0.929 . S
H353 C330 0.931 . S
H354 C332 0.930 . S
H355 C333 0.930 . S
Tb356 C358 2.809 . S
Tb356 O376 2.484 . S
Tb356 O377 2.440 . S
Tb356 O378 2.658 . S
Tb356 O379 2.409 . S
Tb356 O380 2.378 . S
Tb356 O384 2.325 . S
Tb356 O387 2.341 . S
Tb357 C367 2.809 . S
Tb357 O378 2.325 . S
Tb357 O381 2.341 . S
Tb357 O382 2.484 . S
Tb357 O383 2.440 . S
Tb357 O384 2.658 . S
Tb357 O385 2.409 . S
Tb357 O386 2.378 . S
C358 Tb356 2.809 . S
C358 C359 1.514 . S
C358 O376 1.248 . S
C358 O377 1.266 . S
C359 C358 1.514 . S
C359 C360 1.359 . S
C359 C364 1.348 . S
C360 C359 1.359 . S
C360 C361 1.380 . S
C360 H388 0.929 . S
C361 C360 1.380 . S
C361 C362 1.347 . S
C361 H389 0.931 . S
C362 C361 1.347 . S
C362 C363 1.369 . S
C363 C362 1.369 . S
C363 C364 1.408 . S
C363 H390 0.930 . S
C364 C359 1.348 . S
C364 C363 1.408 . S
C364 H391 0.930 . S
C365 O378 1.281 . S
C365 O379 1.254 . S
C366 O380 1.236 . S
C366 O381 1.266 . S
C367 Tb357 2.809 . S
C367 C368 1.514 . S
C367 O382 1.248 . S
C367 O383 1.266 . S
C368 C367 1.514 . S
C368 C369 1.359 . S
C368 C373 1.348 . S
C369 C368 1.359 . S
C369 C370 1.380 . S
C369 H392 0.929 . S
C370 C369 1.380 . S
C370 C371 1.347 . S
C370 H393 0.931 . S
C371 C370 1.347 . S
C371 C372 1.369 . S
C372 C371 1.369 . S
C372 C373 1.408 . S
C372 H394 0.930 . S
C373 C368 1.348 . S
C373 C372 1.408 . S
C373 H395 0.930 . S
C374 O384 1.281 . S
C374 O385 1.254 . S
C375 O386 1.236 . S
C375 O387 1.266 . S
O376 Tb356 2.484 . S
O376 C358 1.248 . S
O377 Tb356 2.440 . S
O377 C358 1.266 . S
O378 Tb356 2.658 . S
O378 Tb357 2.325 . S
O378 C365 1.281 . S
O379 Tb356 2.409 . S
O379 C365 1.254 . S
O380 Tb356 2.378 . S
O380 C366 1.236 . S
O381 Tb357 2.341 . S
O381 C366 1.266 . S
O382 Tb357 2.484 . S
O382 C367 1.248 . S
O383 Tb357 2.440 . S
O383 C367 1.266 . S
O384 Tb356 2.325 . S
O384 Tb357 2.658 . S
O384 C374 1.281 . S
O385 Tb357 2.409 . S
O385 C374 1.254 . S
O386 Tb357 2.378 . S
O386 C375 1.236 . S
O387 Tb356 2.341 . S
O387 C375 1.266 . S
H388 C360 0.929 . S
H389 C361 0.931 . S
H390 C363 0.930 . S
H391 C364 0.930 . S
H392 C369 0.929 . S
H393 C370 0.931 . S
H394 C372 0.930 . S
H395 C373 0.930 . S
Tb396 C398 2.809 . S
Tb396 O416 2.484 . S
Tb396 O417 2.440 . S
Tb396 O418 2.658 . S
Tb396 O419 2.409 . S
Tb396 O420 2.378 . S
Tb396 O424 2.325 . S
Tb396 O427 2.341 . S
Tb397 C407 2.809 . S
Tb397 O418 2.325 . S
Tb397 O421 2.341 . S
Tb397 O422 2.484 . S
Tb397 O423 2.440 . S
Tb397 O424 2.658 . S
Tb397 O425 2.409 . S
Tb397 O426 2.378 . S
C398 Tb396 2.809 . S
C398 C399 1.514 . S
C398 O416 1.248 . S
C398 O417 1.266 . S
C399 C398 1.514 . S
C399 C400 1.359 . S
C399 C404 1.348 . S
C400 C399 1.359 . S
C400 C401 1.380 . S
C400 H428 0.929 . S
C401 C400 1.380 . S
C401 C402 1.347 . S
C401 H429 0.931 . S
C402 C401 1.347 . S
C402 C403 1.369 . S
C403 C402 1.369 . S
C403 C404 1.408 . S
C403 H430 0.930 . S
C404 C399 1.348 . S
C404 C403 1.408 . S
C404 H431 0.930 . S
C405 O418 1.281 . S
C405 O419 1.254 . S
C406 O420 1.236 . S
C406 O421 1.266 . S
C407 Tb397 2.809 . S
C407 C408 1.514 . S
C407 O422 1.248 . S
C407 O423 1.266 . S
C408 C407 1.514 . S
C408 C409 1.359 . S
C408 C413 1.348 . S
C409 C408 1.359 . S
C409 C410 1.380 . S
C409 H432 0.929 . S
C410 C409 1.380 . S
C410 C411 1.347 . S
C410 H433 0.931 . S
C411 C410 1.347 . S
C411 C412 1.369 . S
C412 C411 1.369 . S
C412 C413 1.408 . S
C412 H434 0.930 . S
C413 C408 1.348 . S
C413 C412 1.408 . S
C413 H435 0.930 . S
C414 O424 1.281 . S
C414 O425 1.254 . S
C415 O426 1.236 . S
C415 O427 1.266 . S
O416 Tb396 2.484 . S
O416 C398 1.248 . S
O417 Tb396 2.440 . S
O417 C398 1.266 . S
O418 Tb396 2.658 . S
O418 Tb397 2.325 . S
O418 C405 1.281 . S
O419 Tb396 2.409 . S
O419 C405 1.254 . S
O420 Tb396 2.378 . S
O420 C406 1.236 . S
O421 Tb397 2.341 . S
O421 C406 1.266 . S
O422 Tb397 2.484 . S
O422 C407 1.248 . S
O423 Tb397 2.440 . S
O423 C407 1.266 . S
O424 Tb396 2.325 . S
O424 Tb397 2.658 . S
O424 C414 1.281 . S
O425 Tb397 2.409 . S
O425 C414 1.254 . S
O426 Tb397 2.378 . S
O426 C415 1.236 . S
O427 Tb396 2.341 . S
O427 C415 1.266 . S
H428 C400 0.929 . S
H429 C401 0.931 . S
H430 C403 0.930 . S
H431 C404 0.930 . S
H432 C409 0.929 . S
H433 C410 0.931 . S
H434 C412 0.930 . S
H435 C413 0.930 . S
Tb436 C438 2.809 . S
Tb436 O456 2.484 . S
Tb436 O457 2.440 . S
Tb436 O458 2.658 . S
Tb436 O459 2.409 . S
Tb436 O460 2.378 . S
Tb436 O464 2.325 . S
Tb436 O467 2.341 . S
Tb437 C447 2.809 . S
Tb437 O458 2.325 . S
Tb437 O461 2.341 . S
Tb437 O462 2.484 . S
Tb437 O463 2.440 . S
Tb437 O464 2.658 . S
Tb437 O465 2.409 . S
Tb437 O466 2.378 . S
C438 Tb436 2.809 . S
C438 C439 1.514 . S
C438 O456 1.248 . S
C438 O457 1.266 . S
C439 C438 1.514 . S
C439 C440 1.359 . S
C439 C444 1.348 . S
C440 C439 1.359 . S
C440 C441 1.380 . S
C440 H468 0.929 . S
C441 C440 1.380 . S
C441 C442 1.347 . S
C441 H469 0.931 . S
C442 C441 1.347 . S
C442 C443 1.369 . S
C443 C442 1.369 . S
C443 C444 1.408 . S
C443 H470 0.930 . S
C444 C439 1.348 . S
C444 C443 1.408 . S
C444 H471 0.930 . S
C445 O458 1.281 . S
C445 O459 1.254 . S
C446 O460 1.236 . S
C446 O461 1.266 . S
C447 Tb437 2.809 . S
C447 C448 1.514 . S
C447 O462 1.248 . S
C447 O463 1.266 . S
C448 C447 1.514 . S
C448 C449 1.359 . S
C448 C453 1.348 . S
C449 C448 1.359 . S
C449 C450 1.380 . S
C449 H472 0.929 . S
C450 C449 1.380 . S
C450 C451 1.347 . S
C450 H473 0.931 . S
C451 C450 1.347 . S
C451 C452 1.369 . S
C452 C451 1.369 . S
C452 C453 1.408 . S
C452 H474 0.930 . S
C453 C448 1.348 . S
C453 C452 1.408 . S
C453 H475 0.930 . S
C454 O464 1.281 . S
C454 O465 1.254 . S
C455 O466 1.236 . S
C455 O467 1.266 . S
O456 Tb436 2.484 . S
O456 C438 1.248 . S
O457 Tb436 2.440 . S
O457 C438 1.266 . S
O458 Tb436 2.658 . S
O458 Tb437 2.325 . S
O458 C445 1.281 . S
O459 Tb436 2.409 . S
O459 C445 1.254 . S
O460 Tb436 2.378 . S
O460 C446 1.236 . S
O461 Tb437 2.341 . S
O461 C446 1.266 . S
O462 Tb437 2.484 . S
O462 C447 1.248 . S
O463 Tb437 2.440 . S
O463 C447 1.266 . S
O464 Tb436 2.325 . S
O464 Tb437 2.658 . S
O464 C454 1.281 . S
O465 Tb437 2.409 . S
O465 C454 1.254 . S
O466 Tb437 2.378 . S
O466 C455 1.236 . S
O467 Tb436 2.341 . S
O467 C455 1.266 . S
H468 C440 0.929 . S
H469 C441 0.931 . S
H470 C443 0.930 . S
H471 C444 0.930 . S
H472 C449 0.929 . S
H473 C450 0.931 . S
H474 C452 0.930 . S
H475 C453 0.930 . S
Tb476 C478 2.809 . S
Tb476 O496 2.484 . S
Tb476 O497 2.440 . S
Tb476 O498 2.658 . S
Tb476 O499 2.409 . S
Tb476 O500 2.378 . S
Tb476 O504 2.325 . S
Tb476 O507 2.341 . S
Tb477 C487 2.809 . S
Tb477 O498 2.325 . S
Tb477 O501 2.341 . S
Tb477 O502 2.484 . S
Tb477 O503 2.440 . S
Tb477 O504 2.658 . S
Tb477 O505 2.409 . S
Tb477 O506 2.378 . S
C478 Tb476 2.809 . S
C478 C479 1.514 . S
C478 O496 1.248 . S
C478 O497 1.266 . S
C479 C478 1.514 . S
C479 C480 1.359 . S
C479 C484 1.348 . S
C480 C479 1.359 . S
C480 C481 1.380 . S
C480 H508 0.929 . S
C481 C480 1.380 . S
C481 C482 1.347 . S
C481 H509 0.931 . S
C482 C481 1.347 . S
C482 C483 1.369 . S
C483 C482 1.369 . S
C483 C484 1.408 . S
C483 H510 0.930 . S
C484 C479 1.348 . S
C484 C483 1.408 . S
C484 H511 0.930 . S
C485 O498 1.281 . S
C485 O499 1.254 . S
C486 O500 1.236 . S
C486 O501 1.266 . S
C487 Tb477 2.809 . S
C487 C488 1.514 . S
C487 O502 1.248 . S
C487 O503 1.266 . S
C488 C487 1.514 . S
C488 C489 1.359 . S
C488 C493 1.348 . S
C489 C488 1.359 . S
C489 C490 1.380 . S
C489 H512 0.929 . S
C490 C489 1.380 . S
C490 C491 1.347 . S
C490 H513 0.931 . S
C491 C490 1.347 . S
C491 C492 1.369 . S
C492 C491 1.369 . S
C492 C493 1.408 . S
C492 H514 0.930 . S
C493 C488 1.348 . S
C493 C492 1.408 . S
C493 H515 0.930 . S
C494 O504 1.281 . S
C494 O505 1.254 . S
C495 O506 1.236 . S
C495 O507 1.266 . S
O496 Tb476 2.484 . S
O496 C478 1.248 . S
O497 Tb476 2.440 . S
O497 C478 1.266 . S
O498 Tb476 2.658 . S
O498 Tb477 2.325 . S
O498 C485 1.281 . S
O499 Tb476 2.409 . S
O499 C485 1.254 . S
O500 Tb476 2.378 . S
O500 C486 1.236 . S
O501 Tb477 2.341 . S
O501 C486 1.266 . S
O502 Tb477 2.484 . S
O502 C487 1.248 . S
O503 Tb477 2.440 . S
O503 C487 1.266 . S
O504 Tb476 2.325 . S
O504 Tb477 2.658 . S
O504 C494 1.281 . S
O505 Tb477 2.409 . S
O505 C494 1.254 . S
O506 Tb477 2.378 . S
O506 C495 1.236 . S
O507 Tb476 2.341 . S
O507 C495 1.266 . S
H508 C480 0.929 . S
H509 C481 0.931 . S
H510 C483 0.930 . S
H511 C484 0.930 . S
H512 C489 0.929 . S
H513 C490 0.931 . S
H514 C492 0.930 . S
H515 C493 0.930 . S
Tb516 C518 2.809 . S
Tb516 O536 2.484 . S
Tb516 O537 2.440 . S
Tb516 O538 2.658 . S
Tb516 O539 2.409 . S
Tb516 O540 2.378 . S
Tb516 O544 2.325 . S
Tb516 O547 2.341 . S
Tb517 C527 2.809 . S
Tb517 O538 2.325 . S
Tb517 O541 2.341 . S
Tb517 O542 2.484 . S
Tb517 O543 2.440 . S
Tb517 O544 2.658 . S
Tb517 O545 2.409 . S
Tb517 O546 2.378 . S
C518 Tb516 2.809 . S
C518 C519 1.514 . S
C518 O536 1.248 . S
C518 O537 1.266 . S
C519 C518 1.514 . S
C519 C520 1.359 . S
C519 C524 1.348 . S
C520 C519 1.359 . S
C520 C521 1.380 . S
C520 H548 0.929 . S
C521 C520 1.380 . S
C521 C522 1.347 . S
C521 H549 0.931 . S
C522 C521 1.347 . S
C522 C523 1.369 . S
C523 C522 1.369 . S
C523 C524 1.408 . S
C523 H550 0.930 . S
C524 C519 1.348 . S
C524 C523 1.408 . S
C524 H551 0.930 . S
C525 O538 1.281 . S
C525 O539 1.254 . S
C526 O540 1.236 . S
C526 O541 1.266 . S
C527 Tb517 2.809 . S
C527 C528 1.514 . S
C527 O542 1.248 . S
C527 O543 1.266 . S
C528 C527 1.514 . S
C528 C529 1.359 . S
C528 C533 1.348 . S
C529 C528 1.359 . S
C529 C530 1.380 . S
C529 H552 0.929 . S
C530 C529 1.380 . S
C530 C531 1.347 . S
C530 H553 0.931 . S
C531 C530 1.347 . S
C531 C532 1.369 . S
C532 C531 1.369 . S
C532 C533 1.408 . S
C532 H554 0.930 . S
C533 C528 1.348 . S
C533 C532 1.408 . S
C533 H555 0.930 . S
C534 O544 1.281 . S
C534 O545 1.254 . S
C535 O546 1.236 . S
C535 O547 1.266 . S
O536 Tb516 2.484 . S
O536 C518 1.248 . S
O537 Tb516 2.440 . S
O537 C518 1.266 . S
O538 Tb516 2.658 . S
O538 Tb517 2.325 . S
O538 C525 1.281 . S
O539 Tb516 2.409 . S
O539 C525 1.254 . S
O540 Tb516 2.378 . S
O540 C526 1.236 . S
O541 Tb517 2.341 . S
O541 C526 1.266 . S
O542 Tb517 2.484 . S
O542 C527 1.248 . S
O543 Tb517 2.440 . S
O543 C527 1.266 . S
O544 Tb516 2.325 . S
O544 Tb517 2.658 . S
O544 C534 1.281 . S
O545 Tb517 2.409 . S
O545 C534 1.254 . S
O546 Tb517 2.378 . S
O546 C535 1.236 . S
O547 Tb516 2.341 . S
O547 C535 1.266 . S
H548 C520 0.929 . S
H549 C521 0.931 . S
H550 C523 0.930 . S
H551 C524 0.930 . S
H552 C529 0.929 . S
H553 C530 0.931 . S
H554 C532 0.930 . S
H555 C533 0.930 . S
Tb556 C558 2.809 . S
Tb556 O576 2.484 . S
Tb556 O577 2.440 . S
Tb556 O578 2.658 . S
Tb556 O579 2.409 . S
Tb556 O580 2.378 . S
Tb556 O584 2.325 . S
Tb556 O587 2.341 . S
Tb557 C567 2.809 . S
Tb557 O578 2.325 . S
Tb557 O581 2.341 . S
Tb557 O582 2.484 . S
Tb557 O583 2.440 . S
Tb557 O584 2.658 . S
Tb557 O585 2.409 . S
Tb557 O586 2.378 . S
C558 Tb556 2.809 . S
C558 C559 1.514 . S
C558 O576 1.248 . S
C558 O577 1.266 . S
C559 C558 1.514 . S
C559 C560 1.359 . S
C559 C564 1.348 . S
C560 C559 1.359 . S
C560 C561 1.380 . S
C560 H588 0.929 . S
C561 C560 1.380 . S
C561 C562 1.347 . S
C561 H589 0.931 . S
C562 C561 1.347 . S
C562 C563 1.369 . S
C563 C562 1.369 . S
C563 C564 1.408 . S
C563 H590 0.930 . S
C564 C559 1.348 . S
C564 C563 1.408 . S
C564 H591 0.930 . S
C565 O578 1.281 . S
C565 O579 1.254 . S
C566 O580 1.236 . S
C566 O581 1.266 . S
C567 Tb557 2.809 . S
C567 C568 1.514 . S
C567 O582 1.248 . S
C567 O583 1.266 . S
C568 C567 1.514 . S
C568 C569 1.359 . S
C568 C573 1.348 . S
C569 C568 1.359 . S
C569 C570 1.380 . S
C569 H592 0.929 . S
C570 C569 1.380 . S
C570 C571 1.347 . S
C570 H593 0.931 . S
C571 C570 1.347 . S
C571 C572 1.369 . S
C572 C571 1.369 . S
C572 C573 1.408 . S
C572 H594 0.930 . S
C573 C568 1.348 . S
C573 C572 1.408 . S
C573 H595 0.930 . S
C574 O584 1.281 . S
C574 O585 1.254 . S
C575 O586 1.236 . S
C575 O587 1.266 . S
O576 Tb556 2.484 . S
O576 C558 1.248 . S
O577 Tb556 2.440 . S
O577 C558 1.266 . S
O578 Tb556 2.658 . S
O578 Tb557 2.325 . S
O578 C565 1.281 . S
O579 Tb556 2.409 . S
O579 C565 1.254 . S
O580 Tb556 2.378 . S
O580 C566 1.236 . S
O581 Tb557 2.341 . S
O581 C566 1.266 . S
O582 Tb557 2.484 . S
O582 C567 1.248 . S
O583 Tb557 2.440 . S
O583 C567 1.266 . S
O584 Tb556 2.325 . S
O584 Tb557 2.658 . S
O584 C574 1.281 . S
O585 Tb557 2.409 . S
O585 C574 1.254 . S
O586 Tb557 2.378 . S
O586 C575 1.236 . S
O587 Tb556 2.341 . S
O587 C575 1.266 . S
H588 C560 0.929 . S
H589 C561 0.931 . S
H590 C563 0.930 . S
H591 C564 0.930 . S
H592 C569 0.929 . S
H593 C570 0.931 . S
H594 C572 0.930 . S
H595 C573 0.930 . S
H596 C608 0.930 . S
H597 C610 0.930 . S
H598 C611 0.930 . S
H599 C615 0.959 . S
H600 C615 0.959 . S
H601 C615 0.961 . S
H602 C616 0.960 . S
H603 C616 0.961 . S
H604 C616 0.959 . S
H605 C619 0.929 . S
H606 C620 0.931 . S
H607 C622 0.930 . S
C608 H596 0.930 . S
C608 C609 1.399 . S
C608 C613 1.399 . S
C609 C608 1.399 . S
C609 C610 1.376 . S
C610 H597 0.930 . S
C610 C609 1.376 . S
C610 C611 1.388 . S
C611 H598 0.930 . S
C611 C610 1.388 . S
C611 C612 1.390 . S
C612 C611 1.390 . S
C612 C613 1.394 . S
C612 C618 1.465 . S
C613 C608 1.399 . S
C613 C612 1.394 . S
C613 C614 1.516 . S
C614 C613 1.516 . S
C614 C615 1.502 . S
C614 C616 1.561 . S
C614 C617 1.526 . S
C615 H599 0.959 . S
C615 H600 0.959 . S
C615 H601 0.961 . S
C615 C614 1.502 . S
C616 H602 0.960 . S
C616 H603 0.961 . S
C616 H604 0.959 . S
C616 C614 1.561 . S
C617 C614 1.526 . S
C617 C618 1.396 . S
C617 C622 1.390 . S
C618 C612 1.465 . S
C618 C617 1.396 . S
C618 C619 1.399 . S
C619 H605 0.929 . S
C619 C618 1.399 . S
C619 C620 1.385 . S
C620 H606 0.931 . S
C620 C619 1.385 . S
C620 C621 1.389 . S
C621 C620 1.389 . S
C621 C622 1.387 . S
C622 H607 0.930 . S
C622 C617 1.390 . S
C622 C621 1.387 . S
H623 C635 0.930 . S
H624 C637 0.930 . S
H625 C638 0.930 . S
H626 C642 0.959 . S
H627 C642 0.959 . S
H628 C642 0.961 . S
H629 C643 0.960 . S
H630 C643 0.961 . S
H631 C643 0.959 . S
H632 C646 0.929 . S
H633 C647 0.931 . S
H634 C649 0.930 . S
C635 H623 0.930 . S
C635 C636 1.399 . S
C635 C640 1.399 . S
C636 C635 1.399 . S
C636 C637 1.376 . S
C637 H624 0.930 . S
C637 C636 1.376 . S
C637 C638 1.388 . S
C638 H625 0.930 . S
C638 C637 1.388 . S
C638 C639 1.390 . S
C639 C638 1.390 . S
C639 C640 1.394 . S
C639 C645 1.465 . S
C640 C635 1.399 . S
C640 C639 1.394 . S
C640 C641 1.516 . S
C641 C640 1.516 . S
C641 C642 1.502 . S
C641 C643 1.561 . S
C641 C644 1.526 . S
C642 H626 0.959 . S
C642 H627 0.959 . S
C642 H628 0.961 . S
C642 C641 1.502 . S
C643 H629 0.960 . S
C643 H630 0.961 . S
C643 H631 0.959 . S
C643 C641 1.561 . S
C644 C641 1.526 . S
C644 C645 1.396 . S
C644 C649 1.390 . S
C645 C639 1.465 . S
C645 C644 1.396 . S
C645 C646 1.399 . S
C646 H632 0.929 . S
C646 C645 1.399 . S
C646 C647 1.385 . S
C647 H633 0.931 . S
C647 C646 1.385 . S
C647 C648 1.389 . S
C648 C647 1.389 . S
C648 C649 1.387 . S
C649 H634 0.930 . S
C649 C644 1.390 . S
C649 C648 1.387 . S
H650 C662 0.930 . S
H651 C664 0.930 . S
H652 C665 0.930 . S
H653 C669 0.959 . S
H654 C669 0.959 . S
H655 C669 0.961 . S
H656 C670 0.948 1_545 S
H657 C670 0.961 . S
H658 C670 0.974 . S
H659 C673 0.929 . S
H660 C674 0.931 . S
H661 C676 0.930 . S
C662 H650 0.930 . S
C662 C663 1.399 1_565 S
C662 C667 1.399 . S
C663 C662 1.399 1_545 S
C663 C664 1.376 . S
C664 H651 0.930 . S
C664 C663 1.376 . S
C664 C665 1.388 1_545 S
C665 H652 0.930 . S
C665 C664 1.388 1_565 S
C665 C666 1.390 . S
C666 C665 1.390 . S
C666 C667 1.394 . S
C666 C672 1.465 . S
C667 C662 1.399 . S
C667 C666 1.394 . S
C667 C668 1.516 . S
C668 C667 1.516 . S
C668 C669 1.502 . S
C668 C670 1.561 . S
C668 C671 1.526 . S
C669 H653 0.959 . S
C669 H654 0.959 . S
C669 H655 0.961 . S
C669 C668 1.502 . S
C670 H656 0.948 1_565 S
C670 H657 0.961 . S
C670 H658 0.974 . S
C670 C668 1.561 . S
C671 C668 1.526 . S
C671 C672 1.396 . S
C671 C676 1.390 . S
C672 C666 1.465 . S
C672 C671 1.396 . S
C672 C673 1.399 . S
C673 H659 0.929 . S
C673 C672 1.399 . S
C673 C674 1.385 . S
C674 H660 0.931 . S
C674 C673 1.385 . S
C674 C675 1.389 . S
C675 C674 1.389 . S
C675 C676 1.387 . S
C676 H661 0.930 . S
C676 C671 1.390 . S
C676 C675 1.387 . S
H677 C689 0.930 . S
H678 C691 0.930 . S
H679 C692 0.930 . S
H680 C696 0.959 . S
H681 C696 0.959 . S
H682 C696 0.961 . S
H683 C697 0.960 . S
H684 C697 0.961 . S
H685 C697 0.959 . S
H686 C700 0.929 . S
H687 C701 0.931 . S
H688 C703 0.930 . S
C689 H677 0.930 . S
C689 C690 1.399 . S
C689 C694 1.399 . S
C690 C689 1.399 . S
C690 C691 1.376 . S
C691 H678 0.930 . S
C691 C690 1.376 . S
C691 C692 1.388 . S
C692 H679 0.930 . S
C692 C691 1.388 . S
C692 C693 1.390 . S
C693 C692 1.390 . S
C693 C694 1.394 . S
C693 C699 1.465 . S
C694 C689 1.399 . S
C694 C693 1.394 . S
C694 C695 1.516 . S
C695 C694 1.516 . S
C695 C696 1.502 . S
C695 C697 1.561 . S
C695 C698 1.526 . S
C696 H680 0.959 . S
C696 H681 0.959 . S
C696 H682 0.961 . S
C696 C695 1.502 . S
C697 H683 0.960 . S
C697 H684 0.961 . S
C697 H685 0.959 . S
C697 C695 1.561 . S
C698 C695 1.526 . S
C698 C699 1.396 . S
C698 C703 1.390 . S
C699 C693 1.465 . S
C699 C698 1.396 . S
C699 C700 1.399 . S
C700 H686 0.929 . S
C700 C699 1.399 . S
C700 C701 1.385 . S
C701 H687 0.931 . S
C701 C700 1.385 . S
C701 C702 1.389 . S
C702 C701 1.389 . S
C702 C703 1.387 . S
C703 H688 0.930 . S
C703 C698 1.390 . S
C703 C702 1.387 . S
H704 C716 0.930 . S
H705 C718 0.930 . S
H706 C719 0.930 . S
H707 C723 0.959 . S
H708 C723 0.959 . S
H709 C723 0.961 . S
H710 C724 0.960 . S
H711 C724 0.961 . S
H712 C724 0.959 . S
H713 C727 0.929 . S
H714 C728 0.931 . S
H715 C730 0.930 . S
C716 H704 0.930 . S
C716 C717 1.399 . S
C716 C721 1.399 . S
C717 C716 1.399 . S
C717 C718 1.376 . S
C718 H705 0.930 . S
C718 C717 1.376 . S
C718 C719 1.388 . S
C719 H706 0.930 . S
C719 C718 1.388 . S
C719 C720 1.390 . S
C720 C719 1.390 . S
C720 C721 1.394 . S
C720 C726 1.465 . S
C721 C716 1.399 . S
C721 C720 1.394 . S
C721 C722 1.516 . S
C722 C721 1.516 . S
C722 C723 1.502 . S
C722 C724 1.561 . S
C722 C725 1.526 . S
C723 H707 0.959 . S
C723 H708 0.959 . S
C723 H709 0.961 . S
C723 C722 1.502 . S
C724 H710 0.960 . S
C724 H711 0.961 . S
C724 H712 0.959 . S
C724 C722 1.561 . S
C725 C722 1.526 . S
C725 C726 1.396 . S
C725 C730 1.390 . S
C726 C720 1.465 . S
C726 C725 1.396 . S
C726 C727 1.399 . S
C727 H713 0.929 . S
C727 C726 1.399 . S
C727 C728 1.385 . S
C728 H714 0.931 . S
C728 C727 1.385 . S
C728 C729 1.389 . S
C729 C728 1.389 . S
C729 C730 1.387 . S
C730 H715 0.930 . S
C730 C725 1.390 . S
C730 C729 1.387 . S
H731 C743 0.930 . S
H732 C745 0.930 . S
H733 C746 0.930 . S
H734 C750 0.959 . S
H735 C750 0.959 . S
H736 C750 0.961 . S
H737 C751 0.960 . S
H738 C751 0.961 . S
H739 C751 0.959 . S
H740 C754 0.929 . S
H741 C755 0.931 . S
H742 C757 0.930 . S
C743 H731 0.930 . S
C743 C744 1.399 . S
C743 C748 1.399 . S
C744 C743 1.399 . S
C744 C745 1.376 . S
C745 H732 0.930 . S
C745 C744 1.376 . S
C745 C746 1.388 . S
C746 H733 0.930 . S
C746 C745 1.388 . S
C746 C747 1.390 . S
C747 C746 1.390 . S
C747 C748 1.394 . S
C747 C753 1.465 . S
C748 C743 1.399 . S
C748 C747 1.394 . S
C748 C749 1.516 . S
C749 C748 1.516 . S
C749 C750 1.502 . S
C749 C751 1.561 . S
C749 C752 1.526 . S
C750 H734 0.959 . S
C750 H735 0.959 . S
C750 H736 0.961 . S
C750 C749 1.502 . S
C751 H737 0.960 . S
C751 H738 0.961 . S
C751 H739 0.959 . S
C751 C749 1.561 . S
C752 C749 1.526 . S
C752 C753 1.396 . S
C752 C757 1.390 . S
C753 C747 1.465 . S
C753 C752 1.396 . S
C753 C754 1.399 . S
C754 H740 0.929 . S
C754 C753 1.399 . S
C754 C755 1.385 . S
C755 H741 0.931 . S
C755 C754 1.385 . S
C755 C756 1.389 . S
C756 C755 1.389 . S
C756 C757 1.387 . S
C757 H742 0.930 . S
C757 C752 1.390 . S
C757 C756 1.387 . S
H758 C770 0.930 . S
H759 C772 0.930 . S
H760 C773 0.930 . S
H761 C777 0.959 . S
H762 C777 0.959 . S
H763 C777 0.961 . S
H764 C778 0.960 . S
H765 C778 0.961 . S
H766 C778 0.959 . S
H767 C781 0.929 . S
H768 C782 0.931 . S
H769 C784 0.930 . S
C770 H758 0.930 . S
C770 C771 1.399 . S
C770 C775 1.399 . S
C771 C770 1.399 . S
C771 C772 1.376 . S
C772 H759 0.930 . S
C772 C771 1.376 . S
C772 C773 1.388 . S
C773 H760 0.930 . S
C773 C772 1.388 . S
C773 C774 1.390 . S
C774 C773 1.390 . S
C774 C775 1.394 . S
C774 C780 1.465 . S
C775 C770 1.399 . S
C775 C774 1.394 . S
C775 C776 1.516 . S
C776 C775 1.516 . S
C776 C777 1.502 . S
C776 C778 1.561 . S
C776 C779 1.526 . S
C777 H761 0.959 . S
C777 H762 0.959 . S
C777 H763 0.961 . S
C777 C776 1.502 . S
C778 H764 0.960 . S
C778 H765 0.961 . S
C778 H766 0.959 . S
C778 C776 1.561 . S
C779 C776 1.526 . S
C779 C780 1.396 . S
C779 C784 1.390 . S
C780 C774 1.465 . S
C780 C779 1.396 . S
C780 C781 1.399 . S
C781 H767 0.929 . S
C781 C780 1.399 . S
C781 C782 1.385 . S
C782 H768 0.931 . S
C782 C781 1.385 . S
C782 C783 1.389 . S
C783 C782 1.389 . S
C783 C784 1.387 . S
C784 H769 0.930 . S
C784 C779 1.390 . S
C784 C783 1.387 . S
H785 C797 0.930 . S
H786 C799 0.930 . S
H787 C800 0.930 . S
H788 C804 0.959 . S
H789 C804 0.959 . S
H790 C804 0.961 . S
H791 C805 0.960 1_545 S
H792 C805 0.961 . S
H793 C805 0.959 1_545 S
H794 C808 0.929 . S
H795 C809 0.931 . S
H796 C811 0.930 . S
C797 H785 0.930 . S
C797 C798 1.399 1_565 S
C797 C802 1.399 . S
C798 C797 1.399 1_545 S
C798 C799 1.376 . S
C799 H786 0.930 . S
C799 C798 1.376 . S
C799 C800 1.388 1_545 S
C800 H787 0.930 . S
C800 C799 1.388 1_565 S
C800 C801 1.390 . S
C801 C800 1.390 . S
C801 C802 1.394 . S
C801 C807 1.465 . S
C802 C797 1.399 . S
C802 C801 1.394 . S
C802 C803 1.516 . S
C803 C802 1.516 . S
C803 C804 1.502 . S
C803 C805 1.561 . S
C803 C806 1.526 . S
C804 H788 0.959 . S
C804 H789 0.959 . S
C804 H790 0.961 . S
C804 C803 1.502 . S
C805 H791 0.960 1_565 S
C805 H792 0.961 . S
C805 H793 0.959 1_565 S
C805 C803 1.561 . S
C806 C803 1.526 . S
C806 C807 1.396 . S
C806 C811 1.390 . S
C807 C801 1.465 . S
C807 C806 1.396 . S
C807 C808 1.399 . S
C808 H794 0.929 . S
C808 C807 1.399 . S
C808 C809 1.385 . S
C809 H795 0.931 . S
C809 C808 1.385 . S
C809 C810 1.389 . S
C810 C809 1.389 . S
C810 C811 1.387 . S
C811 H796 0.930 . S
C811 C806 1.390 . S
C811 C810 1.387 . S
H812 C824 0.930 . S
H813 C826 0.930 . S
H814 C827 0.930 . S
H815 C831 0.959 . S
H816 C831 0.959 . S
H817 C831 0.961 . S
H818 C832 0.960 . S
H819 C832 0.961 . S
H820 C832 0.959 . S
H821 C835 0.929 . S
H822 C836 0.931 . S
H823 C838 0.930 . S
C824 H812 0.930 . S
C824 C825 1.399 . S
C824 C829 1.399 . S
C825 C824 1.399 . S
C825 C826 1.376 . S
C826 H813 0.930 . S
C826 C825 1.376 . S
C826 C827 1.388 . S
C827 H814 0.930 . S
C827 C826 1.388 . S
C827 C828 1.390 . S
C828 C827 1.390 . S
C828 C829 1.394 . S
C828 C834 1.465 . S
C829 C824 1.399 . S
C829 C828 1.394 . S
C829 C830 1.516 . S
C830 C829 1.516 . S
C830 C831 1.502 . S
C830 C832 1.561 . S
C830 C833 1.526 . S
C831 H815 0.959 . S
C831 H816 0.959 . S
C831 H817 0.961 . S
C831 C830 1.502 . S
C832 H818 0.960 . S
C832 H819 0.961 . S
C832 H820 0.959 . S
C832 C830 1.561 . S
C833 C830 1.526 . S
C833 C834 1.396 . S
C833 C838 1.390 . S
C834 C828 1.465 . S
C834 C833 1.396 . S
C834 C835 1.399 . S
C835 H821 0.929 . S
C835 C834 1.399 . S
C835 C836 1.385 . S
C836 H822 0.931 . S
C836 C835 1.385 . S
C836 C837 1.389 . S
C837 C836 1.389 . S
C837 C838 1.387 . S
C838 H823 0.930 . S
C838 C833 1.390 . S
C838 C837 1.387 . S
H839 C851 0.930 . S
H840 C853 0.930 . S
H841 C854 0.930 . S
H842 C858 0.959 . S
H843 C858 0.959 . S
H844 C858 0.961 . S
H845 C859 0.960 . S
H846 C859 0.961 . S
H847 C859 0.959 . S
H848 C862 0.929 . S
H849 C863 0.931 . S
H850 C865 0.930 . S
C851 H839 0.930 . S
C851 C852 1.399 . S
C851 C856 1.399 . S
C852 C851 1.399 . S
C852 C853 1.376 . S
C853 H840 0.930 . S
C853 C852 1.376 . S
C853 C854 1.388 . S
C854 H841 0.930 . S
C854 C853 1.388 . S
C854 C855 1.390 . S
C855 C854 1.390 . S
C855 C856 1.394 . S
C855 C861 1.465 . S
C856 C851 1.399 . S
C856 C855 1.394 . S
C856 C857 1.516 . S
C857 C856 1.516 . S
C857 C858 1.502 . S
C857 C859 1.561 . S
C857 C860 1.526 . S
C858 H842 0.959 . S
C858 H843 0.959 . S
C858 H844 0.961 . S
C858 C857 1.502 . S
C859 H845 0.960 . S
C859 H846 0.961 . S
C859 H847 0.959 . S
C859 C857 1.561 . S
C860 C857 1.526 . S
C860 C861 1.396 . S
C860 C865 1.390 . S
C861 C855 1.465 . S
C861 C860 1.396 . S
C861 C862 1.399 . S
C862 H848 0.929 . S
C862 C861 1.399 . S
C862 C863 1.385 . S
C863 H849 0.931 . S
C863 C862 1.385 . S
C863 C864 1.389 . S
C864 C863 1.389 . S
C864 C865 1.387 . S
C865 H850 0.930 . S
C865 C860 1.390 . S
C865 C864 1.387 . S
H866 C878 0.930 . S
H867 C880 0.930 . S
H868 C881 0.930 . S
H869 C885 0.959 . S
H870 C885 0.959 . S
H871 C885 0.961 . S
H872 C886 0.960 . S
H873 C886 0.961 . S
H874 C886 0.959 . S
H875 C889 0.929 . S
H876 C890 0.931 . S
H877 C892 0.930 . S
C878 H866 0.930 . S
C878 C879 1.399 . S
C878 C883 1.399 . S
C879 C878 1.399 . S
C879 C880 1.376 . S
C880 H867 0.930 . S
C880 C879 1.376 . S
C880 C881 1.388 . S
C881 H868 0.930 . S
C881 C880 1.388 . S
C881 C882 1.390 . S
C882 C881 1.390 . S
C882 C883 1.394 . S
C882 C888 1.465 . S
C883 C878 1.399 . S
C883 C882 1.394 . S
C883 C884 1.516 . S
C884 C883 1.516 . S
C884 C885 1.502 . S
C884 C886 1.561 . S
C884 C887 1.526 . S
C885 H869 0.959 . S
C885 H870 0.959 . S
C885 H871 0.961 . S
C885 C884 1.502 . S
C886 H872 0.960 . S
C886 H873 0.961 . S
C886 H874 0.959 . S
C886 C884 1.561 . S
C887 C884 1.526 . S
C887 C888 1.396 . S
C887 C892 1.390 . S
C888 C882 1.465 . S
C888 C887 1.396 . S
C888 C889 1.399 . S
C889 H875 0.929 . S
C889 C888 1.399 . S
C889 C890 1.385 . S
C890 H876 0.931 . S
C890 C889 1.385 . S
C890 C891 1.389 . S
C891 C890 1.389 . S
C891 C892 1.387 . S
C892 H877 0.930 . S
C892 C887 1.390 . S
C892 C891 1.387 . S
H893 C905 0.930 . S
H894 C907 0.930 . S
H895 C908 0.930 . S
H896 C912 0.959 . S
H897 C912 0.959 . S
H898 C912 0.961 . S
H899 C913 0.960 . S
H900 C913 0.961 . S
H901 C913 0.959 . S
H902 C916 0.929 . S
H903 C917 0.931 . S
H904 C919 0.930 . S
C905 H893 0.930 . S
C905 C906 1.399 . S
C905 C910 1.399 . S
C906 C905 1.399 . S
C906 C907 1.376 . S
C907 H894 0.930 . S
C907 C906 1.376 . S
C907 C908 1.388 . S
C908 H895 0.930 . S
C908 C907 1.388 . S
C908 C909 1.390 . S
C909 C908 1.390 . S
C909 C910 1.394 . S
C909 C915 1.465 . S
C910 C905 1.399 . S
C910 C909 1.394 . S
C910 C911 1.516 . S
C911 C910 1.516 . S
C911 C912 1.502 . S
C911 C913 1.561 . S
C911 C914 1.526 . S
C912 H896 0.959 . S
C912 H897 0.959 . S
C912 H898 0.961 . S
C912 C911 1.502 . S
C913 H899 0.960 . S
C913 H900 0.961 . S
C913 H901 0.959 . S
C913 C911 1.561 . S
C914 C911 1.526 . S
C914 C915 1.396 . S
C914 C919 1.390 . S
C915 C909 1.465 . S
C915 C914 1.396 . S
C915 C916 1.399 . S
C916 H902 0.929 . S
C916 C915 1.399 . S
C916 C917 1.385 . S
C917 H903 0.931 . S
C917 C916 1.385 . S
C917 C918 1.389 . S
C918 C917 1.389 . S
C918 C919 1.387 . S
C919 H904 0.930 . S
C919 C914 1.390 . S
C919 C918 1.387 . S
H920 C932 0.930 . S
H921 C934 0.930 . S
H922 C935 0.930 . S
H923 C939 0.959 . S
H924 C939 0.959 . S
H925 C939 0.961 1_554 S
H926 C940 0.960 1_554 S
H927 C940 0.961 1_554 S
H928 C940 0.959 . S
H929 C943 0.929 . S
H930 C944 0.931 . S
H931 C946 0.930 . S
C932 H920 0.930 . S
C932 C933 1.399 . S
C932 C937 1.399 1_545 S
C933 C932 1.399 . S
C933 C934 1.376 . S
C934 H921 0.930 . S
C934 C933 1.376 . S
C934 C935 1.388 . S
C935 H922 0.930 . S
C935 C934 1.388 . S
C935 C936 1.390 1_545 S
C936 C935 1.390 1_565 S
C936 C937 1.394 . S
C936 C942 1.465 . S
C937 C932 1.399 1_565 S
C937 C936 1.394 . S
C937 C938 1.516 . S
C938 C937 1.516 . S
C938 C939 1.502 . S
C938 C940 1.561 . S
C938 C941 1.526 . S
C939 H923 0.959 . S
C939 H924 0.959 . S
C939 H925 0.961 1_556 S
C939 C938 1.502 . S
C940 H926 0.960 1_556 S
C940 H927 0.961 1_556 S
C940 H928 0.959 . S
C940 C938 1.561 . S
C941 C938 1.526 . S
C941 C942 1.396 . S
C941 C946 1.390 . S
C942 C936 1.465 . S
C942 C941 1.396 . S
C942 C943 1.399 . S
C943 H929 0.929 . S
C943 C942 1.399 . S
C943 C944 1.385 . S
C944 H930 0.931 . S
C944 C943 1.385 . S
C944 C945 1.389 . S
C945 C944 1.389 . S
C945 C946 1.387 . S
C946 H931 0.930 . S
C946 C941 1.390 . S
C946 C945 1.387 . S
H947 C959 0.930 . S
H948 C961 0.930 . S
H949 C962 0.930 . S
H950 C966 0.959 . S
H951 C966 0.959 . S
H952 C966 0.961 . S
H953 C967 0.960 . S
H954 C967 0.961 . S
H955 C967 0.959 . S
H956 C970 0.929 . S
H957 C971 0.931 . S
H958 C973 0.930 . S
C959 H947 0.930 . S
C959 C960 1.399 . S
C959 C964 1.399 . S
C960 C959 1.399 . S
C960 C961 1.376 . S
C961 H948 0.930 . S
C961 C960 1.376 . S
C961 C962 1.388 . S
C962 H949 0.930 . S
C962 C961 1.388 . S
C962 C963 1.390 . S
C963 C962 1.390 . S
C963 C964 1.394 . S
C963 C969 1.465 . S
C964 C959 1.399 . S
C964 C963 1.394 . S
C964 C965 1.516 . S
C965 C964 1.516 . S
C965 C966 1.502 . S
C965 C967 1.561 . S
C965 C968 1.526 . S
C966 H950 0.959 . S
C966 H951 0.959 . S
C966 H952 0.961 . S
C966 C965 1.502 . S
C967 H953 0.960 . S
C967 H954 0.961 . S
C967 H955 0.959 . S
C967 C965 1.561 . S
C968 C965 1.526 . S
C968 C969 1.396 . S
C968 C973 1.390 . S
C969 C963 1.465 . S
C969 C968 1.396 . S
C969 C970 1.399 . S
C970 H956 0.929 . S
C970 C969 1.399 . S
C970 C971 1.385 . S
C971 H957 0.931 . S
C971 C970 1.385 . S
C971 C972 1.389 . S
C972 C971 1.389 . S
C972 C973 1.387 . S
C973 H958 0.930 . S
C973 C968 1.390 . S
C973 C972 1.387 . S
H974 C986 0.930 . S
H975 C988 0.930 . S
H976 C989 0.930 . S
H977 C993 0.959 . S
H978 C993 0.959 . S
H979 C993 0.961 . S
H980 C994 0.960 . S
H981 C994 0.961 . S
H982 C994 0.959 . S
H983 C997 0.929 . S
H984 C998 0.931 . S
H985 C1000 0.930 . S
C986 H974 0.930 . S
C986 C987 1.399 . S
C986 C991 1.399 . S
C987 C986 1.399 . S
C987 C988 1.376 . S
C988 H975 0.930 . S
C988 C987 1.376 . S
C988 C989 1.388 . S
C989 H976 0.930 . S
C989 C988 1.388 . S
C989 C990 1.390 . S
C990 C989 1.390 . S
C990 C991 1.394 . S
C990 C996 1.465 . S
C991 C986 1.399 . S
C991 C990 1.394 . S
C991 C992 1.516 . S
C992 C991 1.516 . S
C992 C993 1.502 . S
C992 C994 1.561 . S
C992 C995 1.526 . S
C993 H977 0.959 . S
C993 H978 0.959 . S
C993 H979 0.961 . S
C993 C992 1.502 . S
C994 H980 0.960 . S
C994 H981 0.961 . S
C994 H982 0.959 . S
C994 C992 1.561 . S
C995 C992 1.526 . S
C995 C996 1.396 . S
C995 C1000 1.390 . S
C996 C990 1.465 . S
C996 C995 1.396 . S
C996 C997 1.399 . S
C997 H983 0.929 . S
C997 C996 1.399 . S
C997 C998 1.385 . S
C998 H984 0.931 . S
C998 C997 1.385 . S
C998 C999 1.389 . S
C999 C998 1.389 . S
C999 C1000 1.387 . S
C1000 H985 0.930 . S
C1000 C995 1.390 . S
C1000 C999 1.387 . S
H1001 C1013 0.930 . S
H1002 C1015 0.930 . S
H1003 C1016 0.930 . S
H1004 C1020 0.959 . S
H1005 C1020 0.959 . S
H1006 C1020 0.961 . S
H1007 C1021 0.960 . S
H1008 C1021 0.961 . S
H1009 C1021 0.959 . S
H1010 C1024 0.929 . S
H1011 C1025 0.931 . S
H1012 C1027 0.930 . S
C1013 H1001 0.930 . S
C1013 C1014 1.399 . S
C1013 C1018 1.399 . S
C1014 C1013 1.399 . S
C1014 C1015 1.376 . S
C1015 H1002 0.930 . S
C1015 C1014 1.376 . S
C1015 C1016 1.388 . S
C1016 H1003 0.930 . S
C1016 C1015 1.388 . S
C1016 C1017 1.390 . S
C1017 C1016 1.390 . S
C1017 C1018 1.394 . S
C1017 C1023 1.465 . S
C1018 C1013 1.399 . S
C1018 C1017 1.394 . S
C1018 C1019 1.516 . S
C1019 C1018 1.516 . S
C1019 C1020 1.502 . S
C1019 C1021 1.561 . S
C1019 C1022 1.526 . S
C1020 H1004 0.959 . S
C1020 H1005 0.959 . S
C1020 H1006 0.961 . S
C1020 C1019 1.502 . S
C1021 H1007 0.960 . S
C1021 H1008 0.961 . S
C1021 H1009 0.959 . S
C1021 C1019 1.561 . S
C1022 C1019 1.526 . S
C1022 C1023 1.396 . S
C1022 C1027 1.390 . S
C1023 C1017 1.465 . S
C1023 C1022 1.396 . S
C1023 C1024 1.399 . S
C1024 H1010 0.929 . S
C1024 C1023 1.399 . S
C1024 C1025 1.385 . S
C1025 H1011 0.931 . S
C1025 C1024 1.385 . S
C1025 C1026 1.389 . S
C1026 C1025 1.389 . S
C1026 C1027 1.387 . S
C1027 H1012 0.930 . S
C1027 C1022 1.390 . S
C1027 C1026 1.387 . S
H1028 C1040 0.930 . S
H1029 C1042 0.930 . S
H1030 C1043 0.930 . S
H1031 C1047 0.959 . S
H1032 C1047 0.959 . S
H1033 C1047 0.961 . S
H1034 C1048 0.960 . S
H1035 C1048 0.961 . S
H1036 C1048 0.959 . S
H1037 C1051 0.929 . S
H1038 C1052 0.931 . S
H1039 C1054 0.930 . S
C1040 H1028 0.930 . S
C1040 C1041 1.399 . S
C1040 C1045 1.399 . S
C1041 C1040 1.399 . S
C1041 C1042 1.376 . S
C1042 H1029 0.930 . S
C1042 C1041 1.376 . S
C1042 C1043 1.388 . S
C1043 H1030 0.930 . S
C1043 C1042 1.388 . S
C1043 C1044 1.390 . S
C1044 C1043 1.390 . S
C1044 C1045 1.394 . S
C1044 C1050 1.465 . S
C1045 C1040 1.399 . S
C1045 C1044 1.394 . S
C1045 C1046 1.516 . S
C1046 C1045 1.516 . S
C1046 C1047 1.502 . S
C1046 C1048 1.561 . S
C1046 C1049 1.526 . S
C1047 H1031 0.959 . S
C1047 H1032 0.959 . S
C1047 H1033 0.961 . S
C1047 C1046 1.502 . S
C1048 H1034 0.960 . S
C1048 H1035 0.961 . S
C1048 H1036 0.959 . S
C1048 C1046 1.561 . S
C1049 C1046 1.526 . S
C1049 C1050 1.396 . S
C1049 C1054 1.390 . S
C1050 C1044 1.465 . S
C1050 C1049 1.396 . S
C1050 C1051 1.399 . S
C1051 H1037 0.929 . S
C1051 C1050 1.399 . S
C1051 C1052 1.385 . S
C1052 H1038 0.931 . S
C1052 C1051 1.385 . S
C1052 C1053 1.389 . S
C1053 C1052 1.389 . S
C1053 C1054 1.387 . S
C1054 H1039 0.930 . S
C1054 C1049 1.390 . S
C1054 C1053 1.387 . S
H1055 C1067 0.930 . S
H1056 C1069 0.930 . S
H1057 C1070 0.930 . S
H1058 C1074 0.959 . S
H1059 C1074 0.959 . S
H1060 C1074 0.961 . S
H1061 C1075 0.960 . S
H1062 C1075 0.961 . S
H1063 C1075 0.959 . S
H1064 C1078 0.929 . S
H1065 C1079 0.931 . S
H1066 C1081 0.930 . S
C1067 H1055 0.930 . S
C1067 C1068 1.399 . S
C1067 C1072 1.399 . S
C1068 C1067 1.399 . S
C1068 C1069 1.376 . S
C1069 H1056 0.930 . S
C1069 C1068 1.376 . S
C1069 C1070 1.388 . S
C1070 H1057 0.930 . S
C1070 C1069 1.388 . S
C1070 C1071 1.390 . S
C1071 C1070 1.390 . S
C1071 C1072 1.394 . S
C1071 C1077 1.465 . S
C1072 C1067 1.399 . S
C1072 C1071 1.394 . S
C1072 C1073 1.516 . S
C1073 C1072 1.516 . S
C1073 C1074 1.502 . S
C1073 C1075 1.561 . S
C1073 C1076 1.526 . S
C1074 H1058 0.959 . S
C1074 H1059 0.959 . S
C1074 H1060 0.961 . S
C1074 C1073 1.502 . S
C1075 H1061 0.960 . S
C1075 H1062 0.961 . S
C1075 H1063 0.959 . S
C1075 C1073 1.561 . S
C1076 C1073 1.526 . S
C1076 C1077 1.396 . S
C1076 C1081 1.390 . S
C1077 C1071 1.465 . S
C1077 C1076 1.396 . S
C1077 C1078 1.399 . S
C1078 H1064 0.929 . S
C1078 C1077 1.399 . S
C1078 C1079 1.385 . S
C1079 H1065 0.931 . S
C1079 C1078 1.385 . S
C1079 C1080 1.389 . S
C1080 C1079 1.389 . S
C1080 C1081 1.387 . S
C1081 H1066 0.930 . S
C1081 C1076 1.390 . S
C1081 C1080 1.387 . S
H1082 C1094 0.930 . S
H1083 C1096 0.930 . S
H1084 C1097 0.930 . S
H1085 C1101 0.959 . S
H1086 C1101 0.959 . S
H1087 C1101 0.961 . S
H1088 C1102 0.960 . S
H1089 C1102 0.961 . S
H1090 C1102 0.959 . S
H1091 C1105 0.929 . S
H1092 C1106 0.931 . S
H1093 C1108 0.930 . S
C1094 H1082 0.930 . S
C1094 C1095 1.399 . S
C1094 C1099 1.399 . S
C1095 C1094 1.399 . S
C1095 C1096 1.376 . S
C1096 H1083 0.930 . S
C1096 C1095 1.376 . S
C1096 C1097 1.388 . S
C1097 H1084 0.930 . S
C1097 C1096 1.388 . S
C1097 C1098 1.390 . S
C1098 C1097 1.390 . S
C1098 C1099 1.394 . S
C1098 C1104 1.465 . S
C1099 C1094 1.399 . S
C1099 C1098 1.394 . S
C1099 C1100 1.516 . S
C1100 C1099 1.516 . S
C1100 C1101 1.502 . S
C1100 C1102 1.561 . S
C1100 C1103 1.526 . S
C1101 H1085 0.959 . S
C1101 H1086 0.959 . S
C1101 H1087 0.961 . S
C1101 C1100 1.502 . S
C1102 H1088 0.960 . S
C1102 H1089 0.961 . S
C1102 H1090 0.959 . S
C1102 C1100 1.561 . S
C1103 C1100 1.526 . S
C1103 C1104 1.396 . S
C1103 C1108 1.390 . S
C1104 C1098 1.465 . S
C1104 C1103 1.396 . S
C1104 C1105 1.399 . S
C1105 H1091 0.929 . S
C1105 C1104 1.399 . S
C1105 C1106 1.385 . S
C1106 H1092 0.931 . S
C1106 C1105 1.385 . S
C1106 C1107 1.389 . S
C1107 C1106 1.389 . S
C1107 C1108 1.387 . S
C1108 H1093 0.930 . S
C1108 C1103 1.390 . S
C1108 C1107 1.387 . S
H1109 C1121 0.930 . S
H1110 C1123 0.930 . S
H1111 C1124 0.930 . S
H1112 C1128 0.959 . S
H1113 C1128 0.959 . S
H1114 C1128 0.961 . S
H1115 C1129 0.960 . S
H1116 C1129 0.961 . S
H1117 C1129 0.959 . S
H1118 C1132 0.929 . S
H1119 C1133 0.931 . S
H1120 C1135 0.930 . S
C1121 H1109 0.930 . S
C1121 C1122 1.399 . S
C1121 C1126 1.399 . S
C1122 C1121 1.399 . S
C1122 C1123 1.376 . S
C1123 H1110 0.930 . S
C1123 C1122 1.376 . S
C1123 C1124 1.388 . S
C1124 H1111 0.930 . S
C1124 C1123 1.388 . S
C1124 C1125 1.390 . S
C1125 C1124 1.390 . S
C1125 C1126 1.394 . S
C1125 C1131 1.465 . S
C1126 C1121 1.399 . S
C1126 C1125 1.394 . S
C1126 C1127 1.516 . S
C1127 C1126 1.516 . S
C1127 C1128 1.502 . S
C1127 C1129 1.561 . S
C1127 C1130 1.526 . S
C1128 H1112 0.959 . S
C1128 H1113 0.959 . S
C1128 H1114 0.961 . S
C1128 C1127 1.502 . S
C1129 H1115 0.960 . S
C1129 H1116 0.961 . S
C1129 H1117 0.959 . S
C1129 C1127 1.561 . S
C1130 C1127 1.526 . S
C1130 C1131 1.396 . S
C1130 C1135 1.390 . S
C1131 C1125 1.465 . S
C1131 C1130 1.396 . S
C1131 C1132 1.399 . S
C1132 H1118 0.929 . S
C1132 C1131 1.399 . S
C1132 C1133 1.385 . S
C1133 H1119 0.931 . S
C1133 C1132 1.385 . S
C1133 C1134 1.389 . S
C1134 C1133 1.389 . S
C1134 C1135 1.387 . S
C1135 H1120 0.930 . S
C1135 C1130 1.390 . S
C1135 C1134 1.387 . S
H1136 C1148 0.930 . S
H1137 C1150 0.930 . S
H1138 C1151 0.930 . S
H1139 C1155 0.959 . S
H1140 C1155 0.959 . S
H1141 C1155 0.961 . S
H1142 C1156 0.960 . S
H1143 C1156 0.961 . S
H1144 C1156 0.959 . S
H1145 C1159 0.929 . S
H1146 C1160 0.931 . S
H1147 C1162 0.930 . S
C1148 H1136 0.930 . S
C1148 C1149 1.399 . S
C1148 C1153 1.399 . S
C1149 C1148 1.399 . S
C1149 C1150 1.376 . S
C1150 H1137 0.930 . S
C1150 C1149 1.376 . S
C1150 C1151 1.388 . S
C1151 H1138 0.930 . S
C1151 C1150 1.388 . S
C1151 C1152 1.390 . S
C1152 C1151 1.390 . S
C1152 C1153 1.394 . S
C1152 C1158 1.465 . S
C1153 C1148 1.399 . S
C1153 C1152 1.394 . S
C1153 C1154 1.516 . S
C1154 C1153 1.516 . S
C1154 C1155 1.502 . S
C1154 C1156 1.561 . S
C1154 C1157 1.526 . S
C1155 H1139 0.959 . S
C1155 H1140 0.959 . S
C1155 H1141 0.961 . S
C1155 C1154 1.502 . S
C1156 H1142 0.960 . S
C1156 H1143 0.961 . S
C1156 H1144 0.959 . S
C1156 C1154 1.561 . S
C1157 C1154 1.526 . S
C1157 C1158 1.396 . S
C1157 C1162 1.390 . S
C1158 C1152 1.465 . S
C1158 C1157 1.396 . S
C1158 C1159 1.399 . S
C1159 H1145 0.929 . S
C1159 C1158 1.399 . S
C1159 C1160 1.385 . S
C1160 H1146 0.931 . S
C1160 C1159 1.385 . S
C1160 C1161 1.389 . S
C1161 C1160 1.389 . S
C1161 C1162 1.387 . S
C1162 H1147 0.930 . S
C1162 C1157 1.390 . S
C1162 C1161 1.387 . S
H1163 C1175 0.930 . S
H1164 C1177 0.930 . S
H1165 C1178 0.930 . S
H1166 C1182 0.959 . S
H1167 C1182 0.959 . S
H1168 C1182 0.961 . S
H1169 C1183 0.960 . S
H1170 C1183 0.961 . S
H1171 C1183 0.959 . S
H1172 C1186 0.929 . S
H1173 C1187 0.931 . S
H1174 C1189 0.930 . S
C1175 H1163 0.930 . S
C1175 C1176 1.399 . S
C1175 C1180 1.399 . S
C1176 C1175 1.399 . S
C1176 C1177 1.376 . S
C1177 H1164 0.930 . S
C1177 C1176 1.376 . S
C1177 C1178 1.388 . S
C1178 H1165 0.930 . S
C1178 C1177 1.388 . S
C1178 C1179 1.390 . S
C1179 C1178 1.390 . S
C1179 C1180 1.394 . S
C1179 C1185 1.465 . S
C1180 C1175 1.399 . S
C1180 C1179 1.394 . S
C1180 C1181 1.516 . S
C1181 C1180 1.516 . S
C1181 C1182 1.502 . S
C1181 C1183 1.561 . S
C1181 C1184 1.526 . S
C1182 H1166 0.959 . S
C1182 H1167 0.959 . S
C1182 H1168 0.961 . S
C1182 C1181 1.502 . S
C1183 H1169 0.960 . S
C1183 H1170 0.961 . S
C1183 H1171 0.959 . S
C1183 C1181 1.561 . S
C1184 C1181 1.526 . S
C1184 C1185 1.396 . S
C1184 C1189 1.390 . S
C1185 C1179 1.465 . S
C1185 C1184 1.396 . S
C1185 C1186 1.399 . S
C1186 H1172 0.929 . S
C1186 C1185 1.399 . S
C1186 C1187 1.385 . S
C1187 H1173 0.931 . S
C1187 C1186 1.385 . S
C1187 C1188 1.389 . S
C1188 C1187 1.389 . S
C1188 C1189 1.387 . S
C1189 H1174 0.930 . S
C1189 C1184 1.390 . S
C1189 C1188 1.387 . S
H1190 C1202 0.930 . S
H1191 C1204 0.930 . S
H1192 C1205 0.930 . S
H1193 C1209 0.959 . S
H1194 C1209 0.959 . S
H1195 C1209 0.961 1_545 S
H1196 C1210 0.960 . S
H1197 C1210 0.961 1_565 S
H1198 C1210 0.959 . S
H1199 C1213 0.929 . S
H1200 C1214 0.931 . S
H1201 C1216 0.930 . S
C1202 H1190 0.930 . S
C1202 C1203 1.399 . S
C1202 C1207 1.399 . S
C1203 C1202 1.399 . S
C1203 C1204 1.376 . S
C1204 H1191 0.930 . S
C1204 C1203 1.376 . S
C1204 C1205 1.388 . S
C1205 H1192 0.930 . S
C1205 C1204 1.388 . S
C1205 C1206 1.390 . S
C1206 C1205 1.390 . S
C1206 C1207 1.394 . S
C1206 C1212 1.465 1_545 S
C1207 C1202 1.399 . S
C1207 C1206 1.394 . S
C1207 C1208 1.516 1_545 S
C1208 C1207 1.516 1_565 S
C1208 C1209 1.502 . S
C1208 C1210 1.561 1_565 S
C1208 C1211 1.526 . S
C1209 H1193 0.959 . S
C1209 H1194 0.959 . S
C1209 H1195 0.961 1_565 S
C1209 C1208 1.502 . S
C1210 H1196 0.960 . S
C1210 H1197 0.961 1_545 S
C1210 H1198 0.959 . S
C1210 C1208 1.561 1_545 S
C1211 C1208 1.526 . S
C1211 C1212 1.396 . S
C1211 C1216 1.390 . S
C1212 C1206 1.465 1_565 S
C1212 C1211 1.396 . S
C1212 C1213 1.399 . S
C1213 H1199 0.929 . S
C1213 C1212 1.399 . S
C1213 C1214 1.385 . S
C1214 H1200 0.931 . S
C1214 C1213 1.385 . S
C1214 C1215 1.389 . S
C1215 C1214 1.389 . S
C1215 C1216 1.387 . S
C1216 H1201 0.930 . S
C1216 C1211 1.390 . S
C1216 C1215 1.387 . S
H1217 C1229 0.930 . S
H1218 C1231 0.930 . S
H1219 C1232 0.930 . S
H1220 C1236 0.959 . S
H1221 C1236 0.959 . S
H1222 C1236 0.961 . S
H1223 C1237 0.960 . S
H1224 C1237 0.961 . S
H1225 C1237 0.959 . S
H1226 C1240 0.929 . S
H1227 C1241 0.931 . S
H1228 C1243 0.930 . S
C1229 H1217 0.930 . S
C1229 C1230 1.399 . S
C1229 C1234 1.399 . S
C1230 C1229 1.399 . S
C1230 C1231 1.376 . S
C1231 H1218 0.930 . S
C1231 C1230 1.376 . S
C1231 C1232 1.388 . S
C1232 H1219 0.930 . S
C1232 C1231 1.388 . S
C1232 C1233 1.390 . S
C1233 C1232 1.390 . S
C1233 C1234 1.394 . S
C1233 C1239 1.465 . S
C1234 C1229 1.399 . S
C1234 C1233 1.394 . S
C1234 C1235 1.516 . S
C1235 C1234 1.516 . S
C1235 C1236 1.502 . S
C1235 C1237 1.561 . S
C1235 C1238 1.526 . S
C1236 H1220 0.959 . S
C1236 H1221 0.959 . S
C1236 H1222 0.961 . S
C1236 C1235 1.502 . S
C1237 H1223 0.960 . S
C1237 H1224 0.961 . S
C1237 H1225 0.959 . S
C1237 C1235 1.561 . S
C1238 C1235 1.526 . S
C1238 C1239 1.396 . S
C1238 C1243 1.390 . S
C1239 C1233 1.465 . S
C1239 C1238 1.396 . S
C1239 C1240 1.399 . S
C1240 H1226 0.929 . S
C1240 C1239 1.399 . S
C1240 C1241 1.385 . S
C1241 H1227 0.931 . S
C1241 C1240 1.385 . S
C1241 C1242 1.389 . S
C1242 C1241 1.389 . S
C1242 C1243 1.387 . S
C1243 H1228 0.930 . S
C1243 C1238 1.390 . S
C1243 C1242 1.387 . S
H1244 C1256 0.930 . S
H1245 C1258 0.930 . S
H1246 C1259 0.930 . S
H1247 C1263 0.959 . S
H1248 C1263 0.959 . S
H1249 C1263 0.961 . S
H1250 C1264 0.960 . S
H1251 C1264 0.961 . S
H1252 C1264 0.959 . S
H1253 C1267 0.929 . S
H1254 C1268 0.931 . S
H1255 C1270 0.930 . S
C1256 H1244 0.930 . S
C1256 C1257 1.399 . S
C1256 C1261 1.399 . S
C1257 C1256 1.399 . S
C1257 C1258 1.376 . S
C1258 H1245 0.930 . S
C1258 C1257 1.376 . S
C1258 C1259 1.388 . S
C1259 H1246 0.930 . S
C1259 C1258 1.388 . S
C1259 C1260 1.390 . S
C1260 C1259 1.390 . S
C1260 C1261 1.394 . S
C1260 C1266 1.465 . S
C1261 C1256 1.399 . S
C1261 C1260 1.394 . S
C1261 C1262 1.516 . S
C1262 C1261 1.516 . S
C1262 C1263 1.502 . S
C1262 C1264 1.561 . S
C1262 C1265 1.526 . S
C1263 H1247 0.959 . S
C1263 H1248 0.959 . S
C1263 H1249 0.961 . S
C1263 C1262 1.502 . S
C1264 H1250 0.960 . S
C1264 H1251 0.961 . S
C1264 H1252 0.959 . S
C1264 C1262 1.561 . S
C1265 C1262 1.526 . S
C1265 C1266 1.396 . S
C1265 C1270 1.390 . S
C1266 C1260 1.465 . S
C1266 C1265 1.396 . S
C1266 C1267 1.399 . S
C1267 H1253 0.929 . S
C1267 C1266 1.399 . S
C1267 C1268 1.385 . S
C1268 H1254 0.931 . S
C1268 C1267 1.385 . S
C1268 C1269 1.389 . S
C1269 C1268 1.389 . S
C1269 C1270 1.387 . S
C1270 H1255 0.930 . S
C1270 C1265 1.390 . S
C1270 C1269 1.387 . S
H1271 C1283 0.930 . S
H1272 C1285 0.930 . S
H1273 C1286 0.930 . S
H1274 C1290 0.959 . S
H1275 C1290 0.959 . S
H1276 C1290 0.961 . S
H1277 C1291 0.960 . S
H1278 C1291 0.961 . S
H1279 C1291 0.959 . S
H1280 C1294 0.929 . S
H1281 C1295 0.931 . S
H1282 C1297 0.930 . S
C1283 H1271 0.930 . S
C1283 C1284 1.399 . S
C1283 C1288 1.399 . S
C1284 C1283 1.399 . S
C1284 C1285 1.376 . S
C1285 H1272 0.930 . S
C1285 C1284 1.376 . S
C1285 C1286 1.388 . S
C1286 H1273 0.930 . S
C1286 C1285 1.388 . S
C1286 C1287 1.390 . S
C1287 C1286 1.390 . S
C1287 C1288 1.394 . S
C1287 C1293 1.465 . S
C1288 C1283 1.399 . S
C1288 C1287 1.394 . S
C1288 C1289 1.516 . S
C1289 C1288 1.516 . S
C1289 C1290 1.502 . S
C1289 C1291 1.561 . S
C1289 C1292 1.526 . S
C1290 H1274 0.959 . S
C1290 H1275 0.959 . S
C1290 H1276 0.961 . S
C1290 C1289 1.502 . S
C1291 H1277 0.960 . S
C1291 H1278 0.961 . S
C1291 H1279 0.959 . S
C1291 C1289 1.561 . S
C1292 C1289 1.526 . S
C1292 C1293 1.396 . S
C1292 C1297 1.390 . S
C1293 C1287 1.465 . S
C1293 C1292 1.396 . S
C1293 C1294 1.399 . S
C1294 H1280 0.929 . S
C1294 C1293 1.399 . S
C1294 C1295 1.385 . S
C1295 H1281 0.931 . S
C1295 C1294 1.385 . S
C1295 C1296 1.389 . S
C1296 C1295 1.389 . S
C1296 C1297 1.387 . S
C1297 H1282 0.930 . S
C1297 C1292 1.390 . S
C1297 C1296 1.387 . S
H1298 C1310 0.930 . S
H1299 C1312 0.930 . S
H1300 C1313 0.930 . S
H1301 C1317 0.959 . S
H1302 C1317 0.959 . S
H1303 C1317 0.961 . S
H1304 C1318 0.960 . S
H1305 C1318 0.961 . S
H1306 C1318 0.959 . S
H1307 C1321 0.929 . S
H1308 C1322 0.931 . S
H1309 C1324 0.930 . S
C1310 H1298 0.930 . S
C1310 C1311 1.399 . S
C1310 C1315 1.399 . S
C1311 C1310 1.399 . S
C1311 C1312 1.376 . S
C1312 H1299 0.930 . S
C1312 C1311 1.376 . S
C1312 C1313 1.388 . S
C1313 H1300 0.930 . S
C1313 C1312 1.388 . S
C1313 C1314 1.390 . S
C1314 C1313 1.390 . S
C1314 C1315 1.394 . S
C1314 C1320 1.465 . S
C1315 C1310 1.399 . S
C1315 C1314 1.394 . S
C1315 C1316 1.516 . S
C1316 C1315 1.516 . S
C1316 C1317 1.502 . S
C1316 C1318 1.561 . S
C1316 C1319 1.526 . S
C1317 H1301 0.959 . S
C1317 H1302 0.959 . S
C1317 H1303 0.961 . S
C1317 C1316 1.502 . S
C1318 H1304 0.960 . S
C1318 H1305 0.961 . S
C1318 H1306 0.959 . S
C1318 C1316 1.561 . S
C1319 C1316 1.526 . S
C1319 C1320 1.396 . S
C1319 C1324 1.390 . S
C1320 C1314 1.465 . S
C1320 C1319 1.396 . S
C1320 C1321 1.399 . S
C1321 H1307 0.929 . S
C1321 C1320 1.399 . S
C1321 C1322 1.385 . S
C1322 H1308 0.931 . S
C1322 C1321 1.385 . S
C1322 C1323 1.389 . S
C1323 C1322 1.389 . S
C1323 C1324 1.387 . S
C1324 H1309 0.930 . S
C1324 C1319 1.390 . S
C1324 C1323 1.387 . S
H1325 C1337 0.930 . S
H1326 C1339 0.930 . S
H1327 C1340 0.930 . S
H1328 C1344 0.959 . S
H1329 C1344 0.959 . S
H1330 C1344 0.961 . S
H1331 C1345 0.960 . S
H1332 C1345 0.961 . S
H1333 C1345 0.959 . S
H1334 C1348 0.929 . S
H1335 C1349 0.931 . S
H1336 C1351 0.930 . S
C1337 H1325 0.930 . S
C1337 C1338 1.399 . S
C1337 C1342 1.399 . S
C1338 C1337 1.399 . S
C1338 C1339 1.376 . S
C1339 H1326 0.930 . S
C1339 C1338 1.376 . S
C1339 C1340 1.388 . S
C1340 H1327 0.930 . S
C1340 C1339 1.388 . S
C1340 C1341 1.390 . S
C1341 C1340 1.390 . S
C1341 C1342 1.394 . S
C1341 C1347 1.465 . S
C1342 C1337 1.399 . S
C1342 C1341 1.394 . S
C1342 C1343 1.516 . S
C1343 C1342 1.516 . S
C1343 C1344 1.502 . S
C1343 C1345 1.561 . S
C1343 C1346 1.526 . S
C1344 H1328 0.959 . S
C1344 H1329 0.959 . S
C1344 H1330 0.961 . S
C1344 C1343 1.502 . S
C1345 H1331 0.960 . S
C1345 H1332 0.961 . S
C1345 H1333 0.959 . S
C1345 C1343 1.561 . S
C1346 C1343 1.526 . S
C1346 C1347 1.396 . S
C1346 C1351 1.390 . S
C1347 C1341 1.465 . S
C1347 C1346 1.396 . S
C1347 C1348 1.399 . S
C1348 H1334 0.929 . S
C1348 C1347 1.399 . S
C1348 C1349 1.385 . S
C1349 H1335 0.931 . S
C1349 C1348 1.385 . S
C1349 C1350 1.389 . S
C1350 C1349 1.389 . S
C1350 C1351 1.387 . S
C1351 H1336 0.930 . S
C1351 C1346 1.390 . S
C1351 C1350 1.387 . S
H1352 C1364 0.930 . S
H1353 C1366 0.930 . S
H1354 C1367 0.930 . S
H1355 C1371 0.959 . S
H1356 C1371 0.959 . S
H1357 C1371 0.961 . S
H1358 C1372 0.960 . S
H1359 C1372 0.961 . S
H1360 C1372 0.959 . S
H1361 C1375 0.929 . S
H1362 C1376 0.931 . S
H1363 C1378 0.930 . S
C1364 H1352 0.930 . S
C1364 C1365 1.399 . S
C1364 C1369 1.399 . S
C1365 C1364 1.399 . S
C1365 C1366 1.376 . S
C1366 H1353 0.930 . S
C1366 C1365 1.376 . S
C1366 C1367 1.388 . S
C1367 H1354 0.930 . S
C1367 C1366 1.388 . S
C1367 C1368 1.390 . S
C1368 C1367 1.390 . S
C1368 C1369 1.394 . S
C1368 C1374 1.465 . S
C1369 C1364 1.399 . S
C1369 C1368 1.394 . S
C1369 C1370 1.516 . S
C1370 C1369 1.516 . S
C1370 C1371 1.502 . S
C1370 C1372 1.561 . S
C1370 C1373 1.526 . S
C1371 H1355 0.959 . S
C1371 H1356 0.959 . S
C1371 H1357 0.961 . S
C1371 C1370 1.502 . S
C1372 H1358 0.960 . S
C1372 H1359 0.961 . S
C1372 H1360 0.959 . S
C1372 C1370 1.561 . S
C1373 C1370 1.526 . S
C1373 C1374 1.396 . S
C1373 C1378 1.390 . S
C1374 C1368 1.465 . S
C1374 C1373 1.396 . S
C1374 C1375 1.399 . S
C1375 H1361 0.929 . S
C1375 C1374 1.399 . S
C1375 C1376 1.385 . S
C1376 H1362 0.931 . S
C1376 C1375 1.385 . S
C1376 C1377 1.389 . S
C1377 C1376 1.389 . S
C1377 C1378 1.387 . S
C1378 H1363 0.930 . S
C1378 C1373 1.390 . S
C1378 C1377 1.387 . S
H1379 C1391 0.930 . S
H1380 C1393 0.930 . S
H1381 C1394 0.930 . S
H1382 C1398 0.959 . S
H1383 C1398 0.959 . S
H1384 C1398 0.961 . S
H1385 C1399 0.960 . S
H1386 C1399 0.961 . S
H1387 C1399 0.959 . S
H1388 C1402 0.929 . S
H1389 C1403 0.931 . S
H1390 C1405 0.930 . S
C1391 H1379 0.930 . S
C1391 C1392 1.399 . S
C1391 C1396 1.399 . S
C1392 C1391 1.399 . S
C1392 C1393 1.376 . S
C1393 H1380 0.930 . S
C1393 C1392 1.376 . S
C1393 C1394 1.388 . S
C1394 H1381 0.930 . S
C1394 C1393 1.388 . S
C1394 C1395 1.390 . S
C1395 C1394 1.390 . S
C1395 C1396 1.394 . S
C1395 C1401 1.465 . S
C1396 C1391 1.399 . S
C1396 C1395 1.394 . S
C1396 C1397 1.516 . S
C1397 C1396 1.516 . S
C1397 C1398 1.502 . S
C1397 C1399 1.561 . S
C1397 C1400 1.526 . S
C1398 H1382 0.959 . S
C1398 H1383 0.959 . S
C1398 H1384 0.961 . S
C1398 C1397 1.502 . S
C1399 H1385 0.960 . S
C1399 H1386 0.961 . S
C1399 H1387 0.959 . S
C1399 C1397 1.561 . S
C1400 C1397 1.526 . S
C1400 C1401 1.396 . S
C1400 C1405 1.390 . S
C1401 C1395 1.465 . S
C1401 C1400 1.396 . S
C1401 C1402 1.399 . S
C1402 H1388 0.929 . S
C1402 C1401 1.399 . S
C1402 C1403 1.385 . S
C1403 H1389 0.931 . S
C1403 C1402 1.385 . S
C1403 C1404 1.389 . S
C1404 C1403 1.389 . S
C1404 C1405 1.387 . S
C1405 H1390 0.930 . S
C1405 C1400 1.390 . S
C1405 C1404 1.387 . S
H1406 C1418 0.930 . S
H1407 C1420 0.930 . S
H1408 C1421 0.930 . S
H1409 C1425 0.959 . S
H1410 C1425 0.959 . S
H1411 C1425 0.961 . S
H1412 C1426 0.960 . S
H1413 C1426 0.961 . S
H1414 C1426 0.959 . S
H1415 C1429 0.929 . S
H1416 C1430 0.931 . S
H1417 C1432 0.930 . S
C1418 H1406 0.930 . S
C1418 C1419 1.399 . S
C1418 C1423 1.399 . S
C1419 C1418 1.399 . S
C1419 C1420 1.376 . S
C1420 H1407 0.930 . S
C1420 C1419 1.376 . S
C1420 C1421 1.388 . S
C1421 H1408 0.930 . S
C1421 C1420 1.388 . S
C1421 C1422 1.390 . S
C1422 C1421 1.390 . S
C1422 C1423 1.394 . S
C1422 C1428 1.465 . S
C1423 C1418 1.399 . S
C1423 C1422 1.394 . S
C1423 C1424 1.516 . S
C1424 C1423 1.516 . S
C1424 C1425 1.502 . S
C1424 C1426 1.561 . S
C1424 C1427 1.526 . S
C1425 H1409 0.959 . S
C1425 H1410 0.959 . S
C1425 H1411 0.961 . S
C1425 C1424 1.502 . S
C1426 H1412 0.960 . S
C1426 H1413 0.961 . S
C1426 H1414 0.959 . S
C1426 C1424 1.561 . S
C1427 C1424 1.526 . S
C1427 C1428 1.396 . S
C1427 C1432 1.390 . S
C1428 C1422 1.465 . S
C1428 C1427 1.396 . S
C1428 C1429 1.399 . S
C1429 H1415 0.929 . S
C1429 C1428 1.399 . S
C1429 C1430 1.385 . S
C1430 H1416 0.931 . S
C1430 C1429 1.385 . S
C1430 C1431 1.389 . S
C1431 C1430 1.389 . S
C1431 C1432 1.387 . S
C1432 H1417 0.930 . S
C1432 C1427 1.390 . S
C1432 C1431 1.387 . S
H1433 C1445 0.930 . S
H1434 C1447 0.930 . S
H1435 C1448 0.930 . S
H1436 C1452 0.959 . S
H1437 C1452 0.959 . S
H1438 C1452 0.961 . S
H1439 C1453 0.960 . S
H1440 C1453 0.961 . S
H1441 C1453 0.959 . S
H1442 C1456 0.929 . S
H1443 C1457 0.931 . S
H1444 C1459 0.930 . S
C1445 H1433 0.930 . S
C1445 C1446 1.399 . S
C1445 C1450 1.399 . S
C1446 C1445 1.399 . S
C1446 C1447 1.376 . S
C1447 H1434 0.930 . S
C1447 C1446 1.376 . S
C1447 C1448 1.388 . S
C1448 H1435 0.930 . S
C1448 C1447 1.388 . S
C1448 C1449 1.390 . S
C1449 C1448 1.390 . S
C1449 C1450 1.394 . S
C1449 C1455 1.465 . S
C1450 C1445 1.399 . S
C1450 C1449 1.394 . S
C1450 C1451 1.516 . S
C1451 C1450 1.516 . S
C1451 C1452 1.502 . S
C1451 C1453 1.561 . S
C1451 C1454 1.526 . S
C1452 H1436 0.959 . S
C1452 H1437 0.959 . S
C1452 H1438 0.961 . S
C1452 C1451 1.502 . S
C1453 H1439 0.960 . S
C1453 H1440 0.961 . S
C1453 H1441 0.959 . S
C1453 C1451 1.561 . S
C1454 C1451 1.526 . S
C1454 C1455 1.396 . S
C1454 C1459 1.390 . S
C1455 C1449 1.465 . S
C1455 C1454 1.396 . S
C1455 C1456 1.399 . S
C1456 H1442 0.929 . S
C1456 C1455 1.399 . S
C1456 C1457 1.385 . S
C1457 H1443 0.931 . S
C1457 C1456 1.385 . S
C1457 C1458 1.389 . S
C1458 C1457 1.389 . S
C1458 C1459 1.387 . S
C1459 H1444 0.930 . S
C1459 C1454 1.390 . S
C1459 C1458 1.387 . S
H1460 C1472 0.930 . S
H1461 C1474 0.930 . S
H1462 C1475 0.930 . S
H1463 C1479 0.959 . S
H1464 C1479 0.959 . S
H1465 C1479 0.961 . S
H1466 C1480 0.960 . S
H1467 C1480 0.961 . S
H1468 C1480 0.959 . S
H1469 C1483 0.929 . S
H1470 C1484 0.931 . S
H1471 C1486 0.930 . S
C1472 H1460 0.930 . S
C1472 C1473 1.399 . S
C1472 C1477 1.399 . S
C1473 C1472 1.399 . S
C1473 C1474 1.376 . S
C1474 H1461 0.930 . S
C1474 C1473 1.376 . S
C1474 C1475 1.388 . S
C1475 H1462 0.930 . S
C1475 C1474 1.388 . S
C1475 C1476 1.390 . S
C1476 C1475 1.390 . S
C1476 C1477 1.394 . S
C1476 C1482 1.465 . S
C1477 C1472 1.399 . S
C1477 C1476 1.394 . S
C1477 C1478 1.516 . S
C1478 C1477 1.516 . S
C1478 C1479 1.502 . S
C1478 C1480 1.561 . S
C1478 C1481 1.526 . S
C1479 H1463 0.959 . S
C1479 H1464 0.959 . S
C1479 H1465 0.961 . S
C1479 C1478 1.502 . S
C1480 H1466 0.960 . S
C1480 H1467 0.961 . S
C1480 H1468 0.959 . S
C1480 C1478 1.561 . S
C1481 C1478 1.526 . S
C1481 C1482 1.396 . S
C1481 C1486 1.390 . S
C1482 C1476 1.465 . S
C1482 C1481 1.396 . S
C1482 C1483 1.399 . S
C1483 H1469 0.929 . S
C1483 C1482 1.399 . S
C1483 C1484 1.385 . S
C1484 H1470 0.931 . S
C1484 C1483 1.385 . S
C1484 C1485 1.389 . S
C1485 C1484 1.389 . S
C1485 C1486 1.387 . S
C1486 H1471 0.930 . S
C1486 C1481 1.390 . S
C1486 C1485 1.387 . S
H1487 C1499 0.930 . S
H1488 C1501 0.930 . S
H1489 C1502 0.930 . S
H1490 C1506 0.959 . S
H1491 C1506 0.959 . S
H1492 C1506 0.961 . S
H1493 C1507 0.960 . S
H1494 C1507 0.961 . S
H1495 C1507 0.959 . S
H1496 C1510 0.929 . S
H1497 C1511 0.931 . S
H1498 C1513 0.930 . S
C1499 H1487 0.930 . S
C1499 C1500 1.399 . S
C1499 C1504 1.399 . S
C1500 C1499 1.399 . S
C1500 C1501 1.376 . S
C1501 H1488 0.930 . S
C1501 C1500 1.376 . S
C1501 C1502 1.388 . S
C1502 H1489 0.930 . S
C1502 C1501 1.388 . S
C1502 C1503 1.390 . S
C1503 C1502 1.390 . S
C1503 C1504 1.394 . S
C1503 C1509 1.465 . S
C1504 C1499 1.399 . S
C1504 C1503 1.394 . S
C1504 C1505 1.516 . S
C1505 C1504 1.516 . S
C1505 C1506 1.502 . S
C1505 C1507 1.561 . S
C1505 C1508 1.526 . S
C1506 H1490 0.959 . S
C1506 H1491 0.959 . S
C1506 H1492 0.961 . S
C1506 C1505 1.502 . S
C1507 H1493 0.960 . S
C1507 H1494 0.961 . S
C1507 H1495 0.959 . S
C1507 C1505 1.561 . S
C1508 C1505 1.526 . S
C1508 C1509 1.396 . S
C1508 C1513 1.390 . S
C1509 C1503 1.465 . S
C1509 C1508 1.396 . S
C1509 C1510 1.399 . S
C1510 H1496 0.929 . S
C1510 C1509 1.399 . S
C1510 C1511 1.385 . S
C1511 H1497 0.931 . S
C1511 C1510 1.385 . S
C1511 C1512 1.389 . S
C1512 C1511 1.389 . S
C1512 C1513 1.387 . S
C1513 H1498 0.930 . S
C1513 C1508 1.390 . S
C1513 C1512 1.387 . S
H1514 C1526 0.930 . S
H1515 C1528 0.930 . S
H1516 C1529 0.930 . S
H1517 C1533 0.959 . S
H1518 C1533 0.959 . S
H1519 C1533 0.961 . S
H1520 C1534 0.960 . S
H1521 C1534 0.961 . S
H1522 C1534 0.959 . S
H1523 C1537 0.929 . S
H1524 C1538 0.931 . S
H1525 C1540 0.930 . S
C1526 H1514 0.930 . S
C1526 C1527 1.399 . S
C1526 C1531 1.399 . S
C1527 C1526 1.399 . S
C1527 C1528 1.376 . S
C1528 H1515 0.930 . S
C1528 C1527 1.376 . S
C1528 C1529 1.388 . S
C1529 H1516 0.930 . S
C1529 C1528 1.388 . S
C1529 C1530 1.390 . S
C1530 C1529 1.390 . S
C1530 C1531 1.394 . S
C1530 C1536 1.465 . S
C1531 C1526 1.399 . S
C1531 C1530 1.394 . S
C1531 C1532 1.516 . S
C1532 C1531 1.516 . S
C1532 C1533 1.502 . S
C1532 C1534 1.561 . S
C1532 C1535 1.526 . S
C1533 H1517 0.959 . S
C1533 H1518 0.959 . S
C1533 H1519 0.961 . S
C1533 C1532 1.502 . S
C1534 H1520 0.960 . S
C1534 H1521 0.961 . S
C1534 H1522 0.959 . S
C1534 C1532 1.561 . S
C1535 C1532 1.526 . S
C1535 C1536 1.396 . S
C1535 C1540 1.390 . S
C1536 C1530 1.465 . S
C1536 C1535 1.396 . S
C1536 C1537 1.399 . S
C1537 H1523 0.929 . S
C1537 C1536 1.399 . S
C1537 C1538 1.385 . S
C1538 H1524 0.931 . S
C1538 C1537 1.385 . S
C1538 C1539 1.389 . S
C1539 C1538 1.389 . S
C1539 C1540 1.387 . S
C1540 H1525 0.930 . S
C1540 C1535 1.390 . S
C1540 C1539 1.387 . S
H1541 C1553 0.930 . S
H1542 C1555 0.930 . S
H1543 C1556 0.930 . S
H1544 C1560 0.959 . S
H1545 C1560 0.959 . S
H1546 C1560 0.961 . S
H1547 C1561 0.960 . S
H1548 C1561 0.961 . S
H1549 C1561 0.959 . S
H1550 C1564 0.929 . S
H1551 C1565 0.931 . S
H1552 C1567 0.930 . S
C1553 H1541 0.930 . S
C1553 C1554 1.399 . S
C1553 C1558 1.399 . S
C1554 C1553 1.399 . S
C1554 C1555 1.376 . S
C1555 H1542 0.930 . S
C1555 C1554 1.376 . S
C1555 C1556 1.388 . S
C1556 H1543 0.930 . S
C1556 C1555 1.388 . S
C1556 C1557 1.390 . S
C1557 C1556 1.390 . S
C1557 C1558 1.394 . S
C1557 C1563 1.465 . S
C1558 C1553 1.399 . S
C1558 C1557 1.394 . S
C1558 C1559 1.516 . S
C1559 C1558 1.516 . S
C1559 C1560 1.502 . S
C1559 C1561 1.561 . S
C1559 C1562 1.526 . S
C1560 H1544 0.959 . S
C1560 H1545 0.959 . S
C1560 H1546 0.961 . S
C1560 C1559 1.502 . S
C1561 H1547 0.960 . S
C1561 H1548 0.961 . S
C1561 H1549 0.959 . S
C1561 C1559 1.561 . S
C1562 C1559 1.526 . S
C1562 C1563 1.396 . S
C1562 C1567 1.390 . S
C1563 C1557 1.465 . S
C1563 C1562 1.396 . S
C1563 C1564 1.399 . S
C1564 H1550 0.929 . S
C1564 C1563 1.399 . S
C1564 C1565 1.385 . S
C1565 H1551 0.931 . S
C1565 C1564 1.385 . S
C1565 C1566 1.389 . S
C1566 C1565 1.389 . S
C1566 C1567 1.387 . S
C1567 H1552 0.930 . S
C1567 C1562 1.390 . S
C1567 C1566 1.387 . S
H1568 C1580 0.930 . S
H1569 C1582 0.930 . S
H1570 C1583 0.930 . S
H1571 C1587 0.959 . S
H1572 C1587 0.959 . S
H1573 C1587 0.961 . S
H1574 C1588 0.960 . S
H1575 C1588 0.961 . S
H1576 C1588 0.959 . S
H1577 C1591 0.929 . S
H1578 C1592 0.931 . S
H1579 C1594 0.930 . S
C1580 H1568 0.930 . S
C1580 C1581 1.399 . S
C1580 C1585 1.399 . S
C1581 C1580 1.399 . S
C1581 C1582 1.376 . S
C1582 H1569 0.930 . S
C1582 C1581 1.376 . S
C1582 C1583 1.388 . S
C1583 H1570 0.930 . S
C1583 C1582 1.388 . S
C1583 C1584 1.390 . S
C1584 C1583 1.390 . S
C1584 C1585 1.394 . S
C1584 C1590 1.465 . S
C1585 C1580 1.399 . S
C1585 C1584 1.394 . S
C1585 C1586 1.516 . S
C1586 C1585 1.516 . S
C1586 C1587 1.502 . S
C1586 C1588 1.561 . S
C1586 C1589 1.526 . S
C1587 H1571 0.959 . S
C1587 H1572 0.959 . S
C1587 H1573 0.961 . S
C1587 C1586 1.502 . S
C1588 H1574 0.960 . S
C1588 H1575 0.961 . S
C1588 H1576 0.959 . S
C1588 C1586 1.561 . S
C1589 C1586 1.526 . S
C1589 C1590 1.396 . S
C1589 C1594 1.390 . S
C1590 C1584 1.465 . S
C1590 C1589 1.396 . S
C1590 C1591 1.399 . S
C1591 H1577 0.929 . S
C1591 C1590 1.399 . S
C1591 C1592 1.385 . S
C1592 H1578 0.931 . S
C1592 C1591 1.385 . S
C1592 C1593 1.389 . S
C1593 C1592 1.389 . S
C1593 C1594 1.387 . S
C1594 H1579 0.930 . S
C1594 C1589 1.390 . S
C1594 C1593 1.387 . S
H1595 C1607 0.930 . S
H1596 C1609 0.930 . S
H1597 C1610 0.930 . S
H1598 C1614 0.959 . S
H1599 C1614 0.959 . S
H1600 C1614 0.961 . S
H1601 C1615 0.960 . S
H1602 C1615 0.961 . S
H1603 C1615 0.959 . S
H1604 C1618 0.929 . S
H1605 C1619 0.931 . S
H1606 C1621 0.930 . S
C1607 H1595 0.930 . S
C1607 C1608 1.399 . S
C1607 C1612 1.399 . S
C1608 C1607 1.399 . S
C1608 C1609 1.376 . S
C1609 H1596 0.930 . S
C1609 C1608 1.376 . S
C1609 C1610 1.388 . S
C1610 H1597 0.930 . S
C1610 C1609 1.388 . S
C1610 C1611 1.390 . S
C1611 C1610 1.390 . S
C1611 C1612 1.394 . S
C1611 C1617 1.465 . S
C1612 C1607 1.399 . S
C1612 C1611 1.394 . S
C1612 C1613 1.516 . S
C1613 C1612 1.516 . S
C1613 C1614 1.502 . S
C1613 C1615 1.561 . S
C1613 C1616 1.526 . S
C1614 H1598 0.959 . S
C1614 H1599 0.959 . S
C1614 H1600 0.961 . S
C1614 C1613 1.502 . S
C1615 H1601 0.960 . S
C1615 H1602 0.961 . S
C1615 H1603 0.959 . S
C1615 C1613 1.561 . S
C1616 C1613 1.526 . S
C1616 C1617 1.396 . S
C1616 C1621 1.390 . S
C1617 C1611 1.465 . S
C1617 C1616 1.396 . S
C1617 C1618 1.399 . S
C1618 H1604 0.929 . S
C1618 C1617 1.399 . S
C1618 C1619 1.385 . S
C1619 H1605 0.931 . S
C1619 C1618 1.385 . S
C1619 C1620 1.389 . S
C1620 C1619 1.389 . S
C1620 C1621 1.387 . S
C1621 H1606 0.930 . S
C1621 C1616 1.390 . S
C1621 C1620 1.387 . S
H1622 C1634 0.930 . S
H1623 C1636 0.930 . S
H1624 C1637 0.930 . S
H1625 C1641 0.959 . S
H1626 C1641 0.959 . S
H1627 C1641 0.961 . S
H1628 C1642 0.960 . S
H1629 C1642 0.961 . S
H1630 C1642 0.959 . S
H1631 C1645 0.929 . S
H1632 C1646 0.931 . S
H1633 C1648 0.930 . S
C1634 H1622 0.930 . S
C1634 C1635 1.399 . S
C1634 C1639 1.399 . S
C1635 C1634 1.399 . S
C1635 C1636 1.376 . S
C1636 H1623 0.930 . S
C1636 C1635 1.376 . S
C1636 C1637 1.388 . S
C1637 H1624 0.930 . S
C1637 C1636 1.388 . S
C1637 C1638 1.390 . S
C1638 C1637 1.390 . S
C1638 C1639 1.394 . S
C1638 C1644 1.465 . S
C1639 C1634 1.399 . S
C1639 C1638 1.394 . S
C1639 C1640 1.516 . S
C1640 C1639 1.516 . S
C1640 C1641 1.502 . S
C1640 C1642 1.561 . S
C1640 C1643 1.526 . S
C1641 H1625 0.959 . S
C1641 H1626 0.959 . S
C1641 H1627 0.961 . S
C1641 C1640 1.502 . S
C1642 H1628 0.960 . S
C1642 H1629 0.961 . S
C1642 H1630 0.959 . S
C1642 C1640 1.561 . S
C1643 C1640 1.526 . S
C1643 C1644 1.396 . S
C1643 C1648 1.390 . S
C1644 C1638 1.465 . S
C1644 C1643 1.396 . S
C1644 C1645 1.399 . S
C1645 H1631 0.929 . S
C1645 C1644 1.399 . S
C1645 C1646 1.385 . S
C1646 H1632 0.931 . S
C1646 C1645 1.385 . S
C1646 C1647 1.389 . S
C1647 C1646 1.389 . S
C1647 C1648 1.387 . S
C1648 H1633 0.930 . S
C1648 C1643 1.390 . S
C1648 C1647 1.387 . S
H1649 C1661 0.930 . S
H1650 C1663 0.930 . S
H1651 C1664 0.930 . S
H1652 C1668 0.959 . S
H1653 C1668 0.959 . S
H1654 C1668 0.961 . S
H1655 C1669 0.960 . S
H1656 C1669 0.961 . S
H1657 C1669 0.959 . S
H1658 C1672 0.929 . S
H1659 C1673 0.931 . S
H1660 C1675 0.930 . S
C1661 H1649 0.930 . S
C1661 C1662 1.399 . S
C1661 C1666 1.399 . S
C1662 C1661 1.399 . S
C1662 C1663 1.376 . S
C1663 H1650 0.930 . S
C1663 C1662 1.376 . S
C1663 C1664 1.388 . S
C1664 H1651 0.930 . S
C1664 C1663 1.388 . S
C1664 C1665 1.390 . S
C1665 C1664 1.390 . S
C1665 C1666 1.394 . S
C1665 C1671 1.465 . S
C1666 C1661 1.399 . S
C1666 C1665 1.394 . S
C1666 C1667 1.516 . S
C1667 C1666 1.516 . S
C1667 C1668 1.502 . S
C1667 C1669 1.561 . S
C1667 C1670 1.526 . S
C1668 H1652 0.959 . S
C1668 H1653 0.959 . S
C1668 H1654 0.961 . S
C1668 C1667 1.502 . S
C1669 H1655 0.960 . S
C1669 H1656 0.961 . S
C1669 H1657 0.959 . S
C1669 C1667 1.561 . S
C1670 C1667 1.526 . S
C1670 C1671 1.396 . S
C1670 C1675 1.390 . S
C1671 C1665 1.465 . S
C1671 C1670 1.396 . S
C1671 C1672 1.399 . S
C1672 H1658 0.929 . S
C1672 C1671 1.399 . S
C1672 C1673 1.385 . S
C1673 H1659 0.931 . S
C1673 C1672 1.385 . S
C1673 C1674 1.389 . S
C1674 C1673 1.389 . S
C1674 C1675 1.387 . S
C1675 H1660 0.930 . S
C1675 C1670 1.390 . S
C1675 C1674 1.387 . S
H1676 C1688 0.930 . S
H1677 C1690 0.930 . S
H1678 C1691 0.930 . S
H1679 C1695 0.959 . S
H1680 C1695 0.959 . S
H1681 C1695 0.961 . S
H1682 C1696 0.960 . S
H1683 C1696 0.961 . S
H1684 C1696 0.959 . S
H1685 C1699 0.929 . S
H1686 C1700 0.931 . S
H1687 C1702 0.930 . S
C1688 H1676 0.930 . S
C1688 C1689 1.399 . S
C1688 C1693 1.399 . S
C1689 C1688 1.399 . S
C1689 C1690 1.376 . S
C1690 H1677 0.930 . S
C1690 C1689 1.376 . S
C1690 C1691 1.388 . S
C1691 H1678 0.930 . S
C1691 C1690 1.388 . S
C1691 C1692 1.390 . S
C1692 C1691 1.390 . S
C1692 C1693 1.394 . S
C1692 C1698 1.465 . S
C1693 C1688 1.399 . S
C1693 C1692 1.394 . S
C1693 C1694 1.516 . S
C1694 C1693 1.516 . S
C1694 C1695 1.502 . S
C1694 C1696 1.561 . S
C1694 C1697 1.526 . S
C1695 H1679 0.959 . S
C1695 H1680 0.959 . S
C1695 H1681 0.961 . S
C1695 C1694 1.502 . S
C1696 H1682 0.960 . S
C1696 H1683 0.961 . S
C1696 H1684 0.959 . S
C1696 C1694 1.561 . S
C1697 C1694 1.526 . S
C1697 C1698 1.396 . S
C1697 C1702 1.390 . S
C1698 C1692 1.465 . S
C1698 C1697 1.396 . S
C1698 C1699 1.399 . S
C1699 H1685 0.929 . S
C1699 C1698 1.399 . S
C1699 C1700 1.385 . S
C1700 H1686 0.931 . S
C1700 C1699 1.385 . S
C1700 C1701 1.389 . S
C1701 C1700 1.389 . S
C1701 C1702 1.387 . S
C1702 H1687 0.930 . S
C1702 C1697 1.390 . S
C1702 C1701 1.387 . S
H1703 C1715 0.930 . S
H1704 C1717 0.930 . S
H1705 C1718 0.930 . S
H1706 C1722 0.959 . S
H1707 C1722 0.959 . S
H1708 C1722 0.961 . S
H1709 C1723 0.960 . S
H1710 C1723 0.961 . S
H1711 C1723 0.959 . S
H1712 C1726 0.929 . S
H1713 C1727 0.931 . S
H1714 C1729 0.930 . S
C1715 H1703 0.930 . S
C1715 C1716 1.399 . S
C1715 C1720 1.399 . S
C1716 C1715 1.399 . S
C1716 C1717 1.376 . S
C1717 H1704 0.930 . S
C1717 C1716 1.376 . S
C1717 C1718 1.388 . S
C1718 H1705 0.930 . S
C1718 C1717 1.388 . S
C1718 C1719 1.390 . S
C1719 C1718 1.390 . S
C1719 C1720 1.394 . S
C1719 C1725 1.465 . S
C1720 C1715 1.399 . S
C1720 C1719 1.394 . S
C1720 C1721 1.516 . S
C1721 C1720 1.516 . S
C1721 C1722 1.502 . S
C1721 C1723 1.561 . S
C1721 C1724 1.526 . S
C1722 H1706 0.959 . S
C1722 H1707 0.959 . S
C1722 H1708 0.961 . S
C1722 C1721 1.502 . S
C1723 H1709 0.960 . S
C1723 H1710 0.961 . S
C1723 H1711 0.959 . S
C1723 C1721 1.561 . S
C1724 C1721 1.526 . S
C1724 C1725 1.396 . S
C1724 C1729 1.390 . S
C1725 C1719 1.465 . S
C1725 C1724 1.396 . S
C1725 C1726 1.399 . S
C1726 H1712 0.929 . S
C1726 C1725 1.399 . S
C1726 C1727 1.385 . S
C1727 H1713 0.931 . S
C1727 C1726 1.385 . S
C1727 C1728 1.389 . S
C1728 C1727 1.389 . S
C1728 C1729 1.387 . S
C1729 H1714 0.930 . S
C1729 C1724 1.390 . S
C1729 C1728 1.387 . S
H1730 C1742 0.930 . S
H1731 C1744 0.930 . S
H1732 C1745 0.930 . S
H1733 C1749 0.959 . S
H1734 C1749 0.959 . S
H1735 C1749 0.961 . S
H1736 C1750 0.960 . S
H1737 C1750 0.961 . S
H1738 C1750 0.959 . S
H1739 C1753 0.929 . S
H1740 C1754 0.931 . S
H1741 C1756 0.930 . S
C1742 H1730 0.930 . S
C1742 C1743 1.399 . S
C1742 C1747 1.399 . S
C1743 C1742 1.399 . S
C1743 C1744 1.376 . S
C1744 H1731 0.930 . S
C1744 C1743 1.376 . S
C1744 C1745 1.388 . S
C1745 H1732 0.930 . S
C1745 C1744 1.388 . S
C1745 C1746 1.390 . S
C1746 C1745 1.390 . S
C1746 C1747 1.394 . S
C1746 C1752 1.465 . S
C1747 C1742 1.399 . S
C1747 C1746 1.394 . S
C1747 C1748 1.516 . S
C1748 C1747 1.516 . S
C1748 C1749 1.502 . S
C1748 C1750 1.561 . S
C1748 C1751 1.526 . S
C1749 H1733 0.959 . S
C1749 H1734 0.959 . S
C1749 H1735 0.961 . S
C1749 C1748 1.502 . S
C1750 H1736 0.960 . S
C1750 H1737 0.961 . S
C1750 H1738 0.959 . S
C1750 C1748 1.561 . S
C1751 C1748 1.526 . S
C1751 C1752 1.396 . S
C1751 C1756 1.390 . S
C1752 C1746 1.465 . S
C1752 C1751 1.396 . S
C1752 C1753 1.399 . S
C1753 H1739 0.929 . S
C1753 C1752 1.399 . S
C1753 C1754 1.385 . S
C1754 H1740 0.931 . S
C1754 C1753 1.385 . S
C1754 C1755 1.389 . S
C1755 C1754 1.389 . S
C1755 C1756 1.387 . S
C1756 H1741 0.930 . S
C1756 C1751 1.390 . S
C1756 C1755 1.387 . S
H1757 C1769 0.930 . S
H1758 C1771 0.930 . S
H1759 C1772 0.930 . S
H1760 C1776 0.959 . S
H1761 C1776 0.959 . S
H1762 C1776 0.961 . S
H1763 C1777 0.960 . S
H1764 C1777 0.961 . S
H1765 C1777 0.959 . S
H1766 C1780 0.929 . S
H1767 C1781 0.931 . S
H1768 C1783 0.930 . S
C1769 H1757 0.930 . S
C1769 C1770 1.399 . S
C1769 C1774 1.399 . S
C1770 C1769 1.399 . S
C1770 C1771 1.376 . S
C1771 H1758 0.930 . S
C1771 C1770 1.376 . S
C1771 C1772 1.388 . S
C1772 H1759 0.930 . S
C1772 C1771 1.388 . S
C1772 C1773 1.390 . S
C1773 C1772 1.390 . S
C1773 C1774 1.394 . S
C1773 C1779 1.465 . S
C1774 C1769 1.399 . S
C1774 C1773 1.394 . S
C1774 C1775 1.516 . S
C1775 C1774 1.516 . S
C1775 C1776 1.502 . S
C1775 C1777 1.561 . S
C1775 C1778 1.526 . S
C1776 H1760 0.959 . S
C1776 H1761 0.959 . S
C1776 H1762 0.961 . S
C1776 C1775 1.502 . S
C1777 H1763 0.960 . S
C1777 H1764 0.961 . S
C1777 H1765 0.959 . S
C1777 C1775 1.561 . S
C1778 C1775 1.526 . S
C1778 C1779 1.396 . S
C1778 C1783 1.390 . S
C1779 C1773 1.465 . S
C1779 C1778 1.396 . S
C1779 C1780 1.399 . S
C1780 H1766 0.929 . S
C1780 C1779 1.399 . S
C1780 C1781 1.385 . S
C1781 H1767 0.931 . S
C1781 C1780 1.385 . S
C1781 C1782 1.389 . S
C1782 C1781 1.389 . S
C1782 C1783 1.387 . S
C1783 H1768 0.930 . S
C1783 C1778 1.390 . S
C1783 C1782 1.387 . S
H1784 C1796 0.930 . S
H1785 C1798 0.930 . S
H1786 C1799 0.930 . S
H1787 C1803 0.959 . S
H1788 C1803 0.959 . S
H1789 C1803 0.961 . S
H1790 C1804 0.960 . S
H1791 C1804 0.961 . S
H1792 C1804 0.959 . S
H1793 C1807 0.929 . S
H1794 C1808 0.931 . S
H1795 C1810 0.930 . S
C1796 H1784 0.930 . S
C1796 C1797 1.399 . S
C1796 C1801 1.399 . S
C1797 C1796 1.399 . S
C1797 C1798 1.376 . S
C1798 H1785 0.930 . S
C1798 C1797 1.376 . S
C1798 C1799 1.388 . S
C1799 H1786 0.930 . S
C1799 C1798 1.388 . S
C1799 C1800 1.390 . S
C1800 C1799 1.390 . S
C1800 C1801 1.394 . S
C1800 C1806 1.465 . S
C1801 C1796 1.399 . S
C1801 C1800 1.394 . S
C1801 C1802 1.516 . S
C1802 C1801 1.516 . S
C1802 C1803 1.502 . S
C1802 C1804 1.561 . S
C1802 C1805 1.526 . S
C1803 H1787 0.959 . S
C1803 H1788 0.959 . S
C1803 H1789 0.961 . S
C1803 C1802 1.502 . S
C1804 H1790 0.960 . S
C1804 H1791 0.961 . S
C1804 H1792 0.959 . S
C1804 C1802 1.561 . S
C1805 C1802 1.526 . S
C1805 C1806 1.396 . S
C1805 C1810 1.390 . S
C1806 C1800 1.465 . S
C1806 C1805 1.396 . S
C1806 C1807 1.399 . S
C1807 H1793 0.929 . S
C1807 C1806 1.399 . S
C1807 C1808 1.385 . S
C1808 H1794 0.931 . S
C1808 C1807 1.385 . S
C1808 C1809 1.389 . S
C1809 C1808 1.389 . S
C1809 C1810 1.387 . S
C1810 H1795 0.930 . S
C1810 C1805 1.390 . S
C1810 C1809 1.387 . S
H1811 C1823 0.930 . S
H1812 C1825 0.930 . S
H1813 C1826 0.930 . S
H1814 C1830 0.959 . S
H1815 C1830 0.959 . S
H1816 C1830 0.961 . S
H1817 C1831 0.960 . S
H1818 C1831 0.961 . S
H1819 C1831 0.959 . S
H1820 C1834 0.929 . S
H1821 C1835 0.931 . S
H1822 C1837 0.930 . S
C1823 H1811 0.930 . S
C1823 C1824 1.399 . S
C1823 C1828 1.399 . S
C1824 C1823 1.399 . S
C1824 C1825 1.376 . S
C1825 H1812 0.930 . S
C1825 C1824 1.376 . S
C1825 C1826 1.388 . S
C1826 H1813 0.930 . S
C1826 C1825 1.388 . S
C1826 C1827 1.390 . S
C1827 C1826 1.390 . S
C1827 C1828 1.394 . S
C1827 C1833 1.465 . S
C1828 C1823 1.399 . S
C1828 C1827 1.394 . S
C1828 C1829 1.516 . S
C1829 C1828 1.516 . S
C1829 C1830 1.502 . S
C1829 C1831 1.561 . S
C1829 C1832 1.526 . S
C1830 H1814 0.959 . S
C1830 H1815 0.959 . S
C1830 H1816 0.961 . S
C1830 C1829 1.502 . S
C1831 H1817 0.960 . S
C1831 H1818 0.961 . S
C1831 H1819 0.959 . S
C1831 C1829 1.561 . S
C1832 C1829 1.526 . S
C1832 C1833 1.396 . S
C1832 C1837 1.390 . S
C1833 C1827 1.465 . S
C1833 C1832 1.396 . S
C1833 C1834 1.399 . S
C1834 H1820 0.929 . S
C1834 C1833 1.399 . S
C1834 C1835 1.385 . S
C1835 H1821 0.931 . S
C1835 C1834 1.385 . S
C1835 C1836 1.389 . S
C1836 C1835 1.389 . S
C1836 C1837 1.387 . S
C1837 H1822 0.930 . S
C1837 C1832 1.390 . S
C1837 C1836 1.387 . S
H1838 C1850 0.930 . S
H1839 C1852 0.930 . S
H1840 C1853 0.930 . S
H1841 C1857 0.959 . S
H1842 C1857 0.959 . S
H1843 C1857 0.961 . S
H1844 C1858 0.960 . S
H1845 C1858 0.961 . S
H1846 C1858 0.959 . S
H1847 C1861 0.929 . S
H1848 C1862 0.931 . S
H1849 C1864 0.930 . S
C1850 H1838 0.930 . S
C1850 C1851 1.399 . S
C1850 C1855 1.399 . S
C1851 C1850 1.399 . S
C1851 C1852 1.376 . S
C1852 H1839 0.930 . S
C1852 C1851 1.376 . S
C1852 C1853 1.388 . S
C1853 H1840 0.930 . S
C1853 C1852 1.388 . S
C1853 C1854 1.390 . S
C1854 C1853 1.390 . S
C1854 C1855 1.394 . S
C1854 C1860 1.465 . S
C1855 C1850 1.399 . S
C1855 C1854 1.394 . S
C1855 C1856 1.516 . S
C1856 C1855 1.516 . S
C1856 C1857 1.502 . S
C1856 C1858 1.561 . S
C1856 C1859 1.526 . S
C1857 H1841 0.959 . S
C1857 H1842 0.959 . S
C1857 H1843 0.961 . S
C1857 C1856 1.502 . S
C1858 H1844 0.960 . S
C1858 H1845 0.961 . S
C1858 H1846 0.959 . S
C1858 C1856 1.561 . S
C1859 C1856 1.526 . S
C1859 C1860 1.396 . S
C1859 C1864 1.390 . S
C1860 C1854 1.465 . S
C1860 C1859 1.396 . S
C1860 C1861 1.399 . S
C1861 H1847 0.929 . S
C1861 C1860 1.399 . S
C1861 C1862 1.385 . S
C1862 H1848 0.931 . S
C1862 C1861 1.385 . S
C1862 C1863 1.389 . S
C1863 C1862 1.389 . S
C1863 C1864 1.387 . S
C1864 H1849 0.930 . S
C1864 C1859 1.390 . S
C1864 C1863 1.387 . S
H1865 C1877 0.930 . S
H1866 C1879 0.930 . S
H1867 C1880 0.930 . S
H1868 C1884 0.959 . S
H1869 C1884 0.959 . S
H1870 C1884 0.961 . S
H1871 C1885 0.960 . S
H1872 C1885 0.961 . S
H1873 C1885 0.959 . S
H1874 C1888 0.929 . S
H1875 C1889 0.931 . S
H1876 C1891 0.930 . S
C1877 H1865 0.930 . S
C1877 C1878 1.399 . S
C1877 C1882 1.399 . S
C1878 C1877 1.399 . S
C1878 C1879 1.376 . S
C1879 H1866 0.930 . S
C1879 C1878 1.376 . S
C1879 C1880 1.388 . S
C1880 H1867 0.930 . S
C1880 C1879 1.388 . S
C1880 C1881 1.390 . S
C1881 C1880 1.390 . S
C1881 C1882 1.394 . S
C1881 C1887 1.465 . S
C1882 C1877 1.399 . S
C1882 C1881 1.394 . S
C1882 C1883 1.516 . S
C1883 C1882 1.516 . S
C1883 C1884 1.502 . S
C1883 C1885 1.561 . S
C1883 C1886 1.526 . S
C1884 H1868 0.959 . S
C1884 H1869 0.959 . S
C1884 H1870 0.961 . S
C1884 C1883 1.502 . S
C1885 H1871 0.960 . S
C1885 H1872 0.961 . S
C1885 H1873 0.959 . S
C1885 C1883 1.561 . S
C1886 C1883 1.526 . S
C1886 C1887 1.396 . S
C1886 C1891 1.390 . S
C1887 C1881 1.465 . S
C1887 C1886 1.396 . S
C1887 C1888 1.399 . S
C1888 H1874 0.929 . S
C1888 C1887 1.399 . S
C1888 C1889 1.385 . S
C1889 H1875 0.931 . S
C1889 C1888 1.385 . S
C1889 C1890 1.389 . S
C1890 C1889 1.389 . S
C1890 C1891 1.387 . S
C1891 H1876 0.930 . S
C1891 C1886 1.390 . S
C1891 C1890 1.387 . S
C621 C282 1.527 . S
C609 N2 1.488 . S
C648 C325 2.342 . S
C636 C7 2.288 . S
C675 C362 1.601 . S
C663 N12 1.396 . S
C690 C16 2.266 1_565 S
C702 C405 2.319 . S
C729 C454 2.516 . S
C717 C30 2.486 1_565 S
C756 C491 1.353 . S
C744 N35 1.366 . S
C771 C39 2.494 . S
C783 C534 2.517 . S
C810 C571 1.343 . S
C798 N25 1.305 . S
C837 C286 1.329 . S
C825 N58 1.350 . S
C852 N81 1.953 . S
C864 C335 1.973 . S
C891 C366 1.366 . S
C879 N104 1.257 . S
C906 N127 1.965 . S
C918 C415 2.021 . S
C945 C442 0.796 . S
C933 N48 0.909 . S
C972 C485 1.554 . S
C960 N71 1.528 . S
C987 N94 0.828 . S
C999 C522 0.897 . S
C1026 C565 1.514 . S
C1014 N117 1.603 . S
C1041 C85 2.137 . S
C1053 C294 1.974 . S
C1068 C122 2.378 . S
C1080 C446 2.358 . S
C1095 C53 2.014 . S
C1107 C495 2.062 . S
C1134 C526 2.410 . S
C1122 C76 2.427 . S
C1161 C575 2.066 . S
C1149 C99 2.013 . S
C1188 C374 1.964 . S
C1176 C131 2.108 . S
C1215 C411 1.153 . S
C1203 C62 1.123 . S
C1230 C108 1.183 . S
C1242 C331 1.056 . S
C1269 C562 1.674 . S
C1257 N140 1.682 . S
C1284 C145 2.321 . S
C1296 C445 2.320 . S
C1323 C482 1.462 . S
C1311 N150 1.324 . S
C1338 C154 2.270 . S
C1350 C525 2.318 . S
C1377 C334 2.476 . S
C1365 C168 2.417 . S
C1392 N173 1.243 . S
C1404 C371 1.240 . S
C1431 C414 2.503 . S
C1419 C177 2.492 . S
C1458 C291 1.470 . S
C1446 N163 1.257 . S
C1485 C566 1.872 . S
C1473 C200 1.816 . S
C1512 C455 2.254 . S
C1500 N219 2.247 . S
C1527 N242 1.524 . S
C1539 C486 1.650 . S
C1566 C535 2.368 . S
C1554 C269 2.409 . S
C1593 C322 1.175 . S
C1581 C191 1.173 . S
C1608 N209 1.853 . S
C1620 C365 1.742 . S
C1635 N232 1.119 . S
C1647 C402 1.011 . S
C1662 C260 2.053 . S
C1674 C285 1.995 . S
C1689 C223 1.841 . S
C1701 C574 1.686 . S
C1716 N255 1.958 . S
C1728 C326 1.952 . S
C1743 N186 1.552 . S
C1755 C375 1.523 . S
C1782 C406 2.061 . S
C1770 C214 2.122 . S
C1809 C295 1.782 . S
C1797 C237 1.730 . S
C1836 C494 1.546 . S
C1824 N265 1.623 . S
C1863 C531 0.785 . S
C1851 N196 0.784 . S
C1890 C451 0.817 . S
C1878 C246 0.958 . S
