# Generated by pormake.
# Topology pyr, (3,6)-cn, num edge types: 1
# Building blocks:
#     Node 0, Type 0, BuildingBlock: OLANEW_clean_sbu_2, # of connection points: 3
#     Node 1, Type 0, BuildingBlock: OLANEW_clean_sbu_2, # of connection points: 3
#     Node 2, Type 0, BuildingBlock: OLANEW_clean_sbu_2, # of connection points: 3
#     Node 3, Type 0, BuildingBlock: OLANEW_clean_sbu_2, # of connection points: 3
#     Node 4, Type 0, BuildingBlock: OLANEW_clean_sbu_2, # of connection points: 3
#     Node 5, Type 0, BuildingBlock: OLANEW_clean_sbu_2, # of connection points: 3
#     Node 6, Type 0, BuildingBlock: OLANEW_clean_sbu_2, # of connection points: 3
#     Node 7, Type 0, BuildingBlock: OLANEW_clean_sbu_2, # of connection points: 3
#     Node 8, Type 1, BuildingBlock: PAMTUU_clean_sbu_0, # of connection points: 6
#     Node 9, Type 1, BuildingBlock: PAMTUU_clean_sbu_0, # of connection points: 6
#     Node 10, Type 1, BuildingBlock: PAMTUU_clean_sbu_0, # of connection points: 6
#     Node 11, Type 1, BuildingBlock: PAMTUU_clean_sbu_0, # of connection points: 6
#     Edge 12, Type (0, 1), BuildingBlock: OJICUG_clean_linker_0, # of connection points: 2
#     Edge 13, Type (0, 1), BuildingBlock: OJICUG_clean_linker_0, # of connection points: 2
#     Edge 14, Type (0, 1), BuildingBlock: OJICUG_clean_linker_0, # of connection points: 2
#     Edge 15, Type (0, 1), BuildingBlock: OJICUG_clean_linker_0, # of connection points: 2
#     Edge 16, Type (0, 1), BuildingBlock: OJICUG_clean_linker_0, # of connection points: 2
#     Edge 17, Type (0, 1), BuildingBlock: OJICUG_clean_linker_0, # of connection points: 2
#     Edge 18, Type (0, 1), BuildingBlock: OJICUG_clean_linker_0, # of connection points: 2
#     Edge 19, Type (0, 1), BuildingBlock: OJICUG_clean_linker_0, # of connection points: 2
#     Edge 20, Type (0, 1), BuildingBlock: OJICUG_clean_linker_0, # of connection points: 2
#     Edge 21, Type (0, 1), BuildingBlock: OJICUG_clean_linker_0, # of connection points: 2
#     Edge 22, Type (0, 1), BuildingBlock: OJICUG_clean_linker_0, # of connection points: 2
#     Edge 23, Type (0, 1), BuildingBlock: OJICUG_clean_linker_0, # of connection points: 2
#     Edge 24, Type (0, 1), BuildingBlock: OJICUG_clean_linker_0, # of connection points: 2
#     Edge 25, Type (0, 1), BuildingBlock: OJICUG_clean_linker_0, # of connection points: 2
#     Edge 26, Type (0, 1), BuildingBlock: OJICUG_clean_linker_0, # of connection points: 2
#     Edge 27, Type (0, 1), BuildingBlock: OJICUG_clean_linker_0, # of connection points: 2
#     Edge 28, Type (0, 1), BuildingBlock: OJICUG_clean_linker_0, # of connection points: 2
#     Edge 29, Type (0, 1), BuildingBlock: OJICUG_clean_linker_0, # of connection points: 2
#     Edge 30, Type (0, 1), BuildingBlock: OJICUG_clean_linker_0, # of connection points: 2
#     Edge 31, Type (0, 1), BuildingBlock: OJICUG_clean_linker_0, # of connection points: 2
#     Edge 32, Type (0, 1), BuildingBlock: OJICUG_clean_linker_0, # of connection points: 2
#     Edge 33, Type (0, 1), BuildingBlock: OJICUG_clean_linker_0, # of connection points: 2
#     Edge 34, Type (0, 1), BuildingBlock: OJICUG_clean_linker_0, # of connection points: 2
#     Edge 35, Type (0, 1), BuildingBlock: OJICUG_clean_linker_0, # of connection points: 2
# Relax obj value: 0.187
# Max RMSD: 0.196
# Mean RMSD: 0.125
data_MOF--net-pyr--node1-OLANEW_clean_sbu_2--node2-PAMTUU_clean_sbu_0--edge1-OJICUG_clean_linker_0
_symmetry_space_group_name_H-M    P1
_symmetry_Int_Tables_number       1
_symmetry_cell_setting            triclinic
loop_
_symmetry_equiv_pos_as_xyz
'x, y, z'
_cell_length_a     30.512001
_cell_length_b     32.962762
_cell_length_c     30.9744
_cell_angle_alpha  94.915721
_cell_angle_beta   88.490315
_cell_angle_gamma 104.97408
loop_
_atom_site_label
_atom_site_type_symbol
_atom_site_fract_x
_atom_site_fract_y
_atom_site_fract_z
_atom_type_partial_charge
O0 O 0.4412 0.27098 0.11689 0.0
Cd1 Cd 0.41457 0.33264 0.09834 0.0
O2 O 0.38013 0.24648 0.15452 0.0
Cd3 Cd 0.33663 0.20603 0.19862 0.0
O4 O 0.29841 0.16761 0.24696 0.0
C5 C 0.31718 0.16858 0.28324 0.0
O6 O 0.35868 0.19225 0.28959 0.0
C7 C 0.41874 0.2432 0.14062 0.0
C8 C 0.32349 0.33752 0.10387 0.0
O9 O 0.34975 0.34792 0.13687 0.0
O10 O 0.3393 0.32243 0.06908 0.0
O11 O 0.17163 0.79497 0.86197 0.0
Cd12 Cd 0.14962 0.76791 0.78801 0.0
O13 O 0.12207 0.83251 0.87564 0.0
Cd14 Cd 0.09025 0.81741 0.81222 0.0
O15 O 0.0691 0.84326 0.75626 0.0
C16 C 0.04093 0.86563 0.76271 0.0
O17 O 0.02367 0.86948 0.8017 0.0
C18 C 0.15543 0.81975 0.88746 0.0
C19 C 0.22749 0.75066 0.75031 0.0
O20 O 0.19689 0.72181 0.76699 0.0
O21 O 0.2203 0.78723 0.74971 0.0
O22 O 0.7408 0.44925 0.91608 0.0
Cd23 Cd 0.66654 0.43938 0.87527 0.0
O24 O 0.73225 0.39818 0.96148 0.0
Cd25 Cd 0.66732 0.34731 0.96301 0.0
O26 O 0.62217 0.28755 0.98622 0.0
C27 C 0.64016 0.25762 0.99248 0.0
O28 O 0.6836 0.26307 0.98384 0.0
C29 C 0.75628 0.43154 0.94565 0.0
C30 C 0.64964 0.48368 0.80332 0.0
O31 O 0.64956 0.49975 0.84254 0.0
O32 O 0.66034 0.44841 0.79762 0.0
O33 O 0.94318 0.7888 0.36966 0.0
Cd34 Cd 0.90997 0.71767 0.33001 0.0
O35 O 0.89236 0.76983 0.42105 0.0
Cd36 Cd 0.85443 0.70518 0.40352 0.0
O37 O 0.7971 0.66899 0.43996 0.0
C38 C 0.78191 0.69076 0.46984 0.0
O39 O 0.80098 0.73141 0.47551 0.0
C40 C 0.92483 0.79743 0.40574 0.0
C41 C 0.94379 0.6788 0.25526 0.0
O42 O 0.9186 0.70408 0.25179 0.0
O43 O 0.95552 0.67407 0.29363 0.0
O44 O 0.66646 0.74057 0.77449 0.0
Cd45 Cd 0.63982 0.68908 0.8274 0.0
O46 O 0.65732 0.78746 0.82555 0.0
Cd47 Cd 0.65734 0.84547 0.86609 0.0
O48 O 0.63871 0.88641 0.91915 0.0
C49 C 0.59778 0.88881 0.92169 0.0
O50 O 0.569 0.86796 0.89172 0.0
C51 C 0.67105 0.77908 0.78742 0.0
C52 C 0.71714 0.67604 0.86359 0.0
O53 O 0.69597 0.65065 0.83281 0.0
O54 O 0.70086 0.7067 0.87819 0.0
O55 O 0.92116 0.26882 0.33454 0.0
Cd56 Cd 0.96366 0.29579 0.40053 0.0
O57 O 0.88329 0.31685 0.3298 0.0
Cd58 Cd 0.90429 0.35504 0.39027 0.0
O59 O 0.85589 0.3827 0.42772 0.0
C60 C 0.82545 0.38915 0.40388 0.0
O61 O 0.82825 0.38108 0.36174 0.0
C62 C 0.89295 0.28305 0.31498 0.0
C63 C 0.97402 0.22441 0.43708 0.0
O64 O 0.93911 0.23861 0.44541 0.0
O65 O 1.00507 0.24496 0.41275 0.0
O66 O 0.44132 0.79815 0.27713 0.0
Cd67 Cd 0.41712 0.72871 0.31414 0.0
O68 O 0.39196 0.77963 0.22275 0.0
Cd69 Cd 0.34722 0.715 0.22166 0.0
O70 O 0.28952 0.66901 0.18757 0.0
C71 C 0.27195 0.6826 0.15672 0.0
O72 O 0.28908 0.72179 0.14763 0.0
C73 C 0.42408 0.80692 0.24272 0.0
C74 C 0.45343 0.69827 0.3867 0.0
O75 O 0.46697 0.69195 0.3477 0.0
O76 O 0.42533 0.72133 0.39225 0.0
O77 O 0.16694 0.44886 0.79242 0.0
Cd78 Cd 0.19112 0.42093 0.72151 0.0
O79 O 0.12347 0.38852 0.81247 0.0
Cd80 Cd 0.13172 0.34137 0.75944 0.0
O81 O 0.11833 0.27867 0.72215 0.0
C82 C 0.07729 0.25684 0.719 0.0
O83 O 0.0454 0.27289 0.73708 0.0
C84 C 0.13976 0.42827 0.81961 0.0
C85 C 0.27698 0.46203 0.68917 0.0
O86 O 0.24328 0.47845 0.68842 0.0
O87 O 0.27073 0.42684 0.70612 0.0
Tb88 Tb 0.05431 0.02759 0.55659 0.0
Tb89 Tb 0.94798 1.01533 0.58735 0.0
C90 C 0.97758 0.95568 0.51461 0.0
C91 C 0.16201 0.05165 0.49476 0.0
C92 C 0.21358 0.08441 0.42327 0.0
C93 C 0.16731 0.08369 0.42665 0.0
C94 C 0.14171 0.06737 0.46211 0.0
C95 C 0.2078 0.05157 0.49131 0.0
C96 C 0.23346 0.0678 0.45577 0.0
C97 C 0.13601 0.03677 0.53318 0.0
O98 O 0.03207 0.07385 0.52306 0.0
O99 O 0.95421 0.05095 0.53063 0.0
O100 O 0.98384 0.0795 0.60858 0.0
O101 O 0.05374 0.06788 0.61645 0.0
O102 O 0.8786 0.99106 0.57348 0.0
O103 O 0.90085 0.025 0.63503 0.0
O104 O 0.97975 0.99096 0.63767 0.0
O105 O 0.0403 0.97698 0.59936 0.0
O106 O 0.01237 0.98682 0.50584 0.0
O107 O 0.95493 0.95766 0.55109 0.0
C108 C 0.99073 0.07583 0.51447 0.0
O109 O 0.12121 0.06512 0.55673 0.0
O110 O 0.10476 1.00152 0.52716 0.0
C111 C 0.02502 0.09131 0.62451 0.0
C112 C 0.83565 0.96896 0.63545 0.0
C113 C 0.77779 0.90705 0.68281 0.0
C114 C 0.76369 0.94221 0.67171 0.0
C115 C 0.79244 0.97291 0.64818 0.0
C116 C 0.8499 0.93399 0.64633 0.0
C117 C 0.82123 0.9033 0.66977 0.0
C118 C 0.86641 1.00219 0.61248 0.0
C119 C 0.0125 0.97184 0.63262 0.0
H120 H 0.15116 0.09677 0.4025 0.0
H121 H 0.10631 0.06769 0.46447 0.0
H122 H 0.22382 0.03942 0.51633 0.0
H123 H 0.26885 0.06744 0.45379 0.0
H124 H 0.73034 0.94583 0.68093 0.0
H125 H 0.78105 0.99986 0.64015 0.0
H126 H 0.88341 0.93071 0.63711 0.0
H127 H 0.83343 0.87699 0.67836 0.0
Tb128 Tb 0.56138 0.04951 0.14862 0.0
Tb129 Tb 0.46276 0.0325 0.10208 0.0
C130 C 0.53664 0.98824 0.06274 0.0
C131 C 0.67625 0.10047 0.19489 0.0
C132 C 0.75435 0.16631 0.21513 0.0
C133 C 0.7579 0.12927 0.1908 0.0
C134 C 0.71923 0.09661 0.18099 0.0
C135 C 0.67231 0.13813 0.21752 0.0
C136 C 0.71099 0.17066 0.22765 0.0
C137 C 0.63651 0.06437 0.18666 0.0
O138 O 0.5745 0.08708 0.09286 0.0
O139 O 0.50252 0.09284 0.07926 0.0
O140 O 0.46568 0.06591 0.16546 0.0
O141 O 0.5365 0.10589 0.16379 0.0
O142 O 0.41877 0.03436 0.05183 0.0
O143 O 0.39276 1.01726 0.11513 0.0
O144 O 0.46373 0.9731 0.12834 0.0
O145 O 0.51381 1.00105 0.18334 0.0
O146 O 0.5595 0.9976 0.09936 0.0
O147 O 0.50075 1.00187 0.05582 0.0
C148 C 0.54703 0.10513 0.07407 0.0
O149 O 0.59856 0.06622 0.20631 0.0
O150 O 0.63006 0.04917 0.14644 0.0
C151 C 0.49353 0.10312 0.17157 0.0
C152 C 0.34772 0.98432 0.0553 0.0
C153 C 0.27857 0.91939 1.01493 0.0
C154 C 0.26827 0.94637 0.04915 0.0
C155 C 0.30255 0.97864 0.06901 0.0
C156 C 0.35852 0.95633 0.02254 0.0
C157 C 0.32424 0.92431 1.00239 0.0
C158 C 0.3827 0.01997 0.07507 0.0
C159 C 0.48221 0.96947 0.16534 0.0
H160 H 0.79067 0.1251 0.18017 0.0
H161 H 0.723 0.06791 0.16322 0.0
H162 H 0.63956 0.14213 0.22844 0.0
H163 H 0.70696 0.19842 0.24702 0.0
H164 H 0.23361 0.94308 0.06008 0.0
H165 H 0.29369 0.99967 0.09463 0.0
H166 H 0.39327 0.95982 1.01175 0.0
H167 H 0.33344 0.90458 0.97577 0.0
Tb168 Tb 0.53933 0.53866 0.56392 0.0
Tb169 Tb 0.5367 0.624 0.62579 0.0
C170 C 0.5046 0.61294 0.52955 0.0
C171 C 0.58678 0.45907 0.50329 0.0
C172 C 0.66509 0.43437 0.4743 0.0
C173 C 0.62309 0.4168 0.45362 0.0
C174 C 0.58431 0.42917 0.46794 0.0
C175 C 0.6282 0.47578 0.52492 0.0
C176 C 0.66704 0.4635 0.51059 0.0
C177 C 0.54727 0.47537 0.51519 0.0
O178 O 0.60904 0.57543 0.56922 0.0
O179 O 0.59715 0.64097 0.58522 0.0
O180 O 0.58022 0.59485 0.66151 0.0
O181 O 0.55859 0.52745 0.62868 0.0
O182 O 0.53996 0.68872 0.63049 0.0
O183 O 0.52826 0.65374 0.68706 0.0
O184 O 0.4763 0.57635 0.6425 0.0
O185 O 0.46839 0.52794 0.58316 0.0
O186 O 0.52858 0.58523 0.52126 0.0
O187 O 0.4941 0.62302 0.56974 0.0
C188 C 0.62265 0.61652 0.56942 0.0
O189 O 0.53417 0.47357 0.55548 0.0
O190 O 0.54881 0.51192 0.50155 0.0
C191 C 0.57864 0.55439 0.66056 0.0
C192 C 0.48392 0.70072 0.67934 0.0
C193 C 0.40027 0.71961 0.69861 0.0
C194 C 0.44065 0.74495 0.71765 0.0
C195 C 0.48224 0.73542 0.70819 0.0
C196 C 0.44389 0.67613 0.65951 0.0
C197 C 0.40248 0.68538 0.66911 0.0
C198 C 0.52645 0.68839 0.67073 0.0
C199 C 0.45251 0.54338 0.61899 0.0
H200 H 0.62028 0.39378 0.42601 0.0
H201 H 0.55262 0.41606 0.45083 0.0
H202 H 0.63075 0.49913 0.55219 0.0
H203 H 0.69886 0.47793 0.52698 0.0
H204 H 0.43987 0.77135 0.74074 0.0
H205 H 0.51284 0.75464 0.72385 0.0
H206 H 0.44457 0.6493 0.63699 0.0
H207 H 0.37211 0.66563 0.65352 0.0
Tb208 Tb 0.02547 0.58178 1.00832 0.0
Tb209 Tb 0.02811 0.50215 0.06411 0.0
C210 C 0.06959 0.51114 0.96979 0.0
C211 C 0.9709 0.64738 0.95242 0.0
C212 C 0.88772 0.65836 0.9253 0.0
C213 C 0.92882 0.68706 0.91524 0.0
C214 C 0.97026 0.68139 0.92846 0.0
C215 C 0.92983 0.61955 0.9636 0.0
C216 C 0.88864 0.6247 0.94978 0.0
C217 C 0.01386 0.6396 0.96505 0.0
O218 O 0.96882 0.52949 0.98704 0.0
O219 O 0.956 0.49282 0.0476 0.0
O220 O 0.01269 0.54947 0.11147 0.0
O221 O 0.98294 0.58633 0.06562 0.0
O222 O 0.01624 0.43656 0.06662 0.0
O223 O 0.04773 0.47917 0.11994 0.0
O224 O 0.09757 0.54232 0.06421 0.0
O225 O 0.08433 0.60537 0.04974 0.0
O226 O 0.07435 0.5521 0.97424 0.0
O227 O 0.04467 0.48644 0.9971 0.0
C228 C 0.94161 0.50268 1.01095 0.0
O229 O 0.022 0.64451 1.00649 0.0
O230 O 0.02129 0.60457 0.94771 0.0
C231 C 0.99115 0.57819 0.10504 0.0
C232 C 0.07696 0.42045 0.10174 0.0
C233 C 0.15349 0.38663 0.10283 0.0
C234 C 0.12218 0.38217 0.13747 0.0
C235 C 0.0843 0.39888 0.13688 0.0
C236 C 0.10792 0.42476 0.06698 0.0
C237 C 0.1456 0.4079 0.06743 0.0
C238 C 0.0388 0.4406 0.10256 0.0
C239 C 0.11006 0.58376 0.06539 0.0
H240 H 0.9289 0.71322 0.89629 0.0
H241 H 1.00167 0.70321 0.91967 0.0
H242 H 0.9297 0.59354 0.98273 0.0
H243 H 0.85744 0.60247 0.95841 0.0
H244 H 0.12692 0.36574 0.16509 0.0
H245 H 0.06104 0.39542 0.16416 0.0
H246 H 0.10338 0.44182 0.03975 0.0
H247 H 0.16926 0.41261 0.04052 0.0
C248 C 0.3102 0.15045 0.36027 0.0
C249 C 0.29181 0.14513 0.31845 0.0
H250 H 0.29964 0.13589 0.42631 0.0
C251 C 0.24835 0.11819 0.31089 0.0
H252 H 0.34358 0.17105 0.36715 0.0
C253 C 0.22335 0.09772 0.34469 0.0
C254 C 0.24124 0.10387 0.38679 0.0
H255 H 0.23338 0.11318 0.27892 0.0
H256 H 0.18992 0.07719 0.33789 0.0
C257 C 0.28513 0.13009 0.39413 0.0
C258 C 0.2176 0.82571 0.94058 0.0
C259 C 0.18043 0.83938 0.92737 0.0
H260 H 0.27721 0.8397 0.97971 0.0
C261 C 0.17198 0.87608 0.94846 0.0
H262 H 0.22472 0.79726 0.92536 0.0
C263 C 0.20249 0.90078 0.97901 0.0
C264 C 0.24184 0.88905 0.98948 0.0
H265 H 0.1436 0.88747 0.93915 0.0
H266 H 0.19673 0.93052 0.99202 0.0
C267 C 0.2479 0.85023 0.97146 0.0
C268 C 0.62515 0.48074 0.72537 0.0
C269 C 0.63484 0.50353 0.76609 0.0
H270 H 0.59998 0.47841 0.66093 0.0
C271 C 0.62757 0.54426 0.77123 0.0
H272 H 0.63007 0.44932 0.71995 0.0
C273 C 0.61056 0.5613 0.73692 0.0
C274 C 0.5996 0.53788 0.6966 0.0
H275 H 0.63453 0.56287 0.80199 0.0
H276 H 0.60496 0.59247 0.74239 0.0
C277 C 0.60759 0.49747 0.69139 0.0
C278 C 0.94381 0.65907 0.1744 0.0
C279 C 0.95673 0.65392 0.21652 0.0
H280 H 0.94407 0.63939 0.10648 0.0
C281 C 0.98025 0.62309 0.2215 0.0
H282 H 0.92544 0.68229 0.16923 0.0
C283 C 0.99051 0.59815 0.18556 0.0
C284 C 0.97772 0.60329 0.14339 0.0
H285 H 0.99056 0.61793 0.25333 0.0
H286 H 0.0089 0.57499 0.19092 0.0
C287 C 0.95427 0.63421 0.13835 0.0
C288 C 0.40963 0.16881 0.16025 0.0
C289 C 0.43804 0.20833 0.15211 0.0
H290 H 0.40467 0.10537 0.17417 0.0
C291 C 0.48534 0.21377 0.15342 0.0
H292 H 0.37324 0.16264 0.15751 0.0
C293 C 0.50368 0.18041 0.16224 0.0
C294 C 0.47511 0.14069 0.16977 0.0
H295 H 0.50827 0.24374 0.14703 0.0
H296 H 0.54018 0.18537 0.16159 0.0
C297 C 0.42786 0.13564 0.16936 0.0
C298 C 0.05634 0.89289 0.68935 0.0
C299 C 0.03136 0.8905 0.72822 0.0
H300 H 0.07024 0.92056 0.62893 0.0
C301 C 0.99898 0.91401 0.73481 0.0
H302 H 0.08157 0.87521 0.68325 0.0
C303 C 0.99237 0.94003 0.70357 0.0
C304 C 0.01827 0.94332 0.66521 0.0
H305 H 0.97909 0.91277 0.76438 0.0
H306 H 0.96745 0.95802 0.70984 0.0
C307 C 0.04998 0.9191 0.65827 0.0
C308 C 0.81882 0.43503 0.99959 0.0
C309 C 0.80362 0.44988 0.96269 0.0
H310 H 0.87341 0.43981 0.04402 0.0
C311 C 0.83432 0.48215 0.94236 0.0
H312 H 0.79629 0.41029 1.01639 0.0
C313 C 0.8787 0.49867 0.958 0.0
C314 C 0.89395 0.48401 0.99496 0.0
H315 H 0.82427 0.4945 0.91397 0.0
H316 H 0.90111 0.52318 0.94084 0.0
C317 C 0.86319 0.45199 1.01561 0.0
C318 C 0.7255 0.62745 0.49561 0.0
C319 C 0.74285 0.67138 0.49729 0.0
H320 H 0.67452 0.57564 0.51764 0.0
C321 C 0.7221 0.69698 0.52516 0.0
H322 H 0.74087 0.60685 0.47472 0.0
C323 C 0.68393 0.67916 0.54969 0.0
C324 C 0.66591 0.63529 0.54728 0.0
H325 H 0.73471 0.73097 0.52737 0.0
H326 H 0.66811 0.69986 0.56995 0.0
C327 C 0.6876 0.60959 0.5205 0.0
C328 C 0.26114 0.36354 0.14278 0.0
C329 C 0.27773 0.34591 0.1048 0.0
H330 H 0.2094 0.39032 0.17196 0.0
C331 C 0.25167 0.33949 0.06683 0.0
H332 H 0.2803 0.36907 0.1726 0.0
C333 C 0.21097 0.35175 0.06644 0.0
C334 C 0.19506 0.37059 0.10407 0.0
H335 H 0.26329 0.32598 0.03697 0.0
H336 H 0.19214 0.34678 0.03646 0.0
C337 C 0.22031 0.37561 0.14244 0.0
C338 C 0.63641 0.1864 1.01759 0.0
C339 C 0.6141 0.21772 1.01083 0.0
H340 H 0.633 0.12695 0.04195 0.0
C341 C 0.568 0.21054 0.02293 0.0
H342 H 0.67173 0.19039 1.00866 0.0
C343 C 0.54534 0.1734 0.04212 0.0
C344 C 0.56836 0.14275 0.04984 0.0
H345 H 0.54965 0.23389 1.01828 0.0
H346 H 0.51027 0.16932 0.05207 0.0
C347 C 0.61404 0.14973 0.03681 0.0
C348 C 0.91398 0.84675 0.46863 0.0
C349 C 0.93933 0.83923 0.43146 0.0
H350 H 0.90569 0.88835 0.52295 0.0
C351 C 0.97737 0.87139 0.42078 0.0
H352 H 0.88425 0.82321 0.47814 0.0
C353 C 0.98989 0.90967 0.4472 0.0
C354 C 0.96455 0.91649 0.4847 0.0
H355 H 0.99766 0.86684 0.39245 0.0
H356 H 0.01962 0.93365 0.43853 0.0
C357 C 0.92631 0.88451 0.49464 0.0
C358 C 0.3078 0.77608 0.72462 0.0
C359 C 0.2709 0.74258 0.73454 0.0
H360 H 0.37777 0.79513 0.70565 0.0
C361 C 0.27668 0.70151 0.73164 0.0
H362 H 0.30448 0.80813 0.72672 0.0
C363 C 0.31854 0.69414 0.71956 0.0
C364 C 0.35568 0.7277 0.71042 0.0
H365 H 0.24899 0.67504 0.7392 0.0
H366 H 0.32211 0.6622 0.7183 0.0
C367 C 0.34986 0.76874 0.71292 0.0
C368 C 0.69646 0.85496 0.76909 0.0
C369 C 0.69509 0.81223 0.7593 0.0
H370 H 0.72392 0.91855 0.75288 0.0
C371 C 0.71896 0.80095 0.72265 0.0
H372 H 0.67779 0.86483 0.79628 0.0
C373 C 0.74493 0.83162 0.6975 0.0
C374 C 0.74769 0.87446 0.70816 0.0
H375 H 0.71852 0.76834 0.7138 0.0
H376 H 0.76313 0.82172 0.66975 0.0
C377 C 0.72253 0.88577 0.7438 0.0
C378 C 0.86649 0.21408 0.27126 0.0
C379 C 0.86481 0.2562 0.27997 0.0
H380 H 0.83253 0.15251 0.24454 0.0
C381 C 0.83071 0.26997 0.26048 0.0
H382 H 0.8924 0.20243 0.28556 0.0
C383 C 0.79646 0.24129 0.23642 0.0
C384 C 0.79555 0.19827 0.23157 0.0
H385 H 0.82876 0.30236 0.26606 0.0
H386 H 0.76944 0.25243 0.22354 0.0
C387 C 0.8321 0.18538 0.2475 0.0
C388 C 0.4528 0.68471 0.46645 0.0
C389 C 0.46771 0.6776 0.42364 0.0
H390 H 0.45231 0.6703 0.53293 0.0
C391 C 0.49462 0.64874 0.41619 0.0
H392 H 0.43187 0.70645 0.47367 0.0
C393 C 0.50603 0.62761 0.45022 0.0
C394 C 0.49107 0.63463 0.49303 0.0
H395 H 0.50664 0.64208 0.38382 0.0
H396 H 0.52682 0.60578 0.44286 0.0
C397 C 0.4644 0.66372 0.50056 0.0
C398 C 0.1332 0.49477 0.86418 0.0
C399 C 0.12498 0.45051 0.85922 0.0
H400 H 0.12215 0.54882 0.90264 0.0
C401 C 0.10033 0.42711 0.89185 0.0
H402 H 0.15201 0.51386 0.83969 0.0
C403 C 0.0835 0.44705 0.9278 0.0
C404 C 0.09043 0.49114 0.93231 0.0
H405 H 0.09348 0.39307 0.88947 0.0
H406 H 0.06433 0.42755 0.95181 0.0
C407 C 0.11599 0.51485 0.90025 0.0
C408 C 0.53864 0.92062 0.95768 0.0
C409 C 0.58226 0.9139 0.95817 0.0
H410 H 0.49003 0.94911 0.99014 0.0
C411 C 0.61045 0.93094 0.99397 0.0
H412 H 0.51601 0.9079 0.93068 0.0
C413 C 0.59534 0.95432 0.02841 0.0
C414 C 0.55191 0.96152 0.02759 0.0
H415 H 0.64417 0.92617 0.99545 0.0
H416 H 0.61802 0.96733 0.05532 0.0
C417 C 0.52373 0.94429 0.99185 0.0
C418 C 0.94026 0.15905 0.47438 0.0
C419 C 0.97785 0.18507 0.45454 0.0
H420 H 0.91449 0.10371 0.50789 0.0
C421 C 0.01883 0.17298 0.45141 0.0
H422 H 0.90806 0.16723 0.47689 0.0
C423 C 0.02259 0.13646 0.46928 0.0
C424 C 0.9853 0.11104 0.49021 0.0
H425 H 0.04831 0.19222 0.43602 0.0
H426 H 0.05502 0.12869 0.4675 0.0
C427 C 0.94386 0.12235 0.4918 0.0
C428 C 0.21476 0.61279 0.13779 0.0
C429 C 0.23201 0.65592 0.13198 0.0
H430 H 0.16315 0.55586 0.12085 0.0
C431 C 0.21021 0.6741 0.1023 0.0
H432 H 0.23079 0.5977 0.16023 0.0
C433 C 0.17156 0.65032 0.08 0.0
C434 C 0.15367 0.60745 0.08629 0.0
H435 H 0.22247 0.70713 0.09675 0.0
H436 H 0.15536 0.66585 0.05811 0.0
C437 C 0.17614 0.58875 0.11501 0.0
C438 C 0.33628 0.52693 0.6717 0.0
C439 C 0.32153 0.48279 0.67041 0.0
H440 H 0.3897 0.58064 0.65713 0.0
C441 C 0.34955 0.45866 0.65065 0.0
H442 H 0.31541 0.54632 0.6867 0.0
C443 C 0.39139 0.4783 0.63236 0.0
C444 C 0.40666 0.52245 0.63476 0.0
H445 H 0.33888 0.42456 0.64894 0.0
H446 H 0.41241 0.45898 0.6175 0.0
C447 C 0.37875 0.54655 0.65475 0.0
C448 C 0.79055 0.70541 0.90293 0.0
C449 C 0.76011 0.67112 0.88057 0.0
H450 H 0.85527 0.72837 0.93406 0.0
C451 C 0.77187 0.63261 0.87323 0.0
H452 H 0.78251 0.73556 0.90882 0.0
C453 C 0.81319 0.62844 0.88811 0.0
C454 C 0.84389 0.66291 0.90986 0.0
H455 H 0.74909 0.60567 0.85608 0.0
H456 H 0.8215 0.59842 0.88204 0.0
C457 C 0.83228 0.70145 0.91708 0.0
C458 C 0.42005 0.85635 0.18592 0.0
C459 C 0.44011 0.84922 0.22422 0.0
H460 H 0.41699 0.8986 0.138 0.0
C461 C 0.47431 0.8827 0.24348 0.0
H462 H 0.39358 0.83179 0.16973 0.0
C463 C 0.48787 0.92181 0.22485 0.0
C464 C 0.46764 0.92855 0.18644 0.0
H465 H 0.49062 0.87873 0.27289 0.0
H466 H 0.5144 0.9467 0.24049 0.0
C467 C 0.43351 0.89507 0.16747 0.0
C468 C 0.09792 0.19312 0.68081 0.0
C469 C 0.06485 0.21407 0.69549 0.0
H470 H 0.11145 0.13766 0.64739 0.0
C471 C 0.01893 0.19359 0.68776 0.0
H472 H 0.13359 0.20788 0.68635 0.0
C473 C 1.00633 0.15367 0.66543 0.0
C474 C 0.0392 0.13271 0.65044 0.0
H475 H 0.99245 0.20859 0.69857 0.0
H476 H 0.97058 0.13931 0.65978 0.0
C477 C 0.08521 0.15276 0.65871 0.0
C478 C 0.75328 0.40985 0.39501 0.0
C479 C 0.7858 0.4026 0.42262 0.0
H480 H 0.6903 0.42597 0.38961 0.0
C481 C 0.77889 0.4067 0.46766 0.0
H482 H 0.7576 0.40721 0.36015 0.0
C483 C 0.73983 0.41717 0.48462 0.0
C484 C 0.70694 0.42367 0.45684 0.0
H485 H 0.80325 0.4012 0.48979 0.0
H486 H 0.73498 0.41937 0.51942 0.0
C487 C 0.71441 0.42027 0.41189 0.0
loop_
_geom_bond_atom_site_label_1
_geom_bond_atom_site_label_2
_geom_bond_distance
_geom_bond_site_symmetry_2
_ccdc_geom_bond_type
O0 Cd1 2.300 . S
O0 C7 1.275 . S
Cd1 O0 2.300 . S
Cd1 O9 2.381 . S
Cd1 O10 2.378 . S
O2 Cd3 2.385 . S
O2 C7 1.255 . S
Cd3 O2 2.385 . S
Cd3 O4 2.317 . S
O4 Cd3 2.317 . S
O4 C5 1.232 . S
C5 O4 1.232 . S
C5 O6 1.218 . S
O6 C5 1.218 . S
C7 O0 1.275 . S
C7 O2 1.255 . S
C8 O9 1.258 . S
C8 O10 1.256 . S
O9 Cd1 2.381 . S
O9 C8 1.258 . S
O10 Cd1 2.378 . S
O10 C8 1.256 . S
O11 Cd12 2.300 . S
O11 C18 1.275 . S
Cd12 O11 2.300 . S
Cd12 O20 2.381 . S
Cd12 O21 2.378 . S
O13 Cd14 2.385 . S
O13 C18 1.255 . S
Cd14 O13 2.385 . S
Cd14 O15 2.317 . S
O15 Cd14 2.317 . S
O15 C16 1.232 . S
C16 O15 1.232 . S
C16 O17 1.218 . S
O17 C16 1.218 . S
C18 O11 1.275 . S
C18 O13 1.255 . S
C19 O20 1.258 . S
C19 O21 1.256 . S
O20 Cd12 2.381 . S
O20 C19 1.258 . S
O21 Cd12 2.378 . S
O21 C19 1.256 . S
O22 Cd23 2.300 . S
O22 C29 1.275 . S
Cd23 O22 2.300 . S
Cd23 O31 2.381 . S
Cd23 O32 2.378 . S
O24 Cd25 2.385 . S
O24 C29 1.255 . S
Cd25 O24 2.385 . S
Cd25 O26 2.317 . S
O26 Cd25 2.317 . S
O26 C27 1.232 . S
C27 O26 1.232 . S
C27 O28 1.218 . S
O28 C27 1.218 . S
C29 O22 1.275 . S
C29 O24 1.255 . S
C30 O31 1.258 . S
C30 O32 1.256 . S
O31 Cd23 2.381 . S
O31 C30 1.258 . S
O32 Cd23 2.378 . S
O32 C30 1.256 . S
O33 Cd34 2.300 . S
O33 C40 1.275 . S
Cd34 O33 2.300 . S
Cd34 O42 2.381 . S
Cd34 O43 2.378 . S
O35 Cd36 2.385 . S
O35 C40 1.255 . S
Cd36 O35 2.385 . S
Cd36 O37 2.317 . S
O37 Cd36 2.317 . S
O37 C38 1.232 . S
C38 O37 1.232 . S
C38 O39 1.218 . S
O39 C38 1.218 . S
C40 O33 1.275 . S
C40 O35 1.255 . S
C41 O42 1.258 . S
C41 O43 1.256 . S
O42 Cd34 2.381 . S
O42 C41 1.258 . S
O43 Cd34 2.378 . S
O43 C41 1.256 . S
O44 Cd45 2.300 . S
O44 C51 1.275 . S
Cd45 O44 2.300 . S
Cd45 O53 2.381 . S
Cd45 O54 2.378 . S
O46 Cd47 2.385 . S
O46 C51 1.255 . S
Cd47 O46 2.385 . S
Cd47 O48 2.317 . S
O48 Cd47 2.317 . S
O48 C49 1.232 . S
C49 O48 1.232 . S
C49 O50 1.218 . S
O50 C49 1.218 . S
C51 O44 1.275 . S
C51 O46 1.255 . S
C52 O53 1.258 . S
C52 O54 1.256 . S
O53 Cd45 2.381 . S
O53 C52 1.258 . S
O54 Cd45 2.378 . S
O54 C52 1.256 . S
O55 Cd56 2.300 . S
O55 C62 1.275 . S
Cd56 O55 2.300 . S
Cd56 O64 2.381 . S
Cd56 O65 2.378 1_655 S
O57 Cd58 2.385 . S
O57 C62 1.255 . S
Cd58 O57 2.385 . S
Cd58 O59 2.317 . S
O59 Cd58 2.317 . S
O59 C60 1.232 . S
C60 O59 1.232 . S
C60 O61 1.218 . S
O61 C60 1.218 . S
C62 O55 1.275 . S
C62 O57 1.255 . S
C63 O64 1.258 . S
C63 O65 1.256 1_655 S
O64 Cd56 2.381 . S
O64 C63 1.258 . S
O65 Cd56 2.378 1_455 S
O65 C63 1.256 1_455 S
O66 Cd67 2.300 . S
O66 C73 1.275 . S
Cd67 O66 2.300 . S
Cd67 O75 2.381 . S
Cd67 O76 2.378 . S
O68 Cd69 2.385 . S
O68 C73 1.255 . S
Cd69 O68 2.385 . S
Cd69 O70 2.317 . S
O70 Cd69 2.317 . S
O70 C71 1.232 . S
C71 O70 1.232 . S
C71 O72 1.218 . S
O72 C71 1.218 . S
C73 O66 1.275 . S
C73 O68 1.255 . S
C74 O75 1.258 . S
C74 O76 1.256 . S
O75 Cd67 2.381 . S
O75 C74 1.258 . S
O76 Cd67 2.378 . S
O76 C74 1.256 . S
O77 Cd78 2.300 . S
O77 C84 1.275 . S
Cd78 O77 2.300 . S
Cd78 O86 2.381 . S
Cd78 O87 2.378 . S
O79 Cd80 2.385 . S
O79 C84 1.255 . S
Cd80 O79 2.385 . S
Cd80 O81 2.317 . S
O81 Cd80 2.317 . S
O81 C82 1.232 . S
C82 O81 1.232 . S
C82 O83 1.218 . S
O83 C82 1.218 . S
C84 O77 1.275 . S
C84 O79 1.255 . S
C85 O86 1.258 . S
C85 O87 1.256 . S
O86 Cd78 2.381 . S
O86 C85 1.258 . S
O87 Cd78 2.378 . S
O87 C85 1.256 . S
Tb88 C97 2.764 . S
Tb88 O98 2.325 . S
Tb88 O101 2.303 . S
Tb88 O105 2.322 1_545 S
Tb88 O106 2.349 1_545 S
Tb88 O109 2.415 . S
Tb88 O110 2.399 . S
Tb89 O99 2.322 . S
Tb89 O100 2.349 . S
Tb89 O102 2.415 1_545 S
Tb89 O103 2.401 . S
Tb89 O104 2.325 1_645 S
Tb89 O107 2.303 1_545 S
Tb89 C118 2.764 1_545 S
C90 O106 1.261 1_655 S
C90 O107 1.257 . S
C91 C94 1.358 . S
C91 C95 1.332 . S
C91 C97 1.504 . S
C92 C93 1.373 . S
C92 C96 1.308 . S
C93 C92 1.373 . S
C93 C94 1.429 . S
C93 H120 0.932 . S
C94 C91 1.358 . S
C94 C93 1.429 . S
C94 H121 0.930 . S
C95 C91 1.332 . S
C95 C96 1.394 . S
C95 H122 0.932 . S
C96 C92 1.308 . S
C96 C95 1.394 . S
C96 H123 0.929 . S
C97 Tb88 2.764 . S
C97 C91 1.504 . S
C97 O109 1.239 . S
C97 O110 1.263 . S
O98 Tb88 2.325 . S
O98 C108 1.236 1_455 S
O99 Tb89 2.322 . S
O99 C108 1.257 . S
O100 Tb89 2.349 . S
O100 C111 1.261 1_655 S
O101 Tb88 2.303 . S
O101 C111 1.257 . S
O102 Tb89 2.415 1_565 S
O102 C118 1.239 . S
O103 Tb89 2.401 . S
O103 C118 1.246 1_545 S
O104 Tb89 2.325 1_465 S
O104 C119 1.236 . S
O105 Tb88 2.322 1_565 S
O105 C119 1.257 . S
O106 Tb88 2.349 1_565 S
O106 C90 1.261 1_455 S
O107 Tb89 2.303 1_565 S
O107 C90 1.257 . S
C108 O98 1.236 1_655 S
C108 O99 1.257 . S
O109 Tb88 2.415 . S
O109 C97 1.239 . S
O110 Tb88 2.399 . S
O110 C97 1.263 . S
C111 O100 1.261 1_455 S
C111 O101 1.257 . S
C112 C115 1.358 . S
C112 C116 1.332 . S
C112 C118 1.504 . S
C113 C114 1.373 . S
C113 C117 1.308 . S
C114 C113 1.373 . S
C114 C115 1.429 . S
C114 H124 0.932 . S
C115 C112 1.358 . S
C115 C114 1.429 . S
C115 H125 0.930 . S
C116 C112 1.332 . S
C116 C117 1.394 . S
C116 H126 0.932 . S
C117 C113 1.308 . S
C117 C116 1.394 . S
C117 H127 0.929 . S
C118 Tb89 2.764 1_565 S
C118 O102 1.239 . S
C118 O103 1.246 1_565 S
C118 C112 1.504 . S
C119 O104 1.236 . S
C119 O105 1.257 . S
H120 C93 0.932 . S
H121 C94 0.930 . S
H122 C95 0.932 . S
H123 C96 0.929 . S
H124 C114 0.932 . S
H125 C115 0.930 . S
H126 C116 0.932 . S
H127 C117 0.929 . S
Tb128 C137 2.764 . S
Tb128 O138 2.325 . S
Tb128 O141 2.303 . S
Tb128 O145 2.322 1_545 S
Tb128 O146 2.349 . S
Tb128 O149 2.415 . S
Tb128 O150 2.399 . S
Tb129 O139 2.322 . S
Tb129 O140 2.349 . S
Tb129 O142 2.415 1_544 S
Tb129 O143 2.399 1_545 S
Tb129 O144 2.325 1_545 S
Tb129 O147 2.303 . S
Tb129 C158 2.764 1_544 S
C130 O146 1.261 1_565 S
C130 O147 1.257 1_565 S
C131 C134 1.358 . S
C131 C135 1.332 . S
C131 C137 1.504 . S
C132 C133 1.373 . S
C132 C136 1.308 . S
C133 C132 1.373 . S
C133 C134 1.429 . S
C133 H160 0.932 . S
C134 C131 1.358 . S
C134 C133 1.429 . S
C134 H161 0.930 . S
C135 C131 1.332 . S
C135 C136 1.394 . S
C135 H162 0.932 . S
C136 C132 1.308 . S
C136 C135 1.394 . S
C136 H163 0.929 . S
C137 Tb128 2.764 . S
C137 C131 1.504 . S
C137 O149 1.239 . S
C137 O150 1.263 . S
O138 Tb128 2.325 . S
O138 C148 1.236 . S
O139 Tb129 2.322 . S
O139 C148 1.257 . S
O140 Tb129 2.349 . S
O140 C151 1.261 . S
O141 Tb128 2.303 . S
O141 C151 1.257 . S
O142 Tb129 2.415 1_566 S
O142 C158 1.239 . S
O143 Tb129 2.399 1_565 S
O143 C158 1.263 1_554 S
O144 Tb129 2.325 1_565 S
O144 C159 1.236 . S
O145 Tb128 2.322 1_565 S
O145 C159 1.257 . S
O146 Tb128 2.349 . S
O146 C130 1.261 1_545 S
O147 Tb129 2.303 . S
O147 C130 1.257 1_545 S
C148 O138 1.236 . S
C148 O139 1.257 . S
O149 Tb128 2.415 . S
O149 C137 1.239 . S
O150 Tb128 2.399 . S
O150 C137 1.263 . S
C151 O140 1.261 . S
C151 O141 1.257 . S
C152 C155 1.358 . S
C152 C156 1.332 . S
C152 C158 1.504 . S
C153 C154 1.373 . S
C153 C157 1.308 . S
C154 C153 1.373 . S
C154 C155 1.429 . S
C154 H164 0.932 . S
C155 C152 1.358 . S
C155 C154 1.429 . S
C155 H165 0.930 . S
C156 C152 1.332 . S
C156 C157 1.394 . S
C156 H166 0.932 . S
C157 C153 1.308 . S
C157 C156 1.394 . S
C157 H167 0.929 . S
C158 Tb129 2.764 1_566 S
C158 O142 1.239 . S
C158 O143 1.263 1_556 S
C158 C152 1.504 . S
C159 O144 1.236 . S
C159 O145 1.257 . S
H160 C133 0.932 . S
H161 C134 0.930 . S
H162 C135 0.932 . S
H163 C136 0.929 . S
H164 C154 0.932 . S
H165 C155 0.930 . S
H166 C156 0.932 . S
H167 C157 0.929 . S
Tb168 C177 2.764 . S
Tb168 O178 2.325 . S
Tb168 O181 2.303 . S
Tb168 O185 2.322 . S
Tb168 O186 2.349 . S
Tb168 O189 2.415 . S
Tb168 O190 2.399 . S
Tb169 O179 2.322 . S
Tb169 O180 2.349 . S
Tb169 O182 2.415 . S
Tb169 O183 2.399 . S
Tb169 O184 2.325 . S
Tb169 O187 2.303 . S
Tb169 C198 2.764 . S
C170 O186 1.261 . S
C170 O187 1.257 . S
C171 C174 1.358 . S
C171 C175 1.332 . S
C171 C177 1.504 . S
C172 C173 1.373 . S
C172 C176 1.308 . S
C173 C172 1.373 . S
C173 C174 1.429 . S
C173 H200 0.932 . S
C174 C171 1.358 . S
C174 C173 1.429 . S
C174 H201 0.930 . S
C175 C171 1.332 . S
C175 C176 1.394 . S
C175 H202 0.932 . S
C176 C172 1.308 . S
C176 C175 1.394 . S
C176 H203 0.929 . S
C177 Tb168 2.764 . S
C177 C171 1.504 . S
C177 O189 1.239 . S
C177 O190 1.263 . S
O178 Tb168 2.325 . S
O178 C188 1.236 . S
O179 Tb169 2.322 . S
O179 C188 1.257 . S
O180 Tb169 2.349 . S
O180 C191 1.261 . S
O181 Tb168 2.303 . S
O181 C191 1.257 . S
O182 Tb169 2.415 . S
O182 C198 1.239 . S
O183 Tb169 2.399 . S
O183 C198 1.263 . S
O184 Tb169 2.325 . S
O184 C199 1.236 . S
O185 Tb168 2.322 . S
O185 C199 1.257 . S
O186 Tb168 2.349 . S
O186 C170 1.261 . S
O187 Tb169 2.303 . S
O187 C170 1.257 . S
C188 O178 1.236 . S
C188 O179 1.257 . S
O189 Tb168 2.415 . S
O189 C177 1.239 . S
O190 Tb168 2.399 . S
O190 C177 1.263 . S
C191 O180 1.261 . S
C191 O181 1.257 . S
C192 C195 1.358 . S
C192 C196 1.332 . S
C192 C198 1.504 . S
C193 C194 1.373 . S
C193 C197 1.308 . S
C194 C193 1.373 . S
C194 C195 1.429 . S
C194 H204 0.932 . S
C195 C192 1.358 . S
C195 C194 1.429 . S
C195 H205 0.930 . S
C196 C192 1.332 . S
C196 C197 1.394 . S
C196 H206 0.932 . S
C197 C193 1.308 . S
C197 C196 1.394 . S
C197 H207 0.929 . S
C198 Tb169 2.764 . S
C198 O182 1.239 . S
C198 O183 1.263 . S
C198 C192 1.504 . S
C199 O184 1.236 . S
C199 O185 1.257 . S
H200 C173 0.932 . S
H201 C174 0.930 . S
H202 C175 0.932 . S
H203 C176 0.929 . S
H204 C194 0.932 . S
H205 C195 0.930 . S
H206 C196 0.932 . S
H207 C197 0.929 . S
Tb208 C217 2.764 1_455 S
Tb208 O218 2.325 1_455 S
Tb208 O221 2.303 1_556 S
Tb208 O225 2.322 1_556 S
Tb208 O226 2.349 . S
Tb208 O229 2.415 1_455 S
Tb208 O230 2.399 1_455 S
Tb209 O219 2.322 1_455 S
Tb209 O220 2.349 1_455 S
Tb209 O222 2.415 . S
Tb209 O223 2.399 . S
Tb209 O224 2.325 . S
Tb209 O227 2.303 1_554 S
Tb209 C238 2.764 . S
C210 O226 1.261 . S
C210 O227 1.257 . S
C211 C214 1.358 . S
C211 C215 1.332 . S
C211 C217 1.504 . S
C212 C213 1.373 . S
C212 C216 1.308 . S
C213 C212 1.373 . S
C213 C214 1.429 . S
C213 H240 0.932 . S
C214 C211 1.358 . S
C214 C213 1.429 . S
C214 H241 0.930 . S
C215 C211 1.332 . S
C215 C216 1.394 . S
C215 H242 0.932 . S
C216 C212 1.308 . S
C216 C215 1.394 . S
C216 H243 0.929 . S
C217 Tb208 2.764 1_655 S
C217 C211 1.504 . S
C217 O229 1.239 . S
C217 O230 1.263 . S
O218 Tb208 2.325 1_655 S
O218 C228 1.236 . S
O219 Tb209 2.322 1_655 S
O219 C228 1.257 1_554 S
O220 Tb209 2.349 1_655 S
O220 C231 1.261 . S
O221 Tb208 2.303 1_554 S
O221 C231 1.257 1_455 S
O222 Tb209 2.415 . S
O222 C238 1.239 . S
O223 Tb209 2.399 . S
O223 C238 1.263 . S
O224 Tb209 2.325 . S
O224 C239 1.236 . S
O225 Tb208 2.322 1_554 S
O225 C239 1.257 . S
O226 Tb208 2.349 . S
O226 C210 1.261 . S
O227 Tb209 2.303 1_556 S
O227 C210 1.257 . S
C228 O218 1.236 . S
C228 O219 1.257 1_556 S
O229 Tb208 2.415 1_655 S
O229 C217 1.239 . S
O230 Tb208 2.399 1_655 S
O230 C217 1.263 . S
C231 O220 1.261 . S
C231 O221 1.257 1_655 S
C232 C235 1.358 . S
C232 C236 1.332 . S
C232 C238 1.504 . S
C233 C234 1.373 . S
C233 C237 1.308 . S
C234 C233 1.373 . S
C234 C235 1.429 . S
C234 H244 0.932 . S
C235 C232 1.358 . S
C235 C234 1.429 . S
C235 H245 0.930 . S
C236 C232 1.332 . S
C236 C237 1.394 . S
C236 H246 0.932 . S
C237 C233 1.308 . S
C237 C236 1.394 . S
C237 H247 0.929 . S
C238 Tb209 2.764 . S
C238 O222 1.239 . S
C238 O223 1.263 . S
C238 C232 1.504 . S
C239 O224 1.236 . S
C239 O225 1.257 . S
H240 C213 0.932 . S
H241 C214 0.930 . S
H242 C215 0.932 . S
H243 C216 0.929 . S
H244 C234 0.932 . S
H245 C235 0.930 . S
H246 C236 0.932 . S
H247 C237 0.929 . S
C248 C249 1.387 . S
C248 H252 0.950 . S
C248 C257 1.390 . S
C249 C248 1.387 . S
C249 C251 1.387 . S
H250 C257 0.950 . S
C251 C249 1.387 . S
C251 C253 1.390 . S
C251 H255 0.950 . S
H252 C248 0.950 . S
C253 C251 1.390 . S
C253 C254 1.387 . S
C253 H256 0.950 . S
C254 C253 1.387 . S
C254 C257 1.387 . S
H255 C251 0.950 . S
H256 C253 0.950 . S
C257 C248 1.390 . S
C257 H250 0.950 . S
C257 C254 1.387 . S
C258 C259 1.387 . S
C258 H262 0.950 . S
C258 C267 1.390 . S
C259 C258 1.387 . S
C259 C261 1.387 . S
H260 C267 0.950 . S
C261 C259 1.387 . S
C261 C263 1.390 . S
C261 H265 0.950 . S
H262 C258 0.950 . S
C263 C261 1.390 . S
C263 C264 1.387 . S
C263 H266 0.950 . S
C264 C263 1.387 . S
C264 C267 1.387 . S
H265 C261 0.950 . S
H266 C263 0.950 . S
C267 C258 1.390 . S
C267 H260 0.950 . S
C267 C264 1.387 . S
C268 C269 1.387 . S
C268 H272 0.950 . S
C268 C277 1.390 . S
C269 C268 1.387 . S
C269 C271 1.387 . S
H270 C277 0.950 . S
C271 C269 1.387 . S
C271 C273 1.390 . S
C271 H275 0.950 . S
H272 C268 0.950 . S
C273 C271 1.390 . S
C273 C274 1.387 . S
C273 H276 0.950 . S
C274 C273 1.387 . S
C274 C277 1.387 . S
H275 C271 0.950 . S
H276 C273 0.950 . S
C277 C268 1.390 . S
C277 H270 0.950 . S
C277 C274 1.387 . S
C278 C279 1.387 . S
C278 H282 0.950 . S
C278 C287 1.390 . S
C279 C278 1.387 . S
C279 C281 1.387 . S
H280 C287 0.950 . S
C281 C279 1.387 . S
C281 C283 1.390 . S
C281 H285 0.950 1_655 S
H282 C278 0.950 . S
C283 C281 1.390 . S
C283 C284 1.387 . S
C283 H286 0.950 1_655 S
C284 C283 1.387 . S
C284 C287 1.387 . S
H285 C281 0.950 1_455 S
H286 C283 0.950 1_455 S
C287 C278 1.390 . S
C287 H280 0.950 . S
C287 C284 1.387 . S
C288 C289 1.387 . S
C288 H292 0.950 . S
C288 C297 1.390 . S
C289 C288 1.387 . S
C289 C291 1.387 . S
H290 C297 0.950 . S
C291 C289 1.387 . S
C291 C293 1.390 . S
C291 H295 0.950 . S
H292 C288 0.950 . S
C293 C291 1.390 . S
C293 C294 1.387 . S
C293 H296 0.950 . S
C294 C293 1.387 . S
C294 C297 1.387 . S
H295 C291 0.950 . S
H296 C293 0.950 . S
C297 C288 1.390 . S
C297 H290 0.950 . S
C297 C294 1.387 . S
C298 C299 1.387 . S
C298 H302 0.950 . S
C298 C307 1.390 . S
C299 C298 1.387 . S
C299 C301 1.387 1_455 S
H300 C307 0.950 . S
C301 C299 1.387 1_655 S
C301 C303 1.385 . S
C301 H305 0.950 . S
H302 C298 0.950 . S
C303 C301 1.385 . S
C303 C304 1.368 1_655 S
C303 H306 0.975 . S
C304 C303 1.368 1_455 S
C304 C307 1.387 . S
H305 C301 0.950 . S
H306 C303 0.975 . S
C307 C298 1.390 . S
C307 H300 0.950 . S
C307 C304 1.387 . S
C308 C309 1.387 . S
C308 H312 0.950 . S
C308 C317 1.390 . S
C309 C308 1.387 . S
C309 C311 1.387 . S
H310 C317 0.950 . S
C311 C309 1.387 . S
C311 C313 1.390 . S
C311 H315 0.950 . S
H312 C308 0.950 . S
C313 C311 1.390 . S
C313 C314 1.387 . S
C313 H316 0.950 . S
C314 C313 1.387 . S
C314 C317 1.387 . S
H315 C311 0.950 . S
H316 C313 0.950 . S
C317 C308 1.390 . S
C317 H310 0.950 . S
C317 C314 1.387 . S
C318 C319 1.387 . S
C318 H322 0.950 . S
C318 C327 1.390 . S
C319 C318 1.387 . S
C319 C321 1.387 . S
H320 C327 0.950 . S
C321 C319 1.387 . S
C321 C323 1.390 . S
C321 H325 0.950 . S
H322 C318 0.950 . S
C323 C321 1.390 . S
C323 C324 1.387 . S
C323 H326 0.950 . S
C324 C323 1.387 . S
C324 C327 1.387 . S
H325 C321 0.950 . S
H326 C323 0.950 . S
C327 C318 1.390 . S
C327 H320 0.950 . S
C327 C324 1.387 . S
C328 C329 1.387 . S
C328 H332 0.950 . S
C328 C337 1.390 . S
C329 C328 1.387 . S
C329 C331 1.387 . S
H330 C337 0.950 . S
C331 C329 1.387 . S
C331 C333 1.390 . S
C331 H335 0.950 . S
H332 C328 0.950 . S
C333 C331 1.390 . S
C333 C334 1.387 . S
C333 H336 0.950 . S
C334 C333 1.387 . S
C334 C337 1.387 . S
H335 C331 0.950 . S
H336 C333 0.950 . S
C337 C328 1.390 . S
C337 H330 0.950 . S
C337 C334 1.387 . S
C338 C339 1.387 1_554 S
C338 H342 0.950 . S
C338 C347 1.390 . S
C339 C338 1.387 1_556 S
C339 C341 1.387 . S
H340 C347 0.950 . S
C341 C339 1.387 . S
C341 C343 1.390 . S
C341 H345 0.950 . S
H342 C338 0.950 . S
C343 C341 1.390 . S
C343 C344 1.387 1_556 S
C343 H346 0.950 . S
C344 C343 1.387 1_554 S
C344 C347 1.387 . S
H345 C341 0.950 . S
H346 C343 0.950 . S
C347 C338 1.390 . S
C347 H340 0.950 . S
C347 C344 1.387 . S
C348 C349 1.387 . S
C348 H352 0.950 . S
C348 C357 1.390 . S
C349 C348 1.387 . S
C349 C351 1.387 . S
H350 C357 0.950 . S
C351 C349 1.387 . S
C351 C353 1.390 . S
C351 H355 0.950 . S
H352 C348 0.950 . S
C353 C351 1.390 . S
C353 C354 1.387 . S
C353 H356 0.950 1_655 S
C354 C353 1.387 . S
C354 C357 1.387 . S
H355 C351 0.950 . S
H356 C353 0.950 1_455 S
C357 C348 1.390 . S
C357 H350 0.950 . S
C357 C354 1.387 . S
C358 C359 1.387 . S
C358 H362 0.950 . S
C358 C367 1.390 . S
C359 C358 1.387 . S
C359 C361 1.387 . S
H360 C367 0.950 . S
C361 C359 1.387 . S
C361 C363 1.390 . S
C361 H365 0.950 . S
H362 C358 0.950 . S
C363 C361 1.390 . S
C363 C364 1.387 . S
C363 H366 0.950 . S
C364 C363 1.387 . S
C364 C367 1.387 . S
H365 C361 0.950 . S
H366 C363 0.950 . S
C367 C358 1.390 . S
C367 H360 0.950 . S
C367 C364 1.387 . S
C368 C369 1.387 . S
C368 H372 0.950 . S
C368 C377 1.390 . S
C369 C368 1.387 . S
C369 C371 1.387 . S
H370 C377 0.950 . S
C371 C369 1.387 . S
C371 C373 1.390 . S
C371 H375 0.950 . S
H372 C368 0.950 . S
C373 C371 1.390 . S
C373 C374 1.387 . S
C373 H376 0.950 . S
C374 C373 1.387 . S
C374 C377 1.387 . S
H375 C371 0.950 . S
H376 C373 0.950 . S
C377 C368 1.390 . S
C377 H370 0.950 . S
C377 C374 1.387 . S
C378 C379 1.387 . S
C378 H382 0.950 . S
C378 C387 1.390 . S
C379 C378 1.387 . S
C379 C381 1.387 . S
H380 C387 0.950 . S
C381 C379 1.387 . S
C381 C383 1.390 . S
C381 H385 0.950 . S
H382 C378 0.950 . S
C383 C381 1.390 . S
C383 C384 1.387 . S
C383 H386 0.950 . S
C384 C383 1.387 . S
C384 C387 1.387 . S
H385 C381 0.950 . S
H386 C383 0.950 . S
C387 C378 1.390 . S
C387 H380 0.950 . S
C387 C384 1.387 . S
C388 C389 1.387 . S
C388 H392 0.950 . S
C388 C397 1.390 . S
C389 C388 1.387 . S
C389 C391 1.387 . S
H390 C397 0.950 . S
C391 C389 1.387 . S
C391 C393 1.390 . S
C391 H395 0.950 . S
H392 C388 0.950 . S
C393 C391 1.390 . S
C393 C394 1.387 . S
C393 H396 0.950 . S
C394 C393 1.387 . S
C394 C397 1.387 . S
H395 C391 0.950 . S
H396 C393 0.950 . S
C397 C388 1.390 . S
C397 H390 0.950 . S
C397 C394 1.387 . S
C398 C399 1.387 . S
C398 H402 0.950 . S
C398 C407 1.390 . S
C399 C398 1.387 . S
C399 C401 1.387 . S
H400 C407 0.950 . S
C401 C399 1.387 . S
C401 C403 1.390 . S
C401 H405 0.950 . S
H402 C398 0.950 . S
C403 C401 1.390 . S
C403 C404 1.387 . S
C403 H406 0.950 . S
C404 C403 1.387 . S
C404 C407 1.387 . S
H405 C401 0.950 . S
H406 C403 0.950 . S
C407 C398 1.390 . S
C407 H400 0.950 . S
C407 C404 1.387 . S
C408 C409 1.387 . S
C408 H412 0.950 . S
C408 C417 1.390 . S
C409 C408 1.387 . S
C409 C411 1.387 . S
H410 C417 0.950 . S
C411 C409 1.387 . S
C411 C413 1.390 1_556 S
C411 H415 0.950 1_556 S
H412 C408 0.950 . S
C413 C411 1.390 1_554 S
C413 C414 1.387 1_554 S
C413 H416 0.950 . S
C414 C413 1.387 1_556 S
C414 C417 1.387 . S
H415 C411 0.950 1_554 S
H416 C413 0.950 . S
C417 C408 1.390 . S
C417 H410 0.950 . S
C417 C414 1.387 . S
C418 C419 1.387 . S
C418 H422 0.950 . S
C418 C427 1.390 . S
C419 C418 1.387 . S
C419 C421 1.387 1_655 S
H420 C427 0.950 . S
C421 C419 1.387 1_455 S
C421 C423 1.390 . S
C421 H425 0.950 . S
H422 C418 0.950 . S
C423 C421 1.390 . S
C423 C424 1.387 1_455 S
C423 H426 0.950 . S
C424 C423 1.387 1_655 S
C424 C427 1.387 . S
H425 C421 0.950 . S
H426 C423 0.950 . S
C427 C418 1.390 . S
C427 H420 0.950 . S
C427 C424 1.387 . S
C428 C429 1.387 . S
C428 H432 0.950 . S
C428 C437 1.390 . S
C429 C428 1.387 . S
C429 C431 1.387 . S
H430 C437 0.950 . S
C431 C429 1.387 . S
C431 C433 1.390 . S
C431 H435 0.950 . S
H432 C428 0.950 . S
C433 C431 1.390 . S
C433 C434 1.387 . S
C433 H436 0.950 . S
C434 C433 1.387 . S
C434 C437 1.387 . S
H435 C431 0.950 . S
H436 C433 0.950 . S
C437 C428 1.390 . S
C437 H430 0.950 . S
C437 C434 1.387 . S
C438 C439 1.387 . S
C438 H442 0.950 . S
C438 C447 1.390 . S
C439 C438 1.387 . S
C439 C441 1.387 . S
H440 C447 0.950 . S
C441 C439 1.387 . S
C441 C443 1.390 . S
C441 H445 0.950 . S
H442 C438 0.950 . S
C443 C441 1.390 . S
C443 C444 1.387 . S
C443 H446 0.950 . S
C444 C443 1.387 . S
C444 C447 1.387 . S
H445 C441 0.950 . S
H446 C443 0.950 . S
C447 C438 1.390 . S
C447 H440 0.950 . S
C447 C444 1.387 . S
C448 C449 1.387 . S
C448 H452 0.950 . S
C448 C457 1.390 . S
C449 C448 1.387 . S
C449 C451 1.387 . S
H450 C457 0.950 . S
C451 C449 1.387 . S
C451 C453 1.390 . S
C451 H455 0.950 . S
H452 C448 0.950 . S
C453 C451 1.390 . S
C453 C454 1.387 . S
C453 H456 0.950 . S
C454 C453 1.387 . S
C454 C457 1.387 . S
H455 C451 0.950 . S
H456 C453 0.950 . S
C457 C448 1.390 . S
C457 H450 0.950 . S
C457 C454 1.387 . S
C458 C459 1.387 . S
C458 H462 0.950 . S
C458 C467 1.390 . S
C459 C458 1.387 . S
C459 C461 1.387 . S
H460 C467 0.950 . S
C461 C459 1.387 . S
C461 C463 1.390 . S
C461 H465 0.950 . S
H462 C458 0.950 . S
C463 C461 1.390 . S
C463 C464 1.387 . S
C463 H466 0.950 . S
C464 C463 1.387 . S
C464 C467 1.387 . S
H465 C461 0.950 . S
H466 C463 0.950 . S
C467 C458 1.390 . S
C467 H460 0.950 . S
C467 C464 1.387 . S
C468 C469 1.387 . S
C468 H472 0.950 . S
C468 C477 1.390 . S
C469 C468 1.387 . S
C469 C471 1.387 . S
H470 C477 0.950 . S
C471 C469 1.387 . S
C471 C473 1.390 . S
C471 H475 0.930 1_455 S
H472 C468 0.950 . S
C473 C471 1.390 . S
C473 C474 1.387 . S
C473 H476 0.950 1_455 S
C474 C473 1.387 . S
C474 C477 1.387 . S
H475 C471 0.930 1_655 S
H476 C473 0.950 1_655 S
C477 C468 1.390 . S
C477 H470 0.950 . S
C477 C474 1.387 . S
C478 C479 1.387 . S
C478 H482 0.950 . S
C478 C487 1.390 . S
C479 C478 1.387 . S
C479 C481 1.387 . S
H480 C487 0.950 . S
C481 C479 1.387 . S
C481 C483 1.390 . S
C481 H485 0.950 . S
H482 C478 0.950 . S
C483 C481 1.390 . S
C483 C484 1.387 . S
C483 H486 0.950 . S
C484 C483 1.387 . S
C484 C487 1.387 . S
H485 C481 0.950 . S
H486 C483 0.950 . S
C487 C478 1.390 . S
C487 H480 0.950 . S
C487 C484 1.387 . S
C249 C5 0.901 . S
C254 C92 1.070 . S
C259 C18 1.099 . S
C264 C153 1.178 . S
C274 C191 2.405 . S
C269 C30 2.434 . S
C279 C41 2.234 . S
C284 C231 2.184 . S
C294 C151 1.382 . S
C289 C7 1.250 . S
C304 C119 2.074 . S
C299 C16 2.069 . S
C314 C228 1.887 . S
C309 C29 1.834 . S
C324 C188 1.620 . S
C319 C38 1.454 . S
C329 C8 1.202 . S
C334 C233 1.282 . S
C344 C148 2.547 . S
C339 C27 2.247 . S
C349 C40 2.356 . S
C354 C90 2.310 . S
C359 C19 1.498 . S
C364 C193 1.507 . S
C374 C113 1.117 . S
C369 C51 0.932 . S
C379 C62 1.464 . S
C384 C132 1.423 . S
C389 C74 2.528 . S
C394 C170 2.513 . S
C399 C84 2.173 . S
C404 C210 2.286 . S
C409 C49 1.180 . S
C414 C130 1.708 1_556 S
C424 C108 2.165 . S
C419 C63 2.096 . S
C434 C239 1.703 . S
C429 C71 1.510 . S
C444 C199 1.742 . S
C439 C85 1.757 . S
C449 C52 1.369 . S
C454 C212 1.447 . S
C464 C159 2.740 . S
C459 C73 2.675 . S
C474 C111 2.001 . S
C469 C82 1.768 . S
C479 C60 1.447 . S
C484 C172 1.496 . S
