# Generated by pormake.
# Topology pyr, (3,6)-cn, num edge types: 1
# Building blocks:
#     Node 0, Type 0, BuildingBlock: WUSLED_clean_sbu_0, # of connection points: 3
#     Node 1, Type 0, BuildingBlock: WUSLED_clean_sbu_0, # of connection points: 3
#     Node 2, Type 0, BuildingBlock: WUSLED_clean_sbu_0, # of connection points: 3
#     Node 3, Type 0, BuildingBlock: WUSLED_clean_sbu_0, # of connection points: 3
#     Node 4, Type 0, BuildingBlock: WUSLED_clean_sbu_0, # of connection points: 3
#     Node 5, Type 0, BuildingBlock: WUSLED_clean_sbu_0, # of connection points: 3
#     Node 6, Type 0, BuildingBlock: WUSLED_clean_sbu_0, # of connection points: 3
#     Node 7, Type 0, BuildingBlock: WUSLED_clean_sbu_0, # of connection points: 3
#     Node 8, Type 1, BuildingBlock: MIFKUJ_clean_sbu_0, # of connection points: 6
#     Node 9, Type 1, BuildingBlock: MIFKUJ_clean_sbu_0, # of connection points: 6
#     Node 10, Type 1, BuildingBlock: MIFKUJ_clean_sbu_0, # of connection points: 6
#     Node 11, Type 1, BuildingBlock: MIFKUJ_clean_sbu_0, # of connection points: 6
#     Edge 12, Type (0, 1), BuildingBlock: XUDNAN_clean_linker_2, # of connection points: 2
#     Edge 13, Type (0, 1), BuildingBlock: XUDNAN_clean_linker_2, # of connection points: 2
#     Edge 14, Type (0, 1), BuildingBlock: XUDNAN_clean_linker_2, # of connection points: 2
#     Edge 15, Type (0, 1), BuildingBlock: XUDNAN_clean_linker_2, # of connection points: 2
#     Edge 16, Type (0, 1), BuildingBlock: XUDNAN_clean_linker_2, # of connection points: 2
#     Edge 17, Type (0, 1), BuildingBlock: XUDNAN_clean_linker_2, # of connection points: 2
#     Edge 18, Type (0, 1), BuildingBlock: XUDNAN_clean_linker_2, # of connection points: 2
#     Edge 19, Type (0, 1), BuildingBlock: XUDNAN_clean_linker_2, # of connection points: 2
#     Edge 20, Type (0, 1), BuildingBlock: XUDNAN_clean_linker_2, # of connection points: 2
#     Edge 21, Type (0, 1), BuildingBlock: XUDNAN_clean_linker_2, # of connection points: 2
#     Edge 22, Type (0, 1), BuildingBlock: XUDNAN_clean_linker_2, # of connection points: 2
#     Edge 23, Type (0, 1), BuildingBlock: XUDNAN_clean_linker_2, # of connection points: 2
#     Edge 24, Type (0, 1), BuildingBlock: XUDNAN_clean_linker_2, # of connection points: 2
#     Edge 25, Type (0, 1), BuildingBlock: XUDNAN_clean_linker_2, # of connection points: 2
#     Edge 26, Type (0, 1), BuildingBlock: XUDNAN_clean_linker_2, # of connection points: 2
#     Edge 27, Type (0, 1), BuildingBlock: XUDNAN_clean_linker_2, # of connection points: 2
#     Edge 28, Type (0, 1), BuildingBlock: XUDNAN_clean_linker_2, # of connection points: 2
#     Edge 29, Type (0, 1), BuildingBlock: XUDNAN_clean_linker_2, # of connection points: 2
#     Edge 30, Type (0, 1), BuildingBlock: XUDNAN_clean_linker_2, # of connection points: 2
#     Edge 31, Type (0, 1), BuildingBlock: XUDNAN_clean_linker_2, # of connection points: 2
#     Edge 32, Type (0, 1), BuildingBlock: XUDNAN_clean_linker_2, # of connection points: 2
#     Edge 33, Type (0, 1), BuildingBlock: XUDNAN_clean_linker_2, # of connection points: 2
#     Edge 34, Type (0, 1), BuildingBlock: XUDNAN_clean_linker_2, # of connection points: 2
#     Edge 35, Type (0, 1), BuildingBlock: XUDNAN_clean_linker_2, # of connection points: 2
# Relax obj value: 0.025
# Max RMSD: 0.081
# Mean RMSD: 0.045
data_MOF--net-pyr--node1-WUSLED_clean_sbu_0--node2-MIFKUJ_clean_sbu_0--edge1-XUDNAN_clean_linker_2
_symmetry_space_group_name_H-M    P1
_symmetry_Int_Tables_number       1
_symmetry_cell_setting            triclinic
loop_
_symmetry_equiv_pos_as_xyz
'x, y, z'
_cell_length_a     49.907626
_cell_length_b     45.98729
_cell_length_c     49.014133
_cell_angle_alpha  86.076636
_cell_angle_beta   88.515392
_cell_angle_gamma 96.438916
loop_
_atom_site_label
_atom_site_type_symbol
_atom_site_fract_x
_atom_site_fract_y
_atom_site_fract_z
_atom_type_partial_charge
C0 C 0.20832 0.25956 0.1716 0.0
C1 C 0.18725 0.26429 0.18972 0.0
C2 C 0.17263 0.30084 0.15682 0.0
C3 C 0.16957 0.28482 0.18242 0.0
C4 C 0.19402 0.29619 0.13892 0.0
C5 C 0.21168 0.2757 0.14626 0.0
U6 U 0.2251 0.19679 0.21911 0.0
O7 O 0.23843 0.15419 0.21143 0.0
O8 O 0.2641 0.18537 0.23426 0.0
C9 C 0.26173 0.16016 0.22291 0.0
C10 C 0.22631 0.23726 0.17868 0.0
C11 C 0.2854 0.15302 0.20735 0.0
C12 C 0.31043 0.15156 0.16427 0.0
C13 C 0.29042 0.16286 0.17969 0.0
C14 C 0.32133 0.12193 0.2044 0.0
C15 C 0.32537 0.13028 0.17639 0.0
C16 C 0.30156 0.13329 0.21976 0.0
C17 C 0.17515 0.17542 0.28063 0.0
C18 C 0.16867 0.12959 0.30913 0.0
C19 C 0.15024 0.1727 0.32401 0.0
C20 C 0.1605 0.18867 0.3001 0.0
C21 C 0.15424 0.1431 0.32869 0.0
C22 C 0.17926 0.14574 0.28522 0.0
C23 C 0.18526 0.19309 0.25562 0.0
O24 O 0.23969 0.24103 0.20116 0.0
O25 O 0.21564 0.21004 0.17682 0.0
O26 O 0.1837 0.1798 0.23273 0.0
O27 O 0.20801 0.21012 0.25758 0.0
H28 H 0.18432 0.25186 0.20937 0.0
H29 H 0.15317 0.28766 0.19654 0.0
H30 H 0.19719 0.3085 0.11924 0.0
H31 H 0.22786 0.2723 0.13208 0.0
H32 H 0.31304 0.15798 0.1426 0.0
H33 H 0.27804 0.17807 0.16977 0.0
H34 H 0.33255 0.10541 0.21405 0.0
H35 H 0.29794 0.12545 0.24104 0.0
H36 H 0.1722 0.10684 0.31263 0.0
H37 H 0.1392 0.18347 0.33895 0.0
H38 H 0.15705 0.21148 0.29683 0.0
H39 H 0.19063 0.13516 0.27043 0.0
C40 C 0.28713 0.85835 0.65506 0.0
C41 C 0.27596 0.87441 0.67492 0.0
C42 C 0.23988 0.88481 0.64447 0.0
C43 C 0.25249 0.8875 0.66968 0.0
C44 C 0.25178 0.86964 0.62427 0.0
C45 C 0.2752 0.85645 0.62959 0.0
U46 U 0.3472 0.84339 0.69837 0.0
O47 O 0.36039 0.8012 0.71323 0.0
O48 O 0.38734 0.83244 0.68623 0.0
C49 C 0.38345 0.80625 0.69923 0.0
C50 C 0.31042 0.84239 0.66106 0.0
C51 C 0.3918 0.78164 0.68468 0.0
C52 C 0.40141 0.75825 0.643 0.0
C53 C 0.39038 0.78056 0.65615 0.0
C54 C 0.41417 0.73743 0.68688 0.0
C55 C 0.41409 0.73697 0.65825 0.0
C56 C 0.40316 0.75955 0.69991 0.0
C57 C 0.36576 0.88644 0.75958 0.0
C58 C 0.4073 0.88028 0.78287 0.0
C59 C 0.37309 0.90555 0.80414 0.0
C60 C 0.35691 0.90137 0.7815 0.0
C61 C 0.39835 0.89475 0.80522 0.0
C62 C 0.39111 0.87603 0.76035 0.0
C63 C 0.34819 0.88096 0.7364 0.0
O64 O 0.33423 0.85781 0.65749 0.0
O65 O 0.30803 0.82526 0.6838 0.0
O66 O 0.33296 0.85563 0.73846 0.0
O67 O 0.35984 0.88725 0.71201 0.0
H68 H 0.28505 0.87629 0.69465 0.0
H69 H 0.24402 0.89945 0.68548 0.0
H70 H 0.24245 0.86703 0.60475 0.0
H71 H 0.28364 0.84415 0.61403 0.0
H72 H 0.40107 0.75837 0.6209 0.0
H73 H 0.38151 0.79736 0.64401 0.0
H74 H 0.42335 0.72101 0.69919 0.0
H75 H 0.40427 0.7599 0.72195 0.0
H76 H 0.42682 0.87208 0.78283 0.0
H77 H 0.36548 0.91648 0.82112 0.0
H78 H 0.33732 0.90941 0.78128 0.0
H79 H 0.39827 0.86438 0.74363 0.0
C80 C 0.64625 0.36697 0.76481 0.0
C81 C 0.6651 0.38929 0.75255 0.0
C82 C 0.63259 0.4015 0.71828 0.0
C83 C 0.65834 0.40638 0.72947 0.0
C84 C 0.61389 0.37903 0.73073 0.0
C85 C 0.62068 0.36199 0.75372 0.0
U86 U 0.68903 0.34677 0.82674 0.0
O87 O 0.6751 0.32848 0.86799 0.0
O88 O 0.69869 0.30312 0.84192 0.0
C89 C 0.68505 0.30355 0.86516 0.0
C90 C 0.65258 0.34837 0.78898 0.0
C91 C 0.66703 0.27682 0.87395 0.0
C92 C 0.62777 0.24177 0.86803 0.0
C93 C 0.64496 0.26686 0.85859 0.0
C94 C 0.65476 0.23629 0.90804 0.0
C95 C 0.63235 0.2263 0.893 0.0
C96 C 0.67188 0.26129 0.89858 0.0
C97 C 0.75306 0.39463 0.8445 0.0
C98 C 0.77824 0.38463 0.88529 0.0
C99 C 0.79494 0.42467 0.85238 0.0
C100 C 0.77267 0.41799 0.83629 0.0
C101 C 0.79802 0.40819 0.87717 0.0
C102 C 0.75597 0.37789 0.86907 0.0
C103 C 0.72976 0.38821 0.82718 0.0
O104 O 0.67417 0.33463 0.78671 0.0
O105 O 0.65009 0.3595 0.81279 0.0
O106 O 0.706 0.39011 0.8387 0.0
O107 O 0.7302 0.36506 0.81294 0.0
H108 H 0.685 0.39345 0.76078 0.0
H109 H 0.67337 0.42326 0.72027 0.0
H110 H 0.59377 0.37491 0.72306 0.0
H111 H 0.60584 0.3449 0.76295 0.0
H112 H 0.61089 0.2345 0.85577 0.0
H113 H 0.64094 0.27857 0.83946 0.0
H114 H 0.6587 0.22526 0.92751 0.0
H115 H 0.6888 0.26875 0.91074 0.0
H116 H 0.77976 0.37164 0.90435 0.0
H117 H 0.80995 0.44256 0.84512 0.0
H118 H 0.77081 0.43106 0.81733 0.0
H119 H 0.74097 0.35973 0.87573 0.0
C120 C 0.78288 0.6243 0.32381 0.0
C121 C 0.78132 0.63137 0.35125 0.0
C122 C 0.73414 0.61061 0.35481 0.0
C123 C 0.75711 0.62433 0.36674 0.0
C124 C 0.73609 0.60309 0.32757 0.0
C125 C 0.7602 0.60984 0.31228 0.0
U126 U 0.84762 0.67477 0.30268 0.0
O127 O 0.88721 0.66459 0.28802 0.0
O128 O 0.86311 0.69074 0.26114 0.0
C129 C 0.88472 0.67695 0.26335 0.0
C130 C 0.80734 0.63264 0.3063 0.0
C131 C 0.89076 0.65918 0.24055 0.0
C132 C 0.88995 0.61195 0.22104 0.0
C133 C 0.88135 0.62921 0.24124 0.0
C134 C 0.91613 0.65472 0.19828 0.0
C135 C 0.90802 0.62436 0.19975 0.0
C136 C 0.90762 0.67195 0.21859 0.0
C137 C 0.86755 0.74047 0.34593 0.0
C138 C 0.90341 0.78019 0.33493 0.0
C139 C 0.88007 0.77576 0.37928 0.0
C140 C 0.86399 0.75097 0.37178 0.0
C141 C 0.89979 0.79063 0.3609 0.0
C142 C 0.8875 0.75504 0.32753 0.0
C143 C 0.85005 0.71437 0.33893 0.0
O144 O 0.80727 0.65695 0.29058 0.0
O145 O 0.8306 0.63014 0.31771 0.0
O146 O 0.86019 0.6893 0.34269 0.0
O147 O 0.837 0.71683 0.31607 0.0
H148 H 0.79859 0.64272 0.3605 0.0
H149 H 0.75606 0.63048 0.38765 0.0
H150 H 0.71877 0.59224 0.31796 0.0
H151 H 0.76101 0.60419 0.29119 0.0
H152 H 0.88305 0.58869 0.22249 0.0
H153 H 0.86808 0.61898 0.25787 0.0
H154 H 0.93016 0.66489 0.18225 0.0
H155 H 0.915 0.69508 0.21767 0.0
H156 H 0.91861 0.79138 0.32052 0.0
H157 H 0.8768 0.78364 0.3993 0.0
H158 H 0.84865 0.74001 0.38618 0.0
H159 H 0.89062 0.74708 0.30753 0.0
C160 C 0.83087 0.75392 0.85511 0.0
C161 C 0.84772 0.7429 0.83587 0.0
C162 C 0.86607 0.71277 0.87214 0.0
C163 C 0.86512 0.72241 0.84432 0.0
C164 C 0.84904 0.72393 0.89121 0.0
C165 C 0.83161 0.74425 0.88274 0.0
U166 U 0.81164 0.81496 0.8053 0.0
O167 O 0.77179 0.82704 0.79375 0.0
O168 O 0.80017 0.85837 0.81345 0.0
C169 C 0.77562 0.85241 0.80473 0.0
C170 C 0.81328 0.77643 0.84707 0.0
C171 C 0.75388 0.85899 0.82332 0.0
C172 C 0.72904 0.8515 0.86701 0.0
C173 C 0.7491 0.84393 0.84917 0.0
C174 C 0.71819 0.88886 0.83311 0.0
C175 C 0.71348 0.87425 0.85926 0.0
C176 C 0.73823 0.88132 0.81536 0.0
C177 C 0.85744 0.83293 0.73959 0.0
C178 C 0.86851 0.87919 0.71235 0.0
C179 C 0.88693 0.83541 0.69923 0.0
C180 C 0.8729 0.81916 0.72121 0.0
C181 C 0.88554 0.86568 0.69514 0.0
C182 C 0.85456 0.86289 0.73461 0.0
C183 C 0.84788 0.81632 0.76537 0.0
O184 O 0.82474 0.8036 0.84677 0.0
O185 O 0.79834 0.77146 0.8258 0.0
O186 O 0.82432 0.80034 0.76547 0.0
O187 O 0.85203 0.8301 0.78776 0.0
H188 H 0.84754 0.75029 0.81442 0.0
H189 H 0.87777 0.71408 0.82907 0.0
H190 H 0.84957 0.71751 0.91284 0.0
H191 H 0.81896 0.75278 0.89788 0.0
H192 H 0.72616 0.83998 0.88708 0.0
H193 H 0.7611 0.82664 0.85566 0.0
H194 H 0.7063 0.9061 0.82624 0.0
H195 H 0.74164 0.8931 0.79544 0.0
H196 H 0.86741 0.90261 0.70965 0.0
H197 H 0.90004 0.82463 0.68622 0.0
H198 H 0.8754 0.79612 0.72477 0.0
H199 H 0.84273 0.87392 0.74866 0.0
C200 C 0.65035 0.15931 0.27648 0.0
C201 C 0.66662 0.13933 0.26611 0.0
C202 C 0.63403 0.12821 0.23099 0.0
C203 C 0.65849 0.12384 0.24351 0.0
C204 C 0.61779 0.14804 0.24181 0.0
C205 C 0.62591 0.16343 0.26428 0.0
U206 U 0.6965 0.17933 0.33565 0.0
O207 O 0.70968 0.22293 0.34967 0.0
O208 O 0.68532 0.18993 0.37717 0.0
C209 C 0.69634 0.21728 0.37325 0.0
C210 C 0.65826 0.17628 0.29987 0.0
C211 C 0.67926 0.23959 0.38102 0.0
C212 C 0.63794 0.26281 0.37766 0.0
C213 C 0.65407 0.24173 0.36944 0.0
C214 C 0.67221 0.2799 0.40882 0.0
C215 C 0.64681 0.2821 0.39753 0.0
C216 C 0.68826 0.25886 0.4006 0.0
C217 C 0.75835 0.13951 0.35032 0.0
C218 C 0.78385 0.14359 0.39178 0.0
C219 C 0.79951 0.11652 0.35494 0.0
C220 C 0.77749 0.12299 0.33964 0.0
C221 C 0.80275 0.1263 0.38138 0.0
C222 C 0.76178 0.15016 0.37633 0.0
C223 C 0.73468 0.14462 0.33426 0.0
O224 O 0.65598 0.16162 0.32394 0.0
O225 O 0.68062 0.19434 0.29636 0.0
O226 O 0.73615 0.17002 0.31996 0.0
O227 O 0.71117 0.13703 0.34697 0.0
H228 H 0.68559 0.13588 0.27538 0.0
H229 H 0.6715 0.10884 0.23557 0.0
H230 H 0.5986 0.15151 0.23305 0.0
H231 H 0.61306 0.17864 0.27215 0.0
H232 H 0.61864 0.26414 0.36833 0.0
H233 H 0.64687 0.22705 0.35416 0.0
H234 H 0.67952 0.29406 0.42444 0.0
H235 H 0.70764 0.25745 0.40976 0.0
H236 H 0.78568 0.15134 0.41209 0.0
H237 H 0.81399 0.10371 0.34605 0.0
H238 H 0.77523 0.11479 0.31952 0.0
H239 H 0.74718 0.16309 0.38484 0.0
C240 C 0.28912 0.61903 0.19888 0.0
C241 C 0.28101 0.63954 0.17905 0.0
C242 C 0.24796 0.60201 0.1629 0.0
C243 C 0.26037 0.63112 0.16129 0.0
C244 C 0.25565 0.58194 0.18333 0.0
C245 C 0.27598 0.5904 0.20116 0.0
U246 U 0.35284 0.66791 0.21615 0.0
O247 O 0.36894 0.67941 0.25591 0.0
O248 O 0.39228 0.65518 0.22844 0.0
C249 C 0.39078 0.66637 0.25231 0.0
C250 C 0.3123 0.62622 0.2162 0.0
C251 C 0.39981 0.64906 0.27609 0.0
C252 C 0.39302 0.61034 0.31302 0.0
C253 C 0.38391 0.62467 0.28929 0.0
C254 C 0.43398 0.64422 0.30997 0.0
C255 C 0.41796 0.62043 0.32377 0.0
C256 C 0.42504 0.65827 0.28636 0.0
C257 C 0.37326 0.73834 0.16867 0.0
C258 C 0.41276 0.77373 0.17267 0.0
C259 C 0.38254 0.78016 0.1354 0.0
C260 C 0.3664 0.75458 0.14518 0.0
C261 C 0.40599 0.79007 0.14893 0.0
C262 C 0.39653 0.74804 0.18245 0.0
C263 C 0.35576 0.71138 0.17802 0.0
O264 O 0.33602 0.6244 0.20461 0.0
O265 O 0.31175 0.64949 0.23028 0.0
O266 O 0.3428 0.71165 0.20167 0.0
O267 O 0.36571 0.68655 0.17471 0.0
H268 H 0.29106 0.66175 0.17689 0.0
H269 H 0.25488 0.64695 0.14562 0.0
H270 H 0.24622 0.55946 0.18518 0.0
H271 H 0.28195 0.5743 0.21631 0.0
H272 H 0.38018 0.59227 0.32357 0.0
H273 H 0.36433 0.61724 0.28166 0.0
H274 H 0.45319 0.65249 0.31795 0.0
H275 H 0.43762 0.67697 0.27647 0.0
H276 H 0.43079 0.78058 0.18346 0.0
H277 H 0.37639 0.79238 0.11741 0.0
H278 H 0.34844 0.74748 0.13435 0.0
H279 H 0.40217 0.73571 0.20063 0.0
C280 C 0.17755 0.27969 0.6937 0.0
C281 C 0.18297 0.26921 0.66825 0.0
C282 C 0.1453 0.23081 0.67573 0.0
C283 C 0.1671 0.24502 0.65936 0.0
C284 C 0.13985 0.2414 0.70136 0.0
C285 C 0.15586 0.26575 0.71029 0.0
U286 U 0.19819 0.34448 0.73846 0.0
O287 O 0.159 0.35789 0.751 0.0
O288 O 0.18011 0.32988 0.77923 0.0
C289 C 0.15946 0.34503 0.77574 0.0
C290 C 0.19525 0.30492 0.70218 0.0
C291 C 0.15272 0.36283 0.79827 0.0
C292 C 0.11863 0.37736 0.82924 0.0
C293 C 0.12598 0.36031 0.80835 0.0
C294 C 0.16488 0.39966 0.8305 0.0
C295 C 0.13793 0.39739 0.84051 0.0
C296 C 0.17221 0.38255 0.80951 0.0
C297 C 0.26461 0.38993 0.71692 0.0
C298 C 0.30997 0.41419 0.70761 0.0
C299 C 0.28749 0.38609 0.67307 0.0
C300 C 0.26492 0.37901 0.69085 0.0
C301 C 0.31021 0.40409 0.68111 0.0
C302 C 0.28737 0.40726 0.72526 0.0
C303 C 0.24062 0.3839 0.73543 0.0
O304 O 0.20679 0.30142 0.7258 0.0
O305 O 0.18647 0.33068 0.69794 0.0
O306 O 0.23916 0.35947 0.75123 0.0
O307 O 0.2176 0.38835 0.72432 0.0
H308 H 0.19971 0.27965 0.65526 0.0
H309 H 0.17227 0.23716 0.63979 0.0
H310 H 0.1231 0.23107 0.71437 0.0
H311 H 0.15139 0.27365 0.73004 0.0
H312 H 0.09765 0.37536 0.83607 0.0
H313 H 0.11064 0.34531 0.79981 0.0
H314 H 0.1803 0.41464 0.83889 0.0
H315 H 0.19299 0.38483 0.80197 0.0
H316 H 0.32728 0.42752 0.71479 0.0
H317 H 0.28683 0.37809 0.6528 0.0
H318 H 0.24755 0.36541 0.6841 0.0
H319 H 0.28759 0.41565 0.74539 0.0
Zn320 Zn 0.05508 0.01389 0.54873 0.0
Zn321 Zn 0.99397 0.00473 0.48804 0.0
C322 C 0.06724 0.07172 0.56938 0.0
O323 O 0.07352 0.07977 0.54359 0.0
C324 C 0.98774 0.9468 0.46363 0.0
O325 O 0.99331 0.93526 0.4878 0.0
O326 O 0.08123 0.98551 0.56091 0.0
O327 O 1.01795 0.994 0.5477 0.0
O328 O 0.98136 0.98354 0.52502 0.0
C329 C 0.08109 0.97839 0.58643 0.0
O330 O 0.06358 0.98867 0.60263 0.0
O331 O 0.05778 0.04528 0.576 0.0
C332 C 0.95319 0.03262 0.4586 0.0
O333 O 0.95661 0.01183 0.44226 0.0
O334 O 0.96762 0.03503 0.47955 0.0
O335 O 0.03287 0.02548 0.48229 0.0
O336 O 0.0663 0.03158 0.51153 0.0
O337 O 0.98832 0.97448 0.45979 0.0
C338 C 0.99418 0.98132 0.54694 0.0
C339 C 0.05703 0.03517 0.48774 0.0
Zn340 Zn 0.53592 0.98376 0.99648 0.0
Zn341 Zn 0.50144 0.0266 0.03894 0.0
C342 C 0.5032 0.94489 0.96665 0.0
O343 O 0.51563 0.92746 0.9831 0.0
C344 C 0.53988 0.0567 0.07168 0.0
O345 O 0.5287 0.07872 0.06004 0.0
O346 O 0.56673 0.96192 0.98429 0.0
O347 O 0.54874 0.02763 0.99084 0.0
O348 O 0.51242 0.04827 1.00265 0.0
C349 C 0.58262 0.97099 0.96404 0.0
O350 O 0.58066 0.99683 0.95155 0.0
O351 O 0.50712 0.97241 0.96915 0.0
C352 C 0.45987 0.03417 0.07712 0.0
O353 O 0.467 0.00876 0.08628 0.0
O354 O 0.4721 0.04752 0.05603 0.0
O355 O 0.48578 0.98418 0.03926 0.0
O356 O 0.52379 0.96448 0.03405 0.0
O357 O 0.53232 0.03088 0.06499 0.0
C358 C 0.53484 0.04926 0.98951 0.0
C359 C 0.49998 0.96335 0.04419 0.0
Zn360 Zn 0.54025 0.48982 0.49819 0.0
Zn361 Zn 0.51155 0.53254 0.54283 0.0
C362 C 0.56988 0.52797 0.45774 0.0
O363 O 0.54879 0.51769 0.4444 0.0
C364 C 0.4716 0.50041 0.57878 0.0
O365 O 0.48319 0.51934 0.59493 0.0
O366 O 0.54553 0.45281 0.47933 0.0
O367 O 0.5462 0.47866 0.53903 0.0
O368 O 0.54655 0.52165 0.55666 0.0
C369 C 0.56954 0.44673 0.47541 0.0
O370 O 0.58971 0.46443 0.48375 0.0
O371 O 0.57136 0.51972 0.48292 0.0
C372 C 0.48233 0.57983 0.55951 0.0
O373 O 0.46423 0.56884 0.5429 0.0
O374 O 0.50404 0.56802 0.56251 0.0
O375 O 0.5111 0.54648 0.50359 0.0
O376 O 0.50519 0.50485 0.48373 0.0
O377 O 0.48079 0.50043 0.55428 0.0
C378 C 0.55343 0.4959 0.55747 0.0
C379 C 0.5013 0.53171 0.48458 0.0
Zn380 Zn 1.00019 0.52835 0.99233 0.0
Zn381 Zn 0.04825 0.49406 0.0423 0.0
C382 C 0.96218 0.49675 0.95879 0.0
O383 O 0.97242 0.51769 0.94071 0.0
C384 C 0.08936 0.53973 0.05933 0.0
O385 O 0.06903 0.54967 0.07184 0.0
O386 O 0.99118 0.56424 0.96965 0.0
O387 O 0.99302 0.53722 0.0317 0.0
O388 O 0.01947 0.51429 0.05954 0.0
C389 C 0.96734 0.57113 0.97256 0.0
O390 O 0.95087 0.55596 0.99103 0.0
O391 O 0.97176 0.49529 0.98263 0.0
C392 C 0.06694 0.43954 0.06056 0.0
O393 O 0.07494 0.44028 0.03474 0.0
O394 O 0.05346 0.4595 0.06835 0.0
O395 O 0.04221 0.47926 1.00462 0.0
O396 O 0.03754 0.51985 0.97907 0.0
O397 O 0.0847 0.51852 0.04403 0.0
C398 C 1.00048 0.53013 0.05561 0.0
C399 C 0.04794 0.49592 0.98303 0.0
H400 H 0.11438 0.09683 0.33749 0.0
H401 H 0.17202 0.15494 0.37861 0.0
H402 H 0.15424 0.13194 0.42342 0.0
H403 H 0.05964 0.09943 0.38436 0.0
H404 H 0.04613 0.0615 0.38332 0.0
H405 H 0.06491 0.08022 0.35416 0.0
H406 H 0.09777 0.04037 0.35545 0.0
H407 H 0.07894 0.02138 0.3845 0.0
H408 H 0.11465 0.03205 0.38662 0.0
H409 H 0.13029 0.10437 0.463 0.0
H410 H 0.09998 0.07452 0.4967 0.0
H411 H 0.05489 0.03536 0.43114 0.0
C412 C 0.12346 0.10418 0.35602 0.0
C413 C 0.14472 0.12731 0.3549 0.0
C414 C 0.15586 0.13705 0.37931 0.0
C415 C 0.14593 0.12413 0.40474 0.0
C416 C 0.12471 0.10168 0.40531 0.0
C417 C 0.11349 0.09171 0.38172 0.0
C418 C 0.08979 0.06834 0.38847 0.0
C419 C 0.06357 0.07796 0.37689 0.0
C420 C 0.09564 0.03878 0.37815 0.0
C421 C 0.08918 0.06727 0.41951 0.0
C422 C 0.10986 0.08639 0.42859 0.0
C423 C 0.11399 0.08932 0.45621 0.0
C424 C 0.09657 0.07222 0.47521 0.0
C425 C 0.07489 0.05269 0.46663 0.0
C426 C 0.07112 0.05027 0.43832 0.0
H427 H 0.4076 0.94206 0.83708 0.0
H428 H 0.42621 0.85285 0.8296 0.0
H429 H 0.45406 0.85633 0.87018 0.0
H430 H 0.47243 0.97147 0.8585 0.0
H431 H 0.45951 0.99471 0.88268 0.0
H432 H 0.44043 0.98534 0.85321 0.0
H433 H 0.39925 0.96491 0.88476 0.0
H434 H 0.41818 0.97421 0.91438 0.0
H435 H 0.40305 0.93709 0.91169 0.0
H436 H 0.47931 0.86862 0.91116 0.0
H437 H 0.50266 0.88979 0.94989 0.0
H438 H 0.46887 0.97174 0.93171 0.0
C439 C 0.41737 0.9232 0.84412 0.0
C440 C 0.41485 0.89723 0.82997 0.0
C441 C 0.42819 0.87314 0.83973 0.0
C442 C 0.44389 0.8748 0.86292 0.0
C443 C 0.44603 0.90066 0.87628 0.0
C444 C 0.43323 0.92448 0.86733 0.0
C445 C 0.43933 0.94975 0.88546 0.0
C446 C 0.4538 0.97692 0.86898 0.0
C447 C 0.41341 0.95691 0.89993 0.0
C448 C 0.45792 0.93648 0.90569 0.0
C449 C 0.46113 0.90801 0.90007 0.0
C450 C 0.47698 0.89088 0.91582 0.0
C451 C 0.49012 0.90315 0.93788 0.0
C452 C 0.48763 0.93245 0.94395 0.0
C453 C 0.47121 0.94931 0.92759 0.0
H454 H 0.60184 0.3848 0.67458 0.0
H455 H 0.64547 0.46086 0.70772 0.0
H456 H 0.63177 0.49232 0.66902 0.0
H457 H 0.61651 0.40723 0.60288 0.0
H458 H 0.58352 0.3933 0.59218 0.0
H459 H 0.5976 0.37636 0.62193 0.0
H460 H 0.55547 0.38446 0.65118 0.0
H461 H 0.54121 0.40136 0.62154 0.0
H462 H 0.54551 0.42088 0.65207 0.0
H463 H 0.61138 0.51605 0.62856 0.0
H464 H 0.58651 0.53061 0.58804 0.0
H465 H 0.55619 0.43945 0.58008 0.0
C466 C 0.60852 0.40807 0.67376 0.0
C467 C 0.62493 0.42025 0.69427 0.0
C468 C 0.63335 0.45083 0.69213 0.0
C469 C 0.62551 0.46895 0.67028 0.0
C470 C 0.60927 0.45626 0.65059 0.0
C471 C 0.6009 0.42653 0.65202 0.0
C472 C 0.58303 0.41863 0.62838 0.0
C473 C 0.59595 0.39764 0.61027 0.0
C474 C 0.55462 0.40556 0.63893 0.0
C475 C 0.58256 0.44863 0.61351 0.0
C476 C 0.59779 0.46997 0.6268 0.0
C477 C 0.59959 0.49952 0.61783 0.0
C478 C 0.58532 0.50756 0.5948 0.0
C479 C 0.56955 0.48618 0.58073 0.0
C480 C 0.56841 0.45625 0.59012 0.0
H481 H 0.91676 0.63275 0.14354 0.0
H482 H 0.92829 0.57321 0.21381 0.0
H483 H 0.95166 0.54238 0.18412 0.0
H484 H 0.90526 0.57567 0.09482 0.0
H485 H 0.92297 0.59791 0.06685 0.0
H486 H 0.90605 0.61504 0.09332 0.0
H487 H 0.95066 0.64694 0.10222 0.0
H488 H 0.96773 0.62985 0.07587 0.0
H489 H 0.98037 0.62939 0.11001 0.0
H490 H 0.97638 0.51999 0.14843 0.0
H491 H 0.9989 0.50482 0.10742 0.0
H492 H 0.97055 0.5771 0.05878 0.0
C493 C 0.92406 0.6131 0.15257 0.0
C494 C 0.92049 0.60524 0.181 0.0
C495 C 0.93033 0.57938 0.19207 0.0
C496 C 0.9438 0.56182 0.1754 0.0
C497 C 0.94713 0.57022 0.1476 0.0
C498 C 0.93736 0.59502 0.1361 0.0
C499 C 0.94394 0.59889 0.10552 0.0
C500 C 0.91801 0.59674 0.08916 0.0
C501 C 0.96174 0.628 0.09797 0.0
C502 C 0.95941 0.57271 0.10189 0.0
C503 C 0.96099 0.55661 0.12653 0.0
C504 C 0.97508 0.53219 0.12893 0.0
C505 C 0.9879 0.52383 0.10549 0.0
C506 C 0.98642 0.53967 0.07985 0.0
C507 C 0.9718 0.56438 0.07804 0.0
H508 H 0.37335 0.14804 0.14719 0.0
H509 H 0.31371 0.07328 0.16821 0.0
H510 H 0.34072 0.04176 0.14274 0.0
H511 H 0.39169 0.12819 0.07831 0.0
H512 H 0.42713 0.13994 0.08122 0.0
H513 H 0.40243 0.15746 0.09963 0.0
H514 H 0.42561 0.14562 0.14502 0.0
H515 H 0.45035 0.12799 0.12681 0.0
H516 H 0.43065 0.10818 0.15489 0.0
H517 H 0.37463 0.01758 0.11888 0.0
H518 H 0.41411 1.00144 0.0956 0.0
H519 H 0.45267 0.09114 0.08789 0.0
C520 C 0.36596 0.12513 0.14595 0.0
C521 C 0.34149 0.1129 0.15946 0.0
C522 C 0.33245 0.08284 0.15793 0.0
C523 C 0.34759 0.06484 0.14352 0.0
C524 C 0.3718 0.07725 0.13075 0.0
C525 C 0.38105 0.10664 0.13168 0.0
C526 C 0.40853 0.11369 0.11712 0.0
C527 C 0.40736 0.13615 0.0926 0.0
C528 C 0.43005 0.12451 0.13716 0.0
C529 C 0.41307 0.08366 0.1079 0.0
C530 C 0.39158 0.06307 0.11623 0.0
C531 C 0.39146 0.03348 0.11189 0.0
C532 C 0.41398 0.02451 0.09876 0.0
C533 C 0.43618 0.04507 0.08977 0.0
C534 C 0.43565 0.07512 0.09412 0.0
H535 H 0.22362 0.91503 0.59837 0.0
H536 H 0.19667 0.8802 0.68029 0.0
H537 H 0.15273 0.89875 0.67333 0.0
H538 H 0.1913 0.98088 0.59905 0.0
H539 H 0.18236 0.98095 0.56365 0.0
H540 H 0.21167 0.96448 0.57478 0.0
H541 H 0.19283 0.91569 0.55515 0.0
H542 H 0.16339 0.93197 0.54406 0.0
H543 H 0.15965 0.89864 0.5661 0.0
H544 H 0.11244 0.92156 0.65835 0.0
H545 H 0.07788 0.94858 0.6364 0.0
H546 H 0.12995 0.96815 0.56358 0.0
C547 C 0.20838 0.91114 0.61474 0.0
C548 C 0.21362 0.89631 0.63996 0.0
C549 C 0.19327 0.89192 0.66099 0.0
C550 C 0.16818 0.90215 0.65716 0.0
C551 C 0.16368 0.9167 0.63215 0.0
C552 C 0.18316 0.9213 0.61129 0.0
C553 C 0.17319 0.93829 0.58668 0.0
C554 C 0.19067 0.96791 0.5807 0.0
C555 C 0.17221 0.92005 0.56151 0.0
C556 C 0.14507 0.94246 0.59705 0.0
C557 C 0.1401 0.92978 0.62333 0.0
C558 C 0.11599 0.93148 0.63773 0.0
C559 C 0.09651 0.9469 0.62509 0.0
C560 C 0.10118 0.96034 0.59828 0.0
C561 C 0.12568 0.95775 0.58397 0.0
H562 H 0.82301 0.46295 0.88618 0.0
H563 H 0.82747 0.37026 0.90649 0.0
H564 H 0.8682 0.38276 0.93283 0.0
H565 H 0.89244 0.48278 0.87393 0.0
H566 H 0.89302 0.5179 0.8883 0.0
H567 H 0.86268 0.50169 0.87372 0.0
H568 H 0.83622 0.50546 0.91934 0.0
H569 H 0.86658 0.52168 0.93403 0.0
H570 H 0.84792 0.48919 0.9507 0.0
H571 H 0.90994 0.40587 0.9559 0.0
H572 H 0.94999 0.43735 0.9707 0.0
H573 H 0.9193 0.51382 0.93191 0.0
C574 C 0.83248 0.44518 0.89611 0.0
C575 C 0.82187 0.41557 0.89421 0.0
C576 C 0.83484 0.39314 0.90795 0.0
C577 C 0.85809 0.40002 0.92289 0.0
C578 C 0.86817 0.42943 0.92397 0.0
C579 C 0.85574 0.45162 0.91087 0.0
C580 C 0.87124 0.48139 0.91387 0.0
C581 C 0.88039 0.49682 0.88578 0.0
C582 C 0.85449 0.50055 0.93047 0.0
C583 C 0.8949 0.47244 0.9298 0.0
C584 C 0.89252 0.44248 0.9361 0.0
C585 C 0.91199 0.42934 0.95104 0.0
C586 C 0.93459 0.4473 0.9594 0.0
C587 C 0.93772 0.47781 0.95214 0.0
C588 C 0.91749 0.49044 0.9374 0.0
H589 H 0.7217 0.58266 0.40608 0.0
H590 H 0.68671 0.6265 0.33675 0.0
H591 H 0.64145 0.61445 0.35855 0.0
H592 H 0.67133 0.52346 0.41561 0.0
H593 H 0.67096 0.52066 0.45249 0.0
H594 H 0.70119 0.53583 0.43342 0.0
H595 H 0.70233 0.58323 0.45921 0.0
H596 H 0.67208 0.56817 0.47847 0.0
H597 H 0.67323 0.60317 0.45926 0.0
H598 H 0.60022 0.59365 0.3844 0.0
H599 H 0.56437 0.56497 0.4135 0.0
H600 H 0.62458 0.53437 0.46739 0.0
C601 C 0.70451 0.59026 0.3959 0.0
C602 C 0.70762 0.60551 0.36973 0.0
C603 C 0.68469 0.61466 0.35672 0.0
C604 C 0.65894 0.60808 0.369 0.0
C605 C 0.65639 0.59245 0.39444 0.0
C606 C 0.67846 0.58372 0.40791 0.0
C607 C 0.66958 0.56529 0.43421 0.0
C608 C 0.67881 0.53449 0.43389 0.0
C609 C 0.67992 0.5809 0.45927 0.0
C610 C 0.63909 0.56416 0.43275 0.0
C611 C 0.6321 0.58037 0.40977 0.0
C612 C 0.60537 0.58127 0.40272 0.0
C613 C 0.58515 0.56482 0.41933 0.0
C614 C 0.59167 0.5477 0.4428 0.0
C615 C 0.619 0.5478 0.44989 0.0
H616 H 0.15084 0.30911 0.1066 0.0
H617 H 0.15106 0.34042 0.18815 0.0
H618 H 0.12005 0.37642 0.17354 0.0
H619 H 0.15333 0.37799 0.07069 0.0
H620 H 0.13162 0.36539 0.04405 0.0
H621 H 0.15154 0.34041 0.06188 0.0
H622 H 0.10823 0.305 0.07494 0.0
H623 H 0.0881 0.32999 0.05725 0.0
H624 H 0.08054 0.31834 0.09274 0.0
H625 H 0.09106 0.41094 0.149 0.0
H626 H 0.06859 0.44264 0.11618 0.0
H627 H 0.08889 0.38933 0.0506 0.0
C628 C 0.14439 0.32351 0.12144 0.0
C629 C 0.15338 0.32194 0.14852 0.0
C630 C 0.14416 0.34096 0.16737 0.0
C631 C 0.12659 0.36151 0.15926 0.0
C632 C 0.11832 0.3626 0.13229 0.0
C633 C 0.12696 0.34409 0.1137 0.0
C634 C 0.11633 0.35057 0.08559 0.0
C635 C 0.13959 0.35911 0.06431 0.0
C636 C 0.09716 0.32442 0.07714 0.0
C637 C 0.10115 0.37637 0.09096 0.0
C638 C 0.10206 0.38264 0.11812 0.0
C639 C 0.09005 0.40608 0.12773 0.0
C640 C 0.07726 0.4239 0.10894 0.0
C641 C 0.07698 0.41841 0.08083 0.0
C642 C 0.08871 0.39403 0.07195 0.0
H643 H 0.64429 0.17463 0.91963 0.0
H644 H 0.57716 0.22008 0.89185 0.0
H645 H 0.54527 0.1789 0.91194 0.0
H646 H 0.61443 0.10085 0.90858 0.0
H647 H 0.62797 0.08462 0.93899 0.0
H648 H 0.64574 0.1171 0.92143 0.0
H649 H 0.64514 0.14389 0.96624 0.0
H650 H 0.62737 0.1115 0.98392 0.0
H651 H 0.61339 0.14597 0.98399 0.0
H652 H 0.52058 0.13471 0.93766 0.0
H653 H 0.50461 0.08885 0.96526 0.0
H654 H 0.58746 0.07105 0.97561 0.0
C655 C 0.62288 0.17593 0.91772 0.0
C656 C 0.61328 0.20064 0.90399 0.0
C657 C 0.58508 0.20127 0.90181 0.0
C658 C 0.56678 0.17805 0.91334 0.0
C659 C 0.57691 0.15423 0.92692 0.0
C660 C 0.60429 0.15287 0.92903 0.0
C661 C 0.6098 0.12494 0.94519 0.0
C662 C 0.62541 0.10574 0.92748 0.0
C663 C 0.62481 0.132 0.97138 0.0
C664 C 0.58123 0.11086 0.95183 0.0
C665 C 0.5626 0.12828 0.94125 0.0
C666 C 0.53496 0.12072 0.94579 0.0
C667 C 0.52609 0.09469 0.96157 0.0
C668 C 0.54476 0.07628 0.97237 0.0
C669 C 0.5727 0.08445 0.96724 0.0
H670 H 0.93349 0.79545 0.40359 0.0
H671 H 0.90118 0.84599 0.33691 0.0
H672 H 0.92359 0.89186 0.35388 0.0
H673 H 0.92567 0.84194 0.45459 0.0
H674 H 0.95701 0.83733 0.47096 0.0
H675 H 0.94108 0.80857 0.45184 0.0
H676 H 0.98464 0.80952 0.4217 0.0
H677 H 1.00088 0.83822 0.44087 0.0
H678 H 0.99927 0.84358 0.40421 0.0
H679 H 0.94579 0.93206 0.38076 0.0
H680 H 0.96677 0.96377 0.41469 0.0
H681 H 0.98526 0.88673 0.4637 0.0
C682 C 0.93168 0.8162 0.39232 0.0
C683 C 0.91587 0.81744 0.36892 0.0
C684 C 0.91359 0.84478 0.35468 0.0
C685 C 0.92617 0.87084 0.3642 0.0
C686 C 0.94134 0.86897 0.38764 0.0
C687 C 0.94448 0.84231 0.40128 0.0
C688 C 0.96104 0.84635 0.42648 0.0
C689 C 0.94524 0.83275 0.4525 0.0
C690 C 0.98806 0.83366 0.42311 0.0
C691 C 0.96528 0.87951 0.42591 0.0
C692 C 0.95425 0.89213 0.40304 0.0
C693 C 0.95482 0.92242 0.39854 0.0
C694 C 0.96678 0.94026 0.41801 0.0
C695 C 0.97772 0.92779 0.44193 0.0
C696 C 0.97721 0.89698 0.44562 0.0
H697 H 0.39737 0.70192 0.61685 0.0
H698 H 0.4646 0.72377 0.66901 0.0
H699 H 0.48956 0.68704 0.64842 0.0
H700 H 0.4016 0.62473 0.6201 0.0
H701 H 0.39326 0.62038 0.58494 0.0
H702 H 0.38083 0.64934 0.60281 0.0
H703 H 0.40247 0.68771 0.5651 0.0
H704 H 0.41492 0.65883 0.54708 0.0
H705 H 0.43797 0.68923 0.55655 0.0
H706 H 0.50681 0.64749 0.62368 0.0
H707 H 0.51553 0.60667 0.59596 0.0
H708 H 0.43739 0.60964 0.55941 0.0
C709 C 0.41746 0.69913 0.62366 0.0
C710 C 0.42902 0.71555 0.64464 0.0
C711 C 0.45524 0.71113 0.65323 0.0
C712 C 0.46964 0.69046 0.64156 0.0
C713 C 0.4576 0.67435 0.62125 0.0
C714 C 0.43215 0.67837 0.61228 0.0
C715 C 0.42374 0.65741 0.59064 0.0
C716 C 0.39835 0.63674 0.60021 0.0
C717 C 0.41953 0.67431 0.56321 0.0
C718 C 0.44836 0.64092 0.58912 0.0
C719 C 0.46765 0.65122 0.60687 0.0
C720 C 0.49194 0.63928 0.60958 0.0
C721 C 0.49668 0.61607 0.59374 0.0
C722 C 0.47719 0.60495 0.57546 0.0
C723 C 0.45275 0.6177 0.57311 0.0
H724 H 0.87587 0.899 0.64806 0.0
H725 H 0.93942 0.87159 0.69917 0.0
H726 H 0.97374 0.89909 0.66723 0.0
H727 H 0.91053 0.89239 0.58406 0.0
H728 H 0.89852 0.92399 0.56668 0.0
H729 H 0.87852 0.90365 0.59425 0.0
H730 H 0.87751 0.9511 0.61968 0.0
H731 H 0.89742 0.97164 0.59213 0.0
H732 H 0.90882 0.9724 0.6267 0.0
H733 H 1.00102 0.92813 0.63023 0.0
H734 H 0.02048 0.95694 0.58887 0.0
H735 H 0.94006 0.96527 0.55996 0.0
C736 C 0.89703 0.89915 0.65249 0.0
C737 C 0.90521 0.88337 0.67598 0.0
C738 C 0.93296 0.88359 0.68118 0.0
C739 C 0.95253 0.89915 0.66323 0.0
C740 C 0.94398 0.91422 0.64007 0.0
C741 C 0.91698 0.91436 0.63449 0.0
C742 C 0.91362 0.93154 0.60745 0.0
C743 C 0.89946 0.9117 0.5869 0.0
C744 C 0.89844 0.95826 0.61176 0.0
C745 C 0.94294 0.94088 0.59881 0.0
C746 C 0.95999 0.93074 0.61812 0.0
C747 C 0.98791 0.93636 0.615 0.0
C748 C 0.99878 0.95292 0.59152 0.0
C749 C 0.98186 0.96366 0.57138 0.0
C750 C 0.95352 0.95734 0.57502 0.0
H751 H 0.61066 0.15035 0.1854 0.0
H752 H 0.63703 0.07021 0.22189 0.0
H753 H 0.61906 0.04347 0.18291 0.0
H754 H 0.54874 0.11834 0.16316 0.0
H755 H 0.54944 0.14167 0.132 0.0
H756 H 0.56678 0.15469 0.1613 0.0
H757 H 0.61133 0.16551 0.13216 0.0
H758 H 0.59414 0.1525 0.1027 0.0
H759 H 0.62372 0.13663 0.11406 0.0
H760 H 0.5944 0.02482 0.14155 0.0
H761 H 0.56598 0.01617 0.10159 0.0
H762 H 0.55603 0.10888 0.0931 0.0
C763 C 0.61279 0.12719 0.1852 0.0
C764 C 0.6252 0.11236 0.20675 0.0
C765 C 0.62786 0.08211 0.20547 0.0
C766 C 0.61762 0.06673 0.18346 0.0
C767 C 0.60498 0.08198 0.16284 0.0
C768 C 0.60271 0.11159 0.16351 0.0
C769 C 0.5872 0.12275 0.13965 0.0
C770 C 0.56152 0.13507 0.14963 0.0
C771 C 0.60518 0.1457 0.12104 0.0
C772 C 0.5805 0.09466 0.12569 0.0
C773 C 0.59105 0.07137 0.13918 0.0
C774 C 0.58631 0.04297 0.13066 0.0
C775 C 0.57014 0.03827 0.10795 0.0
C776 C 0.55886 0.06185 0.09409 0.0
C777 C 0.56451 0.0904 0.10301 0.0
H778 H 0.43219 0.56526 0.33996 0.0
H779 H 0.42337 0.651 0.36846 0.0
H780 H 0.44125 0.63598 0.413 0.0
H781 H 0.41554 0.52297 0.40698 0.0
H782 H 0.44033 0.49802 0.40196 0.0
H783 H 0.4245 0.51417 0.37289 0.0
H784 H 0.47154 0.53417 0.35156 0.0
H785 H 0.48747 0.51824 0.38061 0.0
H786 H 0.49464 0.55692 0.37098 0.0
H787 H 0.462 0.61396 0.45262 0.0
H788 H 0.48527 0.5859 0.48679 0.0
H789 H 0.48267 0.51311 0.43438 0.0
C790 C 0.43356 0.5805 0.35589 0.0
C791 C 0.42619 0.60923 0.35101 0.0
C792 C 0.42876 0.6289 0.37197 0.0
C793 C 0.43887 0.62055 0.39729 0.0
C794 C 0.44641 0.59239 0.40141 0.0
C795 C 0.4439 0.57251 0.38148 0.0
C796 C 0.45498 0.54415 0.39124 0.0
C797 C 0.43249 0.51829 0.39339 0.0
C798 C 0.47856 0.53802 0.37248 0.0
C799 C 0.46458 0.55161 0.41944 0.0
C800 C 0.45906 0.5795 0.42473 0.0
C801 C 0.46629 0.59201 0.44884 0.0
C802 C 0.47965 0.57576 0.46816 0.0
C803 C 0.48592 0.54711 0.46348 0.0
C804 C 0.47805 0.5348 0.43873 0.0
H805 H 0.10192 0.38263 0.88422 0.0
H806 H 0.1547 0.45574 0.84473 0.0
H807 H 0.13875 0.48842 0.87801 0.0
H808 H 0.04659 0.42282 0.89707 0.0
H809 H 0.03701 0.40353 0.92973 0.0
H810 H 0.05367 0.38546 0.90379 0.0
H811 H 0.09089 0.37422 0.93753 0.0
H812 H 0.07432 0.39217 0.96364 0.0
H813 H 0.10917 0.40384 0.95402 0.0
H814 H 0.11393 0.51416 0.91279 0.0
H815 H 0.08483 0.53011 0.9493 0.0
H816 H 0.0497 0.44006 0.96747 0.0
C817 C 0.11021 0.40549 0.88259 0.0
C818 C 0.12962 0.41657 0.86179 0.0
C819 C 0.14011 0.4466 0.86064 0.0
C820 C 0.13103 0.4654 0.87935 0.0
C821 C 0.11156 0.45387 0.89926 0.0
C822 C 0.10148 0.42454 0.9012 0.0
C823 C 0.08032 0.4178 0.9242 0.0
C824 C 0.05277 0.40675 0.91302 0.0
C825 C 0.08922 0.3957 0.94615 0.0
C826 C 0.08003 0.44795 0.93484 0.0
C827 C 0.09799 0.46851 0.91997 0.0
C828 C 0.10007 0.49819 0.92483 0.0
C829 C 0.08341 0.50708 0.94547 0.0
C830 C 0.06529 0.48629 0.96129 0.0
C831 C 0.06375 0.45634 0.95596 0.0
H832 H 0.70175 0.93001 0.86756 0.0
H833 H 0.67797 0.83855 0.8942 0.0
H834 H 0.64329 0.85345 0.92561 0.0
H835 H 0.69187 0.95959 0.93292 0.0
H836 H 0.67894 0.99203 0.91828 0.0
H837 H 0.70267 0.97422 0.89885 0.0
H838 H 0.66912 0.96946 0.85944 0.0
H839 H 0.64537 0.98736 0.87869 0.0
H840 H 0.63536 0.95172 0.86664 0.0
H841 H 0.61063 0.87856 0.95365 0.0
H842 H 0.58147 0.91156 0.97462 0.0
H843 H 0.62568 0.98625 0.92807 0.0
C844 C 0.68917 0.91303 0.87983 0.0
C845 C 0.69268 0.88307 0.87839 0.0
C846 C 0.67599 0.86166 0.8952 0.0
C847 C 0.65614 0.86991 0.91302 0.0
C848 C 0.65322 0.89964 0.91381 0.0
C849 C 0.66924 0.92084 0.8976 0.0
C850 C 0.66168 0.95123 0.9018 0.0
C851 C 0.68519 0.97039 0.91367 0.0
C852 C 0.65232 0.96579 0.87505 0.0
C853 C 0.63856 0.94382 0.92259 0.0
C854 C 0.63419 0.91399 0.92953 0.0
C855 C 0.61391 0.90196 0.9484 0.0
C856 C 0.59752 0.9209 0.96028 0.0
C857 C 0.60132 0.9515 0.95301 0.0
C858 C 0.62225 0.96298 0.93402 0.0
H859 H 0.82151 0.07275 0.38546 0.0
H860 H 0.83502 0.15976 0.41514 0.0
H861 H 0.87377 0.14478 0.44114 0.0
H862 H 0.84022 0.03231 0.4469 0.0
H863 H 0.85606 0.00637 0.42783 0.0
H864 H 0.82824 0.02349 0.41374 0.0
H865 H 0.85762 0.04211 0.37024 0.0
H866 H 0.88548 0.02505 0.38417 0.0
H867 H 0.88964 0.0637 0.37376 0.0
H868 H 0.91286 0.11982 0.46247 0.0
H869 H 0.9485 0.08818 0.47525 0.0
H870 H 0.90906 0.01944 0.42906 0.0
C871 C 0.8326 0.08878 0.39734 0.0
C872 C 0.82531 0.11748 0.39812 0.0
C873 C 0.8401 0.13754 0.41441 0.0
C874 C 0.86218 0.12925 0.42917 0.0
C875 C 0.86907 0.10083 0.4275 0.0
C876 C 0.85459 0.08097 0.41196 0.0
C877 C 0.86646 0.05219 0.4124 0.0
C878 C 0.84656 0.02711 0.42603 0.0
C879 C 0.87533 0.04539 0.38343 0.0
C880 C 0.89037 0.05908 0.42999 0.0
C881 C 0.89146 0.087 0.439 0.0
C882 C 0.91211 0.09791 0.45553 0.0
C883 C 0.93222 0.07984 0.46271 0.0
C884 C 0.93163 0.05151 0.45292 0.0
C885 C 0.91025 0.04112 0.43663 0.0
H886 H 0.20145 0.62509 0.14725 0.0
H887 H 0.25033 0.55508 0.13272 0.0
H888 H 0.2172 0.53512 0.10039 0.0
H889 H 0.13896 0.58189 0.14856 0.0
H890 H 0.12086 0.6092 0.13139 0.0
H891 H 0.14996 0.62036 0.15067 0.0
H892 H 0.17199 0.65083 0.10786 0.0
H893 H 0.14293 0.63964 0.08837 0.0
H894 H 0.17611 0.63326 0.0765 0.0
H895 H 0.17824 0.52106 0.0718 0.0
H896 H 0.13365 0.51088 0.05191 0.0
H897 H 0.10816 0.58836 0.08618 0.0
C898 C 0.20533 0.60591 0.13679 0.0
C899 C 0.22848 0.59165 0.14232 0.0
C900 C 0.23269 0.56626 0.12876 0.0
C901 C 0.21409 0.55489 0.11023 0.0
C902 C 0.19131 0.56915 0.10543 0.0
C903 C 0.18671 0.59401 0.11837 0.0
C904 C 0.15942 0.6035 0.11119 0.0
C905 C 0.14123 0.60373 0.13699 0.0
C906 C 0.16282 0.6336 0.09502 0.0
C907 C 0.14903 0.57938 0.09318 0.0
C908 C 0.16813 0.56033 0.08954 0.0
C909 C 0.16316 0.53593 0.0743 0.0
C910 C 0.13775 0.53039 0.06298 0.0
C911 C 0.11736 0.54883 0.06739 0.0
C912 C 0.12335 0.57394 0.08231 0.0
H913 H 0.34082 0.45761 0.67488 0.0
H914 H 0.33304 0.37112 0.64358 0.0
H915 H 0.3723 0.38666 0.61199 0.0
H916 H 0.36173 0.4988 0.61131 0.0
H917 H 0.38498 0.52469 0.62735 0.0
H918 H 0.3554 0.50707 0.64616 0.0
H919 H 0.38543 0.48814 0.68438 0.0
H920 H 0.41507 0.50579 0.66577 0.0
H921 H 0.41234 0.46704 0.67559 0.0
H922 H 0.41338 0.41252 0.58367 0.0
H923 H 0.45333 0.44504 0.56389 0.0
H924 H 0.43469 0.51251 0.61661 0.0
C925 C 0.34742 0.44173 0.66161 0.0
C926 C 0.33376 0.41309 0.66184 0.0
C927 C 0.34289 0.39333 0.64361 0.0
C928 C 0.36526 0.40192 0.62565 0.0
C929 C 0.37832 0.43032 0.62616 0.0
C930 C 0.36971 0.44982 0.64381 0.0
C931 C 0.38747 0.47878 0.64116 0.0
C932 C 0.37144 0.50381 0.63088 0.0
C933 C 0.40087 0.4853 0.66834 0.0
C934 C 0.40785 0.47244 0.61967 0.0
C935 C 0.4021 0.4446 0.61082 0.0
C936 C 0.41809 0.43431 0.59057 0.0
C937 C 0.44065 0.45289 0.5794 0.0
C938 C 0.44718 0.4811 0.58894 0.0
C939 C 0.4304 0.49089 0.60917 0.0
H940 H 0.85697 0.66737 0.91188 0.0
H941 H 0.91851 0.7109 0.85413 0.0
H942 H 0.95095 0.6782 0.8722 0.0
H943 H 0.89951 0.66074 0.96765 0.0
H944 H 0.88336 0.62534 0.98076 0.0
H945 H 0.86437 0.6503 0.96161 0.0
H946 H 0.85128 0.61064 0.92758 0.0
H947 H 0.87009 0.58548 0.94678 0.0
H948 H 0.87747 0.59378 0.91072 0.0
H949 H 0.9775 0.64234 0.89881 0.0
H950 H 0.99528 0.60568 0.93077 0.0
H951 H 0.91634 0.58733 0.97157 0.0
C952 C 0.87724 0.67007 0.90295 0.0
C953 C 0.88514 0.69179 0.88157 0.0
C954 C 0.91182 0.69421 0.87026 0.0
C955 C 0.93046 0.67584 0.88051 0.0
C956 C 0.9221 0.65512 0.90201 0.0
C957 C 0.89606 0.65205 0.91295 0.0
C958 C 0.89231 0.62886 0.93657 0.0
C959 C 0.88443 0.64211 0.96322 0.0
C960 C 0.87156 0.60317 0.93001 0.0
C961 C 0.92044 0.61971 0.93758 0.0
C962 C 0.93734 0.63489 0.9174 0.0
C963 C 0.96439 0.63027 0.91464 0.0
C964 C 0.97433 0.60949 0.93294 0.0
C965 C 0.95726 0.59374 0.95378 0.0
C966 C 0.92999 0.59905 0.95598 0.0
H967 H 0.4195 0.80882 0.09526 0.0
H968 H 0.43078 0.83358 0.17845 0.0
H969 H 0.45767 0.8797 0.16069 0.0
H970 H 0.48547 0.8389 0.0679 0.0
H971 H 0.47308 0.85132 0.03541 0.0
H972 H 0.45556 0.8198 0.05473 0.0
H973 H 0.41133 0.84444 0.05368 0.0
H974 H 0.42867 0.87599 0.0343 0.0
H975 H 0.41106 0.88044 0.06605 0.0
H976 H 0.48165 0.92429 0.1337 0.0
H977 H 0.50146 0.96346 0.09937 0.0
H978 H 0.47448 0.90972 0.03398 0.0
C979 C 0.42754 0.82393 0.1098 0.0
C980 C 0.42301 0.81745 0.13832 0.0
C981 C 0.43425 0.83777 0.15656 0.0
C982 C 0.44944 0.86413 0.14666 0.0
C983 C 0.45331 0.86987 0.11844 0.0
C984 C 0.44274 0.8503 0.10028 0.0
C985 C 0.44943 0.86189 0.07091 0.0
C986 C 0.46693 0.84178 0.05638 0.0
C987 C 0.42359 0.86593 0.05533 0.0
C988 C 0.46528 0.89116 0.07533 0.0
C989 C 0.4673 0.89535 0.10292 0.0
C990 C 0.48036 0.92112 0.11207 0.0
C991 C 0.49153 0.9432 0.09253 0.0
C992 C 0.48959 0.93927 0.06428 0.0
C993 C 0.47644 0.91294 0.05556 0.0
H994 H 0.12852 0.22302 0.62369 0.0
H995 H 0.12531 0.17958 0.70534 0.0
H996 H 0.10138 0.135 0.68774 0.0
H997 H 0.06356 0.1893 0.60174 0.0
H998 H 0.07626 0.18647 0.56737 0.0
H999 H 0.09042 0.21571 0.58715 0.0
H1000 H 0.13811 0.19978 0.57953 0.0
H1001 H 0.12415 0.17047 0.55984 0.0
H1002 H 0.14387 0.16251 0.58916 0.0
H1003 H 0.08081 0.09385 0.66014 0.0
H1004 H 0.06585 0.05984 0.62515 0.0
H1005 H 0.08426 0.13041 0.56171 0.0
C1006 C 0.1227 0.20422 0.63797 0.0
C1007 C 0.12882 0.20484 0.66593 0.0
C1008 C 0.12052 0.17981 0.68392 0.0
C1009 C 0.10703 0.15434 0.67407 0.0
C1010 C 0.1019 0.15432 0.64624 0.0
C1011 C 0.10942 0.1787 0.6285 0.0
C1012 C 0.10302 0.17271 0.59929 0.0
C1013 C 0.08207 0.19221 0.58824 0.0
C1014 C 0.12882 0.17659 0.58088 0.0
C1015 C 0.09124 0.1409 0.60318 0.0
C1016 C 0.09044 0.13072 0.63042 0.0
C1017 C 0.08111 0.10169 0.63879 0.0
C1018 C 0.07261 0.08255 0.61877 0.0
C1019 C 0.07376 0.09249 0.59069 0.0
C1020 C 0.08297 0.12215 0.58299 0.0
H1021 H 0.66274 0.339 0.40891 0.0
H1022 H 0.59199 0.27496 0.40783 0.0
H1023 H 0.56385 0.31091 0.42548 0.0
H1024 H 0.64607 0.36773 0.47143 0.0
H1025 H 0.65909 0.40501 0.46065 0.0
H1026 H 0.67317 0.37503 0.44598 0.0
H1027 H 0.66323 0.39617 0.39736 0.0
H1028 H 0.64913 0.42627 0.4119 0.0
H1029 H 0.62938 0.40342 0.38962 0.0
H1030 H 0.54373 0.35359 0.4451 0.0
H1031 H 0.53362 0.39903 0.46565 0.0
H1032 H 0.61802 0.43391 0.45514 0.0
C1033 C 0.64133 0.33247 0.41237 0.0
C1034 C 0.62959 0.30413 0.40691 0.0
C1035 C 0.60141 0.29667 0.41145 0.0
C1036 C 0.58527 0.3169 0.42161 0.0
C1037 C 0.59759 0.34452 0.42706 0.0
C1038 C 0.62498 0.35231 0.42254 0.0
C1039 C 0.63349 0.38298 0.43085 0.0
C1040 C 0.65417 0.38265 0.45358 0.0
C1041 C 0.64445 0.40341 0.40594 0.0
C1042 C 0.60672 0.39102 0.44135 0.0
C1043 C 0.58616 0.36874 0.43871 0.0
C1044 C 0.55967 0.37122 0.44719 0.0
C1045 C 0.55411 0.3971 0.4588 0.0
C1046 C 0.57502 0.41997 0.46208 0.0
C1047 C 0.60159 0.41679 0.45306 0.0
loop_
_geom_bond_atom_site_label_1
_geom_bond_atom_site_label_2
_geom_bond_distance
_geom_bond_site_symmetry_2
_ccdc_geom_bond_type
C0 C1 1.264 . S
C0 C5 1.479 . S
C0 C10 1.465 . S
C1 C0 1.264 . S
C1 C3 1.339 . S
C1 H28 0.931 . S
C2 C3 1.395 . S
C2 C4 1.320 . S
C3 C1 1.339 . S
C3 C2 1.395 . S
C3 H29 0.929 . S
C4 C2 1.320 . S
C4 C5 1.405 . S
C4 H30 0.930 . S
C5 C0 1.479 . S
C5 C4 1.405 . S
C5 H31 0.931 . S
U6 O7 2.454 . S
U6 O8 2.458 . S
U6 C9 2.984 . S
U6 C10 2.847 . S
U6 C23 2.882 . S
U6 O24 2.441 . S
U6 O25 2.420 . S
U6 O26 2.455 . S
U6 O27 2.449 . S
O7 U6 2.454 . S
O7 C9 1.353 . S
O8 U6 2.458 . S
O8 C9 1.286 . S
C9 U6 2.984 . S
C9 O7 1.353 . S
C9 O8 1.286 . S
C9 C11 1.363 . S
C10 C0 1.465 . S
C10 U6 2.847 . S
C10 O24 1.249 . S
C10 O25 1.202 . S
C11 C9 1.363 . S
C11 C13 1.408 . S
C11 C16 1.342 . S
C12 C13 1.310 . S
C12 C15 1.461 . S
C12 H32 0.932 . S
C13 C11 1.408 . S
C13 C12 1.310 . S
C13 H33 0.930 . S
C14 C15 1.474 . S
C14 C16 1.285 . S
C14 H34 0.929 . S
C15 C12 1.461 . S
C15 C14 1.474 . S
C16 C11 1.342 . S
C16 C14 1.285 . S
C16 H35 0.930 . S
C17 C20 1.424 . S
C17 C22 1.245 . S
C17 C23 1.428 . S
C18 C21 1.260 . S
C18 C22 1.477 . S
C18 H36 0.932 . S
C19 C20 1.384 . S
C19 C21 1.479 . S
C19 H37 0.929 . S
C20 C17 1.424 . S
C20 C19 1.384 . S
C20 H38 0.928 . S
C21 C18 1.260 . S
C21 C19 1.479 . S
C22 C17 1.245 . S
C22 C18 1.477 . S
C22 H39 0.932 . S
C23 U6 2.882 . S
C23 C17 1.428 . S
C23 O26 1.301 . S
C23 O27 1.282 . S
O24 U6 2.441 . S
O24 C10 1.249 . S
O25 U6 2.420 . S
O25 C10 1.202 . S
O26 U6 2.455 . S
O26 C23 1.301 . S
O27 U6 2.449 . S
O27 C23 1.282 . S
H28 C1 0.931 . S
H29 C3 0.929 . S
H30 C4 0.930 . S
H31 C5 0.931 . S
H32 C12 0.932 . S
H33 C13 0.930 . S
H34 C14 0.929 . S
H35 C16 0.930 . S
H36 C18 0.932 . S
H37 C19 0.929 . S
H38 C20 0.928 . S
H39 C22 0.932 . S
C40 C41 1.264 . S
C40 C45 1.479 . S
C40 C50 1.465 . S
C41 C40 1.264 . S
C41 C43 1.339 . S
C41 H68 0.931 . S
C42 C43 1.395 . S
C42 C44 1.320 . S
C43 C41 1.339 . S
C43 C42 1.395 . S
C43 H69 0.929 . S
C44 C42 1.320 . S
C44 C45 1.405 . S
C44 H70 0.930 . S
C45 C40 1.479 . S
C45 C44 1.405 . S
C45 H71 0.931 . S
U46 O47 2.454 . S
U46 O48 2.458 . S
U46 C49 2.984 . S
U46 C50 2.847 . S
U46 C63 2.882 . S
U46 O64 2.441 . S
U46 O65 2.420 . S
U46 O66 2.455 . S
U46 O67 2.449 . S
O47 U46 2.454 . S
O47 C49 1.353 . S
O48 U46 2.458 . S
O48 C49 1.286 . S
C49 U46 2.984 . S
C49 O47 1.353 . S
C49 O48 1.286 . S
C49 C51 1.363 . S
C50 C40 1.465 . S
C50 U46 2.847 . S
C50 O64 1.249 . S
C50 O65 1.202 . S
C51 C49 1.363 . S
C51 C53 1.408 . S
C51 C56 1.342 . S
C52 C53 1.310 . S
C52 C55 1.461 . S
C52 H72 0.932 . S
C53 C51 1.408 . S
C53 C52 1.310 . S
C53 H73 0.930 . S
C54 C55 1.474 . S
C54 C56 1.285 . S
C54 H74 0.929 . S
C55 C52 1.461 . S
C55 C54 1.474 . S
C56 C51 1.342 . S
C56 C54 1.285 . S
C56 H75 0.930 . S
C57 C60 1.424 . S
C57 C62 1.245 . S
C57 C63 1.428 . S
C58 C61 1.260 . S
C58 C62 1.477 . S
C58 H76 0.932 . S
C59 C60 1.384 . S
C59 C61 1.479 . S
C59 H77 0.929 . S
C60 C57 1.424 . S
C60 C59 1.384 . S
C60 H78 0.928 . S
C61 C58 1.260 . S
C61 C59 1.479 . S
C62 C57 1.245 . S
C62 C58 1.477 . S
C62 H79 0.932 . S
C63 U46 2.882 . S
C63 C57 1.428 . S
C63 O66 1.301 . S
C63 O67 1.282 . S
O64 U46 2.441 . S
O64 C50 1.249 . S
O65 U46 2.420 . S
O65 C50 1.202 . S
O66 U46 2.455 . S
O66 C63 1.301 . S
O67 U46 2.449 . S
O67 C63 1.282 . S
H68 C41 0.931 . S
H69 C43 0.929 . S
H70 C44 0.930 . S
H71 C45 0.931 . S
H72 C52 0.932 . S
H73 C53 0.930 . S
H74 C54 0.929 . S
H75 C56 0.930 . S
H76 C58 0.932 . S
H77 C59 0.929 . S
H78 C60 0.928 . S
H79 C62 0.932 . S
C80 C81 1.264 . S
C80 C85 1.479 . S
C80 C90 1.465 . S
C81 C80 1.264 . S
C81 C83 1.339 . S
C81 H108 0.931 . S
C82 C83 1.395 . S
C82 C84 1.320 . S
C83 C81 1.339 . S
C83 C82 1.395 . S
C83 H109 0.929 . S
C84 C82 1.320 . S
C84 C85 1.405 . S
C84 H110 0.930 . S
C85 C80 1.479 . S
C85 C84 1.405 . S
C85 H111 0.931 . S
U86 O87 2.454 . S
U86 O88 2.458 . S
U86 C89 2.984 . S
U86 C90 2.847 . S
U86 C103 2.882 . S
U86 O104 2.441 . S
U86 O105 2.420 . S
U86 O106 2.455 . S
U86 O107 2.449 . S
O87 U86 2.454 . S
O87 C89 1.353 . S
O88 U86 2.458 . S
O88 C89 1.286 . S
C89 U86 2.984 . S
C89 O87 1.353 . S
C89 O88 1.286 . S
C89 C91 1.363 . S
C90 C80 1.465 . S
C90 U86 2.847 . S
C90 O104 1.249 . S
C90 O105 1.202 . S
C91 C89 1.363 . S
C91 C93 1.408 . S
C91 C96 1.342 . S
C92 C93 1.310 . S
C92 C95 1.461 . S
C92 H112 0.932 . S
C93 C91 1.408 . S
C93 C92 1.310 . S
C93 H113 0.930 . S
C94 C95 1.474 . S
C94 C96 1.285 . S
C94 H114 0.929 . S
C95 C92 1.461 . S
C95 C94 1.474 . S
C96 C91 1.342 . S
C96 C94 1.285 . S
C96 H115 0.930 . S
C97 C100 1.424 . S
C97 C102 1.245 . S
C97 C103 1.428 . S
C98 C101 1.260 . S
C98 C102 1.477 . S
C98 H116 0.932 . S
C99 C100 1.384 . S
C99 C101 1.479 . S
C99 H117 0.929 . S
C100 C97 1.424 . S
C100 C99 1.384 . S
C100 H118 0.928 . S
C101 C98 1.260 . S
C101 C99 1.479 . S
C102 C97 1.245 . S
C102 C98 1.477 . S
C102 H119 0.932 . S
C103 U86 2.882 . S
C103 C97 1.428 . S
C103 O106 1.301 . S
C103 O107 1.282 . S
O104 U86 2.441 . S
O104 C90 1.249 . S
O105 U86 2.420 . S
O105 C90 1.202 . S
O106 U86 2.455 . S
O106 C103 1.301 . S
O107 U86 2.449 . S
O107 C103 1.282 . S
H108 C81 0.931 . S
H109 C83 0.929 . S
H110 C84 0.930 . S
H111 C85 0.931 . S
H112 C92 0.932 . S
H113 C93 0.930 . S
H114 C94 0.929 . S
H115 C96 0.930 . S
H116 C98 0.932 . S
H117 C99 0.929 . S
H118 C100 0.928 . S
H119 C102 0.932 . S
C120 C121 1.264 . S
C120 C125 1.479 . S
C120 C130 1.465 . S
C121 C120 1.264 . S
C121 C123 1.339 . S
C121 H148 0.931 . S
C122 C123 1.395 . S
C122 C124 1.320 . S
C123 C121 1.339 . S
C123 C122 1.395 . S
C123 H149 0.929 . S
C124 C122 1.320 . S
C124 C125 1.405 . S
C124 H150 0.930 . S
C125 C120 1.479 . S
C125 C124 1.405 . S
C125 H151 0.931 . S
U126 O127 2.454 . S
U126 O128 2.458 . S
U126 C129 2.984 . S
U126 C130 2.847 . S
U126 C143 2.882 . S
U126 O144 2.441 . S
U126 O145 2.420 . S
U126 O146 2.455 . S
U126 O147 2.449 . S
O127 U126 2.454 . S
O127 C129 1.353 . S
O128 U126 2.458 . S
O128 C129 1.286 . S
C129 U126 2.984 . S
C129 O127 1.353 . S
C129 O128 1.286 . S
C129 C131 1.363 . S
C130 C120 1.465 . S
C130 U126 2.847 . S
C130 O144 1.249 . S
C130 O145 1.202 . S
C131 C129 1.363 . S
C131 C133 1.408 . S
C131 C136 1.342 . S
C132 C133 1.310 . S
C132 C135 1.461 . S
C132 H152 0.932 . S
C133 C131 1.408 . S
C133 C132 1.310 . S
C133 H153 0.930 . S
C134 C135 1.474 . S
C134 C136 1.285 . S
C134 H154 0.929 . S
C135 C132 1.461 . S
C135 C134 1.474 . S
C136 C131 1.342 . S
C136 C134 1.285 . S
C136 H155 0.930 . S
C137 C140 1.424 . S
C137 C142 1.245 . S
C137 C143 1.428 . S
C138 C141 1.260 . S
C138 C142 1.477 . S
C138 H156 0.932 . S
C139 C140 1.384 . S
C139 C141 1.479 . S
C139 H157 0.929 . S
C140 C137 1.424 . S
C140 C139 1.384 . S
C140 H158 0.928 . S
C141 C138 1.260 . S
C141 C139 1.479 . S
C142 C137 1.245 . S
C142 C138 1.477 . S
C142 H159 0.932 . S
C143 U126 2.882 . S
C143 C137 1.428 . S
C143 O146 1.301 . S
C143 O147 1.282 . S
O144 U126 2.441 . S
O144 C130 1.249 . S
O145 U126 2.420 . S
O145 C130 1.202 . S
O146 U126 2.455 . S
O146 C143 1.301 . S
O147 U126 2.449 . S
O147 C143 1.282 . S
H148 C121 0.931 . S
H149 C123 0.929 . S
H150 C124 0.930 . S
H151 C125 0.931 . S
H152 C132 0.932 . S
H153 C133 0.930 . S
H154 C134 0.929 . S
H155 C136 0.930 . S
H156 C138 0.932 . S
H157 C139 0.929 . S
H158 C140 0.928 . S
H159 C142 0.932 . S
C160 C161 1.264 . S
C160 C165 1.479 . S
C160 C170 1.465 . S
C161 C160 1.264 . S
C161 C163 1.339 . S
C161 H188 0.931 . S
C162 C163 1.395 . S
C162 C164 1.320 . S
C163 C161 1.339 . S
C163 C162 1.395 . S
C163 H189 0.929 . S
C164 C162 1.320 . S
C164 C165 1.405 . S
C164 H190 0.930 . S
C165 C160 1.479 . S
C165 C164 1.405 . S
C165 H191 0.931 . S
U166 O167 2.454 . S
U166 O168 2.458 . S
U166 C169 2.984 . S
U166 C170 2.847 . S
U166 C183 2.882 . S
U166 O184 2.441 . S
U166 O185 2.420 . S
U166 O186 2.455 . S
U166 O187 2.449 . S
O167 U166 2.454 . S
O167 C169 1.353 . S
O168 U166 2.458 . S
O168 C169 1.286 . S
C169 U166 2.984 . S
C169 O167 1.353 . S
C169 O168 1.286 . S
C169 C171 1.363 . S
C170 C160 1.465 . S
C170 U166 2.847 . S
C170 O184 1.249 . S
C170 O185 1.202 . S
C171 C169 1.363 . S
C171 C173 1.408 . S
C171 C176 1.342 . S
C172 C173 1.310 . S
C172 C175 1.461 . S
C172 H192 0.932 . S
C173 C171 1.408 . S
C173 C172 1.310 . S
C173 H193 0.930 . S
C174 C175 1.474 . S
C174 C176 1.285 . S
C174 H194 0.929 . S
C175 C172 1.461 . S
C175 C174 1.474 . S
C176 C171 1.342 . S
C176 C174 1.285 . S
C176 H195 0.930 . S
C177 C180 1.424 . S
C177 C182 1.245 . S
C177 C183 1.428 . S
C178 C181 1.260 . S
C178 C182 1.477 . S
C178 H196 0.932 . S
C179 C180 1.384 . S
C179 C181 1.479 . S
C179 H197 0.929 . S
C180 C177 1.424 . S
C180 C179 1.384 . S
C180 H198 0.928 . S
C181 C178 1.260 . S
C181 C179 1.479 . S
C182 C177 1.245 . S
C182 C178 1.477 . S
C182 H199 0.932 . S
C183 U166 2.882 . S
C183 C177 1.428 . S
C183 O186 1.301 . S
C183 O187 1.282 . S
O184 U166 2.441 . S
O184 C170 1.249 . S
O185 U166 2.420 . S
O185 C170 1.202 . S
O186 U166 2.455 . S
O186 C183 1.301 . S
O187 U166 2.449 . S
O187 C183 1.282 . S
H188 C161 0.931 . S
H189 C163 0.929 . S
H190 C164 0.930 . S
H191 C165 0.931 . S
H192 C172 0.932 . S
H193 C173 0.930 . S
H194 C174 0.929 . S
H195 C176 0.930 . S
H196 C178 0.932 . S
H197 C179 0.929 . S
H198 C180 0.928 . S
H199 C182 0.932 . S
C200 C201 1.264 . S
C200 C205 1.479 . S
C200 C210 1.465 . S
C201 C200 1.264 . S
C201 C203 1.339 . S
C201 H228 0.931 . S
C202 C203 1.395 . S
C202 C204 1.320 . S
C203 C201 1.339 . S
C203 C202 1.395 . S
C203 H229 0.929 . S
C204 C202 1.320 . S
C204 C205 1.405 . S
C204 H230 0.930 . S
C205 C200 1.479 . S
C205 C204 1.405 . S
C205 H231 0.931 . S
U206 O207 2.454 . S
U206 O208 2.458 . S
U206 C209 2.984 . S
U206 C210 2.847 . S
U206 C223 2.882 . S
U206 O224 2.441 . S
U206 O225 2.420 . S
U206 O226 2.455 . S
U206 O227 2.449 . S
O207 U206 2.454 . S
O207 C209 1.353 . S
O208 U206 2.458 . S
O208 C209 1.286 . S
C209 U206 2.984 . S
C209 O207 1.353 . S
C209 O208 1.286 . S
C209 C211 1.363 . S
C210 C200 1.465 . S
C210 U206 2.847 . S
C210 O224 1.249 . S
C210 O225 1.202 . S
C211 C209 1.363 . S
C211 C213 1.408 . S
C211 C216 1.342 . S
C212 C213 1.310 . S
C212 C215 1.461 . S
C212 H232 0.932 . S
C213 C211 1.408 . S
C213 C212 1.310 . S
C213 H233 0.930 . S
C214 C215 1.474 . S
C214 C216 1.285 . S
C214 H234 0.929 . S
C215 C212 1.461 . S
C215 C214 1.474 . S
C216 C211 1.342 . S
C216 C214 1.285 . S
C216 H235 0.930 . S
C217 C220 1.424 . S
C217 C222 1.245 . S
C217 C223 1.428 . S
C218 C221 1.260 . S
C218 C222 1.477 . S
C218 H236 0.932 . S
C219 C220 1.384 . S
C219 C221 1.479 . S
C219 H237 0.929 . S
C220 C217 1.424 . S
C220 C219 1.384 . S
C220 H238 0.928 . S
C221 C218 1.260 . S
C221 C219 1.479 . S
C222 C217 1.245 . S
C222 C218 1.477 . S
C222 H239 0.932 . S
C223 U206 2.882 . S
C223 C217 1.428 . S
C223 O226 1.301 . S
C223 O227 1.282 . S
O224 U206 2.441 . S
O224 C210 1.249 . S
O225 U206 2.420 . S
O225 C210 1.202 . S
O226 U206 2.455 . S
O226 C223 1.301 . S
O227 U206 2.449 . S
O227 C223 1.282 . S
H228 C201 0.931 . S
H229 C203 0.929 . S
H230 C204 0.930 . S
H231 C205 0.931 . S
H232 C212 0.932 . S
H233 C213 0.930 . S
H234 C214 0.929 . S
H235 C216 0.930 . S
H236 C218 0.932 . S
H237 C219 0.929 . S
H238 C220 0.928 . S
H239 C222 0.932 . S
C240 C241 1.264 . S
C240 C245 1.479 . S
C240 C250 1.465 . S
C241 C240 1.264 . S
C241 C243 1.339 . S
C241 H268 0.931 . S
C242 C243 1.395 . S
C242 C244 1.320 . S
C243 C241 1.339 . S
C243 C242 1.395 . S
C243 H269 0.929 . S
C244 C242 1.320 . S
C244 C245 1.405 . S
C244 H270 0.930 . S
C245 C240 1.479 . S
C245 C244 1.405 . S
C245 H271 0.931 . S
U246 O247 2.454 . S
U246 O248 2.458 . S
U246 C249 2.984 . S
U246 C250 2.847 . S
U246 C263 2.882 . S
U246 O264 2.441 . S
U246 O265 2.420 . S
U246 O266 2.455 . S
U246 O267 2.449 . S
O247 U246 2.454 . S
O247 C249 1.353 . S
O248 U246 2.458 . S
O248 C249 1.286 . S
C249 U246 2.984 . S
C249 O247 1.353 . S
C249 O248 1.286 . S
C249 C251 1.363 . S
C250 C240 1.465 . S
C250 U246 2.847 . S
C250 O264 1.249 . S
C250 O265 1.202 . S
C251 C249 1.363 . S
C251 C253 1.408 . S
C251 C256 1.342 . S
C252 C253 1.310 . S
C252 C255 1.461 . S
C252 H272 0.932 . S
C253 C251 1.408 . S
C253 C252 1.310 . S
C253 H273 0.930 . S
C254 C255 1.474 . S
C254 C256 1.285 . S
C254 H274 0.929 . S
C255 C252 1.461 . S
C255 C254 1.474 . S
C256 C251 1.342 . S
C256 C254 1.285 . S
C256 H275 0.930 . S
C257 C260 1.424 . S
C257 C262 1.245 . S
C257 C263 1.428 . S
C258 C261 1.260 . S
C258 C262 1.477 . S
C258 H276 0.932 . S
C259 C260 1.384 . S
C259 C261 1.479 . S
C259 H277 0.929 . S
C260 C257 1.424 . S
C260 C259 1.384 . S
C260 H278 0.928 . S
C261 C258 1.260 . S
C261 C259 1.479 . S
C262 C257 1.245 . S
C262 C258 1.477 . S
C262 H279 0.932 . S
C263 U246 2.882 . S
C263 C257 1.428 . S
C263 O266 1.301 . S
C263 O267 1.282 . S
O264 U246 2.441 . S
O264 C250 1.249 . S
O265 U246 2.420 . S
O265 C250 1.202 . S
O266 U246 2.455 . S
O266 C263 1.301 . S
O267 U246 2.449 . S
O267 C263 1.282 . S
H268 C241 0.931 . S
H269 C243 0.929 . S
H270 C244 0.930 . S
H271 C245 0.931 . S
H272 C252 0.932 . S
H273 C253 0.930 . S
H274 C254 0.929 . S
H275 C256 0.930 . S
H276 C258 0.932 . S
H277 C259 0.929 . S
H278 C260 0.928 . S
H279 C262 0.932 . S
C280 C281 1.264 . S
C280 C285 1.479 . S
C280 C290 1.465 . S
C281 C280 1.264 . S
C281 C283 1.339 . S
C281 H308 0.931 . S
C282 C283 1.395 . S
C282 C284 1.320 . S
C283 C281 1.339 . S
C283 C282 1.395 . S
C283 H309 0.929 . S
C284 C282 1.320 . S
C284 C285 1.405 . S
C284 H310 0.930 . S
C285 C280 1.479 . S
C285 C284 1.405 . S
C285 H311 0.931 . S
U286 O287 2.454 . S
U286 O288 2.458 . S
U286 C289 2.984 . S
U286 C290 2.847 . S
U286 C303 2.882 . S
U286 O304 2.441 . S
U286 O305 2.420 . S
U286 O306 2.455 . S
U286 O307 2.449 . S
O287 U286 2.454 . S
O287 C289 1.353 . S
O288 U286 2.458 . S
O288 C289 1.286 . S
C289 U286 2.984 . S
C289 O287 1.353 . S
C289 O288 1.286 . S
C289 C291 1.363 . S
C290 C280 1.465 . S
C290 U286 2.847 . S
C290 O304 1.249 . S
C290 O305 1.202 . S
C291 C289 1.363 . S
C291 C293 1.408 . S
C291 C296 1.342 . S
C292 C293 1.310 . S
C292 C295 1.461 . S
C292 H312 0.932 . S
C293 C291 1.408 . S
C293 C292 1.310 . S
C293 H313 0.930 . S
C294 C295 1.474 . S
C294 C296 1.285 . S
C294 H314 0.929 . S
C295 C292 1.461 . S
C295 C294 1.474 . S
C296 C291 1.342 . S
C296 C294 1.285 . S
C296 H315 0.930 . S
C297 C300 1.424 . S
C297 C302 1.245 . S
C297 C303 1.428 . S
C298 C301 1.260 . S
C298 C302 1.477 . S
C298 H316 0.932 . S
C299 C300 1.384 . S
C299 C301 1.479 . S
C299 H317 0.929 . S
C300 C297 1.424 . S
C300 C299 1.384 . S
C300 H318 0.928 . S
C301 C298 1.260 . S
C301 C299 1.479 . S
C302 C297 1.245 . S
C302 C298 1.477 . S
C302 H319 0.932 . S
C303 U286 2.882 . S
C303 C297 1.428 . S
C303 O306 1.301 . S
C303 O307 1.282 . S
O304 U286 2.441 . S
O304 C290 1.249 . S
O305 U286 2.420 . S
O305 C290 1.202 . S
O306 U286 2.455 . S
O306 C303 1.301 . S
O307 U286 2.449 . S
O307 C303 1.282 . S
H308 C281 0.931 . S
H309 C283 0.929 . S
H310 C284 0.930 . S
H311 C285 0.931 . S
H312 C292 0.932 . S
H313 C293 0.930 . S
H314 C294 0.929 . S
H315 C296 0.930 . S
H316 C298 0.932 . S
H317 C299 0.929 . S
H318 C300 0.928 . S
H319 C302 0.932 . S
Zn320 O326 1.969 1_545 S
Zn320 O327 1.965 1_545 S
Zn320 O331 2.024 . S
Zn320 O336 1.969 . S
Zn321 O328 1.969 . S
Zn321 O334 1.969 1_565 S
Zn321 O335 1.965 1_665 S
Zn321 O337 2.024 . S
C322 O323 1.229 . S
C322 O331 1.058 . S
O323 C322 1.229 . S
C324 O325 1.229 . S
C324 O337 1.058 . S
O325 C324 1.229 . S
O326 Zn320 1.969 1_565 S
O326 C329 1.267 . S
O327 Zn320 1.965 1_565 S
O327 C338 1.260 1_455 S
O328 Zn321 1.969 . S
O328 C338 1.258 . S
C329 O326 1.267 . S
C329 O330 1.228 . S
O330 C329 1.228 . S
O331 Zn320 2.024 . S
O331 C322 1.058 . S
C332 O333 1.228 . S
C332 O334 1.267 . S
O333 C332 1.228 . S
O334 Zn321 1.969 1_545 S
O334 C332 1.267 . S
O335 Zn321 1.965 1_445 S
O335 C339 1.260 . S
O336 Zn320 1.969 . S
O336 C339 1.258 . S
O337 Zn321 2.024 . S
O337 C324 1.058 . S
C338 O327 1.260 1_655 S
C338 O328 1.258 . S
C339 O335 1.260 . S
C339 O336 1.258 . S
Zn340 O346 1.969 . S
Zn340 O347 1.965 1_565 S
Zn340 O351 2.024 . S
Zn340 O356 1.969 1_556 S
Zn341 O348 1.969 . S
Zn341 O354 1.969 . S
Zn341 O355 1.965 1_545 S
Zn341 O357 2.024 . S
C342 O343 1.229 . S
C342 O351 1.058 . S
O343 C342 1.229 . S
C344 O345 1.229 . S
C344 O357 1.058 . S
O345 C344 1.229 . S
O346 Zn340 1.969 . S
O346 C349 1.267 . S
O347 Zn340 1.965 1_545 S
O347 C358 1.260 . S
O348 Zn341 1.969 . S
O348 C358 1.258 1_554 S
C349 O346 1.267 . S
C349 O350 1.228 . S
O350 C349 1.228 . S
O351 Zn340 2.024 . S
O351 C342 1.058 . S
C352 O353 1.228 . S
C352 O354 1.267 . S
O353 C352 1.228 . S
O354 Zn341 1.969 . S
O354 C352 1.267 . S
O355 Zn341 1.965 1_565 S
O355 C359 1.260 . S
O356 Zn340 1.969 1_554 S
O356 C359 1.258 . S
O357 Zn341 2.024 . S
O357 C344 1.058 . S
C358 O347 1.260 . S
C358 O348 1.258 1_556 S
C359 O355 1.260 . S
C359 O356 1.258 . S
Zn360 O366 1.969 . S
Zn360 O367 1.965 . S
Zn360 O371 2.024 . S
Zn360 O376 1.969 . S
Zn361 O368 1.969 . S
Zn361 O374 1.969 . S
Zn361 O375 1.965 . S
Zn361 O377 2.024 . S
C362 O363 1.229 . S
C362 O371 1.058 . S
O363 C362 1.229 . S
C364 O365 1.229 . S
C364 O377 1.058 . S
O365 C364 1.229 . S
O366 Zn360 1.969 . S
O366 C369 1.267 . S
O367 Zn360 1.965 . S
O367 C378 1.260 . S
O368 Zn361 1.969 . S
O368 C378 1.258 . S
C369 O366 1.267 . S
C369 O370 1.228 . S
O370 C369 1.228 . S
O371 Zn360 2.024 . S
O371 C362 1.058 . S
C372 O373 1.228 . S
C372 O374 1.267 . S
O373 C372 1.228 . S
O374 Zn361 1.969 . S
O374 C372 1.267 . S
O375 Zn361 1.965 . S
O375 C379 1.260 . S
O376 Zn360 1.969 . S
O376 C379 1.258 . S
O377 Zn361 2.024 . S
O377 C364 1.058 . S
C378 O367 1.260 . S
C378 O368 1.258 . S
C379 O375 1.260 . S
C379 O376 1.258 . S
Zn380 O386 1.969 . S
Zn380 O387 1.965 1_556 S
Zn380 O391 2.024 . S
Zn380 O396 1.969 1_655 S
Zn381 O388 1.969 . S
Zn381 O394 1.969 . S
Zn381 O395 1.965 1_554 S
Zn381 O397 2.024 . S
C382 O383 1.229 . S
C382 O391 1.058 . S
O383 C382 1.229 . S
C384 O385 1.229 . S
C384 O397 1.058 . S
O385 C384 1.229 . S
O386 Zn380 1.969 . S
O386 C389 1.267 . S
O387 Zn380 1.965 1_554 S
O387 C398 1.260 . S
O388 Zn381 1.969 . S
O388 C398 1.258 1_455 S
C389 O386 1.267 . S
C389 O390 1.228 . S
O390 C389 1.228 . S
O391 Zn380 2.024 . S
O391 C382 1.058 . S
C392 O393 1.228 . S
C392 O394 1.267 . S
O393 C392 1.228 . S
O394 Zn381 1.969 . S
O394 C392 1.267 . S
O395 Zn381 1.965 1_556 S
O395 C399 1.260 . S
O396 Zn380 1.969 1_455 S
O396 C399 1.258 . S
O397 Zn381 2.024 . S
O397 C384 1.058 . S
C398 O387 1.260 . S
C398 O388 1.258 1_655 S
C399 O395 1.260 . S
C399 O396 1.258 . S
H400 C412 0.930 . S
H401 C414 0.930 . S
H402 C415 0.930 . S
H403 C419 0.959 . S
H404 C419 0.959 . S
H405 C419 0.961 . S
H406 C420 0.960 . S
H407 C420 0.961 . S
H408 C420 0.959 . S
H409 C423 0.929 . S
H410 C424 0.931 . S
H411 C426 0.930 . S
C412 H400 0.930 . S
C412 C413 1.399 . S
C412 C417 1.399 . S
C413 C412 1.399 . S
C413 C414 1.376 . S
C414 H401 0.930 . S
C414 C413 1.376 . S
C414 C415 1.388 . S
C415 H402 0.930 . S
C415 C414 1.388 . S
C415 C416 1.390 . S
C416 C415 1.390 . S
C416 C417 1.394 . S
C416 C422 1.465 . S
C417 C412 1.399 . S
C417 C416 1.394 . S
C417 C418 1.516 . S
C418 C417 1.516 . S
C418 C419 1.502 . S
C418 C420 1.561 . S
C418 C421 1.526 . S
C419 H403 0.959 . S
C419 H404 0.959 . S
C419 H405 0.961 . S
C419 C418 1.502 . S
C420 H406 0.960 . S
C420 H407 0.961 . S
C420 H408 0.959 . S
C420 C418 1.561 . S
C421 C418 1.526 . S
C421 C422 1.396 . S
C421 C426 1.390 . S
C422 C416 1.465 . S
C422 C421 1.396 . S
C422 C423 1.399 . S
C423 H409 0.929 . S
C423 C422 1.399 . S
C423 C424 1.385 . S
C424 H410 0.931 . S
C424 C423 1.385 . S
C424 C425 1.389 . S
C425 C424 1.389 . S
C425 C426 1.387 . S
C426 H411 0.930 . S
C426 C421 1.390 . S
C426 C425 1.387 . S
H427 C439 0.930 . S
H428 C441 0.930 . S
H429 C442 0.930 . S
H430 C446 0.959 . S
H431 C446 0.959 1_545 S
H432 C446 0.961 . S
H433 C447 0.960 . S
H434 C447 0.961 . S
H435 C447 0.959 . S
H436 C450 0.929 . S
H437 C451 0.931 . S
H438 C453 0.930 . S
C439 H427 0.930 . S
C439 C440 1.399 . S
C439 C444 1.399 . S
C440 C439 1.399 . S
C440 C441 1.376 . S
C441 H428 0.930 . S
C441 C440 1.376 . S
C441 C442 1.388 . S
C442 H429 0.930 . S
C442 C441 1.388 . S
C442 C443 1.390 . S
C443 C442 1.390 . S
C443 C444 1.394 . S
C443 C449 1.465 . S
C444 C439 1.399 . S
C444 C443 1.394 . S
C444 C445 1.516 . S
C445 C444 1.516 . S
C445 C446 1.502 . S
C445 C447 1.561 . S
C445 C448 1.526 . S
C446 H430 0.959 . S
C446 H431 0.959 1_565 S
C446 H432 0.961 . S
C446 C445 1.502 . S
C447 H433 0.960 . S
C447 H434 0.961 . S
C447 H435 0.959 . S
C447 C445 1.561 . S
C448 C445 1.526 . S
C448 C449 1.396 . S
C448 C453 1.390 . S
C449 C443 1.465 . S
C449 C448 1.396 . S
C449 C450 1.399 . S
C450 H436 0.929 . S
C450 C449 1.399 . S
C450 C451 1.385 . S
C451 H437 0.931 . S
C451 C450 1.385 . S
C451 C452 1.389 . S
C452 C451 1.389 . S
C452 C453 1.387 . S
C453 H438 0.930 . S
C453 C448 1.390 . S
C453 C452 1.387 . S
H454 C466 0.930 . S
H455 C468 0.930 . S
H456 C469 0.930 . S
H457 C473 0.959 . S
H458 C473 0.959 . S
H459 C473 0.961 . S
H460 C474 0.960 . S
H461 C474 0.961 . S
H462 C474 0.959 . S
H463 C477 0.929 . S
H464 C478 0.931 . S
H465 C480 0.930 . S
C466 H454 0.930 . S
C466 C467 1.399 . S
C466 C471 1.399 . S
C467 C466 1.399 . S
C467 C468 1.376 . S
C468 H455 0.930 . S
C468 C467 1.376 . S
C468 C469 1.388 . S
C469 H456 0.930 . S
C469 C468 1.388 . S
C469 C470 1.390 . S
C470 C469 1.390 . S
C470 C471 1.394 . S
C470 C476 1.465 . S
C471 C466 1.399 . S
C471 C470 1.394 . S
C471 C472 1.516 . S
C472 C471 1.516 . S
C472 C473 1.502 . S
C472 C474 1.561 . S
C472 C475 1.526 . S
C473 H457 0.959 . S
C473 H458 0.959 . S
C473 H459 0.961 . S
C473 C472 1.502 . S
C474 H460 0.960 . S
C474 H461 0.961 . S
C474 H462 0.959 . S
C474 C472 1.561 . S
C475 C472 1.526 . S
C475 C476 1.396 . S
C475 C480 1.390 . S
C476 C470 1.465 . S
C476 C475 1.396 . S
C476 C477 1.399 . S
C477 H463 0.929 . S
C477 C476 1.399 . S
C477 C478 1.385 . S
C478 H464 0.931 . S
C478 C477 1.385 . S
C478 C479 1.389 . S
C479 C478 1.389 . S
C479 C480 1.387 . S
C480 H465 0.930 . S
C480 C475 1.390 . S
C480 C479 1.387 . S
H481 C493 0.930 . S
H482 C495 0.930 . S
H483 C496 0.930 . S
H484 C500 0.959 . S
H485 C500 0.959 . S
H486 C500 0.961 . S
H487 C501 0.960 . S
H488 C501 0.961 . S
H489 C501 0.959 . S
H490 C504 0.929 . S
H491 C505 0.931 . S
H492 C507 0.930 . S
C493 H481 0.930 . S
C493 C494 1.399 . S
C493 C498 1.399 . S
C494 C493 1.399 . S
C494 C495 1.376 . S
C495 H482 0.930 . S
C495 C494 1.376 . S
C495 C496 1.388 . S
C496 H483 0.930 . S
C496 C495 1.388 . S
C496 C497 1.390 . S
C497 C496 1.390 . S
C497 C498 1.394 . S
C497 C503 1.465 . S
C498 C493 1.399 . S
C498 C497 1.394 . S
C498 C499 1.516 . S
C499 C498 1.516 . S
C499 C500 1.502 . S
C499 C501 1.561 . S
C499 C502 1.526 . S
C500 H484 0.959 . S
C500 H485 0.959 . S
C500 H486 0.961 . S
C500 C499 1.502 . S
C501 H487 0.960 . S
C501 H488 0.961 . S
C501 H489 0.959 . S
C501 C499 1.561 . S
C502 C499 1.526 . S
C502 C503 1.396 . S
C502 C507 1.390 . S
C503 C497 1.465 . S
C503 C502 1.396 . S
C503 C504 1.399 . S
C504 H490 0.929 . S
C504 C503 1.399 . S
C504 C505 1.385 . S
C505 H491 0.931 . S
C505 C504 1.385 . S
C505 C506 1.389 . S
C506 C505 1.389 . S
C506 C507 1.387 . S
C507 H492 0.930 . S
C507 C502 1.390 . S
C507 C506 1.387 . S
H508 C520 0.930 . S
H509 C522 0.930 . S
H510 C523 0.930 . S
H511 C527 0.959 . S
H512 C527 0.959 . S
H513 C527 0.961 . S
H514 C528 0.960 . S
H515 C528 0.961 . S
H516 C528 0.959 . S
H517 C531 0.929 . S
H518 C532 0.931 . S
H519 C534 0.930 . S
C520 H508 0.930 . S
C520 C521 1.399 . S
C520 C525 1.399 . S
C521 C520 1.399 . S
C521 C522 1.376 . S
C522 H509 0.930 . S
C522 C521 1.376 . S
C522 C523 1.388 . S
C523 H510 0.930 . S
C523 C522 1.388 . S
C523 C524 1.390 . S
C524 C523 1.390 . S
C524 C525 1.394 . S
C524 C530 1.465 . S
C525 C520 1.399 . S
C525 C524 1.394 . S
C525 C526 1.516 . S
C526 C525 1.516 . S
C526 C527 1.502 . S
C526 C528 1.561 . S
C526 C529 1.526 . S
C527 H511 0.959 . S
C527 H512 0.959 . S
C527 H513 0.961 . S
C527 C526 1.502 . S
C528 H514 0.960 . S
C528 H515 0.961 . S
C528 H516 0.959 . S
C528 C526 1.561 . S
C529 C526 1.526 . S
C529 C530 1.396 . S
C529 C534 1.390 . S
C530 C524 1.465 . S
C530 C529 1.396 . S
C530 C531 1.399 . S
C531 H517 0.929 . S
C531 C530 1.399 . S
C531 C532 1.385 . S
C532 H518 0.931 . S
C532 C531 1.385 . S
C532 C533 1.389 . S
C533 C532 1.389 . S
C533 C534 1.387 . S
C534 H519 0.930 . S
C534 C529 1.390 . S
C534 C533 1.387 . S
H535 C547 0.930 . S
H536 C549 0.930 . S
H537 C550 0.930 . S
H538 C554 0.959 . S
H539 C554 0.959 . S
H540 C554 0.961 . S
H541 C555 0.960 . S
H542 C555 0.961 . S
H543 C555 0.959 . S
H544 C558 0.929 . S
H545 C559 0.931 . S
H546 C561 0.930 . S
C547 H535 0.930 . S
C547 C548 1.399 . S
C547 C552 1.399 . S
C548 C547 1.399 . S
C548 C549 1.376 . S
C549 H536 0.930 . S
C549 C548 1.376 . S
C549 C550 1.388 . S
C550 H537 0.930 . S
C550 C549 1.388 . S
C550 C551 1.390 . S
C551 C550 1.390 . S
C551 C552 1.394 . S
C551 C557 1.465 . S
C552 C547 1.399 . S
C552 C551 1.394 . S
C552 C553 1.516 . S
C553 C552 1.516 . S
C553 C554 1.502 . S
C553 C555 1.561 . S
C553 C556 1.526 . S
C554 H538 0.959 . S
C554 H539 0.959 . S
C554 H540 0.961 . S
C554 C553 1.502 . S
C555 H541 0.960 . S
C555 H542 0.961 . S
C555 H543 0.959 . S
C555 C553 1.561 . S
C556 C553 1.526 . S
C556 C557 1.396 . S
C556 C561 1.390 . S
C557 C551 1.465 . S
C557 C556 1.396 . S
C557 C558 1.399 . S
C558 H544 0.929 . S
C558 C557 1.399 . S
C558 C559 1.385 . S
C559 H545 0.931 . S
C559 C558 1.385 . S
C559 C560 1.389 . S
C560 C559 1.389 . S
C560 C561 1.387 . S
C561 H546 0.930 . S
C561 C556 1.390 . S
C561 C560 1.387 . S
H562 C574 0.930 . S
H563 C576 0.930 . S
H564 C577 0.930 . S
H565 C581 0.959 . S
H566 C581 0.959 . S
H567 C581 0.961 . S
H568 C582 0.960 . S
H569 C582 0.961 . S
H570 C582 0.959 . S
H571 C585 0.929 . S
H572 C586 0.931 . S
H573 C588 0.930 . S
C574 H562 0.930 . S
C574 C575 1.399 . S
C574 C579 1.399 . S
C575 C574 1.399 . S
C575 C576 1.376 . S
C576 H563 0.930 . S
C576 C575 1.376 . S
C576 C577 1.388 . S
C577 H564 0.930 . S
C577 C576 1.388 . S
C577 C578 1.390 . S
C578 C577 1.390 . S
C578 C579 1.394 . S
C578 C584 1.465 . S
C579 C574 1.399 . S
C579 C578 1.394 . S
C579 C580 1.516 . S
C580 C579 1.516 . S
C580 C581 1.502 . S
C580 C582 1.561 . S
C580 C583 1.526 . S
C581 H565 0.959 . S
C581 H566 0.959 . S
C581 H567 0.961 . S
C581 C580 1.502 . S
C582 H568 0.960 . S
C582 H569 0.961 . S
C582 H570 0.959 . S
C582 C580 1.561 . S
C583 C580 1.526 . S
C583 C584 1.396 . S
C583 C588 1.390 . S
C584 C578 1.465 . S
C584 C583 1.396 . S
C584 C585 1.399 . S
C585 H571 0.929 . S
C585 C584 1.399 . S
C585 C586 1.385 . S
C586 H572 0.931 . S
C586 C585 1.385 . S
C586 C587 1.389 . S
C587 C586 1.389 . S
C587 C588 1.387 . S
C588 H573 0.930 . S
C588 C583 1.390 . S
C588 C587 1.387 . S
H589 C601 0.930 . S
H590 C603 0.930 . S
H591 C604 0.930 . S
H592 C608 0.959 . S
H593 C608 0.959 . S
H594 C608 0.961 . S
H595 C609 0.960 . S
H596 C609 0.961 . S
H597 C609 0.959 . S
H598 C612 0.929 . S
H599 C613 0.931 . S
H600 C615 0.930 . S
C601 H589 0.930 . S
C601 C602 1.399 . S
C601 C606 1.399 . S
C602 C601 1.399 . S
C602 C603 1.376 . S
C603 H590 0.930 . S
C603 C602 1.376 . S
C603 C604 1.388 . S
C604 H591 0.930 . S
C604 C603 1.388 . S
C604 C605 1.390 . S
C605 C604 1.390 . S
C605 C606 1.394 . S
C605 C611 1.465 . S
C606 C601 1.399 . S
C606 C605 1.394 . S
C606 C607 1.516 . S
C607 C606 1.516 . S
C607 C608 1.502 . S
C607 C609 1.561 . S
C607 C610 1.526 . S
C608 H592 0.959 . S
C608 H593 0.959 . S
C608 H594 0.961 . S
C608 C607 1.502 . S
C609 H595 0.960 . S
C609 H596 0.961 . S
C609 H597 0.959 . S
C609 C607 1.561 . S
C610 C607 1.526 . S
C610 C611 1.396 . S
C610 C615 1.390 . S
C611 C605 1.465 . S
C611 C610 1.396 . S
C611 C612 1.399 . S
C612 H598 0.929 . S
C612 C611 1.399 . S
C612 C613 1.385 . S
C613 H599 0.931 . S
C613 C612 1.385 . S
C613 C614 1.389 . S
C614 C613 1.389 . S
C614 C615 1.387 . S
C615 H600 0.930 . S
C615 C610 1.390 . S
C615 C614 1.387 . S
H616 C628 0.930 . S
H617 C630 0.930 . S
H618 C631 0.930 . S
H619 C635 0.959 . S
H620 C635 0.959 . S
H621 C635 0.961 . S
H622 C636 0.960 . S
H623 C636 0.961 . S
H624 C636 0.959 . S
H625 C639 0.929 . S
H626 C640 0.931 . S
H627 C642 0.930 . S
C628 H616 0.930 . S
C628 C629 1.399 . S
C628 C633 1.399 . S
C629 C628 1.399 . S
C629 C630 1.376 . S
C630 H617 0.930 . S
C630 C629 1.376 . S
C630 C631 1.388 . S
C631 H618 0.930 . S
C631 C630 1.388 . S
C631 C632 1.390 . S
C632 C631 1.390 . S
C632 C633 1.394 . S
C632 C638 1.465 . S
C633 C628 1.399 . S
C633 C632 1.394 . S
C633 C634 1.516 . S
C634 C633 1.516 . S
C634 C635 1.502 . S
C634 C636 1.561 . S
C634 C637 1.526 . S
C635 H619 0.959 . S
C635 H620 0.959 . S
C635 H621 0.961 . S
C635 C634 1.502 . S
C636 H622 0.960 . S
C636 H623 0.961 . S
C636 H624 0.959 . S
C636 C634 1.561 . S
C637 C634 1.526 . S
C637 C638 1.396 . S
C637 C642 1.390 . S
C638 C632 1.465 . S
C638 C637 1.396 . S
C638 C639 1.399 . S
C639 H625 0.929 . S
C639 C638 1.399 . S
C639 C640 1.385 . S
C640 H626 0.931 . S
C640 C639 1.385 . S
C640 C641 1.389 . S
C641 C640 1.389 . S
C641 C642 1.387 . S
C642 H627 0.930 . S
C642 C637 1.390 . S
C642 C641 1.387 . S
H643 C655 0.930 . S
H644 C657 0.930 . S
H645 C658 0.930 . S
H646 C662 0.959 . S
H647 C662 0.959 . S
H648 C662 0.961 . S
H649 C663 0.960 . S
H650 C663 0.961 . S
H651 C663 0.959 . S
H652 C666 0.929 . S
H653 C667 0.931 . S
H654 C669 0.930 . S
C655 H643 0.930 . S
C655 C656 1.399 . S
C655 C660 1.399 . S
C656 C655 1.399 . S
C656 C657 1.376 . S
C657 H644 0.930 . S
C657 C656 1.376 . S
C657 C658 1.388 . S
C658 H645 0.930 . S
C658 C657 1.388 . S
C658 C659 1.390 . S
C659 C658 1.390 . S
C659 C660 1.394 . S
C659 C665 1.465 . S
C660 C655 1.399 . S
C660 C659 1.394 . S
C660 C661 1.516 . S
C661 C660 1.516 . S
C661 C662 1.502 . S
C661 C663 1.561 . S
C661 C664 1.526 . S
C662 H646 0.959 . S
C662 H647 0.959 . S
C662 H648 0.961 . S
C662 C661 1.502 . S
C663 H649 0.960 . S
C663 H650 0.961 . S
C663 H651 0.959 . S
C663 C661 1.561 . S
C664 C661 1.526 . S
C664 C665 1.396 . S
C664 C669 1.390 . S
C665 C659 1.465 . S
C665 C664 1.396 . S
C665 C666 1.399 . S
C666 H652 0.929 . S
C666 C665 1.399 . S
C666 C667 1.385 . S
C667 H653 0.931 . S
C667 C666 1.385 . S
C667 C668 1.389 . S
C668 C667 1.389 . S
C668 C669 1.387 . S
C669 H654 0.930 . S
C669 C664 1.390 . S
C669 C668 1.387 . S
H670 C682 0.930 . S
H671 C684 0.930 . S
H672 C685 0.930 . S
H673 C689 0.959 . S
H674 C689 0.959 . S
H675 C689 0.961 . S
H676 C690 0.960 . S
H677 C690 0.961 . S
H678 C690 0.959 . S
H679 C693 0.929 . S
H680 C694 0.931 . S
H681 C696 0.930 . S
C682 H670 0.930 . S
C682 C683 1.399 . S
C682 C687 1.399 . S
C683 C682 1.399 . S
C683 C684 1.376 . S
C684 H671 0.930 . S
C684 C683 1.376 . S
C684 C685 1.388 . S
C685 H672 0.930 . S
C685 C684 1.388 . S
C685 C686 1.390 . S
C686 C685 1.390 . S
C686 C687 1.394 . S
C686 C692 1.465 . S
C687 C682 1.399 . S
C687 C686 1.394 . S
C687 C688 1.516 . S
C688 C687 1.516 . S
C688 C689 1.502 . S
C688 C690 1.561 . S
C688 C691 1.526 . S
C689 H673 0.959 . S
C689 H674 0.959 . S
C689 H675 0.961 . S
C689 C688 1.502 . S
C690 H676 0.960 . S
C690 H677 0.961 . S
C690 H678 0.959 . S
C690 C688 1.561 . S
C691 C688 1.526 . S
C691 C692 1.396 . S
C691 C696 1.390 . S
C692 C686 1.465 . S
C692 C691 1.396 . S
C692 C693 1.399 . S
C693 H679 0.929 . S
C693 C692 1.399 . S
C693 C694 1.385 . S
C694 H680 0.931 . S
C694 C693 1.385 . S
C694 C695 1.389 . S
C695 C694 1.389 . S
C695 C696 1.387 . S
C696 H681 0.930 . S
C696 C691 1.390 . S
C696 C695 1.387 . S
H697 C709 0.930 . S
H698 C711 0.930 . S
H699 C712 0.930 . S
H700 C716 0.959 . S
H701 C716 0.959 . S
H702 C716 0.961 . S
H703 C717 0.960 . S
H704 C717 0.961 . S
H705 C717 0.959 . S
H706 C720 0.929 . S
H707 C721 0.931 . S
H708 C723 0.930 . S
C709 H697 0.930 . S
C709 C710 1.399 . S
C709 C714 1.399 . S
C710 C709 1.399 . S
C710 C711 1.376 . S
C711 H698 0.930 . S
C711 C710 1.376 . S
C711 C712 1.388 . S
C712 H699 0.930 . S
C712 C711 1.388 . S
C712 C713 1.390 . S
C713 C712 1.390 . S
C713 C714 1.394 . S
C713 C719 1.465 . S
C714 C709 1.399 . S
C714 C713 1.394 . S
C714 C715 1.516 . S
C715 C714 1.516 . S
C715 C716 1.502 . S
C715 C717 1.561 . S
C715 C718 1.526 . S
C716 H700 0.959 . S
C716 H701 0.959 . S
C716 H702 0.961 . S
C716 C715 1.502 . S
C717 H703 0.960 . S
C717 H704 0.961 . S
C717 H705 0.959 . S
C717 C715 1.561 . S
C718 C715 1.526 . S
C718 C719 1.396 . S
C718 C723 1.390 . S
C719 C713 1.465 . S
C719 C718 1.396 . S
C719 C720 1.399 . S
C720 H706 0.929 . S
C720 C719 1.399 . S
C720 C721 1.385 . S
C721 H707 0.931 . S
C721 C720 1.385 . S
C721 C722 1.389 . S
C722 C721 1.389 . S
C722 C723 1.387 . S
C723 H708 0.930 . S
C723 C718 1.390 . S
C723 C722 1.387 . S
H724 C736 0.930 . S
H725 C738 0.930 . S
H726 C739 0.930 . S
H727 C743 0.959 . S
H728 C743 0.959 . S
H729 C743 0.961 . S
H730 C744 0.960 . S
H731 C744 0.961 . S
H732 C744 0.959 . S
H733 C747 0.929 . S
H734 C748 0.928 1_455 S
H735 C750 0.930 . S
C736 H724 0.930 . S
C736 C737 1.399 . S
C736 C741 1.399 . S
C737 C736 1.399 . S
C737 C738 1.376 . S
C738 H725 0.930 . S
C738 C737 1.376 . S
C738 C739 1.388 . S
C739 H726 0.930 . S
C739 C738 1.388 . S
C739 C740 1.390 . S
C740 C739 1.390 . S
C740 C741 1.394 . S
C740 C746 1.465 . S
C741 C736 1.399 . S
C741 C740 1.394 . S
C741 C742 1.516 . S
C742 C741 1.516 . S
C742 C743 1.502 . S
C742 C744 1.561 . S
C742 C745 1.526 . S
C743 H727 0.959 . S
C743 H728 0.959 . S
C743 H729 0.961 . S
C743 C742 1.502 . S
C744 H730 0.960 . S
C744 H731 0.961 . S
C744 H732 0.959 . S
C744 C742 1.561 . S
C745 C742 1.526 . S
C745 C746 1.396 . S
C745 C750 1.390 . S
C746 C740 1.465 . S
C746 C745 1.396 . S
C746 C747 1.399 . S
C747 H733 0.929 . S
C747 C746 1.399 . S
C747 C748 1.385 . S
C748 H734 0.928 1_655 S
C748 C747 1.385 . S
C748 C749 1.389 . S
C749 C748 1.389 . S
C749 C750 1.387 . S
C750 H735 0.930 . S
C750 C745 1.390 . S
C750 C749 1.387 . S
H751 C763 0.930 . S
H752 C765 0.930 . S
H753 C766 0.930 . S
H754 C770 0.959 . S
H755 C770 0.959 . S
H756 C770 0.961 . S
H757 C771 0.960 . S
H758 C771 0.961 . S
H759 C771 0.959 . S
H760 C774 0.929 . S
H761 C775 0.931 . S
H762 C777 0.930 . S
C763 H751 0.930 . S
C763 C764 1.399 . S
C763 C768 1.399 . S
C764 C763 1.399 . S
C764 C765 1.376 . S
C765 H752 0.930 . S
C765 C764 1.376 . S
C765 C766 1.388 . S
C766 H753 0.930 . S
C766 C765 1.388 . S
C766 C767 1.390 . S
C767 C766 1.390 . S
C767 C768 1.394 . S
C767 C773 1.465 . S
C768 C763 1.399 . S
C768 C767 1.394 . S
C768 C769 1.516 . S
C769 C768 1.516 . S
C769 C770 1.502 . S
C769 C771 1.561 . S
C769 C772 1.526 . S
C770 H754 0.959 . S
C770 H755 0.959 . S
C770 H756 0.961 . S
C770 C769 1.502 . S
C771 H757 0.960 . S
C771 H758 0.961 . S
C771 H759 0.959 . S
C771 C769 1.561 . S
C772 C769 1.526 . S
C772 C773 1.396 . S
C772 C777 1.390 . S
C773 C767 1.465 . S
C773 C772 1.396 . S
C773 C774 1.399 . S
C774 H760 0.929 . S
C774 C773 1.399 . S
C774 C775 1.385 . S
C775 H761 0.931 . S
C775 C774 1.385 . S
C775 C776 1.389 . S
C776 C775 1.389 . S
C776 C777 1.387 . S
C777 H762 0.930 . S
C777 C772 1.390 . S
C777 C776 1.387 . S
H778 C790 0.930 . S
H779 C792 0.930 . S
H780 C793 0.930 . S
H781 C797 0.959 . S
H782 C797 0.959 . S
H783 C797 0.961 . S
H784 C798 0.960 . S
H785 C798 0.961 . S
H786 C798 0.959 . S
H787 C801 0.929 . S
H788 C802 0.931 . S
H789 C804 0.930 . S
C790 H778 0.930 . S
C790 C791 1.399 . S
C790 C795 1.399 . S
C791 C790 1.399 . S
C791 C792 1.376 . S
C792 H779 0.930 . S
C792 C791 1.376 . S
C792 C793 1.388 . S
C793 H780 0.930 . S
C793 C792 1.388 . S
C793 C794 1.390 . S
C794 C793 1.390 . S
C794 C795 1.394 . S
C794 C800 1.465 . S
C795 C790 1.399 . S
C795 C794 1.394 . S
C795 C796 1.516 . S
C796 C795 1.516 . S
C796 C797 1.502 . S
C796 C798 1.561 . S
C796 C799 1.526 . S
C797 H781 0.959 . S
C797 H782 0.959 . S
C797 H783 0.961 . S
C797 C796 1.502 . S
C798 H784 0.960 . S
C798 H785 0.961 . S
C798 H786 0.959 . S
C798 C796 1.561 . S
C799 C796 1.526 . S
C799 C800 1.396 . S
C799 C804 1.390 . S
C800 C794 1.465 . S
C800 C799 1.396 . S
C800 C801 1.399 . S
C801 H787 0.929 . S
C801 C800 1.399 . S
C801 C802 1.385 . S
C802 H788 0.931 . S
C802 C801 1.385 . S
C802 C803 1.389 . S
C803 C802 1.389 . S
C803 C804 1.387 . S
C804 H789 0.930 . S
C804 C799 1.390 . S
C804 C803 1.387 . S
H805 C817 0.930 . S
H806 C819 0.930 . S
H807 C820 0.930 . S
H808 C824 0.959 . S
H809 C824 0.959 . S
H810 C824 0.961 . S
H811 C825 0.960 . S
H812 C825 0.961 . S
H813 C825 0.959 . S
H814 C828 0.929 . S
H815 C829 0.931 . S
H816 C831 0.930 . S
C817 H805 0.930 . S
C817 C818 1.399 . S
C817 C822 1.399 . S
C818 C817 1.399 . S
C818 C819 1.376 . S
C819 H806 0.930 . S
C819 C818 1.376 . S
C819 C820 1.388 . S
C820 H807 0.930 . S
C820 C819 1.388 . S
C820 C821 1.390 . S
C821 C820 1.390 . S
C821 C822 1.394 . S
C821 C827 1.465 . S
C822 C817 1.399 . S
C822 C821 1.394 . S
C822 C823 1.516 . S
C823 C822 1.516 . S
C823 C824 1.502 . S
C823 C825 1.561 . S
C823 C826 1.526 . S
C824 H808 0.959 . S
C824 H809 0.959 . S
C824 H810 0.961 . S
C824 C823 1.502 . S
C825 H811 0.960 . S
C825 H812 0.961 . S
C825 H813 0.959 . S
C825 C823 1.561 . S
C826 C823 1.526 . S
C826 C827 1.396 . S
C826 C831 1.390 . S
C827 C821 1.465 . S
C827 C826 1.396 . S
C827 C828 1.399 . S
C828 H814 0.929 . S
C828 C827 1.399 . S
C828 C829 1.385 . S
C829 H815 0.931 . S
C829 C828 1.385 . S
C829 C830 1.389 . S
C830 C829 1.389 . S
C830 C831 1.387 . S
C831 H816 0.930 . S
C831 C826 1.390 . S
C831 C830 1.387 . S
H832 C844 0.930 . S
H833 C846 0.930 . S
H834 C847 0.930 . S
H835 C851 0.959 . S
H836 C851 0.959 . S
H837 C851 0.961 . S
H838 C852 0.960 . S
H839 C852 0.961 . S
H840 C852 0.959 . S
H841 C855 0.929 . S
H842 C856 0.931 . S
H843 C858 0.930 . S
C844 H832 0.930 . S
C844 C845 1.399 . S
C844 C849 1.399 . S
C845 C844 1.399 . S
C845 C846 1.376 . S
C846 H833 0.930 . S
C846 C845 1.376 . S
C846 C847 1.388 . S
C847 H834 0.930 . S
C847 C846 1.388 . S
C847 C848 1.390 . S
C848 C847 1.390 . S
C848 C849 1.394 . S
C848 C854 1.465 . S
C849 C844 1.399 . S
C849 C848 1.394 . S
C849 C850 1.516 . S
C850 C849 1.516 . S
C850 C851 1.502 . S
C850 C852 1.561 . S
C850 C853 1.526 . S
C851 H835 0.959 . S
C851 H836 0.959 . S
C851 H837 0.961 . S
C851 C850 1.502 . S
C852 H838 0.960 . S
C852 H839 0.961 . S
C852 H840 0.959 . S
C852 C850 1.561 . S
C853 C850 1.526 . S
C853 C854 1.396 . S
C853 C858 1.390 . S
C854 C848 1.465 . S
C854 C853 1.396 . S
C854 C855 1.399 . S
C855 H841 0.929 . S
C855 C854 1.399 . S
C855 C856 1.385 . S
C856 H842 0.931 . S
C856 C855 1.385 . S
C856 C857 1.389 . S
C857 C856 1.389 . S
C857 C858 1.387 . S
C858 H843 0.930 . S
C858 C853 1.390 . S
C858 C857 1.387 . S
H859 C871 0.930 . S
H860 C873 0.930 . S
H861 C874 0.930 . S
H862 C878 0.959 . S
H863 C878 0.959 . S
H864 C878 0.961 . S
H865 C879 0.960 . S
H866 C879 0.961 . S
H867 C879 0.959 . S
H868 C882 0.929 . S
H869 C883 0.931 . S
H870 C885 0.930 . S
C871 H859 0.930 . S
C871 C872 1.399 . S
C871 C876 1.399 . S
C872 C871 1.399 . S
C872 C873 1.376 . S
C873 H860 0.930 . S
C873 C872 1.376 . S
C873 C874 1.388 . S
C874 H861 0.930 . S
C874 C873 1.388 . S
C874 C875 1.390 . S
C875 C874 1.390 . S
C875 C876 1.394 . S
C875 C881 1.465 . S
C876 C871 1.399 . S
C876 C875 1.394 . S
C876 C877 1.516 . S
C877 C876 1.516 . S
C877 C878 1.502 . S
C877 C879 1.561 . S
C877 C880 1.526 . S
C878 H862 0.959 . S
C878 H863 0.959 . S
C878 H864 0.961 . S
C878 C877 1.502 . S
C879 H865 0.960 . S
C879 H866 0.961 . S
C879 H867 0.959 . S
C879 C877 1.561 . S
C880 C877 1.526 . S
C880 C881 1.396 . S
C880 C885 1.390 . S
C881 C875 1.465 . S
C881 C880 1.396 . S
C881 C882 1.399 . S
C882 H868 0.929 . S
C882 C881 1.399 . S
C882 C883 1.385 . S
C883 H869 0.931 . S
C883 C882 1.385 . S
C883 C884 1.389 . S
C884 C883 1.389 . S
C884 C885 1.387 . S
C885 H870 0.930 . S
C885 C880 1.390 . S
C885 C884 1.387 . S
H886 C898 0.930 . S
H887 C900 0.930 . S
H888 C901 0.930 . S
H889 C905 0.959 . S
H890 C905 0.959 . S
H891 C905 0.961 . S
H892 C906 0.960 . S
H893 C906 0.961 . S
H894 C906 0.959 . S
H895 C909 0.929 . S
H896 C910 0.931 . S
H897 C912 0.930 . S
C898 H886 0.930 . S
C898 C899 1.399 . S
C898 C903 1.399 . S
C899 C898 1.399 . S
C899 C900 1.376 . S
C900 H887 0.930 . S
C900 C899 1.376 . S
C900 C901 1.388 . S
C901 H888 0.930 . S
C901 C900 1.388 . S
C901 C902 1.390 . S
C902 C901 1.390 . S
C902 C903 1.394 . S
C902 C908 1.465 . S
C903 C898 1.399 . S
C903 C902 1.394 . S
C903 C904 1.516 . S
C904 C903 1.516 . S
C904 C905 1.502 . S
C904 C906 1.561 . S
C904 C907 1.526 . S
C905 H889 0.959 . S
C905 H890 0.959 . S
C905 H891 0.961 . S
C905 C904 1.502 . S
C906 H892 0.960 . S
C906 H893 0.961 . S
C906 H894 0.959 . S
C906 C904 1.561 . S
C907 C904 1.526 . S
C907 C908 1.396 . S
C907 C912 1.390 . S
C908 C902 1.465 . S
C908 C907 1.396 . S
C908 C909 1.399 . S
C909 H895 0.929 . S
C909 C908 1.399 . S
C909 C910 1.385 . S
C910 H896 0.931 . S
C910 C909 1.385 . S
C910 C911 1.389 . S
C911 C910 1.389 . S
C911 C912 1.387 . S
C912 H897 0.930 . S
C912 C907 1.390 . S
C912 C911 1.387 . S
H913 C925 0.930 . S
H914 C927 0.930 . S
H915 C928 0.930 . S
H916 C932 0.959 . S
H917 C932 0.959 . S
H918 C932 0.961 . S
H919 C933 0.960 . S
H920 C933 0.961 . S
H921 C933 0.959 . S
H922 C936 0.929 . S
H923 C937 0.931 . S
H924 C939 0.930 . S
C925 H913 0.930 . S
C925 C926 1.399 . S
C925 C930 1.399 . S
C926 C925 1.399 . S
C926 C927 1.376 . S
C927 H914 0.930 . S
C927 C926 1.376 . S
C927 C928 1.388 . S
C928 H915 0.930 . S
C928 C927 1.388 . S
C928 C929 1.390 . S
C929 C928 1.390 . S
C929 C930 1.394 . S
C929 C935 1.465 . S
C930 C925 1.399 . S
C930 C929 1.394 . S
C930 C931 1.516 . S
C931 C930 1.516 . S
C931 C932 1.502 . S
C931 C933 1.561 . S
C931 C934 1.526 . S
C932 H916 0.959 . S
C932 H917 0.959 . S
C932 H918 0.961 . S
C932 C931 1.502 . S
C933 H919 0.960 . S
C933 H920 0.961 . S
C933 H921 0.959 . S
C933 C931 1.561 . S
C934 C931 1.526 . S
C934 C935 1.396 . S
C934 C939 1.390 . S
C935 C929 1.465 . S
C935 C934 1.396 . S
C935 C936 1.399 . S
C936 H922 0.929 . S
C936 C935 1.399 . S
C936 C937 1.385 . S
C937 H923 0.931 . S
C937 C936 1.385 . S
C937 C938 1.389 . S
C938 C937 1.389 . S
C938 C939 1.387 . S
C939 H924 0.930 . S
C939 C934 1.390 . S
C939 C938 1.387 . S
H940 C952 0.930 . S
H941 C954 0.930 . S
H942 C955 0.930 . S
H943 C959 0.959 . S
H944 C959 0.959 . S
H945 C959 0.961 . S
H946 C960 0.960 . S
H947 C960 0.961 . S
H948 C960 0.959 . S
H949 C963 0.929 . S
H950 C964 0.931 . S
H951 C966 0.930 . S
C952 H940 0.930 . S
C952 C953 1.399 . S
C952 C957 1.399 . S
C953 C952 1.399 . S
C953 C954 1.376 . S
C954 H941 0.930 . S
C954 C953 1.376 . S
C954 C955 1.388 . S
C955 H942 0.930 . S
C955 C954 1.388 . S
C955 C956 1.390 . S
C956 C955 1.390 . S
C956 C957 1.394 . S
C956 C962 1.465 . S
C957 C952 1.399 . S
C957 C956 1.394 . S
C957 C958 1.516 . S
C958 C957 1.516 . S
C958 C959 1.502 . S
C958 C960 1.561 . S
C958 C961 1.526 . S
C959 H943 0.959 . S
C959 H944 0.959 . S
C959 H945 0.961 . S
C959 C958 1.502 . S
C960 H946 0.960 . S
C960 H947 0.961 . S
C960 H948 0.959 . S
C960 C958 1.561 . S
C961 C958 1.526 . S
C961 C962 1.396 . S
C961 C966 1.390 . S
C962 C956 1.465 . S
C962 C961 1.396 . S
C962 C963 1.399 . S
C963 H949 0.929 . S
C963 C962 1.399 . S
C963 C964 1.385 . S
C964 H950 0.931 . S
C964 C963 1.385 . S
C964 C965 1.389 . S
C965 C964 1.389 . S
C965 C966 1.387 . S
C966 H951 0.930 . S
C966 C961 1.390 . S
C966 C965 1.387 . S
H967 C979 0.930 . S
H968 C981 0.930 . S
H969 C982 0.930 . S
H970 C986 0.959 . S
H971 C986 0.959 . S
H972 C986 0.961 . S
H973 C987 0.960 . S
H974 C987 0.961 . S
H975 C987 0.959 . S
H976 C990 0.929 . S
H977 C991 0.931 . S
H978 C993 0.930 . S
C979 H967 0.930 . S
C979 C980 1.399 . S
C979 C984 1.399 . S
C980 C979 1.399 . S
C980 C981 1.376 . S
C981 H968 0.930 . S
C981 C980 1.376 . S
C981 C982 1.388 . S
C982 H969 0.930 . S
C982 C981 1.388 . S
C982 C983 1.390 . S
C983 C982 1.390 . S
C983 C984 1.394 . S
C983 C989 1.465 . S
C984 C979 1.399 . S
C984 C983 1.394 . S
C984 C985 1.516 . S
C985 C984 1.516 . S
C985 C986 1.502 . S
C985 C987 1.561 . S
C985 C988 1.526 . S
C986 H970 0.959 . S
C986 H971 0.959 . S
C986 H972 0.961 . S
C986 C985 1.502 . S
C987 H973 0.960 . S
C987 H974 0.961 . S
C987 H975 0.959 . S
C987 C985 1.561 . S
C988 C985 1.526 . S
C988 C989 1.396 . S
C988 C993 1.390 . S
C989 C983 1.465 . S
C989 C988 1.396 . S
C989 C990 1.399 . S
C990 H976 0.929 . S
C990 C989 1.399 . S
C990 C991 1.385 . S
C991 H977 0.931 . S
C991 C990 1.385 . S
C991 C992 1.389 . S
C992 C991 1.389 . S
C992 C993 1.387 . S
C993 H978 0.930 . S
C993 C988 1.390 . S
C993 C992 1.387 . S
H994 C1006 0.930 . S
H995 C1008 0.930 . S
H996 C1009 0.930 . S
H997 C1013 0.959 . S
H998 C1013 0.959 . S
H999 C1013 0.961 . S
H1000 C1014 0.960 . S
H1001 C1014 0.961 . S
H1002 C1014 0.959 . S
H1003 C1017 0.929 . S
H1004 C1018 0.931 . S
H1005 C1020 0.930 . S
C1006 H994 0.930 . S
C1006 C1007 1.399 . S
C1006 C1011 1.399 . S
C1007 C1006 1.399 . S
C1007 C1008 1.376 . S
C1008 H995 0.930 . S
C1008 C1007 1.376 . S
C1008 C1009 1.388 . S
C1009 H996 0.930 . S
C1009 C1008 1.388 . S
C1009 C1010 1.390 . S
C1010 C1009 1.390 . S
C1010 C1011 1.394 . S
C1010 C1016 1.465 . S
C1011 C1006 1.399 . S
C1011 C1010 1.394 . S
C1011 C1012 1.516 . S
C1012 C1011 1.516 . S
C1012 C1013 1.502 . S
C1012 C1014 1.561 . S
C1012 C1015 1.526 . S
C1013 H997 0.959 . S
C1013 H998 0.959 . S
C1013 H999 0.961 . S
C1013 C1012 1.502 . S
C1014 H1000 0.960 . S
C1014 H1001 0.961 . S
C1014 H1002 0.959 . S
C1014 C1012 1.561 . S
C1015 C1012 1.526 . S
C1015 C1016 1.396 . S
C1015 C1020 1.390 . S
C1016 C1010 1.465 . S
C1016 C1015 1.396 . S
C1016 C1017 1.399 . S
C1017 H1003 0.929 . S
C1017 C1016 1.399 . S
C1017 C1018 1.385 . S
C1018 H1004 0.931 . S
C1018 C1017 1.385 . S
C1018 C1019 1.389 . S
C1019 C1018 1.389 . S
C1019 C1020 1.387 . S
C1020 H1005 0.930 . S
C1020 C1015 1.390 . S
C1020 C1019 1.387 . S
H1021 C1033 0.930 . S
H1022 C1035 0.930 . S
H1023 C1036 0.930 . S
H1024 C1040 0.959 . S
H1025 C1040 0.959 . S
H1026 C1040 0.961 . S
H1027 C1041 0.960 . S
H1028 C1041 0.961 . S
H1029 C1041 0.959 . S
H1030 C1044 0.929 . S
H1031 C1045 0.931 . S
H1032 C1047 0.930 . S
C1033 H1021 0.930 . S
C1033 C1034 1.399 . S
C1033 C1038 1.399 . S
C1034 C1033 1.399 . S
C1034 C1035 1.376 . S
C1035 H1022 0.930 . S
C1035 C1034 1.376 . S
C1035 C1036 1.388 . S
C1036 H1023 0.930 . S
C1036 C1035 1.388 . S
C1036 C1037 1.390 . S
C1037 C1036 1.390 . S
C1037 C1038 1.394 . S
C1037 C1043 1.465 . S
C1038 C1033 1.399 . S
C1038 C1037 1.394 . S
C1038 C1039 1.516 . S
C1039 C1038 1.516 . S
C1039 C1040 1.502 . S
C1039 C1041 1.561 . S
C1039 C1042 1.526 . S
C1040 H1024 0.959 . S
C1040 H1025 0.959 . S
C1040 H1026 0.961 . S
C1040 C1039 1.502 . S
C1041 H1027 0.960 . S
C1041 H1028 0.961 . S
C1041 H1029 0.959 . S
C1041 C1039 1.561 . S
C1042 C1039 1.526 . S
C1042 C1043 1.396 . S
C1042 C1047 1.390 . S
C1043 C1037 1.465 . S
C1043 C1042 1.396 . S
C1043 C1044 1.399 . S
C1044 H1030 0.929 . S
C1044 C1043 1.399 . S
C1044 C1045 1.385 . S
C1045 H1031 0.931 . S
C1045 C1044 1.385 . S
C1045 C1046 1.389 . S
C1046 C1045 1.389 . S
C1046 C1047 1.387 . S
C1047 H1032 0.930 . S
C1047 C1042 1.390 . S
C1047 C1046 1.387 . S
C413 C21 1.554 . S
C425 C339 1.487 . S
C440 C61 1.311 . S
C452 C342 1.242 . S
C479 C378 1.701 . S
C467 C82 1.677 . S
C494 C135 1.654 . S
C506 C398 1.644 . S
C533 C352 1.712 . S
C521 C15 1.741 . S
C560 C329 1.542 . S
C548 C42 1.549 . S
C587 C382 1.591 . S
C575 C101 1.645 . S
C614 C362 1.348 . S
C602 C122 1.466 . S
C629 C2 1.391 . S
C641 C392 1.336 . S
C668 C358 1.552 . S
C656 C95 1.556 . S
C683 C141 1.683 . S
C695 C324 1.593 . S
C710 C55 1.332 . S
C722 C372 1.329 . S
C749 C338 1.570 . S
C737 C181 1.584 . S
C764 C202 1.319 . S
C776 C344 1.308 . S
C791 C255 1.715 . S
C803 C379 1.690 . S
C818 C295 1.658 . S
C830 C399 1.657 . S
C845 C175 1.753 . S
C857 C349 1.700 . S
C884 C332 1.579 . S
C872 C221 1.564 . S
C911 C384 1.464 . S
C899 C242 1.629 . S
C938 C364 1.459 . S
C926 C301 1.483 . S
C953 C162 1.388 . S
C965 C389 1.342 . S
C992 C359 1.605 . S
C980 C261 1.590 . S
C1019 C322 1.565 . S
C1007 C282 1.663 . S
C1034 C215 1.362 . S
C1046 C369 1.365 . S
