# Generated by pormake.
# Topology anh, (6,3)-cn, num edge types: 1
# Building blocks:
#     Node 0, Type 0, BuildingBlock: NUHQIS_clean_sbu_0, # of connection points: 6
#     Node 1, Type 0, BuildingBlock: NUHQIS_clean_sbu_0, # of connection points: 6
#     Node 2, Type 0, BuildingBlock: NUHQIS_clean_sbu_0, # of connection points: 6
#     Node 3, Type 1, BuildingBlock: WUSLED_clean_sbu_0, # of connection points: 3
#     Node 4, Type 1, BuildingBlock: WUSLED_clean_sbu_0, # of connection points: 3
#     Node 5, Type 1, BuildingBlock: WUSLED_clean_sbu_0, # of connection points: 3
#     Node 6, Type 1, BuildingBlock: WUSLED_clean_sbu_0, # of connection points: 3
#     Node 7, Type 1, BuildingBlock: WUSLED_clean_sbu_0, # of connection points: 3
#     Node 8, Type 1, BuildingBlock: WUSLED_clean_sbu_0, # of connection points: 3
#     Edge 9, Type (0, 1), BuildingBlock: XUDNAN_clean_linker_2, # of connection points: 2
#     Edge 10, Type (0, 1), BuildingBlock: XUDNAN_clean_linker_2, # of connection points: 2
#     Edge 11, Type (0, 1), BuildingBlock: XUDNAN_clean_linker_2, # of connection points: 2
#     Edge 12, Type (0, 1), BuildingBlock: XUDNAN_clean_linker_2, # of connection points: 2
#     Edge 13, Type (0, 1), BuildingBlock: XUDNAN_clean_linker_2, # of connection points: 2
#     Edge 14, Type (0, 1), BuildingBlock: XUDNAN_clean_linker_2, # of connection points: 2
#     Edge 15, Type (0, 1), BuildingBlock: XUDNAN_clean_linker_2, # of connection points: 2
#     Edge 16, Type (0, 1), BuildingBlock: XUDNAN_clean_linker_2, # of connection points: 2
#     Edge 17, Type (0, 1), BuildingBlock: XUDNAN_clean_linker_2, # of connection points: 2
#     Edge 18, Type (0, 1), BuildingBlock: XUDNAN_clean_linker_2, # of connection points: 2
#     Edge 19, Type (0, 1), BuildingBlock: XUDNAN_clean_linker_2, # of connection points: 2
#     Edge 20, Type (0, 1), BuildingBlock: XUDNAN_clean_linker_2, # of connection points: 2
#     Edge 21, Type (0, 1), BuildingBlock: XUDNAN_clean_linker_2, # of connection points: 2
#     Edge 22, Type (0, 1), BuildingBlock: XUDNAN_clean_linker_2, # of connection points: 2
#     Edge 23, Type (0, 1), BuildingBlock: XUDNAN_clean_linker_2, # of connection points: 2
#     Edge 24, Type (0, 1), BuildingBlock: XUDNAN_clean_linker_2, # of connection points: 2
#     Edge 25, Type (0, 1), BuildingBlock: XUDNAN_clean_linker_2, # of connection points: 2
#     Edge 26, Type (0, 1), BuildingBlock: XUDNAN_clean_linker_2, # of connection points: 2
# Relax obj value: 0.218
# Max RMSD: 0.182
# Mean RMSD: 0.148
data_MOF--net-anh--node1-NUHQIS_clean_sbu_0--node2-WUSLED_clean_sbu_0--edge1-XUDNAN_clean_linker_2
_symmetry_space_group_name_H-M    P1
_symmetry_Int_Tables_number       1
_symmetry_cell_setting            triclinic
loop_
_symmetry_equiv_pos_as_xyz
'x, y, z'
_cell_length_a     38.611177
_cell_length_b     38.716564
_cell_length_c     69.454601
_cell_angle_alpha  89.416404
_cell_angle_beta   94.841897
_cell_angle_gamma 120.20377
loop_
_atom_site_label
_atom_site_type_symbol
_atom_site_fract_x
_atom_site_fract_y
_atom_site_fract_z
_atom_type_partial_charge
Tb0 Tb 0.14977 0.57631 0.16788 0.0
Eu1 Eu 1.10223 0.62325 0.17555 0.0
C2 C 0.13538 0.59006 0.20943 0.0
C3 C 1.05517 0.52499 0.17399 0.0
C4 C 0.2318 0.55452 0.16581 0.0
C5 C 0.28635 0.54376 0.15965 0.0
C6 C 0.24525 0.52998 0.15893 0.0
C7 C 0.25958 0.59221 0.17439 0.0
C8 C 0.30081 0.6062 0.175 0.0
C9 C 0.31459 0.58245 0.16719 0.0
C10 C 0.18931 0.54235 0.16222 0.0
O11 O 0.11698 0.57427 0.1403 0.0
O12 O 0.11701 0.63247 0.14443 0.0
O13 O 0.16861 0.67064 0.18243 0.0
O14 O 0.19648 0.63965 0.16699 0.0
C15 C 0.11551 0.60493 0.13297 0.0
O16 O 1.05563 0.638 0.16717 0.0
O17 O 1.09441 0.6639 0.19373 0.0
O18 O 1.10364 0.59117 0.20223 0.0
O19 O 0.16322 0.59495 0.19836 0.0
O20 O 1.09026 0.52704 0.1736 0.0
O21 O 1.05204 0.55742 0.17278 0.0
C22 C 0.20013 0.67143 0.17593 0.0
O23 O 0.17008 0.53739 0.17747 0.0
O24 O 0.18159 0.56277 0.14929 0.0
C25 C 1.02585 0.64149 0.19447 0.0
C26 C 0.95275 0.60602 0.21161 0.0
C27 C 0.96735 0.64343 0.20308 0.0
C28 C 1.00366 0.661 0.19451 0.0
C29 C 1.01241 0.60516 0.2038 0.0
C30 C 0.97616 0.58755 0.21231 0.0
C31 C 1.06137 0.65706 0.18362 0.0
H32 H 0.29598 0.52501 0.15318 0.0
H33 H 0.22408 0.50089 0.1522 0.0
H34 H 0.24941 0.61135 0.17988 0.0
H35 H 0.32189 0.63603 0.18095 0.0
H36 H 0.94964 0.65805 0.20204 0.0
H37 H 1.01361 0.68898 0.18731 0.0
H38 H 1.02928 0.5897 0.20391 0.0
H39 H 0.96572 0.55883 0.21883 0.0
Tb40 Tb 0.64968 0.10367 0.50862 0.0
Eu41 Eu 0.55335 1.06382 0.50983 0.0
C42 C 0.61009 1.06927 0.54689 0.0
C43 C 0.59677 1.00844 0.50975 0.0
C44 C 0.74743 0.18805 0.50329 0.0
C45 C 0.79209 0.25593 0.51606 0.0
C46 C 0.77639 0.21479 0.51752 0.0
C47 C 0.73569 0.20329 0.48714 0.0
C48 C 0.75171 0.24441 0.4856 0.0
C49 C 0.77932 0.27102 0.50026 0.0
C50 C 0.72451 0.14511 0.50719 0.0
O51 O 0.62371 0.08372 0.47871 0.0
O52 O 0.56591 0.08595 0.47974 0.0
O53 O 0.57881 0.12878 0.51966 0.0
O54 O 0.63771 0.15365 0.50561 0.0
C55 C 0.59297 0.0851 0.46985 0.0
O56 O 0.49174 1.02425 0.49744 0.0
O57 O 0.50271 1.05658 0.52468 0.0
O58 O 0.57562 1.04726 0.53691 0.0
O59 O 0.63994 0.09971 0.53934 0.0
O60 O 0.63287 1.04064 0.51295 0.0
O61 O 0.5644 1.01164 0.5055 0.0
C62 C 0.61147 0.15947 0.51393 0.0
O63 O 0.70734 0.1372 0.52323 0.0
O64 O 0.7001 0.1212 0.49303 0.0
C65 C 0.45242 0.98912 0.52231 0.0
C66 C 0.40976 0.91122 0.53574 0.0
C67 C 0.38934 0.9275 0.52483 0.0
C68 C 0.41066 0.96629 0.51806 0.0
C69 C 0.47233 0.97361 0.53412 0.0
C70 C 0.45121 0.93506 0.54079 0.0
C71 C 0.4764 1.0271 0.51301 0.0
H72 H 0.81399 0.27593 0.52738 0.0
H73 H 0.78553 0.20374 0.53019 0.0
H74 H 0.71284 0.18345 0.47609 0.0
H75 H 0.7414 0.25533 0.47327 0.0
H76 H 0.3574 0.90943 0.52052 0.0
H77 H 0.39491 0.97771 0.50885 0.0
H78 H 0.50455 0.99061 0.53749 0.0
H79 H 0.4676 0.92319 0.54917 0.0
Tb80 Tb 0.67079 0.6592 0.8451 0.0
Eu81 Eu 0.62014 0.56357 0.83988 0.0
C82 C 0.66579 0.6074 0.88054 0.0
C83 C 0.71863 0.61243 0.84261 0.0
C84 C 0.67501 0.75247 0.84432 0.0
C85 C 0.64314 0.78611 0.85771 0.0
C86 C 0.67406 0.77708 0.85871 0.0
C87 C 0.6457 0.73872 0.82844 0.0
C88 C 0.61485 0.74756 0.82748 0.0
C89 C 0.61262 0.77051 0.84232 0.0
C90 C 0.69923 0.73313 0.84818 0.0
O91 O 0.63953 0.6458 0.81591 0.0
O92 O 0.63379 0.58548 0.80979 0.0
O93 O 0.5726 0.58271 0.83724 0.0
O94 O 0.61176 0.64042 0.85516 0.0
C95 C 0.6352 0.61813 0.80356 0.0
O96 O 0.60561 0.50731 0.82578 0.0
O97 O 0.57266 0.5069 0.84957 0.0
O98 O 0.63249 0.57844 0.87176 0.0
O99 O 0.68914 0.63978 0.87154 0.0
O100 O 0.7168 0.64487 0.83827 0.0
O101 O 0.68583 0.57881 0.84619 0.0
C102 C 0.5761 0.61307 0.84736 0.0
O103 O 0.68885 0.70997 0.86288 0.0
O104 O 0.70393 0.71587 0.83335 0.0
C105 C 0.58955 0.45694 0.84802 0.0
C106 C 0.60998 0.40143 0.8631 0.0
C107 C 0.57104 0.38847 0.85429 0.0
C108 C 0.56094 0.41613 0.84671 0.0
C109 C 0.62756 0.47017 0.85795 0.0
C110 C 0.63782 0.44255 0.86533 0.0
C111 C 0.5807 0.48566 0.83831 0.0
H112 H 0.64263 0.80452 0.86919 0.0
H113 H 0.69588 0.78738 0.87127 0.0
H114 H 0.64501 0.71899 0.8173 0.0
H115 H 0.59166 0.73472 0.81553 0.0
H116 H 0.54926 0.35687 0.85215 0.0
H117 H 0.53143 0.40559 0.83919 0.0
H118 H 0.64981 0.50174 0.85929 0.0
H119 H 0.668 0.45317 0.87204 0.0
C120 C 0.72592 0.20711 0.21085 0.0
C121 C 0.72833 0.24097 0.20175 0.0
C122 C 0.80242 0.27645 0.20465 0.0
C123 C 0.76585 0.2751 0.1988 0.0
C124 C 0.79988 0.24322 0.21452 0.0
C125 C 0.76248 0.20925 0.2175 0.0
U126 U 0.63031 0.11357 0.23135 0.0
O127 O 0.56683 0.08243 0.21818 0.0
O128 O 0.60103 1.05128 0.21979 0.0
C129 C 0.56635 1.04891 0.2145 0.0
C130 C 0.68606 0.16833 0.2105 0.0
C131 C 0.528 1.0091 0.21546 0.0
C132 C 0.4944 0.93588 0.21689 0.0
C133 C 0.52903 0.97407 0.22009 0.0
C134 C 0.45567 0.9661 0.20514 0.0
C135 C 0.45726 0.93099 0.20882 0.0
C136 C 0.49047 1.00441 0.20828 0.0
C137 C 0.62402 0.10965 0.28838 0.0
C138 C 0.58526 0.11004 0.31436 0.0
C139 C 0.63212 0.08631 0.32046 0.0
C140 C 0.64211 0.09372 0.30125 0.0
C141 C 0.60392 0.09488 0.32742 0.0
C142 C 0.59516 0.11733 0.29519 0.0
C143 C 0.64037 0.12451 0.26936 0.0
O144 O 0.68606 0.13613 0.21672 0.0
O145 O 0.654 0.16929 0.21477 0.0
O146 O 0.62228 0.13879 0.25773 0.0
O147 O 0.65415 0.10517 0.26004 0.0
H148 H 0.70102 0.24043 0.19613 0.0
H149 H 0.76608 0.29963 0.19107 0.0
H150 H 0.82703 0.24297 0.21964 0.0
H151 H 0.76236 0.18403 0.22446 0.0
H152 H 0.4971 0.90994 0.2203 0.0
H153 H 0.5571 0.97592 0.22544 0.0
H154 H 0.42802 0.96398 0.19883 0.0
H155 H 0.48838 1.0304 0.20416 0.0
H156 H 0.56395 0.1178 0.31911 0.0
H157 H 0.64685 0.07419 0.32989 0.0
H158 H 0.66507 0.08819 0.29666 0.0
H159 H 0.5812 0.13048 0.28594 0.0
C160 C 0.60803 0.68562 0.54693 0.0
C161 C 0.63835 0.7207 0.53918 0.0
C162 C 0.59938 0.75502 0.54069 0.0
C163 C 0.63424 0.75475 0.5362 0.0
C164 C 0.56986 0.72044 0.54925 0.0
C165 C 0.57398 0.68644 0.5522 0.0
U166 U 0.61361 0.58686 0.56273 0.0
O167 O 0.57932 0.52767 0.54697 0.0
O168 O 0.64462 0.56258 0.54692 0.0
C169 C 0.61171 0.52847 0.54181 0.0
C170 C 0.60932 0.64716 0.54613 0.0
C171 C 0.61378 0.49038 0.54266 0.0
C172 C 0.58406 0.41918 0.53286 0.0
C173 C 0.58082 0.45376 0.53504 0.0
C174 C 0.65313 0.45629 0.5463 0.0
C175 C 0.62061 0.41994 0.53802 0.0
C176 C 0.64985 0.49075 0.54851 0.0
C177 C 0.62396 0.59829 0.62059 0.0
C178 C 0.65273 0.60588 0.65403 0.0
C179 C 0.59697 0.61712 0.64652 0.0
C180 C 0.59644 0.60854 0.62681 0.0
C181 C 0.62462 0.61507 0.66046 0.0
C182 C 0.65241 0.5977 0.63439 0.0
C183 C 0.62064 0.58251 0.60066 0.0
O184 O 0.64338 0.64779 0.55081 0.0
O185 O 0.57778 0.61336 0.5504 0.0
O186 O 0.58583 0.56705 0.59017 0.0
O187 O 0.65175 0.60081 0.59041 0.0
H188 H 0.6647 0.72122 0.53455 0.0
H189 H 0.65767 0.78019 0.52948 0.0
H190 H 0.54287 0.71918 0.5534 0.0
H191 H 0.54967 0.66022 0.55804 0.0
H192 H 0.55828 0.3923 0.52631 0.0
H193 H 0.55269 0.45218 0.53005 0.0
H194 H 0.68167 0.45845 0.55089 0.0
H195 H 0.67614 0.51809 0.55433 0.0
H196 H 0.67486 0.60463 0.66422 0.0
H197 H 0.57474 0.62392 0.65093 0.0
H198 H 0.5738 0.60879 0.61657 0.0
H199 H 0.67369 0.58947 0.63006 0.0
C200 C 1.04398 0.597 0.87991 0.0
C201 C 1.0066 0.56472 0.87225 0.0
C202 C 0.97335 0.6046 0.87361 0.0
C203 C 0.97185 0.56833 0.86927 0.0
C204 C 1.0103 0.63616 0.88219 0.0
C205 C 1.0449 0.6325 0.88522 0.0
U206 U 0.14694 0.59552 0.89528 0.0
O207 O 0.16961 0.56308 0.87881 0.0
O208 O 0.20198 0.62834 0.88001 0.0
C209 C 0.20144 0.59596 0.87401 0.0
C210 C 1.08228 0.59574 0.87878 0.0
C211 C 0.24103 0.59681 0.87445 0.0
C212 C 0.28464 0.57852 0.85859 0.0
C213 C 0.24659 0.57455 0.86032 0.0
C214 C 0.31269 0.62629 0.88553 0.0
C215 C 0.31879 0.60514 0.8709 0.0
C216 C 0.27464 0.62235 0.88722 0.0
C217 C 0.14637 0.59569 0.95262 0.0
C218 C 0.15434 0.5862 0.98716 0.0
C219 C 0.1113 0.61194 0.97532 0.0
C220 C 0.12016 0.60957 0.95628 0.0
C221 C 0.12869 0.60073 0.99113 0.0
C222 C 0.16291 0.58366 0.96821 0.0
C223 C 0.15978 0.59572 0.93322 0.0
O224 O 0.11707 0.62823 0.88358 0.0
O225 O 1.083 0.56279 0.8828 0.0
O226 O 0.13979 0.56279 0.92229 0.0
O227 O 0.17247 0.62845 0.92336 0.0
H228 H 1.00464 0.5371 0.86763 0.0
H229 H 0.94437 0.54334 0.86255 0.0
H230 H 1.0129 0.66441 0.88612 0.0
H231 H 1.07285 0.65827 0.89098 0.0
H232 H 0.28752 0.56182 0.84704 0.0
H233 H 0.22156 0.55487 0.85009 0.0
H234 H 0.33755 0.64646 0.89569 0.0
H235 H 0.27179 0.64004 0.89829 0.0
H236 H 0.16903 0.57797 0.99875 0.0
H237 H 1.09095 0.62273 0.97764 0.0
H238 H 0.10704 0.61908 0.9445 0.0
H239 H 0.18351 0.57318 0.96578 0.0
C240 C 1.05443 0.57458 0.47493 0.0
C241 C 1.02509 0.56966 0.46012 0.0
C242 C 0.97334 0.53863 0.48247 0.0
C243 C 0.98482 0.55213 0.46391 0.0
C244 C 1.00352 0.54727 0.4976 0.0
C245 C 1.04377 0.56508 0.49382 0.0
U246 U 0.12303 0.57606 0.4387 0.0
O247 O 0.18689 0.61814 0.43545 0.0
O248 O 0.16683 0.55537 0.44149 0.0
C249 C 0.19756 0.59198 0.44101 0.0
C250 C 1.09418 0.58291 0.47035 0.0
C251 C 0.2275 0.60575 0.45793 0.0
C252 C 0.24037 0.61063 0.49293 0.0
C253 C 0.21605 0.5902 0.47619 0.0
C254 C 0.28941 0.6605 0.47334 0.0
C255 C 0.27614 0.64729 0.49172 0.0
C256 C 0.26528 0.63981 0.4566 0.0
C257 C 1.08517 0.55052 0.38574 0.0
C258 C 0.12071 0.53682 0.36247 0.0
C259 C 1.07739 0.56316 0.35186 0.0
C260 C 1.06788 0.56307 0.3708 0.0
C261 C 1.1042 0.55036 0.34747 0.0
C262 C 0.11148 0.53714 0.38148 0.0
C263 C 1.07812 0.55496 0.40577 0.0
O264 O 1.09536 0.55083 0.4655 0.0
O265 O 0.11324 0.61292 0.45904 0.0
O266 O 1.09803 0.59195 0.41284 0.0
O267 O 1.07859 0.52889 0.41794 0.0
H268 H 1.03287 0.57682 0.4454 0.0
H269 H 0.96234 0.54636 0.45202 0.0
H270 H 0.99587 0.53695 0.51202 0.0
H271 H 1.06611 0.56858 0.50538 0.0
H272 H 0.22966 0.59934 0.50685 0.0
H273 H 0.18696 0.56395 0.47766 0.0
H274 H 0.31657 0.6888 0.47178 0.0
H275 H 0.27456 0.65238 0.44267 0.0
H276 H 0.14105 0.52632 0.35958 0.0
H277 H 1.06471 0.57456 0.34079 0.0
H278 H 1.04793 0.57398 0.37388 0.0
H279 H 0.12552 0.52771 0.39287 0.0
C280 C 0.49181 0.97571 0.80647 0.0
C281 C 0.46818 0.9434 0.79331 0.0
C282 C 0.46017 0.89712 0.81885 0.0
C283 C 0.45184 0.90426 0.79955 0.0
C284 C 0.47924 0.92967 0.83235 0.0
C285 C 0.49494 0.96869 0.82616 0.0
U286 U 0.55614 1.0418 0.76794 0.0
O287 O 0.57552 0.10453 0.76162 0.0
O288 O 0.62033 0.08722 0.77086 0.0
C289 C 0.613 0.11668 0.76819 0.0
C290 C 0.52018 1.01516 0.79968 0.0
C291 C 0.62922 0.147 0.78408 0.0
C292 C 0.64159 0.16307 0.81861 0.0
C293 C 0.63183 0.1359 0.80325 0.0
C294 C 0.64761 0.21328 0.79585 0.0
C295 C 0.64837 0.20166 0.81511 0.0
C296 C 0.63813 0.18611 0.78046 0.0
C297 C 0.55405 0.99985 0.71848 0.0
C298 C 0.56906 1.03402 0.68812 0.0
C299 C 0.58246 0.97986 0.69393 0.0
C300 C 0.56808 0.97521 0.71214 0.0
C301 C 0.58271 1.00906 0.6816 0.0
C302 C 0.55511 1.02964 0.70639 0.0
C303 C 0.53878 0.9943 0.7377 0.0
O304 O 0.55544 1.01949 0.79709 0.0
O305 O 0.50652 1.02938 0.78562 0.0
O306 O 0.51843 1.01216 0.7411 0.0
O307 O 0.56431 0.99755 0.75234 0.0
H308 H 0.46535 0.94831 0.77802 0.0
H309 H 0.43639 0.8798 0.78888 0.0
H310 H 0.48637 0.92563 0.84731 0.0
H311 H 0.51309 0.99338 0.83649 0.0
H312 H 0.6423 0.15337 0.83325 0.0
H313 H 0.62476 0.10572 0.80645 0.0
H314 H 0.65202 0.24258 0.79265 0.0
H315 H 0.63591 0.19507 0.76579 0.0
H316 H 0.56808 1.05633 0.67893 0.0
H317 H 0.59325 0.96048 0.6895 0.0
H318 H 0.56783 0.95224 0.72128 0.0
H319 H 0.54475 1.04933 0.71091 0.0
C320 C 0.63422 0.48513 0.14301 0.0
C321 C 0.66719 0.48052 0.14029 0.0
C322 C 0.68174 0.48204 0.17518 0.0
C323 C 0.69081 0.47902 0.15624 0.0
C324 C 0.64648 0.483 0.17771 0.0
C325 C 0.62297 0.48471 0.1617 0.0
U326 U 0.62199 0.50757 0.08981 0.0
O327 O 0.56892 0.50236 0.07255 0.0
O328 O 0.6231 0.56111 0.07842 0.0
C329 C 0.5846 0.54145 0.07245 0.0
C330 C 0.61586 0.49714 0.12703 0.0
C331 C 0.56086 0.55747 0.08032 0.0
C332 C 0.50149 0.54586 0.09527 0.0
C333 C 0.52109 0.53168 0.08461 0.0
C334 C 0.55987 0.61248 0.09643 0.0
C335 C 0.52123 0.58606 0.1019 0.0
C336 C 0.57944 0.59835 0.08566 0.0
C337 C 0.67369 0.49724 0.04962 0.0
C338 C 0.65054 0.50632 0.01741 0.0
C339 C 0.71991 0.52316 0.02456 0.0
C340 C 0.71213 0.51109 0.04357 0.0
C341 C 0.68927 0.52141 0.01137 0.0
C342 C 0.6429 0.49456 0.03632 0.0
C343 C 0.66678 0.49077 0.0702 0.0
O344 O 0.64097 0.53123 0.11967 0.0
O345 O 0.59191 0.46932 0.11384 0.0
O346 O 0.62988 0.4638 0.07368 0.0
O347 O 0.68153 0.5239 0.08083 0.0
H348 H 0.67636 0.48105 0.12591 0.0
H349 H 0.71801 0.47889 0.15365 0.0
H350 H 0.63842 0.48487 0.19207 0.0
H351 H 0.59751 0.48829 0.16399 0.0
H352 H 0.47115 0.52505 0.09874 0.0
H353 H 0.50558 0.50018 0.08043 0.0
H354 H 0.57573 0.64367 0.10121 0.0
H355 H 0.6099 0.6191 0.08233 0.0
H356 H 0.62648 0.50537 1.00777 0.0
H357 H 0.75001 0.53455 0.02029 0.0
H358 H 0.73641 0.51389 0.0537 0.0
H359 H 0.61319 0.48488 0.04073 0.0
H360 H 0.3591 0.54585 0.17283 0.0
H361 H 0.36574 0.65577 0.15373 0.0
H362 H 0.42989 0.67571 0.14024 0.0
H363 H 0.47372 0.58667 0.18051 0.0
H364 H 0.4663 0.5399 0.1712 0.0
H365 H 0.42874 0.5405 0.18474 0.0
H366 H 0.37489 0.50202 0.15625 0.0
H367 H 0.41211 0.50205 0.14245 0.0
H368 H 0.38216 0.52288 0.1326 0.0
H369 H 0.48159 0.67513 0.12152 0.0
H370 H 0.51922 0.65602 0.10118 0.0
H371 H 0.47928 0.54646 0.13222 0.0
C372 C 0.37503 0.57488 0.16653 0.0
C373 C 0.35761 0.59927 0.16434 0.0
C374 C 0.37891 0.6369 0.15586 0.0
C375 C 0.41536 0.64844 0.14809 0.0
C376 C 0.43028 0.62228 0.14919 0.0
C377 C 0.41123 0.5866 0.15861 0.0
C378 C 0.42952 0.56089 0.1552 0.0
C379 C 0.45085 0.55677 0.17403 0.0
C380 C 0.39778 0.51957 0.14608 0.0
C381 C 0.45949 0.58612 0.14113 0.0
C382 C 0.46033 0.62189 0.13822 0.0
C383 C 0.48219 0.64782 0.12412 0.0
C384 C 0.50334 0.63668 0.11259 0.0
C385 C 0.50199 0.59971 0.11509 0.0
C386 C 0.48065 0.5748 0.1299 0.0
H387 H 0.80937 0.3163 0.46917 0.0
H388 H 0.78677 0.3236 0.52861 0.0
H389 H 0.82175 0.39732 0.52746 0.0
H390 H 0.90467 0.38989 0.47316 0.0
H391 H 0.90482 0.4097 0.44954 0.0
H392 H 0.86934 0.35845 0.45351 0.0
H393 H 0.8108 0.37001 0.44112 0.0
H394 H 0.84643 0.42175 0.43729 0.0
H395 H 0.80601 0.40909 0.45225 0.0
H396 H 0.87006 0.46886 0.52206 0.0
H397 H 0.93071 0.5306 0.51379 0.0
H398 H 0.92186 0.47633 0.45794 0.0
C399 C 0.81043 0.33343 0.48166 0.0
C400 C 0.79539 0.31452 0.49893 0.0
C401 C 0.79837 0.33775 0.51525 0.0
C402 C 0.8177 0.37954 0.51464 0.0
C403 C 0.83353 0.39752 0.49755 0.0
C404 C 0.82985 0.37509 0.4813 0.0
C405 C 0.85492 0.4013 0.46584 0.0
C406 C 0.88523 0.38913 0.46022 0.0
C407 C 0.82792 0.40049 0.44808 0.0
C408 C 0.87567 0.44162 0.47646 0.0
C409 C 0.86193 0.43914 0.49446 0.0
C410 C 0.88039 0.47141 0.50782 0.0
C411 C 0.91494 0.50633 0.50305 0.0
C412 C 0.93098 0.50837 0.48519 0.0
C413 C 0.90974 0.47629 0.47145 0.0
H414 H 0.57745 0.78752 0.81085 0.0
H415 H 0.5705 0.77012 0.87248 0.0
H416 H 0.51521 0.78504 0.87128 0.0
H417 H 0.56868 0.86926 0.80971 0.0
H418 H 0.53924 0.8574 0.78664 0.0
H419 H 0.57155 0.8372 0.79203 0.0
H420 H 0.51048 0.76563 0.78479 0.0
H421 H 0.47776 0.78592 0.77977 0.0
H422 H 0.46643 0.74861 0.7977 0.0
H423 H 0.46919 0.81261 0.8643 0.0
H424 H 0.44347 0.85693 0.8531 0.0
H425 H 0.48029 0.85466 0.79605 0.0
C426 C 0.56342 0.7855 0.82399 0.0
C427 C 0.57815 0.77749 0.84172 0.0
C428 C 0.55992 0.77656 0.85873 0.0
C429 C 0.52805 0.78433 0.85814 0.0
C430 C 0.51454 0.7926 0.84039 0.0
C431 C 0.53174 0.79315 0.82362 0.0
C432 C 0.5162 0.80844 0.80695 0.0
C433 C 0.55096 0.84525 0.79836 0.0
C434 C 0.49122 0.77515 0.79138 0.0
C435 C 0.48977 0.81923 0.81724 0.0
C436 C 0.48799 0.80862 0.83635 0.0
C437 C 0.46969 0.82033 0.84926 0.0
C438 C 0.45522 0.84561 0.84278 0.0
C439 C 0.45997 0.85952 0.82369 0.0
C440 C 0.4751 0.84391 0.81056 0.0
H441 H 0.89666 0.52873 0.20226 0.0
H442 H 0.91419 0.63476 0.23213 0.0
H443 H 0.84096 0.60236 0.23432 0.0
H444 H 0.82107 0.516 0.17217 0.0
H445 H 0.79341 0.46207 0.17119 0.0
H446 H 0.84651 0.48841 0.17772 0.0
H447 H 0.83388 0.44988 0.21006 0.0
H448 H 0.78058 0.42409 0.2029 0.0
H449 H 0.8 0.45146 0.22582 0.0
H450 H 0.76811 0.56794 0.2253 0.0
H451 H 0.70407 0.53704 0.20494 0.0
H452 H 0.73134 0.45085 0.18165 0.0
C453 C 0.88525 0.54422 0.21021 0.0
C454 C 0.91098 0.58403 0.21719 0.0
C455 C 0.8949 0.60415 0.22675 0.0
C456 C 0.85337 0.58579 0.22821 0.0
C457 C 0.82842 0.54721 0.22018 0.0
C458 C 0.84387 0.52643 0.21155 0.0
C459 C 0.81086 0.48909 0.20065 0.0
C460 C 0.81842 0.48893 0.17919 0.0
C461 C 0.80601 0.45137 0.21045 0.0
C462 C 0.77499 0.494 0.20297 0.0
C463 C 0.7854 0.52688 0.21488 0.0
C464 C 0.75919 0.54135 0.21652 0.0
C465 C 0.72259 0.52338 0.20489 0.0
C466 C 0.71268 0.49145 0.19164 0.0
C467 C 0.73811 0.4751 0.19169 0.0
H468 H 0.43525 0.86026 0.52722 0.0
H469 H 0.33719 0.86497 0.5506 0.0
H470 H 0.29836 0.7911 0.55042 0.0
H471 H 0.38035 0.79186 0.49376 0.0
H472 H 0.40779 0.76545 0.49437 0.0
H473 H 0.43292 0.81679 0.50253 0.0
H474 H 0.45394 0.79868 0.53583 0.0
H475 H 0.4293 0.74704 0.52749 0.0
H476 H 0.41622 0.76032 0.54944 0.0
H477 H 0.265 0.72031 0.54057 0.0
H478 H 0.2374 0.66064 0.51927 0.0
H479 H 0.35643 0.69988 0.50166 0.0
C480 C 0.40644 0.84564 0.53324 0.0
C481 C 0.38933 0.868 0.53925 0.0
C482 C 0.35082 0.84814 0.54614 0.0
C483 C 0.32882 0.80628 0.54626 0.0
C484 C 0.34585 0.78488 0.53945 0.0
C485 C 0.38397 0.80396 0.53312 0.0
C486 C 0.39225 0.77495 0.52281 0.0
C487 C 0.40395 0.78804 0.50216 0.0
C488 C 0.42485 0.76993 0.5346 0.0
C489 C 0.35151 0.7373 0.52268 0.0
C490 C 0.32582 0.74321 0.53314 0.0
C491 C 0.28508 0.71484 0.53284 0.0
C492 C 0.26965 0.68075 0.52069 0.0
C493 C 0.29482 0.67551 0.50876 0.0
C494 C 0.3366 0.70304 0.51069 0.0
H495 H 0.67416 0.40308 0.8496 0.0
H496 H 0.57318 0.33241 0.88298 0.0
H497 H 0.58569 0.27598 0.88115 0.0
H498 H 0.65025 0.33466 0.81663 0.0
H499 H 0.6998 0.34486 0.81216 0.0
H500 H 0.6935 0.38378 0.8219 0.0
H501 H 0.74435 0.39461 0.85126 0.0
H502 H 0.75147 0.3559 0.84143 0.0
H503 H 0.737 0.35285 0.86567 0.0
H504 H 0.59668 0.22366 0.86864 0.0
H505 H 0.6034 0.17949 0.84604 0.0
H506 H 0.69712 0.28293 0.8199 0.0
C507 C 0.65628 0.37649 0.85748 0.0
C508 C 0.62323 0.37208 0.86672 0.0
C509 C 0.59899 0.33632 0.87607 0.0
C510 C 0.60607 0.30429 0.87518 0.0
C511 C 0.63749 0.30864 0.8649 0.0
C512 C 0.66256 0.34411 0.85636 0.0
C513 C 0.68846 0.33881 0.84284 0.0
C514 C 0.68258 0.35122 0.82218 0.0
C515 C 0.73296 0.36191 0.85078 0.0
C516 C 0.67152 0.29417 0.84374 0.0
C517 C 0.64333 0.2776 0.85712 0.0
C518 C 0.61963 0.23636 0.85862 0.0
C519 C 0.62373 0.21144 0.84568 0.0
C520 C 0.651 0.22784 0.83126 0.0
C521 C 0.67626 0.26966 0.83087 0.0
H522 H 0.65355 0.98522 0.52179 0.0
H523 H 0.52621 0.93644 0.50482 0.0
H524 H 0.51395 0.86867 0.51091 0.0
H525 H 0.66107 0.90304 0.50084 0.0
H526 H 0.69544 0.90382 0.52032 0.0
H527 H 0.69493 0.94901 0.51442 0.0
H528 H 0.68291 0.95725 0.54972 0.0
H529 H 0.68323 0.91201 0.55573 0.0
H530 H 0.64068 0.91703 0.56032 0.0
H531 H 0.5145 0.80503 0.51893 0.0
H532 H 0.52775 0.75099 0.52807 0.0
H533 H 0.65472 0.83821 0.54047 0.0
C534 C 0.62314 0.96028 0.51913 0.0
C535 C 0.59099 0.96693 0.51254 0.0
C536 C 0.55165 0.93294 0.50962 0.0
C537 C 0.54425 0.89397 0.51311 0.0
C538 C 0.57636 0.88854 0.51959 0.0
C539 C 0.6151 0.92071 0.52255 0.0
C540 C 0.64398 0.90616 0.5298 0.0
C541 C 0.67574 0.91611 0.51549 0.0
C542 C 0.66388 0.92419 0.5501 0.0
C543 C 0.61548 0.86093 0.53036 0.0
C544 C 0.5766 0.85164 0.52444 0.0
C545 C 0.54485 0.81215 0.52372 0.0
C546 C 0.55276 0.78142 0.52915 0.0
C547 C 0.59229 0.78951 0.53536 0.0
C548 C 0.62408 0.8303 0.53581 0.0
H549 H 0.74085 0.55691 0.85667 0.0
H550 H 0.79039 0.67601 0.83408 0.0
H551 H 0.8584 0.68554 0.83936 0.0
H552 H 0.82171 0.5815 0.89391 0.0
H553 H 0.82198 0.53539 0.89117 0.0
H554 H 0.77622 0.53649 0.88519 0.0
H555 H 0.77005 0.50776 0.85085 0.0
H556 H 0.81572 0.50641 0.85671 0.0
H557 H 0.81139 0.53291 0.83602 0.0
H558 H 0.922 0.68432 0.84793 0.0
H559 H 0.97685 0.67138 0.85802 0.0
H560 H 0.88966 0.55273 0.87515 0.0
C561 C 0.76595 0.58483 0.85263 0.0
C562 C 0.75955 0.61567 0.84484 0.0
C563 C 0.79374 0.65177 0.84001 0.0
C564 C 0.83284 0.65757 0.84299 0.0
C565 C 0.83812 0.62706 0.85083 0.0
C566 C 0.8057 0.59122 0.85549 0.0
C567 C 0.82048 0.56367 0.8639 0.0
C568 C 0.80943 0.55367 0.88479 0.0
C569 C 0.80339 0.52542 0.85111 0.0
C570 C 0.86611 0.58976 0.86326 0.0
C571 C 0.87533 0.62624 0.8557 0.0
C572 C 0.91507 0.65584 0.85388 0.0
C573 C 0.94627 0.64824 0.85985 0.0
C574 C 0.93832 0.61118 0.86768 0.0
C575 C 0.89724 0.5814 0.86923 0.0
H576 H 0.2241 0.74754 0.19235 0.0
H577 H 0.27149 0.67975 0.16679 0.0
H578 H 0.33998 0.73722 0.17262 0.0
H579 H 0.29452 0.8435 0.17255 0.0
H580 H 0.29986 0.87282 0.19376 0.0
H581 H 0.2538 0.82626 0.1878 0.0
H582 H 0.26089 0.80083 0.22165 0.0
H583 H 0.30701 0.84728 0.2277 0.0
H584 H 0.30642 0.80052 0.22957 0.0
H585 H 0.40445 0.80143 0.18169 0.0
H586 H 0.45985 0.86867 0.19204 0.0
H587 H 0.37392 0.89884 0.21134 0.0
C588 C 0.24884 0.7448 0.1879 0.0
C589 C 0.24163 0.70834 0.17908 0.0
C590 C 0.27539 0.70668 0.17356 0.0
C591 C 0.3148 0.73944 0.17684 0.0
C592 C 0.32083 0.77455 0.18558 0.0
C593 C 0.28885 0.77774 0.19092 0.0
C594 C 0.30425 0.8195 0.19988 0.0
C595 C 0.28708 0.84184 0.18777 0.0
C596 C 0.29403 0.81686 0.22095 0.0
C597 C 0.34971 0.83902 0.1988 0.0
C598 C 0.35837 0.81223 0.19056 0.0
C599 C 0.39792 0.82258 0.18818 0.0
C600 C 0.42944 0.86105 0.1943 0.0
C601 C 0.42199 0.88965 0.20279 0.0
C602 C 0.38112 0.87815 0.2049 0.0
H603 H 0.56059 0.18602 0.5259 0.0
H604 H 0.68047 0.22982 0.50816 0.0
H605 H 0.69521 0.29915 0.5125 0.0
H606 H 0.54428 0.26178 0.50227 0.0
H607 H 0.51754 0.26631 0.52123 0.0
H608 H 0.51607 0.21973 0.51698 0.0
H609 H 0.54229 0.22134 0.55267 0.0
H610 H 0.54384 0.26793 0.55703 0.0
H611 H 0.58848 0.26448 0.56241 0.0
H612 H 0.69771 0.36491 0.51895 0.0
H613 H 0.68745 0.42105 0.52613 0.0
H614 H 0.56576 0.33707 0.53971 0.0
C615 C 0.58996 0.21015 0.52291 0.0
C616 C 0.61928 0.20175 0.51659 0.0
C617 C 0.65723 0.23475 0.51288 0.0
C618 C 0.666 0.27456 0.51537 0.0
C619 C 0.63658 0.28173 0.52154 0.0
C620 C 0.59921 0.25046 0.52521 0.0
C621 C 0.57296 0.26677 0.53152 0.0
C622 C 0.53549 0.25281 0.51714 0.0
C623 C 0.5612 0.25439 0.55213 0.0
C624 C 0.60135 0.31195 0.53086 0.0
C625 C 0.63794 0.31975 0.52513 0.0
C626 C 0.66916 0.35897 0.52352 0.0
C627 C 0.66306 0.39094 0.52783 0.0
C628 C 0.6259 0.38433 0.53378 0.0
C629 C 0.59457 0.3438 0.53517 0.0
H630 H 0.49242 0.55658 0.84325 0.0
H631 H 0.57842 0.68106 0.85917 0.0
H632 H 0.52315 0.69168 0.8662 0.0
H633 H 0.41258 0.57343 0.82078 0.0
H634 H 0.37209 0.52896 0.82993 0.0
H635 H 0.41811 0.53047 0.82539 0.0
H636 H 0.42593 0.5117 0.86069 0.0
H637 H 0.37998 0.5102 0.86533 0.0
H638 H 0.42587 0.54188 0.88027 0.0
H639 H 0.4592 0.69022 0.87189 0.0
H640 H 0.3909 0.67609 0.87636 0.0
H641 H 0.34307 0.55214 0.858 0.0
C642 C 0.49958 0.58615 0.84804 0.0
C643 C 0.54042 0.61793 0.8506 0.0
C644 C 0.54793 0.65599 0.8571 0.0
C645 C 0.51653 0.6625 0.8611 0.0
C646 C 0.477 0.63079 0.85868 0.0
C647 C 0.4682 0.59328 0.85231 0.0
C648 C 0.42272 0.56438 0.85148 0.0
C649 C 0.40535 0.54836 0.83066 0.0
C650 C 0.41306 0.53 0.86526 0.0
C651 C 0.40763 0.59152 0.8584 0.0
C652 C 0.43968 0.62973 0.86239 0.0
C653 C 0.43393 0.66026 0.86896 0.0
C654 C 0.39467 0.65173 0.87164 0.0
C655 C 0.36074 0.61276 0.86791 0.0
C656 C 0.36779 0.58234 0.86102 0.0
H657 H 0.97854 0.50465 0.18512 0.0
H658 H 1.04912 0.45218 0.1694 0.0
H659 H 0.99334 0.38532 0.17537 0.0
H660 H 0.93335 0.43897 0.22347 0.0
H661 H 0.88386 0.43257 0.21907 0.0
H662 H 0.92707 0.47815 0.21254 0.0
H663 H 0.8983 0.46989 0.17726 0.0
H664 H 0.85311 0.42506 0.18285 0.0
H665 H 0.88136 0.42373 0.16383 0.0
H666 H 0.93079 0.32338 0.18356 0.0
H667 H 0.86519 0.27054 0.19271 0.0
H668 H 0.83176 0.35971 0.2036 0.0
C669 C 0.98209 0.47906 0.18271 0.0
C670 C 1.01882 0.48435 0.17664 0.0
C671 C 1.02185 0.44965 0.17401 0.0
C672 C 0.9901 0.4112 0.17737 0.0
C673 C 0.95478 0.40706 0.18349 0.0
C674 C 0.95036 0.43993 0.1861 0.0
C675 C 0.90902 0.42651 0.19307 0.0
C676 C 0.91359 0.4452 0.21322 0.0
C677 C 0.88394 0.43694 0.17839 0.0
C678 C 0.89104 0.38116 0.19388 0.0
C679 C 0.91828 0.37088 0.18833 0.0
C680 C 0.90931 0.33119 0.18798 0.0
C681 C 0.87177 0.3012 0.19341 0.0
C682 C 0.84273 0.31029 0.1992 0.0
C683 C 0.85281 0.35123 0.19926 0.0
H684 H 0.11732 0.55639 0.10456 0.0
H685 H 0.10925 0.66308 0.11263 0.0
H686 H 0.10874 0.67193 0.07737 0.0
H687 H 0.18371 0.59308 0.06728 0.0
H688 H 0.16065 0.54596 0.05387 0.0
H689 H 0.15836 0.5468 0.07963 0.0
H690 H 1.08061 0.50383 0.07487 0.0
H691 H 1.08266 0.50278 0.04908 0.0
H692 H 1.05277 0.52059 0.0592 0.0
H693 H 0.11213 0.67089 0.04106 0.0
H694 H 0.11941 0.66029 1.00704 0.0
H695 H 0.1234 0.55318 0.0223 0.0
C696 C 0.11502 0.58142 0.09894 0.0
C697 C 0.11316 0.60895 0.11153 0.0
C698 C 0.11059 0.64146 0.10342 0.0
C699 C 0.11026 0.64675 0.08335 0.0
C700 C 0.11245 0.61929 0.0714 0.0
C701 C 0.11467 0.58718 0.0789 0.0
C702 C 0.11782 0.56258 0.06295 0.0
C703 C 0.15749 0.5621 0.06613 0.0
C704 C 1.08129 0.51991 0.06144 0.0
C705 C 0.11746 0.58608 0.04535 0.0
C706 C 0.11419 0.6186 0.05053 0.0
C707 C 0.11429 0.64526 0.03684 0.0
C708 C 0.11813 0.63875 0.01743 0.0
C709 C 0.12184 0.60575 0.01168 0.0
C710 C 0.12106 0.57897 0.02601 0.0
H711 H 0.64893 0.10058 0.44347 0.0
H712 H 0.52413 1.06672 0.44718 0.0
H713 H 0.51335 1.06366 0.41162 0.0
H714 H 0.6643 0.16426 0.40279 0.0
H715 H 0.69654 0.15052 0.39181 0.0
H716 H 0.69444 0.14892 0.41763 0.0
H717 H 0.67581 0.07467 0.41642 0.0
H718 H 0.67766 0.076 0.39057 0.0
H719 H 0.63277 1.03914 0.40084 0.0
H720 H 0.5153 1.06324 0.37562 0.0
H721 H 0.53079 1.06927 0.34167 0.0
H722 H 0.65526 0.1068 0.36056 0.0
C723 C 0.61929 0.09234 0.4368 0.0
C724 C 0.58733 0.08373 0.44826 0.0
C725 C 0.54917 0.07355 0.43885 0.0
C726 C 0.54266 0.07157 0.4186 0.0
C727 C 0.57465 0.08018 0.40775 0.0
C728 C 0.61233 0.09068 0.41647 0.0
C729 C 0.64178 0.09975 0.40132 0.0
C730 C 0.6763 0.14346 0.40352 0.0
C731 C 0.65796 0.07065 0.40235 0.0
C732 C 0.6147 0.09254 0.38277 0.0
C733 C 0.57606 0.08105 0.38687 0.0
C734 C 0.54557 0.07256 0.37224 0.0
C735 C 0.5548 0.07635 0.35292 0.0
C736 C 0.59439 0.08893 0.34818 0.0
C737 C 0.62458 0.09676 0.36348 0.0
H738 H 0.63766 0.57323 0.77364 0.0
H739 H 0.62411 0.67556 0.7852 0.0
H740 H 0.61871 0.68534 0.75008 0.0
H741 H 0.69898 0.61485 0.73425 0.0
H742 H 0.67666 0.56808 0.72059 0.0
H743 H 0.67805 0.56833 0.74658 0.0
H744 H 0.60072 0.5214 0.74424 0.0
H745 H 0.59909 0.52094 0.71824 0.0
H746 H 0.56875 0.53574 0.73026 0.0
H747 H 0.61467 0.68381 0.7132 0.0
H748 H 0.61488 0.67255 0.67821 0.0
H749 H 0.6324 0.57212 0.6908 0.0
C750 C 0.63329 0.59757 0.76883 0.0
C751 C 0.63113 0.62351 0.78231 0.0
C752 C 0.62584 0.65523 0.77526 0.0
C753 C 0.62268 0.661 0.75529 0.0
C754 C 0.62507 0.63498 0.74242 0.0
C755 C 0.6304 0.60397 0.74893 0.0
C756 C 0.633 0.5808 0.73214 0.0
C757 C 0.67412 0.58317 0.73348 0.0
C758 C 0.59832 0.53713 0.73117 0.0
C759 C 0.62841 0.60362 0.71516 0.0
C760 C 0.62358 0.63461 0.72135 0.0
C761 C 0.61844 0.6596 0.70824 0.0
C762 C 0.61841 0.65286 0.68834 0.0
C763 C 0.62381 0.62156 0.68163 0.0
C764 C 0.62875 0.59667 0.69537 0.0
H765 H 0.64102 0.11348 0.58113 0.0
H766 H 0.58923 0.99397 0.55572 0.0
H767 H 0.58726 0.96704 0.58813 0.0
H768 H 0.69913 0.09959 0.62477 0.0
H769 H 0.68747 0.12859 0.64034 0.0
H770 H 0.69343 0.14007 0.61518 0.0
H771 H 0.62269 0.13273 0.61111 0.0
H772 H 0.61633 0.12089 0.63612 0.0
H773 H 0.5798 0.08678 0.61756 0.0
H774 H 0.57978 0.9513 0.6224 0.0
H775 H 0.56705 0.94752 0.65664 0.0
H776 H 0.62401 0.07698 0.66091 0.0
C777 C 0.63083 0.08197 0.5825 0.0
C778 C 0.61575 1.05575 0.56609 0.0
C779 C 0.60115 1.01443 0.56824 0.0
C780 C 0.6001 0.99891 0.58656 0.0
C781 C 0.61371 1.02513 0.60259 0.0
C782 C 0.62906 1.06584 0.60082 0.0
C783 C 0.63667 0.08642 0.62045 0.0
C784 C 0.68187 0.11538 0.62548 0.0
C785 C 0.61241 0.10795 0.62135 0.0
C786 C 0.62116 1.05068 0.63328 0.0
C787 C 0.60894 1.01579 0.62272 0.0
C788 C 0.59022 0.9785 0.63098 0.0
C789 C 0.58324 0.97668 0.65051 0.0
C790 C 0.59475 1.01195 0.6616 0.0
C791 C 0.61478 1.04945 0.65287 0.0
H792 H 0.62624 0.54188 0.90226 0.0
H793 H 0.73386 0.65923 0.90374 0.0
H794 H 0.7551 0.64754 0.9366 0.0
H795 H 0.60685 0.54398 0.95084 0.0
H796 H 0.58927 0.49165 0.95405 0.0
H797 H 0.58407 0.50894 0.93044 0.0
H798 H 0.62292 0.47741 0.9169 0.0
H799 H 0.62851 0.46024 0.94054 0.0
H800 H 0.6723 0.49112 0.92794 0.0
H801 H 0.76273 0.62367 0.96999 0.0
H802 H 0.7542 0.5915 1.00153 0.0
H803 H 0.64244 0.48941 0.97729 0.0
C804 C 0.65433 0.56524 0.90942 0.0
C805 C 0.67832 0.60157 0.90044 0.0
C806 C 0.71489 0.63121 0.91037 0.0
C807 C 0.72731 0.62474 0.92898 0.0
C808 C 0.70294 0.58843 0.93736 0.0
C809 C 0.66717 0.55926 0.92788 0.0
C810 C 0.64559 0.52341 0.94018 0.0
C811 C 0.604 0.51663 0.94411 0.0
C812 C 0.64215 0.48583 0.93083 0.0
C813 C 0.67432 0.53728 0.95832 0.0
C814 C 0.70747 0.57464 0.95637 0.0
C815 C 0.73713 0.59424 0.9716 0.0
C816 C 0.73217 0.57561 0.98942 0.0
C817 C 0.6977 0.53792 0.99185 0.0
C818 C 0.66905 0.51827 0.9759 0.0
H819 H 1.07578 0.56155 0.23358 0.0
H820 H 0.20265 0.60168 0.23205 0.0
H821 H 0.2078 0.5914 0.26722 0.0
H822 H 1.08347 0.60798 0.27795 0.0
H823 H 1.03705 0.56775 0.28552 0.0
H824 H 1.04316 0.57585 0.26018 0.0
H825 H 1.02642 0.50273 0.25477 0.0
H826 H 1.02015 0.49428 0.28012 0.0
H827 H 1.05507 0.48471 0.26889 0.0
H828 H 0.19965 0.58172 0.30302 0.0
H829 H 0.17902 0.57246 0.33623 0.0
H830 H 1.05659 0.53522 0.31338 0.0
C831 C 1.10468 0.56801 0.24057 0.0
C832 C 0.13892 0.58263 0.23015 0.0
C833 C 0.17606 0.59042 0.23981 0.0
C834 C 0.17923 0.58464 0.25974 0.0
C835 C 0.14486 0.57056 0.26961 0.0
C836 C 0.10824 0.56204 0.26028 0.0
C837 C 1.076 0.54831 0.27413 0.0
C838 C 1.05894 0.57667 0.27446 0.0
C839 C 1.04244 0.50493 0.26918 0.0
C840 C 1.1004 0.55139 0.29288 0.0
C841 C 0.13998 0.56407 0.29001 0.0
C842 C 0.16859 0.57115 0.3054 0.0
C843 C 0.15649 0.56554 0.32422 0.0
C844 C 0.11609 0.55292 0.32747 0.0
C845 C 1.08774 0.54517 0.31147 0.0
loop_
_geom_bond_atom_site_label_1
_geom_bond_atom_site_label_2
_geom_bond_distance
_geom_bond_site_symmetry_2
_ccdc_geom_bond_type
Tb0 C10 2.825 . S
Tb0 O11 2.347 . S
Tb0 O14 2.366 . S
Tb0 O19 2.418 . S
Tb0 O20 2.384 1_455 S
Tb0 O23 2.479 . S
Tb0 O24 2.471 . S
Eu1 O12 2.418 . S
Eu1 O13 2.384 1_655 S
Eu1 O16 2.479 . S
Eu1 O17 2.471 . S
Eu1 O18 2.347 1_655 S
Eu1 O21 2.366 . S
Eu1 C31 2.825 . S
C2 O18 1.259 . S
C2 O19 1.265 . S
C3 O20 1.255 . S
C3 O21 1.265 . S
C4 C6 1.380 . S
C4 C7 1.374 . S
C4 C10 1.507 . S
C5 C6 1.384 . S
C5 C9 1.387 . S
C5 H32 0.930 . S
C6 C4 1.380 . S
C6 C5 1.384 . S
C6 H33 0.931 . S
C7 C4 1.374 . S
C7 C8 1.390 . S
C7 H34 0.930 . S
C8 C7 1.390 . S
C8 C9 1.391 . S
C8 H35 0.930 . S
C9 C5 1.387 . S
C9 C8 1.391 . S
C10 Tb0 2.825 . S
C10 C4 1.507 . S
C10 O23 1.238 . S
C10 O24 1.247 . S
O11 Tb0 2.347 . S
O11 C15 1.259 . S
O12 Eu1 2.418 . S
O12 C15 1.265 1_655 S
O13 Eu1 2.384 1_455 S
O13 C22 1.255 . S
O14 Tb0 2.366 . S
O14 C22 1.265 . S
C15 O11 1.259 . S
C15 O12 1.265 1_455 S
O16 Eu1 2.479 . S
O16 C31 1.238 . S
O17 Eu1 2.471 . S
O17 C31 1.247 . S
O18 Eu1 2.347 1_455 S
O18 C2 1.259 . S
O19 Tb0 2.418 . S
O19 C2 1.265 . S
O20 Tb0 2.384 1_655 S
O20 C3 1.255 . S
O21 Eu1 2.366 . S
O21 C3 1.265 . S
C22 O13 1.255 . S
C22 O14 1.265 . S
O23 Tb0 2.479 . S
O23 C10 1.238 . S
O24 Tb0 2.471 . S
O24 C10 1.247 . S
C25 C28 1.380 . S
C25 C29 1.374 . S
C25 C31 1.507 . S
C26 C27 1.387 . S
C26 C30 1.391 . S
C27 C26 1.387 . S
C27 C28 1.384 . S
C27 H36 0.930 . S
C28 C25 1.380 . S
C28 C27 1.384 . S
C28 H37 0.931 . S
C29 C25 1.374 . S
C29 C30 1.390 . S
C29 H38 0.930 . S
C30 C26 1.391 . S
C30 C29 1.390 . S
C30 H39 0.930 . S
C31 Eu1 2.825 . S
C31 O16 1.238 . S
C31 O17 1.247 . S
C31 C25 1.507 . S
H32 C5 0.930 . S
H33 C6 0.931 . S
H34 C7 0.930 . S
H35 C8 0.930 . S
H36 C27 0.930 . S
H37 C28 0.931 . S
H38 C29 0.930 . S
H39 C30 0.930 . S
Tb40 C50 2.825 . S
Tb40 O51 2.347 . S
Tb40 O54 2.366 . S
Tb40 O59 2.418 . S
Tb40 O60 2.384 1_545 S
Tb40 O63 2.479 . S
Tb40 O64 2.471 . S
Eu41 O52 2.418 . S
Eu41 O53 2.384 . S
Eu41 O56 2.479 1_545 S
Eu41 O57 2.471 1_545 S
Eu41 O58 2.347 . S
Eu41 O61 2.366 1_545 S
Eu41 C71 2.825 1_545 S
C42 O58 1.259 . S
C42 O59 1.265 . S
C43 O60 1.255 . S
C43 O61 1.265 . S
C44 C46 1.380 . S
C44 C47 1.374 . S
C44 C50 1.507 . S
C45 C46 1.384 . S
C45 C49 1.387 . S
C45 H72 0.930 . S
C46 C44 1.380 . S
C46 C45 1.384 . S
C46 H73 0.931 . S
C47 C44 1.374 . S
C47 C48 1.390 . S
C47 H74 0.930 . S
C48 C47 1.390 . S
C48 C49 1.391 . S
C48 H75 0.930 . S
C49 C45 1.387 . S
C49 C48 1.391 . S
C50 Tb40 2.825 . S
C50 C44 1.507 . S
C50 O63 1.238 . S
C50 O64 1.247 . S
O51 Tb40 2.347 . S
O51 C55 1.259 . S
O52 Eu41 2.418 . S
O52 C55 1.265 . S
O53 Eu41 2.384 . S
O53 C62 1.255 . S
O54 Tb40 2.366 . S
O54 C62 1.265 . S
C55 O51 1.259 . S
C55 O52 1.265 . S
O56 Eu41 2.479 1_565 S
O56 C71 1.238 . S
O57 Eu41 2.471 1_565 S
O57 C71 1.247 . S
O58 Eu41 2.347 . S
O58 C42 1.259 . S
O59 Tb40 2.418 . S
O59 C42 1.265 . S
O60 Tb40 2.384 1_565 S
O60 C43 1.255 . S
O61 Eu41 2.366 1_565 S
O61 C43 1.265 . S
C62 O53 1.255 . S
C62 O54 1.265 . S
O63 Tb40 2.479 . S
O63 C50 1.238 . S
O64 Tb40 2.471 . S
O64 C50 1.247 . S
C65 C68 1.380 . S
C65 C69 1.374 . S
C65 C71 1.507 . S
C66 C67 1.387 . S
C66 C70 1.391 . S
C67 C66 1.387 . S
C67 C68 1.384 . S
C67 H76 0.930 . S
C68 C65 1.380 . S
C68 C67 1.384 . S
C68 H77 0.931 . S
C69 C65 1.374 . S
C69 C70 1.390 . S
C69 H78 0.930 . S
C70 C66 1.391 . S
C70 C69 1.390 . S
C70 H79 0.930 . S
C71 Eu41 2.825 1_565 S
C71 O56 1.238 . S
C71 O57 1.247 . S
C71 C65 1.507 . S
H72 C45 0.930 . S
H73 C46 0.931 . S
H74 C47 0.930 . S
H75 C48 0.930 . S
H76 C67 0.930 . S
H77 C68 0.931 . S
H78 C69 0.930 . S
H79 C70 0.930 . S
Tb80 C90 2.825 . S
Tb80 O91 2.347 . S
Tb80 O94 2.366 . S
Tb80 O99 2.418 . S
Tb80 O100 2.384 . S
Tb80 O103 2.479 . S
Tb80 O104 2.471 . S
Eu81 O92 2.418 . S
Eu81 O93 2.384 . S
Eu81 O96 2.479 . S
Eu81 O97 2.471 . S
Eu81 O98 2.347 . S
Eu81 O101 2.366 . S
Eu81 C111 2.825 . S
C82 O98 1.259 . S
C82 O99 1.265 . S
C83 O100 1.255 . S
C83 O101 1.265 . S
C84 C86 1.380 . S
C84 C87 1.374 . S
C84 C90 1.507 . S
C85 C86 1.384 . S
C85 C89 1.387 . S
C85 H112 0.930 . S
C86 C84 1.380 . S
C86 C85 1.384 . S
C86 H113 0.931 . S
C87 C84 1.374 . S
C87 C88 1.390 . S
C87 H114 0.930 . S
C88 C87 1.390 . S
C88 C89 1.391 . S
C88 H115 0.930 . S
C89 C85 1.387 . S
C89 C88 1.391 . S
C90 Tb80 2.825 . S
C90 C84 1.507 . S
C90 O103 1.238 . S
C90 O104 1.247 . S
O91 Tb80 2.347 . S
O91 C95 1.259 . S
O92 Eu81 2.418 . S
O92 C95 1.265 . S
O93 Eu81 2.384 . S
O93 C102 1.255 . S
O94 Tb80 2.366 . S
O94 C102 1.265 . S
C95 O91 1.259 . S
C95 O92 1.265 . S
O96 Eu81 2.479 . S
O96 C111 1.238 . S
O97 Eu81 2.471 . S
O97 C111 1.247 . S
O98 Eu81 2.347 . S
O98 C82 1.259 . S
O99 Tb80 2.418 . S
O99 C82 1.265 . S
O100 Tb80 2.384 . S
O100 C83 1.255 . S
O101 Eu81 2.366 . S
O101 C83 1.265 . S
C102 O93 1.255 . S
C102 O94 1.265 . S
O103 Tb80 2.479 . S
O103 C90 1.238 . S
O104 Tb80 2.471 . S
O104 C90 1.247 . S
C105 C108 1.380 . S
C105 C109 1.374 . S
C105 C111 1.507 . S
C106 C107 1.387 . S
C106 C110 1.391 . S
C107 C106 1.387 . S
C107 C108 1.384 . S
C107 H116 0.930 . S
C108 C105 1.380 . S
C108 C107 1.384 . S
C108 H117 0.931 . S
C109 C105 1.374 . S
C109 C110 1.390 . S
C109 H118 0.930 . S
C110 C106 1.391 . S
C110 C109 1.390 . S
C110 H119 0.930 . S
C111 Eu81 2.825 . S
C111 O96 1.238 . S
C111 O97 1.247 . S
C111 C105 1.507 . S
H112 C85 0.930 . S
H113 C86 0.931 . S
H114 C87 0.930 . S
H115 C88 0.930 . S
H116 C107 0.930 . S
H117 C108 0.931 . S
H118 C109 0.930 . S
H119 C110 0.930 . S
C120 C121 1.264 . S
C120 C125 1.479 . S
C120 C130 1.465 . S
C121 C120 1.264 . S
C121 C123 1.339 . S
C121 H148 0.931 . S
C122 C123 1.395 . S
C122 C124 1.320 . S
C123 C121 1.339 . S
C123 C122 1.395 . S
C123 H149 0.929 . S
C124 C122 1.320 . S
C124 C125 1.405 . S
C124 H150 0.930 . S
C125 C120 1.479 . S
C125 C124 1.405 . S
C125 H151 0.931 . S
U126 O127 2.454 1_545 S
U126 O128 2.458 1_545 S
U126 C129 2.984 1_545 S
U126 C130 2.847 . S
U126 C143 2.882 . S
U126 O144 2.441 . S
U126 O145 2.420 . S
U126 O146 2.455 . S
U126 O147 2.449 . S
O127 U126 2.454 1_565 S
O127 C129 1.353 . S
O128 U126 2.458 1_565 S
O128 C129 1.286 . S
C129 U126 2.984 1_565 S
C129 O127 1.353 . S
C129 O128 1.286 . S
C129 C131 1.363 . S
C130 C120 1.465 . S
C130 U126 2.847 . S
C130 O144 1.249 . S
C130 O145 1.202 . S
C131 C129 1.363 . S
C131 C133 1.408 . S
C131 C136 1.342 . S
C132 C133 1.310 . S
C132 C135 1.461 . S
C132 H152 0.932 . S
C133 C131 1.408 . S
C133 C132 1.310 . S
C133 H153 0.930 . S
C134 C135 1.474 . S
C134 C136 1.285 . S
C134 H154 0.929 . S
C135 C132 1.461 . S
C135 C134 1.474 . S
C136 C131 1.342 . S
C136 C134 1.285 . S
C136 H155 0.930 . S
C137 C140 1.424 . S
C137 C142 1.245 . S
C137 C143 1.428 . S
C138 C141 1.260 . S
C138 C142 1.477 . S
C138 H156 0.932 1_545 S
C139 C140 1.384 . S
C139 C141 1.479 . S
C139 H157 0.929 . S
C140 C137 1.424 . S
C140 C139 1.384 . S
C140 H158 0.928 . S
C141 C138 1.260 . S
C141 C139 1.479 . S
C142 C137 1.245 . S
C142 C138 1.477 . S
C142 H159 0.932 1_545 S
C143 U126 2.882 . S
C143 C137 1.428 . S
C143 O146 1.301 . S
C143 O147 1.282 . S
O144 U126 2.441 . S
O144 C130 1.249 . S
O145 U126 2.420 . S
O145 C130 1.202 . S
O146 U126 2.455 . S
O146 C143 1.301 . S
O147 U126 2.449 . S
O147 C143 1.282 . S
H148 C121 0.931 . S
H149 C123 0.929 . S
H150 C124 0.930 . S
H151 C125 0.931 . S
H152 C132 0.932 . S
H153 C133 0.930 . S
H154 C134 0.929 . S
H155 C136 0.930 . S
H156 C138 0.932 1_565 S
H157 C139 0.929 . S
H158 C140 0.928 . S
H159 C142 0.932 1_565 S
C160 C161 1.264 . S
C160 C165 1.479 . S
C160 C170 1.465 . S
C161 C160 1.264 . S
C161 C163 1.339 . S
C161 H188 0.931 . S
C162 C163 1.395 . S
C162 C164 1.320 . S
C163 C161 1.339 . S
C163 C162 1.395 . S
C163 H189 0.929 . S
C164 C162 1.320 . S
C164 C165 1.405 . S
C164 H190 0.930 . S
C165 C160 1.479 . S
C165 C164 1.405 . S
C165 H191 0.931 . S
U166 O167 2.454 . S
U166 O168 2.458 . S
U166 C169 2.984 . S
U166 C170 2.847 . S
U166 C183 2.882 . S
U166 O184 2.441 . S
U166 O185 2.420 . S
U166 O186 2.455 . S
U166 O187 2.449 . S
O167 U166 2.454 . S
O167 C169 1.353 . S
O168 U166 2.458 . S
O168 C169 1.286 . S
C169 U166 2.984 . S
C169 O167 1.353 . S
C169 O168 1.286 . S
C169 C171 1.363 . S
C170 C160 1.465 . S
C170 U166 2.847 . S
C170 O184 1.249 . S
C170 O185 1.202 . S
C171 C169 1.363 . S
C171 C173 1.408 . S
C171 C176 1.342 . S
C172 C173 1.310 . S
C172 C175 1.461 . S
C172 H192 0.932 . S
C173 C171 1.408 . S
C173 C172 1.310 . S
C173 H193 0.930 . S
C174 C175 1.474 . S
C174 C176 1.285 . S
C174 H194 0.929 . S
C175 C172 1.461 . S
C175 C174 1.474 . S
C176 C171 1.342 . S
C176 C174 1.285 . S
C176 H195 0.930 . S
C177 C180 1.424 . S
C177 C182 1.245 . S
C177 C183 1.428 . S
C178 C181 1.260 . S
C178 C182 1.477 . S
C178 H196 0.932 . S
C179 C180 1.384 . S
C179 C181 1.479 . S
C179 H197 0.929 . S
C180 C177 1.424 . S
C180 C179 1.384 . S
C180 H198 0.928 . S
C181 C178 1.260 . S
C181 C179 1.479 . S
C182 C177 1.245 . S
C182 C178 1.477 . S
C182 H199 0.932 . S
C183 U166 2.882 . S
C183 C177 1.428 . S
C183 O186 1.301 . S
C183 O187 1.282 . S
O184 U166 2.441 . S
O184 C170 1.249 . S
O185 U166 2.420 . S
O185 C170 1.202 . S
O186 U166 2.455 . S
O186 C183 1.301 . S
O187 U166 2.449 . S
O187 C183 1.282 . S
H188 C161 0.931 . S
H189 C163 0.929 . S
H190 C164 0.930 . S
H191 C165 0.931 . S
H192 C172 0.932 . S
H193 C173 0.930 . S
H194 C174 0.929 . S
H195 C176 0.930 . S
H196 C178 0.932 . S
H197 C179 0.929 . S
H198 C180 0.928 . S
H199 C182 0.932 . S
C200 C201 1.264 . S
C200 C205 1.479 . S
C200 C210 1.465 . S
C201 C200 1.264 . S
C201 C203 1.339 . S
C201 H228 0.931 . S
C202 C203 1.395 . S
C202 C204 1.320 . S
C203 C201 1.339 . S
C203 C202 1.395 . S
C203 H229 0.929 . S
C204 C202 1.320 . S
C204 C205 1.405 . S
C204 H230 0.930 . S
C205 C200 1.479 . S
C205 C204 1.405 . S
C205 H231 0.931 . S
U206 O207 2.454 . S
U206 O208 2.458 . S
U206 C209 2.984 . S
U206 C210 2.847 1_455 S
U206 C223 2.882 . S
U206 O224 2.441 1_455 S
U206 O225 2.420 1_455 S
U206 O226 2.455 . S
U206 O227 2.449 1_455 S
O207 U206 2.454 . S
O207 C209 1.353 . S
O208 U206 2.458 . S
O208 C209 1.286 . S
C209 U206 2.984 . S
C209 O207 1.353 . S
C209 O208 1.286 . S
C209 C211 1.363 . S
C210 C200 1.465 . S
C210 U206 2.847 1_655 S
C210 O224 1.249 . S
C210 O225 1.202 . S
C211 C209 1.363 . S
C211 C213 1.408 . S
C211 C216 1.342 . S
C212 C213 1.310 . S
C212 C215 1.461 . S
C212 H232 0.932 . S
C213 C211 1.408 . S
C213 C212 1.310 . S
C213 H233 0.930 . S
C214 C215 1.474 . S
C214 C216 1.285 . S
C214 H234 0.929 . S
C215 C212 1.461 . S
C215 C214 1.474 . S
C216 C211 1.342 . S
C216 C214 1.285 . S
C216 H235 0.930 . S
C217 C220 1.424 1_455 S
C217 C222 1.245 . S
C217 C223 1.428 . S
C218 C221 1.260 . S
C218 C222 1.477 . S
C218 H236 0.932 . S
C219 C220 1.384 . S
C219 C221 1.479 1_655 S
C219 H237 0.929 . S
C220 C217 1.424 1_655 S
C220 C219 1.384 . S
C220 H238 0.928 . S
C221 C218 1.260 . S
C221 C219 1.479 1_455 S
C222 C217 1.245 . S
C222 C218 1.477 . S
C222 H239 0.932 . S
C223 U206 2.882 . S
C223 C217 1.428 . S
C223 O226 1.301 . S
C223 O227 1.282 1_455 S
O224 U206 2.441 1_655 S
O224 C210 1.249 . S
O225 U206 2.420 1_655 S
O225 C210 1.202 . S
O226 U206 2.455 . S
O226 C223 1.301 . S
O227 U206 2.449 1_655 S
O227 C223 1.282 1_655 S
H228 C201 0.931 . S
H229 C203 0.929 . S
H230 C204 0.930 . S
H231 C205 0.931 . S
H232 C212 0.932 . S
H233 C213 0.930 . S
H234 C214 0.929 . S
H235 C216 0.930 . S
H236 C218 0.932 . S
H237 C219 0.929 . S
H238 C220 0.928 . S
H239 C222 0.932 . S
C240 C241 1.264 . S
C240 C245 1.479 . S
C240 C250 1.465 . S
C241 C240 1.264 . S
C241 C243 1.339 . S
C241 H268 0.931 . S
C242 C243 1.395 . S
C242 C244 1.320 . S
C243 C241 1.339 . S
C243 C242 1.395 . S
C243 H269 0.929 . S
C244 C242 1.320 . S
C244 C245 1.405 . S
C244 H270 0.930 . S
C245 C240 1.479 . S
C245 C244 1.405 . S
C245 H271 0.931 . S
U246 O247 2.454 1_655 S
U246 O248 2.458 1_655 S
U246 C249 2.984 1_655 S
U246 C250 2.847 . S
U246 C263 2.882 . S
U246 O264 2.441 . S
U246 O265 2.420 . S
U246 O266 2.455 1_655 S
U246 O267 2.449 . S
O247 U246 2.454 1_455 S
O247 C249 1.353 . S
O248 U246 2.458 1_455 S
O248 C249 1.286 . S
C249 U246 2.984 1_455 S
C249 O247 1.353 . S
C249 O248 1.286 . S
C249 C251 1.363 . S
C250 C240 1.465 . S
C250 U246 2.847 . S
C250 O264 1.249 . S
C250 O265 1.202 . S
C251 C249 1.363 . S
C251 C253 1.408 . S
C251 C256 1.342 . S
C252 C253 1.310 . S
C252 C255 1.461 . S
C252 H272 0.932 . S
C253 C251 1.408 . S
C253 C252 1.310 . S
C253 H273 0.930 . S
C254 C255 1.474 . S
C254 C256 1.285 . S
C254 H274 0.929 . S
C255 C252 1.461 . S
C255 C254 1.474 . S
C256 C251 1.342 . S
C256 C254 1.285 . S
C256 H275 0.930 . S
C257 C260 1.424 . S
C257 C262 1.245 1_655 S
C257 C263 1.428 . S
C258 C261 1.260 1_455 S
C258 C262 1.477 . S
C258 H276 0.932 . S
C259 C260 1.384 . S
C259 C261 1.479 . S
C259 H277 0.929 . S
C260 C257 1.424 . S
C260 C259 1.384 . S
C260 H278 0.928 . S
C261 C258 1.260 1_655 S
C261 C259 1.479 . S
C262 C257 1.245 1_455 S
C262 C258 1.477 . S
C262 H279 0.932 . S
C263 U246 2.882 . S
C263 C257 1.428 . S
C263 O266 1.301 1_655 S
C263 O267 1.282 . S
O264 U246 2.441 . S
O264 C250 1.249 . S
O265 U246 2.420 . S
O265 C250 1.202 . S
O266 U246 2.455 1_455 S
O266 C263 1.301 1_455 S
O267 U246 2.449 . S
O267 C263 1.282 . S
H268 C241 0.931 . S
H269 C243 0.929 . S
H270 C244 0.930 . S
H271 C245 0.931 . S
H272 C252 0.932 . S
H273 C253 0.930 . S
H274 C254 0.929 . S
H275 C256 0.930 . S
H276 C258 0.932 . S
H277 C259 0.929 . S
H278 C260 0.928 . S
H279 C262 0.932 . S
C280 C281 1.264 . S
C280 C285 1.479 . S
C280 C290 1.465 . S
C281 C280 1.264 . S
C281 C283 1.339 . S
C281 H308 0.931 . S
C282 C283 1.395 . S
C282 C284 1.320 . S
C283 C281 1.339 . S
C283 C282 1.395 . S
C283 H309 0.929 . S
C284 C282 1.320 . S
C284 C285 1.405 . S
C284 H310 0.930 . S
C285 C280 1.479 . S
C285 C284 1.405 . S
C285 H311 0.931 . S
U286 O287 2.454 1_565 S
U286 O288 2.458 1_565 S
U286 C289 2.984 1_565 S
U286 C290 2.847 . S
U286 C303 2.882 . S
U286 O304 2.441 . S
U286 O305 2.420 . S
U286 O306 2.455 1_565 S
U286 O307 2.449 . S
O287 U286 2.454 1_545 S
O287 C289 1.353 . S
O288 U286 2.458 1_545 S
O288 C289 1.286 . S
C289 U286 2.984 1_545 S
C289 O287 1.353 . S
C289 O288 1.286 . S
C289 C291 1.363 . S
C290 C280 1.465 . S
C290 U286 2.847 . S
C290 O304 1.249 . S
C290 O305 1.202 . S
C291 C289 1.363 . S
C291 C293 1.408 . S
C291 C296 1.342 . S
C292 C293 1.310 . S
C292 C295 1.461 . S
C292 H312 0.932 . S
C293 C291 1.408 . S
C293 C292 1.310 . S
C293 H313 0.930 . S
C294 C295 1.474 . S
C294 C296 1.285 . S
C294 H314 0.929 . S
C295 C292 1.461 . S
C295 C294 1.474 . S
C296 C291 1.342 . S
C296 C294 1.285 . S
C296 H315 0.930 . S
C297 C300 1.424 . S
C297 C302 1.245 1_565 S
C297 C303 1.428 . S
C298 C301 1.231 1_545 S
C298 C302 1.477 . S
C298 H316 0.932 . S
C299 C300 1.384 . S
C299 C301 1.508 . S
C299 H317 0.929 . S
C300 C297 1.424 . S
C300 C299 1.384 . S
C300 H318 0.928 . S
C301 C298 1.231 1_565 S
C301 C299 1.508 . S
C302 C297 1.245 1_545 S
C302 C298 1.477 . S
C302 H319 0.932 . S
C303 U286 2.882 . S
C303 C297 1.428 . S
C303 O306 1.301 1_565 S
C303 O307 1.282 . S
O304 U286 2.441 . S
O304 C290 1.249 . S
O305 U286 2.420 . S
O305 C290 1.202 . S
O306 U286 2.455 1_545 S
O306 C303 1.301 1_545 S
O307 U286 2.449 . S
O307 C303 1.282 . S
H308 C281 0.931 . S
H309 C283 0.929 . S
H310 C284 0.930 . S
H311 C285 0.931 . S
H312 C292 0.932 . S
H313 C293 0.930 . S
H314 C294 0.929 . S
H315 C296 0.930 . S
H316 C298 0.932 . S
H317 C299 0.929 . S
H318 C300 0.928 . S
H319 C302 0.932 . S
C320 C321 1.264 . S
C320 C325 1.479 . S
C320 C330 1.465 . S
C321 C320 1.264 . S
C321 C323 1.339 . S
C321 H348 0.931 . S
C322 C323 1.395 . S
C322 C324 1.320 . S
C323 C321 1.339 . S
C323 C322 1.395 . S
C323 H349 0.929 . S
C324 C322 1.320 . S
C324 C325 1.405 . S
C324 H350 0.930 . S
C325 C320 1.479 . S
C325 C324 1.405 . S
C325 H351 0.931 . S
U326 O327 2.454 . S
U326 O328 2.458 . S
U326 C329 2.984 . S
U326 C330 2.847 . S
U326 C343 2.882 . S
U326 O344 2.441 . S
U326 O345 2.420 . S
U326 O346 2.455 . S
U326 O347 2.449 . S
O327 U326 2.454 . S
O327 C329 1.353 . S
O328 U326 2.458 . S
O328 C329 1.286 . S
C329 U326 2.984 . S
C329 O327 1.353 . S
C329 O328 1.286 . S
C329 C331 1.363 . S
C330 C320 1.465 . S
C330 U326 2.847 . S
C330 O344 1.249 . S
C330 O345 1.202 . S
C331 C329 1.363 . S
C331 C333 1.408 . S
C331 C336 1.342 . S
C332 C333 1.310 . S
C332 C335 1.461 . S
C332 H352 0.932 . S
C333 C331 1.408 . S
C333 C332 1.310 . S
C333 H353 0.930 . S
C334 C335 1.474 . S
C334 C336 1.285 . S
C334 H354 0.929 . S
C335 C332 1.461 . S
C335 C334 1.474 . S
C336 C331 1.342 . S
C336 C334 1.285 . S
C336 H355 0.930 . S
C337 C340 1.424 . S
C337 C342 1.245 . S
C337 C343 1.428 . S
C338 C341 1.260 1_554 S
C338 C342 1.477 . S
C338 H356 0.938 . S
C339 C340 1.384 . S
C339 C341 1.479 1_554 S
C339 H357 0.929 . S
C340 C337 1.424 . S
C340 C339 1.384 . S
C340 H358 0.928 . S
C341 C338 1.260 1_556 S
C341 C339 1.479 1_556 S
C342 C337 1.245 . S
C342 C338 1.477 . S
C342 H359 0.932 . S
C343 U326 2.882 . S
C343 C337 1.428 . S
C343 O346 1.301 . S
C343 O347 1.282 . S
O344 U326 2.441 . S
O344 C330 1.249 . S
O345 U326 2.420 . S
O345 C330 1.202 . S
O346 U326 2.455 . S
O346 C343 1.301 . S
O347 U326 2.449 . S
O347 C343 1.282 . S
H348 C321 0.931 . S
H349 C323 0.929 . S
H350 C324 0.930 . S
H351 C325 0.931 . S
H352 C332 0.932 . S
H353 C333 0.930 . S
H354 C334 0.929 . S
H355 C336 0.930 . S
H356 C338 0.938 . S
H357 C339 0.929 . S
H358 C340 0.928 . S
H359 C342 0.932 . S
H360 C372 0.930 . S
H361 C374 0.930 . S
H362 C375 0.930 . S
H363 C379 0.959 . S
H364 C379 0.959 . S
H365 C379 0.961 . S
H366 C380 0.960 . S
H367 C380 0.961 . S
H368 C380 0.959 . S
H369 C383 0.929 . S
H370 C384 0.931 . S
H371 C386 0.930 . S
C372 H360 0.930 . S
C372 C373 1.399 . S
C372 C377 1.399 . S
C373 C372 1.399 . S
C373 C374 1.376 . S
C374 H361 0.930 . S
C374 C373 1.376 . S
C374 C375 1.388 . S
C375 H362 0.930 . S
C375 C374 1.388 . S
C375 C376 1.390 . S
C376 C375 1.390 . S
C376 C377 1.394 . S
C376 C382 1.465 . S
C377 C372 1.399 . S
C377 C376 1.394 . S
C377 C378 1.516 . S
C378 C377 1.516 . S
C378 C379 1.502 . S
C378 C380 1.561 . S
C378 C381 1.526 . S
C379 H363 0.959 . S
C379 H364 0.959 . S
C379 H365 0.961 . S
C379 C378 1.502 . S
C380 H366 0.960 . S
C380 H367 0.961 . S
C380 H368 0.959 . S
C380 C378 1.561 . S
C381 C378 1.526 . S
C381 C382 1.396 . S
C381 C386 1.390 . S
C382 C376 1.465 . S
C382 C381 1.396 . S
C382 C383 1.399 . S
C383 H369 0.929 . S
C383 C382 1.399 . S
C383 C384 1.385 . S
C384 H370 0.931 . S
C384 C383 1.385 . S
C384 C385 1.389 . S
C385 C384 1.389 . S
C385 C386 1.387 . S
C386 H371 0.930 . S
C386 C381 1.390 . S
C386 C385 1.387 . S
H387 C399 0.930 . S
H388 C401 0.930 . S
H389 C402 0.930 . S
H390 C406 0.959 . S
H391 C406 0.959 . S
H392 C406 0.961 . S
H393 C407 0.960 . S
H394 C407 0.961 . S
H395 C407 0.959 . S
H396 C410 0.929 . S
H397 C411 0.931 . S
H398 C413 0.930 . S
C399 H387 0.930 . S
C399 C400 1.399 . S
C399 C404 1.399 . S
C400 C399 1.399 . S
C400 C401 1.376 . S
C401 H388 0.930 . S
C401 C400 1.376 . S
C401 C402 1.388 . S
C402 H389 0.930 . S
C402 C401 1.388 . S
C402 C403 1.390 . S
C403 C402 1.390 . S
C403 C404 1.394 . S
C403 C409 1.465 . S
C404 C399 1.399 . S
C404 C403 1.394 . S
C404 C405 1.516 . S
C405 C404 1.516 . S
C405 C406 1.502 . S
C405 C407 1.561 . S
C405 C408 1.526 . S
C406 H390 0.959 . S
C406 H391 0.959 . S
C406 H392 0.961 . S
C406 C405 1.502 . S
C407 H393 0.960 . S
C407 H394 0.961 . S
C407 H395 0.959 . S
C407 C405 1.561 . S
C408 C405 1.526 . S
C408 C409 1.396 . S
C408 C413 1.390 . S
C409 C403 1.465 . S
C409 C408 1.396 . S
C409 C410 1.399 . S
C410 H396 0.929 . S
C410 C409 1.399 . S
C410 C411 1.385 . S
C411 H397 0.931 . S
C411 C410 1.385 . S
C411 C412 1.389 . S
C412 C411 1.389 . S
C412 C413 1.387 . S
C413 H398 0.930 . S
C413 C408 1.390 . S
C413 C412 1.387 . S
H414 C426 0.930 . S
H415 C428 0.930 . S
H416 C429 0.930 . S
H417 C433 0.959 . S
H418 C433 0.959 . S
H419 C433 0.961 . S
H420 C434 0.960 . S
H421 C434 0.961 . S
H422 C434 0.959 . S
H423 C437 0.929 . S
H424 C438 0.931 . S
H425 C440 0.930 . S
C426 H414 0.930 . S
C426 C427 1.399 . S
C426 C431 1.399 . S
C427 C426 1.399 . S
C427 C428 1.376 . S
C428 H415 0.930 . S
C428 C427 1.376 . S
C428 C429 1.388 . S
C429 H416 0.930 . S
C429 C428 1.388 . S
C429 C430 1.390 . S
C430 C429 1.390 . S
C430 C431 1.394 . S
C430 C436 1.465 . S
C431 C426 1.399 . S
C431 C430 1.394 . S
C431 C432 1.516 . S
C432 C431 1.516 . S
C432 C433 1.502 . S
C432 C434 1.561 . S
C432 C435 1.526 . S
C433 H417 0.959 . S
C433 H418 0.959 . S
C433 H419 0.961 . S
C433 C432 1.502 . S
C434 H420 0.960 . S
C434 H421 0.961 . S
C434 H422 0.959 . S
C434 C432 1.561 . S
C435 C432 1.526 . S
C435 C436 1.396 . S
C435 C440 1.390 . S
C436 C430 1.465 . S
C436 C435 1.396 . S
C436 C437 1.399 . S
C437 H423 0.929 . S
C437 C436 1.399 . S
C437 C438 1.385 . S
C438 H424 0.931 . S
C438 C437 1.385 . S
C438 C439 1.389 . S
C439 C438 1.389 . S
C439 C440 1.387 . S
C440 H425 0.930 . S
C440 C435 1.390 . S
C440 C439 1.387 . S
H441 C453 0.930 . S
H442 C455 0.930 . S
H443 C456 0.930 . S
H444 C460 0.959 . S
H445 C460 0.959 . S
H446 C460 0.961 . S
H447 C461 0.960 . S
H448 C461 0.961 . S
H449 C461 0.959 . S
H450 C464 0.929 . S
H451 C465 0.931 . S
H452 C467 0.930 . S
C453 H441 0.930 . S
C453 C454 1.399 . S
C453 C458 1.399 . S
C454 C453 1.399 . S
C454 C455 1.376 . S
C455 H442 0.930 . S
C455 C454 1.376 . S
C455 C456 1.388 . S
C456 H443 0.930 . S
C456 C455 1.388 . S
C456 C457 1.390 . S
C457 C456 1.390 . S
C457 C458 1.394 . S
C457 C463 1.465 . S
C458 C453 1.399 . S
C458 C457 1.394 . S
C458 C459 1.516 . S
C459 C458 1.516 . S
C459 C460 1.502 . S
C459 C461 1.561 . S
C459 C462 1.526 . S
C460 H444 0.959 . S
C460 H445 0.959 . S
C460 H446 0.961 . S
C460 C459 1.502 . S
C461 H447 0.960 . S
C461 H448 0.961 . S
C461 H449 0.959 . S
C461 C459 1.561 . S
C462 C459 1.526 . S
C462 C463 1.396 . S
C462 C467 1.390 . S
C463 C457 1.465 . S
C463 C462 1.396 . S
C463 C464 1.399 . S
C464 H450 0.929 . S
C464 C463 1.399 . S
C464 C465 1.385 . S
C465 H451 0.931 . S
C465 C464 1.385 . S
C465 C466 1.389 . S
C466 C465 1.389 . S
C466 C467 1.387 . S
C467 H452 0.930 . S
C467 C462 1.390 . S
C467 C466 1.387 . S
H468 C480 0.930 . S
H469 C482 0.930 . S
H470 C483 0.930 . S
H471 C487 0.959 . S
H472 C487 0.959 . S
H473 C487 0.961 . S
H474 C488 0.960 . S
H475 C488 0.961 . S
H476 C488 0.959 . S
H477 C491 0.929 . S
H478 C492 0.931 . S
H479 C494 0.930 . S
C480 H468 0.930 . S
C480 C481 1.399 . S
C480 C485 1.399 . S
C481 C480 1.399 . S
C481 C482 1.376 . S
C482 H469 0.930 . S
C482 C481 1.376 . S
C482 C483 1.388 . S
C483 H470 0.930 . S
C483 C482 1.388 . S
C483 C484 1.390 . S
C484 C483 1.390 . S
C484 C485 1.394 . S
C484 C490 1.465 . S
C485 C480 1.399 . S
C485 C484 1.394 . S
C485 C486 1.516 . S
C486 C485 1.516 . S
C486 C487 1.502 . S
C486 C488 1.561 . S
C486 C489 1.526 . S
C487 H471 0.959 . S
C487 H472 0.959 . S
C487 H473 0.961 . S
C487 C486 1.502 . S
C488 H474 0.960 . S
C488 H475 0.961 . S
C488 H476 0.959 . S
C488 C486 1.561 . S
C489 C486 1.526 . S
C489 C490 1.396 . S
C489 C494 1.390 . S
C490 C484 1.465 . S
C490 C489 1.396 . S
C490 C491 1.399 . S
C491 H477 0.929 . S
C491 C490 1.399 . S
C491 C492 1.385 . S
C492 H478 0.931 . S
C492 C491 1.385 . S
C492 C493 1.389 . S
C493 C492 1.389 . S
C493 C494 1.387 . S
C494 H479 0.930 . S
C494 C489 1.390 . S
C494 C493 1.387 . S
H495 C507 0.930 . S
H496 C509 0.930 . S
H497 C510 0.930 . S
H498 C514 0.959 . S
H499 C514 0.959 . S
H500 C514 0.961 . S
H501 C515 0.960 . S
H502 C515 0.961 . S
H503 C515 0.959 . S
H504 C518 0.929 . S
H505 C519 0.931 . S
H506 C521 0.930 . S
C507 H495 0.930 . S
C507 C508 1.399 . S
C507 C512 1.399 . S
C508 C507 1.399 . S
C508 C509 1.376 . S
C509 H496 0.930 . S
C509 C508 1.376 . S
C509 C510 1.388 . S
C510 H497 0.930 . S
C510 C509 1.388 . S
C510 C511 1.390 . S
C511 C510 1.390 . S
C511 C512 1.394 . S
C511 C517 1.465 . S
C512 C507 1.399 . S
C512 C511 1.394 . S
C512 C513 1.516 . S
C513 C512 1.516 . S
C513 C514 1.502 . S
C513 C515 1.561 . S
C513 C516 1.526 . S
C514 H498 0.959 . S
C514 H499 0.959 . S
C514 H500 0.961 . S
C514 C513 1.502 . S
C515 H501 0.960 . S
C515 H502 0.961 . S
C515 H503 0.959 . S
C515 C513 1.561 . S
C516 C513 1.526 . S
C516 C517 1.396 . S
C516 C521 1.390 . S
C517 C511 1.465 . S
C517 C516 1.396 . S
C517 C518 1.399 . S
C518 H504 0.929 . S
C518 C517 1.399 . S
C518 C519 1.385 . S
C519 H505 0.931 . S
C519 C518 1.385 . S
C519 C520 1.389 . S
C520 C519 1.389 . S
C520 C521 1.387 . S
C521 H506 0.930 . S
C521 C516 1.390 . S
C521 C520 1.387 . S
H522 C534 0.930 . S
H523 C536 0.930 . S
H524 C537 0.930 . S
H525 C541 0.959 . S
H526 C541 0.959 . S
H527 C541 0.961 . S
H528 C542 0.960 . S
H529 C542 0.961 . S
H530 C542 0.959 . S
H531 C545 0.929 . S
H532 C546 0.931 . S
H533 C548 0.930 . S
C534 H522 0.930 . S
C534 C535 1.399 . S
C534 C539 1.399 . S
C535 C534 1.399 . S
C535 C536 1.376 . S
C536 H523 0.930 . S
C536 C535 1.376 . S
C536 C537 1.388 . S
C537 H524 0.930 . S
C537 C536 1.388 . S
C537 C538 1.390 . S
C538 C537 1.390 . S
C538 C539 1.394 . S
C538 C544 1.465 . S
C539 C534 1.399 . S
C539 C538 1.394 . S
C539 C540 1.516 . S
C540 C539 1.516 . S
C540 C541 1.502 . S
C540 C542 1.561 . S
C540 C543 1.526 . S
C541 H525 0.959 . S
C541 H526 0.959 . S
C541 H527 0.961 . S
C541 C540 1.502 . S
C542 H528 0.960 . S
C542 H529 0.961 . S
C542 H530 0.959 . S
C542 C540 1.561 . S
C543 C540 1.526 . S
C543 C544 1.396 . S
C543 C548 1.390 . S
C544 C538 1.465 . S
C544 C543 1.396 . S
C544 C545 1.399 . S
C545 H531 0.929 . S
C545 C544 1.399 . S
C545 C546 1.385 . S
C546 H532 0.931 . S
C546 C545 1.385 . S
C546 C547 1.389 . S
C547 C546 1.389 . S
C547 C548 1.387 . S
C548 H533 0.930 . S
C548 C543 1.390 . S
C548 C547 1.387 . S
H549 C561 0.930 . S
H550 C563 0.930 . S
H551 C564 0.930 . S
H552 C568 0.959 . S
H553 C568 0.959 . S
H554 C568 0.961 . S
H555 C569 0.960 . S
H556 C569 0.961 . S
H557 C569 0.959 . S
H558 C572 0.929 . S
H559 C573 0.931 . S
H560 C575 0.930 . S
C561 H549 0.930 . S
C561 C562 1.399 . S
C561 C566 1.399 . S
C562 C561 1.399 . S
C562 C563 1.376 . S
C563 H550 0.930 . S
C563 C562 1.376 . S
C563 C564 1.388 . S
C564 H551 0.930 . S
C564 C563 1.388 . S
C564 C565 1.390 . S
C565 C564 1.390 . S
C565 C566 1.394 . S
C565 C571 1.465 . S
C566 C561 1.399 . S
C566 C565 1.394 . S
C566 C567 1.516 . S
C567 C566 1.516 . S
C567 C568 1.502 . S
C567 C569 1.561 . S
C567 C570 1.526 . S
C568 H552 0.959 . S
C568 H553 0.959 . S
C568 H554 0.961 . S
C568 C567 1.502 . S
C569 H555 0.960 . S
C569 H556 0.961 . S
C569 H557 0.959 . S
C569 C567 1.561 . S
C570 C567 1.526 . S
C570 C571 1.396 . S
C570 C575 1.390 . S
C571 C565 1.465 . S
C571 C570 1.396 . S
C571 C572 1.399 . S
C572 H558 0.929 . S
C572 C571 1.399 . S
C572 C573 1.385 . S
C573 H559 0.931 . S
C573 C572 1.385 . S
C573 C574 1.389 . S
C574 C573 1.389 . S
C574 C575 1.387 . S
C575 H560 0.930 . S
C575 C570 1.390 . S
C575 C574 1.387 . S
H576 C588 0.930 . S
H577 C590 0.930 . S
H578 C591 0.930 . S
H579 C595 0.959 . S
H580 C595 0.959 . S
H581 C595 0.961 . S
H582 C596 0.960 . S
H583 C596 0.961 . S
H584 C596 0.959 . S
H585 C599 0.929 . S
H586 C600 0.931 . S
H587 C602 0.930 . S
C588 H576 0.930 . S
C588 C589 1.399 . S
C588 C593 1.399 . S
C589 C588 1.399 . S
C589 C590 1.376 . S
C590 H577 0.930 . S
C590 C589 1.376 . S
C590 C591 1.388 . S
C591 H578 0.930 . S
C591 C590 1.388 . S
C591 C592 1.390 . S
C592 C591 1.390 . S
C592 C593 1.394 . S
C592 C598 1.465 . S
C593 C588 1.399 . S
C593 C592 1.394 . S
C593 C594 1.516 . S
C594 C593 1.516 . S
C594 C595 1.502 . S
C594 C596 1.561 . S
C594 C597 1.526 . S
C595 H579 0.959 . S
C595 H580 0.959 . S
C595 H581 0.961 . S
C595 C594 1.502 . S
C596 H582 0.960 . S
C596 H583 0.961 . S
C596 H584 0.959 . S
C596 C594 1.561 . S
C597 C594 1.526 . S
C597 C598 1.396 . S
C597 C602 1.390 . S
C598 C592 1.465 . S
C598 C597 1.396 . S
C598 C599 1.399 . S
C599 H585 0.929 . S
C599 C598 1.399 . S
C599 C600 1.385 . S
C600 H586 0.931 . S
C600 C599 1.385 . S
C600 C601 1.389 . S
C601 C600 1.389 . S
C601 C602 1.387 . S
C602 H587 0.930 . S
C602 C597 1.390 . S
C602 C601 1.387 . S
H603 C615 0.930 . S
H604 C617 0.930 . S
H605 C618 0.930 . S
H606 C622 0.959 . S
H607 C622 0.959 . S
H608 C622 0.961 . S
H609 C623 0.960 . S
H610 C623 0.961 . S
H611 C623 0.959 . S
H612 C626 0.929 . S
H613 C627 0.931 . S
H614 C629 0.930 . S
C615 H603 0.930 . S
C615 C616 1.399 . S
C615 C620 1.399 . S
C616 C615 1.399 . S
C616 C617 1.376 . S
C617 H604 0.930 . S
C617 C616 1.376 . S
C617 C618 1.388 . S
C618 H605 0.930 . S
C618 C617 1.388 . S
C618 C619 1.390 . S
C619 C618 1.390 . S
C619 C620 1.394 . S
C619 C625 1.465 . S
C620 C615 1.399 . S
C620 C619 1.394 . S
C620 C621 1.516 . S
C621 C620 1.516 . S
C621 C622 1.502 . S
C621 C623 1.561 . S
C621 C624 1.526 . S
C622 H606 0.959 . S
C622 H607 0.959 . S
C622 H608 0.961 . S
C622 C621 1.502 . S
C623 H609 0.960 . S
C623 H610 0.961 . S
C623 H611 0.959 . S
C623 C621 1.561 . S
C624 C621 1.526 . S
C624 C625 1.396 . S
C624 C629 1.390 . S
C625 C619 1.465 . S
C625 C624 1.396 . S
C625 C626 1.399 . S
C626 H612 0.929 . S
C626 C625 1.399 . S
C626 C627 1.385 . S
C627 H613 0.931 . S
C627 C626 1.385 . S
C627 C628 1.389 . S
C628 C627 1.389 . S
C628 C629 1.387 . S
C629 H614 0.930 . S
C629 C624 1.390 . S
C629 C628 1.387 . S
H630 C642 0.930 . S
H631 C644 0.930 . S
H632 C645 0.930 . S
H633 C649 0.959 . S
H634 C649 0.959 . S
H635 C649 0.961 . S
H636 C650 0.960 . S
H637 C650 0.961 . S
H638 C650 0.959 . S
H639 C653 0.929 . S
H640 C654 0.931 . S
H641 C656 0.930 . S
C642 H630 0.930 . S
C642 C643 1.399 . S
C642 C647 1.399 . S
C643 C642 1.399 . S
C643 C644 1.376 . S
C644 H631 0.930 . S
C644 C643 1.376 . S
C644 C645 1.388 . S
C645 H632 0.930 . S
C645 C644 1.388 . S
C645 C646 1.390 . S
C646 C645 1.390 . S
C646 C647 1.394 . S
C646 C652 1.465 . S
C647 C642 1.399 . S
C647 C646 1.394 . S
C647 C648 1.516 . S
C648 C647 1.516 . S
C648 C649 1.502 . S
C648 C650 1.561 . S
C648 C651 1.526 . S
C649 H633 0.959 . S
C649 H634 0.959 . S
C649 H635 0.961 . S
C649 C648 1.502 . S
C650 H636 0.960 . S
C650 H637 0.961 . S
C650 H638 0.959 . S
C650 C648 1.561 . S
C651 C648 1.526 . S
C651 C652 1.396 . S
C651 C656 1.390 . S
C652 C646 1.465 . S
C652 C651 1.396 . S
C652 C653 1.399 . S
C653 H639 0.929 . S
C653 C652 1.399 . S
C653 C654 1.385 . S
C654 H640 0.931 . S
C654 C653 1.385 . S
C654 C655 1.389 . S
C655 C654 1.389 . S
C655 C656 1.387 . S
C656 H641 0.930 . S
C656 C651 1.390 . S
C656 C655 1.387 . S
H657 C669 0.930 . S
H658 C671 0.930 . S
H659 C672 0.930 . S
H660 C676 0.959 . S
H661 C676 0.959 . S
H662 C676 0.961 . S
H663 C677 0.960 . S
H664 C677 0.961 . S
H665 C677 0.959 . S
H666 C680 0.929 . S
H667 C681 0.931 . S
H668 C683 0.930 . S
C669 H657 0.930 . S
C669 C670 1.399 . S
C669 C674 1.399 . S
C670 C669 1.399 . S
C670 C671 1.376 . S
C671 H658 0.930 . S
C671 C670 1.376 . S
C671 C672 1.388 . S
C672 H659 0.930 . S
C672 C671 1.388 . S
C672 C673 1.390 . S
C673 C672 1.390 . S
C673 C674 1.394 . S
C673 C679 1.465 . S
C674 C669 1.399 . S
C674 C673 1.394 . S
C674 C675 1.516 . S
C675 C674 1.516 . S
C675 C676 1.502 . S
C675 C677 1.561 . S
C675 C678 1.526 . S
C676 H660 0.959 . S
C676 H661 0.959 . S
C676 H662 0.961 . S
C676 C675 1.502 . S
C677 H663 0.960 . S
C677 H664 0.961 . S
C677 H665 0.959 . S
C677 C675 1.561 . S
C678 C675 1.526 . S
C678 C679 1.396 . S
C678 C683 1.390 . S
C679 C673 1.465 . S
C679 C678 1.396 . S
C679 C680 1.399 . S
C680 H666 0.929 . S
C680 C679 1.399 . S
C680 C681 1.385 . S
C681 H667 0.931 . S
C681 C680 1.385 . S
C681 C682 1.389 . S
C682 C681 1.389 . S
C682 C683 1.387 . S
C683 H668 0.930 . S
C683 C678 1.390 . S
C683 C682 1.387 . S
H684 C696 0.930 . S
H685 C698 0.930 . S
H686 C699 0.930 . S
H687 C703 0.959 . S
H688 C703 0.959 . S
H689 C703 0.961 . S
H690 C704 0.960 . S
H691 C704 0.961 . S
H692 C704 0.959 1_655 S
H693 C707 0.929 . S
H694 C708 0.953 . S
H695 C710 0.930 . S
C696 H684 0.930 . S
C696 C697 1.399 . S
C696 C701 1.399 . S
C697 C696 1.399 . S
C697 C698 1.376 1_455 S
C698 H685 0.930 . S
C698 C697 1.376 1_655 S
C698 C699 1.388 . S
C699 H686 0.930 . S
C699 C698 1.388 . S
C699 C700 1.390 1_655 S
C700 C699 1.390 1_455 S
C700 C701 1.394 . S
C700 C706 1.465 . S
C701 C696 1.399 . S
C701 C700 1.394 . S
C701 C702 1.516 . S
C702 C701 1.516 . S
C702 C703 1.502 . S
C702 C704 1.561 . S
C702 C705 1.526 . S
C703 H687 0.959 . S
C703 H688 0.959 . S
C703 H689 0.961 . S
C703 C702 1.502 . S
C704 H690 0.960 . S
C704 H691 0.961 . S
C704 H692 0.959 1_455 S
C704 C702 1.561 . S
C705 C702 1.526 . S
C705 C706 1.396 . S
C705 C710 1.390 . S
C706 C700 1.465 . S
C706 C705 1.396 . S
C706 C707 1.399 1_455 S
C707 H693 0.929 . S
C707 C706 1.399 1_655 S
C707 C708 1.394 . S
C708 H694 0.953 . S
C708 C707 1.394 . S
C708 C709 1.360 1_655 S
C709 C708 1.360 1_455 S
C709 C710 1.387 . S
C710 H695 0.930 . S
C710 C705 1.390 . S
C710 C709 1.387 . S
H711 C723 0.930 . S
H712 C725 0.930 . S
H713 C726 0.930 . S
H714 C730 0.959 . S
H715 C730 0.959 . S
H716 C730 0.961 . S
H717 C731 0.960 . S
H718 C731 0.961 . S
H719 C731 0.959 . S
H720 C734 0.929 . S
H721 C735 0.931 . S
H722 C737 0.930 . S
C723 H711 0.930 . S
C723 C724 1.399 . S
C723 C728 1.399 . S
C724 C723 1.399 . S
C724 C725 1.376 1_545 S
C725 H712 0.930 . S
C725 C724 1.376 1_565 S
C725 C726 1.388 . S
C726 H713 0.930 . S
C726 C725 1.388 . S
C726 C727 1.390 1_565 S
C727 C726 1.390 1_545 S
C727 C728 1.394 . S
C727 C733 1.465 . S
C728 C723 1.399 . S
C728 C727 1.394 . S
C728 C729 1.516 . S
C729 C728 1.516 . S
C729 C730 1.502 . S
C729 C731 1.561 . S
C729 C732 1.526 . S
C730 H714 0.959 . S
C730 H715 0.959 . S
C730 H716 0.961 . S
C730 C729 1.502 . S
C731 H717 0.960 . S
C731 H718 0.961 . S
C731 H719 0.959 . S
C731 C729 1.561 . S
C732 C729 1.526 . S
C732 C733 1.396 . S
C732 C737 1.390 . S
C733 C727 1.465 . S
C733 C732 1.396 . S
C733 C734 1.399 1_545 S
C734 H720 0.929 . S
C734 C733 1.399 1_565 S
C734 C735 1.385 . S
C735 H721 0.931 . S
C735 C734 1.385 . S
C735 C736 1.389 1_565 S
C736 C735 1.389 1_545 S
C736 C737 1.387 . S
C737 H722 0.930 . S
C737 C732 1.390 . S
C737 C736 1.387 . S
H738 C750 0.930 . S
H739 C752 0.930 . S
H740 C753 0.930 . S
H741 C757 0.959 . S
H742 C757 0.959 . S
H743 C757 0.961 . S
H744 C758 0.960 . S
H745 C758 0.961 . S
H746 C758 0.959 . S
H747 C761 0.929 . S
H748 C762 0.931 . S
H749 C764 0.930 . S
C750 H738 0.930 . S
C750 C751 1.399 . S
C750 C755 1.399 . S
C751 C750 1.399 . S
C751 C752 1.376 . S
C752 H739 0.930 . S
C752 C751 1.376 . S
C752 C753 1.388 . S
C753 H740 0.930 . S
C753 C752 1.388 . S
C753 C754 1.390 . S
C754 C753 1.390 . S
C754 C755 1.394 . S
C754 C760 1.465 . S
C755 C750 1.399 . S
C755 C754 1.394 . S
C755 C756 1.516 . S
C756 C755 1.516 . S
C756 C757 1.502 . S
C756 C758 1.561 . S
C756 C759 1.526 . S
C757 H741 0.959 . S
C757 H742 0.959 . S
C757 H743 0.961 . S
C757 C756 1.502 . S
C758 H744 0.960 . S
C758 H745 0.961 . S
C758 H746 0.959 . S
C758 C756 1.561 . S
C759 C756 1.526 . S
C759 C760 1.396 . S
C759 C764 1.390 . S
C760 C754 1.465 . S
C760 C759 1.396 . S
C760 C761 1.399 . S
C761 H747 0.929 . S
C761 C760 1.399 . S
C761 C762 1.385 . S
C762 H748 0.931 . S
C762 C761 1.385 . S
C762 C763 1.389 . S
C763 C762 1.389 . S
C763 C764 1.387 . S
C764 H749 0.930 . S
C764 C759 1.390 . S
C764 C763 1.387 . S
H765 C777 0.930 . S
H766 C779 0.930 . S
H767 C780 0.930 . S
H768 C784 0.959 . S
H769 C784 0.959 . S
H770 C784 0.961 . S
H771 C785 0.960 . S
H772 C785 0.961 . S
H773 C785 0.959 . S
H774 C788 0.929 . S
H775 C789 0.931 . S
H776 C791 0.930 . S
C777 H765 0.930 . S
C777 C778 1.399 . S
C777 C782 1.399 . S
C778 C777 1.399 . S
C778 C779 1.376 1_545 S
C779 H766 0.930 . S
C779 C778 1.376 1_565 S
C779 C780 1.388 . S
C780 H767 0.930 . S
C780 C779 1.388 . S
C780 C781 1.390 1_565 S
C781 C780 1.390 1_545 S
C781 C782 1.394 . S
C781 C787 1.462 1_545 S
C782 C777 1.399 . S
C782 C781 1.394 . S
C782 C783 1.516 . S
C783 C782 1.516 . S
C783 C784 1.502 . S
C783 C785 1.561 . S
C783 C786 1.526 . S
C784 H768 0.959 . S
C784 H769 0.959 . S
C784 H770 0.961 . S
C784 C783 1.502 . S
C785 H771 0.960 . S
C785 H772 0.961 . S
C785 H773 0.959 . S
C785 C783 1.561 . S
C786 C783 1.526 . S
C786 C787 1.379 1_545 S
C786 C791 1.390 . S
C787 C781 1.462 1_565 S
C787 C786 1.379 1_565 S
C787 C788 1.416 . S
C788 H774 0.929 . S
C788 C787 1.416 . S
C788 C789 1.385 . S
C789 H775 0.931 . S
C789 C788 1.385 . S
C789 C790 1.384 1_565 S
C790 C789 1.384 1_545 S
C790 C791 1.392 . S
C791 H776 0.930 . S
C791 C786 1.390 . S
C791 C790 1.392 . S
H792 C804 0.930 . S
H793 C806 0.930 . S
H794 C807 0.930 . S
H795 C811 0.959 . S
H796 C811 0.959 . S
H797 C811 0.961 . S
H798 C812 0.960 . S
H799 C812 0.961 . S
H800 C812 0.959 . S
H801 C815 0.929 . S
H802 C816 0.931 . S
H803 C818 0.930 . S
C804 H792 0.930 . S
C804 C805 1.399 . S
C804 C809 1.399 . S
C805 C804 1.399 . S
C805 C806 1.376 . S
C806 H793 0.930 . S
C806 C805 1.376 . S
C806 C807 1.388 . S
C807 H794 0.930 . S
C807 C806 1.388 . S
C807 C808 1.390 . S
C808 C807 1.390 . S
C808 C809 1.394 . S
C808 C814 1.465 . S
C809 C804 1.399 . S
C809 C808 1.394 . S
C809 C810 1.516 . S
C810 C809 1.516 . S
C810 C811 1.502 . S
C810 C812 1.561 . S
C810 C813 1.526 . S
C811 H795 0.959 . S
C811 H796 0.959 . S
C811 H797 0.961 . S
C811 C810 1.502 . S
C812 H798 0.960 . S
C812 H799 0.961 . S
C812 H800 0.959 . S
C812 C810 1.561 . S
C813 C810 1.526 . S
C813 C814 1.396 . S
C813 C818 1.390 . S
C814 C808 1.465 . S
C814 C813 1.396 . S
C814 C815 1.399 . S
C815 H801 0.929 . S
C815 C814 1.399 . S
C815 C816 1.385 . S
C816 H802 0.931 . S
C816 C815 1.385 . S
C816 C817 1.389 . S
C817 C816 1.389 . S
C817 C818 1.387 . S
C818 H803 0.930 . S
C818 C813 1.390 . S
C818 C817 1.387 . S
H819 C831 0.937 . S
H820 C833 0.930 . S
H821 C834 0.930 . S
H822 C838 0.959 . S
H823 C838 0.959 . S
H824 C838 0.961 . S
H825 C839 0.960 . S
H826 C839 0.961 . S
H827 C839 0.959 1_455 S
H828 C842 0.929 . S
H829 C843 0.931 . S
H830 C845 0.930 . S
C831 H819 0.937 . S
C831 C832 1.390 1_655 S
C831 C836 1.401 1_655 S
C832 C831 1.390 1_455 S
C832 C833 1.376 . S
C833 H820 0.930 . S
C833 C832 1.376 . S
C833 C834 1.388 . S
C834 H821 0.930 . S
C834 C833 1.388 . S
C834 C835 1.390 . S
C835 C834 1.390 . S
C835 C836 1.394 . S
C835 C841 1.465 . S
C836 C831 1.401 1_455 S
C836 C835 1.394 . S
C836 C837 1.516 1_455 S
C837 C836 1.516 1_655 S
C837 C838 1.502 . S
C837 C839 1.561 . S
C837 C840 1.526 . S
C838 H822 0.959 . S
C838 H823 0.959 . S
C838 H824 0.961 . S
C838 C837 1.502 . S
C839 H825 0.960 . S
C839 H826 0.961 . S
C839 H827 0.959 1_655 S
C839 C837 1.561 . S
C840 C837 1.526 . S
C840 C841 1.396 1_655 S
C840 C845 1.390 . S
C841 C835 1.465 . S
C841 C840 1.396 1_455 S
C841 C842 1.399 . S
C842 H828 0.929 . S
C842 C841 1.399 . S
C842 C843 1.385 . S
C843 H829 0.931 . S
C843 C842 1.385 . S
C843 C844 1.389 . S
C844 C843 1.389 . S
C844 C845 1.387 1_455 S
C845 H830 0.930 . S
C845 C840 1.390 . S
C845 C844 1.387 1_655 S
C373 C9 0.468 . S
C385 C335 0.435 . S
C400 C49 0.363 . S
C412 C242 0.299 . S
C427 C89 0.341 . S
C439 C282 0.302 . S
C454 C26 0.419 . S
C466 C322 0.329 . S
C493 C255 0.496 . S
C481 C66 0.441 . S
C520 C295 0.485 . S
C508 C106 0.407 . S
C535 C43 2.992 . S
C547 C162 2.936 . S
C562 C83 3.146 . S
C574 C202 3.109 . S
C589 C22 3.236 . S
C601 C135 3.164 . S
C628 C175 3.133 . S
C616 C62 3.223 . S
C655 C215 2.982 . S
C643 C102 3.061 . S
C670 C3 2.985 . S
C682 C122 2.950 . S
C709 C221 1.764 1_554 S
C697 C15 1.690 . S
C724 C55 1.728 . S
C736 C141 1.774 . S
C751 C95 1.750 . S
C763 C181 1.762 . S
C790 C301 1.097 1_545 S
C778 C42 1.121 . S
C817 C341 1.109 . S
C805 C82 1.076 . S
C832 C2 1.082 . S
C844 C261 1.091 1_455 S
