# Generated by pormake.
# Topology ocu, (6,8)-cn, num edge types: 1
# Building blocks:
#     Node 0, Type 0, BuildingBlock: KUMBOL_clean_sbu_1, # of connection points: 6
#     Node 1, Type 0, BuildingBlock: KUMBOL_clean_sbu_1, # of connection points: 6
#     Node 2, Type 0, BuildingBlock: KUMBOL_clean_sbu_1, # of connection points: 6
#     Node 3, Type 0, BuildingBlock: KUMBOL_clean_sbu_1, # of connection points: 6
#     Node 4, Type 0, BuildingBlock: KUMBOL_clean_sbu_1, # of connection points: 6
#     Node 5, Type 0, BuildingBlock: KUMBOL_clean_sbu_1, # of connection points: 6
#     Node 6, Type 0, BuildingBlock: KUMBOL_clean_sbu_1, # of connection points: 6
#     Node 7, Type 0, BuildingBlock: KUMBOL_clean_sbu_1, # of connection points: 6
#     Node 8, Type 1, BuildingBlock: AJUNOK_clean_sbu_0, # of connection points: 8
#     Node 9, Type 1, BuildingBlock: AJUNOK_clean_sbu_0, # of connection points: 8
#     Node 10, Type 1, BuildingBlock: AJUNOK_clean_sbu_0, # of connection points: 8
#     Node 11, Type 1, BuildingBlock: AJUNOK_clean_sbu_0, # of connection points: 8
#     Node 12, Type 1, BuildingBlock: AJUNOK_clean_sbu_0, # of connection points: 8
#     Node 13, Type 1, BuildingBlock: AJUNOK_clean_sbu_0, # of connection points: 8
#     Edge 14, Type (0, 1), BuildingBlock: UVAHIK_clean_linker_0, # of connection points: 2
#     Edge 15, Type (0, 1), BuildingBlock: UVAHIK_clean_linker_0, # of connection points: 2
#     Edge 16, Type (0, 1), BuildingBlock: UVAHIK_clean_linker_0, # of connection points: 2
#     Edge 17, Type (0, 1), BuildingBlock: UVAHIK_clean_linker_0, # of connection points: 2
#     Edge 18, Type (0, 1), BuildingBlock: UVAHIK_clean_linker_0, # of connection points: 2
#     Edge 19, Type (0, 1), BuildingBlock: UVAHIK_clean_linker_0, # of connection points: 2
#     Edge 20, Type (0, 1), BuildingBlock: UVAHIK_clean_linker_0, # of connection points: 2
#     Edge 21, Type (0, 1), BuildingBlock: UVAHIK_clean_linker_0, # of connection points: 2
#     Edge 22, Type (0, 1), BuildingBlock: UVAHIK_clean_linker_0, # of connection points: 2
#     Edge 23, Type (0, 1), BuildingBlock: UVAHIK_clean_linker_0, # of connection points: 2
#     Edge 24, Type (0, 1), BuildingBlock: UVAHIK_clean_linker_0, # of connection points: 2
#     Edge 25, Type (0, 1), BuildingBlock: UVAHIK_clean_linker_0, # of connection points: 2
#     Edge 26, Type (0, 1), BuildingBlock: UVAHIK_clean_linker_0, # of connection points: 2
#     Edge 27, Type (0, 1), BuildingBlock: UVAHIK_clean_linker_0, # of connection points: 2
#     Edge 28, Type (0, 1), BuildingBlock: UVAHIK_clean_linker_0, # of connection points: 2
#     Edge 29, Type (0, 1), BuildingBlock: UVAHIK_clean_linker_0, # of connection points: 2
#     Edge 30, Type (0, 1), BuildingBlock: UVAHIK_clean_linker_0, # of connection points: 2
#     Edge 31, Type (0, 1), BuildingBlock: UVAHIK_clean_linker_0, # of connection points: 2
#     Edge 32, Type (0, 1), BuildingBlock: UVAHIK_clean_linker_0, # of connection points: 2
#     Edge 33, Type (0, 1), BuildingBlock: UVAHIK_clean_linker_0, # of connection points: 2
#     Edge 34, Type (0, 1), BuildingBlock: UVAHIK_clean_linker_0, # of connection points: 2
#     Edge 35, Type (0, 1), BuildingBlock: UVAHIK_clean_linker_0, # of connection points: 2
#     Edge 36, Type (0, 1), BuildingBlock: UVAHIK_clean_linker_0, # of connection points: 2
#     Edge 37, Type (0, 1), BuildingBlock: UVAHIK_clean_linker_0, # of connection points: 2
#     Edge 38, Type (0, 1), BuildingBlock: UVAHIK_clean_linker_0, # of connection points: 2
#     Edge 39, Type (0, 1), BuildingBlock: UVAHIK_clean_linker_0, # of connection points: 2
#     Edge 40, Type (0, 1), BuildingBlock: UVAHIK_clean_linker_0, # of connection points: 2
#     Edge 41, Type (0, 1), BuildingBlock: UVAHIK_clean_linker_0, # of connection points: 2
#     Edge 42, Type (0, 1), BuildingBlock: UVAHIK_clean_linker_0, # of connection points: 2
#     Edge 43, Type (0, 1), BuildingBlock: UVAHIK_clean_linker_0, # of connection points: 2
#     Edge 44, Type (0, 1), BuildingBlock: UVAHIK_clean_linker_0, # of connection points: 2
#     Edge 45, Type (0, 1), BuildingBlock: UVAHIK_clean_linker_0, # of connection points: 2
#     Edge 46, Type (0, 1), BuildingBlock: UVAHIK_clean_linker_0, # of connection points: 2
#     Edge 47, Type (0, 1), BuildingBlock: UVAHIK_clean_linker_0, # of connection points: 2
#     Edge 48, Type (0, 1), BuildingBlock: UVAHIK_clean_linker_0, # of connection points: 2
#     Edge 49, Type (0, 1), BuildingBlock: UVAHIK_clean_linker_0, # of connection points: 2
#     Edge 50, Type (0, 1), BuildingBlock: UVAHIK_clean_linker_0, # of connection points: 2
#     Edge 51, Type (0, 1), BuildingBlock: UVAHIK_clean_linker_0, # of connection points: 2
#     Edge 52, Type (0, 1), BuildingBlock: UVAHIK_clean_linker_0, # of connection points: 2
#     Edge 53, Type (0, 1), BuildingBlock: UVAHIK_clean_linker_0, # of connection points: 2
#     Edge 54, Type (0, 1), BuildingBlock: UVAHIK_clean_linker_0, # of connection points: 2
#     Edge 55, Type (0, 1), BuildingBlock: UVAHIK_clean_linker_0, # of connection points: 2
#     Edge 56, Type (0, 1), BuildingBlock: UVAHIK_clean_linker_0, # of connection points: 2
#     Edge 57, Type (0, 1), BuildingBlock: UVAHIK_clean_linker_0, # of connection points: 2
#     Edge 58, Type (0, 1), BuildingBlock: UVAHIK_clean_linker_0, # of connection points: 2
#     Edge 59, Type (0, 1), BuildingBlock: UVAHIK_clean_linker_0, # of connection points: 2
#     Edge 60, Type (0, 1), BuildingBlock: UVAHIK_clean_linker_0, # of connection points: 2
#     Edge 61, Type (0, 1), BuildingBlock: UVAHIK_clean_linker_0, # of connection points: 2
# Relax obj value: 0.122
# Max RMSD: 0.192
# Mean RMSD: 0.162
data_MOF--net-ocu--node1-KUMBOL_clean_sbu_1--node2-AJUNOK_clean_sbu_0--edge1-UVAHIK_clean_linker_0
_symmetry_space_group_name_H-M    P1
_symmetry_Int_Tables_number       1
_symmetry_cell_setting            triclinic
loop_
_symmetry_equiv_pos_as_xyz
'x, y, z'
_cell_length_a     54.653973
_cell_length_b     55.369916
_cell_length_c     48.319962
_cell_angle_alpha  102.54505
_cell_angle_beta   89.004017
_cell_angle_gamma 111.45536
loop_
_atom_site_label
_atom_site_type_symbol
_atom_site_fract_x
_atom_site_fract_y
_atom_site_fract_z
_atom_type_partial_charge
C0 C 0.30953 0.30888 0.32821 0.0
C1 C 0.28423 0.30536 0.37007 0.0
C2 C 0.28865 0.29434 0.34214 0.0
C3 C 0.29998 0.33172 0.38315 0.0
C4 C 0.32626 0.33486 0.34203 0.0
C5 C 0.32089 0.34645 0.36914 0.0
N6 N 0.31483 0.29689 0.30234 0.0
C7 C 0.33789 0.30876 0.29064 0.0
C8 C 0.34865 0.348 0.32881 0.0
C9 C 0.35473 0.33469 0.30327 0.0
Gd10 Gd 0.227 0.24085 0.21234 0.0
Gd11 Gd 0.28434 0.25365 0.28315 0.0
N12 N 0.27373 0.26879 0.32912 0.0
C13 C 0.26475 0.28921 0.38445 0.0
C14 C 0.2558 0.25251 0.34359 0.0
C15 C 0.25078 0.26255 0.3713 0.0
H16 H 0.24535 0.23183 0.33368 0.0
H17 H 0.2362 0.24971 0.38251 0.0
H18 H 0.27042 0.26723 0.16709 0.0
H19 H 0.34354 0.29825 0.27163 0.0
H20 H 0.284 0.25265 0.11931 0.0
H21 H 0.26086 0.29693 0.40596 0.0
H22 H 0.29667 0.34062 0.40446 0.0
H23 H 0.17083 0.18933 0.22093 0.0
H24 H 0.36196 0.36795 0.33875 0.0
H25 H 0.37264 0.34423 0.29353 0.0
H26 H 0.22752 0.16068 0.08987 0.0
H27 H 0.3334 0.36647 0.37991 0.0
H28 H 0.16135 0.12379 0.15105 0.0
H29 H 0.14707 0.14272 0.19665 0.0
N30 N 0.20056 0.19642 0.19107 0.0
C31 C 0.20764 0.18694 0.16495 0.0
C32 C 0.1783 0.18124 0.20177 0.0
C33 C 0.17237 0.14424 0.16193 0.0
C34 C 0.16431 0.15482 0.18774 0.0
C35 C 0.19385 0.16045 0.14988 0.0
H36 H 0.19119 0.13076 0.11133 0.0
N37 N 0.2414 0.2294 0.16734 0.0
C38 C 0.2282 0.20393 0.15258 0.0
C39 C 0.25582 0.21242 0.11338 0.0
C40 C 0.23539 0.1947 0.12528 0.0
C41 C 0.26079 0.24697 0.15554 0.0
C42 C 0.26841 0.23872 0.12849 0.0
O43 O 0.25148 0.27038 0.29539 0.0
O44 O 0.22576 0.26698 0.2551 0.0
O45 O 0.22228 0.268 0.18744 0.0
O46 O 0.18933 0.24395 0.20738 0.0
O47 O 0.24998 0.22144 0.25719 0.0
O48 O 0.20989 0.21946 0.24659 0.0
O49 O 0.25984 0.22343 0.20229 0.0
O50 O 0.29228 0.23414 0.23945 0.0
O51 O 0.28326 0.22173 0.30372 0.0
O52 O 0.32009 0.2476 0.29162 0.0
O53 O 0.26061 0.2765 0.23616 0.0
O54 O 0.2999 0.27643 0.24928 0.0
C55 C 0.23319 0.27559 0.28257 0.0
C56 C 0.22561 0.21553 0.26348 0.0
C57 C 0.17826 0.25929 0.16918 0.0
C58 C 0.15702 0.28058 0.1431 0.0
C59 C 0.13795 0.23273 0.13942 0.0
C60 C 0.15837 0.23449 0.15757 0.0
C61 C 0.13726 0.25553 0.1322 0.0
C62 C 0.17744 0.28243 0.16194 0.0
C63 C 0.19732 0.2616 0.19193 0.0
C64 C 0.22211 0.16816 0.11074 0.0
C65 C 0.20146 0.15109 0.12302 0.0
H66 H 0.26186 0.20606 0.09245 0.0
C67 C 0.28203 0.223 0.21297 0.0
C68 C 0.28552 0.28217 0.2322 0.0
C69 C 0.32261 0.23081 0.33151 0.0
C70 C 0.34605 0.21373 0.36042 0.0
C71 C 0.3453 0.25826 0.37669 0.0
C72 C 0.33007 0.25472 0.35226 0.0
C73 C 0.35326 0.23799 0.38078 0.0
C74 C 0.33075 0.21032 0.33557 0.0
C75 C 0.30879 0.22839 0.30448 0.0
H76 H 0.12238 0.21364 0.13115 0.0
H77 H 0.15816 0.21652 0.16322 0.0
H78 H 0.12098 0.25365 0.11833 0.0
H79 H 0.19236 0.30174 0.1712 0.0
H80 H 0.35127 0.27694 0.39238 0.0
H81 H 0.32471 0.27095 0.34924 0.0
H82 H 0.36553 0.24153 0.39973 0.0
H83 H 0.32533 0.19194 0.31942 0.0
C84 C 0.8148 0.22015 0.1831 0.0
C85 C 0.85942 0.25287 0.19581 0.0
C86 C 0.83396 0.23901 0.20353 0.0
C87 C 0.86536 0.24802 0.16727 0.0
C88 C 0.82126 0.21458 0.15457 0.0
C89 C 0.84636 0.22895 0.14673 0.0
N90 N 0.79051 0.20635 0.19123 0.0
C91 C 0.77346 0.18457 0.17234 0.0
C92 C 0.80267 0.19408 0.1348 0.0
C93 C 0.77893 0.17868 0.14387 0.0
Gd94 Gd 0.7375 0.27162 0.24625 0.0
Gd95 Gd 0.78437 0.22 0.24017 0.0
N96 N 0.82758 0.24417 0.23099 0.0
C97 C 0.87828 0.2711 0.21709 0.0
C98 C 0.84622 0.26088 0.25207 0.0
C99 C 0.87174 0.27484 0.24537 0.0
H100 H 0.84109 0.26383 0.2739 0.0
H101 H 0.88632 0.28857 0.26199 0.0
H102 H 0.67725 0.22772 0.2205 0.0
H103 H 0.7558 0.17083 0.17873 0.0
H104 H 0.63282 0.21079 0.23795 0.0
H105 H 0.89804 0.28209 0.21196 0.0
H106 H 0.88475 0.25863 0.16091 0.0
H107 H 0.77184 0.32985 0.29399 0.0
H108 H 0.80693 0.18922 0.11275 0.0
H109 H 0.76502 0.16183 0.12904 0.0
H110 H 0.64186 0.26413 0.3325 0.0
H111 H 0.85147 0.22503 0.12488 0.0
H112 H 0.7243 0.33547 0.36441 0.0
H113 H 0.76601 0.35303 0.34165 0.0
N114 N 0.73473 0.29763 0.29077 0.0
C115 C 0.71079 0.28883 0.30186 0.0
C116 C 0.7539 0.32119 0.30404 0.0
C117 C 0.7269 0.32481 0.34364 0.0
C118 C 0.75051 0.33474 0.33091 0.0
C119 C 0.70645 0.30199 0.32887 0.0
H120 H 0.67814 0.30225 0.36081 0.0
N121 N 0.69417 0.25556 0.25922 0.0
C122 C 0.68997 0.26748 0.28562 0.0
C123 C 0.64424 0.23766 0.27915 0.0
C124 C 0.66484 0.25857 0.29639 0.0
C125 C 0.67395 0.23603 0.24184 0.0
C126 C 0.64875 0.22657 0.25163 0.0
O127 O 0.80122 0.26064 0.22862 0.0
O128 O 0.76316 0.2617 0.21233 0.0
O129 O 0.71354 0.27412 0.21248 0.0
O130 O 0.74774 0.30868 0.23295 0.0
O131 O 0.77715 0.24967 0.2766 0.0
O132 O 0.77664 0.28953 0.27149 0.0
O133 O 0.72099 0.23706 0.26788 0.0
O134 O 0.74762 0.21074 0.2663 0.0
O135 O 0.80633 0.21549 0.27458 0.0
O136 O 0.79132 0.18356 0.2371 0.0
O137 O 0.74592 0.23637 0.22527 0.0
O138 O 0.74476 0.19627 0.21625 0.0
C139 C 0.78886 0.2721 0.21608 0.0
C140 C 0.78826 0.27572 0.28137 0.0
C141 C 0.71108 0.31635 0.21818 0.0
C142 C 0.68479 0.33484 0.19589 0.0
C143 C 0.69012 0.34379 0.24731 0.0
C144 C 0.70577 0.32849 0.24506 0.0
C145 C 0.67949 0.34683 0.22283 0.0
C146 C 0.70078 0.31977 0.19365 0.0
C147 C 0.7268 0.29961 0.21539 0.0
C148 C 0.66096 0.27089 0.3238 0.0
C149 C 0.68166 0.29255 0.33996 0.0
H150 H 0.62469 0.23025 0.28669 0.0
C151 C 0.72693 0.21753 0.2742 0.0
C152 C 0.73259 0.21168 0.21307 0.0
C153 C 0.79625 0.17162 0.28007 0.0
C154 C 0.80991 0.15441 0.31689 0.0
C155 C 0.76682 0.13062 0.29137 0.0
C156 C 0.772 0.15002 0.27554 0.0
C157 C 0.78567 0.13264 0.31179 0.0
C158 C 0.81493 0.17389 0.30093 0.0
C159 C 0.80336 0.19117 0.26225 0.0
H160 H 0.68612 0.35317 0.26805 0.0
H161 H 0.71363 0.32611 0.26424 0.0
H162 H 0.6673 0.35868 0.22488 0.0
H163 H 0.70475 0.3103 0.17287 0.0
H164 H 0.74829 0.11375 0.28754 0.0
H165 H 0.75728 0.14792 0.25953 0.0
H166 H 0.78142 0.11692 0.32321 0.0
H167 H 0.83348 0.19081 0.30452 0.0
C168 C 0.81163 0.80804 0.1929 0.0
C169 C 0.81784 0.78392 0.14663 0.0
C170 C 0.80357 0.78511 0.17115 0.0
C171 C 0.84104 0.80549 0.14494 0.0
C172 C 0.83433 0.83011 0.19076 0.0
C173 C 0.84929 0.8285 0.16696 0.0
N174 N 0.79649 0.80927 0.21539 0.0
C175 C 0.80197 0.83224 0.23569 0.0
C176 C 0.84091 0.8534 0.21226 0.0
C177 C 0.82452 0.85455 0.23467 0.0
Gd178 Gd 0.75186 0.72625 0.28345 0.0
Gd179 Gd 0.7602 0.77048 0.21553 0.0
N180 N 0.78075 0.76481 0.17306 0.0
C181 C 0.80788 0.76145 0.12413 0.0
C182 C 0.77033 0.74337 0.15075 0.0
C183 C 0.78386 0.74124 0.12608 0.0
H184 H 0.75178 0.72765 0.15224 0.0
H185 H 0.77577 0.72402 0.10861 0.0
H186 H 0.77298 0.77714 0.33933 0.0
H187 H 0.78922 0.83298 0.25298 0.0
H188 H 0.7573 0.79184 0.38624 0.0
H189 H 0.81825 0.75981 0.10492 0.0
H190 H 0.85239 0.80484 0.12637 0.0
H191 H 0.71562 0.65991 0.26166 0.0
H192 H 0.85825 0.87077 0.21143 0.0
H193 H 0.82922 0.87261 0.2511 0.0
H194 H 0.67476 0.72103 0.38969 0.0
H195 H 0.86692 0.8452 0.16503 0.0
H196 H 0.65245 0.64123 0.31673 0.0
H197 H 0.67523 0.62731 0.2752 0.0
N198 N 0.71444 0.69241 0.29391 0.0
C199 C 0.70327 0.70007 0.31801 0.0
C200 C 0.7055 0.66632 0.2795 0.0
C201 C 0.6699 0.65574 0.31064 0.0
C202 C 0.68273 0.64778 0.28719 0.0
C203 C 0.68053 0.68193 0.32685 0.0
H204 H 0.65222 0.67646 0.35914 0.0
N205 N 0.73889 0.74185 0.32754 0.0
C206 C 0.71594 0.7254 0.33536 0.0
C207 C 0.72111 0.75737 0.37995 0.0
C208 C 0.70625 0.73294 0.36176 0.0
C209 C 0.75422 0.76498 0.34564 0.0
C210 C 0.74542 0.77325 0.37205 0.0
O211 O 0.77011 0.73267 0.20419 0.0
O212 O 0.76831 0.71091 0.24215 0.0
O213 O 0.791 0.72462 0.28649 0.0
O214 O 0.76403 0.71287 0.31809 0.0
O215 O 0.7389 0.74065 0.23862 0.0
O216 O 0.72094 0.70201 0.24746 0.0
O217 O 0.73561 0.76054 0.2909 0.0
O218 O 0.74392 0.7868 0.25631 0.0
O219 O 0.73026 0.75956 0.18085 0.0
O220 O 0.73799 0.79544 0.21354 0.0
O221 O 0.77522 0.76762 0.27913 0.0
O222 O 0.79726 0.78293 0.2432 0.0
C223 C 0.77453 0.71489 0.21621 0.0
C224 C 0.7207 0.71731 0.23083 0.0
C225 C 0.79174 0.68921 0.30595 0.0
C226 C 0.81339 0.66338 0.3236 0.0
C227 C 0.77933 0.64201 0.28494 0.0
C228 C 0.77632 0.66615 0.28613 0.0
C229 C 0.79761 0.64056 0.30367 0.0
C230 C 0.81055 0.68787 0.32462 0.0
C231 C 0.78652 0.71386 0.30837 0.0
C232 C 0.68271 0.71546 0.36966 0.0
C233 C 0.66986 0.69006 0.35224 0.0
H234 H 0.71436 0.7638 0.40045 0.0
C235 C 0.73376 0.78033 0.28023 0.0
C236 C 0.79739 0.77516 0.26694 0.0
C237 C 0.7265 0.79731 0.16791 0.0
C238 C 0.70679 0.82067 0.14314 0.0
C239 C 0.75219 0.82465 0.1367 0.0
C240 C 0.75011 0.80799 0.15517 0.0
C241 C 0.73069 0.83088 0.1306 0.0
C242 C 0.70481 0.804 0.16213 0.0
C243 C 0.72557 0.78145 0.18917 0.0
H244 H 0.76729 0.62431 0.26963 0.0
H245 H 0.76164 0.66677 0.27185 0.0
H246 H 0.79961 0.6216 0.30248 0.0
H247 H 0.82244 0.70553 0.34014 0.0
H248 H 0.77062 0.83293 0.12722 0.0
H249 H 0.76714 0.80385 0.15987 0.0
H250 H 0.73283 0.84404 0.11632 0.0
H251 H 0.68661 0.79632 0.17228 0.0
C252 C 0.27454 0.70913 0.31264 0.0
C253 C 0.23981 0.66524 0.30253 0.0
C254 C 0.25577 0.6883 0.2935 0.0
C255 C 0.24263 0.66364 0.33084 0.0
C256 C 0.27764 0.70739 0.34098 0.0
C257 C 0.26152 0.6846 0.34998 0.0
N258 N 0.2894 0.73137 0.30371 0.0
C259 C 0.30857 0.75185 0.32142 0.0
C260 C 0.29683 0.72869 0.35951 0.0
C261 C 0.31248 0.75095 0.34961 0.0
Gd262 Gd 0.23255 0.76708 0.2369 0.0
Gd263 Gd 0.2818 0.73118 0.25619 0.0
N264 N 0.25325 0.69048 0.26616 0.0
C265 C 0.22172 0.64424 0.28277 0.0
C266 C 0.23693 0.6691 0.24644 0.0
C267 C 0.22056 0.64604 0.25455 0.0
H268 H 0.23679 0.66892 0.2242 0.0
H269 H 0.20738 0.62942 0.23886 0.0
H270 H 0.28064 0.82836 0.26584 0.0
H271 H 0.32119 0.76863 0.31356 0.0
H272 H 0.30884 0.86738 0.24954 0.0
H273 H 0.20915 0.62621 0.28887 0.0
H274 H 0.23042 0.64613 0.3381 0.0
H275 H 0.19037 0.72917 0.18184 0.0
H276 H 0.29987 0.72805 0.3814 0.0
H277 H 0.32767 0.76732 0.36361 0.0
H278 H 0.27772 0.85122 0.15286 0.0
H279 H 0.26355 0.68297 0.37169 0.0
H280 H 0.20597 0.76973 0.11376 0.0
H281 H 0.1803 0.73039 0.13261 0.0
N282 N 0.22197 0.76656 0.19009 0.0
C283 C 0.23593 0.78869 0.18051 0.0
C284 C 0.20207 0.74595 0.17344 0.0
C285 C 0.21058 0.76912 0.13525 0.0
C286 C 0.19613 0.74682 0.14575 0.0
C287 C 0.23075 0.7904 0.15263 0.0
H288 H 0.2423 0.81471 0.12153 0.0
N289 N 0.26062 0.80712 0.22521 0.0
C290 C 0.256 0.80933 0.19836 0.0
C291 C 0.29089 0.85287 0.20694 0.0
C292 C 0.27121 0.83217 0.1885 0.0
C293 C 0.27862 0.8282 0.24378 0.0
C294 C 0.29436 0.851 0.23478 0.0
O295 O 0.25501 0.73988 0.28979 0.0
O296 O 0.2198 0.7343 0.26096 0.0
O297 O 0.21593 0.79494 0.25939 0.0
O298 O 0.19051 0.75826 0.2316 0.0
O299 O 0.25646 0.71173 0.21489 0.0
O300 O 0.22018 0.72238 0.22671 0.0
O301 O 0.25892 0.75916 0.20251 0.0
O302 O 0.29387 0.76279 0.23054 0.0
O303 O 0.29997 0.70405 0.23544 0.0
O304 O 0.32381 0.74106 0.26385 0.0
O305 O 0.25836 0.78638 0.27794 0.0
O306 O 0.29432 0.77577 0.26497 0.0
C307 C 0.22979 0.73447 0.28553 0.0
C308 C 0.23203 0.70921 0.20926 0.0
C309 C 0.17403 0.77288 0.27487 0.0
C310 C 0.16434 0.78653 0.32399 0.0
C311 C 0.1315 0.74947 0.2912 0.0
C312 C 0.14865 0.7531 0.26938 0.0
C313 C 0.13899 0.76642 0.31818 0.0
C314 C 0.18215 0.78818 0.30259 0.0
C315 C 0.19175 0.77853 0.25176 0.0
C316 C 0.26617 0.83384 0.16072 0.0
C317 C 0.24596 0.81308 0.14288 0.0
H318 H 0.30302 0.87067 0.20013 0.0
C319 C 0.28359 0.76176 0.20573 0.0
C320 C 0.2829 0.78898 0.28292 0.0
C321 C 0.34301 0.72631 0.2226 0.0
C322 C 0.35603 0.71206 0.17508 0.0
C323 C 0.38678 0.74989 0.2091 0.0
C324 C 0.36808 0.74646 0.22945 0.0
C325 C 0.38109 0.73248 0.18231 0.0
C326 C 0.33678 0.71041 0.19496 0.0
C327 C 0.32375 0.72076 0.24441 0.0
H328 H 0.11189 0.73428 0.28684 0.0
H329 H 0.14199 0.74069 0.24823 0.0
H330 H 0.12441 0.76448 0.33383 0.0
H331 H 0.20217 0.80244 0.30716 0.0
H332 H 0.40613 0.76538 0.21452 0.0
H333 H 0.37333 0.7593 0.25055 0.0
H334 H 0.39673 0.73448 0.16793 0.0
H335 H 0.31698 0.69592 0.18929 0.0
C336 C 0.31677 0.71861 0.67999 0.0
C337 C 0.36071 0.75297 0.69146 0.0
C338 C 0.33587 0.73823 0.69989 0.0
C339 C 0.36606 0.74814 0.66272 0.0
C340 C 0.32273 0.71298 0.65129 0.0
C341 C 0.34715 0.7282 0.64271 0.0
N342 N 0.29307 0.70421 0.68881 0.0
C343 C 0.27638 0.68169 0.67057 0.0
C344 C 0.30434 0.69165 0.63212 0.0
C345 C 0.28139 0.67558 0.64196 0.0
Gd346 Gd 0.23795 0.7684 0.74391 0.0
Gd347 Gd 0.2871 0.71856 0.73763 0.0
N348 N 0.32992 0.74337 0.72751 0.0
C349 C 0.37951 0.7721 0.71222 0.0
C350 C 0.34859 0.76103 0.74807 0.0
C351 C 0.37355 0.77586 0.74069 0.0
H352 H 0.34395 0.76404 0.77004 0.0
H353 H 0.38811 0.7903 0.75692 0.0
H354 H 0.17824 0.72347 0.7188 0.0
H355 H 0.25937 0.66765 0.67765 0.0
H356 H 0.13328 0.70802 0.73536 0.0
H357 H 0.3988 0.78381 0.70654 0.0
H358 H 0.38493 0.75944 0.6558 0.0
H359 H 0.2725 0.82702 0.79135 0.0
H360 H 0.30822 0.68668 0.60996 0.0
H361 H 0.26772 0.65812 0.62761 0.0
H362 H 0.14133 0.76415 0.82819 0.0
H363 H 0.35183 0.7243 0.6207 0.0
H364 H 0.22407 0.83475 0.86033 0.0
H365 H 0.26629 0.85118 0.83817 0.0
N366 N 0.23524 0.79494 0.78818 0.0
C367 C 0.21108 0.78665 0.79897 0.0
C368 C 0.25443 0.81859 0.80126 0.0
C369 C 0.22689 0.8235 0.84002 0.0
C370 C 0.25079 0.8328 0.82764 0.0
C371 C 0.20645 0.80061 0.82541 0.0
H372 H 0.17761 0.8023 0.85639 0.0
N373 N 0.1947 0.75248 0.75691 0.0
C374 C 0.19029 0.76517 0.78283 0.0
C375 C 0.14426 0.73613 0.77584 0.0
C376 C 0.16486 0.75709 0.79306 0.0
C377 C 0.17461 0.73261 0.73967 0.0
C378 C 0.14913 0.72399 0.74895 0.0
O379 O 0.30213 0.75843 0.72446 0.0
O380 O 0.26314 0.7585 0.70932 0.0
O381 O 0.21311 0.77008 0.71036 0.0
O382 O 0.24781 0.80479 0.72951 0.0
O383 O 0.28029 0.74875 0.77376 0.0
O384 O 0.27755 0.78754 0.76791 0.0
O385 O 0.22236 0.73424 0.76644 0.0
O386 O 0.25214 0.71156 0.76646 0.0
O387 O 0.31162 0.7155 0.77057 0.0
O388 O 0.29225 0.68138 0.73636 0.0
O389 O 0.24706 0.73329 0.7245 0.0
O390 O 0.24741 0.6938 0.714 0.0
C391 C 0.28889 0.7693 0.71223 0.0
C392 C 0.29061 0.77476 0.77731 0.0
C393 C 0.21082 0.8125 0.71622 0.0
C394 C 0.18658 0.83359 0.69514 0.0
C395 C 0.1934 0.84279 0.74635 0.0
C396 C 0.20717 0.82566 0.74339 0.0
C397 C 0.18323 0.8469 0.72227 0.0
C398 C 0.20028 0.81632 0.69211 0.0
C399 C 0.22633 0.79553 0.71274 0.0
C400 C 0.16066 0.77026 0.8199 0.0
C401 C 0.18137 0.79194 0.83601 0.0
H402 H 0.12449 0.72937 0.78299 0.0
C403 C 0.23061 0.71677 0.77449 0.0
C404 C 0.23435 0.70864 0.71171 0.0
C405 C 0.29818 0.67347 0.78132 0.0
C406 C 0.3104 0.6595 0.82155 0.0
C407 C 0.26476 0.64187 0.80303 0.0
C408 C 0.27184 0.65672 0.78221 0.0
C409 C 0.28391 0.64331 0.82275 0.0
C410 C 0.31738 0.67465 0.80088 0.0
C411 C 0.30609 0.69022 0.76057 0.0
H412 H 0.19083 0.85306 0.7673 0.0
H413 H 0.21525 0.82302 0.76226 0.0
H414 H 0.17283 0.86048 0.72476 0.0
H415 H 0.20315 0.80633 0.67108 0.0
H416 H 0.24442 0.62911 0.80379 0.0
H417 H 0.25672 0.6554 0.76712 0.0
H418 H 0.2782 0.63123 0.83838 0.0
H419 H 0.33778 0.68735 0.80001 0.0
C420 C 0.31729 0.30548 0.68766 0.0
C421 C 0.31745 0.27758 0.6414 0.0
C422 C 0.30528 0.28237 0.66694 0.0
C423 C 0.34283 0.29518 0.6381 0.0
C424 C 0.34196 0.32419 0.68345 0.0
C425 C 0.3551 0.31841 0.65913 0.0
N426 N 0.30369 0.31093 0.71045 0.0
C427 C 0.31226 0.33583 0.72797 0.0
C428 C 0.35202 0.34876 0.703 0.0
C429 C 0.33683 0.35482 0.725 0.0
Gd430 Gd 0.25569 0.22527 0.7795 0.0
Gd431 Gd 0.26373 0.27645 0.71457 0.0
N432 N 0.28055 0.26602 0.67045 0.0
C433 C 0.30318 0.25605 0.61936 0.0
C434 C 0.26583 0.24634 0.64823 0.0
C435 C 0.27703 0.24073 0.62257 0.0
H436 H 0.24552 0.23482 0.65037 0.0
H437 H 0.26546 0.2247 0.60528 0.0
H438 H 0.27885 0.27296 0.83967 0.0
H439 H 0.30034 0.34084 0.7447 0.0
H440 H 0.26357 0.28565 0.88693 0.0
H441 H 0.31178 0.2518 0.59939 0.0
H442 H 0.35266 0.29159 0.61884 0.0
H443 H 0.21621 0.16122 0.75298 0.0
H444 H 0.3709 0.36363 0.70052 0.0
H445 H 0.34394 0.37419 0.73951 0.0
H446 H 0.17941 0.21643 0.88683 0.0
H447 H 0.37422 0.33238 0.65576 0.0
H448 H 0.15358 0.14081 0.80851 0.0
H449 H 0.17498 0.12845 0.7651 0.0
N450 N 0.21679 0.19223 0.78812 0.0
C451 C 0.20641 0.19888 0.81315 0.0
C452 C 0.20662 0.16684 0.77173 0.0
C453 C 0.17139 0.15536 0.80309 0.0
C454 C 0.18343 0.14828 0.77858 0.0
C455 C 0.18319 0.18062 0.8211 0.0
H456 H 0.1552 0.17388 0.85359 0.0
N457 N 0.24377 0.23934 0.8252 0.0
C458 C 0.2203 0.22296 0.83219 0.0
C459 C 0.22645 0.25238 0.87877 0.0
C460 C 0.21095 0.22923 0.8592 0.0
C461 C 0.25968 0.26103 0.84484 0.0
C462 C 0.2511 0.26814 0.87168 0.0
O463 O 0.27532 0.23937 0.701 0.0
O464 O 0.27046 0.21356 0.73579 0.0
O465 O 0.28605 0.22851 0.81073 0.0
O466 O 0.269 0.19276 0.7778 0.0
O467 O 0.24337 0.24397 0.73512 0.0
O468 O 0.21991 0.20823 0.74844 0.0
O469 O 0.24331 0.26193 0.79231 0.0
O470 O 0.2447 0.28541 0.75605 0.0
O471 O 0.22881 0.26683 0.68652 0.0
O472 O 0.24844 0.30674 0.71136 0.0
O473 O 0.28611 0.25579 0.76036 0.0
O474 O 0.29109 0.29607 0.754 0.0
C475 C 0.27717 0.21899 0.71048 0.0
C476 C 0.22164 0.22345 0.73104 0.0
C477 C 0.28238 0.18701 0.82103 0.0
C478 C 0.30206 0.16518 0.84828 0.0
C479 C 0.25441 0.15246 0.84357 0.0
C480 C 0.25733 0.17129 0.82759 0.0
C481 C 0.27646 0.1492 0.85358 0.0
C482 C 0.30483 0.18405 0.83159 0.0
C483 C 0.2847 0.20417 0.80073 0.0
C484 C 0.18698 0.21178 0.8663 0.0
C485 C 0.17317 0.18755 0.84733 0.0
H486 H 0.21994 0.25782 0.89971 0.0
C487 C 0.23865 0.28037 0.78161 0.0
C488 C 0.29531 0.28149 0.76997 0.0
C489 C 0.22924 0.30295 0.66705 0.0
C490 C 0.20818 0.32306 0.63919 0.0
C491 C 0.25172 0.32233 0.62885 0.0
C492 C 0.25115 0.30934 0.65065 0.0
C493 C 0.23049 0.32915 0.62314 0.0
C494 C 0.20777 0.31002 0.66144 0.0
C495 C 0.23014 0.2914 0.69165 0.0
H496 H 0.23489 0.13998 0.84782 0.0
H497 H 0.23985 0.1729 0.81965 0.0
H498 H 0.27329 0.13371 0.86513 0.0
H499 H 0.32422 0.19619 0.82661 0.0
H500 H 0.26887 0.32746 0.61655 0.0
H501 H 0.26812 0.30488 0.65513 0.0
H502 H 0.23177 0.33972 0.60642 0.0
H503 H 0.19097 0.3055 0.67435 0.0
C504 C 0.7769 0.20504 0.81339 0.0
C505 C 0.74442 0.15987 0.8009 0.0
C506 C 0.75932 0.18399 0.79312 0.0
C507 C 0.74718 0.15724 0.82881 0.0
C508 C 0.77997 0.20216 0.84131 0.0
C509 C 0.76496 0.17824 0.84889 0.0
N510 N 0.79084 0.22841 0.80596 0.0
C511 C 0.80926 0.24879 0.82461 0.0
C512 C 0.7982 0.22341 0.86085 0.0
C513 C 0.81306 0.24674 0.85238 0.0
Gd514 Gd 0.73088 0.26469 0.73697 0.0
Gd515 Gd 0.7838 0.22936 0.75877 0.0
N516 N 0.757 0.18686 0.76597 0.0
C517 C 0.72733 0.13882 0.78034 0.0
C518 C 0.74133 0.16564 0.74556 0.0
C519 C 0.726 0.14165 0.75255 0.0
H520 H 0.74058 0.16631 0.72358 0.0
H521 H 0.71338 0.12515 0.73632 0.0
H522 H 0.78471 0.32356 0.75884 0.0
H523 H 0.82142 0.26645 0.81796 0.0
H524 H 0.80964 0.36206 0.73984 0.0
H525 H 0.71552 0.12008 0.78556 0.0
H526 H 0.73584 0.13886 0.83502 0.0
H527 H 0.68867 0.22233 0.68359 0.0
H528 H 0.8012 0.22187 0.88241 0.0
H529 H 0.82758 0.26307 0.86716 0.0
H530 H 0.76789 0.34422 0.64752 0.0
H531 H 0.76705 0.17574 0.87024 0.0
H532 H 0.69736 0.2604 0.61386 0.0
H533 H 0.67537 0.22137 0.63462 0.0
N534 N 0.71826 0.26103 0.68995 0.0
C535 C 0.73056 0.28284 0.67915 0.0
C536 C 0.69869 0.23919 0.67444 0.0
C537 C 0.70337 0.26084 0.63527 0.0
C538 C 0.69098 0.23872 0.64685 0.0
C539 C 0.72348 0.28321 0.65135 0.0
H540 H 0.73156 0.30631 0.61906 0.0
N541 N 0.75814 0.30322 0.72197 0.0
C542 C 0.75105 0.30445 0.69549 0.0
C543 C 0.78618 0.34752 0.7002 0.0
C544 C 0.76493 0.32666 0.684 0.0
C545 C 0.77886 0.32374 0.73785 0.0
C546 C 0.79319 0.34599 0.72716 0.0
O547 O 0.75622 0.23623 0.79249 0.0
O548 O 0.72263 0.23214 0.76187 0.0
O549 O 0.71127 0.29091 0.75612 0.0
O550 O 0.68811 0.25108 0.73251 0.0
O551 O 0.76065 0.20879 0.7166 0.0
O552 O 0.72644 0.22157 0.73057 0.0
O553 O 0.76037 0.25974 0.70431 0.0
O554 O 0.79512 0.26077 0.73203 0.0
O555 O 0.80816 0.20711 0.74293 0.0
O556 O 0.82646 0.24814 0.76645 0.0
O557 O 0.75382 0.2891 0.77834 0.0
O558 O 0.77936 0.268 0.76091 0.0
C559 C 0.7315 0.23309 0.78753 0.0
C560 C 0.73762 0.20964 0.7108 0.0
C561 C 0.67177 0.26787 0.77507 0.0
C562 C 0.66345 0.28473 0.82387 0.0
C563 C 0.63426 0.2413 0.79706 0.0
C564 C 0.64928 0.24468 0.77349 0.0
C565 C 0.64107 0.2613 0.82204 0.0
C566 C 0.67908 0.28725 0.8006 0.0
C567 C 0.68789 0.27221 0.75049 0.0
C568 C 0.75752 0.32724 0.65654 0.0
C569 C 0.73684 0.30564 0.64031 0.0
H570 H 0.79738 0.36482 0.69204 0.0
C571 C 0.78494 0.2613 0.7075 0.0
C572 C 0.77459 0.28397 0.78232 0.0
C573 C 0.84718 0.23389 0.72601 0.0
C574 C 0.85754 0.2203 0.6771 0.0
C575 C 0.88477 0.26322 0.7065 0.0
C576 C 0.86909 0.25785 0.72927 0.0
C577 C 0.87912 0.24455 0.68053 0.0
C578 C 0.84141 0.21548 0.6997 0.0
C579 C 0.82998 0.228 0.74958 0.0
H580 H 0.6169 0.22343 0.79573 0.0
H581 H 0.64329 0.22924 0.75411 0.0
H582 H 0.62825 0.25878 0.83939 0.0
H583 H 0.69685 0.3048 0.80223 0.0
H584 H 0.90161 0.28174 0.70912 0.0
H585 H 0.87399 0.27246 0.74931 0.0
H586 H 0.89213 0.24867 0.66356 0.0
H587 H 0.82443 0.19702 0.69674 0.0
C588 C 0.80925 0.80952 0.8312 0.0
C589 C 0.78286 0.8045 0.87221 0.0
C590 C 0.78814 0.7942 0.84436 0.0
C591 C 0.7982 0.83071 0.88618 0.0
C592 C 0.82534 0.83549 0.84585 0.0
C593 C 0.8193 0.84618 0.873 0.0
N594 N 0.81513 0.79854 0.80509 0.0
C595 C 0.83834 0.81142 0.79415 0.0
C596 C 0.8477 0.84966 0.83329 0.0
C597 C 0.85449 0.83736 0.80761 0.0
Gd598 Gd 0.73069 0.74525 0.71202 0.0
Gd599 Gd 0.78545 0.75503 0.7849 0.0
N600 N 0.77314 0.76899 0.83029 0.0
C601 C 0.76244 0.78803 0.88536 0.0
C602 C 0.75375 0.75258 0.84327 0.0
C603 C 0.74798 0.76189 0.8709 0.0
H604 H 0.74273 0.73236 0.83223 0.0
H605 H 0.73239 0.74892 0.88102 0.0
H606 H 0.7727 0.76821 0.66416 0.0
H607 H 0.84488 0.80177 0.77521 0.0
H608 H 0.78352 0.7515 0.61574 0.0
H609 H 0.75787 0.79522 0.90675 0.0
H610 H 0.79421 0.83904 0.90743 0.0
H611 H 0.67137 0.69869 0.72184 0.0
H612 H 0.86047 0.86965 0.84385 0.0
H613 H 0.87245 0.84767 0.79843 0.0
H614 H 0.72154 0.66147 0.58922 0.0
H615 H 0.83131 0.86617 0.88436 0.0
H616 H 0.65515 0.63103 0.65275 0.0
H617 H 0.64345 0.65293 0.69839 0.0
N618 N 0.70091 0.70186 0.69175 0.0
C619 C 0.70671 0.69089 0.66559 0.0
C620 C 0.67774 0.68905 0.70276 0.0
C621 C 0.66806 0.65094 0.66339 0.0
C622 C 0.66142 0.6632 0.68919 0.0
C623 C 0.69047 0.66502 0.65085 0.0
H624 H 0.68427 0.63446 0.61219 0.0
N625 N 0.74288 0.73137 0.66653 0.0
C626 C 0.72786 0.70619 0.65244 0.0
C627 C 0.75362 0.71232 0.61148 0.0
C628 C 0.73308 0.69591 0.62455 0.0
C629 C 0.76207 0.74785 0.65341 0.0
C630 C 0.768 0.73848 0.62589 0.0
O631 O 0.75329 0.77329 0.79549 0.0
O632 O 0.72666 0.76865 0.75531 0.0
O633 O 0.73083 0.7758 0.68967 0.0
O634 O 0.69473 0.7512 0.70447 0.0
O635 O 0.75101 0.72157 0.75955 0.0
O636 O 0.71287 0.72356 0.74591 0.0
O637 O 0.76273 0.72705 0.70119 0.0
O638 O 0.78871 0.73105 0.7416 0.0
O639 O 0.78638 0.72592 0.80899 0.0
O640 O 0.82136 0.74859 0.79092 0.0
O641 O 0.76508 0.77765 0.73832 0.0
O642 O 0.80367 0.77658 0.7511 0.0
C643 C 0.73417 0.77748 0.78275 0.0
C644 C 0.72634 0.71752 0.76359 0.0
C645 C 0.69015 0.76658 0.6641 0.0
C646 C 0.66583 0.78349 0.63598 0.0
C647 C 0.66393 0.73787 0.62116 0.0
C648 C 0.68068 0.74189 0.64454 0.0
C649 C 0.65654 0.75843 0.61688 0.0
C650 C 0.68256 0.78738 0.65986 0.0
C651 C 0.70541 0.76961 0.69041 0.0
C652 C 0.7176 0.66979 0.61049 0.0
C653 C 0.69642 0.65437 0.62363 0.0
H654 H 0.75823 0.70512 0.59011 0.0
C655 C 0.78145 0.72246 0.71409 0.0
C656 C 0.78967 0.78216 0.73369 0.0
C657 C 0.82847 0.73514 0.83179 0.0
C658 C 0.85332 0.7181 0.85925 0.0
C659 C 0.8609 0.7655 0.86943 0.0
C660 C 0.84179 0.76093 0.84822 0.0
C661 C 0.8668 0.74441 0.87477 0.0
C662 C 0.83417 0.71367 0.83743 0.0
C663 C 0.81152 0.73131 0.80647 0.0
H664 H 0.65638 0.71861 0.60646 0.0
H665 H 0.68567 0.72548 0.64774 0.0
H666 H 0.64316 0.75458 0.59876 0.0
H667 H 0.68953 0.80638 0.6751 0.0
H668 H 0.87157 0.78558 0.88148 0.0
H669 H 0.83809 0.77774 0.84398 0.0
H670 H 0.88234 0.74889 0.89085 0.0
H671 H 0.82397 0.69376 0.82465 0.0
Cd672 Cd 0.98566 0.97221 0.52614 0.0
Cd673 Cd 0.01935 0.01858 0.45915 0.0
C674 C 0.04037 0.96682 0.54186 0.0
N675 N 0.01741 0.95368 0.52548 0.0
C676 C 0.02744 0.91436 0.51269 0.0
C677 C 0.05094 0.92725 0.53005 0.0
C678 C 0.0575 0.95394 0.54442 0.0
C679 C 0.01076 0.928 0.51093 0.0
H680 H 0.04504 0.98688 0.55408 0.0
H681 H 0.99193 0.91772 0.49901 0.0
C682 C 0.97587 0.96682 0.45503 0.0
C683 C 0.96548 0.02961 0.45785 0.0
C684 C 0.95106 0.04597 0.45923 0.0
C685 C 0.96253 0.07281 0.47353 0.0
C686 C 0.987 0.08193 0.48873 0.0
C687 C 1.00055 0.06478 0.48715 0.0
N688 N 0.99011 0.03962 0.47085 0.0
H689 H 0.95777 0.00965 0.44472 0.0
H690 H 0.02034 0.07217 0.49693 0.0
C691 C 0.03761 0.96879 0.45176 0.0
N692 N 0.04467 0.99479 0.46537 0.0
C693 C 0.08609 0.99626 0.48192 0.0
C694 C 0.07929 0.96951 0.46795 0.0
C695 C 0.05455 0.95551 0.45324 0.0
C696 C 0.0683 0.00863 0.48031 0.0
H697 H 0.01951 0.95865 0.43857 0.0
H698 H 0.07374 0.02957 0.48994 0.0
C699 C 0.03076 0.03084 0.53782 0.0
C700 C 0.94685 0.93605 0.55053 0.0
N701 N 0.96159 -0.00097 0.52998 0.0
C702 C 0.96658 0.02028 0.55229 0.0
C703 C 0.95286 0.03717 0.55361 0.0
C704 C 0.93347 0.03179 0.53203 0.0
C705 C 0.92779 0.00895 0.51005 0.0
C706 C 0.94213 0.99267 0.50955 0.0
C707 C 0.05441 0.05127 0.42667 0.0
O708 O 0.98793 0.97827 0.47906 0.0
O709 O 0.9832 0.97845 0.43481 0.0
O710 O 0.02691 0.02671 0.51104 0.0
O711 O 0.01852 0.01271 0.55075 0.0
O712 O 0.94968 0.93007 0.52401 0.0
O713 O 0.96234 0.95831 0.56513 0.0
O714 O 0.05253 0.05978 0.45286 0.0
O715 O 0.03932 0.02765 0.41523 0.0
H716 H 0.9811 0.02413 0.5692 0.0
H717 H 0.93784 0.97501 0.49286 0.0
H718 H 0.02171 0.89381 0.5012 0.0
H719 H 0.07505 0.96443 0.55865 0.0
H720 H 0.9323 0.03841 0.44704 0.0
H721 H 0.99636 0.10259 0.49985 0.0
H722 H 0.10522 0.00765 0.49312 0.0
H723 H 0.04905 0.93503 0.44152 0.0
H724 H 0.95712 0.05404 0.57153 0.0
H725 H 0.91284 0.00398 0.49315 0.0
Cd726 Cd 0.47992 0.99661 0.04396 0.0
Cd727 Cd 0.53422 0.00055 0.9569 0.0
C728 C 0.52386 0.98479 0.07919 0.0
N729 N 0.50807 0.97575 0.05476 0.0
C730 C 0.52317 0.9397 0.04006 0.0
C731 C 0.53988 0.94871 0.06492 0.0
C732 C 0.5402 0.97166 0.08457 0.0
C733 C 0.50748 0.95366 0.03533 0.0
H734 H 0.52379 0.00221 0.0945 0.0
H735 H 0.4947 0.94681 0.01615 0.0
C736 C 0.47357 0.96838 0.96827 0.0
C737 C 0.49849 0.01787 0.91685 0.0
C738 C 0.48374 0.03211 0.91019 0.0
C739 C 0.47633 0.0489 0.93207 0.0
C740 C 0.48364 0.0505 0.96032 0.0
C741 C 0.49863 0.03619 0.96598 0.0
N742 N 0.50584 0.02036 0.94439 0.0
H743 H 0.5045 0.00524 0.90003 0.0
H744 H 0.50496 0.03815 0.98769 0.0
C745 C 0.54367 0.94672 0.92017 0.0
N746 N 0.55382 0.96725 0.9433 0.0
C747 C 0.59216 0.95584 0.94581 0.0
C748 C 0.5826 0.93487 0.92146 0.0
C749 C 0.55763 0.93024 0.90903 0.0
C750 C 0.57753 0.97179 0.95628 0.0
H751 H 0.5251 0.94364 0.90967 0.0
H752 H 0.5857 0.98859 0.97415 0.0
C753 C 0.53991 0.02875 0.0319 0.0
C754 C 0.44259 0.95876 0.06837 0.0
N755 N 0.46118 0.03054 0.05792 0.0
C756 C 0.46701 0.0462 0.08473 0.0
C757 C 0.45314 0.06288 0.09532 0.0
C758 C 0.43276 0.06364 0.07837 0.0
C759 C 0.4277 0.04766 0.05046 0.0
C760 C 0.44204 0.03121 0.04073 0.0
C761 C 0.57168 0.03923 0.93334 0.0
O762 O 0.48305 0.9827 0.99266 0.0
O763 O 0.48858 0.96913 0.94772 0.0
O764 O 0.53015 0.01338 0.00806 0.0
O765 O 0.52515 0.02891 0.05256 0.0
O766 O 0.43998 0.95796 0.04198 0.0
O767 O 0.46181 0.9779 0.08311 0.0
O768 O 0.57075 0.04243 0.96021 0.0
O769 O 0.55601 0.01746 0.91796 0.0
H770 H 0.48178 0.04499 0.09841 0.0
H771 H 0.43724 0.0183 0.01968 0.0
H772 H 0.52241 0.92217 0.02432 0.0
H773 H 0.55258 0.97907 0.10417 0.0
H774 H 0.47825 0.03006 0.88813 0.0
H775 H 0.47857 0.06334 0.97783 0.0
H776 H 0.61134 0.96073 0.95611 0.0
H777 H 0.54897 0.91422 0.89056 0.0
H778 H 0.45775 0.07425 0.11707 0.0
H779 H 0.41261 0.04757 0.03619 0.0
Cd780 Cd 0.98098 0.49901 0.04179 0.0
Cd781 Cd 0.03334 0.4977 0.95739 0.0
C782 C 0.02807 0.49149 0.07753 0.0
N783 N 0.01031 0.48028 0.05464 0.0
C784 C 0.02306 0.44242 0.04347 0.0
C785 C 0.04168 0.45338 0.06692 0.0
C786 C 0.0441 0.47837 0.084 0.0
C787 C 0.00759 0.45624 0.03773 0.0
H788 H 0.02973 0.51051 0.09085 0.0
H789 H 0.99301 0.44755 0.01994 0.0
C790 C 0.9746 0.46413 0.96898 0.0
C791 C 0.99757 0.51492 0.91718 0.0
C792 C 0.98333 0.52943 0.91 0.0
C793 C 0.97554 0.54612 0.93155 0.0
C794 C 0.98205 0.54754 0.95995 0.0
C795 C 0.99683 0.5332 0.96615 0.0
N796 N 1.00439 0.51733 0.94489 0.0
H797 H 1.00375 0.50226 0.90057 0.0
H798 H 1.00268 0.53522 0.98799 0.0
C799 C 0.04299 0.44418 0.92177 0.0
N800 N 0.0536 0.46495 0.94454 0.0
C801 C 0.09198 0.45347 0.94621 0.0
C802 C 0.08191 0.43217 0.92215 0.0
C803 C 0.05663 0.42748 0.91043 0.0
C804 C 0.07755 0.46956 0.957 0.0
H805 H 0.02422 0.44106 0.91168 0.0
H806 H 0.08607 0.48652 0.97463 0.0
C807 C 0.03858 0.53379 0.02864 0.0
C808 C 0.94549 0.45962 0.06443 0.0
N809 N 0.95951 0.53042 0.05653 0.0
C810 C 0.96844 0.5498 0.08081 0.0
C811 C 0.95394 0.56569 0.09197 0.0
C812 C 0.92974 0.56173 0.07824 0.0
C813 C 0.92139 0.54186 0.05282 0.0
C814 C 0.93649 0.52639 0.04245 0.0
C815 C 0.06933 0.53427 0.93085 0.0
O816 O 0.98418 0.48227 0.99119 0.0
O817 O 0.98913 0.4629 0.94826 0.0
O818 O 0.03045 0.51292 0.00877 0.0
O819 O 0.02372 0.53575 0.04891 0.0
O820 O 0.94169 0.45985 0.03854 0.0
O821 O 0.96468 0.47863 0.07939 0.0
O822 O 0.0701 0.5384 0.95783 0.0
O823 O 0.05274 0.51239 0.91672 0.0
H824 H 0.98644 0.55237 0.09214 0.0
H825 H 0.92939 0.51061 0.02347 0.0
H826 H 0.01998 0.42305 0.02997 0.0
H827 H 0.05832 0.48781 0.10213 0.0
H828 H 0.9785 0.5277 0.88783 0.0
H829 H 0.97653 0.56031 0.97715 0.0
H830 H 0.11136 0.45854 0.95606 0.0
H831 H 0.04739 0.41122 0.89236 0.0
H832 H 0.96126 0.58027 0.1118 0.0
H833 H 0.90322 0.53806 0.041 0.0
Cd834 Cd 0.48769 0.47159 0.03235 0.0
Cd835 Cd 0.5283 0.52601 0.97155 0.0
C836 C 0.54232 0.46425 0.03654 0.0
N837 N 0.51752 0.45088 0.02424 0.0
C838 C 0.52502 0.41017 0.0123 0.0
C839 C 0.55033 0.42321 0.02611 0.0
C840 C 0.55919 0.45075 0.03765 0.0
C841 C 0.50871 0.42445 0.01191 0.0
H842 H 0.54855 0.48511 0.04684 0.0
H843 H 0.48851 0.41415 0.00338 0.0
C844 C 0.48328 0.47237 0.96014 0.0
C845 C 0.47681 0.53798 0.97872 0.0
C846 C 0.46089 0.55174 0.9749 0.0
C847 C 0.47233 0.57928 0.9772 0.0
C848 C 0.49912 0.59287 0.98579 0.0
C849 C 0.51448 0.57818 0.98895 0.0
N850 N 0.50317 0.5512 0.98415 0.0
H851 H 0.46854 0.51653 0.97455 0.0
H852 H 0.53566 0.58795 0.99242 0.0
C853 C 0.54704 0.47841 0.95311 0.0
N854 N 0.55238 0.50073 0.97401 0.0
C855 C 0.58685 0.49279 0.99518 0.0
C856 C 0.58112 0.46912 0.97434 0.0
C857 C 0.56109 0.46209 0.95299 0.0
C858 C 0.572 0.50845 0.99464 0.0
H859 H 0.53212 0.47349 0.93626 0.0
H860 H 0.57614 0.52673 0.01054 0.0
C861 C 0.5291 0.52864 0.04699 0.0
C862 C 0.45073 0.43397 0.05713 0.0
N863 N 0.45979 0.49414 0.03076 0.0
C864 C 0.46518 0.51868 0.04789 0.0
C865 C 0.44886 0.53255 0.04624 0.0
C866 C 0.42641 0.52077 0.02732 0.0
C867 C 0.42057 0.49496 0.01074 0.0
C868 C 0.43768 0.48187 0.01291 0.0
C869 C 0.56396 0.55674 0.93881 0.0
O870 O 0.49381 0.47952 0.98509 0.0
O871 O 0.49278 0.48768 0.94337 0.0
O872 O 0.52402 0.52042 0.02041 0.0
O873 O 0.51848 0.51231 0.06255 0.0
O874 O 0.44842 0.4321 0.0305 0.0
O875 O 0.47053 0.45272 0.07136 0.0
O876 O 0.56884 0.56112 0.96549 0.0
O877 O 0.54221 0.53868 0.92796 0.0
H878 H 0.4818 0.52753 0.06326 0.0
H879 H 0.43328 0.46186 0.00055 0.0
H880 H 0.51749 0.38896 0.00306 0.0
H881 H 0.57839 0.46151 0.0489 0.0
H882 H 0.44028 0.54075 0.96795 0.0
H883 H 0.50848 0.61408 0.98711 0.0
H884 H 0.6023 0.49887 0.01185 0.0
H885 H 0.55679 0.44452 0.93591 0.0
H886 H 0.45344 0.55206 0.06015 0.0
H887 H 0.40313 0.48514 0.99626 0.0
Cd888 Cd 0.97754 0.49529 0.53941 0.0
Cd889 Cd 0.03628 0.50255 0.45653 0.0
C890 C 0.02509 0.48808 0.5742 0.0
N891 N 0.00721 0.47677 0.55141 0.0
C892 C 0.02053 0.43932 0.53972 0.0
C893 C 0.03915 0.45036 0.56314 0.0
C894 C 0.04143 0.47521 0.58039 0.0
C895 C 1.00471 0.45289 0.53429 0.0
H896 H 0.02645 0.50691 0.58777 0.0
H897 H 0.99013 0.44419 0.51652 0.0
C898 C 0.97837 0.46349 0.46687 0.0
C899 C 0.99819 0.51691 0.41603 0.0
C900 C 0.98296 0.53053 0.40888 0.0
C901 C 0.9755 0.5476 0.43037 0.0
C902 C 0.98321 0.55012 0.45871 0.0
C903 C 0.99874 0.5365 0.46485 0.0
N904 N 1.00607 0.5204 0.44365 0.0
H905 H 1.00434 0.50416 0.39949 0.0
H906 H 1.00548 0.53937 0.48659 0.0
C907 C 0.0508 0.45477 0.41491 0.0
N908 N 0.05711 0.47032 0.44177 0.0
C909 C 0.09134 0.45367 0.44755 0.0
C910 C 0.08572 0.43781 0.41957 0.0
C911 C 0.0647 0.43837 0.40349 0.0
C912 C 0.07688 0.46981 0.45817 0.0
H913 H 0.03533 0.45564 0.40194 0.0
H914 H 0.08208 0.48262 0.47926 0.0
C915 C 0.03558 0.53375 0.52876 0.0
C916 C 0.9413 0.45667 0.56396 0.0
N917 N 0.95653 0.52733 0.55307 0.0
C918 C 0.96698 0.54829 0.57574 0.0
C919 C 0.95328 0.56507 0.58654 0.0
C920 C 0.92829 0.56033 0.57419 0.0
C921 C 0.91823 0.53876 0.55048 0.0
C922 C 0.93265 0.52253 0.5403 0.0
C923 C 0.07358 0.54181 0.43359 0.0
O924 O 0.98425 0.48275 0.48849 0.0
O925 O 0.99415 0.46492 0.44701 0.0
O926 O 0.02987 0.51388 0.50776 0.0
O927 O 0.01957 0.53302 0.54834 0.0
O928 O 0.93881 0.45539 0.53743 0.0
O929 O 0.95993 0.47656 0.57867 0.0
O930 O 0.07392 0.54379 0.46038 0.0
O931 O 0.05654 0.5211 0.41803 0.0
H932 H 0.98566 0.55153 0.58612 0.0
H933 H 0.92438 0.50557 0.52261 0.0
H934 H 0.01821 0.42039 0.52567 0.0
H935 H 0.05522 0.48431 0.5989 0.0
H936 H 0.97723 0.5279 0.38675 0.0
H937 H 0.9781 0.56325 0.47589 0.0
H938 H 0.10743 0.45445 0.4609 0.0
H939 H 0.05902 0.42635 0.38207 0.0
H940 H 0.96186 0.58107 0.60506 0.0
H941 H 0.89928 0.53431 0.53991 0.0
Cd942 Cd 0.48017 -0.00101 0.53904 0.0
Cd943 Cd 0.53414 0.00014 0.45652 0.0
C944 C 0.5291 0.99046 0.57039 0.0
N945 N 0.50868 0.97871 0.5502 0.0
C946 C 0.51676 0.93809 0.54098 0.0
C947 C 0.53788 0.94956 0.56177 0.0
C948 C 0.54416 0.97623 0.57636 0.0
C949 C 0.50243 0.95308 0.5355 0.0
H950 H 0.53346 0.01068 0.58223 0.0
H951 H 0.48593 0.94411 0.51979 0.0
C952 C 0.47665 0.96295 0.46716 0.0
C953 C 0.48632 0.00844 0.42267 0.0
C954 C 0.47119 0.02258 0.41662 0.0
C955 C 0.47694 0.04902 0.43174 0.0
C956 C 0.49768 0.06038 0.45298 0.0
C957 C 0.51209 0.0455 0.45846 0.0
N958 N 0.5063 0.02009 0.44337 0.0
H959 H 0.48224 0.98831 0.4107 0.0
H960 H 0.52814 0.05431 0.47472 0.0
C961 C 0.54687 0.95186 0.41641 0.0
N962 N 0.55372 0.96746 0.44317 0.0
C963 C 0.58781 0.95066 0.44838 0.0
C964 C 0.58173 0.93495 0.42039 0.0
C965 C 0.56054 0.93543 0.40465 0.0
C966 C 0.57364 0.96695 0.45931 0.0
H967 H 0.53134 0.95293 0.40372 0.0
H968 H 0.57926 0.97997 0.48026 0.0
C969 C 0.53733 0.03592 0.52803 0.0
C970 C 0.44471 0.96119 0.56416 0.0
N971 N 0.45848 0.03021 0.55251 0.0
C972 C 0.469 0.05198 0.57431 0.0
C973 C 0.45463 0.06808 0.58509 0.0
C974 C 0.42893 0.06187 0.57355 0.0
C975 C 0.41889 0.03949 0.55062 0.0
C976 C 0.43391 0.0239 0.54057 0.0
C977 C 0.57286 0.03697 0.43298 0.0
O978 O 0.48446 0.9826 0.48838 0.0
O979 O 0.49183 0.96258 0.44695 0.0
O980 O 0.52913 0.01603 0.5071 0.0
O981 O 0.52225 0.03705 0.54823 0.0
O982 O 0.44014 0.96127 0.53844 0.0
O983 O 0.46491 0.97968 0.57809 0.0
O984 O 0.57298 0.03957 0.45981 0.0
O985 O 0.55521 0.01669 0.4175 0.0
H986 H 0.48826 0.05638 0.58409 0.0
H987 H 0.4256 0.00626 0.52365 0.0
H988 H 0.51131 0.91771 0.52904 0.0
H989 H 0.56006 0.98576 0.59283 0.0
H990 H 0.45559 0.01313 0.39984 0.0
H991 H 0.50267 0.08055 0.46538 0.0
H992 H 0.60411 0.95129 0.46131 0.0
H993 H 0.55476 0.9235 0.38319 0.0
H994 H 0.46333 0.08468 0.60303 0.0
H995 H 0.39948 0.03383 0.54051 0.0
C996 C 0.19456 0.20606 0.3011 0.0
C997 C 0.21502 0.20137 0.28582 0.0
C998 C 0.18222 0.19043 0.32005 0.0
C999 C 0.15651 0.12531 0.32441 0.0
H1000 H 0.15456 0.14745 0.40597 0.0
C1001 C 0.08535 0.05575 0.38803 0.0
C1002 C 0.07431 0.06771 0.41079 0.0
C1003 C 0.10581 0.07145 0.37446 0.0
C1004 C 0.15466 0.14102 0.38316 0.0
H1005 H 0.239 0.1772 0.27816 0.0
H1006 H 0.2165 0.14898 0.31077 0.0
H1007 H 0.18595 0.17753 0.38039 0.0
H1008 H 0.07512 0.10518 0.43681 0.0
H1009 H 0.1096 0.13269 0.41207 0.0
H1010 H 0.12408 0.0898 0.32636 0.0
C1011 C 0.21069 0.16525 0.30862 0.0
C1012 C 0.17284 0.15812 0.36871 0.0
C1013 C 0.22348 0.18133 0.29014 0.0
C1014 C 0.08351 0.09555 0.41938 0.0
C1015 C 0.1035 0.11126 0.4054 0.0
C1016 C 0.13795 0.10844 0.3387 0.0
C1017 C 0.18978 0.16954 0.32331 0.0
C1018 C 0.17357 0.15043 0.33925 0.0
C1019 C 0.11516 0.09943 0.38299 0.0
C1020 C 0.13644 0.1163 0.36819 0.0
H1021 H 0.18781 0.22146 0.29794 0.0
H1022 H 0.1659 0.19375 0.33109 0.0
H1023 H 0.15669 0.1193 0.30153 0.0
H1024 H 0.07876 0.03426 0.38131 0.0
H1025 H 0.11453 0.0616 0.35759 0.0
C1026 C 0.82272 0.14849 0.36375 0.0
C1027 C 0.83019 0.15627 0.33813 0.0
C1028 C 0.84137 0.14793 0.38266 0.0
C1029 C 0.90515 0.14025 0.38228 0.0
H1030 H 0.89709 0.14884 0.46339 0.0
C1031 C 0.96753 0.11208 0.45412 0.0
C1032 C 0.95178 0.09196 0.46728 0.0
C1033 C 0.95642 0.12692 0.44248 0.0
C1034 C 0.89965 0.1466 0.44081 0.0
H1035 H 0.86346 0.17086 0.31292 0.0
H1036 H 0.89616 0.17073 0.34642 0.0
H1037 H 0.87155 0.16385 0.4347 0.0
H1038 H 0.91257 0.07222 0.47975 0.0
H1039 H 0.89319 0.0991 0.4604 0.0
H1040 H 0.93298 0.12266 0.38842 0.0
C1041 C 0.87574 0.1645 0.35158 0.0
C1042 C 0.88501 0.15505 0.42436 0.0
C1043 C 0.85701 0.16483 0.33252 0.0
C1044 C 0.92509 0.08794 0.47012 0.0
C1045 C 0.91409 0.10325 0.45904 0.0
C1046 C 0.92004 0.13218 0.39879 0.0
C1047 C 0.86801 0.1554 0.37654 0.0
C1048 C 0.88692 0.15111 0.39475 0.0
C1049 C 0.9295 0.12221 0.4443 0.0
C1050 C 0.91682 0.13459 0.42802 0.0
H1051 H 0.80233 0.1423 0.36899 0.0
H1052 H 0.83463 0.14051 0.40148 0.0
H1053 H 0.90687 0.13653 0.35952 0.0
H1054 H 0.98806 0.11512 0.45117 0.0
H1055 H 0.9686 0.14137 0.43111 0.0
C1056 C 0.83855 0.77829 0.29099 0.0
C1057 C 0.82061 0.78991 0.28615 0.0
C1058 C 0.85844 0.7915 0.3128 0.0
C1059 C 0.90005 0.85466 0.34988 0.0
H1060 H 0.88663 0.8382 0.42424 0.0
C1061 C 0.92986 0.93606 0.44195 0.0
C1062 C 0.95578 0.94022 0.45004 0.0
C1063 C 0.91238 0.9104 0.43008 0.0
C1064 C 0.89079 0.84257 0.40348 0.0
H1065 H 0.80915 0.82403 0.29876 0.0
H1066 H 0.84448 0.84757 0.33622 0.0
H1067 H 0.86096 0.80587 0.38149 0.0
H1068 H 0.98373 0.92165 0.45391 0.0
H1069 H 0.95334 0.87668 0.43198 0.0
H1070 H 0.92845 0.89192 0.37165 0.0
C1071 C 0.84302 0.82828 0.3236 0.0
C1072 C 0.87646 0.82419 0.37923 0.0
C1073 C 0.82311 0.81504 0.30222 0.0
C1074 C 0.9635 0.91851 0.44852 0.0
C1075 C 0.94616 0.89287 0.43617 0.0
C1076 C 0.91435 0.8728 0.37387 0.0
C1077 C 0.86044 0.81639 0.32925 0.0
C1078 C 0.88045 0.83074 0.35258 0.0
C1079 C 0.92114 0.88906 0.42531 0.0
C1080 C 0.90904 0.86727 0.40078 0.0
H1081 H 0.83681 0.75891 0.27846 0.0
H1082 H 0.87203 0.78235 0.31694 0.0
H1083 H 0.90292 0.8601 0.32949 0.0
H1084 H 0.92379 0.95276 0.44275 0.0
H1085 H 0.89319 0.90771 0.42131 0.0
C1086 C 0.15807 0.80458 0.37521 0.0
C1087 C 0.17089 0.80839 0.3501 0.0
C1088 C 0.15906 0.82651 0.39658 0.0
C1089 C 0.16278 0.89279 0.39592 0.0
H1090 H 0.15022 0.8979 0.4758 0.0
C1091 C 0.12346 0.96962 0.45524 0.0
C1092 C 0.09895 0.95705 0.46547 0.0
C1093 C 0.14047 0.95602 0.4482 0.0
C1094 C 0.1541 0.89684 0.45359 0.0
H1095 H 0.19768 0.83882 0.32997 0.0
H1096 H 0.20087 0.87593 0.36777 0.0
H1097 H 0.16761 0.86464 0.45082 0.0
H1098 H 0.07314 0.92107 0.47708 0.0
H1099 H 0.10333 0.89759 0.46595 0.0
H1100 H 0.14813 0.92388 0.39814 0.0
C1101 C 0.18914 0.8561 0.37038 0.0
C1102 C 0.16391 0.87786 0.43935 0.0
C1103 C 0.18751 0.83445 0.34873 0.0
C1104 C 0.09221 0.93129 0.46991 0.0
C1105 C 0.10948 0.91794 0.46356 0.0
C1106 C 0.15322 0.91175 0.41013 0.0
C1107 C 0.17337 0.8525 0.3934 0.0
C1108 C 0.16771 0.87527 0.4102 0.0
C1109 C 0.13332 0.92989 0.45178 0.0
C1110 C 0.14818 0.91347 0.43886 0.0
H1111 H 0.14589 0.78485 0.37763 0.0
H1112 H 0.14686 0.82312 0.41432 0.0
H1113 H 0.1647 0.89082 0.37326 0.0
H1114 H 0.12873 0.98927 0.45099 0.0
H1115 H 0.15863 0.96541 0.43875 0.0
C1116 C 0.15234 0.82109 0.65602 0.0
C1117 C 0.17659 0.83865 0.66999 0.0
C1118 C 0.14141 0.82768 0.63421 0.0
C1119 C 0.14353 0.88779 0.61307 0.0
H1120 H 0.09997 0.83852 0.54692 0.0
C1121 C 0.09513 0.92548 0.5386 0.0
C1122 C 0.0676 0.91261 0.53525 0.0
C1123 C 0.11059 0.91364 0.5486 0.0
C1124 C 0.11219 0.85243 0.56528 0.0
H1125 H 0.2095 0.8756 0.67158 0.0
H1126 H 0.19085 0.88696 0.63292 0.0
H1127 H 0.12395 0.82284 0.57693 0.0
H1128 H 0.03484 0.87636 0.5377 0.0
H1129 H 0.06201 0.85565 0.55519 0.0
H1130 H 0.13151 0.91719 0.60198 0.0
C1131 C 0.17987 0.86849 0.63911 0.0
C1132 C 0.1258 0.84349 0.58245 0.0
C1133 C 0.1906 0.86202 0.66105 0.0
C1134 C 0.05603 0.88672 0.53991 0.0
C1135 C 0.07155 0.87484 0.54991 0.0
C1136 C 0.13015 0.89669 0.5959 0.0
C1137 C 0.15476 0.85186 0.62615 0.0
C1138 C 0.14153 0.86113 0.60658 0.0
C1139 C 0.09881 0.88872 0.55544 0.0
C1140 C 0.11432 0.87912 0.57193 0.0
H1141 H 0.14142 0.80291 0.6628 0.0
H1142 H 0.12198 0.81456 0.62476 0.0
H1143 H 0.15479 0.90168 0.63198 0.0
H1144 H 0.10465 0.94518 0.53453 0.0
H1145 H 0.13167 0.92452 0.55227 0.0
C1146 C 0.17742 0.21538 0.71112 0.0
C1147 C 0.20288 0.21559 0.7069 0.0
C1148 C 0.15797 0.20303 0.68887 0.0
C1149 C 0.13426 0.17352 0.61808 0.0
H1150 H 0.10794 0.10427 0.63713 0.0
C1151 C 0.06826 0.07454 0.54153 0.0
C1152 C 0.04886 0.05654 0.55436 0.0
C1153 C 0.08632 0.09804 0.5583 0.0
C1154 C 0.11467 0.12354 0.63169 0.0
H1155 H 0.22839 0.2034 0.67716 0.0
H1156 H 0.19467 0.18271 0.6378 0.0
H1157 H 0.14037 0.14186 0.6693 0.0
H1158 H 0.03177 0.04975 0.5942 0.0
H1159 H 0.06243 0.09079 0.62303 0.0
H1160 H 0.10824 0.15501 0.58035 0.0
C1161 C 0.18997 0.1928 0.65781 0.0
C1162 C 0.1332 0.14493 0.65006 0.0
C1163 C 0.20918 0.2046 0.6802 0.0
C1164 C 0.04688 0.06297 0.5838 0.0
C1165 C 0.06448 0.08647 0.60034 0.0
C1166 C 0.11524 0.152 0.59967 0.0
C1167 C 0.16407 0.19101 0.6624 0.0
C1168 C 0.143 0.16993 0.6434 0.0
C1169 C 0.08484 0.10385 0.58794 0.0
C1170 C 0.10523 0.12687 0.6065 0.0
H1171 H 0.17227 0.22331 0.73196 0.0
H1172 H 0.13782 0.20094 0.69291 0.0
H1173 H 0.14213 0.19277 0.61262 0.0
H1174 H 0.06995 0.07013 0.51879 0.0
H1175 H 0.10191 0.11112 0.54825 0.0
C1176 C 0.85622 0.20424 0.62403 0.0
C1177 C 0.85311 0.19879 0.65121 0.0
C1178 C 0.8548 0.18403 0.60028 0.0
C1179 C 0.84218 0.11081 0.57847 0.0
H1180 H 0.90372 0.13536 0.53594 0.0
C1181 C 0.89156 0.03925 0.52646 0.0
C1182 C 0.9189 0.04967 0.53302 0.0
C1183 C 0.87753 0.05615 0.53 0.0
C1184 C 0.88639 0.12815 0.54755 0.0
H1185 H 0.84493 0.16768 0.67464 0.0
H1186 H 0.84307 0.13304 0.63396 0.0
H1187 H 0.88722 0.1674 0.56374 0.0
H1188 H 0.95329 0.08593 0.54651 0.0
H1189 H 0.92884 0.1152 0.55423 0.0
H1190 H 0.84339 0.07199 0.56511 0.0
C1191 C 0.84585 0.1525 0.63042 0.0
C1192 C 0.87658 0.14651 0.56314 0.0
C1193 C 0.84712 0.17254 0.65397 0.0
C1194 C 0.93213 0.07732 0.54188 0.0
C1195 C 0.91811 0.09414 0.54574 0.0
C1196 C 0.8524 0.09254 0.56345 0.0
C1197 C 0.85055 0.15813 0.60339 0.0
C1198 C 0.85533 0.13824 0.58017 0.0
C1199 C 0.89056 0.08373 0.5404 0.0
C1200 C 0.87555 0.10131 0.5492 0.0
H1201 H 0.86037 0.22421 0.62123 0.0
H1202 H 0.85806 0.18894 0.57968 0.0
H1203 H 0.82522 0.10365 0.59061 0.0
H1204 H 0.88084 0.01798 0.51969 0.0
H1205 H 0.85638 0.04753 0.52543 0.0
C1206 C 0.82373 0.7911 0.69894 0.0
C1207 C 0.80256 0.79631 0.71209 0.0
C1208 C 0.83675 0.80515 0.679 0.0
C1209 C 0.85566 0.86844 0.66155 0.0
H1210 H 0.86368 0.83253 0.58551 0.0
C1211 C 0.91001 0.92827 0.58176 0.0
C1212 C 0.92639 0.91824 0.56428 0.0
C1213 C 0.89225 0.9124 0.59751 0.0
C1214 C 0.86191 0.84285 0.60676 0.0
H1215 H 0.77849 0.8203 0.71555 0.0
H1216 H 0.80195 0.84558 0.68099 0.0
H1217 H 0.83789 0.80649 0.61807 0.0
H1218 H 0.93746 0.88423 0.54895 0.0
H1219 H 0.90739 0.85668 0.57773 0.0
H1220 H 0.88068 0.90462 0.6512 0.0
C1221 C 0.80802 0.83029 0.68578 0.0
C1222 C 0.84702 0.82795 0.62523 0.0
C1223 C 0.79463 0.81585 0.70533 0.0
C1224 C 0.9246 0.89205 0.56214 0.0
C1225 C 0.90733 0.87635 0.57853 0.0
C1226 C 0.87096 0.88331 0.64332 0.0
C1227 C 0.82912 0.82497 0.67253 0.0
C1228 C 0.84385 0.84069 0.65268 0.0
C1229 C 0.8912 0.8865 0.59669 0.0
C1230 C 0.87427 0.87069 0.61569 0.0
H1231 H 0.83011 0.7761 0.704 0.0
H1232 H 0.85317 0.801 0.66912 0.0
H1233 H 0.85367 0.87853 0.68286 0.0
H1234 H 0.91115 0.94851 0.58342 0.0
H1235 H 0.87965 0.92062 0.61064 0.0
C1236 C 0.32358 0.21408 0.20213 0.0
C1237 C 0.29679 0.20792 0.19481 0.0
C1238 C 0.33725 0.19849 0.188 0.0
C1239 C 0.33504 0.14541 0.12334 0.0
H1240 H 0.38738 0.13702 0.16953 0.0
C1241 C 0.38965 0.07205 0.08121 0.0
C1242 C 0.41656 0.08028 0.09002 0.0
C1243 C 0.37445 0.08715 0.09276 0.0
C1244 C 0.3731 0.13932 0.1561 0.0
H1245 H 0.26365 0.18014 0.16618 0.0
H1246 H 0.2875 0.15296 0.14124 0.0
H1247 H 0.36212 0.16341 0.19114 0.0
H1248 H 0.44828 0.11198 0.11772 0.0
H1249 H 0.42195 0.13778 0.13789 0.0
H1250 H 0.34597 0.12083 0.08834 0.0
C1251 C 0.29808 0.17019 0.1579 0.0
C1252 C 0.3585 0.15463 0.16857 0.0
C1253 C 0.28432 0.18594 0.17213 0.0
C1254 C 0.42764 0.10438 0.11063 0.0
C1255 C 0.41242 0.11935 0.12228 0.0
C1256 C 0.34962 0.1299 0.11085 0.0
C1257 C 0.32471 0.17588 0.166 0.0
C1258 C 0.33942 0.15834 0.15241 0.0
C1259 C 0.3855 0.11096 0.11372 0.0
C1260 C 0.36915 0.12684 0.12697 0.0
H1261 H 0.3341 0.23091 0.21926 0.0
H1262 H 0.35782 0.20425 0.19455 0.0
H1263 H 0.32075 0.14775 0.10997 0.0
H1264 H 0.38 0.05351 0.06582 0.0
H1265 H 0.3538 0.07973 0.08573 0.0
C1266 C 0.83072 0.30823 0.21067 0.0
C1267 C 0.80366 0.29449 0.20358 0.0
C1268 C 0.84529 0.32742 0.19621 0.0
C1269 C 0.84517 0.34204 0.12704 0.0
H1270 H 0.89838 0.41035 0.16261 0.0
C1271 C 0.90281 0.42304 0.06704 0.0
C1272 C 0.92919 0.43777 0.07682 0.0
C1273 C 0.88701 0.40411 0.08126 0.0
C1274 C 0.88379 0.39117 0.1524 0.0
H1275 H 0.77012 0.29105 0.1774 0.0
H1276 H 0.79566 0.32473 0.15224 0.0
H1277 H 0.87084 0.38213 0.19226 0.0
H1278 H 0.96073 0.44268 0.10673 0.0
H1279 H 0.9334 0.40923 0.13102 0.0
H1280 H 0.85842 0.35086 0.08716 0.0
C1281 C 0.8056 0.32034 0.1686 0.0
C1282 C 0.86802 0.37519 0.16935 0.0
C1283 C 0.79104 0.30125 0.1831 0.0
C1284 C 0.94015 0.43207 0.09944 0.0
C1285 C 0.92456 0.41299 0.11331 0.0
C1286 C 0.86107 0.35797 0.11005 0.0
C1287 C 0.8329 0.33298 0.17452 0.0
C1288 C 0.84869 0.35051 0.15677 0.0
C1289 C 0.89766 0.39962 0.10506 0.0
C1290 C 0.88062 0.38257 0.12264 0.0
H1291 H 0.84073 0.30371 0.22681 0.0
H1292 H 0.86638 0.33702 0.2011 0.0
H1293 H 0.83056 0.32282 0.11697 0.0
H1294 H 0.89416 0.427 0.04935 0.0
H1295 H 0.86629 0.39393 0.07447 0.0
C1296 C 0.67624 0.82376 0.10745 0.0
C1297 C 0.68459 0.82816 0.13606 0.0
C1298 C 0.65874 0.8347 0.09979 0.0
C1299 C 0.63632 0.89059 0.12618 0.0
H1300 H 0.58551 0.85544 0.06131 0.0
C1301 C 0.583 0.94767 0.08059 0.0
C1302 C 0.55644 0.93396 0.0707 0.0
C1303 C 0.59826 0.93394 0.08734 0.0
C1304 C 0.59938 0.86553 0.07966 0.0
H1305 H 0.68056 0.84677 0.17923 0.0
H1306 H 0.64953 0.86572 0.16599 0.0
H1307 H 0.61033 0.83178 0.07718 0.0
H1308 H 0.52515 0.89503 0.05968 0.0
H1309 H 0.55137 0.87114 0.07225 0.0
H1310 H 0.62485 0.92402 0.12929 0.0
C1311 C 0.65674 0.85399 0.14937 0.0
C1312 C 0.6139 0.85201 0.08859 0.0
C1313 C 0.67421 0.84285 0.15705 0.0
C1314 C 0.54562 0.90613 0.06712 0.0
C1315 C 0.56076 0.89243 0.07424 0.0
C1316 C 0.62168 0.90403 0.11739 0.0
C1317 C 0.6492 0.85052 0.12056 0.0
C1318 C 0.63266 0.86438 0.11193 0.0
C1319 C 0.58724 0.90616 0.08481 0.0
C1320 C 0.60304 0.89177 0.09393 0.0
H1321 H 0.68407 0.81259 0.09087 0.0
H1322 H 0.65368 0.83174 0.07742 0.0
H1323 H 0.65086 0.90099 0.14392 0.0
H1324 H 0.59202 0.96906 0.08305 0.0
H1325 H 0.61873 0.9452 0.0946 0.0
C1326 C 0.19011 0.68123 0.18031 0.0
C1327 C 0.21777 0.69199 0.18238 0.0
C1328 C 0.17638 0.66786 0.15406 0.0
C1329 C 0.17206 0.62284 0.09264 0.0
H1330 H 0.13085 0.65308 0.0567 0.0
C1331 C 0.08591 0.55211 0.01898 0.0
C1332 C 0.06295 0.55639 0.02763 0.0
C1333 C 0.11042 0.57296 0.02563 0.0
C1334 C 0.14237 0.64437 0.06628 0.0
H1335 H 0.25284 0.69611 0.15914 0.0
H1336 H 0.22847 0.67129 0.11312 0.0
H1337 H 0.16327 0.68121 0.09603 0.0
H1338 H 0.04688 0.58601 0.04679 0.0
H1339 H 0.08923 0.62192 0.05951 0.0
H1340 H 0.14962 0.5855 0.06558 0.0
C1341 C 0.21769 0.67412 0.13179 0.0
C1342 C 0.16096 0.66052 0.08861 0.0
C1343 C 0.2315 0.68793 0.15804 0.0
C1344 C 0.06446 0.58224 0.04024 0.0
C1345 C 0.08886 0.60294 0.04721 0.0
C1346 C 0.15316 0.60658 0.07075 0.0
C1347 C 0.19011 0.6645 0.12967 0.0
C1348 C 0.17518 0.64954 0.10247 0.0
C1349 C 0.11224 0.59812 0.04172 0.0
C1350 C 0.13718 0.61684 0.05817 0.0
H1351 H 0.1791 0.68389 0.19884 0.0
H1352 H 0.15503 0.66007 0.15277 0.0
H1353 H 0.18278 0.61408 0.10337 0.0
H1354 H 0.08513 0.53226 0.00921 0.0
H1355 H 0.128 0.56876 0.0203 0.0
C1356 C 0.31792 0.77951 0.82029 0.0
C1357 C 0.31259 0.79037 0.79845 0.0
C1358 C 0.33482 0.79612 0.84371 0.0
C1359 C 0.34803 0.86151 0.88406 0.0
H1360 H 0.41096 0.86084 0.91901 0.0
C1361 C 0.43019 0.95189 0.9431 0.0
C1362 C 0.44647 0.94968 0.96359 0.0
C1363 C 0.40759 0.93027 0.93142 0.0
C1364 C 0.39286 0.86071 0.91006 0.0
H1365 H 0.32317 0.82588 0.78168 0.0
H1366 H 0.35255 0.85495 0.82284 0.0
H1367 H 0.38808 0.82588 0.87734 0.0
H1368 H 0.45125 0.92487 0.99041 0.0
H1369 H 0.41162 0.88645 0.96949 0.0
H1370 H 0.35315 0.89674 0.9159 0.0
C1371 C 0.34325 0.83383 0.8221 0.0
C1372 C 0.38009 0.84097 0.88608 0.0
C1373 C 0.32647 0.8173 0.79873 0.0
C1374 C 0.4387 0.92678 0.9746 0.0
C1375 C 0.4162 0.90489 0.9626 0.0
C1376 C 0.36059 0.88104 0.9081 0.0
C1377 C 0.34634 0.82355 0.84532 0.0
C1378 C 0.35828 0.84201 0.87236 0.0
C1379 C 0.40141 0.90604 0.93977 0.0
C1380 C 0.38376 0.88148 0.92056 0.0
H1381 H 0.30766 0.75866 0.82027 0.0
H1382 H 0.33726 0.78792 0.86143 0.0
H1383 H 0.33079 0.86216 0.87397 0.0
H1384 H 0.4361 0.96955 0.93446 0.0
H1385 H 0.39666 0.93171 0.91376 0.0
C1386 C 0.21125 0.28976 0.82302 0.0
C1387 C 0.22458 0.2967 0.79899 0.0
C1388 C 0.19621 0.30401 0.83734 0.0
C1389 C 0.16464 0.35217 0.82669 0.0
H1390 H 0.1546 0.35879 0.90703 0.0
C1391 C 0.09444 0.4037 0.8795 0.0
C1392 C 0.09787 0.41572 0.90881 0.0
C1393 C 0.10927 0.38863 0.86696 0.0
C1394 C 0.15734 0.35765 0.88464 0.0
H1395 H 0.23288 0.32511 0.77208 0.0
H1396 H 0.20774 0.34992 0.797 0.0
H1397 H 0.18212 0.33522 0.88476 0.0
H1398 H 0.12036 0.42052 0.94759 0.0
H1399 H 0.14719 0.39616 0.92567 0.0
H1400 H 0.14142 0.37578 0.82656 0.0
C1401 C 0.20804 0.33302 0.80458 0.0
C1402 C 0.17295 0.34352 0.87163 0.0
C1403 C 0.22287 0.31878 0.79029 0.0
C1404 C 0.11706 0.41214 0.92494 0.0
C1405 C 0.13233 0.39751 0.91226 0.0
C1406 C 0.14951 0.36668 0.83974 0.0
C1407 C 0.194 0.32573 0.82812 0.0
C1408 C 0.17698 0.34053 0.84236 0.0
C1409 C 0.12879 0.38537 0.88293 0.0
C1410 C 0.14537 0.36973 0.86902 0.0
H1411 H 0.21167 0.27277 0.83027 0.0
H1412 H 0.18569 0.29739 0.85515 0.0
H1413 H 0.16647 0.35003 0.80403 0.0
H1414 H 0.08045 0.40612 0.86583 0.0
H1415 H 0.10506 0.37942 0.84455 0.0
C1416 C 0.69475 0.19151 0.79036 0.0
C1417 C 0.71278 0.2166 0.80426 0.0
C1418 C 0.67905 0.17402 0.80597 0.0
C1419 C 0.64787 0.167 0.87128 0.0
H1420 H 0.65672 0.09902 0.85708 0.0
C1421 C 0.60066 0.08671 0.93627 0.0
C1422 C 0.58892 0.06045 0.92023 0.0
C1423 C 0.61558 0.10707 0.92322 0.0
C1424 C 0.65387 0.11781 0.86108 0.0
H1425 H 0.72824 0.2436 0.84502 0.0
H1426 H 0.69953 0.21305 0.87266 0.0
H1427 H 0.68262 0.13302 0.83231 0.0
H1428 H 0.5834 0.0348 0.87807 0.0
H1429 H 0.60967 0.07021 0.85542 0.0
H1430 H 0.61863 0.15148 0.89964 0.0
C1431 C 0.69793 0.20703 0.84968 0.0
C1432 C 0.66873 0.13722 0.84703 0.0
C1433 C 0.71425 0.22438 0.834 0.0
C1434 C 0.59241 0.05484 0.89101 0.0
C1435 C 0.60747 0.07509 0.87805 0.0
C1436 C 0.63281 0.14743 0.88528 0.0
C1437 C 0.6807 0.18153 0.83571 0.0
C1438 C 0.6657 0.16184 0.85186 0.0
C1439 C 0.61922 0.10138 0.89401 0.0
C1440 C 0.63558 0.12259 0.88011 0.0
H1441 H 0.69366 0.1849 0.76744 0.0
H1442 H 0.66593 0.15439 0.79484 0.0
H1443 H 0.64516 0.18584 0.87505 0.0
H1444 H 0.59798 0.09161 0.95879 0.0
H1445 H 0.62453 0.12717 0.936 0.0
C1446 C 0.8619 0.67512 0.84431 0.0
C1447 C 0.86018 0.696 0.86585 0.0
C1448 C 0.87124 0.65633 0.85082 0.0
C1449 C 0.88914 0.633 0.91277 0.0
H1450 H 0.93193 0.60717 0.85857 0.0
C1451 C 0.93751 0.56159 0.93651 0.0
C1452 C 0.96124 0.56241 0.92438 0.0
C1453 C 0.92366 0.57636 0.92901 0.0
C1454 C 0.92042 0.61448 0.87426 0.0
H1455 H 0.86529 0.7121 0.91143 0.0
H1456 H 0.88276 0.68086 0.92246 0.0
H1457 H 0.91022 0.63483 0.84621 0.0
H1458 H 0.98983 0.5803 0.89606 0.0
H1459 H 0.96666 0.60716 0.88408 0.0
H1460 H 0.90081 0.6143 0.94157 0.0
C1461 C 0.87658 0.67838 0.90053 0.0
C1462 C 0.90738 0.62999 0.86685 0.0
C1463 C 0.86692 0.69678 0.8941 0.0
C1464 C 0.97129 0.57892 0.90529 0.0
C1465 C 0.9578 0.59417 0.89828 0.0
C1466 C 0.90264 0.61799 0.9204 0.0
C1467 C 0.87932 0.65804 0.87902 0.0
C1468 C 0.89168 0.63974 0.88607 0.0
C1469 C 0.93352 0.59287 0.90966 0.0
C1470 C 0.91866 0.60857 0.90135 0.0
H1471 H 0.85692 0.67378 0.8223 0.0
H1472 H 0.87241 0.64068 0.83363 0.0
H1473 H 0.87683 0.63945 0.92807 0.0
H1474 H 0.92932 0.54898 0.95128 0.0
H1475 H 0.90496 0.57433 0.93805 0.0
C1476 C 0.15265 0.32542 0.15538 0.0
C1477 C 0.1551 0.30428 0.13491 0.0
C1478 C 0.14511 0.34465 0.14706 0.0
C1479 C 0.10889 0.35082 0.08608 0.0
H1480 H 0.12729 0.42373 0.12846 0.0
C1481 C 0.06696 0.42301 0.05198 0.0
C1482 C 0.05798 0.43854 0.07375 0.0
C1483 C 0.08152 0.40847 0.05843 0.0
C1484 C 0.12185 0.40335 0.11648 0.0
H1485 H 0.15386 0.28795 0.08979 0.0
H1486 H 0.14181 0.32179 0.07522 0.0
H1487 H 0.14949 0.39626 0.14149 0.0
H1488 H 0.05729 0.45055 0.11951 0.0
H1489 H 0.0829 0.42557 0.13067 0.0
H1490 H 0.08119 0.35784 0.06121 0.0
C1491 C 0.14463 0.32316 0.09771 0.0
C1492 C 0.13457 0.38757 0.12398 0.0
C1493 C 0.15184 0.30389 0.10602 0.0
C1494 C 0.06425 0.43931 0.10214 0.0
C1495 C 0.07895 0.42492 0.10858 0.0
C1496 C 0.09632 0.36663 0.07851 0.0
C1497 C 0.14006 0.3432 0.11807 0.0
C1498 C 0.12807 0.36094 0.10908 0.0
C1499 C 0.08767 0.4092 0.08683 0.0
C1500 C 0.10237 0.39299 0.09383 0.0
H1501 H 0.15489 0.32613 0.17781 0.0
H1502 H 0.14178 0.35969 0.16343 0.0
H1503 H 0.10283 0.3303 0.07439 0.0
H1504 H 0.06295 0.4222 0.02986 0.0
H1505 H 0.08814 0.3968 0.04113 0.0
C1506 C 0.18886 0.70111 0.79914 0.0
C1507 C 0.2143 0.70128 0.79394 0.0
C1508 C 0.1731 0.68535 0.81642 0.0
C1509 C 0.16103 0.62321 0.83488 0.0
H1510 H 0.12659 0.64753 0.9 0.0
C1511 C 0.08202 0.55041 0.88675 0.0
C1512 C 0.08568 0.55463 0.91634 0.0
C1513 C 0.09675 0.56989 0.87279 0.0
C1514 C 0.13617 0.6406 0.88187 0.0
H1515 H 0.24384 0.68673 0.80477 0.0
H1516 H 0.21573 0.65783 0.83341 0.0
H1517 H 0.15524 0.67978 0.87426 0.0
H1518 H 0.10703 0.58267 0.95474 0.0
H1519 H 0.13326 0.61678 0.93001 0.0
H1520 H 0.14206 0.58414 0.84213 0.0
C1521 C 0.20808 0.66993 0.82399 0.0
C1522 C 0.15233 0.65891 0.86717 0.0
C1523 C 0.22399 0.68614 0.80728 0.0
C1524 C 0.10403 0.57886 0.93185 0.0
C1525 C 0.1188 0.59842 0.91781 0.0
C1526 C 0.14468 0.60493 0.84926 0.0
C1527 C 0.18244 0.6692 0.82835 0.0
C1528 C 0.165 0.65027 0.84377 0.0
C1529 C 0.11541 0.5939 0.88816 0.0
C1530 C 0.13223 0.61349 0.87292 0.0
H1531 H 0.1808 0.71253 0.78936 0.0
H1532 H 0.15329 0.68497 0.81955 0.0
H1533 H 0.17049 0.61619 0.81667 0.0
H1534 H 0.06768 0.5321 0.87432 0.0
H1535 H 0.09359 0.56618 0.84993 0.0
C1536 C 0.32437 0.15374 0.88592 0.0
C1537 C 0.3252 0.161 0.85963 0.0
C1538 C 0.34389 0.14603 0.89511 0.0
C1539 C 0.39531 0.12012 0.8667 0.0
H1540 H 0.41163 0.12754 0.94662 0.0
C1541 C 0.46883 0.07855 0.90324 0.0
C1542 C 0.46164 0.06513 0.92545 0.0
C1543 C 0.45484 0.09347 0.8966 0.0
C1544 C 0.40718 0.12515 0.92421 0.0
H1545 H 0.34872 0.16766 0.82342 0.0
H1546 H 0.38361 0.1556 0.84019 0.0
H1547 H 0.38389 0.14934 0.93276 0.0
H1548 H 0.43433 0.05726 0.95842 0.0
H1549 H 0.40963 0.08298 0.94657 0.0
H1550 H 0.41857 0.09588 0.85821 0.0
C1551 C 0.36712 0.1548 0.85318 0.0
C1552 C 0.3912 0.13766 0.91619 0.0
C1553 C 0.34725 0.16214 0.84372 0.0
C1554 C 0.44044 0.06746 0.94126 0.0
C1555 C 0.42635 0.0823 0.93452 0.0
C1556 C 0.41144 0.1078 0.87472 0.0
C1557 C 0.36534 0.14591 0.87865 0.0
C1558 C 0.38463 0.13496 0.8873 0.0
C1559 C 0.4332 0.09529 0.91189 0.0
C1560 C 0.41729 0.10982 0.90357 0.0
H1561 H 0.30815 0.15329 0.89926 0.0
H1562 H 0.34149 0.13917 0.91468 0.0
H1563 H 0.39045 0.11709 0.84428 0.0
H1564 H 0.48545 0.07767 0.89109 0.0
H1565 H 0.46105 0.10366 0.87946 0.0
C1566 C 0.81953 0.3093 0.80405 0.0
C1567 C 0.79263 0.29713 0.80749 0.0
C1568 C 0.83683 0.32431 0.82763 0.0
C1569 C 0.84764 0.33963 0.90469 0.0
H1570 H 0.88714 0.41107 0.89496 0.0
C1571 C 0.94547 0.41689 0.96256 0.0
C1572 C 0.94833 0.4437 0.9674 0.0
C1573 C 0.92134 0.39687 0.95168 0.0
C1574 C 0.87589 0.39135 0.89819 0.0
H1575 H 0.7624 0.28987 0.83751 0.0
H1576 H 0.79301 0.31608 0.87928 0.0
H1577 H 0.8571 0.37844 0.85639 0.0
H1578 H 0.92836 0.47101 0.96774 0.0
H1579 H 0.88618 0.43596 0.9478 0.0
H1580 H 0.86759 0.35259 0.94632 0.0
C1581 C 0.80063 0.31393 0.85842 0.0
C1582 C 0.85906 0.3726 0.87599 0.0
C1583 C 0.7832 0.29923 0.8347 0.0
C1584 C 0.92633 0.45034 0.96423 0.0
C1585 C 0.90232 0.43036 0.95284 0.0
C1586 C 0.86499 0.3584 0.9269 0.0
C1587 C 0.82742 0.3272 0.85491 0.0
C1588 C 0.84497 0.34657 0.87894 0.0
C1589 C 0.90018 0.40364 0.94491 0.0
C1590 C 0.87921 0.38441 0.92373 0.0
H1591 H 0.827 0.30786 0.78306 0.0
H1592 H 0.85746 0.33429 0.8245 0.0
H1593 H 0.83689 0.31958 0.90729 0.0
H1594 H 0.9624 0.41158 0.96497 0.0
H1595 H 0.92016 0.37643 0.94566 0.0
C1596 C 0.70172 0.80051 0.78499 0.0
C1597 C 0.71975 0.79388 0.79946 0.0
C1598 C 0.68783 0.81565 0.7995 0.0
C1599 C 0.68586 0.86152 0.86851 0.0
H1600 H 0.61488 0.84493 0.83837 0.0
C1601 C 0.61596 0.9131 0.92565 0.0
C1602 C 0.59884 0.91865 0.90861 0.0
C1603 C 0.63116 0.89818 0.91353 0.0
C1604 C 0.63477 0.8502 0.84699 0.0
H1605 H 0.73707 0.7989 0.84115 0.0
H1606 H 0.71254 0.82504 0.86677 0.0
H1607 H 0.63995 0.81861 0.81618 0.0
H1608 H 0.58546 0.9131 0.86483 0.0
H1609 H 0.6115 0.88722 0.84399 0.0
H1610 H 0.68038 0.8931 0.89955 0.0
C1611 C 0.70939 0.81858 0.84387 0.0
C1612 C 0.64931 0.83497 0.83415 0.0
C1613 C 0.72347 0.80336 0.82918 0.0
C1614 C 0.59772 0.90886 0.87897 0.0
C1615 C 0.61284 0.89393 0.86689 0.0
C1616 C 0.67121 0.87677 0.88148 0.0
C1617 C 0.6911 0.82479 0.82924 0.0
C1618 C 0.67527 0.8405 0.84437 0.0
C1619 C 0.62976 0.88817 0.88391 0.0
C1620 C 0.64547 0.87155 0.87074 0.0
H1621 H 0.69824 0.79415 0.7621 0.0
H1622 H 0.67465 0.82044 0.7871 0.0
H1623 H 0.70578 0.86672 0.87702 0.0
H1624 H 0.61736 0.91987 0.94853 0.0
H1625 H 0.64362 0.89405 0.92753 0.0
C1626 C 0.787 0.67415 0.20645 0.0
C1627 C 0.78785 0.69771 0.19914 0.0
C1628 C 0.80138 0.6593 0.19217 0.0
C1629 C 0.85806 0.66487 0.14535 0.0
H1630 H 0.83232 0.58836 0.13686 0.0
C1631 C 0.92468 0.60413 0.10647 0.0
C1632 C 0.91309 0.57758 0.09069 0.0
C1633 C 0.90916 0.61859 0.11863 0.0
C1634 C 0.83985 0.60967 0.13863 0.0
H1635 H 0.80521 0.72402 0.1709 0.0
H1636 H 0.82907 0.69771 0.14517 0.0
H1637 H 0.80544 0.61301 0.1583 0.0
H1638 H 0.87534 0.54581 0.07585 0.0
H1639 H 0.8486 0.57113 0.09582 0.0
H1640 H 0.89206 0.66142 0.1248 0.0
C1641 C 0.81758 0.69076 0.1623 0.0
C1642 C 0.82445 0.624 0.15147 0.0
C1643 C 0.80333 0.7057 0.17675 0.0
C1644 C 0.88531 0.56622 0.08738 0.0
C1645 C 0.8698 0.58074 0.09937 0.0
C1646 C 0.87338 0.65051 0.13231 0.0
C1647 C 0.81712 0.6674 0.16992 0.0
C1648 C 0.83331 0.65191 0.15528 0.0
C1649 C 0.88139 0.60719 0.11539 0.0
C1650 C 0.86467 0.62261 0.12884 0.0
H1651 H 0.77543 0.66725 0.22354 0.0
H1652 H 0.80062 0.64178 0.19919 0.0
H1653 H 0.86595 0.6863 0.14804 0.0
H1654 H 0.9459 0.61396 0.10937 0.0
H1655 H 0.91911 0.63869 0.13102 0.0
C1656 C 0.32885 0.78326 0.19096 0.0
C1657 C 0.3015 0.77243 0.18446 0.0
C1658 C 0.34545 0.7991 0.17433 0.0
C1659 C 0.35076 0.82381 0.10875 0.0
H1660 H 0.39033 0.89172 0.15946 0.0
C1661 C 0.40089 0.91972 0.06787 0.0
C1662 C 0.42556 0.93717 0.08105 0.0
C1663 C 0.38576 0.89819 0.07919 0.0
C1664 C 0.3798 0.87283 0.14493 0.0
H1665 H 0.27062 0.76559 0.15275 0.0
H1666 H 0.29953 0.79435 0.12438 0.0
H1667 H 0.36576 0.8538 0.17912 0.0
H1668 H 0.45401 0.94583 0.11608 0.0
H1669 H 0.42823 0.90792 0.13517 0.0
H1670 H 0.36497 0.84291 0.07448 0.0
C1671 C 0.30807 0.79087 0.14249 0.0
C1672 C 0.36576 0.85108 0.15623 0.0
C1673 C 0.29148 0.77478 0.159 0.0
C1674 C 0.43485 0.93289 0.10573 0.0
C1675 C 0.42001 0.91117 0.11672 0.0
C1676 C 0.36513 0.84558 0.09736 0.0
C1677 C 0.33495 0.80429 0.15097 0.0
C1678 C 0.35113 0.8264 0.13828 0.0
C1679 C 0.39531 0.89352 0.10358 0.0
C1680 C 0.37978 0.87035 0.11537 0.0
H1681 H 0.33733 0.78105 0.20992 0.0
H1682 H 0.36629 0.80867 0.18077 0.0
H1683 H 0.33951 0.80496 0.09452 0.0
H1684 H 0.39333 0.9227 0.04882 0.0
H1685 H 0.3666 0.88525 0.06888 0.0
C1686 C 0.70486 0.21428 0.17514 0.0
C1687 C 0.7075 0.20188 0.19672 0.0
C1688 C 0.68556 0.20033 0.15294 0.0
C1689 C 0.66665 0.13693 0.11245 0.0
H1690 H 0.60191 0.13713 0.08135 0.0
C1691 C 0.58431 0.04586 0.05469 0.0
C1692 C 0.56674 0.048 0.03557 0.0
C1693 C 0.60677 0.06783 0.06598 0.0
C1694 C 0.62045 0.13738 0.08922 0.0
H1695 H 0.69089 0.16703 0.21434 0.0
H1696 H 0.65699 0.14257 0.17544 0.0
H1697 H 0.62597 0.17192 0.12274 0.0
H1698 H 0.5593 0.07311 0.01086 0.0
H1699 H 0.59895 0.11202 0.03076 0.0
H1700 H 0.66093 0.10203 0.07992 0.0
C1701 C 0.6697 0.16293 0.1757 0.0
C1702 C 0.6339 0.15703 0.11304 0.0
C1703 C 0.689 0.1768 0.19779 0.0
C1704 C 0.57296 0.07128 0.02551 0.0
C1705 C 0.59543 0.09344 0.03699 0.0
C1706 C 0.65342 0.1175 0.08861 0.0
C1707 C 0.66907 0.17401 0.15236 0.0
C1708 C 0.6564 0.15612 0.12534 0.0
C1709 C 0.61161 0.09228 0.05855 0.0
C1710 C 0.62958 0.11684 0.07755 0.0
H1711 H 0.71937 0.23345 0.17377 0.0
H1712 H 0.68537 0.20897 0.1349 0.0
H1713 H 0.68435 0.13637 0.12159 0.0
H1714 H 0.57951 0.02795 0.06272 0.0
H1715 H 0.61873 0.06634 0.08271 0.0
C1716 C 0.72261 0.68451 0.7929 0.0
C1717 C 0.71209 0.70091 0.78289 0.0
C1718 C 0.70843 0.66826 0.81063 0.0
C1719 C 0.65437 0.66067 0.85847 0.0
H1720 H 0.649 0.58717 0.84557 0.0
C1721 C 0.57444 0.57203 0.89379 0.0
C1722 C 0.58287 0.57163 0.92093 0.0
C1723 C 0.59225 0.58641 0.87687 0.0
C1724 C 0.65061 0.60773 0.84935 0.0
H1725 H 0.67858 0.71301 0.78299 0.0
H1726 H 0.65357 0.68421 0.81332 0.0
H1727 H 0.67671 0.61616 0.81615 0.0
H1728 H 0.61649 0.5849 0.9513 0.0
H1729 H 0.64775 0.61026 0.92139 0.0
H1730 H 0.62772 0.65191 0.89116 0.0
C1731 C 0.67297 0.68433 0.80812 0.0
C1732 C 0.66645 0.6243 0.83276 0.0
C1733 C 0.68717 0.70065 0.79059 0.0
C1734 C 0.60949 0.58523 0.9306 0.0
C1735 C 0.62734 0.59946 0.91354 0.0
C1736 C 0.6386 0.64414 0.87498 0.0
C1737 C 0.68349 0.66805 0.81839 0.0
C1738 C 0.66819 0.65084 0.83697 0.0
C1739 C 0.61868 0.60026 0.88679 0.0
C1740 C 0.63653 0.61763 0.87032 0.0
H1741 H 0.74165 0.68408 0.7869 0.0
H1742 H 0.71704 0.656 0.8184 0.0
H1743 H 0.65564 0.68113 0.86244 0.0
H1744 H 0.55399 0.5617 0.88589 0.0
H1745 H 0.58534 0.58722 0.85633 0.0
C1746 C 0.32894 0.66334 0.86996 0.0
C1747 C 0.331 0.65905 0.84043 0.0
C1748 C 0.34706 0.65995 0.88731 0.0
C1749 C 0.37879 0.61571 0.88578 0.0
H1750 H 0.4301 0.66532 0.946 0.0
C1751 C 0.45206 0.58391 0.93472 0.0
C1752 C 0.45793 0.59208 0.96413 0.0
C1753 C 0.43789 0.59495 0.92139 0.0
C1754 C 0.41555 0.65122 0.92954 0.0
H1755 H 0.35385 0.64896 0.80585 0.0
H1756 H 0.38502 0.64216 0.83617 0.0
H1757 H 0.40356 0.68142 0.91947 0.0
H1758 H 0.45462 0.6185 0.00291 0.0
H1759 H 0.42858 0.63747 0.9796 0.0
H1760 H 0.38971 0.58533 0.89594 0.0
C1761 C 0.36977 0.64864 0.84584 0.0
C1762 C 0.40061 0.66046 0.91434 0.0
C1763 C 0.352 0.65247 0.8286 0.0
C1764 C 0.45001 0.61193 0.98016 0.0
C1765 C 0.43535 0.6228 0.9668 0.0
C1766 C 0.39329 0.60643 0.90115 0.0
C1767 C 0.36704 0.65181 0.87516 0.0
C1768 C 0.3825 0.64274 0.8921 0.0
C1769 C 0.42887 0.6141 0.9373 0.0
C1770 C 0.41222 0.62412 0.9228 0.0
H1771 H 0.31294 0.66859 0.87945 0.0
H1772 H 0.34462 0.66224 0.90991 0.0
H1773 H 0.36453 0.60172 0.86895 0.0
H1774 H 0.45848 0.5689 0.92201 0.0
H1775 H 0.43394 0.58837 0.89855 0.0
C1776 C 0.32481 0.2843 0.80984 0.0
C1777 C 0.30746 0.29372 0.79863 0.0
C1778 C 0.33922 0.29833 0.83565 0.0
C1779 C 0.37346 0.36416 0.86234 0.0
H1780 H 0.38176 0.35649 0.93922 0.0
C1781 C 0.43717 0.45254 0.94096 0.0
C1782 C 0.45897 0.44937 0.95201 0.0
C1783 C 0.41485 0.43033 0.93004 0.0
C1784 C 0.37954 0.35862 0.91775 0.0
H1785 H 0.29009 0.32384 0.8057 0.0
H1786 H 0.3154 0.34844 0.85076 0.0
H1787 H 0.34788 0.32037 0.9049 0.0
H1788 H 0.47482 0.42147 0.96172 0.0
H1789 H 0.43581 0.38194 0.94111 0.0
H1790 H 0.40472 0.40186 0.87436 0.0
C1791 C 0.31753 0.33008 0.8399 0.0
C1792 C 0.36038 0.33816 0.89834 0.0
C1793 C 0.30342 0.31631 0.81406 0.0
C1794 C 0.45785 0.42402 0.95357 0.0
C1795 C 0.43563 0.40159 0.94199 0.0
C1796 C 0.39233 0.3843 0.88144 0.0
C1797 C 0.33625 0.32179 0.85018 0.0
C1798 C 0.35702 0.34133 0.87081 0.0
C1799 C 0.41452 0.40468 0.92907 0.0
C1800 C 0.39507 0.38206 0.90944 0.0
H1801 H 0.32845 0.26713 0.79783 0.0
H1802 H 0.35411 0.29215 0.84303 0.0
H1803 H 0.37141 0.36655 0.84092 0.0
H1804 H 0.4377 0.47212 0.94009 0.0
H1805 H 0.39857 0.43304 0.92038 0.0
C1806 C 0.67863 0.33385 0.84363 0.0
C1807 C 0.66903 0.30786 0.84837 0.0
C1808 C 0.67991 0.35543 0.86521 0.0
C1809 C 0.66789 0.37868 0.93975 0.0
H1810 H 0.62358 0.40618 0.90436 0.0
C1811 C 0.6243 0.46381 0.97719 0.0
C1812 C 0.59667 0.4523 0.97351 0.0
C1813 C 0.63915 0.44779 0.97063 0.0
C1814 C 0.63622 0.39888 0.9144 0.0
H1815 H 0.65594 0.28479 0.88053 0.0
H1816 H 0.65625 0.32262 0.91786 0.0
H1817 H 0.64246 0.37705 0.87486 0.0
H1818 H 0.56279 0.41511 0.96334 0.0
H1819 H 0.58885 0.38728 0.95139 0.0
H1820 H 0.66029 0.40022 0.97962 0.0
C1821 C 0.66345 0.3261 0.89749 0.0
C1822 C 0.64723 0.38247 0.8976 0.0
C1823 C 0.66273 0.3044 0.87595 0.0
C1824 C 0.58408 0.42448 0.96579 0.0
C1825 C 0.59889 0.40855 0.95943 0.0
C1826 C 0.65688 0.39546 0.95672 0.0
C1827 C 0.67072 0.35148 0.89171 0.0
C1828 C 0.66281 0.37187 0.91008 0.0
C1829 C 0.6264 0.42027 0.96056 0.0
C1830 C 0.64056 0.40501 0.94395 0.0
H1831 H 0.68335 0.33755 0.82273 0.0
H1832 H 0.68577 0.37492 0.86038 0.0
H1833 H 0.67978 0.37059 0.9497 0.0
H1834 H 0.63444 0.48524 0.98289 0.0
H1835 H 0.6604 0.45704 0.97097 0.0
C1836 C 0.68973 0.34942 0.15012 0.0
C1837 C 0.67335 0.33783 0.17013 0.0
C1838 C 0.67886 0.35411 0.12683 0.0
C1839 C 0.61802 0.33653 0.08328 0.0
H1840 H 0.64323 0.41159 0.08284 0.0
C1841 C 0.55427 0.38395 0.04027 0.0
C1842 C 0.5663 0.4079 0.03144 0.0
C1843 C 0.56955 0.37161 0.04977 0.0
C1844 C 0.63634 0.39042 0.08187 0.0
H1845 H 0.63305 0.32066 0.18111 0.0
H1846 H 0.6139 0.32847 0.14006 0.0
H1847 H 0.66636 0.39611 0.11309 0.0
H1848 H 0.60374 0.4369 0.02427 0.0
H1849 H 0.63027 0.41438 0.03867 0.0
H1850 H 0.58779 0.33079 0.05227 0.0
C1851 C 0.63506 0.33404 0.14241 0.0
C1852 C 0.64959 0.38162 0.09938 0.0
C1853 C 0.64596 0.32983 0.16595 0.0
C1854 C 0.59383 0.41838 0.03072 0.0
C1855 C 0.60907 0.40561 0.03936 0.0
C1856 C 0.60499 0.34525 0.0653 0.0
C1857 C 0.65147 0.34672 0.12303 0.0
C1858 C 0.64007 0.35478 0.10086 0.0
C1859 C 0.59721 0.38271 0.05017 0.0
C1860 C 0.61349 0.37246 0.06509 0.0
H1861 H 0.71094 0.3557 0.15306 0.0
H1862 H 0.69183 0.36397 0.11212 0.0
H1863 H 0.61046 0.31568 0.08403 0.0
H1864 H 0.53312 0.37564 0.04167 0.0
H1865 H 0.55964 0.35431 0.05841 0.0
C1866 C 0.68574 0.7151 0.19767 0.0
C1867 C 0.70654 0.70734 0.20302 0.0
C1868 C 0.66979 0.70283 0.17249 0.0
C1869 C 0.63797 0.67219 0.11571 0.0
H1870 H 0.62028 0.59709 0.11285 0.0
C1871 C 0.56231 0.57252 0.04258 0.0
C1872 C 0.54638 0.55613 0.05955 0.0
C1873 C 0.58133 0.59725 0.05524 0.0
C1874 C 0.6252 0.61799 0.11322 0.0
H1875 H 0.72851 0.68249 0.18617 0.0
H1876 H 0.70191 0.66239 0.14148 0.0
H1877 H 0.65871 0.62952 0.14149 0.0
H1878 H 0.53522 0.55391 0.10252 0.0
H1879 H 0.56852 0.59699 0.12456 0.0
H1880 H 0.60294 0.65976 0.08811 0.0
C1881 C 0.69738 0.67736 0.15682 0.0
C1882 C 0.64741 0.6366 0.12928 0.0
C1883 C 0.71264 0.68885 0.18232 0.0
C1884 C 0.54776 0.56587 0.08902 0.0
C1885 C 0.56647 0.5906 0.10159 0.0
C1886 C 0.61551 0.65328 0.09934 0.0
C1887 C 0.67482 0.68293 0.15247 0.0
C1888 C 0.65381 0.66391 0.1312 0.0
C1889 C 0.58416 0.60577 0.08488 0.0
C1890 C 0.60879 0.6262 0.09881 0.0
H1891 H 0.68097 0.72949 0.21361 0.0
H1892 H 0.65243 0.70736 0.16982 0.0
H1893 H 0.64252 0.69316 0.11695 0.0
H1894 H 0.56116 0.56559 0.01976 0.0
H1895 H 0.59505 0.60868 0.04214 0.0
C1896 C 0.36503 0.69468 0.12458 0.0
C1897 C 0.35076 0.69049 0.14876 0.0
C1898 C 0.36334 0.67314 0.1023 0.0
C1899 C 0.34806 0.60145 0.09411 0.0
H1900 H 0.36974 0.6059 0.01799 0.0
C1901 C 0.38166 0.52283 0.02975 0.0
C1902 C 0.40864 0.53515 0.02649 0.0
C1903 C 0.36591 0.53804 0.03507 0.0
C1904 C 0.36307 0.60421 0.03898 0.0
H1905 H 0.3217 0.65979 0.16671 0.0
H1906 H 0.31675 0.62373 0.12709 0.0
H1907 H 0.35661 0.64088 0.04655 0.0
H1908 H 0.43998 0.57233 0.0242 0.0
H1909 H 0.41238 0.59863 0.03255 0.0
H1910 H 0.35532 0.56537 0.08695 0.0
C1911 C 0.3304 0.64337 0.12596 0.0
C1912 C 0.35588 0.62431 0.05545 0.0
C1913 C 0.33287 0.66453 0.14864 0.0
C1914 C 0.41916 0.56232 0.02622 0.0
C1915 C 0.40334 0.57734 0.03087 0.0
C1916 C 0.35472 0.58123 0.07752 0.0
C1917 C 0.34674 0.64708 0.10335 0.0
C1918 C 0.34926 0.62365 0.08361 0.0
C1919 C 0.37691 0.56556 0.03663 0.0
C1920 C 0.3632 0.58295 0.05026 0.0
H1921 H 0.37838 0.71436 0.12327 0.0
H1922 H 0.37626 0.67685 0.08519 0.0
H1923 H 0.34381 0.60041 0.11588 0.0
H1924 H 0.37322 0.50197 0.0304 0.0
H1925 H 0.3456 0.52869 0.03978 0.0
C1926 C 0.32549 0.30718 0.21016 0.0
C1927 C 0.29884 0.30163 0.2152 0.0
C1928 C 0.33806 0.32507 0.19348 0.0
C1929 C 0.33161 0.3446 0.13258 0.0
H1930 H 0.3912 0.40978 0.16277 0.0
C1931 C 0.40375 0.40682 0.06179 0.0
C1932 C 0.43033 0.41681 0.0718 0.0
C1933 C 0.38409 0.39465 0.07868 0.0
C1934 C 0.37461 0.39161 0.15401 0.0
H1935 H 0.26471 0.31122 0.20774 0.0
H1936 H 0.28663 0.3416 0.1771 0.0
H1937 H 0.36268 0.38596 0.19532 0.0
H1938 H 0.45757 0.42037 0.10585 0.0
H1939 H 0.42353 0.39812 0.13464 0.0
H1940 H 0.34466 0.34897 0.09131 0.0
C1941 C 0.29759 0.33219 0.18645 0.0
C1942 C 0.35823 0.37827 0.17262 0.0
C1943 C 0.28514 0.31476 0.20377 0.0
C1944 C 0.43714 0.41309 0.09792 0.0
C1945 C 0.41763 0.40067 0.11452 0.0
C1946 C 0.34827 0.35775 0.11389 0.0
C1947 C 0.32406 0.3373 0.18125 0.0
C1948 C 0.33722 0.3543 0.16197 0.0
C1949 C 0.3909 0.39216 0.10555 0.0
C1950 C 0.37056 0.38077 0.12455 0.0
H1951 H 0.33655 0.29742 0.21871 0.0
H1952 H 0.35855 0.32885 0.18946 0.0
H1953 H 0.31547 0.32594 0.12417 0.0
H1954 H 0.39813 0.40968 0.04171 0.0
H1955 H 0.36364 0.38814 0.07119 0.0
C1956 C 0.78937 0.69344 0.66843 0.0
C1957 C 0.79605 0.70634 0.69729 0.0
C1958 C 0.80314 0.67795 0.65369 0.0
C1959 C 0.86595 0.6648 0.66012 0.0
H1960 H 0.83122 0.60313 0.59937 0.0
C1961 C 0.92525 0.6049 0.59756 0.0
C1962 C 0.91267 0.57731 0.58639 0.0
C1963 C 0.91085 0.62065 0.60948 0.0
C1964 C 0.84132 0.62007 0.61651 0.0
H1965 H 0.82295 0.71244 0.73304 0.0
H1966 H 0.84585 0.6854 0.70821 0.0
H1967 H 0.80664 0.62964 0.62306 0.0
H1968 H 0.87455 0.5449 0.57953 0.0
H1969 H 0.84965 0.57197 0.60074 0.0
H1970 H 0.90012 0.65465 0.65484 0.0
C1971 C 0.8305 0.68761 0.69632 0.0
C1972 C 0.82718 0.63569 0.62991 0.0
C1973 C 0.81696 0.70312 0.71084 0.0
C1974 C 0.88507 0.56608 0.58748 0.0
C1975 C 0.87067 0.58179 0.59969 0.0
C1976 C 0.87991 0.64905 0.64707 0.0
C1977 C 0.82406 0.67479 0.6674 0.0
C1978 C 0.8392 0.65832 0.65211 0.0
C1979 C 0.88326 0.60942 0.61108 0.0
C1980 C 0.86797 0.62634 0.62495 0.0
H1981 H 0.77345 0.69512 0.6572 0.0
H1982 H 0.79749 0.66872 0.63143 0.0
H1983 H 0.8764 0.68225 0.67658 0.0
H1984 H 0.94634 0.61454 0.59678 0.0
H1985 H 0.92153 0.64182 0.61716 0.0
C1986 C 0.29001 0.79881 0.67987 0.0
C1987 C 0.30293 0.79237 0.70035 0.0
C1988 C 0.30411 0.81867 0.66601 0.0
C1989 C 0.36591 0.87542 0.66857 0.0
H1990 H 0.35717 0.85297 0.58624 0.0
C1991 C 0.43876 0.93435 0.60014 0.0
C1992 C 0.42807 0.93996 0.57726 0.0
C1993 C 0.42297 0.91526 0.61393 0.0
C1994 C 0.35958 0.85959 0.60918 0.0
H1995 H 0.33998 0.80289 0.72426 0.0
H1996 H 0.36481 0.83738 0.69965 0.0
H1997 H 0.32927 0.82383 0.615 0.0
H1998 H 0.39321 0.92915 0.54948 0.0
H1999 H 0.36506 0.89616 0.57443 0.0
H2000 H 0.39618 0.91113 0.66288 0.0
C2001 C 0.34385 0.82703 0.69425 0.0
C2002 C 0.34362 0.84301 0.62559 0.0
C2003 C 0.32975 0.80714 0.70808 0.0
C2004 C 0.40169 0.92531 0.56738 0.0
C2005 C 0.38571 0.90638 0.58149 0.0
C2006 C 0.38177 0.89202 0.65218 0.0
C2007 C 0.33126 0.83238 0.67255 0.0
C2008 C 0.34683 0.85076 0.65539 0.0
C2009 C 0.39613 0.90176 0.60534 0.0
C2010 C 0.37892 0.88413 0.62237 0.0
H2011 H 0.26927 0.7878 0.67369 0.0
H2012 H 0.29397 0.82284 0.64964 0.0
H2013 H 0.36855 0.88186 0.69152 0.0
H2014 H 0.45932 0.94487 0.60754 0.0
H2015 H 0.43166 0.91143 0.63169 0.0
C2016 C 0.17504 0.34464 0.65419 0.0
C2017 C 0.18612 0.33119 0.63263 0.0
C2018 C 0.15696 0.35544 0.6473 0.0
C2019 C 0.11368 0.3543 0.58734 0.0
H2020 H 0.1226 0.4251 0.63029 0.0
C2021 C 0.04445 0.40792 0.5673 0.0
C2022 C 0.0555 0.43568 0.56999 0.0
C2023 C 0.05948 0.39425 0.57475 0.0
C2024 C 0.11997 0.40542 0.61787 0.0
H2025 H 0.1856 0.31711 0.58707 0.0
H2026 H 0.15466 0.33609 0.57509 0.0
H2027 H 0.14919 0.40222 0.64424 0.0
H2028 H 0.09144 0.47058 0.58155 0.0
H2029 H 0.1177 0.44678 0.59431 0.0
H2030 H 0.08515 0.3579 0.56034 0.0
C2031 C 0.1597 0.33835 0.59732 0.0
C2032 C 0.13496 0.39208 0.62619 0.0
C2033 C 0.17769 0.32764 0.60419 0.0
C2034 C 0.08214 0.44931 0.57976 0.0
C2035 C 0.09719 0.43562 0.58712 0.0
C2036 C 0.09876 0.36768 0.57895 0.0
C2037 C 0.14946 0.3529 0.6187 0.0
C2038 C 0.13217 0.36638 0.61095 0.0
C2039 C 0.086 0.40793 0.58504 0.0
C2040 C 0.10179 0.39351 0.59401 0.0
H2041 H 0.18116 0.3478 0.67631 0.0
H2042 H 0.14918 0.36613 0.66438 0.0
H2043 H 0.11073 0.33443 0.57521 0.0
H2044 H 0.02393 0.39679 0.56015 0.0
H2045 H 0.05003 0.37301 0.57313 0.0
C2046 C 0.7326 0.19669 0.65801 0.0
C2047 C 0.7223 0.19348 0.68435 0.0
C2048 C 0.71698 0.18242 0.63285 0.0
C2049 C 0.66646 0.12005 0.60347 0.0
H2050 H 0.63844 0.15181 0.55407 0.0
C2051 C 0.58539 0.05212 0.52228 0.0
C2052 C 0.56271 0.0578 0.52883 0.0
C2053 C 0.61026 0.0719 0.53065 0.0
C2054 C 0.64658 0.14276 0.56734 0.0
H2055 H 0.68827 0.17325 0.70565 0.0
H2056 H 0.66133 0.14734 0.66161 0.0
H2057 H 0.67214 0.18059 0.59246 0.0
H2058 H 0.54779 0.08878 0.54615 0.0
H2059 H 0.5912 0.12334 0.56102 0.0
H2060 H 0.64031 0.08243 0.57982 0.0
C2061 C 0.68118 0.16114 0.66039 0.0
C2062 C 0.66575 0.15915 0.58918 0.0
C2063 C 0.69651 0.17577 0.68543 0.0
C2064 C 0.56514 0.08403 0.54107 0.0
C2065 C 0.58999 0.10384 0.5493 0.0
C2066 C 0.64773 0.10376 0.58154 0.0
C2067 C 0.69129 0.16437 0.63398 0.0
C2068 C 0.67505 0.14779 0.60791 0.0
C2069 C 0.61265 0.09748 0.54583 0.0
C2070 C 0.63693 0.11491 0.56383 0.0
H2071 H 0.7524 0.21064 0.65696 0.0
H2072 H 0.72501 0.18511 0.61259 0.0
H2073 H 0.67339 0.111 0.61782 0.0
H2074 H 0.58388 0.03193 0.51298 0.0
H2075 H 0.62748 0.06659 0.52752 0.0
C2076 C 0.82546 0.31627 0.30532 0.0
C2077 C 0.80888 0.28991 0.30436 0.0
C2078 C 0.84253 0.33111 0.32913 0.0
C2079 C 0.87204 0.32784 0.39587 0.0
H2080 H 0.87524 0.40062 0.41727 0.0
C2081 C 0.95909 0.41445 0.45368 0.0
C2082 C 0.95613 0.43852 0.46582 0.0
C2083 C 0.93702 0.39134 0.4446 0.0
C2084 C 0.87402 0.38017 0.41229 0.0
H2085 H 0.79823 0.25756 0.32627 0.0
H2086 H 0.82751 0.2838 0.36838 0.0
H2087 H 0.84685 0.37035 0.3768 0.0
H2088 H 0.92853 0.45708 0.48182 0.0
H2089 H 0.88956 0.41636 0.4663 0.0
H2090 H 0.89942 0.33788 0.43155 0.0
C2091 C 0.82758 0.29296 0.35072 0.0
C2092 C 0.85822 0.36297 0.38854 0.0
C2093 C 0.81078 0.27799 0.32666 0.0
C2094 C 0.9311 0.43863 0.47227 0.0
C2095 C 0.90889 0.4154 0.46325 0.0
C2096 C 0.88775 0.34505 0.41993 0.0
C2097 C 0.84289 0.31994 0.35258 0.0
C2098 C 0.85788 0.337 0.37941 0.0
C2099 C 0.91166 0.39211 0.44731 0.0
C2100 C 0.88973 0.37174 0.4277 0.0
H2101 H 0.8247 0.32561 0.28799 0.0
H2102 H 0.85486 0.3516 0.32954 0.0
H2103 H 0.87197 0.30781 0.38947 0.0
H2104 H 0.97841 0.41396 0.44908 0.0
H2105 H 0.94001 0.37382 0.43261 0.0
C2106 C 0.71508 0.81648 0.28501 0.0
C2107 C 0.71945 0.7969 0.29635 0.0
C2108 C 0.70068 0.83125 0.29921 0.0
C2109 C 0.65558 0.83344 0.35935 0.0
H2110 H 0.66867 0.90359 0.34628 0.0
C2111 C 0.60775 0.90557 0.42303 0.0
C2112 C 0.5979 0.91905 0.40721 0.0
C2113 C 0.62282 0.89075 0.41047 0.0
C2114 C 0.66461 0.88396 0.35008 0.0
H2115 H 0.71104 0.77741 0.33156 0.0
H2116 H 0.68805 0.80435 0.35742 0.0
H2117 H 0.69476 0.87854 0.3237 0.0
H2118 H 0.59701 0.92773 0.36562 0.0
H2119 H 0.62297 0.90194 0.34388 0.0
H2120 H 0.62594 0.83963 0.38663 0.0
C2121 C 0.69505 0.80795 0.33706 0.0
C2122 C 0.67954 0.86934 0.33688 0.0
C2123 C 0.70889 0.79269 0.32243 0.0
C2124 C 0.60382 0.91739 0.3785 0.0
C2125 C 0.61904 0.9028 0.36605 0.0
C2126 C 0.64098 0.84833 0.37297 0.0
C2127 C 0.69053 0.82749 0.32567 0.0
C2128 C 0.67512 0.8436 0.34091 0.0
C2129 C 0.62877 0.88923 0.3818 0.0
C2130 C 0.64505 0.87369 0.36827 0.0
H2131 H 0.72235 0.82018 0.26476 0.0
H2132 H 0.69717 0.8453 0.28893 0.0
H2133 H 0.65098 0.81367 0.3629 0.0
H2134 H 0.60355 0.90619 0.4451 0.0
H2135 H 0.63012 0.88076 0.42335 0.0
C2136 C 0.22 0.72433 0.33325 0.0
C2137 C 0.21218 0.71963 0.30441 0.0
C2138 C 0.20491 0.70753 0.35008 0.0
C2139 C 0.16631 0.63929 0.34384 0.0
H2140 H 0.13189 0.65782 0.41158 0.0
C2141 C 0.09061 0.55959 0.39118 0.0
C2142 C 0.09123 0.56312 0.42086 0.0
C2143 C 0.10618 0.58004 0.37881 0.0
C2144 C 0.14178 0.65249 0.39296 0.0
H2145 H 0.18216 0.69453 0.27075 0.0
H2146 H 0.15622 0.66494 0.30005 0.0
H2147 H 0.15757 0.69259 0.3871 0.0
H2148 H 0.10847 0.59081 0.46093 0.0
H2149 H 0.13615 0.62663 0.43914 0.0
H2150 H 0.15104 0.59942 0.3495 0.0
C2151 C 0.17378 0.68172 0.30961 0.0
C2152 C 0.1563 0.6723 0.379 0.0
C2153 C 0.18854 0.69871 0.29297 0.0
C2154 C 0.10778 0.58751 0.43798 0.0
C2155 C 0.12341 0.60805 0.42554 0.0
C2156 C 0.15213 0.61961 0.35788 0.0
C2157 C 0.18215 0.68571 0.33806 0.0
C2158 C 0.16826 0.66564 0.35413 0.0
C2159 C 0.12278 0.60445 0.39582 0.0
C2160 C 0.13933 0.6259 0.3823 0.0
H2161 H 0.23819 0.74039 0.34246 0.0
H2162 H 0.21168 0.71074 0.372 0.0
H2163 H 0.17571 0.63391 0.32482 0.0
H2164 H 0.07789 0.5411 0.37742 0.0
H2165 H 0.10491 0.57683 0.35587 0.0
C2166 C 0.36686 0.17958 0.34409 0.0
C2167 C 0.35525 0.19267 0.3654 0.0
C2168 C 0.37826 0.16219 0.3502 0.0
C2169 C 0.38085 0.12316 0.40327 0.0
H2170 H 0.4492 0.12968 0.37484 0.0
C2171 C 0.43449 0.05347 0.41906 0.0
C2172 C 0.46196 0.06496 0.42492 0.0
C2173 C 0.42062 0.06833 0.4119 0.0
C2174 C 0.4302 0.12773 0.38313 0.0
H2175 H 0.34525 0.19661 0.40933 0.0
H2176 H 0.36517 0.16665 0.42 0.0
H2177 H 0.42587 0.15581 0.36122 0.0
H2178 H 0.49633 0.10127 0.42807 0.0
H2179 H 0.47213 0.12723 0.41601 0.0
H2180 H 0.38549 0.09559 0.42577 0.0
C2181 C 0.36553 0.16968 0.39857 0.0
C2182 C 0.41663 0.14244 0.37497 0.0
C2183 C 0.35429 0.18707 0.39252 0.0
C2184 C 0.47516 0.0918 0.42385 0.0
C2185 C 0.46131 0.10662 0.4166 0.0
C2186 C 0.39439 0.1084 0.41139 0.0
C2187 C 0.37809 0.15734 0.37768 0.0
C2188 C 0.39183 0.14048 0.38505 0.0
C2189 C 0.43389 0.09502 0.41027 0.0
C2190 C 0.41931 0.11059 0.40153 0.0
H2191 H 0.36803 0.18355 0.32303 0.0
H2192 H 0.38746 0.15275 0.33349 0.0
H2193 H 0.36171 0.12097 0.41129 0.0
H2194 H 0.42368 0.03296 0.42008 0.0
H2195 H 0.39953 0.0587 0.40705 0.0
C2196 C 0.64714 0.81942 0.65218 0.0
C2197 C 0.65731 0.8049 0.63068 0.0
C2198 C 0.63614 0.83706 0.64586 0.0
C2199 C 0.63254 0.87415 0.59117 0.0
H2200 H 0.56562 0.87063 0.62182 0.0
C2201 C 0.58019 0.9446 0.574 0.0
C2202 C 0.55263 0.9335 0.56887 0.0
C2203 C 0.59387 0.92972 0.58157 0.0
C2204 C 0.58423 0.87175 0.61293 0.0
H2205 H 0.66518 0.79864 0.58612 0.0
H2206 H 0.64609 0.82914 0.57513 0.0
H2207 H 0.58867 0.84445 0.63595 0.0
H2208 H 0.5179 0.89788 0.56748 0.0
H2209 H 0.54175 0.87189 0.58034 0.0
H2210 H 0.6278 0.90099 0.56765 0.0
C2211 C 0.64652 0.82702 0.59685 0.0
C2212 C 0.59764 0.857 0.62135 0.0
C2213 C 0.6573 0.80934 0.60311 0.0
C2214 C 0.53914 0.90702 0.5711 0.0
C2215 C 0.5528 0.8922 0.57881 0.0
C2216 C 0.61918 0.88898 0.58283 0.0
C2217 C 0.63533 0.84076 0.61798 0.0
C2218 C 0.6219 0.85785 0.61044 0.0
C2219 C 0.58032 0.90342 0.58438 0.0
C2220 C 0.59476 0.88786 0.59346 0.0
H2221 H 0.64675 0.81637 0.6736 0.0
H2222 H 0.62799 0.84757 0.66273 0.0
H2223 H 0.65126 0.87546 0.58247 0.0
H2224 H 0.59121 0.96482 0.57213 0.0
H2225 H 0.61504 0.93905 0.5858 0.0
C2226 C 0.70213 0.17392 0.28567 0.0
C2227 C 0.70838 0.20148 0.2913 0.0
C2228 C 0.68429 0.15862 0.30182 0.0
C2229 C 0.66236 0.16072 0.37151 0.0
H2230 H 0.60465 0.09567 0.33622 0.0
C2231 C 0.59795 0.08469 0.4342 0.0
C2232 C 0.59057 0.05783 0.42016 0.0
C2233 C 0.61076 0.10468 0.41983 0.0
C2234 C 0.62082 0.11368 0.34636 0.0
H2235 H 0.70151 0.23492 0.31819 0.0
H2236 H 0.67048 0.208 0.34694 0.0
H2237 H 0.62886 0.12661 0.3074 0.0
H2238 H 0.59213 0.03047 0.38127 0.0
H2239 H 0.61581 0.06525 0.35667 0.0
H2240 H 0.65546 0.14713 0.41014 0.0
C2241 C 0.67907 0.19833 0.32975 0.0
C2242 C 0.63442 0.13141 0.32992 0.0
C2243 C 0.69662 0.2136 0.31328 0.0
C2244 C 0.59747 0.05113 0.39232 0.0
C2245 C 0.61069 0.07102 0.37819 0.0
C2246 C 0.64899 0.14276 0.38794 0.0
C2247 C 0.67285 0.17077 0.32407 0.0
C2248 C 0.65573 0.15461 0.34224 0.0
C2249 C 0.61666 0.09794 0.39144 0.0
C2250 C 0.62868 0.11865 0.37526 0.0
H2251 H 0.7109 0.16422 0.26868 0.0
H2252 H 0.67989 0.13736 0.29739 0.0
H2253 H 0.67886 0.17857 0.3813 0.0
H2254 H 0.5925 0.0902 0.45566 0.0
H2255 H 0.6151 0.12525 0.43056 0.0
C2256 C 0.85952 0.66931 0.33687 0.0
C2257 C 0.83284 0.66087 0.34264 0.0
C2258 C 0.87693 0.66149 0.35036 0.0
C2259 C 0.88679 0.63217 0.40935 0.0
H2260 H 0.92409 0.59873 0.35467 0.0
C2261 C 0.93853 0.56477 0.43777 0.0
C2262 C 0.96067 0.56347 0.4232 0.0
C2263 C 0.92429 0.57925 0.43037 0.0
C2264 C 0.9144 0.60845 0.3705 0.0
H2265 H 0.80359 0.63896 0.36794 0.0
H2266 H 0.83416 0.62582 0.39213 0.0
H2267 H 0.89816 0.62124 0.33904 0.0
H2268 H 0.98617 0.57762 0.3907 0.0
H2269 H 0.96218 0.60359 0.37848 0.0
H2270 H 0.90327 0.61961 0.44094 0.0
C2271 C 0.84167 0.63841 0.37721 0.0
C2272 C 0.89939 0.62134 0.36142 0.0
C2273 C 0.82418 0.64592 0.36341 0.0
C2274 C 0.96881 0.57771 0.40182 0.0
C2275 C 0.9549 0.59254 0.39476 0.0
C2276 C 0.90222 0.6196 0.41859 0.0
C2277 C 0.86802 0.64527 0.37005 0.0
C2278 C 0.88529 0.63324 0.38064 0.0
C2279 C 0.9321 0.59315 0.4085 0.0
C2280 C 0.91617 0.6074 0.39923 0.0
H2281 H 0.86653 0.68057 0.32069 0.0
H2282 H 0.89718 0.6673 0.34459 0.0
H2283 H 0.87615 0.6412 0.42468 0.0
H2284 H 0.93183 0.55402 0.45442 0.0
H2285 H 0.90676 0.5789 0.44133 0.0
C2286 C 0.32489 0.81742 0.31144 0.0
C2287 C 0.29732 0.80528 0.31003 0.0
C2288 C 0.33899 0.83025 0.33761 0.0
C2289 C 0.34445 0.87327 0.39901 0.0
H2290 H 0.38476 0.84284 0.43601 0.0
C2291 C 0.42899 0.94359 0.47507 0.0
C2292 C 0.45224 0.93991 0.46653 0.0
C2293 C 0.4047 0.92254 0.46762 0.0
C2294 C 0.3734 0.85155 0.42617 0.0
H2295 H 0.26273 0.79737 0.33446 0.0
H2296 H 0.28767 0.82091 0.38049 0.0
H2297 H 0.35213 0.81454 0.39678 0.0
H2298 H 0.46906 0.91112 0.44667 0.0
H2299 H 0.42697 0.87476 0.43274 0.0
H2300 H 0.36707 0.91065 0.42591 0.0
C2301 C 0.29813 0.81989 0.3613 0.0
C2302 C 0.35473 0.83534 0.40388 0.0
C2303 C 0.28398 0.80686 0.33507 0.0
C2304 C 0.45123 0.91441 0.45311 0.0
C2305 C 0.42703 0.89347 0.44546 0.0
C2306 C 0.36325 0.88951 0.42096 0.0
C2307 C 0.32569 0.83135 0.36263 0.0
C2308 C 0.34084 0.8464 0.38968 0.0
C2309 C 0.40342 0.89778 0.45096 0.0
C2310 C 0.37877 0.87911 0.43403 0.0
H2311 H 0.33556 0.81644 0.29237 0.0
H2312 H 0.36028 0.83943 0.33836 0.0
H2313 H 0.33404 0.8821 0.38796 0.0
H2314 H 0.42938 0.96319 0.48533 0.0
H2315 H 0.38688 0.92632 0.47279 0.0
C2316 C 0.21985 0.29856 0.329 0.0
C2317 C 0.21999 0.2932 0.29916 0.0
C2318 C 0.20667 0.31473 0.34359 0.0
C2319 C 0.1792 0.36578 0.33395 0.0
H2320 H 0.13816 0.3471 0.39758 0.0
C2321 C 0.10645 0.41739 0.37776 0.0
C2322 C 0.10196 0.42149 0.40696 0.0
C2323 C 0.12155 0.40236 0.36592 0.0
C2324 C 0.14978 0.35297 0.3801 0.0
H2325 H 0.20628 0.30141 0.26154 0.0
H2326 H 0.18359 0.32892 0.28653 0.0
H2327 H 0.16352 0.32062 0.37549 0.0
H2328 H 0.11037 0.41228 0.44631 0.0
H2329 H 0.13722 0.38697 0.42597 0.0
H2330 H 0.16577 0.39813 0.33847 0.0
C2331 C 0.19378 0.32094 0.29895 0.0
C2332 C 0.16441 0.33764 0.36736 0.0
C2333 C 0.20672 0.30477 0.28449 0.0
C2334 C 0.11338 0.41 0.42384 0.0
C2335 C 0.12862 0.39504 0.412 0.0
C2336 C 0.16472 0.38114 0.34673 0.0
C2337 C 0.19344 0.32627 0.32876 0.0
C2338 C 0.17911 0.34357 0.3438 0.0
C2339 C 0.13304 0.39092 0.38277 0.0
C2340 C 0.14942 0.37488 0.36985 0.0
H2341 H 0.22956 0.28999 0.34106 0.0
H2342 H 0.20707 0.3184 0.36655 0.0
H2343 H 0.19065 0.3715 0.31631 0.0
H2344 H 0.09857 0.42609 0.36386 0.0
H2345 H 0.12394 0.39953 0.3433 0.0
C2346 C 0.30417 0.20865 0.66924 0.0
C2347 C 0.28981 0.20153 0.6926 0.0
C2348 C 0.31802 0.19333 0.65453 0.0
C2349 C 0.32596 0.12704 0.64714 0.0
H2350 H 0.39066 0.16206 0.61389 0.0
C2351 C 0.38488 0.06612 0.58558 0.0
C2352 C 0.41255 0.07807 0.58575 0.0
C2353 C 0.36963 0.08106 0.59711 0.0
C2354 C 0.37284 0.15184 0.62334 0.0
H2355 H 0.27898 0.17211 0.71846 0.0
H2356 H 0.30356 0.14648 0.69407 0.0
H2357 H 0.36513 0.18775 0.6366 0.0
H2358 H 0.44543 0.11585 0.59843 0.0
H2359 H 0.41924 0.14136 0.61962 0.0
H2360 H 0.33434 0.09152 0.63543 0.0
C2361 C 0.30365 0.16337 0.6862 0.0
C2362 C 0.35778 0.16665 0.63603 0.0
C2363 C 0.28958 0.17842 0.70055 0.0
C2364 C 0.42432 0.10558 0.59804 0.0
C2365 C 0.40908 0.12047 0.60989 0.0
C2366 C 0.34119 0.11236 0.63487 0.0
C2367 C 0.31828 0.17052 0.66297 0.0
C2368 C 0.33407 0.15456 0.64831 0.0
C2369 C 0.3814 0.10852 0.60968 0.0
C2370 C 0.36497 0.12442 0.6227 0.0
H2371 H 0.30542 0.2265 0.66276 0.0
H2372 H 0.32862 0.19955 0.63661 0.0
H2373 H 0.30769 0.11656 0.65568 0.0
H2374 H 0.37482 0.045 0.57687 0.0
H2375 H 0.34846 0.07089 0.59589 0.0
C2376 C 0.83004 0.2887 0.69672 0.0
C2377 C 0.80334 0.27416 0.68774 0.0
C2378 C 0.84635 0.30525 0.68051 0.0
C2379 C 0.85733 0.32303 0.61252 0.0
H2380 H 0.87938 0.3961 0.65593 0.0
C2381 C 0.90381 0.41322 0.56112 0.0
C2382 C 0.92456 0.43517 0.57706 0.0
C2383 C 0.88915 0.39218 0.57342 0.0
C2384 C 0.87379 0.37584 0.64361 0.0
H2385 H 0.77348 0.26344 0.65352 0.0
H2386 H 0.80224 0.29255 0.62514 0.0
H2387 H 0.85545 0.35978 0.67848 0.0
H2388 H 0.94636 0.45232 0.61823 0.0
H2389 H 0.92132 0.41559 0.63936 0.0
H2390 H 0.87612 0.33901 0.57774 0.0
C2391 C 0.81031 0.29114 0.64478 0.0
C2392 C 0.86007 0.35511 0.65653 0.0
C2393 C 0.79389 0.27469 0.6611 0.0
C2394 C 0.9303 0.4358 0.60547 0.0
C2395 C 0.91586 0.41475 0.61764 0.0
C2396 C 0.87147 0.34382 0.59963 0.0
C2397 C 0.83633 0.30724 0.65496 0.0
C2398 C 0.85178 0.32862 0.6411 0.0
C2399 C 0.89511 0.39269 0.6018 0.0
C2400 C 0.87983 0.37047 0.61507 0.0
H2401 H 0.83797 0.28871 0.7171 0.0
H2402 H 0.86647 0.31747 0.68857 0.0
H2403 H 0.85097 0.30264 0.60033 0.0
H2404 H 0.89902 0.41219 0.53913 0.0
H2405 H 0.87307 0.37563 0.56076 0.0
C2406 C 0.19067 0.67399 0.69506 0.0
C2407 C 0.2098 0.69879 0.69422 0.0
C2408 C 0.17085 0.66101 0.67329 0.0
C2409 C 0.14197 0.66613 0.6066 0.0
H2410 H 0.13432 0.59196 0.58507 0.0
C2411 C 0.05543 0.58277 0.5412 0.0
C2412 C 0.05813 0.55845 0.52962 0.0
C2413 C 0.07754 0.60533 0.55224 0.0
C2414 C 0.13674 0.61278 0.59016 0.0
H2415 H 0.2228 0.73042 0.67139 0.0
H2416 H 0.18866 0.70744 0.63283 0.0
H2417 H 0.16203 0.62051 0.62663 0.0
H2418 H 0.08569 0.53913 0.51615 0.0
H2419 H 0.1247 0.57888 0.53488 0.0
H2420 H 0.11663 0.65813 0.56966 0.0
C2421 C 0.18836 0.69823 0.65051 0.0
C2422 C 0.15209 0.62901 0.61459 0.0
C2423 C 0.20788 0.71144 0.67262 0.0
C2424 C 0.08327 0.55776 0.52523 0.0
C2425 C 0.1055 0.58043 0.53616 0.0
C2426 C 0.12664 0.64983 0.58188 0.0
C2427 C 0.17054 0.67229 0.6499 0.0
C2428 C 0.15431 0.65565 0.62355 0.0
C2429 C 0.1026 0.6037 0.55199 0.0
C2430 C 0.12336 0.62277 0.57379 0.0
H2431 H 0.19192 0.66406 0.7117 0.0
H2432 H 0.15681 0.64138 0.67385 0.0
H2433 H 0.14354 0.68668 0.61284 0.0
H2434 H 0.03608 0.58371 0.54428 0.0
H2435 H 0.07451 0.62292 0.56397 0.0
loop_
_geom_bond_atom_site_label_1
_geom_bond_atom_site_label_2
_geom_bond_distance
_geom_bond_site_symmetry_2
_ccdc_geom_bond_type
C0 C2 1.422 . S
C0 C4 1.415 . S
C0 N6 1.369 . S
C1 C2 1.421 . S
C1 C3 1.417 . S
C1 C13 1.422 . S
C2 C0 1.422 . S
C2 C1 1.421 . S
C2 N12 1.359 . S
C3 C1 1.417 . S
C3 C5 1.329 . S
C3 H22 0.930 . S
C4 C0 1.415 . S
C4 C5 1.437 . S
C4 C8 1.413 . S
C5 C3 1.329 . S
C5 C4 1.437 . S
C5 H27 0.929 . S
N6 C0 1.369 . S
N6 C7 1.338 . S
N6 Gd11 2.622 . S
C7 N6 1.338 . S
C7 C9 1.378 . S
C7 H19 0.929 . S
C8 C4 1.413 . S
C8 C9 1.348 . S
C8 H24 0.931 . S
C9 C7 1.378 . S
C9 C8 1.348 . S
C9 H25 0.930 . S
Gd10 N30 2.622 . S
Gd10 N37 2.570 . S
Gd10 O44 2.353 . S
Gd10 O45 2.468 . S
Gd10 O46 2.427 . S
Gd10 O48 2.388 . S
Gd10 O49 2.386 . S
Gd10 O53 2.307 . S
Gd10 C63 2.805 . S
Gd11 N6 2.622 . S
Gd11 N12 2.570 . S
Gd11 O43 2.386 . S
Gd11 O47 2.307 . S
Gd11 O50 2.353 . S
Gd11 O51 2.468 . S
Gd11 O52 2.427 . S
Gd11 O54 2.388 . S
Gd11 C75 2.805 . S
N12 C2 1.359 . S
N12 Gd11 2.570 . S
N12 C14 1.343 . S
C13 C1 1.422 . S
C13 C15 1.321 . S
C13 H21 0.931 . S
C14 N12 1.343 . S
C14 C15 1.390 . S
C14 H16 0.931 . S
C15 C13 1.321 . S
C15 C14 1.390 . S
C15 H17 0.930 . S
H16 C14 0.931 . S
H17 C15 0.930 . S
H18 C41 0.931 . S
H19 C7 0.929 . S
H20 C42 0.930 . S
H21 C13 0.931 . S
H22 C3 0.930 . S
H23 C32 0.929 . S
H24 C8 0.931 . S
H25 C9 0.930 . S
H26 C64 0.930 . S
H27 C5 0.929 . S
H28 C33 0.931 . S
H29 C34 0.930 . S
N30 Gd10 2.622 . S
N30 C31 1.369 . S
N30 C32 1.338 . S
C31 N30 1.369 . S
C31 C35 1.415 . S
C31 C38 1.422 . S
C32 H23 0.929 . S
C32 N30 1.338 . S
C32 C34 1.378 . S
C33 H28 0.931 . S
C33 C34 1.348 . S
C33 C35 1.413 . S
C34 H29 0.930 . S
C34 C32 1.378 . S
C34 C33 1.348 . S
C35 C31 1.415 . S
C35 C33 1.413 . S
C35 C65 1.437 . S
H36 C65 0.929 . S
N37 Gd10 2.570 . S
N37 C38 1.359 . S
N37 C41 1.343 . S
C38 C31 1.422 . S
C38 N37 1.359 . S
C38 C40 1.421 . S
C39 C40 1.422 . S
C39 C42 1.321 . S
C39 H66 0.931 . S
C40 C38 1.421 . S
C40 C39 1.422 . S
C40 C64 1.417 . S
C41 H18 0.931 . S
C41 N37 1.343 . S
C41 C42 1.390 . S
C42 H20 0.930 . S
C42 C39 1.321 . S
C42 C41 1.390 . S
O43 Gd11 2.386 . S
O43 C55 1.265 . S
O44 Gd10 2.353 . S
O44 C55 1.242 . S
O45 Gd10 2.468 . S
O45 C63 1.263 . S
O46 Gd10 2.427 . S
O46 C63 1.252 . S
O47 Gd11 2.307 . S
O47 C56 1.261 . S
O48 Gd10 2.388 . S
O48 C56 1.252 . S
O49 Gd10 2.386 . S
O49 C67 1.265 . S
O50 Gd11 2.353 . S
O50 C67 1.242 . S
O51 Gd11 2.468 . S
O51 C75 1.263 . S
O52 Gd11 2.427 . S
O52 C75 1.252 . S
O53 Gd10 2.307 . S
O53 C68 1.261 . S
O54 Gd11 2.388 . S
O54 C68 1.252 . S
C55 O43 1.265 . S
C55 O44 1.242 . S
C56 O47 1.261 . S
C56 O48 1.252 . S
C57 C60 1.394 . S
C57 C62 1.370 . S
C57 C63 1.500 . S
C58 C61 1.383 . S
C58 C62 1.395 . S
C59 C60 1.396 . S
C59 C61 1.365 . S
C59 H76 0.929 . S
C60 C57 1.394 . S
C60 C59 1.396 . S
C60 H77 0.930 . S
C61 C58 1.383 . S
C61 C59 1.365 . S
C61 H78 0.931 . S
C62 C57 1.370 . S
C62 C58 1.395 . S
C62 H79 0.930 . S
C63 Gd10 2.805 . S
C63 O45 1.263 . S
C63 O46 1.252 . S
C63 C57 1.500 . S
C64 H26 0.930 . S
C64 C40 1.417 . S
C64 C65 1.329 . S
C65 C35 1.437 . S
C65 H36 0.929 . S
C65 C64 1.329 . S
H66 C39 0.931 . S
C67 O49 1.265 . S
C67 O50 1.242 . S
C68 O53 1.261 . S
C68 O54 1.252 . S
C69 C72 1.394 . S
C69 C74 1.370 . S
C69 C75 1.500 . S
C70 C73 1.383 . S
C70 C74 1.395 . S
C71 C72 1.396 . S
C71 C73 1.365 . S
C71 H80 0.929 . S
C72 C69 1.394 . S
C72 C71 1.396 . S
C72 H81 0.930 . S
C73 C70 1.383 . S
C73 C71 1.365 . S
C73 H82 0.931 . S
C74 C69 1.370 . S
C74 C70 1.395 . S
C74 H83 0.930 . S
C75 Gd11 2.805 . S
C75 O51 1.263 . S
C75 O52 1.252 . S
C75 C69 1.500 . S
H76 C59 0.929 . S
H77 C60 0.930 . S
H78 C61 0.931 . S
H79 C62 0.930 . S
H80 C71 0.929 . S
H81 C72 0.930 . S
H82 C73 0.931 . S
H83 C74 0.930 . S
C84 C86 1.422 . S
C84 C88 1.415 . S
C84 N90 1.369 . S
C85 C86 1.421 . S
C85 C87 1.417 . S
C85 C97 1.422 . S
C86 C84 1.422 . S
C86 C85 1.421 . S
C86 N96 1.359 . S
C87 C85 1.417 . S
C87 C89 1.329 . S
C87 H106 0.930 . S
C88 C84 1.415 . S
C88 C89 1.437 . S
C88 C92 1.413 . S
C89 C87 1.329 . S
C89 C88 1.437 . S
C89 H111 0.929 . S
N90 C84 1.369 . S
N90 C91 1.338 . S
N90 Gd95 2.622 . S
C91 N90 1.338 . S
C91 C93 1.378 . S
C91 H103 0.929 . S
C92 C88 1.413 . S
C92 C93 1.348 . S
C92 H108 0.931 . S
C93 C91 1.378 . S
C93 C92 1.348 . S
C93 H109 0.930 . S
Gd94 N114 2.622 . S
Gd94 N121 2.570 . S
Gd94 O128 2.353 . S
Gd94 O129 2.468 . S
Gd94 O130 2.427 . S
Gd94 O132 2.388 . S
Gd94 O133 2.386 . S
Gd94 O137 2.307 . S
Gd94 C147 2.805 . S
Gd95 N90 2.622 . S
Gd95 N96 2.570 . S
Gd95 O127 2.386 . S
Gd95 O131 2.307 . S
Gd95 O134 2.353 . S
Gd95 O135 2.468 . S
Gd95 O136 2.427 . S
Gd95 O138 2.388 . S
Gd95 C159 2.805 . S
N96 C86 1.359 . S
N96 Gd95 2.570 . S
N96 C98 1.343 . S
C97 C85 1.422 . S
C97 C99 1.321 . S
C97 H105 0.931 . S
C98 N96 1.343 . S
C98 C99 1.390 . S
C98 H100 0.931 . S
C99 C97 1.321 . S
C99 C98 1.390 . S
C99 H101 0.930 . S
H100 C98 0.931 . S
H101 C99 0.930 . S
H102 C125 0.931 . S
H103 C91 0.929 . S
H104 C126 0.930 . S
H105 C97 0.931 . S
H106 C87 0.930 . S
H107 C116 0.929 . S
H108 C92 0.931 . S
H109 C93 0.930 . S
H110 C148 0.930 . S
H111 C89 0.929 . S
H112 C117 0.931 . S
H113 C118 0.930 . S
N114 Gd94 2.622 . S
N114 C115 1.369 . S
N114 C116 1.338 . S
C115 N114 1.369 . S
C115 C119 1.415 . S
C115 C122 1.422 . S
C116 H107 0.929 . S
C116 N114 1.338 . S
C116 C118 1.378 . S
C117 H112 0.931 . S
C117 C118 1.348 . S
C117 C119 1.413 . S
C118 H113 0.930 . S
C118 C116 1.378 . S
C118 C117 1.348 . S
C119 C115 1.415 . S
C119 C117 1.413 . S
C119 C149 1.437 . S
H120 C149 0.929 . S
N121 Gd94 2.570 . S
N121 C122 1.359 . S
N121 C125 1.343 . S
C122 C115 1.422 . S
C122 N121 1.359 . S
C122 C124 1.421 . S
C123 C124 1.422 . S
C123 C126 1.321 . S
C123 H150 0.931 . S
C124 C122 1.421 . S
C124 C123 1.422 . S
C124 C148 1.417 . S
C125 H102 0.931 . S
C125 N121 1.343 . S
C125 C126 1.390 . S
C126 H104 0.930 . S
C126 C123 1.321 . S
C126 C125 1.390 . S
O127 Gd95 2.386 . S
O127 C139 1.265 . S
O128 Gd94 2.353 . S
O128 C139 1.242 . S
O129 Gd94 2.468 . S
O129 C147 1.263 . S
O130 Gd94 2.427 . S
O130 C147 1.252 . S
O131 Gd95 2.307 . S
O131 C140 1.261 . S
O132 Gd94 2.388 . S
O132 C140 1.252 . S
O133 Gd94 2.386 . S
O133 C151 1.265 . S
O134 Gd95 2.353 . S
O134 C151 1.242 . S
O135 Gd95 2.468 . S
O135 C159 1.263 . S
O136 Gd95 2.427 . S
O136 C159 1.252 . S
O137 Gd94 2.307 . S
O137 C152 1.261 . S
O138 Gd95 2.388 . S
O138 C152 1.252 . S
C139 O127 1.265 . S
C139 O128 1.242 . S
C140 O131 1.261 . S
C140 O132 1.252 . S
C141 C144 1.394 . S
C141 C146 1.370 . S
C141 C147 1.500 . S
C142 C145 1.383 . S
C142 C146 1.395 . S
C143 C144 1.396 . S
C143 C145 1.365 . S
C143 H160 0.929 . S
C144 C141 1.394 . S
C144 C143 1.396 . S
C144 H161 0.930 . S
C145 C142 1.383 . S
C145 C143 1.365 . S
C145 H162 0.931 . S
C146 C141 1.370 . S
C146 C142 1.395 . S
C146 H163 0.930 . S
C147 Gd94 2.805 . S
C147 O129 1.263 . S
C147 O130 1.252 . S
C147 C141 1.500 . S
C148 H110 0.930 . S
C148 C124 1.417 . S
C148 C149 1.329 . S
C149 C119 1.437 . S
C149 H120 0.929 . S
C149 C148 1.329 . S
H150 C123 0.931 . S
C151 O133 1.265 . S
C151 O134 1.242 . S
C152 O137 1.261 . S
C152 O138 1.252 . S
C153 C156 1.394 . S
C153 C158 1.370 . S
C153 C159 1.500 . S
C154 C157 1.383 . S
C154 C158 1.395 . S
C155 C156 1.396 . S
C155 C157 1.365 . S
C155 H164 0.929 . S
C156 C153 1.394 . S
C156 C155 1.396 . S
C156 H165 0.930 . S
C157 C154 1.383 . S
C157 C155 1.365 . S
C157 H166 0.931 . S
C158 C153 1.370 . S
C158 C154 1.395 . S
C158 H167 0.930 . S
C159 Gd95 2.805 . S
C159 O135 1.263 . S
C159 O136 1.252 . S
C159 C153 1.500 . S
H160 C143 0.929 . S
H161 C144 0.930 . S
H162 C145 0.931 . S
H163 C146 0.930 . S
H164 C155 0.929 . S
H165 C156 0.930 . S
H166 C157 0.931 . S
H167 C158 0.930 . S
C168 C170 1.422 . S
C168 C172 1.415 . S
C168 N174 1.369 . S
C169 C170 1.421 . S
C169 C171 1.417 . S
C169 C181 1.422 . S
C170 C168 1.422 . S
C170 C169 1.421 . S
C170 N180 1.359 . S
C171 C169 1.417 . S
C171 C173 1.329 . S
C171 H190 0.930 . S
C172 C168 1.415 . S
C172 C173 1.437 . S
C172 C176 1.413 . S
C173 C171 1.329 . S
C173 C172 1.437 . S
C173 H195 0.929 . S
N174 C168 1.369 . S
N174 C175 1.338 . S
N174 Gd179 2.622 . S
C175 N174 1.338 . S
C175 C177 1.378 . S
C175 H187 0.929 . S
C176 C172 1.413 . S
C176 C177 1.348 . S
C176 H192 0.931 . S
C177 C175 1.378 . S
C177 C176 1.348 . S
C177 H193 0.930 . S
Gd178 N198 2.622 . S
Gd178 N205 2.570 . S
Gd178 O212 2.353 . S
Gd178 O213 2.468 . S
Gd178 O214 2.427 . S
Gd178 O216 2.388 . S
Gd178 O217 2.386 . S
Gd178 O221 2.307 . S
Gd178 C231 2.805 . S
Gd179 N174 2.622 . S
Gd179 N180 2.570 . S
Gd179 O211 2.386 . S
Gd179 O215 2.307 . S
Gd179 O218 2.353 . S
Gd179 O219 2.468 . S
Gd179 O220 2.427 . S
Gd179 O222 2.388 . S
Gd179 C243 2.805 . S
N180 C170 1.359 . S
N180 Gd179 2.570 . S
N180 C182 1.343 . S
C181 C169 1.422 . S
C181 C183 1.321 . S
C181 H189 0.931 . S
C182 N180 1.343 . S
C182 C183 1.390 . S
C182 H184 0.931 . S
C183 C181 1.321 . S
C183 C182 1.390 . S
C183 H185 0.930 . S
H184 C182 0.931 . S
H185 C183 0.930 . S
H186 C209 0.931 . S
H187 C175 0.929 . S
H188 C210 0.930 . S
H189 C181 0.931 . S
H190 C171 0.930 . S
H191 C200 0.929 . S
H192 C176 0.931 . S
H193 C177 0.930 . S
H194 C232 0.930 . S
H195 C173 0.929 . S
H196 C201 0.931 . S
H197 C202 0.930 . S
N198 Gd178 2.622 . S
N198 C199 1.369 . S
N198 C200 1.338 . S
C199 N198 1.369 . S
C199 C203 1.415 . S
C199 C206 1.422 . S
C200 H191 0.929 . S
C200 N198 1.338 . S
C200 C202 1.378 . S
C201 H196 0.931 . S
C201 C202 1.348 . S
C201 C203 1.413 . S
C202 H197 0.930 . S
C202 C200 1.378 . S
C202 C201 1.348 . S
C203 C199 1.415 . S
C203 C201 1.413 . S
C203 C233 1.437 . S
H204 C233 0.929 . S
N205 Gd178 2.570 . S
N205 C206 1.359 . S
N205 C209 1.343 . S
C206 C199 1.422 . S
C206 N205 1.359 . S
C206 C208 1.421 . S
C207 C208 1.422 . S
C207 C210 1.321 . S
C207 H234 0.931 . S
C208 C206 1.421 . S
C208 C207 1.422 . S
C208 C232 1.417 . S
C209 H186 0.931 . S
C209 N205 1.343 . S
C209 C210 1.390 . S
C210 H188 0.930 . S
C210 C207 1.321 . S
C210 C209 1.390 . S
O211 Gd179 2.386 . S
O211 C223 1.265 . S
O212 Gd178 2.353 . S
O212 C223 1.242 . S
O213 Gd178 2.468 . S
O213 C231 1.263 . S
O214 Gd178 2.427 . S
O214 C231 1.252 . S
O215 Gd179 2.307 . S
O215 C224 1.261 . S
O216 Gd178 2.388 . S
O216 C224 1.252 . S
O217 Gd178 2.386 . S
O217 C235 1.265 . S
O218 Gd179 2.353 . S
O218 C235 1.242 . S
O219 Gd179 2.468 . S
O219 C243 1.263 . S
O220 Gd179 2.427 . S
O220 C243 1.252 . S
O221 Gd178 2.307 . S
O221 C236 1.261 . S
O222 Gd179 2.388 . S
O222 C236 1.252 . S
C223 O211 1.265 . S
C223 O212 1.242 . S
C224 O215 1.261 . S
C224 O216 1.252 . S
C225 C228 1.394 . S
C225 C230 1.370 . S
C225 C231 1.500 . S
C226 C229 1.383 . S
C226 C230 1.395 . S
C227 C228 1.396 . S
C227 C229 1.365 . S
C227 H244 0.929 . S
C228 C225 1.394 . S
C228 C227 1.396 . S
C228 H245 0.930 . S
C229 C226 1.383 . S
C229 C227 1.365 . S
C229 H246 0.931 . S
C230 C225 1.370 . S
C230 C226 1.395 . S
C230 H247 0.930 . S
C231 Gd178 2.805 . S
C231 O213 1.263 . S
C231 O214 1.252 . S
C231 C225 1.500 . S
C232 H194 0.930 . S
C232 C208 1.417 . S
C232 C233 1.329 . S
C233 C203 1.437 . S
C233 H204 0.929 . S
C233 C232 1.329 . S
H234 C207 0.931 . S
C235 O217 1.265 . S
C235 O218 1.242 . S
C236 O221 1.261 . S
C236 O222 1.252 . S
C237 C240 1.394 . S
C237 C242 1.370 . S
C237 C243 1.500 . S
C238 C241 1.383 . S
C238 C242 1.395 . S
C239 C240 1.396 . S
C239 C241 1.365 . S
C239 H248 0.929 . S
C240 C237 1.394 . S
C240 C239 1.396 . S
C240 H249 0.930 . S
C241 C238 1.383 . S
C241 C239 1.365 . S
C241 H250 0.931 . S
C242 C237 1.370 . S
C242 C238 1.395 . S
C242 H251 0.930 . S
C243 Gd179 2.805 . S
C243 O219 1.263 . S
C243 O220 1.252 . S
C243 C237 1.500 . S
H244 C227 0.929 . S
H245 C228 0.930 . S
H246 C229 0.931 . S
H247 C230 0.930 . S
H248 C239 0.929 . S
H249 C240 0.930 . S
H250 C241 0.931 . S
H251 C242 0.930 . S
C252 C254 1.422 . S
C252 C256 1.415 . S
C252 N258 1.369 . S
C253 C254 1.421 . S
C253 C255 1.417 . S
C253 C265 1.422 . S
C254 C252 1.422 . S
C254 C253 1.421 . S
C254 N264 1.359 . S
C255 C253 1.417 . S
C255 C257 1.329 . S
C255 H274 0.930 . S
C256 C252 1.415 . S
C256 C257 1.437 . S
C256 C260 1.413 . S
C257 C255 1.329 . S
C257 C256 1.437 . S
C257 H279 0.929 . S
N258 C252 1.369 . S
N258 C259 1.338 . S
N258 Gd263 2.622 . S
C259 N258 1.338 . S
C259 C261 1.378 . S
C259 H271 0.929 . S
C260 C256 1.413 . S
C260 C261 1.348 . S
C260 H276 0.931 . S
C261 C259 1.378 . S
C261 C260 1.348 . S
C261 H277 0.930 . S
Gd262 N282 2.622 . S
Gd262 N289 2.570 . S
Gd262 O296 2.353 . S
Gd262 O297 2.468 . S
Gd262 O298 2.427 . S
Gd262 O300 2.388 . S
Gd262 O301 2.386 . S
Gd262 O305 2.307 . S
Gd262 C315 2.805 . S
Gd263 N258 2.622 . S
Gd263 N264 2.570 . S
Gd263 O295 2.386 . S
Gd263 O299 2.307 . S
Gd263 O302 2.353 . S
Gd263 O303 2.468 . S
Gd263 O304 2.427 . S
Gd263 O306 2.388 . S
Gd263 C327 2.805 . S
N264 C254 1.359 . S
N264 Gd263 2.570 . S
N264 C266 1.343 . S
C265 C253 1.422 . S
C265 C267 1.321 . S
C265 H273 0.931 . S
C266 N264 1.343 . S
C266 C267 1.390 . S
C266 H268 0.931 . S
C267 C265 1.321 . S
C267 C266 1.390 . S
C267 H269 0.930 . S
H268 C266 0.931 . S
H269 C267 0.930 . S
H270 C293 0.931 . S
H271 C259 0.929 . S
H272 C294 0.930 . S
H273 C265 0.931 . S
H274 C255 0.930 . S
H275 C284 0.929 . S
H276 C260 0.931 . S
H277 C261 0.930 . S
H278 C316 0.930 . S
H279 C257 0.929 . S
H280 C285 0.931 . S
H281 C286 0.930 . S
N282 Gd262 2.622 . S
N282 C283 1.369 . S
N282 C284 1.338 . S
C283 N282 1.369 . S
C283 C287 1.415 . S
C283 C290 1.422 . S
C284 H275 0.929 . S
C284 N282 1.338 . S
C284 C286 1.378 . S
C285 H280 0.931 . S
C285 C286 1.348 . S
C285 C287 1.413 . S
C286 H281 0.930 . S
C286 C284 1.378 . S
C286 C285 1.348 . S
C287 C283 1.415 . S
C287 C285 1.413 . S
C287 C317 1.437 . S
H288 C317 0.929 . S
N289 Gd262 2.570 . S
N289 C290 1.359 . S
N289 C293 1.343 . S
C290 C283 1.422 . S
C290 N289 1.359 . S
C290 C292 1.421 . S
C291 C292 1.422 . S
C291 C294 1.321 . S
C291 H318 0.931 . S
C292 C290 1.421 . S
C292 C291 1.422 . S
C292 C316 1.417 . S
C293 H270 0.931 . S
C293 N289 1.343 . S
C293 C294 1.390 . S
C294 H272 0.930 . S
C294 C291 1.321 . S
C294 C293 1.390 . S
O295 Gd263 2.386 . S
O295 C307 1.265 . S
O296 Gd262 2.353 . S
O296 C307 1.242 . S
O297 Gd262 2.468 . S
O297 C315 1.263 . S
O298 Gd262 2.427 . S
O298 C315 1.252 . S
O299 Gd263 2.307 . S
O299 C308 1.261 . S
O300 Gd262 2.388 . S
O300 C308 1.252 . S
O301 Gd262 2.386 . S
O301 C319 1.265 . S
O302 Gd263 2.353 . S
O302 C319 1.242 . S
O303 Gd263 2.468 . S
O303 C327 1.263 . S
O304 Gd263 2.427 . S
O304 C327 1.252 . S
O305 Gd262 2.307 . S
O305 C320 1.261 . S
O306 Gd263 2.388 . S
O306 C320 1.252 . S
C307 O295 1.265 . S
C307 O296 1.242 . S
C308 O299 1.261 . S
C308 O300 1.252 . S
C309 C312 1.394 . S
C309 C314 1.370 . S
C309 C315 1.500 . S
C310 C313 1.383 . S
C310 C314 1.395 . S
C311 C312 1.396 . S
C311 C313 1.365 . S
C311 H328 0.929 . S
C312 C309 1.394 . S
C312 C311 1.396 . S
C312 H329 0.930 . S
C313 C310 1.383 . S
C313 C311 1.365 . S
C313 H330 0.931 . S
C314 C309 1.370 . S
C314 C310 1.395 . S
C314 H331 0.930 . S
C315 Gd262 2.805 . S
C315 O297 1.263 . S
C315 O298 1.252 . S
C315 C309 1.500 . S
C316 H278 0.930 . S
C316 C292 1.417 . S
C316 C317 1.329 . S
C317 C287 1.437 . S
C317 H288 0.929 . S
C317 C316 1.329 . S
H318 C291 0.931 . S
C319 O301 1.265 . S
C319 O302 1.242 . S
C320 O305 1.261 . S
C320 O306 1.252 . S
C321 C324 1.394 . S
C321 C326 1.370 . S
C321 C327 1.500 . S
C322 C325 1.383 . S
C322 C326 1.395 . S
C323 C324 1.396 . S
C323 C325 1.365 . S
C323 H332 0.929 . S
C324 C321 1.394 . S
C324 C323 1.396 . S
C324 H333 0.930 . S
C325 C322 1.383 . S
C325 C323 1.365 . S
C325 H334 0.931 . S
C326 C321 1.370 . S
C326 C322 1.395 . S
C326 H335 0.930 . S
C327 Gd263 2.805 . S
C327 O303 1.263 . S
C327 O304 1.252 . S
C327 C321 1.500 . S
H328 C311 0.929 . S
H329 C312 0.930 . S
H330 C313 0.931 . S
H331 C314 0.930 . S
H332 C323 0.929 . S
H333 C324 0.930 . S
H334 C325 0.931 . S
H335 C326 0.930 . S
C336 C338 1.422 . S
C336 C340 1.415 . S
C336 N342 1.369 . S
C337 C338 1.421 . S
C337 C339 1.417 . S
C337 C349 1.422 . S
C338 C336 1.422 . S
C338 C337 1.421 . S
C338 N348 1.359 . S
C339 C337 1.417 . S
C339 C341 1.329 . S
C339 H358 0.930 . S
C340 C336 1.415 . S
C340 C341 1.437 . S
C340 C344 1.413 . S
C341 C339 1.329 . S
C341 C340 1.437 . S
C341 H363 0.929 . S
N342 C336 1.369 . S
N342 C343 1.338 . S
N342 Gd347 2.622 . S
C343 N342 1.338 . S
C343 C345 1.378 . S
C343 H355 0.929 . S
C344 C340 1.413 . S
C344 C345 1.348 . S
C344 H360 0.931 . S
C345 C343 1.378 . S
C345 C344 1.348 . S
C345 H361 0.930 . S
Gd346 N366 2.622 . S
Gd346 N373 2.570 . S
Gd346 O380 2.353 . S
Gd346 O381 2.468 . S
Gd346 O382 2.427 . S
Gd346 O384 2.388 . S
Gd346 O385 2.386 . S
Gd346 O389 2.307 . S
Gd346 C399 2.805 . S
Gd347 N342 2.622 . S
Gd347 N348 2.570 . S
Gd347 O379 2.386 . S
Gd347 O383 2.307 . S
Gd347 O386 2.353 . S
Gd347 O387 2.468 . S
Gd347 O388 2.427 . S
Gd347 O390 2.388 . S
Gd347 C411 2.805 . S
N348 C338 1.359 . S
N348 Gd347 2.570 . S
N348 C350 1.343 . S
C349 C337 1.422 . S
C349 C351 1.321 . S
C349 H357 0.931 . S
C350 N348 1.343 . S
C350 C351 1.390 . S
C350 H352 0.931 . S
C351 C349 1.321 . S
C351 C350 1.390 . S
C351 H353 0.930 . S
H352 C350 0.931 . S
H353 C351 0.930 . S
H354 C377 0.931 . S
H355 C343 0.929 . S
H356 C378 0.930 . S
H357 C349 0.931 . S
H358 C339 0.930 . S
H359 C368 0.929 . S
H360 C344 0.931 . S
H361 C345 0.930 . S
H362 C400 0.930 . S
H363 C341 0.929 . S
H364 C369 0.931 . S
H365 C370 0.930 . S
N366 Gd346 2.622 . S
N366 C367 1.369 . S
N366 C368 1.338 . S
C367 N366 1.369 . S
C367 C371 1.415 . S
C367 C374 1.422 . S
C368 H359 0.929 . S
C368 N366 1.338 . S
C368 C370 1.378 . S
C369 H364 0.931 . S
C369 C370 1.348 . S
C369 C371 1.413 . S
C370 H365 0.930 . S
C370 C368 1.378 . S
C370 C369 1.348 . S
C371 C367 1.415 . S
C371 C369 1.413 . S
C371 C401 1.437 . S
H372 C401 0.929 . S
N373 Gd346 2.570 . S
N373 C374 1.359 . S
N373 C377 1.343 . S
C374 C367 1.422 . S
C374 N373 1.359 . S
C374 C376 1.421 . S
C375 C376 1.422 . S
C375 C378 1.321 . S
C375 H402 0.931 . S
C376 C374 1.421 . S
C376 C375 1.422 . S
C376 C400 1.417 . S
C377 H354 0.931 . S
C377 N373 1.343 . S
C377 C378 1.390 . S
C378 H356 0.930 . S
C378 C375 1.321 . S
C378 C377 1.390 . S
O379 Gd347 2.386 . S
O379 C391 1.265 . S
O380 Gd346 2.353 . S
O380 C391 1.242 . S
O381 Gd346 2.468 . S
O381 C399 1.263 . S
O382 Gd346 2.427 . S
O382 C399 1.252 . S
O383 Gd347 2.307 . S
O383 C392 1.261 . S
O384 Gd346 2.388 . S
O384 C392 1.252 . S
O385 Gd346 2.386 . S
O385 C403 1.265 . S
O386 Gd347 2.353 . S
O386 C403 1.242 . S
O387 Gd347 2.468 . S
O387 C411 1.263 . S
O388 Gd347 2.427 . S
O388 C411 1.252 . S
O389 Gd346 2.307 . S
O389 C404 1.261 . S
O390 Gd347 2.388 . S
O390 C404 1.252 . S
C391 O379 1.265 . S
C391 O380 1.242 . S
C392 O383 1.261 . S
C392 O384 1.252 . S
C393 C396 1.394 . S
C393 C398 1.370 . S
C393 C399 1.500 . S
C394 C397 1.383 . S
C394 C398 1.395 . S
C395 C396 1.396 . S
C395 C397 1.365 . S
C395 H412 0.929 . S
C396 C393 1.394 . S
C396 C395 1.396 . S
C396 H413 0.930 . S
C397 C394 1.383 . S
C397 C395 1.365 . S
C397 H414 0.931 . S
C398 C393 1.370 . S
C398 C394 1.395 . S
C398 H415 0.930 . S
C399 Gd346 2.805 . S
C399 O381 1.263 . S
C399 O382 1.252 . S
C399 C393 1.500 . S
C400 H362 0.930 . S
C400 C376 1.417 . S
C400 C401 1.329 . S
C401 C371 1.437 . S
C401 H372 0.929 . S
C401 C400 1.329 . S
H402 C375 0.931 . S
C403 O385 1.265 . S
C403 O386 1.242 . S
C404 O389 1.261 . S
C404 O390 1.252 . S
C405 C408 1.394 . S
C405 C410 1.370 . S
C405 C411 1.500 . S
C406 C409 1.383 . S
C406 C410 1.395 . S
C407 C408 1.396 . S
C407 C409 1.365 . S
C407 H416 0.929 . S
C408 C405 1.394 . S
C408 C407 1.396 . S
C408 H417 0.930 . S
C409 C406 1.383 . S
C409 C407 1.365 . S
C409 H418 0.931 . S
C410 C405 1.370 . S
C410 C406 1.395 . S
C410 H419 0.930 . S
C411 Gd347 2.805 . S
C411 O387 1.263 . S
C411 O388 1.252 . S
C411 C405 1.500 . S
H412 C395 0.929 . S
H413 C396 0.930 . S
H414 C397 0.931 . S
H415 C398 0.930 . S
H416 C407 0.929 . S
H417 C408 0.930 . S
H418 C409 0.931 . S
H419 C410 0.930 . S
C420 C422 1.422 . S
C420 C424 1.415 . S
C420 N426 1.369 . S
C421 C422 1.421 . S
C421 C423 1.417 . S
C421 C433 1.422 . S
C422 C420 1.422 . S
C422 C421 1.421 . S
C422 N432 1.359 . S
C423 C421 1.417 . S
C423 C425 1.329 . S
C423 H442 0.930 . S
C424 C420 1.415 . S
C424 C425 1.437 . S
C424 C428 1.413 . S
C425 C423 1.329 . S
C425 C424 1.437 . S
C425 H447 0.929 . S
N426 C420 1.369 . S
N426 C427 1.338 . S
N426 Gd431 2.622 . S
C427 N426 1.338 . S
C427 C429 1.378 . S
C427 H439 0.929 . S
C428 C424 1.413 . S
C428 C429 1.348 . S
C428 H444 0.931 . S
C429 C427 1.378 . S
C429 C428 1.348 . S
C429 H445 0.930 . S
Gd430 N450 2.622 . S
Gd430 N457 2.570 . S
Gd430 O464 2.353 . S
Gd430 O465 2.468 . S
Gd430 O466 2.427 . S
Gd430 O468 2.388 . S
Gd430 O469 2.386 . S
Gd430 O473 2.307 . S
Gd430 C483 2.805 . S
Gd431 N426 2.622 . S
Gd431 N432 2.570 . S
Gd431 O463 2.386 . S
Gd431 O467 2.307 . S
Gd431 O470 2.353 . S
Gd431 O471 2.468 . S
Gd431 O472 2.427 . S
Gd431 O474 2.388 . S
Gd431 C495 2.805 . S
N432 C422 1.359 . S
N432 Gd431 2.570 . S
N432 C434 1.343 . S
C433 C421 1.422 . S
C433 C435 1.321 . S
C433 H441 0.931 . S
C434 N432 1.343 . S
C434 C435 1.390 . S
C434 H436 0.931 . S
C435 C433 1.321 . S
C435 C434 1.390 . S
C435 H437 0.930 . S
H436 C434 0.931 . S
H437 C435 0.930 . S
H438 C461 0.931 . S
H439 C427 0.929 . S
H440 C462 0.930 . S
H441 C433 0.931 . S
H442 C423 0.930 . S
H443 C452 0.929 . S
H444 C428 0.931 . S
H445 C429 0.930 . S
H446 C484 0.930 . S
H447 C425 0.929 . S
H448 C453 0.931 . S
H449 C454 0.930 . S
N450 Gd430 2.622 . S
N450 C451 1.369 . S
N450 C452 1.338 . S
C451 N450 1.369 . S
C451 C455 1.415 . S
C451 C458 1.422 . S
C452 H443 0.929 . S
C452 N450 1.338 . S
C452 C454 1.378 . S
C453 H448 0.931 . S
C453 C454 1.348 . S
C453 C455 1.413 . S
C454 H449 0.930 . S
C454 C452 1.378 . S
C454 C453 1.348 . S
C455 C451 1.415 . S
C455 C453 1.413 . S
C455 C485 1.437 . S
H456 C485 0.929 . S
N457 Gd430 2.570 . S
N457 C458 1.359 . S
N457 C461 1.343 . S
C458 C451 1.422 . S
C458 N457 1.359 . S
C458 C460 1.421 . S
C459 C460 1.422 . S
C459 C462 1.321 . S
C459 H486 0.931 . S
C460 C458 1.421 . S
C460 C459 1.422 . S
C460 C484 1.417 . S
C461 H438 0.931 . S
C461 N457 1.343 . S
C461 C462 1.390 . S
C462 H440 0.930 . S
C462 C459 1.321 . S
C462 C461 1.390 . S
O463 Gd431 2.386 . S
O463 C475 1.265 . S
O464 Gd430 2.353 . S
O464 C475 1.242 . S
O465 Gd430 2.468 . S
O465 C483 1.263 . S
O466 Gd430 2.427 . S
O466 C483 1.252 . S
O467 Gd431 2.307 . S
O467 C476 1.261 . S
O468 Gd430 2.388 . S
O468 C476 1.252 . S
O469 Gd430 2.386 . S
O469 C487 1.265 . S
O470 Gd431 2.353 . S
O470 C487 1.242 . S
O471 Gd431 2.468 . S
O471 C495 1.263 . S
O472 Gd431 2.427 . S
O472 C495 1.252 . S
O473 Gd430 2.307 . S
O473 C488 1.261 . S
O474 Gd431 2.388 . S
O474 C488 1.252 . S
C475 O463 1.265 . S
C475 O464 1.242 . S
C476 O467 1.261 . S
C476 O468 1.252 . S
C477 C480 1.394 . S
C477 C482 1.370 . S
C477 C483 1.500 . S
C478 C481 1.383 . S
C478 C482 1.395 . S
C479 C480 1.396 . S
C479 C481 1.365 . S
C479 H496 0.929 . S
C480 C477 1.394 . S
C480 C479 1.396 . S
C480 H497 0.930 . S
C481 C478 1.383 . S
C481 C479 1.365 . S
C481 H498 0.931 . S
C482 C477 1.370 . S
C482 C478 1.395 . S
C482 H499 0.930 . S
C483 Gd430 2.805 . S
C483 O465 1.263 . S
C483 O466 1.252 . S
C483 C477 1.500 . S
C484 H446 0.930 . S
C484 C460 1.417 . S
C484 C485 1.329 . S
C485 C455 1.437 . S
C485 H456 0.929 . S
C485 C484 1.329 . S
H486 C459 0.931 . S
C487 O469 1.265 . S
C487 O470 1.242 . S
C488 O473 1.261 . S
C488 O474 1.252 . S
C489 C492 1.394 . S
C489 C494 1.370 . S
C489 C495 1.500 . S
C490 C493 1.383 . S
C490 C494 1.395 . S
C491 C492 1.396 . S
C491 C493 1.365 . S
C491 H500 0.929 . S
C492 C489 1.394 . S
C492 C491 1.396 . S
C492 H501 0.930 . S
C493 C490 1.383 . S
C493 C491 1.365 . S
C493 H502 0.931 . S
C494 C489 1.370 . S
C494 C490 1.395 . S
C494 H503 0.930 . S
C495 Gd431 2.805 . S
C495 O471 1.263 . S
C495 O472 1.252 . S
C495 C489 1.500 . S
H496 C479 0.929 . S
H497 C480 0.930 . S
H498 C481 0.931 . S
H499 C482 0.930 . S
H500 C491 0.929 . S
H501 C492 0.930 . S
H502 C493 0.931 . S
H503 C494 0.930 . S
C504 C506 1.422 . S
C504 C508 1.415 . S
C504 N510 1.369 . S
C505 C506 1.421 . S
C505 C507 1.417 . S
C505 C517 1.422 . S
C506 C504 1.422 . S
C506 C505 1.421 . S
C506 N516 1.359 . S
C507 C505 1.417 . S
C507 C509 1.329 . S
C507 H526 0.930 . S
C508 C504 1.415 . S
C508 C509 1.437 . S
C508 C512 1.413 . S
C509 C507 1.329 . S
C509 C508 1.437 . S
C509 H531 0.929 . S
N510 C504 1.369 . S
N510 C511 1.338 . S
N510 Gd515 2.622 . S
C511 N510 1.338 . S
C511 C513 1.378 . S
C511 H523 0.929 . S
C512 C508 1.413 . S
C512 C513 1.348 . S
C512 H528 0.931 . S
C513 C511 1.378 . S
C513 C512 1.348 . S
C513 H529 0.930 . S
Gd514 N534 2.622 . S
Gd514 N541 2.570 . S
Gd514 O548 2.353 . S
Gd514 O549 2.468 . S
Gd514 O550 2.427 . S
Gd514 O552 2.388 . S
Gd514 O553 2.386 . S
Gd514 O557 2.307 . S
Gd514 C567 2.805 . S
Gd515 N510 2.622 . S
Gd515 N516 2.570 . S
Gd515 O547 2.386 . S
Gd515 O551 2.307 . S
Gd515 O554 2.353 . S
Gd515 O555 2.468 . S
Gd515 O556 2.427 . S
Gd515 O558 2.388 . S
Gd515 C579 2.805 . S
N516 C506 1.359 . S
N516 Gd515 2.570 . S
N516 C518 1.343 . S
C517 C505 1.422 . S
C517 C519 1.321 . S
C517 H525 0.931 . S
C518 N516 1.343 . S
C518 C519 1.390 . S
C518 H520 0.931 . S
C519 C517 1.321 . S
C519 C518 1.390 . S
C519 H521 0.930 . S
H520 C518 0.931 . S
H521 C519 0.930 . S
H522 C545 0.931 . S
H523 C511 0.929 . S
H524 C546 0.930 . S
H525 C517 0.931 . S
H526 C507 0.930 . S
H527 C536 0.929 . S
H528 C512 0.931 . S
H529 C513 0.930 . S
H530 C568 0.930 . S
H531 C509 0.929 . S
H532 C537 0.931 . S
H533 C538 0.930 . S
N534 Gd514 2.622 . S
N534 C535 1.369 . S
N534 C536 1.338 . S
C535 N534 1.369 . S
C535 C539 1.415 . S
C535 C542 1.422 . S
C536 H527 0.929 . S
C536 N534 1.338 . S
C536 C538 1.378 . S
C537 H532 0.931 . S
C537 C538 1.348 . S
C537 C539 1.413 . S
C538 H533 0.930 . S
C538 C536 1.378 . S
C538 C537 1.348 . S
C539 C535 1.415 . S
C539 C537 1.413 . S
C539 C569 1.437 . S
H540 C569 0.929 . S
N541 Gd514 2.570 . S
N541 C542 1.359 . S
N541 C545 1.343 . S
C542 C535 1.422 . S
C542 N541 1.359 . S
C542 C544 1.421 . S
C543 C544 1.422 . S
C543 C546 1.321 . S
C543 H570 0.931 . S
C544 C542 1.421 . S
C544 C543 1.422 . S
C544 C568 1.417 . S
C545 H522 0.931 . S
C545 N541 1.343 . S
C545 C546 1.390 . S
C546 H524 0.930 . S
C546 C543 1.321 . S
C546 C545 1.390 . S
O547 Gd515 2.386 . S
O547 C559 1.265 . S
O548 Gd514 2.353 . S
O548 C559 1.242 . S
O549 Gd514 2.468 . S
O549 C567 1.263 . S
O550 Gd514 2.427 . S
O550 C567 1.252 . S
O551 Gd515 2.307 . S
O551 C560 1.261 . S
O552 Gd514 2.388 . S
O552 C560 1.252 . S
O553 Gd514 2.386 . S
O553 C571 1.265 . S
O554 Gd515 2.353 . S
O554 C571 1.242 . S
O555 Gd515 2.468 . S
O555 C579 1.263 . S
O556 Gd515 2.427 . S
O556 C579 1.252 . S
O557 Gd514 2.307 . S
O557 C572 1.261 . S
O558 Gd515 2.388 . S
O558 C572 1.252 . S
C559 O547 1.265 . S
C559 O548 1.242 . S
C560 O551 1.261 . S
C560 O552 1.252 . S
C561 C564 1.394 . S
C561 C566 1.370 . S
C561 C567 1.500 . S
C562 C565 1.383 . S
C562 C566 1.395 . S
C563 C564 1.396 . S
C563 C565 1.365 . S
C563 H580 0.929 . S
C564 C561 1.394 . S
C564 C563 1.396 . S
C564 H581 0.930 . S
C565 C562 1.383 . S
C565 C563 1.365 . S
C565 H582 0.931 . S
C566 C561 1.370 . S
C566 C562 1.395 . S
C566 H583 0.930 . S
C567 Gd514 2.805 . S
C567 O549 1.263 . S
C567 O550 1.252 . S
C567 C561 1.500 . S
C568 H530 0.930 . S
C568 C544 1.417 . S
C568 C569 1.329 . S
C569 C539 1.437 . S
C569 H540 0.929 . S
C569 C568 1.329 . S
H570 C543 0.931 . S
C571 O553 1.265 . S
C571 O554 1.242 . S
C572 O557 1.261 . S
C572 O558 1.252 . S
C573 C576 1.394 . S
C573 C578 1.370 . S
C573 C579 1.500 . S
C574 C577 1.383 . S
C574 C578 1.395 . S
C575 C576 1.396 . S
C575 C577 1.365 . S
C575 H584 0.929 . S
C576 C573 1.394 . S
C576 C575 1.396 . S
C576 H585 0.930 . S
C577 C574 1.383 . S
C577 C575 1.365 . S
C577 H586 0.931 . S
C578 C573 1.370 . S
C578 C574 1.395 . S
C578 H587 0.930 . S
C579 Gd515 2.805 . S
C579 O555 1.263 . S
C579 O556 1.252 . S
C579 C573 1.500 . S
H580 C563 0.929 . S
H581 C564 0.930 . S
H582 C565 0.931 . S
H583 C566 0.930 . S
H584 C575 0.929 . S
H585 C576 0.930 . S
H586 C577 0.931 . S
H587 C578 0.930 . S
C588 C590 1.422 . S
C588 C592 1.415 . S
C588 N594 1.369 . S
C589 C590 1.421 . S
C589 C591 1.417 . S
C589 C601 1.422 . S
C590 C588 1.422 . S
C590 C589 1.421 . S
C590 N600 1.359 . S
C591 C589 1.417 . S
C591 C593 1.329 . S
C591 H610 0.930 . S
C592 C588 1.415 . S
C592 C593 1.437 . S
C592 C596 1.413 . S
C593 C591 1.329 . S
C593 C592 1.437 . S
C593 H615 0.929 . S
N594 C588 1.369 . S
N594 C595 1.338 . S
N594 Gd599 2.622 . S
C595 N594 1.338 . S
C595 C597 1.378 . S
C595 H607 0.929 . S
C596 C592 1.413 . S
C596 C597 1.348 . S
C596 H612 0.931 . S
C597 C595 1.378 . S
C597 C596 1.348 . S
C597 H613 0.930 . S
Gd598 N618 2.622 . S
Gd598 N625 2.570 . S
Gd598 O632 2.353 . S
Gd598 O633 2.468 . S
Gd598 O634 2.427 . S
Gd598 O636 2.388 . S
Gd598 O637 2.386 . S
Gd598 O641 2.307 . S
Gd598 C651 2.805 . S
Gd599 N594 2.622 . S
Gd599 N600 2.570 . S
Gd599 O631 2.386 . S
Gd599 O635 2.307 . S
Gd599 O638 2.353 . S
Gd599 O639 2.468 . S
Gd599 O640 2.427 . S
Gd599 O642 2.388 . S
Gd599 C663 2.805 . S
N600 C590 1.359 . S
N600 Gd599 2.570 . S
N600 C602 1.343 . S
C601 C589 1.422 . S
C601 C603 1.321 . S
C601 H609 0.931 . S
C602 N600 1.343 . S
C602 C603 1.390 . S
C602 H604 0.931 . S
C603 C601 1.321 . S
C603 C602 1.390 . S
C603 H605 0.930 . S
H604 C602 0.931 . S
H605 C603 0.930 . S
H606 C629 0.931 . S
H607 C595 0.929 . S
H608 C630 0.930 . S
H609 C601 0.931 . S
H610 C591 0.930 . S
H611 C620 0.929 . S
H612 C596 0.931 . S
H613 C597 0.930 . S
H614 C652 0.930 . S
H615 C593 0.929 . S
H616 C621 0.931 . S
H617 C622 0.930 . S
N618 Gd598 2.622 . S
N618 C619 1.369 . S
N618 C620 1.338 . S
C619 N618 1.369 . S
C619 C623 1.415 . S
C619 C626 1.422 . S
C620 H611 0.929 . S
C620 N618 1.338 . S
C620 C622 1.378 . S
C621 H616 0.931 . S
C621 C622 1.348 . S
C621 C623 1.413 . S
C622 H617 0.930 . S
C622 C620 1.378 . S
C622 C621 1.348 . S
C623 C619 1.415 . S
C623 C621 1.413 . S
C623 C653 1.437 . S
H624 C653 0.929 . S
N625 Gd598 2.570 . S
N625 C626 1.359 . S
N625 C629 1.343 . S
C626 C619 1.422 . S
C626 N625 1.359 . S
C626 C628 1.421 . S
C627 C628 1.422 . S
C627 C630 1.321 . S
C627 H654 0.931 . S
C628 C626 1.421 . S
C628 C627 1.422 . S
C628 C652 1.417 . S
C629 H606 0.931 . S
C629 N625 1.343 . S
C629 C630 1.390 . S
C630 H608 0.930 . S
C630 C627 1.321 . S
C630 C629 1.390 . S
O631 Gd599 2.386 . S
O631 C643 1.265 . S
O632 Gd598 2.353 . S
O632 C643 1.242 . S
O633 Gd598 2.468 . S
O633 C651 1.263 . S
O634 Gd598 2.427 . S
O634 C651 1.252 . S
O635 Gd599 2.307 . S
O635 C644 1.261 . S
O636 Gd598 2.388 . S
O636 C644 1.252 . S
O637 Gd598 2.386 . S
O637 C655 1.265 . S
O638 Gd599 2.353 . S
O638 C655 1.242 . S
O639 Gd599 2.468 . S
O639 C663 1.263 . S
O640 Gd599 2.427 . S
O640 C663 1.252 . S
O641 Gd598 2.307 . S
O641 C656 1.261 . S
O642 Gd599 2.388 . S
O642 C656 1.252 . S
C643 O631 1.265 . S
C643 O632 1.242 . S
C644 O635 1.261 . S
C644 O636 1.252 . S
C645 C648 1.394 . S
C645 C650 1.370 . S
C645 C651 1.500 . S
C646 C649 1.383 . S
C646 C650 1.395 . S
C647 C648 1.396 . S
C647 C649 1.365 . S
C647 H664 0.929 . S
C648 C645 1.394 . S
C648 C647 1.396 . S
C648 H665 0.930 . S
C649 C646 1.383 . S
C649 C647 1.365 . S
C649 H666 0.931 . S
C650 C645 1.370 . S
C650 C646 1.395 . S
C650 H667 0.930 . S
C651 Gd598 2.805 . S
C651 O633 1.263 . S
C651 O634 1.252 . S
C651 C645 1.500 . S
C652 H614 0.930 . S
C652 C628 1.417 . S
C652 C653 1.329 . S
C653 C623 1.437 . S
C653 H624 0.929 . S
C653 C652 1.329 . S
H654 C627 0.931 . S
C655 O637 1.265 . S
C655 O638 1.242 . S
C656 O641 1.261 . S
C656 O642 1.252 . S
C657 C660 1.394 . S
C657 C662 1.370 . S
C657 C663 1.500 . S
C658 C661 1.383 . S
C658 C662 1.395 . S
C659 C660 1.396 . S
C659 C661 1.365 . S
C659 H668 0.929 . S
C660 C657 1.394 . S
C660 C659 1.396 . S
C660 H669 0.930 . S
C661 C658 1.383 . S
C661 C659 1.365 . S
C661 H670 0.931 . S
C662 C657 1.370 . S
C662 C658 1.395 . S
C662 H671 0.930 . S
C663 Gd599 2.805 . S
C663 O639 1.263 . S
C663 O640 1.252 . S
C663 C657 1.500 . S
H664 C647 0.929 . S
H665 C648 0.930 . S
H666 C649 0.931 . S
H667 C650 0.930 . S
H668 C659 0.929 . S
H669 C660 0.930 . S
H670 C661 0.931 . S
H671 C662 0.930 . S
Cd672 N675 2.334 1_655 S
Cd672 N701 2.304 1_565 S
Cd672 O708 2.268 . S
Cd672 O711 2.273 1_665 S
Cd672 O712 2.417 . S
Cd672 O713 2.330 . S
Cd673 N688 2.304 1_455 S
Cd673 N692 2.334 1_545 S
Cd673 O709 2.273 1_445 S
Cd673 O710 2.268 . S
Cd673 O714 2.417 . S
Cd673 O715 2.330 . S
C674 N675 1.332 . S
C674 C678 1.381 . S
C674 H680 0.931 . S
N675 Cd672 2.334 1_455 S
N675 C674 1.332 . S
N675 C679 1.328 . S
C676 C677 1.396 . S
C676 C679 1.378 . S
C676 H718 0.931 . S
C677 C676 1.396 . S
C677 C678 1.382 . S
C678 C674 1.381 . S
C678 C677 1.382 . S
C678 H719 0.930 . S
C679 N675 1.328 . S
C679 C676 1.378 . S
C679 H681 0.930 1_455 S
H680 C674 0.931 . S
H681 C679 0.930 1_655 S
C682 O708 1.238 . S
C682 O709 1.253 . S
C683 C684 1.379 . S
C683 N688 1.337 . S
C683 H689 0.929 . S
C684 C683 1.379 . S
C684 C685 1.380 . S
C684 H720 0.929 . S
C685 C684 1.380 . S
C685 C686 1.399 . S
C686 C685 1.399 . S
C686 C687 1.376 . S
C686 H721 0.931 . S
C687 C686 1.376 . S
C687 N688 1.338 . S
C687 H690 0.930 1_655 S
N688 Cd673 2.304 1_655 S
N688 C683 1.337 . S
N688 C687 1.338 . S
H689 C683 0.929 . S
H690 C687 0.930 1_455 S
C691 N692 1.332 . S
C691 C695 1.381 . S
C691 H697 0.931 . S
N692 Cd673 2.334 1_565 S
N692 C691 1.332 . S
N692 C696 1.328 . S
C693 C694 1.396 . S
C693 C696 1.378 . S
C693 H722 0.931 . S
C694 C693 1.396 . S
C694 C695 1.382 . S
C695 C691 1.381 . S
C695 C694 1.382 . S
C695 H723 0.930 . S
C696 N692 1.328 . S
C696 C693 1.378 . S
C696 H698 0.930 1_565 S
H697 C691 0.931 . S
H698 C696 0.930 1_545 S
C699 O710 1.238 . S
C699 O711 1.253 . S
C700 O712 1.239 . S
C700 O713 1.230 . S
N701 Cd672 2.304 1_545 S
N701 C702 1.337 . S
N701 C706 1.338 . S
C702 N701 1.337 . S
C702 C703 1.379 . S
C702 H716 0.929 . S
C703 C702 1.379 . S
C703 C704 1.380 . S
C703 H724 0.929 . S
C704 C703 1.380 . S
C704 C705 1.399 . S
C705 C704 1.399 . S
C705 C706 1.376 . S
C705 H725 0.931 . S
C706 N701 1.338 . S
C706 C705 1.376 . S
C706 H717 0.930 1_545 S
C707 O714 1.239 . S
C707 O715 1.230 . S
O708 Cd672 2.268 . S
O708 C682 1.238 . S
O709 Cd673 2.273 1_665 S
O709 C682 1.253 . S
O710 Cd673 2.268 . S
O710 C699 1.238 . S
O711 Cd672 2.273 1_445 S
O711 C699 1.253 . S
O712 Cd672 2.417 . S
O712 C700 1.239 . S
O713 Cd672 2.330 . S
O713 C700 1.230 . S
O714 Cd673 2.417 . S
O714 C707 1.239 . S
O715 Cd673 2.330 . S
O715 C707 1.230 . S
H716 C702 0.929 . S
H717 C706 0.930 1_565 S
H718 C676 0.931 . S
H719 C678 0.930 . S
H720 C684 0.929 . S
H721 C686 0.931 . S
H722 C693 0.931 . S
H723 C695 0.930 . S
H724 C703 0.929 . S
H725 C705 0.931 . S
Cd726 N729 2.334 . S
Cd726 N755 2.304 1_565 S
Cd726 O762 2.268 1_554 S
Cd726 O765 2.273 1_565 S
Cd726 O766 2.417 . S
Cd726 O767 2.330 . S
Cd727 N742 2.304 . S
Cd727 N746 2.334 1_545 S
Cd727 O763 2.273 1_545 S
Cd727 O764 2.268 1_556 S
Cd727 O768 2.417 . S
Cd727 O769 2.330 . S
C728 N729 1.332 . S
C728 C732 1.381 . S
C728 H734 0.931 . S
N729 Cd726 2.334 . S
N729 C728 1.332 . S
N729 C733 1.328 . S
C730 C731 1.396 . S
C730 C733 1.378 . S
C730 H772 0.931 1_554 S
C731 C730 1.396 . S
C731 C732 1.382 . S
C732 C728 1.381 . S
C732 C731 1.382 . S
C732 H773 0.930 . S
C733 N729 1.328 . S
C733 C730 1.378 . S
C733 H735 0.930 1_554 S
H734 C728 0.931 . S
H735 C733 0.930 1_556 S
C736 O762 1.238 . S
C736 O763 1.253 . S
C737 C738 1.379 . S
C737 N742 1.337 . S
C737 H743 0.929 . S
C738 C737 1.379 . S
C738 C739 1.380 . S
C738 H774 0.929 . S
C739 C738 1.380 . S
C739 C740 1.399 . S
C740 C739 1.399 . S
C740 C741 1.376 . S
C740 H775 0.931 1_556 S
C741 C740 1.376 . S
C741 N742 1.338 . S
C741 H744 0.930 1_556 S
N742 Cd727 2.304 . S
N742 C737 1.337 . S
N742 C741 1.338 . S
H743 C737 0.929 . S
H744 C741 0.930 1_554 S
C745 N746 1.332 . S
C745 C749 1.381 . S
C745 H751 0.931 . S
N746 Cd727 2.334 1_565 S
N746 C745 1.332 . S
N746 C750 1.328 . S
C747 C748 1.396 . S
C747 C750 1.378 . S
C747 H776 0.961 . S
C748 C747 1.396 . S
C748 C749 1.382 . S
C749 C745 1.381 . S
C749 C748 1.382 . S
C749 H777 0.930 . S
C750 N746 1.328 . S
C750 C747 1.378 . S
C750 H752 0.930 1_566 S
H751 C745 0.931 . S
H752 C750 0.930 1_544 S
C753 O764 1.238 . S
C753 O765 1.253 . S
C754 O766 1.239 . S
C754 O767 1.230 . S
N755 Cd726 2.304 1_545 S
N755 C756 1.337 . S
N755 C760 1.338 . S
C756 N755 1.337 . S
C756 C757 1.379 . S
C756 H770 0.929 . S
C757 C756 1.379 . S
C757 C758 1.380 . S
C757 H778 0.929 . S
C758 C757 1.380 . S
C758 C759 1.399 . S
C759 C758 1.399 . S
C759 C760 1.376 . S
C759 H779 0.950 . S
C760 N755 1.338 . S
C760 C759 1.376 . S
C760 H771 0.930 1_544 S
C761 O768 1.239 . S
C761 O769 1.230 . S
O762 Cd726 2.268 1_556 S
O762 C736 1.238 . S
O763 Cd727 2.273 1_565 S
O763 C736 1.253 . S
O764 Cd727 2.268 1_554 S
O764 C753 1.238 . S
O765 Cd726 2.273 1_545 S
O765 C753 1.253 . S
O766 Cd726 2.417 . S
O766 C754 1.239 . S
O767 Cd726 2.330 . S
O767 C754 1.230 . S
O768 Cd727 2.417 . S
O768 C761 1.239 . S
O769 Cd727 2.330 . S
O769 C761 1.230 . S
H770 C756 0.929 . S
H771 C760 0.930 1_566 S
H772 C730 0.931 1_556 S
H773 C732 0.930 . S
H774 C738 0.929 . S
H775 C740 0.931 1_554 S
H776 C747 0.961 . S
H777 C749 0.930 . S
H778 C757 0.929 . S
H779 C759 0.950 . S
Cd780 N783 2.334 1_655 S
Cd780 N809 2.304 . S
Cd780 O816 2.268 1_554 S
Cd780 O819 2.273 1_655 S
Cd780 O820 2.417 . S
Cd780 O821 2.330 . S
Cd781 N796 2.304 1_455 S
Cd781 N800 2.334 . S
Cd781 O817 2.273 1_455 S
Cd781 O818 2.268 1_556 S
Cd781 O822 2.417 . S
Cd781 O823 2.330 . S
C782 N783 1.332 . S
C782 C786 1.381 . S
C782 H788 0.931 . S
N783 Cd780 2.334 1_455 S
N783 C782 1.332 . S
N783 C787 1.328 . S
C784 C785 1.396 . S
C784 C787 1.378 . S
C784 H826 0.931 1_554 S
C785 C784 1.396 . S
C785 C786 1.382 . S
C786 C782 1.381 . S
C786 C785 1.382 . S
C786 H827 0.930 . S
C787 N783 1.328 . S
C787 C784 1.378 . S
C787 H789 0.930 1_454 S
H788 C782 0.931 . S
H789 C787 0.930 1_656 S
C790 O816 1.238 . S
C790 O817 1.253 . S
C791 C792 1.379 . S
C791 N796 1.337 . S
C791 H797 0.929 . S
C792 C791 1.379 . S
C792 C793 1.380 . S
C792 H828 0.929 . S
C793 C792 1.380 . S
C793 C794 1.399 . S
C794 C793 1.399 . S
C794 C795 1.376 . S
C794 H829 0.931 1_556 S
C795 C794 1.376 . S
C795 N796 1.338 . S
C795 H798 0.930 1_656 S
N796 Cd781 2.304 1_655 S
N796 C791 1.337 . S
N796 C795 1.338 . S
H797 C791 0.929 . S
H798 C795 0.930 1_454 S
C799 N800 1.332 . S
C799 C803 1.381 . S
C799 H805 0.931 . S
N800 Cd781 2.334 . S
N800 C799 1.332 . S
N800 C804 1.328 . S
C801 C802 1.396 . S
C801 C804 1.378 . S
C801 H830 0.961 . S
C802 C801 1.396 . S
C802 C803 1.382 . S
C803 C799 1.381 . S
C803 C802 1.382 . S
C803 H831 0.930 . S
C804 N800 1.328 . S
C804 C801 1.378 . S
C804 H806 0.930 1_556 S
H805 C799 0.931 . S
H806 C804 0.930 1_554 S
C807 O818 1.238 . S
C807 O819 1.253 . S
C808 O820 1.239 . S
C808 O821 1.230 . S
N809 Cd780 2.304 . S
N809 C810 1.337 . S
N809 C814 1.338 . S
C810 N809 1.337 . S
C810 C811 1.379 . S
C810 H824 0.929 . S
C811 C810 1.379 . S
C811 C812 1.380 . S
C811 H832 0.929 . S
C812 C811 1.380 . S
C812 C813 1.399 . S
C813 C812 1.399 . S
C813 C814 1.376 . S
C813 H833 0.950 . S
C814 N809 1.338 . S
C814 C813 1.376 . S
C814 H825 0.930 1_554 S
C815 O822 1.239 . S
C815 O823 1.230 . S
O816 Cd780 2.268 1_556 S
O816 C790 1.238 . S
O817 Cd781 2.273 1_655 S
O817 C790 1.253 . S
O818 Cd781 2.268 1_554 S
O818 C807 1.238 . S
O819 Cd780 2.273 1_455 S
O819 C807 1.253 . S
O820 Cd780 2.417 . S
O820 C808 1.239 . S
O821 Cd780 2.330 . S
O821 C808 1.230 . S
O822 Cd781 2.417 . S
O822 C815 1.239 . S
O823 Cd781 2.330 . S
O823 C815 1.230 . S
H824 C810 0.929 . S
H825 C814 0.930 1_556 S
H826 C784 0.931 1_556 S
H827 C786 0.930 . S
H828 C792 0.929 . S
H829 C794 0.931 1_554 S
H830 C801 0.961 . S
H831 C803 0.930 . S
H832 C811 0.929 . S
H833 C813 0.950 . S
Cd834 N837 2.334 . S
Cd834 N863 2.304 . S
Cd834 O870 2.268 1_554 S
Cd834 O873 2.273 . S
Cd834 O874 2.417 . S
Cd834 O875 2.330 . S
Cd835 N850 2.304 . S
Cd835 N854 2.334 . S
Cd835 O871 2.273 . S
Cd835 O872 2.268 1_556 S
Cd835 O876 2.417 . S
Cd835 O877 2.330 . S
C836 N837 1.332 . S
C836 C840 1.381 . S
C836 H842 0.931 . S
N837 Cd834 2.334 . S
N837 C836 1.332 . S
N837 C841 1.328 . S
C838 C839 1.396 . S
C838 C841 1.378 . S
C838 H880 0.931 1_554 S
C839 C838 1.396 . S
C839 C840 1.382 . S
C840 C836 1.381 . S
C840 C839 1.382 . S
C840 H881 0.930 . S
C841 N837 1.328 . S
C841 C838 1.378 . S
C841 H843 0.930 1_554 S
H842 C836 0.931 . S
H843 C841 0.930 1_556 S
C844 O870 1.238 . S
C844 O871 1.253 . S
C845 C846 1.379 . S
C845 N850 1.337 . S
C845 H851 0.929 . S
C846 C845 1.379 . S
C846 C847 1.380 . S
C846 H882 0.929 . S
C847 C846 1.380 . S
C847 C848 1.399 . S
C848 C847 1.399 . S
C848 C849 1.376 . S
C848 H883 0.931 1_556 S
C849 C848 1.376 . S
C849 N850 1.338 . S
C849 H852 0.930 1_556 S
N850 Cd835 2.304 . S
N850 C845 1.337 . S
N850 C849 1.338 . S
H851 C845 0.929 . S
H852 C849 0.930 1_554 S
C853 N854 1.332 . S
C853 C857 1.381 . S
C853 H859 0.931 . S
N854 Cd835 2.334 . S
N854 C853 1.332 . S
N854 C858 1.328 . S
C855 C856 1.396 . S
C855 C858 1.378 . S
C855 H884 0.960 . S
C856 C855 1.396 . S
C856 C857 1.382 . S
C857 C853 1.381 . S
C857 C856 1.382 . S
C857 H885 0.930 . S
C858 N854 1.328 . S
C858 C855 1.378 . S
C858 H860 0.930 1_556 S
H859 C853 0.931 . S
H860 C858 0.930 1_554 S
C861 O872 1.238 . S
C861 O873 1.253 . S
C862 O874 1.239 . S
C862 O875 1.230 . S
N863 Cd834 2.304 . S
N863 C864 1.337 . S
N863 C868 1.338 . S
C864 N863 1.337 . S
C864 C865 1.379 . S
C864 H878 0.929 . S
C865 C864 1.379 . S
C865 C866 1.380 . S
C865 H886 0.929 . S
C866 C865 1.380 . S
C866 C867 1.399 . S
C867 C866 1.399 . S
C867 C868 1.376 . S
C867 H887 0.950 . S
C868 N863 1.338 . S
C868 C867 1.376 . S
C868 H879 0.930 1_554 S
C869 O876 1.239 . S
C869 O877 1.230 . S
O870 Cd834 2.268 1_556 S
O870 C844 1.238 . S
O871 Cd835 2.273 . S
O871 C844 1.253 . S
O872 Cd835 2.268 1_554 S
O872 C861 1.238 . S
O873 Cd834 2.273 . S
O873 C861 1.253 . S
O874 Cd834 2.417 . S
O874 C862 1.239 . S
O875 Cd834 2.330 . S
O875 C862 1.230 . S
O876 Cd835 2.417 . S
O876 C869 1.239 . S
O877 Cd835 2.330 . S
O877 C869 1.230 . S
H878 C864 0.929 . S
H879 C868 0.930 1_556 S
H880 C838 0.931 1_556 S
H881 C840 0.930 . S
H882 C846 0.929 . S
H883 C848 0.931 1_554 S
H884 C855 0.960 . S
H885 C857 0.930 . S
H886 C865 0.929 . S
H887 C867 0.950 . S
Cd888 N891 2.334 1_655 S
Cd888 N917 2.304 . S
Cd888 O924 2.268 . S
Cd888 O927 2.273 1_655 S
Cd888 O928 2.417 . S
Cd888 O929 2.330 . S
Cd889 N904 2.304 1_455 S
Cd889 N908 2.334 . S
Cd889 O925 2.273 1_455 S
Cd889 O926 2.268 . S
Cd889 O930 2.417 . S
Cd889 O931 2.330 . S
C890 N891 1.332 . S
C890 C894 1.381 . S
C890 H896 0.931 . S
N891 Cd888 2.334 1_455 S
N891 C890 1.332 . S
N891 C895 1.328 . S
C892 C893 1.396 . S
C892 C895 1.378 . S
C892 H934 0.931 . S
C893 C892 1.396 . S
C893 C894 1.382 . S
C894 C890 1.381 . S
C894 C893 1.382 . S
C894 H935 0.930 . S
C895 N891 1.328 . S
C895 C892 1.378 . S
C895 H897 0.930 1_455 S
H896 C890 0.931 . S
H897 C895 0.930 1_655 S
C898 O924 1.238 . S
C898 O925 1.253 . S
C899 C900 1.379 . S
C899 N904 1.337 . S
C899 H905 0.929 . S
C900 C899 1.379 . S
C900 C901 1.380 . S
C900 H936 0.929 . S
C901 C900 1.380 . S
C901 C902 1.399 . S
C902 C901 1.399 . S
C902 C903 1.376 . S
C902 H937 0.931 . S
C903 C902 1.376 . S
C903 N904 1.338 . S
C903 H906 0.930 1_655 S
N904 Cd889 2.304 1_655 S
N904 C899 1.337 . S
N904 C903 1.338 . S
H905 C899 0.929 . S
H906 C903 0.930 1_455 S
C907 N908 1.332 . S
C907 C911 1.381 . S
C907 H913 0.931 . S
N908 Cd889 2.334 . S
N908 C907 1.332 . S
N908 C912 1.328 . S
C909 C910 1.396 . S
C909 C912 1.378 . S
C909 H938 0.931 . S
C910 C909 1.396 . S
C910 C911 1.382 . S
C911 C907 1.381 . S
C911 C910 1.382 . S
C911 H939 0.930 . S
C912 N908 1.328 . S
C912 C909 1.378 . S
C912 H914 0.930 . S
H913 C907 0.931 . S
H914 C912 0.930 . S
C915 O926 1.238 . S
C915 O927 1.253 . S
C916 O928 1.239 . S
C916 O929 1.230 . S
N917 Cd888 2.304 . S
N917 C918 1.337 . S
N917 C922 1.338 . S
C918 N917 1.337 . S
C918 C919 1.379 . S
C918 H932 0.929 . S
C919 C918 1.379 . S
C919 C920 1.380 . S
C919 H940 0.929 . S
C920 C919 1.380 . S
C920 C921 1.399 . S
C921 C920 1.399 . S
C921 C922 1.376 . S
C921 H941 0.931 . S
C922 N917 1.338 . S
C922 C921 1.376 . S
C922 H933 0.930 . S
C923 O930 1.239 . S
C923 O931 1.230 . S
O924 Cd888 2.268 . S
O924 C898 1.238 . S
O925 Cd889 2.273 1_655 S
O925 C898 1.253 . S
O926 Cd889 2.268 . S
O926 C915 1.238 . S
O927 Cd888 2.273 1_455 S
O927 C915 1.253 . S
O928 Cd888 2.417 . S
O928 C916 1.239 . S
O929 Cd888 2.330 . S
O929 C916 1.230 . S
O930 Cd889 2.417 . S
O930 C923 1.239 . S
O931 Cd889 2.330 . S
O931 C923 1.230 . S
H932 C918 0.929 . S
H933 C922 0.930 . S
H934 C892 0.931 . S
H935 C894 0.930 . S
H936 C900 0.929 . S
H937 C902 0.931 . S
H938 C909 0.931 . S
H939 C911 0.930 . S
H940 C919 0.929 . S
H941 C921 0.931 . S
Cd942 N945 2.334 . S
Cd942 N971 2.304 1_565 S
Cd942 O978 2.268 . S
Cd942 O981 2.273 1_565 S
Cd942 O982 2.417 . S
Cd942 O983 2.330 . S
Cd943 N958 2.304 . S
Cd943 N962 2.334 1_545 S
Cd943 O979 2.273 1_545 S
Cd943 O980 2.268 . S
Cd943 O984 2.417 . S
Cd943 O985 2.330 . S
C944 N945 1.332 . S
C944 C948 1.381 . S
C944 H950 0.931 . S
N945 Cd942 2.334 . S
N945 C944 1.332 . S
N945 C949 1.328 . S
C946 C947 1.396 . S
C946 C949 1.378 . S
C946 H988 0.931 . S
C947 C946 1.396 . S
C947 C948 1.382 . S
C948 C944 1.381 . S
C948 C947 1.382 . S
C948 H989 0.930 . S
C949 N945 1.328 . S
C949 C946 1.378 . S
C949 H951 0.930 . S
H950 C944 0.931 . S
H951 C949 0.930 . S
C952 O978 1.238 . S
C952 O979 1.253 . S
C953 C954 1.379 . S
C953 N958 1.337 . S
C953 H959 0.929 . S
C954 C953 1.379 . S
C954 C955 1.380 . S
C954 H990 0.929 . S
C955 C954 1.380 . S
C955 C956 1.399 . S
C956 C955 1.399 . S
C956 C957 1.376 . S
C956 H991 0.931 . S
C957 C956 1.376 . S
C957 N958 1.338 . S
C957 H960 0.930 . S
N958 Cd943 2.304 . S
N958 C953 1.337 . S
N958 C957 1.338 . S
H959 C953 0.929 . S
H960 C957 0.930 . S
C961 N962 1.332 . S
C961 C965 1.381 . S
C961 H967 0.931 . S
N962 Cd943 2.334 1_565 S
N962 C961 1.332 . S
N962 C966 1.328 . S
C963 C964 1.396 . S
C963 C966 1.378 . S
C963 H992 0.931 . S
C964 C963 1.396 . S
C964 C965 1.382 . S
C965 C961 1.381 . S
C965 C964 1.382 . S
C965 H993 0.930 . S
C966 N962 1.328 . S
C966 C963 1.378 . S
C966 H968 0.930 1_565 S
H967 C961 0.931 . S
H968 C966 0.930 1_545 S
C969 O980 1.238 . S
C969 O981 1.253 . S
C970 O982 1.239 . S
C970 O983 1.230 . S
N971 Cd942 2.304 1_545 S
N971 C972 1.337 . S
N971 C976 1.338 . S
C972 N971 1.337 . S
C972 C973 1.379 . S
C972 H986 0.929 . S
C973 C972 1.379 . S
C973 C974 1.380 . S
C973 H994 0.929 . S
C974 C973 1.380 . S
C974 C975 1.399 . S
C975 C974 1.399 . S
C975 C976 1.376 . S
C975 H995 0.931 . S
C976 N971 1.338 . S
C976 C975 1.376 . S
C976 H987 0.930 1_545 S
C977 O984 1.239 . S
C977 O985 1.230 . S
O978 Cd942 2.268 . S
O978 C952 1.238 . S
O979 Cd943 2.273 1_565 S
O979 C952 1.253 . S
O980 Cd943 2.268 . S
O980 C969 1.238 . S
O981 Cd942 2.273 1_545 S
O981 C969 1.253 . S
O982 Cd942 2.417 . S
O982 C970 1.239 . S
O983 Cd942 2.330 . S
O983 C970 1.230 . S
O984 Cd943 2.417 . S
O984 C977 1.239 . S
O985 Cd943 2.330 . S
O985 C977 1.230 . S
H986 C972 0.929 . S
H987 C976 0.930 1_565 S
H988 C946 0.931 . S
H989 C948 0.930 . S
H990 C954 0.929 . S
H991 C956 0.931 . S
H992 C963 0.931 . S
H993 C965 0.930 . S
H994 C973 0.929 . S
H995 C975 0.931 . S
C996 C997 1.349 . S
C996 C998 1.327 . S
C996 H1021 0.950 . S
C997 C996 1.349 . S
C997 C1013 1.349 . S
C998 C996 1.327 . S
C998 C1017 1.429 . S
C998 H1022 0.950 . S
C999 C1016 1.574 . S
C999 C1018 1.368 . S
C999 H1023 0.949 . S
H1000 C1004 0.949 . S
C1001 C1002 1.349 . S
C1001 C1003 1.327 . S
C1001 H1024 0.950 . S
C1002 C1001 1.349 . S
C1002 C1014 1.349 . S
C1003 C1001 1.327 . S
C1003 C1019 1.429 . S
C1003 H1025 0.950 . S
C1004 H1000 0.949 . S
C1004 C1012 1.574 . S
C1004 C1020 1.368 . S
H1005 C1013 0.950 . S
H1006 C1011 0.950 . S
H1007 C1012 0.949 . S
H1008 C1014 0.950 . S
H1009 C1015 0.950 . S
H1010 C1016 0.949 . S
C1011 H1006 0.950 . S
C1011 C1013 1.327 . S
C1011 C1017 1.429 . S
C1012 C1004 1.574 . S
C1012 H1007 0.949 . S
C1012 C1018 1.368 . S
C1013 C997 1.349 . S
C1013 H1005 0.950 . S
C1013 C1011 1.327 . S
C1014 C1002 1.349 . S
C1014 H1008 0.950 . S
C1014 C1015 1.327 . S
C1015 H1009 0.950 . S
C1015 C1014 1.327 . S
C1015 C1019 1.429 . S
C1016 C999 1.574 . S
C1016 H1010 0.949 . S
C1016 C1020 1.368 . S
C1017 C998 1.429 . S
C1017 C1011 1.429 . S
C1017 C1018 1.523 . S
C1018 C999 1.368 . S
C1018 C1012 1.368 . S
C1018 C1017 1.523 . S
C1019 C1003 1.429 . S
C1019 C1015 1.429 . S
C1019 C1020 1.523 . S
C1020 C1004 1.368 . S
C1020 C1016 1.368 . S
C1020 C1019 1.523 . S
H1021 C996 0.950 . S
H1022 C998 0.950 . S
H1023 C999 0.949 . S
H1024 C1001 0.950 . S
H1025 C1003 0.950 . S
C1026 C1027 1.349 . S
C1026 C1028 1.327 . S
C1026 H1051 0.950 . S
C1027 C1026 1.349 . S
C1027 C1043 1.349 . S
C1028 C1026 1.327 . S
C1028 C1047 1.429 . S
C1028 H1052 0.950 . S
C1029 C1046 1.574 . S
C1029 C1048 1.368 . S
C1029 H1053 0.949 . S
H1030 C1034 0.949 . S
C1031 C1032 1.349 . S
C1031 C1033 1.327 . S
C1031 H1054 0.950 . S
C1032 C1031 1.349 . S
C1032 C1044 1.349 . S
C1033 C1031 1.327 . S
C1033 C1049 1.429 . S
C1033 H1055 0.950 . S
C1034 H1030 0.949 . S
C1034 C1042 1.574 . S
C1034 C1050 1.368 . S
H1035 C1043 0.950 . S
H1036 C1041 0.950 . S
H1037 C1042 0.949 . S
H1038 C1044 0.950 . S
H1039 C1045 0.950 . S
H1040 C1046 0.949 . S
C1041 H1036 0.950 . S
C1041 C1043 1.327 . S
C1041 C1047 1.429 . S
C1042 C1034 1.574 . S
C1042 H1037 0.949 . S
C1042 C1048 1.368 . S
C1043 C1027 1.349 . S
C1043 H1035 0.950 . S
C1043 C1041 1.327 . S
C1044 C1032 1.349 . S
C1044 H1038 0.950 . S
C1044 C1045 1.327 . S
C1045 H1039 0.950 . S
C1045 C1044 1.327 . S
C1045 C1049 1.429 . S
C1046 C1029 1.574 . S
C1046 H1040 0.949 . S
C1046 C1050 1.368 . S
C1047 C1028 1.429 . S
C1047 C1041 1.429 . S
C1047 C1048 1.523 . S
C1048 C1029 1.368 . S
C1048 C1042 1.368 . S
C1048 C1047 1.523 . S
C1049 C1033 1.429 . S
C1049 C1045 1.429 . S
C1049 C1050 1.523 . S
C1050 C1034 1.368 . S
C1050 C1046 1.368 . S
C1050 C1049 1.523 . S
H1051 C1026 0.950 . S
H1052 C1028 0.950 . S
H1053 C1029 0.949 . S
H1054 C1031 0.950 . S
H1055 C1033 0.950 . S
C1056 C1057 1.349 . S
C1056 C1058 1.327 . S
C1056 H1081 0.950 . S
C1057 C1056 1.349 . S
C1057 C1073 1.349 . S
C1058 C1056 1.327 . S
C1058 C1077 1.429 . S
C1058 H1082 0.950 . S
C1059 C1076 1.574 . S
C1059 C1078 1.368 . S
C1059 H1083 0.949 . S
H1060 C1064 0.949 . S
C1061 C1062 1.349 . S
C1061 C1063 1.327 . S
C1061 H1084 0.950 . S
C1062 C1061 1.349 . S
C1062 C1074 1.349 . S
C1063 C1061 1.327 . S
C1063 C1079 1.429 . S
C1063 H1085 0.950 . S
C1064 H1060 0.949 . S
C1064 C1072 1.574 . S
C1064 C1080 1.368 . S
H1065 C1073 0.950 . S
H1066 C1071 0.950 . S
H1067 C1072 0.949 . S
H1068 C1074 0.950 . S
H1069 C1075 0.950 . S
H1070 C1076 0.949 . S
C1071 H1066 0.950 . S
C1071 C1073 1.327 . S
C1071 C1077 1.429 . S
C1072 C1064 1.574 . S
C1072 H1067 0.949 . S
C1072 C1078 1.368 . S
C1073 C1057 1.349 . S
C1073 H1065 0.950 . S
C1073 C1071 1.327 . S
C1074 C1062 1.349 . S
C1074 H1068 0.950 . S
C1074 C1075 1.327 . S
C1075 H1069 0.950 . S
C1075 C1074 1.327 . S
C1075 C1079 1.429 . S
C1076 C1059 1.574 . S
C1076 H1070 0.949 . S
C1076 C1080 1.368 . S
C1077 C1058 1.429 . S
C1077 C1071 1.429 . S
C1077 C1078 1.523 . S
C1078 C1059 1.368 . S
C1078 C1072 1.368 . S
C1078 C1077 1.523 . S
C1079 C1063 1.429 . S
C1079 C1075 1.429 . S
C1079 C1080 1.523 . S
C1080 C1064 1.368 . S
C1080 C1076 1.368 . S
C1080 C1079 1.523 . S
H1081 C1056 0.950 . S
H1082 C1058 0.950 . S
H1083 C1059 0.949 . S
H1084 C1061 0.950 . S
H1085 C1063 0.950 . S
C1086 C1087 1.349 . S
C1086 C1088 1.327 . S
C1086 H1111 0.950 . S
C1087 C1086 1.349 . S
C1087 C1103 1.349 . S
C1088 C1086 1.327 . S
C1088 C1107 1.429 . S
C1088 H1112 0.950 . S
C1089 C1106 1.574 . S
C1089 C1108 1.368 . S
C1089 H1113 0.949 . S
H1090 C1094 0.949 . S
C1091 C1092 1.349 . S
C1091 C1093 1.327 . S
C1091 H1114 0.950 . S
C1092 C1091 1.349 . S
C1092 C1104 1.349 . S
C1093 C1091 1.327 . S
C1093 C1109 1.429 . S
C1093 H1115 0.950 . S
C1094 H1090 0.949 . S
C1094 C1102 1.574 . S
C1094 C1110 1.368 . S
H1095 C1103 0.950 . S
H1096 C1101 0.950 . S
H1097 C1102 0.949 . S
H1098 C1104 0.950 . S
H1099 C1105 0.950 . S
H1100 C1106 0.949 . S
C1101 H1096 0.950 . S
C1101 C1103 1.327 . S
C1101 C1107 1.429 . S
C1102 C1094 1.574 . S
C1102 H1097 0.949 . S
C1102 C1108 1.368 . S
C1103 C1087 1.349 . S
C1103 H1095 0.950 . S
C1103 C1101 1.327 . S
C1104 C1092 1.349 . S
C1104 H1098 0.950 . S
C1104 C1105 1.327 . S
C1105 H1099 0.950 . S
C1105 C1104 1.327 . S
C1105 C1109 1.429 . S
C1106 C1089 1.574 . S
C1106 H1100 0.949 . S
C1106 C1110 1.368 . S
C1107 C1088 1.429 . S
C1107 C1101 1.429 . S
C1107 C1108 1.523 . S
C1108 C1089 1.368 . S
C1108 C1102 1.368 . S
C1108 C1107 1.523 . S
C1109 C1093 1.429 . S
C1109 C1105 1.429 . S
C1109 C1110 1.523 . S
C1110 C1094 1.368 . S
C1110 C1106 1.368 . S
C1110 C1109 1.523 . S
H1111 C1086 0.950 . S
H1112 C1088 0.950 . S
H1113 C1089 0.949 . S
H1114 C1091 0.950 . S
H1115 C1093 0.950 . S
C1116 C1117 1.349 . S
C1116 C1118 1.327 . S
C1116 H1141 0.950 . S
C1117 C1116 1.349 . S
C1117 C1133 1.349 . S
C1118 C1116 1.327 . S
C1118 C1137 1.429 . S
C1118 H1142 0.950 . S
C1119 C1136 1.574 . S
C1119 C1138 1.368 . S
C1119 H1143 0.949 . S
H1120 C1124 0.949 . S
C1121 C1122 1.349 . S
C1121 C1123 1.327 . S
C1121 H1144 0.950 . S
C1122 C1121 1.349 . S
C1122 C1134 1.349 . S
C1123 C1121 1.327 . S
C1123 C1139 1.429 . S
C1123 H1145 0.950 . S
C1124 H1120 0.949 . S
C1124 C1132 1.574 . S
C1124 C1140 1.368 . S
H1125 C1133 0.950 . S
H1126 C1131 0.950 . S
H1127 C1132 0.949 . S
H1128 C1134 0.950 . S
H1129 C1135 0.950 . S
H1130 C1136 0.949 . S
C1131 H1126 0.950 . S
C1131 C1133 1.327 . S
C1131 C1137 1.429 . S
C1132 C1124 1.574 . S
C1132 H1127 0.949 . S
C1132 C1138 1.368 . S
C1133 C1117 1.349 . S
C1133 H1125 0.950 . S
C1133 C1131 1.327 . S
C1134 C1122 1.349 . S
C1134 H1128 0.950 . S
C1134 C1135 1.327 . S
C1135 H1129 0.950 . S
C1135 C1134 1.327 . S
C1135 C1139 1.429 . S
C1136 C1119 1.574 . S
C1136 H1130 0.949 . S
C1136 C1140 1.368 . S
C1137 C1118 1.429 . S
C1137 C1131 1.429 . S
C1137 C1138 1.523 . S
C1138 C1119 1.368 . S
C1138 C1132 1.368 . S
C1138 C1137 1.523 . S
C1139 C1123 1.429 . S
C1139 C1135 1.429 . S
C1139 C1140 1.523 . S
C1140 C1124 1.368 . S
C1140 C1136 1.368 . S
C1140 C1139 1.523 . S
H1141 C1116 0.950 . S
H1142 C1118 0.950 . S
H1143 C1119 0.949 . S
H1144 C1121 0.950 . S
H1145 C1123 0.950 . S
C1146 C1147 1.349 . S
C1146 C1148 1.327 . S
C1146 H1171 0.950 . S
C1147 C1146 1.349 . S
C1147 C1163 1.349 . S
C1148 C1146 1.327 . S
C1148 C1167 1.429 . S
C1148 H1172 0.950 . S
C1149 C1166 1.574 . S
C1149 C1168 1.368 . S
C1149 H1173 0.949 . S
H1150 C1154 0.949 . S
C1151 C1152 1.349 . S
C1151 C1153 1.327 . S
C1151 H1174 0.950 . S
C1152 C1151 1.349 . S
C1152 C1164 1.349 . S
C1153 C1151 1.327 . S
C1153 C1169 1.429 . S
C1153 H1175 0.950 . S
C1154 H1150 0.949 . S
C1154 C1162 1.574 . S
C1154 C1170 1.368 . S
H1155 C1163 0.950 . S
H1156 C1161 0.950 . S
H1157 C1162 0.949 . S
H1158 C1164 0.950 . S
H1159 C1165 0.950 . S
H1160 C1166 0.949 . S
C1161 H1156 0.950 . S
C1161 C1163 1.327 . S
C1161 C1167 1.429 . S
C1162 C1154 1.574 . S
C1162 H1157 0.949 . S
C1162 C1168 1.368 . S
C1163 C1147 1.349 . S
C1163 H1155 0.950 . S
C1163 C1161 1.327 . S
C1164 C1152 1.349 . S
C1164 H1158 0.950 . S
C1164 C1165 1.327 . S
C1165 H1159 0.950 . S
C1165 C1164 1.327 . S
C1165 C1169 1.429 . S
C1166 C1149 1.574 . S
C1166 H1160 0.949 . S
C1166 C1170 1.368 . S
C1167 C1148 1.429 . S
C1167 C1161 1.429 . S
C1167 C1168 1.523 . S
C1168 C1149 1.368 . S
C1168 C1162 1.368 . S
C1168 C1167 1.523 . S
C1169 C1153 1.429 . S
C1169 C1165 1.429 . S
C1169 C1170 1.523 . S
C1170 C1154 1.368 . S
C1170 C1166 1.368 . S
C1170 C1169 1.523 . S
H1171 C1146 0.950 . S
H1172 C1148 0.950 . S
H1173 C1149 0.949 . S
H1174 C1151 0.950 . S
H1175 C1153 0.950 . S
C1176 C1177 1.349 . S
C1176 C1178 1.327 . S
C1176 H1201 0.950 . S
C1177 C1176 1.349 . S
C1177 C1193 1.349 . S
C1178 C1176 1.327 . S
C1178 C1197 1.429 . S
C1178 H1202 0.950 . S
C1179 C1196 1.574 . S
C1179 C1198 1.368 . S
C1179 H1203 0.949 . S
H1180 C1184 0.949 . S
C1181 C1182 1.349 . S
C1181 C1183 1.327 . S
C1181 H1204 0.950 . S
C1182 C1181 1.349 . S
C1182 C1194 1.349 . S
C1183 C1181 1.327 . S
C1183 C1199 1.429 . S
C1183 H1205 0.950 . S
C1184 H1180 0.949 . S
C1184 C1192 1.574 . S
C1184 C1200 1.368 . S
H1185 C1193 0.950 . S
H1186 C1191 0.950 . S
H1187 C1192 0.949 . S
H1188 C1194 0.950 . S
H1189 C1195 0.950 . S
H1190 C1196 0.949 . S
C1191 H1186 0.950 . S
C1191 C1193 1.327 . S
C1191 C1197 1.429 . S
C1192 C1184 1.574 . S
C1192 H1187 0.949 . S
C1192 C1198 1.368 . S
C1193 C1177 1.349 . S
C1193 H1185 0.950 . S
C1193 C1191 1.327 . S
C1194 C1182 1.349 . S
C1194 H1188 0.950 . S
C1194 C1195 1.327 . S
C1195 H1189 0.950 . S
C1195 C1194 1.327 . S
C1195 C1199 1.429 . S
C1196 C1179 1.574 . S
C1196 H1190 0.949 . S
C1196 C1200 1.368 . S
C1197 C1178 1.429 . S
C1197 C1191 1.429 . S
C1197 C1198 1.523 . S
C1198 C1179 1.368 . S
C1198 C1192 1.368 . S
C1198 C1197 1.523 . S
C1199 C1183 1.429 . S
C1199 C1195 1.429 . S
C1199 C1200 1.523 . S
C1200 C1184 1.368 . S
C1200 C1196 1.368 . S
C1200 C1199 1.523 . S
H1201 C1176 0.950 . S
H1202 C1178 0.950 . S
H1203 C1179 0.949 . S
H1204 C1181 0.950 . S
H1205 C1183 0.950 . S
C1206 C1207 1.349 . S
C1206 C1208 1.327 . S
C1206 H1231 0.950 . S
C1207 C1206 1.349 . S
C1207 C1223 1.349 . S
C1208 C1206 1.327 . S
C1208 C1227 1.429 . S
C1208 H1232 0.950 . S
C1209 C1226 1.574 . S
C1209 C1228 1.368 . S
C1209 H1233 0.949 . S
H1210 C1214 0.949 . S
C1211 C1212 1.349 . S
C1211 C1213 1.327 . S
C1211 H1234 0.950 . S
C1212 C1211 1.349 . S
C1212 C1224 1.349 . S
C1213 C1211 1.327 . S
C1213 C1229 1.429 . S
C1213 H1235 0.950 . S
C1214 H1210 0.949 . S
C1214 C1222 1.574 . S
C1214 C1230 1.368 . S
H1215 C1223 0.950 . S
H1216 C1221 0.950 . S
H1217 C1222 0.949 . S
H1218 C1224 0.950 . S
H1219 C1225 0.950 . S
H1220 C1226 0.949 . S
C1221 H1216 0.950 . S
C1221 C1223 1.327 . S
C1221 C1227 1.429 . S
C1222 C1214 1.574 . S
C1222 H1217 0.949 . S
C1222 C1228 1.368 . S
C1223 C1207 1.349 . S
C1223 H1215 0.950 . S
C1223 C1221 1.327 . S
C1224 C1212 1.349 . S
C1224 H1218 0.950 . S
C1224 C1225 1.327 . S
C1225 H1219 0.950 . S
C1225 C1224 1.327 . S
C1225 C1229 1.429 . S
C1226 C1209 1.574 . S
C1226 H1220 0.949 . S
C1226 C1230 1.368 . S
C1227 C1208 1.429 . S
C1227 C1221 1.429 . S
C1227 C1228 1.523 . S
C1228 C1209 1.368 . S
C1228 C1222 1.368 . S
C1228 C1227 1.523 . S
C1229 C1213 1.429 . S
C1229 C1225 1.429 . S
C1229 C1230 1.523 . S
C1230 C1214 1.368 . S
C1230 C1226 1.368 . S
C1230 C1229 1.523 . S
H1231 C1206 0.950 . S
H1232 C1208 0.950 . S
H1233 C1209 0.949 . S
H1234 C1211 0.950 . S
H1235 C1213 0.950 . S
C1236 C1237 1.349 . S
C1236 C1238 1.327 . S
C1236 H1261 0.950 . S
C1237 C1236 1.349 . S
C1237 C1253 1.349 . S
C1238 C1236 1.327 . S
C1238 C1257 1.429 . S
C1238 H1262 0.950 . S
C1239 C1256 1.574 . S
C1239 C1258 1.368 . S
C1239 H1263 0.949 . S
H1240 C1244 0.949 . S
C1241 C1242 1.349 . S
C1241 C1243 1.327 . S
C1241 H1264 0.950 . S
C1242 C1241 1.349 . S
C1242 C1254 1.349 . S
C1243 C1241 1.327 . S
C1243 C1259 1.429 . S
C1243 H1265 0.950 . S
C1244 H1240 0.949 . S
C1244 C1252 1.574 . S
C1244 C1260 1.368 . S
H1245 C1253 0.950 . S
H1246 C1251 0.950 . S
H1247 C1252 0.949 . S
H1248 C1254 0.950 . S
H1249 C1255 0.950 . S
H1250 C1256 0.949 . S
C1251 H1246 0.950 . S
C1251 C1253 1.327 . S
C1251 C1257 1.429 . S
C1252 C1244 1.574 . S
C1252 H1247 0.949 . S
C1252 C1258 1.368 . S
C1253 C1237 1.349 . S
C1253 H1245 0.950 . S
C1253 C1251 1.327 . S
C1254 C1242 1.349 . S
C1254 H1248 0.950 . S
C1254 C1255 1.327 . S
C1255 H1249 0.950 . S
C1255 C1254 1.327 . S
C1255 C1259 1.429 . S
C1256 C1239 1.574 . S
C1256 H1250 0.949 . S
C1256 C1260 1.368 . S
C1257 C1238 1.429 . S
C1257 C1251 1.429 . S
C1257 C1258 1.523 . S
C1258 C1239 1.368 . S
C1258 C1252 1.368 . S
C1258 C1257 1.523 . S
C1259 C1243 1.429 . S
C1259 C1255 1.429 . S
C1259 C1260 1.523 . S
C1260 C1244 1.368 . S
C1260 C1256 1.368 . S
C1260 C1259 1.523 . S
H1261 C1236 0.950 . S
H1262 C1238 0.950 . S
H1263 C1239 0.949 . S
H1264 C1241 0.950 . S
H1265 C1243 0.950 . S
C1266 C1267 1.349 . S
C1266 C1268 1.327 . S
C1266 H1291 0.950 . S
C1267 C1266 1.349 . S
C1267 C1283 1.349 . S
C1268 C1266 1.327 . S
C1268 C1287 1.429 . S
C1268 H1292 0.950 . S
C1269 C1286 1.574 . S
C1269 C1288 1.368 . S
C1269 H1293 0.949 . S
H1270 C1274 0.949 . S
C1271 C1272 1.349 . S
C1271 C1273 1.327 . S
C1271 H1294 0.950 . S
C1272 C1271 1.349 . S
C1272 C1284 1.349 . S
C1273 C1271 1.327 . S
C1273 C1289 1.429 . S
C1273 H1295 0.950 . S
C1274 H1270 0.949 . S
C1274 C1282 1.574 . S
C1274 C1290 1.368 . S
H1275 C1283 0.950 . S
H1276 C1281 0.950 . S
H1277 C1282 0.949 . S
H1278 C1284 0.950 . S
H1279 C1285 0.950 . S
H1280 C1286 0.949 . S
C1281 H1276 0.950 . S
C1281 C1283 1.327 . S
C1281 C1287 1.429 . S
C1282 C1274 1.574 . S
C1282 H1277 0.949 . S
C1282 C1288 1.368 . S
C1283 C1267 1.349 . S
C1283 H1275 0.950 . S
C1283 C1281 1.327 . S
C1284 C1272 1.349 . S
C1284 H1278 0.950 . S
C1284 C1285 1.327 . S
C1285 H1279 0.950 . S
C1285 C1284 1.327 . S
C1285 C1289 1.429 . S
C1286 C1269 1.574 . S
C1286 H1280 0.949 . S
C1286 C1290 1.368 . S
C1287 C1268 1.429 . S
C1287 C1281 1.429 . S
C1287 C1288 1.523 . S
C1288 C1269 1.368 . S
C1288 C1282 1.368 . S
C1288 C1287 1.523 . S
C1289 C1273 1.429 . S
C1289 C1285 1.429 . S
C1289 C1290 1.523 . S
C1290 C1274 1.368 . S
C1290 C1286 1.368 . S
C1290 C1289 1.523 . S
H1291 C1266 0.950 . S
H1292 C1268 0.950 . S
H1293 C1269 0.949 . S
H1294 C1271 0.950 . S
H1295 C1273 0.950 . S
C1296 C1297 1.349 . S
C1296 C1298 1.327 . S
C1296 H1321 0.950 . S
C1297 C1296 1.349 . S
C1297 C1313 1.349 . S
C1298 C1296 1.327 . S
C1298 C1317 1.429 . S
C1298 H1322 0.950 . S
C1299 C1316 1.574 . S
C1299 C1318 1.368 . S
C1299 H1323 0.949 . S
H1300 C1304 0.949 . S
C1301 C1302 1.349 . S
C1301 C1303 1.327 . S
C1301 H1324 0.950 . S
C1302 C1301 1.349 . S
C1302 C1314 1.349 . S
C1303 C1301 1.327 . S
C1303 C1319 1.429 . S
C1303 H1325 0.950 . S
C1304 H1300 0.949 . S
C1304 C1312 1.574 . S
C1304 C1320 1.368 . S
H1305 C1313 0.950 . S
H1306 C1311 0.950 . S
H1307 C1312 0.949 . S
H1308 C1314 0.950 . S
H1309 C1315 0.950 . S
H1310 C1316 0.949 . S
C1311 H1306 0.950 . S
C1311 C1313 1.327 . S
C1311 C1317 1.429 . S
C1312 C1304 1.574 . S
C1312 H1307 0.949 . S
C1312 C1318 1.368 . S
C1313 C1297 1.349 . S
C1313 H1305 0.950 . S
C1313 C1311 1.327 . S
C1314 C1302 1.349 . S
C1314 H1308 0.950 . S
C1314 C1315 1.327 . S
C1315 H1309 0.950 . S
C1315 C1314 1.327 . S
C1315 C1319 1.429 . S
C1316 C1299 1.574 . S
C1316 H1310 0.949 . S
C1316 C1320 1.368 . S
C1317 C1298 1.429 . S
C1317 C1311 1.429 . S
C1317 C1318 1.523 . S
C1318 C1299 1.368 . S
C1318 C1312 1.368 . S
C1318 C1317 1.523 . S
C1319 C1303 1.429 . S
C1319 C1315 1.429 . S
C1319 C1320 1.523 . S
C1320 C1304 1.368 . S
C1320 C1316 1.368 . S
C1320 C1319 1.523 . S
H1321 C1296 0.950 . S
H1322 C1298 0.950 . S
H1323 C1299 0.949 . S
H1324 C1301 0.950 . S
H1325 C1303 0.950 . S
C1326 C1327 1.349 . S
C1326 C1328 1.327 . S
C1326 H1351 0.950 . S
C1327 C1326 1.349 . S
C1327 C1343 1.349 . S
C1328 C1326 1.327 . S
C1328 C1347 1.429 . S
C1328 H1352 0.950 . S
C1329 C1346 1.574 . S
C1329 C1348 1.368 . S
C1329 H1353 0.949 . S
H1330 C1334 0.949 . S
C1331 C1332 1.349 . S
C1331 C1333 1.327 . S
C1331 H1354 0.950 . S
C1332 C1331 1.349 . S
C1332 C1344 1.349 . S
C1333 C1331 1.327 . S
C1333 C1349 1.429 . S
C1333 H1355 0.950 . S
C1334 H1330 0.949 . S
C1334 C1342 1.574 . S
C1334 C1350 1.368 . S
H1335 C1343 0.950 . S
H1336 C1341 0.950 . S
H1337 C1342 0.949 . S
H1338 C1344 0.950 . S
H1339 C1345 0.950 . S
H1340 C1346 0.949 . S
C1341 H1336 0.950 . S
C1341 C1343 1.327 . S
C1341 C1347 1.429 . S
C1342 C1334 1.574 . S
C1342 H1337 0.949 . S
C1342 C1348 1.368 . S
C1343 C1327 1.349 . S
C1343 H1335 0.950 . S
C1343 C1341 1.327 . S
C1344 C1332 1.349 . S
C1344 H1338 0.950 . S
C1344 C1345 1.327 . S
C1345 H1339 0.950 . S
C1345 C1344 1.327 . S
C1345 C1349 1.429 . S
C1346 C1329 1.574 . S
C1346 H1340 0.949 . S
C1346 C1350 1.368 . S
C1347 C1328 1.429 . S
C1347 C1341 1.429 . S
C1347 C1348 1.523 . S
C1348 C1329 1.368 . S
C1348 C1342 1.368 . S
C1348 C1347 1.523 . S
C1349 C1333 1.429 . S
C1349 C1345 1.429 . S
C1349 C1350 1.523 . S
C1350 C1334 1.368 . S
C1350 C1346 1.368 . S
C1350 C1349 1.523 . S
H1351 C1326 0.950 . S
H1352 C1328 0.950 . S
H1353 C1329 0.949 . S
H1354 C1331 0.950 . S
H1355 C1333 0.950 . S
C1356 C1357 1.349 . S
C1356 C1358 1.327 . S
C1356 H1381 0.950 . S
C1357 C1356 1.349 . S
C1357 C1373 1.349 . S
C1358 C1356 1.327 . S
C1358 C1377 1.429 . S
C1358 H1382 0.950 . S
C1359 C1376 1.574 . S
C1359 C1378 1.368 . S
C1359 H1383 0.949 . S
H1360 C1364 0.949 . S
C1361 C1362 1.349 . S
C1361 C1363 1.327 . S
C1361 H1384 0.950 . S
C1362 C1361 1.349 . S
C1362 C1374 1.349 . S
C1363 C1361 1.327 . S
C1363 C1379 1.429 . S
C1363 H1385 0.950 . S
C1364 H1360 0.949 . S
C1364 C1372 1.574 . S
C1364 C1380 1.368 . S
H1365 C1373 0.950 . S
H1366 C1371 0.950 . S
H1367 C1372 0.949 . S
H1368 C1374 0.950 . S
H1369 C1375 0.950 . S
H1370 C1376 0.949 . S
C1371 H1366 0.950 . S
C1371 C1373 1.327 . S
C1371 C1377 1.429 . S
C1372 C1364 1.574 . S
C1372 H1367 0.949 . S
C1372 C1378 1.368 . S
C1373 C1357 1.349 . S
C1373 H1365 0.950 . S
C1373 C1371 1.327 . S
C1374 C1362 1.349 . S
C1374 H1368 0.950 . S
C1374 C1375 1.327 . S
C1375 H1369 0.950 . S
C1375 C1374 1.327 . S
C1375 C1379 1.429 . S
C1376 C1359 1.574 . S
C1376 H1370 0.949 . S
C1376 C1380 1.368 . S
C1377 C1358 1.429 . S
C1377 C1371 1.429 . S
C1377 C1378 1.523 . S
C1378 C1359 1.368 . S
C1378 C1372 1.368 . S
C1378 C1377 1.523 . S
C1379 C1363 1.429 . S
C1379 C1375 1.429 . S
C1379 C1380 1.523 . S
C1380 C1364 1.368 . S
C1380 C1376 1.368 . S
C1380 C1379 1.523 . S
H1381 C1356 0.950 . S
H1382 C1358 0.950 . S
H1383 C1359 0.949 . S
H1384 C1361 0.950 . S
H1385 C1363 0.950 . S
C1386 C1387 1.349 . S
C1386 C1388 1.327 . S
C1386 H1411 0.950 . S
C1387 C1386 1.349 . S
C1387 C1403 1.349 . S
C1388 C1386 1.327 . S
C1388 C1407 1.429 . S
C1388 H1412 0.950 . S
C1389 C1406 1.574 . S
C1389 C1408 1.368 . S
C1389 H1413 0.949 . S
H1390 C1394 0.949 . S
C1391 C1392 1.349 . S
C1391 C1393 1.327 . S
C1391 H1414 0.950 . S
C1392 C1391 1.349 . S
C1392 C1404 1.349 . S
C1393 C1391 1.327 . S
C1393 C1409 1.429 . S
C1393 H1415 0.950 . S
C1394 H1390 0.949 . S
C1394 C1402 1.574 . S
C1394 C1410 1.368 . S
H1395 C1403 0.950 . S
H1396 C1401 0.950 . S
H1397 C1402 0.949 . S
H1398 C1404 0.950 . S
H1399 C1405 0.950 . S
H1400 C1406 0.949 . S
C1401 H1396 0.950 . S
C1401 C1403 1.327 . S
C1401 C1407 1.429 . S
C1402 C1394 1.574 . S
C1402 H1397 0.949 . S
C1402 C1408 1.368 . S
C1403 C1387 1.349 . S
C1403 H1395 0.950 . S
C1403 C1401 1.327 . S
C1404 C1392 1.349 . S
C1404 H1398 0.950 . S
C1404 C1405 1.327 . S
C1405 H1399 0.950 . S
C1405 C1404 1.327 . S
C1405 C1409 1.429 . S
C1406 C1389 1.574 . S
C1406 H1400 0.949 . S
C1406 C1410 1.368 . S
C1407 C1388 1.429 . S
C1407 C1401 1.429 . S
C1407 C1408 1.523 . S
C1408 C1389 1.368 . S
C1408 C1402 1.368 . S
C1408 C1407 1.523 . S
C1409 C1393 1.429 . S
C1409 C1405 1.429 . S
C1409 C1410 1.523 . S
C1410 C1394 1.368 . S
C1410 C1406 1.368 . S
C1410 C1409 1.523 . S
H1411 C1386 0.950 . S
H1412 C1388 0.950 . S
H1413 C1389 0.949 . S
H1414 C1391 0.950 . S
H1415 C1393 0.950 . S
C1416 C1417 1.349 . S
C1416 C1418 1.327 . S
C1416 H1441 0.950 . S
C1417 C1416 1.349 . S
C1417 C1433 1.349 . S
C1418 C1416 1.327 . S
C1418 C1437 1.429 . S
C1418 H1442 0.950 . S
C1419 C1436 1.574 . S
C1419 C1438 1.368 . S
C1419 H1443 0.949 . S
H1420 C1424 0.949 . S
C1421 C1422 1.349 . S
C1421 C1423 1.327 . S
C1421 H1444 0.950 . S
C1422 C1421 1.349 . S
C1422 C1434 1.349 . S
C1423 C1421 1.327 . S
C1423 C1439 1.429 . S
C1423 H1445 0.950 . S
C1424 H1420 0.949 . S
C1424 C1432 1.574 . S
C1424 C1440 1.368 . S
H1425 C1433 0.950 . S
H1426 C1431 0.950 . S
H1427 C1432 0.949 . S
H1428 C1434 0.950 . S
H1429 C1435 0.950 . S
H1430 C1436 0.949 . S
C1431 H1426 0.950 . S
C1431 C1433 1.327 . S
C1431 C1437 1.429 . S
C1432 C1424 1.574 . S
C1432 H1427 0.949 . S
C1432 C1438 1.368 . S
C1433 C1417 1.349 . S
C1433 H1425 0.950 . S
C1433 C1431 1.327 . S
C1434 C1422 1.349 . S
C1434 H1428 0.950 . S
C1434 C1435 1.327 . S
C1435 H1429 0.950 . S
C1435 C1434 1.327 . S
C1435 C1439 1.429 . S
C1436 C1419 1.574 . S
C1436 H1430 0.949 . S
C1436 C1440 1.368 . S
C1437 C1418 1.429 . S
C1437 C1431 1.429 . S
C1437 C1438 1.523 . S
C1438 C1419 1.368 . S
C1438 C1432 1.368 . S
C1438 C1437 1.523 . S
C1439 C1423 1.429 . S
C1439 C1435 1.429 . S
C1439 C1440 1.523 . S
C1440 C1424 1.368 . S
C1440 C1436 1.368 . S
C1440 C1439 1.523 . S
H1441 C1416 0.950 . S
H1442 C1418 0.950 . S
H1443 C1419 0.949 . S
H1444 C1421 0.950 . S
H1445 C1423 0.950 . S
C1446 C1447 1.349 . S
C1446 C1448 1.327 . S
C1446 H1471 0.950 . S
C1447 C1446 1.349 . S
C1447 C1463 1.349 . S
C1448 C1446 1.327 . S
C1448 C1467 1.429 . S
C1448 H1472 0.950 . S
C1449 C1466 1.574 . S
C1449 C1468 1.368 . S
C1449 H1473 0.949 . S
H1450 C1454 0.949 . S
C1451 C1452 1.349 . S
C1451 C1453 1.327 . S
C1451 H1474 0.950 . S
C1452 C1451 1.349 . S
C1452 C1464 1.349 . S
C1453 C1451 1.327 . S
C1453 C1469 1.429 . S
C1453 H1475 0.950 . S
C1454 H1450 0.949 . S
C1454 C1462 1.574 . S
C1454 C1470 1.368 . S
H1455 C1463 0.950 . S
H1456 C1461 0.950 . S
H1457 C1462 0.949 . S
H1458 C1464 0.950 . S
H1459 C1465 0.950 . S
H1460 C1466 0.949 . S
C1461 H1456 0.950 . S
C1461 C1463 1.327 . S
C1461 C1467 1.429 . S
C1462 C1454 1.574 . S
C1462 H1457 0.949 . S
C1462 C1468 1.368 . S
C1463 C1447 1.349 . S
C1463 H1455 0.950 . S
C1463 C1461 1.327 . S
C1464 C1452 1.349 . S
C1464 H1458 0.950 . S
C1464 C1465 1.327 . S
C1465 H1459 0.950 . S
C1465 C1464 1.327 . S
C1465 C1469 1.429 . S
C1466 C1449 1.574 . S
C1466 H1460 0.949 . S
C1466 C1470 1.368 . S
C1467 C1448 1.429 . S
C1467 C1461 1.429 . S
C1467 C1468 1.523 . S
C1468 C1449 1.368 . S
C1468 C1462 1.368 . S
C1468 C1467 1.523 . S
C1469 C1453 1.429 . S
C1469 C1465 1.429 . S
C1469 C1470 1.523 . S
C1470 C1454 1.368 . S
C1470 C1466 1.368 . S
C1470 C1469 1.523 . S
H1471 C1446 0.950 . S
H1472 C1448 0.950 . S
H1473 C1449 0.949 . S
H1474 C1451 0.950 . S
H1475 C1453 0.950 . S
C1476 C1477 1.349 . S
C1476 C1478 1.327 . S
C1476 H1501 0.950 . S
C1477 C1476 1.349 . S
C1477 C1493 1.349 . S
C1478 C1476 1.327 . S
C1478 C1497 1.429 . S
C1478 H1502 0.950 . S
C1479 C1496 1.574 . S
C1479 C1498 1.368 . S
C1479 H1503 0.949 . S
H1480 C1484 0.949 . S
C1481 C1482 1.349 . S
C1481 C1483 1.327 . S
C1481 H1504 0.913 1_554 S
C1482 C1481 1.349 . S
C1482 C1494 1.349 . S
C1483 C1481 1.327 . S
C1483 C1499 1.429 . S
C1483 H1505 0.950 . S
C1484 H1480 0.949 . S
C1484 C1492 1.574 . S
C1484 C1500 1.368 . S
H1485 C1493 0.950 . S
H1486 C1491 0.950 . S
H1487 C1492 0.949 . S
H1488 C1494 0.950 . S
H1489 C1495 0.950 . S
H1490 C1496 0.949 . S
C1491 H1486 0.950 . S
C1491 C1493 1.327 . S
C1491 C1497 1.429 . S
C1492 C1484 1.574 . S
C1492 H1487 0.949 . S
C1492 C1498 1.368 . S
C1493 C1477 1.349 . S
C1493 H1485 0.950 . S
C1493 C1491 1.327 . S
C1494 C1482 1.349 . S
C1494 H1488 0.950 . S
C1494 C1495 1.327 . S
C1495 H1489 0.950 . S
C1495 C1494 1.327 . S
C1495 C1499 1.429 . S
C1496 C1479 1.574 . S
C1496 H1490 0.949 . S
C1496 C1500 1.368 . S
C1497 C1478 1.429 . S
C1497 C1491 1.429 . S
C1497 C1498 1.523 . S
C1498 C1479 1.368 . S
C1498 C1492 1.368 . S
C1498 C1497 1.523 . S
C1499 C1483 1.429 . S
C1499 C1495 1.429 . S
C1499 C1500 1.523 . S
C1500 C1484 1.368 . S
C1500 C1496 1.368 . S
C1500 C1499 1.523 . S
H1501 C1476 0.950 . S
H1502 C1478 0.950 . S
H1503 C1479 0.949 . S
H1504 C1481 0.913 1_556 S
H1505 C1483 0.950 . S
C1506 C1507 1.349 . S
C1506 C1508 1.327 . S
C1506 H1531 0.950 . S
C1507 C1506 1.349 . S
C1507 C1523 1.349 . S
C1508 C1506 1.327 . S
C1508 C1527 1.429 . S
C1508 H1532 0.950 . S
C1509 C1526 1.574 . S
C1509 C1528 1.368 . S
C1509 H1533 0.949 . S
H1510 C1514 0.949 . S
C1511 C1512 1.349 . S
C1511 C1513 1.327 . S
C1511 H1534 0.950 . S
C1512 C1511 1.349 . S
C1512 C1524 1.349 . S
C1513 C1511 1.327 . S
C1513 C1529 1.429 . S
C1513 H1535 0.950 . S
C1514 H1510 0.949 . S
C1514 C1522 1.574 . S
C1514 C1530 1.368 . S
H1515 C1523 0.950 . S
H1516 C1521 0.950 . S
H1517 C1522 0.949 . S
H1518 C1524 0.950 . S
H1519 C1525 0.950 . S
H1520 C1526 0.949 . S
C1521 H1516 0.950 . S
C1521 C1523 1.327 . S
C1521 C1527 1.429 . S
C1522 C1514 1.574 . S
C1522 H1517 0.949 . S
C1522 C1528 1.368 . S
C1523 C1507 1.349 . S
C1523 H1515 0.950 . S
C1523 C1521 1.327 . S
C1524 C1512 1.349 . S
C1524 H1518 0.950 . S
C1524 C1525 1.327 . S
C1525 H1519 0.950 . S
C1525 C1524 1.327 . S
C1525 C1529 1.429 . S
C1526 C1509 1.574 . S
C1526 H1520 0.949 . S
C1526 C1530 1.368 . S
C1527 C1508 1.429 . S
C1527 C1521 1.429 . S
C1527 C1528 1.523 . S
C1528 C1509 1.368 . S
C1528 C1522 1.368 . S
C1528 C1527 1.523 . S
C1529 C1513 1.429 . S
C1529 C1525 1.429 . S
C1529 C1530 1.523 . S
C1530 C1514 1.368 . S
C1530 C1526 1.368 . S
C1530 C1529 1.523 . S
H1531 C1506 0.950 . S
H1532 C1508 0.950 . S
H1533 C1509 0.949 . S
H1534 C1511 0.950 . S
H1535 C1513 0.950 . S
C1536 C1537 1.349 . S
C1536 C1538 1.327 . S
C1536 H1561 0.950 . S
C1537 C1536 1.349 . S
C1537 C1553 1.349 . S
C1538 C1536 1.327 . S
C1538 C1557 1.429 . S
C1538 H1562 0.950 . S
C1539 C1556 1.574 . S
C1539 C1558 1.368 . S
C1539 H1563 0.949 . S
H1540 C1544 0.949 . S
C1541 C1542 1.349 . S
C1541 C1543 1.327 . S
C1541 H1564 0.950 . S
C1542 C1541 1.349 . S
C1542 C1554 1.349 . S
C1543 C1541 1.327 . S
C1543 C1559 1.429 . S
C1543 H1565 0.950 . S
C1544 H1540 0.949 . S
C1544 C1552 1.574 . S
C1544 C1560 1.368 . S
H1545 C1553 0.950 . S
H1546 C1551 0.950 . S
H1547 C1552 0.949 . S
H1548 C1554 0.950 . S
H1549 C1555 0.950 . S
H1550 C1556 0.949 . S
C1551 H1546 0.950 . S
C1551 C1553 1.327 . S
C1551 C1557 1.429 . S
C1552 C1544 1.574 . S
C1552 H1547 0.949 . S
C1552 C1558 1.368 . S
C1553 C1537 1.349 . S
C1553 H1545 0.950 . S
C1553 C1551 1.327 . S
C1554 C1542 1.349 . S
C1554 H1548 0.950 . S
C1554 C1555 1.327 . S
C1555 H1549 0.950 . S
C1555 C1554 1.327 . S
C1555 C1559 1.429 . S
C1556 C1539 1.574 . S
C1556 H1550 0.949 . S
C1556 C1560 1.368 . S
C1557 C1538 1.429 . S
C1557 C1551 1.429 . S
C1557 C1558 1.523 . S
C1558 C1539 1.368 . S
C1558 C1552 1.368 . S
C1558 C1557 1.523 . S
C1559 C1543 1.429 . S
C1559 C1555 1.429 . S
C1559 C1560 1.523 . S
C1560 C1544 1.368 . S
C1560 C1556 1.368 . S
C1560 C1559 1.523 . S
H1561 C1536 0.950 . S
H1562 C1538 0.950 . S
H1563 C1539 0.949 . S
H1564 C1541 0.950 . S
H1565 C1543 0.950 . S
C1566 C1567 1.349 . S
C1566 C1568 1.327 . S
C1566 H1591 0.950 . S
C1567 C1566 1.349 . S
C1567 C1583 1.349 . S
C1568 C1566 1.327 . S
C1568 C1587 1.429 . S
C1568 H1592 0.950 . S
C1569 C1586 1.574 . S
C1569 C1588 1.368 . S
C1569 H1593 0.949 . S
H1570 C1574 0.949 . S
C1571 C1572 1.349 . S
C1571 C1573 1.327 . S
C1571 H1594 0.950 . S
C1572 C1571 1.349 . S
C1572 C1584 1.349 . S
C1573 C1571 1.327 . S
C1573 C1589 1.429 . S
C1573 H1595 0.950 . S
C1574 H1570 0.949 . S
C1574 C1582 1.574 . S
C1574 C1590 1.368 . S
H1575 C1583 0.950 . S
H1576 C1581 0.950 . S
H1577 C1582 0.949 . S
H1578 C1584 0.950 . S
H1579 C1585 0.950 . S
H1580 C1586 0.949 . S
C1581 H1576 0.950 . S
C1581 C1583 1.327 . S
C1581 C1587 1.429 . S
C1582 C1574 1.574 . S
C1582 H1577 0.949 . S
C1582 C1588 1.368 . S
C1583 C1567 1.349 . S
C1583 H1575 0.950 . S
C1583 C1581 1.327 . S
C1584 C1572 1.349 . S
C1584 H1578 0.950 . S
C1584 C1585 1.327 . S
C1585 H1579 0.950 . S
C1585 C1584 1.327 . S
C1585 C1589 1.429 . S
C1586 C1569 1.574 . S
C1586 H1580 0.949 . S
C1586 C1590 1.368 . S
C1587 C1568 1.429 . S
C1587 C1581 1.429 . S
C1587 C1588 1.523 . S
C1588 C1569 1.368 . S
C1588 C1582 1.368 . S
C1588 C1587 1.523 . S
C1589 C1573 1.429 . S
C1589 C1585 1.429 . S
C1589 C1590 1.523 . S
C1590 C1574 1.368 . S
C1590 C1586 1.368 . S
C1590 C1589 1.523 . S
H1591 C1566 0.950 . S
H1592 C1568 0.950 . S
H1593 C1569 0.949 . S
H1594 C1571 0.950 . S
H1595 C1573 0.950 . S
C1596 C1597 1.349 . S
C1596 C1598 1.327 . S
C1596 H1621 0.950 . S
C1597 C1596 1.349 . S
C1597 C1613 1.349 . S
C1598 C1596 1.327 . S
C1598 C1617 1.429 . S
C1598 H1622 0.950 . S
C1599 C1616 1.574 . S
C1599 C1618 1.368 . S
C1599 H1623 0.949 . S
H1600 C1604 0.949 . S
C1601 C1602 1.349 . S
C1601 C1603 1.327 . S
C1601 H1624 0.950 . S
C1602 C1601 1.349 . S
C1602 C1614 1.349 . S
C1603 C1601 1.327 . S
C1603 C1619 1.429 . S
C1603 H1625 0.950 . S
C1604 H1600 0.949 . S
C1604 C1612 1.574 . S
C1604 C1620 1.368 . S
H1605 C1613 0.950 . S
H1606 C1611 0.950 . S
H1607 C1612 0.949 . S
H1608 C1614 0.950 . S
H1609 C1615 0.950 . S
H1610 C1616 0.949 . S
C1611 H1606 0.950 . S
C1611 C1613 1.327 . S
C1611 C1617 1.429 . S
C1612 C1604 1.574 . S
C1612 H1607 0.949 . S
C1612 C1618 1.368 . S
C1613 C1597 1.349 . S
C1613 H1605 0.950 . S
C1613 C1611 1.327 . S
C1614 C1602 1.349 . S
C1614 H1608 0.950 . S
C1614 C1615 1.327 . S
C1615 H1609 0.950 . S
C1615 C1614 1.327 . S
C1615 C1619 1.429 . S
C1616 C1599 1.574 . S
C1616 H1610 0.949 . S
C1616 C1620 1.368 . S
C1617 C1598 1.429 . S
C1617 C1611 1.429 . S
C1617 C1618 1.523 . S
C1618 C1599 1.368 . S
C1618 C1612 1.368 . S
C1618 C1617 1.523 . S
C1619 C1603 1.429 . S
C1619 C1615 1.429 . S
C1619 C1620 1.523 . S
C1620 C1604 1.368 . S
C1620 C1616 1.368 . S
C1620 C1619 1.523 . S
H1621 C1596 0.950 . S
H1622 C1598 0.950 . S
H1623 C1599 0.949 . S
H1624 C1601 0.950 . S
H1625 C1603 0.950 . S
C1626 C1627 1.349 . S
C1626 C1628 1.327 . S
C1626 H1651 0.950 . S
C1627 C1626 1.349 . S
C1627 C1643 1.349 . S
C1628 C1626 1.327 . S
C1628 C1647 1.429 . S
C1628 H1652 0.950 . S
C1629 C1646 1.574 . S
C1629 C1648 1.368 . S
C1629 H1653 0.949 . S
H1630 C1634 0.949 . S
C1631 C1632 1.349 . S
C1631 C1633 1.327 . S
C1631 H1654 0.950 . S
C1632 C1631 1.349 . S
C1632 C1644 1.349 . S
C1633 C1631 1.327 . S
C1633 C1649 1.429 . S
C1633 H1655 0.950 . S
C1634 H1630 0.949 . S
C1634 C1642 1.574 . S
C1634 C1650 1.368 . S
H1635 C1643 0.950 . S
H1636 C1641 0.950 . S
H1637 C1642 0.949 . S
H1638 C1644 0.950 . S
H1639 C1645 0.950 . S
H1640 C1646 0.949 . S
C1641 H1636 0.950 . S
C1641 C1643 1.327 . S
C1641 C1647 1.429 . S
C1642 C1634 1.574 . S
C1642 H1637 0.949 . S
C1642 C1648 1.368 . S
C1643 C1627 1.349 . S
C1643 H1635 0.950 . S
C1643 C1641 1.327 . S
C1644 C1632 1.349 . S
C1644 H1638 0.950 . S
C1644 C1645 1.327 . S
C1645 H1639 0.950 . S
C1645 C1644 1.327 . S
C1645 C1649 1.429 . S
C1646 C1629 1.574 . S
C1646 H1640 0.949 . S
C1646 C1650 1.368 . S
C1647 C1628 1.429 . S
C1647 C1641 1.429 . S
C1647 C1648 1.523 . S
C1648 C1629 1.368 . S
C1648 C1642 1.368 . S
C1648 C1647 1.523 . S
C1649 C1633 1.429 . S
C1649 C1645 1.429 . S
C1649 C1650 1.523 . S
C1650 C1634 1.368 . S
C1650 C1646 1.368 . S
C1650 C1649 1.523 . S
H1651 C1626 0.950 . S
H1652 C1628 0.950 . S
H1653 C1629 0.949 . S
H1654 C1631 0.950 . S
H1655 C1633 0.950 . S
C1656 C1657 1.349 . S
C1656 C1658 1.327 . S
C1656 H1681 0.950 . S
C1657 C1656 1.349 . S
C1657 C1673 1.349 . S
C1658 C1656 1.327 . S
C1658 C1677 1.429 . S
C1658 H1682 0.950 . S
C1659 C1676 1.574 . S
C1659 C1678 1.368 . S
C1659 H1683 0.949 . S
H1660 C1664 0.949 . S
C1661 C1662 1.349 . S
C1661 C1663 1.327 . S
C1661 H1684 0.950 . S
C1662 C1661 1.349 . S
C1662 C1674 1.349 . S
C1663 C1661 1.327 . S
C1663 C1679 1.429 . S
C1663 H1685 0.950 . S
C1664 H1660 0.949 . S
C1664 C1672 1.574 . S
C1664 C1680 1.368 . S
H1665 C1673 0.950 . S
H1666 C1671 0.950 . S
H1667 C1672 0.949 . S
H1668 C1674 0.950 . S
H1669 C1675 0.950 . S
H1670 C1676 0.949 . S
C1671 H1666 0.950 . S
C1671 C1673 1.327 . S
C1671 C1677 1.429 . S
C1672 C1664 1.574 . S
C1672 H1667 0.949 . S
C1672 C1678 1.368 . S
C1673 C1657 1.349 . S
C1673 H1665 0.950 . S
C1673 C1671 1.327 . S
C1674 C1662 1.349 . S
C1674 H1668 0.950 . S
C1674 C1675 1.327 . S
C1675 H1669 0.950 . S
C1675 C1674 1.327 . S
C1675 C1679 1.429 . S
C1676 C1659 1.574 . S
C1676 H1670 0.949 . S
C1676 C1680 1.368 . S
C1677 C1658 1.429 . S
C1677 C1671 1.429 . S
C1677 C1678 1.523 . S
C1678 C1659 1.368 . S
C1678 C1672 1.368 . S
C1678 C1677 1.523 . S
C1679 C1663 1.429 . S
C1679 C1675 1.429 . S
C1679 C1680 1.523 . S
C1680 C1664 1.368 . S
C1680 C1676 1.368 . S
C1680 C1679 1.523 . S
H1681 C1656 0.950 . S
H1682 C1658 0.950 . S
H1683 C1659 0.949 . S
H1684 C1661 0.950 . S
H1685 C1663 0.950 . S
C1686 C1687 1.349 . S
C1686 C1688 1.327 . S
C1686 H1711 0.950 . S
C1687 C1686 1.349 . S
C1687 C1703 1.349 . S
C1688 C1686 1.327 . S
C1688 C1707 1.429 . S
C1688 H1712 0.950 . S
C1689 C1706 1.574 . S
C1689 C1708 1.368 . S
C1689 H1713 0.949 . S
H1690 C1694 0.949 . S
C1691 C1692 1.349 . S
C1691 C1693 1.327 . S
C1691 H1714 0.950 . S
C1692 C1691 1.349 . S
C1692 C1704 1.349 . S
C1693 C1691 1.327 . S
C1693 C1709 1.429 . S
C1693 H1715 0.950 . S
C1694 H1690 0.949 . S
C1694 C1702 1.574 . S
C1694 C1710 1.368 . S
H1695 C1703 0.950 . S
H1696 C1701 0.950 . S
H1697 C1702 0.949 . S
H1698 C1704 0.950 . S
H1699 C1705 0.950 . S
H1700 C1706 0.949 . S
C1701 H1696 0.950 . S
C1701 C1703 1.327 . S
C1701 C1707 1.429 . S
C1702 C1694 1.574 . S
C1702 H1697 0.949 . S
C1702 C1708 1.368 . S
C1703 C1687 1.349 . S
C1703 H1695 0.950 . S
C1703 C1701 1.327 . S
C1704 C1692 1.349 . S
C1704 H1698 0.950 . S
C1704 C1705 1.327 . S
C1705 H1699 0.950 . S
C1705 C1704 1.327 . S
C1705 C1709 1.429 . S
C1706 C1689 1.574 . S
C1706 H1700 0.949 . S
C1706 C1710 1.368 . S
C1707 C1688 1.429 . S
C1707 C1701 1.429 . S
C1707 C1708 1.523 . S
C1708 C1689 1.368 . S
C1708 C1702 1.368 . S
C1708 C1707 1.523 . S
C1709 C1693 1.429 . S
C1709 C1705 1.429 . S
C1709 C1710 1.523 . S
C1710 C1694 1.368 . S
C1710 C1706 1.368 . S
C1710 C1709 1.523 . S
H1711 C1686 0.950 . S
H1712 C1688 0.950 . S
H1713 C1689 0.949 . S
H1714 C1691 0.950 . S
H1715 C1693 0.950 . S
C1716 C1717 1.349 . S
C1716 C1718 1.327 . S
C1716 H1741 0.950 . S
C1717 C1716 1.349 . S
C1717 C1733 1.349 . S
C1718 C1716 1.327 . S
C1718 C1737 1.429 . S
C1718 H1742 0.950 . S
C1719 C1736 1.574 . S
C1719 C1738 1.368 . S
C1719 H1743 0.949 . S
H1720 C1724 0.949 . S
C1721 C1722 1.349 . S
C1721 C1723 1.327 . S
C1721 H1744 0.950 . S
C1722 C1721 1.349 . S
C1722 C1734 1.349 . S
C1723 C1721 1.327 . S
C1723 C1739 1.429 . S
C1723 H1745 0.950 . S
C1724 H1720 0.949 . S
C1724 C1732 1.574 . S
C1724 C1740 1.368 . S
H1725 C1733 0.950 . S
H1726 C1731 0.950 . S
H1727 C1732 0.949 . S
H1728 C1734 0.950 . S
H1729 C1735 0.950 . S
H1730 C1736 0.949 . S
C1731 H1726 0.950 . S
C1731 C1733 1.327 . S
C1731 C1737 1.429 . S
C1732 C1724 1.574 . S
C1732 H1727 0.949 . S
C1732 C1738 1.368 . S
C1733 C1717 1.349 . S
C1733 H1725 0.950 . S
C1733 C1731 1.327 . S
C1734 C1722 1.349 . S
C1734 H1728 0.950 . S
C1734 C1735 1.327 . S
C1735 H1729 0.950 . S
C1735 C1734 1.327 . S
C1735 C1739 1.429 . S
C1736 C1719 1.574 . S
C1736 H1730 0.949 . S
C1736 C1740 1.368 . S
C1737 C1718 1.429 . S
C1737 C1731 1.429 . S
C1737 C1738 1.523 . S
C1738 C1719 1.368 . S
C1738 C1732 1.368 . S
C1738 C1737 1.523 . S
C1739 C1723 1.429 . S
C1739 C1735 1.429 . S
C1739 C1740 1.523 . S
C1740 C1724 1.368 . S
C1740 C1736 1.368 . S
C1740 C1739 1.523 . S
H1741 C1716 0.950 . S
H1742 C1718 0.950 . S
H1743 C1719 0.949 . S
H1744 C1721 0.950 . S
H1745 C1723 0.950 . S
C1746 C1747 1.349 . S
C1746 C1748 1.327 . S
C1746 H1771 0.950 . S
C1747 C1746 1.349 . S
C1747 C1763 1.349 . S
C1748 C1746 1.327 . S
C1748 C1767 1.429 . S
C1748 H1772 0.950 . S
C1749 C1766 1.574 . S
C1749 C1768 1.368 . S
C1749 H1773 0.949 . S
H1750 C1754 0.949 . S
C1751 C1752 1.349 . S
C1751 C1753 1.327 . S
C1751 H1774 0.950 . S
C1752 C1751 1.349 . S
C1752 C1764 1.349 . S
C1753 C1751 1.327 . S
C1753 C1769 1.429 . S
C1753 H1775 0.950 . S
C1754 H1750 0.949 . S
C1754 C1762 1.574 . S
C1754 C1770 1.368 . S
H1755 C1763 0.950 . S
H1756 C1761 0.950 . S
H1757 C1762 0.949 . S
H1758 C1764 0.950 . S
H1759 C1765 0.950 . S
H1760 C1766 0.949 . S
C1761 H1756 0.950 . S
C1761 C1763 1.327 . S
C1761 C1767 1.429 . S
C1762 C1754 1.574 . S
C1762 H1757 0.949 . S
C1762 C1768 1.368 . S
C1763 C1747 1.349 . S
C1763 H1755 0.950 . S
C1763 C1761 1.327 . S
C1764 C1752 1.349 . S
C1764 H1758 0.950 . S
C1764 C1765 1.327 . S
C1765 H1759 0.950 . S
C1765 C1764 1.327 . S
C1765 C1769 1.429 . S
C1766 C1749 1.574 . S
C1766 H1760 0.949 . S
C1766 C1770 1.368 . S
C1767 C1748 1.429 . S
C1767 C1761 1.429 . S
C1767 C1768 1.523 . S
C1768 C1749 1.368 . S
C1768 C1762 1.368 . S
C1768 C1767 1.523 . S
C1769 C1753 1.429 . S
C1769 C1765 1.429 . S
C1769 C1770 1.523 . S
C1770 C1754 1.368 . S
C1770 C1766 1.368 . S
C1770 C1769 1.523 . S
H1771 C1746 0.950 . S
H1772 C1748 0.950 . S
H1773 C1749 0.949 . S
H1774 C1751 0.950 . S
H1775 C1753 0.950 . S
C1776 C1777 1.349 . S
C1776 C1778 1.327 . S
C1776 H1801 0.950 . S
C1777 C1776 1.349 . S
C1777 C1793 1.349 . S
C1778 C1776 1.327 . S
C1778 C1797 1.429 . S
C1778 H1802 0.950 . S
C1779 C1796 1.574 . S
C1779 C1798 1.368 . S
C1779 H1803 0.949 . S
H1780 C1784 0.949 . S
C1781 C1782 1.349 . S
C1781 C1783 1.327 . S
C1781 H1804 0.950 . S
C1782 C1781 1.349 . S
C1782 C1794 1.349 . S
C1783 C1781 1.327 . S
C1783 C1799 1.429 . S
C1783 H1805 0.950 . S
C1784 H1780 0.949 . S
C1784 C1792 1.574 . S
C1784 C1800 1.368 . S
H1785 C1793 0.950 . S
H1786 C1791 0.950 . S
H1787 C1792 0.949 . S
H1788 C1794 0.950 . S
H1789 C1795 0.950 . S
H1790 C1796 0.949 . S
C1791 H1786 0.950 . S
C1791 C1793 1.327 . S
C1791 C1797 1.429 . S
C1792 C1784 1.574 . S
C1792 H1787 0.949 . S
C1792 C1798 1.368 . S
C1793 C1777 1.349 . S
C1793 H1785 0.950 . S
C1793 C1791 1.327 . S
C1794 C1782 1.349 . S
C1794 H1788 0.950 . S
C1794 C1795 1.327 . S
C1795 H1789 0.950 . S
C1795 C1794 1.327 . S
C1795 C1799 1.429 . S
C1796 C1779 1.574 . S
C1796 H1790 0.949 . S
C1796 C1800 1.368 . S
C1797 C1778 1.429 . S
C1797 C1791 1.429 . S
C1797 C1798 1.523 . S
C1798 C1779 1.368 . S
C1798 C1792 1.368 . S
C1798 C1797 1.523 . S
C1799 C1783 1.429 . S
C1799 C1795 1.429 . S
C1799 C1800 1.523 . S
C1800 C1784 1.368 . S
C1800 C1796 1.368 . S
C1800 C1799 1.523 . S
H1801 C1776 0.950 . S
H1802 C1778 0.950 . S
H1803 C1779 0.949 . S
H1804 C1781 0.950 . S
H1805 C1783 0.950 . S
C1806 C1807 1.349 . S
C1806 C1808 1.327 . S
C1806 H1831 0.950 . S
C1807 C1806 1.349 . S
C1807 C1823 1.349 . S
C1808 C1806 1.327 . S
C1808 C1827 1.429 . S
C1808 H1832 0.950 . S
C1809 C1826 1.574 . S
C1809 C1828 1.368 . S
C1809 H1833 0.949 . S
H1810 C1814 0.949 . S
C1811 C1812 1.349 . S
C1811 C1813 1.327 . S
C1811 H1834 0.950 . S
C1812 C1811 1.349 . S
C1812 C1824 1.349 . S
C1813 C1811 1.327 . S
C1813 C1829 1.429 . S
C1813 H1835 0.950 . S
C1814 H1810 0.949 . S
C1814 C1822 1.574 . S
C1814 C1830 1.368 . S
H1815 C1823 0.950 . S
H1816 C1821 0.950 . S
H1817 C1822 0.949 . S
H1818 C1824 0.950 . S
H1819 C1825 0.950 . S
H1820 C1826 0.949 . S
C1821 H1816 0.950 . S
C1821 C1823 1.327 . S
C1821 C1827 1.429 . S
C1822 C1814 1.574 . S
C1822 H1817 0.949 . S
C1822 C1828 1.368 . S
C1823 C1807 1.349 . S
C1823 H1815 0.950 . S
C1823 C1821 1.327 . S
C1824 C1812 1.349 . S
C1824 H1818 0.950 . S
C1824 C1825 1.327 . S
C1825 H1819 0.950 . S
C1825 C1824 1.327 . S
C1825 C1829 1.429 . S
C1826 C1809 1.574 . S
C1826 H1820 0.949 . S
C1826 C1830 1.368 . S
C1827 C1808 1.429 . S
C1827 C1821 1.429 . S
C1827 C1828 1.523 . S
C1828 C1809 1.368 . S
C1828 C1822 1.368 . S
C1828 C1827 1.523 . S
C1829 C1813 1.429 . S
C1829 C1825 1.429 . S
C1829 C1830 1.523 . S
C1830 C1814 1.368 . S
C1830 C1826 1.368 . S
C1830 C1829 1.523 . S
H1831 C1806 0.950 . S
H1832 C1808 0.950 . S
H1833 C1809 0.949 . S
H1834 C1811 0.950 . S
H1835 C1813 0.950 . S
C1836 C1837 1.349 . S
C1836 C1838 1.327 . S
C1836 H1861 0.950 . S
C1837 C1836 1.349 . S
C1837 C1853 1.349 . S
C1838 C1836 1.327 . S
C1838 C1857 1.429 . S
C1838 H1862 0.950 . S
C1839 C1856 1.574 . S
C1839 C1858 1.368 . S
C1839 H1863 0.949 . S
H1840 C1844 0.949 . S
C1841 C1842 1.349 . S
C1841 C1843 1.327 . S
C1841 H1864 0.950 . S
C1842 C1841 1.349 . S
C1842 C1854 1.349 . S
C1843 C1841 1.327 . S
C1843 C1859 1.429 . S
C1843 H1865 0.950 . S
C1844 H1840 0.949 . S
C1844 C1852 1.574 . S
C1844 C1860 1.368 . S
H1845 C1853 0.950 . S
H1846 C1851 0.950 . S
H1847 C1852 0.949 . S
H1848 C1854 0.950 . S
H1849 C1855 0.950 . S
H1850 C1856 0.949 . S
C1851 H1846 0.950 . S
C1851 C1853 1.327 . S
C1851 C1857 1.429 . S
C1852 C1844 1.574 . S
C1852 H1847 0.949 . S
C1852 C1858 1.368 . S
C1853 C1837 1.349 . S
C1853 H1845 0.950 . S
C1853 C1851 1.327 . S
C1854 C1842 1.349 . S
C1854 H1848 0.950 . S
C1854 C1855 1.327 . S
C1855 H1849 0.950 . S
C1855 C1854 1.327 . S
C1855 C1859 1.429 . S
C1856 C1839 1.574 . S
C1856 H1850 0.949 . S
C1856 C1860 1.368 . S
C1857 C1838 1.429 . S
C1857 C1851 1.429 . S
C1857 C1858 1.523 . S
C1858 C1839 1.368 . S
C1858 C1852 1.368 . S
C1858 C1857 1.523 . S
C1859 C1843 1.429 . S
C1859 C1855 1.429 . S
C1859 C1860 1.523 . S
C1860 C1844 1.368 . S
C1860 C1856 1.368 . S
C1860 C1859 1.523 . S
H1861 C1836 0.950 . S
H1862 C1838 0.950 . S
H1863 C1839 0.949 . S
H1864 C1841 0.950 . S
H1865 C1843 0.950 . S
C1866 C1867 1.349 . S
C1866 C1868 1.327 . S
C1866 H1891 0.950 . S
C1867 C1866 1.349 . S
C1867 C1883 1.349 . S
C1868 C1866 1.327 . S
C1868 C1887 1.429 . S
C1868 H1892 0.950 . S
C1869 C1886 1.574 . S
C1869 C1888 1.368 . S
C1869 H1893 0.949 . S
H1870 C1874 0.949 . S
C1871 C1872 1.349 . S
C1871 C1873 1.327 . S
C1871 H1894 0.950 . S
C1872 C1871 1.349 . S
C1872 C1884 1.349 . S
C1873 C1871 1.327 . S
C1873 C1889 1.429 . S
C1873 H1895 0.950 . S
C1874 H1870 0.949 . S
C1874 C1882 1.574 . S
C1874 C1890 1.368 . S
H1875 C1883 0.950 . S
H1876 C1881 0.950 . S
H1877 C1882 0.949 . S
H1878 C1884 0.950 . S
H1879 C1885 0.950 . S
H1880 C1886 0.949 . S
C1881 H1876 0.950 . S
C1881 C1883 1.327 . S
C1881 C1887 1.429 . S
C1882 C1874 1.574 . S
C1882 H1877 0.949 . S
C1882 C1888 1.368 . S
C1883 C1867 1.349 . S
C1883 H1875 0.950 . S
C1883 C1881 1.327 . S
C1884 C1872 1.349 . S
C1884 H1878 0.950 . S
C1884 C1885 1.327 . S
C1885 H1879 0.950 . S
C1885 C1884 1.327 . S
C1885 C1889 1.429 . S
C1886 C1869 1.574 . S
C1886 H1880 0.949 . S
C1886 C1890 1.368 . S
C1887 C1868 1.429 . S
C1887 C1881 1.429 . S
C1887 C1888 1.523 . S
C1888 C1869 1.368 . S
C1888 C1882 1.368 . S
C1888 C1887 1.523 . S
C1889 C1873 1.429 . S
C1889 C1885 1.429 . S
C1889 C1890 1.523 . S
C1890 C1874 1.368 . S
C1890 C1886 1.368 . S
C1890 C1889 1.523 . S
H1891 C1866 0.950 . S
H1892 C1868 0.950 . S
H1893 C1869 0.949 . S
H1894 C1871 0.950 . S
H1895 C1873 0.950 . S
C1896 C1897 1.349 . S
C1896 C1898 1.327 . S
C1896 H1921 0.950 . S
C1897 C1896 1.349 . S
C1897 C1913 1.349 . S
C1898 C1896 1.327 . S
C1898 C1917 1.429 . S
C1898 H1922 0.950 . S
C1899 C1916 1.574 . S
C1899 C1918 1.368 . S
C1899 H1923 0.949 . S
H1900 C1904 0.949 . S
C1901 C1902 1.349 . S
C1901 C1903 1.327 . S
C1901 H1924 0.950 . S
C1902 C1901 1.349 . S
C1902 C1914 1.349 . S
C1903 C1901 1.327 . S
C1903 C1919 1.429 . S
C1903 H1925 0.950 . S
C1904 H1900 0.949 . S
C1904 C1912 1.574 . S
C1904 C1920 1.368 . S
H1905 C1913 0.950 . S
H1906 C1911 0.950 . S
H1907 C1912 0.949 . S
H1908 C1914 0.950 . S
H1909 C1915 0.950 . S
H1910 C1916 0.949 . S
C1911 H1906 0.950 . S
C1911 C1913 1.327 . S
C1911 C1917 1.429 . S
C1912 C1904 1.574 . S
C1912 H1907 0.949 . S
C1912 C1918 1.368 . S
C1913 C1897 1.349 . S
C1913 H1905 0.950 . S
C1913 C1911 1.327 . S
C1914 C1902 1.349 . S
C1914 H1908 0.950 . S
C1914 C1915 1.327 . S
C1915 H1909 0.950 . S
C1915 C1914 1.327 . S
C1915 C1919 1.429 . S
C1916 C1899 1.574 . S
C1916 H1910 0.949 . S
C1916 C1920 1.368 . S
C1917 C1898 1.429 . S
C1917 C1911 1.429 . S
C1917 C1918 1.523 . S
C1918 C1899 1.368 . S
C1918 C1912 1.368 . S
C1918 C1917 1.523 . S
C1919 C1903 1.429 . S
C1919 C1915 1.429 . S
C1919 C1920 1.523 . S
C1920 C1904 1.368 . S
C1920 C1916 1.368 . S
C1920 C1919 1.523 . S
H1921 C1896 0.950 . S
H1922 C1898 0.950 . S
H1923 C1899 0.949 . S
H1924 C1901 0.950 . S
H1925 C1903 0.950 . S
C1926 C1927 1.349 . S
C1926 C1928 1.327 . S
C1926 H1951 0.950 . S
C1927 C1926 1.349 . S
C1927 C1943 1.349 . S
C1928 C1926 1.327 . S
C1928 C1947 1.429 . S
C1928 H1952 0.950 . S
C1929 C1946 1.574 . S
C1929 C1948 1.368 . S
C1929 H1953 0.949 . S
H1930 C1934 0.949 . S
C1931 C1932 1.349 . S
C1931 C1933 1.327 . S
C1931 H1954 0.950 . S
C1932 C1931 1.349 . S
C1932 C1944 1.349 . S
C1933 C1931 1.327 . S
C1933 C1949 1.429 . S
C1933 H1955 0.950 . S
C1934 H1930 0.949 . S
C1934 C1942 1.574 . S
C1934 C1950 1.368 . S
H1935 C1943 0.950 . S
H1936 C1941 0.950 . S
H1937 C1942 0.949 . S
H1938 C1944 0.950 . S
H1939 C1945 0.950 . S
H1940 C1946 0.949 . S
C1941 H1936 0.950 . S
C1941 C1943 1.327 . S
C1941 C1947 1.429 . S
C1942 C1934 1.574 . S
C1942 H1937 0.949 . S
C1942 C1948 1.368 . S
C1943 C1927 1.349 . S
C1943 H1935 0.950 . S
C1943 C1941 1.327 . S
C1944 C1932 1.349 . S
C1944 H1938 0.950 . S
C1944 C1945 1.327 . S
C1945 H1939 0.950 . S
C1945 C1944 1.327 . S
C1945 C1949 1.429 . S
C1946 C1929 1.574 . S
C1946 H1940 0.949 . S
C1946 C1950 1.368 . S
C1947 C1928 1.429 . S
C1947 C1941 1.429 . S
C1947 C1948 1.523 . S
C1948 C1929 1.368 . S
C1948 C1942 1.368 . S
C1948 C1947 1.523 . S
C1949 C1933 1.429 . S
C1949 C1945 1.429 . S
C1949 C1950 1.523 . S
C1950 C1934 1.368 . S
C1950 C1946 1.368 . S
C1950 C1949 1.523 . S
H1951 C1926 0.950 . S
H1952 C1928 0.950 . S
H1953 C1929 0.949 . S
H1954 C1931 0.950 . S
H1955 C1933 0.950 . S
C1956 C1957 1.349 . S
C1956 C1958 1.327 . S
C1956 H1981 0.950 . S
C1957 C1956 1.349 . S
C1957 C1973 1.349 . S
C1958 C1956 1.327 . S
C1958 C1977 1.429 . S
C1958 H1982 0.950 . S
C1959 C1976 1.574 . S
C1959 C1978 1.368 . S
C1959 H1983 0.949 . S
H1960 C1964 0.949 . S
C1961 C1962 1.349 . S
C1961 C1963 1.327 . S
C1961 H1984 0.950 . S
C1962 C1961 1.349 . S
C1962 C1974 1.349 . S
C1963 C1961 1.327 . S
C1963 C1979 1.429 . S
C1963 H1985 0.950 . S
C1964 H1960 0.949 . S
C1964 C1972 1.574 . S
C1964 C1980 1.368 . S
H1965 C1973 0.950 . S
H1966 C1971 0.950 . S
H1967 C1972 0.949 . S
H1968 C1974 0.950 . S
H1969 C1975 0.950 . S
H1970 C1976 0.949 . S
C1971 H1966 0.950 . S
C1971 C1973 1.327 . S
C1971 C1977 1.429 . S
C1972 C1964 1.574 . S
C1972 H1967 0.949 . S
C1972 C1978 1.368 . S
C1973 C1957 1.349 . S
C1973 H1965 0.950 . S
C1973 C1971 1.327 . S
C1974 C1962 1.349 . S
C1974 H1968 0.950 . S
C1974 C1975 1.327 . S
C1975 H1969 0.950 . S
C1975 C1974 1.327 . S
C1975 C1979 1.429 . S
C1976 C1959 1.574 . S
C1976 H1970 0.949 . S
C1976 C1980 1.368 . S
C1977 C1958 1.429 . S
C1977 C1971 1.429 . S
C1977 C1978 1.523 . S
C1978 C1959 1.368 . S
C1978 C1972 1.368 . S
C1978 C1977 1.523 . S
C1979 C1963 1.429 . S
C1979 C1975 1.429 . S
C1979 C1980 1.523 . S
C1980 C1964 1.368 . S
C1980 C1976 1.368 . S
C1980 C1979 1.523 . S
H1981 C1956 0.950 . S
H1982 C1958 0.950 . S
H1983 C1959 0.949 . S
H1984 C1961 0.950 . S
H1985 C1963 0.950 . S
C1986 C1987 1.349 . S
C1986 C1988 1.327 . S
C1986 H2011 0.950 . S
C1987 C1986 1.349 . S
C1987 C2003 1.349 . S
C1988 C1986 1.327 . S
C1988 C2007 1.429 . S
C1988 H2012 0.950 . S
C1989 C2006 1.574 . S
C1989 C2008 1.368 . S
C1989 H2013 0.949 . S
H1990 C1994 0.949 . S
C1991 C1992 1.349 . S
C1991 C1993 1.327 . S
C1991 H2014 0.950 . S
C1992 C1991 1.349 . S
C1992 C2004 1.349 . S
C1993 C1991 1.327 . S
C1993 C2009 1.429 . S
C1993 H2015 0.950 . S
C1994 H1990 0.949 . S
C1994 C2002 1.574 . S
C1994 C2010 1.368 . S
H1995 C2003 0.950 . S
H1996 C2001 0.950 . S
H1997 C2002 0.949 . S
H1998 C2004 0.950 . S
H1999 C2005 0.950 . S
H2000 C2006 0.949 . S
C2001 H1996 0.950 . S
C2001 C2003 1.327 . S
C2001 C2007 1.429 . S
C2002 C1994 1.574 . S
C2002 H1997 0.949 . S
C2002 C2008 1.368 . S
C2003 C1987 1.349 . S
C2003 H1995 0.950 . S
C2003 C2001 1.327 . S
C2004 C1992 1.349 . S
C2004 H1998 0.950 . S
C2004 C2005 1.327 . S
C2005 H1999 0.950 . S
C2005 C2004 1.327 . S
C2005 C2009 1.429 . S
C2006 C1989 1.574 . S
C2006 H2000 0.949 . S
C2006 C2010 1.368 . S
C2007 C1988 1.429 . S
C2007 C2001 1.429 . S
C2007 C2008 1.523 . S
C2008 C1989 1.368 . S
C2008 C2002 1.368 . S
C2008 C2007 1.523 . S
C2009 C1993 1.429 . S
C2009 C2005 1.429 . S
C2009 C2010 1.523 . S
C2010 C1994 1.368 . S
C2010 C2006 1.368 . S
C2010 C2009 1.523 . S
H2011 C1986 0.950 . S
H2012 C1988 0.950 . S
H2013 C1989 0.949 . S
H2014 C1991 0.950 . S
H2015 C1993 0.950 . S
C2016 C2017 1.349 . S
C2016 C2018 1.327 . S
C2016 H2041 0.950 . S
C2017 C2016 1.349 . S
C2017 C2033 1.349 . S
C2018 C2016 1.327 . S
C2018 C2037 1.429 . S
C2018 H2042 0.950 . S
C2019 C2036 1.574 . S
C2019 C2038 1.368 . S
C2019 H2043 0.949 . S
H2020 C2024 0.949 . S
C2021 C2022 1.349 . S
C2021 C2023 1.327 . S
C2021 H2044 0.950 . S
C2022 C2021 1.349 . S
C2022 C2034 1.349 . S
C2023 C2021 1.327 . S
C2023 C2039 1.429 . S
C2023 H2045 0.950 . S
C2024 H2020 0.949 . S
C2024 C2032 1.574 . S
C2024 C2040 1.368 . S
H2025 C2033 0.950 . S
H2026 C2031 0.950 . S
H2027 C2032 0.949 . S
H2028 C2034 0.950 . S
H2029 C2035 0.950 . S
H2030 C2036 0.949 . S
C2031 H2026 0.950 . S
C2031 C2033 1.327 . S
C2031 C2037 1.429 . S
C2032 C2024 1.574 . S
C2032 H2027 0.949 . S
C2032 C2038 1.368 . S
C2033 C2017 1.349 . S
C2033 H2025 0.950 . S
C2033 C2031 1.327 . S
C2034 C2022 1.349 . S
C2034 H2028 0.950 . S
C2034 C2035 1.327 . S
C2035 H2029 0.950 . S
C2035 C2034 1.327 . S
C2035 C2039 1.429 . S
C2036 C2019 1.574 . S
C2036 H2030 0.949 . S
C2036 C2040 1.368 . S
C2037 C2018 1.429 . S
C2037 C2031 1.429 . S
C2037 C2038 1.523 . S
C2038 C2019 1.368 . S
C2038 C2032 1.368 . S
C2038 C2037 1.523 . S
C2039 C2023 1.429 . S
C2039 C2035 1.429 . S
C2039 C2040 1.523 . S
C2040 C2024 1.368 . S
C2040 C2036 1.368 . S
C2040 C2039 1.523 . S
H2041 C2016 0.950 . S
H2042 C2018 0.950 . S
H2043 C2019 0.949 . S
H2044 C2021 0.950 . S
H2045 C2023 0.950 . S
C2046 C2047 1.349 . S
C2046 C2048 1.327 . S
C2046 H2071 0.950 . S
C2047 C2046 1.349 . S
C2047 C2063 1.349 . S
C2048 C2046 1.327 . S
C2048 C2067 1.429 . S
C2048 H2072 0.950 . S
C2049 C2066 1.574 . S
C2049 C2068 1.368 . S
C2049 H2073 0.949 . S
H2050 C2054 0.949 . S
C2051 C2052 1.349 . S
C2051 C2053 1.327 . S
C2051 H2074 0.950 . S
C2052 C2051 1.349 . S
C2052 C2064 1.349 . S
C2053 C2051 1.327 . S
C2053 C2069 1.429 . S
C2053 H2075 0.950 . S
C2054 H2050 0.949 . S
C2054 C2062 1.574 . S
C2054 C2070 1.368 . S
H2055 C2063 0.950 . S
H2056 C2061 0.950 . S
H2057 C2062 0.949 . S
H2058 C2064 0.950 . S
H2059 C2065 0.950 . S
H2060 C2066 0.949 . S
C2061 H2056 0.950 . S
C2061 C2063 1.327 . S
C2061 C2067 1.429 . S
C2062 C2054 1.574 . S
C2062 H2057 0.949 . S
C2062 C2068 1.368 . S
C2063 C2047 1.349 . S
C2063 H2055 0.950 . S
C2063 C2061 1.327 . S
C2064 C2052 1.349 . S
C2064 H2058 0.950 . S
C2064 C2065 1.327 . S
C2065 H2059 0.950 . S
C2065 C2064 1.327 . S
C2065 C2069 1.429 . S
C2066 C2049 1.574 . S
C2066 H2060 0.949 . S
C2066 C2070 1.368 . S
C2067 C2048 1.429 . S
C2067 C2061 1.429 . S
C2067 C2068 1.523 . S
C2068 C2049 1.368 . S
C2068 C2062 1.368 . S
C2068 C2067 1.523 . S
C2069 C2053 1.429 . S
C2069 C2065 1.429 . S
C2069 C2070 1.523 . S
C2070 C2054 1.368 . S
C2070 C2066 1.368 . S
C2070 C2069 1.523 . S
H2071 C2046 0.950 . S
H2072 C2048 0.950 . S
H2073 C2049 0.949 . S
H2074 C2051 0.950 . S
H2075 C2053 0.950 . S
C2076 C2077 1.349 . S
C2076 C2078 1.327 . S
C2076 H2101 0.950 . S
C2077 C2076 1.349 . S
C2077 C2093 1.349 . S
C2078 C2076 1.327 . S
C2078 C2097 1.429 . S
C2078 H2102 0.950 . S
C2079 C2096 1.574 . S
C2079 C2098 1.368 . S
C2079 H2103 0.949 . S
H2080 C2084 0.949 . S
C2081 C2082 1.349 . S
C2081 C2083 1.327 . S
C2081 H2104 0.950 . S
C2082 C2081 1.349 . S
C2082 C2094 1.349 . S
C2083 C2081 1.327 . S
C2083 C2099 1.429 . S
C2083 H2105 0.950 . S
C2084 H2080 0.949 . S
C2084 C2092 1.574 . S
C2084 C2100 1.368 . S
H2085 C2093 0.950 . S
H2086 C2091 0.950 . S
H2087 C2092 0.949 . S
H2088 C2094 0.950 . S
H2089 C2095 0.950 . S
H2090 C2096 0.949 . S
C2091 H2086 0.950 . S
C2091 C2093 1.327 . S
C2091 C2097 1.429 . S
C2092 C2084 1.574 . S
C2092 H2087 0.949 . S
C2092 C2098 1.368 . S
C2093 C2077 1.349 . S
C2093 H2085 0.950 . S
C2093 C2091 1.327 . S
C2094 C2082 1.349 . S
C2094 H2088 0.950 . S
C2094 C2095 1.327 . S
C2095 H2089 0.950 . S
C2095 C2094 1.327 . S
C2095 C2099 1.429 . S
C2096 C2079 1.574 . S
C2096 H2090 0.949 . S
C2096 C2100 1.368 . S
C2097 C2078 1.429 . S
C2097 C2091 1.429 . S
C2097 C2098 1.523 . S
C2098 C2079 1.368 . S
C2098 C2092 1.368 . S
C2098 C2097 1.523 . S
C2099 C2083 1.429 . S
C2099 C2095 1.429 . S
C2099 C2100 1.523 . S
C2100 C2084 1.368 . S
C2100 C2096 1.368 . S
C2100 C2099 1.523 . S
H2101 C2076 0.950 . S
H2102 C2078 0.950 . S
H2103 C2079 0.949 . S
H2104 C2081 0.950 . S
H2105 C2083 0.950 . S
C2106 C2107 1.349 . S
C2106 C2108 1.327 . S
C2106 H2131 0.950 . S
C2107 C2106 1.349 . S
C2107 C2123 1.349 . S
C2108 C2106 1.327 . S
C2108 C2127 1.429 . S
C2108 H2132 0.950 . S
C2109 C2126 1.574 . S
C2109 C2128 1.368 . S
C2109 H2133 0.949 . S
H2110 C2114 0.949 . S
C2111 C2112 1.349 . S
C2111 C2113 1.327 . S
C2111 H2134 0.950 . S
C2112 C2111 1.349 . S
C2112 C2124 1.349 . S
C2113 C2111 1.327 . S
C2113 C2129 1.429 . S
C2113 H2135 0.950 . S
C2114 H2110 0.949 . S
C2114 C2122 1.574 . S
C2114 C2130 1.368 . S
H2115 C2123 0.950 . S
H2116 C2121 0.950 . S
H2117 C2122 0.949 . S
H2118 C2124 0.950 . S
H2119 C2125 0.950 . S
H2120 C2126 0.949 . S
C2121 H2116 0.950 . S
C2121 C2123 1.327 . S
C2121 C2127 1.429 . S
C2122 C2114 1.574 . S
C2122 H2117 0.949 . S
C2122 C2128 1.368 . S
C2123 C2107 1.349 . S
C2123 H2115 0.950 . S
C2123 C2121 1.327 . S
C2124 C2112 1.349 . S
C2124 H2118 0.950 . S
C2124 C2125 1.327 . S
C2125 H2119 0.950 . S
C2125 C2124 1.327 . S
C2125 C2129 1.429 . S
C2126 C2109 1.574 . S
C2126 H2120 0.949 . S
C2126 C2130 1.368 . S
C2127 C2108 1.429 . S
C2127 C2121 1.429 . S
C2127 C2128 1.523 . S
C2128 C2109 1.368 . S
C2128 C2122 1.368 . S
C2128 C2127 1.523 . S
C2129 C2113 1.429 . S
C2129 C2125 1.429 . S
C2129 C2130 1.523 . S
C2130 C2114 1.368 . S
C2130 C2126 1.368 . S
C2130 C2129 1.523 . S
H2131 C2106 0.950 . S
H2132 C2108 0.950 . S
H2133 C2109 0.949 . S
H2134 C2111 0.950 . S
H2135 C2113 0.950 . S
C2136 C2137 1.349 . S
C2136 C2138 1.327 . S
C2136 H2161 0.950 . S
C2137 C2136 1.349 . S
C2137 C2153 1.349 . S
C2138 C2136 1.327 . S
C2138 C2157 1.429 . S
C2138 H2162 0.950 . S
C2139 C2156 1.574 . S
C2139 C2158 1.368 . S
C2139 H2163 0.949 . S
H2140 C2144 0.949 . S
C2141 C2142 1.349 . S
C2141 C2143 1.327 . S
C2141 H2164 0.950 . S
C2142 C2141 1.349 . S
C2142 C2154 1.349 . S
C2143 C2141 1.327 . S
C2143 C2159 1.429 . S
C2143 H2165 0.950 . S
C2144 H2140 0.949 . S
C2144 C2152 1.574 . S
C2144 C2160 1.368 . S
H2145 C2153 0.950 . S
H2146 C2151 0.950 . S
H2147 C2152 0.949 . S
H2148 C2154 0.950 . S
H2149 C2155 0.950 . S
H2150 C2156 0.949 . S
C2151 H2146 0.950 . S
C2151 C2153 1.327 . S
C2151 C2157 1.429 . S
C2152 C2144 1.574 . S
C2152 H2147 0.949 . S
C2152 C2158 1.368 . S
C2153 C2137 1.349 . S
C2153 H2145 0.950 . S
C2153 C2151 1.327 . S
C2154 C2142 1.349 . S
C2154 H2148 0.950 . S
C2154 C2155 1.327 . S
C2155 H2149 0.950 . S
C2155 C2154 1.327 . S
C2155 C2159 1.429 . S
C2156 C2139 1.574 . S
C2156 H2150 0.949 . S
C2156 C2160 1.368 . S
C2157 C2138 1.429 . S
C2157 C2151 1.429 . S
C2157 C2158 1.523 . S
C2158 C2139 1.368 . S
C2158 C2152 1.368 . S
C2158 C2157 1.523 . S
C2159 C2143 1.429 . S
C2159 C2155 1.429 . S
C2159 C2160 1.523 . S
C2160 C2144 1.368 . S
C2160 C2156 1.368 . S
C2160 C2159 1.523 . S
H2161 C2136 0.950 . S
H2162 C2138 0.950 . S
H2163 C2139 0.949 . S
H2164 C2141 0.950 . S
H2165 C2143 0.950 . S
C2166 C2167 1.349 . S
C2166 C2168 1.327 . S
C2166 H2191 0.950 . S
C2167 C2166 1.349 . S
C2167 C2183 1.349 . S
C2168 C2166 1.327 . S
C2168 C2187 1.429 . S
C2168 H2192 0.950 . S
C2169 C2186 1.574 . S
C2169 C2188 1.368 . S
C2169 H2193 0.949 . S
H2170 C2174 0.949 . S
C2171 C2172 1.349 . S
C2171 C2173 1.327 . S
C2171 H2194 0.950 . S
C2172 C2171 1.349 . S
C2172 C2184 1.349 . S
C2173 C2171 1.327 . S
C2173 C2189 1.429 . S
C2173 H2195 0.950 . S
C2174 H2170 0.949 . S
C2174 C2182 1.574 . S
C2174 C2190 1.368 . S
H2175 C2183 0.950 . S
H2176 C2181 0.950 . S
H2177 C2182 0.949 . S
H2178 C2184 0.950 . S
H2179 C2185 0.950 . S
H2180 C2186 0.949 . S
C2181 H2176 0.950 . S
C2181 C2183 1.327 . S
C2181 C2187 1.429 . S
C2182 C2174 1.574 . S
C2182 H2177 0.949 . S
C2182 C2188 1.368 . S
C2183 C2167 1.349 . S
C2183 H2175 0.950 . S
C2183 C2181 1.327 . S
C2184 C2172 1.349 . S
C2184 H2178 0.950 . S
C2184 C2185 1.327 . S
C2185 H2179 0.950 . S
C2185 C2184 1.327 . S
C2185 C2189 1.429 . S
C2186 C2169 1.574 . S
C2186 H2180 0.949 . S
C2186 C2190 1.368 . S
C2187 C2168 1.429 . S
C2187 C2181 1.429 . S
C2187 C2188 1.523 . S
C2188 C2169 1.368 . S
C2188 C2182 1.368 . S
C2188 C2187 1.523 . S
C2189 C2173 1.429 . S
C2189 C2185 1.429 . S
C2189 C2190 1.523 . S
C2190 C2174 1.368 . S
C2190 C2186 1.368 . S
C2190 C2189 1.523 . S
H2191 C2166 0.950 . S
H2192 C2168 0.950 . S
H2193 C2169 0.949 . S
H2194 C2171 0.950 . S
H2195 C2173 0.950 . S
C2196 C2197 1.349 . S
C2196 C2198 1.327 . S
C2196 H2221 0.950 . S
C2197 C2196 1.349 . S
C2197 C2213 1.349 . S
C2198 C2196 1.327 . S
C2198 C2217 1.429 . S
C2198 H2222 0.950 . S
C2199 C2216 1.574 . S
C2199 C2218 1.368 . S
C2199 H2223 0.949 . S
H2200 C2204 0.949 . S
C2201 C2202 1.349 . S
C2201 C2203 1.327 . S
C2201 H2224 0.950 . S
C2202 C2201 1.349 . S
C2202 C2214 1.349 . S
C2203 C2201 1.327 . S
C2203 C2219 1.429 . S
C2203 H2225 0.950 . S
C2204 H2200 0.949 . S
C2204 C2212 1.574 . S
C2204 C2220 1.368 . S
H2205 C2213 0.950 . S
H2206 C2211 0.950 . S
H2207 C2212 0.949 . S
H2208 C2214 0.950 . S
H2209 C2215 0.950 . S
H2210 C2216 0.949 . S
C2211 H2206 0.950 . S
C2211 C2213 1.327 . S
C2211 C2217 1.429 . S
C2212 C2204 1.574 . S
C2212 H2207 0.949 . S
C2212 C2218 1.368 . S
C2213 C2197 1.349 . S
C2213 H2205 0.950 . S
C2213 C2211 1.327 . S
C2214 C2202 1.349 . S
C2214 H2208 0.950 . S
C2214 C2215 1.327 . S
C2215 H2209 0.950 . S
C2215 C2214 1.327 . S
C2215 C2219 1.429 . S
C2216 C2199 1.574 . S
C2216 H2210 0.949 . S
C2216 C2220 1.368 . S
C2217 C2198 1.429 . S
C2217 C2211 1.429 . S
C2217 C2218 1.523 . S
C2218 C2199 1.368 . S
C2218 C2212 1.368 . S
C2218 C2217 1.523 . S
C2219 C2203 1.429 . S
C2219 C2215 1.429 . S
C2219 C2220 1.523 . S
C2220 C2204 1.368 . S
C2220 C2216 1.368 . S
C2220 C2219 1.523 . S
H2221 C2196 0.950 . S
H2222 C2198 0.950 . S
H2223 C2199 0.949 . S
H2224 C2201 0.950 . S
H2225 C2203 0.950 . S
C2226 C2227 1.349 . S
C2226 C2228 1.327 . S
C2226 H2251 0.950 . S
C2227 C2226 1.349 . S
C2227 C2243 1.349 . S
C2228 C2226 1.327 . S
C2228 C2247 1.429 . S
C2228 H2252 0.950 . S
C2229 C2246 1.574 . S
C2229 C2248 1.368 . S
C2229 H2253 0.949 . S
H2230 C2234 0.949 . S
C2231 C2232 1.349 . S
C2231 C2233 1.327 . S
C2231 H2254 0.950 . S
C2232 C2231 1.349 . S
C2232 C2244 1.349 . S
C2233 C2231 1.327 . S
C2233 C2249 1.429 . S
C2233 H2255 0.950 . S
C2234 H2230 0.949 . S
C2234 C2242 1.574 . S
C2234 C2250 1.368 . S
H2235 C2243 0.950 . S
H2236 C2241 0.950 . S
H2237 C2242 0.949 . S
H2238 C2244 0.950 . S
H2239 C2245 0.950 . S
H2240 C2246 0.949 . S
C2241 H2236 0.950 . S
C2241 C2243 1.327 . S
C2241 C2247 1.429 . S
C2242 C2234 1.574 . S
C2242 H2237 0.949 . S
C2242 C2248 1.368 . S
C2243 C2227 1.349 . S
C2243 H2235 0.950 . S
C2243 C2241 1.327 . S
C2244 C2232 1.349 . S
C2244 H2238 0.950 . S
C2244 C2245 1.327 . S
C2245 H2239 0.950 . S
C2245 C2244 1.327 . S
C2245 C2249 1.429 . S
C2246 C2229 1.574 . S
C2246 H2240 0.949 . S
C2246 C2250 1.368 . S
C2247 C2228 1.429 . S
C2247 C2241 1.429 . S
C2247 C2248 1.523 . S
C2248 C2229 1.368 . S
C2248 C2242 1.368 . S
C2248 C2247 1.523 . S
C2249 C2233 1.429 . S
C2249 C2245 1.429 . S
C2249 C2250 1.523 . S
C2250 C2234 1.368 . S
C2250 C2246 1.368 . S
C2250 C2249 1.523 . S
H2251 C2226 0.950 . S
H2252 C2228 0.950 . S
H2253 C2229 0.949 . S
H2254 C2231 0.950 . S
H2255 C2233 0.950 . S
C2256 C2257 1.349 . S
C2256 C2258 1.327 . S
C2256 H2281 0.950 . S
C2257 C2256 1.349 . S
C2257 C2273 1.349 . S
C2258 C2256 1.327 . S
C2258 C2277 1.429 . S
C2258 H2282 0.950 . S
C2259 C2276 1.574 . S
C2259 C2278 1.368 . S
C2259 H2283 0.949 . S
H2260 C2264 0.949 . S
C2261 C2262 1.349 . S
C2261 C2263 1.327 . S
C2261 H2284 0.950 . S
C2262 C2261 1.349 . S
C2262 C2274 1.349 . S
C2263 C2261 1.327 . S
C2263 C2279 1.429 . S
C2263 H2285 0.950 . S
C2264 H2260 0.949 . S
C2264 C2272 1.574 . S
C2264 C2280 1.368 . S
H2265 C2273 0.950 . S
H2266 C2271 0.950 . S
H2267 C2272 0.949 . S
H2268 C2274 0.950 . S
H2269 C2275 0.950 . S
H2270 C2276 0.949 . S
C2271 H2266 0.950 . S
C2271 C2273 1.327 . S
C2271 C2277 1.429 . S
C2272 C2264 1.574 . S
C2272 H2267 0.949 . S
C2272 C2278 1.368 . S
C2273 C2257 1.349 . S
C2273 H2265 0.950 . S
C2273 C2271 1.327 . S
C2274 C2262 1.349 . S
C2274 H2268 0.950 . S
C2274 C2275 1.327 . S
C2275 H2269 0.950 . S
C2275 C2274 1.327 . S
C2275 C2279 1.429 . S
C2276 C2259 1.574 . S
C2276 H2270 0.949 . S
C2276 C2280 1.368 . S
C2277 C2258 1.429 . S
C2277 C2271 1.429 . S
C2277 C2278 1.523 . S
C2278 C2259 1.368 . S
C2278 C2272 1.368 . S
C2278 C2277 1.523 . S
C2279 C2263 1.429 . S
C2279 C2275 1.429 . S
C2279 C2280 1.523 . S
C2280 C2264 1.368 . S
C2280 C2276 1.368 . S
C2280 C2279 1.523 . S
H2281 C2256 0.950 . S
H2282 C2258 0.950 . S
H2283 C2259 0.949 . S
H2284 C2261 0.950 . S
H2285 C2263 0.950 . S
C2286 C2287 1.349 . S
C2286 C2288 1.327 . S
C2286 H2311 0.950 . S
C2287 C2286 1.349 . S
C2287 C2303 1.349 . S
C2288 C2286 1.327 . S
C2288 C2307 1.429 . S
C2288 H2312 0.950 . S
C2289 C2306 1.574 . S
C2289 C2308 1.368 . S
C2289 H2313 0.949 . S
H2290 C2294 0.949 . S
C2291 C2292 1.349 . S
C2291 C2293 1.327 . S
C2291 H2314 0.950 . S
C2292 C2291 1.349 . S
C2292 C2304 1.349 . S
C2293 C2291 1.327 . S
C2293 C2309 1.429 . S
C2293 H2315 0.950 . S
C2294 H2290 0.949 . S
C2294 C2302 1.574 . S
C2294 C2310 1.368 . S
H2295 C2303 0.950 . S
H2296 C2301 0.950 . S
H2297 C2302 0.949 . S
H2298 C2304 0.950 . S
H2299 C2305 0.950 . S
H2300 C2306 0.949 . S
C2301 H2296 0.950 . S
C2301 C2303 1.327 . S
C2301 C2307 1.429 . S
C2302 C2294 1.574 . S
C2302 H2297 0.949 . S
C2302 C2308 1.368 . S
C2303 C2287 1.349 . S
C2303 H2295 0.950 . S
C2303 C2301 1.327 . S
C2304 C2292 1.349 . S
C2304 H2298 0.950 . S
C2304 C2305 1.327 . S
C2305 H2299 0.950 . S
C2305 C2304 1.327 . S
C2305 C2309 1.429 . S
C2306 C2289 1.574 . S
C2306 H2300 0.949 . S
C2306 C2310 1.368 . S
C2307 C2288 1.429 . S
C2307 C2301 1.429 . S
C2307 C2308 1.523 . S
C2308 C2289 1.368 . S
C2308 C2302 1.368 . S
C2308 C2307 1.523 . S
C2309 C2293 1.429 . S
C2309 C2305 1.429 . S
C2309 C2310 1.523 . S
C2310 C2294 1.368 . S
C2310 C2306 1.368 . S
C2310 C2309 1.523 . S
H2311 C2286 0.950 . S
H2312 C2288 0.950 . S
H2313 C2289 0.949 . S
H2314 C2291 0.950 . S
H2315 C2293 0.950 . S
C2316 C2317 1.349 . S
C2316 C2318 1.327 . S
C2316 H2341 0.950 . S
C2317 C2316 1.349 . S
C2317 C2333 1.349 . S
C2318 C2316 1.327 . S
C2318 C2337 1.429 . S
C2318 H2342 0.950 . S
C2319 C2336 1.574 . S
C2319 C2338 1.368 . S
C2319 H2343 0.949 . S
H2320 C2324 0.949 . S
C2321 C2322 1.349 . S
C2321 C2323 1.327 . S
C2321 H2344 0.950 . S
C2322 C2321 1.349 . S
C2322 C2334 1.349 . S
C2323 C2321 1.327 . S
C2323 C2339 1.429 . S
C2323 H2345 0.950 . S
C2324 H2320 0.949 . S
C2324 C2332 1.574 . S
C2324 C2340 1.368 . S
H2325 C2333 0.950 . S
H2326 C2331 0.950 . S
H2327 C2332 0.949 . S
H2328 C2334 0.950 . S
H2329 C2335 0.950 . S
H2330 C2336 0.949 . S
C2331 H2326 0.950 . S
C2331 C2333 1.327 . S
C2331 C2337 1.429 . S
C2332 C2324 1.574 . S
C2332 H2327 0.949 . S
C2332 C2338 1.368 . S
C2333 C2317 1.349 . S
C2333 H2325 0.950 . S
C2333 C2331 1.327 . S
C2334 C2322 1.349 . S
C2334 H2328 0.950 . S
C2334 C2335 1.327 . S
C2335 H2329 0.950 . S
C2335 C2334 1.327 . S
C2335 C2339 1.429 . S
C2336 C2319 1.574 . S
C2336 H2330 0.949 . S
C2336 C2340 1.368 . S
C2337 C2318 1.429 . S
C2337 C2331 1.429 . S
C2337 C2338 1.523 . S
C2338 C2319 1.368 . S
C2338 C2332 1.368 . S
C2338 C2337 1.523 . S
C2339 C2323 1.429 . S
C2339 C2335 1.429 . S
C2339 C2340 1.523 . S
C2340 C2324 1.368 . S
C2340 C2336 1.368 . S
C2340 C2339 1.523 . S
H2341 C2316 0.950 . S
H2342 C2318 0.950 . S
H2343 C2319 0.949 . S
H2344 C2321 0.950 . S
H2345 C2323 0.950 . S
C2346 C2347 1.349 . S
C2346 C2348 1.327 . S
C2346 H2371 0.950 . S
C2347 C2346 1.349 . S
C2347 C2363 1.349 . S
C2348 C2346 1.327 . S
C2348 C2367 1.429 . S
C2348 H2372 0.950 . S
C2349 C2366 1.574 . S
C2349 C2368 1.368 . S
C2349 H2373 0.949 . S
H2350 C2354 0.949 . S
C2351 C2352 1.349 . S
C2351 C2353 1.327 . S
C2351 H2374 0.950 . S
C2352 C2351 1.349 . S
C2352 C2364 1.349 . S
C2353 C2351 1.327 . S
C2353 C2369 1.429 . S
C2353 H2375 0.950 . S
C2354 H2350 0.949 . S
C2354 C2362 1.574 . S
C2354 C2370 1.368 . S
H2355 C2363 0.950 . S
H2356 C2361 0.950 . S
H2357 C2362 0.949 . S
H2358 C2364 0.950 . S
H2359 C2365 0.950 . S
H2360 C2366 0.949 . S
C2361 H2356 0.950 . S
C2361 C2363 1.327 . S
C2361 C2367 1.429 . S
C2362 C2354 1.574 . S
C2362 H2357 0.949 . S
C2362 C2368 1.368 . S
C2363 C2347 1.349 . S
C2363 H2355 0.950 . S
C2363 C2361 1.327 . S
C2364 C2352 1.349 . S
C2364 H2358 0.950 . S
C2364 C2365 1.327 . S
C2365 H2359 0.950 . S
C2365 C2364 1.327 . S
C2365 C2369 1.429 . S
C2366 C2349 1.574 . S
C2366 H2360 0.949 . S
C2366 C2370 1.368 . S
C2367 C2348 1.429 . S
C2367 C2361 1.429 . S
C2367 C2368 1.523 . S
C2368 C2349 1.368 . S
C2368 C2362 1.368 . S
C2368 C2367 1.523 . S
C2369 C2353 1.429 . S
C2369 C2365 1.429 . S
C2369 C2370 1.523 . S
C2370 C2354 1.368 . S
C2370 C2366 1.368 . S
C2370 C2369 1.523 . S
H2371 C2346 0.950 . S
H2372 C2348 0.950 . S
H2373 C2349 0.949 . S
H2374 C2351 0.950 . S
H2375 C2353 0.950 . S
C2376 C2377 1.349 . S
C2376 C2378 1.327 . S
C2376 H2401 0.950 . S
C2377 C2376 1.349 . S
C2377 C2393 1.349 . S
C2378 C2376 1.327 . S
C2378 C2397 1.429 . S
C2378 H2402 0.950 . S
C2379 C2396 1.574 . S
C2379 C2398 1.368 . S
C2379 H2403 0.949 . S
H2380 C2384 0.949 . S
C2381 C2382 1.349 . S
C2381 C2383 1.327 . S
C2381 H2404 0.950 . S
C2382 C2381 1.349 . S
C2382 C2394 1.349 . S
C2383 C2381 1.327 . S
C2383 C2399 1.429 . S
C2383 H2405 0.950 . S
C2384 H2380 0.949 . S
C2384 C2392 1.574 . S
C2384 C2400 1.368 . S
H2385 C2393 0.950 . S
H2386 C2391 0.950 . S
H2387 C2392 0.949 . S
H2388 C2394 0.950 . S
H2389 C2395 0.950 . S
H2390 C2396 0.949 . S
C2391 H2386 0.950 . S
C2391 C2393 1.327 . S
C2391 C2397 1.429 . S
C2392 C2384 1.574 . S
C2392 H2387 0.949 . S
C2392 C2398 1.368 . S
C2393 C2377 1.349 . S
C2393 H2385 0.950 . S
C2393 C2391 1.327 . S
C2394 C2382 1.349 . S
C2394 H2388 0.950 . S
C2394 C2395 1.327 . S
C2395 H2389 0.950 . S
C2395 C2394 1.327 . S
C2395 C2399 1.429 . S
C2396 C2379 1.574 . S
C2396 H2390 0.949 . S
C2396 C2400 1.368 . S
C2397 C2378 1.429 . S
C2397 C2391 1.429 . S
C2397 C2398 1.523 . S
C2398 C2379 1.368 . S
C2398 C2392 1.368 . S
C2398 C2397 1.523 . S
C2399 C2383 1.429 . S
C2399 C2395 1.429 . S
C2399 C2400 1.523 . S
C2400 C2384 1.368 . S
C2400 C2396 1.368 . S
C2400 C2399 1.523 . S
H2401 C2376 0.950 . S
H2402 C2378 0.950 . S
H2403 C2379 0.949 . S
H2404 C2381 0.950 . S
H2405 C2383 0.950 . S
C2406 C2407 1.349 . S
C2406 C2408 1.327 . S
C2406 H2431 0.950 . S
C2407 C2406 1.349 . S
C2407 C2423 1.349 . S
C2408 C2406 1.327 . S
C2408 C2427 1.429 . S
C2408 H2432 0.950 . S
C2409 C2426 1.574 . S
C2409 C2428 1.368 . S
C2409 H2433 0.949 . S
H2410 C2414 0.949 . S
C2411 C2412 1.349 . S
C2411 C2413 1.327 . S
C2411 H2434 0.950 . S
C2412 C2411 1.349 . S
C2412 C2424 1.349 . S
C2413 C2411 1.327 . S
C2413 C2429 1.429 . S
C2413 H2435 0.950 . S
C2414 H2410 0.949 . S
C2414 C2422 1.574 . S
C2414 C2430 1.368 . S
H2415 C2423 0.950 . S
H2416 C2421 0.950 . S
H2417 C2422 0.949 . S
H2418 C2424 0.950 . S
H2419 C2425 0.950 . S
H2420 C2426 0.949 . S
C2421 H2416 0.950 . S
C2421 C2423 1.327 . S
C2421 C2427 1.429 . S
C2422 C2414 1.574 . S
C2422 H2417 0.949 . S
C2422 C2428 1.368 . S
C2423 C2407 1.349 . S
C2423 H2415 0.950 . S
C2423 C2421 1.327 . S
C2424 C2412 1.349 . S
C2424 H2418 0.950 . S
C2424 C2425 1.327 . S
C2425 H2419 0.950 . S
C2425 C2424 1.327 . S
C2425 C2429 1.429 . S
C2426 C2409 1.574 . S
C2426 H2420 0.949 . S
C2426 C2430 1.368 . S
C2427 C2408 1.429 . S
C2427 C2421 1.429 . S
C2427 C2428 1.523 . S
C2428 C2409 1.368 . S
C2428 C2422 1.368 . S
C2428 C2427 1.523 . S
C2429 C2413 1.429 . S
C2429 C2425 1.429 . S
C2429 C2430 1.523 . S
C2430 C2414 1.368 . S
C2430 C2426 1.368 . S
C2430 C2429 1.523 . S
H2431 C2406 0.950 . S
H2432 C2408 0.950 . S
H2433 C2409 0.949 . S
H2434 C2411 0.950 . S
H2435 C2413 0.950 . S
C1002 C707 1.319 . S
C997 C56 1.289 . S
C1032 C685 1.664 . S
C1027 C154 1.596 . S
C1062 C682 0.698 . S
C1057 C236 0.702 . S
C1087 C310 0.621 . S
C1092 C694 0.374 . S
C1117 C394 1.593 . S
C1122 C677 1.658 . S
C1152 C699 0.700 . S
C1147 C476 0.703 . S
C1177 C574 0.620 . S
C1182 C704 0.369 . S
C1207 C656 1.287 . S
C1212 C700 1.317 . S
C1242 C758 2.780 . S
C1237 C67 2.847 . S
C1267 C139 1.283 . S
C1272 C808 1.277 . S
C1302 C731 1.673 . S
C1297 C238 1.589 . S
C1332 C807 0.714 . S
C1327 C308 0.718 . S
C1357 C392 0.703 . S
C1362 C736 0.697 . S
C1392 C802 2.776 . S
C1387 C487 2.845 . S
C1417 C559 1.295 . S
C1422 C761 1.291 . S
C1447 C658 1.596 . S
C1452 C793 1.682 . S
C1477 C58 1.601 . S
C1482 C785 1.685 . S
C1507 C403 1.294 . S
C1512 C815 1.288 . S
C1542 C739 1.689 . S
C1537 C478 1.603 . S
C1572 C790 0.726 . S
C1567 C572 0.729 . S
C1597 C643 2.852 . S
C1602 C748 2.781 . S
C1627 C223 2.860 . S
C1632 C812 2.794 . S
C1662 C754 1.298 . S
C1657 C319 1.303 . S
C1687 C152 0.716 . S
C1692 C753 0.713 . S
C1717 C644 1.289 . S
C1722 C869 1.319 . S
C1747 C406 1.596 . S
C1752 C847 1.664 . S
C1782 C844 0.698 . S
C1777 C488 0.702 . S
C1812 C856 0.374 . S
C1807 C562 0.621 . S
C1837 C142 1.593 . S
C1842 C839 1.658 . S
C1872 C861 0.699 . S
C1867 C224 0.703 . S
C1897 C322 0.620 . S
C1902 C866 0.369 . S
C1927 C68 1.287 . S
C1932 C862 1.317 . S
C1957 C655 2.847 . S
C1962 C920 2.780 . S
C1992 C970 1.277 . S
C1987 C391 1.283 . S
C2017 C490 1.589 . S
C2022 C893 1.673 . S
C2047 C560 0.719 . S
C2052 C969 0.714 . S
C2082 C898 0.697 . S
C2077 C140 0.703 . S
C2107 C235 2.845 . S
C2112 C964 2.776 . S
C2142 C923 1.291 . S
C2137 C307 1.295 . S
C2172 C955 1.682 . S
C2167 C70 1.596 . S
C2202 C947 1.685 . S
C2197 C646 1.601 . S
C2227 C151 1.294 . S
C2232 C977 1.288 . S
C2257 C226 1.603 . S
C2262 C901 1.689 . S
C2292 C952 0.726 . S
C2287 C320 0.729 . S
C2317 C55 2.852 . S
C2322 C910 2.781 . S
C2347 C475 2.860 . S
C2352 C974 2.794 . S
C2382 C916 1.298 . S
C2377 C571 1.303 . S
C2412 C915 0.713 . S
C2407 C404 0.716 . S
