# Generated by pormake.
# Topology anh, (6,3)-cn, num edge types: 1
# Building blocks:
#     Node 0, Type 0, BuildingBlock: INOVEN_clean_sbu_0, # of connection points: 6
#     Node 1, Type 0, BuildingBlock: INOVEN_clean_sbu_0, # of connection points: 6
#     Node 2, Type 0, BuildingBlock: INOVEN_clean_sbu_0, # of connection points: 6
#     Node 3, Type 1, BuildingBlock: OLANEW_clean_sbu_2, # of connection points: 3
#     Node 4, Type 1, BuildingBlock: OLANEW_clean_sbu_2, # of connection points: 3
#     Node 5, Type 1, BuildingBlock: OLANEW_clean_sbu_2, # of connection points: 3
#     Node 6, Type 1, BuildingBlock: OLANEW_clean_sbu_2, # of connection points: 3
#     Node 7, Type 1, BuildingBlock: OLANEW_clean_sbu_2, # of connection points: 3
#     Node 8, Type 1, BuildingBlock: OLANEW_clean_sbu_2, # of connection points: 3
#     Edge 9, Type (0, 1), BuildingBlock: ZUJKAS_clean_linker_0, # of connection points: 2
#     Edge 10, Type (0, 1), BuildingBlock: ZUJKAS_clean_linker_0, # of connection points: 2
#     Edge 11, Type (0, 1), BuildingBlock: ZUJKAS_clean_linker_0, # of connection points: 2
#     Edge 12, Type (0, 1), BuildingBlock: ZUJKAS_clean_linker_0, # of connection points: 2
#     Edge 13, Type (0, 1), BuildingBlock: ZUJKAS_clean_linker_0, # of connection points: 2
#     Edge 14, Type (0, 1), BuildingBlock: ZUJKAS_clean_linker_0, # of connection points: 2
#     Edge 15, Type (0, 1), BuildingBlock: ZUJKAS_clean_linker_0, # of connection points: 2
#     Edge 16, Type (0, 1), BuildingBlock: ZUJKAS_clean_linker_0, # of connection points: 2
#     Edge 17, Type (0, 1), BuildingBlock: ZUJKAS_clean_linker_0, # of connection points: 2
#     Edge 18, Type (0, 1), BuildingBlock: ZUJKAS_clean_linker_0, # of connection points: 2
#     Edge 19, Type (0, 1), BuildingBlock: ZUJKAS_clean_linker_0, # of connection points: 2
#     Edge 20, Type (0, 1), BuildingBlock: ZUJKAS_clean_linker_0, # of connection points: 2
#     Edge 21, Type (0, 1), BuildingBlock: ZUJKAS_clean_linker_0, # of connection points: 2
#     Edge 22, Type (0, 1), BuildingBlock: ZUJKAS_clean_linker_0, # of connection points: 2
#     Edge 23, Type (0, 1), BuildingBlock: ZUJKAS_clean_linker_0, # of connection points: 2
#     Edge 24, Type (0, 1), BuildingBlock: ZUJKAS_clean_linker_0, # of connection points: 2
#     Edge 25, Type (0, 1), BuildingBlock: ZUJKAS_clean_linker_0, # of connection points: 2
#     Edge 26, Type (0, 1), BuildingBlock: ZUJKAS_clean_linker_0, # of connection points: 2
# Relax obj value: 0.112
# Max RMSD: 0.158
# Mean RMSD: 0.111
data_MOF--net-anh--node1-INOVEN_clean_sbu_0--node2-OLANEW_clean_sbu_2--edge1-ZUJKAS_clean_linker_0
_symmetry_space_group_name_H-M    P1
_symmetry_Int_Tables_number       1
_symmetry_cell_setting            triclinic
loop_
_symmetry_equiv_pos_as_xyz
'x, y, z'
_cell_length_a     46.237549
_cell_length_b     50.601538
_cell_length_c     65.315524
_cell_angle_alpha  92.54655
_cell_angle_beta   89.740536
_cell_angle_gamma 128.54274
loop_
_atom_site_label
_atom_site_type_symbol
_atom_site_fract_x
_atom_site_fract_y
_atom_site_fract_z
_atom_type_partial_charge
Gd0 Gd 0.03516 0.50209 0.13533 0.0
Gd1 Gd 1.00127 0.53252 0.15347 0.0
C2 C 0.08668 0.58403 0.14489 0.0
C3 C 0.07083 0.486 0.11534 0.0
C4 C 0.10626 0.49272 0.11944 0.0
C5 C 0.10607 0.46535 0.12253 0.0
C6 C 0.13957 0.52591 0.12237 0.0
C7 C 0.17112 0.50405 0.13282 0.0
C8 C 0.17184 0.5315 0.12887 0.0
C9 C 0.13813 0.47095 0.12928 0.0
C10 C 0.03451 0.50453 0.17676 0.0
C11 C 0.95009 0.4517 0.14328 0.0
C12 C 0.96579 0.54637 0.17604 0.0
C13 C 0.92729 0.52762 0.18206 0.0
C14 C 0.91922 0.5381 0.19986 0.0
C15 C 0.89845 0.49923 0.17019 0.0
C16 C 0.85333 0.49336 0.19312 0.0
C17 C 0.86176 0.48231 0.17563 0.0
C18 C 0.88253 0.52108 0.20538 0.0
C19 C 1.00414 0.53175 0.11209 0.0
O20 O 0.0821 0.55871 0.13418 0.0
O21 O 0.06009 0.57913 0.15615 0.0
O22 O 0.04485 0.46618 0.12811 0.0
O23 O 0.07207 0.51169 0.11088 0.0
O24 O 0.03037 0.48038 0.16586 0.0
O25 O 0.04144 0.52711 0.16543 0.0
O26 O 0.95638 0.47611 0.1558 0.0
O27 O 0.9751 0.4579 0.13008 0.0
O28 O 0.97215 0.55313 0.15668 0.0
O29 O 0.98318 0.53599 0.18341 0.0
O30 O 0.00864 0.55599 0.12325 0.0
O31 O 0.99592 0.5083 0.12311 0.0
H32 H 0.08074 0.43957 0.12037 0.0
H33 H 0.14053 0.54753 0.12023 0.0
H34 H 0.19702 0.55725 0.13148 0.0
H35 H 0.13707 0.44938 0.13191 0.0
H36 H 0.94128 0.5597 0.20933 0.0
H37 H 0.90426 0.49058 0.15649 0.0
H38 H 0.84001 0.46135 0.16569 0.0
H39 H 0.87703 0.52988 0.21913 0.0
Gd40 Gd 0.53832 0.00878 0.49302 0.0
Gd41 Gd 0.49253 0.03098 0.48333 0.0
C42 C 0.44987 0.9521 0.48164 0.0
C43 C 0.56373 0.98033 0.50823 0.0
C44 C 0.5539 0.94649 0.50784 0.0
C45 C 0.53904 0.92491 0.49005 0.0
C46 C 0.55989 0.93576 0.52559 0.0
C47 C 0.53763 0.88271 0.50766 0.0
C48 C 0.55178 0.90416 0.52553 0.0
C49 C 0.53117 0.89335 0.48993 0.0
C50 C 0.53775 0.02114 0.45344 0.0
C51 C 0.58152 0.08773 0.49345 0.0
C52 C 0.46652 0.05979 0.46956 0.0
C53 C 0.47474 0.093 0.47258 0.0
C54 C 0.44658 0.09429 0.4789 0.0
C55 C 0.51034 0.12343 0.46982 0.0
C56 C 0.48965 0.15589 0.48036 0.0
C57 C 0.51771 0.15457 0.47366 0.0
C58 C 0.45394 0.12537 0.48277 0.0
C59 C 0.49501 0.01992 0.52314 0.0
O60 O 0.47956 0.95928 0.49096 0.0
O61 O 0.45004 0.97605 0.47423 0.0
O62 O 0.57503 0.99601 0.49109 0.0
O63 O 0.54145 0.9838 0.51805 0.0
O64 O 0.56628 0.02764 0.46293 0.0
O65 O 0.51017 0.00628 0.4648 0.0
O66 O 0.55135 0.08027 0.48456 0.0
O67 O 0.58172 0.06409 0.50105 0.0
O68 O 0.45316 0.04078 0.48533 0.0
O69 O 0.49072 0.05886 0.45982 0.0
O70 O 0.46593 0.01289 0.51408 0.0
O71 O 0.52159 0.0343 0.5112 0.0
H72 H 0.53379 0.93255 0.47622 0.0
H73 H 0.57126 0.95203 0.53947 0.0
H74 H 0.55745 0.89686 0.53936 0.0
H75 H 0.51994 0.87721 0.476 0.0
H76 H 0.41888 0.07116 0.48102 0.0
H77 H 0.53258 0.12322 0.4649 0.0
H78 H 0.54558 0.17761 0.47181 0.0
H79 H 0.43158 0.12549 0.4876 0.0
Gd80 Gd 0.57549 0.55923 0.85034 0.0
Gd81 Gd 0.5243 0.4858 0.86142 0.0
C82 C 0.48772 0.52187 0.85868 0.0
C83 C 0.60557 0.61595 0.83342 0.0
C84 C 0.59715 0.63927 0.83051 0.0
C85 C 0.62529 0.67414 0.83396 0.0
C86 C 0.56156 0.62739 0.82451 0.0
C87 C 0.58272 0.68525 0.82513 0.0
C88 C 0.55444 0.65017 0.82182 0.0
C89 C 0.61818 0.69689 0.83136 0.0
C90 C 0.57311 0.54936 0.89061 0.0
C91 C 0.61304 0.52428 0.85542 0.0
C92 C 0.49471 0.4284 0.87729 0.0
C93 C 0.50077 0.4032 0.87489 0.0
C94 C 0.52118 0.40429 0.85853 0.0
C95 C 0.4861 0.37784 0.88892 0.0
C96 C 0.51115 0.35397 0.86984 0.0
C97 C 0.49127 0.35344 0.88645 0.0
C98 C 0.52621 0.37984 0.85598 0.0
C99 C 0.52815 0.49552 0.8209 0.0
O100 O 0.51849 0.54634 0.84969 0.0
O101 O 0.48517 0.49735 0.86731 0.0
O102 O 0.61345 0.61408 0.85225 0.0
O103 O 0.5846 0.58647 0.8233 0.0
O104 O 0.6029 0.57343 0.88171 0.0
O105 O 0.54581 0.53334 0.8782 0.0
O106 O 0.58115 0.49885 0.86298 0.0
O107 O 0.61667 0.54948 0.84699 0.0
O108 O 0.48078 0.43169 0.86113 0.0
O109 O 0.52185 0.45746 0.88626 0.0
O110 O 0.49825 0.47144 0.82964 0.0
O111 O 0.55489 0.51165 0.83366 0.0
H112 H 0.65286 0.6838 0.83873 0.0
H113 H 0.53929 0.60056 0.82182 0.0
H114 H 0.52692 0.64029 0.81682 0.0
H115 H 0.64045 0.72362 0.83444 0.0
H116 H 0.53285 0.42384 0.84759 0.0
H117 H 0.47054 0.37685 0.90174 0.0
H118 H 0.47981 0.33425 0.8976 0.0
H119 H 0.54122 0.38083 0.84287 0.0
O120 O 0.55892 0.04925 0.22504 0.0
Cd121 Cd 0.56742 0.04702 0.18819 0.0
O122 O 0.5014 0.00217 0.22617 0.0
Cd123 Cd 0.49106 0.98339 0.19413 0.0
O124 O 0.44962 0.93657 0.17601 0.0
C125 C 0.41632 0.92481 0.17854 0.0
O126 O 0.4101 0.94256 0.19018 0.0
C127 C 0.53026 0.0284 0.23516 0.0
C128 C 0.62801 0.11103 0.17632 0.0
O129 O 0.59495 0.10095 0.1741 0.0
O130 O 0.63239 0.09076 0.18388 0.0
O131 O 0.54867 0.51549 0.59073 0.0
Cd132 Cd 0.54648 0.51539 0.55333 0.0
O133 O 0.51428 0.53137 0.59582 0.0
Cd134 Cd 0.51229 0.54283 0.56425 0.0
O135 O 0.51325 0.57822 0.54563 0.0
C136 C 0.52864 0.607 0.55474 0.0
O137 O 0.54283 0.61255 0.57331 0.0
C138 C 0.53203 0.52202 0.60286 0.0
C139 C 0.54069 0.46052 0.53632 0.0
O140 O 0.57236 0.48931 0.5402 0.0
O141 O 0.51178 0.45783 0.54018 0.0
O142 O 0.08126 0.52156 0.89294 0.0
Cd143 Cd 0.11265 0.52214 0.86159 0.0
O144 O 0.03864 0.52461 0.88095 0.0
Cd145 Cd 0.98961 0.52395 0.88181 0.0
O146 O 0.93893 0.5199 0.87699 0.0
C147 C 0.93461 0.54024 0.88577 0.0
O148 O 0.9609 0.56454 0.8984 0.0
C149 C 0.05463 0.52263 0.89603 0.0
C150 C 0.17517 0.52396 0.86593 0.0
O151 O 0.17888 0.5512 0.8651 0.0
O152 O 0.14209 0.49593 0.86544 0.0
O153 O 0.04584 0.53453 0.40797 0.0
Cd154 Cd 0.05064 0.54265 0.44533 0.0
O155 O 0.99128 0.48391 0.40448 0.0
Cd156 Cd 0.97734 0.47194 0.43656 0.0
O157 O 0.93652 0.43171 0.45639 0.0
C158 C 0.9031 0.41986 0.45363 0.0
O159 O 0.89576 0.43388 0.44036 0.0
C160 C 0.0198 0.50976 0.3966 0.0
C161 C 0.11488 0.60819 0.45599 0.0
O162 O 0.11527 0.58306 0.4549 0.0
O163 O 0.08399 0.60223 0.45249 0.0
O164 O 0.52201 0.98619 0.74965 0.0
Cd165 Cd 0.52726 0.98521 0.7868 0.0
O166 O 0.51371 0.02467 0.7507 0.0
Cd167 Cd 0.51736 0.03523 0.78376 0.0
O168 O 0.51833 0.06898 0.80638 0.0
C169 C 0.54492 0.10047 0.80575 0.0
O170 O 0.57151 0.11053 0.79286 0.0
C171 C 0.5166 0.00447 0.74046 0.0
C172 C 0.53376 0.93565 0.79603 0.0
O173 O 0.50207 0.92892 0.79532 0.0
O174 O 0.56234 0.96588 0.79266 0.0
O175 O 0.50247 0.45897 0.10894 0.0
Cd176 Cd 0.48083 0.4468 0.14423 0.0
O177 O 0.55732 0.50799 0.11586 0.0
Cd178 Cd 0.54031 0.51198 0.14612 0.0
O179 O 0.49826 0.51389 0.15911 0.0
C180 C 0.47478 0.50686 0.14534 0.0
O181 O 0.47888 0.49968 0.1265 0.0
C182 C 0.53417 0.48395 0.10306 0.0
C183 C 0.52297 0.43526 0.16644 0.0
O184 O 0.4941 0.41096 0.15605 0.0
O185 O 0.53099 0.46448 0.16681 0.0
H186 H 0.17624 0.47589 0.16571 0.0
H187 H 0.22987 0.48097 0.17728 0.0
H188 H 0.29401 0.54869 0.12913 0.0
H189 H 0.24074 0.54441 0.11795 0.0
H190 H 0.2601 0.45984 0.15578 0.0
H191 H 0.36887 0.59575 0.17551 0.0
H192 H 0.32078 0.57737 0.17231 0.0
H193 H 0.3497 0.5898 0.15037 0.0
C194 C 0.20202 0.49226 0.15783 0.0
C195 C 0.20444 0.50963 0.14089 0.0
C196 C 0.23264 0.49528 0.1645 0.0
C197 C 0.26614 0.51558 0.15427 0.0
C198 C 0.26884 0.53368 0.13767 0.0
H199 H 0.41736 0.48628 0.1198 0.0
H200 H 0.36659 0.48775 0.12656 0.0
C201 C 0.23833 0.53101 0.13116 0.0
C202 C 0.29654 0.51437 0.15913 0.0
H203 H 0.39042 0.56383 0.16516 0.0
C204 C 0.28847 0.48259 0.15832 0.0
C205 C 0.33352 0.54393 0.16282 0.0
C206 C 0.34363 0.57857 0.16553 0.0
C207 C 0.31664 0.47975 0.15954 0.0
C208 C 0.35383 0.50945 0.16118 0.0
C209 C 0.36183 0.54111 0.16359 0.0
C210 C 0.38454 0.5082 0.1578 0.0
C211 C 0.30644 0.44499 0.15828 0.0
C212 C 0.41184 0.51982 0.17307 0.0
C213 C 0.44113 0.51903 0.16925 0.0
C214 C 0.44363 0.50703 0.15 0.0
C215 C 0.41624 0.49561 0.13479 0.0
C216 C 0.38706 0.49625 0.13865 0.0
H217 H 0.27799 0.42562 0.16367 0.0
H218 H 0.3073 0.43797 0.14208 0.0
H219 H 0.3261 0.44441 0.16754 0.0
H220 H 0.41041 0.52939 0.18789 0.0
H221 H 0.46195 0.52814 0.18122 0.0
H222 H 0.65042 0.11283 0.50788 0.0
H223 H 0.70775 0.17114 0.50733 0.0
H224 H 0.64793 0.2013 0.4805 0.0
H225 H 0.59064 0.14346 0.48126 0.0
H226 H 0.74 0.20716 0.47286 0.0
H227 H 0.70902 0.2746 0.52574 0.0
H228 H 0.68227 0.22918 0.52476 0.0
H229 H 0.67367 0.24893 0.50617 0.0
C230 C 0.64934 0.13196 0.50214 0.0
C231 C 0.61584 0.12339 0.4946 0.0
C232 C 0.68216 0.16527 0.50183 0.0
C233 C 0.68205 0.1907 0.49415 0.0
C234 C 0.64858 0.18231 0.48693 0.0
H235 H 0.8293 0.38871 0.4505 0.0
H236 H 0.77817 0.33396 0.46306 0.0
C237 C 0.61582 0.14907 0.48722 0.0
C238 C 0.71722 0.22537 0.4921 0.0
H239 H 0.75903 0.30892 0.50293 0.0
C240 C 0.74449 0.22942 0.47972 0.0
C241 C 0.72298 0.25436 0.50105 0.0
C242 C 0.69558 0.2516 0.51534 0.0
C243 C 0.77653 0.26169 0.47519 0.0
C244 C 0.78168 0.29068 0.48357 0.0
C245 C 0.75499 0.28665 0.4965 0.0
C246 C 0.81316 0.32524 0.47778 0.0
C247 C 0.80369 0.26444 0.46067 0.0
C248 C 0.84988 0.33898 0.4824 0.0
C249 C 0.8793 0.37035 0.47519 0.0
C250 C 0.87245 0.38854 0.46329 0.0
C251 C 0.83561 0.37533 0.45951 0.0
C252 C 0.8063 0.34404 0.46671 0.0
H253 H 0.79207 0.23986 0.45246 0.0
H254 H 0.81216 0.28341 0.44916 0.0
H255 H 0.82884 0.27288 0.46948 0.0
H256 H 0.85577 0.32513 0.49123 0.0
H257 H 0.90733 0.37989 0.47848 0.0
H258 H 0.52081 0.67894 0.83481 0.0
H259 H 0.50931 0.71928 0.82938 0.0
H260 H 0.6174 0.78787 0.80399 0.0
H261 H 0.62842 0.74718 0.8084 0.0
H262 H 0.54625 0.78381 0.84517 0.0
H263 H 0.55293 0.78385 0.7605 0.0
H264 H 0.54955 0.7525 0.77496 0.0
H265 H 0.59356 0.79358 0.77254 0.0
C266 C 0.5419 0.70236 0.82774 0.0
C267 C 0.5755 0.70969 0.82196 0.0
C268 C 0.53538 0.7255 0.8248 0.0
C269 C 0.56224 0.75636 0.81596 0.0
C270 C 0.59593 0.76392 0.81041 0.0
H271 H 0.59589 0.94035 0.79417 0.0
H272 H 0.60111 0.89595 0.79972 0.0
C273 C 0.60239 0.74077 0.81323 0.0
C274 C 0.5556 0.78115 0.81307 0.0
H275 H 0.55594 0.82853 0.77724 0.0
C276 C 0.54799 0.79334 0.83029 0.0
C277 C 0.55773 0.79347 0.79362 0.0
C278 C 0.56351 0.77993 0.77432 0.0
C279 C 0.54363 0.81829 0.82867 0.0
C280 C 0.54681 0.83121 0.80933 0.0
C281 C 0.55381 0.81869 0.79207 0.0
C282 C 0.54353 0.85816 0.8067 0.0
C283 C 0.53664 0.83136 0.84769 0.0
C284 C 0.50935 0.8515 0.80874 0.0
C285 C 0.50619 0.87677 0.80548 0.0
C286 C 0.53722 0.90915 0.80016 0.0
C287 C 0.57148 0.91574 0.79831 0.0
C288 C 0.57453 0.89041 0.80144 0.0
H289 H 0.54096 0.82282 0.86191 0.0
H290 H 0.5551 0.85944 0.84845 0.0
H291 H 0.50765 0.82203 0.84712 0.0
H292 H 0.48502 0.82663 0.81258 0.0
H293 H 0.4794 0.87085 0.80699 0.0
H294 H 0.82564 0.52533 0.20633 0.0
H295 H 0.76105 0.50104 0.20948 0.0
H296 H 0.72744 0.40202 0.19227 0.0
H297 H 0.79244 0.42609 0.18945 0.0
H298 H 0.69631 0.4223 0.16787 0.0
H299 H 0.67904 0.44141 0.24959 0.0
H300 H 0.71949 0.47902 0.23951 0.0
H301 H 0.71654 0.44194 0.24083 0.0
C302 C 0.80469 0.4982 0.20389 0.0
C303 C 0.81427 0.47767 0.1976 0.0
C304 C 0.76769 0.48433 0.20573 0.0
C305 C 0.73949 0.44966 0.20141 0.0
C306 C 0.74887 0.42881 0.19584 0.0
H307 H 0.51563 0.3772 0.16742 0.0
H308 H 0.56238 0.37239 0.17919 0.0
C309 C 0.78597 0.44266 0.19407 0.0
C310 C 0.70068 0.43661 0.1999 0.0
H311 H 0.63715 0.43816 0.22536 0.0
C312 C 0.68279 0.42481 0.18054 0.0
C313 C 0.68329 0.44001 0.21648 0.0
C314 C 0.70046 0.45097 0.23782 0.0
C315 C 0.64938 0.41904 0.17687 0.0
C316 C 0.63308 0.42448 0.19319 0.0
C317 C 0.64973 0.43405 0.21288 0.0
C318 C 0.60201 0.42513 0.1894 0.0
C319 C 0.63339 0.40975 0.15524 0.0
C320 C 0.60808 0.45588 0.1923 0.0
C321 C 0.58143 0.45864 0.18581 0.0
C322 C 0.5482 0.43067 0.17624 0.0
C323 C 0.54113 0.39928 0.17456 0.0
C324 C 0.56783 0.39651 0.18119 0.0
H325 H 0.65277 0.41213 0.14389 0.0
H326 H 0.60765 0.38312 0.15427 0.0
H327 H 0.6263 0.4261 0.15086 0.0
H328 H 0.63426 0.47825 0.19866 0.0
H329 H 0.58765 0.48312 0.18747 0.0
H330 H 0.44134 0.89499 0.48998 0.0
H331 H 0.38507 0.83613 0.48577 0.0
H332 H 0.32523 0.86952 0.46403 0.0
H333 H 0.38138 0.92825 0.46773 0.0
H334 H 0.3183 0.8041 0.50373 0.0
H335 H 0.29996 0.7996 0.41953 0.0
H336 H 0.34218 0.83368 0.43311 0.0
H337 H 0.30295 0.83321 0.43257 0.0
C338 C 0.41626 0.88982 0.48418 0.0
C339 C 0.41597 0.91636 0.47903 0.0
C340 C 0.3841 0.85614 0.48181 0.0
C341 C 0.35107 0.84835 0.47423 0.0
C342 C 0.3506 0.87483 0.46938 0.0
H343 H 0.12429 0.66709 0.45494 0.0
H344 H 0.18184 0.72499 0.46036 0.0
C345 C 0.38274 0.90845 0.47162 0.0
C346 C 0.31687 0.81262 0.47186 0.0
H347 H 0.24902 0.75356 0.4372 0.0
C348 C 0.30331 0.79296 0.48915 0.0
C349 C 0.29735 0.79806 0.45281 0.0
C350 C 0.31152 0.81711 0.43341 0.0
C351 C 0.2703 0.75944 0.488 0.0
C352 C 0.25051 0.7452 0.46906 0.0
C353 C 0.26417 0.76469 0.45174 0.0
C354 C 0.21551 0.71004 0.46681 0.0
C355 C 0.25633 0.73971 0.50713 0.0
C356 C 0.21544 0.68248 0.46864 0.0
C357 C 0.18263 0.64934 0.46546 0.0
C358 C 0.14928 0.64319 0.46042 0.0
C359 C 0.14943 0.67091 0.45887 0.0
C360 C 0.18229 0.70402 0.46192 0.0
H361 H 0.27079 0.75629 0.52121 0.0
H362 H 0.22615 0.72597 0.50845 0.0
H363 H 0.26098 0.72066 0.50627 0.0
H364 H 0.24091 0.68663 0.47214 0.0
H365 H 0.1835 0.62857 0.46672 0.0
H366 H 0.57196 0.36106 0.85655 0.0
H367 H 0.57715 0.31644 0.84899 0.0
H368 H 0.46607 0.24199 0.86926 0.0
H369 H 0.45992 0.28613 0.8759 0.0
H370 H 0.57141 0.27038 0.87336 0.0
H371 H 0.46134 0.20431 0.81218 0.0
H372 H 0.48078 0.24605 0.82273 0.0
H373 H 0.44646 0.20932 0.83644 0.0
C374 C 0.54846 0.33516 0.85921 0.0
C375 C 0.51536 0.3272 0.86662 0.0
C376 C 0.55161 0.30972 0.85505 0.0
C377 C 0.52177 0.27582 0.85822 0.0
C378 C 0.48918 0.2679 0.8663 0.0
H379 H 0.48929 0.08879 0.82946 0.0
H380 H 0.48443 0.13089 0.84478 0.0
C381 C 0.4859 0.29327 0.87034 0.0
C382 C 0.52464 0.24877 0.85272 0.0
H383 H 0.48652 0.17768 0.82159 0.0
C384 C 0.55284 0.25008 0.86206 0.0
C385 C 0.50041 0.22234 0.83793 0.0
C386 C 0.47076 0.22048 0.82658 0.0
C387 C 0.55735 0.22557 0.85707 0.0
C388 C 0.53324 0.19929 0.84223 0.0
C389 C 0.50478 0.19774 0.83309 0.0
C390 C 0.53805 0.17407 0.83508 0.0
C391 C 0.58771 0.22785 0.86781 0.0
C392 C 0.56996 0.18442 0.82473 0.0
C393 C 0.57281 0.16047 0.81594 0.0
C394 C 0.54369 0.12566 0.81724 0.0
C395 C 0.51225 0.11538 0.82821 0.0
C396 C 0.50938 0.13939 0.83695 0.0
H397 H 0.597 0.24348 0.88242 0.0
H398 H 0.57847 0.20232 0.87109 0.0
H399 H 0.61185 0.23985 0.85774 0.0
H400 H 0.59211 0.21103 0.82278 0.0
H401 H 0.59738 0.16928 0.80757 0.0
H402 H 0.55647 0.85599 0.4783 0.0
H403 H 0.55034 0.80436 0.47961 0.0
H404 H 0.49881 0.78457 0.53818 0.0
H405 H 0.50421 0.83569 0.5368 0.0
H406 H 0.58323 0.79329 0.50969 0.0
H407 H 0.43156 0.69197 0.5072 0.0
H408 H 0.45292 0.73419 0.49936 0.0
H409 H 0.44624 0.72528 0.52609 0.0
C410 C 0.54307 0.8402 0.49123 0.0
C411 C 0.53088 0.84991 0.50747 0.0
C412 C 0.53974 0.81082 0.49199 0.0
C413 C 0.52372 0.79042 0.50886 0.0
C414 C 0.51062 0.79958 0.52482 0.0
H415 H 0.56086 0.67072 0.5705 0.0
H416 H 0.55997 0.71377 0.55606 0.0
C417 C 0.51411 0.829 0.52413 0.0
C418 C 0.52382 0.76142 0.51087 0.0
H419 H 0.46826 0.67769 0.521 0.0
C420 C 0.55805 0.76788 0.5118 0.0
C421 C 0.49094 0.72819 0.51333 0.0
C422 C 0.4533 0.71936 0.51124 0.0
C423 C 0.56041 0.74243 0.51636 0.0
C424 C 0.52773 0.70984 0.52035 0.0
C425 C 0.49333 0.70282 0.51817 0.0
C426 C 0.52899 0.68368 0.52846 0.0
C427 C 0.59797 0.75088 0.51728 0.0
C428 C 0.51122 0.65213 0.51791 0.0
C429 C 0.51154 0.62724 0.52619 0.0
C430 C 0.52934 0.63345 0.54527 0.0
C431 C 0.54706 0.66511 0.55574 0.0
C432 C 0.54678 0.68988 0.54745 0.0
H433 H 0.61806 0.77263 0.50785 0.0
H434 H 0.60878 0.75801 0.53338 0.0
H435 H 0.59638 0.72886 0.51192 0.0
H436 H 0.49708 0.64679 0.5033 0.0
H437 H 0.4975 0.60306 0.51779 0.0
H438 H 0.68496 0.57382 0.84457 0.0
H439 H 0.73817 0.57463 0.84841 0.0
H440 H 0.66787 0.47573 0.87299 0.0
H441 H 0.61471 0.47491 0.86951 0.0
H442 H 0.73069 0.51829 0.89607 0.0
H443 H 0.7671 0.52586 0.81447 0.0
H444 H 0.76523 0.55885 0.82331 0.0
H445 H 0.72378 0.51551 0.82234 0.0
C446 C 0.68068 0.55207 0.85062 0.0
C447 C 0.64534 0.52428 0.85667 0.0
C448 C 0.71121 0.55249 0.8527 0.0
C449 C 0.70716 0.52503 0.86073 0.0
C450 C 0.67187 0.49722 0.86669 0.0
H451 H 0.87468 0.49415 0.85983 0.0
H452 H 0.81918 0.48941 0.85381 0.0
C453 C 0.64138 0.49679 0.86466 0.0
C454 C 0.73982 0.52581 0.86378 0.0
H455 H 0.81109 0.53535 0.83905 0.0
C456 C 0.74813 0.52189 0.88355 0.0
C457 C 0.76248 0.53001 0.84746 0.0
C458 C 0.75406 0.53246 0.82566 0.0
C459 C 0.77867 0.52279 0.88753 0.0
C460 C 0.80218 0.52832 0.87138 0.0
C461 C 0.79342 0.53145 0.8515 0.0
C462 C 0.83613 0.53129 0.87489 0.0
C463 C 0.78514 0.51729 0.909 0.0
C464 C 0.86456 0.55667 0.88852 0.0
C465 C 0.89627 0.55942 0.892 0.0
C466 C 0.90061 0.53697 0.88186 0.0
C467 C 0.87232 0.5118 0.86799 0.0
C468 C 0.84054 0.5091 0.8645 0.0
H469 H 0.75951 0.50396 0.91797 0.0
H470 H 0.79531 0.50236 0.90881 0.0
H471 H 0.80632 0.54218 0.91706 0.0
H472 H 0.86236 0.5746 0.89642 0.0
H473 H 0.91745 0.57928 0.90267 0.0
H474 H 0.10382 0.64196 0.16301 0.0
H475 H 0.16356 0.69825 0.16498 0.0
H476 H 0.21183 0.66089 0.13003 0.0
H477 H 0.15164 0.60414 0.1277 0.0
H478 H 0.22839 0.71559 0.18282 0.0
H479 H 0.24684 0.74638 0.10065 0.0
H480 H 0.20256 0.71235 0.11049 0.0
H481 H 0.23725 0.70721 0.1064 0.0
C482 C 0.12698 0.64559 0.15559 0.0
C483 C 0.12288 0.61843 0.14521 0.0
C484 C 0.16116 0.67787 0.15674 0.0
C485 C 0.19207 0.68385 0.14752 0.0
C486 C 0.18818 0.65696 0.13696 0.0
H487 H 0.41857 0.87785 0.15744 0.0
H488 H 0.36612 0.81846 0.14837 0.0
C489 C 0.1538 0.62451 0.13574 0.0
C490 C 0.22845 0.71805 0.14999 0.0
H491 H 0.29416 0.78798 0.12413 0.0
C492 C 0.2429 0.7313 0.16996 0.0
C493 C 0.24746 0.73842 0.13318 0.0
C494 C 0.23276 0.72561 0.11145 0.0
C495 C 0.27524 0.76464 0.17364 0.0
C496 C 0.29342 0.78544 0.15693 0.0
C497 C 0.27997 0.7719 0.13688 0.0
C498 C 0.32484 0.8219 0.16034 0.0
C499 C 0.28944 0.77764 0.19544 0.0
C500 C 0.31873 0.84356 0.1695 0.0
C501 C 0.34842 0.87732 0.17465 0.0
C502 C 0.3849 0.89015 0.17074 0.0
C503 C 0.39083 0.86874 0.16071 0.0
C504 C 0.36095 0.83484 0.15551 0.0
H505 H 0.27766 0.75665 0.20593 0.0
H506 H 0.32009 0.79374 0.19638 0.0
H507 H 0.28147 0.79334 0.20088 0.0
H508 H 0.29097 0.83406 0.17314 0.0
H509 H 0.34278 0.89309 0.18222 0.0
H510 H 0.53114 0.21325 0.45862 0.0
H511 H 0.54403 0.26753 0.46672 0.0
H512 H 0.47838 0.22711 0.52061 0.0
H513 H 0.46607 0.17316 0.51291 0.0
H514 H 0.49237 0.28003 0.47125 0.0
H515 H 0.57698 0.31603 0.54244 0.0
H516 H 0.56732 0.28351 0.52406 0.0
H517 H 0.53306 0.27441 0.54211 0.0
C518 C 0.5198 0.21606 0.47232 0.0
C519 C 0.49762 0.1889 0.48514 0.0
C520 C 0.52702 0.247 0.47685 0.0
C521 C 0.51253 0.25144 0.49439 0.0
C522 C 0.49029 0.22437 0.50716 0.0
H523 H 0.47757 0.39642 0.52652 0.0
H524 H 0.47252 0.34707 0.51485 0.0
C525 C 0.48296 0.19344 0.50261 0.0
C526 C 0.51981 0.28405 0.49914 0.0
H527 H 0.55642 0.34801 0.53601 0.0
C528 C 0.50662 0.29507 0.48532 0.0
C529 C 0.53882 0.30381 0.51738 0.0
C530 C 0.5552 0.29408 0.53228 0.0
C531 C 0.5109 0.3248 0.48959 0.0
C532 C 0.52843 0.34373 0.50828 0.0
C533 C 0.54268 0.33329 0.52177 0.0
C534 C 0.5316 0.37405 0.51438 0.0
C535 C 0.49674 0.33576 0.47405 0.0
C536 C 0.56649 0.40551 0.51827 0.0
C537 C 0.56949 0.43377 0.52503 0.0
C538 C 0.5376 0.43101 0.52819 0.0
C539 C 0.50269 0.39947 0.52416 0.0
C540 C 0.49973 0.37125 0.51737 0.0
H541 H 0.4935 0.32417 0.45851 0.0
H542 H 0.46922 0.32758 0.47863 0.0
H543 H 0.51564 0.36371 0.47324 0.0
H544 H 0.59143 0.40815 0.51617 0.0
H545 H 0.5968 0.45766 0.52805 0.0
H546 H 0.48603 0.57327 0.8489 0.0
H547 H 0.4341 0.57463 0.85128 0.0
H548 H 0.36509 0.47333 0.87252 0.0
H549 H 0.41709 0.47218 0.87077 0.0
H550 H 0.3681 0.53799 0.83237 0.0
H551 H 0.34538 0.5186 0.91539 0.0
H552 H 0.38571 0.52774 0.90338 0.0
H553 H 0.34259 0.48529 0.9021 0.0
C554 C 0.45986 0.55131 0.85418 0.0
C555 C 0.45599 0.52271 0.8598 0.0
C556 C 0.43009 0.55212 0.85553 0.0
C557 C 0.39563 0.52437 0.86253 0.0
C558 C 0.39153 0.49553 0.86771 0.0
H559 H 0.17657 0.47112 0.87094 0.0
H560 H 0.23024 0.47206 0.87028 0.0
C561 C 0.42135 0.49481 0.86654 0.0
C562 C 0.36381 0.52525 0.86384 0.0
H563 H 0.29803 0.51299 0.89599 0.0
C564 C 0.35304 0.53279 0.84635 0.0
C565 C 0.34393 0.51854 0.88208 0.0
C566 C 0.35521 0.51244 0.90185 0.0
C567 C 0.3227 0.53303 0.84645 0.0
C568 C 0.30253 0.52576 0.86456 0.0
C569 C 0.31332 0.51838 0.88207 0.0
C570 C 0.27009 0.52559 0.86556 0.0
C571 C 0.31191 0.54034 0.82701 0.0
C572 C 0.27456 0.55547 0.86353 0.0
C573 C 0.24393 0.55508 0.86406 0.0
C574 C 0.20801 0.52473 0.86657 0.0
C575 C 0.20372 0.49494 0.86894 0.0
C576 C 0.23443 0.49542 0.86857 0.0
H577 H 0.32513 0.53847 0.81339 0.0
H578 H 0.28142 0.52257 0.82442 0.0
H579 H 0.32078 0.5664 0.82844 0.0
H580 H 0.30181 0.57917 0.86149 0.0
H581 H 0.24837 0.57852 0.86221 0.0
H582 H 0.91887 0.39887 0.11464 0.0
H583 H 0.8615 0.34105 0.11724 0.0
H584 H 0.84588 0.36787 0.1776 0.0
H585 H 0.90199 0.42591 0.17464 0.0
H586 H 0.84404 0.29484 0.14159 0.0
H587 H 0.74506 0.3202 0.15415 0.0
H588 H 0.79178 0.3525 0.14651 0.0
H589 H 0.78183 0.34312 0.17313 0.0
C590 C 0.90289 0.39251 0.12834 0.0
C591 C 0.9148 0.41701 0.14437 0.0
C592 C 0.87012 0.35944 0.12983 0.0
C593 C 0.84882 0.35011 0.14746 0.0
C594 C 0.86097 0.37456 0.16354 0.0
H595 H 0.69979 0.14676 0.18954 0.0
H596 H 0.75263 0.20413 0.18145 0.0
C597 C 0.89331 0.40775 0.1619 0.0
C598 C 0.81511 0.31445 0.14952 0.0
H599 H 0.72494 0.26579 0.16361 0.0
C600 C 0.81788 0.28849 0.14616 0.0
C601 C 0.78065 0.30589 0.15511 0.0
C602 C 0.77454 0.3319 0.1572 0.0
C603 C 0.78763 0.25448 0.1488 0.0
C604 C 0.75396 0.24621 0.15581 0.0
C605 C 0.75084 0.27204 0.15856 0.0
C606 C 0.7218 0.21112 0.16063 0.0
C607 C 0.79209 0.22782 0.1437 0.0
C608 C 0.6864 0.19623 0.15232 0.0
C609 C 0.65589 0.16371 0.1574 0.0
C610 C 0.66025 0.14528 0.17071 0.0
C611 C 0.69565 0.16014 0.179 0.0
C612 C 0.72598 0.19289 0.17424 0.0
H613 H 0.81356 0.23641 0.13208 0.0
H614 H 0.80117 0.22292 0.15773 0.0
H615 H 0.76575 0.20373 0.13775 0.0
H616 H 0.68233 0.20978 0.14188 0.0
H617 H 0.62894 0.15293 0.15079 0.0
H618 H 1.00231 0.48576 0.08752 0.0
H619 H 0.00732 0.48491 0.0502 0.0
H620 H 0.01434 0.5739 0.04844 0.0
H621 H 0.01069 0.57552 0.08584 0.0
H622 H 0.9639 0.47827 0.01987 0.0
H623 H 0.10323 0.60286 0.01641 0.0
H624 H 0.08392 0.58247 0.04017 0.0
H625 H 0.07028 0.60521 0.02898 0.0
C626 C 1.00509 0.50521 0.07916 0.0
C627 C 0.00637 0.53085 0.08955 0.0
C628 C 0.00787 0.50468 0.05784 0.0
C629 C 0.01184 0.52967 0.0465 0.0
C630 C 0.01229 0.55487 0.05686 0.0
H631 H 0.02792 0.55377 0.91344 0.0
H632 H 0.01345 0.55454 0.94961 0.0
C633 C 0.00994 0.55564 0.07822 0.0
C634 C 0.01517 0.52905 0.02386 0.0
H635 H 0.07155 0.57532 0.98467 0.0
C636 C 0.98743 0.49954 0.0122 0.0
C637 C 0.04593 0.55678 0.0138 0.0
C638 C 0.07772 0.58849 0.02548 0.0
C639 C 0.98972 0.49697 0.99084 0.0
C640 C 0.02044 0.52462 0.98089 0.0
C641 C 0.04783 0.55433 0.9924 0.0
C642 C 0.02619 0.5222 0.9588 0.0
C643 C 0.95955 0.46466 0.97899 0.0
C644 C 0.03799 0.50371 0.95209 0.0
C645 C 0.04636 0.50333 0.93157 0.0
C646 C 0.04271 0.52116 0.9173 0.0
C647 C 0.03013 0.53914 0.92396 0.0
C648 C 0.02217 0.53984 0.94462 0.0
H649 H 0.93476 0.44777 0.98831 0.0
H650 H 0.95124 0.47038 0.96498 0.0
H651 H 0.97014 0.45091 0.97404 0.0
H652 H 0.04158 0.49021 0.96287 0.0
H653 H 0.05608 0.48933 0.9269 0.0
H654 H 0.59619 0.05697 0.42855 0.0
H655 H 0.5951 0.06405 0.39185 0.0
H656 H 0.47625 0.00389 0.39213 0.0
H657 H 0.47737 0.99761 0.42906 0.0
H658 H 0.56267 0.01499 0.36224 0.0
H659 H 0.5035 0.08222 0.35981 0.0
H660 H 0.52038 0.07804 0.38333 0.0
H661 H 0.47516 0.04358 0.37293 0.0
C662 C 0.56988 0.04559 0.42081 0.0
C663 C 0.53685 0.02667 0.43157 0.0
C664 C 0.56929 0.04967 0.39987 0.0
C665 C 0.53566 0.03485 0.38926 0.0
C666 C 0.50261 0.01624 0.40006 0.0
H667 H 0.47212 0.99299 0.26086 0.0
H668 H 0.47425 0.99738 0.29835 0.0
C669 C 0.50323 0.01242 0.42111 0.0
C670 C 0.53517 0.03684 0.36668 0.0
H671 H 0.50688 0.05967 0.32774 0.0
C672 C 0.55079 0.02508 0.35474 0.0
C673 C 0.51958 0.04994 0.35689 0.0
C674 C 0.50403 0.06447 0.3689 0.0
C675 C 0.55069 0.02552 0.3333 0.0
C676 C 0.53471 0.03819 0.32353 0.0
C677 C 0.51914 0.05003 0.33537 0.0
C678 C 0.53311 0.03825 0.30094 0.0
C679 C 0.56697 0.01177 0.32115 0.0
C680 C 0.56543 0.06037 0.29007 0.0
C681 C 0.56436 0.05805 0.26863 0.0
C682 C 0.53093 0.03339 0.25774 0.0
C683 C 0.49837 0.01212 0.26875 0.0
C684 C 0.49946 0.01463 0.29017 0.0
H685 H 0.57321 0.99827 0.33082 0.0
H686 H 0.54768 0.99414 0.3084 0.0
H687 H 0.59307 0.03299 0.31431 0.0
H688 H 0.59163 0.07887 0.2982 0.0
H689 H 0.58991 0.07486 0.26064 0.0
H690 H 0.47263 0.46122 0.79197 0.0
H691 H 0.47762 0.46702 0.75488 0.0
H692 H 0.59569 0.54479 0.76237 0.0
H693 H 0.59078 0.53934 0.79962 0.0
H694 H 0.5629 0.56131 0.73593 0.0
H695 H 0.51819 0.43309 0.71539 0.0
H696 H 0.48605 0.43262 0.73122 0.0
H697 H 0.53171 0.45163 0.74124 0.0
C698 C 0.49966 0.47951 0.7857 0.0
C699 C 0.53135 0.49971 0.79861 0.0
C700 C 0.5025 0.48264 0.76451 0.0
C701 C 0.53711 0.50584 0.75585 0.0
C702 C 0.56876 0.52653 0.76875 0.0
H703 H 0.57029 0.50616 0.6238 0.0
H704 H 0.57452 0.50392 0.66096 0.0
C705 C 0.56592 0.52342 0.78999 0.0
C706 C 0.53997 0.50893 0.73334 0.0
H707 H 0.51923 0.46343 0.688 0.0
C708 C 0.55367 0.54001 0.72544 0.0
C709 C 0.52848 0.48127 0.71969 0.0
C710 C 0.51564 0.44786 0.72729 0.0
C711 C 0.55489 0.54382 0.70422 0.0
C712 C 0.54147 0.51561 0.69059 0.0
C713 C 0.52908 0.4849 0.69848 0.0
C714 C 0.53914 0.5172 0.6681 0.0
C715 C 0.57065 0.57803 0.69661 0.0
C716 C 0.51732 0.5248 0.65981 0.0
C717 C 0.51486 0.52615 0.63863 0.0
C718 C 0.53395 0.51961 0.62528 0.0
C719 C 0.55529 0.51139 0.63363 0.0
C720 C 0.55778 0.51012 0.65485 0.0
H721 H 0.58934 0.59868 0.70834 0.0
H722 H 0.58624 0.58304 0.68239 0.0
H723 H 0.54768 0.57874 0.69313 0.0
H724 H 0.50197 0.52952 0.66972 0.0
H725 H 0.49798 0.53233 0.63275 0.0
H726 H 0.55558 0.03675 0.54421 0.0
H727 H 0.56036 0.02938 0.5805 0.0
H728 H 0.44588 0.98582 0.58757 0.0
H729 H 0.44069 0.99219 0.55114 0.0
H730 H 0.55175 0.05783 0.61297 0.0
H731 H 0.44987 0.91852 0.61559 0.0
H732 H 0.46694 0.93959 0.59181 0.0
H733 H 0.43038 0.93637 0.60463 0.0
C734 C 0.53132 0.02518 0.55346 0.0
C735 C 0.4977 0.01486 0.54489 0.0
C736 C 0.53409 0.02103 0.57418 0.0
C737 C 0.50332 0.00652 0.58668 0.0
C738 C 0.46972 0.99624 0.57811 0.0
H739 H 0.50139 0.03747 0.71646 0.0
H740 H 0.49953 0.03682 0.67915 0.0
C741 C 0.46686 1.00018 0.55735 0.0
C742 C 0.50705 0.0043 0.60896 0.0
H743 H 0.4687 0.95013 0.64796 0.0
C744 C 0.53384 0.03421 0.62057 0.0
C745 C 0.48409 0.9734 0.61884 0.0
C746 C 0.45647 0.9401 0.60704 0.0
C747 C 0.53738 0.03427 0.64189 0.0
C748 C 0.51291 0.00375 0.65192 0.0
C749 C 0.48709 0.97359 0.64025 0.0
C750 C 0.51292 0.00297 0.67457 0.0
C751 C 0.56733 0.06708 0.65346 0.0
C752 C 0.51978 0.98317 0.68438 0.0
C753 C 0.52059 0.98325 0.70582 0.0
C754 C 0.51438 0.00304 0.71776 0.0
C755 C 0.50664 0.02218 0.70778 0.0
C756 C 0.50576 0.022 0.68643 0.0
H757 H 0.59011 0.08519 0.64329 0.0
H758 H 0.55541 0.07905 0.65976 0.0
H759 H 0.57911 0.06272 0.66642 0.0
H760 H 0.52508 0.96809 0.67547 0.0
H761 H 0.52649 0.96814 0.713 0.0
H762 H 0.5125 0.50026 0.91123 0.0
H763 H 0.51011 0.48753 0.94727 0.0
H764 H 0.62758 0.56797 0.95464 0.0
H765 H 0.6302 0.58081 0.91861 0.0
H766 H 0.55321 0.47138 0.96853 0.0
H767 H 0.57859 0.58858 -0.00023 0.0
H768 H 0.56321 0.57259 0.97357 0.0
H769 H 0.6106 0.59419 0.9812 0.0
C770 C 0.5378 0.51518 0.92055 0.0
C771 C 0.57152 0.54161 0.91223 0.0
C772 C 0.5364 0.50784 0.94106 0.0
C773 C 0.56861 0.52701 0.95357 0.0
C774 C 0.60238 0.55317 0.94523 0.0
H775 H 0.59967 0.53215 0.08521 0.0
H776 H 0.61088 0.5406 0.04859 0.0
C777 C 0.60383 0.56044 0.9247 0.0
C778 C 0.56675 0.52001 0.97545 0.0
H779 H 0.57448 0.55294 0.02365 0.0
C780 C 0.55792 0.48917 0.98064 0.0
C781 C 0.57308 0.5434 0.99109 0.0
C782 C 0.58164 0.57648 0.98624 0.0
C783 C 0.55538 0.48114 0.00121 0.0
C784 C 0.56106 0.5043 0.01688 0.0
C785 C 0.57032 0.5353 0.01162 0.0
C786 C 0.5558 0.49646 0.0388 0.0
C787 C 0.54706 0.44814 0.00594 0.0
C788 C 0.5213 0.46852 0.04543 0.0
C789 C 0.51486 0.46349 0.06633 0.0
C790 C 0.54267 0.4866 0.08102 0.0
C791 C 0.57763 0.51391 0.07431 0.0
C792 C 0.58409 0.5188 0.05339 0.0
H793 H 0.55513 0.43878 0.99324 0.0
H794 H 0.56164 0.45077 0.02029 0.0
H795 H 0.51686 0.42874 0.00792 0.0
H796 H 0.49879 0.45139 0.03448 0.0
H797 H 0.48756 0.44229 0.07096 0.0
H798 H 0.01904 0.45696 0.20276 0.0
H799 H 0.01782 0.45996 0.24028 0.0
H800 H 0.04852 0.55971 0.23915 0.0
H801 H 0.04985 0.55688 0.20162 0.0
H802 H 0.07635 0.50936 0.2686 0.0
H803 H 0.95379 0.50568 0.27353 0.0
H804 H 0.96501 0.49344 0.25032 0.0
H805 H 0.99025 0.5374 0.2578 0.0
C806 C 0.02552 0.47951 0.21053 0.0
C807 C 0.03426 0.50658 0.19933 0.0
C808 C 0.02483 0.48119 0.23192 0.0
C809 C 0.03263 0.50987 0.24243 0.0
C810 C 0.04182 0.53713 0.23129 0.0
H811 H 0.07759 0.55928 0.37408 0.0
H812 H 0.0817 0.56043 0.3367 0.0
C813 C 0.04263 0.53551 0.20989 0.0
C814 C 0.03142 0.51126 0.26508 0.0
H815 H 0.98488 0.51401 0.30475 0.0
C816 C 0.05644 0.51046 0.27654 0.0
C817 C 1.00515 0.51236 0.27531 0.0
C818 C 0.97677 0.512 0.26367 0.0
C819 C 0.05598 0.51087 0.29804 0.0
C820 C 0.03004 0.51244 0.30829 0.0
C821 C 1.00492 0.51309 0.29682 0.0
C822 C 0.02761 0.51214 0.3309 0.0
C823 C 0.08266 0.50884 0.30961 0.0
C824 C 0.99557 0.48491 0.33997 0.0
C825 C 0.99307 0.48417 0.36129 0.0
C826 C 0.02252 0.5108 0.37397 0.0
C827 C 0.05446 0.53829 0.36479 0.0
C828 C 0.05695 0.53894 0.34344 0.0
H829 H 0.09529 0.50059 0.29941 0.0
H830 H 0.10526 0.53419 0.31667 0.0
H831 H 0.06856 0.491 0.32211 0.0
H832 H 0.97258 0.46404 0.33054 0.0
H833 H 0.96801 0.46266 0.3678 0.0
loop_
_geom_bond_atom_site_label_1
_geom_bond_atom_site_label_2
_geom_bond_distance
_geom_bond_site_symmetry_2
_ccdc_geom_bond_type
Gd0 C3 2.818 . S
Gd0 O20 2.377 . S
Gd0 O22 2.448 . S
Gd0 O23 2.506 . S
Gd0 O24 2.435 . S
Gd0 O25 2.717 . S
Gd0 O27 2.395 1_455 S
Gd0 O31 2.327 . S
Gd1 C12 2.818 1_455 S
Gd1 O21 2.395 . S
Gd1 O25 2.327 . S
Gd1 O26 2.377 1_455 S
Gd1 O28 2.448 1_455 S
Gd1 O29 2.506 1_455 S
Gd1 O30 2.435 . S
Gd1 O31 2.717 . S
C2 O20 1.240 . S
C2 O21 1.240 . S
C3 Gd0 2.818 . S
C3 C4 1.510 . S
C3 O22 1.249 . S
C3 O23 1.252 . S
C4 C3 1.510 . S
C4 C5 1.404 . S
C4 C6 1.352 . S
C5 C4 1.404 . S
C5 C9 1.389 . S
C5 H32 0.930 . S
C6 C4 1.352 . S
C6 C8 1.374 . S
C6 H33 0.931 . S
C7 C8 1.359 . S
C7 C9 1.364 . S
C8 C6 1.374 . S
C8 C7 1.359 . S
C8 H34 0.931 . S
C9 C5 1.389 . S
C9 C7 1.364 . S
C9 H35 0.931 . S
C10 O24 1.256 . S
C10 O25 1.257 . S
C11 O26 1.240 . S
C11 O27 1.240 . S
C12 Gd1 2.818 1_655 S
C12 C13 1.510 . S
C12 O28 1.249 . S
C12 O29 1.252 . S
C13 C12 1.510 . S
C13 C14 1.404 . S
C13 C15 1.352 . S
C14 C13 1.404 . S
C14 C18 1.389 . S
C14 H36 0.930 . S
C15 C13 1.352 . S
C15 C17 1.374 . S
C15 H37 0.931 . S
C16 C17 1.359 . S
C16 C18 1.364 . S
C17 C15 1.374 . S
C17 C16 1.359 . S
C17 H38 0.931 . S
C18 C14 1.389 . S
C18 C16 1.364 . S
C18 H39 0.931 . S
C19 O30 1.256 . S
C19 O31 1.257 . S
O20 Gd0 2.377 . S
O20 C2 1.240 . S
O21 Gd1 2.395 . S
O21 C2 1.240 . S
O22 Gd0 2.448 . S
O22 C3 1.249 . S
O23 Gd0 2.506 . S
O23 C3 1.252 . S
O24 Gd0 2.435 . S
O24 C10 1.256 . S
O25 Gd0 2.717 . S
O25 Gd1 2.327 . S
O25 C10 1.257 . S
O26 Gd1 2.377 1_655 S
O26 C11 1.240 . S
O27 Gd0 2.395 1_655 S
O27 C11 1.240 . S
O28 Gd1 2.448 1_655 S
O28 C12 1.249 . S
O29 Gd1 2.506 1_655 S
O29 C12 1.252 . S
O30 Gd1 2.435 . S
O30 C19 1.256 . S
O31 Gd0 2.327 . S
O31 Gd1 2.717 . S
O31 C19 1.257 . S
H32 C5 0.930 . S
H33 C6 0.931 . S
H34 C8 0.931 . S
H35 C9 0.931 . S
H36 C14 0.930 . S
H37 C15 0.931 . S
H38 C17 0.931 . S
H39 C18 0.931 . S
Gd40 C43 2.818 . S
Gd40 O60 2.377 . S
Gd40 O62 2.448 . S
Gd40 O63 2.506 . S
Gd40 O64 2.435 . S
Gd40 O65 2.717 1_565 S
Gd40 O67 2.395 1_565 S
Gd40 O71 2.327 1_565 S
Gd41 C52 2.818 . S
Gd41 O61 2.395 1_545 S
Gd41 O65 2.327 . S
Gd41 O66 2.377 . S
Gd41 O68 2.448 . S
Gd41 O69 2.506 . S
Gd41 O70 2.435 . S
Gd41 O71 2.717 . S
C42 O60 1.240 . S
C42 O61 1.240 . S
C43 Gd40 2.818 . S
C43 C44 1.510 . S
C43 O62 1.249 . S
C43 O63 1.252 . S
C44 C43 1.510 . S
C44 C45 1.404 . S
C44 C46 1.352 . S
C45 C44 1.404 . S
C45 C49 1.389 . S
C45 H72 0.930 . S
C46 C44 1.352 . S
C46 C48 1.374 . S
C46 H73 0.931 . S
C47 C48 1.359 . S
C47 C49 1.364 . S
C48 C46 1.374 . S
C48 C47 1.359 . S
C48 H74 0.931 . S
C49 C45 1.389 . S
C49 C47 1.364 . S
C49 H75 0.931 . S
C50 O64 1.256 1_545 S
C50 O65 1.257 . S
C51 O66 1.240 . S
C51 O67 1.240 . S
C52 Gd41 2.818 . S
C52 C53 1.510 . S
C52 O68 1.249 . S
C52 O69 1.252 . S
C53 C52 1.510 . S
C53 C54 1.404 . S
C53 C55 1.352 . S
C54 C53 1.404 . S
C54 C58 1.389 . S
C54 H76 0.930 . S
C55 C53 1.352 . S
C55 C57 1.374 . S
C55 H77 0.931 . S
C56 C57 1.359 . S
C56 C58 1.364 . S
C57 C55 1.374 . S
C57 C56 1.359 . S
C57 H78 0.931 . S
C58 C54 1.389 . S
C58 C56 1.364 . S
C58 H79 0.931 . S
C59 O70 1.256 . S
C59 O71 1.257 . S
O60 Gd40 2.377 . S
O60 C42 1.240 . S
O61 Gd41 2.395 1_565 S
O61 C42 1.240 . S
O62 Gd40 2.448 . S
O62 C43 1.249 . S
O63 Gd40 2.506 . S
O63 C43 1.252 . S
O64 Gd40 2.435 . S
O64 C50 1.256 1_565 S
O65 Gd40 2.717 1_545 S
O65 Gd41 2.327 . S
O65 C50 1.257 . S
O66 Gd41 2.377 . S
O66 C51 1.240 . S
O67 Gd40 2.395 1_545 S
O67 C51 1.240 . S
O68 Gd41 2.448 . S
O68 C52 1.249 . S
O69 Gd41 2.506 . S
O69 C52 1.252 . S
O70 Gd41 2.435 . S
O70 C59 1.256 . S
O71 Gd40 2.327 1_545 S
O71 Gd41 2.717 . S
O71 C59 1.257 . S
H72 C45 0.930 . S
H73 C46 0.931 . S
H74 C48 0.931 . S
H75 C49 0.931 . S
H76 C54 0.930 . S
H77 C55 0.931 . S
H78 C57 0.931 . S
H79 C58 0.931 . S
Gd80 C83 2.818 . S
Gd80 O100 2.377 . S
Gd80 O102 2.448 . S
Gd80 O103 2.506 . S
Gd80 O104 2.435 . S
Gd80 O105 2.717 . S
Gd80 O107 2.395 . S
Gd80 O111 2.327 . S
Gd81 C92 2.818 . S
Gd81 O101 2.395 . S
Gd81 O105 2.327 . S
Gd81 O106 2.377 . S
Gd81 O108 2.448 . S
Gd81 O109 2.506 . S
Gd81 O110 2.435 . S
Gd81 O111 2.717 . S
C82 O100 1.240 . S
C82 O101 1.240 . S
C83 Gd80 2.818 . S
C83 C84 1.510 . S
C83 O102 1.249 . S
C83 O103 1.252 . S
C84 C83 1.510 . S
C84 C85 1.404 . S
C84 C86 1.352 . S
C85 C84 1.404 . S
C85 C89 1.389 . S
C85 H112 0.930 . S
C86 C84 1.352 . S
C86 C88 1.374 . S
C86 H113 0.931 . S
C87 C88 1.359 . S
C87 C89 1.364 . S
C88 C86 1.374 . S
C88 C87 1.359 . S
C88 H114 0.931 . S
C89 C85 1.389 . S
C89 C87 1.364 . S
C89 H115 0.931 . S
C90 O104 1.256 . S
C90 O105 1.257 . S
C91 O106 1.240 . S
C91 O107 1.240 . S
C92 Gd81 2.818 . S
C92 C93 1.510 . S
C92 O108 1.249 . S
C92 O109 1.252 . S
C93 C92 1.510 . S
C93 C94 1.404 . S
C93 C95 1.352 . S
C94 C93 1.404 . S
C94 C98 1.389 . S
C94 H116 0.930 . S
C95 C93 1.352 . S
C95 C97 1.374 . S
C95 H117 0.931 . S
C96 C97 1.359 . S
C96 C98 1.364 . S
C97 C95 1.374 . S
C97 C96 1.359 . S
C97 H118 0.931 . S
C98 C94 1.389 . S
C98 C96 1.364 . S
C98 H119 0.931 . S
C99 O110 1.256 . S
C99 O111 1.257 . S
O100 Gd80 2.377 . S
O100 C82 1.240 . S
O101 Gd81 2.395 . S
O101 C82 1.240 . S
O102 Gd80 2.448 . S
O102 C83 1.249 . S
O103 Gd80 2.506 . S
O103 C83 1.252 . S
O104 Gd80 2.435 . S
O104 C90 1.256 . S
O105 Gd80 2.717 . S
O105 Gd81 2.327 . S
O105 C90 1.257 . S
O106 Gd81 2.377 . S
O106 C91 1.240 . S
O107 Gd80 2.395 . S
O107 C91 1.240 . S
O108 Gd81 2.448 . S
O108 C92 1.249 . S
O109 Gd81 2.506 . S
O109 C92 1.252 . S
O110 Gd81 2.435 . S
O110 C99 1.256 . S
O111 Gd80 2.327 . S
O111 Gd81 2.717 . S
O111 C99 1.257 . S
H112 C85 0.930 . S
H113 C86 0.931 . S
H114 C88 0.931 . S
H115 C89 0.931 . S
H116 C94 0.930 . S
H117 C95 0.931 . S
H118 C97 0.931 . S
H119 C98 0.931 . S
O120 Cd121 2.300 . S
O120 C127 1.275 . S
Cd121 O120 2.300 . S
Cd121 O129 2.381 . S
Cd121 O130 2.378 . S
O122 Cd123 2.385 1_545 S
O122 C127 1.255 . S
Cd123 O122 2.385 1_565 S
Cd123 O124 2.317 . S
O124 Cd123 2.317 . S
O124 C125 1.232 . S
C125 O124 1.232 . S
C125 O126 1.218 . S
O126 C125 1.218 . S
C127 O120 1.275 . S
C127 O122 1.255 . S
C128 O129 1.258 . S
C128 O130 1.256 . S
O129 Cd121 2.381 . S
O129 C128 1.258 . S
O130 Cd121 2.378 . S
O130 C128 1.256 . S
O131 Cd132 2.300 . S
O131 C138 1.275 . S
Cd132 O131 2.300 . S
Cd132 O140 2.381 . S
Cd132 O141 2.378 . S
O133 Cd134 2.385 . S
O133 C138 1.255 . S
Cd134 O133 2.385 . S
Cd134 O135 2.317 . S
O135 Cd134 2.317 . S
O135 C136 1.232 . S
C136 O135 1.232 . S
C136 O137 1.218 . S
O137 C136 1.218 . S
C138 O131 1.275 . S
C138 O133 1.255 . S
C139 O140 1.258 . S
C139 O141 1.256 . S
O140 Cd132 2.381 . S
O140 C139 1.258 . S
O141 Cd132 2.378 . S
O141 C139 1.256 . S
O142 Cd143 2.300 . S
O142 C149 1.275 . S
Cd143 O142 2.300 . S
Cd143 O151 2.381 . S
Cd143 O152 2.378 . S
O144 Cd145 2.385 1_455 S
O144 C149 1.255 . S
Cd145 O144 2.385 1_655 S
Cd145 O146 2.317 . S
O146 Cd145 2.317 . S
O146 C147 1.232 . S
C147 O146 1.232 . S
C147 O148 1.218 . S
O148 C147 1.218 . S
C149 O142 1.275 . S
C149 O144 1.255 . S
C150 O151 1.258 . S
C150 O152 1.256 . S
O151 Cd143 2.381 . S
O151 C150 1.258 . S
O152 Cd143 2.378 . S
O152 C150 1.256 . S
O153 Cd154 2.300 . S
O153 C160 1.275 1_455 S
Cd154 O153 2.300 . S
Cd154 O162 2.381 . S
Cd154 O163 2.378 . S
O155 Cd156 2.385 . S
O155 C160 1.255 . S
Cd156 O155 2.385 . S
Cd156 O157 2.317 . S
O157 Cd156 2.317 . S
O157 C158 1.232 . S
C158 O157 1.232 . S
C158 O159 1.218 . S
O159 C158 1.218 . S
C160 O153 1.275 1_655 S
C160 O155 1.255 . S
C161 O162 1.258 . S
C161 O163 1.256 . S
O162 Cd154 2.381 . S
O162 C161 1.258 . S
O163 Cd154 2.378 . S
O163 C161 1.256 . S
O164 Cd165 2.300 . S
O164 C171 1.275 1_565 S
Cd165 O164 2.300 . S
Cd165 O173 2.381 . S
Cd165 O174 2.378 . S
O166 Cd167 2.385 . S
O166 C171 1.255 . S
Cd167 O166 2.385 . S
Cd167 O168 2.317 . S
O168 Cd167 2.317 . S
O168 C169 1.232 . S
C169 O168 1.232 . S
C169 O170 1.218 . S
O170 C169 1.218 . S
C171 O164 1.275 1_545 S
C171 O166 1.255 . S
C172 O173 1.258 . S
C172 O174 1.256 . S
O173 Cd165 2.381 . S
O173 C172 1.258 . S
O174 Cd165 2.378 . S
O174 C172 1.256 . S
O175 Cd176 2.300 . S
O175 C182 1.275 . S
Cd176 O175 2.300 . S
Cd176 O184 2.381 . S
Cd176 O185 2.378 . S
O177 Cd178 2.385 . S
O177 C182 1.255 . S
Cd178 O177 2.385 . S
Cd178 O179 2.317 . S
O179 Cd178 2.317 . S
O179 C180 1.232 . S
C180 O179 1.232 . S
C180 O181 1.218 . S
O181 C180 1.218 . S
C182 O175 1.275 . S
C182 O177 1.255 . S
C183 O184 1.258 . S
C183 O185 1.256 . S
O184 Cd176 2.381 . S
O184 C183 1.258 . S
O185 Cd176 2.378 . S
O185 C183 1.256 . S
H186 C194 0.929 . S
H187 C196 0.930 . S
H188 C198 0.930 . S
H189 C201 0.929 . S
H190 C204 0.930 . S
H191 C206 0.960 . S
H192 C206 0.960 . S
H193 C206 0.960 . S
C194 H186 0.929 . S
C194 C195 1.377 . S
C194 C196 1.384 . S
C195 C194 1.377 . S
C195 C201 1.390 . S
C196 H187 0.930 . S
C196 C194 1.384 . S
C196 C197 1.372 . S
C197 C196 1.372 . S
C197 C198 1.400 . S
C197 C202 1.490 . S
C198 H188 0.930 . S
C198 C197 1.400 . S
C198 C201 1.386 . S
H199 C215 0.930 . S
H200 C216 0.931 . S
C201 H189 0.929 . S
C201 C195 1.390 . S
C201 C198 1.386 . S
C202 C197 1.490 . S
C202 C204 1.395 . S
C202 C205 1.403 . S
H203 C209 0.930 . S
C204 H190 0.930 . S
C204 C202 1.395 . S
C204 C207 1.403 . S
C205 C202 1.403 . S
C205 C206 1.524 . S
C205 C209 1.400 . S
C206 H191 0.960 . S
C206 H192 0.960 . S
C206 H193 0.960 . S
C206 C205 1.524 . S
C207 C204 1.403 . S
C207 C208 1.392 . S
C207 C211 1.495 . S
C208 C207 1.392 . S
C208 C209 1.385 . S
C208 C210 1.478 . S
C209 H203 0.930 . S
C209 C205 1.400 . S
C209 C208 1.385 . S
C210 C208 1.478 . S
C210 C212 1.381 . S
C210 C216 1.383 . S
C211 C207 1.495 . S
C211 H217 0.959 . S
C211 H218 0.961 . S
C211 H219 0.960 . S
C212 C210 1.381 . S
C212 C213 1.394 . S
C212 H220 0.930 . S
C213 C212 1.394 . S
C213 C214 1.383 . S
C213 H221 0.929 . S
C214 C213 1.383 . S
C214 C215 1.377 . S
C215 H199 0.930 . S
C215 C214 1.377 . S
C215 C216 1.379 . S
C216 H200 0.931 . S
C216 C210 1.383 . S
C216 C215 1.379 . S
H217 C211 0.959 . S
H218 C211 0.961 . S
H219 C211 0.960 . S
H220 C212 0.930 . S
H221 C213 0.929 . S
H222 C230 0.929 . S
H223 C232 0.930 . S
H224 C234 0.930 . S
H225 C237 0.929 . S
H226 C240 0.930 . S
H227 C242 0.960 . S
H228 C242 0.960 . S
H229 C242 0.960 . S
C230 H222 0.929 . S
C230 C231 1.377 . S
C230 C232 1.384 . S
C231 C230 1.377 . S
C231 C237 1.390 . S
C232 H223 0.930 . S
C232 C230 1.384 . S
C232 C233 1.372 . S
C233 C232 1.372 . S
C233 C234 1.400 . S
C233 C238 1.490 . S
C234 H224 0.930 . S
C234 C233 1.400 . S
C234 C237 1.386 . S
H235 C251 0.930 . S
H236 C252 0.931 . S
C237 H225 0.929 . S
C237 C231 1.390 . S
C237 C234 1.386 . S
C238 C233 1.490 . S
C238 C240 1.395 . S
C238 C241 1.403 . S
H239 C245 0.930 . S
C240 H226 0.930 . S
C240 C238 1.395 . S
C240 C243 1.403 . S
C241 C238 1.403 . S
C241 C242 1.524 . S
C241 C245 1.400 . S
C242 H227 0.960 . S
C242 H228 0.960 . S
C242 H229 0.960 . S
C242 C241 1.524 . S
C243 C240 1.403 . S
C243 C244 1.392 . S
C243 C247 1.495 . S
C244 C243 1.392 . S
C244 C245 1.385 . S
C244 C246 1.478 . S
C245 H239 0.930 . S
C245 C241 1.400 . S
C245 C244 1.385 . S
C246 C244 1.478 . S
C246 C248 1.381 . S
C246 C252 1.383 . S
C247 C243 1.495 . S
C247 H253 0.959 . S
C247 H254 0.961 . S
C247 H255 0.960 . S
C248 C246 1.381 . S
C248 C249 1.394 . S
C248 H256 0.930 . S
C249 C248 1.394 . S
C249 C250 1.383 . S
C249 H257 0.929 . S
C250 C249 1.383 . S
C250 C251 1.377 . S
C251 H235 0.930 . S
C251 C250 1.377 . S
C251 C252 1.379 . S
C252 H236 0.931 . S
C252 C246 1.383 . S
C252 C251 1.379 . S
H253 C247 0.959 . S
H254 C247 0.961 . S
H255 C247 0.960 . S
H256 C248 0.930 . S
H257 C249 0.929 . S
H258 C266 0.929 . S
H259 C268 0.930 . S
H260 C270 0.930 . S
H261 C273 0.929 . S
H262 C276 0.930 . S
H263 C278 0.960 . S
H264 C278 0.960 . S
H265 C278 0.960 . S
C266 H258 0.929 . S
C266 C267 1.377 . S
C266 C268 1.384 . S
C267 C266 1.377 . S
C267 C273 1.390 . S
C268 H259 0.930 . S
C268 C266 1.384 . S
C268 C269 1.372 . S
C269 C268 1.372 . S
C269 C270 1.400 . S
C269 C274 1.490 . S
C270 H260 0.930 . S
C270 C269 1.400 . S
C270 C273 1.386 . S
H271 C287 0.930 . S
H272 C288 0.931 . S
C273 H261 0.929 . S
C273 C267 1.390 . S
C273 C270 1.386 . S
C274 C269 1.490 . S
C274 C276 1.395 . S
C274 C277 1.403 . S
H275 C281 0.930 . S
C276 H262 0.930 . S
C276 C274 1.395 . S
C276 C279 1.403 . S
C277 C274 1.403 . S
C277 C278 1.524 . S
C277 C281 1.400 . S
C278 H263 0.960 . S
C278 H264 0.960 . S
C278 H265 0.960 . S
C278 C277 1.524 . S
C279 C276 1.403 . S
C279 C280 1.392 . S
C279 C283 1.495 . S
C280 C279 1.392 . S
C280 C281 1.385 . S
C280 C282 1.478 . S
C281 H275 0.930 . S
C281 C277 1.400 . S
C281 C280 1.385 . S
C282 C280 1.478 . S
C282 C284 1.381 . S
C282 C288 1.383 . S
C283 C279 1.495 . S
C283 H289 0.959 . S
C283 H290 0.961 . S
C283 H291 0.960 . S
C284 C282 1.381 . S
C284 C285 1.394 . S
C284 H292 0.930 . S
C285 C284 1.394 . S
C285 C286 1.383 . S
C285 H293 0.929 . S
C286 C285 1.383 . S
C286 C287 1.377 . S
C287 H271 0.930 . S
C287 C286 1.377 . S
C287 C288 1.379 . S
C288 H272 0.931 . S
C288 C282 1.383 . S
C288 C287 1.379 . S
H289 C283 0.959 . S
H290 C283 0.961 . S
H291 C283 0.960 . S
H292 C284 0.930 . S
H293 C285 0.929 . S
H294 C302 0.929 . S
H295 C304 0.930 . S
H296 C306 0.930 . S
H297 C309 0.929 . S
H298 C312 0.930 . S
H299 C314 0.960 . S
H300 C314 0.960 . S
H301 C314 0.960 . S
C302 H294 0.929 . S
C302 C303 1.377 . S
C302 C304 1.384 . S
C303 C302 1.377 . S
C303 C309 1.390 . S
C304 H295 0.930 . S
C304 C302 1.384 . S
C304 C305 1.372 . S
C305 C304 1.372 . S
C305 C306 1.400 . S
C305 C310 1.490 . S
C306 H296 0.930 . S
C306 C305 1.400 . S
C306 C309 1.386 . S
H307 C323 0.930 . S
H308 C324 0.931 . S
C309 H297 0.929 . S
C309 C303 1.390 . S
C309 C306 1.386 . S
C310 C305 1.490 . S
C310 C312 1.395 . S
C310 C313 1.403 . S
H311 C317 0.930 . S
C312 H298 0.930 . S
C312 C310 1.395 . S
C312 C315 1.403 . S
C313 C310 1.403 . S
C313 C314 1.524 . S
C313 C317 1.400 . S
C314 H299 0.960 . S
C314 H300 0.960 . S
C314 H301 0.960 . S
C314 C313 1.524 . S
C315 C312 1.403 . S
C315 C316 1.392 . S
C315 C319 1.495 . S
C316 C315 1.392 . S
C316 C317 1.385 . S
C316 C318 1.478 . S
C317 H311 0.930 . S
C317 C313 1.400 . S
C317 C316 1.385 . S
C318 C316 1.478 . S
C318 C320 1.381 . S
C318 C324 1.383 . S
C319 C315 1.495 . S
C319 H325 0.959 . S
C319 H326 0.961 . S
C319 H327 0.960 . S
C320 C318 1.381 . S
C320 C321 1.394 . S
C320 H328 0.930 . S
C321 C320 1.394 . S
C321 C322 1.383 . S
C321 H329 0.929 . S
C322 C321 1.383 . S
C322 C323 1.377 . S
C323 H307 0.930 . S
C323 C322 1.377 . S
C323 C324 1.379 . S
C324 H308 0.931 . S
C324 C318 1.383 . S
C324 C323 1.379 . S
H325 C319 0.959 . S
H326 C319 0.961 . S
H327 C319 0.960 . S
H328 C320 0.930 . S
H329 C321 0.929 . S
H330 C338 0.929 . S
H331 C340 0.930 . S
H332 C342 0.930 . S
H333 C345 0.929 . S
H334 C348 0.930 . S
H335 C350 0.960 . S
H336 C350 0.960 . S
H337 C350 0.960 . S
C338 H330 0.929 . S
C338 C339 1.377 . S
C338 C340 1.384 . S
C339 C338 1.377 . S
C339 C345 1.390 . S
C340 H331 0.930 . S
C340 C338 1.384 . S
C340 C341 1.372 . S
C341 C340 1.372 . S
C341 C342 1.400 . S
C341 C346 1.490 . S
C342 H332 0.930 . S
C342 C341 1.400 . S
C342 C345 1.386 . S
H343 C359 0.930 . S
H344 C360 0.931 . S
C345 H333 0.929 . S
C345 C339 1.390 . S
C345 C342 1.386 . S
C346 C341 1.490 . S
C346 C348 1.395 . S
C346 C349 1.403 . S
H347 C353 0.930 . S
C348 H334 0.930 . S
C348 C346 1.395 . S
C348 C351 1.403 . S
C349 C346 1.403 . S
C349 C350 1.524 . S
C349 C353 1.400 . S
C350 H335 0.960 . S
C350 H336 0.960 . S
C350 H337 0.960 . S
C350 C349 1.524 . S
C351 C348 1.403 . S
C351 C352 1.392 . S
C351 C355 1.495 . S
C352 C351 1.392 . S
C352 C353 1.385 . S
C352 C354 1.478 . S
C353 H347 0.930 . S
C353 C349 1.400 . S
C353 C352 1.385 . S
C354 C352 1.478 . S
C354 C356 1.381 . S
C354 C360 1.383 . S
C355 C351 1.495 . S
C355 H361 0.959 . S
C355 H362 0.961 . S
C355 H363 0.960 . S
C356 C354 1.381 . S
C356 C357 1.394 . S
C356 H364 0.930 . S
C357 C356 1.394 . S
C357 C358 1.383 . S
C357 H365 0.929 . S
C358 C357 1.383 . S
C358 C359 1.377 . S
C359 H343 0.930 . S
C359 C358 1.377 . S
C359 C360 1.379 . S
C360 H344 0.931 . S
C360 C354 1.383 . S
C360 C359 1.379 . S
H361 C355 0.959 . S
H362 C355 0.961 . S
H363 C355 0.960 . S
H364 C356 0.930 . S
H365 C357 0.929 . S
H366 C374 0.929 . S
H367 C376 0.930 . S
H368 C378 0.930 . S
H369 C381 0.929 . S
H370 C384 0.930 . S
H371 C386 0.960 . S
H372 C386 0.960 . S
H373 C386 0.960 . S
C374 H366 0.929 . S
C374 C375 1.377 . S
C374 C376 1.384 . S
C375 C374 1.377 . S
C375 C381 1.390 . S
C376 H367 0.930 . S
C376 C374 1.384 . S
C376 C377 1.372 . S
C377 C376 1.372 . S
C377 C378 1.400 . S
C377 C382 1.490 . S
C378 H368 0.930 . S
C378 C377 1.400 . S
C378 C381 1.386 . S
H379 C395 0.930 . S
H380 C396 0.931 . S
C381 H369 0.929 . S
C381 C375 1.390 . S
C381 C378 1.386 . S
C382 C377 1.490 . S
C382 C384 1.395 . S
C382 C385 1.403 . S
H383 C389 0.930 . S
C384 H370 0.930 . S
C384 C382 1.395 . S
C384 C387 1.403 . S
C385 C382 1.403 . S
C385 C386 1.524 . S
C385 C389 1.400 . S
C386 H371 0.960 . S
C386 H372 0.960 . S
C386 H373 0.960 . S
C386 C385 1.524 . S
C387 C384 1.403 . S
C387 C388 1.392 . S
C387 C391 1.495 . S
C388 C387 1.392 . S
C388 C389 1.385 . S
C388 C390 1.478 . S
C389 H383 0.930 . S
C389 C385 1.400 . S
C389 C388 1.385 . S
C390 C388 1.478 . S
C390 C392 1.381 . S
C390 C396 1.383 . S
C391 C387 1.495 . S
C391 H397 0.959 . S
C391 H398 0.961 . S
C391 H399 0.960 . S
C392 C390 1.381 . S
C392 C393 1.394 . S
C392 H400 0.930 . S
C393 C392 1.394 . S
C393 C394 1.383 . S
C393 H401 0.929 . S
C394 C393 1.383 . S
C394 C395 1.377 . S
C395 H379 0.930 . S
C395 C394 1.377 . S
C395 C396 1.379 . S
C396 H380 0.931 . S
C396 C390 1.383 . S
C396 C395 1.379 . S
H397 C391 0.959 . S
H398 C391 0.961 . S
H399 C391 0.960 . S
H400 C392 0.930 . S
H401 C393 0.929 . S
H402 C410 0.929 . S
H403 C412 0.930 . S
H404 C414 0.930 . S
H405 C417 0.929 . S
H406 C420 0.930 . S
H407 C422 0.960 . S
H408 C422 0.960 . S
H409 C422 0.960 . S
C410 H402 0.929 . S
C410 C411 1.377 . S
C410 C412 1.384 . S
C411 C410 1.377 . S
C411 C417 1.390 . S
C412 H403 0.930 . S
C412 C410 1.384 . S
C412 C413 1.372 . S
C413 C412 1.372 . S
C413 C414 1.400 . S
C413 C418 1.490 . S
C414 H404 0.930 . S
C414 C413 1.400 . S
C414 C417 1.386 . S
H415 C431 0.930 . S
H416 C432 0.931 . S
C417 H405 0.929 . S
C417 C411 1.390 . S
C417 C414 1.386 . S
C418 C413 1.490 . S
C418 C420 1.395 . S
C418 C421 1.403 . S
H419 C425 0.930 . S
C420 H406 0.930 . S
C420 C418 1.395 . S
C420 C423 1.403 . S
C421 C418 1.403 . S
C421 C422 1.524 . S
C421 C425 1.400 . S
C422 H407 0.960 . S
C422 H408 0.960 . S
C422 H409 0.960 . S
C422 C421 1.524 . S
C423 C420 1.403 . S
C423 C424 1.392 . S
C423 C427 1.495 . S
C424 C423 1.392 . S
C424 C425 1.385 . S
C424 C426 1.478 . S
C425 H419 0.930 . S
C425 C421 1.400 . S
C425 C424 1.385 . S
C426 C424 1.478 . S
C426 C428 1.381 . S
C426 C432 1.383 . S
C427 C423 1.495 . S
C427 H433 0.959 . S
C427 H434 0.961 . S
C427 H435 0.960 . S
C428 C426 1.381 . S
C428 C429 1.394 . S
C428 H436 0.930 . S
C429 C428 1.394 . S
C429 C430 1.383 . S
C429 H437 0.929 . S
C430 C429 1.383 . S
C430 C431 1.377 . S
C431 H415 0.930 . S
C431 C430 1.377 . S
C431 C432 1.379 . S
C432 H416 0.931 . S
C432 C426 1.383 . S
C432 C431 1.379 . S
H433 C427 0.959 . S
H434 C427 0.961 . S
H435 C427 0.960 . S
H436 C428 0.930 . S
H437 C429 0.929 . S
H438 C446 0.929 . S
H439 C448 0.930 . S
H440 C450 0.930 . S
H441 C453 0.929 . S
H442 C456 0.930 . S
H443 C458 0.960 . S
H444 C458 0.960 . S
H445 C458 0.960 . S
C446 H438 0.929 . S
C446 C447 1.377 . S
C446 C448 1.384 . S
C447 C446 1.377 . S
C447 C453 1.390 . S
C448 H439 0.930 . S
C448 C446 1.384 . S
C448 C449 1.372 . S
C449 C448 1.372 . S
C449 C450 1.400 . S
C449 C454 1.490 . S
C450 H440 0.930 . S
C450 C449 1.400 . S
C450 C453 1.386 . S
H451 C467 0.930 . S
H452 C468 0.931 . S
C453 H441 0.929 . S
C453 C447 1.390 . S
C453 C450 1.386 . S
C454 C449 1.490 . S
C454 C456 1.395 . S
C454 C457 1.403 . S
H455 C461 0.930 . S
C456 H442 0.930 . S
C456 C454 1.395 . S
C456 C459 1.403 . S
C457 C454 1.403 . S
C457 C458 1.524 . S
C457 C461 1.400 . S
C458 H443 0.960 . S
C458 H444 0.960 . S
C458 H445 0.960 . S
C458 C457 1.524 . S
C459 C456 1.403 . S
C459 C460 1.392 . S
C459 C463 1.495 . S
C460 C459 1.392 . S
C460 C461 1.385 . S
C460 C462 1.478 . S
C461 H455 0.930 . S
C461 C457 1.400 . S
C461 C460 1.385 . S
C462 C460 1.478 . S
C462 C464 1.381 . S
C462 C468 1.383 . S
C463 C459 1.495 . S
C463 H469 0.959 . S
C463 H470 0.961 . S
C463 H471 0.960 . S
C464 C462 1.381 . S
C464 C465 1.394 . S
C464 H472 0.930 . S
C465 C464 1.394 . S
C465 C466 1.383 . S
C465 H473 0.929 . S
C466 C465 1.383 . S
C466 C467 1.377 . S
C467 H451 0.930 . S
C467 C466 1.377 . S
C467 C468 1.379 . S
C468 H452 0.931 . S
C468 C462 1.383 . S
C468 C467 1.379 . S
H469 C463 0.959 . S
H470 C463 0.961 . S
H471 C463 0.960 . S
H472 C464 0.930 . S
H473 C465 0.929 . S
H474 C482 0.929 . S
H475 C484 0.930 . S
H476 C486 0.930 . S
H477 C489 0.929 . S
H478 C492 0.930 . S
H479 C494 0.960 . S
H480 C494 0.960 . S
H481 C494 0.960 . S
C482 H474 0.929 . S
C482 C483 1.377 . S
C482 C484 1.384 . S
C483 C482 1.377 . S
C483 C489 1.390 . S
C484 H475 0.930 . S
C484 C482 1.384 . S
C484 C485 1.372 . S
C485 C484 1.372 . S
C485 C486 1.400 . S
C485 C490 1.490 . S
C486 H476 0.930 . S
C486 C485 1.400 . S
C486 C489 1.386 . S
H487 C503 0.930 . S
H488 C504 0.931 . S
C489 H477 0.929 . S
C489 C483 1.390 . S
C489 C486 1.386 . S
C490 C485 1.490 . S
C490 C492 1.395 . S
C490 C493 1.403 . S
H491 C497 0.930 . S
C492 H478 0.930 . S
C492 C490 1.395 . S
C492 C495 1.403 . S
C493 C490 1.403 . S
C493 C494 1.524 . S
C493 C497 1.400 . S
C494 H479 0.960 . S
C494 H480 0.960 . S
C494 H481 0.960 . S
C494 C493 1.524 . S
C495 C492 1.403 . S
C495 C496 1.392 . S
C495 C499 1.495 . S
C496 C495 1.392 . S
C496 C497 1.385 . S
C496 C498 1.478 . S
C497 H491 0.930 . S
C497 C493 1.400 . S
C497 C496 1.385 . S
C498 C496 1.478 . S
C498 C500 1.381 . S
C498 C504 1.383 . S
C499 C495 1.495 . S
C499 H505 0.959 . S
C499 H506 0.961 . S
C499 H507 0.960 . S
C500 C498 1.381 . S
C500 C501 1.394 . S
C500 H508 0.930 . S
C501 C500 1.394 . S
C501 C502 1.383 . S
C501 H509 0.929 . S
C502 C501 1.383 . S
C502 C503 1.377 . S
C503 H487 0.930 . S
C503 C502 1.377 . S
C503 C504 1.379 . S
C504 H488 0.931 . S
C504 C498 1.383 . S
C504 C503 1.379 . S
H505 C499 0.959 . S
H506 C499 0.961 . S
H507 C499 0.960 . S
H508 C500 0.930 . S
H509 C501 0.929 . S
H510 C518 0.929 . S
H511 C520 0.930 . S
H512 C522 0.930 . S
H513 C525 0.929 . S
H514 C528 0.930 . S
H515 C530 0.960 . S
H516 C530 0.960 . S
H517 C530 0.960 . S
C518 H510 0.929 . S
C518 C519 1.377 . S
C518 C520 1.384 . S
C519 C518 1.377 . S
C519 C525 1.390 . S
C520 H511 0.930 . S
C520 C518 1.384 . S
C520 C521 1.372 . S
C521 C520 1.372 . S
C521 C522 1.400 . S
C521 C526 1.490 . S
C522 H512 0.930 . S
C522 C521 1.400 . S
C522 C525 1.386 . S
H523 C539 0.930 . S
H524 C540 0.931 . S
C525 H513 0.929 . S
C525 C519 1.390 . S
C525 C522 1.386 . S
C526 C521 1.490 . S
C526 C528 1.395 . S
C526 C529 1.403 . S
H527 C533 0.930 . S
C528 H514 0.930 . S
C528 C526 1.395 . S
C528 C531 1.403 . S
C529 C526 1.403 . S
C529 C530 1.524 . S
C529 C533 1.400 . S
C530 H515 0.960 . S
C530 H516 0.960 . S
C530 H517 0.960 . S
C530 C529 1.524 . S
C531 C528 1.403 . S
C531 C532 1.392 . S
C531 C535 1.495 . S
C532 C531 1.392 . S
C532 C533 1.385 . S
C532 C534 1.478 . S
C533 H527 0.930 . S
C533 C529 1.400 . S
C533 C532 1.385 . S
C534 C532 1.478 . S
C534 C536 1.381 . S
C534 C540 1.383 . S
C535 C531 1.495 . S
C535 H541 0.959 . S
C535 H542 0.961 . S
C535 H543 0.960 . S
C536 C534 1.381 . S
C536 C537 1.394 . S
C536 H544 0.930 . S
C537 C536 1.394 . S
C537 C538 1.383 . S
C537 H545 0.929 . S
C538 C537 1.383 . S
C538 C539 1.377 . S
C539 H523 0.930 . S
C539 C538 1.377 . S
C539 C540 1.379 . S
C540 H524 0.931 . S
C540 C534 1.383 . S
C540 C539 1.379 . S
H541 C535 0.959 . S
H542 C535 0.961 . S
H543 C535 0.960 . S
H544 C536 0.930 . S
H545 C537 0.929 . S
H546 C554 0.929 . S
H547 C556 0.930 . S
H548 C558 0.930 . S
H549 C561 0.929 . S
H550 C564 0.930 . S
H551 C566 0.960 . S
H552 C566 0.960 . S
H553 C566 0.960 . S
C554 H546 0.929 . S
C554 C555 1.377 . S
C554 C556 1.384 . S
C555 C554 1.377 . S
C555 C561 1.390 . S
C556 H547 0.930 . S
C556 C554 1.384 . S
C556 C557 1.372 . S
C557 C556 1.372 . S
C557 C558 1.400 . S
C557 C562 1.490 . S
C558 H548 0.930 . S
C558 C557 1.400 . S
C558 C561 1.386 . S
H559 C575 0.930 . S
H560 C576 0.931 . S
C561 H549 0.929 . S
C561 C555 1.390 . S
C561 C558 1.386 . S
C562 C557 1.490 . S
C562 C564 1.395 . S
C562 C565 1.403 . S
H563 C569 0.930 . S
C564 H550 0.930 . S
C564 C562 1.395 . S
C564 C567 1.403 . S
C565 C562 1.403 . S
C565 C566 1.524 . S
C565 C569 1.400 . S
C566 H551 0.960 . S
C566 H552 0.960 . S
C566 H553 0.960 . S
C566 C565 1.524 . S
C567 C564 1.403 . S
C567 C568 1.392 . S
C567 C571 1.495 . S
C568 C567 1.392 . S
C568 C569 1.385 . S
C568 C570 1.478 . S
C569 H563 0.930 . S
C569 C565 1.400 . S
C569 C568 1.385 . S
C570 C568 1.478 . S
C570 C572 1.381 . S
C570 C576 1.383 . S
C571 C567 1.495 . S
C571 H577 0.959 . S
C571 H578 0.961 . S
C571 H579 0.960 . S
C572 C570 1.381 . S
C572 C573 1.394 . S
C572 H580 0.930 . S
C573 C572 1.394 . S
C573 C574 1.383 . S
C573 H581 0.929 . S
C574 C573 1.383 . S
C574 C575 1.377 . S
C575 H559 0.930 . S
C575 C574 1.377 . S
C575 C576 1.379 . S
C576 H560 0.931 . S
C576 C570 1.383 . S
C576 C575 1.379 . S
H577 C571 0.959 . S
H578 C571 0.961 . S
H579 C571 0.960 . S
H580 C572 0.930 . S
H581 C573 0.929 . S
H582 C590 0.929 . S
H583 C592 0.930 . S
H584 C594 0.930 . S
H585 C597 0.929 . S
H586 C600 0.930 . S
H587 C602 0.960 . S
H588 C602 0.960 . S
H589 C602 0.960 . S
C590 H582 0.929 . S
C590 C591 1.377 . S
C590 C592 1.384 . S
C591 C590 1.377 . S
C591 C597 1.390 . S
C592 H583 0.930 . S
C592 C590 1.384 . S
C592 C593 1.372 . S
C593 C592 1.372 . S
C593 C594 1.400 . S
C593 C598 1.490 . S
C594 H584 0.930 . S
C594 C593 1.400 . S
C594 C597 1.386 . S
H595 C611 0.930 . S
H596 C612 0.931 . S
C597 H585 0.929 . S
C597 C591 1.390 . S
C597 C594 1.386 . S
C598 C593 1.490 . S
C598 C600 1.395 . S
C598 C601 1.403 . S
H599 C605 0.930 . S
C600 H586 0.930 . S
C600 C598 1.395 . S
C600 C603 1.403 . S
C601 C598 1.403 . S
C601 C602 1.524 . S
C601 C605 1.400 . S
C602 H587 0.960 . S
C602 H588 0.960 . S
C602 H589 0.960 . S
C602 C601 1.524 . S
C603 C600 1.403 . S
C603 C604 1.392 . S
C603 C607 1.495 . S
C604 C603 1.392 . S
C604 C605 1.385 . S
C604 C606 1.478 . S
C605 H599 0.930 . S
C605 C601 1.400 . S
C605 C604 1.385 . S
C606 C604 1.478 . S
C606 C608 1.381 . S
C606 C612 1.383 . S
C607 C603 1.495 . S
C607 H613 0.959 . S
C607 H614 0.961 . S
C607 H615 0.960 . S
C608 C606 1.381 . S
C608 C609 1.394 . S
C608 H616 0.930 . S
C609 C608 1.394 . S
C609 C610 1.383 . S
C609 H617 0.929 . S
C610 C609 1.383 . S
C610 C611 1.377 . S
C611 H595 0.930 . S
C611 C610 1.377 . S
C611 C612 1.379 . S
C612 H596 0.931 . S
C612 C606 1.383 . S
C612 C611 1.379 . S
H613 C607 0.959 . S
H614 C607 0.961 . S
H615 C607 0.960 . S
H616 C608 0.930 . S
H617 C609 0.929 . S
H618 C626 0.929 . S
H619 C628 0.930 . S
H620 C630 0.930 . S
H621 C633 0.929 . S
H622 C636 0.930 1_655 S
H623 C638 0.960 . S
H624 C638 0.960 . S
H625 C638 0.960 . S
C626 H618 0.929 . S
C626 C627 1.377 . S
C626 C628 1.384 . S
C627 C626 1.377 . S
C627 C633 1.390 . S
C628 H619 0.930 . S
C628 C626 1.384 . S
C628 C629 1.372 . S
C629 C628 1.372 . S
C629 C630 1.400 . S
C629 C634 1.490 . S
C630 H620 0.930 . S
C630 C629 1.400 . S
C630 C633 1.386 . S
H631 C647 0.930 . S
H632 C648 0.931 . S
C633 H621 0.929 . S
C633 C627 1.390 . S
C633 C630 1.386 . S
C634 C629 1.490 . S
C634 C636 1.395 . S
C634 C637 1.403 . S
H635 C641 0.930 . S
C636 H622 0.930 1_455 S
C636 C634 1.395 . S
C636 C639 1.403 . S
C637 C634 1.403 . S
C637 C638 1.524 . S
C637 C641 1.400 . S
C638 H623 0.960 . S
C638 H624 0.960 . S
C638 H625 0.960 . S
C638 C637 1.524 . S
C639 C636 1.403 . S
C639 C640 1.370 1_554 S
C639 C643 1.495 1_454 S
C640 C639 1.370 1_556 S
C640 C641 1.363 1_556 S
C640 C642 1.523 . S
C641 H635 0.930 . S
C641 C637 1.400 . S
C641 C640 1.363 1_554 S
C642 C640 1.523 . S
C642 C644 1.381 . S
C642 C648 1.383 . S
C643 C639 1.495 1_656 S
C643 H649 0.959 1_556 S
C643 H650 0.961 . S
C643 H651 0.960 . S
C644 C642 1.381 . S
C644 C645 1.394 . S
C644 H652 0.930 . S
C645 C644 1.394 . S
C645 C646 1.383 . S
C645 H653 0.929 . S
C646 C645 1.383 . S
C646 C647 1.377 . S
C647 H631 0.930 . S
C647 C646 1.377 . S
C647 C648 1.379 . S
C648 H632 0.931 . S
C648 C642 1.383 . S
C648 C647 1.379 . S
H649 C643 0.959 1_554 S
H650 C643 0.961 . S
H651 C643 0.960 . S
H652 C644 0.930 . S
H653 C645 0.929 . S
H654 C662 0.929 . S
H655 C664 0.930 . S
H656 C666 0.930 . S
H657 C669 0.929 . S
H658 C672 0.930 . S
H659 C674 0.950 . S
H660 C674 0.960 . S
H661 C674 0.960 1_565 S
C662 H654 0.929 . S
C662 C663 1.377 . S
C662 C664 1.384 . S
C663 C662 1.377 . S
C663 C669 1.390 1_545 S
C664 H655 0.930 . S
C664 C662 1.384 . S
C664 C665 1.372 . S
C665 C664 1.372 . S
C665 C666 1.400 1_545 S
C665 C670 1.490 . S
C666 H656 0.930 . S
C666 C665 1.400 1_565 S
C666 C669 1.386 . S
H667 C683 0.930 . S
H668 C684 0.931 . S
C669 H657 0.929 . S
C669 C663 1.390 1_565 S
C669 C666 1.386 . S
C670 C665 1.490 . S
C670 C672 1.395 . S
C670 C673 1.403 . S
H671 C677 0.930 . S
C672 H658 0.930 . S
C672 C670 1.395 . S
C672 C675 1.403 . S
C673 C670 1.403 . S
C673 C674 1.524 . S
C673 C677 1.400 . S
C674 H659 0.950 . S
C674 H660 0.960 . S
C674 H661 0.960 1_545 S
C674 C673 1.524 . S
C675 C672 1.403 . S
C675 C676 1.392 . S
C675 C679 1.495 . S
C676 C675 1.392 . S
C676 C677 1.385 . S
C676 C678 1.478 . S
C677 H671 0.930 . S
C677 C673 1.400 . S
C677 C676 1.385 . S
C678 C676 1.478 . S
C678 C680 1.381 . S
C678 C684 1.383 1_545 S
C679 C675 1.495 . S
C679 H685 0.959 . S
C679 H686 0.961 . S
C679 H687 0.960 . S
C680 C678 1.381 . S
C680 C681 1.394 . S
C680 H688 0.930 . S
C681 C680 1.394 . S
C681 C682 1.383 . S
C681 H689 0.929 . S
C682 C681 1.383 . S
C682 C683 1.377 1_545 S
C683 H667 0.930 . S
C683 C682 1.377 1_565 S
C683 C684 1.379 . S
C684 H668 0.931 . S
C684 C678 1.383 1_565 S
C684 C683 1.379 . S
H685 C679 0.959 . S
H686 C679 0.961 . S
H687 C679 0.960 . S
H688 C680 0.930 . S
H689 C681 0.929 . S
H690 C698 0.929 . S
H691 C700 0.930 . S
H692 C702 0.930 . S
H693 C705 0.929 . S
H694 C708 0.930 . S
H695 C710 0.960 . S
H696 C710 0.960 . S
H697 C710 0.960 . S
C698 H690 0.929 . S
C698 C699 1.377 . S
C698 C700 1.384 . S
C699 C698 1.377 . S
C699 C705 1.390 . S
C700 H691 0.930 . S
C700 C698 1.384 . S
C700 C701 1.372 . S
C701 C700 1.372 . S
C701 C702 1.400 . S
C701 C706 1.490 . S
C702 H692 0.930 . S
C702 C701 1.400 . S
C702 C705 1.386 . S
H703 C719 0.930 . S
H704 C720 0.931 . S
C705 H693 0.929 . S
C705 C699 1.390 . S
C705 C702 1.386 . S
C706 C701 1.490 . S
C706 C708 1.395 . S
C706 C709 1.403 . S
H707 C713 0.930 . S
C708 H694 0.930 . S
C708 C706 1.395 . S
C708 C711 1.403 . S
C709 C706 1.403 . S
C709 C710 1.524 . S
C709 C713 1.400 . S
C710 H695 0.960 . S
C710 H696 0.960 . S
C710 H697 0.960 . S
C710 C709 1.524 . S
C711 C708 1.403 . S
C711 C712 1.392 . S
C711 C715 1.495 . S
C712 C711 1.392 . S
C712 C713 1.385 . S
C712 C714 1.478 . S
C713 H707 0.930 . S
C713 C709 1.400 . S
C713 C712 1.385 . S
C714 C712 1.478 . S
C714 C716 1.381 . S
C714 C720 1.383 . S
C715 C711 1.495 . S
C715 H721 0.959 . S
C715 H722 0.961 . S
C715 H723 0.960 . S
C716 C714 1.381 . S
C716 C717 1.394 . S
C716 H724 0.930 . S
C717 C716 1.394 . S
C717 C718 1.383 . S
C717 H725 0.929 . S
C718 C717 1.383 . S
C718 C719 1.377 . S
C719 H703 0.930 . S
C719 C718 1.377 . S
C719 C720 1.379 . S
C720 H704 0.931 . S
C720 C714 1.383 . S
C720 C719 1.379 . S
H721 C715 0.959 . S
H722 C715 0.961 . S
H723 C715 0.960 . S
H724 C716 0.930 . S
H725 C717 0.929 . S
H726 C734 0.929 . S
H727 C736 0.930 . S
H728 C738 0.930 . S
H729 C741 0.929 . S
H730 C744 0.930 . S
H731 C746 0.960 . S
H732 C746 0.960 . S
H733 C746 0.960 1_545 S
C734 H726 0.929 . S
C734 C735 1.377 1_565 S
C734 C736 1.384 . S
C735 C734 1.377 1_545 S
C735 C741 1.390 . S
C736 H727 0.930 . S
C736 C734 1.384 . S
C736 C737 1.372 1_565 S
C737 C736 1.372 1_545 S
C737 C738 1.400 . S
C737 C742 1.490 . S
C738 H728 0.930 . S
C738 C737 1.400 . S
C738 C741 1.386 . S
H739 C755 0.930 . S
H740 C756 0.931 . S
C741 H729 0.929 . S
C741 C735 1.390 . S
C741 C738 1.386 . S
C742 C737 1.490 . S
C742 C744 1.395 . S
C742 C745 1.403 . S
H743 C749 0.930 . S
C744 H730 0.930 . S
C744 C742 1.395 . S
C744 C747 1.403 . S
C745 C742 1.403 . S
C745 C746 1.524 1_545 S
C745 C749 1.400 . S
C746 H731 0.960 . S
C746 H732 0.960 . S
C746 H733 0.960 1_565 S
C746 C745 1.524 1_565 S
C747 C744 1.403 . S
C747 C748 1.392 . S
C747 C751 1.495 . S
C748 C747 1.392 . S
C748 C749 1.385 . S
C748 C750 1.478 . S
C749 H743 0.930 . S
C749 C745 1.400 . S
C749 C748 1.385 . S
C750 C748 1.478 . S
C750 C752 1.381 1_545 S
C750 C756 1.383 . S
C751 C747 1.495 . S
C751 H757 0.959 . S
C751 H758 0.961 . S
C751 H759 0.960 1_545 S
C752 C750 1.381 1_565 S
C752 C753 1.394 . S
C752 H760 0.930 . S
C753 C752 1.394 . S
C753 C754 1.383 1_565 S
C753 H761 0.929 . S
C754 C753 1.383 1_545 S
C754 C755 1.377 . S
C755 H739 0.930 . S
C755 C754 1.377 . S
C755 C756 1.379 . S
C756 H740 0.931 . S
C756 C750 1.383 . S
C756 C755 1.379 . S
H757 C751 0.959 . S
H758 C751 0.961 . S
H759 C751 0.960 1_565 S
H760 C752 0.930 . S
H761 C753 0.929 . S
H762 C770 0.929 . S
H763 C772 0.930 . S
H764 C774 0.930 . S
H765 C777 0.929 . S
H766 C780 0.930 . S
H767 C782 0.960 . S
H768 C782 0.960 . S
H769 C782 0.960 . S
C770 H762 0.929 . S
C770 C771 1.377 . S
C770 C772 1.384 . S
C771 C770 1.377 . S
C771 C777 1.390 . S
C772 H763 0.930 . S
C772 C770 1.384 . S
C772 C773 1.372 . S
C773 C772 1.372 . S
C773 C774 1.400 . S
C773 C778 1.490 . S
C774 H764 0.930 . S
C774 C773 1.400 . S
C774 C777 1.386 . S
H775 C791 0.930 . S
H776 C792 0.931 . S
C777 H765 0.929 . S
C777 C771 1.390 . S
C777 C774 1.386 . S
C778 C773 1.490 . S
C778 C780 1.395 . S
C778 C781 1.403 . S
H779 C785 0.930 1_554 S
C780 H766 0.930 . S
C780 C778 1.395 . S
C780 C783 1.403 . S
C781 C778 1.403 . S
C781 C782 1.524 . S
C781 C785 1.400 . S
C782 H767 0.960 . S
C782 H768 0.960 . S
C782 H769 0.960 . S
C782 C781 1.524 . S
C783 C780 1.403 . S
C783 C784 1.392 1_556 S
C783 C787 1.495 . S
C784 C783 1.392 1_554 S
C784 C785 1.385 1_554 S
C784 C786 1.478 . S
C785 H779 0.930 1_556 S
C785 C781 1.400 . S
C785 C784 1.385 1_556 S
C786 C784 1.478 . S
C786 C788 1.381 . S
C786 C792 1.383 . S
C787 C783 1.495 . S
C787 H793 0.959 . S
C787 H794 0.961 1_556 S
C787 H795 0.960 1_556 S
C788 C786 1.381 . S
C788 C789 1.394 . S
C788 H796 0.930 . S
C789 C788 1.394 . S
C789 C790 1.383 . S
C789 H797 0.929 . S
C790 C789 1.383 . S
C790 C791 1.377 . S
C791 H775 0.930 . S
C791 C790 1.377 . S
C791 C792 1.379 . S
C792 H776 0.931 . S
C792 C786 1.383 . S
C792 C791 1.379 . S
H793 C787 0.959 . S
H794 C787 0.961 1_554 S
H795 C787 0.960 1_554 S
H796 C788 0.930 . S
H797 C789 0.929 . S
H798 C806 0.929 . S
H799 C808 0.930 . S
H800 C810 0.930 . S
H801 C813 0.929 . S
H802 C816 0.930 . S
H803 C818 0.960 . S
H804 C818 0.960 . S
H805 C818 0.960 . S
C806 H798 0.929 . S
C806 C807 1.377 . S
C806 C808 1.384 . S
C807 C806 1.377 . S
C807 C813 1.390 . S
C808 H799 0.930 . S
C808 C806 1.384 . S
C808 C809 1.372 . S
C809 C808 1.372 . S
C809 C810 1.400 . S
C809 C814 1.490 . S
C810 H800 0.930 . S
C810 C809 1.400 . S
C810 C813 1.386 . S
H811 C827 0.930 . S
H812 C828 0.931 . S
C813 H801 0.929 . S
C813 C807 1.390 . S
C813 C810 1.386 . S
C814 C809 1.490 . S
C814 C816 1.395 . S
C814 C817 1.403 1_455 S
H815 C821 0.930 . S
C816 H802 0.930 . S
C816 C814 1.395 . S
C816 C819 1.403 . S
C817 C814 1.403 1_655 S
C817 C818 1.524 . S
C817 C821 1.400 . S
C818 H803 0.960 . S
C818 H804 0.960 . S
C818 H805 0.960 . S
C818 C817 1.524 . S
C819 C816 1.403 . S
C819 C820 1.392 . S
C819 C823 1.495 . S
C820 C819 1.392 . S
C820 C821 1.385 1_455 S
C820 C822 1.478 . S
C821 H815 0.930 . S
C821 C817 1.400 . S
C821 C820 1.385 1_655 S
C822 C820 1.478 . S
C822 C824 1.381 1_455 S
C822 C828 1.383 . S
C823 C819 1.495 . S
C823 H829 0.959 . S
C823 H830 0.961 . S
C823 H831 0.960 . S
C824 C822 1.381 1_655 S
C824 C825 1.394 . S
C824 H832 0.930 . S
C825 C824 1.394 . S
C825 C826 1.383 . S
C825 H833 0.929 . S
C826 C825 1.383 . S
C826 C827 1.377 1_655 S
C827 H811 0.930 . S
C827 C826 1.377 1_455 S
C827 C828 1.379 . S
C828 H812 0.931 . S
C828 C822 1.383 . S
C828 C827 1.379 . S
H829 C823 0.959 . S
H830 C823 0.961 . S
H831 C823 0.960 . S
H832 C824 0.930 . S
H833 C825 0.929 . S
C195 C7 0.627 . S
C214 C180 0.823 . S
C231 C51 2.053 . S
C250 C158 1.807 . S
C267 C87 0.973 . S
C286 C172 0.989 . S
C303 C16 0.216 . S
C322 C183 0.293 . S
C358 C161 1.770 . S
C339 C42 1.809 . S
C394 C169 1.174 . S
C375 C96 1.435 . S
C411 C47 1.356 . S
C430 C136 1.192 . S
C447 C91 3.299 . S
C466 C147 2.920 . S
C483 C2 2.168 . S
C502 C125 1.858 . S
C538 C139 1.036 . S
C519 C56 1.047 . S
C574 C150 2.727 . S
C555 C82 2.781 . S
C591 C11 1.709 . S
C610 C128 1.666 . S
C646 C149 1.629 . S
C627 C19 1.649 . S
C663 C50 1.420 . S
C682 C127 1.371 . S
C699 C99 1.507 . S
C718 C138 1.509 . S
C754 C171 1.420 . S
C735 C59 1.466 . S
C790 C182 1.249 . S
C771 C90 1.268 . S
C807 C10 1.434 . S
C826 C160 1.401 . S
