# Generated by pormake.
# Topology wbl, (4,4)-cn, num edge types: 1
# Building blocks:
#     Node 0, Type 0, BuildingBlock: MUDLON_clean_sbu_0, # of connection points: 4
#     Node 1, Type 0, BuildingBlock: MUDLON_clean_sbu_0, # of connection points: 4
#     Node 2, Type 0, BuildingBlock: MUDLON_clean_sbu_0, # of connection points: 4
#     Node 3, Type 0, BuildingBlock: MUDLON_clean_sbu_0, # of connection points: 4
#     Node 4, Type 0, BuildingBlock: MUDLON_clean_sbu_0, # of connection points: 4
#     Node 5, Type 0, BuildingBlock: MUDLON_clean_sbu_0, # of connection points: 4
#     Node 6, Type 0, BuildingBlock: MUDLON_clean_sbu_0, # of connection points: 4
#     Node 7, Type 0, BuildingBlock: MUDLON_clean_sbu_0, # of connection points: 4
#     Node 8, Type 1, BuildingBlock: GALJAG_clean_sbu_0, # of connection points: 4
#     Node 9, Type 1, BuildingBlock: GALJAG_clean_sbu_0, # of connection points: 4
#     Node 10, Type 1, BuildingBlock: GALJAG_clean_sbu_0, # of connection points: 4
#     Node 11, Type 1, BuildingBlock: GALJAG_clean_sbu_0, # of connection points: 4
#     Node 12, Type 1, BuildingBlock: GALJAG_clean_sbu_0, # of connection points: 4
#     Node 13, Type 1, BuildingBlock: GALJAG_clean_sbu_0, # of connection points: 4
#     Node 14, Type 1, BuildingBlock: GALJAG_clean_sbu_0, # of connection points: 4
#     Node 15, Type 1, BuildingBlock: GALJAG_clean_sbu_0, # of connection points: 4
#     Edge 16, Type (0, 1), BuildingBlock: EZIPEK_clean_linker_0, # of connection points: 2
#     Edge 17, Type (0, 1), BuildingBlock: EZIPEK_clean_linker_0, # of connection points: 2
#     Edge 18, Type (0, 1), BuildingBlock: EZIPEK_clean_linker_0, # of connection points: 2
#     Edge 19, Type (0, 1), BuildingBlock: EZIPEK_clean_linker_0, # of connection points: 2
#     Edge 20, Type (0, 1), BuildingBlock: EZIPEK_clean_linker_0, # of connection points: 2
#     Edge 21, Type (0, 1), BuildingBlock: EZIPEK_clean_linker_0, # of connection points: 2
#     Edge 22, Type (0, 1), BuildingBlock: EZIPEK_clean_linker_0, # of connection points: 2
#     Edge 23, Type (0, 1), BuildingBlock: EZIPEK_clean_linker_0, # of connection points: 2
#     Edge 24, Type (0, 1), BuildingBlock: EZIPEK_clean_linker_0, # of connection points: 2
#     Edge 25, Type (0, 1), BuildingBlock: EZIPEK_clean_linker_0, # of connection points: 2
#     Edge 26, Type (0, 1), BuildingBlock: EZIPEK_clean_linker_0, # of connection points: 2
#     Edge 27, Type (0, 1), BuildingBlock: EZIPEK_clean_linker_0, # of connection points: 2
#     Edge 28, Type (0, 1), BuildingBlock: EZIPEK_clean_linker_0, # of connection points: 2
#     Edge 29, Type (0, 1), BuildingBlock: EZIPEK_clean_linker_0, # of connection points: 2
#     Edge 30, Type (0, 1), BuildingBlock: EZIPEK_clean_linker_0, # of connection points: 2
#     Edge 31, Type (0, 1), BuildingBlock: EZIPEK_clean_linker_0, # of connection points: 2
#     Edge 32, Type (0, 1), BuildingBlock: EZIPEK_clean_linker_0, # of connection points: 2
#     Edge 33, Type (0, 1), BuildingBlock: EZIPEK_clean_linker_0, # of connection points: 2
#     Edge 34, Type (0, 1), BuildingBlock: EZIPEK_clean_linker_0, # of connection points: 2
#     Edge 35, Type (0, 1), BuildingBlock: EZIPEK_clean_linker_0, # of connection points: 2
#     Edge 36, Type (0, 1), BuildingBlock: EZIPEK_clean_linker_0, # of connection points: 2
#     Edge 37, Type (0, 1), BuildingBlock: EZIPEK_clean_linker_0, # of connection points: 2
#     Edge 38, Type (0, 1), BuildingBlock: EZIPEK_clean_linker_0, # of connection points: 2
#     Edge 39, Type (0, 1), BuildingBlock: EZIPEK_clean_linker_0, # of connection points: 2
#     Edge 40, Type (0, 1), BuildingBlock: EZIPEK_clean_linker_0, # of connection points: 2
#     Edge 41, Type (0, 1), BuildingBlock: EZIPEK_clean_linker_0, # of connection points: 2
#     Edge 42, Type (0, 1), BuildingBlock: EZIPEK_clean_linker_0, # of connection points: 2
#     Edge 43, Type (0, 1), BuildingBlock: EZIPEK_clean_linker_0, # of connection points: 2
#     Edge 44, Type (0, 1), BuildingBlock: EZIPEK_clean_linker_0, # of connection points: 2
#     Edge 45, Type (0, 1), BuildingBlock: EZIPEK_clean_linker_0, # of connection points: 2
#     Edge 46, Type (0, 1), BuildingBlock: EZIPEK_clean_linker_0, # of connection points: 2
#     Edge 47, Type (0, 1), BuildingBlock: EZIPEK_clean_linker_0, # of connection points: 2
# Relax obj value: 0.157
# Max RMSD: 0.185
# Mean RMSD: 0.148
data_MOF--net-wbl--node1-MUDLON_clean_sbu_0--node2-GALJAG_clean_sbu_0--edge1-EZIPEK_clean_linker_0
_symmetry_space_group_name_H-M    P1
_symmetry_Int_Tables_number       1
_symmetry_cell_setting            triclinic
loop_
_symmetry_equiv_pos_as_xyz
'x, y, z'
_cell_length_a     25.232409
_cell_length_b     25.272427
_cell_length_c     59.839707
_cell_angle_alpha  90.117719
_cell_angle_beta   90.1546
_cell_angle_gamma 89.679967
loop_
_atom_site_label
_atom_site_type_symbol
_atom_site_fract_x
_atom_site_fract_y
_atom_site_fract_z
_atom_type_partial_charge
Mg0 Mg 0.98613 0.99081 0.35645 0.0
C1 C 0.96715 0.93411 0.39838 0.0
O2 O 0.93461 0.97423 0.40104 0.0
C3 C 0.91039 0.01895 0.31827 0.0
O4 O 0.9531 0.01165 0.30612 0.0
C5 C 0.06239 0.92854 0.32906 0.0
O6 O 0.02818 0.89222 0.33498 0.0
O7 O 0.05438 0.97639 0.33492 0.0
O8 O 0.98339 0.92316 0.37881 0.0
O9 O 0.99838 0.05187 0.38152 0.0
C10 C 0.96728 0.09125 0.38343 0.0
O11 O 0.93899 0.1064 0.3661 0.0
O12 O 0.91241 0.01027 0.33918 0.0
Mg13 Mg 0.02733 0.5155 0.59798 0.0
C14 C 0.13105 0.53298 0.62118 0.0
O15 O 0.14093 0.56376 0.60409 0.0
C16 C 0.9845 0.44649 0.55984 0.0
O17 O 0.98735 0.49013 0.54804 0.0
C18 C 0.07446 0.58205 0.56087 0.0
O19 O 0.09407 0.53623 0.55448 0.0
O20 O 0.04363 0.5844 0.57762 0.0
O21 O 0.09396 0.49955 0.6197 0.0
O22 O 0.97003 0.53066 0.62403 0.0
C23 C 0.96943 0.49115 0.63715 0.0
O24 O 0.99649 0.44846 0.63178 0.0
O25 O 1.00005 0.44639 0.58005 0.0
Mg26 Mg 0.49287 0.4663 0.85722 0.0
C27 C 0.51152 0.53071 0.89962 0.0
O28 O 0.54351 0.49149 0.90469 0.0
C29 C 0.6046 0.46592 0.83474 0.0
O30 O 0.62043 0.49665 0.85114 0.0
C31 C 0.43388 0.51377 0.8201 0.0
O32 O 0.4826 0.52939 0.81639 0.0
O33 O 0.42456 0.48308 0.83645 0.0
O34 O 0.49345 0.53429 0.87981 0.0
O35 O 0.48736 0.39816 0.87926 0.0
C36 C 0.53229 0.38244 0.88626 0.0
O37 O 0.57452 0.40542 0.87809 0.0
O38 O 0.55684 0.45076 0.83375 0.0
Mg39 Mg 0.46569 0.00252 0.10663 0.0
C40 C 0.55173 0.97161 0.14192 0.0
O41 O 0.54532 0.92165 0.13653 0.0
C42 C 0.44301 0.92837 0.06827 0.0
O43 O 0.43872 0.97357 0.0576 0.0
C44 C 0.52399 0.06749 0.07516 0.0
O45 O 0.55467 0.02581 0.07783 0.0
O46 O 0.47914 0.06905 0.08479 0.0
O47 O 0.52901 0.00771 0.13068 0.0
O48 O 0.40106 0.00802 0.13019 0.0
C49 C 0.40039 0.9653 0.14137 0.0
O50 O 0.42967 0.92524 0.13469 0.0
O51 O 0.45734 0.92831 0.08865 0.0
Mg52 Mg 0.98772 0.49994 0.91407 0.0
C53 C 0.03536 0.54119 0.87486 0.0
O54 O 0.01322 0.58022 0.886 0.0
C55 C 0.92346 0.43981 0.94483 0.0
O56 O 0.9149 0.48996 0.94951 0.0
C57 C 0.05358 0.57883 0.94196 0.0
O58 O 0.02341 0.61501 0.93257 0.0
O59 O 0.04587 0.53015 0.93778 0.0
O60 O 0.03158 0.49497 0.88299 0.0
O61 O 0.92132 0.55505 0.90879 0.0
C62 C 0.89346 0.56318 0.89124 0.0
O63 O 0.85499 0.59833 0.8921 0.0
O64 O 0.95578 0.42855 0.92922 0.0
Mg65 Mg 0.52301 0.50896 0.16082 0.0
C66 C 0.41986 0.48736 0.13137 0.0
O67 O 0.40893 0.44423 0.14262 0.0
C68 C 0.54996 0.43311 0.19798 0.0
O69 O 0.5589 0.47825 0.20821 0.0
C70 C 0.46454 0.5725 0.19421 0.0
O71 O 0.43333 0.53159 0.19138 0.0
O72 O 0.50854 0.57402 0.18386 0.0
O73 O 0.4594 0.51556 0.13667 0.0
O74 O 0.58845 0.51649 0.13752 0.0
C75 C 0.61868 0.4768 0.13435 0.0
O76 O 0.62189 0.44049 0.14996 0.0
O77 O 0.53152 0.43359 0.17816 0.0
Mg78 Mg 0.51564 0.9994 0.41779 0.0
C79 C 0.47113 0.07214 0.37907 0.0
O80 O 0.42266 0.06098 0.38529 0.0
C81 C 0.4054 0.00925 0.44162 0.0
O82 O 0.39837 0.05339 0.43047 0.0
C83 C 0.57634 0.05415 0.45357 0.0
O84 O 0.52889 0.07434 0.45676 0.0
O85 O 0.58346 0.01996 0.43824 0.0
O86 O 0.51054 0.05722 0.39081 0.0
O87 O 0.52599 0.92881 0.39745 0.0
C88 C 0.48365 0.92291 0.38619 0.0
O89 O 0.44294 0.95346 0.39074 0.0
O90 O 0.44829 0.98319 0.43952 0.0
Mg91 Mg 0.02098 0.03103 0.68019 0.0
C92 C 0.08964 0.03825 0.63859 0.0
O93 O 0.05616 0.07578 0.63302 0.0
C94 C 0.97085 0.12062 0.70654 0.0
O95 O 0.92838 0.09477 0.70017 0.0
C96 C 0.06943 0.94311 0.70683 0.0
O97 O 0.11107 0.97208 0.70229 0.0
O98 O 0.02373 0.95927 0.70066 0.0
O99 O 0.09085 0.02198 0.65869 0.0
O100 O 0.95582 0.02913 0.65585 0.0
C101 C 0.94608 0.07174 0.6453 0.0
O102 O 0.96737 0.11589 0.65259 0.0
O103 O 0.01637 0.10296 0.70093 0.0
In104 In 0.33873 0.63785 0.01204 0.0
O105 O 0.32509 0.71588 0.03058 0.0
O106 O 0.40193 0.70088 0.01754 0.0
C107 C 0.24292 0.62747 0.9922 0.0
C108 C 0.34789 0.58134 0.05017 0.0
C109 C 0.39801 0.60975 0.97656 0.0
O110 O 0.26344 0.67209 0.99578 0.0
O111 O 0.26996 0.5885 0.99883 0.0
O112 O 0.38834 0.57841 0.99243 0.0
O113 O 0.37826 0.6555 0.97858 0.0
C114 C 0.3721 0.73174 0.02835 0.0
O115 O 0.38406 0.58306 0.03571 0.0
O116 O 0.3064 0.60683 0.04525 0.0
In117 In 0.35053 0.83855 0.26644 0.0
O118 O 0.33783 0.75476 0.25253 0.0
O119 O 0.41504 0.78827 0.25064 0.0
C120 C 0.2565 0.86172 0.2854 0.0
C121 C 0.35016 0.89743 0.22892 0.0
C122 C 0.40871 0.84613 0.30405 0.0
O123 O 0.26641 0.81636 0.2773 0.0
O124 O 0.29366 0.89473 0.28388 0.0
O125 O 0.40531 0.88348 0.29007 0.0
O126 O 0.38458 0.80441 0.29861 0.0
C127 C 0.38539 0.74973 0.24614 0.0
O128 O 0.39028 0.8941 0.24154 0.0
O129 O 0.30962 0.87421 0.23608 0.0
In130 In 0.14774 0.88934 0.51575 0.0
O131 O 0.18211 0.91025 0.54998 0.0
O132 O 0.10724 0.94364 0.54109 0.0
C133 C 0.08312 0.89489 0.47998 0.0
C134 C 0.12775 0.78955 0.52837 0.0
C135 C 0.23536 0.92821 0.49642 0.0
O136 O 0.08019 0.92787 0.49584 0.0
O137 O 0.11763 0.85915 0.48235 0.0
O138 O 0.23381 0.88211 0.5045 0.0
O139 O 0.19362 0.95525 0.49881 0.0
C140 C 0.1436 0.9394 0.55553 0.0
O141 O 0.1711 0.80264 0.51948 0.0
O142 O 0.09486 0.8268 0.53104 0.0
In143 In 0.16942 0.64186 0.7529 0.0
O144 O 0.10685 0.5912 0.77033 0.0
O145 O 0.15289 0.64507 0.78961 0.0
C146 C 0.1686 0.59982 0.71182 0.0
C147 C 0.26211 0.60931 0.77029 0.0
C148 C 0.13106 0.7396 0.7431 0.0
O149 O 0.13288 0.58986 0.72594 0.0
O150 O 0.20506 0.62986 0.71853 0.0
O151 O 0.18008 0.72904 0.74312 0.0
O152 O 0.1019 0.70195 0.74912 0.0
C153 C 0.11844 0.60912 0.78949 0.0
O154 O 0.24975 0.65792 0.76934 0.0
O155 O 0.22939 0.57811 0.76137 0.0
In156 In 0.85953 0.15506 0.51454 0.0
O157 O 0.84694 0.24 0.52677 0.0
O158 O 0.92532 0.21454 0.5189 0.0
C159 C 0.76249 0.12836 0.50012 0.0
C160 C 0.87521 0.11062 0.55513 0.0
C161 C 0.90451 0.1371 0.47452 0.0
O162 O 0.77394 0.17545 0.50542 0.0
O163 O 0.79904 0.09478 0.50318 0.0
O164 O 0.90956 0.10468 0.49052 0.0
O165 O 0.87805 0.17832 0.47888 0.0
C166 C 0.89571 0.2511 0.52607 0.0
O167 O 0.90975 0.10834 0.53989 0.0
O168 O 0.83191 0.13153 0.54931 0.0
In169 In 0.87724 0.40984 0.76604 0.0
O170 O 0.93205 0.45135 0.74127 0.0
O171 O 0.85156 0.43962 0.73198 0.0
C172 C 0.90522 0.45811 0.80487 0.0
C173 C 0.91584 0.31394 0.7535 0.0
C174 C 0.77308 0.41188 0.77597 0.0
O175 O 0.88816 0.48288 0.78807 0.0
O176 O 0.91355 0.40948 0.80139 0.0
O177 O 0.80348 0.3745 0.78202 0.0
O178 O 0.79594 0.44712 0.76473 0.0
C179 C 0.89686 0.45517 0.72627 0.0
O180 O 0.86681 0.32387 0.75465 0.0
O181 O 0.94548 0.35106 0.76001 0.0
In182 In 0.66372 0.32773 0.01004 0.0
O183 O 0.66786 0.24489 0.02501 0.0
O184 O 0.59264 0.28424 0.02369 0.0
C185 C 0.76215 0.34225 0.99375 0.0
C186 C 0.65548 0.39098 0.0462 0.0
C187 C 0.61002 0.32939 0.97112 0.0
O188 O 0.74753 0.298 1.00124 0.0
O189 O 0.72824 0.37883 0.99526 0.0
O190 O 0.61202 0.3692 0.98391 0.0
O191 O 0.63405 0.28883 0.97816 0.0
C192 C 0.6188 0.2437 0.02931 0.0
O193 O 0.63066 0.40038 0.02826 0.0
O194 O 0.6862 0.35149 0.04552 0.0
In195 In 0.62731 0.13828 0.25892 0.0
O196 O 0.55123 0.11016 0.2755 0.0
O197 O 0.60966 0.14618 0.2961 0.0
C198 C 0.61426 0.07604 0.22262 0.0
C199 C 0.71856 0.10397 0.27767 0.0
C200 C 0.60877 0.23621 0.24174 0.0
O201 O 0.578 0.08362 0.23677 0.0
O202 O 0.65727 0.09895 0.22701 0.0
O203 O 0.65237 0.21239 0.23918 0.0
O204 O 0.57609 0.21206 0.25373 0.0
C205 C 0.56497 0.12412 0.29494 0.0
O206 O 0.70735 0.15274 0.27606 0.0
O207 O 0.6841 0.07313 0.26973 0.0
C208 C 0.12438 0.93168 0.29612 0.0
C209 C 0.11226 0.91232 0.31774 0.0
C210 C 0.19001 0.85343 0.31637 0.0
C211 C 0.20492 0.8763 0.2957 0.0
N212 N 0.18914 0.9402 0.26646 0.0
N213 N 0.13893 0.86293 0.35039 0.0
C214 C 0.17301 0.91652 0.2858 0.0
C215 C 0.14642 0.87521 0.32836 0.0
N216 N 0.0883 0.96257 0.28502 0.0
N217 N 0.21737 0.81086 0.3246 0.0
H218 H 0.10859 0.87935 0.36002 0.0
H219 H 0.16577 0.84073 0.35978 0.0
H220 H 0.25032 0.79446 0.31668 0.0
H221 H 0.20481 0.78893 0.33829 0.0
H222 H 0.09191 0.97313 0.26829 0.0
H223 H 0.05233 0.97438 0.29201 0.0
H224 H 0.17156 0.97425 0.25998 0.0
H225 H 0.22197 0.92737 0.25735 0.0
C226 C 0.05229 0.66169 0.53767 0.0
C227 C 0.09042 0.63162 0.54969 0.0
C228 C 0.15264 0.70544 0.54817 0.0
C229 C 0.11585 0.73446 0.53499 0.0
N230 N 0.03638 0.73482 0.51238 0.0
N231 N 0.18177 0.61941 0.56094 0.0
C232 C 0.06718 0.7111 0.52835 0.0
C233 C 0.14228 0.65159 0.55307 0.0
N234 N 0.00184 0.64312 0.53518 0.0
N235 N 0.19579 0.72998 0.55729 0.0
H236 H 0.17622 0.57955 0.56452 0.0
H237 H 0.22135 0.63085 0.56163 0.0
H238 H 0.20377 0.77006 0.55512 0.0
H239 H 0.2206 0.71198 0.569 0.0
H240 H 0.97069 0.66609 0.52902 0.0
H241 H 0.99041 0.60555 0.54044 0.0
H242 H 0.00307 0.71712 0.50536 0.0
H243 H 0.04705 0.76977 0.50437 0.0
C244 C 0.35673 0.57605 0.81803 0.0
C245 C 0.39001 0.53838 0.80736 0.0
C246 C 0.34576 0.55574 0.77157 0.0
C247 C 0.30878 0.58897 0.78272 0.0
N248 N 0.27403 0.62457 0.81732 0.0
N249 N 0.41358 0.48763 0.77472 0.0
C250 C 0.31302 0.59776 0.80614 0.0
C251 C 0.38394 0.52702 0.78429 0.0
N252 N 0.36797 0.59262 0.83929 0.0
N253 N 0.34533 0.55301 0.74874 0.0
H254 H 0.44204 0.466 0.78355 0.0
H255 H 0.40717 0.47347 0.75859 0.0
H256 H 0.31846 0.57427 0.73892 0.0
H257 H 0.3744 0.53368 0.73943 0.0
H258 H 0.34894 0.62453 0.84693 0.0
H259 H 0.39949 0.57763 0.8487 0.0
H260 H 0.27154 0.62592 0.83469 0.0
H261 H 0.24169 0.64215 0.80945 0.0
C262 C 0.45883 0.83284 0.05823 0.0
C263 C 0.42576 0.87839 0.05745 0.0
C264 C 0.36135 0.82946 0.03482 0.0
C265 C 0.39108 0.7823 0.03807 0.0
N266 N 0.46251 0.73724 0.05738 0.0
N267 N 0.33907 0.91562 0.04964 0.0
C268 C 0.43841 0.78338 0.05099 0.0
C269 C 0.3752 0.87561 0.04699 0.0
N270 N 0.51024 0.83694 0.06523 0.0
N271 N 0.32101 0.83095 0.01954 0.0
H272 H 0.3461 0.94897 0.05947 0.0
H273 H 0.29993 0.91287 0.04417 0.0
H274 H 0.31078 0.79864 0.00959 0.0
H275 H 0.30161 0.86587 0.01503 0.0
H276 H 0.53746 0.80591 0.06401 0.0
H277 H 0.52718 0.87273 0.07009 0.0
H278 H 0.49405 0.73595 0.06865 0.0
H279 H 0.44759 0.69997 0.05346 0.0
C280 C 0.15181 0.59167 0.9442 0.0
C281 C 0.10143 0.5947 0.95467 0.0
C282 C 0.14363 0.62177 0.9899 0.0
C283 C 0.1936 0.62058 0.97911 0.0
N284 N 0.24444 0.61672 0.94515 0.0
N285 N 0.04767 0.61996 0.9862 0.0
C286 C 0.19743 0.60919 0.95598 0.0
C287 C 0.0968 0.61227 0.97714 0.0
N288 N 0.15627 0.57105 0.92313 0.0
N289 N 0.14124 0.63039 0.01244 0.0
H290 H 0.01272 0.61159 0.97757 0.0
H291 H 0.04126 0.63782 1.00165 0.0
H292 H 0.17464 0.63911 0.02206 0.0
H293 H 0.10693 0.62602 0.02185 0.0
H294 H 0.19241 0.56199 0.91565 0.0
H295 H 0.12375 0.55931 0.91359 0.0
H296 H 0.24872 0.61415 0.92788 0.0
H297 H 0.27837 0.63052 0.95323 0.0
C298 C 0.43601 0.66755 0.19711 0.0
C299 C 0.44576 0.61822 0.20768 0.0
C300 C 0.41001 0.65343 0.24292 0.0
C301 C 0.40474 0.70398 0.23284 0.0
N302 N 0.4188 0.76141 0.20116 0.0
N303 N 0.44911 0.56547 0.24116 0.0
C304 C 0.41983 0.71174 0.21021 0.0
C305 C 0.43442 0.6114 0.23073 0.0
N306 N 0.43918 0.67148 0.17435 0.0
N307 N 0.3918 0.64564 0.26415 0.0
H308 H 0.4676 0.53417 0.23282 0.0
H309 H 0.44714 0.55987 0.25836 0.0
H310 H 0.37632 0.67605 0.27402 0.0
H311 H 0.3888 0.60852 0.27153 0.0
H312 H 0.42646 0.70455 0.16543 0.0
H313 H 0.44996 0.63993 0.16403 0.0
H314 H 0.43564 0.77056 0.18579 0.0
H315 H 0.40418 0.79452 0.20957 0.0
C316 C 0.34595 0.01674 0.47522 0.0
C317 C 0.36245 0.98813 0.45596 0.0
C318 C 0.29489 0.92064 0.46317 0.0
C319 C 0.28064 0.94755 0.48312 0.0
N320 N 0.29706 0.01622 0.51016 0.0
N321 N 0.35734 0.90944 0.43299 0.0
C322 C 0.30722 0.99444 0.48966 0.0
C323 C 0.33855 0.93891 0.45046 0.0
N324 N 0.3675 0.06513 0.47979 0.0
N325 N 0.26473 0.87944 0.45557 0.0
H326 H 0.38575 0.92302 0.42191 0.0
H327 H 0.34701 0.87013 0.4302 0.0
H328 H 0.23246 0.86431 0.46425 0.0
H329 H 0.26864 0.86287 0.43972 0.0
H330 H 0.35267 0.09095 0.49184 0.0
H331 H 0.39878 0.08102 0.4707 0.0
H332 H 0.31866 0.0472 0.51705 0.0
H333 H 0.26965 1.00034 0.52127 0.0
C334 C 0.10387 0.88826 0.73867 0.0
C335 C 0.07731 0.89072 0.71775 0.0
C336 C 0.07639 0.79349 0.71602 0.0
C337 C 0.10932 0.79136 0.73536 0.0
N338 N 0.15554 0.83637 0.76509 0.0
N339 N 0.04337 0.84588 0.68508 0.0
C340 C 0.12337 0.83872 0.74668 0.0
C341 C 0.06418 0.84339 0.70618 0.0
N342 N 0.10877 0.93326 0.75122 0.0
N343 N 0.05706 0.74791 0.7068 0.0
H344 H 0.0332 0.88121 0.67721 0.0
H345 H 0.03991 0.81317 0.67457 0.0
H346 H 0.06732 0.71019 0.71233 0.0
H347 H 0.02766 0.74742 0.69456 0.0
H348 H 0.12305 0.93375 0.76755 0.0
H349 H 0.09384 0.96983 0.74603 0.0
H350 H 0.17285 0.86946 0.77241 0.0
H351 H 0.16711 0.80085 0.77253 0.0
C352 C 0.65954 0.39559 0.81591 0.0
C353 C 0.64182 0.4491 0.81698 0.0
C354 C 0.69292 0.46941 0.78339 0.0
C355 C 0.71853 0.41949 0.7852 0.0
N356 N 0.70734 0.32819 0.79494 0.0
N357 N 0.63992 0.53718 0.8015 0.0
C358 C 0.69621 0.38027 0.79906 0.0
C359 C 0.65772 0.48604 0.80054 0.0
N360 N 0.6432 0.36004 0.83158 0.0
N361 N 0.6989 0.49881 0.76445 0.0
H362 H 0.61193 0.55023 0.8131 0.0
H363 H 0.65526 0.56739 0.79168 0.0
H364 H 0.71812 0.48397 0.75034 0.0
H365 H 0.67845 0.53396 0.7614 0.0
H366 H 0.65978 0.32254 0.83356 0.0
H367 H 0.61469 0.36903 0.84352 0.0
H368 H 0.68957 0.29688 0.80327 0.0
H369 H 0.72937 0.31619 0.78108 0.0
C370 C 0.55674 0.16089 0.07512 0.0
C371 C 0.54464 0.11397 0.06309 0.0
C372 C 0.58457 0.15091 0.02924 0.0
C373 C 0.59367 0.19891 0.04091 0.0
N374 N 0.58286 0.25299 0.0739 0.0
N375 N 0.53922 0.06643 0.02824 0.0
C376 C 0.57773 0.20502 0.0635 0.0
C377 C 0.55651 0.10951 0.04 0.0
N378 N 0.55124 0.1622 0.09786 0.0
N379 N 0.60311 0.14484 0.00792 0.0
H380 H 0.51825 0.03561 0.03561 0.0
H381 H 0.54165 0.06303 0.01094 0.0
H382 H 0.62159 0.17515 0.99913 0.0
H383 H 0.60322 0.10894 0.99937 0.0
H384 H 0.56523 0.19284 0.10787 0.0
H385 H 0.53651 0.13064 0.10712 0.0
H386 H 0.56576 0.26195 0.08927 0.0
H387 H 0.60161 0.28523 0.06657 0.0
C388 C 0.86377 0.08727 0.29454 0.0
C389 C 0.86122 0.04109 0.30802 0.0
C390 C 0.76433 0.04254 0.30463 0.0
C391 C 0.76768 0.08376 0.28859 0.0
N392 N 0.82259 0.13799 0.26492 0.0
N393 N 0.80915 0.96874 0.32229 0.0
C394 C 0.81795 0.1042 0.2826 0.0
C395 C 0.81148 0.01701 0.31209 0.0
N396 N 0.90907 0.11663 0.29391 0.0
N397 N 0.71639 0.02914 0.31352 0.0
H398 H 0.84278 0.9477 0.32731 0.0
H399 H 0.77423 0.94716 0.32362 0.0
H400 H 0.68112 0.04852 0.30939 0.0
H401 H 0.7125 0.00292 0.32682 0.0
H402 H 0.9111 0.15335 0.28607 0.0
H403 H 0.94276 0.10746 0.30327 0.0
H404 H 0.85908 0.14959 0.25852 0.0
H405 H 0.79046 0.15008 0.25517 0.0
C406 C 0.98924 0.34855 0.55358 0.0
C407 C 0.96244 0.39731 0.55003 0.0
C408 C 0.89466 0.3508 0.52821 0.0
C409 C 0.91764 0.30165 0.53449 0.0
N410 N 0.97899 0.25452 0.55856 0.0
N411 N 0.88242 0.44273 0.53819 0.0
C412 C 0.96279 0.30064 0.5487 0.0
C413 C 0.91313 0.39803 0.53846 0.0
N414 N 0.04058 0.34779 0.5609 0.0
N415 N 0.85661 0.35287 0.51194 0.0
H416 H 0.89283 0.47753 0.54643 0.0
H417 H 0.84391 0.44339 0.53185 0.0
H418 H 0.84322 0.31946 0.50343 0.0
H419 H 0.84244 0.38834 0.5053 0.0
H420 H 0.0631 0.31314 0.5618 0.0
H421 H 0.06251 0.3821 0.56357 0.0
H422 H 0.00883 0.25309 0.57062 0.0
H423 H 0.95864 0.21894 0.55681 0.0
C424 C 0.64076 0.04772 0.4854 0.0
C425 C 0.62198 0.07501 0.46627 0.0
C426 C 0.69416 0.13906 0.46963 0.0
C427 C 0.71149 0.11336 0.48951 0.0
N428 N 0.69471 0.05076 0.51897 0.0
N429 N 0.62396 0.15168 0.44238 0.0
C430 C 0.68289 0.06975 0.49815 0.0
C431 C 0.64642 0.12243 0.45916 0.0
N432 N 0.61882 1.00034 0.49117 0.0
N433 N 0.72483 0.17697 0.45986 0.0
H434 H 0.5903 0.13971 0.43361 0.0
H435 H 0.63622 0.18973 0.43829 0.0
H436 H 0.7605 0.19023 0.46653 0.0
H437 H 0.71747 0.1921 0.44397 0.0
H438 H 0.63468 0.97552 0.50337 0.0
H439 H 0.58667 0.98398 0.48267 0.0
H440 H 0.67213 0.02243 0.52714 0.0
H441 H 0.72414 0.06712 0.52909 0.0
C442 C 0.93846 0.16733 0.7412 0.0
C443 C 0.96455 0.16985 0.72016 0.0
C444 C 0.96276 0.26716 0.72196 0.0
C445 C 0.93666 0.26457 0.74297 0.0
N446 N 0.90825 0.21361 0.77458 0.0
N447 N 0.00953 0.22145 0.69218 0.0
C448 C 0.92695 0.21496 0.75315 0.0
C449 C 0.97963 0.21956 0.71119 0.0
N450 N 0.92432 0.1192 0.74965 0.0
N451 N 0.96844 0.315 0.71159 0.0
H452 H 0.01975 0.18809 0.68287 0.0
H453 H 0.02745 0.25572 0.68634 0.0
H454 H 0.95767 0.35087 0.71892 0.0
H455 H 0.98034 0.3193 0.69506 0.0
H456 H 0.89928 0.1144 0.76327 0.0
H457 H 0.93626 0.08341 0.7425 0.0
H458 H 0.90488 0.17922 0.78398 0.0
H459 H 0.89983 0.24778 0.78376 0.0
C460 C 0.86437 0.359 0.94857 0.0
C461 C 0.89604 0.39907 0.95854 0.0
C462 C 0.84971 0.38778 0.99415 0.0
C463 C 0.81471 0.35193 0.98362 0.0
N464 N 0.79842 0.29028 0.95371 0.0
N465 N 0.93279 0.43548 0.99231 0.0
C466 C 0.82557 0.33287 0.9618 0.0
C467 C 0.89326 0.40798 0.98192 0.0
N468 N 0.86901 0.34799 0.92632 0.0
N469 N 0.84017 0.40379 0.01561 0.0
H470 H 0.96596 0.449 0.98367 0.0
H471 H 0.93555 0.4401 0.00956 0.0
H472 H 0.81055 0.38706 0.02543 0.0
H473 H 0.86012 0.43481 0.02335 0.0
H474 H 0.84175 0.32556 0.91736 0.0
H475 H 0.89978 0.36212 0.91655 0.0
H476 H 0.80736 0.27143 0.9387 0.0
H477 H 0.76986 0.27057 0.96303 0.0
C478 C 0.52916 0.33966 0.20962 0.0
C479 C 0.56541 0.38232 0.20882 0.0
C480 C 0.62886 0.33066 0.23124 0.0
C481 C 0.5948 0.28631 0.23007 0.0
N482 N 0.51872 0.24495 0.21281 0.0
N483 N 0.65538 0.41271 0.21395 0.0
C484 C 0.54665 0.28971 0.21774 0.0
C485 C 0.6169 0.37629 0.21826 0.0
N486 N 0.47746 0.34711 0.20347 0.0
N487 N 0.67157 0.33021 0.24533 0.0
H488 H 0.6494 0.44522 0.20354 0.0
H489 H 0.69484 0.40743 0.21866 0.0
H490 H 0.68109 0.2981 0.25552 0.0
H491 H 0.6944 0.36363 0.24852 0.0
H492 H 0.44833 0.31864 0.2059 0.0
H493 H 0.46244 0.38346 0.19811 0.0
H494 H 0.48624 0.24479 0.20202 0.0
H495 H 0.53139 0.20713 0.21736 0.0
C496 C 0.97213 0.89431 0.43662 0.0
C497 C 0.99862 0.91707 0.4181 0.0
C498 C 0.08157 0.91931 0.43965 0.0
C499 C 0.05379 0.90162 0.45876 0.0
N500 N 0.97255 0.87531 0.47645 0.0
N501 N 0.07697 0.9599 0.4033 0.0
C502 C 0.99896 0.88995 0.45754 0.0
C503 C 0.0531 0.93125 0.41981 0.0
N504 N 0.92169 0.87581 0.43395 0.0
N505 N 0.13539 0.92549 0.44048 0.0
H506 H 0.05892 0.97016 0.38829 0.0
H507 H 0.11386 0.97767 0.40513 0.0
H508 H 0.15743 0.92257 0.45517 0.0
H509 H 0.15877 0.93036 0.42632 0.0
H510 H 0.90152 0.85443 0.44606 0.0
H511 H 0.90136 0.87805 0.41876 0.0
H512 H 0.93154 0.87179 0.47736 0.0
H513 H 0.99152 0.86958 0.49178 0.0
C514 C 0.13023 0.60259 0.65098 0.0
C515 C 0.14559 0.551 0.64389 0.0
C516 C 0.17536 0.53035 0.68195 0.0
C517 C 0.16426 0.58334 0.68828 0.0
N518 N 0.14247 0.67311 0.67774 0.0
N519 N 0.18912 0.4679 0.65156 0.0
C520 C 0.14579 0.62056 0.67239 0.0
C521 C 0.17006 0.5154 0.6591 0.0
N522 N 0.09694 0.63296 0.63817 0.0
N523 N 0.19037 0.49437 0.69781 0.0
H524 H 0.18586 0.45603 0.6349 0.0
H525 H 0.21178 0.4422 0.66129 0.0
H526 H 0.19687 0.50471 0.71448 0.0
H527 H 0.19341 0.4539 0.69477 0.0
H528 H 0.08014 0.66829 0.6438 0.0
H529 H 0.08058 0.6203 0.6231 0.0
H530 H 0.13467 0.70245 0.66594 0.0
H531 H 0.15214 0.6881 0.69345 0.0
C532 C 0.50104 0.59851 0.93012 0.0
C533 C 0.4805 0.55497 0.918 0.0
C534 C 0.40291 0.55238 0.94263 0.0
C535 C 0.42602 0.59233 0.9561 0.0
N536 N 0.49861 0.65101 0.96419 0.0
N537 N 0.4146 0.48661 0.91367 0.0
C538 C 0.47533 0.61517 0.95016 0.0
C539 C 0.43201 0.53106 0.92444 0.0
N540 N 0.54464 0.62425 0.92223 0.0
N541 N 0.35229 0.53597 0.94678 0.0
H542 H 0.43305 0.47078 0.89961 0.0
H543 H 0.38378 0.46318 0.91948 0.0
H544 H 0.32982 0.54961 0.96022 0.0
H545 H 0.33066 0.51215 0.9359 0.0
H546 H 0.55887 0.65945 0.92893 0.0
H547 H 0.56439 0.61239 0.90774 0.0
H548 H 0.53693 0.66514 0.96211 0.0
H549 H 0.48091 0.66405 0.97896 0.0
C550 C 0.3379 0.91884 0.16598 0.0
C551 C 0.37379 0.9609 0.16324 0.0
C552 C 0.37862 0.97149 0.20389 0.0
C553 C 0.35231 0.92238 0.20648 0.0
N554 N 0.31235 0.84527 0.18897 0.0
N555 N 0.43137 0.02656 0.17963 0.0
C556 C 0.3323 0.89533 0.18732 0.0
C557 C 0.39431 0.98783 0.18219 0.0
N558 N 0.31023 0.90056 0.14792 0.0
N559 N 0.38803 0.00275 0.22211 0.0
H560 H 0.44327 0.04056 0.16408 0.0
H561 H 0.45284 0.04237 0.19293 0.0
H562 H 0.37544 0.9927 0.23814 0.0
H563 H 0.40308 0.04095 0.22097 0.0
H564 H 0.2798 0.87302 0.14917 0.0
H565 H 0.31406 0.91738 0.13208 0.0
H566 H 0.30314 0.82213 0.17508 0.0
H567 H 0.31004 0.82408 0.2038 0.0
C568 C 0.06301 0.51768 0.83468 0.0
C569 C 0.06222 0.55321 0.85326 0.0
C570 C 0.08821 0.6251 0.82854 0.0
C571 C 0.09574 0.58907 0.8107 0.0
N572 N 0.10498 0.49725 0.79941 0.0
N573 N 0.09693 0.63532 0.86823 0.0
C574 C 0.08757 0.53412 0.81445 0.0
C575 C 0.082 0.60523 0.85032 0.0
N576 N 0.03831 0.46977 0.83549 0.0
N577 N 0.08515 0.67834 0.8248 0.0
H578 H 0.0983 0.62052 0.88447 0.0
H579 H 0.11475 0.67221 0.86643 0.0
H580 H 0.08492 0.69468 0.80881 0.0
H581 H 0.07597 0.7053 0.83746 0.0
H582 H 0.03366 0.44589 0.8214 0.0
H583 H 0.0171 0.45619 0.84915 0.0
H584 H 0.104 0.45673 0.80263 0.0
H585 H 0.12595 0.50676 0.78502 0.0
C586 C 0.3861 0.47506 0.09199 0.0
C587 C 0.38728 0.50507 0.11208 0.0
C588 C 0.35585 0.58371 0.09201 0.0
C589 C 0.35534 0.55402 0.07184 0.0
N590 N 0.35647 0.46929 0.05339 0.0
N591 N 0.35882 0.58211 0.13253 0.0
C592 C 0.36608 0.49887 0.07211 0.0
C593 C 0.36708 0.5575 0.11246 0.0
N594 N 0.40686 0.42503 0.09155 0.0
N595 N 0.34931 0.63747 0.0915 0.0
H596 H 0.36623 0.56338 0.14777 0.0
H597 H 0.33981 0.6186 0.13413 0.0
H598 H 0.34171 0.6586 0.07689 0.0
H599 H 0.35564 0.66179 0.10531 0.0
H600 H 0.41342 0.40376 0.0769 0.0
H601 H 0.42011 0.40549 0.10583 0.0
H602 H 0.35859 0.42814 0.05305 0.0
H603 H 0.34154 0.48566 0.03865 0.0
C604 C 0.43349 0.85349 0.36681 0.0
C605 C 0.47873 0.88606 0.36707 0.0
C606 C 0.48784 0.87358 0.32665 0.0
C607 C 0.43578 0.85262 0.32593 0.0
N608 N 0.35665 0.82619 0.34586 0.0
N609 N 0.55127 0.9264 0.34732 0.0
C610 C 0.40829 0.84222 0.34617 0.0
C611 C 0.50747 0.8949 0.34709 0.0
N612 N 0.41385 0.83491 0.38651 0.0
N613 N 0.51839 0.87281 0.30784 0.0
H614 H 0.56773 0.9414 0.36198 0.0
H615 H 0.57007 0.93951 0.3329 0.0
H616 H 0.50522 0.85659 0.29277 0.0
H617 H 0.55821 0.88345 0.30772 0.0
H618 H 0.38327 0.80747 0.38742 0.0
H619 H 0.43237 0.84288 0.40178 0.0
H620 H 0.33337 0.8239 0.36017 0.0
H621 H 0.33514 0.81996 0.33126 0.0
C622 C 0.14671 0.03581 0.60438 0.0
C623 C 0.1157 0.00797 0.62024 0.0
C624 C 0.10868 0.93264 0.59437 0.0
C625 C 0.13808 0.96126 0.57835 0.0
N626 N 0.19447 0.03433 0.56908 0.0
N627 N 0.07805 0.92465 0.63242 0.0
C628 C 0.16032 0.01103 0.58373 0.0
C629 C 0.1006 0.95457 0.61601 0.0
N630 N 0.16194 0.08653 0.60896 0.0
N631 N 0.08629 0.88535 0.58854 0.0
H632 H 0.0681 0.93881 0.64815 0.0
H633 H 0.07272 0.88395 0.63114 0.0
H634 H 0.09361 0.86648 0.57334 0.0
H635 H 0.05789 0.86615 0.59809 0.0
H636 H 0.17882 0.11175 0.59728 0.0
H637 H 0.15616 0.10415 0.62456 0.0
H638 H 0.21603 0.06829 0.57266 0.0
H639 H 0.20415 0.01747 0.55368 0.0
C640 C 0.58847 0.32159 0.90831 0.0
C641 C 0.53944 0.34831 0.90637 0.0
C642 C 0.52965 0.34682 0.94714 0.0
C643 C 0.5837 0.33086 0.94894 0.0
N644 N 0.66616 0.30615 0.93095 0.0
N645 N 0.45406 0.36489 0.92281 0.0
C646 C 0.61323 0.31762 0.92949 0.0
C647 C 0.50685 0.35446 0.92548 0.0
N648 N 0.61123 0.30048 0.88961 0.0
N649 N 0.50069 0.35508 0.96613 0.0
H650 H 0.43551 0.36316 0.90727 0.0
H651 H 0.42726 0.36947 0.93582 0.0
H652 H 0.51492 0.34568 0.98203 0.0
H653 H 0.46297 0.37177 0.96644 0.0
H654 H 0.645 0.27658 0.88995 0.0
H655 H 0.59238 0.30223 0.87406 0.0
H656 H 0.69063 0.30208 0.91705 0.0
H657 H 0.68715 0.3057 0.94594 0.0
C658 C 0.61407 0.03104 0.16175 0.0
C659 C 0.57855 0.98794 0.16288 0.0
C660 C 0.58017 0.99425 0.20375 0.0
C661 C 0.60627 0.04369 0.20218 0.0
N662 N 0.64085 0.1134 0.17867 0.0
N663 N 0.52179 0.93241 0.18547 0.0
C664 C 0.62211 0.06303 0.18095 0.0
C665 C 0.56046 0.96989 0.18402 0.0
N666 N 0.63944 0.04183 0.14215 0.0
N667 N 0.57489 0.97006 0.22402 0.0
H668 H 0.50508 0.91366 0.17169 0.0
H669 H 0.50287 0.9232 0.20042 0.0
H670 H 0.59055 0.98576 0.23875 0.0
H671 H 0.56034 0.93178 0.22578 0.0
H672 H 0.66922 0.07006 0.14084 0.0
H673 H 0.63458 0.01853 0.12787 0.0
H674 H 0.64761 0.13084 0.16318 0.0
H675 H 0.64422 0.14 0.1919 0.0
C676 C 0.9889 0.12519 0.42194 0.0
C677 C 0.95066 0.10639 0.4064 0.0
C678 C 0.88233 0.10945 0.43554 0.0
C679 C 0.92127 0.12475 0.45138 0.0
N680 N 0.01247 0.14119 0.46081 0.0
N681 N 0.86359 0.06921 0.39979 0.0
C682 C 0.97492 0.13072 0.44492 0.0
C683 C 0.89791 0.09589 0.41348 0.0
N684 N 0.03803 0.13931 0.41453 0.0
N685 N 0.83019 0.10734 0.44162 0.0
H686 H 0.87322 0.05587 0.38384 0.0
H687 H 0.82707 0.05496 0.40505 0.0
H688 H 0.8175 0.11167 0.45806 0.0
H689 H 0.79915 0.10429 0.43018 0.0
H690 H 0.06622 0.15801 0.42445 0.0
H691 H 0.04922 0.13619 0.3978 0.0
H692 H 0.05304 0.14054 0.45772 0.0
H693 H 0.00319 0.14698 0.47763 0.0
C694 C 0.90337 0.45258 0.66272 0.0
C695 C 0.94149 0.49216 0.6588 0.0
C696 C 0.93979 0.51599 0.69853 0.0
C697 C 0.90911 0.47026 0.70292 0.0
N698 N 0.8698 0.38906 0.68898 0.0
N699 N 0.00026 0.55931 0.67315 0.0
C700 C 0.89231 0.43724 0.68496 0.0
C701 C 0.96047 0.52386 0.6767 0.0
N702 N 0.87819 0.42921 0.64506 0.0
N703 N 0.9483 0.55236 0.71507 0.0
H704 H 0.01573 0.56695 0.65737 0.0
H705 H 0.02029 0.57852 0.68605 0.0
H706 H 0.93262 0.54847 0.73109 0.0
H707 H 0.96635 0.58872 0.7123 0.0
H708 H 0.84635 0.40352 0.64693 0.0
H709 H 0.88554 0.44001 0.62852 0.0
H710 H 0.86237 0.36146 0.67642 0.0
H711 H 0.86399 0.37361 0.70489 0.0
C712 C 0.50698 0.14081 0.3531 0.0
C713 C 0.48213 0.09127 0.35615 0.0
C714 C 0.5084 0.06392 0.31847 0.0
C715 C 0.53227 0.11411 0.31512 0.0
N716 N 0.53952 0.2054 0.32669 0.0
N717 N 0.44494 0.01264 0.33937 0.0
C718 C 0.52707 0.15421 0.33167 0.0
C719 C 0.47763 0.05541 0.33796 0.0
N720 N 0.5122 0.1747 0.37078 0.0
N721 N 0.51833 0.02288 0.3041 0.0
H722 H 0.42197 0.00458 0.35335 0.0
H723 H 0.43618 0.98836 0.32578 0.0
H724 H 0.54421 0.02522 0.29064 0.0
H725 H 0.50531 0.98446 0.30685 0.0
H726 H 0.53564 0.20848 0.37031 0.0
H727 H 0.49508 0.16742 0.38633 0.0
H728 H 0.53223 0.23697 0.33748 0.0
H729 H 0.55166 0.21717 0.31082 0.0
C730 C 0.93285 0.03772 0.6054 0.0
C731 C 0.91815 0.07241 0.62325 0.0
C732 C 0.87451 0.13137 0.59639 0.0
C733 C 0.88659 0.09559 0.57872 0.0
N734 N 0.91414 0.00797 0.56763 0.0
N735 N 0.86003 0.14191 0.6361 0.0
C736 C 0.91156 0.04657 0.58363 0.0
C737 C 0.88376 0.11563 0.61881 0.0
N738 N 0.96944 0.99838 0.60857 0.0
N739 N 0.85819 0.18196 0.59193 0.0
H740 H 0.865 0.13036 0.65272 0.0
H741 H 0.83105 0.17093 0.63372 0.0
H742 H 0.85468 0.19727 0.57585 0.0
H743 H 0.85412 0.21075 0.60431 0.0
H744 H 0.98642 0.97725 0.59542 0.0
H745 H 0.98604 0.98895 0.62395 0.0
H746 H 0.92721 0.96957 0.57092 0.0
H747 H 0.89797 0.01267 0.55169 0.0
C748 C 0.92049 0.56246 0.85071 0.0
C749 C 0.90283 0.53433 0.86984 0.0
C750 C 0.884 0.45717 0.8462 0.0
C751 C 0.90733 0.48304 0.82753 0.0
N752 N 0.95529 0.55772 0.813 0.0
N753 N 0.87375 0.45271 0.88638 0.0
C754 C 0.92753 0.5351 0.83006 0.0
C755 C 0.88735 0.48074 0.86779 0.0
N756 N 0.93051 0.61546 0.85225 0.0
N757 N 0.854 0.41278 0.84311 0.0
H758 H 0.87221 0.46931 0.90231 0.0
H759 H 0.86753 0.41204 0.88613 0.0
H760 H 0.84602 0.39627 0.82753 0.0
H761 H 0.8313 0.39579 0.85568 0.0
H762 H 0.93717 0.63951 0.83844 0.0
H763 H 0.92932 0.63627 0.86731 0.0
H764 H 0.97464 0.59384 0.81437 0.0
H765 H 0.96416 0.53782 0.79818 0.0
C766 C 0.58692 0.42987 0.10015 0.0
C767 C 0.62722 0.45966 0.11093 0.0
C768 C 0.68532 0.44776 0.07844 0.0
C769 C 0.6444 0.41917 0.06746 0.0
N770 N 0.55323 0.39021 0.06619 0.0
N771 N 0.71114 0.50401 0.10969 0.0
C772 C 0.59419 0.4128 0.07774 0.0
C773 C 0.67539 0.47083 0.09984 0.0
N774 N 0.54252 0.4156 0.11172 0.0
N775 N 0.73378 0.4522 0.06847 0.0
H776 H 0.70503 0.52063 0.12546 0.0
H777 H 0.74496 0.518 0.1018 0.0
H778 H 0.74126 0.43878 0.05228 0.0
H779 H 0.76722 0.46713 0.07645 0.0
H780 H 0.51606 0.38701 0.10614 0.0
H781 H 0.53384 0.42913 0.12777 0.0
H782 H 0.51411 0.39104 0.07165 0.0
H783 H 0.55712 0.37343 0.05038 0.0
loop_
_geom_bond_atom_site_label_1
_geom_bond_atom_site_label_2
_geom_bond_distance
_geom_bond_site_symmetry_2
_ccdc_geom_bond_type
Mg0 O7 2.141 1_545 S
Mg0 O8 2.048 1_545 S
Mg0 O9 2.048 1_455 S
Mg0 O12 2.141 1_455 S
C1 O2 1.313 . S
C1 O8 1.195 . S
O2 C1 1.313 . S
C3 O4 1.245 . S
C3 O12 1.289 . S
O4 C3 1.245 . S
C5 O6 1.245 . S
C5 O7 1.289 . S
O6 C5 1.245 . S
O7 Mg0 2.141 1_565 S
O7 C5 1.289 . S
O8 Mg0 2.048 1_565 S
O8 C1 1.195 . S
O9 Mg0 2.048 1_655 S
O9 C10 1.195 . S
C10 O9 1.195 . S
C10 O11 1.313 1_545 S
O11 C10 1.313 1_565 S
O12 Mg0 2.141 1_655 S
O12 C3 1.289 . S
Mg13 O20 2.141 1_655 S
Mg13 O21 2.048 1_655 S
Mg13 O22 2.048 . S
Mg13 O25 2.141 . S
C14 O15 1.313 . S
C14 O21 1.195 . S
O15 C14 1.313 . S
C16 O17 1.245 . S
C16 O25 1.289 . S
O17 C16 1.245 . S
C18 O19 1.245 . S
C18 O20 1.289 . S
O19 C18 1.245 . S
O20 Mg13 2.141 1_455 S
O20 C18 1.289 . S
O21 Mg13 2.048 1_455 S
O21 C14 1.195 . S
O22 Mg13 2.048 . S
O22 C23 1.195 . S
C23 O22 1.195 . S
C23 O24 1.313 1_655 S
O24 C23 1.313 1_455 S
O25 Mg13 2.141 . S
O25 C16 1.289 . S
Mg26 O33 2.141 . S
Mg26 O34 2.048 . S
Mg26 O35 2.048 . S
Mg26 O38 2.141 . S
C27 O28 1.313 . S
C27 O34 1.195 . S
O28 C27 1.313 . S
C29 O30 1.245 . S
C29 O38 1.289 . S
O30 C29 1.245 . S
C31 O32 1.245 . S
C31 O33 1.289 . S
O32 C31 1.245 . S
O33 Mg26 2.141 . S
O33 C31 1.289 . S
O34 Mg26 2.048 . S
O34 C27 1.195 . S
O35 Mg26 2.048 . S
O35 C36 1.195 . S
C36 O35 1.195 . S
C36 O37 1.313 . S
O37 C36 1.313 . S
O38 Mg26 2.141 . S
O38 C29 1.289 . S
Mg39 O46 2.141 . S
Mg39 O47 2.048 . S
Mg39 O48 2.048 1_545 S
Mg39 O51 2.141 1_545 S
C40 O41 1.313 . S
C40 O47 1.195 . S
O41 C40 1.313 . S
C42 O43 1.245 . S
C42 O51 1.289 . S
O43 C42 1.245 . S
C44 O45 1.245 . S
C44 O46 1.289 . S
O45 C44 1.245 . S
O46 Mg39 2.141 . S
O46 C44 1.289 . S
O47 Mg39 2.048 . S
O47 C40 1.195 . S
O48 Mg39 2.048 1_565 S
O48 C49 1.195 . S
C49 O48 1.195 . S
C49 O50 1.313 . S
O50 C49 1.313 . S
O51 Mg39 2.141 1_565 S
O51 C42 1.289 . S
Mg52 O59 2.141 . S
Mg52 O60 2.048 . S
Mg52 O61 2.048 1_455 S
Mg52 O64 2.141 1_455 S
C53 O54 1.313 . S
C53 O60 1.195 . S
O54 C53 1.313 . S
C55 O56 1.245 . S
C55 O64 1.289 . S
O56 C55 1.245 . S
C57 O58 1.245 . S
C57 O59 1.289 . S
O58 C57 1.245 . S
O59 Mg52 2.141 . S
O59 C57 1.289 . S
O60 Mg52 2.048 . S
O60 C53 1.195 . S
O61 Mg52 2.048 1_655 S
O61 C62 1.195 . S
C62 O61 1.195 . S
C62 O63 1.313 . S
O63 C62 1.313 . S
O64 Mg52 2.141 1_655 S
O64 C55 1.289 . S
Mg65 O72 2.141 . S
Mg65 O73 2.048 . S
Mg65 O74 2.048 . S
Mg65 O77 2.141 . S
C66 O67 1.313 . S
C66 O73 1.195 . S
O67 C66 1.313 . S
C68 O69 1.245 . S
C68 O77 1.289 . S
O69 C68 1.245 . S
C70 O71 1.245 . S
C70 O72 1.289 . S
O71 C70 1.245 . S
O72 Mg65 2.141 . S
O72 C70 1.289 . S
O73 Mg65 2.048 . S
O73 C66 1.195 . S
O74 Mg65 2.048 . S
O74 C75 1.195 . S
C75 O74 1.195 . S
C75 O76 1.313 . S
O76 C75 1.313 . S
O77 Mg65 2.141 . S
O77 C68 1.289 . S
Mg78 O85 2.141 1_565 S
Mg78 O86 2.048 1_565 S
Mg78 O87 2.048 . S
Mg78 O90 2.141 . S
C79 O80 1.313 . S
C79 O86 1.195 . S
O80 C79 1.313 . S
C81 O82 1.245 . S
C81 O90 1.289 . S
O82 C81 1.245 . S
C83 O84 1.245 . S
C83 O85 1.289 . S
O84 C83 1.245 . S
O85 Mg78 2.141 1_545 S
O85 C83 1.289 . S
O86 Mg78 2.048 1_545 S
O86 C79 1.195 . S
O87 Mg78 2.048 . S
O87 C88 1.195 . S
C88 O87 1.195 . S
C88 O89 1.313 1_565 S
O89 C88 1.313 1_545 S
O90 Mg78 2.141 . S
O90 C81 1.289 . S
Mg91 O98 2.141 1_655 S
Mg91 O99 2.048 1_655 S
Mg91 O100 2.048 1_565 S
Mg91 O103 2.141 1_565 S
C92 O93 1.313 . S
C92 O99 1.195 . S
O93 C92 1.313 . S
C94 O95 1.245 . S
C94 O103 1.289 . S
O95 C94 1.245 . S
C96 O97 1.245 . S
C96 O98 1.289 . S
O97 C96 1.245 . S
O98 Mg91 2.141 1_455 S
O98 C96 1.289 . S
O99 Mg91 2.048 1_455 S
O99 C92 1.195 . S
O100 Mg91 2.048 1_545 S
O100 C101 1.195 . S
C101 O100 1.195 . S
C101 O102 1.313 1_655 S
O102 C101 1.313 1_455 S
O103 Mg91 2.141 1_545 S
O103 C94 1.289 . S
In104 O105 2.294 . S
In104 O106 2.326 . S
In104 O110 2.266 1_554 S
In104 O111 2.326 1_554 S
In104 O112 2.266 1_554 S
In104 O113 2.326 1_554 S
In104 O115 2.294 . S
In104 O116 2.326 . S
O105 In104 2.294 . S
O105 C114 1.240 . S
O106 In104 2.326 . S
O106 C114 1.252 . S
C107 O110 1.252 . S
C107 O111 1.260 . S
C108 O115 1.240 . S
C108 O116 1.252 . S
C109 O112 1.252 . S
C109 O113 1.260 . S
O110 In104 2.266 1_556 S
O110 C107 1.252 . S
O111 In104 2.326 1_556 S
O111 C107 1.260 . S
O112 In104 2.266 1_556 S
O112 C109 1.252 . S
O113 In104 2.326 1_556 S
O113 C109 1.260 . S
C114 O105 1.240 . S
C114 O106 1.252 . S
O115 In104 2.294 . S
O115 C108 1.240 . S
O116 In104 2.326 . S
O116 C108 1.252 . S
In117 O118 2.294 . S
In117 O119 2.326 . S
In117 O123 2.266 . S
In117 O124 2.326 . S
In117 O125 2.266 . S
In117 O126 2.326 . S
In117 O128 2.294 . S
In117 O129 2.326 . S
O118 In117 2.294 . S
O118 C127 1.240 . S
O119 In117 2.326 . S
O119 C127 1.252 . S
C120 O123 1.252 . S
C120 O124 1.260 . S
C121 O128 1.240 . S
C121 O129 1.252 . S
C122 O125 1.252 . S
C122 O126 1.260 . S
O123 In117 2.266 . S
O123 C120 1.252 . S
O124 In117 2.326 . S
O124 C120 1.260 . S
O125 In117 2.266 . S
O125 C122 1.252 . S
O126 In117 2.326 . S
O126 C122 1.260 . S
C127 O118 1.240 . S
C127 O119 1.252 . S
O128 In117 2.294 . S
O128 C121 1.240 . S
O129 In117 2.326 . S
O129 C121 1.252 . S
In130 O131 2.294 . S
In130 O132 2.326 . S
In130 O136 2.266 . S
In130 O137 2.326 . S
In130 O138 2.266 . S
In130 O139 2.326 . S
In130 O141 2.294 . S
In130 O142 2.326 . S
O131 In130 2.294 . S
O131 C140 1.240 . S
O132 In130 2.326 . S
O132 C140 1.252 . S
C133 O136 1.252 . S
C133 O137 1.260 . S
C134 O141 1.240 . S
C134 O142 1.252 . S
C135 O138 1.252 . S
C135 O139 1.260 . S
O136 In130 2.266 . S
O136 C133 1.252 . S
O137 In130 2.326 . S
O137 C133 1.260 . S
O138 In130 2.266 . S
O138 C135 1.252 . S
O139 In130 2.326 . S
O139 C135 1.260 . S
C140 O131 1.240 . S
C140 O132 1.252 . S
O141 In130 2.294 . S
O141 C134 1.240 . S
O142 In130 2.326 . S
O142 C134 1.252 . S
In143 O144 2.294 . S
In143 O145 2.326 . S
In143 O149 2.266 . S
In143 O150 2.326 . S
In143 O151 2.266 . S
In143 O152 2.326 . S
In143 O154 2.294 . S
In143 O155 2.326 . S
O144 In143 2.294 . S
O144 C153 1.240 . S
O145 In143 2.326 . S
O145 C153 1.252 . S
C146 O149 1.252 . S
C146 O150 1.260 . S
C147 O154 1.240 . S
C147 O155 1.252 . S
C148 O151 1.252 . S
C148 O152 1.260 . S
O149 In143 2.266 . S
O149 C146 1.252 . S
O150 In143 2.326 . S
O150 C146 1.260 . S
O151 In143 2.266 . S
O151 C148 1.252 . S
O152 In143 2.326 . S
O152 C148 1.260 . S
C153 O144 1.240 . S
C153 O145 1.252 . S
O154 In143 2.294 . S
O154 C147 1.240 . S
O155 In143 2.326 . S
O155 C147 1.252 . S
In156 O157 2.294 . S
In156 O158 2.326 . S
In156 O162 2.266 . S
In156 O163 2.326 . S
In156 O164 2.266 . S
In156 O165 2.326 . S
In156 O167 2.294 . S
In156 O168 2.326 . S
O157 In156 2.294 . S
O157 C166 1.240 . S
O158 In156 2.326 . S
O158 C166 1.252 . S
C159 O162 1.252 . S
C159 O163 1.260 . S
C160 O167 1.240 . S
C160 O168 1.252 . S
C161 O164 1.252 . S
C161 O165 1.260 . S
O162 In156 2.266 . S
O162 C159 1.252 . S
O163 In156 2.326 . S
O163 C159 1.260 . S
O164 In156 2.266 . S
O164 C161 1.252 . S
O165 In156 2.326 . S
O165 C161 1.260 . S
C166 O157 1.240 . S
C166 O158 1.252 . S
O167 In156 2.294 . S
O167 C160 1.240 . S
O168 In156 2.326 . S
O168 C160 1.252 . S
In169 O170 2.294 . S
In169 O171 2.326 . S
In169 O175 2.266 . S
In169 O176 2.326 . S
In169 O177 2.266 . S
In169 O178 2.326 . S
In169 O180 2.294 . S
In169 O181 2.326 . S
O170 In169 2.294 . S
O170 C179 1.240 . S
O171 In169 2.326 . S
O171 C179 1.252 . S
C172 O175 1.252 . S
C172 O176 1.260 . S
C173 O180 1.240 . S
C173 O181 1.252 . S
C174 O177 1.252 . S
C174 O178 1.260 . S
O175 In169 2.266 . S
O175 C172 1.252 . S
O176 In169 2.326 . S
O176 C172 1.260 . S
O177 In169 2.266 . S
O177 C174 1.252 . S
O178 In169 2.326 . S
O178 C174 1.260 . S
C179 O170 1.240 . S
C179 O171 1.252 . S
O180 In169 2.294 . S
O180 C173 1.240 . S
O181 In169 2.326 . S
O181 C173 1.252 . S
In182 O183 2.294 . S
In182 O184 2.326 . S
In182 O188 2.266 1_554 S
In182 O189 2.326 1_554 S
In182 O190 2.266 1_554 S
In182 O191 2.326 1_554 S
In182 O193 2.294 . S
In182 O194 2.326 . S
O183 In182 2.294 . S
O183 C192 1.240 . S
O184 In182 2.326 . S
O184 C192 1.252 . S
C185 O188 1.252 . S
C185 O189 1.260 . S
C186 O193 1.240 . S
C186 O194 1.252 . S
C187 O190 1.252 . S
C187 O191 1.260 . S
O188 In182 2.266 1_556 S
O188 C185 1.252 . S
O189 In182 2.326 1_556 S
O189 C185 1.260 . S
O190 In182 2.266 1_556 S
O190 C187 1.252 . S
O191 In182 2.326 1_556 S
O191 C187 1.260 . S
C192 O183 1.240 . S
C192 O184 1.252 . S
O193 In182 2.294 . S
O193 C186 1.240 . S
O194 In182 2.326 . S
O194 C186 1.252 . S
In195 O196 2.294 . S
In195 O197 2.326 . S
In195 O201 2.266 . S
In195 O202 2.326 . S
In195 O203 2.266 . S
In195 O204 2.326 . S
In195 O206 2.294 . S
In195 O207 2.326 . S
O196 In195 2.294 . S
O196 C205 1.240 . S
O197 In195 2.326 . S
O197 C205 1.252 . S
C198 O201 1.252 . S
C198 O202 1.260 . S
C199 O206 1.240 . S
C199 O207 1.252 . S
C200 O203 1.252 . S
C200 O204 1.260 . S
O201 In195 2.266 . S
O201 C198 1.252 . S
O202 In195 2.326 . S
O202 C198 1.260 . S
O203 In195 2.266 . S
O203 C200 1.252 . S
O204 In195 2.326 . S
O204 C200 1.260 . S
C205 O196 1.240 . S
C205 O197 1.252 . S
O206 In195 2.294 . S
O206 C199 1.240 . S
O207 In195 2.326 . S
O207 C199 1.252 . S
C208 C209 1.363 . S
C208 C214 1.379 . S
C208 N216 1.356 . S
C209 C208 1.363 . S
C209 C215 1.363 . S
C210 C211 1.363 . S
C210 C215 1.379 . S
C210 N217 1.356 . S
C211 C210 1.363 . S
C211 C214 1.363 . S
N212 C214 1.356 . S
N212 H224 0.984 . S
N212 H225 0.985 . S
N213 C215 1.356 . S
N213 H218 0.984 . S
N213 H219 0.985 . S
C214 C208 1.379 . S
C214 C211 1.363 . S
C214 N212 1.356 . S
C215 C209 1.363 . S
C215 C210 1.379 . S
C215 N213 1.356 . S
N216 C208 1.356 . S
N216 H222 0.984 . S
N216 H223 0.984 . S
N217 C210 1.356 . S
N217 H220 0.984 . S
N217 H221 0.985 . S
H218 N213 0.984 . S
H219 N213 0.985 . S
H220 N217 0.984 . S
H221 N217 0.985 . S
H222 N216 0.984 . S
H223 N216 0.984 . S
H224 N212 0.984 . S
H225 N212 0.985 . S
C226 C227 1.363 . S
C226 C232 1.379 . S
C226 N234 1.356 . S
C227 C226 1.363 . S
C227 C233 1.363 . S
C228 C229 1.363 . S
C228 C233 1.379 . S
C228 N235 1.356 . S
C229 C228 1.363 . S
C229 C232 1.363 . S
N230 C232 1.356 . S
N230 H242 0.984 . S
N230 H243 0.985 . S
N231 C233 1.356 . S
N231 H236 0.984 . S
N231 H237 0.985 . S
C232 C226 1.379 . S
C232 C229 1.363 . S
C232 N230 1.356 . S
C233 C227 1.363 . S
C233 C228 1.379 . S
C233 N231 1.356 . S
N234 C226 1.356 . S
N234 H240 0.984 1_455 S
N234 H241 0.984 1_455 S
N235 C228 1.356 . S
N235 H238 0.984 . S
N235 H239 0.985 . S
H236 N231 0.984 . S
H237 N231 0.985 . S
H238 N235 0.984 . S
H239 N235 0.985 . S
H240 N234 0.984 1_655 S
H241 N234 0.984 1_655 S
H242 N230 0.984 . S
H243 N230 0.985 . S
C244 C245 1.363 . S
C244 C250 1.379 . S
C244 N252 1.356 . S
C245 C244 1.363 . S
C245 C251 1.363 . S
C246 C247 1.363 . S
C246 C251 1.379 . S
C246 N253 1.356 . S
C247 C246 1.363 . S
C247 C250 1.363 . S
N248 C250 1.356 . S
N248 H260 0.984 . S
N248 H261 0.985 . S
N249 C251 1.356 . S
N249 H254 0.984 . S
N249 H255 0.985 . S
C250 C244 1.379 . S
C250 C247 1.363 . S
C250 N248 1.356 . S
C251 C245 1.363 . S
C251 C246 1.379 . S
C251 N249 1.356 . S
N252 C244 1.356 . S
N252 H258 0.984 . S
N252 H259 0.984 . S
N253 C246 1.356 . S
N253 H256 0.984 . S
N253 H257 0.985 . S
H254 N249 0.984 . S
H255 N249 0.985 . S
H256 N253 0.984 . S
H257 N253 0.985 . S
H258 N252 0.984 . S
H259 N252 0.984 . S
H260 N248 0.984 . S
H261 N248 0.985 . S
C262 C263 1.363 . S
C262 C268 1.379 . S
C262 N270 1.356 . S
C263 C262 1.363 . S
C263 C269 1.363 . S
C264 C265 1.363 . S
C264 C269 1.379 . S
C264 N271 1.356 . S
C265 C264 1.363 . S
C265 C268 1.363 . S
N266 C268 1.356 . S
N266 H278 0.984 . S
N266 H279 0.985 . S
N267 C269 1.356 . S
N267 H272 0.984 . S
N267 H273 0.985 . S
C268 C262 1.379 . S
C268 C265 1.363 . S
C268 N266 1.356 . S
C269 C263 1.363 . S
C269 C264 1.379 . S
C269 N267 1.356 . S
N270 C262 1.356 . S
N270 H276 0.984 . S
N270 H277 0.984 . S
N271 C264 1.356 . S
N271 H274 0.984 . S
N271 H275 0.985 . S
H272 N267 0.984 . S
H273 N267 0.985 . S
H274 N271 0.984 . S
H275 N271 0.985 . S
H276 N270 0.984 . S
H277 N270 0.984 . S
H278 N266 0.984 . S
H279 N266 0.985 . S
C280 C281 1.363 . S
C280 C286 1.379 . S
C280 N288 1.356 . S
C281 C280 1.363 . S
C281 C287 1.363 . S
C282 C283 1.363 . S
C282 C287 1.379 . S
C282 N289 1.356 1_556 S
C283 C282 1.363 . S
C283 C286 1.363 . S
N284 C286 1.356 . S
N284 H296 0.984 . S
N284 H297 0.985 . S
N285 C287 1.356 . S
N285 H290 0.984 . S
N285 H291 0.985 . S
C286 C280 1.379 . S
C286 C283 1.363 . S
C286 N284 1.356 . S
C287 C281 1.363 . S
C287 C282 1.379 . S
C287 N285 1.356 . S
N288 C280 1.356 . S
N288 H294 0.984 . S
N288 H295 0.984 . S
N289 C282 1.356 1_554 S
N289 H292 0.984 . S
N289 H293 0.985 . S
H290 N285 0.984 . S
H291 N285 0.985 . S
H292 N289 0.984 . S
H293 N289 0.985 . S
H294 N288 0.984 . S
H295 N288 0.984 . S
H296 N284 0.984 . S
H297 N284 0.985 . S
C298 C299 1.363 . S
C298 C304 1.379 . S
C298 N306 1.356 . S
C299 C298 1.363 . S
C299 C305 1.363 . S
C300 C301 1.363 . S
C300 C305 1.379 . S
C300 N307 1.356 . S
C301 C300 1.363 . S
C301 C304 1.363 . S
N302 C304 1.356 . S
N302 H314 0.984 . S
N302 H315 0.985 . S
N303 C305 1.356 . S
N303 H308 0.984 . S
N303 H309 0.985 . S
C304 C298 1.379 . S
C304 C301 1.363 . S
C304 N302 1.356 . S
C305 C299 1.363 . S
C305 C300 1.379 . S
C305 N303 1.356 . S
N306 C298 1.356 . S
N306 H312 0.984 . S
N306 H313 0.984 . S
N307 C300 1.356 . S
N307 H310 0.984 . S
N307 H311 0.985 . S
H308 N303 0.984 . S
H309 N303 0.985 . S
H310 N307 0.984 . S
H311 N307 0.985 . S
H312 N306 0.984 . S
H313 N306 0.984 . S
H314 N302 0.984 . S
H315 N302 0.985 . S
C316 C317 1.363 . S
C316 C322 1.379 . S
C316 N324 1.356 . S
C317 C316 1.363 . S
C317 C323 1.363 . S
C318 C319 1.363 . S
C318 C323 1.379 . S
C318 N325 1.356 . S
C319 C318 1.363 . S
C319 C322 1.363 . S
N320 C322 1.356 . S
N320 H332 0.984 . S
N320 H333 0.985 . S
N321 C323 1.356 . S
N321 H326 0.984 . S
N321 H327 0.985 . S
C322 C316 1.379 . S
C322 C319 1.363 . S
C322 N320 1.356 . S
C323 C317 1.363 . S
C323 C318 1.379 . S
C323 N321 1.356 . S
N324 C316 1.356 . S
N324 H330 0.984 1_565 S
N324 H331 0.984 1_565 S
N325 C318 1.356 . S
N325 H328 0.984 . S
N325 H329 0.985 . S
H326 N321 0.984 . S
H327 N321 0.985 . S
H328 N325 0.984 . S
H329 N325 0.985 . S
H330 N324 0.984 1_545 S
H331 N324 0.984 1_545 S
H332 N320 0.984 . S
H333 N320 0.985 . S
C334 C335 1.363 . S
C334 C340 1.379 . S
C334 N342 1.356 . S
C335 C334 1.363 . S
C335 C341 1.363 . S
C336 C337 1.363 . S
C336 C341 1.379 . S
C336 N343 1.356 . S
C337 C336 1.363 . S
C337 C340 1.363 . S
N338 C340 1.356 . S
N338 H350 0.984 . S
N338 H351 0.985 . S
N339 C341 1.356 . S
N339 H344 0.984 . S
N339 H345 0.985 . S
C340 C334 1.379 . S
C340 C337 1.363 . S
C340 N338 1.356 . S
C341 C335 1.363 . S
C341 C336 1.379 . S
C341 N339 1.356 . S
N342 C334 1.356 . S
N342 H348 0.984 . S
N342 H349 0.984 . S
N343 C336 1.356 . S
N343 H346 0.984 . S
N343 H347 0.985 . S
H344 N339 0.984 . S
H345 N339 0.985 . S
H346 N343 0.984 . S
H347 N343 0.985 . S
H348 N342 0.984 . S
H349 N342 0.984 . S
H350 N338 0.984 . S
H351 N338 0.985 . S
C352 C353 1.363 . S
C352 C358 1.379 . S
C352 N360 1.356 . S
C353 C352 1.363 . S
C353 C359 1.363 . S
C354 C355 1.363 . S
C354 C359 1.379 . S
C354 N361 1.356 . S
C355 C354 1.363 . S
C355 C358 1.363 . S
N356 C358 1.356 . S
N356 H368 0.984 . S
N356 H369 0.985 . S
N357 C359 1.356 . S
N357 H362 0.984 . S
N357 H363 0.985 . S
C358 C352 1.379 . S
C358 C355 1.363 . S
C358 N356 1.356 . S
C359 C353 1.363 . S
C359 C354 1.379 . S
C359 N357 1.356 . S
N360 C352 1.356 . S
N360 H366 0.984 . S
N360 H367 0.984 . S
N361 C354 1.356 . S
N361 H364 0.984 . S
N361 H365 0.985 . S
H362 N357 0.984 . S
H363 N357 0.985 . S
H364 N361 0.984 . S
H365 N361 0.985 . S
H366 N360 0.984 . S
H367 N360 0.984 . S
H368 N356 0.984 . S
H369 N356 0.985 . S
C370 C371 1.363 . S
C370 C376 1.379 . S
C370 N378 1.356 . S
C371 C370 1.363 . S
C371 C377 1.363 . S
C372 C373 1.363 . S
C372 C377 1.379 . S
C372 N379 1.356 . S
C373 C372 1.363 . S
C373 C376 1.363 . S
N374 C376 1.356 . S
N374 H386 0.984 . S
N374 H387 0.985 . S
N375 C377 1.356 . S
N375 H380 0.984 . S
N375 H381 0.985 . S
C376 C370 1.379 . S
C376 C373 1.363 . S
C376 N374 1.356 . S
C377 C371 1.363 . S
C377 C372 1.379 . S
C377 N375 1.356 . S
N378 C370 1.356 . S
N378 H384 0.984 . S
N378 H385 0.984 . S
N379 C372 1.356 . S
N379 H382 0.984 . S
N379 H383 0.985 . S
H380 N375 0.984 . S
H381 N375 0.985 . S
H382 N379 0.984 . S
H383 N379 0.985 . S
H384 N378 0.984 . S
H385 N378 0.984 . S
H386 N374 0.984 . S
H387 N374 0.985 . S
C388 C389 1.363 . S
C388 C394 1.379 . S
C388 N396 1.356 . S
C389 C388 1.363 . S
C389 C395 1.363 . S
C390 C391 1.363 . S
C390 C395 1.379 . S
C390 N397 1.356 . S
C391 C390 1.363 . S
C391 C394 1.363 . S
N392 C394 1.356 . S
N392 H404 0.984 . S
N392 H405 0.985 . S
N393 C395 1.356 . S
N393 H398 0.984 . S
N393 H399 0.985 . S
C394 C388 1.379 . S
C394 C391 1.363 . S
C394 N392 1.356 . S
C395 C389 1.363 . S
C395 C390 1.379 . S
C395 N393 1.356 . S
N396 C388 1.356 . S
N396 H402 0.984 . S
N396 H403 0.984 . S
N397 C390 1.356 . S
N397 H400 0.984 . S
N397 H401 0.985 . S
H398 N393 0.984 . S
H399 N393 0.985 . S
H400 N397 0.984 . S
H401 N397 0.985 . S
H402 N396 0.984 . S
H403 N396 0.984 . S
H404 N392 0.984 . S
H405 N392 0.985 . S
C406 C407 1.363 . S
C406 C412 1.379 . S
C406 N414 1.356 . S
C407 C406 1.363 . S
C407 C413 1.363 . S
C408 C409 1.363 . S
C408 C413 1.379 . S
C408 N415 1.356 . S
C409 C408 1.363 . S
C409 C412 1.363 . S
N410 C412 1.356 . S
N410 H422 0.984 . S
N410 H423 0.985 . S
N411 C413 1.356 . S
N411 H416 0.984 . S
N411 H417 0.985 . S
C412 C406 1.379 . S
C412 C409 1.363 . S
C412 N410 1.356 . S
C413 C407 1.363 . S
C413 C408 1.379 . S
C413 N411 1.356 . S
N414 C406 1.356 . S
N414 H420 0.984 1_655 S
N414 H421 0.984 . S
N415 C408 1.356 . S
N415 H418 0.984 . S
N415 H419 0.985 . S
H416 N411 0.984 . S
H417 N411 0.985 . S
H418 N415 0.984 . S
H419 N415 0.985 . S
H420 N414 0.984 1_455 S
H421 N414 0.984 . S
H422 N410 0.984 . S
H423 N410 0.985 . S
C424 C425 1.363 . S
C424 C430 1.379 . S
C424 N432 1.356 . S
C425 C424 1.363 . S
C425 C431 1.363 . S
C426 C427 1.363 . S
C426 C431 1.379 . S
C426 N433 1.356 . S
C427 C426 1.363 . S
C427 C430 1.363 . S
N428 C430 1.356 . S
N428 H440 0.984 . S
N428 H441 0.985 . S
N429 C431 1.356 . S
N429 H434 0.984 . S
N429 H435 0.985 . S
C430 C424 1.379 . S
C430 C427 1.363 . S
C430 N428 1.356 . S
C431 C425 1.363 . S
C431 C426 1.379 . S
C431 N429 1.356 . S
N432 C424 1.356 . S
N432 H438 0.984 . S
N432 H439 0.984 . S
N433 C426 1.356 . S
N433 H436 0.984 . S
N433 H437 0.985 . S
H434 N429 0.984 . S
H435 N429 0.985 . S
H436 N433 0.984 . S
H437 N433 0.985 . S
H438 N432 0.984 . S
H439 N432 0.984 . S
H440 N428 0.984 . S
H441 N428 0.985 . S
C442 C443 1.363 . S
C442 C448 1.379 . S
C442 N450 1.356 . S
C443 C442 1.363 . S
C443 C449 1.363 . S
C444 C445 1.363 . S
C444 C449 1.379 . S
C444 N451 1.356 . S
C445 C444 1.363 . S
C445 C448 1.363 . S
N446 C448 1.356 . S
N446 H458 0.984 . S
N446 H459 0.985 . S
N447 C449 1.356 . S
N447 H452 0.984 1_655 S
N447 H453 0.985 1_655 S
C448 C442 1.379 . S
C448 C445 1.363 . S
C448 N446 1.356 . S
C449 C443 1.363 . S
C449 C444 1.379 . S
C449 N447 1.356 . S
N450 C442 1.356 . S
N450 H456 0.984 . S
N450 H457 0.984 . S
N451 C444 1.356 . S
N451 H454 0.984 . S
N451 H455 0.985 . S
H452 N447 0.984 1_455 S
H453 N447 0.985 1_455 S
H454 N451 0.984 . S
H455 N451 0.985 . S
H456 N450 0.984 . S
H457 N450 0.984 . S
H458 N446 0.984 . S
H459 N446 0.985 . S
C460 C461 1.363 . S
C460 C466 1.379 . S
C460 N468 1.356 . S
C461 C460 1.363 . S
C461 C467 1.363 . S
C462 C463 1.363 . S
C462 C467 1.379 . S
C462 N469 1.356 1_556 S
C463 C462 1.363 . S
C463 C466 1.363 . S
N464 C466 1.356 . S
N464 H476 0.984 . S
N464 H477 0.985 . S
N465 C467 1.356 . S
N465 H470 0.984 . S
N465 H471 1.010 . S
C466 C460 1.379 . S
C466 C463 1.363 . S
C466 N464 1.356 . S
C467 C461 1.363 . S
C467 C462 1.379 . S
C467 N465 1.356 . S
N468 C460 1.356 . S
N468 H474 0.984 . S
N468 H475 0.984 . S
N469 C462 1.356 1_554 S
N469 H472 0.984 . S
N469 H473 0.985 . S
H470 N465 0.984 . S
H471 N465 1.010 . S
H472 N469 0.984 . S
H473 N469 0.985 . S
H474 N468 0.984 . S
H475 N468 0.984 . S
H476 N464 0.984 . S
H477 N464 0.985 . S
C478 C479 1.363 . S
C478 C484 1.379 . S
C478 N486 1.356 . S
C479 C478 1.363 . S
C479 C485 1.363 . S
C480 C481 1.363 . S
C480 C485 1.379 . S
C480 N487 1.356 . S
C481 C480 1.363 . S
C481 C484 1.363 . S
N482 C484 1.356 . S
N482 H494 0.984 . S
N482 H495 0.985 . S
N483 C485 1.356 . S
N483 H488 0.984 . S
N483 H489 0.985 . S
C484 C478 1.379 . S
C484 C481 1.363 . S
C484 N482 1.356 . S
C485 C479 1.363 . S
C485 C480 1.379 . S
C485 N483 1.356 . S
N486 C478 1.356 . S
N486 H492 0.984 . S
N486 H493 0.984 . S
N487 C480 1.356 . S
N487 H490 0.984 . S
N487 H491 0.985 . S
H488 N483 0.984 . S
H489 N483 0.985 . S
H490 N487 0.984 . S
H491 N487 0.985 . S
H492 N486 0.984 . S
H493 N486 0.984 . S
H494 N482 0.984 . S
H495 N482 0.985 . S
C496 C497 1.363 . S
C496 C502 1.379 . S
C496 N504 1.356 . S
C497 C496 1.363 . S
C497 C503 1.363 . S
C498 C499 1.363 . S
C498 C503 1.379 . S
C498 N505 1.356 . S
C499 C498 1.363 . S
C499 C502 1.363 . S
N500 C502 1.356 . S
N500 H512 0.984 . S
N500 H513 0.985 . S
N501 C503 1.356 . S
N501 H506 0.984 . S
N501 H507 0.988 . S
C502 C496 1.379 . S
C502 C499 1.363 . S
C502 N500 1.356 . S
C503 C497 1.363 . S
C503 C498 1.379 . S
C503 N501 1.356 . S
N504 C496 1.356 . S
N504 H510 0.984 . S
N504 H511 0.984 . S
N505 C498 1.356 . S
N505 H508 0.984 . S
N505 H509 0.985 . S
H506 N501 0.984 . S
H507 N501 0.988 . S
H508 N505 0.984 . S
H509 N505 0.985 . S
H510 N504 0.984 . S
H511 N504 0.984 . S
H512 N500 0.984 . S
H513 N500 0.985 . S
C514 C515 1.363 . S
C514 C520 1.379 . S
C514 N522 1.356 . S
C515 C514 1.363 . S
C515 C521 1.363 . S
C516 C517 1.363 . S
C516 C521 1.379 . S
C516 N523 1.356 . S
C517 C516 1.363 . S
C517 C520 1.363 . S
N518 C520 1.356 . S
N518 H530 0.984 . S
N518 H531 0.985 . S
N519 C521 1.356 . S
N519 H524 0.984 . S
N519 H525 0.985 . S
C520 C514 1.379 . S
C520 C517 1.363 . S
C520 N518 1.356 . S
C521 C515 1.363 . S
C521 C516 1.379 . S
C521 N519 1.356 . S
N522 C514 1.356 . S
N522 H528 0.984 . S
N522 H529 0.984 . S
N523 C516 1.356 . S
N523 H526 0.984 . S
N523 H527 0.985 . S
H524 N519 0.984 . S
H525 N519 0.985 . S
H526 N523 0.984 . S
H527 N523 0.985 . S
H528 N522 0.984 . S
H529 N522 0.984 . S
H530 N518 0.984 . S
H531 N518 0.985 . S
C532 C533 1.363 . S
C532 C538 1.379 . S
C532 N540 1.356 . S
C533 C532 1.363 . S
C533 C539 1.363 . S
C534 C535 1.363 . S
C534 C539 1.379 . S
C534 N541 1.356 . S
C535 C534 1.363 . S
C535 C538 1.363 . S
N536 C538 1.356 . S
N536 H548 0.984 . S
N536 H549 0.985 . S
N537 C539 1.356 . S
N537 H542 0.984 . S
N537 H543 0.985 . S
C538 C532 1.379 . S
C538 C535 1.363 . S
C538 N536 1.356 . S
C539 C533 1.363 . S
C539 C534 1.379 . S
C539 N537 1.356 . S
N540 C532 1.356 . S
N540 H546 0.984 . S
N540 H547 0.984 . S
N541 C534 1.356 . S
N541 H544 0.984 . S
N541 H545 0.985 . S
H542 N537 0.984 . S
H543 N537 0.985 . S
H544 N541 0.984 . S
H545 N541 0.985 . S
H546 N540 0.984 . S
H547 N540 0.984 . S
H548 N536 0.984 . S
H549 N536 0.985 . S
C550 C551 1.363 . S
C550 C556 1.379 . S
C550 N558 1.356 . S
C551 C550 1.363 . S
C551 C557 1.363 . S
C552 C553 1.363 . S
C552 C557 1.379 . S
C552 N559 1.356 . S
C553 C552 1.363 . S
C553 C556 1.363 . S
N554 C556 1.356 . S
N554 H566 0.984 . S
N554 H567 0.985 . S
N555 C557 1.356 . S
N555 H560 0.984 . S
N555 H561 0.985 . S
C556 C550 1.379 . S
C556 C553 1.363 . S
C556 N554 1.356 . S
C557 C551 1.363 . S
C557 C552 1.379 . S
C557 N555 1.356 . S
N558 C550 1.356 . S
N558 H564 0.984 . S
N558 H565 0.984 . S
N559 C552 1.356 . S
N559 H562 0.984 . S
N559 H563 0.985 . S
H560 N555 0.984 . S
H561 N555 0.985 . S
H562 N559 0.984 . S
H563 N559 0.985 . S
H564 N558 0.984 . S
H565 N558 0.984 . S
H566 N554 0.984 . S
H567 N554 0.985 . S
C568 C569 1.363 . S
C568 C574 1.379 . S
C568 N576 1.356 . S
C569 C568 1.363 . S
C569 C575 1.363 . S
C570 C571 1.363 . S
C570 C575 1.379 . S
C570 N577 1.356 . S
C571 C570 1.363 . S
C571 C574 1.363 . S
N572 C574 1.356 . S
N572 H584 0.984 . S
N572 H585 0.985 . S
N573 C575 1.356 . S
N573 H578 0.984 . S
N573 H579 0.985 . S
C574 C568 1.379 . S
C574 C571 1.363 . S
C574 N572 1.356 . S
C575 C569 1.363 . S
C575 C570 1.379 . S
C575 N573 1.356 . S
N576 C568 1.356 . S
N576 H582 0.984 . S
N576 H583 0.984 . S
N577 C570 1.356 . S
N577 H580 0.984 . S
N577 H581 0.985 . S
H578 N573 0.984 . S
H579 N573 0.985 . S
H580 N577 0.984 . S
H581 N577 0.985 . S
H582 N576 0.984 . S
H583 N576 0.984 . S
H584 N572 0.984 . S
H585 N572 0.985 . S
C586 C587 1.363 . S
C586 C592 1.379 . S
C586 N594 1.356 . S
C587 C586 1.363 . S
C587 C593 1.363 . S
C588 C589 1.363 . S
C588 C593 1.379 . S
C588 N595 1.356 . S
C589 C588 1.363 . S
C589 C592 1.363 . S
N590 C592 1.356 . S
N590 H602 0.984 . S
N590 H603 0.985 . S
N591 C593 1.356 . S
N591 H596 0.984 . S
N591 H597 0.985 . S
C592 C586 1.379 . S
C592 C589 1.363 . S
C592 N590 1.356 . S
C593 C587 1.363 . S
C593 C588 1.379 . S
C593 N591 1.356 . S
N594 C586 1.356 . S
N594 H600 0.984 . S
N594 H601 0.984 . S
N595 C588 1.356 . S
N595 H598 0.984 . S
N595 H599 0.985 . S
H596 N591 0.984 . S
H597 N591 0.985 . S
H598 N595 0.984 . S
H599 N595 0.985 . S
H600 N594 0.984 . S
H601 N594 0.984 . S
H602 N590 0.984 . S
H603 N590 0.985 . S
C604 C605 1.363 . S
C604 C610 1.379 . S
C604 N612 1.356 . S
C605 C604 1.363 . S
C605 C611 1.363 . S
C606 C607 1.363 . S
C606 C611 1.379 . S
C606 N613 1.356 . S
C607 C606 1.363 . S
C607 C610 1.363 . S
N608 C610 1.356 . S
N608 H620 0.984 . S
N608 H621 0.985 . S
N609 C611 1.356 . S
N609 H614 0.984 . S
N609 H615 0.985 . S
C610 C604 1.379 . S
C610 C607 1.363 . S
C610 N608 1.356 . S
C611 C605 1.363 . S
C611 C606 1.379 . S
C611 N609 1.356 . S
N612 C604 1.356 . S
N612 H618 0.984 . S
N612 H619 0.984 . S
N613 C606 1.356 . S
N613 H616 0.984 . S
N613 H617 0.985 . S
H614 N609 0.984 . S
H615 N609 0.985 . S
H616 N613 0.984 . S
H617 N613 0.985 . S
H618 N612 0.984 . S
H619 N612 0.984 . S
H620 N608 0.984 . S
H621 N608 0.985 . S
C622 C623 1.363 . S
C622 C628 1.379 . S
C622 N630 1.356 . S
C623 C622 1.363 . S
C623 C629 1.363 . S
C624 C625 1.363 . S
C624 C629 1.379 . S
C624 N631 1.356 . S
C625 C624 1.363 . S
C625 C628 1.363 . S
N626 C628 1.356 . S
N626 H638 0.984 . S
N626 H639 0.985 . S
N627 C629 1.356 . S
N627 H632 0.984 . S
N627 H633 0.985 . S
C628 C622 1.379 . S
C628 C625 1.363 . S
C628 N626 1.356 . S
C629 C623 1.363 . S
C629 C624 1.379 . S
C629 N627 1.356 . S
N630 C622 1.356 . S
N630 H636 0.984 . S
N630 H637 0.984 . S
N631 C624 1.356 . S
N631 H634 0.984 . S
N631 H635 0.985 . S
H632 N627 0.984 . S
H633 N627 0.985 . S
H634 N631 0.984 . S
H635 N631 0.985 . S
H636 N630 0.984 . S
H637 N630 0.984 . S
H638 N626 0.984 . S
H639 N626 0.985 . S
C640 C641 1.363 . S
C640 C646 1.379 . S
C640 N648 1.356 . S
C641 C640 1.363 . S
C641 C647 1.363 . S
C642 C643 1.363 . S
C642 C647 1.379 . S
C642 N649 1.356 . S
C643 C642 1.363 . S
C643 C646 1.363 . S
N644 C646 1.356 . S
N644 H656 0.984 . S
N644 H657 0.985 . S
N645 C647 1.356 . S
N645 H650 0.984 . S
N645 H651 0.985 . S
C646 C640 1.379 . S
C646 C643 1.363 . S
C646 N644 1.356 . S
C647 C641 1.363 . S
C647 C642 1.379 . S
C647 N645 1.356 . S
N648 C640 1.356 . S
N648 H654 0.984 . S
N648 H655 0.984 . S
N649 C642 1.356 . S
N649 H652 0.984 . S
N649 H653 0.985 . S
H650 N645 0.984 . S
H651 N645 0.985 . S
H652 N649 0.984 . S
H653 N649 0.985 . S
H654 N648 0.984 . S
H655 N648 0.984 . S
H656 N644 0.984 . S
H657 N644 0.985 . S
C658 C659 1.363 . S
C658 C664 1.379 . S
C658 N666 1.356 . S
C659 C658 1.363 . S
C659 C665 1.363 . S
C660 C661 1.363 . S
C660 C665 1.379 . S
C660 N667 1.356 . S
C661 C660 1.363 . S
C661 C664 1.363 . S
N662 C664 1.356 . S
N662 H674 0.984 . S
N662 H675 0.985 . S
N663 C665 1.356 . S
N663 H668 0.984 . S
N663 H669 0.985 1_545 S
C664 C658 1.379 . S
C664 C661 1.363 . S
C664 N662 1.356 . S
C665 C659 1.363 . S
C665 C660 1.379 . S
C665 N663 1.356 . S
N666 C658 1.356 . S
N666 H672 0.984 . S
N666 H673 0.984 . S
N667 C660 1.356 . S
N667 H670 0.984 . S
N667 H671 0.985 . S
H668 N663 0.984 . S
H669 N663 0.985 1_565 S
H670 N667 0.984 . S
H671 N667 0.985 . S
H672 N666 0.984 . S
H673 N666 0.984 . S
H674 N662 0.984 . S
H675 N662 0.985 . S
C676 C677 1.363 . S
C676 C682 1.379 . S
C676 N684 1.356 . S
C677 C676 1.363 . S
C677 C683 1.363 . S
C678 C679 1.363 . S
C678 C683 1.379 . S
C678 N685 1.356 . S
C679 C678 1.363 . S
C679 C682 1.363 . S
N680 C682 1.356 . S
N680 H692 0.984 . S
N680 H693 0.985 . S
N681 C683 1.356 . S
N681 H686 0.984 . S
N681 H687 0.985 1_545 S
C682 C676 1.379 . S
C682 C679 1.363 . S
C682 N680 1.356 . S
C683 C677 1.363 . S
C683 C678 1.379 . S
C683 N681 1.356 . S
N684 C676 1.356 . S
N684 H690 0.984 . S
N684 H691 0.984 . S
N685 C678 1.356 . S
N685 H688 0.984 . S
N685 H689 0.985 . S
H686 N681 0.984 . S
H687 N681 0.985 1_565 S
H688 N685 0.984 . S
H689 N685 0.985 . S
H690 N684 0.984 . S
H691 N684 0.984 . S
H692 N680 0.984 . S
H693 N680 0.985 . S
C694 C695 1.363 . S
C694 C700 1.379 . S
C694 N702 1.356 . S
C695 C694 1.363 . S
C695 C701 1.363 . S
C696 C697 1.363 . S
C696 C701 1.379 . S
C696 N703 1.356 . S
C697 C696 1.363 . S
C697 C700 1.363 . S
N698 C700 1.356 . S
N698 H710 0.984 . S
N698 H711 0.985 . S
N699 C701 1.356 . S
N699 H704 0.984 . S
N699 H705 0.985 . S
C700 C694 1.379 . S
C700 C697 1.363 . S
C700 N698 1.356 . S
C701 C695 1.363 . S
C701 C696 1.379 . S
C701 N699 1.356 . S
N702 C694 1.356 . S
N702 H708 0.984 . S
N702 H709 0.984 . S
N703 C696 1.356 . S
N703 H706 0.984 . S
N703 H707 0.985 . S
H704 N699 0.984 . S
H705 N699 0.985 . S
H706 N703 0.984 . S
H707 N703 0.985 . S
H708 N702 0.984 . S
H709 N702 0.984 . S
H710 N698 0.984 . S
H711 N698 0.985 . S
C712 C713 1.363 . S
C712 C718 1.379 . S
C712 N720 1.356 . S
C713 C712 1.363 . S
C713 C719 1.363 . S
C714 C715 1.363 . S
C714 C719 1.379 . S
C714 N721 1.356 . S
C715 C714 1.363 . S
C715 C718 1.363 . S
N716 C718 1.356 . S
N716 H728 0.984 . S
N716 H729 0.985 . S
N717 C719 1.356 . S
N717 H722 0.984 . S
N717 H723 0.985 1_545 S
C718 C712 1.379 . S
C718 C715 1.363 . S
C718 N716 1.356 . S
C719 C713 1.363 . S
C719 C714 1.379 . S
C719 N717 1.356 . S
N720 C712 1.356 . S
N720 H726 0.984 . S
N720 H727 0.984 . S
N721 C714 1.356 . S
N721 H724 0.984 . S
N721 H725 0.985 . S
H722 N717 0.984 . S
H723 N717 0.985 1_565 S
H724 N721 0.984 . S
H725 N721 0.985 . S
H726 N720 0.984 . S
H727 N720 0.984 . S
H728 N716 0.984 . S
H729 N716 0.985 . S
C730 C731 1.363 . S
C730 C736 1.379 . S
C730 N738 1.356 . S
C731 C730 1.363 . S
C731 C737 1.363 . S
C732 C733 1.363 . S
C732 C737 1.379 . S
C732 N739 1.356 . S
C733 C732 1.363 . S
C733 C736 1.363 . S
N734 C736 1.356 . S
N734 H746 0.984 . S
N734 H747 0.985 . S
N735 C737 1.356 . S
N735 H740 0.984 . S
N735 H741 0.985 . S
C736 C730 1.379 . S
C736 C733 1.363 . S
C736 N734 1.356 . S
C737 C731 1.363 . S
C737 C732 1.379 . S
C737 N735 1.356 . S
N738 C730 1.356 . S
N738 H744 0.984 . S
N738 H745 0.984 . S
N739 C732 1.356 . S
N739 H742 0.984 . S
N739 H743 0.985 . S
H740 N735 0.984 . S
H741 N735 0.985 . S
H742 N739 0.984 . S
H743 N739 0.985 . S
H744 N738 0.984 . S
H745 N738 0.984 . S
H746 N734 0.984 . S
H747 N734 0.985 . S
C748 C749 1.363 . S
C748 C754 1.379 . S
C748 N756 1.356 . S
C749 C748 1.363 . S
C749 C755 1.363 . S
C750 C751 1.363 . S
C750 C755 1.379 . S
C750 N757 1.356 . S
C751 C750 1.363 . S
C751 C754 1.363 . S
N752 C754 1.356 . S
N752 H764 0.984 . S
N752 H765 0.985 . S
N753 C755 1.356 . S
N753 H758 0.984 . S
N753 H759 0.985 . S
C754 C748 1.379 . S
C754 C751 1.363 . S
C754 N752 1.356 . S
C755 C749 1.363 . S
C755 C750 1.379 . S
C755 N753 1.356 . S
N756 C748 1.356 . S
N756 H762 0.984 1_655 S
N756 H763 0.984 . S
N757 C750 1.356 . S
N757 H760 0.984 . S
N757 H761 0.985 . S
H758 N753 0.984 . S
H759 N753 0.985 . S
H760 N757 0.984 . S
H761 N757 0.985 . S
H762 N756 0.984 1_455 S
H763 N756 0.984 . S
H764 N752 0.984 . S
H765 N752 0.985 . S
C766 C767 1.363 . S
C766 C772 1.379 . S
C766 N774 1.356 . S
C767 C766 1.363 . S
C767 C773 1.363 . S
C768 C769 1.363 . S
C768 C773 1.379 . S
C768 N775 1.356 . S
C769 C768 1.363 . S
C769 C772 1.363 . S
N770 C772 1.356 . S
N770 H782 0.984 . S
N770 H783 0.985 . S
N771 C773 1.356 . S
N771 H776 0.984 . S
N771 H777 0.985 . S
C772 C766 1.379 . S
C772 C769 1.363 . S
C772 N770 1.356 . S
C773 C767 1.363 . S
C773 C768 1.379 . S
C773 N771 1.356 . S
N774 C766 1.356 . S
N774 H780 0.984 . S
N774 H781 0.984 . S
N775 C768 1.356 . S
N775 H778 0.984 . S
N775 H779 0.985 . S
H776 N771 0.984 . S
H777 N771 0.985 . S
H778 N775 0.984 . S
H779 N775 0.985 . S
H780 N774 0.984 . S
H781 N774 0.984 . S
H782 N770 0.984 . S
H783 N770 0.985 . S
C211 C120 1.350 . S
C209 C5 1.357 . S
C229 C134 1.346 . S
C227 C18 1.356 . S
C247 C147 1.351 . S
C245 C31 1.360 . S
C263 C42 1.352 . S
C265 C114 1.352 . S
C281 C57 1.363 . S
C283 C107 1.357 . S
C299 C70 1.362 . S
C301 C127 1.353 . S
C319 C135 1.351 . S
C317 C81 1.352 . S
C337 C148 1.353 . S
C335 C96 1.360 . S
C353 C29 1.350 . S
C355 C174 1.350 . S
C373 C192 1.346 . S
C371 C44 1.356 . S
C389 C3 1.352 . S
C391 C199 1.350 . S
C409 C166 1.352 . S
C407 C16 1.352 . S
C425 C83 1.364 . S
C427 C159 1.357 . S
C443 C94 1.354 . S
C445 C173 1.353 . S
C463 C185 1.351 . S
C461 C55 1.352 . S
C479 C68 1.352 . S
C481 C200 1.353 . S
C499 C133 1.563 . S
C497 C1 1.559 . S
C517 C146 1.563 . S
C515 C14 1.558 . S
C533 C27 1.555 . S
C535 C109 1.559 . S
C551 C49 1.596 . S
C553 C121 1.548 . S
C569 C53 1.550 . S
C571 C153 1.545 . S
C589 C108 1.545 . S
C587 C66 1.550 . S
C607 C122 1.560 . S
C605 C88 1.599 . S
C625 C140 1.549 . S
C623 C92 1.554 . S
C643 C187 1.562 . S
C641 C36 1.601 . S
C661 C198 1.563 . S
C659 C40 1.558 . S
C677 C10 1.597 . S
C679 C161 1.558 . S
C697 C179 1.548 . S
C695 C23 1.595 . S
C715 C205 1.545 . S
C713 C79 1.550 . S
C731 C101 1.593 . S
C733 C160 1.546 . S
C751 C172 1.560 . S
C749 C62 1.599 . S
C769 C186 1.550 . S
C767 C75 1.597 . S
