# Generated by pormake.
# Topology iac, (4,6)-cn, num edge types: 1
# Building blocks:
#     Node 0, Type 0, BuildingBlock: QUQFOY_clean_sbu_1, # of connection points: 4
#     Node 1, Type 0, BuildingBlock: QUQFOY_clean_sbu_1, # of connection points: 4
#     Node 2, Type 0, BuildingBlock: QUQFOY_clean_sbu_1, # of connection points: 4
#     Node 3, Type 0, BuildingBlock: QUQFOY_clean_sbu_1, # of connection points: 4
#     Node 4, Type 0, BuildingBlock: QUQFOY_clean_sbu_1, # of connection points: 4
#     Node 5, Type 0, BuildingBlock: QUQFOY_clean_sbu_1, # of connection points: 4
#     Node 6, Type 0, BuildingBlock: QUQFOY_clean_sbu_1, # of connection points: 4
#     Node 7, Type 0, BuildingBlock: QUQFOY_clean_sbu_1, # of connection points: 4
#     Node 8, Type 0, BuildingBlock: QUQFOY_clean_sbu_1, # of connection points: 4
#     Node 9, Type 0, BuildingBlock: QUQFOY_clean_sbu_1, # of connection points: 4
#     Node 10, Type 0, BuildingBlock: QUQFOY_clean_sbu_1, # of connection points: 4
#     Node 11, Type 0, BuildingBlock: QUQFOY_clean_sbu_1, # of connection points: 4
#     Node 12, Type 0, BuildingBlock: QUQFOY_clean_sbu_1, # of connection points: 4
#     Node 13, Type 0, BuildingBlock: QUQFOY_clean_sbu_1, # of connection points: 4
#     Node 14, Type 0, BuildingBlock: QUQFOY_clean_sbu_1, # of connection points: 4
#     Node 15, Type 0, BuildingBlock: QUQFOY_clean_sbu_1, # of connection points: 4
#     Node 16, Type 0, BuildingBlock: QUQFOY_clean_sbu_1, # of connection points: 4
#     Node 17, Type 0, BuildingBlock: QUQFOY_clean_sbu_1, # of connection points: 4
#     Node 18, Type 0, BuildingBlock: QUQFOY_clean_sbu_1, # of connection points: 4
#     Node 19, Type 0, BuildingBlock: QUQFOY_clean_sbu_1, # of connection points: 4
#     Node 20, Type 0, BuildingBlock: QUQFOY_clean_sbu_1, # of connection points: 4
#     Node 21, Type 0, BuildingBlock: QUQFOY_clean_sbu_1, # of connection points: 4
#     Node 22, Type 0, BuildingBlock: QUQFOY_clean_sbu_1, # of connection points: 4
#     Node 23, Type 0, BuildingBlock: QUQFOY_clean_sbu_1, # of connection points: 4
#     Node 24, Type 1, BuildingBlock: FUNLAD_clean_sbu_0, # of connection points: 6
#     Node 25, Type 1, BuildingBlock: FUNLAD_clean_sbu_0, # of connection points: 6
#     Node 26, Type 1, BuildingBlock: FUNLAD_clean_sbu_0, # of connection points: 6
#     Node 27, Type 1, BuildingBlock: FUNLAD_clean_sbu_0, # of connection points: 6
#     Node 28, Type 1, BuildingBlock: FUNLAD_clean_sbu_0, # of connection points: 6
#     Node 29, Type 1, BuildingBlock: FUNLAD_clean_sbu_0, # of connection points: 6
#     Node 30, Type 1, BuildingBlock: FUNLAD_clean_sbu_0, # of connection points: 6
#     Node 31, Type 1, BuildingBlock: FUNLAD_clean_sbu_0, # of connection points: 6
#     Node 32, Type 1, BuildingBlock: FUNLAD_clean_sbu_0, # of connection points: 6
#     Node 33, Type 1, BuildingBlock: FUNLAD_clean_sbu_0, # of connection points: 6
#     Node 34, Type 1, BuildingBlock: FUNLAD_clean_sbu_0, # of connection points: 6
#     Node 35, Type 1, BuildingBlock: FUNLAD_clean_sbu_0, # of connection points: 6
#     Node 36, Type 1, BuildingBlock: FUNLAD_clean_sbu_0, # of connection points: 6
#     Node 37, Type 1, BuildingBlock: FUNLAD_clean_sbu_0, # of connection points: 6
#     Node 38, Type 1, BuildingBlock: FUNLAD_clean_sbu_0, # of connection points: 6
#     Node 39, Type 1, BuildingBlock: FUNLAD_clean_sbu_0, # of connection points: 6
#     Edge 40, Type (0, 1), BuildingBlock: UVAHIK_clean_linker_0, # of connection points: 2
#     Edge 41, Type (0, 1), BuildingBlock: UVAHIK_clean_linker_0, # of connection points: 2
#     Edge 42, Type (0, 1), BuildingBlock: UVAHIK_clean_linker_0, # of connection points: 2
#     Edge 43, Type (0, 1), BuildingBlock: UVAHIK_clean_linker_0, # of connection points: 2
#     Edge 44, Type (0, 1), BuildingBlock: UVAHIK_clean_linker_0, # of connection points: 2
#     Edge 45, Type (0, 1), BuildingBlock: UVAHIK_clean_linker_0, # of connection points: 2
#     Edge 46, Type (0, 1), BuildingBlock: UVAHIK_clean_linker_0, # of connection points: 2
#     Edge 47, Type (0, 1), BuildingBlock: UVAHIK_clean_linker_0, # of connection points: 2
#     Edge 48, Type (0, 1), BuildingBlock: UVAHIK_clean_linker_0, # of connection points: 2
#     Edge 49, Type (0, 1), BuildingBlock: UVAHIK_clean_linker_0, # of connection points: 2
#     Edge 50, Type (0, 1), BuildingBlock: UVAHIK_clean_linker_0, # of connection points: 2
#     Edge 51, Type (0, 1), BuildingBlock: UVAHIK_clean_linker_0, # of connection points: 2
#     Edge 52, Type (0, 1), BuildingBlock: UVAHIK_clean_linker_0, # of connection points: 2
#     Edge 53, Type (0, 1), BuildingBlock: UVAHIK_clean_linker_0, # of connection points: 2
#     Edge 54, Type (0, 1), BuildingBlock: UVAHIK_clean_linker_0, # of connection points: 2
#     Edge 55, Type (0, 1), BuildingBlock: UVAHIK_clean_linker_0, # of connection points: 2
#     Edge 56, Type (0, 1), BuildingBlock: UVAHIK_clean_linker_0, # of connection points: 2
#     Edge 57, Type (0, 1), BuildingBlock: UVAHIK_clean_linker_0, # of connection points: 2
#     Edge 58, Type (0, 1), BuildingBlock: UVAHIK_clean_linker_0, # of connection points: 2
#     Edge 59, Type (0, 1), BuildingBlock: UVAHIK_clean_linker_0, # of connection points: 2
#     Edge 60, Type (0, 1), BuildingBlock: UVAHIK_clean_linker_0, # of connection points: 2
#     Edge 61, Type (0, 1), BuildingBlock: UVAHIK_clean_linker_0, # of connection points: 2
#     Edge 62, Type (0, 1), BuildingBlock: UVAHIK_clean_linker_0, # of connection points: 2
#     Edge 63, Type (0, 1), BuildingBlock: UVAHIK_clean_linker_0, # of connection points: 2
#     Edge 64, Type (0, 1), BuildingBlock: UVAHIK_clean_linker_0, # of connection points: 2
#     Edge 65, Type (0, 1), BuildingBlock: UVAHIK_clean_linker_0, # of connection points: 2
#     Edge 66, Type (0, 1), BuildingBlock: UVAHIK_clean_linker_0, # of connection points: 2
#     Edge 67, Type (0, 1), BuildingBlock: UVAHIK_clean_linker_0, # of connection points: 2
#     Edge 68, Type (0, 1), BuildingBlock: UVAHIK_clean_linker_0, # of connection points: 2
#     Edge 69, Type (0, 1), BuildingBlock: UVAHIK_clean_linker_0, # of connection points: 2
#     Edge 70, Type (0, 1), BuildingBlock: UVAHIK_clean_linker_0, # of connection points: 2
#     Edge 71, Type (0, 1), BuildingBlock: UVAHIK_clean_linker_0, # of connection points: 2
#     Edge 72, Type (0, 1), BuildingBlock: UVAHIK_clean_linker_0, # of connection points: 2
#     Edge 73, Type (0, 1), BuildingBlock: UVAHIK_clean_linker_0, # of connection points: 2
#     Edge 74, Type (0, 1), BuildingBlock: UVAHIK_clean_linker_0, # of connection points: 2
#     Edge 75, Type (0, 1), BuildingBlock: UVAHIK_clean_linker_0, # of connection points: 2
#     Edge 76, Type (0, 1), BuildingBlock: UVAHIK_clean_linker_0, # of connection points: 2
#     Edge 77, Type (0, 1), BuildingBlock: UVAHIK_clean_linker_0, # of connection points: 2
#     Edge 78, Type (0, 1), BuildingBlock: UVAHIK_clean_linker_0, # of connection points: 2
#     Edge 79, Type (0, 1), BuildingBlock: UVAHIK_clean_linker_0, # of connection points: 2
#     Edge 80, Type (0, 1), BuildingBlock: UVAHIK_clean_linker_0, # of connection points: 2
#     Edge 81, Type (0, 1), BuildingBlock: UVAHIK_clean_linker_0, # of connection points: 2
#     Edge 82, Type (0, 1), BuildingBlock: UVAHIK_clean_linker_0, # of connection points: 2
#     Edge 83, Type (0, 1), BuildingBlock: UVAHIK_clean_linker_0, # of connection points: 2
#     Edge 84, Type (0, 1), BuildingBlock: UVAHIK_clean_linker_0, # of connection points: 2
#     Edge 85, Type (0, 1), BuildingBlock: UVAHIK_clean_linker_0, # of connection points: 2
#     Edge 86, Type (0, 1), BuildingBlock: UVAHIK_clean_linker_0, # of connection points: 2
#     Edge 87, Type (0, 1), BuildingBlock: UVAHIK_clean_linker_0, # of connection points: 2
#     Edge 88, Type (0, 1), BuildingBlock: UVAHIK_clean_linker_0, # of connection points: 2
#     Edge 89, Type (0, 1), BuildingBlock: UVAHIK_clean_linker_0, # of connection points: 2
#     Edge 90, Type (0, 1), BuildingBlock: UVAHIK_clean_linker_0, # of connection points: 2
#     Edge 91, Type (0, 1), BuildingBlock: UVAHIK_clean_linker_0, # of connection points: 2
#     Edge 92, Type (0, 1), BuildingBlock: UVAHIK_clean_linker_0, # of connection points: 2
#     Edge 93, Type (0, 1), BuildingBlock: UVAHIK_clean_linker_0, # of connection points: 2
#     Edge 94, Type (0, 1), BuildingBlock: UVAHIK_clean_linker_0, # of connection points: 2
#     Edge 95, Type (0, 1), BuildingBlock: UVAHIK_clean_linker_0, # of connection points: 2
#     Edge 96, Type (0, 1), BuildingBlock: UVAHIK_clean_linker_0, # of connection points: 2
#     Edge 97, Type (0, 1), BuildingBlock: UVAHIK_clean_linker_0, # of connection points: 2
#     Edge 98, Type (0, 1), BuildingBlock: UVAHIK_clean_linker_0, # of connection points: 2
#     Edge 99, Type (0, 1), BuildingBlock: UVAHIK_clean_linker_0, # of connection points: 2
#     Edge 100, Type (0, 1), BuildingBlock: UVAHIK_clean_linker_0, # of connection points: 2
#     Edge 101, Type (0, 1), BuildingBlock: UVAHIK_clean_linker_0, # of connection points: 2
#     Edge 102, Type (0, 1), BuildingBlock: UVAHIK_clean_linker_0, # of connection points: 2
#     Edge 103, Type (0, 1), BuildingBlock: UVAHIK_clean_linker_0, # of connection points: 2
#     Edge 104, Type (0, 1), BuildingBlock: UVAHIK_clean_linker_0, # of connection points: 2
#     Edge 105, Type (0, 1), BuildingBlock: UVAHIK_clean_linker_0, # of connection points: 2
#     Edge 106, Type (0, 1), BuildingBlock: UVAHIK_clean_linker_0, # of connection points: 2
#     Edge 107, Type (0, 1), BuildingBlock: UVAHIK_clean_linker_0, # of connection points: 2
#     Edge 108, Type (0, 1), BuildingBlock: UVAHIK_clean_linker_0, # of connection points: 2
#     Edge 109, Type (0, 1), BuildingBlock: UVAHIK_clean_linker_0, # of connection points: 2
#     Edge 110, Type (0, 1), BuildingBlock: UVAHIK_clean_linker_0, # of connection points: 2
#     Edge 111, Type (0, 1), BuildingBlock: UVAHIK_clean_linker_0, # of connection points: 2
#     Edge 112, Type (0, 1), BuildingBlock: UVAHIK_clean_linker_0, # of connection points: 2
#     Edge 113, Type (0, 1), BuildingBlock: UVAHIK_clean_linker_0, # of connection points: 2
#     Edge 114, Type (0, 1), BuildingBlock: UVAHIK_clean_linker_0, # of connection points: 2
#     Edge 115, Type (0, 1), BuildingBlock: UVAHIK_clean_linker_0, # of connection points: 2
#     Edge 116, Type (0, 1), BuildingBlock: UVAHIK_clean_linker_0, # of connection points: 2
#     Edge 117, Type (0, 1), BuildingBlock: UVAHIK_clean_linker_0, # of connection points: 2
#     Edge 118, Type (0, 1), BuildingBlock: UVAHIK_clean_linker_0, # of connection points: 2
#     Edge 119, Type (0, 1), BuildingBlock: UVAHIK_clean_linker_0, # of connection points: 2
#     Edge 120, Type (0, 1), BuildingBlock: UVAHIK_clean_linker_0, # of connection points: 2
#     Edge 121, Type (0, 1), BuildingBlock: UVAHIK_clean_linker_0, # of connection points: 2
#     Edge 122, Type (0, 1), BuildingBlock: UVAHIK_clean_linker_0, # of connection points: 2
#     Edge 123, Type (0, 1), BuildingBlock: UVAHIK_clean_linker_0, # of connection points: 2
#     Edge 124, Type (0, 1), BuildingBlock: UVAHIK_clean_linker_0, # of connection points: 2
#     Edge 125, Type (0, 1), BuildingBlock: UVAHIK_clean_linker_0, # of connection points: 2
#     Edge 126, Type (0, 1), BuildingBlock: UVAHIK_clean_linker_0, # of connection points: 2
#     Edge 127, Type (0, 1), BuildingBlock: UVAHIK_clean_linker_0, # of connection points: 2
#     Edge 128, Type (0, 1), BuildingBlock: UVAHIK_clean_linker_0, # of connection points: 2
#     Edge 129, Type (0, 1), BuildingBlock: UVAHIK_clean_linker_0, # of connection points: 2
#     Edge 130, Type (0, 1), BuildingBlock: UVAHIK_clean_linker_0, # of connection points: 2
#     Edge 131, Type (0, 1), BuildingBlock: UVAHIK_clean_linker_0, # of connection points: 2
#     Edge 132, Type (0, 1), BuildingBlock: UVAHIK_clean_linker_0, # of connection points: 2
#     Edge 133, Type (0, 1), BuildingBlock: UVAHIK_clean_linker_0, # of connection points: 2
#     Edge 134, Type (0, 1), BuildingBlock: UVAHIK_clean_linker_0, # of connection points: 2
#     Edge 135, Type (0, 1), BuildingBlock: UVAHIK_clean_linker_0, # of connection points: 2
# Relax obj value: 0.331
# Max RMSD: 0.269
# Mean RMSD: 0.184
data_MOF--net-iac--node1-QUQFOY_clean_sbu_1--node2-FUNLAD_clean_sbu_0--edge1-UVAHIK_clean_linker_0
_symmetry_space_group_name_H-M    P1
_symmetry_Int_Tables_number       1
_symmetry_cell_setting            triclinic
loop_
_symmetry_equiv_pos_as_xyz
'x, y, z'
_cell_length_a     71.291805
_cell_length_b     69.139099
_cell_length_c     75.507326
_cell_angle_alpha  91.088214
_cell_angle_beta   92.189584
_cell_angle_gamma 93.463386
loop_
_atom_site_label
_atom_site_type_symbol
_atom_site_fract_x
_atom_site_fract_y
_atom_site_fract_z
_atom_type_partial_charge
O0 O 0.04925 0.1938 0.15205 0.0
Cd1 Cd 0.04942 0.22154 0.16233 0.0
Cd2 Cd 0.05419 0.23182 0.12929 0.0
O3 O 0.04239 0.20402 0.12526 0.0
O4 O 0.03617 0.21994 0.18487 0.0
O5 O 0.02492 0.23397 0.16083 0.0
C6 C 0.02278 0.22863 0.17699 0.0
C7 C 0.04223 0.25685 0.11325 0.0
C8 C 0.04345 0.19033 0.13616 0.0
C9 C 0.08594 0.24154 0.15495 0.0
O10 O 0.08166 0.23759 0.13874 0.0
O11 O 0.07409 0.2378 0.16671 0.0
O12 O 0.05269 0.24458 0.10602 0.0
O13 O 0.03797 0.25445 0.12958 0.0
O14 O 0.06476 0.74714 0.38892 0.0
Cd15 Cd 0.04125 0.75011 0.40367 0.0
Cd16 Cd 0.0279 0.7652 0.37352 0.0
O17 O 0.05189 0.75493 0.36323 0.0
O18 O 0.04401 0.73276 0.4242 0.0
O19 O 0.02154 0.72805 0.40323 0.0
C20 C 0.02963 0.72243 0.41769 0.0
C21 C -0.00143 0.75802 0.35955 0.0
C22 C 0.06574 0.74899 0.37226 0.0
C23 C 0.03277 0.79186 0.40535 0.0
O24 O 0.03009 0.79048 0.38863 0.0
O25 O 0.03641 0.77701 0.4142 0.0
O26 O 0.01061 0.77038 0.35308 0.0
O27 O 0.00349 0.74915 0.37375 0.0
O28 O 0.54203 0.68623 0.67018 0.0
Cd29 Cd 0.55729 0.7088 0.68289 0.0
Cd30 Cd 0.5437 0.73083 0.6565 0.0
O31 O 0.52606 0.70602 0.65373 0.0
O32 O 0.55575 0.70627 0.70899 0.0
O33 O 0.54213 0.72886 0.69335 0.0
C34 C 0.545 0.72068 0.70839 0.0
C35 C 0.53064 0.75996 0.6497 0.0
C36 C 0.52845 0.68912 0.65939 0.0
C37 C 0.58583 0.72618 0.65993 0.0
O38 O 0.57186 0.73137 0.65059 0.0
O39 O 0.5833 0.71734 0.67432 0.0
O40 O 0.53515 0.75624 0.66594 0.0
O41 O 0.53299 0.74701 0.63768 0.0
O42 O 0.57347 0.25314 0.88742 0.0
Cd43 Cd 0.54987 0.25381 0.9024 0.0
Cd44 Cd 0.53624 0.26965 0.87261 0.0
O45 O 0.56063 0.26095 0.86173 0.0
O46 O 0.55517 0.23591 0.92203 0.0
O47 O 0.53144 0.23054 0.90245 0.0
C48 C 0.54104 0.22487 0.91605 0.0
C49 C 0.50673 0.26327 0.85864 0.0
C50 C 0.57471 0.25566 0.87086 0.0
C51 C 0.54013 0.29493 0.90554 0.0
O52 O 0.53796 0.29415 0.88875 0.0
O53 O 0.54382 0.27984 0.91403 0.0
O54 O 0.51877 0.27593 0.85263 0.0
O55 O 0.51185 0.2534 0.87218 0.0
O56 O 0.14986 0.9743 0.19807 0.0
Cd57 Cd 0.16218 0.98215 0.2225 0.0
Cd58 Cd 0.12855 0.99538 0.22728 0.0
O59 O 0.12065 0.97916 0.2047 0.0
O60 O 0.18577 0.96829 0.22394 0.0
O61 O 0.16214 0.96242 0.24164 0.0
C62 C 0.17868 0.95856 0.23673 0.0
C63 C 0.11512 0.99121 0.25456 0.0
C64 C 0.13237 0.97301 0.19397 0.0
C65 C 0.16018 0.02495 0.22689 0.0
O66 O 0.14247 0.02211 0.22468 0.0
O67 O 0.17054 0.01068 0.22782 0.0
O68 O 0.10644 -0.00029 0.24185 0.0
O69 O 0.13095 0.98394 0.2513 0.0
O70 O 0.27253 0.88448 0.59277 0.0
Cd71 Cd 0.27449 0.90613 0.57408 0.0
Cd72 Cd 0.29149 0.87835 0.55589 0.0
O73 O 0.28512 0.86167 0.57715 0.0
O74 O 0.25481 0.9244 0.57907 0.0
O75 O 0.25521 0.90707 0.55409 0.0
C76 C 0.24732 0.91978 0.56362 0.0
C77 C 0.28865 0.86407 0.5277 0.0
C78 C 0.27766 0.86723 0.5912 0.0
C79 C 0.31411 0.91572 0.5654 0.0
O80 O 0.31355 0.89858 0.55905 0.0
O81 O 0.2996 0.92242 0.5719 0.0
O82 O 0.3019 0.86009 0.53884 0.0
O83 O 0.27639 0.87581 0.53276 0.0
O84 O 0.4032 0.0341 0.69088 0.0
Cd85 Cd 0.38472 0.03074 0.71121 0.0
Cd86 Cd 0.41544 0.02125 0.72963 0.0
O87 O 0.42859 0.03343 0.70838 0.0
O88 O 0.36348 0.04763 0.70705 0.0
O89 O 0.38477 0.05232 0.72917 0.0
C90 C 0.36989 0.05774 0.72077 0.0
C91 C 0.42833 0.02662 0.75821 0.0
C92 C 0.42097 0.03621 0.69324 0.0
C93 C 0.38435 0.99037 0.72349 0.0
O94 O 0.40174 0.99419 0.72706 0.0
O95 O 0.37414 0.00354 0.71784 0.0
O96 O 0.43642 0.01639 0.74666 0.0
O97 O 0.41331 0.0349 0.75321 0.0
O98 O 0.30805 0.13037 0.08579 0.0
Cd99 Cd 0.29176 0.11571 0.06644 0.0
Cd100 Cd 0.29915 0.1484 0.047 0.0
O101 O 0.3171 0.15461 0.06885 0.0
O102 O 0.29688 0.08771 0.06548 0.0
O103 O 0.30488 0.10887 0.0449 0.0
C104 C 0.30496 0.09146 0.05078 0.0
C105 C 0.3086 0.15784 0.01908 0.0
C106 C 0.3181 0.14585 0.08348 0.0
C107 C 0.25845 0.13563 0.05486 0.0
O108 O 0.27017 0.14786 0.04836 0.0
O109 O 0.26405 0.12104 0.06303 0.0
O110 O 0.3042 0.17032 0.03086 0.0
O111 O 0.30869 0.13991 0.0235 0.0
O112 O 0.7679 0.38372 0.08929 0.0
Cd113 Cd 0.77309 0.40451 0.07038 0.0
Cd114 Cd 0.79063 0.37473 0.05514 0.0
O115 O 0.78031 0.35924 0.07586 0.0
O116 O 0.75544 0.42483 0.07549 0.0
O117 O 0.75405 0.40749 0.05045 0.0
C118 C 0.74739 0.42085 0.06016 0.0
C119 C 0.78779 0.36132 0.02665 0.0
C120 C 0.77163 0.36597 0.08875 0.0
C121 C 0.81424 0.41117 0.06427 0.0
O122 O 0.8138 0.39346 0.05943 0.0
O123 O 0.79932 0.41878 0.0688 0.0
O124 O 0.79927 0.35496 0.03846 0.0
O125 O 0.77728 0.37502 0.03123 0.0
O126 O 0.90146 0.52015 0.1887 0.0
Cd127 Cd 0.8813 0.51449 0.20718 0.0
Cd128 Cd 0.91065 0.50153 0.22581 0.0
O129 O 0.92586 0.51435 0.20616 0.0
O130 O 0.8607 0.53196 0.20224 0.0
O131 O 0.87862 0.53364 0.22696 0.0
C132 C 0.86497 0.54014 0.21749 0.0
C133 C 0.92119 0.5057 0.25523 0.0
C134 C 0.91915 0.52014 0.19151 0.0
C135 C 0.87873 0.47266 0.2156 0.0
O136 O 0.89579 0.47538 0.22099 0.0
O137 O 0.86968 0.48676 0.21006 0.0
O138 O 0.92977 0.49521 0.24422 0.0
O139 O 0.90693 0.51465 0.2493 0.0
O140 O 0.80347 0.62498 0.58966 0.0
Cd141 Cd 0.78356 0.60952 0.5737 0.0
Cd142 Cd 0.785 0.64194 0.55453 0.0
O143 O 0.80748 0.64943 0.5716 0.0
O144 O 0.7878 0.58175 0.57706 0.0
O145 O 0.79308 0.59718 0.55205 0.0
C146 C 0.7939 0.58159 0.56117 0.0
C147 C 0.78715 0.64922 0.52471 0.0
C148 C 0.81224 0.6407 0.58556 0.0
C149 C 0.74802 0.62943 0.57012 0.0
O150 O 0.75792 0.64271 0.56286 0.0
O151 O 0.75538 0.61405 0.57507 0.0
O152 O 0.78569 0.66253 0.53665 0.0
O153 O 0.7883 0.63159 0.52982 0.0
O154 O 0.65339 0.49336 0.70325 0.0
Cd155 Cd 0.66946 0.50205 0.72564 0.0
Cd156 Cd 0.63675 0.51269 0.73646 0.0
O157 O 0.62597 0.49603 0.71524 0.0
O158 O 0.69303 0.48829 0.72443 0.0
O159 O 0.67215 0.48297 0.74506 0.0
C160 C 0.68776 0.47885 0.73813 0.0
C161 C 0.62453 0.50926 0.76437 0.0
C162 C 0.63557 0.49081 0.70237 0.0
C163 C 0.66586 0.54429 0.73046 0.0
O164 O 0.6484 0.53998 0.73172 0.0
O165 O 0.67733 0.531 0.72943 0.0
O166 O 0.61535 0.51727 0.75173 0.0
O167 O 0.64048 0.50238 0.76092 0.0
O168 O 0.02146 0.79274 0.8684 0.0
Cd169 Cd 0.99501 0.79532 0.87798 0.0
Cd170 Cd 0.9873 0.79733 0.84259 0.0
O171 O 0.01344 0.78681 0.84017 0.0
O172 O 0.99653 0.78761 0.90359 0.0
O173 O 0.97967 0.77092 0.88276 0.0
C174 C 0.9856 0.77264 0.89905 0.0
C175 C 0.95929 0.77924 0.83706 0.0
C176 C 0.02583 0.78812 0.85277 0.0
C177 C 0.98403 0.83328 0.86355 0.0
O178 O 0.98663 0.82648 0.84815 0.0
O179 O 0.98443 0.82244 0.877 0.0
O180 O 0.96779 0.78763 0.82418 0.0
O181 O 0.96704 0.78098 0.85273 0.0
O182 O 0.02492 0.22318 0.64009 0.0
Cd183 Cd 0.0251 0.24363 0.66059 0.0
Cd184 Cd 0.04278 0.26659 0.63704 0.0
O185 O 0.04094 0.24157 0.62172 0.0
O186 O 0.00549 0.23461 0.67724 0.0
O187 O 0.00451 0.26215 0.66289 0.0
C188 C 0.99708 0.25025 0.67401 0.0
C189 C 0.033 0.29405 0.62262 0.0
C190 C 0.03277 0.22538 0.62534 0.0
C191 C 0.06388 0.25997 0.67149 0.0
O192 O 0.06353 0.26908 0.65701 0.0
O193 O 0.04993 0.24875 0.67545 0.0
O194 O 0.04916 0.28736 0.61998 0.0
O195 O 0.02249 0.28547 0.63403 0.0
O196 O 0.51364 0.25184 0.36256 0.0
Cd197 Cd 0.50259 0.27452 0.34938 0.0
Cd198 Cd 0.49952 0.29001 0.38185 0.0
O199 O 0.51285 0.26563 0.38906 0.0
O200 O 0.51474 0.27771 0.32617 0.0
O201 O 0.5181 0.29916 0.34845 0.0
C202 C 0.5225 0.29378 0.33277 0.0
C203 C 0.51054 0.31924 0.39568 0.0
C204 C 0.51678 0.25144 0.37921 0.0
C205 C 0.46368 0.2789 0.3606 0.0
O206 O 0.47124 0.28579 0.37509 0.0
O207 O 0.4738 0.27419 0.34788 0.0
O208 O 0.5009 0.30625 0.40405 0.0
O209 O 0.51374 0.31577 0.37929 0.0
O210 O 0.51592 0.72351 0.14505 0.0
Cd211 Cd 0.51602 0.74489 0.16464 0.0
Cd212 Cd 0.53469 0.76678 0.14013 0.0
O213 O 0.53128 0.74121 0.12565 0.0
O214 O 0.4982 0.73543 0.1827 0.0
O215 O 0.49404 0.7617 0.1671 0.0
C216 C 0.48839 0.75005 0.17925 0.0
C217 C 0.5274 0.79455 0.12469 0.0
C218 C 0.52329 0.72518 0.13003 0.0
C219 C 0.55546 0.76047 0.17473 0.0
O220 O 0.5558 0.76858 0.15976 0.0
O221 O 0.54085 0.7506 0.17919 0.0
O222 O 0.54277 0.78614 0.12232 0.0
O223 O 0.5162 0.78745 0.1363 0.0
O224 O 0.92329 0.02379 0.7507 0.0
Cd225 Cd 0.90577 0.0237 0.77188 0.0
Cd226 Cd 0.93529 0.00815 0.78778 0.0
O227 O 0.94844 0.01319 0.76439 0.0
O228 O 0.88478 0.0399 0.76444 0.0
O229 O 0.90423 0.04743 0.78736 0.0
C230 C 0.88988 0.05152 0.77752 0.0
C231 C 0.94518 0.02305 0.81453 0.0
C232 C 0.94028 0.01914 0.75044 0.0
C233 C 0.90015 0.983 0.78497 0.0
O234 O 0.91768 0.9836 0.78882 0.0
O235 O 0.89261 -0.00224 0.7788 0.0
O236 O 0.95378 0.00867 0.80822 0.0
O237 O 0.93136 0.02938 0.80521 0.0
O238 O 0.78979 0.12133 0.53748 0.0
Cd239 Cd 0.79049 0.10429 0.51489 0.0
Cd240 Cd 0.77502 0.13406 0.49892 0.0
O241 O 0.77689 0.14565 0.52425 0.0
O242 O 0.80926 0.08486 0.51975 0.0
O243 O 0.81232 0.10681 0.49889 0.0
C244 C 0.8189 0.09235 0.50719 0.0
C245 C 0.78374 0.15522 0.47657 0.0
C246 C 0.78329 0.13802 0.53821 0.0
C247 C 0.75245 0.0958 0.4979 0.0
O248 O 0.75356 0.11332 0.49305 0.0
O249 O 0.7659 0.08904 0.50686 0.0
O250 O 0.76817 0.15646 0.48449 0.0
O251 O 0.79447 0.14164 0.48122 0.0
O252 O 0.64525 0.99569 0.25278 0.0
Cd253 Cd 0.66202 0.9957 0.27568 0.0
Cd254 Cd 0.63165 0.00805 0.29091 0.0
O255 O 0.62009 0.00546 0.26552 0.0
O256 O 0.68315 0.97924 0.2705 0.0
O257 O 0.66257 0.97226 0.291 0.0
C258 C 0.67729 0.96783 0.28271 0.0
C259 C 0.61467 0.99388 0.31356 0.0
C260 C 0.6283 0.00041 0.25169 0.0
C261 C 0.66606 0.03521 0.29286 0.0
O262 O 0.64896 0.03249 0.29688 0.0
O263 O 0.67412 0.02207 0.28458 0.0
O264 O 0.6098 0.00964 0.30631 0.0
O265 O 0.6294 0.98606 0.30794 0.0
O266 O 0.72723 0.86108 0.03328 0.0
Cd267 Cd 0.7318 0.87558 0.01003 0.0
Cd268 Cd 0.7335 0.83884 -0.00219 0.0
O269 O 0.72733 0.83102 0.02305 0.0
O270 O 0.7263 0.90274 0.01656 0.0
O271 O 0.71103 0.88568 0.99486 0.0
C272 C 0.71346 0.90158 0.00406 0.0
C273 C 0.71248 0.83333 0.97397 0.0
C274 C 0.72596 0.84294 0.03586 0.0
C275 C 0.76844 0.86373 0.99556 0.0
O276 O 0.76132 0.84648 0.99362 0.0
O277 O 0.75872 0.87722 0.00117 0.0
O278 O 0.72223 0.81951 0.97994 0.0
O279 O 0.71454 0.85012 0.98181 0.0
O280 O 0.28448 0.61276 0.03551 0.0
Cd281 Cd 0.28532 0.6001 0.01064 0.0
Cd282 Cd 0.27589 0.63427 -0.00154 0.0
O283 O 0.27872 0.64138 0.02499 0.0
O284 O 0.30166 0.57788 0.01199 0.0
O285 O 0.30872 0.60453 0.99708 0.0
C286 C 0.31319 0.58765 0.00229 0.0
C287 C 0.28903 0.65692 0.97939 0.0
C288 C 0.28166 0.63055 0.03806 0.0
C289 C 0.24796 0.6006 0.9914 0.0
O290 O 0.25151 0.61872 0.98993 0.0
O291 O 0.25999 0.59022 -0.00122 0.0
O292 O 0.27426 0.66026 0.98795 0.0
O293 O 0.29637 0.64045 0.98141 0.0
O294 O 0.15139 0.5113 0.74815 0.0
Cd295 Cd 0.16959 0.51128 0.77011 0.0
Cd296 Cd 0.1423 0.52943 0.7861 0.0
O297 O 0.13003 0.52794 0.76097 0.0
O298 O 0.188 0.49149 0.7657 0.0
O299 O 0.16827 0.48972 0.78765 0.0
C300 C 0.18188 0.48254 0.77936 0.0
C301 C 0.12251 0.52137 0.809 0.0
C302 C 0.13593 0.51957 0.74733 0.0
C303 C 0.18043 0.55056 0.78561 0.0
O304 O 0.16389 0.55019 0.79133 0.0
O305 O 0.18561 0.53645 0.77637 0.0
O306 O 0.12225 0.53793 0.8015 0.0
O307 O 0.13421 0.50921 0.80359 0.0
O308 O 0.22829 0.38618 0.5431 0.0
Cd309 Cd 0.22769 0.39039 0.5161 0.0
Cd310 Cd 0.225 0.3518 0.51627 0.0
O311 O 0.22057 0.35485 0.54282 0.0
O312 O 0.22345 0.41861 0.51443 0.0
O313 O 0.20398 0.39543 0.50234 0.0
C314 C 0.2081 0.41359 0.50554 0.0
C315 C 0.20231 0.33859 0.49618 0.0
C316 C 0.22431 0.37071 0.55133 0.0
C317 C 0.26034 0.37 0.50297 0.0
O318 O 0.25265 0.35449 0.50889 0.0
O319 O 0.25186 0.38566 0.5032 0.0
O320 O 0.21177 0.32755 0.50634 0.0
O321 O 0.2055 0.35712 0.49784 0.0
O322 O 0.40364 0.49805 0.24582 0.0
Cd323 Cd 0.38612 0.50059 0.26671 0.0
Cd324 Cd 0.41674 0.49162 0.28577 0.0
O325 O 0.42974 0.49527 0.26206 0.0
O326 O 0.36564 0.51778 0.26009 0.0
O327 O 0.3874 0.5249 0.28134 0.0
C328 C 0.37255 0.52954 0.2725 0.0
C329 C 0.42877 0.50712 0.31171 0.0
C330 C 0.42135 0.49667 0.24702 0.0
C331 C 0.38302 0.46344 0.2857 0.0
O332 O 0.40047 0.46646 0.28955 0.0
O333 O 0.37415 0.47584 0.2771 0.0
O334 O 0.43659 0.4924 0.3051 0.0
O335 O 0.41457 0.51356 0.30308 0.0
C336 C 0.99593 0.01993 0.98997 0.0
N337 N 0.98559 0.96912 0.01791 0.0
C338 C 0.9687 0.97538 0.02255 0.0
C339 C 0.95327 0.96219 0.02385 0.0
C340 C 0.95523 0.94246 0.02012 0.0
C341 C 0.97293 0.93631 0.01592 0.0
C342 C 0.98806 0.94996 0.01502 0.0
Zn343 Zn 0.00711 0.98873 0.01334 0.0
C344 C 0.02507 0.97729 0.97916 0.0
N345 N 0.05341 0.02699 0.00193 0.0
C346 C 0.05013 0.04575 0.00585 0.0
C347 C 0.07063 0.02186 0.99706 0.0
C348 C 0.08566 0.03583 0.99687 0.0
C349 C 0.08277 0.05501 0.00196 0.0
C350 C 0.06471 0.06004 0.00607 0.0
Zn351 Zn 0.03199 0.00705 0.00614 0.0
O352 O 0.98896 0.00491 -0.00269 0.0
C353 C 0.01368 0.01841 0.04028 0.0
O354 O 0.01335 0.02458 0.99234 0.0
H355 H 0.0729 0.00684 0.99406 0.0
H356 H 0.96705 0.99069 0.02465 0.0
H357 H 0.03633 0.04955 0.00965 0.0
O358 O 0.00114 0.00522 0.03593 0.0
O359 O 0.02758 0.02152 0.03049 0.0
H360 H 0.00164 0.94531 0.01145 0.0
O361 O 0.05043 0.98928 0.01994 0.0
O362 O 0.02555 0.97278 0.02919 0.0
O363 O 0.03609 0.99227 0.98188 0.0
O364 O 0.01306 0.9727 0.99058 0.0
C365 C 0.04332 0.97593 0.02939 0.0
H366 H 0.93974 0.96747 0.02691 0.0
H367 H 0.97494 0.92119 0.01303 0.0
H368 H 0.09954 0.03152 0.99379 0.0
H369 H 0.06208 0.07473 0.01005 0.0
C370 C 0.31528 0.75752 0.26908 0.0
N371 N 0.26582 0.734 0.24338 0.0
C372 C 0.27193 0.74388 0.22908 0.0
C373 C 0.26934 0.73561 0.2121 0.0
C374 C 0.26034 0.71703 0.20985 0.0
C375 C 0.25316 0.70772 0.22473 0.0
C376 C 0.25613 0.71648 0.24147 0.0
Zn377 Zn 0.27413 0.7437 0.26821 0.0
C378 C 0.29074 0.71144 0.28855 0.0
N379 N 0.29374 0.76192 0.32005 0.0
C380 C 0.303 0.77955 0.32297 0.0
C381 C 0.28706 0.75128 0.33368 0.0
C382 C 0.28835 0.7589 0.35092 0.0
C383 C 0.29684 0.7775 0.35415 0.0
C384 C 0.30486 0.78762 0.3401 0.0
Zn385 Zn 0.28583 0.75265 0.29497 0.0
O386 O 0.30137 0.75125 0.25913 0.0
C387 C 0.26886 0.78478 0.27458 0.0
O388 O 0.31312 0.75978 0.28562 0.0
H389 H 0.27977 0.73729 0.33107 0.0
H390 H 0.27965 0.75777 0.23093 0.0
H391 H 0.30805 0.7878 0.3119 0.0
O392 O 0.26574 0.77156 0.26274 0.0
O393 O 0.27728 0.78088 0.28911 0.0
H394 H 0.25143 0.70886 0.25302 0.0
O395 O 0.25837 0.74529 0.30393 0.0
O396 O 0.24705 0.7365 0.27743 0.0
O397 O 0.29415 0.72449 0.30049 0.0
O398 O 0.28254 0.71572 0.27406 0.0
C399 C 0.24459 0.73894 0.29386 0.0
H400 H 0.27526 0.74325 0.20103 0.0
H401 H 0.24587 0.69353 0.22355 0.0
H402 H 0.28216 0.75066 0.36152 0.0
H403 H 0.31143 0.80207 0.34216 0.0
C404 C 0.52392 0.01851 0.53994 0.0
N405 N 0.53661 0.96201 0.52677 0.0
C406 C 0.54593 0.96298 0.54285 0.0
C407 C 0.54564 0.94688 0.55373 0.0
C408 C 0.53591 0.92949 0.54788 0.0
C409 C 0.52763 0.92856 0.53065 0.0
C410 C 0.52797 0.94511 0.52036 0.0
Zn411 Zn 0.5319 0.98695 0.51381 0.0
C412 C 0.48972 0.98976 0.50802 0.0
N413 N 0.51845 0.0388 0.48852 0.0
C414 C 0.52878 0.05503 0.4943 0.0
C415 C 0.50701 0.03883 0.47367 0.0
C416 C 0.50627 0.05552 0.46358 0.0
C417 C 0.51756 0.07213 0.46881 0.0
C418 C 0.52857 0.07191 0.48458 0.0
Zn419 Zn 0.52311 0.0138 0.50119 0.0
O420 O 0.52872 0.00118 0.53855 0.0
C421 C 0.56526 0.01125 0.50732 0.0
O422 O 0.52116 0.02805 0.52598 0.0
H423 H 0.49901 0.0257 0.46929 0.0
H424 H 0.55273 0.97657 0.5477 0.0
H425 H 0.53778 0.05469 0.50612 0.0
O426 O 0.56097 0.99524 0.51457 0.0
O427 O 0.55227 0.02118 0.50101 0.0
H428 H 0.52053 0.94467 0.5076 0.0
O429 O 0.52492 -0.0007 0.47648 0.0
O430 O 0.53494 0.97316 0.48881 0.0
O431 O 0.49413 0.0062 0.50163 0.0
O432 O 0.50267 0.97902 0.51311 0.0
C433 C 0.53074 0.98236 0.47494 0.0
H434 H 0.55214 0.94842 0.56691 0.0
H435 H 0.52041 0.91537 0.52533 0.0
H436 H 0.49763 0.05517 0.45145 0.0
H437 H 0.53722 0.08457 0.48918 0.0
C438 C 0.28814 0.23508 0.76957 0.0
N439 N 0.26648 0.25091 0.81811 0.0
C440 C 0.25876 0.23245 0.81854 0.0
C441 C 0.25868 0.22246 0.83447 0.0
C442 C 0.26663 0.23163 0.85002 0.0
C443 C 0.27339 0.25109 0.84928 0.0
C444 C 0.27318 0.26047 0.83315 0.0
Zn445 Zn 0.27284 0.26369 0.79484 0.0
C446 C 0.31474 0.27646 0.79651 0.0
N447 N 0.29045 0.29035 0.74759 0.0
C448 C 0.28441 0.28152 0.73198 0.0
C449 C 0.29792 0.30896 0.74821 0.0
C450 C 0.29794 0.31999 0.73293 0.0
C451 C 0.29058 0.31159 0.71691 0.0
C452 C 0.2845 0.29191 0.71634 0.0
Zn453 Zn 0.28379 0.27715 0.77058 0.0
O454 O 0.28042 0.23661 0.78439 0.0
C455 C 0.24212 0.26406 0.76842 0.0
O456 O 0.29118 0.25012 0.76046 0.0
H457 H 0.30271 0.31567 0.76076 0.0
H458 H 0.2536 0.22511 0.80638 0.0
H459 H 0.2783 0.26682 0.73183 0.0
O460 O 0.24488 0.25837 0.78418 0.0
O461 O 0.25583 0.2719 0.76033 0.0
H462 H 0.27955 0.27501 0.83249 0.0
O463 O 0.27638 0.304 0.78102 0.0
O464 O 0.26507 0.29105 0.80492 0.0
O465 O 0.31149 0.28219 0.78087 0.0
O466 O 0.30123 0.26892 0.80507 0.0
C467 C 0.26842 0.3059 0.79564 0.0
H468 H 0.25312 0.20754 0.83449 0.0
H469 H 0.27996 0.25868 0.86079 0.0
H470 H 0.30278 0.33515 0.73378 0.0
H471 H 0.27854 0.28503 0.70422 0.0
C472 C 0.07669 0.00697 0.51274 0.0
N473 N 0.05051 0.02941 0.46742 0.0
C474 C 0.06784 0.03735 0.4638 0.0
C475 C 0.07353 0.03824 0.44628 0.0
C476 C 0.06119 0.03102 0.43241 0.0
C477 C 0.04302 0.02401 0.4365 0.0
C478 C 0.038 0.02323 0.45414 0.0
Zn479 Zn 0.04393 0.02208 0.4927 0.0
C480 C 0.03228 0.97869 0.49237 0.0
N481 N 0.02931 0.00229 0.54374 0.0
C482 C 0.04141 0.00914 0.5571 0.0
C483 C 0.01236 0.99333 0.54722 0.0
C484 C 0.00659 0.99203 0.56468 0.0
C485 C 0.0184 6e-05 0.57861 0.0
C486 C 0.03627 0.00807 0.57467 0.0
Zn487 Zn 0.03597 0.00964 0.51854 0.0
O488 O 0.07223 0.01464 0.49812 0.0
C489 C 0.0471 0.05302 0.51922 0.0
O490 O 0.06417 0.00364 0.52398 0.0
H491 H 0.00291 0.98808 0.5364 0.0
H492 H 0.07762 0.04209 0.47454 0.0
H493 H 0.05474 0.01639 0.55411 0.0
O494 O 0.0503 0.05098 0.50283 0.0
O495 O 0.04141 0.03833 0.5278 0.0
H496 H 0.02443 0.01659 0.45725 0.0
O497 O 0.00776 0.01576 0.5127 0.0
O498 O 0.01563 0.02924 0.48778 0.0
O499 O 0.0305 0.981 0.50895 0.0
O500 O 0.03723 0.9932 0.48316 0.0
C501 C 0.00312 0.02454 0.49873 0.0
H502 H 0.08762 0.04392 0.44367 0.0
H503 H 0.03315 0.01803 0.42628 0.0
H504 H 0.99264 0.98582 0.56713 0.0
H505 H 0.04594 0.01412 0.58502 0.0
C506 C 0.29134 0.77601 0.75731 0.0
N507 N 0.33859 0.75982 0.78701 0.0
C508 C 0.34188 0.74447 0.77629 0.0
C509 C 0.36023 0.739 0.77424 0.0
C510 C 0.37538 0.74964 0.78306 0.0
C511 C 0.37147 0.76544 0.794 0.0
C512 C 0.35293 0.77015 0.79593 0.0
Zn513 Zn 0.31192 0.76772 0.79061 0.0
C514 C 0.31128 0.81148 0.79348 0.0
N515 N 0.2572 0.78606 0.80001 0.0
C516 C 0.24356 0.77904 0.78809 0.0
C517 C 0.25281 0.79581 0.81496 0.0
C518 C 0.23401 0.79783 0.81885 0.0
C519 C 0.21961 0.79006 0.80706 0.0
C520 C 0.22469 0.78119 0.79121 0.0
Zn521 Zn 0.28406 0.77873 0.7961 0.0
O522 O 0.30665 0.76915 0.76273 0.0
C523 C 0.28407 0.73514 0.79259 0.0
O524 O 0.27966 0.781 0.76855 0.0
H525 H 0.26384 0.8013 0.82428 0.0
H526 H 0.33027 0.73641 0.76937 0.0
H527 H 0.2472 0.77106 0.77641 0.0
O528 O 0.30154 0.73822 0.79022 0.0
O529 O 0.27404 0.74945 0.79498 0.0
H530 H 0.35002 0.78216 0.80457 0.0
O531 O 0.28908 0.77627 0.8236 0.0
O532 O 0.317 0.76632 0.81842 0.0
O533 O 0.29411 0.80803 0.79695 0.0
O534 O 0.32155 0.79739 0.79076 0.0
C535 C 0.30464 0.77037 0.82936 0.0
H536 H 0.36244 0.7265 0.76591 0.0
H537 H 0.38259 0.77436 0.80082 0.0
H538 H 0.23088 0.80465 0.83133 0.0
H539 H 0.21421 0.77543 0.78144 0.0
C540 C 0.50574 0.96528 0.02295 0.0
N541 N 0.52291 0.01885 0.04658 0.0
C542 C 0.51352 0.01163 0.06059 0.0
C543 C 0.521 0.01469 0.07782 0.0
C544 C 0.53835 0.02524 0.08065 0.0
C545 C 0.54713 0.03357 0.06604 0.0
C546 C 0.53912 0.03018 0.04901 0.0
Zn547 Zn 0.51437 0.00909 0.02173 0.0
C548 C 0.54658 0.99552 0.00193 0.0
N549 N 0.49725 0.98522 0.97085 0.0
C550 C 0.47988 0.97654 0.96701 0.0
C551 C 0.50871 0.99115 0.95775 0.0
C552 C 0.50249 0.98946 0.94007 0.0
C553 C 0.48417 0.98184 0.93575 0.0
C554 C 0.47297 0.97479 0.94941 0.0
Zn555 Zn 0.50533 0.99456 0.99602 0.0
O556 O 0.51158 0.98062 0.03151 0.0
C557 C 0.4731 0.00798 0.01569 0.0
O558 O 0.50131 0.96629 0.00651 0.0
H559 H 0.52226 -0.00154 0.961 0.0
H560 H 0.50074 0.00254 0.05835 0.0
H561 H 0.47094 0.97201 0.97761 0.0
O562 O 0.48603 0.01323 0.02713 0.0
O563 O 0.47735 -0.0 0.00123 0.0
H564 H 0.54635 0.03577 0.03768 0.0
O565 O 0.50953 0.02323 0.98592 0.0
O566 O 0.5169 0.03723 0.01178 0.0
O567 O 0.53335 0.98899 0.99135 0.0
O568 O 0.54276 0.00495 0.01579 0.0
C569 C 0.51399 0.03851 0.99516 0.0
H570 H 0.51385 0.00783 0.08866 0.0
H571 H 0.56041 0.04201 0.06768 0.0
H572 H 0.51148 0.99539 0.93 0.0
H573 H 0.45879 0.96873 0.94659 0.0
C574 C 0.24581 0.21248 0.27399 0.0
N575 N 0.29509 0.24144 0.25811 0.0
C576 C 0.30285 0.224 0.25686 0.0
C577 C 0.31686 0.22117 0.24484 0.0
C578 C 0.32287 0.23642 0.23398 0.0
C579 C 0.31506 0.25445 0.23599 0.0
C580 C 0.30112 0.25665 0.2482 0.0
Zn581 Zn 0.27397 0.24497 0.27502 0.0
C582 C 0.24254 0.26505 0.25821 0.0
N583 N 0.23106 0.25389 0.31125 0.0
C584 C 0.22651 0.23879 0.32188 0.0
C585 C 0.22265 0.27097 0.3127 0.0
C586 C 0.20971 0.27363 0.32584 0.0
C587 C 0.20551 0.25858 0.33756 0.0
C588 C 0.21369 0.24082 0.33514 0.0
Zn589 Zn 0.25188 0.25054 0.29395 0.0
O590 O 0.26038 0.21863 0.2662 0.0
C591 C 0.28385 0.23094 0.31064 0.0
O592 O 0.23962 0.22262 0.28646 0.0
H593 H 0.22647 0.28275 0.30407 0.0
H594 H 0.29787 0.21213 0.26491 0.0
H595 H 0.2333 0.22531 0.32045 0.0
O596 O 0.28889 0.2308 0.29471 0.0
O597 O 0.26867 0.23854 0.3144 0.0
H598 H 0.29485 0.27044 0.24952 0.0
O599 O 0.26439 0.27837 0.30107 0.0
O600 O 0.28748 0.27124 0.28413 0.0
O601 O 0.2358 0.26281 0.27344 0.0
O602 O 0.25874 0.2593 0.2553 0.0
C603 C 0.2804 0.28275 0.29494 0.0
H604 H 0.32228 0.20694 0.24349 0.0
H605 H 0.31938 0.26659 0.22792 0.0
H606 H 0.20384 0.28763 0.3274 0.0
H607 H 0.21068 0.22881 0.34381 0.0
C608 C 0.57426 0.50673 0.01807 0.0
N609 N 0.54802 0.53172 0.97439 0.0
C610 C 0.56493 0.54143 0.97224 0.0
C611 C 0.57152 0.54437 0.95524 0.0
C612 C 0.56052 0.53734 0.9404 0.0
C613 C 0.54261 0.52852 0.94302 0.0
C614 C 0.53665 0.52578 0.9602 0.0
Zn615 Zn 0.54094 0.52192 -0.0013 0.0
C616 C 0.5307 0.47879 0.99597 0.0
N617 N 0.52671 0.4983 0.04851 0.0
C618 C 0.53894 0.50218 0.06257 0.0
C619 C 0.50932 0.48971 0.05073 0.0
C620 C 0.5032 0.48586 0.06772 0.0
C621 C 0.51524 0.49049 0.0826 0.0
C622 C 0.53359 0.49809 0.07973 0.0
Zn623 Zn 0.53371 0.50833 0.02421 0.0
O624 O 0.56939 0.51531 0.00405 0.0
C625 C 0.54358 0.55135 0.02727 0.0
O626 O 0.56197 0.50214 0.02922 0.0
H627 H 0.49982 0.48662 0.03939 0.0
H628 H 0.57375 0.546 0.98371 0.0
H629 H 0.55265 0.50916 0.0606 0.0
O630 O 0.54603 0.5501 0.01068 0.0
O631 O 0.5389 0.53613 0.03561 0.0
H632 H 0.52338 0.51786 0.96219 0.0
O633 O 0.50548 0.51491 0.01877 0.0
O634 O 0.5125 0.52817 0.99353 0.0
O635 O 0.52852 0.48044 0.01254 0.0
O636 O 0.53557 0.49373 0.9873 0.0
C637 C 0.50037 0.52347 0.00482 0.0
H638 H 0.58533 0.55142 0.95376 0.0
H639 H 0.53378 0.52265 0.93198 0.0
H640 H 0.48885 0.48022 0.0691 0.0
H641 H 0.54362 0.50143 0.09064 0.0
C642 C 0.76329 0.26487 0.24872 0.0
N643 N 0.81123 0.24275 0.27182 0.0
C644 C 0.81073 0.23 0.25784 0.0
C645 C 0.82743 0.22424 0.25091 0.0
C646 C 0.84473 0.23158 0.25856 0.0
C647 C 0.84479 0.24387 0.27356 0.0
C648 C 0.8278 0.24936 0.27996 0.0
Zn649 Zn 0.78729 0.25457 0.27934 0.0
C650 C 0.79281 0.29772 0.28151 0.0
N651 N 0.73815 0.28114 0.29508 0.0
C652 C 0.7221 0.2758 0.28543 0.0
C653 C 0.73854 0.29545 0.30775 0.0
C654 C 0.72236 0.30528 0.31086 0.0
C655 C 0.70592 0.30052 0.30052 0.0
C656 C 0.70581 0.28548 0.28783 0.0
Zn657 Zn 0.76205 0.26862 0.28827 0.0
O658 O 0.77848 0.25689 0.2524 0.0
C659 C 0.75649 0.22538 0.28561 0.0
O660 O 0.75359 0.27072 0.26126 0.0
H661 H 0.7515 0.29952 0.31517 0.0
H662 H 0.79738 0.2249 0.25161 0.0
H663 H 0.72203 0.26428 0.27554 0.0
O664 O 0.77329 0.22693 0.28052 0.0
O665 O 0.74824 0.24061 0.28954 0.0
H666 H 0.82788 0.25963 0.29095 0.0
O667 O 0.77097 0.26644 0.31524 0.0
O668 O 0.79585 0.25244 0.30627 0.0
O669 O 0.77604 0.29639 0.28668 0.0
O670 O 0.80101 0.28237 0.2781 0.0
C671 C 0.78622 0.25844 0.31884 0.0
H672 H 0.82684 0.2146 0.23939 0.0
H673 H 0.85783 0.25005 0.2797 0.0
H674 H 0.7228 0.31677 0.32085 0.0
H675 H 0.69321 0.28125 0.27986 0.0
C676 C 0.99566 0.46304 0.52416 0.0
N677 N 0.01199 0.51639 0.54829 0.0
C678 C 0.00307 0.50888 0.56245 0.0
C679 C 0.01089 0.51198 0.57955 0.0
C680 C 0.02816 0.52275 0.58212 0.0
C681 C 0.03645 0.53133 0.56737 0.0
C682 C 0.02807 0.52797 0.55048 0.0
Zn683 Zn 0.00291 0.50681 0.5235 0.0
C684 C 0.03466 0.49501 0.50237 0.0
N685 N 0.98464 0.48357 0.47269 0.0
C686 C 0.96769 0.47386 0.46914 0.0
C687 C 0.99574 0.48971 0.45939 0.0
C688 C 0.98973 0.48671 0.44177 0.0
C689 C 0.97195 0.47761 0.43769 0.0
C690 C 0.96095 0.47082 0.45159 0.0
Zn691 Zn 0.99307 0.49295 0.49773 0.0
O692 O 0.00167 0.47825 0.53281 0.0
C693 C 0.96125 0.50434 0.51874 0.0
O694 O 0.99024 0.46438 0.50798 0.0
H695 H 0.00893 0.49785 0.4624 0.0
H696 H 0.99035 0.49966 0.56043 0.0
H697 H 0.95903 0.4692 0.4799 0.0
O698 O 0.97445 0.50926 0.53002 0.0
O699 O 0.96512 0.49755 0.50368 0.0
H700 H 0.03494 0.53378 0.53904 0.0
O701 O 0.99599 0.52181 0.48799 0.0
O702 O 0.00409 0.53518 0.51396 0.0
O703 O 0.02117 0.48824 0.49223 0.0
O704 O 0.03123 0.50411 0.51652 0.0
C705 C 0.00046 0.5369 0.49748 0.0
H706 H 0.0038 0.50541 0.59057 0.0
H707 H 0.04983 0.53963 0.56868 0.0
H708 H -0.00153 0.4925 0.43146 0.0
H709 H 0.94715 0.46372 0.44892 0.0
C710 C 0.77802 0.71268 0.26925 0.0
N711 N 0.7593 0.73509 0.3165 0.0
C712 C 0.74953 0.71776 0.31831 0.0
C713 C 0.74899 0.70904 0.33484 0.0
C714 C 0.75873 0.71824 0.34948 0.0
C715 C 0.76765 0.73666 0.34742 0.0
C716 C 0.76773 0.74489 0.33073 0.0
Zn717 Zn 0.76522 0.74475 0.29194 0.0
C718 C 0.80732 0.75597 0.291 0.0
N719 N 0.781 0.76431 0.24136 0.0
C720 C 0.77357 0.75294 0.22763 0.0
C721 C 0.78931 0.78218 0.23859 0.0
C722 C 0.78929 0.7897 0.22152 0.0
C723 C 0.78071 0.77864 0.20728 0.0
C724 C 0.77332 0.75981 0.21045 0.0
Zn725 Zn 0.77536 0.75511 0.26617 0.0
O726 O 0.77126 0.71616 0.28421 0.0
C727 C 0.73341 0.744 0.26669 0.0
O728 O 0.78099 0.7265 0.25869 0.0
H729 H 0.79507 0.791 0.24971 0.0
H730 H 0.74305 0.71019 0.30677 0.0
H731 H 0.76671 0.73894 0.23011 0.0
O732 O 0.73658 0.73974 0.2828 0.0
O733 O 0.74701 0.7502 0.25758 0.0
H734 H 0.77543 0.75863 0.32897 0.0
O735 O 0.76964 0.78359 0.27404 0.0
O736 O 0.75926 0.77347 0.29944 0.0
O737 O 0.80365 0.76004 0.27495 0.0
O738 O 0.79402 0.74984 0.30059 0.0
C739 C 0.76254 0.78723 0.28883 0.0
H740 H 0.74201 0.69478 0.33592 0.0
H741 H 0.77506 0.74432 0.35849 0.0
H742 H 0.79529 0.80424 0.2196 0.0
H743 H 0.76625 0.7509 0.19998 0.0
C744 C 0.8239 0.27425 0.76139 0.0
N745 N 0.77245 0.25117 0.73956 0.0
C746 C 0.77746 0.26085 0.72478 0.0
C747 C 0.77367 0.25236 0.70803 0.0
C748 C 0.76466 0.23373 0.70651 0.0
C749 C 0.75858 0.22463 0.72192 0.0
C750 C 0.76267 0.23365 0.73841 0.0
Zn751 Zn 0.78264 0.26139 0.76368 0.0
C752 C 0.80029 0.22991 0.78391 0.0
N753 N 0.80619 0.28159 0.81376 0.0
C754 C 0.8139 0.29998 0.81625 0.0
C755 C 0.80236 0.27007 0.82774 0.0
C756 C 0.80545 0.27721 0.84504 0.0
C757 C 0.81231 0.29648 0.84801 0.0
C758 C 0.817 0.30781 0.8334 0.0
Zn759 Zn 0.79634 0.27178 0.78929 0.0
O760 O 0.8092 0.26745 0.75283 0.0
C761 C 0.77851 0.3032 0.76911 0.0
O762 O 0.82299 0.27822 0.77786 0.0
H763 H 0.7959 0.25563 0.82551 0.0
H764 H 0.78529 0.27473 0.72603 0.0
H765 H 0.8168 0.3089 0.80495 0.0
O766 O 0.77455 0.28951 0.75786 0.0
O767 O 0.7877 0.29979 0.78333 0.0
H768 H 0.75882 0.22623 0.75034 0.0
O769 O 0.76949 0.265 0.80031 0.0
O770 O 0.75633 0.25541 0.77468 0.0
O771 O 0.8048 0.24372 0.79485 0.0
O772 O 0.79079 0.23326 0.76986 0.0
C773 C 0.75501 0.25853 0.79119 0.0
H774 H 0.77877 0.2598 0.6965 0.0
H775 H 0.75137 0.21038 0.72129 0.0
H776 H 0.80137 0.26809 0.85592 0.0
H777 H 0.82242 0.32272 0.83519 0.0
C778 C 0.74248 0.74001 0.74672 0.0
N779 N 0.79497 0.76121 0.73095 0.0
C780 C 0.80001 0.74267 0.7327 0.0
C781 C 0.81549 0.73633 0.72408 0.0
C782 C 0.82601 0.74917 0.71357 0.0
C783 C 0.82055 0.76828 0.71204 0.0
C784 C 0.80489 0.77403 0.7209 0.0
Zn785 Zn 0.77323 0.76977 0.74531 0.0
C786 C 0.74517 0.78986 0.7247 0.0
N787 N 0.7302 0.78769 0.77816 0.0
C788 C 0.72363 0.77466 0.79004 0.0
C789 C 0.72332 0.80558 0.77703 0.0
C790 C 0.70972 0.81119 0.78865 0.0
C791 C 0.70318 0.79822 0.80148 0.0
C792 C 0.71009 0.77963 0.80183 0.0
Zn793 Zn 0.75152 0.77969 0.76292 0.0
O794 O 0.75734 0.74399 0.73846 0.0
C795 C 0.7795 0.75863 0.78298 0.0
O796 O 0.73714 0.75211 0.75807 0.0
H797 H 0.72871 0.81567 0.76742 0.0
H798 H 0.79201 0.73274 0.74083 0.0
H799 H 0.72933 0.76055 0.79077 0.0
O800 O 0.78491 0.7564 0.76733 0.0
O801 O 0.76576 0.76896 0.78579 0.0
H802 H 0.80072 0.78876 0.71983 0.0
O803 O 0.76619 0.8069 0.76762 0.0
O804 O 0.78899 0.79564 0.75249 0.0
O805 O 0.73787 0.79023 0.73984 0.0
O806 O 0.7611 0.78283 0.72317 0.0
C807 C 0.78267 0.80906 0.76183 0.0
H808 H 0.81883 0.72133 0.72529 0.0
H809 H 0.82827 0.77865 0.70407 0.0
H810 H 0.70472 0.82564 0.78788 0.0
H811 H 0.70584 0.76927 0.81171 0.0
C812 C 0.48262 0.5293 0.49131 0.0
N813 N 0.46999 0.48541 0.52733 0.0
C814 C 0.45217 0.4914 0.5268 0.0
C815 C 0.43687 0.47793 0.52725 0.0
C816 C 0.43994 0.45809 0.52813 0.0
C817 C 0.45847 0.45234 0.5293 0.0
C818 C 0.4734 0.46635 0.52896 0.0
Zn819 Zn 0.49158 0.50517 0.5232 0.0
C820 C 0.51745 0.48855 0.49666 0.0
N821 N 0.53682 0.54495 0.51133 0.0
C822 C 0.53361 0.56417 0.51129 0.0
C823 C 0.55458 0.5388 0.51144 0.0
C824 C 0.57001 0.5522 0.51269 0.0
C825 C 0.56709 0.57206 0.51404 0.0
C826 C 0.54865 0.57806 0.51277 0.0
Zn827 Zn 0.51505 0.52526 0.51519 0.0
O828 O 0.47608 0.51605 0.50123 0.0
C829 C 0.48935 0.54167 0.54208 0.0
O830 O 0.49921 0.53661 0.49443 0.0
H831 H 0.5568 0.52347 0.51165 0.0
H832 H 0.4498 0.5066 0.52533 0.0
H833 H 0.51937 0.56873 0.51113 0.0
O834 O 0.48029 0.52533 0.54047 0.0
O835 O 0.50401 0.54491 0.53329 0.0
H836 H 0.4877 0.46192 0.52939 0.0
O837 O 0.53097 0.51336 0.53605 0.0
O838 O 0.50731 0.49457 0.54475 0.0
O839 O 0.52571 0.50535 0.49715 0.0
O840 O 0.50332 0.48508 0.50611 0.0
C841 C 0.52443 0.50075 0.54656 0.0
H842 H 0.42279 0.48295 0.52606 0.0
H843 H 0.46138 0.43718 0.5301 0.0
H844 H 0.58403 0.54699 0.51382 0.0
H845 H 0.54589 0.59328 0.51366 0.0
C846 C 0.01896 0.52538 0.03559 0.0
N847 N 0.03192 0.47373 0.01073 0.0
C848 C 0.04322 0.47124 0.02533 0.0
C849 C 0.04508 0.45274 0.03203 0.0
C850 C 0.03529 0.43667 0.02355 0.0
C851 C 0.0247 0.4396 0.00787 0.0
C852 C 0.0231 0.45833 0.00173 0.0
Zn853 Zn 0.02492 0.50081 0.00392 0.0
C854 C 0.9827 0.50185 0.00213 0.0
N855 N 0.00709 0.55633 0.99016 0.0
C856 C 0.01735 0.57172 -0.00219 0.0
C857 C 0.99224 0.55886 0.97876 0.0
C858 C 0.98729 0.57754 0.97457 0.0
C859 C -0.0021 0.59364 0.98203 0.0
C860 C 0.01304 0.59057 0.99383 0.0
Zn861 Zn 0.01461 0.52928 0.9965 0.0
O862 O 0.02364 0.50865 0.03098 0.0
C863 C 0.05696 0.52796 -0.00134 0.0
O864 O 0.01505 0.53742 0.02371 0.0
H865 H 0.98429 0.5464 0.97285 0.0
H866 H 0.05006 0.4837 0.0323 0.0
H867 H 0.02896 0.5694 0.007 0.0
O868 O 0.05338 0.51077 0.00375 0.0
O869 O 0.04346 0.53855 0.99484 0.0
H870 H 0.01408 0.46062 0.99022 0.0
O871 O 0.01427 0.52082 0.96922 0.0
O872 O 0.02619 0.49349 0.97684 0.0
O873 O 0.986 0.51955 -0.00156 0.0
O874 O 0.99636 0.49104 0.00416 0.0
C875 C 0.02082 0.50478 0.96484 0.0
H876 H 0.05329 0.45123 0.04423 0.0
H877 H 0.01722 0.4276 0.00069 0.0
H878 H 0.9756 0.57938 0.96529 0.0
H879 H 0.02143 0.60265 -2e-05 0.0
C880 C 0.01976 0.16793 0.12036 0.0
C881 C 0.03654 0.17066 0.13061 0.0
C882 C 0.01309 0.14937 0.11476 0.0
C883 C 0.02198 0.09658 0.1193 0.0
H884 H -0.00088 0.09375 0.07181 0.0
C885 C 0.02854 0.03759 0.06568 0.0
C886 C 0.01213 0.0307 0.05614 0.0
C887 C 0.02769 0.05168 0.07901 0.0
C888 C 0.0051 0.09432 0.08524 0.0
H889 H 0.05943 0.15643 0.14341 0.0
H890 H 0.04871 0.12406 0.13247 0.0
H891 H 0.00549 0.12506 0.08639 0.0
H892 H 0.9819 0.03219 0.05348 0.0
H893 H 0.98054 0.05773 0.0764 0.0
H894 H 0.02317 0.06567 0.11704 0.0
C895 C 0.04012 0.13601 0.12934 0.0
C896 C 0.00874 0.1123 0.0937 0.0
C897 C 0.04645 0.15457 0.13546 0.0
C898 C 0.9947 0.03729 0.06076 0.0
C899 C 0.99392 0.05181 0.07381 0.0
C900 C 0.01877 0.0786 0.11058 0.0
C901 C 0.02343 0.13318 0.11872 0.0
C902 C 0.0176 0.11376 0.11072 0.0
C903 C 0.01049 0.0594 0.08269 0.0
C904 C 0.01061 0.07743 0.09338 0.0
H905 H 0.01169 0.18016 0.11681 0.0
H906 H -0.00011 0.14783 0.10715 0.0
H907 H 0.02838 0.09701 0.13254 0.0
H908 H 0.04212 0.03261 0.06237 0.0
H909 H 0.04066 0.05752 0.08556 0.0
C910 C 0.09975 0.74166 0.3735 0.0
C911 C 0.08324 0.74466 0.36342 0.0
C912 C 0.11649 0.73842 0.3652 0.0
C913 C 0.13964 0.74602 0.32261 0.0
H914 H 0.17596 0.71249 0.34316 0.0
C915 C 0.20966 0.73286 0.28974 0.0
C916 C 0.22572 0.73558 0.30112 0.0
C917 C 0.19171 0.73149 0.29663 0.0
C918 C 0.16595 0.72192 0.3373 0.0
H919 H 0.07125 0.74599 0.33666 0.0
H920 H 0.10032 0.73988 0.32217 0.0
H921 H 0.1454 0.71455 0.35637 0.0
H922 H 0.23558 0.73822 0.32866 0.0
H923 H 0.20427 0.73568 0.34064 0.0
H924 H 0.16024 0.75337 0.30356 0.0
C925 C 0.10047 0.74049 0.33652 0.0
C926 C 0.14847 0.72318 0.34489 0.0
C927 C 0.08376 0.7439 0.34483 0.0
C928 C 0.22349 0.73617 0.31953 0.0
C929 C 0.20556 0.73461 0.32641 0.0
C930 C 0.15704 0.74462 0.31494 0.0
C931 C 0.11711 0.73793 0.34659 0.0
C932 C 0.13519 0.73547 0.3378 0.0
C933 C 0.18948 0.7326 0.31503 0.0
C934 C 0.17047 0.73277 0.32235 0.0
H935 H 0.09988 0.74222 0.38785 0.0
H936 H 0.12907 0.73683 0.37341 0.0
H937 H 0.12993 0.75589 0.31695 0.0
H938 H 0.21091 0.73233 0.27549 0.0
H939 H 0.17955 0.72977 0.28756 0.0
C940 C 0.51152 0.78054 0.63053 0.0
C941 C 0.52492 0.77912 0.64442 0.0
C942 C 0.50914 0.79829 0.62252 0.0
C943 C 0.52535 0.85107 0.62431 0.0
H944 H 0.51859 0.84483 0.57325 0.0
C945 C 0.54736 0.90885 0.57279 0.0
C946 C 0.53329 0.91292 0.56003 0.0
C947 C 0.54449 0.89363 0.5845 0.0
C948 C 0.52033 0.84678 0.58751 0.0
H949 H 0.54565 0.79503 0.66159 0.0
H950 H 0.54234 0.82587 0.64706 0.0
H951 H 0.5159 0.81655 0.5917 0.0
H952 H 0.50491 0.90433 0.55008 0.0
H953 H 0.50044 0.87725 0.56991 0.0
H954 H 0.53092 0.88139 0.61964 0.0
C955 C 0.53313 0.81357 0.64262 0.0
C956 C 0.5186 0.8306 0.59817 0.0
C957 C 0.53508 0.79589 0.65098 0.0
C958 C 0.51631 0.90137 0.55934 0.0
C959 C 0.5136 0.88598 0.57082 0.0
C960 C 0.52746 0.86725 0.61355 0.0
C961 C 0.52066 0.81482 0.6278 0.0
C962 C 0.52112 0.83246 0.61674 0.0
C963 C 0.52765 0.88201 0.5835 0.0
C964 C 0.52501 0.86518 0.59507 0.0
H965 H 0.50344 0.76775 0.62536 0.0
H966 H 0.49888 0.79878 0.61162 0.0
H967 H 0.52714 0.85316 0.63853 0.0
H968 H 0.5607 0.91724 0.5736 0.0
H969 H 0.55561 0.89064 0.59406 0.0
C970 C 0.48251 0.27126 0.83554 0.0
C971 C 0.48721 0.26148 0.85109 0.0
C972 C 0.46378 0.27167 0.82948 0.0
C973 C 0.41588 0.26838 0.84568 0.0
H974 H 0.40114 0.26422 0.79573 0.0
C975 C 0.33819 0.26752 0.82007 0.0
C976 C 0.33427 0.2767 0.804 0.0
C977 C 0.35677 0.26568 0.82613 0.0
C978 C 0.40505 0.26569 0.80971 0.0
H979 H 0.47598 0.24387 0.87214 0.0
H980 H 0.44319 0.24456 0.86149 0.0
H981 H 0.43359 0.25957 0.80521 0.0
H982 H 0.34682 0.29189 0.7821 0.0
H983 H 0.37918 0.2891 0.79288 0.0
H984 H 0.38743 0.27478 0.8502 0.0
C985 C 0.45404 0.25205 0.8541 0.0
C986 C 0.42365 0.26292 0.81514 0.0
C987 C 0.47282 0.25152 0.8601 0.0
C988 C 0.34934 0.28465 0.79449 0.0
C989 C 0.36791 0.28288 0.80059 0.0
C990 C 0.39729 0.27124 0.84025 0.0
C991 C 0.44929 0.2624 0.83887 0.0
C992 C 0.4293 0.26431 0.83318 0.0
C993 C 0.37187 0.27305 0.81632 0.0
C994 C 0.39166 0.27003 0.82218 0.0
H995 H 0.49325 0.27909 0.82828 0.0
H996 H 0.4606 0.27989 0.81778 0.0
H997 H 0.41986 0.26985 0.85965 0.0
H998 H 0.32692 0.26116 0.82771 0.0
H999 H 0.35926 0.25788 0.83822 0.0
C1000 C 0.0295 0.82773 0.40474 0.0
C1001 C 0.03162 0.81085 0.41453 0.0
C1002 C 0.02858 0.84567 0.41336 0.0
C1003 C 0.01809 0.86862 0.45592 0.0
H1004 H 0.04779 0.91251 0.43842 0.0
C1005 C 0.02861 0.94243 0.49393 0.0
C1006 C 0.02959 0.95927 0.48379 0.0
C1007 C 0.02773 0.92411 0.48563 0.0
C1008 C 0.03917 0.9005 0.44334 0.0
H1009 H 0.03419 0.7996 0.4411 0.0
H1010 H 0.03257 0.83099 0.45613 0.0
H1011 H 0.04846 0.88101 0.42363 0.0
H1012 H 0.0295 0.97011 0.457 0.0
H1013 H 0.02751 0.93829 0.44259 0.0
H1014 H 0.00869 0.88817 0.47558 0.0
C1015 C 0.03154 0.83027 0.44178 0.0
C1016 C 0.03961 0.88243 0.43487 0.0
C1017 C 0.0326 0.81231 0.43315 0.0
C1018 C 0.02897 0.95742 0.46521 0.0
C1019 C 0.02796 0.93916 0.45694 0.0
C1020 C 0.01755 0.88676 0.46435 0.0
C1021 C 0.02963 0.84714 0.43196 0.0
C1022 C 0.02907 0.8663 0.44105 0.0
C1023 C 0.0277 0.92227 0.46703 0.0
C1024 C 0.02807 0.90293 0.45813 0.0
H1025 H 0.02865 0.82713 0.39039 0.0
H1026 H 0.02689 0.85841 0.40545 0.0
H1027 H 0.00967 0.85647 0.46087 0.0
H1028 H 0.0291 0.94339 0.50827 0.0
H1029 H 0.0277 0.91141 0.49381 0.0
C1030 C 0.53167 0.71296 0.73769 0.0
C1031 C 0.53425 0.72604 0.72385 0.0
C1032 C 0.51794 0.71572 0.75005 0.0
C1033 C 0.47639 0.71615 0.75793 0.0
H1034 H 0.46235 0.76462 0.77881 0.0
C1035 C 0.40056 0.73762 0.764 0.0
C1036 C 0.39517 0.74474 0.7805 0.0
C1037 C 0.41926 0.73394 0.76128 0.0
C1038 C 0.46626 0.75092 0.77329 0.0
H1039 H 0.52598 0.75329 0.71317 0.0
H1040 H 0.50219 0.75822 0.73488 0.0
H1041 H 0.49407 0.76222 0.76776 0.0
H1042 H 0.40537 0.75289 0.80729 0.0
H1043 H 0.43825 0.74737 0.80209 0.0
H1044 H 0.44822 0.70526 0.76233 0.0
C1045 C 0.51066 0.74578 0.73612 0.0
C1046 C 0.48431 0.74957 0.76695 0.0
C1047 C 0.5242 0.7429 0.72362 0.0
C1048 C 0.409 0.74783 0.79428 0.0
C1049 C 0.4278 0.74453 0.79141 0.0
C1050 C 0.45829 0.7176 0.76397 0.0
C1051 C 0.50681 0.73175 0.74891 0.0
C1052 C 0.48936 0.73231 0.75881 0.0
C1053 C 0.43304 0.73762 0.77487 0.0
C1054 C 0.45295 0.73514 0.77126 0.0
H1055 H 0.53926 0.69986 0.73824 0.0
H1056 H 0.51529 0.70477 0.75988 0.0
H1057 H 0.47984 0.70274 0.75151 0.0
H1058 H 0.39048 0.73542 0.75294 0.0
H1059 H 0.42307 0.72885 0.74832 0.0
C1060 C 0.55034 0.19763 0.93503 0.0
C1061 C 0.53666 0.20591 0.92417 0.0
C1062 C 0.54681 0.17935 0.94213 0.0
C1063 C 0.51039 0.14525 0.95644 0.0
H1064 H 0.54648 0.10639 0.94871 0.0
C1065 C 0.5149 0.07479 0.99663 0.0
C1066 C 0.51561 0.05755 0.98658 0.0
C1067 C 0.51622 0.09277 0.98844 0.0
C1068 C 0.53626 0.11708 0.9509 0.0
H1069 H 0.50838 0.20173 0.91255 0.0
H1070 H 0.50201 0.16979 0.92551 0.0
H1071 H 0.55104 0.13829 0.93545 0.0
H1072 H 0.51836 0.04561 0.96009 0.0
H1073 H 0.52123 0.0771 0.94588 0.0
H1074 H 0.49592 0.12417 0.97234 0.0
C1075 C 0.51552 0.17749 0.92828 0.0
C1076 C 0.53891 0.1353 0.9434 0.0
C1077 C 0.51919 0.19568 0.92085 0.0
C1078 C 0.51775 0.05865 0.96818 0.0
C1079 C 0.51943 0.07663 0.96006 0.0
C1080 C 0.50794 0.12711 0.96425 0.0
C1081 C 0.52941 0.16909 0.93879 0.0
C1082 C 0.52604 0.14956 0.94615 0.0
C1083 C 0.51864 0.09384 0.9701 0.0
C1084 C 0.52088 0.11289 0.96155 0.0
H1085 H 0.56396 0.20511 0.93778 0.0
H1086 H 0.55768 0.17323 0.95031 0.0
H1087 H 0.50034 0.15606 0.95881 0.0
H1088 H 0.51317 0.0744 0.01081 0.0
H1089 H 0.51572 0.10586 0.99648 0.0
C1090 C 0.11953 0.2514 0.1488 0.0
C1091 C 0.10447 0.25096 0.16029 0.0
C1092 C 0.1372 0.25968 0.15448 0.0
C1093 C 0.16144 0.291 0.18988 0.0
H1094 H 0.20066 0.25469 0.18763 0.0
C1095 C 0.21312 0.2791 0.24677 0.0
C1096 C 0.23097 0.27258 0.24357 0.0
C1097 C 0.2009 0.2832 0.23267 0.0
C1098 C 0.19014 0.26534 0.188 0.0
H1099 H 0.09582 0.25968 0.18637 0.0
H1100 H 0.12642 0.27393 0.19621 0.0
H1101 H 0.17224 0.24918 0.16895 0.0
H1102 H 0.25064 0.26681 0.22314 0.0
H1103 H 0.22917 0.27388 0.19847 0.0
H1104 H 0.17885 0.30645 0.20981 0.0
C1105 C 0.12467 0.26804 0.18281 0.0
C1106 C 0.17383 0.26216 0.17728 0.0
C1107 C 0.10718 0.25961 0.17725 0.0
C1108 C 0.23689 0.27163 0.22603 0.0
C1109 C 0.22461 0.27565 0.2119 0.0
C1110 C 0.17776 0.2942 0.20059 0.0
C1111 C 0.13994 0.26792 0.17161 0.0
C1112 C 0.15892 0.27437 0.17885 0.0
C1113 C 0.20627 0.28082 0.21507 0.0
C1114 C 0.19181 0.28081 0.20044 0.0
H1115 H 0.11781 0.24492 0.13562 0.0
H1116 H 0.14878 0.25937 0.14561 0.0
H1117 H 0.15028 0.30084 0.19107 0.0
H1118 H 0.20821 0.28014 0.26014 0.0
H1119 H 0.1868 0.28695 0.23558 0.0
C1120 C 0.10659 0.96134 0.17214 0.0
C1121 C 0.12583 0.96551 0.17617 0.0
C1122 C 0.10033 0.9561 0.15484 0.0
C1123 C 0.11233 0.96629 0.11005 0.0
H1124 H 0.07302 0.92684 0.097 0.0
C1125 C 0.07496 0.96836 0.04207 0.0
C1126 C 0.05527 0.96615 0.04243 0.0
C1127 C 0.08612 0.96243 0.05635 0.0
C1128 C 0.08396 0.93798 0.10041 0.0
H1129 H 0.15368 0.96661 0.16539 0.0
H1130 H 0.14263 0.95788 0.13514 0.0
H1131 H 0.08755 0.92763 0.12687 0.0
H1132 H 0.03188 0.95466 0.0574 0.0
H1133 H 0.05112 0.94514 0.08246 0.0
H1134 H 0.10798 0.97767 0.08431 0.0
C1135 C 0.13246 0.95858 0.1454 0.0
C1136 C 0.09231 0.93833 0.11748 0.0
C1137 C 0.13875 0.96356 0.16272 0.0
C1138 C 0.04703 0.95661 0.05672 0.0
C1139 C 0.05814 0.951 0.07111 0.0
C1140 C 0.10379 0.96615 0.09312 0.0
C1141 C 0.11317 0.95517 0.14124 0.0
C1142 C 0.10625 0.95279 0.12256 0.0
C1143 C 0.0778 0.95452 0.07143 0.0
C1144 C 0.0891 0.95233 0.08821 0.0
H1145 H 0.09631 0.96261 0.18223 0.0
H1146 H 0.08536 0.95372 0.15194 0.0
H1147 H 0.12292 0.97772 0.11369 0.0
H1148 H 0.08172 0.97543 0.03111 0.0
H1149 H 0.10124 0.96486 0.05588 0.0
C1150 C 0.27172 0.85504 0.49869 0.0
C1151 C 0.28825 0.85596 0.50949 0.0
C1152 C 0.27174 0.84729 0.48143 0.0
C1153 C 0.30192 0.83986 0.44469 0.0
H1154 H 0.26859 0.79519 0.43127 0.0
C1155 C 0.31176 0.79536 0.38075 0.0
C1156 C 0.29566 0.78696 0.37172 0.0
C1157 C 0.31034 0.80436 0.39734 0.0
C1158 C 0.27776 0.80789 0.43461 0.0
H1159 H 0.31779 0.84989 0.51066 0.0
H1160 H 0.31786 0.83686 0.48045 0.0
H1161 H 0.26628 0.81069 0.46032 0.0
H1162 H 0.26543 0.78185 0.37247 0.0
H1163 H 0.26277 0.79818 0.401 0.0
H1164 H 0.31318 0.83752 0.41898 0.0
C1165 C 0.30491 0.84192 0.48538 0.0
C1166 C 0.27644 0.81668 0.45128 0.0
C1167 C 0.3048 0.84925 0.50268 0.0
C1168 C 0.2781 0.78795 0.37936 0.0
C1169 C 0.27662 0.79725 0.39575 0.0
C1170 C 0.30302 0.83131 0.42789 0.0
C1171 C 0.28839 0.84081 0.47465 0.0
C1172 C 0.28867 0.83256 0.45651 0.0
C1173 C 0.29272 0.80547 0.40504 0.0
C1174 C 0.29112 0.81504 0.4227 0.0
H1175 H 0.25879 0.86012 0.50364 0.0
H1176 H 0.25884 0.84654 0.47331 0.0
H1177 H 0.31142 0.8522 0.44846 0.0
H1178 H 0.32545 0.7947 0.37508 0.0
H1179 H 0.32311 0.81021 0.4042 0.0
C1180 C 0.45208 0.04693 0.68133 0.0
C1181 C 0.43303 0.04095 0.67823 0.0
C1182 C 0.46396 0.04974 0.6672 0.0
C1183 C 0.46437 0.05348 0.61795 0.0
H1184 H 0.51307 0.03189 0.62432 0.0
C1185 C 0.51986 0.01475 0.57241 0.0
C1186 C 0.51921 0.02647 0.55742 0.0
C1187 C 0.51225 0.02071 0.58821 0.0
C1188 C 0.49953 0.038 0.62231 0.0
H1189 H 0.41132 0.0339 0.65784 0.0
H1190 H 0.43211 0.03817 0.63321 0.0
H1191 H 0.49302 0.0344 0.64944 0.0
H1192 H 0.51138 0.05429 0.54767 0.0
H1193 H 0.49844 0.06489 0.57544 0.0
H1194 H 0.47037 0.05581 0.59054 0.0
C1195 C 0.43786 0.04113 0.64653 0.0
C1196 C 0.4881 0.03968 0.63679 0.0
C1197 C 0.42593 0.03854 0.66067 0.0
C1198 C 0.51197 0.04486 0.55895 0.0
C1199 C 0.50442 0.05088 0.57482 0.0
C1200 C 0.47575 0.05163 0.60343 0.0
C1201 C 0.45711 0.04642 0.64963 0.0
C1202 C 0.47017 0.04699 0.63471 0.0
C1203 C 0.50393 0.0386 0.58946 0.0
C1204 C 0.49326 0.04339 0.60534 0.0
H1205 H 0.45793 0.04915 0.69472 0.0
H1206 H 0.47859 0.05421 0.67009 0.0
H1207 H 0.45081 0.05951 0.61593 0.0
H1208 H 0.52536 0.0005 0.57171 0.0
H1209 H 0.51197 0.01076 0.59911 0.0
C1210 C 0.31042 0.18334 0.99628 0.0
C1211 C 0.31113 0.16373 0.00059 0.0
C1212 C 0.30907 0.18879 0.97864 0.0
C1213 C 0.31092 0.19849 0.9402 0.0
H1214 H 0.27416 0.167 0.91131 0.0
C1215 C 0.27619 0.20182 0.8657 0.0
C1216 C 0.26982 0.22069 0.86649 0.0
C1217 C 0.28227 0.19282 0.88114 0.0
C1218 C 0.28459 0.17579 0.91918 0.0
H1219 H 0.31243 0.13457 0.98979 0.0
H1220 H 0.31043 0.14418 0.95882 0.0
H1221 H 0.28537 0.15511 0.93986 0.0
H1222 H 0.26346 0.24422 0.88429 0.0
H1223 H 0.27452 0.22869 0.91111 0.0
H1224 H 0.30931 0.2196 0.91991 0.0
C1225 C 0.3105 0.15528 0.96914 0.0
C1226 C 0.29114 0.16896 0.93546 0.0
C1227 C 0.31182 0.1498 0.98687 0.0
C1228 C 0.26868 0.22988 0.88315 0.0
C1229 C 0.27499 0.22102 0.8985 0.0
C1230 C 0.30418 0.2054 0.9241 0.0
C1231 C 0.30851 0.17478 0.96485 0.0
C1232 C 0.30401 0.18048 0.94637 0.0
C1233 C 0.28229 0.20265 0.89757 0.0
C1234 C 0.29062 0.19432 0.91368 0.0
H1235 H 0.30992 0.19444 0.00654 0.0
H1236 H 0.30735 0.20391 0.9759 0.0
H1237 H 0.32115 0.20753 0.94807 0.0
H1238 H 0.27745 0.19439 0.85308 0.0
H1239 H 0.28782 0.1786 0.88015 0.0
C1240 C 0.09088 -0.00028 0.27604 0.0
C1241 C 0.10808 0.99166 0.27274 0.0
C1242 C 0.08548 0.00284 0.29341 0.0
C1243 C 0.10617 0.01165 0.33825 0.0
H1244 H 0.0548 0.00329 0.35277 0.0
C1245 C 0.08512 0.02142 0.41095 0.0
C1246 C 0.06762 0.02895 0.41403 0.0
C1247 C 0.09025 0.01712 0.3937 0.0
C1248 C 0.06916 0.00597 0.34887 0.0
H1249 H 0.13267 0.9797 0.28508 0.0
H1250 H 0.12315 0.98504 0.31542 0.0
H1251 H 0.06286 0.99376 0.32288 0.0
H1252 H 0.0422 0.03874 0.40137 0.0
H1253 H 0.05128 0.03155 0.37123 0.0
H1254 H 0.11247 0.02408 0.36412 0.0
C1255 C 0.11398 0.98918 0.30455 0.0
C1256 C 0.07379 0.00041 0.33176 0.0
C1257 C 0.11934 0.98596 0.28717 0.0
C1258 C 0.05568 0.03274 0.39943 0.0
C1259 C 0.06084 0.02852 0.38217 0.0
C1260 C 0.10154 0.01728 0.35534 0.0
C1261 C 0.09718 -0.00196 0.30786 0.0
C1262 C 0.09234 0.0032 0.32625 0.0
C1263 C 0.07804 0.02031 0.37911 0.0
C1264 C 0.08297 0.01455 0.36085 0.0
H1265 H 0.08188 0.00428 0.26522 0.0
H1266 H 0.0725 0.00979 0.2955 0.0
H1267 H 0.12053 0.01432 0.33431 0.0
H1268 H 0.09451 0.01803 0.42192 0.0
H1269 H 0.1035 0.01062 0.39187 0.0
C1270 C 0.2863 0.837 0.60633 0.0
C1271 C 0.27615 0.85383 0.60619 0.0
C1272 C 0.28636 0.82515 0.62108 0.0
C1273 C 0.26124 0.81165 0.66072 0.0
H1274 H 0.31064 0.80315 0.68138 0.0
C1275 C 0.2723 0.79057 0.73323 0.0
C1276 C 0.28762 0.77978 0.73834 0.0
C1277 C 0.26972 0.7962 0.71573 0.0
C1278 C 0.29672 0.80491 0.67563 0.0
H1279 H 0.25744 0.87095 0.62111 0.0
H1280 H 0.25731 0.84995 0.64685 0.0
H1281 H 0.3079 0.81934 0.65315 0.0
H1282 H 0.31166 0.76549 0.72886 0.0
H1283 H 0.30682 0.7748 0.69805 0.0
H1284 H 0.24997 0.79715 0.68307 0.0
C1285 C 0.26529 0.84608 0.63552 0.0
C1286 C 0.29518 0.81432 0.65949 0.0
C1287 C 0.26544 0.85813 0.62085 0.0
C1288 C 0.29981 0.77393 0.72536 0.0
C1289 C 0.29709 0.77939 0.70773 0.0
C1290 C 0.26276 0.80195 0.67674 0.0
C1291 C 0.27604 0.8297 0.63588 0.0
C1292 C 0.27745 0.81813 0.65209 0.0
C1293 C 0.28224 0.79098 0.70278 0.0
C1294 C 0.28053 0.79889 0.68463 0.0
H1295 H 0.29471 0.83326 0.59526 0.0
H1296 H 0.29467 0.81254 0.62102 0.0
H1297 H 0.24741 0.81422 0.65515 0.0
H1298 H 0.26263 0.79536 0.74289 0.0
H1299 H 0.25832 0.80537 0.71258 0.0
C1300 C 0.42336 0.03233 0.79052 0.0
C1301 C 0.43505 0.02687 0.77696 0.0
C1302 C 0.42843 0.02915 0.80827 0.0
C1303 C 0.46837 0.01771 0.83835 0.0
H1304 H 0.42979 0.9917 0.86573 0.0
C1305 C 0.48739 0.97996 0.90285 0.0
C1306 C 0.47634 0.98362 0.91742 0.0
C1307 C 0.48149 0.98504 0.88582 0.0
C1308 C 0.44067 -0.00088 0.85832 0.0
H1309 H 0.46171 0.01493 0.77138 0.0
H1310 H 0.47054 0.0095 0.8022 0.0
H1311 H 0.4217 0.00341 0.83627 0.0
H1312 H 0.45006 0.99465 0.92544 0.0
H1313 H 0.43971 0.00344 0.89566 0.0
H1314 H 0.48738 0.0133 0.86028 0.0
C1315 C 0.45748 0.01622 0.79922 0.0
C1316 C 0.43602 0.00591 0.84149 0.0
C1317 C 0.45238 0.01927 0.78153 0.0
C1318 C 0.45877 0.99143 0.91445 0.0
C1319 C 0.45288 0.99654 0.89739 0.0
C1320 C 0.47301 0.01093 0.85515 0.0
C1321 C 0.44534 0.02063 0.81275 0.0
C1322 C 0.44988 0.01509 0.83125 0.0
C1323 C 0.46444 0.99393 0.88298 0.0
C1324 C 0.45927 0.00134 0.86524 0.0
H1325 H 0.4099 0.03819 0.7874 0.0
H1326 H 0.41892 0.03294 0.81845 0.0
H1327 H 0.4793 0.02496 0.83089 0.0
H1328 H 0.50089 0.97373 0.90471 0.0
H1329 H 0.4905 0.9824 0.87491 0.0
C1330 C 0.34386 0.16943 0.09533 0.0
C1331 C 0.33038 0.15425 0.09822 0.0
C1332 C 0.35402 0.17866 0.10962 0.0
C1333 C 0.3588 0.20562 0.14156 0.0
H1334 H 0.36227 0.18117 0.1872 0.0
C1335 C 0.33054 0.23901 0.20219 0.0
C1336 C 0.33537 0.23274 0.21923 0.0
C1337 C 0.33974 0.23238 0.18753 0.0
C1338 C 0.362 0.18842 0.17462 0.0
H1339 H 0.31779 0.13607 0.1182 0.0
H1340 H 0.33465 0.15256 0.14301 0.0
H1341 H 0.36157 0.1614 0.16037 0.0
H1342 H 0.35495 0.21632 0.23456 0.0
H1343 H 0.37136 0.20493 0.20888 0.0
H1344 H 0.35922 0.23263 0.15582 0.0
C1345 C 0.33794 0.15714 0.12979 0.0
C1346 C 0.36126 0.17696 0.15916 0.0
C1347 C 0.32802 0.14777 0.11553 0.0
C1348 C 0.35072 0.22108 0.2215 0.0
C1349 C 0.3601 0.21456 0.20679 0.0
C1350 C 0.36001 0.21712 0.15701 0.0
C1351 C 0.3507 0.17307 0.1271 0.0
C1352 C 0.3581 0.18529 0.14255 0.0
C1353 C 0.35411 0.21939 0.18954 0.0
C1354 C 0.36005 0.20851 0.17373 0.0
H1355 H 0.34623 0.17452 0.08207 0.0
H1356 H 0.36398 0.19061 0.10699 0.0
H1357 H 0.35664 0.21269 0.12905 0.0
H1358 H 0.31867 0.24784 0.19997 0.0
H1359 H 0.33442 0.23624 0.17454 0.0
C1360 C 0.22478 0.12685 0.06061 0.0
C1361 C 0.23824 0.13677 0.0505 0.0
C1362 C 0.20605 0.12463 0.05444 0.0
C1363 C 0.18163 0.11277 0.01499 0.0
H1364 H 0.13576 0.12489 0.03759 0.0
C1365 C 0.11087 0.07455 0.99172 0.0
C1366 C 0.09879 0.06922 0.00523 0.0
C1367 C 0.12634 0.08764 0.99535 0.0
C1368 C 0.14843 0.12122 0.03117 0.0
H1369 H 0.24254 0.15313 0.02657 0.0
H1370 H 0.20986 0.14852 0.01553 0.0
H1371 H 0.16588 0.1399 0.04886 0.0
H1372 H 0.09312 0.07305 0.03298 0.0
H1373 H 0.12051 0.09484 0.03965 0.0
H1374 H 0.16483 0.09279 -0.00162 0.0
C1375 C 0.21381 0.14287 0.02834 0.0
C1376 C 0.16558 0.13002 0.03752 0.0
C1377 C 0.23244 0.14549 0.03469 0.0
C1378 C 0.10222 0.07717 0.02233 0.0
C1379 C 0.11784 0.08985 0.02607 0.0
C1380 C 0.16458 0.10359 0.00892 0.0
C1381 C 0.20065 0.13197 0.03795 0.0
C1382 C 0.18229 0.12552 0.02968 0.0
C1383 C 0.13021 0.0952 0.01268 0.0
C1384 C 0.1478 0.10727 0.01725 0.0
H1385 H 0.22888 0.12002 0.07284 0.0
H1386 H 0.19606 0.11602 0.06195 0.0
H1387 H 0.19447 0.10897 0.00891 0.0
H1388 H 0.10832 0.06862 0.9784 0.0
H1389 H 0.13533 0.09164 0.98462 0.0
C1390 C 0.72113 0.44183 0.06651 0.0
C1391 C 0.73088 0.43126 0.05417 0.0
C1392 C 0.70544 0.45164 0.06114 0.0
C1393 C 0.66947 0.45377 0.02448 0.0
H1394 H 0.65854 0.50107 0.04949 0.0
C1395 C 0.60547 0.49884 0.00668 0.0
C1396 C 0.59379 0.50123 0.02104 0.0
C1397 C 0.6234 0.49199 0.00941 0.0
C1398 C 0.66148 0.48791 0.04238 0.0
H1399 H 0.73202 0.42285 0.02646 0.0
H1400 H 0.70492 0.44056 0.01689 0.0
H1401 H 0.68797 0.48603 0.05621 0.0
H1402 H 0.59188 0.49907 0.04954 0.0
H1403 H 0.62342 0.48766 0.05434 0.0
H1404 H 0.64295 0.45599 0.0105 0.0
C1405 C 0.70911 0.44089 0.03083 0.0
C1406 C 0.67826 0.47917 0.04629 0.0
C1407 C 0.7247 0.4308 0.03628 0.0
C1408 C 0.60058 0.49732 0.03823 0.0
C1409 C 0.61862 0.49087 0.04099 0.0
C1410 C 0.65283 0.46272 0.02035 0.0
C1411 C 0.69924 0.45141 0.04321 0.0
C1412 C 0.68227 0.46172 0.03772 0.0
C1413 C 0.63006 0.48787 0.02658 0.0
C1414 C 0.64854 0.47962 0.02954 0.0
H1415 H 0.72544 0.44231 0.08043 0.0
H1416 H 0.69798 0.45911 0.07116 0.0
H1417 H 0.67192 0.44025 0.01774 0.0
H1418 H 0.60055 0.50167 0.99328 0.0
H1419 H 0.63202 0.48981 -0.00188 0.0
C1420 C 0.84919 0.45168 0.2185 0.0
C1421 C 0.86891 0.45351 0.21802 0.0
C1422 C 0.84012 0.43448 0.22402 0.0
C1423 C 0.84605 0.38271 0.23172 0.0
H1424 H 0.8116 0.3893 0.26962 0.0
C1425 C 0.82097 0.31826 0.27319 0.0
C1426 C 0.80186 0.31671 0.27717 0.0
C1427 C 0.82889 0.3353 0.26625 0.0
C1428 C 0.82098 0.38717 0.2589 0.0
H1429 H 0.89447 0.43831 0.22174 0.0
H1430 H 0.87862 0.40824 0.23112 0.0
H1431 H 0.825 0.41769 0.25484 0.0
H1432 H 0.77624 0.33208 0.27767 0.0
H1433 H 0.78997 0.36171 0.26528 0.0
H1434 H 0.842 0.35225 0.23562 0.0
C1435 C 0.87019 0.42013 0.22736 0.0
C1436 C 0.82862 0.40344 0.25042 0.0
C1437 C 0.87926 0.43738 0.22204 0.0
C1438 C 0.79104 0.33287 0.27485 0.0
C1439 C 0.79893 0.34987 0.26774 0.0
C1440 C 0.8383 0.36644 0.24009 0.0
C1441 C 0.85059 0.41872 0.22892 0.0
C1442 C 0.84137 0.40137 0.23686 0.0
C1443 C 0.81784 0.35111 0.26295 0.0
C1444 C 0.82584 0.36848 0.25393 0.0
H1445 H 0.84081 0.46385 0.2155 0.0
H1446 H 0.82496 0.43366 0.22491 0.0
H1447 H 0.85571 0.38071 0.2212 0.0
H1448 H 0.82971 0.3061 0.27495 0.0
H1449 H 0.84363 0.33594 0.26316 0.0
C1450 C 0.80902 0.55053 0.56645 0.0
C1451 C 0.80402 0.56503 0.55466 0.0
C1452 C 0.82256 0.53774 0.56198 0.0
C1453 C 0.85138 0.51894 0.52713 0.0
H1454 H 0.89298 0.53062 0.56098 0.0
C1455 C 0.92811 0.50973 0.50949 0.0
C1456 C 0.94153 0.50652 0.52301 0.0
C1457 C 0.90953 0.51257 0.51355 0.0
C1458 C 0.88149 0.52663 0.55158 0.0
H1459 H 0.80758 0.57605 0.52822 0.0
H1460 H 0.83112 0.55345 0.52036 0.0
H1461 H 0.86216 0.54132 0.56716 0.0
H1462 H 0.94603 0.50263 0.5512 0.0
H1463 H 0.91341 0.50652 0.55828 0.0
H1464 H 0.87067 0.50416 0.51153 0.0
C1465 C 0.82467 0.55215 0.53308 0.0
C1466 C 0.86379 0.53287 0.55514 0.0
C1467 C 0.81128 0.56514 0.53762 0.0
C1468 C 0.93596 0.50543 0.54058 0.0
C1469 C 0.91727 0.50775 0.5446 0.0
C1470 C 0.86905 0.51228 0.52372 0.0
C1471 C 0.83108 0.53904 0.54558 0.0
C1472 C 0.84871 0.52949 0.54278 0.0
C1473 C 0.90387 0.51178 0.53119 0.0
C1474 C 0.88449 0.51652 0.53569 0.0
H1475 H 0.80357 0.54997 0.57964 0.0
H1476 H 0.82724 0.52763 0.57177 0.0
H1477 H 0.83989 0.51618 0.51743 0.0
H1478 H 0.9321 0.51067 0.49581 0.0
H1479 H 0.89982 0.51601 0.50286 0.0
C1480 C 0.18728 0.04771 0.23652 0.0
C1481 C 0.16872 0.04483 0.2296 0.0
C1482 C 0.19498 0.06635 0.24055 0.0
C1483 C 0.19203 0.11733 0.23083 0.0
H1484 H 0.21468 0.12598 0.27811 0.0
C1485 C 0.23997 0.18484 0.25231 0.0
C1486 C 0.23602 0.19382 0.26848 0.0
C1487 C 0.23069 0.16719 0.24706 0.0
C1488 C 0.20831 0.12378 0.26491 0.0
H1489 H 0.14391 0.05926 0.22085 0.0
H1490 H 0.15763 0.09201 0.22764 0.0
H1491 H 0.20065 0.09391 0.2694 0.0
H1492 H 0.21926 0.19144 0.29182 0.0
H1493 H 0.20332 0.16034 0.28276 0.0
H1494 H 0.20002 0.14717 0.22627 0.0
C1495 C 0.16606 0.07974 0.23004 0.0
C1496 C 0.20043 0.10545 0.2599 0.0
C1497 C 0.15823 0.06103 0.22622 0.0
C1498 C 0.2226 0.18485 0.27929 0.0
C1499 C 0.21352 0.16706 0.27415 0.0
C1500 C 0.20018 0.13562 0.23576 0.0
C1501 C 0.18438 0.08249 0.23754 0.0
C1502 C 0.1923 0.10206 0.24281 0.0
C1503 C 0.2175 0.15809 0.258 0.0
C1504 C 0.2084 0.13896 0.25284 0.0
H1505 H 0.19574 0.03555 0.23929 0.0
H1506 H 0.20922 0.06816 0.24616 0.0
H1507 H 0.18587 0.115 0.21756 0.0
H1508 H 0.25019 0.19146 0.24367 0.0
H1509 H 0.2341 0.16045 0.23461 0.0
C1510 C 0.33158 0.94776 0.56108 0.0
C1511 C 0.33172 0.92782 0.56428 0.0
C1512 C 0.34826 0.95828 0.55706 0.0
C1513 C 0.39999 0.9564 0.55908 0.0
H1514 H 0.39862 0.98214 0.51387 0.0
C1515 C 0.46557 0.96586 0.51902 0.0
C1516 C 0.47002 0.98415 0.51197 0.0
C1517 C 0.44798 0.96161 0.52589 0.0
C1518 C 0.39918 0.97528 0.52664 0.0
H1519 H 0.34934 0.90349 0.56693 0.0
H1520 H 0.37829 0.92177 0.56032 0.0
H1521 H 0.36915 0.97125 0.52724 0.0
H1522 H 0.4591 0.01193 0.50565 0.0
H1523 H 0.42815 0.00435 0.51762 0.0
H1524 H 0.42992 0.95979 0.55828 0.0
C1525 C 0.36545 0.92934 0.56077 0.0
C1526 C 0.38234 0.96914 0.53433 0.0
C1527 C 0.34885 0.91884 0.56446 0.0
C1528 C 0.45608 -0.00231 0.51097 0.0
C1529 C 0.43839 0.9934 0.51786 0.0
C1530 C 0.41674 0.9625 0.55143 0.0
C1531 C 0.36528 0.94903 0.55659 0.0
C1532 C 0.38264 0.95906 0.55033 0.0
C1533 C 0.43442 0.97553 0.5259 0.0
C1534 C 0.41653 0.97138 0.53484 0.0
H1535 H 0.3185 0.95496 0.56076 0.0
H1536 H 0.34779 0.97347 0.55393 0.0
H1537 H 0.4006 0.94893 0.57155 0.0
H1538 H 0.47592 0.95503 0.51986 0.0
H1539 H 0.44512 0.94752 0.53158 0.0
C1540 C 0.8553 0.56216 0.24178 0.0
C1541 C 0.85456 0.55659 0.22378 0.0
C1542 C 0.84532 0.57771 0.24763 0.0
C1543 C 0.8072 0.60954 0.23328 0.0
H1544 H 0.82964 0.64373 0.2706 0.0
C1545 C 0.78649 0.68791 0.24687 0.0
C1546 C 0.78356 0.69306 0.2646 0.0
C1547 C 0.79323 0.66992 0.24261 0.0
C1548 C 0.82313 0.63417 0.2603 0.0
H1549 H 0.84301 0.56304 0.19773 0.0
H1550 H 0.82633 0.59059 0.2077 0.0
H1551 H 0.84561 0.61513 0.26174 0.0
H1552 H 0.78509 0.68334 0.29174 0.0
H1553 H 0.79737 0.65202 0.28427 0.0
H1554 H 0.78519 0.6293 0.23136 0.0
C1555 C 0.83402 0.58263 0.2175 0.0
C1556 C 0.83222 0.61771 0.25524 0.0
C1557 C 0.84373 0.5669 0.21173 0.0
C1558 C 0.78715 0.67973 0.27795 0.0
C1559 C 0.79425 0.66188 0.27372 0.0
C1560 C 0.7983 0.62618 0.23813 0.0
C1561 C 0.83461 0.58823 0.23553 0.0
C1562 C 0.82446 0.60524 0.24155 0.0
C1563 C 0.7975 0.65692 0.25603 0.0
C1564 C 0.80625 0.63868 0.25161 0.0
H1565 H 0.86343 0.55436 0.2514 0.0
H1566 H 0.84589 0.58135 0.26165 0.0
H1567 H 0.80054 0.60008 0.22298 0.0
H1568 H 0.7838 0.69789 0.23631 0.0
H1569 H 0.79575 0.66644 0.22889 0.0
C1570 C 0.69122 0.44979 0.75701 0.0
C1571 C 0.69882 0.46299 0.7449 0.0
C1572 C 0.70085 0.43351 0.76174 0.0
C1573 C 0.74715 0.41221 0.76142 0.0
H1574 H 0.71758 0.36327 0.7572 0.0
C1575 C 0.7584 0.32552 0.75226 0.0
C1576 C 0.77132 0.32256 0.76632 0.0
C1577 C 0.75026 0.34329 0.75059 0.0
C1578 C 0.72602 0.37683 0.75837 0.0
H1579 H 0.72288 0.47006 0.72895 0.0
H1580 H 0.73966 0.44174 0.73724 0.0
H1581 H 0.7021 0.39356 0.75379 0.0
H1582 H 0.78632 0.33613 0.78932 0.0
H1583 H 0.77217 0.36724 0.78626 0.0
H1584 H 0.77114 0.39538 0.76568 0.0
C1585 C 0.72629 0.44394 0.74309 0.0
C1586 C 0.71713 0.39416 0.75665 0.0
C1587 C 0.71662 0.4601 0.73826 0.0
C1588 C 0.77639 0.33795 0.77834 0.0
C1589 C 0.76834 0.35578 0.77657 0.0
C1590 C 0.75603 0.39485 0.76329 0.0
C1591 C 0.71833 0.43026 0.75456 0.0
C1592 C 0.72763 0.41203 0.75795 0.0
C1593 C 0.75496 0.3585 0.76286 0.0
C1594 C 0.74557 0.37698 0.76154 0.0
H1595 H 0.67755 0.45165 0.76237 0.0
H1596 H 0.69449 0.42328 0.77076 0.0
H1597 H 0.75557 0.42579 0.76257 0.0
H1598 H 0.75422 0.31397 0.74277 0.0
H1599 H 0.74019 0.3451 0.73972 0.0
C1600 C 0.99373 0.86734 0.85603 0.0
C1601 C 0.98326 0.85432 0.86646 0.0
C1602 C 0.99692 0.88675 0.86147 0.0
C1603 C 0.01553 0.9165 0.8884 0.0
H1604 H 0.97994 0.94477 0.91463 0.0
C1605 C 0.01253 0.94926 0.96048 0.0
C1606 C 0.02405 0.96646 0.96209 0.0
C1607 C 0.0082 0.94066 0.94396 0.0
C1608 C 0.99002 0.93736 0.90701 0.0
H1609 H 0.96635 0.85162 0.88961 0.0
H1610 H 0.9715 0.88545 0.89888 0.0
H1611 H 0.96839 0.92075 0.89205 0.0
H1612 H 0.0411 0.98745 0.9477 0.0
H1613 H 0.03385 0.97173 0.91846 0.0
H1614 H 0.03708 0.93204 0.90454 0.0
C1615 C 0.9774 0.88077 0.88661 0.0
C1616 C 0.98343 0.92363 0.89415 0.0
C1617 C 0.97453 0.86136 0.88139 0.0
C1618 C 0.0322 0.97418 0.94685 0.0
C1619 C 0.02797 0.96535 0.93017 0.0
C1620 C 0.02214 0.9303 0.90129 0.0
C1621 C 0.9893 0.89345 0.87716 0.0
C1622 C 0.99608 0.91221 0.88556 0.0
C1623 C 0.01542 0.94891 0.92865 0.0
C1624 C 0.00934 0.93992 0.91138 0.0
H1625 H 0.00067 0.86222 0.84448 0.0
H1626 H 0.00612 0.89625 0.85397 0.0
H1627 H 0.0256 0.90783 0.88202 0.0
H1628 H 0.00617 0.9428 0.97195 0.0
H1629 H -0.00116 0.92769 0.94309 0.0
C1630 C 0.97193 0.27258 0.68192 0.0
C1631 C 0.97955 0.25432 0.68298 0.0
C1632 C 0.95548 0.27631 0.69067 0.0
C1633 C 0.91313 0.25143 0.70765 0.0
H1634 H 0.90861 0.29838 0.73574 0.0
C1635 C 0.84229 0.27091 0.7341 0.0
C1636 C 0.84199 0.27586 0.75224 0.0
C1637 C 0.85929 0.27006 0.72564 0.0
C1638 C 0.90971 0.2852 0.72797 0.0
H1639 H 0.97586 0.22569 0.69407 0.0
H1640 H 0.94715 0.2321 0.70906 0.0
H1641 H 0.93803 0.29315 0.72098 0.0
H1642 H 0.8594 0.28475 0.7755 0.0
H1643 H 0.88928 0.28338 0.76056 0.0
H1644 H 0.88496 0.24339 0.71457 0.0
C1645 C 0.95386 0.24354 0.70148 0.0
C1646 C 0.92647 0.28228 0.71942 0.0
C1647 C 0.97036 0.2399 0.69293 0.0
C1648 C 0.85914 0.28086 0.76152 0.0
C1649 C 0.87623 0.28012 0.75297 0.0
C1650 C 0.89638 0.25444 0.716 0.0
C1651 C 0.9462 0.26176 0.70044 0.0
C1652 C 0.92837 0.2653 0.70924 0.0
C1653 C 0.87647 0.27424 0.73504 0.0
C1654 C 0.89446 0.27134 0.72626 0.0
H1655 H 0.97871 0.28403 0.67441 0.0
H1656 H 0.94983 0.29044 0.68952 0.0
H1657 H 0.9141 0.23828 0.6998 0.0
H1658 H 0.82938 0.26712 0.72645 0.0
H1659 H 0.85899 0.26582 0.71174 0.0
C1660 C 0.52423 0.21653 0.37717 0.0
C1661 C 0.52263 0.23346 0.38749 0.0
C1662 C 0.52613 0.19873 0.38528 0.0
C1663 C 0.53664 0.1637 0.4073 0.0
H1664 H 0.50043 0.1547 0.44381 0.0
C1665 C 0.53614 0.09854 0.45407 0.0
C1666 C 0.51857 0.08943 0.45762 0.0
C1667 C 0.53727 0.11537 0.44419 0.0
C1668 C 0.5105 0.15695 0.43355 0.0
H1669 H 0.52339 0.24522 0.41441 0.0
H1670 H 0.52674 0.21418 0.42848 0.0
H1671 H 0.50292 0.18602 0.42957 0.0
H1672 H 0.48843 0.0904 0.45328 0.0
H1673 H 0.49038 0.12002 0.43601 0.0
H1674 H 0.54415 0.13451 0.41134 0.0
C1675 C 0.52618 0.21466 0.41413 0.0
C1676 C 0.51211 0.17494 0.42557 0.0
C1677 C 0.52436 0.23243 0.40605 0.0
C1678 C 0.50214 0.09716 0.45072 0.0
C1679 C 0.50326 0.11412 0.44096 0.0
C1680 C 0.53514 0.1457 0.41542 0.0
C1681 C 0.5264 0.19756 0.40383 0.0
C1682 C 0.52522 0.17852 0.41243 0.0
C1683 C 0.52083 0.12348 0.43777 0.0
C1684 C 0.52204 0.14219 0.42861 0.0
H1685 H 0.52303 0.21684 0.36283 0.0
H1686 H 0.52628 0.18574 0.37704 0.0
H1687 H 0.54684 0.16611 0.39718 0.0
H1688 H 0.54904 0.0927 0.45904 0.0
H1689 H 0.55098 0.12235 0.44203 0.0
C1690 C 0.59023 0.76693 0.1797 0.0
C1691 C 0.57274 0.7608 0.18632 0.0
C1692 C 0.60684 0.76469 0.18967 0.0
C1693 C 0.62715 0.75763 0.23428 0.0
H1694 H 0.66575 0.73286 0.20888 0.0
C1695 C 0.69818 0.73866 0.26835 0.0
C1696 C 0.71416 0.74299 0.25847 0.0
C1697 C 0.68009 0.73931 0.26043 0.0
C1698 C 0.65521 0.73994 0.21616 0.0
H1699 H 0.55895 0.74855 0.20905 0.0
H1700 H 0.58804 0.74496 0.22655 0.0
H1701 H 0.63602 0.73871 0.19364 0.0
H1702 H 0.72365 0.75108 0.23247 0.0
H1703 H 0.69253 0.75251 0.21897 0.0
H1704 H 0.64661 0.75936 0.2567 0.0
C1705 C 0.58883 0.75132 0.21358 0.0
C1706 C 0.63818 0.7433 0.2074 0.0
C1707 C 0.5722 0.75335 0.20353 0.0
C1708 C 0.71169 0.74759 0.24051 0.0
C1709 C 0.69376 0.74828 0.23268 0.0
C1710 C 0.64434 0.75446 0.24303 0.0
C1711 C 0.60633 0.7565 0.20655 0.0
C1712 C 0.62408 0.75243 0.21627 0.0
C1713 C 0.6777 0.74425 0.24251 0.0
C1714 C 0.65871 0.74587 0.23397 0.0
H1715 H 0.59118 0.77275 0.16652 0.0
H1716 H 0.62015 0.76906 0.18404 0.0
H1717 H 0.61648 0.76468 0.24143 0.0
H1718 H 0.69962 0.7351 0.28222 0.0
H1719 H 0.66801 0.73596 0.26834 0.0
C1720 C 0.04005 0.21169 0.59553 0.0
C1721 C 0.03309 0.20888 0.61254 0.0
C1722 C 0.04123 0.19601 0.58372 0.0
C1723 C 0.02372 0.1447 0.57577 0.0
H1724 H 0.06799 0.14178 0.5477 0.0
C1725 C 0.04493 0.07315 0.54665 0.0
C1726 C 0.04828 0.07222 0.52841 0.0
C1727 C 0.04343 0.09089 0.55531 0.0
C1728 C 0.05546 0.14255 0.5553 0.0
H1729 H 0.02181 0.18733 0.63041 0.0
H1730 H 0.02422 0.15999 0.61005 0.0
H1731 H 0.06407 0.17072 0.56604 0.0
H1732 H 0.05366 0.08939 0.5052 0.0
H1733 H 0.05136 0.12077 0.52067 0.0
H1734 H 0.01549 0.11626 0.56554 0.0
C1735 C 0.02842 0.17436 0.60563 0.0
C1736 C 0.05316 0.15912 0.56578 0.0
C1737 C 0.02712 0.19005 0.61739 0.0
C1738 C 0.05107 0.08962 0.51924 0.0
C1739 C 0.04972 0.10754 0.52806 0.0
C1740 C 0.02612 0.12814 0.56546 0.0
C1741 C 0.03556 0.17712 0.58867 0.0
C1742 C 0.03741 0.16024 0.57641 0.0
C1743 C 0.04538 0.10824 0.54607 0.0
C1744 C 0.04216 0.12674 0.55539 0.0
H1745 H 0.04468 0.22603 0.59131 0.0
H1746 H 0.04653 0.19874 0.5707 0.0
H1747 H 0.01119 0.14523 0.58339 0.0
H1748 H 0.04291 0.0601 0.55423 0.0
H1749 H 0.04045 0.09103 0.56928 0.0
C1750 C 0.54527 0.32247 0.33055 0.0
C1751 C 0.53783 0.30443 0.32377 0.0
C1752 C 0.56236 0.33048 0.32474 0.0
C1753 C 0.60045 0.32224 0.29292 0.0
H1754 H 0.63293 0.3382 0.33358 0.0
C1755 C 0.67977 0.31 0.31915 0.0
C1756 C 0.68866 0.31077 0.30295 0.0
C1757 C 0.66174 0.31661 0.32051 0.0
C1758 C 0.62409 0.33377 0.32206 0.0
H1759 H 0.54151 0.28147 0.30451 0.0
H1760 H 0.57145 0.29492 0.29484 0.0
H1761 H 0.59915 0.33584 0.3365 0.0
H1762 H 0.68671 0.32043 0.27589 0.0
H1763 H 0.65556 0.33286 0.27839 0.0
H1764 H 0.62539 0.31826 0.27899 0.0
C1765 C 0.56411 0.30322 0.30438 0.0
C1766 C 0.60461 0.33273 0.32363 0.0
C1767 C 0.54692 0.29538 0.31001 0.0
C1768 C 0.67994 0.31955 0.28848 0.0
C1769 C 0.66207 0.32652 0.2899 0.0
C1770 C 0.61993 0.32293 0.29144 0.0
C1771 C 0.57246 0.32045 0.31223 0.0
C1772 C 0.59256 0.32611 0.30929 0.0
C1773 C 0.65241 0.32441 0.30572 0.0
C1774 C 0.63202 0.32788 0.30622 0.0
H1775 H 0.53841 0.32992 0.34102 0.0
H1776 H 0.56811 0.34402 0.33073 0.0
H1777 H 0.5916 0.31759 0.28146 0.0
H1778 H 0.68625 0.30316 0.33043 0.0
H1779 H 0.65474 0.31444 0.33284 0.0
C1780 C 0.5053 0.81978 0.11519 0.0
C1781 C 0.52271 0.81144 0.11394 0.0
C1782 C 0.50085 0.83532 0.10448 0.0
C1783 C 0.50036 0.87538 0.08821 0.0
H1784 H 0.5176 0.87736 0.04013 0.0
C1785 C 0.50855 0.94655 0.05075 0.0
C1786 C 0.50446 0.94666 0.03238 0.0
C1787 C 0.5081 0.92921 0.05989 0.0
C1788 C 0.51243 0.87694 0.05342 0.0
H1789 H 0.54915 0.81301 0.10057 0.0
H1790 H 0.54158 0.84019 0.08227 0.0
H1791 H 0.52163 0.8484 0.05744 0.0
H1792 H 0.49635 0.92857 0.00927 0.0
H1793 H 0.49548 0.89808 0.02535 0.0
H1794 H 0.49112 0.90389 0.08419 0.0
C1795 C 0.53116 0.83453 0.0912 0.0
C1796 C 0.51497 0.86043 0.06345 0.0
C1797 C 0.53558 0.81903 0.10185 0.0
C1798 C 0.49961 0.92897 0.0234 0.0
C1799 C 0.49919 0.91151 0.0326 0.0
C1800 C 0.4978 0.89187 0.07818 0.0
C1801 C 0.51372 0.84284 0.09231 0.0
C1802 C 0.50935 0.85961 0.0811 0.0
C1803 C 0.50352 0.91145 0.05096 0.0
C1804 C 0.50418 0.89303 0.0608 0.0
H1805 H 0.49503 0.81419 0.12431 0.0
H1806 H 0.48723 0.84129 0.10559 0.0
H1807 H 0.49592 0.8753 0.10177 0.0
H1808 H 0.51235 0.95989 0.05814 0.0
H1809 H 0.51185 0.92972 0.07394 0.0
C1810 C 0.93179 0.76007 0.84874 0.0
C1811 C 0.94066 0.76887 0.83436 0.0
C1812 C 0.91334 0.75212 0.8468 0.0
C1813 C 0.87075 0.75203 0.84176 0.0
H1814 H 0.85127 0.72831 0.7974 0.0
C1815 C 0.79848 0.76414 0.81098 0.0
C1816 C 0.79113 0.75134 0.79751 0.0
C1817 C 0.81479 0.75992 0.82064 0.0
C1818 C 0.85635 0.73442 0.81012 0.0
H1819 H 0.93748 0.77547 0.8065 0.0
H1820 H 0.90523 0.76181 0.80312 0.0
H1821 H 0.88493 0.73232 0.80312 0.0
H1822 H 0.79304 0.72306 0.78518 0.0
H1823 H 0.82084 0.71513 0.80273 0.0
H1824 H 0.8421 0.75453 0.84857 0.0
C1825 C 0.91258 0.76084 0.81587 0.0
C1826 C 0.87573 0.737 0.81325 0.0
C1827 C 0.93103 0.76879 0.81781 0.0
C1828 C 0.79864 0.73318 0.79547 0.0
C1829 C 0.81465 0.72877 0.80538 0.0
C1830 C 0.8513 0.74936 0.83867 0.0
C1831 C 0.90341 0.75277 0.83043 0.0
C1832 C 0.88313 0.74657 0.82874 0.0
C1833 C 0.82374 0.74272 0.81707 0.0
C1834 C 0.84387 0.74125 0.82248 0.0
H1835 H 0.9389 0.75977 0.86166 0.0
H1836 H 0.90672 0.7458 0.85819 0.0
H1837 H 0.87602 0.75946 0.85386 0.0
H1838 H 0.79295 0.77829 0.81264 0.0
H1839 H 0.82136 0.77104 0.82951 0.0
C1840 C 0.93827 0.04358 0.84092 0.0
C1841 C 0.95015 0.03107 0.83249 0.0
C1842 C 0.94177 0.04919 0.8587 0.0
C1843 C 0.9782 0.05076 0.89511 0.0
H1844 H 0.93622 0.04131 0.92564 0.0
C1845 C 0.99244 0.04728 0.96925 0.0
C1846 C 0.98501 0.0299 0.97627 0.0
C1847 C 0.98521 0.05397 0.95321 0.0
C1848 C 0.94805 0.04419 0.9173 0.0
H1849 H 0.97548 0.01544 0.83577 0.0
H1850 H 0.98159 0.02523 0.86665 0.0
H1851 H 0.93076 0.0406 0.8935 0.0
H1852 H 0.9629 0.00702 0.973 0.0
H1853 H 0.95055 0.0184 0.94488 0.0
H1854 H 0.9957 0.05306 0.91867 0.0
C1855 C 0.96962 0.03078 0.85957 0.0
C1856 C 0.9449 0.04395 0.89889 0.0
C1857 C 0.96605 0.02506 0.8419 0.0
C1858 C 0.96896 0.02044 0.96791 0.0
C1859 C 0.96184 0.02703 0.95177 0.0
C1860 C 0.98134 0.05101 0.91345 0.0
C1861 C 0.95732 0.04258 0.86828 0.0
C1862 C 0.96006 0.04653 0.88761 0.0
C1863 C 0.97053 0.04329 0.94379 0.0
C1864 C 0.9664 0.04705 0.92476 0.0
H1865 H 0.92589 0.04847 0.83401 0.0
H1866 H 0.93214 0.05841 0.86504 0.0
H1867 H 0.99011 0.05306 0.88675 0.0
H1868 H 0.00465 0.05505 0.97554 0.0
H1869 H 0.99191 0.06682 0.94763 0.0
C1870 C 0.78666 0.13899 0.57137 0.0
C1871 C 0.78215 0.14823 0.55548 0.0
C1872 C 0.78431 0.14818 0.5877 0.0
C1873 C 0.75841 0.18686 0.60828 0.0
H1874 H 0.79507 0.18265 0.64707 0.0
C1875 C 0.75921 0.23259 0.67342 0.0
C1876 C 0.76352 0.2231 0.68923 0.0
C1877 C 0.76029 0.22305 0.65704 0.0
C1878 C 0.78459 0.18376 0.63642 0.0
H1879 H 0.77211 0.17458 0.54429 0.0
H1880 H 0.76837 0.19069 0.57275 0.0
H1881 H 0.80012 0.16718 0.61854 0.0
H1882 H 0.77193 0.19604 0.70026 0.0
H1883 H 0.77347 0.17934 0.67174 0.0
H1884 H 0.74301 0.20364 0.62619 0.0
C1885 C 0.77335 0.1762 0.5726 0.0
C1886 C 0.78749 0.17491 0.62008 0.0
C1887 C 0.77564 0.16701 0.55628 0.0
C1888 C 0.76831 0.20369 0.68835 0.0
C1889 C 0.76944 0.1942 0.672 0.0
C1890 C 0.75555 0.19579 0.62462 0.0
C1891 C 0.77747 0.16681 0.58849 0.0
C1892 C 0.77443 0.17634 0.60583 0.0
C1893 C 0.7658 0.20388 0.65618 0.0
C1894 C 0.7686 0.19428 0.63886 0.0
H1895 H 0.79163 0.1245 0.57123 0.0
H1896 H 0.78743 0.14047 0.59971 0.0
H1897 H 0.74794 0.18798 0.59764 0.0
H1898 H 0.75535 0.2475 0.67371 0.0
H1899 H 0.75747 0.2309 0.64505 0.0
C1900 C 0.61031 0.96996 0.33795 0.0
C1901 C 0.60376 0.98541 0.32809 0.0
C1902 C 0.60042 0.96301 0.35243 0.0
C1903 C 0.55442 0.96444 0.37399 0.0
H1904 H 0.58429 0.96159 0.41774 0.0
C1905 C 0.52781 0.98384 0.44197 0.0
C1906 C 0.5345 0.97458 0.45714 0.0
C1907 C 0.53393 0.97889 0.42526 0.0
C1908 C 0.57571 0.96183 0.4056 0.0
H1909 H 0.58135 0.00515 0.32526 0.0
H1910 H 0.56431 0.99321 0.35044 0.0
H1911 H 0.59991 0.96451 0.38972 0.0
H1912 H 0.55191 0.95193 0.46656 0.0
H1913 H 0.56271 0.94332 0.43724 0.0
H1914 H 0.53025 0.96274 0.39002 0.0
C1915 C 0.57694 0.98629 0.34696 0.0
C1916 C 0.58468 0.96352 0.38952 0.0
C1917 C 0.58683 0.99328 0.33261 0.0
C1918 C 0.54653 0.95937 0.45511 0.0
C1919 C 0.5528 0.95451 0.43835 0.0
C1920 C 0.54545 0.96277 0.39007 0.0
C1921 C 0.58373 0.97127 0.35721 0.0
C1922 C 0.57416 0.9656 0.37362 0.0
C1923 C 0.54699 0.96462 0.42333 0.0
C1924 C 0.55604 0.96218 0.40611 0.0
H1925 H 0.62328 0.96355 0.33474 0.0
H1926 H 0.60595 0.95134 0.36002 0.0
H1927 H 0.54591 0.96561 0.36191 0.0
H1928 H 0.51846 0.99555 0.44308 0.0
H1929 H 0.52931 0.9871 0.414 0.0
C1930 C 0.72479 0.84899 0.06857 0.0
C1931 C 0.72578 0.83589 0.05422 0.0
C1932 C 0.72848 0.84314 0.08589 0.0
C1933 C 0.73571 0.80006 0.11357 0.0
H1934 H 0.76975 0.83598 0.14107 0.0
C1935 C 0.77836 0.77578 0.17413 0.0
C1936 C 0.7774 0.78717 0.18965 0.0
C1937 C 0.77193 0.78252 0.15784 0.0
C1938 C 0.76013 0.82588 0.1336 0.0
H1939 H 0.73006 0.80601 0.04692 0.0
H1940 H 0.73677 0.79592 0.077 0.0
H1941 H 0.75639 0.84583 0.11268 0.0
H1942 H 0.76985 0.815 0.20007 0.0
H1943 H 0.75903 0.82694 0.17148 0.0
H1944 H 0.73989 0.77995 0.13434 0.0
C1945 C 0.733 0.81067 0.07496 0.0
C1946 C 0.75236 0.83154 0.1174 0.0
C1947 C 0.7292 0.81648 0.05766 0.0
C1948 C 0.77099 0.80595 0.18834 0.0
C1949 C 0.76468 0.81275 0.172 0.0
C1950 C 0.74359 0.79436 0.1297 0.0
C1951 C 0.73331 0.8241 0.0892 0.0
C1952 C 0.74019 0.81863 0.10711 0.0
C1953 C 0.76458 0.80086 0.1567 0.0
C1954 C 0.75603 0.80715 0.13977 0.0
H1955 H 0.722 0.86401 0.06639 0.0
H1956 H 0.72816 0.85371 0.09663 0.0
H1957 H 0.72616 0.78987 0.10613 0.0
H1958 H 0.78352 0.76138 0.17467 0.0
H1959 H 0.77238 0.77324 0.14616 0.0
C1960 C 0.94116 0.0261 0.71806 0.0
C1961 C 0.95003 0.0193 0.73348 0.0
C1962 C 0.94952 0.02462 0.7017 0.0
C1963 C 0.97479 0.02857 0.67037 0.0
H1964 H 0.99651 0.98015 0.65828 0.0
C1965 C 0.01538 0.01901 0.6068 0.0
C1966 C 0.01162 0.00168 0.5969 0.0
C1967 C 0.00853 0.02109 0.62373 0.0
C1968 C 0.9904 0.9937 0.66144 0.0
H1969 H 0.97492 0.0061 0.74385 0.0
H1970 H 0.98956 0.00366 0.71527 0.0
H1971 H 0.98348 0.98453 0.68744 0.0
H1972 H -0.00215 0.97287 0.59711 0.0
H1973 H 0.98564 0.97659 0.62676 0.0
H1974 H 0.98136 0.03763 0.64429 0.0
C1975 C 0.97602 0.00992 0.71585 0.0
C1976 C 0.98315 0.9963 0.6782 0.0
C1977 C 0.96769 0.01146 0.73224 0.0
C1978 C 0.00092 0.98641 0.60439 0.0
C1979 C 0.99408 0.98849 0.62141 0.0
C1980 C 0.98209 0.026 0.65365 0.0
C1981 C 0.96691 0.01626 0.70038 0.0
C1982 C 0.97521 0.01374 0.68282 0.0
C1983 C -0.0023 0.00592 0.63119 0.0
C1984 C 0.98995 0.00853 0.64899 0.0
H1985 H 0.92754 0.0322 0.71852 0.0
H1986 H 0.94206 0.02949 0.69 0.0
H1987 H 0.96889 0.04221 0.67357 0.0
H1988 H 0.02332 0.03118 0.60133 0.0
H1989 H 0.01173 0.03462 0.631 0.0
C1990 C 0.80525 0.16729 0.45304 0.0
C1991 C 0.78883 0.16896 0.46252 0.0
C1992 C 0.80942 0.17998 0.43931 0.0
C1993 C 0.79652 0.22669 0.41983 0.0
H1994 H 0.80983 0.20267 0.37563 0.0
C1995 C 0.77956 0.25728 0.35115 0.0
C1996 C 0.79175 0.2541 0.33735 0.0
C1997 C 0.7833 0.2501 0.36802 0.0
C1998 C 0.80652 0.20975 0.38795 0.0
H1999 H 0.76418 0.18555 0.46537 0.0
H2000 H 0.77126 0.20734 0.4414 0.0
H2001 H 0.809 0.18366 0.40237 0.0
H2002 H 0.81821 0.24227 0.33078 0.0
H2003 H 0.82476 0.2299 0.36023 0.0
H2004 H 0.79331 0.25258 0.40516 0.0
C2005 C 0.7811 0.19648 0.44465 0.0
C2006 C 0.80604 0.19882 0.4033 0.0
C2007 C 0.77693 0.18383 0.45831 0.0
C2008 C 0.80841 0.24478 0.34108 0.0
C2009 C 0.81214 0.23761 0.35793 0.0
C2010 C 0.79696 0.23761 0.40446 0.0
C2011 C 0.79727 0.1946 0.43486 0.0
C2012 C 0.80054 0.20701 0.41931 0.0
C2013 C 0.79932 0.23962 0.37141 0.0
C2014 C 0.80151 0.22911 0.38825 0.0
H2015 H 0.81474 0.15604 0.45605 0.0
H2016 H 0.82207 0.17827 0.43209 0.0
H2017 H 0.79256 0.23351 0.43205 0.0
H2018 H 0.76664 0.26445 0.34873 0.0
H2019 H 0.77307 0.25178 0.37808 0.0
C2020 C 0.5996 0.00624 0.23283 0.0
C2021 C 0.61846 0.00139 0.23413 0.0
C2022 C 0.59077 0.00885 0.21629 0.0
C2023 C 0.57994 0.02609 0.18102 0.0
H2024 H 0.58869 0.99276 0.14068 0.0
C2025 C 0.53796 0.02783 0.11388 0.0
C2026 C 0.54805 0.02569 0.09841 0.0
C2027 C 0.54674 0.02589 0.13057 0.0
C2028 C 0.58629 0.00234 0.15178 0.0
H2029 H 0.64271 0.99504 0.21901 0.0
H2030 H 0.62738 -0.00022 0.19018 0.0
H2031 H 0.60317 0.98628 0.16954 0.0
H2032 H 0.5754 0.02027 0.08835 0.0
H2033 H 0.59077 0.01723 0.11744 0.0
H2034 H 0.56291 0.04204 0.16322 0.0
C2035 C 0.61933 0.00136 0.20195 0.0
C2036 C 0.59457 -0.00139 0.16832 0.0
C2037 C 0.62814 -0.0013 0.21849 0.0
C2038 C 0.56727 0.02223 0.1 0.0
C2039 C 0.57602 0.02022 0.11666 0.0
C2040 C 0.5716 0.02977 0.16448 0.0
C2041 C 0.60061 0.00671 0.20067 0.0
C2042 C 0.59153 0.01046 0.18313 0.0
C2043 C 0.56577 0.02166 0.13211 0.0
C2044 C 0.57473 0.01797 0.14967 0.0
H2045 H 0.59169 0.00833 0.24461 0.0
H2046 H 0.57623 0.01261 0.21576 0.0
H2047 H 0.57756 0.0357 0.1921 0.0
H2048 H 0.52317 0.03064 0.11308 0.0
H2049 H 0.53846 0.02701 0.14224 0.0
C2050 C 0.69816 0.84584 0.94623 0.0
C2051 C 0.70042 0.83042 0.95777 0.0
C2052 C 0.68936 0.84254 0.92952 0.0
C2053 C 0.68042 0.80178 0.89726 0.0
H2054 H 0.66294 0.84289 0.8678 0.0
C2055 C 0.67776 0.79127 0.82298 0.0
C2056 C 0.69109 0.80448 0.81586 0.0
C2057 C 0.67021 0.79513 0.83937 0.0
C2058 C 0.66749 0.83118 0.87595 0.0
H2059 H 0.69366 0.79993 0.96182 0.0
H2060 H 0.67716 0.79431 0.93315 0.0
H2061 H 0.66517 0.84753 0.9 0.0
H2062 H 0.70516 0.8331 0.81936 0.0
H2063 H 0.69176 0.83991 0.84778 0.0
H2064 H 0.68301 0.78559 0.87324 0.0
C2065 C 0.68305 0.80878 0.93647 0.0
C2066 C 0.66898 0.83387 0.89438 0.0
C2067 C 0.69237 0.81198 0.95297 0.0
C2068 C 0.69493 0.82261 0.82442 0.0
C2069 C 0.68722 0.82654 0.84074 0.0
C2070 C 0.67852 0.79896 0.87896 0.0
C2071 C 0.6822 0.82381 0.92416 0.0
C2072 C 0.67635 0.81954 0.90522 0.0
C2073 C 0.67566 0.81237 0.8488 0.0
C2074 C 0.67282 0.81391 0.86807 0.0
H2075 H 0.70426 0.86022 0.94965 0.0
H2076 H 0.68929 0.8545 0.9205 0.0
H2077 H 0.68643 0.79044 0.90491 0.0
H2078 H 0.67414 0.77738 0.81647 0.0
H2079 H 0.66114 0.78408 0.84525 0.0
C2080 C 0.79514 0.88715 0.98969 0.0
C2081 C 0.78864 0.86811 0.99318 0.0
C2082 C 0.81428 0.89251 0.99102 0.0
C2083 C 0.86218 0.87485 0.99638 0.0
H2084 H 0.87118 0.9238 0.02214 0.0
C2085 C 0.9346 0.91716 0.00375 0.0
C2086 C 0.93848 0.92881 0.01904 0.0
C2087 C 0.91732 0.90666 0.00134 0.0
C2088 C 0.86898 0.90995 0.0152 0.0
H2089 H 0.79703 0.83935 -0.00049 0.0
H2090 H 0.83063 0.84885 0.00229 0.0
H2091 H 0.83925 0.91174 0.01475 0.0
H2092 H 0.9282 0.93743 0.04444 0.0
H2093 H 0.89818 0.91864 0.04051 0.0
H2094 H 0.89211 0.87301 0.99722 0.0
C2095 C 0.82093 0.85958 -0.00168 0.0
C2096 C 0.85063 0.90321 0.01064 0.0
C2097 C 0.80171 0.85414 0.99673 0.0
C2098 C 0.92538 0.92875 0.03243 0.0
C2099 C 0.90821 0.91807 0.03012 0.0
C2100 C 0.88065 0.8816 0.00102 0.0
C2101 C 0.8273 0.87901 0.99618 0.0
C2102 C 0.847 0.88574 0.00097 0.0
C2103 C 0.90369 0.90752 0.01425 0.0
C2104 C 0.88423 0.89931 0.0104 0.0
H2105 H 0.78535 0.89813 0.98665 0.0
H2106 H 0.81881 0.90746 0.98875 0.0
H2107 H 0.8598 0.86131 0.98895 0.0
H2108 H 0.94446 0.91709 0.99318 0.0
H2109 H 0.91425 0.89883 0.98891 0.0
C2110 C 0.33365 0.55996 -0.00139 0.0
C2111 C 0.33139 0.57996 -0.00193 0.0
C2112 C 0.35127 0.55271 0.99634 0.0
C2113 C 0.40047 0.56652 0.98354 0.0
H2114 H 0.41186 0.52376 0.01378 0.0
C2115 C 0.46863 0.528 0.0165 0.0
C2116 C 0.48062 0.52849 0.00217 0.0
C2117 C 0.45015 0.53338 0.01435 0.0
C2118 C 0.40903 0.53583 0.00537 0.0
H2119 H 0.34559 0.60806 0.99423 0.0
H2120 H 0.37656 0.59558 0.9911 0.0
H2121 H 0.38051 0.5353 0.01286 0.0
H2122 H 0.48256 0.53466 0.97424 0.0
H2123 H 0.45 0.54339 0.97028 0.0
H2124 H 0.42944 0.5678 0.97699 0.0
C2125 C 0.36469 0.58534 0.99274 0.0
C2126 C 0.39085 0.54225 0.00457 0.0
C2127 C 0.34694 0.59255 0.99463 0.0
C2128 C 0.47365 0.53423 0.98555 0.0
C2129 C 0.45503 0.53935 0.98333 0.0
C2130 C 0.41878 0.56028 0.98456 0.0
C2131 C 0.36716 0.56534 0.99391 0.0
C2132 C 0.38632 0.5578 0.99376 0.0
C2133 C 0.44305 0.53907 -0.00227 0.0
C2134 C 0.42335 0.54499 0.99567 0.0
H2135 H 0.32182 0.5499 0.00101 0.0
H2136 H 0.35245 0.53719 0.9968 0.0
H2137 H 0.39749 0.57832 0.97485 0.0
H2138 H 0.47363 0.52384 0.02953 0.0
H2139 H 0.44157 0.53341 0.02587 0.0
C2140 C 0.18669 0.5846 0.79706 0.0
C2141 C 0.19319 0.5681 0.78868 0.0
C2142 C 0.19789 0.60185 0.79832 0.0
C2143 C 0.24607 0.62353 0.79621 0.0
H2144 H 0.22065 0.66889 0.7814 0.0
C2145 C 0.28476 0.69916 0.78722 0.0
C2146 C 0.2752 0.71527 0.79275 0.0
C2147 C 0.27577 0.68056 0.78695 0.0
C2148 C 0.22794 0.65644 0.7858 0.0
H2149 H 0.21697 0.55654 0.77584 0.0
H2150 H 0.2366 0.5868 0.77814 0.0
H2151 H 0.20329 0.63756 0.78138 0.0
H2152 H 0.249 0.72442 0.80295 0.0
H2153 H 0.23363 0.69221 0.80284 0.0
H2154 H 0.27071 0.64258 0.80084 0.0
C2155 C 0.22279 0.58629 0.78368 0.0
C2156 C 0.21798 0.63848 0.78576 0.0
C2157 C 0.21151 0.56901 0.78231 0.0
C2158 C 0.25671 0.71237 0.79838 0.0
C2159 C 0.24783 0.69387 0.79823 0.0
C2160 C 0.25606 0.64161 0.79638 0.0
C2161 C 0.21589 0.60299 0.79132 0.0
C2162 C 0.22686 0.62187 0.79113 0.0
C2163 C 0.25711 0.67777 0.79227 0.0
C2164 C 0.24702 0.65831 0.79136 0.0
H2165 H 0.17271 0.5844 0.80222 0.0
H2166 H 0.19235 0.61443 0.80454 0.0
H2167 H 0.25324 0.61093 0.80043 0.0
H2168 H 0.29904 0.70096 0.78283 0.0
H2169 H 0.28328 0.66845 0.78219 0.0
C2170 C 0.18942 0.44123 0.51347 0.0
C2171 C 0.19473 0.42803 0.50062 0.0
C2172 C 0.17458 0.45299 0.50987 0.0
C2173 C 0.13315 0.45507 0.4782 0.0
H2174 H 0.12356 0.49764 0.50995 0.0
C2175 C 0.05798 0.47314 0.49117 0.0
C2176 C 0.05405 0.49126 0.4982 0.0
C2177 C 0.07644 0.46886 0.48817 0.0
C2178 C 0.12597 0.48611 0.50059 0.0
H2179 H 0.19014 0.41765 0.47353 0.0
H2180 H 0.16544 0.43945 0.4665 0.0
H2181 H 0.15467 0.48597 0.50944 0.0
H2182 H 0.06595 0.51955 0.50681 0.0
H2183 H 0.09818 0.51275 0.50031 0.0
H2184 H 0.10492 0.45627 0.46827 0.0
C2185 C 0.17168 0.44002 0.4798 0.0
C2186 C 0.1439 0.47902 0.50061 0.0
C2187 C 0.18601 0.42766 0.48368 0.0
C2188 C 0.06877 0.50538 0.50154 0.0
C2189 C 0.08725 0.50136 0.49793 0.0
C2190 C 0.11548 0.4627 0.47763 0.0
C2191 C 0.16515 0.4523 0.49307 0.0
C2192 C 0.14749 0.46266 0.49016 0.0
C2193 C 0.09144 0.48287 0.49152 0.0
C2194 C 0.11127 0.47758 0.48954 0.0
H2195 H 0.19592 0.44158 0.52669 0.0
H2196 H 0.16999 0.46177 0.52069 0.0
H2197 H 0.13502 0.44253 0.46983 0.0
H2198 H 0.04682 0.46197 0.48866 0.0
H2199 H 0.07886 0.45427 0.4838 0.0
C2200 C 0.89698 0.947 0.78786 0.0
C2201 C 0.88854 0.96481 0.78679 0.0
C2202 C 0.88588 0.92965 0.78767 0.0
C2203 C 0.83877 0.90787 0.79483 0.0
H2204 H 0.84989 0.87179 0.75727 0.0
C2205 C 0.78713 0.84373 0.77213 0.0
C2206 C 0.79479 0.82659 0.76637 0.0
C2207 C 0.79884 0.8603 0.77615 0.0
C2208 C 0.84675 0.88146 0.76806 0.0
H2209 H 0.86194 0.97851 0.78573 0.0
H2210 H 0.84258 0.94815 0.78567 0.0
H2211 H 0.87028 0.90089 0.7628 0.0
H2212 H 0.82069 0.81302 0.76098 0.0
H2213 H 0.8411 0.84154 0.76861 0.0
H2214 H 0.81536 0.88835 0.80028 0.0
C2215 C 0.85775 0.94766 0.78652 0.0
C2216 C 0.85844 0.89816 0.77117 0.0
C2217 C 0.86883 0.96499 0.78644 0.0
C2218 C 0.81435 0.82614 0.76511 0.0
C2219 C 0.82605 0.84255 0.76942 0.0
C2220 C 0.8272 0.89097 0.7919 0.0
C2221 C 0.86618 0.92985 0.78672 0.0
C2222 C 0.85447 0.91157 0.78447 0.0
C2223 C 0.81846 0.85992 0.77476 0.0
C2224 C 0.83098 0.87764 0.77837 0.0
H2225 H 0.91214 0.94641 0.78816 0.0
H2226 H 0.89267 0.91605 0.78794 0.0
H2227 H 0.8355 0.91801 0.8052 0.0
H2228 H 0.77207 0.84445 0.7732 0.0
H2229 H 0.79247 0.87349 0.77999 0.0
C2230 C 0.73185 0.06584 0.50276 0.0
C2231 C 0.7346 0.08397 0.49479 0.0
C2232 C 0.71403 0.05618 0.50229 0.0
C2233 C 0.66482 0.06802 0.49974 0.0
H2234 H 0.65388 0.01254 0.49437 0.0
C2235 C 0.5892 0.03537 0.4963 0.0
C2236 C 0.58507 0.01832 0.50561 0.0
C2237 C 0.60774 0.04222 0.49432 0.0
C2238 C 0.65679 0.02803 0.49609 0.0
H2239 H 0.72114 0.10541 0.47889 0.0
H2240 H 0.69017 0.08847 0.47794 0.0
H2241 H 0.686 0.02618 0.49082 0.0
H2242 H 0.59722 0.99497 0.52002 0.0
H2243 H 0.62985 0.00723 0.51681 0.0
H2244 H 0.63587 0.06999 0.50526 0.0
C2245 C 0.70169 0.08194 0.48488 0.0
C2246 C 0.67513 0.03583 0.49399 0.0
C2247 C 0.71947 0.09159 0.48534 0.0
C2248 C 0.59997 0.00818 0.51282 0.0
C2249 C 0.61863 0.01511 0.51087 0.0
C2250 C 0.6466 0.06025 0.50189 0.0
C2251 C 0.69865 0.06448 0.49385 0.0
C2252 C 0.67927 0.05593 0.49567 0.0
C2253 C 0.62268 0.03229 0.50169 0.0
C2254 C 0.64231 0.04021 0.49996 0.0
H2255 H 0.74322 0.05953 0.51009 0.0
H2256 H 0.7121 0.04276 0.50935 0.0
H2257 H 0.66767 0.08351 0.50158 0.0
H2258 H 0.57809 0.04346 0.49042 0.0
H2259 H 0.61038 0.05528 0.48688 0.0
C2260 C 0.2073 0.45939 0.77786 0.0
C2261 C 0.1907 0.46488 0.78547 0.0
C2262 C 0.21605 0.44303 0.78363 0.0
C2263 C 0.20717 0.39617 0.80388 0.0
H2264 H 0.26164 0.39795 0.80843 0.0
C2265 C 0.24766 0.32671 0.81302 0.0
C2266 C 0.26185 0.32502 0.80075 0.0
C2267 C 0.23963 0.34449 0.81572 0.0
C2268 C 0.24642 0.39722 0.80727 0.0
H2269 H 0.17019 0.45743 0.80511 0.0
H2270 H 0.18547 0.42845 0.81505 0.0
H2271 H 0.24574 0.42788 0.80429 0.0
H2272 H 0.27948 0.34084 0.78246 0.0
H2273 H 0.26564 0.37164 0.78717 0.0
H2274 H 0.20792 0.36538 0.80607 0.0
C2275 C 0.19168 0.43697 0.80465 0.0
C2276 C 0.23732 0.41434 0.80488 0.0
C2277 C 0.18297 0.45355 0.79898 0.0
C2278 C 0.26853 0.34164 0.79198 0.0
C2279 C 0.26067 0.35936 0.79478 0.0
C2280 C 0.2163 0.37898 0.80621 0.0
C2281 C 0.20838 0.43164 0.79708 0.0
C2282 C 0.21765 0.41393 0.80256 0.0
C2283 C 0.24584 0.36092 0.80636 0.0
C2284 C 0.23606 0.37927 0.80732 0.0
H2285 H 0.21364 0.46779 0.76744 0.0
H2286 H 0.22871 0.4391 0.77731 0.0
H2287 H 0.192 0.39541 0.80206 0.0
H2288 H 0.24219 0.31413 0.81995 0.0
H2289 H 0.22831 0.34529 0.82482 0.0
C2290 C 0.34773 0.55287 0.26662 0.0
C2291 C 0.36353 0.54764 0.27668 0.0
C2292 C 0.33905 0.56986 0.27069 0.0
C2293 C 0.34794 0.61739 0.29306 0.0
H2294 H 0.29364 0.61856 0.28851 0.0
C2295 C 0.30975 0.68756 0.30478 0.0
C2296 C 0.29695 0.69165 0.29094 0.0
C2297 C 0.31688 0.6692 0.30589 0.0
C2298 C 0.30881 0.61843 0.28985 0.0
H2299 H 0.38254 0.55601 0.29902 0.0
H2300 H 0.36726 0.58563 0.30622 0.0
H2301 H 0.30835 0.58784 0.2849 0.0
H2302 H 0.28097 0.67953 0.26786 0.0
H2303 H 0.29336 0.64763 0.26982 0.0
H2304 H 0.34839 0.64806 0.29769 0.0
C2305 C 0.36173 0.5767 0.29505 0.0
C2306 C 0.31724 0.60088 0.28772 0.0
C2307 C 0.37044 0.55971 0.29095 0.0
C2308 C 0.29086 0.67686 0.27866 0.0
C2309 C 0.29786 0.65852 0.27985 0.0
C2310 C 0.33949 0.63494 0.29526 0.0
C2311 C 0.34593 0.58196 0.28496 0.0
C2312 C 0.33692 0.60024 0.28891 0.0
C2313 C 0.31117 0.65459 0.29328 0.0
C2314 C 0.31988 0.63569 0.29328 0.0
H2315 H 0.3421 0.54389 0.25552 0.0
H2316 H 0.32711 0.57367 0.26246 0.0
H2317 H 0.36314 0.61742 0.2939 0.0
H2318 H 0.31467 0.69868 0.31445 0.0
H2319 H 0.32703 0.66649 0.31645 0.0
C2320 C 0.52163 0.65371 0.65312 0.0
C2321 C 0.51587 0.67274 0.6525 0.0
C2322 C 0.51095 0.63865 0.64428 0.0
C2323 C 0.4789 0.63264 0.60535 0.0
H2324 H 0.4823 0.57834 0.61616 0.0
C2325 C 0.49109 0.57578 0.55321 0.0
C2326 C 0.4837 0.55663 0.55461 0.0
C2327 C 0.48777 0.58967 0.5661 0.0
C2328 C 0.48076 0.59341 0.61307 0.0
H2329 H 0.49351 0.69067 0.64372 0.0
H2330 H 0.4746 0.66431 0.62871 0.0
H2331 H 0.48933 0.60293 0.63944 0.0
H2332 H 0.46627 0.53713 0.57013 0.0
H2333 H 0.46063 0.56157 0.59298 0.0
H2334 H 0.47089 0.62316 0.57888 0.0
C2335 C 0.48767 0.66109 0.63549 0.0
C2336 C 0.48503 0.60752 0.62635 0.0
C2337 C 0.49849 0.67618 0.64411 0.0
C2338 C 0.47215 0.55181 0.56875 0.0
C2339 C 0.46897 0.56574 0.58183 0.0
C2340 C 0.47452 0.61856 0.59215 0.0
C2341 C 0.49415 0.64229 0.63484 0.0
C2342 C 0.4851 0.62732 0.62239 0.0
C2343 C 0.47706 0.58471 0.58076 0.0
C2344 C 0.4764 0.59889 0.59563 0.0
H2345 H 0.53493 0.65062 0.65955 0.0
H2346 H 0.51652 0.62443 0.64392 0.0
H2347 H 0.47883 0.64771 0.60173 0.0
H2348 H 0.49996 0.57995 0.54241 0.0
H2349 H 0.49446 0.60406 0.56502 0.0
C2350 C 0.59438 0.25399 0.84398 0.0
C2351 C 0.59293 0.2533 0.86248 0.0
C2352 C 0.61184 0.25275 0.83629 0.0
C2353 C 0.66214 0.26268 0.84635 0.0
H2354 H 0.6691 0.23008 0.80507 0.0
C2355 C 0.73549 0.25625 0.81809 0.0
C2356 C 0.73664 0.25552 0.79956 0.0
C2357 C 0.71803 0.25444 0.82592 0.0
C2358 C 0.66737 0.23945 0.81647 0.0
H2359 H 0.60871 0.25044 0.88738 0.0
H2360 H 0.63908 0.24848 0.87396 0.0
H2361 H 0.63828 0.22999 0.81814 0.0
H2362 H 0.72036 0.25208 0.77472 0.0
H2363 H 0.68994 0.2495 0.78831 0.0
H2364 H 0.69093 0.27264 0.8445 0.0
C2365 C 0.62672 0.25002 0.86542 0.0
C2366 C 0.64971 0.23934 0.82397 0.0
C2367 C 0.60928 0.25104 0.87308 0.0
C2368 C 0.71997 0.25261 0.78905 0.0
C2369 C 0.7025 0.25102 0.79687 0.0
C2370 C 0.67971 0.26297 0.83876 0.0
C2371 C 0.62823 0.25103 0.84697 0.0
C2372 C 0.64693 0.25094 0.839 0.0
C2373 C 0.70127 0.25208 0.81541 0.0
C2374 C 0.68259 0.25136 0.82371 0.0
H2375 H 0.58206 0.25569 0.83543 0.0
H2376 H 0.61261 0.25368 0.82203 0.0
H2377 H 0.66034 0.272 0.85778 0.0
H2378 H 0.74809 0.25832 0.82657 0.0
H2379 H 0.7177 0.25493 0.84025 0.0
C2380 C 0.03005 0.29002 0.11244 0.0
C2381 C 0.03671 0.274 0.10344 0.0
C2382 C 0.02748 0.30727 0.10356 0.0
C2383 C 0.03934 0.34437 0.08471 0.0
H2384 H 0.01718 0.3465 0.03712 0.0
C2385 C 0.05099 0.41075 0.04053 0.0
C2386 C 0.03491 0.41729 0.03173 0.0
C2387 C 0.05017 0.39303 0.04914 0.0
C2388 C 0.02332 0.34613 0.05044 0.0
H2389 H 0.0448 0.26305 0.0779 0.0
H2390 H 0.04016 0.29307 0.06241 0.0
H2391 H 0.0159 0.3158 0.05272 0.0
H2392 H 0.00531 0.41028 0.02519 0.0
H2393 H 0.00405 0.37923 0.03986 0.0
H2394 H 0.04691 0.37462 0.0824 0.0
C2395 C 0.03699 0.29235 0.07631 0.0
C2396 C 0.02266 0.32857 0.05932 0.0
C2397 C 0.03973 0.27519 0.08521 0.0
C2398 C 0.01808 0.40553 0.03149 0.0
C2399 C 0.0173 0.38777 0.03997 0.0
C2400 C 0.04014 0.36187 0.07578 0.0
C2401 C 0.03131 0.3087 0.08549 0.0
C2402 C 0.03075 0.32751 0.07651 0.0
C2403 C 0.03328 0.38143 0.04902 0.0
C2404 C 0.03224 0.36289 0.05853 0.0
H2405 H 0.02759 0.28953 0.1265 0.0
H2406 H 0.02288 0.31962 0.1109 0.0
H2407 H 0.04589 0.34392 0.09787 0.0
H2408 H 0.06423 0.41932 0.04078 0.0
H2409 H 0.06277 0.38834 0.05581 0.0
C2410 C 0.96495 0.7453 0.36056 0.0
C2411 C 0.97934 0.75517 0.35148 0.0
C2412 C 0.94639 0.74446 0.35373 0.0
C2413 C 0.91723 0.75003 0.31292 0.0
H2414 H 0.87888 0.76327 0.34535 0.0
C2415 C 0.8418 0.76437 0.28811 0.0
C2416 C 0.82695 0.75708 0.29826 0.0
C2417 C 0.86043 0.76417 0.29462 0.0
C2418 C 0.88935 0.75929 0.33614 0.0
H2419 H 0.98569 0.77123 0.32781 0.0
H2420 H 0.95337 0.7696 0.31587 0.0
H2421 H 0.91127 0.76138 0.3564 0.0
H2422 H 0.82001 0.74406 0.3233 0.0
H2423 H 0.85238 0.74339 0.33446 0.0
H2424 H 0.89533 0.74776 0.29268 0.0
C2425 C 0.95641 0.76253 0.32825 0.0
C2426 C 0.90791 0.75821 0.34249 0.0
C2427 C 0.97491 0.76353 0.33514 0.0
C2428 C 0.8311 0.74989 0.31516 0.0
C2429 C 0.8497 0.74958 0.32161 0.0
C2430 C 0.89863 0.75098 0.30658 0.0
C2431 C 0.94189 0.7533 0.33762 0.0
C2432 C 0.92206 0.75363 0.33094 0.0
C2433 C 0.86462 0.75659 0.31139 0.0
C2434 C 0.88445 0.75569 0.3181 0.0
H2435 H 0.96791 0.73872 0.37318 0.0
H2436 H 0.93551 0.73704 0.36114 0.0
H2437 H 0.92781 0.74629 0.30374 0.0
H2438 H 0.83908 0.77007 0.27506 0.0
H2439 H 0.87154 0.77 0.28651 0.0
C2440 C 0.53846 0.31441 0.93379 0.0
C2441 C 0.53823 0.31353 0.91516 0.0
C2442 C 0.53659 0.33203 0.94276 0.0
C2443 C 0.5434 0.38458 0.93727 0.0
H2444 H 0.51029 0.38816 0.97662 0.0
C2445 C 0.52896 0.45825 0.96832 0.0
C2446 C 0.52875 0.4596 0.9869 0.0
C2447 C 0.52882 0.44021 0.9597 0.0
C2448 C 0.51975 0.38736 0.96578 0.0
H2449 H 0.53576 0.33049 0.89136 0.0
H2450 H 0.53257 0.36115 0.90703 0.0
H2451 H 0.51302 0.35694 0.9615 0.0
H2452 H 0.52766 0.44305 0.01099 0.0
H2453 H 0.52778 0.41151 0.99594 0.0
H2454 H 0.55041 0.4148 0.94162 0.0
C2455 C 0.53431 0.34824 0.91469 0.0
C2456 C 0.52129 0.36949 0.95713 0.0
C2457 C 0.53605 0.33064 0.90572 0.0
C2458 C 0.52779 0.44248 0.99665 0.0
C2459 C 0.52779 0.4244 0.98801 0.0
C2460 C 0.54195 0.40238 0.94597 0.0
C2461 C 0.53459 0.34914 0.9333 0.0
C2462 C 0.53307 0.36795 0.94273 0.0
C2463 C 0.52863 0.42308 0.96944 0.0
C2464 C 0.53003 0.40403 0.96027 0.0
H2465 H 0.54008 0.3015 0.94146 0.0
H2466 H 0.53701 0.33233 0.95712 0.0
H2467 H 0.55284 0.38377 0.92641 0.0
H2468 H 0.52952 0.47117 0.9604 0.0
H2469 H 0.52903 0.43972 0.94536 0.0
C2470 C 0.00351 0.22668 0.20387 0.0
C2471 C 0.00499 0.2311 0.18588 0.0
C2472 C 0.98622 0.22698 0.21189 0.0
C2473 C 0.93585 0.22103 0.20116 0.0
H2474 H 0.93076 0.24346 0.24806 0.0
C2475 C 0.86397 0.23031 0.23166 0.0
C2476 C 0.86259 0.2281 0.25002 0.0
C2477 C 0.88132 0.22959 0.22382 0.0
C2478 C 0.932 0.23685 0.23508 0.0
H2479 H 0.98968 0.23991 0.16229 0.0
H2480 H 0.95941 0.24042 0.17635 0.0
H2481 H 0.96126 0.24574 0.23445 0.0
H2482 H 0.87803 0.22239 0.27445 0.0
H2483 H 0.90836 0.22072 0.2607 0.0
H2484 H 0.90668 0.21193 0.20182 0.0
C2485 C 0.97163 0.23658 0.18418 0.0
C2486 C 0.94944 0.23826 0.22726 0.0
C2487 C 0.98897 0.23643 0.17619 0.0
C2488 C 0.87876 0.22435 0.26029 0.0
C2489 C 0.89611 0.2235 0.25242 0.0
C2490 C 0.91843 0.2195 0.20902 0.0
C2491 C 0.97006 0.23158 0.20203 0.0
C2492 C 0.95151 0.23043 0.21021 0.0
C2493 C 0.89765 0.22653 0.23416 0.0
C2494 C 0.9163 0.22744 0.22605 0.0
H2495 H 0.01562 0.22253 0.21169 0.0
H2496 H 0.98538 0.22295 0.22565 0.0
H2497 H 0.93714 0.21457 0.18812 0.0
H2498 H 0.85179 0.23353 0.22346 0.0
H2499 H 0.88204 0.23223 0.20976 0.0
C2500 C 0.0301 0.70025 0.44342 0.0
C2501 C 0.0232 0.7043 0.42629 0.0
C2502 C 0.0252 0.68259 0.45118 0.0
C2503 C 0.01145 0.63222 0.43959 0.0
H2504 H -0.00122 0.62874 0.48897 0.0
C2505 C 0.99447 0.55851 0.47189 0.0
C2506 C 0.00137 0.55623 0.48936 0.0
C2507 C 0.99538 0.57673 0.46416 0.0
C2508 C 0.0025 0.62944 0.47522 0.0
H2509 H 0.00543 0.69317 0.40399 0.0
H2510 H 0.99703 0.66209 0.41753 0.0
H2511 H 0.00313 0.66047 0.4756 0.0
H2512 H 0.01473 0.57128 0.51241 0.0
H2513 H 0.01682 0.60294 0.49879 0.0
H2514 H 0.01149 0.60131 0.43927 0.0
C2515 C 0.00623 0.67266 0.42491 0.0
C2516 C 0.00489 0.64762 0.46755 0.0
C2517 C 0.01096 0.69046 0.41722 0.0
C2518 C 0.00919 0.57257 0.49895 0.0
C2519 C 0.01027 0.59077 0.49116 0.0
C2520 C 0.00924 0.61404 0.44729 0.0
C2521 C 0.01345 0.66849 0.44191 0.0
C2522 C 0.00955 0.6492 0.44971 0.0
C2523 C 0.00338 0.59309 0.47366 0.0
C2524 C 0.00491 0.61241 0.46526 0.0
H2525 H 0.03954 0.71063 0.45077 0.0
H2526 H 0.03112 0.67971 0.46422 0.0
H2527 H 0.01529 0.63301 0.42587 0.0
H2528 H 0.98823 0.54622 0.46418 0.0
H2529 H 0.98967 0.578 0.45077 0.0
C2530 C 0.60805 0.74798 0.64343 0.0
C2531 C 0.60509 0.73264 0.65519 0.0
C2532 C 0.62605 0.75678 0.64175 0.0
C2533 C 0.65963 0.78187 0.6572 0.0
H2534 H 0.70533 0.75472 0.66332 0.0
C2535 C 0.71548 0.80027 0.7103 0.0
C2536 C 0.7337 0.79398 0.70866 0.0
C2537 C 0.7025 0.79843 0.69598 0.0
C2538 C 0.6929 0.76275 0.66114 0.0
H2539 H 0.61887 0.71331 0.67307 0.0
H2540 H 0.65018 0.72854 0.6701 0.0
H2541 H 0.67694 0.73743 0.65108 0.0
H2542 H 0.75344 0.7835 0.69006 0.0
H2543 H 0.73072 0.78027 0.66506 0.0
H2544 H 0.6753 0.80687 0.66836 0.0
C2545 C 0.63866 0.73384 0.66218 0.0
C2546 C 0.67657 0.75274 0.65428 0.0
C2547 C 0.62067 0.72519 0.66402 0.0
C2548 C 0.7394 0.78819 0.69183 0.0
C2549 C 0.72638 0.78628 0.6775 0.0
C2550 C 0.67598 0.79189 0.6641 0.0
C2551 C 0.64142 0.75021 0.65159 0.0
C2552 C 0.65953 0.7619 0.65326 0.0
C2553 C 0.70751 0.79023 0.67976 0.0
C2554 C 0.69247 0.78211 0.66714 0.0
H2555 H 0.59632 0.75401 0.63638 0.0
H2556 H 0.62781 0.7693 0.63342 0.0
H2557 H 0.64671 0.78935 0.65655 0.0
H2558 H 0.71072 0.80505 0.72303 0.0
H2559 H 0.68808 0.80161 0.69823 0.0
C2560 C 0.6358 0.482 0.67009 0.0
C2561 C 0.62584 0.48351 0.68571 0.0
C2562 C 0.62619 0.47824 0.65382 0.0
C2563 C 0.5803 0.4628 0.63194 0.0
H2564 H 0.5933 0.50351 0.59918 0.0
C2565 C 0.52925 0.48577 0.57616 0.0
C2566 C 0.53676 0.49357 0.56075 0.0
C2567 C 0.54118 0.4805 0.59014 0.0
C2568 C 0.58969 0.49171 0.60788 0.0
H2569 H 0.59816 0.48063 0.69674 0.0
H2570 H 0.58142 0.47408 0.66831 0.0
H2571 H 0.61269 0.50019 0.62585 0.0
H2572 H 0.56251 0.50074 0.54727 0.0
H2573 H 0.58328 0.49087 0.57128 0.0
H2574 H 0.5571 0.45447 0.61401 0.0
C2575 C 0.59664 0.47583 0.66865 0.0
C2576 C 0.60084 0.48984 0.62323 0.0
C2577 C 0.60623 0.47974 0.68491 0.0
C2578 C 0.55634 0.49508 0.55916 0.0
C2579 C 0.56824 0.48949 0.57296 0.0
C2580 C 0.56922 0.46451 0.61642 0.0
C2581 C 0.60648 0.47575 0.6529 0.0
C2582 C 0.59605 0.47564 0.63558 0.0
C2583 C 0.56084 0.48265 0.58883 0.0
C2584 C 0.57357 0.47927 0.60438 0.0
H2585 H 0.65094 0.48468 0.67027 0.0
H2586 H 0.63411 0.47805 0.64186 0.0
H2587 H 0.57638 0.45166 0.64123 0.0
H2588 H 0.51418 0.48445 0.5777 0.0
H2589 H 0.53496 0.47551 0.60222 0.0
C2590 C 0.77953 0.36397 0.99426 0.0
C2591 C 0.78778 0.35386 0.00821 0.0
C2592 C 0.78153 0.358 0.97666 0.0
C2593 C 0.79309 0.31637 0.94879 0.0
H2594 H 0.80972 0.35539 0.91564 0.0
C2595 C 0.81901 0.29466 0.88072 0.0
C2596 C 0.81256 0.30507 0.86615 0.0
C2597 C 0.81662 0.3014 0.89798 0.0
C2598 C 0.80489 0.34434 0.92467 0.0
H2599 H 0.80391 0.32916 0.01473 0.0
H2600 H 0.80724 0.3187 0.98412 0.0
H2601 H 0.80246 0.36512 0.94575 0.0
H2602 H 0.79908 0.33098 0.85818 0.0
H2603 H 0.79478 0.3427 0.88831 0.0
H2604 H 0.79536 0.29559 0.9278 0.0
C2605 C 0.79925 0.33122 0.98674 0.0
C2606 C 0.80069 0.34993 0.9419 0.0
C2607 C 0.79741 0.33727 0.00427 0.0
C2608 C 0.80443 0.32278 0.86917 0.0
C2609 C 0.80193 0.32947 0.88644 0.0
C2610 C 0.79719 0.3108 0.93158 0.0
C2611 C 0.79162 0.3417 0.97274 0.0
C2612 C 0.79489 0.33597 0.95416 0.0
C2613 C 0.8076 0.31862 0.90105 0.0
C2614 C 0.8033 0.32469 0.91935 0.0
H2615 H 0.77206 0.37684 0.9969 0.0
H2616 H 0.77534 0.36623 0.96611 0.0
H2617 H 0.78842 0.30532 0.9579 0.0
H2618 H 0.82552 0.28106 0.87876 0.0
H2619 H 0.82156 0.29292 0.90894 0.0
C2620 C 0.92516 0.52833 0.16001 0.0
C2621 C 0.93205 0.52619 0.17748 0.0
C2622 C 0.9375 0.5326 0.1465 0.0
C2623 C 0.98707 0.52826 0.13558 0.0
H2624 H 0.97161 0.55668 0.09431 0.0
C2625 C 0.01055 0.54837 0.05964 0.0
C2626 C 0.01571 0.52988 0.05439 0.0
C2627 C 0.0042 0.55161 0.07666 0.0
C2628 C 0.97642 0.54904 0.10585 0.0
H2629 H 0.95722 0.52779 0.19467 0.0
H2630 H 0.9787 0.53572 0.17119 0.0
H2631 H 0.95262 0.55654 0.12032 0.0
H2632 H 0.01949 0.50065 0.06326 0.0
H2633 H 0.00799 0.5061 0.09262 0.0
H2634 H 0.01095 0.52088 0.12114 0.0
C2635 C 0.96381 0.53361 0.16781 0.0
C2636 C 0.96532 0.5487 0.12069 0.0
C2637 C 0.95148 0.52914 0.18129 0.0
C2638 C 0.01559 0.51507 0.06687 0.0
C2639 C 0.00909 0.51825 0.0838 0.0
C2640 C -0.00172 0.52877 0.1208 0.0
C2641 C 0.95701 0.53505 0.15019 0.0
C2642 C 0.97018 0.53778 0.13551 0.0
C2643 C 0.00273 0.53639 0.08873 0.0
C2644 C 0.99276 0.53863 0.10553 0.0
H2645 H 0.91027 0.5261 0.15662 0.0
H2646 H 0.93175 0.53327 0.13306 0.0
H2647 H 0.99124 0.51963 0.1467 0.0
H2648 H 0.01068 0.56014 0.05037 0.0
H2649 H -0.00018 0.56587 0.08015 0.0
C2650 C 0.78684 0.63969 0.49241 0.0
C2651 C 0.78596 0.65405 0.50575 0.0
C2652 C 0.78371 0.6442 0.47458 0.0
C2653 C 0.75923 0.67852 0.44718 0.0
H2654 H 0.79301 0.66563 0.41029 0.0
C2655 C 0.77879 0.70789 0.37495 0.0
C2656 C 0.76093 0.7081 0.36644 0.0
C2657 C 0.78113 0.69843 0.39095 0.0
C2658 C 0.78342 0.66921 0.42046 0.0
H2659 H 0.78176 0.68448 0.51082 0.0
H2660 H 0.77627 0.69221 0.47988 0.0
H2661 H 0.79898 0.65468 0.44055 0.0
H2662 H 0.73158 0.69831 0.36777 0.0
H2663 H 0.73565 0.68189 0.39603 0.0
H2664 H 0.74394 0.69346 0.42732 0.0
C2665 C 0.77918 0.67748 0.48318 0.0
C2666 C 0.78676 0.66286 0.4377 0.0
C2667 C 0.78247 0.67305 0.50089 0.0
C2668 C 0.74548 0.69838 0.3741 0.0
C2669 C 0.7478 0.68906 0.39024 0.0
C2670 C 0.75578 0.68469 0.42995 0.0
C2671 C 0.77944 0.66306 0.46989 0.0
C2672 C 0.77494 0.66788 0.45128 0.0
C2673 C 0.76565 0.68909 0.39884 0.0
C2674 C 0.76807 0.68047 0.41651 0.0
H2675 H 0.78951 0.62492 0.49577 0.0
H2676 H 0.78403 0.63285 0.46454 0.0
H2677 H 0.74978 0.68237 0.4574 0.0
H2678 H 0.791 0.715 0.36919 0.0
H2679 H 0.79501 0.69887 0.39738 0.0
C2680 C 0.59959 0.5159 0.7856 0.0
C2681 C 0.61749 0.50936 0.78252 0.0
C2682 C 0.59361 0.51815 0.80284 0.0
C2683 C 0.61215 0.52708 0.84836 0.0
H2684 H 0.5608 0.51341 0.86067 0.0
C2685 C 0.58659 0.53139 0.92006 0.0
C2686 C 0.56828 0.53721 0.92245 0.0
C2687 C 0.59308 0.52861 0.90304 0.0
C2688 C 0.57512 0.51756 0.85738 0.0
H2689 H 0.64291 0.49941 0.7951 0.0
H2690 H 0.63236 0.50326 0.82534 0.0
H2691 H 0.57095 0.5057 0.83104 0.0
H2692 H 0.54282 0.54572 0.9089 0.0
H2693 H 0.55424 0.54111 0.87915 0.0
H2694 H 0.61628 0.53908 0.87467 0.0
C2695 C 0.62307 0.50683 0.81435 0.0
C2696 C 0.58095 0.51305 0.84043 0.0
C2697 C 0.62904 0.50448 0.79705 0.0
C2698 C 0.55691 0.541 0.90747 0.0
C2699 C 0.56342 0.53826 0.89044 0.0
C2700 C 0.6063 0.53164 0.86532 0.0
C2701 C 0.6054 0.51397 0.81742 0.0
C2702 C 0.5995 0.51784 0.83571 0.0
C2703 C 0.58142 0.53161 0.88804 0.0
C2704 C 0.58769 0.52701 0.86999 0.0
H2705 H 0.59035 0.51979 0.77468 0.0
H2706 H 0.57999 0.52383 0.80477 0.0
H2707 H 0.62646 0.53122 0.84502 0.0
H2708 H 0.59559 0.52807 0.93134 0.0
H2709 H 0.60695 0.5233 0.90166 0.0
C2710 C 0.77463 0.33537 0.10546 0.0
C2711 C 0.76631 0.35314 0.1034 0.0
C2712 C 0.77042 0.32366 0.11982 0.0
C2713 C 0.75234 0.32688 0.16491 0.0
H2714 H 0.75375 0.27089 0.16222 0.0
C2715 C 0.74306 0.28135 0.22667 0.0
C2716 C 0.75817 0.26965 0.23023 0.0
C2717 C 0.7403 0.28902 0.20988 0.0
C2718 C 0.75325 0.28651 0.16311 0.0
H2719 H 0.74639 0.37217 0.11432 0.0
H2720 H 0.73859 0.35148 0.13909 0.0
H2721 H 0.75559 0.2896 0.13513 0.0
H2722 H 0.78127 0.25553 0.2186 0.0
H2723 H 0.77633 0.26888 0.1892 0.0
H2724 H 0.75011 0.32378 0.19287 0.0
C2725 C 0.7488 0.34682 0.12991 0.0
C2726 C 0.75441 0.29726 0.14765 0.0
C2727 C 0.75321 0.35866 0.11568 0.0
C2728 C 0.76956 0.26457 0.21629 0.0
C2729 C 0.76669 0.27215 0.19944 0.0
C2730 C 0.75094 0.31613 0.18029 0.0
C2731 C 0.7576 0.32933 0.13234 0.0
C2732 C 0.75436 0.31763 0.14841 0.0
C2733 C 0.75247 0.28501 0.19628 0.0
C2734 C 0.75173 0.29589 0.1796 0.0
H2735 H 0.78483 0.33072 0.09626 0.0
H2736 H 0.77773 0.31049 0.12138 0.0
H2737 H 0.75262 0.34252 0.16612 0.0
H2738 H 0.73393 0.28543 0.23708 0.0
H2739 H 0.72908 0.2987 0.20771 0.0
C2740 C 0.94364 0.49809 0.27986 0.0
C2741 C 0.92679 0.50604 0.27426 0.0
C2742 C 0.94802 0.49608 0.29785 0.0
C2743 C 0.92566 0.49005 0.34029 0.0
H2744 H 0.97652 0.49999 0.35974 0.0
C2745 C 0.94674 0.48397 0.41495 0.0
C2746 C 0.9645 0.47712 0.41911 0.0
C2747 C 0.94114 0.48695 0.39731 0.0
C2748 C 0.96229 0.49689 0.35446 0.0
H2749 H 0.90158 0.5187 0.28312 0.0
H2750 H 0.90931 0.51518 0.31473 0.0
H2751 H 0.96908 0.5082 0.32917 0.0
H2752 H 0.98971 0.46662 0.40814 0.0
H2753 H 0.97982 0.4714 0.37735 0.0
H2754 H 0.91893 0.47852 0.36557 0.0
C2755 C 0.91903 0.51041 0.30511 0.0
C2756 C 0.95802 0.5017 0.33697 0.0
C2757 C 0.9147 0.51257 0.28705 0.0
C2758 C 0.97605 0.47215 0.40529 0.0
C2759 C 0.97043 0.47503 0.38769 0.0
C2760 C 0.92994 0.48517 0.35781 0.0
C2761 C 0.93561 0.50187 0.31066 0.0
C2762 C 0.93972 0.49816 0.32964 0.0
C2763 C 0.95319 0.48305 0.38353 0.0
C2764 C 0.94837 0.48834 0.36502 0.0
H2765 H 0.95325 0.49293 0.27032 0.0
H2766 H 0.96082 0.4893 0.30169 0.0
H2767 H 0.91147 0.48693 0.33491 0.0
H2768 H 0.93765 0.48811 0.42536 0.0
H2769 H 0.92781 0.49322 0.39455 0.0
C2770 C 0.83319 0.66911 0.5961 0.0
C2771 C 0.82745 0.64944 0.59749 0.0
C2772 C 0.84569 0.67815 0.60875 0.0
C2773 C 0.85712 0.67274 0.65579 0.0
H2774 H 0.88089 0.72379 0.64881 0.0
C2775 C 0.85286 0.72778 0.70981 0.0
C2776 C 0.84129 0.74186 0.70296 0.0
C2777 C 0.86347 0.717 0.6985 0.0
C2778 C 0.87472 0.70939 0.65104 0.0
H2779 H 0.83187 0.62327 0.61206 0.0
H2780 H 0.85417 0.63893 0.63393 0.0
H2781 H 0.87688 0.70069 0.6239 0.0
H2782 H 0.83376 0.75744 0.67932 0.0
H2783 H 0.85216 0.73878 0.6597 0.0
H2784 H 0.85395 0.6817 0.68258 0.0
C2785 C 0.84851 0.64757 0.62342 0.0
C2786 C 0.87225 0.6962 0.63676 0.0
C2787 C 0.83571 0.63859 0.6109 0.0
C2788 C 0.84247 0.74668 0.68504 0.0
C2789 C 0.85314 0.73599 0.67377 0.0
C2790 C 0.85984 0.68578 0.67007 0.0
C2791 C 0.85298 0.66766 0.62298 0.0
C2792 C 0.86203 0.67833 0.63868 0.0
C2793 C 0.86273 0.7202 0.68019 0.0
C2794 C 0.86731 0.70474 0.66751 0.0
H2795 H 0.82719 0.67785 0.58582 0.0
H2796 H 0.84849 0.69366 0.60798 0.0
H2797 H 0.84926 0.65916 0.65794 0.0
H2798 H 0.85268 0.72414 0.7237 0.0
H2799 H 0.87096 0.7051 0.70384 0.0
C2800 C 0.71575 0.61523 0.57599 0.0
C2801 C 0.72741 0.63085 0.57035 0.0
C2802 C 0.69633 0.61482 0.57262 0.0
C2803 C 0.65429 0.61943 0.56689 0.0
H2804 H 0.6441 0.62797 0.51688 0.0
C2805 C 0.58187 0.5988 0.5335 0.0
C2806 C 0.58306 0.58601 0.51894 0.0
C2807 C 0.59787 0.60953 0.54025 0.0
C2808 C 0.64668 0.62575 0.53091 0.0
H2809 H 0.72762 0.65917 0.55832 0.0
H2810 H 0.69375 0.65835 0.55245 0.0
H2811 H 0.67513 0.63726 0.53016 0.0
H2812 H 0.60148 0.57534 0.49931 0.0
H2813 H 0.62943 0.59423 0.511 0.0
H2814 H 0.62609 0.60699 0.56738 0.0
C2815 C 0.69968 0.64633 0.55923 0.0
C2816 C 0.66438 0.63121 0.53856 0.0
C2817 C 0.71908 0.64679 0.56266 0.0
C2818 C 0.60023 0.58505 0.51058 0.0
C2819 C 0.61617 0.59595 0.5172 0.0
C2820 C 0.63653 0.61411 0.55926 0.0
C2821 C 0.68823 0.63 0.56354 0.0
C2822 C 0.66854 0.62754 0.5565 0.0
C2823 C 0.61525 0.60783 0.53243 0.0
C2824 C 0.63277 0.61666 0.54107 0.0
H2825 H 0.7217 0.60278 0.58203 0.0
H2826 H 0.68785 0.602 0.57603 0.0
H2827 H 0.6571 0.61654 0.58076 0.0
H2828 H 0.56884 0.59966 0.54031 0.0
H2829 H 0.59679 0.61867 0.55194 0.0
C2830 C 0.21989 0.93964 0.56883 0.0
C2831 C 0.2304 0.92917 0.55703 0.0
C2832 C 0.20427 0.94915 0.56271 0.0
C2833 C 0.17006 0.95124 0.52454 0.0
H2834 H 0.15922 -0.0004 0.54779 0.0
C2835 C 0.10793 0.99721 0.50264 0.0
C2836 C 0.09598 0.00108 0.51649 0.0
C2837 C 0.1255 0.98984 0.50629 0.0
C2838 C 0.16212 0.98613 0.54116 0.0
H2839 H 0.23278 0.92043 0.52953 0.0
H2840 H 0.20576 0.93751 0.5187 0.0
H2841 H 0.18773 0.98381 0.55635 0.0
H2842 H 0.0933 0.00104 0.54501 0.0
H2843 H 0.12412 0.98869 0.55137 0.0
H2844 H 0.14439 0.95385 0.50923 0.0
C2845 C 0.20935 0.93805 0.53277 0.0
C2846 C 0.17837 0.97697 0.54614 0.0
C2847 C 0.22488 0.9283 0.53896 0.0
C2848 C 0.10219 -0.00186 0.53406 0.0
C2849 C 0.11985 0.99116 0.53771 0.0
C2850 C 0.15391 0.96058 0.51939 0.0
C2851 C 0.19889 0.94869 0.54458 0.0
C2852 C 0.18235 0.95917 0.53818 0.0
C2853 C 0.13155 0.98666 0.52387 0.0
C2854 C 0.14962 0.9779 0.52791 0.0
H2855 H 0.22368 0.94044 0.58286 0.0
H2856 H 0.19632 0.95673 0.57229 0.0
H2857 H 0.17252 0.93748 0.51823 0.0
H2858 H 0.10345 -0.00074 0.48897 0.0
H2859 H 0.13432 0.98655 0.4954 0.0
C2860 C 0.38736 0.95612 0.73263 0.0
C2861 C 0.37581 0.9711 0.72783 0.0
C2862 C 0.37958 0.93879 0.73913 0.0
C2863 C 0.33878 0.91962 0.76261 0.0
H2864 H 0.35713 0.86976 0.74992 0.0
C2865 C 0.30635 0.84617 0.78677 0.0
C2866 C 0.31868 0.8314 0.78998 0.0
C2867 C 0.31302 0.86387 0.78 0.0
C2868 C 0.35204 0.88361 0.75381 0.0
H2869 H 0.34694 0.97931 0.72543 0.0
H2870 H 0.33334 0.94891 0.73676 0.0
H2871 H 0.36871 0.89868 0.73488 0.0
H2872 H 0.34786 0.82412 0.78992 0.0
H2873 H 0.35952 0.85511 0.7786 0.0
H2874 H 0.32224 0.90454 0.78168 0.0
C2875 C 0.34844 0.95073 0.73563 0.0
C2876 C 0.35861 0.90015 0.7451 0.0
C2877 C 0.35622 0.96805 0.72899 0.0
C2878 C 0.33797 0.83515 0.78743 0.0
C2879 C 0.34463 0.85284 0.78078 0.0
C2880 C 0.33224 0.90305 0.77137 0.0
C2881 C 0.36008 0.93607 0.74106 0.0
C2882 C 0.35216 0.91835 0.74949 0.0
C2883 C 0.33215 0.86715 0.7764 0.0
C2884 C 0.33894 0.88487 0.76718 0.0
H2885 H 0.4025 0.95798 0.73189 0.0
H2886 H 0.38893 0.92783 0.74331 0.0
H2887 H 0.33374 0.9335 0.76644 0.0
H2888 H 0.2914 0.8437 0.78853 0.0
H2889 H 0.30302 0.87457 0.77674 0.0
C2890 C 0.32454 0.08149 0.02597 0.0
C2891 C 0.31595 0.07698 0.04194 0.0
C2892 C 0.33845 0.07014 0.01969 0.0
C2893 C 0.3637 0.02541 0.02566 0.0
H2894 H 0.40788 0.06031 0.02099 0.0
C2895 C 0.43878 0.00376 0.00741 0.0
C2896 C 0.45341 0.01207 0.01865 0.0
C2897 C 0.42033 0.00902 0.00922 0.0
C2898 C 0.39564 0.05041 0.02222 0.0
H2899 H 0.31363 0.05589 0.06278 0.0
H2900 H 0.33816 0.03616 0.05186 0.0
H2901 H 0.37725 0.07352 0.02373 0.0
H2902 H 0.46012 0.03176 0.04102 0.0
H2903 H 0.42794 0.0412 0.04393 0.0
H2904 H 0.38249 0.0023 0.02443 0.0
C2905 C 0.3341 0.04844 0.04422 0.0
C2906 C 0.37809 0.05793 0.02355 0.0
C2907 C 0.32013 0.0598 0.05051 0.0
C2908 C 0.44917 0.02517 0.03213 0.0
C2909 C 0.4308 0.03061 0.03377 0.0
C2910 C 0.38135 0.01784 0.02406 0.0
C2911 C 0.34403 0.05411 0.02927 0.0
C2912 C 0.36199 0.04555 0.02555 0.0
C2913 C 0.41633 0.02286 0.02213 0.0
C2914 C 0.39746 0.03036 0.02271 0.0
H2915 H 0.32139 0.09447 0.0189 0.0
H2916 H 0.3457 0.0746 0.00795 0.0
H2917 H 0.35148 0.01559 0.02723 0.0
H2918 H 0.44164 0.99351 0.99697 0.0
H2919 H 0.40936 0.00292 9e-05 0.0
C2920 C 0.69181 0.56999 0.73526 0.0
C2921 C 0.67285 0.56481 0.73074 0.0
C2922 C 0.69823 0.58946 0.73642 0.0
C2923 C 0.68972 0.63739 0.72057 0.0
H2924 H 0.71624 0.65591 0.76405 0.0
C2925 C 0.73503 0.7097 0.72864 0.0
C2926 C 0.73201 0.72111 0.74374 0.0
C2927 C 0.72608 0.69125 0.7264 0.0
C2928 C 0.70875 0.65094 0.75189 0.0
H2929 H 0.64586 0.57589 0.72339 0.0
H2930 H 0.65729 0.61 0.72502 0.0
H2931 H 0.70441 0.62199 0.76118 0.0
H2932 H 0.717 0.72239 0.76815 0.0
H2933 H 0.70168 0.68989 0.76439 0.0
H2934 H 0.69451 0.66628 0.71114 0.0
C2935 C 0.66705 0.59893 0.72782 0.0
C2936 C 0.70214 0.63157 0.7502 0.0
C2937 C 0.66053 0.57946 0.72697 0.0
C2938 C 0.71957 0.71392 0.75637 0.0
C2939 C 0.71087 0.69533 0.75428 0.0
C2940 C 0.69664 0.65672 0.72214 0.0
C2941 C 0.68589 0.60407 0.73277 0.0
C2942 C 0.69262 0.62464 0.73453 0.0
C2943 C 0.71421 0.6838 0.73936 0.0
C2944 C 0.70621 0.66362 0.73782 0.0
H2945 H 0.70161 0.55902 0.73828 0.0
H2946 H 0.71286 0.59312 0.74014 0.0
H2947 H 0.68245 0.63231 0.70835 0.0
H2948 H 0.74449 0.71492 0.71865 0.0
H2949 H 0.72893 0.68254 0.71484 0.0
C2950 C 0.83175 0.44351 0.06168 0.0
C2951 C 0.83191 0.42323 0.06271 0.0
C2952 C 0.84796 0.4545 0.05722 0.0
C2953 C 0.89945 0.45238 0.05318 0.0
H2954 H 0.89293 0.48761 0.01432 0.0
C2955 C 0.96044 0.47447 0.00994 0.0
C2956 C 0.96365 0.49428 0.00651 0.0
C2957 C 0.94374 0.4676 0.01725 0.0
C2958 C 0.89494 0.47802 0.02532 0.0
H2959 H 0.84944 0.39874 0.06098 0.0
H2960 H 0.87756 0.41781 0.05332 0.0
H2961 H 0.86531 0.47298 0.02836 0.0
H2962 H 0.95136 0.52222 0.00707 0.0
H2963 H 0.92195 0.51008 0.0198 0.0
H2964 H 0.92901 0.45698 0.04987 0.0
C2965 C 0.865 0.42528 0.05593 0.0
C2966 C 0.87916 0.46971 0.03342 0.0
C2967 C 0.84883 0.41432 0.06024 0.0
C2968 C 0.94928 0.50688 0.00953 0.0
C2969 C 0.93248 0.49995 0.01686 0.0
C2970 C 0.91517 0.46063 0.04508 0.0
C2971 C 0.86463 0.44542 0.05393 0.0
C2972 C 0.88126 0.45643 0.04714 0.0
C2973 C 0.92984 0.48035 0.0213 0.0
C2974 C 0.91307 0.47313 0.03077 0.0
H2975 H 0.81891 0.4508 0.06349 0.0
H2976 H 0.84734 0.47003 0.05595 0.0
H2977 H 0.90152 0.44249 0.06393 0.0
H2978 H 0.97114 0.46433 0.00761 0.0
H2979 H 0.94189 0.45232 0.02011 0.0
C2980 C 0.3432 0.07955 0.71857 0.0
C2981 C 0.3606 0.07523 0.72645 0.0
C2982 C 0.33464 0.09638 0.72348 0.0
C2983 C 0.3455 0.14518 0.74201 0.0
H2984 H 0.29214 0.14432 0.75057 0.0
C2985 C 0.29005 0.19926 0.77291 0.0
C2986 C 0.29456 0.2162 0.76355 0.0
C2987 C 0.29728 0.18169 0.76799 0.0
C2988 C 0.30707 0.14475 0.74826 0.0
H2989 H 0.38257 0.08506 0.74578 0.0
H2990 H 0.36763 0.11456 0.75427 0.0
H2991 H 0.30661 0.11408 0.74341 0.0
H2992 H 0.30986 0.22787 0.74144 0.0
H2993 H 0.32254 0.19719 0.73295 0.0
H2994 H 0.34599 0.17582 0.74686 0.0
C2995 C 0.36068 0.10493 0.74425 0.0
C2996 C 0.31531 0.1275 0.74406 0.0
C2997 C 0.36917 0.08799 0.73946 0.0
C2998 C 0.30613 0.2151 0.74894 0.0
C2999 C 0.31349 0.19757 0.74414 0.0
C3000 C 0.33723 0.16245 0.74603 0.0
C3001 C 0.34337 0.10932 0.73626 0.0
C3002 C 0.33462 0.12755 0.74092 0.0
C3003 C 0.30931 0.18074 0.75373 0.0
C3004 C 0.31794 0.16241 0.74921 0.0
H3005 H 0.33622 0.06999 0.70852 0.0
H3006 H 0.32137 0.09948 0.717 0.0
H3007 H 0.36038 0.14567 0.7395 0.0
H3008 H 0.28116 0.19963 0.78422 0.0
H3009 H 0.29391 0.16897 0.77569 0.0
C3010 C 0.17998 0.92962 0.2561 0.0
C3011 C 0.18897 0.94286 0.24482 0.0
C3012 C 0.18923 0.91362 0.26219 0.0
C3013 C 0.23586 0.89317 0.26734 0.0
H3014 H 0.20761 0.84379 0.25982 0.0
C3015 C 0.24986 0.80746 0.25709 0.0
C3016 C 0.26149 0.80408 0.27201 0.0
C3017 C 0.24143 0.82505 0.2554 0.0
C3018 C 0.21567 0.85748 0.26198 0.0
H3019 H 0.21499 0.9503 0.23183 0.0
H3020 H 0.23106 0.92243 0.24244 0.0
H3021 H 0.19202 0.87379 0.25509 0.0
H3022 H 0.27391 0.81674 0.29659 0.0
H3023 H 0.25925 0.84762 0.2935 0.0
H3024 H 0.25965 0.87674 0.27379 0.0
C3025 C 0.21692 0.92441 0.24662 0.0
C3026 C 0.20669 0.87464 0.25949 0.0
C3027 C 0.20765 0.94029 0.24043 0.0
C3028 C 0.265 0.81891 0.28494 0.0
C3029 C 0.25666 0.83659 0.28317 0.0
C3030 C 0.24482 0.87596 0.26997 0.0
C3031 C 0.20767 0.91069 0.25724 0.0
C3032 C 0.21676 0.89266 0.26185 0.0
C3033 C 0.24454 0.83968 0.26853 0.0
C3034 C 0.23488 0.85796 0.26697 0.0
H3035 H 0.16561 0.93126 0.25975 0.0
H3036 H 0.18184 0.90335 0.2705 0.0
H3037 H 0.24392 0.90687 0.26937 0.0
H3038 H 0.24689 0.79637 0.24688 0.0
H3039 H 0.2324 0.82719 0.24383 0.0
C3040 C 0.51569 0.33999 0.42297 0.0
C3041 C 0.51772 0.33747 0.40467 0.0
C3042 C 0.52206 0.35729 0.43155 0.0
C3043 C 0.544 0.39178 0.44837 0.0
H3044 H 0.52568 0.4387 0.42843 0.0
C3045 C 0.53428 0.47673 0.47032 0.0
C3046 C 0.52413 0.47284 0.48558 0.0
C3047 C 0.53928 0.46146 0.45935 0.0
C3048 C 0.53134 0.42584 0.43396 0.0
H3049 H 0.52833 0.35096 0.38103 0.0
H3050 H 0.53932 0.38145 0.39613 0.0
H3051 H 0.52367 0.40875 0.41057 0.0
H3052 H 0.51204 0.45011 0.50182 0.0
H3053 H 0.52097 0.42365 0.48295 0.0
H3054 H 0.55052 0.40857 0.47215 0.0
C3055 C 0.5328 0.36996 0.40376 0.0
C3056 C 0.53018 0.40869 0.42376 0.0
C3057 C 0.52652 0.35253 0.39515 0.0
C3058 C 0.51975 0.45354 0.49007 0.0
C3059 C 0.52503 0.43838 0.47937 0.0
C3060 C 0.54509 0.40886 0.45856 0.0
C3061 C 0.53056 0.3725 0.42204 0.0
C3062 C 0.5357 0.39132 0.43118 0.0
C3063 C 0.5346 0.44216 0.46379 0.0
C3064 C 0.53799 0.4258 0.45171 0.0
H3065 H 0.509 0.32866 0.43068 0.0
H3066 H 0.51979 0.35894 0.44559 0.0
H3067 H 0.54874 0.37869 0.45428 0.0
H3068 H 0.53779 0.49152 0.46658 0.0
H3069 H 0.5466 0.46469 0.44735 0.0
C3070 C 0.46963 0.74562 0.20622 0.0
C3071 C 0.47142 0.75334 0.18927 0.0
C3072 C 0.45358 0.7483 0.2158 0.0
C3073 C 0.41036 0.77659 0.21674 0.0
H3074 H 0.39337 0.73488 0.247 0.0
C3075 C 0.33514 0.76476 0.24319 0.0
C3076 C 0.33389 0.76105 0.26137 0.0
C3077 C 0.35261 0.76625 0.23538 0.0
C3078 C 0.39808 0.74673 0.23875 0.0
H3079 H 0.45787 0.77 0.16903 0.0
H3080 H 0.42933 0.77385 0.18528 0.0
H3081 H 0.42204 0.73215 0.23095 0.0
H3082 H 0.34996 0.75637 0.2857 0.0
H3083 H 0.38057 0.75837 0.27185 0.0
H3084 H 0.38555 0.79053 0.22395 0.0
C3085 C 0.44057 0.76626 0.19153 0.0
C3086 C 0.4146 0.74526 0.22958 0.0
C3087 C 0.45687 0.76394 0.1821 0.0
C3088 C 0.35051 0.75933 0.27168 0.0
C3089 C 0.36798 0.76038 0.26377 0.0
C3090 C 0.3936 0.77785 0.22566 0.0
C3091 C 0.43864 0.75837 0.20851 0.0
C3092 C 0.42104 0.76018 0.21843 0.0
C3093 C 0.36915 0.76364 0.24551 0.0
C3094 C 0.38734 0.76294 0.23676 0.0
H3095 H 0.48075 0.73762 0.21221 0.0
H3096 H 0.453 0.74247 0.22898 0.0
H3097 H 0.41494 0.78856 0.20859 0.0
H3098 H 0.32256 0.7662 0.23493 0.0
H3099 H 0.35314 0.76864 0.22127 0.0
C3100 C 0.98695 0.75904 0.9296 0.0
C3101 C 0.98118 0.75709 0.91163 0.0
C3102 C 0.98482 0.74328 0.94085 0.0
C3103 C 0.9637 0.69233 0.94296 0.0
H3104 H 0.00797 0.68538 0.97299 0.0
C3105 C 0.97529 0.61965 0.9772 0.0
C3106 C 0.99373 0.61357 0.97711 0.0
C3107 C 0.97155 0.63855 0.97247 0.0
C3108 C 0.99552 0.68703 0.96461 0.0
H3109 H 0.96773 0.73745 0.89158 0.0
H3110 H 0.9647 0.70997 0.91084 0.0
H3111 H 0.00449 0.71607 0.95864 0.0
H3112 H 0.02263 0.62223 0.97178 0.0
H3113 H 0.01614 0.65482 0.96296 0.0
H3114 H 0.95551 0.66273 0.9478 0.0
C3115 C 0.97046 0.72365 0.91651 0.0
C3116 C 0.99335 0.70482 0.9566 0.0
C3117 C 0.97237 0.73943 0.90536 0.0
C3118 C 0.00833 0.62665 0.9722 0.0
C3119 C 0.00459 0.64539 0.96727 0.0
C3120 C 0.96603 0.67442 0.95074 0.0
C3121 C 0.97709 0.7252 0.9343 0.0
C3122 C 0.97769 0.70752 0.94522 0.0
C3123 C 0.98616 0.65163 0.96735 0.0
C3124 C 0.98228 0.67137 0.96121 0.0
H3125 H 0.99361 0.77255 0.93485 0.0
H3126 H 0.98972 0.74513 0.95457 0.0
H3127 H 0.95123 0.69402 0.93462 0.0
H3128 H 0.96382 0.60986 0.9811 0.0
H3129 H 0.95724 0.64289 0.97288 0.0
C3130 C 0.08175 0.25182 0.69947 0.0
C3131 C 0.08114 0.26139 0.68319 0.0
C3132 C 0.09855 0.25181 0.70972 0.0
C3133 C 0.14962 0.25628 0.70491 0.0
H3134 H 0.15271 0.26535 0.75581 0.0
C3135 C 0.22061 0.26999 0.74249 0.0
C3136 C 0.22321 0.2623 0.75945 0.0
C3137 C 0.20291 0.26897 0.73391 0.0
C3138 C 0.15204 0.26249 0.74164 0.0
H3139 H 0.09764 0.27898 0.66524 0.0
H3140 H 0.12682 0.27892 0.68307 0.0
H3141 H 0.1223 0.26589 0.7397 0.0
H3142 H 0.20911 0.24742 0.78069 0.0
H3143 H 0.17804 0.24533 0.76549 0.0
H3144 H 0.17918 0.25271 0.70671 0.0
C3145 C 0.11436 0.27127 0.68782 0.0
C3146 C 0.13463 0.26287 0.73242 0.0
C3147 C 0.09758 0.2714 0.67766 0.0
C3148 C 0.20759 0.25347 0.76762 0.0
C3149 C 0.18978 0.25239 0.75896 0.0
C3150 C 0.16694 0.25576 0.71411 0.0
C3151 C 0.11511 0.26122 0.70382 0.0
C3152 C 0.13331 0.26007 0.7139 0.0
C3153 C 0.18725 0.26011 0.74197 0.0
C3154 C 0.16846 0.25919 0.73254 0.0
H3155 H 0.06935 0.24399 0.70416 0.0
H3156 H 0.09871 0.2439 0.72196 0.0
H3157 H 0.149 0.25362 0.69071 0.0
H3158 H 0.23227 0.27704 0.73581 0.0
H3159 H 0.20147 0.27544 0.72102 0.0
C3160 C 0.51886 0.6894 0.12381 0.0
C3161 C 0.52365 0.70812 0.11789 0.0
C3162 C 0.52074 0.6732 0.11281 0.0
C3163 C 0.54564 0.65744 0.07327 0.0
H3164 H 0.51072 0.61242 0.07544 0.0
C3165 C 0.54643 0.58789 0.02786 0.0
C3166 C 0.54424 0.5703 0.03683 0.0
C3167 C 0.54453 0.60556 0.03685 0.0
C3168 C 0.52063 0.62488 0.07475 0.0
H3169 H 0.53354 0.72455 0.09551 0.0
H3170 H 0.53632 0.69636 0.07618 0.0
H3171 H 0.50506 0.64165 0.0924 0.0
H3172 H 0.53933 0.55759 0.06248 0.0
H3173 H 0.53598 0.5882 0.07793 0.0
H3174 H 0.56108 0.64049 0.05542 0.0
C3175 C 0.53157 0.69413 0.08948 0.0
C3176 C 0.51743 0.64161 0.08452 0.0
C3177 C 0.52984 0.71032 0.10053 0.0
C3178 C 0.54094 0.57082 0.05508 0.0
C3179 C 0.5389 0.58836 0.06395 0.0
C3180 C 0.54874 0.6407 0.06334 0.0
C3181 C 0.52728 0.67534 0.09555 0.0
C3182 C 0.53005 0.65801 0.08416 0.0
C3183 C 0.54024 0.60587 0.05488 0.0
C3184 C 0.53644 0.62416 0.06426 0.0
H3185 H 0.51418 0.68718 0.13714 0.0
H3186 H 0.51756 0.65896 0.11805 0.0
H3187 H 0.55578 0.6697 0.07282 0.0
H3188 H 0.54898 0.58797 0.01381 0.0
H3189 H 0.54566 0.6189 0.02956 0.0
C3190 C 0.05081 0.77596 0.83379 0.0
C3191 C 0.04575 0.78603 0.84902 0.0
C3192 C 0.06971 0.77536 0.82967 0.0
C3193 C 0.11855 0.78637 0.84858 0.0
H3194 H 0.1306 0.7879 0.79894 0.0
C3195 C 0.19277 0.80528 0.82178 0.0
C3196 C 0.1995 0.79004 0.81166 0.0
C3197 C 0.17399 0.8047 0.82656 0.0
C3198 C 0.12734 0.78748 0.81284 0.0
H3199 H 0.05641 0.80329 0.87192 0.0
H3200 H 0.08913 0.80305 0.86437 0.0
H3201 H 0.09777 0.78652 0.80706 0.0
H3202 H 0.19156 0.76203 0.79899 0.0
H3203 H 0.15871 0.76173 0.80652 0.0
H3204 H 0.14834 0.78819 0.85417 0.0
C3205 C 0.07873 0.79499 0.85587 0.0
C3206 C 0.10857 0.78647 0.81753 0.0
C3207 C 0.05991 0.79523 0.86018 0.0
C3208 C 0.18689 0.77434 0.80632 0.0
C3209 C 0.16809 0.774 0.81075 0.0
C3210 C 0.13731 0.78782 0.84387 0.0
C3211 C 0.0839 0.78519 0.84048 0.0
C3212 C 0.10391 0.78583 0.83547 0.0
C3213 C 0.16156 0.78909 0.82099 0.0
C3214 C 0.1418 0.78831 0.82598 0.0
H3215 H 0.04017 0.76862 0.82503 0.0
H3216 H 0.07315 0.76727 0.81794 0.0
H3217 H 0.11557 0.78551 0.8625 0.0
H3218 H 0.20193 0.81773 0.82594 0.0
H3219 H 0.16911 0.81653 0.83442 0.0
C3220 C 0.03859 0.31979 0.6003 0.0
C3221 C 0.02657 0.31057 0.61228 0.0
C3222 C 0.03247 0.33482 0.58989 0.0
C3223 C 0.01331 0.35906 0.56252 0.0
H3224 H 0.98528 0.39905 0.58402 0.0
C3225 C 0.99168 0.42652 0.52386 0.0
C3226 C 0.99538 0.4442 0.5332 0.0
C3227 C 0.99255 0.4089 0.53268 0.0
C3228 C 0.99308 0.38798 0.5778 0.0
H3229 H -0.00136 0.30995 0.62275 0.0
H3230 H 0.98788 0.33623 0.60447 0.0
H3231 H 0.99304 0.3709 0.60113 0.0
H3232 H 0.00239 0.45722 0.55922 0.0
H3233 H 0.00406 0.4268 0.57436 0.0
H3234 H 0.01411 0.37661 0.53947 0.0
C3235 C 0.00213 0.3319 0.60325 0.0
C3236 C -0.00264 0.37174 0.58756 0.0
C3237 C 0.00828 0.31683 0.61371 0.0
C3238 C -0.00051 0.44389 0.55156 0.0
C3239 C 0.00028 0.4264 0.56032 0.0
C3240 C 0.00904 0.37533 0.55276 0.0
C3241 C 0.01414 0.34102 0.59115 0.0
C3242 C 0.00791 0.35729 0.58018 0.0
C3243 C 0.99699 0.40867 0.55102 0.0
C3244 C -0.00073 0.3902 0.56044 0.0
H3245 H 0.05279 0.31537 0.59889 0.0
H3246 H 0.04224 0.34177 0.58101 0.0
H3247 H 0.02116 0.34802 0.55632 0.0
H3248 H 0.98844 0.42628 0.50972 0.0
H3249 H 0.98982 0.39547 0.52516 0.0
C3250 C 0.43161 0.27954 0.37305 0.0
C3251 C 0.44325 0.27372 0.35954 0.0
C3252 C 0.41292 0.27221 0.37339 0.0
C3253 C 0.38227 0.23035 0.35808 0.0
H3254 H 0.34158 0.265 0.35892 0.0
C3255 C 0.31325 0.21601 0.32018 0.0
C3256 C 0.29755 0.22608 0.32471 0.0
C3257 C 0.32944 0.21721 0.33115 0.0
C3258 C 0.35267 0.25497 0.35926 0.0
H3259 H 0.4442 0.25612 0.33549 0.0
H3260 H 0.41165 0.24341 0.33613 0.0
H3261 H 0.37382 0.27797 0.36429 0.0
H3262 H 0.28539 0.24286 0.34543 0.0
H3263 H 0.31369 0.24479 0.36478 0.0
H3264 H 0.36125 0.20743 0.35242 0.0
C3265 C 0.41708 0.25345 0.34655 0.0
C3266 C 0.37117 0.26248 0.3622 0.0
C3267 C 0.43564 0.26095 0.34607 0.0
C3268 C 0.29737 0.23511 0.34152 0.0
C3269 C 0.31364 0.23636 0.35253 0.0
C3270 C 0.36377 0.22279 0.35534 0.0
C3271 C 0.40567 0.25874 0.36038 0.0
C3272 C 0.38614 0.25036 0.36079 0.0
C3273 C 0.33021 0.22852 0.34688 0.0
C3274 C 0.34883 0.23517 0.355 0.0
H3275 H 0.43708 0.28936 0.38362 0.0
H3276 H 0.40431 0.27662 0.38409 0.0
H3277 H 0.39361 0.22066 0.35732 0.0
H3278 H 0.31367 0.20872 0.30738 0.0
H3279 H 0.34188 0.21094 0.32633 0.0
C3280 C 0.44859 0.50613 0.33954 0.0
C3281 C 0.43471 0.51504 0.32947 0.0
C3282 C 0.45215 0.51137 0.35731 0.0
C3283 C 0.44718 0.54801 0.39197 0.0
H3284 H 0.44639 0.50351 0.42252 0.0
C3285 C 0.45471 0.52441 0.47032 0.0
C3286 C 0.47207 0.53425 0.47497 0.0
C3287 C 0.44673 0.52583 0.45327 0.0
C3288 C 0.44633 0.51613 0.41425 0.0
H3289 H 0.41457 0.53736 0.32975 0.0
H3290 H 0.42101 0.54665 0.36095 0.0
H3291 H 0.44071 0.4987 0.39077 0.0
H3292 H 0.49366 0.55489 0.46603 0.0
H3293 H 0.47982 0.55717 0.43623 0.0
H3294 H 0.4533 0.5654 0.41559 0.0
C3295 C 0.42899 0.53553 0.35503 0.0
C3296 C 0.44335 0.51334 0.39604 0.0
C3297 C 0.42531 0.53018 0.33722 0.0
C3298 C 0.48036 0.54697 0.4628 0.0
C3299 C 0.47237 0.54838 0.44573 0.0
C3300 C 0.45038 0.55082 0.41028 0.0
C3301 C 0.442 0.52571 0.36534 0.0
C3302 C 0.44409 0.52919 0.3847 0.0
C3303 C 0.45595 0.53712 0.44057 0.0
C3304 C 0.4502 0.53485 0.42155 0.0
H3305 H 0.45618 0.49451 0.33394 0.0
H3306 H 0.46249 0.50382 0.36494 0.0
H3307 H 0.44775 0.56046 0.38346 0.0
H3308 H 0.44783 0.51469 0.47948 0.0
H3309 H 0.43386 0.51727 0.44971 0.0
C3310 C 0.28212 0.62684 0.07111 0.0
C3311 C 0.28054 0.63864 0.05623 0.0
C3312 C 0.2795 0.63438 0.0881 0.0
C3313 C 0.2564 0.67359 0.11056 0.0
H3314 H 0.28986 0.66349 0.15055 0.0
C3315 C 0.25694 0.71679 0.17661 0.0
C3316 C 0.25995 0.70678 0.19239 0.0
C3317 C 0.25829 0.70746 0.16019 0.0
C3318 C 0.28021 0.6662 0.13957 0.0
H3319 H 0.27558 0.66776 0.04761 0.0
H3320 H 0.27116 0.68081 0.07714 0.0
H3321 H 0.29509 0.64899 0.12157 0.0
H3322 H 0.2665 0.67902 0.20326 0.0
H3323 H 0.26832 0.66264 0.17464 0.0
H3324 H 0.24155 0.69084 0.12848 0.0
C3325 C 0.27411 0.66568 0.07566 0.0
C3326 C 0.28324 0.65792 0.12299 0.0
C3327 C 0.27679 0.65821 0.05875 0.0
C3328 C 0.26385 0.6871 0.19137 0.0
C3329 C 0.26517 0.67777 0.17496 0.0
C3330 C 0.25334 0.68181 0.12714 0.0
C3331 C 0.27517 0.6538 0.09048 0.0
C3332 C 0.2715 0.66173 0.10828 0.0
C3333 C 0.26268 0.68791 0.15919 0.0
C3334 C 0.26532 0.67837 0.14179 0.0
H3335 H 0.28499 0.6117 0.06962 0.0
H3336 H 0.28034 0.62488 0.09931 0.0
H3337 H 0.24691 0.67649 0.09951 0.0
H3338 H 0.25376 0.73191 0.17695 0.0
H3339 H 0.25645 0.71573 0.14828 0.0
C3340 C 0.10245 0.49766 0.82581 0.0
C3341 C 0.10961 0.51672 0.8233 0.0
C3342 C 0.08931 0.49372 0.83879 0.0
C3343 C 0.05779 0.51899 0.86936 0.0
H3344 H 0.05837 0.47072 0.89445 0.0
C3345 C 0.01596 0.51005 0.93226 0.0
C3346 C 0.02495 0.50062 0.94619 0.0
C3347 C 0.02228 0.50849 0.91499 0.0
C3348 C 0.05811 0.4844 0.88775 0.0
H3349 H 0.10929 0.54648 0.83267 0.0
H3350 H 0.08761 0.5396 0.85598 0.0
H3351 H 0.07841 0.47576 0.86959 0.0
H3352 H 0.04701 0.48145 0.9529 0.0
H3353 H 0.05871 0.47969 0.9234 0.0
H3354 H 0.03898 0.52844 0.88845 0.0
C3355 C 0.09114 0.5277 0.84746 0.0
C3356 C 0.06943 0.48716 0.87317 0.0
C3357 C 0.10381 0.53167 0.83422 0.0
C3358 C 0.0397 0.48882 0.94241 0.0
C3359 C 0.04635 0.4877 0.92532 0.0
C3360 C 0.04694 0.51646 0.88422 0.0
C3361 C 0.08345 0.50871 0.84982 0.0
C3362 C 0.06984 0.50473 0.86406 0.0
C3363 C 0.03811 0.49797 0.91141 0.0
C3364 C 0.0473 0.49933 0.89396 0.0
H3365 H 0.1066 0.48591 0.81741 0.0
H3366 H 0.08359 0.47896 0.83996 0.0
H3367 H 0.05709 0.53245 0.86234 0.0
H3368 H 0.00442 0.51908 0.93479 0.0
H3369 H 0.0151 0.5161 0.90461 0.0
C3370 C 0.22059 0.3544 0.58039 0.0
C3371 C 0.22688 0.37061 0.57082 0.0
C3372 C 0.22622 0.35268 0.59818 0.0
C3373 C 0.267 0.36422 0.62617 0.0
H3374 H 0.23625 0.34641 0.66461 0.0
C3375 C 0.27569 0.33977 0.70351 0.0
C3376 C 0.28665 0.32372 0.7015 0.0
C3377 C 0.26904 0.34936 0.68866 0.0
C3378 C 0.24497 0.35161 0.65405 0.0
H3379 H 0.24296 0.39833 0.5727 0.0
H3380 H 0.2531 0.39503 0.60367 0.0
H3381 H 0.22112 0.35643 0.63684 0.0
H3382 H 0.30012 0.30566 0.68266 0.0
H3383 H 0.28893 0.32286 0.65659 0.0
H3384 H 0.29082 0.35835 0.64299 0.0
C3385 C 0.24377 0.38376 0.59738 0.0
C3386 C 0.23634 0.35724 0.63821 0.0
C3387 C 0.23788 0.38564 0.5797 0.0
C3388 C 0.29174 0.31806 0.68449 0.0
C3389 C 0.28539 0.32789 0.66965 0.0
C3390 C 0.27562 0.35823 0.64187 0.0
C3391 C 0.23843 0.36701 0.60659 0.0
C3392 C 0.2473 0.36334 0.62408 0.0
C3393 C 0.27356 0.34325 0.67161 0.0
C3394 C 0.26466 0.35164 0.65582 0.0
H3395 H 0.21205 0.34263 0.57393 0.0
H3396 H 0.222 0.33959 0.60503 0.0
H3397 H 0.27573 0.36867 0.61536 0.0
H3398 H 0.27139 0.34424 0.7165 0.0
H3399 H 0.25995 0.36119 0.69044 0.0
C3400 C 0.45142 0.50158 0.23124 0.0
C3401 C 0.43214 0.49588 0.23079 0.0
C3402 C 0.46167 0.50042 0.21589 0.0
C3403 C 0.46556 0.47376 0.17546 0.0
H3404 H 0.48616 0.52096 0.15484 0.0
C3405 C 0.49411 0.47475 0.10497 0.0
C3406 C 0.50823 0.4889 0.10091 0.0
C3407 C 0.48614 0.47472 0.12159 0.0
C3408 C 0.48093 0.50755 0.16056 0.0
H3409 H 0.40854 0.48422 0.2141 0.0
H3410 H 0.4267 0.48164 0.18737 0.0
H3411 H 0.47006 0.52265 0.18264 0.0
H3412 H 0.52541 0.51374 0.11173 0.0
H3413 H 0.51268 0.51267 0.14087 0.0
H3414 H 0.47684 0.45846 0.15387 0.0
C3415 C 0.4337 0.48724 0.19956 0.0
C3416 C 0.47157 0.50861 0.17642 0.0
C3417 C 0.42334 0.48884 0.21478 0.0
C3418 C 0.51478 0.5024 0.11427 0.0
C3419 C 0.50714 0.50207 0.13099 0.0
C3420 C 0.4753 0.47262 0.15981 0.0
C3421 C 0.45289 0.49307 0.20002 0.0
C3422 C 0.46364 0.49176 0.18383 0.0
C3423 C 0.49236 0.48857 0.13476 0.0
C3424 C 0.48293 0.48953 0.15201 0.0
H3425 H 0.45852 0.50709 0.24341 0.0
H3426 H 0.47648 0.50501 0.21644 0.0
H3427 H 0.4596 0.46058 0.1811 0.0
H3428 H 0.48893 0.46384 0.09523 0.0
H3429 H 0.47469 0.46416 0.12385 0.0
C3430 C 0.29549 0.69129 0.97134 0.0
C3431 C 0.29686 0.67155 0.96737 0.0
C3432 C 0.30107 0.70529 0.95922 0.0
C3433 C 0.32381 0.71197 0.91547 0.0
H3434 H 0.29109 0.75465 0.91248 0.0
C3435 C 0.29177 0.76355 0.85897 0.0
C3436 C 0.30739 0.7658 0.84826 0.0
C3437 C 0.29363 0.75577 0.8758 0.0
C3438 C 0.30031 0.74278 0.91303 0.0
H3439 H 0.30563 0.65081 0.94803 0.0
H3440 H 0.31426 0.67503 0.9263 0.0
H3441 H 0.28868 0.7328 0.93697 0.0
H3442 H 0.33749 0.76321 0.84732 0.0
H3443 H 0.34093 0.75044 0.87708 0.0
H3444 H 0.33417 0.72094 0.8906 0.0
C3445 C 0.3096 0.67997 0.939 0.0
C3446 C 0.29919 0.73036 0.92734 0.0
C3447 C 0.30452 0.666 0.95138 0.0
C3448 C 0.32516 0.76144 0.85522 0.0
C3449 C 0.32709 0.75395 0.87223 0.0
C3450 C 0.32463 0.72415 0.90093 0.0
C3451 C 0.30756 0.69981 0.94259 0.0
C3452 C 0.31059 0.71446 0.92856 0.0
C3453 C 0.31122 0.75037 0.8825 0.0
C3454 C 0.31251 0.7394 0.89926 0.0
H3455 H 0.28987 0.69592 0.98375 0.0
H3456 H 0.29984 0.72039 0.96279 0.0
H3457 H 0.33319 0.70024 0.91613 0.0
H3458 H 0.27787 0.76669 0.85396 0.0
H3459 H 0.281 0.753 0.88309 0.0
C3460 C 0.13184 0.51234 0.71466 0.0
C3461 C 0.12486 0.51987 0.73035 0.0
C3462 C 0.12152 0.51312 0.6986 0.0
C3463 C 0.0919 0.50639 0.66881 0.0
H3464 H 0.06475 0.55195 0.65802 0.0
C3465 C 0.03826 0.50686 0.61016 0.0
C3466 C 0.03825 0.5235 0.59974 0.0
C3467 C 0.0487 0.50693 0.62616 0.0
C3468 C 0.07238 0.53919 0.66077 0.0
H3469 H 0.10143 0.53394 0.74148 0.0
H3470 H 0.08335 0.53498 0.71358 0.0
H3471 H 0.0838 0.55117 0.68549 0.0
H3472 H 0.04894 0.55344 0.59823 0.0
H3473 H 0.06753 0.55346 0.62607 0.0
H3474 H 0.08084 0.49456 0.64394 0.0
C3475 C 0.09696 0.52881 0.7136 0.0
C3476 C 0.08311 0.53865 0.67661 0.0
C3477 C 0.10728 0.52807 0.72964 0.0
C3478 C 0.04875 0.54034 0.60587 0.0
C3479 C 0.05926 0.5404 0.6219 0.0
C3480 C 0.0812 0.50695 0.65298 0.0
C3481 C 0.10397 0.5214 0.69788 0.0
C3482 C 0.09292 0.52219 0.68085 0.0
C3483 C 0.05951 0.52361 0.63213 0.0
C3484 C 0.07121 0.5233 0.64882 0.0
H3485 H 0.14537 0.506 0.71472 0.0
H3486 H 0.12743 0.50749 0.68669 0.0
H3487 H 0.09914 0.49342 0.67174 0.0
H3488 H 0.03059 0.49353 0.60575 0.0
H3489 H 0.04835 0.49385 0.63384 0.0
C3490 C 0.18816 0.33995 0.46572 0.0
C3491 C 0.18976 0.33019 0.48174 0.0
C3492 C 0.17968 0.33052 0.45072 0.0
C3493 C 0.17104 0.27992 0.43386 0.0
H3494 H 0.1621 0.30781 0.39065 0.0
C3495 C 0.17818 0.27232 0.35263 0.0
C3496 C 0.19464 0.26211 0.3535 0.0
C3497 C 0.16934 0.27734 0.36818 0.0
C3498 C 0.16407 0.29953 0.40254 0.0
H3499 H 0.18178 0.30391 0.49541 0.0
H3500 H 0.16565 0.28786 0.46963 0.0
H3501 H 0.15879 0.32386 0.41902 0.0
H3502 H 0.21457 0.24893 0.37122 0.0
H3503 H 0.19981 0.25808 0.39803 0.0
H3504 H 0.17561 0.2554 0.41737 0.0
C3505 C 0.17194 0.30235 0.46818 0.0
C3506 C 0.16255 0.30892 0.41893 0.0
C3507 C 0.18103 0.31158 0.48305 0.0
C3508 C 0.20171 0.25648 0.37008 0.0
C3509 C 0.19309 0.26167 0.38553 0.0
C3510 C 0.17192 0.27037 0.41752 0.0
C3511 C 0.17211 0.31124 0.45152 0.0
C3512 C 0.16748 0.29973 0.43479 0.0
C3513 C 0.17697 0.27248 0.38488 0.0
C3514 C 0.16993 0.28049 0.40166 0.0
H3515 H 0.19479 0.35434 0.46437 0.0
H3516 H 0.18044 0.338 0.4383 0.0
H3517 H 0.17475 0.27202 0.44558 0.0
H3518 H 0.17236 0.2767 0.33998 0.0
H3519 H 0.15683 0.28544 0.36712 0.0
C3520 C 0.28692 0.38533 0.48693 0.0
C3521 C 0.28027 0.37103 0.49846 0.0
C3522 C 0.30611 0.39043 0.48653 0.0
C3523 C 0.35378 0.38017 0.50468 0.0
H3524 H 0.35816 0.43613 0.5107 0.0
C3525 C 0.42407 0.42781 0.51441 0.0
C3526 C 0.42378 0.44361 0.5264 0.0
C3527 C 0.40774 0.41601 0.51056 0.0
C3528 C 0.35717 0.42049 0.50915 0.0
H3529 H 0.28843 0.3494 0.51717 0.0
H3530 H 0.32198 0.35874 0.51692 0.0
H3531 H 0.328 0.42014 0.50199 0.0
H3532 H 0.40676 0.45844 0.54487 0.0
H3533 H 0.37831 0.43782 0.53823 0.0
H3534 H 0.38312 0.38079 0.51246 0.0
C3535 C 0.31246 0.36583 0.50799 0.0
C3536 C 0.33994 0.41131 0.50382 0.0
C3537 C 0.29323 0.36048 0.50816 0.0
C3538 C 0.40727 0.44659 0.53533 0.0
C3539 C 0.39101 0.43481 0.53152 0.0
C3540 C 0.37117 0.38944 0.50998 0.0
C3541 C 0.31893 0.38163 0.49795 0.0
C3542 C 0.33795 0.39105 0.50167 0.0
C3543 C 0.39091 0.41986 0.51863 0.0
C3544 C 0.37289 0.40967 0.51255 0.0
H3545 H 0.2772 0.39347 0.47912 0.0
H3546 H 0.31075 0.40229 0.47826 0.0
H3547 H 0.35265 0.36454 0.50313 0.0
H3548 H 0.43659 0.42525 0.50724 0.0
H3549 H 0.40803 0.40461 0.50055 0.0
C3550 C 0.84364 0.06876 0.51202 0.0
C3551 C 0.83704 0.08456 0.50272 0.0
C3552 C 0.86092 0.06153 0.5083 0.0
C3553 C 0.90651 0.07546 0.48976 0.0
H3554 H 0.91301 0.02026 0.49222 0.0
C3555 C 0.9788 0.04273 0.48224 0.0
C3556 C 0.9835 0.02984 0.49566 0.0
C3557 C 0.96044 0.04866 0.48021 0.0
C3558 C 0.9114 0.03571 0.4915 0.0
H3559 H 0.84331 0.10502 0.48203 0.0
H3560 H 0.87361 0.09224 0.47543 0.0
H3561 H 0.88158 0.03216 0.49365 0.0
H3562 H 0.97252 0.01265 0.51713 0.0
H3563 H 0.94057 0.02292 0.51352 0.0
H3564 H 0.93643 0.07898 0.48792 0.0
C3565 C 0.86541 0.08559 0.48572 0.0
C3566 C 0.89342 0.04254 0.49235 0.0
C3567 C 0.84804 0.09285 0.48945 0.0
C3568 C 0.96937 0.02261 0.50667 0.0
C3569 C 0.95103 0.02839 0.50453 0.0
C3570 C 0.92451 0.06861 0.48883 0.0
C3571 C 0.87206 0.06987 0.49516 0.0
C3572 C 0.89082 0.06253 0.49196 0.0
C3573 C 0.9464 0.04165 0.49142 0.0
C3574 C 0.92717 0.0487 0.49014 0.0
H3575 H 0.83555 0.06206 0.52236 0.0
H3576 H 0.86575 0.04965 0.51606 0.0
H3577 H 0.90501 0.09096 0.48957 0.0
H3578 H 0.98938 0.04855 0.47354 0.0
H3579 H 0.95722 0.0588 0.46992 0.0
C3580 C 0.69489 0.05762 0.29158 0.0
C3581 C 0.67615 0.05432 0.29644 0.0
C3582 C 0.70374 0.07619 0.29296 0.0
C3583 C 0.6923 0.12712 0.29251 0.0
H3584 H 0.74508 0.13689 0.30607 0.0
C3585 C 0.72879 0.20413 0.29437 0.0
C3586 C 0.74691 0.20601 0.28764 0.0
C3587 C 0.72006 0.18581 0.29692 0.0
C3588 C 0.73036 0.13436 0.30211 0.0
H3589 H 0.6523 0.06781 0.30739 0.0
H3590 H 0.66783 0.10021 0.30989 0.0
H3591 H 0.73022 0.10442 0.30889 0.0
H3592 H 0.77 0.19011 0.27815 0.0
H3593 H 0.75466 0.15819 0.28235 0.0
H3594 H 0.69249 0.15694 0.28542 0.0
C3595 C 0.67557 0.08845 0.30477 0.0
C3596 C 0.72185 0.11578 0.30377 0.0
C3597 C 0.66672 0.06985 0.30344 0.0
C3598 C 0.75605 0.18918 0.2834 0.0
C3599 C 0.74732 0.17087 0.28594 0.0
C3600 C 0.70082 0.14569 0.29083 0.0
C3601 C 0.69403 0.09189 0.2992 0.0
C3602 C 0.70277 0.11191 0.2988 0.0
C3603 C 0.72926 0.16897 0.2928 0.0
C3604 C 0.72 0.14947 0.29541 0.0
H3605 H 0.70259 0.04598 0.28617 0.0
H3606 H 0.71792 0.07838 0.28842 0.0
H3607 H 0.67765 0.12455 0.2883 0.0
H3608 H 0.72139 0.21682 0.29785 0.0
H3609 H 0.70622 0.18484 0.30239 0.0
C3610 C 0.6946 0.9277 0.01554 0.0
C3611 C 0.70115 0.91753 0.00105 0.0
C3612 C 0.68103 0.94119 0.01297 0.0
C3613 C 0.64456 0.95364 0.9791 0.0
H3614 H 0.63384 0.99001 0.01646 0.0
C3615 C 0.56967 0.97414 0.9894 0.0
C3616 C 0.56607 0.99127 -0.00149 0.0
C3617 C 0.58807 0.96922 0.98708 0.0
C3618 C 0.63669 0.98031 0.0056 0.0
H3619 H 0.7001 0.9144 0.97248 0.0
H3620 H 0.67758 0.93909 0.96772 0.0
H3621 H 0.66398 0.97587 0.01672 0.0
H3622 H 0.57872 0.01727 0.01158 0.0
H3623 H 0.61103 0.00934 0.0066 0.0
H3624 H 0.6178 0.95905 0.96735 0.0
C3625 C 0.6819 0.93597 0.9812 0.0
C3626 C 0.65396 0.97179 0.00597 0.0
C3627 C 0.69496 0.92193 0.98386 0.0
C3628 C 0.5812 0.00384 0.00467 0.0
C3629 C 0.5997 -0.0008 0.00189 0.0
C3630 C 0.62761 0.96269 0.97837 0.0
C3631 C 0.67417 0.94528 0.99576 0.0
C3632 C 0.65774 0.95752 0.99327 0.0
C3633 C 0.60341 0.98161 0.99335 0.0
C3634 C 0.62297 0.97532 0.99214 0.0
H3635 H 0.69916 0.92443 0.02895 0.0
H3636 H 0.67533 0.94757 0.02463 0.0
H3637 H 0.64668 0.94281 0.96897 0.0
H3638 H 0.55822 0.96411 0.98466 0.0
H3639 H 0.59014 0.95529 0.98091 0.0
C3640 C 0.38307 0.42966 0.29697 0.0
C3641 C 0.373 0.44534 0.29111 0.0
C3642 C 0.37359 0.41221 0.30119 0.0
C3643 C 0.32798 0.38953 0.31286 0.0
H3644 H 0.34417 0.3448 0.28721 0.0
C3645 C 0.28188 0.31819 0.30234 0.0
C3646 C 0.291 0.30097 0.30008 0.0
C3647 C 0.29242 0.33585 0.30468 0.0
C3648 C 0.33967 0.35697 0.29486 0.0
H3649 H 0.34508 0.45532 0.28583 0.0
H3650 H 0.32854 0.4248 0.29331 0.0
H3651 H 0.36186 0.37571 0.2854 0.0
H3652 H 0.31799 0.28818 0.30005 0.0
H3653 H 0.33636 0.31869 0.30508 0.0
H3654 H 0.30575 0.37075 0.32235 0.0
C3655 C 0.34376 0.42607 0.29461 0.0
C3656 C 0.3498 0.37472 0.29372 0.0
C3657 C 0.35324 0.44345 0.29017 0.0
C3658 C 0.31068 0.30139 0.30144 0.0
C3659 C 0.32118 0.31889 0.3042 0.0
C3660 C 0.31794 0.37164 0.31422 0.0
C3661 C 0.35387 0.41021 0.29985 0.0
C3662 C 0.34392 0.3912 0.3025 0.0
C3663 C 0.31223 0.33643 0.30514 0.0
C3664 C 0.32354 0.35519 0.30504 0.0
H3665 H 0.3983 0.4307 0.2979 0.0
H3666 H 0.38167 0.40018 0.30529 0.0
H3667 H 0.32326 0.40207 0.31982 0.0
H3668 H 0.26667 0.31814 0.30131 0.0
H3669 H 0.28504 0.34906 0.30523 0.0
C3670 C 0.2149 0.60361 0.97981 0.0
C3671 C 0.22894 0.59196 0.98644 0.0
C3672 C 0.19622 0.59628 0.97797 0.0
C3673 C 0.16505 0.55126 0.97807 0.0
H3674 H 0.12995 0.58517 -0.00135 0.0
C3675 C 0.09163 0.52362 -0.00014 0.0
C3676 C 0.07658 0.53537 0.99633 0.0
C3677 C 0.11009 0.53043 0.99695 0.0
C3678 C 0.13949 0.57561 0.99262 0.0
H3679 H 0.23457 0.56306 0.99515 0.0
H3680 H 0.20201 0.55037 0.9921 0.0
H3681 H 0.16237 0.59701 0.99514 0.0
H3682 H 0.06909 0.56349 0.98695 0.0
H3683 H 0.10123 0.57528 0.98179 0.0
H3684 H 0.14214 0.52974 0.97586 0.0
C3685 C 0.20542 0.56514 0.98824 0.0
C3686 C 0.15808 0.58242 0.99056 0.0
C3687 C 0.22409 0.57246 0.99007 0.0
C3688 C 0.08038 0.5541 0.98991 0.0
C3689 C 0.09881 0.56089 0.98699 0.0
C3690 C 0.14642 0.54445 0.98013 0.0
C3691 C 0.1912 0.57715 0.98271 0.0
C3692 C 0.17112 0.57028 0.98341 0.0
C3693 C 0.11387 0.54913 0.99045 0.0
C3694 C 0.13348 0.5565 0.98759 0.0
H3695 H 0.21816 0.61864 0.97672 0.0
H3696 H 0.18562 0.60577 0.97333 0.0
H3697 H 0.17473 0.54163 0.97236 0.0
H3698 H 0.08918 0.50912 0.00481 0.0
H3699 H 0.12142 0.52113 -1e-05 0.0
C3700 C 0.70291 0.9456 0.27728 0.0
C3701 C 0.68722 0.95018 0.28688 0.0
C3702 C 0.71221 0.92883 0.28082 0.0
C3703 C 0.70508 0.88047 0.29986 0.0
H3704 H 0.75918 0.8803 0.29606 0.0
C3705 C 0.74475 0.81035 0.30679 0.0
C3706 C 0.7568 0.80699 0.29289 0.0
C3707 C 0.73754 0.82856 0.30918 0.0
C3708 C 0.74407 0.88013 0.29716 0.0
H3709 H 0.6691 0.94085 0.30792 0.0
H3710 H 0.68548 0.91152 0.31422 0.0
H3711 H 0.74386 0.91086 0.29455 0.0
H3712 H 0.77144 0.82033 0.27114 0.0
H3713 H 0.75898 0.85202 0.27538 0.0
H3714 H 0.7053 0.84966 0.30216 0.0
C3715 C 0.69046 0.92086 0.30381 0.0
C3716 C 0.73527 0.89761 0.29625 0.0
C3717 C 0.68112 0.93769 0.30025 0.0
C3718 C 0.76216 0.82242 0.28195 0.0
C3719 C 0.7551 0.84063 0.28444 0.0
C3720 C 0.7139 0.86298 0.30085 0.0
C3721 C 0.70608 0.91621 0.29409 0.0
C3722 C 0.71562 0.89794 0.29715 0.0
C3723 C 0.74242 0.8438 0.29785 0.0
C3724 C 0.73343 0.86257 0.2991 0.0
H3725 H 0.70796 0.95487 0.26685 0.0
H3726 H 0.72395 0.92554 0.27284 0.0
H3727 H 0.68991 0.88016 0.30042 0.0
H3728 H 0.74035 0.79875 0.31543 0.0
H3729 H 0.72792 0.83064 0.31972 0.0
C3730 C 0.86414 0.07322 0.76995 0.0
C3731 C 0.87953 0.06895 0.78106 0.0
C3732 C 0.85441 0.08977 0.77307 0.0
C3733 C 0.86015 0.13807 0.79423 0.0
H3734 H 0.80604 0.13721 0.78611 0.0
C3735 C 0.81936 0.20708 0.80133 0.0
C3736 C 0.80692 0.21037 0.78696 0.0
C3737 C 0.82695 0.18904 0.80326 0.0
C3738 C 0.82116 0.13766 0.7884 0.0
H3739 H 0.89662 0.07852 0.80434 0.0
H3740 H 0.8795 0.10745 0.80985 0.0
H3741 H 0.82196 0.10698 0.78465 0.0
H3742 H 0.79211 0.19712 0.76373 0.0
H3743 H 0.8054 0.16572 0.76706 0.0
H3744 H 0.85939 0.16879 0.79762 0.0
C3745 C 0.87511 0.09807 0.79861 0.0
C3746 C 0.83028 0.12038 0.78754 0.0
C3747 C 0.88487 0.08148 0.79549 0.0
C3748 C 0.80168 0.19506 0.77494 0.0
C3749 C 0.80921 0.17702 0.7769 0.0
C3750 C 0.85102 0.15535 0.79513 0.0
C3751 C 0.85981 0.10242 0.78739 0.0
C3752 C 0.84992 0.12045 0.79008 0.0
C3753 C 0.82216 0.17392 0.7909 0.0
C3754 C 0.83148 0.15536 0.79188 0.0
H3755 H 0.85968 0.06387 0.75871 0.0
H3756 H 0.84289 0.09287 0.764 0.0
H3757 H 0.87532 0.13864 0.79606 0.0
H3758 H 0.82361 0.21857 0.81087 0.0
H3759 H 0.83674 0.18698 0.81428 0.0
loop_
_geom_bond_atom_site_label_1
_geom_bond_atom_site_label_2
_geom_bond_distance
_geom_bond_site_symmetry_2
_ccdc_geom_bond_type
O0 Cd1 2.223 . S
O0 C8 1.315 . S
Cd1 O0 2.223 . S
Cd1 O4 2.297 . S
Cd1 O5 2.439 . S
Cd1 O11 2.240 . S
Cd2 O3 2.240 . S
Cd2 O10 2.223 . S
Cd2 O12 2.297 . S
Cd2 O13 2.439 . S
O3 Cd2 2.240 . S
O3 C8 1.279 . S
O4 Cd1 2.297 . S
O4 C6 1.247 . S
O5 Cd1 2.439 . S
O5 C6 1.208 . S
C6 O4 1.247 . S
C6 O5 1.208 . S
C7 O12 1.247 . S
C7 O13 1.208 . S
C8 O0 1.315 . S
C8 O3 1.279 . S
C9 O10 1.315 . S
C9 O11 1.279 . S
O10 Cd2 2.223 . S
O10 C9 1.315 . S
O11 Cd1 2.240 . S
O11 C9 1.279 . S
O12 Cd2 2.297 . S
O12 C7 1.247 . S
O13 Cd2 2.439 . S
O13 C7 1.208 . S
O14 Cd15 2.223 . S
O14 C22 1.315 . S
Cd15 O14 2.223 . S
Cd15 O18 2.297 . S
Cd15 O19 2.439 . S
Cd15 O25 2.240 . S
Cd16 O17 2.240 . S
Cd16 O24 2.223 . S
Cd16 O26 2.297 1_455 S
Cd16 O27 2.439 1_455 S
O17 Cd16 2.240 . S
O17 C22 1.279 . S
O18 Cd15 2.297 . S
O18 C20 1.247 . S
O19 Cd15 2.439 . S
O19 C20 1.208 . S
C20 O18 1.247 . S
C20 O19 1.208 . S
C21 O26 1.247 . S
C21 O27 1.208 . S
C22 O14 1.315 . S
C22 O17 1.279 . S
C23 O24 1.315 . S
C23 O25 1.279 . S
O24 Cd16 2.223 . S
O24 C23 1.315 . S
O25 Cd15 2.240 . S
O25 C23 1.279 . S
O26 Cd16 2.297 1_655 S
O26 C21 1.247 . S
O27 Cd16 2.439 1_655 S
O27 C21 1.208 . S
O28 Cd29 2.223 . S
O28 C36 1.315 . S
Cd29 O28 2.223 . S
Cd29 O32 2.297 . S
Cd29 O33 2.439 . S
Cd29 O39 2.240 . S
Cd30 O31 2.240 . S
Cd30 O38 2.223 . S
Cd30 O40 2.297 . S
Cd30 O41 2.439 . S
O31 Cd30 2.240 . S
O31 C36 1.279 . S
O32 Cd29 2.297 . S
O32 C34 1.247 . S
O33 Cd29 2.439 . S
O33 C34 1.208 . S
C34 O32 1.247 . S
C34 O33 1.208 . S
C35 O40 1.247 . S
C35 O41 1.208 . S
C36 O28 1.315 . S
C36 O31 1.279 . S
C37 O38 1.315 . S
C37 O39 1.279 . S
O38 Cd30 2.223 . S
O38 C37 1.315 . S
O39 Cd29 2.240 . S
O39 C37 1.279 . S
O40 Cd30 2.297 . S
O40 C35 1.247 . S
O41 Cd30 2.439 . S
O41 C35 1.208 . S
O42 Cd43 2.223 . S
O42 C50 1.315 . S
Cd43 O42 2.223 . S
Cd43 O46 2.297 . S
Cd43 O47 2.439 . S
Cd43 O53 2.240 . S
Cd44 O45 2.240 . S
Cd44 O52 2.223 . S
Cd44 O54 2.297 . S
Cd44 O55 2.439 . S
O45 Cd44 2.240 . S
O45 C50 1.279 . S
O46 Cd43 2.297 . S
O46 C48 1.247 . S
O47 Cd43 2.439 . S
O47 C48 1.208 . S
C48 O46 1.247 . S
C48 O47 1.208 . S
C49 O54 1.247 . S
C49 O55 1.208 . S
C50 O42 1.315 . S
C50 O45 1.279 . S
C51 O52 1.315 . S
C51 O53 1.279 . S
O52 Cd44 2.223 . S
O52 C51 1.315 . S
O53 Cd43 2.240 . S
O53 C51 1.279 . S
O54 Cd44 2.297 . S
O54 C49 1.247 . S
O55 Cd44 2.439 . S
O55 C49 1.208 . S
O56 Cd57 2.223 1_545 S
O56 C64 1.315 . S
Cd57 O56 2.223 1_565 S
Cd57 O60 2.297 . S
Cd57 O61 2.439 . S
Cd57 O67 2.240 1_565 S
Cd58 O59 2.240 1_545 S
Cd58 O66 2.223 . S
Cd58 O68 2.297 . S
Cd58 O69 2.466 . S
O59 Cd58 2.240 1_565 S
O59 C64 1.279 1_565 S
O60 Cd57 2.297 . S
O60 C62 1.247 . S
O61 Cd57 2.439 . S
O61 C62 1.208 . S
C62 O60 1.247 . S
C62 O61 1.208 . S
C63 O68 1.247 . S
C63 O69 1.252 . S
C64 O56 1.315 . S
C64 O59 1.279 1_545 S
C65 O66 1.315 . S
C65 O67 1.279 . S
O66 Cd58 2.223 . S
O66 C65 1.315 . S
O67 Cd57 2.240 1_545 S
O67 C65 1.279 . S
O68 Cd58 2.297 . S
O68 C63 1.247 . S
O69 Cd58 2.466 . S
O69 C63 1.252 . S
O70 Cd71 2.223 . S
O70 C78 1.315 . S
Cd71 O70 2.223 . S
Cd71 O74 2.297 . S
Cd71 O75 2.439 . S
Cd71 O81 2.240 . S
Cd72 O73 2.240 . S
Cd72 O80 2.223 . S
Cd72 O82 2.297 . S
Cd72 O83 2.439 . S
O73 Cd72 2.240 . S
O73 C78 1.279 . S
O74 Cd71 2.297 . S
O74 C76 1.247 . S
O75 Cd71 2.439 . S
O75 C76 1.208 . S
C76 O74 1.247 . S
C76 O75 1.208 . S
C77 O82 1.247 . S
C77 O83 1.208 . S
C78 O70 1.315 . S
C78 O73 1.279 . S
C79 O80 1.315 . S
C79 O81 1.279 . S
O80 Cd72 2.223 . S
O80 C79 1.315 . S
O81 Cd71 2.240 . S
O81 C79 1.279 . S
O82 Cd72 2.297 . S
O82 C77 1.247 . S
O83 Cd72 2.439 . S
O83 C77 1.208 . S
O84 Cd85 2.223 . S
O84 C92 1.315 . S
Cd85 O84 2.223 . S
Cd85 O88 2.297 . S
Cd85 O89 2.439 . S
Cd85 O95 2.240 1_545 S
Cd86 O87 2.240 . S
Cd86 O94 2.223 1_545 S
Cd86 O96 2.297 1_545 S
Cd86 O97 2.439 . S
O87 Cd86 2.240 . S
O87 C92 1.279 . S
O88 Cd85 2.297 . S
O88 C90 1.247 . S
O89 Cd85 2.439 . S
O89 C90 1.208 . S
C90 O88 1.247 . S
C90 O89 1.208 . S
C91 O96 1.247 1_545 S
C91 O97 1.208 . S
C92 O84 1.315 . S
C92 O87 1.279 . S
C93 O94 1.315 . S
C93 O95 1.279 . S
O94 Cd86 2.223 1_565 S
O94 C93 1.315 . S
O95 Cd85 2.240 1_565 S
O95 C93 1.279 . S
O96 Cd86 2.297 1_565 S
O96 C91 1.247 1_565 S
O97 Cd86 2.439 . S
O97 C91 1.208 . S
O98 Cd99 2.223 . S
O98 C106 1.315 . S
Cd99 O98 2.223 . S
Cd99 O102 2.297 . S
Cd99 O103 2.439 . S
Cd99 O109 2.240 . S
Cd100 O101 2.240 . S
Cd100 O108 2.223 . S
Cd100 O110 2.297 1_554 S
Cd100 O111 2.439 1_554 S
O101 Cd100 2.240 . S
O101 C106 1.279 . S
O102 Cd99 2.297 . S
O102 C104 1.247 . S
O103 Cd99 2.439 . S
O103 C104 1.208 . S
C104 O102 1.247 . S
C104 O103 1.208 . S
C105 O110 1.247 . S
C105 O111 1.208 . S
C106 O98 1.315 . S
C106 O101 1.279 . S
C107 O108 1.315 . S
C107 O109 1.279 . S
O108 Cd100 2.223 . S
O108 C107 1.315 . S
O109 Cd99 2.240 . S
O109 C107 1.279 . S
O110 Cd100 2.297 1_556 S
O110 C105 1.247 . S
O111 Cd100 2.439 1_556 S
O111 C105 1.208 . S
O112 Cd113 2.223 . S
O112 C120 1.315 . S
Cd113 O112 2.223 . S
Cd113 O116 2.297 . S
Cd113 O117 2.439 . S
Cd113 O123 2.240 . S
Cd114 O115 2.240 . S
Cd114 O122 2.223 . S
Cd114 O124 2.297 . S
Cd114 O125 2.439 . S
O115 Cd114 2.240 . S
O115 C120 1.279 . S
O116 Cd113 2.297 . S
O116 C118 1.247 . S
O117 Cd113 2.439 . S
O117 C118 1.208 . S
C118 O116 1.247 . S
C118 O117 1.208 . S
C119 O124 1.263 . S
C119 O125 1.229 . S
C120 O112 1.315 . S
C120 O115 1.279 . S
C121 O122 1.315 . S
C121 O123 1.279 . S
O122 Cd114 2.223 . S
O122 C121 1.315 . S
O123 Cd113 2.240 . S
O123 C121 1.279 . S
O124 Cd114 2.297 . S
O124 C119 1.263 . S
O125 Cd114 2.439 . S
O125 C119 1.229 . S
O126 Cd127 2.223 . S
O126 C134 1.315 . S
Cd127 O126 2.223 . S
Cd127 O130 2.297 . S
Cd127 O131 2.439 . S
Cd127 O137 2.240 . S
Cd128 O129 2.240 . S
Cd128 O136 2.223 . S
Cd128 O138 2.297 . S
Cd128 O139 2.439 . S
O129 Cd128 2.240 . S
O129 C134 1.279 . S
O130 Cd127 2.297 . S
O130 C132 1.247 . S
O131 Cd127 2.439 . S
O131 C132 1.208 . S
C132 O130 1.247 . S
C132 O131 1.208 . S
C133 O138 1.247 . S
C133 O139 1.208 . S
C134 O126 1.315 . S
C134 O129 1.279 . S
C135 O136 1.315 . S
C135 O137 1.279 . S
O136 Cd128 2.223 . S
O136 C135 1.315 . S
O137 Cd127 2.240 . S
O137 C135 1.279 . S
O138 Cd128 2.297 . S
O138 C133 1.247 . S
O139 Cd128 2.439 . S
O139 C133 1.208 . S
O140 Cd141 2.223 . S
O140 C148 1.315 . S
Cd141 O140 2.223 . S
Cd141 O144 2.297 . S
Cd141 O145 2.439 . S
Cd141 O151 2.240 . S
Cd142 O143 2.240 . S
Cd142 O150 2.223 . S
Cd142 O152 2.297 . S
Cd142 O153 2.439 . S
O143 Cd142 2.240 . S
O143 C148 1.279 . S
O144 Cd141 2.297 . S
O144 C146 1.247 . S
O145 Cd141 2.439 . S
O145 C146 1.208 . S
C146 O144 1.247 . S
C146 O145 1.208 . S
C147 O152 1.247 . S
C147 O153 1.208 . S
C148 O140 1.315 . S
C148 O143 1.279 . S
C149 O150 1.315 . S
C149 O151 1.279 . S
O150 Cd142 2.223 . S
O150 C149 1.315 . S
O151 Cd141 2.240 . S
O151 C149 1.279 . S
O152 Cd142 2.297 . S
O152 C147 1.247 . S
O153 Cd142 2.439 . S
O153 C147 1.208 . S
O154 Cd155 2.223 . S
O154 C162 1.315 . S
Cd155 O154 2.223 . S
Cd155 O158 2.297 . S
Cd155 O159 2.439 . S
Cd155 O165 2.240 . S
Cd156 O157 2.240 . S
Cd156 O164 2.223 . S
Cd156 O166 2.297 . S
Cd156 O167 2.439 . S
O157 Cd156 2.240 . S
O157 C162 1.279 . S
O158 Cd155 2.297 . S
O158 C160 1.247 . S
O159 Cd155 2.439 . S
O159 C160 1.208 . S
C160 O158 1.247 . S
C160 O159 1.208 . S
C161 O166 1.247 . S
C161 O167 1.208 . S
C162 O154 1.315 . S
C162 O157 1.279 . S
C163 O164 1.315 . S
C163 O165 1.279 . S
O164 Cd156 2.223 . S
O164 C163 1.315 . S
O165 Cd155 2.240 . S
O165 C163 1.279 . S
O166 Cd156 2.297 . S
O166 C161 1.247 . S
O167 Cd156 2.439 . S
O167 C161 1.208 . S
O168 Cd169 2.223 . S
O168 C176 1.315 . S
Cd169 O168 2.223 . S
Cd169 O172 2.297 . S
Cd169 O173 2.439 1_455 S
Cd169 O179 2.240 1_455 S
Cd170 O171 2.240 1_655 S
Cd170 O178 2.223 1_655 S
Cd170 O180 2.297 . S
Cd170 O181 2.439 . S
O171 Cd170 2.240 1_455 S
O171 C176 1.279 . S
O172 Cd169 2.297 . S
O172 C174 1.247 . S
O173 Cd169 2.439 1_655 S
O173 C174 1.208 1_655 S
C174 O172 1.247 . S
C174 O173 1.208 1_455 S
C175 O180 1.247 . S
C175 O181 1.208 . S
C176 O168 1.315 . S
C176 O171 1.279 . S
C177 O178 1.315 . S
C177 O179 1.279 1_455 S
O178 Cd170 2.223 1_455 S
O178 C177 1.315 . S
O179 Cd169 2.240 1_655 S
O179 C177 1.279 1_655 S
O180 Cd170 2.297 . S
O180 C175 1.247 . S
O181 Cd170 2.439 . S
O181 C175 1.208 . S
O182 Cd183 2.223 . S
O182 C190 1.315 . S
Cd183 O182 2.223 . S
Cd183 O186 2.297 1_455 S
Cd183 O187 2.439 1_455 S
Cd183 O193 2.240 . S
Cd184 O185 2.240 . S
Cd184 O192 2.223 . S
Cd184 O194 2.297 . S
Cd184 O195 2.439 . S
O185 Cd184 2.240 . S
O185 C190 1.279 . S
O186 Cd183 2.297 1_655 S
O186 C188 1.247 . S
O187 Cd183 2.439 1_655 S
O187 C188 1.208 . S
C188 O186 1.247 . S
C188 O187 1.208 . S
C189 O194 1.247 . S
C189 O195 1.208 . S
C190 O182 1.315 . S
C190 O185 1.279 . S
C191 O192 1.315 . S
C191 O193 1.279 . S
O192 Cd184 2.223 . S
O192 C191 1.315 . S
O193 Cd183 2.240 . S
O193 C191 1.279 . S
O194 Cd184 2.297 . S
O194 C189 1.247 . S
O195 Cd184 2.439 . S
O195 C189 1.208 . S
O196 Cd197 2.223 . S
O196 C204 1.315 . S
Cd197 O196 2.223 . S
Cd197 O200 2.297 . S
Cd197 O201 2.439 . S
Cd197 O207 2.240 . S
Cd198 O199 2.240 . S
Cd198 O206 2.223 . S
Cd198 O208 2.297 . S
Cd198 O209 2.439 . S
O199 Cd198 2.240 . S
O199 C204 1.279 . S
O200 Cd197 2.297 . S
O200 C202 1.247 . S
O201 Cd197 2.439 . S
O201 C202 1.208 . S
C202 O200 1.247 . S
C202 O201 1.208 . S
C203 O208 1.247 . S
C203 O209 1.208 . S
C204 O196 1.315 . S
C204 O199 1.279 . S
C205 O206 1.315 . S
C205 O207 1.279 . S
O206 Cd198 2.223 . S
O206 C205 1.315 . S
O207 Cd197 2.240 . S
O207 C205 1.279 . S
O208 Cd198 2.297 . S
O208 C203 1.247 . S
O209 Cd198 2.439 . S
O209 C203 1.208 . S
O210 Cd211 2.223 . S
O210 C218 1.315 . S
Cd211 O210 2.223 . S
Cd211 O214 2.297 . S
Cd211 O215 2.439 . S
Cd211 O221 2.240 . S
Cd212 O213 2.240 . S
Cd212 O220 2.223 . S
Cd212 O222 2.297 . S
Cd212 O223 2.439 . S
O213 Cd212 2.240 . S
O213 C218 1.279 . S
O214 Cd211 2.297 . S
O214 C216 1.247 . S
O215 Cd211 2.439 . S
O215 C216 1.208 . S
C216 O214 1.247 . S
C216 O215 1.208 . S
C217 O222 1.247 . S
C217 O223 1.208 . S
C218 O210 1.315 . S
C218 O213 1.279 . S
C219 O220 1.315 . S
C219 O221 1.279 . S
O220 Cd212 2.223 . S
O220 C219 1.315 . S
O221 Cd211 2.240 . S
O221 C219 1.279 . S
O222 Cd212 2.297 . S
O222 C217 1.247 . S
O223 Cd212 2.439 . S
O223 C217 1.208 . S
O224 Cd225 2.223 . S
O224 C232 1.315 . S
Cd225 O224 2.223 . S
Cd225 O228 2.297 . S
Cd225 O229 2.439 . S
Cd225 O235 2.240 1_545 S
Cd226 O227 2.240 1_565 S
Cd226 O234 2.223 . S
Cd226 O236 2.297 . S
Cd226 O237 2.439 1_565 S
O227 Cd226 2.240 1_545 S
O227 C232 1.279 . S
O228 Cd225 2.297 . S
O228 C230 1.247 . S
O229 Cd225 2.439 . S
O229 C230 1.208 . S
C230 O228 1.247 . S
C230 O229 1.208 . S
C231 O236 1.268 . S
C231 O237 1.190 1_565 S
C232 O224 1.315 . S
C232 O227 1.279 . S
C233 O234 1.315 . S
C233 O235 1.279 . S
O234 Cd226 2.223 . S
O234 C233 1.315 . S
O235 Cd225 2.240 1_565 S
O235 C233 1.279 . S
O236 Cd226 2.297 . S
O236 C231 1.268 . S
O237 Cd226 2.439 1_545 S
O237 C231 1.190 1_545 S
O238 Cd239 2.223 . S
O238 C246 1.315 . S
Cd239 O238 2.223 . S
Cd239 O242 2.297 . S
Cd239 O243 2.439 . S
Cd239 O249 2.240 . S
Cd240 O241 2.240 . S
Cd240 O248 2.223 . S
Cd240 O250 2.297 . S
Cd240 O251 2.439 . S
O241 Cd240 2.240 . S
O241 C246 1.279 . S
O242 Cd239 2.297 . S
O242 C244 1.247 . S
O243 Cd239 2.439 . S
O243 C244 1.208 . S
C244 O242 1.247 . S
C244 O243 1.208 . S
C245 O250 1.247 . S
C245 O251 1.208 . S
C246 O238 1.315 . S
C246 O241 1.279 . S
C247 O248 1.315 . S
C247 O249 1.279 . S
O248 Cd240 2.223 . S
O248 C247 1.315 . S
O249 Cd239 2.240 . S
O249 C247 1.279 . S
O250 Cd240 2.297 . S
O250 C245 1.247 . S
O251 Cd240 2.439 . S
O251 C245 1.208 . S
O252 Cd253 2.223 . S
O252 C260 1.315 . S
Cd253 O252 2.223 . S
Cd253 O256 2.297 1_545 S
Cd253 O257 2.439 1_545 S
Cd253 O263 2.240 . S
Cd254 O255 2.240 . S
Cd254 O262 2.223 . S
Cd254 O264 2.297 . S
Cd254 O265 2.439 . S
O255 Cd254 2.240 . S
O255 C260 1.279 . S
O256 Cd253 2.297 1_565 S
O256 C258 1.247 . S
O257 Cd253 2.439 1_565 S
O257 C258 1.208 . S
C258 O256 1.247 . S
C258 O257 1.208 . S
C259 O264 1.247 . S
C259 O265 1.208 . S
C260 O252 1.315 . S
C260 O255 1.279 . S
C261 O262 1.315 . S
C261 O263 1.279 . S
O262 Cd254 2.223 . S
O262 C261 1.315 . S
O263 Cd253 2.240 . S
O263 C261 1.279 . S
O264 Cd254 2.297 . S
O264 C259 1.247 . S
O265 Cd254 2.439 . S
O265 C259 1.208 . S
O266 Cd267 2.223 . S
O266 C274 1.315 . S
Cd267 O266 2.223 . S
Cd267 O270 2.297 . S
Cd267 O271 2.439 . S
Cd267 O277 2.240 . S
Cd268 O269 2.240 . S
Cd268 O276 2.223 . S
Cd268 O278 2.297 1_554 S
Cd268 O279 2.439 1_554 S
O269 Cd268 2.240 . S
O269 C274 1.279 . S
O270 Cd267 2.297 . S
O270 C272 1.247 . S
O271 Cd267 2.439 . S
O271 C272 1.208 . S
C272 O270 1.247 . S
C272 O271 1.208 . S
C273 O278 1.247 . S
C273 O279 1.208 . S
C274 O266 1.315 . S
C274 O269 1.279 . S
C275 O276 1.315 . S
C275 O277 1.279 . S
O276 Cd268 2.223 . S
O276 C275 1.315 . S
O277 Cd267 2.240 . S
O277 C275 1.279 . S
O278 Cd268 2.297 1_556 S
O278 C273 1.247 . S
O279 Cd268 2.439 1_556 S
O279 C273 1.208 . S
O280 Cd281 2.223 . S
O280 C288 1.315 . S
Cd281 O280 2.223 . S
Cd281 O284 2.297 . S
Cd281 O285 2.439 1_554 S
Cd281 O291 2.240 1_554 S
Cd282 O283 2.240 1_556 S
Cd282 O290 2.223 1_556 S
Cd282 O292 2.297 . S
Cd282 O293 2.439 . S
O283 Cd282 2.240 1_554 S
O283 C288 1.279 . S
O284 Cd281 2.297 . S
O284 C286 1.247 . S
O285 Cd281 2.439 1_556 S
O285 C286 1.208 1_556 S
C286 O284 1.247 . S
C286 O285 1.208 1_554 S
C287 O292 1.247 . S
C287 O293 1.208 . S
C288 O280 1.315 . S
C288 O283 1.279 . S
C289 O290 1.320 . S
C289 O291 1.263 1_554 S
O290 Cd282 2.223 1_554 S
O290 C289 1.320 . S
O291 Cd281 2.240 1_556 S
O291 C289 1.263 1_556 S
O292 Cd282 2.297 . S
O292 C287 1.247 . S
O293 Cd282 2.439 . S
O293 C287 1.208 . S
O294 Cd295 2.223 . S
O294 C302 1.315 . S
Cd295 O294 2.223 . S
Cd295 O298 2.297 . S
Cd295 O299 2.439 . S
Cd295 O305 2.240 . S
Cd296 O297 2.240 . S
Cd296 O304 2.223 . S
Cd296 O306 2.297 . S
Cd296 O307 2.439 . S
O297 Cd296 2.240 . S
O297 C302 1.279 . S
O298 Cd295 2.297 . S
O298 C300 1.247 . S
O299 Cd295 2.439 . S
O299 C300 1.208 . S
C300 O298 1.247 . S
C300 O299 1.208 . S
C301 O306 1.247 . S
C301 O307 1.208 . S
C302 O294 1.315 . S
C302 O297 1.279 . S
C303 O304 1.315 . S
C303 O305 1.279 . S
O304 Cd296 2.223 . S
O304 C303 1.315 . S
O305 Cd295 2.240 . S
O305 C303 1.279 . S
O306 Cd296 2.297 . S
O306 C301 1.247 . S
O307 Cd296 2.439 . S
O307 C301 1.208 . S
O308 Cd309 2.223 . S
O308 C316 1.315 . S
Cd309 O308 2.223 . S
Cd309 O312 2.297 . S
Cd309 O313 2.439 . S
Cd309 O319 2.240 . S
Cd310 O311 2.240 . S
Cd310 O318 2.223 . S
Cd310 O320 2.297 . S
Cd310 O321 2.439 . S
O311 Cd310 2.240 . S
O311 C316 1.279 . S
O312 Cd309 2.297 . S
O312 C314 1.247 . S
O313 Cd309 2.439 . S
O313 C314 1.208 . S
C314 O312 1.247 . S
C314 O313 1.208 . S
C315 O320 1.247 . S
C315 O321 1.208 . S
C316 O308 1.315 . S
C316 O311 1.279 . S
C317 O318 1.315 . S
C317 O319 1.279 . S
O318 Cd310 2.223 . S
O318 C317 1.315 . S
O319 Cd309 2.240 . S
O319 C317 1.279 . S
O320 Cd310 2.297 . S
O320 C315 1.247 . S
O321 Cd310 2.439 . S
O321 C315 1.208 . S
O322 Cd323 2.223 . S
O322 C330 1.315 . S
Cd323 O322 2.223 . S
Cd323 O326 2.297 . S
Cd323 O327 2.439 . S
Cd323 O333 2.240 . S
Cd324 O325 2.240 . S
Cd324 O332 2.223 . S
Cd324 O334 2.297 . S
Cd324 O335 2.439 . S
O325 Cd324 2.240 . S
O325 C330 1.279 . S
O326 Cd323 2.297 . S
O326 C328 1.247 . S
O327 Cd323 2.439 . S
O327 C328 1.208 . S
C328 O326 1.247 . S
C328 O327 1.208 . S
C329 O334 1.247 . S
C329 O335 1.208 . S
C330 O322 1.315 . S
C330 O325 1.279 . S
C331 O332 1.315 . S
C331 O333 1.279 . S
O332 Cd324 2.223 . S
O332 C331 1.315 . S
O333 Cd323 2.240 . S
O333 C331 1.279 . S
O334 Cd324 2.297 . S
O334 C329 1.247 . S
O335 Cd324 2.439 . S
O335 C329 1.208 . S
C336 O352 1.251 1_556 S
C336 O354 1.261 . S
N337 C338 1.333 . S
N337 C342 1.307 . S
N337 Zn343 2.020 1_655 S
C338 N337 1.333 . S
C338 C339 1.379 . S
C338 H356 0.952 1_565 S
C339 C338 1.379 . S
C339 C340 1.390 . S
C339 H366 0.949 . S
C340 C339 1.390 . S
C340 C341 1.357 . S
C341 C340 1.357 . S
C341 C342 1.370 . S
C341 H367 0.950 . S
C342 N337 1.307 . S
C342 C341 1.370 . S
C342 H360 0.948 . S
Zn343 N337 2.020 1_455 S
Zn343 O352 2.039 1_565 S
Zn343 O358 2.034 1_565 S
Zn343 O362 2.025 . S
Zn343 O364 2.024 . S
C344 O363 1.246 . S
C344 O364 1.249 . S
N345 C346 1.307 . S
N345 C347 1.333 . S
N345 Zn351 2.020 . S
C346 N345 1.307 . S
C346 C350 1.370 . S
C346 H357 0.942 1_554 S
C347 N345 1.333 . S
C347 C348 1.379 . S
C347 H355 0.952 1_545 S
C348 C347 1.379 . S
C348 C349 1.390 . S
C348 H368 0.949 . S
C349 C348 1.390 . S
C349 C350 1.357 . S
C350 C346 1.370 . S
C350 C349 1.357 . S
C350 H369 0.950 1_554 S
Zn351 N345 2.020 . S
Zn351 O354 1.991 1_554 S
Zn351 O359 2.024 . S
Zn351 O361 2.039 1_545 S
Zn351 O363 2.034 1_545 S
O352 C336 1.251 1_554 S
O352 Zn343 2.039 1_545 S
C353 O358 1.246 . S
C353 O359 1.249 . S
O354 C336 1.261 . S
O354 Zn351 1.991 1_556 S
H355 C347 0.952 1_565 S
H356 C338 0.952 1_545 S
H357 C346 0.942 1_556 S
O358 Zn343 2.034 1_545 S
O358 C353 1.246 . S
O359 Zn351 2.024 . S
O359 C353 1.249 . S
H360 C342 0.948 . S
O361 Zn351 2.039 1_565 S
O361 C365 1.251 . S
O362 Zn343 2.025 . S
O362 C365 1.254 . S
O363 C344 1.246 . S
O363 Zn351 2.034 1_565 S
O364 Zn343 2.024 . S
O364 C344 1.249 . S
C365 O361 1.251 . S
C365 O362 1.254 . S
H366 C339 0.949 . S
H367 C341 0.950 . S
H368 C348 0.949 . S
H369 C350 0.950 1_556 S
C370 O386 1.251 . S
C370 O388 1.254 . S
N371 C372 1.333 . S
N371 C376 1.307 . S
N371 Zn377 2.020 . S
C372 N371 1.333 . S
C372 C373 1.379 . S
C372 H390 0.952 . S
C373 C372 1.379 . S
C373 C374 1.390 . S
C373 H400 0.949 . S
C374 C373 1.390 . S
C374 C375 1.357 . S
C375 C374 1.357 . S
C375 C376 1.370 . S
C375 H401 0.950 . S
C376 N371 1.307 . S
C376 C375 1.370 . S
C376 H394 0.948 . S
Zn377 N371 2.020 . S
Zn377 O386 2.039 . S
Zn377 O392 2.034 . S
Zn377 O396 2.025 . S
Zn377 O398 2.024 . S
C378 O397 1.246 . S
C378 O398 1.249 . S
N379 C380 1.307 . S
N379 C381 1.333 . S
N379 Zn385 2.020 . S
C380 N379 1.307 . S
C380 C384 1.370 . S
C380 H391 0.948 . S
C381 N379 1.333 . S
C381 C382 1.379 . S
C381 H389 0.952 . S
C382 C381 1.379 . S
C382 C383 1.390 . S
C382 H402 0.949 . S
C383 C382 1.390 . S
C383 C384 1.357 . S
C384 C380 1.370 . S
C384 C383 1.357 . S
C384 H403 0.950 . S
Zn385 N379 2.020 . S
Zn385 O388 2.025 . S
Zn385 O393 2.024 . S
Zn385 O395 2.039 . S
Zn385 O397 2.034 . S
O386 C370 1.251 . S
O386 Zn377 2.039 . S
C387 O392 1.246 . S
C387 O393 1.249 . S
O388 C370 1.254 . S
O388 Zn385 2.025 . S
H389 C381 0.952 . S
H390 C372 0.952 . S
H391 C380 0.948 . S
O392 Zn377 2.034 . S
O392 C387 1.246 . S
O393 Zn385 2.024 . S
O393 C387 1.249 . S
H394 C376 0.948 . S
O395 Zn385 2.039 . S
O395 C399 1.251 . S
O396 Zn377 2.025 . S
O396 C399 1.254 . S
O397 C378 1.246 . S
O397 Zn385 2.034 . S
O398 Zn377 2.024 . S
O398 C378 1.249 . S
C399 O395 1.251 . S
C399 O396 1.254 . S
H400 C373 0.949 . S
H401 C375 0.950 . S
H402 C382 0.949 . S
H403 C384 0.950 . S
C404 O420 1.251 . S
C404 O422 1.254 . S
N405 C406 1.333 . S
N405 C410 1.307 . S
N405 Zn411 2.003 1_565 S
C406 N405 1.333 . S
C406 C407 1.379 . S
C406 H424 0.952 . S
C407 C406 1.379 . S
C407 C408 1.390 . S
C407 H434 0.949 . S
C408 C407 1.390 . S
C408 C409 1.357 . S
C409 C408 1.357 . S
C409 C410 1.370 . S
C409 H435 0.950 . S
C410 N405 1.307 . S
C410 C409 1.370 . S
C410 H428 0.948 . S
Zn411 N405 2.003 1_545 S
Zn411 O420 2.047 . S
Zn411 O426 2.044 . S
Zn411 O430 2.024 1_545 S
Zn411 O432 2.021 1_545 S
C412 O431 1.246 . S
C412 O432 1.249 1_545 S
N413 C414 1.307 . S
N413 C415 1.333 . S
N413 Zn419 2.020 . S
C414 N413 1.307 . S
C414 C418 1.370 . S
C414 H425 0.948 . S
C415 N413 1.333 . S
C415 C416 1.379 . S
C415 H423 0.952 . S
C416 C415 1.379 . S
C416 C417 1.390 . S
C416 H436 0.949 . S
C417 C416 1.390 . S
C417 C418 1.357 . S
C418 C414 1.370 . S
C418 C417 1.357 . S
C418 H437 0.950 . S
Zn419 N413 2.020 . S
Zn419 O422 2.025 . S
Zn419 O427 2.024 . S
Zn419 O429 2.039 . S
Zn419 O431 2.034 . S
O420 C404 1.251 . S
O420 Zn411 2.047 . S
C421 O426 1.246 . S
C421 O427 1.249 . S
O422 C404 1.254 . S
O422 Zn419 2.025 . S
H423 C415 0.952 . S
H424 C406 0.952 . S
H425 C414 0.948 . S
O426 Zn411 2.044 . S
O426 C421 1.246 . S
O427 Zn419 2.024 . S
O427 C421 1.249 . S
H428 C410 0.948 . S
O429 Zn419 2.039 . S
O429 C433 1.251 . S
O430 Zn411 2.024 1_565 S
O430 C433 1.254 1_565 S
O431 C412 1.246 . S
O431 Zn419 2.034 . S
O432 Zn411 2.021 1_565 S
O432 C412 1.249 1_565 S
C433 O429 1.251 . S
C433 O430 1.254 1_545 S
H434 C407 0.949 . S
H435 C409 0.950 . S
H436 C416 0.949 . S
H437 C418 0.950 . S
C438 O454 1.251 . S
C438 O456 1.254 . S
N439 C440 1.333 . S
N439 C444 1.307 . S
N439 Zn445 2.020 . S
C440 N439 1.333 . S
C440 C441 1.379 . S
C440 H458 0.952 . S
C441 C440 1.379 . S
C441 C442 1.390 . S
C441 H468 0.949 . S
C442 C441 1.390 . S
C442 C443 1.357 . S
C443 C442 1.357 . S
C443 C444 1.370 . S
C443 H469 0.950 . S
C444 N439 1.307 . S
C444 C443 1.370 . S
C444 H462 0.948 . S
Zn445 N439 2.020 . S
Zn445 O454 2.039 . S
Zn445 O460 2.034 . S
Zn445 O464 2.025 . S
Zn445 O466 2.024 . S
C446 O465 1.246 . S
C446 O466 1.249 . S
N447 C448 1.307 . S
N447 C449 1.333 . S
N447 Zn453 2.020 . S
C448 N447 1.307 . S
C448 C452 1.370 . S
C448 H459 0.948 . S
C449 N447 1.333 . S
C449 C450 1.379 . S
C449 H457 0.952 . S
C450 C449 1.379 . S
C450 C451 1.390 . S
C450 H470 0.949 . S
C451 C450 1.390 . S
C451 C452 1.357 . S
C452 C448 1.370 . S
C452 C451 1.357 . S
C452 H471 0.950 . S
Zn453 N447 2.020 . S
Zn453 O456 2.025 . S
Zn453 O461 2.024 . S
Zn453 O463 2.039 . S
Zn453 O465 2.034 . S
O454 C438 1.251 . S
O454 Zn445 2.039 . S
C455 O460 1.246 . S
C455 O461 1.249 . S
O456 C438 1.254 . S
O456 Zn453 2.025 . S
H457 C449 0.952 . S
H458 C440 0.952 . S
H459 C448 0.948 . S
O460 Zn445 2.034 . S
O460 C455 1.246 . S
O461 Zn453 2.024 . S
O461 C455 1.249 . S
H462 C444 0.948 . S
O463 Zn453 2.039 . S
O463 C467 1.251 . S
O464 Zn445 2.025 . S
O464 C467 1.254 . S
O465 C446 1.246 . S
O465 Zn453 2.034 . S
O466 Zn445 2.024 . S
O466 C446 1.249 . S
C467 O463 1.251 . S
C467 O464 1.254 . S
H468 C441 0.949 . S
H469 C443 0.950 . S
H470 C450 0.949 . S
H471 C452 0.950 . S
C472 O488 1.247 1_565 S
C472 O490 1.254 . S
N473 C474 1.333 . S
N473 C478 1.307 . S
N473 Zn479 2.020 . S
C474 N473 1.333 . S
C474 C475 1.379 . S
C474 H492 0.952 . S
C475 C474 1.379 . S
C475 C476 1.390 . S
C475 H502 0.949 . S
C476 C475 1.390 . S
C476 C477 1.357 . S
C477 C476 1.357 . S
C477 C478 1.370 . S
C477 H503 0.950 . S
C478 N473 1.307 . S
C478 C477 1.370 . S
C478 H496 0.948 . S
Zn479 N473 2.020 . S
Zn479 O488 2.039 . S
Zn479 O494 2.034 . S
Zn479 O498 2.025 . S
Zn479 O500 2.024 1_545 S
C480 O499 1.246 . S
C480 O500 1.249 . S
N481 C482 1.307 . S
N481 C483 1.333 1_455 S
N481 Zn487 2.020 1_565 S
C482 N481 1.307 . S
C482 C486 1.370 . S
C482 H493 0.948 1_565 S
C483 N481 1.333 1_655 S
C483 C484 1.379 . S
C483 H491 0.952 . S
C484 C483 1.379 . S
C484 C485 1.390 . S
C484 H504 0.949 . S
C485 C484 1.390 . S
C485 C486 1.357 1_655 S
C486 C482 1.370 . S
C486 C485 1.357 1_455 S
C486 H505 0.950 . S
Zn487 N481 2.020 1_545 S
Zn487 O490 2.025 1_545 S
Zn487 O495 2.024 . S
Zn487 O497 2.039 1_455 S
Zn487 O499 2.034 1_545 S
O488 C472 1.247 1_545 S
O488 Zn479 2.039 . S
C489 O494 1.246 . S
C489 O495 1.249 . S
O490 C472 1.254 . S
O490 Zn487 2.025 1_565 S
H491 C483 0.952 . S
H492 C474 0.952 . S
H493 C482 0.948 1_545 S
O494 Zn479 2.034 . S
O494 C489 1.246 . S
O495 Zn487 2.024 . S
O495 C489 1.249 . S
H496 C478 0.948 . S
O497 Zn487 2.039 1_655 S
O497 C501 1.251 . S
O498 Zn479 2.025 . S
O498 C501 1.254 1_455 S
O499 C480 1.246 . S
O499 Zn487 2.034 1_565 S
O500 Zn479 2.024 1_565 S
O500 C480 1.249 . S
C501 O497 1.251 . S
C501 O498 1.254 1_655 S
H502 C475 0.949 . S
H503 C477 0.950 . S
H504 C484 0.949 . S
H505 C486 0.950 . S
C506 O522 1.251 . S
C506 O524 1.254 . S
N507 C508 1.333 . S
N507 C512 1.307 . S
N507 Zn513 2.020 . S
C508 N507 1.333 . S
C508 C509 1.379 . S
C508 H526 0.952 . S
C509 C508 1.379 . S
C509 C510 1.390 . S
C509 H536 0.949 . S
C510 C509 1.390 . S
C510 C511 1.357 . S
C511 C510 1.357 . S
C511 C512 1.370 . S
C511 H537 0.950 . S
C512 N507 1.307 . S
C512 C511 1.370 . S
C512 H530 0.948 . S
Zn513 N507 2.020 . S
Zn513 O522 2.039 . S
Zn513 O528 2.034 . S
Zn513 O532 2.025 . S
Zn513 O534 2.024 . S
C514 O533 1.246 . S
C514 O534 1.249 . S
N515 C516 1.307 . S
N515 C517 1.333 . S
N515 Zn521 2.020 . S
C516 N515 1.307 . S
C516 C520 1.370 . S
C516 H527 0.948 . S
C517 N515 1.333 . S
C517 C518 1.379 . S
C517 H525 0.952 . S
C518 C517 1.379 . S
C518 C519 1.390 . S
C518 H538 0.949 . S
C519 C518 1.390 . S
C519 C520 1.357 . S
C520 C516 1.370 . S
C520 C519 1.357 . S
C520 H539 0.950 . S
Zn521 N515 2.020 . S
Zn521 O524 2.025 . S
Zn521 O529 2.024 . S
Zn521 O531 2.039 . S
Zn521 O533 2.034 . S
O522 C506 1.251 . S
O522 Zn513 2.039 . S
C523 O528 1.246 . S
C523 O529 1.249 . S
O524 C506 1.254 . S
O524 Zn521 2.025 . S
H525 C517 0.952 . S
H526 C508 0.952 . S
H527 C516 0.948 . S
O528 Zn513 2.034 . S
O528 C523 1.246 . S
O529 Zn521 2.024 . S
O529 C523 1.249 . S
H530 C512 0.948 . S
O531 Zn521 2.039 . S
O531 C535 1.251 . S
O532 Zn513 2.025 . S
O532 C535 1.254 . S
O533 C514 1.246 . S
O533 Zn521 2.034 . S
O534 Zn513 2.024 . S
O534 C514 1.249 . S
C535 O531 1.251 . S
C535 O532 1.254 . S
H536 C509 0.949 . S
H537 C511 0.950 . S
H538 C518 0.949 . S
H539 C520 0.950 . S
C540 O556 1.251 . S
C540 O558 1.254 . S
N541 C542 1.333 . S
N541 C546 1.307 . S
N541 Zn547 2.020 . S
C542 N541 1.333 . S
C542 C543 1.379 . S
C542 H560 0.952 . S
C543 C542 1.379 . S
C543 C544 1.390 . S
C543 H570 0.949 . S
C544 C543 1.390 . S
C544 C545 1.357 . S
C545 C544 1.357 . S
C545 C546 1.370 . S
C545 H571 0.950 . S
C546 N541 1.307 . S
C546 C545 1.370 . S
C546 H564 0.948 . S
Zn547 N541 2.020 . S
Zn547 O556 2.039 1_545 S
Zn547 O562 2.034 . S
Zn547 O566 2.025 . S
Zn547 O568 2.024 . S
C548 O567 1.246 . S
C548 O568 1.249 . S
N549 C550 1.307 1_545 S
N549 C551 1.333 . S
N549 Zn555 2.020 1_556 S
C550 N549 1.307 1_565 S
C550 C554 1.370 . S
C550 H561 0.948 . S
C551 N549 1.333 . S
C551 C552 1.379 . S
C551 H559 0.952 . S
C552 C551 1.379 . S
C552 C553 1.390 1_545 S
C552 H572 0.949 . S
C553 C552 1.390 1_565 S
C553 C554 1.357 . S
C554 C550 1.370 . S
C554 C553 1.357 . S
C554 H573 0.950 . S
Zn555 N549 2.020 1_554 S
Zn555 O558 2.025 1_545 S
Zn555 O563 2.024 . S
Zn555 O565 2.039 . S
Zn555 O567 2.034 . S
O556 C540 1.251 . S
O556 Zn547 2.039 1_565 S
C557 O562 1.246 . S
C557 O563 1.249 . S
O558 C540 1.254 . S
O558 Zn555 2.025 1_565 S
H559 C551 0.952 . S
H560 C542 0.952 . S
H561 C550 0.948 . S
O562 Zn547 2.034 . S
O562 C557 1.246 . S
O563 Zn555 2.024 . S
O563 C557 1.249 . S
H564 C546 0.948 . S
O565 Zn555 2.039 . S
O565 C569 1.251 . S
O566 Zn547 2.025 . S
O566 C569 1.254 . S
O567 C548 1.246 . S
O567 Zn555 2.034 . S
O568 Zn547 2.024 . S
O568 C548 1.249 . S
C569 O565 1.251 . S
C569 O566 1.254 . S
H570 C543 0.949 . S
H571 C545 0.950 . S
H572 C552 0.949 . S
H573 C554 0.950 . S
C574 O590 1.251 . S
C574 O592 1.254 . S
N575 C576 1.333 . S
N575 C580 1.307 . S
N575 Zn581 2.020 . S
C576 N575 1.333 . S
C576 C577 1.379 . S
C576 H594 0.952 . S
C577 C576 1.379 . S
C577 C578 1.390 . S
C577 H604 0.949 . S
C578 C577 1.390 . S
C578 C579 1.357 . S
C579 C578 1.357 . S
C579 C580 1.370 . S
C579 H605 0.950 . S
C580 N575 1.307 . S
C580 C579 1.370 . S
C580 H598 0.948 . S
Zn581 N575 2.020 . S
Zn581 O590 2.039 . S
Zn581 O596 2.034 . S
Zn581 O600 2.025 . S
Zn581 O602 2.024 . S
C582 O601 1.246 . S
C582 O602 1.249 . S
N583 C584 1.307 . S
N583 C585 1.333 . S
N583 Zn589 2.020 . S
C584 N583 1.307 . S
C584 C588 1.370 . S
C584 H595 0.948 . S
C585 N583 1.333 . S
C585 C586 1.379 . S
C585 H593 0.952 . S
C586 C585 1.379 . S
C586 C587 1.390 . S
C586 H606 0.949 . S
C587 C586 1.390 . S
C587 C588 1.357 . S
C588 C584 1.370 . S
C588 C587 1.357 . S
C588 H607 0.950 . S
Zn589 N583 2.020 . S
Zn589 O592 2.025 . S
Zn589 O597 2.024 . S
Zn589 O599 2.039 . S
Zn589 O601 2.034 . S
O590 C574 1.251 . S
O590 Zn581 2.039 . S
C591 O596 1.246 . S
C591 O597 1.249 . S
O592 C574 1.254 . S
O592 Zn589 2.025 . S
H593 C585 0.952 . S
H594 C576 0.952 . S
H595 C584 0.948 . S
O596 Zn581 2.034 . S
O596 C591 1.246 . S
O597 Zn589 2.024 . S
O597 C591 1.249 . S
H598 C580 0.948 . S
O599 Zn589 2.039 . S
O599 C603 1.251 . S
O600 Zn581 2.025 . S
O600 C603 1.254 . S
O601 C582 1.246 . S
O601 Zn589 2.034 . S
O602 Zn581 2.024 . S
O602 C582 1.249 . S
C603 O599 1.251 . S
C603 O600 1.254 . S
H604 C577 0.949 . S
H605 C579 0.950 . S
H606 C586 0.949 . S
H607 C588 0.950 . S
C608 O624 1.251 . S
C608 O626 1.254 . S
N609 C610 1.333 . S
N609 C614 1.307 . S
N609 Zn615 2.020 1_556 S
C610 N609 1.333 . S
C610 C611 1.379 . S
C610 H628 0.939 1_556 S
C611 C610 1.379 . S
C611 C612 1.390 . S
C611 H638 0.949 . S
C612 C611 1.390 . S
C612 C613 1.357 . S
C613 C612 1.357 . S
C613 C614 1.370 . S
C613 H639 0.950 . S
C614 N609 1.307 . S
C614 C613 1.370 . S
C614 H632 0.948 . S
Zn615 N609 2.020 1_554 S
Zn615 O624 2.039 . S
Zn615 O630 2.034 . S
Zn615 O634 2.025 . S
Zn615 O636 2.024 . S
C616 O635 1.246 . S
C616 O636 1.249 . S
N617 C618 1.307 . S
N617 C619 1.333 . S
N617 Zn623 2.020 . S
C618 N617 1.307 . S
C618 C622 1.370 . S
C618 H629 0.948 . S
C619 N617 1.333 . S
C619 C620 1.379 . S
C619 H627 0.952 . S
C620 C619 1.379 . S
C620 C621 1.390 . S
C620 H640 0.949 . S
C621 C620 1.390 . S
C621 C622 1.357 . S
C622 C618 1.370 . S
C622 C621 1.357 . S
C622 H641 0.950 . S
Zn623 N617 2.020 . S
Zn623 O626 2.025 . S
Zn623 O631 2.024 . S
Zn623 O633 2.039 . S
Zn623 O635 2.034 . S
O624 C608 1.251 . S
O624 Zn615 2.039 . S
C625 O630 1.246 . S
C625 O631 1.249 . S
O626 C608 1.254 . S
O626 Zn623 2.025 . S
H627 C619 0.952 . S
H628 C610 0.939 1_554 S
H629 C618 0.948 . S
O630 Zn615 2.034 . S
O630 C625 1.246 . S
O631 Zn623 2.024 . S
O631 C625 1.249 . S
H632 C614 0.948 . S
O633 Zn623 2.039 . S
O633 C637 1.251 . S
O634 Zn615 2.025 . S
O634 C637 1.254 . S
O635 C616 1.246 . S
O635 Zn623 2.034 . S
O636 Zn615 2.024 . S
O636 C616 1.249 . S
C637 O633 1.251 . S
C637 O634 1.254 . S
H638 C611 0.949 . S
H639 C613 0.950 . S
H640 C620 0.949 . S
H641 C622 0.950 . S
C642 O658 1.251 . S
C642 O660 1.254 . S
N643 C644 1.333 . S
N643 C648 1.307 . S
N643 Zn649 2.020 . S
C644 N643 1.333 . S
C644 C645 1.379 . S
C644 H662 0.952 . S
C645 C644 1.379 . S
C645 C646 1.390 . S
C645 H672 0.949 . S
C646 C645 1.390 . S
C646 C647 1.357 . S
C647 C646 1.357 . S
C647 C648 1.370 . S
C647 H673 0.950 . S
C648 N643 1.307 . S
C648 C647 1.370 . S
C648 H666 0.948 . S
Zn649 N643 2.020 . S
Zn649 O658 2.039 . S
Zn649 O664 2.034 . S
Zn649 O668 2.025 . S
Zn649 O670 2.024 . S
C650 O669 1.246 . S
C650 O670 1.249 . S
N651 C652 1.307 . S
N651 C653 1.333 . S
N651 Zn657 2.020 . S
C652 N651 1.307 . S
C652 C656 1.370 . S
C652 H663 0.948 . S
C653 N651 1.333 . S
C653 C654 1.379 . S
C653 H661 0.952 . S
C654 C653 1.379 . S
C654 C655 1.390 . S
C654 H674 0.949 . S
C655 C654 1.390 . S
C655 C656 1.357 . S
C656 C652 1.370 . S
C656 C655 1.357 . S
C656 H675 0.950 . S
Zn657 N651 2.020 . S
Zn657 O660 2.025 . S
Zn657 O665 2.024 . S
Zn657 O667 2.039 . S
Zn657 O669 2.034 . S
O658 C642 1.251 . S
O658 Zn649 2.039 . S
C659 O664 1.246 . S
C659 O665 1.249 . S
O660 C642 1.254 . S
O660 Zn657 2.025 . S
H661 C653 0.952 . S
H662 C644 0.952 . S
H663 C652 0.948 . S
O664 Zn649 2.034 . S
O664 C659 1.246 . S
O665 Zn657 2.024 . S
O665 C659 1.249 . S
H666 C648 0.948 . S
O667 Zn657 2.039 . S
O667 C671 1.251 . S
O668 Zn649 2.025 . S
O668 C671 1.254 . S
O669 C650 1.246 . S
O669 Zn657 2.034 . S
O670 Zn649 2.024 . S
O670 C650 1.249 . S
C671 O667 1.251 . S
C671 O668 1.254 . S
H672 C645 0.949 . S
H673 C647 0.950 . S
H674 C654 0.949 . S
H675 C656 0.950 . S
C676 O692 1.251 . S
C676 O694 1.254 . S
N677 C678 1.333 . S
N677 C682 1.307 . S
N677 Zn683 2.020 . S
C678 N677 1.333 . S
C678 C679 1.379 . S
C678 H696 0.952 . S
C679 C678 1.379 . S
C679 C680 1.390 . S
C679 H706 0.949 . S
C680 C679 1.390 . S
C680 C681 1.357 . S
C681 C680 1.357 . S
C681 C682 1.370 . S
C681 H707 0.950 . S
C682 N677 1.307 . S
C682 C681 1.370 . S
C682 H700 0.948 . S
Zn683 N677 2.020 . S
Zn683 O692 2.039 . S
Zn683 O698 2.034 . S
Zn683 O702 2.025 . S
Zn683 O704 2.024 . S
C684 O703 1.246 . S
C684 O704 1.249 . S
N685 C686 1.307 . S
N685 C687 1.333 . S
N685 Zn691 2.020 . S
C686 N685 1.307 . S
C686 C690 1.370 1_455 S
C686 H697 0.948 1_455 S
C687 N685 1.333 . S
C687 C688 1.379 . S
C687 H695 0.952 . S
C688 C687 1.379 . S
C688 C689 1.390 . S
C688 H708 0.949 . S
C689 C688 1.390 . S
C689 C690 1.357 1_455 S
C690 C686 1.370 1_655 S
C690 C689 1.357 1_655 S
C690 H709 0.950 . S
Zn691 N685 2.020 . S
Zn691 O694 2.025 . S
Zn691 O699 2.024 . S
Zn691 O701 2.039 . S
Zn691 O703 2.034 . S
O692 C676 1.251 . S
O692 Zn683 2.039 . S
C693 O698 1.246 . S
C693 O699 1.249 . S
O694 C676 1.254 . S
O694 Zn691 2.025 . S
H695 C687 0.952 . S
H696 C678 0.952 . S
H697 C686 0.948 1_655 S
O698 Zn683 2.034 . S
O698 C693 1.246 . S
O699 Zn691 2.024 . S
O699 C693 1.249 . S
H700 C682 0.948 . S
O701 Zn691 2.039 . S
O701 C705 1.251 . S
O702 Zn683 2.025 . S
O702 C705 1.254 . S
O703 C684 1.246 . S
O703 Zn691 2.034 . S
O704 Zn683 2.024 . S
O704 C684 1.249 . S
C705 O701 1.251 . S
C705 O702 1.254 . S
H706 C679 0.949 . S
H707 C681 0.950 . S
H708 C688 0.949 . S
H709 C690 0.950 . S
C710 O726 1.251 . S
C710 O728 1.254 . S
N711 C712 1.333 . S
N711 C716 1.307 . S
N711 Zn717 2.020 . S
C712 N711 1.333 . S
C712 C713 1.379 . S
C712 H730 0.952 . S
C713 C712 1.379 . S
C713 C714 1.390 . S
C713 H740 0.949 . S
C714 C713 1.390 . S
C714 C715 1.357 . S
C715 C714 1.357 . S
C715 C716 1.370 . S
C715 H741 0.950 . S
C716 N711 1.307 . S
C716 C715 1.370 . S
C716 H734 0.948 . S
Zn717 N711 2.020 . S
Zn717 O726 2.039 . S
Zn717 O732 2.034 . S
Zn717 O736 2.025 . S
Zn717 O738 2.024 . S
C718 O737 1.246 . S
C718 O738 1.249 . S
N719 C720 1.307 . S
N719 C721 1.333 . S
N719 Zn725 2.020 . S
C720 N719 1.307 . S
C720 C724 1.370 . S
C720 H731 0.948 . S
C721 N719 1.333 . S
C721 C722 1.379 . S
C721 H729 0.952 . S
C722 C721 1.379 . S
C722 C723 1.390 . S
C722 H742 0.949 . S
C723 C722 1.390 . S
C723 C724 1.357 . S
C724 C720 1.370 . S
C724 C723 1.357 . S
C724 H743 0.950 . S
Zn725 N719 2.020 . S
Zn725 O728 2.025 . S
Zn725 O733 2.024 . S
Zn725 O735 2.039 . S
Zn725 O737 2.034 . S
O726 C710 1.251 . S
O726 Zn717 2.039 . S
C727 O732 1.246 . S
C727 O733 1.249 . S
O728 C710 1.254 . S
O728 Zn725 2.025 . S
H729 C721 0.952 . S
H730 C712 0.952 . S
H731 C720 0.948 . S
O732 Zn717 2.034 . S
O732 C727 1.246 . S
O733 Zn725 2.024 . S
O733 C727 1.249 . S
H734 C716 0.948 . S
O735 Zn725 2.039 . S
O735 C739 1.251 . S
O736 Zn717 2.025 . S
O736 C739 1.254 . S
O737 C718 1.246 . S
O737 Zn725 2.034 . S
O738 Zn717 2.024 . S
O738 C718 1.249 . S
C739 O735 1.251 . S
C739 O736 1.254 . S
H740 C713 0.949 . S
H741 C715 0.950 . S
H742 C722 0.949 . S
H743 C724 0.950 . S
C744 O760 1.251 . S
C744 O762 1.254 . S
N745 C746 1.333 . S
N745 C750 1.307 . S
N745 Zn751 2.020 . S
C746 N745 1.333 . S
C746 C747 1.379 . S
C746 H764 0.952 . S
C747 C746 1.379 . S
C747 C748 1.390 . S
C747 H774 0.949 . S
C748 C747 1.390 . S
C748 C749 1.357 . S
C749 C748 1.357 . S
C749 C750 1.370 . S
C749 H775 0.950 . S
C750 N745 1.307 . S
C750 C749 1.370 . S
C750 H768 0.948 . S
Zn751 N745 2.020 . S
Zn751 O760 2.039 . S
Zn751 O766 2.034 . S
Zn751 O770 2.025 . S
Zn751 O772 2.024 . S
C752 O771 1.246 . S
C752 O772 1.249 . S
N753 C754 1.307 . S
N753 C755 1.333 . S
N753 Zn759 2.020 . S
C754 N753 1.307 . S
C754 C758 1.370 . S
C754 H765 0.948 . S
C755 N753 1.333 . S
C755 C756 1.379 . S
C755 H763 0.952 . S
C756 C755 1.379 . S
C756 C757 1.390 . S
C756 H776 0.949 . S
C757 C756 1.390 . S
C757 C758 1.357 . S
C758 C754 1.370 . S
C758 C757 1.357 . S
C758 H777 0.950 . S
Zn759 N753 2.020 . S
Zn759 O762 2.025 . S
Zn759 O767 2.024 . S
Zn759 O769 2.039 . S
Zn759 O771 2.034 . S
O760 C744 1.251 . S
O760 Zn751 2.039 . S
C761 O766 1.246 . S
C761 O767 1.249 . S
O762 C744 1.254 . S
O762 Zn759 2.025 . S
H763 C755 0.952 . S
H764 C746 0.952 . S
H765 C754 0.948 . S
O766 Zn751 2.034 . S
O766 C761 1.246 . S
O767 Zn759 2.024 . S
O767 C761 1.249 . S
H768 C750 0.948 . S
O769 Zn759 2.039 . S
O769 C773 1.251 . S
O770 Zn751 2.025 . S
O770 C773 1.254 . S
O771 C752 1.246 . S
O771 Zn759 2.034 . S
O772 Zn751 2.024 . S
O772 C752 1.249 . S
C773 O769 1.251 . S
C773 O770 1.254 . S
H774 C747 0.949 . S
H775 C749 0.950 . S
H776 C756 0.949 . S
H777 C758 0.950 . S
C778 O794 1.251 . S
C778 O796 1.254 . S
N779 C780 1.333 . S
N779 C784 1.307 . S
N779 Zn785 2.020 . S
C780 N779 1.333 . S
C780 C781 1.379 . S
C780 H798 0.952 . S
C781 C780 1.379 . S
C781 C782 1.390 . S
C781 H808 0.949 . S
C782 C781 1.390 . S
C782 C783 1.357 . S
C783 C782 1.357 . S
C783 C784 1.370 . S
C783 H809 0.950 . S
C784 N779 1.307 . S
C784 C783 1.370 . S
C784 H802 0.948 . S
Zn785 N779 2.020 . S
Zn785 O794 2.039 . S
Zn785 O800 2.034 . S
Zn785 O804 2.025 . S
Zn785 O806 2.024 . S
C786 O805 1.246 . S
C786 O806 1.249 . S
N787 C788 1.307 . S
N787 C789 1.333 . S
N787 Zn793 2.020 . S
C788 N787 1.307 . S
C788 C792 1.370 . S
C788 H799 0.948 . S
C789 N787 1.333 . S
C789 C790 1.379 . S
C789 H797 0.952 . S
C790 C789 1.379 . S
C790 C791 1.390 . S
C790 H810 0.949 . S
C791 C790 1.390 . S
C791 C792 1.357 . S
C792 C788 1.370 . S
C792 C791 1.357 . S
C792 H811 0.950 . S
Zn793 N787 2.020 . S
Zn793 O796 2.025 . S
Zn793 O801 2.024 . S
Zn793 O803 2.039 . S
Zn793 O805 2.034 . S
O794 C778 1.251 . S
O794 Zn785 2.039 . S
C795 O800 1.246 . S
C795 O801 1.249 . S
O796 C778 1.254 . S
O796 Zn793 2.025 . S
H797 C789 0.952 . S
H798 C780 0.952 . S
H799 C788 0.948 . S
O800 Zn785 2.034 . S
O800 C795 1.246 . S
O801 Zn793 2.024 . S
O801 C795 1.249 . S
H802 C784 0.948 . S
O803 Zn793 2.039 . S
O803 C807 1.251 . S
O804 Zn785 2.025 . S
O804 C807 1.254 . S
O805 C786 1.246 . S
O805 Zn793 2.034 . S
O806 Zn785 2.024 . S
O806 C786 1.249 . S
C807 O803 1.251 . S
C807 O804 1.254 . S
H808 C781 0.949 . S
H809 C783 0.950 . S
H810 C790 0.949 . S
H811 C792 0.950 . S
C812 O828 1.251 . S
C812 O830 1.254 . S
N813 C814 1.333 . S
N813 C818 1.307 . S
N813 Zn819 2.020 . S
C814 N813 1.333 . S
C814 C815 1.379 . S
C814 H832 0.952 . S
C815 C814 1.379 . S
C815 C816 1.390 . S
C815 H842 0.949 . S
C816 C815 1.390 . S
C816 C817 1.357 . S
C817 C816 1.357 . S
C817 C818 1.370 . S
C817 H843 0.950 . S
C818 N813 1.307 . S
C818 C817 1.370 . S
C818 H836 0.948 . S
Zn819 N813 2.020 . S
Zn819 O828 2.039 . S
Zn819 O834 2.034 . S
Zn819 O838 2.025 . S
Zn819 O840 2.024 . S
C820 O839 1.246 . S
C820 O840 1.249 . S
N821 C822 1.307 . S
N821 C823 1.333 . S
N821 Zn827 2.020 . S
C822 N821 1.307 . S
C822 C826 1.370 . S
C822 H833 0.948 . S
C823 N821 1.333 . S
C823 C824 1.379 . S
C823 H831 0.952 . S
C824 C823 1.379 . S
C824 C825 1.390 . S
C824 H844 0.949 . S
C825 C824 1.390 . S
C825 C826 1.357 . S
C826 C822 1.370 . S
C826 C825 1.357 . S
C826 H845 0.950 . S
Zn827 N821 2.020 . S
Zn827 O830 2.025 . S
Zn827 O835 2.024 . S
Zn827 O837 2.039 . S
Zn827 O839 2.034 . S
O828 C812 1.251 . S
O828 Zn819 2.039 . S
C829 O834 1.246 . S
C829 O835 1.249 . S
O830 C812 1.254 . S
O830 Zn827 2.025 . S
H831 C823 0.952 . S
H832 C814 0.952 . S
H833 C822 0.948 . S
O834 Zn819 2.034 . S
O834 C829 1.246 . S
O835 Zn827 2.024 . S
O835 C829 1.249 . S
H836 C818 0.948 . S
O837 Zn827 2.039 . S
O837 C841 1.251 . S
O838 Zn819 2.025 . S
O838 C841 1.254 . S
O839 C820 1.246 . S
O839 Zn827 2.034 . S
O840 Zn819 2.024 . S
O840 C820 1.249 . S
C841 O837 1.251 . S
C841 O838 1.254 . S
H842 C815 0.949 . S
H843 C817 0.950 . S
H844 C824 0.949 . S
H845 C826 0.950 . S
C846 O862 1.251 . S
C846 O864 1.254 . S
N847 C848 1.333 . S
N847 C852 1.307 . S
N847 Zn853 2.020 . S
C848 N847 1.333 . S
C848 C849 1.379 . S
C848 H866 0.952 . S
C849 C848 1.379 . S
C849 C850 1.390 . S
C849 H876 0.949 . S
C850 C849 1.390 . S
C850 C851 1.357 . S
C851 C850 1.357 . S
C851 C852 1.370 . S
C851 H877 0.950 . S
C852 N847 1.307 . S
C852 C851 1.370 . S
C852 H870 0.948 . S
Zn853 N847 2.020 . S
Zn853 O862 2.039 . S
Zn853 O868 2.034 . S
Zn853 O872 2.025 . S
Zn853 O874 2.024 . S
C854 O873 1.242 1_655 S
C854 O874 1.237 1_655 S
N855 C856 1.307 . S
N855 C857 1.333 1_554 S
N855 Zn861 2.020 . S
C856 N855 1.307 . S
C856 C860 1.370 . S
C856 H867 0.948 . S
C857 N855 1.333 1_556 S
C857 C858 1.379 . S
C857 H865 0.952 . S
C858 C857 1.379 . S
C858 C859 1.386 1_556 S
C858 H878 0.949 . S
C859 C858 1.386 1_554 S
C859 C860 1.363 . S
C860 C856 1.370 . S
C860 C859 1.363 . S
C860 H879 0.950 . S
Zn861 N855 2.020 . S
Zn861 O864 2.025 . S
Zn861 O869 2.024 . S
Zn861 O871 2.039 . S
Zn861 O873 2.034 . S
O862 C846 1.251 . S
O862 Zn853 2.039 . S
C863 O868 1.246 . S
C863 O869 1.249 . S
O864 C846 1.254 . S
O864 Zn861 2.025 . S
H865 C857 0.952 . S
H866 C848 0.952 . S
H867 C856 0.948 . S
O868 Zn853 2.034 . S
O868 C863 1.246 . S
O869 Zn861 2.024 . S
O869 C863 1.249 . S
H870 C852 0.948 . S
O871 Zn861 2.039 . S
O871 C875 1.251 1_554 S
O872 Zn853 2.025 . S
O872 C875 1.254 1_554 S
O873 C854 1.242 1_455 S
O873 Zn861 2.034 . S
O874 Zn853 2.024 . S
O874 C854 1.237 1_455 S
C875 O871 1.251 1_556 S
C875 O872 1.254 1_556 S
H876 C849 0.949 . S
H877 C851 0.950 . S
H878 C858 0.949 . S
H879 C860 0.950 . S
C880 C881 1.349 . S
C880 C882 1.327 . S
C880 H905 0.950 . S
C881 C880 1.349 . S
C881 C897 1.349 . S
C882 C880 1.327 . S
C882 C901 1.429 . S
C882 H906 0.950 . S
C883 C900 1.574 . S
C883 C902 1.368 . S
C883 H907 0.949 . S
H884 C888 0.949 . S
C885 C886 1.349 . S
C885 C887 1.327 . S
C885 H908 0.950 . S
C886 C885 1.349 . S
C886 C898 1.349 . S
C887 C885 1.327 . S
C887 C903 1.429 . S
C887 H909 0.950 . S
C888 H884 0.949 . S
C888 C896 1.574 . S
C888 C904 1.368 . S
H889 C897 0.950 . S
H890 C895 0.950 . S
H891 C896 0.949 . S
H892 C898 0.950 . S
H893 C899 0.950 . S
H894 C900 0.949 . S
C895 H890 0.950 . S
C895 C897 1.327 . S
C895 C901 1.429 . S
C896 C888 1.574 . S
C896 H891 0.949 . S
C896 C902 1.368 . S
C897 C881 1.349 . S
C897 H889 0.950 . S
C897 C895 1.327 . S
C898 C886 1.349 . S
C898 H892 0.950 . S
C898 C899 1.327 . S
C899 H893 0.950 . S
C899 C898 1.327 . S
C899 C903 1.429 . S
C900 C883 1.574 . S
C900 H894 0.949 . S
C900 C904 1.368 . S
C901 C882 1.429 . S
C901 C895 1.429 . S
C901 C902 1.523 . S
C902 C883 1.368 . S
C902 C896 1.368 . S
C902 C901 1.523 . S
C903 C887 1.429 . S
C903 C899 1.429 . S
C903 C904 1.523 . S
C904 C888 1.368 . S
C904 C900 1.368 . S
C904 C903 1.523 . S
H905 C880 0.950 . S
H906 C882 0.950 . S
H907 C883 0.949 . S
H908 C885 0.950 . S
H909 C887 0.950 . S
C910 C911 1.349 . S
C910 C912 1.327 . S
C910 H935 0.950 . S
C911 C910 1.349 . S
C911 C927 1.349 . S
C912 C910 1.327 . S
C912 C931 1.429 . S
C912 H936 0.950 . S
C913 C930 1.574 . S
C913 C932 1.368 . S
C913 H937 0.949 . S
H914 C918 0.949 . S
C915 C916 1.349 . S
C915 C917 1.327 . S
C915 H938 0.950 . S
C916 C915 1.349 . S
C916 C928 1.349 . S
C917 C915 1.327 . S
C917 C933 1.429 . S
C917 H939 0.950 . S
C918 H914 0.949 . S
C918 C926 1.574 . S
C918 C934 1.368 . S
H919 C927 0.950 . S
H920 C925 0.950 . S
H921 C926 0.949 . S
H922 C928 0.950 . S
H923 C929 0.950 . S
H924 C930 0.949 . S
C925 H920 0.950 . S
C925 C927 1.327 . S
C925 C931 1.429 . S
C926 C918 1.574 . S
C926 H921 0.949 . S
C926 C932 1.368 . S
C927 C911 1.349 . S
C927 H919 0.950 . S
C927 C925 1.327 . S
C928 C916 1.349 . S
C928 H922 0.950 . S
C928 C929 1.327 . S
C929 H923 0.950 . S
C929 C928 1.327 . S
C929 C933 1.429 . S
C930 C913 1.574 . S
C930 H924 0.949 . S
C930 C934 1.368 . S
C931 C912 1.429 . S
C931 C925 1.429 . S
C931 C932 1.523 . S
C932 C913 1.368 . S
C932 C926 1.368 . S
C932 C931 1.523 . S
C933 C917 1.429 . S
C933 C929 1.429 . S
C933 C934 1.523 . S
C934 C918 1.368 . S
C934 C930 1.368 . S
C934 C933 1.523 . S
H935 C910 0.950 . S
H936 C912 0.950 . S
H937 C913 0.949 . S
H938 C915 0.950 . S
H939 C917 0.950 . S
C940 C941 1.349 . S
C940 C942 1.327 . S
C940 H965 0.950 . S
C941 C940 1.349 . S
C941 C957 1.349 . S
C942 C940 1.327 . S
C942 C961 1.429 . S
C942 H966 0.950 . S
C943 C960 1.574 . S
C943 C962 1.368 . S
C943 H967 0.949 . S
H944 C948 0.949 . S
C945 C946 1.349 . S
C945 C947 1.327 . S
C945 H968 0.950 . S
C946 C945 1.349 . S
C946 C958 1.349 . S
C947 C945 1.327 . S
C947 C963 1.429 . S
C947 H969 0.950 . S
C948 H944 0.949 . S
C948 C956 1.574 . S
C948 C964 1.368 . S
H949 C957 0.950 . S
H950 C955 0.950 . S
H951 C956 0.949 . S
H952 C958 0.950 . S
H953 C959 0.950 . S
H954 C960 0.949 . S
C955 H950 0.950 . S
C955 C957 1.327 . S
C955 C961 1.429 . S
C956 C948 1.574 . S
C956 H951 0.949 . S
C956 C962 1.368 . S
C957 C941 1.349 . S
C957 H949 0.950 . S
C957 C955 1.327 . S
C958 C946 1.349 . S
C958 H952 0.950 . S
C958 C959 1.327 . S
C959 H953 0.950 . S
C959 C958 1.327 . S
C959 C963 1.429 . S
C960 C943 1.574 . S
C960 H954 0.949 . S
C960 C964 1.368 . S
C961 C942 1.429 . S
C961 C955 1.429 . S
C961 C962 1.523 . S
C962 C943 1.368 . S
C962 C956 1.368 . S
C962 C961 1.523 . S
C963 C947 1.429 . S
C963 C959 1.429 . S
C963 C964 1.523 . S
C964 C948 1.368 . S
C964 C960 1.368 . S
C964 C963 1.523 . S
H965 C940 0.950 . S
H966 C942 0.950 . S
H967 C943 0.949 . S
H968 C945 0.950 . S
H969 C947 0.950 . S
C970 C971 1.349 . S
C970 C972 1.327 . S
C970 H995 0.950 . S
C971 C970 1.349 . S
C971 C987 1.349 . S
C972 C970 1.327 . S
C972 C991 1.429 . S
C972 H996 0.950 . S
C973 C990 1.574 . S
C973 C992 1.368 . S
C973 H997 0.949 . S
H974 C978 0.949 . S
C975 C976 1.349 . S
C975 C977 1.327 . S
C975 H998 0.950 . S
C976 C975 1.349 . S
C976 C988 1.349 . S
C977 C975 1.327 . S
C977 C993 1.429 . S
C977 H999 0.950 . S
C978 H974 0.949 . S
C978 C986 1.574 . S
C978 C994 1.368 . S
H979 C987 0.950 . S
H980 C985 0.950 . S
H981 C986 0.949 . S
H982 C988 0.950 . S
H983 C989 0.950 . S
H984 C990 0.949 . S
C985 H980 0.950 . S
C985 C987 1.327 . S
C985 C991 1.429 . S
C986 C978 1.574 . S
C986 H981 0.949 . S
C986 C992 1.368 . S
C987 C971 1.349 . S
C987 H979 0.950 . S
C987 C985 1.327 . S
C988 C976 1.349 . S
C988 H982 0.950 . S
C988 C989 1.327 . S
C989 H983 0.950 . S
C989 C988 1.327 . S
C989 C993 1.429 . S
C990 C973 1.574 . S
C990 H984 0.949 . S
C990 C994 1.368 . S
C991 C972 1.429 . S
C991 C985 1.429 . S
C991 C992 1.523 . S
C992 C973 1.368 . S
C992 C986 1.368 . S
C992 C991 1.523 . S
C993 C977 1.429 . S
C993 C989 1.429 . S
C993 C994 1.523 . S
C994 C978 1.368 . S
C994 C990 1.368 . S
C994 C993 1.523 . S
H995 C970 0.950 . S
H996 C972 0.950 . S
H997 C973 0.949 . S
H998 C975 0.950 . S
H999 C977 0.950 . S
C1000 C1001 1.349 . S
C1000 C1002 1.327 . S
C1000 H1025 0.950 . S
C1001 C1000 1.349 . S
C1001 C1017 1.349 . S
C1002 C1000 1.327 . S
C1002 C1021 1.429 . S
C1002 H1026 0.950 . S
C1003 C1020 1.574 . S
C1003 C1022 1.368 . S
C1003 H1027 0.949 . S
H1004 C1008 0.949 . S
C1005 C1006 1.349 . S
C1005 C1007 1.327 . S
C1005 H1028 0.950 . S
C1006 C1005 1.349 . S
C1006 C1018 1.349 . S
C1007 C1005 1.327 . S
C1007 C1023 1.429 . S
C1007 H1029 0.950 . S
C1008 H1004 0.949 . S
C1008 C1016 1.574 . S
C1008 C1024 1.368 . S
H1009 C1017 0.950 . S
H1010 C1015 0.950 . S
H1011 C1016 0.949 . S
H1012 C1018 0.950 . S
H1013 C1019 0.950 . S
H1014 C1020 0.949 . S
C1015 H1010 0.950 . S
C1015 C1017 1.327 . S
C1015 C1021 1.429 . S
C1016 C1008 1.574 . S
C1016 H1011 0.949 . S
C1016 C1022 1.368 . S
C1017 C1001 1.349 . S
C1017 H1009 0.950 . S
C1017 C1015 1.327 . S
C1018 C1006 1.349 . S
C1018 H1012 0.950 . S
C1018 C1019 1.327 . S
C1019 H1013 0.950 . S
C1019 C1018 1.327 . S
C1019 C1023 1.429 . S
C1020 C1003 1.574 . S
C1020 H1014 0.949 . S
C1020 C1024 1.368 . S
C1021 C1002 1.429 . S
C1021 C1015 1.429 . S
C1021 C1022 1.523 . S
C1022 C1003 1.368 . S
C1022 C1016 1.368 . S
C1022 C1021 1.523 . S
C1023 C1007 1.429 . S
C1023 C1019 1.429 . S
C1023 C1024 1.523 . S
C1024 C1008 1.368 . S
C1024 C1020 1.368 . S
C1024 C1023 1.523 . S
H1025 C1000 0.950 . S
H1026 C1002 0.950 . S
H1027 C1003 0.949 . S
H1028 C1005 0.950 . S
H1029 C1007 0.950 . S
C1030 C1031 1.349 . S
C1030 C1032 1.327 . S
C1030 H1055 0.950 . S
C1031 C1030 1.349 . S
C1031 C1047 1.349 . S
C1032 C1030 1.327 . S
C1032 C1051 1.429 . S
C1032 H1056 0.950 . S
C1033 C1050 1.574 . S
C1033 C1052 1.368 . S
C1033 H1057 0.949 . S
H1034 C1038 0.949 . S
C1035 C1036 1.349 . S
C1035 C1037 1.327 . S
C1035 H1058 0.950 . S
C1036 C1035 1.349 . S
C1036 C1048 1.349 . S
C1037 C1035 1.327 . S
C1037 C1053 1.429 . S
C1037 H1059 0.950 . S
C1038 H1034 0.949 . S
C1038 C1046 1.574 . S
C1038 C1054 1.368 . S
H1039 C1047 0.950 . S
H1040 C1045 0.950 . S
H1041 C1046 0.949 . S
H1042 C1048 0.950 . S
H1043 C1049 0.950 . S
H1044 C1050 0.949 . S
C1045 H1040 0.950 . S
C1045 C1047 1.327 . S
C1045 C1051 1.429 . S
C1046 C1038 1.574 . S
C1046 H1041 0.949 . S
C1046 C1052 1.368 . S
C1047 C1031 1.349 . S
C1047 H1039 0.950 . S
C1047 C1045 1.327 . S
C1048 C1036 1.349 . S
C1048 H1042 0.950 . S
C1048 C1049 1.327 . S
C1049 H1043 0.950 . S
C1049 C1048 1.327 . S
C1049 C1053 1.429 . S
C1050 C1033 1.574 . S
C1050 H1044 0.949 . S
C1050 C1054 1.368 . S
C1051 C1032 1.429 . S
C1051 C1045 1.429 . S
C1051 C1052 1.523 . S
C1052 C1033 1.368 . S
C1052 C1046 1.368 . S
C1052 C1051 1.523 . S
C1053 C1037 1.429 . S
C1053 C1049 1.429 . S
C1053 C1054 1.523 . S
C1054 C1038 1.368 . S
C1054 C1050 1.368 . S
C1054 C1053 1.523 . S
H1055 C1030 0.950 . S
H1056 C1032 0.950 . S
H1057 C1033 0.949 . S
H1058 C1035 0.950 . S
H1059 C1037 0.950 . S
C1060 C1061 1.349 . S
C1060 C1062 1.327 . S
C1060 H1085 0.950 . S
C1061 C1060 1.349 . S
C1061 C1077 1.349 . S
C1062 C1060 1.327 . S
C1062 C1081 1.429 . S
C1062 H1086 0.950 . S
C1063 C1080 1.574 . S
C1063 C1082 1.368 . S
C1063 H1087 0.949 . S
H1064 C1068 0.949 . S
C1065 C1066 1.349 . S
C1065 C1067 1.327 . S
C1065 H1088 0.950 . S
C1066 C1065 1.349 . S
C1066 C1078 1.349 1_554 S
C1067 C1065 1.327 . S
C1067 C1083 1.429 1_554 S
C1067 H1089 0.950 . S
C1068 H1064 0.949 . S
C1068 C1076 1.574 . S
C1068 C1084 1.368 . S
H1069 C1077 0.950 . S
H1070 C1075 0.950 . S
H1071 C1076 0.949 . S
H1072 C1078 0.950 . S
H1073 C1079 0.950 . S
H1074 C1080 0.949 . S
C1075 H1070 0.950 . S
C1075 C1077 1.327 . S
C1075 C1081 1.429 . S
C1076 C1068 1.574 . S
C1076 H1071 0.949 . S
C1076 C1082 1.368 . S
C1077 C1061 1.349 . S
C1077 H1069 0.950 . S
C1077 C1075 1.327 . S
C1078 C1066 1.349 1_556 S
C1078 H1072 0.950 . S
C1078 C1079 1.327 . S
C1079 H1073 0.950 . S
C1079 C1078 1.327 . S
C1079 C1083 1.429 . S
C1080 C1063 1.574 . S
C1080 H1074 0.949 . S
C1080 C1084 1.368 . S
C1081 C1062 1.429 . S
C1081 C1075 1.429 . S
C1081 C1082 1.523 . S
C1082 C1063 1.368 . S
C1082 C1076 1.368 . S
C1082 C1081 1.523 . S
C1083 C1067 1.429 1_556 S
C1083 C1079 1.429 . S
C1083 C1084 1.523 . S
C1084 C1068 1.368 . S
C1084 C1080 1.368 . S
C1084 C1083 1.523 . S
H1085 C1060 0.950 . S
H1086 C1062 0.950 . S
H1087 C1063 0.949 . S
H1088 C1065 0.950 . S
H1089 C1067 0.950 . S
C1090 C1091 1.349 . S
C1090 C1092 1.327 . S
C1090 H1115 0.950 . S
C1091 C1090 1.349 . S
C1091 C1107 1.349 . S
C1092 C1090 1.327 . S
C1092 C1111 1.429 . S
C1092 H1116 0.950 . S
C1093 C1110 1.574 . S
C1093 C1112 1.368 . S
C1093 H1117 0.949 . S
H1094 C1098 0.949 . S
C1095 C1096 1.349 . S
C1095 C1097 1.327 . S
C1095 H1118 0.950 . S
C1096 C1095 1.349 . S
C1096 C1108 1.349 . S
C1097 C1095 1.327 . S
C1097 C1113 1.429 . S
C1097 H1119 0.950 . S
C1098 H1094 0.949 . S
C1098 C1106 1.574 . S
C1098 C1114 1.368 . S
H1099 C1107 0.950 . S
H1100 C1105 0.950 . S
H1101 C1106 0.949 . S
H1102 C1108 0.950 . S
H1103 C1109 0.950 . S
H1104 C1110 0.949 . S
C1105 H1100 0.950 . S
C1105 C1107 1.327 . S
C1105 C1111 1.429 . S
C1106 C1098 1.574 . S
C1106 H1101 0.949 . S
C1106 C1112 1.368 . S
C1107 C1091 1.349 . S
C1107 H1099 0.950 . S
C1107 C1105 1.327 . S
C1108 C1096 1.349 . S
C1108 H1102 0.950 . S
C1108 C1109 1.327 . S
C1109 H1103 0.950 . S
C1109 C1108 1.327 . S
C1109 C1113 1.429 . S
C1110 C1093 1.574 . S
C1110 H1104 0.949 . S
C1110 C1114 1.368 . S
C1111 C1092 1.429 . S
C1111 C1105 1.429 . S
C1111 C1112 1.523 . S
C1112 C1093 1.368 . S
C1112 C1106 1.368 . S
C1112 C1111 1.523 . S
C1113 C1097 1.429 . S
C1113 C1109 1.429 . S
C1113 C1114 1.523 . S
C1114 C1098 1.368 . S
C1114 C1110 1.368 . S
C1114 C1113 1.523 . S
H1115 C1090 0.950 . S
H1116 C1092 0.950 . S
H1117 C1093 0.949 . S
H1118 C1095 0.950 . S
H1119 C1097 0.950 . S
C1120 C1121 1.349 1_565 S
C1120 C1122 1.327 . S
C1120 H1145 0.950 . S
C1121 C1120 1.349 1_545 S
C1121 C1137 1.349 . S
C1122 C1120 1.327 . S
C1122 C1141 1.429 1_565 S
C1122 H1146 0.950 . S
C1123 C1140 1.574 . S
C1123 C1142 1.347 1_545 S
C1123 H1147 0.949 . S
H1124 C1128 0.949 . S
C1125 C1126 1.349 1_545 S
C1125 C1127 1.327 . S
C1125 H1148 0.950 . S
C1126 C1125 1.349 1_565 S
C1126 C1138 1.349 . S
C1127 C1125 1.327 . S
C1127 C1143 1.429 1_545 S
C1127 H1149 0.950 . S
C1128 H1124 0.949 . S
C1128 C1136 1.574 . S
C1128 C1144 1.368 . S
H1129 C1137 0.950 . S
H1130 C1135 0.950 . S
H1131 C1136 0.949 . S
H1132 C1138 0.950 . S
H1133 C1139 0.950 . S
H1134 C1140 0.949 . S
C1135 H1130 0.950 . S
C1135 C1137 1.327 . S
C1135 C1141 1.429 . S
C1136 C1128 1.574 . S
C1136 H1131 0.949 . S
C1136 C1142 1.392 . S
C1137 C1121 1.349 . S
C1137 H1129 0.950 . S
C1137 C1135 1.327 . S
C1138 C1126 1.349 . S
C1138 H1132 0.950 . S
C1138 C1139 1.327 . S
C1139 H1133 0.950 . S
C1139 C1138 1.327 . S
C1139 C1143 1.429 . S
C1140 C1123 1.574 . S
C1140 H1134 0.949 . S
C1140 C1144 1.368 1_545 S
C1141 C1122 1.429 1_545 S
C1141 C1135 1.429 . S
C1141 C1142 1.522 1_545 S
C1142 C1123 1.347 1_565 S
C1142 C1136 1.392 . S
C1142 C1141 1.522 1_565 S
C1143 C1127 1.429 1_565 S
C1143 C1139 1.429 . S
C1143 C1144 1.523 . S
C1144 C1128 1.368 . S
C1144 C1140 1.368 1_565 S
C1144 C1143 1.523 . S
H1145 C1120 0.950 . S
H1146 C1122 0.950 . S
H1147 C1123 0.949 . S
H1148 C1125 0.950 . S
H1149 C1127 0.950 . S
C1150 C1151 1.349 . S
C1150 C1152 1.327 . S
C1150 H1175 0.950 . S
C1151 C1150 1.349 . S
C1151 C1167 1.349 . S
C1152 C1150 1.327 . S
C1152 C1171 1.429 . S
C1152 H1176 0.950 . S
C1153 C1170 1.574 . S
C1153 C1172 1.368 . S
C1153 H1177 0.949 . S
H1154 C1158 0.949 . S
C1155 C1156 1.349 . S
C1155 C1157 1.327 . S
C1155 H1178 0.950 . S
C1156 C1155 1.349 . S
C1156 C1168 1.349 . S
C1157 C1155 1.327 . S
C1157 C1173 1.429 . S
C1157 H1179 0.950 . S
C1158 H1154 0.949 . S
C1158 C1166 1.574 . S
C1158 C1174 1.368 . S
H1159 C1167 0.950 . S
H1160 C1165 0.950 . S
H1161 C1166 0.949 . S
H1162 C1168 0.950 . S
H1163 C1169 0.950 . S
H1164 C1170 0.949 . S
C1165 H1160 0.950 . S
C1165 C1167 1.327 . S
C1165 C1171 1.429 . S
C1166 C1158 1.574 . S
C1166 H1161 0.949 . S
C1166 C1172 1.368 . S
C1167 C1151 1.349 . S
C1167 H1159 0.950 . S
C1167 C1165 1.327 . S
C1168 C1156 1.349 . S
C1168 H1162 0.950 . S
C1168 C1169 1.327 . S
C1169 H1163 0.950 . S
C1169 C1168 1.327 . S
C1169 C1173 1.429 . S
C1170 C1153 1.574 . S
C1170 H1164 0.949 . S
C1170 C1174 1.368 . S
C1171 C1152 1.429 . S
C1171 C1165 1.429 . S
C1171 C1172 1.523 . S
C1172 C1153 1.368 . S
C1172 C1166 1.368 . S
C1172 C1171 1.523 . S
C1173 C1157 1.429 . S
C1173 C1169 1.429 . S
C1173 C1174 1.523 . S
C1174 C1158 1.368 . S
C1174 C1170 1.368 . S
C1174 C1173 1.523 . S
H1175 C1150 0.950 . S
H1176 C1152 0.950 . S
H1177 C1153 0.949 . S
H1178 C1155 0.950 . S
H1179 C1157 0.950 . S
C1180 C1181 1.349 . S
C1180 C1182 1.327 . S
C1180 H1205 0.950 . S
C1181 C1180 1.349 . S
C1181 C1197 1.349 . S
C1182 C1180 1.327 . S
C1182 C1201 1.429 . S
C1182 H1206 0.950 . S
C1183 C1200 1.574 . S
C1183 C1202 1.368 . S
C1183 H1207 0.949 1_545 S
H1184 C1188 0.949 . S
C1185 C1186 1.349 . S
C1185 C1187 1.327 . S
C1185 H1208 0.950 . S
C1186 C1185 1.349 . S
C1186 C1198 1.349 . S
C1187 C1185 1.327 . S
C1187 C1203 1.429 . S
C1187 H1209 0.950 . S
C1188 H1184 0.949 . S
C1188 C1196 1.574 . S
C1188 C1204 1.368 . S
H1189 C1197 0.950 1_565 S
H1190 C1195 0.950 1_565 S
H1191 C1196 0.949 . S
H1192 C1198 0.950 . S
H1193 C1199 0.950 . S
H1194 C1200 0.948 . S
C1195 H1190 0.950 1_545 S
C1195 C1197 1.327 . S
C1195 C1201 1.429 . S
C1196 C1188 1.574 . S
C1196 H1191 0.949 . S
C1196 C1202 1.368 . S
C1197 C1181 1.349 . S
C1197 H1189 0.950 1_545 S
C1197 C1195 1.327 . S
C1198 C1186 1.349 . S
C1198 H1192 0.950 . S
C1198 C1199 1.327 . S
C1199 H1193 0.950 . S
C1199 C1198 1.327 . S
C1199 C1203 1.429 . S
C1200 C1183 1.574 . S
C1200 H1194 0.948 . S
C1200 C1204 1.368 . S
C1201 C1182 1.429 . S
C1201 C1195 1.429 . S
C1201 C1202 1.523 . S
C1202 C1183 1.368 . S
C1202 C1196 1.368 . S
C1202 C1201 1.523 . S
C1203 C1187 1.429 . S
C1203 C1199 1.429 . S
C1203 C1204 1.523 . S
C1204 C1188 1.368 . S
C1204 C1200 1.368 . S
C1204 C1203 1.523 . S
H1205 C1180 0.950 . S
H1206 C1182 0.950 . S
H1207 C1183 0.949 1_565 S
H1208 C1185 0.950 . S
H1209 C1187 0.950 . S
C1210 C1211 1.349 . S
C1210 C1212 1.327 . S
C1210 H1235 0.950 . S
C1211 C1210 1.349 . S
C1211 C1227 1.349 . S
C1212 C1210 1.327 . S
C1212 C1231 1.429 . S
C1212 H1236 0.950 . S
C1213 C1230 1.574 . S
C1213 C1232 1.368 . S
C1213 H1237 0.949 . S
H1214 C1218 0.949 . S
C1215 C1216 1.349 . S
C1215 C1217 1.327 . S
C1215 H1238 0.950 . S
C1216 C1215 1.349 . S
C1216 C1228 1.349 . S
C1217 C1215 1.327 . S
C1217 C1233 1.429 . S
C1217 H1239 0.950 . S
C1218 H1214 0.949 . S
C1218 C1226 1.574 . S
C1218 C1234 1.368 . S
H1219 C1227 0.950 . S
H1220 C1225 0.950 . S
H1221 C1226 0.949 . S
H1222 C1228 0.950 . S
H1223 C1229 0.950 . S
H1224 C1230 0.949 . S
C1225 H1220 0.950 . S
C1225 C1227 1.327 . S
C1225 C1231 1.429 . S
C1226 C1218 1.574 . S
C1226 H1221 0.949 . S
C1226 C1232 1.368 . S
C1227 C1211 1.349 . S
C1227 H1219 0.950 . S
C1227 C1225 1.327 . S
C1228 C1216 1.349 . S
C1228 H1222 0.950 . S
C1228 C1229 1.327 . S
C1229 H1223 0.950 . S
C1229 C1228 1.327 . S
C1229 C1233 1.429 . S
C1230 C1213 1.574 . S
C1230 H1224 0.949 . S
C1230 C1234 1.368 . S
C1231 C1212 1.429 . S
C1231 C1225 1.429 . S
C1231 C1232 1.523 . S
C1232 C1213 1.368 . S
C1232 C1226 1.368 . S
C1232 C1231 1.523 . S
C1233 C1217 1.429 . S
C1233 C1229 1.429 . S
C1233 C1234 1.523 . S
C1234 C1218 1.368 . S
C1234 C1230 1.368 . S
C1234 C1233 1.523 . S
H1235 C1210 0.950 . S
H1236 C1212 0.950 . S
H1237 C1213 0.949 . S
H1238 C1215 0.950 . S
H1239 C1217 0.950 . S
C1240 C1241 1.349 . S
C1240 C1242 1.327 . S
C1240 H1265 0.950 . S
C1241 C1240 1.349 . S
C1241 C1257 1.349 . S
C1242 C1240 1.327 . S
C1242 C1261 1.429 . S
C1242 H1266 0.950 . S
C1243 C1260 1.574 . S
C1243 C1262 1.368 . S
C1243 H1267 0.949 . S
H1244 C1248 0.949 . S
C1245 C1246 1.349 . S
C1245 C1247 1.327 . S
C1245 H1268 0.950 . S
C1246 C1245 1.349 . S
C1246 C1258 1.349 . S
C1247 C1245 1.327 . S
C1247 C1263 1.429 . S
C1247 H1269 0.950 . S
C1248 H1244 0.949 . S
C1248 C1256 1.574 . S
C1248 C1264 1.368 . S
H1249 C1257 0.950 1_565 S
H1250 C1255 0.950 1_565 S
H1251 C1256 0.949 . S
H1252 C1258 0.950 . S
H1253 C1259 0.950 . S
H1254 C1260 0.949 . S
C1255 H1250 0.950 1_545 S
C1255 C1257 1.327 . S
C1255 C1261 1.429 . S
C1256 C1248 1.574 . S
C1256 H1251 0.949 . S
C1256 C1262 1.368 . S
C1257 C1241 1.349 . S
C1257 H1249 0.950 1_545 S
C1257 C1255 1.327 . S
C1258 C1246 1.349 . S
C1258 H1252 0.950 . S
C1258 C1259 1.327 . S
C1259 H1253 0.950 . S
C1259 C1258 1.327 . S
C1259 C1263 1.429 . S
C1260 C1243 1.574 . S
C1260 H1254 0.949 . S
C1260 C1264 1.368 . S
C1261 C1242 1.429 . S
C1261 C1255 1.429 . S
C1261 C1262 1.523 . S
C1262 C1243 1.368 . S
C1262 C1256 1.368 . S
C1262 C1261 1.523 . S
C1263 C1247 1.429 . S
C1263 C1259 1.429 . S
C1263 C1264 1.523 . S
C1264 C1248 1.368 . S
C1264 C1260 1.368 . S
C1264 C1263 1.523 . S
H1265 C1240 0.950 . S
H1266 C1242 0.950 . S
H1267 C1243 0.949 . S
H1268 C1245 0.950 . S
H1269 C1247 0.950 . S
C1270 C1271 1.349 . S
C1270 C1272 1.327 . S
C1270 H1295 0.950 . S
C1271 C1270 1.349 . S
C1271 C1287 1.349 . S
C1272 C1270 1.327 . S
C1272 C1291 1.429 . S
C1272 H1296 0.950 . S
C1273 C1290 1.574 . S
C1273 C1292 1.368 . S
C1273 H1297 0.949 . S
H1274 C1278 0.949 . S
C1275 C1276 1.349 . S
C1275 C1277 1.327 . S
C1275 H1298 0.950 . S
C1276 C1275 1.349 . S
C1276 C1288 1.349 . S
C1277 C1275 1.327 . S
C1277 C1293 1.429 . S
C1277 H1299 0.950 . S
C1278 H1274 0.949 . S
C1278 C1286 1.574 . S
C1278 C1294 1.368 . S
H1279 C1287 0.950 . S
H1280 C1285 0.950 . S
H1281 C1286 0.949 . S
H1282 C1288 0.950 . S
H1283 C1289 0.950 . S
H1284 C1290 0.949 . S
C1285 H1280 0.950 . S
C1285 C1287 1.327 . S
C1285 C1291 1.429 . S
C1286 C1278 1.574 . S
C1286 H1281 0.949 . S
C1286 C1292 1.368 . S
C1287 C1271 1.349 . S
C1287 H1279 0.950 . S
C1287 C1285 1.327 . S
C1288 C1276 1.349 . S
C1288 H1282 0.950 . S
C1288 C1289 1.327 . S
C1289 H1283 0.950 . S
C1289 C1288 1.327 . S
C1289 C1293 1.429 . S
C1290 C1273 1.574 . S
C1290 H1284 0.949 . S
C1290 C1294 1.368 . S
C1291 C1272 1.429 . S
C1291 C1285 1.429 . S
C1291 C1292 1.523 . S
C1292 C1273 1.368 . S
C1292 C1286 1.368 . S
C1292 C1291 1.523 . S
C1293 C1277 1.429 . S
C1293 C1289 1.429 . S
C1293 C1294 1.523 . S
C1294 C1278 1.368 . S
C1294 C1290 1.368 . S
C1294 C1293 1.523 . S
H1295 C1270 0.950 . S
H1296 C1272 0.950 . S
H1297 C1273 0.949 . S
H1298 C1275 0.950 . S
H1299 C1277 0.950 . S
C1300 C1301 1.349 . S
C1300 C1302 1.327 . S
C1300 H1325 0.950 . S
C1301 C1300 1.349 . S
C1301 C1317 1.349 1_545 S
C1302 C1300 1.327 . S
C1302 C1321 1.429 . S
C1302 H1326 0.950 . S
C1303 C1320 1.574 . S
C1303 C1322 1.368 1_565 S
C1303 H1327 0.949 . S
H1304 C1308 0.949 . S
C1305 C1306 1.349 . S
C1305 C1307 1.327 . S
C1305 H1328 0.950 . S
C1306 C1305 1.349 . S
C1306 C1318 1.349 1_565 S
C1307 C1305 1.327 . S
C1307 C1323 1.429 . S
C1307 H1329 0.950 . S
C1308 H1304 0.949 . S
C1308 C1316 1.574 . S
C1308 C1324 1.374 . S
H1309 C1317 0.950 . S
H1310 C1315 0.950 . S
H1311 C1316 0.949 . S
H1312 C1318 0.950 . S
H1313 C1319 0.950 . S
H1314 C1320 0.949 . S
C1315 H1310 0.950 . S
C1315 C1317 1.327 . S
C1315 C1321 1.429 1_565 S
C1316 C1308 1.574 . S
C1316 H1311 0.949 . S
C1316 C1322 1.368 . S
C1317 C1301 1.349 1_565 S
C1317 H1309 0.950 . S
C1317 C1315 1.327 . S
C1318 C1306 1.349 1_545 S
C1318 H1312 0.950 . S
C1318 C1319 1.327 . S
C1319 H1313 0.950 . S
C1319 C1318 1.327 . S
C1319 C1323 1.429 1_545 S
C1320 C1303 1.574 . S
C1320 H1314 0.949 . S
C1320 C1324 1.364 1_565 S
C1321 C1302 1.429 . S
C1321 C1315 1.429 1_545 S
C1321 C1322 1.523 . S
C1322 C1303 1.368 1_545 S
C1322 C1316 1.368 . S
C1322 C1321 1.523 . S
C1323 C1307 1.429 . S
C1323 C1319 1.429 1_565 S
C1323 C1324 1.522 1_565 S
C1324 C1308 1.374 . S
C1324 C1320 1.364 1_545 S
C1324 C1323 1.522 1_545 S
H1325 C1300 0.950 . S
H1326 C1302 0.950 . S
H1327 C1303 0.949 . S
H1328 C1305 0.950 . S
H1329 C1307 0.950 . S
C1330 C1331 1.349 . S
C1330 C1332 1.327 . S
C1330 H1355 0.950 . S
C1331 C1330 1.349 . S
C1331 C1347 1.349 . S
C1332 C1330 1.327 . S
C1332 C1351 1.429 . S
C1332 H1356 0.950 . S
C1333 C1350 1.574 . S
C1333 C1352 1.368 . S
C1333 H1357 0.949 . S
H1334 C1338 0.949 . S
C1335 C1336 1.349 . S
C1335 C1337 1.327 . S
C1335 H1358 0.950 . S
C1336 C1335 1.349 . S
C1336 C1348 1.349 . S
C1337 C1335 1.327 . S
C1337 C1353 1.429 . S
C1337 H1359 0.950 . S
C1338 H1334 0.949 . S
C1338 C1346 1.574 . S
C1338 C1354 1.368 . S
H1339 C1347 0.950 . S
H1340 C1345 0.950 . S
H1341 C1346 0.949 . S
H1342 C1348 0.950 . S
H1343 C1349 0.950 . S
H1344 C1350 0.949 . S
C1345 H1340 0.950 . S
C1345 C1347 1.327 . S
C1345 C1351 1.429 . S
C1346 C1338 1.574 . S
C1346 H1341 0.949 . S
C1346 C1352 1.368 . S
C1347 C1331 1.349 . S
C1347 H1339 0.950 . S
C1347 C1345 1.327 . S
C1348 C1336 1.349 . S
C1348 H1342 0.950 . S
C1348 C1349 1.327 . S
C1349 H1343 0.950 . S
C1349 C1348 1.327 . S
C1349 C1353 1.429 . S
C1350 C1333 1.574 . S
C1350 H1344 0.949 . S
C1350 C1354 1.368 . S
C1351 C1332 1.429 . S
C1351 C1345 1.429 . S
C1351 C1352 1.523 . S
C1352 C1333 1.368 . S
C1352 C1346 1.368 . S
C1352 C1351 1.523 . S
C1353 C1337 1.429 . S
C1353 C1349 1.429 . S
C1353 C1354 1.523 . S
C1354 C1338 1.368 . S
C1354 C1350 1.368 . S
C1354 C1353 1.523 . S
H1355 C1330 0.950 . S
H1356 C1332 0.950 . S
H1357 C1333 0.949 . S
H1358 C1335 0.950 . S
H1359 C1337 0.950 . S
C1360 C1361 1.349 . S
C1360 C1362 1.327 . S
C1360 H1385 0.950 . S
C1361 C1360 1.349 . S
C1361 C1377 1.349 . S
C1362 C1360 1.327 . S
C1362 C1381 1.429 . S
C1362 H1386 0.950 . S
C1363 C1380 1.574 . S
C1363 C1382 1.360 1_556 S
C1363 H1387 0.957 . S
H1364 C1368 0.949 . S
C1365 C1366 1.349 1_556 S
C1365 C1367 1.327 . S
C1365 H1388 0.950 . S
C1366 C1365 1.349 1_554 S
C1366 C1378 1.349 . S
C1367 C1365 1.327 . S
C1367 C1383 1.429 1_556 S
C1367 H1389 0.950 . S
C1368 H1364 0.949 . S
C1368 C1376 1.574 . S
C1368 C1384 1.368 . S
H1369 C1377 0.950 1_556 S
H1370 C1375 0.950 1_556 S
H1371 C1376 0.949 . S
H1372 C1378 0.950 . S
H1373 C1379 0.950 . S
H1374 C1380 0.949 . S
C1375 H1370 0.950 1_554 S
C1375 C1377 1.327 . S
C1375 C1381 1.429 . S
C1376 C1368 1.574 . S
C1376 H1371 0.949 . S
C1376 C1382 1.368 . S
C1377 C1361 1.349 . S
C1377 H1369 0.950 1_554 S
C1377 C1375 1.327 . S
C1378 C1366 1.349 . S
C1378 H1372 0.950 . S
C1378 C1379 1.327 . S
C1379 H1373 0.950 . S
C1379 C1378 1.327 . S
C1379 C1383 1.429 . S
C1380 C1363 1.574 . S
C1380 H1374 0.949 . S
C1380 C1384 1.368 1_556 S
C1381 C1362 1.429 . S
C1381 C1375 1.429 . S
C1381 C1382 1.523 . S
C1382 C1363 1.360 1_554 S
C1382 C1376 1.368 . S
C1382 C1381 1.523 . S
C1383 C1367 1.429 1_554 S
C1383 C1379 1.429 . S
C1383 C1384 1.523 . S
C1384 C1368 1.368 . S
C1384 C1380 1.368 1_554 S
C1384 C1383 1.523 . S
H1385 C1360 0.950 . S
H1386 C1362 0.950 . S
H1387 C1363 0.957 . S
H1388 C1365 0.950 . S
H1389 C1367 0.950 . S
C1390 C1391 1.349 . S
C1390 C1392 1.327 . S
C1390 H1415 0.950 . S
C1391 C1390 1.349 . S
C1391 C1407 1.349 . S
C1392 C1390 1.327 . S
C1392 C1411 1.429 . S
C1392 H1416 0.950 . S
C1393 C1410 1.574 . S
C1393 C1412 1.368 . S
C1393 H1417 0.949 . S
H1394 C1398 0.949 . S
C1395 C1396 1.349 . S
C1395 C1397 1.327 . S
C1395 H1418 0.950 . S
C1396 C1395 1.349 . S
C1396 C1408 1.349 . S
C1397 C1395 1.327 . S
C1397 C1413 1.429 . S
C1397 H1419 0.950 . S
C1398 H1394 0.949 . S
C1398 C1406 1.574 . S
C1398 C1414 1.368 . S
H1399 C1407 0.950 . S
H1400 C1405 0.950 . S
H1401 C1406 0.949 . S
H1402 C1408 0.950 . S
H1403 C1409 0.950 . S
H1404 C1410 0.949 . S
C1405 H1400 0.950 . S
C1405 C1407 1.327 . S
C1405 C1411 1.429 . S
C1406 C1398 1.574 . S
C1406 H1401 0.949 . S
C1406 C1412 1.368 . S
C1407 C1391 1.349 . S
C1407 H1399 0.950 . S
C1407 C1405 1.327 . S
C1408 C1396 1.349 . S
C1408 H1402 0.950 . S
C1408 C1409 1.327 . S
C1409 H1403 0.950 . S
C1409 C1408 1.327 . S
C1409 C1413 1.429 . S
C1410 C1393 1.574 . S
C1410 H1404 0.949 . S
C1410 C1414 1.368 . S
C1411 C1392 1.429 . S
C1411 C1405 1.429 . S
C1411 C1412 1.523 . S
C1412 C1393 1.368 . S
C1412 C1406 1.368 . S
C1412 C1411 1.523 . S
C1413 C1397 1.429 . S
C1413 C1409 1.429 . S
C1413 C1414 1.523 . S
C1414 C1398 1.368 . S
C1414 C1410 1.368 . S
C1414 C1413 1.523 . S
H1415 C1390 0.950 . S
H1416 C1392 0.950 . S
H1417 C1393 0.949 . S
H1418 C1395 0.950 . S
H1419 C1397 0.950 . S
C1420 C1421 1.349 . S
C1420 C1422 1.327 . S
C1420 H1445 0.950 . S
C1421 C1420 1.349 . S
C1421 C1437 1.349 . S
C1422 C1420 1.327 . S
C1422 C1441 1.429 . S
C1422 H1446 0.950 . S
C1423 C1440 1.574 . S
C1423 C1442 1.368 . S
C1423 H1447 0.949 . S
H1424 C1428 0.949 . S
C1425 C1426 1.349 . S
C1425 C1427 1.327 . S
C1425 H1448 0.950 . S
C1426 C1425 1.349 . S
C1426 C1438 1.349 . S
C1427 C1425 1.327 . S
C1427 C1443 1.429 . S
C1427 H1449 0.950 . S
C1428 H1424 0.949 . S
C1428 C1436 1.574 . S
C1428 C1444 1.368 . S
H1429 C1437 0.950 . S
H1430 C1435 0.950 . S
H1431 C1436 0.949 . S
H1432 C1438 0.950 . S
H1433 C1439 0.950 . S
H1434 C1440 0.949 . S
C1435 H1430 0.950 . S
C1435 C1437 1.327 . S
C1435 C1441 1.429 . S
C1436 C1428 1.574 . S
C1436 H1431 0.949 . S
C1436 C1442 1.368 . S
C1437 C1421 1.349 . S
C1437 H1429 0.950 . S
C1437 C1435 1.327 . S
C1438 C1426 1.349 . S
C1438 H1432 0.950 . S
C1438 C1439 1.327 . S
C1439 H1433 0.950 . S
C1439 C1438 1.327 . S
C1439 C1443 1.429 . S
C1440 C1423 1.574 . S
C1440 H1434 0.949 . S
C1440 C1444 1.368 . S
C1441 C1422 1.429 . S
C1441 C1435 1.429 . S
C1441 C1442 1.523 . S
C1442 C1423 1.368 . S
C1442 C1436 1.368 . S
C1442 C1441 1.523 . S
C1443 C1427 1.429 . S
C1443 C1439 1.429 . S
C1443 C1444 1.523 . S
C1444 C1428 1.368 . S
C1444 C1440 1.368 . S
C1444 C1443 1.523 . S
H1445 C1420 0.950 . S
H1446 C1422 0.950 . S
H1447 C1423 0.949 . S
H1448 C1425 0.950 . S
H1449 C1427 0.950 . S
C1450 C1451 1.349 . S
C1450 C1452 1.327 . S
C1450 H1475 0.950 . S
C1451 C1450 1.349 . S
C1451 C1467 1.349 . S
C1452 C1450 1.327 . S
C1452 C1471 1.429 . S
C1452 H1476 0.950 . S
C1453 C1470 1.574 . S
C1453 C1472 1.368 . S
C1453 H1477 0.949 . S
H1454 C1458 0.949 . S
C1455 C1456 1.349 . S
C1455 C1457 1.327 . S
C1455 H1478 0.950 . S
C1456 C1455 1.349 . S
C1456 C1468 1.349 . S
C1457 C1455 1.327 . S
C1457 C1473 1.429 . S
C1457 H1479 0.950 . S
C1458 H1454 0.949 . S
C1458 C1466 1.574 . S
C1458 C1474 1.368 . S
H1459 C1467 0.950 . S
H1460 C1465 0.950 . S
H1461 C1466 0.949 . S
H1462 C1468 0.950 . S
H1463 C1469 0.950 . S
H1464 C1470 0.949 . S
C1465 H1460 0.950 . S
C1465 C1467 1.327 . S
C1465 C1471 1.429 . S
C1466 C1458 1.574 . S
C1466 H1461 0.949 . S
C1466 C1472 1.368 . S
C1467 C1451 1.349 . S
C1467 H1459 0.950 . S
C1467 C1465 1.327 . S
C1468 C1456 1.349 . S
C1468 H1462 0.950 . S
C1468 C1469 1.327 . S
C1469 H1463 0.950 . S
C1469 C1468 1.327 . S
C1469 C1473 1.429 . S
C1470 C1453 1.574 . S
C1470 H1464 0.949 . S
C1470 C1474 1.368 . S
C1471 C1452 1.429 . S
C1471 C1465 1.429 . S
C1471 C1472 1.523 . S
C1472 C1453 1.368 . S
C1472 C1466 1.368 . S
C1472 C1471 1.523 . S
C1473 C1457 1.429 . S
C1473 C1469 1.429 . S
C1473 C1474 1.523 . S
C1474 C1458 1.368 . S
C1474 C1470 1.368 . S
C1474 C1473 1.523 . S
H1475 C1450 0.950 . S
H1476 C1452 0.950 . S
H1477 C1453 0.949 . S
H1478 C1455 0.950 . S
H1479 C1457 0.950 . S
C1480 C1481 1.349 . S
C1480 C1482 1.327 . S
C1480 H1505 0.950 . S
C1481 C1480 1.349 . S
C1481 C1497 1.349 . S
C1482 C1480 1.327 . S
C1482 C1501 1.429 . S
C1482 H1506 0.950 . S
C1483 C1500 1.574 . S
C1483 C1502 1.368 . S
C1483 H1507 0.949 . S
H1484 C1488 0.949 . S
C1485 C1486 1.349 . S
C1485 C1487 1.327 . S
C1485 H1508 0.950 . S
C1486 C1485 1.349 . S
C1486 C1498 1.349 . S
C1487 C1485 1.327 . S
C1487 C1503 1.429 . S
C1487 H1509 0.950 . S
C1488 H1484 0.949 . S
C1488 C1496 1.574 . S
C1488 C1504 1.368 . S
H1489 C1497 0.950 . S
H1490 C1495 0.950 . S
H1491 C1496 0.949 . S
H1492 C1498 0.950 . S
H1493 C1499 0.950 . S
H1494 C1500 0.949 . S
C1495 H1490 0.950 . S
C1495 C1497 1.327 . S
C1495 C1501 1.429 . S
C1496 C1488 1.574 . S
C1496 H1491 0.949 . S
C1496 C1502 1.368 . S
C1497 C1481 1.349 . S
C1497 H1489 0.950 . S
C1497 C1495 1.327 . S
C1498 C1486 1.349 . S
C1498 H1492 0.950 . S
C1498 C1499 1.327 . S
C1499 H1493 0.950 . S
C1499 C1498 1.327 . S
C1499 C1503 1.429 . S
C1500 C1483 1.574 . S
C1500 H1494 0.949 . S
C1500 C1504 1.368 . S
C1501 C1482 1.429 . S
C1501 C1495 1.429 . S
C1501 C1502 1.523 . S
C1502 C1483 1.368 . S
C1502 C1496 1.368 . S
C1502 C1501 1.523 . S
C1503 C1487 1.429 . S
C1503 C1499 1.429 . S
C1503 C1504 1.523 . S
C1504 C1488 1.368 . S
C1504 C1500 1.368 . S
C1504 C1503 1.523 . S
H1505 C1480 0.950 . S
H1506 C1482 0.950 . S
H1507 C1483 0.949 . S
H1508 C1485 0.950 . S
H1509 C1487 0.950 . S
C1510 C1511 1.349 . S
C1510 C1512 1.327 . S
C1510 H1535 0.950 . S
C1511 C1510 1.349 . S
C1511 C1527 1.349 . S
C1512 C1510 1.327 . S
C1512 C1531 1.429 . S
C1512 H1536 0.950 . S
C1513 C1530 1.574 . S
C1513 C1532 1.368 . S
C1513 H1537 0.949 . S
H1514 C1518 0.949 . S
C1515 C1516 1.349 . S
C1515 C1517 1.327 . S
C1515 H1538 0.950 . S
C1516 C1515 1.349 . S
C1516 C1528 1.349 . S
C1517 C1515 1.327 . S
C1517 C1533 1.429 . S
C1517 H1539 0.950 . S
C1518 H1514 0.949 . S
C1518 C1526 1.574 . S
C1518 C1534 1.368 . S
H1519 C1527 0.950 . S
H1520 C1525 0.950 . S
H1521 C1526 0.949 . S
H1522 C1528 0.950 . S
H1523 C1529 0.950 . S
H1524 C1530 0.949 . S
C1525 H1520 0.950 . S
C1525 C1527 1.327 . S
C1525 C1531 1.429 . S
C1526 C1518 1.574 . S
C1526 H1521 0.949 . S
C1526 C1532 1.368 . S
C1527 C1511 1.349 . S
C1527 H1519 0.950 . S
C1527 C1525 1.327 . S
C1528 C1516 1.349 . S
C1528 H1522 0.950 . S
C1528 C1529 1.327 . S
C1529 H1523 0.950 . S
C1529 C1528 1.327 . S
C1529 C1533 1.429 . S
C1530 C1513 1.574 . S
C1530 H1524 0.949 . S
C1530 C1534 1.368 . S
C1531 C1512 1.429 . S
C1531 C1525 1.429 . S
C1531 C1532 1.523 . S
C1532 C1513 1.368 . S
C1532 C1526 1.368 . S
C1532 C1531 1.523 . S
C1533 C1517 1.429 . S
C1533 C1529 1.429 . S
C1533 C1534 1.523 . S
C1534 C1518 1.368 . S
C1534 C1530 1.368 . S
C1534 C1533 1.523 . S
H1535 C1510 0.950 . S
H1536 C1512 0.950 . S
H1537 C1513 0.949 . S
H1538 C1515 0.950 . S
H1539 C1517 0.950 . S
C1540 C1541 1.349 . S
C1540 C1542 1.327 . S
C1540 H1565 0.950 . S
C1541 C1540 1.349 . S
C1541 C1557 1.349 . S
C1542 C1540 1.327 . S
C1542 C1561 1.429 . S
C1542 H1566 0.950 . S
C1543 C1560 1.574 . S
C1543 C1562 1.368 . S
C1543 H1567 0.949 . S
H1544 C1548 0.949 . S
C1545 C1546 1.349 . S
C1545 C1547 1.327 . S
C1545 H1568 0.950 . S
C1546 C1545 1.349 . S
C1546 C1558 1.349 . S
C1547 C1545 1.327 . S
C1547 C1563 1.429 . S
C1547 H1569 0.950 . S
C1548 H1544 0.949 . S
C1548 C1556 1.574 . S
C1548 C1564 1.368 . S
H1549 C1557 0.950 . S
H1550 C1555 0.950 . S
H1551 C1556 0.949 . S
H1552 C1558 0.950 . S
H1553 C1559 0.950 . S
H1554 C1560 0.949 . S
C1555 H1550 0.950 . S
C1555 C1557 1.327 . S
C1555 C1561 1.429 . S
C1556 C1548 1.574 . S
C1556 H1551 0.949 . S
C1556 C1562 1.368 . S
C1557 C1541 1.349 . S
C1557 H1549 0.950 . S
C1557 C1555 1.327 . S
C1558 C1546 1.349 . S
C1558 H1552 0.950 . S
C1558 C1559 1.327 . S
C1559 H1553 0.950 . S
C1559 C1558 1.327 . S
C1559 C1563 1.429 . S
C1560 C1543 1.574 . S
C1560 H1554 0.949 . S
C1560 C1564 1.368 . S
C1561 C1542 1.429 . S
C1561 C1555 1.429 . S
C1561 C1562 1.523 . S
C1562 C1543 1.368 . S
C1562 C1556 1.368 . S
C1562 C1561 1.523 . S
C1563 C1547 1.429 . S
C1563 C1559 1.429 . S
C1563 C1564 1.523 . S
C1564 C1548 1.368 . S
C1564 C1560 1.368 . S
C1564 C1563 1.523 . S
H1565 C1540 0.950 . S
H1566 C1542 0.950 . S
H1567 C1543 0.949 . S
H1568 C1545 0.950 . S
H1569 C1547 0.950 . S
C1570 C1571 1.349 . S
C1570 C1572 1.327 . S
C1570 H1595 0.950 . S
C1571 C1570 1.349 . S
C1571 C1587 1.349 . S
C1572 C1570 1.327 . S
C1572 C1591 1.429 . S
C1572 H1596 0.950 . S
C1573 C1590 1.574 . S
C1573 C1592 1.368 . S
C1573 H1597 0.949 . S
H1574 C1578 0.949 . S
C1575 C1576 1.349 . S
C1575 C1577 1.327 . S
C1575 H1598 0.950 . S
C1576 C1575 1.349 . S
C1576 C1588 1.349 . S
C1577 C1575 1.327 . S
C1577 C1593 1.429 . S
C1577 H1599 0.950 . S
C1578 H1574 0.949 . S
C1578 C1586 1.574 . S
C1578 C1594 1.368 . S
H1579 C1587 0.950 . S
H1580 C1585 0.950 . S
H1581 C1586 0.949 . S
H1582 C1588 0.950 . S
H1583 C1589 0.950 . S
H1584 C1590 0.949 . S
C1585 H1580 0.950 . S
C1585 C1587 1.327 . S
C1585 C1591 1.429 . S
C1586 C1578 1.574 . S
C1586 H1581 0.949 . S
C1586 C1592 1.368 . S
C1587 C1571 1.349 . S
C1587 H1579 0.950 . S
C1587 C1585 1.327 . S
C1588 C1576 1.349 . S
C1588 H1582 0.950 . S
C1588 C1589 1.327 . S
C1589 H1583 0.950 . S
C1589 C1588 1.327 . S
C1589 C1593 1.429 . S
C1590 C1573 1.574 . S
C1590 H1584 0.949 . S
C1590 C1594 1.368 . S
C1591 C1572 1.429 . S
C1591 C1585 1.429 . S
C1591 C1592 1.523 . S
C1592 C1573 1.368 . S
C1592 C1586 1.368 . S
C1592 C1591 1.523 . S
C1593 C1577 1.429 . S
C1593 C1589 1.429 . S
C1593 C1594 1.523 . S
C1594 C1578 1.368 . S
C1594 C1590 1.368 . S
C1594 C1593 1.523 . S
H1595 C1570 0.950 . S
H1596 C1572 0.950 . S
H1597 C1573 0.949 . S
H1598 C1575 0.950 . S
H1599 C1577 0.950 . S
C1600 C1601 1.349 . S
C1600 C1602 1.327 . S
C1600 H1625 0.950 . S
C1601 C1600 1.349 . S
C1601 C1617 1.359 . S
C1602 C1600 1.327 . S
C1602 C1621 1.429 . S
C1602 H1626 0.950 . S
C1603 C1620 1.574 . S
C1603 C1622 1.368 . S
C1603 H1627 0.949 . S
H1604 C1608 0.949 . S
C1605 C1606 1.349 . S
C1605 C1607 1.327 1_554 S
C1605 H1628 0.950 . S
C1606 C1605 1.349 . S
C1606 C1618 1.349 1_554 S
C1607 C1605 1.327 1_556 S
C1607 C1623 1.429 . S
C1607 H1629 0.950 1_556 S
C1608 H1604 0.949 . S
C1608 C1616 1.574 . S
C1608 C1624 1.368 . S
H1609 C1617 0.936 1_655 S
H1610 C1615 0.949 . S
H1611 C1616 0.949 . S
H1612 C1618 0.950 . S
H1613 C1619 0.950 . S
H1614 C1620 0.949 . S
C1615 H1610 0.949 . S
C1615 C1617 1.331 . S
C1615 C1621 1.429 . S
C1616 C1608 1.574 . S
C1616 H1611 0.949 . S
C1616 C1622 1.368 . S
C1617 C1601 1.359 . S
C1617 H1609 0.936 1_455 S
C1617 C1615 1.331 . S
C1618 C1606 1.349 1_556 S
C1618 H1612 0.950 . S
C1618 C1619 1.327 . S
C1619 H1613 0.950 . S
C1619 C1618 1.327 . S
C1619 C1623 1.429 . S
C1620 C1603 1.574 . S
C1620 H1614 0.949 . S
C1620 C1624 1.368 . S
C1621 C1602 1.429 . S
C1621 C1615 1.429 . S
C1621 C1622 1.523 . S
C1622 C1603 1.368 . S
C1622 C1616 1.368 . S
C1622 C1621 1.523 . S
C1623 C1607 1.429 . S
C1623 C1619 1.429 . S
C1623 C1624 1.523 . S
C1624 C1608 1.368 . S
C1624 C1620 1.368 . S
C1624 C1623 1.523 . S
H1625 C1600 0.950 . S
H1626 C1602 0.950 . S
H1627 C1603 0.949 . S
H1628 C1605 0.950 . S
H1629 C1607 0.950 1_554 S
C1630 C1631 1.349 . S
C1630 C1632 1.327 . S
C1630 H1655 0.950 . S
C1631 C1630 1.349 . S
C1631 C1647 1.349 . S
C1632 C1630 1.327 . S
C1632 C1651 1.429 . S
C1632 H1656 0.950 . S
C1633 C1650 1.574 . S
C1633 C1652 1.368 . S
C1633 H1657 0.949 . S
H1634 C1638 0.949 . S
C1635 C1636 1.349 . S
C1635 C1637 1.327 . S
C1635 H1658 0.950 . S
C1636 C1635 1.349 . S
C1636 C1648 1.349 . S
C1637 C1635 1.327 . S
C1637 C1653 1.429 . S
C1637 H1659 0.950 . S
C1638 H1634 0.949 . S
C1638 C1646 1.574 . S
C1638 C1654 1.368 . S
H1639 C1647 0.950 . S
H1640 C1645 0.950 . S
H1641 C1646 0.949 . S
H1642 C1648 0.950 . S
H1643 C1649 0.950 . S
H1644 C1650 0.949 . S
C1645 H1640 0.950 . S
C1645 C1647 1.327 . S
C1645 C1651 1.429 . S
C1646 C1638 1.574 . S
C1646 H1641 0.949 . S
C1646 C1652 1.368 . S
C1647 C1631 1.349 . S
C1647 H1639 0.950 . S
C1647 C1645 1.327 . S
C1648 C1636 1.349 . S
C1648 H1642 0.950 . S
C1648 C1649 1.327 . S
C1649 H1643 0.950 . S
C1649 C1648 1.327 . S
C1649 C1653 1.429 . S
C1650 C1633 1.574 . S
C1650 H1644 0.949 . S
C1650 C1654 1.368 . S
C1651 C1632 1.429 . S
C1651 C1645 1.429 . S
C1651 C1652 1.523 . S
C1652 C1633 1.368 . S
C1652 C1646 1.368 . S
C1652 C1651 1.523 . S
C1653 C1637 1.429 . S
C1653 C1649 1.429 . S
C1653 C1654 1.523 . S
C1654 C1638 1.368 . S
C1654 C1650 1.368 . S
C1654 C1653 1.523 . S
H1655 C1630 0.950 . S
H1656 C1632 0.950 . S
H1657 C1633 0.949 . S
H1658 C1635 0.950 . S
H1659 C1637 0.950 . S
C1660 C1661 1.349 . S
C1660 C1662 1.327 . S
C1660 H1685 0.950 . S
C1661 C1660 1.349 . S
C1661 C1677 1.349 . S
C1662 C1660 1.327 . S
C1662 C1681 1.429 . S
C1662 H1686 0.950 . S
C1663 C1680 1.574 . S
C1663 C1682 1.368 . S
C1663 H1687 0.949 . S
H1664 C1668 0.949 . S
C1665 C1666 1.349 . S
C1665 C1667 1.327 . S
C1665 H1688 0.950 . S
C1666 C1665 1.349 . S
C1666 C1678 1.349 . S
C1667 C1665 1.327 . S
C1667 C1683 1.429 . S
C1667 H1689 0.950 . S
C1668 H1664 0.949 . S
C1668 C1676 1.574 . S
C1668 C1684 1.368 . S
H1669 C1677 0.950 . S
H1670 C1675 0.950 . S
H1671 C1676 0.949 . S
H1672 C1678 0.950 . S
H1673 C1679 0.950 . S
H1674 C1680 0.949 . S
C1675 H1670 0.950 . S
C1675 C1677 1.327 . S
C1675 C1681 1.429 . S
C1676 C1668 1.574 . S
C1676 H1671 0.949 . S
C1676 C1682 1.368 . S
C1677 C1661 1.349 . S
C1677 H1669 0.950 . S
C1677 C1675 1.327 . S
C1678 C1666 1.349 . S
C1678 H1672 0.950 . S
C1678 C1679 1.327 . S
C1679 H1673 0.950 . S
C1679 C1678 1.327 . S
C1679 C1683 1.429 . S
C1680 C1663 1.574 . S
C1680 H1674 0.949 . S
C1680 C1684 1.368 . S
C1681 C1662 1.429 . S
C1681 C1675 1.429 . S
C1681 C1682 1.523 . S
C1682 C1663 1.368 . S
C1682 C1676 1.368 . S
C1682 C1681 1.523 . S
C1683 C1667 1.429 . S
C1683 C1679 1.429 . S
C1683 C1684 1.523 . S
C1684 C1668 1.368 . S
C1684 C1680 1.368 . S
C1684 C1683 1.523 . S
H1685 C1660 0.950 . S
H1686 C1662 0.950 . S
H1687 C1663 0.949 . S
H1688 C1665 0.950 . S
H1689 C1667 0.950 . S
C1690 C1691 1.349 . S
C1690 C1692 1.327 . S
C1690 H1715 0.950 . S
C1691 C1690 1.349 . S
C1691 C1707 1.349 . S
C1692 C1690 1.327 . S
C1692 C1711 1.429 . S
C1692 H1716 0.950 . S
C1693 C1710 1.574 . S
C1693 C1712 1.368 . S
C1693 H1717 0.949 . S
H1694 C1698 0.949 . S
C1695 C1696 1.349 . S
C1695 C1697 1.327 . S
C1695 H1718 0.950 . S
C1696 C1695 1.349 . S
C1696 C1708 1.349 . S
C1697 C1695 1.327 . S
C1697 C1713 1.429 . S
C1697 H1719 0.950 . S
C1698 H1694 0.949 . S
C1698 C1706 1.574 . S
C1698 C1714 1.368 . S
H1699 C1707 0.950 . S
H1700 C1705 0.950 . S
H1701 C1706 0.949 . S
H1702 C1708 0.950 . S
H1703 C1709 0.950 . S
H1704 C1710 0.949 . S
C1705 H1700 0.950 . S
C1705 C1707 1.327 . S
C1705 C1711 1.429 . S
C1706 C1698 1.574 . S
C1706 H1701 0.949 . S
C1706 C1712 1.368 . S
C1707 C1691 1.349 . S
C1707 H1699 0.950 . S
C1707 C1705 1.327 . S
C1708 C1696 1.349 . S
C1708 H1702 0.950 . S
C1708 C1709 1.327 . S
C1709 H1703 0.950 . S
C1709 C1708 1.327 . S
C1709 C1713 1.429 . S
C1710 C1693 1.574 . S
C1710 H1704 0.949 . S
C1710 C1714 1.368 . S
C1711 C1692 1.429 . S
C1711 C1705 1.429 . S
C1711 C1712 1.523 . S
C1712 C1693 1.368 . S
C1712 C1706 1.368 . S
C1712 C1711 1.523 . S
C1713 C1697 1.429 . S
C1713 C1709 1.429 . S
C1713 C1714 1.523 . S
C1714 C1698 1.368 . S
C1714 C1710 1.368 . S
C1714 C1713 1.523 . S
H1715 C1690 0.950 . S
H1716 C1692 0.950 . S
H1717 C1693 0.949 . S
H1718 C1695 0.950 . S
H1719 C1697 0.950 . S
C1720 C1721 1.349 . S
C1720 C1722 1.327 . S
C1720 H1745 0.950 . S
C1721 C1720 1.349 . S
C1721 C1737 1.349 . S
C1722 C1720 1.327 . S
C1722 C1741 1.429 . S
C1722 H1746 0.950 . S
C1723 C1740 1.574 . S
C1723 C1742 1.368 . S
C1723 H1747 0.949 . S
H1724 C1728 0.949 . S
C1725 C1726 1.349 . S
C1725 C1727 1.327 . S
C1725 H1748 0.950 . S
C1726 C1725 1.349 . S
C1726 C1738 1.349 . S
C1727 C1725 1.327 . S
C1727 C1743 1.429 . S
C1727 H1749 0.950 . S
C1728 H1724 0.949 . S
C1728 C1736 1.574 . S
C1728 C1744 1.368 . S
H1729 C1737 0.950 . S
H1730 C1735 0.950 . S
H1731 C1736 0.949 . S
H1732 C1738 0.950 . S
H1733 C1739 0.950 . S
H1734 C1740 0.949 . S
C1735 H1730 0.950 . S
C1735 C1737 1.327 . S
C1735 C1741 1.429 . S
C1736 C1728 1.574 . S
C1736 H1731 0.949 . S
C1736 C1742 1.368 . S
C1737 C1721 1.349 . S
C1737 H1729 0.950 . S
C1737 C1735 1.327 . S
C1738 C1726 1.349 . S
C1738 H1732 0.950 . S
C1738 C1739 1.327 . S
C1739 H1733 0.950 . S
C1739 C1738 1.327 . S
C1739 C1743 1.429 . S
C1740 C1723 1.574 . S
C1740 H1734 0.949 . S
C1740 C1744 1.368 . S
C1741 C1722 1.429 . S
C1741 C1735 1.429 . S
C1741 C1742 1.523 . S
C1742 C1723 1.368 . S
C1742 C1736 1.368 . S
C1742 C1741 1.523 . S
C1743 C1727 1.429 . S
C1743 C1739 1.429 . S
C1743 C1744 1.523 . S
C1744 C1728 1.368 . S
C1744 C1740 1.368 . S
C1744 C1743 1.523 . S
H1745 C1720 0.950 . S
H1746 C1722 0.950 . S
H1747 C1723 0.949 . S
H1748 C1725 0.950 . S
H1749 C1727 0.950 . S
C1750 C1751 1.349 . S
C1750 C1752 1.327 . S
C1750 H1775 0.950 . S
C1751 C1750 1.349 . S
C1751 C1767 1.349 . S
C1752 C1750 1.327 . S
C1752 C1771 1.429 . S
C1752 H1776 0.950 . S
C1753 C1770 1.574 . S
C1753 C1772 1.368 . S
C1753 H1777 0.949 . S
H1754 C1758 0.949 . S
C1755 C1756 1.349 . S
C1755 C1757 1.327 . S
C1755 H1778 0.950 . S
C1756 C1755 1.349 . S
C1756 C1768 1.349 . S
C1757 C1755 1.327 . S
C1757 C1773 1.429 . S
C1757 H1779 0.950 . S
C1758 H1754 0.949 . S
C1758 C1766 1.574 . S
C1758 C1774 1.368 . S
H1759 C1767 0.950 . S
H1760 C1765 0.950 . S
H1761 C1766 0.949 . S
H1762 C1768 0.950 . S
H1763 C1769 0.950 . S
H1764 C1770 0.949 . S
C1765 H1760 0.950 . S
C1765 C1767 1.327 . S
C1765 C1771 1.429 . S
C1766 C1758 1.574 . S
C1766 H1761 0.949 . S
C1766 C1772 1.368 . S
C1767 C1751 1.349 . S
C1767 H1759 0.950 . S
C1767 C1765 1.327 . S
C1768 C1756 1.349 . S
C1768 H1762 0.950 . S
C1768 C1769 1.327 . S
C1769 H1763 0.950 . S
C1769 C1768 1.327 . S
C1769 C1773 1.429 . S
C1770 C1753 1.574 . S
C1770 H1764 0.949 . S
C1770 C1774 1.368 . S
C1771 C1752 1.429 . S
C1771 C1765 1.429 . S
C1771 C1772 1.523 . S
C1772 C1753 1.368 . S
C1772 C1766 1.368 . S
C1772 C1771 1.523 . S
C1773 C1757 1.429 . S
C1773 C1769 1.429 . S
C1773 C1774 1.523 . S
C1774 C1758 1.368 . S
C1774 C1770 1.368 . S
C1774 C1773 1.523 . S
H1775 C1750 0.950 . S
H1776 C1752 0.950 . S
H1777 C1753 0.949 . S
H1778 C1755 0.950 . S
H1779 C1757 0.950 . S
C1780 C1781 1.349 . S
C1780 C1782 1.327 . S
C1780 H1805 0.950 . S
C1781 C1780 1.349 . S
C1781 C1797 1.349 . S
C1782 C1780 1.327 . S
C1782 C1801 1.429 . S
C1782 H1806 0.950 . S
C1783 C1800 1.574 . S
C1783 C1802 1.368 . S
C1783 H1807 0.949 . S
H1784 C1788 0.949 . S
C1785 C1786 1.349 . S
C1785 C1787 1.327 . S
C1785 H1808 0.950 . S
C1786 C1785 1.349 . S
C1786 C1798 1.349 . S
C1787 C1785 1.327 . S
C1787 C1803 1.429 . S
C1787 H1809 0.950 . S
C1788 H1784 0.949 . S
C1788 C1796 1.574 . S
C1788 C1804 1.368 . S
H1789 C1797 0.950 . S
H1790 C1795 0.950 . S
H1791 C1796 0.949 . S
H1792 C1798 0.950 . S
H1793 C1799 0.950 . S
H1794 C1800 0.949 . S
C1795 H1790 0.950 . S
C1795 C1797 1.327 . S
C1795 C1801 1.429 . S
C1796 C1788 1.574 . S
C1796 H1791 0.949 . S
C1796 C1802 1.368 . S
C1797 C1781 1.349 . S
C1797 H1789 0.950 . S
C1797 C1795 1.327 . S
C1798 C1786 1.349 . S
C1798 H1792 0.950 . S
C1798 C1799 1.327 . S
C1799 H1793 0.950 . S
C1799 C1798 1.327 . S
C1799 C1803 1.429 . S
C1800 C1783 1.574 . S
C1800 H1794 0.949 . S
C1800 C1804 1.368 . S
C1801 C1782 1.429 . S
C1801 C1795 1.429 . S
C1801 C1802 1.523 . S
C1802 C1783 1.368 . S
C1802 C1796 1.368 . S
C1802 C1801 1.523 . S
C1803 C1787 1.429 . S
C1803 C1799 1.429 . S
C1803 C1804 1.523 . S
C1804 C1788 1.368 . S
C1804 C1800 1.368 . S
C1804 C1803 1.523 . S
H1805 C1780 0.950 . S
H1806 C1782 0.950 . S
H1807 C1783 0.949 . S
H1808 C1785 0.950 . S
H1809 C1787 0.950 . S
C1810 C1811 1.349 . S
C1810 C1812 1.327 . S
C1810 H1835 0.950 . S
C1811 C1810 1.349 . S
C1811 C1827 1.349 . S
C1812 C1810 1.327 . S
C1812 C1831 1.429 . S
C1812 H1836 0.950 . S
C1813 C1830 1.574 . S
C1813 C1832 1.368 . S
C1813 H1837 0.949 . S
H1814 C1818 0.949 . S
C1815 C1816 1.349 . S
C1815 C1817 1.327 . S
C1815 H1838 0.950 . S
C1816 C1815 1.349 . S
C1816 C1828 1.349 . S
C1817 C1815 1.327 . S
C1817 C1833 1.429 . S
C1817 H1839 0.950 . S
C1818 H1814 0.949 . S
C1818 C1826 1.574 . S
C1818 C1834 1.368 . S
H1819 C1827 0.950 . S
H1820 C1825 0.950 . S
H1821 C1826 0.949 . S
H1822 C1828 0.950 . S
H1823 C1829 0.950 . S
H1824 C1830 0.949 . S
C1825 H1820 0.950 . S
C1825 C1827 1.327 . S
C1825 C1831 1.429 . S
C1826 C1818 1.574 . S
C1826 H1821 0.949 . S
C1826 C1832 1.368 . S
C1827 C1811 1.349 . S
C1827 H1819 0.950 . S
C1827 C1825 1.327 . S
C1828 C1816 1.349 . S
C1828 H1822 0.950 . S
C1828 C1829 1.327 . S
C1829 H1823 0.950 . S
C1829 C1828 1.327 . S
C1829 C1833 1.429 . S
C1830 C1813 1.574 . S
C1830 H1824 0.949 . S
C1830 C1834 1.368 . S
C1831 C1812 1.429 . S
C1831 C1825 1.429 . S
C1831 C1832 1.523 . S
C1832 C1813 1.368 . S
C1832 C1826 1.368 . S
C1832 C1831 1.523 . S
C1833 C1817 1.429 . S
C1833 C1829 1.429 . S
C1833 C1834 1.523 . S
C1834 C1818 1.368 . S
C1834 C1830 1.368 . S
C1834 C1833 1.523 . S
H1835 C1810 0.950 . S
H1836 C1812 0.950 . S
H1837 C1813 0.949 . S
H1838 C1815 0.950 . S
H1839 C1817 0.950 . S
C1840 C1841 1.387 . S
C1840 C1842 1.327 . S
C1840 H1865 0.950 . S
C1841 C1840 1.387 . S
C1841 C1857 1.313 1_545 S
C1842 C1840 1.327 . S
C1842 C1861 1.429 . S
C1842 H1866 0.950 . S
C1843 C1860 1.574 . S
C1843 C1862 1.368 1_565 S
C1843 H1867 0.949 . S
H1844 C1848 0.949 . S
C1845 C1846 1.349 1_565 S
C1845 C1847 1.327 . S
C1845 H1868 0.950 . S
C1846 C1845 1.349 1_545 S
C1846 C1858 1.349 . S
C1847 C1845 1.327 . S
C1847 C1863 1.429 1_465 S
C1847 H1869 0.950 . S
C1848 H1844 0.949 . S
C1848 C1856 1.574 . S
C1848 C1864 1.368 . S
H1849 C1857 0.950 . S
H1850 C1855 0.950 . S
H1851 C1856 0.949 . S
H1852 C1858 0.944 1_655 S
H1853 C1859 0.950 . S
H1854 C1860 0.949 . S
C1855 H1850 0.950 . S
C1855 C1857 1.327 . S
C1855 C1861 1.429 1_565 S
C1856 C1848 1.574 . S
C1856 H1851 0.949 . S
C1856 C1862 1.368 . S
C1857 C1841 1.313 1_565 S
C1857 H1849 0.950 . S
C1857 C1855 1.327 . S
C1858 C1846 1.349 . S
C1858 H1852 0.944 1_455 S
C1858 C1859 1.327 1_455 S
C1859 H1853 0.950 . S
C1859 C1858 1.327 1_655 S
C1859 C1863 1.429 . S
C1860 C1843 1.574 . S
C1860 H1854 0.949 . S
C1860 C1864 1.368 1_565 S
C1861 C1842 1.429 . S
C1861 C1855 1.429 1_545 S
C1861 C1862 1.523 . S
C1862 C1843 1.368 1_545 S
C1862 C1856 1.368 . S
C1862 C1861 1.523 . S
C1863 C1847 1.429 1_645 S
C1863 C1859 1.429 . S
C1863 C1864 1.523 . S
C1864 C1848 1.368 . S
C1864 C1860 1.368 1_545 S
C1864 C1863 1.523 . S
H1865 C1840 0.950 . S
H1866 C1842 0.950 . S
H1867 C1843 0.949 . S
H1868 C1845 0.950 . S
H1869 C1847 0.950 . S
C1870 C1871 1.349 . S
C1870 C1872 1.327 . S
C1870 H1895 0.950 . S
C1871 C1870 1.349 . S
C1871 C1887 1.349 . S
C1872 C1870 1.327 . S
C1872 C1891 1.429 . S
C1872 H1896 0.950 . S
C1873 C1890 1.574 . S
C1873 C1892 1.368 . S
C1873 H1897 0.949 . S
H1874 C1878 0.949 . S
C1875 C1876 1.349 . S
C1875 C1877 1.327 . S
C1875 H1898 0.950 . S
C1876 C1875 1.349 . S
C1876 C1888 1.349 . S
C1877 C1875 1.327 . S
C1877 C1893 1.429 . S
C1877 H1899 0.950 . S
C1878 H1874 0.949 . S
C1878 C1886 1.574 . S
C1878 C1894 1.368 . S
H1879 C1887 0.950 . S
H1880 C1885 0.950 . S
H1881 C1886 0.949 . S
H1882 C1888 0.950 . S
H1883 C1889 0.950 . S
H1884 C1890 0.949 . S
C1885 H1880 0.950 . S
C1885 C1887 1.327 . S
C1885 C1891 1.429 . S
C1886 C1878 1.574 . S
C1886 H1881 0.949 . S
C1886 C1892 1.368 . S
C1887 C1871 1.349 . S
C1887 H1879 0.950 . S
C1887 C1885 1.327 . S
C1888 C1876 1.349 . S
C1888 H1882 0.950 . S
C1888 C1889 1.327 . S
C1889 H1883 0.950 . S
C1889 C1888 1.327 . S
C1889 C1893 1.429 . S
C1890 C1873 1.574 . S
C1890 H1884 0.949 . S
C1890 C1894 1.368 . S
C1891 C1872 1.429 . S
C1891 C1885 1.429 . S
C1891 C1892 1.523 . S
C1892 C1873 1.368 . S
C1892 C1886 1.368 . S
C1892 C1891 1.523 . S
C1893 C1877 1.429 . S
C1893 C1889 1.429 . S
C1893 C1894 1.523 . S
C1894 C1878 1.368 . S
C1894 C1890 1.368 . S
C1894 C1893 1.523 . S
H1895 C1870 0.950 . S
H1896 C1872 0.950 . S
H1897 C1873 0.949 . S
H1898 C1875 0.950 . S
H1899 C1877 0.950 . S
C1900 C1901 1.349 . S
C1900 C1902 1.327 . S
C1900 H1925 0.950 1_545 S
C1901 C1900 1.349 . S
C1901 C1917 1.349 . S
C1902 C1900 1.327 . S
C1902 C1921 1.429 . S
C1902 H1926 0.950 1_545 S
C1903 C1920 1.574 . S
C1903 C1922 1.368 . S
C1903 H1927 0.949 . S
H1904 C1908 0.949 . S
C1905 C1906 1.349 . S
C1905 C1907 1.327 . S
C1905 H1928 0.950 . S
C1906 C1905 1.349 . S
C1906 C1918 1.349 1_545 S
C1907 C1905 1.327 . S
C1907 C1923 1.429 . S
C1907 H1929 0.950 . S
C1908 H1904 0.949 . S
C1908 C1916 1.575 . S
C1908 C1924 1.368 1_565 S
H1909 C1917 0.950 . S
H1910 C1915 0.950 . S
H1911 C1916 0.977 . S
H1912 C1918 0.950 . S
H1913 C1919 0.950 . S
H1914 C1920 0.949 . S
C1915 H1910 0.950 . S
C1915 C1917 1.327 . S
C1915 C1921 1.429 . S
C1916 C1908 1.575 . S
C1916 H1911 0.977 . S
C1916 C1922 1.337 1_565 S
C1917 C1901 1.349 . S
C1917 H1909 0.950 . S
C1917 C1915 1.327 . S
C1918 C1906 1.349 1_565 S
C1918 H1912 0.950 . S
C1918 C1919 1.327 . S
C1919 H1913 0.950 . S
C1919 C1918 1.327 . S
C1919 C1923 1.429 1_565 S
C1920 C1903 1.574 . S
C1920 H1914 0.949 . S
C1920 C1924 1.368 . S
C1921 C1902 1.429 . S
C1921 C1915 1.429 . S
C1921 C1922 1.523 . S
C1922 C1903 1.368 . S
C1922 C1916 1.337 1_545 S
C1922 C1921 1.523 . S
C1923 C1907 1.429 . S
C1923 C1919 1.429 1_545 S
C1923 C1924 1.523 . S
C1924 C1908 1.368 1_545 S
C1924 C1920 1.368 . S
C1924 C1923 1.523 . S
H1925 C1900 0.950 1_565 S
H1926 C1902 0.950 1_565 S
H1927 C1903 0.949 . S
H1928 C1905 0.950 . S
H1929 C1907 0.950 . S
C1930 C1931 1.349 . S
C1930 C1932 1.327 . S
C1930 H1955 0.950 . S
C1931 C1930 1.349 . S
C1931 C1947 1.349 . S
C1932 C1930 1.327 . S
C1932 C1951 1.429 . S
C1932 H1956 0.950 . S
C1933 C1950 1.574 . S
C1933 C1952 1.368 . S
C1933 H1957 0.949 . S
H1934 C1938 0.949 . S
C1935 C1936 1.349 . S
C1935 C1937 1.327 . S
C1935 H1958 0.950 . S
C1936 C1935 1.349 . S
C1936 C1948 1.349 . S
C1937 C1935 1.327 . S
C1937 C1953 1.429 . S
C1937 H1959 0.950 . S
C1938 H1934 0.949 . S
C1938 C1946 1.574 . S
C1938 C1954 1.368 . S
H1939 C1947 0.950 . S
H1940 C1945 0.950 . S
H1941 C1946 0.949 . S
H1942 C1948 0.950 . S
H1943 C1949 0.950 . S
H1944 C1950 0.949 . S
C1945 H1940 0.950 . S
C1945 C1947 1.327 . S
C1945 C1951 1.429 . S
C1946 C1938 1.574 . S
C1946 H1941 0.949 . S
C1946 C1952 1.368 . S
C1947 C1931 1.349 . S
C1947 H1939 0.950 . S
C1947 C1945 1.327 . S
C1948 C1936 1.349 . S
C1948 H1942 0.950 . S
C1948 C1949 1.327 . S
C1949 H1943 0.950 . S
C1949 C1948 1.327 . S
C1949 C1953 1.429 . S
C1950 C1933 1.574 . S
C1950 H1944 0.949 . S
C1950 C1954 1.368 . S
C1951 C1932 1.429 . S
C1951 C1945 1.429 . S
C1951 C1952 1.523 . S
C1952 C1933 1.368 . S
C1952 C1946 1.368 . S
C1952 C1951 1.523 . S
C1953 C1937 1.429 . S
C1953 C1949 1.429 . S
C1953 C1954 1.523 . S
C1954 C1938 1.368 . S
C1954 C1950 1.368 . S
C1954 C1953 1.523 . S
H1955 C1930 0.950 . S
H1956 C1932 0.950 . S
H1957 C1933 0.949 . S
H1958 C1935 0.950 . S
H1959 C1937 0.950 . S
C1960 C1961 1.349 1_565 S
C1960 C1962 1.327 . S
C1960 H1985 0.950 . S
C1961 C1960 1.349 1_545 S
C1961 C1977 1.349 . S
C1962 C1960 1.327 . S
C1962 C1981 1.446 . S
C1962 H1986 0.950 . S
C1963 C1980 1.574 . S
C1963 C1982 1.368 1_545 S
C1963 H1987 0.949 . S
H1964 C1968 0.949 . S
C1965 C1966 1.349 1_545 S
C1965 C1967 1.327 . S
C1965 H1988 0.926 1_655 S
C1966 C1965 1.349 1_565 S
C1966 C1978 1.349 . S
C1967 C1965 1.327 . S
C1967 C1983 1.429 1_545 S
C1967 H1989 0.950 . S
C1968 H1964 0.949 . S
C1968 C1976 1.574 . S
C1968 C1984 1.368 . S
H1969 C1977 0.950 . S
H1970 C1975 0.950 . S
H1971 C1976 0.949 . S
H1972 C1978 0.950 . S
H1973 C1979 0.950 . S
H1974 C1980 0.949 . S
C1975 H1970 0.950 . S
C1975 C1977 1.327 . S
C1975 C1981 1.408 1_545 S
C1976 C1968 1.574 . S
C1976 H1971 0.949 . S
C1976 C1982 1.368 . S
C1977 C1961 1.349 . S
C1977 H1969 0.950 . S
C1977 C1975 1.327 . S
C1978 C1966 1.349 . S
C1978 H1972 0.950 . S
C1978 C1979 1.327 . S
C1979 H1973 0.950 . S
C1979 C1978 1.327 . S
C1979 C1983 1.429 . S
C1980 C1963 1.574 . S
C1980 H1974 0.949 . S
C1980 C1984 1.368 1_545 S
C1981 C1962 1.446 . S
C1981 C1975 1.408 1_565 S
C1981 C1982 1.527 . S
C1982 C1963 1.368 1_565 S
C1982 C1976 1.368 . S
C1982 C1981 1.527 . S
C1983 C1967 1.429 1_565 S
C1983 C1979 1.429 . S
C1983 C1984 1.523 . S
C1984 C1968 1.368 . S
C1984 C1980 1.368 1_565 S
C1984 C1983 1.523 . S
H1985 C1960 0.950 . S
H1986 C1962 0.950 . S
H1987 C1963 0.949 . S
H1988 C1965 0.926 1_455 S
H1989 C1967 0.950 . S
C1990 C1991 1.349 . S
C1990 C1992 1.327 . S
C1990 H2015 0.950 . S
C1991 C1990 1.349 . S
C1991 C2007 1.349 . S
C1992 C1990 1.327 . S
C1992 C2011 1.429 . S
C1992 H2016 0.950 . S
C1993 C2010 1.574 . S
C1993 C2012 1.368 . S
C1993 H2017 0.949 . S
H1994 C1998 0.949 . S
C1995 C1996 1.349 . S
C1995 C1997 1.327 . S
C1995 H2018 0.950 . S
C1996 C1995 1.349 . S
C1996 C2008 1.349 . S
C1997 C1995 1.327 . S
C1997 C2013 1.429 . S
C1997 H2019 0.950 . S
C1998 H1994 0.949 . S
C1998 C2006 1.574 . S
C1998 C2014 1.368 . S
H1999 C2007 0.950 . S
H2000 C2005 0.950 . S
H2001 C2006 0.949 . S
H2002 C2008 0.950 . S
H2003 C2009 0.950 . S
H2004 C2010 0.949 . S
C2005 H2000 0.950 . S
C2005 C2007 1.327 . S
C2005 C2011 1.429 . S
C2006 C1998 1.574 . S
C2006 H2001 0.949 . S
C2006 C2012 1.368 . S
C2007 C1991 1.349 . S
C2007 H1999 0.950 . S
C2007 C2005 1.327 . S
C2008 C1996 1.349 . S
C2008 H2002 0.950 . S
C2008 C2009 1.327 . S
C2009 H2003 0.950 . S
C2009 C2008 1.327 . S
C2009 C2013 1.429 . S
C2010 C1993 1.574 . S
C2010 H2004 0.949 . S
C2010 C2014 1.368 . S
C2011 C1992 1.429 . S
C2011 C2005 1.429 . S
C2011 C2012 1.523 . S
C2012 C1993 1.368 . S
C2012 C2006 1.368 . S
C2012 C2011 1.523 . S
C2013 C1997 1.429 . S
C2013 C2009 1.429 . S
C2013 C2014 1.523 . S
C2014 C1998 1.368 . S
C2014 C2010 1.368 . S
C2014 C2013 1.523 . S
H2015 C1990 0.950 . S
H2016 C1992 0.950 . S
H2017 C1993 0.949 . S
H2018 C1995 0.950 . S
H2019 C1997 0.950 . S
C2020 C2021 1.360 . S
C2020 C2022 1.330 . S
C2020 H2045 0.936 1_545 S
C2021 C2020 1.360 . S
C2021 C2037 1.349 . S
C2022 C2020 1.330 . S
C2022 C2041 1.429 . S
C2022 H2046 0.950 1_545 S
C2023 C2040 1.574 . S
C2023 C2042 1.368 . S
C2023 H2047 0.949 . S
H2024 C2028 0.949 . S
C2025 C2026 1.349 . S
C2025 C2027 1.327 . S
C2025 H2048 0.950 . S
C2026 C2025 1.349 . S
C2026 C2038 1.349 . S
C2027 C2025 1.327 . S
C2027 C2043 1.429 . S
C2027 H2049 0.950 . S
C2028 H2024 0.949 . S
C2028 C2036 1.574 . S
C2028 C2044 1.368 . S
H2029 C2037 0.950 . S
H2030 C2035 0.950 . S
H2031 C2036 0.949 1_565 S
H2032 C2038 0.950 . S
H2033 C2039 0.950 . S
H2034 C2040 0.949 . S
C2035 H2030 0.950 . S
C2035 C2037 1.327 . S
C2035 C2041 1.429 . S
C2036 C2028 1.574 . S
C2036 H2031 0.949 1_545 S
C2036 C2042 1.368 . S
C2037 C2021 1.349 . S
C2037 H2029 0.950 . S
C2037 C2035 1.327 . S
C2038 C2026 1.349 . S
C2038 H2032 0.950 . S
C2038 C2039 1.327 . S
C2039 H2033 0.950 . S
C2039 C2038 1.327 . S
C2039 C2043 1.429 . S
C2040 C2023 1.574 . S
C2040 H2034 0.949 . S
C2040 C2044 1.368 . S
C2041 C2022 1.429 . S
C2041 C2035 1.429 . S
C2041 C2042 1.523 . S
C2042 C2023 1.368 . S
C2042 C2036 1.368 . S
C2042 C2041 1.523 . S
C2043 C2027 1.429 . S
C2043 C2039 1.429 . S
C2043 C2044 1.523 . S
C2044 C2028 1.368 . S
C2044 C2040 1.368 . S
C2044 C2043 1.523 . S
H2045 C2020 0.936 1_565 S
H2046 C2022 0.950 1_565 S
H2047 C2023 0.949 . S
H2048 C2025 0.950 . S
H2049 C2027 0.950 . S
C2050 C2051 1.349 . S
C2050 C2052 1.327 . S
C2050 H2075 0.950 . S
C2051 C2050 1.349 . S
C2051 C2067 1.349 . S
C2052 C2050 1.327 . S
C2052 C2071 1.429 . S
C2052 H2076 0.950 . S
C2053 C2070 1.574 . S
C2053 C2072 1.368 . S
C2053 H2077 0.949 . S
H2054 C2058 0.949 . S
C2055 C2056 1.349 . S
C2055 C2057 1.327 . S
C2055 H2078 0.950 . S
C2056 C2055 1.349 . S
C2056 C2068 1.349 . S
C2057 C2055 1.327 . S
C2057 C2073 1.429 . S
C2057 H2079 0.950 . S
C2058 H2054 0.949 . S
C2058 C2066 1.574 . S
C2058 C2074 1.368 . S
H2059 C2067 0.950 . S
H2060 C2065 0.950 . S
H2061 C2066 0.949 . S
H2062 C2068 0.950 . S
H2063 C2069 0.950 . S
H2064 C2070 0.949 . S
C2065 H2060 0.950 . S
C2065 C2067 1.327 . S
C2065 C2071 1.429 . S
C2066 C2058 1.574 . S
C2066 H2061 0.949 . S
C2066 C2072 1.368 . S
C2067 C2051 1.349 . S
C2067 H2059 0.950 . S
C2067 C2065 1.327 . S
C2068 C2056 1.349 . S
C2068 H2062 0.950 . S
C2068 C2069 1.327 . S
C2069 H2063 0.950 . S
C2069 C2068 1.327 . S
C2069 C2073 1.429 . S
C2070 C2053 1.574 . S
C2070 H2064 0.949 . S
C2070 C2074 1.368 . S
C2071 C2052 1.429 . S
C2071 C2065 1.429 . S
C2071 C2072 1.523 . S
C2072 C2053 1.368 . S
C2072 C2066 1.368 . S
C2072 C2071 1.523 . S
C2073 C2057 1.429 . S
C2073 C2069 1.429 . S
C2073 C2074 1.523 . S
C2074 C2058 1.368 . S
C2074 C2070 1.368 . S
C2074 C2073 1.523 . S
H2075 C2050 0.950 . S
H2076 C2052 0.950 . S
H2077 C2053 0.949 . S
H2078 C2055 0.950 . S
H2079 C2057 0.950 . S
C2080 C2081 1.349 . S
C2080 C2082 1.327 . S
C2080 H2105 0.950 . S
C2081 C2080 1.349 . S
C2081 C2097 1.349 . S
C2082 C2080 1.327 . S
C2082 C2101 1.429 . S
C2082 H2106 0.950 . S
C2083 C2100 1.574 . S
C2083 C2102 1.368 . S
C2083 H2107 0.949 . S
H2084 C2088 0.949 . S
C2085 C2086 1.349 . S
C2085 C2087 1.327 . S
C2085 H2108 0.950 . S
C2086 C2085 1.349 . S
C2086 C2098 1.349 . S
C2087 C2085 1.327 . S
C2087 C2103 1.429 . S
C2087 H2109 0.950 . S
C2088 H2084 0.949 . S
C2088 C2096 1.574 . S
C2088 C2104 1.368 . S
H2089 C2097 0.950 . S
H2090 C2095 0.950 . S
H2091 C2096 0.949 . S
H2092 C2098 0.950 . S
H2093 C2099 0.950 . S
H2094 C2100 0.949 . S
C2095 H2090 0.950 . S
C2095 C2097 1.327 . S
C2095 C2101 1.429 . S
C2096 C2088 1.574 . S
C2096 H2091 0.949 . S
C2096 C2102 1.368 . S
C2097 C2081 1.349 . S
C2097 H2089 0.950 . S
C2097 C2095 1.327 . S
C2098 C2086 1.349 . S
C2098 H2092 0.950 . S
C2098 C2099 1.327 . S
C2099 H2093 0.950 . S
C2099 C2098 1.327 . S
C2099 C2103 1.429 . S
C2100 C2083 1.574 . S
C2100 H2094 0.949 . S
C2100 C2104 1.368 . S
C2101 C2082 1.429 . S
C2101 C2095 1.429 . S
C2101 C2102 1.523 . S
C2102 C2083 1.368 . S
C2102 C2096 1.368 . S
C2102 C2101 1.523 . S
C2103 C2087 1.429 . S
C2103 C2099 1.429 . S
C2103 C2104 1.523 . S
C2104 C2088 1.368 . S
C2104 C2100 1.368 . S
C2104 C2103 1.523 . S
H2105 C2080 0.950 . S
H2106 C2082 0.950 . S
H2107 C2083 0.949 . S
H2108 C2085 0.950 . S
H2109 C2087 0.950 . S
C2110 C2111 1.348 1_556 S
C2110 C2112 1.327 1_556 S
C2110 H2135 0.951 . S
C2111 C2110 1.348 1_554 S
C2111 C2127 1.349 . S
C2112 C2110 1.327 1_554 S
C2112 C2131 1.429 . S
C2112 H2136 0.950 1_554 S
C2113 C2130 1.574 . S
C2113 C2132 1.368 . S
C2113 H2137 0.949 . S
H2114 C2118 0.955 . S
C2115 C2116 1.349 . S
C2115 C2117 1.327 . S
C2115 H2138 0.950 . S
C2116 C2115 1.349 . S
C2116 C2128 1.349 . S
C2117 C2115 1.327 . S
C2117 C2133 1.429 . S
C2117 H2139 0.950 . S
C2118 H2114 0.955 . S
C2118 C2126 1.574 . S
C2118 C2134 1.368 . S
H2119 C2127 0.950 . S
H2120 C2125 0.950 . S
H2121 C2126 0.949 1_556 S
H2122 C2128 0.950 . S
H2123 C2129 0.950 . S
H2124 C2130 0.949 . S
C2125 H2120 0.950 . S
C2125 C2127 1.327 . S
C2125 C2131 1.429 . S
C2126 C2118 1.574 . S
C2126 H2121 0.949 1_554 S
C2126 C2132 1.368 . S
C2127 C2111 1.349 . S
C2127 H2119 0.950 . S
C2127 C2125 1.327 . S
C2128 C2116 1.349 . S
C2128 H2122 0.950 . S
C2128 C2129 1.327 . S
C2129 H2123 0.950 . S
C2129 C2128 1.327 . S
C2129 C2133 1.429 . S
C2130 C2113 1.574 . S
C2130 H2124 0.949 . S
C2130 C2134 1.368 . S
C2131 C2112 1.429 . S
C2131 C2125 1.429 . S
C2131 C2132 1.523 . S
C2132 C2113 1.368 . S
C2132 C2126 1.368 . S
C2132 C2131 1.523 . S
C2133 C2117 1.429 . S
C2133 C2129 1.429 . S
C2133 C2134 1.523 . S
C2134 C2118 1.368 . S
C2134 C2130 1.368 . S
C2134 C2133 1.523 . S
H2135 C2110 0.951 . S
H2136 C2112 0.950 1_556 S
H2137 C2113 0.949 . S
H2138 C2115 0.950 . S
H2139 C2117 0.950 . S
C2140 C2141 1.349 . S
C2140 C2142 1.327 . S
C2140 H2165 0.950 . S
C2141 C2140 1.349 . S
C2141 C2157 1.349 . S
C2142 C2140 1.327 . S
C2142 C2161 1.429 . S
C2142 H2166 0.950 . S
C2143 C2160 1.574 . S
C2143 C2162 1.368 . S
C2143 H2167 0.949 . S
H2144 C2148 0.949 . S
C2145 C2146 1.349 . S
C2145 C2147 1.327 . S
C2145 H2168 0.950 . S
C2146 C2145 1.349 . S
C2146 C2158 1.349 . S
C2147 C2145 1.327 . S
C2147 C2163 1.429 . S
C2147 H2169 0.950 . S
C2148 H2144 0.949 . S
C2148 C2156 1.574 . S
C2148 C2164 1.368 . S
H2149 C2157 0.950 . S
H2150 C2155 0.950 . S
H2151 C2156 0.949 . S
H2152 C2158 0.950 . S
H2153 C2159 0.950 . S
H2154 C2160 0.949 . S
C2155 H2150 0.950 . S
C2155 C2157 1.327 . S
C2155 C2161 1.429 . S
C2156 C2148 1.574 . S
C2156 H2151 0.949 . S
C2156 C2162 1.368 . S
C2157 C2141 1.349 . S
C2157 H2149 0.950 . S
C2157 C2155 1.327 . S
C2158 C2146 1.349 . S
C2158 H2152 0.950 . S
C2158 C2159 1.327 . S
C2159 H2153 0.950 . S
C2159 C2158 1.327 . S
C2159 C2163 1.429 . S
C2160 C2143 1.574 . S
C2160 H2154 0.949 . S
C2160 C2164 1.368 . S
C2161 C2142 1.429 . S
C2161 C2155 1.429 . S
C2161 C2162 1.523 . S
C2162 C2143 1.368 . S
C2162 C2156 1.368 . S
C2162 C2161 1.523 . S
C2163 C2147 1.429 . S
C2163 C2159 1.429 . S
C2163 C2164 1.523 . S
C2164 C2148 1.368 . S
C2164 C2160 1.368 . S
C2164 C2163 1.523 . S
H2165 C2140 0.950 . S
H2166 C2142 0.950 . S
H2167 C2143 0.949 . S
H2168 C2145 0.950 . S
H2169 C2147 0.950 . S
C2170 C2171 1.349 . S
C2170 C2172 1.327 . S
C2170 H2195 0.950 . S
C2171 C2170 1.349 . S
C2171 C2187 1.349 . S
C2172 C2170 1.327 . S
C2172 C2191 1.429 . S
C2172 H2196 0.950 . S
C2173 C2190 1.574 . S
C2173 C2192 1.368 . S
C2173 H2197 0.949 . S
H2174 C2178 0.949 . S
C2175 C2176 1.349 . S
C2175 C2177 1.327 . S
C2175 H2198 0.950 . S
C2176 C2175 1.349 . S
C2176 C2188 1.349 . S
C2177 C2175 1.327 . S
C2177 C2193 1.429 . S
C2177 H2199 0.950 . S
C2178 H2174 0.949 . S
C2178 C2186 1.574 . S
C2178 C2194 1.368 . S
H2179 C2187 0.950 . S
H2180 C2185 0.950 . S
H2181 C2186 0.949 . S
H2182 C2188 0.950 . S
H2183 C2189 0.950 . S
H2184 C2190 0.949 . S
C2185 H2180 0.950 . S
C2185 C2187 1.327 . S
C2185 C2191 1.429 . S
C2186 C2178 1.574 . S
C2186 H2181 0.949 . S
C2186 C2192 1.368 . S
C2187 C2171 1.349 . S
C2187 H2179 0.950 . S
C2187 C2185 1.327 . S
C2188 C2176 1.349 . S
C2188 H2182 0.950 . S
C2188 C2189 1.327 . S
C2189 H2183 0.950 . S
C2189 C2188 1.327 . S
C2189 C2193 1.429 . S
C2190 C2173 1.574 . S
C2190 H2184 0.949 . S
C2190 C2194 1.368 . S
C2191 C2172 1.429 . S
C2191 C2185 1.429 . S
C2191 C2192 1.523 . S
C2192 C2173 1.368 . S
C2192 C2186 1.368 . S
C2192 C2191 1.523 . S
C2193 C2177 1.429 . S
C2193 C2189 1.429 . S
C2193 C2194 1.523 . S
C2194 C2178 1.368 . S
C2194 C2190 1.368 . S
C2194 C2193 1.523 . S
H2195 C2170 0.950 . S
H2196 C2172 0.950 . S
H2197 C2173 0.949 . S
H2198 C2175 0.950 . S
H2199 C2177 0.950 . S
C2200 C2201 1.349 . S
C2200 C2202 1.327 . S
C2200 H2225 0.950 . S
C2201 C2200 1.349 . S
C2201 C2217 1.349 . S
C2202 C2200 1.327 . S
C2202 C2221 1.429 . S
C2202 H2226 0.950 . S
C2203 C2220 1.574 . S
C2203 C2222 1.368 . S
C2203 H2227 0.949 . S
H2204 C2208 0.949 . S
C2205 C2206 1.349 . S
C2205 C2207 1.327 . S
C2205 H2228 0.950 . S
C2206 C2205 1.349 . S
C2206 C2218 1.349 . S
C2207 C2205 1.327 . S
C2207 C2223 1.429 . S
C2207 H2229 0.950 . S
C2208 H2204 0.949 . S
C2208 C2216 1.574 . S
C2208 C2224 1.368 . S
H2209 C2217 0.950 . S
H2210 C2215 0.950 . S
H2211 C2216 0.949 . S
H2212 C2218 0.950 . S
H2213 C2219 0.950 . S
H2214 C2220 0.949 . S
C2215 H2210 0.950 . S
C2215 C2217 1.327 . S
C2215 C2221 1.429 . S
C2216 C2208 1.574 . S
C2216 H2211 0.949 . S
C2216 C2222 1.368 . S
C2217 C2201 1.349 . S
C2217 H2209 0.950 . S
C2217 C2215 1.327 . S
C2218 C2206 1.349 . S
C2218 H2212 0.950 . S
C2218 C2219 1.327 . S
C2219 H2213 0.950 . S
C2219 C2218 1.327 . S
C2219 C2223 1.429 . S
C2220 C2203 1.574 . S
C2220 H2214 0.949 . S
C2220 C2224 1.368 . S
C2221 C2202 1.429 . S
C2221 C2215 1.429 . S
C2221 C2222 1.523 . S
C2222 C2203 1.368 . S
C2222 C2216 1.368 . S
C2222 C2221 1.523 . S
C2223 C2207 1.429 . S
C2223 C2219 1.429 . S
C2223 C2224 1.523 . S
C2224 C2208 1.368 . S
C2224 C2220 1.368 . S
C2224 C2223 1.523 . S
H2225 C2200 0.950 . S
H2226 C2202 0.950 . S
H2227 C2203 0.949 . S
H2228 C2205 0.950 . S
H2229 C2207 0.950 . S
C2230 C2231 1.349 . S
C2230 C2232 1.327 . S
C2230 H2255 0.950 . S
C2231 C2230 1.349 . S
C2231 C2247 1.349 . S
C2232 C2230 1.327 . S
C2232 C2251 1.429 . S
C2232 H2256 0.950 . S
C2233 C2250 1.574 . S
C2233 C2252 1.368 . S
C2233 H2257 0.949 . S
H2234 C2238 0.949 . S
C2235 C2236 1.349 . S
C2235 C2237 1.327 . S
C2235 H2258 0.950 . S
C2236 C2235 1.349 . S
C2236 C2248 1.349 . S
C2237 C2235 1.327 . S
C2237 C2253 1.429 . S
C2237 H2259 0.950 . S
C2238 H2234 0.949 . S
C2238 C2246 1.574 . S
C2238 C2254 1.368 . S
H2239 C2247 0.950 . S
H2240 C2245 0.950 . S
H2241 C2246 0.949 . S
H2242 C2248 0.950 . S
H2243 C2249 0.950 . S
H2244 C2250 0.949 . S
C2245 H2240 0.950 . S
C2245 C2247 1.327 . S
C2245 C2251 1.429 . S
C2246 C2238 1.574 . S
C2246 H2241 0.949 . S
C2246 C2252 1.368 . S
C2247 C2231 1.349 . S
C2247 H2239 0.950 . S
C2247 C2245 1.327 . S
C2248 C2236 1.349 . S
C2248 H2242 0.950 . S
C2248 C2249 1.327 . S
C2249 H2243 0.950 . S
C2249 C2248 1.327 . S
C2249 C2253 1.429 . S
C2250 C2233 1.574 . S
C2250 H2244 0.949 . S
C2250 C2254 1.368 . S
C2251 C2232 1.429 . S
C2251 C2245 1.429 . S
C2251 C2252 1.523 . S
C2252 C2233 1.368 . S
C2252 C2246 1.368 . S
C2252 C2251 1.523 . S
C2253 C2237 1.429 . S
C2253 C2249 1.429 . S
C2253 C2254 1.523 . S
C2254 C2238 1.368 . S
C2254 C2250 1.368 . S
C2254 C2253 1.523 . S
H2255 C2230 0.950 . S
H2256 C2232 0.950 . S
H2257 C2233 0.949 . S
H2258 C2235 0.950 . S
H2259 C2237 0.950 . S
C2260 C2261 1.349 . S
C2260 C2262 1.327 . S
C2260 H2285 0.950 . S
C2261 C2260 1.349 . S
C2261 C2277 1.349 . S
C2262 C2260 1.327 . S
C2262 C2281 1.429 . S
C2262 H2286 0.950 . S
C2263 C2280 1.574 . S
C2263 C2282 1.368 . S
C2263 H2287 0.949 . S
H2264 C2268 0.949 . S
C2265 C2266 1.349 . S
C2265 C2267 1.327 . S
C2265 H2288 0.950 . S
C2266 C2265 1.349 . S
C2266 C2278 1.349 . S
C2267 C2265 1.327 . S
C2267 C2283 1.429 . S
C2267 H2289 0.950 . S
C2268 H2264 0.949 . S
C2268 C2276 1.574 . S
C2268 C2284 1.368 . S
H2269 C2277 0.950 . S
H2270 C2275 0.950 . S
H2271 C2276 0.949 . S
H2272 C2278 0.950 . S
H2273 C2279 0.950 . S
H2274 C2280 0.949 . S
C2275 H2270 0.950 . S
C2275 C2277 1.327 . S
C2275 C2281 1.429 . S
C2276 C2268 1.574 . S
C2276 H2271 0.949 . S
C2276 C2282 1.368 . S
C2277 C2261 1.349 . S
C2277 H2269 0.950 . S
C2277 C2275 1.327 . S
C2278 C2266 1.349 . S
C2278 H2272 0.950 . S
C2278 C2279 1.327 . S
C2279 H2273 0.950 . S
C2279 C2278 1.327 . S
C2279 C2283 1.429 . S
C2280 C2263 1.574 . S
C2280 H2274 0.949 . S
C2280 C2284 1.368 . S
C2281 C2262 1.429 . S
C2281 C2275 1.429 . S
C2281 C2282 1.523 . S
C2282 C2263 1.368 . S
C2282 C2276 1.368 . S
C2282 C2281 1.523 . S
C2283 C2267 1.429 . S
C2283 C2279 1.429 . S
C2283 C2284 1.523 . S
C2284 C2268 1.368 . S
C2284 C2280 1.368 . S
C2284 C2283 1.523 . S
H2285 C2260 0.950 . S
H2286 C2262 0.950 . S
H2287 C2263 0.949 . S
H2288 C2265 0.950 . S
H2289 C2267 0.950 . S
C2290 C2291 1.349 . S
C2290 C2292 1.327 . S
C2290 H2315 0.950 . S
C2291 C2290 1.349 . S
C2291 C2307 1.349 . S
C2292 C2290 1.327 . S
C2292 C2311 1.429 . S
C2292 H2316 0.950 . S
C2293 C2310 1.574 . S
C2293 C2312 1.368 . S
C2293 H2317 0.949 . S
H2294 C2298 0.949 . S
C2295 C2296 1.349 . S
C2295 C2297 1.327 . S
C2295 H2318 0.950 . S
C2296 C2295 1.349 . S
C2296 C2308 1.349 . S
C2297 C2295 1.327 . S
C2297 C2313 1.429 . S
C2297 H2319 0.950 . S
C2298 H2294 0.949 . S
C2298 C2306 1.574 . S
C2298 C2314 1.368 . S
H2299 C2307 0.950 . S
H2300 C2305 0.950 . S
H2301 C2306 0.949 . S
H2302 C2308 0.950 . S
H2303 C2309 0.950 . S
H2304 C2310 0.949 . S
C2305 H2300 0.950 . S
C2305 C2307 1.327 . S
C2305 C2311 1.429 . S
C2306 C2298 1.574 . S
C2306 H2301 0.949 . S
C2306 C2312 1.368 . S
C2307 C2291 1.349 . S
C2307 H2299 0.950 . S
C2307 C2305 1.327 . S
C2308 C2296 1.349 . S
C2308 H2302 0.950 . S
C2308 C2309 1.327 . S
C2309 H2303 0.950 . S
C2309 C2308 1.327 . S
C2309 C2313 1.429 . S
C2310 C2293 1.574 . S
C2310 H2304 0.949 . S
C2310 C2314 1.368 . S
C2311 C2292 1.429 . S
C2311 C2305 1.429 . S
C2311 C2312 1.523 . S
C2312 C2293 1.368 . S
C2312 C2306 1.368 . S
C2312 C2311 1.523 . S
C2313 C2297 1.429 . S
C2313 C2309 1.429 . S
C2313 C2314 1.523 . S
C2314 C2298 1.368 . S
C2314 C2310 1.368 . S
C2314 C2313 1.523 . S
H2315 C2290 0.950 . S
H2316 C2292 0.950 . S
H2317 C2293 0.949 . S
H2318 C2295 0.950 . S
H2319 C2297 0.950 . S
C2320 C2321 1.349 . S
C2320 C2322 1.327 . S
C2320 H2345 0.950 . S
C2321 C2320 1.349 . S
C2321 C2337 1.349 . S
C2322 C2320 1.327 . S
C2322 C2341 1.429 . S
C2322 H2346 0.950 . S
C2323 C2340 1.574 . S
C2323 C2342 1.368 . S
C2323 H2347 0.949 . S
H2324 C2328 0.949 . S
C2325 C2326 1.349 . S
C2325 C2327 1.327 . S
C2325 H2348 0.950 . S
C2326 C2325 1.349 . S
C2326 C2338 1.349 . S
C2327 C2325 1.327 . S
C2327 C2343 1.429 . S
C2327 H2349 0.950 . S
C2328 H2324 0.949 . S
C2328 C2336 1.574 . S
C2328 C2344 1.368 . S
H2329 C2337 0.950 . S
H2330 C2335 0.950 . S
H2331 C2336 0.949 . S
H2332 C2338 0.950 . S
H2333 C2339 0.950 . S
H2334 C2340 0.949 . S
C2335 H2330 0.950 . S
C2335 C2337 1.327 . S
C2335 C2341 1.429 . S
C2336 C2328 1.574 . S
C2336 H2331 0.949 . S
C2336 C2342 1.368 . S
C2337 C2321 1.349 . S
C2337 H2329 0.950 . S
C2337 C2335 1.327 . S
C2338 C2326 1.349 . S
C2338 H2332 0.950 . S
C2338 C2339 1.327 . S
C2339 H2333 0.950 . S
C2339 C2338 1.327 . S
C2339 C2343 1.429 . S
C2340 C2323 1.574 . S
C2340 H2334 0.949 . S
C2340 C2344 1.368 . S
C2341 C2322 1.429 . S
C2341 C2335 1.429 . S
C2341 C2342 1.523 . S
C2342 C2323 1.368 . S
C2342 C2336 1.368 . S
C2342 C2341 1.523 . S
C2343 C2327 1.429 . S
C2343 C2339 1.429 . S
C2343 C2344 1.523 . S
C2344 C2328 1.368 . S
C2344 C2340 1.368 . S
C2344 C2343 1.523 . S
H2345 C2320 0.950 . S
H2346 C2322 0.950 . S
H2347 C2323 0.949 . S
H2348 C2325 0.950 . S
H2349 C2327 0.950 . S
C2350 C2351 1.349 . S
C2350 C2352 1.327 . S
C2350 H2375 0.950 . S
C2351 C2350 1.349 . S
C2351 C2367 1.349 . S
C2352 C2350 1.327 . S
C2352 C2371 1.429 . S
C2352 H2376 0.950 . S
C2353 C2370 1.574 . S
C2353 C2372 1.368 . S
C2353 H2377 0.949 . S
H2354 C2358 0.949 . S
C2355 C2356 1.349 . S
C2355 C2357 1.327 . S
C2355 H2378 0.950 . S
C2356 C2355 1.349 . S
C2356 C2368 1.349 . S
C2357 C2355 1.327 . S
C2357 C2373 1.429 . S
C2357 H2379 0.950 . S
C2358 H2354 0.949 . S
C2358 C2366 1.574 . S
C2358 C2374 1.368 . S
H2359 C2367 0.950 . S
H2360 C2365 0.950 . S
H2361 C2366 0.949 . S
H2362 C2368 0.950 . S
H2363 C2369 0.950 . S
H2364 C2370 0.949 . S
C2365 H2360 0.950 . S
C2365 C2367 1.327 . S
C2365 C2371 1.429 . S
C2366 C2358 1.574 . S
C2366 H2361 0.949 . S
C2366 C2372 1.368 . S
C2367 C2351 1.349 . S
C2367 H2359 0.950 . S
C2367 C2365 1.327 . S
C2368 C2356 1.349 . S
C2368 H2362 0.950 . S
C2368 C2369 1.327 . S
C2369 H2363 0.950 . S
C2369 C2368 1.327 . S
C2369 C2373 1.429 . S
C2370 C2353 1.574 . S
C2370 H2364 0.949 . S
C2370 C2374 1.368 . S
C2371 C2352 1.429 . S
C2371 C2365 1.429 . S
C2371 C2372 1.523 . S
C2372 C2353 1.368 . S
C2372 C2366 1.368 . S
C2372 C2371 1.523 . S
C2373 C2357 1.429 . S
C2373 C2369 1.429 . S
C2373 C2374 1.523 . S
C2374 C2358 1.368 . S
C2374 C2370 1.368 . S
C2374 C2373 1.523 . S
H2375 C2350 0.950 . S
H2376 C2352 0.950 . S
H2377 C2353 0.949 . S
H2378 C2355 0.950 . S
H2379 C2357 0.950 . S
C2380 C2381 1.349 . S
C2380 C2382 1.327 . S
C2380 H2405 0.950 . S
C2381 C2380 1.349 . S
C2381 C2397 1.349 . S
C2382 C2380 1.327 . S
C2382 C2401 1.429 . S
C2382 H2406 0.950 . S
C2383 C2400 1.574 . S
C2383 C2402 1.368 . S
C2383 H2407 0.949 . S
H2384 C2388 0.949 . S
C2385 C2386 1.349 . S
C2385 C2387 1.327 . S
C2385 H2408 0.950 . S
C2386 C2385 1.349 . S
C2386 C2398 1.349 . S
C2387 C2385 1.327 . S
C2387 C2403 1.429 . S
C2387 H2409 0.950 . S
C2388 H2384 0.949 . S
C2388 C2396 1.574 . S
C2388 C2404 1.368 . S
H2389 C2397 0.950 . S
H2390 C2395 0.950 . S
H2391 C2396 0.949 . S
H2392 C2398 0.950 . S
H2393 C2399 0.950 . S
H2394 C2400 0.949 . S
C2395 H2390 0.950 . S
C2395 C2397 1.327 . S
C2395 C2401 1.429 . S
C2396 C2388 1.574 . S
C2396 H2391 0.949 . S
C2396 C2402 1.368 . S
C2397 C2381 1.349 . S
C2397 H2389 0.950 . S
C2397 C2395 1.327 . S
C2398 C2386 1.349 . S
C2398 H2392 0.950 . S
C2398 C2399 1.327 . S
C2399 H2393 0.950 . S
C2399 C2398 1.327 . S
C2399 C2403 1.429 . S
C2400 C2383 1.574 . S
C2400 H2394 0.949 . S
C2400 C2404 1.368 . S
C2401 C2382 1.429 . S
C2401 C2395 1.429 . S
C2401 C2402 1.523 . S
C2402 C2383 1.368 . S
C2402 C2396 1.368 . S
C2402 C2401 1.523 . S
C2403 C2387 1.429 . S
C2403 C2399 1.429 . S
C2403 C2404 1.523 . S
C2404 C2388 1.368 . S
C2404 C2400 1.368 . S
C2404 C2403 1.523 . S
H2405 C2380 0.950 . S
H2406 C2382 0.950 . S
H2407 C2383 0.949 . S
H2408 C2385 0.950 . S
H2409 C2387 0.950 . S
C2410 C2411 1.349 . S
C2410 C2412 1.327 . S
C2410 H2435 0.950 . S
C2411 C2410 1.349 . S
C2411 C2427 1.349 . S
C2412 C2410 1.327 . S
C2412 C2431 1.429 . S
C2412 H2436 0.950 . S
C2413 C2430 1.574 . S
C2413 C2432 1.368 . S
C2413 H2437 0.949 . S
H2414 C2418 0.949 . S
C2415 C2416 1.349 . S
C2415 C2417 1.327 . S
C2415 H2438 0.950 . S
C2416 C2415 1.349 . S
C2416 C2428 1.349 . S
C2417 C2415 1.327 . S
C2417 C2433 1.429 . S
C2417 H2439 0.950 . S
C2418 H2414 0.949 . S
C2418 C2426 1.574 . S
C2418 C2434 1.368 . S
H2419 C2427 0.950 . S
H2420 C2425 0.950 . S
H2421 C2426 0.949 . S
H2422 C2428 0.950 . S
H2423 C2429 0.950 . S
H2424 C2430 0.949 . S
C2425 H2420 0.950 . S
C2425 C2427 1.327 . S
C2425 C2431 1.429 . S
C2426 C2418 1.574 . S
C2426 H2421 0.949 . S
C2426 C2432 1.368 . S
C2427 C2411 1.349 . S
C2427 H2419 0.950 . S
C2427 C2425 1.327 . S
C2428 C2416 1.349 . S
C2428 H2422 0.950 . S
C2428 C2429 1.327 . S
C2429 H2423 0.950 . S
C2429 C2428 1.327 . S
C2429 C2433 1.429 . S
C2430 C2413 1.574 . S
C2430 H2424 0.949 . S
C2430 C2434 1.368 . S
C2431 C2412 1.429 . S
C2431 C2425 1.429 . S
C2431 C2432 1.523 . S
C2432 C2413 1.368 . S
C2432 C2426 1.368 . S
C2432 C2431 1.523 . S
C2433 C2417 1.429 . S
C2433 C2429 1.429 . S
C2433 C2434 1.523 . S
C2434 C2418 1.368 . S
C2434 C2430 1.368 . S
C2434 C2433 1.523 . S
H2435 C2410 0.950 . S
H2436 C2412 0.950 . S
H2437 C2413 0.949 . S
H2438 C2415 0.950 . S
H2439 C2417 0.950 . S
C2440 C2441 1.349 . S
C2440 C2442 1.327 . S
C2440 H2465 0.950 . S
C2441 C2440 1.349 . S
C2441 C2457 1.349 . S
C2442 C2440 1.327 . S
C2442 C2461 1.429 . S
C2442 H2466 0.950 . S
C2443 C2460 1.574 . S
C2443 C2462 1.368 . S
C2443 H2467 0.949 . S
H2444 C2448 0.949 . S
C2445 C2446 1.349 1_556 S
C2445 C2447 1.327 . S
C2445 H2468 0.950 . S
C2446 C2445 1.349 1_554 S
C2446 C2458 1.349 . S
C2447 C2445 1.327 . S
C2447 C2463 1.429 . S
C2447 H2469 0.950 . S
C2448 H2444 0.949 . S
C2448 C2456 1.574 . S
C2448 C2464 1.368 . S
H2449 C2457 0.950 . S
H2450 C2455 0.950 . S
H2451 C2456 0.949 . S
H2452 C2458 0.950 . S
H2453 C2459 0.950 . S
H2454 C2460 0.949 . S
C2455 H2450 0.950 . S
C2455 C2457 1.327 . S
C2455 C2461 1.429 . S
C2456 C2448 1.574 . S
C2456 H2451 0.949 . S
C2456 C2462 1.368 . S
C2457 C2441 1.349 . S
C2457 H2449 0.950 . S
C2457 C2455 1.327 . S
C2458 C2446 1.349 . S
C2458 H2452 0.950 . S
C2458 C2459 1.327 . S
C2459 H2453 0.950 . S
C2459 C2458 1.327 . S
C2459 C2463 1.429 1_554 S
C2460 C2443 1.574 . S
C2460 H2454 0.949 . S
C2460 C2464 1.368 . S
C2461 C2442 1.429 . S
C2461 C2455 1.429 . S
C2461 C2462 1.523 . S
C2462 C2443 1.368 . S
C2462 C2456 1.368 . S
C2462 C2461 1.523 . S
C2463 C2447 1.429 . S
C2463 C2459 1.429 1_556 S
C2463 C2464 1.523 . S
C2464 C2448 1.368 . S
C2464 C2460 1.368 . S
C2464 C2463 1.523 . S
H2465 C2440 0.950 . S
H2466 C2442 0.950 . S
H2467 C2443 0.949 . S
H2468 C2445 0.950 . S
H2469 C2447 0.950 . S
C2470 C2471 1.349 1_655 S
C2470 C2472 1.327 . S
C2470 H2495 0.950 1_655 S
C2471 C2470 1.349 1_455 S
C2471 C2487 1.349 1_455 S
C2472 C2470 1.327 . S
C2472 C2491 1.429 . S
C2472 H2496 0.950 . S
C2473 C2490 1.574 . S
C2473 C2492 1.368 . S
C2473 H2497 0.949 . S
H2474 C2478 0.949 . S
C2475 C2476 1.349 . S
C2475 C2477 1.327 . S
C2475 H2498 0.950 . S
C2476 C2475 1.349 . S
C2476 C2488 1.349 . S
C2477 C2475 1.327 . S
C2477 C2493 1.429 . S
C2477 H2499 0.950 . S
C2478 H2474 0.949 . S
C2478 C2486 1.574 . S
C2478 C2494 1.368 . S
H2479 C2487 0.950 . S
H2480 C2485 0.950 . S
H2481 C2486 0.949 . S
H2482 C2488 0.950 . S
H2483 C2489 0.950 . S
H2484 C2490 0.949 . S
C2485 H2480 0.950 . S
C2485 C2487 1.327 . S
C2485 C2491 1.429 . S
C2486 C2478 1.574 . S
C2486 H2481 0.949 . S
C2486 C2492 1.368 . S
C2487 C2471 1.349 1_655 S
C2487 H2479 0.950 . S
C2487 C2485 1.327 . S
C2488 C2476 1.349 . S
C2488 H2482 0.950 . S
C2488 C2489 1.327 . S
C2489 H2483 0.950 . S
C2489 C2488 1.327 . S
C2489 C2493 1.429 . S
C2490 C2473 1.574 . S
C2490 H2484 0.949 . S
C2490 C2494 1.368 . S
C2491 C2472 1.429 . S
C2491 C2485 1.429 . S
C2491 C2492 1.523 . S
C2492 C2473 1.368 . S
C2492 C2486 1.368 . S
C2492 C2491 1.523 . S
C2493 C2477 1.429 . S
C2493 C2489 1.429 . S
C2493 C2494 1.523 . S
C2494 C2478 1.368 . S
C2494 C2490 1.368 . S
C2494 C2493 1.523 . S
H2495 C2470 0.950 1_455 S
H2496 C2472 0.950 . S
H2497 C2473 0.949 . S
H2498 C2475 0.950 . S
H2499 C2477 0.950 . S
C2500 C2501 1.349 . S
C2500 C2502 1.327 . S
C2500 H2525 0.950 . S
C2501 C2500 1.349 . S
C2501 C2517 1.349 . S
C2502 C2500 1.327 . S
C2502 C2521 1.429 . S
C2502 H2526 0.950 . S
C2503 C2520 1.574 . S
C2503 C2522 1.368 . S
C2503 H2527 0.949 . S
H2504 C2508 0.949 . S
C2505 C2506 1.349 . S
C2505 C2507 1.327 . S
C2505 H2528 0.950 . S
C2506 C2505 1.349 . S
C2506 C2518 1.349 . S
C2507 C2505 1.327 . S
C2507 C2523 1.429 . S
C2507 H2529 0.950 . S
C2508 H2504 0.949 . S
C2508 C2516 1.574 . S
C2508 C2524 1.368 . S
H2509 C2517 0.950 . S
H2510 C2515 0.950 . S
H2511 C2516 0.949 . S
H2512 C2518 0.950 . S
H2513 C2519 0.950 . S
H2514 C2520 0.949 . S
C2515 H2510 0.950 . S
C2515 C2517 1.327 . S
C2515 C2521 1.429 . S
C2516 C2508 1.574 . S
C2516 H2511 0.949 . S
C2516 C2522 1.368 . S
C2517 C2501 1.349 . S
C2517 H2509 0.950 . S
C2517 C2515 1.327 . S
C2518 C2506 1.349 . S
C2518 H2512 0.950 . S
C2518 C2519 1.327 . S
C2519 H2513 0.950 . S
C2519 C2518 1.327 . S
C2519 C2523 1.429 . S
C2520 C2503 1.574 . S
C2520 H2514 0.949 . S
C2520 C2524 1.368 . S
C2521 C2502 1.429 . S
C2521 C2515 1.429 . S
C2521 C2522 1.523 . S
C2522 C2503 1.368 . S
C2522 C2516 1.368 . S
C2522 C2521 1.523 . S
C2523 C2507 1.429 . S
C2523 C2519 1.429 . S
C2523 C2524 1.523 . S
C2524 C2508 1.368 . S
C2524 C2520 1.368 . S
C2524 C2523 1.523 . S
H2525 C2500 0.950 . S
H2526 C2502 0.950 . S
H2527 C2503 0.949 . S
H2528 C2505 0.950 . S
H2529 C2507 0.950 . S
C2530 C2531 1.349 . S
C2530 C2532 1.327 . S
C2530 H2555 0.950 . S
C2531 C2530 1.349 . S
C2531 C2547 1.349 . S
C2532 C2530 1.327 . S
C2532 C2551 1.429 . S
C2532 H2556 0.950 . S
C2533 C2550 1.574 . S
C2533 C2552 1.368 . S
C2533 H2557 0.949 . S
H2534 C2538 0.949 . S
C2535 C2536 1.349 . S
C2535 C2537 1.327 . S
C2535 H2558 0.950 . S
C2536 C2535 1.349 . S
C2536 C2548 1.349 . S
C2537 C2535 1.327 . S
C2537 C2553 1.429 . S
C2537 H2559 0.950 . S
C2538 H2534 0.949 . S
C2538 C2546 1.574 . S
C2538 C2554 1.368 . S
H2539 C2547 0.950 . S
H2540 C2545 0.950 . S
H2541 C2546 0.949 . S
H2542 C2548 0.950 . S
H2543 C2549 0.950 . S
H2544 C2550 0.949 . S
C2545 H2540 0.950 . S
C2545 C2547 1.327 . S
C2545 C2551 1.429 . S
C2546 C2538 1.574 . S
C2546 H2541 0.949 . S
C2546 C2552 1.368 . S
C2547 C2531 1.349 . S
C2547 H2539 0.950 . S
C2547 C2545 1.327 . S
C2548 C2536 1.349 . S
C2548 H2542 0.950 . S
C2548 C2549 1.327 . S
C2549 H2543 0.950 . S
C2549 C2548 1.327 . S
C2549 C2553 1.429 . S
C2550 C2533 1.574 . S
C2550 H2544 0.949 . S
C2550 C2554 1.368 . S
C2551 C2532 1.429 . S
C2551 C2545 1.429 . S
C2551 C2552 1.523 . S
C2552 C2533 1.368 . S
C2552 C2546 1.368 . S
C2552 C2551 1.523 . S
C2553 C2537 1.429 . S
C2553 C2549 1.429 . S
C2553 C2554 1.523 . S
C2554 C2538 1.368 . S
C2554 C2550 1.368 . S
C2554 C2553 1.523 . S
H2555 C2530 0.950 . S
H2556 C2532 0.950 . S
H2557 C2533 0.949 . S
H2558 C2535 0.950 . S
H2559 C2537 0.950 . S
C2560 C2561 1.349 . S
C2560 C2562 1.327 . S
C2560 H2585 0.950 . S
C2561 C2560 1.349 . S
C2561 C2577 1.349 . S
C2562 C2560 1.327 . S
C2562 C2581 1.429 . S
C2562 H2586 0.950 . S
C2563 C2580 1.574 . S
C2563 C2582 1.368 . S
C2563 H2587 0.949 . S
H2564 C2568 0.949 . S
C2565 C2566 1.349 . S
C2565 C2567 1.327 . S
C2565 H2588 0.950 . S
C2566 C2565 1.349 . S
C2566 C2578 1.349 . S
C2567 C2565 1.327 . S
C2567 C2583 1.429 . S
C2567 H2589 0.950 . S
C2568 H2564 0.949 . S
C2568 C2576 1.574 . S
C2568 C2584 1.368 . S
H2569 C2577 0.950 . S
H2570 C2575 0.950 . S
H2571 C2576 0.949 . S
H2572 C2578 0.950 . S
H2573 C2579 0.950 . S
H2574 C2580 0.949 . S
C2575 H2570 0.950 . S
C2575 C2577 1.327 . S
C2575 C2581 1.429 . S
C2576 C2568 1.574 . S
C2576 H2571 0.949 . S
C2576 C2582 1.368 . S
C2577 C2561 1.349 . S
C2577 H2569 0.950 . S
C2577 C2575 1.327 . S
C2578 C2566 1.349 . S
C2578 H2572 0.950 . S
C2578 C2579 1.327 . S
C2579 H2573 0.950 . S
C2579 C2578 1.327 . S
C2579 C2583 1.429 . S
C2580 C2563 1.574 . S
C2580 H2574 0.949 . S
C2580 C2584 1.368 . S
C2581 C2562 1.429 . S
C2581 C2575 1.429 . S
C2581 C2582 1.523 . S
C2582 C2563 1.368 . S
C2582 C2576 1.368 . S
C2582 C2581 1.523 . S
C2583 C2567 1.429 . S
C2583 C2579 1.429 . S
C2583 C2584 1.523 . S
C2584 C2568 1.368 . S
C2584 C2580 1.368 . S
C2584 C2583 1.523 . S
H2585 C2560 0.950 . S
H2586 C2562 0.950 . S
H2587 C2563 0.949 . S
H2588 C2565 0.950 . S
H2589 C2567 0.950 . S
C2590 C2591 1.349 . S
C2590 C2592 1.327 . S
C2590 H2615 0.950 . S
C2591 C2590 1.349 . S
C2591 C2607 1.349 . S
C2592 C2590 1.327 . S
C2592 C2611 1.429 . S
C2592 H2616 0.950 . S
C2593 C2610 1.574 . S
C2593 C2612 1.368 . S
C2593 H2617 0.949 . S
H2594 C2598 0.949 . S
C2595 C2596 1.349 . S
C2595 C2597 1.327 . S
C2595 H2618 0.950 . S
C2596 C2595 1.349 . S
C2596 C2608 1.349 . S
C2597 C2595 1.327 . S
C2597 C2613 1.429 . S
C2597 H2619 0.950 . S
C2598 H2594 0.949 . S
C2598 C2606 1.574 . S
C2598 C2614 1.368 . S
H2599 C2607 0.950 . S
H2600 C2605 0.950 . S
H2601 C2606 0.949 . S
H2602 C2608 0.950 . S
H2603 C2609 0.950 . S
H2604 C2610 0.949 . S
C2605 H2600 0.950 . S
C2605 C2607 1.327 . S
C2605 C2611 1.429 . S
C2606 C2598 1.574 . S
C2606 H2601 0.949 . S
C2606 C2612 1.368 . S
C2607 C2591 1.349 . S
C2607 H2599 0.950 . S
C2607 C2605 1.327 . S
C2608 C2596 1.349 . S
C2608 H2602 0.950 . S
C2608 C2609 1.327 . S
C2609 H2603 0.950 . S
C2609 C2608 1.327 . S
C2609 C2613 1.429 . S
C2610 C2593 1.574 . S
C2610 H2604 0.949 . S
C2610 C2614 1.368 . S
C2611 C2592 1.429 . S
C2611 C2605 1.429 . S
C2611 C2612 1.523 . S
C2612 C2593 1.368 . S
C2612 C2606 1.368 . S
C2612 C2611 1.523 . S
C2613 C2597 1.429 . S
C2613 C2609 1.429 . S
C2613 C2614 1.523 . S
C2614 C2598 1.368 . S
C2614 C2610 1.368 . S
C2614 C2613 1.523 . S
H2615 C2590 0.950 . S
H2616 C2592 0.950 . S
H2617 C2593 0.949 . S
H2618 C2595 0.950 . S
H2619 C2597 0.950 . S
C2620 C2621 1.349 . S
C2620 C2622 1.327 . S
C2620 H2645 0.950 . S
C2621 C2620 1.349 . S
C2621 C2637 1.349 . S
C2622 C2620 1.327 . S
C2622 C2641 1.429 . S
C2622 H2646 0.950 . S
C2623 C2640 1.574 . S
C2623 C2642 1.368 . S
C2623 H2647 0.949 . S
H2624 C2628 0.949 . S
C2625 C2626 1.349 . S
C2625 C2627 1.327 . S
C2625 H2648 0.950 . S
C2626 C2625 1.349 . S
C2626 C2638 1.349 1_455 S
C2627 C2625 1.327 . S
C2627 C2643 1.429 1_455 S
C2627 H2649 0.950 . S
C2628 H2624 0.949 . S
C2628 C2636 1.574 . S
C2628 C2644 1.368 . S
H2629 C2637 0.950 . S
H2630 C2635 0.950 . S
H2631 C2636 0.949 . S
H2632 C2638 0.950 . S
H2633 C2639 0.950 . S
H2634 C2640 0.949 . S
C2635 H2630 0.950 . S
C2635 C2637 1.327 . S
C2635 C2641 1.429 . S
C2636 C2628 1.574 . S
C2636 H2631 0.949 . S
C2636 C2642 1.368 . S
C2637 C2621 1.349 . S
C2637 H2629 0.950 . S
C2637 C2635 1.327 . S
C2638 C2626 1.349 1_655 S
C2638 H2632 0.950 . S
C2638 C2639 1.327 . S
C2639 H2633 0.950 . S
C2639 C2638 1.327 . S
C2639 C2643 1.429 . S
C2640 C2623 1.574 . S
C2640 H2634 0.949 . S
C2640 C2644 1.368 . S
C2641 C2622 1.429 . S
C2641 C2635 1.429 . S
C2641 C2642 1.523 . S
C2642 C2623 1.368 . S
C2642 C2636 1.368 . S
C2642 C2641 1.523 . S
C2643 C2627 1.429 1_655 S
C2643 C2639 1.429 . S
C2643 C2644 1.523 . S
C2644 C2628 1.368 . S
C2644 C2640 1.368 . S
C2644 C2643 1.523 . S
H2645 C2620 0.950 . S
H2646 C2622 0.950 . S
H2647 C2623 0.949 . S
H2648 C2625 0.950 . S
H2649 C2627 0.950 . S
C2650 C2651 1.349 . S
C2650 C2652 1.327 . S
C2650 H2675 0.950 . S
C2651 C2650 1.349 . S
C2651 C2667 1.349 . S
C2652 C2650 1.327 . S
C2652 C2671 1.429 . S
C2652 H2676 0.950 . S
C2653 C2670 1.574 . S
C2653 C2672 1.368 . S
C2653 H2677 0.949 . S
H2654 C2658 0.949 . S
C2655 C2656 1.349 . S
C2655 C2657 1.327 . S
C2655 H2678 0.950 . S
C2656 C2655 1.349 . S
C2656 C2668 1.349 . S
C2657 C2655 1.327 . S
C2657 C2673 1.429 . S
C2657 H2679 0.950 . S
C2658 H2654 0.949 . S
C2658 C2666 1.574 . S
C2658 C2674 1.368 . S
H2659 C2667 0.950 . S
H2660 C2665 0.950 . S
H2661 C2666 0.949 . S
H2662 C2668 0.950 . S
H2663 C2669 0.950 . S
H2664 C2670 0.949 . S
C2665 H2660 0.950 . S
C2665 C2667 1.327 . S
C2665 C2671 1.429 . S
C2666 C2658 1.574 . S
C2666 H2661 0.949 . S
C2666 C2672 1.368 . S
C2667 C2651 1.349 . S
C2667 H2659 0.950 . S
C2667 C2665 1.327 . S
C2668 C2656 1.349 . S
C2668 H2662 0.950 . S
C2668 C2669 1.327 . S
C2669 H2663 0.950 . S
C2669 C2668 1.327 . S
C2669 C2673 1.429 . S
C2670 C2653 1.574 . S
C2670 H2664 0.949 . S
C2670 C2674 1.368 . S
C2671 C2652 1.429 . S
C2671 C2665 1.429 . S
C2671 C2672 1.523 . S
C2672 C2653 1.368 . S
C2672 C2666 1.368 . S
C2672 C2671 1.523 . S
C2673 C2657 1.429 . S
C2673 C2669 1.429 . S
C2673 C2674 1.523 . S
C2674 C2658 1.368 . S
C2674 C2670 1.368 . S
C2674 C2673 1.523 . S
H2675 C2650 0.950 . S
H2676 C2652 0.950 . S
H2677 C2653 0.949 . S
H2678 C2655 0.950 . S
H2679 C2657 0.950 . S
C2680 C2681 1.349 . S
C2680 C2682 1.327 . S
C2680 H2705 0.950 . S
C2681 C2680 1.349 . S
C2681 C2697 1.349 . S
C2682 C2680 1.327 . S
C2682 C2701 1.429 . S
C2682 H2706 0.950 . S
C2683 C2700 1.574 . S
C2683 C2702 1.368 . S
C2683 H2707 0.949 . S
H2684 C2688 0.949 . S
C2685 C2686 1.349 . S
C2685 C2687 1.327 . S
C2685 H2708 0.950 . S
C2686 C2685 1.349 . S
C2686 C2698 1.349 . S
C2687 C2685 1.327 . S
C2687 C2703 1.429 . S
C2687 H2709 0.950 . S
C2688 H2684 0.949 . S
C2688 C2696 1.574 . S
C2688 C2704 1.368 . S
H2689 C2697 0.950 . S
H2690 C2695 0.950 . S
H2691 C2696 0.949 . S
H2692 C2698 0.950 . S
H2693 C2699 0.950 . S
H2694 C2700 0.949 . S
C2695 H2690 0.950 . S
C2695 C2697 1.327 . S
C2695 C2701 1.429 . S
C2696 C2688 1.574 . S
C2696 H2691 0.949 . S
C2696 C2702 1.368 . S
C2697 C2681 1.349 . S
C2697 H2689 0.950 . S
C2697 C2695 1.327 . S
C2698 C2686 1.349 . S
C2698 H2692 0.950 . S
C2698 C2699 1.327 . S
C2699 H2693 0.950 . S
C2699 C2698 1.327 . S
C2699 C2703 1.429 . S
C2700 C2683 1.574 . S
C2700 H2694 0.949 . S
C2700 C2704 1.368 . S
C2701 C2682 1.429 . S
C2701 C2695 1.429 . S
C2701 C2702 1.523 . S
C2702 C2683 1.368 . S
C2702 C2696 1.368 . S
C2702 C2701 1.523 . S
C2703 C2687 1.429 . S
C2703 C2699 1.429 . S
C2703 C2704 1.523 . S
C2704 C2688 1.368 . S
C2704 C2700 1.368 . S
C2704 C2703 1.523 . S
H2705 C2680 0.950 . S
H2706 C2682 0.950 . S
H2707 C2683 0.949 . S
H2708 C2685 0.950 . S
H2709 C2687 0.950 . S
C2710 C2711 1.349 . S
C2710 C2712 1.327 . S
C2710 H2735 0.950 . S
C2711 C2710 1.349 . S
C2711 C2727 1.349 . S
C2712 C2710 1.327 . S
C2712 C2731 1.429 . S
C2712 H2736 0.950 . S
C2713 C2730 1.574 . S
C2713 C2732 1.368 . S
C2713 H2737 0.949 . S
H2714 C2718 0.949 . S
C2715 C2716 1.349 . S
C2715 C2717 1.327 . S
C2715 H2738 0.950 . S
C2716 C2715 1.349 . S
C2716 C2728 1.349 . S
C2717 C2715 1.327 . S
C2717 C2733 1.429 . S
C2717 H2739 0.950 . S
C2718 H2714 0.949 . S
C2718 C2726 1.574 . S
C2718 C2734 1.368 . S
H2719 C2727 0.950 . S
H2720 C2725 0.950 . S
H2721 C2726 0.949 . S
H2722 C2728 0.950 . S
H2723 C2729 0.950 . S
H2724 C2730 0.949 . S
C2725 H2720 0.950 . S
C2725 C2727 1.327 . S
C2725 C2731 1.429 . S
C2726 C2718 1.574 . S
C2726 H2721 0.949 . S
C2726 C2732 1.368 . S
C2727 C2711 1.349 . S
C2727 H2719 0.950 . S
C2727 C2725 1.327 . S
C2728 C2716 1.349 . S
C2728 H2722 0.950 . S
C2728 C2729 1.327 . S
C2729 H2723 0.950 . S
C2729 C2728 1.327 . S
C2729 C2733 1.429 . S
C2730 C2713 1.574 . S
C2730 H2724 0.949 . S
C2730 C2734 1.368 . S
C2731 C2712 1.429 . S
C2731 C2725 1.429 . S
C2731 C2732 1.523 . S
C2732 C2713 1.368 . S
C2732 C2726 1.368 . S
C2732 C2731 1.523 . S
C2733 C2717 1.429 . S
C2733 C2729 1.429 . S
C2733 C2734 1.523 . S
C2734 C2718 1.368 . S
C2734 C2730 1.368 . S
C2734 C2733 1.523 . S
H2735 C2710 0.950 . S
H2736 C2712 0.950 . S
H2737 C2713 0.949 . S
H2738 C2715 0.950 . S
H2739 C2717 0.950 . S
C2740 C2741 1.349 . S
C2740 C2742 1.327 . S
C2740 H2765 0.950 . S
C2741 C2740 1.349 . S
C2741 C2757 1.349 . S
C2742 C2740 1.327 . S
C2742 C2761 1.429 . S
C2742 H2766 0.950 . S
C2743 C2760 1.574 . S
C2743 C2762 1.368 . S
C2743 H2767 0.949 . S
H2744 C2748 0.949 . S
C2745 C2746 1.349 . S
C2745 C2747 1.327 . S
C2745 H2768 0.950 . S
C2746 C2745 1.349 . S
C2746 C2758 1.347 1_655 S
C2747 C2745 1.327 . S
C2747 C2763 1.429 . S
C2747 H2769 0.950 . S
C2748 H2744 0.949 . S
C2748 C2756 1.574 . S
C2748 C2764 1.368 . S
H2749 C2757 0.950 . S
H2750 C2755 0.950 . S
H2751 C2756 0.949 . S
H2752 C2758 0.955 . S
H2753 C2759 0.950 . S
H2754 C2760 0.949 . S
C2755 H2750 0.950 . S
C2755 C2757 1.327 . S
C2755 C2761 1.429 . S
C2756 C2748 1.574 . S
C2756 H2751 0.949 . S
C2756 C2762 1.368 . S
C2757 C2741 1.349 . S
C2757 H2749 0.950 . S
C2757 C2755 1.327 . S
C2758 C2746 1.347 1_455 S
C2758 H2752 0.955 . S
C2758 C2759 1.323 1_455 S
C2759 H2753 0.950 . S
C2759 C2758 1.323 1_655 S
C2759 C2763 1.429 . S
C2760 C2743 1.574 . S
C2760 H2754 0.949 . S
C2760 C2764 1.368 . S
C2761 C2742 1.429 . S
C2761 C2755 1.429 . S
C2761 C2762 1.523 . S
C2762 C2743 1.368 . S
C2762 C2756 1.368 . S
C2762 C2761 1.523 . S
C2763 C2747 1.429 . S
C2763 C2759 1.429 . S
C2763 C2764 1.523 . S
C2764 C2748 1.368 . S
C2764 C2760 1.368 . S
C2764 C2763 1.523 . S
H2765 C2740 0.950 . S
H2766 C2742 0.950 . S
H2767 C2743 0.949 . S
H2768 C2745 0.950 . S
H2769 C2747 0.950 . S
C2770 C2771 1.349 . S
C2770 C2772 1.327 . S
C2770 H2795 0.950 . S
C2771 C2770 1.349 . S
C2771 C2787 1.349 . S
C2772 C2770 1.327 . S
C2772 C2791 1.429 . S
C2772 H2796 0.950 . S
C2773 C2790 1.574 . S
C2773 C2792 1.368 . S
C2773 H2797 0.949 . S
H2774 C2778 0.949 . S
C2775 C2776 1.349 . S
C2775 C2777 1.327 . S
C2775 H2798 0.950 . S
C2776 C2775 1.349 . S
C2776 C2788 1.349 . S
C2777 C2775 1.327 . S
C2777 C2793 1.429 . S
C2777 H2799 0.950 . S
C2778 H2774 0.949 . S
C2778 C2786 1.574 . S
C2778 C2794 1.368 . S
H2779 C2787 0.950 . S
H2780 C2785 0.950 . S
H2781 C2786 0.949 . S
H2782 C2788 0.950 . S
H2783 C2789 0.950 . S
H2784 C2790 0.949 . S
C2785 H2780 0.950 . S
C2785 C2787 1.327 . S
C2785 C2791 1.429 . S
C2786 C2778 1.574 . S
C2786 H2781 0.949 . S
C2786 C2792 1.368 . S
C2787 C2771 1.349 . S
C2787 H2779 0.950 . S
C2787 C2785 1.327 . S
C2788 C2776 1.349 . S
C2788 H2782 0.950 . S
C2788 C2789 1.327 . S
C2789 H2783 0.950 . S
C2789 C2788 1.327 . S
C2789 C2793 1.429 . S
C2790 C2773 1.574 . S
C2790 H2784 0.949 . S
C2790 C2794 1.368 . S
C2791 C2772 1.429 . S
C2791 C2785 1.429 . S
C2791 C2792 1.523 . S
C2792 C2773 1.368 . S
C2792 C2786 1.368 . S
C2792 C2791 1.523 . S
C2793 C2777 1.429 . S
C2793 C2789 1.429 . S
C2793 C2794 1.523 . S
C2794 C2778 1.368 . S
C2794 C2790 1.368 . S
C2794 C2793 1.523 . S
H2795 C2770 0.950 . S
H2796 C2772 0.950 . S
H2797 C2773 0.949 . S
H2798 C2775 0.950 . S
H2799 C2777 0.950 . S
C2800 C2801 1.349 . S
C2800 C2802 1.327 . S
C2800 H2825 0.950 . S
C2801 C2800 1.349 . S
C2801 C2817 1.349 . S
C2802 C2800 1.327 . S
C2802 C2821 1.429 . S
C2802 H2826 0.950 . S
C2803 C2820 1.574 . S
C2803 C2822 1.368 . S
C2803 H2827 0.949 . S
H2804 C2808 0.949 . S
C2805 C2806 1.349 . S
C2805 C2807 1.327 . S
C2805 H2828 0.950 . S
C2806 C2805 1.349 . S
C2806 C2818 1.349 . S
C2807 C2805 1.327 . S
C2807 C2823 1.429 . S
C2807 H2829 0.950 . S
C2808 H2804 0.949 . S
C2808 C2816 1.574 . S
C2808 C2824 1.368 . S
H2809 C2817 0.950 . S
H2810 C2815 0.950 . S
H2811 C2816 0.949 . S
H2812 C2818 0.950 . S
H2813 C2819 0.950 . S
H2814 C2820 0.949 . S
C2815 H2810 0.950 . S
C2815 C2817 1.327 . S
C2815 C2821 1.429 . S
C2816 C2808 1.574 . S
C2816 H2811 0.949 . S
C2816 C2822 1.368 . S
C2817 C2801 1.349 . S
C2817 H2809 0.950 . S
C2817 C2815 1.327 . S
C2818 C2806 1.349 . S
C2818 H2812 0.950 . S
C2818 C2819 1.327 . S
C2819 H2813 0.950 . S
C2819 C2818 1.327 . S
C2819 C2823 1.429 . S
C2820 C2803 1.574 . S
C2820 H2814 0.949 . S
C2820 C2824 1.368 . S
C2821 C2802 1.429 . S
C2821 C2815 1.429 . S
C2821 C2822 1.523 . S
C2822 C2803 1.368 . S
C2822 C2816 1.368 . S
C2822 C2821 1.523 . S
C2823 C2807 1.429 . S
C2823 C2819 1.429 . S
C2823 C2824 1.523 . S
C2824 C2808 1.368 . S
C2824 C2820 1.368 . S
C2824 C2823 1.523 . S
H2825 C2800 0.950 . S
H2826 C2802 0.950 . S
H2827 C2803 0.949 . S
H2828 C2805 0.950 . S
H2829 C2807 0.950 . S
C2830 C2831 1.349 . S
C2830 C2832 1.327 . S
C2830 H2855 0.950 . S
C2831 C2830 1.349 . S
C2831 C2847 1.349 . S
C2832 C2830 1.327 . S
C2832 C2851 1.429 . S
C2832 H2856 0.950 . S
C2833 C2850 1.574 . S
C2833 C2852 1.368 . S
C2833 H2857 0.949 . S
H2834 C2838 0.949 . S
C2835 C2836 1.349 . S
C2835 C2837 1.327 . S
C2835 H2858 0.950 . S
C2836 C2835 1.349 . S
C2836 C2848 1.349 . S
C2837 C2835 1.327 . S
C2837 C2853 1.429 . S
C2837 H2859 0.950 . S
C2838 H2834 0.949 . S
C2838 C2846 1.574 . S
C2838 C2854 1.368 . S
H2839 C2847 0.950 . S
H2840 C2845 0.950 . S
H2841 C2846 0.949 . S
H2842 C2848 0.950 1_545 S
H2843 C2849 0.950 . S
H2844 C2850 0.949 . S
C2845 H2840 0.950 . S
C2845 C2847 1.327 . S
C2845 C2851 1.429 . S
C2846 C2838 1.574 . S
C2846 H2841 0.949 . S
C2846 C2852 1.368 . S
C2847 C2831 1.349 . S
C2847 H2839 0.950 . S
C2847 C2845 1.327 . S
C2848 C2836 1.349 . S
C2848 H2842 0.950 1_565 S
C2848 C2849 1.327 . S
C2849 H2843 0.950 . S
C2849 C2848 1.327 . S
C2849 C2853 1.429 . S
C2850 C2833 1.574 . S
C2850 H2844 0.949 . S
C2850 C2854 1.368 . S
C2851 C2832 1.429 . S
C2851 C2845 1.429 . S
C2851 C2852 1.523 . S
C2852 C2833 1.368 . S
C2852 C2846 1.368 . S
C2852 C2851 1.523 . S
C2853 C2837 1.429 . S
C2853 C2849 1.429 . S
C2853 C2854 1.523 . S
C2854 C2838 1.368 . S
C2854 C2850 1.368 . S
C2854 C2853 1.523 . S
H2855 C2830 0.950 . S
H2856 C2832 0.950 . S
H2857 C2833 0.949 . S
H2858 C2835 0.950 . S
H2859 C2837 0.950 . S
C2860 C2861 1.349 . S
C2860 C2862 1.327 . S
C2860 H2885 0.950 . S
C2861 C2860 1.349 . S
C2861 C2877 1.349 . S
C2862 C2860 1.327 . S
C2862 C2881 1.429 . S
C2862 H2886 0.950 . S
C2863 C2880 1.574 . S
C2863 C2882 1.368 . S
C2863 H2887 0.949 . S
H2864 C2868 0.949 . S
C2865 C2866 1.349 . S
C2865 C2867 1.327 . S
C2865 H2888 0.950 . S
C2866 C2865 1.349 . S
C2866 C2878 1.349 . S
C2867 C2865 1.327 . S
C2867 C2883 1.429 . S
C2867 H2889 0.950 . S
C2868 H2864 0.949 . S
C2868 C2876 1.574 . S
C2868 C2884 1.368 . S
H2869 C2877 0.950 . S
H2870 C2875 0.950 . S
H2871 C2876 0.949 . S
H2872 C2878 0.950 . S
H2873 C2879 0.950 . S
H2874 C2880 0.949 . S
C2875 H2870 0.950 . S
C2875 C2877 1.327 . S
C2875 C2881 1.429 . S
C2876 C2868 1.574 . S
C2876 H2871 0.949 . S
C2876 C2882 1.368 . S
C2877 C2861 1.349 . S
C2877 H2869 0.950 . S
C2877 C2875 1.327 . S
C2878 C2866 1.349 . S
C2878 H2872 0.950 . S
C2878 C2879 1.327 . S
C2879 H2873 0.950 . S
C2879 C2878 1.327 . S
C2879 C2883 1.429 . S
C2880 C2863 1.574 . S
C2880 H2874 0.949 . S
C2880 C2884 1.368 . S
C2881 C2862 1.429 . S
C2881 C2875 1.429 . S
C2881 C2882 1.523 . S
C2882 C2863 1.368 . S
C2882 C2876 1.368 . S
C2882 C2881 1.523 . S
C2883 C2867 1.429 . S
C2883 C2879 1.429 . S
C2883 C2884 1.523 . S
C2884 C2868 1.368 . S
C2884 C2880 1.368 . S
C2884 C2883 1.523 . S
H2885 C2860 0.950 . S
H2886 C2862 0.950 . S
H2887 C2863 0.949 . S
H2888 C2865 0.950 . S
H2889 C2867 0.950 . S
C2890 C2891 1.349 . S
C2890 C2892 1.327 . S
C2890 H2915 0.950 1_554 S
C2891 C2890 1.349 . S
C2891 C2907 1.349 . S
C2892 C2890 1.327 . S
C2892 C2911 1.429 . S
C2892 H2916 0.950 . S
C2893 C2910 1.574 . S
C2893 C2912 1.368 . S
C2893 H2917 0.949 . S
H2894 C2898 0.949 . S
C2895 C2896 1.349 . S
C2895 C2897 1.327 . S
C2895 H2918 0.950 . S
C2896 C2895 1.349 . S
C2896 C2908 1.349 . S
C2897 C2895 1.327 . S
C2897 C2913 1.429 . S
C2897 H2919 0.950 . S
C2898 H2894 0.949 . S
C2898 C2906 1.574 . S
C2898 C2914 1.368 . S
H2899 C2907 0.950 . S
H2900 C2905 0.950 . S
H2901 C2906 0.949 . S
H2902 C2908 0.950 . S
H2903 C2909 0.950 . S
H2904 C2910 0.949 . S
C2905 H2900 0.950 . S
C2905 C2907 1.327 . S
C2905 C2911 1.429 . S
C2906 C2898 1.574 . S
C2906 H2901 0.949 . S
C2906 C2912 1.368 . S
C2907 C2891 1.349 . S
C2907 H2899 0.950 . S
C2907 C2905 1.327 . S
C2908 C2896 1.349 . S
C2908 H2902 0.950 . S
C2908 C2909 1.327 . S
C2909 H2903 0.950 . S
C2909 C2908 1.327 . S
C2909 C2913 1.429 . S
C2910 C2893 1.574 . S
C2910 H2904 0.949 . S
C2910 C2914 1.368 . S
C2911 C2892 1.429 . S
C2911 C2905 1.429 . S
C2911 C2912 1.523 . S
C2912 C2893 1.368 . S
C2912 C2906 1.368 . S
C2912 C2911 1.523 . S
C2913 C2897 1.429 . S
C2913 C2909 1.429 . S
C2913 C2914 1.523 . S
C2914 C2898 1.368 . S
C2914 C2910 1.368 . S
C2914 C2913 1.523 . S
H2915 C2890 0.950 1_556 S
H2916 C2892 0.950 . S
H2917 C2893 0.949 . S
H2918 C2895 0.950 . S
H2919 C2897 0.950 . S
C2920 C2921 1.349 . S
C2920 C2922 1.327 . S
C2920 H2945 0.950 . S
C2921 C2920 1.349 . S
C2921 C2937 1.349 . S
C2922 C2920 1.327 . S
C2922 C2941 1.429 . S
C2922 H2946 0.950 . S
C2923 C2940 1.574 . S
C2923 C2942 1.368 . S
C2923 H2947 0.949 . S
H2924 C2928 0.949 . S
C2925 C2926 1.349 . S
C2925 C2927 1.327 . S
C2925 H2948 0.950 . S
C2926 C2925 1.349 . S
C2926 C2938 1.349 . S
C2927 C2925 1.327 . S
C2927 C2943 1.429 . S
C2927 H2949 0.950 . S
C2928 H2924 0.949 . S
C2928 C2936 1.574 . S
C2928 C2944 1.368 . S
H2929 C2937 0.950 . S
H2930 C2935 0.950 . S
H2931 C2936 0.949 . S
H2932 C2938 0.950 . S
H2933 C2939 0.950 . S
H2934 C2940 0.949 . S
C2935 H2930 0.950 . S
C2935 C2937 1.327 . S
C2935 C2941 1.429 . S
C2936 C2928 1.574 . S
C2936 H2931 0.949 . S
C2936 C2942 1.368 . S
C2937 C2921 1.349 . S
C2937 H2929 0.950 . S
C2937 C2935 1.327 . S
C2938 C2926 1.349 . S
C2938 H2932 0.950 . S
C2938 C2939 1.327 . S
C2939 H2933 0.950 . S
C2939 C2938 1.327 . S
C2939 C2943 1.429 . S
C2940 C2923 1.574 . S
C2940 H2934 0.949 . S
C2940 C2944 1.368 . S
C2941 C2922 1.429 . S
C2941 C2935 1.429 . S
C2941 C2942 1.523 . S
C2942 C2923 1.368 . S
C2942 C2936 1.368 . S
C2942 C2941 1.523 . S
C2943 C2927 1.429 . S
C2943 C2939 1.429 . S
C2943 C2944 1.523 . S
C2944 C2928 1.368 . S
C2944 C2940 1.368 . S
C2944 C2943 1.523 . S
H2945 C2920 0.950 . S
H2946 C2922 0.950 . S
H2947 C2923 0.949 . S
H2948 C2925 0.950 . S
H2949 C2927 0.950 . S
C2950 C2951 1.349 . S
C2950 C2952 1.327 . S
C2950 H2975 0.950 . S
C2951 C2950 1.349 . S
C2951 C2967 1.349 . S
C2952 C2950 1.327 . S
C2952 C2971 1.429 . S
C2952 H2976 0.950 . S
C2953 C2970 1.574 . S
C2953 C2972 1.368 . S
C2953 H2977 0.949 . S
H2954 C2958 0.949 . S
C2955 C2956 1.349 . S
C2955 C2957 1.327 . S
C2955 H2978 0.950 . S
C2956 C2955 1.349 . S
C2956 C2968 1.349 . S
C2957 C2955 1.327 . S
C2957 C2973 1.429 . S
C2957 H2979 0.950 . S
C2958 H2954 0.949 . S
C2958 C2966 1.574 . S
C2958 C2974 1.368 . S
H2959 C2967 0.950 . S
H2960 C2965 0.950 . S
H2961 C2966 0.949 . S
H2962 C2968 0.950 1_556 S
H2963 C2969 0.950 . S
H2964 C2970 0.949 . S
C2965 H2960 0.950 . S
C2965 C2967 1.327 . S
C2965 C2971 1.429 . S
C2966 C2958 1.574 . S
C2966 H2961 0.949 . S
C2966 C2972 1.368 . S
C2967 C2951 1.349 . S
C2967 H2959 0.950 . S
C2967 C2965 1.327 . S
C2968 C2956 1.349 . S
C2968 H2962 0.950 1_554 S
C2968 C2969 1.327 . S
C2969 H2963 0.950 . S
C2969 C2968 1.327 . S
C2969 C2973 1.429 . S
C2970 C2953 1.574 . S
C2970 H2964 0.949 . S
C2970 C2974 1.368 . S
C2971 C2952 1.429 . S
C2971 C2965 1.429 . S
C2971 C2972 1.523 . S
C2972 C2953 1.368 . S
C2972 C2966 1.368 . S
C2972 C2971 1.523 . S
C2973 C2957 1.429 . S
C2973 C2969 1.429 . S
C2973 C2974 1.523 . S
C2974 C2958 1.368 . S
C2974 C2970 1.368 . S
C2974 C2973 1.523 . S
H2975 C2950 0.950 . S
H2976 C2952 0.950 . S
H2977 C2953 0.949 . S
H2978 C2955 0.950 . S
H2979 C2957 0.950 . S
C2980 C2981 1.349 . S
C2980 C2982 1.327 . S
C2980 H3005 0.950 . S
C2981 C2980 1.349 . S
C2981 C2997 1.349 . S
C2982 C2980 1.327 . S
C2982 C3001 1.429 . S
C2982 H3006 0.950 . S
C2983 C3000 1.574 . S
C2983 C3002 1.368 . S
C2983 H3007 0.949 . S
H2984 C2988 0.949 . S
C2985 C2986 1.349 . S
C2985 C2987 1.327 . S
C2985 H3008 0.950 . S
C2986 C2985 1.349 . S
C2986 C2998 1.349 . S
C2987 C2985 1.327 . S
C2987 C3003 1.429 . S
C2987 H3009 0.950 . S
C2988 H2984 0.949 . S
C2988 C2996 1.574 . S
C2988 C3004 1.368 . S
H2989 C2997 0.950 . S
H2990 C2995 0.950 . S
H2991 C2996 0.949 . S
H2992 C2998 0.950 . S
H2993 C2999 0.950 . S
H2994 C3000 0.949 . S
C2995 H2990 0.950 . S
C2995 C2997 1.327 . S
C2995 C3001 1.429 . S
C2996 C2988 1.574 . S
C2996 H2991 0.949 . S
C2996 C3002 1.368 . S
C2997 C2981 1.349 . S
C2997 H2989 0.950 . S
C2997 C2995 1.327 . S
C2998 C2986 1.349 . S
C2998 H2992 0.950 . S
C2998 C2999 1.327 . S
C2999 H2993 0.950 . S
C2999 C2998 1.327 . S
C2999 C3003 1.429 . S
C3000 C2983 1.574 . S
C3000 H2994 0.949 . S
C3000 C3004 1.368 . S
C3001 C2982 1.429 . S
C3001 C2995 1.429 . S
C3001 C3002 1.523 . S
C3002 C2983 1.368 . S
C3002 C2996 1.368 . S
C3002 C3001 1.523 . S
C3003 C2987 1.429 . S
C3003 C2999 1.429 . S
C3003 C3004 1.523 . S
C3004 C2988 1.368 . S
C3004 C3000 1.368 . S
C3004 C3003 1.523 . S
H3005 C2980 0.950 . S
H3006 C2982 0.950 . S
H3007 C2983 0.949 . S
H3008 C2985 0.950 . S
H3009 C2987 0.950 . S
C3010 C3011 1.349 . S
C3010 C3012 1.327 . S
C3010 H3035 0.950 . S
C3011 C3010 1.349 . S
C3011 C3027 1.349 . S
C3012 C3010 1.327 . S
C3012 C3031 1.429 . S
C3012 H3036 0.950 . S
C3013 C3030 1.574 . S
C3013 C3032 1.368 . S
C3013 H3037 0.949 . S
H3014 C3018 0.949 . S
C3015 C3016 1.349 . S
C3015 C3017 1.327 . S
C3015 H3038 0.950 . S
C3016 C3015 1.349 . S
C3016 C3028 1.349 . S
C3017 C3015 1.327 . S
C3017 C3033 1.429 . S
C3017 H3039 0.950 . S
C3018 H3014 0.949 . S
C3018 C3026 1.574 . S
C3018 C3034 1.368 . S
H3019 C3027 0.950 . S
H3020 C3025 0.950 . S
H3021 C3026 0.949 . S
H3022 C3028 0.950 . S
H3023 C3029 0.950 . S
H3024 C3030 0.949 . S
C3025 H3020 0.950 . S
C3025 C3027 1.327 . S
C3025 C3031 1.429 . S
C3026 C3018 1.574 . S
C3026 H3021 0.949 . S
C3026 C3032 1.368 . S
C3027 C3011 1.349 . S
C3027 H3019 0.950 . S
C3027 C3025 1.327 . S
C3028 C3016 1.349 . S
C3028 H3022 0.950 . S
C3028 C3029 1.327 . S
C3029 H3023 0.950 . S
C3029 C3028 1.327 . S
C3029 C3033 1.429 . S
C3030 C3013 1.574 . S
C3030 H3024 0.949 . S
C3030 C3034 1.368 . S
C3031 C3012 1.429 . S
C3031 C3025 1.429 . S
C3031 C3032 1.523 . S
C3032 C3013 1.368 . S
C3032 C3026 1.368 . S
C3032 C3031 1.523 . S
C3033 C3017 1.429 . S
C3033 C3029 1.429 . S
C3033 C3034 1.523 . S
C3034 C3018 1.368 . S
C3034 C3030 1.368 . S
C3034 C3033 1.523 . S
H3035 C3010 0.950 . S
H3036 C3012 0.950 . S
H3037 C3013 0.949 . S
H3038 C3015 0.950 . S
H3039 C3017 0.950 . S
C3040 C3041 1.349 . S
C3040 C3042 1.327 . S
C3040 H3065 0.950 . S
C3041 C3040 1.349 . S
C3041 C3057 1.349 . S
C3042 C3040 1.327 . S
C3042 C3061 1.429 . S
C3042 H3066 0.950 . S
C3043 C3060 1.574 . S
C3043 C3062 1.368 . S
C3043 H3067 0.949 . S
H3044 C3048 0.949 . S
C3045 C3046 1.349 . S
C3045 C3047 1.327 . S
C3045 H3068 0.950 . S
C3046 C3045 1.349 . S
C3046 C3058 1.349 . S
C3047 C3045 1.327 . S
C3047 C3063 1.429 . S
C3047 H3069 0.950 . S
C3048 H3044 0.949 . S
C3048 C3056 1.574 . S
C3048 C3064 1.368 . S
H3049 C3057 0.950 . S
H3050 C3055 0.950 . S
H3051 C3056 0.949 . S
H3052 C3058 0.950 . S
H3053 C3059 0.950 . S
H3054 C3060 0.949 . S
C3055 H3050 0.950 . S
C3055 C3057 1.327 . S
C3055 C3061 1.429 . S
C3056 C3048 1.574 . S
C3056 H3051 0.949 . S
C3056 C3062 1.368 . S
C3057 C3041 1.349 . S
C3057 H3049 0.950 . S
C3057 C3055 1.327 . S
C3058 C3046 1.349 . S
C3058 H3052 0.950 . S
C3058 C3059 1.327 . S
C3059 H3053 0.950 . S
C3059 C3058 1.327 . S
C3059 C3063 1.429 . S
C3060 C3043 1.574 . S
C3060 H3054 0.949 . S
C3060 C3064 1.368 . S
C3061 C3042 1.429 . S
C3061 C3055 1.429 . S
C3061 C3062 1.523 . S
C3062 C3043 1.368 . S
C3062 C3056 1.368 . S
C3062 C3061 1.523 . S
C3063 C3047 1.429 . S
C3063 C3059 1.429 . S
C3063 C3064 1.523 . S
C3064 C3048 1.368 . S
C3064 C3060 1.368 . S
C3064 C3063 1.523 . S
H3065 C3040 0.950 . S
H3066 C3042 0.950 . S
H3067 C3043 0.949 . S
H3068 C3045 0.950 . S
H3069 C3047 0.950 . S
C3070 C3071 1.349 . S
C3070 C3072 1.327 . S
C3070 H3095 0.950 . S
C3071 C3070 1.349 . S
C3071 C3087 1.349 . S
C3072 C3070 1.327 . S
C3072 C3091 1.429 . S
C3072 H3096 0.950 . S
C3073 C3090 1.574 . S
C3073 C3092 1.368 . S
C3073 H3097 0.949 . S
H3074 C3078 0.949 . S
C3075 C3076 1.349 . S
C3075 C3077 1.327 . S
C3075 H3098 0.950 . S
C3076 C3075 1.349 . S
C3076 C3088 1.349 . S
C3077 C3075 1.327 . S
C3077 C3093 1.429 . S
C3077 H3099 0.950 . S
C3078 H3074 0.949 . S
C3078 C3086 1.574 . S
C3078 C3094 1.368 . S
H3079 C3087 0.950 . S
H3080 C3085 0.950 . S
H3081 C3086 0.949 . S
H3082 C3088 0.950 . S
H3083 C3089 0.950 . S
H3084 C3090 0.949 . S
C3085 H3080 0.950 . S
C3085 C3087 1.327 . S
C3085 C3091 1.429 . S
C3086 C3078 1.574 . S
C3086 H3081 0.949 . S
C3086 C3092 1.368 . S
C3087 C3071 1.349 . S
C3087 H3079 0.950 . S
C3087 C3085 1.327 . S
C3088 C3076 1.349 . S
C3088 H3082 0.950 . S
C3088 C3089 1.327 . S
C3089 H3083 0.950 . S
C3089 C3088 1.327 . S
C3089 C3093 1.429 . S
C3090 C3073 1.574 . S
C3090 H3084 0.949 . S
C3090 C3094 1.368 . S
C3091 C3072 1.429 . S
C3091 C3085 1.429 . S
C3091 C3092 1.523 . S
C3092 C3073 1.368 . S
C3092 C3086 1.368 . S
C3092 C3091 1.523 . S
C3093 C3077 1.429 . S
C3093 C3089 1.429 . S
C3093 C3094 1.523 . S
C3094 C3078 1.368 . S
C3094 C3090 1.368 . S
C3094 C3093 1.523 . S
H3095 C3070 0.950 . S
H3096 C3072 0.950 . S
H3097 C3073 0.949 . S
H3098 C3075 0.950 . S
H3099 C3077 0.950 . S
C3100 C3101 1.349 . S
C3100 C3102 1.327 . S
C3100 H3125 0.950 . S
C3101 C3100 1.349 . S
C3101 C3117 1.349 1_455 S
C3102 C3100 1.327 . S
C3102 C3121 1.429 . S
C3102 H3126 0.950 . S
C3103 C3120 1.574 . S
C3103 C3122 1.368 1_655 S
C3103 H3127 0.949 . S
H3104 C3108 0.949 . S
C3105 C3106 1.351 1_655 S
C3105 C3107 1.326 . S
C3105 H3128 0.948 . S
C3106 C3105 1.351 1_455 S
C3106 C3118 1.349 1_556 S
C3107 C3105 1.326 . S
C3107 C3123 1.422 1_655 S
C3107 H3129 0.958 . S
C3108 H3104 0.949 . S
C3108 C3116 1.574 . S
C3108 C3124 1.368 . S
H3109 C3117 0.950 . S
H3110 C3115 0.950 . S
H3111 C3116 0.949 . S
H3112 C3118 0.950 . S
H3113 C3119 0.950 . S
H3114 C3120 0.949 . S
C3115 H3110 0.950 . S
C3115 C3117 1.327 . S
C3115 C3121 1.429 1_655 S
C3116 C3108 1.574 . S
C3116 H3111 0.949 . S
C3116 C3122 1.368 . S
C3117 C3101 1.349 1_655 S
C3117 H3109 0.950 . S
C3117 C3115 1.327 . S
C3118 C3106 1.349 1_554 S
C3118 H3112 0.950 . S
C3118 C3119 1.327 1_554 S
C3119 H3113 0.950 . S
C3119 C3118 1.327 1_556 S
C3119 C3123 1.429 . S
C3120 C3103 1.574 . S
C3120 H3114 0.949 . S
C3120 C3124 1.368 1_655 S
C3121 C3102 1.429 . S
C3121 C3115 1.429 1_455 S
C3121 C3122 1.523 . S
C3122 C3103 1.368 1_455 S
C3122 C3116 1.368 . S
C3122 C3121 1.523 . S
C3123 C3107 1.422 1_455 S
C3123 C3119 1.429 . S
C3123 C3124 1.523 . S
C3124 C3108 1.368 . S
C3124 C3120 1.368 1_455 S
C3124 C3123 1.523 . S
H3125 C3100 0.950 . S
H3126 C3102 0.950 . S
H3127 C3103 0.949 . S
H3128 C3105 0.948 . S
H3129 C3107 0.958 . S
C3130 C3131 1.349 . S
C3130 C3132 1.327 . S
C3130 H3155 0.950 . S
C3131 C3130 1.349 . S
C3131 C3147 1.349 . S
C3132 C3130 1.327 . S
C3132 C3151 1.429 . S
C3132 H3156 0.950 . S
C3133 C3150 1.574 . S
C3133 C3152 1.368 . S
C3133 H3157 0.949 . S
H3134 C3138 0.949 . S
C3135 C3136 1.349 . S
C3135 C3137 1.327 . S
C3135 H3158 0.950 . S
C3136 C3135 1.349 . S
C3136 C3148 1.349 . S
C3137 C3135 1.327 . S
C3137 C3153 1.429 . S
C3137 H3159 0.950 . S
C3138 H3134 0.949 . S
C3138 C3146 1.574 . S
C3138 C3154 1.368 . S
H3139 C3147 0.950 . S
H3140 C3145 0.950 . S
H3141 C3146 0.949 . S
H3142 C3148 0.950 . S
H3143 C3149 0.950 . S
H3144 C3150 0.949 . S
C3145 H3140 0.950 . S
C3145 C3147 1.327 . S
C3145 C3151 1.429 . S
C3146 C3138 1.574 . S
C3146 H3141 0.949 . S
C3146 C3152 1.368 . S
C3147 C3131 1.349 . S
C3147 H3139 0.950 . S
C3147 C3145 1.327 . S
C3148 C3136 1.349 . S
C3148 H3142 0.950 . S
C3148 C3149 1.327 . S
C3149 H3143 0.950 . S
C3149 C3148 1.327 . S
C3149 C3153 1.429 . S
C3150 C3133 1.574 . S
C3150 H3144 0.949 . S
C3150 C3154 1.368 . S
C3151 C3132 1.429 . S
C3151 C3145 1.429 . S
C3151 C3152 1.523 . S
C3152 C3133 1.368 . S
C3152 C3146 1.368 . S
C3152 C3151 1.523 . S
C3153 C3137 1.429 . S
C3153 C3149 1.429 . S
C3153 C3154 1.523 . S
C3154 C3138 1.368 . S
C3154 C3150 1.368 . S
C3154 C3153 1.523 . S
H3155 C3130 0.950 . S
H3156 C3132 0.950 . S
H3157 C3133 0.949 . S
H3158 C3135 0.950 . S
H3159 C3137 0.950 . S
C3160 C3161 1.349 . S
C3160 C3162 1.327 . S
C3160 H3185 0.950 . S
C3161 C3160 1.349 . S
C3161 C3177 1.349 . S
C3162 C3160 1.327 . S
C3162 C3181 1.429 . S
C3162 H3186 0.950 . S
C3163 C3180 1.574 . S
C3163 C3182 1.368 . S
C3163 H3187 0.949 . S
H3164 C3168 0.949 . S
C3165 C3166 1.349 . S
C3165 C3167 1.327 . S
C3165 H3188 0.950 . S
C3166 C3165 1.349 . S
C3166 C3178 1.349 . S
C3167 C3165 1.327 . S
C3167 C3183 1.429 . S
C3167 H3189 0.950 . S
C3168 H3164 0.949 . S
C3168 C3176 1.574 . S
C3168 C3184 1.368 . S
H3169 C3177 0.950 . S
H3170 C3175 0.950 . S
H3171 C3176 0.949 . S
H3172 C3178 0.950 . S
H3173 C3179 0.950 . S
H3174 C3180 0.949 . S
C3175 H3170 0.950 . S
C3175 C3177 1.327 . S
C3175 C3181 1.429 . S
C3176 C3168 1.574 . S
C3176 H3171 0.949 . S
C3176 C3182 1.368 . S
C3177 C3161 1.349 . S
C3177 H3169 0.950 . S
C3177 C3175 1.327 . S
C3178 C3166 1.349 . S
C3178 H3172 0.950 . S
C3178 C3179 1.327 . S
C3179 H3173 0.950 . S
C3179 C3178 1.327 . S
C3179 C3183 1.429 . S
C3180 C3163 1.574 . S
C3180 H3174 0.949 . S
C3180 C3184 1.368 . S
C3181 C3162 1.429 . S
C3181 C3175 1.429 . S
C3181 C3182 1.523 . S
C3182 C3163 1.368 . S
C3182 C3176 1.368 . S
C3182 C3181 1.523 . S
C3183 C3167 1.429 . S
C3183 C3179 1.429 . S
C3183 C3184 1.523 . S
C3184 C3168 1.368 . S
C3184 C3180 1.368 . S
C3184 C3183 1.523 . S
H3185 C3160 0.950 . S
H3186 C3162 0.950 . S
H3187 C3163 0.949 . S
H3188 C3165 0.950 . S
H3189 C3167 0.950 . S
C3190 C3191 1.349 . S
C3190 C3192 1.327 . S
C3190 H3215 0.950 . S
C3191 C3190 1.349 . S
C3191 C3207 1.349 . S
C3192 C3190 1.327 . S
C3192 C3211 1.429 . S
C3192 H3216 0.950 . S
C3193 C3210 1.574 . S
C3193 C3212 1.368 . S
C3193 H3217 0.949 . S
H3194 C3198 0.949 . S
C3195 C3196 1.349 . S
C3195 C3197 1.327 . S
C3195 H3218 0.950 . S
C3196 C3195 1.349 . S
C3196 C3208 1.349 . S
C3197 C3195 1.327 . S
C3197 C3213 1.429 . S
C3197 H3219 0.950 . S
C3198 H3194 0.949 . S
C3198 C3206 1.574 . S
C3198 C3214 1.368 . S
H3199 C3207 0.950 . S
H3200 C3205 0.950 . S
H3201 C3206 0.949 . S
H3202 C3208 0.950 . S
H3203 C3209 0.950 . S
H3204 C3210 0.949 . S
C3205 H3200 0.950 . S
C3205 C3207 1.327 . S
C3205 C3211 1.429 . S
C3206 C3198 1.574 . S
C3206 H3201 0.949 . S
C3206 C3212 1.368 . S
C3207 C3191 1.349 . S
C3207 H3199 0.950 . S
C3207 C3205 1.327 . S
C3208 C3196 1.349 . S
C3208 H3202 0.950 . S
C3208 C3209 1.327 . S
C3209 H3203 0.950 . S
C3209 C3208 1.327 . S
C3209 C3213 1.429 . S
C3210 C3193 1.574 . S
C3210 H3204 0.949 . S
C3210 C3214 1.368 . S
C3211 C3192 1.429 . S
C3211 C3205 1.429 . S
C3211 C3212 1.523 . S
C3212 C3193 1.368 . S
C3212 C3206 1.368 . S
C3212 C3211 1.523 . S
C3213 C3197 1.429 . S
C3213 C3209 1.429 . S
C3213 C3214 1.523 . S
C3214 C3198 1.368 . S
C3214 C3210 1.368 . S
C3214 C3213 1.523 . S
H3215 C3190 0.950 . S
H3216 C3192 0.950 . S
H3217 C3193 0.949 . S
H3218 C3195 0.950 . S
H3219 C3197 0.950 . S
C3220 C3221 1.349 . S
C3220 C3222 1.327 . S
C3220 H3245 0.950 . S
C3221 C3220 1.349 . S
C3221 C3237 1.349 . S
C3222 C3220 1.327 . S
C3222 C3241 1.429 . S
C3222 H3246 0.950 . S
C3223 C3240 1.574 . S
C3223 C3242 1.368 . S
C3223 H3247 0.949 . S
H3224 C3228 0.949 . S
C3225 C3226 1.349 . S
C3225 C3227 1.327 . S
C3225 H3248 0.950 . S
C3226 C3225 1.349 . S
C3226 C3238 1.349 . S
C3227 C3225 1.327 . S
C3227 C3243 1.429 . S
C3227 H3249 0.950 . S
C3228 H3224 0.949 . S
C3228 C3236 1.574 . S
C3228 C3244 1.368 . S
H3229 C3237 0.950 . S
H3230 C3235 0.950 . S
H3231 C3236 0.949 . S
H3232 C3238 0.950 . S
H3233 C3239 0.950 . S
H3234 C3240 0.949 . S
C3235 H3230 0.950 . S
C3235 C3237 1.327 . S
C3235 C3241 1.429 . S
C3236 C3228 1.574 . S
C3236 H3231 0.949 . S
C3236 C3242 1.368 . S
C3237 C3221 1.349 . S
C3237 H3229 0.950 . S
C3237 C3235 1.327 . S
C3238 C3226 1.349 . S
C3238 H3232 0.950 . S
C3238 C3239 1.327 . S
C3239 H3233 0.950 . S
C3239 C3238 1.327 . S
C3239 C3243 1.429 . S
C3240 C3223 1.574 . S
C3240 H3234 0.949 . S
C3240 C3244 1.368 . S
C3241 C3222 1.429 . S
C3241 C3235 1.429 . S
C3241 C3242 1.523 . S
C3242 C3223 1.368 . S
C3242 C3236 1.368 . S
C3242 C3241 1.523 . S
C3243 C3227 1.429 . S
C3243 C3239 1.429 . S
C3243 C3244 1.523 . S
C3244 C3228 1.368 . S
C3244 C3240 1.368 . S
C3244 C3243 1.523 . S
H3245 C3220 0.950 . S
H3246 C3222 0.950 . S
H3247 C3223 0.949 . S
H3248 C3225 0.950 . S
H3249 C3227 0.950 . S
C3250 C3251 1.349 . S
C3250 C3252 1.327 . S
C3250 H3275 0.950 . S
C3251 C3250 1.349 . S
C3251 C3267 1.349 . S
C3252 C3250 1.327 . S
C3252 C3271 1.429 . S
C3252 H3276 0.950 . S
C3253 C3270 1.574 . S
C3253 C3272 1.368 . S
C3253 H3277 0.949 . S
H3254 C3258 0.949 . S
C3255 C3256 1.349 . S
C3255 C3257 1.327 . S
C3255 H3278 0.950 . S
C3256 C3255 1.349 . S
C3256 C3268 1.349 . S
C3257 C3255 1.327 . S
C3257 C3273 1.429 . S
C3257 H3279 0.950 . S
C3258 H3254 0.949 . S
C3258 C3266 1.574 . S
C3258 C3274 1.368 . S
H3259 C3267 0.950 . S
H3260 C3265 0.950 . S
H3261 C3266 0.949 . S
H3262 C3268 0.950 . S
H3263 C3269 0.950 . S
H3264 C3270 0.949 . S
C3265 H3260 0.950 . S
C3265 C3267 1.327 . S
C3265 C3271 1.429 . S
C3266 C3258 1.574 . S
C3266 H3261 0.949 . S
C3266 C3272 1.368 . S
C3267 C3251 1.349 . S
C3267 H3259 0.950 . S
C3267 C3265 1.327 . S
C3268 C3256 1.349 . S
C3268 H3262 0.950 . S
C3268 C3269 1.327 . S
C3269 H3263 0.950 . S
C3269 C3268 1.327 . S
C3269 C3273 1.429 . S
C3270 C3253 1.574 . S
C3270 H3264 0.949 . S
C3270 C3274 1.368 . S
C3271 C3252 1.429 . S
C3271 C3265 1.429 . S
C3271 C3272 1.523 . S
C3272 C3253 1.368 . S
C3272 C3266 1.368 . S
C3272 C3271 1.523 . S
C3273 C3257 1.429 . S
C3273 C3269 1.429 . S
C3273 C3274 1.523 . S
C3274 C3258 1.368 . S
C3274 C3270 1.368 . S
C3274 C3273 1.523 . S
H3275 C3250 0.950 . S
H3276 C3252 0.950 . S
H3277 C3253 0.949 . S
H3278 C3255 0.950 . S
H3279 C3257 0.950 . S
C3280 C3281 1.349 . S
C3280 C3282 1.327 . S
C3280 H3305 0.950 . S
C3281 C3280 1.349 . S
C3281 C3297 1.349 . S
C3282 C3280 1.327 . S
C3282 C3301 1.429 . S
C3282 H3306 0.950 . S
C3283 C3300 1.574 . S
C3283 C3302 1.368 . S
C3283 H3307 0.949 . S
H3284 C3288 0.949 . S
C3285 C3286 1.349 . S
C3285 C3287 1.327 . S
C3285 H3308 0.950 . S
C3286 C3285 1.349 . S
C3286 C3298 1.349 . S
C3287 C3285 1.327 . S
C3287 C3303 1.429 . S
C3287 H3309 0.950 . S
C3288 H3284 0.949 . S
C3288 C3296 1.574 . S
C3288 C3304 1.368 . S
H3289 C3297 0.950 . S
H3290 C3295 0.950 . S
H3291 C3296 0.949 . S
H3292 C3298 0.950 . S
H3293 C3299 0.950 . S
H3294 C3300 0.949 . S
C3295 H3290 0.950 . S
C3295 C3297 1.327 . S
C3295 C3301 1.429 . S
C3296 C3288 1.574 . S
C3296 H3291 0.949 . S
C3296 C3302 1.368 . S
C3297 C3281 1.349 . S
C3297 H3289 0.950 . S
C3297 C3295 1.327 . S
C3298 C3286 1.349 . S
C3298 H3292 0.950 . S
C3298 C3299 1.327 . S
C3299 H3293 0.950 . S
C3299 C3298 1.327 . S
C3299 C3303 1.429 . S
C3300 C3283 1.574 . S
C3300 H3294 0.949 . S
C3300 C3304 1.368 . S
C3301 C3282 1.429 . S
C3301 C3295 1.429 . S
C3301 C3302 1.523 . S
C3302 C3283 1.368 . S
C3302 C3296 1.368 . S
C3302 C3301 1.523 . S
C3303 C3287 1.429 . S
C3303 C3299 1.429 . S
C3303 C3304 1.523 . S
C3304 C3288 1.368 . S
C3304 C3300 1.368 . S
C3304 C3303 1.523 . S
H3305 C3280 0.950 . S
H3306 C3282 0.950 . S
H3307 C3283 0.949 . S
H3308 C3285 0.950 . S
H3309 C3287 0.950 . S
C3310 C3311 1.349 . S
C3310 C3312 1.327 . S
C3310 H3335 0.950 . S
C3311 C3310 1.349 . S
C3311 C3327 1.349 . S
C3312 C3310 1.327 . S
C3312 C3331 1.429 . S
C3312 H3336 0.950 . S
C3313 C3330 1.574 . S
C3313 C3332 1.368 . S
C3313 H3337 0.949 . S
H3314 C3318 0.949 . S
C3315 C3316 1.349 . S
C3315 C3317 1.327 . S
C3315 H3338 0.950 . S
C3316 C3315 1.349 . S
C3316 C3328 1.349 . S
C3317 C3315 1.327 . S
C3317 C3333 1.429 . S
C3317 H3339 0.950 . S
C3318 H3314 0.949 . S
C3318 C3326 1.574 . S
C3318 C3334 1.368 . S
H3319 C3327 0.950 . S
H3320 C3325 0.950 . S
H3321 C3326 0.949 . S
H3322 C3328 0.950 . S
H3323 C3329 0.950 . S
H3324 C3330 0.949 . S
C3325 H3320 0.950 . S
C3325 C3327 1.327 . S
C3325 C3331 1.429 . S
C3326 C3318 1.574 . S
C3326 H3321 0.949 . S
C3326 C3332 1.368 . S
C3327 C3311 1.349 . S
C3327 H3319 0.950 . S
C3327 C3325 1.327 . S
C3328 C3316 1.349 . S
C3328 H3322 0.950 . S
C3328 C3329 1.327 . S
C3329 H3323 0.950 . S
C3329 C3328 1.327 . S
C3329 C3333 1.429 . S
C3330 C3313 1.574 . S
C3330 H3324 0.949 . S
C3330 C3334 1.368 . S
C3331 C3312 1.429 . S
C3331 C3325 1.429 . S
C3331 C3332 1.523 . S
C3332 C3313 1.368 . S
C3332 C3326 1.368 . S
C3332 C3331 1.523 . S
C3333 C3317 1.429 . S
C3333 C3329 1.429 . S
C3333 C3334 1.523 . S
C3334 C3318 1.368 . S
C3334 C3330 1.368 . S
C3334 C3333 1.523 . S
H3335 C3310 0.950 . S
H3336 C3312 0.950 . S
H3337 C3313 0.949 . S
H3338 C3315 0.950 . S
H3339 C3317 0.950 . S
C3340 C3341 1.349 . S
C3340 C3342 1.327 . S
C3340 H3365 0.950 . S
C3341 C3340 1.349 . S
C3341 C3357 1.349 . S
C3342 C3340 1.327 . S
C3342 C3361 1.429 . S
C3342 H3366 0.950 . S
C3343 C3360 1.574 . S
C3343 C3362 1.368 . S
C3343 H3367 0.949 . S
H3344 C3348 0.949 . S
C3345 C3346 1.349 . S
C3345 C3347 1.327 . S
C3345 H3368 0.950 . S
C3346 C3345 1.349 . S
C3346 C3358 1.349 . S
C3347 C3345 1.327 . S
C3347 C3363 1.429 . S
C3347 H3369 0.950 . S
C3348 H3344 0.949 . S
C3348 C3356 1.574 . S
C3348 C3364 1.368 . S
H3349 C3357 0.950 . S
H3350 C3355 0.950 . S
H3351 C3356 0.949 . S
H3352 C3358 0.950 . S
H3353 C3359 0.950 . S
H3354 C3360 0.949 . S
C3355 H3350 0.950 . S
C3355 C3357 1.327 . S
C3355 C3361 1.429 . S
C3356 C3348 1.574 . S
C3356 H3351 0.949 . S
C3356 C3362 1.368 . S
C3357 C3341 1.349 . S
C3357 H3349 0.950 . S
C3357 C3355 1.327 . S
C3358 C3346 1.349 . S
C3358 H3352 0.950 . S
C3358 C3359 1.327 . S
C3359 H3353 0.950 . S
C3359 C3358 1.327 . S
C3359 C3363 1.429 . S
C3360 C3343 1.574 . S
C3360 H3354 0.949 . S
C3360 C3364 1.368 . S
C3361 C3342 1.429 . S
C3361 C3355 1.429 . S
C3361 C3362 1.523 . S
C3362 C3343 1.368 . S
C3362 C3356 1.368 . S
C3362 C3361 1.523 . S
C3363 C3347 1.429 . S
C3363 C3359 1.429 . S
C3363 C3364 1.523 . S
C3364 C3348 1.368 . S
C3364 C3360 1.368 . S
C3364 C3363 1.523 . S
H3365 C3340 0.950 . S
H3366 C3342 0.950 . S
H3367 C3343 0.949 . S
H3368 C3345 0.950 . S
H3369 C3347 0.950 . S
C3370 C3371 1.349 . S
C3370 C3372 1.327 . S
C3370 H3395 0.950 . S
C3371 C3370 1.349 . S
C3371 C3387 1.349 . S
C3372 C3370 1.327 . S
C3372 C3391 1.429 . S
C3372 H3396 0.950 . S
C3373 C3390 1.574 . S
C3373 C3392 1.368 . S
C3373 H3397 0.949 . S
H3374 C3378 0.949 . S
C3375 C3376 1.349 . S
C3375 C3377 1.327 . S
C3375 H3398 0.950 . S
C3376 C3375 1.349 . S
C3376 C3388 1.349 . S
C3377 C3375 1.327 . S
C3377 C3393 1.429 . S
C3377 H3399 0.950 . S
C3378 H3374 0.949 . S
C3378 C3386 1.574 . S
C3378 C3394 1.368 . S
H3379 C3387 0.950 . S
H3380 C3385 0.950 . S
H3381 C3386 0.949 . S
H3382 C3388 0.950 . S
H3383 C3389 0.950 . S
H3384 C3390 0.949 . S
C3385 H3380 0.950 . S
C3385 C3387 1.327 . S
C3385 C3391 1.429 . S
C3386 C3378 1.574 . S
C3386 H3381 0.949 . S
C3386 C3392 1.368 . S
C3387 C3371 1.349 . S
C3387 H3379 0.950 . S
C3387 C3385 1.327 . S
C3388 C3376 1.349 . S
C3388 H3382 0.950 . S
C3388 C3389 1.327 . S
C3389 H3383 0.950 . S
C3389 C3388 1.327 . S
C3389 C3393 1.429 . S
C3390 C3373 1.574 . S
C3390 H3384 0.949 . S
C3390 C3394 1.368 . S
C3391 C3372 1.429 . S
C3391 C3385 1.429 . S
C3391 C3392 1.523 . S
C3392 C3373 1.368 . S
C3392 C3386 1.368 . S
C3392 C3391 1.523 . S
C3393 C3377 1.429 . S
C3393 C3389 1.429 . S
C3393 C3394 1.523 . S
C3394 C3378 1.368 . S
C3394 C3390 1.368 . S
C3394 C3393 1.523 . S
H3395 C3370 0.950 . S
H3396 C3372 0.950 . S
H3397 C3373 0.949 . S
H3398 C3375 0.950 . S
H3399 C3377 0.950 . S
C3400 C3401 1.349 . S
C3400 C3402 1.327 . S
C3400 H3425 0.950 . S
C3401 C3400 1.349 . S
C3401 C3417 1.349 . S
C3402 C3400 1.327 . S
C3402 C3421 1.429 . S
C3402 H3426 0.950 . S
C3403 C3420 1.574 . S
C3403 C3422 1.368 . S
C3403 H3427 0.949 . S
H3404 C3408 0.949 . S
C3405 C3406 1.349 . S
C3405 C3407 1.327 . S
C3405 H3428 0.950 . S
C3406 C3405 1.349 . S
C3406 C3418 1.349 . S
C3407 C3405 1.327 . S
C3407 C3423 1.429 . S
C3407 H3429 0.950 . S
C3408 H3404 0.949 . S
C3408 C3416 1.574 . S
C3408 C3424 1.368 . S
H3409 C3417 0.950 . S
H3410 C3415 0.950 . S
H3411 C3416 0.949 . S
H3412 C3418 0.950 . S
H3413 C3419 0.950 . S
H3414 C3420 0.949 . S
C3415 H3410 0.950 . S
C3415 C3417 1.327 . S
C3415 C3421 1.429 . S
C3416 C3408 1.574 . S
C3416 H3411 0.949 . S
C3416 C3422 1.368 . S
C3417 C3401 1.349 . S
C3417 H3409 0.950 . S
C3417 C3415 1.327 . S
C3418 C3406 1.349 . S
C3418 H3412 0.950 . S
C3418 C3419 1.327 . S
C3419 H3413 0.950 . S
C3419 C3418 1.327 . S
C3419 C3423 1.429 . S
C3420 C3403 1.574 . S
C3420 H3414 0.949 . S
C3420 C3424 1.368 . S
C3421 C3402 1.429 . S
C3421 C3415 1.429 . S
C3421 C3422 1.523 . S
C3422 C3403 1.368 . S
C3422 C3416 1.368 . S
C3422 C3421 1.523 . S
C3423 C3407 1.429 . S
C3423 C3419 1.429 . S
C3423 C3424 1.523 . S
C3424 C3408 1.368 . S
C3424 C3420 1.368 . S
C3424 C3423 1.523 . S
H3425 C3400 0.950 . S
H3426 C3402 0.950 . S
H3427 C3403 0.949 . S
H3428 C3405 0.950 . S
H3429 C3407 0.950 . S
C3430 C3431 1.349 . S
C3430 C3432 1.327 . S
C3430 H3455 0.950 . S
C3431 C3430 1.349 . S
C3431 C3447 1.349 . S
C3432 C3430 1.327 . S
C3432 C3451 1.429 . S
C3432 H3456 0.950 . S
C3433 C3450 1.574 . S
C3433 C3452 1.368 . S
C3433 H3457 0.949 . S
H3434 C3438 0.949 . S
C3435 C3436 1.349 . S
C3435 C3437 1.327 . S
C3435 H3458 0.950 . S
C3436 C3435 1.349 . S
C3436 C3448 1.349 . S
C3437 C3435 1.327 . S
C3437 C3453 1.429 . S
C3437 H3459 0.950 . S
C3438 H3434 0.949 . S
C3438 C3446 1.574 . S
C3438 C3454 1.368 . S
H3439 C3447 0.950 . S
H3440 C3445 0.950 . S
H3441 C3446 0.949 . S
H3442 C3448 0.950 . S
H3443 C3449 0.950 . S
H3444 C3450 0.949 . S
C3445 H3440 0.950 . S
C3445 C3447 1.327 . S
C3445 C3451 1.429 . S
C3446 C3438 1.574 . S
C3446 H3441 0.949 . S
C3446 C3452 1.368 . S
C3447 C3431 1.349 . S
C3447 H3439 0.950 . S
C3447 C3445 1.327 . S
C3448 C3436 1.349 . S
C3448 H3442 0.950 . S
C3448 C3449 1.327 . S
C3449 H3443 0.950 . S
C3449 C3448 1.327 . S
C3449 C3453 1.429 . S
C3450 C3433 1.574 . S
C3450 H3444 0.949 . S
C3450 C3454 1.368 . S
C3451 C3432 1.429 . S
C3451 C3445 1.429 . S
C3451 C3452 1.523 . S
C3452 C3433 1.368 . S
C3452 C3446 1.368 . S
C3452 C3451 1.523 . S
C3453 C3437 1.429 . S
C3453 C3449 1.429 . S
C3453 C3454 1.523 . S
C3454 C3438 1.368 . S
C3454 C3450 1.368 . S
C3454 C3453 1.523 . S
H3455 C3430 0.950 . S
H3456 C3432 0.950 . S
H3457 C3433 0.949 . S
H3458 C3435 0.950 . S
H3459 C3437 0.950 . S
C3460 C3461 1.349 . S
C3460 C3462 1.327 . S
C3460 H3485 0.950 . S
C3461 C3460 1.349 . S
C3461 C3477 1.349 . S
C3462 C3460 1.327 . S
C3462 C3481 1.429 . S
C3462 H3486 0.950 . S
C3463 C3480 1.574 . S
C3463 C3482 1.368 . S
C3463 H3487 0.949 . S
H3464 C3468 0.949 . S
C3465 C3466 1.349 . S
C3465 C3467 1.327 . S
C3465 H3488 0.950 . S
C3466 C3465 1.349 . S
C3466 C3478 1.349 . S
C3467 C3465 1.327 . S
C3467 C3483 1.429 . S
C3467 H3489 0.950 . S
C3468 H3464 0.949 . S
C3468 C3476 1.574 . S
C3468 C3484 1.368 . S
H3469 C3477 0.950 . S
H3470 C3475 0.950 . S
H3471 C3476 0.949 . S
H3472 C3478 0.950 . S
H3473 C3479 0.950 . S
H3474 C3480 0.949 . S
C3475 H3470 0.950 . S
C3475 C3477 1.327 . S
C3475 C3481 1.429 . S
C3476 C3468 1.574 . S
C3476 H3471 0.949 . S
C3476 C3482 1.368 . S
C3477 C3461 1.349 . S
C3477 H3469 0.950 . S
C3477 C3475 1.327 . S
C3478 C3466 1.349 . S
C3478 H3472 0.950 . S
C3478 C3479 1.327 . S
C3479 H3473 0.950 . S
C3479 C3478 1.327 . S
C3479 C3483 1.429 . S
C3480 C3463 1.574 . S
C3480 H3474 0.949 . S
C3480 C3484 1.368 . S
C3481 C3462 1.429 . S
C3481 C3475 1.429 . S
C3481 C3482 1.523 . S
C3482 C3463 1.368 . S
C3482 C3476 1.368 . S
C3482 C3481 1.523 . S
C3483 C3467 1.429 . S
C3483 C3479 1.429 . S
C3483 C3484 1.523 . S
C3484 C3468 1.368 . S
C3484 C3480 1.368 . S
C3484 C3483 1.523 . S
H3485 C3460 0.950 . S
H3486 C3462 0.950 . S
H3487 C3463 0.949 . S
H3488 C3465 0.950 . S
H3489 C3467 0.950 . S
C3490 C3491 1.349 . S
C3490 C3492 1.327 . S
C3490 H3515 0.950 . S
C3491 C3490 1.349 . S
C3491 C3507 1.349 . S
C3492 C3490 1.327 . S
C3492 C3511 1.429 . S
C3492 H3516 0.950 . S
C3493 C3510 1.574 . S
C3493 C3512 1.368 . S
C3493 H3517 0.949 . S
H3494 C3498 0.949 . S
C3495 C3496 1.349 . S
C3495 C3497 1.327 . S
C3495 H3518 0.950 . S
C3496 C3495 1.349 . S
C3496 C3508 1.349 . S
C3497 C3495 1.327 . S
C3497 C3513 1.429 . S
C3497 H3519 0.950 . S
C3498 H3494 0.949 . S
C3498 C3506 1.574 . S
C3498 C3514 1.368 . S
H3499 C3507 0.950 . S
H3500 C3505 0.950 . S
H3501 C3506 0.949 . S
H3502 C3508 0.950 . S
H3503 C3509 0.950 . S
H3504 C3510 0.949 . S
C3505 H3500 0.950 . S
C3505 C3507 1.327 . S
C3505 C3511 1.429 . S
C3506 C3498 1.574 . S
C3506 H3501 0.949 . S
C3506 C3512 1.368 . S
C3507 C3491 1.349 . S
C3507 H3499 0.950 . S
C3507 C3505 1.327 . S
C3508 C3496 1.349 . S
C3508 H3502 0.950 . S
C3508 C3509 1.327 . S
C3509 H3503 0.950 . S
C3509 C3508 1.327 . S
C3509 C3513 1.429 . S
C3510 C3493 1.574 . S
C3510 H3504 0.949 . S
C3510 C3514 1.368 . S
C3511 C3492 1.429 . S
C3511 C3505 1.429 . S
C3511 C3512 1.523 . S
C3512 C3493 1.368 . S
C3512 C3506 1.368 . S
C3512 C3511 1.523 . S
C3513 C3497 1.429 . S
C3513 C3509 1.429 . S
C3513 C3514 1.523 . S
C3514 C3498 1.368 . S
C3514 C3510 1.368 . S
C3514 C3513 1.523 . S
H3515 C3490 0.950 . S
H3516 C3492 0.950 . S
H3517 C3493 0.949 . S
H3518 C3495 0.950 . S
H3519 C3497 0.950 . S
C3520 C3521 1.349 . S
C3520 C3522 1.327 . S
C3520 H3545 0.950 . S
C3521 C3520 1.349 . S
C3521 C3537 1.349 . S
C3522 C3520 1.327 . S
C3522 C3541 1.429 . S
C3522 H3546 0.950 . S
C3523 C3540 1.574 . S
C3523 C3542 1.368 . S
C3523 H3547 0.949 . S
H3524 C3528 0.949 . S
C3525 C3526 1.349 . S
C3525 C3527 1.327 . S
C3525 H3548 0.950 . S
C3526 C3525 1.349 . S
C3526 C3538 1.349 . S
C3527 C3525 1.327 . S
C3527 C3543 1.429 . S
C3527 H3549 0.950 . S
C3528 H3524 0.949 . S
C3528 C3536 1.574 . S
C3528 C3544 1.368 . S
H3529 C3537 0.950 . S
H3530 C3535 0.950 . S
H3531 C3536 0.949 . S
H3532 C3538 0.950 . S
H3533 C3539 0.950 . S
H3534 C3540 0.949 . S
C3535 H3530 0.950 . S
C3535 C3537 1.327 . S
C3535 C3541 1.429 . S
C3536 C3528 1.574 . S
C3536 H3531 0.949 . S
C3536 C3542 1.368 . S
C3537 C3521 1.349 . S
C3537 H3529 0.950 . S
C3537 C3535 1.327 . S
C3538 C3526 1.349 . S
C3538 H3532 0.950 . S
C3538 C3539 1.327 . S
C3539 H3533 0.950 . S
C3539 C3538 1.327 . S
C3539 C3543 1.429 . S
C3540 C3523 1.574 . S
C3540 H3534 0.949 . S
C3540 C3544 1.368 . S
C3541 C3522 1.429 . S
C3541 C3535 1.429 . S
C3541 C3542 1.523 . S
C3542 C3523 1.368 . S
C3542 C3536 1.368 . S
C3542 C3541 1.523 . S
C3543 C3527 1.429 . S
C3543 C3539 1.429 . S
C3543 C3544 1.523 . S
C3544 C3528 1.368 . S
C3544 C3540 1.368 . S
C3544 C3543 1.523 . S
H3545 C3520 0.950 . S
H3546 C3522 0.950 . S
H3547 C3523 0.949 . S
H3548 C3525 0.950 . S
H3549 C3527 0.950 . S
C3550 C3551 1.349 . S
C3550 C3552 1.327 . S
C3550 H3575 0.950 . S
C3551 C3550 1.349 . S
C3551 C3567 1.349 . S
C3552 C3550 1.327 . S
C3552 C3571 1.429 . S
C3552 H3576 0.950 . S
C3553 C3570 1.574 . S
C3553 C3572 1.368 . S
C3553 H3577 0.949 . S
H3554 C3558 0.949 . S
C3555 C3556 1.349 . S
C3555 C3557 1.327 . S
C3555 H3578 0.950 . S
C3556 C3555 1.349 . S
C3556 C3568 1.349 . S
C3557 C3555 1.327 . S
C3557 C3573 1.429 . S
C3557 H3579 0.950 . S
C3558 H3554 0.949 . S
C3558 C3566 1.574 . S
C3558 C3574 1.368 . S
H3559 C3567 0.950 . S
H3560 C3565 0.950 . S
H3561 C3566 0.949 . S
H3562 C3568 0.950 . S
H3563 C3569 0.950 . S
H3564 C3570 0.949 . S
C3565 H3560 0.950 . S
C3565 C3567 1.327 . S
C3565 C3571 1.429 . S
C3566 C3558 1.574 . S
C3566 H3561 0.949 . S
C3566 C3572 1.368 . S
C3567 C3551 1.349 . S
C3567 H3559 0.950 . S
C3567 C3565 1.327 . S
C3568 C3556 1.349 . S
C3568 H3562 0.950 . S
C3568 C3569 1.327 . S
C3569 H3563 0.950 . S
C3569 C3568 1.327 . S
C3569 C3573 1.429 . S
C3570 C3553 1.574 . S
C3570 H3564 0.949 . S
C3570 C3574 1.368 . S
C3571 C3552 1.429 . S
C3571 C3565 1.429 . S
C3571 C3572 1.523 . S
C3572 C3553 1.368 . S
C3572 C3566 1.368 . S
C3572 C3571 1.523 . S
C3573 C3557 1.429 . S
C3573 C3569 1.429 . S
C3573 C3574 1.523 . S
C3574 C3558 1.368 . S
C3574 C3570 1.368 . S
C3574 C3573 1.523 . S
H3575 C3550 0.950 . S
H3576 C3552 0.950 . S
H3577 C3553 0.949 . S
H3578 C3555 0.950 . S
H3579 C3557 0.950 . S
C3580 C3581 1.349 . S
C3580 C3582 1.327 . S
C3580 H3605 0.950 . S
C3581 C3580 1.349 . S
C3581 C3597 1.349 . S
C3582 C3580 1.327 . S
C3582 C3601 1.429 . S
C3582 H3606 0.950 . S
C3583 C3600 1.574 . S
C3583 C3602 1.368 . S
C3583 H3607 0.949 . S
H3584 C3588 0.949 . S
C3585 C3586 1.349 . S
C3585 C3587 1.327 . S
C3585 H3608 0.950 . S
C3586 C3585 1.349 . S
C3586 C3598 1.349 . S
C3587 C3585 1.327 . S
C3587 C3603 1.429 . S
C3587 H3609 0.950 . S
C3588 H3584 0.949 . S
C3588 C3596 1.574 . S
C3588 C3604 1.368 . S
H3589 C3597 0.950 . S
H3590 C3595 0.950 . S
H3591 C3596 0.949 . S
H3592 C3598 0.950 . S
H3593 C3599 0.950 . S
H3594 C3600 0.949 . S
C3595 H3590 0.950 . S
C3595 C3597 1.327 . S
C3595 C3601 1.429 . S
C3596 C3588 1.574 . S
C3596 H3591 0.949 . S
C3596 C3602 1.368 . S
C3597 C3581 1.349 . S
C3597 H3589 0.950 . S
C3597 C3595 1.327 . S
C3598 C3586 1.349 . S
C3598 H3592 0.950 . S
C3598 C3599 1.327 . S
C3599 H3593 0.950 . S
C3599 C3598 1.327 . S
C3599 C3603 1.429 . S
C3600 C3583 1.574 . S
C3600 H3594 0.949 . S
C3600 C3604 1.368 . S
C3601 C3582 1.429 . S
C3601 C3595 1.429 . S
C3601 C3602 1.523 . S
C3602 C3583 1.368 . S
C3602 C3596 1.368 . S
C3602 C3601 1.523 . S
C3603 C3587 1.429 . S
C3603 C3599 1.429 . S
C3603 C3604 1.523 . S
C3604 C3588 1.368 . S
C3604 C3600 1.368 . S
C3604 C3603 1.523 . S
H3605 C3580 0.950 . S
H3606 C3582 0.950 . S
H3607 C3583 0.949 . S
H3608 C3585 0.950 . S
H3609 C3587 0.950 . S
C3610 C3611 1.349 . S
C3610 C3612 1.327 . S
C3610 H3635 0.950 . S
C3611 C3610 1.349 . S
C3611 C3627 1.349 . S
C3612 C3610 1.327 . S
C3612 C3631 1.429 . S
C3612 H3636 0.950 . S
C3613 C3630 1.574 . S
C3613 C3632 1.368 . S
C3613 H3637 0.949 1_554 S
H3614 C3618 0.949 . S
C3615 C3616 1.349 1_565 S
C3615 C3617 1.327 . S
C3615 H3638 0.950 1_554 S
C3616 C3615 1.349 1_545 S
C3616 C3628 1.349 . S
C3617 C3615 1.327 . S
C3617 C3633 1.429 . S
C3617 H3639 0.950 1_554 S
C3618 H3614 0.949 . S
C3618 C3626 1.574 . S
C3618 C3634 1.368 . S
H3619 C3627 0.950 1_556 S
H3620 C3625 0.950 1_556 S
H3621 C3626 0.949 . S
H3622 C3628 0.950 . S
H3623 C3629 0.942 1_545 S
H3624 C3630 0.949 1_556 S
C3625 H3620 0.950 1_554 S
C3625 C3627 1.327 . S
C3625 C3631 1.429 . S
C3626 C3618 1.574 . S
C3626 H3621 0.949 . S
C3626 C3632 1.368 . S
C3627 C3611 1.349 . S
C3627 H3619 0.950 1_554 S
C3627 C3625 1.327 . S
C3628 C3616 1.349 . S
C3628 H3622 0.950 . S
C3628 C3629 1.327 1_545 S
C3629 H3623 0.942 1_565 S
C3629 C3628 1.327 1_565 S
C3629 C3633 1.429 . S
C3630 C3613 1.574 . S
C3630 H3624 0.949 1_554 S
C3630 C3634 1.368 . S
C3631 C3612 1.429 . S
C3631 C3625 1.429 . S
C3631 C3632 1.523 . S
C3632 C3613 1.368 . S
C3632 C3626 1.368 . S
C3632 C3631 1.523 . S
C3633 C3617 1.429 . S
C3633 C3629 1.429 . S
C3633 C3634 1.523 . S
C3634 C3618 1.368 . S
C3634 C3630 1.368 . S
C3634 C3633 1.523 . S
H3635 C3610 0.950 . S
H3636 C3612 0.950 . S
H3637 C3613 0.949 1_556 S
H3638 C3615 0.950 1_556 S
H3639 C3617 0.950 1_556 S
C3640 C3641 1.349 . S
C3640 C3642 1.327 . S
C3640 H3665 0.950 . S
C3641 C3640 1.349 . S
C3641 C3657 1.349 . S
C3642 C3640 1.327 . S
C3642 C3661 1.429 . S
C3642 H3666 0.950 . S
C3643 C3660 1.574 . S
C3643 C3662 1.368 . S
C3643 H3667 0.949 . S
H3644 C3648 0.949 . S
C3645 C3646 1.349 . S
C3645 C3647 1.327 . S
C3645 H3668 0.950 . S
C3646 C3645 1.349 . S
C3646 C3658 1.349 . S
C3647 C3645 1.327 . S
C3647 C3663 1.429 . S
C3647 H3669 0.950 . S
C3648 H3644 0.949 . S
C3648 C3656 1.574 . S
C3648 C3664 1.368 . S
H3649 C3657 0.950 . S
H3650 C3655 0.950 . S
H3651 C3656 0.949 . S
H3652 C3658 0.950 . S
H3653 C3659 0.950 . S
H3654 C3660 0.949 . S
C3655 H3650 0.950 . S
C3655 C3657 1.327 . S
C3655 C3661 1.429 . S
C3656 C3648 1.574 . S
C3656 H3651 0.949 . S
C3656 C3662 1.368 . S
C3657 C3641 1.349 . S
C3657 H3649 0.950 . S
C3657 C3655 1.327 . S
C3658 C3646 1.349 . S
C3658 H3652 0.950 . S
C3658 C3659 1.327 . S
C3659 H3653 0.950 . S
C3659 C3658 1.327 . S
C3659 C3663 1.429 . S
C3660 C3643 1.574 . S
C3660 H3654 0.949 . S
C3660 C3664 1.368 . S
C3661 C3642 1.429 . S
C3661 C3655 1.429 . S
C3661 C3662 1.523 . S
C3662 C3643 1.368 . S
C3662 C3656 1.368 . S
C3662 C3661 1.523 . S
C3663 C3647 1.429 . S
C3663 C3659 1.429 . S
C3663 C3664 1.523 . S
C3664 C3648 1.368 . S
C3664 C3660 1.368 . S
C3664 C3663 1.523 . S
H3665 C3640 0.950 . S
H3666 C3642 0.950 . S
H3667 C3643 0.949 . S
H3668 C3645 0.950 . S
H3669 C3647 0.950 . S
C3670 C3671 1.349 . S
C3670 C3672 1.327 . S
C3670 H3695 0.950 . S
C3671 C3670 1.349 . S
C3671 C3687 1.349 1_554 S
C3672 C3670 1.327 . S
C3672 C3691 1.429 . S
C3672 H3696 0.950 . S
C3673 C3690 1.574 . S
C3673 C3692 1.368 . S
C3673 H3697 0.949 1_554 S
H3674 C3678 0.949 . S
C3675 C3676 1.349 . S
C3675 C3677 1.327 . S
C3675 H3698 0.950 . S
C3676 C3675 1.349 . S
C3676 C3688 1.349 . S
C3677 C3675 1.327 . S
C3677 C3693 1.429 . S
C3677 H3699 0.950 . S
C3678 H3674 0.949 . S
C3678 C3686 1.574 . S
C3678 C3694 1.368 . S
H3679 C3687 0.950 . S
H3680 C3685 0.950 . S
H3681 C3686 0.949 . S
H3682 C3688 0.950 . S
H3683 C3689 0.950 . S
H3684 C3690 0.979 . S
C3685 H3680 0.950 . S
C3685 C3687 1.327 . S
C3685 C3691 1.429 1_556 S
C3686 C3678 1.574 . S
C3686 H3681 0.949 . S
C3686 C3692 1.368 . S
C3687 C3671 1.349 1_556 S
C3687 H3679 0.950 . S
C3687 C3685 1.327 . S
C3688 C3676 1.349 . S
C3688 H3682 0.950 . S
C3688 C3689 1.327 . S
C3689 H3683 0.950 . S
C3689 C3688 1.327 . S
C3689 C3693 1.429 . S
C3690 C3673 1.574 . S
C3690 H3684 0.979 . S
C3690 C3694 1.368 . S
C3691 C3672 1.429 . S
C3691 C3685 1.429 1_554 S
C3691 C3692 1.523 . S
C3692 C3673 1.368 . S
C3692 C3686 1.368 . S
C3692 C3691 1.523 . S
C3693 C3677 1.429 . S
C3693 C3689 1.429 . S
C3693 C3694 1.523 . S
C3694 C3678 1.368 . S
C3694 C3690 1.368 . S
C3694 C3693 1.523 . S
H3695 C3670 0.950 . S
H3696 C3672 0.950 . S
H3697 C3673 0.949 1_556 S
H3698 C3675 0.950 . S
H3699 C3677 0.950 . S
C3700 C3701 1.349 . S
C3700 C3702 1.327 . S
C3700 H3725 0.950 . S
C3701 C3700 1.349 . S
C3701 C3717 1.349 . S
C3702 C3700 1.327 . S
C3702 C3721 1.429 . S
C3702 H3726 0.950 . S
C3703 C3720 1.574 . S
C3703 C3722 1.368 . S
C3703 H3727 0.949 . S
H3704 C3708 0.949 . S
C3705 C3706 1.349 . S
C3705 C3707 1.327 . S
C3705 H3728 0.950 . S
C3706 C3705 1.349 . S
C3706 C3718 1.349 . S
C3707 C3705 1.327 . S
C3707 C3723 1.429 . S
C3707 H3729 0.950 . S
C3708 H3704 0.949 . S
C3708 C3716 1.574 . S
C3708 C3724 1.368 . S
H3709 C3717 0.950 . S
H3710 C3715 0.950 . S
H3711 C3716 0.949 . S
H3712 C3718 0.950 . S
H3713 C3719 0.950 . S
H3714 C3720 0.949 . S
C3715 H3710 0.950 . S
C3715 C3717 1.327 . S
C3715 C3721 1.429 . S
C3716 C3708 1.574 . S
C3716 H3711 0.949 . S
C3716 C3722 1.368 . S
C3717 C3701 1.349 . S
C3717 H3709 0.950 . S
C3717 C3715 1.327 . S
C3718 C3706 1.349 . S
C3718 H3712 0.950 . S
C3718 C3719 1.327 . S
C3719 H3713 0.950 . S
C3719 C3718 1.327 . S
C3719 C3723 1.429 . S
C3720 C3703 1.574 . S
C3720 H3714 0.949 . S
C3720 C3724 1.368 . S
C3721 C3702 1.429 . S
C3721 C3715 1.429 . S
C3721 C3722 1.523 . S
C3722 C3703 1.368 . S
C3722 C3716 1.368 . S
C3722 C3721 1.523 . S
C3723 C3707 1.429 . S
C3723 C3719 1.429 . S
C3723 C3724 1.523 . S
C3724 C3708 1.368 . S
C3724 C3720 1.368 . S
C3724 C3723 1.523 . S
H3725 C3700 0.950 . S
H3726 C3702 0.950 . S
H3727 C3703 0.949 . S
H3728 C3705 0.950 . S
H3729 C3707 0.950 . S
C3730 C3731 1.349 . S
C3730 C3732 1.327 . S
C3730 H3755 0.950 . S
C3731 C3730 1.349 . S
C3731 C3747 1.349 . S
C3732 C3730 1.327 . S
C3732 C3751 1.429 . S
C3732 H3756 0.950 . S
C3733 C3750 1.574 . S
C3733 C3752 1.368 . S
C3733 H3757 0.949 . S
H3734 C3738 0.949 . S
C3735 C3736 1.349 . S
C3735 C3737 1.327 . S
C3735 H3758 0.950 . S
C3736 C3735 1.349 . S
C3736 C3748 1.349 . S
C3737 C3735 1.327 . S
C3737 C3753 1.429 . S
C3737 H3759 0.950 . S
C3738 H3734 0.949 . S
C3738 C3746 1.574 . S
C3738 C3754 1.368 . S
H3739 C3747 0.950 . S
H3740 C3745 0.950 . S
H3741 C3746 0.949 . S
H3742 C3748 0.950 . S
H3743 C3749 0.950 . S
H3744 C3750 0.949 . S
C3745 H3740 0.950 . S
C3745 C3747 1.327 . S
C3745 C3751 1.429 . S
C3746 C3738 1.574 . S
C3746 H3741 0.949 . S
C3746 C3752 1.368 . S
C3747 C3731 1.349 . S
C3747 H3739 0.950 . S
C3747 C3745 1.327 . S
C3748 C3736 1.349 . S
C3748 H3742 0.950 . S
C3748 C3749 1.327 . S
C3749 H3743 0.950 . S
C3749 C3748 1.327 . S
C3749 C3753 1.429 . S
C3750 C3733 1.574 . S
C3750 H3744 0.949 . S
C3750 C3754 1.368 . S
C3751 C3732 1.429 . S
C3751 C3745 1.429 . S
C3751 C3752 1.523 . S
C3752 C3733 1.368 . S
C3752 C3746 1.368 . S
C3752 C3751 1.523 . S
C3753 C3737 1.429 . S
C3753 C3749 1.429 . S
C3753 C3754 1.523 . S
C3754 C3738 1.368 . S
C3754 C3750 1.368 . S
C3754 C3753 1.523 . S
H3755 C3730 0.950 . S
H3756 C3732 0.950 . S
H3757 C3733 0.949 . S
H3758 C3735 0.950 . S
H3759 C3737 0.950 . S
C886 C353 1.079 . S
C881 C8 1.076 . S
C911 C22 2.124 . S
C916 C399 2.121 . S
C941 C35 0.615 . S
C946 C408 0.600 . S
C976 C446 1.541 . S
C971 C49 1.523 . S
C1001 C23 1.937 . S
C1006 C480 1.916 . S
C1036 C510 0.523 . S
C1031 C34 0.539 . S
C1066 C569 1.403 . S
C1061 C48 1.371 . S
C1091 C9 1.048 . S
C1096 C582 1.055 . S
C1121 C64 1.351 . S
C1126 C365 1.351 . S
C1151 C77 0.982 . S
C1156 C383 0.995 . S
C1186 C404 1.842 . S
C1181 C92 1.849 . S
C1216 C442 0.731 . S
C1211 C105 0.733 . S
C1241 C63 1.146 . S
C1246 C476 1.153 . S
C1276 C506 1.779 . S
C1271 C78 1.782 . S
C1306 C553 1.157 . S
C1301 C91 1.140 . S
C1336 C578 0.650 . S
C1331 C106 0.649 . S
C1366 C349 0.710 . S
C1361 C107 0.710 . S
C1396 C608 1.431 . S
C1391 C118 1.413 . S
C1421 C135 1.591 . S
C1426 C650 1.608 . S
C1456 C693 0.564 1_655 S
C1451 C146 0.577 . S
C1481 C65 1.350 . S
C1486 C574 1.351 . S
C1516 C412 1.586 1_565 S
C1511 C79 1.574 . S
C1541 C132 1.280 . S
C1546 C710 1.299 . S
C1576 C761 1.415 . S
C1571 C160 1.393 . S
C1601 C177 1.042 . S
C1606 C344 1.028 . S
C1636 C744 1.591 . S
C1631 C188 1.572 . S
C1661 C204 1.008 . S
C1666 C417 1.006 . S
C1691 C219 1.591 . S
C1696 C727 1.578 . S
C1726 C489 1.609 . S
C1721 C190 1.627 . S
C1756 C655 0.598 . S
C1751 C202 0.615 . S
C1786 C540 1.408 . S
C1781 C217 1.383 . S
C1816 C795 0.756 . S
C1811 C175 0.762 . S
C1846 C336 1.225 . S
C1841 C231 1.206 1_545 S
C1871 C246 1.223 . S
C1876 C748 1.216 . S
C1906 C433 1.432 . S
C1901 C259 1.405 . S
C1931 C274 0.723 . S
C1936 C723 0.725 . S
C1961 C232 1.281 . S
C1966 C485 1.272 . S
C1991 C245 1.365 . S
C1996 C671 1.383 . S
C2026 C544 1.108 . S
C2021 C260 1.117 . S
C2051 C273 0.452 . S
C2056 C791 0.412 . S
C2081 C275 0.681 . S
C2086 C340 0.682 . S
C2111 C286 1.440 . S
C2116 C637 1.467 . S
C2141 C303 1.334 . S
C2146 C523 1.322 . S
C2171 C314 0.412 . S
C2176 C684 0.328 . S
C2206 C807 1.307 . S
C2201 C233 1.330 . S
C2236 C421 1.406 . S
C2231 C247 1.414 . S
C2266 C467 1.173 . S
C2261 C300 1.151 . S
C2296 C378 1.414 . S
C2291 C328 1.387 . S
C2321 C36 1.018 . S
C2326 C829 1.018 . S
C2356 C773 2.132 . S
C2351 C50 2.134 . S
C2386 C850 0.644 . S
C2381 C7 0.652 . S
C2411 C21 1.532 . S
C2416 C718 1.551 . S
C2441 C51 1.939 . S
C2446 C616 1.918 . S
C2476 C646 0.563 . S
C2471 C6 0.572 . S
C2506 C705 1.412 . S
C2501 C20 1.380 . S
C2536 C786 0.986 . S
C2531 C37 0.980 . S
C2566 C841 1.261 . S
C2561 C162 1.265 . S
C2591 C119 0.922 1_556 S
C2596 C757 0.972 . S
C2621 C134 1.758 . S
C2626 C846 1.745 . S
C2656 C714 0.719 . S
C2651 C147 0.722 . S
C2686 C612 1.146 . S
C2681 C161 1.139 . S
C2711 C120 1.690 . S
C2716 C642 1.680 . S
C2746 C689 1.132 1_655 S
C2741 C133 1.114 . S
C2771 C148 0.559 . S
C2776 C782 0.564 . S
C2806 C825 0.731 . S
C2801 C149 0.731 . S
C2836 C472 1.349 . S
C2831 C76 1.325 . S
C2866 C514 1.538 . S
C2861 C93 1.529 . S
C2891 C104 0.515 . S
C2896 C557 0.490 . S
C2926 C778 1.453 . S
C2921 C163 1.443 . S
C2951 C121 1.636 . S
C2956 C854 1.673 . S
C2986 C438 1.222 . S
C2981 C90 1.203 . S
C3016 C387 1.340 . S
C3011 C62 1.317 . S
C3041 C203 0.780 . S
C3046 C820 0.785 . S
C3076 C370 1.660 . S
C3071 C216 1.638 . S
C3106 C859 0.718 1_556 S
C3101 C174 0.725 . S
C3131 C191 1.650 . S
C3136 C455 1.635 . S
C3161 C218 1.561 . S
C3166 C625 1.544 . S
C3191 C176 0.867 . S
C3196 C519 0.861 . S
C3221 C189 1.305 . S
C3226 C676 1.325 . S
C3251 C205 0.998 . S
C3256 C591 0.983 . S
C3286 C812 1.193 . S
C3281 C329 1.182 . S
C3311 C288 1.145 . S
C3316 C374 1.133 . S
C3346 C875 1.395 . S
C3341 C301 1.375 . S
C3371 C316 0.637 . S
C3376 C451 0.647 . S
C3401 C330 1.369 . S
C3406 C621 1.362 . S
C3436 C535 1.418 . S
C3431 C287 1.399 . S
C3461 C302 1.194 . S
C3466 C680 1.184 . S
C3496 C587 0.445 . S
C3491 C315 0.497 . S
C3526 C816 0.647 . S
C3521 C317 0.641 . S
C3556 C501 1.453 . S
C3551 C244 1.431 . S
C3581 C261 1.246 . S
C3586 C659 1.229 . S
C3616 C548 0.305 . S
C3611 C272 0.370 . S
C3646 C603 1.406 . S
C3641 C331 1.423 . S
C3671 C289 1.325 . S
C3676 C863 1.299 . S
C3706 C739 1.215 . S
C3701 C258 1.185 . S
C3736 C752 1.435 . S
C3731 C230 1.397 . S
