# Generated by pormake.
# Topology ocu, (6,8)-cn, num edge types: 1
# Building blocks:
#     Node 0, Type 0, BuildingBlock: NUHQIS_clean_sbu_0, # of connection points: 6
#     Node 1, Type 0, BuildingBlock: NUHQIS_clean_sbu_0, # of connection points: 6
#     Node 2, Type 0, BuildingBlock: NUHQIS_clean_sbu_0, # of connection points: 6
#     Node 3, Type 0, BuildingBlock: NUHQIS_clean_sbu_0, # of connection points: 6
#     Node 4, Type 0, BuildingBlock: NUHQIS_clean_sbu_0, # of connection points: 6
#     Node 5, Type 0, BuildingBlock: NUHQIS_clean_sbu_0, # of connection points: 6
#     Node 6, Type 0, BuildingBlock: NUHQIS_clean_sbu_0, # of connection points: 6
#     Node 7, Type 0, BuildingBlock: NUHQIS_clean_sbu_0, # of connection points: 6
#     Node 8, Type 1, BuildingBlock: GIZVER_clean_sbu_0, # of connection points: 8
#     Node 9, Type 1, BuildingBlock: GIZVER_clean_sbu_0, # of connection points: 8
#     Node 10, Type 1, BuildingBlock: GIZVER_clean_sbu_0, # of connection points: 8
#     Node 11, Type 1, BuildingBlock: GIZVER_clean_sbu_0, # of connection points: 8
#     Node 12, Type 1, BuildingBlock: GIZVER_clean_sbu_0, # of connection points: 8
#     Node 13, Type 1, BuildingBlock: GIZVER_clean_sbu_0, # of connection points: 8
#     Edge 14, Type (0, 1), BuildingBlock: ZUJKAS_clean_linker_0, # of connection points: 2
#     Edge 15, Type (0, 1), BuildingBlock: ZUJKAS_clean_linker_0, # of connection points: 2
#     Edge 16, Type (0, 1), BuildingBlock: ZUJKAS_clean_linker_0, # of connection points: 2
#     Edge 17, Type (0, 1), BuildingBlock: ZUJKAS_clean_linker_0, # of connection points: 2
#     Edge 18, Type (0, 1), BuildingBlock: ZUJKAS_clean_linker_0, # of connection points: 2
#     Edge 19, Type (0, 1), BuildingBlock: ZUJKAS_clean_linker_0, # of connection points: 2
#     Edge 20, Type (0, 1), BuildingBlock: ZUJKAS_clean_linker_0, # of connection points: 2
#     Edge 21, Type (0, 1), BuildingBlock: ZUJKAS_clean_linker_0, # of connection points: 2
#     Edge 22, Type (0, 1), BuildingBlock: ZUJKAS_clean_linker_0, # of connection points: 2
#     Edge 23, Type (0, 1), BuildingBlock: ZUJKAS_clean_linker_0, # of connection points: 2
#     Edge 24, Type (0, 1), BuildingBlock: ZUJKAS_clean_linker_0, # of connection points: 2
#     Edge 25, Type (0, 1), BuildingBlock: ZUJKAS_clean_linker_0, # of connection points: 2
#     Edge 26, Type (0, 1), BuildingBlock: ZUJKAS_clean_linker_0, # of connection points: 2
#     Edge 27, Type (0, 1), BuildingBlock: ZUJKAS_clean_linker_0, # of connection points: 2
#     Edge 28, Type (0, 1), BuildingBlock: ZUJKAS_clean_linker_0, # of connection points: 2
#     Edge 29, Type (0, 1), BuildingBlock: ZUJKAS_clean_linker_0, # of connection points: 2
#     Edge 30, Type (0, 1), BuildingBlock: ZUJKAS_clean_linker_0, # of connection points: 2
#     Edge 31, Type (0, 1), BuildingBlock: ZUJKAS_clean_linker_0, # of connection points: 2
#     Edge 32, Type (0, 1), BuildingBlock: ZUJKAS_clean_linker_0, # of connection points: 2
#     Edge 33, Type (0, 1), BuildingBlock: ZUJKAS_clean_linker_0, # of connection points: 2
#     Edge 34, Type (0, 1), BuildingBlock: ZUJKAS_clean_linker_0, # of connection points: 2
#     Edge 35, Type (0, 1), BuildingBlock: ZUJKAS_clean_linker_0, # of connection points: 2
#     Edge 36, Type (0, 1), BuildingBlock: ZUJKAS_clean_linker_0, # of connection points: 2
#     Edge 37, Type (0, 1), BuildingBlock: ZUJKAS_clean_linker_0, # of connection points: 2
#     Edge 38, Type (0, 1), BuildingBlock: ZUJKAS_clean_linker_0, # of connection points: 2
#     Edge 39, Type (0, 1), BuildingBlock: ZUJKAS_clean_linker_0, # of connection points: 2
#     Edge 40, Type (0, 1), BuildingBlock: ZUJKAS_clean_linker_0, # of connection points: 2
#     Edge 41, Type (0, 1), BuildingBlock: ZUJKAS_clean_linker_0, # of connection points: 2
#     Edge 42, Type (0, 1), BuildingBlock: ZUJKAS_clean_linker_0, # of connection points: 2
#     Edge 43, Type (0, 1), BuildingBlock: ZUJKAS_clean_linker_0, # of connection points: 2
#     Edge 44, Type (0, 1), BuildingBlock: ZUJKAS_clean_linker_0, # of connection points: 2
#     Edge 45, Type (0, 1), BuildingBlock: ZUJKAS_clean_linker_0, # of connection points: 2
#     Edge 46, Type (0, 1), BuildingBlock: ZUJKAS_clean_linker_0, # of connection points: 2
#     Edge 47, Type (0, 1), BuildingBlock: ZUJKAS_clean_linker_0, # of connection points: 2
#     Edge 48, Type (0, 1), BuildingBlock: ZUJKAS_clean_linker_0, # of connection points: 2
#     Edge 49, Type (0, 1), BuildingBlock: ZUJKAS_clean_linker_0, # of connection points: 2
#     Edge 50, Type (0, 1), BuildingBlock: ZUJKAS_clean_linker_0, # of connection points: 2
#     Edge 51, Type (0, 1), BuildingBlock: ZUJKAS_clean_linker_0, # of connection points: 2
#     Edge 52, Type (0, 1), BuildingBlock: ZUJKAS_clean_linker_0, # of connection points: 2
#     Edge 53, Type (0, 1), BuildingBlock: ZUJKAS_clean_linker_0, # of connection points: 2
#     Edge 54, Type (0, 1), BuildingBlock: ZUJKAS_clean_linker_0, # of connection points: 2
#     Edge 55, Type (0, 1), BuildingBlock: ZUJKAS_clean_linker_0, # of connection points: 2
#     Edge 56, Type (0, 1), BuildingBlock: ZUJKAS_clean_linker_0, # of connection points: 2
#     Edge 57, Type (0, 1), BuildingBlock: ZUJKAS_clean_linker_0, # of connection points: 2
#     Edge 58, Type (0, 1), BuildingBlock: ZUJKAS_clean_linker_0, # of connection points: 2
#     Edge 59, Type (0, 1), BuildingBlock: ZUJKAS_clean_linker_0, # of connection points: 2
#     Edge 60, Type (0, 1), BuildingBlock: ZUJKAS_clean_linker_0, # of connection points: 2
#     Edge 61, Type (0, 1), BuildingBlock: ZUJKAS_clean_linker_0, # of connection points: 2
# Relax obj value: 0.202
# Max RMSD: 0.278
# Mean RMSD: 0.185
data_MOF--net-ocu--node1-NUHQIS_clean_sbu_0--node2-GIZVER_clean_sbu_0--edge1-ZUJKAS_clean_linker_0
_symmetry_space_group_name_H-M    P1
_symmetry_Int_Tables_number       1
_symmetry_cell_setting            triclinic
loop_
_symmetry_equiv_pos_as_xyz
'x, y, z'
_cell_length_a     53.907772
_cell_length_b     58.231032
_cell_length_c     42.7728
_cell_angle_alpha  95.340403
_cell_angle_beta   87.138324
_cell_angle_gamma 108.80356
loop_
_atom_site_label
_atom_site_type_symbol
_atom_site_fract_x
_atom_site_fract_y
_atom_site_fract_z
_atom_type_partial_charge
Tb0 Tb 0.26943 0.26993 0.25125 0.0
Eu1 Eu 0.30707 0.2884 0.30886 0.0
C2 C 0.31978 0.24697 0.25499 0.0
C3 C 0.25786 0.2386 0.31139 0.0
C4 C 0.23573 0.2672 0.17669 0.0
C5 C 0.20541 0.26811 0.13718 0.0
C6 C 0.21164 0.25693 0.16183 0.0
C7 C 0.25372 0.28863 0.16641 0.0
C8 C 0.2476 0.29973 0.14169 0.0
C9 C 0.22327 0.28973 0.12697 0.0
C10 C 0.24211 0.2553 0.20253 0.0
O11 O 0.2495 0.29593 0.27792 0.0
O12 O 0.27802 0.31178 0.31792 0.0
O13 O 0.32775 0.31257 0.2711 0.0
O14 O 0.29375 0.30571 0.23808 0.0
C15 C 0.25623 0.31133 0.30387 0.0
O16 O 0.31185 0.30263 0.35784 0.0
O17 O 0.34579 0.30109 0.3298 0.0
O18 O 0.32439 0.25854 0.28371 0.0
O19 O 0.30043 0.25041 0.2392 0.0
O20 O 0.25107 0.242 0.28354 0.0
O21 O 0.27888 0.25353 0.32511 0.0
C22 C 0.31772 0.31794 0.24663 0.0
O23 O 0.26658 0.25668 0.20395 0.0
O24 O 0.23245 0.2595 0.23015 0.0
C25 C 0.34554 0.29545 0.38344 0.0
C26 C 0.36275 0.27586 0.43246 0.0
C27 C 0.37219 0.30104 0.42928 0.0
C28 C 0.36357 0.31077 0.4049 0.0
C29 C 0.33575 0.27042 0.38676 0.0
C30 C 0.34428 0.26069 0.41109 0.0
C31 C 0.33683 0.30562 0.35773 0.0
H32 H 0.18634 0.26018 0.1267 0.0
H33 H 0.19755 0.24039 0.16948 0.0
H34 H 0.27252 0.29679 0.17745 0.0
H35 H 0.2619 0.3162 0.13419 0.0
H36 H 0.38638 0.31312 0.44543 0.0
H37 H 0.37114 0.33019 0.40263 0.0
H38 H 0.32179 0.25838 0.3703 0.0
H39 H 0.33706 0.24116 0.41247 0.0
Tb40 Tb 0.81787 0.25966 0.2798 0.0
Eu41 Eu 0.77793 0.29105 0.27997 0.0
C42 C 0.78065 0.25299 0.22236 0.0
C43 C 0.83392 0.30718 0.24314 0.0
C44 C 0.85939 0.22825 0.31014 0.0
C45 C 0.89128 0.21327 0.33175 0.0
C46 C 0.88147 0.22058 0.30619 0.0
C47 C 0.84733 0.2289 0.33991 0.0
C48 C 0.85702 0.22146 0.36545 0.0
C49 C 0.87906 0.21354 0.36157 0.0
C50 C 0.84939 0.23617 0.28339 0.0
O51 O 0.83087 0.28974 0.31559 0.0
O52 O 0.79112 0.29349 0.32933 0.0
O53 O 0.75365 0.25459 0.29576 0.0
O54 O 0.78679 0.24352 0.31452 0.0
C55 C 0.81557 0.29725 0.33584 0.0
O56 O 0.77055 0.3252 0.29421 0.0
O57 O 0.7401 0.29489 0.27155 0.0
O58 O 0.7764 0.27367 0.23074 0.0
O59 O 0.79263 0.24308 0.24048 0.0
O60 O 0.83399 0.28456 0.24294 0.0
O61 O 0.81671 0.31465 0.26047 0.0
C62 C 0.76161 0.24103 0.31315 0.0
O63 O 0.82443 0.22599 0.27841 0.0
O64 O 0.85666 0.25962 0.28183 0.0
C65 C 0.74167 0.33433 0.26207 0.0
C66 C 0.72831 0.36488 0.22381 0.0
C67 C 0.72218 0.3656 0.25615 0.0
C68 C 0.72882 0.35041 0.27513 0.0
C69 C 0.74858 0.33397 0.23001 0.0
C70 C 0.74181 0.34911 0.21091 0.0
C71 C 0.74729 0.31778 0.28211 0.0
H72 H 0.90806 0.20689 0.32804 0.0
H73 H 0.89102 0.22012 0.28335 0.0
H74 H 0.83039 0.2351 0.34333 0.0
H75 H 0.84735 0.22194 0.38821 0.0
H76 H 0.71139 0.37728 0.26662 0.0
H77 H 0.72345 0.35086 0.29988 0.0
H78 H 0.75876 0.32171 0.21972 0.0
H79 H 0.74686 0.34832 0.18609 0.0
Tb80 Tb 0.76723 0.77207 0.29966 0.0
Eu81 Eu 0.81086 0.78384 0.24445 0.0
C82 C 0.75988 0.73631 0.23916 0.0
C83 C 0.81544 0.74832 0.30045 0.0
C84 C 0.72193 0.78108 0.36326 0.0
C85 C 0.68595 0.78778 0.39495 0.0
C86 C 0.69697 0.77201 0.37711 0.0
C87 C 0.73598 0.80597 0.36787 0.0
C88 C 0.7251 0.82167 0.38579 0.0
C89 C 0.6998 0.81284 0.39915 0.0
C90 C 0.73308 0.76475 0.34348 0.0
O91 O 0.79191 0.80858 0.31492 0.0
O92 O 0.82761 0.81347 0.28166 0.0
O93 O 0.78687 0.80972 0.23612 0.0
O94 O 0.75091 0.79229 0.26685 0.0
C95 C 0.81602 0.82046 0.30653 0.0
O96 O 0.85162 0.79273 0.22808 0.0
O97 O 0.82108 0.78755 0.19478 0.0
O98 O 0.77724 0.75319 0.22442 0.0
O99 O 0.75687 0.73833 0.26972 0.0
O100 O 0.796 0.75459 0.31552 0.0
O101 O 0.82216 0.75539 0.2716 0.0
C102 C 0.76225 0.80762 0.24492 0.0
O103 O 0.72745 0.76196 0.31383 0.0
O104 O 0.75786 0.76831 0.34742 0.0
C105 C 0.85516 0.77161 0.17983 0.0
C106 C 0.87553 0.73578 0.15153 0.0
C107 C 0.8916 0.76021 0.15581 0.0
C108 C 0.88147 0.778 0.1699 0.0
C109 C 0.83887 0.74738 0.17474 0.0
C110 C 0.84894 0.72964 0.16055 0.0
C111 C 0.84551 0.78947 0.19857 0.0
H112 H 0.66629 0.78049 0.4046 0.0
H113 H 0.68586 0.75284 0.37369 0.0
H114 H 0.7553 0.81334 0.35738 0.0
H115 H 0.73641 0.84081 0.38894 0.0
H116 H 0.91212 0.76547 0.14878 0.0
H117 H 0.89434 0.79657 0.17392 0.0
H118 H 0.81857 0.74199 0.18273 0.0
H119 H 0.83618 0.71094 0.15794 0.0
Tb120 Tb 0.30206 0.76834 0.29005 0.0
Eu121 Eu 0.26597 0.79855 0.26616 0.0
C122 C 0.30636 0.81944 0.32301 0.0
C123 C 0.24507 0.76177 0.32106 0.0
C124 C 0.34335 0.73135 0.27528 0.0
C125 C 0.35416 0.69568 0.25366 0.0
C126 C 0.34696 0.70906 0.27936 0.0
C127 C 0.34795 0.74056 0.24558 0.0
C128 C 0.35497 0.72722 0.22001 0.0
C129 C 0.35745 0.70437 0.2236 0.0
C130 C 0.33028 0.74291 0.29974 0.0
O131 O 0.28525 0.75098 0.24474 0.0
O132 O 0.24693 0.75914 0.25161 0.0
O133 O 0.2992 0.80269 0.23116 0.0
O134 O 0.32841 0.79696 0.26388 0.0
C135 C 0.26019 0.74531 0.23897 0.0
O136 O 0.24509 0.80483 0.22711 0.0
O137 O 0.24791 0.82713 0.27126 0.0
O138 O 0.29696 0.82449 0.29763 0.0
O139 O 0.30455 0.79692 0.32772 0.0
O140 O 0.26592 0.75468 0.317 0.0
O141 O 0.24199 0.77955 0.30643 0.0
C142 C 0.32331 0.80565 0.23868 0.0
O143 O 0.33865 0.76664 0.30252 0.0
O144 O 0.30482 0.73441 0.29892 0.0
C145 C 0.20867 0.81658 0.24417 0.0
C146 C 0.15648 0.81551 0.25393 0.0
C147 C 0.17175 0.82791 0.22924 0.0
C148 C 0.19786 0.8287 0.22468 0.0
C149 C 0.19263 0.80164 0.26595 0.0
C150 C 0.16677 0.80116 0.27091 0.0
C151 C 0.23695 0.821 0.24381 0.0
H152 H 0.35588 0.67804 0.25696 0.0
H153 H 0.34301 0.7015 0.30198 0.0
H154 H 0.34486 0.75756 0.24178 0.0
H155 H 0.35779 0.7345 0.19721 0.0
H156 H 0.16423 0.83857 0.2151 0.0
H157 H 0.20995 0.83986 0.20722 0.0
H158 H 0.20064 0.79175 0.28074 0.0
H159 H 0.1559 0.79139 0.29019 0.0
Tb160 Tb 0.32009 0.75674 0.762 0.0
Eu161 Eu 0.27855 0.78478 0.78342 0.0
C162 C 0.26598 0.74168 0.7259 0.0
C163 C 0.32377 0.80567 0.73469 0.0
C164 C 0.37995 0.73952 0.75916 0.0
C165 C 0.41296 0.72097 0.76782 0.0
C166 C 0.39263 0.72239 0.74992 0.0
C167 C 0.38946 0.75679 0.78453 0.0
C168 C 0.40935 0.75503 0.80287 0.0
C169 C 0.42035 0.73638 0.7954 0.0
C170 C 0.35392 0.73594 0.74721 0.0
O171 O 0.33588 0.77715 0.80693 0.0
O172 O 0.31535 0.80623 0.81036 0.0
O173 O 0.27645 0.75859 0.81984 0.0
O174 O 0.28721 0.73124 0.78519 0.0
C175 C 0.33426 0.79846 0.8188 0.0
O176 O 0.26768 0.81796 0.78956 0.0
O177 O 0.24032 0.78396 0.80338 0.0
O178 O 0.25659 0.75359 0.74868 0.0
O179 O 0.2913 0.74425 0.72396 0.0
O180 O 0.3365 0.79374 0.74828 0.0
O181 O 0.29832 0.80006 0.73864 0.0
C182 C 0.27578 0.73618 0.81152 0.0
O183 O 0.33509 0.72858 0.76787 0.0
O184 O 0.35111 0.75328 0.73195 0.0
C185 C 0.22316 0.81075 0.78021 0.0
C186 C 0.18802 0.82101 0.74132 0.0
C187 C 0.20339 0.83918 0.76285 0.0
C188 C 0.22071 0.83405 0.78217 0.0
C189 C 0.20746 0.79237 0.7593 0.0
C190 C 0.18993 0.79742 0.74018 0.0
C191 C 0.24363 0.80647 0.79808 0.0
H192 H 0.42102 0.70627 0.76192 0.0
H193 H 0.38541 0.70886 0.73052 0.0
H194 H 0.37999 0.77026 0.79174 0.0
H195 H 0.41472 0.76699 0.82413 0.0
H196 H 0.20284 0.85766 0.76399 0.0
H197 H 0.23285 0.8485 0.79793 0.0
H198 H 0.20913 0.77424 0.75716 0.0
H199 H 0.17817 0.78293 0.7242 0.0
Tb200 Tb 0.29491 0.29161 0.74252 0.0
Eu201 Eu 0.29837 0.26073 0.80454 0.0
C202 C 0.34403 0.30659 0.78614 0.0
C203 C 0.32093 0.24918 0.73496 0.0
C204 C 0.26985 0.32628 0.68684 0.0
C205 C 0.25424 0.36088 0.68176 0.0
C206 C 0.2715 0.35076 0.69455 0.0
C207 C 0.2502 0.31216 0.66603 0.0
C208 C 0.2329 0.32229 0.65321 0.0
C209 C 0.23479 0.34693 0.66059 0.0
C210 C 0.28988 0.31643 0.69861 0.0
O211 O 0.26221 0.25802 0.73904 0.0
O212 O 0.2565 0.24606 0.78967 0.0
O213 O 0.28483 0.29282 0.82278 0.0
O214 O 0.26682 0.2984 0.77767 0.0
C215 C 0.2482 0.24488 0.76103 0.0
O216 O 0.29074 0.2272 0.82814 0.0
O217 O 0.31256 0.26185 0.85183 0.0
O218 O 0.33869 0.28376 0.79148 0.0
O219 O 0.32707 0.314 0.77228 0.0
O220 O 0.32175 0.27081 0.72663 0.0
O221 O 0.30876 0.24049 0.76093 0.0
C222 C 0.26979 0.3022 0.80828 0.0
O223 O 0.30025 0.32578 0.72564 0.0
O224 O 0.28554 0.29298 0.69545 0.0
C225 C 0.32088 0.22664 0.86693 0.0
C226 C 0.35315 0.20511 0.89631 0.0
C227 C 0.32731 0.20222 0.90722 0.0
C228 C 0.31144 0.21283 0.89272 0.0
C229 C 0.34652 0.22946 0.85559 0.0
C230 C 0.36247 0.21875 0.87008 0.0
C231 C 0.30369 0.23828 0.85315 0.0
H232 H 0.25622 0.37975 0.68856 0.0
H233 H 0.28646 0.36232 0.71022 0.0
H234 H 0.24845 0.29334 0.65914 0.0
H235 H 0.21849 0.31093 0.63677 0.0
H236 H 0.31918 0.19154 0.9269 0.0
H237 H 0.29171 0.21035 0.90184 0.0
H238 H 0.35426 0.2401 0.83575 0.0
H239 H 0.38228 0.22155 0.8611 0.0
Tb240 Tb 0.80953 0.26847 0.77497 0.0
Eu241 Eu 0.76719 0.29644 0.78638 0.0
C242 C 0.81594 0.30859 0.82891 0.0
C243 C 0.75923 0.24568 0.81904 0.0
C244 C 0.8703 0.25535 0.75144 0.0
C245 C 0.90876 0.24447 0.73486 0.0
C246 C 0.88663 0.24134 0.75434 0.0
C247 C 0.87764 0.27418 0.73119 0.0
C248 C 0.89959 0.27713 0.71137 0.0
C249 C 0.91455 0.26145 0.71197 0.0
C250 C 0.84411 0.24801 0.76596 0.0
O251 O 0.77514 0.24747 0.74856 0.0
O252 O 0.76055 0.27833 0.73762 0.0
O253 O 0.80038 0.32245 0.75875 0.0
O254 O 0.8225 0.29616 0.73994 0.0
C255 C 0.76176 0.25633 0.73102 0.0
O256 O 0.72654 0.2961 0.78993 0.0
O257 O 0.75812 0.32998 0.79878 0.0
O258 O 0.7905 0.30323 0.83034 0.0
O259 O 0.8273 0.3017 0.80379 0.0
O260 O 0.78449 0.24908 0.81345 0.0
O261 O 0.74789 0.25977 0.80706 0.0
C262 C 0.81874 0.31758 0.74023 0.0
O263 O 0.8411 0.26001 0.79236 0.0
O264 O 0.8251 0.24503 0.74674 0.0
C265 C 0.72242 0.32226 0.83338 0.0
C266 C 0.70932 0.33478 0.89543 0.0
C267 C 0.70048 0.34374 0.87016 0.0
C268 C 0.70715 0.33762 0.83926 0.0
C269 C 0.73009 0.31228 0.85845 0.0
C270 C 0.72373 0.31862 0.8893 0.0
C271 C 0.73308 0.31862 0.80192 0.0
H272 H 0.91974 0.23189 0.73561 0.0
H273 H 0.88125 0.22682 0.76998 0.0
H274 H 0.86534 0.28536 0.72902 0.0
H275 H 0.90367 0.29033 0.69397 0.0
H276 H 0.68958 0.35648 0.87437 0.0
H277 H 0.7013 0.34559 0.82015 0.0
H278 H 0.74191 0.30034 0.85421 0.0
H279 H 0.73065 0.31145 0.90838 0.0
Tb280 Tb 0.7746 0.77379 0.74572 0.0
Eu281 Eu 0.81232 0.77426 0.80351 0.0
C282 C 0.81601 0.74311 0.73484 0.0
C283 C 0.75668 0.73417 0.79459 0.0
C284 C 0.72755 0.78867 0.69306 0.0
C285 C 0.70273 0.79819 0.65279 0.0
C286 C 0.71874 0.78538 0.66214 0.0
C287 C 0.71925 0.80442 0.71488 0.0
C288 C 0.70304 0.81718 0.70558 0.0
C289 C 0.69505 0.81466 0.67418 0.0
C290 C 0.74814 0.77826 0.70039 0.0
O291 O 0.76632 0.80117 0.78161 0.0
O292 O 0.78332 0.7934 0.82625 0.0
O293 O 0.82775 0.8111 0.78401 0.0
O294 O 0.81501 0.79506 0.73492 0.0
C295 C 0.76877 0.80411 0.81266 0.0
O296 O 0.81743 0.7654 0.85097 0.0
O297 O 0.85146 0.78228 0.82219 0.0
O298 O 0.82763 0.75476 0.76103 0.0
O299 O 0.79336 0.74561 0.727 0.0
O300 O 0.74953 0.7494 0.77905 0.0
O301 O 0.78151 0.7375 0.79886 0.0
C302 C 0.82975 0.81271 0.75363 0.0
O303 O 0.77019 0.79405 0.70973 0.0
O304 O 0.74177 0.75899 0.71622 0.0
C305 C 0.85601 0.75525 0.8583 0.0
C306 C 0.88225 0.72406 0.87827 0.0
C307 C 0.87777 0.74264 0.89904 0.0
C308 C 0.86483 0.75801 0.88915 0.0
C309 C 0.86016 0.73664 0.83746 0.0
C310 C 0.87313 0.72123 0.84733 0.0
C311 C 0.84295 0.77216 0.84833 0.0
H312 H 0.69669 0.79544 0.62859 0.0
H313 H 0.72506 0.77352 0.64479 0.0
H314 H 0.72607 0.80753 0.73879 0.0
H315 H 0.69769 0.82978 0.72269 0.0
H316 H 0.88401 0.74521 0.92314 0.0
H317 H 0.86176 0.77216 0.90569 0.0
H318 H 0.85355 0.73414 0.8135 0.0
H319 H 0.8764 0.70736 0.8305 0.0
Co320 Co 0.06374 0.96897 0.51633 0.0
Co321 Co 0.07731 0.99417 0.56984 0.0
Co322 Co 0.0476 0.01988 0.53303 0.0
O323 O 0.07411 1.00295 0.53026 0.0
H324 H 0.0908 0.01241 0.52178 0.0
O325 O 1.02014 0.0357 0.53561 0.0
Co326 Co 0.02699 0.06776 0.55432 0.0
Co327 Co 1.01789 0.04731 0.49777 0.0
H328 H 1.00318 0.02488 0.54175 0.0
O329 O 0.10603 0.98652 0.58016 0.0
O330 O 0.06842 0.96097 0.55939 0.0
O331 O 0.05263 0.99805 0.60219 0.0
O332 O 0.02481 0.99898 0.5663 0.0
O333 O 0.06777 0.04325 0.56652 0.0
O334 O 0.03098 0.0967 0.57275 0.0
O335 O 0.99367 0.06496 0.56663 0.0
O336 O 0.06301 0.07443 0.5452 0.0
O337 O 0.07095 0.04148 0.50038 0.0
O338 O 0.04525 0.04942 0.46676 0.0
O339 O 1.02049 0.0786 0.51332 0.0
O340 O 0.98691 0.05028 0.48761 0.0
C341 C 0.08217 0.94591 0.49653 0.0
C342 C 1.017 0.97435 0.50469 0.0
C343 C 0.02939 0.99438 0.59377 0.0
C344 C 0.09097 0.96455 0.57219 0.0
C345 C 1.00585 0.08738 0.57714 0.0
C346 C 0.07437 0.06611 0.56465 0.0
C347 C 0.06779 0.05012 0.47484 0.0
C348 C 0.99742 0.07219 0.50061 0.0
O349 O 0.05717 0.93843 0.50266 0.0
O350 O 0.09621 0.96837 0.50465 0.0
O351 O 0.02723 0.99666 0.49973 0.0
O352 O 0.02758 0.96498 0.52383 0.0
Co353 Co 0.59327 0.96827 0.03092 0.0
Co354 Co 0.59652 0.98417 0.08831 0.0
Co355 Co 0.56083 0.01776 0.05678 0.0
O356 O 0.5929 1.00195 0.05342 0.0
H357 H 0.60937 0.0144 0.04956 0.0
O358 O 0.52779 0.03252 0.06313 0.0
Co359 Co 0.52194 0.0654 0.08799 0.0
Co360 Co 0.52666 0.05045 0.02938 0.0
H361 H 0.51155 0.0192 0.06401 0.0
O362 O 0.62828 0.98149 0.10398 0.0
O363 O 0.60028 0.95315 0.07243 0.0
O364 O 0.56575 0.97824 0.11507 0.0
O365 O 0.54211 0.9972 0.09183 0.0
O366 O 0.5797 0.04589 0.0869 0.0
O367 O 0.51599 0.0952 0.10996 0.0
O368 O 0.48321 0.06321 0.09704 0.0
O369 O 0.5602 0.07548 0.08584 0.0
O370 O 0.58144 0.03964 0.02092 0.0
O371 O 0.55747 0.06062 1.00366 0.0
O372 O 0.51976 0.07825 0.04729 0.0
O373 O 0.49514 0.04872 0.01319 0.0
C374 C 0.62044 0.95075 1.00492 0.0
C375 C 0.53876 0.96645 0.02299 0.0
C376 C 0.54484 0.98355 0.11245 0.0
C377 C 0.62059 0.95913 0.09173 0.0
C378 C 0.49056 0.08583 0.11002 0.0
C379 C 0.58056 0.06837 0.08676 0.0
C380 C 0.57868 0.05564 1.00322 0.0
C381 C 0.49994 0.07012 0.02822 0.0
O382 O 0.59535 0.93998 0.00825 0.0
O383 O 0.62944 0.97309 0.01841 0.0
O384 O 0.54089 0.98945 0.02575 0.0
O385 O 0.55481 0.95799 0.03612 0.0
Co386 Co 0.09002 0.46212 0.98162 0.0
Co387 Co 0.0937 0.47566 0.04211 0.0
Co388 Co 0.06319 0.50687 0.01016 0.0
O389 O 0.09232 0.49224 0.00738 0.0
H390 H 0.10913 0.50448 1.00444 0.0
O391 O 0.03393 0.52089 0.01161 0.0
Co392 Co 0.03638 0.55182 0.03198 0.0
Co393 Co 0.03207 0.53408 0.97451 0.0
H394 H 1.01731 0.50888 0.01608 0.0
O395 O 0.12411 0.46917 0.05201 0.0
O396 O 0.09223 0.44652 0.01975 0.0
O397 O 0.06389 0.46903 0.07008 0.0
O398 O 0.03969 0.48321 0.04097 0.0
O399 O 0.0813 0.53047 0.04553 0.0
O400 O 0.03565 0.57935 0.05228 0.0
O401 O 1.00182 0.54545 0.03984 0.0
O402 O 0.0736 0.56208 0.02769 0.0
O403 O 0.08628 0.53052 0.98018 0.0
O404 O 0.06118 0.53824 0.94547 0.0
O405 O 0.03221 0.56489 0.99092 0.0
O406 O 1.00121 0.53676 0.9617 0.0
C407 C 0.11661 0.44688 0.95835 0.0
C408 C 0.0374 0.46157 0.97685 0.0
C409 C 0.042 0.47112 0.0638 0.0
C410 C 0.11393 0.4495 0.03389 0.0
C411 C 1.01063 0.56765 0.05285 0.0
C412 C 0.08703 0.5535 0.04433 0.0
C413 C 0.08357 0.53958 0.95488 0.0
C414 C 1.01073 0.55881 0.97462 0.0
O415 O 0.09146 0.43566 0.95776 0.0
O416 O 0.12519 0.46842 0.97357 0.0
O417 O 0.04528 0.48437 0.97463 0.0
O418 O 0.05279 0.45105 0.98588 0.0
Co419 Co 0.56827 0.48718 0.03121 0.0
Co420 Co 0.55807 0.51387 0.08029 0.0
Co421 Co 0.53659 0.5279 0.02324 0.0
O422 O 0.56588 0.5191 0.03818 0.0
H423 H 0.58253 0.5317 0.03599 0.0
O424 O 0.50768 0.53744 0.00861 0.0
Co425 Co 0.50753 0.57028 0.01681 0.0
Co426 Co 0.51407 0.54274 0.96608 0.0
H427 H 0.49073 0.52544 0.01174 0.0
O428 O 0.58341 0.51528 0.10751 0.0
O429 O 0.55971 0.48251 0.07685 0.0
O430 O 0.52425 0.5131 0.0977 0.0
O431 O 0.50865 0.50447 0.04978 0.0
O432 O 0.543 0.55366 0.05809 0.0
O433 O 0.5032 0.59919 0.02334 0.0
O434 O 0.47336 0.56299 0.00892 0.0
O435 O 0.54372 0.58269 0.02843 0.0
O436 O 0.56415 0.55104 0.99589 0.0
O437 O 0.54726 0.54137 0.94841 0.0
O438 O 0.51728 0.57554 0.97244 0.0
O439 O 0.48955 0.54761 0.93998 0.0
C440 C 0.59755 0.47236 0.03259 0.0
C441 C 0.52438 0.47952 0.99442 0.0
C442 C 0.50525 0.50336 0.07953 0.0
C443 C 0.5766 0.49209 0.09917 0.0
C444 C 0.47912 0.58624 0.01697 0.0
C445 C 0.55191 0.57575 0.05213 0.0
C446 C 0.56675 0.55135 0.96591 0.0
C447 C 0.50005 0.57014 0.9506 0.0
O448 O 0.57381 0.45895 0.02548 0.0
O449 O 0.60278 0.49575 0.03927 0.0
O450 O 0.5302 0.50175 0.98893 0.0
O451 O 0.53224 0.47364 0.01927 0.0
Co452 Co 0.07177 0.50501 0.50608 0.0
Co453 Co 0.06183 0.50326 0.45008 0.0
Co454 Co 1.02232 0.53569 0.49466 0.0
O455 O 0.03852 0.50577 0.48615 0.0
H456 H 0.02475 0.49038 0.48767 0.0
O457 O 1.00634 0.5662 0.5003 0.0
Co458 Co 0.97261 0.57 0.47921 0.0
Co459 Co 0.98229 0.56537 0.53473 0.0
H460 H 1.02039 0.58154 0.50159 0.0
O461 O 0.06638 0.47349 0.42696 0.0
O462 O 0.09259 0.49595 0.46423 0.0
O463 O 0.07074 0.53465 0.43168 0.0
O464 O 0.04449 0.55344 0.4591 0.0
O465 O 0.99219 0.51915 0.46629 0.0
O466 O 0.94388 0.57441 0.45833 0.0
O467 O 0.97943 0.60466 0.47117 0.0
O468 O 0.95936 0.53484 0.48074 0.0
O469 O 0.99948 0.51611 0.53095 0.0
O470 O 0.9711 0.5341 0.55344 0.0
O471 O 0.95434 0.57626 0.52224 0.0
O472 O 0.98309 0.59355 0.56065 0.0
C473 C 0.0852 0.48 0.52639 0.0
C474 C 0.07748 0.55564 0.52161 0.0
C475 C 0.06212 0.55276 0.43779 0.0
C476 C 0.08794 0.47735 0.44189 0.0
C477 C 0.95624 0.59762 0.45788 0.0
C478 C 0.96798 0.51671 0.47328 0.0
C479 C 0.97999 0.51615 0.55025 0.0
C480 C 0.9616 0.59227 0.54701 0.0
O481 O 0.09867 0.50296 0.52679 0.0
O482 O 0.06212 0.47245 0.51334 0.0
O483 O 0.0528 0.55361 0.52398 0.0
O484 O 0.08577 0.54019 0.50418 0.0
Co485 Co 0.5642 1.01032 0.5511 0.0
Co486 Co 0.55011 1.01088 0.49398 0.0
Co487 Co 0.52277 0.04305 0.54008 0.0
O488 O 0.53363 0.01325 0.5321 0.0
H489 H 0.51883 0.99861 0.53364 0.0
O490 O 0.51115 0.07219 0.54989 0.0
Co491 Co 0.47979 0.0749 0.53375 0.0
Co492 Co 0.49492 0.07325 0.58944 0.0
H493 H 0.52572 0.08697 0.54824 0.0
O494 O 0.54815 0.98056 0.47523 0.0
O495 O 0.57858 1.00463 0.50881 0.0
O496 O 0.56225 0.03967 0.47243 0.0
O497 O 0.54957 0.06396 0.50885 0.0
O498 O 0.49638 0.02988 0.50645 0.0
O499 O 0.45268 0.08076 0.51856 0.0
O500 O 0.49172 0.10738 0.53345 0.0
O501 O 0.46342 0.03998 0.53049 0.0
O502 O 0.49661 0.02223 0.57026 0.0
O503 O 0.48459 0.04374 0.6106 0.0
O504 O 0.46469 0.07866 0.57747 0.0
O505 O 0.49531 0.10269 0.61057 0.0
C506 C 0.57519 0.9824 0.56724 0.0
C507 C 0.57336 0.0601 0.5672 0.0
C508 C 0.56242 0.06073 0.48338 0.0
C509 C 0.56934 0.98454 0.49098 0.0
C510 C 0.46821 0.10308 0.52302 0.0
C511 C 0.47183 0.0258 0.51134 0.0
C512 C 0.48461 0.02355 0.59663 0.0
C513 C 0.47281 0.09793 0.59739 0.0
O514 O 0.59087 1.00475 0.56862 0.0
O515 O 0.55197 0.97747 0.5553 0.0
O516 O 0.54909 0.05622 0.57349 0.0
O517 O 0.58115 0.04436 0.55051 0.0
H518 H 0.26556 0.22383 0.36857 0.0
H519 H 0.23687 0.18966 0.39609 0.0
H520 H 0.18228 0.17163 0.32039 0.0
H521 H 0.21096 0.20532 0.2925 0.0
H522 H 0.18713 0.18072 0.41843 0.0
H523 H 0.18913 0.10589 0.32974 0.0
H524 H 0.21173 0.13635 0.32821 0.0
H525 H 0.17908 0.12873 0.31355 0.0
C526 C 0.24756 0.21248 0.35758 0.0
C527 C 0.24079 0.21739 0.32807 0.0
C528 C 0.23111 0.1929 0.37344 0.0
C529 C 0.20751 0.17761 0.36019 0.0
C530 C 0.20064 0.1826 0.33087 0.0
H531 H 0.06869 0.06452 0.41553 0.0
H532 H 0.10426 0.09429 0.38912 0.0
C533 C 0.21708 0.20209 0.31497 0.0
C534 C 0.18958 0.15708 0.37745 0.0
H535 H 0.15542 0.09608 0.36954 0.0
C536 C 0.18048 0.16217 0.40786 0.0
C537 C 0.18081 0.13273 0.36386 0.0
C538 C 0.1909 0.12552 0.33218 0.0
C539 C 0.16221 0.14395 0.4244 0.0
C540 C 0.15293 0.11975 0.41045 0.0
C541 C 0.16243 0.11456 0.38032 0.0
C542 C 0.13221 0.09998 0.42591 0.0
C543 C 0.15218 0.15097 0.45621 0.0
C544 C 0.13617 0.09243 0.45506 0.0
C545 C 0.11578 0.07513 0.47027 0.0
C546 C 0.09091 0.06503 0.45668 0.0
C547 C 0.08748 0.07187 0.42684 0.0
C548 C 0.10786 0.08898 0.41164 0.0
H549 H 0.15697 0.17101 0.46075 0.0
H550 H 0.1306 0.14244 0.45834 0.0
H551 H 0.16133 0.14441 0.4747 0.0
H552 H 0.15491 0.10025 0.46637 0.0
H553 H 0.11918 0.07047 0.49325 0.0
H554 H 0.92962 0.2239 0.37939 0.0
H555 H 0.94573 0.20315 0.41709 0.0
H556 H 0.86625 0.16155 0.44081 0.0
H557 H 0.84993 0.18201 0.40291 0.0
H558 H 0.92976 0.1914 0.48772 0.0
H559 H 0.9073 0.11479 0.39391 0.0
H560 H 0.9115 0.14563 0.38547 0.0
H561 H 0.88231 0.12845 0.40539 0.0
C562 C 0.91559 0.21063 0.39306 0.0
C563 C 0.88858 0.20428 0.38798 0.0
C564 C 0.92479 0.19903 0.41475 0.0
C565 C 0.90711 0.18089 0.43151 0.0
C566 C 0.88009 0.17565 0.42809 0.0
H567 H 0.94489 0.06148 0.4975 0.0
H568 H 0.92059 0.08911 0.48965 0.0
C569 C 0.87084 0.18732 0.40648 0.0
C570 C 0.91707 0.16492 0.44837 0.0
H571 H 0.92826 0.11047 0.43828 0.0
C572 C 0.9292 0.17354 0.47728 0.0
C573 C 0.91628 0.14178 0.43442 0.0
C574 C 0.90379 0.132 0.40302 0.0
C575 C 0.94084 0.15946 0.49266 0.0
C576 C 0.94081 0.13657 0.47822 0.0
C577 C 0.92815 0.12792 0.44952 0.0
C578 C 0.9547 0.12143 0.49103 0.0
C579 C 0.95299 0.16928 0.52406 0.0
C580 C 0.98185 0.13059 0.49597 0.0
C581 C 0.9958 0.11477 0.50105 0.0
C582 C 0.98282 0.08961 0.50038 0.0
C583 C 0.95548 0.08076 0.49739 0.0
C584 C 0.94154 0.09655 0.49314 0.0
H585 H 0.943 0.18139 0.53697 0.0
H586 H 0.95219 0.15438 0.53878 0.0
H587 H 0.9738 0.18022 0.52031 0.0
H588 H 0.99253 0.14965 0.49395 0.0
H589 H 1.01686 0.12203 0.50351 0.0
H590 H 0.80659 0.83162 0.36861 0.0
H591 H 0.83725 0.86053 0.40512 0.0
H592 H 0.89169 0.88466 0.32834 0.0
H593 H 0.86148 0.85549 0.29185 0.0
H594 H 0.91322 0.86938 0.37509 0.0
H595 H 0.86234 0.93405 0.42485 0.0
H596 H 0.84358 0.90255 0.42719 0.0
H597 H 0.85192 0.91448 0.38942 0.0
C598 C 0.82477 0.84355 0.35937 0.0
C599 C 0.83173 0.84115 0.32739 0.0
C600 C 0.84225 0.86012 0.38028 0.0
C601 C 0.86671 0.87477 0.36942 0.0
C602 C 0.87293 0.87346 0.3372 0.0
H603 H 0.99003 0.98926 0.46279 0.0
H604 H 0.95216 0.96438 0.43253 0.0
C605 C 0.85563 0.85679 0.31638 0.0
C606 C 0.88709 0.88932 0.39175 0.0
H607 H 0.90159 0.93586 0.44957 0.0
C608 C 0.9107 0.88395 0.39133 0.0
C609 C 0.88371 0.9083 0.41286 0.0
C610 C 0.85912 0.91539 0.41352 0.0
C611 C 0.93116 0.89718 0.41126 0.0
C612 C 0.92766 0.9159 0.43275 0.0
C613 C 0.90403 0.92127 0.43329 0.0
C614 C 0.94903 0.93109 0.45337 0.0
C615 C 0.95661 0.89144 0.40845 0.0
C616 C 0.95942 0.92067 0.47565 0.0
C617 C 0.98126 0.93478 0.49288 0.0
C618 C 0.99288 0.9596 0.48821 0.0
C619 C 0.98169 0.97014 0.4668 0.0
C620 C 0.95996 0.95601 0.44955 0.0
H621 H 0.95816 0.88057 0.3861 0.0
H622 H 0.97368 0.90839 0.40975 0.0
H623 H 0.95776 0.8807 0.42812 0.0
H624 H 0.95093 0.90151 0.4793 0.0
H625 H 0.98927 0.92619 0.50938 0.0
H626 H 0.11197 0.78674 0.28332 0.0
H627 H 0.08731 0.80256 0.32452 0.0
H628 H 0.12413 0.87512 0.29602 0.0
H629 H 0.14931 0.85997 0.25617 0.0
H630 H 0.12083 0.83358 0.36842 0.0
H631 H 0.0536 0.87862 0.3288 0.0
H632 H 0.06264 0.85541 0.30435 0.0
H633 H 0.0837 0.8866 0.30634 0.0
C634 C 0.1141 0.80595 0.2851 0.0
C635 C 0.13349 0.82217 0.26725 0.0
C636 C 0.09984 0.8149 0.30852 0.0
C637 C 0.10421 0.84002 0.31356 0.0
C638 C 0.12026 0.85562 0.29239 0.0
H639 H 0.12038 0.95671 0.45121 0.0
H640 H 0.12692 0.92766 0.40887 0.0
C641 C 0.13476 0.84679 0.26936 0.0
C642 C 0.09813 0.85076 0.3444 0.0
H643 H 0.07638 0.89642 0.37753 0.0
C644 C 0.11045 0.84684 0.37069 0.0
C645 C 0.08488 0.86819 0.34715 0.0
C646 C 0.07025 0.87226 0.32016 0.0
C647 C 0.11135 0.8611 0.39912 0.0
C648 C 0.09954 0.87954 0.40113 0.0
C649 C 0.08593 0.88254 0.3755 0.0
C650 C 0.1008 0.89597 0.42967 0.0
C651 C 0.12601 0.85731 0.42628 0.0
C652 C 0.08511 0.88744 0.45586 0.0
C653 C 0.08138 0.90391 0.47991 0.0
C654 C 0.09332 0.92905 0.47794 0.0
C655 C 0.11118 0.93739 0.45332 0.0
C656 C 0.11471 0.92088 0.42906 0.0
H657 H 0.13679 0.84416 0.41965 0.0
H658 H 0.14016 0.8749 0.43534 0.0
H659 H 0.11194 0.85028 0.44569 0.0
H660 H 0.07418 0.86827 0.45657 0.0
H661 H 0.06754 0.89711 0.49878 0.0
H662 H 0.1798 0.80439 0.67927 0.0
H663 H 0.15659 0.81818 0.64117 0.0
H664 H 0.13705 0.86646 0.71375 0.0
H665 H 0.15864 0.85163 0.75239 0.0
H666 H 0.0973 0.84637 0.67336 0.0
H667 H 0.19151 0.88354 0.60755 0.0
H668 H 0.18058 0.85126 0.61058 0.0
H669 H 0.19001 0.87169 0.64527 0.0
C670 C 0.16997 0.81746 0.68736 0.0
C671 C 0.17145 0.82719 0.71887 0.0
C672 C 0.157 0.82554 0.66541 0.0
C673 C 0.14571 0.84379 0.67446 0.0
C674 C 0.14584 0.8525 0.70619 0.0
H675 H 0.13426 0.96624 0.60348 0.0
H676 H 0.14508 0.9324 0.6216 0.0
C677 C 0.15847 0.84421 0.7282 0.0
C678 C 0.13548 0.85538 0.65097 0.0
H679 H 0.15543 0.89311 0.59174 0.0
C680 C 0.10981 0.85628 0.65513 0.0
C681 C 0.15197 0.86832 0.62728 0.0
C682 C 0.18011 0.86889 0.62243 0.0
C683 C 0.10072 0.87108 0.63767 0.0
C684 C 0.11759 0.88476 0.61487 0.0
C685 C 0.14257 0.88249 0.60918 0.0
C686 C 0.1116 0.90456 0.60075 0.0
C687 C 0.07392 0.87331 0.64543 0.0
C688 C 0.08945 0.90011 0.58231 0.0
C689 C 0.08295 0.91959 0.57219 0.0
C690 C 0.09873 0.94371 0.58006 0.0
C691 C 0.12158 0.94792 0.59714 0.0
C692 C 0.12787 0.92856 0.60744 0.0
H693 H 0.06514 0.86446 0.66708 0.0
H694 H 0.07498 0.89274 0.64867 0.0
H695 H 0.06062 0.86447 0.62574 0.0
H696 H 0.07694 0.88167 0.57634 0.0
H697 H 0.06534 0.91576 0.55882 0.0
H698 H 0.21681 0.24694 0.71453 0.0
H699 H 0.18012 0.2138 0.69213 0.0
H700 H 0.18654 0.16824 0.76325 0.0
H701 H 0.22345 0.20155 0.78602 0.0
H702 H 0.19238 0.15052 0.69981 0.0
H703 H 0.10305 0.17801 0.71628 0.0
H704 H 0.13117 0.20173 0.70325 0.0
H705 H 0.13119 0.1907 0.74115 0.0
C706 C 0.20999 0.23008 0.72591 0.0
C707 C 0.22307 0.22668 0.7518 0.0
C708 C 0.18887 0.21125 0.71327 0.0
C709 C 0.18054 0.1887 0.72624 0.0
C710 C 0.19259 0.18565 0.75318 0.0
H711 H 0.09128 0.05423 0.61815 0.0
H712 H 0.11523 0.08202 0.66087 0.0
C713 C 0.2136 0.20466 0.76613 0.0
C714 C 0.16245 0.16759 0.70837 0.0
H715 H 0.10323 0.14853 0.67288 0.0
C716 C 0.17263 0.14967 0.69444 0.0
C717 C 0.13689 0.16683 0.7013 0.0
C718 C 0.12481 0.18523 0.71651 0.0
C719 C 0.15853 0.13182 0.67194 0.0
C720 C 0.13334 0.13164 0.66387 0.0
C721 C 0.12263 0.14884 0.67901 0.0
C722 C 0.11848 0.11469 0.63841 0.0
C723 C 0.17137 0.11429 0.65568 0.0
C724 C 0.11202 0.12392 0.6119 0.0
C725 C 0.09815 0.10812 0.58756 0.0
C726 C 0.09051 0.08281 0.58935 0.0
C727 C 0.09713 0.07363 0.61591 0.0
C728 C 0.11082 0.08946 0.64034 0.0
H729 H 0.19285 0.12046 0.65941 0.0
H730 H 0.16282 0.09625 0.66522 0.0
H731 H 0.16793 0.11195 0.63003 0.0
H732 H 0.11782 0.14337 0.61002 0.0
H733 H 0.09328 0.11574 0.56746 0.0
H734 H 0.90237 0.25654 0.65044 0.0
H735 H 0.9188 0.23227 0.61024 0.0
H736 H 0.97973 0.23271 0.67208 0.0
H737 H 0.96351 0.25716 0.71238 0.0
H738 H 0.98968 0.22641 0.60096 0.0
H739 H 0.89708 0.16391 0.65001 0.0
H740 H 0.89605 0.19035 0.63212 0.0
H741 H 0.91241 0.19395 0.66864 0.0
C742 C 0.92025 0.25279 0.65479 0.0
C743 C 0.93132 0.2581 0.68478 0.0
C744 C 0.92951 0.2388 0.6318 0.0
C745 C 0.94992 0.23025 0.63871 0.0
C746 C 0.96377 0.23906 0.66655 0.0
H747 H 1.02382 0.12579 0.61949 0.0
H748 H 1.00623 0.15938 0.63034 0.0
C749 C 0.9545 0.25298 0.68957 0.0
C750 C 0.95239 0.20783 0.62207 0.0
H751 H 0.92654 0.14626 0.62458 0.0
C752 C 0.97563 0.20885 0.60537 0.0
C753 C 0.9338 0.18499 0.62774 0.0
C754 C 0.90842 0.18302 0.64567 0.0
C755 C 0.9816 0.18754 0.59592 0.0
C756 C 0.96419 0.16489 0.60438 0.0
C757 C 0.93995 0.16372 0.61865 0.0
C758 C 0.97212 0.14282 0.60156 0.0
C759 C 1.00684 0.18957 0.57774 0.0
C760 C 0.95724 0.12138 0.58458 0.0
C761 C 0.9669 0.10174 0.5792 0.0
C762 C 0.99158 0.10368 0.59041 0.0
C763 C 1.00498 0.12413 0.61004 0.0
C764 C 0.99516 0.14344 0.61586 0.0
H765 H 1.01239 0.20544 0.5633 0.0
H766 H 1.02286 0.19239 0.59445 0.0
H767 H 1.00529 0.17288 0.56204 0.0
H768 H 0.93895 0.12031 0.57419 0.0
H769 H 0.95605 0.08591 0.56445 0.0
H770 H 0.84932 0.86 0.77878 0.0
H771 H 0.88 0.89466 0.75374 0.0
H772 H 0.887 0.84657 0.67313 0.0
H773 H 0.85518 0.81247 0.69712 0.0
H774 H 0.9275 0.9073 0.73711 0.0
H775 H 0.87444 0.89673 0.62737 0.0
H776 H 0.86013 0.87921 0.6601 0.0
H777 H 0.88135 0.86918 0.63193 0.0
C778 C 0.85736 0.85693 0.75564 0.0
C779 C 0.84962 0.83357 0.73978 0.0
C780 C 0.87489 0.87676 0.74127 0.0
C781 C 0.88539 0.87357 0.71094 0.0
C782 C 0.87844 0.84995 0.6958 0.0
H783 H 0.03192 0.96416 0.63744 0.0
H784 H 0.99621 0.9373 0.66657 0.0
C785 C 0.86043 0.83032 0.70976 0.0
C786 C 0.90432 0.8946 0.69558 0.0
H787 H 0.92055 0.91978 0.62521 0.0
C788 C 0.9257 0.91018 0.71276 0.0
C789 C 0.90185 0.89916 0.66404 0.0
C790 C 0.87801 0.88534 0.64499 0.0
C791 C 0.9451 0.92923 0.699 0.0
C792 C 0.94399 0.93218 0.66658 0.0
C793 C 0.92195 0.91739 0.64983 0.0
C794 C 0.96592 0.94955 0.64928 0.0
C795 C 0.96633 0.94613 0.71973 0.0
C796 C 0.96104 0.96492 0.62842 0.0
C797 C 0.98158 0.97991 0.61071 0.0
C798 C 1.00751 0.98015 0.61386 0.0
C799 C 1.01233 0.96497 0.63494 0.0
C800 C 0.99181 0.94962 0.65193 0.0
H801 H 0.9589 0.94791 0.74425 0.0
H802 H 0.98264 0.93847 0.72042 0.0
H803 H 0.97408 0.96457 0.71112 0.0
H804 H 0.94127 0.96515 0.62557 0.0
H805 H 0.97717 0.99119 0.59447 0.0
H806 H 0.32513 0.2265 0.19159 0.0
H807 H 0.35151 0.20113 0.16889 0.0
H808 H 0.3814 0.20137 0.26003 0.0
H809 H 0.35546 0.22703 0.28253 0.0
H810 H 0.40182 0.20098 0.15653 0.0
H811 H 0.36902 0.13057 0.24044 0.0
H812 H 0.35328 0.15347 0.23882 0.0
H813 H 0.38352 0.16047 0.25935 0.0
C814 C 0.33713 0.22132 0.20735 0.0
C815 C 0.33686 0.22987 0.23996 0.0
C816 C 0.35284 0.20631 0.19387 0.0
C817 C 0.36947 0.19763 0.21163 0.0
C818 C 0.36917 0.20621 0.24425 0.0
H819 H 0.43527 0.07213 0.13005 0.0
H820 H 0.40825 0.09705 0.15288 0.0
C821 C 0.35388 0.22161 0.25762 0.0
C822 C 0.38667 0.18049 0.19649 0.0
H823 H 0.40417 0.1283 0.20611 0.0
C824 C 0.40201 0.18522 0.16799 0.0
C825 C 0.38825 0.15884 0.20927 0.0
C826 C 0.37251 0.15026 0.23846 0.0
C827 C 0.41799 0.17063 0.15362 0.0
C828 C 0.41995 0.14925 0.16673 0.0
C829 C 0.40409 0.14415 0.19478 0.0
C830 C 0.43775 0.13258 0.15196 0.0
C831 C 0.43241 0.17827 0.12332 0.0
C832 C 0.46486 0.14223 0.14274 0.0
C833 C 0.48091 0.12748 0.12985 0.0
C834 C 0.47164 0.10144 0.12414 0.0
C835 C 0.44446 0.09165 0.13311 0.0
C836 C 0.42848 0.10644 0.14673 0.0
H837 H 0.4236 0.1897 0.11112 0.0
H838 H 0.45303 0.18918 0.1285 0.0
H839 H 0.43247 0.1622 0.10719 0.0
H840 H 0.47427 0.1617 0.14606 0.0
H841 H 0.50121 0.13693 0.1241 0.0
H842 H 0.87358 0.29929 0.20477 0.0
H843 H 0.90623 0.32835 0.17354 0.0
H844 H 0.87135 0.38377 0.20443 0.0
H845 H 0.83892 0.355 0.23601 0.0
H846 H 0.90218 0.35483 0.12463 0.0
H847 H 0.9474 0.4179 0.22655 0.0
H848 H 0.9248 0.38781 0.231 0.0
H849 H 0.91279 0.41226 0.22387 0.0
C850 C 0.87282 0.31766 0.20501 0.0
C851 C 0.85358 0.3247 0.2233 0.0
C852 C 0.89154 0.33431 0.187 0.0
C853 C 0.89171 0.35852 0.18685 0.0
C854 C 0.87218 0.36544 0.20454 0.0
H855 H 0.98917 0.46002 0.05108 0.0
H856 H 0.95143 0.43392 0.07972 0.0
C857 C 0.85347 0.34883 0.22256 0.0
C858 C 0.91239 0.37649 0.1685 0.0
H859 H 0.96222 0.4308 0.1762 0.0
C860 C 0.91527 0.37147 0.13593 0.0
C861 C 0.92975 0.39821 0.18306 0.0
C862 C 0.92878 0.40434 0.21807 0.0
C863 C 0.93485 0.38738 0.1177 0.0
C864 C 0.95202 0.40925 0.13224 0.0
C865 C 0.94903 0.41427 0.16479 0.0
C866 C 0.97454 0.42616 0.1149 0.0
C867 C 0.93744 0.3802 0.08319 0.0
C868 C 1.00019 0.43145 0.12549 0.0
C869 C 1.02168 0.44655 0.10942 0.0
C870 C 1.01836 0.45708 0.08219 0.0
C871 C 0.99259 0.45239 0.07197 0.0
C872 C 0.97095 0.43715 0.08817 0.0
H873 H 0.9272 0.36052 0.07727 0.0
H874 H 0.92855 0.39065 0.06941 0.0
H875 H 0.95836 0.38436 0.07577 0.0
H876 H 1.00371 0.42343 0.146 0.0
H877 H 0.04108 0.44965 0.11824 0.0
H878 H 0.78048 0.84854 0.20853 0.0
H879 H 0.75677 0.87166 0.18421 0.0
H880 H 0.68383 0.82319 0.21754 0.0
H881 H 0.70772 0.80131 0.24357 0.0
H882 H 0.72909 0.87384 0.14276 0.0
H883 H 0.65625 0.87479 0.23705 0.0
H884 H 0.68313 0.86381 0.24272 0.0
H885 H 0.65371 0.84411 0.22371 0.0
C886 C 0.75936 0.84281 0.21131 0.0
C887 C 0.7468 0.82257 0.22923 0.0
C888 C 0.74534 0.85634 0.19685 0.0
C889 C 0.71747 0.8507 0.19872 0.0
C890 C 0.70495 0.82993 0.21595 0.0
H891 H 0.60162 0.90756 0.10031 0.0
H892 H 0.62336 0.88226 0.12469 0.0
C893 C 0.71901 0.81672 0.23096 0.0
C894 C 0.7022 0.86581 0.18228 0.0
H895 H 0.64788 0.88663 0.18823 0.0
C896 C 0.71147 0.87649 0.15341 0.0
C897 C 0.67869 0.87055 0.1945 0.0
C898 C 0.6675 0.86297 0.22632 0.0
C899 C 0.69868 0.89037 0.13733 0.0
C900 C 0.67497 0.89448 0.14918 0.0
C901 C 0.66554 0.88384 0.17786 0.0
C902 C 0.66072 0.91032 0.13302 0.0
C903 C 0.71073 0.90035 0.10689 0.0
C904 C 0.67319 0.93536 0.12853 0.0
C905 C 0.6604 0.95014 0.11482 0.0
C906 C 0.63421 0.94113 0.10363 0.0
C907 C 0.6217 0.91591 0.10758 0.0
C908 C 0.63439 0.90116 0.1221 0.0
H909 H 0.72491 0.89134 0.09665 0.0
H910 H 0.69536 0.89811 0.08945 0.0
H911 H 0.72134 0.9201 0.11126 0.0
H912 H 0.69306 0.94396 0.13642 0.0
H913 H 0.67137 0.96918 0.11315 0.0
H914 H 0.28036 0.712 0.20579 0.0
H915 H 0.25628 0.67593 0.17193 0.0
H916 H 0.18488 0.69342 0.19128 0.0
H917 H 0.20842 0.729 0.22495 0.0
H918 H 0.17939 0.64434 0.19737 0.0
H919 H 0.22739 0.67543 0.08364 0.0
H920 H 0.24848 0.6755 0.11497 0.0
H921 H 0.22966 0.69605 0.11841 0.0
C922 C 0.25955 0.70817 0.20271 0.0
C923 C 0.24639 0.72352 0.21802 0.0
C924 C 0.24583 0.6876 0.18328 0.0
C925 C 0.21878 0.68207 0.17887 0.0
C926 C 0.20571 0.6973 0.19429 0.0
H927 H 0.10517 0.60311 0.04501 0.0
H928 H 0.13955 0.63177 0.07713 0.0
C929 C 0.21931 0.71774 0.21352 0.0
C930 C 0.20355 0.66047 0.1585 0.0
H931 H 0.19302 0.63822 0.08178 0.0
C932 C 0.18259 0.64277 0.17213 0.0
C933 C 0.20761 0.6586 0.12555 0.0
C934 C 0.22936 0.67742 0.10956 0.0
C935 C 0.16509 0.62375 0.15369 0.0
C936 C 0.16883 0.62212 0.12066 0.0
C937 C 0.19027 0.63939 0.10709 0.0
C938 C 0.14927 0.60414 0.09969 0.0
C939 C 0.14195 0.6063 0.1696 0.0
C940 C 0.14355 0.57893 0.10115 0.0
C941 C 0.12371 0.56236 0.08276 0.0
C942 C 0.10926 0.57069 0.06251 0.0
C943 C 0.1157 0.59595 0.06043 0.0
C944 C 0.13548 0.61243 0.07874 0.0
H945 H 0.13912 0.61285 0.19434 0.0
H946 H 0.12367 0.60347 0.15675 0.0
H947 H 0.14518 0.58842 0.16967 0.0
H948 H 0.15424 0.57207 0.11674 0.0
H949 H 0.11943 0.54305 0.08482 0.0
H950 H 0.34048 0.84562 0.84288 0.0
H951 H 0.3745 0.87272 0.87721 0.0
H952 H 0.40871 0.81569 0.88142 0.0
H953 H 0.37497 0.7886 0.8465 0.0
H954 H 0.38826 0.87304 0.93542 0.0
H955 H 0.47359 0.86876 0.86062 0.0
H956 H 0.44047 0.8562 0.84692 0.0
H957 H 0.45346 0.83937 0.87131 0.0
C958 C 0.35519 0.8387 0.85101 0.0
C959 C 0.35473 0.81468 0.84139 0.0
C960 C 0.37484 0.85438 0.87083 0.0
C961 C 0.39495 0.84682 0.88182 0.0
C962 C 0.39419 0.82262 0.87283 0.0
H963 H 0.52971 0.91735 1.0062 0.0
H964 H 0.49521 0.88907 0.97333 0.0
C965 C 0.37457 0.80691 0.85287 0.0
C966 C 0.41618 0.8641 0.90292 0.0
H967 H 0.48293 0.88866 0.91174 0.0
C968 C 0.40893 0.87645 0.92999 0.0
C969 C 0.44347 0.86895 0.89642 0.0
C970 C 0.45328 0.85783 0.8671 0.0
C971 C 0.42771 0.8928 0.95057 0.0
C972 C 0.45495 0.8976 0.94409 0.0
C973 C 0.46224 0.8852 0.91712 0.0
C974 C 0.47609 0.91527 0.96486 0.0
C975 C 0.41805 0.90433 0.97965 0.0
C976 C 0.47753 0.93988 0.97137 0.0
C977 C 0.49745 0.95628 0.99031 0.0
C978 C 0.51677 0.94874 1.00352 0.0
C979 C 0.5153 0.92409 0.99689 0.0
C980 C 0.49547 0.90776 0.97783 0.0
H981 H 0.39754 0.89385 0.98601 0.0
H982 H 0.43066 0.90575 0.99996 0.0
H983 H 0.41853 0.92295 0.97524 0.0
H984 H 0.46343 0.94663 0.96135 0.0
H985 H 0.49776 0.975 0.9944 0.0
H986 H 0.27244 0.3174 0.87156 0.0
H987 H 0.24979 0.34345 0.90054 0.0
H988 H 0.21217 0.34761 0.81563 0.0
H989 H 0.23498 0.32213 0.7865 0.0
H990 H 0.2311 0.392 0.84702 0.0
H991 H 0.17415 0.32576 0.9304 0.0
H992 H 0.209 0.33224 0.9312 0.0
H993 H 0.19141 0.31693 0.89659 0.0
C994 C 0.25923 0.32373 0.85906 0.0
C995 C 0.25553 0.31745 0.82661 0.0
C996 C 0.24614 0.33857 0.87576 0.0
C997 C 0.22887 0.34733 0.86048 0.0
C998 C 0.22528 0.34113 0.8281 0.0
H999 H 0.10383 0.4017 0.92705 0.0
H1000 H 0.13291 0.3793 0.90579 0.0
C1001 C 0.23836 0.32642 0.81142 0.0
C1002 C 0.2148 0.36329 0.8777 0.0
H1003 H 0.16976 0.36496 0.93656 0.0
C1004 C 0.21781 0.3861 0.86672 0.0
C1005 C 0.19734 0.35571 0.90344 0.0
C1006 C 0.19254 0.33125 0.91601 0.0
C1007 C 0.20364 0.40122 0.88025 0.0
C1008 C 0.18603 0.39354 0.90575 0.0
C1009 C 0.18332 0.37094 0.91711 0.0
C1010 C 0.16872 0.40773 0.91928 0.0
C1011 C 0.20687 0.42492 0.86633 0.0
C1012 C 0.17903 0.43129 0.93426 0.0
C1013 C 0.16231 0.4443 0.94658 0.0
C1014 C 0.13492 0.43403 0.94409 0.0
C1015 C 0.12478 0.4104 0.92918 0.0
C1016 C 0.14142 0.39743 0.9171 0.0
H1017 H 0.21728 0.42603 0.84315 0.0
H1018 H 0.1875 0.42728 0.86343 0.0
H1019 H 0.21844 0.44026 0.88245 0.0
H1020 H 0.19999 0.43951 0.93678 0.0
H1021 H 0.17082 0.46226 0.95833 0.0
H1022 H 0.70524 0.22774 0.82678 0.0
H1023 H 0.67857 0.19469 0.85765 0.0
H1024 H 0.74858 0.18378 0.88797 0.0
H1025 H 0.77545 0.2167 0.85668 0.0
H1026 H 0.67578 0.14425 0.85329 0.0
H1027 H 0.70743 0.1872 0.97224 0.0
H1028 H 0.71252 0.20464 0.93833 0.0
H1029 H 0.73312 0.18661 0.94398 0.0
C1030 C 0.71516 0.21848 0.84005 0.0
C1031 C 0.74285 0.22535 0.83891 0.0
C1032 C 0.6997 0.19935 0.85785 0.0
C1033 C 0.71117 0.18648 0.87589 0.0
C1034 C 0.73884 0.19335 0.87495 0.0
H1035 H 0.63389 0.07003 0.00783 0.0
H1036 H 0.66709 0.09991 0.97719 0.0
C1037 C 0.75435 0.21228 0.85673 0.0
C1038 C 0.69411 0.16559 0.89458 0.0
H1039 H 0.67792 0.14714 0.96937 0.0
C1040 C 0.67638 0.14501 0.87868 0.0
C1041 C 0.6947 0.16585 0.92786 0.0
C1042 C 0.71279 0.18727 0.94682 0.0
C1043 C 0.65967 0.12516 0.89461 0.0
C1044 C 0.65941 0.12577 0.92806 0.0
C1045 C 0.67758 0.14618 0.94396 0.0
C1046 C 0.6395 0.10631 0.94663 0.0
C1047 C 0.64291 0.10335 0.87492 0.0
C1048 C 0.61255 0.0994 0.94048 0.0
C1049 C 0.5937 0.08208 0.95759 0.0
C1050 C 0.60054 0.07082 0.98229 0.0
C1051 C 0.62756 0.07755 0.98865 0.0
C1052 C 0.64666 0.09504 0.97122 0.0
H1053 H 0.65228 0.10133 0.85154 0.0
H1054 H 0.63926 0.08625 0.88653 0.0
H1055 H 0.62383 0.10589 0.87087 0.0
H1056 H 0.60575 0.10797 0.92279 0.0
H1057 H 0.57331 0.07802 0.95185 0.0
H1058 H 0.92429 0.73626 0.91768 0.0
H1059 H 0.947 0.70975 0.93539 0.0
H1060 H 0.89534 0.64858 0.88098 0.0
H1061 H 0.87237 0.67488 0.86332 0.0
H1062 H 0.92921 0.66913 0.96882 0.0
H1063 H 0.96678 0.64464 0.85187 0.0
H1064 H 0.95317 0.66925 0.85876 0.0
H1065 H 0.9319 0.63827 0.85336 0.0
C1066 C 0.91758 0.71714 0.90956 0.0
C1067 C 0.89642 0.70785 0.88889 0.0
C1068 C 0.93073 0.70199 0.91965 0.0
C1069 C 0.92325 0.67716 0.9092 0.0
C1070 C 0.90199 0.66776 0.88883 0.0
H1071 H 0.96763 0.55142 0.93931 0.0
H1072 H 0.94759 0.581 0.92579 0.0
C1073 C 0.88883 0.68289 0.87871 0.0
C1074 C 0.93736 0.66107 0.91999 0.0
H1075 H 0.97055 0.62165 0.89352 0.0
C1076 C 0.9384 0.65888 0.95235 0.0
C1077 C 0.94958 0.64775 0.89863 0.0
C1078 C 0.95058 0.65023 0.86374 0.0
C1079 C 0.95043 0.64318 0.96375 0.0
C1080 C 0.96218 0.6295 0.94234 0.0
C1081 C 0.96152 0.63202 0.91003 0.0
C1082 C 0.97415 0.61157 0.95257 0.0
C1083 C 0.94989 0.64091 0.99861 0.0
C1084 C 0.99583 0.61869 0.9725 0.0
C1085 C 1.00752 0.60163 0.9804 0.0
C1086 C 0.99783 0.57711 0.96841 0.0
C1087 C 0.97582 0.57009 0.94899 0.0
C1088 C 0.96427 0.58705 0.94111 0.0
H1089 H 0.93508 0.64814 0.01115 0.0
H1090 H 0.94565 0.62165 1.00374 0.0
H1091 H 0.96943 0.65151 0.00802 0.0
H1092 H 1.00411 0.63754 0.98138 0.0
H1093 H 0.02438 0.60773 0.99542 0.0
H1094 H 0.23291 0.3386 0.12634 0.0
H1095 H 0.21665 0.35969 0.08971 0.0
H1096 H 0.17995 0.29162 0.0361 0.0
H1097 H 0.19661 0.27018 0.07258 0.0
H1098 H 0.21919 0.36111 0.02029 0.0
H1099 H 0.11933 0.31757 0.07115 0.0
H1100 H 0.14834 0.31737 0.09021 0.0
H1101 H 0.13796 0.29856 0.05456 0.0
C1102 C 0.22202 0.32811 0.10631 0.0
C1103 C 0.21587 0.30266 0.10253 0.0
C1104 C 0.21274 0.34022 0.08538 0.0
C1105 C 0.19703 0.32716 0.06038 0.0
C1106 C 0.19194 0.30194 0.05544 0.0
H1107 H 0.09493 0.40417 1.0034 0.0
H1108 H 0.11591 0.37255 0.9968 0.0
C1109 C 0.20128 0.28975 0.07641 0.0
C1110 C 0.18348 0.33991 0.04258 0.0
H1111 H 0.12568 0.35195 0.04415 0.0
C1112 C 0.19856 0.35876 0.0247 0.0
C1113 C 0.15652 0.33654 0.04805 0.0
C1114 C 0.13946 0.3165 0.06708 0.0
C1115 C 0.18779 0.37558 0.01432 0.0
C1116 C 0.16156 0.37373 0.02278 0.0
C1117 C 0.14587 0.35348 0.03792 0.0
C1118 C 0.15113 0.39418 0.02108 0.0
C1119 C 0.20496 0.39573 0.99564 0.0
C1120 C 0.16408 0.41694 0.03665 0.0
C1121 C 0.15221 0.43509 0.04033 0.0
C1122 C 0.12703 0.43072 0.02883 0.0
C1123 C 0.11435 0.40811 0.01258 0.0
C1124 C 0.12635 0.39005 0.00862 0.0
H1125 H 0.21852 0.38905 0.9797 0.0
H1126 H 0.19324 0.40332 0.98146 0.0
H1127 H 0.21711 0.41057 0.01197 0.0
H1128 H 0.18286 0.42032 0.04731 0.0
H1129 H 0.16252 0.45233 0.05285 0.0
H1130 H 0.26555 0.68745 0.79645 0.0
H1131 H 0.23564 0.65377 0.82315 0.0
H1132 H 0.21951 0.70462 0.8947 0.0
H1133 H 0.24898 0.73862 0.86756 0.0
H1134 H 0.23376 0.6378 0.88085 0.0
H1135 H 0.14666 0.66633 0.86515 0.0
H1136 H 0.17773 0.68001 0.84576 0.0
H1137 H 0.17253 0.68897 0.88631 0.0
C1138 C 0.25577 0.69157 0.81796 0.0
C1139 C 0.25949 0.71583 0.82966 0.0
C1140 C 0.23867 0.67222 0.83325 0.0
C1141 C 0.22489 0.6766 0.86063 0.0
C1142 C 0.22941 0.70076 0.87318 0.0
H1143 H 0.13222 0.56276 0.97924 0.0
H1144 H 0.16776 0.59516 0.95675 0.0
C1145 C 0.24641 0.7202 0.85774 0.0
C1146 C 0.20529 0.65583 0.87525 0.0
H1147 H 0.14029 0.63257 0.89477 0.0
C1148 C 0.21331 0.63666 0.88395 0.0
C1149 C 0.17852 0.65412 0.87884 0.0
C1150 C 0.16822 0.67331 0.86827 0.0
C1151 C 0.19535 0.61588 0.89609 0.0
C1152 C 0.16868 0.61443 0.90028 0.0
C1153 C 0.16072 0.63366 0.89167 0.0
C1154 C 0.14843 0.59304 0.9129 0.0
C1155 C 0.20502 0.59542 0.90341 0.0
C1156 C 0.12564 0.58093 0.89585 0.0
C1157 C 0.10515 0.56259 0.9088 0.0
C1158 C 0.10699 0.55582 0.93911 0.0
C1159 C 0.13029 0.56722 0.95564 0.0
C1160 C 0.1507 0.58579 0.94278 0.0
H1161 H 0.22368 0.59618 0.89061 0.0
H1162 H 0.2087 0.59696 0.92894 0.0
H1163 H 0.19027 0.57741 0.89725 0.0
H1164 H 0.12339 0.58613 0.87275 0.0
H1165 H 0.08749 0.55423 0.89544 0.0
H1166 H 0.35674 0.20205 0.95963 0.0
H1167 H 0.38277 0.18239 0.98588 0.0
H1168 H 0.41388 0.1629 0.89623 0.0
H1169 H 0.38788 0.18257 0.86975 0.0
H1170 H 0.38093 0.13569 0.9817 0.0
H1171 H 0.48036 0.19164 0.94538 0.0
H1172 H 0.45168 0.20039 0.94038 0.0
H1173 H 0.45956 0.17848 0.91256 0.0
C1174 C 0.36909 0.19358 0.94539 0.0
C1175 C 0.37007 0.19395 0.91243 0.0
C1176 C 0.38411 0.1824 0.96052 0.0
C1177 C 0.4007 0.17137 0.94322 0.0
C1178 C 0.40183 0.17178 0.91032 0.0
H1179 H 0.45657 0.05711 0.99197 0.0
H1180 H 0.43292 0.08282 0.97497 0.0
C1181 C 0.38685 0.18303 0.89514 0.0
C1182 C 0.41575 0.1585 0.9595 0.0
H1183 H 0.47708 0.15438 0.96735 0.0
C1184 C 0.40199 0.13997 0.97871 0.0
C1185 C 0.44335 0.16424 0.95627 0.0
C1186 C 0.45966 0.18494 0.9378 0.0
C1187 C 0.4148 0.12651 0.99365 0.0
C1188 C 0.44215 0.13132 0.98896 0.0
C1189 C 0.4561 0.15047 0.97078 0.0
C1190 C 0.45623 0.11569 1.00102 0.0
C1191 C 0.39886 0.10722 0.01443 0.0
C1192 C 0.47756 0.1255 0.02129 0.0
C1193 C 0.49134 0.11069 0.03116 0.0
C1194 C 0.48427 0.08583 0.02061 0.0
C1195 C 0.46267 0.07612 1.00069 0.0
C1196 C 0.44894 0.09082 0.991 0.0
H1197 H 0.38063 0.11081 0.02334 0.0
H1198 H 0.39311 0.08928 1.00062 0.0
H1199 H 0.41033 0.10612 0.03478 0.0
H1200 H 0.48365 0.14464 0.02932 0.0
H1201 H 0.50786 0.11884 0.04643 0.0
H1202 H 0.8024 0.3379 0.87625 0.0
H1203 H 0.83218 0.36683 0.91426 0.0
H1204 H 0.89593 0.34243 0.8767 0.0
H1205 H 0.86674 0.31386 0.83882 0.0
H1206 H 0.87942 0.35491 0.95719 0.0
H1207 H 0.90511 0.42231 0.86694 0.0
H1208 H 0.87274 0.40045 0.87056 0.0
H1209 H 0.89913 0.3908 0.85332 0.0
C1210 C 0.82267 0.33846 0.87653 0.0
C1211 C 0.83238 0.32389 0.85436 0.0
C1212 C 0.83955 0.35489 0.89823 0.0
C1213 C 0.86611 0.35661 0.89807 0.0
C1214 C 0.87543 0.34122 0.87708 0.0
H1215 H 1.01464 0.41219 0.97217 0.0
H1216 H 0.96917 0.38922 0.9601 0.0
C1217 C 0.85876 0.32504 0.85536 0.0
C1218 C 0.88522 0.37599 0.91712 0.0
H1219 H 0.93549 0.4282 0.90739 0.0
C1220 C 0.89134 0.37133 0.94685 0.0
C1221 C 0.9004 0.39741 0.90357 0.0
C1222 C 0.89405 0.40327 0.8719 0.0
C1223 C 0.91354 0.3869 0.96252 0.0
C1224 C 0.93024 0.40707 0.94748 0.0
C1225 C 0.92283 0.41265 0.91885 0.0
C1226 C 0.9568 0.42103 0.95885 0.0
C1227 C 0.91923 0.38123 0.99458 0.0
C1228 C 0.96516 0.44656 0.9615 0.0
C1229 C 0.99132 0.45974 0.96756 0.0
C1230 C 1.0096 0.4476 0.97124 0.0
C1231 C 1.00103 0.42206 0.96949 0.0
C1232 C 0.97493 0.40889 0.96304 0.0
H1233 H 0.90078 0.37218 0.00752 0.0
H1234 H 0.93084 0.36849 0.9919 0.0
H1235 H 0.9305 0.39793 0.00886 0.0
H1236 H 0.95156 0.45629 0.95808 0.0
H1237 H 0.99724 0.47941 0.96897 0.0
H1238 H 0.74014 0.83291 0.79383 0.0
H1239 H 0.71771 0.85793 0.82548 0.0
H1240 H 0.7409 0.83618 0.90987 0.0
H1241 H 0.7641 0.81189 0.87825 0.0
H1242 H 0.67877 0.85375 0.86197 0.0
H1243 H 0.75922 0.90434 0.94101 0.0
H1244 H 0.76413 0.88498 0.90754 0.0
H1245 H 0.75078 0.87224 0.94398 0.0
C1246 C 0.74082 0.83351 0.81915 0.0
C1247 C 0.75465 0.82006 0.83282 0.0
C1248 C 0.72766 0.84804 0.83762 0.0
C1249 C 0.72749 0.85015 0.87099 0.0
C1250 C 0.74095 0.83631 0.88461 0.0
H1251 H 0.60606 0.90253 0.98097 0.0
H1252 H 0.63104 0.87963 0.95059 0.0
C1253 C 0.75427 0.82191 0.86615 0.0
C1254 C 0.71279 0.86597 0.89092 0.0
H1255 H 0.71711 0.90727 0.95605 0.0
C1256 C 0.68749 0.86541 0.88246 0.0
C1257 C 0.72339 0.88215 0.91783 0.0
C1258 C 0.75096 0.88622 0.92796 0.0
C1259 C 0.67292 0.87943 0.89956 0.0
C1260 C 0.68294 0.89465 0.92739 0.0
C1261 C 0.7085 0.89569 0.93546 0.0
C1262 C 0.66744 0.90937 0.94797 0.0
C1263 C 0.64702 0.87825 0.88652 0.0
C1264 C 0.67887 0.9342 0.95929 0.0
C1265 C 0.66431 0.94762 0.9777 0.0
C1266 C 0.63748 0.93695 0.98597 0.0
C1267 C 0.62636 0.91204 0.97524 0.0
C1268 C 0.64086 0.89869 0.95715 0.0
H1269 H 0.64643 0.8735 0.86074 0.0
H1270 H 0.63108 0.86383 0.89747 0.0
H1271 H 0.64307 0.89583 0.89128 0.0
H1272 H 0.6992 0.94352 0.95347 0.0
H1273 H 0.67414 0.96654 0.98517 0.0
H1274 H 0.92144 0.73072 0.16822 0.0
H1275 H 0.93972 0.6984 0.14981 0.0
H1276 H 0.87303 0.66437 0.0909 0.0
H1277 H 0.85469 0.69698 0.10878 0.0
H1278 H 0.89324 0.63375 0.13646 0.0
H1279 H 0.96528 0.68898 0.05256 0.0
H1280 H 0.96105 0.70395 0.09028 0.0
H1281 H 0.93456 0.69418 0.06324 0.0
C1282 C 0.91082 0.71656 0.15103 0.0
C1283 C 0.88678 0.71649 0.13967 0.0
C1284 C 0.92115 0.69804 0.1408 0.0
C1285 C 0.90765 0.67918 0.11908 0.0
C1286 C 0.88358 0.67883 0.1078 0.0
H1287 H 0.95808 0.55599 0.04258 0.0
H1288 H 0.92997 0.58089 0.05937 0.0
C1289 C 0.8732 0.69742 0.118 0.0
C1290 C 0.91929 0.66023 0.10783 0.0
H1291 H 0.97098 0.6522 0.06456 0.0
C1292 C 0.90991 0.63746 0.12023 0.0
C1293 C 0.94102 0.66541 0.08683 0.0
C1294 C 0.9511 0.68939 0.07219 0.0
C1295 C 0.92251 0.61989 0.11291 0.0
C1296 C 0.94477 0.62541 0.09264 0.0
C1297 C 0.95371 0.64802 0.07982 0.0
C1298 C 0.96022 0.60872 0.08559 0.0
C1299 C 0.91282 0.59611 0.12801 0.0
C1300 C 0.98634 0.61618 0.09493 0.0
C1301 C 1.00237 0.60221 0.08525 0.0
C1302 C 0.99254 0.58049 0.06606 0.0
C1303 C 0.96606 0.57252 0.05766 0.0
C1304 C 0.95 0.58666 0.06725 0.0
H1305 H 0.89797 0.59624 0.14693 0.0
H1306 H 0.90378 0.58117 0.10993 0.0
H1307 H 0.92943 0.59206 0.13802 0.0
H1308 H 0.99454 0.63321 0.10901 0.0
H1309 H 1.02267 0.60877 0.09219 0.0
H1310 H 0.3208 0.83561 0.19406 0.0
H1311 H 0.35747 0.86664 0.17085 0.0
H1312 H 0.41195 0.84428 0.22127 0.0
H1313 H 0.37558 0.81314 0.24435 0.0
H1314 H 0.39444 0.90505 0.20636 0.0
H1315 H 0.44261 0.84818 0.13118 0.0
H1316 H 0.40923 0.83648 0.14566 0.0
H1317 H 0.43609 0.83967 0.1708 0.0
C1318 C 0.3406 0.83694 0.19971 0.0
C1319 C 0.34527 0.82192 0.22109 0.0
C1320 C 0.3615 0.85476 0.18655 0.0
C1321 C 0.38737 0.85763 0.19424 0.0
C1322 C 0.39213 0.84212 0.2147 0.0
H1323 H 0.5423 0.95409 0.15961 0.0
H1324 H 0.50294 0.92555 0.18139 0.0
C1325 C 0.37129 0.82439 0.22796 0.0
C1326 C 0.40938 0.8778 0.18259 0.0
H1327 H 0.46736 0.89002 0.14146 0.0
C1328 C 0.41029 0.90183 0.1919 0.0
C1329 C 0.42997 0.87347 0.16381 0.0
C1330 C 0.4294 0.84807 0.152 0.0
C1331 C 0.43178 0.92169 0.18372 0.0
C1332 C 0.45262 0.9173 0.16551 0.0
C1333 C 0.45143 0.89329 0.15571 0.0
C1334 C 0.47597 0.93724 0.15612 0.0
C1335 C 0.43239 0.94713 0.19537 0.0
C1336 C 0.47377 0.95378 0.13545 0.0
C1337 C 0.49626 0.97024 0.12297 0.0
C1338 C 0.52135 0.97022 0.13074 0.0
C1339 C 0.52335 0.95457 0.15296 0.0
C1340 C 0.50088 0.93818 0.1654 0.0
H1341 H 0.41794 0.94709 0.21483 0.0
H1342 H 0.45223 0.95816 0.20361 0.0
H1343 H 0.42757 0.9561 0.17581 0.0
H1344 H 0.45472 0.95313 0.12768 0.0
H1345 H 0.49393 0.98194 0.10586 0.0
H1346 H 0.73818 0.25486 0.19174 0.0
H1347 H 0.71281 0.22397 0.15265 0.0
H1348 H 0.77176 0.18823 0.14821 0.0
H1349 H 0.79691 0.21865 0.18786 0.0
H1350 H 0.71984 0.19988 0.09116 0.0
H1351 H 0.70693 0.14164 0.19103 0.0
H1352 H 0.72127 0.17427 0.19593 0.0
H1353 H 0.74003 0.15592 0.17784 0.0
C1354 C 0.74613 0.24086 0.18172 0.0
C1355 C 0.76913 0.23873 0.19335 0.0
C1356 C 0.73167 0.22328 0.15932 0.0
C1357 C 0.74022 0.20361 0.14816 0.0
C1358 C 0.7647 0.2031 0.15701 0.0
H1359 H 0.62895 0.06234 0.08715 0.0
H1360 H 0.67139 0.09409 0.09374 0.0
C1361 C 0.77897 0.22043 0.17969 0.0
C1362 C 0.72152 0.18176 0.13229 0.0
H1363 H 0.68217 0.12473 0.14664 0.0
C1364 C 0.71185 0.18327 0.10296 0.0
C1365 C 0.71119 0.16016 0.14787 0.0
C1366 C 0.72017 0.1578 0.17999 0.0
C1367 C 0.69142 0.16388 0.08922 0.0
C1368 C 0.68025 0.14282 0.10563 0.0
C1369 C 0.69089 0.14088 0.13411 0.0
C1370 C 0.65549 0.12392 0.09622 0.0
C1371 C 0.68165 0.16625 0.05764 0.0
C1372 C 0.63256 0.13024 0.09543 0.0
C1373 C 0.60829 0.11221 0.092 0.0
C1374 C 0.60644 0.08745 0.08962 0.0
C1375 C 0.62958 0.0812 0.08942 0.0
C1376 C 0.65389 0.0993 0.09284 0.0
H1377 H 0.69732 0.17875 0.04367 0.0
H1378 H 0.67433 0.14829 0.04397 0.0
H1379 H 0.66529 0.17397 0.06115 0.0
H1380 H 0.63329 0.14911 0.09886 0.0
H1381 H 0.59094 0.11775 0.09199 0.0
H1382 H 0.76346 0.69341 0.81448 0.0
H1383 H 0.73226 0.66157 0.84302 0.0
H1384 H 0.67435 0.69795 0.83995 0.0
H1385 H 0.70524 0.72937 0.81015 0.0
H1386 H 0.71052 0.66301 0.89831 0.0
H1387 H 0.63054 0.6307 0.81271 0.0
H1388 H 0.66237 0.65126 0.80294 0.0
H1389 H 0.63835 0.66261 0.82399 0.0
C1390 C 0.74394 0.69447 0.81945 0.0
C1391 C 0.73681 0.71388 0.80974 0.0
C1392 C 0.7261 0.67625 0.83594 0.0
C1393 C 0.70068 0.677 0.84346 0.0
C1394 C 0.6935 0.69642 0.83378 0.0
H1395 H 0.60017 0.59481 0.99078 0.0
H1396 H 0.63373 0.62522 0.96234 0.0
C1397 C 0.71125 0.71449 0.81679 0.0
C1398 C 0.68222 0.65792 0.86231 0.0
H1399 H 0.62039 0.61694 0.86388 0.0
C1400 C 0.69085 0.65284 0.89063 0.0
C1401 C 0.65661 0.64429 0.85231 0.0
C1402 C 0.6465 0.64729 0.82118 0.0
C1403 C 0.6747 0.63479 0.90916 0.0
C1404 C 0.64873 0.62184 0.89978 0.0
C1405 C 0.64016 0.62686 0.87139 0.0
C1406 C 0.63014 0.60269 0.91842 0.0
C1407 C 0.68601 0.62937 0.93811 0.0
C1408 C 0.61667 0.57978 0.90351 0.0
C1409 C 0.59714 0.5626 0.91959 0.0
C1410 C 0.59074 0.56768 0.95118 0.0
C1411 C 0.605 0.59013 0.96665 0.0
C1412 C 0.62426 0.60756 0.95033 0.0
H1413 H 0.70774 0.6348 0.93641 0.0
H1414 H 0.68077 0.63991 0.95888 0.0
H1415 H 0.67823 0.60972 0.94204 0.0
H1416 H 0.62076 0.5754 0.87903 0.0
H1417 H 0.58643 0.54553 0.90696 0.0
H1418 H 0.46974 0.73279 0.79146 0.0
H1419 H 0.48718 0.7103 0.82568 0.0
H1420 H 0.4178 0.69847 0.88511 0.0
H1421 H 0.40134 0.72223 0.85227 0.0
H1422 H 0.45785 0.70028 0.91905 0.0
H1423 H 0.45478 0.63826 0.81164 0.0
H1424 H 0.47748 0.66812 0.80778 0.0
H1425 H 0.44292 0.66389 0.81259 0.0
C1426 C 0.45884 0.72616 0.81255 0.0
C1427 C 0.43428 0.72905 0.81934 0.0
C1428 C 0.46859 0.71312 0.83184 0.0
C1429 C 0.45329 0.70196 0.85723 0.0
C1430 C 0.42984 0.70675 0.86553 0.0
H1431 H 0.45714 0.56498 0.91586 0.0
H1432 H 0.44371 0.59744 0.89689 0.0
C1433 C 0.42048 0.72035 0.8468 0.0
C1434 C 0.45981 0.68297 0.87261 0.0
H1435 H 0.4712 0.62871 0.85705 0.0
C1436 C 0.46083 0.68464 0.90554 0.0
C1437 C 0.46269 0.66211 0.85498 0.0
C1438 C 0.45912 0.6578 0.81986 0.0
C1439 C 0.46513 0.66618 0.92125 0.0
C1440 C 0.46945 0.64608 0.90341 0.0
C1441 C 0.46812 0.64429 0.87061 0.0
C1442 C 0.47589 0.62674 0.91792 0.0
C1443 C 0.46429 0.66805 0.95671 0.0
C1444 C 0.49833 0.63251 0.93608 0.0
C1445 C 0.50598 0.61405 0.94697 0.0
C1446 C 0.49149 0.5895 0.93951 0.0
C1447 C 0.46881 0.58374 0.92169 0.0
C1448 C 0.46105 0.60224 0.91102 0.0
H1449 H 0.45278 0.67994 0.96642 0.0
H1450 H 0.4556 0.64985 0.96585 0.0
H1451 H 0.48454 0.67612 0.9655 0.0
H1452 H 0.51042 0.65126 0.94099 0.0
H1453 H 0.52358 0.61903 0.96066 0.0
H1454 H 0.38043 0.29761 0.82113 0.0
H1455 H 0.41348 0.32711 0.85407 0.0
H1456 H 0.39369 0.38575 0.81844 0.0
H1457 H 0.36 0.35629 0.7858 0.0
H1458 H 0.45703 0.36694 0.84406 0.0
H1459 H 0.37945 0.39427 0.91273 0.0
H1460 H 0.37214 0.36796 0.88472 0.0
H1461 H 0.37973 0.39794 0.87149 0.0
C1462 C 0.38329 0.31679 0.81988 0.0
C1463 C 0.36723 0.32458 0.8012 0.0
C1464 C 0.40224 0.33363 0.83876 0.0
C1465 C 0.40553 0.35853 0.83927 0.0
C1466 C 0.39094 0.36652 0.81893 0.0
H1467 H 0.49836 0.48708 0.94544 0.0
H1468 H 0.47032 0.45669 0.90829 0.0
C1469 C 0.37184 0.34968 0.80013 0.0
C1470 C 0.42305 0.37586 0.86248 0.0
H1471 H 0.42341 0.41672 0.92524 0.0
C1472 C 0.44971 0.37779 0.86187 0.0
C1473 C 0.4133 0.3897 0.88596 0.0
C1474 C 0.38455 0.38725 0.88907 0.0
C1475 C 0.46705 0.39375 0.88366 0.0
C1476 C 0.45734 0.4079 0.90665 0.0
C1477 C 0.43069 0.4058 0.90747 0.0
C1478 C 0.47471 0.42589 0.92925 0.0
C1479 C 0.49569 0.39583 0.88162 0.0
C1480 C 0.48619 0.4185 0.95357 0.0
C1481 C 0.50221 0.43586 0.97511 0.0
C1482 C 0.50696 0.46082 0.97249 0.0
C1483 C 0.49522 0.46802 0.94812 0.0
C1484 C 0.47917 0.45071 0.92682 0.0
H1485 H 0.50073 0.38634 0.85968 0.0
H1486 H 0.50807 0.41525 0.88275 0.0
H1487 H 0.50058 0.38763 0.90192 0.0
H1488 H 0.48263 0.39934 0.95596 0.0
H1489 H 0.51097 0.42977 0.99361 0.0
H1490 H 0.66406 0.33792 0.92345 0.0
H1491 H 0.65994 0.36182 0.97227 0.0
H1492 H 0.7422 0.37747 0.98918 0.0
H1493 H 0.74647 0.35353 0.94006 0.0
H1494 H 0.67613 0.36599 0.04027 0.0
H1495 H 0.73145 0.44324 0.96991 0.0
H1496 H 0.7179 0.41326 0.95031 0.0
H1497 H 0.7448 0.41945 0.97632 0.0
C1498 C 0.68108 0.3459 0.93802 0.0
C1499 C 0.70561 0.34427 0.92789 0.0
C1500 C 0.6787 0.35934 0.966 0.0
C1501 C 0.70085 0.37151 0.98408 0.0
C1502 C 0.72495 0.36818 0.97547 0.0
H1503 H 0.64966 0.49352 0.04686 0.0
H1504 H 0.68242 0.47269 0.04958 0.0
C1505 C 0.72731 0.35453 0.94748 0.0
C1506 C 0.69897 0.39101 0.00766 0.0
H1507 H 0.69931 0.4493 1.00536 0.0
C1508 C 0.68206 0.38455 0.03362 0.0
C1509 C 0.70738 0.41537 0.99955 0.0
C1510 C 0.72644 0.42345 0.97257 0.0
C1511 C 0.67017 0.40088 0.04855 0.0
C1512 C 0.67487 0.42376 0.03644 0.0
C1513 C 0.69518 0.43155 0.01417 0.0
C1514 C 0.65503 0.43652 0.03969 0.0
C1515 C 0.65089 0.39249 0.07514 0.0
C1516 C 0.62899 0.42323 0.03231 0.0
C1517 C 0.61055 0.435 0.03009 0.0
C1518 C 0.61766 0.46045 0.03505 0.0
C1519 C 0.64364 0.47388 0.04278 0.0
C1520 C 0.66228 0.462 0.04469 0.0
H1521 H 0.65943 0.38398 0.09213 0.0
H1522 H 0.64529 0.40766 0.08767 0.0
H1523 H 0.633 0.37836 0.0658 0.0
H1524 H 0.62303 0.4037 0.02687 0.0
H1525 H 0.59071 0.42404 0.02412 0.0
H1526 H 0.73034 0.41228 0.23465 0.0
H1527 H 0.70623 0.43304 0.20711 0.0
H1528 H 0.68057 0.37077 0.13963 0.0
H1529 H 0.70402 0.34954 0.16765 0.0
H1530 H 0.70516 0.44453 0.144 0.0
H1531 H 0.61236 0.37681 0.18297 0.0
H1532 H 0.64375 0.37952 0.19857 0.0
H1533 H 0.63493 0.36483 0.16005 0.0
C1534 C 0.71983 0.40316 0.21371 0.0
C1535 C 0.71861 0.37919 0.20358 0.0
C1536 C 0.70623 0.41506 0.19793 0.0
C1537 C 0.69125 0.40315 0.17185 0.0
C1538 C 0.69172 0.38 0.16009 0.0
H1539 H 0.57006 0.44347 0.08616 0.0
H1540 H 0.59838 0.42155 0.10244 0.0
C1541 C 0.7053 0.36804 0.17593 0.0
C1542 C 0.67334 0.4142 0.15908 0.0
H1543 H 0.60861 0.40868 0.15583 0.0
C1544 C 0.68403 0.43664 0.14624 0.0
C1545 C 0.64585 0.40382 0.16238 0.0
C1546 C 0.63343 0.38001 0.17694 0.0
C1547 C 0.66791 0.44923 0.13675 0.0
C1548 C 0.64036 0.43913 0.14068 0.0
C1549 C 0.6297 0.41638 0.15291 0.0
C1550 C 0.62221 0.45184 0.13246 0.0
C1551 C 0.6809 0.47326 0.12294 0.0
C1552 C 0.62542 0.47567 0.14513 0.0
C1553 C 0.60984 0.48843 0.13515 0.0
C1554 C 0.59029 0.47734 0.11295 0.0
C1555 C 0.58544 0.45271 0.10262 0.0
C1556 C 0.60153 0.44014 0.11199 0.0
H1557 H 0.69891 0.47303 0.10928 0.0
H1558 H 0.66777 0.47804 0.10746 0.0
H1559 H 0.68687 0.48782 0.14236 0.0
H1560 H 0.64054 0.48467 0.16201 0.0
H1561 H 0.61367 0.50721 0.14423 0.0
H1562 H 0.76321 0.72384 0.17633 0.0
H1563 H 0.72924 0.69493 0.14371 0.0
H1564 H 0.68082 0.6739 0.2262 0.0
H1565 H 0.7146 0.70296 0.25916 0.0
H1566 H 0.70229 0.64353 0.14465 0.0
H1567 H 0.63691 0.70018 0.16973 0.0
H1568 H 0.67144 0.71133 0.17815 0.0
H1569 H 0.64879 0.69141 0.20376 0.0
C1570 C 0.7455 0.71284 0.18765 0.0
C1571 C 0.74146 0.71592 0.22033 0.0
C1572 C 0.72614 0.69632 0.16894 0.0
C1573 C 0.7024 0.68271 0.18254 0.0
C1574 C 0.6989 0.68461 0.21529 0.0
H1575 H 0.57543 0.56473 0.10098 0.0
H1576 H 0.61286 0.59104 0.13059 0.0
C1577 C 0.7183 0.70109 0.23408 0.0
C1578 C 0.68079 0.66758 0.16224 0.0
H1579 H 0.61917 0.66245 0.14 0.0
C1580 C 0.68411 0.64763 0.14357 0.0
C1581 C 0.65737 0.67336 0.16047 0.0
C1582 C 0.65337 0.69535 0.17885 0.0
C1583 C 0.66424 0.63285 0.12371 0.0
C1584 C 0.64045 0.63813 0.12282 0.0
C1585 C 0.63741 0.65843 0.1409 0.0
C1586 C 0.61807 0.62225 0.1042 0.0
C1587 C 0.66893 0.61185 0.10368 0.0
C1588 C 0.6082 0.6313 0.07997 0.0
C1589 C 0.58661 0.61629 0.06296 0.0
C1590 C 0.57446 0.59208 0.07015 0.0
C1591 C 0.58433 0.58324 0.09469 0.0
C1592 C 0.60587 0.5982 0.11155 0.0
H1593 H 0.69017 0.61416 0.1007 0.0
H1594 H 0.65943 0.59476 0.11518 0.0
H1595 H 0.66034 0.60982 0.08011 0.0
H1596 H 0.6173 0.64992 0.07416 0.0
H1597 H 0.57948 0.62362 0.0442 0.0
H1598 H 0.33298 0.69546 0.16742 0.0
H1599 H 0.34169 0.67149 0.12054 0.0
H1600 H 0.40152 0.65578 0.16983 0.0
H1601 H 0.39271 0.6795 0.21681 0.0
H1602 H 0.38638 0.67883 0.08563 0.0
H1603 H 0.35923 0.58891 0.133 0.0
H1604 H 0.35006 0.6139 0.15264 0.0
H1605 H 0.38196 0.61133 0.15827 0.0
C1606 C 0.34797 0.68683 0.16821 0.0
C1607 C 0.36224 0.68931 0.19568 0.0
C1608 C 0.3528 0.67309 0.14151 0.0
C1609 C 0.37189 0.66153 0.14192 0.0
C1610 C 0.38617 0.66401 0.16932 0.0
H1611 H 0.48529 0.63431 0.03028 0.0
H1612 H 0.45172 0.65157 0.05017 0.0
C1613 C 0.38124 0.67762 0.19608 0.0
C1614 C 0.37815 0.64799 0.11333 0.0
H1615 H 0.39137 0.59565 0.09001 0.0
C1616 C 0.38689 0.6604 0.08621 0.0
C1617 C 0.37792 0.62369 0.11363 0.0
C1618 C 0.36647 0.60862 0.14086 0.0
C1619 C 0.39796 0.64997 0.06062 0.0
C1620 C 0.40084 0.62687 0.0627 0.0
C1621 C 0.38956 0.61353 0.08845 0.0
C1622 C 0.41937 0.6181 0.04214 0.0
C1623 C 0.40737 0.6642 0.03221 0.0
C1624 C 0.41243 0.59366 0.03004 0.0
C1625 C 0.43183 0.58354 0.01926 0.0
C1626 C 0.45839 0.59776 0.02056 0.0
C1627 C 0.46501 0.62278 0.02947 0.0
C1628 C 0.4457 0.63281 0.04044 0.0
H1629 H 0.42708 0.67757 0.03671 0.0
H1630 H 0.40856 0.65218 0.01084 0.0
H1631 H 0.39409 0.67464 0.02773 0.0
H1632 H 0.39223 0.58198 0.03111 0.0
H1633 H 0.42612 0.56425 0.0121 0.0
H1634 H 0.37011 0.34295 0.25238 0.0
H1635 H 0.39764 0.37478 0.22067 0.0
H1636 H 0.33082 0.37018 0.16622 0.0
H1637 H 0.30298 0.33828 0.19795 0.0
H1638 H 0.40635 0.37137 0.15379 0.0
H1639 H 0.36309 0.44414 0.1937 0.0
H1640 H 0.35844 0.41782 0.21536 0.0
H1641 H 0.3405 0.41509 0.18023 0.0
C1642 C 0.36112 0.34876 0.23383 0.0
C1643 C 0.33421 0.33797 0.22786 0.0
C1644 C 0.37697 0.36695 0.21561 0.0
C1645 C 0.36632 0.37506 0.19117 0.0
C1646 C 0.33946 0.36447 0.18518 0.0
H1647 H 0.46704 0.46543 0.04925 0.0
H1648 H 0.43092 0.43431 0.07365 0.0
C1649 C 0.32357 0.34611 0.20329 0.0
C1650 C 0.38362 0.39421 0.17173 0.0
H1651 H 0.39685 0.4534 0.15506 0.0
C1652 C 0.40414 0.38923 0.15384 0.0
C1653 C 0.38087 0.4176 0.17199 0.0
C1654 C 0.35969 0.4242 0.19148 0.0
C1655 C 0.42208 0.40702 0.1365 0.0
C1656 C 0.41939 0.43045 0.13681 0.0
C1657 C 0.39874 0.43538 0.15452 0.0
C1658 C 0.43918 0.45058 0.12115 0.0
C1659 C 0.44438 0.40089 0.11889 0.0
C1660 C 0.45516 0.47061 0.1395 0.0
C1661 C 0.47573 0.48839 0.12566 0.0
C1662 C 0.48071 0.48673 0.09303 0.0
C1663 C 0.46374 0.46737 0.0744 0.0
C1664 C 0.44322 0.44942 0.08836 0.0
H1665 H 0.44637 0.38356 0.12549 0.0
H1666 H 0.44084 0.39899 0.0933 0.0
H1667 H 0.4632 0.41568 0.1234 0.0
H1668 H 0.4524 0.472 0.16479 0.0
H1669 H 0.4883 0.50306 0.14075 0.0
H1670 H 0.80008 0.71389 0.67801 0.0
H1671 H 0.82212 0.68845 0.6459 0.0
H1672 H 0.88566 0.71054 0.71065 0.0
H1673 H 0.86354 0.73521 0.74293 0.0
H1674 H 0.86506 0.69303 0.6113 0.0
H1675 H 0.87752 0.64107 0.70711 0.0
H1676 H 0.85795 0.66109 0.71231 0.0
H1677 H 0.89307 0.67302 0.71611 0.0
C1678 C 0.81866 0.71327 0.68573 0.0
C1679 C 0.82942 0.72694 0.71392 0.0
C1680 C 0.83153 0.69853 0.667 0.0
C1681 C 0.85584 0.69639 0.67543 0.0
C1682 C 0.86675 0.71048 0.70326 0.0
H1683 H 0.97165 0.62349 0.60115 0.0
H1684 H 0.94613 0.64698 0.62903 0.0
C1685 C 0.85392 0.7251 0.72194 0.0
C1686 C 0.86984 0.68007 0.65536 0.0
H1687 H 0.90236 0.63801 0.66025 0.0
C1688 C 0.87294 0.68091 0.62229 0.0
C1689 C 0.88056 0.66364 0.66844 0.0
C1690 C 0.87689 0.65941 0.70285 0.0
C1691 C 0.88668 0.66713 0.60296 0.0
C1692 C 0.89783 0.65109 0.61619 0.0
C1693 C 0.8944 0.65004 0.64918 0.0
C1694 C 0.91379 0.63608 0.59708 0.0
C1695 C 0.88993 0.67076 0.5684 0.0
C1696 C 0.90509 0.62111 0.56885 0.0
C1697 C 0.9201 0.6072 0.55233 0.0
C1698 C 0.94465 0.60741 0.56314 0.0
C1699 C 0.95314 0.62237 0.5913 0.0
C1700 C 0.93822 0.63607 0.60772 0.0
H1701 H 0.88738 0.68823 0.5633 0.0
H1702 H 0.90954 0.67056 0.5594 0.0
H1703 H 0.8748 0.6558 0.55538 0.0
H1704 H 0.88628 0.61969 0.55967 0.0
H1705 H 0.91227 0.59608 0.53113 0.0
H1706 H 0.37646 0.82861 0.73583 0.0
H1707 H 0.40182 0.86504 0.7109 0.0
H1708 H 0.33159 0.86797 0.66964 0.0
H1709 H 0.30572 0.8318 0.69583 0.0
H1710 H 0.41166 0.87435 0.6526 0.0
H1711 H 0.35955 0.93632 0.70756 0.0
H1712 H 0.35387 0.90627 0.71998 0.0
H1713 H 0.3385 0.91028 0.68539 0.0
C1714 C 0.36629 0.83694 0.72148 0.0
C1715 C 0.33897 0.82727 0.71795 0.0
C1716 C 0.38089 0.85786 0.70718 0.0
C1717 C 0.36868 0.86963 0.68872 0.0
C1718 C 0.34145 0.8597 0.68445 0.0
H1719 H 0.46388 0.97877 0.56534 0.0
H1720 H 0.43522 0.94153 0.58635 0.0
C1721 C 0.32668 0.83887 0.69921 0.0
C1722 C 0.38482 0.89205 0.67387 0.0
H1723 H 0.39167 0.95201 0.66842 0.0
C1724 C 0.40726 0.89133 0.6561 0.0
C1725 C 0.3794 0.91438 0.67874 0.0
C1726 C 0.35669 0.91701 0.6992 0.0
C1727 C 0.42446 0.91218 0.64338 0.0
C1728 C 0.41863 0.93434 0.64746 0.0
C1729 C 0.39611 0.93505 0.66505 0.0
C1730 C 0.43594 0.95713 0.63442 0.0
C1731 C 0.44918 0.91033 0.62671 0.0
C1732 C 0.44526 0.97871 0.65409 0.0
C1733 C 0.46124 1.00024 0.64196 0.0
C1734 C 0.4685 1.00061 0.60993 0.0
C1735 C 0.45914 0.97901 0.59026 0.0
C1736 C 0.44278 0.95762 0.60229 0.0
H1737 H 0.45469 0.89487 0.63416 0.0
H1738 H 0.44591 0.90712 0.60104 0.0
H1739 H 0.46589 0.9273 0.63121 0.0
H1740 H 0.44022 0.9789 0.67893 0.0
H1741 H 0.468 0.01658 0.65771 0.0
H1742 H 0.24695 0.39322 0.64113 0.0
H1743 H 0.21838 0.41178 0.61778 0.0
H1744 H 0.1541 0.34488 0.62137 0.0
H1745 H 0.18233 0.32638 0.64585 0.0
H1746 H 0.19222 0.39981 0.56272 0.0
H1747 H 0.11999 0.39329 0.66136 0.0
H1748 H 0.15092 0.38821 0.66551 0.0
H1749 H 0.12412 0.3648 0.64675 0.0
C1750 C 0.22663 0.38246 0.63751 0.0
C1751 C 0.21709 0.35822 0.64585 0.0
C1752 C 0.2103 0.39311 0.62381 0.0
C1753 C 0.18381 0.37999 0.61812 0.0
C1754 C 0.17423 0.3557 0.62603 0.0
H1755 H 0.06405 0.43028 0.53366 0.0
H1756 H 0.08607 0.40379 0.55428 0.0
C1757 C 0.19059 0.345 0.63973 0.0
C1758 C 0.16665 0.39172 0.60334 0.0
H1759 H 0.11124 0.40856 0.61526 0.0
C1760 C 0.17448 0.40161 0.57426 0.0
C1761 C 0.14328 0.39407 0.61806 0.0
C1762 C 0.13412 0.38474 0.64976 0.0
C1763 C 0.15996 0.41385 0.55983 0.0
C1764 C 0.13702 0.41675 0.57492 0.0
C1765 C 0.12872 0.40631 0.60354 0.0
C1766 C 0.12295 0.43242 0.56268 0.0
C1767 C 0.16939 0.42368 0.52842 0.0
C1768 C 0.13603 0.45736 0.56097 0.0
C1769 C 0.12353 0.47244 0.54951 0.0
C1770 C 0.09741 0.46314 0.53931 0.0
C1771 C 0.08411 0.43812 0.54125 0.0
C1772 C 0.0967 0.42296 0.55306 0.0
H1773 H 0.18229 0.41415 0.51589 0.0
H1774 H 0.15264 0.4219 0.51322 0.0
H1775 H 0.18086 0.44328 0.53213 0.0
H1776 H 0.15606 0.46529 0.56866 0.0
H1777 H 0.1346 0.49153 0.54851 0.0
H1778 H 0.76251 0.2113 0.7087 0.0
H1779 H 0.73125 0.1818 0.6737 0.0
H1780 H 0.69211 0.23438 0.6626 0.0
H1781 H 0.72347 0.26427 0.69772 0.0
H1782 H 0.67566 0.16867 0.69148 0.0
H1783 H 0.69841 0.20073 0.57139 0.0
H1784 H 0.72265 0.20902 0.60171 0.0
H1785 H 0.69725 0.2228 0.60343 0.0
C1786 C 0.74755 0.2168 0.69845 0.0
C1787 C 0.74524 0.24002 0.70628 0.0
C1788 C 0.72979 0.19994 0.67837 0.0
C1789 C 0.70952 0.20601 0.66562 0.0
C1790 C 0.70788 0.22954 0.672 0.0
H1791 H 0.56382 0.09761 0.60361 0.0
H1792 H 0.59605 0.13509 0.62522 0.0
C1793 C 0.72572 0.24652 0.69214 0.0
C1794 C 0.68842 0.1867 0.64905 0.0
H1795 H 0.66183 0.16547 0.5771 0.0
C1796 C 0.67251 0.168 0.6665 0.0
C1797 C 0.68458 0.18601 0.61652 0.0
C1798 C 0.70165 0.2056 0.59694 0.0
C1799 C 0.65295 0.14832 0.65219 0.0
C1800 C 0.64907 0.14756 0.61964 0.0
C1801 C 0.66484 0.16634 0.60213 0.0
C1802 C 0.62947 0.12662 0.60345 0.0
C1803 C 0.63705 0.12815 0.67179 0.0
C1804 C 0.63771 0.1099 0.58346 0.0
C1805 C 0.61941 0.08842 0.57119 0.0
C1806 C 0.59259 0.08341 0.57871 0.0
C1807 C 0.58435 0.10077 0.59768 0.0
C1808 C 0.60268 0.12222 0.60996 0.0
H1809 H 0.64563 0.12944 0.69523 0.0
H1810 H 0.6169 0.12921 0.67539 0.0
H1811 H 0.63555 0.11008 0.65959 0.0
H1812 H 0.65837 0.11308 0.57825 0.0
H1813 H 0.62636 0.07554 0.55637 0.0
H1814 H 0.78986 0.31661 0.38254 0.0
H1815 H 0.80973 0.34983 0.42206 0.0
H1816 H 0.88662 0.34841 0.39106 0.0
H1817 H 0.86703 0.31495 0.35199 0.0
H1818 H 0.88166 0.35961 0.45741 0.0
H1819 H 0.84434 0.41571 0.38478 0.0
H1820 H 0.82038 0.38986 0.40039 0.0
H1821 H 0.84392 0.38532 0.37129 0.0
C1822 C 0.81098 0.32299 0.3846 0.0
C1823 C 0.82693 0.31355 0.36365 0.0
C1824 C 0.82227 0.34196 0.40718 0.0
C1825 C 0.84961 0.35185 0.40891 0.0
C1826 C 0.86545 0.34105 0.38994 0.0
H1827 H 0.97755 0.47426 0.45382 0.0
H1828 H 0.94592 0.4337 0.44649 0.0
C1829 C 0.85421 0.322 0.36751 0.0
C1830 C 0.86196 0.37532 0.42702 0.0
H1831 H 0.87319 0.43619 0.42452 0.0
C1832 C 0.87948 0.37636 0.45069 0.0
C1833 C 0.85902 0.3971 0.41815 0.0
C1834 C 0.84106 0.39714 0.39215 0.0
C1835 C 0.89501 0.39877 0.46485 0.0
C1836 C 0.89318 0.42056 0.45461 0.0
C1837 C 0.8745 0.41943 0.43235 0.0
C1838 C 0.91251 0.44461 0.46331 0.0
C1839 C 0.9137 0.39884 0.48997 0.0
C1840 C 0.9042 0.46435 0.4748 0.0
C1841 C 0.92224 0.48779 0.4785 0.0
C1842 C 0.94887 0.49186 0.47056 0.0
C1843 C 0.95718 0.47187 0.45998 0.0
C1844 C 0.93916 0.44854 0.45618 0.0
H1845 H 0.90565 0.38267 0.50371 0.0
H1846 H 0.93239 0.39793 0.47869 0.0
H1847 H 0.91798 0.41554 0.5063 0.0
H1848 H 0.88366 0.46171 0.48017 0.0
H1849 H 0.91521 0.50271 0.48707 0.0
H1850 H 0.66952 0.80719 0.45327 0.0
H1851 H 0.64629 0.8346 0.47742 0.0
H1852 H 0.67919 0.88455 0.40651 0.0
H1853 H 0.70173 0.85721 0.38181 0.0
H1854 H 0.66623 0.88795 0.49887 0.0
H1855 H 0.59736 0.86382 0.3998 0.0
H1856 H 0.61723 0.84543 0.40793 0.0
H1857 H 0.63136 0.87266 0.38797 0.0
C1858 C 0.67179 0.82403 0.44289 0.0
C1859 C 0.68735 0.82999 0.41555 0.0
C1860 C 0.65873 0.83971 0.45685 0.0
C1861 C 0.66097 0.8614 0.44351 0.0
C1862 C 0.67719 0.86778 0.41697 0.0
H1863 H 0.62122 0.99081 0.49738 0.0
H1864 H 0.6425 0.95929 0.49119 0.0
C1865 C 0.69018 0.8522 0.40304 0.0
C1866 C 0.64512 0.8768 0.45571 0.0
H1867 H 0.59805 0.89884 0.43339 0.0
C1868 C 0.65104 0.89018 0.48489 0.0
C1869 C 0.62513 0.87927 0.43753 0.0
C1870 C 0.61716 0.86438 0.40668 0.0
C1871 C 0.63813 0.90695 0.49577 0.0
C1872 C 0.61913 0.91045 0.47667 0.0
C1873 C 0.61261 0.89624 0.44807 0.0
C1874 C 0.60631 0.92928 0.48476 0.0
C1875 C 0.64513 0.92075 0.5274 0.0
C1876 C 0.57897 0.92301 0.48281 0.0
C1877 C 0.567 0.94104 0.48502 0.0
C1878 C 0.58208 0.96564 0.48985 0.0
C1879 C 0.60924 0.97192 0.4935 0.0
C1880 C 0.62134 0.95389 0.49044 0.0
H1881 H 0.65231 0.91024 0.54317 0.0
H1882 H 0.66117 0.93804 0.52433 0.0
H1883 H 0.62812 0.92511 0.53889 0.0
H1884 H 0.56696 0.90416 0.47852 0.0
H1885 H 0.54593 0.93573 0.48276 0.0
H1886 H 0.19296 0.75721 0.31819 0.0
H1887 H 0.15601 0.72571 0.34031 0.0
H1888 H 0.20994 0.69965 0.38628 0.0
H1889 H 0.24682 0.73101 0.36456 0.0
H1890 H 0.14879 0.67591 0.32633 0.0
H1891 H 0.15406 0.69938 0.45481 0.0
H1892 H 0.16991 0.72121 0.42677 0.0
H1893 H 0.18505 0.69965 0.43712 0.0
C1894 C 0.19694 0.74528 0.33382 0.0
C1895 C 0.22286 0.74661 0.33957 0.0
C1896 C 0.17579 0.72718 0.34626 0.0
C1897 C 0.18022 0.71042 0.36507 0.0
C1898 C 0.20603 0.71261 0.37225 0.0
H1899 H 0.10222 0.56118 0.39363 0.0
H1900 H 0.1275 0.60017 0.37394 0.0
C1901 C 0.22712 0.73052 0.35968 0.0
C1902 C 0.15835 0.68904 0.37443 0.0
H1903 H 0.13058 0.65781 0.43778 0.0
C1904 C 0.14447 0.67212 0.35072 0.0
C1905 C 0.15263 0.68419 0.40623 0.0
C1906 C 0.16602 0.70218 0.43272 0.0
C1907 C 0.12592 0.64995 0.35794 0.0
C1908 C 0.12136 0.64449 0.38965 0.0
C1909 C 0.13429 0.66192 0.41343 0.0
C1910 C 0.10419 0.62042 0.39874 0.0
C1911 C 0.1116 0.63245 0.33155 0.0
C1912 C 0.08259 0.61881 0.41907 0.0
C1913 C 0.06806 0.59655 0.4304 0.0
C1914 C 0.07503 0.57541 0.42191 0.0
C1915 C 0.09617 0.57697 0.40061 0.0
C1916 C 0.11063 0.59927 0.38922 0.0
H1917 H 0.11163 0.64189 0.31013 0.0
H1918 H 0.12152 0.61857 0.32547 0.0
H1919 H 0.091 0.62289 0.33858 0.0
H1920 H 0.07734 0.63493 0.42677 0.0
H1921 H 0.05196 0.59616 0.44674 0.0
H1922 H 0.33629 0.23951 0.46944 0.0
H1923 H 0.35544 0.21454 0.49701 0.0
H1924 H 0.43295 0.26217 0.47599 0.0
H1925 H 0.41407 0.28694 0.44775 0.0
H1926 H 0.39345 0.19725 0.45205 0.0
H1927 H 0.43275 0.23794 0.56974 0.0
H1928 H 0.40441 0.24287 0.5543 0.0
H1929 H 0.4364 0.25766 0.53847 0.0
C1930 C 0.35739 0.24503 0.47141 0.0
C1931 C 0.37371 0.26487 0.45593 0.0
C1932 C 0.36825 0.23092 0.48743 0.0
C1933 C 0.39552 0.23666 0.48852 0.0
C1934 C 0.41183 0.25776 0.47575 0.0
H1935 H 0.49627 0.15139 0.52125 0.0
H1936 H 0.47903 0.18479 0.51463 0.0
C1937 C 0.40099 0.27185 0.45958 0.0
C1938 C 0.40665 0.21789 0.4959 0.0
H1939 H 0.44195 0.20226 0.54937 0.0
C1940 C 0.40389 0.19819 0.47343 0.0
C1941 C 0.42064 0.21965 0.52348 0.0
C1942 C 0.42378 0.24059 0.54809 0.0
C1943 C 0.41478 0.18001 0.47777 0.0
C1944 C 0.42823 0.18131 0.50574 0.0
C1945 C 0.43142 0.20128 0.52807 0.0
C1946 C 0.43857 0.16171 0.51215 0.0
C1947 C 0.41223 0.15985 0.452 0.0
C1948 C 0.42142 0.13791 0.51356 0.0
C1949 C 0.43117 0.11886 0.51668 0.0
C1950 C 0.45825 0.12336 0.51905 0.0
C1951 C 0.47535 0.14738 0.51901 0.0
C1952 C 0.46555 0.16645 0.51548 0.0
H1953 H 0.40833 0.16528 0.42899 0.0
H1954 H 0.43026 0.15447 0.44954 0.0
H1955 H 0.39554 0.14369 0.45778 0.0
H1956 H 0.40046 0.13404 0.51186 0.0
H1957 H 0.41744 0.10064 0.51748 0.0
H1958 H 0.65376 0.82657 0.70406 0.0
H1959 H 0.62941 0.8517 0.68598 0.0
H1960 H 0.67811 0.86303 0.60208 0.0
H1961 H 0.70214 0.8377 0.61973 0.0
H1962 H 0.64413 0.89786 0.6751 0.0
H1963 H 0.60799 0.8449 0.56317 0.0
H1964 H 0.62311 0.83332 0.59205 0.0
H1965 H 0.64299 0.85392 0.56483 0.0
C1966 C 0.65923 0.83434 0.6817 0.0
C1967 C 0.67981 0.82982 0.66327 0.0
C1968 C 0.6452 0.84868 0.67129 0.0
C1969 C 0.65139 0.85894 0.64221 0.0
C1970 C 0.6722 0.85474 0.62404 0.0
H1971 H 0.62327 0.9877 0.59001 0.0
H1972 H 0.63929 0.95688 0.6084 0.0
C1973 C 0.68606 0.84026 0.63428 0.0
C1974 C 0.6371 0.87506 0.63172 0.0
H1975 H 0.60554 0.88547 0.56955 0.0
C1976 C 0.63556 0.89497 0.65208 0.0
C1977 C 0.62536 0.87127 0.60187 0.0
C1978 C 0.62469 0.84954 0.57938 0.0
C1979 C 0.62365 0.91155 0.64312 0.0
C1980 C 0.61335 0.9086 0.61259 0.0
C1981 C 0.61379 0.8881 0.59273 0.0
C1982 C 0.6032 0.92717 0.60052 0.0
C1983 C 0.62207 0.93202 0.6667 0.0
C1984 C 0.57783 0.92075 0.58841 0.0
C1985 C 0.56855 0.9385 0.57744 0.0
C1986 C 0.58453 0.96302 0.57821 0.0
C1987 C 0.61015 0.96915 0.58951 0.0
C1988 C 0.61935 0.95149 0.60033 0.0
H1989 H 0.62242 0.92718 0.69116 0.0
H1990 H 0.63928 0.94835 0.66327 0.0
H1991 H 0.60399 0.93677 0.66388 0.0
H1992 H 0.56506 0.90206 0.5878 0.0
H1993 H 0.54887 0.93303 0.56854 0.0
H1994 H 0.71025 0.23809 0.32403 0.0
H1995 H 0.67699 0.21036 0.35542 0.0
H1996 H 0.73298 0.17582 0.37745 0.0
H1997 H 0.76688 0.20435 0.34672 0.0
H1998 H 0.6545 0.16421 0.34889 0.0
H1999 H 0.70337 0.18351 0.46347 0.0
H2000 H 0.71593 0.20202 0.43108 0.0
H2001 H 0.72259 0.17378 0.43283 0.0
C2002 C 0.71571 0.22473 0.33564 0.0
C2003 C 0.74148 0.22364 0.3327 0.0
C2004 C 0.69649 0.20876 0.35372 0.0
C2005 C 0.70223 0.19099 0.36949 0.0
C2006 C 0.72795 0.18968 0.36643 0.0
H2007 H 0.58491 0.05926 0.42498 0.0
H2008 H 0.61759 0.09147 0.39937 0.0
C2009 C 0.74737 0.20592 0.34853 0.0
C2010 C 0.68086 0.17338 0.38769 0.0
H2011 H 0.66498 0.14857 0.45864 0.0
C2012 C 0.65689 0.161 0.37296 0.0
C2013 C 0.68336 0.16925 0.41943 0.0
C2014 C 0.70759 0.18303 0.43777 0.0
C2015 C 0.6359 0.14447 0.38851 0.0
C2016 C 0.63888 0.13935 0.41964 0.0
C2017 C 0.66255 0.15216 0.43475 0.0
C2018 C 0.61824 0.11985 0.43601 0.0
C2019 C 0.61051 0.13294 0.37136 0.0
C2020 C 0.6077 0.12456 0.4659 0.0
C2021 C 0.58879 0.1058 0.48106 0.0
C2022 C 0.58015 0.08183 0.46679 0.0
C2023 C 0.59073 0.07739 0.43685 0.0
C2024 C 0.60949 0.09597 0.4219 0.0
H2025 H 0.60816 0.14464 0.35337 0.0
H2026 H 0.6106 0.11534 0.35901 0.0
H2027 H 0.59333 0.12948 0.38777 0.0
H2028 H 0.61417 0.14274 0.47757 0.0
H2029 H 0.5815 0.10994 0.50424 0.0
H2030 H 0.85674 0.72994 0.27804 0.0
H2031 H 0.87947 0.7064 0.30358 0.0
H2032 H 0.83227 0.70847 0.38713 0.0
H2033 H 0.80918 0.7313 0.36137 0.0
H2034 H 0.91121 0.70817 0.34682 0.0
H2035 H 0.82351 0.64037 0.39228 0.0
H2036 H 0.82106 0.66184 0.36588 0.0
H2037 H 0.82501 0.6705 0.40743 0.0
C2038 C 0.85078 0.72532 0.30181 0.0
C2039 C 0.83018 0.73302 0.31671 0.0
C2040 C 0.8642 0.71155 0.31688 0.0
C2041 C 0.85806 0.70415 0.34804 0.0
C2042 C 0.83775 0.7123 0.36304 0.0
H2043 H 0.97328 0.64936 0.4519 0.0
H2044 H 0.95159 0.67438 0.42763 0.0
C2045 C 0.82432 0.72599 0.34799 0.0
C2046 C 0.87284 0.68873 0.36447 0.0
H2047 H 0.864 0.64108 0.41217 0.0
C2048 C 0.90047 0.69354 0.36103 0.0
C2049 C 0.86023 0.66871 0.38323 0.0
C2050 C 0.83083 0.65982 0.38722 0.0
C2051 C 0.91497 0.68018 0.37526 0.0
C2052 C 0.90247 0.66077 0.39502 0.0
C2053 C 0.87479 0.6557 0.39797 0.0
C2054 C 0.91698 0.64512 0.41149 0.0
C2055 C 0.94387 0.68673 0.36764 0.0
C2056 C 0.90576 0.61949 0.4131 0.0
C2057 C 0.91834 0.60493 0.42772 0.0
C2058 C 0.94326 0.61462 0.44226 0.0
C2059 C 0.9545 0.64031 0.44116 0.0
C2060 C 0.94181 0.65496 0.42652 0.0
H2061 H 0.94897 0.69568 0.34529 0.0
H2062 H 0.95493 0.69976 0.38659 0.0
H2063 H 0.95038 0.6704 0.36559 0.0
H2064 H 0.88695 0.61027 0.40251 0.0
H2065 H 0.9082 0.58556 0.42746 0.0
H2066 H 0.32433 0.86794 0.31394 0.0
H2067 H 0.35044 0.90143 0.34911 0.0
H2068 H 0.34686 0.85132 0.41868 0.0
H2069 H 0.32148 0.81744 0.38296 0.0
H2070 H 0.34178 0.92073 0.40474 0.0
H2071 H 0.42413 0.88441 0.41401 0.0
H2072 H 0.39822 0.87095 0.38639 0.0
H2073 H 0.3933 0.86428 0.42694 0.0
C2074 C 0.32903 0.86396 0.33673 0.0
C2075 C 0.32091 0.83989 0.34549 0.0
C2076 C 0.34401 0.88321 0.35689 0.0
C2077 C 0.35116 0.87899 0.38644 0.0
C2078 C 0.34233 0.85507 0.3957 0.0
H2079 H 0.41975 1.00314 0.52538 0.0
H2080 H 0.38957 0.96706 0.49746 0.0
C2081 C 0.32761 0.83569 0.37532 0.0
C2082 C 0.36789 0.89972 0.40718 0.0
H2083 H 0.42569 0.92003 0.44639 0.0
C2084 C 0.36013 0.92055 0.41386 0.0
C2085 C 0.39205 0.89974 0.41883 0.0
C2086 C 0.40259 0.87877 0.41095 0.0
C2087 C 0.37585 0.94135 0.43145 0.0
C2088 C 0.39972 0.94115 0.44369 0.0
C2089 C 0.40733 0.92021 0.43731 0.0
C2090 C 0.41792 0.96285 0.46152 0.0
C2091 C 0.36714 0.96364 0.43556 0.0
C2092 C 0.44422 0.97213 0.45149 0.0
C2093 C 0.46159 0.99241 0.46778 0.0
C2094 C 0.45311 1.00414 0.49444 0.0
C2095 C 0.42683 0.99478 0.50469 0.0
C2096 C 0.4095 0.9742 0.48859 0.0
H2097 H 0.35276 0.9632 0.41761 0.0
H2098 H 0.35752 0.9644 0.459 0.0
H2099 H 0.38407 0.98055 0.43402 0.0
H2100 H 0.45132 0.96377 0.43079 0.0
H2101 H 0.48168 0.99906 0.4592 0.0
H2102 H 0.26312 0.3461 0.35803 0.0
H2103 H 0.23725 0.372 0.38007 0.0
H2104 H 0.18321 0.34421 0.30474 0.0
H2105 H 0.20869 0.31798 0.2833 0.0
H2106 H 0.22226 0.40873 0.37675 0.0
H2107 H 0.1246 0.34149 0.36 0.0
H2108 H 0.15379 0.33293 0.35356 0.0
H2109 H 0.14236 0.34662 0.32342 0.0
C2110 C 0.24563 0.34504 0.34582 0.0
C2111 C 0.23906 0.32861 0.31802 0.0
C2112 C 0.23028 0.36048 0.35888 0.0
C2113 C 0.20644 0.36106 0.34583 0.0
C2114 C 0.20016 0.34486 0.31766 0.0
H2115 H 0.08334 0.44187 0.39046 0.0
H2116 H 0.11024 0.41685 0.37014 0.0
C2117 C 0.21552 0.32943 0.30459 0.0
C2118 C 0.18926 0.37833 0.36095 0.0
H2119 H 0.12555 0.38183 0.37416 0.0
C2120 C 0.20107 0.40227 0.37596 0.0
C2121 C 0.16094 0.37188 0.36154 0.0
C2122 C 0.14457 0.34679 0.3491 0.0
C2123 C 0.18685 0.41876 0.3894 0.0
C2124 C 0.15851 0.41235 0.3898 0.0
C2125 C 0.14675 0.38836 0.37492 0.0
C2126 C 0.14109 0.42961 0.40422 0.0
C2127 C 0.20315 0.44376 0.40217 0.0
C2128 C 0.14702 0.44673 0.43172 0.0
C2129 C 0.13097 0.46191 0.44384 0.0
C2130 C 0.10709 0.4614 0.42992 0.0
C2131 C 0.10104 0.44404 0.40294 0.0
C2132 C 0.11701 0.42904 0.39086 0.0
H2133 H 0.2234 0.44891 0.39208 0.0
H2134 H 0.19427 0.45772 0.39707 0.0
H2135 H 0.20456 0.44392 0.42798 0.0
H2136 H 0.16414 0.44831 0.44489 0.0
H2137 H 0.13739 0.47403 0.46473 0.0
H2138 H 0.31754 0.20195 0.74138 0.0
H2139 H 0.34224 0.17766 0.71372 0.0
H2140 H 0.38166 0.23703 0.65747 0.0
H2141 H 0.35648 0.26168 0.68503 0.0
H2142 H 0.36812 0.1911 0.62224 0.0
H2143 H 0.4188 0.18818 0.73048 0.0
H2144 H 0.38378 0.17737 0.73499 0.0
H2145 H 0.4002 0.20869 0.72782 0.0
C2146 C 0.33137 0.21002 0.72309 0.0
C2147 C 0.33509 0.23407 0.71584 0.0
C2148 C 0.34564 0.196 0.70728 0.0
C2149 C 0.36435 0.20553 0.68385 0.0
C2150 C 0.3675 0.22921 0.67559 0.0
H2151 H 0.48823 0.14264 0.62993 0.0
H2152 H 0.46221 0.16889 0.64736 0.0
C2153 C 0.35307 0.24333 0.69142 0.0
C2154 C 0.38098 0.1909 0.66902 0.0
H2155 H 0.42299 0.16102 0.68712 0.0
C2156 C 0.38024 0.18464 0.6364 0.0
C2157 C 0.39716 0.18259 0.68723 0.0
C2158 C 0.4003 0.18973 0.72201 0.0
C2159 C 0.39466 0.16995 0.62179 0.0
C2160 C 0.41008 0.1609 0.64025 0.0
C2161 C 0.41111 0.1676 0.67275 0.0
C2162 C 0.42613 0.14525 0.62667 0.0
C2163 C 0.3936 0.16471 0.58661 0.0
C2164 C 0.41492 0.12303 0.60861 0.0
C2165 C 0.43001 0.10785 0.59828 0.0
C2166 C 0.45661 0.11435 0.6061 0.0
C2167 C 0.4678 0.13678 0.62361 0.0
C2168 C 0.45285 0.15193 0.63367 0.0
H2169 H 0.38789 0.17857 0.57517 0.0
H2170 H 0.41281 0.16415 0.57664 0.0
H2171 H 0.37875 0.14673 0.58077 0.0
H2172 H 0.3943 0.11702 0.60323 0.0
H2173 H 0.42068 0.09076 0.58486 0.0
H2174 H 0.85719 0.31464 0.69513 0.0
H2175 H 0.88542 0.34645 0.66335 0.0
H2176 H 0.84767 0.39688 0.70562 0.0
H2177 H 0.81975 0.36535 0.73764 0.0
H2178 H 0.87726 0.37361 0.61841 0.0
H2179 H 0.9226 0.43797 0.71849 0.0
H2180 H 0.90306 0.40689 0.72352 0.0
H2181 H 0.88753 0.4296 0.71973 0.0
C2182 C 0.85487 0.33249 0.69791 0.0
C2183 C 0.83594 0.33704 0.71958 0.0
C2184 C 0.87115 0.35087 0.67944 0.0
C2185 C 0.8695 0.37473 0.68202 0.0
C2186 C 0.85028 0.37913 0.70327 0.0
H2187 H 0.94368 0.51381 0.59853 0.0
H2188 H 0.91879 0.4797 0.62804 0.0
C2189 C 0.83395 0.36078 0.72162 0.0
C2190 C 0.88748 0.39478 0.66257 0.0
H2191 H 0.93002 0.45359 0.66825 0.0
C2192 C 0.88892 0.391 0.62949 0.0
C2193 C 0.9031 0.41783 0.67629 0.0
C2194 C 0.90427 0.42331 0.71145 0.0
C2195 C 0.90433 0.40941 0.61023 0.0
C2196 C 0.9197 0.43258 0.62397 0.0
C2197 C 0.91852 0.43618 0.65708 0.0
C2198 C 0.93596 0.45368 0.6048 0.0
C2199 C 0.90302 0.40409 0.57508 0.0
C2200 C 0.95485 0.45143 0.58141 0.0
C2201 C 0.96954 0.47139 0.56409 0.0
C2202 C 0.96601 0.49449 0.5695 0.0
C2203 C 0.94736 0.49663 0.59319 0.0
C2204 C 0.93288 0.47686 0.61041 0.0
H2205 H 0.88544 0.38852 0.56803 0.0
H2206 H 0.90263 0.42023 0.56345 0.0
H2207 H 0.9206 0.3993 0.56635 0.0
H2208 H 0.95853 0.43423 0.57661 0.0
H2209 H 0.98346 0.46861 0.54621 0.0
H2210 H 0.27601 0.7103 0.67762 0.0
H2211 H 0.2448 0.6804 0.64221 0.0
H2212 H 0.18152 0.70209 0.6868 0.0
H2213 H 0.21253 0.73214 0.72183 0.0
H2214 H 0.20335 0.6406 0.65333 0.0
H2215 H 0.16527 0.70364 0.59663 0.0
H2216 H 0.1941 0.71427 0.62042 0.0
H2217 H 0.16195 0.70629 0.63862 0.0
C2218 C 0.2555 0.70898 0.67972 0.0
C2219 C 0.24713 0.72406 0.70274 0.0
C2220 C 0.23751 0.69167 0.65939 0.0
C2221 C 0.21049 0.68891 0.66106 0.0
C2222 C 0.20213 0.70396 0.68406 0.0
H2223 H 0.06877 0.5909 0.56511 0.0
H2224 H 0.10059 0.62235 0.59808 0.0
C2225 C 0.22006 0.72121 0.70441 0.0
C2226 C 0.1911 0.66984 0.6397 0.0
H2227 H 0.14191 0.66143 0.58732 0.0
C2228 C 0.19009 0.6453 0.63876 0.0
C2229 C 0.17337 0.67548 0.62052 0.0
C2230 C 0.17382 0.70137 0.61878 0.0
C2231 C 0.17187 0.62653 0.62016 0.0
C2232 C 0.15418 0.63216 0.60091 0.0
C2233 C 0.1552 0.65673 0.60183 0.0
C2234 C 0.13457 0.61297 0.57987 0.0
C2235 C 0.17126 0.60064 0.62228 0.0
C2236 C 0.14257 0.59713 0.55767 0.0
C2237 C 0.12427 0.57895 0.53874 0.0
C2238 C 0.09719 0.57601 0.54091 0.0
C2239 C 0.08928 0.59232 0.56253 0.0
C2240 C 0.10762 0.61047 0.58155 0.0
H2241 H 0.17971 0.59848 0.64457 0.0
H2242 H 0.15096 0.5878 0.62069 0.0
H2243 H 0.18318 0.59553 0.60262 0.0
H2244 H 0.16312 0.59882 0.55481 0.0
H2245 H 0.13146 0.56708 0.52238 0.0
loop_
_geom_bond_atom_site_label_1
_geom_bond_atom_site_label_2
_geom_bond_distance
_geom_bond_site_symmetry_2
_ccdc_geom_bond_type
Tb0 C10 2.825 . S
Tb0 O11 2.347 . S
Tb0 O14 2.366 . S
Tb0 O19 2.418 . S
Tb0 O20 2.384 . S
Tb0 O23 2.479 . S
Tb0 O24 2.471 . S
Eu1 O12 2.418 . S
Eu1 O13 2.384 . S
Eu1 O16 2.479 . S
Eu1 O17 2.471 . S
Eu1 O18 2.347 . S
Eu1 O21 2.366 . S
Eu1 C31 2.825 . S
C2 O18 1.259 . S
C2 O19 1.265 . S
C3 O20 1.255 . S
C3 O21 1.265 . S
C4 C6 1.380 . S
C4 C7 1.374 . S
C4 C10 1.507 . S
C5 C6 1.384 . S
C5 C9 1.387 . S
C5 H32 0.930 . S
C6 C4 1.380 . S
C6 C5 1.384 . S
C6 H33 0.931 . S
C7 C4 1.374 . S
C7 C8 1.390 . S
C7 H34 0.930 . S
C8 C7 1.390 . S
C8 C9 1.391 . S
C8 H35 0.930 . S
C9 C5 1.387 . S
C9 C8 1.391 . S
C10 Tb0 2.825 . S
C10 C4 1.507 . S
C10 O23 1.238 . S
C10 O24 1.247 . S
O11 Tb0 2.347 . S
O11 C15 1.259 . S
O12 Eu1 2.418 . S
O12 C15 1.265 . S
O13 Eu1 2.384 . S
O13 C22 1.255 . S
O14 Tb0 2.366 . S
O14 C22 1.265 . S
C15 O11 1.259 . S
C15 O12 1.265 . S
O16 Eu1 2.479 . S
O16 C31 1.238 . S
O17 Eu1 2.471 . S
O17 C31 1.247 . S
O18 Eu1 2.347 . S
O18 C2 1.259 . S
O19 Tb0 2.418 . S
O19 C2 1.265 . S
O20 Tb0 2.384 . S
O20 C3 1.255 . S
O21 Eu1 2.366 . S
O21 C3 1.265 . S
C22 O13 1.255 . S
C22 O14 1.265 . S
O23 Tb0 2.479 . S
O23 C10 1.238 . S
O24 Tb0 2.471 . S
O24 C10 1.247 . S
C25 C28 1.380 . S
C25 C29 1.374 . S
C25 C31 1.507 . S
C26 C27 1.387 . S
C26 C30 1.391 . S
C27 C26 1.387 . S
C27 C28 1.384 . S
C27 H36 0.930 . S
C28 C25 1.380 . S
C28 C27 1.384 . S
C28 H37 0.931 . S
C29 C25 1.374 . S
C29 C30 1.390 . S
C29 H38 0.930 . S
C30 C26 1.391 . S
C30 C29 1.390 . S
C30 H39 0.930 . S
C31 Eu1 2.825 . S
C31 O16 1.238 . S
C31 O17 1.247 . S
C31 C25 1.507 . S
H32 C5 0.930 . S
H33 C6 0.931 . S
H34 C7 0.930 . S
H35 C8 0.930 . S
H36 C27 0.930 . S
H37 C28 0.931 . S
H38 C29 0.930 . S
H39 C30 0.930 . S
Tb40 C50 2.825 . S
Tb40 O51 2.347 . S
Tb40 O54 2.366 . S
Tb40 O59 2.418 . S
Tb40 O60 2.384 . S
Tb40 O63 2.479 . S
Tb40 O64 2.471 . S
Eu41 O52 2.418 . S
Eu41 O53 2.384 . S
Eu41 O56 2.479 . S
Eu41 O57 2.471 . S
Eu41 O58 2.347 . S
Eu41 O61 2.366 . S
Eu41 C71 2.825 . S
C42 O58 1.259 . S
C42 O59 1.265 . S
C43 O60 1.255 . S
C43 O61 1.265 . S
C44 C46 1.380 . S
C44 C47 1.374 . S
C44 C50 1.507 . S
C45 C46 1.384 . S
C45 C49 1.387 . S
C45 H72 0.930 . S
C46 C44 1.380 . S
C46 C45 1.384 . S
C46 H73 0.931 . S
C47 C44 1.374 . S
C47 C48 1.390 . S
C47 H74 0.930 . S
C48 C47 1.390 . S
C48 C49 1.391 . S
C48 H75 0.930 . S
C49 C45 1.387 . S
C49 C48 1.391 . S
C50 Tb40 2.825 . S
C50 C44 1.507 . S
C50 O63 1.238 . S
C50 O64 1.247 . S
O51 Tb40 2.347 . S
O51 C55 1.259 . S
O52 Eu41 2.418 . S
O52 C55 1.265 . S
O53 Eu41 2.384 . S
O53 C62 1.255 . S
O54 Tb40 2.366 . S
O54 C62 1.265 . S
C55 O51 1.259 . S
C55 O52 1.265 . S
O56 Eu41 2.479 . S
O56 C71 1.238 . S
O57 Eu41 2.471 . S
O57 C71 1.247 . S
O58 Eu41 2.347 . S
O58 C42 1.259 . S
O59 Tb40 2.418 . S
O59 C42 1.265 . S
O60 Tb40 2.384 . S
O60 C43 1.255 . S
O61 Eu41 2.366 . S
O61 C43 1.265 . S
C62 O53 1.255 . S
C62 O54 1.265 . S
O63 Tb40 2.479 . S
O63 C50 1.238 . S
O64 Tb40 2.471 . S
O64 C50 1.247 . S
C65 C68 1.380 . S
C65 C69 1.374 . S
C65 C71 1.507 . S
C66 C67 1.387 . S
C66 C70 1.391 . S
C67 C66 1.387 . S
C67 C68 1.384 . S
C67 H76 0.930 . S
C68 C65 1.380 . S
C68 C67 1.384 . S
C68 H77 0.931 . S
C69 C65 1.374 . S
C69 C70 1.390 . S
C69 H78 0.930 . S
C70 C66 1.391 . S
C70 C69 1.390 . S
C70 H79 0.930 . S
C71 Eu41 2.825 . S
C71 O56 1.238 . S
C71 O57 1.247 . S
C71 C65 1.507 . S
H72 C45 0.930 . S
H73 C46 0.931 . S
H74 C47 0.930 . S
H75 C48 0.930 . S
H76 C67 0.930 . S
H77 C68 0.931 . S
H78 C69 0.930 . S
H79 C70 0.930 . S
Tb80 C90 2.825 . S
Tb80 O91 2.347 . S
Tb80 O94 2.366 . S
Tb80 O99 2.418 . S
Tb80 O100 2.384 . S
Tb80 O103 2.479 . S
Tb80 O104 2.471 . S
Eu81 O92 2.418 . S
Eu81 O93 2.384 . S
Eu81 O96 2.479 . S
Eu81 O97 2.471 . S
Eu81 O98 2.347 . S
Eu81 O101 2.366 . S
Eu81 C111 2.825 . S
C82 O98 1.259 . S
C82 O99 1.265 . S
C83 O100 1.255 . S
C83 O101 1.265 . S
C84 C86 1.380 . S
C84 C87 1.374 . S
C84 C90 1.507 . S
C85 C86 1.384 . S
C85 C89 1.387 . S
C85 H112 0.930 . S
C86 C84 1.380 . S
C86 C85 1.384 . S
C86 H113 0.931 . S
C87 C84 1.374 . S
C87 C88 1.390 . S
C87 H114 0.930 . S
C88 C87 1.390 . S
C88 C89 1.391 . S
C88 H115 0.930 . S
C89 C85 1.387 . S
C89 C88 1.391 . S
C90 Tb80 2.825 . S
C90 C84 1.507 . S
C90 O103 1.238 . S
C90 O104 1.247 . S
O91 Tb80 2.347 . S
O91 C95 1.259 . S
O92 Eu81 2.418 . S
O92 C95 1.265 . S
O93 Eu81 2.384 . S
O93 C102 1.255 . S
O94 Tb80 2.366 . S
O94 C102 1.265 . S
C95 O91 1.259 . S
C95 O92 1.265 . S
O96 Eu81 2.479 . S
O96 C111 1.238 . S
O97 Eu81 2.471 . S
O97 C111 1.247 . S
O98 Eu81 2.347 . S
O98 C82 1.259 . S
O99 Tb80 2.418 . S
O99 C82 1.265 . S
O100 Tb80 2.384 . S
O100 C83 1.255 . S
O101 Eu81 2.366 . S
O101 C83 1.265 . S
C102 O93 1.255 . S
C102 O94 1.265 . S
O103 Tb80 2.479 . S
O103 C90 1.238 . S
O104 Tb80 2.471 . S
O104 C90 1.247 . S
C105 C108 1.380 . S
C105 C109 1.374 . S
C105 C111 1.507 . S
C106 C107 1.387 . S
C106 C110 1.391 . S
C107 C106 1.387 . S
C107 C108 1.384 . S
C107 H116 0.930 . S
C108 C105 1.380 . S
C108 C107 1.384 . S
C108 H117 0.931 . S
C109 C105 1.374 . S
C109 C110 1.390 . S
C109 H118 0.930 . S
C110 C106 1.391 . S
C110 C109 1.390 . S
C110 H119 0.930 . S
C111 Eu81 2.825 . S
C111 O96 1.238 . S
C111 O97 1.247 . S
C111 C105 1.507 . S
H112 C85 0.930 . S
H113 C86 0.931 . S
H114 C87 0.930 . S
H115 C88 0.930 . S
H116 C107 0.930 . S
H117 C108 0.931 . S
H118 C109 0.930 . S
H119 C110 0.930 . S
Tb120 C130 2.825 . S
Tb120 O131 2.347 . S
Tb120 O134 2.366 . S
Tb120 O139 2.418 . S
Tb120 O140 2.384 . S
Tb120 O143 2.479 . S
Tb120 O144 2.471 . S
Eu121 O132 2.418 . S
Eu121 O133 2.384 . S
Eu121 O136 2.479 . S
Eu121 O137 2.471 . S
Eu121 O138 2.347 . S
Eu121 O141 2.366 . S
Eu121 C151 2.825 . S
C122 O138 1.259 . S
C122 O139 1.265 . S
C123 O140 1.255 . S
C123 O141 1.265 . S
C124 C126 1.380 . S
C124 C127 1.374 . S
C124 C130 1.507 . S
C125 C126 1.384 . S
C125 C129 1.387 . S
C125 H152 0.930 . S
C126 C124 1.380 . S
C126 C125 1.384 . S
C126 H153 0.931 . S
C127 C124 1.374 . S
C127 C128 1.390 . S
C127 H154 0.930 . S
C128 C127 1.390 . S
C128 C129 1.391 . S
C128 H155 0.930 . S
C129 C125 1.387 . S
C129 C128 1.391 . S
C130 Tb120 2.825 . S
C130 C124 1.507 . S
C130 O143 1.238 . S
C130 O144 1.247 . S
O131 Tb120 2.347 . S
O131 C135 1.259 . S
O132 Eu121 2.418 . S
O132 C135 1.265 . S
O133 Eu121 2.384 . S
O133 C142 1.255 . S
O134 Tb120 2.366 . S
O134 C142 1.265 . S
C135 O131 1.259 . S
C135 O132 1.265 . S
O136 Eu121 2.479 . S
O136 C151 1.238 . S
O137 Eu121 2.471 . S
O137 C151 1.247 . S
O138 Eu121 2.347 . S
O138 C122 1.259 . S
O139 Tb120 2.418 . S
O139 C122 1.265 . S
O140 Tb120 2.384 . S
O140 C123 1.255 . S
O141 Eu121 2.366 . S
O141 C123 1.265 . S
C142 O133 1.255 . S
C142 O134 1.265 . S
O143 Tb120 2.479 . S
O143 C130 1.238 . S
O144 Tb120 2.471 . S
O144 C130 1.247 . S
C145 C148 1.380 . S
C145 C149 1.374 . S
C145 C151 1.507 . S
C146 C147 1.387 . S
C146 C150 1.391 . S
C147 C146 1.387 . S
C147 C148 1.384 . S
C147 H156 0.930 . S
C148 C145 1.380 . S
C148 C147 1.384 . S
C148 H157 0.931 . S
C149 C145 1.374 . S
C149 C150 1.390 . S
C149 H158 0.930 . S
C150 C146 1.391 . S
C150 C149 1.390 . S
C150 H159 0.930 . S
C151 Eu121 2.825 . S
C151 O136 1.238 . S
C151 O137 1.247 . S
C151 C145 1.507 . S
H152 C125 0.930 . S
H153 C126 0.931 . S
H154 C127 0.930 . S
H155 C128 0.930 . S
H156 C147 0.930 . S
H157 C148 0.931 . S
H158 C149 0.930 . S
H159 C150 0.930 . S
Tb160 C170 2.825 . S
Tb160 O171 2.347 . S
Tb160 O174 2.366 . S
Tb160 O179 2.418 . S
Tb160 O180 2.384 . S
Tb160 O183 2.479 . S
Tb160 O184 2.471 . S
Eu161 O172 2.418 . S
Eu161 O173 2.384 . S
Eu161 O176 2.479 . S
Eu161 O177 2.471 . S
Eu161 O178 2.347 . S
Eu161 O181 2.366 . S
Eu161 C191 2.825 . S
C162 O178 1.259 . S
C162 O179 1.265 . S
C163 O180 1.255 . S
C163 O181 1.265 . S
C164 C166 1.380 . S
C164 C167 1.374 . S
C164 C170 1.507 . S
C165 C166 1.384 . S
C165 C169 1.387 . S
C165 H192 0.930 . S
C166 C164 1.380 . S
C166 C165 1.384 . S
C166 H193 0.931 . S
C167 C164 1.374 . S
C167 C168 1.390 . S
C167 H194 0.930 . S
C168 C167 1.390 . S
C168 C169 1.391 . S
C168 H195 0.930 . S
C169 C165 1.387 . S
C169 C168 1.391 . S
C170 Tb160 2.825 . S
C170 C164 1.507 . S
C170 O183 1.238 . S
C170 O184 1.247 . S
O171 Tb160 2.347 . S
O171 C175 1.259 . S
O172 Eu161 2.418 . S
O172 C175 1.265 . S
O173 Eu161 2.384 . S
O173 C182 1.255 . S
O174 Tb160 2.366 . S
O174 C182 1.265 . S
C175 O171 1.259 . S
C175 O172 1.265 . S
O176 Eu161 2.479 . S
O176 C191 1.238 . S
O177 Eu161 2.471 . S
O177 C191 1.247 . S
O178 Eu161 2.347 . S
O178 C162 1.259 . S
O179 Tb160 2.418 . S
O179 C162 1.265 . S
O180 Tb160 2.384 . S
O180 C163 1.255 . S
O181 Eu161 2.366 . S
O181 C163 1.265 . S
C182 O173 1.255 . S
C182 O174 1.265 . S
O183 Tb160 2.479 . S
O183 C170 1.238 . S
O184 Tb160 2.471 . S
O184 C170 1.247 . S
C185 C188 1.380 . S
C185 C189 1.374 . S
C185 C191 1.507 . S
C186 C187 1.387 . S
C186 C190 1.391 . S
C187 C186 1.387 . S
C187 C188 1.384 . S
C187 H196 0.930 . S
C188 C185 1.380 . S
C188 C187 1.384 . S
C188 H197 0.931 . S
C189 C185 1.374 . S
C189 C190 1.390 . S
C189 H198 0.930 . S
C190 C186 1.391 . S
C190 C189 1.390 . S
C190 H199 0.930 . S
C191 Eu161 2.825 . S
C191 O176 1.238 . S
C191 O177 1.247 . S
C191 C185 1.507 . S
H192 C165 0.930 . S
H193 C166 0.931 . S
H194 C167 0.930 . S
H195 C168 0.930 . S
H196 C187 0.930 . S
H197 C188 0.931 . S
H198 C189 0.930 . S
H199 C190 0.930 . S
Tb200 C210 2.825 . S
Tb200 O211 2.347 . S
Tb200 O214 2.366 . S
Tb200 O219 2.418 . S
Tb200 O220 2.384 . S
Tb200 O223 2.479 . S
Tb200 O224 2.471 . S
Eu201 O212 2.418 . S
Eu201 O213 2.384 . S
Eu201 O216 2.479 . S
Eu201 O217 2.471 . S
Eu201 O218 2.347 . S
Eu201 O221 2.366 . S
Eu201 C231 2.825 . S
C202 O218 1.259 . S
C202 O219 1.265 . S
C203 O220 1.255 . S
C203 O221 1.265 . S
C204 C206 1.380 . S
C204 C207 1.374 . S
C204 C210 1.507 . S
C205 C206 1.384 . S
C205 C209 1.387 . S
C205 H232 0.930 . S
C206 C204 1.380 . S
C206 C205 1.384 . S
C206 H233 0.931 . S
C207 C204 1.374 . S
C207 C208 1.390 . S
C207 H234 0.930 . S
C208 C207 1.390 . S
C208 C209 1.391 . S
C208 H235 0.930 . S
C209 C205 1.387 . S
C209 C208 1.391 . S
C210 Tb200 2.825 . S
C210 C204 1.507 . S
C210 O223 1.238 . S
C210 O224 1.247 . S
O211 Tb200 2.347 . S
O211 C215 1.259 . S
O212 Eu201 2.418 . S
O212 C215 1.265 . S
O213 Eu201 2.384 . S
O213 C222 1.255 . S
O214 Tb200 2.366 . S
O214 C222 1.265 . S
C215 O211 1.259 . S
C215 O212 1.265 . S
O216 Eu201 2.479 . S
O216 C231 1.238 . S
O217 Eu201 2.471 . S
O217 C231 1.247 . S
O218 Eu201 2.347 . S
O218 C202 1.259 . S
O219 Tb200 2.418 . S
O219 C202 1.265 . S
O220 Tb200 2.384 . S
O220 C203 1.255 . S
O221 Eu201 2.366 . S
O221 C203 1.265 . S
C222 O213 1.255 . S
C222 O214 1.265 . S
O223 Tb200 2.479 . S
O223 C210 1.238 . S
O224 Tb200 2.471 . S
O224 C210 1.247 . S
C225 C228 1.380 . S
C225 C229 1.374 . S
C225 C231 1.507 . S
C226 C227 1.387 . S
C226 C230 1.391 . S
C227 C226 1.387 . S
C227 C228 1.384 . S
C227 H236 0.930 . S
C228 C225 1.380 . S
C228 C227 1.384 . S
C228 H237 0.931 . S
C229 C225 1.374 . S
C229 C230 1.390 . S
C229 H238 0.930 . S
C230 C226 1.391 . S
C230 C229 1.390 . S
C230 H239 0.930 . S
C231 Eu201 2.825 . S
C231 O216 1.238 . S
C231 O217 1.247 . S
C231 C225 1.507 . S
H232 C205 0.930 . S
H233 C206 0.931 . S
H234 C207 0.930 . S
H235 C208 0.930 . S
H236 C227 0.930 . S
H237 C228 0.931 . S
H238 C229 0.930 . S
H239 C230 0.930 . S
Tb240 C250 2.825 . S
Tb240 O251 2.347 . S
Tb240 O254 2.366 . S
Tb240 O259 2.418 . S
Tb240 O260 2.384 . S
Tb240 O263 2.479 . S
Tb240 O264 2.471 . S
Eu241 O252 2.418 . S
Eu241 O253 2.384 . S
Eu241 O256 2.479 . S
Eu241 O257 2.471 . S
Eu241 O258 2.347 . S
Eu241 O261 2.366 . S
Eu241 C271 2.825 . S
C242 O258 1.259 . S
C242 O259 1.265 . S
C243 O260 1.255 . S
C243 O261 1.265 . S
C244 C246 1.380 . S
C244 C247 1.374 . S
C244 C250 1.507 . S
C245 C246 1.384 . S
C245 C249 1.387 . S
C245 H272 0.930 . S
C246 C244 1.380 . S
C246 C245 1.384 . S
C246 H273 0.931 . S
C247 C244 1.374 . S
C247 C248 1.390 . S
C247 H274 0.930 . S
C248 C247 1.390 . S
C248 C249 1.391 . S
C248 H275 0.930 . S
C249 C245 1.387 . S
C249 C248 1.391 . S
C250 Tb240 2.825 . S
C250 C244 1.507 . S
C250 O263 1.238 . S
C250 O264 1.247 . S
O251 Tb240 2.347 . S
O251 C255 1.259 . S
O252 Eu241 2.418 . S
O252 C255 1.265 . S
O253 Eu241 2.384 . S
O253 C262 1.255 . S
O254 Tb240 2.366 . S
O254 C262 1.265 . S
C255 O251 1.259 . S
C255 O252 1.265 . S
O256 Eu241 2.479 . S
O256 C271 1.238 . S
O257 Eu241 2.471 . S
O257 C271 1.247 . S
O258 Eu241 2.347 . S
O258 C242 1.259 . S
O259 Tb240 2.418 . S
O259 C242 1.265 . S
O260 Tb240 2.384 . S
O260 C243 1.255 . S
O261 Eu241 2.366 . S
O261 C243 1.265 . S
C262 O253 1.255 . S
C262 O254 1.265 . S
O263 Tb240 2.479 . S
O263 C250 1.238 . S
O264 Tb240 2.471 . S
O264 C250 1.247 . S
C265 C268 1.380 . S
C265 C269 1.374 . S
C265 C271 1.507 . S
C266 C267 1.387 . S
C266 C270 1.391 . S
C267 C266 1.387 . S
C267 C268 1.384 . S
C267 H276 0.930 . S
C268 C265 1.380 . S
C268 C267 1.384 . S
C268 H277 0.931 . S
C269 C265 1.374 . S
C269 C270 1.390 . S
C269 H278 0.930 . S
C270 C266 1.391 . S
C270 C269 1.390 . S
C270 H279 0.930 . S
C271 Eu241 2.825 . S
C271 O256 1.238 . S
C271 O257 1.247 . S
C271 C265 1.507 . S
H272 C245 0.930 . S
H273 C246 0.931 . S
H274 C247 0.930 . S
H275 C248 0.930 . S
H276 C267 0.930 . S
H277 C268 0.931 . S
H278 C269 0.930 . S
H279 C270 0.930 . S
Tb280 C290 2.825 . S
Tb280 O291 2.347 . S
Tb280 O294 2.366 . S
Tb280 O299 2.418 . S
Tb280 O300 2.384 . S
Tb280 O303 2.479 . S
Tb280 O304 2.471 . S
Eu281 O292 2.418 . S
Eu281 O293 2.384 . S
Eu281 O296 2.479 . S
Eu281 O297 2.471 . S
Eu281 O298 2.347 . S
Eu281 O301 2.366 . S
Eu281 C311 2.825 . S
C282 O298 1.259 . S
C282 O299 1.265 . S
C283 O300 1.255 . S
C283 O301 1.265 . S
C284 C286 1.380 . S
C284 C287 1.374 . S
C284 C290 1.507 . S
C285 C286 1.384 . S
C285 C289 1.387 . S
C285 H312 0.930 . S
C286 C284 1.380 . S
C286 C285 1.384 . S
C286 H313 0.931 . S
C287 C284 1.374 . S
C287 C288 1.390 . S
C287 H314 0.930 . S
C288 C287 1.390 . S
C288 C289 1.391 . S
C288 H315 0.930 . S
C289 C285 1.387 . S
C289 C288 1.391 . S
C290 Tb280 2.825 . S
C290 C284 1.507 . S
C290 O303 1.238 . S
C290 O304 1.247 . S
O291 Tb280 2.347 . S
O291 C295 1.259 . S
O292 Eu281 2.418 . S
O292 C295 1.265 . S
O293 Eu281 2.384 . S
O293 C302 1.255 . S
O294 Tb280 2.366 . S
O294 C302 1.265 . S
C295 O291 1.259 . S
C295 O292 1.265 . S
O296 Eu281 2.479 . S
O296 C311 1.238 . S
O297 Eu281 2.471 . S
O297 C311 1.247 . S
O298 Eu281 2.347 . S
O298 C282 1.259 . S
O299 Tb280 2.418 . S
O299 C282 1.265 . S
O300 Tb280 2.384 . S
O300 C283 1.255 . S
O301 Eu281 2.366 . S
O301 C283 1.265 . S
C302 O293 1.255 . S
C302 O294 1.265 . S
O303 Tb280 2.479 . S
O303 C290 1.238 . S
O304 Tb280 2.471 . S
O304 C290 1.247 . S
C305 C308 1.380 . S
C305 C309 1.374 . S
C305 C311 1.507 . S
C306 C307 1.387 . S
C306 C310 1.391 . S
C307 C306 1.387 . S
C307 C308 1.384 . S
C307 H316 0.930 . S
C308 C305 1.380 . S
C308 C307 1.384 . S
C308 H317 0.931 . S
C309 C305 1.374 . S
C309 C310 1.390 . S
C309 H318 0.930 . S
C310 C306 1.391 . S
C310 C309 1.390 . S
C310 H319 0.930 . S
C311 Eu281 2.825 . S
C311 O296 1.238 . S
C311 O297 1.247 . S
C311 C305 1.507 . S
H312 C285 0.930 . S
H313 C286 0.931 . S
H314 C287 0.930 . S
H315 C288 0.930 . S
H316 C307 0.930 . S
H317 C308 0.931 . S
H318 C309 0.930 . S
H319 C310 0.930 . S
Co320 O323 2.042 . S
Co320 O330 2.264 . S
Co320 O349 2.286 . S
Co320 O350 2.069 . S
Co320 O352 2.015 1_455 S
Co321 O323 2.122 . S
Co321 O329 2.073 . S
Co321 O330 2.327 . S
Co321 O331 1.976 1_455 S
Co322 O323 2.087 1_545 S
Co322 O325 2.087 1_455 S
Co322 O332 2.100 1_445 S
Co322 O333 2.143 . S
Co322 O337 2.111 . S
Co322 O351 2.143 1_445 S
O323 Co320 2.042 . S
O323 Co321 2.122 . S
O323 Co322 2.087 1_565 S
O323 H324 0.980 1_565 S
H324 O323 0.980 1_545 S
O325 Co322 2.087 1_655 S
O325 Co326 2.042 . S
O325 Co327 2.122 . S
O325 H328 0.980 . S
Co326 O325 2.042 . S
Co326 O334 2.286 . S
Co326 O335 2.069 . S
Co326 O336 2.015 1_655 S
Co326 O339 2.264 . S
Co327 O325 2.122 . S
Co327 O338 1.976 1_655 S
Co327 O339 2.327 . S
Co327 O340 2.073 . S
H328 O325 0.980 . S
O329 Co321 2.073 . S
O329 C344 1.245 . S
O330 Co320 2.264 . S
O330 Co321 2.327 . S
O330 C344 1.257 . S
O331 Co321 1.976 1_655 S
O331 C343 1.251 . S
O332 Co322 2.100 1_665 S
O332 C343 1.310 . S
O333 Co322 2.143 . S
O333 C346 1.246 . S
O334 Co326 2.286 . S
O334 C345 1.259 . S
O335 Co326 2.069 . S
O335 C345 1.289 . S
O336 Co326 2.015 1_455 S
O336 C346 1.257 . S
O337 Co322 2.111 . S
O337 C347 1.274 . S
O338 Co327 1.976 1_455 S
O338 C347 1.251 . S
O339 Co326 2.264 . S
O339 Co327 2.327 . S
O339 C348 1.257 . S
O340 Co327 2.073 . S
O340 C348 1.245 . S
C341 O349 1.259 . S
C341 O350 1.289 . S
C342 O351 1.246 . S
C342 O352 1.257 . S
C343 O331 1.251 . S
C343 O332 1.310 . S
C344 O329 1.245 . S
C344 O330 1.257 . S
C345 O334 1.259 . S
C345 O335 1.289 . S
C346 O333 1.246 . S
C346 O336 1.257 . S
C347 O337 1.274 . S
C347 O338 1.251 . S
C348 O339 1.257 . S
C348 O340 1.245 . S
O349 Co320 2.286 . S
O349 C341 1.259 . S
O350 Co320 2.069 . S
O350 C341 1.289 . S
O351 Co322 2.143 1_665 S
O351 C342 1.246 . S
O352 Co320 2.015 1_655 S
O352 C342 1.257 . S
Co353 O356 2.042 . S
Co353 O363 2.264 . S
Co353 O382 2.286 1_554 S
Co353 O383 2.069 . S
Co353 O385 2.015 . S
Co354 O356 2.122 . S
Co354 O362 2.073 . S
Co354 O363 2.327 . S
Co354 O364 1.976 . S
Co355 O356 2.087 1_545 S
Co355 O358 2.087 . S
Co355 O365 2.111 1_545 S
Co355 O366 2.143 . S
Co355 O370 2.111 . S
Co355 O384 2.143 1_545 S
O356 Co353 2.042 . S
O356 Co354 2.122 . S
O356 Co355 2.087 1_565 S
O356 H357 0.980 . S
H357 O356 0.980 . S
O358 Co355 2.087 . S
O358 Co359 2.042 . S
O358 Co360 2.122 1_554 S
O358 H361 0.980 . S
Co359 O358 2.042 . S
Co359 O367 2.286 . S
Co359 O368 2.069 . S
Co359 O369 2.015 . S
Co359 O372 2.264 . S
Co360 O358 2.122 1_556 S
Co360 O371 1.976 . S
Co360 O372 2.327 1_556 S
Co360 O373 2.073 . S
H361 O358 0.980 . S
O362 Co354 2.073 . S
O362 C377 1.245 . S
O363 Co353 2.264 . S
O363 Co354 2.327 . S
O363 C377 1.257 . S
O364 Co354 1.976 . S
O364 C376 1.251 . S
O365 Co355 2.111 1_565 S
O365 C376 1.274 . S
O366 Co355 2.143 . S
O366 C379 1.246 . S
O367 Co359 2.286 . S
O367 C378 1.259 . S
O368 Co359 2.069 . S
O368 C378 1.289 . S
O369 Co359 2.015 . S
O369 C379 1.257 . S
O370 Co355 2.111 . S
O370 C380 1.274 1_554 S
O371 Co360 1.976 . S
O371 C380 1.251 . S
O372 Co359 2.264 . S
O372 Co360 2.327 1_554 S
O372 C381 1.273 . S
O373 Co360 2.073 . S
O373 C381 1.226 1_556 S
C374 O382 1.259 . S
C374 O383 1.289 1_556 S
C375 O384 1.246 1_556 S
C375 O385 1.257 1_556 S
C376 O364 1.251 . S
C376 O365 1.274 . S
C377 O362 1.245 . S
C377 O363 1.257 . S
C378 O367 1.259 . S
C378 O368 1.289 . S
C379 O366 1.246 . S
C379 O369 1.257 . S
C380 O370 1.274 1_556 S
C380 O371 1.251 . S
C381 O372 1.273 . S
C381 O373 1.226 1_554 S
O382 Co353 2.286 1_556 S
O382 C374 1.259 . S
O383 Co353 2.069 . S
O383 C374 1.289 1_554 S
O384 Co355 2.143 1_565 S
O384 C375 1.246 1_554 S
O385 Co353 2.015 . S
O385 C375 1.257 1_554 S
Co386 O389 2.042 1_556 S
Co386 O396 2.264 1_556 S
Co386 O415 2.286 . S
Co386 O416 2.069 . S
Co386 O418 2.015 . S
Co387 O389 2.122 . S
Co387 O395 2.073 . S
Co387 O396 2.327 . S
Co387 O397 1.976 . S
Co388 O389 2.087 . S
Co388 O391 2.087 1_554 S
Co388 O398 2.111 . S
Co388 O399 2.143 . S
Co388 O403 2.111 1_554 S
Co388 O417 2.143 1_554 S
O389 Co386 2.042 1_554 S
O389 Co387 2.122 . S
O389 Co388 2.087 . S
O389 H390 0.980 . S
H390 O389 0.980 . S
O391 Co388 2.087 1_556 S
O391 Co392 2.042 1_556 S
O391 Co393 2.122 . S
O391 H394 0.980 1_455 S
Co392 O391 2.042 1_554 S
Co392 O400 2.286 . S
Co392 O401 2.069 1_455 S
Co392 O402 2.015 . S
Co392 O405 2.264 1_554 S
Co393 O391 2.122 . S
Co393 O404 1.976 . S
Co393 O405 2.327 . S
Co393 O406 2.073 1_455 S
H394 O391 0.980 1_655 S
O395 Co387 2.073 . S
O395 C410 1.245 . S
O396 Co386 2.264 1_554 S
O396 Co387 2.327 . S
O396 C410 1.257 . S
O397 Co387 1.976 . S
O397 C409 1.251 1_455 S
O398 Co388 2.111 . S
O398 C409 1.274 1_455 S
O399 Co388 2.143 . S
O399 C412 1.246 . S
O400 Co392 2.286 . S
O400 C411 1.259 1_455 S
O401 Co392 2.069 1_655 S
O401 C411 1.289 . S
O402 Co392 2.015 . S
O402 C412 1.257 . S
O403 Co388 2.111 1_556 S
O403 C413 1.274 . S
O404 Co393 1.976 . S
O404 C413 1.251 . S
O405 Co392 2.264 1_556 S
O405 Co393 2.327 . S
O405 C414 1.257 1_455 S
O406 Co393 2.073 1_655 S
O406 C414 1.245 . S
C407 O415 1.259 . S
C407 O416 1.289 . S
C408 O417 1.246 1_655 S
C408 O418 1.257 1_655 S
C409 O397 1.251 1_655 S
C409 O398 1.274 1_655 S
C410 O395 1.245 . S
C410 O396 1.257 . S
C411 O400 1.259 1_655 S
C411 O401 1.289 . S
C412 O399 1.246 . S
C412 O402 1.257 . S
C413 O403 1.274 . S
C413 O404 1.251 . S
C414 O405 1.257 1_655 S
C414 O406 1.245 . S
O415 Co386 2.286 . S
O415 C407 1.259 . S
O416 Co386 2.069 . S
O416 C407 1.289 . S
O417 Co388 2.143 1_556 S
O417 C408 1.246 1_455 S
O418 Co386 2.015 . S
O418 C408 1.257 1_455 S
Co419 O422 2.042 1_556 S
Co419 O429 2.264 1_556 S
Co419 O448 2.286 . S
Co419 O449 2.069 . S
Co419 O451 2.015 . S
Co420 O422 2.122 . S
Co420 O428 2.073 . S
Co420 O429 2.327 . S
Co420 O430 1.976 . S
Co421 O422 2.087 . S
Co421 O424 2.087 . S
Co421 O431 2.111 . S
Co421 O432 2.143 . S
Co421 O436 2.111 1_554 S
Co421 O450 2.143 1_554 S
O422 Co419 2.042 1_554 S
O422 Co420 2.122 . S
O422 Co421 2.087 . S
O422 H423 0.980 . S
H423 O422 0.980 . S
O424 Co421 2.087 . S
O424 Co425 2.042 . S
O424 Co426 2.122 1_554 S
O424 H427 0.980 . S
Co425 O424 2.042 . S
Co425 O433 2.286 . S
Co425 O434 2.069 . S
Co425 O435 2.015 . S
Co425 O438 2.264 1_554 S
Co426 O424 2.122 1_556 S
Co426 O437 1.976 . S
Co426 O438 2.327 . S
Co426 O439 2.073 . S
H427 O424 0.980 . S
O428 Co420 2.073 . S
O428 C443 1.245 . S
O429 Co419 2.264 1_554 S
O429 Co420 2.327 . S
O429 C443 1.257 . S
O430 Co420 1.976 . S
O430 C442 1.251 . S
O431 Co421 2.111 . S
O431 C442 1.274 . S
O432 Co421 2.143 . S
O432 C445 1.246 . S
O433 Co425 2.286 . S
O433 C444 1.259 . S
O434 Co425 2.069 . S
O434 C444 1.289 . S
O435 Co425 2.015 . S
O435 C445 1.257 . S
O436 Co421 2.111 1_556 S
O436 C446 1.274 . S
O437 Co426 1.976 . S
O437 C446 1.251 . S
O438 Co425 2.264 1_556 S
O438 Co426 2.327 . S
O438 C447 1.257 . S
O439 Co426 2.073 . S
O439 C447 1.245 . S
C440 O448 1.259 . S
C440 O449 1.289 . S
C441 O450 1.246 . S
C441 O451 1.257 . S
C442 O430 1.251 . S
C442 O431 1.274 . S
C443 O428 1.245 . S
C443 O429 1.257 . S
C444 O433 1.259 . S
C444 O434 1.289 . S
C445 O432 1.246 . S
C445 O435 1.257 . S
C446 O436 1.274 . S
C446 O437 1.251 . S
C447 O438 1.257 . S
C447 O439 1.245 . S
O448 Co419 2.286 . S
O448 C440 1.259 . S
O449 Co419 2.069 . S
O449 C440 1.289 . S
O450 Co421 2.143 1_556 S
O450 C441 1.246 . S
O451 Co419 2.015 . S
O451 C441 1.257 . S
Co452 O455 2.042 . S
Co452 O462 2.264 . S
Co452 O481 2.286 . S
Co452 O482 2.069 . S
Co452 O484 2.015 . S
Co453 O455 2.122 . S
Co453 O461 2.073 . S
Co453 O462 2.327 . S
Co453 O463 1.976 . S
Co454 O455 2.087 . S
Co454 O457 2.087 1_455 S
Co454 O464 2.111 . S
Co454 O465 2.143 1_455 S
Co454 O469 2.111 1_455 S
Co454 O483 2.143 . S
O455 Co452 2.042 . S
O455 Co453 2.122 . S
O455 Co454 2.087 . S
O455 H456 0.980 . S
H456 O455 0.980 . S
O457 Co454 2.087 1_655 S
O457 Co458 2.042 . S
O457 Co459 2.122 . S
O457 H460 0.980 . S
Co458 O457 2.042 . S
Co458 O466 2.286 . S
Co458 O467 2.069 . S
Co458 O468 2.015 . S
Co458 O471 2.264 . S
Co459 O457 2.122 . S
Co459 O470 1.976 . S
Co459 O471 2.327 . S
Co459 O472 2.073 . S
H460 O457 0.980 . S
O461 Co453 2.073 . S
O461 C476 1.245 . S
O462 Co452 2.264 . S
O462 Co453 2.327 . S
O462 C476 1.257 . S
O463 Co453 1.976 . S
O463 C475 1.251 . S
O464 Co454 2.111 . S
O464 C475 1.274 . S
O465 Co454 2.143 1_655 S
O465 C478 1.246 . S
O466 Co458 2.286 . S
O466 C477 1.259 . S
O467 Co458 2.069 . S
O467 C477 1.289 . S
O468 Co458 2.015 . S
O468 C478 1.257 . S
O469 Co454 2.111 1_655 S
O469 C479 1.274 . S
O470 Co459 1.976 . S
O470 C479 1.251 . S
O471 Co458 2.264 . S
O471 Co459 2.327 . S
O471 C480 1.257 . S
O472 Co459 2.073 . S
O472 C480 1.245 . S
C473 O481 1.259 . S
C473 O482 1.289 . S
C474 O483 1.246 . S
C474 O484 1.257 . S
C475 O463 1.251 . S
C475 O464 1.274 . S
C476 O461 1.245 . S
C476 O462 1.257 . S
C477 O466 1.259 . S
C477 O467 1.289 . S
C478 O465 1.246 . S
C478 O468 1.257 . S
C479 O469 1.274 . S
C479 O470 1.251 . S
C480 O471 1.257 . S
C480 O472 1.245 . S
O481 Co452 2.286 . S
O481 C473 1.259 . S
O482 Co452 2.069 . S
O482 C473 1.289 . S
O483 Co454 2.143 . S
O483 C474 1.246 . S
O484 Co452 2.015 . S
O484 C474 1.257 . S
Co485 O488 2.042 . S
Co485 O495 2.264 . S
Co485 O514 2.286 . S
Co485 O515 2.069 1_545 S
Co485 O517 2.015 . S
Co486 O488 2.122 . S
Co486 O494 2.073 1_545 S
Co486 O495 2.327 . S
Co486 O496 1.976 . S
Co487 O488 2.087 . S
Co487 O490 2.087 . S
Co487 O497 2.111 . S
Co487 O498 2.143 . S
Co487 O502 2.111 . S
Co487 O516 2.143 . S
O488 Co485 2.042 . S
O488 Co486 2.122 . S
O488 Co487 2.087 . S
O488 H489 0.980 1_545 S
H489 O488 0.980 1_565 S
O490 Co487 2.087 . S
O490 Co491 2.042 . S
O490 Co492 2.122 . S
O490 H493 0.980 . S
Co491 O490 2.042 . S
Co491 O499 2.286 . S
Co491 O500 2.069 . S
Co491 O501 2.015 . S
Co491 O504 2.264 . S
Co492 O490 2.122 . S
Co492 O503 1.976 . S
Co492 O504 2.327 . S
Co492 O505 2.073 . S
H493 O490 0.980 . S
O494 Co486 2.073 1_565 S
O494 C509 1.245 . S
O495 Co485 2.264 . S
O495 Co486 2.327 . S
O495 C509 1.257 1_545 S
O496 Co486 1.976 . S
O496 C508 1.251 . S
O497 Co487 2.111 . S
O497 C508 1.274 . S
O498 Co487 2.143 . S
O498 C511 1.246 1_545 S
O499 Co491 2.286 . S
O499 C510 1.259 . S
O500 Co491 2.069 . S
O500 C510 1.289 . S
O501 Co491 2.015 . S
O501 C511 1.257 1_545 S
O502 Co487 2.111 . S
O502 C512 1.274 1_545 S
O503 Co492 1.976 . S
O503 C512 1.251 1_545 S
O504 Co491 2.264 . S
O504 Co492 2.327 . S
O504 C513 1.257 . S
O505 Co492 2.073 . S
O505 C513 1.245 . S
C506 O514 1.259 1_565 S
C506 O515 1.289 . S
C507 O516 1.246 . S
C507 O517 1.257 . S
C508 O496 1.251 . S
C508 O497 1.274 . S
C509 O494 1.245 . S
C509 O495 1.257 1_565 S
C510 O499 1.259 . S
C510 O500 1.289 . S
C511 O498 1.246 1_565 S
C511 O501 1.257 1_565 S
C512 O502 1.274 1_565 S
C512 O503 1.251 1_565 S
C513 O504 1.257 . S
C513 O505 1.245 . S
O514 Co485 2.286 . S
O514 C506 1.259 1_545 S
O515 Co485 2.069 1_565 S
O515 C506 1.289 . S
O516 Co487 2.143 . S
O516 C507 1.246 . S
O517 Co485 2.015 . S
O517 C507 1.257 . S
H518 C526 0.929 . S
H519 C528 0.930 . S
H520 C530 0.930 . S
H521 C533 0.929 . S
H522 C536 0.930 . S
H523 C538 0.960 . S
H524 C538 0.960 . S
H525 C538 0.960 . S
C526 H518 0.929 . S
C526 C527 1.377 . S
C526 C528 1.384 . S
C527 C526 1.377 . S
C527 C533 1.390 . S
C528 H519 0.930 . S
C528 C526 1.384 . S
C528 C529 1.372 . S
C529 C528 1.372 . S
C529 C530 1.400 . S
C529 C534 1.490 . S
C530 H520 0.930 . S
C530 C529 1.400 . S
C530 C533 1.386 . S
H531 C547 0.930 . S
H532 C548 0.931 . S
C533 H521 0.929 . S
C533 C527 1.390 . S
C533 C530 1.386 . S
C534 C529 1.490 . S
C534 C536 1.395 . S
C534 C537 1.403 . S
H535 C541 0.930 . S
C536 H522 0.930 . S
C536 C534 1.395 . S
C536 C539 1.403 . S
C537 C534 1.403 . S
C537 C538 1.524 . S
C537 C541 1.400 . S
C538 H523 0.960 . S
C538 H524 0.960 . S
C538 H525 0.960 . S
C538 C537 1.524 . S
C539 C536 1.403 . S
C539 C540 1.392 . S
C539 C543 1.495 . S
C540 C539 1.392 . S
C540 C541 1.385 . S
C540 C542 1.478 . S
C541 H535 0.930 . S
C541 C537 1.400 . S
C541 C540 1.385 . S
C542 C540 1.478 . S
C542 C544 1.381 . S
C542 C548 1.383 . S
C543 C539 1.495 . S
C543 H549 0.959 . S
C543 H550 0.961 . S
C543 H551 0.960 . S
C544 C542 1.381 . S
C544 C545 1.394 . S
C544 H552 0.930 . S
C545 C544 1.394 . S
C545 C546 1.383 . S
C545 H553 0.929 . S
C546 C545 1.383 . S
C546 C547 1.377 . S
C547 H531 0.930 . S
C547 C546 1.377 . S
C547 C548 1.379 . S
C548 H532 0.931 . S
C548 C542 1.383 . S
C548 C547 1.379 . S
H549 C543 0.959 . S
H550 C543 0.961 . S
H551 C543 0.960 . S
H552 C544 0.930 . S
H553 C545 0.929 . S
H554 C562 0.929 . S
H555 C564 0.930 . S
H556 C566 0.930 . S
H557 C569 0.929 . S
H558 C572 0.930 . S
H559 C574 0.960 . S
H560 C574 0.960 . S
H561 C574 0.960 . S
C562 H554 0.929 . S
C562 C563 1.377 . S
C562 C564 1.384 . S
C563 C562 1.377 . S
C563 C569 1.390 . S
C564 H555 0.930 . S
C564 C562 1.384 . S
C564 C565 1.372 . S
C565 C564 1.372 . S
C565 C566 1.400 . S
C565 C570 1.490 . S
C566 H556 0.930 . S
C566 C565 1.400 . S
C566 C569 1.386 . S
H567 C583 0.930 . S
H568 C584 0.931 . S
C569 H557 0.929 . S
C569 C563 1.390 . S
C569 C566 1.386 . S
C570 C565 1.490 . S
C570 C572 1.395 . S
C570 C573 1.403 . S
H571 C577 0.930 . S
C572 H558 0.930 . S
C572 C570 1.395 . S
C572 C575 1.403 . S
C573 C570 1.403 . S
C573 C574 1.524 . S
C573 C577 1.400 . S
C574 H559 0.960 . S
C574 H560 0.960 . S
C574 H561 0.960 . S
C574 C573 1.524 . S
C575 C572 1.403 . S
C575 C576 1.392 . S
C575 C579 1.495 . S
C576 C575 1.392 . S
C576 C577 1.385 . S
C576 C578 1.478 . S
C577 H571 0.930 . S
C577 C573 1.400 . S
C577 C576 1.385 . S
C578 C576 1.478 . S
C578 C580 1.381 . S
C578 C584 1.383 . S
C579 C575 1.495 . S
C579 H585 0.959 . S
C579 H586 0.961 . S
C579 H587 0.960 . S
C580 C578 1.381 . S
C580 C581 1.394 . S
C580 H588 0.930 . S
C581 C580 1.394 . S
C581 C582 1.383 . S
C581 H589 0.929 . S
C582 C581 1.383 . S
C582 C583 1.377 . S
C583 H567 0.930 . S
C583 C582 1.377 . S
C583 C584 1.379 . S
C584 H568 0.931 . S
C584 C578 1.383 . S
C584 C583 1.379 . S
H585 C579 0.959 . S
H586 C579 0.961 . S
H587 C579 0.960 . S
H588 C580 0.930 . S
H589 C581 0.929 . S
H590 C598 0.929 . S
H591 C600 0.930 . S
H592 C602 0.930 . S
H593 C605 0.929 . S
H594 C608 0.930 . S
H595 C610 0.960 . S
H596 C610 0.960 . S
H597 C610 0.960 . S
C598 H590 0.929 . S
C598 C599 1.377 . S
C598 C600 1.384 . S
C599 C598 1.377 . S
C599 C605 1.390 . S
C600 H591 0.930 . S
C600 C598 1.384 . S
C600 C601 1.372 . S
C601 C600 1.372 . S
C601 C602 1.400 . S
C601 C606 1.490 . S
C602 H592 0.930 . S
C602 C601 1.400 . S
C602 C605 1.386 . S
H603 C619 0.930 . S
H604 C620 0.931 . S
C605 H593 0.929 . S
C605 C599 1.390 . S
C605 C602 1.386 . S
C606 C601 1.490 . S
C606 C608 1.395 . S
C606 C609 1.403 . S
H607 C613 0.930 . S
C608 H594 0.930 . S
C608 C606 1.395 . S
C608 C611 1.403 . S
C609 C606 1.403 . S
C609 C610 1.524 . S
C609 C613 1.400 . S
C610 H595 0.960 . S
C610 H596 0.960 . S
C610 H597 0.960 . S
C610 C609 1.524 . S
C611 C608 1.403 . S
C611 C612 1.392 . S
C611 C615 1.495 . S
C612 C611 1.392 . S
C612 C613 1.385 . S
C612 C614 1.478 . S
C613 H607 0.930 . S
C613 C609 1.400 . S
C613 C612 1.385 . S
C614 C612 1.478 . S
C614 C616 1.381 . S
C614 C620 1.383 . S
C615 C611 1.495 . S
C615 H621 0.959 . S
C615 H622 0.961 . S
C615 H623 0.960 . S
C616 C614 1.381 . S
C616 C617 1.394 . S
C616 H624 0.930 . S
C617 C616 1.394 . S
C617 C618 1.383 . S
C617 H625 0.929 . S
C618 C617 1.383 . S
C618 C619 1.377 . S
C619 H603 0.930 . S
C619 C618 1.377 . S
C619 C620 1.379 . S
C620 H604 0.931 . S
C620 C614 1.383 . S
C620 C619 1.379 . S
H621 C615 0.959 . S
H622 C615 0.961 . S
H623 C615 0.960 . S
H624 C616 0.930 . S
H625 C617 0.929 . S
H626 C634 0.929 . S
H627 C636 0.930 . S
H628 C638 0.930 . S
H629 C641 0.929 . S
H630 C644 0.930 . S
H631 C646 0.960 . S
H632 C646 0.960 . S
H633 C646 0.960 . S
C634 H626 0.929 . S
C634 C635 1.377 . S
C634 C636 1.384 . S
C635 C634 1.377 . S
C635 C641 1.390 . S
C636 H627 0.930 . S
C636 C634 1.384 . S
C636 C637 1.372 . S
C637 C636 1.372 . S
C637 C638 1.400 . S
C637 C642 1.490 . S
C638 H628 0.930 . S
C638 C637 1.400 . S
C638 C641 1.386 . S
H639 C655 0.930 . S
H640 C656 0.931 . S
C641 H629 0.929 . S
C641 C635 1.390 . S
C641 C638 1.386 . S
C642 C637 1.490 . S
C642 C644 1.395 . S
C642 C645 1.403 . S
H643 C649 0.930 . S
C644 H630 0.930 . S
C644 C642 1.395 . S
C644 C647 1.403 . S
C645 C642 1.403 . S
C645 C646 1.524 . S
C645 C649 1.400 . S
C646 H631 0.960 . S
C646 H632 0.960 . S
C646 H633 0.960 . S
C646 C645 1.524 . S
C647 C644 1.403 . S
C647 C648 1.392 . S
C647 C651 1.495 . S
C648 C647 1.392 . S
C648 C649 1.385 . S
C648 C650 1.478 . S
C649 H643 0.930 . S
C649 C645 1.400 . S
C649 C648 1.385 . S
C650 C648 1.478 . S
C650 C652 1.381 . S
C650 C656 1.383 . S
C651 C647 1.495 . S
C651 H657 0.959 . S
C651 H658 0.961 . S
C651 H659 0.960 . S
C652 C650 1.381 . S
C652 C653 1.394 . S
C652 H660 0.930 . S
C653 C652 1.394 . S
C653 C654 1.383 . S
C653 H661 0.929 . S
C654 C653 1.383 . S
C654 C655 1.377 . S
C655 H639 0.930 . S
C655 C654 1.377 . S
C655 C656 1.379 . S
C656 H640 0.931 . S
C656 C650 1.383 . S
C656 C655 1.379 . S
H657 C651 0.959 . S
H658 C651 0.961 . S
H659 C651 0.960 . S
H660 C652 0.930 . S
H661 C653 0.929 . S
H662 C670 0.929 . S
H663 C672 0.930 . S
H664 C674 0.930 . S
H665 C677 0.929 . S
H666 C680 0.930 . S
H667 C682 0.960 . S
H668 C682 0.960 . S
H669 C682 0.960 . S
C670 H662 0.929 . S
C670 C671 1.377 . S
C670 C672 1.384 . S
C671 C670 1.377 . S
C671 C677 1.390 . S
C672 H663 0.930 . S
C672 C670 1.384 . S
C672 C673 1.372 . S
C673 C672 1.372 . S
C673 C674 1.400 . S
C673 C678 1.490 . S
C674 H664 0.930 . S
C674 C673 1.400 . S
C674 C677 1.386 . S
H675 C691 0.930 . S
H676 C692 0.931 . S
C677 H665 0.929 . S
C677 C671 1.390 . S
C677 C674 1.386 . S
C678 C673 1.490 . S
C678 C680 1.395 . S
C678 C681 1.403 . S
H679 C685 0.930 . S
C680 H666 0.930 . S
C680 C678 1.395 . S
C680 C683 1.403 . S
C681 C678 1.403 . S
C681 C682 1.524 . S
C681 C685 1.400 . S
C682 H667 0.960 . S
C682 H668 0.960 . S
C682 H669 0.960 . S
C682 C681 1.524 . S
C683 C680 1.403 . S
C683 C684 1.392 . S
C683 C687 1.495 . S
C684 C683 1.392 . S
C684 C685 1.385 . S
C684 C686 1.478 . S
C685 H679 0.930 . S
C685 C681 1.400 . S
C685 C684 1.385 . S
C686 C684 1.478 . S
C686 C688 1.381 . S
C686 C692 1.383 . S
C687 C683 1.495 . S
C687 H693 0.959 . S
C687 H694 0.961 . S
C687 H695 0.960 . S
C688 C686 1.381 . S
C688 C689 1.394 . S
C688 H696 0.930 . S
C689 C688 1.394 . S
C689 C690 1.383 . S
C689 H697 0.929 . S
C690 C689 1.383 . S
C690 C691 1.377 . S
C691 H675 0.930 . S
C691 C690 1.377 . S
C691 C692 1.379 . S
C692 H676 0.931 . S
C692 C686 1.383 . S
C692 C691 1.379 . S
H693 C687 0.959 . S
H694 C687 0.961 . S
H695 C687 0.960 . S
H696 C688 0.930 . S
H697 C689 0.929 . S
H698 C706 0.929 . S
H699 C708 0.930 . S
H700 C710 0.930 . S
H701 C713 0.929 . S
H702 C716 0.930 . S
H703 C718 0.960 . S
H704 C718 0.960 . S
H705 C718 0.960 . S
C706 H698 0.929 . S
C706 C707 1.377 . S
C706 C708 1.384 . S
C707 C706 1.377 . S
C707 C713 1.390 . S
C708 H699 0.930 . S
C708 C706 1.384 . S
C708 C709 1.372 . S
C709 C708 1.372 . S
C709 C710 1.400 . S
C709 C714 1.490 . S
C710 H700 0.930 . S
C710 C709 1.400 . S
C710 C713 1.386 . S
H711 C727 0.930 . S
H712 C728 0.931 . S
C713 H701 0.929 . S
C713 C707 1.390 . S
C713 C710 1.386 . S
C714 C709 1.490 . S
C714 C716 1.395 . S
C714 C717 1.403 . S
H715 C721 0.930 . S
C716 H702 0.930 . S
C716 C714 1.395 . S
C716 C719 1.403 . S
C717 C714 1.403 . S
C717 C718 1.524 . S
C717 C721 1.400 . S
C718 H703 0.960 . S
C718 H704 0.960 . S
C718 H705 0.960 . S
C718 C717 1.524 . S
C719 C716 1.403 . S
C719 C720 1.392 . S
C719 C723 1.495 . S
C720 C719 1.392 . S
C720 C721 1.385 . S
C720 C722 1.478 . S
C721 H715 0.930 . S
C721 C717 1.400 . S
C721 C720 1.385 . S
C722 C720 1.478 . S
C722 C724 1.381 . S
C722 C728 1.383 . S
C723 C719 1.495 . S
C723 H729 0.959 . S
C723 H730 0.961 . S
C723 H731 0.960 . S
C724 C722 1.381 . S
C724 C725 1.394 . S
C724 H732 0.930 . S
C725 C724 1.394 . S
C725 C726 1.383 . S
C725 H733 0.929 . S
C726 C725 1.383 . S
C726 C727 1.377 . S
C727 H711 0.930 . S
C727 C726 1.377 . S
C727 C728 1.379 . S
C728 H712 0.931 . S
C728 C722 1.383 . S
C728 C727 1.379 . S
H729 C723 0.959 . S
H730 C723 0.961 . S
H731 C723 0.960 . S
H732 C724 0.930 . S
H733 C725 0.929 . S
H734 C742 0.929 . S
H735 C744 0.930 . S
H736 C746 0.930 . S
H737 C749 0.929 . S
H738 C752 0.930 . S
H739 C754 0.960 . S
H740 C754 0.960 . S
H741 C754 0.960 . S
C742 H734 0.929 . S
C742 C743 1.377 . S
C742 C744 1.384 . S
C743 C742 1.377 . S
C743 C749 1.390 . S
C744 H735 0.930 . S
C744 C742 1.384 . S
C744 C745 1.372 . S
C745 C744 1.372 . S
C745 C746 1.400 . S
C745 C750 1.490 . S
C746 H736 0.930 . S
C746 C745 1.400 . S
C746 C749 1.386 . S
H747 C763 0.930 . S
H748 C764 0.931 . S
C749 H737 0.929 . S
C749 C743 1.390 . S
C749 C746 1.386 . S
C750 C745 1.490 . S
C750 C752 1.395 . S
C750 C753 1.403 . S
H751 C757 0.930 . S
C752 H738 0.930 . S
C752 C750 1.395 . S
C752 C755 1.403 . S
C753 C750 1.403 . S
C753 C754 1.524 . S
C753 C757 1.400 . S
C754 H739 0.960 . S
C754 H740 0.960 . S
C754 H741 0.960 . S
C754 C753 1.524 . S
C755 C752 1.403 . S
C755 C756 1.392 . S
C755 C759 1.495 . S
C756 C755 1.392 . S
C756 C757 1.385 . S
C756 C758 1.478 . S
C757 H751 0.930 . S
C757 C753 1.400 . S
C757 C756 1.385 . S
C758 C756 1.478 . S
C758 C760 1.381 . S
C758 C764 1.383 . S
C759 C755 1.495 . S
C759 H765 0.959 . S
C759 H766 0.961 . S
C759 H767 0.960 . S
C760 C758 1.381 . S
C760 C761 1.394 . S
C760 H768 0.930 . S
C761 C760 1.394 . S
C761 C762 1.383 . S
C761 H769 0.929 . S
C762 C761 1.383 . S
C762 C763 1.377 . S
C763 H747 0.930 . S
C763 C762 1.377 . S
C763 C764 1.379 . S
C764 H748 0.931 . S
C764 C758 1.383 . S
C764 C763 1.379 . S
H765 C759 0.959 . S
H766 C759 0.961 . S
H767 C759 0.960 . S
H768 C760 0.930 . S
H769 C761 0.929 . S
H770 C778 0.929 . S
H771 C780 0.930 . S
H772 C782 0.930 . S
H773 C785 0.929 . S
H774 C788 0.930 . S
H775 C790 0.960 . S
H776 C790 0.960 . S
H777 C790 0.960 . S
C778 H770 0.929 . S
C778 C779 1.377 . S
C778 C780 1.384 . S
C779 C778 1.377 . S
C779 C785 1.390 . S
C780 H771 0.930 . S
C780 C778 1.384 . S
C780 C781 1.372 . S
C781 C780 1.372 . S
C781 C782 1.400 . S
C781 C786 1.490 . S
C782 H772 0.930 . S
C782 C781 1.400 . S
C782 C785 1.386 . S
H783 C799 0.930 . S
H784 C800 0.931 . S
C785 H773 0.929 . S
C785 C779 1.390 . S
C785 C782 1.386 . S
C786 C781 1.490 . S
C786 C788 1.395 . S
C786 C789 1.403 . S
H787 C793 0.930 . S
C788 H774 0.930 . S
C788 C786 1.395 . S
C788 C791 1.403 . S
C789 C786 1.403 . S
C789 C790 1.524 . S
C789 C793 1.400 . S
C790 H775 0.960 . S
C790 H776 0.960 . S
C790 H777 0.960 . S
C790 C789 1.524 . S
C791 C788 1.403 . S
C791 C792 1.392 . S
C791 C795 1.495 . S
C792 C791 1.392 . S
C792 C793 1.385 . S
C792 C794 1.478 . S
C793 H787 0.930 . S
C793 C789 1.400 . S
C793 C792 1.385 . S
C794 C792 1.478 . S
C794 C796 1.381 . S
C794 C800 1.383 . S
C795 C791 1.495 . S
C795 H801 0.959 . S
C795 H802 0.961 . S
C795 H803 0.960 . S
C796 C794 1.381 . S
C796 C797 1.394 . S
C796 H804 0.930 . S
C797 C796 1.394 . S
C797 C798 1.383 . S
C797 H805 0.929 . S
C798 C797 1.383 . S
C798 C799 1.377 . S
C799 H783 0.930 . S
C799 C798 1.377 . S
C799 C800 1.379 . S
C800 H784 0.931 . S
C800 C794 1.383 . S
C800 C799 1.379 . S
H801 C795 0.959 . S
H802 C795 0.961 . S
H803 C795 0.960 . S
H804 C796 0.930 . S
H805 C797 0.929 . S
H806 C814 0.929 . S
H807 C816 0.930 . S
H808 C818 0.930 . S
H809 C821 0.929 . S
H810 C824 0.930 . S
H811 C826 0.960 . S
H812 C826 0.960 . S
H813 C826 0.960 . S
C814 H806 0.929 . S
C814 C815 1.377 . S
C814 C816 1.384 . S
C815 C814 1.377 . S
C815 C821 1.390 . S
C816 H807 0.930 . S
C816 C814 1.384 . S
C816 C817 1.372 . S
C817 C816 1.372 . S
C817 C818 1.400 . S
C817 C822 1.490 . S
C818 H808 0.930 . S
C818 C817 1.400 . S
C818 C821 1.386 . S
H819 C835 0.930 . S
H820 C836 0.931 . S
C821 H809 0.929 . S
C821 C815 1.390 . S
C821 C818 1.386 . S
C822 C817 1.490 . S
C822 C824 1.395 . S
C822 C825 1.403 . S
H823 C829 0.930 . S
C824 H810 0.930 . S
C824 C822 1.395 . S
C824 C827 1.403 . S
C825 C822 1.403 . S
C825 C826 1.524 . S
C825 C829 1.400 . S
C826 H811 0.960 . S
C826 H812 0.960 . S
C826 H813 0.960 . S
C826 C825 1.524 . S
C827 C824 1.403 . S
C827 C828 1.392 . S
C827 C831 1.495 . S
C828 C827 1.392 . S
C828 C829 1.385 . S
C828 C830 1.478 . S
C829 H823 0.930 . S
C829 C825 1.400 . S
C829 C828 1.385 . S
C830 C828 1.478 . S
C830 C832 1.381 . S
C830 C836 1.383 . S
C831 C827 1.495 . S
C831 H837 0.959 . S
C831 H838 0.961 . S
C831 H839 0.960 . S
C832 C830 1.381 . S
C832 C833 1.394 . S
C832 H840 0.930 . S
C833 C832 1.394 . S
C833 C834 1.383 . S
C833 H841 0.929 . S
C834 C833 1.383 . S
C834 C835 1.377 . S
C835 H819 0.930 . S
C835 C834 1.377 . S
C835 C836 1.379 . S
C836 H820 0.931 . S
C836 C830 1.383 . S
C836 C835 1.379 . S
H837 C831 0.959 . S
H838 C831 0.961 . S
H839 C831 0.960 . S
H840 C832 0.930 . S
H841 C833 0.929 . S
H842 C850 0.929 . S
H843 C852 0.930 . S
H844 C854 0.930 . S
H845 C857 0.929 . S
H846 C860 0.930 . S
H847 C862 0.960 . S
H848 C862 0.960 . S
H849 C862 0.960 . S
C850 H842 0.929 . S
C850 C851 1.377 . S
C850 C852 1.384 . S
C851 C850 1.377 . S
C851 C857 1.390 . S
C852 H843 0.930 . S
C852 C850 1.384 . S
C852 C853 1.372 . S
C853 C852 1.372 . S
C853 C854 1.400 . S
C853 C858 1.490 . S
C854 H844 0.930 . S
C854 C853 1.400 . S
C854 C857 1.386 . S
H855 C871 0.930 . S
H856 C872 0.931 . S
C857 H845 0.929 . S
C857 C851 1.390 . S
C857 C854 1.386 . S
C858 C853 1.490 . S
C858 C860 1.395 . S
C858 C861 1.403 . S
H859 C865 0.930 . S
C860 H846 0.930 . S
C860 C858 1.395 . S
C860 C863 1.403 . S
C861 C858 1.403 . S
C861 C862 1.524 . S
C861 C865 1.400 . S
C862 H847 0.960 . S
C862 H848 0.960 . S
C862 H849 0.960 . S
C862 C861 1.524 . S
C863 C860 1.403 . S
C863 C864 1.392 . S
C863 C867 1.495 . S
C864 C863 1.392 . S
C864 C865 1.385 . S
C864 C866 1.478 . S
C865 H859 0.930 . S
C865 C861 1.400 . S
C865 C864 1.385 . S
C866 C864 1.478 . S
C866 C868 1.381 . S
C866 C872 1.383 . S
C867 C863 1.495 . S
C867 H873 0.959 . S
C867 H874 0.961 . S
C867 H875 0.960 . S
C868 C866 1.381 . S
C868 C869 1.394 . S
C868 H876 0.930 . S
C869 C868 1.394 . S
C869 C870 1.383 . S
C869 H877 0.929 . S
C870 C869 1.383 . S
C870 C871 1.377 . S
C871 H855 0.930 . S
C871 C870 1.377 . S
C871 C872 1.379 . S
C872 H856 0.931 . S
C872 C866 1.383 . S
C872 C871 1.379 . S
H873 C867 0.959 . S
H874 C867 0.961 . S
H875 C867 0.960 . S
H876 C868 0.930 . S
H877 C869 0.929 . S
H878 C886 0.929 . S
H879 C888 0.930 . S
H880 C890 0.930 . S
H881 C893 0.929 . S
H882 C896 0.930 . S
H883 C898 0.960 . S
H884 C898 0.960 . S
H885 C898 0.960 . S
C886 H878 0.929 . S
C886 C887 1.377 . S
C886 C888 1.384 . S
C887 C886 1.377 . S
C887 C893 1.390 . S
C888 H879 0.930 . S
C888 C886 1.384 . S
C888 C889 1.372 . S
C889 C888 1.372 . S
C889 C890 1.400 . S
C889 C894 1.490 . S
C890 H880 0.930 . S
C890 C889 1.400 . S
C890 C893 1.386 . S
H891 C907 0.930 . S
H892 C908 0.931 . S
C893 H881 0.929 . S
C893 C887 1.390 . S
C893 C890 1.386 . S
C894 C889 1.490 . S
C894 C896 1.395 . S
C894 C897 1.403 . S
H895 C901 0.930 . S
C896 H882 0.930 . S
C896 C894 1.395 . S
C896 C899 1.403 . S
C897 C894 1.403 . S
C897 C898 1.524 . S
C897 C901 1.400 . S
C898 H883 0.960 . S
C898 H884 0.960 . S
C898 H885 0.960 . S
C898 C897 1.524 . S
C899 C896 1.403 . S
C899 C900 1.392 . S
C899 C903 1.495 . S
C900 C899 1.392 . S
C900 C901 1.385 . S
C900 C902 1.478 . S
C901 H895 0.930 . S
C901 C897 1.400 . S
C901 C900 1.385 . S
C902 C900 1.478 . S
C902 C904 1.381 . S
C902 C908 1.383 . S
C903 C899 1.495 . S
C903 H909 0.959 . S
C903 H910 0.961 . S
C903 H911 0.960 . S
C904 C902 1.381 . S
C904 C905 1.394 . S
C904 H912 0.930 . S
C905 C904 1.394 . S
C905 C906 1.383 . S
C905 H913 0.929 . S
C906 C905 1.383 . S
C906 C907 1.377 . S
C907 H891 0.930 . S
C907 C906 1.377 . S
C907 C908 1.379 . S
C908 H892 0.931 . S
C908 C902 1.383 . S
C908 C907 1.379 . S
H909 C903 0.959 . S
H910 C903 0.961 . S
H911 C903 0.960 . S
H912 C904 0.930 . S
H913 C905 0.929 . S
H914 C922 0.929 . S
H915 C924 0.930 . S
H916 C926 0.930 . S
H917 C929 0.929 . S
H918 C932 0.930 . S
H919 C934 0.960 . S
H920 C934 0.960 . S
H921 C934 0.960 . S
C922 H914 0.929 . S
C922 C923 1.377 . S
C922 C924 1.384 . S
C923 C922 1.377 . S
C923 C929 1.390 . S
C924 H915 0.930 . S
C924 C922 1.384 . S
C924 C925 1.372 . S
C925 C924 1.372 . S
C925 C926 1.400 . S
C925 C930 1.490 . S
C926 H916 0.930 . S
C926 C925 1.400 . S
C926 C929 1.386 . S
H927 C943 0.930 . S
H928 C944 0.931 . S
C929 H917 0.929 . S
C929 C923 1.390 . S
C929 C926 1.386 . S
C930 C925 1.490 . S
C930 C932 1.395 . S
C930 C933 1.403 . S
H931 C937 0.930 . S
C932 H918 0.930 . S
C932 C930 1.395 . S
C932 C935 1.403 . S
C933 C930 1.403 . S
C933 C934 1.524 . S
C933 C937 1.400 . S
C934 H919 0.960 . S
C934 H920 0.960 . S
C934 H921 0.960 . S
C934 C933 1.524 . S
C935 C932 1.403 . S
C935 C936 1.392 . S
C935 C939 1.495 . S
C936 C935 1.392 . S
C936 C937 1.385 . S
C936 C938 1.478 . S
C937 H931 0.930 . S
C937 C933 1.400 . S
C937 C936 1.385 . S
C938 C936 1.478 . S
C938 C940 1.381 . S
C938 C944 1.383 . S
C939 C935 1.495 . S
C939 H945 0.959 . S
C939 H946 0.961 . S
C939 H947 0.960 . S
C940 C938 1.381 . S
C940 C941 1.394 . S
C940 H948 0.930 . S
C941 C940 1.394 . S
C941 C942 1.383 . S
C941 H949 0.929 . S
C942 C941 1.383 . S
C942 C943 1.377 . S
C943 H927 0.930 . S
C943 C942 1.377 . S
C943 C944 1.379 . S
C944 H928 0.931 . S
C944 C938 1.383 . S
C944 C943 1.379 . S
H945 C939 0.959 . S
H946 C939 0.961 . S
H947 C939 0.960 . S
H948 C940 0.930 . S
H949 C941 0.929 . S
H950 C958 0.929 . S
H951 C960 0.930 . S
H952 C962 0.930 . S
H953 C965 0.929 . S
H954 C968 0.930 . S
H955 C970 0.960 . S
H956 C970 0.960 . S
H957 C970 0.960 . S
C958 H950 0.929 . S
C958 C959 1.377 . S
C958 C960 1.384 . S
C959 C958 1.377 . S
C959 C965 1.390 . S
C960 H951 0.930 . S
C960 C958 1.384 . S
C960 C961 1.372 . S
C961 C960 1.372 . S
C961 C962 1.400 . S
C961 C966 1.490 . S
C962 H952 0.930 . S
C962 C961 1.400 . S
C962 C965 1.386 . S
H963 C979 0.930 . S
H964 C980 0.931 . S
C965 H953 0.929 . S
C965 C959 1.390 . S
C965 C962 1.386 . S
C966 C961 1.490 . S
C966 C968 1.395 . S
C966 C969 1.403 . S
H967 C973 0.930 . S
C968 H954 0.930 . S
C968 C966 1.395 . S
C968 C971 1.403 . S
C969 C966 1.403 . S
C969 C970 1.524 . S
C969 C973 1.400 . S
C970 H955 0.960 . S
C970 H956 0.960 . S
C970 H957 0.960 . S
C970 C969 1.524 . S
C971 C968 1.403 . S
C971 C972 1.392 . S
C971 C975 1.495 . S
C972 C971 1.392 . S
C972 C973 1.385 . S
C972 C974 1.478 . S
C973 H967 0.930 . S
C973 C969 1.400 . S
C973 C972 1.385 . S
C974 C972 1.478 . S
C974 C976 1.381 . S
C974 C980 1.383 . S
C975 C971 1.495 . S
C975 H981 0.959 . S
C975 H982 0.961 . S
C975 H983 0.960 . S
C976 C974 1.381 . S
C976 C977 1.394 . S
C976 H984 0.930 . S
C977 C976 1.394 . S
C977 C978 1.383 . S
C977 H985 0.929 . S
C978 C977 1.383 . S
C978 C979 1.377 . S
C979 H963 0.930 . S
C979 C978 1.377 . S
C979 C980 1.379 . S
C980 H964 0.931 . S
C980 C974 1.383 . S
C980 C979 1.379 . S
H981 C975 0.959 . S
H982 C975 0.961 . S
H983 C975 0.960 . S
H984 C976 0.930 . S
H985 C977 0.929 . S
H986 C994 0.929 . S
H987 C996 0.930 . S
H988 C998 0.930 . S
H989 C1001 0.929 . S
H990 C1004 0.930 . S
H991 C1006 0.960 . S
H992 C1006 0.960 . S
H993 C1006 0.960 . S
C994 H986 0.929 . S
C994 C995 1.377 . S
C994 C996 1.384 . S
C995 C994 1.377 . S
C995 C1001 1.390 . S
C996 H987 0.930 . S
C996 C994 1.384 . S
C996 C997 1.372 . S
C997 C996 1.372 . S
C997 C998 1.400 . S
C997 C1002 1.490 . S
C998 H988 0.930 . S
C998 C997 1.400 . S
C998 C1001 1.386 . S
H999 C1015 0.930 . S
H1000 C1016 0.931 . S
C1001 H989 0.929 . S
C1001 C995 1.390 . S
C1001 C998 1.386 . S
C1002 C997 1.490 . S
C1002 C1004 1.395 . S
C1002 C1005 1.403 . S
H1003 C1009 0.930 . S
C1004 H990 0.930 . S
C1004 C1002 1.395 . S
C1004 C1007 1.403 . S
C1005 C1002 1.403 . S
C1005 C1006 1.524 . S
C1005 C1009 1.400 . S
C1006 H991 0.960 . S
C1006 H992 0.960 . S
C1006 H993 0.960 . S
C1006 C1005 1.524 . S
C1007 C1004 1.403 . S
C1007 C1008 1.392 . S
C1007 C1011 1.495 . S
C1008 C1007 1.392 . S
C1008 C1009 1.385 . S
C1008 C1010 1.478 . S
C1009 H1003 0.930 . S
C1009 C1005 1.400 . S
C1009 C1008 1.385 . S
C1010 C1008 1.478 . S
C1010 C1012 1.381 . S
C1010 C1016 1.383 . S
C1011 C1007 1.495 . S
C1011 H1017 0.959 . S
C1011 H1018 0.961 . S
C1011 H1019 0.960 . S
C1012 C1010 1.381 . S
C1012 C1013 1.394 . S
C1012 H1020 0.930 . S
C1013 C1012 1.394 . S
C1013 C1014 1.383 . S
C1013 H1021 0.929 . S
C1014 C1013 1.383 . S
C1014 C1015 1.377 . S
C1015 H999 0.930 . S
C1015 C1014 1.377 . S
C1015 C1016 1.379 . S
C1016 H1000 0.931 . S
C1016 C1010 1.383 . S
C1016 C1015 1.379 . S
H1017 C1011 0.959 . S
H1018 C1011 0.961 . S
H1019 C1011 0.960 . S
H1020 C1012 0.930 . S
H1021 C1013 0.929 . S
H1022 C1030 0.929 . S
H1023 C1032 0.930 . S
H1024 C1034 0.930 . S
H1025 C1037 0.929 . S
H1026 C1040 0.930 . S
H1027 C1042 0.960 . S
H1028 C1042 0.960 . S
H1029 C1042 0.960 . S
C1030 H1022 0.929 . S
C1030 C1031 1.377 . S
C1030 C1032 1.384 . S
C1031 C1030 1.377 . S
C1031 C1037 1.390 . S
C1032 H1023 0.930 . S
C1032 C1030 1.384 . S
C1032 C1033 1.372 . S
C1033 C1032 1.372 . S
C1033 C1034 1.400 . S
C1033 C1038 1.490 . S
C1034 H1024 0.930 . S
C1034 C1033 1.400 . S
C1034 C1037 1.386 . S
H1035 C1051 0.930 . S
H1036 C1052 0.931 . S
C1037 H1025 0.929 . S
C1037 C1031 1.390 . S
C1037 C1034 1.386 . S
C1038 C1033 1.490 . S
C1038 C1040 1.395 . S
C1038 C1041 1.403 . S
H1039 C1045 0.930 . S
C1040 H1026 0.930 . S
C1040 C1038 1.395 . S
C1040 C1043 1.403 . S
C1041 C1038 1.403 . S
C1041 C1042 1.524 . S
C1041 C1045 1.400 . S
C1042 H1027 0.960 . S
C1042 H1028 0.960 . S
C1042 H1029 0.960 . S
C1042 C1041 1.524 . S
C1043 C1040 1.403 . S
C1043 C1044 1.392 . S
C1043 C1047 1.495 . S
C1044 C1043 1.392 . S
C1044 C1045 1.385 . S
C1044 C1046 1.478 . S
C1045 H1039 0.930 . S
C1045 C1041 1.400 . S
C1045 C1044 1.385 . S
C1046 C1044 1.478 . S
C1046 C1048 1.381 . S
C1046 C1052 1.383 . S
C1047 C1043 1.495 . S
C1047 H1053 0.959 . S
C1047 H1054 0.961 . S
C1047 H1055 0.960 . S
C1048 C1046 1.381 . S
C1048 C1049 1.394 1_556 S
C1048 H1056 0.930 . S
C1049 C1048 1.394 1_554 S
C1049 C1050 1.383 1_554 S
C1049 H1057 0.929 . S
C1050 C1049 1.383 1_556 S
C1050 C1051 1.377 . S
C1051 H1035 0.930 . S
C1051 C1050 1.377 . S
C1051 C1052 1.379 . S
C1052 H1036 0.931 . S
C1052 C1046 1.383 . S
C1052 C1051 1.379 . S
H1053 C1047 0.959 . S
H1054 C1047 0.961 . S
H1055 C1047 0.960 . S
H1056 C1048 0.930 . S
H1057 C1049 0.929 . S
H1058 C1066 0.929 . S
H1059 C1068 0.930 . S
H1060 C1070 0.930 . S
H1061 C1073 0.929 . S
H1062 C1076 0.930 . S
H1063 C1078 0.960 . S
H1064 C1078 0.960 . S
H1065 C1078 0.960 . S
C1066 H1058 0.929 . S
C1066 C1067 1.377 . S
C1066 C1068 1.384 . S
C1067 C1066 1.377 . S
C1067 C1073 1.390 . S
C1068 H1059 0.930 . S
C1068 C1066 1.384 . S
C1068 C1069 1.372 . S
C1069 C1068 1.372 . S
C1069 C1070 1.400 . S
C1069 C1074 1.490 . S
C1070 H1060 0.930 . S
C1070 C1069 1.400 . S
C1070 C1073 1.386 . S
H1071 C1087 0.930 . S
H1072 C1088 0.931 . S
C1073 H1061 0.929 . S
C1073 C1067 1.390 . S
C1073 C1070 1.386 . S
C1074 C1069 1.490 . S
C1074 C1076 1.395 . S
C1074 C1077 1.403 . S
H1075 C1081 0.930 . S
C1076 H1062 0.930 . S
C1076 C1074 1.395 . S
C1076 C1079 1.403 . S
C1077 C1074 1.403 . S
C1077 C1078 1.524 . S
C1077 C1081 1.400 . S
C1078 H1063 0.960 . S
C1078 H1064 0.960 . S
C1078 H1065 0.960 . S
C1078 C1077 1.524 . S
C1079 C1076 1.403 . S
C1079 C1080 1.392 . S
C1079 C1083 1.495 1_556 S
C1080 C1079 1.392 . S
C1080 C1081 1.385 . S
C1080 C1082 1.478 . S
C1081 H1075 0.930 . S
C1081 C1077 1.400 . S
C1081 C1080 1.385 . S
C1082 C1080 1.478 . S
C1082 C1084 1.381 . S
C1082 C1088 1.383 . S
C1083 C1079 1.495 1_554 S
C1083 H1089 0.959 . S
C1083 H1090 0.961 . S
C1083 H1091 0.960 . S
C1084 C1082 1.381 . S
C1084 C1085 1.394 . S
C1084 H1092 0.930 . S
C1085 C1084 1.394 . S
C1085 C1086 1.383 . S
C1085 H1093 0.929 . S
C1086 C1085 1.383 . S
C1086 C1087 1.377 . S
C1087 H1071 0.930 . S
C1087 C1086 1.377 . S
C1087 C1088 1.379 . S
C1088 H1072 0.931 . S
C1088 C1082 1.383 . S
C1088 C1087 1.379 . S
H1089 C1083 0.959 . S
H1090 C1083 0.961 . S
H1091 C1083 0.960 . S
H1092 C1084 0.930 . S
H1093 C1085 0.929 . S
H1094 C1102 0.929 . S
H1095 C1104 0.930 . S
H1096 C1106 0.930 . S
H1097 C1109 0.929 . S
H1098 C1112 0.930 . S
H1099 C1114 0.960 . S
H1100 C1114 0.960 . S
H1101 C1114 0.960 . S
C1102 H1094 0.929 . S
C1102 C1103 1.377 . S
C1102 C1104 1.384 . S
C1103 C1102 1.377 . S
C1103 C1109 1.390 . S
C1104 H1095 0.930 . S
C1104 C1102 1.384 . S
C1104 C1105 1.372 . S
C1105 C1104 1.372 . S
C1105 C1106 1.400 . S
C1105 C1110 1.490 . S
C1106 H1096 0.930 . S
C1106 C1105 1.400 . S
C1106 C1109 1.386 . S
H1107 C1123 0.930 1_556 S
H1108 C1124 0.931 . S
C1109 H1097 0.929 . S
C1109 C1103 1.390 . S
C1109 C1106 1.386 . S
C1110 C1105 1.490 . S
C1110 C1112 1.395 . S
C1110 C1113 1.403 . S
H1111 C1117 0.930 . S
C1112 H1098 0.930 . S
C1112 C1110 1.395 . S
C1112 C1115 1.403 . S
C1113 C1110 1.403 . S
C1113 C1114 1.524 . S
C1113 C1117 1.400 . S
C1114 H1099 0.960 . S
C1114 H1100 0.960 . S
C1114 H1101 0.960 . S
C1114 C1113 1.524 . S
C1115 C1112 1.403 . S
C1115 C1116 1.392 . S
C1115 C1119 1.495 . S
C1116 C1115 1.392 . S
C1116 C1117 1.385 . S
C1116 C1118 1.478 . S
C1117 H1111 0.930 . S
C1117 C1113 1.400 . S
C1117 C1116 1.385 . S
C1118 C1116 1.478 . S
C1118 C1120 1.381 . S
C1118 C1124 1.383 . S
C1119 C1115 1.495 . S
C1119 H1125 0.959 . S
C1119 H1126 0.961 . S
C1119 H1127 0.960 . S
C1120 C1118 1.381 . S
C1120 C1121 1.394 . S
C1120 H1128 0.930 . S
C1121 C1120 1.394 . S
C1121 C1122 1.383 . S
C1121 H1129 0.929 . S
C1122 C1121 1.383 . S
C1122 C1123 1.377 . S
C1123 H1107 0.930 1_554 S
C1123 C1122 1.377 . S
C1123 C1124 1.379 . S
C1124 H1108 0.931 . S
C1124 C1118 1.383 . S
C1124 C1123 1.379 . S
H1125 C1119 0.959 . S
H1126 C1119 0.961 . S
H1127 C1119 0.960 . S
H1128 C1120 0.930 . S
H1129 C1121 0.929 . S
H1130 C1138 0.929 . S
H1131 C1140 0.930 . S
H1132 C1142 0.930 . S
H1133 C1145 0.929 . S
H1134 C1148 0.930 . S
H1135 C1150 0.960 . S
H1136 C1150 0.960 . S
H1137 C1150 0.960 . S
C1138 H1130 0.929 . S
C1138 C1139 1.377 . S
C1138 C1140 1.384 . S
C1139 C1138 1.377 . S
C1139 C1145 1.390 . S
C1140 H1131 0.930 . S
C1140 C1138 1.384 . S
C1140 C1141 1.372 . S
C1141 C1140 1.372 . S
C1141 C1142 1.400 . S
C1141 C1146 1.490 . S
C1142 H1132 0.930 . S
C1142 C1141 1.400 . S
C1142 C1145 1.386 . S
H1143 C1159 0.930 . S
H1144 C1160 0.931 . S
C1145 H1133 0.929 . S
C1145 C1139 1.390 . S
C1145 C1142 1.386 . S
C1146 C1141 1.490 . S
C1146 C1148 1.395 . S
C1146 C1149 1.403 . S
H1147 C1153 0.930 . S
C1148 H1134 0.930 . S
C1148 C1146 1.395 . S
C1148 C1151 1.403 . S
C1149 C1146 1.403 . S
C1149 C1150 1.524 . S
C1149 C1153 1.400 . S
C1150 H1135 0.960 . S
C1150 H1136 0.960 . S
C1150 H1137 0.960 . S
C1150 C1149 1.524 . S
C1151 C1148 1.403 . S
C1151 C1152 1.392 . S
C1151 C1155 1.495 . S
C1152 C1151 1.392 . S
C1152 C1153 1.385 . S
C1152 C1154 1.478 . S
C1153 H1147 0.930 . S
C1153 C1149 1.400 . S
C1153 C1152 1.385 . S
C1154 C1152 1.478 . S
C1154 C1156 1.381 . S
C1154 C1160 1.383 . S
C1155 C1151 1.495 . S
C1155 H1161 0.959 . S
C1155 H1162 0.961 . S
C1155 H1163 0.960 . S
C1156 C1154 1.381 . S
C1156 C1157 1.394 . S
C1156 H1164 0.930 . S
C1157 C1156 1.394 . S
C1157 C1158 1.383 . S
C1157 H1165 0.929 . S
C1158 C1157 1.383 . S
C1158 C1159 1.377 . S
C1159 H1143 0.930 . S
C1159 C1158 1.377 . S
C1159 C1160 1.379 . S
C1160 H1144 0.931 . S
C1160 C1154 1.383 . S
C1160 C1159 1.379 . S
H1161 C1155 0.959 . S
H1162 C1155 0.961 . S
H1163 C1155 0.960 . S
H1164 C1156 0.930 . S
H1165 C1157 0.929 . S
H1166 C1174 0.929 . S
H1167 C1176 0.930 . S
H1168 C1178 0.930 . S
H1169 C1181 0.929 . S
H1170 C1184 0.930 . S
H1171 C1186 0.960 . S
H1172 C1186 0.960 . S
H1173 C1186 0.960 . S
C1174 H1166 0.929 . S
C1174 C1175 1.377 . S
C1174 C1176 1.384 . S
C1175 C1174 1.377 . S
C1175 C1181 1.390 . S
C1176 H1167 0.930 . S
C1176 C1174 1.384 . S
C1176 C1177 1.372 . S
C1177 C1176 1.372 . S
C1177 C1178 1.400 . S
C1177 C1182 1.490 . S
C1178 H1168 0.930 . S
C1178 C1177 1.400 . S
C1178 C1181 1.386 . S
H1179 C1195 0.930 . S
H1180 C1196 0.931 . S
C1181 H1169 0.929 . S
C1181 C1175 1.390 . S
C1181 C1178 1.386 . S
C1182 C1177 1.490 . S
C1182 C1184 1.395 . S
C1182 C1185 1.403 . S
H1183 C1189 0.930 . S
C1184 H1170 0.930 . S
C1184 C1182 1.395 . S
C1184 C1187 1.403 . S
C1185 C1182 1.403 . S
C1185 C1186 1.524 . S
C1185 C1189 1.400 . S
C1186 H1171 0.960 . S
C1186 H1172 0.960 . S
C1186 H1173 0.960 . S
C1186 C1185 1.524 . S
C1187 C1184 1.403 . S
C1187 C1188 1.392 . S
C1187 C1191 1.495 . S
C1188 C1187 1.392 . S
C1188 C1189 1.385 . S
C1188 C1190 1.478 . S
C1189 H1183 0.930 . S
C1189 C1185 1.400 . S
C1189 C1188 1.385 . S
C1190 C1188 1.478 . S
C1190 C1192 1.381 . S
C1190 C1196 1.383 . S
C1191 C1187 1.495 . S
C1191 H1197 0.959 . S
C1191 H1198 0.961 . S
C1191 H1199 0.960 . S
C1192 C1190 1.381 . S
C1192 C1193 1.394 1_556 S
C1192 H1200 0.930 1_556 S
C1193 C1192 1.394 1_554 S
C1193 C1194 1.383 1_554 S
C1193 H1201 0.929 . S
C1194 C1193 1.383 1_556 S
C1194 C1195 1.377 . S
C1195 H1179 0.930 . S
C1195 C1194 1.377 . S
C1195 C1196 1.379 . S
C1196 H1180 0.931 . S
C1196 C1190 1.383 . S
C1196 C1195 1.379 . S
H1197 C1191 0.959 . S
H1198 C1191 0.961 . S
H1199 C1191 0.960 . S
H1200 C1192 0.930 1_554 S
H1201 C1193 0.929 . S
H1202 C1210 0.929 . S
H1203 C1212 0.930 . S
H1204 C1214 0.930 . S
H1205 C1217 0.929 . S
H1206 C1220 0.930 . S
H1207 C1222 0.960 . S
H1208 C1222 0.960 . S
H1209 C1222 0.960 . S
C1210 H1202 0.929 . S
C1210 C1211 1.377 . S
C1210 C1212 1.384 . S
C1211 C1210 1.377 . S
C1211 C1217 1.390 . S
C1212 H1203 0.930 . S
C1212 C1210 1.384 . S
C1212 C1213 1.372 . S
C1213 C1212 1.372 . S
C1213 C1214 1.400 . S
C1213 C1218 1.490 . S
C1214 H1204 0.930 . S
C1214 C1213 1.400 . S
C1214 C1217 1.386 . S
H1215 C1231 0.930 1_455 S
H1216 C1232 0.931 . S
C1217 H1205 0.929 . S
C1217 C1211 1.390 . S
C1217 C1214 1.386 . S
C1218 C1213 1.490 . S
C1218 C1220 1.395 . S
C1218 C1221 1.403 . S
H1219 C1225 0.930 . S
C1220 H1206 0.930 . S
C1220 C1218 1.395 . S
C1220 C1223 1.403 . S
C1221 C1218 1.403 . S
C1221 C1222 1.524 . S
C1221 C1225 1.400 . S
C1222 H1207 0.960 . S
C1222 H1208 0.960 . S
C1222 H1209 0.960 . S
C1222 C1221 1.524 . S
C1223 C1220 1.403 . S
C1223 C1224 1.392 . S
C1223 C1227 1.495 . S
C1224 C1223 1.392 . S
C1224 C1225 1.385 . S
C1224 C1226 1.478 . S
C1225 H1219 0.930 . S
C1225 C1221 1.400 . S
C1225 C1224 1.385 . S
C1226 C1224 1.478 . S
C1226 C1228 1.381 . S
C1226 C1232 1.383 . S
C1227 C1223 1.495 . S
C1227 H1233 0.959 . S
C1227 H1234 0.961 . S
C1227 H1235 0.960 . S
C1228 C1226 1.381 . S
C1228 C1229 1.394 . S
C1228 H1236 0.930 . S
C1229 C1228 1.394 . S
C1229 C1230 1.383 . S
C1229 H1237 0.929 . S
C1230 C1229 1.383 . S
C1230 C1231 1.377 . S
C1231 H1215 0.930 1_655 S
C1231 C1230 1.377 . S
C1231 C1232 1.379 . S
C1232 H1216 0.931 . S
C1232 C1226 1.383 . S
C1232 C1231 1.379 . S
H1233 C1227 0.959 . S
H1234 C1227 0.961 . S
H1235 C1227 0.960 . S
H1236 C1228 0.930 . S
H1237 C1229 0.929 . S
H1238 C1246 0.929 . S
H1239 C1248 0.930 . S
H1240 C1250 0.930 . S
H1241 C1253 0.929 . S
H1242 C1256 0.930 . S
H1243 C1258 0.960 . S
H1244 C1258 0.960 . S
H1245 C1258 0.960 . S
C1246 H1238 0.929 . S
C1246 C1247 1.377 . S
C1246 C1248 1.384 . S
C1247 C1246 1.377 . S
C1247 C1253 1.390 . S
C1248 H1239 0.930 . S
C1248 C1246 1.384 . S
C1248 C1249 1.372 . S
C1249 C1248 1.372 . S
C1249 C1250 1.400 . S
C1249 C1254 1.490 . S
C1250 H1240 0.930 . S
C1250 C1249 1.400 . S
C1250 C1253 1.386 . S
H1251 C1267 0.930 . S
H1252 C1268 0.931 . S
C1253 H1241 0.929 . S
C1253 C1247 1.390 . S
C1253 C1250 1.386 . S
C1254 C1249 1.490 . S
C1254 C1256 1.395 . S
C1254 C1257 1.403 . S
H1255 C1261 0.930 . S
C1256 H1242 0.930 . S
C1256 C1254 1.395 . S
C1256 C1259 1.403 . S
C1257 C1254 1.403 . S
C1257 C1258 1.524 . S
C1257 C1261 1.400 . S
C1258 H1243 0.960 . S
C1258 H1244 0.960 . S
C1258 H1245 0.960 . S
C1258 C1257 1.524 . S
C1259 C1256 1.403 . S
C1259 C1260 1.392 . S
C1259 C1263 1.495 . S
C1260 C1259 1.392 . S
C1260 C1261 1.385 . S
C1260 C1262 1.478 . S
C1261 H1255 0.930 . S
C1261 C1257 1.400 . S
C1261 C1260 1.385 . S
C1262 C1260 1.478 . S
C1262 C1264 1.381 . S
C1262 C1268 1.383 . S
C1263 C1259 1.495 . S
C1263 H1269 0.959 . S
C1263 H1270 0.961 . S
C1263 H1271 0.960 . S
C1264 C1262 1.381 . S
C1264 C1265 1.394 . S
C1264 H1272 0.930 . S
C1265 C1264 1.394 . S
C1265 C1266 1.383 . S
C1265 H1273 0.929 . S
C1266 C1265 1.383 . S
C1266 C1267 1.377 . S
C1267 H1251 0.930 . S
C1267 C1266 1.377 . S
C1267 C1268 1.379 . S
C1268 H1252 0.931 . S
C1268 C1262 1.383 . S
C1268 C1267 1.379 . S
H1269 C1263 0.959 . S
H1270 C1263 0.961 . S
H1271 C1263 0.960 . S
H1272 C1264 0.930 . S
H1273 C1265 0.929 . S
H1274 C1282 0.929 . S
H1275 C1284 0.930 . S
H1276 C1286 0.930 . S
H1277 C1289 0.929 . S
H1278 C1292 0.930 . S
H1279 C1294 0.960 . S
H1280 C1294 0.960 . S
H1281 C1294 0.960 . S
C1282 H1274 0.929 . S
C1282 C1283 1.377 . S
C1282 C1284 1.384 . S
C1283 C1282 1.377 . S
C1283 C1289 1.390 . S
C1284 H1275 0.930 . S
C1284 C1282 1.384 . S
C1284 C1285 1.372 . S
C1285 C1284 1.372 . S
C1285 C1286 1.400 . S
C1285 C1290 1.490 . S
C1286 H1276 0.930 . S
C1286 C1285 1.400 . S
C1286 C1289 1.386 . S
H1287 C1303 0.930 . S
H1288 C1304 0.931 . S
C1289 H1277 0.929 . S
C1289 C1283 1.390 . S
C1289 C1286 1.386 . S
C1290 C1285 1.490 . S
C1290 C1292 1.395 . S
C1290 C1293 1.403 . S
H1291 C1297 0.930 . S
C1292 H1278 0.930 . S
C1292 C1290 1.395 . S
C1292 C1295 1.403 . S
C1293 C1290 1.403 . S
C1293 C1294 1.524 . S
C1293 C1297 1.400 . S
C1294 H1279 0.960 . S
C1294 H1280 0.960 . S
C1294 H1281 0.960 . S
C1294 C1293 1.524 . S
C1295 C1292 1.403 . S
C1295 C1296 1.392 . S
C1295 C1299 1.495 . S
C1296 C1295 1.392 . S
C1296 C1297 1.385 . S
C1296 C1298 1.478 . S
C1297 H1291 0.930 . S
C1297 C1293 1.400 . S
C1297 C1296 1.385 . S
C1298 C1296 1.478 . S
C1298 C1300 1.381 . S
C1298 C1304 1.383 . S
C1299 C1295 1.495 . S
C1299 H1305 0.959 . S
C1299 H1306 0.961 . S
C1299 H1307 0.960 . S
C1300 C1298 1.381 . S
C1300 C1301 1.394 . S
C1300 H1308 0.930 . S
C1301 C1300 1.394 . S
C1301 C1302 1.383 . S
C1301 H1309 0.955 . S
C1302 C1301 1.383 . S
C1302 C1303 1.377 . S
C1303 H1287 0.930 . S
C1303 C1302 1.377 . S
C1303 C1304 1.379 . S
C1304 H1288 0.931 . S
C1304 C1298 1.383 . S
C1304 C1303 1.379 . S
H1305 C1299 0.959 . S
H1306 C1299 0.961 . S
H1307 C1299 0.960 . S
H1308 C1300 0.930 . S
H1309 C1301 0.955 . S
H1310 C1318 0.929 . S
H1311 C1320 0.930 . S
H1312 C1322 0.930 . S
H1313 C1325 0.929 . S
H1314 C1328 0.930 . S
H1315 C1330 0.960 . S
H1316 C1330 0.960 . S
H1317 C1330 0.960 . S
C1318 H1310 0.929 . S
C1318 C1319 1.377 . S
C1318 C1320 1.384 . S
C1319 C1318 1.377 . S
C1319 C1325 1.390 . S
C1320 H1311 0.930 . S
C1320 C1318 1.384 . S
C1320 C1321 1.372 . S
C1321 C1320 1.372 . S
C1321 C1322 1.400 . S
C1321 C1326 1.490 . S
C1322 H1312 0.930 . S
C1322 C1321 1.400 . S
C1322 C1325 1.386 . S
H1323 C1339 0.930 . S
H1324 C1340 0.931 . S
C1325 H1313 0.929 . S
C1325 C1319 1.390 . S
C1325 C1322 1.386 . S
C1326 C1321 1.490 . S
C1326 C1328 1.395 . S
C1326 C1329 1.403 . S
H1327 C1333 0.930 . S
C1328 H1314 0.930 . S
C1328 C1326 1.395 . S
C1328 C1331 1.403 . S
C1329 C1326 1.403 . S
C1329 C1330 1.524 . S
C1329 C1333 1.400 . S
C1330 H1315 0.960 . S
C1330 H1316 0.960 . S
C1330 H1317 0.960 . S
C1330 C1329 1.524 . S
C1331 C1328 1.403 . S
C1331 C1332 1.392 . S
C1331 C1335 1.495 . S
C1332 C1331 1.392 . S
C1332 C1333 1.385 . S
C1332 C1334 1.478 . S
C1333 H1327 0.930 . S
C1333 C1329 1.400 . S
C1333 C1332 1.385 . S
C1334 C1332 1.478 . S
C1334 C1336 1.381 . S
C1334 C1340 1.383 . S
C1335 C1331 1.495 . S
C1335 H1341 0.959 . S
C1335 H1342 0.961 . S
C1335 H1343 0.960 . S
C1336 C1334 1.381 . S
C1336 C1337 1.394 . S
C1336 H1344 0.930 . S
C1337 C1336 1.394 . S
C1337 C1338 1.383 . S
C1337 H1345 0.929 . S
C1338 C1337 1.383 . S
C1338 C1339 1.377 . S
C1339 H1323 0.930 . S
C1339 C1338 1.377 . S
C1339 C1340 1.379 . S
C1340 H1324 0.931 . S
C1340 C1334 1.383 . S
C1340 C1339 1.379 . S
H1341 C1335 0.959 . S
H1342 C1335 0.961 . S
H1343 C1335 0.960 . S
H1344 C1336 0.930 . S
H1345 C1337 0.929 . S
H1346 C1354 0.929 . S
H1347 C1356 0.930 . S
H1348 C1358 0.930 . S
H1349 C1361 0.929 . S
H1350 C1364 0.930 . S
H1351 C1366 0.960 . S
H1352 C1366 0.960 . S
H1353 C1366 0.960 . S
C1354 H1346 0.929 . S
C1354 C1355 1.377 . S
C1354 C1356 1.384 . S
C1355 C1354 1.377 . S
C1355 C1361 1.390 . S
C1356 H1347 0.930 . S
C1356 C1354 1.384 . S
C1356 C1357 1.372 . S
C1357 C1356 1.372 . S
C1357 C1358 1.400 . S
C1357 C1362 1.490 . S
C1358 H1348 0.930 . S
C1358 C1357 1.400 . S
C1358 C1361 1.386 . S
H1359 C1375 0.930 . S
H1360 C1376 0.931 . S
C1361 H1349 0.929 . S
C1361 C1355 1.390 . S
C1361 C1358 1.386 . S
C1362 C1357 1.490 . S
C1362 C1364 1.395 . S
C1362 C1365 1.403 . S
H1363 C1369 0.930 . S
C1364 H1350 0.930 . S
C1364 C1362 1.395 . S
C1364 C1367 1.403 . S
C1365 C1362 1.403 . S
C1365 C1366 1.524 . S
C1365 C1369 1.400 . S
C1366 H1351 0.960 . S
C1366 H1352 0.960 . S
C1366 H1353 0.960 . S
C1366 C1365 1.524 . S
C1367 C1364 1.403 . S
C1367 C1368 1.392 . S
C1367 C1371 1.495 . S
C1368 C1367 1.392 . S
C1368 C1369 1.385 . S
C1368 C1370 1.478 . S
C1369 H1363 0.930 . S
C1369 C1365 1.400 . S
C1369 C1368 1.385 . S
C1370 C1368 1.478 . S
C1370 C1372 1.381 . S
C1370 C1376 1.383 . S
C1371 C1367 1.495 . S
C1371 H1377 0.959 . S
C1371 H1378 0.961 . S
C1371 H1379 0.960 . S
C1372 C1370 1.381 . S
C1372 C1373 1.394 . S
C1372 H1380 0.930 . S
C1373 C1372 1.394 . S
C1373 C1374 1.383 . S
C1373 H1381 0.929 . S
C1374 C1373 1.383 . S
C1374 C1375 1.377 . S
C1375 H1359 0.930 . S
C1375 C1374 1.377 . S
C1375 C1376 1.379 . S
C1376 H1360 0.931 . S
C1376 C1370 1.383 . S
C1376 C1375 1.379 . S
H1377 C1371 0.959 . S
H1378 C1371 0.961 . S
H1379 C1371 0.960 . S
H1380 C1372 0.930 . S
H1381 C1373 0.929 . S
H1382 C1390 0.929 . S
H1383 C1392 0.930 . S
H1384 C1394 0.930 . S
H1385 C1397 0.929 . S
H1386 C1400 0.930 . S
H1387 C1402 0.960 . S
H1388 C1402 0.960 . S
H1389 C1402 0.960 . S
C1390 H1382 0.929 . S
C1390 C1391 1.377 . S
C1390 C1392 1.384 . S
C1391 C1390 1.377 . S
C1391 C1397 1.390 . S
C1392 H1383 0.930 . S
C1392 C1390 1.384 . S
C1392 C1393 1.372 . S
C1393 C1392 1.372 . S
C1393 C1394 1.400 . S
C1393 C1398 1.490 . S
C1394 H1384 0.930 . S
C1394 C1393 1.400 . S
C1394 C1397 1.386 . S
H1395 C1411 0.930 . S
H1396 C1412 0.931 . S
C1397 H1385 0.929 . S
C1397 C1391 1.390 . S
C1397 C1394 1.386 . S
C1398 C1393 1.490 . S
C1398 C1400 1.395 . S
C1398 C1401 1.403 . S
H1399 C1405 0.930 . S
C1400 H1386 0.930 . S
C1400 C1398 1.395 . S
C1400 C1403 1.403 . S
C1401 C1398 1.403 . S
C1401 C1402 1.524 . S
C1401 C1405 1.400 . S
C1402 H1387 0.960 . S
C1402 H1388 0.960 . S
C1402 H1389 0.960 . S
C1402 C1401 1.524 . S
C1403 C1400 1.403 . S
C1403 C1404 1.392 . S
C1403 C1407 1.495 . S
C1404 C1403 1.392 . S
C1404 C1405 1.385 . S
C1404 C1406 1.478 . S
C1405 H1399 0.930 . S
C1405 C1401 1.400 . S
C1405 C1404 1.385 . S
C1406 C1404 1.478 . S
C1406 C1408 1.381 . S
C1406 C1412 1.383 . S
C1407 C1403 1.495 . S
C1407 H1413 0.959 . S
C1407 H1414 0.961 . S
C1407 H1415 0.960 . S
C1408 C1406 1.381 . S
C1408 C1409 1.394 . S
C1408 H1416 0.930 . S
C1409 C1408 1.394 . S
C1409 C1410 1.383 . S
C1409 H1417 0.929 . S
C1410 C1409 1.383 . S
C1410 C1411 1.377 . S
C1411 H1395 0.930 . S
C1411 C1410 1.377 . S
C1411 C1412 1.379 . S
C1412 H1396 0.931 . S
C1412 C1406 1.383 . S
C1412 C1411 1.379 . S
H1413 C1407 0.959 . S
H1414 C1407 0.961 . S
H1415 C1407 0.960 . S
H1416 C1408 0.930 . S
H1417 C1409 0.929 . S
H1418 C1426 0.929 . S
H1419 C1428 0.930 . S
H1420 C1430 0.930 . S
H1421 C1433 0.929 . S
H1422 C1436 0.930 . S
H1423 C1438 0.960 . S
H1424 C1438 0.960 . S
H1425 C1438 0.960 . S
C1426 H1418 0.929 . S
C1426 C1427 1.377 . S
C1426 C1428 1.384 . S
C1427 C1426 1.377 . S
C1427 C1433 1.390 . S
C1428 H1419 0.930 . S
C1428 C1426 1.384 . S
C1428 C1429 1.372 . S
C1429 C1428 1.372 . S
C1429 C1430 1.400 . S
C1429 C1434 1.490 . S
C1430 H1420 0.930 . S
C1430 C1429 1.400 . S
C1430 C1433 1.386 . S
H1431 C1447 0.930 . S
H1432 C1448 0.931 . S
C1433 H1421 0.929 . S
C1433 C1427 1.390 . S
C1433 C1430 1.386 . S
C1434 C1429 1.490 . S
C1434 C1436 1.395 . S
C1434 C1437 1.403 . S
H1435 C1441 0.930 . S
C1436 H1422 0.930 . S
C1436 C1434 1.395 . S
C1436 C1439 1.403 . S
C1437 C1434 1.403 . S
C1437 C1438 1.524 . S
C1437 C1441 1.400 . S
C1438 H1423 0.960 . S
C1438 H1424 0.960 . S
C1438 H1425 0.960 . S
C1438 C1437 1.524 . S
C1439 C1436 1.403 . S
C1439 C1440 1.392 . S
C1439 C1443 1.495 . S
C1440 C1439 1.392 . S
C1440 C1441 1.385 . S
C1440 C1442 1.478 . S
C1441 H1435 0.930 . S
C1441 C1437 1.400 . S
C1441 C1440 1.385 . S
C1442 C1440 1.478 . S
C1442 C1444 1.381 . S
C1442 C1448 1.383 . S
C1443 C1439 1.495 . S
C1443 H1449 0.959 . S
C1443 H1450 0.961 . S
C1443 H1451 0.960 . S
C1444 C1442 1.381 . S
C1444 C1445 1.394 . S
C1444 H1452 0.930 . S
C1445 C1444 1.394 . S
C1445 C1446 1.383 . S
C1445 H1453 0.929 . S
C1446 C1445 1.383 . S
C1446 C1447 1.377 . S
C1447 H1431 0.930 . S
C1447 C1446 1.377 . S
C1447 C1448 1.379 . S
C1448 H1432 0.931 . S
C1448 C1442 1.383 . S
C1448 C1447 1.379 . S
H1449 C1443 0.959 . S
H1450 C1443 0.961 . S
H1451 C1443 0.960 . S
H1452 C1444 0.930 . S
H1453 C1445 0.929 . S
H1454 C1462 0.929 . S
H1455 C1464 0.930 . S
H1456 C1466 0.930 . S
H1457 C1469 0.929 . S
H1458 C1472 0.930 . S
H1459 C1474 0.960 . S
H1460 C1474 0.960 . S
H1461 C1474 0.960 . S
C1462 H1454 0.929 . S
C1462 C1463 1.377 . S
C1462 C1464 1.384 . S
C1463 C1462 1.377 . S
C1463 C1469 1.390 . S
C1464 H1455 0.930 . S
C1464 C1462 1.384 . S
C1464 C1465 1.372 . S
C1465 C1464 1.372 . S
C1465 C1466 1.400 . S
C1465 C1470 1.490 . S
C1466 H1456 0.930 . S
C1466 C1465 1.400 . S
C1466 C1469 1.386 . S
H1467 C1483 0.930 . S
H1468 C1484 0.931 . S
C1469 H1457 0.929 . S
C1469 C1463 1.390 . S
C1469 C1466 1.386 . S
C1470 C1465 1.490 . S
C1470 C1472 1.395 . S
C1470 C1473 1.403 . S
H1471 C1477 0.930 . S
C1472 H1458 0.930 . S
C1472 C1470 1.395 . S
C1472 C1475 1.403 . S
C1473 C1470 1.403 . S
C1473 C1474 1.524 . S
C1473 C1477 1.400 . S
C1474 H1459 0.960 . S
C1474 H1460 0.960 . S
C1474 H1461 0.960 . S
C1474 C1473 1.524 . S
C1475 C1472 1.403 . S
C1475 C1476 1.392 . S
C1475 C1479 1.495 . S
C1476 C1475 1.392 . S
C1476 C1477 1.385 . S
C1476 C1478 1.478 . S
C1477 H1471 0.930 . S
C1477 C1473 1.400 . S
C1477 C1476 1.385 . S
C1478 C1476 1.478 . S
C1478 C1480 1.381 . S
C1478 C1484 1.383 . S
C1479 C1475 1.495 . S
C1479 H1485 0.959 . S
C1479 H1486 0.961 . S
C1479 H1487 0.960 . S
C1480 C1478 1.381 . S
C1480 C1481 1.394 . S
C1480 H1488 0.930 . S
C1481 C1480 1.394 . S
C1481 C1482 1.383 . S
C1481 H1489 0.929 . S
C1482 C1481 1.383 . S
C1482 C1483 1.377 . S
C1483 H1467 0.930 . S
C1483 C1482 1.377 . S
C1483 C1484 1.379 . S
C1484 H1468 0.931 . S
C1484 C1478 1.383 . S
C1484 C1483 1.379 . S
H1485 C1479 0.959 . S
H1486 C1479 0.961 . S
H1487 C1479 0.960 . S
H1488 C1480 0.930 . S
H1489 C1481 0.929 . S
H1490 C1498 0.929 . S
H1491 C1500 0.930 . S
H1492 C1502 0.930 . S
H1493 C1505 0.929 . S
H1494 C1508 0.930 . S
H1495 C1510 0.960 . S
H1496 C1510 0.960 . S
H1497 C1510 0.960 . S
C1498 H1490 0.929 . S
C1498 C1499 1.377 . S
C1498 C1500 1.384 . S
C1499 C1498 1.377 . S
C1499 C1505 1.390 . S
C1500 H1491 0.930 . S
C1500 C1498 1.384 . S
C1500 C1501 1.372 . S
C1501 C1500 1.372 . S
C1501 C1502 1.400 . S
C1501 C1506 1.490 . S
C1502 H1492 0.930 . S
C1502 C1501 1.400 . S
C1502 C1505 1.386 . S
H1503 C1519 0.930 1_554 S
H1504 C1520 0.931 . S
C1505 H1493 0.929 . S
C1505 C1499 1.390 . S
C1505 C1502 1.386 . S
C1506 C1501 1.490 . S
C1506 C1508 1.395 . S
C1506 C1509 1.403 . S
H1507 C1513 0.930 . S
C1508 H1494 0.930 . S
C1508 C1506 1.395 . S
C1508 C1511 1.403 . S
C1509 C1506 1.403 . S
C1509 C1510 1.524 . S
C1509 C1513 1.400 . S
C1510 H1495 0.960 . S
C1510 H1496 0.960 . S
C1510 H1497 0.960 . S
C1510 C1509 1.524 . S
C1511 C1508 1.403 . S
C1511 C1512 1.392 . S
C1511 C1515 1.495 . S
C1512 C1511 1.392 . S
C1512 C1513 1.385 . S
C1512 C1514 1.478 . S
C1513 H1507 0.930 . S
C1513 C1509 1.400 . S
C1513 C1512 1.385 . S
C1514 C1512 1.478 . S
C1514 C1516 1.381 . S
C1514 C1520 1.383 . S
C1515 C1511 1.495 . S
C1515 H1521 0.959 . S
C1515 H1522 0.961 . S
C1515 H1523 0.960 . S
C1516 C1514 1.381 . S
C1516 C1517 1.394 . S
C1516 H1524 0.930 . S
C1517 C1516 1.394 . S
C1517 C1518 1.383 . S
C1517 H1525 0.929 . S
C1518 C1517 1.383 . S
C1518 C1519 1.377 . S
C1519 H1503 0.930 1_556 S
C1519 C1518 1.377 . S
C1519 C1520 1.379 . S
C1520 H1504 0.931 . S
C1520 C1514 1.383 . S
C1520 C1519 1.379 . S
H1521 C1515 0.959 . S
H1522 C1515 0.961 . S
H1523 C1515 0.960 . S
H1524 C1516 0.930 . S
H1525 C1517 0.929 . S
H1526 C1534 0.929 . S
H1527 C1536 0.930 . S
H1528 C1538 0.930 . S
H1529 C1541 0.929 . S
H1530 C1544 0.930 . S
H1531 C1546 0.960 . S
H1532 C1546 0.960 . S
H1533 C1546 0.960 . S
C1534 H1526 0.929 . S
C1534 C1535 1.377 . S
C1534 C1536 1.384 . S
C1535 C1534 1.377 . S
C1535 C1541 1.390 . S
C1536 H1527 0.930 . S
C1536 C1534 1.384 . S
C1536 C1537 1.372 . S
C1537 C1536 1.372 . S
C1537 C1538 1.400 . S
C1537 C1542 1.490 . S
C1538 H1528 0.930 . S
C1538 C1537 1.400 . S
C1538 C1541 1.386 . S
H1539 C1555 0.930 . S
H1540 C1556 0.931 . S
C1541 H1529 0.929 . S
C1541 C1535 1.390 . S
C1541 C1538 1.386 . S
C1542 C1537 1.490 . S
C1542 C1544 1.395 . S
C1542 C1545 1.403 . S
H1543 C1549 0.930 . S
C1544 H1530 0.930 . S
C1544 C1542 1.395 . S
C1544 C1547 1.403 . S
C1545 C1542 1.403 . S
C1545 C1546 1.524 . S
C1545 C1549 1.400 . S
C1546 H1531 0.960 . S
C1546 H1532 0.960 . S
C1546 H1533 0.960 . S
C1546 C1545 1.524 . S
C1547 C1544 1.403 . S
C1547 C1548 1.392 . S
C1547 C1551 1.495 . S
C1548 C1547 1.392 . S
C1548 C1549 1.385 . S
C1548 C1550 1.478 . S
C1549 H1543 0.930 . S
C1549 C1545 1.400 . S
C1549 C1548 1.385 . S
C1550 C1548 1.478 . S
C1550 C1552 1.381 . S
C1550 C1556 1.383 . S
C1551 C1547 1.495 . S
C1551 H1557 0.959 . S
C1551 H1558 0.961 . S
C1551 H1559 0.960 . S
C1552 C1550 1.381 . S
C1552 C1553 1.394 . S
C1552 H1560 0.930 . S
C1553 C1552 1.394 . S
C1553 C1554 1.383 . S
C1553 H1561 0.929 . S
C1554 C1553 1.383 . S
C1554 C1555 1.377 . S
C1555 H1539 0.930 . S
C1555 C1554 1.377 . S
C1555 C1556 1.379 . S
C1556 H1540 0.931 . S
C1556 C1550 1.383 . S
C1556 C1555 1.379 . S
H1557 C1551 0.959 . S
H1558 C1551 0.961 . S
H1559 C1551 0.960 . S
H1560 C1552 0.930 . S
H1561 C1553 0.929 . S
H1562 C1570 0.929 . S
H1563 C1572 0.930 . S
H1564 C1574 0.930 . S
H1565 C1577 0.929 . S
H1566 C1580 0.930 . S
H1567 C1582 0.960 . S
H1568 C1582 0.960 . S
H1569 C1582 0.960 . S
C1570 H1562 0.929 . S
C1570 C1571 1.377 . S
C1570 C1572 1.384 . S
C1571 C1570 1.377 . S
C1571 C1577 1.390 . S
C1572 H1563 0.930 . S
C1572 C1570 1.384 . S
C1572 C1573 1.372 . S
C1573 C1572 1.372 . S
C1573 C1574 1.400 . S
C1573 C1578 1.490 . S
C1574 H1564 0.930 . S
C1574 C1573 1.400 . S
C1574 C1577 1.386 . S
H1575 C1591 0.930 . S
H1576 C1592 0.931 . S
C1577 H1565 0.929 . S
C1577 C1571 1.390 . S
C1577 C1574 1.386 . S
C1578 C1573 1.490 . S
C1578 C1580 1.395 . S
C1578 C1581 1.403 . S
H1579 C1585 0.930 . S
C1580 H1566 0.930 . S
C1580 C1578 1.395 . S
C1580 C1583 1.403 . S
C1581 C1578 1.403 . S
C1581 C1582 1.524 . S
C1581 C1585 1.400 . S
C1582 H1567 0.960 . S
C1582 H1568 0.960 . S
C1582 H1569 0.960 . S
C1582 C1581 1.524 . S
C1583 C1580 1.403 . S
C1583 C1584 1.392 . S
C1583 C1587 1.495 . S
C1584 C1583 1.392 . S
C1584 C1585 1.385 . S
C1584 C1586 1.478 . S
C1585 H1579 0.930 . S
C1585 C1581 1.400 . S
C1585 C1584 1.385 . S
C1586 C1584 1.478 . S
C1586 C1588 1.381 . S
C1586 C1592 1.383 . S
C1587 C1583 1.495 . S
C1587 H1593 0.959 . S
C1587 H1594 0.961 . S
C1587 H1595 0.960 . S
C1588 C1586 1.381 . S
C1588 C1589 1.394 . S
C1588 H1596 0.930 . S
C1589 C1588 1.394 . S
C1589 C1590 1.383 . S
C1589 H1597 0.929 . S
C1590 C1589 1.383 . S
C1590 C1591 1.377 . S
C1591 H1575 0.930 . S
C1591 C1590 1.377 . S
C1591 C1592 1.379 . S
C1592 H1576 0.931 . S
C1592 C1586 1.383 . S
C1592 C1591 1.379 . S
H1593 C1587 0.959 . S
H1594 C1587 0.961 . S
H1595 C1587 0.960 . S
H1596 C1588 0.930 . S
H1597 C1589 0.929 . S
H1598 C1606 0.929 . S
H1599 C1608 0.930 . S
H1600 C1610 0.930 . S
H1601 C1613 0.929 . S
H1602 C1616 0.930 . S
H1603 C1618 0.960 . S
H1604 C1618 0.960 . S
H1605 C1618 0.960 . S
C1606 H1598 0.929 . S
C1606 C1607 1.377 . S
C1606 C1608 1.384 . S
C1607 C1606 1.377 . S
C1607 C1613 1.390 . S
C1608 H1599 0.930 . S
C1608 C1606 1.384 . S
C1608 C1609 1.372 . S
C1609 C1608 1.372 . S
C1609 C1610 1.400 . S
C1609 C1614 1.490 . S
C1610 H1600 0.930 . S
C1610 C1609 1.400 . S
C1610 C1613 1.386 . S
H1611 C1627 0.930 . S
H1612 C1628 0.931 . S
C1613 H1601 0.929 . S
C1613 C1607 1.390 . S
C1613 C1610 1.386 . S
C1614 C1609 1.490 . S
C1614 C1616 1.395 . S
C1614 C1617 1.403 . S
H1615 C1621 0.930 . S
C1616 H1602 0.930 . S
C1616 C1614 1.395 . S
C1616 C1619 1.403 . S
C1617 C1614 1.403 . S
C1617 C1618 1.524 . S
C1617 C1621 1.400 . S
C1618 H1603 0.960 . S
C1618 H1604 0.960 . S
C1618 H1605 0.960 . S
C1618 C1617 1.524 . S
C1619 C1616 1.403 . S
C1619 C1620 1.392 . S
C1619 C1623 1.495 . S
C1620 C1619 1.392 . S
C1620 C1621 1.385 . S
C1620 C1622 1.478 . S
C1621 H1615 0.930 . S
C1621 C1617 1.400 . S
C1621 C1620 1.385 . S
C1622 C1620 1.478 . S
C1622 C1624 1.381 . S
C1622 C1628 1.383 . S
C1623 C1619 1.495 . S
C1623 H1629 0.959 . S
C1623 H1630 0.961 . S
C1623 H1631 0.960 . S
C1624 C1622 1.381 . S
C1624 C1625 1.394 . S
C1624 H1632 0.930 . S
C1625 C1624 1.394 . S
C1625 C1626 1.383 . S
C1625 H1633 0.929 . S
C1626 C1625 1.383 . S
C1626 C1627 1.377 . S
C1627 H1611 0.930 . S
C1627 C1626 1.377 . S
C1627 C1628 1.379 . S
C1628 H1612 0.931 . S
C1628 C1622 1.383 . S
C1628 C1627 1.379 . S
H1629 C1623 0.959 . S
H1630 C1623 0.961 . S
H1631 C1623 0.960 . S
H1632 C1624 0.930 . S
H1633 C1625 0.929 . S
H1634 C1642 0.929 . S
H1635 C1644 0.930 . S
H1636 C1646 0.930 . S
H1637 C1649 0.929 . S
H1638 C1652 0.930 . S
H1639 C1654 0.960 . S
H1640 C1654 0.960 . S
H1641 C1654 0.960 . S
C1642 H1634 0.929 . S
C1642 C1643 1.377 . S
C1642 C1644 1.384 . S
C1643 C1642 1.377 . S
C1643 C1649 1.390 . S
C1644 H1635 0.930 . S
C1644 C1642 1.384 . S
C1644 C1645 1.372 . S
C1645 C1644 1.372 . S
C1645 C1646 1.400 . S
C1645 C1650 1.490 . S
C1646 H1636 0.930 . S
C1646 C1645 1.400 . S
C1646 C1649 1.386 . S
H1647 C1663 0.930 . S
H1648 C1664 0.931 . S
C1649 H1637 0.929 . S
C1649 C1643 1.390 . S
C1649 C1646 1.386 . S
C1650 C1645 1.490 . S
C1650 C1652 1.395 . S
C1650 C1653 1.403 . S
H1651 C1657 0.930 . S
C1652 H1638 0.930 . S
C1652 C1650 1.395 . S
C1652 C1655 1.403 . S
C1653 C1650 1.403 . S
C1653 C1654 1.524 . S
C1653 C1657 1.400 . S
C1654 H1639 0.960 . S
C1654 H1640 0.960 . S
C1654 H1641 0.960 . S
C1654 C1653 1.524 . S
C1655 C1652 1.403 . S
C1655 C1656 1.392 . S
C1655 C1659 1.495 . S
C1656 C1655 1.392 . S
C1656 C1657 1.385 . S
C1656 C1658 1.478 . S
C1657 H1651 0.930 . S
C1657 C1653 1.400 . S
C1657 C1656 1.385 . S
C1658 C1656 1.478 . S
C1658 C1660 1.381 . S
C1658 C1664 1.383 . S
C1659 C1655 1.495 . S
C1659 H1665 0.959 . S
C1659 H1666 0.961 . S
C1659 H1667 0.960 . S
C1660 C1658 1.381 . S
C1660 C1661 1.394 . S
C1660 H1668 0.930 . S
C1661 C1660 1.394 . S
C1661 C1662 1.383 . S
C1661 H1669 0.929 . S
C1662 C1661 1.383 . S
C1662 C1663 1.377 . S
C1663 H1647 0.930 . S
C1663 C1662 1.377 . S
C1663 C1664 1.379 . S
C1664 H1648 0.931 . S
C1664 C1658 1.383 . S
C1664 C1663 1.379 . S
H1665 C1659 0.959 . S
H1666 C1659 0.961 . S
H1667 C1659 0.960 . S
H1668 C1660 0.930 . S
H1669 C1661 0.929 . S
H1670 C1678 0.929 . S
H1671 C1680 0.930 . S
H1672 C1682 0.930 . S
H1673 C1685 0.929 . S
H1674 C1688 0.930 . S
H1675 C1690 0.960 . S
H1676 C1690 0.960 . S
H1677 C1690 0.960 . S
C1678 H1670 0.929 . S
C1678 C1679 1.377 . S
C1678 C1680 1.384 . S
C1679 C1678 1.377 . S
C1679 C1685 1.390 . S
C1680 H1671 0.930 . S
C1680 C1678 1.384 . S
C1680 C1681 1.372 . S
C1681 C1680 1.372 . S
C1681 C1682 1.400 . S
C1681 C1686 1.490 . S
C1682 H1672 0.930 . S
C1682 C1681 1.400 . S
C1682 C1685 1.386 . S
H1683 C1699 0.930 . S
H1684 C1700 0.931 . S
C1685 H1673 0.929 . S
C1685 C1679 1.390 . S
C1685 C1682 1.386 . S
C1686 C1681 1.490 . S
C1686 C1688 1.395 . S
C1686 C1689 1.403 . S
H1687 C1693 0.930 . S
C1688 H1674 0.930 . S
C1688 C1686 1.395 . S
C1688 C1691 1.403 . S
C1689 C1686 1.403 . S
C1689 C1690 1.524 . S
C1689 C1693 1.400 . S
C1690 H1675 0.960 . S
C1690 H1676 0.960 . S
C1690 H1677 0.960 . S
C1690 C1689 1.524 . S
C1691 C1688 1.403 . S
C1691 C1692 1.392 . S
C1691 C1695 1.495 . S
C1692 C1691 1.392 . S
C1692 C1693 1.385 . S
C1692 C1694 1.478 . S
C1693 H1687 0.930 . S
C1693 C1689 1.400 . S
C1693 C1692 1.385 . S
C1694 C1692 1.478 . S
C1694 C1696 1.381 . S
C1694 C1700 1.383 . S
C1695 C1691 1.495 . S
C1695 H1701 0.959 . S
C1695 H1702 0.961 . S
C1695 H1703 0.960 . S
C1696 C1694 1.381 . S
C1696 C1697 1.394 . S
C1696 H1704 0.930 . S
C1697 C1696 1.394 . S
C1697 C1698 1.383 . S
C1697 H1705 0.929 . S
C1698 C1697 1.383 . S
C1698 C1699 1.377 . S
C1699 H1683 0.930 . S
C1699 C1698 1.377 . S
C1699 C1700 1.379 . S
C1700 H1684 0.931 . S
C1700 C1694 1.383 . S
C1700 C1699 1.379 . S
H1701 C1695 0.959 . S
H1702 C1695 0.961 . S
H1703 C1695 0.960 . S
H1704 C1696 0.930 . S
H1705 C1697 0.929 . S
H1706 C1714 0.929 . S
H1707 C1716 0.930 . S
H1708 C1718 0.930 . S
H1709 C1721 0.929 . S
H1710 C1724 0.930 . S
H1711 C1726 0.960 . S
H1712 C1726 0.960 . S
H1713 C1726 0.960 . S
C1714 H1706 0.929 . S
C1714 C1715 1.377 . S
C1714 C1716 1.384 . S
C1715 C1714 1.377 . S
C1715 C1721 1.390 . S
C1716 H1707 0.930 . S
C1716 C1714 1.384 . S
C1716 C1717 1.372 . S
C1717 C1716 1.372 . S
C1717 C1718 1.400 . S
C1717 C1722 1.490 . S
C1718 H1708 0.930 . S
C1718 C1717 1.400 . S
C1718 C1721 1.386 . S
H1719 C1735 0.930 . S
H1720 C1736 0.931 . S
C1721 H1709 0.929 . S
C1721 C1715 1.390 . S
C1721 C1718 1.386 . S
C1722 C1717 1.490 . S
C1722 C1724 1.395 . S
C1722 C1725 1.403 . S
H1723 C1729 0.930 . S
C1724 H1710 0.930 . S
C1724 C1722 1.395 . S
C1724 C1727 1.403 . S
C1725 C1722 1.403 . S
C1725 C1726 1.524 . S
C1725 C1729 1.400 . S
C1726 H1711 0.960 . S
C1726 H1712 0.960 . S
C1726 H1713 0.960 . S
C1726 C1725 1.524 . S
C1727 C1724 1.403 . S
C1727 C1728 1.392 . S
C1727 C1731 1.495 . S
C1728 C1727 1.392 . S
C1728 C1729 1.385 . S
C1728 C1730 1.478 . S
C1729 H1723 0.930 . S
C1729 C1725 1.400 . S
C1729 C1728 1.385 . S
C1730 C1728 1.478 . S
C1730 C1732 1.381 . S
C1730 C1736 1.383 . S
C1731 C1727 1.495 . S
C1731 H1737 0.959 . S
C1731 H1738 0.961 . S
C1731 H1739 0.960 . S
C1732 C1730 1.381 . S
C1732 C1733 1.394 . S
C1732 H1740 0.930 . S
C1733 C1732 1.394 . S
C1733 C1734 1.383 . S
C1733 H1741 0.929 . S
C1734 C1733 1.383 . S
C1734 C1735 1.377 . S
C1735 H1719 0.930 . S
C1735 C1734 1.377 . S
C1735 C1736 1.379 . S
C1736 H1720 0.931 . S
C1736 C1730 1.383 . S
C1736 C1735 1.379 . S
H1737 C1731 0.959 . S
H1738 C1731 0.961 . S
H1739 C1731 0.960 . S
H1740 C1732 0.930 . S
H1741 C1733 0.929 . S
H1742 C1750 0.929 . S
H1743 C1752 0.930 . S
H1744 C1754 0.930 . S
H1745 C1757 0.929 . S
H1746 C1760 0.930 . S
H1747 C1762 0.960 . S
H1748 C1762 0.960 . S
H1749 C1762 0.960 . S
C1750 H1742 0.929 . S
C1750 C1751 1.377 . S
C1750 C1752 1.384 . S
C1751 C1750 1.377 . S
C1751 C1757 1.390 . S
C1752 H1743 0.930 . S
C1752 C1750 1.384 . S
C1752 C1753 1.372 . S
C1753 C1752 1.372 . S
C1753 C1754 1.400 . S
C1753 C1758 1.490 . S
C1754 H1744 0.930 . S
C1754 C1753 1.400 . S
C1754 C1757 1.386 . S
H1755 C1771 0.930 . S
H1756 C1772 0.931 . S
C1757 H1745 0.929 . S
C1757 C1751 1.390 . S
C1757 C1754 1.386 . S
C1758 C1753 1.490 . S
C1758 C1760 1.395 . S
C1758 C1761 1.403 . S
H1759 C1765 0.930 . S
C1760 H1746 0.930 . S
C1760 C1758 1.395 . S
C1760 C1763 1.403 . S
C1761 C1758 1.403 . S
C1761 C1762 1.524 . S
C1761 C1765 1.400 . S
C1762 H1747 0.960 . S
C1762 H1748 0.960 . S
C1762 H1749 0.960 . S
C1762 C1761 1.524 . S
C1763 C1760 1.403 . S
C1763 C1764 1.392 . S
C1763 C1767 1.495 . S
C1764 C1763 1.392 . S
C1764 C1765 1.385 . S
C1764 C1766 1.478 . S
C1765 H1759 0.930 . S
C1765 C1761 1.400 . S
C1765 C1764 1.385 . S
C1766 C1764 1.478 . S
C1766 C1768 1.381 . S
C1766 C1772 1.383 . S
C1767 C1763 1.495 . S
C1767 H1773 0.959 . S
C1767 H1774 0.961 . S
C1767 H1775 0.960 . S
C1768 C1766 1.381 . S
C1768 C1769 1.394 . S
C1768 H1776 0.930 . S
C1769 C1768 1.394 . S
C1769 C1770 1.383 . S
C1769 H1777 0.929 . S
C1770 C1769 1.383 . S
C1770 C1771 1.377 . S
C1771 H1755 0.930 . S
C1771 C1770 1.377 . S
C1771 C1772 1.379 . S
C1772 H1756 0.931 . S
C1772 C1766 1.383 . S
C1772 C1771 1.379 . S
H1773 C1767 0.959 . S
H1774 C1767 0.961 . S
H1775 C1767 0.960 . S
H1776 C1768 0.930 . S
H1777 C1769 0.929 . S
H1778 C1786 0.929 . S
H1779 C1788 0.930 . S
H1780 C1790 0.930 . S
H1781 C1793 0.929 . S
H1782 C1796 0.930 . S
H1783 C1798 0.960 . S
H1784 C1798 0.960 . S
H1785 C1798 0.960 . S
C1786 H1778 0.929 . S
C1786 C1787 1.377 . S
C1786 C1788 1.384 . S
C1787 C1786 1.377 . S
C1787 C1793 1.390 . S
C1788 H1779 0.930 . S
C1788 C1786 1.384 . S
C1788 C1789 1.372 . S
C1789 C1788 1.372 . S
C1789 C1790 1.400 . S
C1789 C1794 1.490 . S
C1790 H1780 0.930 . S
C1790 C1789 1.400 . S
C1790 C1793 1.386 . S
H1791 C1807 0.930 . S
H1792 C1808 0.931 . S
C1793 H1781 0.929 . S
C1793 C1787 1.390 . S
C1793 C1790 1.386 . S
C1794 C1789 1.490 . S
C1794 C1796 1.395 . S
C1794 C1797 1.403 . S
H1795 C1801 0.930 . S
C1796 H1782 0.930 . S
C1796 C1794 1.395 . S
C1796 C1799 1.403 . S
C1797 C1794 1.403 . S
C1797 C1798 1.524 . S
C1797 C1801 1.400 . S
C1798 H1783 0.960 . S
C1798 H1784 0.960 . S
C1798 H1785 0.960 . S
C1798 C1797 1.524 . S
C1799 C1796 1.403 . S
C1799 C1800 1.392 . S
C1799 C1803 1.495 . S
C1800 C1799 1.392 . S
C1800 C1801 1.385 . S
C1800 C1802 1.478 . S
C1801 H1795 0.930 . S
C1801 C1797 1.400 . S
C1801 C1800 1.385 . S
C1802 C1800 1.478 . S
C1802 C1804 1.381 . S
C1802 C1808 1.383 . S
C1803 C1799 1.495 . S
C1803 H1809 0.959 . S
C1803 H1810 0.961 . S
C1803 H1811 0.960 . S
C1804 C1802 1.381 . S
C1804 C1805 1.394 . S
C1804 H1812 0.930 . S
C1805 C1804 1.394 . S
C1805 C1806 1.383 . S
C1805 H1813 0.929 . S
C1806 C1805 1.383 . S
C1806 C1807 1.377 . S
C1807 H1791 0.930 . S
C1807 C1806 1.377 . S
C1807 C1808 1.379 . S
C1808 H1792 0.931 . S
C1808 C1802 1.383 . S
C1808 C1807 1.379 . S
H1809 C1803 0.959 . S
H1810 C1803 0.961 . S
H1811 C1803 0.960 . S
H1812 C1804 0.930 . S
H1813 C1805 0.929 . S
H1814 C1822 0.929 . S
H1815 C1824 0.930 . S
H1816 C1826 0.930 . S
H1817 C1829 0.929 . S
H1818 C1832 0.930 . S
H1819 C1834 0.960 . S
H1820 C1834 0.960 . S
H1821 C1834 0.960 . S
C1822 H1814 0.929 . S
C1822 C1823 1.377 . S
C1822 C1824 1.384 . S
C1823 C1822 1.377 . S
C1823 C1829 1.390 . S
C1824 H1815 0.930 . S
C1824 C1822 1.384 . S
C1824 C1825 1.372 . S
C1825 C1824 1.372 . S
C1825 C1826 1.400 . S
C1825 C1830 1.490 . S
C1826 H1816 0.930 . S
C1826 C1825 1.400 . S
C1826 C1829 1.386 . S
H1827 C1843 0.930 . S
H1828 C1844 0.931 . S
C1829 H1817 0.929 . S
C1829 C1823 1.390 . S
C1829 C1826 1.386 . S
C1830 C1825 1.490 . S
C1830 C1832 1.395 . S
C1830 C1833 1.403 . S
H1831 C1837 0.930 . S
C1832 H1818 0.930 . S
C1832 C1830 1.395 . S
C1832 C1835 1.403 . S
C1833 C1830 1.403 . S
C1833 C1834 1.524 . S
C1833 C1837 1.400 . S
C1834 H1819 0.960 . S
C1834 H1820 0.960 . S
C1834 H1821 0.960 . S
C1834 C1833 1.524 . S
C1835 C1832 1.403 . S
C1835 C1836 1.392 . S
C1835 C1839 1.495 . S
C1836 C1835 1.392 . S
C1836 C1837 1.385 . S
C1836 C1838 1.478 . S
C1837 H1831 0.930 . S
C1837 C1833 1.400 . S
C1837 C1836 1.385 . S
C1838 C1836 1.478 . S
C1838 C1840 1.381 . S
C1838 C1844 1.383 . S
C1839 C1835 1.495 . S
C1839 H1845 0.959 . S
C1839 H1846 0.961 . S
C1839 H1847 0.960 . S
C1840 C1838 1.381 . S
C1840 C1841 1.394 . S
C1840 H1848 0.930 . S
C1841 C1840 1.394 . S
C1841 C1842 1.383 . S
C1841 H1849 0.929 . S
C1842 C1841 1.383 . S
C1842 C1843 1.377 . S
C1843 H1827 0.930 . S
C1843 C1842 1.377 . S
C1843 C1844 1.379 . S
C1844 H1828 0.931 . S
C1844 C1838 1.383 . S
C1844 C1843 1.379 . S
H1845 C1839 0.959 . S
H1846 C1839 0.961 . S
H1847 C1839 0.960 . S
H1848 C1840 0.930 . S
H1849 C1841 0.929 . S
H1850 C1858 0.929 . S
H1851 C1860 0.930 . S
H1852 C1862 0.930 . S
H1853 C1865 0.929 . S
H1854 C1868 0.930 . S
H1855 C1870 0.960 . S
H1856 C1870 0.960 . S
H1857 C1870 0.960 . S
C1858 H1850 0.929 . S
C1858 C1859 1.377 . S
C1858 C1860 1.384 . S
C1859 C1858 1.377 . S
C1859 C1865 1.390 . S
C1860 H1851 0.930 . S
C1860 C1858 1.384 . S
C1860 C1861 1.372 . S
C1861 C1860 1.372 . S
C1861 C1862 1.400 . S
C1861 C1866 1.490 . S
C1862 H1852 0.930 . S
C1862 C1861 1.400 . S
C1862 C1865 1.386 . S
H1863 C1879 0.930 . S
H1864 C1880 0.931 . S
C1865 H1853 0.929 . S
C1865 C1859 1.390 . S
C1865 C1862 1.386 . S
C1866 C1861 1.490 . S
C1866 C1868 1.395 . S
C1866 C1869 1.403 . S
H1867 C1873 0.930 . S
C1868 H1854 0.930 . S
C1868 C1866 1.395 . S
C1868 C1871 1.403 . S
C1869 C1866 1.403 . S
C1869 C1870 1.524 . S
C1869 C1873 1.400 . S
C1870 H1855 0.960 . S
C1870 H1856 0.960 . S
C1870 H1857 0.960 . S
C1870 C1869 1.524 . S
C1871 C1868 1.403 . S
C1871 C1872 1.392 . S
C1871 C1875 1.495 . S
C1872 C1871 1.392 . S
C1872 C1873 1.385 . S
C1872 C1874 1.478 . S
C1873 H1867 0.930 . S
C1873 C1869 1.400 . S
C1873 C1872 1.385 . S
C1874 C1872 1.478 . S
C1874 C1876 1.381 . S
C1874 C1880 1.383 . S
C1875 C1871 1.495 . S
C1875 H1881 0.959 . S
C1875 H1882 0.961 . S
C1875 H1883 0.960 . S
C1876 C1874 1.381 . S
C1876 C1877 1.394 . S
C1876 H1884 0.930 . S
C1877 C1876 1.394 . S
C1877 C1878 1.383 . S
C1877 H1885 0.929 . S
C1878 C1877 1.383 . S
C1878 C1879 1.377 . S
C1879 H1863 0.930 . S
C1879 C1878 1.377 . S
C1879 C1880 1.379 . S
C1880 H1864 0.931 . S
C1880 C1874 1.383 . S
C1880 C1879 1.379 . S
H1881 C1875 0.959 . S
H1882 C1875 0.961 . S
H1883 C1875 0.960 . S
H1884 C1876 0.930 . S
H1885 C1877 0.929 . S
H1886 C1894 0.929 . S
H1887 C1896 0.930 . S
H1888 C1898 0.930 . S
H1889 C1901 0.929 . S
H1890 C1904 0.930 . S
H1891 C1906 0.960 . S
H1892 C1906 0.960 . S
H1893 C1906 0.960 . S
C1894 H1886 0.929 . S
C1894 C1895 1.377 . S
C1894 C1896 1.384 . S
C1895 C1894 1.377 . S
C1895 C1901 1.390 . S
C1896 H1887 0.930 . S
C1896 C1894 1.384 . S
C1896 C1897 1.372 . S
C1897 C1896 1.372 . S
C1897 C1898 1.400 . S
C1897 C1902 1.490 . S
C1898 H1888 0.930 . S
C1898 C1897 1.400 . S
C1898 C1901 1.386 . S
H1899 C1915 0.930 . S
H1900 C1916 0.931 . S
C1901 H1889 0.929 . S
C1901 C1895 1.390 . S
C1901 C1898 1.386 . S
C1902 C1897 1.490 . S
C1902 C1904 1.395 . S
C1902 C1905 1.403 . S
H1903 C1909 0.930 . S
C1904 H1890 0.930 . S
C1904 C1902 1.395 . S
C1904 C1907 1.403 . S
C1905 C1902 1.403 . S
C1905 C1906 1.524 . S
C1905 C1909 1.400 . S
C1906 H1891 0.960 . S
C1906 H1892 0.960 . S
C1906 H1893 0.960 . S
C1906 C1905 1.524 . S
C1907 C1904 1.403 . S
C1907 C1908 1.392 . S
C1907 C1911 1.495 . S
C1908 C1907 1.392 . S
C1908 C1909 1.385 . S
C1908 C1910 1.478 . S
C1909 H1903 0.930 . S
C1909 C1905 1.400 . S
C1909 C1908 1.385 . S
C1910 C1908 1.478 . S
C1910 C1912 1.381 . S
C1910 C1916 1.383 . S
C1911 C1907 1.495 . S
C1911 H1917 0.959 . S
C1911 H1918 0.961 . S
C1911 H1919 0.960 . S
C1912 C1910 1.381 . S
C1912 C1913 1.394 . S
C1912 H1920 0.930 . S
C1913 C1912 1.394 . S
C1913 C1914 1.383 . S
C1913 H1921 0.929 . S
C1914 C1913 1.383 . S
C1914 C1915 1.377 . S
C1915 H1899 0.930 . S
C1915 C1914 1.377 . S
C1915 C1916 1.379 . S
C1916 H1900 0.931 . S
C1916 C1910 1.383 . S
C1916 C1915 1.379 . S
H1917 C1911 0.959 . S
H1918 C1911 0.961 . S
H1919 C1911 0.960 . S
H1920 C1912 0.930 . S
H1921 C1913 0.929 . S
H1922 C1930 0.929 . S
H1923 C1932 0.930 . S
H1924 C1934 0.930 . S
H1925 C1937 0.929 . S
H1926 C1940 0.930 . S
H1927 C1942 0.960 . S
H1928 C1942 0.960 . S
H1929 C1942 0.960 . S
C1930 H1922 0.929 . S
C1930 C1931 1.377 . S
C1930 C1932 1.384 . S
C1931 C1930 1.377 . S
C1931 C1937 1.390 . S
C1932 H1923 0.930 . S
C1932 C1930 1.384 . S
C1932 C1933 1.372 . S
C1933 C1932 1.372 . S
C1933 C1934 1.400 . S
C1933 C1938 1.490 . S
C1934 H1924 0.930 . S
C1934 C1933 1.400 . S
C1934 C1937 1.386 . S
H1935 C1951 0.930 . S
H1936 C1952 0.931 . S
C1937 H1925 0.929 . S
C1937 C1931 1.390 . S
C1937 C1934 1.386 . S
C1938 C1933 1.490 . S
C1938 C1940 1.395 . S
C1938 C1941 1.403 . S
H1939 C1945 0.930 . S
C1940 H1926 0.930 . S
C1940 C1938 1.395 . S
C1940 C1943 1.403 . S
C1941 C1938 1.403 . S
C1941 C1942 1.524 . S
C1941 C1945 1.400 . S
C1942 H1927 0.960 . S
C1942 H1928 0.960 . S
C1942 H1929 0.960 . S
C1942 C1941 1.524 . S
C1943 C1940 1.403 . S
C1943 C1944 1.392 . S
C1943 C1947 1.495 . S
C1944 C1943 1.392 . S
C1944 C1945 1.385 . S
C1944 C1946 1.478 . S
C1945 H1939 0.930 . S
C1945 C1941 1.400 . S
C1945 C1944 1.385 . S
C1946 C1944 1.478 . S
C1946 C1948 1.381 . S
C1946 C1952 1.383 . S
C1947 C1943 1.495 . S
C1947 H1953 0.959 . S
C1947 H1954 0.961 . S
C1947 H1955 0.960 . S
C1948 C1946 1.381 . S
C1948 C1949 1.394 . S
C1948 H1956 0.930 . S
C1949 C1948 1.394 . S
C1949 C1950 1.383 . S
C1949 H1957 0.929 . S
C1950 C1949 1.383 . S
C1950 C1951 1.377 . S
C1951 H1935 0.930 . S
C1951 C1950 1.377 . S
C1951 C1952 1.379 . S
C1952 H1936 0.931 . S
C1952 C1946 1.383 . S
C1952 C1951 1.379 . S
H1953 C1947 0.959 . S
H1954 C1947 0.961 . S
H1955 C1947 0.960 . S
H1956 C1948 0.930 . S
H1957 C1949 0.929 . S
H1958 C1966 0.929 . S
H1959 C1968 0.930 . S
H1960 C1970 0.930 . S
H1961 C1973 0.929 . S
H1962 C1976 0.930 . S
H1963 C1978 0.960 . S
H1964 C1978 0.960 . S
H1965 C1978 0.960 . S
C1966 H1958 0.929 . S
C1966 C1967 1.377 . S
C1966 C1968 1.384 . S
C1967 C1966 1.377 . S
C1967 C1973 1.390 . S
C1968 H1959 0.930 . S
C1968 C1966 1.384 . S
C1968 C1969 1.372 . S
C1969 C1968 1.372 . S
C1969 C1970 1.400 . S
C1969 C1974 1.490 . S
C1970 H1960 0.930 . S
C1970 C1969 1.400 . S
C1970 C1973 1.386 . S
H1971 C1987 0.930 . S
H1972 C1988 0.931 . S
C1973 H1961 0.929 . S
C1973 C1967 1.390 . S
C1973 C1970 1.386 . S
C1974 C1969 1.490 . S
C1974 C1976 1.395 . S
C1974 C1977 1.403 . S
H1975 C1981 0.930 . S
C1976 H1962 0.930 . S
C1976 C1974 1.395 . S
C1976 C1979 1.403 . S
C1977 C1974 1.403 . S
C1977 C1978 1.524 . S
C1977 C1981 1.400 . S
C1978 H1963 0.960 . S
C1978 H1964 0.960 . S
C1978 H1965 0.960 . S
C1978 C1977 1.524 . S
C1979 C1976 1.403 . S
C1979 C1980 1.392 . S
C1979 C1983 1.495 . S
C1980 C1979 1.392 . S
C1980 C1981 1.385 . S
C1980 C1982 1.478 . S
C1981 H1975 0.930 . S
C1981 C1977 1.400 . S
C1981 C1980 1.385 . S
C1982 C1980 1.478 . S
C1982 C1984 1.381 . S
C1982 C1988 1.383 . S
C1983 C1979 1.495 . S
C1983 H1989 0.959 . S
C1983 H1990 0.961 . S
C1983 H1991 0.960 . S
C1984 C1982 1.381 . S
C1984 C1985 1.394 . S
C1984 H1992 0.930 . S
C1985 C1984 1.394 . S
C1985 C1986 1.383 . S
C1985 H1993 0.929 . S
C1986 C1985 1.383 . S
C1986 C1987 1.377 . S
C1987 H1971 0.930 . S
C1987 C1986 1.377 . S
C1987 C1988 1.379 . S
C1988 H1972 0.931 . S
C1988 C1982 1.383 . S
C1988 C1987 1.379 . S
H1989 C1983 0.959 . S
H1990 C1983 0.961 . S
H1991 C1983 0.960 . S
H1992 C1984 0.930 . S
H1993 C1985 0.929 . S
H1994 C2002 0.929 . S
H1995 C2004 0.930 . S
H1996 C2006 0.930 . S
H1997 C2009 0.929 . S
H1998 C2012 0.930 . S
H1999 C2014 0.960 . S
H2000 C2014 0.960 . S
H2001 C2014 0.960 . S
C2002 H1994 0.929 . S
C2002 C2003 1.377 . S
C2002 C2004 1.384 . S
C2003 C2002 1.377 . S
C2003 C2009 1.390 . S
C2004 H1995 0.930 . S
C2004 C2002 1.384 . S
C2004 C2005 1.372 . S
C2005 C2004 1.372 . S
C2005 C2006 1.400 . S
C2005 C2010 1.490 . S
C2006 H1996 0.930 . S
C2006 C2005 1.400 . S
C2006 C2009 1.386 . S
H2007 C2023 0.930 . S
H2008 C2024 0.931 . S
C2009 H1997 0.929 . S
C2009 C2003 1.390 . S
C2009 C2006 1.386 . S
C2010 C2005 1.490 . S
C2010 C2012 1.395 . S
C2010 C2013 1.403 . S
H2011 C2017 0.930 . S
C2012 H1998 0.930 . S
C2012 C2010 1.395 . S
C2012 C2015 1.403 . S
C2013 C2010 1.403 . S
C2013 C2014 1.524 . S
C2013 C2017 1.400 . S
C2014 H1999 0.960 . S
C2014 H2000 0.960 . S
C2014 H2001 0.960 . S
C2014 C2013 1.524 . S
C2015 C2012 1.403 . S
C2015 C2016 1.392 . S
C2015 C2019 1.495 . S
C2016 C2015 1.392 . S
C2016 C2017 1.385 . S
C2016 C2018 1.478 . S
C2017 H2011 0.930 . S
C2017 C2013 1.400 . S
C2017 C2016 1.385 . S
C2018 C2016 1.478 . S
C2018 C2020 1.381 . S
C2018 C2024 1.383 . S
C2019 C2015 1.495 . S
C2019 H2025 0.959 . S
C2019 H2026 0.961 . S
C2019 H2027 0.960 . S
C2020 C2018 1.381 . S
C2020 C2021 1.394 . S
C2020 H2028 0.930 . S
C2021 C2020 1.394 . S
C2021 C2022 1.383 . S
C2021 H2029 0.929 . S
C2022 C2021 1.383 . S
C2022 C2023 1.377 . S
C2023 H2007 0.930 . S
C2023 C2022 1.377 . S
C2023 C2024 1.379 . S
C2024 H2008 0.931 . S
C2024 C2018 1.383 . S
C2024 C2023 1.379 . S
H2025 C2019 0.959 . S
H2026 C2019 0.961 . S
H2027 C2019 0.960 . S
H2028 C2020 0.930 . S
H2029 C2021 0.929 . S
H2030 C2038 0.929 . S
H2031 C2040 0.930 . S
H2032 C2042 0.930 . S
H2033 C2045 0.929 . S
H2034 C2048 0.930 . S
H2035 C2050 0.960 . S
H2036 C2050 0.960 . S
H2037 C2050 0.960 . S
C2038 H2030 0.929 . S
C2038 C2039 1.377 . S
C2038 C2040 1.384 . S
C2039 C2038 1.377 . S
C2039 C2045 1.390 . S
C2040 H2031 0.930 . S
C2040 C2038 1.384 . S
C2040 C2041 1.372 . S
C2041 C2040 1.372 . S
C2041 C2042 1.400 . S
C2041 C2046 1.490 . S
C2042 H2032 0.930 . S
C2042 C2041 1.400 . S
C2042 C2045 1.386 . S
H2043 C2059 0.930 . S
H2044 C2060 0.931 . S
C2045 H2033 0.929 . S
C2045 C2039 1.390 . S
C2045 C2042 1.386 . S
C2046 C2041 1.490 . S
C2046 C2048 1.395 . S
C2046 C2049 1.403 . S
H2047 C2053 0.930 . S
C2048 H2034 0.930 . S
C2048 C2046 1.395 . S
C2048 C2051 1.403 . S
C2049 C2046 1.403 . S
C2049 C2050 1.524 . S
C2049 C2053 1.400 . S
C2050 H2035 0.960 . S
C2050 H2036 0.960 . S
C2050 H2037 0.960 . S
C2050 C2049 1.524 . S
C2051 C2048 1.403 . S
C2051 C2052 1.392 . S
C2051 C2055 1.495 . S
C2052 C2051 1.392 . S
C2052 C2053 1.385 . S
C2052 C2054 1.478 . S
C2053 H2047 0.930 . S
C2053 C2049 1.400 . S
C2053 C2052 1.385 . S
C2054 C2052 1.478 . S
C2054 C2056 1.381 . S
C2054 C2060 1.383 . S
C2055 C2051 1.495 . S
C2055 H2061 0.959 . S
C2055 H2062 0.961 . S
C2055 H2063 0.960 . S
C2056 C2054 1.381 . S
C2056 C2057 1.394 . S
C2056 H2064 0.930 . S
C2057 C2056 1.394 . S
C2057 C2058 1.383 . S
C2057 H2065 0.929 . S
C2058 C2057 1.383 . S
C2058 C2059 1.377 . S
C2059 H2043 0.930 . S
C2059 C2058 1.377 . S
C2059 C2060 1.379 . S
C2060 H2044 0.931 . S
C2060 C2054 1.383 . S
C2060 C2059 1.379 . S
H2061 C2055 0.959 . S
H2062 C2055 0.961 . S
H2063 C2055 0.960 . S
H2064 C2056 0.930 . S
H2065 C2057 0.929 . S
H2066 C2074 0.929 . S
H2067 C2076 0.930 . S
H2068 C2078 0.930 . S
H2069 C2081 0.929 . S
H2070 C2084 0.930 . S
H2071 C2086 0.960 . S
H2072 C2086 0.960 . S
H2073 C2086 0.960 . S
C2074 H2066 0.929 . S
C2074 C2075 1.377 . S
C2074 C2076 1.384 . S
C2075 C2074 1.377 . S
C2075 C2081 1.390 . S
C2076 H2067 0.930 . S
C2076 C2074 1.384 . S
C2076 C2077 1.372 . S
C2077 C2076 1.372 . S
C2077 C2078 1.400 . S
C2077 C2082 1.490 . S
C2078 H2068 0.930 . S
C2078 C2077 1.400 . S
C2078 C2081 1.386 . S
H2079 C2095 0.930 . S
H2080 C2096 0.931 . S
C2081 H2069 0.929 . S
C2081 C2075 1.390 . S
C2081 C2078 1.386 . S
C2082 C2077 1.490 . S
C2082 C2084 1.395 . S
C2082 C2085 1.403 . S
H2083 C2089 0.930 . S
C2084 H2070 0.930 . S
C2084 C2082 1.395 . S
C2084 C2087 1.403 . S
C2085 C2082 1.403 . S
C2085 C2086 1.524 . S
C2085 C2089 1.400 . S
C2086 H2071 0.960 . S
C2086 H2072 0.960 . S
C2086 H2073 0.960 . S
C2086 C2085 1.524 . S
C2087 C2084 1.403 . S
C2087 C2088 1.392 . S
C2087 C2091 1.495 . S
C2088 C2087 1.392 . S
C2088 C2089 1.385 . S
C2088 C2090 1.478 . S
C2089 H2083 0.930 . S
C2089 C2085 1.400 . S
C2089 C2088 1.385 . S
C2090 C2088 1.478 . S
C2090 C2092 1.381 . S
C2090 C2096 1.383 . S
C2091 C2087 1.495 . S
C2091 H2097 0.959 . S
C2091 H2098 0.961 . S
C2091 H2099 0.960 . S
C2092 C2090 1.381 . S
C2092 C2093 1.394 . S
C2092 H2100 0.930 . S
C2093 C2092 1.394 . S
C2093 C2094 1.383 . S
C2093 H2101 0.929 . S
C2094 C2093 1.383 . S
C2094 C2095 1.377 . S
C2095 H2079 0.930 . S
C2095 C2094 1.377 . S
C2095 C2096 1.379 . S
C2096 H2080 0.931 . S
C2096 C2090 1.383 . S
C2096 C2095 1.379 . S
H2097 C2091 0.959 . S
H2098 C2091 0.961 . S
H2099 C2091 0.960 . S
H2100 C2092 0.930 . S
H2101 C2093 0.929 . S
H2102 C2110 0.929 . S
H2103 C2112 0.930 . S
H2104 C2114 0.930 . S
H2105 C2117 0.929 . S
H2106 C2120 0.930 . S
H2107 C2122 0.960 . S
H2108 C2122 0.960 . S
H2109 C2122 0.960 . S
C2110 H2102 0.929 . S
C2110 C2111 1.377 . S
C2110 C2112 1.384 . S
C2111 C2110 1.377 . S
C2111 C2117 1.390 . S
C2112 H2103 0.930 . S
C2112 C2110 1.384 . S
C2112 C2113 1.372 . S
C2113 C2112 1.372 . S
C2113 C2114 1.400 . S
C2113 C2118 1.490 . S
C2114 H2104 0.930 . S
C2114 C2113 1.400 . S
C2114 C2117 1.386 . S
H2115 C2131 0.930 . S
H2116 C2132 0.931 . S
C2117 H2105 0.929 . S
C2117 C2111 1.390 . S
C2117 C2114 1.386 . S
C2118 C2113 1.490 . S
C2118 C2120 1.395 . S
C2118 C2121 1.403 . S
H2119 C2125 0.930 . S
C2120 H2106 0.930 . S
C2120 C2118 1.395 . S
C2120 C2123 1.403 . S
C2121 C2118 1.403 . S
C2121 C2122 1.524 . S
C2121 C2125 1.400 . S
C2122 H2107 0.960 . S
C2122 H2108 0.960 . S
C2122 H2109 0.960 . S
C2122 C2121 1.524 . S
C2123 C2120 1.403 . S
C2123 C2124 1.392 . S
C2123 C2127 1.495 . S
C2124 C2123 1.392 . S
C2124 C2125 1.385 . S
C2124 C2126 1.478 . S
C2125 H2119 0.930 . S
C2125 C2121 1.400 . S
C2125 C2124 1.385 . S
C2126 C2124 1.478 . S
C2126 C2128 1.381 . S
C2126 C2132 1.383 . S
C2127 C2123 1.495 . S
C2127 H2133 0.959 . S
C2127 H2134 0.961 . S
C2127 H2135 0.960 . S
C2128 C2126 1.381 . S
C2128 C2129 1.394 . S
C2128 H2136 0.930 . S
C2129 C2128 1.394 . S
C2129 C2130 1.383 . S
C2129 H2137 0.929 . S
C2130 C2129 1.383 . S
C2130 C2131 1.377 . S
C2131 H2115 0.930 . S
C2131 C2130 1.377 . S
C2131 C2132 1.379 . S
C2132 H2116 0.931 . S
C2132 C2126 1.383 . S
C2132 C2131 1.379 . S
H2133 C2127 0.959 . S
H2134 C2127 0.961 . S
H2135 C2127 0.960 . S
H2136 C2128 0.930 . S
H2137 C2129 0.929 . S
H2138 C2146 0.929 . S
H2139 C2148 0.930 . S
H2140 C2150 0.930 . S
H2141 C2153 0.929 . S
H2142 C2156 0.930 . S
H2143 C2158 0.960 . S
H2144 C2158 0.960 . S
H2145 C2158 0.960 . S
C2146 H2138 0.929 . S
C2146 C2147 1.377 . S
C2146 C2148 1.384 . S
C2147 C2146 1.377 . S
C2147 C2153 1.390 . S
C2148 H2139 0.930 . S
C2148 C2146 1.384 . S
C2148 C2149 1.372 . S
C2149 C2148 1.372 . S
C2149 C2150 1.400 . S
C2149 C2154 1.490 . S
C2150 H2140 0.930 . S
C2150 C2149 1.400 . S
C2150 C2153 1.386 . S
H2151 C2167 0.930 . S
H2152 C2168 0.931 . S
C2153 H2141 0.929 . S
C2153 C2147 1.390 . S
C2153 C2150 1.386 . S
C2154 C2149 1.490 . S
C2154 C2156 1.395 . S
C2154 C2157 1.403 . S
H2155 C2161 0.930 . S
C2156 H2142 0.930 . S
C2156 C2154 1.395 . S
C2156 C2159 1.403 . S
C2157 C2154 1.403 . S
C2157 C2158 1.524 . S
C2157 C2161 1.400 . S
C2158 H2143 0.960 . S
C2158 H2144 0.960 . S
C2158 H2145 0.960 . S
C2158 C2157 1.524 . S
C2159 C2156 1.403 . S
C2159 C2160 1.392 . S
C2159 C2163 1.495 . S
C2160 C2159 1.392 . S
C2160 C2161 1.385 . S
C2160 C2162 1.478 . S
C2161 H2155 0.930 . S
C2161 C2157 1.400 . S
C2161 C2160 1.385 . S
C2162 C2160 1.478 . S
C2162 C2164 1.381 . S
C2162 C2168 1.383 . S
C2163 C2159 1.495 . S
C2163 H2169 0.959 . S
C2163 H2170 0.961 . S
C2163 H2171 0.960 . S
C2164 C2162 1.381 . S
C2164 C2165 1.394 . S
C2164 H2172 0.930 . S
C2165 C2164 1.394 . S
C2165 C2166 1.383 . S
C2165 H2173 0.929 . S
C2166 C2165 1.383 . S
C2166 C2167 1.377 . S
C2167 H2151 0.930 . S
C2167 C2166 1.377 . S
C2167 C2168 1.379 . S
C2168 H2152 0.931 . S
C2168 C2162 1.383 . S
C2168 C2167 1.379 . S
H2169 C2163 0.959 . S
H2170 C2163 0.961 . S
H2171 C2163 0.960 . S
H2172 C2164 0.930 . S
H2173 C2165 0.929 . S
H2174 C2182 0.929 . S
H2175 C2184 0.930 . S
H2176 C2186 0.930 . S
H2177 C2189 0.929 . S
H2178 C2192 0.930 . S
H2179 C2194 0.960 . S
H2180 C2194 0.960 . S
H2181 C2194 0.960 . S
C2182 H2174 0.929 . S
C2182 C2183 1.377 . S
C2182 C2184 1.384 . S
C2183 C2182 1.377 . S
C2183 C2189 1.390 . S
C2184 H2175 0.930 . S
C2184 C2182 1.384 . S
C2184 C2185 1.372 . S
C2185 C2184 1.372 . S
C2185 C2186 1.400 . S
C2185 C2190 1.490 . S
C2186 H2176 0.930 . S
C2186 C2185 1.400 . S
C2186 C2189 1.386 . S
H2187 C2203 0.930 . S
H2188 C2204 0.931 . S
C2189 H2177 0.929 . S
C2189 C2183 1.390 . S
C2189 C2186 1.386 . S
C2190 C2185 1.490 . S
C2190 C2192 1.395 . S
C2190 C2193 1.403 . S
H2191 C2197 0.930 . S
C2192 H2178 0.930 . S
C2192 C2190 1.395 . S
C2192 C2195 1.403 . S
C2193 C2190 1.403 . S
C2193 C2194 1.524 . S
C2193 C2197 1.400 . S
C2194 H2179 0.960 . S
C2194 H2180 0.960 . S
C2194 H2181 0.960 . S
C2194 C2193 1.524 . S
C2195 C2192 1.403 . S
C2195 C2196 1.392 . S
C2195 C2199 1.495 . S
C2196 C2195 1.392 . S
C2196 C2197 1.385 . S
C2196 C2198 1.478 . S
C2197 H2191 0.930 . S
C2197 C2193 1.400 . S
C2197 C2196 1.385 . S
C2198 C2196 1.478 . S
C2198 C2200 1.381 . S
C2198 C2204 1.383 . S
C2199 C2195 1.495 . S
C2199 H2205 0.959 . S
C2199 H2206 0.961 . S
C2199 H2207 0.960 . S
C2200 C2198 1.381 . S
C2200 C2201 1.394 . S
C2200 H2208 0.930 . S
C2201 C2200 1.394 . S
C2201 C2202 1.383 . S
C2201 H2209 0.929 . S
C2202 C2201 1.383 . S
C2202 C2203 1.377 . S
C2203 H2187 0.930 . S
C2203 C2202 1.377 . S
C2203 C2204 1.379 . S
C2204 H2188 0.931 . S
C2204 C2198 1.383 . S
C2204 C2203 1.379 . S
H2205 C2199 0.959 . S
H2206 C2199 0.961 . S
H2207 C2199 0.960 . S
H2208 C2200 0.930 . S
H2209 C2201 0.929 . S
H2210 C2218 0.929 . S
H2211 C2220 0.930 . S
H2212 C2222 0.930 . S
H2213 C2225 0.929 . S
H2214 C2228 0.930 . S
H2215 C2230 0.960 . S
H2216 C2230 0.960 . S
H2217 C2230 0.960 . S
C2218 H2210 0.929 . S
C2218 C2219 1.377 . S
C2218 C2220 1.384 . S
C2219 C2218 1.377 . S
C2219 C2225 1.390 . S
C2220 H2211 0.930 . S
C2220 C2218 1.384 . S
C2220 C2221 1.372 . S
C2221 C2220 1.372 . S
C2221 C2222 1.400 . S
C2221 C2226 1.490 . S
C2222 H2212 0.930 . S
C2222 C2221 1.400 . S
C2222 C2225 1.386 . S
H2223 C2239 0.930 . S
H2224 C2240 0.931 . S
C2225 H2213 0.929 . S
C2225 C2219 1.390 . S
C2225 C2222 1.386 . S
C2226 C2221 1.490 . S
C2226 C2228 1.395 . S
C2226 C2229 1.403 . S
H2227 C2233 0.930 . S
C2228 H2214 0.930 . S
C2228 C2226 1.395 . S
C2228 C2231 1.403 . S
C2229 C2226 1.403 . S
C2229 C2230 1.524 . S
C2229 C2233 1.400 . S
C2230 H2215 0.960 . S
C2230 H2216 0.960 . S
C2230 H2217 0.960 . S
C2230 C2229 1.524 . S
C2231 C2228 1.403 . S
C2231 C2232 1.392 . S
C2231 C2235 1.495 . S
C2232 C2231 1.392 . S
C2232 C2233 1.385 . S
C2232 C2234 1.478 . S
C2233 H2227 0.930 . S
C2233 C2229 1.400 . S
C2233 C2232 1.385 . S
C2234 C2232 1.478 . S
C2234 C2236 1.381 . S
C2234 C2240 1.383 . S
C2235 C2231 1.495 . S
C2235 H2241 0.959 . S
C2235 H2242 0.961 . S
C2235 H2243 0.960 . S
C2236 C2234 1.381 . S
C2236 C2237 1.394 . S
C2236 H2244 0.930 . S
C2237 C2236 1.394 . S
C2237 C2238 1.383 . S
C2237 H2245 0.929 . S
C2238 C2237 1.383 . S
C2238 C2239 1.377 . S
C2239 H2223 0.930 . S
C2239 C2238 1.377 . S
C2239 C2240 1.379 . S
C2240 H2224 0.931 . S
C2240 C2234 1.383 . S
C2240 C2239 1.379 . S
H2241 C2235 0.959 . S
H2242 C2235 0.961 . S
H2243 C2235 0.960 . S
H2244 C2236 0.930 . S
H2245 C2237 0.929 . S
C546 C347 1.607 . S
C527 C3 1.708 . S
C582 C348 1.224 . S
C563 C49 1.259 . S
C618 C342 0.997 . S
C599 C95 1.042 . S
C635 C146 0.365 . S
C654 C341 0.414 . S
C671 C186 1.404 . S
C690 C344 1.338 . S
C726 C346 1.196 . S
C707 C215 1.196 . S
C743 C249 0.458 . S
C762 C345 0.386 . S
C779 C302 1.717 . S
C798 C343 1.547 . S
C834 C378 3.516 . S
C815 C2 3.532 . S
C851 C43 2.133 . S
C870 C409 2.022 . S
C906 C377 3.176 . S
C887 C102 3.275 . S
C942 C412 1.167 . S
C923 C135 1.215 . S
C959 C175 1.521 . S
C978 C375 1.525 . S
C1014 C407 2.390 . S
C995 C222 2.401 . S
C1031 C243 1.799 . S
C1050 C380 1.643 . S
C1067 C306 1.551 . S
C1086 C414 1.602 . S
C1103 C9 0.899 . S
C1122 C410 0.922 . S
C1139 C182 1.733 . S
C1158 C413 1.647 . S
C1194 C381 1.476 1_556 S
C1175 C226 1.553 . S
C1230 C408 0.683 . S
C1211 C242 0.695 . S
C1247 C295 2.883 . S
C1266 C374 2.861 . S
C1283 C106 0.888 . S
C1302 C411 0.872 . S
C1338 C376 1.390 . S
C1319 C142 1.446 . S
C1355 C42 1.069 . S
C1374 C379 1.069 . S
C1391 C283 1.743 . S
C1410 C446 1.641 . S
C1427 C169 1.028 . S
C1446 C447 1.023 . S
C1482 C441 0.982 . S
C1463 C202 1.038 . S
C1518 C440 0.395 . S
C1499 C266 0.484 . S
C1535 C66 0.798 . S
C1554 C443 0.809 . S
C1590 C445 1.160 . S
C1571 C82 1.152 . S
C1607 C129 0.552 . S
C1626 C444 0.580 . S
C1643 C22 1.779 . S
C1662 C442 1.644 . S
C1679 C282 3.117 . S
C1698 C480 3.026 . S
C1734 C512 1.406 . S
C1715 C163 1.461 . S
C1751 C209 1.434 . S
C1770 C473 1.427 . S
C1787 C255 1.085 . S
C1806 C507 1.043 . S
C1842 C478 0.754 . S
C1823 C55 0.734 . S
C1859 C89 1.040 . S
C1878 C509 1.028 . S
C1914 C475 1.737 . S
C1895 C123 1.821 . S
C1950 C510 0.865 . S
C1931 C26 0.866 . S
C1986 C506 1.564 . S
C1967 C289 1.509 . S
C2003 C62 1.837 . S
C2022 C508 1.705 . S
C2039 C83 3.139 . S
C2058 C477 3.121 . S
C2094 C511 1.554 . S
C2075 C122 1.593 . S
C2111 C15 3.740 . S
C2130 C476 3.654 . S
C2147 C203 2.564 . S
C2166 C513 2.492 . S
C2202 C479 2.136 . S
C2183 C262 2.202 . S
C2238 C474 1.160 . S
C2219 C162 1.217 . S
