# Generated by pormake.
# Topology rtl, (3,6)-cn, num edge types: 1
# Building blocks:
#     Node 0, Type 0, BuildingBlock: WUSLED_clean_sbu_0, # of connection points: 3
#     Node 1, Type 0, BuildingBlock: WUSLED_clean_sbu_0, # of connection points: 3
#     Node 2, Type 0, BuildingBlock: WUSLED_clean_sbu_0, # of connection points: 3
#     Node 3, Type 0, BuildingBlock: WUSLED_clean_sbu_0, # of connection points: 3
#     Node 4, Type 1, BuildingBlock: VOLQOD_clean_sbu_1, # of connection points: 6
#     Node 5, Type 1, BuildingBlock: VOLQOD_clean_sbu_1, # of connection points: 6
#     Edge 6, Type (0, 1), BuildingBlock: AJUNOK_clean_linker_0, # of connection points: 2
#     Edge 7, Type (0, 1), BuildingBlock: AJUNOK_clean_linker_0, # of connection points: 2
#     Edge 8, Type (0, 1), BuildingBlock: AJUNOK_clean_linker_0, # of connection points: 2
#     Edge 9, Type (0, 1), BuildingBlock: AJUNOK_clean_linker_0, # of connection points: 2
#     Edge 10, Type (0, 1), BuildingBlock: AJUNOK_clean_linker_0, # of connection points: 2
#     Edge 11, Type (0, 1), BuildingBlock: AJUNOK_clean_linker_0, # of connection points: 2
#     Edge 12, Type (0, 1), BuildingBlock: AJUNOK_clean_linker_0, # of connection points: 2
#     Edge 13, Type (0, 1), BuildingBlock: AJUNOK_clean_linker_0, # of connection points: 2
#     Edge 14, Type (0, 1), BuildingBlock: AJUNOK_clean_linker_0, # of connection points: 2
#     Edge 15, Type (0, 1), BuildingBlock: AJUNOK_clean_linker_0, # of connection points: 2
#     Edge 16, Type (0, 1), BuildingBlock: AJUNOK_clean_linker_0, # of connection points: 2
#     Edge 17, Type (0, 1), BuildingBlock: AJUNOK_clean_linker_0, # of connection points: 2
# Relax obj value: 0.076
# Max RMSD: 0.155
# Mean RMSD: 0.087
data_MOF--net-rtl--node1-WUSLED_clean_sbu_0--node2-VOLQOD_clean_sbu_1--edge1-AJUNOK_clean_linker_0
_symmetry_space_group_name_H-M    P1
_symmetry_Int_Tables_number       1
_symmetry_cell_setting            triclinic
loop_
_symmetry_equiv_pos_as_xyz
'x, y, z'
_cell_length_a     38.256134
_cell_length_b     33.391742
_cell_length_c     24.611575
_cell_angle_alpha  90.230193
_cell_angle_beta   90.672057
_cell_angle_gamma 90.331309
loop_
_atom_site_label
_atom_site_type_symbol
_atom_site_fract_x
_atom_site_fract_y
_atom_site_fract_z
_atom_type_partial_charge
C0 C 0.14077 0.79273 0.1723 0.0
C1 C 0.11404 0.81867 0.15557 0.0
C2 C 0.10679 0.84145 0.24872 0.0
C3 C 0.09713 0.84279 0.19349 0.0
C4 C 0.1329 0.81456 0.26553 0.0
C5 C 0.14987 0.79047 0.2275 0.0
U6 U 0.1566 0.76777 0.02542 0.0
O7 O 0.2051 0.76384 0.97907 0.0
O8 O 0.17027 0.71146 0.98394 0.0
C9 C 0.20059 0.7256 0.96797 0.0
C10 C 0.16037 0.76986 0.13181 0.0
C11 C 0.23102 0.69995 0.97832 0.0
C12 C 0.28223 0.68207 0.0321 0.0
C13 C 0.25205 0.70503 0.025 0.0
C14 C 0.27002 0.64792 0.94684 0.0
C15 C 0.29163 0.65343 0.9929 0.0
C16 C 0.23999 0.671 0.93965 0.0
C17 C 0.10008 0.82046 0.91894 0.0
C18 C 0.11751 0.83601 0.82676 0.0
C19 C 0.05703 0.84347 0.85307 0.0
C20 C 0.0655 0.83024 0.90538 0.0
C21 C 0.08312 0.84724 0.81366 0.0
C22 C 0.12591 0.82243 0.87891 0.0
C23 C 0.10916 0.81103 0.97566 0.0
O24 O 0.14224 0.7426 0.10474 0.0
O25 O 0.18027 0.79189 0.1005 0.0
O26 O 0.13929 0.8255 0.99312 0.0
O27 O 0.10337 0.77396 0.99108 0.0
H28 H 0.10667 0.82073 0.11302 0.0
H29 H 0.07665 0.86269 0.17961 0.0
H30 H 0.14082 0.813 0.30787 0.0
H31 H 0.17053 0.77068 0.24102 0.0
H32 H 0.29869 0.68751 0.0675 0.0
H33 H 0.24554 0.72729 0.05533 0.0
H34 H 0.2765 0.62592 0.91616 0.0
H35 H 0.22402 0.66667 0.90342 0.0
H36 H 0.13803 0.83871 0.797 0.0
H37 H 0.03044 0.85255 0.84422 0.0
H38 H 0.04526 0.82895 0.93577 0.0
H39 H 0.15275 0.81474 0.88847 0.0
C40 C 0.64924 0.73033 0.67974 0.0
C41 C 0.61258 0.73148 0.68275 0.0
C42 C 0.61381 0.68585 0.75969 0.0
C43 C 0.59508 0.7097 0.7226 0.0
C44 C 0.65051 0.68569 0.75759 0.0
C45 C 0.66803 0.70778 0.71807 0.0
U46 U 0.66407 0.7476 0.52928 0.0
O47 O 0.67699 0.80222 0.48358 0.0
O48 O 0.71252 0.75081 0.48257 0.0
C49 C 0.70764 0.78845 0.46913 0.0
C50 C 0.66823 0.7506 0.6356 0.0
C51 C 0.73753 0.81539 0.4794 0.0
C52 C 0.78632 0.83783 0.53601 0.0
C53 C 0.75692 0.81333 0.52808 0.0
C54 C 0.77657 0.86758 0.44748 0.0
C55 C 0.79647 0.86508 0.4957 0.0
C56 C 0.74733 0.84288 0.43942 0.0
C57 C 0.60658 0.68884 0.42735 0.0
C58 C 0.61988 0.65685 0.34107 0.0
C59 C 0.56058 0.67716 0.36006 0.0
C60 C 0.57148 0.69182 0.41082 0.0
C61 C 0.58457 0.659 0.32492 0.0
C62 C 0.63083 0.67183 0.39161 0.0
C63 C 0.61678 0.70114 0.48307 0.0
O64 O 0.68786 0.72706 0.606 0.0
O65 O 0.65046 0.77667 0.60652 0.0
O66 O 0.61066 0.73861 0.4964 0.0
O67 O 0.64716 0.68816 0.501 0.0
H68 H 0.59731 0.74867 0.65389 0.0
H69 H 0.56684 0.71126 0.72409 0.0
H70 H 0.66566 0.66758 0.78555 0.0
H71 H 0.6963 0.70648 0.71662 0.0
H72 H 0.80121 0.83544 0.57356 0.0
H73 H 0.74961 0.79241 0.55958 0.0
H74 H 0.78417 0.88789 0.41544 0.0
H75 H 0.73266 0.84481 0.40159 0.0
H76 H 0.63887 0.64224 0.31554 0.0
H77 H 0.53323 0.6794 0.34865 0.0
H78 H 0.55231 0.70473 0.4377 0.0
H79 H 0.65811 0.66905 0.40319 0.0
C80 C 0.87396 0.2318 0.17894 0.0
C81 C 0.89491 0.19906 0.16489 0.0
C82 C 0.90873 0.1876 0.2603 0.0
C83 C 0.91215 0.17713 0.20525 0.0
C84 C 0.88874 0.22136 0.27397 0.0
C85 C 0.87137 0.24318 0.23356 0.0
U86 U 0.85482 0.25117 0.03049 0.0
O87 O 0.8052 0.25487 0.98524 0.0
O88 O 0.84098 0.30653 0.98689 0.0
C89 C 0.8099 0.29275 0.97279 0.0
C90 C 0.85389 0.25315 0.13697 0.0
C91 C 0.78026 0.31909 0.98454 0.0
C92 C 0.73317 0.34009 0.04343 0.0
C93 C 0.76303 0.3171 0.03453 0.0
C94 C 0.73831 0.36846 0.95336 0.0
C95 C 0.72022 0.36548 1.00256 0.0
C96 C 0.76803 0.3453 0.94437 0.0
C97 C 0.9099 0.19262 0.92663 0.0
C98 C 0.89868 0.15337 0.8446 0.0
C99 C 0.95484 0.1859 0.8582 0.0
C100 C 0.94353 0.20145 0.90772 0.0
C101 C 0.93291 0.16069 0.82697 0.0
C102 C 0.88726 0.16912 0.89399 0.0
C103 C 0.90029 0.20498 0.98224 0.0
O104 O 0.87182 0.27884 0.10789 0.0
O105 O 0.83288 0.23035 0.10748 0.0
O106 O 0.87006 0.192 1.00022 0.0
O107 O 0.90714 0.24234 0.99597 0.0
H108 H 0.89731 0.18998 0.12278 0.0
H109 H 0.92733 0.15127 0.19353 0.0
H110 H 0.88629 0.23065 0.31595 0.0
H111 H 0.85553 0.26857 0.24503 0.0
H112 H 0.72001 0.33776 0.08203 0.0
H113 H 0.77229 0.29723 0.06621 0.0
H114 H 0.72881 0.38779 0.92123 0.0
H115 H 0.78105 0.34724 0.9056 0.0
H116 H 0.88123 0.13404 0.82133 0.0
H117 H 0.9811 0.19278 0.84498 0.0
H118 H 0.96149 0.21945 0.93203 0.0
H119 H 0.86114 0.16175 0.90731 0.0
C120 C 0.37837 0.28193 0.35225 0.0
C121 C 0.407 0.30645 0.36625 0.0
C122 C 0.41053 0.3296 0.27297 0.0
C123 C 0.42303 0.33 0.32688 0.0
C124 C 0.38276 0.30377 0.25859 0.0
C125 C 0.36666 0.2802 0.29812 0.0
U126 U 0.36401 0.26449 0.50113 0.0
O127 O 0.31598 0.26284 0.54886 0.0
O128 O 0.35016 0.21021 0.54708 0.0
C129 C 0.31983 0.22491 0.56158 0.0
C130 C 0.35912 0.26094 0.39488 0.0
C131 C 0.28915 0.19918 0.55073 0.0
C132 C 0.23741 0.18225 0.49689 0.0
C133 C 0.2678 0.20514 0.50467 0.0
C134 C 0.25017 0.14607 0.57986 0.0
C135 C 0.22813 0.15265 0.53463 0.0
C136 C 0.28038 0.16919 0.58784 0.0
C137 C 0.42331 0.32496 0.59891 0.0
C138 C 0.41424 0.33043 0.69624 0.0
C139 C 0.46013 0.36905 0.65356 0.0
C140 C 0.45113 0.35224 0.60329 0.0
C141 C 0.4415 0.35877 0.70039 0.0
C142 C 0.40513 0.31366 0.64569 0.0
C143 C 0.41226 0.31117 0.54466 0.0
O144 O 0.37747 0.23533 0.4238 0.0
O145 O 0.3396 0.28438 0.42474 0.0
O146 O 0.38154 0.32404 0.52828 0.0
O147 O 0.41752 0.27317 0.53338 0.0
H148 H 0.41633 0.30818 0.40795 0.0
H149 H 0.44476 0.34918 0.33877 0.0
H150 H 0.37267 0.303 0.21728 0.0
H151 H 0.34447 0.26153 0.28676 0.0
H152 H 0.22066 0.1886 0.46225 0.0
H153 H 0.27417 0.22811 0.47538 0.0
H154 H 0.24382 0.12329 0.60942 0.0
H155 H 0.29662 0.16406 0.62348 0.0
H156 H 0.39919 0.32241 0.73161 0.0
H157 H 0.48133 0.39068 0.65573 0.0
H158 H 0.46534 0.36134 0.56752 0.0
H159 H 0.38339 0.29279 0.64283 0.0
O160 O 0.92638 0.99407 0.52277 0.0
Zn161 Zn 0.9647 0.03575 0.52711 0.0
O162 O 0.01079 0.01102 0.52065 0.0
Zn163 Zn 0.0389 0.02502 0.58432 0.0
Zn164 Zn 1.00554 0.95259 0.51723 0.0
Zn165 Zn 0.03427 0.03078 0.45537 0.0
O166 O 0.08246 0.05461 0.5644 0.0
O167 O 0.07951 0.05999 0.47468 0.0
O168 O 0.95975 0.06657 0.59776 0.0
O169 O 0.0122 0.05967 0.6355 0.0
O170 O 0.05248 0.97638 0.62679 0.0
O171 O 0.02616 0.92589 0.58382 0.0
O172 O 0.02951 0.93034 0.45106 0.0
O173 O 0.95614 0.07344 0.46513 0.0
O174 O 0.04721 0.98441 0.40677 0.0
O175 O 1.0029 0.06875 0.41307 0.0
C176 C 0.92625 0.9562 0.51644 0.0
C177 C 0.09526 0.06657 0.5198 0.0
C178 C 0.04476 0.93936 0.62313 0.0
C179 C 0.98128 0.07338 0.63666 0.0
C180 C 0.04438 0.94647 0.41048 0.0
C181 C 0.97275 0.08314 0.42257 0.0
O182 O 0.95468 0.93672 0.51312 0.0
O183 O 0.59089 0.49188 0.02131 0.0
Zn184 Zn 0.55365 0.53465 0.0217 0.0
O185 O 0.50689 0.51033 0.01453 0.0
Zn186 Zn 0.48408 0.53015 0.94865 0.0
Zn187 Zn 0.51028 0.45162 0.01079 0.0
Zn188 Zn 0.47889 0.52531 0.07707 0.0
O189 O 0.43907 0.55863 0.96525 0.0
O190 O 0.43527 0.5549 0.05487 0.0
O191 O 0.5636 0.57205 0.95927 0.0
O192 O 0.51537 0.56823 0.90858 0.0
O193 O 0.47296 0.48493 0.89724 0.0
O194 O 0.49031 0.42998 0.93977 0.0
O195 O 0.48504 0.42495 0.07308 0.0
O196 O 0.55858 0.56639 0.09168 0.0
O197 O 0.46411 0.47676 0.11859 0.0
O198 O 0.50636 0.56003 0.12911 0.0
C199 C 0.58981 0.45375 0.01871 0.0
C200 C 0.4229 0.56595 0.00912 0.0
C201 C 0.47666 0.44707 0.89854 0.0
C202 C 0.54603 0.582 0.91719 0.0
C203 C 0.46817 0.4392 0.11303 0.0
C204 C 0.53746 0.57383 0.13003 0.0
O205 O 0.56081 0.43496 0.01486 0.0
C206 C 0.17272 0.12645 0.5743 0.0
C207 C 0.19452 0.13032 0.52899 0.0
C208 C 0.14076 0.106 0.57061 0.0
C209 C 0.12905 0.08868 0.52136 0.0
H210 H 0.18022 0.13977 0.61295 0.0
H211 H 0.12499 0.10407 0.6068 0.0
S212 S 0.17713 0.08873 0.39118 0.0
N213 N 0.20284 0.11389 0.43369 0.0
N214 N 0.14235 0.07594 0.42641 0.0
C215 C 0.15058 0.0923 0.47559 0.0
C216 C 0.18336 0.11299 0.47949 0.0
C217 C 0.34747 0.62796 0.95413 0.0
C218 C 0.3247 0.63058 0.99844 0.0
C219 C 0.379 0.60702 0.95806 0.0
C220 C 0.38919 0.58785 0.00654 0.0
H221 H 0.34108 0.64269 0.91617 0.0
H222 H 0.39564 0.60622 0.92276 0.0
S223 S 0.33773 0.5839 0.13362 0.0
N224 N 0.31363 0.61089 0.09162 0.0
N225 N 0.37309 0.57187 0.09952 0.0
C226 C 0.36646 0.59 0.05117 0.0
C227 C 0.33424 0.61129 0.04701 0.0
C228 C 0.86047 0.87048 0.51581 0.0
C229 C 0.82876 0.88939 0.5028 0.0
C230 C 0.89174 0.89236 0.52028 0.0
C231 C 0.89247 0.93414 0.51254 0.0
H232 H 0.86125 0.83833 0.5215 0.0
H233 H 0.91552 0.87629 0.5299 0.0
S234 S 0.81589 0.998 0.47977 0.0
N235 N 0.79954 0.95224 0.48367 0.0
N236 N 0.8582 0.99363 0.49219 0.0
C237 C 0.86069 0.95352 0.50042 0.0
C238 C 0.8289 0.93109 0.49542 0.0
C239 C 0.68596 0.42918 1.00044 0.0
C240 C 0.68717 0.38775 0.01009 0.0
C241 C 0.65457 0.45042 1.0047 0.0
C242 C 0.62305 0.43091 0.01797 0.0
H243 H 0.70946 0.44527 0.9893 0.0
H244 H 0.65495 0.48223 0.99627 0.0
S245 S 0.61256 0.3225 0.04759 0.0
N246 N 0.65447 0.32793 0.034 0.0
N247 N 0.59544 0.36759 0.04198 0.0
C248 C 0.62409 0.38945 0.02834 0.0
C249 C 0.65613 0.36796 0.02446 0.0
C250 C 0.07636 0.85331 0.33687 0.0
C251 C 0.09028 0.86869 0.28862 0.0
C252 C 0.06114 0.87859 0.37548 0.0
C253 C 0.05954 0.92037 0.36766 0.0
H254 H 0.07708 0.82143 0.34473 0.0
H255 H 0.05091 0.86517 0.41204 0.0
S256 S 0.09323 0.97549 0.24801 0.0
N257 N 0.10213 0.92811 0.23516 0.0
N258 N 0.07351 0.97577 0.3073 0.0
C259 C 0.07343 0.93606 0.31931 0.0
C260 C 0.08876 0.91022 0.27993 0.0
C261 C 0.60656 0.65922 0.85415 0.0
C262 C 0.59525 0.66027 0.79956 0.0
C263 C 0.59033 0.63413 0.89197 0.0
C264 C 0.562 0.60924 0.87678 0.0
H265 H 0.62814 0.67799 0.86781 0.0
H266 H 0.60006 0.63435 0.93348 0.0
S267 S 0.52361 0.59918 0.738 0.0
N268 N 0.55496 0.63294 0.73165 0.0
N269 N 0.52397 0.58648 0.80274 0.0
C270 C 0.55036 0.6101 0.82228 0.0
C271 C 0.56707 0.63542 0.78372 0.0
C272 C 0.96001 0.1504 0.29924 0.0
C273 C 0.92493 0.16235 0.30325 0.0
C274 C 0.97535 0.12524 0.33823 0.0
C275 C 0.95619 0.1109 0.38277 0.0
H276 H 0.97577 0.16061 0.26566 0.0
H277 H 1.00242 0.11688 0.33316 0.0
S278 S 0.86269 0.13224 0.41031 0.0
N279 N 0.87108 0.15709 0.35409 0.0
N280 N 0.89969 0.1103 0.42766 0.0
C281 C 0.92099 0.1228 0.38717 0.0
C282 C 0.90544 0.14838 0.34743 0.0
C283 C 0.45038 0.42198 0.75307 0.0
C284 C 0.44923 0.37992 0.75231 0.0
C285 C 0.45858 0.44315 0.80071 0.0
C286 C 0.46631 0.42319 0.84971 0.0
H287 H 0.44485 0.43874 0.71638 0.0
H288 H 0.4594 0.47554 0.79866 0.0
S289 S 0.46634 0.31288 0.86919 0.0
N290 N 0.45597 0.3188 0.8044 0.0
N291 N 0.47156 0.35848 0.89441 0.0
C292 C 0.46485 0.38097 0.84964 0.0
C293 C 0.4562 0.35939 0.80092 0.0
C294 C 0.54254 0.61466 0.27406 0.0
C295 C 0.57226 0.63965 0.27357 0.0
C296 C 0.53129 0.59414 0.22728 0.0
C297 C 0.54942 0.59749 0.17802 0.0
H298 H 0.52828 0.61006 0.31132 0.0
H299 H 0.5086 0.57474 0.23023 0.0
S300 S 0.62705 0.66196 0.15387 0.0
N301 N 0.61822 0.66889 0.21873 0.0
N302 N 0.59751 0.62966 0.13086 0.0
C303 C 0.57879 0.62306 0.17659 0.0
C304 C 0.5901 0.64425 0.22429 0.0
C305 C 0.92679 0.13931 0.72933 0.0
C306 C 0.94634 0.13986 0.7781 0.0
C307 C 0.93841 0.11815 0.68362 0.0
C308 C 0.97001 0.09667 0.68497 0.0
H309 H 0.90232 0.15535 0.72649 0.0
H310 H 0.92241 0.11861 0.64703 0.0
S311 S 0.02982 0.08693 0.80436 0.0
N312 N 0.998 0.11587 0.82589 0.0
N313 N 0.02016 0.0766 0.7403 0.0
C314 C 0.98977 0.09706 0.73372 0.0
C315 C 0.97787 0.1185 0.78015 0.0
C316 C 0.43718 0.34375 0.18234 0.0
C317 C 0.42515 0.35777 0.23265 0.0
C318 C 0.45122 0.37019 0.144 0.0
C319 C 0.45329 0.41171 0.15428 0.0
H320 H 0.43608 0.31205 0.17282 0.0
H321 H 0.4603 0.35795 0.1059 0.0
S322 S 0.42388 0.46337 0.27974 0.0
N323 N 0.41522 0.4156 0.29042 0.0
N324 N 0.44152 0.46537 0.21894 0.0
C325 C 0.44094 0.42602 0.20449 0.0
C326 C 0.42692 0.39905 0.2435 0.0
C327 C 0.0943 0.90125 0.74649 0.0
C328 C 0.07518 0.86701 0.76124 0.0
C329 C 0.0849 0.92362 0.7007 0.0
C330 C 0.05627 0.91236 0.66745 0.0
H331 H 0.11584 0.91178 0.77181 0.0
H332 H 0.09982 0.95047 0.69196 0.0
S333 S 0.99951 0.82303 0.68639 0.0
N334 N 0.02765 0.82141 0.73773 0.0
N335 N 0.01004 0.86319 0.65103 0.0
C336 C 0.03788 0.87707 0.68042 0.0
C337 C 0.04726 0.85454 0.72756 0.0
loop_
_geom_bond_atom_site_label_1
_geom_bond_atom_site_label_2
_geom_bond_distance
_geom_bond_site_symmetry_2
_ccdc_geom_bond_type
C0 C1 1.264 . S
C0 C5 1.479 . S
C0 C10 1.465 . S
C1 C0 1.264 . S
C1 C3 1.339 . S
C1 H28 0.931 . S
C2 C3 1.395 . S
C2 C4 1.320 . S
C3 C1 1.339 . S
C3 C2 1.395 . S
C3 H29 0.929 . S
C4 C2 1.320 . S
C4 C5 1.405 . S
C4 H30 0.930 . S
C5 C0 1.479 . S
C5 C4 1.405 . S
C5 H31 0.931 . S
U6 O7 2.454 . S
U6 O8 2.458 1_554 S
U6 C9 2.984 . S
U6 C10 2.847 . S
U6 C23 2.882 1_554 S
U6 O24 2.441 . S
U6 O25 2.420 . S
U6 O26 2.455 1_554 S
U6 O27 2.449 1_554 S
O7 U6 2.454 . S
O7 C9 1.353 . S
O8 U6 2.458 1_556 S
O8 C9 1.286 1_556 S
C9 U6 2.984 . S
C9 O7 1.353 . S
C9 O8 1.286 1_554 S
C9 C11 1.363 . S
C10 C0 1.465 . S
C10 U6 2.847 . S
C10 O24 1.249 . S
C10 O25 1.202 . S
C11 C9 1.363 . S
C11 C13 1.408 . S
C11 C16 1.342 1_554 S
C12 C13 1.310 . S
C12 C15 1.461 . S
C12 H32 0.932 . S
C13 C11 1.408 . S
C13 C12 1.310 . S
C13 H33 0.930 . S
C14 C15 1.474 1_556 S
C14 C16 1.285 . S
C14 H34 0.929 . S
C15 C12 1.461 . S
C15 C14 1.474 1_554 S
C16 C11 1.342 1_556 S
C16 C14 1.285 . S
C16 H35 0.930 . S
C17 C20 1.424 . S
C17 C22 1.245 . S
C17 C23 1.428 . S
C18 C21 1.260 . S
C18 C22 1.477 . S
C18 H36 0.932 . S
C19 C20 1.384 . S
C19 C21 1.479 . S
C19 H37 0.929 . S
C20 C17 1.424 . S
C20 C19 1.384 . S
C20 H38 0.928 . S
C21 C18 1.260 . S
C21 C19 1.479 . S
C22 C17 1.245 . S
C22 C18 1.477 . S
C22 H39 0.932 . S
C23 U6 2.882 1_556 S
C23 C17 1.428 . S
C23 O26 1.301 . S
C23 O27 1.282 . S
O24 U6 2.441 . S
O24 C10 1.249 . S
O25 U6 2.420 . S
O25 C10 1.202 . S
O26 U6 2.455 1_556 S
O26 C23 1.301 . S
O27 U6 2.449 1_556 S
O27 C23 1.282 . S
H28 C1 0.931 . S
H29 C3 0.929 . S
H30 C4 0.930 . S
H31 C5 0.931 . S
H32 C12 0.932 . S
H33 C13 0.930 . S
H34 C14 0.929 . S
H35 C16 0.930 . S
H36 C18 0.932 . S
H37 C19 0.929 . S
H38 C20 0.928 . S
H39 C22 0.932 . S
C40 C41 1.264 . S
C40 C45 1.479 . S
C40 C50 1.465 . S
C41 C40 1.264 . S
C41 C43 1.339 . S
C41 H68 0.931 . S
C42 C43 1.395 . S
C42 C44 1.320 . S
C43 C41 1.339 . S
C43 C42 1.395 . S
C43 H69 0.929 . S
C44 C42 1.320 . S
C44 C45 1.405 . S
C44 H70 0.930 . S
C45 C40 1.479 . S
C45 C44 1.405 . S
C45 H71 0.931 . S
U46 O47 2.454 . S
U46 O48 2.458 . S
U46 C49 2.984 . S
U46 C50 2.847 . S
U46 C63 2.882 . S
U46 O64 2.441 . S
U46 O65 2.420 . S
U46 O66 2.455 . S
U46 O67 2.449 . S
O47 U46 2.454 . S
O47 C49 1.353 . S
O48 U46 2.458 . S
O48 C49 1.286 . S
C49 U46 2.984 . S
C49 O47 1.353 . S
C49 O48 1.286 . S
C49 C51 1.363 . S
C50 C40 1.465 . S
C50 U46 2.847 . S
C50 O64 1.249 . S
C50 O65 1.202 . S
C51 C49 1.363 . S
C51 C53 1.408 . S
C51 C56 1.342 . S
C52 C53 1.310 . S
C52 C55 1.461 . S
C52 H72 0.932 . S
C53 C51 1.408 . S
C53 C52 1.310 . S
C53 H73 0.930 . S
C54 C55 1.474 . S
C54 C56 1.285 . S
C54 H74 0.929 . S
C55 C52 1.461 . S
C55 C54 1.474 . S
C56 C51 1.342 . S
C56 C54 1.285 . S
C56 H75 0.930 . S
C57 C60 1.424 . S
C57 C62 1.245 . S
C57 C63 1.428 . S
C58 C61 1.260 . S
C58 C62 1.477 . S
C58 H76 0.932 . S
C59 C60 1.384 . S
C59 C61 1.479 . S
C59 H77 0.929 . S
C60 C57 1.424 . S
C60 C59 1.384 . S
C60 H78 0.928 . S
C61 C58 1.260 . S
C61 C59 1.479 . S
C62 C57 1.245 . S
C62 C58 1.477 . S
C62 H79 0.932 . S
C63 U46 2.882 . S
C63 C57 1.428 . S
C63 O66 1.301 . S
C63 O67 1.282 . S
O64 U46 2.441 . S
O64 C50 1.249 . S
O65 U46 2.420 . S
O65 C50 1.202 . S
O66 U46 2.455 . S
O66 C63 1.301 . S
O67 U46 2.449 . S
O67 C63 1.282 . S
H68 C41 0.931 . S
H69 C43 0.929 . S
H70 C44 0.930 . S
H71 C45 0.931 . S
H72 C52 0.932 . S
H73 C53 0.930 . S
H74 C54 0.929 . S
H75 C56 0.930 . S
H76 C58 0.932 . S
H77 C59 0.929 . S
H78 C60 0.928 . S
H79 C62 0.932 . S
C80 C81 1.264 . S
C80 C85 1.479 . S
C80 C90 1.465 . S
C81 C80 1.264 . S
C81 C83 1.339 . S
C81 H108 0.931 . S
C82 C83 1.395 . S
C82 C84 1.320 . S
C83 C81 1.339 . S
C83 C82 1.395 . S
C83 H109 0.929 . S
C84 C82 1.320 . S
C84 C85 1.405 . S
C84 H110 0.930 . S
C85 C80 1.479 . S
C85 C84 1.405 . S
C85 H111 0.931 . S
U86 O87 2.454 . S
U86 O88 2.458 1_554 S
U86 C89 2.984 . S
U86 C90 2.847 . S
U86 C103 2.882 1_554 S
U86 O104 2.441 . S
U86 O105 2.420 . S
U86 O106 2.455 1_554 S
U86 O107 2.449 1_554 S
O87 U86 2.454 . S
O87 C89 1.353 . S
O88 U86 2.458 1_556 S
O88 C89 1.286 1_556 S
C89 U86 2.984 . S
C89 O87 1.353 . S
C89 O88 1.286 1_554 S
C89 C91 1.363 . S
C90 C80 1.465 . S
C90 U86 2.847 . S
C90 O104 1.249 . S
C90 O105 1.202 . S
C91 C89 1.363 . S
C91 C93 1.408 . S
C91 C96 1.342 1_554 S
C92 C93 1.310 . S
C92 C95 1.461 . S
C92 H112 0.932 . S
C93 C91 1.408 . S
C93 C92 1.310 . S
C93 H113 0.930 . S
C94 C95 1.474 1_556 S
C94 C96 1.285 . S
C94 H114 0.929 . S
C95 C92 1.461 . S
C95 C94 1.474 1_554 S
C96 C91 1.342 1_556 S
C96 C94 1.285 . S
C96 H115 0.930 . S
C97 C100 1.424 . S
C97 C102 1.245 . S
C97 C103 1.428 . S
C98 C101 1.260 . S
C98 C102 1.477 . S
C98 H116 0.932 . S
C99 C100 1.384 . S
C99 C101 1.479 . S
C99 H117 0.929 . S
C100 C97 1.424 . S
C100 C99 1.384 . S
C100 H118 0.928 . S
C101 C98 1.260 . S
C101 C99 1.479 . S
C102 C97 1.245 . S
C102 C98 1.477 . S
C102 H119 0.932 . S
C103 U86 2.882 1_556 S
C103 C97 1.428 . S
C103 O106 1.301 . S
C103 O107 1.282 . S
O104 U86 2.441 . S
O104 C90 1.249 . S
O105 U86 2.420 . S
O105 C90 1.202 . S
O106 U86 2.455 1_556 S
O106 C103 1.301 . S
O107 U86 2.449 1_556 S
O107 C103 1.282 . S
H108 C81 0.931 . S
H109 C83 0.929 . S
H110 C84 0.930 . S
H111 C85 0.931 . S
H112 C92 0.932 . S
H113 C93 0.930 . S
H114 C94 0.929 . S
H115 C96 0.930 . S
H116 C98 0.932 . S
H117 C99 0.929 . S
H118 C100 0.928 . S
H119 C102 0.932 . S
C120 C121 1.264 . S
C120 C125 1.479 . S
C120 C130 1.465 . S
C121 C120 1.264 . S
C121 C123 1.339 . S
C121 H148 0.931 . S
C122 C123 1.395 . S
C122 C124 1.320 . S
C123 C121 1.339 . S
C123 C122 1.395 . S
C123 H149 0.929 . S
C124 C122 1.320 . S
C124 C125 1.405 . S
C124 H150 0.930 . S
C125 C120 1.479 . S
C125 C124 1.405 . S
C125 H151 0.931 . S
U126 O127 2.454 . S
U126 O128 2.458 . S
U126 C129 2.984 . S
U126 C130 2.847 . S
U126 C143 2.882 . S
U126 O144 2.441 . S
U126 O145 2.420 . S
U126 O146 2.455 . S
U126 O147 2.449 . S
O127 U126 2.454 . S
O127 C129 1.353 . S
O128 U126 2.458 . S
O128 C129 1.286 . S
C129 U126 2.984 . S
C129 O127 1.353 . S
C129 O128 1.286 . S
C129 C131 1.363 . S
C130 C120 1.465 . S
C130 U126 2.847 . S
C130 O144 1.249 . S
C130 O145 1.202 . S
C131 C129 1.363 . S
C131 C133 1.408 . S
C131 C136 1.342 . S
C132 C133 1.310 . S
C132 C135 1.461 . S
C132 H152 0.932 . S
C133 C131 1.408 . S
C133 C132 1.310 . S
C133 H153 0.930 . S
C134 C135 1.474 . S
C134 C136 1.285 . S
C134 H154 0.929 . S
C135 C132 1.461 . S
C135 C134 1.474 . S
C136 C131 1.342 . S
C136 C134 1.285 . S
C136 H155 0.930 . S
C137 C140 1.424 . S
C137 C142 1.245 . S
C137 C143 1.428 . S
C138 C141 1.260 . S
C138 C142 1.477 . S
C138 H156 0.932 . S
C139 C140 1.384 . S
C139 C141 1.479 . S
C139 H157 0.929 . S
C140 C137 1.424 . S
C140 C139 1.384 . S
C140 H158 0.928 . S
C141 C138 1.260 . S
C141 C139 1.479 . S
C142 C137 1.245 . S
C142 C138 1.477 . S
C142 H159 0.932 . S
C143 U126 2.882 . S
C143 C137 1.428 . S
C143 O146 1.301 . S
C143 O147 1.282 . S
O144 U126 2.441 . S
O144 C130 1.249 . S
O145 U126 2.420 . S
O145 C130 1.202 . S
O146 U126 2.455 . S
O146 C143 1.301 . S
O147 U126 2.449 . S
O147 C143 1.282 . S
H148 C121 0.931 . S
H149 C123 0.929 . S
H150 C124 0.930 . S
H151 C125 0.931 . S
H152 C132 0.932 . S
H153 C133 0.930 . S
H154 C134 0.929 . S
H155 C136 0.930 . S
H156 C138 0.932 . S
H157 C139 0.929 . S
H158 C140 0.928 . S
H159 C142 0.932 . S
O160 Zn161 1.953 1_565 S
O160 C176 1.225 . S
Zn161 O160 1.953 1_545 S
Zn161 O162 1.949 1_655 S
Zn161 O168 1.919 . S
Zn161 O173 1.924 . S
O162 Zn161 1.949 1_455 S
O162 Zn163 1.923 . S
O162 Zn164 1.950 1_445 S
O162 Zn165 1.945 . S
Zn163 O162 1.923 . S
Zn163 O166 1.933 . S
Zn163 O169 1.941 . S
Zn163 O170 1.965 1_545 S
Zn164 O162 1.950 1_665 S
Zn164 O171 1.938 1_655 S
Zn164 O172 1.906 1_655 S
Zn164 O182 1.953 . S
Zn165 O162 1.945 . S
Zn165 O167 1.932 . S
Zn165 O174 1.977 1_545 S
Zn165 O175 1.910 1_455 S
O166 Zn163 1.933 . S
O166 C177 1.226 . S
O167 Zn165 1.932 . S
O167 C177 1.307 . S
O168 Zn161 1.919 . S
O168 C179 1.253 . S
O169 Zn163 1.941 . S
O169 C179 1.283 1_455 S
O170 Zn163 1.965 1_565 S
O170 C178 1.303 . S
O171 Zn164 1.938 1_455 S
O171 C178 1.247 . S
O172 Zn164 1.906 1_455 S
O172 C180 1.304 . S
O173 Zn161 1.924 . S
O173 C181 1.311 . S
O174 Zn165 1.977 1_565 S
O174 C180 1.272 . S
O175 Zn165 1.910 1_655 S
O175 C181 1.231 . S
C176 O160 1.225 . S
C176 O182 1.298 . S
C177 O166 1.226 . S
C177 O167 1.307 . S
C178 O170 1.303 . S
C178 O171 1.247 . S
C179 O168 1.253 . S
C179 O169 1.283 1_655 S
C180 O172 1.304 . S
C180 O174 1.272 . S
C181 O173 1.311 . S
C181 O175 1.231 . S
O182 Zn164 1.953 . S
O182 C176 1.298 . S
O183 Zn184 1.953 . S
O183 C199 1.225 1_556 S
Zn184 O183 1.953 . S
Zn184 O185 1.948 1_556 S
Zn184 O191 1.919 . S
Zn184 O196 1.924 1_556 S
O185 Zn184 1.948 1_554 S
O185 Zn186 1.923 1_554 S
O185 Zn187 1.950 . S
O185 Zn188 1.945 . S
Zn186 O185 1.923 1_556 S
Zn186 O189 1.933 . S
Zn186 O192 1.941 . S
Zn186 O193 1.965 . S
Zn187 O185 1.950 . S
Zn187 O194 1.938 1_554 S
Zn187 O195 1.906 . S
Zn187 O205 1.953 . S
Zn188 O185 1.945 . S
Zn188 O190 1.932 . S
Zn188 O197 1.977 . S
Zn188 O198 1.910 . S
O189 Zn186 1.933 . S
O189 C200 1.226 1_556 S
O190 Zn188 1.932 . S
O190 C200 1.307 . S
O191 Zn184 1.919 . S
O191 C202 1.253 . S
O192 Zn186 1.941 . S
O192 C202 1.283 . S
O193 Zn186 1.965 . S
O193 C201 1.303 . S
O194 Zn187 1.938 1_556 S
O194 C201 1.247 . S
O195 Zn187 1.906 . S
O195 C203 1.304 . S
O196 Zn184 1.924 1_554 S
O196 C204 1.311 . S
O197 Zn188 1.977 . S
O197 C203 1.272 . S
O198 Zn188 1.910 . S
O198 C204 1.231 . S
C199 O183 1.225 1_554 S
C199 O205 1.298 . S
C200 O189 1.226 1_554 S
C200 O190 1.307 . S
C201 O193 1.303 . S
C201 O194 1.247 . S
C202 O191 1.253 . S
C202 O192 1.283 . S
C203 O195 1.304 . S
C203 O197 1.272 . S
C204 O196 1.311 . S
C204 O198 1.231 . S
O205 Zn187 1.953 . S
O205 C199 1.298 . S
C206 C207 1.369 . S
C206 C208 1.419 . S
C206 H210 0.930 . S
C207 C206 1.369 . S
C207 C216 1.429 . S
C208 C206 1.419 . S
C208 C209 1.363 . S
C208 H211 0.929 . S
C209 C208 1.363 . S
C209 C215 1.428 . S
H210 C206 0.930 . S
H211 C208 0.929 . S
S212 N213 1.608 1_565 S
S212 N214 1.610 . S
N213 S212 1.608 1_545 S
N213 C216 1.356 . S
N214 S212 1.610 . S
N214 C215 1.351 1_565 S
C215 C209 1.428 . S
C215 N214 1.351 1_545 S
C215 C216 1.434 . S
C216 C207 1.429 . S
C216 N213 1.356 . S
C216 C215 1.434 . S
C217 C218 1.369 1_556 S
C217 C219 1.419 . S
C217 H221 0.930 . S
C218 C217 1.369 1_554 S
C218 C227 1.429 . S
C219 C217 1.419 . S
C219 C220 1.363 1_556 S
C219 H222 0.929 . S
C220 C219 1.363 1_554 S
C220 C226 1.428 . S
H221 C217 0.930 . S
H222 C219 0.929 . S
S223 N224 1.613 . S
S223 N225 1.610 . S
N224 S223 1.613 . S
N224 C227 1.350 . S
N225 S223 1.610 . S
N225 C226 1.351 . S
C226 C220 1.428 . S
C226 N225 1.351 . S
C226 C227 1.434 . S
C227 C218 1.429 . S
C227 N224 1.350 . S
C227 C226 1.434 . S
C228 C229 1.369 . S
C228 C230 1.419 . S
C228 H232 0.930 . S
C229 C228 1.369 . S
C229 C238 1.429 . S
C230 C228 1.419 . S
C230 C231 1.363 . S
C230 H233 0.929 . S
C231 C230 1.363 . S
C231 C237 1.428 . S
H232 C228 0.930 . S
H233 C230 0.929 . S
S234 N235 1.613 . S
S234 N236 1.610 . S
N235 S234 1.613 . S
N235 C238 1.350 . S
N236 S234 1.610 . S
N236 C237 1.351 . S
C237 C231 1.428 . S
C237 N236 1.351 . S
C237 C238 1.434 . S
C238 C229 1.429 . S
C238 N235 1.350 . S
C238 C237 1.434 . S
C239 C240 1.369 . S
C239 C241 1.419 . S
C239 H243 0.930 . S
C240 C239 1.369 . S
C240 C249 1.429 . S
C241 C239 1.419 . S
C241 C242 1.363 . S
C241 H244 0.929 . S
C242 C241 1.363 . S
C242 C248 1.432 . S
H243 C239 0.930 . S
H244 C241 0.929 . S
S245 N246 1.613 . S
S245 N247 1.610 . S
N246 S245 1.613 . S
N246 C249 1.350 1_556 S
N247 S245 1.610 . S
N247 C248 1.347 1_556 S
C248 C242 1.432 . S
C248 N247 1.347 1_554 S
C248 C249 1.434 . S
C249 C240 1.429 . S
C249 N246 1.350 1_554 S
C249 C248 1.434 . S
C250 C251 1.369 . S
C250 C252 1.419 . S
C250 H254 0.930 . S
C251 C250 1.369 . S
C251 C260 1.429 . S
C252 C250 1.419 . S
C252 C253 1.363 . S
C252 H255 0.929 . S
C253 C252 1.363 . S
C253 C259 1.428 . S
H254 C250 0.930 . S
H255 C252 0.929 . S
S256 N257 1.613 . S
S256 N258 1.610 . S
N257 S256 1.613 . S
N257 C260 1.350 . S
N258 S256 1.610 . S
N258 C259 1.351 . S
C259 C253 1.428 . S
C259 N258 1.351 . S
C259 C260 1.434 . S
C260 C251 1.429 . S
C260 N257 1.350 . S
C260 C259 1.434 . S
C261 C262 1.369 . S
C261 C263 1.419 . S
C261 H265 0.930 . S
C262 C261 1.369 . S
C262 C271 1.429 . S
C263 C261 1.419 . S
C263 C264 1.363 . S
C263 H266 0.929 . S
C264 C263 1.363 . S
C264 C270 1.428 . S
H265 C261 0.930 . S
H266 C263 0.929 . S
S267 N268 1.613 . S
S267 N269 1.610 . S
N268 S267 1.613 . S
N268 C271 1.350 . S
N269 S267 1.610 . S
N269 C270 1.351 . S
C270 C264 1.428 . S
C270 N269 1.351 . S
C270 C271 1.434 . S
C271 C262 1.429 . S
C271 N268 1.350 . S
C271 C270 1.434 . S
C272 C273 1.369 . S
C272 C274 1.419 . S
C272 H276 0.930 . S
C273 C272 1.369 . S
C273 C282 1.429 . S
C274 C272 1.419 . S
C274 C275 1.363 . S
C274 H277 0.929 . S
C275 C274 1.363 . S
C275 C281 1.428 . S
H276 C272 0.930 . S
H277 C274 0.929 . S
S278 N279 1.613 . S
S278 N280 1.610 . S
N279 S278 1.613 . S
N279 C282 1.350 . S
N280 S278 1.610 . S
N280 C281 1.351 . S
C281 C275 1.428 . S
C281 N280 1.351 . S
C281 C282 1.434 . S
C282 C273 1.429 . S
C282 N279 1.350 . S
C282 C281 1.434 . S
C283 C284 1.369 . S
C283 C285 1.419 . S
C283 H287 0.930 . S
C284 C283 1.369 . S
C284 C293 1.429 . S
C285 C283 1.419 . S
C285 C286 1.363 . S
C285 H288 0.929 . S
C286 C285 1.363 . S
C286 C292 1.428 . S
H287 C283 0.930 . S
H288 C285 0.929 . S
S289 N290 1.613 . S
S289 N291 1.610 . S
N290 S289 1.613 . S
N290 C293 1.350 . S
N291 S289 1.610 . S
N291 C292 1.351 . S
C292 C286 1.428 . S
C292 N291 1.351 . S
C292 C293 1.434 . S
C293 C284 1.429 . S
C293 N290 1.350 . S
C293 C292 1.434 . S
C294 C295 1.369 . S
C294 C296 1.419 . S
C294 H298 0.930 . S
C295 C294 1.369 . S
C295 C304 1.429 . S
C296 C294 1.419 . S
C296 C297 1.363 . S
C296 H299 0.929 . S
C297 C296 1.363 . S
C297 C303 1.428 . S
H298 C294 0.930 . S
H299 C296 0.929 . S
S300 N301 1.613 . S
S300 N302 1.610 . S
N301 S300 1.613 . S
N301 C304 1.350 . S
N302 S300 1.610 . S
N302 C303 1.351 . S
C303 C297 1.428 . S
C303 N302 1.351 . S
C303 C304 1.434 . S
C304 C295 1.429 . S
C304 N301 1.350 . S
C304 C303 1.434 . S
C305 C306 1.369 . S
C305 C307 1.419 . S
C305 H309 0.930 . S
C306 C305 1.369 . S
C306 C315 1.429 . S
C307 C305 1.419 . S
C307 C308 1.363 . S
C307 H310 0.929 . S
C308 C307 1.363 . S
C308 C314 1.428 . S
H309 C305 0.930 . S
H310 C307 0.929 . S
S311 N312 1.613 . S
S311 N313 1.610 . S
N312 S311 1.613 . S
N312 C315 1.350 . S
N313 S311 1.610 . S
N313 C314 1.351 . S
C314 C308 1.428 . S
C314 N313 1.351 . S
C314 C315 1.434 . S
C315 C306 1.429 . S
C315 N312 1.350 . S
C315 C314 1.434 . S
C316 C317 1.369 . S
C316 C318 1.419 . S
C316 H320 0.930 . S
C317 C316 1.369 . S
C317 C326 1.429 . S
C318 C316 1.419 . S
C318 C319 1.363 . S
C318 H321 0.929 . S
C319 C318 1.363 . S
C319 C325 1.428 . S
H320 C316 0.930 . S
H321 C318 0.929 . S
S322 N323 1.613 . S
S322 N324 1.610 . S
N323 S322 1.613 . S
N323 C326 1.350 . S
N324 S322 1.610 . S
N324 C325 1.351 . S
C325 C319 1.428 . S
C325 N324 1.351 . S
C325 C326 1.434 . S
C326 C317 1.429 . S
C326 N323 1.350 . S
C326 C325 1.434 . S
C327 C328 1.369 . S
C327 C329 1.419 . S
C327 H331 0.930 . S
C328 C327 1.369 . S
C328 C337 1.429 . S
C329 C327 1.419 . S
C329 C330 1.363 . S
C329 H332 0.929 . S
C330 C329 1.363 . S
C330 C336 1.428 . S
H331 C327 0.930 . S
H332 C329 0.929 . S
S333 N334 1.613 1_655 S
S333 N335 1.610 . S
N334 S333 1.613 1_455 S
N334 C337 1.350 . S
N335 S333 1.610 . S
N335 C336 1.351 1_655 S
C336 C330 1.428 . S
C336 N335 1.351 1_455 S
C336 C337 1.434 . S
C337 C328 1.429 . S
C337 N334 1.350 . S
C337 C336 1.434 . S
C209 C177 1.748 . S
C207 C135 1.708 . S
C218 C15 1.703 . S
C220 C200 1.752 . S
C229 C55 1.724 . S
C231 C176 1.761 . S
C240 C95 1.704 . S
C242 C199 1.760 . S
C253 C180 1.749 . S
C251 C2 1.683 . S
C264 C202 1.735 . S
C262 C42 1.732 . S
C273 C82 1.708 . S
C275 C181 1.725 . S
C284 C141 1.605 . S
C286 C201 1.672 . S
C297 C204 1.753 . S
C295 C61 1.879 . S
C308 C179 1.765 . S
C306 C101 1.646 . S
C319 C203 1.775 . S
C317 C122 1.712 . S
C328 C21 1.635 . S
C330 C178 1.701 . S
