# Generated by pormake.
# Topology ocu, (6,8)-cn, num edge types: 1
# Building blocks:
#     Node 0, Type 0, BuildingBlock: NUHQIS_clean_sbu_0, # of connection points: 6
#     Node 1, Type 0, BuildingBlock: NUHQIS_clean_sbu_0, # of connection points: 6
#     Node 2, Type 0, BuildingBlock: NUHQIS_clean_sbu_0, # of connection points: 6
#     Node 3, Type 0, BuildingBlock: NUHQIS_clean_sbu_0, # of connection points: 6
#     Node 4, Type 0, BuildingBlock: NUHQIS_clean_sbu_0, # of connection points: 6
#     Node 5, Type 0, BuildingBlock: NUHQIS_clean_sbu_0, # of connection points: 6
#     Node 6, Type 0, BuildingBlock: NUHQIS_clean_sbu_0, # of connection points: 6
#     Node 7, Type 0, BuildingBlock: NUHQIS_clean_sbu_0, # of connection points: 6
#     Node 8, Type 1, BuildingBlock: GIZVER_clean_sbu_0, # of connection points: 8
#     Node 9, Type 1, BuildingBlock: GIZVER_clean_sbu_0, # of connection points: 8
#     Node 10, Type 1, BuildingBlock: GIZVER_clean_sbu_0, # of connection points: 8
#     Node 11, Type 1, BuildingBlock: GIZVER_clean_sbu_0, # of connection points: 8
#     Node 12, Type 1, BuildingBlock: GIZVER_clean_sbu_0, # of connection points: 8
#     Node 13, Type 1, BuildingBlock: GIZVER_clean_sbu_0, # of connection points: 8
#     Edge 14, Type (0, 1), BuildingBlock: MIFKUJ_clean_linker_0, # of connection points: 2
#     Edge 15, Type (0, 1), BuildingBlock: MIFKUJ_clean_linker_0, # of connection points: 2
#     Edge 16, Type (0, 1), BuildingBlock: MIFKUJ_clean_linker_0, # of connection points: 2
#     Edge 17, Type (0, 1), BuildingBlock: MIFKUJ_clean_linker_0, # of connection points: 2
#     Edge 18, Type (0, 1), BuildingBlock: MIFKUJ_clean_linker_0, # of connection points: 2
#     Edge 19, Type (0, 1), BuildingBlock: MIFKUJ_clean_linker_0, # of connection points: 2
#     Edge 20, Type (0, 1), BuildingBlock: MIFKUJ_clean_linker_0, # of connection points: 2
#     Edge 21, Type (0, 1), BuildingBlock: MIFKUJ_clean_linker_0, # of connection points: 2
#     Edge 22, Type (0, 1), BuildingBlock: MIFKUJ_clean_linker_0, # of connection points: 2
#     Edge 23, Type (0, 1), BuildingBlock: MIFKUJ_clean_linker_0, # of connection points: 2
#     Edge 24, Type (0, 1), BuildingBlock: MIFKUJ_clean_linker_0, # of connection points: 2
#     Edge 25, Type (0, 1), BuildingBlock: MIFKUJ_clean_linker_0, # of connection points: 2
#     Edge 26, Type (0, 1), BuildingBlock: MIFKUJ_clean_linker_0, # of connection points: 2
#     Edge 27, Type (0, 1), BuildingBlock: MIFKUJ_clean_linker_0, # of connection points: 2
#     Edge 28, Type (0, 1), BuildingBlock: MIFKUJ_clean_linker_0, # of connection points: 2
#     Edge 29, Type (0, 1), BuildingBlock: MIFKUJ_clean_linker_0, # of connection points: 2
#     Edge 30, Type (0, 1), BuildingBlock: MIFKUJ_clean_linker_0, # of connection points: 2
#     Edge 31, Type (0, 1), BuildingBlock: MIFKUJ_clean_linker_0, # of connection points: 2
#     Edge 32, Type (0, 1), BuildingBlock: MIFKUJ_clean_linker_0, # of connection points: 2
#     Edge 33, Type (0, 1), BuildingBlock: MIFKUJ_clean_linker_0, # of connection points: 2
#     Edge 34, Type (0, 1), BuildingBlock: MIFKUJ_clean_linker_0, # of connection points: 2
#     Edge 35, Type (0, 1), BuildingBlock: MIFKUJ_clean_linker_0, # of connection points: 2
#     Edge 36, Type (0, 1), BuildingBlock: MIFKUJ_clean_linker_0, # of connection points: 2
#     Edge 37, Type (0, 1), BuildingBlock: MIFKUJ_clean_linker_0, # of connection points: 2
#     Edge 38, Type (0, 1), BuildingBlock: MIFKUJ_clean_linker_0, # of connection points: 2
#     Edge 39, Type (0, 1), BuildingBlock: MIFKUJ_clean_linker_0, # of connection points: 2
#     Edge 40, Type (0, 1), BuildingBlock: MIFKUJ_clean_linker_0, # of connection points: 2
#     Edge 41, Type (0, 1), BuildingBlock: MIFKUJ_clean_linker_0, # of connection points: 2
#     Edge 42, Type (0, 1), BuildingBlock: MIFKUJ_clean_linker_0, # of connection points: 2
#     Edge 43, Type (0, 1), BuildingBlock: MIFKUJ_clean_linker_0, # of connection points: 2
#     Edge 44, Type (0, 1), BuildingBlock: MIFKUJ_clean_linker_0, # of connection points: 2
#     Edge 45, Type (0, 1), BuildingBlock: MIFKUJ_clean_linker_0, # of connection points: 2
#     Edge 46, Type (0, 1), BuildingBlock: MIFKUJ_clean_linker_0, # of connection points: 2
#     Edge 47, Type (0, 1), BuildingBlock: MIFKUJ_clean_linker_0, # of connection points: 2
#     Edge 48, Type (0, 1), BuildingBlock: MIFKUJ_clean_linker_0, # of connection points: 2
#     Edge 49, Type (0, 1), BuildingBlock: MIFKUJ_clean_linker_0, # of connection points: 2
#     Edge 50, Type (0, 1), BuildingBlock: MIFKUJ_clean_linker_0, # of connection points: 2
#     Edge 51, Type (0, 1), BuildingBlock: MIFKUJ_clean_linker_0, # of connection points: 2
#     Edge 52, Type (0, 1), BuildingBlock: MIFKUJ_clean_linker_0, # of connection points: 2
#     Edge 53, Type (0, 1), BuildingBlock: MIFKUJ_clean_linker_0, # of connection points: 2
#     Edge 54, Type (0, 1), BuildingBlock: MIFKUJ_clean_linker_0, # of connection points: 2
#     Edge 55, Type (0, 1), BuildingBlock: MIFKUJ_clean_linker_0, # of connection points: 2
#     Edge 56, Type (0, 1), BuildingBlock: MIFKUJ_clean_linker_0, # of connection points: 2
#     Edge 57, Type (0, 1), BuildingBlock: MIFKUJ_clean_linker_0, # of connection points: 2
#     Edge 58, Type (0, 1), BuildingBlock: MIFKUJ_clean_linker_0, # of connection points: 2
#     Edge 59, Type (0, 1), BuildingBlock: MIFKUJ_clean_linker_0, # of connection points: 2
#     Edge 60, Type (0, 1), BuildingBlock: MIFKUJ_clean_linker_0, # of connection points: 2
#     Edge 61, Type (0, 1), BuildingBlock: MIFKUJ_clean_linker_0, # of connection points: 2
# Relax obj value: 0.202
# Max RMSD: 0.278
# Mean RMSD: 0.185
data_MOF--net-ocu--node1-NUHQIS_clean_sbu_0--node2-GIZVER_clean_sbu_0--edge1-MIFKUJ_clean_linker_0
_symmetry_space_group_name_H-M    P1
_symmetry_Int_Tables_number       1
_symmetry_cell_setting            triclinic
loop_
_symmetry_equiv_pos_as_xyz
'x, y, z'
_cell_length_a     54.585042
_cell_length_b     58.889624
_cell_length_c     43.048279
_cell_angle_alpha  95.095155
_cell_angle_beta   87.824572
_cell_angle_gamma 109.45612
loop_
_atom_site_label
_atom_site_type_symbol
_atom_site_fract_x
_atom_site_fract_y
_atom_site_fract_z
_atom_type_partial_charge
Tb0 Tb 0.25889 0.26445 0.2463 0.0
Eu1 Eu 0.29705 0.2852 0.30184 0.0
C2 C 0.30896 0.24269 0.24841 0.0
C3 C 0.24855 0.23526 0.30726 0.0
C4 C 0.22476 0.26183 0.17292 0.0
C5 C 0.20828 0.25964 0.12075 0.0
C6 C 0.21215 0.24814 0.1463 0.0
C7 C 0.23389 0.2871 0.17364 0.0
C8 C 0.22998 0.29859 0.14826 0.0
C9 C 0.21705 0.28503 0.12151 0.0
C10 C 0.22949 0.2498 0.1993 0.0
O11 O 0.2419 0.29337 0.27097 0.0
O12 O 0.26615 0.30522 0.31507 0.0
O13 O 0.30778 0.31576 0.27061 0.0
O14 O 0.28931 0.29407 0.2262 0.0
C15 C 0.24638 0.30674 0.29883 0.0
O16 O 0.30487 0.2936 0.35157 0.0
O17 O 0.33655 0.30368 0.31818 0.0
O18 O 0.3178 0.25999 0.27179 0.0
O19 O 0.2852 0.24036 0.23785 0.0
O20 O 0.24049 0.23821 0.28005 0.0
O21 O 0.27038 0.25014 0.3192 0.0
C22 C 0.30512 0.31381 0.24038 0.0
O23 O 0.25278 0.24871 0.20033 0.0
O24 O 0.22197 0.25649 0.22657 0.0
C25 C 0.3447 0.29135 0.36602 0.0
C26 C 0.36801 0.26783 0.40348 0.0
C27 C 0.36213 0.28832 0.41587 0.0
C28 C 0.35047 0.3 0.39719 0.0
C29 C 0.35126 0.27137 0.35336 0.0
C30 C 0.36299 0.25981 0.37188 0.0
C31 C 0.32997 0.30191 0.34754 0.0
H32 H 0.1984 0.24869 0.10048 0.0
H33 H 0.20532 0.22858 0.14528 0.0
H34 H 0.24389 0.29793 0.19395 0.0
H35 H 0.23649 0.31815 0.15001 0.0
H36 H 0.36569 0.29478 0.44018 0.0
H37 H 0.3453 0.31532 0.40729 0.0
H38 H 0.34681 0.26435 0.32935 0.0
H39 H 0.36778 0.24435 0.36156 0.0
Tb40 Tb 0.80793 0.25932 0.27456 0.0
Eu41 Eu 0.77116 0.29297 0.27735 0.0
C42 C 0.76981 0.25524 0.2192 0.0
C43 C 0.82645 0.30778 0.23981 0.0
C44 C 0.8475 0.22404 0.29924 0.0
C45 C 0.86361 0.19345 0.31577 0.0
C46 C 0.8533 0.20269 0.29268 0.0
C47 C 0.85191 0.23604 0.32923 0.0
C48 C 0.86245 0.22691 0.3523 0.0
C49 C 0.86836 0.20551 0.34575 0.0
C50 C 0.8365 0.23336 0.27476 0.0
O51 O 0.82343 0.28782 0.31129 0.0
O52 O 0.78643 0.29608 0.3256 0.0
O53 O 0.74588 0.25697 0.29404 0.0
O54 O 0.77806 0.2441 0.3103 0.0
C55 C 0.81001 0.29691 0.33161 0.0
O56 O 0.7667 0.32872 0.28338 0.0
O57 O 0.73283 0.29644 0.2777 0.0
O58 O 0.76769 0.27635 0.22819 0.0
O59 O 0.78078 0.24423 0.23664 0.0
O60 O 0.82511 0.28493 0.23896 0.0
O61 O 0.81014 0.3156 0.25742 0.0
C62 C 0.75335 0.24262 0.31036 0.0
O63 O 0.81133 0.2247 0.27226 0.0
O64 O 0.8453 0.25668 0.27323 0.0
C65 C 0.73104 0.33105 0.25595 0.0
C66 C 0.70664 0.35081 0.21454 0.0
C67 C 0.71665 0.36374 0.24288 0.0
C68 C 0.72867 0.35385 0.26351 0.0
C69 C 0.7221 0.31858 0.227 0.0
C70 C 0.7098 0.32832 0.20655 0.0
C71 C 0.74167 0.31997 0.27893 0.0
H72 H 0.86829 0.17707 0.31002 0.0
H73 H 0.84991 0.19321 0.26966 0.0
H74 H 0.84725 0.25246 0.33478 0.0
H75 H 0.86576 0.23642 0.37529 0.0
H76 H 0.71425 0.38105 0.24961 0.0
H77 H 0.73553 0.36373 0.28571 0.0
H78 H 0.72401 0.30104 0.22052 0.0
H79 H 0.70245 0.31814 0.18469 0.0
Tb80 Tb 0.7687 0.77531 0.29874 0.0
Eu81 Eu 0.79975 0.7704 0.23596 0.0
C82 C 0.74705 0.73055 0.24994 0.0
C83 C 0.81069 0.74371 0.29667 0.0
C84 C 0.73246 0.79398 0.36658 0.0
C85 C 0.6932 0.80331 0.38113 0.0
C86 C 0.70539 0.78828 0.36518 0.0
C87 C 0.74704 0.81483 0.38476 0.0
C88 C 0.73482 0.82985 0.40077 0.0
C89 C 0.70777 0.82428 0.39908 0.0
C90 C 0.74516 0.77772 0.35005 0.0
O91 O 0.79722 0.81078 0.29644 0.0
O92 O 0.82742 0.79998 0.26661 0.0
O93 O 0.7726 0.79262 0.22342 0.0
O94 O 0.75373 0.79872 0.27048 0.0
C95 C 0.8213 0.81478 0.28744 0.0
O96 O 0.83555 0.77798 0.20821 0.0
O97 O 0.79838 0.76015 0.18601 0.0
O98 O 0.77062 0.73367 0.23976 0.0
O99 O 0.74186 0.747 0.26887 0.0
O100 O 0.7947 0.75397 0.31216 0.0
O101 O 0.81431 0.74643 0.26627 0.0
C102 C 0.75669 0.80225 0.24007 0.0
O103 O 0.73398 0.76525 0.32488 0.0
O104 O 0.77029 0.78625 0.34657 0.0
C105 C 0.83379 0.74865 0.16667 0.0
C106 C 0.85429 0.71452 0.13611 0.0
C107 C 0.86313 0.73865 0.12835 0.0
C108 C 0.85291 0.75556 0.14349 0.0
C109 C 0.82484 0.72459 0.17448 0.0
C110 C 0.83492 0.70764 0.15922 0.0
C111 C 0.82357 0.76669 0.18283 0.0
H112 H 0.67236 0.79867 0.37899 0.0
H113 H 0.6936 0.77221 0.35167 0.0
H114 H 0.7679 0.81956 0.38673 0.0
H115 H 0.74654 0.84569 0.41474 0.0
H116 H 0.87789 0.74444 0.11048 0.0
H117 H 0.86002 0.77407 0.1372 0.0
H118 H 0.81019 0.71898 0.19253 0.0
H119 H 0.828 0.68927 0.16602 0.0
Tb120 Tb 0.29667 0.76951 0.27674 0.0
Eu121 Eu 0.25446 0.79694 0.26692 0.0
C122 C 0.30074 0.81754 0.31742 0.0
C123 C 0.242 0.75433 0.31269 0.0
C124 C 0.34278 0.74233 0.24849 0.0
C125 C 0.36475 0.71775 0.2189 0.0
C126 C 0.35552 0.7252 0.24747 0.0
C127 C 0.34004 0.75238 0.22099 0.0
C128 C 0.34897 0.74487 0.19262 0.0
C129 C 0.36093 0.72716 0.19121 0.0
C130 C 0.32944 0.74803 0.27673 0.0
O131 O 0.27879 0.75525 0.23138 0.0
O132 O 0.23943 0.75956 0.24265 0.0
O133 O 0.28492 0.81093 0.23035 0.0
O134 O 0.31736 0.79953 0.24959 0.0
C135 C 0.25377 0.74884 0.22636 0.0
O136 O 0.2256 0.80161 0.23657 0.0
O137 O 0.23408 0.82213 0.28158 0.0
O138 O 0.28665 0.82294 0.29695 0.0
O139 O 0.30184 0.79551 0.31756 0.0
O140 O 0.26167 0.74831 0.30053 0.0
O141 O 0.23853 0.77469 0.30761 0.0
C142 C 0.3092 0.8118 0.23083 0.0
O143 O 0.33494 0.77099 0.28493 0.0
O144 O 0.30446 0.73688 0.27668 0.0
C145 C 0.19084 0.80827 0.26523 0.0
C146 C 0.14136 0.8036 0.29012 0.0
C147 C 0.14979 0.81528 0.26253 0.0
C148 C 0.17464 0.81796 0.25048 0.0
C149 C 0.18096 0.79334 0.28954 0.0
C150 C 0.15643 0.79107 0.30199 0.0
C151 C 0.21859 0.8156 0.25761 0.0
H152 H 0.37383 0.70392 0.21822 0.0
H153 H 0.35752 0.71706 0.2684 0.0
H154 H 0.33006 0.76544 0.22116 0.0
H155 H 0.34602 0.75252 0.17166 0.0
H156 H 0.13826 0.82432 0.25201 0.0
H157 H 0.18179 0.82895 0.23105 0.0
H158 H 0.19304 0.78514 0.30064 0.0
H159 H 0.15077 0.78169 0.32299 0.0
Tb160 Tb 0.31568 0.75284 0.75797 0.0
Eu161 Eu 0.27445 0.7807 0.77703 0.0
C162 C 0.26211 0.73627 0.72132 0.0
C163 C 0.31569 0.7983 0.72232 0.0
C164 C 0.36705 0.7299 0.77347 0.0
C165 C 0.37989 0.70238 0.80256 0.0
C166 C 0.36839 0.70686 0.7764 0.0
C167 C 0.37855 0.74872 0.79634 0.0
C168 C 0.38998 0.74424 0.82251 0.0
C169 C 0.39011 0.72087 0.82632 0.0
C170 C 0.35019 0.73325 0.74968 0.0
O171 O 0.32963 0.77314 0.80317 0.0
O172 O 0.31203 0.80311 0.80175 0.0
O173 O 0.27045 0.75528 0.81455 0.0
O174 O 0.28586 0.72833 0.78586 0.0
C175 C 0.32961 0.79508 0.81247 0.0
O176 O 0.26511 0.81399 0.7857 0.0
O177 O 0.23575 0.77959 0.79307 0.0
O178 O 0.25313 0.74917 0.74255 0.0
O179 O 0.28702 0.73832 0.72027 0.0
O180 O 0.32882 0.78542 0.73254 0.0
O181 O 0.29191 0.79573 0.73197 0.0
C182 C 0.27221 0.73359 0.80944 0.0
O183 O 0.32564 0.72113 0.75286 0.0
O184 O 0.35375 0.75545 0.74393 0.0
C185 C 0.2222 0.80956 0.77324 0.0
C186 C 0.18945 0.82477 0.73715 0.0
C187 C 0.20324 0.83981 0.76244 0.0
C188 C 0.21938 0.83221 0.78035 0.0
C189 C 0.20847 0.79441 0.7481 0.0
C190 C 0.19211 0.8019 0.73032 0.0
C191 C 0.24062 0.80264 0.79111 0.0
H192 H 0.38029 0.68429 0.80449 0.0
H193 H 0.35954 0.6921 0.75914 0.0
H194 H 0.37771 0.76669 0.79478 0.0
H195 H 0.39766 0.75883 0.84038 0.0
H196 H 0.20211 0.85773 0.76798 0.0
H197 H 0.23007 0.84424 0.79943 0.0
H198 H 0.21057 0.7769 0.74198 0.0
H199 H 0.1816 0.78979 0.71123 0.0
Tb200 Tb 0.28285 0.28216 0.73548 0.0
Eu201 Eu 0.29004 0.25486 0.79907 0.0
C202 C 0.33058 0.30348 0.77971 0.0
C203 C 0.31282 0.24312 0.73013 0.0
C204 C 0.25535 0.31589 0.68164 0.0
C205 C 0.25003 0.35013 0.65751 0.0
C206 C 0.26603 0.33799 0.6681 0.0
C207 C 0.22808 0.3065 0.68484 0.0
C208 C 0.21205 0.31858 0.67416 0.0
C209 C 0.22267 0.3405 0.65988 0.0
C210 C 0.27261 0.30196 0.68943 0.0
O211 O 0.25587 0.24565 0.73399 0.0
O212 O 0.24796 0.23895 0.78557 0.0
O213 O 0.2736 0.28475 0.81711 0.0
O214 O 0.25711 0.29132 0.77132 0.0
C215 C 0.24034 0.23553 0.75649 0.0
O216 O 0.28417 0.2224 0.82364 0.0
O217 O 0.30761 0.25724 0.8448 0.0
O218 O 0.3281 0.28135 0.78534 0.0
O219 O 0.31228 0.30816 0.76525 0.0
O220 O 0.31131 0.26342 0.72015 0.0
O221 O 0.30168 0.23502 0.75658 0.0
C222 C 0.2594 0.29456 0.80203 0.0
O223 O 0.29199 0.31238 0.70829 0.0
O224 O 0.26143 0.27946 0.69492 0.0
C225 C 0.31809 0.2225 0.85806 0.0
C226 C 0.35009 0.19983 0.88542 0.0
C227 C 0.32888 0.18629 0.86636 0.0
C228 C 0.31313 0.19741 0.853 0.0
C229 C 0.33951 0.23614 0.87668 0.0
C230 C 0.35531 0.22501 0.89002 0.0
C231 C 0.29958 0.23386 0.84662 0.0
H232 H 0.25924 0.36712 0.64735 0.0
H233 H 0.28689 0.34573 0.66511 0.0
H234 H 0.219 0.28945 0.69496 0.0
H235 H 0.19121 0.31026 0.67629 0.0
H236 H 0.32433 0.16696 0.86175 0.0
H237 H 0.29671 0.18619 0.83912 0.0
H238 H 0.34377 0.25542 0.88159 0.0
H239 H 0.37117 0.23613 0.90478 0.0
Tb240 Tb 0.80619 0.26517 0.78022 0.0
Eu241 Eu 0.76123 0.28886 0.77942 0.0
C242 C 0.80159 0.30185 0.83309 0.0
C243 C 0.7532 0.23907 0.81619 0.0
C244 C 0.86923 0.25464 0.76594 0.0
C245 C 0.91354 0.25449 0.76316 0.0
C246 C 0.89237 0.25678 0.78074 0.0
C247 C 0.86811 0.25242 0.73332 0.0
C248 C 0.88911 0.24983 0.71575 0.0
C249 C 0.91159 0.24966 0.7306 0.0
C250 C 0.84609 0.25337 0.78482 0.0
O251 O 0.78569 0.24679 0.73787 0.0
O252 O 0.75422 0.2649 0.73527 0.0
O253 O 0.78919 0.31031 0.74356 0.0
O254 O 0.82357 0.29763 0.75288 0.0
C255 C 0.7657 0.24948 0.72436 0.0
O256 O 0.71976 0.28393 0.78189 0.0
O257 O 0.74787 0.32 0.78476 0.0
O258 O 0.79163 0.3115 0.81309 0.0
O259 O 0.80114 0.27967 0.82717 0.0
O260 O 0.77473 0.23715 0.80291 0.0
O261 O 0.74663 0.25843 0.81295 0.0
C262 C 0.81385 0.31219 0.73936 0.0
O263 O 0.84437 0.27405 0.79605 0.0
O264 O 0.82404 0.23867 0.77369 0.0
C265 C 0.71546 0.311 0.82272 0.0
C266 C 0.70199 0.32137 0.88442 0.0
C267 C 0.68626 0.32224 0.85965 0.0
C268 C 0.69305 0.31717 0.82882 0.0
C269 C 0.73039 0.30899 0.84759 0.0
C270 C 0.7239 0.31443 0.87822 0.0
C271 C 0.72413 0.30663 0.79091 0.0
H272 H 0.93078 0.25492 0.7752 0.0
H273 H 0.89364 0.25904 0.80595 0.0
H274 H 0.8505 0.25126 0.72151 0.0
H275 H 0.88678 0.24598 0.69076 0.0
H276 H 0.66942 0.32793 0.86409 0.0
H277 H 0.68125 0.31857 0.80988 0.0
H278 H 0.7475 0.30378 0.84327 0.0
H279 H 0.73628 0.31377 0.89697 0.0
Tb280 Tb 0.76333 0.76596 0.74484 0.0
Eu281 Eu 0.80513 0.7693 0.80098 0.0
C282 C 0.80631 0.73683 0.73287 0.0
C283 C 0.74957 0.72673 0.79567 0.0
C284 C 0.71876 0.78254 0.69208 0.0
C285 C 0.69277 0.79197 0.65328 0.0
C286 C 0.70542 0.77683 0.66366 0.0
C287 C 0.71932 0.8039 0.70992 0.0
C288 C 0.70665 0.81911 0.69955 0.0
C289 C 0.69306 0.81337 0.67105 0.0
C290 C 0.7314 0.76575 0.70276 0.0
O291 O 0.75508 0.7928 0.78072 0.0
O292 O 0.77895 0.79131 0.82311 0.0
O293 O 0.82407 0.80377 0.77727 0.0
O294 O 0.7969 0.79725 0.73527 0.0
C295 C 0.76126 0.79894 0.8107 0.0
O296 O 0.81218 0.76314 0.84899 0.0
O297 O 0.84456 0.77599 0.81743 0.0
O298 O 0.81774 0.74772 0.75941 0.0
O299 O 0.78403 0.73979 0.72499 0.0
O300 O 0.74148 0.73833 0.77575 0.0
O301 O 0.77409 0.73306 0.80323 0.0
C302 C 0.81822 0.80981 0.75051 0.0
O303 O 0.75635 0.77137 0.69851 0.0
O304 O 0.72471 0.7579 0.73014 0.0
C305 C 0.8489 0.75053 0.85569 0.0
C306 C 0.87338 0.7191 0.8778 0.0
C307 C 0.86709 0.73648 0.89825 0.0
C308 C 0.85507 0.75193 0.88733 0.0
C309 C 0.85477 0.73304 0.83516 0.0
C310 C 0.86684 0.71756 0.84606 0.0
C311 C 0.83709 0.76784 0.84462 0.0
H312 H 0.68301 0.78699 0.63103 0.0
H313 H 0.70472 0.76052 0.64939 0.0
H314 H 0.72939 0.80875 0.73198 0.0
H315 H 0.70718 0.8352 0.71418 0.0
H316 H 0.87126 0.73808 0.92289 0.0
H317 H 0.85071 0.76515 0.90371 0.0
H318 H 0.85026 0.73149 0.81061 0.0
H319 H 0.87152 0.7047 0.82939 0.0
Co320 Co 0.05812 0.96836 0.52445 0.0
Co321 Co 0.06285 0.99706 0.57628 0.0
Co322 Co 0.03784 0.01678 0.52827 0.0
O323 O 0.06538 1.00272 0.53408 0.0
H324 H 0.08257 0.01282 0.52818 0.0
O325 O 1.00937 0.02939 0.52223 0.0
Co326 Co 1.01071 0.06037 0.5391 0.0
Co327 Co 1.0106 0.03979 0.48303 0.0
H328 H 0.99258 0.01739 0.52539 0.0
O329 O 0.08928 0.99178 0.59592 0.0
O330 O 0.05577 0.964 0.56997 0.0
O331 O 0.03425 1.00123 0.60118 0.0
O332 O 1.01197 0.99451 0.55769 0.0
O333 O 0.05161 0.04088 0.56394 0.0
O334 O 1.0085 0.08802 0.55543 0.0
O335 O 0.976 0.05337 0.54152 0.0
O336 O 0.04751 0.07122 0.54065 0.0
O337 O 0.06385 0.03976 0.49932 0.0
O338 O 0.04119 0.04213 0.45853 0.0
O339 O 1.01185 0.07094 0.49638 0.0
O340 O 0.98194 0.04348 0.46541 0.0
C341 C 0.07937 0.946 0.51709 0.0
C342 C 1.01505 0.97049 0.49678 0.0
C343 C 1.01272 0.99305 0.58719 0.0
C344 C 0.07612 0.96936 0.58773 0.0
C345 C 0.98391 0.07542 0.55432 0.0
C346 C 0.05727 0.06346 0.56208 0.0
C347 C 0.06279 0.04612 0.47164 0.0
C348 C 0.9918 0.06534 0.47827 0.0
O349 O 0.05422 0.93787 0.51615 0.0
O350 O 0.09167 0.96903 0.5237 0.0
O351 O 0.02427 0.99286 0.49279 0.0
O352 O 0.02177 0.96244 0.52045 0.0
Co353 Co 0.5865 0.96281 0.02822 0.0
Co354 Co 0.58684 0.97664 0.08526 0.0
Co355 Co 0.55321 0.01254 0.05372 0.0
O356 O 0.58509 0.99638 0.05152 0.0
H357 H 0.60169 0.00891 0.04942 0.0
O358 O 0.52011 0.02757 0.05821 0.0
Co359 Co 0.51073 0.05873 0.08528 0.0
Co360 Co 0.52523 0.05103 0.02947 0.0
H361 H 0.50401 0.01461 0.05352 0.0
O362 O 0.617 0.97426 0.10522 0.0
O363 O 0.5933 0.94701 0.06912 0.0
O364 O 0.55508 0.97024 0.10932 0.0
O365 O 0.53517 0.99404 0.09039 0.0
O366 O 0.57308 0.04207 0.08158 0.0
O367 O 0.50402 0.08779 0.11014 0.0
O368 O 0.47186 0.05897 0.09086 0.0
O369 O 0.54825 0.06707 0.08805 0.0
O370 O 0.57313 0.03231 0.01616 0.0
O371 O 0.5594 0.0638 0.01205 0.0
O372 O 0.51316 0.07559 0.04662 0.0
O373 O 0.49793 0.04916 0.00478 0.0
C374 C 0.61415 0.94534 1.00222 0.0
C375 C 0.53096 0.96017 0.02178 0.0
C376 C 0.53626 0.97849 0.10903 0.0
C377 C 0.61172 0.95278 0.091 0.0
C378 C 0.47898 0.08024 0.10694 0.0
C379 C 0.57013 0.06302 0.08789 0.0
C380 C 0.57609 0.05336 0.00612 0.0
C381 C 0.49799 0.06844 0.02211 0.0
O382 O 0.58922 0.93469 0.00508 0.0
O383 O 0.62285 0.96757 0.01572 0.0
O384 O 0.53268 0.98291 0.02491 0.0
O385 O 0.54806 0.95204 0.03266 0.0
Co386 Co 0.08504 0.45822 0.977 0.0
Co387 Co 0.0865 0.47337 0.03621 0.0
Co388 Co 0.05732 0.50364 1.00182 0.0
O389 O 0.08651 0.48929 1.00063 0.0
H390 H 0.1033 0.50156 0.99819 0.0
O391 O 0.02774 0.51691 1.00141 0.0
Co392 Co 0.02845 0.54677 0.02306 0.0
Co393 Co 0.02583 0.53128 0.96543 0.0
H394 H 1.01131 0.50442 0.00449 0.0
O395 O 0.11684 0.47003 0.04957 0.0
O396 O 0.08723 0.44459 0.01643 0.0
O397 O 0.05581 0.46468 0.06149 0.0
O398 O 0.03334 0.48083 0.0334 0.0
O399 O 0.07549 0.52861 0.03645 0.0
O400 O 0.02627 0.57319 0.04413 0.0
O401 O 0.99394 0.53874 0.03007 0.0
O402 O 0.06514 0.55865 0.01917 0.0
O403 O 0.08039 0.52653 0.97085 0.0
O404 O 0.05602 0.53833 0.93951 0.0
O405 O 0.02403 0.56076 0.98322 0.0
O406 O 0.99494 0.53346 0.95137 0.0
C407 C 0.11167 0.44168 0.95622 0.0
C408 C 0.03271 0.45712 0.96947 0.0
C409 C 0.03462 0.46758 0.05525 0.0
C410 C 0.10829 0.44966 0.03262 0.0
C411 C 1.00159 0.56082 0.04307 0.0
C412 C 0.07945 0.55133 0.03574 0.0
C413 C 0.07795 0.53774 0.94741 0.0
C414 C 1.00302 0.55473 0.9663 0.0
O415 O 0.08664 0.43087 0.95574 0.0
O416 O 0.12049 0.46378 0.96955 0.0
O417 O 0.03974 0.47982 0.96727 0.0
O418 O 0.04799 0.44739 0.98006 0.0
Co419 Co 0.55349 0.48363 0.01409 0.0
Co420 Co 0.55059 0.50481 0.06967 0.0
Co421 Co 0.52414 0.52589 0.02293 0.0
O422 O 0.55343 0.51456 0.02921 0.0
H423 H 0.57001 0.52699 0.02644 0.0
O424 O 0.49513 0.53801 0.01725 0.0
Co425 Co 0.49724 0.57019 0.0323 0.0
Co426 Co 0.49806 0.54752 0.97652 0.0
H427 H 0.47831 0.52614 0.02073 0.0
O428 O 0.57822 0.50022 0.08918 0.0
O429 O 0.54846 0.47331 0.05752 0.0
O430 O 0.51898 0.50264 0.09291 0.0
O431 O 0.49838 0.50073 0.04886 0.0
O432 O 0.53556 0.54777 0.06084 0.0
O433 O 0.49545 0.59871 0.04544 0.0
O434 O 0.46304 0.56535 0.02783 0.0
O435 O 0.53352 0.58002 0.04041 0.0
O436 O 0.54986 0.55097 0.99637 0.0
O437 O 0.52806 0.54626 0.95266 0.0
O438 O 0.50452 0.57987 0.98924 0.0
O439 O 0.47309 0.55658 0.95699 0.0
C440 C 0.58122 0.46816 0.00691 0.0
C441 C 0.50744 0.48056 0.98633 0.0
C442 C 0.49812 0.49617 0.07749 0.0
C443 C 0.56759 0.47831 0.07692 0.0
C444 C 0.47105 0.58796 0.03883 0.0
C445 C 0.5431 0.57046 0.05996 0.0
C446 C 0.54933 0.55415 0.96726 0.0
C447 C 0.48617 0.57775 0.96981 0.0
O448 O 0.55704 0.45595 1.0006 0.0
O449 O 0.58796 0.49086 0.01715 0.0
O450 O 0.51266 0.50321 0.98533 0.0
O451 O 0.51714 0.47237 0.0074 0.0
Co452 Co 0.06323 0.49958 0.5054 0.0
Co453 Co 0.05452 0.499 0.44961 0.0
Co454 Co 1.0153 0.53166 0.49445 0.0
O455 O 0.03062 0.50135 0.48496 0.0
H456 H 1.01663 0.48615 0.48578 0.0
O457 O 0.99952 0.5623 0.50106 0.0
Co458 Co 0.96615 0.56687 0.47898 0.0
Co459 Co 0.97409 0.56042 0.5341 0.0
H460 H 1.01355 0.57753 0.50356 0.0
O461 O 0.05939 0.47006 0.42457 0.0
O462 O 0.08434 0.49006 0.46391 0.0
O463 O 0.06458 0.53136 0.43388 0.0
O464 O 0.03879 0.55019 0.46065 0.0
O465 O 0.98597 0.51697 0.4646 0.0
O466 O 0.93817 0.57159 0.45664 0.0
O467 O 0.97255 0.60178 0.47214 0.0
O468 O 0.95298 0.53155 0.47867 0.0
O469 O 0.99144 0.51129 0.52938 0.0
O470 O 0.96253 0.52826 0.55046 0.0
O471 O 0.94667 0.57204 0.52138 0.0
O472 O 0.9737 0.58768 0.56153 0.0
C473 C 0.0752 0.47424 0.52638 0.0
C474 C 0.07008 0.54999 0.52182 0.0
C475 C 0.05682 0.54963 0.44045 0.0
C476 C 0.08021 0.47263 0.44015 0.0
C477 C 0.95006 0.59479 0.45744 0.0
C478 C 0.96187 0.51403 0.47064 0.0
C479 C 0.97145 0.51064 0.54749 0.0
C480 C 0.95299 0.58714 0.54707 0.0
O481 O 0.08949 0.49684 0.52666 0.0
O482 O 0.05244 0.46719 0.51285 0.0
O483 O 0.04564 0.54803 0.52451 0.0
O484 O 0.07792 0.53467 0.50432 0.0
Co485 Co 0.5619 1.00852 0.55119 0.0
Co486 Co 0.54881 0.01111 0.4946 0.0
Co487 Co 0.51944 0.04041 0.54069 0.0
O488 O 0.53159 0.01161 0.53217 0.0
H489 H 0.51714 0.99669 0.53259 0.0
O490 O 0.50611 0.06833 0.55089 0.0
Co491 Co 0.47821 0.07188 0.52815 0.0
Co492 Co 0.48346 0.06729 0.58449 0.0
H493 H 0.52052 0.08332 0.55308 0.0
O494 O 0.54769 0.98172 0.47417 0.0
O495 O 0.57695 1.00502 0.50945 0.0
O496 O 0.56255 0.04103 0.47622 0.0
O497 O 0.54549 0.06287 0.51008 0.0
O498 O 0.49349 0.02593 0.5066 0.0
O499 O 0.45513 0.07839 0.50599 0.0
O500 O 0.49198 0.10397 0.52799 0.0
O501 O 0.46032 0.03738 0.52424 0.0
O502 O 0.49406 0.01835 0.5706 0.0
O503 O 0.46956 0.03594 0.59996 0.0
O504 O 0.45723 0.0762 0.56759 0.0
O505 O 0.48285 0.09528 0.60837 0.0
C506 C 0.57387 0.98065 0.56545 0.0
C507 C 0.57022 0.05822 0.56793 0.0
C508 C 0.56067 0.0612 0.48668 0.0
C509 C 0.56866 0.98586 0.49015 0.0
C510 C 0.47123 0.10025 0.51159 0.0
C511 C 0.46908 0.02214 0.50875 0.0
C512 C 0.47602 0.01752 0.59109 0.0
C513 C 0.46317 0.09306 0.59092 0.0
O514 O 0.58859 1.00319 0.56858 0.0
O515 O 0.5508 0.97538 0.55322 0.0
O516 O 0.54618 0.0547 0.57399 0.0
O517 O 0.57771 0.04229 0.55237 0.0
H518 H 0.2041 0.19871 0.28822 0.0
H519 H 0.17585 0.16649 0.31795 0.0
H520 H 0.22623 0.19311 0.39733 0.0
H521 H 0.25503 0.22523 0.36734 0.0
H522 H 0.21026 0.14562 0.39354 0.0
H523 H 0.16704 0.20351 0.39219 0.0
H524 H 0.14765 0.23083 0.37028 0.0
H525 H 0.09327 0.17043 0.31882 0.0
H526 H 0.11265 0.14277 0.33995 0.0
H527 H 0.10967 0.07554 0.49735 0.0
H528 H 0.1442 0.10696 0.47187 0.0
H529 H 0.10325 0.0848 0.38477 0.0
H530 H 0.06898 0.05376 0.40987 0.0
H531 H 0.11563 0.13222 0.39709 0.0
H532 H 0.16132 0.07466 0.39836 0.0
H533 H 0.18018 0.04827 0.42338 0.0
H534 H 0.22919 0.10958 0.47899 0.0
H535 H 0.21035 0.1363 0.45458 0.0
C536 C 0.20933 0.19777 0.31197 0.0
C537 C 0.23192 0.21485 0.32528 0.0
C538 C 0.19297 0.17929 0.32911 0.0
C539 C 0.19843 0.17742 0.3603 0.0
C540 C 0.22135 0.19405 0.37343 0.0
C541 C 0.23785 0.21252 0.3562 0.0
C542 C 0.18007 0.1583 0.37904 0.0
C543 C 0.18962 0.14295 0.39461 0.0
C544 C 0.15297 0.15446 0.38057 0.0
C545 C 0.14151 0.17109 0.36741 0.0
C546 C 0.15113 0.19607 0.37594 0.0
C547 C 0.14011 0.21162 0.36369 0.0
C548 C 0.1193 0.20238 0.34309 0.0
C549 C 0.10944 0.17757 0.33471 0.0
C550 C 0.12044 0.16195 0.34682 0.0
C551 C 0.10838 0.07696 0.4726 0.0
C552 C 0.08642 0.06201 0.45577 0.0
C553 C 0.12813 0.09505 0.45802 0.0
C554 C 0.12642 0.0985 0.42626 0.0
C555 C 0.10508 0.08282 0.40927 0.0
C556 C 0.08547 0.06489 0.42372 0.0
C557 C 0.14569 0.11914 0.41079 0.0
C558 C 0.13629 0.1349 0.39599 0.0
C559 C 0.17285 0.12346 0.41031 0.0
C560 C 0.18423 0.10743 0.42489 0.0
C561 C 0.17596 0.08248 0.41611 0.0
C562 C 0.18668 0.06747 0.43014 0.0
C563 C 0.20582 0.07723 0.45283 0.0
C564 C 0.21433 0.10204 0.46145 0.0
C565 C 0.20366 0.11713 0.44751 0.0
H566 H 0.21409 0.06558 0.46366 0.0
H567 H 0.11076 0.21444 0.33369 0.0
H568 H 0.85415 0.15904 0.36114 0.0
H569 H 0.87637 0.14224 0.3964 0.0
H570 H 0.93103 0.21339 0.41976 0.0
H571 H 0.90898 0.23031 0.38402 0.0
H572 H 0.95476 0.18055 0.40132 0.0
H573 H 0.88911 0.18577 0.47336 0.0
H574 H 0.84468 0.18126 0.49219 0.0
H575 H 0.82368 0.10408 0.47827 0.0
H576 H 0.86777 0.10807 0.45861 0.0
H577 H 1.01382 0.11441 0.48749 0.0
H578 H 0.99432 0.14491 0.47727 0.0
H579 H 0.92461 0.0884 0.44495 0.0
H580 H 0.94369 0.05795 0.45571 0.0
H581 H 0.91278 0.12304 0.48046 0.0
H582 H 0.97273 0.11916 0.39437 0.0
H583 H 1.01591 0.12254 0.37177 0.0
H584 H 0.04607 0.1962 0.41022 0.0
H585 H 1.0031 0.19314 0.43336 0.0
C586 C 0.87074 0.17112 0.37404 0.0
C587 C 0.87999 0.19591 0.36974 0.0
C588 C 0.88325 0.16156 0.3944 0.0
C589 C 0.9052 0.17663 0.41087 0.0
C590 C 0.91402 0.20153 0.40738 0.0
C591 C 0.90138 0.21115 0.38711 0.0
C592 C 0.92026 0.16575 0.42898 0.0
C593 C 0.94583 0.16847 0.41926 0.0
C594 C 0.90841 0.14981 0.45209 0.0
C595 C 0.88183 0.14725 0.4643 0.0
C596 C 0.87497 0.16782 0.47399 0.0
C597 C 0.84981 0.16536 0.48481 0.0
C598 C 0.83135 0.1424 0.48636 0.0
C599 C 0.838 0.12186 0.47704 0.0
C600 C 0.8631 0.12421 0.46608 0.0
C601 C 0.99431 0.10854 0.4783 0.0
C602 C 0.98027 0.08383 0.47226 0.0
C603 C 0.98322 0.12597 0.47248 0.0
C604 C 0.95806 0.1189 0.46025 0.0
C605 C 0.94398 0.09423 0.45459 0.0
C606 C 0.955 0.07685 0.46044 0.0
C607 C 0.94665 0.13693 0.45149 0.0
C608 C 0.92187 0.13564 0.46314 0.0
C609 C 0.95905 0.154 0.42986 0.0
C610 C 0.98483 0.15583 0.41592 0.0
C611 C 0.98863 0.13601 0.3982 0.0
C612 C 1.01305 0.13788 0.38526 0.0
C613 C 0.03375 0.15955 0.38965 0.0
C614 C 0.03004 0.17941 0.40691 0.0
C615 C 1.00567 0.17762 0.41993 0.0
H616 H 0.05264 0.16097 0.3796 0.0
H617 H 0.81191 0.14052 0.49485 0.0
H618 H 0.81618 0.84235 0.33997 0.0
H619 H 0.85073 0.86966 0.37272 0.0
H620 H 0.90809 0.85869 0.30678 0.0
H621 H 0.87346 0.83054 0.27417 0.0
H622 H 0.92157 0.85504 0.36347 0.0
H623 H 0.89431 0.91252 0.31499 0.0
H624 H 0.8631 0.93085 0.29772 0.0
H625 H 0.84062 0.94266 0.39284 0.0
H626 H 0.87146 0.92412 0.41066 0.0
H627 H 1.00323 0.98145 0.44056 0.0
H628 H 0.97241 0.95557 0.40245 0.0
H629 H 0.95288 0.89733 0.46298 0.0
H630 H 0.98449 0.92314 0.50123 0.0
H631 H 0.92256 0.93644 0.40592 0.0
H632 H 0.93391 0.84297 0.41728 0.0
H633 H 0.96764 0.82668 0.43211 0.0
H634 H 0.02726 0.89014 0.40401 0.0
H635 H 0.99395 0.90666 0.38852 0.0
C636 C 0.8361 0.84604 0.33205 0.0
C637 C 0.84206 0.8343 0.30437 0.0
C638 C 0.85587 0.86169 0.35087 0.0
C639 C 0.88201 0.86636 0.34213 0.0
C640 C 0.88804 0.85528 0.31401 0.0
C641 C 0.86823 0.83936 0.29529 0.0
C642 C 0.90296 0.88207 0.36302 0.0
C643 C 0.92189 0.8729 0.37264 0.0
C644 C 0.90352 0.90545 0.37476 0.0
C645 C 0.88506 0.91676 0.36413 0.0
C646 C 0.88259 0.91889 0.33221 0.0
C647 C 0.86499 0.92934 0.32233 0.0
C648 C 0.84985 0.93787 0.34417 0.0
C649 C 0.85234 0.93603 0.37595 0.0
C650 C 0.86991 0.92558 0.38596 0.0
C651 C 0.99247 0.96312 0.44585 0.0
C652 C 0.99626 0.95435 0.47398 0.0
C653 C 0.97481 0.94835 0.424 0.0
C654 C 0.96042 0.9245 0.42976 0.0
C655 C 0.96407 0.9156 0.45785 0.0
C656 C 0.98202 0.93037 0.47973 0.0
C657 C 0.94112 0.90941 0.40654 0.0
C658 C 0.92237 0.91864 0.39663 0.0
C659 C 0.94118 0.88638 0.39399 0.0
C660 C 0.96139 0.87622 0.4022 0.0
C661 C 0.95421 0.85341 0.41412 0.0
C662 C 0.97326 0.84415 0.42267 0.0
C663 C 0.99955 0.85749 0.41928 0.0
C664 C 1.00688 0.87994 0.40685 0.0
C665 C 0.98792 0.88926 0.39821 0.0
H666 H 1.01425 0.85046 0.42628 0.0
H667 H 0.83623 0.94594 0.33646 0.0
H668 H 0.10704 0.77582 0.33214 0.0
H669 H 0.09153 0.79278 0.37989 0.0
H670 H 0.11579 0.86267 0.34325 0.0
H671 H 0.13218 0.84662 0.2966 0.0
H672 H 0.14403 0.85183 0.4002 0.0
H673 H 0.06089 0.84937 0.35549 0.0
H674 H 0.01775 0.82789 0.33257 0.0
H675 H 0.99634 0.78472 0.41088 0.0
H676 H 0.03952 0.80586 0.43412 0.0
H677 H 0.12204 0.95193 0.47986 0.0
H678 H 0.13206 0.91879 0.45006 0.0
H679 H 0.07641 0.86746 0.50537 0.0
H680 H 0.06546 0.90035 0.53383 0.0
H681 H 0.06252 0.85879 0.44791 0.0
H682 H 0.14089 0.86973 0.49948 0.0
H683 H 0.1834 0.8915 0.52365 0.0
H684 H 0.21466 0.91684 0.43527 0.0
H685 H 0.17225 0.89553 0.4106 0.0
C686 C 0.10834 0.79464 0.33381 0.0
C687 C 0.12184 0.80998 0.31092 0.0
C688 C 0.09933 0.80421 0.36103 0.0
C689 C 0.10317 0.829 0.36508 0.0
C690 C 0.11293 0.84349 0.34042 0.0
C691 C 0.12209 0.83408 0.31348 0.0
C692 C 0.10241 0.84101 0.39631 0.0
C693 C 0.12627 0.85339 0.41091 0.0
C694 C 0.07914 0.84196 0.41055 0.0
C695 C 0.05351 0.8289 0.39626 0.0
C696 C 0.0471 0.83508 0.36759 0.0
C697 C 0.02262 0.82304 0.35462 0.0
C698 C 1.00438 0.80485 0.37017 0.0
C699 C 1.01055 0.79872 0.39879 0.0
C700 C 0.03501 0.81072 0.41187 0.0
C701 C 0.11299 0.93369 0.48665 0.0
C702 C 0.09295 0.92861 0.50894 0.0
C703 C 0.11866 0.9147 0.46961 0.0
C704 C 0.10472 0.89058 0.4753 0.0
C705 C 0.08721 0.88588 0.50044 0.0
C706 C 0.08118 0.90474 0.51693 0.0
C707 C 0.10443 0.8708 0.45146 0.0
C708 C 0.08038 0.8568 0.43812 0.0
C709 C 0.12761 0.86822 0.43853 0.0
C710 C 0.15329 0.88104 0.45318 0.0
C711 C 0.15677 0.88006 0.4852 0.0
C712 C 0.18087 0.89231 0.499 0.0
C713 C 0.20171 0.90556 0.48101 0.0
C714 C 0.1985 0.90655 0.44917 0.0
C715 C 0.17444 0.89434 0.43525 0.0
H716 H 0.22035 0.91503 0.49174 0.0
H717 H 0.98544 0.79559 0.3601 0.0
H718 H 0.18351 0.81771 0.67356 0.0
H719 H 0.15904 0.83457 0.6413 0.0
H720 H 0.1352 0.86928 0.72384 0.0
H721 H 0.15812 0.85126 0.75629 0.0
H722 H 0.09699 0.85435 0.68513 0.0
H723 H 0.18951 0.89779 0.6774 0.0
H724 H 0.23533 0.90271 0.66456 0.0
H725 H 0.21495 0.87808 0.56909 0.0
H726 H 0.16893 0.87265 0.5815 0.0
H727 H 0.12179 0.97506 0.61573 0.0
H728 H 0.13664 0.94397 0.63372 0.0
H729 H 0.06635 0.88904 0.59984 0.0
H730 H 0.05078 0.92042 0.58273 0.0
H731 H 0.14798 0.90748 0.6057 0.0
H732 H 0.05149 0.84305 0.64873 0.0
H733 H 1.00794 0.84341 0.66597 0.0
H734 H 0.04033 0.91821 0.69901 0.0
H735 H 0.08406 0.91818 0.6823 0.0
C736 C 0.17254 0.82844 0.68492 0.0
C737 C 0.17304 0.83337 0.71754 0.0
C738 C 0.15877 0.83827 0.66638 0.0
C739 C 0.14566 0.85353 0.68009 0.0
C740 C 0.14523 0.85761 0.7127 0.0
C741 C 0.15867 0.84756 0.73122 0.0
C742 C 0.13374 0.86663 0.66081 0.0
C743 C 0.10806 0.86576 0.66751 0.0
C744 C 0.14815 0.88157 0.63781 0.0
C745 C 0.17574 0.88443 0.63049 0.0
C746 C 0.19476 0.89317 0.65375 0.0
C747 C 0.22077 0.89609 0.64654 0.0
C748 C 0.22803 0.8906 0.61606 0.0
C749 C 0.20929 0.88222 0.59272 0.0
C750 C 0.18325 0.87919 0.59984 0.0
C751 C 0.10939 0.95639 0.61213 0.0
C752 C 0.08506 0.95018 0.59787 0.0
C753 C 0.11804 0.9386 0.62219 0.0
C754 C 0.1026 0.91419 0.61818 0.0
C755 C 0.07846 0.9078 0.60343 0.0
C756 C 0.06965 0.92571 0.59358 0.0
C757 C 0.11169 0.8959 0.63096 0.0
C758 C 0.13672 0.89561 0.62279 0.0
C759 C 0.09703 0.88052 0.6533 0.0
C760 C 0.07093 0.88067 0.66391 0.0
C761 C 0.04929 0.85954 0.65975 0.0
C762 C 0.02459 0.85969 0.66942 0.0
C763 C 0.02136 0.88085 0.68346 0.0
C764 C 0.04284 0.90186 0.68802 0.0
C765 C 0.06758 0.90179 0.67844 0.0
H766 H 1.00222 0.88094 0.69088 0.0
H767 H 0.24819 0.89293 0.61052 0.0
H768 H 0.21199 0.19334 0.78192 0.0
H769 H 0.17314 0.16235 0.75897 0.0
H770 H 0.17265 0.20918 0.6875 0.0
H771 H 0.21095 0.23986 0.7102 0.0
H772 H 0.12388 0.18327 0.70348 0.0
H773 H 0.20521 0.1702 0.67543 0.0
H774 H 0.2463 0.1638 0.68664 0.0
H775 H 0.20394 0.09954 0.73107 0.0
H776 H 0.16259 0.1058 0.72048 0.0
H777 H 0.07864 0.11265 0.56256 0.0
H778 H 0.10365 0.14064 0.60435 0.0
H779 H 0.09516 0.08086 0.65981 0.0
H780 H 0.07099 0.05275 0.61779 0.0
H781 H 0.14316 0.10989 0.66094 0.0
H782 H 0.0596 0.12133 0.6739 0.0
H783 H 0.02169 0.13021 0.65562 0.0
H784 H 0.07105 0.20061 0.63344 0.0
H785 H 0.1093 0.19202 0.65089 0.0
C786 C 0.20306 0.19714 0.76185 0.0
C787 C 0.21458 0.21869 0.74743 0.0
C788 C 0.181 0.17949 0.74874 0.0
C789 C 0.17028 0.1834 0.72131 0.0
C790 C 0.18059 0.20577 0.70862 0.0
C791 C 0.2026 0.2232 0.72146 0.0
C792 C 0.15075 0.16354 0.70313 0.0
C793 C 0.12789 0.16709 0.69431 0.0
C794 C 0.15609 0.14249 0.69128 0.0
C795 C 0.18087 0.13865 0.69758 0.0
C796 C 0.20469 0.15482 0.68782 0.0
C797 C 0.22801 0.15121 0.69402 0.0
C798 C 0.22774 0.13132 0.70966 0.0
C799 C 0.20412 0.11497 0.71904 0.0
C800 C 0.18074 0.11855 0.71296 0.0
C801 C 0.08212 0.10549 0.58366 0.0
C802 C 0.07287 0.08051 0.58686 0.0
C803 C 0.09619 0.12151 0.60765 0.0
C804 C 0.10079 0.11288 0.63551 0.0
C805 C 0.09169 0.08793 0.63863 0.0
C806 C 0.07794 0.07189 0.61453 0.0
C807 C 0.1163 0.1297 0.66073 0.0
C808 C 0.13852 0.1256 0.6708 0.0
C809 C 0.11062 0.15054 0.67307 0.0
C810 C 0.08739 0.15592 0.66348 0.0
C811 C 0.0624 0.13865 0.66497 0.0
C812 C 0.04085 0.14363 0.65471 0.0
C813 C 0.04403 0.16589 0.64315 0.0
C814 C 0.06867 0.18333 0.64223 0.0
C815 C 0.09027 0.17842 0.65232 0.0
H816 H 0.02746 0.1697 0.6349 0.0
H817 H 0.24581 0.12854 0.71443 0.0
H818 H 0.93314 0.21801 0.75034 0.0
H819 H 0.94962 0.19088 0.71732 0.0
H820 H 0.94643 0.22912 0.63742 0.0
H821 H 0.93024 0.257 0.67074 0.0
H822 H 0.91498 0.18308 0.63132 0.0
H823 H 1.00363 0.22277 0.65697 0.0
H824 H 0.04283 0.24236 0.68872 0.0
H825 H 0.02857 0.17754 0.73514 0.0
H826 H 0.98905 0.15764 0.70402 0.0
H827 H 0.96259 0.10483 0.52904 0.0
H828 H 0.94779 0.13502 0.55887 0.0
H829 H 0.95054 0.10151 0.64335 0.0
H830 H 0.9663 0.07181 0.61327 0.0
H831 H 0.98289 0.1463 0.64512 0.0
H832 H 0.89396 0.10697 0.61807 0.0
H833 H 0.85669 0.08728 0.5833 0.0
H834 H 0.87338 0.15239 0.53691 0.0
H835 H 0.91109 0.17229 0.57076 0.0
C836 C 0.93718 0.22159 0.7261 0.0
C837 C 0.92983 0.23939 0.71303 0.0
C838 C 0.94659 0.2059 0.70715 0.0
C839 C 0.94889 0.20781 0.67489 0.0
C840 C 0.94451 0.22727 0.66229 0.0
C841 C 0.93521 0.24311 0.68132 0.0
C842 C 0.95078 0.18704 0.65435 0.0
C843 C 0.93023 0.17536 0.63367 0.0
C844 C 0.97008 0.17654 0.65848 0.0
C845 C 0.99317 0.18879 0.67835 0.0
C846 C 1.00862 0.21279 0.67426 0.0
C847 C 0.03097 0.22392 0.69207 0.0
C848 C 0.03814 0.21123 0.714 0.0
C849 C 0.02295 0.18738 0.71822 0.0
C850 C 1.00056 0.17617 0.7005 0.0
C851 C 0.95902 0.10341 0.5537 0.0
C852 C 0.96564 0.08633 0.56903 0.0
C853 C 0.95043 0.12056 0.57078 0.0
C854 C 0.9483 0.12058 0.60336 0.0
C855 C 0.95216 0.10177 0.61821 0.0
C856 C 0.96092 0.08474 0.60107 0.0
C857 C 0.94725 0.14245 0.62205 0.0
C858 C 0.96787 0.15424 0.64248 0.0
C859 C 0.92818 0.15311 0.61745 0.0
C860 C 0.90554 0.14108 0.59683 0.0
C861 C 0.88987 0.11702 0.6002 0.0
C862 C 0.86864 0.10581 0.58063 0.0
C863 C 0.86273 0.11853 0.55775 0.0
C864 C 0.87803 0.14249 0.55444 0.0
C865 C 0.89934 0.15376 0.57384 0.0
H866 H 0.84623 0.10985 0.54269 0.0
H867 H 0.05551 0.21985 0.72766 0.0
H868 H 0.81505 0.82434 0.69247 0.0
H869 H 0.84639 0.85678 0.66601 0.0
H870 H 0.89532 0.87593 0.74701 0.0
H871 H 0.86392 0.84319 0.7739 0.0
H872 H 0.89134 0.91653 0.7205 0.0
H873 H 0.91106 0.84471 0.68611 0.0
H874 H 0.90126 0.80257 0.66409 0.0
H875 H 0.87624 0.82045 0.57892 0.0
H876 H 0.88553 0.86265 0.60062 0.0
H877 H 1.00816 0.9873 0.64976 0.0
H878 H 0.97369 0.95824 0.67731 0.0
H879 H 0.9305 0.93397 0.59191 0.0
H880 H 0.9655 0.96283 0.5638 0.0
H881 H 0.93048 0.89621 0.6205 0.0
H882 H 0.91149 0.96806 0.65359 0.0
H883 H 0.92062 0.01022 0.67522 0.0
H884 H 0.9432 0.99267 0.76203 0.0
H885 H 0.93456 0.95046 0.74077 0.0
C886 C 0.83235 0.83545 0.70494 0.0
C887 C 0.83684 0.83092 0.73548 0.0
C888 C 0.85038 0.85403 0.68959 0.0
C889 C 0.87345 0.86874 0.70427 0.0
C890 C 0.87772 0.86483 0.7351 0.0
C891 C 0.85972 0.84604 0.75046 0.0
C892 C 0.89321 0.88775 0.68705 0.0
C893 C 0.90016 0.91205 0.69885 0.0
C894 C 0.90424 0.88212 0.65827 0.0
C895 C 0.89873 0.85678 0.64512 0.0
C896 C 0.90326 0.83961 0.66278 0.0
C897 C 0.89784 0.81573 0.65034 0.0
C898 C 0.88807 0.80882 0.62016 0.0
C899 C 0.88377 0.82582 0.60232 0.0
C900 C 0.88913 0.84972 0.61467 0.0
C901 C 0.9912 0.97607 0.63676 0.0
C902 C 0.98972 0.9776 0.60442 0.0
C903 C 0.97133 0.95942 0.6527 0.0
C904 C 0.94916 0.9439 0.63695 0.0
C905 C 0.94731 0.9457 0.60475 0.0
C906 C 0.96729 0.96239 0.5887 0.0
C907 C 0.9287 0.92513 0.65388 0.0
C908 C 0.92162 0.9008 0.64206 0.0
C909 C 0.91746 0.93078 0.68256 0.0
C910 C 0.92259 0.95613 0.69548 0.0
C911 C 0.91859 0.97322 0.67722 0.0
C912 C 0.92365 0.99713 0.68942 0.0
C913 C 0.93254 1.00413 0.71996 0.0
C914 C 0.93634 0.98722 0.73837 0.0
C915 C 0.93134 0.9633 0.72627 0.0
H916 H 0.93645 0.02264 0.72936 0.0
H917 H 0.88389 0.79032 0.61057 0.0
H918 H 0.29571 0.19811 0.20716 0.0
H919 H 0.32111 0.17273 0.18534 0.0
H920 H 0.38899 0.22107 0.23182 0.0
H921 H 0.36338 0.24622 0.25416 0.0
H922 H 0.41036 0.20523 0.18054 0.0
H923 H 0.34729 0.15254 0.24647 0.0
H924 H 0.30329 0.12985 0.26488 0.0
H925 H 0.28446 0.09353 0.17354 0.0
H926 H 0.32827 0.11622 0.1545 0.0
H927 H 0.49178 0.12845 0.13691 0.0
H928 H 0.46614 0.15299 0.15909 0.0
H929 H 0.39605 0.09513 0.13457 0.0
H930 H 0.42206 0.07039 0.11189 0.0
H931 H 0.37495 0.11603 0.17336 0.0
H932 H 0.4329 0.16796 0.10475 0.0
H933 H 0.47468 0.19097 0.08111 0.0
H934 H 0.50058 0.22914 0.16996 0.0
H935 H 0.45899 0.20616 0.19419 0.0
C936 C 0.31601 0.20377 0.21337 0.0
C937 C 0.32604 0.22554 0.23377 0.0
C938 C 0.33122 0.18851 0.20045 0.0
C939 C 0.35853 0.19324 0.20587 0.0
C940 C 0.36863 0.21527 0.22584 0.0
C941 C 0.3533 0.23028 0.23926 0.0
C942 C 0.37587 0.17614 0.19131 0.0
C943 C 0.40212 0.18572 0.17978 0.0
C944 C 0.36718 0.14987 0.18767 0.0
C945 C 0.34094 0.13624 0.19901 0.0
C946 C 0.3337 0.13982 0.23027 0.0
C947 C 0.30881 0.12695 0.24082 0.0
C948 C 0.29107 0.11031 0.22037 0.0
C949 C 0.29821 0.10646 0.18934 0.0
C950 C 0.32307 0.11931 0.17866 0.0
C951 C 0.47087 0.12048 0.1354 0.0
C952 C 0.46051 0.09619 0.12107 0.0
C953 C 0.45537 0.13537 0.14834 0.0
C954 C 0.42732 0.12804 0.14855 0.0
C955 C 0.41692 0.10338 0.13503 0.0
C956 C 0.43248 0.08849 0.12166 0.0
C957 C 0.40969 0.14509 0.1628 0.0
C958 C 0.38335 0.13552 0.17423 0.0
C959 C 0.41802 0.1714 0.16558 0.0
C960 C 0.443 0.18516 0.15133 0.0
C961 C 0.44757 0.18118 0.11926 0.0
C962 C 0.4712 0.19421 0.10576 0.0
C963 C 0.49031 0.21145 0.12405 0.0
C964 C 0.48578 0.21574 0.15585 0.0
C965 C 0.46219 0.20272 0.16948 0.0
H966 H 0.5086 0.22153 0.11356 0.0
H967 H 0.27182 0.10036 0.22858 0.0
H968 H 0.83283 0.35542 0.23069 0.0
H969 H 0.86603 0.38346 0.19965 0.0
H970 H 0.89969 0.32789 0.17335 0.0
H971 H 0.86662 0.29981 0.20442 0.0
H972 H 0.9375 0.3691 0.18781 0.0
H973 H 0.86288 0.34704 0.12168 0.0
H974 H 0.81775 0.34202 0.10824 0.0
H975 H 0.83292 0.41819 0.12814 0.0
H976 H 0.87807 0.42362 0.1421 0.0
H977 H 0.02315 0.42101 0.06849 0.0
H978 H 0.98711 0.39603 0.09843 0.0
H979 H 0.95576 0.45443 0.11188 0.0
H980 H 0.99159 0.4793 0.07987 0.0
H981 H 0.9166 0.41465 0.10704 0.0
H982 H 0.99139 0.43719 0.17143 0.0
H983 H 0.0366 0.44263 0.18498 0.0
H984 H 0.0212 0.36612 0.16947 0.0
H985 H 0.97598 0.36024 0.15543 0.0
C986 C 0.84721 0.34904 0.21826 0.0
C987 C 0.84672 0.32508 0.22028 0.0
C988 C 0.86626 0.36519 0.20023 0.0
C989 C 0.88558 0.35803 0.18354 0.0
C990 C 0.8852 0.33415 0.18574 0.0
C991 C 0.86608 0.31796 0.20358 0.0
C992 C 0.90647 0.37537 0.1645 0.0
C993 C 0.93278 0.37874 0.16985 0.0
C994 C 0.90087 0.38891 0.14161 0.0
C995 C 0.87376 0.38569 0.13329 0.0
C996 C 0.85652 0.36269 0.12345 0.0
C997 C 0.83095 0.35978 0.11569 0.0
C998 C 0.82245 0.37976 0.11743 0.0
C999 C 0.83952 0.40272 0.12686 0.0
C1000 C 0.8651 0.40573 0.13468 0.0
C1001 C 1.00859 0.42866 0.07768 0.0
C1002 C 1.01068 0.45244 0.07193 0.0
C1003 C 0.98793 0.41431 0.09528 0.0
C1004 C 0.96882 0.42333 0.10895 0.0
C1005 C 0.97024 0.44686 0.10227 0.0
C1006 C 0.99078 0.46116 0.08382 0.0
C1007 C 0.94769 0.40799 0.12984 0.0
C1008 C 0.92136 0.40506 0.12499 0.0
C1009 C 0.95324 0.39488 0.15335 0.0
C1010 C 0.98034 0.3983 0.16216 0.0
C1011 C 0.99768 0.42153 0.17077 0.0
C1012 C 0.02331 0.42469 0.17854 0.0
C1013 C 0.03178 0.40474 0.17802 0.0
C1014 C 1.01462 0.38156 0.16984 0.0
C1015 C 0.98897 0.3783 0.16202 0.0
H1016 H 0.05164 0.40723 0.18401 0.0
H1017 H 0.80265 0.37748 0.1114 0.0
H1018 H 0.73216 0.83555 0.26638 0.0
H1019 H 0.71003 0.8593 0.24229 0.0
H1020 H 0.72206 0.82734 0.15176 0.0
H1021 H 0.74608 0.80494 0.17602 0.0
H1022 H 0.71709 0.86293 0.13387 0.0
H1023 H 0.65479 0.82098 0.20758 0.0
H1024 H 0.63692 0.80685 0.2586 0.0
H1025 H 0.65339 0.88029 0.29648 0.0
H1026 H 0.6716 0.89485 0.24574 0.0
H1027 H 0.62144 0.9092 0.06392 0.0
H1028 H 0.64429 0.88444 0.08608 0.0
H1029 H 0.65621 0.93032 0.17132 0.0
H1030 H 0.63413 0.95508 0.14922 0.0
H1031 H 0.64753 0.88662 0.19012 0.0
H1032 H 0.70699 0.92643 0.11047 0.0
H1033 H 0.71981 0.93684 0.0566 0.0
H1034 H 0.70229 0.8617 0.02651 0.0
H1035 H 0.68905 0.8508 0.08015 0.0
C1036 C 0.73024 0.83327 0.24126 0.0
C1037 C 0.74165 0.81738 0.22409 0.0
C1038 C 0.71669 0.84703 0.22691 0.0
C1039 C 0.71228 0.84559 0.194 0.0
C1040 C 0.72399 0.8298 0.17685 0.0
C1041 C 0.73812 0.81647 0.19118 0.0
C1042 C 0.6964 0.8603 0.17785 0.0
C1043 C 0.70171 0.86754 0.14668 0.0
C1044 C 0.67561 0.86757 0.19249 0.0
C1045 C 0.66484 0.85899 0.22301 0.0
C1046 C 0.65473 0.8341 0.22686 0.0
C1047 C 0.64453 0.82602 0.25571 0.0
C1048 C 0.64411 0.84267 0.2808 0.0
C1049 C 0.6538 0.86743 0.27705 0.0
C1050 C 0.66405 0.8756 0.24825 0.0
C1051 C 0.62874 0.91424 0.08746 0.0
C1052 C 0.62505 0.93502 0.10403 0.0
C1053 C 0.64239 0.8998 0.10048 0.0
C1054 C 0.65313 0.90465 0.13132 0.0
C1055 C 0.64887 0.92509 0.14782 0.0
C1056 C 0.63584 0.9397 0.13468 0.0
C1057 C 0.66835 0.88916 0.14653 0.0
C1058 C 0.66294 0.88188 0.1775 0.0
C1059 C 0.68843 0.88126 0.13135 0.0
C1060 C 0.6968 0.88779 0.09927 0.0
C1061 C 0.70575 0.91212 0.09233 0.0
C1062 C 0.7131 0.91811 0.06184 0.0
C1063 C 0.71179 0.89994 0.03812 0.0
C1064 C 0.70325 0.87575 0.04489 0.0
C1065 C 0.69584 0.86966 0.07534 0.0
H1066 H 0.71744 0.9046 0.01452 0.0
H1067 H 0.63621 0.83638 0.30312 0.0
H1068 H 0.21814 0.74749 0.18328 0.0
H1069 H 0.19312 0.71291 0.14883 0.0
H1070 H 0.23369 0.6692 0.18436 0.0
H1071 H 0.26032 0.70458 0.21707 0.0
H1072 H 0.22217 0.65424 0.12563 0.0
H1073 H 0.17271 0.67143 0.21387 0.0
H1074 H 0.15811 0.70048 0.24785 0.0
H1075 H 0.11599 0.71184 0.17179 0.0
H1076 H 0.13114 0.68354 0.13702 0.0
H1077 H 0.11763 0.54547 0.07204 0.0
H1078 H 0.15025 0.57693 0.10425 0.0
H1079 H 0.12053 0.63076 0.07476 0.0
H1080 H 0.08822 0.59986 0.04309 0.0
H1081 H 0.12697 0.63723 0.1352 0.0
H1082 H 0.18191 0.62706 0.04665 0.0
H1083 H 0.20034 0.6026 0.00932 0.0
H1084 H 0.23199 0.57894 0.08525 0.0
H1085 H 0.21323 0.60293 0.12292 0.0
C1086 C 0.22205 0.73061 0.18327 0.0
C1087 C 0.24099 0.72865 0.203 0.0
C1088 C 0.20759 0.71074 0.16374 0.0
C1089 C 0.21068 0.688 0.16472 0.0
C1090 C 0.23062 0.68636 0.18329 0.0
C1091 C 0.24582 0.70657 0.20204 0.0
C1092 C 0.19193 0.66588 0.14811 0.0
C1093 C 0.20135 0.65035 0.12815 0.0
C1094 C 0.16463 0.66057 0.1511 0.0
C1095 C 0.15323 0.6755 0.17278 0.0
C1096 C 0.16023 0.68004 0.20442 0.0
C1097 C 0.15201 0.6965 0.22376 0.0
C1098 C 0.13622 0.70807 0.21193 0.0
C1099 C 0.12829 0.70291 0.18087 0.0
C1100 C 0.13673 0.6867 0.16132 0.0
C1101 C 0.11814 0.56402 0.07236 0.0
C1102 C 0.10015 0.56996 0.05486 0.0
C1103 C 0.13692 0.58207 0.09069 0.0
C1104 C 0.13807 0.60641 0.09196 0.0
C1105 C 0.12012 0.61223 0.07446 0.0
C1106 C 0.1016 0.59438 0.05614 0.0
C1107 C 0.15719 0.626 0.11199 0.0
C1108 C 0.14778 0.64095 0.13292 0.0
C1109 C 0.1844 0.63069 0.10992 0.0
C1110 C 0.19579 0.61639 0.08748 0.0
C1111 C 0.19248 0.61634 0.05528 0.0
C1112 C 0.20305 0.60265 0.03411 0.0
C1113 C 0.21723 0.58913 0.04492 0.0
C1114 C 0.22093 0.58936 0.07692 0.0
C1115 C 0.21033 0.603 0.09818 0.0
H1116 H 0.22543 0.57855 0.02851 0.0
H1117 H 0.1302 0.7211 0.22676 0.0
H1118 H 0.3411 0.84388 0.829 0.0
H1119 H 0.3742 0.8704 0.86477 0.0
H1120 H 0.398 0.81022 0.88363 0.0
H1121 H 0.36454 0.78347 0.84804 0.0
H1122 H 0.39868 0.83575 0.9365 0.0
H1123 H 0.44254 0.85934 0.84044 0.0
H1124 H 0.44959 0.87232 0.78705 0.0
H1125 H 0.42451 0.9329 0.81551 0.0
H1126 H 0.41836 0.92073 0.86954 0.0
H1127 H 0.51858 0.91051 0.01037 0.0
H1128 H 0.48401 0.88218 0.978 0.0
H1129 H 0.45663 0.94017 0.95903 0.0
H1130 H 0.49139 0.96871 0.99114 0.0
H1131 H 0.45813 0.9148 0.90641 0.0
H1132 H 0.41715 0.88872 0.00663 0.0
H1133 H 0.41425 0.87336 0.05874 0.0
H1134 H 0.43841 0.81449 0.01982 0.0
H1135 H 0.44071 0.82909 0.96739 0.0
C1136 C 0.3533 0.83614 0.8407 0.0
C1137 C 0.34989 0.81128 0.83521 0.0
C1138 C 0.37259 0.85154 0.86112 0.0
C1139 C 0.38931 0.84276 0.877 0.0
C1140 C 0.3857 0.81783 0.87189 0.0
C1141 C 0.36648 0.80243 0.85126 0.0
C1142 C 0.40991 0.85942 0.8993 0.0
C1143 C 0.41182 0.8529 0.92962 0.0
C1144 C 0.42729 0.88209 0.89122 0.0
C1145 C 0.42962 0.88894 0.85877 0.0
C1146 C 0.4383 0.8753 0.8352 0.0
C1147 C 0.44229 0.8826 0.80489 0.0
C1148 C 0.43713 0.90324 0.79773 0.0
C1149 C 0.42835 0.91684 0.82104 0.0
C1150 C 0.42484 0.90987 0.85157 0.0
C1151 C 0.50511 0.91735 0.99966 0.0
C1152 C 0.50821 0.94225 0.0037 0.0
C1153 C 0.485 0.9009 0.98114 0.0
C1154 C 0.46708 0.90861 0.96588 0.0
C1155 C 0.46992 0.9334 0.97026 0.0
C1156 C 0.48997 0.94986 0.98887 0.0
C1157 C 0.44665 0.89139 0.94386 0.0
C1158 C 0.44483 0.89778 0.91345 0.0
C1159 C 0.42979 0.86837 0.95173 0.0
C1160 C 0.42947 0.86019 0.98328 0.0
C1161 C 0.42211 0.87266 0.0093 0.0
C1162 C 0.42047 0.86405 0.03883 0.0
C1163 C 0.42651 0.8432 0.04265 0.0
C1164 C 0.43389 0.83072 0.01687 0.0
C1165 C 0.4352 0.83906 0.98723 0.0
H1166 H 0.42527 0.83661 0.06554 0.0
H1167 H 0.4401 0.90878 0.77417 0.0
H1168 H 0.25685 0.30577 0.86604 0.0
H1169 H 0.2338 0.33094 0.89398 0.0
H1170 H 0.20766 0.34438 0.80642 0.0
H1171 H 0.23008 0.31909 0.7786 0.0
H1172 H 0.23519 0.37555 0.89889 0.0
H1173 H 0.15072 0.35284 0.81129 0.0
H1174 H 0.12589 0.31883 0.77495 0.0
H1175 H 0.14358 0.26882 0.82961 0.0
H1176 H 0.16826 0.3025 0.86644 0.0
H1177 H 0.16371 0.45863 0.93705 0.0
H1178 H 0.19015 0.43489 0.91328 0.0
H1179 H 0.12599 0.36922 0.92394 0.0
H1180 H 0.09947 0.39278 0.94588 0.0
H1181 H 0.14379 0.3628 0.87225 0.0
H1182 H 0.18641 0.39217 0.96905 0.0
H1183 H 0.2099 0.42122 0.01152 0.0
H1184 H 0.2726 0.45206 0.94833 0.0
H1185 H 0.24935 0.42306 0.90558 0.0
C1186 C 0.24605 0.31393 0.85268 0.0
C1187 C 0.24526 0.30991 0.81984 0.0
C1188 C 0.23285 0.32849 0.86879 0.0
C1189 C 0.21823 0.33942 0.85271 0.0
C1190 C 0.21799 0.33584 0.81988 0.0
C1191 C 0.23107 0.32129 0.80381 0.0
C1192 C 0.20307 0.35427 0.86988 0.0
C1193 C 0.21522 0.37278 0.89294 0.0
C1194 C 0.17667 0.35059 0.86317 0.0
C1195 C 0.16153 0.33021 0.84143 0.0
C1196 C 0.1492 0.33457 0.81561 0.0
C1197 C 0.13519 0.31536 0.79491 0.0
C1198 C 0.13323 0.29169 0.79992 0.0
C1199 C 0.14519 0.28717 0.8257 0.0
C1200 C 0.15922 0.30631 0.84647 0.0
C1201 C 0.15528 0.43913 0.93434 0.0
C1202 C 0.12919 0.42782 0.94321 0.0
C1203 C 0.17054 0.42541 0.92085 0.0
C1204 C 0.16043 0.39987 0.91654 0.0
C1205 C 0.13457 0.38872 0.92626 0.0
C1206 C 0.11927 0.40237 0.93905 0.0
C1207 C 0.17594 0.38457 0.90108 0.0
C1208 C 0.16381 0.36584 0.87825 0.0
C1209 C 0.2021 0.3877 0.90872 0.0
C1210 C 0.21599 0.40551 0.93413 0.0
C1211 C 0.20513 0.40518 0.96427 0.0
C1212 C 0.21841 0.42163 0.98837 0.0
C1213 C 0.24271 0.43855 0.98261 0.0
C1214 C 0.25376 0.43897 0.95276 0.0
C1215 C 0.24053 0.42247 0.9286 0.0
H1216 H 0.25299 0.4513 1.00129 0.0
H1217 H 0.12239 0.27685 0.78385 0.0
H1218 H 0.70463 0.23387 0.84317 0.0
H1219 H 0.67721 0.20205 0.87469 0.0
H1220 H 0.73487 0.16664 0.86634 0.0
H1221 H 0.76233 0.19842 0.83478 0.0
H1222 H 0.65185 0.15598 0.86696 0.0
H1223 H 0.73222 0.1333 0.92972 0.0
H1224 H 0.7764 0.15372 0.95034 0.0
H1225 H 0.76298 0.22181 0.95754 0.0
H1226 H 0.71865 0.20179 0.93729 0.0
H1227 H 0.58625 0.04778 0.94257 0.0
H1228 H 0.61717 0.07736 0.91064 0.0
H1229 H 0.64728 0.12302 0.99387 0.0
H1230 H 0.61672 0.09331 0.02553 0.0
H1231 H 0.68634 0.12936 0.9568 0.0
H1232 H 0.60142 0.13206 0.94151 0.0
H1233 H 0.555 0.11623 0.92778 0.0
H1234 H 0.5747 0.09537 0.83458 0.0
H1235 H 0.62126 0.11078 0.8479 0.0
C1236 C 0.71166 0.21938 0.84797 0.0
C1237 C 0.73612 0.21919 0.83603 0.0
C1238 C 0.69572 0.20091 0.86614 0.0
C1239 C 0.70356 0.18148 0.87371 0.0
C1240 C 0.728 0.18125 0.86173 0.0
C1241 C 0.74385 0.19961 0.84331 0.0
C1242 C 0.68622 0.1616 0.89364 0.0
C1243 C 0.65967 0.15016 0.8864 0.0
C1244 C 0.69547 0.15381 0.91993 0.0
C1245 C 0.72225 0.16607 0.93155 0.0
C1246 C 0.73872 0.15264 0.93566 0.0
C1247 C 0.76378 0.16414 0.94731 0.0
C1248 C 0.77254 0.18906 0.95507 0.0
C1249 C 0.75623 0.20253 0.95131 0.0
C1250 C 0.73116 0.19112 0.93969 0.0
C1251 C 0.60013 0.06366 0.95419 0.0
C1252 C 0.59936 0.06742 0.98702 0.0
C1253 C 0.61764 0.08103 0.93573 0.0
C1254 C 0.63485 0.10319 0.94925 0.0
C1255 C 0.63467 0.10642 0.98218 0.0
C1256 C 0.61718 0.08911 1.00054 0.0
C1257 C 0.65218 0.12321 0.92951 0.0
C1258 C 0.67866 0.13486 0.93698 0.0
C1259 C 0.64272 0.13161 0.90391 0.0
C1260 C 0.61479 0.12232 0.8958 0.0
C1261 C 0.59584 0.12393 0.91816 0.0
C1262 C 0.56951 0.11506 0.91044 0.0
C1263 C 0.5619 0.10474 0.88035 0.0
C1264 C 0.58062 0.10332 0.8579 0.0
C1265 C 0.60698 0.11213 0.86551 0.0
H1266 H 0.5415 0.09789 0.87442 0.0
H1267 H 0.79193 0.19792 0.9641 0.0
H1268 H 0.91088 0.72994 0.92329 0.0
H1269 H 0.93219 0.70369 0.94258 0.0
H1270 H 0.88875 0.64526 0.878 0.0
H1271 H 0.86663 0.67121 0.8592 0.0
H1272 H 0.88952 0.62746 0.92984 0.0
H1273 H 0.95813 0.68194 0.87066 0.0
H1274 H 0.98727 0.72196 0.85731 0.0
H1275 H 0.01726 0.73706 0.95045 0.0
H1276 H 0.98815 0.6972 0.96439 0.0
H1277 H 0.96254 0.5487 0.92727 0.0
H1278 H 0.9406 0.57712 0.91773 0.0
H1279 H 0.9885 0.62909 0.98643 0.0
H1280 H 1.01165 0.60085 0.99499 0.0
H1281 H 0.9852 0.65188 0.93931 0.0
H1282 H 0.9186 0.59681 0.99794 0.0
H1283 H 0.88793 0.55772 0.01258 0.0
H1284 H 0.85417 0.54391 0.92158 0.0
H1285 H 0.88432 0.58294 0.90644 0.0
C1286 C 0.90554 0.71144 0.91331 0.0
C1287 C 0.88682 0.7029 0.88953 0.0
C1288 C 0.91804 0.69639 0.92429 0.0
C1289 C 0.91244 0.6723 0.91184 0.0
C1290 C 0.89365 0.66369 0.88821 0.0
C1291 C 0.8811 0.67872 0.87718 0.0
C1292 C 0.92573 0.65596 0.92353 0.0
C1293 C 0.91048 0.63277 0.93146 0.0
C1294 C 0.95308 0.66293 0.92716 0.0
C1295 C 0.97079 0.68673 0.91864 0.0
C1296 C 0.97085 0.69386 0.88832 0.0
C1297 C 0.98738 0.7165 0.88064 0.0
C1298 C 1.00405 0.73207 0.90304 0.0
C1299 C 1.00431 0.725 0.93314 0.0
C1300 C 0.98783 0.70239 0.94092 0.0
C1301 C 0.96845 0.5661 0.9406 0.0
C1302 C 0.98898 0.57229 0.96204 0.0
C1303 C 0.95557 0.58239 0.93529 0.0
C1304 C 0.9623 0.60534 0.9517 0.0
C1305 C 0.9827 0.61157 0.97339 0.0
C1306 C 0.99592 0.59532 0.9784 0.0
C1307 C 0.94901 0.62306 0.94468 0.0
C1308 C 0.96423 0.64657 0.93783 0.0
C1309 C 0.9216 0.61642 0.9421 0.0
C1310 C 0.90384 0.59273 0.95101 0.0
C1311 C 0.90475 0.58537 0.98101 0.0
C1312 C 0.88744 0.56326 0.98941 0.0
C1313 C 0.86929 0.54831 0.96799 0.0
C1314 C 0.86827 0.55549 0.93814 0.0
C1315 C 0.88536 0.57764 0.92968 0.0
H1316 H 0.85596 0.53121 0.97457 0.0
H1317 H 0.01682 0.7496 0.89706 0.0
H1318 H 0.17199 0.27232 0.08826 0.0
H1319 H 0.15833 0.29826 0.05657 0.0
H1320 H 0.23393 0.35266 0.06652 0.0
H1321 H 0.24823 0.32648 0.09714 0.0
H1322 H 0.18612 0.35931 0.09997 0.0
H1323 H 0.22133 0.34228 1.00154 0.0
H1324 H 0.22956 0.31946 0.95385 0.0
H1325 H 0.14883 0.29715 0.93021 0.0
H1326 H 0.13993 0.31931 0.97821 0.0
H1327 H 0.15714 0.4574 0.05334 0.0
H1328 H 0.17861 0.42745 0.05689 0.0
H1329 H 0.1119 0.37191 0.01568 0.0
H1330 H 0.09046 0.40194 0.01148 0.0
H1331 H 0.15472 0.36429 0.99511 0.0
H1332 H 0.11977 0.37936 0.09381 0.0
H1333 H 0.11067 0.40229 0.14099 0.0
H1334 H 0.19178 0.42861 0.16354 0.0
H1335 H 0.20146 0.40621 0.11613 0.0
C1336 C 0.18616 0.28928 0.08247 0.0
C1337 C 0.21101 0.29761 0.09592 0.0
C1338 C 0.17831 0.30404 0.0642 0.0
C1339 C 0.19514 0.3273 0.05928 0.0
C1340 C 0.22076 0.33465 0.06993 0.0
C1341 C 0.22874 0.31982 0.08784 0.0
C1342 C 0.18407 0.34575 0.05168 0.0
C1343 C 0.18 0.36096 0.07681 0.0
C1344 C 0.17495 0.34684 0.02176 0.0
C1345 C 0.17987 0.3321 0.99393 0.0
C1346 C 0.20519 0.33206 0.98661 0.0
C1347 C 0.21001 0.31935 0.95938 0.0
C1348 C 0.1897 0.30674 0.93911 0.0
C1349 C 0.16452 0.30681 0.94603 0.0
C1350 C 0.15957 0.31941 0.97329 0.0
C1351 C 0.14708 0.43884 0.0449 0.0
C1352 C 0.12195 0.43191 0.03265 0.0
C1353 C 0.15937 0.42175 0.04692 0.0
C1354 C 0.14658 0.39738 0.03721 0.0
C1355 C 0.12201 0.3906 0.02353 0.0
C1356 C 0.10976 0.40775 0.02128 0.0
C1357 C 0.15837 0.37891 0.04297 0.0
C1358 C 0.16178 0.36323 0.01795 0.0
C1359 C 0.16703 0.37733 0.073 0.0
C1360 C 0.16138 0.39133 0.10117 0.0
C1361 C 0.13572 0.39028 0.1086 0.0
C1362 C 0.13045 0.40314 0.13543 0.0
C1363 C 0.15065 0.41696 0.15519 0.0
C1364 C 0.17617 0.41796 0.14815 0.0
C1365 C 0.18156 0.40519 0.1213 0.0
H1366 H 0.14652 0.42683 0.17601 0.0
H1367 H 0.19349 0.29701 0.91797 0.0
H1368 H 0.28099 0.69169 0.81958 0.0
H1369 H 0.2525 0.6573 0.8459 0.0
H1370 H 0.1978 0.69539 0.86631 0.0
H1371 H 0.227 0.73031 0.84157 0.0
H1372 H 0.1957 0.67131 0.91191 0.0
H1373 H 0.19181 0.64946 0.80247 0.0
H1374 H 0.20853 0.64329 0.74948 0.0
H1375 H 0.23959 0.59126 0.78071 0.0
H1376 H 0.22334 0.59736 0.83402 0.0
H1377 H 0.07912 0.56667 0.90067 0.0
H1378 H 0.11642 0.59753 0.88009 0.0
H1379 H 0.16769 0.57655 0.93621 0.0
H1380 H 0.13009 0.54579 0.95811 0.0
H1381 H 0.17361 0.59014 0.85489 0.0
H1382 H 0.17252 0.61566 0.96858 0.0
H1383 H 0.14589 0.61997 0.01472 0.0
H1384 H 0.11576 0.66617 0.96771 0.0
H1385 H 0.14124 0.66108 0.92056 0.0
C1386 C 0.26305 0.69286 0.83007 0.0
C1387 C 0.25627 0.71377 0.82837 0.0
C1388 C 0.24658 0.67303 0.84492 0.0
C1389 C 0.22246 0.67324 0.85753 0.0
C1390 C 0.21616 0.69452 0.85682 0.0
C1391 C 0.23292 0.71457 0.84262 0.0
C1392 C 0.20349 0.65118 0.87053 0.0
C1393 C 0.19114 0.65363 0.89935 0.0
C1394 C 0.1969 0.62785 0.85432 0.0
C1395 C 0.20664 0.62408 0.8223 0.0
C1396 C 0.20237 0.63683 0.79808 0.0
C1397 C 0.21174 0.63333 0.76799 0.0
C1398 C 0.22518 0.61695 0.76176 0.0
C1399 C 0.22922 0.60398 0.78559 0.0
C1400 C 0.21993 0.60744 0.81575 0.0
C1401 C 0.09828 0.56823 0.90856 0.0
C1402 C 0.1014 0.55365 0.93138 0.0
C1403 C 0.11963 0.586 0.89663 0.0
C1404 C 0.14479 0.58955 0.90681 0.0
C1405 C 0.14836 0.57422 0.92819 0.0
C1406 C 0.12685 0.55656 0.94062 0.0
C1407 C 0.16673 0.6104 0.89632 0.0
C1408 C 0.17906 0.60778 0.86771 0.0
C1409 C 0.17271 0.63366 0.91214 0.0
C1410 C 0.15853 0.63774 0.94097 0.0
C1411 C 0.16002 0.62653 0.96797 0.0
C1412 C 0.14516 0.62914 0.99433 0.0
C1413 C 0.12922 0.64342 0.99426 0.0
C1414 C 0.12811 0.6551 0.96775 0.0
C1415 C 0.14267 0.65228 0.94115 0.0
H1416 H 0.11775 0.64541 0.01474 0.0
H1417 H 0.23242 0.61426 0.73845 0.0
H1418 H 0.40308 0.21622 0.89602 0.0
H1419 H 0.42881 0.19637 0.92162 0.0
H1420 H 0.35968 0.1357 0.93532 0.0
H1421 H 0.33374 0.15572 0.9107 0.0
H1422 H 0.38751 0.14505 0.98589 0.0
H1423 H 0.40531 0.13391 0.87708 0.0
H1424 H 0.41913 0.14595 0.82405 0.0
H1425 H 0.49501 0.18829 0.85796 0.0
H1426 H 0.48153 0.17672 0.9113 0.0
H1427 H 0.47316 0.06225 0.96655 0.0
H1428 H 0.44945 0.08618 0.94671 0.0
H1429 H 0.46382 0.13255 0.03202 0.0
H1430 H 0.48836 0.10868 0.0521 0.0
H1431 H 0.46473 0.13214 0.93334 0.0
H1432 H 0.40841 0.1518 0.04414 0.0
H1433 H 0.38561 0.13219 0.09034 0.0
H1434 H 0.3786 0.06247 0.04475 0.0
H1435 H 0.40108 0.08159 0.99826 0.0
C1436 C 0.39323 0.19874 0.90469 0.0
C1437 C 0.36616 0.18765 0.90095 0.0
C1438 C 0.40809 0.18725 0.91916 0.0
C1439 C 0.3964 0.16429 0.93032 0.0
C1440 C 0.36936 0.15334 0.927 0.0
C1441 C 0.35451 0.16478 0.9125 0.0
C1442 C 0.41218 0.15151 0.94513 0.0
C1443 C 0.40459 0.14253 0.9745 0.0
C1444 C 0.43419 0.14753 0.93021 0.0
C1445 C 0.44231 0.15468 0.89824 0.0
C1446 C 0.42487 0.14597 0.87328 0.0
C1447 C 0.43265 0.15266 0.84315 0.0
C1448 C 0.4579 0.16793 0.83765 0.0
C1449 C 0.47544 0.1765 0.86227 0.0
C1450 C 0.46774 0.16987 0.89244 0.0
C1451 C 0.47138 0.07748 0.98137 0.0
C1452 C 0.48281 0.08333 0.01116 0.0
C1453 C 0.45778 0.09129 0.96978 0.0
C1454 C 0.4547 0.11131 0.98766 0.0
C1455 C 0.46573 0.11716 0.01767 0.0
C1456 C 0.47981 0.10346 0.02919 0.0
C1457 C 0.44022 0.1259 0.97428 0.0
C1458 C 0.44805 0.1352 0.94511 0.0
C1459 C 0.41799 0.12955 0.98896 0.0
C1460 C 0.40666 0.11816 0.01786 0.0
C1461 C 0.40218 0.1323 0.0441 0.0
C1462 C 0.38921 0.12127 0.07027 0.0
C1463 C 0.38049 0.0961 0.07032 0.0
C1464 C 0.38532 0.08195 0.04461 0.0
C1465 C 0.39827 0.09289 0.0184 0.0
H1466 H 0.36984 0.08752 0.09021 0.0
H1467 H 0.4639 0.17307 0.8143 0.0
H1468 H 0.80534 0.3481 0.85346 0.0
H1469 H 0.83912 0.37604 0.88719 0.0
H1470 H 0.86733 0.3181 0.90446 0.0
H1471 H 0.83342 0.28996 0.8713 0.0
H1472 H 0.8747 0.35291 0.95512 0.0
H1473 H 0.89068 0.34802 0.84328 0.0
H1474 H 0.87645 0.34825 0.7896 0.0
H1475 H 0.8762 0.42092 0.80956 0.0
H1476 H 0.89002 0.42095 0.86356 0.0
H1477 H 1.0108 0.40801 0.96937 0.0
H1478 H 0.96685 0.38312 0.95375 0.0
H1479 H 0.95015 0.44694 0.93374 0.0
H1480 H 0.99418 0.47197 0.94884 0.0
H1481 H 0.93424 0.41191 0.88748 0.0
H1482 H 0.92537 0.41793 0.99881 0.0
H1483 H 0.93645 0.41531 0.05291 0.0
H1484 H 0.92288 0.33928 0.0343 0.0
H1485 H 0.91206 0.34151 0.97979 0.0
C1486 C 0.81826 0.34116 0.86517 0.0
C1487 C 0.81723 0.31702 0.85911 0.0
C1488 C 0.83747 0.35712 0.88448 0.0
C1489 C 0.85601 0.34917 0.89762 0.0
C1490 C 0.85325 0.32456 0.89436 0.0
C1491 C 0.83393 0.30854 0.87524 0.0
C1492 C 0.88053 0.3668 0.90988 0.0
C1493 C 0.8878 0.36582 0.94045 0.0
C1494 C 0.89739 0.38367 0.89059 0.0
C1495 C 0.89114 0.38441 0.85751 0.0
C1496 C 0.8876 0.36405 0.83619 0.0
C1497 C 0.8795 0.36409 0.80578 0.0
C1498 C 0.87516 0.38449 0.79629 0.0
C1499 C 0.87938 0.40506 0.81703 0.0
C1500 C 0.88739 0.40508 0.84753 0.0
C1501 C 0.99779 0.41677 0.9617 0.0
C1502 C 1.00605 0.44197 0.96027 0.0
C1503 C 0.97262 0.40254 0.95296 0.0
C1504 C 0.95515 0.41323 0.94293 0.0
C1505 C 0.96332 0.43835 0.94146 0.0
C1506 C 0.9885 0.4526 0.95012 0.0
C1507 C 0.92866 0.39808 0.93293 0.0
C1508 C 0.92107 0.39937 0.90252 0.0
C1509 C 0.91165 0.38136 0.95233 0.0
C1510 C 0.91811 0.37994 0.98512 0.0
C1511 C 0.92494 0.40068 0.00616 0.0
C1512 C 0.93116 0.39925 0.03695 0.0
C1513 C 0.93044 0.37714 0.04708 0.0
C1514 C 0.92345 0.3564 0.02642 0.0
C1515 C 0.91725 0.35773 0.99558 0.0
H1516 H 0.93525 0.376 0.0709 0.0
H1517 H 0.86876 0.38444 0.77278 0.0
H1518 H 0.71973 0.81443 0.79589 0.0
H1519 H 0.6973 0.83858 0.82716 0.0
H1520 H 0.74734 0.84447 0.90439 0.0
H1521 H 0.76985 0.82032 0.87302 0.0
H1522 H 0.66724 0.83762 0.87371 0.0
H1523 H 0.74911 0.89277 0.95934 0.0
H1524 H 0.79694 0.91046 0.96023 0.0
H1525 H 0.79884 0.9119 0.86059 0.0
H1526 H 0.75105 0.89453 0.85914 0.0
H1527 H 0.60339 0.8958 0.98898 0.0
H1528 H 0.62787 0.87276 0.9603 0.0
H1529 H 0.68872 0.93888 0.94243 0.0
H1530 H 0.66462 0.96204 0.97331 0.0
H1531 H 0.71387 0.91094 0.9409 0.0
H1532 H 0.63419 0.89193 0.88456 0.0
H1533 H 0.58668 0.87763 0.87722 0.0
H1534 H 0.58107 0.80877 0.90833 0.0
H1535 H 0.6285 0.82274 0.91613 0.0
C1536 C 0.72631 0.82084 0.81948 0.0
C1537 C 0.74735 0.81487 0.83098 0.0
C1538 C 0.71307 0.83491 0.83786 0.0
C1539 C 0.72004 0.84446 0.86907 0.0
C1540 C 0.74105 0.83841 0.88064 0.0
C1541 C 0.75417 0.82414 0.86232 0.0
C1542 C 0.70531 0.86007 0.88898 0.0
C1543 C 0.6778 0.85353 0.88844 0.0
C1544 C 0.71783 0.88168 0.90845 0.0
C1545 C 0.74653 0.89205 0.90912 0.0
C1546 C 0.75974 0.89689 0.93763 0.0
C1547 C 0.78685 0.90687 0.93823 0.0
C1548 C 0.80092 0.91221 0.91047 0.0
C1549 C 0.78793 0.90766 0.88206 0.0
C1550 C 0.76084 0.89772 0.88133 0.0
C1551 C 0.622 0.90577 0.97908 0.0
C1552 C 0.63125 0.93142 0.98411 0.0
C1553 C 0.63624 0.89223 0.96176 0.0
C1554 C 0.6606 0.9032 0.94693 0.0
C1555 C 0.67022 0.92894 0.95255 0.0
C1556 C 0.65612 0.94256 0.97059 0.0
C1557 C 0.67565 0.88813 0.92632 0.0
C1558 C 0.70324 0.89486 0.92652 0.0
C1559 C 0.66325 0.8669 0.90602 0.0
C1560 C 0.63482 0.85846 0.9012 0.0
C1561 C 0.62278 0.87377 0.88995 0.0
C1562 C 0.59589 0.86573 0.88571 0.0
C1563 C 0.58086 0.84233 0.89239 0.0
C1564 C 0.59272 0.8269 0.90322 0.0
C1565 C 0.61961 0.83486 0.90752 0.0
H1566 H 0.56004 0.83615 0.88911 0.0
H1567 H 0.8219 0.91993 0.91099 0.0
H1568 H 0.9056 0.72117 0.12487 0.0
H1569 H 0.92507 0.69159 0.10256 0.0
H1570 H 0.84886 0.63813 0.09085 0.0
H1571 H 0.82923 0.66772 0.11369 0.0
H1572 H 0.87978 0.61937 0.11587 0.0
H1573 H 0.88625 0.66331 0.0266 0.0
H1574 H 0.89632 0.69966 0.99758 0.0
H1575 H 0.977 0.71917 0.0203 0.0
H1576 H 0.96741 0.68313 0.04977 0.0
H1577 H 0.94826 0.54219 0.0414 0.0
H1578 H 0.91774 0.56447 0.05241 0.0
H1579 H 0.98168 0.62952 0.0764 0.0
H1580 H 1.0121 0.60751 0.06626 0.0
H1581 H 0.94961 0.63727 0.03544 0.0
H1582 H 0.94077 0.59712 0.13203 0.0
H1583 H 0.93046 0.56116 0.16189 0.0
H1584 H 0.85366 0.53416 0.12356 0.0
H1585 H 0.86365 0.56986 0.0932 0.0
C1586 C 0.89295 0.70324 0.11707 0.0
C1587 C 0.86588 0.69679 0.12095 0.0
C1588 C 0.90409 0.68634 0.10421 0.0
C1589 C 0.88842 0.66271 0.09449 0.0
C1590 C 0.86134 0.65626 0.09806 0.0
C1591 C 0.85016 0.67315 0.11119 0.0
C1592 C 0.90061 0.64448 0.08267 0.0
C1593 C 0.89465 0.62307 0.09779 0.0
C1594 C 0.92008 0.64924 0.05912 0.0
C1595 C 0.92604 0.67062 0.0407 0.0
C1596 C 0.90611 0.67543 0.02558 0.0
C1597 C 0.91174 0.69599 0.00906 0.0
C1598 C 0.93724 0.71183 0.00738 0.0
C1599 C 0.95723 0.70696 0.02181 0.0
C1600 C 0.95172 0.68643 0.03835 0.0
C1601 C 0.95575 0.56116 0.04946 0.0
C1602 C 0.98261 0.57306 0.053 0.0
C1603 C 0.9383 0.57389 0.05546 0.0
C1604 C 0.94747 0.59872 0.06474 0.0
C1605 C 0.9742 0.61042 0.06894 0.0
C1606 C 0.99155 0.59773 0.06336 0.0
C1607 C 0.92964 0.61297 0.06979 0.0
C1608 C 0.93441 0.63347 0.05314 0.0
C1609 C 0.90903 0.60733 0.09177 0.0
C1610 C 0.90304 0.586 0.11014 0.0
C1611 C 0.92175 0.58343 0.12983 0.0
C1612 C 0.91596 0.56312 0.14686 0.0
C1613 C 0.89145 0.54536 0.14456 0.0
C1614 C 0.87265 0.54791 0.12529 0.0
C1615 C 0.87836 0.56818 0.10818 0.0
H1616 H 0.887 0.52964 0.15776 0.0
H1617 H 0.94154 0.7278 0.99472 0.0
H1618 H 0.35723 0.8105 0.21389 0.0
H1619 H 0.39298 0.84257 0.19255 0.0
H1620 H 0.34252 0.8847 0.18527 0.0
H1621 H 0.30628 0.85235 0.20641 0.0
H1622 H 0.38043 0.88876 0.13514 0.0
H1623 H 0.37534 0.89395 0.24682 0.0
H1624 H 0.37055 0.87614 0.29728 0.0
H1625 H 0.4433 0.86355 0.28211 0.0
H1626 H 0.44787 0.88007 0.23072 0.0
H1627 H 0.49195 0.99089 0.1171 0.0
H1628 H 0.45101 0.9675 0.14109 0.0
H1629 H 0.48661 0.91686 0.16763 0.0
H1630 H 0.5276 0.94034 0.14472 0.0
H1631 H 0.45258 0.9219 0.21084 0.0
H1632 H 0.45513 0.91033 0.0984 0.0
H1633 H 0.4598 0.92411 0.04547 0.0
H1634 H 0.39301 0.94683 0.0609 0.0
H1635 H 0.38831 0.9337 0.11434 0.0
C1636 C 0.35352 0.82634 0.20718 0.0
C1637 C 0.32902 0.82906 0.21228 0.0
C1638 C 0.37399 0.84465 0.19495 0.0
C1639 C 0.37049 0.86617 0.18795 0.0
C1640 C 0.3456 0.86823 0.19067 0.0
C1641 C 0.32494 0.84976 0.20276 0.0
C1642 C 0.39348 0.88722 0.1812 0.0
C1643 C 0.39601 0.89638 0.15185 0.0
C1644 C 0.41388 0.89689 0.20303 0.0
C1645 C 0.41187 0.88816 0.23474 0.0
C1646 C 0.39027 0.88728 0.25412 0.0
C1647 C 0.38756 0.87737 0.2829 0.0
C1648 C 0.40669 0.86888 0.29301 0.0
C1649 C 0.42852 0.87018 0.27428 0.0
C1650 C 0.43112 0.87973 0.24524 0.0
C1651 C 0.49125 0.97508 0.12867 0.0
C1652 C 0.51302 0.96731 0.12848 0.0
C1653 C 0.46779 0.96169 0.1423 0.0
C1654 C 0.46558 0.94011 0.1555 0.0
C1655 C 0.48778 0.93337 0.15745 0.0
C1656 C 0.51126 0.94684 0.14417 0.0
C1657 C 0.43989 0.92315 0.16445 0.0
C1658 C 0.43682 0.91469 0.19431 0.0
C1659 C 0.41913 0.91398 0.14297 0.0
C1660 C 0.42158 0.92133 0.11056 0.0
C1661 C 0.44161 0.91852 0.09067 0.0
C1662 C 0.4443 0.92626 0.06058 0.0
C1663 C 0.42681 0.93647 0.04986 0.0
C1664 C 0.40658 0.93896 0.06925 0.0
C1665 C 0.40391 0.9314 0.09947 0.0
H1666 H 0.42886 0.94234 0.02649 0.0
H1667 H 0.40457 0.86126 0.31533 0.0
H1668 H 0.77647 0.21542 0.18773 0.0
H1669 H 0.74676 0.18748 0.14983 0.0
H1670 H 0.70318 0.23647 0.14847 0.0
H1671 H 0.73287 0.26463 0.18633 0.0
H1672 H 0.67691 0.19332 0.17358 0.0
H1673 H 0.72494 0.2197 0.08211 0.0
H1674 H 0.76229 0.23141 0.04594 0.0
H1675 H 0.76779 0.16024 0.04352 0.0
H1676 H 0.73073 0.14817 0.08012 0.0
H1677 H 0.5729 0.1102 0.09304 0.0
H1678 H 0.6108 0.14569 0.1033 0.0
H1679 H 0.65855 0.10064 0.10753 0.0
H1680 H 0.62043 0.06448 0.09664 0.0
H1681 H 0.68248 0.14368 0.07595 0.0
H1682 H 0.63863 0.11976 0.17311 0.0
H1683 H 0.60072 0.10781 0.20852 0.0
H1684 H 0.5883 0.17525 0.19995 0.0
H1685 H 0.62595 0.18746 0.16413 0.0
C1686 C 0.76106 0.22062 0.17861 0.0
C1687 C 0.75652 0.24187 0.19064 0.0
C1688 C 0.74428 0.20475 0.15666 0.0
C1689 C 0.72273 0.20988 0.14659 0.0
C1690 C 0.71979 0.23227 0.15601 0.0
C1691 C 0.7367 0.24828 0.17776 0.0
C1692 C 0.70046 0.18988 0.13324 0.0
C1693 C 0.67795 0.18284 0.15181 0.0
C1694 C 0.70232 0.17573 0.1055 0.0
C1695 C 0.72517 0.1831 0.08421 0.0
C1696 C 0.73431 0.20662 0.07425 0.0
C1697 C 0.75539 0.21331 0.05355 0.0
C1698 C 0.76746 0.19661 0.04253 0.0
C1699 C 0.75846 0.17317 0.05214 0.0
C1700 C 0.7374 0.1664 0.07285 0.0
C1701 C 0.59135 0.10761 0.09623 0.0
C1702 C 0.59346 0.08436 0.09474 0.0
C1703 C 0.61305 0.12802 0.10183 0.0
C1704 C 0.6373 0.1257 0.10645 0.0
C1705 C 0.63987 0.10268 0.10399 0.0
C1706 C 0.61806 0.08209 0.09814 0.0
C1707 C 0.65928 0.14734 0.11642 0.0
C1708 C 0.68158 0.15447 0.09746 0.0
C1709 C 0.65749 0.16165 0.14398 0.0
C1710 C 0.63494 0.15441 0.16569 0.0
C1711 C 0.62769 0.13196 0.17858 0.0
C1712 C 0.60627 0.12516 0.19876 0.0
C1713 C 0.59207 0.14073 0.20641 0.0
C1714 C 0.5993 0.16318 0.19397 0.0
C1715 C 0.62068 0.17007 0.17375 0.0
H1716 H 0.57549 0.13543 0.22204 0.0
H1717 H 0.78377 0.20182 0.02651 0.0
H1718 H 0.69665 0.70697 0.78676 0.0
H1719 H 0.66486 0.67739 0.81723 0.0
H1720 H 0.72645 0.67288 0.87362 0.0
H1721 H 0.75835 0.70187 0.84277 0.0
H1722 H 0.69327 0.62998 0.86482 0.0
H1723 H 0.68555 0.70647 0.89809 0.0
H1724 H 0.67937 0.7457 0.89398 0.0
H1725 H 0.60307 0.7094 0.85684 0.0
H1726 H 0.60901 0.66995 0.86009 0.0
H1727 H 0.60068 0.57416 0.98665 0.0
H1728 H 0.63698 0.60293 0.95962 0.0
H1729 H 0.58576 0.60077 0.88484 0.0
H1730 H 0.55001 0.57208 0.91087 0.0
H1731 H 0.61571 0.64826 0.90782 0.0
H1732 H 0.62643 0.57163 0.87222 0.0
H1733 H 0.63301 0.53309 0.88008 0.0
H1734 H 0.70471 0.57159 0.92716 0.0
H1735 H 0.69836 0.61037 0.91993 0.0
C1736 C 0.70351 0.69953 0.80543 0.0
C1737 C 0.7302 0.707 0.8122 0.0
C1738 C 0.68522 0.68269 0.8231 0.0
C1739 C 0.69302 0.67311 0.84835 0.0
C1740 C 0.71973 0.67995 0.85446 0.0
C1741 C 0.73804 0.69663 0.83668 0.0
C1742 C 0.67342 0.65626 0.86856 0.0
C1743 C 0.67655 0.63425 0.87454 0.0
C1744 C 0.65137 0.66151 0.88144 0.0
C1745 C 0.64786 0.68523 0.87899 0.0
C1746 C 0.66757 0.70685 0.88871 0.0
C1747 C 0.66409 0.72913 0.88658 0.0
C1748 C 0.64088 0.73004 0.87506 0.0
C1749 C 0.62108 0.70867 0.86566 0.0
C1750 C 0.6245 0.68634 0.86763 0.0
C1751 C 0.59726 0.57964 0.96431 0.0
C1752 C 0.57232 0.57056 0.951 0.0
C1753 C 0.61801 0.59612 0.94889 0.0
C1754 C 0.61411 0.60409 0.92014 0.0
C1755 C 0.58931 0.59501 0.90697 0.0
C1756 C 0.56883 0.5784 0.92196 0.0
C1757 C 0.63544 0.62203 0.90346 0.0
C1758 C 0.6326 0.64422 0.89821 0.0
C1759 C 0.65787 0.61712 0.89168 0.0
C1760 C 0.66178 0.59386 0.89585 0.0
C1761 C 0.64349 0.57186 0.88448 0.0
C1762 C 0.64719 0.54998 0.88877 0.0
C1763 C 0.66922 0.54989 0.9042 0.0
C1764 C 0.68763 0.57168 0.91527 0.0
C1765 C 0.684 0.59362 0.91106 0.0
H1766 H 0.67206 0.53293 0.9075 0.0
H1767 H 0.63821 0.74731 0.87349 0.0
H1768 H 0.36902 0.68142 0.85928 0.0
H1769 H 0.38805 0.6698 0.90269 0.0
H1770 H 0.45192 0.73716 0.90408 0.0
H1771 H 0.43347 0.74837 0.85931 0.0
H1772 H 0.47052 0.70355 0.89999 0.0
H1773 H 0.41122 0.72033 0.96867 0.0
H1774 H 0.37136 0.72413 0.99368 0.0
H1775 H 0.33976 0.64719 0.99682 0.0
H1776 H 0.37874 0.64264 0.97039 0.0
H1777 H 0.51264 0.62495 0.98782 0.0
H1778 H 0.49941 0.66008 0.98135 0.0
H1779 H 0.42945 0.61356 0.93563 0.0
H1780 H 0.44242 0.57838 0.94199 0.0
H1781 H 0.42268 0.6503 0.98075 0.0
H1782 H 0.48015 0.64003 0.89269 0.0
H1783 H 0.52253 0.63861 0.87229 0.0
H1784 H 0.56043 0.70952 0.91628 0.0
H1785 H 0.51825 0.71118 0.93731 0.0
C1786 C 0.38706 0.69383 0.8689 0.0
C1787 C 0.40011 0.7155 0.85534 0.0
C1788 C 0.39766 0.68742 0.89428 0.0
C1789 C 0.42139 0.70267 0.90692 0.0
C1790 C 0.43356 0.72512 0.89479 0.0
C1791 C 0.42302 0.73149 0.86918 0.0
C1792 C 0.43546 0.69285 0.92808 0.0
C1793 C 0.46036 0.69274 0.91861 0.0
C1794 C 0.42251 0.67887 0.95269 0.0
C1795 C 0.39813 0.68117 0.96724 0.0
C1796 C 0.39562 0.70412 0.97407 0.0
C1797 C 0.3731 0.70641 0.98853 0.0
C1798 C 0.35306 0.68592 0.99689 0.0
C1799 C 0.35532 0.66306 0.99038 0.0
C1800 C 0.37762 0.66061 0.97549 0.0
C1801 C 0.49442 0.62222 0.9764 0.0
C1802 C 0.47863 0.59896 0.96513 0.0
C1803 C 0.48688 0.64226 0.97295 0.0
C1804 C 0.4635 0.63927 0.95813 0.0
C1805 C 0.44752 0.61609 0.94732 0.0
C1806 C 0.45509 0.59608 0.95059 0.0
C1807 C 0.45637 0.66024 0.95119 0.0
C1808 C 0.43301 0.66229 0.9634 0.0
C1809 C 0.47096 0.67653 0.92987 0.0
C1810 C 0.49616 0.6756 0.91686 0.0
C1811 C 0.49755 0.65523 0.89818 0.0
C1812 C 0.52152 0.6544 0.88649 0.0
C1813 C 0.54417 0.67393 0.89309 0.0
C1814 C 0.54288 0.69438 0.91127 0.0
C1815 C 0.51896 0.69528 0.92308 0.0
H1816 H 0.5627 0.67323 0.88405 0.0
H1817 H 0.33579 0.68778 0.00844 0.0
H1818 H 0.33841 0.35204 0.78199 0.0
H1819 H 0.36999 0.3841 0.81398 0.0
H1820 H 0.40278 0.33225 0.84322 0.0
H1821 H 0.37132 0.30012 0.81158 0.0
H1822 H 0.3892 0.3584 0.89235 0.0
H1823 H 0.43615 0.37401 0.7948 0.0
H1824 H 0.44145 0.38291 0.73956 0.0
H1825 H 0.42476 0.44872 0.76264 0.0
H1826 H 0.41902 0.44005 0.81798 0.0
H1827 H 0.49899 0.43236 0.97489 0.0
H1828 H 0.46971 0.40424 0.93682 0.0
H1829 H 0.44559 0.46194 0.90835 0.0
H1830 H 0.47551 0.49047 0.94591 0.0
H1831 H 0.45285 0.43446 0.85886 0.0
H1832 H 0.40721 0.42056 0.95574 0.0
H1833 H 0.40141 0.41263 0.01129 0.0
H1834 H 0.41341 0.34445 0.99014 0.0
H1835 H 0.41977 0.35217 0.93451 0.0
C1836 C 0.35268 0.34753 0.79472 0.0
C1837 C 0.35221 0.32349 0.79444 0.0
C1838 C 0.37071 0.36589 0.81298 0.0
C1839 C 0.38861 0.36048 0.83104 0.0
C1840 C 0.389 0.33673 0.82958 0.0
C1841 C 0.37104 0.31841 0.81137 0.0
C1842 C 0.40567 0.37909 0.85327 0.0
C1843 C 0.40337 0.3749 0.88501 0.0
C1844 C 0.42336 0.401 0.84373 0.0
C1845 C 0.42689 0.40625 0.81048 0.0
C1846 C 0.43339 0.39028 0.78806 0.0
C1847 C 0.43652 0.3953 0.75673 0.0
C1848 C 0.43337 0.41633 0.74758 0.0
C1849 C 0.42716 0.43242 0.76975 0.0
C1850 C 0.42399 0.42747 0.8011 0.0
C1851 C 0.4874 0.43909 0.96062 0.0
C1852 C 0.48939 0.46359 0.96356 0.0
C1853 C 0.47063 0.42297 0.93891 0.0
C1854 C 0.45516 0.43093 0.92013 0.0
C1855 C 0.45732 0.45544 0.9227 0.0
C1856 C 0.47434 0.47167 0.94422 0.0
C1857 C 0.43675 0.41353 0.89788 0.0
C1858 C 0.43864 0.418 0.86622 0.0
C1859 C 0.41843 0.39195 0.90752 0.0
C1860 C 0.41418 0.38705 0.94094 0.0
C1861 C 0.40878 0.40394 0.96294 0.0
C1862 C 0.40539 0.39948 0.99445 0.0
C1863 C 0.40709 0.37807 0.00425 0.0
C1864 C 0.41212 0.36104 0.98252 0.0
C1865 C 0.41561 0.36545 0.95098 0.0
H1866 H 0.40446 0.37465 0.02866 0.0
H1867 H 0.43581 0.42019 0.72332 0.0
H1868 H 0.73514 0.35874 0.91906 0.0
H1869 H 0.72221 0.38355 0.96067 0.0
H1870 H 0.64561 0.33027 0.96219 0.0
H1871 H 0.65823 0.30585 0.9198 0.0
H1872 H 0.64987 0.37143 0.93288 0.0
H1873 H 0.67444 0.35029 0.02879 0.0
H1874 H 0.70321 0.34364 0.06722 0.0
H1875 H 0.75127 0.41814 0.06839 0.0
H1876 H 0.72293 0.42519 0.02968 0.0
H1877 H 0.57035 0.42076 0.01259 0.0
H1878 H 0.6002 0.39821 0.00831 0.0
H1879 H 0.66453 0.46347 0.99675 0.0
H1880 H 0.63431 0.48678 1.00134 0.0
H1881 H 0.67259 0.42142 0.03334 0.0
H1882 H 0.64626 0.44034 0.93409 0.0
H1883 H 0.61345 0.44527 0.89982 0.0
H1884 H 0.56595 0.37147 0.90821 0.0
H1885 H 0.59833 0.36624 0.9429 0.0
C1886 C 0.71595 0.35181 0.92942 0.0
C1887 C 0.69733 0.33087 0.91594 0.0
C1888 C 0.70869 0.36588 0.9534 0.0
C1889 C 0.68288 0.35888 0.96401 0.0
C1890 C 0.66562 0.33593 0.9541 0.0
C1891 C 0.67269 0.32213 0.92974 0.0
C1892 C 0.6719 0.37778 0.97529 0.0
C1893 C 0.65475 0.38214 0.95504 0.0
C1894 C 0.67927 0.39251 1.0034 0.0
C1895 C 0.69679 0.38818 0.02594 0.0
C1896 C 0.69137 0.36518 0.03687 0.0
C1897 C 0.70752 0.36136 0.05884 0.0
C1898 C 0.72912 0.38043 0.07014 0.0
C1899 C 0.73457 0.40337 0.05955 0.0
C1900 C 0.71845 0.40729 0.03762 0.0
C1901 C 0.59086 0.43045 0.00938 0.0
C1902 C 0.60002 0.45533 0.00613 0.0
C1903 C 0.60797 0.41758 0.00781 0.0
C1904 C 0.63445 0.4292 1.00244 0.0
C1905 C 0.64409 0.45433 1.00125 0.0
C1906 C 0.62686 0.46746 1.00328 0.0
C1907 C 0.65012 0.41412 0.99136 0.0
C1908 C 0.66831 0.41082 0.01107 0.0
C1909 C 0.64375 0.40003 0.96273 0.0
C1910 C 0.62466 0.40294 0.9411 0.0
C1911 C 0.62877 0.42521 0.92869 0.0
C1912 C 0.61025 0.42805 0.90921 0.0
C1913 C 0.58762 0.40869 0.90185 0.0
C1914 C 0.5835 0.38643 0.91389 0.0
C1915 C 0.60194 0.38351 0.93341 0.0
H1916 H 0.57329 0.41094 0.88681 0.0
H1917 H 0.74158 0.37745 0.08718 0.0
H1918 H 0.71989 0.39584 0.19394 0.0
H1919 H 0.69263 0.41202 0.16478 0.0
H1920 H 0.63141 0.3429 0.16194 0.0
H1921 H 0.6589 0.3265 0.19029 0.0
H1922 H 0.63382 0.3623 0.10866 0.0
H1923 H 0.63057 0.38877 0.21652 0.0
H1924 H 0.64889 0.40755 0.26775 0.0
H1925 H 0.68549 0.47519 0.22798 0.0
H1926 H 0.6677 0.45672 0.1764 0.0
H1927 H 0.54119 0.43349 0.09472 0.0
H1928 H 0.55991 0.40445 0.11245 0.0
H1929 H 0.63659 0.45089 0.08865 0.0
H1930 H 0.61818 0.48125 0.07469 0.0
H1931 H 0.61939 0.43671 0.15608 0.0
H1932 H 0.6407 0.37553 0.05316 0.0
H1933 H 0.62181 0.35155 0.0047 0.0
H1934 H 0.54555 0.34856 0.03697 0.0
H1935 H 0.56385 0.37115 0.0862 0.0
C1936 C 0.7007 0.38411 0.1868 0.0
C1937 C 0.69136 0.36003 0.19447 0.0
C1938 C 0.68514 0.39333 0.17026 0.0
C1939 C 0.65979 0.37878 0.16183 0.0
C1940 C 0.65086 0.35444 0.16833 0.0
C1941 C 0.66656 0.34511 0.18448 0.0
C1942 C 0.64223 0.38926 0.14746 0.0
C1943 C 0.63052 0.37855 0.11894 0.0
C1944 C 0.63752 0.41005 0.16146 0.0
C1945 C 0.64793 0.42131 0.19256 0.0
C1946 C 0.64263 0.40762 0.21867 0.0
C1947 C 0.65292 0.41821 0.24777 0.0
C1948 C 0.66838 0.44253 0.2511 0.0
C1949 C 0.67353 0.45634 0.22536 0.0
C1950 C 0.66332 0.44583 0.1962 0.0
C1951 C 0.56198 0.43718 0.09276 0.0
C1952 C 0.57834 0.45947 0.0835 0.0
C1953 C 0.5726 0.4203 0.10209 0.0
C1954 C 0.59953 0.42483 0.10017 0.0
C1955 C 0.61569 0.4467 0.08937 0.0
C1956 C 0.60524 0.46411 0.0818 0.0
C1957 C 0.61163 0.41033 0.11652 0.0
C1958 C 0.62248 0.42038 0.14569 0.0
C1959 C 0.61515 0.38874 0.10314 0.0
C1960 C 0.60389 0.37646 0.07275 0.0
C1961 C 0.61996 0.37017 0.04964 0.0
C1962 C 0.60932 0.35643 0.02222 0.0
C1963 C 0.58255 0.34889 0.01749 0.0
C1964 C 0.56636 0.3548 0.04038 0.0
C1965 C 0.57691 0.36822 0.06806 0.0
H1966 H 0.57434 0.33834 0.9962 0.0
H1967 H 0.67633 0.4507 0.27364 0.0
H1968 H 0.69703 0.7286 0.24467 0.0
H1969 H 0.66269 0.69813 0.21502 0.0
H1970 H 0.71346 0.65599 0.19384 0.0
H1971 H 0.74863 0.68744 0.22213 0.0
H1972 H 0.69096 0.65697 0.14411 0.0
H1973 H 0.65867 0.6387 0.24604 0.0
H1974 H 0.64608 0.64635 0.30056 0.0
H1975 H 0.58821 0.6736 0.26939 0.0
H1976 H 0.60068 0.66643 0.21468 0.0
H1977 H 0.58025 0.55677 0.08566 0.0
H1978 H 0.61537 0.58155 0.12031 0.0
H1979 H 0.58884 0.64242 0.1156 0.0
H1980 H 0.55398 0.61793 0.08021 0.0
H1981 H 0.59906 0.62755 0.17985 0.0
H1982 H 0.63602 0.64702 0.07656 0.0
H1983 H 0.64771 0.63513 0.02315 0.0
H1984 H 0.69671 0.60026 0.05992 0.0
H1985 H 0.68488 0.61153 0.11358 0.0
C1986 C 0.70078 0.71264 0.23419 0.0
C1987 C 0.72546 0.71031 0.23581 0.0
C1988 C 0.68104 0.69512 0.21732 0.0
C1989 C 0.68525 0.67447 0.20259 0.0
C1990 C 0.70971 0.67174 0.20502 0.0
C1991 C 0.72973 0.68962 0.2213 0.0
C1992 C 0.66463 0.65673 0.18296 0.0
C1993 C 0.67098 0.65021 0.15225 0.0
C1994 C 0.63844 0.64794 0.19332 0.0
C1995 C 0.63074 0.65216 0.22623 0.0
C1996 C 0.64337 0.64646 0.2508 0.0
C1997 C 0.63624 0.6507 0.28175 0.0
C1998 C 0.61639 0.66049 0.28843 0.0
C1999 C 0.60358 0.66602 0.26418 0.0
C2000 C 0.61065 0.66183 0.23319 0.0
C2001 C 0.58193 0.57546 0.09196 0.0
C2002 C 0.56446 0.58551 0.0803 0.0
C2003 C 0.60196 0.58952 0.11168 0.0
C2004 C 0.60449 0.61366 0.1204 0.0
C2005 C 0.58701 0.62374 0.10904 0.0
C2006 C 0.56728 0.60982 0.08878 0.0
C2007 C 0.62553 0.62848 0.14134 0.0
C2008 C 0.61917 0.63426 0.17214 0.0
C2009 C 0.65172 0.63611 0.13133 0.0
C2010 C 0.65933 0.62988 0.09908 0.0
C2011 C 0.64911 0.63663 0.07326 0.0
C2012 C 0.65578 0.63003 0.04294 0.0
C2013 C 0.67288 0.61689 0.03814 0.0
C2014 C 0.68343 0.6104 0.06367 0.0
C2015 C 0.67675 0.6169 0.09404 0.0
H2016 H 0.678 0.61177 0.01465 0.0
H2017 H 0.61091 0.66376 0.31241 0.0
H2018 H 0.40715 0.72173 0.1736 0.0
H2019 H 0.41745 0.70301 0.12411 0.0
H2020 H 0.34049 0.69197 0.0906 0.0
H2021 H 0.33014 0.71091 0.14018 0.0
H2022 H 0.3529 0.65031 0.08849 0.0
H2023 H 0.38754 0.72578 0.05179 0.0
H2024 H 0.41117 0.76915 0.04895 0.0
H2025 H 0.48362 0.75709 0.05959 0.0
H2026 H 0.46054 0.7137 0.06286 0.0
H2027 H 0.42367 0.5777 0.01088 0.0
H2028 H 0.39695 0.60413 0.0121 0.0
H2029 H 0.45266 0.65687 0.07309 0.0
H2030 H 0.47952 0.63132 0.07096 0.0
H2031 H 0.43665 0.679 0.03135 0.0
H2032 H 0.39332 0.61114 0.09987 0.0
H2033 H 0.36979 0.56793 0.10582 0.0
H2034 H 0.31473 0.56758 0.03694 0.0
H2035 H 0.3381 0.61076 0.03051 0.0
C2036 C 0.39261 0.71562 0.15549 0.0
C2037 C 0.36789 0.71759 0.16061 0.0
C2038 C 0.39857 0.70525 0.12712 0.0
C2039 C 0.37981 0.69648 0.10358 0.0
C2040 C 0.35528 0.69897 0.10834 0.0
C2041 C 0.34943 0.70968 0.13661 0.0
C2042 C 0.38497 0.68143 0.0766 0.0
C2043 C 0.37073 0.65668 0.075 0.0
C2044 C 0.40788 0.68986 0.05857 0.0
C2045 C 0.42216 0.7162 0.05718 0.0
C2046 C 0.40851 0.73229 0.05356 0.0
C2047 C 0.42183 0.75695 0.05189 0.0
C2048 C 0.44888 0.76586 0.05397 0.0
C2049 C 0.46266 0.75014 0.0578 0.0
C2050 C 0.44944 0.72545 0.05942 0.0
C2051 C 0.43003 0.59492 0.02462 0.0
C2052 C 0.45354 0.6024 0.04106 0.0
C2053 C 0.41487 0.61003 0.02512 0.0
C2054 C 0.42282 0.6325 0.04265 0.0
C2055 C 0.44628 0.6398 0.05899 0.0
C2056 C 0.4615 0.62501 0.05809 0.0
C2057 C 0.40635 0.64806 0.04689 0.0
C2058 C 0.41817 0.67288 0.04356 0.0
C2059 C 0.38139 0.6398 0.06071 0.0
C2060 C 0.36754 0.61396 0.06448 0.0
C2061 C 0.37625 0.60176 0.08594 0.0
C2062 C 0.36296 0.57732 0.08939 0.0
C2063 C 0.34082 0.565 0.07169 0.0
C2064 C 0.33191 0.57712 0.05056 0.0
C2065 C 0.34516 0.60156 0.04699 0.0
H2066 H 0.33055 0.54608 0.07441 0.0
H2067 H 0.45917 0.78497 0.05269 0.0
H2068 H 0.30661 0.31596 0.17665 0.0
H2069 H 0.33555 0.34757 0.14619 0.0
H2070 H 0.36997 0.38829 0.23105 0.0
H2071 H 0.34099 0.35697 0.26164 0.0
H2072 H 0.36324 0.418 0.1917 0.0
H2073 H 0.39957 0.35377 0.18465 0.0
H2074 H 0.39998 0.31216 0.17282 0.0
H2075 H 0.38395 0.31519 0.07668 0.0
H2076 H 0.38303 0.35672 0.08804 0.0
H2077 H 0.48658 0.49209 0.13947 0.0
H2078 H 0.44993 0.46231 0.16342 0.0
H2079 H 0.41907 0.43257 0.07237 0.0
H2080 H 0.45575 0.46264 0.04812 0.0
H2081 H 0.42094 0.39723 0.11048 0.0
H2082 H 0.3882 0.46304 0.1173 0.0
H2083 H 0.38924 0.50504 0.12954 0.0
H2084 H 0.39992 0.4994 0.22651 0.0
H2085 H 0.39932 0.45744 0.2148 0.0
C2086 C 0.32023 0.3317 0.1889 0.0
C2087 C 0.32147 0.33375 0.22171 0.0
C2088 C 0.3369 0.34976 0.17138 0.0
C2089 C 0.35532 0.37029 0.18618 0.0
C2090 C 0.35604 0.37269 0.21895 0.0
C2091 C 0.33942 0.35466 0.23647 0.0
C2092 C 0.37417 0.38908 0.16774 0.0
C2093 C 0.37599 0.41342 0.17414 0.0
C2094 C 0.39047 0.38324 0.14414 0.0
C2095 C 0.39086 0.35823 0.13729 0.0
C2096 C 0.39586 0.34547 0.16105 0.0
C2097 C 0.39624 0.32192 0.15442 0.0
C2098 C 0.3919 0.311 0.12404 0.0
C2099 C 0.38723 0.32365 0.10022 0.0
C2100 C 0.38678 0.34719 0.10674 0.0
C2101 C 0.47181 0.47947 0.12448 0.0
C2102 C 0.4741 0.4799 0.09184 0.0
C2103 C 0.4508 0.46243 0.13825 0.0
C2104 C 0.43159 0.44518 0.11979 0.0
C2105 C 0.43358 0.4457 0.08715 0.0
C2106 C 0.45446 0.46304 0.07332 0.0
C2107 C 0.4102 0.4261 0.13477 0.0
C2108 C 0.40797 0.40174 0.12778 0.0
C2109 C 0.39361 0.43192 0.15791 0.0
C2110 C 0.39393 0.45714 0.16512 0.0
C2111 C 0.39099 0.47081 0.1412 0.0
C2112 C 0.39146 0.4946 0.14805 0.0
C2113 C 0.3947 0.5049 0.17878 0.0
C2114 C 0.39743 0.4914 0.20272 0.0
C2115 C 0.39699 0.4676 0.19599 0.0
H2116 H 0.39506 0.52332 0.18403 0.0
H2117 H 0.39222 0.29277 0.11895 0.0
H2118 H 0.79115 0.70824 0.67497 0.0
H2119 H 0.81319 0.68398 0.64283 0.0
H2120 H 0.87484 0.70376 0.70967 0.0
H2121 H 0.85309 0.72811 0.7414 0.0
H2122 H 0.89884 0.70194 0.65888 0.0
H2123 H 0.82124 0.64132 0.69183 0.0
H2124 H 0.77404 0.62105 0.69783 0.0
H2125 H 0.7653 0.61342 0.59835 0.0
H2126 H 0.81243 0.63391 0.59178 0.0
H2127 H 0.9618 0.61651 0.60264 0.0
H2128 H 0.93707 0.63957 0.63044 0.0
H2129 H 0.87971 0.61679 0.55818 0.0
H2130 H 0.90458 0.59279 0.5302 0.0
H2131 H 0.85269 0.62049 0.60892 0.0
H2132 H 0.92966 0.68012 0.5754 0.0
H2133 H 0.97666 0.70087 0.56847 0.0
H2134 H 0.98635 0.7113 0.66782 0.0
H2135 H 0.93944 0.69035 0.67535 0.0
C2136 C 0.80935 0.7075 0.68319 0.0
C2137 C 0.81964 0.72076 0.71177 0.0
C2138 C 0.82221 0.69313 0.66448 0.0
C2139 C 0.84633 0.69086 0.67296 0.0
C2140 C 0.85662 0.70437 0.70137 0.0
C2141 C 0.84377 0.7186 0.72004 0.0
C2142 C 0.86095 0.67521 0.65281 0.0
C2143 C 0.88838 0.684 0.64855 0.0
C2144 C 0.84856 0.65163 0.63748 0.0
C2145 C 0.82029 0.63938 0.64134 0.0
C2146 C 0.80921 0.63547 0.67125 0.0
C2147 C 0.78248 0.62392 0.67475 0.0
C2148 C 0.76667 0.61602 0.64849 0.0
C2149 C 0.77757 0.61959 0.61867 0.0
C2150 C 0.80428 0.63116 0.61504 0.0
C2151 C 0.94401 0.61621 0.59205 0.0
C2152 C 0.93605 0.60217 0.56321 0.0
C2153 C 0.92958 0.63 0.60836 0.0
C2154 C 0.90596 0.63129 0.59712 0.0
C2155 C 0.8976 0.61699 0.56839 0.0
C2156 C 0.91217 0.603 0.55193 0.0
C2157 C 0.8906 0.64715 0.61538 0.0
C2158 C 0.86311 0.63843 0.61929 0.0
C2159 C 0.90289 0.6709 0.6303 0.0
C2160 C 0.93108 0.68345 0.62592 0.0
C2161 C 0.94185 0.6867 0.59576 0.0
C2162 C 0.96847 0.69852 0.59173 0.0
C2163 C 0.98449 0.70734 0.61769 0.0
C2164 C 0.97392 0.70442 0.64774 0.0
C2165 C 0.94731 0.69259 0.6519 0.0
H2166 H 1.0051 0.71649 0.61452 0.0
H2167 H 0.74598 0.60708 0.65125 0.0
H2168 H 0.35631 0.80101 0.68171 0.0
H2169 H 0.38203 0.83565 0.65363 0.0
H2170 H 0.33296 0.87587 0.6912 0.0
H2171 H 0.3063 0.84076 0.71771 0.0
H2172 H 0.34701 0.8888 0.63612 0.0
H2173 H 0.39277 0.87772 0.72309 0.0
H2174 H 0.41071 0.85349 0.75334 0.0
H2175 H 0.4647 0.85062 0.67914 0.0
H2176 H 0.44582 0.87346 0.64746 0.0
H2177 H 0.43438 1.0083 0.63143 0.0
H2178 H 0.40705 0.96958 0.6488 0.0
H2179 H 0.4544 0.93388 0.59611 0.0
H2180 H 0.48205 0.97277 0.57837 0.0
H2181 H 0.44196 0.91746 0.65496 0.0
H2182 H 0.39643 0.9309 0.56933 0.0
H2183 H 0.37608 0.95327 0.539 0.0
H2184 H 0.32226 0.95401 0.61416 0.0
H2185 H 0.34266 0.93198 0.64514 0.0
C2186 C 0.35074 0.8171 0.68353 0.0
C2187 C 0.32932 0.81812 0.70213 0.0
C2188 C 0.36559 0.83702 0.6676 0.0
C2189 C 0.36006 0.85884 0.67089 0.0
C2190 C 0.33788 0.85944 0.68827 0.0
C2191 C 0.3226 0.83929 0.70351 0.0
C2192 C 0.37809 0.8814 0.65794 0.0
C2193 C 0.36772 0.89513 0.64055 0.0
C2194 C 0.40534 0.88969 0.6631 0.0
C2195 C 0.41763 0.87706 0.68272 0.0
C2196 C 0.40834 0.87179 0.71309 0.0
C2197 C 0.41862 0.85821 0.73046 0.0
C2198 C 0.43897 0.85065 0.71828 0.0
C2199 C 0.44894 0.85649 0.68855 0.0
C2200 C 0.43829 0.86958 0.67076 0.0
C2201 C 0.43922 0.99231 0.62355 0.0
C2202 C 0.46059 0.99386 0.60338 0.0
C2203 C 0.42337 0.97006 0.63343 0.0
C2204 C 0.42834 0.94864 0.62347 0.0
C2205 C 0.45004 0.9501 0.60404 0.0
C2206 C 0.46589 0.97241 0.59392 0.0
C2207 C 0.4108 0.92487 0.63347 0.0
C2208 C 0.42127 0.911 0.65039 0.0
C2209 C 0.38361 0.91664 0.62826 0.0
C2210 C 0.37127 0.92992 0.60966 0.0
C2211 C 0.38042 0.93598 0.57948 0.0
C2212 C 0.36884 0.94859 0.56215 0.0
C2213 C 0.34791 0.9551 0.57466 0.0
C2214 C 0.3385 0.94898 0.60451 0.0
C2215 C 0.35007 0.93641 0.62195 0.0
H2216 H 0.33895 0.96485 0.56122 0.0
H2217 H 0.447 0.84025 0.73187 0.0
H2218 H 0.2307 0.36643 0.60768 0.0
H2219 H 0.20341 0.38694 0.5871 0.0
H2220 H 0.14748 0.36306 0.66077 0.0
H2221 H 0.17495 0.34278 0.682 0.0
H2222 H 0.12287 0.35905 0.60518 0.0
H2223 H 0.1888 0.42145 0.66353 0.0
H2224 H 0.23366 0.44544 0.67889 0.0
H2225 H 0.2511 0.46673 0.58553 0.0
H2226 H 0.20641 0.44259 0.5695 0.0
H2227 H 0.05308 0.43856 0.56701 0.0
H2228 H 0.07507 0.41507 0.59272 0.0
H2229 H 0.14459 0.4472 0.539 0.0
H2230 H 0.12374 0.47262 0.51697 0.0
H2231 H 0.16054 0.44627 0.58963 0.0
H2232 H 0.09273 0.38521 0.53154 0.0
H2233 H 0.04841 0.35984 0.51615 0.0
H2234 H 0.0334 0.33531 0.60817 0.0
H2235 H 0.0777 0.36056 0.62406 0.0
C2236 C 0.21281 0.3657 0.61993 0.0
C2237 C 0.20546 0.35294 0.64692 0.0
C2238 C 0.19702 0.37742 0.60791 0.0
C2239 C 0.17331 0.37691 0.62241 0.0
C2240 C 0.16557 0.3638 0.64895 0.0
C2241 C 0.18141 0.3521 0.66108 0.0
C2242 C 0.15706 0.3905 0.61024 0.0
C2243 C 0.13097 0.37821 0.60205 0.0
C2244 C 0.16751 0.41544 0.60566 0.0
C2245 C 0.19433 0.43007 0.61528 0.0
C2246 C 0.20226 0.43113 0.64623 0.0
C2247 C 0.22764 0.44477 0.65506 0.0
C2248 C 0.24524 0.45757 0.63319 0.0
C2249 C 0.23746 0.45679 0.60244 0.0
C2250 C 0.2121 0.44316 0.59348 0.0
C2251 C 0.07298 0.44036 0.5606 0.0
C2252 C 0.08647 0.45713 0.53935 0.0
C2253 C 0.08564 0.42678 0.57522 0.0
C2254 C 0.11172 0.42872 0.56775 0.0
C2255 C 0.12469 0.44511 0.54576 0.0
C2256 C 0.11253 0.45944 0.53252 0.0
C2257 C 0.12623 0.41477 0.58313 0.0
C2258 C 0.15215 0.42708 0.59234 0.0
C2259 C 0.11549 0.3898 0.58843 0.0
C2260 C 0.08867 0.37482 0.57894 0.0
C2261 C 0.08008 0.37431 0.54842 0.0
C2262 C 0.0549 0.36 0.53964 0.0
C2263 C 0.03809 0.34595 0.56116 0.0
C2264 C 0.04644 0.34619 0.5915 0.0
C2265 C 0.07161 0.3605 0.60038 0.0
H2266 H 0.01859 0.33489 0.55434 0.0
H2267 H 0.26488 0.46812 0.64007 0.0
H2268 H 0.75814 0.20146 0.71712 0.0
H2269 H 0.72785 0.17171 0.68152 0.0
H2270 H 0.71445 0.22918 0.63649 0.0
H2271 H 0.74345 0.2589 0.67371 0.0
H2272 H 0.67127 0.20011 0.64735 0.0
H2273 H 0.74595 0.18825 0.59926 0.0
H2274 H 0.78826 0.18159 0.59515 0.0
H2275 H 0.75473 0.11337 0.63451 0.0
H2276 H 0.71229 0.11975 0.63925 0.0
H2277 H 0.61463 0.08037 0.53696 0.0
H2278 H 0.65004 0.11667 0.55438 0.0
H2279 H 0.60706 0.12401 0.63883 0.0
H2280 H 0.57091 0.08818 0.62057 0.0
H2281 H 0.68049 0.12373 0.59914 0.0
H2282 H 0.62485 0.18098 0.66989 0.0
H2283 H 0.584 0.18984 0.66627 0.0
H2284 H 0.58275 0.17217 0.56727 0.0
H2285 H 0.62377 0.16355 0.57021 0.0
C2286 C 0.74932 0.20773 0.699 0.0
C2287 C 0.75311 0.23241 0.69804 0.0
C2288 C 0.73199 0.19069 0.67854 0.0
C2289 C 0.71884 0.19809 0.65603 0.0
C2290 C 0.72413 0.22293 0.65373 0.0
C2291 C 0.74087 0.23992 0.6748 0.0
C2292 C 0.69765 0.17998 0.63737 0.0
C2293 C 0.67345 0.18354 0.63653 0.0
C2294 C 0.70042 0.15852 0.62254 0.0
C2295 C 0.72594 0.15457 0.61978 0.0
C2296 C 0.74763 0.1719 0.60724 0.0
C2297 C 0.77164 0.16816 0.60476 0.0
C2298 C 0.77419 0.14709 0.61461 0.0
C2299 C 0.75273 0.12969 0.6269 0.0
C2300 C 0.72867 0.13334 0.62943 0.0
C2301 C 0.61259 0.08995 0.55906 0.0
C2302 C 0.59014 0.08146 0.57757 0.0
C2303 C 0.63288 0.11065 0.56903 0.0
C2304 C 0.63133 0.12314 0.59794 0.0
C2305 C 0.60858 0.11498 0.61617 0.0
C2306 C 0.58797 0.09447 0.60584 0.0
C2307 C 0.65412 0.14371 0.60977 0.0
C2308 C 0.67852 0.14052 0.60948 0.0
C2309 C 0.65182 0.16593 0.62235 0.0
C2310 C 0.6273 0.17142 0.62035 0.0
C2311 C 0.61594 0.17911 0.64733 0.0
C2312 C 0.59273 0.18407 0.64539 0.0
C2313 C 0.58075 0.18151 0.61657 0.0
C2314 C 0.592 0.17407 0.5896 0.0
C2315 C 0.61521 0.16912 0.59139 0.0
H2316 H 0.56277 0.18532 0.61513 0.0
H2317 H 0.7928 0.14422 0.61267 0.0
H2318 H 0.7873 0.31127 0.38396 0.0
H2319 H 0.809 0.34234 0.42481 0.0
H2320 H 0.88335 0.3475 0.38221 0.0
H2321 H 0.86197 0.31585 0.34235 0.0
H2322 H 0.88917 0.35761 0.44235 0.0
H2323 H 0.84527 0.38148 0.3605 0.0
H2324 H 0.80662 0.37913 0.33071 0.0
H2325 H 0.76983 0.39678 0.41499 0.0
H2326 H 0.80817 0.39891 0.44532 0.0
H2327 H 0.96964 0.47641 0.43536 0.0
H2328 H 0.93996 0.43533 0.42716 0.0
H2329 H 0.88287 0.45391 0.48665 0.0
H2330 H 0.91256 0.49563 0.49453 0.0
H2331 H 0.8618 0.42922 0.43459 0.0
H2332 H 0.9191 0.42001 0.50942 0.0
H2333 H 0.9608 0.42335 0.53266 0.0
H2334 H 0.97742 0.38035 0.45436 0.0
H2335 H 0.93595 0.3768 0.43038 0.0
C2336 C 0.80832 0.31861 0.38384 0.0
C2337 C 0.82294 0.3116 0.35958 0.0
C2338 C 0.82068 0.33634 0.40717 0.0
C2339 C 0.84771 0.34772 0.40601 0.0
C2340 C 0.86244 0.33908 0.38349 0.0
C2341 C 0.85017 0.32105 0.36057 0.0
C2342 C 0.86047 0.37072 0.42477 0.0
C2343 C 0.88324 0.37332 0.44085 0.0
C2344 C 0.85225 0.39103 0.42341 0.0
C2345 C 0.82937 0.39003 0.40519 0.0
C2346 C 0.82886 0.38474 0.37266 0.0
C2347 C 0.80704 0.38344 0.35569 0.0
C2348 C 0.78575 0.38772 0.37096 0.0
C2349 C 0.7863 0.39339 0.40322 0.0
C2350 C 0.80805 0.39463 0.42031 0.0
C2351 C 0.95083 0.47182 0.44688 0.0
C2352 C 0.94338 0.48928 0.46552 0.0
C2353 C 0.93397 0.44822 0.4424 0.0
C2354 C 0.90949 0.44139 0.45698 0.0
C2355 C 0.90184 0.45877 0.47553 0.0
C2356 C 0.9187 0.48258 0.47981 0.0
C2357 C 0.89143 0.41647 0.45065 0.0
C2358 C 0.86749 0.41349 0.4371 0.0
C2359 C 0.89912 0.39601 0.4535 0.0
C2360 C 0.92411 0.39797 0.46817 0.0
C2361 C 0.93152 0.41117 0.49715 0.0
C2362 C 0.9552 0.41317 0.51044 0.0
C2363 C 0.97171 0.40206 0.49506 0.0
C2364 C 0.96457 0.38889 0.46632 0.0
C2365 C 0.94092 0.38681 0.4529 0.0
H2366 H 0.99005 0.40369 0.5054 0.0
H2367 H 0.76886 0.3867 0.35779 0.0
H2368 H 0.7245 0.87372 0.40379 0.0
H2369 H 0.70144 0.90024 0.42728 0.0
H2370 H 0.63837 0.83815 0.45393 0.0
H2371 H 0.66153 0.81149 0.43113 0.0
H2372 H 0.62336 0.86933 0.41952 0.0
H2373 H 0.67827 0.87399 0.50539 0.0
H2374 H 0.71943 0.88202 0.5331 0.0
H2375 H 0.7426 0.95668 0.51439 0.0
H2376 H 0.70175 0.94893 0.48626 0.0
H2377 H 0.54844 0.93703 0.48768 0.0
H2378 H 0.57213 0.90819 0.48103 0.0
H2379 H 0.64448 0.96741 0.47659 0.0
H2380 H 0.62086 0.99616 0.48604 0.0
H2381 H 0.6538 0.93546 0.50334 0.0
H2382 H 0.6084 0.93246 0.40887 0.0
H2383 H 0.57048 0.92756 0.37629 0.0
H2384 H 0.53474 0.85516 0.4028 0.0
H2385 H 0.57235 0.85974 0.43583 0.0
C2386 C 0.70598 0.86572 0.41523 0.0
C2387 C 0.69475 0.84048 0.41539 0.0
C2388 C 0.69283 0.8809 0.42858 0.0
C2389 C 0.66827 0.87111 0.44235 0.0
C2390 C 0.6573 0.846 0.44331 0.0
C2391 C 0.67048 0.83082 0.4301 0.0
C2392 C 0.65308 0.88689 0.45347 0.0
C2393 C 0.62979 0.88358 0.43819 0.0
C2394 C 0.66215 0.90606 0.47692 0.0
C2395 C 0.68691 0.91076 0.49363 0.0
C2396 C 0.69221 0.89204 0.50708 0.0
C2397 C 0.71547 0.89656 0.52287 0.0
C2398 C 0.73362 0.91985 0.52551 0.0
C2399 C 0.72852 0.93864 0.51235 0.0
C2400 C 0.70528 0.93417 0.49651 0.0
C2401 C 0.56942 0.94375 0.48539 0.0
C2402 C 0.58293 0.96864 0.4867 0.0
C2403 C 0.58294 0.92733 0.48148 0.0
C2404 C 0.61006 0.93555 0.47723 0.0
C2405 C 0.62357 0.96055 0.47962 0.0
C2406 C 0.61011 0.97697 0.48477 0.0
C2407 C 0.62427 0.91827 0.46892 0.0
C2408 C 0.64732 0.92121 0.48472 0.0
C2409 C 0.61564 0.89936 0.44496 0.0
C2410 C 0.59304 0.89654 0.42507 0.0
C2411 C 0.59237 0.91555 0.40789 0.0
C2412 C 0.57095 0.91282 0.38934 0.0
C2413 C 0.55018 0.89108 0.38755 0.0
C2414 C 0.55082 0.872 0.40425 0.0
C2415 C 0.57219 0.87464 0.42287 0.0
H2416 H 0.53361 0.88901 0.37318 0.0
H2417 H 0.75162 0.92333 0.53776 0.0
H2418 H 0.2302 0.70555 0.30577 0.0
H2419 H 0.19477 0.6749 0.33023 0.0
H2420 H 0.17219 0.7307 0.3826 0.0
H2421 H 0.20705 0.76173 0.35694 0.0
H2422 H 0.18433 0.67981 0.40928 0.0
H2423 H 0.12997 0.71492 0.3586 0.0
H2424 H 0.11282 0.73124 0.31685 0.0
H2425 H 0.10106 0.66522 0.25918 0.0
H2426 H 0.11922 0.6489 0.30018 0.0
H2427 H 0.06537 0.59545 0.46662 0.0
H2428 H 0.09437 0.63322 0.44769 0.0
H2429 H 0.11117 0.59381 0.3651 0.0
H2430 H 0.08273 0.55574 0.38429 0.0
H2431 H 0.09896 0.64048 0.35804 0.0
H2432 H 0.15248 0.60597 0.41386 0.0
H2433 H 0.16445 0.59016 0.46004 0.0
H2434 H 0.17329 0.65755 0.51336 0.0
H2435 H 0.16071 0.67353 0.46769 0.0
C2436 C 0.21779 0.7114 0.32256 0.0
C2437 C 0.22154 0.73612 0.32954 0.0
C2438 C 0.19742 0.69382 0.33633 0.0
C2439 C 0.18059 0.70051 0.35776 0.0
C2440 C 0.18463 0.72515 0.36557 0.0
C2441 C 0.20466 0.74284 0.35112 0.0
C2442 C 0.15952 0.68133 0.37238 0.0
C2443 C 0.16545 0.67153 0.3985 0.0
C2444 C 0.13501 0.67037 0.35811 0.0
C2445 C 0.12659 0.68093 0.3322 0.0
C2446 C 0.12457 0.70419 0.33665 0.0
C2447 C 0.11445 0.71337 0.31321 0.0
C2448 C 0.10583 0.69926 0.28541 0.0
C2449 C 0.10774 0.67611 0.28076 0.0
C2450 C 0.11813 0.66697 0.30399 0.0
C2451 C 0.07487 0.59482 0.44416 0.0
C2452 C 0.07165 0.57258 0.42685 0.0
C2453 C 0.09155 0.61642 0.43351 0.0
C2454 C 0.10494 0.61626 0.40509 0.0
C2455 C 0.10096 0.59426 0.38711 0.0
C2456 C 0.08474 0.57256 0.39808 0.0
C2457 C 0.12389 0.63888 0.39468 0.0
C2458 C 0.11768 0.64906 0.36914 0.0
C2459 C 0.14785 0.65053 0.41 0.0
C2460 C 0.1553 0.64083 0.43746 0.0
C2461 C 0.15661 0.6173 0.43555 0.0
C2462 C 0.16355 0.60831 0.46162 0.0
C2463 C 0.16954 0.6228 0.48965 0.0
C2464 C 0.16856 0.64629 0.49168 0.0
C2465 C 0.1615 0.65532 0.46571 0.0
H2466 H 0.17511 0.61585 0.50969 0.0
H2467 H 0.0975 0.7062 0.26756 0.0
H2468 H 0.40627 0.28539 0.44751 0.0
H2469 H 0.42537 0.26174 0.47705 0.0
H2470 H 0.37245 0.19584 0.43298 0.0
H2471 H 0.35268 0.21914 0.40479 0.0
H2472 H 0.37872 0.19023 0.4914 0.0
H2473 H 0.43506 0.22389 0.4041 0.0
H2474 H 0.4629 0.2574 0.37484 0.0
H2475 H 0.51176 0.28556 0.45479 0.0
H2476 H 0.48399 0.25232 0.48462 0.0
H2477 H 0.43235 0.09849 0.47275 0.0
H2478 H 0.4175 0.1317 0.46216 0.0
H2479 H 0.47933 0.1814 0.51853 0.0
H2480 H 0.49518 0.14836 0.52798 0.0
H2481 H 0.47146 0.20117 0.46791 0.0
H2482 H 0.41816 0.15487 0.54612 0.0
H2483 H 0.38979 0.1176 0.56787 0.0
H2484 H 0.33237 0.10987 0.49877 0.0
H2485 H 0.36083 0.1463 0.47557 0.0
C2486 C 0.39845 0.26585 0.44468 0.0
C2487 C 0.37837 0.25406 0.42343 0.0
C2488 C 0.40943 0.2524 0.4614 0.0
C2489 C 0.40056 0.22708 0.45681 0.0
C2490 C 0.37963 0.21537 0.43683 0.0
C2491 C 0.36859 0.22871 0.4204 0.0
C2492 C 0.41401 0.21239 0.47049 0.0
C2493 C 0.399 0.19256 0.48638 0.0
C2494 C 0.44064 0.21593 0.46458 0.0
C2495 C 0.45729 0.23586 0.44668 0.0
C2496 C 0.45164 0.23734 0.41548 0.0
C2497 C 0.46741 0.25626 0.3988 0.0
C2498 C 0.48903 0.27365 0.41298 0.0
C2499 C 0.49497 0.27212 0.44386 0.0
C2500 C 0.47922 0.25325 0.46067 0.0
C2501 C 0.44303 0.11653 0.48257 0.0
C2502 C 0.46458 0.12077 0.50178 0.0
C2503 C 0.43442 0.13545 0.47666 0.0
C2504 C 0.44679 0.15879 0.49051 0.0
C2505 C 0.4693 0.1634 0.50806 0.0
C2506 C 0.47828 0.14452 0.51345 0.0
C2507 C 0.43573 0.17813 0.48713 0.0
C2508 C 0.45131 0.199 0.47363 0.0
C2509 C 0.40933 0.17509 0.49444 0.0
C2510 C 0.39182 0.15341 0.509 0.0
C2511 C 0.39961 0.14512 0.53534 0.0
C2512 C 0.38353 0.12407 0.54788 0.0
C2513 C 0.35929 0.11145 0.5348 0.0
C2514 C 0.35114 0.11971 0.50896 0.0
C2515 C 0.36731 0.14052 0.49603 0.0
H2516 H 0.34682 0.09524 0.54467 0.0
H2517 H 0.50122 0.28828 0.40002 0.0
H2518 H 0.64648 0.8004 0.63969 0.0
H2519 H 0.62482 0.82665 0.62053 0.0
H2520 H 0.68632 0.88933 0.65779 0.0
H2521 H 0.70821 0.86324 0.67682 0.0
H2522 H 0.64029 0.89475 0.67046 0.0
H2523 H 0.68008 0.8665 0.58127 0.0
H2524 H 0.68804 0.83602 0.5431 0.0
H2525 H 0.60958 0.81528 0.51095 0.0
H2526 H 0.60056 0.84457 0.55027 0.0
H2527 H 0.6195 0.98759 0.59492 0.0
H2528 H 0.63749 0.9577 0.61044 0.0
H2529 H 0.57089 0.90039 0.57253 0.0
H2530 H 0.55259 0.93056 0.55657 0.0
H2531 H 0.61697 0.89044 0.55931 0.0
H2532 H 0.5754 0.91382 0.65027 0.0
H2533 H 0.56503 0.94223 0.6899 0.0
H2534 H 0.64509 0.97087 0.71707 0.0
H2535 H 0.65601 0.94285 0.67728 0.0
C2536 C 0.65562 0.81977 0.64362 0.0
C2537 C 0.67935 0.82952 0.65981 0.0
C2538 C 0.64308 0.83483 0.63266 0.0
C2539 C 0.65395 0.86014 0.63726 0.0
C2540 C 0.67738 0.86992 0.65383 0.0
C2541 C 0.68991 0.85489 0.66486 0.0
C2542 C 0.64104 0.87651 0.62503 0.0
C2543 C 0.63548 0.89386 0.64606 0.0
C2544 C 0.6339 0.87507 0.59325 0.0
C2545 C 0.63947 0.85753 0.56931 0.0
C2546 C 0.66428 0.85509 0.56663 0.0
C2547 C 0.66898 0.83791 0.54482 0.0
C2548 C 0.6493 0.82363 0.52471 0.0
C2549 C 0.62479 0.82631 0.52661 0.0
C2550 C 0.61983 0.84308 0.54884 0.0
C2551 C 0.60848 0.96865 0.58982 0.0
C2552 C 0.58429 0.96164 0.57477 0.0
C2553 C 0.61889 0.95148 0.59881 0.0
C2554 C 0.60551 0.92662 0.59318 0.0
C2555 C 0.58164 0.91941 0.57737 0.0
C2556 C 0.57107 0.93671 0.56843 0.0
C2557 C 0.61635 0.90854 0.60482 0.0
C2558 C 0.62163 0.89105 0.58371 0.0
C2559 C 0.62304 0.90955 0.63656 0.0
C2560 C 0.61655 0.92638 0.6606 0.0
C2561 C 0.59083 0.9263 0.66454 0.0
C2562 C 0.58485 0.94232 0.68706 0.0
C2563 C 0.6044 0.95838 0.70594 0.0
C2564 C 0.62997 0.95843 0.7024 0.0
C2565 C 0.63606 0.94247 0.67989 0.0
H2566 H 0.59973 0.97077 0.72337 0.0
H2567 H 0.65308 0.81061 0.50753 0.0
H2568 H 0.70254 0.2397 0.32348 0.0
H2569 H 0.66993 0.21127 0.3545 0.0
H2570 H 0.72537 0.17649 0.37258 0.0
H2571 H 0.75826 0.20507 0.34158 0.0
H2572 H 0.67839 0.14291 0.35784 0.0
H2573 H 0.70724 0.21391 0.4292 0.0
H2574 H 0.7165 0.25699 0.4464 0.0
H2575 H 0.63629 0.24933 0.43474 0.0
H2576 H 0.62661 0.20626 0.41704 0.0
H2577 H 0.61122 0.06832 0.47261 0.0
H2578 H 0.64237 0.10021 0.44537 0.0
H2579 H 0.58529 0.13566 0.44033 0.0
H2580 H 0.55394 0.10372 0.46928 0.0
H2581 H 0.63128 0.16944 0.44686 0.0
H2582 H 0.60153 0.09949 0.37574 0.0
H2583 H 0.59107 0.05656 0.35691 0.0
H2584 H 0.67112 0.06239 0.36522 0.0
H2585 H 0.68201 0.10528 0.38449 0.0
C2586 C 0.70798 0.22608 0.33405 0.0
C2587 C 0.73336 0.22495 0.32978 0.0
C2588 C 0.68917 0.20977 0.35208 0.0
C2589 C 0.6949 0.19157 0.36647 0.0
C2590 C 0.72016 0.19023 0.36199 0.0
C2591 C 0.73911 0.20673 0.3442 0.0
C2592 C 0.67455 0.17376 0.38554 0.0
C2593 C 0.66842 0.14882 0.37756 0.0
C2594 C 0.66049 0.18106 0.41077 0.0
C2595 C 0.66625 0.20692 0.42148 0.0
C2596 C 0.69161 0.22146 0.43006 0.0
C2597 C 0.69693 0.24587 0.43994 0.0
C2598 C 0.67701 0.25591 0.44158 0.0
C2599 C 0.65171 0.24154 0.43341 0.0
C2600 C 0.64629 0.21712 0.42348 0.0
C2601 C 0.60517 0.08295 0.46597 0.0
C2602 C 0.57975 0.08309 0.473 0.0
C2603 C 0.62312 0.10126 0.44999 0.0
C2604 C 0.61631 0.12027 0.4394 0.0
C2605 C 0.59126 0.12119 0.44766 0.0
C2606 C 0.57323 0.10289 0.46435 0.0
C2607 C 0.63533 0.13851 0.4194 0.0
C2608 C 0.64119 0.16351 0.42711 0.0
C2609 C 0.64896 0.1313 0.39359 0.0
C2610 C 0.64254 0.10555 0.3818 0.0
C2611 C 0.61688 0.09158 0.37373 0.0
C2612 C 0.61088 0.06726 0.36296 0.0
C2613 C 0.63041 0.05674 0.35994 0.0
C2614 C 0.65601 0.07055 0.3676 0.0
C2615 C 0.66211 0.09488 0.37841 0.0
H2616 H 0.62572 0.03791 0.35161 0.0
H2617 H 0.68117 0.27481 0.44924 0.0
H2618 H 0.82558 0.74638 0.36033 0.0
H2619 H 0.84904 0.72404 0.38622 0.0
H2620 H 0.85251 0.68307 0.29958 0.0
H2621 H 0.83021 0.70616 0.27336 0.0
H2622 H 0.84019 0.65138 0.3504 0.0
H2623 H 0.90736 0.72625 0.33206 0.0
H2624 H 0.92882 0.77044 0.33637 0.0
H2625 H 0.92854 0.771 0.43616 0.0
H2626 H 0.90669 0.72682 0.43251 0.0
H2627 H 0.91753 0.58426 0.40538 0.0
H2628 H 0.89719 0.6082 0.3792 0.0
H2629 H 0.93017 0.66848 0.44627 0.0
H2630 H 0.95272 0.64474 0.47088 0.0
H2631 H 0.92296 0.69142 0.40627 0.0
H2632 H 0.8528 0.62107 0.42917 0.0
H2633 H 0.82747 0.57775 0.43024 0.0
H2634 H 0.82799 0.5695 0.33012 0.0
H2635 H 0.85353 0.61274 0.32847 0.0
C2636 C 0.83124 0.7327 0.34635 0.0
C2637 C 0.82519 0.72882 0.31387 0.0
C2638 C 0.8451 0.71962 0.36156 0.0
C2639 C 0.85344 0.701 0.34583 0.0
C2640 C 0.84697 0.69684 0.3135 0.0
C2641 C 0.83387 0.71044 0.2981 0.0
C2642 C 0.86836 0.68611 0.36255 0.0
C2643 C 0.85849 0.66046 0.36216 0.0
C2644 C 0.89213 0.69666 0.37977 0.0
C2645 C 0.90509 0.72323 0.38201 0.0
C2646 C 0.91161 0.73581 0.35495 0.0
C2647 C 0.92389 0.76086 0.35727 0.0
C2648 C 0.92992 0.77353 0.38652 0.0
C2649 C 0.92377 0.76117 0.41352 0.0
C2650 C 0.91145 0.73611 0.41134 0.0
C2651 C 0.92077 0.60264 0.41494 0.0
C2652 C 0.93752 0.61167 0.44111 0.0
C2653 C 0.90822 0.61674 0.39984 0.0
C2654 C 0.91002 0.64101 0.41032 0.0
C2655 C 0.92715 0.65021 0.43644 0.0
C2656 C 0.94047 0.63624 0.45104 0.0
C2657 C 0.89488 0.65632 0.3942 0.0
C2658 C 0.90468 0.68213 0.39461 0.0
C2659 C 0.87047 0.646 0.3779 0.0
C2660 C 0.85532 0.62004 0.37871 0.0
C2661 C 0.84762 0.60997 0.4074 0.0
C2662 C 0.83322 0.58544 0.4081 0.0
C2663 C 0.8262 0.57086 0.38027 0.0
C2664 C 0.8335 0.5808 0.35166 0.0
C2665 C 0.84792 0.60531 0.35082 0.0
H2666 H 0.81505 0.55188 0.38086 0.0
H2667 H 0.93944 0.79292 0.38826 0.0
H2668 H 0.2891 0.85634 0.34534 0.0
H2669 H 0.3162 0.88956 0.38008 0.0
H2670 H 0.37717 0.85779 0.37229 0.0
H2671 H 0.34914 0.8236 0.33948 0.0
H2672 H 0.37985 0.87576 0.42606 0.0
H2673 H 0.3779 0.91221 0.33247 0.0
H2674 H 0.35819 0.92221 0.28713 0.0
H2675 H 0.31602 0.95775 0.34859 0.0
H2676 H 0.33518 0.94755 0.39423 0.0
H2677 H 0.4811 0.98568 0.47434 0.0
H2678 H 0.45201 0.95053 0.44442 0.0
H2679 H 0.38662 0.97297 0.47367 0.0
H2680 H 0.41573 1.00851 0.50352 0.0
H2681 H 0.38636 0.95998 0.41036 0.0
H2682 H 0.3998 0.9258 0.50481 0.0
H2683 H 0.42762 0.91721 0.54298 0.0
H2684 H 0.4581 0.87903 0.47064 0.0
H2685 H 0.43108 0.88781 0.43187 0.0
C2686 C 0.30821 0.85636 0.35128 0.0
C2687 C 0.31687 0.83724 0.33972 0.0
C2688 C 0.32395 0.8756 0.37092 0.0
C2689 C 0.34931 0.87688 0.3785 0.0
C2690 C 0.35782 0.85754 0.36713 0.0
C2691 C 0.34173 0.83789 0.34827 0.0
C2692 C 0.3668 0.89818 0.39828 0.0
C2693 C 0.38139 0.89414 0.42223 0.0
C2694 C 0.36917 0.92246 0.39385 0.0
C2695 C 0.35761 0.92874 0.36665 0.0
C2696 C 0.36416 0.92188 0.33622 0.0
C2697 C 0.35316 0.92764 0.31051 0.0
C2698 C 0.33576 0.94051 0.31498 0.0
C2699 C 0.32943 0.94772 0.34517 0.0
C2700 C 0.34037 0.94196 0.37096 0.0
C2701 C 0.46052 0.98321 0.47459 0.0
C2702 C 0.45089 1.00015 0.49142 0.0
C2703 C 0.44383 0.96291 0.4575 0.0
C2704 C 0.41696 0.95881 0.45688 0.0
C2705 C 0.40723 0.97563 0.47372 0.0
C2706 C 0.42394 0.99597 0.49089 0.0
C2707 C 0.3992 0.93744 0.43795 0.0
C2708 C 0.38459 0.94153 0.41418 0.0
C2709 C 0.39779 0.91334 0.4417 0.0
C2710 C 0.41349 0.90761 0.46536 0.0
C2711 C 0.41253 0.91568 0.497 0.0
C2712 C 0.42814 0.91079 0.51874 0.0
C2713 C 0.44454 0.89761 0.50925 0.0
C2714 C 0.44537 0.88924 0.47797 0.0
C2715 C 0.42993 0.89417 0.4561 0.0
H2716 H 0.45659 0.89387 0.52614 0.0
H2717 H 0.32726 0.94497 0.29506 0.0
H2718 H 0.20283 0.31855 0.27436 0.0
H2719 H 0.17758 0.34402 0.29601 0.0
H2720 H 0.2238 0.36218 0.37868 0.0
H2721 H 0.24871 0.33632 0.35714 0.0
H2722 H 0.18454 0.36974 0.40344 0.0
H2723 H 0.21486 0.40278 0.30615 0.0
H2724 H 0.22147 0.40402 0.24923 0.0
H2725 H 0.13891 0.37714 0.2357 0.0
H2726 H 0.13182 0.37547 0.29256 0.0
H2727 H 0.12769 0.46536 0.46381 0.0
H2728 H 0.15336 0.4399 0.44288 0.0
H2729 H 0.10386 0.41654 0.36315 0.0
H2730 H 0.07792 0.44131 0.38453 0.0
H2731 H 0.14541 0.41246 0.33696 0.0
H2732 H 0.116 0.3726 0.43186 0.0
H2733 H 0.1086 0.36922 0.48816 0.0
H2734 H 0.18875 0.41059 0.50564 0.0
H2735 H 0.19683 0.41317 0.4489 0.0
C2736 C 0.20819 0.32785 0.29719 0.0
C2737 C 0.22928 0.32405 0.31273 0.0
C2738 C 0.19325 0.34337 0.31011 0.0
C2739 C 0.19756 0.35719 0.34017 0.0
C2740 C 0.21845 0.35304 0.35578 0.0
C2741 C 0.23341 0.3376 0.34284 0.0
C2742 C 0.18096 0.37491 0.35509 0.0
C2743 C 0.17662 0.37908 0.38805 0.0
C2744 C 0.16872 0.38829 0.3377 0.0
C2745 C 0.17283 0.38871 0.30356 0.0
C2746 C 0.19813 0.39694 0.29101 0.0
C2747 C 0.20196 0.39775 0.25876 0.0
C2748 C 0.18063 0.39059 0.23885 0.0
C2749 C 0.15542 0.38261 0.25115 0.0
C2750 C 0.15148 0.38172 0.28338 0.0
C2751 C 0.12154 0.45476 0.442 0.0
C2752 C 0.09906 0.45664 0.42728 0.0
C2753 C 0.13686 0.4394 0.42939 0.0
C2754 C 0.13194 0.42438 0.40017 0.0
C2755 C 0.10982 0.42676 0.38533 0.0
C2756 C 0.09428 0.44163 0.3982 0.0
C2757 C 0.14904 0.40718 0.38517 0.0
C2758 C 0.15345 0.40313 0.35222 0.0
C2759 C 0.16146 0.39401 0.40247 0.0
C2760 C 0.15689 0.39336 0.43636 0.0
C2761 C 0.13198 0.38111 0.44777 0.0
C2762 C 0.1277 0.37928 0.47976 0.0
C2763 C 0.1481 0.39005 0.50066 0.0
C2764 C 0.17294 0.40237 0.48946 0.0
C2765 C 0.17744 0.40383 0.45735 0.0
H2766 H 0.14472 0.38866 0.52546 0.0
H2767 H 0.18363 0.3913 0.2139 0.0
H2768 H 0.3447 0.25328 0.67685 0.0
H2769 H 0.3701 0.22933 0.65078 0.0
H2770 H 0.3402 0.17541 0.7166 0.0
H2771 H 0.3155 0.19913 0.7427 0.0
H2772 H 0.38785 0.18076 0.71039 0.0
H2773 H 0.32168 0.17006 0.6357 0.0
H2774 H 0.29516 0.18036 0.59775 0.0
H2775 H 0.36329 0.21176 0.54249 0.0
H2776 H 0.39033 0.2021 0.58042 0.0
H2777 H 0.42006 0.08164 0.62916 0.0
H2778 H 0.3958 0.10805 0.65094 0.0
H2779 H 0.44424 0.16552 0.59822 0.0
H2780 H 0.46899 0.13932 0.57738 0.0
H2781 H 0.3897 0.16037 0.59654 0.0
H2782 H 0.45502 0.16931 0.67128 0.0
H2783 H 0.48058 0.15713 0.70852 0.0
H2784 H 0.41169 0.12601 0.76265 0.0
H2785 H 0.38557 0.13757 0.72536 0.0
C2786 C 0.3434 0.23626 0.68568 0.0
C2787 C 0.3278 0.22845 0.71217 0.0
C2788 C 0.35797 0.22239 0.67059 0.0
C2789 C 0.35732 0.20013 0.68132 0.0
C2790 C 0.34154 0.19237 0.70756 0.0
C2791 C 0.32716 0.20614 0.72257 0.0
C2792 C 0.37325 0.18505 0.66625 0.0
C2793 C 0.38776 0.17606 0.68545 0.0
C2794 C 0.3742 0.17908 0.63353 0.0
C2795 C 0.35813 0.18579 0.61131 0.0
C2796 C 0.33109 0.17953 0.61575 0.0
C2797 C 0.31594 0.18517 0.59416 0.0
C2798 C 0.32755 0.19682 0.56781 0.0
C2799 C 0.35434 0.20284 0.56298 0.0
C2800 C 0.3696 0.19733 0.58456 0.0
C2801 C 0.42524 0.09977 0.62176 0.0
C2802 C 0.44605 0.10802 0.60062 0.0
C2803 C 0.41146 0.11501 0.63449 0.0
C2804 C 0.41792 0.13903 0.62639 0.0
C2805 C 0.43849 0.14715 0.60486 0.0
C2806 C 0.45253 0.13202 0.59257 0.0
C2807 C 0.40354 0.15563 0.64065 0.0
C2808 C 0.38954 0.16496 0.62138 0.0
C2809 C 0.40276 0.16166 0.67327 0.0
C2810 C 0.41826 0.15402 0.69524 0.0
C2811 C 0.44523 0.15955 0.69085 0.0
C2812 C 0.45984 0.15283 0.71204 0.0
C2813 C 0.44776 0.14075 0.73789 0.0
C2814 C 0.42101 0.13532 0.74258 0.0
C2815 C 0.40629 0.14194 0.7214 0.0
H2816 H 0.45912 0.13565 0.75435 0.0
H2817 H 0.31577 0.20109 0.55107 0.0
H2818 H 0.86433 0.31893 0.71667 0.0
H2819 H 0.8918 0.35003 0.68435 0.0
H2820 H 0.83182 0.38265 0.68542 0.0
H2821 H 0.80395 0.35088 0.7163 0.0
H2822 H 0.84968 0.38767 0.6326 0.0
H2823 H 0.9008 0.4082 0.72809 0.0
H2824 H 0.92586 0.40106 0.77064 0.0
H2825 H 0.97414 0.3773 0.70355 0.0
H2826 H 0.94978 0.38475 0.66064 0.0
H2827 H 0.92357 0.50039 0.57651 0.0
H2828 H 0.89957 0.46706 0.60687 0.0
H2829 H 0.96069 0.4362 0.5919 0.0
H2830 H 0.98531 0.4702 0.5611 0.0
H2831 H 0.94394 0.42881 0.64953 0.0
H2832 H 0.8935 0.40591 0.55547 0.0
H2833 H 0.86936 0.41146 0.51101 0.0
H2834 H 0.82027 0.43777 0.57408 0.0
H2835 H 0.84385 0.43189 0.61892 0.0
C2836 C 0.85687 0.3327 0.71011 0.0
C2837 C 0.83146 0.33185 0.71948 0.0
C2838 C 0.87297 0.35099 0.69166 0.0
C2839 C 0.86475 0.36977 0.68219 0.0
C2840 C 0.83933 0.36885 0.69173 0.0
C2841 C 0.82314 0.35041 0.70975 0.0
C2842 C 0.88171 0.38967 0.66169 0.0
C2843 C 0.87018 0.39679 0.63706 0.0
C2844 C 0.90904 0.40164 0.66549 0.0
C2845 C 0.9233 0.39675 0.69123 0.0
C2846 C 0.91664 0.40129 0.72246 0.0
C2847 C 0.93074 0.39724 0.74662 0.0
C2848 C 0.95135 0.38849 0.7398 0.0
C2849 C 0.95811 0.38399 0.7088 0.0
C2850 C 0.94427 0.38824 0.68457 0.0
C2851 C 0.93221 0.48661 0.57932 0.0
C2852 C 0.95687 0.48861 0.56577 0.0
C2853 C 0.91802 0.46705 0.59676 0.0
C2854 C 0.92749 0.44811 0.60178 0.0
C2855 C 0.95232 0.45009 0.58866 0.0
C2856 C 0.96656 0.46973 0.57076 0.0
C2857 C 0.91167 0.42702 0.62114 0.0
C2858 C 0.92339 0.4197 0.64538 0.0
C2859 C 0.88453 0.41472 0.617 0.0
C2860 C 0.87068 0.41886 0.59036 0.0
C2861 C 0.87775 0.41314 0.55973 0.0
C2862 C 0.8641 0.41623 0.53451 0.0
C2863 C 0.84351 0.42524 0.53966 0.0
C2864 C 0.83631 0.4309 0.5701 0.0
C2865 C 0.8497 0.42756 0.59543 0.0
H2866 H 0.83304 0.42768 0.52006 0.0
H2867 H 0.96218 0.38532 0.75855 0.0
H2868 H 0.27075 0.70239 0.677 0.0
H2869 H 0.23922 0.67187 0.64289 0.0
H2870 H 0.17846 0.69829 0.68005 0.0
H2871 H 0.20973 0.72842 0.71455 0.0
H2872 H 0.15923 0.65195 0.67516 0.0
H2873 H 0.20771 0.70817 0.60325 0.0
H2874 H 0.24643 0.733 0.57561 0.0
H2875 H 0.26317 0.6691 0.54068 0.0
H2876 H 0.22475 0.6439 0.56849 0.0
H2877 H 0.06288 0.58692 0.56188 0.0
H2878 H 0.09503 0.61856 0.59386 0.0
H2879 H 0.15509 0.59077 0.5579 0.0
H2880 H 0.12319 0.55949 0.5253 0.0
H2881 H 0.17474 0.63761 0.56214 0.0
H2882 H 0.12638 0.58164 0.63458 0.0
H2883 H 0.08712 0.55686 0.66141 0.0
H2884 H 0.06962 0.62079 0.69435 0.0
H2885 H 0.10862 0.64593 0.66738 0.0
C2886 C 0.25074 0.70191 0.67781 0.0
C2887 C 0.24313 0.71825 0.69873 0.0
C2888 C 0.23255 0.68434 0.65803 0.0
C2889 C 0.20608 0.68256 0.65818 0.0
C2890 C 0.19853 0.69892 0.67908 0.0
C2891 C 0.21664 0.71639 0.69889 0.0
C2892 C 0.18619 0.66354 0.63728 0.0
C2893 C 0.16262 0.6492 0.65034 0.0
C2894 C 0.19029 0.65905 0.60479 0.0
C2895 C 0.21354 0.67418 0.58831 0.0
C2896 C 0.2198 0.69943 0.58993 0.0
C2897 C 0.24166 0.71357 0.57418 0.0
C2898 C 0.2573 0.70264 0.5565 0.0
C2899 C 0.25108 0.67754 0.55446 0.0
C2900 C 0.22926 0.66332 0.57021 0.0
C2901 C 0.08292 0.58748 0.5606 0.0
C2902 C 0.09007 0.57022 0.54082 0.0
C2903 C 0.10144 0.60565 0.57925 0.0
C2904 C 0.12783 0.60718 0.57913 0.0
C2905 C 0.13507 0.59029 0.55886 0.0
C2906 C 0.11661 0.57219 0.54011 0.0
C2907 C 0.14777 0.6262 0.59993 0.0
C2908 C 0.17136 0.64047 0.5869 0.0
C2909 C 0.14366 0.63069 0.6324 0.0
C2910 C 0.12027 0.61563 0.6487 0.0
C2911 C 0.11406 0.59039 0.64736 0.0
C2912 C 0.09187 0.57629 0.66262 0.0
C2913 C 0.07585 0.58724 0.6795 0.0
C2914 C 0.08203 0.61233 0.68123 0.0
C2915 C 0.10418 0.62651 0.66598 0.0
H2916 H 0.05868 0.57629 0.6913 0.0
H2917 H 0.27421 0.71362 0.5443 0.0
loop_
_geom_bond_atom_site_label_1
_geom_bond_atom_site_label_2
_geom_bond_distance
_geom_bond_site_symmetry_2
_ccdc_geom_bond_type
Tb0 C10 2.825 . S
Tb0 O11 2.347 . S
Tb0 O14 2.366 . S
Tb0 O19 2.418 . S
Tb0 O20 2.384 . S
Tb0 O23 2.479 . S
Tb0 O24 2.471 . S
Eu1 O12 2.418 . S
Eu1 O13 2.384 . S
Eu1 O16 2.479 . S
Eu1 O17 2.471 . S
Eu1 O18 2.347 . S
Eu1 O21 2.366 . S
Eu1 C31 2.825 . S
C2 O18 1.259 . S
C2 O19 1.265 . S
C3 O20 1.255 . S
C3 O21 1.265 . S
C4 C6 1.380 . S
C4 C7 1.374 . S
C4 C10 1.507 . S
C5 C6 1.384 . S
C5 C9 1.387 . S
C5 H32 0.930 . S
C6 C4 1.380 . S
C6 C5 1.384 . S
C6 H33 0.931 . S
C7 C4 1.374 . S
C7 C8 1.390 . S
C7 H34 0.930 . S
C8 C7 1.390 . S
C8 C9 1.391 . S
C8 H35 0.930 . S
C9 C5 1.387 . S
C9 C8 1.391 . S
C10 Tb0 2.825 . S
C10 C4 1.507 . S
C10 O23 1.238 . S
C10 O24 1.247 . S
O11 Tb0 2.347 . S
O11 C15 1.259 . S
O12 Eu1 2.418 . S
O12 C15 1.265 . S
O13 Eu1 2.384 . S
O13 C22 1.255 . S
O14 Tb0 2.366 . S
O14 C22 1.265 . S
C15 O11 1.259 . S
C15 O12 1.265 . S
O16 Eu1 2.479 . S
O16 C31 1.238 . S
O17 Eu1 2.471 . S
O17 C31 1.247 . S
O18 Eu1 2.347 . S
O18 C2 1.259 . S
O19 Tb0 2.418 . S
O19 C2 1.265 . S
O20 Tb0 2.384 . S
O20 C3 1.255 . S
O21 Eu1 2.366 . S
O21 C3 1.265 . S
C22 O13 1.255 . S
C22 O14 1.265 . S
O23 Tb0 2.479 . S
O23 C10 1.238 . S
O24 Tb0 2.471 . S
O24 C10 1.247 . S
C25 C28 1.380 . S
C25 C29 1.374 . S
C25 C31 1.507 . S
C26 C27 1.387 . S
C26 C30 1.391 . S
C27 C26 1.387 . S
C27 C28 1.384 . S
C27 H36 0.930 . S
C28 C25 1.380 . S
C28 C27 1.384 . S
C28 H37 0.931 . S
C29 C25 1.374 . S
C29 C30 1.390 . S
C29 H38 0.930 . S
C30 C26 1.391 . S
C30 C29 1.390 . S
C30 H39 0.930 . S
C31 Eu1 2.825 . S
C31 O16 1.238 . S
C31 O17 1.247 . S
C31 C25 1.507 . S
H32 C5 0.930 . S
H33 C6 0.931 . S
H34 C7 0.930 . S
H35 C8 0.930 . S
H36 C27 0.930 . S
H37 C28 0.931 . S
H38 C29 0.930 . S
H39 C30 0.930 . S
Tb40 C50 2.825 . S
Tb40 O51 2.347 . S
Tb40 O54 2.366 . S
Tb40 O59 2.418 . S
Tb40 O60 2.384 . S
Tb40 O63 2.479 . S
Tb40 O64 2.471 . S
Eu41 O52 2.418 . S
Eu41 O53 2.384 . S
Eu41 O56 2.479 . S
Eu41 O57 2.471 . S
Eu41 O58 2.347 . S
Eu41 O61 2.366 . S
Eu41 C71 2.825 . S
C42 O58 1.259 . S
C42 O59 1.265 . S
C43 O60 1.255 . S
C43 O61 1.265 . S
C44 C46 1.380 . S
C44 C47 1.374 . S
C44 C50 1.507 . S
C45 C46 1.384 . S
C45 C49 1.387 . S
C45 H72 0.930 . S
C46 C44 1.380 . S
C46 C45 1.384 . S
C46 H73 0.931 . S
C47 C44 1.374 . S
C47 C48 1.390 . S
C47 H74 0.930 . S
C48 C47 1.390 . S
C48 C49 1.391 . S
C48 H75 0.930 . S
C49 C45 1.387 . S
C49 C48 1.391 . S
C50 Tb40 2.825 . S
C50 C44 1.507 . S
C50 O63 1.238 . S
C50 O64 1.247 . S
O51 Tb40 2.347 . S
O51 C55 1.259 . S
O52 Eu41 2.418 . S
O52 C55 1.265 . S
O53 Eu41 2.384 . S
O53 C62 1.255 . S
O54 Tb40 2.366 . S
O54 C62 1.265 . S
C55 O51 1.259 . S
C55 O52 1.265 . S
O56 Eu41 2.479 . S
O56 C71 1.238 . S
O57 Eu41 2.471 . S
O57 C71 1.247 . S
O58 Eu41 2.347 . S
O58 C42 1.259 . S
O59 Tb40 2.418 . S
O59 C42 1.265 . S
O60 Tb40 2.384 . S
O60 C43 1.255 . S
O61 Eu41 2.366 . S
O61 C43 1.265 . S
C62 O53 1.255 . S
C62 O54 1.265 . S
O63 Tb40 2.479 . S
O63 C50 1.238 . S
O64 Tb40 2.471 . S
O64 C50 1.247 . S
C65 C68 1.380 . S
C65 C69 1.374 . S
C65 C71 1.507 . S
C66 C67 1.387 . S
C66 C70 1.391 . S
C67 C66 1.387 . S
C67 C68 1.384 . S
C67 H76 0.930 . S
C68 C65 1.380 . S
C68 C67 1.384 . S
C68 H77 0.931 . S
C69 C65 1.374 . S
C69 C70 1.390 . S
C69 H78 0.930 . S
C70 C66 1.391 . S
C70 C69 1.390 . S
C70 H79 0.930 . S
C71 Eu41 2.825 . S
C71 O56 1.238 . S
C71 O57 1.247 . S
C71 C65 1.507 . S
H72 C45 0.930 . S
H73 C46 0.931 . S
H74 C47 0.930 . S
H75 C48 0.930 . S
H76 C67 0.930 . S
H77 C68 0.931 . S
H78 C69 0.930 . S
H79 C70 0.930 . S
Tb80 C90 2.825 . S
Tb80 O91 2.347 . S
Tb80 O94 2.366 . S
Tb80 O99 2.418 . S
Tb80 O100 2.384 . S
Tb80 O103 2.479 . S
Tb80 O104 2.471 . S
Eu81 O92 2.418 . S
Eu81 O93 2.384 . S
Eu81 O96 2.479 . S
Eu81 O97 2.471 . S
Eu81 O98 2.347 . S
Eu81 O101 2.366 . S
Eu81 C111 2.825 . S
C82 O98 1.259 . S
C82 O99 1.265 . S
C83 O100 1.255 . S
C83 O101 1.265 . S
C84 C86 1.380 . S
C84 C87 1.374 . S
C84 C90 1.507 . S
C85 C86 1.384 . S
C85 C89 1.387 . S
C85 H112 0.930 . S
C86 C84 1.380 . S
C86 C85 1.384 . S
C86 H113 0.931 . S
C87 C84 1.374 . S
C87 C88 1.390 . S
C87 H114 0.930 . S
C88 C87 1.390 . S
C88 C89 1.391 . S
C88 H115 0.930 . S
C89 C85 1.387 . S
C89 C88 1.391 . S
C90 Tb80 2.825 . S
C90 C84 1.507 . S
C90 O103 1.238 . S
C90 O104 1.247 . S
O91 Tb80 2.347 . S
O91 C95 1.259 . S
O92 Eu81 2.418 . S
O92 C95 1.265 . S
O93 Eu81 2.384 . S
O93 C102 1.255 . S
O94 Tb80 2.366 . S
O94 C102 1.265 . S
C95 O91 1.259 . S
C95 O92 1.265 . S
O96 Eu81 2.479 . S
O96 C111 1.238 . S
O97 Eu81 2.471 . S
O97 C111 1.247 . S
O98 Eu81 2.347 . S
O98 C82 1.259 . S
O99 Tb80 2.418 . S
O99 C82 1.265 . S
O100 Tb80 2.384 . S
O100 C83 1.255 . S
O101 Eu81 2.366 . S
O101 C83 1.265 . S
C102 O93 1.255 . S
C102 O94 1.265 . S
O103 Tb80 2.479 . S
O103 C90 1.238 . S
O104 Tb80 2.471 . S
O104 C90 1.247 . S
C105 C108 1.380 . S
C105 C109 1.374 . S
C105 C111 1.507 . S
C106 C107 1.387 . S
C106 C110 1.391 . S
C107 C106 1.387 . S
C107 C108 1.384 . S
C107 H116 0.930 . S
C108 C105 1.380 . S
C108 C107 1.384 . S
C108 H117 0.931 . S
C109 C105 1.374 . S
C109 C110 1.390 . S
C109 H118 0.930 . S
C110 C106 1.391 . S
C110 C109 1.390 . S
C110 H119 0.930 . S
C111 Eu81 2.825 . S
C111 O96 1.238 . S
C111 O97 1.247 . S
C111 C105 1.507 . S
H112 C85 0.930 . S
H113 C86 0.931 . S
H114 C87 0.930 . S
H115 C88 0.930 . S
H116 C107 0.930 . S
H117 C108 0.931 . S
H118 C109 0.930 . S
H119 C110 0.930 . S
Tb120 C130 2.825 . S
Tb120 O131 2.347 . S
Tb120 O134 2.366 . S
Tb120 O139 2.418 . S
Tb120 O140 2.384 . S
Tb120 O143 2.479 . S
Tb120 O144 2.471 . S
Eu121 O132 2.418 . S
Eu121 O133 2.384 . S
Eu121 O136 2.479 . S
Eu121 O137 2.471 . S
Eu121 O138 2.347 . S
Eu121 O141 2.366 . S
Eu121 C151 2.825 . S
C122 O138 1.259 . S
C122 O139 1.265 . S
C123 O140 1.255 . S
C123 O141 1.265 . S
C124 C126 1.380 . S
C124 C127 1.374 . S
C124 C130 1.507 . S
C125 C126 1.384 . S
C125 C129 1.387 . S
C125 H152 0.930 . S
C126 C124 1.380 . S
C126 C125 1.384 . S
C126 H153 0.931 . S
C127 C124 1.374 . S
C127 C128 1.390 . S
C127 H154 0.930 . S
C128 C127 1.390 . S
C128 C129 1.391 . S
C128 H155 0.930 . S
C129 C125 1.387 . S
C129 C128 1.391 . S
C130 Tb120 2.825 . S
C130 C124 1.507 . S
C130 O143 1.238 . S
C130 O144 1.247 . S
O131 Tb120 2.347 . S
O131 C135 1.259 . S
O132 Eu121 2.418 . S
O132 C135 1.265 . S
O133 Eu121 2.384 . S
O133 C142 1.255 . S
O134 Tb120 2.366 . S
O134 C142 1.265 . S
C135 O131 1.259 . S
C135 O132 1.265 . S
O136 Eu121 2.479 . S
O136 C151 1.238 . S
O137 Eu121 2.471 . S
O137 C151 1.247 . S
O138 Eu121 2.347 . S
O138 C122 1.259 . S
O139 Tb120 2.418 . S
O139 C122 1.265 . S
O140 Tb120 2.384 . S
O140 C123 1.255 . S
O141 Eu121 2.366 . S
O141 C123 1.265 . S
C142 O133 1.255 . S
C142 O134 1.265 . S
O143 Tb120 2.479 . S
O143 C130 1.238 . S
O144 Tb120 2.471 . S
O144 C130 1.247 . S
C145 C148 1.380 . S
C145 C149 1.374 . S
C145 C151 1.507 . S
C146 C147 1.387 . S
C146 C150 1.391 . S
C147 C146 1.387 . S
C147 C148 1.384 . S
C147 H156 0.930 . S
C148 C145 1.380 . S
C148 C147 1.384 . S
C148 H157 0.931 . S
C149 C145 1.374 . S
C149 C150 1.390 . S
C149 H158 0.930 . S
C150 C146 1.391 . S
C150 C149 1.390 . S
C150 H159 0.930 . S
C151 Eu121 2.825 . S
C151 O136 1.238 . S
C151 O137 1.247 . S
C151 C145 1.507 . S
H152 C125 0.930 . S
H153 C126 0.931 . S
H154 C127 0.930 . S
H155 C128 0.930 . S
H156 C147 0.930 . S
H157 C148 0.931 . S
H158 C149 0.930 . S
H159 C150 0.930 . S
Tb160 C170 2.825 . S
Tb160 O171 2.347 . S
Tb160 O174 2.366 . S
Tb160 O179 2.418 . S
Tb160 O180 2.384 . S
Tb160 O183 2.479 . S
Tb160 O184 2.471 . S
Eu161 O172 2.418 . S
Eu161 O173 2.384 . S
Eu161 O176 2.479 . S
Eu161 O177 2.471 . S
Eu161 O178 2.347 . S
Eu161 O181 2.366 . S
Eu161 C191 2.825 . S
C162 O178 1.259 . S
C162 O179 1.265 . S
C163 O180 1.255 . S
C163 O181 1.265 . S
C164 C166 1.380 . S
C164 C167 1.374 . S
C164 C170 1.507 . S
C165 C166 1.384 . S
C165 C169 1.387 . S
C165 H192 0.930 . S
C166 C164 1.380 . S
C166 C165 1.384 . S
C166 H193 0.931 . S
C167 C164 1.374 . S
C167 C168 1.390 . S
C167 H194 0.930 . S
C168 C167 1.390 . S
C168 C169 1.391 . S
C168 H195 0.930 . S
C169 C165 1.387 . S
C169 C168 1.391 . S
C170 Tb160 2.825 . S
C170 C164 1.507 . S
C170 O183 1.238 . S
C170 O184 1.247 . S
O171 Tb160 2.347 . S
O171 C175 1.259 . S
O172 Eu161 2.418 . S
O172 C175 1.265 . S
O173 Eu161 2.384 . S
O173 C182 1.255 . S
O174 Tb160 2.366 . S
O174 C182 1.265 . S
C175 O171 1.259 . S
C175 O172 1.265 . S
O176 Eu161 2.479 . S
O176 C191 1.238 . S
O177 Eu161 2.471 . S
O177 C191 1.247 . S
O178 Eu161 2.347 . S
O178 C162 1.259 . S
O179 Tb160 2.418 . S
O179 C162 1.265 . S
O180 Tb160 2.384 . S
O180 C163 1.255 . S
O181 Eu161 2.366 . S
O181 C163 1.265 . S
C182 O173 1.255 . S
C182 O174 1.265 . S
O183 Tb160 2.479 . S
O183 C170 1.238 . S
O184 Tb160 2.471 . S
O184 C170 1.247 . S
C185 C188 1.380 . S
C185 C189 1.374 . S
C185 C191 1.507 . S
C186 C187 1.387 . S
C186 C190 1.391 . S
C187 C186 1.387 . S
C187 C188 1.384 . S
C187 H196 0.930 . S
C188 C185 1.380 . S
C188 C187 1.384 . S
C188 H197 0.931 . S
C189 C185 1.374 . S
C189 C190 1.390 . S
C189 H198 0.930 . S
C190 C186 1.391 . S
C190 C189 1.390 . S
C190 H199 0.930 . S
C191 Eu161 2.825 . S
C191 O176 1.238 . S
C191 O177 1.247 . S
C191 C185 1.507 . S
H192 C165 0.930 . S
H193 C166 0.931 . S
H194 C167 0.930 . S
H195 C168 0.930 . S
H196 C187 0.930 . S
H197 C188 0.931 . S
H198 C189 0.930 . S
H199 C190 0.930 . S
Tb200 C210 2.825 . S
Tb200 O211 2.347 . S
Tb200 O214 2.366 . S
Tb200 O219 2.418 . S
Tb200 O220 2.384 . S
Tb200 O223 2.479 . S
Tb200 O224 2.471 . S
Eu201 O212 2.418 . S
Eu201 O213 2.384 . S
Eu201 O216 2.479 . S
Eu201 O217 2.471 . S
Eu201 O218 2.347 . S
Eu201 O221 2.366 . S
Eu201 C231 2.825 . S
C202 O218 1.259 . S
C202 O219 1.265 . S
C203 O220 1.255 . S
C203 O221 1.265 . S
C204 C206 1.380 . S
C204 C207 1.374 . S
C204 C210 1.507 . S
C205 C206 1.384 . S
C205 C209 1.387 . S
C205 H232 0.930 . S
C206 C204 1.380 . S
C206 C205 1.384 . S
C206 H233 0.931 . S
C207 C204 1.374 . S
C207 C208 1.390 . S
C207 H234 0.930 . S
C208 C207 1.390 . S
C208 C209 1.391 . S
C208 H235 0.930 . S
C209 C205 1.387 . S
C209 C208 1.391 . S
C210 Tb200 2.825 . S
C210 C204 1.507 . S
C210 O223 1.238 . S
C210 O224 1.247 . S
O211 Tb200 2.347 . S
O211 C215 1.259 . S
O212 Eu201 2.418 . S
O212 C215 1.265 . S
O213 Eu201 2.384 . S
O213 C222 1.255 . S
O214 Tb200 2.366 . S
O214 C222 1.265 . S
C215 O211 1.259 . S
C215 O212 1.265 . S
O216 Eu201 2.479 . S
O216 C231 1.238 . S
O217 Eu201 2.471 . S
O217 C231 1.247 . S
O218 Eu201 2.347 . S
O218 C202 1.259 . S
O219 Tb200 2.418 . S
O219 C202 1.265 . S
O220 Tb200 2.384 . S
O220 C203 1.255 . S
O221 Eu201 2.366 . S
O221 C203 1.265 . S
C222 O213 1.255 . S
C222 O214 1.265 . S
O223 Tb200 2.479 . S
O223 C210 1.238 . S
O224 Tb200 2.471 . S
O224 C210 1.247 . S
C225 C228 1.380 . S
C225 C229 1.374 . S
C225 C231 1.507 . S
C226 C227 1.387 . S
C226 C230 1.391 . S
C227 C226 1.387 . S
C227 C228 1.384 . S
C227 H236 0.930 . S
C228 C225 1.380 . S
C228 C227 1.384 . S
C228 H237 0.931 . S
C229 C225 1.374 . S
C229 C230 1.390 . S
C229 H238 0.930 . S
C230 C226 1.391 . S
C230 C229 1.390 . S
C230 H239 0.930 . S
C231 Eu201 2.825 . S
C231 O216 1.238 . S
C231 O217 1.247 . S
C231 C225 1.507 . S
H232 C205 0.930 . S
H233 C206 0.931 . S
H234 C207 0.930 . S
H235 C208 0.930 . S
H236 C227 0.930 . S
H237 C228 0.931 . S
H238 C229 0.930 . S
H239 C230 0.930 . S
Tb240 C250 2.825 . S
Tb240 O251 2.347 . S
Tb240 O254 2.366 . S
Tb240 O259 2.418 . S
Tb240 O260 2.384 . S
Tb240 O263 2.479 . S
Tb240 O264 2.471 . S
Eu241 O252 2.418 . S
Eu241 O253 2.384 . S
Eu241 O256 2.479 . S
Eu241 O257 2.471 . S
Eu241 O258 2.347 . S
Eu241 O261 2.366 . S
Eu241 C271 2.825 . S
C242 O258 1.259 . S
C242 O259 1.265 . S
C243 O260 1.255 . S
C243 O261 1.265 . S
C244 C246 1.380 . S
C244 C247 1.374 . S
C244 C250 1.507 . S
C245 C246 1.384 . S
C245 C249 1.387 . S
C245 H272 0.930 . S
C246 C244 1.380 . S
C246 C245 1.384 . S
C246 H273 0.931 . S
C247 C244 1.374 . S
C247 C248 1.390 . S
C247 H274 0.930 . S
C248 C247 1.390 . S
C248 C249 1.391 . S
C248 H275 0.930 . S
C249 C245 1.387 . S
C249 C248 1.391 . S
C250 Tb240 2.825 . S
C250 C244 1.507 . S
C250 O263 1.238 . S
C250 O264 1.247 . S
O251 Tb240 2.347 . S
O251 C255 1.259 . S
O252 Eu241 2.418 . S
O252 C255 1.265 . S
O253 Eu241 2.384 . S
O253 C262 1.255 . S
O254 Tb240 2.366 . S
O254 C262 1.265 . S
C255 O251 1.259 . S
C255 O252 1.265 . S
O256 Eu241 2.479 . S
O256 C271 1.238 . S
O257 Eu241 2.471 . S
O257 C271 1.247 . S
O258 Eu241 2.347 . S
O258 C242 1.259 . S
O259 Tb240 2.418 . S
O259 C242 1.265 . S
O260 Tb240 2.384 . S
O260 C243 1.255 . S
O261 Eu241 2.366 . S
O261 C243 1.265 . S
C262 O253 1.255 . S
C262 O254 1.265 . S
O263 Tb240 2.479 . S
O263 C250 1.238 . S
O264 Tb240 2.471 . S
O264 C250 1.247 . S
C265 C268 1.380 . S
C265 C269 1.374 . S
C265 C271 1.507 . S
C266 C267 1.387 . S
C266 C270 1.391 . S
C267 C266 1.387 . S
C267 C268 1.384 . S
C267 H276 0.930 . S
C268 C265 1.380 . S
C268 C267 1.384 . S
C268 H277 0.931 . S
C269 C265 1.374 . S
C269 C270 1.390 . S
C269 H278 0.930 . S
C270 C266 1.391 . S
C270 C269 1.390 . S
C270 H279 0.930 . S
C271 Eu241 2.825 . S
C271 O256 1.238 . S
C271 O257 1.247 . S
C271 C265 1.507 . S
H272 C245 0.930 . S
H273 C246 0.931 . S
H274 C247 0.930 . S
H275 C248 0.930 . S
H276 C267 0.930 . S
H277 C268 0.931 . S
H278 C269 0.930 . S
H279 C270 0.930 . S
Tb280 C290 2.825 . S
Tb280 O291 2.347 . S
Tb280 O294 2.366 . S
Tb280 O299 2.418 . S
Tb280 O300 2.384 . S
Tb280 O303 2.479 . S
Tb280 O304 2.471 . S
Eu281 O292 2.418 . S
Eu281 O293 2.384 . S
Eu281 O296 2.479 . S
Eu281 O297 2.471 . S
Eu281 O298 2.347 . S
Eu281 O301 2.366 . S
Eu281 C311 2.825 . S
C282 O298 1.259 . S
C282 O299 1.265 . S
C283 O300 1.255 . S
C283 O301 1.265 . S
C284 C286 1.380 . S
C284 C287 1.374 . S
C284 C290 1.507 . S
C285 C286 1.384 . S
C285 C289 1.387 . S
C285 H312 0.930 . S
C286 C284 1.380 . S
C286 C285 1.384 . S
C286 H313 0.931 . S
C287 C284 1.374 . S
C287 C288 1.390 . S
C287 H314 0.930 . S
C288 C287 1.390 . S
C288 C289 1.391 . S
C288 H315 0.930 . S
C289 C285 1.387 . S
C289 C288 1.391 . S
C290 Tb280 2.825 . S
C290 C284 1.507 . S
C290 O303 1.238 . S
C290 O304 1.247 . S
O291 Tb280 2.347 . S
O291 C295 1.259 . S
O292 Eu281 2.418 . S
O292 C295 1.265 . S
O293 Eu281 2.384 . S
O293 C302 1.255 . S
O294 Tb280 2.366 . S
O294 C302 1.265 . S
C295 O291 1.259 . S
C295 O292 1.265 . S
O296 Eu281 2.479 . S
O296 C311 1.238 . S
O297 Eu281 2.471 . S
O297 C311 1.247 . S
O298 Eu281 2.347 . S
O298 C282 1.259 . S
O299 Tb280 2.418 . S
O299 C282 1.265 . S
O300 Tb280 2.384 . S
O300 C283 1.255 . S
O301 Eu281 2.366 . S
O301 C283 1.265 . S
C302 O293 1.255 . S
C302 O294 1.265 . S
O303 Tb280 2.479 . S
O303 C290 1.238 . S
O304 Tb280 2.471 . S
O304 C290 1.247 . S
C305 C308 1.380 . S
C305 C309 1.374 . S
C305 C311 1.507 . S
C306 C307 1.387 . S
C306 C310 1.391 . S
C307 C306 1.387 . S
C307 C308 1.384 . S
C307 H316 0.930 . S
C308 C305 1.380 . S
C308 C307 1.384 . S
C308 H317 0.931 . S
C309 C305 1.374 . S
C309 C310 1.390 . S
C309 H318 0.930 . S
C310 C306 1.391 . S
C310 C309 1.390 . S
C310 H319 0.930 . S
C311 Eu281 2.825 . S
C311 O296 1.238 . S
C311 O297 1.247 . S
C311 C305 1.507 . S
H312 C285 0.930 . S
H313 C286 0.931 . S
H314 C287 0.930 . S
H315 C288 0.930 . S
H316 C307 0.930 . S
H317 C308 0.931 . S
H318 C309 0.930 . S
H319 C310 0.930 . S
Co320 O323 2.042 . S
Co320 O330 2.264 . S
Co320 O349 2.286 . S
Co320 O350 2.069 . S
Co320 O352 2.015 1_455 S
Co321 O323 2.122 . S
Co321 O329 2.073 . S
Co321 O330 2.327 . S
Co321 O331 1.976 1_455 S
Co322 O323 2.087 1_545 S
Co322 O325 2.087 1_455 S
Co322 O332 2.100 1_445 S
Co322 O333 2.143 . S
Co322 O337 2.111 . S
Co322 O351 2.143 1_445 S
O323 Co320 2.042 . S
O323 Co321 2.122 . S
O323 Co322 2.087 1_565 S
O323 H324 0.980 1_565 S
H324 O323 0.980 1_545 S
O325 Co322 2.087 1_655 S
O325 Co326 2.042 . S
O325 Co327 2.122 . S
O325 H328 0.980 . S
Co326 O325 2.042 . S
Co326 O334 2.286 . S
Co326 O335 2.069 . S
Co326 O336 2.015 1_655 S
Co326 O339 2.264 . S
Co327 O325 2.122 . S
Co327 O338 1.976 1_655 S
Co327 O339 2.327 . S
Co327 O340 2.073 . S
H328 O325 0.980 . S
O329 Co321 2.073 . S
O329 C344 1.245 . S
O330 Co320 2.264 . S
O330 Co321 2.327 . S
O330 C344 1.257 . S
O331 Co321 1.976 1_655 S
O331 C343 1.251 . S
O332 Co322 2.100 1_665 S
O332 C343 1.310 . S
O333 Co322 2.143 . S
O333 C346 1.246 . S
O334 Co326 2.286 . S
O334 C345 1.259 . S
O335 Co326 2.069 . S
O335 C345 1.289 . S
O336 Co326 2.015 1_455 S
O336 C346 1.257 . S
O337 Co322 2.111 . S
O337 C347 1.274 . S
O338 Co327 1.976 1_455 S
O338 C347 1.251 . S
O339 Co326 2.264 . S
O339 Co327 2.327 . S
O339 C348 1.257 . S
O340 Co327 2.073 . S
O340 C348 1.245 . S
C341 O349 1.259 . S
C341 O350 1.289 . S
C342 O351 1.246 . S
C342 O352 1.257 . S
C343 O331 1.251 . S
C343 O332 1.310 . S
C344 O329 1.245 . S
C344 O330 1.257 . S
C345 O334 1.259 . S
C345 O335 1.289 . S
C346 O333 1.246 . S
C346 O336 1.257 . S
C347 O337 1.274 . S
C347 O338 1.251 . S
C348 O339 1.257 . S
C348 O340 1.245 . S
O349 Co320 2.286 . S
O349 C341 1.259 . S
O350 Co320 2.069 . S
O350 C341 1.289 . S
O351 Co322 2.143 1_665 S
O351 C342 1.246 . S
O352 Co320 2.015 1_655 S
O352 C342 1.257 . S
Co353 O356 2.042 . S
Co353 O363 2.264 . S
Co353 O382 2.286 1_554 S
Co353 O383 2.069 . S
Co353 O385 2.015 . S
Co354 O356 2.122 . S
Co354 O362 2.073 . S
Co354 O363 2.327 . S
Co354 O364 1.976 . S
Co355 O356 2.087 1_545 S
Co355 O358 2.087 . S
Co355 O365 2.111 1_545 S
Co355 O366 2.143 . S
Co355 O370 2.111 . S
Co355 O384 2.143 1_545 S
O356 Co353 2.042 . S
O356 Co354 2.122 . S
O356 Co355 2.087 1_565 S
O356 H357 0.980 . S
H357 O356 0.980 . S
O358 Co355 2.087 . S
O358 Co359 2.042 . S
O358 Co360 2.122 1_554 S
O358 H361 0.980 . S
Co359 O358 2.042 . S
Co359 O367 2.286 . S
Co359 O368 2.069 . S
Co359 O369 2.015 . S
Co359 O372 2.264 . S
Co360 O358 2.122 1_556 S
Co360 O371 1.976 . S
Co360 O372 2.327 1_556 S
Co360 O373 2.073 . S
H361 O358 0.980 . S
O362 Co354 2.073 . S
O362 C377 1.245 . S
O363 Co353 2.264 . S
O363 Co354 2.327 . S
O363 C377 1.257 . S
O364 Co354 1.976 . S
O364 C376 1.251 . S
O365 Co355 2.111 1_565 S
O365 C376 1.274 . S
O366 Co355 2.143 . S
O366 C379 1.246 . S
O367 Co359 2.286 . S
O367 C378 1.259 . S
O368 Co359 2.069 . S
O368 C378 1.289 . S
O369 Co359 2.015 . S
O369 C379 1.257 . S
O370 Co355 2.111 . S
O370 C380 1.274 1_554 S
O371 Co360 1.976 . S
O371 C380 1.250 . S
O372 Co359 2.264 . S
O372 Co360 2.327 1_554 S
O372 C381 1.274 . S
O373 Co360 2.073 . S
O373 C381 1.225 1_556 S
C374 O382 1.259 . S
C374 O383 1.289 1_556 S
C375 O384 1.246 1_556 S
C375 O385 1.257 1_556 S
C376 O364 1.251 . S
C376 O365 1.274 . S
C377 O362 1.245 . S
C377 O363 1.257 . S
C378 O367 1.259 . S
C378 O368 1.289 . S
C379 O366 1.246 . S
C379 O369 1.257 . S
C380 O370 1.274 1_556 S
C380 O371 1.250 . S
C381 O372 1.274 . S
C381 O373 1.225 1_554 S
O382 Co353 2.286 1_556 S
O382 C374 1.259 . S
O383 Co353 2.069 . S
O383 C374 1.289 1_554 S
O384 Co355 2.143 1_565 S
O384 C375 1.246 1_554 S
O385 Co353 2.015 . S
O385 C375 1.257 1_554 S
Co386 O389 2.042 1_556 S
Co386 O396 2.264 1_556 S
Co386 O415 2.286 . S
Co386 O416 2.069 . S
Co386 O418 2.015 . S
Co387 O389 2.122 . S
Co387 O395 2.073 . S
Co387 O396 2.327 . S
Co387 O397 1.976 . S
Co388 O389 2.087 . S
Co388 O391 2.087 1_554 S
Co388 O398 2.111 . S
Co388 O399 2.143 . S
Co388 O403 2.111 1_554 S
Co388 O417 2.143 1_554 S
O389 Co386 2.042 1_554 S
O389 Co387 2.122 . S
O389 Co388 2.087 . S
O389 H390 0.980 . S
H390 O389 0.980 . S
O391 Co388 2.087 1_556 S
O391 Co392 2.042 1_556 S
O391 Co393 2.122 . S
O391 H394 0.980 1_455 S
Co392 O391 2.042 1_554 S
Co392 O400 2.286 . S
Co392 O401 2.069 1_455 S
Co392 O402 2.015 . S
Co392 O405 2.264 1_554 S
Co393 O391 2.122 . S
Co393 O404 1.976 . S
Co393 O405 2.327 . S
Co393 O406 2.073 1_455 S
H394 O391 0.980 1_655 S
O395 Co387 2.073 . S
O395 C410 1.245 . S
O396 Co386 2.264 1_554 S
O396 Co387 2.327 . S
O396 C410 1.257 . S
O397 Co387 1.976 . S
O397 C409 1.251 1_455 S
O398 Co388 2.111 . S
O398 C409 1.274 1_455 S
O399 Co388 2.143 . S
O399 C412 1.246 . S
O400 Co392 2.286 . S
O400 C411 1.259 1_455 S
O401 Co392 2.069 1_655 S
O401 C411 1.289 . S
O402 Co392 2.015 . S
O402 C412 1.257 . S
O403 Co388 2.111 1_556 S
O403 C413 1.274 . S
O404 Co393 1.976 . S
O404 C413 1.251 . S
O405 Co392 2.264 1_556 S
O405 Co393 2.327 . S
O405 C414 1.257 1_455 S
O406 Co393 2.073 1_655 S
O406 C414 1.245 . S
C407 O415 1.259 . S
C407 O416 1.289 . S
C408 O417 1.246 1_655 S
C408 O418 1.257 1_655 S
C409 O397 1.251 1_655 S
C409 O398 1.274 1_655 S
C410 O395 1.245 . S
C410 O396 1.257 . S
C411 O400 1.259 1_655 S
C411 O401 1.289 . S
C412 O399 1.246 . S
C412 O402 1.257 . S
C413 O403 1.274 . S
C413 O404 1.251 . S
C414 O405 1.257 1_655 S
C414 O406 1.245 . S
O415 Co386 2.286 . S
O415 C407 1.259 . S
O416 Co386 2.069 . S
O416 C407 1.289 . S
O417 Co388 2.143 1_556 S
O417 C408 1.246 1_455 S
O418 Co386 2.015 . S
O418 C408 1.257 1_455 S
Co419 O422 2.043 1_556 S
Co419 O429 2.264 1_556 S
Co419 O448 2.286 . S
Co419 O449 2.069 . S
Co419 O451 2.015 . S
Co420 O422 2.122 . S
Co420 O428 2.073 . S
Co420 O429 2.327 . S
Co420 O430 1.976 . S
Co421 O422 2.087 . S
Co421 O424 2.087 . S
Co421 O431 2.111 . S
Co421 O432 2.143 . S
Co421 O436 2.111 1_554 S
Co421 O450 2.143 1_554 S
O422 Co419 2.043 1_554 S
O422 Co420 2.122 . S
O422 Co421 2.087 . S
O422 H423 0.980 . S
H423 O422 0.980 . S
O424 Co421 2.087 . S
O424 Co425 2.042 . S
O424 Co426 2.122 1_554 S
O424 H427 0.980 . S
Co425 O424 2.042 . S
Co425 O433 2.286 . S
Co425 O434 2.069 . S
Co425 O435 2.015 . S
Co425 O438 2.264 1_554 S
Co426 O424 2.122 1_556 S
Co426 O437 1.976 . S
Co426 O438 2.327 . S
Co426 O439 2.073 . S
H427 O424 0.980 . S
O428 Co420 2.073 . S
O428 C443 1.245 . S
O429 Co419 2.264 1_554 S
O429 Co420 2.327 . S
O429 C443 1.257 . S
O430 Co420 1.976 . S
O430 C442 1.251 . S
O431 Co421 2.111 . S
O431 C442 1.274 . S
O432 Co421 2.143 . S
O432 C445 1.246 . S
O433 Co425 2.286 . S
O433 C444 1.259 . S
O434 Co425 2.069 . S
O434 C444 1.289 . S
O435 Co425 2.015 . S
O435 C445 1.257 . S
O436 Co421 2.111 1_556 S
O436 C446 1.274 . S
O437 Co426 1.976 . S
O437 C446 1.251 . S
O438 Co425 2.264 1_556 S
O438 Co426 2.327 . S
O438 C447 1.257 . S
O439 Co426 2.073 . S
O439 C447 1.245 . S
C440 O448 1.259 . S
C440 O449 1.289 . S
C441 O450 1.246 . S
C441 O451 1.257 . S
C442 O430 1.251 . S
C442 O431 1.274 . S
C443 O428 1.245 . S
C443 O429 1.257 . S
C444 O433 1.259 . S
C444 O434 1.289 . S
C445 O432 1.246 . S
C445 O435 1.257 . S
C446 O436 1.274 . S
C446 O437 1.251 . S
C447 O438 1.257 . S
C447 O439 1.245 . S
O448 Co419 2.286 . S
O448 C440 1.259 . S
O449 Co419 2.069 . S
O449 C440 1.289 . S
O450 Co421 2.143 1_556 S
O450 C441 1.246 . S
O451 Co419 2.015 . S
O451 C441 1.257 . S
Co452 O455 2.042 . S
Co452 O462 2.264 . S
Co452 O481 2.286 . S
Co452 O482 2.069 . S
Co452 O484 2.015 . S
Co453 O455 2.122 . S
Co453 O461 2.073 . S
Co453 O462 2.327 . S
Co453 O463 1.976 . S
Co454 O455 2.087 . S
Co454 O457 2.087 1_455 S
Co454 O464 2.111 . S
Co454 O465 2.143 1_455 S
Co454 O469 2.111 1_455 S
Co454 O483 2.143 . S
O455 Co452 2.042 . S
O455 Co453 2.122 . S
O455 Co454 2.087 . S
O455 H456 0.980 . S
H456 O455 0.980 . S
O457 Co454 2.087 1_655 S
O457 Co458 2.042 . S
O457 Co459 2.122 . S
O457 H460 0.980 . S
Co458 O457 2.042 . S
Co458 O466 2.286 . S
Co458 O467 2.069 . S
Co458 O468 2.015 . S
Co458 O471 2.264 . S
Co459 O457 2.122 . S
Co459 O470 1.976 . S
Co459 O471 2.327 . S
Co459 O472 2.073 . S
H460 O457 0.980 . S
O461 Co453 2.073 . S
O461 C476 1.245 . S
O462 Co452 2.264 . S
O462 Co453 2.327 . S
O462 C476 1.257 . S
O463 Co453 1.976 . S
O463 C475 1.251 . S
O464 Co454 2.111 . S
O464 C475 1.274 . S
O465 Co454 2.143 1_655 S
O465 C478 1.246 . S
O466 Co458 2.286 . S
O466 C477 1.259 . S
O467 Co458 2.069 . S
O467 C477 1.289 . S
O468 Co458 2.015 . S
O468 C478 1.257 . S
O469 Co454 2.111 1_655 S
O469 C479 1.274 . S
O470 Co459 1.976 . S
O470 C479 1.251 . S
O471 Co458 2.264 . S
O471 Co459 2.327 . S
O471 C480 1.257 . S
O472 Co459 2.073 . S
O472 C480 1.245 . S
C473 O481 1.259 . S
C473 O482 1.289 . S
C474 O483 1.246 . S
C474 O484 1.257 . S
C475 O463 1.251 . S
C475 O464 1.274 . S
C476 O461 1.245 . S
C476 O462 1.257 . S
C477 O466 1.259 . S
C477 O467 1.289 . S
C478 O465 1.246 . S
C478 O468 1.257 . S
C479 O469 1.274 . S
C479 O470 1.251 . S
C480 O471 1.257 . S
C480 O472 1.245 . S
O481 Co452 2.286 . S
O481 C473 1.259 . S
O482 Co452 2.069 . S
O482 C473 1.289 . S
O483 Co454 2.143 . S
O483 C474 1.246 . S
O484 Co452 2.015 . S
O484 C474 1.257 . S
Co485 O488 2.042 . S
Co485 O495 2.264 . S
Co485 O514 2.286 . S
Co485 O515 2.069 1_545 S
Co485 O517 2.015 . S
Co486 O488 2.122 . S
Co486 O494 2.073 1_545 S
Co486 O495 2.327 . S
Co486 O496 1.976 . S
Co487 O488 2.087 . S
Co487 O490 2.087 . S
Co487 O497 2.111 . S
Co487 O498 2.143 . S
Co487 O502 2.111 . S
Co487 O516 2.143 . S
O488 Co485 2.042 . S
O488 Co486 2.122 . S
O488 Co487 2.087 . S
O488 H489 0.980 1_545 S
H489 O488 0.980 1_565 S
O490 Co487 2.087 . S
O490 Co491 2.042 . S
O490 Co492 2.122 . S
O490 H493 0.980 . S
Co491 O490 2.042 . S
Co491 O499 2.286 . S
Co491 O500 2.069 . S
Co491 O501 2.015 . S
Co491 O504 2.264 . S
Co492 O490 2.122 . S
Co492 O503 1.976 . S
Co492 O504 2.327 . S
Co492 O505 2.073 . S
H493 O490 0.980 . S
O494 Co486 2.073 1_565 S
O494 C509 1.245 . S
O495 Co485 2.264 . S
O495 Co486 2.327 . S
O495 C509 1.257 1_545 S
O496 Co486 1.976 . S
O496 C508 1.251 . S
O497 Co487 2.111 . S
O497 C508 1.274 . S
O498 Co487 2.143 . S
O498 C511 1.246 1_545 S
O499 Co491 2.286 . S
O499 C510 1.259 . S
O500 Co491 2.069 . S
O500 C510 1.289 . S
O501 Co491 2.015 . S
O501 C511 1.257 1_545 S
O502 Co487 2.111 . S
O502 C512 1.274 1_545 S
O503 Co492 1.976 . S
O503 C512 1.251 1_545 S
O504 Co491 2.264 . S
O504 Co492 2.327 . S
O504 C513 1.257 . S
O505 Co492 2.073 . S
O505 C513 1.245 . S
C506 O514 1.259 1_565 S
C506 O515 1.289 . S
C507 O516 1.246 . S
C507 O517 1.257 . S
C508 O496 1.251 . S
C508 O497 1.274 . S
C509 O494 1.245 . S
C509 O495 1.257 1_565 S
C510 O499 1.259 . S
C510 O500 1.289 . S
C511 O498 1.246 1_565 S
C511 O501 1.257 1_565 S
C512 O502 1.274 1_565 S
C512 O503 1.251 1_565 S
C513 O504 1.257 . S
C513 O505 1.245 . S
O514 Co485 2.286 . S
O514 C506 1.259 1_545 S
O515 Co485 2.069 1_565 S
O515 C506 1.289 . S
O516 Co487 2.143 . S
O516 C507 1.246 . S
O517 Co485 2.015 . S
O517 C507 1.257 . S
H518 C536 0.951 . S
H519 C538 0.951 . S
H520 C540 0.950 . S
H521 C541 0.950 . S
H522 C543 0.950 . S
H523 C546 0.950 . S
H524 C547 0.950 . S
H525 C549 0.950 . S
H526 C550 0.950 . S
H527 C551 0.951 . S
H528 C553 0.951 . S
H529 C555 0.950 . S
H530 C556 0.950 . S
H531 C558 0.950 . S
H532 C561 0.950 . S
H533 C562 0.950 . S
H534 C564 0.950 . S
H535 C565 0.950 . S
C536 H518 0.951 . S
C536 C537 1.366 . S
C536 C538 1.388 . S
C537 C536 1.366 . S
C537 C541 1.385 . S
C538 H519 0.951 . S
C538 C536 1.388 . S
C538 C539 1.366 . S
C539 C538 1.366 . S
C539 C540 1.414 . S
C539 C542 1.499 . S
C540 H520 0.950 . S
C540 C539 1.414 . S
C540 C541 1.374 . S
C541 H521 0.950 . S
C541 C537 1.385 . S
C541 C540 1.374 . S
C542 C539 1.499 . S
C542 C543 1.373 . S
C542 C544 1.389 . S
C543 H522 0.950 . S
C543 C542 1.373 . S
C543 C559 1.377 . S
C544 C542 1.389 . S
C544 C545 1.524 . S
C544 C558 1.377 . S
C545 C544 1.524 . S
C545 C546 1.397 . S
C545 C550 1.363 . S
C546 H523 0.950 . S
C546 C545 1.397 . S
C546 C547 1.334 . S
C547 H524 0.950 . S
C547 C546 1.334 . S
C547 C548 1.287 . S
C548 C547 1.287 . S
C548 C549 1.524 . S
C548 H567 0.913 . S
C549 H525 0.950 . S
C549 C548 1.524 . S
C549 C550 1.415 . S
C550 H526 0.950 . S
C550 C545 1.363 . S
C550 C549 1.415 . S
C551 H527 0.951 . S
C551 C552 1.366 . S
C551 C553 1.388 . S
C552 C551 1.366 . S
C552 C556 1.385 . S
C553 H528 0.951 . S
C553 C551 1.388 . S
C553 C554 1.366 . S
C554 C553 1.366 . S
C554 C555 1.414 . S
C554 C557 1.499 . S
C555 H529 0.950 . S
C555 C554 1.414 . S
C555 C556 1.374 . S
C556 H530 0.950 . S
C556 C552 1.385 . S
C556 C555 1.374 . S
C557 C554 1.499 . S
C557 C558 1.373 . S
C557 C559 1.389 . S
C558 H531 0.950 . S
C558 C544 1.377 . S
C558 C557 1.373 . S
C559 C543 1.377 . S
C559 C557 1.389 . S
C559 C560 1.524 . S
C560 C559 1.524 . S
C560 C561 1.397 . S
C560 C565 1.363 . S
C561 H532 0.950 . S
C561 C560 1.397 . S
C561 C562 1.334 . S
C562 H533 0.950 . S
C562 C561 1.334 . S
C562 C563 1.287 . S
C563 C562 1.287 . S
C563 C564 1.524 . S
C563 H566 0.999 . S
C564 H534 0.950 . S
C564 C563 1.524 . S
C564 C565 1.415 . S
C565 H535 0.950 . S
C565 C560 1.363 . S
C565 C564 1.415 . S
H566 C563 0.999 . S
H567 C548 0.913 . S
H568 C586 0.951 . S
H569 C588 0.951 . S
H570 C590 0.950 . S
H571 C591 0.950 . S
H572 C593 0.950 . S
H573 C596 0.950 . S
H574 C597 0.950 . S
H575 C599 0.950 . S
H576 C600 0.950 . S
H577 C601 0.951 . S
H578 C603 0.951 . S
H579 C605 0.950 . S
H580 C606 0.950 . S
H581 C608 0.950 . S
H582 C611 0.950 . S
H583 C612 0.950 . S
H584 C614 0.950 . S
H585 C615 0.950 . S
C586 H568 0.951 . S
C586 C587 1.366 . S
C586 C588 1.388 . S
C587 C586 1.366 . S
C587 C591 1.385 . S
C588 H569 0.951 . S
C588 C586 1.388 . S
C588 C589 1.366 . S
C589 C588 1.366 . S
C589 C590 1.414 . S
C589 C592 1.499 . S
C590 H570 0.950 . S
C590 C589 1.414 . S
C590 C591 1.374 . S
C591 H571 0.950 . S
C591 C587 1.385 . S
C591 C590 1.374 . S
C592 C589 1.499 . S
C592 C593 1.373 . S
C592 C594 1.389 . S
C593 H572 0.950 . S
C593 C592 1.373 . S
C593 C609 1.377 . S
C594 C592 1.389 . S
C594 C595 1.524 . S
C594 C608 1.377 . S
C595 C594 1.524 . S
C595 C596 1.397 . S
C595 C600 1.363 . S
C596 H573 0.950 . S
C596 C595 1.397 . S
C596 C597 1.334 . S
C597 H574 0.950 . S
C597 C596 1.334 . S
C597 C598 1.287 . S
C598 C597 1.287 . S
C598 C599 1.524 . S
C598 H617 0.913 . S
C599 H575 0.950 . S
C599 C598 1.524 . S
C599 C600 1.415 . S
C600 H576 0.950 . S
C600 C595 1.363 . S
C600 C599 1.415 . S
C601 H577 0.951 . S
C601 C602 1.366 . S
C601 C603 1.388 . S
C602 C601 1.366 . S
C602 C606 1.385 . S
C603 H578 0.951 . S
C603 C601 1.388 . S
C603 C604 1.366 . S
C604 C603 1.366 . S
C604 C605 1.414 . S
C604 C607 1.499 . S
C605 H579 0.950 . S
C605 C604 1.414 . S
C605 C606 1.374 . S
C606 H580 0.950 . S
C606 C602 1.385 . S
C606 C605 1.374 . S
C607 C604 1.499 . S
C607 C608 1.373 . S
C607 C609 1.389 . S
C608 H581 0.950 . S
C608 C594 1.377 . S
C608 C607 1.373 . S
C609 C593 1.377 . S
C609 C607 1.389 . S
C609 C610 1.524 . S
C610 C609 1.524 . S
C610 C611 1.397 . S
C610 C615 1.363 . S
C611 H582 0.950 . S
C611 C610 1.397 . S
C611 C612 1.334 . S
C612 H583 0.950 . S
C612 C611 1.334 . S
C612 C613 1.287 . S
C613 C612 1.287 . S
C613 C614 1.524 . S
C613 H616 0.999 . S
C614 H584 0.950 . S
C614 C613 1.524 . S
C614 C615 1.415 . S
C615 H585 0.950 . S
C615 C610 1.363 . S
C615 C614 1.415 . S
H616 C613 0.999 . S
H617 C598 0.913 . S
H618 C636 0.951 . S
H619 C638 0.951 . S
H620 C640 0.950 . S
H621 C641 0.950 . S
H622 C643 0.950 . S
H623 C646 0.950 . S
H624 C647 0.950 . S
H625 C649 0.950 . S
H626 C650 0.950 . S
H627 C651 0.951 . S
H628 C653 0.951 . S
H629 C655 0.950 . S
H630 C656 0.950 . S
H631 C658 0.950 . S
H632 C661 0.950 . S
H633 C662 0.950 . S
H634 C664 0.950 . S
H635 C665 0.950 . S
C636 H618 0.951 . S
C636 C637 1.366 . S
C636 C638 1.388 . S
C637 C636 1.366 . S
C637 C641 1.385 . S
C638 H619 0.951 . S
C638 C636 1.388 . S
C638 C639 1.366 . S
C639 C638 1.366 . S
C639 C640 1.414 . S
C639 C642 1.499 . S
C640 H620 0.950 . S
C640 C639 1.414 . S
C640 C641 1.374 . S
C641 H621 0.950 . S
C641 C637 1.385 . S
C641 C640 1.374 . S
C642 C639 1.499 . S
C642 C643 1.373 . S
C642 C644 1.389 . S
C643 H622 0.950 . S
C643 C642 1.373 . S
C643 C659 1.377 . S
C644 C642 1.389 . S
C644 C645 1.524 . S
C644 C658 1.377 . S
C645 C644 1.524 . S
C645 C646 1.397 . S
C645 C650 1.363 . S
C646 H623 0.950 . S
C646 C645 1.397 . S
C646 C647 1.334 . S
C647 H624 0.950 . S
C647 C646 1.334 . S
C647 C648 1.287 . S
C648 C647 1.287 . S
C648 C649 1.524 . S
C648 H667 0.913 . S
C649 H625 0.950 . S
C649 C648 1.524 . S
C649 C650 1.415 . S
C650 H626 0.950 . S
C650 C645 1.363 . S
C650 C649 1.415 . S
C651 H627 0.951 . S
C651 C652 1.366 . S
C651 C653 1.388 . S
C652 C651 1.366 . S
C652 C656 1.385 . S
C653 H628 0.951 . S
C653 C651 1.388 . S
C653 C654 1.366 . S
C654 C653 1.366 . S
C654 C655 1.414 . S
C654 C657 1.499 . S
C655 H629 0.950 . S
C655 C654 1.414 . S
C655 C656 1.374 . S
C656 H630 0.950 . S
C656 C652 1.385 . S
C656 C655 1.374 . S
C657 C654 1.499 . S
C657 C658 1.373 . S
C657 C659 1.389 . S
C658 H631 0.950 . S
C658 C644 1.377 . S
C658 C657 1.373 . S
C659 C643 1.377 . S
C659 C657 1.389 . S
C659 C660 1.524 . S
C660 C659 1.524 . S
C660 C661 1.397 . S
C660 C665 1.363 . S
C661 H632 0.950 . S
C661 C660 1.397 . S
C661 C662 1.334 . S
C662 H633 0.950 . S
C662 C661 1.334 . S
C662 C663 1.287 . S
C663 C662 1.287 . S
C663 C664 1.524 . S
C663 H666 0.999 . S
C664 H634 0.950 . S
C664 C663 1.524 . S
C664 C665 1.415 . S
C665 H635 0.950 . S
C665 C660 1.363 . S
C665 C664 1.415 . S
H666 C663 0.999 . S
H667 C648 0.913 . S
H668 C686 0.951 . S
H669 C688 0.951 . S
H670 C690 0.950 . S
H671 C691 0.950 . S
H672 C693 0.950 . S
H673 C696 0.950 . S
H674 C697 0.950 . S
H675 C699 0.950 . S
H676 C700 0.950 . S
H677 C701 0.951 . S
H678 C703 0.951 . S
H679 C705 0.950 . S
H680 C706 0.950 . S
H681 C708 0.950 . S
H682 C711 0.950 . S
H683 C712 0.950 . S
H684 C714 0.950 . S
H685 C715 0.950 . S
C686 H668 0.951 . S
C686 C687 1.366 . S
C686 C688 1.388 . S
C687 C686 1.366 . S
C687 C691 1.385 . S
C688 H669 0.951 . S
C688 C686 1.388 . S
C688 C689 1.366 . S
C689 C688 1.366 . S
C689 C690 1.414 . S
C689 C692 1.499 . S
C690 H670 0.950 . S
C690 C689 1.414 . S
C690 C691 1.374 . S
C691 H671 0.950 . S
C691 C687 1.385 . S
C691 C690 1.374 . S
C692 C689 1.499 . S
C692 C693 1.373 . S
C692 C694 1.389 . S
C693 H672 0.950 . S
C693 C692 1.373 . S
C693 C709 1.377 . S
C694 C692 1.389 . S
C694 C695 1.524 . S
C694 C708 1.377 . S
C695 C694 1.524 . S
C695 C696 1.397 . S
C695 C700 1.363 . S
C696 H673 0.950 . S
C696 C695 1.397 . S
C696 C697 1.334 . S
C697 H674 0.950 . S
C697 C696 1.334 . S
C697 C698 1.287 . S
C698 C697 1.287 . S
C698 C699 1.524 . S
C698 H717 0.913 . S
C699 H675 0.950 . S
C699 C698 1.524 . S
C699 C700 1.415 . S
C700 H676 0.950 . S
C700 C695 1.363 . S
C700 C699 1.415 . S
C701 H677 0.951 . S
C701 C702 1.366 . S
C701 C703 1.388 . S
C702 C701 1.366 . S
C702 C706 1.385 . S
C703 H678 0.951 . S
C703 C701 1.388 . S
C703 C704 1.366 . S
C704 C703 1.366 . S
C704 C705 1.414 . S
C704 C707 1.499 . S
C705 H679 0.950 . S
C705 C704 1.414 . S
C705 C706 1.374 . S
C706 H680 0.950 . S
C706 C702 1.385 . S
C706 C705 1.374 . S
C707 C704 1.499 . S
C707 C708 1.373 . S
C707 C709 1.389 . S
C708 H681 0.950 . S
C708 C694 1.377 . S
C708 C707 1.373 . S
C709 C693 1.377 . S
C709 C707 1.389 . S
C709 C710 1.524 . S
C710 C709 1.524 . S
C710 C711 1.397 . S
C710 C715 1.363 . S
C711 H682 0.950 . S
C711 C710 1.397 . S
C711 C712 1.334 . S
C712 H683 0.950 . S
C712 C711 1.334 . S
C712 C713 1.287 . S
C713 C712 1.287 . S
C713 C714 1.524 . S
C713 H716 0.999 . S
C714 H684 0.950 . S
C714 C713 1.524 . S
C714 C715 1.415 . S
C715 H685 0.950 . S
C715 C710 1.363 . S
C715 C714 1.415 . S
H716 C713 0.999 . S
H717 C698 0.913 . S
H718 C736 0.951 . S
H719 C738 0.951 . S
H720 C740 0.950 . S
H721 C741 0.950 . S
H722 C743 0.950 . S
H723 C746 0.950 . S
H724 C747 0.950 . S
H725 C749 0.950 . S
H726 C750 0.950 . S
H727 C751 0.951 . S
H728 C753 0.951 . S
H729 C755 0.950 . S
H730 C756 0.950 . S
H731 C758 0.950 . S
H732 C761 0.950 . S
H733 C762 0.950 . S
H734 C764 0.950 . S
H735 C765 0.950 . S
C736 H718 0.951 . S
C736 C737 1.366 . S
C736 C738 1.388 . S
C737 C736 1.366 . S
C737 C741 1.385 . S
C738 H719 0.951 . S
C738 C736 1.388 . S
C738 C739 1.366 . S
C739 C738 1.366 . S
C739 C740 1.414 . S
C739 C742 1.499 . S
C740 H720 0.950 . S
C740 C739 1.414 . S
C740 C741 1.374 . S
C741 H721 0.950 . S
C741 C737 1.385 . S
C741 C740 1.374 . S
C742 C739 1.499 . S
C742 C743 1.373 . S
C742 C744 1.389 . S
C743 H722 0.950 . S
C743 C742 1.373 . S
C743 C759 1.377 . S
C744 C742 1.389 . S
C744 C745 1.524 . S
C744 C758 1.377 . S
C745 C744 1.524 . S
C745 C746 1.397 . S
C745 C750 1.363 . S
C746 H723 0.950 . S
C746 C745 1.397 . S
C746 C747 1.334 . S
C747 H724 0.950 . S
C747 C746 1.334 . S
C747 C748 1.287 . S
C748 C747 1.287 . S
C748 C749 1.524 . S
C748 H767 0.913 . S
C749 H725 0.950 . S
C749 C748 1.524 . S
C749 C750 1.415 . S
C750 H726 0.950 . S
C750 C745 1.363 . S
C750 C749 1.415 . S
C751 H727 0.951 . S
C751 C752 1.366 . S
C751 C753 1.388 . S
C752 C751 1.366 . S
C752 C756 1.385 . S
C753 H728 0.951 . S
C753 C751 1.388 . S
C753 C754 1.366 . S
C754 C753 1.366 . S
C754 C755 1.414 . S
C754 C757 1.499 . S
C755 H729 0.950 . S
C755 C754 1.414 . S
C755 C756 1.374 . S
C756 H730 0.950 . S
C756 C752 1.385 . S
C756 C755 1.374 . S
C757 C754 1.499 . S
C757 C758 1.373 . S
C757 C759 1.389 . S
C758 H731 0.950 . S
C758 C744 1.377 . S
C758 C757 1.373 . S
C759 C743 1.377 . S
C759 C757 1.389 . S
C759 C760 1.524 . S
C760 C759 1.524 . S
C760 C761 1.397 . S
C760 C765 1.363 . S
C761 H732 0.950 . S
C761 C760 1.397 . S
C761 C762 1.334 . S
C762 H733 0.950 . S
C762 C761 1.334 . S
C762 C763 1.287 . S
C763 C762 1.287 . S
C763 C764 1.524 . S
C763 H766 0.999 . S
C764 H734 0.950 . S
C764 C763 1.524 . S
C764 C765 1.415 . S
C765 H735 0.950 . S
C765 C760 1.363 . S
C765 C764 1.415 . S
H766 C763 0.999 . S
H767 C748 0.913 . S
H768 C786 0.951 . S
H769 C788 0.951 . S
H770 C790 0.950 . S
H771 C791 0.950 . S
H772 C793 0.950 . S
H773 C796 0.950 . S
H774 C797 0.950 . S
H775 C799 0.950 . S
H776 C800 0.950 . S
H777 C801 0.951 . S
H778 C803 0.951 . S
H779 C805 0.950 . S
H780 C806 0.950 . S
H781 C808 0.950 . S
H782 C811 0.950 . S
H783 C812 0.950 . S
H784 C814 0.950 . S
H785 C815 0.950 . S
C786 H768 0.951 . S
C786 C787 1.366 . S
C786 C788 1.388 . S
C787 C786 1.366 . S
C787 C791 1.385 . S
C788 H769 0.951 . S
C788 C786 1.388 . S
C788 C789 1.366 . S
C789 C788 1.366 . S
C789 C790 1.414 . S
C789 C792 1.499 . S
C790 H770 0.950 . S
C790 C789 1.414 . S
C790 C791 1.374 . S
C791 H771 0.950 . S
C791 C787 1.385 . S
C791 C790 1.374 . S
C792 C789 1.499 . S
C792 C793 1.373 . S
C792 C794 1.389 . S
C793 H772 0.950 . S
C793 C792 1.373 . S
C793 C809 1.377 . S
C794 C792 1.389 . S
C794 C795 1.524 . S
C794 C808 1.377 . S
C795 C794 1.524 . S
C795 C796 1.397 . S
C795 C800 1.363 . S
C796 H773 0.950 . S
C796 C795 1.397 . S
C796 C797 1.334 . S
C797 H774 0.950 . S
C797 C796 1.334 . S
C797 C798 1.287 . S
C798 C797 1.287 . S
C798 C799 1.524 . S
C798 H817 0.913 . S
C799 H775 0.950 . S
C799 C798 1.524 . S
C799 C800 1.415 . S
C800 H776 0.950 . S
C800 C795 1.363 . S
C800 C799 1.415 . S
C801 H777 0.951 . S
C801 C802 1.366 . S
C801 C803 1.388 . S
C802 C801 1.366 . S
C802 C806 1.385 . S
C803 H778 0.951 . S
C803 C801 1.388 . S
C803 C804 1.366 . S
C804 C803 1.366 . S
C804 C805 1.414 . S
C804 C807 1.499 . S
C805 H779 0.950 . S
C805 C804 1.414 . S
C805 C806 1.374 . S
C806 H780 0.950 . S
C806 C802 1.385 . S
C806 C805 1.374 . S
C807 C804 1.499 . S
C807 C808 1.373 . S
C807 C809 1.389 . S
C808 H781 0.950 . S
C808 C794 1.377 . S
C808 C807 1.373 . S
C809 C793 1.377 . S
C809 C807 1.389 . S
C809 C810 1.524 . S
C810 C809 1.524 . S
C810 C811 1.397 . S
C810 C815 1.363 . S
C811 H782 0.950 . S
C811 C810 1.397 . S
C811 C812 1.334 . S
C812 H783 0.950 . S
C812 C811 1.334 . S
C812 C813 1.287 . S
C813 C812 1.287 . S
C813 C814 1.524 . S
C813 H816 0.999 . S
C814 H784 0.950 . S
C814 C813 1.524 . S
C814 C815 1.415 . S
C815 H785 0.950 . S
C815 C810 1.363 . S
C815 C814 1.415 . S
H816 C813 0.999 . S
H817 C798 0.913 . S
H818 C836 0.951 . S
H819 C838 0.951 . S
H820 C840 0.950 . S
H821 C841 0.950 . S
H822 C843 0.950 . S
H823 C846 0.950 . S
H824 C847 0.950 . S
H825 C849 0.950 . S
H826 C850 0.950 . S
H827 C851 0.951 . S
H828 C853 0.951 . S
H829 C855 0.950 . S
H830 C856 0.950 . S
H831 C858 0.950 . S
H832 C861 0.950 . S
H833 C862 0.950 . S
H834 C864 0.950 . S
H835 C865 0.950 . S
C836 H818 0.951 . S
C836 C837 1.366 . S
C836 C838 1.388 . S
C837 C836 1.366 . S
C837 C841 1.385 . S
C838 H819 0.951 . S
C838 C836 1.388 . S
C838 C839 1.366 . S
C839 C838 1.366 . S
C839 C840 1.414 . S
C839 C842 1.499 . S
C840 H820 0.950 . S
C840 C839 1.414 . S
C840 C841 1.374 . S
C841 H821 0.950 . S
C841 C837 1.385 . S
C841 C840 1.374 . S
C842 C839 1.499 . S
C842 C843 1.373 . S
C842 C844 1.389 . S
C843 H822 0.950 . S
C843 C842 1.373 . S
C843 C859 1.377 . S
C844 C842 1.389 . S
C844 C845 1.524 . S
C844 C858 1.377 . S
C845 C844 1.524 . S
C845 C846 1.397 . S
C845 C850 1.363 . S
C846 H823 0.950 . S
C846 C845 1.397 . S
C846 C847 1.334 . S
C847 H824 0.950 . S
C847 C846 1.334 . S
C847 C848 1.287 . S
C848 C847 1.287 . S
C848 C849 1.524 . S
C848 H867 0.913 . S
C849 H825 0.950 . S
C849 C848 1.524 . S
C849 C850 1.415 . S
C850 H826 0.950 . S
C850 C845 1.363 . S
C850 C849 1.415 . S
C851 H827 0.951 . S
C851 C852 1.366 . S
C851 C853 1.388 . S
C852 C851 1.366 . S
C852 C856 1.385 . S
C853 H828 0.951 . S
C853 C851 1.388 . S
C853 C854 1.366 . S
C854 C853 1.366 . S
C854 C855 1.414 . S
C854 C857 1.499 . S
C855 H829 0.950 . S
C855 C854 1.414 . S
C855 C856 1.374 . S
C856 H830 0.950 . S
C856 C852 1.385 . S
C856 C855 1.374 . S
C857 C854 1.499 . S
C857 C858 1.373 . S
C857 C859 1.389 . S
C858 H831 0.950 . S
C858 C844 1.377 . S
C858 C857 1.373 . S
C859 C843 1.377 . S
C859 C857 1.389 . S
C859 C860 1.524 . S
C860 C859 1.524 . S
C860 C861 1.397 . S
C860 C865 1.363 . S
C861 H832 0.950 . S
C861 C860 1.397 . S
C861 C862 1.334 . S
C862 H833 0.950 . S
C862 C861 1.334 . S
C862 C863 1.287 . S
C863 C862 1.287 . S
C863 C864 1.524 . S
C863 H866 0.999 . S
C864 H834 0.950 . S
C864 C863 1.524 . S
C864 C865 1.415 . S
C865 H835 0.950 . S
C865 C860 1.363 . S
C865 C864 1.415 . S
H866 C863 0.999 . S
H867 C848 0.913 . S
H868 C886 0.951 . S
H869 C888 0.951 . S
H870 C890 0.950 . S
H871 C891 0.950 . S
H872 C893 0.950 . S
H873 C896 0.950 . S
H874 C897 0.950 . S
H875 C899 0.950 . S
H876 C900 0.950 . S
H877 C901 0.951 . S
H878 C903 0.951 . S
H879 C905 0.950 . S
H880 C906 0.950 . S
H881 C908 0.950 . S
H882 C911 0.950 . S
H883 C912 0.950 . S
H884 C914 0.950 . S
H885 C915 0.950 . S
C886 H868 0.951 . S
C886 C887 1.366 . S
C886 C888 1.388 . S
C887 C886 1.366 . S
C887 C891 1.385 . S
C888 H869 0.951 . S
C888 C886 1.388 . S
C888 C889 1.366 . S
C889 C888 1.366 . S
C889 C890 1.414 . S
C889 C892 1.499 . S
C890 H870 0.950 . S
C890 C889 1.414 . S
C890 C891 1.374 . S
C891 H871 0.950 . S
C891 C887 1.385 . S
C891 C890 1.374 . S
C892 C889 1.499 . S
C892 C893 1.373 . S
C892 C894 1.389 . S
C893 H872 0.950 . S
C893 C892 1.373 . S
C893 C909 1.377 . S
C894 C892 1.389 . S
C894 C895 1.524 . S
C894 C908 1.377 . S
C895 C894 1.524 . S
C895 C896 1.397 . S
C895 C900 1.363 . S
C896 H873 0.950 . S
C896 C895 1.397 . S
C896 C897 1.334 . S
C897 H874 0.950 . S
C897 C896 1.334 . S
C897 C898 1.287 . S
C898 C897 1.287 . S
C898 C899 1.524 . S
C898 H917 0.913 . S
C899 H875 0.950 . S
C899 C898 1.524 . S
C899 C900 1.415 . S
C900 H876 0.950 . S
C900 C895 1.363 . S
C900 C899 1.415 . S
C901 H877 0.951 . S
C901 C902 1.366 . S
C901 C903 1.388 . S
C902 C901 1.366 . S
C902 C906 1.385 . S
C903 H878 0.951 . S
C903 C901 1.388 . S
C903 C904 1.366 . S
C904 C903 1.366 . S
C904 C905 1.414 . S
C904 C907 1.499 . S
C905 H879 0.950 . S
C905 C904 1.414 . S
C905 C906 1.374 . S
C906 H880 0.950 . S
C906 C902 1.385 . S
C906 C905 1.374 . S
C907 C904 1.499 . S
C907 C908 1.373 . S
C907 C909 1.389 . S
C908 H881 0.950 . S
C908 C894 1.377 . S
C908 C907 1.373 . S
C909 C893 1.377 . S
C909 C907 1.389 . S
C909 C910 1.524 . S
C910 C909 1.524 . S
C910 C911 1.397 . S
C910 C915 1.363 . S
C911 H882 0.950 . S
C911 C910 1.397 . S
C911 C912 1.334 . S
C912 H883 0.950 . S
C912 C911 1.334 . S
C912 C913 1.287 . S
C913 C912 1.287 . S
C913 C914 1.524 . S
C913 H916 0.999 1_565 S
C914 H884 0.950 . S
C914 C913 1.524 . S
C914 C915 1.415 . S
C915 H885 0.950 . S
C915 C910 1.363 . S
C915 C914 1.415 . S
H916 C913 0.999 1_545 S
H917 C898 0.913 . S
H918 C936 0.951 . S
H919 C938 0.951 . S
H920 C940 0.950 . S
H921 C941 0.950 . S
H922 C943 0.950 . S
H923 C946 0.950 . S
H924 C947 0.950 . S
H925 C949 0.950 . S
H926 C950 0.950 . S
H927 C951 0.951 . S
H928 C953 0.951 . S
H929 C955 0.950 . S
H930 C956 0.950 . S
H931 C958 0.950 . S
H932 C961 0.950 . S
H933 C962 0.950 . S
H934 C964 0.950 . S
H935 C965 0.950 . S
C936 H918 0.951 . S
C936 C937 1.366 . S
C936 C938 1.388 . S
C937 C936 1.366 . S
C937 C941 1.385 . S
C938 H919 0.951 . S
C938 C936 1.388 . S
C938 C939 1.366 . S
C939 C938 1.366 . S
C939 C940 1.414 . S
C939 C942 1.499 . S
C940 H920 0.950 . S
C940 C939 1.414 . S
C940 C941 1.374 . S
C941 H921 0.950 . S
C941 C937 1.385 . S
C941 C940 1.374 . S
C942 C939 1.499 . S
C942 C943 1.373 . S
C942 C944 1.389 . S
C943 H922 0.950 . S
C943 C942 1.373 . S
C943 C959 1.377 . S
C944 C942 1.389 . S
C944 C945 1.524 . S
C944 C958 1.377 . S
C945 C944 1.524 . S
C945 C946 1.397 . S
C945 C950 1.363 . S
C946 H923 0.950 . S
C946 C945 1.397 . S
C946 C947 1.334 . S
C947 H924 0.950 . S
C947 C946 1.334 . S
C947 C948 1.287 . S
C948 C947 1.287 . S
C948 C949 1.524 . S
C948 H967 0.913 . S
C949 H925 0.950 . S
C949 C948 1.524 . S
C949 C950 1.415 . S
C950 H926 0.950 . S
C950 C945 1.363 . S
C950 C949 1.415 . S
C951 H927 0.951 . S
C951 C952 1.366 . S
C951 C953 1.388 . S
C952 C951 1.366 . S
C952 C956 1.385 . S
C953 H928 0.951 . S
C953 C951 1.388 . S
C953 C954 1.366 . S
C954 C953 1.366 . S
C954 C955 1.414 . S
C954 C957 1.499 . S
C955 H929 0.950 . S
C955 C954 1.414 . S
C955 C956 1.374 . S
C956 H930 0.950 . S
C956 C952 1.385 . S
C956 C955 1.374 . S
C957 C954 1.499 . S
C957 C958 1.373 . S
C957 C959 1.389 . S
C958 H931 0.950 . S
C958 C944 1.377 . S
C958 C957 1.373 . S
C959 C943 1.377 . S
C959 C957 1.389 . S
C959 C960 1.524 . S
C960 C959 1.524 . S
C960 C961 1.397 . S
C960 C965 1.363 . S
C961 H932 0.950 . S
C961 C960 1.397 . S
C961 C962 1.334 . S
C962 H933 0.950 . S
C962 C961 1.334 . S
C962 C963 1.287 . S
C963 C962 1.287 . S
C963 C964 1.524 . S
C963 H966 0.999 . S
C964 H934 0.950 . S
C964 C963 1.524 . S
C964 C965 1.415 . S
C965 H935 0.950 . S
C965 C960 1.363 . S
C965 C964 1.415 . S
H966 C963 0.999 . S
H967 C948 0.913 . S
H968 C986 0.951 . S
H969 C988 0.951 . S
H970 C990 0.950 . S
H971 C991 0.950 . S
H972 C993 0.950 . S
H973 C996 0.950 . S
H974 C997 0.950 . S
H975 C999 0.950 . S
H976 C1000 0.950 . S
H977 C1001 0.951 . S
H978 C1003 0.951 . S
H979 C1005 0.950 . S
H980 C1006 0.950 . S
H981 C1008 0.950 . S
H982 C1011 0.950 . S
H983 C1012 0.950 . S
H984 C1014 0.950 . S
H985 C1015 0.950 . S
C986 H968 0.951 . S
C986 C987 1.366 . S
C986 C988 1.388 . S
C987 C986 1.366 . S
C987 C991 1.385 . S
C988 H969 0.951 . S
C988 C986 1.388 . S
C988 C989 1.366 . S
C989 C988 1.366 . S
C989 C990 1.414 . S
C989 C992 1.499 . S
C990 H970 0.950 . S
C990 C989 1.414 . S
C990 C991 1.374 . S
C991 H971 0.950 . S
C991 C987 1.385 . S
C991 C990 1.374 . S
C992 C989 1.499 . S
C992 C993 1.373 . S
C992 C994 1.389 . S
C993 H972 0.950 . S
C993 C992 1.373 . S
C993 C1009 1.377 . S
C994 C992 1.389 . S
C994 C995 1.524 . S
C994 C1008 1.377 . S
C995 C994 1.524 . S
C995 C996 1.397 . S
C995 C1000 1.363 . S
C996 H973 0.950 . S
C996 C995 1.397 . S
C996 C997 1.334 . S
C997 H974 0.950 . S
C997 C996 1.334 . S
C997 C998 1.287 . S
C998 C997 1.287 . S
C998 C999 1.524 . S
C998 H1017 0.913 . S
C999 H975 0.950 . S
C999 C998 1.524 . S
C999 C1000 1.415 . S
C1000 H976 0.950 . S
C1000 C995 1.363 . S
C1000 C999 1.415 . S
C1001 H977 0.951 . S
C1001 C1002 1.366 . S
C1001 C1003 1.388 . S
C1002 C1001 1.366 . S
C1002 C1006 1.385 . S
C1003 H978 0.951 . S
C1003 C1001 1.388 . S
C1003 C1004 1.366 . S
C1004 C1003 1.366 . S
C1004 C1005 1.414 . S
C1004 C1007 1.499 . S
C1005 H979 0.950 . S
C1005 C1004 1.414 . S
C1005 C1006 1.374 . S
C1006 H980 0.950 . S
C1006 C1002 1.385 . S
C1006 C1005 1.374 . S
C1007 C1004 1.499 . S
C1007 C1008 1.373 . S
C1007 C1009 1.389 . S
C1008 H981 0.950 . S
C1008 C994 1.377 . S
C1008 C1007 1.373 . S
C1009 C993 1.377 . S
C1009 C1007 1.389 . S
C1009 C1010 1.524 . S
C1010 C1009 1.524 . S
C1010 C1011 1.397 . S
C1010 C1015 1.363 . S
C1011 H982 0.950 . S
C1011 C1010 1.397 . S
C1011 C1012 1.334 . S
C1012 H983 0.950 . S
C1012 C1011 1.334 . S
C1012 C1013 1.287 . S
C1013 C1012 1.287 . S
C1013 C1014 1.524 . S
C1013 H1016 0.999 . S
C1014 H984 0.950 . S
C1014 C1013 1.524 . S
C1014 C1015 1.415 . S
C1015 H985 0.950 . S
C1015 C1010 1.363 . S
C1015 C1014 1.415 . S
H1016 C1013 0.999 . S
H1017 C998 0.913 . S
H1018 C1036 0.951 . S
H1019 C1038 0.951 . S
H1020 C1040 0.950 . S
H1021 C1041 0.950 . S
H1022 C1043 0.950 . S
H1023 C1046 0.950 . S
H1024 C1047 0.950 . S
H1025 C1049 0.950 . S
H1026 C1050 0.950 . S
H1027 C1051 0.951 . S
H1028 C1053 0.951 . S
H1029 C1055 0.950 . S
H1030 C1056 0.950 . S
H1031 C1058 0.950 . S
H1032 C1061 0.950 . S
H1033 C1062 0.950 . S
H1034 C1064 0.950 . S
H1035 C1065 0.950 . S
C1036 H1018 0.951 . S
C1036 C1037 1.366 . S
C1036 C1038 1.388 . S
C1037 C1036 1.366 . S
C1037 C1041 1.385 . S
C1038 H1019 0.951 . S
C1038 C1036 1.388 . S
C1038 C1039 1.366 . S
C1039 C1038 1.366 . S
C1039 C1040 1.414 . S
C1039 C1042 1.499 . S
C1040 H1020 0.950 . S
C1040 C1039 1.414 . S
C1040 C1041 1.374 . S
C1041 H1021 0.950 . S
C1041 C1037 1.385 . S
C1041 C1040 1.374 . S
C1042 C1039 1.499 . S
C1042 C1043 1.373 . S
C1042 C1044 1.389 . S
C1043 H1022 0.950 . S
C1043 C1042 1.373 . S
C1043 C1059 1.377 . S
C1044 C1042 1.389 . S
C1044 C1045 1.524 . S
C1044 C1058 1.377 . S
C1045 C1044 1.524 . S
C1045 C1046 1.397 . S
C1045 C1050 1.363 . S
C1046 H1023 0.950 . S
C1046 C1045 1.397 . S
C1046 C1047 1.334 . S
C1047 H1024 0.950 . S
C1047 C1046 1.334 . S
C1047 C1048 1.287 . S
C1048 C1047 1.287 . S
C1048 C1049 1.524 . S
C1048 H1067 0.913 . S
C1049 H1025 0.950 . S
C1049 C1048 1.524 . S
C1049 C1050 1.415 . S
C1050 H1026 0.950 . S
C1050 C1045 1.363 . S
C1050 C1049 1.415 . S
C1051 H1027 0.951 . S
C1051 C1052 1.366 . S
C1051 C1053 1.388 . S
C1052 C1051 1.366 . S
C1052 C1056 1.385 . S
C1053 H1028 0.951 . S
C1053 C1051 1.388 . S
C1053 C1054 1.366 . S
C1054 C1053 1.366 . S
C1054 C1055 1.414 . S
C1054 C1057 1.499 . S
C1055 H1029 0.950 . S
C1055 C1054 1.414 . S
C1055 C1056 1.374 . S
C1056 H1030 0.950 . S
C1056 C1052 1.385 . S
C1056 C1055 1.374 . S
C1057 C1054 1.499 . S
C1057 C1058 1.373 . S
C1057 C1059 1.389 . S
C1058 H1031 0.950 . S
C1058 C1044 1.377 . S
C1058 C1057 1.373 . S
C1059 C1043 1.377 . S
C1059 C1057 1.389 . S
C1059 C1060 1.524 . S
C1060 C1059 1.524 . S
C1060 C1061 1.397 . S
C1060 C1065 1.363 . S
C1061 H1032 0.950 . S
C1061 C1060 1.397 . S
C1061 C1062 1.334 . S
C1062 H1033 0.950 . S
C1062 C1061 1.334 . S
C1062 C1063 1.287 . S
C1063 C1062 1.287 . S
C1063 C1064 1.524 . S
C1063 H1066 0.999 . S
C1064 H1034 0.950 . S
C1064 C1063 1.524 . S
C1064 C1065 1.415 . S
C1065 H1035 0.950 . S
C1065 C1060 1.363 . S
C1065 C1064 1.415 . S
H1066 C1063 0.999 . S
H1067 C1048 0.913 . S
H1068 C1086 0.951 . S
H1069 C1088 0.951 . S
H1070 C1090 0.950 . S
H1071 C1091 0.950 . S
H1072 C1093 0.950 . S
H1073 C1096 0.950 . S
H1074 C1097 0.950 . S
H1075 C1099 0.950 . S
H1076 C1100 0.950 . S
H1077 C1101 0.951 . S
H1078 C1103 0.951 . S
H1079 C1105 0.950 . S
H1080 C1106 0.950 . S
H1081 C1108 0.950 . S
H1082 C1111 0.950 . S
H1083 C1112 0.950 1_556 S
H1084 C1114 0.950 . S
H1085 C1115 0.950 . S
C1086 H1068 0.951 . S
C1086 C1087 1.366 . S
C1086 C1088 1.388 . S
C1087 C1086 1.366 . S
C1087 C1091 1.385 . S
C1088 H1069 0.951 . S
C1088 C1086 1.388 . S
C1088 C1089 1.366 . S
C1089 C1088 1.366 . S
C1089 C1090 1.414 . S
C1089 C1092 1.499 . S
C1090 H1070 0.950 . S
C1090 C1089 1.414 . S
C1090 C1091 1.374 . S
C1091 H1071 0.950 . S
C1091 C1087 1.385 . S
C1091 C1090 1.374 . S
C1092 C1089 1.499 . S
C1092 C1093 1.373 . S
C1092 C1094 1.389 . S
C1093 H1072 0.950 . S
C1093 C1092 1.373 . S
C1093 C1109 1.377 . S
C1094 C1092 1.389 . S
C1094 C1095 1.524 . S
C1094 C1108 1.377 . S
C1095 C1094 1.524 . S
C1095 C1096 1.397 . S
C1095 C1100 1.363 . S
C1096 H1073 0.950 . S
C1096 C1095 1.397 . S
C1096 C1097 1.334 . S
C1097 H1074 0.950 . S
C1097 C1096 1.334 . S
C1097 C1098 1.287 . S
C1098 C1097 1.287 . S
C1098 C1099 1.524 . S
C1098 H1117 0.913 . S
C1099 H1075 0.950 . S
C1099 C1098 1.524 . S
C1099 C1100 1.415 . S
C1100 H1076 0.950 . S
C1100 C1095 1.363 . S
C1100 C1099 1.415 . S
C1101 H1077 0.951 . S
C1101 C1102 1.366 . S
C1101 C1103 1.388 . S
C1102 C1101 1.366 . S
C1102 C1106 1.385 . S
C1103 H1078 0.951 . S
C1103 C1101 1.388 . S
C1103 C1104 1.366 . S
C1104 C1103 1.366 . S
C1104 C1105 1.414 . S
C1104 C1107 1.499 . S
C1105 H1079 0.950 . S
C1105 C1104 1.414 . S
C1105 C1106 1.374 . S
C1106 H1080 0.950 . S
C1106 C1102 1.385 . S
C1106 C1105 1.374 . S
C1107 C1104 1.499 . S
C1107 C1108 1.373 . S
C1107 C1109 1.389 . S
C1108 H1081 0.950 . S
C1108 C1094 1.377 . S
C1108 C1107 1.373 . S
C1109 C1093 1.377 . S
C1109 C1107 1.389 . S
C1109 C1110 1.524 . S
C1110 C1109 1.524 . S
C1110 C1111 1.397 . S
C1110 C1115 1.363 . S
C1111 H1082 0.950 . S
C1111 C1110 1.397 . S
C1111 C1112 1.334 . S
C1112 H1083 0.950 1_554 S
C1112 C1111 1.334 . S
C1112 C1113 1.287 . S
C1113 C1112 1.287 . S
C1113 C1114 1.524 . S
C1113 H1116 0.999 1_554 S
C1114 H1084 0.950 . S
C1114 C1113 1.524 . S
C1114 C1115 1.415 . S
C1115 H1085 0.950 . S
C1115 C1110 1.363 . S
C1115 C1114 1.415 . S
H1116 C1113 0.999 1_556 S
H1117 C1098 0.913 . S
H1118 C1136 0.951 . S
H1119 C1138 0.951 . S
H1120 C1140 0.950 . S
H1121 C1141 0.950 . S
H1122 C1143 0.950 . S
H1123 C1146 0.950 . S
H1124 C1147 0.950 . S
H1125 C1149 0.950 . S
H1126 C1150 0.950 . S
H1127 C1151 0.951 1_554 S
H1128 C1153 0.951 . S
H1129 C1155 0.950 . S
H1130 C1156 0.950 . S
H1131 C1158 0.950 . S
H1132 C1161 0.950 . S
H1133 C1162 0.950 . S
H1134 C1164 0.950 . S
H1135 C1165 0.950 . S
C1136 H1118 0.951 . S
C1136 C1137 1.366 . S
C1136 C1138 1.388 . S
C1137 C1136 1.366 . S
C1137 C1141 1.385 . S
C1138 H1119 0.951 . S
C1138 C1136 1.388 . S
C1138 C1139 1.366 . S
C1139 C1138 1.366 . S
C1139 C1140 1.414 . S
C1139 C1142 1.499 . S
C1140 H1120 0.950 . S
C1140 C1139 1.414 . S
C1140 C1141 1.374 . S
C1141 H1121 0.950 . S
C1141 C1137 1.385 . S
C1141 C1140 1.374 . S
C1142 C1139 1.499 . S
C1142 C1143 1.373 . S
C1142 C1144 1.389 . S
C1143 H1122 0.950 . S
C1143 C1142 1.373 . S
C1143 C1159 1.377 . S
C1144 C1142 1.389 . S
C1144 C1145 1.524 . S
C1144 C1158 1.377 . S
C1145 C1144 1.524 . S
C1145 C1146 1.397 . S
C1145 C1150 1.363 . S
C1146 H1123 0.950 . S
C1146 C1145 1.397 . S
C1146 C1147 1.334 . S
C1147 H1124 0.950 . S
C1147 C1146 1.334 . S
C1147 C1148 1.287 . S
C1148 C1147 1.287 . S
C1148 C1149 1.524 . S
C1148 H1167 0.913 . S
C1149 H1125 0.950 . S
C1149 C1148 1.524 . S
C1149 C1150 1.415 . S
C1150 H1126 0.950 . S
C1150 C1145 1.363 . S
C1150 C1149 1.415 . S
C1151 H1127 0.951 1_556 S
C1151 C1152 1.366 . S
C1151 C1153 1.388 . S
C1152 C1151 1.366 . S
C1152 C1156 1.385 . S
C1153 H1128 0.951 . S
C1153 C1151 1.388 . S
C1153 C1154 1.366 . S
C1154 C1153 1.366 . S
C1154 C1155 1.414 . S
C1154 C1157 1.499 . S
C1155 H1129 0.950 . S
C1155 C1154 1.414 . S
C1155 C1156 1.374 . S
C1156 H1130 0.950 . S
C1156 C1152 1.385 . S
C1156 C1155 1.374 . S
C1157 C1154 1.499 . S
C1157 C1158 1.373 . S
C1157 C1159 1.389 . S
C1158 H1131 0.950 . S
C1158 C1144 1.377 . S
C1158 C1157 1.373 . S
C1159 C1143 1.377 . S
C1159 C1157 1.389 . S
C1159 C1160 1.524 . S
C1160 C1159 1.524 . S
C1160 C1161 1.397 . S
C1160 C1165 1.363 . S
C1161 H1132 0.950 . S
C1161 C1160 1.397 . S
C1161 C1162 1.334 1_556 S
C1162 H1133 0.950 . S
C1162 C1161 1.334 1_554 S
C1162 C1163 1.287 . S
C1163 C1162 1.287 . S
C1163 C1164 1.524 . S
C1163 H1166 0.999 . S
C1164 H1134 0.950 . S
C1164 C1163 1.524 . S
C1164 C1165 1.415 1_554 S
C1165 H1135 0.950 . S
C1165 C1160 1.363 . S
C1165 C1164 1.415 1_556 S
H1166 C1163 0.999 . S
H1167 C1148 0.913 . S
H1168 C1186 0.951 . S
H1169 C1188 0.951 . S
H1170 C1190 0.950 . S
H1171 C1191 0.950 . S
H1172 C1193 0.950 . S
H1173 C1196 0.950 . S
H1174 C1197 0.950 . S
H1175 C1199 0.950 . S
H1176 C1200 0.950 . S
H1177 C1201 0.951 . S
H1178 C1203 0.951 . S
H1179 C1205 0.950 . S
H1180 C1206 0.950 . S
H1181 C1208 0.950 . S
H1182 C1211 0.950 . S
H1183 C1212 0.950 . S
H1184 C1214 0.950 . S
H1185 C1215 0.950 . S
C1186 H1168 0.951 . S
C1186 C1187 1.366 . S
C1186 C1188 1.388 . S
C1187 C1186 1.366 . S
C1187 C1191 1.385 . S
C1188 H1169 0.951 . S
C1188 C1186 1.388 . S
C1188 C1189 1.366 . S
C1189 C1188 1.366 . S
C1189 C1190 1.414 . S
C1189 C1192 1.499 . S
C1190 H1170 0.950 . S
C1190 C1189 1.414 . S
C1190 C1191 1.374 . S
C1191 H1171 0.950 . S
C1191 C1187 1.385 . S
C1191 C1190 1.374 . S
C1192 C1189 1.499 . S
C1192 C1193 1.373 . S
C1192 C1194 1.389 . S
C1193 H1172 0.950 . S
C1193 C1192 1.373 . S
C1193 C1209 1.377 . S
C1194 C1192 1.389 . S
C1194 C1195 1.524 . S
C1194 C1208 1.377 . S
C1195 C1194 1.524 . S
C1195 C1196 1.397 . S
C1195 C1200 1.363 . S
C1196 H1173 0.950 . S
C1196 C1195 1.397 . S
C1196 C1197 1.334 . S
C1197 H1174 0.950 . S
C1197 C1196 1.334 . S
C1197 C1198 1.287 . S
C1198 C1197 1.287 . S
C1198 C1199 1.524 . S
C1198 H1217 0.913 . S
C1199 H1175 0.950 . S
C1199 C1198 1.524 . S
C1199 C1200 1.415 . S
C1200 H1176 0.950 . S
C1200 C1195 1.363 . S
C1200 C1199 1.415 . S
C1201 H1177 0.951 . S
C1201 C1202 1.366 . S
C1201 C1203 1.388 . S
C1202 C1201 1.366 . S
C1202 C1206 1.385 . S
C1203 H1178 0.951 . S
C1203 C1201 1.388 . S
C1203 C1204 1.366 . S
C1204 C1203 1.366 . S
C1204 C1205 1.414 . S
C1204 C1207 1.499 . S
C1205 H1179 0.950 . S
C1205 C1204 1.414 . S
C1205 C1206 1.374 . S
C1206 H1180 0.950 . S
C1206 C1202 1.385 . S
C1206 C1205 1.374 . S
C1207 C1204 1.499 . S
C1207 C1208 1.373 . S
C1207 C1209 1.389 . S
C1208 H1181 0.950 . S
C1208 C1194 1.377 . S
C1208 C1207 1.373 . S
C1209 C1193 1.377 . S
C1209 C1207 1.389 . S
C1209 C1210 1.524 . S
C1210 C1209 1.524 . S
C1210 C1211 1.397 . S
C1210 C1215 1.363 . S
C1211 H1182 0.950 . S
C1211 C1210 1.397 . S
C1211 C1212 1.334 . S
C1212 H1183 0.950 . S
C1212 C1211 1.334 . S
C1212 C1213 1.287 . S
C1213 C1212 1.287 . S
C1213 C1214 1.524 . S
C1213 H1216 0.999 . S
C1214 H1184 0.950 . S
C1214 C1213 1.524 . S
C1214 C1215 1.415 . S
C1215 H1185 0.950 . S
C1215 C1210 1.363 . S
C1215 C1214 1.415 . S
H1216 C1213 0.999 . S
H1217 C1198 0.913 . S
H1218 C1236 0.951 . S
H1219 C1238 0.951 . S
H1220 C1240 0.950 . S
H1221 C1241 0.950 . S
H1222 C1243 0.950 . S
H1223 C1246 0.950 . S
H1224 C1247 0.950 . S
H1225 C1249 0.950 1_554 S
H1226 C1250 0.950 . S
H1227 C1251 0.951 . S
H1228 C1253 0.951 . S
H1229 C1255 0.938 1_554 S
H1230 C1256 0.950 . S
H1231 C1258 0.950 . S
H1232 C1261 0.950 . S
H1233 C1262 0.950 . S
H1234 C1264 0.950 . S
H1235 C1265 0.950 . S
C1236 H1218 0.951 . S
C1236 C1237 1.366 . S
C1236 C1238 1.388 . S
C1237 C1236 1.366 . S
C1237 C1241 1.385 . S
C1238 H1219 0.951 . S
C1238 C1236 1.388 . S
C1238 C1239 1.366 . S
C1239 C1238 1.366 . S
C1239 C1240 1.414 . S
C1239 C1242 1.499 . S
C1240 H1220 0.950 . S
C1240 C1239 1.414 . S
C1240 C1241 1.374 . S
C1241 H1221 0.950 . S
C1241 C1237 1.385 . S
C1241 C1240 1.374 . S
C1242 C1239 1.499 . S
C1242 C1243 1.373 . S
C1242 C1244 1.389 . S
C1243 H1222 0.950 . S
C1243 C1242 1.373 . S
C1243 C1259 1.377 . S
C1244 C1242 1.389 . S
C1244 C1245 1.524 . S
C1244 C1258 1.377 . S
C1245 C1244 1.524 . S
C1245 C1246 1.397 . S
C1245 C1250 1.363 . S
C1246 H1223 0.950 . S
C1246 C1245 1.397 . S
C1246 C1247 1.334 . S
C1247 H1224 0.950 . S
C1247 C1246 1.334 . S
C1247 C1248 1.287 . S
C1248 C1247 1.287 . S
C1248 C1249 1.524 . S
C1248 H1267 0.913 . S
C1249 H1225 0.950 1_556 S
C1249 C1248 1.524 . S
C1249 C1250 1.415 . S
C1250 H1226 0.950 . S
C1250 C1245 1.363 . S
C1250 C1249 1.415 . S
C1251 H1227 0.951 . S
C1251 C1252 1.366 . S
C1251 C1253 1.388 . S
C1252 C1251 1.366 . S
C1252 C1256 1.385 1_556 S
C1253 H1228 0.951 . S
C1253 C1251 1.388 . S
C1253 C1254 1.366 . S
C1254 C1253 1.366 . S
C1254 C1255 1.414 . S
C1254 C1257 1.499 . S
C1255 H1229 0.938 1_556 S
C1255 C1254 1.414 . S
C1255 C1256 1.374 1_556 S
C1256 H1230 0.950 . S
C1256 C1252 1.385 1_554 S
C1256 C1255 1.374 1_554 S
C1257 C1254 1.499 . S
C1257 C1258 1.373 . S
C1257 C1259 1.389 . S
C1258 H1231 0.950 . S
C1258 C1244 1.377 . S
C1258 C1257 1.373 . S
C1259 C1243 1.377 . S
C1259 C1257 1.389 . S
C1259 C1260 1.524 . S
C1260 C1259 1.524 . S
C1260 C1261 1.397 . S
C1260 C1265 1.363 . S
C1261 H1232 0.950 . S
C1261 C1260 1.397 . S
C1261 C1262 1.334 . S
C1262 H1233 0.950 . S
C1262 C1261 1.334 . S
C1262 C1263 1.287 . S
C1263 C1262 1.287 . S
C1263 C1264 1.524 . S
C1263 H1266 0.999 . S
C1264 H1234 0.950 . S
C1264 C1263 1.524 . S
C1264 C1265 1.415 . S
C1265 H1235 0.950 . S
C1265 C1260 1.363 . S
C1265 C1264 1.415 . S
H1266 C1263 0.999 . S
H1267 C1248 0.913 . S
H1268 C1286 0.951 . S
H1269 C1288 0.951 . S
H1270 C1290 0.950 . S
H1271 C1291 0.950 . S
H1272 C1293 0.950 . S
H1273 C1296 0.950 . S
H1274 C1297 0.950 . S
H1275 C1299 0.950 . S
H1276 C1300 0.950 . S
H1277 C1301 0.951 . S
H1278 C1303 0.951 . S
H1279 C1305 0.950 . S
H1280 C1306 0.950 1_554 S
H1281 C1308 0.950 . S
H1282 C1311 0.950 . S
H1283 C1312 0.950 . S
H1284 C1314 0.950 . S
H1285 C1315 0.950 . S
C1286 H1268 0.951 . S
C1286 C1287 1.366 . S
C1286 C1288 1.388 . S
C1287 C1286 1.366 . S
C1287 C1291 1.385 . S
C1288 H1269 0.951 . S
C1288 C1286 1.388 . S
C1288 C1289 1.366 . S
C1289 C1288 1.366 . S
C1289 C1290 1.414 . S
C1289 C1292 1.499 . S
C1290 H1270 0.950 . S
C1290 C1289 1.414 . S
C1290 C1291 1.374 . S
C1291 H1271 0.950 . S
C1291 C1287 1.385 . S
C1291 C1290 1.374 . S
C1292 C1289 1.499 . S
C1292 C1293 1.373 . S
C1292 C1294 1.389 . S
C1293 H1272 0.950 . S
C1293 C1292 1.373 . S
C1293 C1309 1.377 . S
C1294 C1292 1.389 . S
C1294 C1295 1.524 . S
C1294 C1308 1.377 . S
C1295 C1294 1.524 . S
C1295 C1296 1.397 . S
C1295 C1300 1.363 . S
C1296 H1273 0.950 . S
C1296 C1295 1.397 . S
C1296 C1297 1.334 . S
C1297 H1274 0.950 . S
C1297 C1296 1.334 . S
C1297 C1298 1.287 . S
C1298 C1297 1.287 . S
C1298 C1299 1.524 . S
C1298 H1317 0.913 . S
C1299 H1275 0.950 . S
C1299 C1298 1.524 . S
C1299 C1300 1.415 . S
C1300 H1276 0.950 . S
C1300 C1295 1.363 . S
C1300 C1299 1.415 . S
C1301 H1277 0.951 . S
C1301 C1302 1.366 . S
C1301 C1303 1.388 . S
C1302 C1301 1.366 . S
C1302 C1306 1.385 . S
C1303 H1278 0.951 . S
C1303 C1301 1.388 . S
C1303 C1304 1.366 . S
C1304 C1303 1.366 . S
C1304 C1305 1.414 . S
C1304 C1307 1.499 . S
C1305 H1279 0.950 . S
C1305 C1304 1.414 . S
C1305 C1306 1.374 . S
C1306 H1280 0.950 1_556 S
C1306 C1302 1.385 . S
C1306 C1305 1.374 . S
C1307 C1304 1.499 . S
C1307 C1308 1.373 . S
C1307 C1309 1.389 . S
C1308 H1281 0.950 . S
C1308 C1294 1.377 . S
C1308 C1307 1.373 . S
C1309 C1293 1.377 . S
C1309 C1307 1.389 . S
C1309 C1310 1.524 . S
C1310 C1309 1.524 . S
C1310 C1311 1.397 . S
C1310 C1315 1.363 . S
C1311 H1282 0.950 . S
C1311 C1310 1.397 . S
C1311 C1312 1.334 . S
C1312 H1283 0.950 . S
C1312 C1311 1.334 . S
C1312 C1313 1.287 . S
C1313 C1312 1.287 . S
C1313 C1314 1.524 . S
C1313 H1316 0.999 . S
C1314 H1284 0.950 . S
C1314 C1313 1.524 . S
C1314 C1315 1.415 . S
C1315 H1285 0.950 . S
C1315 C1310 1.363 . S
C1315 C1314 1.415 . S
H1316 C1313 0.999 . S
H1317 C1298 0.913 . S
H1318 C1336 0.951 . S
H1319 C1338 0.951 . S
H1320 C1340 0.950 . S
H1321 C1341 0.950 . S
H1322 C1343 0.950 . S
H1323 C1346 0.950 . S
H1324 C1347 0.950 . S
H1325 C1349 0.950 . S
H1326 C1350 0.949 1_554 S
H1327 C1351 0.951 . S
H1328 C1353 0.951 . S
H1329 C1355 0.950 . S
H1330 C1356 0.950 . S
H1331 C1358 0.950 . S
H1332 C1361 0.950 . S
H1333 C1362 0.950 . S
H1334 C1364 0.950 . S
H1335 C1365 0.950 . S
C1336 H1318 0.951 . S
C1336 C1337 1.366 . S
C1336 C1338 1.388 . S
C1337 C1336 1.366 . S
C1337 C1341 1.385 . S
C1338 H1319 0.951 . S
C1338 C1336 1.388 . S
C1338 C1339 1.366 . S
C1339 C1338 1.366 . S
C1339 C1340 1.414 . S
C1339 C1342 1.499 . S
C1340 H1320 0.950 . S
C1340 C1339 1.414 . S
C1340 C1341 1.374 . S
C1341 H1321 0.950 . S
C1341 C1337 1.385 . S
C1341 C1340 1.374 . S
C1342 C1339 1.499 . S
C1342 C1343 1.373 . S
C1342 C1344 1.389 . S
C1343 H1322 0.950 . S
C1343 C1342 1.373 . S
C1343 C1359 1.377 . S
C1344 C1342 1.389 . S
C1344 C1345 1.524 . S
C1344 C1358 1.377 . S
C1345 C1344 1.524 . S
C1345 C1346 1.397 . S
C1345 C1350 1.351 1_554 S
C1346 H1323 0.950 . S
C1346 C1345 1.397 . S
C1346 C1347 1.334 1_554 S
C1347 H1324 0.950 . S
C1347 C1346 1.334 1_556 S
C1347 C1348 1.287 . S
C1348 C1347 1.287 . S
C1348 C1349 1.524 . S
C1348 H1367 0.913 . S
C1349 H1325 0.950 . S
C1349 C1348 1.524 . S
C1349 C1350 1.427 . S
C1350 H1326 0.949 1_556 S
C1350 C1345 1.351 1_556 S
C1350 C1349 1.427 . S
C1351 H1327 0.951 . S
C1351 C1352 1.366 . S
C1351 C1353 1.388 . S
C1352 C1351 1.366 . S
C1352 C1356 1.385 . S
C1353 H1328 0.951 . S
C1353 C1351 1.388 . S
C1353 C1354 1.366 . S
C1354 C1353 1.366 . S
C1354 C1355 1.414 . S
C1354 C1357 1.499 . S
C1355 H1329 0.950 . S
C1355 C1354 1.414 . S
C1355 C1356 1.374 . S
C1356 H1330 0.950 . S
C1356 C1352 1.385 . S
C1356 C1355 1.374 . S
C1357 C1354 1.499 . S
C1357 C1358 1.373 . S
C1357 C1359 1.389 . S
C1358 H1331 0.950 . S
C1358 C1344 1.377 . S
C1358 C1357 1.373 . S
C1359 C1343 1.377 . S
C1359 C1357 1.389 . S
C1359 C1360 1.524 . S
C1360 C1359 1.524 . S
C1360 C1361 1.397 . S
C1360 C1365 1.363 . S
C1361 H1332 0.950 . S
C1361 C1360 1.397 . S
C1361 C1362 1.334 . S
C1362 H1333 0.950 . S
C1362 C1361 1.334 . S
C1362 C1363 1.287 . S
C1363 C1362 1.287 . S
C1363 C1364 1.524 . S
C1363 H1366 0.999 . S
C1364 H1334 0.950 . S
C1364 C1363 1.524 . S
C1364 C1365 1.415 . S
C1365 H1335 0.950 . S
C1365 C1360 1.363 . S
C1365 C1364 1.415 . S
H1366 C1363 0.999 . S
H1367 C1348 0.913 . S
H1368 C1386 0.951 . S
H1369 C1388 0.951 . S
H1370 C1390 0.950 . S
H1371 C1391 0.950 . S
H1372 C1393 0.950 . S
H1373 C1396 0.950 . S
H1374 C1397 0.950 . S
H1375 C1399 0.950 . S
H1376 C1400 0.950 . S
H1377 C1401 0.951 . S
H1378 C1403 0.951 . S
H1379 C1405 0.950 . S
H1380 C1406 0.950 . S
H1381 C1408 0.950 . S
H1382 C1411 0.950 . S
H1383 C1412 0.950 1_554 S
H1384 C1414 0.950 . S
H1385 C1415 0.950 . S
C1386 H1368 0.951 . S
C1386 C1387 1.366 . S
C1386 C1388 1.388 . S
C1387 C1386 1.366 . S
C1387 C1391 1.385 . S
C1388 H1369 0.951 . S
C1388 C1386 1.388 . S
C1388 C1389 1.366 . S
C1389 C1388 1.366 . S
C1389 C1390 1.414 . S
C1389 C1392 1.499 . S
C1390 H1370 0.950 . S
C1390 C1389 1.414 . S
C1390 C1391 1.374 . S
C1391 H1371 0.950 . S
C1391 C1387 1.385 . S
C1391 C1390 1.374 . S
C1392 C1389 1.499 . S
C1392 C1393 1.373 . S
C1392 C1394 1.389 . S
C1393 H1372 0.950 . S
C1393 C1392 1.373 . S
C1393 C1409 1.377 . S
C1394 C1392 1.389 . S
C1394 C1395 1.524 . S
C1394 C1408 1.377 . S
C1395 C1394 1.524 . S
C1395 C1396 1.397 . S
C1395 C1400 1.363 . S
C1396 H1373 0.950 . S
C1396 C1395 1.397 . S
C1396 C1397 1.334 . S
C1397 H1374 0.950 . S
C1397 C1396 1.334 . S
C1397 C1398 1.287 . S
C1398 C1397 1.287 . S
C1398 C1399 1.524 . S
C1398 H1417 0.913 . S
C1399 H1375 0.950 . S
C1399 C1398 1.524 . S
C1399 C1400 1.415 . S
C1400 H1376 0.950 . S
C1400 C1395 1.363 . S
C1400 C1399 1.415 . S
C1401 H1377 0.951 . S
C1401 C1402 1.366 . S
C1401 C1403 1.388 . S
C1402 C1401 1.366 . S
C1402 C1406 1.385 . S
C1403 H1378 0.951 . S
C1403 C1401 1.388 . S
C1403 C1404 1.366 . S
C1404 C1403 1.366 . S
C1404 C1405 1.414 . S
C1404 C1407 1.499 . S
C1405 H1379 0.950 . S
C1405 C1404 1.414 . S
C1405 C1406 1.374 . S
C1406 H1380 0.950 . S
C1406 C1402 1.385 . S
C1406 C1405 1.374 . S
C1407 C1404 1.499 . S
C1407 C1408 1.373 . S
C1407 C1409 1.389 . S
C1408 H1381 0.950 . S
C1408 C1394 1.377 . S
C1408 C1407 1.373 . S
C1409 C1393 1.377 . S
C1409 C1407 1.389 . S
C1409 C1410 1.524 . S
C1410 C1409 1.524 . S
C1410 C1411 1.397 . S
C1410 C1415 1.363 . S
C1411 H1382 0.950 . S
C1411 C1410 1.397 . S
C1411 C1412 1.334 . S
C1412 H1383 0.950 1_556 S
C1412 C1411 1.334 . S
C1412 C1413 1.287 . S
C1413 C1412 1.287 . S
C1413 C1414 1.524 . S
C1413 H1416 0.999 1_556 S
C1414 H1384 0.950 . S
C1414 C1413 1.524 . S
C1414 C1415 1.415 . S
C1415 H1385 0.950 . S
C1415 C1410 1.363 . S
C1415 C1414 1.415 . S
H1416 C1413 0.999 1_554 S
H1417 C1398 0.913 . S
H1418 C1436 0.951 . S
H1419 C1438 0.951 . S
H1420 C1440 0.950 . S
H1421 C1441 0.950 . S
H1422 C1443 0.950 . S
H1423 C1446 0.950 . S
H1424 C1447 0.950 . S
H1425 C1449 0.950 . S
H1426 C1450 0.950 . S
H1427 C1451 0.951 1_554 S
H1428 C1453 0.951 . S
H1429 C1455 0.950 . S
H1430 C1456 0.950 . S
H1431 C1458 0.950 . S
H1432 C1461 0.950 . S
H1433 C1462 0.950 . S
H1434 C1464 0.950 . S
H1435 C1465 0.930 1_556 S
C1436 H1418 0.951 . S
C1436 C1437 1.366 . S
C1436 C1438 1.388 . S
C1437 C1436 1.366 . S
C1437 C1441 1.385 . S
C1438 H1419 0.951 . S
C1438 C1436 1.388 . S
C1438 C1439 1.366 . S
C1439 C1438 1.366 . S
C1439 C1440 1.414 . S
C1439 C1442 1.499 . S
C1440 H1420 0.950 . S
C1440 C1439 1.414 . S
C1440 C1441 1.374 . S
C1441 H1421 0.950 . S
C1441 C1437 1.385 . S
C1441 C1440 1.374 . S
C1442 C1439 1.499 . S
C1442 C1443 1.373 . S
C1442 C1444 1.389 . S
C1443 H1422 0.950 . S
C1443 C1442 1.373 . S
C1443 C1459 1.377 . S
C1444 C1442 1.389 . S
C1444 C1445 1.524 . S
C1444 C1458 1.377 . S
C1445 C1444 1.524 . S
C1445 C1446 1.397 . S
C1445 C1450 1.363 . S
C1446 H1423 0.950 . S
C1446 C1445 1.397 . S
C1446 C1447 1.334 . S
C1447 H1424 0.950 . S
C1447 C1446 1.334 . S
C1447 C1448 1.287 . S
C1448 C1447 1.287 . S
C1448 C1449 1.524 . S
C1448 H1467 0.913 . S
C1449 H1425 0.950 . S
C1449 C1448 1.524 . S
C1449 C1450 1.415 . S
C1450 H1426 0.950 . S
C1450 C1445 1.363 . S
C1450 C1449 1.415 . S
C1451 H1427 0.951 1_556 S
C1451 C1452 1.366 . S
C1451 C1453 1.388 . S
C1452 C1451 1.366 . S
C1452 C1456 1.385 . S
C1453 H1428 0.951 . S
C1453 C1451 1.388 . S
C1453 C1454 1.366 . S
C1454 C1453 1.366 . S
C1454 C1455 1.414 . S
C1454 C1457 1.499 . S
C1455 H1429 0.950 . S
C1455 C1454 1.414 . S
C1455 C1456 1.374 . S
C1456 H1430 0.950 . S
C1456 C1452 1.385 . S
C1456 C1455 1.374 . S
C1457 C1454 1.499 . S
C1457 C1458 1.373 . S
C1457 C1459 1.389 . S
C1458 H1431 0.950 . S
C1458 C1444 1.377 . S
C1458 C1457 1.373 . S
C1459 C1443 1.377 . S
C1459 C1457 1.389 . S
C1459 C1460 1.524 1_556 S
C1460 C1459 1.524 1_554 S
C1460 C1461 1.397 . S
C1460 C1465 1.363 . S
C1461 H1432 0.950 . S
C1461 C1460 1.397 . S
C1461 C1462 1.334 . S
C1462 H1433 0.950 . S
C1462 C1461 1.334 . S
C1462 C1463 1.287 . S
C1463 C1462 1.287 . S
C1463 C1464 1.524 . S
C1463 H1466 0.999 . S
C1464 H1434 0.950 . S
C1464 C1463 1.524 . S
C1464 C1465 1.415 . S
C1465 H1435 0.930 1_554 S
C1465 C1460 1.363 . S
C1465 C1464 1.415 . S
H1466 C1463 0.999 . S
H1467 C1448 0.913 . S
H1468 C1486 0.951 . S
H1469 C1488 0.951 . S
H1470 C1490 0.950 . S
H1471 C1491 0.950 . S
H1472 C1493 0.950 . S
H1473 C1496 0.950 . S
H1474 C1497 0.950 . S
H1475 C1499 0.950 . S
H1476 C1500 0.950 . S
H1477 C1501 0.951 1_455 S
H1478 C1503 0.951 . S
H1479 C1505 0.950 . S
H1480 C1506 0.950 . S
H1481 C1508 0.950 . S
H1482 C1511 0.950 . S
H1483 C1512 0.950 . S
H1484 C1514 0.950 . S
H1485 C1515 0.950 . S
C1486 H1468 0.951 . S
C1486 C1487 1.366 . S
C1486 C1488 1.388 . S
C1487 C1486 1.366 . S
C1487 C1491 1.385 . S
C1488 H1469 0.951 . S
C1488 C1486 1.388 . S
C1488 C1489 1.366 . S
C1489 C1488 1.366 . S
C1489 C1490 1.414 . S
C1489 C1492 1.499 . S
C1490 H1470 0.950 . S
C1490 C1489 1.414 . S
C1490 C1491 1.374 . S
C1491 H1471 0.950 . S
C1491 C1487 1.385 . S
C1491 C1490 1.374 . S
C1492 C1489 1.499 . S
C1492 C1493 1.373 . S
C1492 C1494 1.389 . S
C1493 H1472 0.950 . S
C1493 C1492 1.373 . S
C1493 C1509 1.377 . S
C1494 C1492 1.389 . S
C1494 C1495 1.524 . S
C1494 C1508 1.377 . S
C1495 C1494 1.524 . S
C1495 C1496 1.397 . S
C1495 C1500 1.363 . S
C1496 H1473 0.950 . S
C1496 C1495 1.397 . S
C1496 C1497 1.334 . S
C1497 H1474 0.950 . S
C1497 C1496 1.334 . S
C1497 C1498 1.287 . S
C1498 C1497 1.287 . S
C1498 C1499 1.524 . S
C1498 H1517 0.913 . S
C1499 H1475 0.950 . S
C1499 C1498 1.524 . S
C1499 C1500 1.415 . S
C1500 H1476 0.950 . S
C1500 C1495 1.363 . S
C1500 C1499 1.415 . S
C1501 H1477 0.951 1_655 S
C1501 C1502 1.366 . S
C1501 C1503 1.388 . S
C1502 C1501 1.366 . S
C1502 C1506 1.385 . S
C1503 H1478 0.951 . S
C1503 C1501 1.388 . S
C1503 C1504 1.366 . S
C1504 C1503 1.366 . S
C1504 C1505 1.414 . S
C1504 C1507 1.499 . S
C1505 H1479 0.950 . S
C1505 C1504 1.414 . S
C1505 C1506 1.374 . S
C1506 H1480 0.950 . S
C1506 C1502 1.385 . S
C1506 C1505 1.374 . S
C1507 C1504 1.499 . S
C1507 C1508 1.373 . S
C1507 C1509 1.389 . S
C1508 H1481 0.950 . S
C1508 C1494 1.377 . S
C1508 C1507 1.373 . S
C1509 C1493 1.377 . S
C1509 C1507 1.389 . S
C1509 C1510 1.524 . S
C1510 C1509 1.524 . S
C1510 C1511 1.397 . S
C1510 C1515 1.363 . S
C1511 H1482 0.950 . S
C1511 C1510 1.397 . S
C1511 C1512 1.334 1_556 S
C1512 H1483 0.950 . S
C1512 C1511 1.334 1_554 S
C1512 C1513 1.287 . S
C1513 C1512 1.287 . S
C1513 C1514 1.524 1_554 S
C1513 H1516 0.999 . S
C1514 H1484 0.950 . S
C1514 C1513 1.524 1_556 S
C1514 C1515 1.415 . S
C1515 H1485 0.950 . S
C1515 C1510 1.363 . S
C1515 C1514 1.415 . S
H1516 C1513 0.999 . S
H1517 C1498 0.913 . S
H1518 C1536 0.951 . S
H1519 C1538 0.951 . S
H1520 C1540 0.950 . S
H1521 C1541 0.950 . S
H1522 C1543 0.950 . S
H1523 C1546 0.950 . S
H1524 C1547 0.950 . S
H1525 C1549 0.950 . S
H1526 C1550 0.950 . S
H1527 C1551 0.951 . S
H1528 C1553 0.951 . S
H1529 C1555 0.950 . S
H1530 C1556 0.950 . S
H1531 C1558 0.950 . S
H1532 C1561 0.950 . S
H1533 C1562 0.950 . S
H1534 C1564 0.950 . S
H1535 C1565 0.950 . S
C1536 H1518 0.951 . S
C1536 C1537 1.366 . S
C1536 C1538 1.388 . S
C1537 C1536 1.366 . S
C1537 C1541 1.385 . S
C1538 H1519 0.951 . S
C1538 C1536 1.388 . S
C1538 C1539 1.366 . S
C1539 C1538 1.366 . S
C1539 C1540 1.414 . S
C1539 C1542 1.499 . S
C1540 H1520 0.950 . S
C1540 C1539 1.414 . S
C1540 C1541 1.374 . S
C1541 H1521 0.950 . S
C1541 C1537 1.385 . S
C1541 C1540 1.374 . S
C1542 C1539 1.499 . S
C1542 C1543 1.373 . S
C1542 C1544 1.389 . S
C1543 H1522 0.950 . S
C1543 C1542 1.373 . S
C1543 C1559 1.377 . S
C1544 C1542 1.389 . S
C1544 C1545 1.524 . S
C1544 C1558 1.377 . S
C1545 C1544 1.524 . S
C1545 C1546 1.397 . S
C1545 C1550 1.363 . S
C1546 H1523 0.950 . S
C1546 C1545 1.397 . S
C1546 C1547 1.334 . S
C1547 H1524 0.950 . S
C1547 C1546 1.334 . S
C1547 C1548 1.287 . S
C1548 C1547 1.287 . S
C1548 C1549 1.524 . S
C1548 H1567 0.913 . S
C1549 H1525 0.950 . S
C1549 C1548 1.524 . S
C1549 C1550 1.415 . S
C1550 H1526 0.950 . S
C1550 C1545 1.363 . S
C1550 C1549 1.415 . S
C1551 H1527 0.951 . S
C1551 C1552 1.366 . S
C1551 C1553 1.388 . S
C1552 C1551 1.366 . S
C1552 C1556 1.385 . S
C1553 H1528 0.951 . S
C1553 C1551 1.388 . S
C1553 C1554 1.366 . S
C1554 C1553 1.366 . S
C1554 C1555 1.414 . S
C1554 C1557 1.499 . S
C1555 H1529 0.950 . S
C1555 C1554 1.414 . S
C1555 C1556 1.374 . S
C1556 H1530 0.950 . S
C1556 C1552 1.385 . S
C1556 C1555 1.374 . S
C1557 C1554 1.499 . S
C1557 C1558 1.373 . S
C1557 C1559 1.389 . S
C1558 H1531 0.950 . S
C1558 C1544 1.377 . S
C1558 C1557 1.373 . S
C1559 C1543 1.377 . S
C1559 C1557 1.389 . S
C1559 C1560 1.524 . S
C1560 C1559 1.524 . S
C1560 C1561 1.397 . S
C1560 C1565 1.363 . S
C1561 H1532 0.950 . S
C1561 C1560 1.397 . S
C1561 C1562 1.334 . S
C1562 H1533 0.950 . S
C1562 C1561 1.334 . S
C1562 C1563 1.287 . S
C1563 C1562 1.287 . S
C1563 C1564 1.524 . S
C1563 H1566 0.999 . S
C1564 H1534 0.950 . S
C1564 C1563 1.524 . S
C1564 C1565 1.415 . S
C1565 H1535 0.950 . S
C1565 C1560 1.363 . S
C1565 C1564 1.415 . S
H1566 C1563 0.999 . S
H1567 C1548 0.913 . S
H1568 C1586 0.951 . S
H1569 C1588 0.951 . S
H1570 C1590 0.950 . S
H1571 C1591 0.950 . S
H1572 C1593 0.950 . S
H1573 C1596 0.950 . S
H1574 C1597 0.950 . S
H1575 C1599 0.988 . S
H1576 C1600 0.950 . S
H1577 C1601 0.951 . S
H1578 C1603 0.951 . S
H1579 C1605 0.950 . S
H1580 C1606 0.952 . S
H1581 C1608 0.950 . S
H1582 C1611 0.950 . S
H1583 C1612 0.950 . S
H1584 C1614 0.950 . S
H1585 C1615 0.950 . S
C1586 H1568 0.951 . S
C1586 C1587 1.366 . S
C1586 C1588 1.388 . S
C1587 C1586 1.366 . S
C1587 C1591 1.385 . S
C1588 H1569 0.951 . S
C1588 C1586 1.388 . S
C1588 C1589 1.366 . S
C1589 C1588 1.366 . S
C1589 C1590 1.414 . S
C1589 C1592 1.499 . S
C1590 H1570 0.950 . S
C1590 C1589 1.414 . S
C1590 C1591 1.374 . S
C1591 H1571 0.950 . S
C1591 C1587 1.385 . S
C1591 C1590 1.374 . S
C1592 C1589 1.499 . S
C1592 C1593 1.373 . S
C1592 C1594 1.389 . S
C1593 H1572 0.950 . S
C1593 C1592 1.373 . S
C1593 C1609 1.377 . S
C1594 C1592 1.389 . S
C1594 C1595 1.524 . S
C1594 C1608 1.377 . S
C1595 C1594 1.524 . S
C1595 C1596 1.397 . S
C1595 C1600 1.363 . S
C1596 H1573 0.950 . S
C1596 C1595 1.397 . S
C1596 C1597 1.334 . S
C1597 H1574 0.950 . S
C1597 C1596 1.334 . S
C1597 C1598 1.287 . S
C1598 C1597 1.287 . S
C1598 C1599 1.524 . S
C1598 H1617 0.913 . S
C1599 H1575 0.988 . S
C1599 C1598 1.524 . S
C1599 C1600 1.415 . S
C1600 H1576 0.950 . S
C1600 C1595 1.363 . S
C1600 C1599 1.415 . S
C1601 H1577 0.951 . S
C1601 C1602 1.366 . S
C1601 C1603 1.388 . S
C1602 C1601 1.366 . S
C1602 C1606 1.385 . S
C1603 H1578 0.951 . S
C1603 C1601 1.388 . S
C1603 C1604 1.366 . S
C1604 C1603 1.366 . S
C1604 C1605 1.414 . S
C1604 C1607 1.499 . S
C1605 H1579 0.950 . S
C1605 C1604 1.414 . S
C1605 C1606 1.374 . S
C1606 H1580 0.952 . S
C1606 C1602 1.385 . S
C1606 C1605 1.374 . S
C1607 C1604 1.499 . S
C1607 C1608 1.373 . S
C1607 C1609 1.389 . S
C1608 H1581 0.950 . S
C1608 C1594 1.377 . S
C1608 C1607 1.373 . S
C1609 C1593 1.377 . S
C1609 C1607 1.389 . S
C1609 C1610 1.524 . S
C1610 C1609 1.524 . S
C1610 C1611 1.397 . S
C1610 C1615 1.363 . S
C1611 H1582 0.950 . S
C1611 C1610 1.397 . S
C1611 C1612 1.334 . S
C1612 H1583 0.950 . S
C1612 C1611 1.334 . S
C1612 C1613 1.287 . S
C1613 C1612 1.287 . S
C1613 C1614 1.524 . S
C1613 H1616 0.999 . S
C1614 H1584 0.950 . S
C1614 C1613 1.524 . S
C1614 C1615 1.415 . S
C1615 H1585 0.950 . S
C1615 C1610 1.363 . S
C1615 C1614 1.415 . S
H1616 C1613 0.999 . S
H1617 C1598 0.913 . S
H1618 C1636 0.951 . S
H1619 C1638 0.951 . S
H1620 C1640 0.950 . S
H1621 C1641 0.950 . S
H1622 C1643 0.950 . S
H1623 C1646 0.950 . S
H1624 C1647 0.950 . S
H1625 C1649 0.950 . S
H1626 C1650 0.950 . S
H1627 C1651 0.951 . S
H1628 C1653 0.951 . S
H1629 C1655 0.950 . S
H1630 C1656 0.950 . S
H1631 C1658 0.950 . S
H1632 C1661 0.950 . S
H1633 C1662 0.950 . S
H1634 C1664 0.950 . S
H1635 C1665 0.950 . S
C1636 H1618 0.951 . S
C1636 C1637 1.366 . S
C1636 C1638 1.388 . S
C1637 C1636 1.366 . S
C1637 C1641 1.385 . S
C1638 H1619 0.951 . S
C1638 C1636 1.388 . S
C1638 C1639 1.366 . S
C1639 C1638 1.366 . S
C1639 C1640 1.414 . S
C1639 C1642 1.499 . S
C1640 H1620 0.950 . S
C1640 C1639 1.414 . S
C1640 C1641 1.374 . S
C1641 H1621 0.950 . S
C1641 C1637 1.385 . S
C1641 C1640 1.374 . S
C1642 C1639 1.499 . S
C1642 C1643 1.373 . S
C1642 C1644 1.389 . S
C1643 H1622 0.950 . S
C1643 C1642 1.373 . S
C1643 C1659 1.377 . S
C1644 C1642 1.389 . S
C1644 C1645 1.524 . S
C1644 C1658 1.377 . S
C1645 C1644 1.524 . S
C1645 C1646 1.397 . S
C1645 C1650 1.363 . S
C1646 H1623 0.950 . S
C1646 C1645 1.397 . S
C1646 C1647 1.334 . S
C1647 H1624 0.950 . S
C1647 C1646 1.334 . S
C1647 C1648 1.287 . S
C1648 C1647 1.287 . S
C1648 C1649 1.524 . S
C1648 H1667 0.913 . S
C1649 H1625 0.950 . S
C1649 C1648 1.524 . S
C1649 C1650 1.415 . S
C1650 H1626 0.950 . S
C1650 C1645 1.363 . S
C1650 C1649 1.415 . S
C1651 H1627 0.951 . S
C1651 C1652 1.366 . S
C1651 C1653 1.388 . S
C1652 C1651 1.366 . S
C1652 C1656 1.385 . S
C1653 H1628 0.951 . S
C1653 C1651 1.388 . S
C1653 C1654 1.366 . S
C1654 C1653 1.366 . S
C1654 C1655 1.414 . S
C1654 C1657 1.499 . S
C1655 H1629 0.950 . S
C1655 C1654 1.414 . S
C1655 C1656 1.374 . S
C1656 H1630 0.950 . S
C1656 C1652 1.385 . S
C1656 C1655 1.374 . S
C1657 C1654 1.499 . S
C1657 C1658 1.373 . S
C1657 C1659 1.389 . S
C1658 H1631 0.950 . S
C1658 C1644 1.377 . S
C1658 C1657 1.373 . S
C1659 C1643 1.377 . S
C1659 C1657 1.389 . S
C1659 C1660 1.524 . S
C1660 C1659 1.524 . S
C1660 C1661 1.397 . S
C1660 C1665 1.363 . S
C1661 H1632 0.950 . S
C1661 C1660 1.397 . S
C1661 C1662 1.334 . S
C1662 H1633 0.950 . S
C1662 C1661 1.334 . S
C1662 C1663 1.287 . S
C1663 C1662 1.287 . S
C1663 C1664 1.524 . S
C1663 H1666 0.999 . S
C1664 H1634 0.950 . S
C1664 C1663 1.524 . S
C1664 C1665 1.415 . S
C1665 H1635 0.950 . S
C1665 C1660 1.363 . S
C1665 C1664 1.415 . S
H1666 C1663 0.999 . S
H1667 C1648 0.913 . S
H1668 C1686 0.951 . S
H1669 C1688 0.951 . S
H1670 C1690 0.950 . S
H1671 C1691 0.950 . S
H1672 C1693 0.950 . S
H1673 C1696 0.950 . S
H1674 C1697 0.950 . S
H1675 C1699 0.950 . S
H1676 C1700 0.950 . S
H1677 C1701 0.951 . S
H1678 C1703 0.951 . S
H1679 C1705 0.950 . S
H1680 C1706 0.950 . S
H1681 C1708 0.950 . S
H1682 C1711 0.950 . S
H1683 C1712 0.950 . S
H1684 C1714 0.950 . S
H1685 C1715 0.950 . S
C1686 H1668 0.951 . S
C1686 C1687 1.366 . S
C1686 C1688 1.388 . S
C1687 C1686 1.366 . S
C1687 C1691 1.385 . S
C1688 H1669 0.951 . S
C1688 C1686 1.388 . S
C1688 C1689 1.366 . S
C1689 C1688 1.366 . S
C1689 C1690 1.414 . S
C1689 C1692 1.499 . S
C1690 H1670 0.950 . S
C1690 C1689 1.414 . S
C1690 C1691 1.374 . S
C1691 H1671 0.950 . S
C1691 C1687 1.385 . S
C1691 C1690 1.374 . S
C1692 C1689 1.499 . S
C1692 C1693 1.373 . S
C1692 C1694 1.389 . S
C1693 H1672 0.950 . S
C1693 C1692 1.373 . S
C1693 C1709 1.377 . S
C1694 C1692 1.389 . S
C1694 C1695 1.524 . S
C1694 C1708 1.377 . S
C1695 C1694 1.524 . S
C1695 C1696 1.397 . S
C1695 C1700 1.363 . S
C1696 H1673 0.950 . S
C1696 C1695 1.397 . S
C1696 C1697 1.334 . S
C1697 H1674 0.950 . S
C1697 C1696 1.334 . S
C1697 C1698 1.287 . S
C1698 C1697 1.287 . S
C1698 C1699 1.524 . S
C1698 H1717 0.913 . S
C1699 H1675 0.950 . S
C1699 C1698 1.524 . S
C1699 C1700 1.415 . S
C1700 H1676 0.950 . S
C1700 C1695 1.363 . S
C1700 C1699 1.415 . S
C1701 H1677 0.951 . S
C1701 C1702 1.366 . S
C1701 C1703 1.388 . S
C1702 C1701 1.366 . S
C1702 C1706 1.385 . S
C1703 H1678 0.951 . S
C1703 C1701 1.388 . S
C1703 C1704 1.366 . S
C1704 C1703 1.366 . S
C1704 C1705 1.414 . S
C1704 C1707 1.499 . S
C1705 H1679 0.950 . S
C1705 C1704 1.414 . S
C1705 C1706 1.374 . S
C1706 H1680 0.950 . S
C1706 C1702 1.385 . S
C1706 C1705 1.374 . S
C1707 C1704 1.499 . S
C1707 C1708 1.373 . S
C1707 C1709 1.389 . S
C1708 H1681 0.950 . S
C1708 C1694 1.377 . S
C1708 C1707 1.373 . S
C1709 C1693 1.377 . S
C1709 C1707 1.389 . S
C1709 C1710 1.524 . S
C1710 C1709 1.524 . S
C1710 C1711 1.397 . S
C1710 C1715 1.363 . S
C1711 H1682 0.950 . S
C1711 C1710 1.397 . S
C1711 C1712 1.334 . S
C1712 H1683 0.950 . S
C1712 C1711 1.334 . S
C1712 C1713 1.287 . S
C1713 C1712 1.287 . S
C1713 C1714 1.524 . S
C1713 H1716 0.999 . S
C1714 H1684 0.950 . S
C1714 C1713 1.524 . S
C1714 C1715 1.415 . S
C1715 H1685 0.950 . S
C1715 C1710 1.363 . S
C1715 C1714 1.415 . S
H1716 C1713 0.999 . S
H1717 C1698 0.913 . S
H1718 C1736 0.951 . S
H1719 C1738 0.951 . S
H1720 C1740 0.950 . S
H1721 C1741 0.950 . S
H1722 C1743 0.950 . S
H1723 C1746 0.950 . S
H1724 C1747 0.950 . S
H1725 C1749 0.950 . S
H1726 C1750 0.950 . S
H1727 C1751 0.951 . S
H1728 C1753 0.951 . S
H1729 C1755 0.950 . S
H1730 C1756 0.950 . S
H1731 C1758 0.950 . S
H1732 C1761 0.950 . S
H1733 C1762 0.950 . S
H1734 C1764 0.950 . S
H1735 C1765 0.950 . S
C1736 H1718 0.951 . S
C1736 C1737 1.366 . S
C1736 C1738 1.388 . S
C1737 C1736 1.366 . S
C1737 C1741 1.385 . S
C1738 H1719 0.951 . S
C1738 C1736 1.388 . S
C1738 C1739 1.366 . S
C1739 C1738 1.366 . S
C1739 C1740 1.414 . S
C1739 C1742 1.499 . S
C1740 H1720 0.950 . S
C1740 C1739 1.414 . S
C1740 C1741 1.374 . S
C1741 H1721 0.950 . S
C1741 C1737 1.385 . S
C1741 C1740 1.374 . S
C1742 C1739 1.499 . S
C1742 C1743 1.373 . S
C1742 C1744 1.389 . S
C1743 H1722 0.950 . S
C1743 C1742 1.373 . S
C1743 C1759 1.377 . S
C1744 C1742 1.389 . S
C1744 C1745 1.524 . S
C1744 C1758 1.377 . S
C1745 C1744 1.524 . S
C1745 C1746 1.397 . S
C1745 C1750 1.363 . S
C1746 H1723 0.950 . S
C1746 C1745 1.397 . S
C1746 C1747 1.334 . S
C1747 H1724 0.950 . S
C1747 C1746 1.334 . S
C1747 C1748 1.287 . S
C1748 C1747 1.287 . S
C1748 C1749 1.524 . S
C1748 H1767 0.913 . S
C1749 H1725 0.950 . S
C1749 C1748 1.524 . S
C1749 C1750 1.415 . S
C1750 H1726 0.950 . S
C1750 C1745 1.363 . S
C1750 C1749 1.415 . S
C1751 H1727 0.951 . S
C1751 C1752 1.366 . S
C1751 C1753 1.388 . S
C1752 C1751 1.366 . S
C1752 C1756 1.385 . S
C1753 H1728 0.951 . S
C1753 C1751 1.388 . S
C1753 C1754 1.366 . S
C1754 C1753 1.366 . S
C1754 C1755 1.414 . S
C1754 C1757 1.499 . S
C1755 H1729 0.950 . S
C1755 C1754 1.414 . S
C1755 C1756 1.374 . S
C1756 H1730 0.950 . S
C1756 C1752 1.385 . S
C1756 C1755 1.374 . S
C1757 C1754 1.499 . S
C1757 C1758 1.373 . S
C1757 C1759 1.389 . S
C1758 H1731 0.950 . S
C1758 C1744 1.377 . S
C1758 C1757 1.373 . S
C1759 C1743 1.377 . S
C1759 C1757 1.389 . S
C1759 C1760 1.524 . S
C1760 C1759 1.524 . S
C1760 C1761 1.397 . S
C1760 C1765 1.363 . S
C1761 H1732 0.950 . S
C1761 C1760 1.397 . S
C1761 C1762 1.334 . S
C1762 H1733 0.950 . S
C1762 C1761 1.334 . S
C1762 C1763 1.287 . S
C1763 C1762 1.287 . S
C1763 C1764 1.524 . S
C1763 H1766 0.999 . S
C1764 H1734 0.950 . S
C1764 C1763 1.524 . S
C1764 C1765 1.415 . S
C1765 H1735 0.950 . S
C1765 C1760 1.363 . S
C1765 C1764 1.415 . S
H1766 C1763 0.999 . S
H1767 C1748 0.913 . S
H1768 C1786 0.951 . S
H1769 C1788 0.951 . S
H1770 C1790 0.950 . S
H1771 C1791 0.950 . S
H1772 C1793 0.950 . S
H1773 C1796 0.950 . S
H1774 C1797 0.950 . S
H1775 C1799 0.950 . S
H1776 C1800 0.950 . S
H1777 C1801 0.951 . S
H1778 C1803 0.951 . S
H1779 C1805 0.950 . S
H1780 C1806 0.950 . S
H1781 C1808 0.950 . S
H1782 C1811 0.950 . S
H1783 C1812 0.950 . S
H1784 C1814 0.950 . S
H1785 C1815 0.950 . S
C1786 H1768 0.951 . S
C1786 C1787 1.366 . S
C1786 C1788 1.388 . S
C1787 C1786 1.366 . S
C1787 C1791 1.385 . S
C1788 H1769 0.951 . S
C1788 C1786 1.388 . S
C1788 C1789 1.366 . S
C1789 C1788 1.366 . S
C1789 C1790 1.414 . S
C1789 C1792 1.499 . S
C1790 H1770 0.950 . S
C1790 C1789 1.414 . S
C1790 C1791 1.374 . S
C1791 H1771 0.950 . S
C1791 C1787 1.385 . S
C1791 C1790 1.374 . S
C1792 C1789 1.499 . S
C1792 C1793 1.373 . S
C1792 C1794 1.389 . S
C1793 H1772 0.950 . S
C1793 C1792 1.373 . S
C1793 C1809 1.377 . S
C1794 C1792 1.389 . S
C1794 C1795 1.524 . S
C1794 C1808 1.377 . S
C1795 C1794 1.524 . S
C1795 C1796 1.397 . S
C1795 C1800 1.363 . S
C1796 H1773 0.950 . S
C1796 C1795 1.397 . S
C1796 C1797 1.334 . S
C1797 H1774 0.950 . S
C1797 C1796 1.334 . S
C1797 C1798 1.287 . S
C1798 C1797 1.287 . S
C1798 C1799 1.524 . S
C1798 H1817 0.913 . S
C1799 H1775 0.950 . S
C1799 C1798 1.524 . S
C1799 C1800 1.415 . S
C1800 H1776 0.950 . S
C1800 C1795 1.363 . S
C1800 C1799 1.415 . S
C1801 H1777 0.951 . S
C1801 C1802 1.366 . S
C1801 C1803 1.388 . S
C1802 C1801 1.366 . S
C1802 C1806 1.385 . S
C1803 H1778 0.951 . S
C1803 C1801 1.388 . S
C1803 C1804 1.366 . S
C1804 C1803 1.366 . S
C1804 C1805 1.414 . S
C1804 C1807 1.499 . S
C1805 H1779 0.950 . S
C1805 C1804 1.414 . S
C1805 C1806 1.374 . S
C1806 H1780 0.950 . S
C1806 C1802 1.385 . S
C1806 C1805 1.374 . S
C1807 C1804 1.499 . S
C1807 C1808 1.373 . S
C1807 C1809 1.389 . S
C1808 H1781 0.950 . S
C1808 C1794 1.377 . S
C1808 C1807 1.373 . S
C1809 C1793 1.377 . S
C1809 C1807 1.389 . S
C1809 C1810 1.524 . S
C1810 C1809 1.524 . S
C1810 C1811 1.397 . S
C1810 C1815 1.363 . S
C1811 H1782 0.950 . S
C1811 C1810 1.397 . S
C1811 C1812 1.334 . S
C1812 H1783 0.950 . S
C1812 C1811 1.334 . S
C1812 C1813 1.287 . S
C1813 C1812 1.287 . S
C1813 C1814 1.524 . S
C1813 H1816 0.999 . S
C1814 H1784 0.950 . S
C1814 C1813 1.524 . S
C1814 C1815 1.415 . S
C1815 H1785 0.950 . S
C1815 C1810 1.363 . S
C1815 C1814 1.415 . S
H1816 C1813 0.999 . S
H1817 C1798 0.913 . S
H1818 C1836 0.951 . S
H1819 C1838 0.951 . S
H1820 C1840 0.950 . S
H1821 C1841 0.950 . S
H1822 C1843 0.950 . S
H1823 C1846 0.950 . S
H1824 C1847 0.950 . S
H1825 C1849 0.950 . S
H1826 C1850 0.950 . S
H1827 C1851 0.951 . S
H1828 C1853 0.951 . S
H1829 C1855 0.950 . S
H1830 C1856 0.950 . S
H1831 C1858 0.950 . S
H1832 C1861 0.950 . S
H1833 C1862 0.950 . S
H1834 C1864 0.950 . S
H1835 C1865 0.950 . S
C1836 H1818 0.951 . S
C1836 C1837 1.366 . S
C1836 C1838 1.388 . S
C1837 C1836 1.366 . S
C1837 C1841 1.385 . S
C1838 H1819 0.951 . S
C1838 C1836 1.388 . S
C1838 C1839 1.366 . S
C1839 C1838 1.366 . S
C1839 C1840 1.414 . S
C1839 C1842 1.499 . S
C1840 H1820 0.950 . S
C1840 C1839 1.414 . S
C1840 C1841 1.374 . S
C1841 H1821 0.950 . S
C1841 C1837 1.385 . S
C1841 C1840 1.374 . S
C1842 C1839 1.499 . S
C1842 C1843 1.373 . S
C1842 C1844 1.389 . S
C1843 H1822 0.950 . S
C1843 C1842 1.373 . S
C1843 C1859 1.377 . S
C1844 C1842 1.389 . S
C1844 C1845 1.524 . S
C1844 C1858 1.377 . S
C1845 C1844 1.524 . S
C1845 C1846 1.397 . S
C1845 C1850 1.363 . S
C1846 H1823 0.950 . S
C1846 C1845 1.397 . S
C1846 C1847 1.334 . S
C1847 H1824 0.950 . S
C1847 C1846 1.334 . S
C1847 C1848 1.287 . S
C1848 C1847 1.287 . S
C1848 C1849 1.524 . S
C1848 H1867 0.913 . S
C1849 H1825 0.950 . S
C1849 C1848 1.524 . S
C1849 C1850 1.415 . S
C1850 H1826 0.950 . S
C1850 C1845 1.363 . S
C1850 C1849 1.415 . S
C1851 H1827 0.951 . S
C1851 C1852 1.366 . S
C1851 C1853 1.388 . S
C1852 C1851 1.366 . S
C1852 C1856 1.385 . S
C1853 H1828 0.951 . S
C1853 C1851 1.388 . S
C1853 C1854 1.366 . S
C1854 C1853 1.366 . S
C1854 C1855 1.414 . S
C1854 C1857 1.499 . S
C1855 H1829 0.950 . S
C1855 C1854 1.414 . S
C1855 C1856 1.374 . S
C1856 H1830 0.950 . S
C1856 C1852 1.385 . S
C1856 C1855 1.374 . S
C1857 C1854 1.499 . S
C1857 C1858 1.373 . S
C1857 C1859 1.389 . S
C1858 H1831 0.950 . S
C1858 C1844 1.377 . S
C1858 C1857 1.373 . S
C1859 C1843 1.377 . S
C1859 C1857 1.389 . S
C1859 C1860 1.524 . S
C1860 C1859 1.524 . S
C1860 C1861 1.397 . S
C1860 C1865 1.363 . S
C1861 H1832 0.950 . S
C1861 C1860 1.397 . S
C1861 C1862 1.334 1_556 S
C1862 H1833 0.950 . S
C1862 C1861 1.334 1_554 S
C1862 C1863 1.287 . S
C1863 C1862 1.287 . S
C1863 C1864 1.524 1_554 S
C1863 H1866 0.999 . S
C1864 H1834 0.950 . S
C1864 C1863 1.524 1_556 S
C1864 C1865 1.415 . S
C1865 H1835 0.950 . S
C1865 C1860 1.363 . S
C1865 C1864 1.415 . S
H1866 C1863 0.999 . S
H1867 C1848 0.913 . S
H1868 C1886 0.951 . S
H1869 C1888 0.951 . S
H1870 C1890 0.950 . S
H1871 C1891 0.950 . S
H1872 C1893 0.950 . S
H1873 C1896 0.950 . S
H1874 C1897 0.950 . S
H1875 C1899 0.950 . S
H1876 C1900 0.950 . S
H1877 C1901 0.951 . S
H1878 C1903 0.951 . S
H1879 C1905 0.950 . S
H1880 C1906 0.950 . S
H1881 C1908 0.950 . S
H1882 C1911 0.950 . S
H1883 C1912 0.950 . S
H1884 C1914 0.950 . S
H1885 C1915 0.950 . S
C1886 H1868 0.951 . S
C1886 C1887 1.366 . S
C1886 C1888 1.388 . S
C1887 C1886 1.366 . S
C1887 C1891 1.385 . S
C1888 H1869 0.951 . S
C1888 C1886 1.388 . S
C1888 C1889 1.366 . S
C1889 C1888 1.366 . S
C1889 C1890 1.414 . S
C1889 C1892 1.499 . S
C1890 H1870 0.950 . S
C1890 C1889 1.414 . S
C1890 C1891 1.374 . S
C1891 H1871 0.950 . S
C1891 C1887 1.385 . S
C1891 C1890 1.374 . S
C1892 C1889 1.499 . S
C1892 C1893 1.373 . S
C1892 C1894 1.389 . S
C1893 H1872 0.950 . S
C1893 C1892 1.373 . S
C1893 C1909 1.377 . S
C1894 C1892 1.389 . S
C1894 C1895 1.524 . S
C1894 C1908 1.377 . S
C1895 C1894 1.524 . S
C1895 C1896 1.397 . S
C1895 C1900 1.363 . S
C1896 H1873 0.950 . S
C1896 C1895 1.397 . S
C1896 C1897 1.334 . S
C1897 H1874 0.950 . S
C1897 C1896 1.334 . S
C1897 C1898 1.287 . S
C1898 C1897 1.287 . S
C1898 C1899 1.524 . S
C1898 H1917 0.913 . S
C1899 H1875 0.950 . S
C1899 C1898 1.524 . S
C1899 C1900 1.415 . S
C1900 H1876 0.950 . S
C1900 C1895 1.363 . S
C1900 C1899 1.415 . S
C1901 H1877 0.951 . S
C1901 C1902 1.366 . S
C1901 C1903 1.388 . S
C1902 C1901 1.366 . S
C1902 C1906 1.385 . S
C1903 H1878 0.951 . S
C1903 C1901 1.388 . S
C1903 C1904 1.366 . S
C1904 C1903 1.366 . S
C1904 C1905 1.414 . S
C1904 C1907 1.499 . S
C1905 H1879 0.950 . S
C1905 C1904 1.414 . S
C1905 C1906 1.374 . S
C1906 H1880 0.950 . S
C1906 C1902 1.385 . S
C1906 C1905 1.374 . S
C1907 C1904 1.499 . S
C1907 C1908 1.373 . S
C1907 C1909 1.389 . S
C1908 H1881 0.950 . S
C1908 C1894 1.377 . S
C1908 C1907 1.373 . S
C1909 C1893 1.377 . S
C1909 C1907 1.389 . S
C1909 C1910 1.524 . S
C1910 C1909 1.524 . S
C1910 C1911 1.397 . S
C1910 C1915 1.363 . S
C1911 H1882 0.950 . S
C1911 C1910 1.397 . S
C1911 C1912 1.334 . S
C1912 H1883 0.950 . S
C1912 C1911 1.334 . S
C1912 C1913 1.287 . S
C1913 C1912 1.287 . S
C1913 C1914 1.524 . S
C1913 H1916 0.999 . S
C1914 H1884 0.950 . S
C1914 C1913 1.524 . S
C1914 C1915 1.415 . S
C1915 H1885 0.950 . S
C1915 C1910 1.363 . S
C1915 C1914 1.415 . S
H1916 C1913 0.999 . S
H1917 C1898 0.913 . S
H1918 C1936 0.951 . S
H1919 C1938 0.951 . S
H1920 C1940 0.950 . S
H1921 C1941 0.950 . S
H1922 C1943 0.950 . S
H1923 C1946 0.950 . S
H1924 C1947 0.950 . S
H1925 C1949 0.950 . S
H1926 C1950 0.950 . S
H1927 C1951 0.951 . S
H1928 C1953 0.951 . S
H1929 C1955 0.950 . S
H1930 C1956 0.950 . S
H1931 C1958 0.950 . S
H1932 C1961 0.950 . S
H1933 C1962 0.950 1_556 S
H1934 C1964 0.950 . S
H1935 C1965 0.950 . S
C1936 H1918 0.951 . S
C1936 C1937 1.366 . S
C1936 C1938 1.388 . S
C1937 C1936 1.366 . S
C1937 C1941 1.385 . S
C1938 H1919 0.951 . S
C1938 C1936 1.388 . S
C1938 C1939 1.366 . S
C1939 C1938 1.366 . S
C1939 C1940 1.414 . S
C1939 C1942 1.499 . S
C1940 H1920 0.950 . S
C1940 C1939 1.414 . S
C1940 C1941 1.374 . S
C1941 H1921 0.950 . S
C1941 C1937 1.385 . S
C1941 C1940 1.374 . S
C1942 C1939 1.499 . S
C1942 C1943 1.373 . S
C1942 C1944 1.389 . S
C1943 H1922 0.950 . S
C1943 C1942 1.373 . S
C1943 C1959 1.377 . S
C1944 C1942 1.389 . S
C1944 C1945 1.524 . S
C1944 C1958 1.377 . S
C1945 C1944 1.524 . S
C1945 C1946 1.397 . S
C1945 C1950 1.363 . S
C1946 H1923 0.950 . S
C1946 C1945 1.397 . S
C1946 C1947 1.334 . S
C1947 H1924 0.950 . S
C1947 C1946 1.334 . S
C1947 C1948 1.287 . S
C1948 C1947 1.287 . S
C1948 C1949 1.524 . S
C1948 H1967 0.913 . S
C1949 H1925 0.950 . S
C1949 C1948 1.524 . S
C1949 C1950 1.415 . S
C1950 H1926 0.950 . S
C1950 C1945 1.363 . S
C1950 C1949 1.415 . S
C1951 H1927 0.951 . S
C1951 C1952 1.366 . S
C1951 C1953 1.388 . S
C1952 C1951 1.366 . S
C1952 C1956 1.385 . S
C1953 H1928 0.951 . S
C1953 C1951 1.388 . S
C1953 C1954 1.366 . S
C1954 C1953 1.366 . S
C1954 C1955 1.414 . S
C1954 C1957 1.499 . S
C1955 H1929 0.950 . S
C1955 C1954 1.414 . S
C1955 C1956 1.374 . S
C1956 H1930 0.950 . S
C1956 C1952 1.385 . S
C1956 C1955 1.374 . S
C1957 C1954 1.499 . S
C1957 C1958 1.373 . S
C1957 C1959 1.389 . S
C1958 H1931 0.950 . S
C1958 C1944 1.377 . S
C1958 C1957 1.373 . S
C1959 C1943 1.377 . S
C1959 C1957 1.389 . S
C1959 C1960 1.524 . S
C1960 C1959 1.524 . S
C1960 C1961 1.397 . S
C1960 C1965 1.363 . S
C1961 H1932 0.950 . S
C1961 C1960 1.397 . S
C1961 C1962 1.334 . S
C1962 H1933 0.950 1_554 S
C1962 C1961 1.334 . S
C1962 C1963 1.287 . S
C1963 C1962 1.287 . S
C1963 C1964 1.524 . S
C1963 H1966 0.999 . S
C1964 H1934 0.950 . S
C1964 C1963 1.524 . S
C1964 C1965 1.415 . S
C1965 H1935 0.950 . S
C1965 C1960 1.363 . S
C1965 C1964 1.415 . S
H1966 C1963 0.999 . S
H1967 C1948 0.913 . S
H1968 C1986 0.951 . S
H1969 C1988 0.951 . S
H1970 C1990 0.950 . S
H1971 C1991 0.950 . S
H1972 C1993 0.950 . S
H1973 C1996 0.950 . S
H1974 C1997 0.950 . S
H1975 C1999 0.950 . S
H1976 C2000 0.950 . S
H1977 C2001 0.951 . S
H1978 C2003 0.951 . S
H1979 C2005 0.950 . S
H1980 C2006 0.950 . S
H1981 C2008 0.950 . S
H1982 C2011 0.950 . S
H1983 C2012 0.950 . S
H1984 C2014 0.950 . S
H1985 C2015 0.950 . S
C1986 H1968 0.951 . S
C1986 C1987 1.366 . S
C1986 C1988 1.388 . S
C1987 C1986 1.366 . S
C1987 C1991 1.385 . S
C1988 H1969 0.951 . S
C1988 C1986 1.388 . S
C1988 C1989 1.366 . S
C1989 C1988 1.366 . S
C1989 C1990 1.414 . S
C1989 C1992 1.499 . S
C1990 H1970 0.950 . S
C1990 C1989 1.414 . S
C1990 C1991 1.374 . S
C1991 H1971 0.950 . S
C1991 C1987 1.385 . S
C1991 C1990 1.374 . S
C1992 C1989 1.499 . S
C1992 C1993 1.373 . S
C1992 C1994 1.389 . S
C1993 H1972 0.950 . S
C1993 C1992 1.373 . S
C1993 C2009 1.377 . S
C1994 C1992 1.389 . S
C1994 C1995 1.524 . S
C1994 C2008 1.377 . S
C1995 C1994 1.524 . S
C1995 C1996 1.397 . S
C1995 C2000 1.363 . S
C1996 H1973 0.950 . S
C1996 C1995 1.397 . S
C1996 C1997 1.334 . S
C1997 H1974 0.950 . S
C1997 C1996 1.334 . S
C1997 C1998 1.287 . S
C1998 C1997 1.287 . S
C1998 C1999 1.524 . S
C1998 H2017 0.913 . S
C1999 H1975 0.950 . S
C1999 C1998 1.524 . S
C1999 C2000 1.415 . S
C2000 H1976 0.950 . S
C2000 C1995 1.363 . S
C2000 C1999 1.415 . S
C2001 H1977 0.951 . S
C2001 C2002 1.366 . S
C2001 C2003 1.388 . S
C2002 C2001 1.366 . S
C2002 C2006 1.385 . S
C2003 H1978 0.951 . S
C2003 C2001 1.388 . S
C2003 C2004 1.366 . S
C2004 C2003 1.366 . S
C2004 C2005 1.414 . S
C2004 C2007 1.499 . S
C2005 H1979 0.950 . S
C2005 C2004 1.414 . S
C2005 C2006 1.374 . S
C2006 H1980 0.950 . S
C2006 C2002 1.385 . S
C2006 C2005 1.374 . S
C2007 C2004 1.499 . S
C2007 C2008 1.373 . S
C2007 C2009 1.389 . S
C2008 H1981 0.950 . S
C2008 C1994 1.377 . S
C2008 C2007 1.373 . S
C2009 C1993 1.377 . S
C2009 C2007 1.389 . S
C2009 C2010 1.524 . S
C2010 C2009 1.524 . S
C2010 C2011 1.397 . S
C2010 C2015 1.363 . S
C2011 H1982 0.950 . S
C2011 C2010 1.397 . S
C2011 C2012 1.334 . S
C2012 H1983 0.950 . S
C2012 C2011 1.334 . S
C2012 C2013 1.287 . S
C2013 C2012 1.287 . S
C2013 C2014 1.524 . S
C2013 H2016 0.999 . S
C2014 H1984 0.950 . S
C2014 C2013 1.524 . S
C2014 C2015 1.415 . S
C2015 H1985 0.950 . S
C2015 C2010 1.363 . S
C2015 C2014 1.415 . S
H2016 C2013 0.999 . S
H2017 C1998 0.913 . S
H2018 C2036 0.951 . S
H2019 C2038 0.951 . S
H2020 C2040 0.950 . S
H2021 C2041 0.950 . S
H2022 C2043 0.950 . S
H2023 C2046 0.950 . S
H2024 C2047 0.950 . S
H2025 C2049 0.950 . S
H2026 C2050 0.950 . S
H2027 C2051 0.951 . S
H2028 C2053 0.951 . S
H2029 C2055 0.950 . S
H2030 C2056 0.950 . S
H2031 C2058 0.950 . S
H2032 C2061 0.950 . S
H2033 C2062 0.950 . S
H2034 C2064 0.950 . S
H2035 C2065 0.950 . S
C2036 H2018 0.951 . S
C2036 C2037 1.366 . S
C2036 C2038 1.388 . S
C2037 C2036 1.366 . S
C2037 C2041 1.385 . S
C2038 H2019 0.951 . S
C2038 C2036 1.388 . S
C2038 C2039 1.366 . S
C2039 C2038 1.366 . S
C2039 C2040 1.414 . S
C2039 C2042 1.499 . S
C2040 H2020 0.950 . S
C2040 C2039 1.414 . S
C2040 C2041 1.374 . S
C2041 H2021 0.950 . S
C2041 C2037 1.385 . S
C2041 C2040 1.374 . S
C2042 C2039 1.499 . S
C2042 C2043 1.373 . S
C2042 C2044 1.389 . S
C2043 H2022 0.950 . S
C2043 C2042 1.373 . S
C2043 C2059 1.377 . S
C2044 C2042 1.389 . S
C2044 C2045 1.524 . S
C2044 C2058 1.377 . S
C2045 C2044 1.524 . S
C2045 C2046 1.397 . S
C2045 C2050 1.363 . S
C2046 H2023 0.950 . S
C2046 C2045 1.397 . S
C2046 C2047 1.334 . S
C2047 H2024 0.950 . S
C2047 C2046 1.334 . S
C2047 C2048 1.287 . S
C2048 C2047 1.287 . S
C2048 C2049 1.524 . S
C2048 H2067 0.913 . S
C2049 H2025 0.950 . S
C2049 C2048 1.524 . S
C2049 C2050 1.415 . S
C2050 H2026 0.950 . S
C2050 C2045 1.363 . S
C2050 C2049 1.415 . S
C2051 H2027 0.951 . S
C2051 C2052 1.366 . S
C2051 C2053 1.388 . S
C2052 C2051 1.366 . S
C2052 C2056 1.385 . S
C2053 H2028 0.951 . S
C2053 C2051 1.388 . S
C2053 C2054 1.366 . S
C2054 C2053 1.366 . S
C2054 C2055 1.414 . S
C2054 C2057 1.499 . S
C2055 H2029 0.950 . S
C2055 C2054 1.414 . S
C2055 C2056 1.374 . S
C2056 H2030 0.950 . S
C2056 C2052 1.385 . S
C2056 C2055 1.374 . S
C2057 C2054 1.499 . S
C2057 C2058 1.373 . S
C2057 C2059 1.389 . S
C2058 H2031 0.950 . S
C2058 C2044 1.377 . S
C2058 C2057 1.373 . S
C2059 C2043 1.377 . S
C2059 C2057 1.389 . S
C2059 C2060 1.524 . S
C2060 C2059 1.524 . S
C2060 C2061 1.397 . S
C2060 C2065 1.363 . S
C2061 H2032 0.950 . S
C2061 C2060 1.397 . S
C2061 C2062 1.334 . S
C2062 H2033 0.950 . S
C2062 C2061 1.334 . S
C2062 C2063 1.287 . S
C2063 C2062 1.287 . S
C2063 C2064 1.524 . S
C2063 H2066 0.999 . S
C2064 H2034 0.950 . S
C2064 C2063 1.524 . S
C2064 C2065 1.415 . S
C2065 H2035 0.950 . S
C2065 C2060 1.363 . S
C2065 C2064 1.415 . S
H2066 C2063 0.999 . S
H2067 C2048 0.913 . S
H2068 C2086 0.951 . S
H2069 C2088 0.951 . S
H2070 C2090 0.950 . S
H2071 C2091 0.950 . S
H2072 C2093 0.950 . S
H2073 C2096 0.950 . S
H2074 C2097 0.950 . S
H2075 C2099 0.950 . S
H2076 C2100 0.950 . S
H2077 C2101 0.951 . S
H2078 C2103 0.951 . S
H2079 C2105 0.950 . S
H2080 C2106 0.950 . S
H2081 C2108 0.950 . S
H2082 C2111 0.950 . S
H2083 C2112 0.950 . S
H2084 C2114 0.950 . S
H2085 C2115 0.950 . S
C2086 H2068 0.951 . S
C2086 C2087 1.366 . S
C2086 C2088 1.388 . S
C2087 C2086 1.366 . S
C2087 C2091 1.385 . S
C2088 H2069 0.951 . S
C2088 C2086 1.388 . S
C2088 C2089 1.366 . S
C2089 C2088 1.366 . S
C2089 C2090 1.414 . S
C2089 C2092 1.499 . S
C2090 H2070 0.950 . S
C2090 C2089 1.414 . S
C2090 C2091 1.374 . S
C2091 H2071 0.950 . S
C2091 C2087 1.385 . S
C2091 C2090 1.374 . S
C2092 C2089 1.499 . S
C2092 C2093 1.373 . S
C2092 C2094 1.389 . S
C2093 H2072 0.950 . S
C2093 C2092 1.373 . S
C2093 C2109 1.377 . S
C2094 C2092 1.389 . S
C2094 C2095 1.524 . S
C2094 C2108 1.377 . S
C2095 C2094 1.524 . S
C2095 C2096 1.397 . S
C2095 C2100 1.363 . S
C2096 H2073 0.950 . S
C2096 C2095 1.397 . S
C2096 C2097 1.334 . S
C2097 H2074 0.950 . S
C2097 C2096 1.334 . S
C2097 C2098 1.287 . S
C2098 C2097 1.287 . S
C2098 C2099 1.524 . S
C2098 H2117 0.913 . S
C2099 H2075 0.950 . S
C2099 C2098 1.524 . S
C2099 C2100 1.415 . S
C2100 H2076 0.950 . S
C2100 C2095 1.363 . S
C2100 C2099 1.415 . S
C2101 H2077 0.951 . S
C2101 C2102 1.366 . S
C2101 C2103 1.388 . S
C2102 C2101 1.366 . S
C2102 C2106 1.385 . S
C2103 H2078 0.951 . S
C2103 C2101 1.388 . S
C2103 C2104 1.366 . S
C2104 C2103 1.366 . S
C2104 C2105 1.414 . S
C2104 C2107 1.499 . S
C2105 H2079 0.950 . S
C2105 C2104 1.414 . S
C2105 C2106 1.374 . S
C2106 H2080 0.950 . S
C2106 C2102 1.385 . S
C2106 C2105 1.374 . S
C2107 C2104 1.499 . S
C2107 C2108 1.373 . S
C2107 C2109 1.389 . S
C2108 H2081 0.950 . S
C2108 C2094 1.377 . S
C2108 C2107 1.373 . S
C2109 C2093 1.377 . S
C2109 C2107 1.389 . S
C2109 C2110 1.524 . S
C2110 C2109 1.524 . S
C2110 C2111 1.397 . S
C2110 C2115 1.363 . S
C2111 H2082 0.950 . S
C2111 C2110 1.397 . S
C2111 C2112 1.334 . S
C2112 H2083 0.950 . S
C2112 C2111 1.334 . S
C2112 C2113 1.287 . S
C2113 C2112 1.287 . S
C2113 C2114 1.524 . S
C2113 H2116 0.999 . S
C2114 H2084 0.950 . S
C2114 C2113 1.524 . S
C2114 C2115 1.415 . S
C2115 H2085 0.950 . S
C2115 C2110 1.363 . S
C2115 C2114 1.415 . S
H2116 C2113 0.999 . S
H2117 C2098 0.913 . S
H2118 C2136 0.951 . S
H2119 C2138 0.951 . S
H2120 C2140 0.950 . S
H2121 C2141 0.950 . S
H2122 C2143 0.950 . S
H2123 C2146 0.950 . S
H2124 C2147 0.950 . S
H2125 C2149 0.950 . S
H2126 C2150 0.950 . S
H2127 C2151 0.951 . S
H2128 C2153 0.951 . S
H2129 C2155 0.950 . S
H2130 C2156 0.950 . S
H2131 C2158 0.950 . S
H2132 C2161 0.950 . S
H2133 C2162 0.950 . S
H2134 C2164 0.950 . S
H2135 C2165 0.950 . S
C2136 H2118 0.951 . S
C2136 C2137 1.366 . S
C2136 C2138 1.388 . S
C2137 C2136 1.366 . S
C2137 C2141 1.385 . S
C2138 H2119 0.951 . S
C2138 C2136 1.388 . S
C2138 C2139 1.366 . S
C2139 C2138 1.366 . S
C2139 C2140 1.414 . S
C2139 C2142 1.499 . S
C2140 H2120 0.950 . S
C2140 C2139 1.414 . S
C2140 C2141 1.374 . S
C2141 H2121 0.950 . S
C2141 C2137 1.385 . S
C2141 C2140 1.374 . S
C2142 C2139 1.499 . S
C2142 C2143 1.373 . S
C2142 C2144 1.389 . S
C2143 H2122 0.950 . S
C2143 C2142 1.373 . S
C2143 C2159 1.377 . S
C2144 C2142 1.389 . S
C2144 C2145 1.524 . S
C2144 C2158 1.377 . S
C2145 C2144 1.524 . S
C2145 C2146 1.397 . S
C2145 C2150 1.363 . S
C2146 H2123 0.950 . S
C2146 C2145 1.397 . S
C2146 C2147 1.334 . S
C2147 H2124 0.950 . S
C2147 C2146 1.334 . S
C2147 C2148 1.287 . S
C2148 C2147 1.287 . S
C2148 C2149 1.524 . S
C2148 H2167 0.913 . S
C2149 H2125 0.950 . S
C2149 C2148 1.524 . S
C2149 C2150 1.415 . S
C2150 H2126 0.950 . S
C2150 C2145 1.363 . S
C2150 C2149 1.415 . S
C2151 H2127 0.951 . S
C2151 C2152 1.366 . S
C2151 C2153 1.388 . S
C2152 C2151 1.366 . S
C2152 C2156 1.385 . S
C2153 H2128 0.951 . S
C2153 C2151 1.388 . S
C2153 C2154 1.366 . S
C2154 C2153 1.366 . S
C2154 C2155 1.414 . S
C2154 C2157 1.499 . S
C2155 H2129 0.950 . S
C2155 C2154 1.414 . S
C2155 C2156 1.374 . S
C2156 H2130 0.950 . S
C2156 C2152 1.385 . S
C2156 C2155 1.374 . S
C2157 C2154 1.499 . S
C2157 C2158 1.373 . S
C2157 C2159 1.389 . S
C2158 H2131 0.950 . S
C2158 C2144 1.377 . S
C2158 C2157 1.373 . S
C2159 C2143 1.377 . S
C2159 C2157 1.389 . S
C2159 C2160 1.524 . S
C2160 C2159 1.524 . S
C2160 C2161 1.397 . S
C2160 C2165 1.363 . S
C2161 H2132 0.950 . S
C2161 C2160 1.397 . S
C2161 C2162 1.334 . S
C2162 H2133 0.950 . S
C2162 C2161 1.334 . S
C2162 C2163 1.287 . S
C2163 C2162 1.287 . S
C2163 C2164 1.524 . S
C2163 H2166 0.999 . S
C2164 H2134 0.950 . S
C2164 C2163 1.524 . S
C2164 C2165 1.415 . S
C2165 H2135 0.950 . S
C2165 C2160 1.363 . S
C2165 C2164 1.415 . S
H2166 C2163 0.999 . S
H2167 C2148 0.913 . S
H2168 C2186 0.951 . S
H2169 C2188 0.951 . S
H2170 C2190 0.950 . S
H2171 C2191 0.950 . S
H2172 C2193 0.950 . S
H2173 C2196 0.950 . S
H2174 C2197 0.950 . S
H2175 C2199 0.950 . S
H2176 C2200 0.950 . S
H2177 C2201 0.951 . S
H2178 C2203 0.951 . S
H2179 C2205 0.950 . S
H2180 C2206 0.950 . S
H2181 C2208 0.950 . S
H2182 C2211 0.950 . S
H2183 C2212 0.950 . S
H2184 C2214 0.950 . S
H2185 C2215 0.950 . S
C2186 H2168 0.951 . S
C2186 C2187 1.366 . S
C2186 C2188 1.388 . S
C2187 C2186 1.366 . S
C2187 C2191 1.385 . S
C2188 H2169 0.951 . S
C2188 C2186 1.388 . S
C2188 C2189 1.366 . S
C2189 C2188 1.366 . S
C2189 C2190 1.414 . S
C2189 C2192 1.499 . S
C2190 H2170 0.950 . S
C2190 C2189 1.414 . S
C2190 C2191 1.374 . S
C2191 H2171 0.950 . S
C2191 C2187 1.385 . S
C2191 C2190 1.374 . S
C2192 C2189 1.499 . S
C2192 C2193 1.373 . S
C2192 C2194 1.389 . S
C2193 H2172 0.950 . S
C2193 C2192 1.373 . S
C2193 C2209 1.377 . S
C2194 C2192 1.389 . S
C2194 C2195 1.524 . S
C2194 C2208 1.377 . S
C2195 C2194 1.524 . S
C2195 C2196 1.397 . S
C2195 C2200 1.363 . S
C2196 H2173 0.950 . S
C2196 C2195 1.397 . S
C2196 C2197 1.334 . S
C2197 H2174 0.950 . S
C2197 C2196 1.334 . S
C2197 C2198 1.287 . S
C2198 C2197 1.287 . S
C2198 C2199 1.524 . S
C2198 H2217 0.913 . S
C2199 H2175 0.950 . S
C2199 C2198 1.524 . S
C2199 C2200 1.415 . S
C2200 H2176 0.950 . S
C2200 C2195 1.363 . S
C2200 C2199 1.415 . S
C2201 H2177 0.951 . S
C2201 C2202 1.366 . S
C2201 C2203 1.388 . S
C2202 C2201 1.366 . S
C2202 C2206 1.385 . S
C2203 H2178 0.951 . S
C2203 C2201 1.388 . S
C2203 C2204 1.366 . S
C2204 C2203 1.366 . S
C2204 C2205 1.414 . S
C2204 C2207 1.499 . S
C2205 H2179 0.950 . S
C2205 C2204 1.414 . S
C2205 C2206 1.374 . S
C2206 H2180 0.950 . S
C2206 C2202 1.385 . S
C2206 C2205 1.374 . S
C2207 C2204 1.499 . S
C2207 C2208 1.373 . S
C2207 C2209 1.389 . S
C2208 H2181 0.950 . S
C2208 C2194 1.377 . S
C2208 C2207 1.373 . S
C2209 C2193 1.377 . S
C2209 C2207 1.389 . S
C2209 C2210 1.524 . S
C2210 C2209 1.524 . S
C2210 C2211 1.397 . S
C2210 C2215 1.363 . S
C2211 H2182 0.950 . S
C2211 C2210 1.397 . S
C2211 C2212 1.334 . S
C2212 H2183 0.950 . S
C2212 C2211 1.334 . S
C2212 C2213 1.287 . S
C2213 C2212 1.287 . S
C2213 C2214 1.524 . S
C2213 H2216 0.999 . S
C2214 H2184 0.950 . S
C2214 C2213 1.524 . S
C2214 C2215 1.415 . S
C2215 H2185 0.950 . S
C2215 C2210 1.363 . S
C2215 C2214 1.415 . S
H2216 C2213 0.999 . S
H2217 C2198 0.913 . S
H2218 C2236 0.951 . S
H2219 C2238 0.951 . S
H2220 C2240 0.950 . S
H2221 C2241 0.950 . S
H2222 C2243 0.950 . S
H2223 C2246 0.950 . S
H2224 C2247 0.950 . S
H2225 C2249 0.950 . S
H2226 C2250 0.950 . S
H2227 C2251 0.951 . S
H2228 C2253 0.951 . S
H2229 C2255 0.950 . S
H2230 C2256 0.950 . S
H2231 C2258 0.950 . S
H2232 C2261 0.950 . S
H2233 C2262 0.950 . S
H2234 C2264 0.950 . S
H2235 C2265 0.950 . S
C2236 H2218 0.951 . S
C2236 C2237 1.366 . S
C2236 C2238 1.388 . S
C2237 C2236 1.366 . S
C2237 C2241 1.385 . S
C2238 H2219 0.951 . S
C2238 C2236 1.388 . S
C2238 C2239 1.366 . S
C2239 C2238 1.366 . S
C2239 C2240 1.414 . S
C2239 C2242 1.499 . S
C2240 H2220 0.950 . S
C2240 C2239 1.414 . S
C2240 C2241 1.374 . S
C2241 H2221 0.950 . S
C2241 C2237 1.385 . S
C2241 C2240 1.374 . S
C2242 C2239 1.499 . S
C2242 C2243 1.373 . S
C2242 C2244 1.389 . S
C2243 H2222 0.950 . S
C2243 C2242 1.373 . S
C2243 C2259 1.377 . S
C2244 C2242 1.389 . S
C2244 C2245 1.524 . S
C2244 C2258 1.377 . S
C2245 C2244 1.524 . S
C2245 C2246 1.397 . S
C2245 C2250 1.363 . S
C2246 H2223 0.950 . S
C2246 C2245 1.397 . S
C2246 C2247 1.334 . S
C2247 H2224 0.950 . S
C2247 C2246 1.334 . S
C2247 C2248 1.287 . S
C2248 C2247 1.287 . S
C2248 C2249 1.524 . S
C2248 H2267 0.913 . S
C2249 H2225 0.950 . S
C2249 C2248 1.524 . S
C2249 C2250 1.415 . S
C2250 H2226 0.950 . S
C2250 C2245 1.363 . S
C2250 C2249 1.415 . S
C2251 H2227 0.951 . S
C2251 C2252 1.366 . S
C2251 C2253 1.388 . S
C2252 C2251 1.366 . S
C2252 C2256 1.385 . S
C2253 H2228 0.951 . S
C2253 C2251 1.388 . S
C2253 C2254 1.366 . S
C2254 C2253 1.366 . S
C2254 C2255 1.414 . S
C2254 C2257 1.499 . S
C2255 H2229 0.950 . S
C2255 C2254 1.414 . S
C2255 C2256 1.374 . S
C2256 H2230 0.950 . S
C2256 C2252 1.385 . S
C2256 C2255 1.374 . S
C2257 C2254 1.499 . S
C2257 C2258 1.373 . S
C2257 C2259 1.389 . S
C2258 H2231 0.950 . S
C2258 C2244 1.377 . S
C2258 C2257 1.373 . S
C2259 C2243 1.377 . S
C2259 C2257 1.389 . S
C2259 C2260 1.524 . S
C2260 C2259 1.524 . S
C2260 C2261 1.397 . S
C2260 C2265 1.363 . S
C2261 H2232 0.950 . S
C2261 C2260 1.397 . S
C2261 C2262 1.334 . S
C2262 H2233 0.950 . S
C2262 C2261 1.334 . S
C2262 C2263 1.287 . S
C2263 C2262 1.287 . S
C2263 C2264 1.524 . S
C2263 H2266 0.999 . S
C2264 H2234 0.950 . S
C2264 C2263 1.524 . S
C2264 C2265 1.415 . S
C2265 H2235 0.950 . S
C2265 C2260 1.363 . S
C2265 C2264 1.415 . S
H2266 C2263 0.999 . S
H2267 C2248 0.913 . S
H2268 C2286 0.951 . S
H2269 C2288 0.951 . S
H2270 C2290 0.950 . S
H2271 C2291 0.950 . S
H2272 C2293 0.950 . S
H2273 C2296 0.950 . S
H2274 C2297 0.950 . S
H2275 C2299 0.950 . S
H2276 C2300 0.950 . S
H2277 C2301 0.951 . S
H2278 C2303 0.951 . S
H2279 C2305 0.950 . S
H2280 C2306 0.950 . S
H2281 C2308 0.950 . S
H2282 C2311 0.950 . S
H2283 C2312 0.950 . S
H2284 C2314 0.950 . S
H2285 C2315 0.950 . S
C2286 H2268 0.951 . S
C2286 C2287 1.366 . S
C2286 C2288 1.388 . S
C2287 C2286 1.366 . S
C2287 C2291 1.385 . S
C2288 H2269 0.951 . S
C2288 C2286 1.388 . S
C2288 C2289 1.366 . S
C2289 C2288 1.366 . S
C2289 C2290 1.414 . S
C2289 C2292 1.499 . S
C2290 H2270 0.950 . S
C2290 C2289 1.414 . S
C2290 C2291 1.374 . S
C2291 H2271 0.950 . S
C2291 C2287 1.385 . S
C2291 C2290 1.374 . S
C2292 C2289 1.499 . S
C2292 C2293 1.373 . S
C2292 C2294 1.389 . S
C2293 H2272 0.950 . S
C2293 C2292 1.373 . S
C2293 C2309 1.377 . S
C2294 C2292 1.389 . S
C2294 C2295 1.524 . S
C2294 C2308 1.377 . S
C2295 C2294 1.524 . S
C2295 C2296 1.397 . S
C2295 C2300 1.363 . S
C2296 H2273 0.950 . S
C2296 C2295 1.397 . S
C2296 C2297 1.334 . S
C2297 H2274 0.950 . S
C2297 C2296 1.334 . S
C2297 C2298 1.287 . S
C2298 C2297 1.287 . S
C2298 C2299 1.524 . S
C2298 H2317 0.913 . S
C2299 H2275 0.950 . S
C2299 C2298 1.524 . S
C2299 C2300 1.415 . S
C2300 H2276 0.950 . S
C2300 C2295 1.363 . S
C2300 C2299 1.415 . S
C2301 H2277 0.951 . S
C2301 C2302 1.366 . S
C2301 C2303 1.388 . S
C2302 C2301 1.366 . S
C2302 C2306 1.385 . S
C2303 H2278 0.951 . S
C2303 C2301 1.388 . S
C2303 C2304 1.366 . S
C2304 C2303 1.366 . S
C2304 C2305 1.414 . S
C2304 C2307 1.499 . S
C2305 H2279 0.950 . S
C2305 C2304 1.414 . S
C2305 C2306 1.374 . S
C2306 H2280 0.950 . S
C2306 C2302 1.385 . S
C2306 C2305 1.374 . S
C2307 C2304 1.499 . S
C2307 C2308 1.373 . S
C2307 C2309 1.389 . S
C2308 H2281 0.950 . S
C2308 C2294 1.377 . S
C2308 C2307 1.373 . S
C2309 C2293 1.377 . S
C2309 C2307 1.389 . S
C2309 C2310 1.524 . S
C2310 C2309 1.524 . S
C2310 C2311 1.397 . S
C2310 C2315 1.363 . S
C2311 H2282 0.950 . S
C2311 C2310 1.397 . S
C2311 C2312 1.334 . S
C2312 H2283 0.950 . S
C2312 C2311 1.334 . S
C2312 C2313 1.287 . S
C2313 C2312 1.287 . S
C2313 C2314 1.524 . S
C2313 H2316 0.999 . S
C2314 H2284 0.950 . S
C2314 C2313 1.524 . S
C2314 C2315 1.415 . S
C2315 H2285 0.950 . S
C2315 C2310 1.363 . S
C2315 C2314 1.415 . S
H2316 C2313 0.999 . S
H2317 C2298 0.913 . S
H2318 C2336 0.951 . S
H2319 C2338 0.951 . S
H2320 C2340 0.950 . S
H2321 C2341 0.950 . S
H2322 C2343 0.950 . S
H2323 C2346 0.950 . S
H2324 C2347 0.950 . S
H2325 C2349 0.950 . S
H2326 C2350 0.950 . S
H2327 C2351 0.951 . S
H2328 C2353 0.951 . S
H2329 C2355 0.950 . S
H2330 C2356 0.950 . S
H2331 C2358 0.950 . S
H2332 C2361 0.950 . S
H2333 C2362 0.950 . S
H2334 C2364 0.950 . S
H2335 C2365 0.950 . S
C2336 H2318 0.951 . S
C2336 C2337 1.366 . S
C2336 C2338 1.388 . S
C2337 C2336 1.366 . S
C2337 C2341 1.385 . S
C2338 H2319 0.951 . S
C2338 C2336 1.388 . S
C2338 C2339 1.366 . S
C2339 C2338 1.366 . S
C2339 C2340 1.414 . S
C2339 C2342 1.499 . S
C2340 H2320 0.950 . S
C2340 C2339 1.414 . S
C2340 C2341 1.374 . S
C2341 H2321 0.950 . S
C2341 C2337 1.385 . S
C2341 C2340 1.374 . S
C2342 C2339 1.499 . S
C2342 C2343 1.373 . S
C2342 C2344 1.389 . S
C2343 H2322 0.950 . S
C2343 C2342 1.373 . S
C2343 C2359 1.377 . S
C2344 C2342 1.389 . S
C2344 C2345 1.524 . S
C2344 C2358 1.377 . S
C2345 C2344 1.524 . S
C2345 C2346 1.397 . S
C2345 C2350 1.363 . S
C2346 H2323 0.950 . S
C2346 C2345 1.397 . S
C2346 C2347 1.334 . S
C2347 H2324 0.950 . S
C2347 C2346 1.334 . S
C2347 C2348 1.287 . S
C2348 C2347 1.287 . S
C2348 C2349 1.524 . S
C2348 H2367 0.913 . S
C2349 H2325 0.950 . S
C2349 C2348 1.524 . S
C2349 C2350 1.415 . S
C2350 H2326 0.950 . S
C2350 C2345 1.363 . S
C2350 C2349 1.415 . S
C2351 H2327 0.951 . S
C2351 C2352 1.366 . S
C2351 C2353 1.388 . S
C2352 C2351 1.366 . S
C2352 C2356 1.385 . S
C2353 H2328 0.951 . S
C2353 C2351 1.388 . S
C2353 C2354 1.366 . S
C2354 C2353 1.366 . S
C2354 C2355 1.414 . S
C2354 C2357 1.499 . S
C2355 H2329 0.950 . S
C2355 C2354 1.414 . S
C2355 C2356 1.374 . S
C2356 H2330 0.950 . S
C2356 C2352 1.385 . S
C2356 C2355 1.374 . S
C2357 C2354 1.499 . S
C2357 C2358 1.373 . S
C2357 C2359 1.389 . S
C2358 H2331 0.950 . S
C2358 C2344 1.377 . S
C2358 C2357 1.373 . S
C2359 C2343 1.377 . S
C2359 C2357 1.389 . S
C2359 C2360 1.524 . S
C2360 C2359 1.524 . S
C2360 C2361 1.397 . S
C2360 C2365 1.363 . S
C2361 H2332 0.950 . S
C2361 C2360 1.397 . S
C2361 C2362 1.334 . S
C2362 H2333 0.950 . S
C2362 C2361 1.334 . S
C2362 C2363 1.287 . S
C2363 C2362 1.287 . S
C2363 C2364 1.524 . S
C2363 H2366 0.999 . S
C2364 H2334 0.950 . S
C2364 C2363 1.524 . S
C2364 C2365 1.415 . S
C2365 H2335 0.950 . S
C2365 C2360 1.363 . S
C2365 C2364 1.415 . S
H2366 C2363 0.999 . S
H2367 C2348 0.913 . S
H2368 C2386 0.951 . S
H2369 C2388 0.951 . S
H2370 C2390 0.950 . S
H2371 C2391 0.950 . S
H2372 C2393 0.950 . S
H2373 C2396 0.950 . S
H2374 C2397 0.950 . S
H2375 C2399 0.950 . S
H2376 C2400 0.950 . S
H2377 C2401 0.951 . S
H2378 C2403 0.951 . S
H2379 C2405 0.950 . S
H2380 C2406 0.950 . S
H2381 C2408 0.950 . S
H2382 C2411 0.950 . S
H2383 C2412 0.950 . S
H2384 C2414 0.950 . S
H2385 C2415 0.950 . S
C2386 H2368 0.951 . S
C2386 C2387 1.366 . S
C2386 C2388 1.388 . S
C2387 C2386 1.366 . S
C2387 C2391 1.385 . S
C2388 H2369 0.951 . S
C2388 C2386 1.388 . S
C2388 C2389 1.366 . S
C2389 C2388 1.366 . S
C2389 C2390 1.414 . S
C2389 C2392 1.499 . S
C2390 H2370 0.950 . S
C2390 C2389 1.414 . S
C2390 C2391 1.374 . S
C2391 H2371 0.950 . S
C2391 C2387 1.385 . S
C2391 C2390 1.374 . S
C2392 C2389 1.499 . S
C2392 C2393 1.373 . S
C2392 C2394 1.389 . S
C2393 H2372 0.950 . S
C2393 C2392 1.373 . S
C2393 C2409 1.377 . S
C2394 C2392 1.389 . S
C2394 C2395 1.524 . S
C2394 C2408 1.377 . S
C2395 C2394 1.524 . S
C2395 C2396 1.397 . S
C2395 C2400 1.363 . S
C2396 H2373 0.950 . S
C2396 C2395 1.397 . S
C2396 C2397 1.334 . S
C2397 H2374 0.950 . S
C2397 C2396 1.334 . S
C2397 C2398 1.287 . S
C2398 C2397 1.287 . S
C2398 C2399 1.524 . S
C2398 H2417 0.913 . S
C2399 H2375 0.950 . S
C2399 C2398 1.524 . S
C2399 C2400 1.415 . S
C2400 H2376 0.950 . S
C2400 C2395 1.363 . S
C2400 C2399 1.415 . S
C2401 H2377 0.951 . S
C2401 C2402 1.366 . S
C2401 C2403 1.388 . S
C2402 C2401 1.366 . S
C2402 C2406 1.385 . S
C2403 H2378 0.951 . S
C2403 C2401 1.388 . S
C2403 C2404 1.366 . S
C2404 C2403 1.366 . S
C2404 C2405 1.414 . S
C2404 C2407 1.499 . S
C2405 H2379 0.950 . S
C2405 C2404 1.414 . S
C2405 C2406 1.374 . S
C2406 H2380 0.950 . S
C2406 C2402 1.385 . S
C2406 C2405 1.374 . S
C2407 C2404 1.499 . S
C2407 C2408 1.373 . S
C2407 C2409 1.389 . S
C2408 H2381 0.950 . S
C2408 C2394 1.377 . S
C2408 C2407 1.373 . S
C2409 C2393 1.377 . S
C2409 C2407 1.389 . S
C2409 C2410 1.524 . S
C2410 C2409 1.524 . S
C2410 C2411 1.397 . S
C2410 C2415 1.363 . S
C2411 H2382 0.950 . S
C2411 C2410 1.397 . S
C2411 C2412 1.334 . S
C2412 H2383 0.950 . S
C2412 C2411 1.334 . S
C2412 C2413 1.287 . S
C2413 C2412 1.287 . S
C2413 C2414 1.524 . S
C2413 H2416 0.999 . S
C2414 H2384 0.950 . S
C2414 C2413 1.524 . S
C2414 C2415 1.415 . S
C2415 H2385 0.950 . S
C2415 C2410 1.363 . S
C2415 C2414 1.415 . S
H2416 C2413 0.999 . S
H2417 C2398 0.913 . S
H2418 C2436 0.951 . S
H2419 C2438 0.951 . S
H2420 C2440 0.950 . S
H2421 C2441 0.950 . S
H2422 C2443 0.950 . S
H2423 C2446 0.950 . S
H2424 C2447 0.950 . S
H2425 C2449 0.950 . S
H2426 C2450 0.950 . S
H2427 C2451 0.951 . S
H2428 C2453 0.951 . S
H2429 C2455 0.950 . S
H2430 C2456 0.950 . S
H2431 C2458 0.950 . S
H2432 C2461 0.950 . S
H2433 C2462 0.950 . S
H2434 C2464 0.950 . S
H2435 C2465 0.950 . S
C2436 H2418 0.951 . S
C2436 C2437 1.366 . S
C2436 C2438 1.388 . S
C2437 C2436 1.366 . S
C2437 C2441 1.385 . S
C2438 H2419 0.951 . S
C2438 C2436 1.388 . S
C2438 C2439 1.366 . S
C2439 C2438 1.366 . S
C2439 C2440 1.414 . S
C2439 C2442 1.499 . S
C2440 H2420 0.950 . S
C2440 C2439 1.414 . S
C2440 C2441 1.374 . S
C2441 H2421 0.950 . S
C2441 C2437 1.385 . S
C2441 C2440 1.374 . S
C2442 C2439 1.499 . S
C2442 C2443 1.373 . S
C2442 C2444 1.389 . S
C2443 H2422 0.950 . S
C2443 C2442 1.373 . S
C2443 C2459 1.377 . S
C2444 C2442 1.389 . S
C2444 C2445 1.524 . S
C2444 C2458 1.377 . S
C2445 C2444 1.524 . S
C2445 C2446 1.397 . S
C2445 C2450 1.363 . S
C2446 H2423 0.950 . S
C2446 C2445 1.397 . S
C2446 C2447 1.334 . S
C2447 H2424 0.950 . S
C2447 C2446 1.334 . S
C2447 C2448 1.287 . S
C2448 C2447 1.287 . S
C2448 C2449 1.524 . S
C2448 H2467 0.913 . S
C2449 H2425 0.950 . S
C2449 C2448 1.524 . S
C2449 C2450 1.415 . S
C2450 H2426 0.950 . S
C2450 C2445 1.363 . S
C2450 C2449 1.415 . S
C2451 H2427 0.951 . S
C2451 C2452 1.366 . S
C2451 C2453 1.388 . S
C2452 C2451 1.366 . S
C2452 C2456 1.385 . S
C2453 H2428 0.951 . S
C2453 C2451 1.388 . S
C2453 C2454 1.366 . S
C2454 C2453 1.366 . S
C2454 C2455 1.414 . S
C2454 C2457 1.499 . S
C2455 H2429 0.950 . S
C2455 C2454 1.414 . S
C2455 C2456 1.374 . S
C2456 H2430 0.950 . S
C2456 C2452 1.385 . S
C2456 C2455 1.374 . S
C2457 C2454 1.499 . S
C2457 C2458 1.373 . S
C2457 C2459 1.389 . S
C2458 H2431 0.950 . S
C2458 C2444 1.377 . S
C2458 C2457 1.373 . S
C2459 C2443 1.377 . S
C2459 C2457 1.389 . S
C2459 C2460 1.524 . S
C2460 C2459 1.524 . S
C2460 C2461 1.397 . S
C2460 C2465 1.363 . S
C2461 H2432 0.950 . S
C2461 C2460 1.397 . S
C2461 C2462 1.334 . S
C2462 H2433 0.950 . S
C2462 C2461 1.334 . S
C2462 C2463 1.287 . S
C2463 C2462 1.287 . S
C2463 C2464 1.524 . S
C2463 H2466 0.999 . S
C2464 H2434 0.950 . S
C2464 C2463 1.524 . S
C2464 C2465 1.415 . S
C2465 H2435 0.950 . S
C2465 C2460 1.363 . S
C2465 C2464 1.415 . S
H2466 C2463 0.999 . S
H2467 C2448 0.913 . S
H2468 C2486 0.951 . S
H2469 C2488 0.951 . S
H2470 C2490 0.950 . S
H2471 C2491 0.950 . S
H2472 C2493 0.950 . S
H2473 C2496 0.950 . S
H2474 C2497 0.950 . S
H2475 C2499 0.950 . S
H2476 C2500 0.950 . S
H2477 C2501 0.951 . S
H2478 C2503 0.951 . S
H2479 C2505 0.950 . S
H2480 C2506 0.950 . S
H2481 C2508 0.950 . S
H2482 C2511 0.950 . S
H2483 C2512 0.950 . S
H2484 C2514 0.950 . S
H2485 C2515 0.950 . S
C2486 H2468 0.951 . S
C2486 C2487 1.366 . S
C2486 C2488 1.388 . S
C2487 C2486 1.366 . S
C2487 C2491 1.385 . S
C2488 H2469 0.951 . S
C2488 C2486 1.388 . S
C2488 C2489 1.366 . S
C2489 C2488 1.366 . S
C2489 C2490 1.414 . S
C2489 C2492 1.499 . S
C2490 H2470 0.950 . S
C2490 C2489 1.414 . S
C2490 C2491 1.374 . S
C2491 H2471 0.950 . S
C2491 C2487 1.385 . S
C2491 C2490 1.374 . S
C2492 C2489 1.499 . S
C2492 C2493 1.373 . S
C2492 C2494 1.389 . S
C2493 H2472 0.950 . S
C2493 C2492 1.373 . S
C2493 C2509 1.377 . S
C2494 C2492 1.389 . S
C2494 C2495 1.524 . S
C2494 C2508 1.377 . S
C2495 C2494 1.524 . S
C2495 C2496 1.397 . S
C2495 C2500 1.363 . S
C2496 H2473 0.950 . S
C2496 C2495 1.397 . S
C2496 C2497 1.334 . S
C2497 H2474 0.950 . S
C2497 C2496 1.334 . S
C2497 C2498 1.287 . S
C2498 C2497 1.287 . S
C2498 C2499 1.524 . S
C2498 H2517 0.913 . S
C2499 H2475 0.950 . S
C2499 C2498 1.524 . S
C2499 C2500 1.415 . S
C2500 H2476 0.950 . S
C2500 C2495 1.363 . S
C2500 C2499 1.415 . S
C2501 H2477 0.951 . S
C2501 C2502 1.366 . S
C2501 C2503 1.388 . S
C2502 C2501 1.366 . S
C2502 C2506 1.385 . S
C2503 H2478 0.951 . S
C2503 C2501 1.388 . S
C2503 C2504 1.366 . S
C2504 C2503 1.366 . S
C2504 C2505 1.414 . S
C2504 C2507 1.499 . S
C2505 H2479 0.950 . S
C2505 C2504 1.414 . S
C2505 C2506 1.374 . S
C2506 H2480 0.950 . S
C2506 C2502 1.385 . S
C2506 C2505 1.374 . S
C2507 C2504 1.499 . S
C2507 C2508 1.373 . S
C2507 C2509 1.389 . S
C2508 H2481 0.950 . S
C2508 C2494 1.377 . S
C2508 C2507 1.373 . S
C2509 C2493 1.377 . S
C2509 C2507 1.389 . S
C2509 C2510 1.524 . S
C2510 C2509 1.524 . S
C2510 C2511 1.397 . S
C2510 C2515 1.363 . S
C2511 H2482 0.950 . S
C2511 C2510 1.397 . S
C2511 C2512 1.334 . S
C2512 H2483 0.950 . S
C2512 C2511 1.334 . S
C2512 C2513 1.287 . S
C2513 C2512 1.287 . S
C2513 C2514 1.524 . S
C2513 H2516 0.999 . S
C2514 H2484 0.950 . S
C2514 C2513 1.524 . S
C2514 C2515 1.415 . S
C2515 H2485 0.950 . S
C2515 C2510 1.363 . S
C2515 C2514 1.415 . S
H2516 C2513 0.999 . S
H2517 C2498 0.913 . S
H2518 C2536 0.951 . S
H2519 C2538 0.951 . S
H2520 C2540 0.950 . S
H2521 C2541 0.950 . S
H2522 C2543 0.950 . S
H2523 C2546 0.950 . S
H2524 C2547 0.950 . S
H2525 C2549 0.950 . S
H2526 C2550 0.950 . S
H2527 C2551 0.951 . S
H2528 C2553 0.951 . S
H2529 C2555 0.950 . S
H2530 C2556 0.950 . S
H2531 C2558 0.950 . S
H2532 C2561 0.950 . S
H2533 C2562 0.950 . S
H2534 C2564 0.950 . S
H2535 C2565 0.950 . S
C2536 H2518 0.951 . S
C2536 C2537 1.366 . S
C2536 C2538 1.388 . S
C2537 C2536 1.366 . S
C2537 C2541 1.385 . S
C2538 H2519 0.951 . S
C2538 C2536 1.388 . S
C2538 C2539 1.366 . S
C2539 C2538 1.366 . S
C2539 C2540 1.414 . S
C2539 C2542 1.499 . S
C2540 H2520 0.950 . S
C2540 C2539 1.414 . S
C2540 C2541 1.374 . S
C2541 H2521 0.950 . S
C2541 C2537 1.385 . S
C2541 C2540 1.374 . S
C2542 C2539 1.499 . S
C2542 C2543 1.373 . S
C2542 C2544 1.389 . S
C2543 H2522 0.950 . S
C2543 C2542 1.373 . S
C2543 C2559 1.377 . S
C2544 C2542 1.389 . S
C2544 C2545 1.524 . S
C2544 C2558 1.377 . S
C2545 C2544 1.524 . S
C2545 C2546 1.397 . S
C2545 C2550 1.363 . S
C2546 H2523 0.950 . S
C2546 C2545 1.397 . S
C2546 C2547 1.334 . S
C2547 H2524 0.950 . S
C2547 C2546 1.334 . S
C2547 C2548 1.287 . S
C2548 C2547 1.287 . S
C2548 C2549 1.524 . S
C2548 H2567 0.913 . S
C2549 H2525 0.950 . S
C2549 C2548 1.524 . S
C2549 C2550 1.415 . S
C2550 H2526 0.950 . S
C2550 C2545 1.363 . S
C2550 C2549 1.415 . S
C2551 H2527 0.951 . S
C2551 C2552 1.366 . S
C2551 C2553 1.388 . S
C2552 C2551 1.366 . S
C2552 C2556 1.385 . S
C2553 H2528 0.951 . S
C2553 C2551 1.388 . S
C2553 C2554 1.366 . S
C2554 C2553 1.366 . S
C2554 C2555 1.414 . S
C2554 C2557 1.499 . S
C2555 H2529 0.950 . S
C2555 C2554 1.414 . S
C2555 C2556 1.374 . S
C2556 H2530 0.950 . S
C2556 C2552 1.385 . S
C2556 C2555 1.374 . S
C2557 C2554 1.499 . S
C2557 C2558 1.373 . S
C2557 C2559 1.389 . S
C2558 H2531 0.950 . S
C2558 C2544 1.377 . S
C2558 C2557 1.373 . S
C2559 C2543 1.377 . S
C2559 C2557 1.389 . S
C2559 C2560 1.524 . S
C2560 C2559 1.524 . S
C2560 C2561 1.397 . S
C2560 C2565 1.363 . S
C2561 H2532 0.950 . S
C2561 C2560 1.397 . S
C2561 C2562 1.334 . S
C2562 H2533 0.950 . S
C2562 C2561 1.334 . S
C2562 C2563 1.287 . S
C2563 C2562 1.287 . S
C2563 C2564 1.524 . S
C2563 H2566 0.999 . S
C2564 H2534 0.950 . S
C2564 C2563 1.524 . S
C2564 C2565 1.415 . S
C2565 H2535 0.950 . S
C2565 C2560 1.363 . S
C2565 C2564 1.415 . S
H2566 C2563 0.999 . S
H2567 C2548 0.913 . S
H2568 C2586 0.951 . S
H2569 C2588 0.951 . S
H2570 C2590 0.950 . S
H2571 C2591 0.950 . S
H2572 C2593 0.950 . S
H2573 C2596 0.950 . S
H2574 C2597 0.950 . S
H2575 C2599 0.950 . S
H2576 C2600 0.950 . S
H2577 C2601 0.951 . S
H2578 C2603 0.951 . S
H2579 C2605 0.950 . S
H2580 C2606 0.950 . S
H2581 C2608 0.950 . S
H2582 C2611 0.950 . S
H2583 C2612 0.950 . S
H2584 C2614 0.950 . S
H2585 C2615 0.950 . S
C2586 H2568 0.951 . S
C2586 C2587 1.366 . S
C2586 C2588 1.388 . S
C2587 C2586 1.366 . S
C2587 C2591 1.385 . S
C2588 H2569 0.951 . S
C2588 C2586 1.388 . S
C2588 C2589 1.366 . S
C2589 C2588 1.366 . S
C2589 C2590 1.414 . S
C2589 C2592 1.499 . S
C2590 H2570 0.950 . S
C2590 C2589 1.414 . S
C2590 C2591 1.374 . S
C2591 H2571 0.950 . S
C2591 C2587 1.385 . S
C2591 C2590 1.374 . S
C2592 C2589 1.499 . S
C2592 C2593 1.373 . S
C2592 C2594 1.389 . S
C2593 H2572 0.950 . S
C2593 C2592 1.373 . S
C2593 C2609 1.377 . S
C2594 C2592 1.389 . S
C2594 C2595 1.524 . S
C2594 C2608 1.377 . S
C2595 C2594 1.524 . S
C2595 C2596 1.397 . S
C2595 C2600 1.363 . S
C2596 H2573 0.950 . S
C2596 C2595 1.397 . S
C2596 C2597 1.334 . S
C2597 H2574 0.950 . S
C2597 C2596 1.334 . S
C2597 C2598 1.287 . S
C2598 C2597 1.287 . S
C2598 C2599 1.524 . S
C2598 H2617 0.913 . S
C2599 H2575 0.950 . S
C2599 C2598 1.524 . S
C2599 C2600 1.415 . S
C2600 H2576 0.950 . S
C2600 C2595 1.363 . S
C2600 C2599 1.415 . S
C2601 H2577 0.951 . S
C2601 C2602 1.366 . S
C2601 C2603 1.388 . S
C2602 C2601 1.366 . S
C2602 C2606 1.385 . S
C2603 H2578 0.951 . S
C2603 C2601 1.388 . S
C2603 C2604 1.366 . S
C2604 C2603 1.366 . S
C2604 C2605 1.414 . S
C2604 C2607 1.499 . S
C2605 H2579 0.950 . S
C2605 C2604 1.414 . S
C2605 C2606 1.374 . S
C2606 H2580 0.950 . S
C2606 C2602 1.385 . S
C2606 C2605 1.374 . S
C2607 C2604 1.499 . S
C2607 C2608 1.373 . S
C2607 C2609 1.389 . S
C2608 H2581 0.950 . S
C2608 C2594 1.377 . S
C2608 C2607 1.373 . S
C2609 C2593 1.377 . S
C2609 C2607 1.389 . S
C2609 C2610 1.524 . S
C2610 C2609 1.524 . S
C2610 C2611 1.397 . S
C2610 C2615 1.363 . S
C2611 H2582 0.950 . S
C2611 C2610 1.397 . S
C2611 C2612 1.334 . S
C2612 H2583 0.950 . S
C2612 C2611 1.334 . S
C2612 C2613 1.287 . S
C2613 C2612 1.287 . S
C2613 C2614 1.524 . S
C2613 H2616 0.999 . S
C2614 H2584 0.950 . S
C2614 C2613 1.524 . S
C2614 C2615 1.415 . S
C2615 H2585 0.950 . S
C2615 C2610 1.363 . S
C2615 C2614 1.415 . S
H2616 C2613 0.999 . S
H2617 C2598 0.913 . S
H2618 C2636 0.951 . S
H2619 C2638 0.951 . S
H2620 C2640 0.950 . S
H2621 C2641 0.950 . S
H2622 C2643 0.950 . S
H2623 C2646 0.950 . S
H2624 C2647 0.950 . S
H2625 C2649 0.950 . S
H2626 C2650 0.950 . S
H2627 C2651 0.951 . S
H2628 C2653 0.951 . S
H2629 C2655 0.950 . S
H2630 C2656 0.950 . S
H2631 C2658 0.950 . S
H2632 C2661 0.950 . S
H2633 C2662 0.950 . S
H2634 C2664 0.950 . S
H2635 C2665 0.950 . S
C2636 H2618 0.951 . S
C2636 C2637 1.366 . S
C2636 C2638 1.388 . S
C2637 C2636 1.366 . S
C2637 C2641 1.385 . S
C2638 H2619 0.951 . S
C2638 C2636 1.388 . S
C2638 C2639 1.366 . S
C2639 C2638 1.366 . S
C2639 C2640 1.414 . S
C2639 C2642 1.499 . S
C2640 H2620 0.950 . S
C2640 C2639 1.414 . S
C2640 C2641 1.374 . S
C2641 H2621 0.950 . S
C2641 C2637 1.385 . S
C2641 C2640 1.374 . S
C2642 C2639 1.499 . S
C2642 C2643 1.373 . S
C2642 C2644 1.389 . S
C2643 H2622 0.950 . S
C2643 C2642 1.373 . S
C2643 C2659 1.377 . S
C2644 C2642 1.389 . S
C2644 C2645 1.524 . S
C2644 C2658 1.377 . S
C2645 C2644 1.524 . S
C2645 C2646 1.397 . S
C2645 C2650 1.363 . S
C2646 H2623 0.950 . S
C2646 C2645 1.397 . S
C2646 C2647 1.334 . S
C2647 H2624 0.950 . S
C2647 C2646 1.334 . S
C2647 C2648 1.287 . S
C2648 C2647 1.287 . S
C2648 C2649 1.524 . S
C2648 H2667 0.913 . S
C2649 H2625 0.950 . S
C2649 C2648 1.524 . S
C2649 C2650 1.415 . S
C2650 H2626 0.950 . S
C2650 C2645 1.363 . S
C2650 C2649 1.415 . S
C2651 H2627 0.951 . S
C2651 C2652 1.366 . S
C2651 C2653 1.388 . S
C2652 C2651 1.366 . S
C2652 C2656 1.385 . S
C2653 H2628 0.951 . S
C2653 C2651 1.388 . S
C2653 C2654 1.366 . S
C2654 C2653 1.366 . S
C2654 C2655 1.414 . S
C2654 C2657 1.499 . S
C2655 H2629 0.950 . S
C2655 C2654 1.414 . S
C2655 C2656 1.374 . S
C2656 H2630 0.950 . S
C2656 C2652 1.385 . S
C2656 C2655 1.374 . S
C2657 C2654 1.499 . S
C2657 C2658 1.373 . S
C2657 C2659 1.389 . S
C2658 H2631 0.950 . S
C2658 C2644 1.377 . S
C2658 C2657 1.373 . S
C2659 C2643 1.377 . S
C2659 C2657 1.389 . S
C2659 C2660 1.524 . S
C2660 C2659 1.524 . S
C2660 C2661 1.397 . S
C2660 C2665 1.363 . S
C2661 H2632 0.950 . S
C2661 C2660 1.397 . S
C2661 C2662 1.334 . S
C2662 H2633 0.950 . S
C2662 C2661 1.334 . S
C2662 C2663 1.287 . S
C2663 C2662 1.287 . S
C2663 C2664 1.524 . S
C2663 H2666 0.999 . S
C2664 H2634 0.950 . S
C2664 C2663 1.524 . S
C2664 C2665 1.415 . S
C2665 H2635 0.950 . S
C2665 C2660 1.363 . S
C2665 C2664 1.415 . S
H2666 C2663 0.999 . S
H2667 C2648 0.913 . S
H2668 C2686 0.951 . S
H2669 C2688 0.951 . S
H2670 C2690 0.950 . S
H2671 C2691 0.950 . S
H2672 C2693 0.950 . S
H2673 C2696 0.950 . S
H2674 C2697 0.950 . S
H2675 C2699 0.950 . S
H2676 C2700 0.950 . S
H2677 C2701 0.951 . S
H2678 C2703 0.951 . S
H2679 C2705 0.950 . S
H2680 C2706 0.950 . S
H2681 C2708 0.950 . S
H2682 C2711 0.950 . S
H2683 C2712 0.950 . S
H2684 C2714 0.950 . S
H2685 C2715 0.950 . S
C2686 H2668 0.951 . S
C2686 C2687 1.366 . S
C2686 C2688 1.388 . S
C2687 C2686 1.366 . S
C2687 C2691 1.385 . S
C2688 H2669 0.951 . S
C2688 C2686 1.388 . S
C2688 C2689 1.366 . S
C2689 C2688 1.366 . S
C2689 C2690 1.414 . S
C2689 C2692 1.499 . S
C2690 H2670 0.950 . S
C2690 C2689 1.414 . S
C2690 C2691 1.374 . S
C2691 H2671 0.950 . S
C2691 C2687 1.385 . S
C2691 C2690 1.374 . S
C2692 C2689 1.499 . S
C2692 C2693 1.373 . S
C2692 C2694 1.389 . S
C2693 H2672 0.950 . S
C2693 C2692 1.373 . S
C2693 C2709 1.377 . S
C2694 C2692 1.389 . S
C2694 C2695 1.524 . S
C2694 C2708 1.377 . S
C2695 C2694 1.524 . S
C2695 C2696 1.397 . S
C2695 C2700 1.363 . S
C2696 H2673 0.950 . S
C2696 C2695 1.397 . S
C2696 C2697 1.334 . S
C2697 H2674 0.950 . S
C2697 C2696 1.334 . S
C2697 C2698 1.287 . S
C2698 C2697 1.287 . S
C2698 C2699 1.524 . S
C2698 H2717 0.913 . S
C2699 H2675 0.950 . S
C2699 C2698 1.524 . S
C2699 C2700 1.415 . S
C2700 H2676 0.950 . S
C2700 C2695 1.363 . S
C2700 C2699 1.415 . S
C2701 H2677 0.951 . S
C2701 C2702 1.366 . S
C2701 C2703 1.388 . S
C2702 C2701 1.366 . S
C2702 C2706 1.385 . S
C2703 H2678 0.951 . S
C2703 C2701 1.388 . S
C2703 C2704 1.366 . S
C2704 C2703 1.366 . S
C2704 C2705 1.414 . S
C2704 C2707 1.499 . S
C2705 H2679 0.950 . S
C2705 C2704 1.414 . S
C2705 C2706 1.374 . S
C2706 H2680 0.950 . S
C2706 C2702 1.385 . S
C2706 C2705 1.374 . S
C2707 C2704 1.499 . S
C2707 C2708 1.373 . S
C2707 C2709 1.389 . S
C2708 H2681 0.950 . S
C2708 C2694 1.377 . S
C2708 C2707 1.373 . S
C2709 C2693 1.377 . S
C2709 C2707 1.389 . S
C2709 C2710 1.524 . S
C2710 C2709 1.524 . S
C2710 C2711 1.397 . S
C2710 C2715 1.363 . S
C2711 H2682 0.950 . S
C2711 C2710 1.397 . S
C2711 C2712 1.334 . S
C2712 H2683 0.950 . S
C2712 C2711 1.334 . S
C2712 C2713 1.287 . S
C2713 C2712 1.287 . S
C2713 C2714 1.524 . S
C2713 H2716 0.999 . S
C2714 H2684 0.950 . S
C2714 C2713 1.524 . S
C2714 C2715 1.415 . S
C2715 H2685 0.950 . S
C2715 C2710 1.363 . S
C2715 C2714 1.415 . S
H2716 C2713 0.999 . S
H2717 C2698 0.913 . S
H2718 C2736 0.951 . S
H2719 C2738 0.951 . S
H2720 C2740 0.950 . S
H2721 C2741 0.950 . S
H2722 C2743 0.950 . S
H2723 C2746 0.950 . S
H2724 C2747 0.950 . S
H2725 C2749 0.950 . S
H2726 C2750 0.950 . S
H2727 C2751 0.951 . S
H2728 C2753 0.951 . S
H2729 C2755 0.950 . S
H2730 C2756 0.950 . S
H2731 C2758 0.950 . S
H2732 C2761 0.950 . S
H2733 C2762 0.950 . S
H2734 C2764 0.950 . S
H2735 C2765 0.950 . S
C2736 H2718 0.951 . S
C2736 C2737 1.366 . S
C2736 C2738 1.388 . S
C2737 C2736 1.366 . S
C2737 C2741 1.385 . S
C2738 H2719 0.951 . S
C2738 C2736 1.388 . S
C2738 C2739 1.366 . S
C2739 C2738 1.366 . S
C2739 C2740 1.414 . S
C2739 C2742 1.499 . S
C2740 H2720 0.950 . S
C2740 C2739 1.414 . S
C2740 C2741 1.374 . S
C2741 H2721 0.950 . S
C2741 C2737 1.385 . S
C2741 C2740 1.374 . S
C2742 C2739 1.499 . S
C2742 C2743 1.373 . S
C2742 C2744 1.389 . S
C2743 H2722 0.950 . S
C2743 C2742 1.373 . S
C2743 C2759 1.377 . S
C2744 C2742 1.389 . S
C2744 C2745 1.524 . S
C2744 C2758 1.377 . S
C2745 C2744 1.524 . S
C2745 C2746 1.397 . S
C2745 C2750 1.363 . S
C2746 H2723 0.950 . S
C2746 C2745 1.397 . S
C2746 C2747 1.334 . S
C2747 H2724 0.950 . S
C2747 C2746 1.334 . S
C2747 C2748 1.287 . S
C2748 C2747 1.287 . S
C2748 C2749 1.524 . S
C2748 H2767 0.913 . S
C2749 H2725 0.950 . S
C2749 C2748 1.524 . S
C2749 C2750 1.415 . S
C2750 H2726 0.950 . S
C2750 C2745 1.363 . S
C2750 C2749 1.415 . S
C2751 H2727 0.951 . S
C2751 C2752 1.366 . S
C2751 C2753 1.388 . S
C2752 C2751 1.366 . S
C2752 C2756 1.385 . S
C2753 H2728 0.951 . S
C2753 C2751 1.388 . S
C2753 C2754 1.366 . S
C2754 C2753 1.366 . S
C2754 C2755 1.414 . S
C2754 C2757 1.499 . S
C2755 H2729 0.950 . S
C2755 C2754 1.414 . S
C2755 C2756 1.374 . S
C2756 H2730 0.950 . S
C2756 C2752 1.385 . S
C2756 C2755 1.374 . S
C2757 C2754 1.499 . S
C2757 C2758 1.373 . S
C2757 C2759 1.389 . S
C2758 H2731 0.950 . S
C2758 C2744 1.377 . S
C2758 C2757 1.373 . S
C2759 C2743 1.377 . S
C2759 C2757 1.389 . S
C2759 C2760 1.524 . S
C2760 C2759 1.524 . S
C2760 C2761 1.397 . S
C2760 C2765 1.363 . S
C2761 H2732 0.950 . S
C2761 C2760 1.397 . S
C2761 C2762 1.334 . S
C2762 H2733 0.950 . S
C2762 C2761 1.334 . S
C2762 C2763 1.287 . S
C2763 C2762 1.287 . S
C2763 C2764 1.524 . S
C2763 H2766 0.999 . S
C2764 H2734 0.950 . S
C2764 C2763 1.524 . S
C2764 C2765 1.415 . S
C2765 H2735 0.950 . S
C2765 C2760 1.363 . S
C2765 C2764 1.415 . S
H2766 C2763 0.999 . S
H2767 C2748 0.913 . S
H2768 C2786 0.951 . S
H2769 C2788 0.951 . S
H2770 C2790 0.950 . S
H2771 C2791 0.950 . S
H2772 C2793 0.950 . S
H2773 C2796 0.950 . S
H2774 C2797 0.950 . S
H2775 C2799 0.950 . S
H2776 C2800 0.950 . S
H2777 C2801 0.951 . S
H2778 C2803 0.951 . S
H2779 C2805 0.950 . S
H2780 C2806 0.950 . S
H2781 C2808 0.950 . S
H2782 C2811 0.950 . S
H2783 C2812 0.950 . S
H2784 C2814 0.950 . S
H2785 C2815 0.950 . S
C2786 H2768 0.951 . S
C2786 C2787 1.366 . S
C2786 C2788 1.388 . S
C2787 C2786 1.366 . S
C2787 C2791 1.385 . S
C2788 H2769 0.951 . S
C2788 C2786 1.388 . S
C2788 C2789 1.366 . S
C2789 C2788 1.366 . S
C2789 C2790 1.414 . S
C2789 C2792 1.499 . S
C2790 H2770 0.950 . S
C2790 C2789 1.414 . S
C2790 C2791 1.374 . S
C2791 H2771 0.950 . S
C2791 C2787 1.385 . S
C2791 C2790 1.374 . S
C2792 C2789 1.499 . S
C2792 C2793 1.373 . S
C2792 C2794 1.389 . S
C2793 H2772 0.950 . S
C2793 C2792 1.373 . S
C2793 C2809 1.377 . S
C2794 C2792 1.389 . S
C2794 C2795 1.524 . S
C2794 C2808 1.377 . S
C2795 C2794 1.524 . S
C2795 C2796 1.397 . S
C2795 C2800 1.363 . S
C2796 H2773 0.950 . S
C2796 C2795 1.397 . S
C2796 C2797 1.334 . S
C2797 H2774 0.950 . S
C2797 C2796 1.334 . S
C2797 C2798 1.287 . S
C2798 C2797 1.287 . S
C2798 C2799 1.524 . S
C2798 H2817 0.913 . S
C2799 H2775 0.950 . S
C2799 C2798 1.524 . S
C2799 C2800 1.415 . S
C2800 H2776 0.950 . S
C2800 C2795 1.363 . S
C2800 C2799 1.415 . S
C2801 H2777 0.951 . S
C2801 C2802 1.366 . S
C2801 C2803 1.388 . S
C2802 C2801 1.366 . S
C2802 C2806 1.385 . S
C2803 H2778 0.951 . S
C2803 C2801 1.388 . S
C2803 C2804 1.366 . S
C2804 C2803 1.366 . S
C2804 C2805 1.414 . S
C2804 C2807 1.499 . S
C2805 H2779 0.950 . S
C2805 C2804 1.414 . S
C2805 C2806 1.374 . S
C2806 H2780 0.950 . S
C2806 C2802 1.385 . S
C2806 C2805 1.374 . S
C2807 C2804 1.499 . S
C2807 C2808 1.373 . S
C2807 C2809 1.389 . S
C2808 H2781 0.950 . S
C2808 C2794 1.377 . S
C2808 C2807 1.373 . S
C2809 C2793 1.377 . S
C2809 C2807 1.389 . S
C2809 C2810 1.524 . S
C2810 C2809 1.524 . S
C2810 C2811 1.397 . S
C2810 C2815 1.363 . S
C2811 H2782 0.950 . S
C2811 C2810 1.397 . S
C2811 C2812 1.334 . S
C2812 H2783 0.950 . S
C2812 C2811 1.334 . S
C2812 C2813 1.287 . S
C2813 C2812 1.287 . S
C2813 C2814 1.524 . S
C2813 H2816 0.999 . S
C2814 H2784 0.950 . S
C2814 C2813 1.524 . S
C2814 C2815 1.415 . S
C2815 H2785 0.950 . S
C2815 C2810 1.363 . S
C2815 C2814 1.415 . S
H2816 C2813 0.999 . S
H2817 C2798 0.913 . S
H2818 C2836 0.951 . S
H2819 C2838 0.951 . S
H2820 C2840 0.950 . S
H2821 C2841 0.950 . S
H2822 C2843 0.950 . S
H2823 C2846 0.950 . S
H2824 C2847 0.950 . S
H2825 C2849 0.950 . S
H2826 C2850 0.950 . S
H2827 C2851 0.951 . S
H2828 C2853 0.951 . S
H2829 C2855 0.950 . S
H2830 C2856 0.950 . S
H2831 C2858 0.950 . S
H2832 C2861 0.950 . S
H2833 C2862 0.950 . S
H2834 C2864 0.950 . S
H2835 C2865 0.950 . S
C2836 H2818 0.951 . S
C2836 C2837 1.366 . S
C2836 C2838 1.388 . S
C2837 C2836 1.366 . S
C2837 C2841 1.385 . S
C2838 H2819 0.951 . S
C2838 C2836 1.388 . S
C2838 C2839 1.366 . S
C2839 C2838 1.366 . S
C2839 C2840 1.414 . S
C2839 C2842 1.499 . S
C2840 H2820 0.950 . S
C2840 C2839 1.414 . S
C2840 C2841 1.374 . S
C2841 H2821 0.950 . S
C2841 C2837 1.385 . S
C2841 C2840 1.374 . S
C2842 C2839 1.499 . S
C2842 C2843 1.373 . S
C2842 C2844 1.389 . S
C2843 H2822 0.950 . S
C2843 C2842 1.373 . S
C2843 C2859 1.377 . S
C2844 C2842 1.389 . S
C2844 C2845 1.524 . S
C2844 C2858 1.377 . S
C2845 C2844 1.524 . S
C2845 C2846 1.397 . S
C2845 C2850 1.363 . S
C2846 H2823 0.950 . S
C2846 C2845 1.397 . S
C2846 C2847 1.334 . S
C2847 H2824 0.950 . S
C2847 C2846 1.334 . S
C2847 C2848 1.287 . S
C2848 C2847 1.287 . S
C2848 C2849 1.524 . S
C2848 H2867 0.913 . S
C2849 H2825 0.950 . S
C2849 C2848 1.524 . S
C2849 C2850 1.415 . S
C2850 H2826 0.950 . S
C2850 C2845 1.363 . S
C2850 C2849 1.415 . S
C2851 H2827 0.951 . S
C2851 C2852 1.366 . S
C2851 C2853 1.388 . S
C2852 C2851 1.366 . S
C2852 C2856 1.385 . S
C2853 H2828 0.951 . S
C2853 C2851 1.388 . S
C2853 C2854 1.366 . S
C2854 C2853 1.366 . S
C2854 C2855 1.414 . S
C2854 C2857 1.499 . S
C2855 H2829 0.950 . S
C2855 C2854 1.414 . S
C2855 C2856 1.374 . S
C2856 H2830 0.950 . S
C2856 C2852 1.385 . S
C2856 C2855 1.374 . S
C2857 C2854 1.499 . S
C2857 C2858 1.373 . S
C2857 C2859 1.389 . S
C2858 H2831 0.950 . S
C2858 C2844 1.377 . S
C2858 C2857 1.373 . S
C2859 C2843 1.377 . S
C2859 C2857 1.389 . S
C2859 C2860 1.524 . S
C2860 C2859 1.524 . S
C2860 C2861 1.397 . S
C2860 C2865 1.363 . S
C2861 H2832 0.950 . S
C2861 C2860 1.397 . S
C2861 C2862 1.334 . S
C2862 H2833 0.950 . S
C2862 C2861 1.334 . S
C2862 C2863 1.287 . S
C2863 C2862 1.287 . S
C2863 C2864 1.524 . S
C2863 H2866 0.999 . S
C2864 H2834 0.950 . S
C2864 C2863 1.524 . S
C2864 C2865 1.415 . S
C2865 H2835 0.950 . S
C2865 C2860 1.363 . S
C2865 C2864 1.415 . S
H2866 C2863 0.999 . S
H2867 C2848 0.913 . S
H2868 C2886 0.951 . S
H2869 C2888 0.951 . S
H2870 C2890 0.950 . S
H2871 C2891 0.950 . S
H2872 C2893 0.950 . S
H2873 C2896 0.950 . S
H2874 C2897 0.950 . S
H2875 C2899 0.950 . S
H2876 C2900 0.950 . S
H2877 C2901 0.951 . S
H2878 C2903 0.951 . S
H2879 C2905 0.950 . S
H2880 C2906 0.950 . S
H2881 C2908 0.950 . S
H2882 C2911 0.950 . S
H2883 C2912 0.950 . S
H2884 C2914 0.950 . S
H2885 C2915 0.950 . S
C2886 H2868 0.951 . S
C2886 C2887 1.366 . S
C2886 C2888 1.388 . S
C2887 C2886 1.366 . S
C2887 C2891 1.385 . S
C2888 H2869 0.951 . S
C2888 C2886 1.388 . S
C2888 C2889 1.366 . S
C2889 C2888 1.366 . S
C2889 C2890 1.414 . S
C2889 C2892 1.499 . S
C2890 H2870 0.950 . S
C2890 C2889 1.414 . S
C2890 C2891 1.374 . S
C2891 H2871 0.950 . S
C2891 C2887 1.385 . S
C2891 C2890 1.374 . S
C2892 C2889 1.499 . S
C2892 C2893 1.373 . S
C2892 C2894 1.389 . S
C2893 H2872 0.950 . S
C2893 C2892 1.373 . S
C2893 C2909 1.377 . S
C2894 C2892 1.389 . S
C2894 C2895 1.524 . S
C2894 C2908 1.377 . S
C2895 C2894 1.524 . S
C2895 C2896 1.397 . S
C2895 C2900 1.363 . S
C2896 H2873 0.950 . S
C2896 C2895 1.397 . S
C2896 C2897 1.334 . S
C2897 H2874 0.950 . S
C2897 C2896 1.334 . S
C2897 C2898 1.287 . S
C2898 C2897 1.287 . S
C2898 C2899 1.524 . S
C2898 H2917 0.913 . S
C2899 H2875 0.950 . S
C2899 C2898 1.524 . S
C2899 C2900 1.415 . S
C2900 H2876 0.950 . S
C2900 C2895 1.363 . S
C2900 C2899 1.415 . S
C2901 H2877 0.951 . S
C2901 C2902 1.366 . S
C2901 C2903 1.388 . S
C2902 C2901 1.366 . S
C2902 C2906 1.385 . S
C2903 H2878 0.951 . S
C2903 C2901 1.388 . S
C2903 C2904 1.366 . S
C2904 C2903 1.366 . S
C2904 C2905 1.414 . S
C2904 C2907 1.499 . S
C2905 H2879 0.950 . S
C2905 C2904 1.414 . S
C2905 C2906 1.374 . S
C2906 H2880 0.950 . S
C2906 C2902 1.385 . S
C2906 C2905 1.374 . S
C2907 C2904 1.499 . S
C2907 C2908 1.373 . S
C2907 C2909 1.389 . S
C2908 H2881 0.950 . S
C2908 C2894 1.377 . S
C2908 C2907 1.373 . S
C2909 C2893 1.377 . S
C2909 C2907 1.389 . S
C2909 C2910 1.524 . S
C2910 C2909 1.524 . S
C2910 C2911 1.397 . S
C2910 C2915 1.363 . S
C2911 H2882 0.950 . S
C2911 C2910 1.397 . S
C2911 C2912 1.334 . S
C2912 H2883 0.950 . S
C2912 C2911 1.334 . S
C2912 C2913 1.287 . S
C2913 C2912 1.287 . S
C2913 C2914 1.524 . S
C2913 H2916 0.999 . S
C2914 H2884 0.950 . S
C2914 C2913 1.524 . S
C2914 C2915 1.415 . S
C2915 H2885 0.950 . S
C2915 C2910 1.363 . S
C2915 C2914 1.415 . S
H2916 C2913 0.999 . S
H2917 C2898 0.913 . S
C552 C347 1.575 . S
C537 C3 1.706 . S
C602 C348 1.229 . S
C587 C49 1.260 . S
C652 C342 1.021 . S
C637 C95 1.036 . S
C687 C146 0.345 . S
C702 C341 0.312 . S
C737 C186 1.401 . S
C752 C344 1.347 . S
C802 C346 1.169 . S
C787 C215 1.191 . S
C837 C249 0.470 . S
C852 C345 0.376 . S
C887 C302 1.715 . S
C902 C343 1.583 . S
C952 C378 3.526 . S
C937 C2 3.532 . S
C987 C43 2.135 . S
C1002 C409 2.023 . S
C1052 C377 3.169 . S
C1037 C102 3.275 . S
C1102 C412 1.169 . S
C1087 C135 1.211 . S
C1137 C175 1.523 . S
C1152 C375 1.506 . S
C1202 C407 2.389 . S
C1187 C222 2.401 . S
C1237 C243 1.797 . S
C1252 C380 1.674 . S
C1287 C306 1.555 . S
C1302 C414 1.588 . S
C1337 C9 0.907 . S
C1352 C410 0.911 . S
C1387 C182 1.736 . S
C1402 C413 1.631 . S
C1452 C381 1.475 1_556 S
C1437 C226 1.555 . S
C1502 C408 0.684 . S
C1487 C242 0.687 . S
C1537 C295 2.883 . S
C1552 C374 2.870 . S
C1587 C106 0.887 . S
C1602 C411 0.881 . S
C1652 C376 1.379 . S
C1637 C142 1.443 . S
C1687 C42 1.063 . S
C1702 C379 1.052 . S
C1737 C283 1.742 . S
C1752 C446 1.613 . S
C1787 C169 1.030 . S
C1802 C447 0.989 . S
C1852 C441 1.017 . S
C1837 C202 1.034 . S
C1902 C440 0.447 . S
C1887 C266 0.500 . S
C1937 C66 0.804 . S
C1952 C443 0.795 . S
C2002 C445 1.130 . S
C1987 C82 1.152 . S
C2037 C129 0.563 . S
C2052 C444 0.546 . S
C2087 C22 1.779 . S
C2102 C442 1.652 . S
C2137 C282 3.117 . S
C2152 C480 3.016 . S
C2202 C512 1.414 . S
C2187 C163 1.462 . S
C2237 C209 1.433 . S
C2252 C473 1.424 . S
C2287 C255 1.086 . S
C2302 C507 1.074 . S
C2352 C478 0.742 . S
C2337 C55 0.744 . S
C2387 C89 1.040 . S
C2402 C509 1.006 . S
C2452 C475 1.758 . S
C2437 C123 1.817 . S
C2502 C510 0.871 . S
C2487 C26 0.860 . S
C2552 C506 1.564 . S
C2537 C289 1.509 . S
C2587 C62 1.836 . S
C2602 C508 1.727 . S
C2637 C83 3.139 . S
C2652 C477 3.129 . S
C2702 C511 1.576 . S
C2687 C122 1.595 . S
C2737 C15 3.741 . S
C2752 C476 3.667 . S
C2787 C203 2.564 . S
C2802 C513 2.490 . S
C2852 C479 2.137 . S
C2837 C262 2.199 . S
C2902 C474 1.187 . S
C2887 C162 1.212 . S
