# Generated by pormake.
# Topology ocu, (6,8)-cn, num edge types: 1
# Building blocks:
#     Node 0, Type 0, BuildingBlock: KUMBUR_clean_sbu_1, # of connection points: 6
#     Node 1, Type 0, BuildingBlock: KUMBUR_clean_sbu_1, # of connection points: 6
#     Node 2, Type 0, BuildingBlock: KUMBUR_clean_sbu_1, # of connection points: 6
#     Node 3, Type 0, BuildingBlock: KUMBUR_clean_sbu_1, # of connection points: 6
#     Node 4, Type 0, BuildingBlock: KUMBUR_clean_sbu_1, # of connection points: 6
#     Node 5, Type 0, BuildingBlock: KUMBUR_clean_sbu_1, # of connection points: 6
#     Node 6, Type 0, BuildingBlock: KUMBUR_clean_sbu_1, # of connection points: 6
#     Node 7, Type 0, BuildingBlock: KUMBUR_clean_sbu_1, # of connection points: 6
#     Node 8, Type 1, BuildingBlock: VETTIZ_charged_sbu_0, # of connection points: 8
#     Node 9, Type 1, BuildingBlock: VETTIZ_charged_sbu_0, # of connection points: 8
#     Node 10, Type 1, BuildingBlock: VETTIZ_charged_sbu_0, # of connection points: 8
#     Node 11, Type 1, BuildingBlock: VETTIZ_charged_sbu_0, # of connection points: 8
#     Node 12, Type 1, BuildingBlock: VETTIZ_charged_sbu_0, # of connection points: 8
#     Node 13, Type 1, BuildingBlock: VETTIZ_charged_sbu_0, # of connection points: 8
#     Edge 14, Type (0, 1), BuildingBlock: CIFDUS_clean_linker_0, # of connection points: 2
#     Edge 15, Type (0, 1), BuildingBlock: CIFDUS_clean_linker_0, # of connection points: 2
#     Edge 16, Type (0, 1), BuildingBlock: CIFDUS_clean_linker_0, # of connection points: 2
#     Edge 17, Type (0, 1), BuildingBlock: CIFDUS_clean_linker_0, # of connection points: 2
#     Edge 18, Type (0, 1), BuildingBlock: CIFDUS_clean_linker_0, # of connection points: 2
#     Edge 19, Type (0, 1), BuildingBlock: CIFDUS_clean_linker_0, # of connection points: 2
#     Edge 20, Type (0, 1), BuildingBlock: CIFDUS_clean_linker_0, # of connection points: 2
#     Edge 21, Type (0, 1), BuildingBlock: CIFDUS_clean_linker_0, # of connection points: 2
#     Edge 22, Type (0, 1), BuildingBlock: CIFDUS_clean_linker_0, # of connection points: 2
#     Edge 23, Type (0, 1), BuildingBlock: CIFDUS_clean_linker_0, # of connection points: 2
#     Edge 24, Type (0, 1), BuildingBlock: CIFDUS_clean_linker_0, # of connection points: 2
#     Edge 25, Type (0, 1), BuildingBlock: CIFDUS_clean_linker_0, # of connection points: 2
#     Edge 26, Type (0, 1), BuildingBlock: CIFDUS_clean_linker_0, # of connection points: 2
#     Edge 27, Type (0, 1), BuildingBlock: CIFDUS_clean_linker_0, # of connection points: 2
#     Edge 28, Type (0, 1), BuildingBlock: CIFDUS_clean_linker_0, # of connection points: 2
#     Edge 29, Type (0, 1), BuildingBlock: CIFDUS_clean_linker_0, # of connection points: 2
#     Edge 30, Type (0, 1), BuildingBlock: CIFDUS_clean_linker_0, # of connection points: 2
#     Edge 31, Type (0, 1), BuildingBlock: CIFDUS_clean_linker_0, # of connection points: 2
#     Edge 32, Type (0, 1), BuildingBlock: CIFDUS_clean_linker_0, # of connection points: 2
#     Edge 33, Type (0, 1), BuildingBlock: CIFDUS_clean_linker_0, # of connection points: 2
#     Edge 34, Type (0, 1), BuildingBlock: CIFDUS_clean_linker_0, # of connection points: 2
#     Edge 35, Type (0, 1), BuildingBlock: CIFDUS_clean_linker_0, # of connection points: 2
#     Edge 36, Type (0, 1), BuildingBlock: CIFDUS_clean_linker_0, # of connection points: 2
#     Edge 37, Type (0, 1), BuildingBlock: CIFDUS_clean_linker_0, # of connection points: 2
#     Edge 38, Type (0, 1), BuildingBlock: CIFDUS_clean_linker_0, # of connection points: 2
#     Edge 39, Type (0, 1), BuildingBlock: CIFDUS_clean_linker_0, # of connection points: 2
#     Edge 40, Type (0, 1), BuildingBlock: CIFDUS_clean_linker_0, # of connection points: 2
#     Edge 41, Type (0, 1), BuildingBlock: CIFDUS_clean_linker_0, # of connection points: 2
#     Edge 42, Type (0, 1), BuildingBlock: CIFDUS_clean_linker_0, # of connection points: 2
#     Edge 43, Type (0, 1), BuildingBlock: CIFDUS_clean_linker_0, # of connection points: 2
#     Edge 44, Type (0, 1), BuildingBlock: CIFDUS_clean_linker_0, # of connection points: 2
#     Edge 45, Type (0, 1), BuildingBlock: CIFDUS_clean_linker_0, # of connection points: 2
#     Edge 46, Type (0, 1), BuildingBlock: CIFDUS_clean_linker_0, # of connection points: 2
#     Edge 47, Type (0, 1), BuildingBlock: CIFDUS_clean_linker_0, # of connection points: 2
#     Edge 48, Type (0, 1), BuildingBlock: CIFDUS_clean_linker_0, # of connection points: 2
#     Edge 49, Type (0, 1), BuildingBlock: CIFDUS_clean_linker_0, # of connection points: 2
#     Edge 50, Type (0, 1), BuildingBlock: CIFDUS_clean_linker_0, # of connection points: 2
#     Edge 51, Type (0, 1), BuildingBlock: CIFDUS_clean_linker_0, # of connection points: 2
#     Edge 52, Type (0, 1), BuildingBlock: CIFDUS_clean_linker_0, # of connection points: 2
#     Edge 53, Type (0, 1), BuildingBlock: CIFDUS_clean_linker_0, # of connection points: 2
#     Edge 54, Type (0, 1), BuildingBlock: CIFDUS_clean_linker_0, # of connection points: 2
#     Edge 55, Type (0, 1), BuildingBlock: CIFDUS_clean_linker_0, # of connection points: 2
#     Edge 56, Type (0, 1), BuildingBlock: CIFDUS_clean_linker_0, # of connection points: 2
#     Edge 57, Type (0, 1), BuildingBlock: CIFDUS_clean_linker_0, # of connection points: 2
#     Edge 58, Type (0, 1), BuildingBlock: CIFDUS_clean_linker_0, # of connection points: 2
#     Edge 59, Type (0, 1), BuildingBlock: CIFDUS_clean_linker_0, # of connection points: 2
#     Edge 60, Type (0, 1), BuildingBlock: CIFDUS_clean_linker_0, # of connection points: 2
#     Edge 61, Type (0, 1), BuildingBlock: CIFDUS_clean_linker_0, # of connection points: 2
# Relax obj value: 0.082
# Max RMSD: 0.135
# Mean RMSD: 0.103
data_MOF--net-ocu--node1-KUMBUR_clean_sbu_1--node2-VETTIZ_charged_sbu_0--edge1-CIFDUS_clean_linker_0
_symmetry_space_group_name_H-M    P1
_symmetry_Int_Tables_number       1
_symmetry_cell_setting            triclinic
loop_
_symmetry_equiv_pos_as_xyz
'x, y, z'
_cell_length_a     34.736766
_cell_length_b     35.649149
_cell_length_c     36.659466
_cell_angle_alpha  102.45517
_cell_angle_beta   78.827336
_cell_angle_gamma 105.72305
loop_
_atom_site_label
_atom_site_type_symbol
_atom_site_fract_x
_atom_site_fract_y
_atom_site_fract_z
_atom_type_partial_charge
Tb0 Tb 0.26152 0.27143 0.25599 0.0
C1 C 0.37356 0.38272 0.37076 0.0
N2 N 0.38498 0.36165 0.33668 0.0
C3 C 0.44052 0.41641 0.32381 0.0
C4 C 0.39486 0.42188 0.38248 0.0
C5 C 0.41862 0.37751 0.31358 0.0
C6 C 0.42842 0.43882 0.35827 0.0
C7 C 0.32866 0.38483 0.4304 0.0
C8 C 0.34092 0.36453 0.39441 0.0
C9 C 0.34933 0.42411 0.44198 0.0
C10 C 0.38232 0.44261 0.41806 0.0
Tb11 Tb 0.34565 0.29919 0.32276 0.0
N12 N 0.32102 0.32679 0.38187 0.0
C13 C 0.29618 0.36491 0.45369 0.0
C14 C 0.29055 0.30664 0.40509 0.0
C15 C 0.27731 0.32553 0.4411 0.0
H16 H 0.42918 0.3599 0.28767 0.0
H17 H 0.25257 0.3097 0.45912 0.0
H18 H 0.17344 0.21218 0.28251 0.0
H19 H 0.36693 0.26332 0.12656 0.0
H20 H 0.2759 0.27637 0.39562 0.0
H21 H 0.28579 0.37948 0.48156 0.0
H22 H 0.33794 0.29572 0.18811 0.0
H23 H 0.46698 0.42892 0.30528 0.0
H24 H 0.34025 0.44033 0.46947 0.0
H25 H 0.39821 0.47279 0.42751 0.0
H26 H 0.13487 0.1443 0.26044 0.0
H27 H 0.4456 0.46886 0.3662 0.0
H28 H 0.33429 0.19444 0.1005 0.0
N29 N 0.22164 0.21051 0.2371 0.0
C30 C 0.23553 0.19019 0.20357 0.0
C31 C 0.16334 0.15671 0.24433 0.0
C32 C 0.21423 0.15177 0.18941 0.0
C33 C 0.18552 0.19483 0.25709 0.0
C34 C 0.17793 0.13492 0.21049 0.0
N35 N 0.29076 0.24524 0.19805 0.0
C36 C 0.32382 0.26562 0.17747 0.0
C37 C 0.28615 0.18868 0.14782 0.0
C38 C 0.27094 0.20835 0.18305 0.0
C39 C 0.32152 0.20854 0.12766 0.0
C40 C 0.34011 0.24737 0.14234 0.0
H41 H 0.16063 0.10545 0.20061 0.0
H42 H 0.21381 0.10202 0.14335 0.0
H43 H 0.27684 0.13434 0.10695 0.0
O44 O 0.25943 0.31318 0.22407 0.0
O45 O 0.30403 0.23243 0.24807 0.0
O46 O 0.36465 0.27192 0.26432 0.0
O47 O 0.2054 0.2713 0.24209 0.0
O48 O 0.30522 0.32991 0.26131 0.0
O49 O 0.36461 0.31852 0.26841 0.0
O50 O 0.3552 0.25089 0.34094 0.0
O51 O 0.29789 0.33385 0.3364 0.0
O52 O 0.2388 0.29659 0.31364 0.0
O53 O 0.40156 0.30479 0.34039 0.0
O54 O 0.29986 0.24342 0.32564 0.0
O55 O 0.23979 0.24568 0.30826 0.0
C56 C 0.3437 0.2392 0.24592 0.0
C57 C 0.19816 0.33291 0.23348 0.0
C58 C 0.16828 0.37728 0.21105 0.0
C59 C 0.15486 0.3919 0.24894 0.0
C60 C 0.18474 0.34827 0.27086 0.0
C61 C 0.16325 0.37763 0.27847 0.0
C62 C 0.19021 0.34768 0.20374 0.0
C63 C 0.34489 0.33767 0.25486 0.0
C64 C 0.22042 0.30146 0.22482 0.0
C65 C 0.22962 0.13166 0.15462 0.0
C66 C 0.2655 0.15008 0.13387 0.0
C67 C 0.25818 0.32609 0.33684 0.0
C68 C 0.39974 0.2655 0.38555 0.0
C69 C 0.42396 0.22839 0.4214 0.0
C70 C 0.41383 0.2541 0.45469 0.0
C71 C 0.39018 0.29103 0.41899 0.0
C72 C 0.41683 0.23441 0.38685 0.0
C73 C 0.3972 0.28527 0.45338 0.0
C74 C 0.26035 0.23185 0.32713 0.0
C75 C 0.39099 0.26962 0.34915 0.0
H76 H 0.13718 0.41391 0.25591 0.0
H77 H 0.19065 0.33741 0.2941 0.0
H78 H 0.15269 0.38915 0.30743 0.0
H79 H 0.20142 0.33617 0.17495 0.0
H80 H 0.4193 0.25044 0.48168 0.0
H81 H 0.3773 0.31528 0.41862 0.0
H82 H 0.42391 0.21448 0.36102 0.0
H83 H 0.38972 0.30503 0.47912 0.0
Tb84 Tb 0.74623 0.32283 0.29041 0.0
C85 C 0.85283 0.21149 0.20238 0.0
N86 N 0.8177 0.20188 0.22583 0.0
C87 C 0.79384 0.14571 0.17945 0.0
C88 C 0.85923 0.18969 0.16575 0.0
C89 C 0.78937 0.16795 0.2158 0.0
C90 C 0.82858 0.15711 0.154 0.0
C91 C 0.92219 0.24974 0.19491 0.0
C92 C 0.88378 0.24093 0.21661 0.0
C93 C 0.92811 0.22997 0.15746 0.0
C94 C 0.89663 0.19998 0.14288 0.0
Tb95 Tb 0.81195 0.24338 0.28283 0.0
N96 N 0.87681 0.25909 0.25288 0.0
C97 C 0.95372 0.27691 0.21207 0.0
C98 C 0.9081 0.28303 0.27078 0.0
C99 C 0.94683 0.29299 0.25041 0.0
H100 H 0.76287 0.15831 0.23561 0.0
H101 H 0.97127 0.3131 0.26422 0.0
H102 H 0.76269 0.38256 0.37074 0.0
H103 H 0.60916 0.22103 0.24597 0.0
H104 H 0.9026 0.29565 0.30035 0.0
H105 H 0.98374 0.28456 0.19638 0.0
H106 H 0.67698 0.26445 0.23599 0.0
H107 H 0.77064 0.11965 0.17119 0.0
H108 H 0.95726 0.23664 0.14005 0.0
H109 H 0.90201 0.18393 0.11444 0.0
H110 H 0.72668 0.3931 0.43603 0.0
H111 H 0.8322 0.13959 0.12603 0.0
H112 H 0.5716 0.22022 0.31056 0.0
N113 N 0.71501 0.33556 0.3509 0.0
C114 C 0.67655 0.31407 0.35879 0.0
C115 C 0.71237 0.3706 0.4146 0.0
C116 C 0.65508 0.31865 0.39556 0.0
C117 C 0.73266 0.36462 0.37772 0.0
C118 C 0.6736 0.34721 0.42368 0.0
N119 N 0.6813 0.28365 0.29469 0.0
C120 C 0.66254 0.26242 0.26452 0.0
C121 C 0.61967 0.26354 0.33685 0.0
C122 C 0.65946 0.28661 0.32987 0.0
C123 C 0.6021 0.23844 0.30643 0.0
C124 C 0.6233 0.23862 0.26999 0.0
H125 H 0.6581 0.3517 0.45233 0.0
H126 H 0.59913 0.29742 0.43115 0.0
H127 H 0.56797 0.2493 0.37967 0.0
O128 O 0.70777 0.34737 0.26988 0.0
O129 O 0.74717 0.29343 0.33748 0.0
O130 O 0.74832 0.23173 0.30626 0.0
O131 O 0.76051 0.38532 0.29399 0.0
O132 O 0.74787 0.27851 0.23833 0.0
O133 O 0.75364 0.22526 0.26077 0.0
O134 O 0.82219 0.23741 0.33576 0.0
O135 O 0.84086 0.29697 0.258 0.0
O136 O 0.79108 0.31726 0.23909 0.0
O137 O 0.82783 0.19181 0.28771 0.0
O138 O 0.82459 0.29721 0.32627 0.0
O139 O 0.80505 0.34932 0.31071 0.0
C140 C 0.73614 0.25512 0.3363 0.0
C141 C 0.71821 0.41755 0.27079 0.0
C142 C 0.68429 0.44557 0.23441 0.0
C143 C 0.6928 0.48187 0.25915 0.0
C144 C 0.72713 0.45428 0.29466 0.0
C145 C 0.71427 0.48618 0.28893 0.0
C146 C 0.69706 0.41342 0.24044 0.0
C147 C 0.74539 0.24038 0.23432 0.0
C148 C 0.72896 0.38312 0.27874 0.0
C149 C 0.61606 0.29464 0.40298 0.0
C150 C 0.59838 0.26712 0.37369 0.0
C151 C 0.82877 0.31446 0.23572 0.0
C152 C 0.80938 0.1725 0.34768 0.0
C153 C 0.81629 0.12991 0.38898 0.0
C154 C 0.77398 0.11637 0.39519 0.0
C155 C 0.76733 0.15808 0.3535 0.0
C156 C 0.83357 0.1585 0.3655 0.0
C157 C 0.74973 0.13042 0.37749 0.0
C158 C 0.82656 0.33535 0.3285 0.0
C159 C 0.82906 0.2025 0.32368 0.0
H160 H 0.68354 0.50713 0.25495 0.0
H161 H 0.74324 0.45808 0.31823 0.0
H162 H 0.72085 0.51432 0.3077 0.0
H163 H 0.69029 0.38522 0.22167 0.0
H164 H 0.75972 0.09434 0.41298 0.0
H165 H 0.74831 0.16813 0.33948 0.0
H166 H 0.86605 0.17015 0.36114 0.0
H167 H 0.71721 0.11953 0.38208 0.0
Tb168 Tb 0.76699 0.73044 0.3296 0.0
C169 C 0.8804 0.84323 0.21297 0.0
N170 N 0.85596 0.8514 0.24582 0.0
C171 C 0.90497 0.91139 0.2637 0.0
C172 C 0.91866 0.86847 0.20446 0.0
C173 C 0.86697 0.88573 0.2705 0.0
C174 C 0.93116 0.9025 0.23073 0.0
C175 C 0.88894 0.80229 0.15133 0.0
C176 C 0.86593 0.8106 0.18689 0.0
C177 C 0.9277 0.82651 0.14311 0.0
C178 C 0.94258 0.85949 0.16967 0.0
Tb179 Tb 0.7955 0.80651 0.25454 0.0
N180 N 0.82864 0.7875 0.19616 0.0
C181 C 0.87197 0.77024 0.12502 0.0
C182 C 0.81087 0.7578 0.16984 0.0
C183 C 0.83256 0.74821 0.13417 0.0
H184 H 0.84621 0.89366 0.29519 0.0
H185 H 0.81884 0.72396 0.11374 0.0
H186 H 0.6777 0.67939 0.30617 0.0
H187 H 0.81126 0.82993 0.45667 0.0
H188 H 0.78039 0.74101 0.1768 0.0
H189 H 0.88869 0.76278 0.09739 0.0
H190 H 0.82232 0.78609 0.39584 0.0
H191 H 0.91382 0.93826 0.28364 0.0
H192 H 0.9461 0.8204 0.11609 0.0
H193 H 0.97221 0.87836 0.16269 0.0
H194 H 0.60598 0.67245 0.33446 0.0
H195 H 0.96038 0.92264 0.22533 0.0
H196 H 0.74151 0.8326 0.48647 0.0
N197 N 0.69988 0.72213 0.35214 0.0
C198 C 0.6908 0.74262 0.38725 0.0
C199 C 0.62955 0.69244 0.34949 0.0
C200 C 0.65038 0.73983 0.40435 0.0
C201 C 0.67012 0.69655 0.33344 0.0
C202 C 0.61961 0.71433 0.38499 0.0
N203 N 0.76096 0.77004 0.38751 0.0
C204 C 0.79245 0.78991 0.40671 0.0
C205 C 0.71403 0.7908 0.44095 0.0
C206 C 0.7223 0.76801 0.40511 0.0
C207 C 0.74653 0.81459 0.45894 0.0
C208 C 0.78594 0.81348 0.44206 0.0
H209 H 0.58814 0.71136 0.39715 0.0
H210 H 0.61112 0.76163 0.45319 0.0
H211 H 0.66681 0.80613 0.48529 0.0
O212 O 0.7904 0.70729 0.36686 0.0
O213 O 0.72811 0.76813 0.32268 0.0
O214 O 0.76924 0.82756 0.31263 0.0
O215 O 0.74371 0.67092 0.33543 0.0
O216 O 0.82704 0.77044 0.32534 0.0
O217 O 0.81759 0.82618 0.30954 0.0
O218 O 0.74317 0.8067 0.23347 0.0
O219 O 0.83033 0.75935 0.23785 0.0
O220 O 0.81463 0.71737 0.28265 0.0
O221 O 0.79333 0.85699 0.23414 0.0
O222 O 0.74393 0.75469 0.25069 0.0
O223 O 0.75252 0.70229 0.2738 0.0
C224 C 0.73646 0.80704 0.33055 0.0
C225 C 0.7902 0.6389 0.3482 0.0
C226 C 0.83432 0.60315 0.36436 0.0
C227 C 0.82633 0.57441 0.33196 0.0
C228 C 0.78368 0.60995 0.31576 0.0
C229 C 0.80161 0.57804 0.30784 0.0
C230 C 0.81562 0.63531 0.37249 0.0
C231 C 0.8382 0.80851 0.32415 0.0
C232 C 0.76899 0.67157 0.3576 0.0
C233 C 0.64202 0.76308 0.43971 0.0
C234 C 0.67374 0.78856 0.45792 0.0
C235 C 0.83505 0.729 0.25077 0.0
C236 C 0.72831 0.86882 0.238 0.0
C237 C 0.68203 0.90301 0.22266 0.0
C238 C 0.67209 0.91617 0.26157 0.0
C239 C 0.71796 0.88297 0.27642 0.0
C240 C 0.71057 0.87928 0.21103 0.0
C241 C 0.68998 0.90633 0.28806 0.0
C242 C 0.74003 0.71658 0.24924 0.0
C243 C 0.75677 0.84247 0.22616 0.0
H244 H 0.83895 0.54868 0.32523 0.0
H245 H 0.76441 0.61164 0.29651 0.0
H246 H 0.79606 0.55578 0.28296 0.0
H247 H 0.82106 0.65766 0.39736 0.0
H248 H 0.6508 0.93471 0.2716 0.0
H249 H 0.73152 0.87597 0.29745 0.0
H250 H 0.7184 0.86844 0.18126 0.0
H251 H 0.68214 0.91695 0.31786 0.0
Tb252 Tb 0.26824 0.80132 0.28039 0.0
C253 C 0.36494 0.66302 0.28821 0.0
N254 N 0.3627 0.69989 0.30607 0.0
C255 C 0.37174 0.68443 0.36401 0.0
C256 C 0.36933 0.63468 0.3076 0.0
C257 C 0.36758 0.71147 0.34328 0.0
C258 C 0.37205 0.64565 0.3462 0.0
C259 C 0.36951 0.61755 0.22919 0.0
C260 C 0.36539 0.6548 0.24991 0.0
C261 C 0.37206 0.58831 0.24833 0.0
C262 C 0.37207 0.59691 0.28755 0.0
Tb263 Tb 0.35286 0.74151 0.27095 0.0
N264 N 0.36397 0.68429 0.23275 0.0
C265 C 0.37161 0.61122 0.18994 0.0
C266 C 0.36817 0.67897 0.19426 0.0
C267 C 0.37097 0.64214 0.17244 0.0
H268 H 0.3675 0.74134 0.35732 0.0
H269 H 0.37226 0.63751 0.1422 0.0
H270 H 0.19866 0.74195 0.22653 0.0
H271 H 0.35029 0.95209 0.27191 0.0
H272 H 0.36827 0.70277 0.18028 0.0
H273 H 0.37431 0.5829 0.1729 0.0
H274 H 0.31661 0.89552 0.30458 0.0
H275 H 0.37474 0.69354 0.39366 0.0
H276 H 0.37495 0.55936 0.23301 0.0
H277 H 0.37509 0.57452 0.30192 0.0
H278 H 0.18576 0.73377 0.1614 0.0
H279 H 0.37545 0.62481 0.36223 0.0
H280 H 0.34779 0.94614 0.20385 0.0
N281 N 0.2503 0.79027 0.22112 0.0
C282 C 0.26933 0.81946 0.20058 0.0
C283 C 0.21024 0.75735 0.17165 0.0
C284 C 0.26243 0.81644 0.16326 0.0
C285 C 0.2183 0.76164 0.20846 0.0
C286 C 0.23349 0.78399 0.14842 0.0
N287 N 0.29654 0.85738 0.25509 0.0
C288 C 0.3155 0.89244 0.27483 0.0
C289 C 0.31134 0.88594 0.19857 0.0
C290 C 0.29278 0.85427 0.21824 0.0
C291 C 0.33293 0.92119 0.21802 0.0
C292 C 0.33446 0.92464 0.25645 0.0
H293 H 0.22706 0.78066 0.11997 0.0
H294 H 0.27843 0.84478 0.11389 0.0
H295 H 0.32192 0.90533 0.14461 0.0
O296 O 0.22858 0.81442 0.33035 0.0
O297 O 0.33171 0.81637 0.25574 0.0
O298 O 0.34251 0.75927 0.22164 0.0
O299 O 0.224 0.8308 0.27897 0.0
O300 O 0.31238 0.83075 0.319 0.0
O301 O 0.33932 0.77997 0.32582 0.0
O302 O 0.41582 0.74745 0.26021 0.0
O303 O 0.30315 0.72445 0.31474 0.0
O304 O 0.25082 0.75509 0.31622 0.0
O305 O 0.39118 0.79872 0.27681 0.0
O306 O 0.30707 0.71621 0.23129 0.0
O307 O 0.24934 0.73761 0.26029 0.0
C308 C 0.34376 0.79621 0.22321 0.0
C309 C 0.16424 0.79955 0.31048 0.0
C310 C 0.09442 0.79502 0.30449 0.0
C311 C 0.08813 0.7538 0.29354 0.0
C312 C 0.15713 0.75816 0.30054 0.0
C313 C 0.11944 0.73552 0.29167 0.0
C314 C 0.13297 0.81766 0.31226 0.0
C315 C 0.33512 0.81687 0.33518 0.0
C316 C 0.2055 0.82422 0.31183 0.0
C317 C 0.28274 0.84698 0.14284 0.0
C318 C 0.30728 0.8816 0.16041 0.0
C319 C 0.26665 0.73033 0.32745 0.0
C320 C 0.45158 0.80568 0.23554 0.0
C321 C 0.48397 0.8037 0.17032 0.0
C322 C 0.50464 0.84344 0.17891 0.0
C323 C 0.47186 0.84558 0.24391 0.0
C324 C 0.45723 0.78525 0.19872 0.0
C325 C 0.49803 0.86441 0.21562 0.0
C326 C 0.26731 0.71195 0.23695 0.0
C327 C 0.42368 0.78601 0.26504 0.0
H328 H 0.05867 0.7357 0.2879 0.0
H329 H 0.18089 0.74331 0.29843 0.0
H330 H 0.11444 0.70371 0.28361 0.0
H331 H 0.13867 0.84951 0.32085 0.0
H332 H 0.52586 0.85793 0.15747 0.0
H333 H 0.4673 0.86216 0.27222 0.0
H334 H 0.44182 0.75428 0.1924 0.0
H335 H 0.51333 0.89521 0.22241 0.0
Tb336 Tb 0.2452 0.81587 0.78903 0.0
C337 C 0.36356 0.70869 0.69136 0.0
N338 N 0.32718 0.6994 0.71336 0.0
C339 C 0.3065 0.64117 0.66785 0.0
C340 C 0.37236 0.68498 0.65615 0.0
C341 C 0.29917 0.66545 0.70259 0.0
C342 C 0.34314 0.65107 0.64442 0.0
C343 C 0.42969 0.75344 0.68155 0.0
C344 C 0.3921 0.74222 0.70414 0.0
C345 C 0.43856 0.72988 0.64651 0.0
C346 C 0.41001 0.69571 0.63389 0.0
Tb347 Tb 0.32026 0.74028 0.77033 0.0
N348 N 0.3821 0.76495 0.73777 0.0
C349 C 0.45684 0.78854 0.69441 0.0
C350 C 0.40839 0.79951 0.75013 0.0
C351 C 0.44603 0.81175 0.72874 0.0
H352 H 0.27145 0.65613 0.72098 0.0
H353 H 0.4666 0.83925 0.73867 0.0
H354 H 0.27665 0.89846 0.85018 0.0
H355 H 0.09443 0.72667 0.77505 0.0
H356 H 0.40052 0.81834 0.77598 0.0
H357 H 0.48592 0.79829 0.6778 0.0
H358 H 0.16627 0.75421 0.75304 0.0
H359 H 0.28407 0.6145 0.65941 0.0
H360 H 0.46728 0.73803 0.62881 0.0
H361 H 0.41728 0.67786 0.60676 0.0
H362 H 0.25055 0.93155 0.91259 0.0
H363 H 0.34878 0.63207 0.61759 0.0
H364 H 0.06405 0.75093 0.83976 0.0
N365 N 0.2237 0.85131 0.84599 0.0
C366 C 0.18486 0.83759 0.86129 0.0
C367 C 0.23185 0.90486 0.89867 0.0
C368 C 0.16838 0.85602 0.89665 0.0
C369 C 0.24669 0.88566 0.8634 0.0
C370 C 0.19274 0.88961 0.91569 0.0
N371 N 0.17755 0.79101 0.80562 0.0
C372 C 0.15385 0.76393 0.78167 0.0
C373 C 0.11966 0.79242 0.85385 0.0
C374 C 0.16081 0.80648 0.84024 0.0
C375 C 0.09583 0.76256 0.83042 0.0
C376 C 0.11289 0.74873 0.79391 0.0
H377 H 0.18124 0.90468 0.9429 0.0
H378 H 0.11473 0.85465 0.93849 0.0
H379 H 0.07204 0.79874 0.90099 0.0
O380 O 0.22971 0.82574 0.7395 0.0
O381 O 0.22048 0.764 0.81753 0.0
O382 O 0.28183 0.75714 0.82294 0.0
O383 O 0.24536 0.87364 0.78503 0.0
O384 O 0.24225 0.7671 0.74 0.0
O385 O 0.25788 0.71581 0.7588 0.0
O386 O 0.36342 0.72564 0.794 0.0
O387 O 0.32429 0.77338 0.72524 0.0
O388 O 0.30875 0.82599 0.76562 0.0
O389 O 0.30719 0.68331 0.78373 0.0
O390 O 0.33956 0.79353 0.81333 0.0
O391 O 0.29572 0.83636 0.82376 0.0
C392 C 0.24244 0.74676 0.8308 0.0
C393 C 0.20282 0.8817 0.74572 0.0
C394 C 0.17658 0.90706 0.70159 0.0
C395 C 0.15223 0.9248 0.73186 0.0
C396 C 0.17783 0.89898 0.77579 0.0
C397 C 0.15265 0.92045 0.76876 0.0
C398 C 0.20164 0.88536 0.70863 0.0
C399 C 0.23812 0.72907 0.73912 0.0
C400 C 0.23333 0.8633 0.75221 0.0
C401 C 0.12783 0.84114 0.91121 0.0
C402 C 0.10351 0.80934 0.88984 0.0
C403 C 0.32155 0.81012 0.73143 0.0
C404 C 0.36241 0.65827 0.78817 0.0
C405 C 0.39132 0.61692 0.81446 0.0
C406 C 0.4023 0.59742 0.7778 0.0
C407 C 0.37312 0.63866 0.75165 0.0
C408 C 0.37175 0.64752 0.81914 0.0
C409 C 0.39315 0.60831 0.74656 0.0
C410 C 0.32781 0.82643 0.83047 0.0
C411 C 0.34145 0.69013 0.79621 0.0
H412 H 0.13234 0.9413 0.72682 0.0
H413 H 0.17829 0.89652 0.80464 0.0
H414 H 0.13358 0.93393 0.79198 0.0
H415 H 0.22081 0.87201 0.6853 0.0
H416 H 0.41741 0.57359 0.77336 0.0
H417 H 0.36616 0.64662 0.72732 0.0
H418 H 0.36398 0.66351 0.8472 0.0
H419 H 0.40146 0.59312 0.71838 0.0
Tb420 Tb 0.26576 0.22644 0.8102 0.0
C421 C 0.3742 0.30041 0.68184 0.0
N422 N 0.35878 0.31964 0.71547 0.0
C423 C 0.4247 0.36212 0.72232 0.0
C424 C 0.41589 0.31001 0.66815 0.0
C425 C 0.38308 0.35192 0.73443 0.0
C426 C 0.44132 0.34059 0.68943 0.0
C427 C 0.36214 0.25313 0.62421 0.0
C428 C 0.34777 0.27248 0.65994 0.0
C429 C 0.40384 0.26121 0.61132 0.0
C430 C 0.43066 0.2896 0.63324 0.0
Tb431 Tb 0.29023 0.2982 0.73229 0.0
N432 N 0.30767 0.26463 0.67363 0.0
C433 C 0.33403 0.22686 0.60225 0.0
C434 C 0.27993 0.24163 0.65116 0.0
C435 C 0.2927 0.22165 0.61552 0.0
H436 H 0.37064 0.37049 0.75866 0.0
H437 H 0.27069 0.20246 0.59823 0.0
H438 H 0.18093 0.16019 0.78803 0.0
H439 H 0.30084 0.32751 0.9391 0.0
H440 H 0.24812 0.23835 0.6611 0.0
H441 H 0.34385 0.21139 0.5746 0.0
H442 H 0.31694 0.29005 0.87581 0.0
H443 H 0.44385 0.38706 0.73803 0.0
H444 H 0.41558 0.2463 0.58412 0.0
H445 H 0.46266 0.2962 0.62255 0.0
H446 H 0.11007 0.14252 0.81727 0.0
H447 H 0.47352 0.34883 0.67994 0.0
H448 H 0.2303 0.31568 0.97154 0.0
N449 N 0.19908 0.20625 0.83367 0.0
C450 C 0.18811 0.22381 0.86968 0.0
C451 C 0.13162 0.16581 0.8321 0.0
C452 C 0.14784 0.2142 0.88762 0.0
C453 C 0.17187 0.17646 0.81533 0.0
C454 C 0.11944 0.18504 0.86821 0.0
N455 N 0.25587 0.26111 0.87003 0.0
C456 C 0.2859 0.28656 0.88841 0.0
C457 C 0.20684 0.2718 0.92526 0.0
C458 C 0.21734 0.25219 0.8884 0.0
C459 C 0.23714 0.29992 0.94323 0.0
C460 C 0.27693 0.30692 0.9249 0.0
H461 H 0.08821 0.17675 0.88104 0.0
H462 H 0.10637 0.22714 0.93835 0.0
H463 H 0.15793 0.27764 0.97119 0.0
O464 O 0.28573 0.20547 0.85119 0.0
O465 O 0.22968 0.27245 0.81916 0.0
O466 O 0.26891 0.32511 0.79037 0.0
O467 O 0.25961 0.16503 0.80525 0.0
O468 O 0.3253 0.2685 0.80592 0.0
O469 O 0.31725 0.32214 0.78409 0.0
O470 O 0.24424 0.3136 0.71254 0.0
O471 O 0.30084 0.23802 0.71727 0.0
O472 O 0.32101 0.22607 0.76837 0.0
O473 O 0.30531 0.34786 0.7058 0.0
O474 O 0.23011 0.26117 0.74628 0.0
O475 O 0.23742 0.20295 0.75779 0.0
C476 C 0.23947 0.3105 0.81627 0.0
C477 C 0.31216 0.14875 0.82828 0.0
C478 C 0.35806 0.12162 0.85371 0.0
C479 C 0.37605 0.11081 0.81635 0.0
C480 C 0.33151 0.13783 0.7917 0.0
C481 C 0.36302 0.119 0.78587 0.0
C482 C 0.32562 0.14055 0.85934 0.0
C483 C 0.33545 0.30624 0.803 0.0
C484 C 0.2785 0.16904 0.83392 0.0
C485 C 0.13723 0.23395 0.92423 0.0
C486 C 0.16661 0.26271 0.94295 0.0
C487 C 0.32507 0.22455 0.73168 0.0
C488 C 0.25479 0.38209 0.71258 0.0
C489 C 0.22279 0.42916 0.69759 0.0
C490 C 0.23431 0.45538 0.73054 0.0
C491 C 0.2653 0.40847 0.74545 0.0
C492 C 0.23331 0.39233 0.68891 0.0
C493 C 0.25503 0.44489 0.75434 0.0
C494 C 0.22039 0.22246 0.74102 0.0
C495 C 0.26846 0.34509 0.70138 0.0
H496 H 0.39998 0.09529 0.81038 0.0
H497 H 0.32217 0.14371 0.76746 0.0
H498 H 0.37736 0.11047 0.75741 0.0
H499 H 0.31118 0.14934 0.8877 0.0
H500 H 0.22781 0.48433 0.73782 0.0
H501 H 0.28224 0.40124 0.76374 0.0
H502 H 0.22483 0.37152 0.66384 0.0
H503 H 0.26365 0.46532 0.77954 0.0
Tb504 Tb 0.73911 0.30478 0.79588 0.0
C505 C 0.84391 0.17524 0.78625 0.0
N506 N 0.84177 0.21027 0.80868 0.0
C507 C 0.84469 0.18358 0.86265 0.0
C508 C 0.84485 0.14223 0.80107 0.0
C509 C 0.84433 0.2155 0.84628 0.0
C510 C 0.84424 0.14653 0.84002 0.0
C511 C 0.85407 0.13918 0.72283 0.0
C512 C 0.84887 0.17389 0.7481 0.0
C513 C 0.8526 0.1052 0.73717 0.0
C514 C 0.84812 0.10676 0.77632 0.0
Tb515 Tb 0.83706 0.26003 0.78039 0.0
N516 N 0.85167 0.20781 0.73586 0.0
C517 C 0.86157 0.14014 0.68411 0.0
C518 C 0.86239 0.20982 0.69828 0.0
C519 C 0.8658 0.1757 0.67182 0.0
H520 H 0.84527 0.24422 0.86385 0.0
H521 H 0.87161 0.17682 0.64197 0.0
H522 H 0.66412 0.23653 0.75732 0.0
H523 H 0.77897 0.46068 0.79141 0.0
H524 H 0.86628 0.23736 0.68859 0.0
H525 H 0.8651 0.11397 0.66361 0.0
H526 H 0.768 0.40139 0.82051 0.0
H527 H 0.84557 0.18764 0.89263 0.0
H528 H 0.85617 0.07806 0.71827 0.0
H529 H 0.84844 0.08085 0.78708 0.0
H530 H 0.63244 0.2234 0.69966 0.0
H531 H 0.84493 0.12193 0.85264 0.0
H532 H 0.76005 0.45358 0.72804 0.0
N533 N 0.70254 0.29188 0.74655 0.0
C534 C 0.71001 0.32077 0.72571 0.0
C535 C 0.65468 0.25079 0.70635 0.0
C536 C 0.69194 0.31529 0.69311 0.0
C537 C 0.67299 0.25822 0.73887 0.0
C538 C 0.665 0.27908 0.68277 0.0
N539 N 0.74438 0.36136 0.7736 0.0
C540 C 0.75964 0.39809 0.79289 0.0
C541 C 0.73712 0.39004 0.72231 0.0
C542 C 0.73186 0.3573 0.74002 0.0
C543 C 0.75538 0.42756 0.74063 0.0
C544 C 0.7659 0.43169 0.77648 0.0
H545 H 0.65044 0.27353 0.65789 0.0
H546 H 0.68648 0.34323 0.64793 0.0
H547 H 0.72636 0.40897 0.67357 0.0
O548 O 0.72433 0.31456 0.85485 0.0
O549 O 0.79868 0.33445 0.77013 0.0
O550 O 0.82646 0.28504 0.73488 0.0
O551 O 0.68245 0.31644 0.81923 0.0
O552 O 0.79132 0.34144 0.82382 0.0
O553 O 0.81762 0.29364 0.83518 0.0
O554 O 0.8983 0.26748 0.78335 0.0
O555 O 0.79012 0.24848 0.82914 0.0
O556 O 0.73148 0.24538 0.80795 0.0
O557 O 0.87593 0.31714 0.7815 0.0
O558 O 0.79756 0.23593 0.7349 0.0
O559 O 0.73465 0.2439 0.7647 0.0
C560 C 0.8197 0.32015 0.73904 0.0
C561 C 0.65651 0.28536 0.87273 0.0
C562 C 0.61964 0.26749 0.9326 0.0
C563 C 0.59768 0.2323 0.91304 0.0
C564 C 0.63411 0.25035 0.85342 0.0
C565 C 0.60502 0.22384 0.8736 0.0
C566 C 0.65002 0.29304 0.912 0.0
C567 C 0.81533 0.33063 0.84123 0.0
C568 C 0.6873 0.31431 0.85299 0.0
C569 C 0.69953 0.34692 0.67341 0.0
C570 C 0.72217 0.38435 0.68803 0.0
C571 C 0.75061 0.23708 0.8315 0.0
C572 C 0.9424 0.31756 0.75187 0.0
C573 C 0.99117 0.29746 0.69958 0.0
C574 C 0.99776 0.3336 0.68721 0.0
C575 C 0.94976 0.35425 0.74015 0.0
C576 C 0.96558 0.2909 0.7331 0.0
C577 C 0.97805 0.36248 0.70829 0.0
C578 C 0.758 0.22889 0.73566 0.0
C579 C 0.90793 0.30477 0.78054 0.0
H580 H 0.57333 0.2127 0.9281 0.0
H581 H 0.63906 0.24347 0.82294 0.0
H582 H 0.58752 0.19707 0.8586 0.0
H583 H 0.66651 0.32101 0.92624 0.0
H584 H 1.01627 0.33851 0.66047 0.0
H585 H 0.93257 0.37573 0.75458 0.0
H586 H 0.95969 0.26229 0.74158 0.0
H587 H 0.98272 0.39021 0.6986 0.0
Tb588 Tb 0.74096 0.75247 0.74952 0.0
C589 C 0.82216 0.85653 0.88017 0.0
N590 N 0.84193 0.84422 0.84568 0.0
C591 C 0.88385 0.90976 0.84489 0.0
C592 C 0.83191 0.8964 0.898 0.0
C593 C 0.87284 0.86999 0.82811 0.0
C594 C 0.8632 0.92308 0.87989 0.0
C595 C 0.76868 0.84117 0.93198 0.0
C596 C 0.79071 0.82925 0.89678 0.0
C597 C 0.77823 0.8809 0.94983 0.0
C598 C 0.80976 0.90843 0.93289 0.0
Tb599 Tb 0.82075 0.77893 0.82099 0.0
N600 N 0.78126 0.79128 0.87799 0.0
C601 C 0.73785 0.81275 0.94827 0.0
C602 C 0.75349 0.76299 0.89531 0.0
C603 C 0.73073 0.77336 0.93014 0.0
H604 H 0.88951 0.85987 0.80146 0.0
H605 H 0.70823 0.7508 0.94333 0.0
H606 H 0.65466 0.69597 0.78487 0.0
H607 H 0.83449 0.736 0.61402 0.0
H608 H 0.74979 0.73224 0.88345 0.0
H609 H 0.7202 0.82068 0.97528 0.0
H610 H 0.8117 0.77155 0.67683 0.0
H611 H 0.90832 0.93011 0.83083 0.0
H612 H 0.76146 0.89063 0.97677 0.0
H613 H 0.81669 0.93898 0.94696 0.0
H614 H 0.61335 0.62823 0.7679 0.0
H615 H 0.87164 0.95398 0.89267 0.0
H616 H 0.79844 0.66693 0.59235 0.0
N617 N 0.69866 0.69145 0.73591 0.0
C618 C 0.70923 0.66921 0.70228 0.0
C619 C 0.64042 0.6393 0.7493 0.0
C620 C 0.68612 0.63073 0.691 0.0
C621 C 0.66419 0.67747 0.75906 0.0
C622 C 0.65157 0.61569 0.71524 0.0
N623 N 0.76459 0.72255 0.69105 0.0
C624 C 0.79605 0.7414 0.6677 0.0
C625 C 0.75463 0.66414 0.64313 0.0
C626 C 0.74295 0.68555 0.67871 0.0
C627 C 0.78838 0.6824 0.6199 0.0
C628 C 0.80887 0.72136 0.63207 0.0
H629 H 0.63299 0.58621 0.70766 0.0
H630 H 0.68073 0.57908 0.64672 0.0
H631 H 0.74075 0.60838 0.60478 0.0
O632 O 0.7383 0.79845 0.72345 0.0
O633 O 0.78634 0.71628 0.73678 0.0
O634 O 0.84385 0.74889 0.765 0.0
O635 O 0.68577 0.75125 0.73301 0.0
O636 O 0.79016 0.80681 0.74663 0.0
O637 O 0.84654 0.80033 0.76779 0.0
O638 O 0.83427 0.7446 0.85481 0.0
O639 O 0.78117 0.81887 0.82117 0.0
O640 O 0.72044 0.77895 0.8075 0.0
O641 O 0.87972 0.79268 0.83465 0.0
O642 O 0.78004 0.71941 0.81361 0.0
O643 O 0.72175 0.731 0.80339 0.0
C644 C 0.82509 0.72205 0.73913 0.0
C645 C 0.67542 0.81402 0.73259 0.0
C646 C 0.64762 0.86292 0.71574 0.0
C647 C 0.63128 0.87233 0.7539 0.0
C648 C 0.65873 0.8236 0.77038 0.0
C649 C 0.63686 0.85276 0.78096 0.0
C650 C 0.66981 0.83365 0.70543 0.0
C651 C 0.82962 0.81503 0.74652 0.0
C652 C 0.70002 0.78474 0.72091 0.0
C653 C 0.69799 0.60879 0.65585 0.0
C654 C 0.73216 0.62548 0.63194 0.0
C655 C 0.74138 0.81148 0.82583 0.0
C656 C 0.90198 0.739 0.84574 0.0
C657 C 0.93387 0.69639 0.86869 0.0
C658 C 0.96184 0.69667 0.83518 0.0
C659 C 0.92964 0.73776 0.81235 0.0
C660 C 0.90386 0.71784 0.8735 0.0
C661 C 0.95937 0.71675 0.80724 0.0
C662 C 0.74068 0.70874 0.8139 0.0
C663 C 0.87209 0.76346 0.853 0.0
H664 H 0.61357 0.89433 0.76274 0.0
H665 H 0.66262 0.80857 0.79159 0.0
H666 H 0.62404 0.8601 0.81019 0.0
H667 H 0.68322 0.82645 0.67631 0.0
H668 H 0.98627 0.68196 0.83057 0.0
H669 H 0.92867 0.75344 0.79043 0.0
H670 H 0.88177 0.71824 0.89878 0.0
H671 H 0.98103 0.71647 0.78166 0.0
Fe672 Fe 0.04162 0.10912 0.52211 0.0
O673 O 1.02995 0.05142 0.51308 0.0
Fe674 Fe 0.0765 1.02391 0.51138 0.0
Fe675 Fe 0.98484 1.01821 0.54393 0.0
O676 O 1.034 0.05168 0.51113 0.0
O677 O 1.03179 0.99085 0.54301 0.0
O678 O 1.02746 0.99075 0.54547 0.0
Fe679 Fe 1.01894 0.93272 0.53207 0.0
C680 C 0.9987 0.09252 0.5988 0.0
O681 O 0.9892 0.09641 0.49886 0.0
O682 O 0.94628 0.05141 0.5348 0.0
O683 O 0.05308 0.93089 0.4801 0.0
O684 O 0.05992 0.98803 0.46222 0.0
O685 O 0.11792 0.0629 0.47689 0.0
O686 O 0.08081 0.10611 0.47271 0.0
O687 O 0.96938 0.98219 0.49488 0.0
O688 O 0.96772 0.92344 0.50703 0.0
C689 C 0.11093 0.0897 0.46131 0.0
O690 O 0.07255 0.94256 0.55166 0.0
O691 O 0.1152 0.98961 0.51806 0.0
O692 O 1.00494 0.11121 0.57166 0.0
O693 O 0.99802 0.05595 0.59383 0.0
C694 C 0.95363 0.07555 0.51056 0.0
C695 C 0.9577 0.94485 0.48857 0.0
C696 C 0.95059 0.95119 0.59351 0.0
O697 O 0.94346 0.97799 0.57777 0.0
O698 O 0.98164 0.93581 0.58264 0.0
C699 C 0.05367 0.95068 0.45506 0.0
O700 O 0.09349 0.06005 0.55986 0.0
O701 O 0.09025 0.1195 0.55209 0.0
C702 C 0.10812 0.96254 0.53923 0.0
C703 C 0.1012 0.09744 0.56949 0.0
Fe704 Fe 0.53928 0.98025 1.02883 0.0
O705 O 0.57459 0.02698 1.00717 0.0
Fe706 Fe 0.44869 1.01136 0.06175 0.0
Fe707 Fe 0.63374 0.04069 1.00312 0.0
O708 O 0.5081 1.02028 0.05806 0.0
O709 O 0.50783 0.02459 0.05833 0.0
O710 O 0.57438 0.03131 1.00751 0.0
Fe711 Fe 0.54354 0.07128 0.03716 0.0
C712 C 0.61182 0.99164 0.06767 0.0
O713 O 0.57765 0.9447 0.99306 0.0
O714 O 0.62788 0.98954 0.96281 0.0
O715 O 0.50955 0.06171 0.99375 0.0
O716 O 0.44703 0.04725 1.02442 0.0
O717 O 0.44341 0.96358 1.01799 0.0
O718 O 0.50497 0.96686 0.98519 0.0
O719 O 0.63103 0.07975 0.97058 0.0
O720 O 0.58562 0.11417 1.00841 0.0
C721 C 0.46658 0.95554 0.98742 0.0
O722 O 0.50553 0.10718 0.07311 0.0
O723 O 0.45424 0.06237 0.1022 0.0
O724 O 0.57392 0.98973 0.07219 0.0
O725 O 0.63548 1.00474 0.03966 0.0
C726 C 0.60884 0.95353 0.96701 0.0
C727 C 0.61367 0.10911 0.97965 0.0
C728 C 0.61627 0.09543 0.07804 0.0
O729 O 0.63925 0.08859 0.04704 0.0
O730 O 0.5779 0.08357 0.08068 0.0
C731 C 0.47183 0.0596 0.99659 0.0
O732 O 0.45141 0.97249 0.0947 0.0
O733 O 0.49713 0.93768 0.05794 0.0
C734 C 0.47397 0.09836 0.09878 0.0
C735 C 0.46923 0.94342 0.08671 0.0
Fe736 Fe 0.05106 0.57284 0.04158 0.0
O737 O 1.01223 0.52692 0.0625 0.0
Fe738 Fe 0.13579 0.53398 1.00261 0.0
Fe739 Fe 0.95274 0.51898 0.06461 0.0
O740 O 0.07771 0.53029 1.01061 0.0
O741 O 0.07666 0.52555 1.00847 0.0
O742 O 1.0109 0.52167 0.05982 0.0
Fe743 Fe 0.03784 0.47919 1.02835 0.0
C744 C 0.98249 0.60263 0.10465 0.0
O745 O 1.01767 0.56401 0.9985 0.0
O746 O 0.95667 0.5608 1.03124 0.0
O747 O 0.07355 0.44072 0.99136 0.0
O748 O 0.12508 0.48421 0.96132 0.0
O749 O 0.13624 0.57644 0.97168 0.0
O750 O 0.09439 0.61383 1.01124 0.0
O751 O 0.94357 0.47491 1.01775 0.0
O752 O 1.0037 0.46937 0.98512 0.0
C753 C 0.12156 0.60778 0.98177 0.0
O754 O 0.07133 0.48572 0.07092 0.0
O755 O 0.13401 0.49574 0.03895 0.0
O756 O 1.01415 0.61086 0.07853 0.0
O757 O 0.96228 0.56677 0.10795 0.0
C758 C 0.98218 0.56869 1.00236 0.0
C759 C 0.96534 0.46278 0.98768 0.0
C760 C 0.96241 0.44226 0.08314 0.0
O761 O 0.94856 0.47394 0.09367 0.0
O762 O 0.99205 0.43724 0.05584 0.0
C763 C 0.10504 0.44851 0.9652 0.0
O764 O 0.14641 0.58045 0.04603 0.0
O765 O 0.08869 0.58525 0.08411 0.0
C766 C 0.10849 0.48562 0.06734 0.0
C767 C 0.12758 0.59291 0.07771 0.0
Fe768 Fe 0.52259 0.51509 0.98842 0.0
O769 O 0.56107 0.54473 1.02479 0.0
Fe770 Fe 0.42814 0.51179 0.04178 0.0
Fe771 Fe 0.61621 0.53709 1.02098 0.0
O772 O 0.48301 0.50396 0.03453 0.0
O773 O 0.48306 0.50312 0.03832 0.0
O774 O 0.56115 0.54373 1.0282 0.0
Fe775 Fe 0.52147 0.53444 0.0745 0.0
C776 C 0.57165 0.45612 0.98574 0.0
O777 O 0.56932 0.53208 0.94431 0.0
O778 O 0.62531 0.56366 0.97394 0.0
O779 O 0.506 0.58484 0.07189 0.0
O780 O 0.43917 0.56549 0.07745 0.0
O781 O 0.43908 0.54126 0.99716 0.0
O782 O 0.50539 0.56523 0.98726 0.0
O783 O 0.62286 0.58778 0.06129 0.0
O784 O 0.56686 0.5702 0.10585 0.0
C785 C 0.47003 0.56369 0.98167 0.0
O786 O 0.47411 0.51951 0.11888 0.0
O787 O 0.41864 0.48583 0.08891 0.0
O788 O 0.53811 0.46466 0.9885 0.0
O789 O 0.60501 0.48224 0.98646 0.0
C790 C 0.60504 0.55616 0.94591 0.0
C791 C 0.60224 0.59208 0.09495 0.0
C792 C 0.57509 0.48548 0.08216 0.0
O793 O 0.60574 0.5078 0.06595 0.0
O794 O 0.53909 0.48501 0.07883 0.0
C795 C 0.47174 0.59247 0.07609 0.0
O796 O 0.42075 0.46211 1.0003 0.0
O797 O 0.47711 0.48056 0.95644 0.0
C798 C 0.43812 0.49579 0.11774 0.0
C799 C 0.44107 0.45923 0.96638 0.0
Fe800 Fe 1.03591 0.48168 0.52895 0.0
O801 O 1.00908 0.52465 0.55853 0.0
Fe802 Fe 0.07562 0.51877 0.44517 0.0
Fe803 Fe 0.99963 0.53584 0.61378 0.0
O804 O 0.06695 0.52515 0.50048 0.0
O805 O 0.06655 0.52975 0.50052 0.0
O806 O 1.00874 0.52921 0.55863 0.0
Fe807 Fe 0.03981 0.57269 0.53056 0.0
C808 C 0.96696 0.44868 0.59124 0.0
O809 O 0.07948 0.49663 0.56457 0.0
O810 O 0.03865 0.5039 0.61924 0.0
O811 O 0.07825 0.61186 0.49549 0.0
O812 O 0.11647 0.57241 0.45394 0.0
O813 O 0.11156 0.48249 0.44998 0.0
O814 O 0.07068 0.44312 0.49174 0.0
O815 O 0.04563 0.58642 0.62177 0.0
O816 O 0.08388 0.59015 0.56564 0.0
C817 C 0.10169 0.45082 0.46515 0.0
O818 O 0.99596 0.55832 0.49505 0.0
O819 O 0.03635 0.55092 0.4402 0.0
O820 O 0.99728 0.44256 0.565 0.0
O821 O 0.95884 0.48293 0.60419 0.0
C822 C 0.0721 0.49854 0.60033 0.0
C823 C 0.07908 0.59883 0.60158 0.0
C824 C 0.9748 0.60376 0.59432 0.0
O825 O 0.96406 0.57153 0.60845 0.0
O826 O 1.00587 0.61162 0.56797 0.0
C827 C 0.10926 0.60659 0.47003 0.0
O828 O 1.02933 0.46828 0.43755 0.0
O829 O 0.99193 0.46406 0.49407 0.0
C830 C 1.00306 0.55664 0.4593 0.0
C831 C 0.99607 0.4561 0.45816 0.0
Fe832 Fe 0.5399 0.98009 0.53189 0.0
O833 O 0.51527 1.0231 0.56501 0.0
Fe834 Fe 0.58077 1.02247 0.45161 0.0
Fe835 Fe 0.50602 0.03227 0.62065 0.0
O836 O 0.57348 0.02519 0.50657 0.0
O837 O 0.57463 0.03038 0.50754 0.0
O838 O 0.51729 0.02792 0.56644 0.0
Fe839 Fe 0.54915 0.07289 0.54083 0.0
C840 C 0.46979 0.94466 0.5917 0.0
O841 O 0.58252 0.98903 0.56724 0.0
O842 O 0.54571 1.00028 0.62421 0.0
O843 O 0.58577 0.11375 0.50561 0.0
O844 O 0.62286 0.07529 0.4621 0.0
O845 O 0.61578 0.98426 0.45281 0.0
O846 O 0.5738 0.94228 0.49207 0.0
O847 O 0.55099 0.08331 0.62971 0.0
O848 O 0.59394 0.08813 0.57641 0.0
C849 C 0.60527 0.95145 0.46625 0.0
O850 O 0.50461 0.05935 0.50762 0.0
O851 O 0.54108 0.05693 0.45082 0.0
O852 O 0.49953 0.93918 0.56463 0.0
O853 O 0.46509 0.97895 0.6102 0.0
C854 C 0.57631 0.99052 0.60295 0.0
C855 C 0.58676 0.0939 0.61258 0.0
C856 C 0.48196 0.10171 0.60386 0.0
O857 O 0.47023 0.06856 0.61658 0.0
O858 O 0.51472 0.11072 0.57948 0.0
C859 C 0.61406 0.10896 0.47685 0.0
O860 O 0.53527 0.97163 0.44193 0.0
O861 O 0.49564 0.967 0.4969 0.0
C862 C 0.51043 0.06462 0.47372 0.0
C863 C 0.50158 0.95806 0.46104 0.0
H864 H 0.18274 0.18441 0.32932 0.0
H865 H 0.29051 0.20999 0.38103 0.0
H866 H 0.25634 0.16433 0.42416 0.0
H867 H 0.19321 0.12105 0.45161 0.0
H868 H 0.08733 0.09277 0.39678 0.0
H869 H 0.12369 0.1339 0.3499 0.0
C870 C 0.19908 0.17979 0.34947 0.0
C871 C 0.23914 0.20156 0.35175 0.0
C872 C 0.17956 0.15231 0.37374 0.0
C873 C 0.25952 0.19433 0.37841 0.0
C874 C 0.24001 0.16794 0.40328 0.0
C875 C 0.17869 0.12274 0.42855 0.0
C876 C 0.13763 0.10375 0.42768 0.0
C877 C 0.19974 0.14711 0.40168 0.0
C878 C 0.119 0.10694 0.39798 0.0
C879 C 0.13962 0.13087 0.37136 0.0
H880 H 0.80608 0.11376 0.46086 0.0
H881 H 0.88625 0.10956 0.35485 0.0
H882 H 0.93411 0.09002 0.38293 0.0
H883 H 0.95564 0.07867 0.43809 0.0
H884 H 0.87666 0.08067 0.54437 0.0
H885 H 0.82534 0.09555 0.51553 0.0
C886 C 0.83374 0.10799 0.4438 0.0
C887 C 0.84292 0.11407 0.40596 0.0
C888 C 0.86131 0.09642 0.46016 0.0
C889 C 0.8789 0.10631 0.38428 0.0
C890 C 0.90622 0.09485 0.40022 0.0
C891 C 0.92704 0.08212 0.45491 0.0
C892 C 0.92003 0.0792 0.49334 0.0
C893 C 0.89815 0.09069 0.43825 0.0
C894 C 0.88264 0.08286 0.51469 0.0
C895 C 0.8535 0.09159 0.49824 0.0
H896 H 0.84936 0.88683 0.35747 0.0
H897 H 0.89484 0.78299 0.3469 0.0
H898 H 0.9304 0.81387 0.40057 0.0
H899 H 0.94642 0.86881 0.45216 0.0
H900 H 0.91366 0.97798 0.45551 0.0
H901 H 0.87534 0.94666 0.4029 0.0
C902 C 0.86858 0.87164 0.36567 0.0
C903 C 0.86871 0.8323 0.34854 0.0
C904 C 0.89106 0.8904 0.39546 0.0
C905 C 0.89376 0.81311 0.35982 0.0
C906 C 0.91419 0.83072 0.3906 0.0
C907 C 0.93189 0.88619 0.44084 0.0
C908 C 0.93345 0.92578 0.4575 0.0
C909 C 0.91252 0.86903 0.40901 0.0
C910 C 0.91316 0.9474 0.4431 0.0
C911 C 0.89145 0.92961 0.41287 0.0
H912 H 0.08841 0.86597 0.29157 0.0
H913 H 1.02299 0.76699 0.34628 0.0
H914 H 0.9974 0.81105 0.3994 0.0
H915 H 1.01414 0.87586 0.43759 0.0
H916 H 0.08305 0.97664 0.38705 0.0
H917 H 0.08765 0.93387 0.32491 0.0
C918 C 0.06652 0.85409 0.31418 0.0
C919 C 0.06 0.81389 0.31663 0.0
C920 C 0.05418 0.88011 0.34602 0.0
C921 C 1.02989 0.7981 0.34449 0.0
C922 C 1.01569 0.82347 0.37537 0.0
C923 C 1.02855 0.88888 0.41276 0.0
C924 C 0.04907 0.92886 0.41675 0.0
C925 C 1.03098 0.86437 0.37779 0.0
C926 C 0.06772 0.94558 0.38452 0.0
C927 C 0.07018 0.92118 0.34909 0.0
H928 H 0.20148 0.97154 0.66696 0.0
H929 H 0.14494 0.84679 0.64939 0.0
H930 H 0.12763 0.85114 0.58912 0.0
H931 H 0.11673 0.89293 0.54919 0.0
H932 H 0.17418 1.01721 0.56447 0.0
H933 H 0.20465 1.01066 0.61719 0.0
C934 C 0.18621 0.9453 0.64935 0.0
C935 C 0.17362 0.90905 0.66255 0.0
C936 C 0.17653 0.94807 0.61466 0.0
C937 C 0.15444 0.87496 0.63964 0.0
C938 C 0.14459 0.87747 0.6053 0.0
C939 C 0.13725 0.91829 0.56313 0.0
C940 C 0.14142 0.95599 0.55477 0.0
C941 C 0.15388 0.91418 0.59347 0.0
C942 C 0.16906 0.98833 0.57188 0.0
C943 C 0.18625 0.98454 0.60207 0.0
H944 H 0.20769 0.14566 0.70266 0.0
H945 H 0.16849 0.25358 0.71695 0.0
H946 H 0.12939 0.22563 0.66504 0.0
H947 H 0.10879 0.17177 0.61275 0.0
H948 H 0.14287 0.06195 0.60183 0.0
H949 H 0.18141 0.08927 0.65421 0.0
C950 C 0.19008 0.16278 0.69481 0.0
C951 C 0.1917 0.20189 0.71351 0.0
C952 C 0.16726 0.14647 0.66469 0.0
C953 C 0.16845 0.22356 0.70286 0.0
C954 C 0.14606 0.20768 0.67295 0.0
C955 C 0.12489 0.15393 0.62163 0.0
C956 C 0.12407 0.11518 0.60214 0.0
C957 C 0.14589 0.16945 0.65304 0.0
C958 C 0.14405 0.09221 0.61519 0.0
C959 C 0.16583 0.10773 0.64559 0.0
H960 H 1.0356 0.24716 0.70604 0.0
H961 H 0.95691 0.2662 0.63755 0.0
H962 H 0.93887 0.19574 0.613 0.0
H963 H 0.94022 0.12917 0.61537 0.0
H964 H 0.03707 0.1111 0.66175 0.0
H965 H 0.0478 0.17925 0.69727 0.0
C966 C 1.01562 0.23581 0.68474 0.0
C967 C 0.99745 0.26157 0.67355 0.0
C968 C 1.00519 0.19509 0.6707 0.0
C969 C 0.97164 0.24691 0.64604 0.0
C970 C 0.95999 0.20653 0.63327 0.0
C971 C 0.96286 0.1399 0.63434 0.0
C972 C 0.98811 0.11564 0.63564 0.0
C973 C 0.97505 0.1804 0.64689 0.0
C974 C 1.01705 0.12923 0.66043 0.0
C975 C 1.02437 0.16864 0.67927 0.0
H976 H 0.8088 0.85929 0.70314 0.0
H977 H 0.91189 0.83377 0.73392 0.0
H978 H 0.95718 0.87741 0.6933 0.0
H979 H 0.96834 0.9195 0.64667 0.0
H980 H 0.8675 0.94363 0.61111 0.0
H981 H 0.82073 0.90481 0.65666 0.0
C982 C 0.84117 0.86341 0.70112 0.0
C983 C 0.85663 0.8431 0.72204 0.0
C984 C 0.86756 0.88849 0.67694 0.0
C985 C 0.89878 0.84899 0.71875 0.0
C986 C 0.9249 0.87399 0.69535 0.0
C987 C 0.9361 0.91663 0.64885 0.0
C988 C 0.92156 0.93431 0.62507 0.0
C989 C 0.90967 0.89347 0.67406 0.0
C990 C 0.87968 0.93062 0.62905 0.0
C991 C 0.85293 0.90802 0.65486 0.0
H992 H 0.42299 0.24936 0.20849 0.0
H993 H 0.31076 0.16136 0.22377 0.0
H994 H 0.3408 0.11154 0.1805 0.0
H995 H 0.39811 0.09191 0.13828 0.0
H996 H 0.51066 0.17823 0.11918 0.0
H997 H 0.4815 0.22921 0.16355 0.0
C998 C 0.40527 0.2192 0.20258 0.0
C999 C 0.36445 0.20938 0.21993 0.0
C1000 C 0.42281 0.19017 0.17677 0.0
C1001 C 0.34203 0.17012 0.21118 0.0
C1002 C 0.35925 0.1414 0.18629 0.0
C1003 C 0.41667 0.12178 0.14377 0.0
C1004 C 0.457 0.13071 0.12532 0.0
C1005 C 0.39953 0.15097 0.16893 0.0
C1006 C 0.47973 0.17009 0.13275 0.0
C1007 C 0.46297 0.19933 0.1583 0.0
H1008 H 0.82385 0.32105 0.16406 0.0
H1009 H 0.90407 0.35711 0.24804 0.0
H1010 H 0.95538 0.39601 0.2062 0.0
H1011 H 0.97522 0.42473 0.14762 0.0
H1012 H 0.89576 0.38795 0.06316 0.0
H1013 H 0.84685 0.34411 0.10263 0.0
C1014 C 0.85267 0.33732 0.17301 0.0
C1015 C 0.86006 0.33643 0.20917 0.0
C1016 C 0.88235 0.35934 0.14851 0.0
C1017 C 0.89773 0.35716 0.22027 0.0
C1018 C 0.92708 0.37953 0.19638 0.0
C1019 C 0.94779 0.40606 0.13746 0.0
C1020 C 0.93934 0.40884 0.1023 0.0
C1021 C 0.91956 0.38133 0.16062 0.0
C1022 C 0.9032 0.38548 0.08979 0.0
C1023 C 0.87503 0.36083 0.11257 0.0
H1024 H 0.71743 0.93276 0.15772 0.0
H1025 H 0.6019 0.90078 0.22636 0.0
H1026 H 0.57021 0.92617 0.18584 0.0
H1027 H 0.57451 0.95759 0.1309 0.0
H1028 H 0.69094 0.99092 0.06352 0.0
H1029 H 0.72204 0.96459 0.10301 0.0
C1030 C 0.68517 0.93067 0.16348 0.0
C1031 C 0.66229 0.91471 0.19517 0.0
C1032 C 0.66685 0.94562 0.14021 0.0
C1033 C 0.62051 0.91299 0.20237 0.0
C1034 C 0.60218 0.92739 0.17915 0.0
C1035 C 0.6067 0.95927 0.1249 0.0
C1036 C 0.62997 0.97649 0.09397 0.0
C1037 C 0.62497 0.94402 0.14806 0.0
C1038 C 0.67179 0.97806 0.08694 0.0
C1039 C 0.68987 0.96281 0.10956 0.0
H1040 H 0.27548 0.69782 0.16019 0.0
H1041 H 0.19683 0.6608 0.25856 0.0
H1042 H 0.14481 0.62182 0.21958 0.0
H1043 H 0.12002 0.60016 0.15663 0.0
H1044 H 0.19787 0.64451 0.06047 0.0
H1045 H 0.25037 0.67893 0.09908 0.0
C1046 C 0.2475 0.68011 0.17284 0.0
C1047 C 0.2407 0.68123 0.21209 0.0
C1048 C 0.21664 0.65973 0.15055 0.0
C1049 C 0.20332 0.65962 0.22826 0.0
C1050 C 0.17323 0.6378 0.206 0.0
C1051 C 0.14816 0.61785 0.14433 0.0
C1052 C 0.15461 0.61921 0.10531 0.0
C1053 C 0.17905 0.6382 0.16705 0.0
C1054 C 0.19175 0.64237 0.09018 0.0
C1055 C 0.22223 0.66199 0.11222 0.0
H1056 H 0.40945 0.84739 0.83602 0.0
H1057 H 0.29349 0.85971 0.89801 0.0
H1058 H 0.32586 0.90168 0.95075 0.0
H1059 H 0.3867 0.93417 0.97994 0.0
H1060 H 0.50343 0.92172 0.91938 0.0
H1061 H 0.47127 0.8806 0.86559 0.0
C1062 C 0.39128 0.85949 0.86085 0.0
C1063 C 0.34898 0.85162 0.86221 0.0
C1064 C 0.4103 0.88344 0.89156 0.0
C1065 C 0.32608 0.86695 0.89523 0.0
C1066 C 0.3446 0.89048 0.92575 0.0
C1067 C 0.40531 0.92254 0.95505 0.0
C1068 C 0.44758 0.93111 0.95401 0.0
C1069 C 0.38666 0.89902 0.92422 0.0
C1070 C 0.4709 0.91578 0.92117 0.0
C1071 C 0.45248 0.89214 0.89035 0.0
H1072 H 0.16574 0.29649 0.86576 0.0
H1073 H 0.26327 0.39073 0.82839 0.0
H1074 H 0.22995 0.43946 0.86857 0.0
H1075 H 0.17446 0.45687 0.91448 0.0
H1076 H 0.07679 0.36576 0.95664 0.0
H1077 H 0.10893 0.31498 0.91519 0.0
C1078 C 0.17996 0.32764 0.86667 0.0
C1079 C 0.21743 0.33928 0.84323 0.0
C1080 C 0.16049 0.35645 0.8909 0.0
C1081 C 0.23456 0.38016 0.84507 0.0
C1082 C 0.21547 0.40841 0.86843 0.0
C1083 C 0.15956 0.42599 0.91484 0.0
C1084 C 0.12252 0.4158 0.93902 0.0
C1085 C 0.17847 0.39705 0.89135 0.0
C1086 C 0.10488 0.37511 0.93853 0.0
C1087 C 0.12347 0.34591 0.91472 0.0
H1088 H 0.67821 0.18406 0.83459 0.0
H1089 H 0.77117 0.25115 0.90184 0.0
H1090 H 0.73309 0.22204 0.95653 0.0
H1091 H 0.67565 0.1735 0.98379 0.0
H1092 H 0.58486 0.10402 0.91551 0.0
H1093 H 0.6191 0.13824 0.86287 0.0
C1094 C 0.68984 0.19247 0.86136 0.0
C1095 C 0.72729 0.21954 0.8643 0.0
C1096 C 0.6679 0.17545 0.89258 0.0
C1097 C 0.74245 0.23001 0.8989 0.0
C1098 C 0.72059 0.21364 0.93024 0.0
C1099 C 0.66266 0.16724 0.95786 0.0
C1100 C 0.62705 0.13759 0.95376 0.0
C1101 C 0.68343 0.18605 0.92732 0.0
C1102 C 0.61125 0.12807 0.91962 0.0
C1103 C 0.63132 0.14702 0.88932 0.0
H1104 H 0.96069 0.62854 0.85945 0.0
H1105 H 0.91419 0.71495 0.94616 0.0
H1106 H 0.92087 0.68075 0.99451 0.0
H1107 H 0.94383 0.62836 1.01294 0.0
H1108 H 0.99811 0.54768 0.92647 0.0
H1109 H 0.98536 0.57805 0.87755 0.0
C1110 C 0.95249 0.64051 0.88885 0.0
C1111 C 0.93689 0.67466 0.8986 0.0
C1112 C 0.958 0.62165 0.91682 0.0
C1113 C 0.92551 0.68848 0.9372 0.0
C1114 C 0.92972 0.66909 0.96513 0.0
C1115 C 0.95234 0.61722 0.98333 0.0
C1116 C 0.97149 0.58558 0.97322 0.0
C1117 C 0.94627 0.63585 0.95534 0.0
C1118 C 0.98322 0.57192 0.93485 0.0
C1119 C 0.97598 0.58931 0.90691 0.0
H1120 H 0.16386 0.45261 0.20902 0.0
H1121 H 0.1503 0.33565 0.14153 0.0
H1122 H 0.13293 0.3593 0.09068 0.0
H1123 H 0.1189 0.41273 0.0658 0.0
H1124 H 0.12798 0.52811 0.1347 0.0
H1125 H 0.14899 0.50553 0.18474 0.0
C1126 C 0.15672 0.43204 0.18342 0.0
C1127 C 0.15857 0.39224 0.17947 0.0
C1128 C 0.1457 0.44561 0.15447 0.0
C1129 C 0.14995 0.36655 0.14547 0.0
C1130 C 0.13959 0.37996 0.11635 0.0
C1131 C 0.1257 0.43281 0.09178 0.0
C1132 C 0.12219 0.472 0.09675 0.0
C1133 C 0.13712 0.41934 0.12059 0.0
C1134 C 0.13068 0.49786 0.13045 0.0
C1135 C 0.14263 0.48491 0.15898 0.0
H1136 H 0.16451 0.73155 0.8697 0.0
H1137 H 0.28025 0.70342 0.85744 0.0
H1138 H 0.25335 0.65926 0.90282 0.0
H1139 H 0.19744 0.62745 0.94558 0.0
H1140 H 0.08198 0.6566 0.96264 0.0
H1141 H 0.10835 0.70196 0.91675 0.0
C1142 C 0.18374 0.71569 0.87695 0.0
C1143 C 0.22431 0.72041 0.85933 0.0
C1144 C 0.16824 0.69074 0.90435 0.0
C1145 C 0.24885 0.70002 0.8697 0.0
C1146 C 0.23355 0.6748 0.896 0.0
C1147 C 0.17801 0.64384 0.93942 0.0
C1148 C 0.13779 0.6385 0.95737 0.0
C1149 C 0.19337 0.66979 0.91337 0.0
C1150 C 0.11319 0.66039 0.94941 0.0
C1151 C 0.1282 0.68609 0.92295 0.0
H1152 H 0.43614 0.12366 0.86059 0.0
H1153 H 0.31438 0.09743 0.9196 0.0
H1154 H 0.33842 0.07654 0.96872 0.0
H1155 H 0.39383 0.06298 0.99389 0.0
H1156 H 0.51474 0.08726 0.93292 0.0
H1157 H 0.49102 0.11058 0.88549 0.0
C1158 C 0.41456 0.11307 0.88395 0.0
C1159 C 0.37316 0.11197 0.88578 0.0
C1160 C 0.42849 0.10027 0.91179 0.0
C1161 C 0.34634 0.09912 0.9172 0.0
C1162 C 0.36008 0.08674 0.94526 0.0
C1163 C 0.41508 0.07328 0.97021 0.0
C1164 C 0.45634 0.07313 0.96726 0.0
C1165 C 0.40105 0.08672 0.94268 0.0
C1166 C 0.48305 0.08686 0.93623 0.0
C1167 C 0.46942 0.10031 0.90898 0.0
H1168 H 0.88688 0.32891 0.86054 0.0
H1169 H 0.79874 0.39914 0.88385 0.0
H1170 H 0.83752 0.44657 0.93048 0.0
H1171 H 0.89578 0.46716 0.96617 0.0
H1172 H 0.98703 0.40016 0.93822 0.0
H1173 H 0.94837 0.35303 0.8914 0.0
C1174 C 0.87626 0.35475 0.87557 0.0
C1175 C 0.83967 0.36022 0.86875 0.0
C1176 C 0.8995 0.38266 0.90145 0.0
C1177 C 0.82666 0.39408 0.88846 0.0
C1178 C 0.84888 0.42124 0.91519 0.0
C1179 C 0.90737 0.44242 0.94957 0.0
C1180 C 0.94425 0.43715 0.95595 0.0
C1181 C 0.88525 0.41574 0.9221 0.0
C1182 C 0.95897 0.40514 0.93386 0.0
C1183 C 0.93667 0.37798 0.90723 0.0
H1184 H 0.66376 0.80094 0.86564 0.0
H1185 H 0.77227 0.89077 0.84185 0.0
H1186 H 0.74105 0.94141 0.88249 0.0
H1187 H 0.68359 0.96096 0.92479 0.0
H1188 H 0.5747 0.87268 0.95144 0.0
H1189 H 0.60515 0.82113 0.90978 0.0
C1190 C 0.68042 0.83165 0.8692 0.0
C1191 C 0.72054 0.84181 0.85043 0.0
C1192 C 0.66213 0.86109 0.89316 0.0
C1193 C 0.74164 0.8818 0.85587 0.0
C1194 C 0.72368 0.91095 0.87912 0.0
C1195 C 0.66609 0.93053 0.92151 0.0
C1196 C 0.62642 0.92116 0.94134 0.0
C1197 C 0.684 0.90102 0.8979 0.0
C1198 C 0.60507 0.88115 0.93673 0.0
C1199 C 0.62257 0.85156 0.91278 0.0
H1200 H 0.89549 0.74295 0.18793 0.0
H1201 H 0.83982 0.65694 0.261 0.0
H1202 H 0.88187 0.61358 0.2251 0.0
H1203 H 0.9322 0.59727 0.17162 0.0
H1204 H 0.98887 0.68036 0.09614 0.0
H1205 H 0.94943 0.72703 0.13405 0.0
C1206 C 0.89227 0.7147 0.19589 0.0
C1207 C 0.86342 0.70378 0.22751 0.0
C1208 C 0.91718 0.68902 0.17459 0.0
C1209 C 0.86108 0.66694 0.23727 0.0
C1210 C 0.88536 0.64172 0.21654 0.0
C1211 C 0.93653 0.62573 0.16337 0.0
C1212 C 0.96408 0.6348 0.13062 0.0
C1213 C 0.91326 0.65216 0.185 0.0
C1214 C 0.96867 0.67225 0.12116 0.0
C1215 C 0.94562 0.69892 0.14279 0.0
H1216 H 0.39592 0.86788 0.23053 0.0
H1217 H 0.34832 0.76885 0.14787 0.0
H1218 H 0.38767 0.80369 0.09673 0.0
H1219 H 0.43158 0.8651 0.07599 0.0
H1220 H 0.47811 0.9636 0.15973 0.0
H1221 H 0.44413 0.926 0.21006 0.0
C1222 C 0.3944 0.85394 0.20128 0.0
C1223 C 0.36913 0.81627 0.19272 0.0
C1224 C 0.41727 0.87392 0.17231 0.0
C1225 C 0.36766 0.79806 0.15488 0.0
C1226 C 0.39008 0.81794 0.12574 0.0
C1227 C 0.43519 0.87762 0.10519 0.0
C1228 C 0.45739 0.91672 0.1144 0.0
C1229 C 0.41469 0.85612 0.13411 0.0
C1230 C 0.46131 0.9333 0.15226 0.0
C1231 C 0.44161 0.91203 0.18099 0.0
H1232 H 0.67878 0.17844 0.23461 0.0
H1233 H 0.77169 0.24455 0.16073 0.0
H1234 H 0.74099 0.20462 0.10572 0.0
H1235 H 0.68639 0.1525 0.07875 0.0
H1236 H 0.58906 0.09097 0.15271 0.0
H1237 H 0.62209 0.12781 0.20753 0.0
C1238 C 0.6923 0.18376 0.20637 0.0
C1239 C 0.72756 0.21412 0.20151 0.0
C1240 C 0.67332 0.16187 0.175 0.0
C1241 C 0.74457 0.2213 0.16498 0.0
C1242 C 0.72697 0.19854 0.1336 0.0
C1243 C 0.67241 0.14709 0.10687 0.0
C1244 C 0.63532 0.11887 0.11157 0.0
C1245 C 0.6911 0.16905 0.13827 0.0
C1246 C 0.61742 0.11265 0.14828 0.0
C1247 C 0.63644 0.13356 0.17962 0.0
H1248 H 0.66309 0.69468 0.85102 0.0
H1249 H 0.76717 0.64466 0.81772 0.0
H1250 H 0.73317 0.59063 0.85251 0.0
H1251 H 0.67561 0.56015 0.89685 0.0
H1252 H 0.57475 0.61396 0.93436 0.0
H1253 H 0.60467 0.66277 0.893 0.0
C1254 C 0.67794 0.67145 0.85062 0.0
C1255 C 0.71758 0.67369 0.83151 0.0
C1256 C 0.65844 0.64073 0.87137 0.0
C1257 C 0.7367 0.64377 0.83219 0.0
C1258 C 0.71726 0.61281 0.85214 0.0
C1259 C 0.65982 0.58195 0.89505 0.0
C1260 C 0.62164 0.5818 0.91679 0.0
C1261 C 0.67838 0.6113 0.87244 0.0
C1262 C 0.60243 0.61141 0.91564 0.0
C1263 C 0.62016 0.64007 0.89271 0.0
H1264 H 0.46093 0.60157 0.82427 0.0
H1265 H 0.34135 0.60899 0.8808 0.0
H1266 H 0.3575 0.59877 0.9391 0.0
H1267 H 0.40494 0.58669 0.97384 0.0
H1268 H 0.52039 0.56922 0.91536 0.0
H1269 H 0.50746 0.58601 0.85852 0.0
C1270 C 0.4383 0.60044 0.84923 0.0
C1271 C 0.4002 0.60642 0.84833 0.0
C1272 C 0.44756 0.59402 0.88263 0.0
C1273 C 0.37119 0.60512 0.88096 0.0
C1274 C 0.38035 0.5993 0.91432 0.0
C1275 C 0.42753 0.58733 0.94881 0.0
C1276 C 0.46466 0.57918 0.94941 0.0
C1277 C 0.41849 0.59397 0.91552 0.0
C1278 C 0.49311 0.57866 0.91649 0.0
C1279 C 0.48507 0.58692 0.88359 0.0
H1280 H 0.32506 0.37427 0.84642 0.0
H1281 H 0.40683 0.29717 0.81627 0.0
H1282 H 0.44891 0.33934 0.86333 0.0
H1283 H 0.46002 0.39674 0.91556 0.0
H1284 H 0.37276 0.46818 0.94962 0.0
H1285 H 0.33486 0.42964 0.89867 0.0
C1286 C 0.35255 0.36722 0.8497 0.0
C1287 C 0.36344 0.3333 0.82775 0.0
C1288 C 0.37509 0.39026 0.87789 0.0
C1289 C 0.39831 0.32351 0.83285 0.0
C1290 C 0.42212 0.34744 0.8598 0.0
C1291 C 0.43271 0.40363 0.91159 0.0
C1292 C 0.41881 0.43484 0.93605 0.0
C1293 C 0.41044 0.38058 0.88291 0.0
C1294 C 0.38347 0.44382 0.93113 0.0
C1295 C 0.36201 0.42202 0.90198 0.0
H1296 H 0.54318 0.27306 0.95643 0.0
H1297 H 0.6584 0.30342 0.99541 0.0
H1298 H 0.65191 0.37127 1.0196 0.0
H1299 H 0.62435 0.42494 1.00904 0.0
H1300 H 0.51326 0.39345 0.9611 0.0
H1301 H 0.50844 0.32377 0.95851 0.0
C1302 C 0.566 0.29402 0.9719 0.0
C1303 C 0.60304 0.28495 0.97076 0.0
C1304 C 0.56424 0.33368 0.98105 0.0
C1305 C 0.63052 0.31079 0.99396 0.0
C1306 C 0.62756 0.35002 1.00646 0.0
C1307 C 0.59924 0.40274 0.99798 0.0
C1308 C 0.57017 0.41417 0.98384 0.0
C1309 C 0.59664 0.36246 0.99636 0.0
C1310 C 0.53674 0.3853 0.9711 0.0
C1311 C 0.53358 0.34543 0.97008 0.0
H1312 H 0.61196 0.46163 0.23477 0.0
H1313 H 0.71098 0.42224 0.16038 0.0
H1314 H 0.68245 0.42556 0.10541 0.0
H1315 H 0.63395 0.44784 0.07917 0.0
H1316 H 0.53469 0.48676 0.15348 0.0
H1317 H 0.55782 0.47441 0.20769 0.0
C1318 C 0.62686 0.45323 0.20646 0.0
C1319 C 0.66372 0.44216 0.20151 0.0
C1320 C 0.61011 0.45497 0.17502 0.0
C1321 C 0.6826 0.43087 0.16479 0.0
C1322 C 0.66638 0.43291 0.1334 0.0
C1323 C 0.61674 0.45239 0.10711 0.0
C1324 C 0.58236 0.46768 0.11229 0.0
C1325 C 0.63075 0.44596 0.13822 0.0
C1326 C 0.56051 0.47389 0.14864 0.0
C1327 C 0.57421 0.46755 0.17974 0.0
H1328 H 0.70532 0.73295 0.19598 0.0
H1329 H 0.71349 0.63634 0.24565 0.0
H1330 H 0.6679 0.58998 0.20465 0.0
H1331 H 0.62772 0.57635 0.15293 0.0
H1332 H 0.62447 0.67166 0.09954 0.0
H1333 H 0.66591 0.7194 0.14413 0.0
C1334 C 0.69723 0.7018 0.19793 0.0
C1335 C 0.71289 0.6883 0.22395 0.0
C1336 C 0.67168 0.67515 0.17376 0.0
C1337 C 0.702 0.64769 0.22589 0.0
C1338 C 0.67583 0.62109 0.20252 0.0
C1339 C 0.63571 0.60772 0.15165 0.0
C1340 C 0.623 0.62101 0.12379 0.0
C1341 C 0.66068 0.63447 0.17626 0.0
C1342 C 0.63394 0.66128 0.12128 0.0
C1343 C 0.65766 0.68836 0.14654 0.0
H1344 H 0.43176 0.75739 0.1241 0.0
H1345 H 0.55754 0.79136 0.13781 0.0
H1346 H 0.56653 0.72719 0.10244 0.0
H1347 H 0.53417 0.6572 0.08448 0.0
H1348 H 0.40661 0.62156 0.07607 0.0
H1349 H 0.40244 0.69062 0.09297 0.0
C1350 C 0.46153 0.7514 0.11751 0.0
C1351 C 0.49368 0.77832 0.13417 0.0
C1352 C 0.46556 0.71351 0.0999 0.0
C1353 C 0.53232 0.77079 0.12541 0.0
C1354 C 0.5372 0.73377 0.10595 0.0
C1355 C 0.5055 0.66448 0.08583 0.0
C1356 C 0.47022 0.63422 0.08103 0.0
C1357 C 0.50328 0.70405 0.09593 0.0
C1358 C 0.43377 0.64428 0.08139 0.0
C1359 C 0.43147 0.68374 0.0906 0.0
H1360 H 0.31958 0.3959 0.23441 0.0
H1361 H 0.42336 0.34716 0.22186 0.0
H1362 H 0.46308 0.39575 0.18327 0.0
H1363 H 0.46722 0.44871 0.14846 0.0
H1364 H 0.36308 0.49514 0.15691 0.0
H1365 H 0.32484 0.45136 0.20157 0.0
C1366 C 0.35093 0.39607 0.22339 0.0
C1367 C 0.36846 0.36812 0.23163 0.0
C1368 C 0.37368 0.42389 0.20041 0.0
C1369 C 0.40914 0.36873 0.21682 0.0
C1370 C 0.43196 0.39644 0.19445 0.0
C1371 C 0.43667 0.45019 0.16119 0.0
C1372 C 0.41829 0.47572 0.15022 0.0
C1373 C 0.41452 0.42394 0.18576 0.0
C1374 C 0.378 0.47609 0.16548 0.0
C1375 C 0.35605 0.45083 0.19074 0.0
H1376 H 0.90474 0.7409 0.70514 0.0
H1377 H 0.79715 0.64571 0.70736 0.0
H1378 H 0.83239 0.60283 0.65951 0.0
H1379 H 0.89453 0.59049 0.61961 0.0
H1380 H 1.00266 0.68452 0.61494 0.0
H1381 H 0.96653 0.72971 0.66012 0.0
C1382 C 0.88917 0.71068 0.69526 0.0
C1383 C 0.84832 0.69647 0.71044 0.0
C1384 C 0.90965 0.68602 0.66684 0.0
C1385 C 0.82847 0.65749 0.69655 0.0
C1386 C 0.84863 0.63288 0.66902 0.0
C1387 C 0.91007 0.62114 0.62781 0.0
C1388 C 0.95136 0.63399 0.61359 0.0
C1389 C 0.88925 0.64664 0.65417 0.0
C1390 C 0.97084 0.67384 0.62476 0.0
C1391 C 0.95025 0.69956 0.65112 0.0
H1392 H 0.37516 0.79549 0.66692 0.0
H1393 H 0.31378 0.88377 0.73263 0.0
H1394 H 0.34797 0.929 0.68943 0.0
H1395 H 0.39984 0.94659 0.63821 0.0
H1396 H 0.47311 0.86566 0.57905 0.0
H1397 H 0.42971 0.81426 0.6142 0.0
C1398 C 0.36932 0.82458 0.67177 0.0
C1399 C 0.34141 0.83593 0.70301 0.0
C1400 C 0.39153 0.85185 0.64809 0.0
C1401 C 0.3342 0.87377 0.70861 0.0
C1402 C 0.35412 0.8999 0.68402 0.0
C1403 C 0.40662 0.91773 0.63258 0.0
C1404 C 0.44028 0.91038 0.60627 0.0
C1405 C 0.38348 0.88962 0.65436 0.0
C1406 C 0.44751 0.8723 0.59908 0.0
C1407 C 0.4229 0.84305 0.61947 0.0
H1408 H 0.16503 0.47118 0.71943 0.0
H1409 H 0.22793 0.41214 0.61979 0.0
H1410 H 0.18852 0.4296 0.58025 0.0
H1411 H 0.13445 0.46074 0.57421 0.0
H1412 H 0.07489 0.5215 0.67514 0.0
H1413 H 0.1159 0.50563 0.71339 0.0
C1414 C 0.17092 0.4627 0.68903 0.0
C1415 C 0.19958 0.44028 0.67288 0.0
C1416 C 0.14881 0.47346 0.66643 0.0
C1417 C 0.20565 0.42882 0.63331 0.0
C1418 C 0.18334 0.43912 0.61055 0.0
C1419 C 0.1309 0.47089 0.60448 0.0
C1420 C 0.10127 0.492 0.62166 0.0
C1421 C 0.1546 0.46132 0.62681 0.0
C1422 C 0.09706 0.50485 0.66103 0.0
C1423 C 0.12049 0.49574 0.6831 0.0
H1424 H 0.69058 0.1714 0.74565 0.0
H1425 H 0.77714 0.22267 0.65811 0.0
H1426 H 0.73326 0.18425 0.61072 0.0
H1427 H 0.666 0.13984 0.5954 0.0
H1428 H 0.58076 0.09258 0.68677 0.0
H1429 H 0.62781 0.12552 0.73064 0.0
C1430 C 0.70028 0.17363 0.71605 0.0
C1431 C 0.73709 0.19986 0.7055 0.0
C1432 C 0.67448 0.15246 0.68942 0.0
C1433 C 0.74914 0.20238 0.66701 0.0
C1434 C 0.72371 0.18073 0.63997 0.0
C1435 C 0.65791 0.13655 0.62481 0.0
C1436 C 0.61912 0.11378 0.63731 0.0
C1437 C 0.68561 0.15628 0.65094 0.0
C1438 C 0.60968 0.11013 0.67582 0.0
C1439 C 0.63681 0.12888 0.70127 0.0
H1440 H 0.84847 0.32827 0.3935 0.0
H1441 H 0.87348 0.40628 0.31241 0.0
H1442 H 0.92849 0.45043 0.34505 0.0
H1443 H 0.97149 0.46531 0.39531 0.0
H1444 H 0.9426 0.39037 0.47951 0.0
H1445 H 0.88728 0.3465 0.4471 0.0
C1446 C 0.86584 0.35509 0.38317 0.0
C1447 C 0.85708 0.36391 0.35047 0.0
C1448 C 0.89692 0.38068 0.40251 0.0
C1449 C 0.87948 0.39897 0.33762 0.0
C1450 C 0.91111 0.42407 0.35614 0.0
C1451 C 0.95296 0.43941 0.40654 0.0
C1452 C 0.96139 0.43076 0.43947 0.0
C1453 C 0.92043 0.41499 0.38836 0.0
C1454 C 0.93675 0.39754 0.45416 0.0
C1455 C 0.90517 0.37244 0.43559 0.0
H1456 H 0.75076 0.87582 0.3819 0.0
H1457 H 0.654 0.78483 0.33641 0.0
H1458 H 0.60413 0.81814 0.37743 0.0
H1459 H 0.58776 0.87599 0.4242 0.0
H1460 H 0.6852 0.96692 0.46879 0.0
H1461 H 0.73437 0.9309 0.43127 0.0
C1462 C 0.71874 0.86334 0.38097 0.0
C1463 C 0.70629 0.82782 0.35589 0.0
C1464 C 0.69005 0.88261 0.40505 0.0
C1465 C 0.66457 0.81199 0.35541 0.0
C1466 C 0.63594 0.8311 0.37897 0.0
C1467 C 0.61963 0.88724 0.42655 0.0
C1468 C 0.63255 0.92389 0.45009 0.0
C1469 C 0.6482 0.86664 0.40387 0.0
C1470 C 0.67424 0.93854 0.4516 0.0
C1471 C 0.70252 0.91812 0.42974 0.0
H1472 H 0.19411 0.73802 0.37124 0.0
H1473 H 0.28478 0.67029 0.35015 0.0
H1474 H 0.24765 0.63231 0.39823 0.0
H1475 H 0.18739 0.61367 0.44208 0.0
H1476 H 0.09201 0.6747 0.46063 0.0
H1477 H 0.13347 0.72067 0.41893 0.0
C1478 C 0.20574 0.71503 0.37726 0.0
C1479 C 0.24256 0.70748 0.35703 0.0
C1480 C 0.18352 0.6922 0.40481 0.0
C1481 C 0.25706 0.67749 0.36537 0.0
C1482 C 0.23573 0.65547 0.39294 0.0
C1483 C 0.17584 0.63744 0.43752 0.0
C1484 C 0.13665 0.64059 0.45407 0.0
C1485 C 0.19879 0.66215 0.41236 0.0
C1486 C 0.12228 0.67183 0.44836 0.0
C1487 C 0.14574 0.6977 0.42407 0.0
H1488 H 0.39915 0.1763 0.47026 0.0
H1489 H 0.48939 0.20682 0.37569 0.0
H1490 H 0.52168 0.15537 0.38059 0.0
H1491 H 0.5269 0.10499 0.41478 0.0
H1492 H 0.43754 0.0764 0.51073 0.0
H1493 H 0.40194 0.12323 0.50181 0.0
C1494 C 0.42585 0.17161 0.45069 0.0
C1495 C 0.44204 0.19553 0.42287 0.0
C1496 C 0.4443 0.14214 0.45379 0.0
C1497 C 0.47624 0.18868 0.39727 0.0
C1498 C 0.49478 0.15934 0.40013 0.0
C1499 C 0.49929 0.10846 0.43335 0.0
C1500 C 0.4852 0.08732 0.46356 0.0
C1501 C 0.47937 0.13622 0.42862 0.0
C1502 C 0.44927 0.09234 0.48733 0.0
C1503 C 0.42894 0.1193 0.48239 0.0
H1504 H 0.65132 0.94115 0.72124 0.0
H1505 H 0.62845 0.82963 0.64496 0.0
H1506 H 0.61152 0.86139 0.59945 0.0
H1507 H 0.5951 0.91927 0.58479 0.0
H1508 H 0.61285 0.02897 0.66364 0.0
H1509 H 0.64044 0.99998 0.70432 0.0
C1510 C 0.64271 0.92381 0.69463 0.0
C1511 C 0.64073 0.88299 0.68677 0.0
C1512 C 0.63228 0.9421 0.6689 0.0
C1513 C 0.63038 0.86113 0.65174 0.0
C1514 C 0.62051 0.87925 0.62572 0.0
C1515 C 0.60636 0.93705 0.61024 0.0
C1516 C 0.60254 0.97629 0.62113 0.0
C1517 C 0.62045 0.91953 0.63435 0.0
C1518 C 0.61605 0.99887 0.65464 0.0
C1519 C 0.6314 0.98215 0.67806 0.0
H1520 H 0.67481 0.1908 0.33462 0.0
H1521 H 0.74326 0.28129 0.41139 0.0
H1522 H 0.70843 0.24655 0.46423 0.0
H1523 H 0.66292 0.18555 0.48691 0.0
H1524 H 0.59679 0.09621 0.40703 0.0
H1525 H 0.62525 0.13544 0.35775 0.0
C1526 C 0.68175 0.20307 0.36304 0.0
C1527 C 0.71194 0.23789 0.36916 0.0
C1528 C 0.66176 0.18305 0.39291 0.0
C1529 C 0.72024 0.25413 0.4061 0.0
C1530 C 0.70043 0.23421 0.43623 0.0
C1531 C 0.65416 0.17535 0.45896 0.0
C1532 C 0.62738 0.13809 0.45085 0.0
C1533 C 0.67174 0.19794 0.42985 0.0
C1534 C 0.61678 0.12494 0.41427 0.0
C1535 C 0.63336 0.14721 0.38581 0.0
H1536 H 0.90316 0.57711 0.34154 0.0
H1537 H 0.8293 0.62004 0.44236 0.0
H1538 H 0.87421 0.60941 0.48123 0.0
H1539 H 0.93453 0.58617 0.48636 0.0
H1540 H 1.00462 0.54086 0.38352 0.0
H1541 H 0.96036 0.55286 0.34623 0.0
C1542 C 0.8963 0.58369 0.37204 0.0
C1543 C 0.86244 0.599 0.38878 0.0
C1544 C 0.92157 0.57667 0.39412 0.0
C1545 C 0.85522 0.60849 0.42846 0.0
C1546 C 0.88075 0.60207 0.45078 0.0
C1547 C 0.93993 0.57876 0.45583 0.0
C1548 C 0.97331 0.56281 0.43805 0.0
C1549 C 0.914 0.58585 0.43393 0.0
C1550 C 0.97966 0.5535 0.39832 0.0
C1551 C 0.95427 0.56035 0.37672 0.0
H1552 H 0.40519 0.8125 0.35565 0.0
H1553 H 0.31929 0.88521 0.37951 0.0
H1554 H 0.36107 0.93386 0.42301 0.0
H1555 H 0.42469 0.95803 0.45188 0.0
H1556 H 0.51232 0.88709 0.42339 0.0
H1557 H 0.46746 0.83573 0.3847 0.0
C1558 C 0.39515 0.83861 0.37082 0.0
C1559 C 0.35871 0.84474 0.36442 0.0
C1560 C 0.41998 0.86711 0.39505 0.0
C1561 C 0.34699 0.87944 0.38383 0.0
C1562 C 0.37098 0.90741 0.40876 0.0
C1563 C 0.43352 0.931 0.43764 0.0
C1564 C 0.4716 0.92613 0.44089 0.0
C1565 C 0.40788 0.9019 0.4143 0.0
C1566 C 0.48308 0.89138 0.42157 0.0
C1567 C 0.45745 0.86202 0.39934 0.0
H1568 H 0.17804 0.30901 0.37016 0.0
H1569 H 0.28514 0.40446 0.36486 0.0
H1570 H 0.24736 0.45031 0.4055 0.0
H1571 H 0.18289 0.46476 0.43981 0.0
H1572 H 0.07639 0.36942 0.44937 0.0
H1573 H 0.11468 0.32245 0.41062 0.0
C1574 C 0.19316 0.33983 0.37801 0.0
C1575 C 0.2346 0.35312 0.36378 0.0
C1576 C 0.17121 0.36624 0.40241 0.0
C1577 C 0.25352 0.39314 0.375 0.0
C1578 C 0.2318 0.41953 0.39832 0.0
C1579 C 0.1681 0.43357 0.434 0.0
C1580 C 0.1265 0.42089 0.44779 0.0
C1581 C 0.19053 0.40662 0.41188 0.0
C1582 C 0.10824 0.38022 0.43978 0.0
C1583 C 0.13017 0.35333 0.41718 0.0
H1584 H 0.4061 0.24147 0.70334 0.0
H1585 H 0.29786 0.1475 0.70206 0.0
H1586 H 0.336 0.10192 0.66086 0.0
H1587 H 0.40064 0.08795 0.62698 0.0
H1588 H 0.50824 0.18276 0.62301 0.0
H1589 H 0.46984 0.22907 0.66292 0.0
C1590 C 0.39088 0.21112 0.69364 0.0
C1591 C 0.34918 0.19774 0.70616 0.0
C1592 C 0.4129 0.18534 0.66858 0.0
C1593 C 0.3299 0.15838 0.69323 0.0
C1594 C 0.35173 0.13236 0.66952 0.0
C1595 C 0.41568 0.11889 0.63435 0.0
C1596 C 0.45755 0.13164 0.6219 0.0
C1597 C 0.39329 0.14538 0.65719 0.0
C1598 C 0.47618 0.172 0.63171 0.0
C1599 C 0.45422 0.19845 0.65497 0.0
H1600 H 0.8635 0.3024 0.66917 0.0
H1601 H 0.83725 0.40004 0.75471 0.0
H1602 H 0.87992 0.44665 0.7161 0.0
H1603 H 0.92419 0.46032 0.65993 0.0
H1604 H 0.95483 0.36631 0.57225 0.0
H1605 H 0.9117 0.31734 0.61068 0.0
C1606 C 0.86711 0.3339 0.67918 0.0
C1607 C 0.84611 0.34765 0.71449 0.0
C1608 C 0.89266 0.36103 0.65679 0.0
C1609 C 0.85159 0.38849 0.72728 0.0
C1610 C 0.8765 0.41528 0.70537 0.0
C1611 C 0.92135 0.42915 0.6484 0.0
C1612 C 0.94213 0.41712 0.61259 0.0
C1613 C 0.89685 0.40186 0.67019 0.0
C1614 C 0.93884 0.37647 0.59945 0.0
C1615 C 0.91414 0.34856 0.62141 0.0
H1616 H 0.22181 0.7318 0.66989 0.0
H1617 H 0.18785 0.66099 0.75783 0.0
H1618 H 0.13583 0.61447 0.72315 0.0
H1619 H 0.0983 0.59508 0.6688 0.0
H1620 H 0.13567 0.66221 0.578 0.0
H1621 H 0.18802 0.70884 0.61251 0.0
C1622 C 0.20308 0.70606 0.68128 0.0
C1623 C 0.20847 0.69995 0.71649 0.0
C1624 C 0.17378 0.67885 0.66068 0.0
C1625 C 0.18436 0.66625 0.73076 0.0
C1626 C 0.15451 0.63974 0.711 0.0
C1627 C 0.11807 0.61981 0.6565 0.0
C1628 C 0.11285 0.62538 0.62103 0.0
C1629 C 0.1487 0.64589 0.6761 0.0
C1630 C 0.13906 0.65725 0.60522 0.0
C1631 C 0.1689 0.684 0.62503 0.0
loop_
_geom_bond_atom_site_label_1
_geom_bond_atom_site_label_2
_geom_bond_distance
_geom_bond_site_symmetry_2
_ccdc_geom_bond_type
Tb0 N29 2.617 . S
Tb0 N35 2.572 . S
Tb0 O44 2.465 . S
Tb0 O45 2.387 . S
Tb0 O47 2.428 . S
Tb0 O48 2.308 . S
Tb0 O52 2.349 . S
Tb0 O55 2.393 . S
Tb0 C64 2.802 . S
C1 N2 1.379 . S
C1 C4 1.416 . S
C1 C8 1.424 . S
N2 C1 1.379 . S
N2 C5 1.334 . S
N2 Tb11 2.617 . S
C3 C5 1.390 . S
C3 C6 1.339 . S
C3 H23 0.930 . S
C4 C1 1.416 . S
C4 C6 1.416 . S
C4 C10 1.448 . S
C5 N2 1.334 . S
C5 C3 1.390 . S
C5 H16 0.930 . S
C6 C3 1.339 . S
C6 C4 1.416 . S
C6 H27 0.930 . S
C7 C8 1.413 . S
C7 C9 1.427 . S
C7 C13 1.416 . S
C8 C1 1.424 . S
C8 C7 1.413 . S
C8 N12 1.361 . S
C9 C7 1.427 . S
C9 C10 1.328 . S
C9 H24 0.929 . S
C10 C4 1.448 . S
C10 C9 1.328 . S
C10 H25 0.930 . S
Tb11 N2 2.617 . S
Tb11 N12 2.572 . S
Tb11 O46 2.349 . S
Tb11 O49 2.393 . S
Tb11 O50 2.465 . S
Tb11 O51 2.387 . S
Tb11 O53 2.428 . S
Tb11 O54 2.308 . S
Tb11 C75 2.802 . S
N12 C8 1.361 . S
N12 Tb11 2.572 . S
N12 C14 1.340 . S
C13 C7 1.416 . S
C13 C15 1.332 . S
C13 H21 0.931 . S
C14 N12 1.340 . S
C14 C15 1.407 . S
C14 H20 0.930 . S
C15 C13 1.332 . S
C15 C14 1.407 . S
C15 H17 0.929 . S
H16 C5 0.930 . S
H17 C15 0.929 . S
H18 C33 0.930 . S
H19 C40 0.929 . S
H20 C14 0.930 . S
H21 C13 0.931 . S
H22 C36 0.930 . S
H23 C3 0.930 . S
H24 C9 0.929 . S
H25 C10 0.930 . S
H26 C31 0.930 . S
H27 C6 0.930 . S
H28 C39 0.931 . S
N29 Tb0 2.617 . S
N29 C30 1.379 . S
N29 C33 1.334 . S
C30 N29 1.379 . S
C30 C32 1.416 . S
C30 C38 1.424 . S
C31 H26 0.930 . S
C31 C33 1.390 . S
C31 C34 1.339 . S
C32 C30 1.416 . S
C32 C34 1.416 . S
C32 C65 1.448 . S
C33 H18 0.930 . S
C33 N29 1.334 . S
C33 C31 1.390 . S
C34 C31 1.339 . S
C34 C32 1.416 . S
C34 H41 0.930 . S
N35 Tb0 2.572 . S
N35 C36 1.340 . S
N35 C38 1.361 . S
C36 H22 0.930 . S
C36 N35 1.340 . S
C36 C40 1.407 . S
C37 C38 1.413 . S
C37 C39 1.416 . S
C37 C66 1.427 . S
C38 C30 1.424 . S
C38 N35 1.361 . S
C38 C37 1.413 . S
C39 H28 0.931 . S
C39 C37 1.416 . S
C39 C40 1.332 . S
C40 H19 0.929 . S
C40 C36 1.407 . S
C40 C39 1.332 . S
H41 C34 0.930 . S
H42 C65 0.930 . S
H43 C66 0.929 . S
O44 Tb0 2.465 . S
O44 C64 1.264 . S
O45 Tb0 2.387 . S
O45 C56 1.264 . S
O46 Tb11 2.349 . S
O46 C56 1.243 . S
O47 Tb0 2.428 . S
O47 C64 1.256 . S
O48 Tb0 2.308 . S
O48 C63 1.266 . S
O49 Tb11 2.393 . S
O49 C63 1.248 . S
O50 Tb11 2.465 . S
O50 C75 1.264 . S
O51 Tb11 2.387 . S
O51 C67 1.264 . S
O52 Tb0 2.349 . S
O52 C67 1.243 . S
O53 Tb11 2.428 . S
O53 C75 1.256 . S
O54 Tb11 2.308 . S
O54 C74 1.266 . S
O55 Tb0 2.393 . S
O55 C74 1.248 . S
C56 O45 1.264 . S
C56 O46 1.243 . S
C57 C60 1.399 . S
C57 C62 1.383 . S
C57 C64 1.496 . S
C58 C59 1.399 . S
C58 C62 1.389 . S
C59 C58 1.399 . S
C59 C61 1.380 . S
C59 H76 0.929 . S
C60 C57 1.399 . S
C60 C61 1.392 . S
C60 H77 0.929 . S
C61 C59 1.380 . S
C61 C60 1.392 . S
C61 H78 0.929 . S
C62 C57 1.383 . S
C62 C58 1.389 . S
C62 H79 0.931 . S
C63 O48 1.266 . S
C63 O49 1.248 . S
C64 Tb0 2.802 . S
C64 O44 1.264 . S
C64 O47 1.256 . S
C64 C57 1.496 . S
C65 C32 1.448 . S
C65 H42 0.930 . S
C65 C66 1.328 . S
C66 C37 1.427 . S
C66 H43 0.929 . S
C66 C65 1.328 . S
C67 O51 1.264 . S
C67 O52 1.243 . S
C68 C71 1.399 . S
C68 C72 1.383 . S
C68 C75 1.496 . S
C69 C70 1.399 . S
C69 C72 1.389 . S
C70 C69 1.399 . S
C70 C73 1.380 . S
C70 H80 0.929 . S
C71 C68 1.399 . S
C71 C73 1.392 . S
C71 H81 0.929 . S
C72 C68 1.383 . S
C72 C69 1.389 . S
C72 H82 0.931 . S
C73 C70 1.380 . S
C73 C71 1.392 . S
C73 H83 0.929 . S
C74 O54 1.266 . S
C74 O55 1.248 . S
C75 Tb11 2.802 . S
C75 O50 1.264 . S
C75 O53 1.256 . S
C75 C68 1.496 . S
H76 C59 0.929 . S
H77 C60 0.929 . S
H78 C61 0.929 . S
H79 C62 0.931 . S
H80 C70 0.929 . S
H81 C71 0.929 . S
H82 C72 0.931 . S
H83 C73 0.929 . S
Tb84 N113 2.617 . S
Tb84 N119 2.572 . S
Tb84 O128 2.465 . S
Tb84 O129 2.387 . S
Tb84 O131 2.428 . S
Tb84 O132 2.308 . S
Tb84 O136 2.349 . S
Tb84 O139 2.393 . S
Tb84 C148 2.802 . S
C85 N86 1.379 . S
C85 C88 1.416 . S
C85 C92 1.424 . S
N86 C85 1.379 . S
N86 C89 1.334 . S
N86 Tb95 2.617 . S
C87 C89 1.390 . S
C87 C90 1.339 . S
C87 H107 0.930 . S
C88 C85 1.416 . S
C88 C90 1.416 . S
C88 C94 1.448 . S
C89 N86 1.334 . S
C89 C87 1.390 . S
C89 H100 0.930 . S
C90 C87 1.339 . S
C90 C88 1.416 . S
C90 H111 0.930 . S
C91 C92 1.413 . S
C91 C93 1.427 . S
C91 C97 1.416 . S
C92 C85 1.424 . S
C92 C91 1.413 . S
C92 N96 1.361 . S
C93 C91 1.427 . S
C93 C94 1.328 . S
C93 H108 0.929 . S
C94 C88 1.448 . S
C94 C93 1.328 . S
C94 H109 0.930 . S
Tb95 N86 2.617 . S
Tb95 N96 2.572 . S
Tb95 O130 2.349 . S
Tb95 O133 2.393 . S
Tb95 O134 2.465 . S
Tb95 O135 2.387 . S
Tb95 O137 2.428 . S
Tb95 O138 2.308 . S
Tb95 C159 2.802 . S
N96 C92 1.361 . S
N96 Tb95 2.572 . S
N96 C98 1.340 . S
C97 C91 1.416 . S
C97 C99 1.332 . S
C97 H105 0.931 . S
C98 N96 1.340 . S
C98 C99 1.407 . S
C98 H104 0.930 . S
C99 C97 1.332 . S
C99 C98 1.407 . S
C99 H101 0.929 . S
H100 C89 0.930 . S
H101 C99 0.929 . S
H102 C117 0.930 . S
H103 C124 0.929 . S
H104 C98 0.930 . S
H105 C97 0.931 . S
H106 C120 0.930 . S
H107 C87 0.930 . S
H108 C93 0.929 . S
H109 C94 0.930 . S
H110 C115 0.930 . S
H111 C90 0.930 . S
H112 C123 0.931 . S
N113 Tb84 2.617 . S
N113 C114 1.379 . S
N113 C117 1.334 . S
C114 N113 1.379 . S
C114 C116 1.416 . S
C114 C122 1.424 . S
C115 H110 0.930 . S
C115 C117 1.390 . S
C115 C118 1.339 . S
C116 C114 1.416 . S
C116 C118 1.416 . S
C116 C149 1.448 . S
C117 H102 0.930 . S
C117 N113 1.334 . S
C117 C115 1.390 . S
C118 C115 1.339 . S
C118 C116 1.416 . S
C118 H125 0.930 . S
N119 Tb84 2.572 . S
N119 C120 1.340 . S
N119 C122 1.361 . S
C120 H106 0.930 . S
C120 N119 1.340 . S
C120 C124 1.407 . S
C121 C122 1.413 . S
C121 C123 1.416 . S
C121 C150 1.427 . S
C122 C114 1.424 . S
C122 N119 1.361 . S
C122 C121 1.413 . S
C123 H112 0.931 . S
C123 C121 1.416 . S
C123 C124 1.332 . S
C124 H103 0.929 . S
C124 C120 1.407 . S
C124 C123 1.332 . S
H125 C118 0.930 . S
H126 C149 0.930 . S
H127 C150 0.929 . S
O128 Tb84 2.465 . S
O128 C148 1.264 . S
O129 Tb84 2.387 . S
O129 C140 1.264 . S
O130 Tb95 2.349 . S
O130 C140 1.243 . S
O131 Tb84 2.428 . S
O131 C148 1.256 . S
O132 Tb84 2.308 . S
O132 C147 1.266 . S
O133 Tb95 2.393 . S
O133 C147 1.248 . S
O134 Tb95 2.465 . S
O134 C159 1.264 . S
O135 Tb95 2.387 . S
O135 C151 1.264 . S
O136 Tb84 2.349 . S
O136 C151 1.243 . S
O137 Tb95 2.428 . S
O137 C159 1.256 . S
O138 Tb95 2.308 . S
O138 C158 1.266 . S
O139 Tb84 2.393 . S
O139 C158 1.248 . S
C140 O129 1.264 . S
C140 O130 1.243 . S
C141 C144 1.399 . S
C141 C146 1.383 . S
C141 C148 1.496 . S
C142 C143 1.399 . S
C142 C146 1.389 . S
C143 C142 1.399 . S
C143 C145 1.380 . S
C143 H160 0.929 . S
C144 C141 1.399 . S
C144 C145 1.392 . S
C144 H161 0.929 . S
C145 C143 1.380 . S
C145 C144 1.392 . S
C145 H162 0.929 . S
C146 C141 1.383 . S
C146 C142 1.389 . S
C146 H163 0.931 . S
C147 O132 1.266 . S
C147 O133 1.248 . S
C148 Tb84 2.802 . S
C148 O128 1.264 . S
C148 O131 1.256 . S
C148 C141 1.496 . S
C149 C116 1.448 . S
C149 H126 0.930 . S
C149 C150 1.328 . S
C150 C121 1.427 . S
C150 H127 0.929 . S
C150 C149 1.328 . S
C151 O135 1.264 . S
C151 O136 1.243 . S
C152 C155 1.399 . S
C152 C156 1.383 . S
C152 C159 1.496 . S
C153 C154 1.399 . S
C153 C156 1.389 . S
C154 C153 1.399 . S
C154 C157 1.380 . S
C154 H164 0.929 . S
C155 C152 1.399 . S
C155 C157 1.392 . S
C155 H165 0.929 . S
C156 C152 1.383 . S
C156 C153 1.389 . S
C156 H166 0.931 . S
C157 C154 1.380 . S
C157 C155 1.392 . S
C157 H167 0.929 . S
C158 O138 1.266 . S
C158 O139 1.248 . S
C159 Tb95 2.802 . S
C159 O134 1.264 . S
C159 O137 1.256 . S
C159 C152 1.496 . S
H160 C143 0.929 . S
H161 C144 0.929 . S
H162 C145 0.929 . S
H163 C146 0.931 . S
H164 C154 0.929 . S
H165 C155 0.929 . S
H166 C156 0.931 . S
H167 C157 0.929 . S
Tb168 N197 2.617 . S
Tb168 N203 2.572 . S
Tb168 O212 2.465 . S
Tb168 O213 2.387 . S
Tb168 O215 2.428 . S
Tb168 O216 2.308 . S
Tb168 O220 2.349 . S
Tb168 O223 2.393 . S
Tb168 C232 2.802 . S
C169 N170 1.379 . S
C169 C172 1.416 . S
C169 C176 1.424 . S
N170 C169 1.379 . S
N170 C173 1.334 . S
N170 Tb179 2.617 . S
C171 C173 1.390 . S
C171 C174 1.339 . S
C171 H191 0.930 . S
C172 C169 1.416 . S
C172 C174 1.416 . S
C172 C178 1.448 . S
C173 N170 1.334 . S
C173 C171 1.390 . S
C173 H184 0.930 . S
C174 C171 1.339 . S
C174 C172 1.416 . S
C174 H195 0.930 . S
C175 C176 1.413 . S
C175 C177 1.427 . S
C175 C181 1.416 . S
C176 C169 1.424 . S
C176 C175 1.413 . S
C176 N180 1.361 . S
C177 C175 1.427 . S
C177 C178 1.328 . S
C177 H192 0.929 . S
C178 C172 1.448 . S
C178 C177 1.328 . S
C178 H193 0.930 . S
Tb179 N170 2.617 . S
Tb179 N180 2.572 . S
Tb179 O214 2.349 . S
Tb179 O217 2.393 . S
Tb179 O218 2.465 . S
Tb179 O219 2.387 . S
Tb179 O221 2.428 . S
Tb179 O222 2.308 . S
Tb179 C243 2.802 . S
N180 C176 1.361 . S
N180 Tb179 2.572 . S
N180 C182 1.340 . S
C181 C175 1.416 . S
C181 C183 1.332 . S
C181 H189 0.931 . S
C182 N180 1.340 . S
C182 C183 1.407 . S
C182 H188 0.930 . S
C183 C181 1.332 . S
C183 C182 1.407 . S
C183 H185 0.929 . S
H184 C173 0.930 . S
H185 C183 0.929 . S
H186 C201 0.930 . S
H187 C208 0.929 . S
H188 C182 0.930 . S
H189 C181 0.931 . S
H190 C204 0.930 . S
H191 C171 0.930 . S
H192 C177 0.929 . S
H193 C178 0.930 . S
H194 C199 0.930 . S
H195 C174 0.930 . S
H196 C207 0.931 . S
N197 Tb168 2.617 . S
N197 C198 1.379 . S
N197 C201 1.334 . S
C198 N197 1.379 . S
C198 C200 1.416 . S
C198 C206 1.424 . S
C199 H194 0.930 . S
C199 C201 1.390 . S
C199 C202 1.339 . S
C200 C198 1.416 . S
C200 C202 1.416 . S
C200 C233 1.448 . S
C201 H186 0.930 . S
C201 N197 1.334 . S
C201 C199 1.390 . S
C202 C199 1.339 . S
C202 C200 1.416 . S
C202 H209 0.930 . S
N203 Tb168 2.572 . S
N203 C204 1.340 . S
N203 C206 1.361 . S
C204 H190 0.930 . S
C204 N203 1.340 . S
C204 C208 1.407 . S
C205 C206 1.413 . S
C205 C207 1.416 . S
C205 C234 1.427 . S
C206 C198 1.424 . S
C206 N203 1.361 . S
C206 C205 1.413 . S
C207 H196 0.931 . S
C207 C205 1.416 . S
C207 C208 1.332 . S
C208 H187 0.929 . S
C208 C204 1.407 . S
C208 C207 1.332 . S
H209 C202 0.930 . S
H210 C233 0.930 . S
H211 C234 0.929 . S
O212 Tb168 2.465 . S
O212 C232 1.264 . S
O213 Tb168 2.387 . S
O213 C224 1.264 . S
O214 Tb179 2.349 . S
O214 C224 1.243 . S
O215 Tb168 2.428 . S
O215 C232 1.256 . S
O216 Tb168 2.308 . S
O216 C231 1.266 . S
O217 Tb179 2.393 . S
O217 C231 1.248 . S
O218 Tb179 2.465 . S
O218 C243 1.264 . S
O219 Tb179 2.387 . S
O219 C235 1.264 . S
O220 Tb168 2.349 . S
O220 C235 1.243 . S
O221 Tb179 2.428 . S
O221 C243 1.256 . S
O222 Tb179 2.308 . S
O222 C242 1.266 . S
O223 Tb168 2.393 . S
O223 C242 1.248 . S
C224 O213 1.264 . S
C224 O214 1.243 . S
C225 C228 1.399 . S
C225 C230 1.383 . S
C225 C232 1.496 . S
C226 C227 1.399 . S
C226 C230 1.389 . S
C227 C226 1.399 . S
C227 C229 1.380 . S
C227 H244 0.929 . S
C228 C225 1.399 . S
C228 C229 1.392 . S
C228 H245 0.929 . S
C229 C227 1.380 . S
C229 C228 1.392 . S
C229 H246 0.929 . S
C230 C225 1.383 . S
C230 C226 1.389 . S
C230 H247 0.931 . S
C231 O216 1.266 . S
C231 O217 1.248 . S
C232 Tb168 2.802 . S
C232 O212 1.264 . S
C232 O215 1.256 . S
C232 C225 1.496 . S
C233 C200 1.448 . S
C233 H210 0.930 . S
C233 C234 1.328 . S
C234 C205 1.427 . S
C234 H211 0.929 . S
C234 C233 1.328 . S
C235 O219 1.264 . S
C235 O220 1.243 . S
C236 C239 1.399 . S
C236 C240 1.383 . S
C236 C243 1.496 . S
C237 C238 1.399 . S
C237 C240 1.389 . S
C238 C237 1.399 . S
C238 C241 1.380 . S
C238 H248 0.929 . S
C239 C236 1.399 . S
C239 C241 1.392 . S
C239 H249 0.929 . S
C240 C236 1.383 . S
C240 C237 1.389 . S
C240 H250 0.931 . S
C241 C238 1.380 . S
C241 C239 1.392 . S
C241 H251 0.929 . S
C242 O222 1.266 . S
C242 O223 1.248 . S
C243 Tb179 2.802 . S
C243 O218 1.264 . S
C243 O221 1.256 . S
C243 C236 1.496 . S
H244 C227 0.929 . S
H245 C228 0.929 . S
H246 C229 0.929 . S
H247 C230 0.931 . S
H248 C238 0.929 . S
H249 C239 0.929 . S
H250 C240 0.931 . S
H251 C241 0.929 . S
Tb252 N281 2.617 . S
Tb252 N287 2.572 . S
Tb252 O296 2.465 . S
Tb252 O297 2.387 . S
Tb252 O299 2.428 . S
Tb252 O300 2.308 . S
Tb252 O304 2.349 . S
Tb252 O307 2.393 . S
Tb252 C316 2.802 . S
C253 N254 1.379 . S
C253 C256 1.416 . S
C253 C260 1.424 . S
N254 C253 1.379 . S
N254 C257 1.334 . S
N254 Tb263 2.617 . S
C255 C257 1.390 . S
C255 C258 1.339 . S
C255 H275 0.930 . S
C256 C253 1.416 . S
C256 C258 1.416 . S
C256 C262 1.448 . S
C257 N254 1.334 . S
C257 C255 1.390 . S
C257 H268 0.930 . S
C258 C255 1.339 . S
C258 C256 1.416 . S
C258 H279 0.930 . S
C259 C260 1.413 . S
C259 C261 1.427 . S
C259 C265 1.416 . S
C260 C253 1.424 . S
C260 C259 1.413 . S
C260 N264 1.361 . S
C261 C259 1.427 . S
C261 C262 1.328 . S
C261 H276 0.929 . S
C262 C256 1.448 . S
C262 C261 1.328 . S
C262 H277 0.930 . S
Tb263 N254 2.617 . S
Tb263 N264 2.572 . S
Tb263 O298 2.349 . S
Tb263 O301 2.393 . S
Tb263 O302 2.465 . S
Tb263 O303 2.387 . S
Tb263 O305 2.428 . S
Tb263 O306 2.308 . S
Tb263 C327 2.802 . S
N264 C260 1.361 . S
N264 Tb263 2.572 . S
N264 C266 1.340 . S
C265 C259 1.416 . S
C265 C267 1.332 . S
C265 H273 0.931 . S
C266 N264 1.340 . S
C266 C267 1.407 . S
C266 H272 0.930 . S
C267 C265 1.332 . S
C267 C266 1.407 . S
C267 H269 0.929 . S
H268 C257 0.930 . S
H269 C267 0.929 . S
H270 C285 0.930 . S
H271 C292 0.929 . S
H272 C266 0.930 . S
H273 C265 0.931 . S
H274 C288 0.930 . S
H275 C255 0.930 . S
H276 C261 0.929 . S
H277 C262 0.930 . S
H278 C283 0.930 . S
H279 C258 0.930 . S
H280 C291 0.931 . S
N281 Tb252 2.617 . S
N281 C282 1.379 . S
N281 C285 1.334 . S
C282 N281 1.379 . S
C282 C284 1.416 . S
C282 C290 1.424 . S
C283 H278 0.930 . S
C283 C285 1.390 . S
C283 C286 1.339 . S
C284 C282 1.416 . S
C284 C286 1.416 . S
C284 C317 1.448 . S
C285 H270 0.930 . S
C285 N281 1.334 . S
C285 C283 1.390 . S
C286 C283 1.339 . S
C286 C284 1.416 . S
C286 H293 0.930 . S
N287 Tb252 2.572 . S
N287 C288 1.340 . S
N287 C290 1.361 . S
C288 H274 0.930 . S
C288 N287 1.340 . S
C288 C292 1.407 . S
C289 C290 1.413 . S
C289 C291 1.416 . S
C289 C318 1.427 . S
C290 C282 1.424 . S
C290 N287 1.361 . S
C290 C289 1.413 . S
C291 H280 0.931 . S
C291 C289 1.416 . S
C291 C292 1.332 . S
C292 H271 0.929 . S
C292 C288 1.407 . S
C292 C291 1.332 . S
H293 C286 0.930 . S
H294 C317 0.930 . S
H295 C318 0.929 . S
O296 Tb252 2.465 . S
O296 C316 1.264 . S
O297 Tb252 2.387 . S
O297 C308 1.264 . S
O298 Tb263 2.349 . S
O298 C308 1.243 . S
O299 Tb252 2.428 . S
O299 C316 1.256 . S
O300 Tb252 2.308 . S
O300 C315 1.266 . S
O301 Tb263 2.393 . S
O301 C315 1.248 . S
O302 Tb263 2.465 . S
O302 C327 1.264 . S
O303 Tb263 2.387 . S
O303 C319 1.264 . S
O304 Tb252 2.349 . S
O304 C319 1.243 . S
O305 Tb263 2.428 . S
O305 C327 1.256 . S
O306 Tb263 2.308 . S
O306 C326 1.266 . S
O307 Tb252 2.393 . S
O307 C326 1.248 . S
C308 O297 1.264 . S
C308 O298 1.243 . S
C309 C312 1.399 . S
C309 C314 1.383 . S
C309 C316 1.496 . S
C310 C311 1.399 . S
C310 C314 1.389 . S
C311 C310 1.399 . S
C311 C313 1.380 . S
C311 H328 0.929 . S
C312 C309 1.399 . S
C312 C313 1.392 . S
C312 H329 0.929 . S
C313 C311 1.380 . S
C313 C312 1.392 . S
C313 H330 0.929 . S
C314 C309 1.383 . S
C314 C310 1.389 . S
C314 H331 0.931 . S
C315 O300 1.266 . S
C315 O301 1.248 . S
C316 Tb252 2.802 . S
C316 O296 1.264 . S
C316 O299 1.256 . S
C316 C309 1.496 . S
C317 C284 1.448 . S
C317 H294 0.930 . S
C317 C318 1.328 . S
C318 C289 1.427 . S
C318 H295 0.929 . S
C318 C317 1.328 . S
C319 O303 1.264 . S
C319 O304 1.243 . S
C320 C323 1.399 . S
C320 C324 1.383 . S
C320 C327 1.496 . S
C321 C322 1.399 . S
C321 C324 1.389 . S
C322 C321 1.399 . S
C322 C325 1.380 . S
C322 H332 0.929 . S
C323 C320 1.399 . S
C323 C325 1.392 . S
C323 H333 0.929 . S
C324 C320 1.383 . S
C324 C321 1.389 . S
C324 H334 0.931 . S
C325 C322 1.380 . S
C325 C323 1.392 . S
C325 H335 0.929 . S
C326 O306 1.266 . S
C326 O307 1.248 . S
C327 Tb263 2.802 . S
C327 O302 1.264 . S
C327 O305 1.256 . S
C327 C320 1.496 . S
H328 C311 0.929 . S
H329 C312 0.929 . S
H330 C313 0.929 . S
H331 C314 0.931 . S
H332 C322 0.929 . S
H333 C323 0.929 . S
H334 C324 0.931 . S
H335 C325 0.929 . S
Tb336 N365 2.617 . S
Tb336 N371 2.572 . S
Tb336 O380 2.465 . S
Tb336 O381 2.387 . S
Tb336 O383 2.428 . S
Tb336 O384 2.308 . S
Tb336 O388 2.349 . S
Tb336 O391 2.393 . S
Tb336 C400 2.802 . S
C337 N338 1.379 . S
C337 C340 1.416 . S
C337 C344 1.424 . S
N338 C337 1.379 . S
N338 C341 1.334 . S
N338 Tb347 2.617 . S
C339 C341 1.390 . S
C339 C342 1.339 . S
C339 H359 0.930 . S
C340 C337 1.416 . S
C340 C342 1.416 . S
C340 C346 1.448 . S
C341 N338 1.334 . S
C341 C339 1.390 . S
C341 H352 0.930 . S
C342 C339 1.339 . S
C342 C340 1.416 . S
C342 H363 0.930 . S
C343 C344 1.413 . S
C343 C345 1.427 . S
C343 C349 1.416 . S
C344 C337 1.424 . S
C344 C343 1.413 . S
C344 N348 1.361 . S
C345 C343 1.427 . S
C345 C346 1.328 . S
C345 H360 0.929 . S
C346 C340 1.448 . S
C346 C345 1.328 . S
C346 H361 0.930 . S
Tb347 N338 2.617 . S
Tb347 N348 2.572 . S
Tb347 O382 2.349 . S
Tb347 O385 2.393 . S
Tb347 O386 2.465 . S
Tb347 O387 2.387 . S
Tb347 O389 2.428 . S
Tb347 O390 2.308 . S
Tb347 C411 2.802 . S
N348 C344 1.361 . S
N348 Tb347 2.572 . S
N348 C350 1.340 . S
C349 C343 1.416 . S
C349 C351 1.332 . S
C349 H357 0.931 . S
C350 N348 1.340 . S
C350 C351 1.407 . S
C350 H356 0.930 . S
C351 C349 1.332 . S
C351 C350 1.407 . S
C351 H353 0.929 . S
H352 C341 0.930 . S
H353 C351 0.929 . S
H354 C369 0.930 . S
H355 C376 0.929 . S
H356 C350 0.930 . S
H357 C349 0.931 . S
H358 C372 0.930 . S
H359 C339 0.930 . S
H360 C345 0.929 . S
H361 C346 0.930 . S
H362 C367 0.930 . S
H363 C342 0.930 . S
H364 C375 0.931 . S
N365 Tb336 2.617 . S
N365 C366 1.379 . S
N365 C369 1.334 . S
C366 N365 1.379 . S
C366 C368 1.416 . S
C366 C374 1.424 . S
C367 H362 0.930 . S
C367 C369 1.390 . S
C367 C370 1.339 . S
C368 C366 1.416 . S
C368 C370 1.416 . S
C368 C401 1.448 . S
C369 H354 0.930 . S
C369 N365 1.334 . S
C369 C367 1.390 . S
C370 C367 1.339 . S
C370 C368 1.416 . S
C370 H377 0.930 . S
N371 Tb336 2.572 . S
N371 C372 1.340 . S
N371 C374 1.361 . S
C372 H358 0.930 . S
C372 N371 1.340 . S
C372 C376 1.407 . S
C373 C374 1.413 . S
C373 C375 1.416 . S
C373 C402 1.427 . S
C374 C366 1.424 . S
C374 N371 1.361 . S
C374 C373 1.413 . S
C375 H364 0.931 . S
C375 C373 1.416 . S
C375 C376 1.332 . S
C376 H355 0.929 . S
C376 C372 1.407 . S
C376 C375 1.332 . S
H377 C370 0.930 . S
H378 C401 0.930 . S
H379 C402 0.929 . S
O380 Tb336 2.465 . S
O380 C400 1.264 . S
O381 Tb336 2.387 . S
O381 C392 1.264 . S
O382 Tb347 2.349 . S
O382 C392 1.243 . S
O383 Tb336 2.428 . S
O383 C400 1.256 . S
O384 Tb336 2.308 . S
O384 C399 1.266 . S
O385 Tb347 2.393 . S
O385 C399 1.248 . S
O386 Tb347 2.465 . S
O386 C411 1.264 . S
O387 Tb347 2.387 . S
O387 C403 1.264 . S
O388 Tb336 2.349 . S
O388 C403 1.243 . S
O389 Tb347 2.428 . S
O389 C411 1.256 . S
O390 Tb347 2.308 . S
O390 C410 1.266 . S
O391 Tb336 2.393 . S
O391 C410 1.248 . S
C392 O381 1.264 . S
C392 O382 1.243 . S
C393 C396 1.399 . S
C393 C398 1.383 . S
C393 C400 1.496 . S
C394 C395 1.399 . S
C394 C398 1.389 . S
C395 C394 1.399 . S
C395 C397 1.380 . S
C395 H412 0.929 . S
C396 C393 1.399 . S
C396 C397 1.392 . S
C396 H413 0.929 . S
C397 C395 1.380 . S
C397 C396 1.392 . S
C397 H414 0.929 . S
C398 C393 1.383 . S
C398 C394 1.389 . S
C398 H415 0.931 . S
C399 O384 1.266 . S
C399 O385 1.248 . S
C400 Tb336 2.802 . S
C400 O380 1.264 . S
C400 O383 1.256 . S
C400 C393 1.496 . S
C401 C368 1.448 . S
C401 H378 0.930 . S
C401 C402 1.328 . S
C402 C373 1.427 . S
C402 H379 0.929 . S
C402 C401 1.328 . S
C403 O387 1.264 . S
C403 O388 1.243 . S
C404 C407 1.399 . S
C404 C408 1.383 . S
C404 C411 1.496 . S
C405 C406 1.399 . S
C405 C408 1.389 . S
C406 C405 1.399 . S
C406 C409 1.380 . S
C406 H416 0.929 . S
C407 C404 1.399 . S
C407 C409 1.392 . S
C407 H417 0.929 . S
C408 C404 1.383 . S
C408 C405 1.389 . S
C408 H418 0.931 . S
C409 C406 1.380 . S
C409 C407 1.392 . S
C409 H419 0.929 . S
C410 O390 1.266 . S
C410 O391 1.248 . S
C411 Tb347 2.802 . S
C411 O386 1.264 . S
C411 O389 1.256 . S
C411 C404 1.496 . S
H412 C395 0.929 . S
H413 C396 0.929 . S
H414 C397 0.929 . S
H415 C398 0.931 . S
H416 C406 0.929 . S
H417 C407 0.929 . S
H418 C408 0.931 . S
H419 C409 0.929 . S
Tb420 N449 2.617 . S
Tb420 N455 2.572 . S
Tb420 O464 2.465 . S
Tb420 O465 2.387 . S
Tb420 O467 2.428 . S
Tb420 O468 2.308 . S
Tb420 O472 2.349 . S
Tb420 O475 2.393 . S
Tb420 C484 2.802 . S
C421 N422 1.379 . S
C421 C424 1.416 . S
C421 C428 1.424 . S
N422 C421 1.379 . S
N422 C425 1.334 . S
N422 Tb431 2.617 . S
C423 C425 1.390 . S
C423 C426 1.339 . S
C423 H443 0.930 . S
C424 C421 1.416 . S
C424 C426 1.416 . S
C424 C430 1.448 . S
C425 N422 1.334 . S
C425 C423 1.390 . S
C425 H436 0.930 . S
C426 C423 1.339 . S
C426 C424 1.416 . S
C426 H447 0.930 . S
C427 C428 1.413 . S
C427 C429 1.427 . S
C427 C433 1.416 . S
C428 C421 1.424 . S
C428 C427 1.413 . S
C428 N432 1.361 . S
C429 C427 1.427 . S
C429 C430 1.328 . S
C429 H444 0.929 . S
C430 C424 1.448 . S
C430 C429 1.328 . S
C430 H445 0.930 . S
Tb431 N422 2.617 . S
Tb431 N432 2.572 . S
Tb431 O466 2.349 . S
Tb431 O469 2.393 . S
Tb431 O470 2.465 . S
Tb431 O471 2.387 . S
Tb431 O473 2.428 . S
Tb431 O474 2.308 . S
Tb431 C495 2.802 . S
N432 C428 1.361 . S
N432 Tb431 2.572 . S
N432 C434 1.340 . S
C433 C427 1.416 . S
C433 C435 1.332 . S
C433 H441 0.931 . S
C434 N432 1.340 . S
C434 C435 1.407 . S
C434 H440 0.930 . S
C435 C433 1.332 . S
C435 C434 1.407 . S
C435 H437 0.929 . S
H436 C425 0.930 . S
H437 C435 0.929 . S
H438 C453 0.930 . S
H439 C460 0.929 . S
H440 C434 0.930 . S
H441 C433 0.931 . S
H442 C456 0.930 . S
H443 C423 0.930 . S
H444 C429 0.929 . S
H445 C430 0.930 . S
H446 C451 0.930 . S
H447 C426 0.930 . S
H448 C459 0.931 . S
N449 Tb420 2.617 . S
N449 C450 1.379 . S
N449 C453 1.334 . S
C450 N449 1.379 . S
C450 C452 1.416 . S
C450 C458 1.424 . S
C451 H446 0.930 . S
C451 C453 1.390 . S
C451 C454 1.339 . S
C452 C450 1.416 . S
C452 C454 1.416 . S
C452 C485 1.448 . S
C453 H438 0.930 . S
C453 N449 1.334 . S
C453 C451 1.390 . S
C454 C451 1.339 . S
C454 C452 1.416 . S
C454 H461 0.930 . S
N455 Tb420 2.572 . S
N455 C456 1.340 . S
N455 C458 1.361 . S
C456 H442 0.930 . S
C456 N455 1.340 . S
C456 C460 1.407 . S
C457 C458 1.413 . S
C457 C459 1.416 . S
C457 C486 1.427 . S
C458 C450 1.424 . S
C458 N455 1.361 . S
C458 C457 1.413 . S
C459 H448 0.931 . S
C459 C457 1.416 . S
C459 C460 1.332 . S
C460 H439 0.929 . S
C460 C456 1.407 . S
C460 C459 1.332 . S
H461 C454 0.930 . S
H462 C485 0.930 . S
H463 C486 0.929 . S
O464 Tb420 2.465 . S
O464 C484 1.264 . S
O465 Tb420 2.387 . S
O465 C476 1.264 . S
O466 Tb431 2.349 . S
O466 C476 1.243 . S
O467 Tb420 2.428 . S
O467 C484 1.256 . S
O468 Tb420 2.308 . S
O468 C483 1.266 . S
O469 Tb431 2.393 . S
O469 C483 1.248 . S
O470 Tb431 2.465 . S
O470 C495 1.264 . S
O471 Tb431 2.387 . S
O471 C487 1.264 . S
O472 Tb420 2.349 . S
O472 C487 1.243 . S
O473 Tb431 2.428 . S
O473 C495 1.256 . S
O474 Tb431 2.308 . S
O474 C494 1.266 . S
O475 Tb420 2.393 . S
O475 C494 1.248 . S
C476 O465 1.264 . S
C476 O466 1.243 . S
C477 C480 1.399 . S
C477 C482 1.383 . S
C477 C484 1.496 . S
C478 C479 1.399 . S
C478 C482 1.389 . S
C479 C478 1.399 . S
C479 C481 1.380 . S
C479 H496 0.929 . S
C480 C477 1.399 . S
C480 C481 1.392 . S
C480 H497 0.929 . S
C481 C479 1.380 . S
C481 C480 1.392 . S
C481 H498 0.929 . S
C482 C477 1.383 . S
C482 C478 1.389 . S
C482 H499 0.931 . S
C483 O468 1.266 . S
C483 O469 1.248 . S
C484 Tb420 2.802 . S
C484 O464 1.264 . S
C484 O467 1.256 . S
C484 C477 1.496 . S
C485 C452 1.448 . S
C485 H462 0.930 . S
C485 C486 1.328 . S
C486 C457 1.427 . S
C486 H463 0.929 . S
C486 C485 1.328 . S
C487 O471 1.264 . S
C487 O472 1.243 . S
C488 C491 1.399 . S
C488 C492 1.383 . S
C488 C495 1.496 . S
C489 C490 1.399 . S
C489 C492 1.389 . S
C490 C489 1.399 . S
C490 C493 1.380 . S
C490 H500 0.929 . S
C491 C488 1.399 . S
C491 C493 1.392 . S
C491 H501 0.929 . S
C492 C488 1.383 . S
C492 C489 1.389 . S
C492 H502 0.931 . S
C493 C490 1.380 . S
C493 C491 1.392 . S
C493 H503 0.929 . S
C494 O474 1.266 . S
C494 O475 1.248 . S
C495 Tb431 2.802 . S
C495 O470 1.264 . S
C495 O473 1.256 . S
C495 C488 1.496 . S
H496 C479 0.929 . S
H497 C480 0.929 . S
H498 C481 0.929 . S
H499 C482 0.931 . S
H500 C490 0.929 . S
H501 C491 0.929 . S
H502 C492 0.931 . S
H503 C493 0.929 . S
Tb504 N533 2.617 . S
Tb504 N539 2.572 . S
Tb504 O548 2.465 . S
Tb504 O549 2.387 . S
Tb504 O551 2.428 . S
Tb504 O552 2.308 . S
Tb504 O556 2.349 . S
Tb504 O559 2.393 . S
Tb504 C568 2.802 . S
C505 N506 1.379 . S
C505 C508 1.416 . S
C505 C512 1.424 . S
N506 C505 1.379 . S
N506 C509 1.334 . S
N506 Tb515 2.617 . S
C507 C509 1.390 . S
C507 C510 1.339 . S
C507 H527 0.930 . S
C508 C505 1.416 . S
C508 C510 1.416 . S
C508 C514 1.448 . S
C509 N506 1.334 . S
C509 C507 1.390 . S
C509 H520 0.930 . S
C510 C507 1.339 . S
C510 C508 1.416 . S
C510 H531 0.930 . S
C511 C512 1.413 . S
C511 C513 1.427 . S
C511 C517 1.416 . S
C512 C505 1.424 . S
C512 C511 1.413 . S
C512 N516 1.361 . S
C513 C511 1.427 . S
C513 C514 1.328 . S
C513 H528 0.929 . S
C514 C508 1.448 . S
C514 C513 1.328 . S
C514 H529 0.930 . S
Tb515 N506 2.617 . S
Tb515 N516 2.572 . S
Tb515 O550 2.349 . S
Tb515 O553 2.393 . S
Tb515 O554 2.465 . S
Tb515 O555 2.387 . S
Tb515 O557 2.428 . S
Tb515 O558 2.308 . S
Tb515 C579 2.802 . S
N516 C512 1.361 . S
N516 Tb515 2.572 . S
N516 C518 1.340 . S
C517 C511 1.416 . S
C517 C519 1.332 . S
C517 H525 0.931 . S
C518 N516 1.340 . S
C518 C519 1.407 . S
C518 H524 0.930 . S
C519 C517 1.332 . S
C519 C518 1.407 . S
C519 H521 0.929 . S
H520 C509 0.930 . S
H521 C519 0.929 . S
H522 C537 0.930 . S
H523 C544 0.929 . S
H524 C518 0.930 . S
H525 C517 0.931 . S
H526 C540 0.930 . S
H527 C507 0.930 . S
H528 C513 0.929 . S
H529 C514 0.930 . S
H530 C535 0.930 . S
H531 C510 0.930 . S
H532 C543 0.931 . S
N533 Tb504 2.617 . S
N533 C534 1.379 . S
N533 C537 1.334 . S
C534 N533 1.379 . S
C534 C536 1.416 . S
C534 C542 1.424 . S
C535 H530 0.930 . S
C535 C537 1.390 . S
C535 C538 1.339 . S
C536 C534 1.416 . S
C536 C538 1.416 . S
C536 C569 1.448 . S
C537 H522 0.930 . S
C537 N533 1.334 . S
C537 C535 1.390 . S
C538 C535 1.339 . S
C538 C536 1.416 . S
C538 H545 0.930 . S
N539 Tb504 2.572 . S
N539 C540 1.340 . S
N539 C542 1.361 . S
C540 H526 0.930 . S
C540 N539 1.340 . S
C540 C544 1.407 . S
C541 C542 1.413 . S
C541 C543 1.416 . S
C541 C570 1.427 . S
C542 C534 1.424 . S
C542 N539 1.361 . S
C542 C541 1.413 . S
C543 H532 0.931 . S
C543 C541 1.416 . S
C543 C544 1.332 . S
C544 H523 0.929 . S
C544 C540 1.407 . S
C544 C543 1.332 . S
H545 C538 0.930 . S
H546 C569 0.930 . S
H547 C570 0.929 . S
O548 Tb504 2.465 . S
O548 C568 1.264 . S
O549 Tb504 2.387 . S
O549 C560 1.264 . S
O550 Tb515 2.349 . S
O550 C560 1.243 . S
O551 Tb504 2.428 . S
O551 C568 1.256 . S
O552 Tb504 2.308 . S
O552 C567 1.266 . S
O553 Tb515 2.393 . S
O553 C567 1.248 . S
O554 Tb515 2.465 . S
O554 C579 1.264 . S
O555 Tb515 2.387 . S
O555 C571 1.264 . S
O556 Tb504 2.349 . S
O556 C571 1.243 . S
O557 Tb515 2.428 . S
O557 C579 1.256 . S
O558 Tb515 2.308 . S
O558 C578 1.266 . S
O559 Tb504 2.393 . S
O559 C578 1.248 . S
C560 O549 1.264 . S
C560 O550 1.243 . S
C561 C564 1.399 . S
C561 C566 1.383 . S
C561 C568 1.496 . S
C562 C563 1.399 . S
C562 C566 1.389 . S
C563 C562 1.399 . S
C563 C565 1.380 . S
C563 H580 0.929 . S
C564 C561 1.399 . S
C564 C565 1.392 . S
C564 H581 0.929 . S
C565 C563 1.380 . S
C565 C564 1.392 . S
C565 H582 0.929 . S
C566 C561 1.383 . S
C566 C562 1.389 . S
C566 H583 0.931 . S
C567 O552 1.266 . S
C567 O553 1.248 . S
C568 Tb504 2.802 . S
C568 O548 1.264 . S
C568 O551 1.256 . S
C568 C561 1.496 . S
C569 C536 1.448 . S
C569 H546 0.930 . S
C569 C570 1.328 . S
C570 C541 1.427 . S
C570 H547 0.929 . S
C570 C569 1.328 . S
C571 O555 1.264 . S
C571 O556 1.243 . S
C572 C575 1.399 . S
C572 C576 1.383 . S
C572 C579 1.496 . S
C573 C574 1.399 . S
C573 C576 1.389 . S
C574 C573 1.399 . S
C574 C577 1.380 . S
C574 H584 0.929 . S
C575 C572 1.399 . S
C575 C577 1.392 . S
C575 H585 0.929 . S
C576 C572 1.383 . S
C576 C573 1.389 . S
C576 H586 0.931 . S
C577 C574 1.380 . S
C577 C575 1.392 . S
C577 H587 0.929 . S
C578 O558 1.266 . S
C578 O559 1.248 . S
C579 Tb515 2.802 . S
C579 O554 1.264 . S
C579 O557 1.256 . S
C579 C572 1.496 . S
H580 C563 0.929 . S
H581 C564 0.929 . S
H582 C565 0.929 . S
H583 C566 0.931 . S
H584 C574 0.929 . S
H585 C575 0.929 . S
H586 C576 0.931 . S
H587 C577 0.929 . S
Tb588 N617 2.617 . S
Tb588 N623 2.572 . S
Tb588 O632 2.465 . S
Tb588 O633 2.387 . S
Tb588 O635 2.428 . S
Tb588 O636 2.308 . S
Tb588 O640 2.349 . S
Tb588 O643 2.393 . S
Tb588 C652 2.802 . S
C589 N590 1.379 . S
C589 C592 1.416 . S
C589 C596 1.424 . S
N590 C589 1.379 . S
N590 C593 1.334 . S
N590 Tb599 2.617 . S
C591 C593 1.390 . S
C591 C594 1.339 . S
C591 H611 0.930 . S
C592 C589 1.416 . S
C592 C594 1.416 . S
C592 C598 1.448 . S
C593 N590 1.334 . S
C593 C591 1.390 . S
C593 H604 0.930 . S
C594 C591 1.339 . S
C594 C592 1.416 . S
C594 H615 0.930 . S
C595 C596 1.413 . S
C595 C597 1.427 . S
C595 C601 1.416 . S
C596 C589 1.424 . S
C596 C595 1.413 . S
C596 N600 1.361 . S
C597 C595 1.427 . S
C597 C598 1.328 . S
C597 H612 0.929 . S
C598 C592 1.448 . S
C598 C597 1.328 . S
C598 H613 0.930 . S
Tb599 N590 2.617 . S
Tb599 N600 2.572 . S
Tb599 O634 2.349 . S
Tb599 O637 2.393 . S
Tb599 O638 2.465 . S
Tb599 O639 2.387 . S
Tb599 O641 2.428 . S
Tb599 O642 2.308 . S
Tb599 C663 2.802 . S
N600 C596 1.361 . S
N600 Tb599 2.572 . S
N600 C602 1.340 . S
C601 C595 1.416 . S
C601 C603 1.332 . S
C601 H609 0.931 . S
C602 N600 1.340 . S
C602 C603 1.407 . S
C602 H608 0.930 . S
C603 C601 1.332 . S
C603 C602 1.407 . S
C603 H605 0.929 . S
H604 C593 0.930 . S
H605 C603 0.929 . S
H606 C621 0.930 . S
H607 C628 0.929 . S
H608 C602 0.930 . S
H609 C601 0.931 . S
H610 C624 0.930 . S
H611 C591 0.930 . S
H612 C597 0.929 . S
H613 C598 0.930 . S
H614 C619 0.930 . S
H615 C594 0.930 . S
H616 C627 0.931 . S
N617 Tb588 2.617 . S
N617 C618 1.379 . S
N617 C621 1.334 . S
C618 N617 1.379 . S
C618 C620 1.416 . S
C618 C626 1.424 . S
C619 H614 0.930 . S
C619 C621 1.390 . S
C619 C622 1.339 . S
C620 C618 1.416 . S
C620 C622 1.416 . S
C620 C653 1.448 . S
C621 H606 0.930 . S
C621 N617 1.334 . S
C621 C619 1.390 . S
C622 C619 1.339 . S
C622 C620 1.416 . S
C622 H629 0.930 . S
N623 Tb588 2.572 . S
N623 C624 1.340 . S
N623 C626 1.361 . S
C624 H610 0.930 . S
C624 N623 1.340 . S
C624 C628 1.407 . S
C625 C626 1.413 . S
C625 C627 1.416 . S
C625 C654 1.427 . S
C626 C618 1.424 . S
C626 N623 1.361 . S
C626 C625 1.413 . S
C627 H616 0.931 . S
C627 C625 1.416 . S
C627 C628 1.332 . S
C628 H607 0.929 . S
C628 C624 1.407 . S
C628 C627 1.332 . S
H629 C622 0.930 . S
H630 C653 0.930 . S
H631 C654 0.929 . S
O632 Tb588 2.465 . S
O632 C652 1.264 . S
O633 Tb588 2.387 . S
O633 C644 1.264 . S
O634 Tb599 2.349 . S
O634 C644 1.243 . S
O635 Tb588 2.428 . S
O635 C652 1.256 . S
O636 Tb588 2.308 . S
O636 C651 1.266 . S
O637 Tb599 2.393 . S
O637 C651 1.248 . S
O638 Tb599 2.465 . S
O638 C663 1.264 . S
O639 Tb599 2.387 . S
O639 C655 1.264 . S
O640 Tb588 2.349 . S
O640 C655 1.243 . S
O641 Tb599 2.428 . S
O641 C663 1.256 . S
O642 Tb599 2.308 . S
O642 C662 1.266 . S
O643 Tb588 2.393 . S
O643 C662 1.248 . S
C644 O633 1.264 . S
C644 O634 1.243 . S
C645 C648 1.399 . S
C645 C650 1.383 . S
C645 C652 1.496 . S
C646 C647 1.399 . S
C646 C650 1.389 . S
C647 C646 1.399 . S
C647 C649 1.380 . S
C647 H664 0.929 . S
C648 C645 1.399 . S
C648 C649 1.392 . S
C648 H665 0.929 . S
C649 C647 1.380 . S
C649 C648 1.392 . S
C649 H666 0.929 . S
C650 C645 1.383 . S
C650 C646 1.389 . S
C650 H667 0.931 . S
C651 O636 1.266 . S
C651 O637 1.248 . S
C652 Tb588 2.802 . S
C652 O632 1.264 . S
C652 O635 1.256 . S
C652 C645 1.496 . S
C653 C620 1.448 . S
C653 H630 0.930 . S
C653 C654 1.328 . S
C654 C625 1.427 . S
C654 H631 0.929 . S
C654 C653 1.328 . S
C655 O639 1.264 . S
C655 O640 1.243 . S
C656 C659 1.399 . S
C656 C660 1.383 . S
C656 C663 1.496 . S
C657 C658 1.399 . S
C657 C660 1.389 . S
C658 C657 1.399 . S
C658 C661 1.380 . S
C658 H668 0.929 . S
C659 C656 1.399 . S
C659 C661 1.392 . S
C659 H669 0.929 . S
C660 C656 1.383 . S
C660 C657 1.389 . S
C660 H670 0.931 . S
C661 C658 1.380 . S
C661 C659 1.392 . S
C661 H671 0.929 . S
C662 O642 1.266 . S
C662 O643 1.248 . S
C663 Tb599 2.802 . S
C663 O638 1.264 . S
C663 O641 1.256 . S
C663 C656 1.496 . S
H664 C647 0.929 . S
H665 C648 0.929 . S
H666 C649 0.929 . S
H667 C650 0.931 . S
H668 C658 0.929 . S
H669 C659 0.929 . S
H670 C660 0.931 . S
H671 C661 0.929 . S
Fe672 O673 1.886 1_455 S
Fe672 O676 1.715 . S
Fe672 O681 2.077 1_455 S
Fe672 O686 1.935 . S
Fe672 O692 2.077 1_455 S
Fe672 O701 1.935 . S
O673 Fe672 1.886 1_655 S
O673 Fe675 1.715 1_545 S
Fe674 O676 1.886 . S
Fe674 O677 1.715 1_545 S
Fe674 O684 1.935 1_545 S
Fe674 O685 2.077 . S
Fe674 O691 1.935 1_545 S
Fe674 O700 2.077 . S
Fe675 O673 1.715 1_565 S
Fe675 O678 1.886 . S
Fe675 O682 1.935 1_565 S
Fe675 O687 2.077 . S
Fe675 O693 1.935 1_565 S
Fe675 O697 2.077 . S
O676 Fe672 1.715 . S
O676 Fe674 1.886 . S
O677 Fe674 1.715 1_565 S
O677 Fe679 1.886 1_455 S
O678 Fe675 1.886 . S
O678 Fe679 1.715 . S
Fe679 O677 1.886 1_655 S
Fe679 O678 1.715 . S
Fe679 O683 2.077 1_655 S
Fe679 O688 1.935 . S
Fe679 O690 2.077 1_655 S
Fe679 O698 1.935 . S
C680 O692 1.381 . S
C680 O693 1.421 . S
O681 Fe672 2.077 1_655 S
O681 C694 1.381 . S
O682 Fe675 1.935 1_545 S
O682 C694 1.421 . S
O683 Fe679 2.077 1_455 S
O683 C699 1.381 . S
O684 Fe674 1.935 1_565 S
O684 C699 1.421 . S
O685 Fe674 2.077 . S
O685 C689 1.381 . S
O686 Fe672 1.935 . S
O686 C689 1.421 . S
O687 Fe675 2.077 . S
O687 C695 1.381 . S
O688 Fe679 1.935 . S
O688 C695 1.421 . S
C689 O685 1.381 . S
C689 O686 1.421 . S
O690 Fe679 2.077 1_455 S
O690 C702 1.381 . S
O691 Fe674 1.935 1_565 S
O691 C702 1.421 . S
O692 Fe672 2.077 1_655 S
O692 C680 1.381 . S
O693 Fe675 1.935 1_545 S
O693 C680 1.421 . S
C694 O681 1.381 . S
C694 O682 1.421 . S
C695 O687 1.381 . S
C695 O688 1.421 . S
C696 O697 1.381 . S
C696 O698 1.421 . S
O697 Fe675 2.077 . S
O697 C696 1.381 . S
O698 Fe679 1.935 . S
O698 C696 1.421 . S
C699 O683 1.381 . S
C699 O684 1.421 . S
O700 Fe674 2.077 . S
O700 C703 1.381 . S
O701 Fe672 1.935 . S
O701 C703 1.421 . S
C702 O690 1.381 . S
C702 O691 1.421 . S
C703 O700 1.381 . S
C703 O701 1.421 . S
Fe704 O705 1.886 . S
Fe704 O708 1.714 . S
Fe704 O713 2.077 . S
Fe704 O718 1.935 . S
Fe704 O724 2.077 1_556 S
Fe704 O733 1.935 1_556 S
O705 Fe704 1.886 . S
O705 Fe707 1.715 1_565 S
Fe706 O708 1.886 1_554 S
Fe706 O709 1.715 1_565 S
Fe706 O716 1.935 1_564 S
Fe706 O717 2.077 1_554 S
Fe706 O723 1.935 1_565 S
Fe706 O732 2.077 . S
Fe707 O705 1.715 1_545 S
Fe707 O710 1.887 1_556 S
Fe707 O714 1.935 1_545 S
Fe707 O719 2.077 . S
Fe707 O725 1.935 1_546 S
Fe707 O729 2.077 1_556 S
O708 Fe704 1.714 . S
O708 Fe706 1.886 1_556 S
O709 Fe706 1.715 1_545 S
O709 Fe711 1.886 . S
O710 Fe707 1.887 1_554 S
O710 Fe711 1.714 . S
Fe711 O709 1.886 . S
Fe711 O710 1.714 . S
Fe711 O715 2.077 1_554 S
Fe711 O720 1.935 1_554 S
Fe711 O722 2.077 . S
Fe711 O730 1.935 . S
C712 O724 1.381 . S
C712 O725 1.421 . S
O713 Fe704 2.077 . S
O713 C726 1.381 . S
O714 Fe707 1.935 1_565 S
O714 C726 1.421 . S
O715 Fe711 2.077 1_556 S
O715 C731 1.381 . S
O716 Fe706 1.935 1_546 S
O716 C731 1.421 . S
O717 Fe706 2.077 1_556 S
O717 C721 1.381 . S
O718 Fe704 1.935 . S
O718 C721 1.421 . S
O719 Fe707 2.077 . S
O719 C727 1.381 . S
O720 Fe711 1.935 1_556 S
O720 C727 1.421 . S
C721 O717 1.381 . S
C721 O718 1.421 . S
O722 Fe711 2.077 . S
O722 C734 1.381 . S
O723 Fe706 1.935 1_545 S
O723 C734 1.421 . S
O724 Fe704 2.077 1_554 S
O724 C712 1.381 . S
O725 Fe707 1.935 1_564 S
O725 C712 1.421 . S
C726 O713 1.381 . S
C726 O714 1.421 . S
C727 O719 1.381 . S
C727 O720 1.421 . S
C728 O729 1.381 . S
C728 O730 1.421 . S
O729 Fe707 2.077 1_554 S
O729 C728 1.381 . S
O730 Fe711 1.935 . S
O730 C728 1.421 . S
C731 O715 1.381 . S
C731 O716 1.421 . S
O732 Fe706 2.077 . S
O732 C735 1.381 . S
O733 Fe704 1.935 1_554 S
O733 C735 1.421 . S
C734 O722 1.381 . S
C734 O723 1.421 . S
C735 O732 1.381 . S
C735 O733 1.421 . S
Fe736 O737 1.886 1_455 S
Fe736 O740 1.714 . S
Fe736 O745 2.077 1_454 S
Fe736 O750 1.935 1_554 S
Fe736 O756 2.077 1_455 S
Fe736 O765 1.935 . S
O737 Fe736 1.886 1_655 S
O737 Fe739 1.715 . S
Fe738 O740 1.887 1_556 S
Fe738 O741 1.715 . S
Fe738 O748 1.935 . S
Fe738 O749 2.077 . S
Fe738 O755 1.935 1_556 S
Fe738 O764 2.077 1_556 S
Fe739 O737 1.715 . S
Fe739 O742 1.886 1_554 S
Fe739 O746 1.935 1_554 S
Fe739 O751 2.077 1_554 S
Fe739 O757 1.935 . S
Fe739 O761 2.077 . S
O740 Fe736 1.714 . S
O740 Fe738 1.887 1_554 S
O741 Fe738 1.715 . S
O741 Fe743 1.886 1_455 S
O742 Fe739 1.886 1_556 S
O742 Fe743 1.715 . S
Fe743 O741 1.886 1_655 S
Fe743 O742 1.715 . S
Fe743 O747 2.077 1_655 S
Fe743 O752 1.935 . S
Fe743 O754 2.077 1_656 S
Fe743 O762 1.935 1_556 S
C744 O756 1.381 . S
C744 O757 1.421 . S
O745 Fe736 2.077 1_656 S
O745 C758 1.381 . S
O746 Fe739 1.935 1_556 S
O746 C758 1.421 . S
O747 Fe743 2.077 1_455 S
O747 C763 1.381 . S
O748 Fe738 1.935 . S
O748 C763 1.421 . S
O749 Fe738 2.077 . S
O749 C753 1.381 . S
O750 Fe736 1.935 1_556 S
O750 C753 1.421 . S
O751 Fe739 2.077 1_556 S
O751 C759 1.381 . S
O752 Fe743 1.935 . S
O752 C759 1.421 . S
C753 O749 1.381 . S
C753 O750 1.421 . S
O754 Fe743 2.077 1_454 S
O754 C766 1.381 . S
O755 Fe738 1.935 1_554 S
O755 C766 1.421 . S
O756 Fe736 2.077 1_655 S
O756 C744 1.381 . S
O757 Fe739 1.935 . S
O757 C744 1.421 . S
C758 O745 1.381 . S
C758 O746 1.421 . S
C759 O751 1.381 . S
C759 O752 1.421 . S
C760 O761 1.381 . S
C760 O762 1.421 . S
O761 Fe739 2.077 . S
O761 C760 1.381 . S
O762 Fe743 1.935 1_554 S
O762 C760 1.421 . S
C763 O747 1.381 . S
C763 O748 1.421 . S
O764 Fe738 2.077 1_554 S
O764 C767 1.381 . S
O765 Fe736 1.935 . S
O765 C767 1.421 . S
C766 O754 1.381 . S
C766 O755 1.421 . S
C767 O764 1.381 . S
C767 O765 1.421 . S
Fe768 O769 1.886 . S
Fe768 O772 1.715 . S
Fe768 O777 2.077 . S
Fe768 O782 1.935 . S
Fe768 O788 2.077 . S
Fe768 O797 1.935 . S
O769 Fe768 1.886 . S
O769 Fe771 1.715 . S
Fe770 O772 1.886 1_554 S
Fe770 O773 1.715 . S
Fe770 O780 1.935 . S
Fe770 O781 2.077 1_554 S
Fe770 O787 1.935 . S
Fe770 O796 2.077 1_554 S
Fe771 O769 1.715 . S
Fe771 O774 1.886 1_556 S
Fe771 O778 1.935 . S
Fe771 O783 2.077 1_556 S
Fe771 O789 1.935 . S
Fe771 O793 2.077 1_556 S
O772 Fe768 1.715 . S
O772 Fe770 1.886 1_556 S
O773 Fe770 1.715 . S
O773 Fe775 1.886 . S
O774 Fe771 1.886 1_554 S
O774 Fe775 1.715 . S
Fe775 O773 1.886 . S
Fe775 O774 1.715 . S
Fe775 O779 2.077 . S
Fe775 O784 1.935 . S
Fe775 O786 2.077 . S
Fe775 O794 1.935 . S
C776 O788 1.381 . S
C776 O789 1.421 . S
O777 Fe768 2.077 . S
O777 C790 1.381 . S
O778 Fe771 1.935 . S
O778 C790 1.421 . S
O779 Fe775 2.077 . S
O779 C795 1.381 . S
O780 Fe770 1.935 . S
O780 C795 1.421 . S
O781 Fe770 2.077 1_556 S
O781 C785 1.381 . S
O782 Fe768 1.935 . S
O782 C785 1.421 . S
O783 Fe771 2.077 1_554 S
O783 C791 1.381 . S
O784 Fe775 1.935 . S
O784 C791 1.421 . S
C785 O781 1.381 . S
C785 O782 1.421 . S
O786 Fe775 2.077 . S
O786 C798 1.381 . S
O787 Fe770 1.935 . S
O787 C798 1.421 . S
O788 Fe768 2.077 . S
O788 C776 1.381 . S
O789 Fe771 1.935 . S
O789 C776 1.421 . S
C790 O777 1.381 . S
C790 O778 1.421 . S
C791 O783 1.381 . S
C791 O784 1.421 . S
C792 O793 1.381 . S
C792 O794 1.421 . S
O793 Fe771 2.077 1_554 S
O793 C792 1.381 . S
O794 Fe775 1.935 . S
O794 C792 1.421 . S
C795 O779 1.381 . S
C795 O780 1.421 . S
O796 Fe770 2.077 1_556 S
O796 C799 1.381 . S
O797 Fe768 1.935 . S
O797 C799 1.421 . S
C798 O786 1.381 . S
C798 O787 1.421 . S
C799 O796 1.381 . S
C799 O797 1.421 . S
Fe800 O801 1.886 . S
Fe800 O804 1.715 . S
Fe800 O809 2.077 1_655 S
Fe800 O814 1.935 1_655 S
Fe800 O820 2.077 . S
Fe800 O829 1.935 . S
O801 Fe800 1.886 . S
O801 Fe803 1.715 . S
Fe802 O804 1.886 1_455 S
Fe802 O805 1.715 . S
Fe802 O812 1.935 . S
Fe802 O813 2.077 . S
Fe802 O819 1.935 1_455 S
Fe802 O828 2.077 1_455 S
Fe803 O801 1.715 . S
Fe803 O806 1.886 1_655 S
Fe803 O810 1.935 1_655 S
Fe803 O815 2.077 1_655 S
Fe803 O821 1.935 . S
Fe803 O825 2.077 . S
O804 Fe800 1.715 . S
O804 Fe802 1.886 1_655 S
O805 Fe802 1.715 . S
O805 Fe807 1.886 . S
O806 Fe803 1.886 1_455 S
O806 Fe807 1.715 . S
Fe807 O805 1.886 . S
Fe807 O806 1.715 . S
Fe807 O811 2.077 . S
Fe807 O816 1.935 . S
Fe807 O818 2.077 1_455 S
Fe807 O826 1.935 1_455 S
C808 O820 1.381 . S
C808 O821 1.421 . S
O809 Fe800 2.077 1_455 S
O809 C822 1.381 . S
O810 Fe803 1.935 1_455 S
O810 C822 1.421 . S
O811 Fe807 2.077 . S
O811 C827 1.381 . S
O812 Fe802 1.935 . S
O812 C827 1.421 . S
O813 Fe802 2.077 . S
O813 C817 1.381 . S
O814 Fe800 1.935 1_455 S
O814 C817 1.421 . S
O815 Fe803 2.077 1_455 S
O815 C823 1.381 . S
O816 Fe807 1.935 . S
O816 C823 1.421 . S
C817 O813 1.381 . S
C817 O814 1.421 . S
O818 Fe807 2.077 1_655 S
O818 C830 1.381 . S
O819 Fe802 1.935 1_655 S
O819 C830 1.421 . S
O820 Fe800 2.077 . S
O820 C808 1.381 . S
O821 Fe803 1.935 . S
O821 C808 1.421 . S
C822 O809 1.381 . S
C822 O810 1.421 . S
C823 O815 1.381 . S
C823 O816 1.421 . S
C824 O825 1.381 . S
C824 O826 1.421 . S
O825 Fe803 2.077 . S
O825 C824 1.381 . S
O826 Fe807 1.935 1_655 S
O826 C824 1.421 . S
C827 O811 1.381 . S
C827 O812 1.421 . S
O828 Fe802 2.077 1_655 S
O828 C831 1.381 . S
O829 Fe800 1.935 . S
O829 C831 1.421 . S
C830 O818 1.381 . S
C830 O819 1.421 . S
C831 O828 1.381 . S
C831 O829 1.421 . S
Fe832 O833 1.886 . S
Fe832 O836 1.715 . S
Fe832 O841 2.077 . S
Fe832 O846 1.935 . S
Fe832 O852 2.077 . S
Fe832 O861 1.935 . S
O833 Fe832 1.886 . S
O833 Fe835 1.715 1_565 S
Fe834 O836 1.886 . S
Fe834 O837 1.715 1_565 S
Fe834 O844 1.935 1_565 S
Fe834 O845 2.077 . S
Fe834 O851 1.935 1_565 S
Fe834 O860 2.077 . S
Fe835 O833 1.715 1_545 S
Fe835 O838 1.886 . S
Fe835 O842 1.935 1_545 S
Fe835 O847 2.077 . S
Fe835 O853 1.935 1_545 S
Fe835 O857 2.077 . S
O836 Fe832 1.715 . S
O836 Fe834 1.886 . S
O837 Fe834 1.715 1_545 S
O837 Fe839 1.886 . S
O838 Fe835 1.886 . S
O838 Fe839 1.715 . S
Fe839 O837 1.886 . S
Fe839 O838 1.715 . S
Fe839 O843 2.077 . S
Fe839 O848 1.935 . S
Fe839 O850 2.077 . S
Fe839 O858 1.935 . S
C840 O852 1.381 . S
C840 O853 1.421 . S
O841 Fe832 2.077 . S
O841 C854 1.381 . S
O842 Fe835 1.935 1_565 S
O842 C854 1.421 . S
O843 Fe839 2.077 . S
O843 C859 1.381 . S
O844 Fe834 1.935 1_545 S
O844 C859 1.421 . S
O845 Fe834 2.077 . S
O845 C849 1.381 . S
O846 Fe832 1.935 . S
O846 C849 1.421 . S
O847 Fe835 2.077 . S
O847 C855 1.381 . S
O848 Fe839 1.935 . S
O848 C855 1.421 . S
C849 O845 1.381 . S
C849 O846 1.421 . S
O850 Fe839 2.077 . S
O850 C862 1.381 . S
O851 Fe834 1.935 1_545 S
O851 C862 1.421 . S
O852 Fe832 2.077 . S
O852 C840 1.381 . S
O853 Fe835 1.935 1_565 S
O853 C840 1.421 . S
C854 O841 1.381 . S
C854 O842 1.421 . S
C855 O847 1.381 . S
C855 O848 1.421 . S
C856 O857 1.381 . S
C856 O858 1.421 . S
O857 Fe835 2.077 . S
O857 C856 1.381 . S
O858 Fe839 1.935 . S
O858 C856 1.421 . S
C859 O843 1.381 . S
C859 O844 1.421 . S
O860 Fe834 2.077 . S
O860 C863 1.381 . S
O861 Fe832 1.935 . S
O861 C863 1.421 . S
C862 O850 1.381 . S
C862 O851 1.421 . S
C863 O860 1.381 . S
C863 O861 1.421 . S
H864 C870 0.930 . S
H865 C873 0.930 . S
H866 C874 0.930 . S
H867 C875 0.930 . S
H868 C878 0.930 . S
H869 C879 0.930 . S
C870 H864 0.930 . S
C870 C871 1.355 . S
C870 C872 1.415 . S
C871 C870 1.355 . S
C871 C873 1.419 . S
C872 C870 1.415 . S
C872 C877 1.425 . S
C872 C879 1.409 . S
C873 H865 0.930 . S
C873 C871 1.419 . S
C873 C874 1.362 . S
C874 H866 0.930 . S
C874 C873 1.362 . S
C874 C877 1.409 . S
C875 H867 0.930 . S
C875 C876 1.355 . S
C875 C877 1.415 . S
C876 C875 1.355 . S
C876 C878 1.419 . S
C877 C872 1.425 . S
C877 C874 1.409 . S
C877 C875 1.415 . S
C878 H868 0.930 . S
C878 C876 1.419 . S
C878 C879 1.362 . S
C879 H869 0.930 . S
C879 C872 1.409 . S
C879 C878 1.362 . S
H880 C886 0.930 . S
H881 C889 0.930 . S
H882 C890 0.930 . S
H883 C891 0.930 . S
H884 C894 0.930 . S
H885 C895 0.930 . S
C886 H880 0.930 . S
C886 C887 1.355 . S
C886 C888 1.415 . S
C887 C886 1.355 . S
C887 C889 1.419 . S
C888 C886 1.415 . S
C888 C893 1.425 . S
C888 C895 1.409 . S
C889 H881 0.930 . S
C889 C887 1.419 . S
C889 C890 1.362 . S
C890 H882 0.930 . S
C890 C889 1.362 . S
C890 C893 1.409 . S
C891 H883 0.930 . S
C891 C892 1.355 . S
C891 C893 1.415 . S
C892 C891 1.355 . S
C892 C894 1.419 . S
C893 C888 1.425 . S
C893 C890 1.409 . S
C893 C891 1.415 . S
C894 H884 0.930 . S
C894 C892 1.419 . S
C894 C895 1.362 . S
C895 H885 0.930 . S
C895 C888 1.409 . S
C895 C894 1.362 . S
H896 C902 0.930 . S
H897 C905 0.930 . S
H898 C906 0.930 . S
H899 C907 0.930 . S
H900 C910 0.930 . S
H901 C911 0.930 . S
C902 H896 0.930 . S
C902 C903 1.355 . S
C902 C904 1.415 . S
C903 C902 1.355 . S
C903 C905 1.419 . S
C904 C902 1.415 . S
C904 C909 1.425 . S
C904 C911 1.409 . S
C905 H897 0.930 . S
C905 C903 1.419 . S
C905 C906 1.362 . S
C906 H898 0.930 . S
C906 C905 1.362 . S
C906 C909 1.409 . S
C907 H899 0.930 . S
C907 C908 1.355 . S
C907 C909 1.415 . S
C908 C907 1.355 . S
C908 C910 1.419 . S
C909 C904 1.425 . S
C909 C906 1.409 . S
C909 C907 1.415 . S
C910 H900 0.930 . S
C910 C908 1.419 . S
C910 C911 1.362 . S
C911 H901 0.930 . S
C911 C904 1.409 . S
C911 C910 1.362 . S
H912 C918 0.930 . S
H913 C921 0.930 . S
H914 C922 0.930 . S
H915 C923 0.930 . S
H916 C926 0.930 . S
H917 C927 0.930 . S
C918 H912 0.930 . S
C918 C919 1.355 . S
C918 C920 1.415 . S
C919 C918 1.355 . S
C919 C921 1.419 . S
C920 C918 1.415 . S
C920 C925 1.425 . S
C920 C927 1.409 . S
C921 H913 0.930 . S
C921 C919 1.419 . S
C921 C922 1.362 . S
C922 H914 0.930 . S
C922 C921 1.362 . S
C922 C925 1.409 . S
C923 H915 0.930 . S
C923 C924 1.355 . S
C923 C925 1.415 . S
C924 C923 1.355 . S
C924 C926 1.419 . S
C925 C920 1.425 . S
C925 C922 1.409 . S
C925 C923 1.415 . S
C926 H916 0.930 . S
C926 C924 1.419 . S
C926 C927 1.362 . S
C927 H917 0.930 . S
C927 C920 1.409 . S
C927 C926 1.362 . S
H928 C934 0.930 . S
H929 C937 0.930 . S
H930 C938 0.930 . S
H931 C939 0.930 . S
H932 C942 0.930 . S
H933 C943 0.930 . S
C934 H928 0.930 . S
C934 C935 1.355 . S
C934 C936 1.415 . S
C935 C934 1.355 . S
C935 C937 1.419 . S
C936 C934 1.415 . S
C936 C941 1.425 . S
C936 C943 1.409 . S
C937 H929 0.930 . S
C937 C935 1.419 . S
C937 C938 1.362 . S
C938 H930 0.930 . S
C938 C937 1.362 . S
C938 C941 1.409 . S
C939 H931 0.930 . S
C939 C940 1.355 . S
C939 C941 1.415 . S
C940 C939 1.355 . S
C940 C942 1.419 . S
C941 C936 1.425 . S
C941 C938 1.409 . S
C941 C939 1.415 . S
C942 H932 0.930 . S
C942 C940 1.419 . S
C942 C943 1.362 . S
C943 H933 0.930 . S
C943 C936 1.409 . S
C943 C942 1.362 . S
H944 C950 0.930 . S
H945 C953 0.930 . S
H946 C954 0.930 . S
H947 C955 0.930 . S
H948 C958 0.930 . S
H949 C959 0.930 . S
C950 H944 0.930 . S
C950 C951 1.355 . S
C950 C952 1.415 . S
C951 C950 1.355 . S
C951 C953 1.419 . S
C952 C950 1.415 . S
C952 C957 1.425 . S
C952 C959 1.409 . S
C953 H945 0.930 . S
C953 C951 1.419 . S
C953 C954 1.362 . S
C954 H946 0.930 . S
C954 C953 1.362 . S
C954 C957 1.409 . S
C955 H947 0.930 . S
C955 C956 1.355 . S
C955 C957 1.415 . S
C956 C955 1.355 . S
C956 C958 1.419 . S
C957 C952 1.425 . S
C957 C954 1.409 . S
C957 C955 1.415 . S
C958 H948 0.930 . S
C958 C956 1.419 . S
C958 C959 1.362 . S
C959 H949 0.930 . S
C959 C952 1.409 . S
C959 C958 1.362 . S
H960 C966 0.930 . S
H961 C969 0.930 . S
H962 C970 0.930 . S
H963 C971 0.930 . S
H964 C974 0.930 . S
H965 C975 0.930 . S
C966 H960 0.930 . S
C966 C967 1.355 . S
C966 C968 1.415 . S
C967 C966 1.355 . S
C967 C969 1.419 . S
C968 C966 1.415 . S
C968 C973 1.425 . S
C968 C975 1.409 . S
C969 H961 0.930 . S
C969 C967 1.419 . S
C969 C970 1.362 . S
C970 H962 0.930 . S
C970 C969 1.362 . S
C970 C973 1.409 . S
C971 H963 0.930 . S
C971 C972 1.355 . S
C971 C973 1.415 . S
C972 C971 1.355 . S
C972 C974 1.419 . S
C973 C968 1.425 . S
C973 C970 1.409 . S
C973 C971 1.415 . S
C974 H964 0.930 . S
C974 C972 1.419 . S
C974 C975 1.362 . S
C975 H965 0.930 . S
C975 C968 1.409 . S
C975 C974 1.362 . S
H976 C982 0.930 . S
H977 C985 0.930 . S
H978 C986 0.930 . S
H979 C987 0.930 . S
H980 C990 0.930 . S
H981 C991 0.930 . S
C982 H976 0.930 . S
C982 C983 1.355 . S
C982 C984 1.415 . S
C983 C982 1.355 . S
C983 C985 1.419 . S
C984 C982 1.415 . S
C984 C989 1.425 . S
C984 C991 1.409 . S
C985 H977 0.930 . S
C985 C983 1.419 . S
C985 C986 1.362 . S
C986 H978 0.930 . S
C986 C985 1.362 . S
C986 C989 1.409 . S
C987 H979 0.930 . S
C987 C988 1.355 . S
C987 C989 1.415 . S
C988 C987 1.355 . S
C988 C990 1.419 . S
C989 C984 1.425 . S
C989 C986 1.409 . S
C989 C987 1.415 . S
C990 H980 0.930 . S
C990 C988 1.419 . S
C990 C991 1.362 . S
C991 H981 0.930 . S
C991 C984 1.409 . S
C991 C990 1.362 . S
H992 C998 0.930 . S
H993 C1001 0.930 . S
H994 C1002 0.930 . S
H995 C1003 0.930 . S
H996 C1006 0.930 . S
H997 C1007 0.930 . S
C998 H992 0.930 . S
C998 C999 1.355 . S
C998 C1000 1.415 . S
C999 C998 1.355 . S
C999 C1001 1.419 . S
C1000 C998 1.415 . S
C1000 C1005 1.425 . S
C1000 C1007 1.409 . S
C1001 H993 0.930 . S
C1001 C999 1.419 . S
C1001 C1002 1.362 . S
C1002 H994 0.930 . S
C1002 C1001 1.362 . S
C1002 C1005 1.409 . S
C1003 H995 0.930 . S
C1003 C1004 1.355 . S
C1003 C1005 1.415 . S
C1004 C1003 1.355 . S
C1004 C1006 1.419 . S
C1005 C1000 1.425 . S
C1005 C1002 1.409 . S
C1005 C1003 1.415 . S
C1006 H996 0.930 . S
C1006 C1004 1.419 . S
C1006 C1007 1.362 . S
C1007 H997 0.930 . S
C1007 C1000 1.409 . S
C1007 C1006 1.362 . S
H1008 C1014 0.930 . S
H1009 C1017 0.930 . S
H1010 C1018 0.930 . S
H1011 C1019 0.930 . S
H1012 C1022 0.930 . S
H1013 C1023 0.930 . S
C1014 H1008 0.930 . S
C1014 C1015 1.355 . S
C1014 C1016 1.415 . S
C1015 C1014 1.355 . S
C1015 C1017 1.419 . S
C1016 C1014 1.415 . S
C1016 C1021 1.425 . S
C1016 C1023 1.409 . S
C1017 H1009 0.930 . S
C1017 C1015 1.419 . S
C1017 C1018 1.362 . S
C1018 H1010 0.930 . S
C1018 C1017 1.362 . S
C1018 C1021 1.409 . S
C1019 H1011 0.930 . S
C1019 C1020 1.355 . S
C1019 C1021 1.415 . S
C1020 C1019 1.355 . S
C1020 C1022 1.419 . S
C1021 C1016 1.425 . S
C1021 C1018 1.409 . S
C1021 C1019 1.415 . S
C1022 H1012 0.930 . S
C1022 C1020 1.419 . S
C1022 C1023 1.362 . S
C1023 H1013 0.930 . S
C1023 C1016 1.409 . S
C1023 C1022 1.362 . S
H1024 C1030 0.930 . S
H1025 C1033 0.930 . S
H1026 C1034 0.930 . S
H1027 C1035 0.930 . S
H1028 C1038 0.930 . S
H1029 C1039 0.930 . S
C1030 H1024 0.930 . S
C1030 C1031 1.355 . S
C1030 C1032 1.415 . S
C1031 C1030 1.355 . S
C1031 C1033 1.419 . S
C1032 C1030 1.415 . S
C1032 C1037 1.425 . S
C1032 C1039 1.409 . S
C1033 H1025 0.930 . S
C1033 C1031 1.419 . S
C1033 C1034 1.362 . S
C1034 H1026 0.930 . S
C1034 C1033 1.362 . S
C1034 C1037 1.409 . S
C1035 H1027 0.930 . S
C1035 C1036 1.355 . S
C1035 C1037 1.415 . S
C1036 C1035 1.355 . S
C1036 C1038 1.419 . S
C1037 C1032 1.425 . S
C1037 C1034 1.409 . S
C1037 C1035 1.415 . S
C1038 H1028 0.930 . S
C1038 C1036 1.419 . S
C1038 C1039 1.362 . S
C1039 H1029 0.930 . S
C1039 C1032 1.409 . S
C1039 C1038 1.362 . S
H1040 C1046 0.930 . S
H1041 C1049 0.930 . S
H1042 C1050 0.930 . S
H1043 C1051 0.930 . S
H1044 C1054 0.930 . S
H1045 C1055 0.930 . S
C1046 H1040 0.930 . S
C1046 C1047 1.355 . S
C1046 C1048 1.415 . S
C1047 C1046 1.355 . S
C1047 C1049 1.419 . S
C1048 C1046 1.415 . S
C1048 C1053 1.425 . S
C1048 C1055 1.409 . S
C1049 H1041 0.930 . S
C1049 C1047 1.419 . S
C1049 C1050 1.362 . S
C1050 H1042 0.930 . S
C1050 C1049 1.362 . S
C1050 C1053 1.409 . S
C1051 H1043 0.930 . S
C1051 C1052 1.355 . S
C1051 C1053 1.415 . S
C1052 C1051 1.355 . S
C1052 C1054 1.419 . S
C1053 C1048 1.425 . S
C1053 C1050 1.409 . S
C1053 C1051 1.415 . S
C1054 H1044 0.930 . S
C1054 C1052 1.419 . S
C1054 C1055 1.362 . S
C1055 H1045 0.930 . S
C1055 C1048 1.409 . S
C1055 C1054 1.362 . S
H1056 C1062 0.930 . S
H1057 C1065 0.930 . S
H1058 C1066 0.930 . S
H1059 C1067 0.930 . S
H1060 C1070 0.930 . S
H1061 C1071 0.930 . S
C1062 H1056 0.930 . S
C1062 C1063 1.355 . S
C1062 C1064 1.415 . S
C1063 C1062 1.355 . S
C1063 C1065 1.419 . S
C1064 C1062 1.415 . S
C1064 C1069 1.425 . S
C1064 C1071 1.409 . S
C1065 H1057 0.930 . S
C1065 C1063 1.419 . S
C1065 C1066 1.362 . S
C1066 H1058 0.930 . S
C1066 C1065 1.362 . S
C1066 C1069 1.409 . S
C1067 H1059 0.930 . S
C1067 C1068 1.355 . S
C1067 C1069 1.415 . S
C1068 C1067 1.355 . S
C1068 C1070 1.419 . S
C1069 C1064 1.425 . S
C1069 C1066 1.409 . S
C1069 C1067 1.415 . S
C1070 H1060 0.930 . S
C1070 C1068 1.419 . S
C1070 C1071 1.362 . S
C1071 H1061 0.930 . S
C1071 C1064 1.409 . S
C1071 C1070 1.362 . S
H1072 C1078 0.930 . S
H1073 C1081 0.930 . S
H1074 C1082 0.930 . S
H1075 C1083 0.930 . S
H1076 C1086 0.930 . S
H1077 C1087 0.930 . S
C1078 H1072 0.930 . S
C1078 C1079 1.355 . S
C1078 C1080 1.415 . S
C1079 C1078 1.355 . S
C1079 C1081 1.419 . S
C1080 C1078 1.415 . S
C1080 C1085 1.425 . S
C1080 C1087 1.409 . S
C1081 H1073 0.930 . S
C1081 C1079 1.419 . S
C1081 C1082 1.362 . S
C1082 H1074 0.930 . S
C1082 C1081 1.362 . S
C1082 C1085 1.409 . S
C1083 H1075 0.930 . S
C1083 C1084 1.355 . S
C1083 C1085 1.415 . S
C1084 C1083 1.355 . S
C1084 C1086 1.419 . S
C1085 C1080 1.425 . S
C1085 C1082 1.409 . S
C1085 C1083 1.415 . S
C1086 H1076 0.930 . S
C1086 C1084 1.419 . S
C1086 C1087 1.362 . S
C1087 H1077 0.930 . S
C1087 C1080 1.409 . S
C1087 C1086 1.362 . S
H1088 C1094 0.930 . S
H1089 C1097 0.930 . S
H1090 C1098 0.930 . S
H1091 C1099 0.930 . S
H1092 C1102 0.930 . S
H1093 C1103 0.930 . S
C1094 H1088 0.930 . S
C1094 C1095 1.355 . S
C1094 C1096 1.415 . S
C1095 C1094 1.355 . S
C1095 C1097 1.419 . S
C1096 C1094 1.415 . S
C1096 C1101 1.425 . S
C1096 C1103 1.409 . S
C1097 H1089 0.930 . S
C1097 C1095 1.419 . S
C1097 C1098 1.362 . S
C1098 H1090 0.930 . S
C1098 C1097 1.362 . S
C1098 C1101 1.409 . S
C1099 H1091 0.930 . S
C1099 C1100 1.355 . S
C1099 C1101 1.415 . S
C1100 C1099 1.355 . S
C1100 C1102 1.419 . S
C1101 C1096 1.425 . S
C1101 C1098 1.409 . S
C1101 C1099 1.415 . S
C1102 H1092 0.930 . S
C1102 C1100 1.419 . S
C1102 C1103 1.362 . S
C1103 H1093 0.930 . S
C1103 C1096 1.409 . S
C1103 C1102 1.362 . S
H1104 C1110 0.930 . S
H1105 C1113 0.930 . S
H1106 C1114 0.930 . S
H1107 C1115 0.930 . S
H1108 C1118 0.930 . S
H1109 C1119 0.930 . S
C1110 H1104 0.930 . S
C1110 C1111 1.355 . S
C1110 C1112 1.415 . S
C1111 C1110 1.355 . S
C1111 C1113 1.419 . S
C1112 C1110 1.415 . S
C1112 C1117 1.425 . S
C1112 C1119 1.409 . S
C1113 H1105 0.930 . S
C1113 C1111 1.419 . S
C1113 C1114 1.362 . S
C1114 H1106 0.930 . S
C1114 C1113 1.362 . S
C1114 C1117 1.409 . S
C1115 H1107 0.930 . S
C1115 C1116 1.355 . S
C1115 C1117 1.415 . S
C1116 C1115 1.355 . S
C1116 C1118 1.419 . S
C1117 C1112 1.425 . S
C1117 C1114 1.409 . S
C1117 C1115 1.415 . S
C1118 H1108 0.930 . S
C1118 C1116 1.419 . S
C1118 C1119 1.362 . S
C1119 H1109 0.930 . S
C1119 C1112 1.409 . S
C1119 C1118 1.362 . S
H1120 C1126 0.930 . S
H1121 C1129 0.930 . S
H1122 C1130 0.930 . S
H1123 C1131 0.930 . S
H1124 C1134 0.930 . S
H1125 C1135 0.930 . S
C1126 H1120 0.930 . S
C1126 C1127 1.355 . S
C1126 C1128 1.415 . S
C1127 C1126 1.355 . S
C1127 C1129 1.419 . S
C1128 C1126 1.415 . S
C1128 C1133 1.425 . S
C1128 C1135 1.409 . S
C1129 H1121 0.930 . S
C1129 C1127 1.419 . S
C1129 C1130 1.362 . S
C1130 H1122 0.930 . S
C1130 C1129 1.362 . S
C1130 C1133 1.409 . S
C1131 H1123 0.930 . S
C1131 C1132 1.355 . S
C1131 C1133 1.415 . S
C1132 C1131 1.355 . S
C1132 C1134 1.419 . S
C1133 C1128 1.425 . S
C1133 C1130 1.409 . S
C1133 C1131 1.415 . S
C1134 H1124 0.930 . S
C1134 C1132 1.419 . S
C1134 C1135 1.362 . S
C1135 H1125 0.930 . S
C1135 C1128 1.409 . S
C1135 C1134 1.362 . S
H1136 C1142 0.930 . S
H1137 C1145 0.930 . S
H1138 C1146 0.930 . S
H1139 C1147 0.930 . S
H1140 C1150 0.930 . S
H1141 C1151 0.930 . S
C1142 H1136 0.930 . S
C1142 C1143 1.355 . S
C1142 C1144 1.415 . S
C1143 C1142 1.355 . S
C1143 C1145 1.419 . S
C1144 C1142 1.415 . S
C1144 C1149 1.425 . S
C1144 C1151 1.409 . S
C1145 H1137 0.930 . S
C1145 C1143 1.419 . S
C1145 C1146 1.362 . S
C1146 H1138 0.930 . S
C1146 C1145 1.362 . S
C1146 C1149 1.409 . S
C1147 H1139 0.930 . S
C1147 C1148 1.355 . S
C1147 C1149 1.415 . S
C1148 C1147 1.355 . S
C1148 C1150 1.419 . S
C1149 C1144 1.425 . S
C1149 C1146 1.409 . S
C1149 C1147 1.415 . S
C1150 H1140 0.930 . S
C1150 C1148 1.419 . S
C1150 C1151 1.362 . S
C1151 H1141 0.930 . S
C1151 C1144 1.409 . S
C1151 C1150 1.362 . S
H1152 C1158 0.930 . S
H1153 C1161 0.930 . S
H1154 C1162 0.930 . S
H1155 C1163 0.930 . S
H1156 C1166 0.930 . S
H1157 C1167 0.930 . S
C1158 H1152 0.930 . S
C1158 C1159 1.355 . S
C1158 C1160 1.415 . S
C1159 C1158 1.355 . S
C1159 C1161 1.419 . S
C1160 C1158 1.415 . S
C1160 C1165 1.425 . S
C1160 C1167 1.409 . S
C1161 H1153 0.930 . S
C1161 C1159 1.419 . S
C1161 C1162 1.362 . S
C1162 H1154 0.930 . S
C1162 C1161 1.362 . S
C1162 C1165 1.409 . S
C1163 H1155 0.930 . S
C1163 C1164 1.355 . S
C1163 C1165 1.415 . S
C1164 C1163 1.355 . S
C1164 C1166 1.419 . S
C1165 C1160 1.425 . S
C1165 C1162 1.409 . S
C1165 C1163 1.415 . S
C1166 H1156 0.930 . S
C1166 C1164 1.419 . S
C1166 C1167 1.362 . S
C1167 H1157 0.930 . S
C1167 C1160 1.409 . S
C1167 C1166 1.362 . S
H1168 C1174 0.930 . S
H1169 C1177 0.930 . S
H1170 C1178 0.930 . S
H1171 C1179 0.930 . S
H1172 C1182 0.930 . S
H1173 C1183 0.930 . S
C1174 H1168 0.930 . S
C1174 C1175 1.355 . S
C1174 C1176 1.415 . S
C1175 C1174 1.355 . S
C1175 C1177 1.419 . S
C1176 C1174 1.415 . S
C1176 C1181 1.425 . S
C1176 C1183 1.409 . S
C1177 H1169 0.930 . S
C1177 C1175 1.419 . S
C1177 C1178 1.362 . S
C1178 H1170 0.930 . S
C1178 C1177 1.362 . S
C1178 C1181 1.409 . S
C1179 H1171 0.930 . S
C1179 C1180 1.355 . S
C1179 C1181 1.415 . S
C1180 C1179 1.355 . S
C1180 C1182 1.419 . S
C1181 C1176 1.425 . S
C1181 C1178 1.409 . S
C1181 C1179 1.415 . S
C1182 H1172 0.930 . S
C1182 C1180 1.419 . S
C1182 C1183 1.362 . S
C1183 H1173 0.930 . S
C1183 C1176 1.409 . S
C1183 C1182 1.362 . S
H1184 C1190 0.930 . S
H1185 C1193 0.930 . S
H1186 C1194 0.930 . S
H1187 C1195 0.930 . S
H1188 C1198 0.930 . S
H1189 C1199 0.930 . S
C1190 H1184 0.930 . S
C1190 C1191 1.355 . S
C1190 C1192 1.415 . S
C1191 C1190 1.355 . S
C1191 C1193 1.419 . S
C1192 C1190 1.415 . S
C1192 C1197 1.425 . S
C1192 C1199 1.409 . S
C1193 H1185 0.930 . S
C1193 C1191 1.419 . S
C1193 C1194 1.362 . S
C1194 H1186 0.930 . S
C1194 C1193 1.362 . S
C1194 C1197 1.409 . S
C1195 H1187 0.930 . S
C1195 C1196 1.355 . S
C1195 C1197 1.415 . S
C1196 C1195 1.355 . S
C1196 C1198 1.419 . S
C1197 C1192 1.425 . S
C1197 C1194 1.409 . S
C1197 C1195 1.415 . S
C1198 H1188 0.930 . S
C1198 C1196 1.419 . S
C1198 C1199 1.362 . S
C1199 H1189 0.930 . S
C1199 C1192 1.409 . S
C1199 C1198 1.362 . S
H1200 C1206 0.930 . S
H1201 C1209 0.930 . S
H1202 C1210 0.930 . S
H1203 C1211 0.930 . S
H1204 C1214 0.930 . S
H1205 C1215 0.930 . S
C1206 H1200 0.930 . S
C1206 C1207 1.355 . S
C1206 C1208 1.415 . S
C1207 C1206 1.355 . S
C1207 C1209 1.419 . S
C1208 C1206 1.415 . S
C1208 C1213 1.425 . S
C1208 C1215 1.409 . S
C1209 H1201 0.930 . S
C1209 C1207 1.419 . S
C1209 C1210 1.362 . S
C1210 H1202 0.930 . S
C1210 C1209 1.362 . S
C1210 C1213 1.409 . S
C1211 H1203 0.930 . S
C1211 C1212 1.355 . S
C1211 C1213 1.415 . S
C1212 C1211 1.355 . S
C1212 C1214 1.419 . S
C1213 C1208 1.425 . S
C1213 C1210 1.409 . S
C1213 C1211 1.415 . S
C1214 H1204 0.930 . S
C1214 C1212 1.419 . S
C1214 C1215 1.362 . S
C1215 H1205 0.930 . S
C1215 C1208 1.409 . S
C1215 C1214 1.362 . S
H1216 C1222 0.930 . S
H1217 C1225 0.930 . S
H1218 C1226 0.930 . S
H1219 C1227 0.930 . S
H1220 C1230 0.930 . S
H1221 C1231 0.930 . S
C1222 H1216 0.930 . S
C1222 C1223 1.355 . S
C1222 C1224 1.415 . S
C1223 C1222 1.355 . S
C1223 C1225 1.419 . S
C1224 C1222 1.415 . S
C1224 C1229 1.425 . S
C1224 C1231 1.409 . S
C1225 H1217 0.930 . S
C1225 C1223 1.419 . S
C1225 C1226 1.362 . S
C1226 H1218 0.930 . S
C1226 C1225 1.362 . S
C1226 C1229 1.409 . S
C1227 H1219 0.930 . S
C1227 C1228 1.355 . S
C1227 C1229 1.415 . S
C1228 C1227 1.355 . S
C1228 C1230 1.419 . S
C1229 C1224 1.425 . S
C1229 C1226 1.409 . S
C1229 C1227 1.415 . S
C1230 H1220 0.930 . S
C1230 C1228 1.419 . S
C1230 C1231 1.362 . S
C1231 H1221 0.930 . S
C1231 C1224 1.409 . S
C1231 C1230 1.362 . S
H1232 C1238 0.930 . S
H1233 C1241 0.930 . S
H1234 C1242 0.930 . S
H1235 C1243 0.930 . S
H1236 C1246 0.930 . S
H1237 C1247 0.930 . S
C1238 H1232 0.930 . S
C1238 C1239 1.355 . S
C1238 C1240 1.415 . S
C1239 C1238 1.355 . S
C1239 C1241 1.419 . S
C1240 C1238 1.415 . S
C1240 C1245 1.425 . S
C1240 C1247 1.409 . S
C1241 H1233 0.930 . S
C1241 C1239 1.419 . S
C1241 C1242 1.362 . S
C1242 H1234 0.930 . S
C1242 C1241 1.362 . S
C1242 C1245 1.409 . S
C1243 H1235 0.930 . S
C1243 C1244 1.355 . S
C1243 C1245 1.415 . S
C1244 C1243 1.355 . S
C1244 C1246 1.419 . S
C1245 C1240 1.425 . S
C1245 C1242 1.409 . S
C1245 C1243 1.415 . S
C1246 H1236 0.930 . S
C1246 C1244 1.419 . S
C1246 C1247 1.362 . S
C1247 H1237 0.930 . S
C1247 C1240 1.409 . S
C1247 C1246 1.362 . S
H1248 C1254 0.930 . S
H1249 C1257 0.930 . S
H1250 C1258 0.930 . S
H1251 C1259 0.930 . S
H1252 C1262 0.930 . S
H1253 C1263 0.930 . S
C1254 H1248 0.930 . S
C1254 C1255 1.355 . S
C1254 C1256 1.415 . S
C1255 C1254 1.355 . S
C1255 C1257 1.419 . S
C1256 C1254 1.415 . S
C1256 C1261 1.425 . S
C1256 C1263 1.409 . S
C1257 H1249 0.930 . S
C1257 C1255 1.419 . S
C1257 C1258 1.362 . S
C1258 H1250 0.930 . S
C1258 C1257 1.362 . S
C1258 C1261 1.409 . S
C1259 H1251 0.930 . S
C1259 C1260 1.355 . S
C1259 C1261 1.415 . S
C1260 C1259 1.355 . S
C1260 C1262 1.419 . S
C1261 C1256 1.425 . S
C1261 C1258 1.409 . S
C1261 C1259 1.415 . S
C1262 H1252 0.930 . S
C1262 C1260 1.419 . S
C1262 C1263 1.362 . S
C1263 H1253 0.930 . S
C1263 C1256 1.409 . S
C1263 C1262 1.362 . S
H1264 C1270 0.930 . S
H1265 C1273 0.930 . S
H1266 C1274 0.930 . S
H1267 C1275 0.930 . S
H1268 C1278 0.930 . S
H1269 C1279 0.930 . S
C1270 H1264 0.930 . S
C1270 C1271 1.355 . S
C1270 C1272 1.415 . S
C1271 C1270 1.355 . S
C1271 C1273 1.419 . S
C1272 C1270 1.415 . S
C1272 C1277 1.425 . S
C1272 C1279 1.409 . S
C1273 H1265 0.930 . S
C1273 C1271 1.419 . S
C1273 C1274 1.362 . S
C1274 H1266 0.930 . S
C1274 C1273 1.362 . S
C1274 C1277 1.409 . S
C1275 H1267 0.930 . S
C1275 C1276 1.355 . S
C1275 C1277 1.415 . S
C1276 C1275 1.355 . S
C1276 C1278 1.419 . S
C1277 C1272 1.425 . S
C1277 C1274 1.409 . S
C1277 C1275 1.415 . S
C1278 H1268 0.930 . S
C1278 C1276 1.419 . S
C1278 C1279 1.362 . S
C1279 H1269 0.930 . S
C1279 C1272 1.409 . S
C1279 C1278 1.362 . S
H1280 C1286 0.930 . S
H1281 C1289 0.930 . S
H1282 C1290 0.930 . S
H1283 C1291 0.930 . S
H1284 C1294 0.930 . S
H1285 C1295 0.930 . S
C1286 H1280 0.930 . S
C1286 C1287 1.355 . S
C1286 C1288 1.415 . S
C1287 C1286 1.355 . S
C1287 C1289 1.419 . S
C1288 C1286 1.415 . S
C1288 C1293 1.425 . S
C1288 C1295 1.409 . S
C1289 H1281 0.930 . S
C1289 C1287 1.419 . S
C1289 C1290 1.362 . S
C1290 H1282 0.930 . S
C1290 C1289 1.362 . S
C1290 C1293 1.409 . S
C1291 H1283 0.930 . S
C1291 C1292 1.355 . S
C1291 C1293 1.415 . S
C1292 C1291 1.355 . S
C1292 C1294 1.419 . S
C1293 C1288 1.425 . S
C1293 C1290 1.409 . S
C1293 C1291 1.415 . S
C1294 H1284 0.930 . S
C1294 C1292 1.419 . S
C1294 C1295 1.362 . S
C1295 H1285 0.930 . S
C1295 C1288 1.409 . S
C1295 C1294 1.362 . S
H1296 C1302 0.930 . S
H1297 C1305 0.930 . S
H1298 C1306 0.930 . S
H1299 C1307 0.930 . S
H1300 C1310 0.930 . S
H1301 C1311 0.930 . S
C1302 H1296 0.930 . S
C1302 C1303 1.355 . S
C1302 C1304 1.415 . S
C1303 C1302 1.355 . S
C1303 C1305 1.419 . S
C1304 C1302 1.415 . S
C1304 C1309 1.425 . S
C1304 C1311 1.409 . S
C1305 H1297 0.930 . S
C1305 C1303 1.419 . S
C1305 C1306 1.362 . S
C1306 H1298 0.930 . S
C1306 C1305 1.362 . S
C1306 C1309 1.409 . S
C1307 H1299 0.930 . S
C1307 C1308 1.355 . S
C1307 C1309 1.415 . S
C1308 C1307 1.355 . S
C1308 C1310 1.419 . S
C1309 C1304 1.425 . S
C1309 C1306 1.409 . S
C1309 C1307 1.415 . S
C1310 H1300 0.930 . S
C1310 C1308 1.419 . S
C1310 C1311 1.362 . S
C1311 H1301 0.930 . S
C1311 C1304 1.409 . S
C1311 C1310 1.362 . S
H1312 C1318 0.930 . S
H1313 C1321 0.930 . S
H1314 C1322 0.930 . S
H1315 C1323 0.930 . S
H1316 C1326 0.930 . S
H1317 C1327 0.930 . S
C1318 H1312 0.930 . S
C1318 C1319 1.355 . S
C1318 C1320 1.415 . S
C1319 C1318 1.355 . S
C1319 C1321 1.419 . S
C1320 C1318 1.415 . S
C1320 C1325 1.425 . S
C1320 C1327 1.409 . S
C1321 H1313 0.930 . S
C1321 C1319 1.419 . S
C1321 C1322 1.362 . S
C1322 H1314 0.930 . S
C1322 C1321 1.362 . S
C1322 C1325 1.409 . S
C1323 H1315 0.930 . S
C1323 C1324 1.355 . S
C1323 C1325 1.415 . S
C1324 C1323 1.355 . S
C1324 C1326 1.419 . S
C1325 C1320 1.425 . S
C1325 C1322 1.409 . S
C1325 C1323 1.415 . S
C1326 H1316 0.930 . S
C1326 C1324 1.419 . S
C1326 C1327 1.362 . S
C1327 H1317 0.930 . S
C1327 C1320 1.409 . S
C1327 C1326 1.362 . S
H1328 C1334 0.930 . S
H1329 C1337 0.930 . S
H1330 C1338 0.930 . S
H1331 C1339 0.930 . S
H1332 C1342 0.930 . S
H1333 C1343 0.930 . S
C1334 H1328 0.930 . S
C1334 C1335 1.355 . S
C1334 C1336 1.415 . S
C1335 C1334 1.355 . S
C1335 C1337 1.419 . S
C1336 C1334 1.415 . S
C1336 C1341 1.425 . S
C1336 C1343 1.409 . S
C1337 H1329 0.930 . S
C1337 C1335 1.419 . S
C1337 C1338 1.362 . S
C1338 H1330 0.930 . S
C1338 C1337 1.362 . S
C1338 C1341 1.409 . S
C1339 H1331 0.930 . S
C1339 C1340 1.355 . S
C1339 C1341 1.415 . S
C1340 C1339 1.355 . S
C1340 C1342 1.419 . S
C1341 C1336 1.425 . S
C1341 C1338 1.409 . S
C1341 C1339 1.415 . S
C1342 H1332 0.930 . S
C1342 C1340 1.419 . S
C1342 C1343 1.362 . S
C1343 H1333 0.930 . S
C1343 C1336 1.409 . S
C1343 C1342 1.362 . S
H1344 C1350 0.930 . S
H1345 C1353 0.930 . S
H1346 C1354 0.930 . S
H1347 C1355 0.930 . S
H1348 C1358 0.930 . S
H1349 C1359 0.930 . S
C1350 H1344 0.930 . S
C1350 C1351 1.355 . S
C1350 C1352 1.415 . S
C1351 C1350 1.355 . S
C1351 C1353 1.419 . S
C1352 C1350 1.415 . S
C1352 C1357 1.425 . S
C1352 C1359 1.409 . S
C1353 H1345 0.930 . S
C1353 C1351 1.419 . S
C1353 C1354 1.362 . S
C1354 H1346 0.930 . S
C1354 C1353 1.362 . S
C1354 C1357 1.409 . S
C1355 H1347 0.930 . S
C1355 C1356 1.355 . S
C1355 C1357 1.415 . S
C1356 C1355 1.355 . S
C1356 C1358 1.419 . S
C1357 C1352 1.425 . S
C1357 C1354 1.409 . S
C1357 C1355 1.415 . S
C1358 H1348 0.930 . S
C1358 C1356 1.419 . S
C1358 C1359 1.362 . S
C1359 H1349 0.930 . S
C1359 C1352 1.409 . S
C1359 C1358 1.362 . S
H1360 C1366 0.930 . S
H1361 C1369 0.930 . S
H1362 C1370 0.930 . S
H1363 C1371 0.930 . S
H1364 C1374 0.930 . S
H1365 C1375 0.930 . S
C1366 H1360 0.930 . S
C1366 C1367 1.355 . S
C1366 C1368 1.415 . S
C1367 C1366 1.355 . S
C1367 C1369 1.419 . S
C1368 C1366 1.415 . S
C1368 C1373 1.425 . S
C1368 C1375 1.409 . S
C1369 H1361 0.930 . S
C1369 C1367 1.419 . S
C1369 C1370 1.362 . S
C1370 H1362 0.930 . S
C1370 C1369 1.362 . S
C1370 C1373 1.409 . S
C1371 H1363 0.930 . S
C1371 C1372 1.355 . S
C1371 C1373 1.415 . S
C1372 C1371 1.355 . S
C1372 C1374 1.419 . S
C1373 C1368 1.425 . S
C1373 C1370 1.409 . S
C1373 C1371 1.415 . S
C1374 H1364 0.930 . S
C1374 C1372 1.419 . S
C1374 C1375 1.362 . S
C1375 H1365 0.930 . S
C1375 C1368 1.409 . S
C1375 C1374 1.362 . S
H1376 C1382 0.930 . S
H1377 C1385 0.930 . S
H1378 C1386 0.930 . S
H1379 C1387 0.930 . S
H1380 C1390 0.930 . S
H1381 C1391 0.930 . S
C1382 H1376 0.930 . S
C1382 C1383 1.355 . S
C1382 C1384 1.415 . S
C1383 C1382 1.355 . S
C1383 C1385 1.419 . S
C1384 C1382 1.415 . S
C1384 C1389 1.425 . S
C1384 C1391 1.409 . S
C1385 H1377 0.930 . S
C1385 C1383 1.419 . S
C1385 C1386 1.362 . S
C1386 H1378 0.930 . S
C1386 C1385 1.362 . S
C1386 C1389 1.409 . S
C1387 H1379 0.930 . S
C1387 C1388 1.355 . S
C1387 C1389 1.415 . S
C1388 C1387 1.355 . S
C1388 C1390 1.419 . S
C1389 C1384 1.425 . S
C1389 C1386 1.409 . S
C1389 C1387 1.415 . S
C1390 H1380 0.930 . S
C1390 C1388 1.419 . S
C1390 C1391 1.362 . S
C1391 H1381 0.930 . S
C1391 C1384 1.409 . S
C1391 C1390 1.362 . S
H1392 C1398 0.930 . S
H1393 C1401 0.930 . S
H1394 C1402 0.930 . S
H1395 C1403 0.930 . S
H1396 C1406 0.930 . S
H1397 C1407 0.930 . S
C1398 H1392 0.930 . S
C1398 C1399 1.355 . S
C1398 C1400 1.415 . S
C1399 C1398 1.355 . S
C1399 C1401 1.419 . S
C1400 C1398 1.415 . S
C1400 C1405 1.425 . S
C1400 C1407 1.409 . S
C1401 H1393 0.930 . S
C1401 C1399 1.419 . S
C1401 C1402 1.362 . S
C1402 H1394 0.930 . S
C1402 C1401 1.362 . S
C1402 C1405 1.409 . S
C1403 H1395 0.930 . S
C1403 C1404 1.355 . S
C1403 C1405 1.415 . S
C1404 C1403 1.355 . S
C1404 C1406 1.419 . S
C1405 C1400 1.425 . S
C1405 C1402 1.409 . S
C1405 C1403 1.415 . S
C1406 H1396 0.930 . S
C1406 C1404 1.419 . S
C1406 C1407 1.362 . S
C1407 H1397 0.930 . S
C1407 C1400 1.409 . S
C1407 C1406 1.362 . S
H1408 C1414 0.930 . S
H1409 C1417 0.930 . S
H1410 C1418 0.930 . S
H1411 C1419 0.930 . S
H1412 C1422 0.930 . S
H1413 C1423 0.930 . S
C1414 H1408 0.930 . S
C1414 C1415 1.355 . S
C1414 C1416 1.415 . S
C1415 C1414 1.355 . S
C1415 C1417 1.419 . S
C1416 C1414 1.415 . S
C1416 C1421 1.425 . S
C1416 C1423 1.409 . S
C1417 H1409 0.930 . S
C1417 C1415 1.419 . S
C1417 C1418 1.362 . S
C1418 H1410 0.930 . S
C1418 C1417 1.362 . S
C1418 C1421 1.409 . S
C1419 H1411 0.930 . S
C1419 C1420 1.355 . S
C1419 C1421 1.415 . S
C1420 C1419 1.355 . S
C1420 C1422 1.419 . S
C1421 C1416 1.425 . S
C1421 C1418 1.409 . S
C1421 C1419 1.415 . S
C1422 H1412 0.930 . S
C1422 C1420 1.419 . S
C1422 C1423 1.362 . S
C1423 H1413 0.930 . S
C1423 C1416 1.409 . S
C1423 C1422 1.362 . S
H1424 C1430 0.930 . S
H1425 C1433 0.930 . S
H1426 C1434 0.930 . S
H1427 C1435 0.930 . S
H1428 C1438 0.930 . S
H1429 C1439 0.930 . S
C1430 H1424 0.930 . S
C1430 C1431 1.355 . S
C1430 C1432 1.415 . S
C1431 C1430 1.355 . S
C1431 C1433 1.419 . S
C1432 C1430 1.415 . S
C1432 C1437 1.425 . S
C1432 C1439 1.409 . S
C1433 H1425 0.930 . S
C1433 C1431 1.419 . S
C1433 C1434 1.362 . S
C1434 H1426 0.930 . S
C1434 C1433 1.362 . S
C1434 C1437 1.409 . S
C1435 H1427 0.930 . S
C1435 C1436 1.355 . S
C1435 C1437 1.415 . S
C1436 C1435 1.355 . S
C1436 C1438 1.419 . S
C1437 C1432 1.425 . S
C1437 C1434 1.409 . S
C1437 C1435 1.415 . S
C1438 H1428 0.930 . S
C1438 C1436 1.419 . S
C1438 C1439 1.362 . S
C1439 H1429 0.930 . S
C1439 C1432 1.409 . S
C1439 C1438 1.362 . S
H1440 C1446 0.930 . S
H1441 C1449 0.930 . S
H1442 C1450 0.930 . S
H1443 C1451 0.930 . S
H1444 C1454 0.930 . S
H1445 C1455 0.930 . S
C1446 H1440 0.930 . S
C1446 C1447 1.355 . S
C1446 C1448 1.415 . S
C1447 C1446 1.355 . S
C1447 C1449 1.419 . S
C1448 C1446 1.415 . S
C1448 C1453 1.425 . S
C1448 C1455 1.409 . S
C1449 H1441 0.930 . S
C1449 C1447 1.419 . S
C1449 C1450 1.362 . S
C1450 H1442 0.930 . S
C1450 C1449 1.362 . S
C1450 C1453 1.409 . S
C1451 H1443 0.930 . S
C1451 C1452 1.355 . S
C1451 C1453 1.415 . S
C1452 C1451 1.355 . S
C1452 C1454 1.419 . S
C1453 C1448 1.425 . S
C1453 C1450 1.409 . S
C1453 C1451 1.415 . S
C1454 H1444 0.930 . S
C1454 C1452 1.419 . S
C1454 C1455 1.362 . S
C1455 H1445 0.930 . S
C1455 C1448 1.409 . S
C1455 C1454 1.362 . S
H1456 C1462 0.930 . S
H1457 C1465 0.930 . S
H1458 C1466 0.930 . S
H1459 C1467 0.930 . S
H1460 C1470 0.930 . S
H1461 C1471 0.930 . S
C1462 H1456 0.930 . S
C1462 C1463 1.355 . S
C1462 C1464 1.415 . S
C1463 C1462 1.355 . S
C1463 C1465 1.419 . S
C1464 C1462 1.415 . S
C1464 C1469 1.425 . S
C1464 C1471 1.409 . S
C1465 H1457 0.930 . S
C1465 C1463 1.419 . S
C1465 C1466 1.362 . S
C1466 H1458 0.930 . S
C1466 C1465 1.362 . S
C1466 C1469 1.409 . S
C1467 H1459 0.930 . S
C1467 C1468 1.355 . S
C1467 C1469 1.415 . S
C1468 C1467 1.355 . S
C1468 C1470 1.419 . S
C1469 C1464 1.425 . S
C1469 C1466 1.409 . S
C1469 C1467 1.415 . S
C1470 H1460 0.930 . S
C1470 C1468 1.419 . S
C1470 C1471 1.362 . S
C1471 H1461 0.930 . S
C1471 C1464 1.409 . S
C1471 C1470 1.362 . S
H1472 C1478 0.930 . S
H1473 C1481 0.930 . S
H1474 C1482 0.930 . S
H1475 C1483 0.930 . S
H1476 C1486 0.930 . S
H1477 C1487 0.930 . S
C1478 H1472 0.930 . S
C1478 C1479 1.355 . S
C1478 C1480 1.415 . S
C1479 C1478 1.355 . S
C1479 C1481 1.419 . S
C1480 C1478 1.415 . S
C1480 C1485 1.425 . S
C1480 C1487 1.409 . S
C1481 H1473 0.930 . S
C1481 C1479 1.419 . S
C1481 C1482 1.362 . S
C1482 H1474 0.930 . S
C1482 C1481 1.362 . S
C1482 C1485 1.409 . S
C1483 H1475 0.930 . S
C1483 C1484 1.355 . S
C1483 C1485 1.415 . S
C1484 C1483 1.355 . S
C1484 C1486 1.419 . S
C1485 C1480 1.425 . S
C1485 C1482 1.409 . S
C1485 C1483 1.415 . S
C1486 H1476 0.930 . S
C1486 C1484 1.419 . S
C1486 C1487 1.362 . S
C1487 H1477 0.930 . S
C1487 C1480 1.409 . S
C1487 C1486 1.362 . S
H1488 C1494 0.930 . S
H1489 C1497 0.930 . S
H1490 C1498 0.930 . S
H1491 C1499 0.930 . S
H1492 C1502 0.930 . S
H1493 C1503 0.930 . S
C1494 H1488 0.930 . S
C1494 C1495 1.355 . S
C1494 C1496 1.415 . S
C1495 C1494 1.355 . S
C1495 C1497 1.419 . S
C1496 C1494 1.415 . S
C1496 C1501 1.425 . S
C1496 C1503 1.409 . S
C1497 H1489 0.930 . S
C1497 C1495 1.419 . S
C1497 C1498 1.362 . S
C1498 H1490 0.930 . S
C1498 C1497 1.362 . S
C1498 C1501 1.409 . S
C1499 H1491 0.930 . S
C1499 C1500 1.355 . S
C1499 C1501 1.415 . S
C1500 C1499 1.355 . S
C1500 C1502 1.419 . S
C1501 C1496 1.425 . S
C1501 C1498 1.409 . S
C1501 C1499 1.415 . S
C1502 H1492 0.930 . S
C1502 C1500 1.419 . S
C1502 C1503 1.362 . S
C1503 H1493 0.930 . S
C1503 C1496 1.409 . S
C1503 C1502 1.362 . S
H1504 C1510 0.930 . S
H1505 C1513 0.930 . S
H1506 C1514 0.930 . S
H1507 C1515 0.930 . S
H1508 C1518 0.930 . S
H1509 C1519 0.930 . S
C1510 H1504 0.930 . S
C1510 C1511 1.355 . S
C1510 C1512 1.415 . S
C1511 C1510 1.355 . S
C1511 C1513 1.419 . S
C1512 C1510 1.415 . S
C1512 C1517 1.425 . S
C1512 C1519 1.409 . S
C1513 H1505 0.930 . S
C1513 C1511 1.419 . S
C1513 C1514 1.362 . S
C1514 H1506 0.930 . S
C1514 C1513 1.362 . S
C1514 C1517 1.409 . S
C1515 H1507 0.930 . S
C1515 C1516 1.355 . S
C1515 C1517 1.415 . S
C1516 C1515 1.355 . S
C1516 C1518 1.419 . S
C1517 C1512 1.425 . S
C1517 C1514 1.409 . S
C1517 C1515 1.415 . S
C1518 H1508 0.930 . S
C1518 C1516 1.419 . S
C1518 C1519 1.362 . S
C1519 H1509 0.930 . S
C1519 C1512 1.409 . S
C1519 C1518 1.362 . S
H1520 C1526 0.930 . S
H1521 C1529 0.930 . S
H1522 C1530 0.930 . S
H1523 C1531 0.930 . S
H1524 C1534 0.930 . S
H1525 C1535 0.930 . S
C1526 H1520 0.930 . S
C1526 C1527 1.355 . S
C1526 C1528 1.415 . S
C1527 C1526 1.355 . S
C1527 C1529 1.419 . S
C1528 C1526 1.415 . S
C1528 C1533 1.425 . S
C1528 C1535 1.409 . S
C1529 H1521 0.930 . S
C1529 C1527 1.419 . S
C1529 C1530 1.362 . S
C1530 H1522 0.930 . S
C1530 C1529 1.362 . S
C1530 C1533 1.409 . S
C1531 H1523 0.930 . S
C1531 C1532 1.355 . S
C1531 C1533 1.415 . S
C1532 C1531 1.355 . S
C1532 C1534 1.419 . S
C1533 C1528 1.425 . S
C1533 C1530 1.409 . S
C1533 C1531 1.415 . S
C1534 H1524 0.930 . S
C1534 C1532 1.419 . S
C1534 C1535 1.362 . S
C1535 H1525 0.930 . S
C1535 C1528 1.409 . S
C1535 C1534 1.362 . S
H1536 C1542 0.930 . S
H1537 C1545 0.930 . S
H1538 C1546 0.930 . S
H1539 C1547 0.930 . S
H1540 C1550 0.930 . S
H1541 C1551 0.930 . S
C1542 H1536 0.930 . S
C1542 C1543 1.355 . S
C1542 C1544 1.415 . S
C1543 C1542 1.355 . S
C1543 C1545 1.419 . S
C1544 C1542 1.415 . S
C1544 C1549 1.425 . S
C1544 C1551 1.409 . S
C1545 H1537 0.930 . S
C1545 C1543 1.419 . S
C1545 C1546 1.362 . S
C1546 H1538 0.930 . S
C1546 C1545 1.362 . S
C1546 C1549 1.409 . S
C1547 H1539 0.930 . S
C1547 C1548 1.355 . S
C1547 C1549 1.415 . S
C1548 C1547 1.355 . S
C1548 C1550 1.419 . S
C1549 C1544 1.425 . S
C1549 C1546 1.409 . S
C1549 C1547 1.415 . S
C1550 H1540 0.930 . S
C1550 C1548 1.419 . S
C1550 C1551 1.362 . S
C1551 H1541 0.930 . S
C1551 C1544 1.409 . S
C1551 C1550 1.362 . S
H1552 C1558 0.930 . S
H1553 C1561 0.930 . S
H1554 C1562 0.930 . S
H1555 C1563 0.930 . S
H1556 C1566 0.930 . S
H1557 C1567 0.930 . S
C1558 H1552 0.930 . S
C1558 C1559 1.355 . S
C1558 C1560 1.415 . S
C1559 C1558 1.355 . S
C1559 C1561 1.419 . S
C1560 C1558 1.415 . S
C1560 C1565 1.425 . S
C1560 C1567 1.409 . S
C1561 H1553 0.930 . S
C1561 C1559 1.419 . S
C1561 C1562 1.362 . S
C1562 H1554 0.930 . S
C1562 C1561 1.362 . S
C1562 C1565 1.409 . S
C1563 H1555 0.930 . S
C1563 C1564 1.355 . S
C1563 C1565 1.415 . S
C1564 C1563 1.355 . S
C1564 C1566 1.419 . S
C1565 C1560 1.425 . S
C1565 C1562 1.409 . S
C1565 C1563 1.415 . S
C1566 H1556 0.930 . S
C1566 C1564 1.419 . S
C1566 C1567 1.362 . S
C1567 H1557 0.930 . S
C1567 C1560 1.409 . S
C1567 C1566 1.362 . S
H1568 C1574 0.930 . S
H1569 C1577 0.930 . S
H1570 C1578 0.930 . S
H1571 C1579 0.930 . S
H1572 C1582 0.930 . S
H1573 C1583 0.930 . S
C1574 H1568 0.930 . S
C1574 C1575 1.355 . S
C1574 C1576 1.415 . S
C1575 C1574 1.355 . S
C1575 C1577 1.419 . S
C1576 C1574 1.415 . S
C1576 C1581 1.425 . S
C1576 C1583 1.409 . S
C1577 H1569 0.930 . S
C1577 C1575 1.419 . S
C1577 C1578 1.362 . S
C1578 H1570 0.930 . S
C1578 C1577 1.362 . S
C1578 C1581 1.409 . S
C1579 H1571 0.930 . S
C1579 C1580 1.355 . S
C1579 C1581 1.415 . S
C1580 C1579 1.355 . S
C1580 C1582 1.419 . S
C1581 C1576 1.425 . S
C1581 C1578 1.409 . S
C1581 C1579 1.415 . S
C1582 H1572 0.930 . S
C1582 C1580 1.419 . S
C1582 C1583 1.362 . S
C1583 H1573 0.930 . S
C1583 C1576 1.409 . S
C1583 C1582 1.362 . S
H1584 C1590 0.930 . S
H1585 C1593 0.930 . S
H1586 C1594 0.930 . S
H1587 C1595 0.930 . S
H1588 C1598 0.930 . S
H1589 C1599 0.930 . S
C1590 H1584 0.930 . S
C1590 C1591 1.355 . S
C1590 C1592 1.415 . S
C1591 C1590 1.355 . S
C1591 C1593 1.419 . S
C1592 C1590 1.415 . S
C1592 C1597 1.425 . S
C1592 C1599 1.409 . S
C1593 H1585 0.930 . S
C1593 C1591 1.419 . S
C1593 C1594 1.362 . S
C1594 H1586 0.930 . S
C1594 C1593 1.362 . S
C1594 C1597 1.409 . S
C1595 H1587 0.930 . S
C1595 C1596 1.355 . S
C1595 C1597 1.415 . S
C1596 C1595 1.355 . S
C1596 C1598 1.419 . S
C1597 C1592 1.425 . S
C1597 C1594 1.409 . S
C1597 C1595 1.415 . S
C1598 H1588 0.930 . S
C1598 C1596 1.419 . S
C1598 C1599 1.362 . S
C1599 H1589 0.930 . S
C1599 C1592 1.409 . S
C1599 C1598 1.362 . S
H1600 C1606 0.930 . S
H1601 C1609 0.930 . S
H1602 C1610 0.930 . S
H1603 C1611 0.930 . S
H1604 C1614 0.930 . S
H1605 C1615 0.930 . S
C1606 H1600 0.930 . S
C1606 C1607 1.355 . S
C1606 C1608 1.415 . S
C1607 C1606 1.355 . S
C1607 C1609 1.419 . S
C1608 C1606 1.415 . S
C1608 C1613 1.425 . S
C1608 C1615 1.409 . S
C1609 H1601 0.930 . S
C1609 C1607 1.419 . S
C1609 C1610 1.362 . S
C1610 H1602 0.930 . S
C1610 C1609 1.362 . S
C1610 C1613 1.409 . S
C1611 H1603 0.930 . S
C1611 C1612 1.355 . S
C1611 C1613 1.415 . S
C1612 C1611 1.355 . S
C1612 C1614 1.419 . S
C1613 C1608 1.425 . S
C1613 C1610 1.409 . S
C1613 C1611 1.415 . S
C1614 H1604 0.930 . S
C1614 C1612 1.419 . S
C1614 C1615 1.362 . S
C1615 H1605 0.930 . S
C1615 C1608 1.409 . S
C1615 C1614 1.362 . S
H1616 C1622 0.930 . S
H1617 C1625 0.930 . S
H1618 C1626 0.930 . S
H1619 C1627 0.930 . S
H1620 C1630 0.930 . S
H1621 C1631 0.930 . S
C1622 H1616 0.930 . S
C1622 C1623 1.355 . S
C1622 C1624 1.415 . S
C1623 C1622 1.355 . S
C1623 C1625 1.419 . S
C1624 C1622 1.415 . S
C1624 C1629 1.425 . S
C1624 C1631 1.409 . S
C1625 H1617 0.930 . S
C1625 C1623 1.419 . S
C1625 C1626 1.362 . S
C1626 H1618 0.930 . S
C1626 C1625 1.362 . S
C1626 C1629 1.409 . S
C1627 H1619 0.930 . S
C1627 C1628 1.355 . S
C1627 C1629 1.415 . S
C1628 C1627 1.355 . S
C1628 C1630 1.419 . S
C1629 C1624 1.425 . S
C1629 C1626 1.409 . S
C1629 C1627 1.415 . S
C1630 H1620 0.930 . S
C1630 C1628 1.419 . S
C1630 C1631 1.362 . S
C1631 H1621 0.930 . S
C1631 C1624 1.409 . S
C1631 C1630 1.362 . S
C876 C689 1.696 . S
C871 C74 1.663 . S
C892 C694 1.196 . S
C887 C153 1.170 . S
C908 C695 1.625 . S
C903 C231 1.633 . S
C919 C310 0.957 . S
C924 C699 0.737 . S
C935 C394 1.157 . S
C940 C702 1.192 . S
C956 C703 1.653 . S
C951 C494 1.617 . S
C967 C573 0.903 . S
C972 C680 0.669 . S
C983 C651 1.647 . S
C988 C696 1.703 . S
C1004 C734 2.381 . S
C999 C56 2.456 . S
C1015 C151 1.608 . S
C1020 C760 1.568 . S
C1036 C712 1.170 . S
C1031 C237 1.194 . S
C1052 C767 1.576 . S
C1047 C326 1.539 . S
C1063 C410 1.598 . S
C1068 C721 1.607 . S
C1084 C763 2.330 . S
C1079 C476 2.438 . S
C1095 C571 1.616 . S
C1100 C727 1.613 . S
C1111 C657 1.211 . S
C1116 C758 1.256 . S
C1127 C58 1.173 . S
C1132 C766 1.252 . S
C1143 C392 1.606 . S
C1148 C753 1.583 . S
C1164 C731 1.230 . S
C1159 C478 1.121 . S
C1180 C759 1.603 . S
C1175 C567 1.599 . S
C1191 C655 2.451 . S
C1196 C726 2.334 . S
C1207 C235 2.438 . S
C1212 C744 2.355 . S
C1228 C735 1.614 . S
C1223 C308 1.628 . S
C1239 C147 1.588 . S
C1244 C728 1.593 . S
C1255 C662 1.659 . S
C1260 C790 1.635 . S
C1271 C405 1.133 . S
C1276 C785 1.208 . S
C1292 C799 1.527 . S
C1287 C483 1.617 . S
C1308 C776 0.464 . S
C1303 C562 0.890 . S
C1319 C142 1.196 . S
C1324 C792 1.163 . S
C1340 C791 1.568 . S
C1335 C242 1.596 . S
C1351 C321 0.844 . S
C1356 C795 0.298 . S
C1367 C63 1.616 . S
C1372 C798 1.577 . S
C1383 C644 2.466 . S
C1388 C824 2.412 . S
C1404 C840 1.518 . S
C1399 C403 1.608 . S
C1415 C489 1.204 . S
C1420 C822 1.224 . S
C1431 C578 1.608 . S
C1436 C855 1.559 . S
C1452 C831 1.553 . S
C1447 C158 1.561 . S
C1463 C224 2.475 . S
C1468 C849 2.413 . S
C1484 C827 1.481 . S
C1479 C319 1.594 . S
C1500 C862 1.275 . S
C1495 C69 1.130 . S
C1516 C854 1.270 . S
C1511 C646 1.139 . S
C1527 C140 1.607 . S
C1532 C859 1.538 . S
C1543 C226 1.163 . S
C1548 C830 1.215 . S
C1564 C863 1.566 . S
C1559 C315 1.602 . S
C1575 C67 2.458 . S
C1580 C817 2.436 . S
C1591 C487 2.474 . S
C1596 C856 2.395 . S
C1612 C808 1.538 . S
C1607 C560 1.611 . S
C1628 C823 1.570 . S
C1623 C399 1.560 . S
