# Generated by pormake.
# Topology nia, (6,6)-cn, num edge types: 1
# Building blocks:
#     Node 0, Type 0, BuildingBlock: BETFAJ_clean_sbu_0, # of connection points: 6
#     Node 1, Type 0, BuildingBlock: BETFAJ_clean_sbu_0, # of connection points: 6
#     Node 2, Type 1, BuildingBlock: MIDCAF_clean_sbu_0, # of connection points: 6
#     Node 3, Type 1, BuildingBlock: MIDCAF_clean_sbu_0, # of connection points: 6
#     Edge 4, Type (0, 1), BuildingBlock: XIVTED_clean_linker_0, # of connection points: 2
#     Edge 5, Type (0, 1), BuildingBlock: XIVTED_clean_linker_0, # of connection points: 2
#     Edge 6, Type (0, 1), BuildingBlock: XIVTED_clean_linker_0, # of connection points: 2
#     Edge 7, Type (0, 1), BuildingBlock: XIVTED_clean_linker_0, # of connection points: 2
#     Edge 8, Type (0, 1), BuildingBlock: XIVTED_clean_linker_0, # of connection points: 2
#     Edge 9, Type (0, 1), BuildingBlock: XIVTED_clean_linker_0, # of connection points: 2
#     Edge 10, Type (0, 1), BuildingBlock: XIVTED_clean_linker_0, # of connection points: 2
#     Edge 11, Type (0, 1), BuildingBlock: XIVTED_clean_linker_0, # of connection points: 2
#     Edge 12, Type (0, 1), BuildingBlock: XIVTED_clean_linker_0, # of connection points: 2
#     Edge 13, Type (0, 1), BuildingBlock: XIVTED_clean_linker_0, # of connection points: 2
#     Edge 14, Type (0, 1), BuildingBlock: XIVTED_clean_linker_0, # of connection points: 2
#     Edge 15, Type (0, 1), BuildingBlock: XIVTED_clean_linker_0, # of connection points: 2
# Relax obj value: 0.326
# Max RMSD: 0.269
# Mean RMSD: 0.249
data_MOF--net-nia--node1-BETFAJ_clean_sbu_0--node2-MIDCAF_clean_sbu_0--edge1-XIVTED_clean_linker_0
_symmetry_space_group_name_H-M    P1
_symmetry_Int_Tables_number       1
_symmetry_cell_setting            triclinic
loop_
_symmetry_equiv_pos_as_xyz
'x, y, z'
_cell_length_a     25.578991
_cell_length_b     28.90575
_cell_length_c     33.088175
_cell_angle_alpha  67.794358
_cell_angle_beta   102.39301
_cell_angle_gamma 127.66749
loop_
_atom_site_label
_atom_site_type_symbol
_atom_site_fract_x
_atom_site_fract_y
_atom_site_fract_z
_atom_type_partial_charge
Sm0 Sm 0.07777 0.02984 0.06779 0.0
Sm1 Sm 0.97093 0.92456 1.03564 0.0
C2 C 0.18504 0.11431 0.09821 0.0
C3 C 0.19743 0.15098 0.12453 0.0
C4 C 0.24176 0.15754 0.15893 0.0
C5 C 0.24971 0.18742 0.18687 0.0
C6 C 0.21351 0.21144 0.18072 0.0
C7 C 0.16949 0.20512 0.14587 0.0
C8 C 0.16117 0.17479 0.11823 0.0
C9 C 0.95808 0.96196 0.10995 0.0
C10 C 0.97997 0.05147 1.00121 0.0
C11 C 0.86316 0.83863 1.00633 0.0
C12 C 0.85226 0.81161 0.97314 0.0
C13 C 0.79271 0.75501 0.97285 0.0
C14 C 0.78406 0.72741 0.94293 0.0
C15 C 0.83506 0.75607 0.91299 0.0
C16 C 0.89389 0.81386 0.91256 0.0
C17 C 0.90244 0.84135 0.94244 0.0
C18 C 0.09023 -0.00686 0.99262 0.0
C19 C 0.06819 0.90394 0.10327 0.0
O20 O 0.1648 0.12703 0.05837 0.0
O21 O 0.153 0.0552 0.11878 0.0
O22 O 0.98087 0.93968 0.09952 0.0
O23 O 0.00057 0.021 0.1014 0.0
O24 O 0.04217 0.08095 1.01292 0.0
O25 O 0.94047 -0.00931 1.01351 0.0
O26 O 0.8931 0.82586 1.04134 0.0
O27 O 0.88572 0.89664 0.99155 0.0
O28 O 0.06734 0.01491 1.00357 0.0
O29 O 0.04764 0.93427 1.0007 0.0
O30 O 0.00516 0.87458 0.0935 0.0
O31 O 0.1085 0.9645 0.08798 0.0
H32 H 0.26932 0.13848 0.16468 0.0
H33 H 0.28349 0.19091 0.21362 0.0
H34 H 0.14183 0.22415 0.13957 0.0
H35 H 0.12591 0.16945 0.09224 0.0
H36 H 0.75359 0.7315 0.99641 0.0
H37 H 0.73856 0.68242 0.94452 0.0
H38 H 0.93377 0.83725 0.88967 0.0
H39 H 0.94871 0.88534 0.9421 0.0
Sm40 Sm 0.98845 0.00358 0.55823 0.0
Sm41 Sm 0.06253 0.95626 0.54859 0.0
C42 C 0.94956 0.06691 0.56495 0.0
C43 C 0.92876 0.076 0.59788 0.0
C44 C 0.86903 0.06961 0.59219 0.0
C45 C 0.848 0.079 0.62199 0.0
C46 C 0.88644 0.0953 0.65818 0.0
C47 C 0.94641 0.10165 0.664 0.0
C48 C 0.96731 0.09179 0.63418 0.0
C49 C 0.93334 0.88144 0.60554 0.0
C50 C 0.94182 0.94331 0.48228 0.0
C51 C 0.10208 0.89349 0.54175 0.0
C52 C 0.12302 0.88435 0.50893 0.0
C53 C 0.18264 0.8905 0.51487 0.0
C54 C 0.20376 0.88096 0.48522 0.0
C55 C 0.16555 0.86477 0.44894 0.0
C56 C 0.1057 0.85867 0.44288 0.0
C57 C 0.0847 0.86867 0.47255 0.0
C58 C 0.11685 0.07841 0.50114 0.0
C59 C 0.10895 0.01623 0.62466 0.0
O60 O 0.90896 0.01323 0.55873 0.0
O61 O 0.01177 0.08884 0.56337 0.0
O62 O 0.99416 0.92418 0.60104 0.0
O63 O 0.89901 0.90312 0.5883 0.0
O64 O 0.95029 -0.01227 0.49202 0.0
O65 O 0.97331 0.91835 0.50349 0.0
O66 O 0.14245 0.94727 0.54782 0.0
O67 O 0.03978 0.87123 0.54343 0.0
O68 O 0.05631 0.03515 0.50578 0.0
O69 O 0.15174 0.05734 0.51846 0.0
O70 O 0.10051 -0.02815 0.61488 0.0
O71 O 0.07757 0.04127 0.60342 0.0
H72 H 0.83875 0.05786 0.56431 0.0
H73 H 0.80224 0.07493 0.61604 0.0
H74 H 0.97693 0.11396 0.69165 0.0
H75 H 0.01358 0.09679 0.63942 0.0
H76 H 0.21273 0.90215 0.54283 0.0
H77 H 0.24942 0.88485 0.49137 0.0
H78 H 0.07536 0.84647 0.41515 0.0
H79 H 0.03852 0.86385 0.46713 0.0
Zn80 Zn 0.36211 0.6626 0.21223 0.0
Zn81 Zn 0.39727 0.64566 0.38037 0.0
Zn82 Zn 0.38793 0.66194 0.2954 0.0
C83 C 0.52552 0.71878 0.34355 0.0
C84 C 0.32367 0.52997 0.37589 0.0
O85 O 0.32789 0.69848 0.26617 0.0
O86 O 0.31137 0.69732 0.19788 0.0
C87 C 0.50167 0.73428 0.22367 0.0
O88 O 0.4946 0.71939 0.30731 0.0
O89 O 0.49415 0.68593 0.37967 0.0
O90 O 0.33588 0.5542 0.40447 0.0
O91 O 0.34233 0.56369 0.33578 0.0
O92 O 0.45773 0.71422 0.19602 0.0
O93 O 0.48542 0.72165 0.26265 0.0
O94 O 0.33818 0.56884 0.29149 0.0
O95 O 0.31097 0.57336 0.22254 0.0
C96 C 0.31105 0.54276 0.26157 0.0
O97 O 0.34189 0.69913 0.30925 0.0
O98 O 0.36809 0.69638 0.37804 0.0
C99 C 0.30258 0.70812 0.22843 0.0
C100 C 0.3427 0.71142 0.34306 0.0
Zn101 Zn 0.69004 0.29841 0.8941 0.0
Zn102 Zn 0.65395 0.31432 0.72524 0.0
Zn103 Zn 0.66369 0.2982 0.81088 0.0
C104 C 0.72857 0.43018 0.73024 0.0
C105 C 0.52583 0.24122 0.76256 0.0
O106 O 0.72132 0.25932 0.84078 0.0
O107 O 0.73799 0.26078 0.90898 0.0
C108 C 0.74307 0.41838 0.84425 0.0
O109 O 0.71091 0.39657 0.77046 0.0
O110 O 0.71434 0.40583 0.70132 0.0
O111 O 0.55691 0.27297 0.72634 0.0
O112 O 0.55696 0.24162 0.79875 0.0
O113 O 0.74349 0.38809 0.88333 0.0
O114 O 0.71493 0.39171 0.81465 0.0
O115 O 0.5663 0.23989 0.84325 0.0
O116 O 0.5943 0.24885 0.90948 0.0
C117 C 0.55026 0.22845 0.88196 0.0
O118 O 0.70893 0.2603 0.79726 0.0
O119 O 0.68469 0.26455 0.72805 0.0
C120 C 0.74572 0.24879 0.87873 0.0
C121 C 0.70919 0.24884 0.7633 0.0
H122 H 0.1844 0.94898 0.14626 0.0
H123 H 0.18394 0.66019 0.1901 0.0
H124 H 0.01559 0.78185 0.12156 0.0
H125 H 0.32645 0.80467 0.24642 0.0
H126 H 0.11937 0.70194 0.16737 0.0
H127 H 0.2352 0.89578 0.18543 0.0
C128 C 0.1578 0.90088 0.14928 0.0
C129 C 0.09595 0.86993 0.13014 0.0
C130 C 0.16412 0.72405 0.18532 0.0
C131 C 0.15419 0.80885 0.17487 0.0
C132 C 0.20101 0.70033 0.19819 0.0
C133 C 0.26027 0.72908 0.22022 0.0
C134 C 0.18749 0.77784 0.19365 0.0
C135 C 0.28053 0.7809 0.22994 0.0
C136 C 0.18676 0.87048 0.17189 0.0
C137 C 0.06345 0.8075 0.13562 0.0
N138 N 0.24457 0.80422 0.21604 0.0
N139 N 0.09339 0.7792 0.157 0.0
H140 H 0.15096 0.11626 0.64668 0.0
H141 H 0.44473 0.11603 0.79027 0.0
H142 H 0.17683 -0.02795 0.67922 0.0
H143 H 0.44485 0.27664 0.72872 0.0
H144 H 0.3298 0.05212 0.76855 0.0
H145 H 0.24173 0.16429 0.69454 0.0
C146 C 0.17502 0.09414 0.66435 0.0
C147 C 0.15703 0.04062 0.65826 0.0
C148 C 0.35436 0.10109 0.76084 0.0
C149 C 0.26093 0.09543 0.71314 0.0
C150 C 0.4195 0.13731 0.77367 0.0
C151 C 0.45347 0.20127 0.76158 0.0
C152 C 0.32364 0.12942 0.73546 0.0
C153 C 0.41973 0.22724 0.73891 0.0
C154 C 0.22689 0.12166 0.69165 0.0
C155 C 0.18968 0.01381 0.68237 0.0
N156 N 0.35679 0.19131 0.72618 0.0
N157 N 0.24054 0.04187 0.70838 0.0
H158 H 0.32902 0.29047 0.21529 0.0
H159 H 0.18684 0.44606 0.25252 0.0
H160 H 0.1203 0.20942 0.21146 0.0
H161 H 0.38375 0.49813 0.28779 0.0
H162 H 0.15648 0.34931 0.24891 0.0
H163 H 0.34634 0.35632 0.25312 0.0
C164 C 0.28655 0.28557 0.22312 0.0
C165 C 0.22327 0.24524 0.20922 0.0
C166 C 0.20582 0.38094 0.25872 0.0
C167 C 0.24309 0.32171 0.25177 0.0
C168 C 0.22291 0.43589 0.26089 0.0
C169 C 0.28749 0.47919 0.27081 0.0
C170 C 0.25452 0.37065 0.26506 0.0
C171 C 0.33315 0.46508 0.28062 0.0
C172 C 0.29653 0.32343 0.24468 0.0
C173 C 0.1703 0.24132 0.22021 0.0
N174 N 0.31614 0.41235 0.27675 0.0
N175 N 0.18157 0.27991 0.24012 0.0
H176 H 0.96043 0.19038 0.69301 0.0
H177 H 0.64048 0.1375 0.75283 0.0
H178 H 0.76216 0.02916 0.69173 0.0
H179 H 0.8368 0.28491 0.77498 0.0
H180 H 0.68538 0.08976 0.7405 0.0
H181 H 0.9189 0.21883 0.73265 0.0
C182 C 0.9084 0.16032 0.70182 0.0
C183 C 0.86446 0.10794 0.68828 0.0
C184 C 0.71886 0.13196 0.7488 0.0
C185 C 0.81655 0.14058 0.73308 0.0
C186 C 0.6931 0.15903 0.75592 0.0
C187 C 0.73521 0.21495 0.76478 0.0
C188 C 0.78756 0.16207 0.74927 0.0
C189 C 0.80299 0.24155 0.76823 0.0
C190 C 0.88468 0.17671 0.72431 0.0
C191 C 0.79754 0.07079 0.70051 0.0
N192 N 0.82739 0.21538 0.7597 0.0
N193 N 0.77559 0.08825 0.72165 0.0
H194 H 0.85574 0.84162 0.11929 0.0
H195 H 0.61364 0.83427 0.24439 0.0
H196 H 0.91255 5e-05 0.14836 0.0
H197 H 0.54661 0.70898 0.17399 0.0
H198 H 0.728 0.88788 0.22118 0.0
H199 H 0.74585 0.78407 0.15107 0.0
C200 C 0.84516 0.86405 0.1327 0.0
C201 C 0.89297 0.9256 0.13112 0.0
C202 C 0.68815 0.84842 0.21107 0.0
C203 C 0.76784 0.86027 0.16757 0.0
C204 C 0.62326 0.81761 0.2247 0.0
C205 C 0.57106 0.76711 0.21134 0.0
C206 C 0.7005 0.82786 0.18436 0.0
C207 C 0.58557 0.74808 0.18477 0.0
C208 C 0.78249 0.83136 0.15068 0.0
C209 C 0.87681 0.95266 0.14882 0.0
N210 N 0.64885 0.7783 0.17227 0.0
N211 N 0.81554 0.91981 0.16637 0.0
H212 H 0.80436 0.78735 0.62847 0.0
H213 H 0.85616 0.52158 0.70198 0.0
H214 H -0.00295 0.82605 0.63419 0.0
H215 H 0.67644 0.48931 0.72739 0.0
H216 H 0.90906 0.63323 0.67549 0.0
H217 H 0.75628 0.67766 0.6633 0.0
C218 C 0.83655 0.77267 0.63724 0.0
C219 C 0.90466 0.81562 0.62838 0.0
C220 C 0.85831 0.6018 0.68735 0.0
C221 C 0.85003 0.69018 0.66783 0.0
C222 C 0.82828 0.53835 0.70234 0.0
C223 C 0.76244 0.49698 0.71722 0.0
C224 C 0.82153 0.62353 0.6865 0.0
C225 C 0.72772 0.52025 0.71667 0.0
C226 C 0.80914 0.7101 0.65721 0.0
C227 C 0.94422 0.79426 0.64046 0.0
N228 N 0.75757 0.58205 0.70133 0.0
N229 N 0.91624 0.73289 0.65926 0.0
H230 H 0.09162 0.76993 0.41385 0.0
H231 H 0.4115 0.82224 0.35438 0.0
H232 H 0.29008 0.93051 0.41593 0.0
H233 H 0.21524 0.6759 0.33106 0.0
H234 H 0.36674 0.86976 0.36724 0.0
H235 H 0.13322 0.74147 0.37425 0.0
C236 C 0.14371 0.79985 0.40524 0.0
C237 C 0.18767 0.85205 0.41897 0.0
C238 C 0.33325 0.82786 0.35856 0.0
C239 C 0.23564 0.8194 0.37421 0.0
C240 C 0.35893 0.80093 0.35112 0.0
C241 C 0.3168 0.74536 0.34175 0.0
C242 C 0.26459 0.79799 0.35787 0.0
C243 C 0.24908 0.71901 0.33814 0.0
C244 C 0.16747 0.78344 0.38278 0.0
C245 C 0.25466 0.889 0.407 0.0
N246 N 0.22474 0.74505 0.34698 0.0
N247 N 0.27664 0.87155 0.38587 0.0
H248 H 0.13558 0.95537 0.95385 0.0
H249 H 0.50556 0.25515 0.93066 0.0
H250 H 0.19278 0.1135 0.98353 0.0
H251 H 0.43819 0.12771 0.86215 0.0
H252 H 0.39185 0.2006 0.95351 0.0
H253 H 0.24618 0.01464 0.92251 0.0
C254 C 0.17139 0.00273 0.95352 0.0
C255 C 0.15529 0.02968 0.97135 0.0
C256 C 0.40162 0.1848 0.93309 0.0
C257 C 0.28177 0.0973 0.9361 0.0
C258 C 0.46653 0.21568 0.92025 0.0
C259 C 0.48094 0.19602 0.89418 0.0
C260 C 0.35064 0.13302 0.92049 0.0
C261 C 0.4287 0.14488 0.88147 0.0
C262 C 0.23434 0.03651 0.93554 0.0
C263 C 0.2033 0.09109 0.97008 0.0
N264 N 0.3657 0.11463 0.8951 0.0
N265 N 0.26462 0.12268 0.95313 0.0
H266 H 0.05104 0.13152 0.47435 0.0
H267 H 0.37188 0.47183 0.36906 0.0
H268 H 0.2451 0.17417 0.4764 0.0
H269 H 0.202 0.43756 0.41444 0.0
H270 H 0.31902 0.36034 0.39524 0.0
H271 H 0.09909 0.24167 0.43992 0.0
C272 C 0.10368 0.16408 0.46732 0.0
C273 C 0.14436 0.144 0.47843 0.0
C274 C 0.29308 0.37715 0.39919 0.0
C275 C 0.19926 0.26941 0.43872 0.0
C276 C 0.32288 0.44048 0.3839 0.0
C277 C 0.29054 0.46319 0.38913 0.0
C278 C 0.23048 0.33649 0.4198 0.0
C279 C 0.22807 0.42135 0.40968 0.0
C280 C 0.13101 0.22679 0.44779 0.0
C281 C 0.21215 0.18791 0.46852 0.0
N282 N 0.19982 0.3598 0.4242 0.0
N283 N 0.23752 0.24861 0.44912 0.0
H284 H 0.03361 0.17291 0.98596 0.0
H285 H 0.71966 0.15309 0.85812 0.0
H286 H 0.86297 0.00869 0.95853 0.0
H287 H 0.86142 0.29022 0.92075 0.0
H288 H 0.7832 0.1095 0.88067 0.0
H289 H 0.98206 0.22625 0.94832 0.0
C290 C 0.98563 0.14825 0.9717 0.0
C291 C 0.95221 0.08607 0.97585 0.0
C292 C 0.8007 0.14957 0.88901 0.0
C293 C 0.89315 0.1468 0.93263 0.0
C294 C 0.76487 0.17467 0.8758 0.0
C295 C 0.78573 0.22529 0.8875 0.0
C296 C 0.85766 0.17562 0.9139 0.0
C297 C 0.84371 0.25091 0.91129 0.0
C298 C 0.95617 0.17864 0.95031 0.0
C299 C 0.89015 0.05644 0.9566 0.0
N300 N 0.87759 0.22576 0.92379 0.0
N301 N 0.8625 0.08699 0.93597 0.0
H302 H 0.89985 0.84329 0.46023 0.0
H303 H 0.60653 0.84399 0.31632 0.0
H304 H 0.87411 -0.0124 0.42764 0.0
H305 H 0.60656 0.68343 0.37739 0.0
H306 H 0.72136 0.90782 0.33821 0.0
H307 H 0.8093 0.79547 0.4122 0.0
C308 C 0.87586 0.86547 0.44253 0.0
C309 C 0.89382 0.91896 0.44864 0.0
C310 C 0.69686 0.85887 0.34579 0.0
C311 C 0.79018 0.86438 0.39356 0.0
C312 C 0.63177 0.82271 0.33286 0.0
C313 C 0.59786 0.75879 0.34477 0.0
C314 C 0.72758 0.83051 0.37111 0.0
C315 C 0.63162 0.7328 0.36736 0.0
C316 C 0.82412 0.83807 0.41512 0.0
C317 C 0.86127 0.94585 0.42447 0.0
N318 N 0.6945 0.76867 0.38021 0.0
N319 N 0.81054 0.9179 0.39837 0.0
H320 H 0.72807 0.68829 0.86709 0.0
H321 H 0.86557 0.51166 0.85935 0.0
H322 H 0.92877 0.74751 0.89705 0.0
H323 H 0.67569 0.46837 0.80997 0.0
H324 H 0.89729 0.61023 0.85985 0.0
H325 H 0.71422 0.61944 0.83335 0.0
C326 C 0.76948 0.68742 0.866 0.0
C327 C 0.82925 0.72282 0.88558 0.0
C328 C 0.84926 0.58006 0.84778 0.0
C329 C 0.81382 0.64417 0.84726 0.0
C330 C 0.83141 0.52402 0.84741 0.0
C331 C 0.76831 0.48264 0.83437 0.0
C332 C 0.80267 0.59355 0.83643 0.0
C333 C 0.72518 0.49984 0.8197 0.0
C334 C 0.76173 0.64842 0.84652 0.0
C335 C 0.88176 0.72096 0.88245 0.0
N336 N 0.74268 0.55364 0.82187 0.0
N337 N 0.87243 0.68143 0.86441 0.0
loop_
_geom_bond_atom_site_label_1
_geom_bond_atom_site_label_2
_geom_bond_distance
_geom_bond_site_symmetry_2
_ccdc_geom_bond_type
Sm0 C2 2.846 . S
Sm0 O20 2.543 . S
Sm0 O21 2.450 . S
Sm0 O22 2.681 1_445 S
Sm0 O23 2.464 1_445 S
Sm0 O24 2.396 . S
Sm0 O28 2.386 1_554 S
Sm0 O31 2.408 1_545 S
Sm1 C11 2.846 . S
Sm1 O22 2.386 1_556 S
Sm1 O25 2.408 1_565 S
Sm1 O26 2.543 . S
Sm1 O27 2.450 . S
Sm1 O28 2.681 1_665 S
Sm1 O29 2.464 1_665 S
Sm1 O30 2.396 1_656 S
C2 Sm0 2.846 . S
C2 C3 1.506 . S
C2 O20 1.261 . S
C2 O21 1.242 . S
C3 C2 1.506 . S
C3 C4 1.358 . S
C3 C8 1.382 . S
C4 C3 1.358 . S
C4 C5 1.385 . S
C4 H32 0.930 . S
C5 C4 1.385 . S
C5 C6 1.395 . S
C5 H33 0.929 . S
C6 C5 1.395 . S
C6 C7 1.335 . S
C7 C6 1.335 . S
C7 C8 1.398 . S
C7 H34 0.930 . S
C8 C3 1.382 . S
C8 C7 1.398 . S
C8 H35 0.929 . S
C9 O22 1.271 . S
C9 O23 1.251 . S
C10 O24 1.252 1_656 S
C10 O25 1.272 . S
C11 Sm1 2.846 . S
C11 C12 1.506 . S
C11 O26 1.261 . S
C11 O27 1.242 . S
C12 C11 1.506 . S
C12 C13 1.358 . S
C12 C17 1.382 . S
C13 C12 1.358 . S
C13 C14 1.385 . S
C13 H36 0.930 1_556 S
C14 C13 1.385 . S
C14 C15 1.395 . S
C14 H37 0.929 . S
C15 C14 1.395 . S
C15 C16 1.335 . S
C16 C15 1.335 . S
C16 C17 1.398 . S
C16 H38 0.930 . S
C17 C12 1.382 . S
C17 C16 1.398 . S
C17 H39 0.929 . S
C18 O28 1.271 . S
C18 O29 1.251 . S
C19 O30 1.252 . S
C19 O31 1.272 . S
O20 Sm0 2.543 . S
O20 C2 1.261 . S
O21 Sm0 2.450 . S
O21 C2 1.242 . S
O22 Sm0 2.681 1_665 S
O22 Sm1 2.386 1_554 S
O22 C9 1.271 . S
O23 Sm0 2.464 1_665 S
O23 C9 1.251 . S
O24 Sm0 2.396 . S
O24 C10 1.252 1_454 S
O25 Sm1 2.408 1_545 S
O25 C10 1.272 . S
O26 Sm1 2.543 . S
O26 C11 1.261 . S
O27 Sm1 2.450 . S
O27 C11 1.242 . S
O28 Sm0 2.386 1_556 S
O28 Sm1 2.681 1_445 S
O28 C18 1.271 . S
O29 Sm1 2.464 1_445 S
O29 C18 1.251 . S
O30 Sm1 2.396 1_454 S
O30 C19 1.252 . S
O31 Sm0 2.408 1_565 S
O31 C19 1.272 . S
H32 C4 0.930 . S
H33 C5 0.929 . S
H34 C7 0.930 . S
H35 C8 0.929 . S
H36 C13 0.930 1_554 S
H37 C14 0.929 . S
H38 C16 0.930 . S
H39 C17 0.929 . S
Sm40 C42 2.846 1_455 S
Sm40 O60 2.543 1_455 S
Sm40 O61 2.450 1_455 S
Sm40 O62 2.681 1_545 S
Sm40 O63 2.464 1_445 S
Sm40 O64 2.396 1_445 S
Sm40 O68 2.386 . S
Sm40 O71 2.408 . S
Sm41 C51 2.846 . S
Sm41 O62 2.386 . S
Sm41 O65 2.408 1_455 S
Sm41 O66 2.543 . S
Sm41 O67 2.450 1_565 S
Sm41 O68 2.681 1_565 S
Sm41 O69 2.464 1_565 S
Sm41 O70 2.396 1_565 S
C42 Sm40 2.846 1_655 S
C42 C43 1.506 . S
C42 O60 1.261 . S
C42 O61 1.242 . S
C43 C42 1.506 . S
C43 C44 1.358 . S
C43 C48 1.382 . S
C44 C43 1.358 . S
C44 C45 1.385 . S
C44 H72 0.930 . S
C45 C44 1.385 . S
C45 C46 1.395 . S
C45 H73 0.929 . S
C46 C45 1.395 . S
C46 C47 1.335 . S
C47 C46 1.335 . S
C47 C48 1.398 . S
C47 H74 0.930 . S
C48 C43 1.382 . S
C48 C47 1.398 . S
C48 H75 0.929 . S
C49 O62 1.271 1_655 S
C49 O63 1.251 . S
C50 O64 1.252 . S
C50 O65 1.272 . S
C51 Sm41 2.846 . S
C51 C52 1.506 . S
C51 O66 1.261 . S
C51 O67 1.242 1_565 S
C52 C51 1.506 . S
C52 C53 1.358 . S
C52 C57 1.382 1_565 S
C53 C52 1.358 . S
C53 C54 1.385 . S
C53 H76 0.930 . S
C54 C53 1.385 . S
C54 C55 1.395 . S
C54 H77 0.929 . S
C55 C54 1.395 . S
C55 C56 1.335 . S
C56 C55 1.335 . S
C56 C57 1.398 1_565 S
C56 H78 0.930 1_565 S
C57 C52 1.382 1_545 S
C57 C56 1.398 1_545 S
C57 H79 0.929 . S
C58 O68 1.271 . S
C58 O69 1.251 . S
C59 O70 1.252 . S
C59 O71 1.272 . S
O60 Sm40 2.543 1_655 S
O60 C42 1.261 . S
O61 Sm40 2.450 1_655 S
O61 C42 1.242 . S
O62 Sm40 2.681 1_565 S
O62 Sm41 2.386 . S
O62 C49 1.271 1_455 S
O63 Sm40 2.464 1_665 S
O63 C49 1.251 . S
O64 Sm40 2.396 1_665 S
O64 C50 1.252 . S
O65 Sm41 2.408 1_655 S
O65 C50 1.272 . S
O66 Sm41 2.543 . S
O66 C51 1.261 . S
O67 Sm41 2.450 1_545 S
O67 C51 1.242 1_545 S
O68 Sm40 2.386 . S
O68 Sm41 2.681 1_545 S
O68 C58 1.271 . S
O69 Sm41 2.464 1_545 S
O69 C58 1.251 . S
O70 Sm41 2.396 1_545 S
O70 C59 1.252 . S
O71 Sm40 2.408 . S
O71 C59 1.272 . S
H72 C44 0.930 . S
H73 C45 0.929 . S
H74 C47 0.930 . S
H75 C48 0.929 . S
H76 C53 0.930 . S
H77 C54 0.929 . S
H78 C56 0.930 1_545 S
H79 C57 0.929 . S
Zn80 O86 1.920 . S
Zn80 O92 1.898 . S
Zn80 O95 1.905 . S
Zn81 O89 1.905 . S
Zn81 O90 1.898 . S
Zn81 O98 1.920 . S
Zn82 O85 2.080 . S
Zn82 O88 2.114 . S
Zn82 O91 2.120 . S
Zn82 O93 2.120 . S
Zn82 O94 2.114 . S
Zn82 O97 2.080 . S
C83 O88 1.166 . S
C83 O89 1.182 . S
C84 O90 1.167 . S
C84 O91 1.299 . S
O85 Zn82 2.080 . S
O85 C99 1.305 . S
O86 Zn80 1.920 . S
O86 C99 1.234 . S
C87 O92 1.167 . S
C87 O93 1.299 . S
O88 Zn82 2.114 . S
O88 C83 1.166 . S
O89 Zn81 1.905 . S
O89 C83 1.182 . S
O90 Zn81 1.898 . S
O90 C84 1.167 . S
O91 Zn82 2.120 . S
O91 C84 1.299 . S
O92 Zn80 1.898 . S
O92 C87 1.167 . S
O93 Zn82 2.120 . S
O93 C87 1.299 . S
O94 Zn82 2.114 . S
O94 C96 1.166 . S
O95 Zn80 1.905 . S
O95 C96 1.182 . S
C96 O94 1.166 . S
C96 O95 1.182 . S
O97 Zn82 2.080 . S
O97 C100 1.305 . S
O98 Zn81 1.920 . S
O98 C100 1.234 . S
C99 O85 1.305 . S
C99 O86 1.234 . S
C100 O97 1.305 . S
C100 O98 1.234 . S
Zn101 O107 1.920 . S
Zn101 O113 1.898 . S
Zn101 O116 1.905 . S
Zn102 O110 1.905 . S
Zn102 O111 1.898 . S
Zn102 O119 1.920 . S
Zn103 O106 2.080 . S
Zn103 O109 2.114 . S
Zn103 O112 2.120 . S
Zn103 O114 2.120 . S
Zn103 O115 2.114 . S
Zn103 O118 2.080 . S
C104 O109 1.166 . S
C104 O110 1.182 . S
C105 O111 1.167 . S
C105 O112 1.299 . S
O106 Zn103 2.080 . S
O106 C120 1.305 . S
O107 Zn101 1.920 . S
O107 C120 1.234 . S
C108 O113 1.167 . S
C108 O114 1.299 . S
O109 Zn103 2.114 . S
O109 C104 1.166 . S
O110 Zn102 1.905 . S
O110 C104 1.182 . S
O111 Zn102 1.898 . S
O111 C105 1.167 . S
O112 Zn103 2.120 . S
O112 C105 1.299 . S
O113 Zn101 1.898 . S
O113 C108 1.167 . S
O114 Zn103 2.120 . S
O114 C108 1.299 . S
O115 Zn103 2.114 . S
O115 C117 1.166 . S
O116 Zn101 1.905 . S
O116 C117 1.182 . S
C117 O115 1.166 . S
C117 O116 1.182 . S
O118 Zn103 2.080 . S
O118 C121 1.305 . S
O119 Zn102 1.920 . S
O119 C121 1.234 . S
C120 O106 1.305 . S
C120 O107 1.234 . S
C121 O118 1.305 . S
C121 O119 1.234 . S
H122 C128 0.930 . S
H123 C132 0.930 . S
H124 C137 0.929 . S
H125 C135 0.929 . S
H126 C130 0.929 . S
H127 C136 0.929 . S
C128 H122 0.930 . S
C128 C129 1.367 . S
C128 C136 1.378 . S
C129 C128 1.367 . S
C129 C137 1.433 . S
C130 H126 0.929 . S
C130 C132 1.378 . S
C130 C134 1.350 . S
C131 C134 1.463 . S
C131 C136 1.350 . S
C131 N139 1.427 . S
C132 H123 0.930 . S
C132 C130 1.378 . S
C132 C133 1.367 . S
C133 C132 1.367 . S
C133 C135 1.433 . S
C134 C130 1.350 . S
C134 C131 1.463 . S
C134 N138 1.427 . S
C135 H125 0.929 . S
C135 C133 1.433 . S
C135 N138 1.384 . S
C136 H127 0.929 . S
C136 C128 1.378 . S
C136 C131 1.350 . S
C137 H124 0.929 . S
C137 C129 1.433 . S
C137 N139 1.384 . S
N138 C134 1.427 . S
N138 C135 1.384 . S
N139 C131 1.427 . S
N139 C137 1.384 . S
H140 C146 0.930 . S
H141 C150 0.930 . S
H142 C155 0.929 . S
H143 C153 0.929 . S
H144 C148 0.929 . S
H145 C154 0.929 . S
C146 H140 0.930 . S
C146 C147 1.367 . S
C146 C154 1.378 . S
C147 C146 1.367 . S
C147 C155 1.433 . S
C148 H144 0.929 . S
C148 C150 1.378 . S
C148 C152 1.350 . S
C149 C152 1.463 . S
C149 C154 1.350 . S
C149 N157 1.427 . S
C150 H141 0.930 . S
C150 C148 1.378 . S
C150 C151 1.367 . S
C151 C150 1.367 . S
C151 C153 1.433 . S
C152 C148 1.350 . S
C152 C149 1.463 . S
C152 N156 1.427 . S
C153 H143 0.929 . S
C153 C151 1.433 . S
C153 N156 1.384 . S
C154 H145 0.929 . S
C154 C146 1.378 . S
C154 C149 1.350 . S
C155 H142 0.929 . S
C155 C147 1.433 . S
C155 N157 1.384 . S
N156 C152 1.427 . S
N156 C153 1.384 . S
N157 C149 1.427 . S
N157 C155 1.384 . S
H158 C164 0.930 . S
H159 C168 0.930 . S
H160 C173 0.929 . S
H161 C171 0.929 . S
H162 C166 0.929 . S
H163 C172 0.929 . S
C164 H158 0.930 . S
C164 C165 1.367 . S
C164 C172 1.378 . S
C165 C164 1.367 . S
C165 C173 1.433 . S
C166 H162 0.929 . S
C166 C168 1.378 . S
C166 C170 1.350 . S
C167 C170 1.463 . S
C167 C172 1.350 . S
C167 N175 1.427 . S
C168 H159 0.930 . S
C168 C166 1.378 . S
C168 C169 1.367 . S
C169 C168 1.367 . S
C169 C171 1.433 . S
C170 C166 1.350 . S
C170 C167 1.463 . S
C170 N174 1.427 . S
C171 H161 0.929 . S
C171 C169 1.433 . S
C171 N174 1.384 . S
C172 H163 0.929 . S
C172 C164 1.378 . S
C172 C167 1.350 . S
C173 H160 0.929 . S
C173 C165 1.433 . S
C173 N175 1.384 . S
N174 C170 1.427 . S
N174 C171 1.384 . S
N175 C167 1.427 . S
N175 C173 1.384 . S
H176 C182 0.930 . S
H177 C186 0.930 . S
H178 C191 0.929 . S
H179 C189 0.929 . S
H180 C184 0.929 . S
H181 C190 0.929 . S
C182 H176 0.930 . S
C182 C183 1.367 . S
C182 C190 1.378 . S
C183 C182 1.367 . S
C183 C191 1.433 . S
C184 H180 0.929 . S
C184 C186 1.378 . S
C184 C188 1.350 . S
C185 C188 1.463 . S
C185 C190 1.350 . S
C185 N193 1.427 . S
C186 H177 0.930 . S
C186 C184 1.378 . S
C186 C187 1.367 . S
C187 C186 1.367 . S
C187 C189 1.433 . S
C188 C184 1.350 . S
C188 C185 1.463 . S
C188 N192 1.427 . S
C189 H179 0.929 . S
C189 C187 1.433 . S
C189 N192 1.384 . S
C190 H181 0.929 . S
C190 C182 1.378 . S
C190 C185 1.350 . S
C191 H178 0.929 . S
C191 C183 1.433 . S
C191 N193 1.384 . S
N192 C188 1.427 . S
N192 C189 1.384 . S
N193 C185 1.427 . S
N193 C191 1.384 . S
H194 C200 0.930 . S
H195 C204 0.930 . S
H196 C209 0.929 . S
H197 C207 0.929 . S
H198 C202 0.929 . S
H199 C208 0.929 . S
C200 H194 0.930 . S
C200 C201 1.367 . S
C200 C208 1.378 . S
C201 C200 1.367 . S
C201 C209 1.433 . S
C202 H198 0.929 . S
C202 C204 1.378 . S
C202 C206 1.350 . S
C203 C206 1.463 . S
C203 C208 1.350 . S
C203 N211 1.427 . S
C204 H195 0.930 . S
C204 C202 1.378 . S
C204 C205 1.367 . S
C205 C204 1.367 . S
C205 C207 1.433 . S
C206 C202 1.350 . S
C206 C203 1.463 . S
C206 N210 1.427 . S
C207 H197 0.929 . S
C207 C205 1.433 . S
C207 N210 1.384 . S
C208 H199 0.929 . S
C208 C200 1.378 . S
C208 C203 1.350 . S
C209 H196 0.929 . S
C209 C201 1.433 . S
C209 N211 1.384 . S
N210 C206 1.427 . S
N210 C207 1.384 . S
N211 C203 1.427 . S
N211 C209 1.384 . S
H212 C218 0.930 . S
H213 C222 0.930 . S
H214 C227 0.929 . S
H215 C225 0.929 . S
H216 C220 0.929 . S
H217 C226 0.929 . S
C218 H212 0.930 . S
C218 C219 1.367 . S
C218 C226 1.378 . S
C219 C218 1.367 . S
C219 C227 1.433 . S
C220 H216 0.929 . S
C220 C222 1.378 . S
C220 C224 1.350 . S
C221 C224 1.463 . S
C221 C226 1.350 . S
C221 N229 1.427 . S
C222 H213 0.930 . S
C222 C220 1.378 . S
C222 C223 1.367 . S
C223 C222 1.367 . S
C223 C225 1.433 . S
C224 C220 1.350 . S
C224 C221 1.463 . S
C224 N228 1.427 . S
C225 H215 0.929 . S
C225 C223 1.433 . S
C225 N228 1.384 . S
C226 H217 0.929 . S
C226 C218 1.378 . S
C226 C221 1.350 . S
C227 H214 0.929 . S
C227 C219 1.433 . S
C227 N229 1.384 . S
N228 C224 1.427 . S
N228 C225 1.384 . S
N229 C221 1.427 . S
N229 C227 1.384 . S
H230 C236 0.930 . S
H231 C240 0.930 . S
H232 C245 0.929 . S
H233 C243 0.929 . S
H234 C238 0.929 . S
H235 C244 0.929 . S
C236 H230 0.930 . S
C236 C237 1.367 . S
C236 C244 1.378 . S
C237 C236 1.367 . S
C237 C245 1.433 . S
C238 H234 0.929 . S
C238 C240 1.378 . S
C238 C242 1.350 . S
C239 C242 1.463 . S
C239 C244 1.350 . S
C239 N247 1.427 . S
C240 H231 0.930 . S
C240 C238 1.378 . S
C240 C241 1.367 . S
C241 C240 1.367 . S
C241 C243 1.433 . S
C242 C238 1.350 . S
C242 C239 1.463 . S
C242 N246 1.427 . S
C243 H233 0.929 . S
C243 C241 1.433 . S
C243 N246 1.384 . S
C244 H235 0.929 . S
C244 C236 1.378 . S
C244 C239 1.350 . S
C245 H232 0.929 . S
C245 C237 1.433 . S
C245 N247 1.384 . S
N246 C242 1.427 . S
N246 C243 1.384 . S
N247 C239 1.427 . S
N247 C245 1.384 . S
H248 C254 0.930 . S
H249 C258 0.930 . S
H250 C263 0.929 . S
H251 C261 0.929 . S
H252 C256 0.929 . S
H253 C262 0.929 . S
C254 H248 0.930 . S
C254 C255 1.367 . S
C254 C262 1.378 . S
C255 C254 1.367 . S
C255 C263 1.433 . S
C256 H252 0.929 . S
C256 C258 1.378 . S
C256 C260 1.350 . S
C257 C260 1.463 . S
C257 C262 1.350 . S
C257 N265 1.427 . S
C258 H249 0.930 . S
C258 C256 1.378 . S
C258 C259 1.367 . S
C259 C258 1.367 . S
C259 C261 1.433 . S
C260 C256 1.350 . S
C260 C257 1.463 . S
C260 N264 1.427 . S
C261 H251 0.929 . S
C261 C259 1.433 . S
C261 N264 1.384 . S
C262 H253 0.929 . S
C262 C254 1.378 . S
C262 C257 1.350 . S
C263 H250 0.929 . S
C263 C255 1.433 . S
C263 N265 1.384 . S
N264 C260 1.427 . S
N264 C261 1.384 . S
N265 C257 1.427 . S
N265 C263 1.384 . S
H266 C272 0.930 . S
H267 C276 0.930 . S
H268 C281 0.929 . S
H269 C279 0.929 . S
H270 C274 0.929 . S
H271 C280 0.929 . S
C272 H266 0.930 . S
C272 C273 1.367 . S
C272 C280 1.378 . S
C273 C272 1.367 . S
C273 C281 1.433 . S
C274 H270 0.929 . S
C274 C276 1.378 . S
C274 C278 1.350 . S
C275 C278 1.463 . S
C275 C280 1.350 . S
C275 N283 1.427 . S
C276 H267 0.930 . S
C276 C274 1.378 . S
C276 C277 1.367 . S
C277 C276 1.367 . S
C277 C279 1.433 . S
C278 C274 1.350 . S
C278 C275 1.463 . S
C278 N282 1.427 . S
C279 H269 0.929 . S
C279 C277 1.433 . S
C279 N282 1.384 . S
C280 H271 0.929 . S
C280 C272 1.378 . S
C280 C275 1.350 . S
C281 H268 0.929 . S
C281 C273 1.433 . S
C281 N283 1.384 . S
N282 C278 1.427 . S
N282 C279 1.384 . S
N283 C275 1.427 . S
N283 C281 1.384 . S
H284 C290 0.930 1_455 S
H285 C294 0.930 . S
H286 C299 0.929 . S
H287 C297 0.929 . S
H288 C292 0.929 . S
H289 C298 0.929 . S
C290 H284 0.930 1_655 S
C290 C291 1.367 . S
C290 C298 1.378 . S
C291 C290 1.367 . S
C291 C299 1.433 . S
C292 H288 0.929 . S
C292 C294 1.378 . S
C292 C296 1.350 . S
C293 C296 1.463 . S
C293 C298 1.350 . S
C293 N301 1.427 . S
C294 H285 0.930 . S
C294 C292 1.378 . S
C294 C295 1.367 . S
C295 C294 1.367 . S
C295 C297 1.433 . S
C296 C292 1.350 . S
C296 C293 1.463 . S
C296 N300 1.427 . S
C297 H287 0.929 . S
C297 C295 1.433 . S
C297 N300 1.384 . S
C298 H289 0.929 . S
C298 C290 1.378 . S
C298 C293 1.350 . S
C299 H286 0.929 . S
C299 C291 1.433 . S
C299 N301 1.384 . S
N300 C296 1.427 . S
N300 C297 1.384 . S
N301 C293 1.427 . S
N301 C299 1.384 . S
H302 C308 0.930 . S
H303 C312 0.930 . S
H304 C317 0.929 . S
H305 C315 0.929 . S
H306 C310 0.929 . S
H307 C316 0.929 . S
C308 H302 0.930 . S
C308 C309 1.367 . S
C308 C316 1.378 . S
C309 C308 1.367 . S
C309 C317 1.433 . S
C310 H306 0.929 . S
C310 C312 1.378 . S
C310 C314 1.350 . S
C311 C314 1.463 . S
C311 C316 1.350 . S
C311 N319 1.427 . S
C312 H303 0.930 . S
C312 C310 1.378 . S
C312 C313 1.367 . S
C313 C312 1.367 . S
C313 C315 1.433 . S
C314 C310 1.350 . S
C314 C311 1.463 . S
C314 N318 1.427 . S
C315 H305 0.929 . S
C315 C313 1.433 . S
C315 N318 1.384 . S
C316 H307 0.929 . S
C316 C308 1.378 . S
C316 C311 1.350 . S
C317 H304 0.929 . S
C317 C309 1.433 . S
C317 N319 1.384 . S
N318 C314 1.427 . S
N318 C315 1.384 . S
N319 C311 1.427 . S
N319 C317 1.384 . S
H320 C326 0.930 . S
H321 C330 0.930 . S
H322 C335 0.929 . S
H323 C333 0.929 . S
H324 C328 0.929 . S
H325 C334 0.929 . S
C326 H320 0.930 . S
C326 C327 1.367 . S
C326 C334 1.378 . S
C327 C326 1.367 . S
C327 C335 1.433 . S
C328 H324 0.929 . S
C328 C330 1.378 . S
C328 C332 1.350 . S
C329 C332 1.463 . S
C329 C334 1.350 . S
C329 N337 1.427 . S
C330 H321 0.930 . S
C330 C328 1.378 . S
C330 C331 1.367 . S
C331 C330 1.367 . S
C331 C333 1.433 . S
C332 C328 1.350 . S
C332 C329 1.463 . S
C332 N336 1.427 . S
C333 H323 0.929 . S
C333 C331 1.433 . S
C333 N336 1.384 . S
C334 H325 0.929 . S
C334 C326 1.378 . S
C334 C329 1.350 . S
C335 H322 0.929 . S
C335 C327 1.433 . S
C335 N337 1.384 . S
N336 C332 1.427 . S
N336 C333 1.384 . S
N337 C329 1.427 . S
N337 C335 1.384 . S
C129 C19 1.879 . S
C133 C99 1.839 . S
C147 C59 1.210 . S
C151 C105 1.117 . S
C165 C6 0.920 . S
C169 C96 0.879 . S
C183 C46 1.402 . S
C187 C121 1.265 . S
C201 C9 2.108 . S
C205 C87 2.001 . S
C223 C104 2.270 . S
C219 C49 2.339 . S
C237 C55 1.264 . S
C241 C100 1.167 . S
C259 C117 1.754 . S
C255 C18 1.815 . S
C277 C84 2.093 . S
C273 C58 2.188 . S
C295 C120 2.053 . S
C291 C10 2.096 . S
C313 C83 1.368 . S
C309 C50 1.454 . S
C331 C108 0.862 . S
C327 C15 0.902 . S
