# Generated by pormake.
# Topology eea, (3,6)-cn, num edge types: 1
# Building blocks:
#     Node 0, Type 0, BuildingBlock: OLANEW_clean_sbu_2, # of connection points: 3
#     Node 1, Type 0, BuildingBlock: OLANEW_clean_sbu_2, # of connection points: 3
#     Node 2, Type 0, BuildingBlock: OLANEW_clean_sbu_2, # of connection points: 3
#     Node 3, Type 0, BuildingBlock: OLANEW_clean_sbu_2, # of connection points: 3
#     Node 4, Type 0, BuildingBlock: OLANEW_clean_sbu_2, # of connection points: 3
#     Node 5, Type 0, BuildingBlock: OLANEW_clean_sbu_2, # of connection points: 3
#     Node 6, Type 0, BuildingBlock: OLANEW_clean_sbu_2, # of connection points: 3
#     Node 7, Type 0, BuildingBlock: OLANEW_clean_sbu_2, # of connection points: 3
#     Node 8, Type 0, BuildingBlock: OLANEW_clean_sbu_2, # of connection points: 3
#     Node 9, Type 0, BuildingBlock: OLANEW_clean_sbu_2, # of connection points: 3
#     Node 10, Type 0, BuildingBlock: OLANEW_clean_sbu_2, # of connection points: 3
#     Node 11, Type 0, BuildingBlock: OLANEW_clean_sbu_2, # of connection points: 3
#     Node 12, Type 0, BuildingBlock: OLANEW_clean_sbu_2, # of connection points: 3
#     Node 13, Type 0, BuildingBlock: OLANEW_clean_sbu_2, # of connection points: 3
#     Node 14, Type 0, BuildingBlock: OLANEW_clean_sbu_2, # of connection points: 3
#     Node 15, Type 0, BuildingBlock: OLANEW_clean_sbu_2, # of connection points: 3
#     Node 16, Type 0, BuildingBlock: OLANEW_clean_sbu_2, # of connection points: 3
#     Node 17, Type 0, BuildingBlock: OLANEW_clean_sbu_2, # of connection points: 3
#     Node 18, Type 1, BuildingBlock: KUMJIN_clean_sbu_0, # of connection points: 6
#     Node 19, Type 1, BuildingBlock: KUMJIN_clean_sbu_0, # of connection points: 6
#     Node 20, Type 1, BuildingBlock: KUMJIN_clean_sbu_0, # of connection points: 6
#     Node 21, Type 1, BuildingBlock: KUMJIN_clean_sbu_0, # of connection points: 6
#     Node 22, Type 1, BuildingBlock: KUMJIN_clean_sbu_0, # of connection points: 6
#     Node 23, Type 1, BuildingBlock: KUMJIN_clean_sbu_0, # of connection points: 6
#     Node 24, Type 1, BuildingBlock: KUMJIN_clean_sbu_0, # of connection points: 6
#     Node 25, Type 1, BuildingBlock: KUMJIN_clean_sbu_0, # of connection points: 6
#     Node 26, Type 1, BuildingBlock: KUMJIN_clean_sbu_0, # of connection points: 6
#     Edge 27, Type (0, 1), BuildingBlock: MIFKUJ_clean_linker_0, # of connection points: 2
#     Edge 28, Type (0, 1), BuildingBlock: MIFKUJ_clean_linker_0, # of connection points: 2
#     Edge 29, Type (0, 1), BuildingBlock: MIFKUJ_clean_linker_0, # of connection points: 2
#     Edge 30, Type (0, 1), BuildingBlock: MIFKUJ_clean_linker_0, # of connection points: 2
#     Edge 31, Type (0, 1), BuildingBlock: MIFKUJ_clean_linker_0, # of connection points: 2
#     Edge 32, Type (0, 1), BuildingBlock: MIFKUJ_clean_linker_0, # of connection points: 2
#     Edge 33, Type (0, 1), BuildingBlock: MIFKUJ_clean_linker_0, # of connection points: 2
#     Edge 34, Type (0, 1), BuildingBlock: MIFKUJ_clean_linker_0, # of connection points: 2
#     Edge 35, Type (0, 1), BuildingBlock: MIFKUJ_clean_linker_0, # of connection points: 2
#     Edge 36, Type (0, 1), BuildingBlock: MIFKUJ_clean_linker_0, # of connection points: 2
#     Edge 37, Type (0, 1), BuildingBlock: MIFKUJ_clean_linker_0, # of connection points: 2
#     Edge 38, Type (0, 1), BuildingBlock: MIFKUJ_clean_linker_0, # of connection points: 2
#     Edge 39, Type (0, 1), BuildingBlock: MIFKUJ_clean_linker_0, # of connection points: 2
#     Edge 40, Type (0, 1), BuildingBlock: MIFKUJ_clean_linker_0, # of connection points: 2
#     Edge 41, Type (0, 1), BuildingBlock: MIFKUJ_clean_linker_0, # of connection points: 2
#     Edge 42, Type (0, 1), BuildingBlock: MIFKUJ_clean_linker_0, # of connection points: 2
#     Edge 43, Type (0, 1), BuildingBlock: MIFKUJ_clean_linker_0, # of connection points: 2
#     Edge 44, Type (0, 1), BuildingBlock: MIFKUJ_clean_linker_0, # of connection points: 2
#     Edge 45, Type (0, 1), BuildingBlock: MIFKUJ_clean_linker_0, # of connection points: 2
#     Edge 46, Type (0, 1), BuildingBlock: MIFKUJ_clean_linker_0, # of connection points: 2
#     Edge 47, Type (0, 1), BuildingBlock: MIFKUJ_clean_linker_0, # of connection points: 2
#     Edge 48, Type (0, 1), BuildingBlock: MIFKUJ_clean_linker_0, # of connection points: 2
#     Edge 49, Type (0, 1), BuildingBlock: MIFKUJ_clean_linker_0, # of connection points: 2
#     Edge 50, Type (0, 1), BuildingBlock: MIFKUJ_clean_linker_0, # of connection points: 2
#     Edge 51, Type (0, 1), BuildingBlock: MIFKUJ_clean_linker_0, # of connection points: 2
#     Edge 52, Type (0, 1), BuildingBlock: MIFKUJ_clean_linker_0, # of connection points: 2
#     Edge 53, Type (0, 1), BuildingBlock: MIFKUJ_clean_linker_0, # of connection points: 2
#     Edge 54, Type (0, 1), BuildingBlock: MIFKUJ_clean_linker_0, # of connection points: 2
#     Edge 55, Type (0, 1), BuildingBlock: MIFKUJ_clean_linker_0, # of connection points: 2
#     Edge 56, Type (0, 1), BuildingBlock: MIFKUJ_clean_linker_0, # of connection points: 2
#     Edge 57, Type (0, 1), BuildingBlock: MIFKUJ_clean_linker_0, # of connection points: 2
#     Edge 58, Type (0, 1), BuildingBlock: MIFKUJ_clean_linker_0, # of connection points: 2
#     Edge 59, Type (0, 1), BuildingBlock: MIFKUJ_clean_linker_0, # of connection points: 2
#     Edge 60, Type (0, 1), BuildingBlock: MIFKUJ_clean_linker_0, # of connection points: 2
#     Edge 61, Type (0, 1), BuildingBlock: MIFKUJ_clean_linker_0, # of connection points: 2
#     Edge 62, Type (0, 1), BuildingBlock: MIFKUJ_clean_linker_0, # of connection points: 2
#     Edge 63, Type (0, 1), BuildingBlock: MIFKUJ_clean_linker_0, # of connection points: 2
#     Edge 64, Type (0, 1), BuildingBlock: MIFKUJ_clean_linker_0, # of connection points: 2
#     Edge 65, Type (0, 1), BuildingBlock: MIFKUJ_clean_linker_0, # of connection points: 2
#     Edge 66, Type (0, 1), BuildingBlock: MIFKUJ_clean_linker_0, # of connection points: 2
#     Edge 67, Type (0, 1), BuildingBlock: MIFKUJ_clean_linker_0, # of connection points: 2
#     Edge 68, Type (0, 1), BuildingBlock: MIFKUJ_clean_linker_0, # of connection points: 2
#     Edge 69, Type (0, 1), BuildingBlock: MIFKUJ_clean_linker_0, # of connection points: 2
#     Edge 70, Type (0, 1), BuildingBlock: MIFKUJ_clean_linker_0, # of connection points: 2
#     Edge 71, Type (0, 1), BuildingBlock: MIFKUJ_clean_linker_0, # of connection points: 2
#     Edge 72, Type (0, 1), BuildingBlock: MIFKUJ_clean_linker_0, # of connection points: 2
#     Edge 73, Type (0, 1), BuildingBlock: MIFKUJ_clean_linker_0, # of connection points: 2
#     Edge 74, Type (0, 1), BuildingBlock: MIFKUJ_clean_linker_0, # of connection points: 2
#     Edge 75, Type (0, 1), BuildingBlock: MIFKUJ_clean_linker_0, # of connection points: 2
#     Edge 76, Type (0, 1), BuildingBlock: MIFKUJ_clean_linker_0, # of connection points: 2
#     Edge 77, Type (0, 1), BuildingBlock: MIFKUJ_clean_linker_0, # of connection points: 2
#     Edge 78, Type (0, 1), BuildingBlock: MIFKUJ_clean_linker_0, # of connection points: 2
#     Edge 79, Type (0, 1), BuildingBlock: MIFKUJ_clean_linker_0, # of connection points: 2
#     Edge 80, Type (0, 1), BuildingBlock: MIFKUJ_clean_linker_0, # of connection points: 2
# Relax obj value: 0.011
# Max RMSD: 0.148
# Mean RMSD: 0.104
data_MOF--net-eea--node1-OLANEW_clean_sbu_2--node2-KUMJIN_clean_sbu_0--edge1-MIFKUJ_clean_linker_0
_symmetry_space_group_name_H-M    P1
_symmetry_Int_Tables_number       1
_symmetry_cell_setting            triclinic
loop_
_symmetry_equiv_pos_as_xyz
'x, y, z'
_cell_length_a     78.120171
_cell_length_b     77.289705
_cell_length_c     84.669345
_cell_angle_alpha  94.589925
_cell_angle_beta   90.329381
_cell_angle_gamma 120.8151
loop_
_atom_site_label
_atom_site_type_symbol
_atom_site_fract_x
_atom_site_fract_y
_atom_site_fract_z
_atom_type_partial_charge
O0 O 0.21552 0.12128 0.43107 0.0
Cd1 Cd 0.19766 0.10961 0.40505 0.0
O2 O 0.24456 0.13702 0.42025 0.0
Cd3 Cd 0.23182 0.11978 0.39729 0.0
O4 O 0.22213 0.09061 0.38398 0.0
C5 C 0.23231 0.08272 0.38745 0.0
O6 O 0.24767 0.09294 0.39773 0.0
C7 C 0.23437 0.13309 0.43253 0.0
C8 C 0.1947 0.14086 0.39358 0.0
O9 O 0.18015 0.12693 0.40045 0.0
O10 O 0.21045 0.13984 0.39193 0.0
O11 O 0.90715 0.15249 0.42299 0.0
Cd12 Cd 0.9151 0.1488 0.39555 0.0
O13 O 0.90128 0.12181 0.42408 0.0
Cd14 Cd 0.88795 0.09203 0.43275 0.0
O15 O 0.86638 0.05971 0.43041 0.0
C16 C 0.84812 0.05457 0.43034 0.0
O17 O 0.84362 0.06876 0.4326 0.0
C18 C 0.90131 0.13717 0.43072 0.0
C19 C 0.95399 0.17702 0.38899 0.0
O20 O 0.93998 0.18098 0.38806 0.0
O21 O 0.94963 0.15972 0.39322 0.0
O22 O 0.90147 0.77076 0.43426 0.0
Cd23 Cd 0.91184 0.78476 0.40857 0.0
O24 O 0.87574 0.77501 0.43819 0.0
Cd25 Cd 0.87156 0.78644 0.41643 0.0
O26 O 0.85088 0.79154 0.40241 0.0
C27 C 0.84646 0.80437 0.40824 0.0
O28 O 0.85533 0.81486 0.42183 0.0
C29 C 0.88754 0.7694 0.44283 0.0
C30 C 0.9485 0.78917 0.39964 0.0
O31 O 0.94784 0.8037 0.40746 0.0
O32 O 0.93194 0.77254 0.39617 0.0
O33 O 0.13073 0.2213 0.57552 0.0
Cd34 Cd 0.1262 0.20608 0.60071 0.0
O35 O 0.10315 0.22258 0.57283 0.0
Cd36 Cd 0.08578 0.20878 0.59337 0.0
O37 O 0.05885 0.20098 0.60662 0.0
C38 C 0.05024 0.2107 0.60375 0.0
O39 O 0.05806 0.22444 0.59359 0.0
C40 C 0.11988 0.22602 0.56783 0.0
C41 C 0.15862 0.20195 0.60976 0.0
O42 O 0.14314 0.18732 0.60201 0.0
O43 O 0.15888 0.21854 0.61317 0.0
O44 O 0.78811 0.87802 0.58724 0.0
Cd45 Cd 0.80275 0.88946 0.61431 0.0
O46 O 0.81626 0.8949 0.57541 0.0
Cd47 Cd 0.83159 0.91295 0.59757 0.0
O48 O 0.83825 0.94074 0.61171 0.0
C49 C 0.83731 0.95347 0.60367 0.0
O50 O 0.83332 0.94904 0.58828 0.0
C51 C 0.79758 0.88223 0.5746 0.0
C52 C 0.80624 0.85878 0.62619 0.0
O53 O 0.78988 0.85883 0.62681 0.0
O54 O 0.82114 0.87351 0.62026 0.0
O55 O 0.04279 0.87878 0.55762 0.0
Cd56 Cd 0.02764 0.88781 0.57935 0.0
O57 O 0.07021 0.8962 0.57265 0.0
Cd58 Cd 0.10221 0.91246 0.57898 0.0
O59 O 0.13144 0.93534 0.58967 0.0
C60 C 0.13128 0.9456 0.6021 0.0
O61 O 0.114 0.94138 0.60762 0.0
C62 C 0.06132 0.88548 0.55976 0.0
C63 C 0.00374 0.85436 0.59563 0.0
O64 O 0.99638 0.85907 0.58433 0.0
O65 O 0.02246 0.86562 0.59935 0.0
O66 O 0.86077 0.44456 0.77066 0.0
Cd67 Cd 0.84185 0.43169 0.74513 0.0
O68 O 0.88877 0.45357 0.75889 0.0
Cd69 Cd 0.87419 0.43603 0.73639 0.0
O70 O 0.86716 0.40809 0.72231 0.0
C71 C 0.87906 0.40201 0.72535 0.0
O72 O 0.89414 0.41314 0.73573 0.0
C73 C 0.87971 0.45327 0.77139 0.0
C74 C 0.84125 0.46304 0.73156 0.0
O75 O 0.82647 0.45059 0.73916 0.0
O76 O 0.85615 0.46049 0.73019 0.0
O77 O 0.58445 0.45445 0.76369 0.0
Cd78 Cd 0.58673 0.44402 0.73616 0.0
O79 O 0.59121 0.43337 0.77421 0.0
Cd80 Cd 0.58763 0.41674 0.75126 0.0
O81 O 0.56499 0.39014 0.73657 0.0
C82 C 0.54964 0.39037 0.73185 0.0
O83 O 0.54904 0.40698 0.73493 0.0
C84 C 0.58771 0.44774 0.77588 0.0
C85 C 0.61991 0.47514 0.72331 0.0
O86 O 0.60318 0.47448 0.72324 0.0
O87 O 0.62087 0.46092 0.72928 0.0
O88 O 0.57496 0.10893 0.76512 0.0
Cd89 Cd 0.58287 0.12076 0.73854 0.0
O90 O 0.55114 0.11558 0.77098 0.0
Cd91 Cd 0.54556 0.1258 0.74905 0.0
O92 O 0.52357 0.12876 0.73483 0.0
C93 C 0.5259 0.14568 0.73176 0.0
O94 O 0.5427 0.1624 0.73647 0.0
C95 C 0.5626 0.10918 0.77478 0.0
C96 C 0.61938 0.12556 0.72879 0.0
O97 O 0.61852 0.14044 0.73571 0.0
O98 O 0.60307 0.10842 0.72652 0.0
O99 O 0.79631 0.55421 0.91129 0.0
Cd100 Cd 0.7924 0.54096 0.93725 0.0
O101 O 0.76812 0.55395 0.90708 0.0
Cd102 Cd 0.75129 0.54266 0.92836 0.0
O103 O 0.72526 0.53699 0.94213 0.0
C104 C 0.7186 0.54876 0.94051 0.0
O105 O 0.72784 0.56345 0.93131 0.0
C106 C 0.78511 0.55754 0.90262 0.0
C107 C 0.82384 0.53492 0.94544 0.0
O108 O 0.80745 0.52043 0.93867 0.0
O109 O 0.82542 0.55223 0.94832 0.0
O110 O 0.45788 0.21763 0.92019 0.0
Cd111 Cd 0.47397 0.2292 0.94688 0.0
O112 O 0.48574 0.2351 0.90816 0.0
Cd113 Cd 0.5012 0.2536 0.93014 0.0
O114 O 0.50627 0.2813 0.94352 0.0
C115 C 0.49822 0.28961 0.93664 0.0
O116 O 0.48824 0.28097 0.92296 0.0
C117 C 0.46713 0.22217 0.90746 0.0
C118 C 0.47784 0.19859 0.9586 0.0
O119 O 0.46215 0.19964 0.96073 0.0
O120 O 0.49188 0.21227 0.95117 0.0
O121 O 0.73637 0.21391 0.90309 0.0
Cd122 Cd 0.72484 0.22419 0.92679 0.0
O123 O 0.76256 0.21829 0.91675 0.0
Cd124 Cd 0.75959 0.23456 0.93778 0.0
O125 O 0.77864 0.26423 0.95073 0.0
C126 C 0.78734 0.27866 0.94199 0.0
O127 O 0.78294 0.2748 0.92662 0.0
C128 C 0.75194 0.21261 0.90384 0.0
C129 C 0.69262 0.19091 0.93869 0.0
O130 O 0.68981 0.20191 0.9297 0.0
O131 O 0.71062 0.19569 0.94207 0.0
O132 O 0.55029 0.79051 0.10184 0.0
Cd133 Cd 0.53021 0.77843 0.0768 0.0
O134 O 0.57894 0.80211 0.09054 0.0
Cd135 Cd 0.56395 0.78542 0.06786 0.0
O136 O 0.55177 0.75583 0.05446 0.0
C137 C 0.54326 0.74093 0.06279 0.0
O138 O 0.54155 0.74451 0.07796 0.0
C139 C 0.56927 0.80005 0.10297 0.0
C140 C 0.52703 0.80951 0.06519 0.0
O141 O 0.51483 0.79825 0.07508 0.0
O142 O 0.54065 0.80596 0.06066 0.0
O143 O 0.24913 0.79865 0.09921 0.0
Cd144 Cd 0.253 0.78643 0.07264 0.0
O145 O 0.25018 0.77479 0.11092 0.0
Cd146 Cd 0.24509 0.75603 0.08874 0.0
O147 O 0.22141 0.7283 0.07567 0.0
C148 C 0.20391 0.72315 0.07978 0.0
O149 O 0.20178 0.73489 0.0907 0.0
C150 C 0.24956 0.79096 0.11182 0.0
C151 C 0.28693 0.81606 0.0591 0.0
O152 O 0.27011 0.81507 0.05757 0.0
O153 O 0.28772 0.80299 0.06699 0.0
O154 O 0.24094 0.44577 0.1011 0.0
Cd155 Cd 0.25133 0.45827 0.07501 0.0
O156 O 0.21103 0.44239 0.1004 0.0
Cd157 Cd 0.20886 0.45383 0.078 0.0
O158 O 0.19055 0.461 0.06302 0.0
C159 C 0.17212 0.4476 0.06071 0.0
O160 O 0.16548 0.43018 0.06662 0.0
C161 C 0.22446 0.44065 0.10744 0.0
C162 C 0.28919 0.46478 0.0678 0.0
O163 O 0.28711 0.47934 0.07371 0.0
O164 O 0.27349 0.44715 0.06544 0.0
O165 O 0.45809 0.88554 0.24635 0.0
Cd166 Cd 0.45359 0.87251 0.27246 0.0
O167 O 0.42875 0.88277 0.24206 0.0
Cd168 Cd 0.41345 0.87148 0.26391 0.0
O169 O 0.38814 0.86589 0.27851 0.0
C170 C 0.3805 0.87666 0.2762 0.0
O171 O 0.38844 0.89017 0.26588 0.0
C172 C 0.44604 0.88755 0.23756 0.0
C173 C 0.48503 0.86715 0.28196 0.0
O174 O 0.46914 0.85259 0.2746 0.0
O175 O 0.48612 0.88424 0.28478 0.0
O176 O 0.13217 0.55249 0.2513 0.0
Cd177 Cd 0.14766 0.56421 0.27812 0.0
O178 O 0.15859 0.57418 0.23941 0.0
Cd179 Cd 0.17297 0.59311 0.26148 0.0
O180 O 0.17899 0.6216 0.27407 0.0
C181 C 0.17119 0.62245 0.28702 0.0
O182 O 0.16026 0.60576 0.29387 0.0
C183 C 0.14091 0.55899 0.23861 0.0
C184 C 0.15253 0.53426 0.28999 0.0
O185 O 0.13606 0.53402 0.29112 0.0
O186 O 0.16686 0.54886 0.28348 0.0
O187 O 0.41355 0.54849 0.24359 0.0
Cd188 Cd 0.41215 0.56015 0.27105 0.0
O189 O 0.42772 0.53197 0.25117 0.0
Cd190 Cd 0.43676 0.5493 0.2743 0.0
O191 O 0.45839 0.57882 0.28619 0.0
C192 C 0.47193 0.59011 0.2773 0.0
O193 O 0.47153 0.58307 0.26256 0.0
C194 C 0.41971 0.53632 0.24024 0.0
C195 C 0.38214 0.528 0.28575 0.0
O196 O 0.37881 0.54075 0.27971 0.0
O197 O 0.3997 0.53067 0.28511 0.0
Eu198 Eu 0.49313 0.98948 0.98533 0.0
C199 C 0.52811 0.05702 0.04306 0.0
C200 C 0.5634 0.06881 0.0444 0.0
C201 C 0.55182 0.09097 0.055 0.0
C202 C 0.54353 0.05372 0.03972 0.0
C203 C 0.53203 0.07561 0.05089 0.0
C204 C 0.56741 0.08743 0.05201 0.0
C205 C 0.4965 0.06122 0.05252 0.0
N206 N 0.50915 0.04139 0.03996 0.0
C207 C 0.4934 0.04292 0.04513 0.0
C208 C 0.51591 0.07775 0.05521 0.0
Eu209 Eu 0.50467 0.01072 0.02753 0.0
N210 N 0.53895 0.03508 0.03333 0.0
C211 C 0.55347 0.03026 0.03197 0.0
C212 C 0.57848 0.06432 0.04209 0.0
C213 C 0.57346 0.04491 0.03594 0.0
H214 H 0.47836 0.03014 0.04316 0.0
H215 H 0.58495 0.04112 0.03446 0.0
H216 H 0.58242 0.09889 0.05625 0.0
H217 H 0.48393 0.06252 0.05621 0.0
H218 H 0.54978 0.01521 0.02753 0.0
H219 H 0.4133 0.95926 0.97484 0.0
H220 H 0.59393 0.0755 0.04548 0.0
H221 H 0.52026 0.96905 0.97328 0.0
H222 H 0.44831 0.98552 0.98224 0.0
H223 H 0.51486 0.93596 0.9621 0.0
H224 H 0.55514 0.10528 0.06115 0.0
H225 H 0.40472 0.92431 0.96602 0.0
H226 H 0.4159 0.89959 0.95949 0.0
H227 H 0.5183 0.09183 0.06116 0.0
H228 H 0.44352 0.8932 0.95599 0.0
N229 N 0.45923 0.96544 0.97827 0.0
C230 C 0.44471 0.9703 0.97849 0.0
C231 C 0.42 0.93571 0.96946 0.0
C232 C 0.43507 0.93106 0.96849 0.0
C233 C 0.42484 0.95546 0.97432 0.0
C234 C 0.45486 0.94651 0.97292 0.0
H235 H 0.48049 0.90676 0.95666 0.0
N236 N 0.48929 0.95846 0.97449 0.0
C237 C 0.50222 0.93768 0.96461 0.0
C238 C 0.47036 0.94289 0.97096 0.0
C239 C 0.50522 0.95638 0.9709 0.0
C240 C 0.48279 0.92122 0.9616 0.0
C241 C 0.46656 0.92377 0.96454 0.0
O242 O 0.5116 0.9997 0.96491 0.0
O243 O 0.51481 0.0145 0.00286 0.0
O244 O 0.49947 0.03207 0.01433 0.0
O245 O 0.48278 0.01206 0.99064 0.0
O246 O 0.52666 0.00281 0.98667 0.0
O247 O 0.48396 -0.00021 0.96543 0.0
O248 O 0.48851 0.00125 0.04924 0.0
O249 O 0.48248 0.98663 0.00983 0.0
O250 O 0.4947 0.96684 0.99955 0.0
O251 O 0.5152 0.9884 0.02112 0.0
O252 O 0.47114 0.99742 0.02726 0.0
O253 O 0.5137 0.99745 0.04518 0.0
C254 C 0.53099 0.01675 0.99807 0.0
C255 C 0.49457 0.99449 0.94034 0.0
C256 C 0.50067 0.99944 0.91231 0.0
C257 C 0.50426 0.00729 0.92838 0.0
C258 C 0.48717 0.97864 0.90842 0.0
C259 C 0.48105 0.97385 0.93615 0.0
C260 C 0.4774 0.96599 0.92028 0.0
C261 C 0.48892 0.02836 0.00084 0.0
C262 C 0.49908 0.00272 0.95711 0.0
C263 C 0.44678 0.90806 0.9608 0.0
C264 C 0.43106 0.9117 0.96279 0.0
C265 C 0.4665 0.98461 0.01496 0.0
C266 C 0.50792 0.00355 0.07171 0.0
C267 C 0.50114 0.99014 0.08359 0.0
C268 C 0.50903 0.99706 0.09935 0.0
C269 C 0.52355 0.01761 0.10307 0.0
C270 C 0.52239 0.02397 0.07571 0.0
C271 C 0.5301 0.03095 0.09131 0.0
C272 C 0.50648 0.97077 0.01227 0.0
C273 C 0.50046 0.99601 0.05512 0.0
H274 H 0.5148 0.02324 0.93161 0.0
H275 H 0.48394 0.97221 0.89616 0.0
H276 H 0.47334 0.96381 0.94513 0.0
H277 H 0.46695 0.95003 0.91715 0.0
H278 H 0.49011 0.97429 0.0805 0.0
H279 H 0.52972 0.02339 0.11512 0.0
H280 H 0.52786 0.03447 0.06677 0.0
H281 H 0.54127 0.04675 0.09429 0.0
Eu282 Eu 0.0105 0.50028 0.98777 0.0
C283 C 0.94753 0.47488 0.04154 0.0
C284 C 0.93923 0.50109 0.04414 0.0
C285 C 0.91622 0.46792 0.05261 0.0
C286 C 0.95223 0.4943 0.03931 0.0
C287 C 0.9295 0.46146 0.04828 0.0
C288 C 0.92123 0.48779 0.05079 0.0
C289 C 0.94044 0.43737 0.0482 0.0
N290 N 0.96124 0.46956 0.03818 0.0
C291 C 0.95833 0.45142 0.04197 0.0
C292 C 0.92585 0.44233 0.05121 0.0
Eu293 Eu 0.99145 0.49404 0.02805 0.0
N294 N 0.97026 0.50707 0.03372 0.0
C295 C 0.97655 0.52708 0.0333 0.0
C296 C 0.94518 0.52133 0.04289 0.0
C297 C 0.96396 0.5344 0.0375 0.0
H298 H 0.96963 0.44756 0.03983 0.0
H299 H 0.9689 0.55019 0.03681 0.0
H300 H 0.91138 0.49288 0.05509 0.0
H301 H 0.938 0.42282 0.05079 0.0
H302 H 0.9912 0.53751 0.02954 0.0
H303 H 0.02951 0.44149 0.97779 0.0
H304 H 0.93568 0.52718 0.0465 0.0
H305 H 0.03664 0.5487 0.97975 0.0
H306 H 0.00729 0.45498 0.98286 0.0
H307 H 0.07111 0.57386 0.97343 0.0
H308 H 0.90239 0.45793 0.05795 0.0
H309 H 0.0653 0.4648 0.97391 0.0
H310 H 0.09335 0.50029 0.97132 0.0
H311 H 0.91212 0.43156 0.05627 0.0
H312 H 0.10471 0.53631 0.97022 0.0
N313 N 0.03031 0.48571 0.98215 0.0
C314 C 0.02283 0.46533 0.98108 0.0
C315 C 0.0556 0.47082 0.97608 0.0
C316 C 0.06294 0.4916 0.97636 0.0
C317 C 0.03539 0.45761 0.97823 0.0
C318 C 0.04971 0.49867 0.97934 0.0
H319 H 0.09647 0.56383 0.97078 0.0
N320 N 0.0428 0.52506 0.98109 0.0
C321 C 0.06713 0.5585 0.97501 0.0
C322 C 0.05618 0.51897 0.97887 0.0
C323 C 0.04767 0.54427 0.97854 0.0
C324 C 0.08142 0.55279 0.97356 0.0
C325 C 0.07594 0.53273 0.97521 0.0
O326 O 0.00177 0.51007 0.96737 0.0
O327 O 0.98744 0.49996 0.00336 0.0
O328 O 0.96761 0.46733 0.01238 0.0
O329 O 0.985 0.46776 0.98969 0.0
O330 O 1.00076 0.52343 0.98914 0.0
O331 O 0.99934 0.48075 0.96546 0.0
O332 O 0.00233 0.48743 0.04925 0.0
O333 O 0.01332 0.49302 0.01205 0.0
O334 O 0.03462 0.52455 0.00485 0.0
O335 O 0.01509 0.52683 0.02456 0.0
O336 O 0.00137 0.47098 0.02743 0.0
O337 O 0.00676 0.51731 0.04775 0.0
C338 C 0.98704 0.51501 0.9991 0.0
C339 C 0.00574 0.49786 0.94227 0.0
C340 C 1.0004 0.49943 0.91409 0.0
C341 C 0.99289 0.49418 0.92917 0.0
C342 C 0.02112 0.50833 0.91245 0.0
C343 C 0.0262 0.50629 0.94028 0.0
C344 C 0.03383 0.51151 0.92543 0.0
C345 C 0.96936 0.45902 0.99862 0.0
C346 C 0.99767 0.49403 0.95804 0.0
C347 C 0.08939 0.52592 0.97287 0.0
C348 C 0.08291 0.50541 0.97347 0.0
C349 C 0.01393 0.47819 0.01653 0.0
C350 C 0.00348 0.50586 0.07315 0.0
C351 C 0.01665 0.50724 0.08513 0.0
C352 C 0.01266 0.50866 0.10121 0.0
C353 C 0.99496 0.50829 0.10504 0.0
C354 C 0.98588 0.50542 0.07715 0.0
C355 C 0.98164 0.50656 0.09305 0.0
C356 C 0.0322 0.53414 0.01745 0.0
C357 C 0.00866 0.50528 0.0566 0.0
H358 H 0.97704 0.48719 0.93083 0.0
H359 H 0.02762 0.5131 0.9012 0.0
H360 H 0.03629 0.50905 0.95019 0.0
H361 H 0.0497 0.51828 0.92401 0.0
H362 H 0.03002 0.50719 0.08184 0.0
H363 H 0.99154 0.50973 0.11727 0.0
H364 H 0.97556 0.50439 0.06804 0.0
H365 H 0.96811 0.50637 0.09612 0.0
Eu366 Eu 0.51158 0.50621 0.02528 0.0
C367 C 0.46824 0.51962 0.96831 0.0
C368 C 0.43434 0.49112 0.96712 0.0
C369 C 0.44143 0.52201 0.95597 0.0
C370 C 0.45472 0.50019 0.97184 0.0
C371 C 0.46178 0.53069 0.9602 0.0
C372 C 0.42781 0.50216 0.95921 0.0
C373 C 0.49633 0.55679 0.95878 0.0
N374 N 0.48792 0.52703 0.97159 0.0
C375 C 0.50201 0.54497 0.96641 0.0
C376 C 0.4761 0.5497 0.95578 0.0
Eu377 Eu 0.49673 0.50606 0.98385 0.0
N378 N 0.46175 0.48952 0.97856 0.0
C379 C 0.44929 0.46945 0.98029 0.0
C380 C 0.42133 0.47088 0.96972 0.0
C381 C 0.42887 0.45998 0.97628 0.0
H382 H 0.51768 0.55035 0.96843 0.0
H383 H 0.41902 0.44419 0.97802 0.0
H384 H 0.41238 0.49524 0.95499 0.0
H385 H 0.50756 0.57122 0.95503 0.0
H386 H 0.45495 0.46067 0.98497 0.0
H387 H 0.58929 0.56785 0.0329 0.0
H388 H 0.40559 0.46334 0.96625 0.0
H389 H 0.49032 0.46006 0.03805 0.0
H390 H 0.55326 0.55208 0.02639 0.0
H391 H 0.50057 0.43783 0.04903 0.0
H392 H 0.43619 0.53019 0.94961 0.0
H393 H 0.60266 0.5471 0.04186 0.0
H394 H 0.59628 0.51345 0.04878 0.0
H395 H 0.47173 0.55869 0.94958 0.0
H396 H 0.57216 0.47805 0.0531 0.0
N397 N 0.54638 0.52259 0.03098 0.0
C398 C 0.55892 0.54285 0.03014 0.0
C399 C 0.58688 0.54008 0.03875 0.0
C400 C 0.57384 0.51951 0.04019 0.0
C401 C 0.57937 0.55184 0.0338 0.0
C402 C 0.55335 0.51111 0.03631 0.0
H403 H 0.53645 0.44983 0.05347 0.0
N404 N 0.52008 0.48405 0.03587 0.0
C405 C 0.51176 0.45277 0.04614 0.0
C406 C 0.5398 0.49122 0.03881 0.0
C407 C 0.506 0.46538 0.03994 0.0
C408 C 0.53202 0.45959 0.04859 0.0
C409 C 0.54633 0.47914 0.04516 0.0
O410 O 0.49384 0.49922 0.04618 0.0
O411 O 0.48734 0.50242 0.00874 0.0
O412 O 0.49841 0.53352 0.99702 0.0
O413 O 0.51722 0.53728 0.02014 0.0
O414 O 0.47908 0.48121 0.02481 0.0
O415 O 0.51985 0.52916 0.04528 0.0
O416 O 0.5142 0.51155 0.96281 0.0
O417 O 0.5211 0.5108 0.00056 0.0
O418 O 0.51288 0.48112 0.01097 0.0
O419 O 0.49068 0.47507 0.98988 0.0
O420 O 0.52927 0.53097 0.98372 0.0
O421 O 0.48872 0.48174 0.96508 0.0
C422 C 0.47253 0.48732 0.01383 0.0
C423 C 0.51134 0.51649 0.07035 0.0
C424 C 0.504 0.51596 0.09834 0.0
C425 C 0.49963 0.51737 0.08251 0.0
C426 C 0.52036 0.51366 0.10174 0.0
C427 C 0.52773 0.51451 0.07401 0.0
C428 C 0.53217 0.51306 0.08965 0.0
C429 C 0.50901 0.54388 0.01029 0.0
C430 C 0.50568 0.51685 0.05389 0.0
C431 C 0.56683 0.48715 0.04834 0.0
C432 C 0.58056 0.5073 0.04588 0.0
C433 C 0.5359 0.52574 0.99528 0.0
C434 C 0.49671 0.49178 0.93926 0.0
C435 C 0.50782 0.48884 0.92756 0.0
C436 C 0.50291 0.48798 0.91141 0.0
C437 C 0.48671 0.49009 0.90711 0.0
C438 C 0.48045 0.49363 0.9348 0.0
C439 C 0.47551 0.49282 0.91878 0.0
C440 C 0.50141 0.46986 0.99834 0.0
C441 C 0.50266 0.49331 0.956 0.0
H442 H 0.48722 0.51929 0.07957 0.0
H443 H 0.52394 0.5121 0.11372 0.0
H444 H 0.53702 0.51399 0.06483 0.0
H445 H 0.54474 0.51133 0.09239 0.0
H446 H 0.52047 0.48755 0.93105 0.0
H447 H 0.48254 0.48934 0.89475 0.0
H448 H 0.4716 0.49568 0.94365 0.0
H449 H 0.46296 0.49429 0.9154 0.0
Eu450 Eu 0.16669 0.32755 0.32023 0.0
C451 C 0.2223 0.39899 0.37146 0.0
C452 C 0.25542 0.40497 0.36712 0.0
C453 C 0.25117 0.43295 0.37676 0.0
C454 C 0.23453 0.3918 0.36664 0.0
C455 C 0.23047 0.41955 0.37691 0.0
C456 C 0.26363 0.42566 0.37186 0.0
C457 C 0.19728 0.41177 0.38329 0.0
N458 N 0.20242 0.38564 0.37145 0.0
C459 C 0.18993 0.39152 0.3778 0.0
C460 C 0.21762 0.42592 0.38266 0.0
Eu461 Eu 0.19067 0.35198 0.36064 0.0
N462 N 0.22607 0.37176 0.36206 0.0
C463 C 0.23776 0.3636 0.35899 0.0
C464 C 0.26741 0.39686 0.36314 0.0
C465 C 0.25855 0.37603 0.35932 0.0
H466 H 0.17416 0.38064 0.37813 0.0
H467 H 0.2677 0.36953 0.35648 0.0
H468 H 0.27961 0.43607 0.3721 0.0
H469 H 0.18727 0.41647 0.38796 0.0
H470 H 0.23115 0.34758 0.35586 0.0
H471 H 0.08897 0.30839 0.32175 0.0
H472 H 0.2835 0.40646 0.36329 0.0
H473 H 0.18486 0.29963 0.3042 0.0
H474 H 0.12551 0.33093 0.32358 0.0
H475 H 0.1727 0.264 0.29438 0.0
H476 H 0.25772 0.44886 0.38073 0.0
H477 H 0.07403 0.27161 0.31477 0.0
H478 H 0.07894 0.24255 0.30645 0.0
H479 H 0.22329 0.4416 0.38694 0.0
H480 H 0.10171 0.23047 0.29893 0.0
N481 N 0.13138 0.30718 0.31803 0.0
C482 C 0.11926 0.31496 0.32044 0.0
C483 C 0.09011 0.28145 0.31551 0.0
C484 C 0.10259 0.27374 0.31218 0.0
C485 C 0.09849 0.30221 0.31942 0.0
C486 C 0.12344 0.28721 0.3134 0.0
H487 H 0.13667 0.2384 0.29418 0.0
N488 N 0.15606 0.29404 0.30976 0.0
C489 C 0.16228 0.2684 0.29854 0.0
C490 C 0.13618 0.28042 0.30913 0.0
C491 C 0.1691 0.28854 0.30404 0.0
C492 C 0.14193 0.25398 0.29848 0.0
C493 C 0.12856 0.25996 0.30359 0.0
O494 O 0.17948 0.33349 0.29703 0.0
O495 O 0.19363 0.35088 0.33462 0.0
O496 O 0.18722 0.37458 0.34767 0.0
O497 O 0.16143 0.35325 0.3287 0.0
O498 O 0.19878 0.3367 0.31526 0.0
O499 O 0.15692 0.34089 0.3032 0.0
O500 O 0.17828 0.34601 0.38401 0.0
O501 O 0.16356 0.32912 0.34625 0.0
O502 O 0.16839 0.30454 0.33383 0.0
O503 O 0.19527 0.3259 0.35176 0.0
O504 O 0.15889 0.34351 0.36587 0.0
O505 O 0.1999 0.33761 0.37715 0.0
C506 C 0.20719 0.35069 0.32686 0.0
C507 C 0.15888 0.33239 0.27612 0.0
C508 C 0.15912 0.33716 0.24797 0.0
C509 C 0.16787 0.34408 0.26347 0.0
C510 C 0.1413 0.31829 0.24532 0.0
C511 C 0.14119 0.31356 0.27326 0.0
C512 C 0.13247 0.30657 0.2579 0.0
C513 C 0.17306 0.37104 0.33698 0.0
C514 C 0.1682 0.34012 0.29219 0.0
C515 C 0.10786 0.24629 0.30301 0.0
C516 C 0.0949 0.25317 0.3073 0.0
C517 C 0.15028 0.32983 0.35409 0.0
C518 C 0.19865 0.34567 0.40444 0.0
C519 C 0.18962 0.33374 0.41699 0.0
C520 C 0.19842 0.34031 0.43252 0.0
C521 C 0.2165 0.35898 0.4352 0.0
C522 C 0.21657 0.36425 0.40738 0.0
C523 C 0.22545 0.37082 0.42271 0.0
C524 C 0.1828 0.30789 0.34412 0.0
C525 C 0.18902 0.33858 0.38842 0.0
H526 H 0.18148 0.3587 0.26575 0.0
H527 H 0.13431 0.3125 0.23349 0.0
H528 H 0.13414 0.30433 0.28288 0.0
H529 H 0.11881 0.29202 0.25573 0.0
H530 H 0.1756 0.31953 0.41466 0.0
H531 H 0.22386 0.36435 0.44693 0.0
H532 H 0.22367 0.37363 0.39784 0.0
H533 H 0.23935 0.38514 0.42492 0.0
Eu534 Eu 0.67215 0.83152 0.32638 0.0
C535 C 0.60521 0.80203 0.3777 0.0
C536 C 0.59526 0.82702 0.381 0.0
C537 C 0.57326 0.79309 0.38858 0.0
C538 C 0.60906 0.82135 0.37605 0.0
C539 C 0.58724 0.78767 0.38398 0.0
C540 C 0.57741 0.8128 0.38732 0.0
C541 C 0.59917 0.76432 0.38237 0.0
N542 N 0.61946 0.79759 0.37394 0.0
C543 C 0.61693 0.77921 0.37655 0.0
C544 C 0.58421 0.76853 0.38604 0.0
Eu545 Eu 0.64973 0.82403 0.36542 0.0
N546 N 0.6269 0.83501 0.37066 0.0
C547 C 0.63211 0.85475 0.37038 0.0
C548 C 0.6002 0.84704 0.38008 0.0
C549 C 0.61871 0.86096 0.37473 0.0
H550 H 0.62845 0.77582 0.37392 0.0
H551 H 0.62282 0.87657 0.37424 0.0
H552 H 0.56689 0.817 0.39163 0.0
H553 H 0.59712 0.74967 0.38415 0.0
H554 H 0.64661 0.86583 0.36677 0.0
H555 H 0.69353 0.77422 0.32055 0.0
H556 H 0.59009 0.85206 0.38385 0.0
H557 H 0.69846 0.87999 0.31856 0.0
H558 H 0.6703 0.78684 0.32303 0.0
H559 H 0.73347 0.90586 0.31428 0.0
H560 H 0.55947 0.78234 0.39358 0.0
H561 H 0.72969 0.79826 0.31888 0.0
H562 H 0.75765 0.83407 0.31727 0.0
H563 H 0.57059 0.75707 0.39077 0.0
H564 H 0.76854 0.86991 0.31561 0.0
N565 N 0.69307 0.8178 0.32304 0.0
C566 C 0.686 0.7975 0.32219 0.0
C567 C 0.71954 0.80389 0.3199 0.0
C568 C 0.72654 0.82457 0.3199 0.0
C569 C 0.69914 0.79027 0.32081 0.0
C570 C 0.71272 0.83113 0.32137 0.0
H571 H 0.75962 0.89681 0.31431 0.0
N572 N 0.70497 0.85681 0.32122 0.0
C573 C 0.72959 0.8906 0.3161 0.0
C574 C 0.71887 0.85127 0.32046 0.0
C575 C 0.70982 0.87594 0.31842 0.0
C576 C 0.74431 0.88542 0.31614 0.0
C577 C 0.73898 0.86546 0.31806 0.0
O578 O 0.6672 0.84143 0.30424 0.0
O579 O 0.64793 0.83077 0.34055 0.0
O580 O 0.6267 0.79874 0.34837 0.0
O581 O 0.64693 0.79866 0.32809 0.0
O582 O 0.66112 0.85364 0.32583 0.0
O583 O 0.6607 0.81065 0.30487 0.0
O584 O 0.6608 0.818 0.38677 0.0
O585 O 0.67356 0.82448 0.351 0.0
O586 O 0.69415 0.85637 0.34443 0.0
O587 O 0.6723 0.85722 0.36257 0.0
O588 O 0.66065 0.80183 0.36572 0.0
O589 O 0.66185 0.84653 0.38594 0.0
C590 C 0.64728 0.84543 0.33571 0.0
C591 C 0.67172 0.82573 0.28095 0.0
C592 C 0.67093 0.82624 0.25219 0.0
C593 C 0.66201 0.82517 0.26676 0.0
C594 C 0.68981 0.8281 0.25206 0.0
C595 C 0.69051 0.82754 0.28057 0.0
C596 C 0.69952 0.82878 0.26619 0.0
C597 C 0.62991 0.79011 0.3355 0.0
C598 C 0.66203 0.82431 0.296 0.0
C599 C 0.75297 0.85919 0.31728 0.0
C600 C 0.74677 0.83878 0.31821 0.0
C601 C 0.67443 0.80995 0.35582 0.0
C602 C 0.65918 0.83408 0.41099 0.0
C603 C 0.67242 0.83536 0.42285 0.0
C604 C 0.66787 0.83512 0.43889 0.0
C605 C 0.64946 0.83307 0.44281 0.0
C606 C 0.64089 0.83202 0.41505 0.0
C607 C 0.63606 0.83144 0.43093 0.0
C608 C 0.69015 0.86527 0.35662 0.0
C609 C 0.66503 0.83507 0.39454 0.0
H610 H 0.64737 0.82351 0.26706 0.0
H611 H 0.69712 0.82918 0.24105 0.0
H612 H 0.69818 0.8279 0.29132 0.0
H613 H 0.71404 0.83022 0.26599 0.0
H614 H 0.68631 0.83653 0.41949 0.0
H615 H 0.64556 0.83314 0.45505 0.0
H616 H 0.63048 0.83098 0.40602 0.0
H617 H 0.62198 0.82995 0.43406 0.0
Eu618 Eu 0.17632 0.83703 0.36363 0.0
C619 C 0.13266 0.85487 0.31126 0.0
C620 C 0.09843 0.82704 0.30996 0.0
C621 C 0.10583 0.86012 0.30333 0.0
C622 C 0.11892 0.83488 0.31331 0.0
C623 C 0.12632 0.86762 0.30595 0.0
C624 C 0.0919 0.83985 0.30531 0.0
C625 C 0.16101 0.89367 0.30488 0.0
N626 N 0.15234 0.86156 0.31368 0.0
C627 C 0.16656 0.8804 0.31002 0.0
C628 C 0.14079 0.88734 0.30301 0.0
Eu629 Eu 0.16041 0.83834 0.3228 0.0
N630 N 0.12566 0.8228 0.31766 0.0
C631 C 0.11291 0.80247 0.31787 0.0
C632 C 0.08517 0.80639 0.31089 0.0
C633 C 0.09243 0.794 0.31471 0.0
H634 H 0.1822 0.88538 0.31152 0.0
H635 H 0.08229 0.77794 0.31518 0.0
H636 H 0.07617 0.83411 0.30285 0.0
H637 H 0.17231 0.90876 0.30239 0.0
H638 H 0.11844 0.79281 0.3208 0.0
H639 H 0.25478 0.89725 0.36944 0.0
H640 H 0.06942 0.79985 0.3082 0.0
H641 H 0.15498 0.79211 0.37838 0.0
H642 H 0.21881 0.88231 0.36389 0.0
H643 H 0.1648 0.76945 0.38911 0.0
H644 H 0.10063 0.86972 0.29937 0.0
H645 H 0.26782 0.87598 0.37784 0.0
H646 H 0.26092 0.84209 0.38467 0.0
H647 H 0.13652 0.89761 0.29895 0.0
H648 H 0.23638 0.80712 0.3898 0.0
N649 N 0.21131 0.8526 0.36846 0.0
C650 C 0.22419 0.87276 0.3674 0.0
C651 C 0.25198 0.86926 0.37513 0.0
C652 C 0.23866 0.84881 0.37682 0.0
C653 C 0.24468 0.88133 0.37052 0.0
C654 C 0.21812 0.84088 0.37353 0.0
H655 H 0.20049 0.77999 0.39174 0.0
N656 N 0.18471 0.81477 0.3743 0.0
C657 C 0.17609 0.78393 0.38548 0.0
C658 C 0.20437 0.82127 0.37643 0.0
C659 C 0.17058 0.79678 0.37939 0.0
C660 C 0.19624 0.7899 0.3869 0.0
C661 C 0.21071 0.80897 0.38269 0.0
O662 O 0.15846 0.83161 0.3844 0.0
O663 O 0.1515 0.83314 0.34769 0.0
O664 O 0.16035 0.86344 0.33824 0.0
O665 O 0.18355 0.86855 0.35816 0.0
O666 O 0.14389 0.8121 0.36388 0.0
O667 O 0.186 0.86022 0.38371 0.0
O668 O 0.17709 0.84599 0.30132 0.0
O669 O 0.18488 0.84145 0.33858 0.0
O670 O 0.17429 0.81007 0.34936 0.0
O671 O 0.15481 0.80691 0.32683 0.0
O672 O 0.19314 0.86257 0.32244 0.0
O673 O 0.15148 0.81581 0.30239 0.0
C674 C 0.13696 0.81779 0.35285 0.0
C675 C 0.17605 0.84782 0.40872 0.0
C676 C 0.16886 0.84907 0.4367 0.0
C677 C 0.16597 0.8517 0.42082 0.0
C678 C 0.18238 0.84276 0.44018 0.0
C679 C 0.18969 0.84192 0.41249 0.0
C680 C 0.19283 0.83942 0.42816 0.0
C681 C 0.17333 0.8747 0.35014 0.0
C682 C 0.17118 0.84884 0.39219 0.0
C683 C 0.23121 0.81641 0.38515 0.0
C684 C 0.24517 0.83632 0.38225 0.0
C685 C 0.19974 0.85625 0.33323 0.0
C686 C 0.15877 0.82879 0.27733 0.0
C687 C 0.16985 0.82779 0.2647 0.0
C688 C 0.16437 0.8285 0.249 0.0
C689 C 0.14761 0.83032 0.24619 0.0
C690 C 0.14207 0.83052 0.27429 0.0
C691 C 0.13657 0.83131 0.25877 0.0
C692 C 0.16342 0.8001 0.3361 0.0
C693 C 0.16515 0.82841 0.29357 0.0
H694 H 0.15586 0.85675 0.41774 0.0
H695 H 0.18471 0.84005 0.45213 0.0
H696 H 0.19774 0.83906 0.40334 0.0
H697 H 0.2032 0.83461 0.43098 0.0
H698 H 0.18258 0.82616 0.26712 0.0
H699 H 0.14314 0.83115 0.23427 0.0
H700 H 0.13331 0.83124 0.28385 0.0
H701 H 0.12371 0.83272 0.2565 0.0
Eu702 Eu 0.81828 0.64887 0.65098 0.0
C703 C 0.87189 0.72027 0.70285 0.0
C704 C 0.90544 0.728 0.69782 0.0
C705 C 0.89984 0.75467 0.70867 0.0
C706 C 0.88471 0.71407 0.69747 0.0
C707 C 0.87931 0.74055 0.70881 0.0
C708 C 0.91289 0.74841 0.70316 0.0
C709 C 0.84577 0.73107 0.71556 0.0
N710 N 0.85218 0.70625 0.70281 0.0
C711 C 0.83916 0.71114 0.70955 0.0
C712 C 0.8659 0.74591 0.71503 0.0
Eu713 Eu 0.84172 0.67313 0.69143 0.0
N714 N 0.87699 0.69426 0.69236 0.0
C715 C 0.88933 0.68708 0.68852 0.0
C716 C 0.91807 0.72092 0.69307 0.0
C717 C 0.90999 0.70032 0.68861 0.0
H718 H 0.82355 0.69971 0.70983 0.0
H719 H 0.91965 0.69462 0.68517 0.0
H720 H 0.92874 0.75938 0.70336 0.0
H721 H 0.83534 0.73499 0.72056 0.0
H722 H 0.88335 0.67125 0.68494 0.0
H723 H 0.73949 0.62516 0.65429 0.0
H724 H 0.93406 0.73114 0.6931 0.0
H725 H 0.83846 0.62337 0.63375 0.0
H726 H 0.77577 0.6494 0.65561 0.0
H727 H 0.82793 0.58827 0.62345 0.0
H728 H 0.90582 0.77037 0.71306 0.0
H729 H 0.72634 0.58874 0.6469 0.0
H730 H 0.7331 0.56114 0.63783 0.0
H731 H 0.871 0.76134 0.71971 0.0
H732 H 0.75715 0.5511 0.62941 0.0
N733 N 0.7832 0.62693 0.64931 0.0
C734 C 0.77026 0.63359 0.65227 0.0
C735 C 0.7423 0.59933 0.6474 0.0
C736 C 0.75559 0.59278 0.64354 0.0
C737 C 0.74966 0.61988 0.65154 0.0
C738 C 0.77623 0.60717 0.64448 0.0
H739 H 0.79249 0.56115 0.62379 0.0
N740 N 0.80937 0.61595 0.64018 0.0
C741 C 0.81705 0.59177 0.62808 0.0
C742 C 0.78972 0.6015 0.63977 0.0
C743 C 0.82295 0.6116 0.63387 0.0
C744 C 0.79704 0.57649 0.62833 0.0
C745 C 0.78303 0.58131 0.63398 0.0
O746 O 0.83262 0.65848 0.62873 0.0
O747 O 0.84481 0.67321 0.66538 0.0
O748 O 0.8368 0.69515 0.6791 0.0
O749 O 0.81183 0.67376 0.65957 0.0
O750 O 0.85064 0.65928 0.6462 0.0
O751 O 0.80481 0.6575 0.63276 0.0
O752 O 0.83063 0.66727 0.71523 0.0
O753 O 0.81501 0.64976 0.67697 0.0
O754 O 0.8216 0.62632 0.66388 0.0
O755 O 0.8477 0.64809 0.6823 0.0
O756 O 0.80945 0.66261 0.69694 0.0
O757 O 0.85201 0.659 0.70724 0.0
C758 C 0.85868 0.67365 0.6576 0.0
C759 C 0.81185 0.65184 0.60624 0.0
C760 C 0.8165 0.6561 0.57805 0.0
C761 C 0.82038 0.66432 0.59397 0.0
C762 C 0.80333 0.63518 0.57453 0.0
C763 C 0.79863 0.63103 0.60256 0.0
C764 C 0.7943 0.62279 0.58674 0.0
C765 C 0.82278 0.69143 0.66822 0.0
C766 C 0.81849 0.66059 0.62272 0.0
C767 C 0.76257 0.56673 0.63367 0.0
C768 C 0.74888 0.57245 0.63846 0.0
C769 C 0.80126 0.64918 0.68496 0.0
C770 C 0.85259 0.66763 0.73465 0.0
C771 C 0.84515 0.65565 0.74737 0.0
C772 C 0.85553 0.66228 0.76233 0.0
C773 C 0.87336 0.68123 0.76436 0.0
C774 C 0.87034 0.68649 0.73692 0.0
C775 C 0.88064 0.69323 0.75173 0.0
C776 C 0.83584 0.63004 0.6745 0.0
C777 C 0.84184 0.6601 0.71904 0.0
H778 H 0.8306 0.68035 0.59685 0.0
H779 H 0.79995 0.62844 0.56236 0.0
H780 H 0.79193 0.62116 0.61187 0.0
H781 H 0.78416 0.6067 0.58393 0.0
H782 H 0.83148 0.64103 0.74552 0.0
H783 H 0.88155 0.6869 0.77577 0.0
H784 H 0.87625 0.69592 0.72724 0.0
H785 H 0.89433 0.70781 0.75344 0.0
Eu786 Eu 0.34684 0.16833 0.65312 0.0
C787 C 0.28435 0.14518 0.70654 0.0
C788 C 0.27513 0.17077 0.70912 0.0
C789 C 0.25293 0.13748 0.71779 0.0
C790 C 0.28851 0.16449 0.70427 0.0
C791 C 0.26645 0.13141 0.71321 0.0
C792 C 0.25744 0.1572 0.71601 0.0
C793 C 0.27752 0.10734 0.71194 0.0
N794 N 0.29821 0.14013 0.70284 0.0
C795 C 0.2953 0.1217 0.7058 0.0
C796 C 0.26299 0.1122 0.71564 0.0
Eu797 Eu 0.32837 0.16573 0.69351 0.0
N798 N 0.30625 0.17759 0.6984 0.0
C799 C 0.31177 0.19731 0.69747 0.0
C800 C 0.28035 0.19075 0.70754 0.0
C801 C 0.29875 0.20407 0.70167 0.0
H802 H 0.30657 0.11792 0.70316 0.0
H803 H 0.30308 0.21965 0.70065 0.0
H804 H 0.24733 0.16193 0.72035 0.0
H805 H 0.27512 0.09263 0.71398 0.0
H806 H 0.32622 0.20788 0.69341 0.0
H807 H 0.36607 0.10925 0.65079 0.0
H808 H 0.27052 0.19619 0.71115 0.0
H809 H 0.37144 0.21291 0.63818 0.0
H810 H 0.34394 0.12307 0.65325 0.0
H811 H 0.40521 0.23638 0.6294 0.0
H812 H 0.23922 0.12722 0.72315 0.0
H813 H 0.40166 0.13157 0.64567 0.0
H814 H 0.42928 0.16582 0.63954 0.0
H815 H 0.24937 0.10117 0.72067 0.0
H816 H 0.43996 0.20049 0.63361 0.0
N817 N 0.36676 0.15325 0.64999 0.0
C818 C 0.35936 0.13308 0.65094 0.0
C819 C 0.39199 0.13777 0.64672 0.0
C820 C 0.39917 0.15811 0.64471 0.0
C821 C 0.3719 0.12512 0.64956 0.0
C822 C 0.38597 0.16544 0.64631 0.0
H823 H 0.43108 0.22694 0.6297 0.0
N824 N 0.3785 0.19092 0.64384 0.0
C825 C 0.40175 0.22201 0.63333 0.0
C826 C 0.39204 0.18494 0.64315 0.0
C827 C 0.38268 0.2087 0.63826 0.0
C828 C 0.41633 0.21665 0.63357 0.0
C829 C 0.41142 0.19771 0.63816 0.0
O830 O 0.33811 0.1749 0.63084 0.0
O831 O 0.32455 0.17008 0.66835 0.0
O832 O 0.30374 0.13991 0.67785 0.0
O833 O 0.32249 0.1363 0.65796 0.0
O834 O 0.3364 0.19084 0.65189 0.0
O835 O 0.33241 0.14478 0.63342 0.0
O836 O 0.33886 0.16051 0.71559 0.0
O837 O 0.35105 0.16486 0.67836 0.0
O838 O 0.37012 0.19659 0.66787 0.0
O839 O 0.35189 0.19821 0.68929 0.0
O840 O 0.33964 0.14393 0.69471 0.0
O841 O 0.3415 0.18953 0.71308 0.0
C842 C 0.32374 0.18432 0.66282 0.0
C843 C 0.34009 0.15667 0.60808 0.0
C844 C 0.33776 0.15799 0.57951 0.0
C845 C 0.33031 0.15781 0.59463 0.0
C846 C 0.35523 0.15709 0.57809 0.0
C847 C 0.35748 0.15574 0.60643 0.0
C848 C 0.36499 0.15598 0.5915 0.0
C849 C 0.30588 0.12936 0.66578 0.0
C850 C 0.33227 0.15703 0.62375 0.0
C851 C 0.42496 0.19086 0.63731 0.0
C852 C 0.41886 0.17111 0.64064 0.0
C853 C 0.3525 0.15106 0.68401 0.0
C854 C 0.3377 0.17871 0.73886 0.0
C855 C 0.34989 0.17934 0.75138 0.0
C856 C 0.34486 0.18035 0.76723 0.0
C857 C 0.32716 0.18036 0.77028 0.0
C858 C 0.32015 0.17876 0.74214 0.0
C859 C 0.3149 0.17949 0.7578 0.0
C860 C 0.36788 0.20612 0.68069 0.0
C861 C 0.34381 0.17825 0.72255 0.0
H862 H 0.31704 0.15881 0.59599 0.0
H863 H 0.36118 0.15692 0.5666 0.0
H864 H 0.36522 0.15482 0.61665 0.0
H865 H 0.37838 0.15521 0.59029 0.0
H866 H 0.36329 0.17903 0.74871 0.0
H867 H 0.32298 0.18146 0.78233 0.0
H868 H 0.31064 0.17842 0.73268 0.0
H869 H 0.30139 0.17962 0.76027 0.0
Eu870 Eu 0.84754 0.16716 0.69492 0.0
C871 C 0.79528 0.17647 0.6452 0.0
C872 C 0.7621 0.14815 0.64826 0.0
C873 C 0.76633 0.1796 0.64034 0.0
C874 C 0.78301 0.15693 0.64911 0.0
C875 C 0.78707 0.18784 0.64034 0.0
C876 C 0.75386 0.15978 0.64431 0.0
C877 C 0.82023 0.21376 0.63429 0.0
N878 N 0.8152 0.18387 0.64516 0.0
C879 C 0.82765 0.20186 0.63917 0.0
C880 C 0.79989 0.20687 0.6351 0.0
Eu881 Eu 0.82679 0.16342 0.65448 0.0
N882 N 0.79145 0.14605 0.65271 0.0
C883 C 0.77981 0.12585 0.65431 0.0
C884 C 0.75009 0.12774 0.65086 0.0
C885 C 0.75899 0.11645 0.65359 0.0
H886 H 0.84341 0.20728 0.6387 0.0
H887 H 0.74983 0.10055 0.65527 0.0
H888 H 0.73784 0.15339 0.64382 0.0
H889 H 0.83021 0.22826 0.62996 0.0
H890 H 0.78652 0.11701 0.65658 0.0
H891 H 0.92596 0.22666 0.6966 0.0
H892 H 0.73397 0.12044 0.65036 0.0
H893 H 0.82672 0.12277 0.7107 0.0
H894 H 0.88979 0.21163 0.69216 0.0
H895 H 0.83714 0.10108 0.72233 0.0
H896 H 0.75974 0.18819 0.63683 0.0
H897 H 0.93937 0.20605 0.70586 0.0
H898 H 0.9328 0.17296 0.71439 0.0
H899 H 0.79417 0.21608 0.63127 0.0
H900 H 0.9086 0.13872 0.72132 0.0
N901 N 0.88258 0.18254 0.69824 0.0
C902 C 0.89537 0.20238 0.69603 0.0
C903 C 0.92344 0.19928 0.70363 0.0
C904 C 0.91023 0.17917 0.70643 0.0
C905 C 0.91595 0.21098 0.69851 0.0
C906 C 0.88958 0.17118 0.70375 0.0
H907 H 0.87293 0.11195 0.72461 0.0
N908 N 0.85626 0.14539 0.70602 0.0
C909 C 0.84822 0.11532 0.7182 0.0
C910 C 0.876 0.152 0.70775 0.0
C911 C 0.84237 0.12764 0.7116 0.0
C912 C 0.86843 0.12148 0.71942 0.0
C913 C 0.88264 0.14017 0.71441 0.0
O914 O 0.83216 0.16378 0.71691 0.0
O915 O 0.82136 0.1617 0.68012 0.0
O916 O 0.82925 0.19075 0.66852 0.0
O917 O 0.85401 0.19782 0.68781 0.0
O918 O 0.81519 0.14298 0.69784 0.0
O919 O 0.85884 0.19231 0.71353 0.0
O920 O 0.83981 0.16888 0.63133 0.0
O921 O 0.85321 0.16921 0.66916 0.0
O922 O 0.84661 0.14051 0.68116 0.0
O923 O 0.82296 0.13329 0.66072 0.0
O924 O 0.85901 0.18738 0.65101 0.0
O925 O 0.81673 0.13861 0.63578 0.0
C926 C 0.80735 0.14757 0.68671 0.0
C927 C 0.8524 0.18262 0.73967 0.0
C928 C 0.84737 0.18423 0.76808 0.0
C929 C 0.84201 0.18493 0.75232 0.0
C930 C 0.86349 0.18133 0.77087 0.0
C931 C 0.86856 0.18004 0.74274 0.0
C932 C 0.87405 0.17941 0.75828 0.0
C933 C 0.84308 0.20305 0.67964 0.0
C934 C 0.84537 0.18176 0.72335 0.0
C935 C 0.9032 0.14765 0.71635 0.0
C936 C 0.91698 0.16714 0.71239 0.0
C937 C 0.86709 0.18314 0.66224 0.0
C938 C 0.81826 0.1478 0.60967 0.0
C939 C 0.82675 0.14492 0.59589 0.0
C940 C 0.81813 0.1433 0.58077 0.0
C941 C 0.80079 0.14456 0.57976 0.0
C942 C 0.8009 0.14879 0.60838 0.0
C943 C 0.79223 0.14717 0.59348 0.0
C944 C 0.83425 0.12862 0.66908 0.0
C945 C 0.82799 0.15028 0.62527 0.0
H946 H 0.82978 0.18729 0.74979 0.0
H947 H 0.8678 0.18022 0.78275 0.0
H948 H 0.8768 0.17836 0.73316 0.0
H949 H 0.88641 0.17719 0.76057 0.0
H950 H 0.84 0.14386 0.59702 0.0
H951 H 0.79399 0.14385 0.56837 0.0
H952 H 0.79409 0.15088 0.61884 0.0
H953 H 0.77891 0.14812 0.59256 0.0
H954 H 0.32371 0.81988 0.05757 0.0
H955 H 0.35354 0.84663 0.0465 0.0
H956 H 0.32088 0.87524 0.03412 0.0
H957 H 0.29089 0.84828 0.04477 0.0
H958 H 0.34341 0.87634 0.01084 0.0
H959 H 0.35372 0.89238 0.06768 0.0
H960 H 0.3566 0.88603 0.09539 0.0
H961 H 0.40473 0.87632 0.08405 0.0
H962 H 0.40203 0.88246 0.05626 0.0
H963 H 0.43111 0.98162 0.01978 0.0
H964 H 0.39918 0.95087 0.02294 0.0
H965 H 0.4253 0.91459 0.01042 0.0
H966 H 0.45763 0.94544 0.00803 0.0
H967 H 0.40637 0.91617 0.04424 0.0
H968 H 0.36844 0.8778 0.98472 0.0
H969 H 0.36194 0.88365 0.95766 0.0
H970 H 0.36727 0.93984 0.97566 0.0
H971 H 0.3731 0.93394 0.00282 0.0
C972 C 0.32287 0.83184 0.05245 0.0
C973 C 0.30495 0.83201 0.05213 0.0
C974 C 0.33996 0.84717 0.04617 0.0
C975 C 0.33955 0.86312 0.03966 0.0
C976 C 0.32157 0.8631 0.03907 0.0
C977 C 0.30445 0.8477 0.04522 0.0
C978 C 0.35787 0.88004 0.03367 0.0
C979 C 0.35716 0.88505 0.01819 0.0
C980 C 0.3759 0.89138 0.04316 0.0
C981 C 0.37752 0.88766 0.05986 0.0
C982 C 0.36482 0.88875 0.07108 0.0
C983 C 0.36646 0.88524 0.08681 0.0
C984 C 0.38083 0.88075 0.09148 0.0
C985 C 0.39362 0.87981 0.08043 0.0
C986 C 0.39205 0.88332 0.0647 0.0
C987 C 0.42987 0.96704 0.01721 0.0
C988 C 0.44672 0.96589 0.01332 0.0
C989 C 0.41156 0.94949 0.01884 0.0
C990 C 0.40969 0.93043 0.01638 0.0
C991 C 0.42632 0.92915 0.01193 0.0
C992 C 0.44476 0.94677 0.01052 0.0
C993 C 0.39175 0.91254 0.02156 0.0
C994 C 0.39264 0.90729 0.03689 0.0
C995 C 0.37382 0.90125 0.01206 0.0
C996 C 0.37183 0.90574 0.99572 0.0
C997 C 0.36841 0.89149 0.98285 0.0
C998 C 0.3646 0.89469 0.96753 0.0
C999 C 0.36424 0.91213 0.96493 0.0
C1000 C 0.36767 0.9264 0.97767 0.0
C1001 C 0.3713 0.92316 0.99303 0.0
H1002 H 0.36133 0.91461 0.95306 0.0
H1003 H 0.38207 0.87803 0.10366 0.0
H1004 H 0.13234 0.42159 0.05357 0.0
H1005 H 0.10831 0.4289 0.04213 0.0
H1006 H 0.15533 0.4904 0.038 0.0
H1007 H 0.17958 0.48325 0.04971 0.0
H1008 H 0.12384 0.48951 0.05092 0.0
H1009 H 0.1334 0.45655 0.00488 0.0
H1010 H 0.13594 0.42988 0.98898 0.0
H1011 H 0.07501 0.38652 0.99718 0.0
H1012 H 0.07217 0.41286 0.01333 0.0
H1013 H 0.05321 0.50784 0.01478 0.0
H1014 H 0.08252 0.50456 0.01782 0.0
H1015 H 0.04418 0.44106 0.02352 0.0
H1016 H 0.01481 0.44416 0.0197 0.0
H1017 H 0.07464 0.44642 0.00669 0.0
H1018 H 0.06703 0.47867 0.05571 0.0
H1019 H 0.06483 0.50537 0.07198 0.0
H1020 H 0.12249 0.55016 0.05793 0.0
H1021 H 0.12493 0.52376 0.04144 0.0
C1022 C 0.13768 0.43665 0.0501 0.0
C1023 C 0.15793 0.45184 0.05258 0.0
C1024 C 0.12388 0.44077 0.04346 0.0
C1025 C 0.12999 0.46015 0.03901 0.0
C1026 C 0.15025 0.47531 0.04128 0.0
C1027 C 0.16411 0.47118 0.04793 0.0
C1028 C 0.11494 0.4647 0.03291 0.0
C1029 C 0.11335 0.48034 0.04103 0.0
C1030 C 0.10101 0.45257 0.02016 0.0
C1031 C 0.10263 0.43667 0.01042 0.0
C1032 C 0.12058 0.4413 0.0034 0.0
C1033 C 0.12207 0.42624 0.99432 0.0
C1034 C 0.10566 0.40651 0.9921 0.0
C1035 C 0.08771 0.40181 0.99892 0.0
C1036 C 0.08615 0.41681 0.00802 0.0
C1037 C 0.05102 0.49308 0.01622 0.0
C1038 C 0.03171 0.47613 0.01662 0.0
C1039 C 0.06781 0.49126 0.01818 0.0
C1040 C 0.06562 0.47261 0.02112 0.0
C1041 C 0.0463 0.4556 0.02122 0.0
C1042 C 0.02953 0.45738 0.01909 0.0
C1043 C 0.08326 0.47085 0.02498 0.0
C1044 C 0.08533 0.45575 0.01643 0.0
C1045 C 0.09762 0.48345 0.03736 0.0
C1046 C 0.09609 0.49928 0.04725 0.0
C1047 C 0.07917 0.49423 0.05602 0.0
C1048 C 0.07789 0.5093 0.06528 0.0
C1049 C 0.09351 0.52943 0.06597 0.0
C1050 C 0.11041 0.53455 0.05737 0.0
C1051 C 0.11176 0.51955 0.04808 0.0
H1052 H 0.0926 0.54106 0.07321 0.0
H1053 H 0.10684 0.39488 0.98506 0.0
H1054 H 0.54704 0.72832 0.03244 0.0
H1055 H 0.53976 0.69449 0.02237 0.0
H1056 H 0.51868 0.67293 0.06784 0.0
H1057 H 0.526 0.70659 0.07802 0.0
H1058 H 0.54554 0.6629 0.05727 0.0
H1059 H 0.48626 0.65965 0.03607 0.0
H1060 H 0.46779 0.67121 0.02061 0.0
H1061 H 0.49517 0.66521 0.97834 0.0
H1062 H 0.51401 0.65386 0.99359 0.0
H1063 H 0.50555 0.55852 0.03944 0.0
H1064 H 0.50968 0.59164 0.04729 0.0
H1065 H 0.52307 0.60766 0.99932 0.0
H1066 H 0.51814 0.5742 0.9914 0.0
H1067 H 0.50098 0.62124 0.0103 0.0
H1068 H 0.56016 0.62473 0.03036 0.0
H1069 H 0.57949 0.61347 0.04504 0.0
H1070 H 0.55444 0.62031 0.08843 0.0
H1071 H 0.53472 0.63132 0.07397 0.0
C1072 C 0.54064 0.71631 0.04024 0.0
C1073 C 0.53718 0.72018 0.05606 0.0
C1074 C 0.53645 0.69698 0.03445 0.0
C1075 C 0.52865 0.68119 0.04436 0.0
C1076 C 0.52475 0.68491 0.06002 0.0
C1077 C 0.5289 0.70417 0.0658 0.0
C1078 C 0.52546 0.66102 0.03876 0.0
C1079 C 0.5356 0.65367 0.04712 0.0
C1080 C 0.51306 0.64932 0.02518 0.0
C1081 C 0.50169 0.6561 0.01601 0.0
C1082 C 0.48847 0.66096 0.02351 0.0
C1083 C 0.4779 0.66744 0.01477 0.0
C1084 C 0.48034 0.669 0.99851 0.0
C1085 C 0.49331 0.66403 0.99094 0.0
C1086 C 0.50392 0.65755 0.99962 0.0
C1087 C 0.50935 0.56914 0.0306 0.0
C1088 C 0.51149 0.56386 0.01481 0.0
C1089 C 0.51179 0.58808 0.03509 0.0
C1090 C 0.51709 0.60236 0.02397 0.0
C1091 C 0.51898 0.59694 0.00812 0.0
C1092 C 0.5161 0.5778 0.00357 0.0
C1093 C 0.52087 0.62297 0.02894 0.0
C1094 C 0.51095 0.63046 0.02044 0.0
C1095 C 0.53372 0.63497 0.04227 0.0
C1096 C 0.54585 0.6287 0.05106 0.0
C1097 C 0.5587 0.62374 0.04302 0.0
C1098 C 0.56973 0.6174 0.0513 0.0
C1099 C 0.56817 0.61614 0.06766 0.0
C1100 C 0.55563 0.62128 0.07577 0.0
C1101 C 0.54453 0.62759 0.06754 0.0
H1102 H 0.5767 0.6112 0.07404 0.0
H1103 H 0.47215 0.67402 0.99177 0.0
H1104 H 0.80985 0.31168 0.92593 0.0
H1105 H 0.84019 0.34307 0.93571 0.0
H1106 H 0.83341 0.3225 0.98239 0.0
H1107 H 0.80287 0.29097 0.97272 0.0
H1108 H 0.84685 0.36406 0.98291 0.0
H1109 H 0.86326 0.31594 0.95878 0.0
H1110 H 0.86206 0.2919 0.93718 0.0
H1111 H 0.88817 0.33944 0.90626 0.0
H1112 H 0.88926 0.36372 0.92763 0.0
H1113 H 0.9445 0.42722 0.01498 0.0
H1114 H 0.91352 0.39672 0.00502 0.0
H1115 H 0.92408 0.41602 0.9578 0.0
H1116 H 0.9554 0.44657 0.96781 0.0
H1117 H 0.90838 0.37576 0.95714 0.0
H1118 H 0.89361 0.42441 0.98115 0.0
H1119 H 0.89647 0.44913 0.00285 0.0
H1120 H 0.86757 0.40166 0.03357 0.0
H1121 H 0.86502 0.37669 0.01216 0.0
C1122 C 0.81461 0.31391 0.93834 0.0
C1123 C 0.80406 0.29871 0.94851 0.0
C1124 C 0.83198 0.33186 0.94389 0.0
C1125 C 0.83919 0.33495 0.9597 0.0
C1126 C 0.82811 0.32036 0.97013 0.0
C1127 C 0.81069 0.30234 0.96457 0.0
C1128 C 0.85901 0.35268 0.96498 0.0
C1129 C 0.86033 0.36653 0.9774 0.0
C1130 C 0.87652 0.3561 0.95753 0.0
C1131 C 0.87616 0.34159 0.94475 0.0
C1132 C 0.86862 0.32124 0.94734 0.0
C1133 C 0.86798 0.30757 0.93514 0.0
C1134 C 0.87498 0.31412 0.92034 0.0
C1135 C 0.88272 0.33438 0.91772 0.0
C1136 C 0.88337 0.3481 0.92987 0.0
C1137 C 0.94024 0.42498 0.00252 0.0
C1138 C 0.95211 0.43944 0.99226 0.0
C1139 C 0.92257 0.40751 0.9968 0.0
C1140 C 0.91624 0.40436 0.98074 0.0
C1141 C 0.92862 0.41824 0.97027 0.0
C1142 C 0.94649 0.43564 0.97598 0.0
C1143 C 0.89627 0.38712 0.97511 0.0
C1144 C 0.89491 0.37336 0.96262 0.0
C1145 C 0.87872 0.38389 0.98242 0.0
C1146 C 0.87923 0.39867 0.99507 0.0
C1147 C 0.88789 0.41923 0.99254 0.0
C1148 C 0.8895 0.4333 0.0048 0.0
C1149 C 0.88219 0.42696 0.01958 0.0
C1150 C 0.87322 0.40653 0.02211 0.0
C1151 C 0.87169 0.39241 0.00992 0.0
H1152 H 0.88343 0.43786 0.02905 0.0
H1153 H 0.87445 0.30352 0.91091 0.0
H1154 H 0.69333 0.51803 0.95826 0.0
H1155 H 0.66314 0.51349 0.97066 0.0
H1156 H 0.67269 0.56834 0.95284 0.0
H1157 H 0.70276 0.57304 0.9406 0.0
H1158 H 0.6633 0.56736 0.983 0.0
H1159 H 0.63773 0.52172 0.93548 0.0
H1160 H 0.63202 0.49322 0.9164 0.0
H1161 H 0.6051 0.45212 0.95214 0.0
H1162 H 0.61095 0.48044 0.97153 0.0
H1163 H 0.56894 0.55901 0.98695 0.0
H1164 H 0.60118 0.56281 0.98128 0.0
H1165 H 0.58149 0.50404 0.99712 0.0
H1166 H 0.54873 0.49969 0.00173 0.0
H1167 H 0.5968 0.50572 0.97054 0.0
H1168 H 0.62256 0.55247 0.01813 0.0
H1169 H 0.62818 0.58171 0.03647 0.0
H1170 H 0.65383 0.62098 0.99946 0.0
H1171 H 0.64852 0.59207 0.981 0.0
C1172 C 0.68901 0.52914 0.95702 0.0
C1173 C 0.70049 0.5459 0.94841 0.0
C1174 C 0.67169 0.52647 0.96405 0.0
C1175 C 0.66553 0.5405 0.9626 0.0
C1176 C 0.67711 0.55732 0.95416 0.0
C1177 C 0.69432 0.55995 0.94712 0.0
C1178 C 0.64716 0.53794 0.9699 0.0
C1179 C 0.64874 0.5539 0.98022 0.0
C1180 C 0.62818 0.52023 0.96658 0.0
C1181 C 0.62509 0.50326 0.95503 0.0
C1182 C 0.63085 0.50665 0.93934 0.0
C1183 C 0.62752 0.49052 0.92845 0.0
C1184 C 0.61829 0.47089 0.93307 0.0
C1185 C 0.61232 0.46734 0.94859 0.0
C1186 C 0.61565 0.48343 0.95954 0.0
C1187 C 0.57166 0.5471 0.98955 0.0
C1188 C 0.55639 0.52922 0.99507 0.0
C1189 C 0.59021 0.54934 0.98643 0.0
C1190 C 0.59408 0.53388 0.98901 0.0
C1191 C 0.57902 0.51628 0.99509 0.0
C1192 C 0.5603 0.51387 0.99792 0.0
C1193 C 0.61288 0.53518 0.9837 0.0
C1194 C 0.61139 0.51902 0.97363 0.0
C1195 C 0.63194 0.55276 0.98717 0.0
C1196 C 0.63494 0.5701 0.99819 0.0
C1197 C 0.62923 0.56733 0.01391 0.0
C1198 C 0.63243 0.58383 0.02432 0.0
C1199 C 0.6412 0.60312 0.01909 0.0
C1200 C 0.64698 0.60601 0.00348 0.0
C1201 C 0.64397 0.5896 0.99307 0.0
H1202 H 0.6436 0.61585 0.02716 0.0
H1203 H 0.61569 0.45841 0.92461 0.0
H1204 H 0.50977 0.19313 0.95719 0.0
H1205 H 0.51134 0.16396 0.96457 0.0
H1206 H 0.45101 0.13668 0.97963 0.0
H1207 H 0.44928 0.1657 0.97226 0.0
H1208 H 0.50684 0.14657 0.9927 0.0
H1209 H 0.42734 0.08604 0.96766 0.0
H1210 H 0.40273 0.08152 0.94688 0.0
H1211 H 0.45003 0.12373 0.91993 0.0
H1212 H 0.47492 0.12828 0.94044 0.0
H1213 H 0.48139 0.05342 0.02018 0.0
H1214 H 0.47849 0.08173 0.0129 0.0
H1215 H 0.48445 0.06705 0.96376 0.0
H1216 H 0.48711 0.03847 0.97107 0.0
H1217 H 0.45742 0.0786 0.96656 0.0
H1218 H 0.52455 0.10357 0.98676 0.0
H1219 H 0.54871 0.10596 0.00696 0.0
H1220 H 0.52867 0.13473 0.04127 0.0
H1221 H 0.50404 0.13211 0.02137 0.0
C1222 C 0.49688 0.18099 0.96218 0.0
C1223 C 0.47935 0.18167 0.96404 0.0
C1224 C 0.49784 0.16438 0.96643 0.0
C1225 C 0.48123 0.1481 0.97249 0.0
C1226 C 0.46392 0.149 0.97481 0.0
C1227 C 0.46298 0.16563 0.97062 0.0
C1228 C 0.48169 0.1298 0.97582 0.0
C1229 C 0.49606 0.13172 0.98699 0.0
C1230 C 0.46779 0.11047 0.96819 0.0
C1231 C 0.45296 0.10765 0.95567 0.0
C1232 C 0.43249 0.0943 0.95727 0.0
C1233 C 0.41849 0.09174 0.94554 0.0
C1234 C 0.42481 0.10238 0.93212 0.0
C1235 C 0.44515 0.11555 0.93037 0.0
C1236 C 0.4592 0.11815 0.94205 0.0
C1237 C 0.48212 0.05622 0.00788 0.0
C1238 C 0.48488 0.04399 0.99628 0.0
C1239 C 0.48036 0.07235 0.00369 0.0
C1240 C 0.48171 0.07676 0.98783 0.0
C1241 C 0.48346 0.06396 0.97609 0.0
C1242 C 0.48498 0.04765 0.98028 0.0
C1243 C 0.48231 0.09531 0.98364 0.0
C1244 C 0.4682 0.09345 0.97228 0.0
C1245 C 0.49665 0.11472 0.99091 0.0
C1246 C 0.51237 0.11755 0.00258 0.0
C1247 C 0.5253 0.11043 0.99861 0.0
C1248 C 0.53905 0.11178 0.01002 0.0
C1249 C 0.54021 0.12048 0.02539 0.0
C1250 C 0.52774 0.12799 0.02936 0.0
C1251 C 0.51388 0.12659 0.01801 0.0
H1252 H 0.55079 0.12142 0.03423 0.0
H1253 H 0.41395 0.10039 0.92306 0.0
H1254 H 0.69234 0.15887 0.95031 0.0
H1255 H 0.66429 0.12986 0.9612 0.0
H1256 H 0.62667 0.15428 0.95276 0.0
H1257 H 0.65454 0.18316 0.94147 0.0
H1258 H 0.6274 0.14212 0.98481 0.0
H1259 H 0.61797 0.11769 0.92994 0.0
H1260 H 0.62777 0.10965 0.90405 0.0
H1261 H 0.64053 0.06816 0.92453 0.0
H1262 H 0.63117 0.07625 0.95066 0.0
H1263 H 0.5352 0.05436 0.00129 0.0
H1264 H 0.5635 0.08559 0.99348 0.0
H1265 H 0.59671 0.05531 0.9856 0.0
H1266 H 0.568 0.02382 0.99272 0.0
H1267 H 0.59724 0.07137 0.96074 0.0
H1268 H 0.61585 0.10143 0.01549 0.0
H1269 H 0.61358 0.1143 0.04251 0.0
H1270 H 0.58664 0.14517 0.02345 0.0
H1271 H 0.58948 0.13306 0.99626 0.0
C1272 C 0.67808 0.15803 0.95071 0.0
C1273 C 0.67562 0.17327 0.94505 0.0
C1274 C 0.66208 0.14143 0.95688 0.0
C1275 C 0.64346 0.13996 0.95771 0.0
C1276 C 0.64096 0.15519 0.95216 0.0
C1277 C 0.65685 0.1716 0.9457 0.0
C1278 C 0.62682 0.12278 0.96485 0.0
C1279 C 0.62052 0.12663 0.97946 0.0
C1280 C 0.61837 0.10263 0.95803 0.0
C1281 C 0.62406 0.09775 0.94232 0.0
C1282 C 0.6231 0.10704 0.92899 0.0
C1283 C 0.62855 0.10245 0.91425 0.0
C1284 C 0.63483 0.08845 0.91265 0.0
C1285 C 0.63567 0.07901 0.92579 0.0
C1286 C 0.63029 0.0836 0.94057 0.0
C1287 C 0.54875 0.05454 0.99836 0.0
C1288 C 0.54942 0.03666 0.99754 0.0
C1289 C 0.56502 0.07248 0.99394 0.0
C1290 C 0.58234 0.07292 0.98886 0.0
C1291 C 0.58349 0.05539 0.98929 0.0
C1292 C 0.56714 0.03741 0.99344 0.0
C1293 C 0.59804 0.09051 0.98112 0.0
C1294 C 0.60405 0.08678 0.96621 0.0
C1295 C 0.60646 0.11079 0.98776 0.0
C1296 C 0.60257 0.11609 0.00393 0.0
C1297 C 0.60917 0.1107 0.0171 0.0
C1298 C 0.60798 0.11805 0.03242 0.0
C1299 C 0.59976 0.13037 0.03471 0.0
C1300 C 0.59288 0.13552 0.02167 0.0
C1301 C 0.59442 0.12856 0.0063 0.0
H1302 H 0.59879 0.13598 0.0466 0.0
H1303 H 0.63899 0.08487 0.90122 0.0
H1304 H 0.86231 0.56363 0.9553 0.0
H1305 H 0.88906 0.55827 0.96391 0.0
H1306 H 0.84949 0.49371 0.95492 0.0
H1307 H 0.82267 0.49895 0.94614 0.0
H1308 H 0.86893 0.50475 0.98433 0.0
H1309 H 0.88622 0.51693 0.93096 0.0
H1310 H 0.89413 0.53461 0.90667 0.0
H1311 H 0.94484 0.58649 0.93137 0.0
H1312 H 0.93706 0.56924 0.95589 0.0
H1313 H 0.94778 0.48429 0.9986 0.0
H1314 H 0.9186 0.48588 0.99035 0.0
H1315 H 0.95607 0.55041 0.98842 0.0
H1316 H 0.98531 0.54856 0.9958 0.0
H1317 H 0.93601 0.53615 0.96256 0.0
H1318 H 0.91071 0.52743 0.01716 0.0
H1319 H 0.89847 0.51102 0.04182 0.0
H1320 H 0.86316 0.45333 0.01473 0.0
H1321 H 0.87451 0.46962 0.98988 0.0
C1322 C 0.85932 0.54828 0.95504 0.0
C1323 C 0.84032 0.53171 0.95006 0.0
C1324 C 0.87467 0.54525 0.95989 0.0
C1325 C 0.87133 0.52559 0.95996 0.0
C1326 C 0.85242 0.50902 0.95491 0.0
C1327 C 0.83712 0.51205 0.94988 0.0
C1328 C 0.88725 0.52237 0.96618 0.0
C1329 C 0.88353 0.51137 0.97942 0.0
C1330 C 0.90639 0.53125 0.95997 0.0
C1331 C 0.91092 0.54185 0.94532 0.0
C1332 C 0.89892 0.5322 0.93127 0.0
C1333 C 0.90341 0.54213 0.91745 0.0
C1334 C 0.91994 0.56169 0.91749 0.0
C1335 C 0.93202 0.57136 0.93136 0.0
C1336 C 0.92758 0.5615 0.94522 0.0
C1337 C 0.94967 0.49887 0.9968 0.0
C1338 C 0.96882 0.51633 0.9978 0.0
C1339 C 0.9329 0.49982 0.99215 0.0
C1340 C 0.93494 0.5183 0.9887 0.0
C1341 C 0.95398 0.53591 0.9908 0.0
C1342 C 0.97072 0.53489 0.99511 0.0
C1343 C 0.91802 0.51919 0.98122 0.0
C1344 C 0.92147 0.52956 0.96756 0.0
C1345 C 0.89862 0.50978 0.98703 0.0
C1346 C 0.89374 0.49964 0.00177 0.0
C1347 C 0.90059 0.51121 0.01651 0.0
C1348 C 0.89363 0.50196 0.03049 0.0
C1349 C 0.88027 0.48109 0.02986 0.0
C1350 C 0.87363 0.46945 0.01522 0.0
C1351 C 0.88018 0.4787 0.00119 0.0
H1352 H 0.87497 0.47395 0.04071 0.0
H1353 H 0.92343 0.56933 0.90676 0.0
H1354 H 0.51737 0.31163 0.96487 0.0
H1355 H 0.51959 0.3429 0.97633 0.0
H1356 H 0.48485 0.34152 0.93594 0.0
H1357 H 0.48277 0.31055 0.92436 0.0
H1358 H 0.51628 0.379 0.94357 0.0
H1359 H 0.46383 0.32639 0.9712 0.0
H1360 H 0.44932 0.29755 0.98751 0.0
H1361 H 0.49279 0.33418 0.02546 0.0
H1362 H 0.50773 0.36317 0.00928 0.0
H1363 H 0.48078 0.44282 0.97255 0.0
H1364 H 0.48226 0.41294 0.96303 0.0
H1365 H 0.52273 0.42412 0.0026 0.0
H1366 H 0.52191 0.45435 0.01197 0.0
H1367 H 0.49102 0.383 0.99657 0.0
H1368 H 0.54238 0.43604 0.96983 0.0
H1369 H 0.55721 0.46512 0.9538 0.0
H1370 H 0.51644 0.4281 0.91446 0.0
H1371 H 0.50113 0.39886 0.93036 0.0
C1372 C 0.51023 0.31801 0.95844 0.0
C1373 C 0.49984 0.30857 0.94373 0.0
C1374 C 0.51146 0.33584 0.96501 0.0
C1375 C 0.50225 0.34445 0.95703 0.0
C1376 C 0.49209 0.33516 0.94228 0.0
C1377 C 0.49086 0.3174 0.93571 0.0
C1378 C 0.50294 0.36304 0.96401 0.0
C1379 C 0.51058 0.37979 0.95509 0.0
C1380 C 0.49602 0.36428 0.97923 0.0
C1381 C 0.48703 0.34687 0.98897 0.0
C1382 C 0.4704 0.32824 0.98298 0.0
C1383 C 0.46208 0.31188 0.99221 0.0
C1384 C 0.47017 0.31401 0.0075 0.0
C1385 C 0.48657 0.33253 0.01361 0.0
C1386 C 0.49496 0.34894 0.00442 0.0
C1387 C 0.48994 0.43893 0.9793 0.0
C1388 C 0.5011 0.45095 0.99312 0.0
C1389 C 0.49079 0.42186 0.9738 0.0
C1390 C 0.50266 0.41643 0.9821 0.0
C1391 C 0.51343 0.42807 0.99608 0.0
C1392 C 0.51284 0.4453 0.00145 0.0
C1393 C 0.50401 0.39872 0.976 0.0
C1394 C 0.49681 0.38219 0.98509 0.0
C1395 C 0.51137 0.39771 0.96096 0.0
C1396 C 0.52045 0.41529 0.95136 0.0
C1397 C 0.53642 0.43414 0.95782 0.0
C1398 C 0.54495 0.45066 0.94875 0.0
C1399 C 0.53772 0.44849 0.93314 0.0
C1400 C 0.52199 0.42978 0.92657 0.0
C1401 C 0.51339 0.41323 0.93561 0.0
H1402 H 0.54437 0.46128 0.92612 0.0
H1403 H 0.4637 0.30133 0.01463 0.0
H1404 H 0.20291 0.69375 0.05867 0.0
H1405 H 0.17354 0.66166 0.04825 0.0
H1406 H 0.13563 0.67714 0.07502 0.0
H1407 H 0.16486 0.70901 0.08568 0.0
H1408 H 0.12499 0.63886 0.07772 0.0
H1409 H 0.13904 0.68072 0.03498 0.0
H1410 H 0.15974 0.70326 0.01516 0.0
H1411 H 0.16905 0.65662 0.99384 0.0
H1412 H 0.14861 0.63389 0.01368 0.0
H1413 H 0.03232 0.56308 0.03848 0.0
H1414 H 0.06127 0.59533 0.04922 0.0
H1415 H 0.10006 0.58137 0.02216 0.0
H1416 H 0.07129 0.54945 0.01117 0.0
H1417 H 0.11006 0.61904 0.01987 0.0
H1418 H 0.09392 0.57634 0.06247 0.0
H1419 H 0.07216 0.55417 0.08205 0.0
H1420 H 0.06634 0.60273 0.10403 0.0
H1421 H 0.08747 0.62505 0.08426 0.0
C1422 C 0.18831 0.69035 0.06229 0.0
C1423 C 0.18623 0.70397 0.07297 0.0
C1424 C 0.17153 0.67202 0.0563 0.0
C1425 C 0.15235 0.66707 0.06076 0.0
C1426 C 0.15027 0.68062 0.07144 0.0
C1427 C 0.16701 0.69889 0.07747 0.0
C1428 C 0.13443 0.64773 0.05436 0.0
C1429 C 0.12157 0.6346 0.06507 0.0
C1430 C 0.13018 0.64204 0.03787 0.0
C1431 C 0.14247 0.65568 0.02592 0.0
C1432 C 0.14564 0.67533 0.02615 0.0
C1433 C 0.1573 0.68813 0.01489 0.0
C1434 C 0.16575 0.6814 0.00327 0.0
C1435 C 0.16252 0.66183 0.00286 0.0
C1436 C 0.15089 0.64898 0.0141 0.0
C1437 C 0.04702 0.56691 0.03482 0.0
C1438 C 0.04949 0.55376 0.02391 0.0
C1439 C 0.06356 0.5853 0.04102 0.0
C1440 C 0.08288 0.59068 0.03664 0.0
C1441 C 0.08532 0.57758 0.0257 0.0
C1442 C 0.06882 0.55932 0.0194 0.0
C1443 C 0.10061 0.61006 0.04321 0.0
C1444 C 0.11345 0.62323 0.03253 0.0
C1445 C 0.10476 0.61578 0.05975 0.0
C1446 C 0.09215 0.60234 0.07174 0.0
C1447 C 0.08787 0.58227 0.07137 0.0
C1448 C 0.07566 0.56967 0.08253 0.0
C1449 C 0.06793 0.57704 0.0943 0.0
C1450 C 0.07234 0.59703 0.09491 0.0
C1451 C 0.08439 0.60965 0.0837 0.0
H1452 H 0.05854 0.56727 0.10295 0.0
H1453 H 0.17477 0.69133 0.99456 0.0
H1454 H 0.30007 0.43656 0.0614 0.0
H1455 H 0.33222 0.44221 0.05265 0.0
H1456 H 0.35513 0.50638 0.055 0.0
H1457 H 0.32311 0.5009 0.06403 0.0
H1458 H 0.36088 0.49037 0.02615 0.0
H1459 H 0.37304 0.49085 0.08117 0.0
H1460 H 0.36723 0.47909 0.1079 0.0
H1461 H 0.36749 0.42558 0.09029 0.0
H1462 H 0.37297 0.43685 0.06336 0.0
H1463 H 0.46139 0.51542 0.01079 0.0
H1464 H 0.43015 0.51273 0.01884 0.0
H1465 H 0.40703 0.45045 0.0275 0.0
H1466 H 0.43857 0.45347 0.02011 0.0
H1467 H 0.40274 0.46856 0.05218 0.0
H1468 H 0.3799 0.46429 0.9962 0.0
H1469 H 0.38091 0.47497 0.96934 0.0
H1470 H 0.40114 0.53563 0.98927 0.0
H1471 H 0.39933 0.52503 0.01628 0.0
C1472 C 0.31201 0.4519 0.0602 0.0
C1473 C 0.30901 0.46828 0.06337 0.0
C1474 C 0.33041 0.45511 0.05528 0.0
C1475 C 0.34611 0.47473 0.05324 0.0
C1476 C 0.34323 0.49113 0.05654 0.0
C1477 C 0.32494 0.48797 0.06172 0.0
C1478 C 0.365 0.47789 0.04665 0.0
C1479 C 0.37022 0.48587 0.03197 0.0
C1480 C 0.37699 0.47172 0.05409 0.0
C1481 C 0.37317 0.4646 0.07018 0.0
C1482 C 0.37159 0.47644 0.08294 0.0
C1483 C 0.36842 0.46989 0.09814 0.0
C1484 C 0.36692 0.45156 0.10078 0.0
C1485 C 0.36861 0.43975 0.08822 0.0
C1486 C 0.37175 0.44622 0.07298 0.0
C1487 C 0.44942 0.50101 0.01399 0.0
C1488 C 0.45239 0.48464 0.01487 0.0
C1489 C 0.43146 0.49943 0.01855 0.0
C1490 C 0.41606 0.48136 0.02384 0.0
C1491 C 0.41865 0.46463 0.02363 0.0
C1492 C 0.43665 0.4663 0.01933 0.0
C1493 C 0.39832 0.4804 0.03131 0.0
C1494 C 0.39341 0.473 0.04631 0.0
C1495 C 0.38659 0.4871 0.02419 0.0
C1496 C 0.38979 0.49397 0.00815 0.0
C1497 C 0.3848 0.47995 0.99481 0.0
C1498 C 0.38528 0.48593 0.9796 0.0
C1499 C 0.3912 0.506 0.9776 0.0
C1500 C 0.39659 0.52011 0.99083 0.0
C1501 C 0.39568 0.5141 0.00608 0.0
H1502 H 0.39159 0.5106 0.9658 0.0
H1503 H 0.3645 0.44654 0.11257 0.0
H1504 H 0.50421 0.82482 0.07624 0.0
H1505 H 0.50173 0.85242 0.06657 0.0
H1506 H 0.54339 0.85919 0.03086 0.0
H1507 H 0.54645 0.83201 0.04085 0.0
H1508 H 0.5519 0.89479 0.04283 0.0
H1509 H 0.49216 0.83509 0.02188 0.0
H1510 H 0.46096 0.80218 0.02247 0.0
H1511 H 0.43675 0.83001 0.05353 0.0
H1512 H 0.46792 0.86304 0.0533 0.0
H1513 H 0.49018 0.93219 0.99803 0.0
H1514 H 0.49531 0.90547 0.00571 0.0
H1515 H 0.53374 0.94505 0.04566 0.0
H1516 H 0.52975 0.97237 0.0374 0.0
H1517 H 0.4856 0.88564 0.02977 0.0
H1518 H 0.56723 0.93248 0.05626 0.0
H1519 H 0.59845 0.96419 0.05226 0.0
H1520 H 0.57922 0.95976 0.00372 0.0
H1521 H 0.54801 0.9279 0.00738 0.0
C1522 C 0.51283 0.83217 0.06632 0.0
C1523 C 0.52545 0.82616 0.05925 0.0
C1524 C 0.51134 0.84791 0.06076 0.0
C1525 C 0.52214 0.85771 0.04782 0.0
C1526 C 0.5349 0.85187 0.04085 0.0
C1527 C 0.53658 0.83627 0.04653 0.0
C1528 C 0.5201 0.87404 0.04158 0.0
C1529 C 0.53741 0.89278 0.03995 0.0
C1530 C 0.50122 0.87134 0.0375 0.0
C1531 C 0.48245 0.8515 0.03769 0.0
C1532 C 0.48024 0.83416 0.02894 0.0
C1533 C 0.46255 0.81549 0.02919 0.0
C1534 C 0.4469 0.814 0.03806 0.0
C1535 C 0.4489 0.83118 0.04668 0.0
C1536 C 0.46656 0.84989 0.04648 0.0
C1537 C 0.50014 0.93545 0.00822 0.0
C1538 C 0.50986 0.95462 0.01689 0.0
C1539 C 0.50286 0.92001 0.01273 0.0
C1540 C 0.5151 0.92325 0.02617 0.0
C1541 C 0.52459 0.94228 0.03502 0.0
C1542 C 0.52218 0.95788 0.03034 0.0
C1543 C 0.5174 0.90649 0.03113 0.0
C1544 C 0.50012 0.88767 0.0326 0.0
C1545 C 0.53633 0.90893 0.03456 0.0
C1546 C 0.55521 0.92791 0.03215 0.0
C1547 C 0.56971 0.93823 0.04472 0.0
C1548 C 0.58739 0.95623 0.04251 0.0
C1549 C 0.59079 0.96401 0.02776 0.0
C1550 C 0.57654 0.95376 0.01516 0.0
C1551 C 0.55884 0.93574 0.0173 0.0
H1552 H 0.60448 0.97797 0.02608 0.0
H1553 H 0.43322 0.79953 0.03824 0.0
H1554 H 0.96864 0.21624 0.38315 0.0
H1555 H 0.00216 0.24049 0.37568 0.0
H1556 H 0.01911 0.19561 0.37781 0.0
H1557 H 0.98567 0.17136 0.38572 0.0
H1558 H 0.04813 0.23086 0.39066 0.0
H1559 H 0.009 0.20753 0.34206 0.0
H1560 H 0.98076 0.19887 0.32345 0.0
H1561 H 0.99612 0.26099 0.32764 0.0
H1562 H 0.02431 0.26999 0.34646 0.0
H1563 H 0.1366 0.28947 0.34964 0.0
H1564 H 0.1029 0.26173 0.35366 0.0
H1565 H 0.08423 0.30481 0.36493 0.0
H1566 H 0.11808 0.33269 0.36099 0.0
H1567 H 0.0568 0.2682 0.34342 0.0
H1568 H 0.09507 0.2897 0.39422 0.0
H1569 H 0.12463 0.29738 0.41082 0.0
H1570 H 0.11159 0.23644 0.40012 0.0
H1571 H 0.08208 0.22848 0.38326 0.0
C1572 C 0.9795 0.21152 0.38206 0.0
C1573 C 0.97448 0.19185 0.38494 0.0
C1574 C 0.99863 0.22537 0.37771 0.0
C1575 C 0.01304 0.21975 0.37589 0.0
C1576 C 0.0082 0.20024 0.37907 0.0
C1577 C 0.98908 0.18641 0.38357 0.0
C1578 C 0.03313 0.23433 0.37074 0.0
C1579 C 0.05 0.23877 0.38019 0.0
C1580 C 0.03563 0.24472 0.35709 0.0
C1581 C 0.01866 0.2394 0.3458 0.0
C1582 C 0.00626 0.21932 0.33912 0.0
C1583 C 0.99028 0.21436 0.32851 0.0
C1584 C 0.98662 0.22936 0.3244 0.0
C1585 C 0.99896 0.24938 0.33086 0.0
C1586 C 0.01496 0.25442 0.34148 0.0
C1587 C 0.1252 0.29298 0.3526 0.0
C1588 C 0.12968 0.3131 0.35465 0.0
C1589 C 0.10604 0.27716 0.35501 0.0
C1590 C 0.0912 0.28133 0.35957 0.0
C1591 C 0.09554 0.30139 0.36131 0.0
C1592 C 0.11477 0.31723 0.3591 0.0
C1593 C 0.07147 0.26489 0.36351 0.0
C1594 C 0.05478 0.26011 0.35381 0.0
C1595 C 0.06917 0.25398 0.37675 0.0
C1596 C 0.08649 0.25856 0.38734 0.0
C1597 C 0.09857 0.27797 0.39532 0.0
C1598 C 0.11533 0.28238 0.40477 0.0
C1599 C 0.12008 0.26746 0.40642 0.0
C1600 C 0.10795 0.24802 0.39876 0.0
C1601 C 0.09119 0.24354 0.38928 0.0
H1602 H 0.13306 0.2709 0.41373 0.0
H1603 H 0.97424 0.22549 0.31618 0.0
H1604 H 0.82098 0.7813 0.38255 0.0
H1605 H 0.79298 0.78327 0.37166 0.0
H1606 H 0.80781 0.83409 0.40581 0.0
H1607 H 0.83547 0.83195 0.41692 0.0
H1608 H 0.76961 0.80851 0.40528 0.0
H1609 H 0.81695 0.83926 0.36575 0.0
H1610 H 0.84066 0.84189 0.34563 0.0
H1611 H 0.79372 0.7896 0.31805 0.0
H1612 H 0.76977 0.78649 0.33813 0.0
H1613 H 0.71315 0.84149 0.35568 0.0
H1614 H 0.74358 0.84121 0.36187 0.0
H1615 H 0.70828 0.77804 0.36937 0.0
H1616 H 0.67771 0.77797 0.36231 0.0
H1617 H 0.75724 0.81147 0.34826 0.0
H1618 H 0.72858 0.78122 0.40816 0.0
H1619 H 0.70658 0.78253 0.42846 0.0
H1620 H 0.71998 0.84064 0.41556 0.0
H1621 H 0.7421 0.83969 0.3953 0.0
C1622 C 0.8184 0.79302 0.38764 0.0
C1623 C 0.83048 0.80644 0.40064 0.0
C1624 C 0.80239 0.79417 0.38137 0.0
C1625 C 0.79827 0.80889 0.38786 0.0
C1626 C 0.81058 0.82253 0.40063 0.0
C1627 C 0.82648 0.82133 0.40694 0.0
C1628 C 0.7807 0.80965 0.38186 0.0
C1629 C 0.76701 0.80915 0.3928 0.0
C1630 C 0.77724 0.81072 0.36559 0.0
C1631 C 0.79162 0.81251 0.35354 0.0
C1632 C 0.81172 0.82821 0.35547 0.0
C1633 C 0.8252 0.82981 0.34405 0.0
C1634 C 0.81871 0.81588 0.3306 0.0
C1635 C 0.79873 0.80035 0.3285 0.0
C1636 C 0.7852 0.79867 0.33989 0.0
C1637 C 0.71185 0.82737 0.35808 0.0
C1638 C 0.69305 0.80959 0.358 0.0
C1639 C 0.72928 0.82728 0.36172 0.0
C1640 C 0.72814 0.80959 0.36599 0.0
C1641 C 0.70943 0.7918 0.36597 0.0
C1642 C 0.69202 0.79179 0.36197 0.0
C1643 C 0.74635 0.81007 0.37167 0.0
C1644 C 0.75999 0.81073 0.3607 0.0
C1645 C 0.75006 0.80961 0.38793 0.0
C1646 C 0.73676 0.81024 0.40009 0.0
C1647 C 0.72679 0.79425 0.40967 0.0
C1648 C 0.7143 0.79493 0.42116 0.0
C1649 C 0.71178 0.8116 0.42324 0.0
C1650 C 0.72179 0.82765 0.41386 0.0
C1651 C 0.73426 0.82702 0.40234 0.0
H1652 H 0.70213 0.81212 0.43216 0.0
H1653 H 0.82917 0.81715 0.32177 0.0
H1654 H 0.1998 0.05602 0.36767 0.0
H1655 H 0.18876 0.02067 0.35907 0.0
H1656 H 0.23979 0.02679 0.38466 0.0
H1657 H 0.25106 0.06207 0.39306 0.0
H1658 H 0.23316 0.00544 0.35645 0.0
H1659 H 0.19389 0.00537 0.40042 0.0
H1660 H 0.17093 0.01337 0.4146 0.0
H1661 H 0.12608 0.98065 0.37674 0.0
H1662 H 0.14889 0.97268 0.36224 0.0
H1663 H 0.20472 0.90558 0.36841 0.0
H1664 H 0.2133 0.94077 0.37287 0.0
H1665 H 0.16087 0.92669 0.34456 0.0
H1666 H 0.15186 0.89127 0.34034 0.0
H1667 H 0.16666 0.95175 0.37138 0.0
H1668 H 0.20512 0.94907 0.3286 0.0
H1669 H 0.22781 0.94001 0.31526 0.0
H1670 H 0.27415 0.97744 0.35113 0.0
H1671 H 0.25161 0.98647 0.36485 0.0
C1672 C 0.20876 0.04988 0.37134 0.0
C1673 C 0.22623 0.06183 0.38115 0.0
C1674 C 0.20239 0.02966 0.36647 0.0
C1675 C 0.21332 0.02102 0.3714 0.0
C1676 C 0.23112 0.03313 0.38072 0.0
C1677 C 0.23749 0.0533 0.38556 0.0
C1678 C 0.206 0.99921 0.36742 0.0
C1679 C 0.21867 0.99371 0.3598 0.0
C1680 C 0.1869 0.98388 0.37145 0.0
C1681 C 0.17318 0.98864 0.38017 0.0
C1682 C 0.17919 2e-05 0.39507 0.0
C1683 C 0.1662 0.00453 0.40317 0.0
C1684 C 0.14708 0.99758 0.39655 0.0
C1685 C 0.1409 0.98606 0.38184 0.0
C1686 C 0.15386 0.98154 0.37368 0.0
C1687 C 0.19491 0.90989 0.36321 0.0
C1688 C 0.17779 0.89568 0.35377 0.0
C1689 C 0.1999 0.93004 0.36571 0.0
C1690 C 0.18792 0.9364 0.35879 0.0
C1691 C 0.1704 0.92212 0.34989 0.0
C1692 C 0.16537 0.90193 0.3474 0.0
C1693 C 0.19395 0.95804 0.36068 0.0
C1694 C 0.18105 0.96349 0.36787 0.0
C1695 C 0.21284 0.97332 0.35626 0.0
C1696 C 0.22662 0.96835 0.34782 0.0
C1697 C 0.22011 0.9553 0.33369 0.0
C1698 C 0.23295 0.95017 0.32606 0.0
C1699 C 0.2524 0.95812 0.33236 0.0
C1700 C 0.25907 0.97129 0.34627 0.0
C1701 C 0.24628 0.97644 0.35397 0.0
H1702 H 0.2623 0.9541 0.32645 0.0
H1703 H 0.13704 0.00108 0.40284 0.0
H1704 H 0.47606 0.61057 0.3064 0.0
H1705 H 0.50275 0.64484 0.31599 0.0
H1706 H 0.53057 0.65056 0.27131 0.0
H1707 H 0.50408 0.6164 0.26166 0.0
H1708 H 0.55736 0.66322 0.297 0.0
H1709 H 0.50466 0.67352 0.2791 0.0
H1710 H 0.4705 0.66763 0.27826 0.0
H1711 H 0.47677 0.68638 0.32813 0.0
H1712 H 0.51089 0.69212 0.32931 0.0
H1713 H 0.62853 0.768 0.30799 0.0
H1714 H 0.60143 0.73458 0.29751 0.0
H1715 H 0.56755 0.73249 0.33817 0.0
H1716 H 0.59374 0.76644 0.34798 0.0
H1717 H 0.54361 0.71759 0.31421 0.0
H1718 H 0.59504 0.70654 0.33319 0.0
H1719 H 0.62901 0.71202 0.33522 0.0
H1720 H 0.62497 0.69376 0.28543 0.0
H1721 H 0.59107 0.68843 0.28306 0.0
C1722 C 0.48785 0.61913 0.29862 0.0
C1723 C 0.48794 0.61078 0.28327 0.0
C1724 C 0.50304 0.63872 0.30409 0.0
C1725 C 0.51854 0.65026 0.2943 0.0
C1726 C 0.51874 0.64189 0.27904 0.0
C1727 C 0.50354 0.62238 0.27354 0.0
C1728 C 0.5347 0.67101 0.29997 0.0
C1729 C 0.55443 0.6752 0.30061 0.0
C1730 C 0.53074 0.68644 0.30505 0.0
C1731 C 0.51026 0.68306 0.30432 0.0
C1732 C 0.4987 0.67623 0.28991 0.0
C1733 C 0.47936 0.67295 0.28937 0.0
C1734 C 0.47145 0.67658 0.30315 0.0
C1735 C 0.4829 0.68355 0.31748 0.0
C1736 C 0.50225 0.68684 0.31809 0.0
C1737 C 0.61531 0.76045 0.3147 0.0
C1738 C 0.61358 0.76978 0.32906 0.0
C1739 C 0.59986 0.74123 0.30874 0.0
C1740 C 0.58261 0.7307 0.31725 0.0
C1741 C 0.58073 0.74017 0.33142 0.0
C1742 C 0.59591 0.75956 0.33715 0.0
C1743 C 0.56642 0.7099 0.3114 0.0
C1744 C 0.54664 0.70566 0.31067 0.0
C1745 C 0.57031 0.69433 0.30648 0.0
C1746 C 0.59059 0.69727 0.30793 0.0
C1747 C 0.60144 0.7038 0.32266 0.0
C1748 C 0.62068 0.70687 0.32387 0.0
C1749 C 0.62916 0.70329 0.31046 0.0
C1750 C 0.61839 0.69655 0.29581 0.0
C1751 C 0.59916 0.69349 0.29453 0.0
H1752 H 0.64406 0.70569 0.31142 0.0
H1753 H 0.45648 0.67403 0.3027 0.0
H1754 H 0.35809 0.84833 0.29673 0.0
H1755 H 0.32838 0.84395 0.30989 0.0
H1756 H 0.33299 0.89429 0.28753 0.0
H1757 H 0.36258 0.89886 0.27454 0.0
H1758 H 0.32612 0.89675 0.31845 0.0
H1759 H 0.2988 0.84461 0.27394 0.0
H1760 H 0.29397 0.81416 0.25797 0.0
H1761 H 0.27261 0.77999 0.29834 0.0
H1762 H 0.27748 0.81029 0.31458 0.0
H1763 H 0.23262 0.88844 0.32343 0.0
H1764 H 0.26431 0.89133 0.31733 0.0
H1765 H 0.24446 0.83337 0.3349 0.0
H1766 H 0.21189 0.82964 0.33949 0.0
H1767 H 0.26034 0.83323 0.30988 0.0
H1768 H 0.28736 0.8836 0.35468 0.0
H1769 H 0.29291 0.91356 0.37199 0.0
H1770 H 0.31539 0.95014 0.33303 0.0
H1771 H 0.31011 0.92044 0.31561 0.0
C1772 C 0.35279 0.85848 0.29466 0.0
C1773 C 0.36273 0.87393 0.28456 0.0
C1774 C 0.33575 0.8559 0.30213 0.0
C1775 C 0.32834 0.8687 0.29961 0.0
C1776 C 0.33841 0.88424 0.28968 0.0
C1777 C 0.35533 0.88679 0.28222 0.0
C1778 C 0.31021 0.86622 0.30728 0.0
C1779 C 0.3117 0.88288 0.31652 0.0
C1780 C 0.29152 0.84792 0.30528 0.0
C1781 C 0.28874 0.82977 0.29552 0.0
C1782 C 0.29324 0.83065 0.27944 0.0
C1783 C 0.29044 0.8134 0.27033 0.0
C1784 C 0.28303 0.79516 0.27714 0.0
C1785 C 0.27836 0.79412 0.29307 0.0
C1786 C 0.28112 0.81132 0.30223 0.0
C1787 C 0.23515 0.87646 0.32622 0.0
C1788 C 0.21991 0.85902 0.33228 0.0
C1789 C 0.25345 0.87823 0.32292 0.0
C1790 C 0.25723 0.86283 0.326 0.0
C1791 C 0.24212 0.84558 0.33247 0.0
C1792 C 0.22354 0.84354 0.33532 0.0
C1793 C 0.27607 0.86392 0.32097 0.0
C1794 C 0.27476 0.84702 0.31214 0.0
C1795 C 0.29502 0.88192 0.32353 0.0
C1796 C 0.29809 0.89978 0.33386 0.0
C1797 C 0.2933 0.89802 0.34983 0.0
C1798 C 0.29649 0.91495 0.35965 0.0
C1799 C 0.30434 0.93369 0.35357 0.0
C1800 C 0.30924 0.9356 0.33771 0.0
C1801 C 0.30626 0.91875 0.32789 0.0
H1802 H 0.30672 0.94676 0.36118 0.0
H1803 H 0.28086 0.78181 0.27007 0.0
H1804 H 0.12301 0.49722 0.29737 0.0
H1805 H 0.12654 0.4698 0.30606 0.0
H1806 H 0.19058 0.50701 0.30473 0.0
H1807 H 0.18705 0.53422 0.29537 0.0
H1808 H 0.17955 0.47087 0.29265 0.0
H1809 H 0.16513 0.49745 0.34047 0.0
H1810 H 0.14643 0.50853 0.35761 0.0
H1811 H 0.09476 0.44866 0.35118 0.0
H1812 H 0.11307 0.43728 0.33384 0.0
H1813 H 0.20056 0.41144 0.34177 0.0
H1814 H 0.19684 0.43941 0.33441 0.0
H1815 H 0.13586 0.39708 0.31786 0.0
H1816 H 0.13956 0.36893 0.32475 0.0
H1817 H 0.14585 0.4357 0.3396 0.0
H1818 H 0.1608 0.41022 0.29059 0.0
H1819 H 0.1806 0.39946 0.27458 0.0
H1820 H 0.23283 0.4584 0.28483 0.0
H1821 H 0.21337 0.46942 0.30111 0.0
C1822 C 0.13785 0.4996 0.299 0.0
C1823 C 0.15476 0.51791 0.29576 0.0
C1824 C 0.13987 0.48393 0.30405 0.0
C1825 C 0.15886 0.48642 0.30634 0.0
C1826 C 0.17577 0.50471 0.30308 0.0
C1827 C 0.17375 0.52028 0.29778 0.0
C1828 C 0.16105 0.46981 0.31184 0.0
C1829 C 0.17238 0.46343 0.30305 0.0
C1830 C 0.15147 0.45977 0.32527 0.0
C1831 C 0.14043 0.46656 0.33573 0.0
C1832 C 0.14974 0.48668 0.34262 0.0
C1833 C 0.13921 0.49301 0.35239 0.0
C1834 C 0.1194 0.47932 0.35545 0.0
C1835 C 0.11009 0.45925 0.34879 0.0
C1836 C 0.12055 0.45285 0.339 0.0
C1837 C 0.1863 0.40809 0.33667 0.0
C1838 C 0.17036 0.38799 0.33376 0.0
C1839 C 0.18424 0.42406 0.33246 0.0
C1840 C 0.16611 0.4202 0.32556 0.0
C1841 C 0.14995 0.40026 0.32316 0.0
C1842 C 0.15213 0.38424 0.32705 0.0
C1843 C 0.16422 0.43696 0.3204 0.0
C1844 C 0.15299 0.4433 0.32924 0.0
C1845 C 0.17402 0.44707 0.30714 0.0
C1846 C 0.18569 0.44056 0.29722 0.0
C1847 C 0.17655 0.42082 0.28956 0.0
C1848 C 0.1877 0.41468 0.28041 0.0
C1849 C 0.20798 0.42821 0.27875 0.0
C1850 C 0.21713 0.44793 0.28617 0.0
C1851 C 0.20604 0.45413 0.29534 0.0
H1852 H 0.21659 0.42344 0.27166 0.0
H1853 H 0.11128 0.48425 0.36302 0.0
H1854 H 0.34672 0.52259 0.29588 0.0
H1855 H 0.31926 0.49217 0.30587 0.0
H1856 H 0.35341 0.46269 0.30062 0.0
H1857 H 0.38109 0.49315 0.29099 0.0
H1858 H 0.31248 0.44125 0.28532 0.0
H1859 H 0.34908 0.47482 0.33523 0.0
H1860 H 0.36566 0.50316 0.35621 0.0
H1861 H 0.31048 0.50159 0.36308 0.0
H1862 H 0.29364 0.47346 0.34193 0.0
H1863 H 0.24071 0.35152 0.31734 0.0
H1864 H 0.27297 0.38154 0.31289 0.0
H1865 H 0.24977 0.41993 0.32786 0.0
H1866 H 0.21787 0.39022 0.33228 0.0
H1867 H 0.28717 0.43627 0.3394 0.0
H1868 H 0.25129 0.40815 0.28913 0.0
H1869 H 0.23248 0.38141 0.26735 0.0
H1870 H 0.28325 0.37476 0.26 0.0
H1871 H 0.30229 0.40131 0.28191 0.0
C1872 C 0.34844 0.5097 0.29702 0.0
C1873 C 0.36602 0.51022 0.29265 0.0
C1874 C 0.33281 0.4924 0.30276 0.0
C1875 C 0.33442 0.4753 0.304 0.0
C1876 C 0.35198 0.47581 0.29978 0.0
C1877 C 0.36776 0.49322 0.29433 0.0
C1878 C 0.31728 0.45646 0.30879 0.0
C1879 C 0.30714 0.43998 0.29722 0.0
C1880 C 0.31001 0.45521 0.32416 0.0
C1881 C 0.32016 0.47219 0.33684 0.0
C1882 C 0.34053 0.48067 0.34107 0.0
C1883 C 0.34997 0.49667 0.35303 0.0
C1884 C 0.33915 0.50422 0.36093 0.0
C1885 C 0.31886 0.49576 0.35692 0.0
C1886 C 0.30936 0.47978 0.34495 0.0
C1887 C 0.24269 0.36643 0.31986 0.0
C1888 C 0.22701 0.36862 0.32554 0.0
C1889 C 0.26103 0.38351 0.31729 0.0
C1890 C 0.26372 0.40295 0.32001 0.0
C1891 C 0.24809 0.4051 0.32583 0.0
C1892 C 0.22985 0.38808 0.32843 0.0
C1893 C 0.28233 0.42104 0.31593 0.0
C1894 C 0.29267 0.43741 0.32757 0.0
C1895 C 0.28949 0.42245 0.30049 0.0
C1896 C 0.27813 0.40654 0.28728 0.0
C1897 C 0.25839 0.40087 0.28296 0.0
C1898 C 0.24769 0.38577 0.27057 0.0
C1899 C 0.25664 0.37635 0.26233 0.0
C1900 C 0.27632 0.38205 0.26642 0.0
C1901 C 0.28708 0.39713 0.27882 0.0
H1902 H 0.24834 0.36467 0.25274 0.0
H1903 H 0.34648 0.51659 0.3702 0.0
H1904 H 0.52212 0.896 0.29475 0.0
H1905 H 0.54886 0.89107 0.30415 0.0
H1906 H 0.512 0.82693 0.29075 0.0
H1907 H 0.48517 0.83173 0.28129 0.0
H1908 H 0.52932 0.83513 0.32065 0.0
H1909 H 0.55048 0.85525 0.26899 0.0
H1910 H 0.55922 0.87683 0.24695 0.0
H1911 H 0.6065 0.92656 0.27637 0.0
H1912 H 0.59787 0.90535 0.29867 0.0
H1913 H 0.60813 0.81472 0.33317 0.0
H1914 H 0.57942 0.81708 0.32513 0.0
H1915 H 0.61693 0.88217 0.32766 0.0
H1916 H 0.6459 0.87953 0.33446 0.0
H1917 H 0.59795 0.87143 0.30184 0.0
H1918 H 0.56674 0.85458 0.35496 0.0
H1919 H 0.55322 0.83424 0.37766 0.0
H1920 H 0.52553 0.77964 0.346 0.0
H1921 H 0.5379 0.79983 0.32305 0.0
C1922 C 0.51972 0.88085 0.29373 0.0
C1923 C 0.50149 0.86426 0.28726 0.0
C1924 C 0.53507 0.87807 0.29904 0.0
C1925 C 0.53251 0.85864 0.29805 0.0
C1926 C 0.51433 0.84205 0.2916 0.0
C1927 C 0.49903 0.84484 0.28617 0.0
C1928 C 0.54855 0.85559 0.30425 0.0
C1929 C 0.54429 0.84289 0.3164 0.0
C1930 C 0.56816 0.86595 0.29894 0.0
C1931 C 0.5734 0.87875 0.28555 0.0
C1932 C 0.56263 0.87084 0.27081 0.0
C1933 C 0.56759 0.883 0.25825 0.0
C1934 C 0.58337 0.90307 0.26027 0.0
C1935 C 0.59426 0.91102 0.27483 0.0
C1936 C 0.58936 0.89892 0.28743 0.0
C1937 C 0.61011 0.82954 0.33241 0.0
C1938 C 0.62922 0.84697 0.3345 0.0
C1939 C 0.59357 0.83094 0.32792 0.0
C1940 C 0.59572 0.84985 0.32588 0.0
C1941 C 0.61472 0.86734 0.32899 0.0
C1942 C 0.6313 0.86588 0.33298 0.0
C1943 C 0.57902 0.85145 0.31877 0.0
C1944 C 0.58307 0.86374 0.30624 0.0
C1945 C 0.55922 0.84081 0.32377 0.0
C1946 C 0.55361 0.82862 0.33741 0.0
C1947 C 0.55799 0.83823 0.3529 0.0
C1948 C 0.55032 0.82675 0.36577 0.0
C1949 C 0.53875 0.80564 0.3633 0.0
C1950 C 0.53458 0.79598 0.34792 0.0
C1951 C 0.54173 0.80743 0.33497 0.0
H1952 H 0.53292 0.79678 0.37331 0.0
H1953 H 0.58719 0.91246 0.25053 0.0
H1954 H 0.18561 0.65714 0.27235 0.0
H1955 H 0.18456 0.68734 0.28122 0.0
H1956 H 0.15886 0.66153 0.32455 0.0
H1957 H 0.15921 0.63086 0.31547 0.0
H1958 H 0.13897 0.6764 0.31297 0.0
H1959 H 0.20859 0.70195 0.32304 0.0
H1960 H 0.24258 0.70969 0.31728 0.0
H1961 H 0.24466 0.74601 0.28069 0.0
H1962 H 0.2106 0.73832 0.28612 0.0
H1963 H 0.15555 0.76903 0.35365 0.0
H1964 H 0.15675 0.73864 0.34525 0.0
H1965 H 0.16936 0.75735 0.29795 0.0
H1966 H 0.16817 0.78785 0.30639 0.0
H1967 H 0.19606 0.74656 0.31188 0.0
H1968 H 0.12596 0.7205 0.30234 0.0
H1969 H 0.09266 0.71376 0.30944 0.0
H1970 H 0.09247 0.67901 0.34662 0.0
H1971 H 0.12593 0.68581 0.3399 0.0
C1972 C 0.17995 0.65796 0.28387 0.0
C1973 C 0.17248 0.64157 0.29321 0.0
C1974 C 0.17945 0.67531 0.28896 0.0
C1975 C 0.17183 0.67686 0.30365 0.0
C1976 C 0.16479 0.6607 0.31317 0.0
C1977 C 0.16507 0.6432 0.30799 0.0
C1978 C 0.17023 0.69483 0.30864 0.0
C1979 C 0.15158 0.69172 0.31298 0.0
C1980 C 0.18651 0.71489 0.30829 0.0
C1981 C 0.20694 0.71938 0.30489 0.0
C1982 C 0.21622 0.71144 0.31367 0.0
C1983 C 0.23553 0.71586 0.31049 0.0
C1984 C 0.24576 0.7283 0.29861 0.0
C1985 C 0.23671 0.73637 0.28989 0.0
C1986 C 0.21742 0.73201 0.29303 0.0
C1987 C 0.15861 0.76667 0.34151 0.0
C1988 C 0.16198 0.78081 0.33072 0.0
C1989 C 0.15913 0.74925 0.33668 0.0
C1990 C 0.16319 0.74583 0.321 0.0
C1991 C 0.16623 0.75978 0.31011 0.0
C1992 C 0.1654 0.77706 0.3149 0.0
C1993 C 0.16491 0.72799 0.31616 0.0
C1994 C 0.18355 0.73118 0.31187 0.0
C1995 C 0.14871 0.70804 0.31671 0.0
C1996 C 0.12854 0.70384 0.32072 0.0
C1997 C 0.1189 0.71157 0.31213 0.0
C1998 C 0.09998 0.70771 0.31606 0.0
C1999 C 0.09048 0.69601 0.3285 0.0
C2000 C 0.09986 0.6881 0.337 0.0
C2001 C 0.1188 0.69194 0.33313 0.0
H2002 H 0.07583 0.69303 0.33153 0.0
H2003 H 0.26071 0.73173 0.29618 0.0
H2004 H 0.8079 0.03794 0.43208 0.0
H2005 H 0.78159 0.00415 0.42127 0.0
H2006 H 0.82606 0.98968 0.40697 0.0
H2007 H 0.8525 0.02344 0.41777 0.0
H2008 H 0.79865 0.98213 0.38261 0.0
H2009 H 0.79815 0.96724 0.43647 0.0
H2010 H 0.79689 0.97261 0.46543 0.0
H2011 H 0.73882 0.96516 0.45926 0.0
H2012 H 0.73984 0.96003 0.43022 0.0
H2013 H 0.73008 0.88037 0.35486 0.0
H2014 H 0.75726 0.91103 0.36909 0.0
H2015 H 0.71471 0.9246 0.39007 0.0
H2016 H 0.68732 0.89332 0.37642 0.0
H2017 H 0.74219 0.93199 0.41157 0.0
H2018 H 0.74332 0.9492 0.35796 0.0
H2019 H 0.74412 0.94381 0.32893 0.0
H2020 H 0.80053 0.94737 0.33454 0.0
H2021 H 0.79998 0.95259 0.36363 0.0
C2022 C 0.81208 0.02747 0.42683 0.0
C2023 C 0.83227 0.03339 0.42568 0.0
C2024 C 0.79703 0.00816 0.42071 0.0
C2025 C 0.80191 0.99445 0.41332 0.0
C2026 C 0.82202 8e-05 0.41261 0.0
C2027 C 0.83709 0.01933 0.41885 0.0
C2028 C 0.78605 0.97479 0.40541 0.0
C2029 C 0.78646 0.971 0.38897 0.0
C2030 C 0.76993 0.96058 0.41367 0.0
C2031 C 0.76917 0.96346 0.43115 0.0
C2032 C 0.78518 0.96692 0.44127 0.0
C2033 C 0.78451 0.96991 0.4577 0.0
C2034 C 0.76784 0.96935 0.46417 0.0
C2035 C 0.75176 0.96568 0.45422 0.0
C2036 C 0.75236 0.96269 0.43778 0.0
C2037 C 0.72649 0.88994 0.36242 0.0
C2038 C 0.70656 0.88453 0.36443 0.0
C2039 C 0.74207 0.9075 0.37054 0.0
C2040 C 0.73807 0.92033 0.38046 0.0
C2041 C 0.71816 0.91495 0.38248 0.0
C2042 C 0.70253 0.89714 0.3746 0.0
C2043 C 0.75465 0.93937 0.38871 0.0
C2044 C 0.7544 0.94308 0.4052 0.0
C2045 C 0.77086 0.95362 0.38048 0.0
C2046 C 0.77154 0.95114 0.36297 0.0
C2047 C 0.75588 0.94879 0.353 0.0
C2048 C 0.75628 0.94577 0.33654 0.0
C2049 C 0.77235 0.94521 0.3299 0.0
C2050 C 0.7881 0.9478 0.3397 0.0
C2051 C 0.78776 0.95083 0.35618 0.0
H2052 H 0.77259 0.94278 0.31716 0.0
H2053 H 0.76733 0.97163 0.4769 0.0
H2054 H 0.95488 0.76034 0.38479 0.0
H2055 H 0.98629 0.76443 0.37578 0.0
H2056 H 0.017 0.82763 0.39332 0.0
H2057 H 0.98567 0.82351 0.40272 0.0
H2058 H 0.00951 0.78526 0.3545 0.0
H2059 H 0.06631 0.84429 0.40375 0.0
H2060 H 0.0679 0.85389 0.43246 0.0
H2061 H 0.01951 0.79415 0.43877 0.0
H2062 H 0.01786 0.78408 0.41017 0.0
H2063 H 0.12259 0.84311 0.34825 0.0
H2064 H 0.08884 0.83646 0.35302 0.0
H2065 H 0.07138 0.77673 0.36519 0.0
H2066 H 0.10464 0.78286 0.35961 0.0
H2067 H 0.07215 0.81671 0.38828 0.0
H2068 H 0.04508 0.76249 0.34449 0.0
H2069 H 0.03901 0.74659 0.31706 0.0
H2070 H 0.024 0.78907 0.30177 0.0
H2071 H 0.03067 0.80566 0.32909 0.0
C2072 C 0.96833 0.7751 0.38683 0.0
C2073 C 0.96773 0.79159 0.39451 0.0
C2074 C 0.98631 0.77744 0.38162 0.0
C2075 C 0.00413 0.79631 0.38393 0.0
C2076 C 0.00357 0.81282 0.39161 0.0
C2077 C 0.9856 0.81046 0.39692 0.0
C2078 C 0.0231 0.79876 0.37788 0.0
C2079 C 0.02319 0.79214 0.36194 0.0
C2080 C 0.041 0.8076 0.38754 0.0
C2081 C 0.04177 0.81354 0.40476 0.0
C2082 C 0.05602 0.8332 0.41126 0.0
C2083 C 0.05694 0.83872 0.42752 0.0
C2084 C 0.04373 0.82467 0.43741 0.0
C2085 C 0.02964 0.80505 0.43108 0.0
C2086 C 0.02869 0.79944 0.41484 0.0
C2087 C 0.1113 0.82827 0.35126 0.0
C2088 C 0.11611 0.8133 0.35317 0.0
C2089 C 0.09205 0.82451 0.35405 0.0
C2090 C 0.07742 0.8059 0.35906 0.0
C2091 C 0.08218 0.79093 0.36081 0.0
C2092 C 0.10124 0.79452 0.35774 0.0
C2093 C 0.05846 0.80327 0.36498 0.0
C2094 C 0.05847 0.81002 0.38087 0.0
C2095 C 0.04051 0.79402 0.35543 0.0
C2096 C 0.03896 0.78569 0.33876 0.0
C2097 C 0.04116 0.76888 0.33521 0.0
C2098 C 0.03736 0.75957 0.31971 0.0
C2099 C 0.0311 0.76679 0.30767 0.0
C2100 C 0.02884 0.78348 0.3111 0.0
C2101 C 0.03278 0.79293 0.32656 0.0
H2102 H 0.02806 0.75949 0.2957 0.0
H2103 H 0.04445 0.82898 0.44999 0.0
H2104 H 0.16117 0.14214 0.38673 0.0
H2105 H 0.15943 0.1705 0.37742 0.0
H2106 H 0.2237 0.20639 0.37901 0.0
H2107 H 0.22559 0.17797 0.38789 0.0
H2108 H 0.20057 0.22487 0.39465 0.0
H2109 H 0.20634 0.191 0.34572 0.0
H2110 H 0.19604 0.1612 0.32652 0.0
H2111 H 0.13761 0.15303 0.3208 0.0
H2112 H 0.14749 0.18263 0.34016 0.0
H2113 H 0.21536 0.30874 0.35707 0.0
H2114 H 0.21771 0.27997 0.36413 0.0
H2115 H 0.15673 0.23917 0.34653 0.0
H2116 H 0.15457 0.26778 0.33882 0.0
H2117 H 0.17753 0.22249 0.33932 0.0
H2118 H 0.1698 0.2552 0.38642 0.0
H2119 H 0.17796 0.28472 0.40521 0.0
H2120 H 0.23588 0.2935 0.4158 0.0
H2121 H 0.22826 0.26433 0.39667 0.0
C2122 C 0.17492 0.15607 0.38507 0.0
C2123 C 0.19352 0.15785 0.38797 0.0
C2124 C 0.17389 0.1722 0.37976 0.0
C2125 C 0.19144 0.19045 0.37757 0.0
C2126 C 0.21002 0.19239 0.38067 0.0
C2127 C 0.21106 0.17613 0.38565 0.0
C2128 C 0.19042 0.20748 0.37187 0.0
C2129 C 0.19578 0.22453 0.38252 0.0
C2130 C 0.18349 0.20659 0.3562 0.0
C2131 C 0.17758 0.18886 0.34453 0.0
C2132 C 0.19123 0.18272 0.34049 0.0
C2133 C 0.18549 0.1659 0.32955 0.0
C2134 C 0.16616 0.15519 0.32248 0.0
C2135 C 0.15256 0.16132 0.3263 0.0
C2136 C 0.15823 0.17812 0.33725 0.0
C2137 C 0.20251 0.29363 0.3546 0.0
C2138 C 0.18474 0.29053 0.34753 0.0
C2139 C 0.20384 0.27719 0.35869 0.0
C2140 C 0.18724 0.25743 0.3562 0.0
C2141 C 0.1697 0.25427 0.34863 0.0
C2142 C 0.16848 0.27066 0.34426 0.0
C2143 C 0.18792 0.24017 0.36203 0.0
C2144 C 0.18237 0.22297 0.35146 0.0
C2145 C 0.19423 0.24073 0.3779 0.0
C2146 C 0.19853 0.25768 0.38999 0.0
C2147 C 0.18431 0.26346 0.39271 0.0
C2148 C 0.18885 0.28016 0.40341 0.0
C2149 C 0.20746 0.29102 0.41169 0.0
C2150 C 0.2215 0.2851 0.40936 0.0
C2151 C 0.21708 0.26849 0.39857 0.0
H2152 H 0.21102 0.30402 0.41992 0.0
H2153 H 0.16174 0.14217 0.31401 0.0
H2154 H 0.6251 0.51138 0.71643 0.0
H2155 H 0.65521 0.54022 0.70772 0.0
H2156 H 0.68494 0.50605 0.70706 0.0
H2157 H 0.65508 0.47742 0.71639 0.0
H2158 H 0.70871 0.54156 0.7206 0.0
H2159 H 0.66848 0.51693 0.67223 0.0
H2160 H 0.63868 0.50537 0.65452 0.0
H2161 H 0.64384 0.56338 0.66345 0.0
H2162 H 0.67353 0.57521 0.68139 0.0
H2163 H 0.79153 0.60989 0.68006 0.0
H2164 H 0.75961 0.57978 0.68405 0.0
H2165 H 0.73486 0.61719 0.69738 0.0
H2166 H 0.76703 0.6476 0.69321 0.0
H2167 H 0.70899 0.57995 0.67623 0.0
H2168 H 0.74922 0.60313 0.72579 0.0
H2169 H 0.78009 0.61406 0.74193 0.0
H2170 H 0.77566 0.5571 0.72845 0.0
H2171 H 0.74487 0.54592 0.71207 0.0
C2172 C 0.638 0.50996 0.71431 0.0
C2173 C 0.63773 0.49214 0.7171 0.0
C2174 C 0.65519 0.52643 0.70924 0.0
C2175 C 0.67231 0.52526 0.70651 0.0
C2176 C 0.67194 0.50734 0.70908 0.0
C2177 C 0.65485 0.49097 0.71439 0.0
C2178 C 0.69089 0.54304 0.70176 0.0
C2179 C 0.70874 0.54971 0.71073 0.0
C2180 C 0.691 0.55396 0.68904 0.0
C2181 C 0.67311 0.54688 0.67829 0.0
C2182 C 0.66316 0.52717 0.67053 0.0
C2183 C 0.64631 0.52058 0.66043 0.0
C2184 C 0.63934 0.53361 0.6579 0.0
C2185 C 0.64924 0.55329 0.66544 0.0
C2186 C 0.66609 0.55995 0.67556 0.0
C2187 C 0.77919 0.61171 0.6834 0.0
C2188 C 0.78152 0.631 0.6859 0.0
C2189 C 0.76101 0.5945 0.68581 0.0
C2190 C 0.74495 0.59633 0.69098 0.0
C2191 C 0.7471 0.61554 0.69326 0.0
C2192 C 0.7654 0.63282 0.69095 0.0
C2193 C 0.72644 0.57827 0.69511 0.0
C2194 C 0.70876 0.57163 0.68604 0.0
C2195 C 0.72649 0.56718 0.70757 0.0
C2196 C 0.74481 0.57374 0.71763 0.0
C2197 C 0.75489 0.59298 0.7262 0.0
C2198 C 0.77236 0.59921 0.7354 0.0
C2199 C 0.77982 0.58628 0.73622 0.0
C2200 C 0.76984 0.56709 0.72782 0.0
C2201 C 0.75237 0.56078 0.7186 0.0
H2202 H 0.79328 0.59109 0.74341 0.0
H2203 H 0.6263 0.52848 0.65007 0.0
H2204 H 0.48731 0.1148 0.72494 0.0
H2205 H 0.4595 0.11684 0.714 0.0
H2206 H 0.49889 0.1806 0.70997 0.0
H2207 H 0.5267 0.17878 0.72138 0.0
H2208 H 0.46627 0.17524 0.72183 0.0
H2209 H 0.48005 0.14435 0.6768 0.0
H2210 H 0.48631 0.11978 0.66154 0.0
H2211 H 0.42802 0.07135 0.67096 0.0
H2212 H 0.42151 0.0956 0.68647 0.0
H2213 H 0.39076 0.18198 0.68082 0.0
H2214 H 0.42161 0.18175 0.68533 0.0
H2215 H 0.3873 0.11968 0.69614 0.0
H2216 H 0.35634 0.11963 0.69109 0.0
H2217 H 0.41911 0.12649 0.67853 0.0
H2218 H 0.40733 0.15867 0.72552 0.0
H2219 H 0.40123 0.1843 0.73914 0.0
H2220 H 0.45694 0.23178 0.72424 0.0
H2221 H 0.46317 0.20642 0.71026 0.0
C2222 C 0.49013 0.12924 0.7216 0.0
C2223 C 0.50929 0.14662 0.72403 0.0
C2224 C 0.47419 0.13037 0.71525 0.0
C2225 C 0.47707 0.14884 0.71093 0.0
C2226 C 0.49624 0.16617 0.71318 0.0
C2227 C 0.51217 0.16509 0.71967 0.0
C2228 C 0.45989 0.15017 0.70472 0.0
C2229 C 0.45619 0.16478 0.71218 0.0
C2230 C 0.44652 0.13644 0.69222 0.0
C2231 C 0.45037 0.12178 0.68292 0.0
C2232 C 0.46863 0.12844 0.67572 0.0
C2233 C 0.47221 0.11457 0.66701 0.0
C2234 C 0.45759 0.09401 0.66531 0.0
C2235 C 0.43934 0.08728 0.6723 0.0
C2236 C 0.43568 0.10109 0.68104 0.0
C2237 C 0.38979 0.16816 0.68382 0.0
C2238 C 0.37116 0.15068 0.68532 0.0
C2239 C 0.40743 0.16811 0.68653 0.0
C2240 C 0.40679 0.15078 0.69125 0.0
C2241 C 0.38817 0.13321 0.69247 0.0
C2242 C 0.37052 0.13321 0.68966 0.0
C2243 C 0.42542 0.15123 0.69584 0.0
C2244 C 0.42936 0.13701 0.68809 0.0
C2245 C 0.43913 0.16543 0.70795 0.0
C2246 C 0.43565 0.18065 0.71676 0.0
C2247 C 0.41824 0.17458 0.7251 0.0
C2248 C 0.41474 0.18905 0.73286 0.0
C2249 C 0.42866 0.20965 0.7325 0.0
C2250 C 0.44615 0.21582 0.72446 0.0
C2251 C 0.44968 0.2014 0.71663 0.0
H2252 H 0.42591 0.22084 0.73849 0.0
H2253 H 0.46039 0.0833 0.65856 0.0
H2254 H 0.90197 0.38539 0.7298 0.0
H2255 H 0.89533 0.35206 0.71951 0.0
H2256 H 0.84162 0.34038 0.69452 0.0
H2257 H 0.84801 0.37379 0.70501 0.0
H2258 H 0.83499 0.30883 0.71039 0.0
H2259 H 0.8825 0.3497 0.67429 0.0
H2260 H 0.91392 0.37824 0.66616 0.0
H2261 H 0.94743 0.35758 0.69061 0.0
H2262 H 0.91622 0.32907 0.69908 0.0
H2263 H 0.81967 0.21752 0.67007 0.0
H2264 H 0.82578 0.25177 0.67525 0.0
H2265 H 0.88019 0.26956 0.70233 0.0
H2266 H 0.87457 0.23547 0.69673 0.0
H2267 H 0.88527 0.29805 0.68304 0.0
H2268 H 0.83771 0.25852 0.72051 0.0
H2269 H 0.80626 0.22955 0.72809 0.0
H2270 H 0.77273 0.24771 0.70066 0.0
H2271 H 0.80403 0.27661 0.69268 0.0
C2272 C 0.8888 0.37584 0.72202 0.0
C2273 C 0.87551 0.38226 0.71822 0.0
C2274 C 0.88509 0.3568 0.71608 0.0
C2275 C 0.8681 0.34381 0.70611 0.0
C2276 C 0.85485 0.3502 0.70217 0.0
C2277 C 0.85856 0.3693 0.70813 0.0
C2278 C 0.86387 0.32328 0.7004 0.0
C2279 C 0.84582 0.30647 0.70414 0.0
C2280 C 0.87818 0.32022 0.69253 0.0
C2281 C 0.89701 0.33732 0.68742 0.0
C2282 C 0.89658 0.35132 0.67803 0.0
C2283 C 0.91435 0.36748 0.67335 0.0
C2284 C 0.93266 0.36974 0.67789 0.0
C2285 C 0.93324 0.35582 0.68711 0.0
C2286 C 0.9155 0.33964 0.69184 0.0
C2287 C 0.8331 0.22876 0.67693 0.0
C2288 C 0.84672 0.22378 0.68287 0.0
C2289 C 0.83647 0.2483 0.68 0.0
C2290 C 0.85336 0.26317 0.68928 0.0
C2291 C 0.86708 0.25831 0.69512 0.0
C2292 C 0.86377 0.23878 0.69199 0.0
C2293 C 0.85654 0.28367 0.69322 0.0
C2294 C 0.87438 0.30045 0.68916 0.0
C2295 C 0.84204 0.28671 0.70078 0.0
C2296 C 0.82322 0.26962 0.70588 0.0
C2297 C 0.82363 0.25627 0.71602 0.0
C2298 C 0.80583 0.23986 0.72039 0.0
C2299 C 0.7875 0.23676 0.71483 0.0
C2300 C 0.78694 0.25011 0.70494 0.0
C2301 C 0.80471 0.26651 0.70049 0.0
H2302 H 0.77372 0.22405 0.71821 0.0
H2303 H 0.94641 0.38226 0.67425 0.0
H2304 H 0.13532 0.97206 0.62719 0.0
H2305 H 0.16597 0.0019 0.63863 0.0
H2306 H 0.20038 0.98816 0.60585 0.0
H2307 H 0.16967 0.95812 0.59425 0.0
H2308 H 0.21804 0.00098 0.63698 0.0
H2309 H 0.1907 0.02258 0.59753 0.0
H2310 H 0.1645 0.02564 0.58396 0.0
H2311 H 0.15869 0.05605 0.62647 0.0
H2312 H 0.18466 0.05289 0.64037 0.0
H2313 H 0.30516 0.10045 0.64436 0.0
H2314 H 0.27616 0.06776 0.6346 0.0
H2315 H 0.23879 0.07979 0.66525 0.0
H2316 H 0.26756 0.1125 0.675 0.0
H2317 H 0.22323 0.06746 0.63466 0.0
H2318 H 0.25082 0.04615 0.67412 0.0
H2319 H 0.2772 0.04335 0.68763 0.0
H2320 H 0.2829 0.01277 0.64518 0.0
H2321 H 0.25674 0.01567 0.63133 0.0
C2322 C 0.14939 0.97525 0.62246 0.0
C2323 C 0.15004 0.96281 0.60971 0.0
C2324 C 0.16689 0.99233 0.62901 0.0
C2325 C 0.18538 0.99732 0.62296 0.0
C2326 C 0.18622 0.98455 0.61065 0.0
C2327 C 0.16867 0.96746 0.60401 0.0
C2328 C 0.20363 0.01641 0.62904 0.0
C2329 C 0.21934 0.01556 0.6363 0.0
C2330 C 0.20509 0.03535 0.62837 0.0
C2331 C 0.18948 0.03731 0.62004 0.0
C2332 C 0.18371 0.02976 0.60403 0.0
C2333 C 0.16892 0.03154 0.59626 0.0
C2334 C 0.15989 0.04099 0.60436 0.0
C2335 C 0.16567 0.04871 0.62022 0.0
C2336 C 0.18044 0.04694 0.62804 0.0
C2337 C 0.2908 0.0961 0.64911 0.0
C2338 C 0.28869 0.10909 0.66047 0.0
C2339 C 0.27428 0.07737 0.64357 0.0
C2340 C 0.25538 0.07134 0.64927 0.0
C2341 C 0.25327 0.08417 0.66072 0.0
C2342 C 0.26977 0.10283 0.66632 0.0
C2343 C 0.2376 0.05207 0.64277 0.0
C2344 C 0.22198 0.0529 0.63537 0.0
C2345 C 0.23628 0.03317 0.64331 0.0
C2346 C 0.25196 0.03132 0.65163 0.0
C2347 C 0.25781 0.03899 0.66762 0.0
C2348 C 0.27271 0.03735 0.67535 0.0
C2349 C 0.28176 0.02794 0.66726 0.0
C2350 C 0.27589 0.02009 0.65143 0.0
C2351 C 0.26102 0.02171 0.64363 0.0
H2352 H 0.29329 0.02668 0.67327 0.0
H2353 H 0.14846 0.04236 0.59833 0.0
H2354 H 0.0275 0.18116 0.62335 0.0
H2355 H 0.99697 0.17538 0.63595 0.0
H2356 H 1.00065 0.22565 0.61414 0.0
H2357 H 0.03095 0.23153 0.60165 0.0
H2358 H 0.99395 0.22762 0.6451 0.0
H2359 H 0.96725 0.1768 0.60038 0.0
H2360 H 0.9616 0.14677 0.58331 0.0
H2361 H 0.9389 0.11044 0.6224 0.0
H2362 H 0.94481 0.14036 0.6398 0.0
H2363 H 0.89866 0.21584 0.65163 0.0
H2364 H 0.93091 0.22023 0.64509 0.0
H2365 H 0.9143 0.16344 0.66345 0.0
H2366 H 0.88144 0.15843 0.66894 0.0
H2367 H 0.92862 0.16357 0.63698 0.0
H2368 H 0.95803 0.21405 0.68229 0.0
H2369 H 0.96431 0.24395 0.70007 0.0
H2370 H 0.98149 0.27989 0.66055 0.0
H2371 H 0.97557 0.25026 0.64267 0.0
C2372 C 0.02177 0.19095 0.62124 0.0
C2373 C 0.03172 0.20683 0.6115 0.0
C2374 C 0.00427 0.18756 0.62838 0.0
C2375 C 0.99643 0.20002 0.62593 0.0
C2376 C 0.00639 0.21585 0.61624 0.0
C2377 C 0.02374 0.21917 0.60907 0.0
C2378 C 0.97824 0.19716 0.63375 0.0
C2379 C 0.97963 0.21361 0.64325 0.0
C2380 C 0.95966 0.17873 0.63178 0.0
C2381 C 0.95678 0.16091 0.62146 0.0
C2382 C 0.96135 0.16249 0.6054 0.0
C2383 C 0.95804 0.14546 0.59565 0.0
C2384 C 0.94999 0.12673 0.60179 0.0
C2385 C 0.94523 0.12498 0.61769 0.0
C2386 C 0.94859 0.14197 0.6275 0.0
C2387 C 0.90207 0.2045 0.65456 0.0
C2388 C 0.88765 0.187 0.6611 0.0
C2389 C 0.92065 0.20711 0.65098 0.0
C2390 C 0.92543 0.19241 0.65406 0.0
C2391 C 0.91117 0.17513 0.66103 0.0
C2392 C 0.8924 0.17235 0.66435 0.0
C2393 C 0.94424 0.19404 0.64836 0.0
C2394 C 0.94299 0.17742 0.63914 0.0
C2395 C 0.96301 0.21226 0.65065 0.0
C2396 C 0.96604 0.22992 0.66119 0.0
C2397 C 0.96292 0.2283 0.67744 0.0
C2398 C 0.96655 0.2452 0.68752 0.0
C2399 C 0.97312 0.26375 0.68142 0.0
C2400 C 0.97631 0.26549 0.66525 0.0
C2401 C 0.97293 0.24869 0.65517 0.0
H2402 H 0.97584 0.27679 0.68924 0.0
H2403 H 0.94736 0.11355 0.5942 0.0
H2404 H 0.77567 0.82095 0.63064 0.0
H2405 H 0.77797 0.79242 0.63835 0.0
H2406 H 0.84224 0.82998 0.64233 0.0
H2407 H 0.84001 0.85832 0.63384 0.0
H2408 H 0.83292 0.79559 0.62818 0.0
H2409 H 0.81168 0.8154 0.67566 0.0
H2410 H 0.7905 0.82395 0.69197 0.0
H2411 H 0.7399 0.76451 0.67933 0.0
H2412 H 0.76072 0.75568 0.66277 0.0
H2413 H 0.84929 0.73177 0.67487 0.0
H2414 H 0.84562 0.75986 0.66801 0.0
H2415 H 0.78631 0.71762 0.64773 0.0
H2416 H 0.78998 0.68926 0.6542 0.0
H2417 H 0.79286 0.75365 0.67033 0.0
H2418 H 0.81541 0.73473 0.62259 0.0
H2419 H 0.83764 0.727 0.60698 0.0
H2420 H 0.88749 0.78616 0.62182 0.0
H2421 H 0.86559 0.79415 0.63772 0.0
C2422 C 0.79029 0.82316 0.63326 0.0
C2423 C 0.80767 0.84188 0.6317 0.0
C2424 C 0.79159 0.80686 0.63775 0.0
C2425 C 0.81027 0.80909 0.6412 0.0
C2426 C 0.82765 0.82785 0.63974 0.0
C2427 C 0.82637 0.84406 0.63495 0.0
C2428 C 0.81172 0.79171 0.64584 0.0
C2429 C 0.82436 0.78666 0.63757 0.0
C2430 C 0.80027 0.7797 0.65788 0.0
C2431 C 0.78773 0.78495 0.66786 0.0
C2432 C 0.79601 0.8042 0.67627 0.0
C2433 C 0.78407 0.80909 0.68557 0.0
C2434 C 0.76386 0.7948 0.68665 0.0
C2435 C 0.75555 0.77557 0.67846 0.0
C2436 C 0.76742 0.77061 0.66913 0.0
C2437 C 0.83539 0.7284 0.66905 0.0
C2438 C 0.8199 0.70829 0.66505 0.0
C2439 C 0.83337 0.74448 0.66511 0.0
C2440 C 0.81575 0.74072 0.65733 0.0
C2441 C 0.80002 0.72072 0.65373 0.0
C2442 C 0.80216 0.70459 0.65739 0.0
C2443 C 0.814 0.75778 0.6527 0.0
C2444 C 0.80138 0.76271 0.66098 0.0
C2445 C 0.82563 0.76984 0.64084 0.0
C2446 C 0.83889 0.76496 0.63149 0.0
C2447 C 0.83116 0.74601 0.62269 0.0
C2448 C 0.84368 0.7416 0.61375 0.0
C2449 C 0.86395 0.75609 0.61342 0.0
C2450 C 0.87177 0.77497 0.62208 0.0
C2451 C 0.85931 0.77945 0.63106 0.0
H2452 H 0.87357 0.75271 0.6064 0.0
H2453 H 0.75464 0.79862 0.69386 0.0
H2454 H 0.96316 0.83096 0.59336 0.0
H2455 H 0.94203 0.80063 0.60656 0.0
H2456 H 0.99426 0.80599 0.62948 0.0
H2457 H 0.01551 0.83678 0.61662 0.0
H2458 H 0.93903 0.76579 0.60392 0.0
H2459 H 0.98119 0.78447 0.66515 0.0
H2460 H 0.00333 0.81418 0.68386 0.0
H2461 H 0.97864 0.84734 0.66527 0.0
H2462 H 0.9562 0.81776 0.64661 0.0
H2463 H 0.8912 0.67685 0.64356 0.0
H2464 H 0.92027 0.70784 0.6357 0.0
H2465 H 0.89756 0.74343 0.65836 0.0
H2466 H 0.86839 0.71275 0.66559 0.0
H2467 H 0.94043 0.76212 0.66214 0.0
H2468 H 0.88667 0.73522 0.62227 0.0
H2469 H 0.85992 0.70919 0.60375 0.0
H2470 H 0.90171 0.69615 0.58115 0.0
H2471 H 0.92897 0.72281 0.59939 0.0
C2472 C 0.97016 0.82577 0.60128 0.0
C2473 C 0.991 0.83627 0.60396 0.0
C2474 C 0.95807 0.80839 0.60878 0.0
C2475 C 0.96654 0.80106 0.61906 0.0
C2476 C 0.98736 0.81152 0.62179 0.0
C2477 C 0.99949 0.82907 0.61439 0.0
C2478 C 0.95343 0.78218 0.62652 0.0
C2479 C 0.93962 0.76501 0.61663 0.0
C2480 C 0.95386 0.78113 0.64315 0.0
C2481 C 0.96723 0.799 0.65434 0.0
C2482 C 0.98048 0.7981 0.66507 0.0
C2483 C 0.99307 0.81491 0.67567 0.0
C2484 C 0.99246 0.83267 0.6757 0.0
C2485 C 0.97918 0.83362 0.66518 0.0
C2486 C 0.96655 0.81684 0.65457 0.0
C2487 C 0.89269 0.69136 0.64715 0.0
C2488 C 0.87768 0.69239 0.65545 0.0
C2489 C 0.90927 0.70899 0.64271 0.0
C2490 C 0.91106 0.72787 0.64657 0.0
C2491 C 0.89658 0.72902 0.65549 0.0
C2492 C 0.87989 0.71141 0.65966 0.0
C2493 C 0.92635 0.74601 0.63949 0.0
C2494 C 0.94044 0.76292 0.64941 0.0
C2495 C 0.92586 0.74715 0.62295 0.0
C2496 C 0.90971 0.73078 0.61223 0.0
C2497 C 0.8901 0.7267 0.61339 0.0
C2498 C 0.87485 0.71185 0.60292 0.0
C2499 C 0.87899 0.70075 0.59135 0.0
C2500 C 0.89849 0.70467 0.59017 0.0
C2501 C 0.91388 0.71976 0.6005 0.0
H2502 H 0.86715 0.68925 0.58324 0.0
H2503 H 0.00222 0.84567 0.68391 0.0
H2504 H 0.19578 0.23163 0.62181 0.0
H2505 H 0.22323 0.22766 0.63104 0.0
H2506 H 0.18718 0.1632 0.61883 0.0
H2507 H 0.1597 0.16705 0.60944 0.0
H2508 H 0.20535 0.1735 0.64921 0.0
H2509 H 0.22429 0.19006 0.59638 0.0
H2510 H 0.2319 0.21012 0.57345 0.0
H2511 H 0.27982 0.26165 0.60095 0.0
H2512 H 0.27232 0.24197 0.62413 0.0
H2513 H 0.2845 0.15393 0.66202 0.0
H2514 H 0.25557 0.15598 0.65418 0.0
H2515 H 0.2933 0.22071 0.65359 0.0
H2516 H 0.32246 0.2183 0.66025 0.0
H2517 H 0.273 0.20848 0.62844 0.0
H2518 H 0.2449 0.19595 0.68248 0.0
H2519 H 0.2326 0.17792 0.70645 0.0
H2520 H 0.20271 0.12097 0.67769 0.0
H2521 H 0.21388 0.13885 0.65349 0.0
C2522 C 0.19372 0.21661 0.621 0.0
C2523 C 0.17552 0.19965 0.61489 0.0
C2524 C 0.20946 0.21438 0.62622 0.0
C2525 C 0.20732 0.19514 0.62554 0.0
C2526 C 0.18919 0.17819 0.61944 0.0
C2527 C 0.17351 0.18043 0.61403 0.0
C2528 C 0.22371 0.19267 0.63179 0.0
C2529 C 0.22011 0.18094 0.64453 0.0
C2530 C 0.24306 0.20271 0.62596 0.0
C2531 C 0.24761 0.21459 0.61204 0.0
C2532 C 0.23634 0.20572 0.59759 0.0
C2533 C 0.24066 0.21701 0.58453 0.0
C2534 C 0.2563 0.23716 0.58575 0.0
C2535 C 0.26769 0.24604 0.60003 0.0
C2536 C 0.26343 0.23482 0.61312 0.0
C2537 C 0.28652 0.16865 0.66067 0.0
C2538 C 0.30572 0.186 0.66187 0.0
C2539 C 0.26985 0.16988 0.65626 0.0
C2540 C 0.27195 0.18856 0.65338 0.0
C2541 C 0.2911 0.20605 0.65557 0.0
C2542 C 0.30779 0.20473 0.65951 0.0
C2543 C 0.25495 0.18974 0.64635 0.0
C2544 C 0.25835 0.20109 0.63326 0.0
C2545 C 0.23542 0.17952 0.65194 0.0
C2546 C 0.23057 0.16864 0.6663 0.0
C2547 C 0.23593 0.17957 0.68133 0.0
C2548 C 0.22894 0.1694 0.69491 0.0
C2549 C 0.21709 0.14828 0.69362 0.0
C2550 C 0.21198 0.1373 0.67869 0.0
C2551 C 0.21844 0.14745 0.66504 0.0
H2552 H 0.21179 0.14044 0.70417 0.0
H2553 H 0.25962 0.24588 0.57563 0.0
H2554 H 0.84399 0.96682 0.63538 0.0
H2555 H 0.84533 0.99715 0.64805 0.0
H2556 H 0.83625 0.01278 0.60223 0.0
H2557 H 0.83523 0.98282 0.58949 0.0
H2558 H 0.8637 0.0457 0.62005 0.0
H2559 H 0.79771 0.98947 0.6266 0.0
H2560 H 0.77307 0.95612 0.635 0.0
H2561 H 0.79567 0.9771 0.68336 0.0
H2562 H 0.82065 0.01052 0.67521 0.0
H2563 H 0.81657 0.10319 0.64193 0.0
H2564 H 0.81917 0.07393 0.63243 0.0
H2565 H 0.85379 0.08177 0.67505 0.0
H2566 H 0.85224 0.1116 0.6843 0.0
H2567 H 0.81523 0.03794 0.66061 0.0
H2568 H 0.88169 0.09453 0.65343 0.0
H2569 H 0.9053 0.12786 0.6445 0.0
H2570 H 0.88064 0.10591 0.59669 0.0
H2571 H 0.85655 0.07251 0.60544 0.0
C2572 C 0.84243 0.9768 0.62801 0.0
C2573 C 0.83937 0.97233 0.61144 0.0
C2574 C 0.84313 0.99408 0.63526 0.0
C2575 C 0.84064 0.00708 0.62609 0.0
C2576 C 0.83819 0.00296 0.60953 0.0
C2577 C 0.83754 0.98576 0.60228 0.0
C2578 C 0.83993 0.02467 0.63367 0.0
C2579 C 0.85304 0.04395 0.62887 0.0
C2580 C 0.8262 0.02247 0.64534 0.0
C2581 C 0.81119 0.00241 0.65027 0.0
C2582 C 0.79753 0.98692 0.639 0.0
C2583 C 0.78349 0.96801 0.64372 0.0
C2584 C 0.78285 0.96447 0.6597 0.0
C2585 C 0.79622 0.97985 0.67099 0.0
C2586 C 0.81031 0.99878 0.66633 0.0
C2587 C 0.82462 0.09866 0.64938 0.0
C2588 C 0.83403 0.10971 0.664 0.0
C2589 C 0.82611 0.08196 0.6439 0.0
C2590 C 0.83671 0.07585 0.65306 0.0
C2591 C 0.84554 0.08633 0.66786 0.0
C2592 C 0.84448 0.10331 0.67317 0.0
C2593 C 0.83892 0.05874 0.64694 0.0
C2594 C 0.82602 0.03961 0.65194 0.0
C2595 C 0.85277 0.06105 0.63543 0.0
C2596 C 0.86711 0.08113 0.63014 0.0
C2597 C 0.88109 0.09689 0.64106 0.0
C2598 C 0.89461 0.11578 0.63602 0.0
C2599 C 0.89443 0.11903 0.62004 0.0
C2600 C 0.88073 0.10338 0.60907 0.0
C2601 C 0.86713 0.08447 0.61407 0.0
H2602 H 0.90495 0.13364 0.61613 0.0
H2603 H 0.77196 0.94983 0.66333 0.0
H2604 H 0.51599 0.38646 0.71813 0.0
H2605 H 0.48498 0.35513 0.70938 0.0
H2606 H 0.51133 0.32043 0.7218 0.0
H2607 H 0.5426 0.35174 0.73015 0.0
H2608 H 0.48932 0.30356 0.69558 0.0
H2609 H 0.48002 0.32716 0.74665 0.0
H2610 H 0.48013 0.35169 0.76722 0.0
H2611 H 0.43674 0.35581 0.73899 0.0
H2612 H 0.43659 0.33151 0.71814 0.0
H2613 H 0.38111 0.22144 0.71129 0.0
H2614 H 0.41185 0.25306 0.72053 0.0
H2615 H 0.42342 0.26772 0.67214 0.0
H2616 H 0.39275 0.23634 0.66299 0.0
H2617 H 0.42663 0.29298 0.71841 0.0
H2618 H 0.47206 0.28624 0.66659 0.0
H2619 H 0.47238 0.25932 0.64905 0.0
H2620 H 0.44454 0.21757 0.68421 0.0
H2621 H 0.44407 0.2442 0.70194 0.0
C2622 C 0.51526 0.37217 0.71883 0.0
C2623 C 0.5317 0.37157 0.72495 0.0
C2624 C 0.49748 0.35427 0.71391 0.0
C2625 C 0.49568 0.33542 0.71526 0.0
C2626 C 0.51234 0.3348 0.72072 0.0
C2627 C 0.53021 0.35271 0.7255 0.0
C2628 C 0.47628 0.31639 0.71137 0.0
C2629 C 0.47563 0.3013 0.70055 0.0
C2630 C 0.45847 0.31312 0.71823 0.0
C2631 C 0.45843 0.32765 0.73077 0.0
C2632 C 0.47061 0.33341 0.74478 0.0
C2633 C 0.47067 0.34725 0.7565 0.0
C2634 C 0.45849 0.35534 0.7544 0.0
C2635 C 0.44619 0.34955 0.74059 0.0
C2636 C 0.4461 0.33573 0.72883 0.0
C2637 C 0.39005 0.2316 0.70267 0.0
C2638 C 0.3848 0.22628 0.68636 0.0
C2639 C 0.40761 0.24961 0.70795 0.0
C2640 C 0.42008 0.26252 0.69699 0.0
C2641 C 0.41423 0.25773 0.68078 0.0
C2642 C 0.39679 0.23973 0.67552 0.0
C2643 C 0.43967 0.28053 0.70231 0.0
C2644 C 0.44034 0.29535 0.71342 0.0
C2645 C 0.4576 0.28326 0.69615 0.0
C2646 C 0.45796 0.2672 0.68555 0.0
C2647 C 0.46606 0.27133 0.67059 0.0
C2648 C 0.46622 0.2561 0.6606 0.0
C2649 C 0.45846 0.23674 0.66551 0.0
C2650 C 0.45046 0.23253 0.68039 0.0
C2651 C 0.45022 0.24768 0.6904 0.0
H2652 H 0.45873 0.22503 0.65782 0.0
H2653 H 0.45855 0.36606 0.76348 0.0
H2654 H 0.65536 0.16082 0.72815 0.0
H2655 H 0.68683 0.16497 0.71913 0.0
H2656 H 0.65858 0.10024 0.70901 0.0
H2657 H 0.62696 0.09606 0.71753 0.0
H2658 H 0.71063 0.154 0.72934 0.0
H2659 H 0.67986 0.08783 0.67903 0.0
H2660 H 0.65158 0.0699 0.65914 0.0
H2661 H 0.64545 0.12211 0.66048 0.0
H2662 H 0.67385 0.14045 0.6802 0.0
H2663 H 0.77327 0.11359 0.69302 0.0
H2664 H 0.74071 0.10993 0.69827 0.0
H2665 H 0.7645 0.17262 0.69094 0.0
H2666 H 0.79684 0.17619 0.68526 0.0
H2667 H 0.71536 0.12102 0.67815 0.0
H2668 H 0.74645 0.18827 0.72618 0.0
H2669 H 0.77561 0.20789 0.74513 0.0
H2670 H 0.78188 0.156 0.74675 0.0
H2671 H 0.75242 0.13595 0.72832 0.0
C2672 C 0.65582 0.14747 0.72394 0.0
C2673 C 0.63859 0.12811 0.7235 0.0
C2674 C 0.67386 0.14986 0.7188 0.0
C2675 C 0.67512 0.13297 0.71315 0.0
C2676 C 0.65797 0.11359 0.71294 0.0
C2677 C 0.63989 0.1112 0.71792 0.0
C2678 C 0.69444 0.13557 0.70785 0.0
C2679 C 0.71164 0.14701 0.71803 0.0
C2680 C 0.69589 0.12628 0.69317 0.0
C2681 C 0.67885 0.11542 0.68124 0.0
C2682 C 0.67251 0.0955 0.67505 0.0
C2683 C 0.65645 0.08526 0.6638 0.0
C2684 C 0.64667 0.09483 0.65859 0.0
C2685 C 0.65298 0.11469 0.66457 0.0
C2686 C 0.66904 0.125 0.6758 0.0
C2687 C 0.77139 0.12645 0.69227 0.0
C2688 C 0.78739 0.14502 0.6884 0.0
C2689 C 0.75284 0.12435 0.69522 0.0
C2690 C 0.75024 0.141 0.69497 0.0
C2691 C 0.76621 0.15958 0.69112 0.0
C2692 C 0.78463 0.16157 0.68781 0.0
C2693 C 0.73121 0.13924 0.69969 0.0
C2694 C 0.71419 0.12802 0.6894 0.0
C2695 C 0.72996 0.14893 0.71416 0.0
C2696 C 0.74745 0.16073 0.7256 0.0
C2697 C 0.75403 0.18105 0.73063 0.0
C2698 C 0.7706 0.19224 0.74132 0.0
C2699 C 0.78071 0.18327 0.74706 0.0
C2700 C 0.77414 0.16301 0.74225 0.0
C2701 C 0.7575 0.15172 0.73168 0.0
H2702 H 0.79358 0.19199 0.75527 0.0
H2703 H 0.63424 0.08688 0.64989 0.0
H2704 H 0.80911 0.4663 0.72383 0.0
H2705 H 0.80939 0.49491 0.71291 0.0
H2706 H 0.87368 0.52711 0.71379 0.0
H2707 H 0.87354 0.49836 0.72426 0.0
H2708 H 0.85117 0.54801 0.72883 0.0
H2709 H 0.85795 0.51259 0.68121 0.0
H2710 H 0.84759 0.48226 0.66261 0.0
H2711 H 0.79001 0.47549 0.65483 0.0
H2712 H 0.79994 0.50563 0.67359 0.0
H2713 H 0.86791 0.63155 0.68919 0.0
H2714 H 0.87 0.60315 0.69762 0.0
H2715 H 0.81007 0.56163 0.678 0.0
H2716 H 0.80827 0.58979 0.66887 0.0
H2717 H 0.83079 0.5451 0.67259 0.0
H2718 H 0.82167 0.57876 0.71876 0.0
H2719 H 0.82915 0.60776 0.73796 0.0
H2720 H 0.88649 0.61607 0.75004 0.0
H2721 H 0.87956 0.58735 0.73066 0.0
C2722 C 0.82329 0.47945 0.72165 0.0
C2723 C 0.84131 0.48011 0.72484 0.0
C2724 C 0.82342 0.49572 0.71541 0.0
C2725 C 0.84156 0.51301 0.71259 0.0
C2726 C 0.85956 0.51383 0.71592 0.0
C2727 C 0.85944 0.4974 0.72182 0.0
C2728 C 0.84168 0.53028 0.70619 0.0
C2729 C 0.84701 0.54758 0.7165 0.0
C2730 C 0.83555 0.52926 0.69025 0.0
C2731 C 0.8296 0.5112 0.67895 0.0
C2732 C 0.843 0.50451 0.67567 0.0
C2733 C 0.83723 0.48738 0.66507 0.0
C2734 C 0.81813 0.47691 0.65759 0.0
C2735 C 0.80478 0.48359 0.66066 0.0
C2736 C 0.81048 0.50069 0.67127 0.0
C2737 C 0.85527 0.61634 0.68654 0.0
C2738 C 0.83789 0.61292 0.67846 0.0
C2739 C 0.85642 0.60013 0.69146 0.0
C2740 C 0.84001 0.58027 0.6888 0.0
C2741 C 0.8229 0.57679 0.68025 0.0
C2742 C 0.82189 0.59294 0.67505 0.0
C2743 C 0.84044 0.56315 0.6952 0.0
C2744 C 0.83508 0.54574 0.68493 0.0
C2745 C 0.84609 0.5639 0.71131 0.0
C2746 C 0.85018 0.58101 0.72313 0.0
C2747 C 0.83594 0.58684 0.72543 0.0
C2748 C 0.84007 0.60323 0.73635 0.0
C2749 C 0.85828 0.61376 0.7452 0.0
C2750 C 0.87239 0.6079 0.74316 0.0
C2751 C 0.86838 0.59157 0.73221 0.0
H2752 H 0.86146 0.62644 0.75364 0.0
H2753 H 0.81368 0.46366 0.64938 0.0
H2754 H 0.48345 0.9053 0.22593 0.0
H2755 H 0.49401 0.92156 0.20129 0.0
H2756 H 0.43362 0.90586 0.18966 0.0
H2757 H 0.42289 0.88957 0.21423 0.0
H2758 H 0.45214 0.8998 0.16355 0.0
H2759 H 0.46591 0.95223 0.20529 0.0
H2760 H 0.48051 0.97208 0.23112 0.0
H2761 H 0.5393 0.98967 0.21637 0.0
H2762 H 0.52501 0.96967 0.19051 0.0
H2763 H 0.47076 0.96948 0.10611 0.0
H2764 H 0.45996 0.94853 0.1284 0.0
H2765 H 0.52153 0.97195 0.14324 0.0
H2766 H 0.5323 0.99325 0.12126 0.0
H2767 H 0.50256 0.97322 0.16761 0.0
H2768 H 0.48958 0.92217 0.12552 0.0
H2769 H 0.47543 0.90214 0.09969 0.0
H2770 H 0.41615 0.88153 0.11471 0.0
H2771 H 0.42994 0.9017 0.14055 0.0
C2772 C 0.47237 0.90514 0.21808 0.0
C2773 C 0.45234 0.89623 0.22214 0.0
C2774 C 0.47845 0.91449 0.20402 0.0
C2775 C 0.46463 0.91507 0.19371 0.0
C2776 C 0.44452 0.90559 0.19744 0.0
C2777 C 0.43845 0.89636 0.21154 0.0
C2778 C 0.47125 0.92631 0.1794 0.0
C2779 C 0.46303 0.91589 0.1644 0.0
C2780 C 0.48576 0.94721 0.18052 0.0
C2781 C 0.49438 0.95928 0.19604 0.0
C2782 C 0.48194 0.96019 0.2076 0.0
C2783 C 0.49016 0.97149 0.22224 0.0
C2784 C 0.51082 0.98208 0.2254 0.0
C2785 C 0.5233 0.98143 0.21392 0.0
C2786 C 0.51515 0.97013 0.19927 0.0
C2787 C 0.48195 0.96992 0.11403 0.0
C2788 C 0.50236 0.98305 0.112 0.0
C2789 C 0.47578 0.95791 0.12675 0.0
C2790 C 0.48992 0.95851 0.13749 0.0
C2791 C 0.51032 0.97126 0.1352 0.0
C2792 C 0.51646 0.98343 0.12263 0.0
C2793 C 0.48359 0.94673 0.1516 0.0
C2794 C 0.49179 0.95709 0.16664 0.0
C2795 C 0.46916 0.92576 0.15046 0.0
C2796 C 0.46081 0.91361 0.13493 0.0
C2797 C 0.47353 0.9135 0.12327 0.0
C2798 C 0.46557 0.90211 0.10863 0.0
C2799 C 0.44491 0.89062 0.10554 0.0
C2800 C 0.43215 0.89048 0.1171 0.0
C2801 C 0.44003 0.90188 0.13175 0.0
H2802 H 0.43879 0.88179 0.0942 0.0
H2803 H 0.51716 0.99083 0.23674 0.0
H2804 H 0.10182 0.52916 0.23278 0.0
H2805 H 0.08258 0.51784 0.20746 0.0
H2806 H 0.13562 0.55725 0.18374 0.0
H2807 H 0.15494 0.56901 0.20914 0.0
H2808 H 0.10632 0.56269 0.17566 0.0
H2809 H 0.11315 0.50517 0.17791 0.0
H2810 H 0.11209 0.4765 0.18968 0.0
H2811 H 0.04892 0.44913 0.19426 0.0
H2812 H 0.04964 0.47778 0.18273 0.0
H2813 H 0.05356 0.52999 0.1012 0.0
H2814 H 0.07739 0.53514 0.12234 0.0
H2815 H 0.0289 0.49904 0.1515 0.0
H2816 H 0.00486 0.49278 0.13 0.0
H2817 H 0.05862 0.49151 0.15488 0.0
H2818 H 0.0532 0.55136 0.15525 0.0
H2819 H 0.05441 0.57975 0.14282 0.0
H2820 H 0.11575 0.60246 0.13279 0.0
H2821 H 0.11483 0.57406 0.14499 0.0
C2822 C 0.1095 0.53519 0.22216 0.0
C2823 C 0.12991 0.55009 0.22301 0.0
C2824 C 0.09848 0.52862 0.20765 0.0
C2825 C 0.10768 0.53661 0.19367 0.0
C2826 C 0.12821 0.5509 0.19439 0.0
C2827 C 0.13924 0.55756 0.20891 0.0
C2828 C 0.0955 0.53133 0.17862 0.0
C2829 C 0.0962 0.54712 0.17095 0.0
C2830 C 0.082 0.51102 0.17262 0.0
C2831 C 0.08149 0.49373 0.17956 0.0
C2832 C 0.09906 0.49312 0.18154 0.0
C2833 C 0.09851 0.47685 0.18815 0.0
C2834 C 0.08046 0.46102 0.19274 0.0
C2835 C 0.0629 0.46141 0.19071 0.0
C2836 C 0.06336 0.47765 0.18412 0.0
C2837 C 0.04788 0.52279 0.11196 0.0
C2838 C 0.02721 0.51113 0.11391 0.0
C2839 C 0.06157 0.52592 0.12411 0.0
C2840 C 0.05492 0.51779 0.13861 0.0
C2841 C 0.03436 0.50556 0.14044 0.0
C2842 C 0.02063 0.50223 0.1282 0.0
C2843 C 0.06931 0.52285 0.15216 0.0
C2844 C 0.06896 0.50705 0.15953 0.0
C2845 C 0.0832 0.54315 0.15789 0.0
C2846 C 0.0839 0.56052 0.15093 0.0
C2847 C 0.06692 0.56238 0.15034 0.0
C2848 C 0.06756 0.57847 0.14334 0.0
C2849 C 0.08514 0.59289 0.13701 0.0
C2850 C 0.10215 0.59128 0.1377 0.0
C2851 C 0.10158 0.57521 0.14468 0.0
H2852 H 0.08561 0.60533 0.1316 0.0
H2853 H 0.08007 0.44843 0.19786 0.0
H2854 H 0.42922 0.50825 0.22931 0.0
H2855 H 0.43643 0.50187 0.20221 0.0
H2856 H 0.41824 0.54192 0.18619 0.0
H2857 H 0.41109 0.54855 0.21336 0.0
H2858 H 0.41797 0.48892 0.17204 0.0
H2859 H 0.45482 0.57276 0.16225 0.0
H2860 H 0.46849 0.60601 0.17774 0.0
H2861 H 0.48365 0.58369 0.21708 0.0
H2862 H 0.47034 0.55044 0.20174 0.0
H2863 H 0.46336 0.50008 0.09739 0.0
H2864 H 0.44334 0.50219 0.11866 0.0
H2865 H 0.49626 0.53505 0.15002 0.0
H2866 H 0.51653 0.5343 0.12857 0.0
H2867 H 0.47479 0.55144 0.15411 0.0
H2868 H 0.46086 0.48202 0.15029 0.0
H2869 H 0.44929 0.44843 0.13606 0.0
H2870 H 0.39188 0.44112 0.126 0.0
H2871 H 0.40319 0.47476 0.14006 0.0
C2872 C 0.42631 0.51537 0.21999 0.0
C2873 C 0.41994 0.52921 0.22354 0.0
C2874 C 0.43032 0.51159 0.20447 0.0
C2875 C 0.42814 0.52165 0.19226 0.0
C2876 C 0.42018 0.53416 0.1955 0.0
C2877 C 0.4161 0.53791 0.21104 0.0
C2878 C 0.43687 0.52124 0.17686 0.0
C2879 C 0.43022 0.50259 0.16797 0.0
C2880 C 0.45299 0.53906 0.17168 0.0
C2881 C 0.46134 0.55907 0.18092 0.0
C2882 C 0.46112 0.57499 0.17419 0.0
C2883 C 0.46881 0.59383 0.18294 0.0
C2884 C 0.47686 0.59693 0.19841 0.0
C2885 C 0.47734 0.58124 0.20513 0.0
C2886 C 0.46972 0.5624 0.19641 0.0
C2887 C 0.47081 0.50805 0.10873 0.0
C2888 C 0.49161 0.51695 0.11126 0.0
C2889 C 0.45928 0.50901 0.12095 0.0
C2890 C 0.46824 0.51854 0.13602 0.0
C2891 C 0.48898 0.52759 0.1385 0.0
C2892 C 0.50054 0.5269 0.12626 0.0
C2893 C 0.45623 0.51904 0.14937 0.0
C2894 C 0.46224 0.53777 0.1579 0.0
C2895 C 0.43979 0.50124 0.15434 0.0
C2896 C 0.43291 0.48094 0.1461 0.0
C2897 C 0.4458 0.47327 0.14498 0.0
C2898 C 0.43928 0.45423 0.13696 0.0
C2899 C 0.41987 0.44268 0.1301 0.0
C2900 C 0.40691 0.45011 0.1313 0.0
C2901 C 0.41335 0.46914 0.13931 0.0
H2902 H 0.41487 0.42795 0.12388 0.0
H2903 H 0.48277 0.61151 0.20517 0.0
H2904 H 0.9195 0.46849 0.77715 0.0
H2905 H 0.93768 0.4777 0.80284 0.0
H2906 H 0.88451 0.46583 0.82646 0.0
H2907 H 0.86594 0.45632 0.80067 0.0
H2908 H 0.92281 0.50239 0.8394 0.0
H2909 H 0.8923 0.43063 0.82591 0.0
H2910 H 0.88366 0.40011 0.8081 0.0
H2911 H 0.94587 0.42065 0.8043 0.0
H2912 H 0.95489 0.45147 0.82189 0.0
H2913 H 0.96584 0.50092 0.91352 0.0
H2914 H 0.94303 0.49338 0.89084 0.0
H2915 H 0.98197 0.48386 0.86014 0.0
H2916 H 0.00372 0.48923 0.88291 0.0
H2917 H 0.94672 0.45647 0.85214 0.0
H2918 H 0.9778 0.52916 0.86413 0.0
H2919 H 0.98698 0.5604 0.8812 0.0
H2920 H 0.92501 0.53934 0.88726 0.0
H2921 H 0.91548 0.50787 0.87043 0.0
C2922 C 0.91166 0.46809 0.78775 0.0
C2923 C 0.89118 0.46145 0.78686 0.0
C2924 C 0.92211 0.47337 0.80242 0.0
C2925 C 0.91235 0.47223 0.81648 0.0
C2926 C 0.89224 0.46676 0.81569 0.0
C2927 C 0.88167 0.46128 0.80096 0.0
C2928 C 0.92294 0.47522 0.83188 0.0
C2929 C 0.92784 0.49226 0.84237 0.0
C2930 C 0.92964 0.46207 0.83554 0.0
C2931 C 0.92426 0.44344 0.82511 0.0
C2932 C 0.90414 0.42872 0.82117 0.0
C2933 C 0.89917 0.41135 0.81114 0.0
C2934 C 0.91421 0.40847 0.80504 0.0
C2935 C 0.93424 0.42292 0.80901 0.0
C2936 C 0.93928 0.44033 0.81903 0.0
C2937 C 0.96943 0.49686 0.90202 0.0
C2938 C 0.98675 0.4957 0.90017 0.0
C2939 C 0.9565 0.49292 0.88896 0.0
C2940 C 0.96091 0.48842 0.87368 0.0
C2941 C 0.97822 0.48737 0.87179 0.0
C2942 C 0.99086 0.49076 0.88486 0.0
C2943 C 0.94737 0.48417 0.85961 0.0
C2944 C 0.94173 0.4667 0.84933 0.0
C2945 C 0.94017 0.49706 0.85614 0.0
C2946 C 0.94594 0.51607 0.86616 0.0
C2947 C 0.96614 0.53114 0.8692 0.0
C2948 C 0.9714 0.5489 0.87883 0.0
C2949 C 0.95659 0.55182 0.88538 0.0
C2950 C 0.93647 0.53704 0.88224 0.0
C2951 C 0.93113 0.51925 0.87265 0.0
H2952 H 0.96068 0.56557 0.89284 0.0
H2953 H 0.91033 0.39501 0.79727 0.0
H2954 H 0.58666 0.43207 0.80395 0.0
H2955 H 0.57698 0.44069 0.82943 0.0
H2956 H 0.57307 0.48828 0.80954 0.0
H2957 H 0.58273 0.4798 0.784 0.0
H2958 H 0.5891 0.49872 0.84113 0.0
H2959 H 0.53238 0.44431 0.80961 0.0
H2960 H 0.51365 0.41095 0.79411 0.0
H2961 H 0.51557 0.38204 0.83477 0.0
H2962 H 0.53458 0.41529 0.85046 0.0
H2963 H 0.51762 0.50869 0.88539 0.0
H2964 H 0.53666 0.50318 0.86482 0.0
H2965 H 0.53405 0.45498 0.88916 0.0
H2966 H 0.5147 0.46026 0.90965 0.0
H2967 H 0.52386 0.44419 0.85743 0.0
H2968 H 0.57715 0.49832 0.88997 0.0
H2969 H 0.59557 0.53163 0.90553 0.0
H2970 H 0.60011 0.56107 0.86352 0.0
H2971 H 0.58145 0.52789 0.84773 0.0
C2972 C 0.58414 0.44464 0.80506 0.0
C2973 C 0.58522 0.45509 0.79189 0.0
C2974 C 0.57857 0.4495 0.81962 0.0
C2975 C 0.57406 0.46492 0.82127 0.0
C2976 C 0.57645 0.47629 0.80848 0.0
C2977 C 0.5819 0.47137 0.79388 0.0
C2978 C 0.56504 0.46795 0.83575 0.0
C2979 C 0.5748 0.48687 0.84469 0.0
C2980 C 0.5466 0.45229 0.84053 0.0
C2981 C 0.53511 0.43229 0.83114 0.0
C2982 C 0.52896 0.43085 0.8152 0.0
C2983 C 0.51827 0.41196 0.80639 0.0
C2984 C 0.51348 0.39439 0.81344 0.0
C2985 C 0.51933 0.39567 0.82932 0.0
C2986 C 0.53006 0.41453 0.83818 0.0
C2987 C 0.52109 0.49691 0.88632 0.0
C2988 C 0.51472 0.4849 0.8991 0.0
C2989 C 0.53212 0.4939 0.87467 0.0
C2990 C 0.53695 0.47882 0.87558 0.0
C2991 C 0.53058 0.46677 0.88831 0.0
C2992 C 0.51964 0.46986 0.90002 0.0
C2993 C 0.54779 0.47506 0.86277 0.0
C2994 C 0.53832 0.45599 0.85408 0.0
C2995 C 0.56649 0.49058 0.85826 0.0
C2996 C 0.57775 0.51059 0.86769 0.0
C2997 C 0.58193 0.51188 0.88407 0.0
C2998 C 0.59244 0.53075 0.89293 0.0
C2999 C 0.59897 0.54845 0.88553 0.0
C3000 C 0.59503 0.54733 0.86924 0.0
C3001 C 0.58451 0.5285 0.86032 0.0
H3002 H 0.60711 0.56305 0.89241 0.0
H3003 H 0.50519 0.37978 0.8066 0.0
H3004 H 0.57487 0.08374 0.7837 0.0
H3005 H 0.56819 0.06722 0.80833 0.0
H3006 H 0.53919 0.09919 0.82563 0.0
H3007 H 0.5455 0.11554 0.80098 0.0
H3008 H 0.56536 0.09651 0.84913 0.0
H3009 H 0.51056 0.05461 0.81017 0.0
H3010 H 0.49617 0.03567 0.784 0.0
H3011 H 0.52125 0.99859 0.79118 0.0
H3012 H 0.53604 0.01753 0.81732 0.0
H3013 H 0.50494 0.03625 0.90843 0.0
H3014 H 0.51923 0.05682 0.88622 0.0
H3015 H 0.5336 0.01335 0.86524 0.0
H3016 H 0.5189 0.99256 0.88722 0.0
H3017 H 0.51722 0.02245 0.84358 0.0
H3018 H 0.56927 0.06089 0.88324 0.0
H3019 H 0.5842 0.07901 0.90949 0.0
H3020 H 0.56731 0.12251 0.90127 0.0
H3021 H 0.55163 0.10422 0.87514 0.0
C3022 C 0.56732 0.08749 0.79283 0.0
C3023 C 0.56059 0.10086 0.79032 0.0
C3024 C 0.5635 0.07802 0.80689 0.0
C3025 C 0.55313 0.08194 0.81876 0.0
C3026 C 0.54725 0.096 0.81663 0.0
C3027 C 0.55079 0.10524 0.80249 0.0
C3028 C 0.54701 0.07023 0.83284 0.0
C3029 C 0.55472 0.08035 0.848 0.0
C3030 C 0.53357 0.04908 0.83126 0.0
C3031 C 0.5246 0.03763 0.8156 0.0
C3032 C 0.51316 0.04254 0.8061 0.0
C3033 C 0.50489 0.03178 0.79129 0.0
C3034 C 0.50784 0.01598 0.78591 0.0
C3035 C 0.51901 0.01086 0.79535 0.0
C3036 C 0.52733 0.02159 0.81017 0.0
C3037 C 0.5114 0.03125 0.89917 0.0
C3038 C 0.51075 0.01277 0.89953 0.0
C3039 C 0.51961 0.04303 0.88649 0.0
C3040 C 0.52768 0.03676 0.87406 0.0
C3041 C 0.52741 0.01851 0.87461 0.0
C3042 C 0.519 0.00663 0.88718 0.0
C3043 C 0.53548 0.04865 0.86009 0.0
C3044 C 0.52802 0.03858 0.84486 0.0
C3045 C 0.54939 0.06979 0.86165 0.0
C3046 C 0.55908 0.08104 0.87727 0.0
C3047 C 0.56858 0.07422 0.88707 0.0
C3048 C 0.5772 0.08454 0.90193 0.0
C3049 C 0.57675 0.10193 0.90704 0.0
C3050 C 0.56765 0.10903 0.89729 0.0
C3051 C 0.55885 0.09866 0.88246 0.0
H3052 H 0.58343 0.10991 0.91856 0.0
H3053 H 0.50143 0.00767 0.77444 0.0
H3054 H 0.15369 0.23428 0.55235 0.0
H3055 H 0.16581 0.25234 0.52867 0.0
H3056 H 0.11455 0.25937 0.52637 0.0
H3057 H 0.10211 0.24098 0.54979 0.0
H3058 H 0.12218 0.25076 0.49752 0.0
H3059 H 0.16037 0.29827 0.542 0.0
H3060 H 0.18213 0.31088 0.5665 0.0
H3061 H 0.22783 0.30689 0.54147 0.0
H3062 H 0.20622 0.294 0.51686 0.0
H3063 H 0.1951 0.35326 0.4628 0.0
H3064 H 0.18047 0.33298 0.48502 0.0
H3065 H 0.1656 0.27886 0.45493 0.0
H3066 H 0.17992 0.29903 0.43263 0.0
H3067 H 0.1904 0.31126 0.50009 0.0
H3068 H 0.12413 0.23817 0.46762 0.0
H3069 H 0.1008 0.22784 0.44425 0.0
H3070 H 0.1088 0.28726 0.4468 0.0
H3071 H 0.13193 0.29787 0.47033 0.0
C3072 C 0.14493 0.23957 0.54677 0.0
C3073 C 0.12697 0.23626 0.55307 0.0
C3074 C 0.15192 0.24996 0.53324 0.0
C3075 C 0.14123 0.25747 0.52583 0.0
C3076 C 0.12307 0.25374 0.53186 0.0
C3077 C 0.11602 0.24327 0.54532 0.0
C3078 C 0.14922 0.26973 0.5121 0.0
C3079 C 0.13712 0.26395 0.49806 0.0
C3080 C 0.16856 0.2872 0.51286 0.0
C3081 C 0.1816 0.29498 0.52763 0.0
C3082 C 0.175 0.29994 0.54175 0.0
C3083 C 0.18732 0.30716 0.55565 0.0
C3084 C 0.20633 0.30963 0.55555 0.0
C3085 C 0.21309 0.30494 0.54154 0.0
C3086 C 0.20082 0.29769 0.52761 0.0
C3087 C 0.18879 0.33705 0.46091 0.0
C3088 C 0.18886 0.32782 0.44592 0.0
C3089 C 0.18037 0.32545 0.47363 0.0
C3090 C 0.17183 0.30435 0.47168 0.0
C3091 C 0.17179 0.29506 0.45671 0.0
C3092 C 0.18005 0.30665 0.44395 0.0
C3093 C 0.16344 0.29223 0.48543 0.0
C3094 C 0.17549 0.29802 0.49949 0.0
C3095 C 0.14387 0.27508 0.48478 0.0
C3096 C 0.12991 0.26885 0.47067 0.0
C3097 C 0.12085 0.24901 0.46323 0.0
C3098 C 0.10766 0.24311 0.44996 0.0
C3099 C 0.10331 0.25688 0.44407 0.0
C3100 C 0.11219 0.27661 0.45139 0.0
C3101 C 0.12536 0.28258 0.46468 0.0
H3102 H 0.09303 0.25225 0.43383 0.0
H3103 H 0.21585 0.31523 0.56633 0.0
H3104 H 0.7586 0.85229 0.56868 0.0
H3105 H 0.73922 0.84147 0.54339 0.0
H3106 H 0.79192 0.88212 0.51994 0.0
H3107 H 0.81147 0.89314 0.54524 0.0
H3108 H 0.76083 0.88759 0.51407 0.0
H3109 H 0.77143 0.83192 0.51203 0.0
H3110 H 0.77199 0.80308 0.52195 0.0
H3111 H 0.70865 0.77246 0.52677 0.0
H3112 H 0.70773 0.80125 0.51708 0.0
H3113 H 0.70862 0.85941 0.43975 0.0
H3114 H 0.73272 0.86414 0.46051 0.0
H3115 H 0.68486 0.82237 0.48766 0.0
H3116 H 0.66061 0.81651 0.46643 0.0
H3117 H 0.7161 0.81725 0.48993 0.0
H3118 H 0.70593 0.87386 0.49537 0.0
H3119 H 0.70461 0.90262 0.4861 0.0
H3120 H 0.76653 0.93139 0.47581 0.0
H3121 H 0.76815 0.90267 0.48486 0.0
C3122 C 0.76617 0.8587 0.55811 0.0
C3123 C 0.78655 0.87368 0.55899 0.0
C3124 C 0.75508 0.85241 0.54364 0.0
C3125 C 0.76415 0.86095 0.52979 0.0
C3126 C 0.78466 0.87534 0.53051 0.0
C3127 C 0.7958 0.88157 0.54497 0.0
C3128 C 0.7518 0.85627 0.51497 0.0
C3129 C 0.75138 0.87225 0.50858 0.0
C3130 C 0.73906 0.8362 0.50811 0.0
C3131 C 0.73954 0.81883 0.51394 0.0
C3132 C 0.75764 0.81911 0.51533 0.0
C3133 C 0.75802 0.80276 0.52088 0.0
C3134 C 0.74037 0.78597 0.52502 0.0
C3135 C 0.7223 0.78548 0.52357 0.0
C3136 C 0.72184 0.80181 0.51802 0.0
C3137 C 0.70317 0.85087 0.44996 0.0
C3138 C 0.68259 0.83763 0.45143 0.0
C3139 C 0.717 0.85377 0.46191 0.0
C3140 C 0.71057 0.84389 0.47576 0.0
C3141 C 0.69014 0.83023 0.4771 0.0
C3142 C 0.67627 0.82711 0.46504 0.0
C3143 C 0.72502 0.84854 0.48917 0.0
C3144 C 0.72578 0.83259 0.49531 0.0
C3145 C 0.73798 0.86864 0.49592 0.0
C3146 C 0.73711 0.88603 0.49064 0.0
C3147 C 0.71923 0.88627 0.49104 0.0
C3148 C 0.71843 0.90256 0.48584 0.0
C3149 C 0.73545 0.91879 0.48033 0.0
C3150 C 0.75334 0.9188 0.48006 0.0
C3151 C 0.75422 0.90253 0.48524 0.0
H3152 H 0.73477 0.93137 0.47631 0.0
H3153 H 0.7407 0.77332 0.52932 0.0
H3154 H 0.09466 0.88264 0.56325 0.0
H3155 H 0.11293 0.87665 0.54232 0.0
H3156 H 0.06989 0.87116 0.5071 0.0
H3157 H 0.05184 0.87774 0.52799 0.0
H3158 H 0.07915 0.84079 0.50276 0.0
H3159 H 0.11396 0.91375 0.51195 0.0
H3160 H 0.13169 0.94624 0.52871 0.0
H3161 H 0.17657 0.93328 0.54268 0.0
H3162 H 0.15895 0.90056 0.52616 0.0
H3163 H 0.13081 0.84274 0.43457 0.0
H3164 H 0.11299 0.84953 0.45517 0.0
H3165 H 0.16231 0.86809 0.48895 0.0
H3166 H 0.1812 0.86352 0.46799 0.0
H3167 H 0.14962 0.89184 0.49439 0.0
H3168 H 0.11603 0.81941 0.48627 0.0
H3169 H 0.09844 0.7859 0.4709 0.0
H3170 H 0.05173 0.79609 0.45664 0.0
H3171 H 0.0692 0.8298 0.47175 0.0
C3172 C 0.0894 0.88075 0.55105 0.0
C3173 C 0.07221 0.88137 0.54723 0.0
C3174 C 0.09971 0.87705 0.53911 0.0
C3175 C 0.09291 0.87377 0.52316 0.0
C3176 C 0.07542 0.87376 0.51934 0.0
C3177 C 0.06516 0.87755 0.53127 0.0
C3178 C 0.10408 0.87037 0.51045 0.0
C3179 C 0.09449 0.85201 0.50076 0.0
C3180 C 0.12425 0.8848 0.50822 0.0
C3181 C 0.13504 0.90463 0.51793 0.0
C3182 C 0.12754 0.91777 0.51867 0.0
C3183 C 0.13758 0.93624 0.52812 0.0
C3184 C 0.15521 0.9418 0.53679 0.0
C3185 C 0.16289 0.92894 0.53597 0.0
C3186 C 0.1529 0.91045 0.52656 0.0
C3187 C 0.13815 0.84868 0.44627 0.0
C3188 C 0.15759 0.85257 0.44949 0.0
C3189 C 0.12769 0.85216 0.45818 0.0
C3190 C 0.13605 0.85886 0.47377 0.0
C3191 C 0.15543 0.86279 0.47705 0.0
C3192 C 0.16614 0.85987 0.46504 0.0
C3193 C 0.12477 0.8621 0.4866 0.0
C3194 C 0.13431 0.8805 0.49633 0.0
C3195 C 0.10463 0.84752 0.48904 0.0
C3196 C 0.09402 0.8272 0.48003 0.0
C3197 C 0.10208 0.81455 0.47978 0.0
C3198 C 0.09212 0.79553 0.47111 0.0
C3199 C 0.07401 0.78891 0.46275 0.0
C3200 C 0.06579 0.80127 0.46308 0.0
C3201 C 0.07569 0.82033 0.47171 0.0
H3202 H 0.06633 0.77417 0.45605 0.0
H3203 H 0.16295 0.95609 0.54411 0.0
H3204 H 0.60963 0.82059 0.10982 0.0
H3205 H 0.62682 0.8278 0.13586 0.0
H3206 H 0.57042 0.80255 0.15797 0.0
H3207 H 0.55306 0.79517 0.13201 0.0
H3208 H 0.62945 0.84948 0.16437 0.0
H3209 H 0.57115 0.77311 0.18585 0.0
H3210 H 0.54542 0.73875 0.17469 0.0
H3211 H 0.57824 0.74588 0.13278 0.0
H3212 H 0.60427 0.78014 0.14378 0.0
H3213 H 0.651 0.84577 0.24603 0.0
H3214 H 0.63365 0.84356 0.22105 0.0
H3215 H 0.65006 0.80202 0.1994 0.0
H3216 H 0.6671 0.8039 0.22435 0.0
H3217 H 0.61108 0.78908 0.19284 0.0
H3218 H 0.67472 0.85037 0.19143 0.0
H3219 H 0.70214 0.88434 0.20162 0.0
H3220 H 0.66197 0.9068 0.20172 0.0
H3221 H 0.63424 0.87287 0.19172 0.0
C3222 C 0.60089 0.81684 0.12024 0.0
C3223 C 0.57994 0.80707 0.11881 0.0
C3224 C 0.61075 0.82105 0.13511 0.0
C3225 C 0.59986 0.81546 0.14879 0.0
C3226 C 0.57907 0.80676 0.14752 0.0
C3227 C 0.56919 0.80259 0.13266 0.0
C3228 C 0.61005 0.81721 0.16415 0.0
C3229 C 0.62537 0.83632 0.17066 0.0
C3230 C 0.60492 0.79997 0.17221 0.0
C3231 C 0.58952 0.77926 0.16557 0.0
C3232 C 0.57289 0.7673 0.17428 0.0
C3233 C 0.55826 0.74785 0.16798 0.0
C3234 C 0.56016 0.74017 0.15301 0.0
C3235 C 0.57674 0.75188 0.14434 0.0
C3236 C 0.59143 0.77132 0.1506 0.0
C3237 C 0.65079 0.83609 0.23595 0.0
C3238 C 0.66045 0.82505 0.23711 0.0
C3239 C 0.64101 0.83495 0.22168 0.0
C3240 C 0.6407 0.82274 0.20836 0.0
C3241 C 0.65016 0.81157 0.20954 0.0
C3242 C 0.66001 0.81277 0.22376 0.0
C3243 C 0.6304 0.82139 0.19316 0.0
C3244 C 0.61504 0.80231 0.18667 0.0
C3245 C 0.63571 0.83862 0.18503 0.0
C3246 C 0.65237 0.85903 0.19099 0.0
C3247 C 0.6717 0.86251 0.19375 0.0
C3248 C 0.6873 0.88176 0.19947 0.0
C3249 C 0.68379 0.89771 0.20236 0.0
C3250 C 0.66467 0.89443 0.19949 0.0
C3251 C 0.64901 0.8752 0.19379 0.0
H3252 H 0.69589 0.9126 0.20678 0.0
H3253 H 0.5488 0.72512 0.14815 0.0
H3254 H 0.23893 0.81945 0.11763 0.0
H3255 H 0.22948 0.82898 0.1428 0.0
H3256 H 0.24517 0.79119 0.16647 0.0
H3257 H 0.2541 0.78113 0.14124 0.0
H3258 H 0.20997 0.78262 0.17378 0.0
H3259 H 0.27233 0.84396 0.1735 0.0
H3260 H 0.29903 0.87449 0.1627 0.0
H3261 H 0.2591 0.8967 0.15776 0.0
H3262 H 0.23207 0.86617 0.16833 0.0
H3263 H 0.20501 0.84661 0.24773 0.0
H3264 H 0.22377 0.84267 0.22609 0.0
H3265 H 0.16872 0.80372 0.19823 0.0
H3266 H 0.14986 0.80698 0.21996 0.0
H3267 H 0.22769 0.85158 0.19578 0.0
H3268 H 0.17142 0.76629 0.17758 0.0
H3269 H 0.14712 0.73594 0.19009 0.0
H3270 H 0.17978 0.76198 0.23502 0.0
H3271 H 0.20443 0.79235 0.22275 0.0
C3272 C 0.24075 0.81347 0.12824 0.0
C3273 C 0.24712 0.7994 0.1274 0.0
C3274 C 0.23541 0.81901 0.14266 0.0
C3275 C 0.23664 0.81085 0.15657 0.0
C3276 C 0.24398 0.79761 0.15589 0.0
C3277 C 0.24914 0.79192 0.14145 0.0
C3278 C 0.2285 0.81456 0.17143 0.0
C3279 C 0.21397 0.79773 0.17862 0.0
C3280 C 0.2339 0.83427 0.17795 0.0
C3281 C 0.25012 0.85268 0.1716 0.0
C3282 C 0.26919 0.85528 0.17 0.0
C3283 C 0.2844 0.8726 0.16394 0.0
C3284 C 0.28075 0.88751 0.15952 0.0
C3285 C 0.2619 0.88514 0.16118 0.0
C3286 C 0.24664 0.86784 0.16723 0.0
C3287 C 0.1969 0.83708 0.23704 0.0
C3288 C 0.17592 0.82698 0.23562 0.0
C3289 C 0.20765 0.83501 0.22463 0.0
C3290 C 0.19763 0.82273 0.21063 0.0
C3291 C 0.17674 0.81306 0.20902 0.0
C3292 C 0.16599 0.81509 0.2214 0.0
C3293 C 0.20888 0.81963 0.19776 0.0
C3294 C 0.22389 0.83653 0.19097 0.0
C3295 C 0.20429 0.80001 0.1918 0.0
C3296 C 0.18967 0.78167 0.19925 0.0
C3297 C 0.17347 0.7655 0.19011 0.0
C3298 C 0.15962 0.7483 0.19717 0.0
C3299 C 0.16187 0.74706 0.21335 0.0
C3300 C 0.17801 0.76299 0.2225 0.0
C3301 C 0.19191 0.78021 0.2155 0.0
H3302 H 0.15113 0.73374 0.21878 0.0
H3303 H 0.29254 0.90091 0.15483 0.0
H3304 H 0.24977 0.43616 0.12717 0.0
H3305 H 0.24245 0.42141 0.1526 0.0
H3306 H 0.1827 0.41082 0.14825 0.0
H3307 H 0.18997 0.42586 0.12314 0.0
H3308 H 0.19755 0.42496 0.17766 0.0
H3309 H 0.19355 0.3727 0.13947 0.0
H3310 H 0.2064 0.35841 0.11899 0.0
H3311 H 0.25376 0.36904 0.15171 0.0
H3312 H 0.24131 0.38363 0.17233 0.0
H3313 H 0.14064 0.34558 0.22496 0.0
H3314 H 0.15569 0.36592 0.20279 0.0
H3315 H 0.21351 0.37745 0.21856 0.0
H3316 H 0.1985 0.35702 0.24084 0.0
H3317 H 0.20433 0.36576 0.18551 0.0
H3318 H 0.20578 0.41438 0.22466 0.0
H3319 H 0.19205 0.42755 0.24523 0.0
H3320 H 0.14905 0.42318 0.21086 0.0
H3321 H 0.16235 0.40972 0.1901 0.0
C3322 C 0.2351 0.43075 0.13166 0.0
C3323 C 0.22045 0.43215 0.12305 0.0
C3324 C 0.23091 0.42225 0.14618 0.0
C3325 C 0.21194 0.41479 0.15229 0.0
C3326 C 0.19745 0.41649 0.14383 0.0
C3327 C 0.20164 0.42505 0.1294 0.0
C3328 C 0.20686 0.40489 0.16733 0.0
C3329 C 0.19894 0.41195 0.17931 0.0
C3330 C 0.20919 0.38826 0.16975 0.0
C3331 C 0.21665 0.37947 0.15737 0.0
C3332 C 0.20679 0.37213 0.14225 0.0
C3333 C 0.21399 0.36396 0.13063 0.0
C3334 C 0.23093 0.36288 0.13403 0.0
C3335 C 0.24067 0.36993 0.14908 0.0
C3336 C 0.23355 0.37814 0.16074 0.0
C3337 C 0.15655 0.35238 0.22367 0.0
C3338 C 0.16839 0.34969 0.23461 0.0
C3339 C 0.16514 0.36409 0.21107 0.0
C3340 C 0.18573 0.37328 0.20909 0.0
C3341 C 0.1976 0.37051 0.21991 0.0
C3342 C 0.18904 0.35896 0.23266 0.0
C3343 C 0.19461 0.38556 0.19557 0.0
C3344 C 0.20323 0.37896 0.18392 0.0
C3345 C 0.1929 0.40258 0.19344 0.0
C3346 C 0.18498 0.4109 0.20584 0.0
C3347 C 0.1933 0.41609 0.2215 0.0
C3348 C 0.18561 0.42362 0.2332 0.0
C3349 C 0.16965 0.42615 0.22937 0.0
C3350 C 0.1614 0.42121 0.21382 0.0
C3351 C 0.16904 0.41365 0.20207 0.0
H3352 H 0.16371 0.43197 0.23845 0.0
H3353 H 0.23647 0.35654 0.12501 0.0
H3354 H 0.76379 0.56267 0.87957 0.0
H3355 H 0.77569 0.57845 0.85494 0.0
H3356 H 0.83406 0.5882 0.86628 0.0
H3357 H 0.82232 0.57245 0.89099 0.0
H3358 H 0.83568 0.62225 0.85717 0.0
H3359 H 0.80424 0.5521 0.83775 0.0
H3360 H 0.77685 0.51647 0.83389 0.0
H3361 H 0.7401 0.53409 0.81035 0.0
H3362 H 0.76719 0.56987 0.81428 0.0
H3363 H 0.87678 0.65489 0.78374 0.0
H3364 H 0.86459 0.63535 0.80666 0.0
H3365 H 0.80482 0.62121 0.79434 0.0
H3366 H 0.81693 0.64063 0.77127 0.0
H3367 H 0.80409 0.58885 0.80384 0.0
H3368 H 0.83415 0.65855 0.82389 0.0
H3369 H 0.86081 0.69448 0.82793 0.0
H3370 H 0.89913 0.67817 0.85064 0.0
H3371 H 0.87278 0.64209 0.84654 0.0
C3372 C 0.77914 0.56805 0.87681 0.0
C3373 C 0.79209 0.56628 0.8873 0.0
C3374 C 0.78589 0.577 0.86267 0.0
C3375 C 0.80572 0.58438 0.85871 0.0
C3376 C 0.81868 0.58257 0.86909 0.0
C3377 C 0.81191 0.5735 0.8832 0.0
C3378 C 0.81313 0.59468 0.84403 0.0
C3379 C 0.82899 0.61484 0.84548 0.0
C3380 C 0.80399 0.58521 0.82883 0.0
C3381 C 0.78768 0.5637 0.82645 0.0
C3382 C 0.79026 0.5484 0.83187 0.0
C3383 C 0.7748 0.52817 0.82965 0.0
C3384 C 0.75673 0.52303 0.82191 0.0
C3385 C 0.7541 0.5381 0.81636 0.0
C3386 C 0.76951 0.55835 0.81857 0.0
C3387 C 0.86105 0.6477 0.78595 0.0
C3388 C 0.84788 0.64955 0.77581 0.0
C3389 C 0.85409 0.63651 0.79905 0.0
C3390 C 0.83384 0.62713 0.80242 0.0
C3391 C 0.82052 0.62837 0.79202 0.0
C3392 C 0.82746 0.63946 0.77883 0.0
C3393 C 0.82669 0.61643 0.81698 0.0
C3394 C 0.81084 0.59623 0.81552 0.0
C3395 C 0.83571 0.62592 0.83222 0.0
C3396 C 0.85156 0.64761 0.83476 0.0
C3397 C 0.84831 0.66262 0.82964 0.0
C3398 C 0.86336 0.68301 0.83196 0.0
C3399 C 0.88167 0.6886 0.8395 0.0
C3400 C 0.88495 0.67381 0.84478 0.0
C3401 C 0.86996 0.65339 0.84247 0.0
H3402 H 0.8933 0.7044 0.84129 0.0
H3403 H 0.74478 0.50735 0.8202 0.0
H3404 H 0.42735 0.19436 0.90162 0.0
H3405 H 0.40824 0.18414 0.87622 0.0
H3406 H 0.46227 0.22093 0.85262 0.0
H3407 H 0.48153 0.2314 0.878 0.0
H3408 H 0.4337 0.22916 0.84558 0.0
H3409 H 0.43794 0.16965 0.84645 0.0
H3410 H 0.43496 0.1399 0.85782 0.0
H3411 H 0.37193 0.11498 0.86132 0.0
H3412 H 0.37456 0.14474 0.85018 0.0
H3413 H 0.38581 0.2017 0.76938 0.0
H3414 H 0.40781 0.20543 0.79159 0.0
H3415 H 0.35665 0.16745 0.81773 0.0
H3416 H 0.33449 0.16269 0.7952 0.0
H3417 H 0.38541 0.15925 0.8224 0.0
H3418 H 0.38133 0.21943 0.82415 0.0
H3419 H 0.38367 0.24932 0.81351 0.0
H3420 H 0.44583 0.27306 0.80603 0.0
H3421 H 0.44379 0.24316 0.81643 0.0
C3422 C 0.43525 0.20004 0.891 0.0
C3423 C 0.45596 0.21382 0.89187 0.0
C3424 C 0.42429 0.19409 0.87647 0.0
C3425 C 0.43385 0.20173 0.86252 0.0
C3426 C 0.45462 0.21487 0.86325 0.0
C3427 C 0.4656 0.2208 0.87777 0.0
C3428 C 0.42195 0.19743 0.84748 0.0
C3429 C 0.42344 0.21387 0.84033 0.0
C3430 C 0.40813 0.17747 0.84093 0.0
C3431 C 0.40648 0.15952 0.8476 0.0
C3432 C 0.42346 0.15791 0.84976 0.0
C3433 C 0.42184 0.14103 0.85614 0.0
C3434 C 0.40328 0.12558 0.86032 0.0
C3435 C 0.3863 0.12697 0.85809 0.0
C3436 C 0.38785 0.14383 0.85172 0.0
C3437 C 0.37918 0.19379 0.77971 0.0
C3438 C 0.35832 0.18199 0.78052 0.0
C3439 C 0.39182 0.19613 0.79248 0.0
C3440 C 0.38387 0.18701 0.80643 0.0
C3441 C 0.36311 0.17471 0.80711 0.0
C3442 C 0.35045 0.17221 0.79428 0.0
C3443 C 0.39716 0.19098 0.82055 0.0
C3444 C 0.39586 0.17452 0.82756 0.0
C3445 C 0.41107 0.21093 0.82709 0.0
C3446 C 0.41235 0.22896 0.82091 0.0
C3447 C 0.39546 0.23095 0.82013 0.0
C3448 C 0.39674 0.24791 0.81416 0.0
C3449 C 0.41487 0.26305 0.80906 0.0
C3450 C 0.43178 0.2613 0.80996 0.0
C3451 C 0.43058 0.24437 0.8159 0.0
H3452 H 0.41583 0.27616 0.80444 0.0
H3453 H 0.40205 0.11252 0.86526 0.0
H3454 H 0.78631 0.21185 0.90118 0.0
H3455 H 0.79979 0.20529 0.87709 0.0
H3456 H 0.74713 0.19246 0.84982 0.0
H3457 H 0.7334 0.19915 0.87398 0.0
H3458 H 0.76228 0.16521 0.84193 0.0
H3459 H 0.78454 0.23638 0.84835 0.0
H3460 H 0.79954 0.26993 0.86351 0.0
H3461 H 0.85422 0.27047 0.87101 0.0
H3462 H 0.83945 0.23678 0.85607 0.0
H3463 H 0.80724 0.17065 0.76853 0.0
H3464 H 0.78908 0.17491 0.79025 0.0
H3465 H 0.84318 0.20497 0.82037 0.0
H3466 H 0.86182 0.2026 0.79824 0.0
H3467 H 0.82488 0.22368 0.82578 0.0
H3468 H 0.80366 0.15289 0.82171 0.0
H3469 H 0.78952 0.11853 0.80814 0.0
H3470 H 0.73439 0.1161 0.79787 0.0
H3471 H 0.7483 0.15055 0.81123 0.0
C3472 C 0.77741 0.2074 0.89013 0.0
C3473 C 0.75883 0.20621 0.88949 0.0
C3474 C 0.78519 0.20369 0.87636 0.0
C3475 C 0.77455 0.19865 0.8617 0.0
C3476 C 0.75556 0.1964 0.86107 0.0
C3477 C 0.74778 0.20027 0.87486 0.0
C3478 C 0.78393 0.19691 0.84701 0.0
C3479 C 0.77579 0.17801 0.8382 0.0
C3480 C 0.8018 0.21356 0.84245 0.0
C3481 C 0.81083 0.23399 0.85119 0.0
C3482 C 0.79972 0.2436 0.85332 0.0
C3483 C 0.80819 0.26265 0.86186 0.0
C3484 C 0.82781 0.27231 0.86825 0.0
C3485 C 0.83902 0.26296 0.86606 0.0
C3486 C 0.83062 0.2439 0.85754 0.0
C3487 C 0.81541 0.17856 0.77964 0.0
C3488 C 0.83608 0.18631 0.78152 0.0
C3489 C 0.80488 0.18064 0.7922 0.0
C3490 C 0.81463 0.1899 0.80711 0.0
C3491 C 0.83525 0.19767 0.80902 0.0
C3492 C 0.84588 0.19605 0.79636 0.0
C3493 C 0.80354 0.19178 0.82072 0.0
C3494 C 0.81132 0.21079 0.82936 0.0
C3495 C 0.78552 0.17513 0.82525 0.0
C3496 C 0.77709 0.15436 0.81733 0.0
C3497 C 0.78857 0.14507 0.81647 0.0
C3498 C 0.78059 0.12557 0.80883 0.0
C3499 C 0.76109 0.11516 0.80211 0.0
C3500 C 0.7495 0.1242 0.80306 0.0
C3501 C 0.75742 0.1437 0.81068 0.0
H3502 H 0.75494 0.10007 0.79619 0.0
H3503 H 0.83433 0.28704 0.87487 0.0
H3504 H 0.2184 0.12225 0.46132 0.0
H3505 H 0.23642 0.1312 0.48712 0.0
H3506 H 0.2916 0.17024 0.46569 0.0
H3507 H 0.27376 0.16101 0.43978 0.0
H3508 H 0.29554 0.14526 0.48235 0.0
H3509 H 0.26965 0.18913 0.49188 0.0
H3510 H 0.24399 0.19866 0.49328 0.0
H3511 H 0.2141 0.15651 0.52784 0.0
H3512 H 0.23943 0.1465 0.52648 0.0
H3513 H 0.3541 0.1805 0.55451 0.0
H3514 H 0.33677 0.18038 0.53032 0.0
H3515 H 0.28029 0.13748 0.54808 0.0
H3516 H 0.29752 0.13741 0.57226 0.0
H3517 H 0.27814 0.16686 0.53348 0.0
H3518 H 0.3023 0.1212 0.52221 0.0
H3519 H 0.32782 0.11146 0.52092 0.0
H3520 H 0.36071 0.15707 0.48943 0.0
H3521 H 0.33551 0.16728 0.49072 0.0
C3522 C 0.23431 0.13303 0.46213 0.0
C3523 C 0.24467 0.14079 0.44847 0.0
C3524 C 0.24459 0.13821 0.47693 0.0
C3525 C 0.26537 0.15146 0.47836 0.0
C3526 C 0.27558 0.15995 0.46485 0.0
C3527 C 0.26535 0.15467 0.45005 0.0
C3528 C 0.27669 0.15488 0.49357 0.0
C3529 C 0.29198 0.1504 0.49347 0.0
C3530 C 0.27167 0.161 0.50816 0.0
C3531 C 0.25636 0.16694 0.50897 0.0
C3532 C 0.25752 0.18176 0.49968 0.0
C3533 C 0.24304 0.18728 0.50049 0.0
C3534 C 0.2274 0.17816 0.51061 0.0
C3535 C 0.22621 0.16354 0.51998 0.0
C3536 C 0.24064 0.15796 0.51921 0.0
C3537 C 0.338 0.17101 0.55325 0.0
C3538 C 0.3272 0.15882 0.56523 0.0
C3539 C 0.32812 0.17103 0.53946 0.0
C3540 C 0.30727 0.15876 0.53735 0.0
C3541 C 0.29638 0.1471 0.5495 0.0
C3542 C 0.30625 0.14709 0.56331 0.0
C3543 C 0.29692 0.15728 0.52215 0.0
C3544 C 0.28179 0.16199 0.52229 0.0
C3545 C 0.30203 0.15134 0.50756 0.0
C3546 C 0.31713 0.14514 0.5067 0.0
C3547 C 0.31505 0.12926 0.51511 0.0
C3548 C 0.32945 0.12363 0.51436 0.0
C3549 C 0.3459 0.13367 0.50513 0.0
C3550 C 0.34797 0.14933 0.4966 0.0
C3551 C 0.33363 0.15503 0.49732 0.0
H3552 H 0.35703 0.1293 0.50456 0.0
H3553 H 0.21621 0.18246 0.51123 0.0
H3554 H 0.90166 0.11664 0.45559 0.0
H3555 H 0.88782 0.11612 0.48153 0.0
H3556 H 0.86955 0.15703 0.46759 0.0
H3557 H 0.88339 0.15762 0.44172 0.0
H3558 H 0.88592 0.16885 0.4961 0.0
H3559 H 0.83401 0.10551 0.46987 0.0
H3560 H 0.81953 0.07186 0.45494 0.0
H3561 H 0.84229 0.05219 0.49137 0.0
H3562 H 0.85667 0.08569 0.50662 0.0
H3563 H 0.79918 0.1205 0.55278 0.0
H3564 H 0.81421 0.11865 0.52805 0.0
H3565 H 0.87292 0.15709 0.55089 0.0
H3566 H 0.85802 0.1602 0.57538 0.0
H3567 H 0.83686 0.10523 0.51819 0.0
H3568 H 0.90498 0.18684 0.52497 0.0
H3569 H 0.9147 0.22046 0.53823 0.0
H3570 H 0.85326 0.2043 0.53725 0.0
H3571 H 0.84322 0.1707 0.52381 0.0
C3572 C 0.89435 0.1252 0.45796 0.0
C3573 C 0.89326 0.13685 0.44652 0.0
C3574 C 0.88653 0.12497 0.47281 0.0
C3575 C 0.87739 0.13632 0.47645 0.0
C3576 C 0.87652 0.14814 0.46508 0.0
C3577 C 0.88444 0.14847 0.45029 0.0
C3578 C 0.86908 0.13629 0.49219 0.0
C3579 C 0.87525 0.15492 0.50094 0.0
C3580 C 0.85495 0.11817 0.49846 0.0
C3581 C 0.84658 0.09813 0.48928 0.0
C3582 C 0.83602 0.09404 0.47463 0.0
C3583 C 0.82778 0.07498 0.46615 0.0
C3584 C 0.83013 0.05994 0.47213 0.0
C3585 C 0.84055 0.06387 0.48671 0.0
C3586 C 0.84865 0.08286 0.49532 0.0
C3587 C 0.8153 0.12878 0.55253 0.0
C3588 C 0.82734 0.14076 0.56607 0.0
C3589 C 0.82388 0.12748 0.53841 0.0
C3590 C 0.84471 0.13797 0.5375 0.0
C3591 C 0.8568 0.14916 0.55119 0.0
C3592 C 0.84823 0.15072 0.56527 0.0
C3593 C 0.85363 0.13781 0.52208 0.0
C3594 C 0.84767 0.11915 0.51341 0.0
C3595 C 0.86746 0.15595 0.51564 0.0
C3596 C 0.87335 0.17619 0.52355 0.0
C3597 C 0.89357 0.1905 0.52754 0.0
C3598 C 0.89913 0.20954 0.5351 0.0
C3599 C 0.8846 0.21449 0.53863 0.0
C3600 C 0.86449 0.20043 0.53456 0.0
C3601 C 0.85885 0.18137 0.52699 0.0
H3602 H 0.88893 0.22923 0.54449 0.0
H3603 H 0.82381 0.04522 0.4655 0.0
H3604 H 0.90047 0.7449 0.45282 0.0
H3605 H 0.89213 0.7275 0.47709 0.0
H3606 H 0.85898 0.75607 0.49175 0.0
H3607 H 0.86697 0.77328 0.46748 0.0
H3608 H 0.88379 0.75474 0.51684 0.0
H3609 H 0.83366 0.71112 0.47502 0.0
H3610 H 0.82255 0.69228 0.44848 0.0
H3611 H 0.85004 0.65829 0.45904 0.0
H3612 H 0.86155 0.67716 0.48558 0.0
H3613 H 0.82021 0.69246 0.57342 0.0
H3614 H 0.83622 0.71358 0.55184 0.0
H3615 H 0.85278 0.67103 0.53267 0.0
H3616 H 0.83603 0.64952 0.55389 0.0
H3617 H 0.83915 0.68011 0.50994 0.0
H3618 H 0.88872 0.72136 0.55141 0.0
H3619 H 0.90309 0.7412 0.57731 0.0
H3620 H 0.87963 0.77908 0.56801 0.0
H3621 H 0.86538 0.75972 0.54193 0.0
C3622 C 0.89162 0.74768 0.4613 0.0
C3623 C 0.88427 0.76037 0.45816 0.0
C3624 C 0.88685 0.7377 0.47514 0.0
C3625 C 0.87487 0.74045 0.48617 0.0
C3626 C 0.86827 0.75379 0.4834 0.0
C3627 C 0.87277 0.76351 0.46948 0.0
C3628 C 0.86806 0.72842 0.50004 0.0
C3629 C 0.87393 0.73843 0.5154 0.0
C3630 C 0.85567 0.70711 0.49811 0.0
C3631 C 0.84865 0.69571 0.4822 0.0
C3632 C 0.83748 0.69976 0.47163 0.0
C3633 C 0.83108 0.68905 0.4566 0.0
C3634 C 0.83564 0.67414 0.45206 0.0
C3635 C 0.84655 0.66987 0.46256 0.0
C3636 C 0.85301 0.68056 0.4776 0.0
C3637 C 0.82737 0.6877 0.56462 0.0
C3638 C 0.8267 0.66925 0.56522 0.0
C3639 C 0.8367 0.69988 0.55236 0.0
C3640 C 0.84602 0.69412 0.54066 0.0
C3641 C 0.84568 0.67584 0.54148 0.0
C3642 C 0.83604 0.6635 0.55357 0.0
C3643 C 0.85485 0.70633 0.52698 0.0
C3644 C 0.84924 0.69638 0.51155 0.0
C3645 C 0.86779 0.72765 0.5289 0.0
C3646 C 0.87586 0.739 0.54475 0.0
C3647 C 0.88649 0.73383 0.55493 0.0
C3648 C 0.89466 0.74501 0.56963 0.0
C3649 C 0.89217 0.76128 0.57434 0.0
C3650 C 0.88154 0.76646 0.56435 0.0
C3651 C 0.87351 0.75547 0.54957 0.0
H3652 H 0.89857 0.76995 0.5857 0.0
H3653 H 0.83067 0.66586 0.44042 0.0
loop_
_geom_bond_atom_site_label_1
_geom_bond_atom_site_label_2
_geom_bond_distance
_geom_bond_site_symmetry_2
_ccdc_geom_bond_type
O0 Cd1 2.300 . S
O0 C7 1.275 . S
Cd1 O0 2.300 . S
Cd1 O9 2.381 . S
Cd1 O10 2.378 . S
O2 Cd3 2.385 . S
O2 C7 1.255 . S
Cd3 O2 2.385 . S
Cd3 O4 2.317 . S
O4 Cd3 2.317 . S
O4 C5 1.232 . S
C5 O4 1.232 . S
C5 O6 1.218 . S
O6 C5 1.218 . S
C7 O0 1.275 . S
C7 O2 1.255 . S
C8 O9 1.258 . S
C8 O10 1.256 . S
O9 Cd1 2.381 . S
O9 C8 1.258 . S
O10 Cd1 2.378 . S
O10 C8 1.256 . S
O11 Cd12 2.300 . S
O11 C18 1.275 . S
Cd12 O11 2.300 . S
Cd12 O20 2.381 . S
Cd12 O21 2.378 . S
O13 Cd14 2.385 . S
O13 C18 1.255 . S
Cd14 O13 2.385 . S
Cd14 O15 2.317 . S
O15 Cd14 2.317 . S
O15 C16 1.232 . S
C16 O15 1.232 . S
C16 O17 1.218 . S
O17 C16 1.218 . S
C18 O11 1.275 . S
C18 O13 1.255 . S
C19 O20 1.258 . S
C19 O21 1.256 . S
O20 Cd12 2.381 . S
O20 C19 1.258 . S
O21 Cd12 2.378 . S
O21 C19 1.256 . S
O22 Cd23 2.300 . S
O22 C29 1.275 . S
Cd23 O22 2.300 . S
Cd23 O31 2.381 . S
Cd23 O32 2.378 . S
O24 Cd25 2.385 . S
O24 C29 1.255 . S
Cd25 O24 2.385 . S
Cd25 O26 2.317 . S
O26 Cd25 2.317 . S
O26 C27 1.232 . S
C27 O26 1.232 . S
C27 O28 1.218 . S
O28 C27 1.218 . S
C29 O22 1.275 . S
C29 O24 1.255 . S
C30 O31 1.258 . S
C30 O32 1.256 . S
O31 Cd23 2.381 . S
O31 C30 1.258 . S
O32 Cd23 2.378 . S
O32 C30 1.256 . S
O33 Cd34 2.300 . S
O33 C40 1.275 . S
Cd34 O33 2.300 . S
Cd34 O42 2.381 . S
Cd34 O43 2.378 . S
O35 Cd36 2.385 . S
O35 C40 1.255 . S
Cd36 O35 2.385 . S
Cd36 O37 2.317 . S
O37 Cd36 2.317 . S
O37 C38 1.232 . S
C38 O37 1.232 . S
C38 O39 1.218 . S
O39 C38 1.218 . S
C40 O33 1.275 . S
C40 O35 1.255 . S
C41 O42 1.258 . S
C41 O43 1.256 . S
O42 Cd34 2.381 . S
O42 C41 1.258 . S
O43 Cd34 2.378 . S
O43 C41 1.256 . S
O44 Cd45 2.300 . S
O44 C51 1.275 . S
Cd45 O44 2.300 . S
Cd45 O53 2.381 . S
Cd45 O54 2.378 . S
O46 Cd47 2.385 . S
O46 C51 1.255 . S
Cd47 O46 2.385 . S
Cd47 O48 2.317 . S
O48 Cd47 2.317 . S
O48 C49 1.232 . S
C49 O48 1.232 . S
C49 O50 1.218 . S
O50 C49 1.218 . S
C51 O44 1.275 . S
C51 O46 1.255 . S
C52 O53 1.258 . S
C52 O54 1.256 . S
O53 Cd45 2.381 . S
O53 C52 1.258 . S
O54 Cd45 2.378 . S
O54 C52 1.256 . S
O55 Cd56 2.300 . S
O55 C62 1.275 . S
Cd56 O55 2.300 . S
Cd56 O64 2.381 . S
Cd56 O65 2.378 . S
O57 Cd58 2.385 . S
O57 C62 1.255 . S
Cd58 O57 2.385 . S
Cd58 O59 2.317 . S
O59 Cd58 2.317 . S
O59 C60 1.232 . S
C60 O59 1.232 . S
C60 O61 1.218 . S
O61 C60 1.218 . S
C62 O55 1.275 . S
C62 O57 1.255 . S
C63 O64 1.258 . S
C63 O65 1.256 . S
O64 Cd56 2.381 . S
O64 C63 1.258 . S
O65 Cd56 2.378 . S
O65 C63 1.256 . S
O66 Cd67 2.300 . S
O66 C73 1.275 . S
Cd67 O66 2.300 . S
Cd67 O75 2.381 . S
Cd67 O76 2.378 . S
O68 Cd69 2.385 . S
O68 C73 1.255 . S
Cd69 O68 2.385 . S
Cd69 O70 2.317 . S
O70 Cd69 2.317 . S
O70 C71 1.232 . S
C71 O70 1.232 . S
C71 O72 1.218 . S
O72 C71 1.218 . S
C73 O66 1.275 . S
C73 O68 1.255 . S
C74 O75 1.258 . S
C74 O76 1.256 . S
O75 Cd67 2.381 . S
O75 C74 1.258 . S
O76 Cd67 2.378 . S
O76 C74 1.256 . S
O77 Cd78 2.300 . S
O77 C84 1.275 . S
Cd78 O77 2.300 . S
Cd78 O86 2.381 . S
Cd78 O87 2.378 . S
O79 Cd80 2.385 . S
O79 C84 1.255 . S
Cd80 O79 2.385 . S
Cd80 O81 2.317 . S
O81 Cd80 2.317 . S
O81 C82 1.232 . S
C82 O81 1.232 . S
C82 O83 1.218 . S
O83 C82 1.218 . S
C84 O77 1.275 . S
C84 O79 1.255 . S
C85 O86 1.258 . S
C85 O87 1.256 . S
O86 Cd78 2.381 . S
O86 C85 1.258 . S
O87 Cd78 2.378 . S
O87 C85 1.256 . S
O88 Cd89 2.300 . S
O88 C95 1.275 . S
Cd89 O88 2.300 . S
Cd89 O97 2.381 . S
Cd89 O98 2.378 . S
O90 Cd91 2.385 . S
O90 C95 1.255 . S
Cd91 O90 2.385 . S
Cd91 O92 2.317 . S
O92 Cd91 2.317 . S
O92 C93 1.232 . S
C93 O92 1.232 . S
C93 O94 1.218 . S
O94 C93 1.218 . S
C95 O88 1.275 . S
C95 O90 1.255 . S
C96 O97 1.258 . S
C96 O98 1.256 . S
O97 Cd89 2.381 . S
O97 C96 1.258 . S
O98 Cd89 2.378 . S
O98 C96 1.256 . S
O99 Cd100 2.300 . S
O99 C106 1.275 . S
Cd100 O99 2.300 . S
Cd100 O108 2.381 . S
Cd100 O109 2.378 . S
O101 Cd102 2.385 . S
O101 C106 1.255 . S
Cd102 O101 2.385 . S
Cd102 O103 2.317 . S
O103 Cd102 2.317 . S
O103 C104 1.232 . S
C104 O103 1.232 . S
C104 O105 1.218 . S
O105 C104 1.218 . S
C106 O99 1.275 . S
C106 O101 1.255 . S
C107 O108 1.258 . S
C107 O109 1.256 . S
O108 Cd100 2.381 . S
O108 C107 1.258 . S
O109 Cd100 2.378 . S
O109 C107 1.256 . S
O110 Cd111 2.300 . S
O110 C117 1.275 . S
Cd111 O110 2.300 . S
Cd111 O119 2.381 . S
Cd111 O120 2.378 . S
O112 Cd113 2.385 . S
O112 C117 1.255 . S
Cd113 O112 2.385 . S
Cd113 O114 2.317 . S
O114 Cd113 2.317 . S
O114 C115 1.232 . S
C115 O114 1.232 . S
C115 O116 1.218 . S
O116 C115 1.218 . S
C117 O110 1.275 . S
C117 O112 1.255 . S
C118 O119 1.258 . S
C118 O120 1.256 . S
O119 Cd111 2.381 . S
O119 C118 1.258 . S
O120 Cd111 2.378 . S
O120 C118 1.256 . S
O121 Cd122 2.300 . S
O121 C128 1.275 . S
Cd122 O121 2.300 . S
Cd122 O130 2.381 . S
Cd122 O131 2.378 . S
O123 Cd124 2.385 . S
O123 C128 1.255 . S
Cd124 O123 2.385 . S
Cd124 O125 2.317 . S
O125 Cd124 2.317 . S
O125 C126 1.232 . S
C126 O125 1.232 . S
C126 O127 1.218 . S
O127 C126 1.218 . S
C128 O121 1.275 . S
C128 O123 1.255 . S
C129 O130 1.258 . S
C129 O131 1.256 . S
O130 Cd122 2.381 . S
O130 C129 1.258 . S
O131 Cd122 2.378 . S
O131 C129 1.256 . S
O132 Cd133 2.300 . S
O132 C139 1.275 . S
Cd133 O132 2.300 . S
Cd133 O141 2.381 . S
Cd133 O142 2.378 . S
O134 Cd135 2.385 . S
O134 C139 1.255 . S
Cd135 O134 2.385 . S
Cd135 O136 2.317 . S
O136 Cd135 2.317 . S
O136 C137 1.232 . S
C137 O136 1.232 . S
C137 O138 1.218 . S
O138 C137 1.218 . S
C139 O132 1.275 . S
C139 O134 1.255 . S
C140 O141 1.258 . S
C140 O142 1.256 . S
O141 Cd133 2.381 . S
O141 C140 1.258 . S
O142 Cd133 2.378 . S
O142 C140 1.256 . S
O143 Cd144 2.300 . S
O143 C150 1.275 . S
Cd144 O143 2.300 . S
Cd144 O152 2.381 . S
Cd144 O153 2.378 . S
O145 Cd146 2.385 . S
O145 C150 1.255 . S
Cd146 O145 2.385 . S
Cd146 O147 2.317 . S
O147 Cd146 2.317 . S
O147 C148 1.232 . S
C148 O147 1.232 . S
C148 O149 1.218 . S
O149 C148 1.218 . S
C150 O143 1.275 . S
C150 O145 1.255 . S
C151 O152 1.258 . S
C151 O153 1.256 . S
O152 Cd144 2.381 . S
O152 C151 1.258 . S
O153 Cd144 2.378 . S
O153 C151 1.256 . S
O154 Cd155 2.300 . S
O154 C161 1.275 . S
Cd155 O154 2.300 . S
Cd155 O163 2.381 . S
Cd155 O164 2.378 . S
O156 Cd157 2.385 . S
O156 C161 1.255 . S
Cd157 O156 2.385 . S
Cd157 O158 2.317 . S
O158 Cd157 2.317 . S
O158 C159 1.232 . S
C159 O158 1.232 . S
C159 O160 1.218 . S
O160 C159 1.218 . S
C161 O154 1.275 . S
C161 O156 1.255 . S
C162 O163 1.258 . S
C162 O164 1.256 . S
O163 Cd155 2.381 . S
O163 C162 1.258 . S
O164 Cd155 2.378 . S
O164 C162 1.256 . S
O165 Cd166 2.300 . S
O165 C172 1.275 . S
Cd166 O165 2.300 . S
Cd166 O174 2.381 . S
Cd166 O175 2.378 . S
O167 Cd168 2.385 . S
O167 C172 1.255 . S
Cd168 O167 2.385 . S
Cd168 O169 2.317 . S
O169 Cd168 2.317 . S
O169 C170 1.232 . S
C170 O169 1.232 . S
C170 O171 1.218 . S
O171 C170 1.218 . S
C172 O165 1.275 . S
C172 O167 1.255 . S
C173 O174 1.258 . S
C173 O175 1.256 . S
O174 Cd166 2.381 . S
O174 C173 1.258 . S
O175 Cd166 2.378 . S
O175 C173 1.256 . S
O176 Cd177 2.300 . S
O176 C183 1.275 . S
Cd177 O176 2.300 . S
Cd177 O185 2.381 . S
Cd177 O186 2.378 . S
O178 Cd179 2.385 . S
O178 C183 1.255 . S
Cd179 O178 2.385 . S
Cd179 O180 2.317 . S
O180 Cd179 2.317 . S
O180 C181 1.232 . S
C181 O180 1.232 . S
C181 O182 1.218 . S
O182 C181 1.218 . S
C183 O176 1.275 . S
C183 O178 1.255 . S
C184 O185 1.258 . S
C184 O186 1.256 . S
O185 Cd177 2.381 . S
O185 C184 1.258 . S
O186 Cd177 2.378 . S
O186 C184 1.256 . S
O187 Cd188 2.300 . S
O187 C194 1.275 . S
Cd188 O187 2.300 . S
Cd188 O196 2.381 . S
Cd188 O197 2.378 . S
O189 Cd190 2.385 . S
O189 C194 1.255 . S
Cd190 O189 2.385 . S
Cd190 O191 2.317 . S
O191 Cd190 2.317 . S
O191 C192 1.232 . S
C192 O191 1.232 . S
C192 O193 1.218 . S
O193 C192 1.218 . S
C194 O187 1.275 . S
C194 O189 1.255 . S
C195 O196 1.258 . S
C195 O197 1.256 . S
O196 Cd188 2.381 . S
O196 C195 1.258 . S
O197 Cd188 2.378 . S
O197 C195 1.256 . S
Eu198 N229 2.657 . S
Eu198 N236 2.609 . S
Eu198 O242 2.558 . S
Eu198 O243 2.612 1_566 S
Eu198 O245 2.339 1_565 S
Eu198 O246 2.563 1_565 S
Eu198 O247 2.419 1_565 S
Eu198 O249 2.380 1_556 S
Eu198 O250 2.432 . S
Eu198 C262 2.848 . S
C199 C202 1.429 . S
C199 C203 1.411 . S
C199 N206 1.377 . S
C200 C202 1.420 . S
C200 C204 1.423 . S
C200 C212 1.392 . S
C201 C203 1.420 . S
C201 C204 1.351 . S
C201 H224 0.931 . S
C202 C199 1.429 . S
C202 C200 1.420 . S
C202 N210 1.362 . S
C203 C199 1.411 . S
C203 C201 1.420 . S
C203 C208 1.395 . S
C204 C200 1.423 . S
C204 C201 1.351 . S
C204 H216 0.930 . S
C205 C207 1.400 . S
C205 C208 1.386 . S
C205 H217 0.930 . S
N206 C199 1.377 . S
N206 C207 1.321 . S
N206 Eu209 2.609 . S
C207 C205 1.400 . S
C207 N206 1.321 . S
C207 H214 0.930 . S
C208 C203 1.395 . S
C208 C205 1.386 . S
C208 H227 0.930 . S
Eu209 N206 2.609 . S
Eu209 N210 2.657 . S
Eu209 O243 2.380 . S
Eu209 O244 2.432 . S
Eu209 O248 2.558 . S
Eu209 O249 2.612 1_545 S
Eu209 O251 2.339 1_545 S
Eu209 O252 2.563 1_545 S
Eu209 O253 2.448 . S
Eu209 C273 2.848 . S
N210 C202 1.362 . S
N210 Eu209 2.657 . S
N210 C211 1.334 . S
C211 N210 1.334 . S
C211 C213 1.413 . S
C211 H218 0.929 . S
C212 C200 1.392 . S
C212 C213 1.367 . S
C212 H220 0.930 . S
C213 C211 1.413 . S
C213 C212 1.367 . S
C213 H215 0.930 . S
H214 C207 0.930 . S
H215 C213 0.930 . S
H216 C204 0.930 . S
H217 C205 0.930 . S
H218 C211 0.929 . S
H219 C233 0.930 . S
H220 C212 0.930 . S
H221 C239 0.930 . S
H222 C230 0.929 . S
H223 C237 0.930 . S
H224 C201 0.931 . S
H225 C231 0.930 . S
H226 C264 0.930 . S
H227 C208 0.930 . S
H228 C263 0.931 . S
N229 Eu198 2.657 . S
N229 C230 1.334 . S
N229 C234 1.362 . S
C230 H222 0.929 . S
C230 N229 1.334 . S
C230 C233 1.413 . S
C231 H225 0.930 . S
C231 C232 1.392 . S
C231 C233 1.367 . S
C232 C231 1.392 . S
C232 C234 1.420 . S
C232 C264 1.423 . S
C233 H219 0.930 . S
C233 C230 1.413 . S
C233 C231 1.367 . S
C234 N229 1.362 . S
C234 C232 1.420 . S
C234 C238 1.429 . S
H235 C240 0.930 . S
N236 Eu198 2.609 . S
N236 C238 1.377 . S
N236 C239 1.321 . S
C237 H223 0.930 . S
C237 C239 1.400 . S
C237 C240 1.386 . S
C238 C234 1.429 . S
C238 N236 1.377 . S
C238 C241 1.411 . S
C239 H221 0.930 . S
C239 N236 1.321 . S
C239 C237 1.400 . S
C240 H235 0.930 . S
C240 C237 1.386 . S
C240 C241 1.395 . S
C241 C238 1.411 . S
C241 C240 1.395 . S
C241 C263 1.420 . S
O242 Eu198 2.558 . S
O242 C262 1.257 . S
O243 Eu198 2.612 1_544 S
O243 Eu209 2.380 . S
O243 C254 1.276 1_554 S
O244 Eu209 2.432 . S
O244 C261 1.298 . S
O245 Eu198 2.339 1_545 S
O245 C261 1.232 1_556 S
O246 Eu198 2.563 1_545 S
O246 C254 1.235 . S
O247 Eu198 2.419 1_545 S
O247 C262 1.249 1_545 S
O248 Eu209 2.558 . S
O248 C273 1.257 . S
O249 Eu198 2.380 1_554 S
O249 Eu209 2.612 1_565 S
O249 C265 1.276 . S
O250 Eu198 2.432 . S
O250 C272 1.264 1_556 S
O251 Eu209 2.339 1_565 S
O251 C272 1.254 . S
O252 Eu209 2.563 1_565 S
O252 C265 1.235 . S
O253 Eu209 2.448 . S
O253 C273 1.294 . S
C254 O243 1.276 1_556 S
C254 O246 1.235 . S
C255 C257 1.393 1_565 S
C255 C259 1.395 . S
C255 C262 1.492 . S
C256 C257 1.392 . S
C256 C258 1.386 . S
C257 C255 1.393 1_545 S
C257 C256 1.392 . S
C257 H274 0.930 . S
C258 C256 1.386 . S
C258 C260 1.395 1_545 S
C258 H275 0.930 . S
C259 C255 1.395 . S
C259 C260 1.379 . S
C259 H276 0.930 . S
C260 C258 1.395 1_565 S
C260 C259 1.379 . S
C260 H277 0.930 . S
C261 O244 1.298 . S
C261 O245 1.232 1_554 S
C262 Eu198 2.848 . S
C262 O242 1.257 . S
C262 O247 1.249 1_565 S
C262 C255 1.492 . S
C263 H228 0.931 . S
C263 C241 1.420 . S
C263 C264 1.351 . S
C264 H226 0.930 . S
C264 C232 1.423 . S
C264 C263 1.351 . S
C265 O249 1.276 . S
C265 O252 1.235 . S
C266 C267 1.393 1_545 S
C266 C270 1.395 . S
C266 C273 1.492 . S
C267 C266 1.393 1_565 S
C267 C268 1.392 . S
C267 H278 0.930 . S
C268 C267 1.392 . S
C268 C269 1.386 . S
C269 C268 1.386 . S
C269 C271 1.395 1_565 S
C269 H279 0.930 . S
C270 C266 1.395 . S
C270 C271 1.379 . S
C270 H280 0.930 . S
C271 C269 1.395 1_545 S
C271 C270 1.379 . S
C271 H281 0.930 . S
C272 O250 1.264 1_554 S
C272 O251 1.254 . S
C273 Eu209 2.848 . S
C273 O248 1.257 . S
C273 O253 1.294 . S
C273 C266 1.492 . S
H274 C257 0.930 . S
H275 C258 0.930 . S
H276 C259 0.930 . S
H277 C260 0.930 . S
H278 C267 0.930 . S
H279 C269 0.930 . S
H280 C270 0.930 . S
H281 C271 0.930 . S
Eu282 N313 2.657 . S
Eu282 N320 2.609 . S
Eu282 O326 2.558 . S
Eu282 O327 2.612 1_456 S
Eu282 O329 2.339 1_455 S
Eu282 O330 2.563 1_455 S
Eu282 O331 2.419 1_455 S
Eu282 O333 2.380 1_556 S
Eu282 O334 2.432 1_556 S
Eu282 C346 2.848 . S
C283 C286 1.429 . S
C283 C287 1.411 . S
C283 N290 1.377 . S
C284 C286 1.420 . S
C284 C288 1.423 . S
C284 C296 1.392 . S
C285 C287 1.420 . S
C285 C288 1.351 . S
C285 H308 0.931 . S
C286 C283 1.429 . S
C286 C284 1.420 . S
C286 N294 1.362 . S
C287 C283 1.411 . S
C287 C285 1.420 . S
C287 C292 1.395 . S
C288 C284 1.423 . S
C288 C285 1.351 . S
C288 H300 0.930 . S
C289 C291 1.400 . S
C289 C292 1.386 . S
C289 H301 0.930 . S
N290 C283 1.377 . S
N290 C291 1.321 . S
N290 Eu293 2.609 . S
C291 C289 1.400 . S
C291 N290 1.321 . S
C291 H298 0.930 . S
C292 C287 1.395 . S
C292 C289 1.386 . S
C292 H311 0.930 . S
Eu293 N290 2.609 . S
Eu293 N294 2.657 . S
Eu293 O327 2.380 . S
Eu293 O328 2.432 . S
Eu293 O332 2.558 . S
Eu293 O333 2.612 1_655 S
Eu293 O335 2.339 1_655 S
Eu293 O336 2.563 1_655 S
Eu293 O337 2.419 1_655 S
Eu293 C357 2.848 1_655 S
N294 C286 1.362 . S
N294 Eu293 2.657 . S
N294 C295 1.334 . S
C295 N294 1.334 . S
C295 C297 1.413 . S
C295 H302 0.929 1_655 S
C296 C284 1.392 . S
C296 C297 1.367 . S
C296 H304 0.930 . S
C297 C295 1.413 . S
C297 C296 1.367 . S
C297 H299 0.930 . S
H298 C291 0.930 . S
H299 C297 0.930 . S
H300 C288 0.930 . S
H301 C289 0.930 . S
H302 C295 0.929 1_455 S
H303 C317 0.930 . S
H304 C296 0.930 . S
H305 C323 0.930 . S
H306 C314 0.938 . S
H307 C321 0.930 . S
H308 C285 0.931 . S
H309 C315 0.930 . S
H310 C348 0.930 . S
H311 C292 0.930 . S
H312 C347 0.931 . S
N313 Eu282 2.657 . S
N313 C314 1.334 . S
N313 C318 1.362 . S
C314 H306 0.938 . S
C314 N313 1.334 . S
C314 C317 1.413 . S
C315 H309 0.930 . S
C315 C316 1.392 . S
C315 C317 1.367 . S
C316 C315 1.392 . S
C316 C318 1.420 . S
C316 C348 1.423 . S
C317 H303 0.930 . S
C317 C314 1.413 . S
C317 C315 1.367 . S
C318 N313 1.362 . S
C318 C316 1.420 . S
C318 C322 1.429 . S
H319 C324 0.930 . S
N320 Eu282 2.609 . S
N320 C322 1.377 . S
N320 C323 1.321 . S
C321 H307 0.930 . S
C321 C323 1.400 . S
C321 C324 1.386 . S
C322 C318 1.429 . S
C322 N320 1.377 . S
C322 C325 1.411 . S
C323 H305 0.930 . S
C323 N320 1.321 . S
C323 C321 1.400 . S
C324 H319 0.930 . S
C324 C321 1.386 . S
C324 C325 1.395 . S
C325 C322 1.411 . S
C325 C324 1.395 . S
C325 C347 1.420 . S
O326 Eu282 2.558 . S
O326 C346 1.257 . S
O327 Eu282 2.612 1_654 S
O327 Eu293 2.380 . S
O327 C338 1.276 1_554 S
O328 Eu293 2.432 . S
O328 C345 1.264 . S
O329 Eu282 2.339 1_655 S
O329 C345 1.254 1_556 S
O330 Eu282 2.563 1_655 S
O330 C338 1.235 . S
O331 Eu282 2.419 1_655 S
O331 C346 1.249 1_655 S
O332 Eu293 2.558 . S
O332 C357 1.257 1_655 S
O333 Eu282 2.380 1_554 S
O333 Eu293 2.612 1_455 S
O333 C349 1.276 . S
O334 Eu282 2.432 1_554 S
O334 C356 1.264 . S
O335 Eu293 2.339 1_455 S
O335 C356 1.254 . S
O336 Eu293 2.563 1_455 S
O336 C349 1.235 . S
O337 Eu293 2.419 1_455 S
O337 C357 1.249 . S
C338 O327 1.276 1_556 S
C338 O330 1.235 . S
C339 C341 1.393 . S
C339 C343 1.395 1_655 S
C339 C346 1.492 1_655 S
C340 C341 1.392 . S
C340 C342 1.386 . S
C341 C339 1.393 . S
C341 C340 1.392 . S
C341 H358 0.930 . S
C342 C340 1.386 . S
C342 C344 1.395 1_655 S
C342 H359 0.930 . S
C343 C339 1.395 1_455 S
C343 C344 1.379 . S
C343 H360 0.930 . S
C344 C342 1.395 1_455 S
C344 C343 1.379 . S
C344 H361 0.930 . S
C345 O328 1.264 . S
C345 O329 1.254 1_554 S
C346 Eu282 2.848 . S
C346 O326 1.257 . S
C346 O331 1.249 1_455 S
C346 C339 1.492 1_455 S
C347 H312 0.931 . S
C347 C325 1.420 . S
C347 C348 1.351 . S
C348 H310 0.930 . S
C348 C316 1.423 . S
C348 C347 1.351 . S
C349 O333 1.276 . S
C349 O336 1.235 . S
C350 C351 1.393 . S
C350 C354 1.395 1_455 S
C350 C357 1.492 . S
C351 C350 1.393 . S
C351 C352 1.392 . S
C351 H362 0.930 . S
C352 C351 1.392 . S
C352 C353 1.386 . S
C353 C352 1.386 . S
C353 C355 1.395 . S
C353 H363 0.930 . S
C354 C350 1.395 1_655 S
C354 C355 1.379 1_655 S
C354 H364 0.930 . S
C355 C353 1.395 . S
C355 C354 1.379 1_455 S
C355 H365 0.930 1_455 S
C356 O334 1.264 . S
C356 O335 1.254 . S
C357 Eu293 2.848 1_455 S
C357 O332 1.257 1_455 S
C357 O337 1.249 . S
C357 C350 1.492 . S
H358 C341 0.930 . S
H359 C342 0.930 . S
H360 C343 0.930 . S
H361 C344 0.930 . S
H362 C351 0.930 . S
H363 C353 0.930 . S
H364 C354 0.930 . S
H365 C355 0.930 1_655 S
Eu366 N397 2.657 . S
Eu366 N404 2.609 . S
Eu366 O410 2.558 . S
Eu366 O411 2.612 . S
Eu366 O413 2.339 . S
Eu366 O414 2.563 . S
Eu366 O415 2.419 . S
Eu366 O417 2.402 . S
Eu366 O418 2.432 . S
Eu366 C430 2.848 . S
C367 C370 1.429 . S
C367 C371 1.411 . S
C367 N374 1.377 . S
C368 C370 1.420 . S
C368 C372 1.423 . S
C368 C380 1.392 . S
C369 C371 1.420 . S
C369 C372 1.351 . S
C369 H392 0.931 . S
C370 C367 1.429 . S
C370 C368 1.420 . S
C370 N378 1.362 . S
C371 C367 1.411 . S
C371 C369 1.420 . S
C371 C376 1.395 . S
C372 C368 1.423 . S
C372 C369 1.351 . S
C372 H384 0.930 . S
C373 C375 1.400 . S
C373 C376 1.386 . S
C373 H385 0.930 . S
N374 C367 1.377 . S
N374 C375 1.321 . S
N374 Eu377 2.609 . S
C375 C373 1.400 . S
C375 N374 1.321 . S
C375 H382 0.930 . S
C376 C371 1.395 . S
C376 C373 1.386 . S
C376 H395 0.930 . S
Eu377 N374 2.609 . S
Eu377 N378 2.657 . S
Eu377 O411 2.380 1_556 S
Eu377 O412 2.432 . S
Eu377 O416 2.558 . S
Eu377 O417 2.596 1_556 S
Eu377 O419 2.339 . S
Eu377 O420 2.563 . S
Eu377 O421 2.419 . S
Eu377 C441 2.848 . S
N378 C370 1.362 . S
N378 Eu377 2.657 . S
N378 C379 1.334 . S
C379 N378 1.334 . S
C379 C381 1.413 . S
C379 H386 0.929 . S
C380 C368 1.392 . S
C380 C381 1.367 . S
C380 H388 0.930 . S
C381 C379 1.413 . S
C381 C380 1.367 . S
C381 H383 0.930 . S
H382 C375 0.930 . S
H383 C381 0.930 . S
H384 C372 0.930 . S
H385 C373 0.930 . S
H386 C379 0.929 . S
H387 C401 0.930 . S
H388 C380 0.930 . S
H389 C407 0.930 . S
H390 C398 0.929 . S
H391 C405 0.930 . S
H392 C369 0.931 . S
H393 C399 0.930 . S
H394 C432 0.930 . S
H395 C376 0.930 . S
H396 C431 0.931 . S
N397 Eu366 2.657 . S
N397 C398 1.334 . S
N397 C402 1.362 . S
C398 H390 0.929 . S
C398 N397 1.334 . S
C398 C401 1.413 . S
C399 H393 0.930 . S
C399 C400 1.392 . S
C399 C401 1.367 . S
C400 C399 1.392 . S
C400 C402 1.420 . S
C400 C432 1.423 . S
C401 H387 0.930 . S
C401 C398 1.413 . S
C401 C399 1.367 . S
C402 N397 1.362 . S
C402 C400 1.420 . S
C402 C406 1.429 . S
H403 C408 0.930 . S
N404 Eu366 2.609 . S
N404 C406 1.377 . S
N404 C407 1.321 . S
C405 H391 0.930 . S
C405 C407 1.400 . S
C405 C408 1.386 . S
C406 C402 1.429 . S
C406 N404 1.377 . S
C406 C409 1.411 . S
C407 H389 0.930 . S
C407 N404 1.321 . S
C407 C405 1.400 . S
C408 H403 0.930 . S
C408 C405 1.386 . S
C408 C409 1.395 . S
C409 C406 1.411 . S
C409 C408 1.395 . S
C409 C431 1.420 . S
O410 Eu366 2.558 . S
O410 C430 1.257 . S
O411 Eu366 2.612 . S
O411 Eu377 2.380 1_554 S
O411 C422 1.276 . S
O412 Eu377 2.432 . S
O412 C429 1.264 1_556 S
O413 Eu366 2.339 . S
O413 C429 1.254 . S
O414 Eu366 2.563 . S
O414 C422 1.235 . S
O415 Eu366 2.419 . S
O415 C430 1.249 . S
O416 Eu377 2.558 . S
O416 C441 1.257 . S
O417 Eu366 2.402 . S
O417 Eu377 2.596 1_554 S
O417 C433 1.259 1_554 S
O418 Eu366 2.432 . S
O418 C440 1.264 1_554 S
O419 Eu377 2.339 . S
O419 C440 1.254 . S
O420 Eu377 2.563 . S
O420 C433 1.235 . S
O421 Eu377 2.419 . S
O421 C441 1.249 . S
C422 O411 1.276 . S
C422 O414 1.235 . S
C423 C425 1.393 . S
C423 C427 1.395 . S
C423 C430 1.492 . S
C424 C425 1.392 . S
C424 C426 1.386 . S
C425 C423 1.393 . S
C425 C424 1.392 . S
C425 H442 0.930 . S
C426 C424 1.386 . S
C426 C428 1.395 . S
C426 H443 0.930 . S
C427 C423 1.395 . S
C427 C428 1.379 . S
C427 H444 0.930 . S
C428 C426 1.395 . S
C428 C427 1.379 . S
C428 H445 0.930 . S
C429 O412 1.264 1_554 S
C429 O413 1.254 . S
C430 Eu366 2.848 . S
C430 O410 1.257 . S
C430 O415 1.249 . S
C430 C423 1.492 . S
C431 H396 0.931 . S
C431 C409 1.420 . S
C431 C432 1.351 . S
C432 H394 0.930 . S
C432 C400 1.423 . S
C432 C431 1.351 . S
C433 O417 1.259 1_556 S
C433 O420 1.235 . S
C434 C435 1.393 . S
C434 C438 1.395 . S
C434 C441 1.492 . S
C435 C434 1.393 . S
C435 C436 1.392 . S
C435 H446 0.930 . S
C436 C435 1.392 . S
C436 C437 1.386 . S
C437 C436 1.386 . S
C437 C439 1.395 . S
C437 H447 0.930 . S
C438 C434 1.395 . S
C438 C439 1.379 . S
C438 H448 0.930 . S
C439 C437 1.395 . S
C439 C438 1.379 . S
C439 H449 0.930 . S
C440 O418 1.264 1_556 S
C440 O419 1.254 . S
C441 Eu377 2.848 . S
C441 O416 1.257 . S
C441 O421 1.249 . S
C441 C434 1.492 . S
H442 C425 0.930 . S
H443 C426 0.930 . S
H444 C427 0.930 . S
H445 C428 0.930 . S
H446 C435 0.930 . S
H447 C437 0.930 . S
H448 C438 0.930 . S
H449 C439 0.930 . S
Eu450 N481 2.657 . S
Eu450 N488 2.609 . S
Eu450 O494 2.558 . S
Eu450 O495 2.612 . S
Eu450 O497 2.339 . S
Eu450 O498 2.563 . S
Eu450 O499 2.419 . S
Eu450 O501 2.380 . S
Eu450 O502 2.432 . S
Eu450 C514 2.848 . S
C451 C454 1.429 . S
C451 C455 1.411 . S
C451 N458 1.377 . S
C452 C454 1.420 . S
C452 C456 1.423 . S
C452 C464 1.392 . S
C453 C455 1.420 . S
C453 C456 1.351 . S
C453 H476 0.931 . S
C454 C451 1.429 . S
C454 C452 1.420 . S
C454 N462 1.362 . S
C455 C451 1.411 . S
C455 C453 1.420 . S
C455 C460 1.395 . S
C456 C452 1.423 . S
C456 C453 1.351 . S
C456 H468 0.930 . S
C457 C459 1.400 . S
C457 C460 1.386 . S
C457 H469 0.930 . S
N458 C451 1.377 . S
N458 C459 1.321 . S
N458 Eu461 2.609 . S
C459 C457 1.400 . S
C459 N458 1.321 . S
C459 H466 0.930 . S
C460 C455 1.395 . S
C460 C457 1.386 . S
C460 H479 0.930 . S
Eu461 N458 2.609 . S
Eu461 N462 2.657 . S
Eu461 O495 2.380 . S
Eu461 O496 2.432 . S
Eu461 O500 2.558 . S
Eu461 O501 2.612 . S
Eu461 O503 2.339 . S
Eu461 O504 2.563 . S
Eu461 O505 2.419 . S
Eu461 C525 2.848 . S
N462 C454 1.362 . S
N462 Eu461 2.657 . S
N462 C463 1.334 . S
C463 N462 1.334 . S
C463 C465 1.413 . S
C463 H470 0.929 . S
C464 C452 1.392 . S
C464 C465 1.367 . S
C464 H472 0.930 . S
C465 C463 1.413 . S
C465 C464 1.367 . S
C465 H467 0.930 . S
H466 C459 0.930 . S
H467 C465 0.930 . S
H468 C456 0.930 . S
H469 C457 0.930 . S
H470 C463 0.929 . S
H471 C485 0.930 . S
H472 C464 0.930 . S
H473 C491 0.930 . S
H474 C482 0.929 . S
H475 C489 0.930 . S
H476 C453 0.931 . S
H477 C483 0.930 . S
H478 C516 0.930 . S
H479 C460 0.930 . S
H480 C515 0.931 . S
N481 Eu450 2.657 . S
N481 C482 1.334 . S
N481 C486 1.362 . S
C482 H474 0.929 . S
C482 N481 1.334 . S
C482 C485 1.413 . S
C483 H477 0.930 . S
C483 C484 1.392 . S
C483 C485 1.367 . S
C484 C483 1.392 . S
C484 C486 1.420 . S
C484 C516 1.423 . S
C485 H471 0.930 . S
C485 C482 1.413 . S
C485 C483 1.367 . S
C486 N481 1.362 . S
C486 C484 1.420 . S
C486 C490 1.429 . S
H487 C492 0.930 . S
N488 Eu450 2.609 . S
N488 C490 1.377 . S
N488 C491 1.321 . S
C489 H475 0.930 . S
C489 C491 1.400 . S
C489 C492 1.386 . S
C490 C486 1.429 . S
C490 N488 1.377 . S
C490 C493 1.411 . S
C491 H473 0.930 . S
C491 N488 1.321 . S
C491 C489 1.400 . S
C492 H487 0.930 . S
C492 C489 1.386 . S
C492 C493 1.395 . S
C493 C490 1.411 . S
C493 C492 1.395 . S
C493 C515 1.420 . S
O494 Eu450 2.558 . S
O494 C514 1.257 . S
O495 Eu450 2.612 . S
O495 Eu461 2.380 . S
O495 C506 1.276 . S
O496 Eu461 2.432 . S
O496 C513 1.264 . S
O497 Eu450 2.339 . S
O497 C513 1.254 . S
O498 Eu450 2.563 . S
O498 C506 1.235 . S
O499 Eu450 2.419 . S
O499 C514 1.249 . S
O500 Eu461 2.558 . S
O500 C525 1.257 . S
O501 Eu450 2.380 . S
O501 Eu461 2.612 . S
O501 C517 1.276 . S
O502 Eu450 2.432 . S
O502 C524 1.264 . S
O503 Eu461 2.339 . S
O503 C524 1.254 . S
O504 Eu461 2.563 . S
O504 C517 1.235 . S
O505 Eu461 2.419 . S
O505 C525 1.249 . S
C506 O495 1.276 . S
C506 O498 1.235 . S
C507 C509 1.393 . S
C507 C511 1.395 . S
C507 C514 1.492 . S
C508 C509 1.392 . S
C508 C510 1.386 . S
C509 C507 1.393 . S
C509 C508 1.392 . S
C509 H526 0.930 . S
C510 C508 1.386 . S
C510 C512 1.395 . S
C510 H527 0.930 . S
C511 C507 1.395 . S
C511 C512 1.379 . S
C511 H528 0.930 . S
C512 C510 1.395 . S
C512 C511 1.379 . S
C512 H529 0.930 . S
C513 O496 1.264 . S
C513 O497 1.254 . S
C514 Eu450 2.848 . S
C514 O494 1.257 . S
C514 O499 1.249 . S
C514 C507 1.492 . S
C515 H480 0.931 . S
C515 C493 1.420 . S
C515 C516 1.351 . S
C516 H478 0.930 . S
C516 C484 1.423 . S
C516 C515 1.351 . S
C517 O501 1.276 . S
C517 O504 1.235 . S
C518 C519 1.393 . S
C518 C522 1.395 . S
C518 C525 1.492 . S
C519 C518 1.393 . S
C519 C520 1.392 . S
C519 H530 0.930 . S
C520 C519 1.392 . S
C520 C521 1.386 . S
C521 C520 1.386 . S
C521 C523 1.395 . S
C521 H531 0.930 . S
C522 C518 1.395 . S
C522 C523 1.379 . S
C522 H532 0.930 . S
C523 C521 1.395 . S
C523 C522 1.379 . S
C523 H533 0.930 . S
C524 O502 1.264 . S
C524 O503 1.254 . S
C525 Eu461 2.848 . S
C525 O500 1.257 . S
C525 O505 1.249 . S
C525 C518 1.492 . S
H526 C509 0.930 . S
H527 C510 0.930 . S
H528 C511 0.930 . S
H529 C512 0.930 . S
H530 C519 0.930 . S
H531 C521 0.930 . S
H532 C522 0.930 . S
H533 C523 0.930 . S
Eu534 N565 2.657 . S
Eu534 N572 2.609 . S
Eu534 O578 2.558 . S
Eu534 O579 2.612 . S
Eu534 O581 2.339 . S
Eu534 O582 2.563 . S
Eu534 O583 2.419 . S
Eu534 O585 2.380 . S
Eu534 O586 2.432 . S
Eu534 C598 2.848 . S
C535 C538 1.429 . S
C535 C539 1.411 . S
C535 N542 1.377 . S
C536 C538 1.420 . S
C536 C540 1.423 . S
C536 C548 1.392 . S
C537 C539 1.420 . S
C537 C540 1.351 . S
C537 H560 0.931 . S
C538 C535 1.429 . S
C538 C536 1.420 . S
C538 N546 1.362 . S
C539 C535 1.411 . S
C539 C537 1.420 . S
C539 C544 1.395 . S
C540 C536 1.423 . S
C540 C537 1.351 . S
C540 H552 0.930 . S
C541 C543 1.400 . S
C541 C544 1.386 . S
C541 H553 0.930 . S
N542 C535 1.377 . S
N542 C543 1.321 . S
N542 Eu545 2.609 . S
C543 C541 1.400 . S
C543 N542 1.321 . S
C543 H550 0.930 . S
C544 C539 1.395 . S
C544 C541 1.386 . S
C544 H563 0.930 . S
Eu545 N542 2.609 . S
Eu545 N546 2.657 . S
Eu545 O579 2.380 . S
Eu545 O580 2.432 . S
Eu545 O584 2.558 . S
Eu545 O585 2.612 . S
Eu545 O587 2.339 . S
Eu545 O588 2.563 . S
Eu545 O589 2.419 . S
Eu545 C609 2.848 . S
N546 C538 1.362 . S
N546 Eu545 2.657 . S
N546 C547 1.334 . S
C547 N546 1.334 . S
C547 C549 1.413 . S
C547 H554 0.929 . S
C548 C536 1.392 . S
C548 C549 1.367 . S
C548 H556 0.930 . S
C549 C547 1.413 . S
C549 C548 1.367 . S
C549 H551 0.930 . S
H550 C543 0.930 . S
H551 C549 0.930 . S
H552 C540 0.930 . S
H553 C541 0.930 . S
H554 C547 0.929 . S
H555 C569 0.930 . S
H556 C548 0.930 . S
H557 C575 0.930 . S
H558 C566 0.929 . S
H559 C573 0.930 . S
H560 C537 0.931 . S
H561 C567 0.930 . S
H562 C600 0.930 . S
H563 C544 0.930 . S
H564 C599 0.931 . S
N565 Eu534 2.657 . S
N565 C566 1.334 . S
N565 C570 1.362 . S
C566 H558 0.929 . S
C566 N565 1.334 . S
C566 C569 1.413 . S
C567 H561 0.930 . S
C567 C568 1.392 . S
C567 C569 1.367 . S
C568 C567 1.392 . S
C568 C570 1.420 . S
C568 C600 1.423 . S
C569 H555 0.930 . S
C569 C566 1.413 . S
C569 C567 1.367 . S
C570 N565 1.362 . S
C570 C568 1.420 . S
C570 C574 1.429 . S
H571 C576 0.930 . S
N572 Eu534 2.609 . S
N572 C574 1.377 . S
N572 C575 1.321 . S
C573 H559 0.930 . S
C573 C575 1.400 . S
C573 C576 1.386 . S
C574 C570 1.429 . S
C574 N572 1.377 . S
C574 C577 1.411 . S
C575 H557 0.930 . S
C575 N572 1.321 . S
C575 C573 1.400 . S
C576 H571 0.930 . S
C576 C573 1.386 . S
C576 C577 1.395 . S
C577 C574 1.411 . S
C577 C576 1.395 . S
C577 C599 1.420 . S
O578 Eu534 2.558 . S
O578 C598 1.257 . S
O579 Eu534 2.612 . S
O579 Eu545 2.380 . S
O579 C590 1.276 . S
O580 Eu545 2.432 . S
O580 C597 1.264 . S
O581 Eu534 2.339 . S
O581 C597 1.254 . S
O582 Eu534 2.563 . S
O582 C590 1.235 . S
O583 Eu534 2.419 . S
O583 C598 1.249 . S
O584 Eu545 2.558 . S
O584 C609 1.257 . S
O585 Eu534 2.380 . S
O585 Eu545 2.612 . S
O585 C601 1.276 . S
O586 Eu534 2.432 . S
O586 C608 1.264 . S
O587 Eu545 2.339 . S
O587 C608 1.254 . S
O588 Eu545 2.563 . S
O588 C601 1.235 . S
O589 Eu545 2.419 . S
O589 C609 1.249 . S
C590 O579 1.276 . S
C590 O582 1.235 . S
C591 C593 1.393 . S
C591 C595 1.395 . S
C591 C598 1.492 . S
C592 C593 1.392 . S
C592 C594 1.386 . S
C593 C591 1.393 . S
C593 C592 1.392 . S
C593 H610 0.930 . S
C594 C592 1.386 . S
C594 C596 1.395 . S
C594 H611 0.930 . S
C595 C591 1.395 . S
C595 C596 1.379 . S
C595 H612 0.930 . S
C596 C594 1.395 . S
C596 C595 1.379 . S
C596 H613 0.930 . S
C597 O580 1.264 . S
C597 O581 1.254 . S
C598 Eu534 2.848 . S
C598 O578 1.257 . S
C598 O583 1.249 . S
C598 C591 1.492 . S
C599 H564 0.931 . S
C599 C577 1.420 . S
C599 C600 1.351 . S
C600 H562 0.930 . S
C600 C568 1.423 . S
C600 C599 1.351 . S
C601 O585 1.276 . S
C601 O588 1.235 . S
C602 C603 1.393 . S
C602 C606 1.395 . S
C602 C609 1.492 . S
C603 C602 1.393 . S
C603 C604 1.392 . S
C603 H614 0.930 . S
C604 C603 1.392 . S
C604 C605 1.386 . S
C605 C604 1.386 . S
C605 C607 1.395 . S
C605 H615 0.930 . S
C606 C602 1.395 . S
C606 C607 1.379 . S
C606 H616 0.930 . S
C607 C605 1.395 . S
C607 C606 1.379 . S
C607 H617 0.930 . S
C608 O586 1.264 . S
C608 O587 1.254 . S
C609 Eu545 2.848 . S
C609 O584 1.257 . S
C609 O589 1.249 . S
C609 C602 1.492 . S
H610 C593 0.930 . S
H611 C594 0.930 . S
H612 C595 0.930 . S
H613 C596 0.930 . S
H614 C603 0.930 . S
H615 C605 0.930 . S
H616 C606 0.930 . S
H617 C607 0.930 . S
Eu618 N649 2.657 . S
Eu618 N656 2.609 . S
Eu618 O662 2.558 . S
Eu618 O663 2.612 . S
Eu618 O665 2.339 . S
Eu618 O666 2.563 . S
Eu618 O667 2.419 . S
Eu618 O669 2.380 . S
Eu618 O670 2.432 . S
Eu618 C682 2.848 . S
C619 C622 1.429 . S
C619 C623 1.411 . S
C619 N626 1.377 . S
C620 C622 1.420 . S
C620 C624 1.423 . S
C620 C632 1.392 . S
C621 C623 1.420 . S
C621 C624 1.351 . S
C621 H644 0.931 . S
C622 C619 1.429 . S
C622 C620 1.420 . S
C622 N630 1.362 . S
C623 C619 1.411 . S
C623 C621 1.420 . S
C623 C628 1.395 . S
C624 C620 1.423 . S
C624 C621 1.351 . S
C624 H636 0.930 . S
C625 C627 1.400 . S
C625 C628 1.386 . S
C625 H637 0.930 . S
N626 C619 1.377 . S
N626 C627 1.321 . S
N626 Eu629 2.609 . S
C627 C625 1.400 . S
C627 N626 1.321 . S
C627 H634 0.930 . S
C628 C623 1.395 . S
C628 C625 1.386 . S
C628 H647 0.930 . S
Eu629 N626 2.609 . S
Eu629 N630 2.657 . S
Eu629 O663 2.380 . S
Eu629 O664 2.432 . S
Eu629 O668 2.558 . S
Eu629 O669 2.612 . S
Eu629 O671 2.339 . S
Eu629 O672 2.563 . S
Eu629 O673 2.419 . S
Eu629 C693 2.848 . S
N630 C622 1.362 . S
N630 Eu629 2.657 . S
N630 C631 1.334 . S
C631 N630 1.334 . S
C631 C633 1.413 . S
C631 H638 0.929 . S
C632 C620 1.392 . S
C632 C633 1.367 . S
C632 H640 0.930 . S
C633 C631 1.413 . S
C633 C632 1.367 . S
C633 H635 0.930 . S
H634 C627 0.930 . S
H635 C633 0.930 . S
H636 C624 0.930 . S
H637 C625 0.930 . S
H638 C631 0.929 . S
H639 C653 0.930 . S
H640 C632 0.930 . S
H641 C659 0.930 . S
H642 C650 0.929 . S
H643 C657 0.930 . S
H644 C621 0.931 . S
H645 C651 0.930 . S
H646 C684 0.930 . S
H647 C628 0.930 . S
H648 C683 0.931 . S
N649 Eu618 2.657 . S
N649 C650 1.334 . S
N649 C654 1.362 . S
C650 H642 0.929 . S
C650 N649 1.334 . S
C650 C653 1.413 . S
C651 H645 0.930 . S
C651 C652 1.392 . S
C651 C653 1.367 . S
C652 C651 1.392 . S
C652 C654 1.420 . S
C652 C684 1.423 . S
C653 H639 0.930 . S
C653 C650 1.413 . S
C653 C651 1.367 . S
C654 N649 1.362 . S
C654 C652 1.420 . S
C654 C658 1.429 . S
H655 C660 0.930 . S
N656 Eu618 2.609 . S
N656 C658 1.377 . S
N656 C659 1.321 . S
C657 H643 0.930 . S
C657 C659 1.400 . S
C657 C660 1.386 . S
C658 C654 1.429 . S
C658 N656 1.377 . S
C658 C661 1.411 . S
C659 H641 0.930 . S
C659 N656 1.321 . S
C659 C657 1.400 . S
C660 H655 0.930 . S
C660 C657 1.386 . S
C660 C661 1.395 . S
C661 C658 1.411 . S
C661 C660 1.395 . S
C661 C683 1.420 . S
O662 Eu618 2.558 . S
O662 C682 1.257 . S
O663 Eu618 2.612 . S
O663 Eu629 2.380 . S
O663 C674 1.276 . S
O664 Eu629 2.432 . S
O664 C681 1.264 . S
O665 Eu618 2.339 . S
O665 C681 1.254 . S
O666 Eu618 2.563 . S
O666 C674 1.235 . S
O667 Eu618 2.419 . S
O667 C682 1.249 . S
O668 Eu629 2.558 . S
O668 C693 1.257 . S
O669 Eu618 2.380 . S
O669 Eu629 2.612 . S
O669 C685 1.276 . S
O670 Eu618 2.432 . S
O670 C692 1.264 . S
O671 Eu629 2.339 . S
O671 C692 1.254 . S
O672 Eu629 2.563 . S
O672 C685 1.235 . S
O673 Eu629 2.419 . S
O673 C693 1.249 . S
C674 O663 1.276 . S
C674 O666 1.235 . S
C675 C677 1.393 . S
C675 C679 1.395 . S
C675 C682 1.492 . S
C676 C677 1.392 . S
C676 C678 1.386 . S
C677 C675 1.393 . S
C677 C676 1.392 . S
C677 H694 0.930 . S
C678 C676 1.386 . S
C678 C680 1.395 . S
C678 H695 0.930 . S
C679 C675 1.395 . S
C679 C680 1.379 . S
C679 H696 0.930 . S
C680 C678 1.395 . S
C680 C679 1.379 . S
C680 H697 0.930 . S
C681 O664 1.264 . S
C681 O665 1.254 . S
C682 Eu618 2.848 . S
C682 O662 1.257 . S
C682 O667 1.249 . S
C682 C675 1.492 . S
C683 H648 0.931 . S
C683 C661 1.420 . S
C683 C684 1.351 . S
C684 H646 0.930 . S
C684 C652 1.423 . S
C684 C683 1.351 . S
C685 O669 1.276 . S
C685 O672 1.235 . S
C686 C687 1.393 . S
C686 C690 1.395 . S
C686 C693 1.492 . S
C687 C686 1.393 . S
C687 C688 1.392 . S
C687 H698 0.930 . S
C688 C687 1.392 . S
C688 C689 1.386 . S
C689 C688 1.386 . S
C689 C691 1.395 . S
C689 H699 0.930 . S
C690 C686 1.395 . S
C690 C691 1.379 . S
C690 H700 0.930 . S
C691 C689 1.395 . S
C691 C690 1.379 . S
C691 H701 0.930 . S
C692 O670 1.264 . S
C692 O671 1.254 . S
C693 Eu629 2.848 . S
C693 O668 1.257 . S
C693 O673 1.249 . S
C693 C686 1.492 . S
H694 C677 0.930 . S
H695 C678 0.930 . S
H696 C679 0.930 . S
H697 C680 0.930 . S
H698 C687 0.930 . S
H699 C689 0.930 . S
H700 C690 0.930 . S
H701 C691 0.930 . S
Eu702 N733 2.657 . S
Eu702 N740 2.609 . S
Eu702 O746 2.558 . S
Eu702 O747 2.612 . S
Eu702 O749 2.339 . S
Eu702 O750 2.563 . S
Eu702 O751 2.419 . S
Eu702 O753 2.380 . S
Eu702 O754 2.432 . S
Eu702 C766 2.848 . S
C703 C706 1.429 . S
C703 C707 1.411 . S
C703 N710 1.377 . S
C704 C706 1.420 . S
C704 C708 1.423 . S
C704 C716 1.392 . S
C705 C707 1.420 . S
C705 C708 1.351 . S
C705 H728 0.931 . S
C706 C703 1.429 . S
C706 C704 1.420 . S
C706 N714 1.362 . S
C707 C703 1.411 . S
C707 C705 1.420 . S
C707 C712 1.395 . S
C708 C704 1.423 . S
C708 C705 1.351 . S
C708 H720 0.930 . S
C709 C711 1.400 . S
C709 C712 1.386 . S
C709 H721 0.930 . S
N710 C703 1.377 . S
N710 C711 1.321 . S
N710 Eu713 2.609 . S
C711 C709 1.400 . S
C711 N710 1.321 . S
C711 H718 0.930 . S
C712 C707 1.395 . S
C712 C709 1.386 . S
C712 H731 0.930 . S
Eu713 N710 2.609 . S
Eu713 N714 2.657 . S
Eu713 O747 2.380 . S
Eu713 O748 2.432 . S
Eu713 O752 2.558 . S
Eu713 O753 2.612 . S
Eu713 O755 2.339 . S
Eu713 O756 2.563 . S
Eu713 O757 2.419 . S
Eu713 C777 2.848 . S
N714 C706 1.362 . S
N714 Eu713 2.657 . S
N714 C715 1.334 . S
C715 N714 1.334 . S
C715 C717 1.413 . S
C715 H722 0.929 . S
C716 C704 1.392 . S
C716 C717 1.367 . S
C716 H724 0.930 . S
C717 C715 1.413 . S
C717 C716 1.367 . S
C717 H719 0.930 . S
H718 C711 0.930 . S
H719 C717 0.930 . S
H720 C708 0.930 . S
H721 C709 0.930 . S
H722 C715 0.929 . S
H723 C737 0.930 . S
H724 C716 0.930 . S
H725 C743 0.930 . S
H726 C734 0.929 . S
H727 C741 0.930 . S
H728 C705 0.931 . S
H729 C735 0.930 . S
H730 C768 0.930 . S
H731 C712 0.930 . S
H732 C767 0.931 . S
N733 Eu702 2.657 . S
N733 C734 1.334 . S
N733 C738 1.362 . S
C734 H726 0.929 . S
C734 N733 1.334 . S
C734 C737 1.413 . S
C735 H729 0.930 . S
C735 C736 1.392 . S
C735 C737 1.367 . S
C736 C735 1.392 . S
C736 C738 1.420 . S
C736 C768 1.423 . S
C737 H723 0.930 . S
C737 C734 1.413 . S
C737 C735 1.367 . S
C738 N733 1.362 . S
C738 C736 1.420 . S
C738 C742 1.429 . S
H739 C744 0.930 . S
N740 Eu702 2.609 . S
N740 C742 1.377 . S
N740 C743 1.321 . S
C741 H727 0.930 . S
C741 C743 1.400 . S
C741 C744 1.386 . S
C742 C738 1.429 . S
C742 N740 1.377 . S
C742 C745 1.411 . S
C743 H725 0.930 . S
C743 N740 1.321 . S
C743 C741 1.400 . S
C744 H739 0.930 . S
C744 C741 1.386 . S
C744 C745 1.395 . S
C745 C742 1.411 . S
C745 C744 1.395 . S
C745 C767 1.420 . S
O746 Eu702 2.558 . S
O746 C766 1.257 . S
O747 Eu702 2.612 . S
O747 Eu713 2.380 . S
O747 C758 1.276 . S
O748 Eu713 2.432 . S
O748 C765 1.264 . S
O749 Eu702 2.339 . S
O749 C765 1.254 . S
O750 Eu702 2.563 . S
O750 C758 1.235 . S
O751 Eu702 2.419 . S
O751 C766 1.249 . S
O752 Eu713 2.558 . S
O752 C777 1.257 . S
O753 Eu702 2.380 . S
O753 Eu713 2.612 . S
O753 C769 1.276 . S
O754 Eu702 2.432 . S
O754 C776 1.264 . S
O755 Eu713 2.339 . S
O755 C776 1.254 . S
O756 Eu713 2.563 . S
O756 C769 1.235 . S
O757 Eu713 2.419 . S
O757 C777 1.249 . S
C758 O747 1.276 . S
C758 O750 1.235 . S
C759 C761 1.393 . S
C759 C763 1.395 . S
C759 C766 1.492 . S
C760 C761 1.392 . S
C760 C762 1.386 . S
C761 C759 1.393 . S
C761 C760 1.392 . S
C761 H778 0.930 . S
C762 C760 1.386 . S
C762 C764 1.395 . S
C762 H779 0.930 . S
C763 C759 1.395 . S
C763 C764 1.379 . S
C763 H780 0.930 . S
C764 C762 1.395 . S
C764 C763 1.379 . S
C764 H781 0.930 . S
C765 O748 1.264 . S
C765 O749 1.254 . S
C766 Eu702 2.848 . S
C766 O746 1.257 . S
C766 O751 1.249 . S
C766 C759 1.492 . S
C767 H732 0.931 . S
C767 C745 1.420 . S
C767 C768 1.351 . S
C768 H730 0.930 . S
C768 C736 1.423 . S
C768 C767 1.351 . S
C769 O753 1.276 . S
C769 O756 1.235 . S
C770 C771 1.393 . S
C770 C774 1.395 . S
C770 C777 1.492 . S
C771 C770 1.393 . S
C771 C772 1.392 . S
C771 H782 0.930 . S
C772 C771 1.392 . S
C772 C773 1.386 . S
C773 C772 1.386 . S
C773 C775 1.395 . S
C773 H783 0.930 . S
C774 C770 1.395 . S
C774 C775 1.379 . S
C774 H784 0.930 . S
C775 C773 1.395 . S
C775 C774 1.379 . S
C775 H785 0.930 . S
C776 O754 1.264 . S
C776 O755 1.254 . S
C777 Eu713 2.848 . S
C777 O752 1.257 . S
C777 O757 1.249 . S
C777 C770 1.492 . S
H778 C761 0.930 . S
H779 C762 0.930 . S
H780 C763 0.930 . S
H781 C764 0.930 . S
H782 C771 0.930 . S
H783 C773 0.930 . S
H784 C774 0.930 . S
H785 C775 0.930 . S
Eu786 N817 2.657 . S
Eu786 N824 2.609 . S
Eu786 O830 2.558 . S
Eu786 O831 2.612 . S
Eu786 O833 2.339 . S
Eu786 O834 2.563 . S
Eu786 O835 2.419 . S
Eu786 O837 2.380 . S
Eu786 O838 2.432 . S
Eu786 C850 2.848 . S
C787 C790 1.429 . S
C787 C791 1.411 . S
C787 N794 1.377 . S
C788 C790 1.420 . S
C788 C792 1.423 . S
C788 C800 1.392 . S
C789 C791 1.420 . S
C789 C792 1.351 . S
C789 H812 0.931 . S
C790 C787 1.429 . S
C790 C788 1.420 . S
C790 N798 1.362 . S
C791 C787 1.411 . S
C791 C789 1.420 . S
C791 C796 1.395 . S
C792 C788 1.423 . S
C792 C789 1.351 . S
C792 H804 0.930 . S
C793 C795 1.400 . S
C793 C796 1.386 . S
C793 H805 0.930 . S
N794 C787 1.377 . S
N794 C795 1.321 . S
N794 Eu797 2.609 . S
C795 C793 1.400 . S
C795 N794 1.321 . S
C795 H802 0.930 . S
C796 C791 1.395 . S
C796 C793 1.386 . S
C796 H815 0.930 . S
Eu797 N794 2.609 . S
Eu797 N798 2.657 . S
Eu797 O831 2.380 . S
Eu797 O832 2.432 . S
Eu797 O836 2.558 . S
Eu797 O837 2.612 . S
Eu797 O839 2.339 . S
Eu797 O840 2.563 . S
Eu797 O841 2.419 . S
Eu797 C861 2.848 . S
N798 C790 1.362 . S
N798 Eu797 2.657 . S
N798 C799 1.334 . S
C799 N798 1.334 . S
C799 C801 1.413 . S
C799 H806 0.929 . S
C800 C788 1.392 . S
C800 C801 1.367 . S
C800 H808 0.930 . S
C801 C799 1.413 . S
C801 C800 1.367 . S
C801 H803 0.930 . S
H802 C795 0.930 . S
H803 C801 0.930 . S
H804 C792 0.930 . S
H805 C793 0.930 . S
H806 C799 0.929 . S
H807 C821 0.930 . S
H808 C800 0.930 . S
H809 C827 0.930 . S
H810 C818 0.929 . S
H811 C825 0.930 . S
H812 C789 0.931 . S
H813 C819 0.930 . S
H814 C852 0.930 . S
H815 C796 0.930 . S
H816 C851 0.931 . S
N817 Eu786 2.657 . S
N817 C818 1.334 . S
N817 C822 1.362 . S
C818 H810 0.929 . S
C818 N817 1.334 . S
C818 C821 1.413 . S
C819 H813 0.930 . S
C819 C820 1.392 . S
C819 C821 1.367 . S
C820 C819 1.392 . S
C820 C822 1.420 . S
C820 C852 1.423 . S
C821 H807 0.930 . S
C821 C818 1.413 . S
C821 C819 1.367 . S
C822 N817 1.362 . S
C822 C820 1.420 . S
C822 C826 1.429 . S
H823 C828 0.930 . S
N824 Eu786 2.609 . S
N824 C826 1.377 . S
N824 C827 1.321 . S
C825 H811 0.930 . S
C825 C827 1.400 . S
C825 C828 1.386 . S
C826 C822 1.429 . S
C826 N824 1.377 . S
C826 C829 1.411 . S
C827 H809 0.930 . S
C827 N824 1.321 . S
C827 C825 1.400 . S
C828 H823 0.930 . S
C828 C825 1.386 . S
C828 C829 1.395 . S
C829 C826 1.411 . S
C829 C828 1.395 . S
C829 C851 1.420 . S
O830 Eu786 2.558 . S
O830 C850 1.257 . S
O831 Eu786 2.612 . S
O831 Eu797 2.380 . S
O831 C842 1.276 . S
O832 Eu797 2.432 . S
O832 C849 1.264 . S
O833 Eu786 2.339 . S
O833 C849 1.254 . S
O834 Eu786 2.563 . S
O834 C842 1.235 . S
O835 Eu786 2.419 . S
O835 C850 1.249 . S
O836 Eu797 2.558 . S
O836 C861 1.257 . S
O837 Eu786 2.380 . S
O837 Eu797 2.612 . S
O837 C853 1.276 . S
O838 Eu786 2.432 . S
O838 C860 1.264 . S
O839 Eu797 2.339 . S
O839 C860 1.254 . S
O840 Eu797 2.563 . S
O840 C853 1.235 . S
O841 Eu797 2.419 . S
O841 C861 1.249 . S
C842 O831 1.276 . S
C842 O834 1.235 . S
C843 C845 1.393 . S
C843 C847 1.395 . S
C843 C850 1.492 . S
C844 C845 1.392 . S
C844 C846 1.386 . S
C845 C843 1.393 . S
C845 C844 1.392 . S
C845 H862 0.930 . S
C846 C844 1.386 . S
C846 C848 1.395 . S
C846 H863 0.930 . S
C847 C843 1.395 . S
C847 C848 1.379 . S
C847 H864 0.930 . S
C848 C846 1.395 . S
C848 C847 1.379 . S
C848 H865 0.930 . S
C849 O832 1.264 . S
C849 O833 1.254 . S
C850 Eu786 2.848 . S
C850 O830 1.257 . S
C850 O835 1.249 . S
C850 C843 1.492 . S
C851 H816 0.931 . S
C851 C829 1.420 . S
C851 C852 1.351 . S
C852 H814 0.930 . S
C852 C820 1.423 . S
C852 C851 1.351 . S
C853 O837 1.276 . S
C853 O840 1.235 . S
C854 C855 1.393 . S
C854 C858 1.395 . S
C854 C861 1.492 . S
C855 C854 1.393 . S
C855 C856 1.392 . S
C855 H866 0.930 . S
C856 C855 1.392 . S
C856 C857 1.386 . S
C857 C856 1.386 . S
C857 C859 1.395 . S
C857 H867 0.930 . S
C858 C854 1.395 . S
C858 C859 1.379 . S
C858 H868 0.930 . S
C859 C857 1.395 . S
C859 C858 1.379 . S
C859 H869 0.930 . S
C860 O838 1.264 . S
C860 O839 1.254 . S
C861 Eu797 2.848 . S
C861 O836 1.257 . S
C861 O841 1.249 . S
C861 C854 1.492 . S
H862 C845 0.930 . S
H863 C846 0.930 . S
H864 C847 0.930 . S
H865 C848 0.930 . S
H866 C855 0.930 . S
H867 C857 0.930 . S
H868 C858 0.930 . S
H869 C859 0.930 . S
Eu870 N901 2.657 . S
Eu870 N908 2.609 . S
Eu870 O914 2.558 . S
Eu870 O915 2.612 . S
Eu870 O917 2.339 . S
Eu870 O918 2.563 . S
Eu870 O919 2.419 . S
Eu870 O921 2.380 . S
Eu870 O922 2.432 . S
Eu870 C934 2.848 . S
C871 C874 1.429 . S
C871 C875 1.411 . S
C871 N878 1.377 . S
C872 C874 1.420 . S
C872 C876 1.423 . S
C872 C884 1.392 . S
C873 C875 1.420 . S
C873 C876 1.351 . S
C873 H896 0.931 . S
C874 C871 1.429 . S
C874 C872 1.420 . S
C874 N882 1.362 . S
C875 C871 1.411 . S
C875 C873 1.420 . S
C875 C880 1.395 . S
C876 C872 1.423 . S
C876 C873 1.351 . S
C876 H888 0.930 . S
C877 C879 1.400 . S
C877 C880 1.386 . S
C877 H889 0.930 . S
N878 C871 1.377 . S
N878 C879 1.321 . S
N878 Eu881 2.609 . S
C879 C877 1.400 . S
C879 N878 1.321 . S
C879 H886 0.930 . S
C880 C875 1.395 . S
C880 C877 1.386 . S
C880 H899 0.930 . S
Eu881 N878 2.609 . S
Eu881 N882 2.657 . S
Eu881 O915 2.380 . S
Eu881 O916 2.432 . S
Eu881 O920 2.558 . S
Eu881 O921 2.612 . S
Eu881 O923 2.339 . S
Eu881 O924 2.563 . S
Eu881 O925 2.419 . S
Eu881 C945 2.848 . S
N882 C874 1.362 . S
N882 Eu881 2.657 . S
N882 C883 1.334 . S
C883 N882 1.334 . S
C883 C885 1.413 . S
C883 H890 0.929 . S
C884 C872 1.392 . S
C884 C885 1.367 . S
C884 H892 0.930 . S
C885 C883 1.413 . S
C885 C884 1.367 . S
C885 H887 0.930 . S
H886 C879 0.930 . S
H887 C885 0.930 . S
H888 C876 0.930 . S
H889 C877 0.930 . S
H890 C883 0.929 . S
H891 C905 0.930 . S
H892 C884 0.930 . S
H893 C911 0.930 . S
H894 C902 0.929 . S
H895 C909 0.930 . S
H896 C873 0.931 . S
H897 C903 0.930 . S
H898 C936 0.930 . S
H899 C880 0.930 . S
H900 C935 0.931 . S
N901 Eu870 2.657 . S
N901 C902 1.334 . S
N901 C906 1.362 . S
C902 H894 0.929 . S
C902 N901 1.334 . S
C902 C905 1.413 . S
C903 H897 0.930 . S
C903 C904 1.392 . S
C903 C905 1.367 . S
C904 C903 1.392 . S
C904 C906 1.420 . S
C904 C936 1.423 . S
C905 H891 0.930 . S
C905 C902 1.413 . S
C905 C903 1.367 . S
C906 N901 1.362 . S
C906 C904 1.420 . S
C906 C910 1.429 . S
H907 C912 0.930 . S
N908 Eu870 2.609 . S
N908 C910 1.377 . S
N908 C911 1.321 . S
C909 H895 0.930 . S
C909 C911 1.400 . S
C909 C912 1.386 . S
C910 C906 1.429 . S
C910 N908 1.377 . S
C910 C913 1.411 . S
C911 H893 0.930 . S
C911 N908 1.321 . S
C911 C909 1.400 . S
C912 H907 0.930 . S
C912 C909 1.386 . S
C912 C913 1.395 . S
C913 C910 1.411 . S
C913 C912 1.395 . S
C913 C935 1.420 . S
O914 Eu870 2.558 . S
O914 C934 1.257 . S
O915 Eu870 2.612 . S
O915 Eu881 2.380 . S
O915 C926 1.276 . S
O916 Eu881 2.432 . S
O916 C933 1.264 . S
O917 Eu870 2.339 . S
O917 C933 1.254 . S
O918 Eu870 2.563 . S
O918 C926 1.235 . S
O919 Eu870 2.419 . S
O919 C934 1.249 . S
O920 Eu881 2.558 . S
O920 C945 1.257 . S
O921 Eu870 2.380 . S
O921 Eu881 2.612 . S
O921 C937 1.276 . S
O922 Eu870 2.432 . S
O922 C944 1.264 . S
O923 Eu881 2.339 . S
O923 C944 1.254 . S
O924 Eu881 2.563 . S
O924 C937 1.235 . S
O925 Eu881 2.419 . S
O925 C945 1.249 . S
C926 O915 1.276 . S
C926 O918 1.235 . S
C927 C929 1.393 . S
C927 C931 1.395 . S
C927 C934 1.492 . S
C928 C929 1.392 . S
C928 C930 1.386 . S
C929 C927 1.393 . S
C929 C928 1.392 . S
C929 H946 0.930 . S
C930 C928 1.386 . S
C930 C932 1.395 . S
C930 H947 0.930 . S
C931 C927 1.395 . S
C931 C932 1.379 . S
C931 H948 0.930 . S
C932 C930 1.395 . S
C932 C931 1.379 . S
C932 H949 0.930 . S
C933 O916 1.264 . S
C933 O917 1.254 . S
C934 Eu870 2.848 . S
C934 O914 1.257 . S
C934 O919 1.249 . S
C934 C927 1.492 . S
C935 H900 0.931 . S
C935 C913 1.420 . S
C935 C936 1.351 . S
C936 H898 0.930 . S
C936 C904 1.423 . S
C936 C935 1.351 . S
C937 O921 1.276 . S
C937 O924 1.235 . S
C938 C939 1.393 . S
C938 C942 1.395 . S
C938 C945 1.492 . S
C939 C938 1.393 . S
C939 C940 1.392 . S
C939 H950 0.930 . S
C940 C939 1.392 . S
C940 C941 1.386 . S
C941 C940 1.386 . S
C941 C943 1.395 . S
C941 H951 0.930 . S
C942 C938 1.395 . S
C942 C943 1.379 . S
C942 H952 0.930 . S
C943 C941 1.395 . S
C943 C942 1.379 . S
C943 H953 0.930 . S
C944 O922 1.264 . S
C944 O923 1.254 . S
C945 Eu881 2.848 . S
C945 O920 1.257 . S
C945 O925 1.249 . S
C945 C938 1.492 . S
H946 C929 0.930 . S
H947 C930 0.930 . S
H948 C931 0.930 . S
H949 C932 0.930 . S
H950 C939 0.930 . S
H951 C941 0.930 . S
H952 C942 0.930 . S
H953 C943 0.930 . S
H954 C972 0.951 . S
H955 C974 0.951 . S
H956 C976 0.950 . S
H957 C977 0.950 . S
H958 C979 0.950 . S
H959 C982 0.950 . S
H960 C983 0.950 . S
H961 C985 0.950 . S
H962 C986 0.950 . S
H963 C987 0.951 . S
H964 C989 0.951 . S
H965 C991 0.950 . S
H966 C992 0.950 . S
H967 C994 0.950 . S
H968 C997 0.950 . S
H969 C998 0.950 . S
H970 C1000 0.950 . S
H971 C1001 0.950 . S
C972 H954 0.951 . S
C972 C973 1.366 . S
C972 C974 1.388 . S
C973 C972 1.366 . S
C973 C977 1.385 . S
C974 H955 0.951 . S
C974 C972 1.388 . S
C974 C975 1.366 . S
C975 C974 1.366 . S
C975 C976 1.414 . S
C975 C978 1.499 . S
C976 H956 0.950 . S
C976 C975 1.414 . S
C976 C977 1.374 . S
C977 H957 0.950 . S
C977 C973 1.385 . S
C977 C976 1.374 . S
C978 C975 1.499 . S
C978 C979 1.373 . S
C978 C980 1.389 . S
C979 H958 0.950 . S
C979 C978 1.373 . S
C979 C995 1.377 . S
C980 C978 1.389 . S
C980 C981 1.524 . S
C980 C994 1.377 . S
C981 C980 1.524 . S
C981 C982 1.397 . S
C981 C986 1.363 . S
C982 H959 0.950 . S
C982 C981 1.397 . S
C982 C983 1.334 . S
C983 H960 0.950 . S
C983 C982 1.334 . S
C983 C984 1.287 . S
C984 C983 1.287 . S
C984 C985 1.524 . S
C984 H1003 0.913 . S
C985 H961 0.950 . S
C985 C984 1.524 . S
C985 C986 1.415 . S
C986 H962 0.950 . S
C986 C981 1.363 . S
C986 C985 1.415 . S
C987 H963 0.951 . S
C987 C988 1.366 . S
C987 C989 1.388 . S
C988 C987 1.366 . S
C988 C992 1.385 . S
C989 H964 0.951 . S
C989 C987 1.388 . S
C989 C990 1.366 . S
C990 C989 1.366 . S
C990 C991 1.414 . S
C990 C993 1.499 . S
C991 H965 0.950 . S
C991 C990 1.414 . S
C991 C992 1.374 . S
C992 H966 0.950 . S
C992 C988 1.385 . S
C992 C991 1.374 . S
C993 C990 1.499 . S
C993 C994 1.373 . S
C993 C995 1.389 . S
C994 H967 0.950 . S
C994 C980 1.377 . S
C994 C993 1.373 . S
C995 C979 1.377 . S
C995 C993 1.389 . S
C995 C996 1.524 . S
C996 C995 1.524 . S
C996 C997 1.397 1_554 S
C996 C1001 1.363 . S
C997 H968 0.950 . S
C997 C996 1.397 1_556 S
C997 C998 1.334 . S
C998 H969 0.950 . S
C998 C997 1.334 . S
C998 C999 1.287 . S
C999 C998 1.287 . S
C999 C1000 1.524 . S
C999 H1002 0.999 . S
C1000 H970 0.950 . S
C1000 C999 1.524 . S
C1000 C1001 1.415 1_556 S
C1001 H971 0.950 . S
C1001 C996 1.363 . S
C1001 C1000 1.415 1_554 S
H1002 C999 0.999 . S
H1003 C984 0.913 . S
H1004 C1022 0.951 . S
H1005 C1024 0.951 . S
H1006 C1026 0.950 . S
H1007 C1027 0.950 . S
H1008 C1029 0.950 . S
H1009 C1032 0.950 . S
H1010 C1033 0.950 . S
H1011 C1035 0.950 . S
H1012 C1036 0.950 . S
H1013 C1037 0.951 . S
H1014 C1039 0.951 . S
H1015 C1041 0.950 . S
H1016 C1042 0.950 . S
H1017 C1044 0.950 . S
H1018 C1047 0.950 . S
H1019 C1048 0.950 . S
H1020 C1050 0.950 . S
H1021 C1051 0.950 . S
C1022 H1004 0.951 . S
C1022 C1023 1.366 . S
C1022 C1024 1.388 . S
C1023 C1022 1.366 . S
C1023 C1027 1.385 . S
C1024 H1005 0.951 . S
C1024 C1022 1.388 . S
C1024 C1025 1.366 . S
C1025 C1024 1.366 . S
C1025 C1026 1.414 . S
C1025 C1028 1.499 . S
C1026 H1006 0.950 . S
C1026 C1025 1.414 . S
C1026 C1027 1.374 . S
C1027 H1007 0.950 . S
C1027 C1023 1.385 . S
C1027 C1026 1.374 . S
C1028 C1025 1.499 . S
C1028 C1029 1.373 . S
C1028 C1030 1.389 . S
C1029 H1008 0.950 . S
C1029 C1028 1.373 . S
C1029 C1045 1.377 . S
C1030 C1028 1.389 . S
C1030 C1031 1.524 . S
C1030 C1044 1.377 . S
C1031 C1030 1.524 . S
C1031 C1032 1.397 . S
C1031 C1036 1.363 . S
C1032 H1009 0.950 . S
C1032 C1031 1.397 . S
C1032 C1033 1.334 . S
C1033 H1010 0.950 . S
C1033 C1032 1.334 . S
C1033 C1034 1.287 . S
C1034 C1033 1.287 . S
C1034 C1035 1.524 . S
C1034 H1053 0.913 . S
C1035 H1011 0.950 . S
C1035 C1034 1.524 . S
C1035 C1036 1.415 . S
C1036 H1012 0.950 . S
C1036 C1031 1.363 . S
C1036 C1035 1.415 . S
C1037 H1013 0.951 . S
C1037 C1038 1.366 . S
C1037 C1039 1.388 . S
C1038 C1037 1.366 . S
C1038 C1042 1.385 . S
C1039 H1014 0.951 . S
C1039 C1037 1.388 . S
C1039 C1040 1.366 . S
C1040 C1039 1.366 . S
C1040 C1041 1.414 . S
C1040 C1043 1.499 . S
C1041 H1015 0.950 . S
C1041 C1040 1.414 . S
C1041 C1042 1.374 . S
C1042 H1016 0.950 . S
C1042 C1038 1.385 . S
C1042 C1041 1.374 . S
C1043 C1040 1.499 . S
C1043 C1044 1.373 . S
C1043 C1045 1.389 . S
C1044 H1017 0.950 . S
C1044 C1030 1.377 . S
C1044 C1043 1.373 . S
C1045 C1029 1.377 . S
C1045 C1043 1.389 . S
C1045 C1046 1.524 . S
C1046 C1045 1.524 . S
C1046 C1047 1.397 . S
C1046 C1051 1.363 . S
C1047 H1018 0.950 . S
C1047 C1046 1.397 . S
C1047 C1048 1.334 . S
C1048 H1019 0.950 . S
C1048 C1047 1.334 . S
C1048 C1049 1.287 . S
C1049 C1048 1.287 . S
C1049 C1050 1.524 . S
C1049 H1052 0.999 . S
C1050 H1020 0.950 . S
C1050 C1049 1.524 . S
C1050 C1051 1.415 . S
C1051 H1021 0.950 . S
C1051 C1046 1.363 . S
C1051 C1050 1.415 . S
H1052 C1049 0.999 . S
H1053 C1034 0.913 . S
H1054 C1072 0.951 . S
H1055 C1074 0.951 . S
H1056 C1076 0.950 . S
H1057 C1077 0.950 . S
H1058 C1079 0.950 . S
H1059 C1082 0.950 . S
H1060 C1083 0.950 . S
H1061 C1085 0.950 . S
H1062 C1086 0.950 . S
H1063 C1087 0.951 . S
H1064 C1089 0.951 . S
H1065 C1091 0.950 . S
H1066 C1092 0.967 . S
H1067 C1094 0.950 . S
H1068 C1097 0.950 . S
H1069 C1098 0.950 . S
H1070 C1100 0.950 . S
H1071 C1101 0.950 . S
C1072 H1054 0.951 . S
C1072 C1073 1.366 . S
C1072 C1074 1.388 . S
C1073 C1072 1.366 . S
C1073 C1077 1.385 . S
C1074 H1055 0.951 . S
C1074 C1072 1.388 . S
C1074 C1075 1.366 . S
C1075 C1074 1.366 . S
C1075 C1076 1.414 . S
C1075 C1078 1.499 . S
C1076 H1056 0.950 . S
C1076 C1075 1.414 . S
C1076 C1077 1.374 . S
C1077 H1057 0.950 . S
C1077 C1073 1.385 . S
C1077 C1076 1.374 . S
C1078 C1075 1.499 . S
C1078 C1079 1.373 . S
C1078 C1080 1.389 . S
C1079 H1058 0.950 . S
C1079 C1078 1.373 . S
C1079 C1095 1.377 . S
C1080 C1078 1.389 . S
C1080 C1081 1.524 . S
C1080 C1094 1.377 . S
C1081 C1080 1.524 . S
C1081 C1082 1.397 . S
C1081 C1086 1.363 1_554 S
C1082 H1059 0.950 . S
C1082 C1081 1.397 . S
C1082 C1083 1.334 1_554 S
C1083 H1060 0.950 . S
C1083 C1082 1.334 1_556 S
C1083 C1084 1.287 . S
C1084 C1083 1.287 . S
C1084 C1085 1.524 . S
C1084 H1103 0.913 . S
C1085 H1061 0.950 . S
C1085 C1084 1.524 . S
C1085 C1086 1.415 . S
C1086 H1062 0.950 . S
C1086 C1081 1.363 1_556 S
C1086 C1085 1.415 . S
C1087 H1063 0.951 . S
C1087 C1088 1.366 . S
C1087 C1089 1.388 . S
C1088 C1087 1.366 . S
C1088 C1092 1.385 . S
C1089 H1064 0.951 . S
C1089 C1087 1.388 . S
C1089 C1090 1.366 . S
C1090 C1089 1.366 . S
C1090 C1091 1.414 . S
C1090 C1093 1.499 . S
C1091 H1065 0.950 . S
C1091 C1090 1.414 . S
C1091 C1092 1.374 . S
C1092 H1066 0.967 . S
C1092 C1088 1.385 . S
C1092 C1091 1.374 . S
C1093 C1090 1.499 . S
C1093 C1094 1.373 . S
C1093 C1095 1.389 . S
C1094 H1067 0.950 . S
C1094 C1080 1.377 . S
C1094 C1093 1.373 . S
C1095 C1079 1.377 . S
C1095 C1093 1.389 . S
C1095 C1096 1.524 . S
C1096 C1095 1.524 . S
C1096 C1097 1.397 . S
C1096 C1101 1.363 . S
C1097 H1068 0.950 . S
C1097 C1096 1.397 . S
C1097 C1098 1.334 . S
C1098 H1069 0.950 . S
C1098 C1097 1.334 . S
C1098 C1099 1.287 . S
C1099 C1098 1.287 . S
C1099 C1100 1.524 . S
C1099 H1102 0.999 . S
C1100 H1070 0.950 . S
C1100 C1099 1.524 . S
C1100 C1101 1.415 . S
C1101 H1071 0.950 . S
C1101 C1096 1.363 . S
C1101 C1100 1.415 . S
H1102 C1099 0.999 . S
H1103 C1084 0.913 . S
H1104 C1122 0.951 . S
H1105 C1124 0.951 . S
H1106 C1126 0.950 . S
H1107 C1127 0.950 . S
H1108 C1129 0.950 . S
H1109 C1132 0.950 . S
H1110 C1133 0.950 . S
H1111 C1135 0.950 . S
H1112 C1136 0.950 . S
H1113 C1137 0.951 . S
H1114 C1139 0.951 . S
H1115 C1141 0.950 . S
H1116 C1142 0.950 . S
H1117 C1144 0.950 . S
H1118 C1147 0.950 . S
H1119 C1148 0.945 1_556 S
H1120 C1150 0.950 . S
H1121 C1151 0.950 . S
C1122 H1104 0.951 . S
C1122 C1123 1.366 . S
C1122 C1124 1.388 . S
C1123 C1122 1.366 . S
C1123 C1127 1.385 . S
C1124 H1105 0.951 . S
C1124 C1122 1.388 . S
C1124 C1125 1.366 . S
C1125 C1124 1.366 . S
C1125 C1126 1.414 . S
C1125 C1128 1.499 . S
C1126 H1106 0.950 . S
C1126 C1125 1.414 . S
C1126 C1127 1.374 . S
C1127 H1107 0.950 . S
C1127 C1123 1.385 . S
C1127 C1126 1.374 . S
C1128 C1125 1.499 . S
C1128 C1129 1.373 . S
C1128 C1130 1.389 . S
C1129 H1108 0.950 . S
C1129 C1128 1.373 . S
C1129 C1145 1.377 . S
C1130 C1128 1.389 . S
C1130 C1131 1.524 . S
C1130 C1144 1.377 . S
C1131 C1130 1.524 . S
C1131 C1132 1.397 . S
C1131 C1136 1.363 . S
C1132 H1109 0.950 . S
C1132 C1131 1.397 . S
C1132 C1133 1.334 . S
C1133 H1110 0.950 . S
C1133 C1132 1.334 . S
C1133 C1134 1.287 . S
C1134 C1133 1.287 . S
C1134 C1135 1.524 . S
C1134 H1153 0.913 . S
C1135 H1111 0.950 . S
C1135 C1134 1.524 . S
C1135 C1136 1.415 . S
C1136 H1112 0.950 . S
C1136 C1131 1.363 . S
C1136 C1135 1.415 . S
C1137 H1113 0.951 . S
C1137 C1138 1.366 1_554 S
C1137 C1139 1.388 . S
C1138 C1137 1.366 1_556 S
C1138 C1142 1.385 . S
C1139 H1114 0.951 . S
C1139 C1137 1.388 . S
C1139 C1140 1.366 1_554 S
C1140 C1139 1.366 1_556 S
C1140 C1141 1.414 . S
C1140 C1143 1.499 . S
C1141 H1115 0.950 . S
C1141 C1140 1.414 . S
C1141 C1142 1.374 . S
C1142 H1116 0.950 . S
C1142 C1138 1.385 . S
C1142 C1141 1.374 . S
C1143 C1140 1.499 . S
C1143 C1144 1.373 . S
C1143 C1145 1.389 . S
C1144 H1117 0.950 . S
C1144 C1130 1.377 . S
C1144 C1143 1.373 . S
C1145 C1129 1.377 . S
C1145 C1143 1.389 . S
C1145 C1146 1.568 . S
C1146 C1145 1.568 . S
C1146 C1147 1.427 . S
C1146 C1151 1.298 1_556 S
C1147 H1118 0.950 . S
C1147 C1146 1.427 . S
C1147 C1148 1.334 1_556 S
C1148 H1119 0.945 1_554 S
C1148 C1147 1.334 1_554 S
C1148 C1149 1.287 . S
C1149 C1148 1.287 . S
C1149 C1150 1.524 . S
C1149 H1152 0.999 . S
C1150 H1120 0.950 . S
C1150 C1149 1.524 . S
C1150 C1151 1.415 . S
C1151 H1121 0.950 . S
C1151 C1146 1.298 1_554 S
C1151 C1150 1.415 . S
H1152 C1149 0.999 . S
H1153 C1134 0.913 . S
H1154 C1172 0.951 . S
H1155 C1174 0.951 . S
H1156 C1176 0.950 . S
H1157 C1177 0.950 . S
H1158 C1179 0.950 . S
H1159 C1182 0.950 . S
H1160 C1183 0.950 . S
H1161 C1185 0.950 . S
H1162 C1186 0.950 . S
H1163 C1187 0.951 . S
H1164 C1189 0.951 . S
H1165 C1191 0.950 1_554 S
H1166 C1192 0.984 . S
H1167 C1194 0.950 . S
H1168 C1197 0.950 . S
H1169 C1198 0.950 . S
H1170 C1200 0.950 . S
H1171 C1201 0.950 . S
C1172 H1154 0.951 . S
C1172 C1173 1.366 . S
C1172 C1174 1.388 . S
C1173 C1172 1.366 . S
C1173 C1177 1.385 . S
C1174 H1155 0.951 . S
C1174 C1172 1.388 . S
C1174 C1175 1.366 . S
C1175 C1174 1.366 . S
C1175 C1176 1.414 . S
C1175 C1178 1.499 . S
C1176 H1156 0.950 . S
C1176 C1175 1.414 . S
C1176 C1177 1.374 . S
C1177 H1157 0.950 . S
C1177 C1173 1.385 . S
C1177 C1176 1.374 . S
C1178 C1175 1.499 . S
C1178 C1179 1.373 . S
C1178 C1180 1.389 . S
C1179 H1158 0.950 . S
C1179 C1178 1.373 . S
C1179 C1195 1.377 . S
C1180 C1178 1.389 . S
C1180 C1181 1.524 . S
C1180 C1194 1.377 . S
C1181 C1180 1.524 . S
C1181 C1182 1.397 . S
C1181 C1186 1.363 . S
C1182 H1159 0.950 . S
C1182 C1181 1.397 . S
C1182 C1183 1.334 . S
C1183 H1160 0.950 . S
C1183 C1182 1.334 . S
C1183 C1184 1.287 . S
C1184 C1183 1.287 . S
C1184 C1185 1.524 . S
C1184 H1203 0.913 . S
C1185 H1161 0.950 . S
C1185 C1184 1.524 . S
C1185 C1186 1.415 . S
C1186 H1162 0.950 . S
C1186 C1181 1.363 . S
C1186 C1185 1.415 . S
C1187 H1163 0.951 . S
C1187 C1188 1.366 . S
C1187 C1189 1.388 . S
C1188 C1187 1.366 . S
C1188 C1192 1.361 1_556 S
C1189 H1164 0.951 . S
C1189 C1187 1.388 . S
C1189 C1190 1.366 . S
C1190 C1189 1.366 . S
C1190 C1191 1.414 . S
C1190 C1193 1.499 . S
C1191 H1165 0.950 1_556 S
C1191 C1190 1.414 . S
C1191 C1192 1.365 1_556 S
C1192 H1166 0.984 . S
C1192 C1188 1.361 1_554 S
C1192 C1191 1.365 1_554 S
C1193 C1190 1.499 . S
C1193 C1194 1.373 . S
C1193 C1195 1.389 . S
C1194 H1167 0.950 . S
C1194 C1180 1.377 . S
C1194 C1193 1.373 . S
C1195 C1179 1.377 . S
C1195 C1193 1.389 . S
C1195 C1196 1.524 . S
C1196 C1195 1.524 . S
C1196 C1197 1.397 . S
C1196 C1201 1.363 . S
C1197 H1168 0.950 . S
C1197 C1196 1.397 . S
C1197 C1198 1.334 . S
C1198 H1169 0.950 . S
C1198 C1197 1.334 . S
C1198 C1199 1.287 . S
C1199 C1198 1.287 . S
C1199 C1200 1.524 . S
C1199 H1202 0.999 . S
C1200 H1170 0.950 . S
C1200 C1199 1.524 . S
C1200 C1201 1.415 . S
C1201 H1171 0.950 . S
C1201 C1196 1.363 . S
C1201 C1200 1.415 . S
H1202 C1199 0.999 . S
H1203 C1184 0.913 . S
H1204 C1222 0.951 . S
H1205 C1224 0.951 . S
H1206 C1226 0.950 . S
H1207 C1227 0.950 . S
H1208 C1229 0.950 . S
H1209 C1232 0.950 . S
H1210 C1233 0.950 . S
H1211 C1235 0.950 . S
H1212 C1236 0.950 . S
H1213 C1237 0.951 . S
H1214 C1239 0.951 . S
H1215 C1241 0.950 . S
H1216 C1242 0.950 . S
H1217 C1244 0.950 . S
H1218 C1247 0.950 . S
H1219 C1248 0.950 1_556 S
H1220 C1250 0.950 . S
H1221 C1251 0.950 . S
C1222 H1204 0.951 . S
C1222 C1223 1.366 . S
C1222 C1224 1.388 . S
C1223 C1222 1.366 . S
C1223 C1227 1.385 . S
C1224 H1205 0.951 . S
C1224 C1222 1.388 . S
C1224 C1225 1.366 . S
C1225 C1224 1.366 . S
C1225 C1226 1.414 . S
C1225 C1228 1.499 . S
C1226 H1206 0.950 . S
C1226 C1225 1.414 . S
C1226 C1227 1.374 . S
C1227 H1207 0.950 . S
C1227 C1223 1.385 . S
C1227 C1226 1.374 . S
C1228 C1225 1.499 . S
C1228 C1229 1.373 . S
C1228 C1230 1.389 . S
C1229 H1208 0.950 . S
C1229 C1228 1.373 . S
C1229 C1245 1.377 . S
C1230 C1228 1.389 . S
C1230 C1231 1.524 . S
C1230 C1244 1.377 . S
C1231 C1230 1.524 . S
C1231 C1232 1.397 . S
C1231 C1236 1.363 . S
C1232 H1209 0.950 . S
C1232 C1231 1.397 . S
C1232 C1233 1.334 . S
C1233 H1210 0.950 . S
C1233 C1232 1.334 . S
C1233 C1234 1.287 . S
C1234 C1233 1.287 . S
C1234 C1235 1.524 . S
C1234 H1253 0.913 . S
C1235 H1211 0.950 . S
C1235 C1234 1.524 . S
C1235 C1236 1.415 . S
C1236 H1212 0.950 . S
C1236 C1231 1.363 . S
C1236 C1235 1.415 . S
C1237 H1213 0.951 . S
C1237 C1238 1.366 1_554 S
C1237 C1239 1.388 . S
C1238 C1237 1.366 1_556 S
C1238 C1242 1.385 . S
C1239 H1214 0.951 . S
C1239 C1237 1.388 . S
C1239 C1240 1.366 1_554 S
C1240 C1239 1.366 1_556 S
C1240 C1241 1.414 . S
C1240 C1243 1.499 . S
C1241 H1215 0.950 . S
C1241 C1240 1.414 . S
C1241 C1242 1.374 . S
C1242 H1216 0.950 . S
C1242 C1238 1.385 . S
C1242 C1241 1.374 . S
C1243 C1240 1.499 . S
C1243 C1244 1.373 . S
C1243 C1245 1.389 . S
C1244 H1217 0.950 . S
C1244 C1230 1.377 . S
C1244 C1243 1.373 . S
C1245 C1229 1.377 . S
C1245 C1243 1.389 . S
C1245 C1246 1.524 1_556 S
C1246 C1245 1.524 1_554 S
C1246 C1247 1.397 1_554 S
C1246 C1251 1.363 . S
C1247 H1218 0.950 . S
C1247 C1246 1.397 1_556 S
C1247 C1248 1.334 1_556 S
C1248 H1219 0.950 1_554 S
C1248 C1247 1.334 1_554 S
C1248 C1249 1.287 . S
C1249 C1248 1.287 . S
C1249 C1250 1.524 . S
C1249 H1252 0.999 . S
C1250 H1220 0.950 . S
C1250 C1249 1.524 . S
C1250 C1251 1.415 . S
C1251 H1221 0.950 . S
C1251 C1246 1.363 . S
C1251 C1250 1.415 . S
H1252 C1249 0.999 . S
H1253 C1234 0.913 . S
H1254 C1272 0.951 . S
H1255 C1274 0.951 . S
H1256 C1276 0.950 . S
H1257 C1277 0.950 . S
H1258 C1279 0.950 . S
H1259 C1282 0.950 . S
H1260 C1283 0.950 . S
H1261 C1285 0.950 . S
H1262 C1286 0.950 . S
H1263 C1287 0.951 . S
H1264 C1289 0.951 . S
H1265 C1291 0.950 . S
H1266 C1292 0.950 . S
H1267 C1294 0.950 . S
H1268 C1297 0.950 . S
H1269 C1298 0.950 . S
H1270 C1300 0.950 . S
H1271 C1301 0.950 1_556 S
C1272 H1254 0.951 . S
C1272 C1273 1.366 . S
C1272 C1274 1.388 . S
C1273 C1272 1.366 . S
C1273 C1277 1.385 . S
C1274 H1255 0.951 . S
C1274 C1272 1.388 . S
C1274 C1275 1.366 . S
C1275 C1274 1.366 . S
C1275 C1276 1.414 . S
C1275 C1278 1.499 . S
C1276 H1256 0.950 . S
C1276 C1275 1.414 . S
C1276 C1277 1.374 . S
C1277 H1257 0.950 . S
C1277 C1273 1.385 . S
C1277 C1276 1.374 . S
C1278 C1275 1.499 . S
C1278 C1279 1.373 . S
C1278 C1280 1.389 . S
C1279 H1258 0.950 . S
C1279 C1278 1.373 . S
C1279 C1295 1.377 . S
C1280 C1278 1.389 . S
C1280 C1281 1.524 . S
C1280 C1294 1.377 . S
C1281 C1280 1.524 . S
C1281 C1282 1.397 . S
C1281 C1286 1.363 . S
C1282 H1259 0.950 . S
C1282 C1281 1.397 . S
C1282 C1283 1.334 . S
C1283 H1260 0.950 . S
C1283 C1282 1.334 . S
C1283 C1284 1.287 . S
C1284 C1283 1.287 . S
C1284 C1285 1.524 . S
C1284 H1303 0.913 . S
C1285 H1261 0.950 . S
C1285 C1284 1.524 . S
C1285 C1286 1.415 . S
C1286 H1262 0.950 . S
C1286 C1281 1.363 . S
C1286 C1285 1.415 . S
C1287 H1263 0.951 . S
C1287 C1288 1.366 . S
C1287 C1289 1.388 . S
C1288 C1287 1.366 . S
C1288 C1292 1.385 . S
C1289 H1264 0.951 . S
C1289 C1287 1.388 . S
C1289 C1290 1.366 . S
C1290 C1289 1.366 . S
C1290 C1291 1.414 . S
C1290 C1293 1.499 . S
C1291 H1265 0.950 . S
C1291 C1290 1.414 . S
C1291 C1292 1.374 . S
C1292 H1266 0.950 . S
C1292 C1288 1.385 . S
C1292 C1291 1.374 . S
C1293 C1290 1.499 . S
C1293 C1294 1.373 . S
C1293 C1295 1.389 . S
C1294 H1267 0.950 . S
C1294 C1280 1.377 . S
C1294 C1293 1.373 . S
C1295 C1279 1.377 . S
C1295 C1293 1.389 . S
C1295 C1296 1.524 1_556 S
C1296 C1295 1.524 1_554 S
C1296 C1297 1.397 . S
C1296 C1301 1.363 . S
C1297 H1268 0.950 . S
C1297 C1296 1.397 . S
C1297 C1298 1.334 . S
C1298 H1269 0.950 . S
C1298 C1297 1.334 . S
C1298 C1299 1.287 . S
C1299 C1298 1.287 . S
C1299 C1300 1.524 . S
C1299 H1302 0.999 . S
C1300 H1270 0.950 . S
C1300 C1299 1.524 . S
C1300 C1301 1.415 . S
C1301 H1271 0.950 1_554 S
C1301 C1296 1.363 . S
C1301 C1300 1.415 . S
H1302 C1299 0.999 . S
H1303 C1284 0.913 . S
H1304 C1322 0.951 . S
H1305 C1324 0.951 . S
H1306 C1326 0.950 . S
H1307 C1327 0.950 . S
H1308 C1329 0.950 . S
H1309 C1332 0.950 . S
H1310 C1333 0.950 . S
H1311 C1335 0.950 . S
H1312 C1336 0.950 . S
H1313 C1337 0.951 . S
H1314 C1339 0.951 . S
H1315 C1341 0.950 . S
H1316 C1342 0.951 1_554 S
H1317 C1344 0.950 . S
H1318 C1347 0.950 . S
H1319 C1348 0.950 . S
H1320 C1350 0.950 . S
H1321 C1351 0.950 1_556 S
C1322 H1304 0.951 . S
C1322 C1323 1.366 . S
C1322 C1324 1.388 . S
C1323 C1322 1.366 . S
C1323 C1327 1.385 . S
C1324 H1305 0.951 . S
C1324 C1322 1.388 . S
C1324 C1325 1.366 . S
C1325 C1324 1.366 . S
C1325 C1326 1.414 . S
C1325 C1328 1.499 . S
C1326 H1306 0.950 . S
C1326 C1325 1.414 . S
C1326 C1327 1.374 . S
C1327 H1307 0.950 . S
C1327 C1323 1.385 . S
C1327 C1326 1.374 . S
C1328 C1325 1.499 . S
C1328 C1329 1.373 . S
C1328 C1330 1.389 . S
C1329 H1308 0.950 . S
C1329 C1328 1.373 . S
C1329 C1345 1.377 . S
C1330 C1328 1.389 . S
C1330 C1331 1.524 . S
C1330 C1344 1.377 . S
C1331 C1330 1.524 . S
C1331 C1332 1.397 . S
C1331 C1336 1.363 . S
C1332 H1309 0.950 . S
C1332 C1331 1.397 . S
C1332 C1333 1.334 . S
C1333 H1310 0.950 . S
C1333 C1332 1.334 . S
C1333 C1334 1.287 . S
C1334 C1333 1.287 . S
C1334 C1335 1.524 . S
C1334 H1353 0.913 . S
C1335 H1311 0.950 . S
C1335 C1334 1.524 . S
C1335 C1336 1.415 . S
C1336 H1312 0.950 . S
C1336 C1331 1.363 . S
C1336 C1335 1.415 . S
C1337 H1313 0.951 . S
C1337 C1338 1.366 . S
C1337 C1339 1.388 . S
C1338 C1337 1.366 . S
C1338 C1342 1.385 . S
C1339 H1314 0.951 . S
C1339 C1337 1.388 . S
C1339 C1340 1.366 . S
C1340 C1339 1.366 . S
C1340 C1341 1.414 . S
C1340 C1343 1.499 . S
C1341 H1315 0.950 . S
C1341 C1340 1.414 . S
C1341 C1342 1.373 . S
C1342 H1316 0.951 1_556 S
C1342 C1338 1.385 . S
C1342 C1341 1.373 . S
C1343 C1340 1.499 . S
C1343 C1344 1.373 . S
C1343 C1345 1.389 . S
C1344 H1317 0.950 . S
C1344 C1330 1.377 . S
C1344 C1343 1.373 . S
C1345 C1329 1.377 . S
C1345 C1343 1.389 . S
C1345 C1346 1.524 1_556 S
C1346 C1345 1.524 1_554 S
C1346 C1347 1.397 . S
C1346 C1351 1.363 . S
C1347 H1318 0.950 . S
C1347 C1346 1.397 . S
C1347 C1348 1.334 . S
C1348 H1319 0.950 . S
C1348 C1347 1.334 . S
C1348 C1349 1.287 . S
C1349 C1348 1.287 . S
C1349 C1350 1.524 . S
C1349 H1352 0.999 . S
C1350 H1320 0.950 . S
C1350 C1349 1.524 . S
C1350 C1351 1.415 . S
C1351 H1321 0.950 1_554 S
C1351 C1346 1.363 . S
C1351 C1350 1.415 . S
H1352 C1349 0.999 . S
H1353 C1334 0.913 . S
H1354 C1372 0.951 . S
H1355 C1374 0.951 . S
H1356 C1376 0.950 . S
H1357 C1377 0.950 . S
H1358 C1379 0.950 . S
H1359 C1382 0.950 1_556 S
H1360 C1383 0.950 . S
H1361 C1385 0.950 . S
H1362 C1386 0.950 . S
H1363 C1387 0.951 . S
H1364 C1389 0.951 . S
H1365 C1391 0.950 . S
H1366 C1392 0.950 1_554 S
H1367 C1394 0.950 1_554 S
H1368 C1397 0.950 . S
H1369 C1398 0.950 . S
H1370 C1400 0.950 . S
H1371 C1401 0.950 . S
C1372 H1354 0.951 . S
C1372 C1373 1.366 . S
C1372 C1374 1.388 . S
C1373 C1372 1.366 . S
C1373 C1377 1.385 . S
C1374 H1355 0.951 . S
C1374 C1372 1.388 . S
C1374 C1375 1.366 . S
C1375 C1374 1.366 . S
C1375 C1376 1.414 . S
C1375 C1378 1.499 . S
C1376 H1356 0.950 . S
C1376 C1375 1.414 . S
C1376 C1377 1.374 . S
C1377 H1357 0.950 . S
C1377 C1373 1.385 . S
C1377 C1376 1.374 . S
C1378 C1375 1.499 . S
C1378 C1379 1.373 . S
C1378 C1380 1.389 . S
C1379 H1358 0.950 . S
C1379 C1378 1.373 . S
C1379 C1395 1.377 . S
C1380 C1378 1.389 . S
C1380 C1381 1.524 1_556 S
C1380 C1394 1.377 . S
C1381 C1380 1.524 1_554 S
C1381 C1382 1.397 . S
C1381 C1386 1.363 . S
C1382 H1359 0.950 1_554 S
C1382 C1381 1.397 . S
C1382 C1383 1.334 . S
C1383 H1360 0.950 . S
C1383 C1382 1.334 . S
C1383 C1384 1.287 . S
C1384 C1383 1.287 . S
C1384 C1385 1.524 . S
C1384 H1403 0.913 . S
C1385 H1361 0.950 . S
C1385 C1384 1.524 . S
C1385 C1386 1.415 . S
C1386 H1362 0.950 . S
C1386 C1381 1.363 . S
C1386 C1385 1.415 . S
C1387 H1363 0.951 . S
C1387 C1388 1.366 . S
C1387 C1389 1.388 . S
C1388 C1387 1.366 . S
C1388 C1392 1.385 . S
C1389 H1364 0.951 . S
C1389 C1387 1.388 . S
C1389 C1390 1.366 . S
C1390 C1389 1.366 . S
C1390 C1391 1.414 . S
C1390 C1393 1.499 . S
C1391 H1365 0.950 . S
C1391 C1390 1.414 . S
C1391 C1392 1.374 . S
C1392 H1366 0.950 1_556 S
C1392 C1388 1.385 . S
C1392 C1391 1.374 . S
C1393 C1390 1.499 . S
C1393 C1394 1.373 . S
C1393 C1395 1.389 . S
C1394 H1367 0.950 1_556 S
C1394 C1380 1.377 . S
C1394 C1393 1.373 . S
C1395 C1379 1.377 . S
C1395 C1393 1.389 . S
C1395 C1396 1.524 . S
C1396 C1395 1.524 . S
C1396 C1397 1.397 . S
C1396 C1401 1.363 . S
C1397 H1368 0.950 . S
C1397 C1396 1.397 . S
C1397 C1398 1.334 . S
C1398 H1369 0.950 . S
C1398 C1397 1.334 . S
C1398 C1399 1.287 . S
C1399 C1398 1.287 . S
C1399 C1400 1.524 . S
C1399 H1402 0.999 . S
C1400 H1370 0.950 . S
C1400 C1399 1.524 . S
C1400 C1401 1.415 . S
C1401 H1371 0.950 . S
C1401 C1396 1.363 . S
C1401 C1400 1.415 . S
H1402 C1399 0.999 . S
H1403 C1384 0.913 . S
H1404 C1422 0.951 . S
H1405 C1424 0.951 . S
H1406 C1426 0.950 . S
H1407 C1427 0.950 . S
H1408 C1429 0.950 . S
H1409 C1432 0.950 . S
H1410 C1433 0.950 . S
H1411 C1435 0.950 . S
H1412 C1436 0.950 1_556 S
H1413 C1437 0.951 . S
H1414 C1439 0.951 . S
H1415 C1441 0.950 . S
H1416 C1442 0.950 . S
H1417 C1444 0.950 . S
H1418 C1447 0.950 . S
H1419 C1448 0.950 . S
H1420 C1450 0.950 . S
H1421 C1451 0.950 . S
C1422 H1404 0.951 . S
C1422 C1423 1.366 . S
C1422 C1424 1.388 . S
C1423 C1422 1.366 . S
C1423 C1427 1.385 . S
C1424 H1405 0.951 . S
C1424 C1422 1.388 . S
C1424 C1425 1.366 . S
C1425 C1424 1.366 . S
C1425 C1426 1.414 . S
C1425 C1428 1.499 . S
C1426 H1406 0.950 . S
C1426 C1425 1.414 . S
C1426 C1427 1.374 . S
C1427 H1407 0.950 . S
C1427 C1423 1.385 . S
C1427 C1426 1.374 . S
C1428 C1425 1.499 . S
C1428 C1429 1.373 . S
C1428 C1430 1.389 . S
C1429 H1408 0.950 . S
C1429 C1428 1.373 . S
C1429 C1445 1.377 . S
C1430 C1428 1.389 . S
C1430 C1431 1.524 . S
C1430 C1444 1.377 . S
C1431 C1430 1.524 . S
C1431 C1432 1.397 . S
C1431 C1436 1.363 . S
C1432 H1409 0.950 . S
C1432 C1431 1.397 . S
C1432 C1433 1.334 . S
C1433 H1410 0.950 . S
C1433 C1432 1.334 . S
C1433 C1434 1.287 . S
C1434 C1433 1.287 . S
C1434 C1435 1.524 1_554 S
C1434 H1453 0.913 1_554 S
C1435 H1411 0.950 . S
C1435 C1434 1.524 1_556 S
C1435 C1436 1.415 1_556 S
C1436 H1412 0.950 1_554 S
C1436 C1431 1.363 . S
C1436 C1435 1.415 1_554 S
C1437 H1413 0.951 . S
C1437 C1438 1.366 . S
C1437 C1439 1.388 . S
C1438 C1437 1.366 . S
C1438 C1442 1.385 . S
C1439 H1414 0.951 . S
C1439 C1437 1.388 . S
C1439 C1440 1.366 . S
C1440 C1439 1.366 . S
C1440 C1441 1.414 . S
C1440 C1443 1.499 . S
C1441 H1415 0.950 . S
C1441 C1440 1.414 . S
C1441 C1442 1.374 . S
C1442 H1416 0.950 . S
C1442 C1438 1.385 . S
C1442 C1441 1.374 . S
C1443 C1440 1.499 . S
C1443 C1444 1.373 . S
C1443 C1445 1.389 . S
C1444 H1417 0.950 . S
C1444 C1430 1.377 . S
C1444 C1443 1.373 . S
C1445 C1429 1.377 . S
C1445 C1443 1.389 . S
C1445 C1446 1.524 . S
C1446 C1445 1.524 . S
C1446 C1447 1.397 . S
C1446 C1451 1.363 . S
C1447 H1418 0.950 . S
C1447 C1446 1.397 . S
C1447 C1448 1.334 . S
C1448 H1419 0.950 . S
C1448 C1447 1.334 . S
C1448 C1449 1.287 . S
C1449 C1448 1.287 . S
C1449 C1450 1.524 . S
C1449 H1452 0.999 . S
C1450 H1420 0.950 . S
C1450 C1449 1.524 . S
C1450 C1451 1.415 . S
C1451 H1421 0.950 . S
C1451 C1446 1.363 . S
C1451 C1450 1.415 . S
H1452 C1449 0.999 . S
H1453 C1434 0.913 1_556 S
H1454 C1472 0.951 . S
H1455 C1474 0.951 . S
H1456 C1476 0.950 . S
H1457 C1477 0.950 . S
H1458 C1479 0.950 . S
H1459 C1482 0.950 . S
H1460 C1483 0.950 . S
H1461 C1485 0.950 . S
H1462 C1486 0.950 . S
H1463 C1487 0.951 . S
H1464 C1489 0.951 . S
H1465 C1491 0.950 . S
H1466 C1492 0.950 . S
H1467 C1494 0.950 . S
H1468 C1497 0.950 . S
H1469 C1498 0.950 . S
H1470 C1500 0.950 . S
H1471 C1501 0.950 . S
C1472 H1454 0.951 . S
C1472 C1473 1.366 . S
C1472 C1474 1.388 . S
C1473 C1472 1.366 . S
C1473 C1477 1.385 . S
C1474 H1455 0.951 . S
C1474 C1472 1.388 . S
C1474 C1475 1.366 . S
C1475 C1474 1.366 . S
C1475 C1476 1.414 . S
C1475 C1478 1.499 . S
C1476 H1456 0.950 . S
C1476 C1475 1.414 . S
C1476 C1477 1.374 . S
C1477 H1457 0.950 . S
C1477 C1473 1.385 . S
C1477 C1476 1.374 . S
C1478 C1475 1.499 . S
C1478 C1479 1.373 . S
C1478 C1480 1.389 . S
C1479 H1458 0.950 . S
C1479 C1478 1.373 . S
C1479 C1495 1.377 . S
C1480 C1478 1.389 . S
C1480 C1481 1.524 . S
C1480 C1494 1.377 . S
C1481 C1480 1.524 . S
C1481 C1482 1.397 . S
C1481 C1486 1.363 . S
C1482 H1459 0.950 . S
C1482 C1481 1.397 . S
C1482 C1483 1.334 . S
C1483 H1460 0.950 . S
C1483 C1482 1.334 . S
C1483 C1484 1.287 . S
C1484 C1483 1.287 . S
C1484 C1485 1.524 . S
C1484 H1503 0.913 . S
C1485 H1461 0.950 . S
C1485 C1484 1.524 . S
C1485 C1486 1.415 . S
C1486 H1462 0.950 . S
C1486 C1481 1.363 . S
C1486 C1485 1.415 . S
C1487 H1463 0.951 . S
C1487 C1488 1.366 . S
C1487 C1489 1.388 . S
C1488 C1487 1.366 . S
C1488 C1492 1.385 . S
C1489 H1464 0.951 . S
C1489 C1487 1.388 . S
C1489 C1490 1.366 . S
C1490 C1489 1.366 . S
C1490 C1491 1.414 . S
C1490 C1493 1.499 . S
C1491 H1465 0.950 . S
C1491 C1490 1.414 . S
C1491 C1492 1.374 . S
C1492 H1466 0.950 . S
C1492 C1488 1.385 . S
C1492 C1491 1.374 . S
C1493 C1490 1.499 . S
C1493 C1494 1.373 . S
C1493 C1495 1.389 . S
C1494 H1467 0.950 . S
C1494 C1480 1.377 . S
C1494 C1493 1.373 . S
C1495 C1479 1.377 . S
C1495 C1493 1.389 . S
C1495 C1496 1.524 1_554 S
C1496 C1495 1.524 1_556 S
C1496 C1497 1.397 . S
C1496 C1501 1.363 . S
C1497 H1468 0.950 . S
C1497 C1496 1.397 . S
C1497 C1498 1.334 . S
C1498 H1469 0.950 . S
C1498 C1497 1.334 . S
C1498 C1499 1.287 . S
C1499 C1498 1.287 . S
C1499 C1500 1.524 . S
C1499 H1502 0.999 . S
C1500 H1470 0.950 . S
C1500 C1499 1.524 . S
C1500 C1501 1.415 . S
C1501 H1471 0.950 . S
C1501 C1496 1.363 . S
C1501 C1500 1.415 . S
H1502 C1499 0.999 . S
H1503 C1484 0.913 . S
H1504 C1522 0.951 . S
H1505 C1524 0.951 . S
H1506 C1526 0.950 . S
H1507 C1527 0.950 . S
H1508 C1529 0.950 . S
H1509 C1532 0.950 . S
H1510 C1533 0.950 1_556 S
H1511 C1535 0.950 . S
H1512 C1536 0.950 . S
H1513 C1537 0.951 . S
H1514 C1539 0.951 . S
H1515 C1541 0.950 . S
H1516 C1542 0.950 . S
H1517 C1544 0.950 . S
H1518 C1547 0.950 . S
H1519 C1548 0.950 . S
H1520 C1550 0.950 . S
H1521 C1551 0.950 . S
C1522 H1504 0.951 . S
C1522 C1523 1.366 . S
C1522 C1524 1.388 . S
C1523 C1522 1.366 . S
C1523 C1527 1.385 . S
C1524 H1505 0.951 . S
C1524 C1522 1.388 . S
C1524 C1525 1.366 . S
C1525 C1524 1.366 . S
C1525 C1526 1.414 . S
C1525 C1528 1.499 . S
C1526 H1506 0.950 . S
C1526 C1525 1.414 . S
C1526 C1527 1.374 . S
C1527 H1507 0.950 . S
C1527 C1523 1.385 . S
C1527 C1526 1.374 . S
C1528 C1525 1.499 . S
C1528 C1529 1.373 . S
C1528 C1530 1.389 . S
C1529 H1508 0.950 . S
C1529 C1528 1.373 . S
C1529 C1545 1.377 . S
C1530 C1528 1.389 . S
C1530 C1531 1.524 . S
C1530 C1544 1.377 . S
C1531 C1530 1.524 . S
C1531 C1532 1.397 . S
C1531 C1536 1.363 . S
C1532 H1509 0.950 . S
C1532 C1531 1.397 . S
C1532 C1533 1.334 . S
C1533 H1510 0.950 1_554 S
C1533 C1532 1.334 . S
C1533 C1534 1.287 . S
C1534 C1533 1.287 . S
C1534 C1535 1.524 . S
C1534 H1553 0.913 1_554 S
C1535 H1511 0.950 . S
C1535 C1534 1.524 . S
C1535 C1536 1.415 . S
C1536 H1512 0.950 . S
C1536 C1531 1.363 . S
C1536 C1535 1.415 . S
C1537 H1513 0.951 . S
C1537 C1538 1.366 . S
C1537 C1539 1.388 . S
C1538 C1537 1.366 . S
C1538 C1542 1.385 . S
C1539 H1514 0.951 . S
C1539 C1537 1.388 . S
C1539 C1540 1.366 . S
C1540 C1539 1.366 . S
C1540 C1541 1.414 . S
C1540 C1543 1.499 . S
C1541 H1515 0.950 . S
C1541 C1540 1.414 . S
C1541 C1542 1.374 . S
C1542 H1516 0.950 . S
C1542 C1538 1.385 . S
C1542 C1541 1.374 . S
C1543 C1540 1.499 . S
C1543 C1544 1.373 . S
C1543 C1545 1.389 . S
C1544 H1517 0.950 . S
C1544 C1530 1.377 . S
C1544 C1543 1.373 . S
C1545 C1529 1.377 . S
C1545 C1543 1.389 . S
C1545 C1546 1.524 . S
C1546 C1545 1.524 . S
C1546 C1547 1.397 . S
C1546 C1551 1.363 . S
C1547 H1518 0.950 . S
C1547 C1546 1.397 . S
C1547 C1548 1.334 . S
C1548 H1519 0.950 . S
C1548 C1547 1.334 . S
C1548 C1549 1.287 . S
C1549 C1548 1.287 . S
C1549 C1550 1.524 . S
C1549 H1552 0.999 . S
C1550 H1520 0.950 . S
C1550 C1549 1.524 . S
C1550 C1551 1.415 . S
C1551 H1521 0.950 . S
C1551 C1546 1.363 . S
C1551 C1550 1.415 . S
H1552 C1549 0.999 . S
H1553 C1534 0.913 1_556 S
H1554 C1572 0.951 . S
H1555 C1574 0.951 . S
H1556 C1576 0.950 . S
H1557 C1577 0.950 . S
H1558 C1579 0.950 . S
H1559 C1582 0.950 1_455 S
H1560 C1583 0.950 . S
H1561 C1585 0.950 . S
H1562 C1586 0.950 . S
H1563 C1587 0.951 . S
H1564 C1589 0.951 . S
H1565 C1591 0.950 . S
H1566 C1592 0.950 . S
H1567 C1594 0.950 . S
H1568 C1597 0.950 . S
H1569 C1598 0.950 . S
H1570 C1600 0.950 . S
H1571 C1601 0.950 . S
C1572 H1554 0.951 . S
C1572 C1573 1.366 . S
C1572 C1574 1.388 . S
C1573 C1572 1.366 . S
C1573 C1577 1.385 . S
C1574 H1555 0.951 . S
C1574 C1572 1.388 . S
C1574 C1575 1.366 1_655 S
C1575 C1574 1.366 1_455 S
C1575 C1576 1.414 . S
C1575 C1578 1.499 . S
C1576 H1556 0.950 . S
C1576 C1575 1.414 . S
C1576 C1577 1.374 1_455 S
C1577 H1557 0.950 . S
C1577 C1573 1.385 . S
C1577 C1576 1.374 1_655 S
C1578 C1575 1.499 . S
C1578 C1579 1.373 . S
C1578 C1580 1.389 . S
C1579 H1558 0.950 . S
C1579 C1578 1.373 . S
C1579 C1595 1.377 . S
C1580 C1578 1.389 . S
C1580 C1581 1.524 . S
C1580 C1594 1.377 . S
C1581 C1580 1.524 . S
C1581 C1582 1.397 1_455 S
C1581 C1586 1.363 . S
C1582 H1559 0.950 1_655 S
C1582 C1581 1.397 1_655 S
C1582 C1583 1.334 . S
C1583 H1560 0.950 . S
C1583 C1582 1.334 . S
C1583 C1584 1.287 . S
C1584 C1583 1.287 . S
C1584 C1585 1.524 . S
C1584 H1603 0.913 . S
C1585 H1561 0.950 . S
C1585 C1584 1.524 . S
C1585 C1586 1.415 1_655 S
C1586 H1562 0.950 . S
C1586 C1581 1.363 . S
C1586 C1585 1.415 1_455 S
C1587 H1563 0.951 . S
C1587 C1588 1.366 . S
C1587 C1589 1.388 . S
C1588 C1587 1.366 . S
C1588 C1592 1.385 . S
C1589 H1564 0.951 . S
C1589 C1587 1.388 . S
C1589 C1590 1.366 . S
C1590 C1589 1.366 . S
C1590 C1591 1.414 . S
C1590 C1593 1.499 . S
C1591 H1565 0.950 . S
C1591 C1590 1.414 . S
C1591 C1592 1.374 . S
C1592 H1566 0.950 . S
C1592 C1588 1.385 . S
C1592 C1591 1.374 . S
C1593 C1590 1.499 . S
C1593 C1594 1.373 . S
C1593 C1595 1.389 . S
C1594 H1567 0.950 . S
C1594 C1580 1.377 . S
C1594 C1593 1.373 . S
C1595 C1579 1.377 . S
C1595 C1593 1.389 . S
C1595 C1596 1.524 . S
C1596 C1595 1.524 . S
C1596 C1597 1.397 . S
C1596 C1601 1.363 . S
C1597 H1568 0.950 . S
C1597 C1596 1.397 . S
C1597 C1598 1.334 . S
C1598 H1569 0.950 . S
C1598 C1597 1.334 . S
C1598 C1599 1.287 . S
C1599 C1598 1.287 . S
C1599 C1600 1.524 . S
C1599 H1602 0.999 . S
C1600 H1570 0.950 . S
C1600 C1599 1.524 . S
C1600 C1601 1.415 . S
C1601 H1571 0.950 . S
C1601 C1596 1.363 . S
C1601 C1600 1.415 . S
H1602 C1599 0.999 . S
H1603 C1584 0.913 . S
H1604 C1622 0.951 . S
H1605 C1624 0.951 . S
H1606 C1626 0.950 . S
H1607 C1627 0.950 . S
H1608 C1629 0.950 . S
H1609 C1632 0.950 . S
H1610 C1633 0.950 . S
H1611 C1635 0.950 . S
H1612 C1636 0.950 . S
H1613 C1637 0.951 . S
H1614 C1639 0.951 . S
H1615 C1641 0.950 . S
H1616 C1642 0.950 . S
H1617 C1644 0.950 . S
H1618 C1647 0.950 . S
H1619 C1648 0.950 . S
H1620 C1650 0.950 . S
H1621 C1651 0.950 . S
C1622 H1604 0.951 . S
C1622 C1623 1.366 . S
C1622 C1624 1.388 . S
C1623 C1622 1.366 . S
C1623 C1627 1.385 . S
C1624 H1605 0.951 . S
C1624 C1622 1.388 . S
C1624 C1625 1.366 . S
C1625 C1624 1.366 . S
C1625 C1626 1.414 . S
C1625 C1628 1.499 . S
C1626 H1606 0.950 . S
C1626 C1625 1.414 . S
C1626 C1627 1.374 . S
C1627 H1607 0.950 . S
C1627 C1623 1.385 . S
C1627 C1626 1.374 . S
C1628 C1625 1.499 . S
C1628 C1629 1.373 . S
C1628 C1630 1.389 . S
C1629 H1608 0.950 . S
C1629 C1628 1.373 . S
C1629 C1645 1.377 . S
C1630 C1628 1.389 . S
C1630 C1631 1.524 . S
C1630 C1644 1.377 . S
C1631 C1630 1.524 . S
C1631 C1632 1.397 . S
C1631 C1636 1.363 . S
C1632 H1609 0.950 . S
C1632 C1631 1.397 . S
C1632 C1633 1.334 . S
C1633 H1610 0.950 . S
C1633 C1632 1.334 . S
C1633 C1634 1.287 . S
C1634 C1633 1.287 . S
C1634 C1635 1.524 . S
C1634 H1653 0.913 . S
C1635 H1611 0.950 . S
C1635 C1634 1.524 . S
C1635 C1636 1.415 . S
C1636 H1612 0.950 . S
C1636 C1631 1.363 . S
C1636 C1635 1.415 . S
C1637 H1613 0.951 . S
C1637 C1638 1.366 . S
C1637 C1639 1.388 . S
C1638 C1637 1.366 . S
C1638 C1642 1.385 . S
C1639 H1614 0.951 . S
C1639 C1637 1.388 . S
C1639 C1640 1.366 . S
C1640 C1639 1.366 . S
C1640 C1641 1.414 . S
C1640 C1643 1.499 . S
C1641 H1615 0.950 . S
C1641 C1640 1.414 . S
C1641 C1642 1.374 . S
C1642 H1616 0.950 . S
C1642 C1638 1.385 . S
C1642 C1641 1.374 . S
C1643 C1640 1.499 . S
C1643 C1644 1.373 . S
C1643 C1645 1.389 . S
C1644 H1617 0.950 . S
C1644 C1630 1.377 . S
C1644 C1643 1.373 . S
C1645 C1629 1.377 . S
C1645 C1643 1.389 . S
C1645 C1646 1.524 . S
C1646 C1645 1.524 . S
C1646 C1647 1.397 . S
C1646 C1651 1.363 . S
C1647 H1618 0.950 . S
C1647 C1646 1.397 . S
C1647 C1648 1.334 . S
C1648 H1619 0.950 . S
C1648 C1647 1.334 . S
C1648 C1649 1.287 . S
C1649 C1648 1.287 . S
C1649 C1650 1.524 . S
C1649 H1652 0.999 . S
C1650 H1620 0.950 . S
C1650 C1649 1.524 . S
C1650 C1651 1.415 . S
C1651 H1621 0.950 . S
C1651 C1646 1.363 . S
C1651 C1650 1.415 . S
H1652 C1649 0.999 . S
H1653 C1634 0.913 . S
H1654 C1672 0.951 . S
H1655 C1674 0.951 . S
H1656 C1676 0.950 . S
H1657 C1677 0.950 . S
H1658 C1679 0.950 1_545 S
H1659 C1682 0.950 . S
H1660 C1683 0.950 . S
H1661 C1685 0.950 . S
H1662 C1686 0.950 . S
H1663 C1687 0.951 . S
H1664 C1689 0.951 . S
H1665 C1691 0.950 . S
H1666 C1692 0.950 . S
H1667 C1694 0.950 . S
H1668 C1697 0.950 . S
H1669 C1698 0.950 . S
H1670 C1700 0.950 . S
H1671 C1701 0.950 . S
C1672 H1654 0.951 . S
C1672 C1673 1.366 . S
C1672 C1674 1.388 . S
C1673 C1672 1.366 . S
C1673 C1677 1.385 . S
C1674 H1655 0.951 . S
C1674 C1672 1.388 . S
C1674 C1675 1.366 . S
C1675 C1674 1.366 . S
C1675 C1676 1.414 . S
C1675 C1678 1.499 1_545 S
C1676 H1656 0.950 . S
C1676 C1675 1.414 . S
C1676 C1677 1.374 . S
C1677 H1657 0.950 . S
C1677 C1673 1.385 . S
C1677 C1676 1.374 . S
C1678 C1675 1.499 1_565 S
C1678 C1679 1.373 . S
C1678 C1680 1.389 . S
C1679 H1658 0.950 1_565 S
C1679 C1678 1.373 . S
C1679 C1695 1.377 . S
C1680 C1678 1.389 . S
C1680 C1681 1.524 . S
C1680 C1694 1.377 . S
C1681 C1680 1.524 . S
C1681 C1682 1.397 . S
C1681 C1686 1.363 . S
C1682 H1659 0.950 . S
C1682 C1681 1.397 . S
C1682 C1683 1.334 . S
C1683 H1660 0.950 . S
C1683 C1682 1.334 . S
C1683 C1684 1.287 . S
C1684 C1683 1.287 . S
C1684 C1685 1.524 . S
C1684 H1703 0.913 . S
C1685 H1661 0.950 . S
C1685 C1684 1.524 . S
C1685 C1686 1.415 . S
C1686 H1662 0.950 . S
C1686 C1681 1.363 . S
C1686 C1685 1.415 . S
C1687 H1663 0.951 . S
C1687 C1688 1.366 . S
C1687 C1689 1.388 . S
C1688 C1687 1.366 . S
C1688 C1692 1.385 . S
C1689 H1664 0.951 . S
C1689 C1687 1.388 . S
C1689 C1690 1.366 . S
C1690 C1689 1.366 . S
C1690 C1691 1.414 . S
C1690 C1693 1.499 . S
C1691 H1665 0.950 . S
C1691 C1690 1.414 . S
C1691 C1692 1.374 . S
C1692 H1666 0.950 . S
C1692 C1688 1.385 . S
C1692 C1691 1.374 . S
C1693 C1690 1.499 . S
C1693 C1694 1.373 . S
C1693 C1695 1.389 . S
C1694 H1667 0.950 . S
C1694 C1680 1.377 . S
C1694 C1693 1.373 . S
C1695 C1679 1.377 . S
C1695 C1693 1.389 . S
C1695 C1696 1.524 . S
C1696 C1695 1.524 . S
C1696 C1697 1.397 . S
C1696 C1701 1.363 . S
C1697 H1668 0.950 . S
C1697 C1696 1.397 . S
C1697 C1698 1.334 . S
C1698 H1669 0.950 . S
C1698 C1697 1.334 . S
C1698 C1699 1.287 . S
C1699 C1698 1.287 . S
C1699 C1700 1.524 . S
C1699 H1702 0.999 . S
C1700 H1670 0.950 . S
C1700 C1699 1.524 . S
C1700 C1701 1.415 . S
C1701 H1671 0.950 . S
C1701 C1696 1.363 . S
C1701 C1700 1.415 . S
H1702 C1699 0.999 . S
H1703 C1684 0.913 . S
H1704 C1722 0.951 . S
H1705 C1724 0.951 . S
H1706 C1726 0.950 . S
H1707 C1727 0.950 . S
H1708 C1729 0.950 . S
H1709 C1732 0.950 . S
H1710 C1733 0.950 . S
H1711 C1735 0.950 . S
H1712 C1736 0.950 . S
H1713 C1737 0.951 . S
H1714 C1739 0.951 . S
H1715 C1741 0.950 . S
H1716 C1742 0.950 . S
H1717 C1744 0.950 . S
H1718 C1747 0.950 . S
H1719 C1748 0.950 . S
H1720 C1750 0.950 . S
H1721 C1751 0.950 . S
C1722 H1704 0.951 . S
C1722 C1723 1.366 . S
C1722 C1724 1.388 . S
C1723 C1722 1.366 . S
C1723 C1727 1.385 . S
C1724 H1705 0.951 . S
C1724 C1722 1.388 . S
C1724 C1725 1.366 . S
C1725 C1724 1.366 . S
C1725 C1726 1.414 . S
C1725 C1728 1.499 . S
C1726 H1706 0.950 . S
C1726 C1725 1.414 . S
C1726 C1727 1.374 . S
C1727 H1707 0.950 . S
C1727 C1723 1.385 . S
C1727 C1726 1.374 . S
C1728 C1725 1.499 . S
C1728 C1729 1.373 . S
C1728 C1730 1.389 . S
C1729 H1708 0.950 . S
C1729 C1728 1.373 . S
C1729 C1745 1.377 . S
C1730 C1728 1.389 . S
C1730 C1731 1.524 . S
C1730 C1744 1.377 . S
C1731 C1730 1.524 . S
C1731 C1732 1.397 . S
C1731 C1736 1.363 . S
C1732 H1709 0.950 . S
C1732 C1731 1.397 . S
C1732 C1733 1.334 . S
C1733 H1710 0.950 . S
C1733 C1732 1.334 . S
C1733 C1734 1.287 . S
C1734 C1733 1.287 . S
C1734 C1735 1.524 . S
C1734 H1753 0.913 . S
C1735 H1711 0.950 . S
C1735 C1734 1.524 . S
C1735 C1736 1.415 . S
C1736 H1712 0.950 . S
C1736 C1731 1.363 . S
C1736 C1735 1.415 . S
C1737 H1713 0.951 . S
C1737 C1738 1.366 . S
C1737 C1739 1.388 . S
C1738 C1737 1.366 . S
C1738 C1742 1.385 . S
C1739 H1714 0.951 . S
C1739 C1737 1.388 . S
C1739 C1740 1.366 . S
C1740 C1739 1.366 . S
C1740 C1741 1.414 . S
C1740 C1743 1.499 . S
C1741 H1715 0.950 . S
C1741 C1740 1.414 . S
C1741 C1742 1.374 . S
C1742 H1716 0.950 . S
C1742 C1738 1.385 . S
C1742 C1741 1.374 . S
C1743 C1740 1.499 . S
C1743 C1744 1.373 . S
C1743 C1745 1.389 . S
C1744 H1717 0.950 . S
C1744 C1730 1.377 . S
C1744 C1743 1.373 . S
C1745 C1729 1.377 . S
C1745 C1743 1.389 . S
C1745 C1746 1.524 . S
C1746 C1745 1.524 . S
C1746 C1747 1.397 . S
C1746 C1751 1.363 . S
C1747 H1718 0.950 . S
C1747 C1746 1.397 . S
C1747 C1748 1.334 . S
C1748 H1719 0.950 . S
C1748 C1747 1.334 . S
C1748 C1749 1.287 . S
C1749 C1748 1.287 . S
C1749 C1750 1.524 . S
C1749 H1752 0.999 . S
C1750 H1720 0.950 . S
C1750 C1749 1.524 . S
C1750 C1751 1.415 . S
C1751 H1721 0.950 . S
C1751 C1746 1.363 . S
C1751 C1750 1.415 . S
H1752 C1749 0.999 . S
H1753 C1734 0.913 . S
H1754 C1772 0.951 . S
H1755 C1774 0.951 . S
H1756 C1776 0.950 . S
H1757 C1777 0.950 . S
H1758 C1779 0.950 . S
H1759 C1782 0.950 . S
H1760 C1783 0.950 . S
H1761 C1785 0.950 . S
H1762 C1786 0.950 . S
H1763 C1787 0.951 . S
H1764 C1789 0.951 . S
H1765 C1791 0.950 . S
H1766 C1792 0.950 . S
H1767 C1794 0.950 . S
H1768 C1797 0.950 . S
H1769 C1798 0.950 . S
H1770 C1800 0.950 . S
H1771 C1801 0.950 . S
C1772 H1754 0.951 . S
C1772 C1773 1.366 . S
C1772 C1774 1.388 . S
C1773 C1772 1.366 . S
C1773 C1777 1.385 . S
C1774 H1755 0.951 . S
C1774 C1772 1.388 . S
C1774 C1775 1.366 . S
C1775 C1774 1.366 . S
C1775 C1776 1.414 . S
C1775 C1778 1.499 . S
C1776 H1756 0.950 . S
C1776 C1775 1.414 . S
C1776 C1777 1.374 . S
C1777 H1757 0.950 . S
C1777 C1773 1.385 . S
C1777 C1776 1.374 . S
C1778 C1775 1.499 . S
C1778 C1779 1.373 . S
C1778 C1780 1.389 . S
C1779 H1758 0.950 . S
C1779 C1778 1.373 . S
C1779 C1795 1.377 . S
C1780 C1778 1.389 . S
C1780 C1781 1.524 . S
C1780 C1794 1.377 . S
C1781 C1780 1.524 . S
C1781 C1782 1.397 . S
C1781 C1786 1.363 . S
C1782 H1759 0.950 . S
C1782 C1781 1.397 . S
C1782 C1783 1.334 . S
C1783 H1760 0.950 . S
C1783 C1782 1.334 . S
C1783 C1784 1.287 . S
C1784 C1783 1.287 . S
C1784 C1785 1.524 . S
C1784 H1803 0.913 . S
C1785 H1761 0.950 . S
C1785 C1784 1.524 . S
C1785 C1786 1.415 . S
C1786 H1762 0.950 . S
C1786 C1781 1.363 . S
C1786 C1785 1.415 . S
C1787 H1763 0.951 . S
C1787 C1788 1.366 . S
C1787 C1789 1.388 . S
C1788 C1787 1.366 . S
C1788 C1792 1.385 . S
C1789 H1764 0.951 . S
C1789 C1787 1.388 . S
C1789 C1790 1.366 . S
C1790 C1789 1.366 . S
C1790 C1791 1.414 . S
C1790 C1793 1.499 . S
C1791 H1765 0.950 . S
C1791 C1790 1.414 . S
C1791 C1792 1.374 . S
C1792 H1766 0.950 . S
C1792 C1788 1.385 . S
C1792 C1791 1.374 . S
C1793 C1790 1.499 . S
C1793 C1794 1.373 . S
C1793 C1795 1.389 . S
C1794 H1767 0.950 . S
C1794 C1780 1.377 . S
C1794 C1793 1.373 . S
C1795 C1779 1.377 . S
C1795 C1793 1.389 . S
C1795 C1796 1.524 . S
C1796 C1795 1.524 . S
C1796 C1797 1.397 . S
C1796 C1801 1.363 . S
C1797 H1768 0.950 . S
C1797 C1796 1.397 . S
C1797 C1798 1.334 . S
C1798 H1769 0.950 . S
C1798 C1797 1.334 . S
C1798 C1799 1.287 . S
C1799 C1798 1.287 . S
C1799 C1800 1.524 . S
C1799 H1802 0.999 . S
C1800 H1770 0.950 . S
C1800 C1799 1.524 . S
C1800 C1801 1.415 . S
C1801 H1771 0.950 . S
C1801 C1796 1.363 . S
C1801 C1800 1.415 . S
H1802 C1799 0.999 . S
H1803 C1784 0.913 . S
H1804 C1822 0.951 . S
H1805 C1824 0.951 . S
H1806 C1826 0.950 . S
H1807 C1827 0.950 . S
H1808 C1829 0.950 . S
H1809 C1832 0.950 . S
H1810 C1833 0.950 . S
H1811 C1835 0.950 . S
H1812 C1836 0.950 . S
H1813 C1837 0.951 . S
H1814 C1839 0.951 . S
H1815 C1841 0.950 . S
H1816 C1842 0.950 . S
H1817 C1844 0.950 . S
H1818 C1847 0.950 . S
H1819 C1848 0.950 . S
H1820 C1850 0.950 . S
H1821 C1851 0.950 . S
C1822 H1804 0.951 . S
C1822 C1823 1.366 . S
C1822 C1824 1.388 . S
C1823 C1822 1.366 . S
C1823 C1827 1.385 . S
C1824 H1805 0.951 . S
C1824 C1822 1.388 . S
C1824 C1825 1.366 . S
C1825 C1824 1.366 . S
C1825 C1826 1.414 . S
C1825 C1828 1.499 . S
C1826 H1806 0.950 . S
C1826 C1825 1.414 . S
C1826 C1827 1.374 . S
C1827 H1807 0.950 . S
C1827 C1823 1.385 . S
C1827 C1826 1.374 . S
C1828 C1825 1.499 . S
C1828 C1829 1.373 . S
C1828 C1830 1.389 . S
C1829 H1808 0.950 . S
C1829 C1828 1.373 . S
C1829 C1845 1.377 . S
C1830 C1828 1.389 . S
C1830 C1831 1.524 . S
C1830 C1844 1.377 . S
C1831 C1830 1.524 . S
C1831 C1832 1.397 . S
C1831 C1836 1.363 . S
C1832 H1809 0.950 . S
C1832 C1831 1.397 . S
C1832 C1833 1.334 . S
C1833 H1810 0.950 . S
C1833 C1832 1.334 . S
C1833 C1834 1.287 . S
C1834 C1833 1.287 . S
C1834 C1835 1.524 . S
C1834 H1853 0.913 . S
C1835 H1811 0.950 . S
C1835 C1834 1.524 . S
C1835 C1836 1.415 . S
C1836 H1812 0.950 . S
C1836 C1831 1.363 . S
C1836 C1835 1.415 . S
C1837 H1813 0.951 . S
C1837 C1838 1.366 . S
C1837 C1839 1.388 . S
C1838 C1837 1.366 . S
C1838 C1842 1.385 . S
C1839 H1814 0.951 . S
C1839 C1837 1.388 . S
C1839 C1840 1.366 . S
C1840 C1839 1.366 . S
C1840 C1841 1.414 . S
C1840 C1843 1.499 . S
C1841 H1815 0.950 . S
C1841 C1840 1.414 . S
C1841 C1842 1.374 . S
C1842 H1816 0.950 . S
C1842 C1838 1.385 . S
C1842 C1841 1.374 . S
C1843 C1840 1.499 . S
C1843 C1844 1.373 . S
C1843 C1845 1.389 . S
C1844 H1817 0.950 . S
C1844 C1830 1.377 . S
C1844 C1843 1.373 . S
C1845 C1829 1.377 . S
C1845 C1843 1.389 . S
C1845 C1846 1.524 . S
C1846 C1845 1.524 . S
C1846 C1847 1.397 . S
C1846 C1851 1.363 . S
C1847 H1818 0.950 . S
C1847 C1846 1.397 . S
C1847 C1848 1.334 . S
C1848 H1819 0.950 . S
C1848 C1847 1.334 . S
C1848 C1849 1.287 . S
C1849 C1848 1.287 . S
C1849 C1850 1.524 . S
C1849 H1852 0.999 . S
C1850 H1820 0.950 . S
C1850 C1849 1.524 . S
C1850 C1851 1.415 . S
C1851 H1821 0.950 . S
C1851 C1846 1.363 . S
C1851 C1850 1.415 . S
H1852 C1849 0.999 . S
H1853 C1834 0.913 . S
H1854 C1872 0.951 . S
H1855 C1874 0.951 . S
H1856 C1876 0.950 . S
H1857 C1877 0.950 . S
H1858 C1879 0.950 . S
H1859 C1882 0.950 . S
H1860 C1883 0.950 . S
H1861 C1885 0.950 . S
H1862 C1886 0.950 . S
H1863 C1887 0.951 . S
H1864 C1889 0.951 . S
H1865 C1891 0.950 . S
H1866 C1892 0.950 . S
H1867 C1894 0.950 . S
H1868 C1897 0.950 . S
H1869 C1898 0.950 . S
H1870 C1900 0.950 . S
H1871 C1901 0.950 . S
C1872 H1854 0.951 . S
C1872 C1873 1.366 . S
C1872 C1874 1.388 . S
C1873 C1872 1.366 . S
C1873 C1877 1.385 . S
C1874 H1855 0.951 . S
C1874 C1872 1.388 . S
C1874 C1875 1.366 . S
C1875 C1874 1.366 . S
C1875 C1876 1.414 . S
C1875 C1878 1.499 . S
C1876 H1856 0.950 . S
C1876 C1875 1.414 . S
C1876 C1877 1.374 . S
C1877 H1857 0.950 . S
C1877 C1873 1.385 . S
C1877 C1876 1.374 . S
C1878 C1875 1.499 . S
C1878 C1879 1.373 . S
C1878 C1880 1.389 . S
C1879 H1858 0.950 . S
C1879 C1878 1.373 . S
C1879 C1895 1.377 . S
C1880 C1878 1.389 . S
C1880 C1881 1.524 . S
C1880 C1894 1.377 . S
C1881 C1880 1.524 . S
C1881 C1882 1.397 . S
C1881 C1886 1.363 . S
C1882 H1859 0.950 . S
C1882 C1881 1.397 . S
C1882 C1883 1.334 . S
C1883 H1860 0.950 . S
C1883 C1882 1.334 . S
C1883 C1884 1.287 . S
C1884 C1883 1.287 . S
C1884 C1885 1.524 . S
C1884 H1903 0.913 . S
C1885 H1861 0.950 . S
C1885 C1884 1.524 . S
C1885 C1886 1.415 . S
C1886 H1862 0.950 . S
C1886 C1881 1.363 . S
C1886 C1885 1.415 . S
C1887 H1863 0.951 . S
C1887 C1888 1.366 . S
C1887 C1889 1.388 . S
C1888 C1887 1.366 . S
C1888 C1892 1.385 . S
C1889 H1864 0.951 . S
C1889 C1887 1.388 . S
C1889 C1890 1.366 . S
C1890 C1889 1.366 . S
C1890 C1891 1.414 . S
C1890 C1893 1.499 . S
C1891 H1865 0.950 . S
C1891 C1890 1.414 . S
C1891 C1892 1.374 . S
C1892 H1866 0.950 . S
C1892 C1888 1.385 . S
C1892 C1891 1.374 . S
C1893 C1890 1.499 . S
C1893 C1894 1.373 . S
C1893 C1895 1.389 . S
C1894 H1867 0.950 . S
C1894 C1880 1.377 . S
C1894 C1893 1.373 . S
C1895 C1879 1.377 . S
C1895 C1893 1.389 . S
C1895 C1896 1.524 . S
C1896 C1895 1.524 . S
C1896 C1897 1.397 . S
C1896 C1901 1.363 . S
C1897 H1868 0.950 . S
C1897 C1896 1.397 . S
C1897 C1898 1.334 . S
C1898 H1869 0.950 . S
C1898 C1897 1.334 . S
C1898 C1899 1.287 . S
C1899 C1898 1.287 . S
C1899 C1900 1.524 . S
C1899 H1902 0.999 . S
C1900 H1870 0.950 . S
C1900 C1899 1.524 . S
C1900 C1901 1.415 . S
C1901 H1871 0.950 . S
C1901 C1896 1.363 . S
C1901 C1900 1.415 . S
H1902 C1899 0.999 . S
H1903 C1884 0.913 . S
H1904 C1922 0.951 . S
H1905 C1924 0.951 . S
H1906 C1926 0.950 . S
H1907 C1927 0.950 . S
H1908 C1929 0.950 . S
H1909 C1932 0.950 . S
H1910 C1933 0.950 . S
H1911 C1935 0.950 . S
H1912 C1936 0.950 . S
H1913 C1937 0.951 . S
H1914 C1939 0.951 . S
H1915 C1941 0.950 . S
H1916 C1942 0.950 . S
H1917 C1944 0.950 . S
H1918 C1947 0.950 . S
H1919 C1948 0.950 . S
H1920 C1950 0.950 . S
H1921 C1951 0.950 . S
C1922 H1904 0.951 . S
C1922 C1923 1.366 . S
C1922 C1924 1.388 . S
C1923 C1922 1.366 . S
C1923 C1927 1.385 . S
C1924 H1905 0.951 . S
C1924 C1922 1.388 . S
C1924 C1925 1.366 . S
C1925 C1924 1.366 . S
C1925 C1926 1.414 . S
C1925 C1928 1.499 . S
C1926 H1906 0.950 . S
C1926 C1925 1.414 . S
C1926 C1927 1.374 . S
C1927 H1907 0.950 . S
C1927 C1923 1.385 . S
C1927 C1926 1.374 . S
C1928 C1925 1.499 . S
C1928 C1929 1.373 . S
C1928 C1930 1.389 . S
C1929 H1908 0.950 . S
C1929 C1928 1.373 . S
C1929 C1945 1.377 . S
C1930 C1928 1.389 . S
C1930 C1931 1.524 . S
C1930 C1944 1.377 . S
C1931 C1930 1.524 . S
C1931 C1932 1.397 . S
C1931 C1936 1.363 . S
C1932 H1909 0.950 . S
C1932 C1931 1.397 . S
C1932 C1933 1.334 . S
C1933 H1910 0.950 . S
C1933 C1932 1.334 . S
C1933 C1934 1.287 . S
C1934 C1933 1.287 . S
C1934 C1935 1.524 . S
C1934 H1953 0.913 . S
C1935 H1911 0.950 . S
C1935 C1934 1.524 . S
C1935 C1936 1.415 . S
C1936 H1912 0.950 . S
C1936 C1931 1.363 . S
C1936 C1935 1.415 . S
C1937 H1913 0.951 . S
C1937 C1938 1.366 . S
C1937 C1939 1.388 . S
C1938 C1937 1.366 . S
C1938 C1942 1.385 . S
C1939 H1914 0.951 . S
C1939 C1937 1.388 . S
C1939 C1940 1.366 . S
C1940 C1939 1.366 . S
C1940 C1941 1.414 . S
C1940 C1943 1.499 . S
C1941 H1915 0.950 . S
C1941 C1940 1.414 . S
C1941 C1942 1.374 . S
C1942 H1916 0.950 . S
C1942 C1938 1.385 . S
C1942 C1941 1.374 . S
C1943 C1940 1.499 . S
C1943 C1944 1.373 . S
C1943 C1945 1.389 . S
C1944 H1917 0.950 . S
C1944 C1930 1.377 . S
C1944 C1943 1.373 . S
C1945 C1929 1.377 . S
C1945 C1943 1.389 . S
C1945 C1946 1.524 . S
C1946 C1945 1.524 . S
C1946 C1947 1.397 . S
C1946 C1951 1.363 . S
C1947 H1918 0.950 . S
C1947 C1946 1.397 . S
C1947 C1948 1.334 . S
C1948 H1919 0.950 . S
C1948 C1947 1.334 . S
C1948 C1949 1.287 . S
C1949 C1948 1.287 . S
C1949 C1950 1.524 . S
C1949 H1952 0.999 . S
C1950 H1920 0.950 . S
C1950 C1949 1.524 . S
C1950 C1951 1.415 . S
C1951 H1921 0.950 . S
C1951 C1946 1.363 . S
C1951 C1950 1.415 . S
H1952 C1949 0.999 . S
H1953 C1934 0.913 . S
H1954 C1972 0.951 . S
H1955 C1974 0.951 . S
H1956 C1976 0.950 . S
H1957 C1977 0.950 . S
H1958 C1979 0.950 . S
H1959 C1982 0.950 . S
H1960 C1983 0.950 . S
H1961 C1985 0.950 . S
H1962 C1986 0.950 . S
H1963 C1987 0.951 . S
H1964 C1989 0.951 . S
H1965 C1991 0.950 . S
H1966 C1992 0.950 . S
H1967 C1994 0.950 . S
H1968 C1997 0.950 . S
H1969 C1998 0.950 . S
H1970 C2000 0.950 . S
H1971 C2001 0.950 . S
C1972 H1954 0.951 . S
C1972 C1973 1.366 . S
C1972 C1974 1.388 . S
C1973 C1972 1.366 . S
C1973 C1977 1.385 . S
C1974 H1955 0.951 . S
C1974 C1972 1.388 . S
C1974 C1975 1.366 . S
C1975 C1974 1.366 . S
C1975 C1976 1.414 . S
C1975 C1978 1.499 . S
C1976 H1956 0.950 . S
C1976 C1975 1.414 . S
C1976 C1977 1.374 . S
C1977 H1957 0.950 . S
C1977 C1973 1.385 . S
C1977 C1976 1.374 . S
C1978 C1975 1.499 . S
C1978 C1979 1.373 . S
C1978 C1980 1.389 . S
C1979 H1958 0.950 . S
C1979 C1978 1.373 . S
C1979 C1995 1.377 . S
C1980 C1978 1.389 . S
C1980 C1981 1.524 . S
C1980 C1994 1.377 . S
C1981 C1980 1.524 . S
C1981 C1982 1.397 . S
C1981 C1986 1.363 . S
C1982 H1959 0.950 . S
C1982 C1981 1.397 . S
C1982 C1983 1.334 . S
C1983 H1960 0.950 . S
C1983 C1982 1.334 . S
C1983 C1984 1.287 . S
C1984 C1983 1.287 . S
C1984 C1985 1.524 . S
C1984 H2003 0.913 . S
C1985 H1961 0.950 . S
C1985 C1984 1.524 . S
C1985 C1986 1.415 . S
C1986 H1962 0.950 . S
C1986 C1981 1.363 . S
C1986 C1985 1.415 . S
C1987 H1963 0.951 . S
C1987 C1988 1.366 . S
C1987 C1989 1.388 . S
C1988 C1987 1.366 . S
C1988 C1992 1.385 . S
C1989 H1964 0.951 . S
C1989 C1987 1.388 . S
C1989 C1990 1.366 . S
C1990 C1989 1.366 . S
C1990 C1991 1.414 . S
C1990 C1993 1.499 . S
C1991 H1965 0.950 . S
C1991 C1990 1.414 . S
C1991 C1992 1.374 . S
C1992 H1966 0.950 . S
C1992 C1988 1.385 . S
C1992 C1991 1.374 . S
C1993 C1990 1.499 . S
C1993 C1994 1.373 . S
C1993 C1995 1.389 . S
C1994 H1967 0.950 . S
C1994 C1980 1.377 . S
C1994 C1993 1.373 . S
C1995 C1979 1.377 . S
C1995 C1993 1.389 . S
C1995 C1996 1.524 . S
C1996 C1995 1.524 . S
C1996 C1997 1.397 . S
C1996 C2001 1.363 . S
C1997 H1968 0.950 . S
C1997 C1996 1.397 . S
C1997 C1998 1.334 . S
C1998 H1969 0.950 . S
C1998 C1997 1.334 . S
C1998 C1999 1.287 . S
C1999 C1998 1.287 . S
C1999 C2000 1.524 . S
C1999 H2002 0.999 . S
C2000 H1970 0.950 . S
C2000 C1999 1.524 . S
C2000 C2001 1.415 . S
C2001 H1971 0.950 . S
C2001 C1996 1.363 . S
C2001 C2000 1.415 . S
H2002 C1999 0.999 . S
H2003 C1984 0.913 . S
H2004 C2022 0.951 . S
H2005 C2024 0.951 . S
H2006 C2026 0.950 1_565 S
H2007 C2027 0.950 . S
H2008 C2029 0.950 . S
H2009 C2032 0.950 . S
H2010 C2033 0.950 . S
H2011 C2035 0.950 . S
H2012 C2036 0.950 . S
H2013 C2037 0.951 . S
H2014 C2039 0.951 . S
H2015 C2041 0.950 . S
H2016 C2042 0.950 . S
H2017 C2044 0.950 . S
H2018 C2047 0.950 . S
H2019 C2048 0.950 . S
H2020 C2050 0.950 . S
H2021 C2051 0.950 . S
C2022 H2004 0.951 . S
C2022 C2023 1.366 . S
C2022 C2024 1.388 . S
C2023 C2022 1.366 . S
C2023 C2027 1.385 . S
C2024 H2005 0.951 . S
C2024 C2022 1.388 . S
C2024 C2025 1.366 . S
C2025 C2024 1.366 . S
C2025 C2026 1.414 . S
C2025 C2028 1.499 1_545 S
C2026 H2006 0.950 1_545 S
C2026 C2025 1.414 . S
C2026 C2027 1.374 . S
C2027 H2007 0.950 . S
C2027 C2023 1.385 . S
C2027 C2026 1.374 . S
C2028 C2025 1.499 1_565 S
C2028 C2029 1.373 . S
C2028 C2030 1.389 . S
C2029 H2008 0.950 . S
C2029 C2028 1.373 . S
C2029 C2045 1.377 . S
C2030 C2028 1.389 . S
C2030 C2031 1.524 . S
C2030 C2044 1.377 . S
C2031 C2030 1.524 . S
C2031 C2032 1.397 . S
C2031 C2036 1.363 . S
C2032 H2009 0.950 . S
C2032 C2031 1.397 . S
C2032 C2033 1.334 1_565 S
C2033 H2010 0.950 . S
C2033 C2032 1.334 1_545 S
C2033 C2034 1.287 . S
C2034 C2033 1.287 . S
C2034 C2035 1.524 . S
C2034 H2053 0.913 . S
C2035 H2011 0.950 . S
C2035 C2034 1.524 . S
C2035 C2036 1.415 1_545 S
C2036 H2012 0.950 . S
C2036 C2031 1.363 . S
C2036 C2035 1.415 1_565 S
C2037 H2013 0.951 . S
C2037 C2038 1.366 . S
C2037 C2039 1.388 . S
C2038 C2037 1.366 . S
C2038 C2042 1.385 . S
C2039 H2014 0.951 . S
C2039 C2037 1.388 . S
C2039 C2040 1.366 . S
C2040 C2039 1.366 . S
C2040 C2041 1.414 . S
C2040 C2043 1.499 . S
C2041 H2015 0.950 . S
C2041 C2040 1.414 . S
C2041 C2042 1.374 . S
C2042 H2016 0.950 . S
C2042 C2038 1.385 . S
C2042 C2041 1.374 . S
C2043 C2040 1.499 . S
C2043 C2044 1.373 . S
C2043 C2045 1.389 . S
C2044 H2017 0.950 . S
C2044 C2030 1.377 . S
C2044 C2043 1.373 . S
C2045 C2029 1.377 . S
C2045 C2043 1.389 . S
C2045 C2046 1.524 . S
C2046 C2045 1.524 . S
C2046 C2047 1.397 . S
C2046 C2051 1.363 . S
C2047 H2018 0.950 . S
C2047 C2046 1.397 . S
C2047 C2048 1.334 . S
C2048 H2019 0.950 . S
C2048 C2047 1.334 . S
C2048 C2049 1.287 . S
C2049 C2048 1.287 . S
C2049 C2050 1.524 . S
C2049 H2052 0.999 . S
C2050 H2020 0.950 . S
C2050 C2049 1.524 . S
C2050 C2051 1.415 . S
C2051 H2021 0.950 . S
C2051 C2046 1.363 . S
C2051 C2050 1.415 . S
H2052 C2049 0.999 . S
H2053 C2034 0.913 . S
H2054 C2072 0.951 . S
H2055 C2074 0.951 . S
H2056 C2076 0.950 . S
H2057 C2077 0.950 . S
H2058 C2079 0.950 . S
H2059 C2082 0.950 . S
H2060 C2083 0.950 . S
H2061 C2085 0.950 . S
H2062 C2086 0.950 . S
H2063 C2087 0.951 . S
H2064 C2089 0.951 . S
H2065 C2091 0.950 . S
H2066 C2092 0.950 . S
H2067 C2094 0.950 . S
H2068 C2097 0.950 . S
H2069 C2098 0.950 . S
H2070 C2100 0.950 . S
H2071 C2101 0.950 . S
C2072 H2054 0.951 . S
C2072 C2073 1.366 . S
C2072 C2074 1.388 . S
C2073 C2072 1.366 . S
C2073 C2077 1.385 . S
C2074 H2055 0.951 . S
C2074 C2072 1.388 . S
C2074 C2075 1.366 1_655 S
C2075 C2074 1.366 1_455 S
C2075 C2076 1.414 1_455 S
C2075 C2078 1.499 . S
C2076 H2056 0.950 . S
C2076 C2075 1.414 1_655 S
C2076 C2077 1.374 . S
C2077 H2057 0.950 . S
C2077 C2073 1.385 . S
C2077 C2076 1.374 . S
C2078 C2075 1.499 . S
C2078 C2079 1.373 . S
C2078 C2080 1.389 . S
C2079 H2058 0.950 . S
C2079 C2078 1.373 . S
C2079 C2095 1.377 . S
C2080 C2078 1.389 . S
C2080 C2081 1.524 . S
C2080 C2094 1.377 . S
C2081 C2080 1.524 . S
C2081 C2082 1.397 . S
C2081 C2086 1.363 . S
C2082 H2059 0.950 . S
C2082 C2081 1.397 . S
C2082 C2083 1.334 . S
C2083 H2060 0.950 . S
C2083 C2082 1.334 . S
C2083 C2084 1.287 . S
C2084 C2083 1.287 . S
C2084 C2085 1.524 . S
C2084 H2103 0.913 . S
C2085 H2061 0.950 . S
C2085 C2084 1.524 . S
C2085 C2086 1.415 . S
C2086 H2062 0.950 . S
C2086 C2081 1.363 . S
C2086 C2085 1.415 . S
C2087 H2063 0.951 . S
C2087 C2088 1.366 . S
C2087 C2089 1.388 . S
C2088 C2087 1.366 . S
C2088 C2092 1.385 . S
C2089 H2064 0.951 . S
C2089 C2087 1.388 . S
C2089 C2090 1.366 . S
C2090 C2089 1.366 . S
C2090 C2091 1.414 . S
C2090 C2093 1.499 . S
C2091 H2065 0.950 . S
C2091 C2090 1.414 . S
C2091 C2092 1.374 . S
C2092 H2066 0.950 . S
C2092 C2088 1.385 . S
C2092 C2091 1.374 . S
C2093 C2090 1.499 . S
C2093 C2094 1.373 . S
C2093 C2095 1.389 . S
C2094 H2067 0.950 . S
C2094 C2080 1.377 . S
C2094 C2093 1.373 . S
C2095 C2079 1.377 . S
C2095 C2093 1.389 . S
C2095 C2096 1.524 . S
C2096 C2095 1.524 . S
C2096 C2097 1.397 . S
C2096 C2101 1.363 . S
C2097 H2068 0.950 . S
C2097 C2096 1.397 . S
C2097 C2098 1.334 . S
C2098 H2069 0.950 . S
C2098 C2097 1.334 . S
C2098 C2099 1.287 . S
C2099 C2098 1.287 . S
C2099 C2100 1.524 . S
C2099 H2102 0.999 . S
C2100 H2070 0.950 . S
C2100 C2099 1.524 . S
C2100 C2101 1.415 . S
C2101 H2071 0.950 . S
C2101 C2096 1.363 . S
C2101 C2100 1.415 . S
H2102 C2099 0.999 . S
H2103 C2084 0.913 . S
H2104 C2122 0.951 . S
H2105 C2124 0.951 . S
H2106 C2126 0.950 . S
H2107 C2127 0.950 . S
H2108 C2129 0.950 . S
H2109 C2132 0.950 . S
H2110 C2133 0.950 . S
H2111 C2135 0.950 . S
H2112 C2136 0.950 . S
H2113 C2137 0.951 . S
H2114 C2139 0.951 . S
H2115 C2141 0.950 . S
H2116 C2142 0.950 . S
H2117 C2144 0.950 . S
H2118 C2147 0.950 . S
H2119 C2148 0.950 . S
H2120 C2150 0.950 . S
H2121 C2151 0.950 . S
C2122 H2104 0.951 . S
C2122 C2123 1.366 . S
C2122 C2124 1.388 . S
C2123 C2122 1.366 . S
C2123 C2127 1.385 . S
C2124 H2105 0.951 . S
C2124 C2122 1.388 . S
C2124 C2125 1.366 . S
C2125 C2124 1.366 . S
C2125 C2126 1.414 . S
C2125 C2128 1.499 . S
C2126 H2106 0.950 . S
C2126 C2125 1.414 . S
C2126 C2127 1.374 . S
C2127 H2107 0.950 . S
C2127 C2123 1.385 . S
C2127 C2126 1.374 . S
C2128 C2125 1.499 . S
C2128 C2129 1.373 . S
C2128 C2130 1.389 . S
C2129 H2108 0.950 . S
C2129 C2128 1.373 . S
C2129 C2145 1.377 . S
C2130 C2128 1.389 . S
C2130 C2131 1.524 . S
C2130 C2144 1.377 . S
C2131 C2130 1.524 . S
C2131 C2132 1.397 . S
C2131 C2136 1.363 . S
C2132 H2109 0.950 . S
C2132 C2131 1.397 . S
C2132 C2133 1.334 . S
C2133 H2110 0.950 . S
C2133 C2132 1.334 . S
C2133 C2134 1.287 . S
C2134 C2133 1.287 . S
C2134 C2135 1.524 . S
C2134 H2153 0.913 . S
C2135 H2111 0.950 . S
C2135 C2134 1.524 . S
C2135 C2136 1.415 . S
C2136 H2112 0.950 . S
C2136 C2131 1.363 . S
C2136 C2135 1.415 . S
C2137 H2113 0.951 . S
C2137 C2138 1.366 . S
C2137 C2139 1.388 . S
C2138 C2137 1.366 . S
C2138 C2142 1.385 . S
C2139 H2114 0.951 . S
C2139 C2137 1.388 . S
C2139 C2140 1.366 . S
C2140 C2139 1.366 . S
C2140 C2141 1.414 . S
C2140 C2143 1.499 . S
C2141 H2115 0.950 . S
C2141 C2140 1.414 . S
C2141 C2142 1.374 . S
C2142 H2116 0.950 . S
C2142 C2138 1.385 . S
C2142 C2141 1.374 . S
C2143 C2140 1.499 . S
C2143 C2144 1.373 . S
C2143 C2145 1.389 . S
C2144 H2117 0.950 . S
C2144 C2130 1.377 . S
C2144 C2143 1.373 . S
C2145 C2129 1.377 . S
C2145 C2143 1.389 . S
C2145 C2146 1.524 . S
C2146 C2145 1.524 . S
C2146 C2147 1.397 . S
C2146 C2151 1.363 . S
C2147 H2118 0.950 . S
C2147 C2146 1.397 . S
C2147 C2148 1.334 . S
C2148 H2119 0.950 . S
C2148 C2147 1.334 . S
C2148 C2149 1.287 . S
C2149 C2148 1.287 . S
C2149 C2150 1.524 . S
C2149 H2152 0.999 . S
C2150 H2120 0.950 . S
C2150 C2149 1.524 . S
C2150 C2151 1.415 . S
C2151 H2121 0.950 . S
C2151 C2146 1.363 . S
C2151 C2150 1.415 . S
H2152 C2149 0.999 . S
H2153 C2134 0.913 . S
H2154 C2172 0.951 . S
H2155 C2174 0.951 . S
H2156 C2176 0.950 . S
H2157 C2177 0.950 . S
H2158 C2179 0.950 . S
H2159 C2182 0.950 . S
H2160 C2183 0.950 . S
H2161 C2185 0.950 . S
H2162 C2186 0.950 . S
H2163 C2187 0.951 . S
H2164 C2189 0.951 . S
H2165 C2191 0.950 . S
H2166 C2192 0.950 . S
H2167 C2194 0.950 . S
H2168 C2197 0.950 . S
H2169 C2198 0.950 . S
H2170 C2200 0.950 . S
H2171 C2201 0.950 . S
C2172 H2154 0.951 . S
C2172 C2173 1.366 . S
C2172 C2174 1.388 . S
C2173 C2172 1.366 . S
C2173 C2177 1.385 . S
C2174 H2155 0.951 . S
C2174 C2172 1.388 . S
C2174 C2175 1.366 . S
C2175 C2174 1.366 . S
C2175 C2176 1.414 . S
C2175 C2178 1.499 . S
C2176 H2156 0.950 . S
C2176 C2175 1.414 . S
C2176 C2177 1.374 . S
C2177 H2157 0.950 . S
C2177 C2173 1.385 . S
C2177 C2176 1.374 . S
C2178 C2175 1.499 . S
C2178 C2179 1.373 . S
C2178 C2180 1.389 . S
C2179 H2158 0.950 . S
C2179 C2178 1.373 . S
C2179 C2195 1.377 . S
C2180 C2178 1.389 . S
C2180 C2181 1.524 . S
C2180 C2194 1.377 . S
C2181 C2180 1.524 . S
C2181 C2182 1.397 . S
C2181 C2186 1.363 . S
C2182 H2159 0.950 . S
C2182 C2181 1.397 . S
C2182 C2183 1.334 . S
C2183 H2160 0.950 . S
C2183 C2182 1.334 . S
C2183 C2184 1.287 . S
C2184 C2183 1.287 . S
C2184 C2185 1.524 . S
C2184 H2203 0.913 . S
C2185 H2161 0.950 . S
C2185 C2184 1.524 . S
C2185 C2186 1.415 . S
C2186 H2162 0.950 . S
C2186 C2181 1.363 . S
C2186 C2185 1.415 . S
C2187 H2163 0.951 . S
C2187 C2188 1.366 . S
C2187 C2189 1.388 . S
C2188 C2187 1.366 . S
C2188 C2192 1.385 . S
C2189 H2164 0.951 . S
C2189 C2187 1.388 . S
C2189 C2190 1.366 . S
C2190 C2189 1.366 . S
C2190 C2191 1.414 . S
C2190 C2193 1.499 . S
C2191 H2165 0.950 . S
C2191 C2190 1.414 . S
C2191 C2192 1.374 . S
C2192 H2166 0.950 . S
C2192 C2188 1.385 . S
C2192 C2191 1.374 . S
C2193 C2190 1.499 . S
C2193 C2194 1.373 . S
C2193 C2195 1.389 . S
C2194 H2167 0.950 . S
C2194 C2180 1.377 . S
C2194 C2193 1.373 . S
C2195 C2179 1.377 . S
C2195 C2193 1.389 . S
C2195 C2196 1.524 . S
C2196 C2195 1.524 . S
C2196 C2197 1.397 . S
C2196 C2201 1.363 . S
C2197 H2168 0.950 . S
C2197 C2196 1.397 . S
C2197 C2198 1.334 . S
C2198 H2169 0.950 . S
C2198 C2197 1.334 . S
C2198 C2199 1.287 . S
C2199 C2198 1.287 . S
C2199 C2200 1.524 . S
C2199 H2202 0.999 . S
C2200 H2170 0.950 . S
C2200 C2199 1.524 . S
C2200 C2201 1.415 . S
C2201 H2171 0.950 . S
C2201 C2196 1.363 . S
C2201 C2200 1.415 . S
H2202 C2199 0.999 . S
H2203 C2184 0.913 . S
H2204 C2222 0.951 . S
H2205 C2224 0.951 . S
H2206 C2226 0.950 . S
H2207 C2227 0.950 . S
H2208 C2229 0.950 . S
H2209 C2232 0.950 . S
H2210 C2233 0.950 . S
H2211 C2235 0.950 . S
H2212 C2236 0.950 . S
H2213 C2237 0.951 . S
H2214 C2239 0.951 . S
H2215 C2241 0.950 . S
H2216 C2242 0.950 . S
H2217 C2244 0.950 . S
H2218 C2247 0.950 . S
H2219 C2248 0.950 . S
H2220 C2250 0.950 . S
H2221 C2251 0.950 . S
C2222 H2204 0.951 . S
C2222 C2223 1.366 . S
C2222 C2224 1.388 . S
C2223 C2222 1.366 . S
C2223 C2227 1.385 . S
C2224 H2205 0.951 . S
C2224 C2222 1.388 . S
C2224 C2225 1.366 . S
C2225 C2224 1.366 . S
C2225 C2226 1.414 . S
C2225 C2228 1.499 . S
C2226 H2206 0.950 . S
C2226 C2225 1.414 . S
C2226 C2227 1.374 . S
C2227 H2207 0.950 . S
C2227 C2223 1.385 . S
C2227 C2226 1.374 . S
C2228 C2225 1.499 . S
C2228 C2229 1.373 . S
C2228 C2230 1.389 . S
C2229 H2208 0.950 . S
C2229 C2228 1.373 . S
C2229 C2245 1.377 . S
C2230 C2228 1.389 . S
C2230 C2231 1.524 . S
C2230 C2244 1.377 . S
C2231 C2230 1.524 . S
C2231 C2232 1.397 . S
C2231 C2236 1.363 . S
C2232 H2209 0.950 . S
C2232 C2231 1.397 . S
C2232 C2233 1.334 . S
C2233 H2210 0.950 . S
C2233 C2232 1.334 . S
C2233 C2234 1.287 . S
C2234 C2233 1.287 . S
C2234 C2235 1.524 . S
C2234 H2253 0.913 . S
C2235 H2211 0.950 . S
C2235 C2234 1.524 . S
C2235 C2236 1.415 . S
C2236 H2212 0.950 . S
C2236 C2231 1.363 . S
C2236 C2235 1.415 . S
C2237 H2213 0.951 . S
C2237 C2238 1.366 . S
C2237 C2239 1.388 . S
C2238 C2237 1.366 . S
C2238 C2242 1.385 . S
C2239 H2214 0.951 . S
C2239 C2237 1.388 . S
C2239 C2240 1.366 . S
C2240 C2239 1.366 . S
C2240 C2241 1.414 . S
C2240 C2243 1.499 . S
C2241 H2215 0.950 . S
C2241 C2240 1.414 . S
C2241 C2242 1.374 . S
C2242 H2216 0.950 . S
C2242 C2238 1.385 . S
C2242 C2241 1.374 . S
C2243 C2240 1.499 . S
C2243 C2244 1.373 . S
C2243 C2245 1.389 . S
C2244 H2217 0.950 . S
C2244 C2230 1.377 . S
C2244 C2243 1.373 . S
C2245 C2229 1.377 . S
C2245 C2243 1.389 . S
C2245 C2246 1.524 . S
C2246 C2245 1.524 . S
C2246 C2247 1.397 . S
C2246 C2251 1.363 . S
C2247 H2218 0.950 . S
C2247 C2246 1.397 . S
C2247 C2248 1.334 . S
C2248 H2219 0.950 . S
C2248 C2247 1.334 . S
C2248 C2249 1.287 . S
C2249 C2248 1.287 . S
C2249 C2250 1.524 . S
C2249 H2252 0.999 . S
C2250 H2220 0.950 . S
C2250 C2249 1.524 . S
C2250 C2251 1.415 . S
C2251 H2221 0.950 . S
C2251 C2246 1.363 . S
C2251 C2250 1.415 . S
H2252 C2249 0.999 . S
H2253 C2234 0.913 . S
H2254 C2272 0.951 . S
H2255 C2274 0.951 . S
H2256 C2276 0.950 . S
H2257 C2277 0.950 . S
H2258 C2279 0.950 . S
H2259 C2282 0.950 . S
H2260 C2283 0.950 . S
H2261 C2285 0.950 . S
H2262 C2286 0.950 . S
H2263 C2287 0.951 . S
H2264 C2289 0.951 . S
H2265 C2291 0.950 . S
H2266 C2292 0.950 . S
H2267 C2294 0.950 . S
H2268 C2297 0.950 . S
H2269 C2298 0.950 . S
H2270 C2300 0.950 . S
H2271 C2301 0.950 . S
C2272 H2254 0.951 . S
C2272 C2273 1.366 . S
C2272 C2274 1.388 . S
C2273 C2272 1.366 . S
C2273 C2277 1.385 . S
C2274 H2255 0.951 . S
C2274 C2272 1.388 . S
C2274 C2275 1.366 . S
C2275 C2274 1.366 . S
C2275 C2276 1.414 . S
C2275 C2278 1.499 . S
C2276 H2256 0.950 . S
C2276 C2275 1.414 . S
C2276 C2277 1.374 . S
C2277 H2257 0.950 . S
C2277 C2273 1.385 . S
C2277 C2276 1.374 . S
C2278 C2275 1.499 . S
C2278 C2279 1.373 . S
C2278 C2280 1.389 . S
C2279 H2258 0.950 . S
C2279 C2278 1.373 . S
C2279 C2295 1.377 . S
C2280 C2278 1.389 . S
C2280 C2281 1.524 . S
C2280 C2294 1.377 . S
C2281 C2280 1.524 . S
C2281 C2282 1.397 . S
C2281 C2286 1.363 . S
C2282 H2259 0.950 . S
C2282 C2281 1.397 . S
C2282 C2283 1.334 . S
C2283 H2260 0.950 . S
C2283 C2282 1.334 . S
C2283 C2284 1.287 . S
C2284 C2283 1.287 . S
C2284 C2285 1.524 . S
C2284 H2303 0.913 . S
C2285 H2261 0.950 . S
C2285 C2284 1.524 . S
C2285 C2286 1.415 . S
C2286 H2262 0.950 . S
C2286 C2281 1.363 . S
C2286 C2285 1.415 . S
C2287 H2263 0.951 . S
C2287 C2288 1.366 . S
C2287 C2289 1.388 . S
C2288 C2287 1.366 . S
C2288 C2292 1.385 . S
C2289 H2264 0.951 . S
C2289 C2287 1.388 . S
C2289 C2290 1.366 . S
C2290 C2289 1.366 . S
C2290 C2291 1.414 . S
C2290 C2293 1.499 . S
C2291 H2265 0.950 . S
C2291 C2290 1.414 . S
C2291 C2292 1.374 . S
C2292 H2266 0.950 . S
C2292 C2288 1.385 . S
C2292 C2291 1.374 . S
C2293 C2290 1.499 . S
C2293 C2294 1.373 . S
C2293 C2295 1.389 . S
C2294 H2267 0.950 . S
C2294 C2280 1.377 . S
C2294 C2293 1.373 . S
C2295 C2279 1.377 . S
C2295 C2293 1.389 . S
C2295 C2296 1.524 . S
C2296 C2295 1.524 . S
C2296 C2297 1.397 . S
C2296 C2301 1.363 . S
C2297 H2268 0.950 . S
C2297 C2296 1.397 . S
C2297 C2298 1.334 . S
C2298 H2269 0.950 . S
C2298 C2297 1.334 . S
C2298 C2299 1.287 . S
C2299 C2298 1.287 . S
C2299 C2300 1.524 . S
C2299 H2302 0.999 . S
C2300 H2270 0.950 . S
C2300 C2299 1.524 . S
C2300 C2301 1.415 . S
C2301 H2271 0.950 . S
C2301 C2296 1.363 . S
C2301 C2300 1.415 . S
H2302 C2299 0.999 . S
H2303 C2284 0.913 . S
H2304 C2322 0.951 . S
H2305 C2324 0.951 1_545 S
H2306 C2326 0.950 . S
H2307 C2327 0.950 . S
H2308 C2329 0.950 . S
H2309 C2332 0.950 . S
H2310 C2333 0.950 1_565 S
H2311 C2335 0.950 . S
H2312 C2336 0.950 . S
H2313 C2337 0.951 . S
H2314 C2339 0.951 . S
H2315 C2341 0.950 . S
H2316 C2342 0.950 . S
H2317 C2344 0.950 . S
H2318 C2347 0.950 . S
H2319 C2348 0.950 . S
H2320 C2350 0.950 . S
H2321 C2351 0.950 . S
C2322 H2304 0.951 . S
C2322 C2323 1.366 . S
C2322 C2324 1.388 . S
C2323 C2322 1.366 . S
C2323 C2327 1.385 . S
C2324 H2305 0.951 1_565 S
C2324 C2322 1.388 . S
C2324 C2325 1.366 . S
C2325 C2324 1.366 . S
C2325 C2326 1.414 . S
C2325 C2328 1.499 1_565 S
C2326 H2306 0.950 . S
C2326 C2325 1.414 . S
C2326 C2327 1.374 . S
C2327 H2307 0.950 . S
C2327 C2323 1.385 . S
C2327 C2326 1.374 . S
C2328 C2325 1.499 1_545 S
C2328 C2329 1.373 . S
C2328 C2330 1.389 . S
C2329 H2308 0.950 . S
C2329 C2328 1.373 . S
C2329 C2345 1.377 . S
C2330 C2328 1.389 . S
C2330 C2331 1.524 . S
C2330 C2344 1.377 . S
C2331 C2330 1.524 . S
C2331 C2332 1.397 . S
C2331 C2336 1.363 . S
C2332 H2309 0.950 . S
C2332 C2331 1.397 . S
C2332 C2333 1.334 . S
C2333 H2310 0.950 1_545 S
C2333 C2332 1.334 . S
C2333 C2334 1.287 . S
C2334 C2333 1.287 . S
C2334 C2335 1.524 . S
C2334 H2353 0.913 . S
C2335 H2311 0.950 . S
C2335 C2334 1.524 . S
C2335 C2336 1.415 . S
C2336 H2312 0.950 . S
C2336 C2331 1.363 . S
C2336 C2335 1.415 . S
C2337 H2313 0.951 . S
C2337 C2338 1.366 . S
C2337 C2339 1.388 . S
C2338 C2337 1.366 . S
C2338 C2342 1.385 . S
C2339 H2314 0.951 . S
C2339 C2337 1.388 . S
C2339 C2340 1.366 . S
C2340 C2339 1.366 . S
C2340 C2341 1.414 . S
C2340 C2343 1.499 . S
C2341 H2315 0.950 . S
C2341 C2340 1.414 . S
C2341 C2342 1.374 . S
C2342 H2316 0.950 . S
C2342 C2338 1.385 . S
C2342 C2341 1.374 . S
C2343 C2340 1.499 . S
C2343 C2344 1.373 . S
C2343 C2345 1.389 . S
C2344 H2317 0.950 . S
C2344 C2330 1.377 . S
C2344 C2343 1.373 . S
C2345 C2329 1.377 . S
C2345 C2343 1.389 . S
C2345 C2346 1.524 . S
C2346 C2345 1.524 . S
C2346 C2347 1.397 . S
C2346 C2351 1.363 . S
C2347 H2318 0.950 . S
C2347 C2346 1.397 . S
C2347 C2348 1.334 . S
C2348 H2319 0.950 . S
C2348 C2347 1.334 . S
C2348 C2349 1.287 . S
C2349 C2348 1.287 . S
C2349 C2350 1.524 . S
C2349 H2352 0.999 . S
C2350 H2320 0.950 . S
C2350 C2349 1.524 . S
C2350 C2351 1.415 . S
C2351 H2321 0.950 . S
C2351 C2346 1.363 . S
C2351 C2350 1.415 . S
H2352 C2349 0.999 . S
H2353 C2334 0.913 . S
H2354 C2372 0.951 . S
H2355 C2374 0.951 . S
H2356 C2376 0.950 . S
H2357 C2377 0.950 . S
H2358 C2379 0.950 1_455 S
H2359 C2382 0.950 . S
H2360 C2383 0.950 . S
H2361 C2385 0.950 . S
H2362 C2386 0.950 . S
H2363 C2387 0.951 . S
H2364 C2389 0.951 . S
H2365 C2391 0.950 . S
H2366 C2392 0.950 . S
H2367 C2394 0.950 . S
H2368 C2397 0.950 . S
H2369 C2398 0.950 . S
H2370 C2400 0.950 . S
H2371 C2401 0.950 . S
C2372 H2354 0.951 . S
C2372 C2373 1.366 . S
C2372 C2374 1.388 . S
C2373 C2372 1.366 . S
C2373 C2377 1.385 . S
C2374 H2355 0.951 . S
C2374 C2372 1.388 . S
C2374 C2375 1.366 . S
C2375 C2374 1.366 . S
C2375 C2376 1.414 . S
C2375 C2378 1.499 1_455 S
C2376 H2356 0.950 . S
C2376 C2375 1.414 . S
C2376 C2377 1.374 . S
C2377 H2357 0.950 . S
C2377 C2373 1.385 . S
C2377 C2376 1.374 . S
C2378 C2375 1.499 1_655 S
C2378 C2379 1.373 . S
C2378 C2380 1.389 . S
C2379 H2358 0.950 1_655 S
C2379 C2378 1.373 . S
C2379 C2395 1.377 . S
C2380 C2378 1.389 . S
C2380 C2381 1.524 . S
C2380 C2394 1.377 . S
C2381 C2380 1.524 . S
C2381 C2382 1.397 . S
C2381 C2386 1.363 . S
C2382 H2359 0.950 . S
C2382 C2381 1.397 . S
C2382 C2383 1.334 . S
C2383 H2360 0.950 . S
C2383 C2382 1.334 . S
C2383 C2384 1.287 . S
C2384 C2383 1.287 . S
C2384 C2385 1.524 . S
C2384 H2403 0.913 . S
C2385 H2361 0.950 . S
C2385 C2384 1.524 . S
C2385 C2386 1.415 . S
C2386 H2362 0.950 . S
C2386 C2381 1.363 . S
C2386 C2385 1.415 . S
C2387 H2363 0.951 . S
C2387 C2388 1.366 . S
C2387 C2389 1.388 . S
C2388 C2387 1.366 . S
C2388 C2392 1.385 . S
C2389 H2364 0.951 . S
C2389 C2387 1.388 . S
C2389 C2390 1.366 . S
C2390 C2389 1.366 . S
C2390 C2391 1.414 . S
C2390 C2393 1.499 . S
C2391 H2365 0.950 . S
C2391 C2390 1.414 . S
C2391 C2392 1.374 . S
C2392 H2366 0.950 . S
C2392 C2388 1.385 . S
C2392 C2391 1.374 . S
C2393 C2390 1.499 . S
C2393 C2394 1.373 . S
C2393 C2395 1.389 . S
C2394 H2367 0.950 . S
C2394 C2380 1.377 . S
C2394 C2393 1.373 . S
C2395 C2379 1.377 . S
C2395 C2393 1.389 . S
C2395 C2396 1.524 . S
C2396 C2395 1.524 . S
C2396 C2397 1.397 . S
C2396 C2401 1.363 . S
C2397 H2368 0.950 . S
C2397 C2396 1.397 . S
C2397 C2398 1.334 . S
C2398 H2369 0.950 . S
C2398 C2397 1.334 . S
C2398 C2399 1.287 . S
C2399 C2398 1.287 . S
C2399 C2400 1.524 . S
C2399 H2402 0.999 . S
C2400 H2370 0.950 . S
C2400 C2399 1.524 . S
C2400 C2401 1.415 . S
C2401 H2371 0.950 . S
C2401 C2396 1.363 . S
C2401 C2400 1.415 . S
H2402 C2399 0.999 . S
H2403 C2384 0.913 . S
H2404 C2422 0.951 . S
H2405 C2424 0.951 . S
H2406 C2426 0.950 . S
H2407 C2427 0.950 . S
H2408 C2429 0.950 . S
H2409 C2432 0.950 . S
H2410 C2433 0.950 . S
H2411 C2435 0.950 . S
H2412 C2436 0.950 . S
H2413 C2437 0.951 . S
H2414 C2439 0.951 . S
H2415 C2441 0.950 . S
H2416 C2442 0.950 . S
H2417 C2444 0.950 . S
H2418 C2447 0.950 . S
H2419 C2448 0.950 . S
H2420 C2450 0.950 . S
H2421 C2451 0.950 . S
C2422 H2404 0.951 . S
C2422 C2423 1.366 . S
C2422 C2424 1.388 . S
C2423 C2422 1.366 . S
C2423 C2427 1.385 . S
C2424 H2405 0.951 . S
C2424 C2422 1.388 . S
C2424 C2425 1.366 . S
C2425 C2424 1.366 . S
C2425 C2426 1.414 . S
C2425 C2428 1.499 . S
C2426 H2406 0.950 . S
C2426 C2425 1.414 . S
C2426 C2427 1.374 . S
C2427 H2407 0.950 . S
C2427 C2423 1.385 . S
C2427 C2426 1.374 . S
C2428 C2425 1.499 . S
C2428 C2429 1.373 . S
C2428 C2430 1.389 . S
C2429 H2408 0.950 . S
C2429 C2428 1.373 . S
C2429 C2445 1.377 . S
C2430 C2428 1.389 . S
C2430 C2431 1.524 . S
C2430 C2444 1.377 . S
C2431 C2430 1.524 . S
C2431 C2432 1.397 . S
C2431 C2436 1.363 . S
C2432 H2409 0.950 . S
C2432 C2431 1.397 . S
C2432 C2433 1.334 . S
C2433 H2410 0.950 . S
C2433 C2432 1.334 . S
C2433 C2434 1.287 . S
C2434 C2433 1.287 . S
C2434 C2435 1.524 . S
C2434 H2453 0.913 . S
C2435 H2411 0.950 . S
C2435 C2434 1.524 . S
C2435 C2436 1.415 . S
C2436 H2412 0.950 . S
C2436 C2431 1.363 . S
C2436 C2435 1.415 . S
C2437 H2413 0.951 . S
C2437 C2438 1.366 . S
C2437 C2439 1.388 . S
C2438 C2437 1.366 . S
C2438 C2442 1.385 . S
C2439 H2414 0.951 . S
C2439 C2437 1.388 . S
C2439 C2440 1.366 . S
C2440 C2439 1.366 . S
C2440 C2441 1.414 . S
C2440 C2443 1.499 . S
C2441 H2415 0.950 . S
C2441 C2440 1.414 . S
C2441 C2442 1.374 . S
C2442 H2416 0.950 . S
C2442 C2438 1.385 . S
C2442 C2441 1.374 . S
C2443 C2440 1.499 . S
C2443 C2444 1.373 . S
C2443 C2445 1.389 . S
C2444 H2417 0.950 . S
C2444 C2430 1.377 . S
C2444 C2443 1.373 . S
C2445 C2429 1.377 . S
C2445 C2443 1.389 . S
C2445 C2446 1.524 . S
C2446 C2445 1.524 . S
C2446 C2447 1.397 . S
C2446 C2451 1.363 . S
C2447 H2418 0.950 . S
C2447 C2446 1.397 . S
C2447 C2448 1.334 . S
C2448 H2419 0.950 . S
C2448 C2447 1.334 . S
C2448 C2449 1.287 . S
C2449 C2448 1.287 . S
C2449 C2450 1.524 . S
C2449 H2452 0.999 . S
C2450 H2420 0.950 . S
C2450 C2449 1.524 . S
C2450 C2451 1.415 . S
C2451 H2421 0.950 . S
C2451 C2446 1.363 . S
C2451 C2450 1.415 . S
H2452 C2449 0.999 . S
H2453 C2434 0.913 . S
H2454 C2472 0.951 . S
H2455 C2474 0.951 1_655 S
H2456 C2476 0.950 1_655 S
H2457 C2477 0.950 . S
H2458 C2479 0.950 . S
H2459 C2482 0.968 . S
H2460 C2483 0.950 . S
H2461 C2485 0.950 . S
H2462 C2486 0.950 . S
H2463 C2487 0.951 . S
H2464 C2489 0.951 . S
H2465 C2491 0.950 . S
H2466 C2492 0.950 . S
H2467 C2494 0.950 . S
H2468 C2497 0.950 . S
H2469 C2498 0.950 . S
H2470 C2500 0.950 . S
H2471 C2501 0.950 . S
C2472 H2454 0.951 . S
C2472 C2473 1.366 . S
C2472 C2474 1.388 . S
C2473 C2472 1.366 . S
C2473 C2477 1.385 . S
C2474 H2455 0.951 1_455 S
C2474 C2472 1.388 . S
C2474 C2475 1.366 1_455 S
C2475 C2474 1.366 1_655 S
C2475 C2476 1.414 1_655 S
C2475 C2478 1.499 . S
C2476 H2456 0.950 1_455 S
C2476 C2475 1.414 1_455 S
C2476 C2477 1.374 . S
C2477 H2457 0.950 . S
C2477 C2473 1.385 . S
C2477 C2476 1.374 . S
C2478 C2475 1.499 . S
C2478 C2479 1.373 . S
C2478 C2480 1.389 . S
C2479 H2458 0.950 . S
C2479 C2478 1.373 . S
C2479 C2495 1.377 . S
C2480 C2478 1.389 . S
C2480 C2481 1.524 . S
C2480 C2494 1.377 . S
C2481 C2480 1.524 . S
C2481 C2482 1.347 1_655 S
C2481 C2486 1.363 . S
C2482 H2459 0.968 . S
C2482 C2481 1.347 1_455 S
C2482 C2483 1.367 . S
C2483 H2460 0.950 . S
C2483 C2482 1.367 . S
C2483 C2484 1.287 . S
C2484 C2483 1.287 . S
C2484 C2485 1.524 1_455 S
C2484 H2503 0.913 . S
C2485 H2461 0.950 . S
C2485 C2484 1.524 1_655 S
C2485 C2486 1.415 . S
C2486 H2462 0.950 . S
C2486 C2481 1.363 . S
C2486 C2485 1.415 . S
C2487 H2463 0.951 . S
C2487 C2488 1.366 . S
C2487 C2489 1.388 . S
C2488 C2487 1.366 . S
C2488 C2492 1.385 . S
C2489 H2464 0.951 . S
C2489 C2487 1.388 . S
C2489 C2490 1.366 . S
C2490 C2489 1.366 . S
C2490 C2491 1.414 . S
C2490 C2493 1.499 . S
C2491 H2465 0.950 . S
C2491 C2490 1.414 . S
C2491 C2492 1.374 . S
C2492 H2466 0.950 . S
C2492 C2488 1.385 . S
C2492 C2491 1.374 . S
C2493 C2490 1.499 . S
C2493 C2494 1.373 . S
C2493 C2495 1.389 . S
C2494 H2467 0.950 . S
C2494 C2480 1.377 . S
C2494 C2493 1.373 . S
C2495 C2479 1.377 . S
C2495 C2493 1.389 . S
C2495 C2496 1.524 . S
C2496 C2495 1.524 . S
C2496 C2497 1.397 . S
C2496 C2501 1.363 . S
C2497 H2468 0.950 . S
C2497 C2496 1.397 . S
C2497 C2498 1.334 . S
C2498 H2469 0.950 . S
C2498 C2497 1.334 . S
C2498 C2499 1.287 . S
C2499 C2498 1.287 . S
C2499 C2500 1.524 . S
C2499 H2502 0.999 . S
C2500 H2470 0.950 . S
C2500 C2499 1.524 . S
C2500 C2501 1.415 . S
C2501 H2471 0.950 . S
C2501 C2496 1.363 . S
C2501 C2500 1.415 . S
H2502 C2499 0.999 . S
H2503 C2484 0.913 . S
H2504 C2522 0.951 . S
H2505 C2524 0.951 . S
H2506 C2526 0.950 . S
H2507 C2527 0.950 . S
H2508 C2529 0.950 . S
H2509 C2532 0.950 . S
H2510 C2533 0.950 . S
H2511 C2535 0.950 . S
H2512 C2536 0.950 . S
H2513 C2537 0.951 . S
H2514 C2539 0.951 . S
H2515 C2541 0.950 . S
H2516 C2542 0.950 . S
H2517 C2544 0.950 . S
H2518 C2547 0.950 . S
H2519 C2548 0.950 . S
H2520 C2550 0.950 . S
H2521 C2551 0.950 . S
C2522 H2504 0.951 . S
C2522 C2523 1.366 . S
C2522 C2524 1.388 . S
C2523 C2522 1.366 . S
C2523 C2527 1.385 . S
C2524 H2505 0.951 . S
C2524 C2522 1.388 . S
C2524 C2525 1.366 . S
C2525 C2524 1.366 . S
C2525 C2526 1.414 . S
C2525 C2528 1.499 . S
C2526 H2506 0.950 . S
C2526 C2525 1.414 . S
C2526 C2527 1.374 . S
C2527 H2507 0.950 . S
C2527 C2523 1.385 . S
C2527 C2526 1.374 . S
C2528 C2525 1.499 . S
C2528 C2529 1.373 . S
C2528 C2530 1.389 . S
C2529 H2508 0.950 . S
C2529 C2528 1.373 . S
C2529 C2545 1.377 . S
C2530 C2528 1.389 . S
C2530 C2531 1.524 . S
C2530 C2544 1.377 . S
C2531 C2530 1.524 . S
C2531 C2532 1.397 . S
C2531 C2536 1.363 . S
C2532 H2509 0.950 . S
C2532 C2531 1.397 . S
C2532 C2533 1.334 . S
C2533 H2510 0.950 . S
C2533 C2532 1.334 . S
C2533 C2534 1.287 . S
C2534 C2533 1.287 . S
C2534 C2535 1.524 . S
C2534 H2553 0.913 . S
C2535 H2511 0.950 . S
C2535 C2534 1.524 . S
C2535 C2536 1.415 . S
C2536 H2512 0.950 . S
C2536 C2531 1.363 . S
C2536 C2535 1.415 . S
C2537 H2513 0.951 . S
C2537 C2538 1.366 . S
C2537 C2539 1.388 . S
C2538 C2537 1.366 . S
C2538 C2542 1.385 . S
C2539 H2514 0.951 . S
C2539 C2537 1.388 . S
C2539 C2540 1.366 . S
C2540 C2539 1.366 . S
C2540 C2541 1.414 . S
C2540 C2543 1.499 . S
C2541 H2515 0.950 . S
C2541 C2540 1.414 . S
C2541 C2542 1.374 . S
C2542 H2516 0.950 . S
C2542 C2538 1.385 . S
C2542 C2541 1.374 . S
C2543 C2540 1.499 . S
C2543 C2544 1.373 . S
C2543 C2545 1.389 . S
C2544 H2517 0.950 . S
C2544 C2530 1.377 . S
C2544 C2543 1.373 . S
C2545 C2529 1.377 . S
C2545 C2543 1.389 . S
C2545 C2546 1.524 . S
C2546 C2545 1.524 . S
C2546 C2547 1.397 . S
C2546 C2551 1.363 . S
C2547 H2518 0.950 . S
C2547 C2546 1.397 . S
C2547 C2548 1.334 . S
C2548 H2519 0.950 . S
C2548 C2547 1.334 . S
C2548 C2549 1.287 . S
C2549 C2548 1.287 . S
C2549 C2550 1.524 . S
C2549 H2552 0.999 . S
C2550 H2520 0.950 . S
C2550 C2549 1.524 . S
C2550 C2551 1.415 . S
C2551 H2521 0.950 . S
C2551 C2546 1.363 . S
C2551 C2550 1.415 . S
H2552 C2549 0.999 . S
H2553 C2534 0.913 . S
H2554 C2572 0.951 . S
H2555 C2574 0.951 . S
H2556 C2576 0.941 1_545 S
H2557 C2577 0.950 . S
H2558 C2579 0.950 . S
H2559 C2582 0.950 . S
H2560 C2583 0.950 . S
H2561 C2585 0.950 . S
H2562 C2586 0.950 . S
H2563 C2587 0.951 . S
H2564 C2589 0.951 . S
H2565 C2591 0.950 . S
H2566 C2592 0.950 . S
H2567 C2594 0.950 . S
H2568 C2597 0.950 . S
H2569 C2598 0.950 . S
H2570 C2600 0.950 . S
H2571 C2601 0.950 . S
C2572 H2554 0.951 . S
C2572 C2573 1.366 . S
C2572 C2574 1.388 . S
C2573 C2572 1.366 . S
C2573 C2577 1.385 . S
C2574 H2555 0.951 . S
C2574 C2572 1.388 . S
C2574 C2575 1.366 . S
C2575 C2574 1.366 . S
C2575 C2576 1.414 . S
C2575 C2578 1.499 1_565 S
C2576 H2556 0.941 1_565 S
C2576 C2575 1.414 . S
C2576 C2577 1.374 . S
C2577 H2557 0.950 . S
C2577 C2573 1.385 . S
C2577 C2576 1.374 . S
C2578 C2575 1.499 1_545 S
C2578 C2579 1.373 . S
C2578 C2580 1.389 . S
C2579 H2558 0.950 . S
C2579 C2578 1.373 . S
C2579 C2595 1.377 . S
C2580 C2578 1.389 . S
C2580 C2581 1.524 . S
C2580 C2594 1.377 . S
C2581 C2580 1.524 . S
C2581 C2582 1.397 1_545 S
C2581 C2586 1.363 . S
C2582 H2559 0.950 . S
C2582 C2581 1.397 1_565 S
C2582 C2583 1.334 . S
C2583 H2560 0.950 . S
C2583 C2582 1.334 . S
C2583 C2584 1.287 . S
C2584 C2583 1.287 . S
C2584 C2585 1.524 . S
C2584 H2603 0.913 . S
C2585 H2561 0.950 . S
C2585 C2584 1.524 . S
C2585 C2586 1.415 1_565 S
C2586 H2562 0.950 . S
C2586 C2581 1.363 . S
C2586 C2585 1.415 1_545 S
C2587 H2563 0.951 . S
C2587 C2588 1.366 . S
C2587 C2589 1.388 . S
C2588 C2587 1.366 . S
C2588 C2592 1.385 . S
C2589 H2564 0.951 . S
C2589 C2587 1.388 . S
C2589 C2590 1.366 . S
C2590 C2589 1.366 . S
C2590 C2591 1.414 . S
C2590 C2593 1.499 . S
C2591 H2565 0.950 . S
C2591 C2590 1.414 . S
C2591 C2592 1.374 . S
C2592 H2566 0.950 . S
C2592 C2588 1.385 . S
C2592 C2591 1.374 . S
C2593 C2590 1.499 . S
C2593 C2594 1.373 . S
C2593 C2595 1.389 . S
C2594 H2567 0.950 . S
C2594 C2580 1.377 . S
C2594 C2593 1.373 . S
C2595 C2579 1.377 . S
C2595 C2593 1.389 . S
C2595 C2596 1.524 . S
C2596 C2595 1.524 . S
C2596 C2597 1.397 . S
C2596 C2601 1.363 . S
C2597 H2568 0.950 . S
C2597 C2596 1.397 . S
C2597 C2598 1.334 . S
C2598 H2569 0.950 . S
C2598 C2597 1.334 . S
C2598 C2599 1.287 . S
C2599 C2598 1.287 . S
C2599 C2600 1.524 . S
C2599 H2602 0.999 . S
C2600 H2570 0.950 . S
C2600 C2599 1.524 . S
C2600 C2601 1.415 . S
C2601 H2571 0.950 . S
C2601 C2596 1.363 . S
C2601 C2600 1.415 . S
H2602 C2599 0.999 . S
H2603 C2584 0.913 . S
H2604 C2622 0.951 . S
H2605 C2624 0.951 . S
H2606 C2626 0.950 . S
H2607 C2627 0.950 . S
H2608 C2629 0.950 . S
H2609 C2632 0.950 . S
H2610 C2633 0.950 . S
H2611 C2635 0.950 . S
H2612 C2636 0.950 . S
H2613 C2637 0.951 . S
H2614 C2639 0.951 . S
H2615 C2641 0.950 . S
H2616 C2642 0.950 . S
H2617 C2644 0.950 . S
H2618 C2647 0.950 . S
H2619 C2648 0.950 . S
H2620 C2650 0.950 . S
H2621 C2651 0.950 . S
C2622 H2604 0.951 . S
C2622 C2623 1.366 . S
C2622 C2624 1.388 . S
C2623 C2622 1.366 . S
C2623 C2627 1.385 . S
C2624 H2605 0.951 . S
C2624 C2622 1.388 . S
C2624 C2625 1.366 . S
C2625 C2624 1.366 . S
C2625 C2626 1.414 . S
C2625 C2628 1.499 . S
C2626 H2606 0.950 . S
C2626 C2625 1.414 . S
C2626 C2627 1.374 . S
C2627 H2607 0.950 . S
C2627 C2623 1.385 . S
C2627 C2626 1.374 . S
C2628 C2625 1.499 . S
C2628 C2629 1.373 . S
C2628 C2630 1.389 . S
C2629 H2608 0.950 . S
C2629 C2628 1.373 . S
C2629 C2645 1.377 . S
C2630 C2628 1.389 . S
C2630 C2631 1.524 . S
C2630 C2644 1.377 . S
C2631 C2630 1.524 . S
C2631 C2632 1.397 . S
C2631 C2636 1.363 . S
C2632 H2609 0.950 . S
C2632 C2631 1.397 . S
C2632 C2633 1.334 . S
C2633 H2610 0.950 . S
C2633 C2632 1.334 . S
C2633 C2634 1.287 . S
C2634 C2633 1.287 . S
C2634 C2635 1.524 . S
C2634 H2653 0.913 . S
C2635 H2611 0.950 . S
C2635 C2634 1.524 . S
C2635 C2636 1.415 . S
C2636 H2612 0.950 . S
C2636 C2631 1.363 . S
C2636 C2635 1.415 . S
C2637 H2613 0.951 . S
C2637 C2638 1.366 . S
C2637 C2639 1.388 . S
C2638 C2637 1.366 . S
C2638 C2642 1.385 . S
C2639 H2614 0.951 . S
C2639 C2637 1.388 . S
C2639 C2640 1.366 . S
C2640 C2639 1.366 . S
C2640 C2641 1.414 . S
C2640 C2643 1.499 . S
C2641 H2615 0.950 . S
C2641 C2640 1.414 . S
C2641 C2642 1.374 . S
C2642 H2616 0.950 . S
C2642 C2638 1.385 . S
C2642 C2641 1.374 . S
C2643 C2640 1.499 . S
C2643 C2644 1.373 . S
C2643 C2645 1.389 . S
C2644 H2617 0.950 . S
C2644 C2630 1.377 . S
C2644 C2643 1.373 . S
C2645 C2629 1.377 . S
C2645 C2643 1.389 . S
C2645 C2646 1.524 . S
C2646 C2645 1.524 . S
C2646 C2647 1.397 . S
C2646 C2651 1.363 . S
C2647 H2618 0.950 . S
C2647 C2646 1.397 . S
C2647 C2648 1.334 . S
C2648 H2619 0.950 . S
C2648 C2647 1.334 . S
C2648 C2649 1.287 . S
C2649 C2648 1.287 . S
C2649 C2650 1.524 . S
C2649 H2652 0.999 . S
C2650 H2620 0.950 . S
C2650 C2649 1.524 . S
C2650 C2651 1.415 . S
C2651 H2621 0.950 . S
C2651 C2646 1.363 . S
C2651 C2650 1.415 . S
H2652 C2649 0.999 . S
H2653 C2634 0.913 . S
H2654 C2672 0.951 . S
H2655 C2674 0.951 . S
H2656 C2676 0.950 . S
H2657 C2677 0.950 . S
H2658 C2679 0.950 . S
H2659 C2682 0.950 . S
H2660 C2683 0.950 . S
H2661 C2685 0.950 . S
H2662 C2686 0.950 . S
H2663 C2687 0.951 . S
H2664 C2689 0.951 . S
H2665 C2691 0.950 . S
H2666 C2692 0.950 . S
H2667 C2694 0.950 . S
H2668 C2697 0.950 . S
H2669 C2698 0.950 . S
H2670 C2700 0.950 . S
H2671 C2701 0.950 . S
C2672 H2654 0.951 . S
C2672 C2673 1.366 . S
C2672 C2674 1.388 . S
C2673 C2672 1.366 . S
C2673 C2677 1.385 . S
C2674 H2655 0.951 . S
C2674 C2672 1.388 . S
C2674 C2675 1.366 . S
C2675 C2674 1.366 . S
C2675 C2676 1.414 . S
C2675 C2678 1.499 . S
C2676 H2656 0.950 . S
C2676 C2675 1.414 . S
C2676 C2677 1.374 . S
C2677 H2657 0.950 . S
C2677 C2673 1.385 . S
C2677 C2676 1.374 . S
C2678 C2675 1.499 . S
C2678 C2679 1.373 . S
C2678 C2680 1.389 . S
C2679 H2658 0.950 . S
C2679 C2678 1.373 . S
C2679 C2695 1.377 . S
C2680 C2678 1.389 . S
C2680 C2681 1.524 . S
C2680 C2694 1.377 . S
C2681 C2680 1.524 . S
C2681 C2682 1.397 . S
C2681 C2686 1.363 . S
C2682 H2659 0.950 . S
C2682 C2681 1.397 . S
C2682 C2683 1.334 . S
C2683 H2660 0.950 . S
C2683 C2682 1.334 . S
C2683 C2684 1.287 . S
C2684 C2683 1.287 . S
C2684 C2685 1.524 . S
C2684 H2703 0.913 . S
C2685 H2661 0.950 . S
C2685 C2684 1.524 . S
C2685 C2686 1.415 . S
C2686 H2662 0.950 . S
C2686 C2681 1.363 . S
C2686 C2685 1.415 . S
C2687 H2663 0.951 . S
C2687 C2688 1.366 . S
C2687 C2689 1.388 . S
C2688 C2687 1.366 . S
C2688 C2692 1.385 . S
C2689 H2664 0.951 . S
C2689 C2687 1.388 . S
C2689 C2690 1.366 . S
C2690 C2689 1.366 . S
C2690 C2691 1.414 . S
C2690 C2693 1.499 . S
C2691 H2665 0.950 . S
C2691 C2690 1.414 . S
C2691 C2692 1.374 . S
C2692 H2666 0.950 . S
C2692 C2688 1.385 . S
C2692 C2691 1.374 . S
C2693 C2690 1.499 . S
C2693 C2694 1.373 . S
C2693 C2695 1.389 . S
C2694 H2667 0.950 . S
C2694 C2680 1.377 . S
C2694 C2693 1.373 . S
C2695 C2679 1.377 . S
C2695 C2693 1.389 . S
C2695 C2696 1.524 . S
C2696 C2695 1.524 . S
C2696 C2697 1.397 . S
C2696 C2701 1.363 . S
C2697 H2668 0.950 . S
C2697 C2696 1.397 . S
C2697 C2698 1.334 . S
C2698 H2669 0.950 . S
C2698 C2697 1.334 . S
C2698 C2699 1.287 . S
C2699 C2698 1.287 . S
C2699 C2700 1.524 . S
C2699 H2702 0.999 . S
C2700 H2670 0.950 . S
C2700 C2699 1.524 . S
C2700 C2701 1.415 . S
C2701 H2671 0.950 . S
C2701 C2696 1.363 . S
C2701 C2700 1.415 . S
H2702 C2699 0.999 . S
H2703 C2684 0.913 . S
H2704 C2722 0.951 . S
H2705 C2724 0.951 . S
H2706 C2726 0.950 . S
H2707 C2727 0.950 . S
H2708 C2729 0.950 . S
H2709 C2732 0.950 . S
H2710 C2733 0.950 . S
H2711 C2735 0.950 . S
H2712 C2736 0.950 . S
H2713 C2737 0.951 . S
H2714 C2739 0.951 . S
H2715 C2741 0.950 . S
H2716 C2742 0.950 . S
H2717 C2744 0.950 . S
H2718 C2747 0.950 . S
H2719 C2748 0.950 . S
H2720 C2750 0.950 . S
H2721 C2751 0.950 . S
C2722 H2704 0.951 . S
C2722 C2723 1.366 . S
C2722 C2724 1.388 . S
C2723 C2722 1.366 . S
C2723 C2727 1.385 . S
C2724 H2705 0.951 . S
C2724 C2722 1.388 . S
C2724 C2725 1.366 . S
C2725 C2724 1.366 . S
C2725 C2726 1.414 . S
C2725 C2728 1.499 . S
C2726 H2706 0.950 . S
C2726 C2725 1.414 . S
C2726 C2727 1.374 . S
C2727 H2707 0.950 . S
C2727 C2723 1.385 . S
C2727 C2726 1.374 . S
C2728 C2725 1.499 . S
C2728 C2729 1.373 . S
C2728 C2730 1.389 . S
C2729 H2708 0.950 . S
C2729 C2728 1.373 . S
C2729 C2745 1.377 . S
C2730 C2728 1.389 . S
C2730 C2731 1.524 . S
C2730 C2744 1.377 . S
C2731 C2730 1.524 . S
C2731 C2732 1.397 . S
C2731 C2736 1.363 . S
C2732 H2709 0.950 . S
C2732 C2731 1.397 . S
C2732 C2733 1.334 . S
C2733 H2710 0.950 . S
C2733 C2732 1.334 . S
C2733 C2734 1.287 . S
C2734 C2733 1.287 . S
C2734 C2735 1.524 . S
C2734 H2753 0.913 . S
C2735 H2711 0.950 . S
C2735 C2734 1.524 . S
C2735 C2736 1.415 . S
C2736 H2712 0.950 . S
C2736 C2731 1.363 . S
C2736 C2735 1.415 . S
C2737 H2713 0.951 . S
C2737 C2738 1.366 . S
C2737 C2739 1.388 . S
C2738 C2737 1.366 . S
C2738 C2742 1.385 . S
C2739 H2714 0.951 . S
C2739 C2737 1.388 . S
C2739 C2740 1.366 . S
C2740 C2739 1.366 . S
C2740 C2741 1.414 . S
C2740 C2743 1.499 . S
C2741 H2715 0.950 . S
C2741 C2740 1.414 . S
C2741 C2742 1.374 . S
C2742 H2716 0.950 . S
C2742 C2738 1.385 . S
C2742 C2741 1.374 . S
C2743 C2740 1.499 . S
C2743 C2744 1.373 . S
C2743 C2745 1.389 . S
C2744 H2717 0.950 . S
C2744 C2730 1.377 . S
C2744 C2743 1.373 . S
C2745 C2729 1.377 . S
C2745 C2743 1.389 . S
C2745 C2746 1.524 . S
C2746 C2745 1.524 . S
C2746 C2747 1.397 . S
C2746 C2751 1.363 . S
C2747 H2718 0.950 . S
C2747 C2746 1.397 . S
C2747 C2748 1.334 . S
C2748 H2719 0.950 . S
C2748 C2747 1.334 . S
C2748 C2749 1.287 . S
C2749 C2748 1.287 . S
C2749 C2750 1.524 . S
C2749 H2752 0.999 . S
C2750 H2720 0.950 . S
C2750 C2749 1.524 . S
C2750 C2751 1.415 . S
C2751 H2721 0.950 . S
C2751 C2746 1.363 . S
C2751 C2750 1.415 . S
H2752 C2749 0.999 . S
H2753 C2734 0.913 . S
H2754 C2772 0.951 . S
H2755 C2774 0.951 . S
H2756 C2776 0.950 . S
H2757 C2777 0.950 . S
H2758 C2779 0.950 . S
H2759 C2782 0.950 . S
H2760 C2783 0.950 . S
H2761 C2785 0.970 . S
H2762 C2786 0.950 . S
H2763 C2787 0.951 . S
H2764 C2789 0.951 . S
H2765 C2791 0.950 . S
H2766 C2792 0.950 . S
H2767 C2794 0.950 . S
H2768 C2797 0.950 . S
H2769 C2798 0.950 . S
H2770 C2800 0.950 . S
H2771 C2801 0.950 . S
C2772 H2754 0.951 . S
C2772 C2773 1.366 . S
C2772 C2774 1.388 . S
C2773 C2772 1.366 . S
C2773 C2777 1.385 . S
C2774 H2755 0.951 . S
C2774 C2772 1.388 . S
C2774 C2775 1.366 . S
C2775 C2774 1.366 . S
C2775 C2776 1.414 . S
C2775 C2778 1.499 . S
C2776 H2756 0.950 . S
C2776 C2775 1.414 . S
C2776 C2777 1.374 . S
C2777 H2757 0.950 . S
C2777 C2773 1.385 . S
C2777 C2776 1.374 . S
C2778 C2775 1.499 . S
C2778 C2779 1.373 . S
C2778 C2780 1.389 . S
C2779 H2758 0.950 . S
C2779 C2778 1.373 . S
C2779 C2795 1.377 . S
C2780 C2778 1.389 . S
C2780 C2781 1.524 . S
C2780 C2794 1.377 . S
C2781 C2780 1.524 . S
C2781 C2782 1.397 . S
C2781 C2786 1.363 . S
C2782 H2759 0.950 . S
C2782 C2781 1.397 . S
C2782 C2783 1.334 . S
C2783 H2760 0.950 . S
C2783 C2782 1.334 . S
C2783 C2784 1.287 . S
C2784 C2783 1.287 . S
C2784 C2785 1.520 1_565 S
C2784 H2803 0.913 . S
C2785 H2761 0.970 . S
C2785 C2784 1.520 1_545 S
C2785 C2786 1.396 1_545 S
C2786 H2762 0.950 . S
C2786 C2781 1.363 . S
C2786 C2785 1.396 1_565 S
C2787 H2763 0.951 . S
C2787 C2788 1.366 . S
C2787 C2789 1.388 . S
C2788 C2787 1.366 . S
C2788 C2792 1.385 . S
C2789 H2764 0.951 . S
C2789 C2787 1.388 . S
C2789 C2790 1.366 . S
C2790 C2789 1.366 . S
C2790 C2791 1.414 . S
C2790 C2793 1.499 . S
C2791 H2765 0.950 . S
C2791 C2790 1.414 . S
C2791 C2792 1.374 . S
C2792 H2766 0.950 . S
C2792 C2788 1.385 . S
C2792 C2791 1.374 . S
C2793 C2790 1.499 . S
C2793 C2794 1.373 . S
C2793 C2795 1.389 . S
C2794 H2767 0.950 . S
C2794 C2780 1.377 . S
C2794 C2793 1.373 . S
C2795 C2779 1.377 . S
C2795 C2793 1.389 . S
C2795 C2796 1.524 . S
C2796 C2795 1.524 . S
C2796 C2797 1.397 . S
C2796 C2801 1.363 . S
C2797 H2768 0.950 . S
C2797 C2796 1.397 . S
C2797 C2798 1.334 . S
C2798 H2769 0.950 . S
C2798 C2797 1.334 . S
C2798 C2799 1.287 . S
C2799 C2798 1.287 . S
C2799 C2800 1.524 . S
C2799 H2802 0.999 . S
C2800 H2770 0.950 . S
C2800 C2799 1.524 . S
C2800 C2801 1.415 . S
C2801 H2771 0.950 . S
C2801 C2796 1.363 . S
C2801 C2800 1.415 . S
H2802 C2799 0.999 . S
H2803 C2784 0.913 . S
H2804 C2822 0.951 . S
H2805 C2824 0.951 . S
H2806 C2826 0.950 . S
H2807 C2827 0.950 . S
H2808 C2829 0.950 . S
H2809 C2832 0.950 . S
H2810 C2833 0.950 . S
H2811 C2835 0.950 . S
H2812 C2836 0.950 . S
H2813 C2837 0.951 . S
H2814 C2839 0.951 . S
H2815 C2841 0.950 . S
H2816 C2842 0.950 . S
H2817 C2844 0.950 . S
H2818 C2847 0.950 . S
H2819 C2848 0.950 . S
H2820 C2850 0.950 . S
H2821 C2851 0.950 . S
C2822 H2804 0.951 . S
C2822 C2823 1.366 . S
C2822 C2824 1.388 . S
C2823 C2822 1.366 . S
C2823 C2827 1.385 . S
C2824 H2805 0.951 . S
C2824 C2822 1.388 . S
C2824 C2825 1.366 . S
C2825 C2824 1.366 . S
C2825 C2826 1.414 . S
C2825 C2828 1.499 . S
C2826 H2806 0.950 . S
C2826 C2825 1.414 . S
C2826 C2827 1.374 . S
C2827 H2807 0.950 . S
C2827 C2823 1.385 . S
C2827 C2826 1.374 . S
C2828 C2825 1.499 . S
C2828 C2829 1.373 . S
C2828 C2830 1.389 . S
C2829 H2808 0.950 . S
C2829 C2828 1.373 . S
C2829 C2845 1.377 . S
C2830 C2828 1.389 . S
C2830 C2831 1.524 . S
C2830 C2844 1.377 . S
C2831 C2830 1.524 . S
C2831 C2832 1.397 . S
C2831 C2836 1.363 . S
C2832 H2809 0.950 . S
C2832 C2831 1.397 . S
C2832 C2833 1.334 . S
C2833 H2810 0.950 . S
C2833 C2832 1.334 . S
C2833 C2834 1.287 . S
C2834 C2833 1.287 . S
C2834 C2835 1.524 . S
C2834 H2853 0.913 . S
C2835 H2811 0.950 . S
C2835 C2834 1.524 . S
C2835 C2836 1.415 . S
C2836 H2812 0.950 . S
C2836 C2831 1.363 . S
C2836 C2835 1.415 . S
C2837 H2813 0.951 . S
C2837 C2838 1.366 . S
C2837 C2839 1.388 . S
C2838 C2837 1.366 . S
C2838 C2842 1.385 . S
C2839 H2814 0.951 . S
C2839 C2837 1.388 . S
C2839 C2840 1.366 . S
C2840 C2839 1.366 . S
C2840 C2841 1.414 . S
C2840 C2843 1.499 . S
C2841 H2815 0.950 . S
C2841 C2840 1.414 . S
C2841 C2842 1.374 . S
C2842 H2816 0.950 . S
C2842 C2838 1.385 . S
C2842 C2841 1.374 . S
C2843 C2840 1.499 . S
C2843 C2844 1.373 . S
C2843 C2845 1.389 . S
C2844 H2817 0.950 . S
C2844 C2830 1.377 . S
C2844 C2843 1.373 . S
C2845 C2829 1.377 . S
C2845 C2843 1.389 . S
C2845 C2846 1.524 . S
C2846 C2845 1.524 . S
C2846 C2847 1.397 . S
C2846 C2851 1.363 . S
C2847 H2818 0.950 . S
C2847 C2846 1.397 . S
C2847 C2848 1.334 . S
C2848 H2819 0.950 . S
C2848 C2847 1.334 . S
C2848 C2849 1.287 . S
C2849 C2848 1.287 . S
C2849 C2850 1.524 . S
C2849 H2852 0.999 . S
C2850 H2820 0.950 . S
C2850 C2849 1.524 . S
C2850 C2851 1.415 . S
C2851 H2821 0.950 . S
C2851 C2846 1.363 . S
C2851 C2850 1.415 . S
H2852 C2849 0.999 . S
H2853 C2834 0.913 . S
H2854 C2872 0.951 . S
H2855 C2874 0.951 . S
H2856 C2876 0.950 . S
H2857 C2877 0.950 . S
H2858 C2879 0.950 . S
H2859 C2882 0.950 . S
H2860 C2883 0.950 . S
H2861 C2885 0.950 . S
H2862 C2886 0.950 . S
H2863 C2887 0.951 . S
H2864 C2889 0.951 . S
H2865 C2891 0.950 . S
H2866 C2892 0.950 . S
H2867 C2894 0.950 . S
H2868 C2897 0.950 . S
H2869 C2898 0.950 . S
H2870 C2900 0.950 . S
H2871 C2901 0.950 . S
C2872 H2854 0.951 . S
C2872 C2873 1.366 . S
C2872 C2874 1.388 . S
C2873 C2872 1.366 . S
C2873 C2877 1.385 . S
C2874 H2855 0.951 . S
C2874 C2872 1.388 . S
C2874 C2875 1.366 . S
C2875 C2874 1.366 . S
C2875 C2876 1.414 . S
C2875 C2878 1.499 . S
C2876 H2856 0.950 . S
C2876 C2875 1.414 . S
C2876 C2877 1.374 . S
C2877 H2857 0.950 . S
C2877 C2873 1.385 . S
C2877 C2876 1.374 . S
C2878 C2875 1.499 . S
C2878 C2879 1.373 . S
C2878 C2880 1.389 . S
C2879 H2858 0.950 . S
C2879 C2878 1.373 . S
C2879 C2895 1.377 . S
C2880 C2878 1.389 . S
C2880 C2881 1.524 . S
C2880 C2894 1.377 . S
C2881 C2880 1.524 . S
C2881 C2882 1.397 . S
C2881 C2886 1.363 . S
C2882 H2859 0.950 . S
C2882 C2881 1.397 . S
C2882 C2883 1.334 . S
C2883 H2860 0.950 . S
C2883 C2882 1.334 . S
C2883 C2884 1.287 . S
C2884 C2883 1.287 . S
C2884 C2885 1.524 . S
C2884 H2903 0.913 . S
C2885 H2861 0.950 . S
C2885 C2884 1.524 . S
C2885 C2886 1.415 . S
C2886 H2862 0.950 . S
C2886 C2881 1.363 . S
C2886 C2885 1.415 . S
C2887 H2863 0.951 . S
C2887 C2888 1.366 . S
C2887 C2889 1.388 . S
C2888 C2887 1.366 . S
C2888 C2892 1.385 . S
C2889 H2864 0.951 . S
C2889 C2887 1.388 . S
C2889 C2890 1.366 . S
C2890 C2889 1.366 . S
C2890 C2891 1.414 . S
C2890 C2893 1.499 . S
C2891 H2865 0.950 . S
C2891 C2890 1.414 . S
C2891 C2892 1.374 . S
C2892 H2866 0.950 . S
C2892 C2888 1.385 . S
C2892 C2891 1.374 . S
C2893 C2890 1.499 . S
C2893 C2894 1.373 . S
C2893 C2895 1.389 . S
C2894 H2867 0.950 . S
C2894 C2880 1.377 . S
C2894 C2893 1.373 . S
C2895 C2879 1.377 . S
C2895 C2893 1.389 . S
C2895 C2896 1.524 . S
C2896 C2895 1.524 . S
C2896 C2897 1.397 . S
C2896 C2901 1.363 . S
C2897 H2868 0.950 . S
C2897 C2896 1.397 . S
C2897 C2898 1.334 . S
C2898 H2869 0.950 . S
C2898 C2897 1.334 . S
C2898 C2899 1.287 . S
C2899 C2898 1.287 . S
C2899 C2900 1.524 . S
C2899 H2902 0.999 . S
C2900 H2870 0.950 . S
C2900 C2899 1.524 . S
C2900 C2901 1.415 . S
C2901 H2871 0.950 . S
C2901 C2896 1.363 . S
C2901 C2900 1.415 . S
H2902 C2899 0.999 . S
H2903 C2884 0.913 . S
H2904 C2922 0.951 . S
H2905 C2924 0.951 . S
H2906 C2926 0.950 . S
H2907 C2927 0.950 . S
H2908 C2929 0.950 . S
H2909 C2932 0.950 . S
H2910 C2933 0.950 . S
H2911 C2935 0.950 . S
H2912 C2936 0.950 . S
H2913 C2937 0.951 . S
H2914 C2939 0.951 . S
H2915 C2941 0.950 . S
H2916 C2942 0.950 . S
H2917 C2944 0.950 . S
H2918 C2947 0.950 . S
H2919 C2948 0.950 . S
H2920 C2950 0.950 . S
H2921 C2951 0.950 . S
C2922 H2904 0.951 . S
C2922 C2923 1.366 . S
C2922 C2924 1.388 . S
C2923 C2922 1.366 . S
C2923 C2927 1.385 . S
C2924 H2905 0.951 . S
C2924 C2922 1.388 . S
C2924 C2925 1.366 . S
C2925 C2924 1.366 . S
C2925 C2926 1.414 . S
C2925 C2928 1.499 . S
C2926 H2906 0.950 . S
C2926 C2925 1.414 . S
C2926 C2927 1.374 . S
C2927 H2907 0.950 . S
C2927 C2923 1.385 . S
C2927 C2926 1.374 . S
C2928 C2925 1.499 . S
C2928 C2929 1.373 . S
C2928 C2930 1.389 . S
C2929 H2908 0.950 . S
C2929 C2928 1.373 . S
C2929 C2945 1.377 . S
C2930 C2928 1.389 . S
C2930 C2931 1.524 . S
C2930 C2944 1.377 . S
C2931 C2930 1.524 . S
C2931 C2932 1.397 . S
C2931 C2936 1.363 . S
C2932 H2909 0.950 . S
C2932 C2931 1.397 . S
C2932 C2933 1.334 . S
C2933 H2910 0.950 . S
C2933 C2932 1.334 . S
C2933 C2934 1.287 . S
C2934 C2933 1.287 . S
C2934 C2935 1.524 . S
C2934 H2953 0.913 . S
C2935 H2911 0.950 . S
C2935 C2934 1.524 . S
C2935 C2936 1.415 . S
C2936 H2912 0.950 . S
C2936 C2931 1.363 . S
C2936 C2935 1.415 . S
C2937 H2913 0.951 . S
C2937 C2938 1.366 . S
C2937 C2939 1.388 . S
C2938 C2937 1.366 . S
C2938 C2942 1.385 . S
C2939 H2914 0.951 . S
C2939 C2937 1.388 . S
C2939 C2940 1.366 . S
C2940 C2939 1.366 . S
C2940 C2941 1.414 . S
C2940 C2943 1.499 . S
C2941 H2915 0.950 . S
C2941 C2940 1.414 . S
C2941 C2942 1.374 . S
C2942 H2916 0.950 . S
C2942 C2938 1.385 . S
C2942 C2941 1.374 . S
C2943 C2940 1.499 . S
C2943 C2944 1.373 . S
C2943 C2945 1.389 . S
C2944 H2917 0.950 . S
C2944 C2930 1.377 . S
C2944 C2943 1.373 . S
C2945 C2929 1.377 . S
C2945 C2943 1.389 . S
C2945 C2946 1.524 . S
C2946 C2945 1.524 . S
C2946 C2947 1.397 . S
C2946 C2951 1.363 . S
C2947 H2918 0.950 . S
C2947 C2946 1.397 . S
C2947 C2948 1.334 . S
C2948 H2919 0.950 . S
C2948 C2947 1.334 . S
C2948 C2949 1.287 . S
C2949 C2948 1.287 . S
C2949 C2950 1.524 . S
C2949 H2952 0.999 . S
C2950 H2920 0.950 . S
C2950 C2949 1.524 . S
C2950 C2951 1.415 . S
C2951 H2921 0.950 . S
C2951 C2946 1.363 . S
C2951 C2950 1.415 . S
H2952 C2949 0.999 . S
H2953 C2934 0.913 . S
H2954 C2972 0.951 . S
H2955 C2974 0.951 . S
H2956 C2976 0.950 . S
H2957 C2977 0.950 . S
H2958 C2979 0.950 . S
H2959 C2982 0.950 . S
H2960 C2983 0.950 . S
H2961 C2985 0.950 . S
H2962 C2986 0.950 . S
H2963 C2987 0.951 . S
H2964 C2989 0.951 . S
H2965 C2991 0.950 . S
H2966 C2992 0.950 . S
H2967 C2994 0.950 . S
H2968 C2997 0.950 . S
H2969 C2998 0.950 . S
H2970 C3000 0.950 . S
H2971 C3001 0.950 . S
C2972 H2954 0.951 . S
C2972 C2973 1.366 . S
C2972 C2974 1.388 . S
C2973 C2972 1.366 . S
C2973 C2977 1.385 . S
C2974 H2955 0.951 . S
C2974 C2972 1.388 . S
C2974 C2975 1.366 . S
C2975 C2974 1.366 . S
C2975 C2976 1.414 . S
C2975 C2978 1.499 . S
C2976 H2956 0.950 . S
C2976 C2975 1.414 . S
C2976 C2977 1.374 . S
C2977 H2957 0.950 . S
C2977 C2973 1.385 . S
C2977 C2976 1.374 . S
C2978 C2975 1.499 . S
C2978 C2979 1.373 . S
C2978 C2980 1.389 . S
C2979 H2958 0.950 . S
C2979 C2978 1.373 . S
C2979 C2995 1.377 . S
C2980 C2978 1.389 . S
C2980 C2981 1.524 . S
C2980 C2994 1.377 . S
C2981 C2980 1.524 . S
C2981 C2982 1.397 . S
C2981 C2986 1.363 . S
C2982 H2959 0.950 . S
C2982 C2981 1.397 . S
C2982 C2983 1.334 . S
C2983 H2960 0.950 . S
C2983 C2982 1.334 . S
C2983 C2984 1.287 . S
C2984 C2983 1.287 . S
C2984 C2985 1.524 . S
C2984 H3003 0.913 . S
C2985 H2961 0.950 . S
C2985 C2984 1.524 . S
C2985 C2986 1.415 . S
C2986 H2962 0.950 . S
C2986 C2981 1.363 . S
C2986 C2985 1.415 . S
C2987 H2963 0.951 . S
C2987 C2988 1.366 . S
C2987 C2989 1.388 . S
C2988 C2987 1.366 . S
C2988 C2992 1.385 . S
C2989 H2964 0.951 . S
C2989 C2987 1.388 . S
C2989 C2990 1.366 . S
C2990 C2989 1.366 . S
C2990 C2991 1.414 . S
C2990 C2993 1.499 . S
C2991 H2965 0.950 . S
C2991 C2990 1.414 . S
C2991 C2992 1.374 . S
C2992 H2966 0.950 . S
C2992 C2988 1.385 . S
C2992 C2991 1.374 . S
C2993 C2990 1.499 . S
C2993 C2994 1.373 . S
C2993 C2995 1.389 . S
C2994 H2967 0.950 . S
C2994 C2980 1.377 . S
C2994 C2993 1.373 . S
C2995 C2979 1.377 . S
C2995 C2993 1.389 . S
C2995 C2996 1.524 . S
C2996 C2995 1.524 . S
C2996 C2997 1.397 . S
C2996 C3001 1.363 . S
C2997 H2968 0.950 . S
C2997 C2996 1.397 . S
C2997 C2998 1.334 . S
C2998 H2969 0.950 . S
C2998 C2997 1.334 . S
C2998 C2999 1.287 . S
C2999 C2998 1.287 . S
C2999 C3000 1.524 . S
C2999 H3002 0.999 . S
C3000 H2970 0.950 . S
C3000 C2999 1.524 . S
C3000 C3001 1.415 . S
C3001 H2971 0.950 . S
C3001 C2996 1.363 . S
C3001 C3000 1.415 . S
H3002 C2999 0.999 . S
H3003 C2984 0.913 . S
H3004 C3022 0.951 . S
H3005 C3024 0.951 . S
H3006 C3026 0.950 . S
H3007 C3027 0.950 . S
H3008 C3029 0.950 . S
H3009 C3032 0.950 . S
H3010 C3033 0.950 . S
H3011 C3035 0.950 . S
H3012 C3036 0.950 . S
H3013 C3037 0.951 . S
H3014 C3039 0.951 . S
H3015 C3041 0.950 . S
H3016 C3042 0.950 . S
H3017 C3044 0.950 . S
H3018 C3047 0.950 . S
H3019 C3048 0.950 . S
H3020 C3050 0.950 . S
H3021 C3051 0.950 . S
C3022 H3004 0.951 . S
C3022 C3023 1.366 . S
C3022 C3024 1.388 . S
C3023 C3022 1.366 . S
C3023 C3027 1.385 . S
C3024 H3005 0.951 . S
C3024 C3022 1.388 . S
C3024 C3025 1.366 . S
C3025 C3024 1.366 . S
C3025 C3026 1.414 . S
C3025 C3028 1.499 . S
C3026 H3006 0.950 . S
C3026 C3025 1.414 . S
C3026 C3027 1.374 . S
C3027 H3007 0.950 . S
C3027 C3023 1.385 . S
C3027 C3026 1.374 . S
C3028 C3025 1.499 . S
C3028 C3029 1.373 . S
C3028 C3030 1.389 . S
C3029 H3008 0.950 . S
C3029 C3028 1.373 . S
C3029 C3045 1.377 . S
C3030 C3028 1.389 . S
C3030 C3031 1.524 . S
C3030 C3044 1.377 . S
C3031 C3030 1.524 . S
C3031 C3032 1.397 . S
C3031 C3036 1.363 . S
C3032 H3009 0.950 . S
C3032 C3031 1.397 . S
C3032 C3033 1.334 . S
C3033 H3010 0.950 . S
C3033 C3032 1.334 . S
C3033 C3034 1.287 . S
C3034 C3033 1.287 . S
C3034 C3035 1.524 1_545 S
C3034 H3053 0.913 1_545 S
C3035 H3011 0.950 . S
C3035 C3034 1.524 1_565 S
C3035 C3036 1.415 1_565 S
C3036 H3012 0.950 . S
C3036 C3031 1.363 . S
C3036 C3035 1.415 1_545 S
C3037 H3013 0.951 . S
C3037 C3038 1.366 . S
C3037 C3039 1.388 . S
C3038 C3037 1.366 . S
C3038 C3042 1.385 . S
C3039 H3014 0.951 . S
C3039 C3037 1.388 . S
C3039 C3040 1.366 . S
C3040 C3039 1.366 . S
C3040 C3041 1.414 . S
C3040 C3043 1.499 . S
C3041 H3015 0.950 . S
C3041 C3040 1.414 . S
C3041 C3042 1.374 . S
C3042 H3016 0.950 . S
C3042 C3038 1.385 . S
C3042 C3041 1.374 . S
C3043 C3040 1.499 . S
C3043 C3044 1.373 . S
C3043 C3045 1.389 . S
C3044 H3017 0.950 . S
C3044 C3030 1.377 . S
C3044 C3043 1.373 . S
C3045 C3029 1.377 . S
C3045 C3043 1.389 . S
C3045 C3046 1.524 . S
C3046 C3045 1.524 . S
C3046 C3047 1.397 . S
C3046 C3051 1.363 . S
C3047 H3018 0.950 . S
C3047 C3046 1.397 . S
C3047 C3048 1.334 . S
C3048 H3019 0.950 . S
C3048 C3047 1.334 . S
C3048 C3049 1.287 . S
C3049 C3048 1.287 . S
C3049 C3050 1.524 . S
C3049 H3052 0.999 . S
C3050 H3020 0.950 . S
C3050 C3049 1.524 . S
C3050 C3051 1.415 . S
C3051 H3021 0.950 . S
C3051 C3046 1.363 . S
C3051 C3050 1.415 . S
H3052 C3049 0.999 . S
H3053 C3034 0.913 1_565 S
H3054 C3072 0.951 . S
H3055 C3074 0.951 . S
H3056 C3076 0.950 . S
H3057 C3077 0.950 . S
H3058 C3079 0.950 . S
H3059 C3082 0.950 . S
H3060 C3083 0.950 . S
H3061 C3085 0.950 . S
H3062 C3086 0.950 . S
H3063 C3087 0.951 . S
H3064 C3089 0.951 . S
H3065 C3091 0.950 . S
H3066 C3092 0.950 . S
H3067 C3094 0.950 . S
H3068 C3097 0.950 . S
H3069 C3098 0.950 . S
H3070 C3100 0.950 . S
H3071 C3101 0.950 . S
C3072 H3054 0.951 . S
C3072 C3073 1.366 . S
C3072 C3074 1.388 . S
C3073 C3072 1.366 . S
C3073 C3077 1.385 . S
C3074 H3055 0.951 . S
C3074 C3072 1.388 . S
C3074 C3075 1.366 . S
C3075 C3074 1.366 . S
C3075 C3076 1.414 . S
C3075 C3078 1.499 . S
C3076 H3056 0.950 . S
C3076 C3075 1.414 . S
C3076 C3077 1.374 . S
C3077 H3057 0.950 . S
C3077 C3073 1.385 . S
C3077 C3076 1.374 . S
C3078 C3075 1.499 . S
C3078 C3079 1.373 . S
C3078 C3080 1.389 . S
C3079 H3058 0.950 . S
C3079 C3078 1.373 . S
C3079 C3095 1.377 . S
C3080 C3078 1.389 . S
C3080 C3081 1.524 . S
C3080 C3094 1.377 . S
C3081 C3080 1.524 . S
C3081 C3082 1.397 . S
C3081 C3086 1.363 . S
C3082 H3059 0.950 . S
C3082 C3081 1.397 . S
C3082 C3083 1.334 . S
C3083 H3060 0.950 . S
C3083 C3082 1.334 . S
C3083 C3084 1.287 . S
C3084 C3083 1.287 . S
C3084 C3085 1.524 . S
C3084 H3103 0.913 . S
C3085 H3061 0.950 . S
C3085 C3084 1.524 . S
C3085 C3086 1.415 . S
C3086 H3062 0.950 . S
C3086 C3081 1.363 . S
C3086 C3085 1.415 . S
C3087 H3063 0.951 . S
C3087 C3088 1.366 . S
C3087 C3089 1.388 . S
C3088 C3087 1.366 . S
C3088 C3092 1.385 . S
C3089 H3064 0.951 . S
C3089 C3087 1.388 . S
C3089 C3090 1.366 . S
C3090 C3089 1.366 . S
C3090 C3091 1.414 . S
C3090 C3093 1.499 . S
C3091 H3065 0.950 . S
C3091 C3090 1.414 . S
C3091 C3092 1.374 . S
C3092 H3066 0.950 . S
C3092 C3088 1.385 . S
C3092 C3091 1.374 . S
C3093 C3090 1.499 . S
C3093 C3094 1.373 . S
C3093 C3095 1.389 . S
C3094 H3067 0.950 . S
C3094 C3080 1.377 . S
C3094 C3093 1.373 . S
C3095 C3079 1.377 . S
C3095 C3093 1.389 . S
C3095 C3096 1.524 . S
C3096 C3095 1.524 . S
C3096 C3097 1.397 . S
C3096 C3101 1.363 . S
C3097 H3068 0.950 . S
C3097 C3096 1.397 . S
C3097 C3098 1.334 . S
C3098 H3069 0.950 . S
C3098 C3097 1.334 . S
C3098 C3099 1.287 . S
C3099 C3098 1.287 . S
C3099 C3100 1.524 . S
C3099 H3102 0.999 . S
C3100 H3070 0.950 . S
C3100 C3099 1.524 . S
C3100 C3101 1.415 . S
C3101 H3071 0.950 . S
C3101 C3096 1.363 . S
C3101 C3100 1.415 . S
H3102 C3099 0.999 . S
H3103 C3084 0.913 . S
H3104 C3122 0.951 . S
H3105 C3124 0.951 . S
H3106 C3126 0.950 . S
H3107 C3127 0.950 . S
H3108 C3129 0.950 . S
H3109 C3132 0.950 . S
H3110 C3133 0.950 . S
H3111 C3135 0.950 . S
H3112 C3136 0.950 . S
H3113 C3137 0.951 . S
H3114 C3139 0.951 . S
H3115 C3141 0.950 . S
H3116 C3142 0.950 . S
H3117 C3144 0.950 . S
H3118 C3147 0.950 . S
H3119 C3148 0.950 . S
H3120 C3150 0.950 . S
H3121 C3151 0.950 . S
C3122 H3104 0.951 . S
C3122 C3123 1.366 . S
C3122 C3124 1.388 . S
C3123 C3122 1.366 . S
C3123 C3127 1.385 . S
C3124 H3105 0.951 . S
C3124 C3122 1.388 . S
C3124 C3125 1.366 . S
C3125 C3124 1.366 . S
C3125 C3126 1.414 . S
C3125 C3128 1.499 . S
C3126 H3106 0.950 . S
C3126 C3125 1.414 . S
C3126 C3127 1.374 . S
C3127 H3107 0.950 . S
C3127 C3123 1.385 . S
C3127 C3126 1.374 . S
C3128 C3125 1.499 . S
C3128 C3129 1.373 . S
C3128 C3130 1.389 . S
C3129 H3108 0.950 . S
C3129 C3128 1.373 . S
C3129 C3145 1.377 . S
C3130 C3128 1.389 . S
C3130 C3131 1.524 . S
C3130 C3144 1.377 . S
C3131 C3130 1.524 . S
C3131 C3132 1.397 . S
C3131 C3136 1.363 . S
C3132 H3109 0.950 . S
C3132 C3131 1.397 . S
C3132 C3133 1.334 . S
C3133 H3110 0.950 . S
C3133 C3132 1.334 . S
C3133 C3134 1.287 . S
C3134 C3133 1.287 . S
C3134 C3135 1.524 . S
C3134 H3153 0.913 . S
C3135 H3111 0.950 . S
C3135 C3134 1.524 . S
C3135 C3136 1.415 . S
C3136 H3112 0.950 . S
C3136 C3131 1.363 . S
C3136 C3135 1.415 . S
C3137 H3113 0.951 . S
C3137 C3138 1.366 . S
C3137 C3139 1.388 . S
C3138 C3137 1.366 . S
C3138 C3142 1.385 . S
C3139 H3114 0.951 . S
C3139 C3137 1.388 . S
C3139 C3140 1.366 . S
C3140 C3139 1.366 . S
C3140 C3141 1.414 . S
C3140 C3143 1.499 . S
C3141 H3115 0.950 . S
C3141 C3140 1.414 . S
C3141 C3142 1.374 . S
C3142 H3116 0.950 . S
C3142 C3138 1.385 . S
C3142 C3141 1.374 . S
C3143 C3140 1.499 . S
C3143 C3144 1.373 . S
C3143 C3145 1.389 . S
C3144 H3117 0.950 . S
C3144 C3130 1.377 . S
C3144 C3143 1.373 . S
C3145 C3129 1.377 . S
C3145 C3143 1.389 . S
C3145 C3146 1.524 . S
C3146 C3145 1.524 . S
C3146 C3147 1.397 . S
C3146 C3151 1.363 . S
C3147 H3118 0.950 . S
C3147 C3146 1.397 . S
C3147 C3148 1.334 . S
C3148 H3119 0.950 . S
C3148 C3147 1.334 . S
C3148 C3149 1.287 . S
C3149 C3148 1.287 . S
C3149 C3150 1.524 . S
C3149 H3152 0.999 . S
C3150 H3120 0.950 . S
C3150 C3149 1.524 . S
C3150 C3151 1.415 . S
C3151 H3121 0.950 . S
C3151 C3146 1.363 . S
C3151 C3150 1.415 . S
H3152 C3149 0.999 . S
H3153 C3134 0.913 . S
H3154 C3172 0.951 . S
H3155 C3174 0.951 . S
H3156 C3176 0.950 . S
H3157 C3177 0.950 . S
H3158 C3179 0.950 . S
H3159 C3182 0.950 . S
H3160 C3183 0.950 . S
H3161 C3185 0.950 . S
H3162 C3186 0.950 . S
H3163 C3187 0.951 . S
H3164 C3189 0.951 . S
H3165 C3191 0.950 . S
H3166 C3192 0.950 . S
H3167 C3194 0.950 . S
H3168 C3197 0.950 . S
H3169 C3198 0.950 . S
H3170 C3200 0.950 . S
H3171 C3201 0.950 . S
C3172 H3154 0.951 . S
C3172 C3173 1.366 . S
C3172 C3174 1.388 . S
C3173 C3172 1.366 . S
C3173 C3177 1.385 . S
C3174 H3155 0.951 . S
C3174 C3172 1.388 . S
C3174 C3175 1.366 . S
C3175 C3174 1.366 . S
C3175 C3176 1.414 . S
C3175 C3178 1.499 . S
C3176 H3156 0.950 . S
C3176 C3175 1.414 . S
C3176 C3177 1.374 . S
C3177 H3157 0.950 . S
C3177 C3173 1.385 . S
C3177 C3176 1.374 . S
C3178 C3175 1.499 . S
C3178 C3179 1.373 . S
C3178 C3180 1.389 . S
C3179 H3158 0.950 . S
C3179 C3178 1.373 . S
C3179 C3195 1.377 . S
C3180 C3178 1.389 . S
C3180 C3181 1.524 . S
C3180 C3194 1.377 . S
C3181 C3180 1.524 . S
C3181 C3182 1.397 . S
C3181 C3186 1.363 . S
C3182 H3159 0.950 . S
C3182 C3181 1.397 . S
C3182 C3183 1.334 . S
C3183 H3160 0.950 . S
C3183 C3182 1.334 . S
C3183 C3184 1.287 . S
C3184 C3183 1.287 . S
C3184 C3185 1.524 . S
C3184 H3203 0.913 . S
C3185 H3161 0.950 . S
C3185 C3184 1.524 . S
C3185 C3186 1.415 . S
C3186 H3162 0.950 . S
C3186 C3181 1.363 . S
C3186 C3185 1.415 . S
C3187 H3163 0.951 . S
C3187 C3188 1.366 . S
C3187 C3189 1.388 . S
C3188 C3187 1.366 . S
C3188 C3192 1.385 . S
C3189 H3164 0.951 . S
C3189 C3187 1.388 . S
C3189 C3190 1.366 . S
C3190 C3189 1.366 . S
C3190 C3191 1.414 . S
C3190 C3193 1.499 . S
C3191 H3165 0.950 . S
C3191 C3190 1.414 . S
C3191 C3192 1.374 . S
C3192 H3166 0.950 . S
C3192 C3188 1.385 . S
C3192 C3191 1.374 . S
C3193 C3190 1.499 . S
C3193 C3194 1.373 . S
C3193 C3195 1.389 . S
C3194 H3167 0.950 . S
C3194 C3180 1.377 . S
C3194 C3193 1.373 . S
C3195 C3179 1.377 . S
C3195 C3193 1.389 . S
C3195 C3196 1.524 . S
C3196 C3195 1.524 . S
C3196 C3197 1.397 . S
C3196 C3201 1.363 . S
C3197 H3168 0.950 . S
C3197 C3196 1.397 . S
C3197 C3198 1.334 . S
C3198 H3169 0.950 . S
C3198 C3197 1.334 . S
C3198 C3199 1.287 . S
C3199 C3198 1.287 . S
C3199 C3200 1.524 . S
C3199 H3202 0.999 . S
C3200 H3170 0.950 . S
C3200 C3199 1.524 . S
C3200 C3201 1.415 . S
C3201 H3171 0.950 . S
C3201 C3196 1.363 . S
C3201 C3200 1.415 . S
H3202 C3199 0.999 . S
H3203 C3184 0.913 . S
H3204 C3222 0.951 . S
H3205 C3224 0.951 . S
H3206 C3226 0.950 . S
H3207 C3227 0.950 . S
H3208 C3229 0.950 . S
H3209 C3232 0.950 . S
H3210 C3233 0.950 . S
H3211 C3235 0.950 . S
H3212 C3236 0.950 . S
H3213 C3237 0.951 . S
H3214 C3239 0.951 . S
H3215 C3241 0.950 . S
H3216 C3242 0.950 . S
H3217 C3244 0.950 . S
H3218 C3247 0.950 . S
H3219 C3248 0.950 . S
H3220 C3250 0.950 . S
H3221 C3251 0.950 . S
C3222 H3204 0.951 . S
C3222 C3223 1.366 . S
C3222 C3224 1.388 . S
C3223 C3222 1.366 . S
C3223 C3227 1.385 . S
C3224 H3205 0.951 . S
C3224 C3222 1.388 . S
C3224 C3225 1.366 . S
C3225 C3224 1.366 . S
C3225 C3226 1.414 . S
C3225 C3228 1.499 . S
C3226 H3206 0.950 . S
C3226 C3225 1.414 . S
C3226 C3227 1.374 . S
C3227 H3207 0.950 . S
C3227 C3223 1.385 . S
C3227 C3226 1.374 . S
C3228 C3225 1.499 . S
C3228 C3229 1.373 . S
C3228 C3230 1.389 . S
C3229 H3208 0.950 . S
C3229 C3228 1.373 . S
C3229 C3245 1.377 . S
C3230 C3228 1.389 . S
C3230 C3231 1.524 . S
C3230 C3244 1.377 . S
C3231 C3230 1.524 . S
C3231 C3232 1.397 . S
C3231 C3236 1.363 . S
C3232 H3209 0.950 . S
C3232 C3231 1.397 . S
C3232 C3233 1.334 . S
C3233 H3210 0.950 . S
C3233 C3232 1.334 . S
C3233 C3234 1.287 . S
C3234 C3233 1.287 . S
C3234 C3235 1.524 . S
C3234 H3253 0.913 . S
C3235 H3211 0.950 . S
C3235 C3234 1.524 . S
C3235 C3236 1.415 . S
C3236 H3212 0.950 . S
C3236 C3231 1.363 . S
C3236 C3235 1.415 . S
C3237 H3213 0.951 . S
C3237 C3238 1.366 . S
C3237 C3239 1.388 . S
C3238 C3237 1.366 . S
C3238 C3242 1.385 . S
C3239 H3214 0.951 . S
C3239 C3237 1.388 . S
C3239 C3240 1.366 . S
C3240 C3239 1.366 . S
C3240 C3241 1.414 . S
C3240 C3243 1.499 . S
C3241 H3215 0.950 . S
C3241 C3240 1.414 . S
C3241 C3242 1.374 . S
C3242 H3216 0.950 . S
C3242 C3238 1.385 . S
C3242 C3241 1.374 . S
C3243 C3240 1.499 . S
C3243 C3244 1.373 . S
C3243 C3245 1.389 . S
C3244 H3217 0.950 . S
C3244 C3230 1.377 . S
C3244 C3243 1.373 . S
C3245 C3229 1.377 . S
C3245 C3243 1.389 . S
C3245 C3246 1.524 . S
C3246 C3245 1.524 . S
C3246 C3247 1.397 . S
C3246 C3251 1.363 . S
C3247 H3218 0.950 . S
C3247 C3246 1.397 . S
C3247 C3248 1.334 . S
C3248 H3219 0.950 . S
C3248 C3247 1.334 . S
C3248 C3249 1.287 . S
C3249 C3248 1.287 . S
C3249 C3250 1.524 . S
C3249 H3252 0.999 . S
C3250 H3220 0.950 . S
C3250 C3249 1.524 . S
C3250 C3251 1.415 . S
C3251 H3221 0.950 . S
C3251 C3246 1.363 . S
C3251 C3250 1.415 . S
H3252 C3249 0.999 . S
H3253 C3234 0.913 . S
H3254 C3272 0.951 . S
H3255 C3274 0.951 . S
H3256 C3276 0.950 . S
H3257 C3277 0.950 . S
H3258 C3279 0.950 . S
H3259 C3282 0.950 . S
H3260 C3283 0.950 . S
H3261 C3285 0.950 . S
H3262 C3286 0.950 . S
H3263 C3287 0.951 . S
H3264 C3289 0.951 . S
H3265 C3291 0.950 . S
H3266 C3292 0.950 . S
H3267 C3294 0.950 . S
H3268 C3297 0.950 . S
H3269 C3298 0.950 . S
H3270 C3300 0.950 . S
H3271 C3301 0.950 . S
C3272 H3254 0.951 . S
C3272 C3273 1.366 . S
C3272 C3274 1.388 . S
C3273 C3272 1.366 . S
C3273 C3277 1.385 . S
C3274 H3255 0.951 . S
C3274 C3272 1.388 . S
C3274 C3275 1.366 . S
C3275 C3274 1.366 . S
C3275 C3276 1.414 . S
C3275 C3278 1.499 . S
C3276 H3256 0.950 . S
C3276 C3275 1.414 . S
C3276 C3277 1.374 . S
C3277 H3257 0.950 . S
C3277 C3273 1.385 . S
C3277 C3276 1.374 . S
C3278 C3275 1.499 . S
C3278 C3279 1.373 . S
C3278 C3280 1.389 . S
C3279 H3258 0.950 . S
C3279 C3278 1.373 . S
C3279 C3295 1.377 . S
C3280 C3278 1.389 . S
C3280 C3281 1.524 . S
C3280 C3294 1.377 . S
C3281 C3280 1.524 . S
C3281 C3282 1.397 . S
C3281 C3286 1.363 . S
C3282 H3259 0.950 . S
C3282 C3281 1.397 . S
C3282 C3283 1.334 . S
C3283 H3260 0.950 . S
C3283 C3282 1.334 . S
C3283 C3284 1.287 . S
C3284 C3283 1.287 . S
C3284 C3285 1.524 . S
C3284 H3303 0.913 . S
C3285 H3261 0.950 . S
C3285 C3284 1.524 . S
C3285 C3286 1.415 . S
C3286 H3262 0.950 . S
C3286 C3281 1.363 . S
C3286 C3285 1.415 . S
C3287 H3263 0.951 . S
C3287 C3288 1.366 . S
C3287 C3289 1.388 . S
C3288 C3287 1.366 . S
C3288 C3292 1.385 . S
C3289 H3264 0.951 . S
C3289 C3287 1.388 . S
C3289 C3290 1.366 . S
C3290 C3289 1.366 . S
C3290 C3291 1.414 . S
C3290 C3293 1.499 . S
C3291 H3265 0.950 . S
C3291 C3290 1.414 . S
C3291 C3292 1.374 . S
C3292 H3266 0.950 . S
C3292 C3288 1.385 . S
C3292 C3291 1.374 . S
C3293 C3290 1.499 . S
C3293 C3294 1.373 . S
C3293 C3295 1.389 . S
C3294 H3267 0.950 . S
C3294 C3280 1.377 . S
C3294 C3293 1.373 . S
C3295 C3279 1.377 . S
C3295 C3293 1.389 . S
C3295 C3296 1.524 . S
C3296 C3295 1.524 . S
C3296 C3297 1.397 . S
C3296 C3301 1.363 . S
C3297 H3268 0.950 . S
C3297 C3296 1.397 . S
C3297 C3298 1.334 . S
C3298 H3269 0.950 . S
C3298 C3297 1.334 . S
C3298 C3299 1.287 . S
C3299 C3298 1.287 . S
C3299 C3300 1.524 . S
C3299 H3302 0.999 . S
C3300 H3270 0.950 . S
C3300 C3299 1.524 . S
C3300 C3301 1.415 . S
C3301 H3271 0.950 . S
C3301 C3296 1.363 . S
C3301 C3300 1.415 . S
H3302 C3299 0.999 . S
H3303 C3284 0.913 . S
H3304 C3322 0.951 . S
H3305 C3324 0.951 . S
H3306 C3326 0.950 . S
H3307 C3327 0.950 . S
H3308 C3329 0.950 . S
H3309 C3332 0.950 . S
H3310 C3333 0.950 . S
H3311 C3335 0.950 . S
H3312 C3336 0.950 . S
H3313 C3337 0.951 . S
H3314 C3339 0.951 . S
H3315 C3341 0.950 . S
H3316 C3342 0.950 . S
H3317 C3344 0.950 . S
H3318 C3347 0.950 . S
H3319 C3348 0.950 . S
H3320 C3350 0.950 . S
H3321 C3351 0.950 . S
C3322 H3304 0.951 . S
C3322 C3323 1.366 . S
C3322 C3324 1.388 . S
C3323 C3322 1.366 . S
C3323 C3327 1.385 . S
C3324 H3305 0.951 . S
C3324 C3322 1.388 . S
C3324 C3325 1.366 . S
C3325 C3324 1.366 . S
C3325 C3326 1.414 . S
C3325 C3328 1.499 . S
C3326 H3306 0.950 . S
C3326 C3325 1.414 . S
C3326 C3327 1.374 . S
C3327 H3307 0.950 . S
C3327 C3323 1.385 . S
C3327 C3326 1.374 . S
C3328 C3325 1.499 . S
C3328 C3329 1.373 . S
C3328 C3330 1.389 . S
C3329 H3308 0.950 . S
C3329 C3328 1.373 . S
C3329 C3345 1.377 . S
C3330 C3328 1.389 . S
C3330 C3331 1.524 . S
C3330 C3344 1.377 . S
C3331 C3330 1.524 . S
C3331 C3332 1.397 . S
C3331 C3336 1.363 . S
C3332 H3309 0.950 . S
C3332 C3331 1.397 . S
C3332 C3333 1.334 . S
C3333 H3310 0.950 . S
C3333 C3332 1.334 . S
C3333 C3334 1.287 . S
C3334 C3333 1.287 . S
C3334 C3335 1.524 . S
C3334 H3353 0.913 . S
C3335 H3311 0.950 . S
C3335 C3334 1.524 . S
C3335 C3336 1.415 . S
C3336 H3312 0.950 . S
C3336 C3331 1.363 . S
C3336 C3335 1.415 . S
C3337 H3313 0.951 . S
C3337 C3338 1.366 . S
C3337 C3339 1.388 . S
C3338 C3337 1.366 . S
C3338 C3342 1.385 . S
C3339 H3314 0.951 . S
C3339 C3337 1.388 . S
C3339 C3340 1.366 . S
C3340 C3339 1.366 . S
C3340 C3341 1.414 . S
C3340 C3343 1.499 . S
C3341 H3315 0.950 . S
C3341 C3340 1.414 . S
C3341 C3342 1.374 . S
C3342 H3316 0.950 . S
C3342 C3338 1.385 . S
C3342 C3341 1.374 . S
C3343 C3340 1.499 . S
C3343 C3344 1.373 . S
C3343 C3345 1.389 . S
C3344 H3317 0.950 . S
C3344 C3330 1.377 . S
C3344 C3343 1.373 . S
C3345 C3329 1.377 . S
C3345 C3343 1.389 . S
C3345 C3346 1.524 . S
C3346 C3345 1.524 . S
C3346 C3347 1.397 . S
C3346 C3351 1.363 . S
C3347 H3318 0.950 . S
C3347 C3346 1.397 . S
C3347 C3348 1.334 . S
C3348 H3319 0.950 . S
C3348 C3347 1.334 . S
C3348 C3349 1.287 . S
C3349 C3348 1.287 . S
C3349 C3350 1.524 . S
C3349 H3352 0.999 . S
C3350 H3320 0.950 . S
C3350 C3349 1.524 . S
C3350 C3351 1.415 . S
C3351 H3321 0.950 . S
C3351 C3346 1.363 . S
C3351 C3350 1.415 . S
H3352 C3349 0.999 . S
H3353 C3334 0.913 . S
H3354 C3372 0.951 . S
H3355 C3374 0.951 . S
H3356 C3376 0.950 . S
H3357 C3377 0.950 . S
H3358 C3379 0.950 . S
H3359 C3382 0.950 . S
H3360 C3383 0.950 . S
H3361 C3385 0.950 . S
H3362 C3386 0.950 . S
H3363 C3387 0.951 . S
H3364 C3389 0.951 . S
H3365 C3391 0.950 . S
H3366 C3392 0.950 . S
H3367 C3394 0.950 . S
H3368 C3397 0.950 . S
H3369 C3398 0.950 . S
H3370 C3400 0.950 . S
H3371 C3401 0.950 . S
C3372 H3354 0.951 . S
C3372 C3373 1.366 . S
C3372 C3374 1.388 . S
C3373 C3372 1.366 . S
C3373 C3377 1.385 . S
C3374 H3355 0.951 . S
C3374 C3372 1.388 . S
C3374 C3375 1.366 . S
C3375 C3374 1.366 . S
C3375 C3376 1.414 . S
C3375 C3378 1.499 . S
C3376 H3356 0.950 . S
C3376 C3375 1.414 . S
C3376 C3377 1.374 . S
C3377 H3357 0.950 . S
C3377 C3373 1.385 . S
C3377 C3376 1.374 . S
C3378 C3375 1.499 . S
C3378 C3379 1.373 . S
C3378 C3380 1.389 . S
C3379 H3358 0.950 . S
C3379 C3378 1.373 . S
C3379 C3395 1.377 . S
C3380 C3378 1.389 . S
C3380 C3381 1.524 . S
C3380 C3394 1.377 . S
C3381 C3380 1.524 . S
C3381 C3382 1.397 . S
C3381 C3386 1.363 . S
C3382 H3359 0.950 . S
C3382 C3381 1.397 . S
C3382 C3383 1.334 . S
C3383 H3360 0.950 . S
C3383 C3382 1.334 . S
C3383 C3384 1.287 . S
C3384 C3383 1.287 . S
C3384 C3385 1.524 . S
C3384 H3403 0.913 . S
C3385 H3361 0.950 . S
C3385 C3384 1.524 . S
C3385 C3386 1.415 . S
C3386 H3362 0.950 . S
C3386 C3381 1.363 . S
C3386 C3385 1.415 . S
C3387 H3363 0.951 . S
C3387 C3388 1.366 . S
C3387 C3389 1.388 . S
C3388 C3387 1.366 . S
C3388 C3392 1.385 . S
C3389 H3364 0.951 . S
C3389 C3387 1.388 . S
C3389 C3390 1.366 . S
C3390 C3389 1.366 . S
C3390 C3391 1.414 . S
C3390 C3393 1.499 . S
C3391 H3365 0.950 . S
C3391 C3390 1.414 . S
C3391 C3392 1.374 . S
C3392 H3366 0.950 . S
C3392 C3388 1.385 . S
C3392 C3391 1.374 . S
C3393 C3390 1.499 . S
C3393 C3394 1.373 . S
C3393 C3395 1.389 . S
C3394 H3367 0.950 . S
C3394 C3380 1.377 . S
C3394 C3393 1.373 . S
C3395 C3379 1.377 . S
C3395 C3393 1.389 . S
C3395 C3396 1.524 . S
C3396 C3395 1.524 . S
C3396 C3397 1.397 . S
C3396 C3401 1.363 . S
C3397 H3368 0.950 . S
C3397 C3396 1.397 . S
C3397 C3398 1.334 . S
C3398 H3369 0.950 . S
C3398 C3397 1.334 . S
C3398 C3399 1.287 . S
C3399 C3398 1.287 . S
C3399 C3400 1.524 . S
C3399 H3402 0.999 . S
C3400 H3370 0.950 . S
C3400 C3399 1.524 . S
C3400 C3401 1.415 . S
C3401 H3371 0.950 . S
C3401 C3396 1.363 . S
C3401 C3400 1.415 . S
H3402 C3399 0.999 . S
H3403 C3384 0.913 . S
H3404 C3422 0.951 . S
H3405 C3424 0.951 . S
H3406 C3426 0.950 . S
H3407 C3427 0.950 . S
H3408 C3429 0.950 . S
H3409 C3432 0.950 . S
H3410 C3433 0.950 . S
H3411 C3435 0.950 . S
H3412 C3436 0.950 . S
H3413 C3437 0.951 . S
H3414 C3439 0.951 . S
H3415 C3441 0.950 . S
H3416 C3442 0.950 . S
H3417 C3444 0.950 . S
H3418 C3447 0.950 . S
H3419 C3448 0.950 . S
H3420 C3450 0.950 . S
H3421 C3451 0.950 . S
C3422 H3404 0.951 . S
C3422 C3423 1.366 . S
C3422 C3424 1.388 . S
C3423 C3422 1.366 . S
C3423 C3427 1.385 . S
C3424 H3405 0.951 . S
C3424 C3422 1.388 . S
C3424 C3425 1.366 . S
C3425 C3424 1.366 . S
C3425 C3426 1.414 . S
C3425 C3428 1.499 . S
C3426 H3406 0.950 . S
C3426 C3425 1.414 . S
C3426 C3427 1.374 . S
C3427 H3407 0.950 . S
C3427 C3423 1.385 . S
C3427 C3426 1.374 . S
C3428 C3425 1.499 . S
C3428 C3429 1.373 . S
C3428 C3430 1.389 . S
C3429 H3408 0.950 . S
C3429 C3428 1.373 . S
C3429 C3445 1.377 . S
C3430 C3428 1.389 . S
C3430 C3431 1.524 . S
C3430 C3444 1.377 . S
C3431 C3430 1.524 . S
C3431 C3432 1.397 . S
C3431 C3436 1.363 . S
C3432 H3409 0.950 . S
C3432 C3431 1.397 . S
C3432 C3433 1.334 . S
C3433 H3410 0.950 . S
C3433 C3432 1.334 . S
C3433 C3434 1.287 . S
C3434 C3433 1.287 . S
C3434 C3435 1.524 . S
C3434 H3453 0.913 . S
C3435 H3411 0.950 . S
C3435 C3434 1.524 . S
C3435 C3436 1.415 . S
C3436 H3412 0.950 . S
C3436 C3431 1.363 . S
C3436 C3435 1.415 . S
C3437 H3413 0.951 . S
C3437 C3438 1.366 . S
C3437 C3439 1.388 . S
C3438 C3437 1.366 . S
C3438 C3442 1.385 . S
C3439 H3414 0.951 . S
C3439 C3437 1.388 . S
C3439 C3440 1.366 . S
C3440 C3439 1.366 . S
C3440 C3441 1.414 . S
C3440 C3443 1.499 . S
C3441 H3415 0.950 . S
C3441 C3440 1.414 . S
C3441 C3442 1.374 . S
C3442 H3416 0.950 . S
C3442 C3438 1.385 . S
C3442 C3441 1.374 . S
C3443 C3440 1.499 . S
C3443 C3444 1.373 . S
C3443 C3445 1.389 . S
C3444 H3417 0.950 . S
C3444 C3430 1.377 . S
C3444 C3443 1.373 . S
C3445 C3429 1.377 . S
C3445 C3443 1.389 . S
C3445 C3446 1.524 . S
C3446 C3445 1.524 . S
C3446 C3447 1.397 . S
C3446 C3451 1.363 . S
C3447 H3418 0.950 . S
C3447 C3446 1.397 . S
C3447 C3448 1.334 . S
C3448 H3419 0.950 . S
C3448 C3447 1.334 . S
C3448 C3449 1.287 . S
C3449 C3448 1.287 . S
C3449 C3450 1.524 . S
C3449 H3452 0.999 . S
C3450 H3420 0.950 . S
C3450 C3449 1.524 . S
C3450 C3451 1.415 . S
C3451 H3421 0.950 . S
C3451 C3446 1.363 . S
C3451 C3450 1.415 . S
H3452 C3449 0.999 . S
H3453 C3434 0.913 . S
H3454 C3472 0.951 . S
H3455 C3474 0.951 . S
H3456 C3476 0.950 . S
H3457 C3477 0.950 . S
H3458 C3479 0.950 . S
H3459 C3482 0.950 . S
H3460 C3483 0.950 . S
H3461 C3485 0.950 . S
H3462 C3486 0.950 . S
H3463 C3487 0.951 . S
H3464 C3489 0.951 . S
H3465 C3491 0.950 . S
H3466 C3492 0.950 . S
H3467 C3494 0.950 . S
H3468 C3497 0.950 . S
H3469 C3498 0.950 . S
H3470 C3500 0.950 . S
H3471 C3501 0.950 . S
C3472 H3454 0.951 . S
C3472 C3473 1.366 . S
C3472 C3474 1.388 . S
C3473 C3472 1.366 . S
C3473 C3477 1.385 . S
C3474 H3455 0.951 . S
C3474 C3472 1.388 . S
C3474 C3475 1.366 . S
C3475 C3474 1.366 . S
C3475 C3476 1.414 . S
C3475 C3478 1.499 . S
C3476 H3456 0.950 . S
C3476 C3475 1.414 . S
C3476 C3477 1.374 . S
C3477 H3457 0.950 . S
C3477 C3473 1.385 . S
C3477 C3476 1.374 . S
C3478 C3475 1.499 . S
C3478 C3479 1.373 . S
C3478 C3480 1.389 . S
C3479 H3458 0.950 . S
C3479 C3478 1.373 . S
C3479 C3495 1.377 . S
C3480 C3478 1.389 . S
C3480 C3481 1.524 . S
C3480 C3494 1.377 . S
C3481 C3480 1.524 . S
C3481 C3482 1.397 . S
C3481 C3486 1.363 . S
C3482 H3459 0.950 . S
C3482 C3481 1.397 . S
C3482 C3483 1.334 . S
C3483 H3460 0.950 . S
C3483 C3482 1.334 . S
C3483 C3484 1.287 . S
C3484 C3483 1.287 . S
C3484 C3485 1.524 . S
C3484 H3503 0.913 . S
C3485 H3461 0.950 . S
C3485 C3484 1.524 . S
C3485 C3486 1.415 . S
C3486 H3462 0.950 . S
C3486 C3481 1.363 . S
C3486 C3485 1.415 . S
C3487 H3463 0.951 . S
C3487 C3488 1.366 . S
C3487 C3489 1.388 . S
C3488 C3487 1.366 . S
C3488 C3492 1.385 . S
C3489 H3464 0.951 . S
C3489 C3487 1.388 . S
C3489 C3490 1.366 . S
C3490 C3489 1.366 . S
C3490 C3491 1.414 . S
C3490 C3493 1.499 . S
C3491 H3465 0.950 . S
C3491 C3490 1.414 . S
C3491 C3492 1.374 . S
C3492 H3466 0.950 . S
C3492 C3488 1.385 . S
C3492 C3491 1.374 . S
C3493 C3490 1.499 . S
C3493 C3494 1.373 . S
C3493 C3495 1.389 . S
C3494 H3467 0.950 . S
C3494 C3480 1.377 . S
C3494 C3493 1.373 . S
C3495 C3479 1.377 . S
C3495 C3493 1.389 . S
C3495 C3496 1.524 . S
C3496 C3495 1.524 . S
C3496 C3497 1.397 . S
C3496 C3501 1.363 . S
C3497 H3468 0.950 . S
C3497 C3496 1.397 . S
C3497 C3498 1.334 . S
C3498 H3469 0.950 . S
C3498 C3497 1.334 . S
C3498 C3499 1.287 . S
C3499 C3498 1.287 . S
C3499 C3500 1.524 . S
C3499 H3502 0.999 . S
C3500 H3470 0.950 . S
C3500 C3499 1.524 . S
C3500 C3501 1.415 . S
C3501 H3471 0.950 . S
C3501 C3496 1.363 . S
C3501 C3500 1.415 . S
H3502 C3499 0.999 . S
H3503 C3484 0.913 . S
H3504 C3522 0.951 . S
H3505 C3524 0.951 . S
H3506 C3526 0.950 . S
H3507 C3527 0.950 . S
H3508 C3529 0.950 . S
H3509 C3532 0.950 . S
H3510 C3533 0.950 . S
H3511 C3535 0.950 . S
H3512 C3536 0.950 . S
H3513 C3537 0.951 . S
H3514 C3539 0.951 . S
H3515 C3541 0.950 . S
H3516 C3542 0.950 . S
H3517 C3544 0.950 . S
H3518 C3547 0.950 . S
H3519 C3548 0.950 . S
H3520 C3550 0.950 . S
H3521 C3551 0.950 . S
C3522 H3504 0.951 . S
C3522 C3523 1.366 . S
C3522 C3524 1.388 . S
C3523 C3522 1.366 . S
C3523 C3527 1.385 . S
C3524 H3505 0.951 . S
C3524 C3522 1.388 . S
C3524 C3525 1.366 . S
C3525 C3524 1.366 . S
C3525 C3526 1.414 . S
C3525 C3528 1.499 . S
C3526 H3506 0.950 . S
C3526 C3525 1.414 . S
C3526 C3527 1.374 . S
C3527 H3507 0.950 . S
C3527 C3523 1.385 . S
C3527 C3526 1.374 . S
C3528 C3525 1.499 . S
C3528 C3529 1.373 . S
C3528 C3530 1.389 . S
C3529 H3508 0.950 . S
C3529 C3528 1.373 . S
C3529 C3545 1.377 . S
C3530 C3528 1.389 . S
C3530 C3531 1.524 . S
C3530 C3544 1.377 . S
C3531 C3530 1.524 . S
C3531 C3532 1.397 . S
C3531 C3536 1.363 . S
C3532 H3509 0.950 . S
C3532 C3531 1.397 . S
C3532 C3533 1.334 . S
C3533 H3510 0.950 . S
C3533 C3532 1.334 . S
C3533 C3534 1.287 . S
C3534 C3533 1.287 . S
C3534 C3535 1.524 . S
C3534 H3553 0.913 . S
C3535 H3511 0.950 . S
C3535 C3534 1.524 . S
C3535 C3536 1.415 . S
C3536 H3512 0.950 . S
C3536 C3531 1.363 . S
C3536 C3535 1.415 . S
C3537 H3513 0.951 . S
C3537 C3538 1.366 . S
C3537 C3539 1.388 . S
C3538 C3537 1.366 . S
C3538 C3542 1.385 . S
C3539 H3514 0.951 . S
C3539 C3537 1.388 . S
C3539 C3540 1.366 . S
C3540 C3539 1.366 . S
C3540 C3541 1.414 . S
C3540 C3543 1.499 . S
C3541 H3515 0.950 . S
C3541 C3540 1.414 . S
C3541 C3542 1.374 . S
C3542 H3516 0.950 . S
C3542 C3538 1.385 . S
C3542 C3541 1.374 . S
C3543 C3540 1.499 . S
C3543 C3544 1.373 . S
C3543 C3545 1.389 . S
C3544 H3517 0.950 . S
C3544 C3530 1.377 . S
C3544 C3543 1.373 . S
C3545 C3529 1.377 . S
C3545 C3543 1.389 . S
C3545 C3546 1.524 . S
C3546 C3545 1.524 . S
C3546 C3547 1.397 . S
C3546 C3551 1.363 . S
C3547 H3518 0.950 . S
C3547 C3546 1.397 . S
C3547 C3548 1.334 . S
C3548 H3519 0.950 . S
C3548 C3547 1.334 . S
C3548 C3549 1.287 . S
C3549 C3548 1.287 . S
C3549 C3550 1.524 . S
C3549 H3552 0.999 . S
C3550 H3520 0.950 . S
C3550 C3549 1.524 . S
C3550 C3551 1.415 . S
C3551 H3521 0.950 . S
C3551 C3546 1.363 . S
C3551 C3550 1.415 . S
H3552 C3549 0.999 . S
H3553 C3534 0.913 . S
H3554 C3572 0.951 . S
H3555 C3574 0.951 . S
H3556 C3576 0.950 . S
H3557 C3577 0.950 . S
H3558 C3579 0.950 . S
H3559 C3582 0.950 . S
H3560 C3583 0.950 . S
H3561 C3585 0.950 . S
H3562 C3586 0.950 . S
H3563 C3587 0.951 . S
H3564 C3589 0.951 . S
H3565 C3591 0.950 . S
H3566 C3592 0.950 . S
H3567 C3594 0.950 . S
H3568 C3597 0.950 . S
H3569 C3598 0.950 . S
H3570 C3600 0.950 . S
H3571 C3601 0.950 . S
C3572 H3554 0.951 . S
C3572 C3573 1.366 . S
C3572 C3574 1.388 . S
C3573 C3572 1.366 . S
C3573 C3577 1.385 . S
C3574 H3555 0.951 . S
C3574 C3572 1.388 . S
C3574 C3575 1.366 . S
C3575 C3574 1.366 . S
C3575 C3576 1.414 . S
C3575 C3578 1.499 . S
C3576 H3556 0.950 . S
C3576 C3575 1.414 . S
C3576 C3577 1.374 . S
C3577 H3557 0.950 . S
C3577 C3573 1.385 . S
C3577 C3576 1.374 . S
C3578 C3575 1.499 . S
C3578 C3579 1.373 . S
C3578 C3580 1.389 . S
C3579 H3558 0.950 . S
C3579 C3578 1.373 . S
C3579 C3595 1.377 . S
C3580 C3578 1.389 . S
C3580 C3581 1.524 . S
C3580 C3594 1.377 . S
C3581 C3580 1.524 . S
C3581 C3582 1.397 . S
C3581 C3586 1.363 . S
C3582 H3559 0.950 . S
C3582 C3581 1.397 . S
C3582 C3583 1.334 . S
C3583 H3560 0.950 . S
C3583 C3582 1.334 . S
C3583 C3584 1.287 . S
C3584 C3583 1.287 . S
C3584 C3585 1.524 . S
C3584 H3603 0.913 . S
C3585 H3561 0.950 . S
C3585 C3584 1.524 . S
C3585 C3586 1.415 . S
C3586 H3562 0.950 . S
C3586 C3581 1.363 . S
C3586 C3585 1.415 . S
C3587 H3563 0.951 . S
C3587 C3588 1.366 . S
C3587 C3589 1.388 . S
C3588 C3587 1.366 . S
C3588 C3592 1.385 . S
C3589 H3564 0.951 . S
C3589 C3587 1.388 . S
C3589 C3590 1.366 . S
C3590 C3589 1.366 . S
C3590 C3591 1.414 . S
C3590 C3593 1.499 . S
C3591 H3565 0.950 . S
C3591 C3590 1.414 . S
C3591 C3592 1.374 . S
C3592 H3566 0.950 . S
C3592 C3588 1.385 . S
C3592 C3591 1.374 . S
C3593 C3590 1.499 . S
C3593 C3594 1.373 . S
C3593 C3595 1.389 . S
C3594 H3567 0.950 . S
C3594 C3580 1.377 . S
C3594 C3593 1.373 . S
C3595 C3579 1.377 . S
C3595 C3593 1.389 . S
C3595 C3596 1.524 . S
C3596 C3595 1.524 . S
C3596 C3597 1.397 . S
C3596 C3601 1.363 . S
C3597 H3568 0.950 . S
C3597 C3596 1.397 . S
C3597 C3598 1.334 . S
C3598 H3569 0.950 . S
C3598 C3597 1.334 . S
C3598 C3599 1.287 . S
C3599 C3598 1.287 . S
C3599 C3600 1.524 . S
C3599 H3602 0.999 . S
C3600 H3570 0.950 . S
C3600 C3599 1.524 . S
C3600 C3601 1.415 . S
C3601 H3571 0.950 . S
C3601 C3596 1.363 . S
C3601 C3600 1.415 . S
H3602 C3599 0.999 . S
H3603 C3584 0.913 . S
H3604 C3622 0.951 . S
H3605 C3624 0.951 . S
H3606 C3626 0.950 . S
H3607 C3627 0.950 . S
H3608 C3629 0.950 . S
H3609 C3632 0.950 . S
H3610 C3633 0.950 . S
H3611 C3635 0.950 . S
H3612 C3636 0.950 . S
H3613 C3637 0.951 . S
H3614 C3639 0.951 . S
H3615 C3641 0.950 . S
H3616 C3642 0.950 . S
H3617 C3644 0.950 . S
H3618 C3647 0.950 . S
H3619 C3648 0.950 . S
H3620 C3650 0.950 . S
H3621 C3651 0.950 . S
C3622 H3604 0.951 . S
C3622 C3623 1.366 . S
C3622 C3624 1.388 . S
C3623 C3622 1.366 . S
C3623 C3627 1.385 . S
C3624 H3605 0.951 . S
C3624 C3622 1.388 . S
C3624 C3625 1.366 . S
C3625 C3624 1.366 . S
C3625 C3626 1.414 . S
C3625 C3628 1.499 . S
C3626 H3606 0.950 . S
C3626 C3625 1.414 . S
C3626 C3627 1.374 . S
C3627 H3607 0.950 . S
C3627 C3623 1.385 . S
C3627 C3626 1.374 . S
C3628 C3625 1.499 . S
C3628 C3629 1.373 . S
C3628 C3630 1.389 . S
C3629 H3608 0.950 . S
C3629 C3628 1.373 . S
C3629 C3645 1.377 . S
C3630 C3628 1.389 . S
C3630 C3631 1.524 . S
C3630 C3644 1.377 . S
C3631 C3630 1.524 . S
C3631 C3632 1.397 . S
C3631 C3636 1.363 . S
C3632 H3609 0.950 . S
C3632 C3631 1.397 . S
C3632 C3633 1.334 . S
C3633 H3610 0.950 . S
C3633 C3632 1.334 . S
C3633 C3634 1.287 . S
C3634 C3633 1.287 . S
C3634 C3635 1.524 . S
C3634 H3653 0.913 . S
C3635 H3611 0.950 . S
C3635 C3634 1.524 . S
C3635 C3636 1.415 . S
C3636 H3612 0.950 . S
C3636 C3631 1.363 . S
C3636 C3635 1.415 . S
C3637 H3613 0.951 . S
C3637 C3638 1.366 . S
C3637 C3639 1.388 . S
C3638 C3637 1.366 . S
C3638 C3642 1.385 . S
C3639 H3614 0.951 . S
C3639 C3637 1.388 . S
C3639 C3640 1.366 . S
C3640 C3639 1.366 . S
C3640 C3641 1.414 . S
C3640 C3643 1.499 . S
C3641 H3615 0.950 . S
C3641 C3640 1.414 . S
C3641 C3642 1.374 . S
C3642 H3616 0.950 . S
C3642 C3638 1.385 . S
C3642 C3641 1.374 . S
C3643 C3640 1.499 . S
C3643 C3644 1.373 . S
C3643 C3645 1.389 . S
C3644 H3617 0.950 . S
C3644 C3630 1.377 . S
C3644 C3643 1.373 . S
C3645 C3629 1.377 . S
C3645 C3643 1.389 . S
C3645 C3646 1.524 . S
C3646 C3645 1.524 . S
C3646 C3647 1.397 . S
C3646 C3651 1.363 . S
C3647 H3618 0.950 . S
C3647 C3646 1.397 . S
C3647 C3648 1.334 . S
C3648 H3619 0.950 . S
C3648 C3647 1.334 . S
C3648 C3649 1.287 . S
C3649 C3648 1.287 . S
C3649 C3650 1.524 . S
C3649 H3652 0.999 . S
C3650 H3620 0.950 . S
C3650 C3649 1.524 . S
C3650 C3651 1.415 . S
C3651 H3621 0.950 . S
C3651 C3646 1.363 . S
C3651 C3650 1.415 . S
H3652 C3649 0.999 . S
H3653 C3634 0.913 . S
C973 C151 1.044 . S
C988 C265 1.018 . S
C1023 C159 1.730 . S
C1038 C349 1.841 . S
C1073 C137 1.291 . S
C1088 C429 1.435 . S
C1123 C126 1.250 . S
C1138 C345 1.401 1_556 S
C1188 C433 1.788 . S
C1173 C104 1.684 . S
C1223 C118 0.997 . S
C1238 C261 0.984 1_556 S
C1288 C254 1.330 . S
C1273 C129 1.385 . S
C1338 C338 1.559 . S
C1323 C107 1.630 . S
C1373 C115 1.249 . S
C1388 C440 1.432 . S
C1423 C148 1.231 . S
C1438 C356 1.396 . S
C1473 C162 1.575 . S
C1488 C422 1.500 . S
C1538 C272 1.322 . S
C1523 C140 1.343 . S
C1588 C517 1.019 . S
C1573 C19 1.043 . S
C1623 C27 1.729 . S
C1638 C601 1.842 . S
C1673 C5 1.291 . S
C1688 C681 1.434 . S
C1723 C192 1.248 . S
C1738 C597 1.402 . S
C1773 C170 1.684 . S
C1788 C685 1.787 . S
C1823 C184 0.996 . S
C1838 C513 0.996 . S
C1873 C195 1.385 . S
C1888 C506 1.332 . S
C1923 C173 1.630 . S
C1938 C590 1.559 . S
C1988 C692 1.433 . S
C1973 C181 1.250 . S
C2023 C16 1.232 . S
C2038 C608 1.397 . S
C2088 C674 1.500 . S
C2073 C30 1.575 . S
C2123 C8 1.343 . S
C2138 C524 1.321 . S
C2188 C769 1.019 . S
C2173 C85 1.043 . S
C2223 C93 1.729 . S
C2238 C853 1.842 . S
C2288 C933 1.434 . S
C2273 C71 1.293 . S
C2338 C849 1.402 . S
C2323 C60 1.249 . S
C2388 C937 1.787 . S
C2373 C38 1.684 . S
C2423 C52 0.997 . S
C2438 C765 0.997 . S
C2473 C63 1.385 . S
C2488 C758 1.331 . S
C2523 C41 1.630 . S
C2538 C842 1.559 . S
C2588 C944 1.432 . S
C2573 C49 1.249 . S
C2623 C82 1.232 . S
C2638 C860 1.397 . S
C2673 C96 1.575 . S
C2688 C926 1.501 . S
C2723 C74 1.343 . S
C2738 C776 1.321 . S
C2773 C172 1.627 . S
C2788 C268 1.518 . S
C2838 C352 1.182 . S
C2823 C183 1.269 . S
C2873 C194 1.467 . S
C2888 C424 1.342 . S
C2923 C73 1.513 . S
C2938 C340 1.375 . S
C2973 C84 1.227 . S
C2988 C436 1.145 . S
C3038 C256 1.499 . S
C3023 C95 1.617 . S
C3073 C40 1.628 . S
C3088 C520 1.518 . S
C3123 C51 1.269 . S
C3138 C604 1.181 . S
C3173 C62 1.467 . S
C3188 C676 1.341 . S
C3223 C139 1.514 . S
C3238 C592 1.375 . S
C3288 C688 1.146 . S
C3273 C150 1.229 . S
C3323 C161 1.617 . S
C3338 C508 1.498 . S
C3373 C106 1.627 . S
C3388 C772 1.519 . S
C3423 C117 1.269 . S
C3438 C856 1.181 . S
C3488 C928 1.342 . S
C3473 C128 1.467 . S
C3523 C7 1.514 . S
C3538 C844 1.375 . S
C3573 C18 1.227 . S
C3588 C940 1.146 . S
C3623 C29 1.617 . S
C3638 C760 1.498 . S
