# Generated by pormake.
# Topology pth, (4,4)-cn, num edge types: 1
# Building blocks:
#     Node 0, Type 0, BuildingBlock: UXUYUI_clean_sbu_0, # of connection points: 4
#     Node 1, Type 0, BuildingBlock: UXUYUI_clean_sbu_0, # of connection points: 4
#     Node 2, Type 0, BuildingBlock: UXUYUI_clean_sbu_0, # of connection points: 4
#     Node 3, Type 1, BuildingBlock: NAWXER_clean_sbu_0, # of connection points: 4
#     Node 4, Type 1, BuildingBlock: NAWXER_clean_sbu_0, # of connection points: 4
#     Node 5, Type 1, BuildingBlock: NAWXER_clean_sbu_0, # of connection points: 4
#     Edge 6, Type (0, 1), BuildingBlock: MIFKUJ_clean_linker_0, # of connection points: 2
#     Edge 7, Type (0, 1), BuildingBlock: MIFKUJ_clean_linker_0, # of connection points: 2
#     Edge 8, Type (0, 1), BuildingBlock: MIFKUJ_clean_linker_0, # of connection points: 2
#     Edge 9, Type (0, 1), BuildingBlock: MIFKUJ_clean_linker_0, # of connection points: 2
#     Edge 10, Type (0, 1), BuildingBlock: MIFKUJ_clean_linker_0, # of connection points: 2
#     Edge 11, Type (0, 1), BuildingBlock: MIFKUJ_clean_linker_0, # of connection points: 2
#     Edge 12, Type (0, 1), BuildingBlock: MIFKUJ_clean_linker_0, # of connection points: 2
#     Edge 13, Type (0, 1), BuildingBlock: MIFKUJ_clean_linker_0, # of connection points: 2
#     Edge 14, Type (0, 1), BuildingBlock: MIFKUJ_clean_linker_0, # of connection points: 2
#     Edge 15, Type (0, 1), BuildingBlock: MIFKUJ_clean_linker_0, # of connection points: 2
#     Edge 16, Type (0, 1), BuildingBlock: MIFKUJ_clean_linker_0, # of connection points: 2
#     Edge 17, Type (0, 1), BuildingBlock: MIFKUJ_clean_linker_0, # of connection points: 2
# Relax obj value: 0.086
# Max RMSD: 0.218
# Mean RMSD: 0.120
data_MOF--net-pth--node1-UXUYUI_clean_sbu_0--node2-NAWXER_clean_sbu_0--edge1-MIFKUJ_clean_linker_0
_symmetry_space_group_name_H-M    P1
_symmetry_Int_Tables_number       1
_symmetry_cell_setting            triclinic
loop_
_symmetry_equiv_pos_as_xyz
'x, y, z'
_cell_length_a     35.095133
_cell_length_b     35.069615
_cell_length_c     87.762187
_cell_angle_alpha  89.978093
_cell_angle_beta   90.002002
_cell_angle_gamma 119.9996
loop_
_atom_site_label
_atom_site_type_symbol
_atom_site_fract_x
_atom_site_fract_y
_atom_site_fract_z
_atom_type_partial_charge
Li0 Li 0.04608 0.03025 0.07026 0.0
Li1 Li 0.99881 0.03195 0.09032 0.0
Li2 Li 0.01283 0.97033 0.08963 0.0
Li3 Li 0.96399 0.97446 0.07038 0.0
C4 C 0.09773 0.04277 0.09629 0.0
N5 N 0.18192 0.06064 0.10313 0.0
C6 C 0.12369 0.07647 0.10649 0.0
C7 C 0.11454 0.01813 0.08958 0.0
C8 C 0.16619 0.08502 0.1098 0.0
C9 C 0.15717 0.02765 0.09318 0.0
C10 C 0.99267 0.07546 0.06361 0.0
C11 C 0.95174 0.10866 0.05388 0.0
N12 N 0.98886 0.14886 0.0544 0.0
C13 C 0.03053 0.11701 0.06384 0.0
C14 C 0.95305 0.07113 0.0584 0.0
C15 C 0.02789 0.15374 0.05922 0.0
C16 C 0.08039 0.06348 0.04171 0.0
N17 N 0.09213 0.06709 0.05663 0.0
C18 C 0.16088 0.13189 0.05136 0.0
C19 C 0.13171 0.10009 0.06157 0.0
C20 C 0.14879 0.13011 0.03601 0.0
C21 C 0.10833 0.09482 0.03115 0.0
H22 H 0.04829 0.03744 0.03818 0.0
H23 H 0.13978 0.10332 0.07354 0.0
C24 C 0.96524 0.06594 0.11403 0.0
N25 N 0.99698 0.07461 0.10348 0.0
C26 C 0.96965 0.09894 0.12407 0.0
C27 C 0.03922 0.14896 0.11226 0.0
C28 C 0.03361 0.11505 0.10256 0.0
C29 C 0.00725 0.14114 0.12334 0.0
H30 H 0.93718 0.03324 0.11506 0.0
H31 H 0.0592 0.12067 0.09452 0.0
C32 C 0.01996 0.93366 0.06037 0.0
N33 N 0.02923 0.8685 0.04611 0.0
C34 C 0.98393 0.89108 0.05905 0.0
C35 C 0.06051 0.94328 0.05417 0.0
C36 C 0.98933 0.85855 0.05187 0.0
C37 C 0.0646 0.90983 0.04709 0.0
C38 C 0.9146 0.95841 0.09748 0.0
C39 C 0.89288 0.92779 0.10909 0.0
C40 C 0.89397 0.97895 0.0904 0.0
C41 C 0.85078 0.91837 0.11348 0.0
C42 C 0.85187 0.96867 0.09511 0.0
N43 N 0.83132 0.93885 0.10646 0.0
C44 C 0.04449 0.93527 0.1133 0.0
C45 C 0.98206 0.8848 0.09911 0.0
C46 C 0.04042 0.90131 0.12278 0.0
N47 N 0.01555 0.92639 0.10169 0.0
C48 C 0.9768 0.84997 0.10825 0.0
C49 C 0.00584 0.858 0.12042 0.0
H50 H 0.06971 0.96878 0.11562 0.0
H51 H 0.95836 0.87891 0.09027 0.0
C52 C 0.92675 0.94436 0.04182 0.0
N53 N 0.91732 0.93793 0.05695 0.0
C54 C 0.89884 0.91321 0.03121 0.0
C55 C 0.85093 0.87043 0.05188 0.0
C56 C 0.88001 0.90217 0.06211 0.0
C57 C 0.86085 0.87516 0.03624 0.0
H58 H 0.95724 0.97253 0.0381 0.0
H59 H 0.87405 0.8968 0.07421 0.0
O60 O 0.05632 0.03451 0.09281 0.0
O61 O 0.99463 0.03893 0.06787 0.0
O62 O 0.01524 0.96627 0.06708 0.0
O63 O 0.95551 0.9674 0.09293 0.0
H64 H 0.11115 0.09592 0.11176 0.0
H65 H 0.09473 0.99169 0.08181 0.0
H66 H 0.18669 0.11105 0.11765 0.0
H67 H 0.17056 0.00876 0.08809 0.0
H68 H 0.92125 0.10581 0.04989 0.0
H69 H 0.06167 0.12094 0.06752 0.0
H70 H 0.92366 0.03909 0.05772 0.0
H71 H 0.0569 0.18612 0.05943 0.0
H72 H 0.19147 0.15893 0.05561 0.0
H73 H 0.09791 0.09213 0.01939 0.0
H74 H 0.94454 0.09102 0.13262 0.0
H75 H 0.06855 0.18092 0.11111 0.0
H76 H 0.95208 0.88317 0.06348 0.0
H77 H 0.0885 0.97632 0.05475 0.0
H78 H 0.96175 0.82542 0.05084 0.0
H79 H 0.09584 0.91678 0.04231 0.0
H80 H 0.90838 0.91142 0.11461 0.0
H81 H 0.91038 0.00265 0.08143 0.0
H82 H 0.83355 0.89475 0.12244 0.0
H83 H 0.83554 0.98441 0.08975 0.0
H84 H 0.06304 0.90921 0.13221 0.0
H85 H 0.94983 0.81716 0.10592 0.0
H86 H 0.90755 0.91818 0.01924 0.0
H87 H 0.82236 0.84125 0.05624 0.0
Li88 Li 0.99135 0.9634 0.40499 0.0
Li89 Li 0.04201 0.01173 0.42463 0.0
Li90 Li 0.96691 0.99541 0.42385 0.0
Li91 Li 0.01384 0.04068 0.40386 0.0
C92 C 0.95344 0.92139 0.43482 0.0
N93 N 0.88063 0.85874 0.45049 0.0
C94 C 0.95461 0.91876 0.45068 0.0
C95 C 0.91527 0.89214 0.42691 0.0
C96 C 0.91744 0.88686 0.4584 0.0
C97 C 0.87881 0.86069 0.43504 0.0
C98 C 0.07095 0.99857 0.39227 0.0
C99 C 0.09364 0.99242 0.36688 0.0
N100 N 0.10481 0.96273 0.37203 0.0
C101 C 0.08309 0.96833 0.39734 0.0
C102 C 0.07657 0.01099 0.37694 0.0
C103 C 0.09998 0.95046 0.38692 0.0
C104 C 0.97413 0.91532 0.37744 0.0
N105 N 0.9806 0.91421 0.39267 0.0
C106 C 0.98894 0.85105 0.38976 0.0
C107 C 0.98672 0.88228 0.399 0.0
C108 C 0.98447 0.85255 0.37391 0.0
C109 C 0.97573 0.88445 0.36779 0.0
H110 H 0.97023 0.94167 0.37272 0.0
H111 H 0.99254 0.8827 0.41111 0.0
C112 C 0.07773 0.01618 0.45328 0.0
N113 N 0.08777 0.01995 0.4382 0.0
C114 C 0.10555 0.01315 0.46397 0.0
C115 C 0.15501 0.02087 0.44351 0.0
C116 C 0.1262 0.02383 0.4332 0.0
C117 C 0.14413 0.01407 0.45909 0.0
H118 H 0.04719 0.01382 0.45692 0.0
H119 H 0.13367 0.02737 0.42117 0.0
C120 C 0.92506 0.00408 0.39835 0.0
N121 N 0.86887 0.03517 0.39104 0.0
C122 C 0.92824 0.04057 0.40599 0.0
C123 C 0.89333 0.98347 0.38699 0.0
C124 C 0.89953 0.05576 0.40213 0.0
C125 C 0.8652 0.99965 0.38347 0.0
C126 C 0.05391 0.09513 0.42938 0.0
C127 C 0.04796 0.1227 0.43939 0.0
C128 C 0.09493 0.11007 0.4225 0.0
C129 C 0.08312 0.16487 0.44233 0.0
C130 C 0.12927 0.15245 0.42574 0.0
N131 N 0.1227 0.17874 0.4355 0.0
C132 C 0.93605 0.01275 0.45043 0.0
C133 C 0.87792 0.96678 0.43374 0.0
C134 C 0.90667 0.0159 0.46031 0.0
N135 N 0.92147 0.98934 0.4373 0.0
C136 C 0.84723 0.9689 0.44336 0.0
C137 C 0.86171 0.99462 0.45667 0.0
H138 H 0.97083 0.02998 0.45303 0.0
H139 H 0.8672 0.9484 0.4232 0.0
C140 C 0.01016 0.07361 0.3753 0.0
N141 N 0.02158 0.08647 0.39 0.0
C142 C 0.00508 0.101 0.36494 0.0
C143 C 0.02451 0.15494 0.38491 0.0
C144 C 0.02924 0.12652 0.39489 0.0
C145 C 0.01127 0.14191 0.36978 0.0
H146 H 0.00252 0.04095 0.37183 0.0
H147 H 0.03633 0.13554 0.40672 0.0
O148 O 0.98892 0.95323 0.42706 0.0
O149 O 0.05312 0.01545 0.40221 0.0
O150 O 0.95331 0.98896 0.40165 0.0
O151 O 0.01962 0.05375 0.42649 0.0
H152 H 0.98378 0.94119 0.45699 0.0
H153 H 0.91361 0.89411 0.41465 0.0
H154 H 0.91783 0.88452 0.47068 0.0
H155 H 0.84899 0.83798 0.42908 0.0
H156 H 0.09795 0.00157 0.35496 0.0
H157 H 0.07844 0.9579 0.40913 0.0
H158 H 0.06781 0.03465 0.37284 0.0
H159 H 0.10893 0.92659 0.39066 0.0
H160 H 0.99532 0.82673 0.39493 0.0
H161 H 0.9725 0.88695 0.35561 0.0
H162 H 0.09635 0.00902 0.47589 0.0
H163 H 0.18433 0.0217 0.4392 0.0
H164 H 0.95269 0.05716 0.41476 0.0
H165 H 0.89061 0.95533 0.38093 0.0
H166 H 0.90168 0.08398 0.40793 0.0
H167 H 0.84052 0.98403 0.37469 0.0
H168 H 0.01641 0.11167 0.44479 0.0
H169 H 0.10038 0.08937 0.41475 0.0
H170 H 0.07893 0.18657 0.45003 0.0
H171 H 0.16116 0.16444 0.4205 0.0
H172 H 0.91911 0.03531 0.47061 0.0
H173 H 0.81286 0.95207 0.44011 0.0
H174 H 0.99517 0.08966 0.35336 0.0
H175 H 0.02881 0.18575 0.38926 0.0
Li176 Li 0.02967 0.99066 0.73619 0.0
Li177 Li 0.03549 0.04423 0.75568 0.0
Li178 Li 0.97206 0.96807 0.75587 0.0
Li179 Li 0.97507 0.01861 0.73637 0.0
C180 C 0.05358 0.96374 0.76341 0.0
N181 N 0.09143 0.91465 0.77235 0.0
C182 C 0.09126 0.98268 0.77253 0.0
C183 C 0.03518 0.91991 0.75881 0.0
C184 C 0.1099 0.9573 0.77694 0.0
C185 C 0.05476 0.8956 0.76346 0.0
C186 C 0.06921 0.08807 0.72569 0.0
C187 C 0.08786 0.15559 0.71252 0.0
N188 N 0.12896 0.1623 0.70988 0.0
C189 C 0.11147 0.09539 0.7227 0.0
C190 C 0.05712 0.11815 0.72042 0.0
C191 C 0.14126 0.13321 0.71475 0.0
C192 C 0.05595 0.97684 0.70766 0.0
N193 N 0.06575 0.97973 0.72275 0.0
C194 C 0.13449 0.98399 0.71725 0.0
C195 C 0.10389 0.98275 0.7277 0.0
C196 C 0.12613 0.98293 0.70155 0.0
C197 C 0.08583 0.9784 0.6968 0.0
H198 H 0.02586 0.97559 0.70405 0.0
H199 H 0.11193 0.98691 0.73967 0.0
C200 C 0.07006 0.10439 0.7809 0.0
N201 N 0.0797 0.09025 0.76781 0.0
C202 C 0.1039 0.13397 0.79046 0.0
C203 C 0.15679 0.13377 0.77288 0.0
C204 C 0.12202 0.10429 0.7637 0.0
C205 C 0.148 0.14861 0.78658 0.0
H206 H 0.03615 0.09156 0.78423 0.0
H207 H 0.12875 0.09124 0.75357 0.0
C208 C 0.92996 0.91735 0.73071 0.0
N209 N 0.8587 0.83477 0.72523 0.0
C210 C 0.88751 0.91135 0.73011 0.0
C211 C 0.93629 0.88156 0.72821 0.0
C212 C 0.85188 0.86929 0.72742 0.0
C213 C 0.89981 0.84001 0.72554 0.0
C214 C 0.96373 0.0575 0.76275 0.0
C215 C 0.92853 0.04918 0.7723 0.0
C216 C 0.99088 0.09997 0.75711 0.0
C217 C 0.92089 0.08355 0.77597 0.0
C218 C 0.98221 0.13348 0.76106 0.0
N219 N 0.94766 0.12464 0.77031 0.0
C220 C 0.93593 0.8975 0.77843 0.0
C221 C 0.88889 0.92097 0.76794 0.0
C222 C 0.90223 0.86806 0.78809 0.0
N223 N 0.9286 0.92313 0.76859 0.0
C224 C 0.85437 0.89201 0.77729 0.0
C225 C 0.86082 0.86531 0.78769 0.0
H226 H 0.96807 0.90064 0.77912 0.0
H227 H 0.88427 0.9425 0.76029 0.0
C228 C 0.94344 0.02471 0.708 0.0
N229 N 0.93849 0.02923 0.72313 0.0
C230 C 0.91219 0.02227 0.69759 0.0
C231 C 0.87238 0.03119 0.71846 0.0
C232 C 0.90419 0.03305 0.72849 0.0
C233 C 0.87553 0.0245 0.70284 0.0
H234 H 0.97051 0.02074 0.70412 0.0
H235 H 0.89999 0.03497 0.74059 0.0
O236 O 0.03556 0.98846 0.75874 0.0
O237 O 0.0392 0.05079 0.73318 0.0
O238 O 0.96527 0.95828 0.73331 0.0
O239 O 0.97132 0.02405 0.75897 0.0
H240 H 0.106 0.01667 0.77613 0.0
H241 H 0.00599 0.90482 0.7518 0.0
H242 H 0.13909 0.97153 0.78399 0.0
H243 H 0.04083 0.8616 0.76 0.0
H244 H 0.07899 0.17921 0.70843 0.0
H245 H 0.12124 0.0722 0.72648 0.0
H246 H 0.02425 0.11256 0.72234 0.0
H247 H 0.17414 0.13937 0.71242 0.0
H248 H 0.16547 0.98829 0.7214 0.0
H249 H 0.07801 0.97726 0.68481 0.0
H250 H 0.09553 0.14389 0.80104 0.0
H251 H 0.19019 0.14432 0.76937 0.0
H252 H 0.88209 0.93884 0.73178 0.0
H253 H 0.96904 0.88587 0.72819 0.0
H254 H 0.8188 0.8641 0.72705 0.0
H255 H 0.90419 0.81196 0.72365 0.0
H256 H 0.90723 0.01645 0.77677 0.0
H257 H 0.01863 0.10709 0.74993 0.0
H258 H 0.89369 0.07757 0.78331 0.0
H259 H 0.00302 0.16653 0.75679 0.0
H260 H 0.90897 0.84869 0.7961 0.0
H261 H 0.82299 0.89076 0.77641 0.0
H262 H 0.91596 0.01739 0.68562 0.0
H263 H 0.8443 0.0324 0.723 0.0
C264 C 0.02699 0.56408 0.26799 0.0
C265 C 0.03044 0.46228 0.23026 0.0
O266 O 0.06143 0.56437 0.26323 0.0
Zn267 Zn 0.03157 0.51416 0.24944 0.0
O268 O 0.98911 0.53459 0.26315 0.0
Zn269 Zn 0.96054 0.47972 0.248 0.0
O270 O 0.92662 0.42967 0.26154 0.0
O271 O 0.99836 0.46131 0.2651 0.0
O272 O 0.99189 0.45501 0.23365 0.0
O273 O 0.0638 0.49373 0.23676 0.0
O274 O 0.00469 0.53868 0.23282 0.0
O275 O 0.93216 0.49891 0.23322 0.0
C276 C 0.95917 0.4317 0.26867 0.0
C277 C 0.96722 0.53074 0.22768 0.0
C278 C 0.53108 0.9663 0.60106 0.0
C279 C 0.43051 0.95899 0.561 0.0
O280 O 0.49983 0.93142 0.59523 0.0
Zn281 Zn 0.47957 0.96027 0.58111 0.0
O282 O 0.53887 0.00406 0.59627 0.0
Zn283 Zn 0.51444 0.03109 0.57965 0.0
O284 O 0.49488 0.06424 0.59202 0.0
O285 O 0.45678 0.99247 0.59606 0.0
O286 O 0.46085 0.99813 0.56426 0.0
O287 O 0.42808 0.92638 0.56823 0.0
O288 O 0.53229 0.98808 0.56506 0.0
O289 O 0.56419 0.06056 0.56577 0.0
C290 C 0.46453 0.03143 0.59911 0.0
C291 C 0.56198 0.02594 0.56025 0.0
C292 C 0.44113 0.47119 0.93443 0.0
C293 C 0.53794 0.56879 0.89423 0.0
O294 O 0.43848 0.50255 0.92816 0.0
Zn295 Zn 0.48816 0.52111 0.91441 0.0
O296 O 0.47094 0.46259 0.93012 0.0
Zn297 Zn 0.52356 0.48549 0.91397 0.0
O298 O 0.57491 0.50479 0.92705 0.0
O299 O 0.54208 0.54413 0.92988 0.0
O300 O 0.54629 0.53866 0.8983 0.0
O301 O 0.50677 0.57127 0.90069 0.0
O302 O 0.46294 0.46673 0.89915 0.0
O303 O 0.50342 0.43486 0.90038 0.0
C304 C 0.57248 0.53583 0.93364 0.0
C305 C 0.47079 0.43649 0.89478 0.0
H306 H 0.08418 0.20319 0.13679 0.0
H307 H 0.09517 0.26237 0.15403 0.0
H308 H 0.95616 0.2174 0.15254 0.0
H309 H 0.94521 0.15949 0.13463 0.0
H310 H 0.00124 0.30336 0.15007 0.0
H311 H 0.00689 0.19726 0.18349 0.0
H312 H 0.03421 0.14871 0.19255 0.0
H313 H 0.16382 0.26044 0.19786 0.0
H314 H 0.13737 0.30961 0.18864 0.0
H315 H 0.96402 0.39405 0.21503 0.0
H316 H 0.96859 0.34568 0.19631 0.0
H317 H 0.10996 0.41544 0.20045 0.0
H318 H 0.10572 0.46448 0.2196 0.0
H319 H 0.07378 0.32469 0.20036 0.0
H320 H 0.06314 0.43143 0.16951 0.0
H321 H 0.03264 0.47775 0.16102 0.0
H322 H 0.90875 0.36215 0.15138 0.0
H323 H 0.93819 0.3151 0.16008 0.0
C324 C 0.05594 0.20611 0.13996 0.0
C325 C 0.01375 0.17651 0.13424 0.0
C326 C 0.06225 0.23972 0.15 0.0
C327 C 0.02645 0.24412 0.15475 0.0
C328 C 0.98432 0.21464 0.14908 0.0
C329 C 0.97802 0.18122 0.13894 0.0
C330 C 0.03277 0.2798 0.16541 0.0
C331 C 0.01674 0.30773 0.16112 0.0
C332 C 0.05436 0.28655 0.17964 0.0
C333 C 0.07027 0.25704 0.18521 0.0
C334 C 0.0413 0.21143 0.18647 0.0
C335 C 0.0566 0.18381 0.19166 0.0
C336 C 0.10075 0.20146 0.19574 0.0
C337 C 0.12965 0.2468 0.19468 0.0
C338 C 0.11452 0.27456 0.18948 0.0
C339 C 0.99628 0.39947 0.21201 0.0
C340 C 0.0346 0.43344 0.21881 0.0
C341 C 0.99877 0.37174 0.20121 0.0
C342 C 0.03962 0.37736 0.19677 0.0
C343 C 0.07809 0.41076 0.20364 0.0
C344 C 0.07564 0.43877 0.21455 0.0
C345 C 0.0412 0.34741 0.18515 0.0
C346 C 0.05879 0.32064 0.18923 0.0
C347 C 0.02066 0.34141 0.17076 0.0
C348 C 0.00286 0.36972 0.16553 0.0
C349 C 0.02929 0.41587 0.16569 0.0
C350 C 0.01219 0.44227 0.16082 0.0
C351 C 0.96879 0.42289 0.15565 0.0
C352 C 0.94237 0.3771 0.15537 0.0
C353 C 0.95926 0.35056 0.16026 0.0
H354 H 0.9556 0.4433 0.15183 0.0
H355 H 0.11254 0.18002 0.19975 0.0
H356 H 0.87409 0.07114 0.46926 0.0
H357 H 0.82398 0.08167 0.48571 0.0
H358 H 0.72898 0.94305 0.4826 0.0
H359 H 0.77901 0.93236 0.466 0.0
H360 H 0.68958 0.99098 0.47998 0.0
H361 H 0.79466 0.98758 0.51431 0.0
H362 H 0.86875 0.01041 0.52425 0.0
H363 H 0.89254 0.14183 0.53099 0.0
H364 H 0.81877 0.1199 0.52088 0.0
H365 H 0.55776 0.95754 0.54429 0.0
H366 H 0.60939 0.95907 0.52552 0.0
H367 H 0.68867 0.1 0.53038 0.0
H368 H 0.63679 0.09881 0.54947 0.0
H369 H 0.73781 0.05823 0.53118 0.0
H370 H 0.62854 0.05834 0.49879 0.0
H371 H 0.55336 0.03323 0.4895 0.0
H372 H 0.53634 0.9057 0.47966 0.0
H373 H 0.6112 0.92983 0.48911 0.0
C374 C 0.84266 0.04281 0.47217 0.0
C375 C 0.83068 1.0008 0.46646 0.0
C376 C 0.81402 0.04891 0.48156 0.0
C377 C 0.77297 0.01305 0.48559 0.0
C378 C 0.76052 0.9712 0.47966 0.0
C379 C 0.78909 0.96512 0.47017 0.0
C380 C 0.74312 0.01914 0.49604 0.0
C381 C 0.7 0.0053 0.49123 0.0
C382 C 0.75709 0.039 0.51056 0.0
C383 C 0.80139 0.05221 0.51668 0.0
C384 C 0.81583 0.02143 0.51779 0.0
C385 C 0.85774 0.03419 0.52348 0.0
C386 C 0.88538 0.07758 0.52821 0.0
C387 C 0.87112 0.10825 0.5273 0.0
C388 C 0.82926 0.09567 0.5216 0.0
C389 C 0.58602 0.98904 0.54138 0.0
C390 C 0.59311 0.02812 0.54841 0.0
C391 C 0.61542 0.98982 0.53055 0.0
C392 C 0.65259 0.02968 0.52641 0.0
C393 C 0.66001 0.0689 0.53337 0.0
C394 C 0.63032 0.06819 0.54423 0.0
C395 C 0.68415 0.02953 0.51519 0.0
C396 C 0.72757 0.04441 0.51986 0.0
C397 C 0.67038 0.01039 0.50058 0.0
C398 C 0.62543 0.99584 0.49476 0.0
C399 C 0.60867 0.02485 0.49474 0.0
C400 C 0.56612 0.0108 0.48943 0.0
C401 C 0.54006 0.96788 0.48402 0.0
C402 C 0.55655 0.93894 0.48387 0.0
C403 C 0.59907 0.95281 0.48918 0.0
H404 H 0.50712 0.95706 0.47992 0.0
H405 H 0.91781 0.08739 0.53261 0.0
H406 H 0.80192 0.88202 0.80251 0.0
H407 H 0.742 0.83324 0.81941 0.0
H408 H 0.77908 0.73374 0.81436 0.0
H409 H 0.83803 0.78169 0.79687 0.0
H410 H 0.69201 0.69797 0.81252 0.0
H411 H 0.80539 0.79911 0.84655 0.0
H412 H 0.85914 0.87221 0.85666 0.0
H413 H 0.75508 0.90002 0.8654 0.0
H414 H 0.70076 0.82726 0.85515 0.0
H415 H 0.59833 0.56354 0.87638 0.0
H416 H 0.64657 0.61558 0.85735 0.0
H417 H 0.58922 0.69752 0.86547 0.0
H418 H 0.54044 0.64518 0.88487 0.0
H419 H 0.67993 0.74486 0.86478 0.0
H420 H 0.56551 0.63932 0.83306 0.0
H421 H 0.51265 0.56545 0.82333 0.0
H422 H 0.61916 0.545 0.81053 0.0
H423 H 0.6727 0.6185 0.82038 0.0
C424 C 0.7971 0.84957 0.80483 0.0
C425 C 0.82484 0.83579 0.79827 0.0
C426 C 0.76305 0.82188 0.81465 0.0
C427 C 0.75628 0.77997 0.81831 0.0
C428 C 0.78373 0.76599 0.81174 0.0
C429 C 0.81771 0.79361 0.80185 0.0
C430 C 0.72053 0.75059 0.82893 0.0
C431 C 0.68961 0.70809 0.82399 0.0
C432 C 0.71649 0.76427 0.84374 0.0
C433 C 0.74909 0.80796 0.84993 0.0
C434 C 0.79402 0.82096 0.85052 0.0
C435 C 0.82458 0.8623 0.85629 0.0
C436 C 0.81055 0.8908 0.86162 0.0
C437 C 0.76591 0.87795 0.86124 0.0
C438 C 0.73522 0.83666 0.85546 0.0
C439 C 0.59561 0.59245 0.87413 0.0
C440 C 0.56542 0.60016 0.88218 0.0
C441 C 0.62315 0.6221 0.86314 0.0
C442 C 0.62116 0.66016 0.85984 0.0
C443 C 0.5911 0.66817 0.8678 0.0
C444 C 0.56319 0.63822 0.87883 0.0
C445 C 0.65197 0.69199 0.84846 0.0
C446 C 0.68197 0.73495 0.85324 0.0
C447 C 0.65528 0.67868 0.83352 0.0
C448 C 0.62314 0.63439 0.82755 0.0
C449 C 0.57768 0.61896 0.82827 0.0
C450 C 0.54758 0.57715 0.82272 0.0
C451 C 0.56253 0.55053 0.81633 0.0
C452 C 0.60762 0.56566 0.81548 0.0
C453 C 0.63787 0.60742 0.82103 0.0
H454 H 0.5392 0.51822 0.812 0.0
H455 H 0.83425 0.92279 0.86609 0.0
H456 H 0.92766 0.79136 0.13142 0.0
H457 H 0.91596 0.73145 0.14846 0.0
H458 H 0.05613 0.78317 0.1508 0.0
H459 H 0.06805 0.84239 0.13326 0.0
H460 H 0.01326 0.69569 0.14721 0.0
H461 H 0.99943 0.79831 0.1799 0.0
H462 H 0.96929 0.84522 0.18807 0.0
H463 H 0.84006 0.73163 0.19105 0.0
H464 H 0.86936 0.6841 0.18269 0.0
H465 H 0.03718 0.59778 0.21324 0.0
H466 H 0.0371 0.64759 0.19404 0.0
H467 H 0.89529 0.58007 0.1952 0.0
H468 H 0.895 0.5298 0.2148 0.0
H469 H 0.93145 0.66953 0.19579 0.0
H470 H 0.94774 0.5661 0.16528 0.0
H471 H 0.97925 0.52014 0.15755 0.0
H472 H 0.10513 0.63591 0.15065 0.0
H473 H 0.07458 0.68264 0.15862 0.0
C474 C 0.95603 0.78977 0.1354 0.0
C475 C 0.99884 0.82169 0.13092 0.0
C476 C 0.94928 0.75571 0.14529 0.0
C477 C 0.98517 0.75305 0.15105 0.0
C478 C 0.02792 0.78464 0.14653 0.0
C479 C 0.03472 0.81868 0.1366 0.0
C480 C 0.97824 0.71724 0.16172 0.0
C481 C 0.99576 0.69025 0.1579 0.0
C482 C 0.95415 0.70921 0.17545 0.0
C483 C 0.93651 0.73772 0.18051 0.0
C484 C 0.96452 0.78339 0.18218 0.0
C485 C 0.9476 0.81008 0.18686 0.0
C486 C 0.90276 0.79144 0.19003 0.0
C487 C 0.87477 0.74604 0.18856 0.0
C488 C 0.89152 0.7192 0.18386 0.0
C489 C 0.00579 0.59316 0.20942 0.0
C490 C 0.96602 0.55961 0.21556 0.0
C491 C 0.00587 0.62166 0.19835 0.0
C492 C 0.96621 0.61722 0.19301 0.0
C493 C 0.92629 0.58391 0.19911 0.0
C494 C 0.92616 0.55516 0.21026 0.0
C495 C 0.96717 0.6485 0.18139 0.0
C496 C 0.94853 0.67464 0.18502 0.0
C497 C 0.99038 0.65588 0.1675 0.0
C498 C 0.00889 0.62787 0.16265 0.0
C499 C 0.98222 0.58177 0.16223 0.0
C500 C 0.99992 0.55557 0.15779 0.0
C501 C 0.04418 0.57506 0.15362 0.0
C502 C 0.07085 0.62084 0.15388 0.0
C503 C 0.05335 0.64721 0.15835 0.0
H504 H 0.05779 0.55472 0.15015 0.0
H505 H 0.88972 0.81216 0.19366 0.0
H506 H 0.23419 0.05378 0.46052 0.0
H507 H 0.27806 0.03565 0.47752 0.0
H508 H 0.1596 0.93607 0.49928 0.0
H509 H 0.11547 0.95369 0.48225 0.0
H510 H 0.22236 0.98309 0.52007 0.0
H511 H 0.21243 0.90666 0.47395 0.0
H512 H 0.21753 0.89801 0.44627 0.0
H513 H 0.3562 0.99059 0.44757 0.0
H514 H 0.35182 1.00032 0.47523 0.0
H515 H 0.34262 0.89717 0.55949 0.0
H516 H 0.28836 0.89703 0.54165 0.0
H517 H 0.39233 0.0087 0.51816 0.0
H518 H 0.44611 0.00937 0.53594 0.0
H519 H 0.32995 0.94529 0.49841 0.0
H520 H 0.33744 0.02674 0.54399 0.0
H521 H 0.33234 0.0356 0.57166 0.0
H522 H 0.19723 0.93221 0.57129 0.0
H523 H 0.20179 0.92222 0.54363 0.0
C524 C 0.21744 0.02792 0.46888 0.0
C525 C 0.17128 0.00516 0.46998 0.0
C526 C 0.24256 0.01759 0.4786 0.0
C527 C 0.22206 0.98407 0.48954 0.0
C528 C 0.17611 0.96203 0.49093 0.0
C529 C 0.15096 0.97235 0.48122 0.0
C530 C 0.24865 0.97188 0.49944 0.0
C531 C 0.24528 0.97402 0.51533 0.0
C532 C 0.27885 0.96039 0.49328 0.0
C533 C 0.28171 0.95449 0.47665 0.0
C534 C 0.24396 0.92543 0.46832 0.0
C535 C 0.24673 0.9203 0.45263 0.0
C536 C 0.28714 0.94381 0.44516 0.0
C537 C 0.3249 0.97243 0.45337 0.0
C538 C 0.3223 0.97774 0.46905 0.0
C539 C 0.35382 0.92101 0.55031 0.0
C540 C 0.39842 0.95341 0.54911 0.0
C541 C 0.32289 0.92108 0.54021 0.0
C542 C 0.33639 0.95312 0.52868 0.0
C543 C 0.38124 0.98374 0.52697 0.0
C544 C 0.41188 0.98415 0.53716 0.0
C545 C 0.30409 0.95721 0.51896 0.0
C546 C 0.30645 0.95363 0.50312 0.0
C547 C 0.27292 0.96726 0.52517 0.0
C548 C 0.27013 0.97331 0.54178 0.0
C549 C 0.30678 0.00558 0.54983 0.0
C550 C 0.30396 0.01087 0.56551 0.0
C551 C 0.26452 0.98438 0.57324 0.0
C552 C 0.22779 0.95262 0.56529 0.0
C553 C 0.23047 0.94712 0.54962 0.0
H554 H 0.26239 0.98856 0.58537 0.0
H555 H 0.28922 0.93979 0.43302 0.0
H556 H 0.22164 0.14399 0.79371 0.0
H557 H 0.28157 0.19162 0.81086 0.0
H558 H 0.21652 0.26558 0.8207 0.0
H559 H 0.15713 0.21899 0.80315 0.0
H560 H 0.30326 0.31934 0.81589 0.0
H561 H 0.21303 0.18835 0.84562 0.0
H562 H 0.17478 0.10859 0.85089 0.0
H563 H 0.29762 0.10985 0.8486 0.0
H564 H 0.33654 0.18955 0.84312 0.0
H565 H 0.39439 0.42766 0.8839 0.0
H566 H 0.34593 0.37721 0.86461 0.0
H567 H 0.43046 0.3214 0.86003 0.0
H568 H 0.47958 0.37205 0.87975 0.0
H569 H 0.34226 0.25794 0.8603 0.0
H570 H 0.43363 0.39094 0.83344 0.0
H571 H 0.4717 0.47094 0.82882 0.0
H572 H 0.3474 0.46631 0.82553 0.0
H573 H 0.30852 0.38639 0.83048 0.0
C574 C 0.22029 0.17072 0.79937 0.0
C575 C 0.18454 0.1777 0.79702 0.0
C576 C 0.2544 0.19764 0.80931 0.0
C577 C 0.25335 0.23191 0.81719 0.0
C578 C 0.21798 0.23926 0.81476 0.0
C579 C 0.18386 0.21237 0.80482 0.0
C580 C 0.28903 0.26023 0.82798 0.0
C581 C 0.31154 0.30594 0.82567 0.0
C582 C 0.30096 0.24263 0.84043 0.0
C583 C 0.27761 0.19479 0.84379 0.0
C584 C 0.23183 0.17154 0.84612 0.0
C585 C 0.21004 0.12637 0.84917 0.0
C586 C 0.23373 0.10414 0.85003 0.0
C587 C 0.2793 0.12709 0.8479 0.0
C588 C 0.30124 0.17226 0.84483 0.0
C589 C 0.40298 0.40479 0.87884 0.0
C590 C 0.44124 0.40426 0.88329 0.0
C591 C 0.37515 0.37598 0.86775 0.0
C592 C 0.38499 0.34614 0.86066 0.0
C593 C 0.42247 0.34446 0.8653 0.0
C594 C 0.4505 0.37341 0.87653 0.0
C595 C 0.35564 0.31708 0.84841 0.0
C596 C 0.3344 0.2713 0.85041 0.0
C597 C 0.3449 0.33458 0.83563 0.0
C598 C 0.36815 0.38263 0.83242 0.0
C599 C 0.41439 0.407 0.83183 0.0
C600 C 0.43613 0.45235 0.82914 0.0
C601 C 0.41199 0.4737 0.82687 0.0
C602 C 0.36605 0.44972 0.82728 0.0
C603 C 0.34414 0.40438 0.83002 0.0
H604 H 0.42887 0.50882 0.82479 0.0
H605 H 0.2168 0.06917 0.85239 0.0
H606 H 0.83717 0.96015 0.68131 0.0
H607 H 0.7751 0.94444 0.66475 0.0
H608 H 0.76917 0.05455 0.68403 0.0
H609 H 0.83087 0.06984 0.70088 0.0
H610 H 0.68957 0.98743 0.68159 0.0
H611 H 0.81311 0.05844 0.64798 0.0
H612 H 0.8808 0.07097 0.63505 0.0
H613 H 0.81038 0.94237 0.61489 0.0
H614 H 0.74235 0.92883 0.62788 0.0
H615 H 0.57691 0.02844 0.62241 0.0
H616 H 0.63024 0.03026 0.64066 0.0
H617 H 0.60503 0.90328 0.62488 0.0
H618 H 0.55069 0.9009 0.60659 0.0
H619 H 0.69666 0.97189 0.62563 0.0
H620 H 0.57042 0.90595 0.65837 0.0
H621 H 0.50403 0.89929 0.67052 0.0
H622 H 0.58186 0.02579 0.69155 0.0
H623 H 0.64868 0.0335 0.67935 0.0
C624 C 0.823 0.98136 0.68189 0.0
C625 C 0.83916 0.0165 0.6923 0.0
C626 C 0.78745 0.9723 0.67242 0.0
C627 C 0.76772 0.99862 0.67298 0.0
C628 C 0.78378 0.03372 0.68339 0.0
C629 C 0.81908 0.04251 0.69299 0.0
C630 C 0.73009 0.9893 0.66282 0.0
C631 C 0.69135 0.98446 0.66934 0.0
C632 C 0.7319 0.98443 0.64684 0.0
C633 C 0.77276 0.99243 0.63904 0.0
C634 C 0.81214 0.03268 0.64089 0.0
C635 C 0.85056 0.04 0.63354 0.0
C636 C 0.84993 0.00743 0.6242 0.0
C637 C 0.81084 0.96753 0.62216 0.0
C638 C 0.77233 0.96002 0.62951 0.0
C639 C 0.58227 1.0006 0.62293 0.0
C640 C 0.55971 0.96453 0.61306 0.0
C641 C 0.61266 0.00166 0.6334 0.0
C642 C 0.62147 0.96689 0.63413 0.0
C643 C 0.59852 0.93038 0.62449 0.0
C644 C 0.56741 0.92895 0.61413 0.0
C645 C 0.65655 0.97037 0.64442 0.0
C646 C 0.69483 0.9743 0.6379 0.0
C647 C 0.6546 0.97515 0.66035 0.0
C648 C 0.61453 0.97043 0.66784 0.0
C649 C 0.57335 0.9325 0.66549 0.0
C650 C 0.53564 0.92851 0.67241 0.0
C651 C 0.53871 0.96214 0.68178 0.0
C652 C 0.57953 0.99977 0.68428 0.0
C653 C 0.61735 0.00394 0.67739 0.0
H654 H 0.50947 0.959 0.68711 0.0
H655 H 0.8797 0.01317 0.61851 0.0
H656 H 0.77103 0.82793 0.03423 0.0
H657 H 0.72625 0.76614 0.01724 0.0
H658 H 0.8441 0.77823 0.99721 0.0
H659 H 0.88897 0.84057 0.01398 0.0
H660 H 0.78702 0.76354 0.97571 0.0
H661 H 0.78134 0.6958 0.02334 0.0
H662 H 0.7703 0.68304 0.05102 0.0
H663 H 0.63484 0.64783 0.04618 0.0
H664 H 0.64521 0.661 0.01848 0.0
H665 H 0.65847 0.55606 0.93724 0.0
H666 H 0.71239 0.60929 0.95537 0.0
H667 H 0.61162 0.63064 0.97471 0.0
H668 H 0.5582 0.57842 0.95667 0.0
H669 H 0.66641 0.62358 0.99671 0.0
H670 H 0.67663 0.69979 0.94925 0.0
H671 H 0.68864 0.71169 0.92155 0.0
H672 H 0.81806 0.72885 0.92643 0.0
H673 H 0.80651 0.71639 0.95415 0.0
C674 C 0.78734 0.81739 0.0262 0.0
C675 C 0.83349 0.83909 0.02544 0.0
C676 C 0.76176 0.78195 0.01653 0.0
C677 C 0.78178 0.76692 0.00612 0.0
C678 C 0.82787 0.78911 0.00515 0.0
C679 C 0.85347 0.82485 0.01471 0.0
C680 C 0.75455 0.72825 0.9962 0.0
C681 C 0.76122 0.73269 0.98036 0.0
C682 C 0.72064 0.68793 0.00219 0.0
C683 C 0.71416 0.67972 0.01884 0.0
C684 C 0.74927 0.68563 0.02819 0.0
C685 C 0.74312 0.67828 0.04388 0.0
C686 C 0.70192 0.66472 0.05036 0.0
C687 C 0.66674 0.65837 0.04115 0.0
C688 C 0.67273 0.66572 0.02544 0.0
C689 C 0.64782 0.57168 0.94553 0.0
C690 C 0.60428 0.56338 0.94549 0.0
C691 C 0.6786 0.60212 0.95581 0.0
C692 C 0.66597 0.62405 0.96631 0.0
C693 C 0.62203 0.61409 0.96672 0.0
C694 C 0.59161 0.58438 0.95635 0.0
C695 C 0.69851 0.65934 0.97633 0.0
C696 C 0.69276 0.65426 0.99216 0.0
C697 C 0.73349 0.69886 0.97035 0.0
C698 C 0.7405 0.70661 0.95372 0.0
C699 C 0.70749 0.70571 0.94439 0.0
C700 C 0.71424 0.71263 0.9287 0.0
C701 C 0.75403 0.72088 0.92222 0.0
C702 C 0.78721 0.72236 0.93145 0.0
C703 C 0.78059 0.71538 0.94715 0.0
H704 H 0.7592 0.72624 0.91007 0.0
H705 H 0.69723 0.65905 0.06251 0.0
H706 H 0.05051 0.83293 0.37525 0.0
H707 H 0.06294 0.78481 0.35824 0.0
H708 H 0.94724 0.75736 0.33253 0.0
H709 H 0.93449 0.80528 0.34956 0.0
H710 H 0.95227 0.68195 0.33976 0.0
H711 H 0.0457 0.82787 0.31888 0.0
H712 H 0.10467 0.90554 0.3203 0.0
H713 H 0.1976 0.86519 0.33271 0.0
H714 H 0.13898 0.78725 0.3316 0.0
H715 H 0.96573 0.58838 0.27216 0.0
H716 H 0.96483 0.63844 0.29108 0.0
H717 H 0.09125 0.66472 0.30786 0.0
H718 H 0.09295 0.61499 0.2884 0.0
H719 H 0.08622 0.73881 0.30764 0.0
H720 H 0.99724 0.5944 0.32719 0.0
H721 H 0.93992 0.51596 0.32683 0.0
H722 H 0.84104 0.55154 0.3187 0.0
H723 H 0.89783 0.63019 0.31881 0.0
C724 C 0.0275 0.8163 0.36605 0.0
C725 C 0.99138 0.82268 0.36376 0.0
C726 C 0.03486 0.78913 0.35628 0.0
C727 C 0.00615 0.76773 0.34409 0.0
C728 C 0.9698 0.77364 0.34188 0.0
C729 C 0.96266 0.80113 0.35155 0.0
C730 C 0.01374 0.73896 0.33362 0.0
C731 C 0.98134 0.69442 0.33263 0.0
C732 C 0.05257 0.75492 0.32481 0.0
C733 C 0.08786 0.80175 0.32532 0.0
C734 C 0.07863 0.83557 0.32204 0.0
C735 C 0.112 0.87964 0.32276 0.0
C736 C 0.15483 0.8903 0.32664 0.0
C737 C 0.16439 0.85689 0.32974 0.0
C738 C 0.13112 0.81276 0.32906 0.0
C739 C 0.99351 0.60482 0.27982 0.0
C740 C 0.02918 0.59726 0.27892 0.0
C741 C 0.99285 0.63339 0.29069 0.0
C742 C 0.02738 0.65445 0.30118 0.0
C743 C 0.06403 0.64847 0.29997 0.0
C744 C 0.06499 0.62011 0.28887 0.0
C745 C 0.02412 0.68192 0.31346 0.0
C746 C 0.05732 0.72614 0.31486 0.0
C747 C 0.98629 0.66554 0.32286 0.0
C748 C 0.95188 0.61823 0.32292 0.0
C749 C 0.96331 0.5855 0.32523 0.0
C750 C 0.9309 0.541 0.32508 0.0
C751 C 0.88688 0.52878 0.32271 0.0
C752 C 0.87516 0.56105 0.32053 0.0
C753 C 0.90744 0.60561 0.32066 0.0
H754 H 0.86184 0.49431 0.32259 0.0
H755 H 0.18062 0.92444 0.32719 0.0
H756 H 0.15223 0.03633 0.67647 0.0
H757 H 0.21241 0.05165 0.65896 0.0
H758 H 0.23866 0.96098 0.68377 0.0
H759 H 0.17883 0.946 0.70143 0.0
H760 H 0.31265 0.03328 0.67828 0.0
H761 H 0.18672 0.93628 0.64839 0.0
H762 H 0.1152 0.90961 0.63565 0.0
H763 H 0.16995 0.02718 0.60851 0.0
H764 H 0.24168 0.05488 0.62126 0.0
H765 H 0.42722 0.98025 0.62386 0.0
H766 H 0.37417 0.98193 0.64142 0.0
H767 H 0.38411 0.09427 0.61768 0.0
H768 H 0.43828 0.0932 0.60008 0.0
H769 H 0.2955 0.02071 0.62209 0.0
H770 H 0.42479 0.11291 0.65121 0.0
H771 H 0.49596 0.13363 0.6633 0.0
H772 H 0.43353 0.018 0.69141 0.0
H773 H 0.36205 0.99624 0.67933 0.0
C774 C 0.17038 0.01913 0.67805 0.0
C775 C 0.16063 0.98977 0.6903 0.0
C776 C 0.20487 0.028 0.66804 0.0
C777 C 0.22995 0.00724 0.66995 0.0
C778 C 0.21994 0.97756 0.68209 0.0
C779 C 0.1857 0.96895 0.69216 0.0
C780 C 0.26732 0.01717 0.65957 0.0
C781 C 0.30871 0.03016 0.66601 0.0
C782 C 0.26265 0.01429 0.6435 0.0
C783 C 0.21941 0.99793 0.63594 0.0
C784 C 0.18339 0.95667 0.63983 0.0
C785 C 0.14283 0.94132 0.63258 0.0
C786 C 0.13799 0.96676 0.62132 0.0
C787 C 0.17372 0.00757 0.61726 0.0
C788 C 0.21433 0.02311 0.6245 0.0
C789 C 0.41865 0.00577 0.62251 0.0
C790 C 0.43685 0.03666 0.61064 0.0
C791 C 0.38841 0.00672 0.63256 0.0
C792 C 0.37534 0.03826 0.63086 0.0
C793 C 0.39398 0.06976 0.61918 0.0
C794 C 0.42503 0.06932 0.60923 0.0
C795 C 0.34031 0.03614 0.64086 0.0
C796 C 0.29941 0.02449 0.63436 0.0
C797 C 0.34522 0.03959 0.65687 0.0
C798 C 0.38808 0.05281 0.66429 0.0
C799 C 0.42628 0.09173 0.6599 0.0
C800 C 0.46667 0.1037 0.66676 0.0
C801 C 0.46928 0.07711 0.6781 0.0
C802 C 0.43146 0.03856 0.68262 0.0
C803 C 0.39098 0.02644 0.67579 0.0
H804 H 0.5006 0.08641 0.68339 0.0
H805 H 0.10658 0.95479 0.61571 0.0
H806 H 0.23805 0.17065 0.03231 0.0
H807 H 0.28432 0.23293 0.0157 0.0
H808 H 0.16921 0.23494 0.99952 0.0
H809 H 0.12277 0.17211 0.0159 0.0
H810 H 0.22152 0.24719 0.97656 0.0
H811 H 0.24066 0.31118 0.02587 0.0
H812 H 0.2564 0.31963 0.05343 0.0
H813 H 0.38701 0.3435 0.04489 0.0
H814 H 0.37185 0.33457 0.01728 0.0
H815 H 0.35743 0.45581 0.93994 0.0
H816 H 0.30383 0.40265 0.95814 0.0
H817 H 0.40099 0.37071 0.97386 0.0
H818 H 0.45416 0.42307 0.95579 0.0
H819 H 0.35249 0.37886 0.99754 0.0
H820 H 0.3287 0.30702 0.94831 0.0
H821 H 0.31227 0.29944 0.9208 0.0
H822 H 0.18855 0.29241 0.92962 0.0
H823 H 0.2046 0.30062 0.95719 0.0
C824 C 0.22267 0.1844 0.0252 0.0
C825 C 0.17682 0.16651 0.02541 0.0
C826 C 0.24912 0.22011 0.01576 0.0
C827 C 0.23036 0.23922 0.00655 0.0
C828 C 0.18448 0.22085 0.00653 0.0
C829 C 0.15796 0.18485 0.01586 0.0
C830 C 0.25865 0.27819 0.99689 0.0
C831 C 0.24966 0.27629 0.98123 0.0
C832 C 0.29561 0.31618 0.00291 0.0
C833 C 0.30499 0.32187 0.0195 0.0
C834 C 0.27264 0.31795 0.02987 0.0
C835 C 0.28147 0.32286 0.0455 0.0
C836 C 0.32265 0.33201 0.05091 0.0
C837 C 0.35512 0.33638 0.04068 0.0
C838 C 0.34644 0.33145 0.02504 0.0
C839 C 0.36742 0.43787 0.94745 0.0
C840 C 0.40984 0.44334 0.94638 0.0
C841 C 0.3368 0.40745 0.95777 0.0
C842 C 0.34843 0.38255 0.96725 0.0
C843 C 0.39136 0.38956 0.96665 0.0
C844 C 0.42163 0.41937 0.95626 0.0
C845 C 0.31568 0.34734 0.97727 0.0
C846 C 0.32389 0.34998 0.99299 0.0
C847 C 0.27785 0.31023 0.97133 0.0
C848 C 0.26808 0.30498 0.95478 0.0
C849 C 0.29817 0.30424 0.94437 0.0
C850 C 0.2889 0.29976 0.92877 0.0
C851 C 0.24945 0.29558 0.92346 0.0
C852 C 0.21914 0.29574 0.93374 0.0
C853 C 0.22829 0.3003 0.94936 0.0
H854 H 0.24233 0.29211 0.91137 0.0
H855 H 0.32942 0.3358 0.06301 0.0
H856 H 0.94324 0.11449 0.34946 0.0
H857 H 0.92565 0.15976 0.333 0.0
H858 H 0.0378 0.27705 0.35055 0.0
H859 H 0.05603 0.23196 0.36692 0.0
H860 H 0.96537 0.28604 0.34927 0.0
H861 H 0.04143 0.23803 0.31577 0.0
H862 H 0.05566 0.18392 0.30288 0.0
H863 H 0.92767 0.12407 0.28223 0.0
H864 H 0.91243 0.17749 0.29519 0.0
H865 H 0.01373 0.44544 0.2924 0.0
H866 H 0.01094 0.39148 0.31054 0.0
H867 H 0.89014 0.29137 0.29021 0.0
H868 H 0.89257 0.34587 0.27193 0.0
H869 H 0.95586 0.26752 0.29309 0.0
H870 H 0.88461 0.32345 0.32459 0.0
H871 H 0.87416 0.38083 0.33681 0.0
H872 H 0.99625 0.42857 0.36083 0.0
H873 H 0.00784 0.37192 0.34856 0.0
C874 C 0.96462 0.14988 0.34966 0.0
C875 C 0.00131 0.16953 0.35945 0.0
C876 C 0.95432 0.17573 0.3403 0.0
C877 C 0.98053 0.2218 0.34047 0.0
C878 C 0.01699 0.24157 0.35028 0.0
C879 C 0.02736 0.21573 0.35963 0.0
C880 C 0.97015 0.24945 0.33038 0.0
C881 C 0.96358 0.28218 0.33698 0.0
C882 C 0.96655 0.24361 0.31437 0.0
C883 C 0.97558 0.21139 0.3066 0.0
C884 C 0.01615 0.21306 0.3086 0.0
C885 C 0.02443 0.18258 0.30126 0.0
C886 C 0.99253 0.15048 0.29179 0.0
C887 C 0.95231 0.14888 0.2896 0.0
C888 C 0.94384 0.17927 0.29694 0.0
C889 C 0.98616 0.41209 0.29191 0.0
C890 C 0.95338 0.39981 0.28073 0.0
C891 C 0.98454 0.38133 0.30233 0.0
C892 C 0.95028 0.33746 0.30176 0.0
C893 C 0.9168 0.32514 0.29085 0.0
C894 C 0.91805 0.35627 0.2805 0.0
C895 C 0.95173 0.30448 0.31197 0.0
C896 C 0.95681 0.27082 0.3054 0.0
C897 C 0.95427 0.30969 0.32799 0.0
C898 C 0.94723 0.34356 0.33556 0.0
C899 C 0.90941 0.34637 0.33239 0.0
C900 C 0.90325 0.37875 0.33934 0.0
C901 C 0.93456 0.40838 0.34957 0.0
C902 C 0.97203 0.40561 0.3529 0.0
C903 C 0.97838 0.37331 0.34597 0.0
H904 H 0.92975 0.43346 0.35493 0.0
H905 H 0.99902 0.12692 0.2861 0.0
loop_
_geom_bond_atom_site_label_1
_geom_bond_atom_site_label_2
_geom_bond_distance
_geom_bond_site_symmetry_2
_ccdc_geom_bond_type
Li0 N17 1.990 . S
Li0 O60 1.956 . S
Li0 O61 1.970 1_455 S
Li0 O62 1.961 1_545 S
Li1 N25 1.990 . S
Li1 O60 1.970 1_655 S
Li1 O61 1.956 . S
Li1 O63 1.961 1_545 S
Li2 N47 1.990 . S
Li2 O60 1.961 1_565 S
Li2 O62 1.956 . S
Li2 O63 1.970 1_455 S
Li3 N53 1.990 . S
Li3 O61 1.961 1_565 S
Li3 O62 1.970 1_655 S
Li3 O63 1.956 . S
C4 C6 1.348 . S
C4 C7 1.356 . S
C4 O60 1.325 . S
N5 C8 1.314 . S
N5 C9 1.279 . S
C6 C4 1.348 . S
C6 C8 1.353 . S
C6 H64 0.929 . S
C7 C4 1.356 . S
C7 C9 1.358 . S
C7 H65 0.930 . S
C8 N5 1.314 . S
C8 C6 1.353 . S
C8 H66 0.930 . S
C9 N5 1.279 . S
C9 C7 1.358 . S
C9 H67 0.930 . S
C10 C13 1.348 1_655 S
C10 C14 1.356 . S
C10 O61 1.325 . S
C11 N12 1.279 . S
C11 C14 1.358 . S
C11 H68 0.930 . S
N12 C11 1.279 . S
N12 C15 1.314 . S
C13 C10 1.348 1_455 S
C13 C15 1.353 1_455 S
C13 H69 0.929 . S
C14 C10 1.356 . S
C14 C11 1.358 . S
C14 H70 0.930 . S
C15 N12 1.314 . S
C15 C13 1.353 1_655 S
C15 H71 0.930 1_655 S
C16 N17 1.314 . S
C16 C21 1.353 . S
C16 H22 0.930 . S
N17 Li0 1.990 . S
N17 C16 1.314 . S
N17 C19 1.279 . S
C18 C19 1.358 . S
C18 C20 1.356 . S
C18 H72 0.930 . S
C19 N17 1.279 . S
C19 C18 1.358 . S
C19 H23 0.930 . S
C20 C18 1.356 . S
C20 C21 1.348 . S
C21 C16 1.353 . S
C21 C20 1.348 . S
C21 H73 0.929 . S
H22 C16 0.930 . S
H23 C19 0.930 . S
C24 N25 1.314 . S
C24 C26 1.353 . S
C24 H30 0.930 . S
N25 Li1 1.990 . S
N25 C24 1.314 . S
N25 C28 1.279 . S
C26 C24 1.353 . S
C26 C29 1.348 . S
C26 H74 0.929 . S
C27 C28 1.358 . S
C27 C29 1.356 . S
C27 H75 0.930 . S
C28 N25 1.279 . S
C28 C27 1.358 . S
C28 H31 0.930 . S
C29 C26 1.348 . S
C29 C27 1.356 . S
H30 C24 0.930 . S
H31 C28 0.930 . S
C32 C34 1.348 1_455 S
C32 C35 1.356 . S
C32 O62 1.325 . S
N33 C36 1.314 . S
N33 C37 1.279 . S
C34 C32 1.348 1_655 S
C34 C36 1.353 1_655 S
C34 H76 0.929 . S
C35 C32 1.356 . S
C35 C37 1.358 . S
C35 H77 0.930 . S
C36 N33 1.314 . S
C36 C34 1.353 1_455 S
C36 H78 0.930 1_455 S
C37 N33 1.279 . S
C37 C35 1.358 . S
C37 H79 0.930 . S
C38 C39 1.348 . S
C38 C40 1.356 . S
C38 O63 1.325 . S
C39 C38 1.348 . S
C39 C41 1.353 . S
C39 H80 0.929 . S
C40 C38 1.356 . S
C40 C42 1.358 . S
C40 H81 0.930 . S
C41 C39 1.353 . S
C41 N43 1.314 . S
C41 H82 0.930 . S
C42 C40 1.358 . S
C42 N43 1.279 . S
C42 H83 0.930 . S
N43 C41 1.314 . S
N43 C42 1.279 . S
C44 C46 1.353 . S
C44 N47 1.314 . S
C44 H50 0.930 . S
C45 N47 1.279 . S
C45 C48 1.358 . S
C45 H51 0.930 . S
C46 C44 1.353 . S
C46 C49 1.348 . S
C46 H84 0.929 . S
N47 Li2 1.990 . S
N47 C44 1.314 . S
N47 C45 1.279 . S
C48 C45 1.358 . S
C48 C49 1.356 . S
C48 H85 0.930 . S
C49 C46 1.348 . S
C49 C48 1.356 . S
H50 C44 0.930 . S
H51 C45 0.930 . S
C52 N53 1.314 . S
C52 C54 1.353 . S
C52 H58 0.930 . S
N53 Li3 1.990 . S
N53 C52 1.314 . S
N53 C56 1.279 . S
C54 C52 1.353 . S
C54 C57 1.348 . S
C54 H86 0.929 . S
C55 C56 1.358 . S
C55 C57 1.356 . S
C55 H87 0.930 . S
C56 N53 1.279 . S
C56 C55 1.358 . S
C56 H59 0.930 . S
C57 C54 1.348 . S
C57 C55 1.356 . S
H58 C52 0.930 . S
H59 C56 0.930 . S
O60 Li0 1.956 . S
O60 Li1 1.970 1_455 S
O60 Li2 1.961 1_545 S
O60 C4 1.325 . S
O61 Li0 1.970 1_655 S
O61 Li1 1.956 . S
O61 Li3 1.961 1_545 S
O61 C10 1.325 . S
O62 Li0 1.961 1_565 S
O62 Li2 1.956 . S
O62 Li3 1.970 1_455 S
O62 C32 1.325 . S
O63 Li1 1.961 1_565 S
O63 Li2 1.970 1_655 S
O63 Li3 1.956 . S
O63 C38 1.325 . S
H64 C6 0.929 . S
H65 C7 0.930 . S
H66 C8 0.930 . S
H67 C9 0.930 . S
H68 C11 0.930 . S
H69 C13 0.929 . S
H70 C14 0.930 . S
H71 C15 0.930 1_455 S
H72 C18 0.930 . S
H73 C21 0.929 . S
H74 C26 0.929 . S
H75 C27 0.930 . S
H76 C34 0.929 . S
H77 C35 0.930 . S
H78 C36 0.930 1_655 S
H79 C37 0.930 . S
H80 C39 0.929 . S
H81 C40 0.930 . S
H82 C41 0.930 . S
H83 C42 0.930 . S
H84 C46 0.929 . S
H85 C48 0.930 . S
H86 C54 0.929 . S
H87 C55 0.930 . S
Li88 N105 1.990 . S
Li88 O148 1.956 . S
Li88 O149 1.970 1_665 S
Li88 O150 1.961 . S
Li89 N113 1.990 . S
Li89 O148 1.970 1_445 S
Li89 O149 1.956 . S
Li89 O151 1.961 . S
Li90 N135 1.990 . S
Li90 O148 1.961 . S
Li90 O150 1.956 . S
Li90 O151 1.970 1_665 S
Li91 N141 1.990 . S
Li91 O149 1.961 . S
Li91 O150 1.970 1_445 S
Li91 O151 1.956 . S
C92 C94 1.348 1_655 S
C92 C95 1.356 . S
C92 O148 1.325 . S
N93 C96 1.314 . S
N93 C97 1.279 . S
C94 C92 1.348 1_455 S
C94 C96 1.353 1_455 S
C94 H152 0.929 . S
C95 C92 1.356 . S
C95 C97 1.358 . S
C95 H153 0.930 . S
C96 N93 1.314 . S
C96 C94 1.353 1_655 S
C96 H154 0.930 1_655 S
C97 N93 1.279 . S
C97 C95 1.358 . S
C97 H155 0.930 . S
C98 C101 1.348 1_545 S
C98 C102 1.356 . S
C98 O149 1.325 . S
C99 N100 1.279 . S
C99 C102 1.358 . S
C99 H156 0.930 . S
N100 C99 1.279 . S
N100 C103 1.314 . S
C101 C98 1.348 1_565 S
C101 C103 1.353 1_565 S
C101 H157 0.929 . S
C102 C98 1.356 . S
C102 C99 1.358 . S
C102 H158 0.930 . S
C103 N100 1.314 . S
C103 C101 1.353 1_545 S
C103 H159 0.930 1_545 S
C104 N105 1.314 . S
C104 C109 1.353 . S
C104 H110 0.930 . S
N105 Li88 1.990 . S
N105 C104 1.314 . S
N105 C107 1.279 . S
C106 C107 1.358 . S
C106 C108 1.356 . S
C106 H160 0.930 . S
C107 N105 1.279 . S
C107 C106 1.358 . S
C107 H111 0.930 . S
C108 C106 1.356 . S
C108 C109 1.348 . S
C109 C104 1.353 . S
C109 C108 1.348 . S
C109 H161 0.929 . S
H110 C104 0.930 . S
H111 C107 0.930 . S
C112 N113 1.314 . S
C112 C114 1.353 . S
C112 H118 0.930 . S
N113 Li89 1.990 . S
N113 C112 1.314 . S
N113 C116 1.279 . S
C114 C112 1.353 . S
C114 C117 1.348 . S
C114 H162 0.929 . S
C115 C116 1.358 . S
C115 C117 1.356 . S
C115 H163 0.930 . S
C116 N113 1.279 . S
C116 C115 1.358 . S
C116 H119 0.930 . S
C117 C114 1.348 . S
C117 C115 1.356 . S
H118 C112 0.930 . S
H119 C116 0.930 . S
C120 C122 1.348 1_565 S
C120 C123 1.356 . S
C120 O150 1.325 . S
N121 C124 1.314 . S
N121 C125 1.279 . S
C122 C120 1.348 1_545 S
C122 C124 1.353 1_545 S
C122 H164 0.929 . S
C123 C120 1.356 . S
C123 C125 1.358 . S
C123 H165 0.930 . S
C124 N121 1.314 . S
C124 C122 1.353 1_565 S
C124 H166 0.930 1_565 S
C125 N121 1.279 . S
C125 C123 1.358 . S
C125 H167 0.930 . S
C126 C127 1.348 1_455 S
C126 C128 1.356 . S
C126 O151 1.325 . S
C127 C126 1.348 1_655 S
C127 C129 1.353 1_655 S
C127 H168 0.929 . S
C128 C126 1.356 . S
C128 C130 1.358 . S
C128 H169 0.930 . S
C129 C127 1.353 1_455 S
C129 N131 1.314 . S
C129 H170 0.930 1_455 S
C130 C128 1.358 . S
C130 N131 1.279 . S
C130 H171 0.930 . S
N131 C129 1.314 . S
N131 C130 1.279 . S
C132 C134 1.353 . S
C132 N135 1.314 . S
C132 H138 0.930 . S
C133 N135 1.279 . S
C133 C136 1.358 . S
C133 H139 0.930 . S
C134 C132 1.353 . S
C134 C137 1.348 . S
C134 H172 0.929 . S
N135 Li90 1.990 . S
N135 C132 1.314 . S
N135 C133 1.279 . S
C136 C133 1.358 . S
C136 C137 1.356 . S
C136 H173 0.930 . S
C137 C134 1.348 . S
C137 C136 1.356 . S
H138 C132 0.930 . S
H139 C133 0.930 . S
C140 N141 1.314 . S
C140 C142 1.353 . S
C140 H146 0.930 . S
N141 Li91 1.990 . S
N141 C140 1.314 . S
N141 C144 1.279 . S
C142 C140 1.353 . S
C142 C145 1.348 . S
C142 H174 0.929 . S
C143 C144 1.358 . S
C143 C145 1.356 . S
C143 H175 0.930 . S
C144 N141 1.279 . S
C144 C143 1.358 . S
C144 H147 0.930 . S
C145 C142 1.348 . S
C145 C143 1.356 . S
H146 C140 0.930 . S
H147 C144 0.930 . S
O148 Li88 1.956 . S
O148 Li89 1.970 1_665 S
O148 Li90 1.961 . S
O148 C92 1.325 . S
O149 Li88 1.970 1_445 S
O149 Li89 1.956 . S
O149 Li91 1.961 . S
O149 C98 1.325 . S
O150 Li88 1.961 . S
O150 Li90 1.956 . S
O150 Li91 1.970 1_665 S
O150 C120 1.325 . S
O151 Li89 1.961 . S
O151 Li90 1.970 1_445 S
O151 Li91 1.956 . S
O151 C126 1.325 . S
H152 C94 0.929 . S
H153 C95 0.930 . S
H154 C96 0.930 1_455 S
H155 C97 0.930 . S
H156 C99 0.930 . S
H157 C101 0.929 . S
H158 C102 0.930 . S
H159 C103 0.930 1_565 S
H160 C106 0.930 . S
H161 C109 0.929 . S
H162 C114 0.929 . S
H163 C115 0.930 . S
H164 C122 0.929 . S
H165 C123 0.930 . S
H166 C124 0.930 1_545 S
H167 C125 0.930 . S
H168 C127 0.929 . S
H169 C128 0.930 . S
H170 C129 0.930 1_655 S
H171 C130 0.930 . S
H172 C134 0.929 . S
H173 C136 0.930 . S
H174 C142 0.929 . S
H175 C143 0.930 . S
Li176 N193 1.990 . S
Li176 O236 1.956 . S
Li176 O237 1.970 1_565 S
Li176 O238 1.961 1_455 S
Li177 N201 1.990 . S
Li177 O236 1.970 1_545 S
Li177 O237 1.956 . S
Li177 O239 1.961 1_455 S
Li178 N223 1.990 . S
Li178 O236 1.961 1_655 S
Li178 O238 1.956 . S
Li178 O239 1.970 1_565 S
Li179 N229 1.990 . S
Li179 O237 1.961 1_655 S
Li179 O238 1.970 1_545 S
Li179 O239 1.956 . S
C180 C182 1.348 1_565 S
C180 C183 1.356 . S
C180 O236 1.325 . S
N181 C184 1.314 . S
N181 C185 1.279 . S
C182 C180 1.348 1_545 S
C182 C184 1.353 1_545 S
C182 H240 0.929 . S
C183 C180 1.356 . S
C183 C185 1.358 . S
C183 H241 0.930 . S
C184 N181 1.314 . S
C184 C182 1.353 1_565 S
C184 H242 0.930 1_565 S
C185 N181 1.279 . S
C185 C183 1.358 . S
C185 H243 0.930 . S
C186 C189 1.348 . S
C186 C190 1.356 . S
C186 O237 1.325 . S
C187 N188 1.279 . S
C187 C190 1.358 . S
C187 H244 0.930 . S
N188 C187 1.279 . S
N188 C191 1.314 . S
C189 C186 1.348 . S
C189 C191 1.353 . S
C189 H245 0.929 . S
C190 C186 1.356 . S
C190 C187 1.358 . S
C190 H246 0.930 . S
C191 N188 1.314 . S
C191 C189 1.353 . S
C191 H247 0.930 . S
C192 N193 1.314 . S
C192 C197 1.353 . S
C192 H198 0.930 . S
N193 Li176 1.990 . S
N193 C192 1.314 . S
N193 C195 1.279 . S
C194 C195 1.358 . S
C194 C196 1.356 . S
C194 H248 0.930 . S
C195 N193 1.279 . S
C195 C194 1.358 . S
C195 H199 0.930 . S
C196 C194 1.356 . S
C196 C197 1.348 . S
C197 C192 1.353 . S
C197 C196 1.348 . S
C197 H249 0.929 . S
H198 C192 0.930 . S
H199 C195 0.930 . S
C200 N201 1.314 . S
C200 C202 1.353 . S
C200 H206 0.930 . S
N201 Li177 1.990 . S
N201 C200 1.314 . S
N201 C204 1.279 . S
C202 C200 1.353 . S
C202 C205 1.348 . S
C202 H250 0.929 . S
C203 C204 1.358 . S
C203 C205 1.356 . S
C203 H251 0.930 . S
C204 N201 1.279 . S
C204 C203 1.358 . S
C204 H207 0.930 . S
C205 C202 1.348 . S
C205 C203 1.356 . S
H206 C200 0.930 . S
H207 C204 0.930 . S
C208 C210 1.348 . S
C208 C211 1.356 . S
C208 O238 1.325 . S
N209 C212 1.314 . S
N209 C213 1.279 . S
C210 C208 1.348 . S
C210 C212 1.353 . S
C210 H252 0.929 . S
C211 C208 1.356 . S
C211 C213 1.358 . S
C211 H253 0.930 . S
C212 N209 1.314 . S
C212 C210 1.353 . S
C212 H254 0.930 . S
C213 N209 1.279 . S
C213 C211 1.358 . S
C213 H255 0.930 . S
C214 C215 1.348 1_545 S
C214 C216 1.356 . S
C214 O239 1.325 . S
C215 C214 1.348 1_565 S
C215 C217 1.353 1_565 S
C215 H256 0.929 . S
C216 C214 1.356 . S
C216 C218 1.358 . S
C216 H257 0.930 . S
C217 C215 1.353 1_545 S
C217 N219 1.314 . S
C217 H258 0.930 1_545 S
C218 C216 1.358 . S
C218 N219 1.279 . S
C218 H259 0.930 . S
N219 C217 1.314 . S
N219 C218 1.279 . S
C220 C222 1.353 . S
C220 N223 1.314 . S
C220 H226 0.930 . S
C221 N223 1.279 . S
C221 C224 1.358 . S
C221 H227 0.930 . S
C222 C220 1.353 . S
C222 C225 1.348 . S
C222 H260 0.929 . S
N223 Li178 1.990 . S
N223 C220 1.314 . S
N223 C221 1.279 . S
C224 C221 1.358 . S
C224 C225 1.356 . S
C224 H261 0.930 . S
C225 C222 1.348 . S
C225 C224 1.356 . S
H226 C220 0.930 . S
H227 C221 0.930 . S
C228 N229 1.314 . S
C228 C230 1.353 . S
C228 H234 0.930 . S
N229 Li179 1.990 . S
N229 C228 1.314 . S
N229 C232 1.279 . S
C230 C228 1.353 . S
C230 C233 1.348 . S
C230 H262 0.929 . S
C231 C232 1.358 . S
C231 C233 1.356 . S
C231 H263 0.930 . S
C232 N229 1.279 . S
C232 C231 1.358 . S
C232 H235 0.930 . S
C233 C230 1.348 . S
C233 C231 1.356 . S
H234 C228 0.930 . S
H235 C232 0.930 . S
O236 Li176 1.956 . S
O236 Li177 1.970 1_565 S
O236 Li178 1.961 1_455 S
O236 C180 1.325 . S
O237 Li176 1.970 1_545 S
O237 Li177 1.956 . S
O237 Li179 1.961 1_455 S
O237 C186 1.325 . S
O238 Li176 1.961 1_655 S
O238 Li178 1.956 . S
O238 Li179 1.970 1_565 S
O238 C208 1.325 . S
O239 Li177 1.961 1_655 S
O239 Li178 1.970 1_545 S
O239 Li179 1.956 . S
O239 C214 1.325 . S
H240 C182 0.929 . S
H241 C183 0.930 . S
H242 C184 0.930 1_545 S
H243 C185 0.930 . S
H244 C187 0.930 . S
H245 C189 0.929 . S
H246 C190 0.930 . S
H247 C191 0.930 . S
H248 C194 0.930 . S
H249 C197 0.929 . S
H250 C202 0.929 . S
H251 C203 0.930 . S
H252 C210 0.929 . S
H253 C211 0.930 . S
H254 C212 0.930 . S
H255 C213 0.930 . S
H256 C215 0.929 . S
H257 C216 0.930 . S
H258 C217 0.930 1_565 S
H259 C218 0.930 . S
H260 C222 0.929 . S
H261 C224 0.930 . S
H262 C230 0.929 . S
H263 C231 0.930 . S
C264 O266 1.252 . S
C264 O268 1.255 1_455 S
C265 O272 1.245 . S
C265 O273 1.259 1_655 S
O266 C264 1.252 . S
O266 Zn267 2.028 . S
Zn267 O266 2.028 . S
Zn267 O271 2.035 . S
Zn267 O273 2.035 . S
Zn267 O274 2.028 . S
O268 C264 1.255 1_655 S
O268 Zn269 2.035 . S
Zn269 O268 2.035 . S
Zn269 O270 2.028 . S
Zn269 O272 2.028 . S
Zn269 O275 2.035 . S
O270 Zn269 2.028 . S
O270 C276 1.245 . S
O271 Zn267 2.035 . S
O271 C276 1.259 1_455 S
O272 C265 1.245 . S
O272 Zn269 2.028 . S
O273 C265 1.259 1_455 S
O273 Zn267 2.035 . S
O274 Zn267 2.028 . S
O274 C277 1.252 . S
O275 Zn269 2.035 . S
O275 C277 1.255 1_655 S
C276 O270 1.245 . S
C276 O271 1.259 1_655 S
C277 O274 1.252 . S
C277 O275 1.255 1_455 S
C278 O280 1.246 . S
C278 O282 1.260 1_565 S
C279 O286 1.250 . S
C279 O287 1.253 1_545 S
O280 C278 1.246 . S
O280 Zn281 2.028 . S
Zn281 O280 2.028 . S
Zn281 O285 2.035 . S
Zn281 O287 2.035 . S
Zn281 O288 2.028 . S
O282 C278 1.260 1_545 S
O282 Zn283 2.035 . S
Zn283 O282 2.035 . S
Zn283 O284 2.028 . S
Zn283 O286 2.028 . S
Zn283 O289 2.035 . S
O284 Zn283 2.028 . S
O284 C290 1.250 . S
O285 Zn281 2.035 . S
O285 C290 1.253 1_565 S
O286 C279 1.250 . S
O286 Zn283 2.028 . S
O287 C279 1.253 1_565 S
O287 Zn281 2.035 . S
O288 Zn281 2.028 . S
O288 C291 1.246 . S
O289 Zn283 2.035 . S
O289 C291 1.260 1_545 S
C290 O284 1.250 . S
C290 O285 1.253 1_545 S
C291 O288 1.246 . S
C291 O289 1.260 1_565 S
C292 O294 1.247 . S
C292 O296 1.258 . S
C293 O300 1.247 . S
C293 O301 1.258 . S
O294 C292 1.247 . S
O294 Zn295 2.028 . S
Zn295 O294 2.028 . S
Zn295 O299 2.035 . S
Zn295 O301 2.035 . S
Zn295 O302 2.028 . S
O296 C292 1.258 . S
O296 Zn297 2.035 . S
Zn297 O296 2.035 . S
Zn297 O298 2.028 . S
Zn297 O300 2.028 . S
Zn297 O303 2.035 . S
O298 Zn297 2.028 . S
O298 C304 1.247 . S
O299 Zn295 2.035 . S
O299 C304 1.258 . S
O300 C293 1.247 . S
O300 Zn297 2.028 . S
O301 C293 1.258 . S
O301 Zn295 2.035 . S
O302 Zn295 2.028 . S
O302 C305 1.247 . S
O303 Zn297 2.035 . S
O303 C305 1.258 . S
C304 O298 1.247 . S
C304 O299 1.258 . S
C305 O302 1.247 . S
C305 O303 1.258 . S
H306 C324 0.951 1_455 S
H307 C326 0.947 1_455 S
H308 C328 0.950 . S
H309 C329 0.950 . S
H310 C331 0.950 . S
H311 C334 0.950 . S
H312 C335 0.950 1_655 S
H313 C337 0.950 . S
H314 C338 0.950 . S
H315 C339 0.951 . S
H316 C341 0.951 . S
H317 C343 0.950 . S
H318 C344 0.950 . S
H319 C346 0.950 . S
H320 C349 0.950 . S
H321 C350 0.950 . S
H322 C352 0.950 . S
H323 C353 0.950 . S
C324 H306 0.951 1_655 S
C324 C325 1.366 . S
C324 C326 1.386 . S
C325 C324 1.366 . S
C325 C329 1.385 . S
C326 H307 0.947 1_655 S
C326 C324 1.386 . S
C326 C327 1.371 . S
C327 C326 1.371 . S
C327 C328 1.414 . S
C327 C330 1.499 . S
C328 H308 0.950 . S
C328 C327 1.414 . S
C328 C329 1.374 . S
C329 H309 0.950 . S
C329 C325 1.385 . S
C329 C328 1.374 . S
C330 C327 1.499 . S
C330 C331 1.373 . S
C330 C332 1.389 . S
C331 H310 0.950 . S
C331 C330 1.373 . S
C331 C347 1.377 . S
C332 C330 1.389 . S
C332 C333 1.524 1_655 S
C332 C346 1.377 1_655 S
C333 C332 1.524 1_455 S
C333 C334 1.397 1_455 S
C333 C338 1.363 . S
C334 H311 0.950 . S
C334 C333 1.397 1_655 S
C334 C335 1.334 1_655 S
C335 H312 0.950 1_455 S
C335 C334 1.334 1_455 S
C335 C336 1.287 . S
C336 C335 1.287 . S
C336 C337 1.524 . S
C336 H355 0.913 . S
C337 H313 0.950 . S
C337 C336 1.524 . S
C337 C338 1.415 . S
C338 H314 0.950 . S
C338 C333 1.363 . S
C338 C337 1.415 . S
C339 H315 0.951 . S
C339 C340 1.366 . S
C339 C341 1.388 . S
C340 C339 1.366 . S
C340 C344 1.385 1_655 S
C341 H316 0.951 . S
C341 C339 1.388 . S
C341 C342 1.366 . S
C342 C341 1.366 . S
C342 C343 1.414 1_655 S
C342 C345 1.499 . S
C343 H317 0.950 . S
C343 C342 1.414 1_455 S
C343 C344 1.374 . S
C344 H318 0.950 . S
C344 C340 1.385 1_455 S
C344 C343 1.374 . S
C345 C342 1.499 . S
C345 C346 1.373 1_655 S
C345 C347 1.389 . S
C346 H319 0.950 . S
C346 C332 1.377 1_455 S
C346 C345 1.373 1_455 S
C347 C331 1.377 . S
C347 C345 1.389 . S
C347 C348 1.524 . S
C348 C347 1.524 . S
C348 C349 1.397 . S
C348 C353 1.363 . S
C349 H320 0.950 . S
C349 C348 1.397 . S
C349 C350 1.334 . S
C350 H321 0.950 . S
C350 C349 1.334 . S
C350 C351 1.287 . S
C351 C350 1.287 . S
C351 C352 1.524 . S
C351 H354 0.999 . S
C352 H322 0.950 . S
C352 C351 1.524 . S
C352 C353 1.415 . S
C353 H323 0.950 . S
C353 C348 1.363 . S
C353 C352 1.415 . S
H354 C351 0.999 . S
H355 C336 0.913 . S
H356 C374 0.951 1_545 S
H357 C376 0.951 1_545 S
H358 C378 0.950 . S
H359 C379 0.950 . S
H360 C381 0.950 . S
H361 C384 0.950 . S
H362 C385 0.950 . S
H363 C387 0.950 . S
H364 C388 0.950 . S
H365 C389 0.951 . S
H366 C391 0.951 . S
H367 C393 0.950 . S
H368 C394 0.950 . S
H369 C396 0.950 1_545 S
H370 C399 0.950 1_545 S
H371 C400 0.950 . S
H372 C402 0.950 . S
H373 C403 0.950 . S
C374 H356 0.951 1_565 S
C374 C375 1.366 . S
C374 C376 1.388 . S
C375 C374 1.366 . S
C375 C379 1.385 . S
C376 H357 0.951 1_565 S
C376 C374 1.388 . S
C376 C377 1.366 . S
C377 C376 1.366 . S
C377 C378 1.414 . S
C377 C380 1.499 . S
C378 H358 0.950 . S
C378 C377 1.414 . S
C378 C379 1.374 . S
C379 H359 0.950 . S
C379 C375 1.385 . S
C379 C378 1.374 . S
C380 C377 1.499 . S
C380 C381 1.373 . S
C380 C382 1.389 . S
C381 H360 0.950 . S
C381 C380 1.373 . S
C381 C397 1.377 . S
C382 C380 1.389 . S
C382 C383 1.524 1_565 S
C382 C396 1.377 . S
C383 C382 1.524 1_545 S
C383 C384 1.397 1_545 S
C383 C388 1.363 . S
C384 H361 0.950 . S
C384 C383 1.397 1_565 S
C384 C385 1.334 . S
C385 H362 0.950 . S
C385 C384 1.334 . S
C385 C386 1.287 1_565 S
C386 C385 1.287 1_545 S
C386 C387 1.524 . S
C386 H405 0.913 . S
C387 H363 0.950 . S
C387 C386 1.524 . S
C387 C388 1.415 . S
C388 H364 0.950 . S
C388 C383 1.363 . S
C388 C387 1.415 . S
C389 H365 0.951 . S
C389 C390 1.366 . S
C389 C391 1.388 . S
C390 C389 1.366 . S
C390 C394 1.385 1_565 S
C391 H366 0.951 . S
C391 C389 1.388 . S
C391 C392 1.366 . S
C392 C391 1.366 . S
C392 C393 1.414 1_565 S
C392 C395 1.499 . S
C393 H367 0.950 . S
C393 C392 1.414 1_545 S
C393 C394 1.374 . S
C394 H368 0.950 . S
C394 C390 1.385 1_545 S
C394 C393 1.374 . S
C395 C392 1.499 . S
C395 C396 1.373 . S
C395 C397 1.389 . S
C396 H369 0.950 1_565 S
C396 C382 1.377 . S
C396 C395 1.373 . S
C397 C381 1.377 . S
C397 C395 1.389 . S
C397 C398 1.524 . S
C398 C397 1.524 . S
C398 C399 1.397 . S
C398 C403 1.363 . S
C399 H370 0.950 1_565 S
C399 C398 1.397 . S
C399 C400 1.334 . S
C400 H371 0.950 . S
C400 C399 1.334 . S
C400 C401 1.287 . S
C401 C400 1.287 . S
C401 C402 1.524 . S
C401 H404 0.999 . S
C402 H372 0.950 . S
C402 C401 1.524 . S
C402 C403 1.415 . S
C403 H373 0.950 . S
C403 C398 1.363 . S
C403 C402 1.415 . S
H404 C401 0.999 . S
H405 C386 0.913 . S
H406 C424 0.951 . S
H407 C426 0.951 . S
H408 C428 0.950 . S
H409 C429 0.950 . S
H410 C431 0.950 . S
H411 C434 0.950 . S
H412 C435 0.950 . S
H413 C437 0.950 . S
H414 C438 0.950 . S
H415 C439 0.951 . S
H416 C441 0.951 . S
H417 C443 0.950 . S
H418 C444 0.950 . S
H419 C446 0.950 . S
H420 C449 0.950 . S
H421 C450 0.950 . S
H422 C452 0.950 . S
H423 C453 0.950 . S
C424 H406 0.951 . S
C424 C425 1.366 . S
C424 C426 1.388 . S
C425 C424 1.366 . S
C425 C429 1.385 . S
C426 H407 0.951 . S
C426 C424 1.388 . S
C426 C427 1.366 . S
C427 C426 1.366 . S
C427 C428 1.414 . S
C427 C430 1.499 . S
C428 H408 0.950 . S
C428 C427 1.414 . S
C428 C429 1.374 . S
C429 H409 0.950 . S
C429 C425 1.385 . S
C429 C428 1.374 . S
C430 C427 1.499 . S
C430 C431 1.373 . S
C430 C432 1.389 . S
C431 H410 0.950 . S
C431 C430 1.373 . S
C431 C447 1.377 . S
C432 C430 1.389 . S
C432 C433 1.524 . S
C432 C446 1.377 . S
C433 C432 1.524 . S
C433 C434 1.397 . S
C433 C438 1.363 . S
C434 H411 0.950 . S
C434 C433 1.397 . S
C434 C435 1.334 . S
C435 H412 0.950 . S
C435 C434 1.334 . S
C435 C436 1.287 . S
C436 C435 1.287 . S
C436 C437 1.524 . S
C436 H455 0.913 . S
C437 H413 0.950 . S
C437 C436 1.524 . S
C437 C438 1.415 . S
C438 H414 0.950 . S
C438 C433 1.363 . S
C438 C437 1.415 . S
C439 H415 0.951 . S
C439 C440 1.366 . S
C439 C441 1.388 . S
C440 C439 1.366 . S
C440 C444 1.385 . S
C441 H416 0.951 . S
C441 C439 1.388 . S
C441 C442 1.366 . S
C442 C441 1.366 . S
C442 C443 1.414 . S
C442 C445 1.499 . S
C443 H417 0.950 . S
C443 C442 1.414 . S
C443 C444 1.374 . S
C444 H418 0.950 . S
C444 C440 1.385 . S
C444 C443 1.374 . S
C445 C442 1.499 . S
C445 C446 1.373 . S
C445 C447 1.389 . S
C446 H419 0.950 . S
C446 C432 1.377 . S
C446 C445 1.373 . S
C447 C431 1.377 . S
C447 C445 1.389 . S
C447 C448 1.524 . S
C448 C447 1.524 . S
C448 C449 1.397 . S
C448 C453 1.363 . S
C449 H420 0.950 . S
C449 C448 1.397 . S
C449 C450 1.334 . S
C450 H421 0.950 . S
C450 C449 1.334 . S
C450 C451 1.287 . S
C451 C450 1.287 . S
C451 C452 1.524 . S
C451 H454 0.999 . S
C452 H422 0.950 . S
C452 C451 1.524 . S
C452 C453 1.415 . S
C453 H423 0.950 . S
C453 C448 1.363 . S
C453 C452 1.415 . S
H454 C451 0.999 . S
H455 C436 0.913 . S
H456 C474 0.951 1_655 S
H457 C476 0.944 1_655 S
H458 C478 0.950 . S
H459 C479 0.950 . S
H460 C481 0.950 . S
H461 C484 0.950 . S
H462 C485 0.950 1_455 S
H463 C487 0.950 . S
H464 C488 0.950 . S
H465 C489 0.951 . S
H466 C491 0.951 . S
H467 C493 0.950 . S
H468 C494 0.950 . S
H469 C496 0.950 . S
H470 C499 0.950 . S
H471 C500 0.950 . S
H472 C502 0.950 . S
H473 C503 0.950 . S
C474 H456 0.951 1_455 S
C474 C475 1.366 . S
C474 C476 1.385 . S
C475 C474 1.366 . S
C475 C479 1.385 . S
C476 H457 0.944 1_455 S
C476 C474 1.385 . S
C476 C477 1.374 . S
C477 C476 1.374 . S
C477 C478 1.414 . S
C477 C480 1.499 . S
C478 H458 0.950 . S
C478 C477 1.414 . S
C478 C479 1.374 . S
C479 H459 0.950 . S
C479 C475 1.385 . S
C479 C478 1.374 . S
C480 C477 1.499 . S
C480 C481 1.373 . S
C480 C482 1.389 . S
C481 H460 0.950 . S
C481 C480 1.373 . S
C481 C497 1.377 . S
C482 C480 1.389 . S
C482 C483 1.524 1_455 S
C482 C496 1.377 1_455 S
C483 C482 1.524 1_655 S
C483 C484 1.397 1_655 S
C483 C488 1.363 . S
C484 H461 0.950 . S
C484 C483 1.397 1_455 S
C484 C485 1.334 1_455 S
C485 H462 0.950 1_655 S
C485 C484 1.334 1_655 S
C485 C486 1.287 . S
C486 C485 1.287 . S
C486 C487 1.524 . S
C486 H505 0.913 . S
C487 H463 0.950 . S
C487 C486 1.524 . S
C487 C488 1.415 . S
C488 H464 0.950 . S
C488 C483 1.363 . S
C488 C487 1.415 . S
C489 H465 0.951 . S
C489 C490 1.366 . S
C489 C491 1.388 . S
C490 C489 1.366 . S
C490 C494 1.385 1_455 S
C491 H466 0.951 . S
C491 C489 1.388 . S
C491 C492 1.366 . S
C492 C491 1.366 . S
C492 C493 1.414 1_455 S
C492 C495 1.499 . S
C493 H467 0.950 . S
C493 C492 1.414 1_655 S
C493 C494 1.374 . S
C494 H468 0.950 . S
C494 C490 1.385 1_655 S
C494 C493 1.374 . S
C495 C492 1.499 . S
C495 C496 1.373 1_455 S
C495 C497 1.389 . S
C496 H469 0.950 . S
C496 C482 1.377 1_655 S
C496 C495 1.373 1_655 S
C497 C481 1.377 . S
C497 C495 1.389 . S
C497 C498 1.524 . S
C498 C497 1.524 . S
C498 C499 1.397 . S
C498 C503 1.363 . S
C499 H470 0.950 . S
C499 C498 1.397 . S
C499 C500 1.334 . S
C500 H471 0.950 . S
C500 C499 1.334 . S
C500 C501 1.287 . S
C501 C500 1.287 . S
C501 C502 1.524 . S
C501 H504 0.999 . S
C502 H472 0.950 . S
C502 C501 1.524 . S
C502 C503 1.415 . S
C503 H473 0.950 . S
C503 C498 1.363 . S
C503 C502 1.415 . S
H504 C501 0.999 . S
H505 C486 0.913 . S
H506 C524 0.951 . S
H507 C526 0.951 . S
H508 C528 0.950 . S
H509 C529 0.950 . S
H510 C531 0.950 . S
H511 C534 0.950 . S
H512 C535 0.950 . S
H513 C537 0.950 . S
H514 C538 0.950 1_545 S
H515 C539 0.951 . S
H516 C541 0.951 1_565 S
H517 C543 0.950 . S
H518 C544 0.950 . S
H519 C546 0.950 1_565 S
H520 C549 0.950 . S
H521 C550 0.950 . S
H522 C552 0.950 . S
H523 C553 0.950 . S
C524 H506 0.951 . S
C524 C525 1.366 . S
C524 C526 1.388 . S
C525 C524 1.366 . S
C525 C529 1.385 . S
C526 H507 0.951 . S
C526 C524 1.388 . S
C526 C527 1.366 . S
C527 C526 1.366 . S
C527 C528 1.414 . S
C527 C530 1.499 . S
C528 H508 0.950 . S
C528 C527 1.414 . S
C528 C529 1.374 . S
C529 H509 0.950 . S
C529 C525 1.385 . S
C529 C528 1.374 . S
C530 C527 1.499 . S
C530 C531 1.373 . S
C530 C532 1.389 . S
C531 H510 0.950 . S
C531 C530 1.373 . S
C531 C547 1.377 . S
C532 C530 1.389 . S
C532 C533 1.524 1_545 S
C532 C546 1.377 . S
C533 C532 1.524 1_565 S
C533 C534 1.397 . S
C533 C538 1.363 . S
C534 H511 0.950 . S
C534 C533 1.397 . S
C534 C535 1.334 . S
C535 H512 0.950 . S
C535 C534 1.334 . S
C535 C536 1.287 . S
C536 C535 1.287 . S
C536 C537 1.524 . S
C536 H555 0.913 . S
C537 H513 0.950 . S
C537 C536 1.524 . S
C537 C538 1.415 . S
C538 H514 0.950 1_565 S
C538 C533 1.363 . S
C538 C537 1.415 . S
C539 H515 0.951 . S
C539 C540 1.366 1_565 S
C539 C541 1.388 1_565 S
C540 C539 1.366 1_545 S
C540 C544 1.385 . S
C541 H516 0.951 1_545 S
C541 C539 1.388 1_545 S
C541 C542 1.366 . S
C542 C541 1.366 . S
C542 C543 1.414 . S
C542 C545 1.499 . S
C543 H517 0.950 . S
C543 C542 1.414 . S
C543 C544 1.374 . S
C544 H518 0.950 . S
C544 C540 1.385 . S
C544 C543 1.374 . S
C545 C542 1.499 . S
C545 C546 1.373 . S
C545 C547 1.389 . S
C546 H519 0.950 1_545 S
C546 C532 1.377 . S
C546 C545 1.373 . S
C547 C531 1.377 . S
C547 C545 1.389 . S
C547 C548 1.524 . S
C548 C547 1.524 . S
C548 C549 1.397 . S
C548 C553 1.363 . S
C549 H520 0.950 . S
C549 C548 1.397 . S
C549 C550 1.334 . S
C550 H521 0.950 . S
C550 C549 1.334 . S
C550 C551 1.287 . S
C551 C550 1.287 . S
C551 C552 1.524 . S
C551 H554 0.999 . S
C552 H522 0.950 . S
C552 C551 1.524 . S
C552 C553 1.415 . S
C553 H523 0.950 . S
C553 C548 1.363 . S
C553 C552 1.415 . S
H554 C551 0.999 . S
H555 C536 0.913 . S
H556 C574 0.951 . S
H557 C576 0.951 . S
H558 C578 0.950 . S
H559 C579 0.950 . S
H560 C581 0.950 . S
H561 C584 0.950 . S
H562 C585 0.950 . S
H563 C587 0.950 . S
H564 C588 0.950 . S
H565 C589 0.951 . S
H566 C591 0.951 . S
H567 C593 0.950 . S
H568 C594 0.950 . S
H569 C596 0.950 . S
H570 C599 0.950 . S
H571 C600 0.950 . S
H572 C602 0.950 . S
H573 C603 0.950 . S
C574 H556 0.951 . S
C574 C575 1.366 . S
C574 C576 1.388 . S
C575 C574 1.366 . S
C575 C579 1.385 . S
C576 H557 0.951 . S
C576 C574 1.388 . S
C576 C577 1.366 . S
C577 C576 1.366 . S
C577 C578 1.414 . S
C577 C580 1.499 . S
C578 H558 0.950 . S
C578 C577 1.414 . S
C578 C579 1.374 . S
C579 H559 0.950 . S
C579 C575 1.385 . S
C579 C578 1.374 . S
C580 C577 1.499 . S
C580 C581 1.373 . S
C580 C582 1.389 . S
C581 H560 0.950 . S
C581 C580 1.373 . S
C581 C597 1.377 . S
C582 C580 1.389 . S
C582 C583 1.524 . S
C582 C596 1.377 . S
C583 C582 1.524 . S
C583 C584 1.397 . S
C583 C588 1.363 . S
C584 H561 0.950 . S
C584 C583 1.397 . S
C584 C585 1.334 . S
C585 H562 0.950 . S
C585 C584 1.334 . S
C585 C586 1.287 . S
C586 C585 1.287 . S
C586 C587 1.524 . S
C586 H605 0.913 . S
C587 H563 0.950 . S
C587 C586 1.524 . S
C587 C588 1.415 . S
C588 H564 0.950 . S
C588 C583 1.363 . S
C588 C587 1.415 . S
C589 H565 0.951 . S
C589 C590 1.366 . S
C589 C591 1.388 . S
C590 C589 1.366 . S
C590 C594 1.385 . S
C591 H566 0.951 . S
C591 C589 1.388 . S
C591 C592 1.366 . S
C592 C591 1.366 . S
C592 C593 1.414 . S
C592 C595 1.499 . S
C593 H567 0.950 . S
C593 C592 1.414 . S
C593 C594 1.374 . S
C594 H568 0.950 . S
C594 C590 1.385 . S
C594 C593 1.374 . S
C595 C592 1.499 . S
C595 C596 1.373 . S
C595 C597 1.389 . S
C596 H569 0.950 . S
C596 C582 1.377 . S
C596 C595 1.373 . S
C597 C581 1.377 . S
C597 C595 1.389 . S
C597 C598 1.524 . S
C598 C597 1.524 . S
C598 C599 1.397 . S
C598 C603 1.363 . S
C599 H570 0.950 . S
C599 C598 1.397 . S
C599 C600 1.334 . S
C600 H571 0.950 . S
C600 C599 1.334 . S
C600 C601 1.287 . S
C601 C600 1.287 . S
C601 C602 1.524 . S
C601 H604 0.999 . S
C602 H572 0.950 . S
C602 C601 1.524 . S
C602 C603 1.415 . S
C603 H573 0.950 . S
C603 C598 1.363 . S
C603 C602 1.415 . S
H604 C601 0.999 . S
H605 C586 0.913 . S
H606 C624 0.951 . S
H607 C626 0.951 . S
H608 C628 0.950 . S
H609 C629 0.950 . S
H610 C631 0.950 . S
H611 C634 0.950 . S
H612 C635 0.950 . S
H613 C637 0.950 . S
H614 C638 0.950 . S
H615 C639 0.951 . S
H616 C641 0.951 . S
H617 C643 0.950 . S
H618 C644 0.950 . S
H619 C646 0.950 . S
H620 C649 0.950 . S
H621 C650 0.950 . S
H622 C652 0.950 . S
H623 C653 0.950 1_545 S
C624 H606 0.951 . S
C624 C625 1.366 . S
C624 C626 1.388 . S
C625 C624 1.366 . S
C625 C629 1.385 . S
C626 H607 0.951 . S
C626 C624 1.388 . S
C626 C627 1.366 . S
C627 C626 1.366 . S
C627 C628 1.414 . S
C627 C630 1.499 . S
C628 H608 0.950 . S
C628 C627 1.414 . S
C628 C629 1.374 . S
C629 H609 0.950 . S
C629 C625 1.385 . S
C629 C628 1.374 . S
C630 C627 1.499 . S
C630 C631 1.373 . S
C630 C632 1.389 . S
C631 H610 0.950 . S
C631 C630 1.373 . S
C631 C647 1.377 . S
C632 C630 1.389 . S
C632 C633 1.524 . S
C632 C646 1.377 . S
C633 C632 1.524 . S
C633 C634 1.397 . S
C633 C638 1.363 . S
C634 H611 0.950 . S
C634 C633 1.397 . S
C634 C635 1.334 . S
C635 H612 0.950 . S
C635 C634 1.334 . S
C635 C636 1.287 . S
C636 C635 1.287 . S
C636 C637 1.524 . S
C636 H655 0.913 . S
C637 H613 0.950 . S
C637 C636 1.524 . S
C637 C638 1.415 . S
C638 H614 0.950 . S
C638 C633 1.363 . S
C638 C637 1.415 . S
C639 H615 0.951 . S
C639 C640 1.366 . S
C639 C641 1.388 . S
C640 C639 1.366 . S
C640 C644 1.385 1_545 S
C641 H616 0.951 . S
C641 C639 1.388 . S
C641 C642 1.366 . S
C642 C641 1.366 . S
C642 C643 1.414 1_545 S
C642 C645 1.499 . S
C643 H617 0.950 . S
C643 C642 1.414 1_565 S
C643 C644 1.374 . S
C644 H618 0.950 . S
C644 C640 1.385 1_565 S
C644 C643 1.374 . S
C645 C642 1.499 . S
C645 C646 1.373 . S
C645 C647 1.389 . S
C646 H619 0.950 . S
C646 C632 1.377 . S
C646 C645 1.373 . S
C647 C631 1.377 . S
C647 C645 1.389 . S
C647 C648 1.524 1_545 S
C648 C647 1.524 1_565 S
C648 C649 1.397 . S
C648 C653 1.363 . S
C649 H620 0.950 . S
C649 C648 1.397 . S
C649 C650 1.334 . S
C650 H621 0.950 . S
C650 C649 1.334 . S
C650 C651 1.287 . S
C651 C650 1.287 . S
C651 C652 1.524 . S
C651 H654 0.999 . S
C652 H622 0.950 . S
C652 C651 1.524 . S
C652 C653 1.415 . S
C653 H623 0.950 1_565 S
C653 C648 1.363 . S
C653 C652 1.415 . S
H654 C651 0.999 . S
H655 C636 0.913 . S
H656 C674 0.951 . S
H657 C676 0.951 . S
H658 C678 0.903 1_556 S
H659 C679 0.950 . S
H660 C681 0.950 . S
H661 C684 0.950 . S
H662 C685 0.950 . S
H663 C687 0.950 . S
H664 C688 0.950 . S
H665 C689 0.951 . S
H666 C691 0.951 . S
H667 C693 0.950 . S
H668 C694 0.950 . S
H669 C696 0.950 . S
H670 C699 0.950 . S
H671 C700 0.950 . S
H672 C702 0.950 . S
H673 C703 0.950 . S
C674 H656 0.951 . S
C674 C675 1.366 . S
C674 C676 1.388 . S
C675 C674 1.366 . S
C675 C679 1.385 . S
C676 H657 0.951 . S
C676 C674 1.388 . S
C676 C677 1.366 . S
C677 C676 1.366 . S
C677 C678 1.414 . S
C677 C680 1.499 1_554 S
C678 H658 0.903 1_554 S
C678 C677 1.414 . S
C678 C679 1.374 . S
C679 H659 0.950 . S
C679 C675 1.385 . S
C679 C678 1.374 . S
C680 C677 1.499 1_556 S
C680 C681 1.373 . S
C680 C682 1.389 . S
C681 H660 0.950 . S
C681 C680 1.373 . S
C681 C697 1.377 . S
C682 C680 1.389 . S
C682 C683 1.524 1_556 S
C682 C696 1.377 . S
C683 C682 1.524 1_554 S
C683 C684 1.397 . S
C683 C688 1.363 . S
C684 H661 0.950 . S
C684 C683 1.397 . S
C684 C685 1.334 . S
C685 H662 0.950 . S
C685 C684 1.334 . S
C685 C686 1.287 . S
C686 C685 1.287 . S
C686 C687 1.524 . S
C686 H705 0.913 . S
C687 H663 0.950 . S
C687 C686 1.524 . S
C687 C688 1.415 . S
C688 H664 0.950 . S
C688 C683 1.363 . S
C688 C687 1.415 . S
C689 H665 0.951 . S
C689 C690 1.366 . S
C689 C691 1.388 . S
C690 C689 1.366 . S
C690 C694 1.385 . S
C691 H666 0.951 . S
C691 C689 1.388 . S
C691 C692 1.366 . S
C692 C691 1.366 . S
C692 C693 1.414 . S
C692 C695 1.499 . S
C693 H667 0.950 . S
C693 C692 1.414 . S
C693 C694 1.374 . S
C694 H668 0.950 . S
C694 C690 1.385 . S
C694 C693 1.374 . S
C695 C692 1.499 . S
C695 C696 1.373 . S
C695 C697 1.389 . S
C696 H669 0.950 . S
C696 C682 1.377 . S
C696 C695 1.373 . S
C697 C681 1.377 . S
C697 C695 1.389 . S
C697 C698 1.524 . S
C698 C697 1.524 . S
C698 C699 1.397 . S
C698 C703 1.363 . S
C699 H670 0.950 . S
C699 C698 1.397 . S
C699 C700 1.334 . S
C700 H671 0.950 . S
C700 C699 1.334 . S
C700 C701 1.287 . S
C701 C700 1.287 . S
C701 C702 1.524 . S
C701 H704 0.999 . S
C702 H672 0.950 . S
C702 C701 1.524 . S
C702 C703 1.415 . S
C703 H673 0.950 . S
C703 C698 1.363 . S
C703 C702 1.415 . S
H704 C701 0.999 . S
H705 C686 0.913 . S
H706 C724 0.951 . S
H707 C726 0.951 . S
H708 C728 0.950 . S
H709 C729 0.950 . S
H710 C731 0.950 . S
H711 C734 0.950 . S
H712 C735 0.950 . S
H713 C737 0.950 . S
H714 C738 0.950 . S
H715 C739 0.951 . S
H716 C741 0.951 . S
H717 C743 0.950 . S
H718 C744 0.950 . S
H719 C746 0.950 . S
H720 C749 0.950 . S
H721 C750 0.950 . S
H722 C752 0.950 . S
H723 C753 0.950 . S
C724 H706 0.951 . S
C724 C725 1.366 . S
C724 C726 1.388 . S
C725 C724 1.366 . S
C725 C729 1.385 . S
C726 H707 0.951 . S
C726 C724 1.388 . S
C726 C727 1.366 . S
C727 C726 1.366 . S
C727 C728 1.414 . S
C727 C730 1.499 . S
C728 H708 0.950 . S
C728 C727 1.414 . S
C728 C729 1.374 . S
C729 H709 0.950 . S
C729 C725 1.385 . S
C729 C728 1.374 . S
C730 C727 1.499 . S
C730 C731 1.373 . S
C730 C732 1.389 1_655 S
C731 H710 0.950 . S
C731 C730 1.373 . S
C731 C747 1.377 . S
C732 C730 1.389 1_455 S
C732 C733 1.524 . S
C732 C746 1.377 . S
C733 C732 1.524 . S
C733 C734 1.397 . S
C733 C738 1.363 . S
C734 H711 0.950 . S
C734 C733 1.397 . S
C734 C735 1.334 . S
C735 H712 0.950 . S
C735 C734 1.334 . S
C735 C736 1.287 . S
C736 C735 1.287 . S
C736 C737 1.524 . S
C736 H755 0.913 . S
C737 H713 0.950 . S
C737 C736 1.524 . S
C737 C738 1.415 . S
C738 H714 0.950 . S
C738 C733 1.363 . S
C738 C737 1.415 . S
C739 H715 0.951 . S
C739 C740 1.366 . S
C739 C741 1.388 . S
C740 C739 1.366 . S
C740 C744 1.385 1_655 S
C741 H716 0.951 . S
C741 C739 1.388 . S
C741 C742 1.366 . S
C742 C741 1.366 . S
C742 C743 1.414 1_655 S
C742 C745 1.499 . S
C743 H717 0.950 . S
C743 C742 1.414 1_455 S
C743 C744 1.374 . S
C744 H718 0.950 . S
C744 C740 1.385 1_455 S
C744 C743 1.374 . S
C745 C742 1.499 . S
C745 C746 1.373 1_655 S
C745 C747 1.389 . S
C746 H719 0.950 . S
C746 C732 1.377 . S
C746 C745 1.373 1_455 S
C747 C731 1.377 . S
C747 C745 1.389 . S
C747 C748 1.524 . S
C748 C747 1.524 . S
C748 C749 1.397 . S
C748 C753 1.363 . S
C749 H720 0.950 . S
C749 C748 1.397 . S
C749 C750 1.334 . S
C750 H721 0.950 . S
C750 C749 1.334 . S
C750 C751 1.287 . S
C751 C750 1.287 . S
C751 C752 1.524 . S
C751 H754 0.999 . S
C752 H722 0.950 . S
C752 C751 1.524 . S
C752 C753 1.415 . S
C753 H723 0.950 . S
C753 C748 1.363 . S
C753 C752 1.415 . S
H754 C751 0.999 . S
H755 C736 0.913 . S
H756 C774 0.951 . S
H757 C776 0.951 . S
H758 C778 0.950 . S
H759 C779 0.950 . S
H760 C781 0.950 1_545 S
H761 C784 0.950 . S
H762 C785 0.950 . S
H763 C787 0.950 . S
H764 C788 0.950 . S
H765 C789 0.951 . S
H766 C791 0.951 . S
H767 C793 0.950 . S
H768 C794 0.950 . S
H769 C796 0.950 . S
H770 C799 0.950 . S
H771 C800 0.950 . S
H772 C802 0.950 . S
H773 C803 0.950 1_565 S
C774 H756 0.951 . S
C774 C775 1.366 . S
C774 C776 1.388 . S
C775 C774 1.366 . S
C775 C779 1.385 . S
C776 H757 0.951 . S
C776 C774 1.388 . S
C776 C777 1.366 . S
C777 C776 1.366 . S
C777 C778 1.414 . S
C777 C780 1.499 . S
C778 H758 0.950 . S
C778 C777 1.414 . S
C778 C779 1.374 . S
C779 H759 0.950 . S
C779 C775 1.385 . S
C779 C778 1.374 . S
C780 C777 1.499 . S
C780 C781 1.373 . S
C780 C782 1.389 . S
C781 H760 0.950 1_565 S
C781 C780 1.373 . S
C781 C797 1.372 . S
C782 C780 1.389 . S
C782 C783 1.524 . S
C782 C796 1.377 . S
C783 C782 1.524 . S
C783 C784 1.397 . S
C783 C788 1.363 . S
C784 H761 0.950 . S
C784 C783 1.397 . S
C784 C785 1.334 . S
C785 H762 0.950 . S
C785 C784 1.334 . S
C785 C786 1.287 . S
C786 C785 1.287 . S
C786 C787 1.524 . S
C786 H805 0.913 . S
C787 H763 0.950 . S
C787 C786 1.524 . S
C787 C788 1.415 . S
C788 H764 0.950 . S
C788 C783 1.363 . S
C788 C787 1.415 . S
C789 H765 0.951 . S
C789 C790 1.366 . S
C789 C791 1.388 . S
C790 C789 1.366 . S
C790 C794 1.385 1_565 S
C791 H766 0.951 . S
C791 C789 1.388 . S
C791 C792 1.366 . S
C792 C791 1.366 . S
C792 C793 1.414 1_565 S
C792 C795 1.499 . S
C793 H767 0.950 . S
C793 C792 1.414 1_545 S
C793 C794 1.374 . S
C794 H768 0.950 . S
C794 C790 1.385 1_545 S
C794 C793 1.374 . S
C795 C792 1.499 . S
C795 C796 1.373 . S
C795 C797 1.396 . S
C796 H769 0.950 . S
C796 C782 1.377 . S
C796 C795 1.373 . S
C797 C781 1.372 . S
C797 C795 1.396 . S
C797 C798 1.521 1_565 S
C798 C797 1.521 1_545 S
C798 C799 1.397 . S
C798 C803 1.363 . S
C799 H770 0.950 . S
C799 C798 1.397 . S
C799 C800 1.334 . S
C800 H771 0.950 . S
C800 C799 1.334 . S
C800 C801 1.287 . S
C801 C800 1.287 . S
C801 C802 1.524 . S
C801 H804 0.999 . S
C802 H772 0.950 . S
C802 C801 1.524 . S
C802 C803 1.415 . S
C803 H773 0.950 1_545 S
C803 C798 1.363 . S
C803 C802 1.415 . S
H804 C801 0.999 . S
H805 C786 0.913 . S
H806 C824 0.951 . S
H807 C826 0.951 . S
H808 C828 0.950 . S
H809 C829 0.950 . S
H810 C831 0.950 . S
H811 C834 0.950 . S
H812 C835 0.950 . S
H813 C837 0.950 . S
H814 C838 0.950 . S
H815 C839 0.951 . S
H816 C841 0.951 . S
H817 C843 0.950 . S
H818 C844 0.950 . S
H819 C846 0.950 . S
H820 C849 0.950 . S
H821 C850 0.950 . S
H822 C852 0.950 . S
H823 C853 0.950 . S
C824 H806 0.951 . S
C824 C825 1.366 . S
C824 C826 1.388 . S
C825 C824 1.366 . S
C825 C829 1.385 . S
C826 H807 0.951 . S
C826 C824 1.388 . S
C826 C827 1.366 . S
C827 C826 1.366 . S
C827 C828 1.414 . S
C827 C830 1.499 1_554 S
C828 H808 0.950 . S
C828 C827 1.414 . S
C828 C829 1.374 . S
C829 H809 0.950 . S
C829 C825 1.385 . S
C829 C828 1.374 . S
C830 C827 1.499 1_556 S
C830 C831 1.373 . S
C830 C832 1.389 . S
C831 H810 0.950 . S
C831 C830 1.373 . S
C831 C847 1.377 . S
C832 C830 1.389 . S
C832 C833 1.524 1_556 S
C832 C846 1.377 . S
C833 C832 1.524 1_554 S
C833 C834 1.397 . S
C833 C838 1.363 . S
C834 H811 0.950 . S
C834 C833 1.397 . S
C834 C835 1.334 . S
C835 H812 0.950 . S
C835 C834 1.334 . S
C835 C836 1.287 . S
C836 C835 1.287 . S
C836 C837 1.524 . S
C836 H855 0.913 . S
C837 H813 0.950 . S
C837 C836 1.524 . S
C837 C838 1.415 . S
C838 H814 0.950 . S
C838 C833 1.363 . S
C838 C837 1.415 . S
C839 H815 0.951 . S
C839 C840 1.366 . S
C839 C841 1.388 . S
C840 C839 1.366 . S
C840 C844 1.385 . S
C841 H816 0.951 . S
C841 C839 1.388 . S
C841 C842 1.366 . S
C842 C841 1.366 . S
C842 C843 1.414 . S
C842 C845 1.499 . S
C843 H817 0.950 . S
C843 C842 1.414 . S
C843 C844 1.374 . S
C844 H818 0.950 . S
C844 C840 1.385 . S
C844 C843 1.374 . S
C845 C842 1.499 . S
C845 C846 1.373 . S
C845 C847 1.389 . S
C846 H819 0.950 . S
C846 C832 1.377 . S
C846 C845 1.373 . S
C847 C831 1.377 . S
C847 C845 1.389 . S
C847 C848 1.524 . S
C848 C847 1.524 . S
C848 C849 1.397 . S
C848 C853 1.363 . S
C849 H820 0.950 . S
C849 C848 1.397 . S
C849 C850 1.334 . S
C850 H821 0.950 . S
C850 C849 1.334 . S
C850 C851 1.287 . S
C851 C850 1.287 . S
C851 C852 1.524 . S
C851 H854 0.999 . S
C852 H822 0.950 . S
C852 C851 1.524 . S
C852 C853 1.415 . S
C853 H823 0.950 . S
C853 C848 1.363 . S
C853 C852 1.415 . S
H854 C851 0.999 . S
H855 C836 0.913 . S
H856 C874 0.951 . S
H857 C876 0.951 . S
H858 C878 0.950 . S
H859 C879 0.950 . S
H860 C881 0.950 1_655 S
H861 C884 0.950 . S
H862 C885 0.950 . S
H863 C887 0.950 . S
H864 C888 0.950 . S
H865 C889 0.951 . S
H866 C891 0.951 . S
H867 C893 0.953 1_655 S
H868 C894 0.950 . S
H869 C896 0.950 . S
H870 C899 0.950 . S
H871 C900 0.950 . S
H872 C902 0.950 . S
H873 C903 0.950 . S
C874 H856 0.951 . S
C874 C875 1.366 . S
C874 C876 1.388 . S
C875 C874 1.366 . S
C875 C879 1.385 . S
C876 H857 0.951 . S
C876 C874 1.388 . S
C876 C877 1.366 . S
C877 C876 1.366 . S
C877 C878 1.414 . S
C877 C880 1.499 . S
C878 H858 0.950 . S
C878 C877 1.414 . S
C878 C879 1.374 . S
C879 H859 0.950 . S
C879 C875 1.385 . S
C879 C878 1.374 . S
C880 C877 1.499 . S
C880 C881 1.373 . S
C880 C882 1.389 . S
C881 H860 0.950 1_455 S
C881 C880 1.373 . S
C881 C897 1.377 1_455 S
C882 C880 1.389 . S
C882 C883 1.524 . S
C882 C896 1.377 . S
C883 C882 1.524 . S
C883 C884 1.397 . S
C883 C888 1.363 . S
C884 H861 0.950 . S
C884 C883 1.397 . S
C884 C885 1.334 . S
C885 H862 0.950 . S
C885 C884 1.334 . S
C885 C886 1.287 . S
C886 C885 1.287 . S
C886 C887 1.524 . S
C886 H905 0.913 . S
C887 H863 0.950 . S
C887 C886 1.524 . S
C887 C888 1.415 . S
C888 H864 0.950 . S
C888 C883 1.363 . S
C888 C887 1.415 . S
C889 H865 0.951 . S
C889 C890 1.366 . S
C889 C891 1.388 . S
C890 C889 1.366 . S
C890 C894 1.385 1_455 S
C891 H866 0.951 . S
C891 C889 1.388 . S
C891 C892 1.366 . S
C892 C891 1.366 . S
C892 C893 1.414 . S
C892 C895 1.499 . S
C893 H867 0.953 1_455 S
C893 C892 1.414 . S
C893 C894 1.374 1_455 S
C894 H868 0.950 . S
C894 C890 1.385 1_655 S
C894 C893 1.374 1_655 S
C895 C892 1.499 . S
C895 C896 1.373 . S
C895 C897 1.389 1_455 S
C896 H869 0.950 . S
C896 C882 1.377 . S
C896 C895 1.373 . S
C897 C881 1.377 1_655 S
C897 C895 1.389 1_655 S
C897 C898 1.524 . S
C898 C897 1.524 . S
C898 C899 1.397 . S
C898 C903 1.363 . S
C899 H870 0.950 . S
C899 C898 1.397 . S
C899 C900 1.334 . S
C900 H871 0.950 . S
C900 C899 1.334 . S
C900 C901 1.287 . S
C901 C900 1.287 . S
C901 C902 1.524 . S
C901 H904 0.999 . S
C902 H872 0.950 . S
C902 C901 1.524 . S
C902 C903 1.415 . S
C903 H873 0.950 . S
C903 C898 1.363 . S
C903 C902 1.415 . S
H904 C901 0.999 . S
H905 C886 0.913 . S
C340 C265 1.396 . S
C325 C29 1.380 . S
C375 C137 1.383 . S
C390 C291 1.397 . S
C425 C225 1.383 . S
C440 C293 1.398 . S
C475 C49 1.383 . S
C490 C277 1.396 . S
C540 C279 1.398 . S
C525 C117 1.381 . S
C575 C205 1.384 . S
C590 C305 1.393 . S
C640 C278 1.395 1_545 S
C625 C233 1.386 . S
C675 C57 1.383 . S
C690 C304 1.398 . S
C740 C264 1.393 1_655 S
C725 C108 1.386 . S
C790 C290 1.398 1_565 S
C775 C196 1.380 . S
C840 C292 1.396 . S
C825 C20 1.380 . S
C875 C145 1.383 . S
C890 C276 1.394 1_455 S
