# Generated by pormake.
# Topology ocu, (6,8)-cn, num edge types: 1
# Building blocks:
#     Node 0, Type 0, BuildingBlock: FUNLAD_clean_sbu_0, # of connection points: 6
#     Node 1, Type 0, BuildingBlock: FUNLAD_clean_sbu_0, # of connection points: 6
#     Node 2, Type 0, BuildingBlock: FUNLAD_clean_sbu_0, # of connection points: 6
#     Node 3, Type 0, BuildingBlock: FUNLAD_clean_sbu_0, # of connection points: 6
#     Node 4, Type 0, BuildingBlock: FUNLAD_clean_sbu_0, # of connection points: 6
#     Node 5, Type 0, BuildingBlock: FUNLAD_clean_sbu_0, # of connection points: 6
#     Node 6, Type 0, BuildingBlock: FUNLAD_clean_sbu_0, # of connection points: 6
#     Node 7, Type 0, BuildingBlock: FUNLAD_clean_sbu_0, # of connection points: 6
#     Node 8, Type 1, BuildingBlock: GIZVER_clean_sbu_0, # of connection points: 8
#     Node 9, Type 1, BuildingBlock: GIZVER_clean_sbu_0, # of connection points: 8
#     Node 10, Type 1, BuildingBlock: GIZVER_clean_sbu_0, # of connection points: 8
#     Node 11, Type 1, BuildingBlock: GIZVER_clean_sbu_0, # of connection points: 8
#     Node 12, Type 1, BuildingBlock: GIZVER_clean_sbu_0, # of connection points: 8
#     Node 13, Type 1, BuildingBlock: GIZVER_clean_sbu_0, # of connection points: 8
#     Edge 14, Type (0, 1), BuildingBlock: CIFDUS_clean_linker_0, # of connection points: 2
#     Edge 15, Type (0, 1), BuildingBlock: CIFDUS_clean_linker_0, # of connection points: 2
#     Edge 16, Type (0, 1), BuildingBlock: CIFDUS_clean_linker_0, # of connection points: 2
#     Edge 17, Type (0, 1), BuildingBlock: CIFDUS_clean_linker_0, # of connection points: 2
#     Edge 18, Type (0, 1), BuildingBlock: CIFDUS_clean_linker_0, # of connection points: 2
#     Edge 19, Type (0, 1), BuildingBlock: CIFDUS_clean_linker_0, # of connection points: 2
#     Edge 20, Type (0, 1), BuildingBlock: CIFDUS_clean_linker_0, # of connection points: 2
#     Edge 21, Type (0, 1), BuildingBlock: CIFDUS_clean_linker_0, # of connection points: 2
#     Edge 22, Type (0, 1), BuildingBlock: CIFDUS_clean_linker_0, # of connection points: 2
#     Edge 23, Type (0, 1), BuildingBlock: CIFDUS_clean_linker_0, # of connection points: 2
#     Edge 24, Type (0, 1), BuildingBlock: CIFDUS_clean_linker_0, # of connection points: 2
#     Edge 25, Type (0, 1), BuildingBlock: CIFDUS_clean_linker_0, # of connection points: 2
#     Edge 26, Type (0, 1), BuildingBlock: CIFDUS_clean_linker_0, # of connection points: 2
#     Edge 27, Type (0, 1), BuildingBlock: CIFDUS_clean_linker_0, # of connection points: 2
#     Edge 28, Type (0, 1), BuildingBlock: CIFDUS_clean_linker_0, # of connection points: 2
#     Edge 29, Type (0, 1), BuildingBlock: CIFDUS_clean_linker_0, # of connection points: 2
#     Edge 30, Type (0, 1), BuildingBlock: CIFDUS_clean_linker_0, # of connection points: 2
#     Edge 31, Type (0, 1), BuildingBlock: CIFDUS_clean_linker_0, # of connection points: 2
#     Edge 32, Type (0, 1), BuildingBlock: CIFDUS_clean_linker_0, # of connection points: 2
#     Edge 33, Type (0, 1), BuildingBlock: CIFDUS_clean_linker_0, # of connection points: 2
#     Edge 34, Type (0, 1), BuildingBlock: CIFDUS_clean_linker_0, # of connection points: 2
#     Edge 35, Type (0, 1), BuildingBlock: CIFDUS_clean_linker_0, # of connection points: 2
#     Edge 36, Type (0, 1), BuildingBlock: CIFDUS_clean_linker_0, # of connection points: 2
#     Edge 37, Type (0, 1), BuildingBlock: CIFDUS_clean_linker_0, # of connection points: 2
#     Edge 38, Type (0, 1), BuildingBlock: CIFDUS_clean_linker_0, # of connection points: 2
#     Edge 39, Type (0, 1), BuildingBlock: CIFDUS_clean_linker_0, # of connection points: 2
#     Edge 40, Type (0, 1), BuildingBlock: CIFDUS_clean_linker_0, # of connection points: 2
#     Edge 41, Type (0, 1), BuildingBlock: CIFDUS_clean_linker_0, # of connection points: 2
#     Edge 42, Type (0, 1), BuildingBlock: CIFDUS_clean_linker_0, # of connection points: 2
#     Edge 43, Type (0, 1), BuildingBlock: CIFDUS_clean_linker_0, # of connection points: 2
#     Edge 44, Type (0, 1), BuildingBlock: CIFDUS_clean_linker_0, # of connection points: 2
#     Edge 45, Type (0, 1), BuildingBlock: CIFDUS_clean_linker_0, # of connection points: 2
#     Edge 46, Type (0, 1), BuildingBlock: CIFDUS_clean_linker_0, # of connection points: 2
#     Edge 47, Type (0, 1), BuildingBlock: CIFDUS_clean_linker_0, # of connection points: 2
#     Edge 48, Type (0, 1), BuildingBlock: CIFDUS_clean_linker_0, # of connection points: 2
#     Edge 49, Type (0, 1), BuildingBlock: CIFDUS_clean_linker_0, # of connection points: 2
#     Edge 50, Type (0, 1), BuildingBlock: CIFDUS_clean_linker_0, # of connection points: 2
#     Edge 51, Type (0, 1), BuildingBlock: CIFDUS_clean_linker_0, # of connection points: 2
#     Edge 52, Type (0, 1), BuildingBlock: CIFDUS_clean_linker_0, # of connection points: 2
#     Edge 53, Type (0, 1), BuildingBlock: CIFDUS_clean_linker_0, # of connection points: 2
#     Edge 54, Type (0, 1), BuildingBlock: CIFDUS_clean_linker_0, # of connection points: 2
#     Edge 55, Type (0, 1), BuildingBlock: CIFDUS_clean_linker_0, # of connection points: 2
#     Edge 56, Type (0, 1), BuildingBlock: CIFDUS_clean_linker_0, # of connection points: 2
#     Edge 57, Type (0, 1), BuildingBlock: CIFDUS_clean_linker_0, # of connection points: 2
#     Edge 58, Type (0, 1), BuildingBlock: CIFDUS_clean_linker_0, # of connection points: 2
#     Edge 59, Type (0, 1), BuildingBlock: CIFDUS_clean_linker_0, # of connection points: 2
#     Edge 60, Type (0, 1), BuildingBlock: CIFDUS_clean_linker_0, # of connection points: 2
#     Edge 61, Type (0, 1), BuildingBlock: CIFDUS_clean_linker_0, # of connection points: 2
# Relax obj value: 0.246
# Max RMSD: 0.293
# Mean RMSD: 0.224
data_MOF--net-ocu--node1-FUNLAD_clean_sbu_0--node2-GIZVER_clean_sbu_0--edge1-CIFDUS_clean_linker_0
_symmetry_space_group_name_H-M    P1
_symmetry_Int_Tables_number       1
_symmetry_cell_setting            triclinic
loop_
_symmetry_equiv_pos_as_xyz
'x, y, z'
_cell_length_a     37.373198
_cell_length_b     38.581169
_cell_length_c     28.480964
_cell_angle_alpha  82.615251
_cell_angle_beta   83.823664
_cell_angle_gamma 94.143483
loop_
_atom_site_label
_atom_site_type_symbol
_atom_site_fract_x
_atom_site_fract_y
_atom_site_fract_z
_atom_type_partial_charge
C0 C 0.21196 0.29485 0.31713 0.0
N1 N 0.19406 0.20224 0.25748 0.0
C2 C 0.17668 0.18365 0.2982 0.0
C3 C 0.14978 0.15733 0.29561 0.0
C4 C 0.14081 0.15059 0.25079 0.0
C5 C 0.15895 0.17 0.20945 0.0
C6 C 0.18602 0.1957 0.21363 0.0
Zn7 Zn 0.23317 0.24062 0.25879 0.0
C8 C 0.22312 0.30068 0.18105 0.0
N9 N 0.31596 0.32154 0.24611 0.0
C10 C 0.32398 0.32966 0.28923 0.0
C11 C 0.33633 0.33565 0.20483 0.0
C12 C 0.36682 0.35826 0.20614 0.0
C13 C 0.37616 0.366 0.25028 0.0
C14 C 0.35437 0.35199 0.29217 0.0
Zn15 Zn 0.27577 0.28393 0.24619 0.0
O16 O 0.20054 0.26483 0.30817 0.0
C17 C 0.28695 0.22511 0.32409 0.0
O18 O 0.24287 0.30839 0.29745 0.0
H19 H 0.32946 0.32857 0.17116 0.0
H20 H 0.18361 0.18938 0.33246 0.0
H21 H 0.30745 0.3179 0.32164 0.0
O22 O 0.25684 0.21088 0.31577 0.0
O23 O 0.29895 0.25444 0.30044 0.0
H24 H 0.20057 0.21047 0.1816 0.0
O25 O 0.30796 0.2585 0.19412 0.0
O26 O 0.26464 0.21617 0.21024 0.0
O27 O 0.25285 0.31413 0.19129 0.0
O28 O 0.21036 0.27085 0.20285 0.0
C29 C 0.29487 0.22825 0.18774 0.0
H30 H 0.13568 0.14271 0.32821 0.0
H31 H 0.15235 0.16528 0.17457 0.0
H32 H 0.38344 0.36903 0.17321 0.0
H33 H 0.3611 0.35776 0.32657 0.0
C34 C 0.72248 0.31271 0.21768 0.0
N35 N 0.76057 0.22422 0.16322 0.0
C36 C 0.74235 0.23823 0.12732 0.0
C37 C 0.71928 0.21665 0.10543 0.0
C38 C 0.71569 0.18007 0.11938 0.0
C39 C 0.73914 0.16624 0.15108 0.0
C40 C 0.76086 0.18873 0.17317 0.0
Zn41 Zn 0.77042 0.25324 0.21868 0.0
C42 C 0.82697 0.31053 0.2039 0.0
N43 N 0.77617 0.3063 0.34222 0.0
C44 C 0.77825 0.34191 0.3312 0.0
C45 C 0.7912 0.29134 0.38065 0.0
C46 C 0.8124 0.31207 0.40602 0.0
C47 C 0.81727 0.34858 0.39263 0.0
C48 C 0.79836 0.36353 0.35631 0.0
Zn49 Zn 0.76677 0.27783 0.2866 0.0
O50 O 0.73436 0.28925 0.19438 0.0
C51 C 0.71005 0.22027 0.30041 0.0
O52 O 0.73134 0.31438 0.25924 0.0
H53 H 0.78951 0.26312 0.38933 0.0
H54 H 0.74259 0.26634 0.1187 0.0
H55 H 0.76751 0.35375 0.29987 0.0
O56 O 0.72666 0.22069 0.25893 0.0
O57 O 0.72022 0.24354 0.32557 0.0
H58 H 0.77486 0.17743 0.20183 0.0
O59 O 0.80189 0.24106 0.31193 0.0
O60 O 0.80709 0.21723 0.24595 0.0
O61 O 0.8124 0.31009 0.24654 0.0
O62 O 0.81498 0.28799 0.17893 0.0
C63 C 0.81484 0.21825 0.28825 0.0
H64 H 0.70233 0.229 0.08089 0.0
H65 H 0.7389 0.13825 0.16163 0.0
H66 H 0.8262 0.29956 0.4343 0.0
H67 H 0.80157 0.39155 0.3446 0.0
C68 C 0.78344 0.73075 0.33686 0.0
N69 N 0.82042 0.83173 0.28239 0.0
C70 C 0.81502 0.83205 0.33033 0.0
C71 C 0.84056 0.84814 0.3536 0.0
C72 C 0.8723 0.86518 0.32779 0.0
C73 C 0.87722 0.86567 0.27793 0.0
C74 C 0.85068 0.8484 0.25571 0.0
Zn75 Zn 0.78354 0.79703 0.26175 0.0
C76 C 0.81409 0.74751 0.20315 0.0
N77 N 0.70526 0.71775 0.24345 0.0
C78 C 0.67617 0.69992 0.27145 0.0
C79 C 0.71014 0.71666 0.19565 0.0
C80 C 0.68547 0.69785 0.17399 0.0
C81 C 0.65514 0.6793 0.20136 0.0
C82 C 0.65043 0.68028 0.25086 0.0
Zn83 Zn 0.7419 0.75299 0.26334 0.0
O84 O 0.79717 0.76102 0.31834 0.0
C85 C 0.71074 0.80278 0.32094 0.0
O86 O 0.75569 0.71751 0.32106 0.0
H87 H 0.73246 0.73183 0.17328 0.0
H88 H 0.79192 0.81754 0.35185 0.0
H89 H 0.67242 0.70173 0.30922 0.0
O90 O 0.74249 0.81668 0.30684 0.0
O91 O 0.70118 0.77323 0.30865 0.0
H92 H 0.85491 0.84711 0.21783 0.0
O93 O 0.72882 0.78889 0.20592 0.0
O94 O 0.76971 0.83274 0.20504 0.0
O95 O 0.78275 0.73314 0.21869 0.0
O96 O 0.82367 0.7772 0.21505 0.0
C97 C 0.74247 0.81945 0.18826 0.0
H98 H 0.83598 0.84552 0.39214 0.0
H99 H 0.90146 0.87847 0.25668 0.0
H100 H 0.68964 0.69895 0.13557 0.0
H101 H 0.62714 0.6664 0.27308 0.0
C102 C 0.21445 0.81481 0.27869 0.0
N103 N 0.30354 0.7923 0.34839 0.0
C104 C 0.30127 0.82764 0.34576 0.0
C105 C 0.31597 0.84683 0.37808 0.0
C106 C 0.33433 0.83018 0.41337 0.0
C107 C 0.33709 0.79381 0.4158 0.0
C108 C 0.32104 0.77509 0.38281 0.0
Zn109 Zn 0.28049 0.77243 0.2925 0.0
C110 C 0.22087 0.71645 0.31823 0.0
N111 N 0.22893 0.75193 0.17183 0.0
C112 C 0.21311 0.77234 0.1388 0.0
C113 C 0.22533 0.71636 0.17485 0.0
C114 C 0.20327 0.69982 0.14679 0.0
C115 C 0.18491 0.7198 0.11391 0.0
C116 C 0.19114 0.75671 0.10893 0.0
Zn117 Zn 0.25317 0.76933 0.22674 0.0
O118 O 0.23808 0.80449 0.30469 0.0
C119 C 0.3118 0.82584 0.20146 0.0
O120 O 0.21341 0.80475 0.23816 0.0
H121 H 0.23772 0.70036 0.20146 0.0
H122 H 0.28879 0.84172 0.31756 0.0
H123 H 0.21619 0.80059 0.13704 0.0
O124 O 0.31349 0.81492 0.24527 0.0
O125 O 0.28769 0.81082 0.18054 0.0
H126 H 0.32325 0.74719 0.38413 0.0
O127 O 0.29382 0.73478 0.21524 0.0
O128 O 0.3217 0.7381 0.27902 0.0
O129 O 0.2183 0.72819 0.27489 0.0
O130 O 0.24677 0.72977 0.33801 0.0
C131 C 0.31873 0.72579 0.24004 0.0
H132 H 0.31403 0.87494 0.37445 0.0
H133 H 0.35172 0.78025 0.44234 0.0
H134 H 0.19904 0.67151 0.15349 0.0
H135 H 0.17822 0.77341 0.08356 0.0
C136 C 0.22525 0.8172 0.72454 0.0
N137 N 0.25296 0.72406 0.677 0.0
C138 C 0.21656 0.72137 0.6758 0.0
C139 C 0.20038 0.69837 0.6492 0.0
C140 C 0.22152 0.67796 0.62177 0.0
C141 C 0.25941 0.68232 0.62167 0.0
C142 C 0.27464 0.70544 0.65005 0.0
Zn143 Zn 0.26795 0.75346 0.72865 0.0
C144 C 0.32799 0.80855 0.70168 0.0
N145 N 0.28483 0.81404 0.84177 0.0
C146 C 0.29196 0.849 0.82634 0.0
C147 C 0.294 0.79985 0.88467 0.0
C148 C 0.31316 0.82067 0.91218 0.0
C149 C 0.32321 0.85637 0.89522 0.0
C150 C 0.31113 0.87058 0.85239 0.0
Zn151 Zn 0.27139 0.78356 0.79049 0.0
O152 O 0.23405 0.79145 0.70364 0.0
C153 C 0.21177 0.72777 0.81791 0.0
O154 O 0.23651 0.82079 0.7643 0.0
H155 H 0.28853 0.77197 0.89622 0.0
H156 H 0.19935 0.73578 0.69767 0.0
H157 H 0.28539 0.85987 0.79174 0.0
O158 O 0.22397 0.72383 0.77571 0.0
O159 O 0.22617 0.75301 0.83647 0.0
H160 H 0.30349 0.70762 0.65166 0.0
O161 O 0.30605 0.74623 0.81496 0.0
O162 O 0.3023 0.71602 0.75492 0.0
O163 O 0.31592 0.81242 0.74404 0.0
O164 O 0.31305 0.78387 0.68262 0.0
C165 C 0.31429 0.72012 0.79424 0.0
H166 H 0.17118 0.69557 0.65246 0.0
H167 H 0.2771 0.66756 0.60082 0.0
H168 H 0.32129 0.80855 0.94534 0.0
H169 H 0.31857 0.89763 0.83709 0.0
C170 C 0.28741 0.21658 0.83216 0.0
N171 N 0.32739 0.31753 0.77521 0.0
C172 C 0.32701 0.31876 0.8228 0.0
C173 C 0.35344 0.33885 0.83996 0.0
C174 C 0.38087 0.35833 0.80814 0.0
C175 C 0.38054 0.35777 0.75892 0.0
C176 C 0.35333 0.33667 0.74302 0.0
Zn177 Zn 0.28671 0.28372 0.76077 0.0
C178 C 0.30656 0.23373 0.69591 0.0
N179 N 0.1991 0.2111 0.74997 0.0
C180 C 0.174 0.1906 0.78187 0.0
C181 C 0.19739 0.21308 0.70221 0.0
C182 C 0.16985 0.19479 0.6847 0.0
C183 C 0.14331 0.17383 0.71624 0.0
C184 C 0.14567 0.17122 0.76553 0.0
Zn185 Zn 0.2408 0.24363 0.7647 0.0
O186 O 0.30116 0.24732 0.81602 0.0
C187 C 0.21936 0.29274 0.82888 0.0
O188 O 0.259 0.20476 0.81626 0.0
H189 H 0.21736 0.22925 0.67698 0.0
H190 H 0.30626 0.30373 0.84813 0.0
H191 H 0.17577 0.18948 0.81969 0.0
O192 O 0.25029 0.30645 0.80972 0.0
O193 O 0.20768 0.26328 0.81831 0.0
H194 H 0.35308 0.33536 0.70535 0.0
O195 O 0.22388 0.2832 0.71373 0.0
O196 O 0.27229 0.31997 0.70515 0.0
O197 O 0.27396 0.22391 0.71164 0.0
O198 O 0.32199 0.26004 0.71097 0.0
C199 C 0.24109 0.3118 0.6938 0.0
H200 H 0.35226 0.33929 0.87807 0.0
H201 H 0.40126 0.37289 0.7334 0.0
H202 H 0.16973 0.19668 0.64641 0.0
H203 H 0.12579 0.1548 0.79085 0.0
C204 C 0.71736 0.31539 0.77239 0.0
N205 N 0.80733 0.28275 0.83959 0.0
C206 C 0.79131 0.29986 0.87421 0.0
C207 C 0.81238 0.31803 0.90264 0.0
C208 C 0.85009 0.31769 0.89621 0.0
C209 C 0.86567 0.29812 0.86257 0.0
C210 C 0.84388 0.28129 0.8341 0.0
Zn211 Zn 0.77996 0.26869 0.78397 0.0
C212 C 0.71796 0.21549 0.80608 0.0
N213 N 0.72702 0.24945 0.66169 0.0
C214 C 0.70898 0.26733 0.62839 0.0
C215 C 0.72723 0.21384 0.66467 0.0
C216 C 0.7097 0.19501 0.6343 0.0
C217 C 0.69057 0.21229 0.60045 0.0
C218 C 0.69021 0.24901 0.59719 0.0
Zn219 Zn 0.75272 0.2678 0.71712 0.0
O220 O 0.74244 0.3057 0.79657 0.0
C221 C 0.81372 0.32156 0.6937 0.0
O222 O 0.71351 0.30325 0.73344 0.0
H223 H 0.73991 0.19912 0.69209 0.0
H224 H 0.76238 0.30124 0.87814 0.0
H225 H 0.70824 0.29542 0.62681 0.0
O226 O 0.81552 0.30947 0.73722 0.0
O227 O 0.78805 0.30906 0.67273 0.0
H228 H 0.85679 0.26913 0.80549 0.0
O229 O 0.79236 0.23359 0.70295 0.0
O230 O 0.81703 0.23129 0.76936 0.0
O231 O 0.71877 0.22815 0.76258 0.0
O232 O 0.74248 0.22704 0.82961 0.0
C233 C 0.81544 0.22172 0.72869 0.0
H234 H 0.7995 0.33296 0.92838 0.0
H235 H 0.89474 0.29767 0.85627 0.0
H236 H 0.71004 0.16671 0.63843 0.0
H237 H 0.67517 0.26314 0.57167 0.0
C238 C 0.72877 0.81112 0.81586 0.0
N239 N 0.69458 0.72253 0.75534 0.0
C240 C 0.67321 0.71078 0.79673 0.0
C241 C 0.64198 0.68905 0.79628 0.0
C242 C 0.63305 0.67935 0.75292 0.0
C243 C 0.65515 0.69192 0.71066 0.0
C244 C 0.68602 0.71394 0.71266 0.0
Zn245 Zn 0.73961 0.75419 0.75614 0.0
C246 C 0.74148 0.81514 0.67898 0.0
N247 N 0.8328 0.82272 0.75027 0.0
C248 C 0.84027 0.83201 0.79303 0.0
C249 C 0.85003 0.83965 0.70835 0.0
C250 C 0.87424 0.8687 0.7083 0.0
C251 C 0.88061 0.88004 0.75175 0.0
C252 C 0.8645 0.86091 0.79461 0.0
Zn253 Zn 0.78914 0.78933 0.74955 0.0
O254 O 0.71194 0.78326 0.80704 0.0
C255 C 0.78719 0.72797 0.82632 0.0
O256 O 0.76086 0.8193 0.79635 0.0
H257 H 0.84351 0.83178 0.67495 0.0
H258 H 0.68063 0.71801 0.83007 0.0
H259 H 0.82587 0.81831 0.82589 0.0
O260 O 0.75699 0.71975 0.8121 0.0
O261 O 0.80524 0.7564 0.80741 0.0
H262 H 0.70334 0.72392 0.68014 0.0
O263 O 0.8179 0.75916 0.70199 0.0
O264 O 0.76763 0.72542 0.70639 0.0
O265 O 0.77258 0.82235 0.69118 0.0
O266 O 0.72246 0.78807 0.70043 0.0
C267 C 0.80079 0.73242 0.6903 0.0
H268 H 0.62541 0.67911 0.82956 0.0
H269 H 0.64894 0.68435 0.67691 0.0
H270 H 0.88693 0.88299 0.67467 0.0
H271 H 0.86933 0.8691 0.82853 0.0
Co272 Co 0.0621 0.94453 0.48908 0.0
Co273 Co 0.0873 0.98383 0.54674 0.0
Co274 Co 0.01889 1.01645 0.50994 0.0
O275 O 0.06395 0.99384 0.49381 0.0
H276 H 0.08013 1.00792 0.46863 0.0
O277 O 0.97278 0.03802 0.52465 0.0
Co278 Co 0.97038 0.08602 0.53138 0.0
Co279 Co 0.95098 0.04802 0.46941 0.0
H280 H 0.95638 0.02283 0.54842 0.0
O281 O 0.13474 0.97437 0.54573 0.0
O282 O 0.08581 0.93551 0.54856 0.0
O283 O 0.06358 0.99436 0.60559 0.0
O284 O 1.01027 0.99212 0.5774 0.0
O285 O 0.04766 0.05421 0.53325 0.0
O286 O 0.96388 0.12939 0.54368 0.0
O287 O 0.92571 0.08006 0.56065 0.0
O288 O 0.01815 0.09685 0.50247 0.0
O289 O 0.02763 0.04083 0.44303 0.0
O290 O 0.97585 0.03461 0.41242 0.0
O291 O 0.95222 0.09644 0.46743 0.0
O292 O 0.90375 0.05815 0.46555 0.0
C293 C 0.09367 0.91374 0.45337 0.0
C294 C 0.98934 0.9469 0.50512 0.0
C295 C 0.0294 0.99209 0.61209 0.0
C296 C 0.11959 0.94244 0.55448 0.0
C297 C 0.93334 0.11298 0.56399 0.0
C298 C 0.04278 0.08655 0.52688 0.0
C299 C 1.00998 0.0355 0.4083 0.0
C300 C 0.91922 0.08996 0.45781 0.0
O301 O 0.06434 0.90032 0.48016 0.0
O302 O 0.10447 0.94683 0.45192 0.0
O303 O 0.98989 0.97884 0.48829 0.0
O304 O 0.01589 0.93558 0.52486 0.0
Co305 Co 0.56344 0.94632 0.00825 0.0
Co306 Co 0.55489 0.97092 0.08576 0.0
Co307 Co 0.51627 0.01869 0.01118 0.0
O308 O 0.55928 0.99288 0.02441 0.0
H309 H 0.58175 1.00761 0.01734 0.0
O310 O 0.47361 0.04502 0.99716 0.0
Co311 Co 0.4703 0.09216 0.01179 0.0
Co312 Co 0.47961 0.06731 0.93539 0.0
H313 H 0.45096 0.03056 1.00403 0.0
O314 O 0.59468 0.97407 0.11446 0.0
O315 O 0.57465 0.93013 0.07493 0.0
O316 O 0.50799 0.96054 0.12064 0.0
O317 O 0.47992 0.99153 0.06648 0.0
O318 O 0.53275 0.05568 0.04958 0.0
O319 O 0.46536 0.13442 0.02613 0.0
O320 O 0.42163 0.0904 0.03159 0.0
O321 O 0.52144 0.10069 0.99791 0.0
O322 O 0.553 0.04528 0.95645 0.0
O323 O 0.5273 0.07951 0.90348 0.0
O324 O 0.45909 0.10812 0.94443 0.0
O325 O 0.44109 0.06389 0.90416 0.0
C326 C 0.6025 0.91679 0.98087 0.0
C327 C 0.49353 0.94971 0.99188 0.0
C328 C 0.47917 0.96996 0.1052 0.0
C329 C 0.59921 0.9445 0.0981 0.0
C330 C 0.43178 0.12275 0.03722 0.0
C331 C 0.54066 0.08734 0.0291 0.0
C332 C 0.55539 0.06868 0.91949 0.0
C333 C 0.43574 0.09366 0.9195 0.0
O334 O 0.56916 0.90445 0.99273 0.0
O335 O 0.61221 0.94907 0.98729 0.0
O336 O 0.49963 0.98187 0.97282 0.0
O337 O 0.51287 0.93689 0.02314 0.0
Co338 Co 0.06384 0.45398 0.98648 0.0
Co339 Co 0.05518 0.47162 0.07001 0.0
Co340 Co 1.01377 0.52334 1.00325 0.0
O341 O 0.05787 0.49769 0.01039 0.0
H342 H 0.07978 0.51327 1.00431 0.0
O343 O 0.96965 0.54953 0.99652 0.0
Co344 Co 0.96543 0.59287 0.02332 0.0
Co345 Co 0.97156 0.57746 0.93835 0.0
H346 H 0.94756 0.53419 1.00273 0.0
O347 O 0.09683 0.46898 0.09663 0.0
O348 O 0.07231 0.4313 0.05152 0.0
O349 O 1.00873 0.45736 0.10518 0.0
O350 O 0.97968 0.48999 0.0541 0.0
O351 O 0.03017 0.55415 0.04969 0.0
O352 O 0.95902 0.63134 0.0491 0.0
O353 O 0.91666 0.58851 0.04196 0.0
O354 O 0.01537 0.60327 0.01024 0.0
O355 O 0.04775 0.55654 0.95174 0.0
O356 O 0.01812 0.59015 0.90198 0.0
O357 O 0.95739 0.61797 0.96022 0.0
O358 O 0.92883 0.58423 0.91398 0.0
C359 C 0.10524 0.42822 0.9573 0.0
C360 C 0.99267 0.45846 0.97017 0.0
C361 C 0.97958 0.46589 0.08984 0.0
C362 C 0.09806 0.44069 0.07637 0.0
C363 C 0.92558 0.61848 0.05664 0.0
C364 C 0.03555 0.58734 0.0374 0.0
C365 C 0.04738 0.58038 0.91578 0.0
C366 C 0.93056 0.61181 0.93573 0.0
O367 O 0.07198 0.41475 0.96358 0.0
O368 O 0.11282 0.45924 0.96967 0.0
O369 O 0.99767 0.49175 0.95729 0.0
O370 O 1.0132 0.44296 0.99765 0.0
Co371 Co 0.56489 0.44984 0.97964 0.0
Co372 Co 0.5821 0.48117 0.04879 0.0
Co373 Co 0.51608 0.51728 0.01035 0.0
O374 O 0.56232 0.49628 0.99425 0.0
H375 H 0.57953 0.51281 0.97342 0.0
O376 O 0.47075 0.53985 0.02753 0.0
Co377 Co 0.47233 0.58902 0.03601 0.0
Co378 Co 0.45024 0.55286 0.97293 0.0
H379 H 0.45371 0.52498 0.05085 0.0
O380 O 0.62976 0.47435 0.05042 0.0
O381 O 0.58414 0.43437 0.04159 0.0
O382 O 0.55515 0.48707 0.10861 0.0
O383 O 0.50452 0.48864 0.07442 0.0
O384 O 0.54426 0.55217 0.03861 0.0
O385 O 0.46998 0.63284 0.04745 0.0
O386 O 0.4281 0.58706 0.07038 0.0
O387 O 0.52003 0.59783 1.00454 0.0
O388 O 0.52728 0.54564 0.94574 0.0
O389 O 0.47567 0.54384 0.91385 0.0
O390 O 0.45166 0.60078 0.97441 0.0
O391 O 0.4032 0.56221 0.97202 0.0
C392 C 0.60188 0.42518 0.94114 0.0
C393 C 0.4922 0.4491 0.98629 0.0
C394 C 0.52114 0.48728 0.11134 0.0
C395 C 0.61653 0.44196 0.05286 0.0
C396 C 0.43927 0.61988 0.07116 0.0
C397 C 0.54519 0.58483 0.02582 0.0
C398 C 0.50984 0.54586 0.90956 0.0
C399 C 0.41849 0.59411 0.96536 0.0
O400 O 0.57133 0.40813 0.96029 0.0
O401 O 0.60963 0.45724 0.949 0.0
O402 O 0.48824 0.48175 0.98108 0.0
O403 O 0.51724 0.43737 0.00893 0.0
Co404 Co 0.08613 0.47046 0.51878 0.0
Co405 Co 0.06846 0.48155 0.43533 0.0
Co406 Co 1.01352 0.51902 0.50555 0.0
O407 O 0.04068 0.47722 0.49381 0.0
H408 H 0.02483 0.45582 0.49862 0.0
O409 O 0.98663 0.56119 0.5166 0.0
Co410 Co 0.93808 0.56338 0.50077 0.0
Co411 Co 0.96474 0.55734 0.5785 0.0
H412 H 1.0014 0.58315 0.50768 0.0
O413 O 0.07316 0.4419 0.40654 0.0
O414 O 0.1104 0.4647 0.45441 0.0
O415 O 0.08159 0.52827 0.40324 0.0
O416 O 0.04354 0.55405 0.45115 0.0
O417 O 0.97582 0.50281 0.46529 0.0
O418 O 0.89481 0.56644 0.4848 0.0
O419 O 0.9386 0.61052 0.47819 0.0
O420 O 0.93103 0.51476 0.51698 0.0
O421 O 0.9843 0.48426 0.56015 0.0
O422 O 0.9558 0.51152 0.61572 0.0
O423 O 0.92079 0.57391 0.56694 0.0
O424 O 0.96519 0.59721 0.60498 0.0
C425 C 0.11166 0.42932 0.54898 0.0
C426 C 0.08336 0.53928 0.53431 0.0
C427 C 0.06917 0.55564 0.41638 0.0
C428 C 0.10247 0.44103 0.42727 0.0
C429 C 0.90621 0.59883 0.47033 0.0
C430 C 0.94245 0.4979 0.4834 0.0
C431 C 0.96375 0.48353 0.59965 0.0
C432 C 0.93378 0.59885 0.58948 0.0
O433 O 0.12623 0.46136 0.54322 0.0
O434 O 0.07997 0.42288 0.53471 0.0
O435 O 0.04938 0.53488 0.54758 0.0
O436 O 0.09863 0.51915 0.50788 0.0
Co437 Co 0.58636 0.97834 0.51552 0.0
Co438 Co 0.56467 0.9903 0.43328 0.0
Co439 Co 0.51042 0.02111 0.50982 0.0
O440 O 0.53999 0.98279 0.49353 0.0
H441 H 0.52561 0.96053 0.49769 0.0
O442 O 0.4807 0.05982 0.52446 0.0
Co443 Co 0.43181 0.06067 0.50897 0.0
Co444 Co 0.45904 0.05139 0.58567 0.0
H445 H 0.49418 0.0826 0.51836 0.0
O446 O 0.57082 0.95222 0.40224 0.0
O447 O 0.60861 0.97608 0.44874 0.0
O448 O 0.57264 0.03769 0.40296 0.0
O449 O 0.53834 0.05965 0.4591 0.0
O450 O 0.47505 1.00728 0.46688 0.0
O451 O 0.3877 0.06371 0.49421 0.0
O452 O 0.43051 0.10814 0.49192 0.0
O453 O 0.42656 1.00992 0.5184 0.0
O454 O 0.48347 0.98202 0.56125 0.0
O455 O 0.4536 1.00528 0.61954 0.0
O456 O 0.41532 0.06821 0.57751 0.0
O457 O 0.46158 0.08762 0.61657 0.0
C458 C 0.61449 0.93757 0.54016 0.0
C459 C 0.57757 0.04593 0.53829 0.0
C460 C 0.56128 0.06374 0.42122 0.0
C461 C 0.60059 0.95202 0.422 0.0
C462 C 0.39783 0.09691 0.48469 0.0
C463 C 0.44324 0.99499 0.48559 0.0
C464 C 0.46353 0.97872 0.60159 0.0
C465 C 0.43011 0.09141 0.60182 0.0
O466 O 0.6281 0.9699 0.53697 0.0
O467 O 0.58264 0.93101 0.52674 0.0
O468 O 0.54488 0.03514 0.55415 0.0
O469 O 0.59573 0.02888 0.5097 0.0
H470 H 0.14209 0.08131 0.27089 0.0
H471 H 0.07365 0.16186 0.22863 0.0
H472 H 0.01999 0.1235 0.26382 0.0
H473 H 0.99727 0.07758 0.33017 0.0
H474 H 0.06826 1.00212 0.3821 0.0
H475 H 0.11587 0.02656 0.31867 0.0
C476 C 0.1152 0.08947 0.26727 0.0
C477 C 0.11126 0.12414 0.24875 0.0
C478 C 0.08503 0.06827 0.29048 0.0
C479 C 0.07682 0.1351 0.24343 0.0
C480 C 0.04627 0.11334 0.26408 0.0
C481 C 0.02256 0.06551 0.32585 0.0
C482 C 0.03017 0.03914 0.361 0.0
C483 C 0.05049 0.08132 0.29147 0.0
C484 C 0.06261 0.02317 0.35562 0.0
C485 C 0.0898 0.03725 0.31961 0.0
H486 H 0.85216 0.22392 0.36402 0.0
H487 H 0.82422 0.15232 0.26649 0.0
H488 H 0.85267 0.10587 0.3119 0.0
H489 H 0.88379 0.08507 0.38092 0.0
H490 H 0.9159 0.15775 0.47471 0.0
H491 H 0.88713 0.20431 0.42963 0.0
C492 C 0.85258 0.19822 0.35246 0.0
C493 C 0.83599 0.19154 0.31198 0.0
C494 C 0.86929 0.17177 0.37849 0.0
C495 C 0.837 0.15821 0.29726 0.0
C496 C 0.85301 0.13157 0.32345 0.0
C497 C 0.88421 0.11109 0.39159 0.0
C498 C 0.90124 0.11793 0.43155 0.0
C499 C 0.86881 0.13793 0.36445 0.0
C500 C 0.90259 0.15188 0.44436 0.0
C501 C 0.88626 0.17846 0.4185 0.0
H502 H 0.86101 0.89843 0.40529 0.0
H503 H 0.94625 0.86481 0.31132 0.0
H504 H 0.99059 0.88242 0.3631 0.0
H505 H 1.00455 0.90827 0.43482 0.0
H506 H 0.91791 0.93777 0.52995 0.0
H507 H 0.87377 0.91781 0.47974 0.0
C508 C 0.88917 0.89422 0.39638 0.0
C509 C 0.90019 0.87996 0.35469 0.0
C510 C 0.91389 0.90229 0.42749 0.0
C511 C 0.93705 0.87614 0.34286 0.0
C512 C 0.96229 0.88556 0.3729 0.0
C513 C 0.97586 0.90864 0.44555 0.0
C514 C 0.96406 0.9233 0.48652 0.0
C515 C 0.95089 0.89828 0.41559 0.0
C516 C 0.92714 0.92545 0.49924 0.0
C517 C 0.90212 0.9148 0.47007 0.0
H518 H 0.17085 0.79646 0.35903 0.0
H519 H 0.20046 0.8814 0.24468 0.0
H520 H 0.1661 0.92083 0.29 0.0
H521 H 0.1312 0.93147 0.36529 0.0
H522 H 0.1001 0.84461 0.47715 0.0
H523 H 0.13204 0.80549 0.43009 0.0
C524 C 0.16896 0.82344 0.3437 0.0
C525 C 0.18758 0.83622 0.29879 0.0
C526 C 0.14974 0.84564 0.37001 0.0
C527 C 0.18557 0.8711 0.279 0.0
C528 C 0.16643 0.89363 0.30516 0.0
C529 C 0.13174 0.90402 0.37928 0.0
C530 C 0.11417 0.891 0.42496 0.0
C531 C 0.14916 0.88135 0.35126 0.0
C532 C 0.114 0.85526 0.44238 0.0
C533 C 0.132 0.83284 0.41541 0.0
H534 H 0.18274 0.80909 0.65488 0.0
H535 H 0.22327 0.88577 0.7383 0.0
H536 H 0.19601 0.93182 0.69054 0.0
H537 H 0.16185 0.9504 0.62393 0.0
H538 H 0.11736 0.87314 0.54469 0.0
H539 H 0.14558 0.82707 0.59135 0.0
C540 C 0.18536 0.83585 0.66282 0.0
C541 C 0.20504 0.84409 0.69996 0.0
C542 C 0.16947 0.86206 0.63546 0.0
C543 C 0.208 0.87876 0.71015 0.0
C544 C 0.19271 0.90513 0.68259 0.0
C545 C 0.15879 0.92351 0.61655 0.0
C546 C 0.13841 0.9151 0.58023 0.0
C547 C 0.17378 0.89713 0.64483 0.0
C548 C 0.1335 0.88012 0.57195 0.0
C549 C 0.1494 0.85385 0.59882 0.0
H550 H 0.1027 0.19811 0.64831 0.0
H551 H 0.12297 0.10379 0.73665 0.0
H552 H 0.09144 0.06819 0.68607 0.0
H553 H 0.06641 0.06415 0.61115 0.0
H554 H 0.04827 0.15816 0.52025 0.0
H555 H 0.07174 0.194 0.5771 0.0
C556 C 0.09949 0.16975 0.65696 0.0
C557 C 0.11545 0.15343 0.69564 0.0
C558 C 0.08293 0.14959 0.62654 0.0
C559 C 0.11075 0.11683 0.70717 0.0
C560 C 0.09329 0.09654 0.67782 0.0
C561 C 0.06764 0.09247 0.60351 0.0
C562 C 0.05653 0.10856 0.56088 0.0
C563 C 0.08081 0.11266 0.63633 0.0
C564 C 0.05728 0.14525 0.55241 0.0
C565 C 0.07047 0.16567 0.58499 0.0
H566 H 0.80254 0.17696 0.66701 0.0
H567 H 0.88608 0.21702 0.74402 0.0
H568 H 0.931 0.18763 0.69767 0.0
H569 H 0.94655 0.15341 0.63164 0.0
H570 H 0.8618 0.11174 0.55795 0.0
H571 H 0.81699 0.13971 0.60598 0.0
C572 C 0.83053 0.17888 0.67405 0.0
C573 C 0.84123 0.19913 0.70849 0.0
C574 C 0.85588 0.16233 0.64722 0.0
C575 C 0.87736 0.20124 0.71782 0.0
C576 C 0.90301 0.18485 0.69099 0.0
C577 C 0.91826 0.15083 0.6261 0.0
C578 C 0.90719 0.13129 0.59113 0.0
C579 C 0.89264 0.16599 0.65487 0.0
C580 C 0.87059 0.12705 0.58462 0.0
C581 C 0.8451 0.14283 0.6121 0.0
H582 H 0.94966 0.88601 0.76938 0.0
H583 H 0.86227 0.94572 0.72879 0.0
H584 H 0.90509 0.99473 0.69117 0.0
H585 H 0.9655 1.0103 0.64851 0.0
H586 H 0.05263 0.94779 0.68248 0.0
H587 H 1.01244 0.9108 0.74537 0.0
C588 C 0.94023 0.91057 0.75452 0.0
C589 C 0.90342 0.91253 0.75066 0.0
C590 C 0.96507 0.9377 0.73081 0.0
C591 C 0.89082 0.94404 0.73151 0.0
C592 C 0.91526 0.9718 0.70963 0.0
C593 C 0.97588 0.98947 0.67119 0.0
C594 C 1.0112 0.9807 0.66021 0.0
C595 C 0.9523 0.96753 0.70561 0.0
C596 C 0.02513 0.95446 0.69009 0.0
C597 C 1.00208 0.9331 0.7257 0.0
H598 H 0.35717 0.24493 0.12588 0.0
H599 H 0.27633 0.15969 0.18129 0.0
H600 H 0.30937 0.11993 0.13706 0.0
H601 H 0.36377 0.10776 0.08666 0.0
H602 H 0.44377 0.19344 0.03007 0.0
H603 H 0.40852 0.234 0.06969 0.0
C604 C 0.34669 0.21774 0.12799 0.0
C605 C 0.31451 0.20547 0.15737 0.0
C606 C 0.36578 0.19471 0.10211 0.0
C607 C 0.30117 0.17008 0.15922 0.0
C608 C 0.32006 0.14711 0.13388 0.0
C609 C 0.37316 0.13537 0.08247 0.0
C610 C 0.40669 0.14721 0.05608 0.0
C611 C 0.35274 0.15892 0.10574 0.0
C612 C 0.41834 0.18325 0.05086 0.0
C613 C 0.3982 0.20667 0.07356 0.0
H614 H 0.83783 0.35895 0.12196 0.0
H615 H 0.88604 0.32223 0.24789 0.0
H616 H 0.93592 0.36792 0.22589 0.0
H617 H 0.96632 0.41836 0.17115 0.0
H618 H 0.91738 0.45804 0.04698 0.0
H619 H 0.86753 0.41203 0.06821 0.0
C620 C 0.85959 0.36072 0.14407 0.0
C621 C 0.85858 0.33658 0.18606 0.0
C622 C 0.88786 0.38814 0.13197 0.0
C623 C 0.88641 0.34001 0.21509 0.0
C624 C 0.91486 0.36636 0.20269 0.0
C625 C 0.94451 0.41741 0.14901 0.0
C626 C 0.94585 0.44211 0.10756 0.0
C627 C 0.91583 0.39073 0.16141 0.0
C628 C 0.91713 0.43997 0.07945 0.0
C629 C 0.88867 0.41327 0.09132 0.0
H630 H 0.73863 0.88984 0.17716 0.0
H631 H 0.69858 0.79531 0.12712 0.0
H632 H 0.65186 0.82648 0.09023 0.0
H633 H 0.61692 0.87852 0.08263 0.0
H634 H 0.6564 0.97194 0.13657 0.0
H635 H 0.70826 0.94338 0.16129 0.0
C636 C 0.72043 0.87638 0.15686 0.0
C637 C 0.72196 0.84038 0.15505 0.0
C638 C 0.6927 0.89406 0.13745 0.0
C639 C 0.69786 0.82312 0.12911 0.0
C640 C 0.67089 0.84082 0.10838 0.0
C641 C 0.63704 0.89268 0.09937 0.0
C642 C 0.6321 0.92704 0.10869 0.0
C643 C 0.66705 0.87595 0.11412 0.0
C644 C 0.65885 0.94517 0.12981 0.0
C645 C 0.68881 0.92895 0.14386 0.0
H646 H 0.18342 0.65403 0.08633 0.0
H647 H 0.12176 0.74467 0.08733 0.0
H648 H 0.07139 0.712 0.06097 0.0
H649 H 0.04223 0.65618 0.04598 0.0
H650 H 0.10057 0.56353 0.05556 0.0
H651 H 0.15418 0.59811 0.07224 0.0
C652 C 0.1589 0.66674 0.0815 0.0
C653 C 0.15662 0.70186 0.08985 0.0
C654 C 0.12897 0.6471 0.0695 0.0
C655 C 0.12493 0.71796 0.08093 0.0
C656 C 0.09569 0.69907 0.06655 0.0
C657 C 0.0667 0.64355 0.05183 0.0
C658 C 0.06745 0.60734 0.04998 0.0
C659 C 0.09704 0.6634 0.0622 0.0
C660 C 0.09923 0.59127 0.05754 0.0
C661 C 0.12992 0.61109 0.06662 0.0
H662 H 0.3808 0.83506 0.93991 0.0
H663 H 0.3245 0.9268 0.90303 0.0
H664 H 0.3723 0.96375 0.92875 0.0
H665 H 0.43204 0.97062 0.9574 0.0
H666 H 0.48603 0.87845 0.99938 0.0
H667 H 0.43692 0.84118 0.97674 0.0
C668 C 0.37836 0.86299 0.93851 0.0
C669 C 0.34912 0.87798 0.91864 0.0
C670 C 0.40582 0.88418 0.95389 0.0
C671 C 0.347 0.91444 0.91692 0.0
C672 C 0.37433 0.93568 0.9318 0.0
C673 C 0.43305 0.94237 0.9615 0.0
C674 C 0.46297 0.9274 0.97929 0.0
C675 C 0.40431 0.92096 0.94928 0.0
C676 C 0.46345 0.89069 0.98548 0.0
C677 C 0.43535 0.86933 0.97256 0.0
H678 H 0.23327 0.35927 0.85005 0.0
H679 H 0.15318 0.27034 0.87762 0.0
H680 H 0.11231 0.30405 0.92232 0.0
H681 H 0.09762 0.35935 0.9488 0.0
H682 H 0.17605 0.44943 0.92083 0.0
H683 H 0.21954 0.41446 0.88141 0.0
C684 C 0.20701 0.34713 0.86624 0.0
C685 C 0.19625 0.31228 0.8601 0.0
C686 C 0.18332 0.36689 0.89153 0.0
C687 C 0.16215 0.29705 0.88147 0.0
C688 C 0.13871 0.31635 0.90701 0.0
C689 C 0.12425 0.3715 0.93422 0.0
C690 C 0.13336 0.4072 0.93712 0.0
C691 C 0.14874 0.35142 0.91142 0.0
C692 C 0.16825 0.42212 0.91883 0.0
C693 C 0.19305 0.40213 0.89619 0.0
H694 H 0.71092 0.15641 0.8776 0.0
H695 H 0.65133 0.21845 0.78092 0.0
H696 H 0.5983 0.1776 0.80369 0.0
H697 H 0.56782 0.12459 0.84949 0.0
H698 H 0.62326 0.06135 0.94955 0.0
H699 H 0.67828 0.10148 0.92655 0.0
C700 C 0.68619 0.16112 0.86207 0.0
C701 C 0.68561 0.19077 0.82721 0.0
C702 C 0.65489 0.13683 0.87524 0.0
C703 C 0.65311 0.19598 0.80739 0.0
C704 C 0.62251 0.17248 0.8203 0.0
C705 C 0.59195 0.11901 0.86605 0.0
C706 C 0.59104 0.08934 0.90087 0.0
C707 C 0.6231 0.14266 0.85367 0.0
C708 C 0.62294 0.08342 0.92199 0.0
C709 C 0.65446 0.10672 0.90918 0.0
H710 H 0.84475 0.74085 0.87438 0.0
H711 H 0.7685 0.65767 0.84926 0.0
H712 H 0.80493 0.61403 0.88576 0.0
H713 H 0.86251 0.59954 0.91414 0.0
H714 H 0.93859 0.68229 0.94044 0.0
H715 H 0.89795 0.72611 0.91461 0.0
C716 C 0.83571 0.71319 0.8778 0.0
C717 C 0.80425 0.70252 0.85841 0.0
C718 C 0.85701 0.68818 0.89839 0.0
C719 C 0.79263 0.66662 0.86372 0.0
C720 C 0.81362 0.64161 0.88425 0.0
C721 C 0.86999 0.62716 0.91474 0.0
C722 C 0.90385 0.63779 0.92797 0.0
C723 C 0.84653 0.65209 0.89995 0.0
C724 C 0.91284 0.67352 0.92984 0.0
C725 C 0.88967 0.69857 0.91494 0.0
H726 H 0.23179 0.37057 0.14899 0.0
H727 H 0.16373 0.27649 0.14266 0.0
H728 H 0.12067 0.31132 0.10321 0.0
H729 H 0.09844 0.36931 0.08016 0.0
H730 H 0.16535 0.46293 0.09208 0.0
H731 H 0.21265 0.42767 0.11887 0.0
C732 C 0.20794 0.35759 0.13808 0.0
C733 C 0.2009 0.32102 0.14919 0.0
C734 C 0.1827 0.37784 0.1168 0.0
C735 C 0.16973 0.30468 0.13488 0.0
C736 C 0.14497 0.32459 0.11244 0.0
C737 C 0.12365 0.38188 0.08782 0.0
C738 C 0.12814 0.41862 0.08489 0.0
C739 C 0.15053 0.36132 0.10469 0.0
C740 C 0.16098 0.43463 0.09484 0.0
C741 C 0.18811 0.4145 0.11016 0.0
H742 H 0.17882 0.67079 0.78662 0.0
H743 H 0.17692 0.72631 0.90898 0.0
H744 H 0.12813 0.68404 0.95111 0.0
H745 H 0.08406 0.63242 0.95186 0.0
H746 H 0.08536 0.57813 0.82891 0.0
H747 H 0.13639 0.61853 0.78844 0.0
C748 C 0.16788 0.6738 0.82256 0.0
C749 C 0.18175 0.70215 0.84431 0.0
C750 C 0.13975 0.64931 0.8466 0.0
C751 C 0.16696 0.70511 0.89105 0.0
C752 C 0.13901 0.6808 0.91525 0.0
C753 C 0.09616 0.6289 0.91675 0.0
C754 C 0.0815 0.6016 0.89396 0.0
C755 C 0.12507 0.65285 0.89334 0.0
C756 C 0.09655 0.59835 0.84759 0.0
C757 C 0.12557 0.62167 0.82435 0.0
H758 H 0.29842 0.14782 0.831 0.0
H759 H 0.32619 0.23712 0.90056 0.0
H760 H 0.37384 0.20665 0.93644 0.0
H761 H 0.41249 0.15707 0.94032 0.0
H762 H 0.38519 0.06902 0.86732 0.0
H763 H 0.33337 0.0965 0.84061 0.0
C764 C 0.31411 0.16009 0.85528 0.0
C765 C 0.30855 0.1945 0.86341 0.0
C766 C 0.34251 0.14299 0.87423 0.0
C767 C 0.32978 0.21045 0.89403 0.0
C768 C 0.35734 0.19321 0.91415 0.0
C769 C 0.39511 0.14383 0.91883 0.0
C770 C 0.40342 0.11118 0.90546 0.0
C771 C 0.36487 0.1599 0.90314 0.0
C772 C 0.38012 0.09437 0.87787 0.0
C773 C 0.35014 0.10999 0.86257 0.0
H774 H 0.85818 0.38873 0.88769 0.0
H775 H 0.89659 0.29542 0.95815 0.0
H776 H 0.94278 0.33113 0.98975 0.0
H777 H 0.97513 0.3882 0.99186 0.0
H778 H 0.93931 0.48187 0.91786 0.0
H779 H 0.88929 0.44679 0.89304 0.0
C780 C 0.87625 0.37642 0.91081 0.0
C781 C 0.8739 0.33961 0.92113 0.0
C782 C 0.90352 0.39712 0.92748 0.0
C783 C 0.89784 0.32374 0.9502 0.0
C784 C 0.92432 0.34413 0.96795 0.0
C785 C 0.95637 0.4011 0.97043 0.0
C786 C 0.96135 0.43768 0.95632 0.0
C787 C 0.92795 0.38076 0.9559 0.0
C788 C 0.93645 0.45377 0.92887 0.0
C789 C 0.90775 0.43372 0.91474 0.0
H790 H 0.67287 0.79496 0.88712 0.0
H791 H 0.74592 0.88122 0.8136 0.0
H792 H 0.71596 0.92178 0.86073 0.0
H793 H 0.66585 0.93355 0.91979 0.0
H794 H 0.59503 0.84603 0.99501 0.0
H795 H 0.62749 0.80561 0.95141 0.0
C796 C 0.68228 0.82261 0.88156 0.0
C797 C 0.71127 0.83502 0.84649 0.0
C798 C 0.66534 0.84579 0.90941 0.0
C799 C 0.72352 0.8709 0.84029 0.0
C800 C 0.7064 0.8942 0.86726 0.0
C801 C 0.65806 0.9056 0.92724 0.0
C802 C 0.62764 0.89307 0.96014 0.0
C803 C 0.67691 0.88208 0.90164 0.0
C804 C 0.61796 0.85663 0.96933 0.0
C805 C 0.63647 0.83333 0.9443 0.0
H806 H 0.79908 0.68532 0.17043 0.0
H807 H 0.88468 0.76733 0.16739 0.0
H808 H 0.9258 0.73493 0.12044 0.0
H809 H 0.93795 0.68289 0.08289 0.0
H810 H 0.85311 0.60021 0.08599 0.0
H811 H 0.81093 0.63363 0.1303 0.0
C812 C 0.82671 0.69624 0.15943 0.0
C813 C 0.83879 0.72878 0.17272 0.0
C814 C 0.85027 0.67736 0.13259 0.0
C815 C 0.87464 0.74245 0.15782 0.0
C816 C 0.89817 0.72389 0.13101 0.0
C817 C 0.91022 0.672 0.09307 0.0
C818 C 0.89883 0.6388 0.08135 0.0
C819 C 0.88635 0.69122 0.11861 0.0
C820 C 0.86267 0.62553 0.09461 0.0
C821 C 0.83859 0.64465 0.12001 0.0
H822 H 0.36101 0.86659 0.23973 0.0
H823 H 0.32272 0.85221 0.10541 0.0
H824 H 0.3679 0.89859 0.06424 0.0
H825 H 0.42127 0.94128 0.06585 0.0
H826 H 0.46031 0.95261 0.20049 0.0
H827 H 0.41156 0.91053 0.24182 0.0
C828 C 0.36226 0.8736 0.20144 0.0
C829 C 0.33826 0.85544 0.17595 0.0
C830 C 0.38846 0.90032 0.17791 0.0
C831 C 0.34061 0.86542 0.12626 0.0
C832 C 0.36655 0.8921 0.1026 0.0
C833 C 0.41859 0.93516 0.1043 0.0
C834 C 0.44449 0.95066 0.12992 0.0
C835 C 0.39093 0.90961 0.12796 0.0
C836 C 0.44076 0.94161 0.17978 0.0
C837 C 0.41298 0.91719 0.20348 0.0
H838 H 0.68155 0.18734 0.03733 0.0
H839 H 0.67893 0.12122 0.17259 0.0
H840 H 0.62717 0.08585 0.15499 0.0
H841 H 0.57982 0.07506 0.10399 0.0
H842 H 0.57803 0.14419 0.97275 0.0
H843 H 0.63348 0.17696 0.98652 0.0
C844 C 0.66972 0.16535 0.06321 0.0
C845 C 0.68509 0.15712 0.10608 0.0
C846 C 0.63857 0.14562 0.05388 0.0
C847 C 0.66904 0.128 0.13855 0.0
C848 C 0.63882 0.10782 0.1289 0.0
C849 C 0.59158 0.09725 0.07832 0.0
C850 C 0.5746 0.1071 0.03747 0.0
C851 C 0.62306 0.11658 0.08701 0.0
C852 C 0.59024 0.1361 1.00475 0.0
C853 C 0.62209 0.15487 0.01254 0.0
H854 H 0.63632 0.61046 0.76518 0.0
H855 H 0.5627 0.69054 0.74733 0.0
H856 H 0.51207 0.64877 0.78468 0.0
H857 H 0.49397 0.59638 0.843 0.0
H858 H 0.57117 0.52123 0.87316 0.0
H859 H 0.61504 0.55311 0.8097 0.0
C860 C 0.60881 0.618 0.76744 0.0
C861 C 0.60274 0.65306 0.75418 0.0
C862 C 0.58074 0.59474 0.7923 0.0
C863 C 0.56749 0.66337 0.7574 0.0
C864 C 0.53878 0.63964 0.7793 0.0
C865 C 0.51985 0.58631 0.83406 0.0
C866 C 0.52993 0.55712 0.86263 0.0
C867 C 0.54568 0.60618 0.80011 0.0
C868 C 0.56339 0.54406 0.85155 0.0
C869 C 0.58843 0.56235 0.81557 0.0
H870 H 0.35661 0.72812 0.86432 0.0
H871 H 0.31702 0.6518 0.77965 0.0
H872 H 0.34434 0.60572 0.82716 0.0
H873 H 0.37773 0.58689 0.89424 0.0
H874 H 0.42141 0.66357 0.97493 0.0
H875 H 0.39365 0.70992 0.928 0.0
C876 C 0.35423 0.70144 0.85601 0.0
C877 C 0.3347 0.69331 0.81866 0.0
C878 C 0.37016 0.67518 0.88325 0.0
C879 C 0.33208 0.65874 0.80803 0.0
C880 C 0.34743 0.63235 0.83542 0.0
C881 C 0.38079 0.61371 0.90185 0.0
C882 C 0.40067 0.62186 0.93877 0.0
C883 C 0.36606 0.64021 0.8735 0.0
C884 C 0.40559 0.65678 0.94728 0.0
C885 C 0.38995 0.6832 0.92026 0.0
H886 H 0.42075 0.33564 0.87714 0.0
H887 H 0.40118 0.42835 0.78515 0.0
H888 H 0.43488 0.46509 0.83254 0.0
H889 H 0.46398 0.47071 0.90479 0.0
H890 H 0.48238 0.37774 0.99767 0.0
H891 H 0.45417 0.34095 0.94565 0.0
C892 C 0.42452 0.36388 0.86705 0.0
C893 C 0.40845 0.37946 0.82811 0.0
C894 C 0.44271 0.38464 0.89527 0.0
C895 C 0.41361 0.41591 0.81484 0.0
C896 C 0.43236 0.43685 0.84231 0.0
C897 C 0.46163 0.44241 0.91385 0.0
C898 C 0.4745 0.42691 0.95557 0.0
C899 C 0.44588 0.42152 0.88352 0.0
C900 C 0.4722 0.39021 0.96609 0.0
C901 C 0.4563 0.36922 0.93627 0.0
H902 H 0.73166 0.36366 0.82957 0.0
H903 H 0.64517 0.31693 0.76342 0.0
H904 H 0.60118 0.34648 0.81097 0.0
H905 H 0.58728 0.38256 0.8756 0.0
H906 H 0.67471 0.431 0.93832 0.0
H907 H 0.71853 0.40337 0.88835 0.0
C908 C 0.70321 0.36037 0.82502 0.0
C909 C 0.69158 0.33812 0.79319 0.0
C910 C 0.6783 0.37722 0.8525 0.0
C911 C 0.65475 0.33422 0.78737 0.0
C912 C 0.62961 0.35077 0.81495 0.0
C913 C 0.61596 0.38691 0.87824 0.0
C914 C 0.62791 0.4083 0.91089 0.0
C915 C 0.64103 0.3717 0.84841 0.0
C916 C 0.66504 0.41448 0.91349 0.0
C917 C 0.69004 0.39877 0.88492 0.0
H918 H 0.68646 0.30811 0.1405 0.0
H919 H 0.71174 0.37761 0.24192 0.0
H920 H 0.68273 0.42424 0.198 0.0
H921 H 0.65157 0.44567 0.12986 0.0
H922 H 0.62249 0.37549 0.03129 0.0
H923 H 0.6521 0.32862 0.07466 0.0
C924 C 0.68539 0.3334 0.15317 0.0
C925 C 0.70133 0.33945 0.19435 0.0
C926 C 0.66846 0.35999 0.12791 0.0
C927 C 0.69948 0.37222 0.21054 0.0
C928 C 0.68315 0.39897 0.18524 0.0
C929 C 0.65208 0.42018 0.11764 0.0
C930 C 0.63559 0.41404 0.07704 0.0
C931 C 0.66796 0.39325 0.14363 0.0
C932 C 0.63539 0.38074 0.06224 0.0
C933 C 0.65216 0.35402 0.0871 0.0
H934 H 0.66969 0.63985 0.13147 0.0
H935 H 0.58116 0.67798 0.21446 0.0
H936 H 0.53888 0.65521 0.16328 0.0
H937 H 0.52784 0.62513 0.09389 0.0
H938 H 0.6174 0.58921 0.01057 0.0
H939 H 0.6593 0.6125 0.06142 0.0
C940 C 0.64114 0.64338 0.13826 0.0
C941 C 0.62855 0.66079 0.17636 0.0
C942 C 0.61757 0.63179 0.10767 0.0
C943 C 0.59141 0.66433 0.18559 0.0
C944 C 0.56739 0.65187 0.1559 0.0
C945 C 0.55668 0.62371 0.08599 0.0
C946 C 0.57 0.60675 0.04786 0.0
C947 C 0.58032 0.63612 0.11634 0.0
C948 C 0.60706 0.60324 0.03904 0.0
C949 C 0.63079 0.61596 0.06849 0.0
H950 H 0.36242 0.74099 0.1586 0.0
H951 H 0.33019 0.65868 0.27566 0.0
H952 H 0.36307 0.61716 0.23237 0.0
H953 H 0.39879 0.60406 0.15851 0.0
H954 H 0.43357 0.68876 0.04483 0.0
H955 H 0.4015 0.72942 0.08885 0.0
C956 C 0.36339 0.71412 0.175 0.0
C957 C 0.34458 0.70286 0.22033 0.0
C958 C 0.38205 0.69069 0.14989 0.0
C959 C 0.34532 0.66797 0.24117 0.0
C960 C 0.36366 0.64421 0.21612 0.0
C961 C 0.39893 0.63135 0.14337 0.0
C962 C 0.41769 0.6432 0.09788 0.0
C963 C 0.38158 0.65513 0.16997 0.0
C964 C 0.41869 0.67883 0.07925 0.0
C965 C 0.40063 0.70221 0.10459 0.0
H966 H 0.38297 0.43592 0.23852 0.0
H967 H 0.44254 0.34513 0.26142 0.0
H968 H 0.49926 0.38072 0.23167 0.0
H969 H 0.52725 0.43252 0.17764 0.0
H970 H 0.4651 0.52047 0.14536 0.0
H971 H 0.4144 0.4922 0.20173 0.0
C972 C 0.40869 0.42455 0.239 0.0
C973 C 0.40918 0.38837 0.25131 0.0
C974 C 0.4406 0.44474 0.21946 0.0
C975 C 0.4421 0.37319 0.25183 0.0
C976 C 0.47434 0.39344 0.23444 0.0
C977 C 0.50323 0.44606 0.18497 0.0
C978 C 0.49921 0.47795 0.15733 0.0
C979 C 0.47346 0.42859 0.21491 0.0
C980 C 0.46819 0.49558 0.16632 0.0
C981 C 0.43918 0.4793 0.19811 0.0
H982 H 0.87304 0.73315 0.66251 0.0
H983 H 0.77114 0.6748 0.65647 0.0
H984 H 0.8026 0.62953 0.62057 0.0
H985 H 0.85986 0.60361 0.59726 0.0
H986 H 0.96113 0.66209 0.60672 0.0
H987 H 0.92929 0.70978 0.63413 0.0
C988 C 0.85762 0.71082 0.65273 0.0
C989 C 0.81974 0.70747 0.66256 0.0
C990 C 0.8759 0.68446 0.6329 0.0
C991 C 0.80034 0.67815 0.64959 0.0
C992 C 0.81834 0.65209 0.62911 0.0
C993 C 0.87486 0.62698 0.60476 0.0
C994 C 0.91289 0.62886 0.60056 0.0
C995 C 0.85623 0.65449 0.62157 0.0
C996 C 0.93187 0.6595 0.61035 0.0
C997 C 0.91368 0.68697 0.62603 0.0
H998 H 0.36863 0.85748 0.73828 0.0
H999 H 0.35482 0.81825 0.60567 0.0
H1000 H 0.39979 0.86446 0.56325 0.0
H1001 H 0.43929 0.91992 0.56315 0.0
H1002 H 0.44917 0.95909 0.69674 0.0
H1003 H 0.41047 0.90884 0.73916 0.0
C1004 C 0.37551 0.85868 0.70008 0.0
C1005 C 0.3579 0.83426 0.67539 0.0
C1006 C 0.40096 0.88559 0.67589 0.0
C1007 C 0.3677 0.8365 0.62585 0.0
C1008 C 0.39341 0.86313 0.60148 0.0
C1009 C 0.43345 0.91711 0.60156 0.0
C1010 C 0.44714 0.94365 0.62652 0.0
C1011 C 0.40978 0.88835 0.62597 0.0
C1012 C 0.43914 0.93932 0.67646 0.0
C1013 C 0.41671 0.91062 0.70082 0.0
H1014 H 0.17479 0.30104 0.66385 0.0
H1015 H 0.26748 0.37701 0.64889 0.0
H1016 H 0.23605 0.41886 0.60015 0.0
H1017 H 0.18134 0.43519 0.56649 0.0
H1018 H 0.0878 0.36036 0.58208 0.0
H1019 H 0.12079 0.31646 0.62566 0.0
C1020 C 0.18829 0.32666 0.64964 0.0
C1021 C 0.22345 0.33595 0.66041 0.0
C1022 C 0.16988 0.35077 0.62201 0.0
C1023 C 0.24049 0.36918 0.64138 0.0
C1024 C 0.22248 0.39316 0.61358 0.0
C1025 C 0.16804 0.40925 0.5792 0.0
C1026 C 0.13189 0.40123 0.57153 0.0
C1027 C 0.187 0.38444 0.60445 0.0
C1028 C 0.11548 0.36728 0.58766 0.0
C1029 C 0.13432 0.34224 0.61269 0.0
H1030 H 0.6223 0.18366 0.62457 0.0
H1031 H 0.71359 0.18825 0.51754 0.0
H1032 H 0.6863 0.13708 0.48711 0.0
H1033 H 0.63963 0.08662 0.49777 0.0
H1034 H 0.54893 0.08252 0.60657 0.0
H1035 H 0.57286 0.1373 0.62966 0.0
C1036 C 0.63546 0.1742 0.59341 0.0
C1037 C 0.66944 0.19011 0.57258 0.0
C1038 C 0.62024 0.14403 0.57745 0.0
C1039 C 0.68695 0.17695 0.53329 0.0
C1040 C 0.67162 0.14731 0.5165 0.0
C1041 C 0.62513 0.09772 0.52652 0.0
C1042 C 0.59276 0.07992 0.55084 0.0
C1043 C 0.63889 0.1298 0.53949 0.0
C1044 C 0.57404 0.09523 0.58739 0.0
C1045 C 0.58762 0.12677 0.60061 0.0
H1046 H 0.80816 0.41012 0.4271 0.0
H1047 H 0.88785 0.3374 0.40132 0.0
H1048 H 0.93459 0.37758 0.42458 0.0
H1049 H 0.95319 0.43495 0.45021 0.0
H1050 H 0.87115 0.50463 0.48084 0.0
H1051 H 0.82555 0.46476 0.45706 0.0
C1052 C 0.83572 0.40299 0.42691 0.0
C1053 C 0.8445 0.37088 0.41249 0.0
C1054 C 0.86234 0.42609 0.44046 0.0
C1055 C 0.8803 0.36184 0.41279 0.0
C1056 C 0.90712 0.38497 0.42564 0.0
C1057 C 0.92541 0.44147 0.45108 0.0
C1058 C 0.91594 0.47331 0.46618 0.0
C1059 C 0.89859 0.41748 0.43898 0.0
C1060 C 0.87955 0.48081 0.46856 0.0
C1061 C 0.85321 0.45781 0.45526 0.0
H1062 H 0.72629 0.85776 0.36856 0.0
H1063 H 0.63686 0.7944 0.33023 0.0
H1064 H 0.59481 0.83431 0.36052 0.0
H1065 H 0.58412 0.88985 0.39109 0.0
H1066 H 0.67305 0.95272 0.43136 0.0
H1067 H 0.71466 0.91015 0.40741 0.0
C1068 C 0.69753 0.8524 0.36742 0.0
C1069 C 0.68478 0.82324 0.34669 0.0
C1070 C 0.67351 0.87556 0.38477 0.0
C1071 C 0.64742 0.81652 0.34601 0.0
C1072 C 0.62338 0.8395 0.36303 0.0
C1073 C 0.61261 0.89425 0.39481 0.0
C1074 C 0.62559 0.92489 0.412 0.0
C1075 C 0.63624 0.86956 0.38131 0.0
C1076 C 0.66241 0.92963 0.41772 0.0
C1077 C 0.6862 0.90529 0.40398 0.0
H1078 H 0.15972 0.68655 0.28753 0.0
H1079 H 0.22 0.68106 0.40889 0.0
H1080 H 0.17688 0.63346 0.45098 0.0
H1081 H 0.12388 0.59069 0.45169 0.0
H1082 H 0.06362 0.59569 0.33098 0.0
H1083 H 0.10457 0.64587 0.29042 0.0
C1084 C 0.16349 0.67511 0.32328 0.0
C1085 C 0.19364 0.68767 0.34461 0.0
C1086 C 0.13829 0.64756 0.34757 0.0
C1087 C 0.19748 0.67223 0.39117 0.0
C1088 C 0.17268 0.64488 0.4154 0.0
C1089 C 0.1189 0.60352 0.41729 0.0
C1090 C 0.0897 0.59002 0.39528 0.0
C1091 C 0.1431 0.63211 0.39389 0.0
C1092 C 0.08506 0.60598 0.3494 0.0
C1093 C 0.10879 0.63454 0.32602 0.0
H1094 H 0.27109 0.1638 0.38594 0.0
H1095 H 0.35534 0.2473 0.33801 0.0
H1096 H 0.39635 0.21712 0.38642 0.0
H1097 H 0.41047 0.16439 0.43761 0.0
H1098 H 0.32569 0.0816 0.48659 0.0
H1099 H 0.28328 0.11415 0.44363 0.0
C1100 C 0.29828 0.17553 0.38646 0.0
C1101 C 0.31 0.20757 0.35779 0.0
C1102 C 0.32203 0.15806 0.41468 0.0
C1103 C 0.34539 0.22251 0.35937 0.0
C1104 C 0.36908 0.20526 0.38712 0.0
C1105 C 0.38259 0.1538 0.43952 0.0
C1106 C 0.37165 0.12031 0.46471 0.0
C1107 C 0.358 0.17265 0.41427 0.0
C1108 C 0.33523 0.10708 0.46688 0.0
C1109 C 0.31077 0.12567 0.44222 0.0
H1110 H 0.67706 0.80539 0.64442 0.0
H1111 H 0.77008 0.88017 0.63573 0.0
H1112 H 0.73971 0.92384 0.58835 0.0
H1113 H 0.68473 0.94246 0.5565 0.0
H1114 H 0.59124 0.86816 0.56641 0.0
H1115 H 0.62404 0.82246 0.60601 0.0
C1116 C 0.69093 0.8311 0.63169 0.0
C1117 C 0.72566 0.83963 0.64415 0.0
C1118 C 0.67311 0.85624 0.60511 0.0
C1119 C 0.74332 0.87294 0.62689 0.0
C1120 C 0.72589 0.89799 0.59997 0.0
C1121 C 0.67154 0.91621 0.56702 0.0
C1122 C 0.63534 0.90888 0.55928 0.0
C1123 C 0.69044 0.89021 0.59005 0.0
C1124 C 0.61895 0.87458 0.57232 0.0
C1125 C 0.63767 0.84846 0.59505 0.0
H1126 H 0.66105 0.20814 0.38449 0.0
H1127 H 0.69132 0.16652 0.25326 0.0
H1128 H 0.64626 0.11773 0.2765 0.0
H1129 H 0.60067 0.08385 0.33491 0.0
H1130 H 0.56709 0.12318 0.4661 0.0
H1131 H 0.60998 0.1753 0.44184 0.0
C1132 C 0.65766 0.18849 0.36097 0.0
C1133 C 0.68031 0.19144 0.31716 0.0
C1134 C 0.63077 0.15973 0.3744 0.0
C1135 C 0.67492 0.16549 0.28725 0.0
C1136 C 0.64888 0.13723 0.30042 0.0
C1137 C 0.60213 0.10404 0.35804 0.0
C1138 C 0.58066 0.09912 0.40255 0.0
C1139 C 0.62695 0.13379 0.34399 0.0
C1140 C 0.58306 0.126 0.43156 0.0
C1141 C 0.60794 0.15581 0.41782 0.0
H1142 H 0.7861 0.66019 0.35275 0.0
H1143 H 0.82774 0.75663 0.39633 0.0
H1144 H 0.87051 0.72522 0.44117 0.0
H1145 H 0.89886 0.67013 0.46444 0.0
H1146 H 0.8572 0.5747 0.41757 0.0
H1147 H 0.81251 0.60576 0.37762 0.0
C1148 C 0.80393 0.67415 0.37301 0.0
C1149 C 0.80355 0.71054 0.37145 0.0
C1150 C 0.82925 0.65616 0.39748 0.0
C1151 C 0.82739 0.72844 0.39714 0.0
C1152 C 0.85212 0.71057 0.42248 0.0
C1153 C 0.88018 0.65638 0.4451 0.0
C1154 C 0.88156 0.62021 0.44394 0.0
C1155 C 0.85395 0.67447 0.42204 0.0
C1156 C 0.85677 0.60258 0.41926 0.0
C1157 C 0.831 0.62025 0.39638 0.0
H1158 H 0.40416 0.85524 0.401 0.0
H1159 H 0.30391 0.85825 0.4894 0.0
H1160 H 0.32919 0.90922 0.52218 0.0
H1161 H 0.37769 0.95736 0.51793 0.0
H1162 H 0.47698 0.95451 0.42606 0.0
H1163 H 0.45428 0.89963 0.40243 0.0
C1164 C 0.38842 0.86632 0.42878 0.0
C1165 C 0.35259 0.85267 0.4436 0.0
C1166 C 0.40264 0.89645 0.44581 0.0
C1167 C 0.33189 0.86791 0.47837 0.0
C1168 C 0.34616 0.89739 0.49647 0.0
C1169 C 0.39438 0.94466 0.4929 0.0
C1170 C 0.42885 0.9606 0.47341 0.0
C1171 C 0.38111 0.91271 0.47913 0.0
C1172 C 0.4502 0.94336 0.44139 0.0
C1173 C 0.43733 0.91172 0.42789 0.0
H1174 H 0.22987 0.35402 0.35665 0.0
H1175 H 0.13919 0.28255 0.34001 0.0
H1176 H 0.09761 0.32056 0.37505 0.0
H1177 H 0.08645 0.37647 0.40386 0.0
H1178 H 0.17626 0.44713 0.42474 0.0
H1179 H 0.21865 0.40699 0.39521 0.0
C1180 C 0.20104 0.34655 0.36132 0.0
C1181 C 0.18773 0.31558 0.34518 0.0
C1182 C 0.17707 0.36853 0.38195 0.0
C1183 C 0.15028 0.30615 0.35199 0.0
C1184 C 0.12639 0.328 0.37184 0.0
C1185 C 0.11532 0.38295 0.40233 0.0
C1186 C 0.12822 0.41501 0.41562 0.0
C1187 C 0.13941 0.35962 0.38587 0.0
C1188 C 0.16566 0.42271 0.41443 0.0
C1189 C 0.18989 0.39981 0.39736 0.0
H1190 H 0.37873 0.22601 0.68487 0.0
H1191 H 0.27785 0.18942 0.63997 0.0
H1192 H 0.30698 0.14307 0.6037 0.0
H1193 H 0.36016 0.10868 0.59214 0.0
H1194 H 0.46019 0.14578 0.6398 0.0
H1195 H 0.43251 0.19537 0.66701 0.0
C1196 C 0.36335 0.20846 0.66611 0.0
C1197 C 0.32622 0.21117 0.66537 0.0
C1198 C 0.38 0.18114 0.64646 0.0
C1199 C 0.30657 0.18786 0.64129 0.0
C1200 C 0.32314 0.16113 0.62073 0.0
C1201 C 0.37587 0.12771 0.60821 0.0
C1202 C 0.41202 0.12267 0.6147 0.0
C1203 C 0.35967 0.15673 0.62441 0.0
C1204 C 0.43206 0.14814 0.63506 0.0
C1205 C 0.41634 0.1769 0.6506 0.0
H1206 H 0.8625 0.3626 0.73265 0.0
H1207 H 0.82884 0.34393 0.59721 0.0
H1208 H 0.87524 0.38899 0.556 0.0
H1209 H 0.92422 0.43564 0.5585 0.0
H1210 H 0.95343 0.45789 0.69441 0.0
H1211 H 0.91091 0.40923 0.73508 0.0
C1212 C 0.86528 0.36823 0.69407 0.0
C1213 C 0.84187 0.34958 0.66828 0.0
C1214 C 0.89175 0.39473 0.67055 0.0
C1215 C 0.84609 0.35772 0.61824 0.0
C1216 C 0.87285 0.38349 0.59456 0.0
C1217 C 0.92183 0.42937 0.59691 0.0
C1218 C 0.94278 0.45008 0.62321 0.0
C1219 C 0.89581 0.40231 0.62029 0.0
C1220 C 0.93831 0.44211 0.67319 0.0
C1221 C 0.91367 0.41443 0.69649 0.0
H1222 H 0.15689 0.67972 0.58412 0.0
H1223 H 0.2444 0.61387 0.60402 0.0
H1224 H 0.21031 0.56633 0.57524 0.0
H1225 H 0.15323 0.54128 0.55203 0.0
H1226 H 0.06281 0.60437 0.54482 0.0
H1227 H 0.09985 0.65461 0.56346 0.0
C1228 C 0.16856 0.65489 0.58312 0.0
C1229 C 0.20322 0.65062 0.59739 0.0
C1230 C 0.14784 0.62677 0.56977 0.0
C1231 C 0.2181 0.61849 0.59313 0.0
C1232 C 0.19834 0.59093 0.57729 0.0
C1233 C 0.14169 0.56606 0.55467 0.0
C1234 C 0.1053 0.56914 0.54749 0.0
C1235 C 0.16282 0.59447 0.56681 0.0
C1236 C 0.09058 0.60127 0.55098 0.0
C1237 C 0.11183 0.63003 0.56122 0.0
loop_
_geom_bond_atom_site_label_1
_geom_bond_atom_site_label_2
_geom_bond_distance
_geom_bond_site_symmetry_2
_ccdc_geom_bond_type
C0 O16 1.251 . S
C0 O18 1.254 . S
N1 C2 1.333 . S
N1 C6 1.307 . S
N1 Zn7 2.020 . S
C2 N1 1.333 . S
C2 C3 1.379 . S
C2 H20 0.952 . S
C3 C2 1.379 . S
C3 C4 1.390 . S
C3 H30 0.949 . S
C4 C3 1.390 . S
C4 C5 1.357 . S
C5 C4 1.357 . S
C5 C6 1.370 . S
C5 H31 0.950 . S
C6 N1 1.307 . S
C6 C5 1.370 . S
C6 H24 0.948 . S
Zn7 N1 2.020 . S
Zn7 O16 2.039 . S
Zn7 O22 2.034 . S
Zn7 O26 2.025 . S
Zn7 O28 2.024 . S
C8 O27 1.246 . S
C8 O28 1.249 . S
N9 C10 1.307 . S
N9 C11 1.333 . S
N9 Zn15 2.020 . S
C10 N9 1.307 . S
C10 C14 1.370 . S
C10 H21 0.948 . S
C11 N9 1.333 . S
C11 C12 1.379 . S
C11 H19 0.952 . S
C12 C11 1.379 . S
C12 C13 1.390 . S
C12 H32 0.949 . S
C13 C12 1.390 . S
C13 C14 1.357 . S
C14 C10 1.370 . S
C14 C13 1.357 . S
C14 H33 0.950 . S
Zn15 N9 2.020 . S
Zn15 O18 2.025 . S
Zn15 O23 2.024 . S
Zn15 O25 2.039 . S
Zn15 O27 2.034 . S
O16 C0 1.251 . S
O16 Zn7 2.039 . S
C17 O22 1.246 . S
C17 O23 1.249 . S
O18 C0 1.254 . S
O18 Zn15 2.025 . S
H19 C11 0.952 . S
H20 C2 0.952 . S
H21 C10 0.948 . S
O22 Zn7 2.034 . S
O22 C17 1.246 . S
O23 Zn15 2.024 . S
O23 C17 1.249 . S
H24 C6 0.948 . S
O25 Zn15 2.039 . S
O25 C29 1.251 . S
O26 Zn7 2.025 . S
O26 C29 1.254 . S
O27 C8 1.246 . S
O27 Zn15 2.034 . S
O28 Zn7 2.024 . S
O28 C8 1.249 . S
C29 O25 1.251 . S
C29 O26 1.254 . S
H30 C3 0.949 . S
H31 C5 0.950 . S
H32 C12 0.949 . S
H33 C14 0.950 . S
C34 O50 1.251 . S
C34 O52 1.254 . S
N35 C36 1.333 . S
N35 C40 1.307 . S
N35 Zn41 2.020 . S
C36 N35 1.333 . S
C36 C37 1.379 . S
C36 H54 0.952 . S
C37 C36 1.379 . S
C37 C38 1.390 . S
C37 H64 0.949 . S
C38 C37 1.390 . S
C38 C39 1.357 . S
C39 C38 1.357 . S
C39 C40 1.370 . S
C39 H65 0.950 . S
C40 N35 1.307 . S
C40 C39 1.370 . S
C40 H58 0.948 . S
Zn41 N35 2.020 . S
Zn41 O50 2.039 . S
Zn41 O56 2.034 . S
Zn41 O60 2.025 . S
Zn41 O62 2.024 . S
C42 O61 1.246 . S
C42 O62 1.249 . S
N43 C44 1.307 . S
N43 C45 1.333 . S
N43 Zn49 2.020 . S
C44 N43 1.307 . S
C44 C48 1.370 . S
C44 H55 0.948 . S
C45 N43 1.333 . S
C45 C46 1.379 . S
C45 H53 0.952 . S
C46 C45 1.379 . S
C46 C47 1.390 . S
C46 H66 0.949 . S
C47 C46 1.390 . S
C47 C48 1.357 . S
C48 C44 1.370 . S
C48 C47 1.357 . S
C48 H67 0.950 . S
Zn49 N43 2.020 . S
Zn49 O52 2.025 . S
Zn49 O57 2.024 . S
Zn49 O59 2.039 . S
Zn49 O61 2.034 . S
O50 C34 1.251 . S
O50 Zn41 2.039 . S
C51 O56 1.246 . S
C51 O57 1.249 . S
O52 C34 1.254 . S
O52 Zn49 2.025 . S
H53 C45 0.952 . S
H54 C36 0.952 . S
H55 C44 0.948 . S
O56 Zn41 2.034 . S
O56 C51 1.246 . S
O57 Zn49 2.024 . S
O57 C51 1.249 . S
H58 C40 0.948 . S
O59 Zn49 2.039 . S
O59 C63 1.251 . S
O60 Zn41 2.025 . S
O60 C63 1.254 . S
O61 C42 1.246 . S
O61 Zn49 2.034 . S
O62 Zn41 2.024 . S
O62 C42 1.249 . S
C63 O59 1.251 . S
C63 O60 1.254 . S
H64 C37 0.949 . S
H65 C39 0.950 . S
H66 C46 0.949 . S
H67 C48 0.950 . S
C68 O84 1.251 . S
C68 O86 1.254 . S
N69 C70 1.333 . S
N69 C74 1.307 . S
N69 Zn75 2.020 . S
C70 N69 1.333 . S
C70 C71 1.379 . S
C70 H88 0.952 . S
C71 C70 1.379 . S
C71 C72 1.390 . S
C71 H98 0.949 . S
C72 C71 1.390 . S
C72 C73 1.357 . S
C73 C72 1.357 . S
C73 C74 1.370 . S
C73 H99 0.950 . S
C74 N69 1.307 . S
C74 C73 1.370 . S
C74 H92 0.948 . S
Zn75 N69 2.020 . S
Zn75 O84 2.039 . S
Zn75 O90 2.034 . S
Zn75 O94 2.025 . S
Zn75 O96 2.024 . S
C76 O95 1.246 . S
C76 O96 1.249 . S
N77 C78 1.307 . S
N77 C79 1.333 . S
N77 Zn83 2.020 . S
C78 N77 1.307 . S
C78 C82 1.370 . S
C78 H89 0.948 . S
C79 N77 1.333 . S
C79 C80 1.379 . S
C79 H87 0.952 . S
C80 C79 1.379 . S
C80 C81 1.390 . S
C80 H100 0.949 . S
C81 C80 1.390 . S
C81 C82 1.357 . S
C82 C78 1.370 . S
C82 C81 1.357 . S
C82 H101 0.950 . S
Zn83 N77 2.020 . S
Zn83 O86 2.025 . S
Zn83 O91 2.024 . S
Zn83 O93 2.039 . S
Zn83 O95 2.034 . S
O84 C68 1.251 . S
O84 Zn75 2.039 . S
C85 O90 1.246 . S
C85 O91 1.249 . S
O86 C68 1.254 . S
O86 Zn83 2.025 . S
H87 C79 0.952 . S
H88 C70 0.952 . S
H89 C78 0.948 . S
O90 Zn75 2.034 . S
O90 C85 1.246 . S
O91 Zn83 2.024 . S
O91 C85 1.249 . S
H92 C74 0.948 . S
O93 Zn83 2.039 . S
O93 C97 1.251 . S
O94 Zn75 2.025 . S
O94 C97 1.254 . S
O95 C76 1.246 . S
O95 Zn83 2.034 . S
O96 Zn75 2.024 . S
O96 C76 1.249 . S
C97 O93 1.251 . S
C97 O94 1.254 . S
H98 C71 0.949 . S
H99 C73 0.950 . S
H100 C80 0.949 . S
H101 C82 0.950 . S
C102 O118 1.251 . S
C102 O120 1.254 . S
N103 C104 1.333 . S
N103 C108 1.307 . S
N103 Zn109 2.020 . S
C104 N103 1.333 . S
C104 C105 1.379 . S
C104 H122 0.952 . S
C105 C104 1.379 . S
C105 C106 1.390 . S
C105 H132 0.949 . S
C106 C105 1.390 . S
C106 C107 1.357 . S
C107 C106 1.357 . S
C107 C108 1.370 . S
C107 H133 0.950 . S
C108 N103 1.307 . S
C108 C107 1.370 . S
C108 H126 0.948 . S
Zn109 N103 2.020 . S
Zn109 O118 2.039 . S
Zn109 O124 2.034 . S
Zn109 O128 2.025 . S
Zn109 O130 2.024 . S
C110 O129 1.246 . S
C110 O130 1.249 . S
N111 C112 1.307 . S
N111 C113 1.333 . S
N111 Zn117 2.020 . S
C112 N111 1.307 . S
C112 C116 1.370 . S
C112 H123 0.948 . S
C113 N111 1.333 . S
C113 C114 1.379 . S
C113 H121 0.952 . S
C114 C113 1.379 . S
C114 C115 1.390 . S
C114 H134 0.949 . S
C115 C114 1.390 . S
C115 C116 1.357 . S
C116 C112 1.370 . S
C116 C115 1.357 . S
C116 H135 0.950 . S
Zn117 N111 2.020 . S
Zn117 O120 2.025 . S
Zn117 O125 2.024 . S
Zn117 O127 2.039 . S
Zn117 O129 2.034 . S
O118 C102 1.251 . S
O118 Zn109 2.039 . S
C119 O124 1.246 . S
C119 O125 1.249 . S
O120 C102 1.254 . S
O120 Zn117 2.025 . S
H121 C113 0.952 . S
H122 C104 0.952 . S
H123 C112 0.948 . S
O124 Zn109 2.034 . S
O124 C119 1.246 . S
O125 Zn117 2.024 . S
O125 C119 1.249 . S
H126 C108 0.948 . S
O127 Zn117 2.039 . S
O127 C131 1.251 . S
O128 Zn109 2.025 . S
O128 C131 1.254 . S
O129 C110 1.246 . S
O129 Zn117 2.034 . S
O130 Zn109 2.024 . S
O130 C110 1.249 . S
C131 O127 1.251 . S
C131 O128 1.254 . S
H132 C105 0.949 . S
H133 C107 0.950 . S
H134 C114 0.949 . S
H135 C116 0.950 . S
C136 O152 1.251 . S
C136 O154 1.254 . S
N137 C138 1.333 . S
N137 C142 1.307 . S
N137 Zn143 2.020 . S
C138 N137 1.333 . S
C138 C139 1.379 . S
C138 H156 0.952 . S
C139 C138 1.379 . S
C139 C140 1.390 . S
C139 H166 0.949 . S
C140 C139 1.390 . S
C140 C141 1.357 . S
C141 C140 1.357 . S
C141 C142 1.370 . S
C141 H167 0.950 . S
C142 N137 1.307 . S
C142 C141 1.370 . S
C142 H160 0.948 . S
Zn143 N137 2.020 . S
Zn143 O152 2.039 . S
Zn143 O158 2.034 . S
Zn143 O162 2.025 . S
Zn143 O164 2.024 . S
C144 O163 1.246 . S
C144 O164 1.249 . S
N145 C146 1.307 . S
N145 C147 1.333 . S
N145 Zn151 2.020 . S
C146 N145 1.307 . S
C146 C150 1.370 . S
C146 H157 0.948 . S
C147 N145 1.333 . S
C147 C148 1.379 . S
C147 H155 0.952 . S
C148 C147 1.379 . S
C148 C149 1.390 . S
C148 H168 0.949 . S
C149 C148 1.390 . S
C149 C150 1.357 . S
C150 C146 1.370 . S
C150 C149 1.357 . S
C150 H169 0.950 . S
Zn151 N145 2.020 . S
Zn151 O154 2.025 . S
Zn151 O159 2.024 . S
Zn151 O161 2.039 . S
Zn151 O163 2.034 . S
O152 C136 1.251 . S
O152 Zn143 2.039 . S
C153 O158 1.246 . S
C153 O159 1.249 . S
O154 C136 1.254 . S
O154 Zn151 2.025 . S
H155 C147 0.952 . S
H156 C138 0.952 . S
H157 C146 0.948 . S
O158 Zn143 2.034 . S
O158 C153 1.246 . S
O159 Zn151 2.024 . S
O159 C153 1.249 . S
H160 C142 0.948 . S
O161 Zn151 2.039 . S
O161 C165 1.251 . S
O162 Zn143 2.025 . S
O162 C165 1.254 . S
O163 C144 1.246 . S
O163 Zn151 2.034 . S
O164 Zn143 2.024 . S
O164 C144 1.249 . S
C165 O161 1.251 . S
C165 O162 1.254 . S
H166 C139 0.949 . S
H167 C141 0.950 . S
H168 C148 0.949 . S
H169 C150 0.950 . S
C170 O186 1.251 . S
C170 O188 1.254 . S
N171 C172 1.333 . S
N171 C176 1.307 . S
N171 Zn177 2.020 . S
C172 N171 1.333 . S
C172 C173 1.379 . S
C172 H190 0.952 . S
C173 C172 1.379 . S
C173 C174 1.390 . S
C173 H200 0.949 . S
C174 C173 1.390 . S
C174 C175 1.357 . S
C175 C174 1.357 . S
C175 C176 1.370 . S
C175 H201 0.950 . S
C176 N171 1.307 . S
C176 C175 1.370 . S
C176 H194 0.948 . S
Zn177 N171 2.020 . S
Zn177 O186 2.039 . S
Zn177 O192 2.034 . S
Zn177 O196 2.025 . S
Zn177 O198 2.024 . S
C178 O197 1.246 . S
C178 O198 1.249 . S
N179 C180 1.307 . S
N179 C181 1.333 . S
N179 Zn185 2.020 . S
C180 N179 1.307 . S
C180 C184 1.370 . S
C180 H191 0.948 . S
C181 N179 1.333 . S
C181 C182 1.379 . S
C181 H189 0.952 . S
C182 C181 1.379 . S
C182 C183 1.390 . S
C182 H202 0.949 . S
C183 C182 1.390 . S
C183 C184 1.357 . S
C184 C180 1.370 . S
C184 C183 1.357 . S
C184 H203 0.950 . S
Zn185 N179 2.020 . S
Zn185 O188 2.025 . S
Zn185 O193 2.024 . S
Zn185 O195 2.039 . S
Zn185 O197 2.034 . S
O186 C170 1.251 . S
O186 Zn177 2.039 . S
C187 O192 1.246 . S
C187 O193 1.249 . S
O188 C170 1.254 . S
O188 Zn185 2.025 . S
H189 C181 0.952 . S
H190 C172 0.952 . S
H191 C180 0.948 . S
O192 Zn177 2.034 . S
O192 C187 1.246 . S
O193 Zn185 2.024 . S
O193 C187 1.249 . S
H194 C176 0.948 . S
O195 Zn185 2.039 . S
O195 C199 1.251 . S
O196 Zn177 2.025 . S
O196 C199 1.254 . S
O197 C178 1.246 . S
O197 Zn185 2.034 . S
O198 Zn177 2.024 . S
O198 C178 1.249 . S
C199 O195 1.251 . S
C199 O196 1.254 . S
H200 C173 0.949 . S
H201 C175 0.950 . S
H202 C182 0.949 . S
H203 C184 0.950 . S
C204 O220 1.251 . S
C204 O222 1.254 . S
N205 C206 1.333 . S
N205 C210 1.307 . S
N205 Zn211 2.020 . S
C206 N205 1.333 . S
C206 C207 1.379 . S
C206 H224 0.952 . S
C207 C206 1.379 . S
C207 C208 1.390 . S
C207 H234 0.949 . S
C208 C207 1.390 . S
C208 C209 1.357 . S
C209 C208 1.357 . S
C209 C210 1.370 . S
C209 H235 0.950 . S
C210 N205 1.307 . S
C210 C209 1.370 . S
C210 H228 0.948 . S
Zn211 N205 2.020 . S
Zn211 O220 2.039 . S
Zn211 O226 2.034 . S
Zn211 O230 2.025 . S
Zn211 O232 2.024 . S
C212 O231 1.246 . S
C212 O232 1.249 . S
N213 C214 1.307 . S
N213 C215 1.333 . S
N213 Zn219 2.020 . S
C214 N213 1.307 . S
C214 C218 1.370 . S
C214 H225 0.948 . S
C215 N213 1.333 . S
C215 C216 1.379 . S
C215 H223 0.952 . S
C216 C215 1.379 . S
C216 C217 1.390 . S
C216 H236 0.949 . S
C217 C216 1.390 . S
C217 C218 1.357 . S
C218 C214 1.370 . S
C218 C217 1.357 . S
C218 H237 0.950 . S
Zn219 N213 2.020 . S
Zn219 O222 2.025 . S
Zn219 O227 2.024 . S
Zn219 O229 2.039 . S
Zn219 O231 2.034 . S
O220 C204 1.251 . S
O220 Zn211 2.039 . S
C221 O226 1.246 . S
C221 O227 1.249 . S
O222 C204 1.254 . S
O222 Zn219 2.025 . S
H223 C215 0.952 . S
H224 C206 0.952 . S
H225 C214 0.948 . S
O226 Zn211 2.034 . S
O226 C221 1.246 . S
O227 Zn219 2.024 . S
O227 C221 1.249 . S
H228 C210 0.948 . S
O229 Zn219 2.039 . S
O229 C233 1.251 . S
O230 Zn211 2.025 . S
O230 C233 1.254 . S
O231 C212 1.246 . S
O231 Zn219 2.034 . S
O232 Zn211 2.024 . S
O232 C212 1.249 . S
C233 O229 1.251 . S
C233 O230 1.254 . S
H234 C207 0.949 . S
H235 C209 0.950 . S
H236 C216 0.949 . S
H237 C218 0.950 . S
C238 O254 1.251 . S
C238 O256 1.254 . S
N239 C240 1.333 . S
N239 C244 1.307 . S
N239 Zn245 2.020 . S
C240 N239 1.333 . S
C240 C241 1.379 . S
C240 H258 0.952 . S
C241 C240 1.379 . S
C241 C242 1.390 . S
C241 H268 0.949 . S
C242 C241 1.390 . S
C242 C243 1.357 . S
C243 C242 1.357 . S
C243 C244 1.370 . S
C243 H269 0.950 . S
C244 N239 1.307 . S
C244 C243 1.370 . S
C244 H262 0.948 . S
Zn245 N239 2.020 . S
Zn245 O254 2.039 . S
Zn245 O260 2.034 . S
Zn245 O264 2.025 . S
Zn245 O266 2.024 . S
C246 O265 1.246 . S
C246 O266 1.249 . S
N247 C248 1.307 . S
N247 C249 1.333 . S
N247 Zn253 2.020 . S
C248 N247 1.307 . S
C248 C252 1.370 . S
C248 H259 0.948 . S
C249 N247 1.333 . S
C249 C250 1.379 . S
C249 H257 0.952 . S
C250 C249 1.379 . S
C250 C251 1.390 . S
C250 H270 0.949 . S
C251 C250 1.390 . S
C251 C252 1.357 . S
C252 C248 1.370 . S
C252 C251 1.357 . S
C252 H271 0.950 . S
Zn253 N247 2.020 . S
Zn253 O256 2.025 . S
Zn253 O261 2.024 . S
Zn253 O263 2.039 . S
Zn253 O265 2.034 . S
O254 C238 1.251 . S
O254 Zn245 2.039 . S
C255 O260 1.246 . S
C255 O261 1.249 . S
O256 C238 1.254 . S
O256 Zn253 2.025 . S
H257 C249 0.952 . S
H258 C240 0.952 . S
H259 C248 0.948 . S
O260 Zn245 2.034 . S
O260 C255 1.246 . S
O261 Zn253 2.024 . S
O261 C255 1.249 . S
H262 C244 0.948 . S
O263 Zn253 2.039 . S
O263 C267 1.251 . S
O264 Zn245 2.025 . S
O264 C267 1.254 . S
O265 C246 1.246 . S
O265 Zn253 2.034 . S
O266 Zn245 2.024 . S
O266 C246 1.249 . S
C267 O263 1.251 . S
C267 O264 1.254 . S
H268 C241 0.949 . S
H269 C243 0.950 . S
H270 C250 0.949 . S
H271 C252 0.950 . S
Co272 O275 2.042 . S
Co272 O282 2.264 . S
Co272 O301 2.286 . S
Co272 O302 2.069 . S
Co272 O304 2.015 1_455 S
Co273 O275 2.122 . S
Co273 O281 2.073 . S
Co273 O282 2.327 . S
Co273 O283 1.976 1_455 S
Co274 O275 2.087 1_545 S
Co274 O277 2.087 1_455 S
Co274 O284 2.111 1_445 S
Co274 O285 2.144 . S
Co274 O289 2.111 . S
Co274 O303 2.143 1_445 S
O275 Co272 2.042 . S
O275 Co273 2.122 . S
O275 Co274 2.087 1_565 S
O275 H276 0.980 . S
H276 O275 0.980 . S
O277 Co274 2.087 1_655 S
O277 Co278 2.042 . S
O277 Co279 2.122 . S
O277 H280 0.980 . S
Co278 O277 2.042 . S
Co278 O286 2.286 . S
Co278 O287 2.069 . S
Co278 O288 2.015 1_655 S
Co278 O291 2.264 . S
Co279 O277 2.122 . S
Co279 O290 1.976 1_655 S
Co279 O291 2.327 . S
Co279 O292 2.073 . S
H280 O277 0.980 . S
O281 Co273 2.073 . S
O281 C296 1.245 . S
O282 Co272 2.264 . S
O282 Co273 2.327 . S
O282 C296 1.257 . S
O283 Co273 1.976 1_655 S
O283 C295 1.251 . S
O284 Co274 2.111 1_665 S
O284 C295 1.274 . S
O285 Co274 2.144 . S
O285 C298 1.246 . S
O286 Co278 2.286 . S
O286 C297 1.259 . S
O287 Co278 2.069 . S
O287 C297 1.289 . S
O288 Co278 2.015 1_455 S
O288 C298 1.257 . S
O289 Co274 2.111 . S
O289 C299 1.274 . S
O290 Co279 1.976 1_455 S
O290 C299 1.251 . S
O291 Co278 2.264 . S
O291 Co279 2.327 . S
O291 C300 1.257 . S
O292 Co279 2.073 . S
O292 C300 1.245 . S
C293 O301 1.259 . S
C293 O302 1.289 . S
C294 O303 1.246 . S
C294 O304 1.257 . S
C295 O283 1.251 . S
C295 O284 1.274 . S
C296 O281 1.245 . S
C296 O282 1.257 . S
C297 O286 1.259 . S
C297 O287 1.289 . S
C298 O285 1.246 . S
C298 O288 1.257 . S
C299 O289 1.274 . S
C299 O290 1.251 . S
C300 O291 1.257 . S
C300 O292 1.245 . S
O301 Co272 2.286 . S
O301 C293 1.259 . S
O302 Co272 2.069 . S
O302 C293 1.289 . S
O303 Co274 2.143 1_665 S
O303 C294 1.246 . S
O304 Co272 2.015 1_655 S
O304 C294 1.257 . S
Co305 O308 2.042 1_556 S
Co305 O315 2.264 1_556 S
Co305 O334 2.286 . S
Co305 O335 2.069 . S
Co305 O337 2.015 . S
Co306 O308 2.122 . S
Co306 O314 2.073 . S
Co306 O315 2.327 . S
Co306 O316 1.976 . S
Co307 O308 2.087 1_545 S
Co307 O310 2.087 1_554 S
Co307 O317 2.111 1_545 S
Co307 O318 2.144 . S
Co307 O322 2.111 1_554 S
Co307 O336 2.143 1_544 S
O308 Co305 2.042 1_554 S
O308 Co306 2.122 . S
O308 Co307 2.087 1_565 S
O308 H309 0.980 . S
H309 O308 0.980 . S
O310 Co307 2.087 1_556 S
O310 Co311 2.042 1_556 S
O310 Co312 2.122 . S
O310 H313 0.980 . S
Co311 O310 2.042 1_554 S
Co311 O319 2.286 . S
Co311 O320 2.069 . S
Co311 O321 2.015 . S
Co311 O324 2.264 1_554 S
Co312 O310 2.122 . S
Co312 O323 1.976 . S
Co312 O324 2.327 . S
Co312 O325 2.073 . S
H313 O310 0.980 . S
O314 Co306 2.073 . S
O314 C329 1.245 . S
O315 Co305 2.264 1_554 S
O315 Co306 2.327 . S
O315 C329 1.257 . S
O316 Co306 1.976 . S
O316 C328 1.251 . S
O317 Co307 2.111 1_565 S
O317 C328 1.274 . S
O318 Co307 2.144 . S
O318 C331 1.246 . S
O319 Co311 2.286 . S
O319 C330 1.259 . S
O320 Co311 2.069 . S
O320 C330 1.289 . S
O321 Co311 2.015 . S
O321 C331 1.257 . S
O322 Co307 2.111 1_556 S
O322 C332 1.274 . S
O323 Co312 1.976 . S
O323 C332 1.251 . S
O324 Co311 2.264 1_556 S
O324 Co312 2.327 . S
O324 C333 1.257 . S
O325 Co312 2.073 . S
O325 C333 1.245 . S
C326 O334 1.259 . S
C326 O335 1.289 . S
C327 O336 1.246 . S
C327 O337 1.257 . S
C328 O316 1.251 . S
C328 O317 1.274 . S
C329 O314 1.245 . S
C329 O315 1.257 . S
C330 O319 1.259 . S
C330 O320 1.289 . S
C331 O318 1.246 . S
C331 O321 1.257 . S
C332 O322 1.274 . S
C332 O323 1.251 . S
C333 O324 1.257 . S
C333 O325 1.245 . S
O334 Co305 2.286 . S
O334 C326 1.259 . S
O335 Co305 2.069 . S
O335 C326 1.289 . S
O336 Co307 2.143 1_566 S
O336 C327 1.246 . S
O337 Co305 2.015 . S
O337 C327 1.257 . S
Co338 O341 2.042 1_556 S
Co338 O348 2.264 1_556 S
Co338 O367 2.286 . S
Co338 O368 2.069 . S
Co338 O370 2.015 1_455 S
Co339 O341 2.122 . S
Co339 O347 2.073 . S
Co339 O348 2.327 . S
Co339 O349 1.976 1_455 S
Co340 O341 2.087 . S
Co340 O343 2.087 1_454 S
Co340 O350 2.111 1_455 S
Co340 O351 2.143 . S
Co340 O355 2.111 1_554 S
Co340 O369 2.143 1_454 S
O341 Co338 2.042 1_554 S
O341 Co339 2.122 . S
O341 Co340 2.087 . S
O341 H342 0.980 . S
H342 O341 0.980 . S
O343 Co340 2.087 1_656 S
O343 Co344 2.042 1_556 S
O343 Co345 2.122 . S
O343 H346 0.980 . S
Co344 O343 2.042 1_554 S
Co344 O352 2.286 . S
Co344 O353 2.069 . S
Co344 O354 2.015 1_655 S
Co344 O357 2.264 1_554 S
Co345 O343 2.122 . S
Co345 O356 1.976 1_655 S
Co345 O357 2.327 . S
Co345 O358 2.073 . S
H346 O343 0.980 . S
O347 Co339 2.073 . S
O347 C362 1.245 . S
O348 Co338 2.264 1_554 S
O348 Co339 2.327 . S
O348 C362 1.257 . S
O349 Co339 1.976 1_655 S
O349 C361 1.251 . S
O350 Co340 2.111 1_655 S
O350 C361 1.274 . S
O351 Co340 2.143 . S
O351 C364 1.246 . S
O352 Co344 2.286 . S
O352 C363 1.259 . S
O353 Co344 2.069 . S
O353 C363 1.289 . S
O354 Co344 2.015 1_455 S
O354 C364 1.257 . S
O355 Co340 2.111 1_556 S
O355 C365 1.274 . S
O356 Co345 1.976 1_455 S
O356 C365 1.251 . S
O357 Co344 2.264 1_556 S
O357 Co345 2.327 . S
O357 C366 1.257 . S
O358 Co345 2.073 . S
O358 C366 1.245 . S
C359 O367 1.259 . S
C359 O368 1.289 . S
C360 O369 1.246 . S
C360 O370 1.257 . S
C361 O349 1.251 . S
C361 O350 1.274 . S
C362 O347 1.245 . S
C362 O348 1.257 . S
C363 O352 1.259 . S
C363 O353 1.289 . S
C364 O351 1.246 . S
C364 O354 1.257 . S
C365 O355 1.274 . S
C365 O356 1.251 . S
C366 O357 1.257 . S
C366 O358 1.245 . S
O367 Co338 2.286 . S
O367 C359 1.259 . S
O368 Co338 2.069 . S
O368 C359 1.289 . S
O369 Co340 2.143 1_656 S
O369 C360 1.246 . S
O370 Co338 2.015 1_655 S
O370 C360 1.257 . S
Co371 O374 2.042 1_556 S
Co371 O381 2.264 1_556 S
Co371 O400 2.286 . S
Co371 O401 2.069 . S
Co371 O403 2.015 . S
Co372 O374 2.122 . S
Co372 O380 2.073 . S
Co372 O381 2.327 . S
Co372 O382 1.976 . S
Co373 O374 2.087 . S
Co373 O376 2.087 1_554 S
Co373 O383 2.111 . S
Co373 O384 2.143 . S
Co373 O388 2.111 1_554 S
Co373 O402 2.143 1_554 S
O374 Co371 2.042 1_554 S
O374 Co372 2.122 . S
O374 Co373 2.087 . S
O374 H375 0.980 . S
H375 O374 0.980 . S
O376 Co373 2.087 1_556 S
O376 Co377 2.042 1_556 S
O376 Co378 2.122 . S
O376 H379 0.980 . S
Co377 O376 2.042 1_554 S
Co377 O385 2.286 . S
Co377 O386 2.069 . S
Co377 O387 2.015 . S
Co377 O390 2.264 1_554 S
Co378 O376 2.122 . S
Co378 O389 1.976 . S
Co378 O390 2.327 . S
Co378 O391 2.073 . S
H379 O376 0.980 . S
O380 Co372 2.073 . S
O380 C395 1.245 . S
O381 Co371 2.264 1_554 S
O381 Co372 2.327 . S
O381 C395 1.257 . S
O382 Co372 1.976 . S
O382 C394 1.251 . S
O383 Co373 2.111 . S
O383 C394 1.274 . S
O384 Co373 2.143 . S
O384 C397 1.246 . S
O385 Co377 2.286 . S
O385 C396 1.259 . S
O386 Co377 2.069 . S
O386 C396 1.289 . S
O387 Co377 2.015 . S
O387 C397 1.257 . S
O388 Co373 2.111 1_556 S
O388 C398 1.274 . S
O389 Co378 1.976 . S
O389 C398 1.251 . S
O390 Co377 2.264 1_556 S
O390 Co378 2.327 . S
O390 C399 1.257 . S
O391 Co378 2.073 . S
O391 C399 1.245 . S
C392 O400 1.259 . S
C392 O401 1.289 . S
C393 O402 1.246 . S
C393 O403 1.257 . S
C394 O382 1.251 . S
C394 O383 1.274 . S
C395 O380 1.245 . S
C395 O381 1.257 . S
C396 O385 1.259 . S
C396 O386 1.289 . S
C397 O384 1.246 . S
C397 O387 1.257 . S
C398 O388 1.274 . S
C398 O389 1.251 . S
C399 O390 1.257 . S
C399 O391 1.245 . S
O400 Co371 2.286 . S
O400 C392 1.259 . S
O401 Co371 2.069 . S
O401 C392 1.289 . S
O402 Co373 2.143 1_556 S
O402 C393 1.246 . S
O403 Co371 2.015 . S
O403 C393 1.257 . S
Co404 O407 2.042 . S
Co404 O414 2.264 . S
Co404 O433 2.286 . S
Co404 O434 2.069 . S
Co404 O436 2.015 . S
Co405 O407 2.122 . S
Co405 O413 2.073 . S
Co405 O414 2.327 . S
Co405 O415 1.976 . S
Co406 O407 2.087 . S
Co406 O409 2.087 1_455 S
Co406 O416 2.111 . S
Co406 O417 2.143 1_455 S
Co406 O421 2.111 1_455 S
Co406 O435 2.143 . S
O407 Co404 2.042 . S
O407 Co405 2.122 . S
O407 Co406 2.087 . S
O407 H408 0.980 . S
H408 O407 0.980 . S
O409 Co406 2.087 1_655 S
O409 Co410 2.042 . S
O409 Co411 2.122 . S
O409 H412 0.980 . S
Co410 O409 2.042 . S
Co410 O418 2.286 . S
Co410 O419 2.069 . S
Co410 O420 2.015 . S
Co410 O423 2.264 . S
Co411 O409 2.122 . S
Co411 O422 1.976 . S
Co411 O423 2.327 . S
Co411 O424 2.073 . S
H412 O409 0.980 . S
O413 Co405 2.073 . S
O413 C428 1.245 . S
O414 Co404 2.264 . S
O414 Co405 2.327 . S
O414 C428 1.257 . S
O415 Co405 1.976 . S
O415 C427 1.251 . S
O416 Co406 2.111 . S
O416 C427 1.274 . S
O417 Co406 2.143 1_655 S
O417 C430 1.246 . S
O418 Co410 2.286 . S
O418 C429 1.259 . S
O419 Co410 2.069 . S
O419 C429 1.289 . S
O420 Co410 2.015 . S
O420 C430 1.257 . S
O421 Co406 2.111 1_655 S
O421 C431 1.274 . S
O422 Co411 1.976 . S
O422 C431 1.251 . S
O423 Co410 2.264 . S
O423 Co411 2.327 . S
O423 C432 1.257 . S
O424 Co411 2.073 . S
O424 C432 1.245 . S
C425 O433 1.259 . S
C425 O434 1.289 . S
C426 O435 1.246 . S
C426 O436 1.257 . S
C427 O415 1.251 . S
C427 O416 1.274 . S
C428 O413 1.245 . S
C428 O414 1.257 . S
C429 O418 1.259 . S
C429 O419 1.289 . S
C430 O417 1.246 . S
C430 O420 1.257 . S
C431 O421 1.274 . S
C431 O422 1.251 . S
C432 O423 1.257 . S
C432 O424 1.245 . S
O433 Co404 2.286 . S
O433 C425 1.259 . S
O434 Co404 2.069 . S
O434 C425 1.289 . S
O435 Co406 2.143 . S
O435 C426 1.246 . S
O436 Co404 2.015 . S
O436 C426 1.257 . S
Co437 O440 2.042 . S
Co437 O447 2.264 . S
Co437 O466 2.286 . S
Co437 O467 2.069 . S
Co437 O469 2.015 1_565 S
Co438 O440 2.122 . S
Co438 O446 2.073 . S
Co438 O447 2.327 . S
Co438 O448 1.976 1_565 S
Co439 O440 2.087 1_545 S
Co439 O442 2.087 . S
Co439 O449 2.112 . S
Co439 O450 2.143 1_545 S
Co439 O454 2.111 1_545 S
Co439 O468 2.144 . S
O440 Co437 2.042 . S
O440 Co438 2.122 . S
O440 Co439 2.087 1_565 S
O440 H441 0.980 . S
H441 O440 0.980 . S
O442 Co439 2.087 . S
O442 Co443 2.042 . S
O442 Co444 2.122 . S
O442 H445 0.980 . S
Co443 O442 2.042 . S
Co443 O451 2.286 . S
Co443 O452 2.069 . S
Co443 O453 2.015 1_545 S
Co443 O456 2.264 . S
Co444 O442 2.122 . S
Co444 O455 1.976 1_545 S
Co444 O456 2.327 . S
Co444 O457 2.073 . S
H445 O442 0.980 . S
O446 Co438 2.073 . S
O446 C461 1.245 . S
O447 Co437 2.264 . S
O447 Co438 2.327 . S
O447 C461 1.257 . S
O448 Co438 1.976 1_545 S
O448 C460 1.251 . S
O449 Co439 2.112 . S
O449 C460 1.274 . S
O450 Co439 2.143 1_565 S
O450 C463 1.246 . S
O451 Co443 2.286 . S
O451 C462 1.259 . S
O452 Co443 2.069 . S
O452 C462 1.289 . S
O453 Co443 2.015 1_565 S
O453 C463 1.257 . S
O454 Co439 2.111 1_565 S
O454 C464 1.274 . S
O455 Co444 1.976 1_565 S
O455 C464 1.251 . S
O456 Co443 2.264 . S
O456 Co444 2.327 . S
O456 C465 1.257 . S
O457 Co444 2.073 . S
O457 C465 1.245 . S
C458 O466 1.259 . S
C458 O467 1.289 . S
C459 O468 1.246 . S
C459 O469 1.257 . S
C460 O448 1.251 . S
C460 O449 1.274 . S
C461 O446 1.245 . S
C461 O447 1.257 . S
C462 O451 1.259 . S
C462 O452 1.289 . S
C463 O450 1.246 . S
C463 O453 1.257 . S
C464 O454 1.274 . S
C464 O455 1.251 . S
C465 O456 1.257 . S
C465 O457 1.245 . S
O466 Co437 2.286 . S
O466 C458 1.259 . S
O467 Co437 2.069 . S
O467 C458 1.289 . S
O468 Co439 2.144 . S
O468 C459 1.246 . S
O469 Co437 2.015 1_545 S
O469 C459 1.257 . S
H470 C476 0.930 . S
H471 C479 0.930 . S
H472 C480 0.930 . S
H473 C481 0.930 . S
H474 C484 0.930 . S
H475 C485 0.930 . S
C476 H470 0.930 . S
C476 C477 1.355 . S
C476 C478 1.415 . S
C477 C476 1.355 . S
C477 C479 1.419 . S
C478 C476 1.415 . S
C478 C483 1.425 . S
C478 C485 1.409 . S
C479 H471 0.930 . S
C479 C477 1.419 . S
C479 C480 1.362 . S
C480 H472 0.930 . S
C480 C479 1.362 . S
C480 C483 1.409 . S
C481 H473 0.930 . S
C481 C482 1.355 . S
C481 C483 1.415 . S
C482 C481 1.355 . S
C482 C484 1.419 . S
C483 C478 1.425 . S
C483 C480 1.409 . S
C483 C481 1.415 . S
C484 H474 0.930 . S
C484 C482 1.419 . S
C484 C485 1.362 . S
C485 H475 0.930 . S
C485 C478 1.409 . S
C485 C484 1.362 . S
H486 C492 0.930 . S
H487 C495 0.930 . S
H488 C496 0.930 . S
H489 C497 0.930 . S
H490 C500 0.930 . S
H491 C501 0.930 . S
C492 H486 0.930 . S
C492 C493 1.355 . S
C492 C494 1.415 . S
C493 C492 1.355 . S
C493 C495 1.419 . S
C494 C492 1.415 . S
C494 C499 1.425 . S
C494 C501 1.409 . S
C495 H487 0.930 . S
C495 C493 1.419 . S
C495 C496 1.362 . S
C496 H488 0.930 . S
C496 C495 1.362 . S
C496 C499 1.409 . S
C497 H489 0.930 . S
C497 C498 1.355 . S
C497 C499 1.415 . S
C498 C497 1.355 . S
C498 C500 1.419 . S
C499 C494 1.425 . S
C499 C496 1.409 . S
C499 C497 1.415 . S
C500 H490 0.930 . S
C500 C498 1.419 . S
C500 C501 1.362 . S
C501 H491 0.930 . S
C501 C494 1.409 . S
C501 C500 1.362 . S
H502 C508 0.930 . S
H503 C511 0.930 . S
H504 C512 0.930 . S
H505 C513 0.930 . S
H506 C516 0.930 . S
H507 C517 0.930 . S
C508 H502 0.930 . S
C508 C509 1.355 . S
C508 C510 1.415 . S
C509 C508 1.355 . S
C509 C511 1.419 . S
C510 C508 1.415 . S
C510 C515 1.425 . S
C510 C517 1.409 . S
C511 H503 0.930 . S
C511 C509 1.419 . S
C511 C512 1.362 . S
C512 H504 0.930 . S
C512 C511 1.362 . S
C512 C515 1.409 . S
C513 H505 0.930 . S
C513 C514 1.355 . S
C513 C515 1.415 . S
C514 C513 1.355 . S
C514 C516 1.419 . S
C515 C510 1.425 . S
C515 C512 1.409 . S
C515 C513 1.415 . S
C516 H506 0.930 . S
C516 C514 1.419 . S
C516 C517 1.362 . S
C517 H507 0.930 . S
C517 C510 1.409 . S
C517 C516 1.362 . S
H518 C524 0.930 . S
H519 C527 0.930 . S
H520 C528 0.930 . S
H521 C529 0.930 . S
H522 C532 0.930 . S
H523 C533 0.930 . S
C524 H518 0.930 . S
C524 C525 1.355 . S
C524 C526 1.415 . S
C525 C524 1.355 . S
C525 C527 1.419 . S
C526 C524 1.415 . S
C526 C531 1.425 . S
C526 C533 1.409 . S
C527 H519 0.930 . S
C527 C525 1.419 . S
C527 C528 1.362 . S
C528 H520 0.930 . S
C528 C527 1.362 . S
C528 C531 1.409 . S
C529 H521 0.930 . S
C529 C530 1.355 . S
C529 C531 1.415 . S
C530 C529 1.355 . S
C530 C532 1.419 . S
C531 C526 1.425 . S
C531 C528 1.409 . S
C531 C529 1.415 . S
C532 H522 0.930 . S
C532 C530 1.419 . S
C532 C533 1.362 . S
C533 H523 0.930 . S
C533 C526 1.409 . S
C533 C532 1.362 . S
H534 C540 0.930 . S
H535 C543 0.930 . S
H536 C544 0.930 . S
H537 C545 0.930 . S
H538 C548 0.930 . S
H539 C549 0.930 . S
C540 H534 0.930 . S
C540 C541 1.355 . S
C540 C542 1.415 . S
C541 C540 1.355 . S
C541 C543 1.419 . S
C542 C540 1.415 . S
C542 C547 1.425 . S
C542 C549 1.409 . S
C543 H535 0.930 . S
C543 C541 1.419 . S
C543 C544 1.362 . S
C544 H536 0.930 . S
C544 C543 1.362 . S
C544 C547 1.409 . S
C545 H537 0.930 . S
C545 C546 1.355 . S
C545 C547 1.415 . S
C546 C545 1.355 . S
C546 C548 1.419 . S
C547 C542 1.425 . S
C547 C544 1.409 . S
C547 C545 1.415 . S
C548 H538 0.930 . S
C548 C546 1.419 . S
C548 C549 1.362 . S
C549 H539 0.930 . S
C549 C542 1.409 . S
C549 C548 1.362 . S
H550 C556 0.930 . S
H551 C559 0.930 . S
H552 C560 0.930 . S
H553 C561 0.930 . S
H554 C564 0.930 . S
H555 C565 0.930 . S
C556 H550 0.930 . S
C556 C557 1.355 . S
C556 C558 1.415 . S
C557 C556 1.355 . S
C557 C559 1.419 . S
C558 C556 1.415 . S
C558 C563 1.425 . S
C558 C565 1.409 . S
C559 H551 0.930 . S
C559 C557 1.419 . S
C559 C560 1.362 . S
C560 H552 0.930 . S
C560 C559 1.362 . S
C560 C563 1.409 . S
C561 H553 0.930 . S
C561 C562 1.355 . S
C561 C563 1.415 . S
C562 C561 1.355 . S
C562 C564 1.419 . S
C563 C558 1.425 . S
C563 C560 1.409 . S
C563 C561 1.415 . S
C564 H554 0.930 . S
C564 C562 1.419 . S
C564 C565 1.362 . S
C565 H555 0.930 . S
C565 C558 1.409 . S
C565 C564 1.362 . S
H566 C572 0.930 . S
H567 C575 0.930 . S
H568 C576 0.930 . S
H569 C577 0.930 . S
H570 C580 0.930 . S
H571 C581 0.930 . S
C572 H566 0.930 . S
C572 C573 1.355 . S
C572 C574 1.415 . S
C573 C572 1.355 . S
C573 C575 1.419 . S
C574 C572 1.415 . S
C574 C579 1.425 . S
C574 C581 1.409 . S
C575 H567 0.930 . S
C575 C573 1.419 . S
C575 C576 1.362 . S
C576 H568 0.930 . S
C576 C575 1.362 . S
C576 C579 1.409 . S
C577 H569 0.930 . S
C577 C578 1.355 . S
C577 C579 1.415 . S
C578 C577 1.355 . S
C578 C580 1.419 . S
C579 C574 1.425 . S
C579 C576 1.409 . S
C579 C577 1.415 . S
C580 H570 0.930 . S
C580 C578 1.419 . S
C580 C581 1.362 . S
C581 H571 0.930 . S
C581 C574 1.409 . S
C581 C580 1.362 . S
H582 C588 0.930 . S
H583 C591 0.930 . S
H584 C592 0.930 . S
H585 C593 0.930 . S
H586 C596 0.930 . S
H587 C597 0.930 . S
C588 H582 0.930 . S
C588 C589 1.355 . S
C588 C590 1.415 . S
C589 C588 1.355 . S
C589 C591 1.419 . S
C590 C588 1.415 . S
C590 C595 1.425 . S
C590 C597 1.409 . S
C591 H583 0.930 . S
C591 C589 1.419 . S
C591 C592 1.362 . S
C592 H584 0.930 . S
C592 C591 1.362 . S
C592 C595 1.409 . S
C593 H585 0.930 . S
C593 C594 1.355 . S
C593 C595 1.415 . S
C594 C593 1.355 . S
C594 C596 1.419 . S
C595 C590 1.425 . S
C595 C592 1.409 . S
C595 C593 1.415 . S
C596 H586 0.930 . S
C596 C594 1.419 . S
C596 C597 1.362 . S
C597 H587 0.930 . S
C597 C590 1.409 . S
C597 C596 1.362 . S
H598 C604 0.930 . S
H599 C607 0.930 . S
H600 C608 0.930 . S
H601 C609 0.930 . S
H602 C612 0.930 . S
H603 C613 0.930 . S
C604 H598 0.930 . S
C604 C605 1.355 . S
C604 C606 1.415 . S
C605 C604 1.355 . S
C605 C607 1.419 . S
C606 C604 1.415 . S
C606 C611 1.425 . S
C606 C613 1.409 . S
C607 H599 0.930 . S
C607 C605 1.419 . S
C607 C608 1.362 . S
C608 H600 0.930 . S
C608 C607 1.362 . S
C608 C611 1.409 . S
C609 H601 0.930 . S
C609 C610 1.355 . S
C609 C611 1.415 . S
C610 C609 1.355 . S
C610 C612 1.419 . S
C611 C606 1.425 . S
C611 C608 1.409 . S
C611 C609 1.415 . S
C612 H602 0.930 . S
C612 C610 1.419 . S
C612 C613 1.362 . S
C613 H603 0.930 . S
C613 C606 1.409 . S
C613 C612 1.362 . S
H614 C620 0.930 . S
H615 C623 0.930 . S
H616 C624 0.930 . S
H617 C625 0.930 . S
H618 C628 0.930 . S
H619 C629 0.930 . S
C620 H614 0.930 . S
C620 C621 1.355 . S
C620 C622 1.415 . S
C621 C620 1.355 . S
C621 C623 1.419 . S
C622 C620 1.415 . S
C622 C627 1.425 . S
C622 C629 1.409 . S
C623 H615 0.930 . S
C623 C621 1.419 . S
C623 C624 1.362 . S
C624 H616 0.930 . S
C624 C623 1.362 . S
C624 C627 1.409 . S
C625 H617 0.930 . S
C625 C626 1.355 . S
C625 C627 1.415 . S
C626 C625 1.355 . S
C626 C628 1.419 . S
C627 C622 1.425 . S
C627 C624 1.409 . S
C627 C625 1.415 . S
C628 H618 0.930 . S
C628 C626 1.419 . S
C628 C629 1.362 . S
C629 H619 0.930 . S
C629 C622 1.409 . S
C629 C628 1.362 . S
H630 C636 0.930 . S
H631 C639 0.930 . S
H632 C640 0.930 . S
H633 C641 0.930 . S
H634 C644 0.930 . S
H635 C645 0.930 . S
C636 H630 0.930 . S
C636 C637 1.355 . S
C636 C638 1.415 . S
C637 C636 1.355 . S
C637 C639 1.419 . S
C638 C636 1.415 . S
C638 C643 1.425 . S
C638 C645 1.409 . S
C639 H631 0.930 . S
C639 C637 1.419 . S
C639 C640 1.362 . S
C640 H632 0.930 . S
C640 C639 1.362 . S
C640 C643 1.409 . S
C641 H633 0.930 . S
C641 C642 1.355 . S
C641 C643 1.415 . S
C642 C641 1.355 . S
C642 C644 1.419 . S
C643 C638 1.425 . S
C643 C640 1.409 . S
C643 C641 1.415 . S
C644 H634 0.930 . S
C644 C642 1.419 . S
C644 C645 1.362 . S
C645 H635 0.930 . S
C645 C638 1.409 . S
C645 C644 1.362 . S
H646 C652 0.930 . S
H647 C655 0.930 . S
H648 C656 0.930 . S
H649 C657 0.930 . S
H650 C660 0.930 1_556 S
H651 C661 0.930 1_556 S
C652 H646 0.930 . S
C652 C653 1.355 . S
C652 C654 1.415 . S
C653 C652 1.355 . S
C653 C655 1.419 . S
C654 C652 1.415 . S
C654 C659 1.425 . S
C654 C661 1.409 . S
C655 H647 0.930 . S
C655 C653 1.419 . S
C655 C656 1.362 . S
C656 H648 0.930 . S
C656 C655 1.362 . S
C656 C659 1.409 . S
C657 H649 0.930 . S
C657 C658 1.355 . S
C657 C659 1.415 . S
C658 C657 1.355 . S
C658 C660 1.419 . S
C659 C654 1.425 . S
C659 C656 1.409 . S
C659 C657 1.415 . S
C660 H650 0.930 1_554 S
C660 C658 1.419 . S
C660 C661 1.362 . S
C661 H651 0.930 1_554 S
C661 C654 1.409 . S
C661 C660 1.362 . S
H662 C668 0.930 . S
H663 C671 0.930 . S
H664 C672 0.930 . S
H665 C673 0.930 . S
H666 C676 0.930 . S
H667 C677 0.930 . S
C668 H662 0.930 . S
C668 C669 1.355 . S
C668 C670 1.415 . S
C669 C668 1.355 . S
C669 C671 1.419 . S
C670 C668 1.415 . S
C670 C675 1.425 . S
C670 C677 1.409 . S
C671 H663 0.930 . S
C671 C669 1.419 . S
C671 C672 1.362 . S
C672 H664 0.930 . S
C672 C671 1.362 . S
C672 C675 1.409 . S
C673 H665 0.930 . S
C673 C674 1.355 . S
C673 C675 1.415 . S
C674 C673 1.355 . S
C674 C676 1.419 . S
C675 C670 1.425 . S
C675 C672 1.409 . S
C675 C673 1.415 . S
C676 H666 0.930 . S
C676 C674 1.419 . S
C676 C677 1.362 . S
C677 H667 0.930 . S
C677 C670 1.409 . S
C677 C676 1.362 . S
H678 C684 0.930 . S
H679 C687 0.930 . S
H680 C688 0.930 . S
H681 C689 0.930 . S
H682 C692 0.930 . S
H683 C693 0.930 . S
C684 H678 0.930 . S
C684 C685 1.355 . S
C684 C686 1.415 . S
C685 C684 1.355 . S
C685 C687 1.419 . S
C686 C684 1.415 . S
C686 C691 1.425 . S
C686 C693 1.409 . S
C687 H679 0.930 . S
C687 C685 1.419 . S
C687 C688 1.362 . S
C688 H680 0.930 . S
C688 C687 1.362 . S
C688 C691 1.409 . S
C689 H681 0.930 . S
C689 C690 1.355 . S
C689 C691 1.415 . S
C690 C689 1.355 . S
C690 C692 1.419 . S
C691 C686 1.425 . S
C691 C688 1.409 . S
C691 C689 1.415 . S
C692 H682 0.930 . S
C692 C690 1.419 . S
C692 C693 1.362 . S
C693 H683 0.930 . S
C693 C686 1.409 . S
C693 C692 1.362 . S
H694 C700 0.930 . S
H695 C703 0.930 . S
H696 C704 0.930 . S
H697 C705 0.930 . S
H698 C708 0.950 . S
H699 C709 0.930 . S
C700 H694 0.930 . S
C700 C701 1.355 . S
C700 C702 1.415 . S
C701 C700 1.355 . S
C701 C703 1.419 . S
C702 C700 1.415 . S
C702 C707 1.425 . S
C702 C709 1.409 . S
C703 H695 0.930 . S
C703 C701 1.419 . S
C703 C704 1.362 . S
C704 H696 0.930 . S
C704 C703 1.362 . S
C704 C707 1.409 . S
C705 H697 0.930 . S
C705 C706 1.355 . S
C705 C707 1.415 . S
C706 C705 1.355 . S
C706 C708 1.419 . S
C707 C702 1.425 . S
C707 C704 1.409 . S
C707 C705 1.415 . S
C708 H698 0.950 . S
C708 C706 1.419 . S
C708 C709 1.362 . S
C709 H699 0.930 . S
C709 C702 1.409 . S
C709 C708 1.362 . S
H710 C716 0.930 . S
H711 C719 0.930 . S
H712 C720 0.930 . S
H713 C721 0.930 . S
H714 C724 0.930 . S
H715 C725 0.930 . S
C716 H710 0.930 . S
C716 C717 1.355 . S
C716 C718 1.415 . S
C717 C716 1.355 . S
C717 C719 1.419 . S
C718 C716 1.415 . S
C718 C723 1.425 . S
C718 C725 1.409 . S
C719 H711 0.930 . S
C719 C717 1.419 . S
C719 C720 1.362 . S
C720 H712 0.930 . S
C720 C719 1.362 . S
C720 C723 1.409 . S
C721 H713 0.930 . S
C721 C722 1.355 . S
C721 C723 1.415 . S
C722 C721 1.355 . S
C722 C724 1.419 . S
C723 C718 1.425 . S
C723 C720 1.409 . S
C723 C721 1.415 . S
C724 H714 0.930 . S
C724 C722 1.419 . S
C724 C725 1.362 . S
C725 H715 0.930 . S
C725 C718 1.409 . S
C725 C724 1.362 . S
H726 C732 0.930 . S
H727 C735 0.930 . S
H728 C736 0.930 . S
H729 C737 0.930 . S
H730 C740 0.930 . S
H731 C741 0.930 . S
C732 H726 0.930 . S
C732 C733 1.355 . S
C732 C734 1.415 . S
C733 C732 1.355 . S
C733 C735 1.419 . S
C734 C732 1.415 . S
C734 C739 1.425 . S
C734 C741 1.409 . S
C735 H727 0.930 . S
C735 C733 1.419 . S
C735 C736 1.362 . S
C736 H728 0.930 . S
C736 C735 1.362 . S
C736 C739 1.409 . S
C737 H729 0.930 . S
C737 C738 1.355 . S
C737 C739 1.415 . S
C738 C737 1.355 . S
C738 C740 1.419 . S
C739 C734 1.425 . S
C739 C736 1.409 . S
C739 C737 1.415 . S
C740 H730 0.930 . S
C740 C738 1.419 . S
C740 C741 1.362 . S
C741 H731 0.930 . S
C741 C734 1.409 . S
C741 C740 1.362 . S
H742 C748 0.930 . S
H743 C751 0.930 . S
H744 C752 0.930 . S
H745 C753 0.930 . S
H746 C756 0.930 . S
H747 C757 0.930 . S
C748 H742 0.930 . S
C748 C749 1.355 . S
C748 C750 1.415 . S
C749 C748 1.355 . S
C749 C751 1.419 . S
C750 C748 1.415 . S
C750 C755 1.425 . S
C750 C757 1.409 . S
C751 H743 0.930 . S
C751 C749 1.419 . S
C751 C752 1.362 . S
C752 H744 0.930 . S
C752 C751 1.362 . S
C752 C755 1.409 . S
C753 H745 0.930 . S
C753 C754 1.355 . S
C753 C755 1.415 . S
C754 C753 1.355 . S
C754 C756 1.419 . S
C755 C750 1.425 . S
C755 C752 1.409 . S
C755 C753 1.415 . S
C756 H746 0.930 . S
C756 C754 1.419 . S
C756 C757 1.362 . S
C757 H747 0.930 . S
C757 C750 1.409 . S
C757 C756 1.362 . S
H758 C764 0.930 . S
H759 C767 0.930 . S
H760 C768 0.930 . S
H761 C769 0.930 . S
H762 C772 0.930 . S
H763 C773 0.930 . S
C764 H758 0.930 . S
C764 C765 1.355 . S
C764 C766 1.415 . S
C765 C764 1.355 . S
C765 C767 1.419 . S
C766 C764 1.415 . S
C766 C771 1.425 . S
C766 C773 1.409 . S
C767 H759 0.930 . S
C767 C765 1.419 . S
C767 C768 1.362 . S
C768 H760 0.930 . S
C768 C767 1.362 . S
C768 C771 1.409 . S
C769 H761 0.930 . S
C769 C770 1.355 . S
C769 C771 1.415 . S
C770 C769 1.355 . S
C770 C772 1.419 . S
C771 C766 1.425 . S
C771 C768 1.409 . S
C771 C769 1.415 . S
C772 H762 0.930 . S
C772 C770 1.419 . S
C772 C773 1.362 . S
C773 H763 0.930 . S
C773 C766 1.409 . S
C773 C772 1.362 . S
H774 C780 0.930 . S
H775 C783 0.930 . S
H776 C784 0.930 . S
H777 C785 0.930 . S
H778 C788 0.930 . S
H779 C789 0.930 . S
C780 H774 0.930 . S
C780 C781 1.355 . S
C780 C782 1.415 . S
C781 C780 1.355 . S
C781 C783 1.419 . S
C782 C780 1.415 . S
C782 C787 1.425 . S
C782 C789 1.409 . S
C783 H775 0.930 . S
C783 C781 1.419 . S
C783 C784 1.362 . S
C784 H776 0.930 . S
C784 C783 1.362 . S
C784 C787 1.409 . S
C785 H777 0.930 . S
C785 C786 1.355 . S
C785 C787 1.415 . S
C786 C785 1.355 . S
C786 C788 1.419 . S
C787 C782 1.425 . S
C787 C784 1.409 . S
C787 C785 1.415 . S
C788 H778 0.930 . S
C788 C786 1.419 . S
C788 C789 1.362 . S
C789 H779 0.930 . S
C789 C782 1.409 . S
C789 C788 1.362 . S
H790 C796 0.930 . S
H791 C799 0.930 . S
H792 C800 0.930 . S
H793 C801 0.930 . S
H794 C804 0.930 . S
H795 C805 0.930 . S
C796 H790 0.930 . S
C796 C797 1.355 . S
C796 C798 1.415 . S
C797 C796 1.355 . S
C797 C799 1.419 . S
C798 C796 1.415 . S
C798 C803 1.425 . S
C798 C805 1.409 . S
C799 H791 0.930 . S
C799 C797 1.419 . S
C799 C800 1.362 . S
C800 H792 0.930 . S
C800 C799 1.362 . S
C800 C803 1.409 . S
C801 H793 0.930 . S
C801 C802 1.355 . S
C801 C803 1.415 . S
C802 C801 1.355 . S
C802 C804 1.419 . S
C803 C798 1.425 . S
C803 C800 1.409 . S
C803 C801 1.415 . S
C804 H794 0.930 . S
C804 C802 1.419 . S
C804 C805 1.362 . S
C805 H795 0.930 . S
C805 C798 1.409 . S
C805 C804 1.362 . S
H806 C812 0.930 . S
H807 C815 0.930 . S
H808 C816 0.930 . S
H809 C817 0.930 . S
H810 C820 0.930 . S
H811 C821 0.930 . S
C812 H806 0.930 . S
C812 C813 1.355 . S
C812 C814 1.415 . S
C813 C812 1.355 . S
C813 C815 1.419 . S
C814 C812 1.415 . S
C814 C819 1.425 . S
C814 C821 1.409 . S
C815 H807 0.930 . S
C815 C813 1.419 . S
C815 C816 1.362 . S
C816 H808 0.930 . S
C816 C815 1.362 . S
C816 C819 1.409 . S
C817 H809 0.930 . S
C817 C818 1.355 . S
C817 C819 1.415 . S
C818 C817 1.355 . S
C818 C820 1.419 . S
C819 C814 1.425 . S
C819 C816 1.409 . S
C819 C817 1.415 . S
C820 H810 0.930 . S
C820 C818 1.419 . S
C820 C821 1.362 . S
C821 H811 0.930 . S
C821 C814 1.409 . S
C821 C820 1.362 . S
H822 C828 0.930 . S
H823 C831 0.930 . S
H824 C832 0.930 . S
H825 C833 0.930 . S
H826 C836 0.930 . S
H827 C837 0.930 . S
C828 H822 0.930 . S
C828 C829 1.355 . S
C828 C830 1.415 . S
C829 C828 1.355 . S
C829 C831 1.419 . S
C830 C828 1.415 . S
C830 C835 1.425 . S
C830 C837 1.409 . S
C831 H823 0.930 . S
C831 C829 1.419 . S
C831 C832 1.362 . S
C832 H824 0.930 . S
C832 C831 1.362 . S
C832 C835 1.409 . S
C833 H825 0.930 . S
C833 C834 1.355 . S
C833 C835 1.415 . S
C834 C833 1.355 . S
C834 C836 1.419 . S
C835 C830 1.425 . S
C835 C832 1.409 . S
C835 C833 1.415 . S
C836 H826 0.930 . S
C836 C834 1.419 . S
C836 C837 1.362 . S
C837 H827 0.930 . S
C837 C830 1.409 . S
C837 C836 1.362 . S
H838 C844 0.930 . S
H839 C847 0.930 . S
H840 C848 0.930 . S
H841 C849 0.930 . S
H842 C852 0.930 . S
H843 C853 0.930 . S
C844 H838 0.930 . S
C844 C845 1.355 . S
C844 C846 1.415 . S
C845 C844 1.355 . S
C845 C847 1.419 . S
C846 C844 1.415 . S
C846 C851 1.425 . S
C846 C853 1.409 . S
C847 H839 0.930 . S
C847 C845 1.419 . S
C847 C848 1.362 . S
C848 H840 0.930 . S
C848 C847 1.362 . S
C848 C851 1.409 . S
C849 H841 0.930 . S
C849 C850 1.355 . S
C849 C851 1.415 . S
C850 C849 1.355 . S
C850 C852 1.419 . S
C851 C846 1.425 . S
C851 C848 1.409 . S
C851 C849 1.415 . S
C852 H842 0.930 . S
C852 C850 1.419 . S
C852 C853 1.362 . S
C853 H843 0.930 . S
C853 C846 1.409 . S
C853 C852 1.362 . S
H854 C860 0.930 . S
H855 C863 0.930 . S
H856 C864 0.930 . S
H857 C865 0.930 . S
H858 C868 0.921 1_554 S
H859 C869 0.930 . S
C860 H854 0.930 . S
C860 C861 1.355 . S
C860 C862 1.415 . S
C861 C860 1.355 . S
C861 C863 1.419 . S
C862 C860 1.415 . S
C862 C867 1.425 . S
C862 C869 1.409 . S
C863 H855 0.930 . S
C863 C861 1.419 . S
C863 C864 1.362 . S
C864 H856 0.930 . S
C864 C863 1.362 . S
C864 C867 1.409 . S
C865 H857 0.930 . S
C865 C866 1.355 . S
C865 C867 1.415 . S
C866 C865 1.355 . S
C866 C868 1.419 . S
C867 C862 1.425 . S
C867 C864 1.409 . S
C867 C865 1.415 . S
C868 H858 0.921 1_556 S
C868 C866 1.419 . S
C868 C869 1.362 . S
C869 H859 0.930 . S
C869 C862 1.409 . S
C869 C868 1.362 . S
H870 C876 0.930 . S
H871 C879 0.930 . S
H872 C880 0.930 . S
H873 C881 0.930 . S
H874 C884 0.930 . S
H875 C885 0.930 . S
C876 H870 0.930 . S
C876 C877 1.355 . S
C876 C878 1.415 . S
C877 C876 1.355 . S
C877 C879 1.419 . S
C878 C876 1.415 . S
C878 C883 1.425 . S
C878 C885 1.409 . S
C879 H871 0.930 . S
C879 C877 1.419 . S
C879 C880 1.362 . S
C880 H872 0.930 . S
C880 C879 1.362 . S
C880 C883 1.409 . S
C881 H873 0.930 . S
C881 C882 1.355 . S
C881 C883 1.415 . S
C882 C881 1.355 . S
C882 C884 1.419 . S
C883 C878 1.425 . S
C883 C880 1.409 . S
C883 C881 1.415 . S
C884 H874 0.930 . S
C884 C882 1.419 . S
C884 C885 1.362 . S
C885 H875 0.930 . S
C885 C878 1.409 . S
C885 C884 1.362 . S
H886 C892 0.930 . S
H887 C895 0.930 . S
H888 C896 0.930 . S
H889 C897 0.930 . S
H890 C900 0.930 . S
H891 C901 0.930 . S
C892 H886 0.930 . S
C892 C893 1.355 . S
C892 C894 1.415 . S
C893 C892 1.355 . S
C893 C895 1.419 . S
C894 C892 1.415 . S
C894 C899 1.425 . S
C894 C901 1.409 . S
C895 H887 0.930 . S
C895 C893 1.419 . S
C895 C896 1.362 . S
C896 H888 0.930 . S
C896 C895 1.362 . S
C896 C899 1.409 . S
C897 H889 0.930 . S
C897 C898 1.355 . S
C897 C899 1.415 . S
C898 C897 1.355 . S
C898 C900 1.419 . S
C899 C894 1.425 . S
C899 C896 1.409 . S
C899 C897 1.415 . S
C900 H890 0.930 . S
C900 C898 1.419 . S
C900 C901 1.362 . S
C901 H891 0.930 . S
C901 C894 1.409 . S
C901 C900 1.362 . S
H902 C908 0.930 . S
H903 C911 0.930 . S
H904 C912 0.930 . S
H905 C913 0.930 . S
H906 C916 0.930 . S
H907 C917 0.930 . S
C908 H902 0.930 . S
C908 C909 1.355 . S
C908 C910 1.415 . S
C909 C908 1.355 . S
C909 C911 1.419 . S
C910 C908 1.415 . S
C910 C915 1.425 . S
C910 C917 1.409 . S
C911 H903 0.930 . S
C911 C909 1.419 . S
C911 C912 1.362 . S
C912 H904 0.930 . S
C912 C911 1.362 . S
C912 C915 1.409 . S
C913 H905 0.930 . S
C913 C914 1.355 . S
C913 C915 1.415 . S
C914 C913 1.355 . S
C914 C916 1.419 . S
C915 C910 1.425 . S
C915 C912 1.409 . S
C915 C913 1.415 . S
C916 H906 0.930 . S
C916 C914 1.419 . S
C916 C917 1.362 . S
C917 H907 0.930 . S
C917 C910 1.409 . S
C917 C916 1.362 . S
H918 C924 0.930 . S
H919 C927 0.930 . S
H920 C928 0.930 . S
H921 C929 0.930 . S
H922 C932 0.930 . S
H923 C933 0.930 . S
C924 H918 0.930 . S
C924 C925 1.355 . S
C924 C926 1.415 . S
C925 C924 1.355 . S
C925 C927 1.419 . S
C926 C924 1.415 . S
C926 C931 1.425 . S
C926 C933 1.409 . S
C927 H919 0.930 . S
C927 C925 1.419 . S
C927 C928 1.362 . S
C928 H920 0.930 . S
C928 C927 1.362 . S
C928 C931 1.409 . S
C929 H921 0.930 . S
C929 C930 1.355 . S
C929 C931 1.415 . S
C930 C929 1.355 . S
C930 C932 1.419 . S
C931 C926 1.425 . S
C931 C928 1.409 . S
C931 C929 1.415 . S
C932 H922 0.930 . S
C932 C930 1.419 . S
C932 C933 1.362 . S
C933 H923 0.930 . S
C933 C926 1.409 . S
C933 C932 1.362 . S
H934 C940 0.930 . S
H935 C943 0.930 . S
H936 C944 0.930 . S
H937 C945 0.930 . S
H938 C948 0.930 . S
H939 C949 0.930 . S
C940 H934 0.930 . S
C940 C941 1.355 . S
C940 C942 1.415 . S
C941 C940 1.355 . S
C941 C943 1.419 . S
C942 C940 1.415 . S
C942 C947 1.425 . S
C942 C949 1.409 . S
C943 H935 0.930 . S
C943 C941 1.419 . S
C943 C944 1.362 . S
C944 H936 0.930 . S
C944 C943 1.362 . S
C944 C947 1.409 . S
C945 H937 0.930 . S
C945 C946 1.355 . S
C945 C947 1.415 . S
C946 C945 1.355 . S
C946 C948 1.419 . S
C947 C942 1.425 . S
C947 C944 1.409 . S
C947 C945 1.415 . S
C948 H938 0.930 . S
C948 C946 1.419 . S
C948 C949 1.362 . S
C949 H939 0.930 . S
C949 C942 1.409 . S
C949 C948 1.362 . S
H950 C956 0.930 . S
H951 C959 0.930 . S
H952 C960 0.930 . S
H953 C961 0.930 . S
H954 C964 0.930 . S
H955 C965 0.930 . S
C956 H950 0.930 . S
C956 C957 1.355 . S
C956 C958 1.415 . S
C957 C956 1.355 . S
C957 C959 1.419 . S
C958 C956 1.415 . S
C958 C963 1.425 . S
C958 C965 1.409 . S
C959 H951 0.930 . S
C959 C957 1.419 . S
C959 C960 1.362 . S
C960 H952 0.930 . S
C960 C959 1.362 . S
C960 C963 1.409 . S
C961 H953 0.930 . S
C961 C962 1.355 . S
C961 C963 1.415 . S
C962 C961 1.355 . S
C962 C964 1.419 . S
C963 C958 1.425 . S
C963 C960 1.409 . S
C963 C961 1.415 . S
C964 H954 0.930 . S
C964 C962 1.419 . S
C964 C965 1.362 . S
C965 H955 0.930 . S
C965 C958 1.409 . S
C965 C964 1.362 . S
H966 C972 0.930 . S
H967 C975 0.930 . S
H968 C976 0.930 . S
H969 C977 0.930 . S
H970 C980 0.930 . S
H971 C981 0.930 . S
C972 H966 0.930 . S
C972 C973 1.355 . S
C972 C974 1.415 . S
C973 C972 1.355 . S
C973 C975 1.419 . S
C974 C972 1.415 . S
C974 C979 1.425 . S
C974 C981 1.409 . S
C975 H967 0.930 . S
C975 C973 1.419 . S
C975 C976 1.362 . S
C976 H968 0.930 . S
C976 C975 1.362 . S
C976 C979 1.409 . S
C977 H969 0.930 . S
C977 C978 1.355 . S
C977 C979 1.415 . S
C978 C977 1.355 . S
C978 C980 1.419 . S
C979 C974 1.425 . S
C979 C976 1.409 . S
C979 C977 1.415 . S
C980 H970 0.930 . S
C980 C978 1.419 . S
C980 C981 1.362 . S
C981 H971 0.930 . S
C981 C974 1.409 . S
C981 C980 1.362 . S
H982 C988 0.930 . S
H983 C991 0.930 . S
H984 C992 0.930 . S
H985 C993 0.930 . S
H986 C996 0.930 . S
H987 C997 0.930 . S
C988 H982 0.930 . S
C988 C989 1.355 . S
C988 C990 1.415 . S
C989 C988 1.355 . S
C989 C991 1.419 . S
C990 C988 1.415 . S
C990 C995 1.425 . S
C990 C997 1.409 . S
C991 H983 0.930 . S
C991 C989 1.419 . S
C991 C992 1.362 . S
C992 H984 0.930 . S
C992 C991 1.362 . S
C992 C995 1.409 . S
C993 H985 0.930 . S
C993 C994 1.355 . S
C993 C995 1.415 . S
C994 C993 1.355 . S
C994 C996 1.419 . S
C995 C990 1.425 . S
C995 C992 1.409 . S
C995 C993 1.415 . S
C996 H986 0.930 . S
C996 C994 1.419 . S
C996 C997 1.362 . S
C997 H987 0.930 . S
C997 C990 1.409 . S
C997 C996 1.362 . S
H998 C1004 0.930 . S
H999 C1007 0.930 . S
H1000 C1008 0.930 . S
H1001 C1009 0.930 . S
H1002 C1012 0.930 . S
H1003 C1013 0.930 . S
C1004 H998 0.930 . S
C1004 C1005 1.355 . S
C1004 C1006 1.415 . S
C1005 C1004 1.355 . S
C1005 C1007 1.419 . S
C1006 C1004 1.415 . S
C1006 C1011 1.425 . S
C1006 C1013 1.409 . S
C1007 H999 0.930 . S
C1007 C1005 1.419 . S
C1007 C1008 1.362 . S
C1008 H1000 0.930 . S
C1008 C1007 1.362 . S
C1008 C1011 1.409 . S
C1009 H1001 0.930 . S
C1009 C1010 1.355 . S
C1009 C1011 1.415 . S
C1010 C1009 1.355 . S
C1010 C1012 1.419 . S
C1011 C1006 1.425 . S
C1011 C1008 1.409 . S
C1011 C1009 1.415 . S
C1012 H1002 0.930 . S
C1012 C1010 1.419 . S
C1012 C1013 1.362 . S
C1013 H1003 0.930 . S
C1013 C1006 1.409 . S
C1013 C1012 1.362 . S
H1014 C1020 0.930 . S
H1015 C1023 0.930 . S
H1016 C1024 0.930 . S
H1017 C1025 0.930 . S
H1018 C1028 0.930 . S
H1019 C1029 0.930 . S
C1020 H1014 0.930 . S
C1020 C1021 1.355 . S
C1020 C1022 1.415 . S
C1021 C1020 1.355 . S
C1021 C1023 1.419 . S
C1022 C1020 1.415 . S
C1022 C1027 1.425 . S
C1022 C1029 1.409 . S
C1023 H1015 0.930 . S
C1023 C1021 1.419 . S
C1023 C1024 1.362 . S
C1024 H1016 0.930 . S
C1024 C1023 1.362 . S
C1024 C1027 1.409 . S
C1025 H1017 0.930 . S
C1025 C1026 1.355 . S
C1025 C1027 1.415 . S
C1026 C1025 1.355 . S
C1026 C1028 1.419 . S
C1027 C1022 1.425 . S
C1027 C1024 1.409 . S
C1027 C1025 1.415 . S
C1028 H1018 0.930 . S
C1028 C1026 1.419 . S
C1028 C1029 1.362 . S
C1029 H1019 0.930 . S
C1029 C1022 1.409 . S
C1029 C1028 1.362 . S
H1030 C1036 0.930 . S
H1031 C1039 0.930 . S
H1032 C1040 0.930 . S
H1033 C1041 0.930 . S
H1034 C1044 0.930 . S
H1035 C1045 0.930 . S
C1036 H1030 0.930 . S
C1036 C1037 1.355 . S
C1036 C1038 1.415 . S
C1037 C1036 1.355 . S
C1037 C1039 1.419 . S
C1038 C1036 1.415 . S
C1038 C1043 1.425 . S
C1038 C1045 1.409 . S
C1039 H1031 0.930 . S
C1039 C1037 1.419 . S
C1039 C1040 1.362 . S
C1040 H1032 0.930 . S
C1040 C1039 1.362 . S
C1040 C1043 1.409 . S
C1041 H1033 0.930 . S
C1041 C1042 1.355 . S
C1041 C1043 1.415 . S
C1042 C1041 1.355 . S
C1042 C1044 1.419 . S
C1043 C1038 1.425 . S
C1043 C1040 1.409 . S
C1043 C1041 1.415 . S
C1044 H1034 0.930 . S
C1044 C1042 1.419 . S
C1044 C1045 1.362 . S
C1045 H1035 0.930 . S
C1045 C1038 1.409 . S
C1045 C1044 1.362 . S
H1046 C1052 0.930 . S
H1047 C1055 0.930 . S
H1048 C1056 0.930 . S
H1049 C1057 0.930 . S
H1050 C1060 0.930 . S
H1051 C1061 0.930 . S
C1052 H1046 0.930 . S
C1052 C1053 1.355 . S
C1052 C1054 1.415 . S
C1053 C1052 1.355 . S
C1053 C1055 1.419 . S
C1054 C1052 1.415 . S
C1054 C1059 1.425 . S
C1054 C1061 1.409 . S
C1055 H1047 0.930 . S
C1055 C1053 1.419 . S
C1055 C1056 1.362 . S
C1056 H1048 0.930 . S
C1056 C1055 1.362 . S
C1056 C1059 1.409 . S
C1057 H1049 0.930 . S
C1057 C1058 1.355 . S
C1057 C1059 1.415 . S
C1058 C1057 1.355 . S
C1058 C1060 1.419 . S
C1059 C1054 1.425 . S
C1059 C1056 1.409 . S
C1059 C1057 1.415 . S
C1060 H1050 0.930 . S
C1060 C1058 1.419 . S
C1060 C1061 1.362 . S
C1061 H1051 0.930 . S
C1061 C1054 1.409 . S
C1061 C1060 1.362 . S
H1062 C1068 0.930 . S
H1063 C1071 0.930 . S
H1064 C1072 0.930 . S
H1065 C1073 0.930 . S
H1066 C1076 0.930 . S
H1067 C1077 0.930 . S
C1068 H1062 0.930 . S
C1068 C1069 1.355 . S
C1068 C1070 1.415 . S
C1069 C1068 1.355 . S
C1069 C1071 1.419 . S
C1070 C1068 1.415 . S
C1070 C1075 1.425 . S
C1070 C1077 1.409 . S
C1071 H1063 0.930 . S
C1071 C1069 1.419 . S
C1071 C1072 1.362 . S
C1072 H1064 0.930 . S
C1072 C1071 1.362 . S
C1072 C1075 1.409 . S
C1073 H1065 0.930 . S
C1073 C1074 1.355 . S
C1073 C1075 1.415 . S
C1074 C1073 1.355 . S
C1074 C1076 1.419 . S
C1075 C1070 1.425 . S
C1075 C1072 1.409 . S
C1075 C1073 1.415 . S
C1076 H1066 0.930 . S
C1076 C1074 1.419 . S
C1076 C1077 1.362 . S
C1077 H1067 0.930 . S
C1077 C1070 1.409 . S
C1077 C1076 1.362 . S
H1078 C1084 0.930 . S
H1079 C1087 0.930 . S
H1080 C1088 0.930 . S
H1081 C1089 0.930 . S
H1082 C1092 0.930 . S
H1083 C1093 0.930 . S
C1084 H1078 0.930 . S
C1084 C1085 1.355 . S
C1084 C1086 1.415 . S
C1085 C1084 1.355 . S
C1085 C1087 1.419 . S
C1086 C1084 1.415 . S
C1086 C1091 1.425 . S
C1086 C1093 1.409 . S
C1087 H1079 0.930 . S
C1087 C1085 1.419 . S
C1087 C1088 1.362 . S
C1088 H1080 0.930 . S
C1088 C1087 1.362 . S
C1088 C1091 1.409 . S
C1089 H1081 0.930 . S
C1089 C1090 1.355 . S
C1089 C1091 1.415 . S
C1090 C1089 1.355 . S
C1090 C1092 1.419 . S
C1091 C1086 1.425 . S
C1091 C1088 1.409 . S
C1091 C1089 1.415 . S
C1092 H1082 0.930 . S
C1092 C1090 1.419 . S
C1092 C1093 1.362 . S
C1093 H1083 0.930 . S
C1093 C1086 1.409 . S
C1093 C1092 1.362 . S
H1094 C1100 0.930 . S
H1095 C1103 0.930 . S
H1096 C1104 0.930 . S
H1097 C1105 0.930 . S
H1098 C1108 0.930 . S
H1099 C1109 0.930 . S
C1100 H1094 0.930 . S
C1100 C1101 1.355 . S
C1100 C1102 1.415 . S
C1101 C1100 1.355 . S
C1101 C1103 1.419 . S
C1102 C1100 1.415 . S
C1102 C1107 1.425 . S
C1102 C1109 1.409 . S
C1103 H1095 0.930 . S
C1103 C1101 1.419 . S
C1103 C1104 1.362 . S
C1104 H1096 0.930 . S
C1104 C1103 1.362 . S
C1104 C1107 1.409 . S
C1105 H1097 0.930 . S
C1105 C1106 1.355 . S
C1105 C1107 1.415 . S
C1106 C1105 1.355 . S
C1106 C1108 1.419 . S
C1107 C1102 1.425 . S
C1107 C1104 1.409 . S
C1107 C1105 1.415 . S
C1108 H1098 0.930 . S
C1108 C1106 1.419 . S
C1108 C1109 1.362 . S
C1109 H1099 0.930 . S
C1109 C1102 1.409 . S
C1109 C1108 1.362 . S
H1110 C1116 0.930 . S
H1111 C1119 0.930 . S
H1112 C1120 0.930 . S
H1113 C1121 0.930 . S
H1114 C1124 0.930 . S
H1115 C1125 0.930 . S
C1116 H1110 0.930 . S
C1116 C1117 1.355 . S
C1116 C1118 1.415 . S
C1117 C1116 1.355 . S
C1117 C1119 1.419 . S
C1118 C1116 1.415 . S
C1118 C1123 1.425 . S
C1118 C1125 1.409 . S
C1119 H1111 0.930 . S
C1119 C1117 1.419 . S
C1119 C1120 1.362 . S
C1120 H1112 0.930 . S
C1120 C1119 1.362 . S
C1120 C1123 1.409 . S
C1121 H1113 0.930 . S
C1121 C1122 1.355 . S
C1121 C1123 1.415 . S
C1122 C1121 1.355 . S
C1122 C1124 1.419 . S
C1123 C1118 1.425 . S
C1123 C1120 1.409 . S
C1123 C1121 1.415 . S
C1124 H1114 0.930 . S
C1124 C1122 1.419 . S
C1124 C1125 1.362 . S
C1125 H1115 0.930 . S
C1125 C1118 1.409 . S
C1125 C1124 1.362 . S
H1126 C1132 0.930 . S
H1127 C1135 0.930 . S
H1128 C1136 0.930 . S
H1129 C1137 0.930 . S
H1130 C1140 0.930 . S
H1131 C1141 0.930 . S
C1132 H1126 0.930 . S
C1132 C1133 1.355 . S
C1132 C1134 1.415 . S
C1133 C1132 1.355 . S
C1133 C1135 1.419 . S
C1134 C1132 1.415 . S
C1134 C1139 1.425 . S
C1134 C1141 1.409 . S
C1135 H1127 0.930 . S
C1135 C1133 1.419 . S
C1135 C1136 1.362 . S
C1136 H1128 0.930 . S
C1136 C1135 1.362 . S
C1136 C1139 1.409 . S
C1137 H1129 0.930 . S
C1137 C1138 1.355 . S
C1137 C1139 1.415 . S
C1138 C1137 1.355 . S
C1138 C1140 1.419 . S
C1139 C1134 1.425 . S
C1139 C1136 1.409 . S
C1139 C1137 1.415 . S
C1140 H1130 0.930 . S
C1140 C1138 1.419 . S
C1140 C1141 1.362 . S
C1141 H1131 0.930 . S
C1141 C1134 1.409 . S
C1141 C1140 1.362 . S
H1142 C1148 0.930 . S
H1143 C1151 0.930 . S
H1144 C1152 0.930 . S
H1145 C1153 0.930 . S
H1146 C1156 0.930 . S
H1147 C1157 0.930 . S
C1148 H1142 0.930 . S
C1148 C1149 1.355 . S
C1148 C1150 1.415 . S
C1149 C1148 1.355 . S
C1149 C1151 1.419 . S
C1150 C1148 1.415 . S
C1150 C1155 1.425 . S
C1150 C1157 1.409 . S
C1151 H1143 0.930 . S
C1151 C1149 1.419 . S
C1151 C1152 1.362 . S
C1152 H1144 0.930 . S
C1152 C1151 1.362 . S
C1152 C1155 1.409 . S
C1153 H1145 0.930 . S
C1153 C1154 1.355 . S
C1153 C1155 1.415 . S
C1154 C1153 1.355 . S
C1154 C1156 1.419 . S
C1155 C1150 1.425 . S
C1155 C1152 1.409 . S
C1155 C1153 1.415 . S
C1156 H1146 0.930 . S
C1156 C1154 1.419 . S
C1156 C1157 1.362 . S
C1157 H1147 0.930 . S
C1157 C1150 1.409 . S
C1157 C1156 1.362 . S
H1158 C1164 0.930 . S
H1159 C1167 0.930 . S
H1160 C1168 0.930 . S
H1161 C1169 0.930 . S
H1162 C1172 0.930 . S
H1163 C1173 0.930 . S
C1164 H1158 0.930 . S
C1164 C1165 1.355 . S
C1164 C1166 1.415 . S
C1165 C1164 1.355 . S
C1165 C1167 1.419 . S
C1166 C1164 1.415 . S
C1166 C1171 1.425 . S
C1166 C1173 1.409 . S
C1167 H1159 0.930 . S
C1167 C1165 1.419 . S
C1167 C1168 1.362 . S
C1168 H1160 0.930 . S
C1168 C1167 1.362 . S
C1168 C1171 1.409 . S
C1169 H1161 0.930 . S
C1169 C1170 1.355 . S
C1169 C1171 1.415 . S
C1170 C1169 1.355 . S
C1170 C1172 1.419 . S
C1171 C1166 1.425 . S
C1171 C1168 1.409 . S
C1171 C1169 1.415 . S
C1172 H1162 0.930 . S
C1172 C1170 1.419 . S
C1172 C1173 1.362 . S
C1173 H1163 0.930 . S
C1173 C1166 1.409 . S
C1173 C1172 1.362 . S
H1174 C1180 0.930 . S
H1175 C1183 0.930 . S
H1176 C1184 0.930 . S
H1177 C1185 0.930 . S
H1178 C1188 0.930 . S
H1179 C1189 0.930 . S
C1180 H1174 0.930 . S
C1180 C1181 1.355 . S
C1180 C1182 1.415 . S
C1181 C1180 1.355 . S
C1181 C1183 1.419 . S
C1182 C1180 1.415 . S
C1182 C1187 1.425 . S
C1182 C1189 1.409 . S
C1183 H1175 0.930 . S
C1183 C1181 1.419 . S
C1183 C1184 1.362 . S
C1184 H1176 0.930 . S
C1184 C1183 1.362 . S
C1184 C1187 1.409 . S
C1185 H1177 0.930 . S
C1185 C1186 1.355 . S
C1185 C1187 1.415 . S
C1186 C1185 1.355 . S
C1186 C1188 1.419 . S
C1187 C1182 1.425 . S
C1187 C1184 1.409 . S
C1187 C1185 1.415 . S
C1188 H1178 0.930 . S
C1188 C1186 1.419 . S
C1188 C1189 1.362 . S
C1189 H1179 0.930 . S
C1189 C1182 1.409 . S
C1189 C1188 1.362 . S
H1190 C1196 0.930 . S
H1191 C1199 0.930 . S
H1192 C1200 0.930 . S
H1193 C1201 0.930 . S
H1194 C1204 0.930 . S
H1195 C1205 0.930 . S
C1196 H1190 0.930 . S
C1196 C1197 1.355 . S
C1196 C1198 1.415 . S
C1197 C1196 1.355 . S
C1197 C1199 1.419 . S
C1198 C1196 1.415 . S
C1198 C1203 1.425 . S
C1198 C1205 1.409 . S
C1199 H1191 0.930 . S
C1199 C1197 1.419 . S
C1199 C1200 1.362 . S
C1200 H1192 0.930 . S
C1200 C1199 1.362 . S
C1200 C1203 1.409 . S
C1201 H1193 0.930 . S
C1201 C1202 1.355 . S
C1201 C1203 1.415 . S
C1202 C1201 1.355 . S
C1202 C1204 1.419 . S
C1203 C1198 1.425 . S
C1203 C1200 1.409 . S
C1203 C1201 1.415 . S
C1204 H1194 0.930 . S
C1204 C1202 1.419 . S
C1204 C1205 1.362 . S
C1205 H1195 0.930 . S
C1205 C1198 1.409 . S
C1205 C1204 1.362 . S
H1206 C1212 0.930 . S
H1207 C1215 0.930 . S
H1208 C1216 0.930 . S
H1209 C1217 0.930 . S
H1210 C1220 0.930 . S
H1211 C1221 0.930 . S
C1212 H1206 0.930 . S
C1212 C1213 1.355 . S
C1212 C1214 1.415 . S
C1213 C1212 1.355 . S
C1213 C1215 1.419 . S
C1214 C1212 1.415 . S
C1214 C1219 1.425 . S
C1214 C1221 1.409 . S
C1215 H1207 0.930 . S
C1215 C1213 1.419 . S
C1215 C1216 1.362 . S
C1216 H1208 0.930 . S
C1216 C1215 1.362 . S
C1216 C1219 1.409 . S
C1217 H1209 0.930 . S
C1217 C1218 1.355 . S
C1217 C1219 1.415 . S
C1218 C1217 1.355 . S
C1218 C1220 1.419 . S
C1219 C1214 1.425 . S
C1219 C1216 1.409 . S
C1219 C1217 1.415 . S
C1220 H1210 0.930 . S
C1220 C1218 1.419 . S
C1220 C1221 1.362 . S
C1221 H1211 0.930 . S
C1221 C1214 1.409 . S
C1221 C1220 1.362 . S
H1222 C1228 0.930 . S
H1223 C1231 0.930 . S
H1224 C1232 0.930 . S
H1225 C1233 0.930 . S
H1226 C1236 0.930 . S
H1227 C1237 0.930 . S
C1228 H1222 0.930 . S
C1228 C1229 1.355 . S
C1228 C1230 1.415 . S
C1229 C1228 1.355 . S
C1229 C1231 1.419 . S
C1230 C1228 1.415 . S
C1230 C1235 1.425 . S
C1230 C1237 1.409 . S
C1231 H1223 0.930 . S
C1231 C1229 1.419 . S
C1231 C1232 1.362 . S
C1232 H1224 0.930 . S
C1232 C1231 1.362 . S
C1232 C1235 1.409 . S
C1233 H1225 0.930 . S
C1233 C1234 1.355 . S
C1233 C1235 1.415 . S
C1234 C1233 1.355 . S
C1234 C1236 1.419 . S
C1235 C1230 1.425 . S
C1235 C1232 1.409 . S
C1235 C1233 1.415 . S
C1236 H1226 0.930 . S
C1236 C1234 1.419 . S
C1236 C1237 1.362 . S
C1237 H1227 0.930 . S
C1237 C1230 1.409 . S
C1237 C1236 1.362 . S
C482 C299 0.606 . S
C477 C4 0.315 . S
C498 C300 1.811 . S
C493 C63 1.946 . S
C514 C294 1.150 . S
C509 C72 1.161 . S
C525 C102 1.208 . S
C530 C293 1.184 . S
C541 C136 1.945 . S
C546 C296 1.839 . S
C562 C298 1.052 . S
C557 C183 1.105 . S
C573 C233 1.229 . S
C578 C297 1.235 . S
C589 C251 0.223 . S
C594 C295 0.499 . S
C610 C330 1.546 . S
C605 C29 1.580 . S
C621 C42 2.157 . S
C626 C361 2.081 . S
C642 C329 1.528 . S
C637 C97 1.536 . S
C658 C364 1.278 . S
C653 C115 1.228 . S
C669 C149 1.350 . S
C674 C327 1.340 . S
C690 C359 1.541 . S
C685 C187 1.582 . S
C701 C212 1.950 . S
C706 C332 1.975 . S
C717 C255 1.521 . S
C722 C366 1.431 . S
C733 C8 1.529 . S
C738 C362 1.469 . S
C749 C153 2.158 . S
C754 C365 2.077 . S
C770 C333 1.503 . S
C765 C170 1.546 . S
C786 C360 1.233 . S
C781 C208 1.281 . S
C797 C238 1.574 . S
C802 C326 1.556 . S
C813 C76 1.572 . S
C818 C363 1.579 . S
C834 C328 1.946 . S
C829 C119 1.975 . S
C845 C38 1.311 . S
C850 C331 1.316 . S
C861 C242 0.382 . S
C866 C398 0.714 . S
C877 C165 1.468 . S
C882 C399 1.362 . S
C898 C393 1.058 . S
C893 C174 1.111 . S
C914 C392 1.678 . S
C909 C204 1.696 . S
C925 C34 1.474 . S
C930 C395 1.374 . S
C946 C397 1.070 . S
C941 C81 1.085 . S
C957 C131 1.664 . S
C962 C396 1.627 . S
C973 C13 0.233 . S
C978 C394 0.542 . S
C989 C267 1.716 . S
C994 C432 1.673 . S
C1010 C464 1.950 . S
C1005 C144 1.999 . S
C1021 C199 1.390 . S
C1026 C425 1.352 . S
C1037 C217 1.332 . S
C1042 C459 1.425 . S
C1058 C430 1.225 . S
C1053 C47 1.169 . S
C1069 C85 1.868 . S
C1074 C461 1.769 . S
C1090 C427 2.100 . S
C1085 C110 2.159 . S
C1106 C462 1.413 . S
C1101 C17 1.408 . S
C1122 C458 1.394 . S
C1117 C246 1.396 . S
C1133 C51 1.957 . S
C1138 C460 1.995 . S
C1149 C68 1.357 . S
C1154 C429 1.382 . S
C1170 C463 1.427 . S
C1165 C106 1.376 . S
C1181 C0 1.726 . S
C1186 C428 1.614 . S
C1197 C178 1.828 . S
C1202 C465 1.786 . S
C1218 C431 2.091 . S
C1213 C221 2.180 . S
C1234 C426 1.276 . S
C1229 C140 1.219 . S
