# Generated by pormake.
# Topology fgl, (4,4)-cn, num edge types: 1
# Building blocks:
#     Node 0, Type 0, BuildingBlock: ESEHIV_clean_sbu_0, # of connection points: 4
#     Node 1, Type 0, BuildingBlock: ESEHIV_clean_sbu_0, # of connection points: 4
#     Node 2, Type 0, BuildingBlock: ESEHIV_clean_sbu_0, # of connection points: 4
#     Node 3, Type 0, BuildingBlock: ESEHIV_clean_sbu_0, # of connection points: 4
#     Node 4, Type 0, BuildingBlock: ESEHIV_clean_sbu_0, # of connection points: 4
#     Node 5, Type 0, BuildingBlock: ESEHIV_clean_sbu_0, # of connection points: 4
#     Node 6, Type 0, BuildingBlock: ESEHIV_clean_sbu_0, # of connection points: 4
#     Node 7, Type 0, BuildingBlock: ESEHIV_clean_sbu_0, # of connection points: 4
#     Node 8, Type 0, BuildingBlock: ESEHIV_clean_sbu_0, # of connection points: 4
#     Node 9, Type 0, BuildingBlock: ESEHIV_clean_sbu_0, # of connection points: 4
#     Node 10, Type 0, BuildingBlock: ESEHIV_clean_sbu_0, # of connection points: 4
#     Node 11, Type 0, BuildingBlock: ESEHIV_clean_sbu_0, # of connection points: 4
#     Node 12, Type 0, BuildingBlock: ESEHIV_clean_sbu_0, # of connection points: 4
#     Node 13, Type 0, BuildingBlock: ESEHIV_clean_sbu_0, # of connection points: 4
#     Node 14, Type 0, BuildingBlock: ESEHIV_clean_sbu_0, # of connection points: 4
#     Node 15, Type 0, BuildingBlock: ESEHIV_clean_sbu_0, # of connection points: 4
#     Node 16, Type 0, BuildingBlock: ESEHIV_clean_sbu_0, # of connection points: 4
#     Node 17, Type 0, BuildingBlock: ESEHIV_clean_sbu_0, # of connection points: 4
#     Node 18, Type 1, BuildingBlock: QUQFOY_clean_sbu_3, # of connection points: 4
#     Node 19, Type 1, BuildingBlock: QUQFOY_clean_sbu_3, # of connection points: 4
#     Node 20, Type 1, BuildingBlock: QUQFOY_clean_sbu_3, # of connection points: 4
#     Node 21, Type 1, BuildingBlock: QUQFOY_clean_sbu_3, # of connection points: 4
#     Node 22, Type 1, BuildingBlock: QUQFOY_clean_sbu_3, # of connection points: 4
#     Node 23, Type 1, BuildingBlock: QUQFOY_clean_sbu_3, # of connection points: 4
#     Node 24, Type 1, BuildingBlock: QUQFOY_clean_sbu_3, # of connection points: 4
#     Node 25, Type 1, BuildingBlock: QUQFOY_clean_sbu_3, # of connection points: 4
#     Node 26, Type 1, BuildingBlock: QUQFOY_clean_sbu_3, # of connection points: 4
#     Node 27, Type 1, BuildingBlock: QUQFOY_clean_sbu_3, # of connection points: 4
#     Node 28, Type 1, BuildingBlock: QUQFOY_clean_sbu_3, # of connection points: 4
#     Node 29, Type 1, BuildingBlock: QUQFOY_clean_sbu_3, # of connection points: 4
#     Node 30, Type 1, BuildingBlock: QUQFOY_clean_sbu_3, # of connection points: 4
#     Node 31, Type 1, BuildingBlock: QUQFOY_clean_sbu_3, # of connection points: 4
#     Node 32, Type 1, BuildingBlock: QUQFOY_clean_sbu_3, # of connection points: 4
#     Node 33, Type 1, BuildingBlock: QUQFOY_clean_sbu_3, # of connection points: 4
#     Node 34, Type 1, BuildingBlock: QUQFOY_clean_sbu_3, # of connection points: 4
#     Node 35, Type 1, BuildingBlock: QUQFOY_clean_sbu_3, # of connection points: 4
#     Edge 36, Type (0, 1), BuildingBlock: XIVTED_clean_linker_0, # of connection points: 2
#     Edge 37, Type (0, 1), BuildingBlock: XIVTED_clean_linker_0, # of connection points: 2
#     Edge 38, Type (0, 1), BuildingBlock: XIVTED_clean_linker_0, # of connection points: 2
#     Edge 39, Type (0, 1), BuildingBlock: XIVTED_clean_linker_0, # of connection points: 2
#     Edge 40, Type (0, 1), BuildingBlock: XIVTED_clean_linker_0, # of connection points: 2
#     Edge 41, Type (0, 1), BuildingBlock: XIVTED_clean_linker_0, # of connection points: 2
#     Edge 42, Type (0, 1), BuildingBlock: XIVTED_clean_linker_0, # of connection points: 2
#     Edge 43, Type (0, 1), BuildingBlock: XIVTED_clean_linker_0, # of connection points: 2
#     Edge 44, Type (0, 1), BuildingBlock: XIVTED_clean_linker_0, # of connection points: 2
#     Edge 45, Type (0, 1), BuildingBlock: XIVTED_clean_linker_0, # of connection points: 2
#     Edge 46, Type (0, 1), BuildingBlock: XIVTED_clean_linker_0, # of connection points: 2
#     Edge 47, Type (0, 1), BuildingBlock: XIVTED_clean_linker_0, # of connection points: 2
#     Edge 48, Type (0, 1), BuildingBlock: XIVTED_clean_linker_0, # of connection points: 2
#     Edge 49, Type (0, 1), BuildingBlock: XIVTED_clean_linker_0, # of connection points: 2
#     Edge 50, Type (0, 1), BuildingBlock: XIVTED_clean_linker_0, # of connection points: 2
#     Edge 51, Type (0, 1), BuildingBlock: XIVTED_clean_linker_0, # of connection points: 2
#     Edge 52, Type (0, 1), BuildingBlock: XIVTED_clean_linker_0, # of connection points: 2
#     Edge 53, Type (0, 1), BuildingBlock: XIVTED_clean_linker_0, # of connection points: 2
#     Edge 54, Type (0, 1), BuildingBlock: XIVTED_clean_linker_0, # of connection points: 2
#     Edge 55, Type (0, 1), BuildingBlock: XIVTED_clean_linker_0, # of connection points: 2
#     Edge 56, Type (0, 1), BuildingBlock: XIVTED_clean_linker_0, # of connection points: 2
#     Edge 57, Type (0, 1), BuildingBlock: XIVTED_clean_linker_0, # of connection points: 2
#     Edge 58, Type (0, 1), BuildingBlock: XIVTED_clean_linker_0, # of connection points: 2
#     Edge 59, Type (0, 1), BuildingBlock: XIVTED_clean_linker_0, # of connection points: 2
#     Edge 60, Type (0, 1), BuildingBlock: XIVTED_clean_linker_0, # of connection points: 2
#     Edge 61, Type (0, 1), BuildingBlock: XIVTED_clean_linker_0, # of connection points: 2
#     Edge 62, Type (0, 1), BuildingBlock: XIVTED_clean_linker_0, # of connection points: 2
#     Edge 63, Type (0, 1), BuildingBlock: XIVTED_clean_linker_0, # of connection points: 2
#     Edge 64, Type (0, 1), BuildingBlock: XIVTED_clean_linker_0, # of connection points: 2
#     Edge 65, Type (0, 1), BuildingBlock: XIVTED_clean_linker_0, # of connection points: 2
#     Edge 66, Type (0, 1), BuildingBlock: XIVTED_clean_linker_0, # of connection points: 2
#     Edge 67, Type (0, 1), BuildingBlock: XIVTED_clean_linker_0, # of connection points: 2
#     Edge 68, Type (0, 1), BuildingBlock: XIVTED_clean_linker_0, # of connection points: 2
#     Edge 69, Type (0, 1), BuildingBlock: XIVTED_clean_linker_0, # of connection points: 2
#     Edge 70, Type (0, 1), BuildingBlock: XIVTED_clean_linker_0, # of connection points: 2
#     Edge 71, Type (0, 1), BuildingBlock: XIVTED_clean_linker_0, # of connection points: 2
#     Edge 72, Type (0, 1), BuildingBlock: XIVTED_clean_linker_0, # of connection points: 2
#     Edge 73, Type (0, 1), BuildingBlock: XIVTED_clean_linker_0, # of connection points: 2
#     Edge 74, Type (0, 1), BuildingBlock: XIVTED_clean_linker_0, # of connection points: 2
#     Edge 75, Type (0, 1), BuildingBlock: XIVTED_clean_linker_0, # of connection points: 2
#     Edge 76, Type (0, 1), BuildingBlock: XIVTED_clean_linker_0, # of connection points: 2
#     Edge 77, Type (0, 1), BuildingBlock: XIVTED_clean_linker_0, # of connection points: 2
#     Edge 78, Type (0, 1), BuildingBlock: XIVTED_clean_linker_0, # of connection points: 2
#     Edge 79, Type (0, 1), BuildingBlock: XIVTED_clean_linker_0, # of connection points: 2
#     Edge 80, Type (0, 1), BuildingBlock: XIVTED_clean_linker_0, # of connection points: 2
#     Edge 81, Type (0, 1), BuildingBlock: XIVTED_clean_linker_0, # of connection points: 2
#     Edge 82, Type (0, 1), BuildingBlock: XIVTED_clean_linker_0, # of connection points: 2
#     Edge 83, Type (0, 1), BuildingBlock: XIVTED_clean_linker_0, # of connection points: 2
#     Edge 84, Type (0, 1), BuildingBlock: XIVTED_clean_linker_0, # of connection points: 2
#     Edge 85, Type (0, 1), BuildingBlock: XIVTED_clean_linker_0, # of connection points: 2
#     Edge 86, Type (0, 1), BuildingBlock: XIVTED_clean_linker_0, # of connection points: 2
#     Edge 87, Type (0, 1), BuildingBlock: XIVTED_clean_linker_0, # of connection points: 2
#     Edge 88, Type (0, 1), BuildingBlock: XIVTED_clean_linker_0, # of connection points: 2
#     Edge 89, Type (0, 1), BuildingBlock: XIVTED_clean_linker_0, # of connection points: 2
#     Edge 90, Type (0, 1), BuildingBlock: XIVTED_clean_linker_0, # of connection points: 2
#     Edge 91, Type (0, 1), BuildingBlock: XIVTED_clean_linker_0, # of connection points: 2
#     Edge 92, Type (0, 1), BuildingBlock: XIVTED_clean_linker_0, # of connection points: 2
#     Edge 93, Type (0, 1), BuildingBlock: XIVTED_clean_linker_0, # of connection points: 2
#     Edge 94, Type (0, 1), BuildingBlock: XIVTED_clean_linker_0, # of connection points: 2
#     Edge 95, Type (0, 1), BuildingBlock: XIVTED_clean_linker_0, # of connection points: 2
#     Edge 96, Type (0, 1), BuildingBlock: XIVTED_clean_linker_0, # of connection points: 2
#     Edge 97, Type (0, 1), BuildingBlock: XIVTED_clean_linker_0, # of connection points: 2
#     Edge 98, Type (0, 1), BuildingBlock: XIVTED_clean_linker_0, # of connection points: 2
#     Edge 99, Type (0, 1), BuildingBlock: XIVTED_clean_linker_0, # of connection points: 2
#     Edge 100, Type (0, 1), BuildingBlock: XIVTED_clean_linker_0, # of connection points: 2
#     Edge 101, Type (0, 1), BuildingBlock: XIVTED_clean_linker_0, # of connection points: 2
#     Edge 102, Type (0, 1), BuildingBlock: XIVTED_clean_linker_0, # of connection points: 2
#     Edge 103, Type (0, 1), BuildingBlock: XIVTED_clean_linker_0, # of connection points: 2
#     Edge 104, Type (0, 1), BuildingBlock: XIVTED_clean_linker_0, # of connection points: 2
#     Edge 105, Type (0, 1), BuildingBlock: XIVTED_clean_linker_0, # of connection points: 2
#     Edge 106, Type (0, 1), BuildingBlock: XIVTED_clean_linker_0, # of connection points: 2
#     Edge 107, Type (0, 1), BuildingBlock: XIVTED_clean_linker_0, # of connection points: 2
# Relax obj value: 0.016
# Max RMSD: 0.133
# Mean RMSD: 0.074
data_MOF--net-fgl--node1-ESEHIV_clean_sbu_0--node2-QUQFOY_clean_sbu_3--edge1-XIVTED_clean_linker_0
_symmetry_space_group_name_H-M    P1
_symmetry_Int_Tables_number       1
_symmetry_cell_setting            triclinic
loop_
_symmetry_equiv_pos_as_xyz
'x, y, z'
_cell_length_a     77.325013
_cell_length_b     77.099689
_cell_length_c     52.586456
_cell_angle_alpha  89.014895
_cell_angle_beta   90.867098
_cell_angle_gamma 119.95288
loop_
_atom_site_label
_atom_site_type_symbol
_atom_site_fract_x
_atom_site_fract_y
_atom_site_fract_z
_atom_type_partial_charge
Cu0 Cu 0.01136 0.54304 0.99956 0.0
N1 N -0.00283 0.54316 0.02804 0.0
N2 N 0.9904 0.55487 0.06303 0.0
C3 C 0.00259 0.5592 0.04286 0.0
C4 C 0.97663 0.53527 0.06052 0.0
C5 C 0.98085 0.5281 0.03895 0.0
O6 O 0.02123 0.56948 0.98389 0.0
C7 C 0.03639 0.53529 0.03307 0.0
O8 O 0.03061 0.54298 0.05086 0.0
H9 H 0.01575 0.57357 0.03933 0.0
H10 H 0.97281 0.51294 0.03197 0.0
N11 N 0.99523 0.52292 0.97658 0.0
N12 N 0.98766 0.50082 0.94526 0.0
C13 C 0.00206 0.51405 0.96095 0.0
C14 C 0.97574 0.51499 0.97083 0.0
C15 C 0.97102 0.50132 0.95154 0.0
C16 C 0.0171 0.57211 0.96108 0.0
O17 O 0.00921 0.55686 0.94555 0.0
H18 H 0.01743 0.51747 0.96106 0.0
H19 H 0.96581 0.51915 0.97963 0.0
O20 O 0.03162 0.53622 0.01 0.0
H21 H 0.96439 0.5266 0.07336 0.0
H22 H 0.95658 0.49289 0.94241 0.0
Cu23 Cu 0.51525 0.55522 0.02492 0.0
N24 N 0.51543 0.56193 0.98893 0.0
N25 N 0.52565 0.57222 0.94922 0.0
C26 C 0.53101 0.56949 0.97291 0.0
C27 C 0.50597 0.56605 0.9506 0.0
C28 C 0.49972 0.5597 0.97512 0.0
O29 O 0.53552 0.58481 0.03208 0.0
C30 C 0.496 0.51388 0.00427 0.0
O31 O 0.5134 0.51969 0.99382 0.0
H32 H 0.54594 0.57315 0.97864 0.0
H33 H 0.48477 0.55378 0.98237 0.0
N34 N 0.51469 0.54817 0.06089 0.0
N35 N 0.5026 0.53739 0.09989 0.0
C36 C 0.50069 0.54559 0.07781 0.0
C37 C 0.52574 0.54126 0.07239 0.0
C38 C 0.51845 0.53479 0.09654 0.0
C39 C 0.55278 0.59144 0.04212 0.0
O40 O 0.55892 0.57888 0.0486 0.0
H41 H 0.48888 0.54885 0.07352 0.0
H42 H 0.53751 0.53996 0.06336 0.0
O43 O 0.49375 0.52612 0.01791 0.0
H44 H 0.49662 0.56584 0.93494 0.0
H45 H 0.52362 0.52752 0.10992 0.0
Cu46 Cu 0.49648 0.00866 0.03135 0.0
N47 N 0.48324 0.99414 0.00254 0.0
N48 N 0.46459 0.98736 0.96726 0.0
C49 C 0.46782 0.99459 0.99111 0.0
C50 C 0.47816 0.98144 0.96395 0.0
C51 C 0.48968 0.98569 0.98576 0.0
O52 O 0.47934 0.0152 0.05031 0.0
C53 C 0.5257 0.04018 0.99997 0.0
O54 O 0.51149 0.03449 0.98272 0.0
H55 H 0.46004 0.00138 0.99956 0.0
H56 H 0.50289 0.98438 0.98834 0.0
N57 N 0.50264 0.9936 0.05355 0.0
N58 N 0.51897 0.9896 0.08631 0.0
C59 C 0.52012 0.00107 0.06608 0.0
C60 C 0.48995 0.97668 0.06608 0.0
C61 C 0.50003 0.97417 0.08643 0.0
C62 C 0.47247 0.02646 0.0434 0.0
O63 O 0.47779 0.03607 0.02149 0.0
H64 H 0.53279 0.01571 0.06206 0.0
H65 H 0.47413 0.96783 0.06208 0.0
O66 O 0.52164 0.03191 0.02189 0.0
H67 H 0.48082 0.97615 0.94631 0.0
H68 H 0.49363 0.96265 0.10102 0.0
Cu69 Cu 0.51084 0.05443 0.51881 0.0
N70 N 0.53028 0.07325 0.4972 0.0
N71 N 0.55071 0.0842 0.4638 0.0
C72 C 0.53737 0.06811 0.47726 0.0
C73 C 0.55232 0.10021 0.47603 0.0
C74 C 0.53959 0.09338 0.49666 0.0
O75 O 0.51716 0.03267 0.52094 0.0
C76 C 0.4809 0.05204 0.48342 0.0
O77 O 0.4944 0.05635 0.46588 0.0
H78 H 0.53265 0.05274 0.47268 0.0
H79 H 0.53709 0.10239 0.51004 0.0
N80 N 0.51251 0.06478 0.55104 0.0
N81 N 0.50179 0.06786 0.58902 0.0
C82 C 0.49666 0.05878 0.56624 0.0
C83 C 0.52836 0.07827 0.56447 0.0
C84 C 0.52177 0.08025 0.58796 0.0
C85 C 0.52009 0.02578 0.54181 0.0
O86 O 0.51461 0.03002 0.56325 0.0
H87 H 0.48162 0.04787 0.56057 0.0
H88 H 0.54359 0.08585 0.55781 0.0
O89 O 0.48438 0.04843 0.5061 0.0
H90 H 0.56161 0.11567 0.47016 0.0
H91 H 0.53104 0.0897 0.60323 0.0
Cu92 Cu 0.02572 0.54944 0.507 0.0
N93 N 0.04152 0.54275 0.52733 0.0
N94 N 0.04807 0.52842 0.56062 0.0
C95 C 0.03435 0.53159 0.54858 0.0
C96 C 0.06463 0.53798 0.54615 0.0
C97 C 0.06054 0.54686 0.52558 0.0
O98 O 0.00143 0.52398 0.50195 0.0
C99 C 0.0377 0.5839 0.53342 0.0
O100 O 0.05492 0.58492 0.52939 0.0
H101 H 0.01912 0.52564 0.55474 0.0
H102 H 0.0707 0.5557 0.51059 0.0
N103 N 0.03699 0.56159 0.47587 0.0
N104 N 0.03999 0.57889 0.43997 0.0
C105 C 0.03157 0.57344 0.46318 0.0
C106 C 0.04941 0.55944 0.4603 0.0
C107 C 0.05128 0.5701 0.43806 0.0
C108 C 0.99535 0.51586 0.48033 0.0
O109 O 0.00286 0.52666 0.45961 0.0
H110 H 0.02076 0.57706 0.47045 0.0
H111 H 0.05604 0.55022 0.4644 0.0
O112 O 0.0218 0.56871 0.52546 0.0
H113 H 0.07873 0.5387 0.55019 0.0
H114 H 0.05998 0.57099 0.42165 0.0
Cu115 Cu 0.5011 0.57118 0.52088 0.0
N116 N 0.51504 0.59628 0.50544 0.0
N117 N 0.54168 0.62328 0.48963 0.0
C118 C 0.53489 0.60848 0.50725 0.0
C119 C 0.52543 0.62037 0.47626 0.0
C120 C 0.50896 0.60367 0.48613 0.0
O121 O 0.51515 0.57204 0.55217 0.0
C122 C 0.49024 0.53344 0.49721 0.0
O123 O 0.48345 0.52479 0.51942 0.0
H124 H 0.5444 0.60555 0.51975 0.0
H125 H 0.49389 0.59659 0.47862 0.0
N126 N 0.47535 0.56531 0.52933 0.0
N127 N 0.44248 0.54677 0.53586 0.0
C128 C 0.45831 0.54863 0.52301 0.0
C129 C 0.47013 0.57458 0.54649 0.0
C130 C 0.44984 0.56315 0.55061 0.0
C131 C 0.53136 0.57163 0.55412 0.0
O132 O 0.53884 0.56809 0.53389 0.0
H133 H 0.45775 0.53734 0.51061 0.0
H134 H 0.48053 0.58806 0.55641 0.0
O135 O 0.49928 0.55243 0.49539 0.0
H136 H 0.52557 0.62907 0.45981 0.0
H137 H 0.44139 0.56623 0.56422 0.0
Cu138 Cu 0.7167 0.90485 0.33744 0.0
N139 N 0.72768 0.93065 0.32385 0.0
N140 N 0.73043 0.96041 0.31644 0.0
C141 C 0.71985 0.94245 0.32786 0.0
C142 C 0.74544 0.95999 0.30435 0.0
C143 C 0.74388 0.94159 0.30929 0.0
O144 O 0.70145 0.90502 0.36737 0.0
C145 C 0.71524 0.88592 0.29294 0.0
O146 O 0.7343 0.89872 0.29625 0.0
H147 H 0.70634 0.9378 0.33854 0.0
H148 H 0.75388 0.93666 0.30274 0.0
N149 N 0.73695 0.90033 0.3492 0.0
N150 N 0.75182 0.88304 0.36077 0.0
C151 C 0.73465 0.88208 0.35321 0.0
C152 C 0.75629 0.91338 0.35427 0.0
C153 C 0.7655 0.9027 0.36171 0.0
C154 C 0.71249 0.91839 0.38352 0.0
O155 O 0.73177 0.9286 0.37927 0.0
H156 H 0.72057 0.86834 0.35078 0.0
H157 H 0.7632 0.92948 0.35256 0.0
O158 O 0.70308 0.88552 0.30953 0.0
H159 H 0.75666 0.97207 0.2929 0.0
H160 H 0.78103 0.90885 0.36705 0.0
Cu161 Cu 0.17024 0.89067 0.37393 0.0
N162 N 0.14627 0.87649 0.35578 0.0
N163 N 0.12169 0.85022 0.33567 0.0
C164 C 0.13713 0.85659 0.35218 0.0
C165 C 0.12098 0.86676 0.32861 0.0
C166 C 0.13615 0.88297 0.34113 0.0
O167 O 0.16852 0.87182 0.40055 0.0
C168 C 0.19187 0.9121 0.33298 0.0
O169 O 0.17917 0.91847 0.33617 0.0
H170 H 0.14232 0.84709 0.36066 0.0
H171 H 0.13985 0.89842 0.33904 0.0
N172 N 0.1732 0.914 0.38863 0.0
N173 N 0.18899 0.9452 0.40355 0.0
C174 C 0.19077 0.92947 0.39637 0.0
C175 C 0.15979 0.92015 0.39101 0.0
C176 C 0.16955 0.9395 0.40008 0.0
C177 C 0.17173 0.87594 0.42413 0.0
O178 O 0.18075 0.89472 0.43118 0.0
H179 H 0.20476 0.92948 0.39566 0.0
H180 H 0.1442 0.91146 0.38571 0.0
O181 O 0.19146 0.89908 0.3487 0.0
H182 H 0.11038 0.86713 0.31525 0.0
H183 H 0.16296 0.94877 0.40346 0.0
Cu184 Cu 0.1683 0.36263 0.34333 0.0
N185 N 0.16314 0.35286 0.31037 0.0
N186 N 0.15157 0.3483 0.27057 0.0
C187 C 0.14911 0.35246 0.29458 0.0
C188 C 0.16769 0.34591 0.27123 0.0
C189 C 0.17474 0.3486 0.29594 0.0
O190 O 0.14976 0.37176 0.35128 0.0
C191 C 0.2065 0.39452 0.32806 0.0
O192 O 0.19731 0.3953 0.30722 0.0
H193 H 0.13828 0.35665 0.30016 0.0
H194 H 0.18812 0.34876 0.30261 0.0
N195 N 0.16452 0.34254 0.3664 0.0
N196 N 0.17277 0.32844 0.39815 0.0
C197 C 0.17943 0.34152 0.37845 0.0
C198 C 0.14774 0.3295 0.37867 0.0
C199 C 0.15281 0.3208 0.39841 0.0
C200 C 0.14788 0.3764 0.37374 0.0
O201 O 0.1603 0.37707 0.39156 0.0
H202 H 0.19504 0.35149 0.37426 0.0
H203 H 0.13311 0.32757 0.37471 0.0
O204 O 0.19632 0.38291 0.34617 0.0
H205 H 0.17436 0.34327 0.25486 0.0
H206 H 0.14278 0.31046 0.41258 0.0
Cu207 Cu 0.16709 0.34541 0.84357 0.0
N208 N 0.16865 0.3308 0.81671 0.0
N209 N 0.18029 0.32638 0.78017 0.0
C210 C 0.17913 0.33958 0.79557 0.0
C211 C 0.1699 0.30846 0.79214 0.0
C212 C 0.16283 0.31126 0.8148 0.0
O213 O 0.19261 0.35562 0.86166 0.0
C214 C 0.14478 0.35656 0.8147 0.0
O215 O 0.13694 0.33748 0.80951 0.0
H216 H 0.18617 0.35552 0.79201 0.0
H217 H 0.1548 0.30004 0.82929 0.0
N218 N 0.14641 0.33047 0.86618 0.0
N219 N 0.12576 0.32736 0.89746 0.0
C220 C 0.14383 0.33887 0.88685 0.0
C221 C 0.12948 0.3128 0.86355 0.0
C222 C 0.11673 0.31076 0.88301 0.0
C223 C 0.19401 0.34256 0.87542 0.0
O224 O 0.17829 0.32461 0.87757 0.0
H225 H 0.15472 0.35375 0.893 0.0
H226 H 0.12605 0.30285 0.84767 0.0
O227 O 0.15999 0.36471 0.82946 0.0
H228 H 0.16831 0.29449 0.78564 0.0
H229 H 0.10151 0.29868 0.88519 0.0
Cu230 Cu 0.66879 0.87689 0.82825 0.0
N231 N 0.65333 0.85133 0.81435 0.0
N232 N 0.64595 0.82068 0.80211 0.0
C233 C 0.6584 0.83698 0.81578 0.0
C234 C 0.63244 0.82498 0.79167 0.0
C235 C 0.63703 0.84391 0.79925 0.0
O236 O 0.68114 0.87323 0.85936 0.0
C237 C 0.68463 0.89131 0.77832 0.0
O238 O 0.67703 0.87239 0.77242 0.0
H239 H 0.67155 0.83891 0.82582 0.0
H240 H 0.62946 0.85193 0.7934 0.0
N241 N 0.65398 0.88835 0.83944 0.0
N242 N 0.6495 0.9123 0.85634 0.0
C243 C 0.66261 0.90611 0.85125 0.0
C244 C 0.6346 0.88286 0.83694 0.0
C245 C 0.63178 0.89759 0.84737 0.0
C246 C 0.66799 0.86268 0.87599 0.0
O247 O 0.64912 0.85577 0.87002 0.0
H248 H 0.67838 0.91431 0.85571 0.0
H249 H 0.6234 0.86934 0.82785 0.0
O250 O 0.68548 0.896 0.80169 0.0
H251 H 0.62025 0.81529 0.77922 0.0
H252 H 0.6178 0.8976 0.84761 0.0
Cu253 Cu 0.18532 0.88273 0.86548 0.0
N254 N 0.18676 0.86596 0.8413 0.0
N255 N 0.17888 0.84677 0.80688 0.0
C256 C 0.17192 0.85302 0.82596 0.0
C257 C 0.19881 0.85589 0.8105 0.0
C258 C 0.20361 0.86762 0.83185 0.0
O259 O 0.15767 0.87239 0.87473 0.0
C260 C 0.20267 0.91434 0.82872 0.0
O261 O 0.19369 0.90018 0.81179 0.0
H262 H 0.15656 0.84949 0.82748 0.0
H263 H 0.21847 0.87777 0.83892 0.0
N264 N 0.19908 0.8829 0.89498 0.0
N265 N 0.21589 0.89317 0.93179 0.0
C266 C 0.20727 0.89769 0.91217 0.0
C267 C 0.20255 0.86848 0.90391 0.0
C268 C 0.21293 0.87476 0.92658 0.0
C269 C 0.14418 0.87117 0.85953 0.0
O270 O 0.14922 0.87922 0.83669 0.0
H271 H 0.20699 0.91154 0.91013 0.0
H272 H 0.19772 0.85434 0.89467 0.0
O273 O 0.19901 0.91003 0.85224 0.0
H274 H 0.20922 0.85489 0.79792 0.0
H275 H 0.21756 0.86621 0.93849 0.0
Cu276 Cu 0.388 0.24068 0.7045 0.0
N277 N 0.39936 0.2646 0.68585 0.0
N278 N 0.40008 0.29082 0.6662 0.0
C279 C 0.39103 0.27625 0.68386 0.0
C280 C 0.41474 0.2883 0.6566 0.0
C281 C 0.41435 0.27213 0.6689 0.0
O282 O 0.37399 0.24447 0.73318 0.0
C283 C 0.38467 0.21603 0.66504 0.0
O284 O 0.40401 0.22683 0.66876 0.0
H285 H 0.37766 0.2732 0.69389 0.0
H286 H 0.42366 0.26577 0.66477 0.0
N287 N 0.40722 0.23591 0.71965 0.0
N288 N 0.41874 0.2182 0.74018 0.0
C289 C 0.40252 0.21956 0.7339 0.0
C290 C 0.42721 0.24547 0.71707 0.0
C291 C 0.43436 0.23438 0.72957 0.0
C292 C 0.38595 0.25936 0.74687 0.0
O293 O 0.40484 0.26933 0.74032 0.0
H294 H 0.38733 0.20825 0.73828 0.0
H295 H 0.43584 0.25901 0.70602 0.0
O296 O 0.37324 0.21903 0.67949 0.0
H297 H 0.42449 0.29702 0.64117 0.0
H298 H 0.4497 0.23765 0.73025 0.0
Cu299 Cu 0.83987 0.19985 0.66869 0.0
N300 N 0.86049 0.20344 0.6474 0.0
N301 N 0.8806 0.2159 0.61378 0.0
C302 C 0.86449 0.21416 0.6257 0.0
C303 C 0.88707 0.20582 0.62874 0.0
C304 C 0.87458 0.1981 0.64952 0.0
O305 O 0.8466 0.22749 0.67557 0.0
C306 C 0.81342 0.16635 0.64234 0.0
O307 O 0.82893 0.16381 0.64506 0.0
H308 H 0.85602 0.22115 0.61932 0.0
H309 H 0.87583 0.18945 0.6651 0.0
N310 N 0.83843 0.18639 0.69911 0.0
N311 N 0.82395 0.16944 0.7348 0.0
C312 C 0.82126 0.17595 0.71192 0.0
C313 C 0.85265 0.18649 0.71427 0.0
C314 C 0.84373 0.17602 0.73639 0.0
C315 C 0.85134 0.23523 0.69766 0.0
O316 O 0.84668 0.22342 0.71771 0.0
H317 H 0.80723 0.17422 0.70506 0.0
H318 H 0.86843 0.19432 0.71008 0.0
O319 O 0.81465 0.18236 0.65091 0.0
H320 H 0.8999 0.20418 0.62503 0.0
H321 H 0.8513 0.17387 0.75257 0.0
Cu322 Cu 0.84565 0.68686 0.67792 0.0
N323 N 0.83596 0.68443 0.64462 0.0
N324 N 0.8186 0.68227 0.60943 0.0
C325 C 0.82379 0.69002 0.63306 0.0
C326 C 0.82795 0.67172 0.60603 0.0
C327 C 0.83852 0.67302 0.62768 0.0
O328 O 0.82366 0.66832 0.69968 0.0
C329 C 0.88172 0.69692 0.65898 0.0
O330 O 0.87672 0.70897 0.6472 0.0
H331 H 0.81813 0.69869 0.64209 0.0
H332 H 0.84701 0.66554 0.63127 0.0
N333 N 0.85464 0.71166 0.69315 0.0
N334 N 0.87256 0.73069 0.72595 0.0
C335 C 0.87241 0.72056 0.70525 0.0
C336 C 0.8432 0.71698 0.70623 0.0
C337 C 0.8542 0.72868 0.72651 0.0
C338 C 0.8066 0.65566 0.69071 0.0
O339 O 0.80521 0.65007 0.66698 0.0
H340 H 0.88374 0.71657 0.70195 0.0
H341 H 0.82721 0.71022 0.70378 0.0
O342 O 0.86959 0.68435 0.67524 0.0
H343 H 0.82701 0.66345 0.58914 0.0
H344 H 0.84838 0.73322 0.74206 0.0
Cu345 Cu 0.82568 0.69535 0.15304 0.0
N346 N 0.82807 0.68301 0.12396 0.0
N347 N 0.84297 0.67931 0.08989 0.0
C348 C 0.84511 0.69027 0.11072 0.0
C349 C 0.8237 0.66445 0.09024 0.0
C350 C 0.81457 0.66676 0.11125 0.0
O351 O 0.84952 0.70191 0.17319 0.0
C352 C 0.81052 0.71527 0.12448 0.0
O353 O 0.80281 0.69833 0.11214 0.0
H354 H 0.8588 0.70344 0.11644 0.0
H355 H 0.79906 0.65759 0.11639 0.0
N356 N 0.8033 0.67925 0.17292 0.0
N357 N 0.78182 0.67257 0.20467 0.0
C358 C 0.79805 0.68674 0.19231 0.0
C359 C 0.78995 0.65952 0.17285 0.0
C360 C 0.77668 0.65534 0.1925 0.0
C361 C 0.8494 0.68706 0.1844 0.0
O362 O 0.83324 0.66939 0.18293 0.0
H363 H 0.80646 0.70233 0.19759 0.0
H364 H 0.79005 0.64885 0.15989 0.0
O365 O 0.8224 0.71811 0.14306 0.0
H366 H 0.81646 0.65299 0.07601 0.0
H367 H 0.76428 0.64076 0.19741 0.0
Cu368 Cu 0.3641 0.22589 0.20113 0.0
N369 N 0.37567 0.21179 0.18735 0.0
N370 N 0.37756 0.18506 0.17543 0.0
C371 C 0.36951 0.19232 0.19175 0.0
C372 C 0.38964 0.20071 0.16035 0.0
C373 C 0.38858 0.21725 0.16792 0.0
O374 O 0.35271 0.2141 0.23443 0.0
C375 C 0.34467 0.22282 0.15285 0.0
O376 O 0.34943 0.20917 0.14746 0.0
H377 H 0.35832 0.1832 0.20551 0.0
H378 H 0.3956 0.23182 0.15874 0.0
N379 N 0.38332 0.25213 0.20845 0.0
N380 N 0.3944 0.28397 0.21891 0.0
C381 C 0.37893 0.26688 0.20997 0.0
C382 C 0.40231 0.26004 0.21667 0.0
C383 C 0.40921 0.27977 0.22317 0.0
C384 C 0.33929 0.19618 0.23957 0.0
O385 O 0.32904 0.18405 0.22099 0.0
H386 H 0.36419 0.26466 0.206 0.0
H387 H 0.41025 0.25186 0.21876 0.0
O388 O 0.34702 0.22921 0.17562 0.0
H389 H 0.39798 0.20005 0.14441 0.0
H390 H 0.42379 0.29003 0.23097 0.0
Cu391 Cu 0.84057 0.23858 0.16503 0.0
N392 N 0.8257 0.23741 0.13614 0.0
N393 N 0.80704 0.22353 0.1014 0.0
C394 C 0.81588 0.22075 0.12216 0.0
C395 C 0.81148 0.24284 0.10248 0.0
C396 C 0.82298 0.25137 0.124 0.0
O397 O 0.82353 0.21465 0.18457 0.0
C398 C 0.87346 0.24729 0.13374 0.0
O399 O 0.86232 0.24824 0.11531 0.0
H400 H 0.81591 0.20704 0.12679 0.0
H401 H 0.82925 0.2667 0.13002 0.0
N402 N 0.8479 0.26035 0.18625 0.0
N403 N 0.86356 0.27962 0.2198 0.0
C404 C 0.86148 0.26462 0.20486 0.0
C405 C 0.84111 0.27321 0.18912 0.0
C406 C 0.85081 0.28518 0.20984 0.0
C407 C 0.80811 0.21415 0.19367 0.0
O408 O 0.80563 0.22966 0.18994 0.0
H409 H 0.86943 0.2565 0.20744 0.0
H410 H 0.8295 0.27342 0.17763 0.0
O411 O 0.86588 0.24098 0.15563 0.0
H412 H 0.80686 0.25034 0.08869 0.0
H413 H 0.84808 0.29654 0.21743 0.0
C414 C -0.00201 0.64739 0.30994 0.0
O415 O 0.98602 0.6529 0.31765 0.0
Cd416 Cd 0.97794 0.67472 0.2942 0.0
O417 O 0.00476 0.65159 0.28731 0.0
Cd418 Cd 0.00023 0.66786 0.24761 0.0
C419 C 0.02626 0.71162 0.27893 0.0
O420 O 0.96618 0.66186 0.25284 0.0
O421 O 0.98455 0.68484 0.22566 0.0
O422 O 0.9907 0.6365 0.22642 0.0
C423 C 0.96765 0.67457 0.23606 0.0
O424 O 0.01025 0.70506 0.29162 0.0
C425 C 0.0025 0.64384 0.20775 0.0
O426 O 0.02773 0.70124 0.26126 0.0
O427 O 0.01408 0.66275 0.20763 0.0
C428 C 0.40366 0.46546 0.23712 0.0
O429 O 0.38571 0.45563 0.22932 0.0
Cd430 Cd 0.35863 0.43082 0.25343 0.0
O431 O 0.40828 0.46305 0.25984 0.0
Cd432 Cd 0.39018 0.44285 0.29874 0.0
C433 C 0.37805 0.4001 0.26682 0.0
O434 O 0.36123 0.44724 0.29261 0.0
O435 O 0.35779 0.42612 0.32198 0.0
O436 O 0.41419 0.47171 0.3238 0.0
C437 C 0.35068 0.43574 0.31038 0.0
O438 O 0.36505 0.40277 0.25502 0.0
C439 C 0.41711 0.46148 0.34075 0.0
O440 O 0.38965 0.41274 0.28311 0.0
O441 O 0.40772 0.44262 0.33802 0.0
C442 C 0.62438 0.03902 0.22082 0.0
O443 O 0.63738 0.03377 0.21779 0.0
Cd444 Cd 0.66216 0.03571 0.24657 0.0
O445 O 0.62379 0.04755 0.2412 0.0
Cd446 Cd 0.64379 0.05952 0.28185 0.0
C447 C 0.68899 0.08707 0.25195 0.0
O448 O 0.64569 0.02983 0.2856 0.0
O449 O 0.66201 0.05088 0.31484 0.0
O450 O 0.61351 0.05222 0.30449 0.0
C451 C 0.65715 0.03427 0.30466 0.0
O452 O 0.68781 0.07064 0.24561 0.0
C453 C 0.62108 0.06887 0.31586 0.0
O454 O 0.67468 0.08735 0.26343 0.0
O455 O 0.63913 0.08154 0.3108 0.0
C456 C 0.04485 0.39339 0.74975 0.0
O457 O 0.04151 0.39156 0.72593 0.0
Cd458 Cd 0.0215 0.40107 0.70119 0.0
O459 O 0.03586 0.39979 0.76377 0.0
Cd460 Cd 0.00993 0.41043 0.7548 0.0
C461 C 0.97476 0.36834 0.72268 0.0
O462 O 0.02959 0.43226 0.71968 0.0
O463 O 0.00175 0.4313 0.7253 0.0
O464 O 0.02266 0.43267 0.7921 0.0
C465 C 0.01813 0.43889 0.71348 0.0
O466 O 0.98667 0.37475 0.70396 0.0
C467 C 0.00565 0.42729 0.80149 0.0
O468 O 0.97996 0.37744 0.74391 0.0
O469 O 0.99071 0.41365 0.78974 0.0
C470 C 0.68778 0.65622 0.76429 0.0
O471 O 0.6874 0.65966 0.78775 0.0
Cd472 Cd 0.65968 0.65887 0.80896 0.0
O473 O 0.67296 0.65269 0.74984 0.0
Cd474 Cd 0.63934 0.65016 0.75467 0.0
C475 C 0.65478 0.69636 0.78004 0.0
O476 O 0.62995 0.62983 0.79434 0.0
O477 O 0.6098 0.63965 0.78084 0.0
O478 O 0.62666 0.62483 0.7207 0.0
C479 C 0.61357 0.62962 0.797 0.0
O480 O 0.65874 0.68955 0.80016 0.0
C481 C 0.61821 0.63271 0.70799 0.0
O482 O 0.64904 0.68589 0.75988 0.0
O483 O 0.62008 0.64886 0.71655 0.0
C484 C 0.39631 0.08644 0.80325 0.0
O485 O 0.39302 0.08153 0.8266 0.0
Cd486 Cd 0.38477 0.04902 0.84232 0.0
O487 O 0.39563 0.07407 0.78691 0.0
Cd488 Cd 0.39052 0.03977 0.78251 0.0
C489 C 0.34301 0.01982 0.80457 0.0
O490 O 0.40756 0.04181 0.82171 0.0
O491 O 0.39475 0.01308 0.8037 0.0
O492 O 0.41882 0.05814 0.75492 0.0
C493 C 0.40465 0.02413 0.82216 0.0
O494 O 0.35132 0.02741 0.82578 0.0
C495 C 0.41253 0.04587 0.7367 0.0
O496 O 0.35347 0.0223 0.78481 0.0
O497 O 0.39539 0.03038 0.73933 0.0
C498 C 0.66483 0.97162 0.64062 0.0
O499 O 0.65588 0.98061 0.64818 0.0
Cd500 Cd 0.64472 0.9994 0.62269 0.0
O501 O 0.66884 0.97198 0.61701 0.0
Cd502 Cd 0.66427 0.98857 0.57684 0.0
C503 C 0.69012 0.03643 0.60222 0.0
O504 O 0.62965 0.98128 0.5845 0.0
O505 O 0.6446 0.00109 0.55302 0.0
O506 O 0.65905 0.96029 0.54896 0.0
C507 C 0.62875 0.99145 0.56582 0.0
O508 O 0.67453 0.03169 0.61507 0.0
C509 C 0.67349 0.97097 0.53418 0.0
O510 O 0.69095 0.02347 0.58818 0.0
O511 O 0.68368 0.98946 0.53944 0.0
C512 C 0.07814 0.77888 0.55327 0.0
O513 O 0.05989 0.76944 0.54656 0.0
Cd514 Cd 0.03202 0.74653 0.5723 0.0
O515 O 0.08331 0.77691 0.57584 0.0
Cd516 Cd 0.06624 0.75721 0.61547 0.0
C517 C 0.04741 0.71255 0.58528 0.0
O518 O 0.03581 0.75977 0.61388 0.0
O519 O 0.03625 0.73908 0.64155 0.0
O520 O 0.09032 0.78624 0.6402 0.0
C521 C 0.02689 0.74706 0.63156 0.0
O522 O 0.03464 0.71646 0.57522 0.0
C523 C 0.09458 0.77622 0.65594 0.0
O524 O 0.06165 0.72538 0.59908 0.0
O525 O 0.0861 0.75746 0.6525 0.0
C526 C 0.27578 0.3483 0.52707 0.0
O527 O 0.29131 0.34791 0.52045 0.0
Cd528 Cd 0.32089 0.35983 0.54578 0.0
O529 O 0.27484 0.3547 0.54894 0.0
Cd530 Cd 0.29571 0.3674 0.58836 0.0
C531 C 0.33142 0.40823 0.55679 0.0
O532 O 0.31027 0.3457 0.58711 0.0
O533 O 0.32236 0.36877 0.61551 0.0
O534 O 0.26556 0.34617 0.61273 0.0
C535 C 0.32221 0.35383 0.6056 0.0
O536 O 0.33544 0.39602 0.54597 0.0
C537 C 0.2671 0.35992 0.62713 0.0
O538 O 0.31717 0.40203 0.57266 0.0
O539 O 0.28173 0.3774 0.62309 0.0
C540 C 0.72336 0.77065 0.07335 0.0
O541 O 0.71922 0.76947 0.04974 0.0
Cd542 Cd 0.69425 0.77437 0.02942 0.0
O543 O 0.71373 0.77503 0.08915 0.0
Cd544 Cd 0.68597 0.78365 0.08642 0.0
C545 C 0.65316 0.73753 0.06071 0.0
O546 O 0.6992 0.80438 0.04783 0.0
O547 O 0.67032 0.79899 0.05845 0.0
O548 O 0.7043 0.80761 0.12042 0.0
C549 C 0.68501 0.8077 0.04345 0.0
O550 O 0.66242 0.74471 0.03991 0.0
C551 C 0.68951 0.80354 0.13448 0.0
O552 O 0.65915 0.74765 0.0812 0.0
O553 O 0.67261 0.78981 0.12659 0.0
C554 C 0.35181 0.0006 0.14134 0.0
O555 O 0.35117 0.99871 0.16539 0.0
Cd556 Cd 0.32371 0.99635 0.18917 0.0
O557 O 0.33684 0.99903 0.12893 0.0
Cd558 Cd 0.30211 0.9915 0.13517 0.0
C559 C 0.3235 0.03747 0.16171 0.0
O560 O 0.29285 0.9697 0.17336 0.0
O561 O 0.27398 0.98205 0.1633 0.0
O562 O 0.29332 0.96621 0.10291 0.0
C563 C 0.27725 0.97065 0.17781 0.0
O564 O 0.32643 0.02885 0.18083 0.0
C565 C 0.28361 0.9717 0.08844 0.0
O566 O 0.31562 0.02785 0.14127 0.0
O567 O 0.28242 0.98678 0.09552 0.0
C568 C 0.05813 0.42414 0.09497 0.0
O569 O 0.05762 0.42118 0.11884 0.0
Cd570 Cd 0.05793 0.39329 0.13919 0.0
O571 O 0.05883 0.4117 0.07989 0.0
Cd572 Cd 0.05986 0.37975 0.08641 0.0
C573 C 0.01577 0.35351 0.11593 0.0
O574 O 0.0843 0.3895 0.12157 0.0
O575 O 0.06597 0.35788 0.11514 0.0
O576 O 0.0824 0.38709 0.05039 0.0
C577 C 0.08095 0.37192 0.12622 0.0
O578 O 0.02508 0.36303 0.13577 0.0
C579 C 0.07172 0.37033 0.0397 0.0
O580 O 0.02435 0.35814 0.09443 0.0
O581 O 0.05524 0.35838 0.05017 0.0
C582 C 0.33843 0.30992 0.01153 0.0
O583 O 0.33105 0.32087 0.01689 0.0
Cd584 Cd 0.32696 0.34343 0.98938 0.0
O585 O 0.345 0.31047 0.98909 0.0
Cd586 Cd 0.34774 0.33032 0.94783 0.0
C587 C 0.3759 0.37695 0.97512 0.0
O588 O 0.31414 0.32607 0.95044 0.0
O589 O 0.33269 0.347 0.92177 0.0
O590 O 0.34055 0.30155 0.91979 0.0
C591 C 0.31563 0.33743 0.93193 0.0
O592 O 0.35969 0.37329 0.98566 0.0
C593 C 0.35585 0.31116 0.90592 0.0
O594 O 0.37644 0.36366 0.96146 0.0
O595 O 0.36767 0.32921 0.91211 0.0
C596 C 0.71564 0.10965 0.86501 0.0
O597 O 0.69754 0.10257 0.85822 0.0
Cd598 Cd 0.66969 0.08446 0.88664 0.0
O599 O 0.72 0.1086 0.88822 0.0
Cd600 Cd 0.7026 0.09652 0.9295 0.0
C601 C 0.68074 0.04871 0.90842 0.0
O602 O 0.67365 0.10193 0.92523 0.0
O603 O 0.6735 0.0829 0.95607 0.0
O604 O 0.72584 0.12974 0.94498 0.0
C605 C 0.66525 0.09169 0.94511 0.0
O606 O 0.66917 0.05338 0.89648 0.0
C607 C 0.73167 0.1242 0.96457 0.0
O608 O 0.69583 0.06185 0.9209 0.0
O609 O 0.72468 0.10544 0.96754 0.0
C610 C 0.95533 0.71064 0.85456 0.0
O611 O 0.96581 0.70392 0.84512 0.0
Cd612 Cd 0.9901 0.69976 0.86899 0.0
O613 O 0.95603 0.71384 0.87838 0.0
Cd614 Cd 0.97288 0.71022 0.91767 0.0
C615 C 0.01572 0.74783 0.89273 0.0
O616 O 0.9754 0.68067 0.90689 0.0
O617 O 0.99303 0.69767 0.93906 0.0
O618 O 0.94016 0.69276 0.93756 0.0
C619 C 0.98703 0.68238 0.92521 0.0
O620 O 0.01437 0.73454 0.87751 0.0
C621 C 0.94455 0.70432 0.95641 0.0
O622 O 0.00255 0.7436 0.90973 0.0
O623 O 0.96232 0.71902 0.95738 0.0
C624 C 0.38096 0.09589 0.43972 0.0
O625 O 0.37646 0.09518 0.41625 0.0
Cd626 Cd 0.35579 0.10608 0.39501 0.0
O627 O 0.37413 0.10327 0.45577 0.0
Cd628 Cd 0.35125 0.11855 0.45409 0.0
C629 C 0.3122 0.07633 0.42749 0.0
O630 O 0.36448 0.13689 0.41398 0.0
O631 O 0.33976 0.13884 0.42825 0.0
O632 O 0.37108 0.14082 0.48929 0.0
C633 C 0.35243 0.14335 0.41075 0.0
O634 O 0.32165 0.08182 0.40657 0.0
C635 C 0.35638 0.13784 0.50294 0.0
O636 O 0.31998 0.08573 0.4481 0.0
O637 O 0.33915 0.12572 0.49416 0.0
C638 C 0.01811 0.35811 0.43481 0.0
O639 O 0.01644 0.35821 0.45881 0.0
Cd640 Cd 0.98634 0.34569 0.48265 0.0
O641 O 0.00272 0.35171 0.42036 0.0
Cd642 Cd 0.96607 0.33886 0.42757 0.0
C643 C 0.97182 0.37856 0.463 0.0
O644 O 0.96376 0.31548 0.4611 0.0
O645 O 0.9367 0.31617 0.45398 0.0
O646 O 0.95616 0.31991 0.38747 0.0
C647 C 0.94547 0.30833 0.46594 0.0
O648 O 0.97716 0.37173 0.48187 0.0
C649 C 0.94633 0.32797 0.37892 0.0
O650 O 0.96844 0.3702 0.44142 0.0
O651 O 0.94603 0.34112 0.39275 0.0
C652 C 0.74217 0.7581 0.42762 0.0
O653 O 0.74358 0.75756 0.45169 0.0
Cd654 Cd 0.736 0.72859 0.47638 0.0
O655 O 0.73683 0.74249 0.41432 0.0
Cd656 Cd 0.72827 0.70681 0.41915 0.0
C657 C 0.68761 0.69728 0.45406 0.0
O658 O 0.75235 0.71554 0.45248 0.0
O659 O 0.73488 0.6839 0.44654 0.0
O660 O 0.74697 0.71407 0.37985 0.0
C661 C 0.74862 0.69821 0.45898 0.0
O662 O 0.69983 0.7074 0.47172 0.0
C663 C 0.7357 0.69733 0.36945 0.0
O664 O 0.69382 0.69535 0.43252 0.0
O665 O 0.72059 0.68475 0.38208 0.0
H666 H 0.04242 0.51005 0.00272 0.0
H667 H 0.06018 0.45498 0.1222 0.0
H668 H 0.04804 0.52958 0.08037 0.0
H669 H 0.05531 0.4345 0.04514 0.0
H670 H 0.05834 0.48384 0.10634 0.0
H671 H 0.05019 0.48424 0.01687 0.0
C672 C 0.04563 0.50917 0.02267 0.0
C673 C 0.04444 0.52197 0.04041 0.0
C674 C 0.05776 0.47312 0.09282 0.0
C675 C 0.05307 0.49224 0.05675 0.0
C676 C 0.05876 0.45654 0.10188 0.0
C677 C 0.05776 0.44212 0.08502 0.0
C678 C 0.05562 0.47541 0.06661 0.0
C679 C 0.05607 0.44516 0.05887 0.0
C680 C 0.04995 0.49433 0.03075 0.0
C681 C 0.04866 0.52002 0.06601 0.0
N682 N 0.05493 0.4614 0.05048 0.0
N683 N 0.05261 0.50536 0.0734 0.0
H684 H 0.55161 0.62278 0.01818 0.0
H685 H 0.64059 0.7092 0.09919 0.0
H686 H 0.58407 0.60992 0.07576 0.0
H687 H 0.6271 0.71816 0.02187 0.0
H688 H 0.6149 0.67358 0.09615 0.0
H689 H 0.5744 0.65871 0.02447 0.0
C690 C 0.56342 0.62749 0.03227 0.0
C691 C 0.56599 0.61328 0.04634 0.0
C692 C 0.61748 0.68344 0.07997 0.0
C693 C 0.59194 0.6544 0.0539 0.0
C694 C 0.632 0.70377 0.08176 0.0
C695 C 0.63604 0.71667 0.06073 0.0
C696 C 0.60663 0.67608 0.05719 0.0
C697 C 0.62456 0.70875 0.03851 0.0
C698 C 0.57645 0.64799 0.03579 0.0
C699 C 0.58163 0.62032 0.06432 0.0
N700 N 0.61039 0.68904 0.03734 0.0
N701 N 0.59395 0.64036 0.06766 0.0
H702 H 0.44481 0.03716 0.0286 0.0
H703 H 0.38554 0.00161 0.16029 0.0
H704 H 0.46347 0.01478 0.09291 0.0
H705 H 0.36038 0.01103 0.09112 0.0
H706 H 0.41614 0.01044 0.13733 0.0
H707 H 0.41591 0.03229 0.05302 0.0
C708 C 0.443 0.03152 0.04796 0.0
C709 C 0.45649 0.02625 0.0587 0.0
C710 C 0.40392 0.01057 0.12718 0.0
C711 C 0.42349 0.02052 0.08659 0.0
C712 C 0.38643 0.0055 0.14028 0.0
C713 C 0.3703 0.00544 0.1276 0.0
C714 C 0.40539 0.01577 0.10125 0.0
C715 C 0.37236 0.01072 0.10165 0.0
C716 C 0.42644 0.0286 0.06181 0.0
C717 C 0.45336 0.01889 0.08381 0.0
N718 N 0.38958 0.01568 0.08934 0.0
N719 N 0.43717 0.01618 0.09685 0.0
H720 H 0.46617 0.05441 0.43673 0.0
H721 H 0.39392 0.09267 0.48829 0.0
H722 H 0.45662 0.05719 0.51681 0.0
H723 H 0.39885 0.08104 0.40949 0.0
H724 H 0.41652 0.07985 0.49984 0.0
H725 H 0.44096 0.06377 0.42704 0.0
C726 C 0.4586 0.05676 0.45232 0.0
C727 C 0.46358 0.05497 0.47763 0.0
C728 C 0.41254 0.08006 0.48005 0.0
C729 C 0.43471 0.06615 0.46663 0.0
C730 C 0.39968 0.08743 0.47343 0.0
C731 C 0.39443 0.08805 0.44783 0.0
C732 C 0.4203 0.07335 0.46094 0.0
C733 C 0.40239 0.08097 0.42947 0.0
C734 C 0.44419 0.06219 0.44678 0.0
C735 C 0.45321 0.05827 0.497 0.0
N736 N 0.41488 0.07405 0.43636 0.0
N737 N 0.43942 0.06388 0.49112 0.0
H738 H 0.98421 0.48841 0.51942 0.0
H739 H 0.96437 0.39956 0.42599 0.0
H740 H 0.98247 0.49281 0.43754 0.0
H741 H 0.97564 0.39923 0.50664 0.0
H742 H 0.96447 0.43108 0.43072 0.0
H743 H 0.97389 0.45302 0.51575 0.0
C744 C 0.98124 0.48187 0.50067 0.0
C745 C 0.98455 0.49373 0.47871 0.0
C746 C 0.96675 0.42401 0.44741 0.0
C747 C 0.97298 0.45322 0.47443 0.0
C748 C 0.9667 0.406 0.44474 0.0
C749 C 0.97026 0.39682 0.4659 0.0
C750 C 0.97032 0.43292 0.47142 0.0
C751 C 0.97306 0.40585 0.48973 0.0
C752 C 0.97547 0.46166 0.4986 0.0
C753 C 0.98036 0.48433 0.45498 0.0
N754 N 0.97316 0.42345 0.4918 0.0
N755 N 0.97505 0.4647 0.45345 0.0
H756 H 0.55812 0.63634 0.44295 0.0
H757 H 0.66936 0.69459 0.49921 0.0
H758 H 0.57241 0.64039 0.52296 0.0
H759 H 0.65633 0.67838 0.42015 0.0
H760 H 0.63373 0.67868 0.50741 0.0
H761 H 0.59388 0.65597 0.43349 0.0
C762 C 0.56877 0.64166 0.45852 0.0
C763 C 0.56235 0.63671 0.48379 0.0
C764 C 0.63864 0.67861 0.48825 0.0
C765 C 0.60315 0.65893 0.47314 0.0
C766 C 0.65902 0.68772 0.48352 0.0
C767 C 0.66591 0.68775 0.45895 0.0
C768 C 0.62492 0.66952 0.46828 0.0
C769 C 0.65171 0.67861 0.43942 0.0
C770 C 0.58916 0.65268 0.45312 0.0
C771 C 0.57678 0.64373 0.50324 0.0
N772 N 0.63187 0.66985 0.44451 0.0
N773 N 0.59648 0.65443 0.49752 0.0
H774 H 0.00673 0.5816 0.91509 0.0
H775 H 0.00927 0.68047 0.96516 0.0
H776 H 0.02681 0.60505 0.99045 0.0
H777 H 0.98024 0.65065 0.89553 0.0
H778 H 0.01961 0.65551 0.97266 0.0
H779 H 0.0014 0.60964 0.90534 0.0
C780 C 0.01031 0.59279 0.92951 0.0
C781 C 0.01711 0.59081 0.95372 0.0
C782 C 0.01104 0.65447 0.9557 0.0
C783 C 0.0108 0.62299 0.94268 0.0
C784 C 0.00512 0.66872 0.9514 0.0
C785 C 0.99376 0.6676 0.92974 0.0
C786 C 0.00568 0.63903 0.93815 0.0
C787 C 0.98887 0.65205 0.91255 0.0
C788 C 0.00714 0.60877 0.92394 0.0
C789 C 0.02151 0.60589 0.97154 0.0
N790 N 0.99483 0.63839 0.91714 0.0
N791 N 0.01814 0.62124 0.96573 0.0
H792 H 0.49474 0.48381 0.9752 0.0
H793 H 0.37909 0.40764 0.00378 0.0
H794 H 0.45801 0.49699 0.02306 0.0
H795 H 0.41416 0.39215 0.95601 0.0
H796 H 0.40822 0.44031 0.01074 0.0
H797 H 0.46603 0.45035 0.9678 0.0
C798 C 0.48068 0.47971 0.9842 0.0
C799 C 0.47887 0.49335 0.9998 0.0
C800 C 0.40965 0.42984 0.99872 0.0
C801 C 0.44587 0.45497 0.99133 0.0
C802 C 0.39293 0.41106 0.99469 0.0
C803 C 0.39403 0.39694 0.97922 0.0
C804 C 0.42786 0.43484 0.98725 0.0
C805 C 0.41254 0.40247 0.96807 0.0
C806 C 0.46428 0.46057 0.97993 0.0
C807 C 0.46021 0.48709 0.01088 0.0
N808 N 0.4287 0.42097 0.97229 0.0
N809 N 0.44453 0.46846 0.00642 0.0
H810 H 0.54095 0.05711 0.95325 0.0
H811 H 0.64966 0.07942 0.99225 0.0
H812 H 0.55882 0.05267 0.03017 0.0
H813 H 0.63696 0.0969 0.9191 0.0
H814 H 0.61665 0.07125 0.00668 0.0
H815 H 0.57604 0.07369 0.94054 0.0
C816 C 0.55225 0.05991 0.96756 0.0
C817 C 0.54687 0.05323 0.99277 0.0
C818 C 0.62108 0.07706 0.98754 0.0
C819 C 0.58698 0.07198 0.97827 0.0
C820 C 0.63993 0.08168 0.97926 0.0
C821 C 0.64598 0.0887 0.95438 0.0
C822 C 0.60794 0.07915 0.97071 0.0
C823 C 0.63283 0.0915 0.93844 0.0
C824 C 0.57228 0.06935 0.96026 0.0
C825 C 0.56218 0.05734 0.01048 0.0
N826 N 0.61427 0.08644 0.94676 0.0
N827 N 0.58146 0.06619 0.00282 0.0
H828 H 0.54445 0.0254 0.50435 0.0
H829 H 0.59534 0.97832 0.59528 0.0
H830 H 0.52617 0.00596 0.58164 0.0
H831 H 0.62156 0.00993 0.52522 0.0
H832 H 0.5671 0.98389 0.58791 0.0
H833 H 0.56961 0.01503 0.50884 0.0
C834 C 0.54544 0.01861 0.52211 0.0
C835 C 0.53314 0.01662 0.54267 0.0
C836 C 0.57898 0.98953 0.57407 0.0
C837 C 0.56213 0.00486 0.54802 0.0
C838 C 0.59511 0.98631 0.57825 0.0
C839 C 0.61095 0.99375 0.56092 0.0
C840 C 0.57851 0.00013 0.55228 0.0
C841 C 0.60977 0.00401 0.53918 0.0
C842 C 0.55995 0.01285 0.52473 0.0
C843 C 0.53533 0.00787 0.56529 0.0
N844 N 0.59389 0.00691 0.53551 0.0
N845 N 0.54955 0.00241 0.56737 0.0
H846 H 0.00679 0.59181 0.53475 0.0
H847 H 0.0738 0.69959 0.59779 0.0
H848 H 0.06818 0.6153 0.5581 0.0
H849 H 0.01638 0.68025 0.56226 0.0
H850 H 0.07033 0.66701 0.58842 0.0
H851 H 0.00828 0.62234 0.55019 0.0
C852 C 0.02049 0.60327 0.54338 0.0
C853 C 0.03743 0.6011 0.54495 0.0
C854 C 0.05847 0.6699 0.58277 0.0
C855 C 0.03929 0.63602 0.56251 0.0
C856 C 0.06045 0.6885 0.58812 0.0
C857 C 0.04545 0.69275 0.58061 0.0
C858 C 0.04134 0.65543 0.56996 0.0
C859 C 0.02843 0.67774 0.56821 0.0
C860 C 0.02137 0.62073 0.55207 0.0
C861 C 0.05481 0.61643 0.55627 0.0
N862 N 0.02687 0.65979 0.56323 0.0
N863 N 0.05532 0.63327 0.56451 0.0
H864 H 0.41664 0.53313 0.5757 0.0
H865 H 0.35397 0.42544 0.51474 0.0
H866 H 0.42377 0.51965 0.49859 0.0
H867 H 0.33819 0.44025 0.58627 0.0
H868 H 0.37801 0.46066 0.50761 0.0
H869 H 0.38628 0.50043 0.57906 0.0
C870 C 0.41165 0.5235 0.5593 0.0
C871 C 0.423 0.52906 0.53693 0.0
C872 C 0.36918 0.45633 0.52477 0.0
C873 C 0.38842 0.49147 0.54082 0.0
C874 C 0.35546 0.43616 0.52889 0.0
C875 C 0.34419 0.42987 0.55126 0.0
C876 C 0.37199 0.47039 0.54333 0.0
C877 C 0.34661 0.44447 0.56878 0.0
C878 C 0.39435 0.50476 0.56129 0.0
C879 C 0.4158 0.51583 0.51639 0.0
N880 N 0.36048 0.46406 0.56462 0.0
N881 N 0.39915 0.4976 0.51893 0.0
H882 H 0.77576 0.88132 0.39761 0.0
H883 H 0.73351 0.76413 0.37861 0.0
H884 H 0.73363 0.84669 0.33884 0.0
H885 H 0.76123 0.79549 0.44803 0.0
H886 H 0.73932 0.79573 0.35941 0.0
H887 H 0.77671 0.85132 0.41168 0.0
C888 C 0.76697 0.86747 0.38746 0.0
C889 C 0.75439 0.86632 0.36732 0.0
C890 C 0.74423 0.79566 0.37879 0.0
C891 C 0.75529 0.8321 0.38323 0.0
C892 C 0.74095 0.77767 0.38974 0.0
C893 C 0.74665 0.77714 0.41506 0.0
C894 C 0.75344 0.81324 0.3932 0.0
C895 C 0.75633 0.79515 0.42856 0.0
C896 C 0.7674 0.85036 0.39556 0.0
C897 C 0.74321 0.84803 0.3548 0.0
N898 N 0.75935 0.81245 0.41749 0.0
N899 N 0.74382 0.83158 0.36305 0.0
H900 H 0.22058 0.95304 0.43381 0.0
H901 H 0.28383 0.0654 0.3906 0.0
H902 H 0.1941 0.98143 0.38957 0.0
H903 H 0.29505 0.04634 0.4635 0.0
H904 H 0.25201 0.034 0.38775 0.0
H905 H 0.24931 0.98617 0.44312 0.0
C906 C 0.2208 0.96629 0.42624 0.0
C907 C 0.20503 0.96457 0.41089 0.0
C908 C 0.2613 0.03678 0.40452 0.0
C909 C 0.23782 0.00233 0.42108 0.0
C910 C 0.27946 0.05465 0.40613 0.0
C911 C 0.29204 0.05843 0.42732 0.0
C912 C 0.25591 0.0223 0.42389 0.0
C913 C 0.28569 0.04401 0.44693 0.0
C914 C 0.23709 0.98514 0.43166 0.0
C915 C 0.20591 0.98216 0.40161 0.0
N916 N 0.26819 0.02638 0.44454 0.0
N917 N 0.2222 0.00031 0.4065 0.0
H918 H 0.11587 0.36957 0.34342 0.0
H919 H 0.05401 0.37623 0.45973 0.0
H920 H 0.13919 0.38629 0.41968 0.0
H921 H 0.028 0.35468 0.38562 0.0
H922 H 0.0864 0.38395 0.44351 0.0
H923 H 0.08494 0.36807 0.35668 0.0
C924 C 0.11462 0.37319 0.36287 0.0
C925 C 0.13014 0.37792 0.38052 0.0
C926 C 0.07367 0.37765 0.43069 0.0
C927 C 0.09468 0.3761 0.39583 0.0
C928 C 0.0551 0.37321 0.43995 0.0
C929 C 0.03812 0.36457 0.42409 0.0
C930 C 0.07544 0.37337 0.40535 0.0
C931 C 0.04062 0.36124 0.39857 0.0
C932 C 0.0969 0.37225 0.37043 0.0
C933 C 0.12761 0.38245 0.40545 0.0
N934 N 0.0589 0.36548 0.39004 0.0
N935 N 0.1102 0.3813 0.41236 0.0
H936 H 0.1362 0.38286 0.83909 0.0
H937 H 0.06253 0.37555 0.72546 0.0
H938 H 0.12868 0.35277 0.76803 0.0
H939 H 0.06264 0.40131 0.79777 0.0
H940 H 0.08901 0.36995 0.74066 0.0
H941 H 0.11233 0.39333 0.82394 0.0
C942 C 0.12998 0.37898 0.82007 0.0
C943 C 0.13446 0.36704 0.80468 0.0
C944 C 0.08332 0.37681 0.75337 0.0
C945 C 0.10702 0.37848 0.78754 0.0
C946 C 0.06806 0.38 0.74468 0.0
C947 C 0.06019 0.3889 0.76033 0.0
C948 C 0.09104 0.38249 0.77807 0.0
C949 C 0.06814 0.39428 0.78508 0.0
C950 C 0.11618 0.3847 0.81158 0.0
C951 C 0.12566 0.36199 0.78047 0.0
N952 N 0.08316 0.391 0.79321 0.0
N953 N 0.11238 0.36764 0.77276 0.0
H954 H 0.66353 0.80581 0.83391 0.0
H955 H 0.64109 0.71347 0.74444 0.0
H956 H 0.63226 0.79497 0.7621 0.0
H957 H 0.66943 0.72376 0.81831 0.0
H958 H 0.63934 0.74418 0.74901 0.0
H959 H 0.66713 0.77659 0.82719 0.0
C960 C 0.65749 0.79737 0.81664 0.0
C961 C 0.64761 0.80299 0.79854 0.0
C962 C 0.64603 0.73974 0.76414 0.0
C963 C 0.65157 0.76918 0.79074 0.0
C964 C 0.64714 0.72226 0.76148 0.0
C965 C 0.65537 0.71592 0.78105 0.0
C966 C 0.65325 0.75101 0.78648 0.0
C967 C 0.66288 0.72793 0.80274 0.0
C968 C 0.65948 0.78057 0.81285 0.0
C969 C 0.6398 0.79114 0.77672 0.0
N970 N 0.66158 0.74478 0.80488 0.0
N971 N 0.64197 0.77484 0.77342 0.0
H972 H 0.22346 0.94793 0.85752 0.0
H973 H 0.31874 0.99364 0.76746 0.0
H974 H 0.22271 0.92436 0.7834 0.0
H975 H 0.31681 0.01782 0.84013 0.0
H976 H 0.28254 0.97079 0.76994 0.0
H977 H 0.25629 0.9765 0.84837 0.0
C978 C 0.23004 0.94894 0.83913 0.0
C979 C 0.22039 0.93358 0.82135 0.0
C980 C 0.29005 0.98129 0.78517 0.0
C981 C 0.25829 0.96612 0.81088 0.0
C982 C 0.31071 0.99434 0.78374 0.0
C983 C 0.32092 0.00746 0.80379 0.0
C984 C 0.27959 0.98142 0.80677 0.0
C985 C 0.3097 0.00775 0.82439 0.0
C986 C 0.24886 0.96524 0.83391 0.0
C987 C 0.22963 0.93578 0.79775 0.0
N988 N 0.28976 0.99484 0.82543 0.0
N989 N 0.24821 0.95156 0.79336 0.0
H990 H 0.72777 0.97986 0.2749 0.0
H991 H 0.68294 0.03925 0.34417 0.0
H992 H 0.71995 0.97466 0.35613 0.0
H993 H 0.65857 0.00677 0.27444 0.0
H994 H 0.70463 0.02433 0.34788 0.0
H995 H 0.71159 0.00039 0.273 0.0
C996 C 0.72316 0.98359 0.29235 0.0
C997 C 0.72499 0.97562 0.31566 0.0
C998 C 0.69452 0.02065 0.3318 0.0
C999 C 0.70668 0.99879 0.31372 0.0
C1000 C 0.68212 0.02901 0.32974 0.0
C1001 C 0.669 0.0243 0.30893 0.0
C1002 C 0.69407 0.00805 0.31256 0.0
C1003 C 0.66851 0.01095 0.29072 0.0
C1004 C 0.71382 0.99505 0.29127 0.0
C1005 C 0.7186 0.98055 0.33783 0.0
N1006 N 0.68103 0.00348 0.29281 0.0
N1007 N 0.70959 0.9918 0.33636 0.0
H1008 H 0.10979 0.81608 0.36276 0.0
H1009 H 0.05291 0.74199 0.24747 0.0
H1010 H 0.10536 0.83828 0.28856 0.0
H1011 H 0.03749 0.72638 0.32628 0.0
H1012 H 0.07782 0.77627 0.26049 0.0
H1013 H 0.08869 0.78182 0.34784 0.0
C1014 C 0.10445 0.81371 0.34327 0.0
C1015 C 0.10921 0.83002 0.32692 0.0
C1016 C 0.06906 0.76521 0.27485 0.0
C1017 C 0.0852 0.79085 0.30962 0.0
C1018 C 0.05503 0.74569 0.26747 0.0
C1019 C 0.04315 0.73143 0.28585 0.0
C1020 C 0.0714 0.77022 0.30077 0.0
C1021 C 0.04629 0.73698 0.31151 0.0
C1022 C 0.09238 0.79418 0.33479 0.0
C1023 C 0.10179 0.8261 0.30185 0.0
N1024 N 0.06011 0.75588 0.3182 0.0
N1025 N 0.09018 0.80688 0.2939 0.0
H1026 H 0.23 0.39021 0.36435 0.0
H1027 H 0.33044 0.45091 0.28385 0.0
H1028 H 0.23337 0.42002 0.2928 0.0
H1029 H 0.32429 0.41211 0.34738 0.0
H1030 H 0.29616 0.44345 0.29022 0.0
H1031 H 0.26574 0.4021 0.36194 0.0
C1032 C 0.23828 0.3995 0.3483 0.0
C1033 C 0.22858 0.40402 0.32865 0.0
C1034 C 0.30231 0.43662 0.30285 0.0
C1035 C 0.26957 0.41756 0.32573 0.0
C1036 C 0.32191 0.4409 0.29924 0.0
C1037 C 0.33023 0.43202 0.31501 0.0
C1038 C 0.29089 0.42343 0.32245 0.0
C1039 C 0.31846 0.4192 0.33469 0.0
C1040 C 0.25869 0.40619 0.34688 0.0
C1041 C 0.24015 0.41608 0.30833 0.0
N1042 N 0.29937 0.41525 0.33781 0.0
N1043 N 0.25999 0.42233 0.30733 0.0
H1044 H 0.19867 0.32432 0.9172 0.0
H1045 H 0.31419 0.36169 0.89371 0.0
H1046 H 0.23265 0.36792 0.85916 0.0
H1047 H 0.27864 0.32045 0.95311 0.0
H1048 H 0.28566 0.36597 0.88175 0.0
H1049 H 0.22893 0.32505 0.93217 0.0
C1050 C 0.21262 0.33429 0.9078 0.0
C1051 C 0.21311 0.34603 0.88685 0.0
C1052 C 0.28418 0.35607 0.89747 0.0
C1053 C 0.24803 0.34666 0.90363 0.0
C1054 C 0.30044 0.35358 0.90427 0.0
C1055 C 0.2988 0.3406 0.92438 0.0
C1056 C 0.26617 0.3455 0.91087 0.0
C1057 C 0.28062 0.33053 0.93742 0.0
C1058 C 0.22994 0.33466 0.91631 0.0
C1059 C 0.23164 0.35872 0.87548 0.0
N1060 N 0.26509 0.33315 0.9304 0.0
N1061 N 0.24836 0.35852 0.88381 0.0
H1062 H 0.62298 0.92284 0.87404 0.0
H1063 H 0.70702 0.0343 0.91148 0.0
H1064 H 0.68617 0.94537 0.86485 0.0
H1065 H 0.64475 0.01551 0.90024 0.0
H1066 H 0.69947 3e-05 0.90204 0.0
H1067 H 0.63066 0.95519 0.89079 0.0
C1068 C 0.63845 0.93445 0.87546 0.0
C1069 C 0.65385 0.93113 0.86761 0.0
C1070 C 0.68747 0.00343 0.9019 0.0
C1071 C 0.66278 0.9684 0.88732 0.0
C1072 C 0.69175 0.02292 0.90746 0.0
C1073 C 0.67653 0.0278 0.90641 0.0
C1074 C 0.6678 0.98874 0.89562 0.0
C1075 C 0.657 0.01248 0.90096 0.0
C1076 C 0.64283 0.95297 0.88519 0.0
C1077 C 0.67367 0.94691 0.8706 0.0
N1078 N 0.65323 0.99373 0.89571 0.0
N1079 N 0.67752 0.96481 0.88009 0.0
H1080 H 0.11211 0.85496 0.82699 0.0
H1081 H 0.03551 0.77697 0.92885 0.0
H1082 H 0.12801 0.85498 0.90603 0.0
H1083 H 0.03393 0.7657 0.84854 0.0
H1084 H 0.06517 0.81022 0.92187 0.0
H1085 H 0.07867 0.82718 0.83608 0.0
C1086 C 0.10847 0.84943 0.84636 0.0
C1087 C 0.12298 0.85715 0.86571 0.0
C1088 C 0.05813 0.80047 0.90582 0.0
C1089 C 0.08474 0.82528 0.87619 0.0
C1090 C 0.04125 0.78159 0.90977 0.0
C1091 C 0.03246 0.76852 0.88929 0.0
C1092 C 0.06587 0.80636 0.88115 0.0
C1093 C 0.04043 0.7752 0.86493 0.0
C1094 C 0.08941 0.83348 0.8515 0.0
C1095 C 0.11734 0.84932 0.89048 0.0
N1096 N 0.05665 0.79361 0.86155 0.0
N1097 N 0.0987 0.83369 0.89499 0.0
H1098 H 0.39642 0.19725 0.7803 0.0
H1099 H 0.41377 0.10574 0.75872 0.0
H1100 H 0.43988 0.20037 0.72735 0.0
H1101 H 0.39048 0.11363 0.829 0.0
H1102 H 0.42177 0.13946 0.74531 0.0
H1103 H 0.39259 0.16579 0.79743 0.0
C1104 C 0.40531 0.19136 0.77254 0.0
C1105 C 0.41847 0.2013 0.75246 0.0
C1106 C 0.41503 0.13383 0.76373 0.0
C1107 C 0.41395 0.16528 0.77149 0.0
C1108 C 0.41033 0.11455 0.77132 0.0
C1109 C 0.40136 0.10683 0.79498 0.0
C1110 C 0.41043 0.14534 0.77971 0.0
C1111 C 0.39738 0.11898 0.81062 0.0
C1112 C 0.40317 0.17348 0.7823 0.0
C1113 C 0.42972 0.19318 0.743 0.0
N1114 N 0.40177 0.13757 0.8026 0.0
N1115 N 0.427 0.17545 0.75237 0.0
H1116 H 0.87249 0.26305 0.66031 0.0
H1117 H 0.94634 0.34659 0.75907 0.0
H1118 H 0.86468 0.25676 0.74168 0.0
H1119 H 0.95753 0.34829 0.67864 0.0
H1120 H 0.91423 0.3158 0.75277 0.0
H1121 H 0.90106 0.29665 0.66632 0.0
C1122 C 0.8765 0.26885 0.67942 0.0
C1123 C 0.86616 0.25692 0.70052 0.0
C1124 C 0.9237 0.32299 0.7365 0.0
C1125 C 0.89919 0.29542 0.70759 0.0
C1126 C 0.94205 0.34059 0.74009 0.0
C1127 C 0.95482 0.35005 0.71941 0.0
C1128 C 0.91796 0.31481 0.71204 0.0
C1129 C 0.94834 0.34152 0.69524 0.0
C1130 C 0.89296 0.28801 0.68286 0.0
C1131 C 0.87223 0.26531 0.72483 0.0
N1132 N 0.93047 0.32444 0.69226 0.0
N1133 N 0.8884 0.28392 0.72771 0.0
H1134 H 0.76787 0.63441 0.67381 0.0
H1135 H 0.72352 0.66731 0.78815 0.0
H1136 H 0.80334 0.66909 0.73763 0.0
H1137 H 0.69198 0.64324 0.71751 0.0
H1138 H 0.75172 0.66494 0.77203 0.0
H1139 H 0.73868 0.63363 0.69219 0.0
C1140 C 0.76949 0.64158 0.69192 0.0
C1141 C 0.78821 0.65191 0.7041 0.0
C1142 C 0.73864 0.66019 0.76004 0.0
C1143 C 0.75471 0.65125 0.72514 0.0
C1144 C 0.7225 0.66155 0.76921 0.0
C1145 C 0.70529 0.65552 0.75415 0.0
C1146 C 0.73762 0.65258 0.73565 0.0
C1147 C 0.70493 0.64817 0.72977 0.0
C1148 C 0.7528 0.64126 0.7023 0.0
C1149 C 0.78927 0.66094 0.72751 0.0
N1150 N 0.72081 0.64686 0.72133 0.0
N1151 N 0.77281 0.6605 0.73717 0.0
H1152 H 0.80122 0.73711 0.1569 0.0
H1153 H 0.74907 0.76563 0.04372 0.0
H1154 H 0.80192 0.72398 0.07771 0.0
H1155 H 0.73451 0.76642 0.12249 0.0
H1156 H 0.77376 0.75662 0.05686 0.0
H1157 H 0.78223 0.75408 0.14551 0.0
C1158 C 0.79788 0.73831 0.13709 0.0
C1159 C 0.80315 0.7292 0.11816 0.0
C1160 C 0.76526 0.75882 0.07137 0.0
C1161 C 0.7814 0.74825 0.10511 0.0
C1162 C 0.75107 0.76397 0.06387 0.0
C1163 C 0.7394 0.76654 0.08199 0.0
C1164 C 0.76796 0.75607 0.09727 0.0
C1165 C 0.74304 0.76443 0.10784 0.0
C1166 C 0.78687 0.74777 0.13064 0.0
C1167 C 0.79813 0.7308 0.09286 0.0
N1168 N 0.7569 0.75915 0.11473 0.0
N1169 N 0.78752 0.74003 0.08712 0.0
H1170 H 0.37426 0.16521 0.13167 0.0
H1171 H 0.33342 0.06003 0.20446 0.0
H1172 H 0.36677 0.15725 0.21289 0.0
H1173 H 0.33007 0.06458 0.1228 0.0
H1174 H 0.3475 0.09604 0.20735 0.0
H1175 H 0.3607 0.12898 0.1275 0.0
C1176 C 0.37004 0.15589 0.14863 0.0
C1177 C 0.37162 0.16424 0.17268 0.0
C1178 C 0.34364 0.08922 0.18877 0.0
C1179 C 0.3559 0.12286 0.16804 0.0
C1180 C 0.33555 0.06859 0.18708 0.0
C1181 C 0.33053 0.05919 0.16333 0.0
C1182 C 0.34695 0.10076 0.16654 0.0
C1183 C 0.33362 0.07116 0.14152 0.0
C1184 C 0.36211 0.1352 0.14622 0.0
C1185 C 0.36564 0.15142 0.19399 0.0
N1186 N 0.34175 0.09137 0.14363 0.0
N1187 N 0.35806 0.13144 0.19117 0.0
H1188 H 0.90213 0.25904 0.17116 0.0
H1189 H 0.9904 0.33142 0.07741 0.0
H1190 H 0.89481 0.26152 0.08986 0.0
H1191 H 0.99434 0.3361 0.15925 0.0
H1192 H 0.95679 0.30263 0.08136 0.0
H1193 H 0.93763 0.28335 0.16668 0.0
C1194 C 0.90804 0.26434 0.1523 0.0
C1195 C 0.89541 0.25837 0.13086 0.0
C1196 C 0.96503 0.30994 0.09845 0.0
C1197 C 0.93598 0.28645 0.12568 0.0
C1198 C 0.98421 0.32643 0.09622 0.0
C1199 C 0.99519 0.33633 0.11802 0.0
C1200 C 0.95675 0.30319 0.12267 0.0
C1201 C 0.98639 0.32907 0.1419 0.0
C1202 C 0.9283 0.27838 0.14979 0.0
C1203 C 0.90394 0.26584 0.10693 0.0
N1204 N 0.96769 0.31296 0.14357 0.0
N1205 N 0.92365 0.27962 0.10501 0.0
H1206 H 0.39764 0.30061 0.61713 0.0
H1207 H 0.34283 0.3619 0.65059 0.0
H1208 H 0.38559 0.3097 0.69402 0.0
H1209 H 0.33299 0.33011 0.58026 0.0
H1210 H 0.36493 0.34935 0.66499 0.0
H1211 H 0.38069 0.31849 0.60145 0.0
C1212 C 0.39179 0.30676 0.63068 0.0
C1213 C 0.39288 0.30368 0.65686 0.0
C1214 C 0.35798 0.34522 0.64637 0.0
C1215 C 0.37352 0.32393 0.6392 0.0
C1216 C 0.34542 0.35237 0.63813 0.0
C1217 C 0.33596 0.34686 0.61429 0.0
C1218 C 0.36134 0.33279 0.63046 0.0
C1219 C 0.33983 0.33453 0.59888 0.0
C1220 C 0.38198 0.31676 0.62176 0.0
C1221 C 0.38486 0.31168 0.67368 0.0
N1222 N 0.35227 0.32792 0.60722 0.0
N1223 N 0.37546 0.32142 0.66458 0.0
H1224 H 0.81002 0.13738 0.61068 0.0
H1225 H 0.69219 0.06826 0.62752 0.0
H1226 H 0.77427 0.15681 0.65009 0.0
H1227 H 0.72802 0.0518 0.58279 0.0
H1228 H 0.72139 0.10131 0.63394 0.0
H1229 H 0.77976 0.10706 0.59799 0.0
C1230 C 0.79573 0.13538 0.61643 0.0
C1231 C 0.79472 0.14967 0.63159 0.0
C1232 C 0.72285 0.09054 0.62257 0.0
C1233 C 0.75977 0.11457 0.61734 0.0
C1234 C 0.70616 0.07159 0.61889 0.0
C1235 C 0.70759 0.05704 0.60468 0.0
C1236 C 0.74126 0.0951 0.61211 0.0
C1237 C 0.72614 0.06241 0.59392 0.0
C1238 C 0.77842 0.11798 0.60918 0.0
C1239 C 0.77576 0.14625 0.63832 0.0
N1240 N 0.74222 0.08091 0.59801 0.0
N1241 N 0.75903 0.12893 0.63141 0.0
H1242 H 0.90276 0.71105 0.61583 0.0
H1243 H 0.00458 0.72155 0.67008 0.0
H1244 H 0.9067 0.69049 0.69134 0.0
H1245 H 0.00028 0.75414 0.60506 0.0
H1246 H 0.96856 0.70676 0.67677 0.0
H1247 H 0.93787 0.72238 0.60948 0.0
C1248 C 0.91101 0.70869 0.63102 0.0
C1249 C 0.90183 0.69994 0.65423 0.0
C1250 C 0.97555 0.71719 0.66112 0.0
C1251 C 0.94238 0.71325 0.64719 0.0
C1252 C -0.00391 0.72567 0.6573 0.0
C1253 C 0.00547 0.73913 0.63698 0.0
C1254 C 0.96428 0.72202 0.64431 0.0
C1255 C 0.99374 0.74391 0.62102 0.0
C1256 C 0.93113 0.71529 0.62742 0.0
C1257 C 0.91321 0.69709 0.67313 0.0
N1258 N 0.97379 0.73529 0.62495 0.0
N1259 N 0.93303 0.70391 0.66928 0.0
H1260 H 0.85099 0.66226 0.22037 0.0
H1261 H 0.96751 0.70279 0.20368 0.0
H1262 H 0.88891 0.71444 0.1749 0.0
H1263 H 0.92979 0.65499 0.25532 0.0
H1264 H 0.93956 0.70835 0.19399 0.0
H1265 H 0.88026 0.66081 0.23505 0.0
C1266 C 0.86556 0.6736 0.21372 0.0
C1267 C 0.86751 0.68845 0.19629 0.0
C1268 C 0.93744 0.69672 0.20754 0.0
C1269 C 0.90121 0.68666 0.21273 0.0
C1270 C 0.95336 0.69348 0.21302 0.0
C1271 C 0.95096 0.6783 0.23024 0.0
C1272 C 0.91892 0.68464 0.21925 0.0
C1273 C 0.93232 0.66678 0.24184 0.0
C1274 C 0.88229 0.67274 0.22209 0.0
C1275 C 0.88677 0.7028 0.18842 0.0
N1276 N 0.91703 0.67013 0.23604 0.0
N1277 N 0.90288 0.7014 0.19645 0.0
H1278 H 0.41608 0.31154 0.25514 0.0
H1279 H 0.35685 0.37109 0.23171 0.0
H1280 H 0.37151 0.29748 0.19653 0.0
H1281 H 0.40472 0.38953 0.28672 0.0
H1282 H 0.36187 0.34363 0.21947 0.0
H1283 H 0.41262 0.34025 0.26715 0.0
C1284 C 0.40574 0.31459 0.24462 0.0
C1285 C 0.39394 0.30193 0.22493 0.0
C1286 C 0.37129 0.35365 0.23424 0.0
C1287 C 0.3897 0.33457 0.2388 0.0
C1288 C 0.36838 0.36934 0.24134 0.0
C1289 C 0.38037 0.38271 0.26031 0.0
C1290 C 0.3863 0.35116 0.24618 0.0
C1291 C 0.3951 0.37961 0.27201 0.0
C1292 C 0.40366 0.3309 0.25161 0.0
C1293 C 0.38063 0.30654 0.21214 0.0
N1294 N 0.39765 0.36416 0.26475 0.0
N1295 N 0.37883 0.32238 0.21935 0.0
H1296 H 0.77606 0.21044 0.21927 0.0
H1297 H 0.7232 0.09152 0.23126 0.0
H1298 H 0.8036 0.17646 0.19613 0.0
H1299 H 0.69706 0.12577 0.25852 0.0
H1300 H 0.7533 0.12255 0.22009 0.0
H1301 H 0.74787 0.17983 0.23589 0.0
C1302 C 0.77625 0.19654 0.21785 0.0
C1303 C 0.79215 0.19598 0.2061 0.0
C1304 C 0.74103 0.12331 0.22861 0.0
C1305 C 0.75977 0.16079 0.22498 0.0
C1306 C 0.72376 0.10557 0.23494 0.0
C1307 C 0.70745 0.10599 0.24572 0.0
C1308 C 0.74207 0.14171 0.23293 0.0
C1309 C 0.7092 0.1247 0.25018 0.0
C1310 C 0.76012 0.17906 0.22736 0.0
C1311 C 0.79164 0.17757 0.20499 0.0
N1312 N 0.72616 0.14181 0.24363 0.0
N1313 N 0.77561 0.16066 0.21411 0.0
H1314 H 0.95852 0.46705 0.92244 0.0
H1315 H 0.03488 0.45808 0.82919 0.0
H1316 H 0.02206 0.50824 0.92199 0.0
H1317 H 0.97103 0.41913 0.82544 0.0
H1318 H 0.03051 0.4754 0.8649 0.0
H1319 H 0.96279 0.44838 0.88833 0.0
C1320 C 0.97336 0.47226 0.91522 0.0
C1321 C 0.98993 0.48935 0.92532 0.0
C1322 C 0.01744 0.46302 0.85635 0.0
C1323 C 0.99495 0.4678 0.88623 0.0
C1324 C 0.01993 0.45307 0.83597 0.0
C1325 C 0.0033 0.43712 0.82422 0.0
C1326 C -0.00185 0.45701 0.86516 0.0
C1327 C 0.98429 0.43135 0.83387 0.0
C1328 C 0.9758 0.46149 0.89577 0.0
C1329 C 0.00883 0.49508 0.91524 0.0
N1330 N 0.98224 0.4413 0.85369 0.0
N1331 N 0.01078 0.48438 0.89632 0.0
H1332 H 0.5198 0.59039 0.90794 0.0
H1333 H 0.61923 0.60989 0.83747 0.0
H1334 H 0.56031 0.5724 0.93973 0.0
H1335 H 0.57802 0.62746 0.80704 0.0
H1336 H 0.59773 0.59539 0.87469 0.0
H1337 H 0.54082 0.6034 0.87052 0.0
C1338 C 0.53305 0.58904 0.90703 0.0
C1339 C 0.5382 0.58019 0.9271 0.0
C1340 C 0.59339 0.60237 0.85982 0.0
C1341 C 0.56261 0.59535 0.88416 0.0
C1342 C 0.60563 0.61062 0.83855 0.0
C1343 C 0.60044 0.61993 0.81913 0.0
C1344 C 0.57584 0.60346 0.86166 0.0
C1345 C 0.58265 0.62046 0.82156 0.0
C1346 C 0.54514 0.59659 0.88565 0.0
C1347 C 0.55582 0.57926 0.92491 0.0
N1348 N 0.57105 0.6124 0.84241 0.0
N1349 N 0.56737 0.58672 0.90383 0.0
H1350 H 0.45184 0.01449 0.9667 0.0
H1351 H 0.4054 0.9889 0.82645 0.0
H1352 H 0.45082 0.96718 0.92269 0.0
H1353 H 0.41944 0.04249 0.86735 0.0
H1354 H 0.41781 0.97774 0.8629 0.0
H1355 H 0.43501 0.02133 0.93229 0.0
C1356 C 0.44782 0.00524 0.95002 0.0
C1357 C 0.45287 0.99018 0.94774 0.0
C1358 C 0.41809 0.9919 0.86382 0.0
C1359 C 0.43385 0.99846 0.90757 0.0
C1360 C 0.41101 0.99825 0.8431 0.0
C1361 C 0.41151 0.01669 0.84386 0.0
C1362 C 0.42548 0.00401 0.88543 0.0
C1363 C 0.4189 0.02824 0.86585 0.0
C1364 C 0.43835 0.00936 0.93013 0.0
C1365 C 0.44746 0.97908 0.92518 0.0
N1366 N 0.42557 0.0217 0.88571 0.0
N1367 N 0.43832 0.98351 0.90586 0.0
H1368 H 0.46589 0.03468 0.59864 0.0
H1369 H 0.44844 0.07882 0.72608 0.0
H1370 H 0.50744 0.0932 0.62773 0.0
H1371 H 0.40548 0.02123 0.69586 0.0
H1372 H 0.47 0.08432 0.68995 0.0
H1373 H 0.44354 0.0295 0.63375 0.0
C1374 C 0.4703 0.04654 0.61227 0.0
C1375 C 0.48862 0.0645 0.61004 0.0
C1376 C 0.45585 0.0705 0.69113 0.0
C1377 C 0.46304 0.05848 0.65066 0.0
C1378 C 0.44348 0.06733 0.71178 0.0
C1379 C 0.4251 0.0495 0.71405 0.0
C1380 C 0.4499 0.05571 0.67252 0.0
C1381 C 0.41951 0.03519 0.69487 0.0
C1382 C 0.45753 0.04349 0.63244 0.0
C1383 C 0.49361 0.07907 0.62873 0.0
N1384 N 0.43189 0.03859 0.67494 0.0
N1385 N 0.4809 0.07575 0.6482 0.0
H1386 H 0.06906 0.51056 0.57726 0.0
H1387 H -0.00316 0.45644 0.6957 0.0
H1388 H 0.02029 0.51976 0.59723 0.0
H1389 H 0.0504 0.45384 0.68211 0.0
H1390 H 0.00493 0.47933 0.65924 0.0
H1391 H 0.06249 0.48966 0.61543 0.0
C1392 C 0.05708 0.50834 0.58968 0.0
C1393 C 0.04512 0.51685 0.58373 0.0
C1394 C 0.01495 0.4738 0.66429 0.0
C1395 C 0.03734 0.49268 0.6274 0.0
C1396 C 0.01032 0.46071 0.68509 0.0
C1397 C 0.02294 0.45318 0.69193 0.0
C1398 C 0.03227 0.47931 0.65013 0.0
C1399 C 0.04023 0.45926 0.67752 0.0
C1400 C 0.05326 0.49631 0.61145 0.0
C1401 C 0.02967 0.51322 0.60058 0.0
N1402 N 0.04434 0.47188 0.65727 0.0
N1403 N 0.02619 0.50138 0.6215 0.0
H1404 H 0.52448 0.58863 0.59504 0.0
H1405 H 0.61726 0.60284 0.67908 0.0
H1406 H 0.56536 0.57046 0.56775 0.0
H1407 H 0.59104 0.6406 0.68482 0.0
H1408 H 0.59574 0.58659 0.64197 0.0
H1409 H 0.54567 0.60289 0.63244 0.0
C1410 C 0.5378 0.58742 0.597 0.0
C1411 C 0.54316 0.57837 0.57809 0.0
C1412 C 0.5948 0.59848 0.65137 0.0
C1413 C 0.56756 0.59478 0.62107 0.0
C1414 C 0.60702 0.60773 0.67252 0.0
C1415 C 0.60598 0.62314 0.68502 0.0
C1416 C 0.58117 0.60441 0.64304 0.0
C1417 C 0.59244 0.62887 0.67572 0.0
C1418 C 0.54997 0.59571 0.61833 0.0
C1419 C 0.56068 0.57735 0.58179 0.0
N1420 N 0.58048 0.61942 0.65545 0.0
N1421 N 0.57227 0.58545 0.60288 0.0
H1422 H 0.01118 0.59579 0.06293 0.0
H1423 H 0.98115 0.60305 0.20589 0.0
H1424 H 0.97447 0.54449 0.11058 0.0
H1425 H 0.0222 0.65477 0.16181 0.0
H1426 H 0.97849 0.58159 0.17081 0.0
H1427 H 0.01521 0.61768 0.09829 0.0
C1428 C 0.00401 0.58904 0.08078 0.0
C1429 C 0.99247 0.5681 0.08358 0.0
C1430 C 0.98816 0.59761 0.16876 0.0
C1431 C -0.00308 0.5933 0.12427 0.0
C1432 C 0.98971 0.60992 0.18885 0.0
C1433 C 0.00192 0.6308 0.18685 0.0
C1434 C -0.00119 0.60614 0.14626 0.0
C1435 C 0.01264 0.63877 0.16423 0.0
C1436 C 0.00629 0.60162 0.10098 0.0
C1437 C 0.98331 0.56043 0.10721 0.0
N1438 N 0.01076 0.62644 0.14479 0.0
N1439 N 0.98574 0.57299 0.12654 0.0
H1440 H 0.46341 0.52713 0.09967 0.0
H1441 H 0.4446 0.48422 0.2425 0.0
H1442 H 0.5104 0.53074 0.14863 0.0
H1443 H 0.39818 0.47775 0.19024 0.0
H1444 H 0.46956 0.50438 0.2103 0.0
H1445 H 0.44007 0.5124 0.13463 0.0
C1446 C 0.46895 0.5251 0.11783 0.0
C1447 C 0.48897 0.53012 0.12105 0.0
C1448 C 0.45391 0.49864 0.20601 0.0
C1449 C 0.46205 0.51282 0.16131 0.0
C1450 C 0.43966 0.48718 0.2244 0.0
C1451 C 0.41923 0.47912 0.21902 0.0
C1452 C 0.44767 0.50211 0.18214 0.0
C1453 C 0.41372 0.48346 0.19521 0.0
C1454 C 0.45552 0.51651 0.13782 0.0
C1455 C 0.49506 0.5268 0.1451 0.0
N1456 N 0.42781 0.49455 0.17768 0.0
N1457 N 0.48164 0.51827 0.16426 0.0
H1458 H 0.5128 0.98477 0.13725 0.0
H1459 H 0.62864 0.03508 0.1705 0.0
H1460 H 0.55882 0.00832 0.08042 0.0
H1461 H 0.58563 0.03086 0.22522 0.0
H1462 H 0.60272 0.0227 0.13776 0.0
H1463 H 0.53868 0.99814 0.17057 0.0
C1464 C 0.52836 0.99248 0.13184 0.0
C1465 C 0.53377 0.99541 0.10611 0.0
C1466 C 0.59894 0.02462 0.15685 0.0
C1467 C 0.56327 0.01088 0.14389 0.0
C1468 C 0.61373 0.0317 0.17556 0.0
C1469 C 0.60924 0.03397 0.20059 0.0
C1470 C 0.57939 0.01944 0.16326 0.0
C1471 C 0.5897 0.02943 0.20608 0.0
C1472 C 0.54307 0.00032 0.1508 0.0
C1473 C 0.5541 0.00583 0.10005 0.0
N1474 N 0.57538 0.02213 0.18758 0.0
N1475 N 0.56812 0.01314 0.11879 0.0
H1476 H 0.58705 0.11266 0.44619 0.0
H1477 H 0.58211 0.04482 0.32937 0.0
H1478 H 0.53647 0.05496 0.42852 0.0
H1479 H 0.6342 0.10158 0.3467 0.0
H1480 H 0.56438 0.0499 0.36376 0.0
H1481 H 0.60382 0.11053 0.40806 0.0
C1482 C 0.57942 0.09964 0.43422 0.0
C1483 C 0.56044 0.08385 0.44077 0.0
C1484 C 0.57965 0.06133 0.36 0.0
C1485 C 0.57949 0.08127 0.39723 0.0
C1486 C 0.58979 0.05845 0.34029 0.0
C1487 C 0.60972 0.07274 0.33521 0.0
C1488 C 0.58949 0.07862 0.37491 0.0
C1489 C 0.61886 0.09014 0.34999 0.0
C1490 C 0.58902 0.09838 0.41253 0.0
C1491 C 0.55127 0.06728 0.4246 0.0
N1492 N 0.60872 0.09253 0.36929 0.0
N1493 N 0.56089 0.06641 0.40371 0.0
H1494 H 0.02747 0.60556 0.44779 0.0
H1495 H 0.02068 0.62963 0.30052 0.0
H1496 H 0.04346 0.57837 0.38832 0.0
H1497 H 0.99097 0.64154 0.36094 0.0
H1498 H 0.03239 0.61362 0.33179 0.0
H1499 H 0.01782 0.62221 0.41565 0.0
C1500 C 0.02892 0.603 0.42797 0.0
C1501 C 0.03602 0.59021 0.42088 0.0
C1502 C 0.02327 0.61972 0.33809 0.0
C1503 C 0.02514 0.6096 0.38367 0.0
C1504 C 0.01657 0.62885 0.32027 0.0
C1505 C 0.00476 0.63693 0.32804 0.0
C1506 C 0.01832 0.61891 0.36386 0.0
C1507 C -5e-05 0.6355 0.35394 0.0
C1508 C 0.02344 0.6126 0.40956 0.0
C1509 C 0.0381 0.58807 0.39475 0.0
N1510 N 0.0068 0.62678 0.37083 0.0
N1511 N 0.0326 0.59759 0.37708 0.0
H1512 H 0.49985 0.54715 0.44824 0.0
H1513 H 0.42066 0.44348 0.38442 0.0
H1514 H 0.46489 0.49287 0.49186 0.0
H1515 H 0.44355 0.50127 0.34784 0.0
H1516 H 0.44117 0.45995 0.42201 0.0
H1517 H 0.4842 0.52891 0.4094 0.0
C1518 C 0.4891 0.53131 0.44968 0.0
C1519 C 0.48354 0.5216 0.47349 0.0
C1520 C 0.44178 0.46899 0.40568 0.0
C1521 C 0.46541 0.50063 0.42886 0.0
C1522 C 0.43012 0.45961 0.3842 0.0
C1523 C 0.4303 0.47104 0.363 0.0
C1524 C 0.45387 0.48992 0.40585 0.0
C1525 C 0.44283 0.49188 0.36379 0.0
C1526 C 0.48009 0.52093 0.42744 0.0
C1527 C 0.46959 0.50101 0.47399 0.0
N1528 N 0.45408 0.50063 0.38485 0.0
N1529 N 0.46087 0.49123 0.45202 0.0
H1530 H 0.67732 0.85602 0.27652 0.0
H1531 H 0.72435 0.83229 0.15538 0.0
H1532 H 0.7398 0.88536 0.25725 0.0
H1533 H 0.66087 0.80037 0.16854 0.0
H1534 H 0.72923 0.85123 0.19378 0.0
H1535 H 0.66981 0.83497 0.23831 0.0
C1536 C 0.68941 0.85808 0.26439 0.0
C1537 C 0.70924 0.87259 0.27028 0.0
C1538 C 0.71416 0.8401 0.18846 0.0
C1539 C 0.7008 0.84862 0.22672 0.0
C1540 C 0.71136 0.82921 0.16638 0.0
C1541 C 0.69216 0.81466 0.15855 0.0
C1542 C 0.69767 0.83663 0.20319 0.0
C1543 C 0.67597 0.81144 0.17383 0.0
C1544 C 0.68513 0.84606 0.24261 0.0
C1545 C 0.72427 0.8745 0.25378 0.0
N1546 N 0.67906 0.82235 0.19541 0.0
N1547 N 0.71974 0.86278 0.23303 0.0
H1548 H 0.22131 0.90368 0.31796 0.0
H1549 H 0.2439 0.97141 0.19173 0.0
H1550 H 0.19308 0.93812 0.29689 0.0
H1551 H 0.28136 0.9471 0.21491 0.0
H1552 H 0.22357 0.95638 0.22918 0.0
H1553 H 0.24235 0.91695 0.2797 0.0
C1554 C 0.21954 0.91399 0.30542 0.0
C1555 C 0.20537 0.91976 0.31072 0.0
C1556 C 0.23622 0.95426 0.22621 0.0
C1557 C 0.22913 0.93477 0.26709 0.0
C1558 C 0.24784 0.96285 0.2047 0.0
C1559 C 0.26444 0.96062 0.20018 0.0
C1560 C 0.24109 0.94327 0.24357 0.0
C1561 C 0.26871 0.94924 0.2177 0.0
C1562 C 0.23153 0.92154 0.28363 0.0
C1563 C 0.20373 0.93316 0.29377 0.0
N1564 N 0.25712 0.94099 0.2387 0.0
N1565 N 0.21535 0.94009 0.27287 0.0
H1566 H 0.11185 0.33268 0.26496 0.0
H1567 H 0.11901 0.39661 0.14316 0.0
H1568 H 0.16785 0.36766 0.22641 0.0
H1569 H 0.0679 0.33787 0.15487 0.0
H1570 H 0.13672 0.38957 0.17737 0.0
H1571 H 0.09454 0.33743 0.22819 0.0
C1572 C 0.12041 0.34123 0.24862 0.0
C1573 C 0.14119 0.34969 0.24847 0.0
C1574 C 0.12166 0.37823 0.17228 0.0
C1575 C 0.12176 0.3556 0.20696 0.0
C1576 C 0.11156 0.38225 0.15293 0.0
C1577 C 0.09201 0.36779 0.14624 0.0
C1578 C 0.11193 0.35984 0.18541 0.0
C1579 C 0.083 0.34939 0.15939 0.0
C1580 C 0.11059 0.34389 0.22773 0.0
C1581 C 0.15176 0.36073 0.227 0.0
N1582 N 0.09294 0.34602 0.17861 0.0
N1583 N 0.14195 0.36362 0.20718 0.0
H1584 H 0.09443 0.30291 0.92789 0.0
H1585 H 0.10476 0.39365 0.01096 0.0
H1586 H 0.137 0.36513 0.91283 0.0
H1587 H 0.05478 0.33353 0.01737 0.0
H1588 H 0.11735 0.38302 0.97569 0.0
H1589 H 0.08012 0.3133 0.96163 0.0
C1590 C 0.10077 0.3187 0.93158 0.0
C1591 C 0.11712 0.33308 0.91755 0.0
C1592 C 0.10356 0.37216 0.9847 0.0
C1593 C 0.10091 0.34508 0.95622 0.0
C1594 C 0.09636 0.37824 0.00483 0.0
C1595 C 0.0787 0.36446 0.01712 0.0
C1596 C 0.09313 0.3521 0.9769 0.0
C1597 C 0.06844 0.34466 0.00838 0.0
C1598 C 0.09261 0.32463 0.95087 0.0
C1599 C 0.12476 0.35338 0.92338 0.0
N1600 N 0.07587 0.33903 0.98891 0.0
N1601 N 0.11664 0.35872 0.94225 0.0
H1602 H 0.64439 0.85149 0.91747 0.0
H1603 H 0.71301 0.82429 0.00564 0.0
H1604 H 0.70213 0.86249 0.89339 0.0
H1605 H 0.65542 0.81516 0.02721 0.0
H1606 H 0.71068 0.83995 0.9657 0.0
H1607 H 0.6497 0.84018 0.95862 0.0
C1608 C 0.65831 0.85162 0.92086 0.0
C1609 C 0.67278 0.85784 0.90174 0.0
C1610 C 0.69862 0.83463 0.97923 0.0
C1611 C 0.67894 0.84459 0.94938 0.0
C1612 C 0.69992 0.82568 0.00208 0.0
C1613 C 0.68432 0.81829 0.01985 0.0
C1614 C 0.6816 0.83622 0.97403 0.0
C1615 C 0.66777 0.82055 0.01413 0.0
C1616 C 0.66132 0.84512 0.94451 0.0
C1617 C 0.69058 0.85784 0.90754 0.0
N1618 N 0.66683 0.82921 0.99176 0.0
N1619 N 0.69309 0.85113 0.93079 0.0
H1620 H 0.21193 0.92364 0.95121 0.0
H1621 H 0.28608 0.94067 0.06821 0.0
H1622 H 0.24293 0.89056 0.963 0.0
H1623 H 0.25942 0.97761 0.05453 0.0
H1624 H 0.26999 0.92211 0.02976 0.0
H1625 H 0.22885 0.94354 0.98869 0.0
C1626 C 0.22236 0.92059 0.9615 0.0
C1627 C 0.22591 0.90526 0.95379 0.0
C1628 C 0.26765 0.93429 0.03506 0.0
C1629 C 0.24522 0.92797 0.99706 0.0
C1630 C 0.27684 0.94492 0.05709 0.0
C1631 C 0.27409 0.96074 0.06468 0.0
C1632 C 0.25548 0.93938 0.02039 0.0
C1633 C 0.26196 0.96553 0.0494 0.0
C1634 C 0.23196 0.93194 0.98303 0.0
C1635 C 0.23942 0.90193 0.96827 0.0
N1636 N 0.25306 0.95486 0.02802 0.0
N1637 N 0.24852 0.91314 0.98914 0.0
H1638 H 0.67473 0.89901 0.40624 0.0
H1639 H 0.70547 0.99002 0.50256 0.0
H1640 H 0.73261 0.9524 0.41064 0.0
H1641 H 0.65243 0.93274 0.51436 0.0
H1642 H 0.71346 0.97661 0.46585 0.0
H1643 H 0.6641 0.91105 0.44298 0.0
C1644 C 0.68516 0.91318 0.4148 0.0
C1645 C 0.70466 0.92458 0.40531 0.0
C1646 C 0.70005 0.96687 0.4764 0.0
C1647 C 0.69259 0.93849 0.44701 0.0
C1648 C 0.69546 0.97458 0.49745 0.0
C1649 C 0.67829 0.96252 0.51176 0.0
C1650 C 0.68737 0.94687 0.46921 0.0
C1651 C 0.66589 0.94258 0.50399 0.0
C1652 C 0.67911 0.92002 0.43578 0.0
C1653 C 0.7175 0.94287 0.41722 0.0
N1654 N 0.67065 0.93537 0.48323 0.0
N1655 N 0.71125 0.94918 0.43719 0.0
H1656 H 0.17707 0.87831 0.47595 0.0
H1657 H 0.07398 0.77886 0.50158 0.0
H1658 H 0.14206 0.83711 0.41669 0.0
H1659 H 0.11707 0.80869 0.56158 0.0
H1660 H 0.09861 0.80076 0.47045 0.0
H1661 H 0.15571 0.85355 0.50781 0.0
C1662 C 0.16511 0.86394 0.46962 0.0
C1663 C 0.16134 0.85986 0.44354 0.0
C1664 C 0.10276 0.80247 0.4904 0.0
C1665 C 0.13657 0.83161 0.47996 0.0
C1666 C 0.08864 0.79003 0.50825 0.0
C1667 C 0.09338 0.79197 0.53433 0.0
C1668 C 0.12178 0.81727 0.49856 0.0
C1669 C 0.11273 0.80665 0.54171 0.0
C1670 C 0.1529 0.84983 0.48784 0.0
C1671 C 0.1456 0.84096 0.43653 0.0
N1672 N 0.12616 0.81887 0.52394 0.0
N1673 N 0.13365 0.82769 0.45459 0.0
H1674 H 0.16627 0.32358 0.44905 0.0
H1675 H 0.27406 0.3367 0.4778 0.0
H1676 H 0.20776 0.32949 0.39109 0.0
H1677 H 0.23917 0.34514 0.53452 0.0
H1678 H 0.2472 0.3281 0.44702 0.0
H1679 H 0.19003 0.32524 0.4817 0.0
C1680 C 0.18021 0.32482 0.44321 0.0
C1681 C 0.18516 0.32651 0.41737 0.0
C1682 C 0.24536 0.33173 0.46623 0.0
C1683 C 0.2124 0.32862 0.45447 0.0
C1684 C 0.2607 0.33663 0.48387 0.0
C1685 C 0.25898 0.34186 0.50878 0.0
C1686 C 0.22808 0.33195 0.47347 0.0
C1687 C 0.24123 0.34138 0.51548 0.0
C1688 C 0.19383 0.32595 0.46182 0.0
C1689 C 0.20352 0.32836 0.41083 0.0
N1690 N 0.22649 0.33661 0.49789 0.0
N1691 N 0.21651 0.32946 0.42924 0.0
H1692 H 0.17529 0.3011 0.74155 0.0
H1693 H 0.26769 0.38584 0.66256 0.0
H1694 H 0.21186 0.36225 0.7659 0.0
H1695 H 0.23467 0.32391 0.64021 0.0
H1696 H 0.24568 0.37776 0.69906 0.0
H1697 H 0.19549 0.30932 0.70309 0.0
C1698 C 0.18753 0.31622 0.73889 0.0
C1699 C 0.19176 0.33097 0.75709 0.0
C1700 C 0.24318 0.36593 0.68613 0.0
C1701 C 0.21486 0.34054 0.71296 0.0
C1702 C 0.25573 0.37057 0.66524 0.0
C1703 C 0.25307 0.35553 0.64835 0.0
C1704 C 0.22783 0.3461 0.69022 0.0
C1705 C 0.2373 0.33598 0.65278 0.0
C1706 C 0.19901 0.32093 0.71685 0.0
C1707 C 0.20772 0.3504 0.75236 0.0
N1708 N 0.22532 0.33181 0.67333 0.0
N1709 N 0.21865 0.35457 0.73086 0.0
H1710 H 0.68898 0.92881 0.78296 0.0
H1711 H 0.67691 0.94374 0.63322 0.0
H1712 H 0.68531 0.88703 0.72663 0.0
H1713 H 0.66645 0.9755 0.69229 0.0
H1714 H 0.68529 0.92601 0.66618 0.0
H1715 H 0.68676 0.94966 0.74891 0.0
C1716 C 0.68812 0.92419 0.76343 0.0
C1717 C 0.68724 0.90601 0.75778 0.0
C1718 C 0.68124 0.93694 0.67185 0.0
C1719 C 0.68441 0.92981 0.71853 0.0
C1720 C 0.67647 0.94708 0.65303 0.0
C1721 C 0.67077 0.96105 0.65989 0.0
C1722 C 0.68057 0.94098 0.69773 0.0
C1723 C 0.67053 0.96475 0.68597 0.0
C1724 C 0.68667 0.93604 0.74396 0.0
C1725 C 0.68596 0.90084 0.73198 0.0
N1726 N 0.67533 0.95483 0.70381 0.0
N1727 N 0.68446 0.91257 0.71338 0.0
H1728 H 0.19029 0.85494 0.75773 0.0
H1729 H 0.09558 0.75899 0.70137 0.0
H1730 H 0.1421 0.81391 0.80593 0.0
H1731 H 0.12404 0.81534 0.66051 0.0
H1732 H 0.11675 0.77567 0.7385 0.0
H1733 H 0.1703 0.83721 0.72022 0.0
C1734 C 0.1756 0.84202 0.76037 0.0
C1735 C 0.1678 0.83577 0.78487 0.0
C1736 C 0.11837 0.78431 0.72133 0.0
C1737 C 0.14503 0.81543 0.74227 0.0
C1738 C 0.10642 0.77482 0.70013 0.0
C1739 C 0.10807 0.78584 0.67787 0.0
C1740 C 0.13239 0.80483 0.72002 0.0
C1741 C 0.12226 0.80633 0.67735 0.0
C1742 C 0.16418 0.83204 0.73903 0.0
C1743 C 0.14857 0.81914 0.78731 0.0
N1744 N 0.13399 0.81516 0.69806 0.0
N1745 N 0.13786 0.80942 0.76627 0.0
H1746 H 0.34768 0.1972 0.63979 0.0
H1747 H 0.3913 0.15981 0.52913 0.0
H1748 H 0.40582 0.2022 0.64063 0.0
H1749 H 0.32835 0.13948 0.53341 0.0
H1750 H 0.39645 0.17697 0.56935 0.0
H1751 H 0.33945 0.17689 0.60081 0.0
C1752 C 0.35858 0.19386 0.63206 0.0
C1753 C 0.37755 0.20164 0.64348 0.0
C1754 C 0.38145 0.16872 0.56165 0.0
C1755 C 0.36839 0.17875 0.59888 0.0
C1756 C 0.37851 0.15893 0.53854 0.0
C1757 C 0.35936 0.14811 0.52777 0.0
C1758 C 0.36517 0.16799 0.57428 0.0
C1759 C 0.34338 0.14758 0.54103 0.0
C1760 C 0.35393 0.18236 0.60976 0.0
C1761 C 0.3911 0.19686 0.63248 0.0
N1762 N 0.34664 0.15745 0.56351 0.0
N1763 N 0.38632 0.18596 0.61091 0.0
H1764 H 0.862 0.22501 0.57604 0.0
H1765 H 0.9622 0.29207 0.49748 0.0
H1766 H 0.91931 0.23279 0.59861 0.0
H1767 H 0.90641 0.29014 0.48115 0.0
H1768 H 0.94619 0.26809 0.53231 0.0
H1769 H 0.87745 0.24645 0.53905 0.0
C1770 C 0.87786 0.23125 0.57329 0.0
C1771 C 0.88939 0.22724 0.59076 0.0
C1772 C 0.93742 0.27286 0.52107 0.0
C1773 C 0.90721 0.25174 0.54803 0.0
C1774 C 0.94654 0.28654 0.50114 0.0
C1775 C 0.93564 0.29319 0.48641 0.0
C1776 C 0.9172 0.26569 0.52632 0.0
C1777 C 0.9154 0.28548 0.49204 0.0
C1778 C 0.88666 0.24345 0.55204 0.0
C1779 C 0.9098 0.23537 0.58569 0.0
N1780 N 0.90686 0.27217 0.51157 0.0
N1781 N 0.91807 0.24732 0.56488 0.0
H1782 H 0.8149 0.71486 0.59921 0.0
H1783 H 0.74324 0.66279 0.47904 0.0
H1784 H 0.79245 0.65343 0.57826 0.0
H1785 H 0.77355 0.72638 0.49269 0.0
H1786 H 0.75774 0.6582 0.51853 0.0
H1787 H 0.79574 0.71841 0.5638 0.0
C1788 C 0.80568 0.70208 0.58739 0.0
C1789 C 0.80542 0.68394 0.59131 0.0
C1790 C 0.76117 0.67315 0.51288 0.0
C1791 C 0.78373 0.68782 0.5509 0.0
C1792 C 0.75294 0.67576 0.49033 0.0
C1793 C 0.75732 0.69499 0.4825 0.0
C1794 C 0.7738 0.68988 0.52771 0.0
C1795 C 0.7699 0.71129 0.49793 0.0
C1796 C 0.7949 0.70411 0.56711 0.0
C1797 C 0.79333 0.66778 0.57547 0.0
N1798 N 0.77771 0.70837 0.51977 0.0
N1799 N 0.78307 0.67013 0.55587 0.0
H1800 H 0.78421 0.70721 0.21993 0.0
H1801 H 0.72011 0.66078 0.34622 0.0
H1802 H 0.75853 0.64471 0.24033 0.0
H1803 H 0.76195 0.72365 0.33483 0.0
H1804 H 0.72956 0.65393 0.30472 0.0
H1805 H 0.77148 0.71271 0.25913 0.0
C1806 C 0.77597 0.69461 0.23264 0.0
C1807 C 0.77282 0.67551 0.22688 0.0
C1808 C 0.73658 0.66921 0.31134 0.0
C1809 C 0.75779 0.68172 0.27189 0.0
C1810 C 0.73116 0.67314 0.33493 0.0
C1811 C 0.74032 0.69281 0.34403 0.0
C1812 C 0.75103 0.68511 0.29665 0.0
C1813 C 0.75458 0.70825 0.32866 0.0
C1814 C 0.7686 0.69777 0.25504 0.0
C1815 C 0.76138 0.65968 0.24389 0.0
N1816 N 0.75946 0.70407 0.30576 0.0
N1817 N 0.75435 0.66316 0.2657 0.0
H1818 H 0.3462 0.21556 0.28519 0.0
H1819 H 0.3632 0.13739 0.36383 0.0
H1820 H 0.33167 0.15869 0.25325 0.0
H1821 H 0.33701 0.16815 0.40087 0.0
H1822 H 0.35823 0.14969 0.3226 0.0
H1823 H 0.34861 0.20277 0.32758 0.0
C1824 C 0.34329 0.20033 0.28714 0.0
C1825 C 0.33851 0.1881 0.26568 0.0
C1826 C 0.35362 0.15376 0.33978 0.0
C1827 C 0.342 0.17372 0.31383 0.0
C1828 C 0.35657 0.14688 0.36333 0.0
C1829 C 0.3505 0.15174 0.38587 0.0
C1830 C 0.34505 0.16608 0.3387 0.0
C1831 C 0.34186 0.16401 0.38396 0.0
C1832 C 0.34469 0.19308 0.31128 0.0
C1833 C 0.3351 0.16854 0.26928 0.0
N1834 N 0.33958 0.17095 0.36082 0.0
N1835 N 0.33723 0.16208 0.29278 0.0
H1836 H 0.87994 0.26114 0.24766 0.0
H1837 H 0.92681 0.34494 0.35447 0.0
H1838 H 0.87551 0.31483 0.24444 0.0
H1839 H 0.94022 0.29718 0.34783 0.0
H1840 H 0.90708 0.3338 0.31519 0.0
H1841 H 0.90095 0.2737 0.28516 0.0
C1842 C 0.88347 0.27568 0.25455 0.0
C1843 C 0.87593 0.28697 0.24242 0.0
C1844 C 0.91441 0.32583 0.32226 0.0
C1845 C 0.89996 0.30134 0.28623 0.0
C1846 C 0.92568 0.33215 0.3447 0.0
C1847 C 0.93517 0.32195 0.3545 0.0
C1848 C 0.91246 0.30905 0.3096 0.0
C1849 C 0.93319 0.30551 0.34099 0.0
C1850 C 0.89547 0.2828 0.27621 0.0
C1851 C 0.88079 0.30549 0.25307 0.0
N1852 N 0.92198 0.29952 0.31934 0.0
N1853 N 0.89247 0.31207 0.27437 0.0
H1854 H 0.40723 0.29503 0.77027 0.0
H1855 H 0.3319 0.27368 0.88526 0.0
H1856 H 0.3509 0.23991 0.77554 0.0
H1857 H 0.38779 0.32835 0.87388 0.0
H1858 H 0.33783 0.26032 0.84618 0.0
H1859 H 0.39945 0.30669 0.80844 0.0
C1860 C 0.39311 0.28528 0.77944 0.0
C1861 C 0.37977 0.26632 0.76954 0.0
C1862 C 0.34878 0.27521 0.8523 0.0
C1863 C 0.37066 0.27985 0.81411 0.0
C1864 C 0.34546 0.28284 0.87467 0.0
C1865 C 0.3594 0.30221 0.883 0.0
C1866 C 0.36619 0.28701 0.83814 0.0
C1867 C 0.37661 0.31337 0.86837 0.0
C1868 C 0.38866 0.29204 0.80141 0.0
C1869 C 0.36164 0.25462 0.78241 0.0
N1870 N 0.37947 0.30564 0.84681 0.0
N1871 N 0.35765 0.26153 0.80413 0.0
H1872 H 0.82932 0.16989 0.78625 0.0
H1873 H 0.71179 0.11149 0.81327 0.0
H1874 H 0.78398 0.14618 0.72756 0.0
H1875 H 0.7562 0.12794 0.87274 0.0
H1876 H 0.73834 0.12516 0.78178 0.0
H1877 H 0.8031 0.155 0.81839 0.0
C1878 C 0.81391 0.16141 0.78007 0.0
C1879 C 0.8089 0.15947 0.75408 0.0
C1880 C 0.74231 0.12578 0.80171 0.0
C1881 C 0.77877 0.14264 0.79081 0.0
C1882 C 0.72712 0.11804 0.81975 0.0
C1883 C 0.73172 0.11855 0.84575 0.0
C1884 C 0.76232 0.13422 0.80963 0.0
C1885 C 0.75192 0.12719 0.85292 0.0
C1886 C 0.79892 0.15302 0.79846 0.0
C1887 C 0.7886 0.14844 0.7473 0.0
N1888 N 0.76646 0.1347 0.83498 0.0
N1889 N 0.77433 0.14056 0.7655 0.0
H1890 H 0.91231 0.74601 0.72305 0.0
H1891 H 0.92427 0.71689 0.86652 0.0
H1892 H 0.86396 0.72374 0.77652 0.0
H1893 H 0.9594 0.71717 0.80335 0.0
H1894 H 0.90527 0.72638 0.83703 0.0
H1895 H 0.9337 0.74396 0.75628 0.0
C1896 C 0.90637 0.74118 0.742 0.0
C1897 C 0.88629 0.73484 0.74691 0.0
C1898 C 0.9172 0.72441 0.82976 0.0
C1899 C 0.91055 0.73217 0.785 0.0
C1900 C 0.928 0.71897 0.84651 0.0
C1901 C 0.94332 0.71603 0.83735 0.0
C1902 C 0.92206 0.72732 0.80382 0.0
C1903 C 0.94759 0.71901 0.81126 0.0
C1904 C 0.9185 0.73984 0.76089 0.0
C1905 C 0.87935 0.72882 0.77188 0.0
N1906 N 0.93708 0.72454 0.79549 0.0
N1907 N 0.8914 0.72736 0.78995 0.0
H1908 H 0.87826 0.71397 0.0817 0.0
H1909 H 0.90699 0.67207 0.96106 0.0
H1910 H 0.84226 0.65359 0.05425 0.0
H1911 H 0.94792 0.72795 0.99693 0.0
H1912 H 0.88237 0.66589 0.99369 0.0
H1913 H 0.90316 0.72002 0.04977 0.0
C1914 C 0.87553 0.70187 0.06918 0.0
C1915 C 0.85794 0.68314 0.07096 0.0
C1916 C 0.89673 0.6795 0.99448 0.0
C1917 C 0.88656 0.69024 0.03378 0.0
C1918 C 0.91081 0.68307 0.9758 0.0
C1919 C 0.92958 0.70058 0.97623 0.0
C1920 C 0.90133 0.69358 0.01373 0.0
C1921 C 0.93366 0.71425 0.99585 0.0
C1922 C 0.88982 0.70543 0.05078 0.0
C1923 C 0.85535 0.66832 0.05362 0.0
N1924 N 0.91963 0.71049 0.01377 0.0
N1925 N 0.86945 0.67221 0.03579 0.0
H1926 H 0.34377 0.21636 0.10153 0.0
H1927 H 0.33099 0.31018 0.06205 0.0
H1928 H 0.33746 0.25435 0.15551 0.0
H1929 H 0.34703 0.27905 0.0082 0.0
H1930 H 0.33084 0.28815 0.09575 0.0
H1931 H 0.34197 0.23694 0.0668 0.0
C1932 C 0.34172 0.22885 0.10614 0.0
C1933 C 0.34075 0.23355 0.13165 0.0
C1934 C 0.33442 0.28608 0.07661 0.0
C1935 C 0.33888 0.25738 0.09169 0.0
C1936 C 0.33451 0.2987 0.05721 0.0
C1937 C 0.33904 0.29656 0.03203 0.0
C1938 C 0.33877 0.27094 0.07107 0.0
C1939 C 0.34351 0.28134 0.02725 0.0
C1940 C 0.34084 0.24069 0.08622 0.0
C1941 C 0.33822 0.25004 0.13625 0.0
N1942 N 0.34321 0.26909 0.04655 0.0
N1943 N 0.33743 0.26134 0.11653 0.0
H1944 H 0.78834 0.18289 0.10553 0.0
H1945 H 0.75048 0.16498 0.96084 0.0
H1946 H 0.80081 0.23082 0.05213 0.0
H1947 H 0.7423 0.11728 0.01225 0.0
H1948 H 0.76922 0.18926 0.9939 0.0
H1949 H 0.77143 0.15873 0.07179 0.0
C1950 C 0.78765 0.18841 0.08671 0.0
C1951 C 0.7962 0.20905 0.08176 0.0
C1952 C 0.76345 0.17351 0.99795 0.0
C1953 C 0.77654 0.18124 0.04289 0.0
C1954 C 0.75277 0.1596 0.97903 0.0
C1955 C 0.74476 0.13902 0.98376 0.0
C1956 C 0.76609 0.16685 0.02194 0.0
C1957 C 0.74823 0.13298 0.00773 0.0
C1958 C 0.77789 0.17453 0.06743 0.0
C1959 C 0.79435 0.21513 0.057 0.0
N1960 N 0.75853 0.14682 0.02596 0.0
N1961 N 0.78476 0.2013 0.03854 0.0
loop_
_geom_bond_atom_site_label_1
_geom_bond_atom_site_label_2
_geom_bond_distance
_geom_bond_site_symmetry_2
_ccdc_geom_bond_type
Cu0 N1 1.999 . S
Cu0 O6 1.974 1_554 S
Cu0 N11 1.985 1_554 S
Cu0 O20 1.959 . S
N1 Cu0 1.999 . S
N1 C3 1.263 . S
N1 C5 1.389 . S
N2 C3 1.358 . S
N2 C4 1.400 . S
C3 N1 1.263 . S
C3 N2 1.358 . S
C3 H9 0.930 . S
C4 N2 1.400 . S
C4 C5 1.351 . S
C4 H21 0.930 . S
C5 N1 1.389 . S
C5 C4 1.351 . S
C5 H10 0.930 . S
O6 Cu0 1.974 1_556 S
O6 C16 1.282 . S
C7 O8 1.261 . S
C7 O20 1.251 . S
O8 C7 1.261 . S
H9 C3 0.930 . S
H10 C5 0.930 . S
N11 Cu0 1.985 1_556 S
N11 C13 1.335 . S
N11 C14 1.390 . S
N12 C13 1.345 . S
N12 C15 1.336 . S
C13 N11 1.335 . S
C13 N12 1.345 . S
C13 H18 0.930 . S
C14 N11 1.390 . S
C14 C15 1.346 . S
C14 H19 0.930 . S
C15 N12 1.336 . S
C15 C14 1.346 . S
C15 H22 0.929 . S
C16 O6 1.282 . S
C16 O17 1.216 . S
O17 C16 1.216 . S
H18 C13 0.930 . S
H19 C14 0.930 . S
O20 Cu0 1.959 . S
O20 C7 1.251 . S
H21 C4 0.930 . S
H22 C15 0.929 . S
Cu23 N24 1.999 1_554 S
Cu23 O29 1.974 . S
Cu23 N34 1.985 . S
Cu23 O43 1.959 1_554 S
N24 Cu23 1.999 1_556 S
N24 C26 1.263 . S
N24 C28 1.389 . S
N25 C26 1.358 . S
N25 C27 1.400 . S
C26 N24 1.263 . S
C26 N25 1.358 . S
C26 H32 0.930 . S
C27 N25 1.400 . S
C27 C28 1.351 . S
C27 H44 0.930 . S
C28 N24 1.389 . S
C28 C27 1.351 . S
C28 H33 0.930 . S
O29 Cu23 1.974 . S
O29 C39 1.282 . S
C30 O31 1.257 1_556 S
C30 O43 1.251 . S
O31 C30 1.257 1_554 S
H32 C26 0.930 . S
H33 C28 0.930 . S
N34 Cu23 1.985 . S
N34 C36 1.335 . S
N34 C37 1.390 . S
N35 C36 1.345 . S
N35 C38 1.336 . S
C36 N34 1.335 . S
C36 N35 1.345 . S
C36 H41 0.930 . S
C37 N34 1.390 . S
C37 C38 1.346 . S
C37 H42 0.930 . S
C38 N35 1.336 . S
C38 C37 1.346 . S
C38 H45 0.929 . S
C39 O29 1.282 . S
C39 O40 1.216 . S
O40 C39 1.216 . S
H41 C36 0.930 . S
H42 C37 0.930 . S
O43 Cu23 1.959 1_556 S
O43 C30 1.251 . S
H44 C27 0.930 . S
H45 C38 0.929 . S
Cu46 N47 1.999 1_554 S
Cu46 O52 1.969 . S
Cu46 N57 1.985 . S
Cu46 O66 1.959 . S
N47 Cu46 1.999 1_556 S
N47 C49 1.263 . S
N47 C51 1.389 1_545 S
N48 C49 1.358 . S
N48 C50 1.400 1_545 S
C49 N47 1.263 . S
C49 N48 1.358 . S
C49 H55 0.930 . S
C50 N48 1.400 1_565 S
C50 C51 1.351 . S
C50 H67 0.930 . S
C51 N47 1.389 1_565 S
C51 C50 1.351 . S
C51 H56 0.930 . S
O52 Cu46 1.969 . S
O52 C62 1.294 . S
C53 O54 1.261 . S
C53 O66 1.251 . S
O54 C53 1.261 . S
H55 C49 0.930 . S
H56 C51 0.930 . S
N57 Cu46 1.985 . S
N57 C59 1.335 . S
N57 C60 1.390 . S
N58 C59 1.345 . S
N58 C61 1.336 . S
C59 N57 1.335 . S
C59 N58 1.345 . S
C59 H64 0.930 . S
C60 N57 1.390 . S
C60 C61 1.346 . S
C60 H65 0.930 . S
C61 N58 1.336 . S
C61 C60 1.346 . S
C61 H68 0.929 . S
C62 O52 1.294 . S
C62 O63 1.216 . S
O63 C62 1.216 . S
H64 C59 0.930 . S
H65 C60 0.930 . S
O66 Cu46 1.959 . S
O66 C53 1.251 . S
H67 C50 0.930 . S
H68 C61 0.929 . S
Cu69 N70 1.999 . S
Cu69 O75 1.974 . S
Cu69 N80 1.985 . S
Cu69 O89 1.959 . S
N70 Cu69 1.999 . S
N70 C72 1.263 . S
N70 C74 1.389 . S
N71 C72 1.358 . S
N71 C73 1.400 . S
C72 N70 1.263 . S
C72 N71 1.358 . S
C72 H78 0.930 . S
C73 N71 1.400 . S
C73 C74 1.351 . S
C73 H90 0.930 . S
C74 N70 1.389 . S
C74 C73 1.351 . S
C74 H79 0.930 . S
O75 Cu69 1.974 . S
O75 C85 1.282 . S
C76 O77 1.261 . S
C76 O89 1.251 . S
O77 C76 1.261 . S
H78 C72 0.930 . S
H79 C74 0.930 . S
N80 Cu69 1.985 . S
N80 C82 1.335 . S
N80 C83 1.390 . S
N81 C82 1.345 . S
N81 C84 1.336 . S
C82 N80 1.335 . S
C82 N81 1.345 . S
C82 H87 0.930 . S
C83 N80 1.390 . S
C83 C84 1.346 . S
C83 H88 0.954 . S
C84 N81 1.336 . S
C84 C83 1.346 . S
C84 H91 0.929 1_545 S
C85 O75 1.282 . S
C85 O86 1.216 1_545 S
O86 C85 1.216 1_565 S
H87 C82 0.930 . S
H88 C83 0.954 . S
O89 Cu69 1.959 . S
O89 C76 1.251 . S
H90 C73 0.930 . S
H91 C84 0.929 1_565 S
Cu92 N93 1.999 . S
Cu92 O98 1.974 . S
Cu92 N103 1.985 . S
Cu92 O112 1.959 . S
N93 Cu92 1.999 . S
N93 C95 1.263 . S
N93 C97 1.389 . S
N94 C95 1.358 . S
N94 C96 1.400 . S
C95 N93 1.263 . S
C95 N94 1.358 . S
C95 H101 0.930 . S
C96 N94 1.400 . S
C96 C97 1.351 . S
C96 H113 0.930 . S
C97 N93 1.389 . S
C97 C96 1.351 . S
C97 H102 0.930 . S
O98 Cu92 1.974 . S
O98 C108 1.282 . S
C99 O100 1.261 . S
C99 O112 1.251 . S
O100 C99 1.261 . S
H101 C95 0.930 . S
H102 C97 0.930 . S
N103 Cu92 1.985 . S
N103 C105 1.335 . S
N103 C106 1.390 . S
N104 C105 1.345 . S
N104 C107 1.336 . S
C105 N103 1.335 . S
C105 N104 1.345 . S
C105 H110 0.930 . S
C106 N103 1.390 . S
C106 C107 1.346 . S
C106 H111 0.930 . S
C107 N104 1.336 . S
C107 C106 1.346 . S
C107 H114 0.929 . S
C108 O98 1.282 . S
C108 O109 1.216 . S
O109 C108 1.216 . S
H110 C105 0.930 . S
H111 C106 0.930 . S
O112 Cu92 1.959 . S
O112 C99 1.251 . S
H113 C96 0.930 . S
H114 C107 0.929 . S
Cu115 N116 1.999 . S
Cu115 O121 1.974 . S
Cu115 N126 1.985 . S
Cu115 O135 1.959 . S
N116 Cu115 1.999 . S
N116 C118 1.263 . S
N116 C120 1.389 . S
N117 C118 1.358 . S
N117 C119 1.400 . S
C118 N116 1.263 . S
C118 N117 1.358 . S
C118 H124 0.930 . S
C119 N117 1.400 . S
C119 C120 1.351 . S
C119 H136 0.930 . S
C120 N116 1.389 . S
C120 C119 1.351 . S
C120 H125 0.930 . S
O121 Cu115 1.974 . S
O121 C131 1.282 . S
C122 O123 1.261 . S
C122 O135 1.251 . S
O123 C122 1.261 . S
H124 C118 0.930 . S
H125 C120 0.930 . S
N126 Cu115 1.985 . S
N126 C128 1.335 . S
N126 C129 1.390 . S
N127 C128 1.345 . S
N127 C130 1.336 . S
C128 N126 1.335 . S
C128 N127 1.345 . S
C128 H133 0.930 . S
C129 N126 1.390 . S
C129 C130 1.346 . S
C129 H134 0.930 . S
C130 N127 1.336 . S
C130 C129 1.346 . S
C130 H137 0.929 . S
C131 O121 1.282 . S
C131 O132 1.216 . S
O132 C131 1.216 . S
H133 C128 0.930 . S
H134 C129 0.930 . S
O135 Cu115 1.959 . S
O135 C122 1.251 . S
H136 C119 0.930 . S
H137 C130 0.929 . S
Cu138 N139 1.999 . S
Cu138 O144 1.974 . S
Cu138 N149 1.985 . S
Cu138 O158 1.959 . S
N139 Cu138 1.999 . S
N139 C141 1.263 . S
N139 C143 1.389 . S
N140 C141 1.358 . S
N140 C142 1.400 . S
C141 N139 1.263 . S
C141 N140 1.358 . S
C141 H147 0.930 . S
C142 N140 1.400 . S
C142 C143 1.351 . S
C142 H159 0.930 . S
C143 N139 1.389 . S
C143 C142 1.351 . S
C143 H148 0.930 . S
O144 Cu138 1.974 . S
O144 C154 1.282 . S
C145 O146 1.261 . S
C145 O158 1.251 . S
O146 C145 1.261 . S
H147 C141 0.930 . S
H148 C143 0.930 . S
N149 Cu138 1.985 . S
N149 C151 1.335 . S
N149 C152 1.390 . S
N150 C151 1.345 . S
N150 C153 1.336 . S
C151 N149 1.335 . S
C151 N150 1.345 . S
C151 H156 0.930 . S
C152 N149 1.390 . S
C152 C153 1.346 . S
C152 H157 0.930 . S
C153 N150 1.336 . S
C153 C152 1.346 . S
C153 H160 0.929 . S
C154 O144 1.282 . S
C154 O155 1.216 . S
O155 C154 1.216 . S
H156 C151 0.930 . S
H157 C152 0.930 . S
O158 Cu138 1.959 . S
O158 C145 1.251 . S
H159 C142 0.930 . S
H160 C153 0.929 . S
Cu161 N162 1.999 . S
Cu161 O167 1.974 . S
Cu161 N172 1.985 . S
Cu161 O181 1.959 . S
N162 Cu161 1.999 . S
N162 C164 1.263 . S
N162 C166 1.389 . S
N163 C164 1.358 . S
N163 C165 1.400 . S
C164 N162 1.263 . S
C164 N163 1.358 . S
C164 H170 0.930 . S
C165 N163 1.400 . S
C165 C166 1.351 . S
C165 H182 0.930 . S
C166 N162 1.389 . S
C166 C165 1.351 . S
C166 H171 0.930 . S
O167 Cu161 1.974 . S
O167 C177 1.282 . S
C168 O169 1.261 . S
C168 O181 1.251 . S
O169 C168 1.261 . S
H170 C164 0.930 . S
H171 C166 0.930 . S
N172 Cu161 1.985 . S
N172 C174 1.335 . S
N172 C175 1.390 . S
N173 C174 1.345 . S
N173 C176 1.336 . S
C174 N172 1.335 . S
C174 N173 1.345 . S
C174 H179 0.930 . S
C175 N172 1.390 . S
C175 C176 1.346 . S
C175 H180 0.930 . S
C176 N173 1.336 . S
C176 C175 1.346 . S
C176 H183 0.929 . S
C177 O167 1.282 . S
C177 O178 1.216 . S
O178 C177 1.216 . S
H179 C174 0.930 . S
H180 C175 0.930 . S
O181 Cu161 1.959 . S
O181 C168 1.251 . S
H182 C165 0.930 . S
H183 C176 0.929 . S
Cu184 N185 1.999 . S
Cu184 O190 1.974 . S
Cu184 N195 1.985 . S
Cu184 O204 1.959 . S
N185 Cu184 1.999 . S
N185 C187 1.263 . S
N185 C189 1.389 . S
N186 C187 1.358 . S
N186 C188 1.400 . S
C187 N185 1.263 . S
C187 N186 1.358 . S
C187 H193 0.930 . S
C188 N186 1.400 . S
C188 C189 1.351 . S
C188 H205 0.930 . S
C189 N185 1.389 . S
C189 C188 1.351 . S
C189 H194 0.930 . S
O190 Cu184 1.974 . S
O190 C200 1.282 . S
C191 O192 1.261 . S
C191 O204 1.251 . S
O192 C191 1.261 . S
H193 C187 0.930 . S
H194 C189 0.930 . S
N195 Cu184 1.985 . S
N195 C197 1.335 . S
N195 C198 1.390 . S
N196 C197 1.345 . S
N196 C199 1.336 . S
C197 N195 1.335 . S
C197 N196 1.345 . S
C197 H202 0.930 . S
C198 N195 1.390 . S
C198 C199 1.346 . S
C198 H203 0.930 . S
C199 N196 1.336 . S
C199 C198 1.346 . S
C199 H206 0.929 . S
C200 O190 1.282 . S
C200 O201 1.216 . S
O201 C200 1.216 . S
H202 C197 0.930 . S
H203 C198 0.930 . S
O204 Cu184 1.959 . S
O204 C191 1.251 . S
H205 C188 0.930 . S
H206 C199 0.929 . S
Cu207 N208 1.999 . S
Cu207 O213 1.974 . S
Cu207 N218 1.985 . S
Cu207 O227 1.959 . S
N208 Cu207 1.999 . S
N208 C210 1.263 . S
N208 C212 1.389 . S
N209 C210 1.358 . S
N209 C211 1.400 . S
C210 N208 1.263 . S
C210 N209 1.358 . S
C210 H216 0.930 . S
C211 N209 1.400 . S
C211 C212 1.351 . S
C211 H228 0.930 . S
C212 N208 1.389 . S
C212 C211 1.351 . S
C212 H217 0.930 . S
O213 Cu207 1.974 . S
O213 C223 1.282 . S
C214 O215 1.261 . S
C214 O227 1.251 . S
O215 C214 1.261 . S
H216 C210 0.930 . S
H217 C212 0.930 . S
N218 Cu207 1.985 . S
N218 C220 1.335 . S
N218 C221 1.390 . S
N219 C220 1.345 . S
N219 C222 1.336 . S
C220 N218 1.335 . S
C220 N219 1.345 . S
C220 H225 0.930 . S
C221 N218 1.390 . S
C221 C222 1.346 . S
C221 H226 0.930 . S
C222 N219 1.336 . S
C222 C221 1.346 . S
C222 H229 0.929 . S
C223 O213 1.282 . S
C223 O224 1.216 . S
O224 C223 1.216 . S
H225 C220 0.930 . S
H226 C221 0.930 . S
O227 Cu207 1.959 . S
O227 C214 1.251 . S
H228 C211 0.930 . S
H229 C222 0.929 . S
Cu230 N231 1.999 . S
Cu230 O236 1.974 . S
Cu230 N241 1.985 . S
Cu230 O250 1.959 . S
N231 Cu230 1.999 . S
N231 C233 1.263 . S
N231 C235 1.389 . S
N232 C233 1.358 . S
N232 C234 1.400 . S
C233 N231 1.263 . S
C233 N232 1.358 . S
C233 H239 0.930 . S
C234 N232 1.400 . S
C234 C235 1.351 . S
C234 H251 0.930 . S
C235 N231 1.389 . S
C235 C234 1.351 . S
C235 H240 0.930 . S
O236 Cu230 1.974 . S
O236 C246 1.282 . S
C237 O238 1.261 . S
C237 O250 1.251 . S
O238 C237 1.261 . S
H239 C233 0.930 . S
H240 C235 0.930 . S
N241 Cu230 1.985 . S
N241 C243 1.335 . S
N241 C244 1.390 . S
N242 C243 1.345 . S
N242 C245 1.336 . S
C243 N241 1.335 . S
C243 N242 1.345 . S
C243 H248 0.930 . S
C244 N241 1.390 . S
C244 C245 1.346 . S
C244 H249 0.930 . S
C245 N242 1.336 . S
C245 C244 1.346 . S
C245 H252 0.929 . S
C246 O236 1.282 . S
C246 O247 1.216 . S
O247 C246 1.216 . S
H248 C243 0.930 . S
H249 C244 0.930 . S
O250 Cu230 1.959 . S
O250 C237 1.251 . S
H251 C234 0.930 . S
H252 C245 0.929 . S
Cu253 N254 1.999 . S
Cu253 O259 1.974 . S
Cu253 N264 1.985 . S
Cu253 O273 1.959 . S
N254 Cu253 1.999 . S
N254 C256 1.263 . S
N254 C258 1.389 . S
N255 C256 1.358 . S
N255 C257 1.400 . S
C256 N254 1.263 . S
C256 N255 1.358 . S
C256 H262 0.930 . S
C257 N255 1.400 . S
C257 C258 1.351 . S
C257 H274 0.930 . S
C258 N254 1.389 . S
C258 C257 1.351 . S
C258 H263 0.930 . S
O259 Cu253 1.974 . S
O259 C269 1.282 . S
C260 O261 1.261 . S
C260 O273 1.251 . S
O261 C260 1.261 . S
H262 C256 0.930 . S
H263 C258 0.930 . S
N264 Cu253 1.985 . S
N264 C266 1.335 . S
N264 C267 1.390 . S
N265 C266 1.345 . S
N265 C268 1.336 . S
C266 N264 1.335 . S
C266 N265 1.345 . S
C266 H271 0.930 . S
C267 N264 1.390 . S
C267 C268 1.346 . S
C267 H272 0.930 . S
C268 N265 1.336 . S
C268 C267 1.346 . S
C268 H275 0.929 . S
C269 O259 1.282 . S
C269 O270 1.216 . S
O270 C269 1.216 . S
H271 C266 0.930 . S
H272 C267 0.930 . S
O273 Cu253 1.959 . S
O273 C260 1.251 . S
H274 C257 0.930 . S
H275 C268 0.929 . S
Cu276 N277 1.999 . S
Cu276 O282 1.974 . S
Cu276 N287 1.985 . S
Cu276 O296 1.959 . S
N277 Cu276 1.999 . S
N277 C279 1.263 . S
N277 C281 1.389 . S
N278 C279 1.358 . S
N278 C280 1.400 . S
C279 N277 1.263 . S
C279 N278 1.358 . S
C279 H285 0.930 . S
C280 N278 1.400 . S
C280 C281 1.351 . S
C280 H297 0.930 . S
C281 N277 1.389 . S
C281 C280 1.351 . S
C281 H286 0.930 . S
O282 Cu276 1.974 . S
O282 C292 1.282 . S
C283 O284 1.261 . S
C283 O296 1.251 . S
O284 C283 1.261 . S
H285 C279 0.930 . S
H286 C281 0.930 . S
N287 Cu276 1.985 . S
N287 C289 1.335 . S
N287 C290 1.390 . S
N288 C289 1.345 . S
N288 C291 1.336 . S
C289 N287 1.335 . S
C289 N288 1.345 . S
C289 H294 0.930 . S
C290 N287 1.390 . S
C290 C291 1.346 . S
C290 H295 0.930 . S
C291 N288 1.336 . S
C291 C290 1.346 . S
C291 H298 0.929 . S
C292 O282 1.282 . S
C292 O293 1.216 . S
O293 C292 1.216 . S
H294 C289 0.930 . S
H295 C290 0.930 . S
O296 Cu276 1.959 . S
O296 C283 1.251 . S
H297 C280 0.930 . S
H298 C291 0.929 . S
Cu299 N300 1.999 . S
Cu299 O305 1.974 . S
Cu299 N310 1.985 . S
Cu299 O319 1.959 . S
N300 Cu299 1.999 . S
N300 C302 1.263 . S
N300 C304 1.389 . S
N301 C302 1.358 . S
N301 C303 1.400 . S
C302 N300 1.263 . S
C302 N301 1.358 . S
C302 H308 0.930 . S
C303 N301 1.400 . S
C303 C304 1.351 . S
C303 H320 0.930 . S
C304 N300 1.389 . S
C304 C303 1.351 . S
C304 H309 0.930 . S
O305 Cu299 1.974 . S
O305 C315 1.282 . S
C306 O307 1.261 . S
C306 O319 1.251 . S
O307 C306 1.261 . S
H308 C302 0.930 . S
H309 C304 0.930 . S
N310 Cu299 1.985 . S
N310 C312 1.335 . S
N310 C313 1.390 . S
N311 C312 1.345 . S
N311 C314 1.336 . S
C312 N310 1.335 . S
C312 N311 1.345 . S
C312 H317 0.930 . S
C313 N310 1.390 . S
C313 C314 1.346 . S
C313 H318 0.930 . S
C314 N311 1.336 . S
C314 C313 1.346 . S
C314 H321 0.929 . S
C315 O305 1.282 . S
C315 O316 1.216 . S
O316 C315 1.216 . S
H317 C312 0.930 . S
H318 C313 0.930 . S
O319 Cu299 1.959 . S
O319 C306 1.251 . S
H320 C303 0.930 . S
H321 C314 0.929 . S
Cu322 N323 1.999 . S
Cu322 O328 1.974 . S
Cu322 N333 1.985 . S
Cu322 O342 1.959 . S
N323 Cu322 1.999 . S
N323 C325 1.263 . S
N323 C327 1.389 . S
N324 C325 1.358 . S
N324 C326 1.400 . S
C325 N323 1.263 . S
C325 N324 1.358 . S
C325 H331 0.930 . S
C326 N324 1.400 . S
C326 C327 1.351 . S
C326 H343 0.930 . S
C327 N323 1.389 . S
C327 C326 1.351 . S
C327 H332 0.930 . S
O328 Cu322 1.974 . S
O328 C338 1.282 . S
C329 O330 1.261 . S
C329 O342 1.251 . S
O330 C329 1.261 . S
H331 C325 0.930 . S
H332 C327 0.930 . S
N333 Cu322 1.985 . S
N333 C335 1.335 . S
N333 C336 1.390 . S
N334 C335 1.345 . S
N334 C337 1.336 . S
C335 N333 1.335 . S
C335 N334 1.345 . S
C335 H340 0.930 . S
C336 N333 1.390 . S
C336 C337 1.346 . S
C336 H341 0.930 . S
C337 N334 1.336 . S
C337 C336 1.346 . S
C337 H344 0.929 . S
C338 O328 1.282 . S
C338 O339 1.216 . S
O339 C338 1.216 . S
H340 C335 0.930 . S
H341 C336 0.930 . S
O342 Cu322 1.959 . S
O342 C329 1.251 . S
H343 C326 0.930 . S
H344 C337 0.929 . S
Cu345 N346 1.999 . S
Cu345 O351 1.974 . S
Cu345 N356 1.985 . S
Cu345 O365 1.959 . S
N346 Cu345 1.999 . S
N346 C348 1.263 . S
N346 C350 1.389 . S
N347 C348 1.358 . S
N347 C349 1.400 . S
C348 N346 1.263 . S
C348 N347 1.358 . S
C348 H354 0.930 . S
C349 N347 1.400 . S
C349 C350 1.351 . S
C349 H366 0.930 . S
C350 N346 1.389 . S
C350 C349 1.351 . S
C350 H355 0.930 . S
O351 Cu345 1.974 . S
O351 C361 1.282 . S
C352 O353 1.261 . S
C352 O365 1.251 . S
O353 C352 1.261 . S
H354 C348 0.930 . S
H355 C350 0.930 . S
N356 Cu345 1.985 . S
N356 C358 1.335 . S
N356 C359 1.390 . S
N357 C358 1.345 . S
N357 C360 1.336 . S
C358 N356 1.335 . S
C358 N357 1.345 . S
C358 H363 0.930 . S
C359 N356 1.390 . S
C359 C360 1.346 . S
C359 H364 0.930 . S
C360 N357 1.336 . S
C360 C359 1.346 . S
C360 H367 0.929 . S
C361 O351 1.282 . S
C361 O362 1.216 . S
O362 C361 1.216 . S
H363 C358 0.930 . S
H364 C359 0.930 . S
O365 Cu345 1.959 . S
O365 C352 1.251 . S
H366 C349 0.930 . S
H367 C360 0.929 . S
Cu368 N369 1.999 . S
Cu368 O374 1.974 . S
Cu368 N379 1.985 . S
Cu368 O388 1.959 . S
N369 Cu368 1.999 . S
N369 C371 1.263 . S
N369 C373 1.389 . S
N370 C371 1.358 . S
N370 C372 1.400 . S
C371 N369 1.263 . S
C371 N370 1.358 . S
C371 H377 0.930 . S
C372 N370 1.400 . S
C372 C373 1.351 . S
C372 H389 0.930 . S
C373 N369 1.389 . S
C373 C372 1.351 . S
C373 H378 0.930 . S
O374 Cu368 1.974 . S
O374 C384 1.282 . S
C375 O376 1.261 . S
C375 O388 1.251 . S
O376 C375 1.261 . S
H377 C371 0.930 . S
H378 C373 0.930 . S
N379 Cu368 1.985 . S
N379 C381 1.335 . S
N379 C382 1.390 . S
N380 C381 1.345 . S
N380 C383 1.336 . S
C381 N379 1.335 . S
C381 N380 1.345 . S
C381 H386 0.930 . S
C382 N379 1.390 . S
C382 C383 1.346 . S
C382 H387 0.930 . S
C383 N380 1.336 . S
C383 C382 1.346 . S
C383 H390 0.929 . S
C384 O374 1.282 . S
C384 O385 1.216 . S
O385 C384 1.216 . S
H386 C381 0.930 . S
H387 C382 0.930 . S
O388 Cu368 1.959 . S
O388 C375 1.251 . S
H389 C372 0.930 . S
H390 C383 0.929 . S
Cu391 N392 1.999 . S
Cu391 O397 1.974 . S
Cu391 N402 1.985 . S
Cu391 O411 1.959 . S
N392 Cu391 1.999 . S
N392 C394 1.263 . S
N392 C396 1.389 . S
N393 C394 1.358 . S
N393 C395 1.400 . S
C394 N392 1.263 . S
C394 N393 1.358 . S
C394 H400 0.930 . S
C395 N393 1.400 . S
C395 C396 1.351 . S
C395 H412 0.930 . S
C396 N392 1.389 . S
C396 C395 1.351 . S
C396 H401 0.930 . S
O397 Cu391 1.974 . S
O397 C407 1.282 . S
C398 O399 1.261 . S
C398 O411 1.251 . S
O399 C398 1.261 . S
H400 C394 0.930 . S
H401 C396 0.930 . S
N402 Cu391 1.985 . S
N402 C404 1.335 . S
N402 C405 1.390 . S
N403 C404 1.345 . S
N403 C406 1.336 . S
C404 N402 1.335 . S
C404 N403 1.345 . S
C404 H409 0.930 . S
C405 N402 1.390 . S
C405 C406 1.346 . S
C405 H410 0.930 . S
C406 N403 1.336 . S
C406 C405 1.346 . S
C406 H413 0.929 . S
C407 O397 1.282 . S
C407 O408 1.216 . S
O408 C407 1.216 . S
H409 C404 0.930 . S
H410 C405 0.930 . S
O411 Cu391 1.959 . S
O411 C398 1.251 . S
H412 C395 0.930 . S
H413 C406 0.929 . S
C414 O415 1.306 . S
C414 O417 1.160 . S
O415 C414 1.306 . S
O415 Cd416 2.228 1_455 S
Cd416 O415 2.228 1_655 S
Cd416 O420 2.273 . S
Cd416 O424 2.277 1_655 S
O417 C414 1.160 . S
O417 Cd418 2.203 . S
Cd418 O417 2.203 . S
Cd418 O420 2.411 1_455 S
Cd418 O421 2.333 1_455 S
Cd418 O422 2.352 . S
Cd418 O426 2.277 . S
Cd418 O427 2.356 . S
C419 O424 1.209 . S
C419 O426 1.226 . S
O420 Cd416 2.273 . S
O420 Cd418 2.411 1_655 S
O420 C423 1.320 . S
O421 Cd418 2.333 1_655 S
O421 C423 1.214 . S
O422 Cd418 2.352 . S
O422 C425 1.258 . S
C423 O420 1.320 . S
C423 O421 1.214 . S
O424 Cd416 2.277 1_455 S
O424 C419 1.209 . S
C425 O422 1.258 . S
C425 O427 1.282 . S
O426 Cd418 2.277 . S
O426 C419 1.226 . S
O427 Cd418 2.356 . S
O427 C425 1.282 . S
C428 O429 1.306 . S
C428 O431 1.160 . S
O429 C428 1.306 . S
O429 Cd430 2.228 . S
Cd430 O429 2.228 . S
Cd430 O434 2.273 . S
Cd430 O438 2.277 . S
O431 C428 1.160 . S
O431 Cd432 2.203 . S
Cd432 O431 2.203 . S
Cd432 O434 2.411 . S
Cd432 O435 2.333 . S
Cd432 O436 2.352 . S
Cd432 O440 2.277 . S
Cd432 O441 2.356 . S
C433 O438 1.209 . S
C433 O440 1.226 . S
O434 Cd430 2.273 . S
O434 Cd432 2.411 . S
O434 C437 1.320 . S
O435 Cd432 2.333 . S
O435 C437 1.214 . S
O436 Cd432 2.352 . S
O436 C439 1.258 . S
C437 O434 1.320 . S
C437 O435 1.214 . S
O438 Cd430 2.277 . S
O438 C433 1.209 . S
C439 O436 1.258 . S
C439 O441 1.282 . S
O440 Cd432 2.277 . S
O440 C433 1.226 . S
O441 Cd432 2.356 . S
O441 C439 1.282 . S
C442 O443 1.306 . S
C442 O445 1.160 . S
O443 C442 1.306 . S
O443 Cd444 2.228 . S
Cd444 O443 2.228 . S
Cd444 O448 2.273 . S
Cd444 O452 2.277 . S
O445 C442 1.160 . S
O445 Cd446 2.203 . S
Cd446 O445 2.203 . S
Cd446 O448 2.411 . S
Cd446 O449 2.333 . S
Cd446 O450 2.352 . S
Cd446 O454 2.277 . S
Cd446 O455 2.356 . S
C447 O452 1.209 . S
C447 O454 1.226 . S
O448 Cd444 2.273 . S
O448 Cd446 2.411 . S
O448 C451 1.320 . S
O449 Cd446 2.333 . S
O449 C451 1.214 . S
O450 Cd446 2.352 . S
O450 C453 1.258 . S
C451 O448 1.320 . S
C451 O449 1.214 . S
O452 Cd444 2.277 . S
O452 C447 1.209 . S
C453 O450 1.258 . S
C453 O455 1.282 . S
O454 Cd446 2.277 . S
O454 C447 1.226 . S
O455 Cd446 2.356 . S
O455 C453 1.282 . S
C456 O457 1.306 . S
C456 O459 1.160 . S
O457 C456 1.306 . S
O457 Cd458 2.228 . S
Cd458 O457 2.228 . S
Cd458 O462 2.273 . S
Cd458 O466 2.277 . S
O459 C456 1.160 . S
O459 Cd460 2.203 . S
Cd460 O459 2.203 . S
Cd460 O462 2.411 . S
Cd460 O463 2.333 . S
Cd460 O464 2.352 . S
Cd460 O468 2.277 1_455 S
Cd460 O469 2.356 . S
C461 O466 1.209 1_655 S
C461 O468 1.226 . S
O462 Cd458 2.273 . S
O462 Cd460 2.411 . S
O462 C465 1.320 . S
O463 Cd460 2.333 . S
O463 C465 1.214 . S
O464 Cd460 2.352 . S
O464 C467 1.258 . S
C465 O462 1.320 . S
C465 O463 1.214 . S
O466 Cd458 2.277 . S
O466 C461 1.209 1_455 S
C467 O464 1.258 . S
C467 O469 1.282 . S
O468 Cd460 2.277 1_655 S
O468 C461 1.226 . S
O469 Cd460 2.356 . S
O469 C467 1.282 . S
C470 O471 1.306 . S
C470 O473 1.160 . S
O471 C470 1.306 . S
O471 Cd472 2.228 . S
Cd472 O471 2.228 . S
Cd472 O476 2.273 . S
Cd472 O480 2.277 . S
O473 C470 1.160 . S
O473 Cd474 2.203 . S
Cd474 O473 2.203 . S
Cd474 O476 2.411 . S
Cd474 O477 2.333 . S
Cd474 O478 2.352 . S
Cd474 O482 2.277 . S
Cd474 O483 2.356 . S
C475 O480 1.209 . S
C475 O482 1.226 . S
O476 Cd472 2.273 . S
O476 Cd474 2.411 . S
O476 C479 1.320 . S
O477 Cd474 2.333 . S
O477 C479 1.214 . S
O478 Cd474 2.352 . S
O478 C481 1.258 . S
C479 O476 1.320 . S
C479 O477 1.214 . S
O480 Cd472 2.277 . S
O480 C475 1.209 . S
C481 O478 1.258 . S
C481 O483 1.282 . S
O482 Cd474 2.277 . S
O482 C475 1.226 . S
O483 Cd474 2.356 . S
O483 C481 1.282 . S
C484 O485 1.306 . S
C484 O487 1.160 . S
O485 C484 1.306 . S
O485 Cd486 2.228 . S
Cd486 O485 2.228 . S
Cd486 O490 2.273 . S
Cd486 O494 2.277 . S
O487 C484 1.160 . S
O487 Cd488 2.203 . S
Cd488 O487 2.203 . S
Cd488 O490 2.411 . S
Cd488 O491 2.333 . S
Cd488 O492 2.352 . S
Cd488 O496 2.277 1_545 S
Cd488 O497 2.356 . S
C489 O494 1.209 . S
C489 O496 1.226 1_545 S
O490 Cd486 2.273 . S
O490 Cd488 2.411 . S
O490 C493 1.320 . S
O491 Cd488 2.333 . S
O491 C493 1.214 . S
O492 Cd488 2.352 . S
O492 C495 1.258 . S
C493 O490 1.320 . S
C493 O491 1.214 . S
O494 Cd486 2.277 . S
O494 C489 1.209 . S
C495 O492 1.258 . S
C495 O497 1.282 . S
O496 Cd488 2.277 1_565 S
O496 C489 1.226 1_565 S
O497 Cd488 2.356 . S
O497 C495 1.282 . S
C498 O499 1.306 . S
C498 O501 1.160 . S
O499 C498 1.306 . S
O499 Cd500 2.228 1_565 S
Cd500 O499 2.228 1_545 S
Cd500 O504 2.273 1_545 S
Cd500 O508 2.277 . S
O501 C498 1.160 . S
O501 Cd502 2.161 1_565 S
Cd502 O501 2.161 1_545 S
Cd502 O504 2.431 1_545 S
Cd502 O505 2.376 . S
Cd502 O506 2.297 1_545 S
Cd502 O510 2.322 . S
Cd502 O511 2.335 1_545 S
C503 O508 1.209 . S
C503 O510 1.226 . S
O504 Cd500 2.273 1_565 S
O504 Cd502 2.431 1_565 S
O504 C507 1.320 1_565 S
O505 Cd502 2.376 . S
O505 C507 1.214 . S
O506 Cd502 2.297 1_565 S
O506 C509 1.258 . S
C507 O504 1.320 1_545 S
C507 O505 1.214 . S
O508 Cd500 2.277 . S
O508 C503 1.209 . S
C509 O506 1.258 . S
C509 O511 1.282 . S
O510 Cd502 2.322 . S
O510 C503 1.226 . S
O511 Cd502 2.335 1_565 S
O511 C509 1.282 . S
C512 O513 1.306 . S
C512 O515 1.160 . S
O513 C512 1.306 . S
O513 Cd514 2.228 . S
Cd514 O513 2.228 . S
Cd514 O518 2.273 . S
Cd514 O522 2.277 . S
O515 C512 1.160 . S
O515 Cd516 2.203 . S
Cd516 O515 2.203 . S
Cd516 O518 2.411 . S
Cd516 O519 2.333 . S
Cd516 O520 2.352 . S
Cd516 O524 2.277 . S
Cd516 O525 2.356 . S
C517 O522 1.209 . S
C517 O524 1.226 . S
O518 Cd514 2.273 . S
O518 Cd516 2.411 . S
O518 C521 1.320 . S
O519 Cd516 2.333 . S
O519 C521 1.214 . S
O520 Cd516 2.352 . S
O520 C523 1.258 . S
C521 O518 1.320 . S
C521 O519 1.214 . S
O522 Cd514 2.277 . S
O522 C517 1.209 . S
C523 O520 1.258 . S
C523 O525 1.282 . S
O524 Cd516 2.277 . S
O524 C517 1.226 . S
O525 Cd516 2.356 . S
O525 C523 1.282 . S
C526 O527 1.306 . S
C526 O529 1.160 . S
O527 C526 1.306 . S
O527 Cd528 2.228 . S
Cd528 O527 2.228 . S
Cd528 O532 2.273 . S
Cd528 O536 2.277 . S
O529 C526 1.160 . S
O529 Cd530 2.203 . S
Cd530 O529 2.203 . S
Cd530 O532 2.411 . S
Cd530 O533 2.333 . S
Cd530 O534 2.352 . S
Cd530 O538 2.277 . S
Cd530 O539 2.356 . S
C531 O536 1.209 . S
C531 O538 1.226 . S
O532 Cd528 2.273 . S
O532 Cd530 2.411 . S
O532 C535 1.320 . S
O533 Cd530 2.333 . S
O533 C535 1.214 . S
O534 Cd530 2.352 . S
O534 C537 1.258 . S
C535 O532 1.320 . S
C535 O533 1.214 . S
O536 Cd528 2.277 . S
O536 C531 1.209 . S
C537 O534 1.258 . S
C537 O539 1.282 . S
O538 Cd530 2.277 . S
O538 C531 1.226 . S
O539 Cd530 2.356 . S
O539 C537 1.282 . S
C540 O541 1.306 . S
C540 O543 1.160 . S
O541 C540 1.306 . S
O541 Cd542 2.228 . S
Cd542 O541 2.228 . S
Cd542 O546 2.273 . S
Cd542 O550 2.277 . S
O543 C540 1.160 . S
O543 Cd544 2.203 . S
Cd544 O543 2.203 . S
Cd544 O546 2.411 . S
Cd544 O547 2.333 . S
Cd544 O548 2.352 . S
Cd544 O552 2.277 . S
Cd544 O553 2.356 . S
C545 O550 1.209 . S
C545 O552 1.226 . S
O546 Cd542 2.273 . S
O546 Cd544 2.411 . S
O546 C549 1.320 . S
O547 Cd544 2.333 . S
O547 C549 1.214 . S
O548 Cd544 2.352 . S
O548 C551 1.258 . S
C549 O546 1.320 . S
C549 O547 1.214 . S
O550 Cd542 2.277 . S
O550 C545 1.209 . S
C551 O548 1.258 . S
C551 O553 1.282 . S
O552 Cd544 2.277 . S
O552 C545 1.226 . S
O553 Cd544 2.356 . S
O553 C551 1.282 . S
C554 O555 1.305 . S
C554 O557 1.162 1_565 S
O555 C554 1.305 . S
O555 Cd556 2.227 1_565 S
Cd556 O555 2.227 1_545 S
Cd556 O560 2.273 1_545 S
Cd556 O564 2.279 . S
O557 C554 1.162 1_545 S
O557 Cd558 2.203 1_545 S
Cd558 O557 2.203 1_565 S
Cd558 O560 2.411 . S
Cd558 O561 2.333 . S
Cd558 O562 2.352 . S
Cd558 O566 2.277 1_565 S
Cd558 O567 2.356 . S
C559 O564 1.209 . S
C559 O566 1.226 . S
O560 Cd556 2.273 1_565 S
O560 Cd558 2.411 . S
O560 C563 1.320 . S
O561 Cd558 2.333 . S
O561 C563 1.214 . S
O562 Cd558 2.352 . S
O562 C565 1.258 . S
C563 O560 1.320 . S
C563 O561 1.214 . S
O564 Cd556 2.279 . S
O564 C559 1.209 . S
C565 O562 1.258 . S
C565 O567 1.282 . S
O566 Cd558 2.277 1_545 S
O566 C559 1.226 . S
O567 Cd558 2.356 . S
O567 C565 1.282 . S
C568 O569 1.306 . S
C568 O571 1.160 . S
O569 C568 1.306 . S
O569 Cd570 2.228 . S
Cd570 O569 2.228 . S
Cd570 O574 2.273 . S
Cd570 O578 2.277 . S
O571 C568 1.160 . S
O571 Cd572 2.203 . S
Cd572 O571 2.203 . S
Cd572 O574 2.411 . S
Cd572 O575 2.333 . S
Cd572 O576 2.352 . S
Cd572 O580 2.277 . S
Cd572 O581 2.356 . S
C573 O578 1.209 . S
C573 O580 1.226 . S
O574 Cd570 2.273 . S
O574 Cd572 2.411 . S
O574 C577 1.320 . S
O575 Cd572 2.333 . S
O575 C577 1.214 . S
O576 Cd572 2.352 . S
O576 C579 1.258 . S
C577 O574 1.320 . S
C577 O575 1.214 . S
O578 Cd570 2.277 . S
O578 C573 1.209 . S
C579 O576 1.258 . S
C579 O581 1.282 . S
O580 Cd572 2.277 . S
O580 C573 1.226 . S
O581 Cd572 2.356 . S
O581 C579 1.282 . S
C582 O583 1.306 . S
C582 O585 1.160 . S
O583 C582 1.306 . S
O583 Cd584 2.228 . S
Cd584 O583 2.228 . S
Cd584 O588 2.273 . S
Cd584 O592 2.277 . S
O585 C582 1.160 . S
O585 Cd586 2.203 . S
Cd586 O585 2.203 . S
Cd586 O588 2.411 . S
Cd586 O589 2.333 . S
Cd586 O590 2.352 . S
Cd586 O594 2.277 . S
Cd586 O595 2.356 . S
C587 O592 1.209 . S
C587 O594 1.226 . S
O588 Cd584 2.273 . S
O588 Cd586 2.411 . S
O588 C591 1.320 . S
O589 Cd586 2.333 . S
O589 C591 1.214 . S
O590 Cd586 2.352 . S
O590 C593 1.258 . S
C591 O588 1.320 . S
C591 O589 1.214 . S
O592 Cd584 2.277 . S
O592 C587 1.209 . S
C593 O590 1.258 . S
C593 O595 1.282 . S
O594 Cd586 2.277 . S
O594 C587 1.226 . S
O595 Cd586 2.356 . S
O595 C593 1.282 . S
C596 O597 1.306 . S
C596 O599 1.160 . S
O597 C596 1.306 . S
O597 Cd598 2.228 . S
Cd598 O597 2.228 . S
Cd598 O602 2.273 . S
Cd598 O606 2.277 . S
O599 C596 1.160 . S
O599 Cd600 2.203 . S
Cd600 O599 2.203 . S
Cd600 O602 2.411 . S
Cd600 O603 2.333 . S
Cd600 O604 2.352 . S
Cd600 O608 2.277 . S
Cd600 O609 2.356 . S
C601 O606 1.209 . S
C601 O608 1.226 . S
O602 Cd598 2.273 . S
O602 Cd600 2.411 . S
O602 C605 1.320 . S
O603 Cd600 2.333 . S
O603 C605 1.214 . S
O604 Cd600 2.352 . S
O604 C607 1.258 . S
C605 O602 1.320 . S
C605 O603 1.214 . S
O606 Cd598 2.277 . S
O606 C601 1.209 . S
C607 O604 1.258 . S
C607 O609 1.282 . S
O608 Cd600 2.277 . S
O608 C601 1.226 . S
O609 Cd600 2.356 . S
O609 C607 1.282 . S
C610 O611 1.306 . S
C610 O613 1.160 . S
O611 C610 1.306 . S
O611 Cd612 2.228 . S
Cd612 O611 2.228 . S
Cd612 O616 2.273 . S
Cd612 O620 2.277 1_655 S
O613 C610 1.160 . S
O613 Cd614 2.203 . S
Cd614 O613 2.203 . S
Cd614 O616 2.411 . S
Cd614 O617 2.333 . S
Cd614 O618 2.352 . S
Cd614 O622 2.264 1_655 S
Cd614 O623 2.356 . S
C615 O620 1.209 . S
C615 O622 1.248 . S
O616 Cd612 2.273 . S
O616 Cd614 2.411 . S
O616 C619 1.320 . S
O617 Cd614 2.333 . S
O617 C619 1.214 . S
O618 Cd614 2.352 . S
O618 C621 1.258 . S
C619 O616 1.320 . S
C619 O617 1.214 . S
O620 Cd612 2.277 1_455 S
O620 C615 1.209 . S
C621 O618 1.258 . S
C621 O623 1.282 . S
O622 Cd614 2.264 1_455 S
O622 C615 1.248 . S
O623 Cd614 2.356 . S
O623 C621 1.282 . S
C624 O625 1.306 . S
C624 O627 1.160 . S
O625 C624 1.306 . S
O625 Cd626 2.228 . S
Cd626 O625 2.228 . S
Cd626 O630 2.273 . S
Cd626 O634 2.277 . S
O627 C624 1.160 . S
O627 Cd628 2.203 . S
Cd628 O627 2.203 . S
Cd628 O630 2.411 . S
Cd628 O631 2.333 . S
Cd628 O632 2.352 . S
Cd628 O636 2.277 . S
Cd628 O637 2.356 . S
C629 O634 1.209 . S
C629 O636 1.226 . S
O630 Cd626 2.273 . S
O630 Cd628 2.411 . S
O630 C633 1.320 . S
O631 Cd628 2.333 . S
O631 C633 1.214 . S
O632 Cd628 2.352 . S
O632 C635 1.258 . S
C633 O630 1.320 . S
C633 O631 1.214 . S
O634 Cd626 2.277 . S
O634 C629 1.209 . S
C635 O632 1.258 . S
C635 O637 1.282 . S
O636 Cd628 2.277 . S
O636 C629 1.226 . S
O637 Cd628 2.356 . S
O637 C635 1.282 . S
C638 O639 1.306 . S
C638 O641 1.160 1_455 S
O639 C638 1.306 . S
O639 Cd640 2.228 1_455 S
Cd640 O639 2.228 1_655 S
Cd640 O644 2.273 . S
Cd640 O648 2.277 . S
O641 C638 1.160 1_655 S
O641 Cd642 2.203 . S
Cd642 O641 2.203 . S
Cd642 O644 2.411 . S
Cd642 O645 2.333 . S
Cd642 O646 2.352 . S
Cd642 O650 2.277 . S
Cd642 O651 2.356 . S
C643 O648 1.209 . S
C643 O650 1.226 . S
O644 Cd640 2.273 . S
O644 Cd642 2.411 . S
O644 C647 1.320 . S
O645 Cd642 2.333 . S
O645 C647 1.214 . S
O646 Cd642 2.352 . S
O646 C649 1.258 . S
C647 O644 1.320 . S
C647 O645 1.214 . S
O648 Cd640 2.277 . S
O648 C643 1.209 . S
C649 O646 1.258 . S
C649 O651 1.282 . S
O650 Cd642 2.277 . S
O650 C643 1.226 . S
O651 Cd642 2.356 . S
O651 C649 1.282 . S
C652 O653 1.306 . S
C652 O655 1.160 . S
O653 C652 1.306 . S
O653 Cd654 2.228 . S
Cd654 O653 2.228 . S
Cd654 O658 2.273 . S
Cd654 O662 2.277 . S
O655 C652 1.160 . S
O655 Cd656 2.203 . S
Cd656 O655 2.203 . S
Cd656 O658 2.411 . S
Cd656 O659 2.333 . S
Cd656 O660 2.352 . S
Cd656 O664 2.277 . S
Cd656 O665 2.356 . S
C657 O662 1.209 . S
C657 O664 1.226 . S
O658 Cd654 2.273 . S
O658 Cd656 2.411 . S
O658 C661 1.320 . S
O659 Cd656 2.333 . S
O659 C661 1.214 . S
O660 Cd656 2.352 . S
O660 C663 1.258 . S
C661 O658 1.320 . S
C661 O659 1.214 . S
O662 Cd654 2.277 . S
O662 C657 1.209 . S
C663 O660 1.258 . S
C663 O665 1.282 . S
O664 Cd656 2.277 . S
O664 C657 1.226 . S
O665 Cd656 2.356 . S
O665 C663 1.282 . S
H666 C672 0.930 . S
H667 C676 0.930 . S
H668 C681 0.929 . S
H669 C679 0.929 . S
H670 C674 0.929 . S
H671 C680 0.929 . S
C672 H666 0.930 . S
C672 C673 1.367 . S
C672 C680 1.378 . S
C673 C672 1.367 . S
C673 C681 1.433 . S
C674 H670 0.929 . S
C674 C676 1.378 . S
C674 C678 1.350 . S
C675 C678 1.463 . S
C675 C680 1.350 . S
C675 N683 1.427 . S
C676 H667 0.930 . S
C676 C674 1.378 . S
C676 C677 1.367 . S
C677 C676 1.367 . S
C677 C679 1.433 . S
C678 C674 1.350 . S
C678 C675 1.463 . S
C678 N682 1.427 . S
C679 H669 0.929 . S
C679 C677 1.433 . S
C679 N682 1.384 . S
C680 H671 0.929 . S
C680 C672 1.378 . S
C680 C675 1.350 . S
C681 H668 0.929 . S
C681 C673 1.433 . S
C681 N683 1.384 . S
N682 C678 1.427 . S
N682 C679 1.384 . S
N683 C675 1.427 . S
N683 C681 1.384 . S
H684 C690 0.930 . S
H685 C694 0.930 . S
H686 C699 0.929 . S
H687 C697 0.929 . S
H688 C692 0.929 . S
H689 C698 0.929 . S
C690 H684 0.930 . S
C690 C691 1.367 . S
C690 C698 1.378 . S
C691 C690 1.367 . S
C691 C699 1.433 . S
C692 H688 0.929 . S
C692 C694 1.378 . S
C692 C696 1.350 . S
C693 C696 1.463 . S
C693 C698 1.350 . S
C693 N701 1.427 . S
C694 H685 0.930 . S
C694 C692 1.378 . S
C694 C695 1.367 . S
C695 C694 1.367 . S
C695 C697 1.433 . S
C696 C692 1.350 . S
C696 C693 1.463 . S
C696 N700 1.427 . S
C697 H687 0.929 . S
C697 C695 1.433 . S
C697 N700 1.384 . S
C698 H689 0.929 . S
C698 C690 1.378 . S
C698 C693 1.350 . S
C699 H686 0.929 . S
C699 C691 1.433 . S
C699 N701 1.384 . S
N700 C696 1.427 . S
N700 C697 1.384 . S
N701 C693 1.427 . S
N701 C699 1.384 . S
H702 C708 0.930 . S
H703 C712 0.930 . S
H704 C717 0.929 . S
H705 C715 0.929 . S
H706 C710 0.929 . S
H707 C716 0.929 . S
C708 H702 0.930 . S
C708 C709 1.367 . S
C708 C716 1.378 . S
C709 C708 1.367 . S
C709 C717 1.433 1_545 S
C710 H706 0.929 . S
C710 C712 1.378 . S
C710 C714 1.350 1_565 S
C711 C714 1.463 . S
C711 C716 1.350 . S
C711 N719 1.427 1_545 S
C712 H703 0.930 . S
C712 C710 1.378 . S
C712 C713 1.333 1_565 S
C713 C712 1.333 1_545 S
C713 C715 1.450 . S
C714 C710 1.350 1_545 S
C714 C711 1.463 . S
C714 N718 1.427 . S
C715 H705 0.929 . S
C715 C713 1.450 . S
C715 N718 1.384 . S
C716 H707 0.929 . S
C716 C708 1.378 . S
C716 C711 1.350 . S
C717 H704 0.929 . S
C717 C709 1.433 1_565 S
C717 N719 1.384 . S
N718 C714 1.427 . S
N718 C715 1.384 . S
N719 C711 1.427 1_565 S
N719 C717 1.384 . S
H720 C726 0.930 . S
H721 C730 0.930 . S
H722 C735 0.929 . S
H723 C733 0.929 . S
H724 C728 0.929 . S
H725 C734 0.929 . S
C726 H720 0.930 . S
C726 C727 1.367 . S
C726 C734 1.378 . S
C727 C726 1.367 . S
C727 C735 1.433 . S
C728 H724 0.929 . S
C728 C730 1.378 . S
C728 C732 1.350 . S
C729 C732 1.463 . S
C729 C734 1.350 . S
C729 N737 1.427 . S
C730 H721 0.930 . S
C730 C728 1.378 . S
C730 C731 1.367 . S
C731 C730 1.367 . S
C731 C733 1.433 . S
C732 C728 1.350 . S
C732 C729 1.463 . S
C732 N736 1.427 . S
C733 H723 0.929 . S
C733 C731 1.433 . S
C733 N736 1.384 . S
C734 H725 0.929 . S
C734 C726 1.378 . S
C734 C729 1.350 . S
C735 H722 0.929 . S
C735 C727 1.433 . S
C735 N737 1.384 . S
N736 C732 1.427 . S
N736 C733 1.384 . S
N737 C729 1.427 . S
N737 C735 1.384 . S
H738 C744 0.930 . S
H739 C748 0.930 . S
H740 C753 0.929 . S
H741 C751 0.929 . S
H742 C746 0.929 . S
H743 C752 0.929 . S
C744 H738 0.930 . S
C744 C745 1.367 . S
C744 C752 1.378 . S
C745 C744 1.367 . S
C745 C753 1.433 . S
C746 H742 0.929 . S
C746 C748 1.378 . S
C746 C750 1.350 . S
C747 C750 1.463 . S
C747 C752 1.350 . S
C747 N755 1.427 . S
C748 H739 0.930 . S
C748 C746 1.378 . S
C748 C749 1.367 1_455 S
C749 C748 1.367 1_655 S
C749 C751 1.433 . S
C750 C746 1.350 . S
C750 C747 1.463 . S
C750 N754 1.427 . S
C751 H741 0.929 . S
C751 C749 1.433 . S
C751 N754 1.384 1_655 S
C752 H743 0.929 . S
C752 C744 1.378 . S
C752 C747 1.350 . S
C753 H740 0.929 . S
C753 C745 1.433 . S
C753 N755 1.384 . S
N754 C750 1.427 . S
N754 C751 1.384 1_455 S
N755 C747 1.427 . S
N755 C753 1.384 . S
H756 C762 0.930 . S
H757 C766 0.930 . S
H758 C771 0.929 . S
H759 C769 0.929 . S
H760 C764 0.929 . S
H761 C770 0.929 . S
C762 H756 0.930 . S
C762 C763 1.367 . S
C762 C770 1.378 . S
C763 C762 1.367 . S
C763 C771 1.433 . S
C764 H760 0.929 . S
C764 C766 1.378 . S
C764 C768 1.350 . S
C765 C768 1.463 . S
C765 C770 1.350 . S
C765 N773 1.427 . S
C766 H757 0.930 . S
C766 C764 1.378 . S
C766 C767 1.367 . S
C767 C766 1.367 . S
C767 C769 1.433 . S
C768 C764 1.350 . S
C768 C765 1.463 . S
C768 N772 1.427 . S
C769 H759 0.929 . S
C769 C767 1.433 . S
C769 N772 1.384 . S
C770 H761 0.929 . S
C770 C762 1.378 . S
C770 C765 1.350 . S
C771 H758 0.929 . S
C771 C763 1.433 . S
C771 N773 1.384 . S
N772 C768 1.427 . S
N772 C769 1.384 . S
N773 C765 1.427 . S
N773 C771 1.384 . S
H774 C780 0.930 . S
H775 C784 0.930 . S
H776 C789 0.893 1_554 S
H777 C787 0.929 . S
H778 C782 0.926 . S
H779 C788 0.929 . S
C780 H774 0.930 . S
C780 C781 1.367 . S
C780 C788 1.378 . S
C781 C780 1.367 . S
C781 C789 1.462 . S
C782 H778 0.926 . S
C782 C784 1.425 . S
C782 C786 1.309 1_655 S
C783 C786 1.463 . S
C783 C788 1.350 . S
C783 N791 1.427 . S
C784 H775 0.930 . S
C784 C782 1.425 . S
C784 C785 1.367 . S
C785 C784 1.367 . S
C785 C787 1.433 1_655 S
C786 C782 1.309 1_455 S
C786 C783 1.463 . S
C786 N790 1.427 . S
C787 H777 0.929 . S
C787 C785 1.433 1_455 S
C787 N790 1.384 . S
C788 H779 0.929 . S
C788 C780 1.378 . S
C788 C783 1.350 . S
C789 H776 0.893 1_556 S
C789 C781 1.462 . S
C789 N791 1.394 . S
N790 C786 1.427 . S
N790 C787 1.384 . S
N791 C783 1.427 . S
N791 C789 1.394 . S
H792 C798 0.930 . S
H793 C802 0.930 . S
H794 C807 0.929 . S
H795 C805 0.929 . S
H796 C800 0.929 1_554 S
H797 C806 0.929 . S
C798 H792 0.930 . S
C798 C799 1.367 . S
C798 C806 1.378 . S
C799 C798 1.367 . S
C799 C807 1.433 1_556 S
C800 H796 0.929 1_556 S
C800 C802 1.378 . S
C800 C804 1.350 . S
C801 C804 1.463 . S
C801 C806 1.350 . S
C801 N809 1.427 1_556 S
C802 H793 0.930 . S
C802 C800 1.378 . S
C802 C803 1.367 . S
C803 C802 1.367 . S
C803 C805 1.433 . S
C804 C800 1.350 . S
C804 C801 1.463 . S
C804 N808 1.427 . S
C805 H795 0.929 . S
C805 C803 1.433 . S
C805 N808 1.384 . S
C806 H797 0.929 . S
C806 C798 1.378 . S
C806 C801 1.350 . S
C807 H794 0.929 . S
C807 C799 1.433 1_554 S
C807 N809 1.384 . S
N808 C804 1.427 . S
N808 C805 1.384 . S
N809 C801 1.427 1_554 S
N809 C807 1.384 . S
H810 C816 0.930 1_554 S
H811 C820 0.930 . S
H812 C825 0.929 . S
H813 C823 0.929 . S
H814 C818 0.929 . S
H815 C824 0.929 . S
C816 H810 0.930 1_556 S
C816 C817 1.367 . S
C816 C824 1.378 . S
C817 C816 1.367 . S
C817 C825 1.433 . S
C818 H814 0.929 . S
C818 C820 1.378 . S
C818 C822 1.350 . S
C819 C822 1.463 . S
C819 C824 1.350 . S
C819 N827 1.427 . S
C820 H811 0.930 . S
C820 C818 1.378 . S
C820 C821 1.367 . S
C821 C820 1.367 . S
C821 C823 1.433 . S
C822 C818 1.350 . S
C822 C819 1.463 . S
C822 N826 1.427 . S
C823 H813 0.929 . S
C823 C821 1.433 . S
C823 N826 1.384 . S
C824 H815 0.929 . S
C824 C816 1.378 . S
C824 C819 1.350 . S
C825 H812 0.929 . S
C825 C817 1.433 . S
C825 N827 1.384 . S
N826 C822 1.427 . S
N826 C823 1.384 . S
N827 C819 1.427 . S
N827 C825 1.384 . S
H828 C834 0.930 . S
H829 C838 0.930 . S
H830 C843 0.929 . S
H831 C841 0.929 . S
H832 C836 0.929 . S
H833 C842 0.929 . S
C834 H828 0.930 . S
C834 C835 1.367 . S
C834 C842 1.378 . S
C835 C834 1.367 . S
C835 C843 1.433 1_545 S
C836 H832 0.929 . S
C836 C838 1.378 . S
C836 C840 1.350 1_565 S
C837 C840 1.463 . S
C837 C842 1.350 . S
C837 N845 1.427 1_545 S
C838 H829 0.930 . S
C838 C836 1.378 . S
C838 C839 1.367 1_565 S
C839 C838 1.367 1_545 S
C839 C841 1.433 . S
C840 C836 1.350 1_545 S
C840 C837 1.463 . S
C840 N844 1.427 . S
C841 H831 0.929 . S
C841 C839 1.433 . S
C841 N844 1.384 . S
C842 H833 0.929 . S
C842 C834 1.378 . S
C842 C837 1.350 . S
C843 H830 0.929 . S
C843 C835 1.433 1_565 S
C843 N845 1.384 . S
N844 C840 1.427 . S
N844 C841 1.384 . S
N845 C837 1.427 1_565 S
N845 C843 1.384 . S
H846 C852 0.930 . S
H847 C856 0.930 . S
H848 C861 0.929 . S
H849 C859 0.929 . S
H850 C854 0.929 . S
H851 C860 0.929 . S
C852 H846 0.930 . S
C852 C853 1.367 . S
C852 C860 1.378 . S
C853 C852 1.367 . S
C853 C861 1.433 . S
C854 H850 0.929 . S
C854 C856 1.378 . S
C854 C858 1.350 . S
C855 C858 1.463 . S
C855 C860 1.350 . S
C855 N863 1.427 . S
C856 H847 0.930 . S
C856 C854 1.378 . S
C856 C857 1.367 . S
C857 C856 1.367 . S
C857 C859 1.433 . S
C858 C854 1.350 . S
C858 C855 1.463 . S
C858 N862 1.427 . S
C859 H849 0.929 . S
C859 C857 1.433 . S
C859 N862 1.384 . S
C860 H851 0.929 . S
C860 C852 1.378 . S
C860 C855 1.350 . S
C861 H848 0.929 . S
C861 C853 1.433 . S
C861 N863 1.384 . S
N862 C858 1.427 . S
N862 C859 1.384 . S
N863 C855 1.427 . S
N863 C861 1.384 . S
H864 C870 0.930 . S
H865 C874 0.930 . S
H866 C879 0.929 . S
H867 C877 0.929 . S
H868 C872 0.929 . S
H869 C878 0.929 . S
C870 H864 0.930 . S
C870 C871 1.367 . S
C870 C878 1.378 . S
C871 C870 1.367 . S
C871 C879 1.433 . S
C872 H868 0.929 . S
C872 C874 1.378 . S
C872 C876 1.350 . S
C873 C876 1.463 . S
C873 C878 1.350 . S
C873 N881 1.427 . S
C874 H865 0.930 . S
C874 C872 1.378 . S
C874 C875 1.367 . S
C875 C874 1.367 . S
C875 C877 1.433 . S
C876 C872 1.350 . S
C876 C873 1.463 . S
C876 N880 1.427 . S
C877 H867 0.929 . S
C877 C875 1.433 . S
C877 N880 1.384 . S
C878 H869 0.929 . S
C878 C870 1.378 . S
C878 C873 1.350 . S
C879 H866 0.929 . S
C879 C871 1.433 . S
C879 N881 1.384 . S
N880 C876 1.427 . S
N880 C877 1.384 . S
N881 C873 1.427 . S
N881 C879 1.384 . S
H882 C888 0.930 . S
H883 C892 0.930 . S
H884 C897 0.929 . S
H885 C895 0.929 . S
H886 C890 0.929 . S
H887 C896 0.929 . S
C888 H882 0.930 . S
C888 C889 1.367 . S
C888 C896 1.378 . S
C889 C888 1.367 . S
C889 C897 1.433 . S
C890 H886 0.929 . S
C890 C892 1.378 . S
C890 C894 1.350 . S
C891 C894 1.463 . S
C891 C896 1.350 . S
C891 N899 1.427 . S
C892 H883 0.930 . S
C892 C890 1.378 . S
C892 C893 1.367 . S
C893 C892 1.367 . S
C893 C895 1.433 . S
C894 C890 1.350 . S
C894 C891 1.463 . S
C894 N898 1.427 . S
C895 H885 0.929 . S
C895 C893 1.433 . S
C895 N898 1.384 . S
C896 H887 0.929 . S
C896 C888 1.378 . S
C896 C891 1.350 . S
C897 H884 0.929 . S
C897 C889 1.433 . S
C897 N899 1.384 . S
N898 C894 1.427 . S
N898 C895 1.384 . S
N899 C891 1.427 . S
N899 C897 1.384 . S
H900 C906 0.930 . S
H901 C910 0.930 . S
H902 C915 0.929 . S
H903 C913 0.929 . S
H904 C908 0.929 . S
H905 C914 0.929 . S
C906 H900 0.930 . S
C906 C907 1.367 . S
C906 C914 1.378 . S
C907 C906 1.367 . S
C907 C915 1.433 . S
C908 H904 0.929 . S
C908 C910 1.378 . S
C908 C912 1.350 . S
C909 C912 1.463 . S
C909 C914 1.350 1_545 S
C909 N917 1.427 . S
C910 H901 0.930 . S
C910 C908 1.378 . S
C910 C911 1.367 . S
C911 C910 1.367 . S
C911 C913 1.433 . S
C912 C908 1.350 . S
C912 C909 1.463 . S
C912 N916 1.427 . S
C913 H903 0.929 . S
C913 C911 1.433 . S
C913 N916 1.384 . S
C914 H905 0.929 . S
C914 C906 1.378 . S
C914 C909 1.350 1_565 S
C915 H902 0.929 . S
C915 C907 1.433 . S
C915 N917 1.384 1_565 S
N916 C912 1.427 . S
N916 C913 1.384 . S
N917 C909 1.427 . S
N917 C915 1.384 1_545 S
H918 C924 0.930 . S
H919 C928 0.930 . S
H920 C933 0.929 . S
H921 C931 0.929 . S
H922 C926 0.929 . S
H923 C932 0.929 . S
C924 H918 0.930 . S
C924 C925 1.367 . S
C924 C932 1.378 . S
C925 C924 1.367 . S
C925 C933 1.433 . S
C926 H922 0.929 . S
C926 C928 1.378 . S
C926 C930 1.350 . S
C927 C930 1.463 . S
C927 C932 1.350 . S
C927 N935 1.427 . S
C928 H919 0.930 . S
C928 C926 1.378 . S
C928 C929 1.367 . S
C929 C928 1.367 . S
C929 C931 1.433 . S
C930 C926 1.350 . S
C930 C927 1.463 . S
C930 N934 1.427 . S
C931 H921 0.929 . S
C931 C929 1.433 . S
C931 N934 1.384 . S
C932 H923 0.929 . S
C932 C924 1.378 . S
C932 C927 1.350 . S
C933 H920 0.929 . S
C933 C925 1.433 . S
C933 N935 1.384 . S
N934 C930 1.427 . S
N934 C931 1.384 . S
N935 C927 1.427 . S
N935 C933 1.384 . S
H936 C942 0.930 . S
H937 C946 0.930 . S
H938 C951 0.929 . S
H939 C949 0.929 . S
H940 C944 0.929 . S
H941 C950 0.929 . S
C942 H936 0.930 . S
C942 C943 1.367 . S
C942 C950 1.378 . S
C943 C942 1.367 . S
C943 C951 1.433 . S
C944 H940 0.929 . S
C944 C946 1.378 . S
C944 C948 1.350 . S
C945 C948 1.463 . S
C945 C950 1.350 . S
C945 N953 1.427 . S
C946 H937 0.930 . S
C946 C944 1.378 . S
C946 C947 1.367 . S
C947 C946 1.367 . S
C947 C949 1.433 . S
C948 C944 1.350 . S
C948 C945 1.463 . S
C948 N952 1.427 . S
C949 H939 0.929 . S
C949 C947 1.433 . S
C949 N952 1.384 . S
C950 H941 0.929 . S
C950 C942 1.378 . S
C950 C945 1.350 . S
C951 H938 0.929 . S
C951 C943 1.433 . S
C951 N953 1.384 . S
N952 C948 1.427 . S
N952 C949 1.384 . S
N953 C945 1.427 . S
N953 C951 1.384 . S
H954 C960 0.930 . S
H955 C964 0.930 . S
H956 C969 0.929 . S
H957 C967 0.929 . S
H958 C962 0.929 . S
H959 C968 0.929 . S
C960 H954 0.930 . S
C960 C961 1.367 . S
C960 C968 1.378 . S
C961 C960 1.367 . S
C961 C969 1.433 . S
C962 H958 0.929 . S
C962 C964 1.378 . S
C962 C966 1.350 . S
C963 C966 1.463 . S
C963 C968 1.350 . S
C963 N971 1.427 . S
C964 H955 0.930 . S
C964 C962 1.378 . S
C964 C965 1.367 . S
C965 C964 1.367 . S
C965 C967 1.433 . S
C966 C962 1.350 . S
C966 C963 1.463 . S
C966 N970 1.427 . S
C967 H957 0.929 . S
C967 C965 1.433 . S
C967 N970 1.384 . S
C968 H959 0.929 . S
C968 C960 1.378 . S
C968 C963 1.350 . S
C969 H956 0.929 . S
C969 C961 1.433 . S
C969 N971 1.384 . S
N970 C966 1.427 . S
N970 C967 1.384 . S
N971 C963 1.427 . S
N971 C969 1.384 . S
H972 C978 0.930 . S
H973 C982 0.930 1_545 S
H974 C987 0.929 . S
H975 C985 0.929 . S
H976 C980 0.929 . S
H977 C986 0.929 . S
C978 H972 0.930 . S
C978 C979 1.367 . S
C978 C986 1.378 . S
C979 C978 1.367 . S
C979 C987 1.433 . S
C980 H976 0.929 . S
C980 C982 1.378 . S
C980 C984 1.350 . S
C981 C984 1.463 . S
C981 C986 1.350 . S
C981 N989 1.427 . S
C982 H973 0.930 1_565 S
C982 C980 1.378 . S
C982 C983 1.367 . S
C983 C982 1.367 . S
C983 C985 1.433 . S
C984 C980 1.350 . S
C984 C981 1.463 . S
C984 N988 1.427 . S
C985 H975 0.929 . S
C985 C983 1.433 . S
C985 N988 1.384 . S
C986 H977 0.929 . S
C986 C978 1.378 . S
C986 C981 1.350 . S
C987 H974 0.929 . S
C987 C979 1.433 . S
C987 N989 1.384 . S
N988 C984 1.427 . S
N988 C985 1.384 . S
N989 C981 1.427 . S
N989 C987 1.384 . S
H990 C996 0.930 . S
H991 C1000 0.930 . S
H992 C1005 0.929 . S
H993 C1003 0.929 1_565 S
H994 C998 0.929 . S
H995 C1004 0.929 . S
C996 H990 0.930 . S
C996 C997 1.367 . S
C996 C1004 1.378 . S
C997 C996 1.367 . S
C997 C1005 1.433 . S
C998 H994 0.929 . S
C998 C1000 1.378 . S
C998 C1002 1.350 1_545 S
C999 C1002 1.463 . S
C999 C1004 1.350 . S
C999 N1007 1.427 . S
C1000 H991 0.930 . S
C1000 C998 1.378 . S
C1000 C1001 1.367 . S
C1001 C1000 1.367 . S
C1001 C1003 1.433 . S
C1002 C998 1.350 1_565 S
C1002 C999 1.463 . S
C1002 N1006 1.427 . S
C1003 H993 0.929 1_545 S
C1003 C1001 1.433 . S
C1003 N1006 1.384 1_545 S
C1004 H995 0.929 . S
C1004 C996 1.378 . S
C1004 C999 1.350 . S
C1005 H992 0.929 . S
C1005 C997 1.433 . S
C1005 N1007 1.384 . S
N1006 C1002 1.427 . S
N1006 C1003 1.384 1_565 S
N1007 C999 1.427 . S
N1007 C1005 1.384 . S
H1008 C1014 0.930 . S
H1009 C1018 0.930 . S
H1010 C1023 0.929 . S
H1011 C1021 0.929 . S
H1012 C1016 0.929 . S
H1013 C1022 0.929 . S
C1014 H1008 0.930 . S
C1014 C1015 1.367 . S
C1014 C1022 1.378 . S
C1015 C1014 1.367 . S
C1015 C1023 1.433 . S
C1016 H1012 0.929 . S
C1016 C1018 1.378 . S
C1016 C1020 1.350 . S
C1017 C1020 1.463 . S
C1017 C1022 1.350 . S
C1017 N1025 1.427 . S
C1018 H1009 0.930 . S
C1018 C1016 1.378 . S
C1018 C1019 1.367 . S
C1019 C1018 1.367 . S
C1019 C1021 1.433 . S
C1020 C1016 1.350 . S
C1020 C1017 1.463 . S
C1020 N1024 1.427 . S
C1021 H1011 0.929 . S
C1021 C1019 1.433 . S
C1021 N1024 1.384 . S
C1022 H1013 0.929 . S
C1022 C1014 1.378 . S
C1022 C1017 1.350 . S
C1023 H1010 0.929 . S
C1023 C1015 1.433 . S
C1023 N1025 1.384 . S
N1024 C1020 1.427 . S
N1024 C1021 1.384 . S
N1025 C1017 1.427 . S
N1025 C1023 1.384 . S
H1026 C1032 0.930 . S
H1027 C1036 0.930 . S
H1028 C1041 0.929 . S
H1029 C1039 0.929 . S
H1030 C1034 0.929 . S
H1031 C1040 0.929 . S
C1032 H1026 0.930 . S
C1032 C1033 1.367 . S
C1032 C1040 1.378 . S
C1033 C1032 1.367 . S
C1033 C1041 1.433 . S
C1034 H1030 0.929 . S
C1034 C1036 1.378 . S
C1034 C1038 1.350 . S
C1035 C1038 1.463 . S
C1035 C1040 1.350 . S
C1035 N1043 1.427 . S
C1036 H1027 0.930 . S
C1036 C1034 1.378 . S
C1036 C1037 1.367 . S
C1037 C1036 1.367 . S
C1037 C1039 1.433 . S
C1038 C1034 1.350 . S
C1038 C1035 1.463 . S
C1038 N1042 1.427 . S
C1039 H1029 0.929 . S
C1039 C1037 1.433 . S
C1039 N1042 1.384 . S
C1040 H1031 0.929 . S
C1040 C1032 1.378 . S
C1040 C1035 1.350 . S
C1041 H1028 0.929 . S
C1041 C1033 1.433 . S
C1041 N1043 1.384 . S
N1042 C1038 1.427 . S
N1042 C1039 1.384 . S
N1043 C1035 1.427 . S
N1043 C1041 1.384 . S
H1044 C1050 0.930 . S
H1045 C1054 0.930 . S
H1046 C1059 0.929 . S
H1047 C1057 0.929 . S
H1048 C1052 0.929 . S
H1049 C1058 0.929 . S
C1050 H1044 0.930 . S
C1050 C1051 1.367 . S
C1050 C1058 1.378 . S
C1051 C1050 1.367 . S
C1051 C1059 1.433 . S
C1052 H1048 0.929 . S
C1052 C1054 1.378 . S
C1052 C1056 1.350 . S
C1053 C1056 1.463 . S
C1053 C1058 1.350 . S
C1053 N1061 1.427 . S
C1054 H1045 0.930 . S
C1054 C1052 1.378 . S
C1054 C1055 1.367 . S
C1055 C1054 1.367 . S
C1055 C1057 1.433 . S
C1056 C1052 1.350 . S
C1056 C1053 1.463 . S
C1056 N1060 1.427 . S
C1057 H1047 0.929 . S
C1057 C1055 1.433 . S
C1057 N1060 1.384 . S
C1058 H1049 0.929 . S
C1058 C1050 1.378 . S
C1058 C1053 1.350 . S
C1059 H1046 0.929 . S
C1059 C1051 1.433 . S
C1059 N1061 1.384 . S
N1060 C1056 1.427 . S
N1060 C1057 1.384 . S
N1061 C1053 1.427 . S
N1061 C1059 1.384 . S
H1062 C1068 0.930 . S
H1063 C1072 0.930 . S
H1064 C1077 0.929 . S
H1065 C1075 0.929 . S
H1066 C1070 0.929 . S
H1067 C1076 0.929 . S
C1068 H1062 0.930 . S
C1068 C1069 1.367 . S
C1068 C1076 1.378 . S
C1069 C1068 1.367 . S
C1069 C1077 1.433 . S
C1070 H1066 0.929 . S
C1070 C1072 1.378 . S
C1070 C1074 1.350 . S
C1071 C1074 1.463 1_565 S
C1071 C1076 1.350 . S
C1071 N1079 1.427 . S
C1072 H1063 0.930 . S
C1072 C1070 1.378 . S
C1072 C1073 1.367 . S
C1073 C1072 1.367 . S
C1073 C1075 1.433 . S
C1074 C1070 1.350 . S
C1074 C1071 1.463 1_545 S
C1074 N1078 1.427 . S
C1075 H1065 0.929 . S
C1075 C1073 1.433 . S
C1075 N1078 1.384 . S
C1076 H1067 0.929 . S
C1076 C1068 1.378 . S
C1076 C1071 1.350 . S
C1077 H1064 0.929 . S
C1077 C1069 1.433 . S
C1077 N1079 1.384 . S
N1078 C1074 1.427 . S
N1078 C1075 1.384 . S
N1079 C1071 1.427 . S
N1079 C1077 1.384 . S
H1080 C1086 0.930 . S
H1081 C1090 0.930 . S
H1082 C1095 0.929 . S
H1083 C1093 0.929 . S
H1084 C1088 0.929 . S
H1085 C1094 0.929 . S
C1086 H1080 0.930 . S
C1086 C1087 1.367 . S
C1086 C1094 1.378 . S
C1087 C1086 1.367 . S
C1087 C1095 1.433 . S
C1088 H1084 0.929 . S
C1088 C1090 1.378 . S
C1088 C1092 1.350 . S
C1089 C1092 1.463 . S
C1089 C1094 1.350 . S
C1089 N1097 1.427 . S
C1090 H1081 0.930 . S
C1090 C1088 1.378 . S
C1090 C1091 1.367 . S
C1091 C1090 1.367 . S
C1091 C1093 1.433 . S
C1092 C1088 1.350 . S
C1092 C1089 1.463 . S
C1092 N1096 1.427 . S
C1093 H1083 0.929 . S
C1093 C1091 1.433 . S
C1093 N1096 1.384 . S
C1094 H1085 0.929 . S
C1094 C1086 1.378 . S
C1094 C1089 1.350 . S
C1095 H1082 0.929 . S
C1095 C1087 1.433 . S
C1095 N1097 1.384 . S
N1096 C1092 1.427 . S
N1096 C1093 1.384 . S
N1097 C1089 1.427 . S
N1097 C1095 1.384 . S
H1098 C1104 0.930 . S
H1099 C1108 0.930 . S
H1100 C1113 0.929 . S
H1101 C1111 0.929 . S
H1102 C1106 0.929 . S
H1103 C1112 0.929 . S
C1104 H1098 0.930 . S
C1104 C1105 1.367 . S
C1104 C1112 1.378 . S
C1105 C1104 1.367 . S
C1105 C1113 1.433 . S
C1106 H1102 0.929 . S
C1106 C1108 1.378 . S
C1106 C1110 1.350 . S
C1107 C1110 1.463 . S
C1107 C1112 1.350 . S
C1107 N1115 1.427 . S
C1108 H1099 0.930 . S
C1108 C1106 1.378 . S
C1108 C1109 1.367 . S
C1109 C1108 1.367 . S
C1109 C1111 1.433 . S
C1110 C1106 1.350 . S
C1110 C1107 1.463 . S
C1110 N1114 1.427 . S
C1111 H1101 0.929 . S
C1111 C1109 1.433 . S
C1111 N1114 1.384 . S
C1112 H1103 0.929 . S
C1112 C1104 1.378 . S
C1112 C1107 1.350 . S
C1113 H1100 0.929 . S
C1113 C1105 1.433 . S
C1113 N1115 1.384 . S
N1114 C1110 1.427 . S
N1114 C1111 1.384 . S
N1115 C1107 1.427 . S
N1115 C1113 1.384 . S
H1116 C1122 0.930 . S
H1117 C1126 0.930 . S
H1118 C1131 0.929 . S
H1119 C1129 0.929 . S
H1120 C1124 0.929 . S
H1121 C1130 0.929 . S
C1122 H1116 0.930 . S
C1122 C1123 1.367 . S
C1122 C1130 1.378 . S
C1123 C1122 1.367 . S
C1123 C1131 1.433 . S
C1124 H1120 0.929 . S
C1124 C1126 1.378 . S
C1124 C1128 1.350 . S
C1125 C1128 1.463 . S
C1125 C1130 1.350 . S
C1125 N1133 1.427 . S
C1126 H1117 0.930 . S
C1126 C1124 1.378 . S
C1126 C1127 1.367 . S
C1127 C1126 1.367 . S
C1127 C1129 1.433 . S
C1128 C1124 1.350 . S
C1128 C1125 1.463 . S
C1128 N1132 1.427 . S
C1129 H1119 0.929 . S
C1129 C1127 1.433 . S
C1129 N1132 1.384 . S
C1130 H1121 0.929 . S
C1130 C1122 1.378 . S
C1130 C1125 1.350 . S
C1131 H1118 0.929 . S
C1131 C1123 1.433 . S
C1131 N1133 1.384 . S
N1132 C1128 1.427 . S
N1132 C1129 1.384 . S
N1133 C1125 1.427 . S
N1133 C1131 1.384 . S
H1134 C1140 0.930 . S
H1135 C1144 0.930 . S
H1136 C1149 0.929 . S
H1137 C1147 0.929 . S
H1138 C1142 0.929 . S
H1139 C1148 0.929 . S
C1140 H1134 0.930 . S
C1140 C1141 1.367 . S
C1140 C1148 1.378 . S
C1141 C1140 1.367 . S
C1141 C1149 1.433 . S
C1142 H1138 0.929 . S
C1142 C1144 1.378 . S
C1142 C1146 1.350 . S
C1143 C1146 1.463 . S
C1143 C1148 1.350 . S
C1143 N1151 1.427 . S
C1144 H1135 0.930 . S
C1144 C1142 1.378 . S
C1144 C1145 1.367 . S
C1145 C1144 1.367 . S
C1145 C1147 1.433 . S
C1146 C1142 1.350 . S
C1146 C1143 1.463 . S
C1146 N1150 1.427 . S
C1147 H1137 0.929 . S
C1147 C1145 1.433 . S
C1147 N1150 1.384 . S
C1148 H1139 0.929 . S
C1148 C1140 1.378 . S
C1148 C1143 1.350 . S
C1149 H1136 0.929 . S
C1149 C1141 1.433 . S
C1149 N1151 1.384 . S
N1150 C1146 1.427 . S
N1150 C1147 1.384 . S
N1151 C1143 1.427 . S
N1151 C1149 1.384 . S
H1152 C1158 0.930 . S
H1153 C1162 0.930 . S
H1154 C1167 0.929 . S
H1155 C1165 0.929 . S
H1156 C1160 0.929 . S
H1157 C1166 0.929 . S
C1158 H1152 0.930 . S
C1158 C1159 1.367 . S
C1158 C1166 1.378 . S
C1159 C1158 1.367 . S
C1159 C1167 1.433 . S
C1160 H1156 0.929 . S
C1160 C1162 1.378 . S
C1160 C1164 1.350 . S
C1161 C1164 1.463 . S
C1161 C1166 1.350 . S
C1161 N1169 1.427 . S
C1162 H1153 0.930 . S
C1162 C1160 1.378 . S
C1162 C1163 1.367 . S
C1163 C1162 1.367 . S
C1163 C1165 1.433 . S
C1164 C1160 1.350 . S
C1164 C1161 1.463 . S
C1164 N1168 1.427 . S
C1165 H1155 0.929 . S
C1165 C1163 1.433 . S
C1165 N1168 1.384 . S
C1166 H1157 0.929 . S
C1166 C1158 1.378 . S
C1166 C1161 1.350 . S
C1167 H1154 0.929 . S
C1167 C1159 1.433 . S
C1167 N1169 1.384 . S
N1168 C1164 1.427 . S
N1168 C1165 1.384 . S
N1169 C1161 1.427 . S
N1169 C1167 1.384 . S
H1170 C1176 0.930 . S
H1171 C1180 0.930 . S
H1172 C1185 0.929 . S
H1173 C1183 0.929 . S
H1174 C1178 0.929 . S
H1175 C1184 0.929 . S
C1176 H1170 0.930 . S
C1176 C1177 1.367 . S
C1176 C1184 1.378 . S
C1177 C1176 1.367 . S
C1177 C1185 1.433 . S
C1178 H1174 0.929 . S
C1178 C1180 1.378 . S
C1178 C1182 1.350 . S
C1179 C1182 1.463 . S
C1179 C1184 1.350 . S
C1179 N1187 1.427 . S
C1180 H1171 0.930 . S
C1180 C1178 1.378 . S
C1180 C1181 1.367 . S
C1181 C1180 1.367 . S
C1181 C1183 1.433 . S
C1182 C1178 1.350 . S
C1182 C1179 1.463 . S
C1182 N1186 1.427 . S
C1183 H1173 0.929 . S
C1183 C1181 1.433 . S
C1183 N1186 1.384 . S
C1184 H1175 0.929 . S
C1184 C1176 1.378 . S
C1184 C1179 1.350 . S
C1185 H1172 0.929 . S
C1185 C1177 1.433 . S
C1185 N1187 1.384 . S
N1186 C1182 1.427 . S
N1186 C1183 1.384 . S
N1187 C1179 1.427 . S
N1187 C1185 1.384 . S
H1188 C1194 0.930 . S
H1189 C1198 0.930 . S
H1190 C1203 0.929 . S
H1191 C1201 0.929 . S
H1192 C1196 0.929 . S
H1193 C1202 0.929 . S
C1194 H1188 0.930 . S
C1194 C1195 1.367 . S
C1194 C1202 1.378 . S
C1195 C1194 1.367 . S
C1195 C1203 1.433 . S
C1196 H1192 0.929 . S
C1196 C1198 1.378 . S
C1196 C1200 1.350 . S
C1197 C1200 1.463 . S
C1197 C1202 1.350 . S
C1197 N1205 1.427 . S
C1198 H1189 0.930 . S
C1198 C1196 1.378 . S
C1198 C1199 1.367 . S
C1199 C1198 1.367 . S
C1199 C1201 1.433 . S
C1200 C1196 1.350 . S
C1200 C1197 1.463 . S
C1200 N1204 1.427 . S
C1201 H1191 0.929 . S
C1201 C1199 1.433 . S
C1201 N1204 1.384 . S
C1202 H1193 0.929 . S
C1202 C1194 1.378 . S
C1202 C1197 1.350 . S
C1203 H1190 0.929 . S
C1203 C1195 1.433 . S
C1203 N1205 1.384 . S
N1204 C1200 1.427 . S
N1204 C1201 1.384 . S
N1205 C1197 1.427 . S
N1205 C1203 1.384 . S
H1206 C1212 0.930 . S
H1207 C1216 0.930 . S
H1208 C1221 0.929 . S
H1209 C1219 0.929 . S
H1210 C1214 0.929 . S
H1211 C1220 0.929 . S
C1212 H1206 0.930 . S
C1212 C1213 1.367 . S
C1212 C1220 1.378 . S
C1213 C1212 1.367 . S
C1213 C1221 1.433 . S
C1214 H1210 0.929 . S
C1214 C1216 1.378 . S
C1214 C1218 1.350 . S
C1215 C1218 1.463 . S
C1215 C1220 1.350 . S
C1215 N1223 1.427 . S
C1216 H1207 0.930 . S
C1216 C1214 1.378 . S
C1216 C1217 1.367 . S
C1217 C1216 1.367 . S
C1217 C1219 1.433 . S
C1218 C1214 1.350 . S
C1218 C1215 1.463 . S
C1218 N1222 1.427 . S
C1219 H1209 0.929 . S
C1219 C1217 1.433 . S
C1219 N1222 1.384 . S
C1220 H1211 0.929 . S
C1220 C1212 1.378 . S
C1220 C1215 1.350 . S
C1221 H1208 0.929 . S
C1221 C1213 1.433 . S
C1221 N1223 1.384 . S
N1222 C1218 1.427 . S
N1222 C1219 1.384 . S
N1223 C1215 1.427 . S
N1223 C1221 1.384 . S
H1224 C1230 0.930 . S
H1225 C1234 0.930 . S
H1226 C1239 0.929 . S
H1227 C1237 0.929 . S
H1228 C1232 0.929 . S
H1229 C1238 0.929 . S
C1230 H1224 0.930 . S
C1230 C1231 1.367 . S
C1230 C1238 1.378 . S
C1231 C1230 1.367 . S
C1231 C1239 1.433 . S
C1232 H1228 0.929 . S
C1232 C1234 1.378 . S
C1232 C1236 1.350 . S
C1233 C1236 1.463 . S
C1233 C1238 1.350 . S
C1233 N1241 1.427 . S
C1234 H1225 0.930 . S
C1234 C1232 1.378 . S
C1234 C1235 1.367 . S
C1235 C1234 1.367 . S
C1235 C1237 1.433 . S
C1236 C1232 1.350 . S
C1236 C1233 1.463 . S
C1236 N1240 1.427 . S
C1237 H1227 0.929 . S
C1237 C1235 1.433 . S
C1237 N1240 1.384 . S
C1238 H1229 0.929 . S
C1238 C1230 1.378 . S
C1238 C1233 1.350 . S
C1239 H1226 0.929 . S
C1239 C1231 1.433 . S
C1239 N1241 1.384 . S
N1240 C1236 1.427 . S
N1240 C1237 1.384 . S
N1241 C1233 1.427 . S
N1241 C1239 1.384 . S
H1242 C1248 0.930 . S
H1243 C1252 0.930 . S
H1244 C1257 0.929 . S
H1245 C1255 0.929 . S
H1246 C1250 0.929 . S
H1247 C1256 0.929 . S
C1248 H1242 0.930 . S
C1248 C1249 1.367 . S
C1248 C1256 1.378 . S
C1249 C1248 1.367 . S
C1249 C1257 1.433 . S
C1250 H1246 0.929 . S
C1250 C1252 1.378 . S
C1250 C1254 1.350 . S
C1251 C1254 1.463 . S
C1251 C1256 1.350 . S
C1251 N1259 1.427 . S
C1252 H1243 0.930 . S
C1252 C1250 1.378 . S
C1252 C1253 1.369 . S
C1253 C1252 1.369 . S
C1253 C1255 1.455 . S
C1254 C1250 1.350 . S
C1254 C1251 1.463 . S
C1254 N1258 1.427 . S
C1255 H1245 0.929 . S
C1255 C1253 1.455 . S
C1255 N1258 1.384 . S
C1256 H1247 0.929 . S
C1256 C1248 1.378 . S
C1256 C1251 1.350 . S
C1257 H1244 0.929 . S
C1257 C1249 1.433 . S
C1257 N1259 1.384 . S
N1258 C1254 1.427 . S
N1258 C1255 1.384 . S
N1259 C1251 1.427 . S
N1259 C1257 1.384 . S
H1260 C1266 0.930 . S
H1261 C1270 0.930 . S
H1262 C1275 0.929 . S
H1263 C1273 0.929 . S
H1264 C1268 0.929 . S
H1265 C1274 0.929 . S
C1266 H1260 0.930 . S
C1266 C1267 1.367 . S
C1266 C1274 1.378 . S
C1267 C1266 1.367 . S
C1267 C1275 1.433 . S
C1268 H1264 0.929 . S
C1268 C1270 1.378 . S
C1268 C1272 1.350 . S
C1269 C1272 1.463 . S
C1269 C1274 1.350 . S
C1269 N1277 1.427 . S
C1270 H1261 0.930 . S
C1270 C1268 1.378 . S
C1270 C1271 1.367 . S
C1271 C1270 1.367 . S
C1271 C1273 1.433 . S
C1272 C1268 1.350 . S
C1272 C1269 1.463 . S
C1272 N1276 1.427 . S
C1273 H1263 0.929 . S
C1273 C1271 1.433 . S
C1273 N1276 1.384 . S
C1274 H1265 0.929 . S
C1274 C1266 1.378 . S
C1274 C1269 1.350 . S
C1275 H1262 0.929 . S
C1275 C1267 1.433 . S
C1275 N1277 1.384 . S
N1276 C1272 1.427 . S
N1276 C1273 1.384 . S
N1277 C1269 1.427 . S
N1277 C1275 1.384 . S
H1278 C1284 0.930 . S
H1279 C1288 0.930 . S
H1280 C1293 0.929 . S
H1281 C1291 0.929 . S
H1282 C1286 0.929 . S
H1283 C1292 0.929 . S
C1284 H1278 0.930 . S
C1284 C1285 1.367 . S
C1284 C1292 1.378 . S
C1285 C1284 1.367 . S
C1285 C1293 1.433 . S
C1286 H1282 0.929 . S
C1286 C1288 1.378 . S
C1286 C1290 1.350 . S
C1287 C1290 1.463 . S
C1287 C1292 1.350 . S
C1287 N1295 1.427 . S
C1288 H1279 0.930 . S
C1288 C1286 1.378 . S
C1288 C1289 1.367 . S
C1289 C1288 1.367 . S
C1289 C1291 1.433 . S
C1290 C1286 1.350 . S
C1290 C1287 1.463 . S
C1290 N1294 1.427 . S
C1291 H1281 0.929 . S
C1291 C1289 1.433 . S
C1291 N1294 1.384 . S
C1292 H1283 0.929 . S
C1292 C1284 1.378 . S
C1292 C1287 1.350 . S
C1293 H1280 0.929 . S
C1293 C1285 1.433 . S
C1293 N1295 1.384 . S
N1294 C1290 1.427 . S
N1294 C1291 1.384 . S
N1295 C1287 1.427 . S
N1295 C1293 1.384 . S
H1296 C1302 0.930 . S
H1297 C1306 0.930 . S
H1298 C1311 0.929 . S
H1299 C1309 0.929 . S
H1300 C1304 0.929 . S
H1301 C1310 0.929 . S
C1302 H1296 0.930 . S
C1302 C1303 1.367 . S
C1302 C1310 1.378 . S
C1303 C1302 1.367 . S
C1303 C1311 1.433 . S
C1304 H1300 0.929 . S
C1304 C1306 1.378 . S
C1304 C1308 1.350 . S
C1305 C1308 1.463 . S
C1305 C1310 1.350 . S
C1305 N1313 1.427 . S
C1306 H1297 0.930 . S
C1306 C1304 1.378 . S
C1306 C1307 1.367 . S
C1307 C1306 1.367 . S
C1307 C1309 1.433 . S
C1308 C1304 1.350 . S
C1308 C1305 1.463 . S
C1308 N1312 1.427 . S
C1309 H1299 0.929 . S
C1309 C1307 1.433 . S
C1309 N1312 1.384 . S
C1310 H1301 0.929 . S
C1310 C1302 1.378 . S
C1310 C1305 1.350 . S
C1311 H1298 0.929 . S
C1311 C1303 1.433 . S
C1311 N1313 1.384 . S
N1312 C1308 1.427 . S
N1312 C1309 1.384 . S
N1313 C1305 1.427 . S
N1313 C1311 1.384 . S
H1314 C1320 0.930 . S
H1315 C1324 0.930 . S
H1316 C1329 0.929 . S
H1317 C1327 0.929 . S
H1318 C1322 0.929 . S
H1319 C1328 0.929 . S
C1320 H1314 0.930 . S
C1320 C1321 1.367 . S
C1320 C1328 1.378 . S
C1321 C1320 1.367 . S
C1321 C1329 1.433 . S
C1322 H1318 0.929 . S
C1322 C1324 1.378 . S
C1322 C1326 1.350 . S
C1323 C1326 1.463 . S
C1323 C1328 1.350 . S
C1323 N1331 1.427 . S
C1324 H1315 0.930 . S
C1324 C1322 1.378 . S
C1324 C1325 1.367 . S
C1325 C1324 1.367 . S
C1325 C1327 1.433 . S
C1326 C1322 1.350 . S
C1326 C1323 1.463 . S
C1326 N1330 1.427 . S
C1327 H1317 0.929 . S
C1327 C1325 1.433 . S
C1327 N1330 1.384 . S
C1328 H1319 0.929 . S
C1328 C1320 1.378 . S
C1328 C1323 1.350 . S
C1329 H1316 0.929 . S
C1329 C1321 1.433 . S
C1329 N1331 1.384 . S
N1330 C1326 1.427 . S
N1330 C1327 1.384 . S
N1331 C1323 1.427 . S
N1331 C1329 1.384 . S
H1332 C1338 0.930 . S
H1333 C1342 0.930 . S
H1334 C1347 0.929 . S
H1335 C1345 0.929 . S
H1336 C1340 0.929 . S
H1337 C1346 0.929 . S
C1338 H1332 0.930 . S
C1338 C1339 1.367 . S
C1338 C1346 1.378 . S
C1339 C1338 1.367 . S
C1339 C1347 1.433 . S
C1340 H1336 0.929 . S
C1340 C1342 1.378 . S
C1340 C1344 1.350 . S
C1341 C1344 1.463 . S
C1341 C1346 1.350 . S
C1341 N1349 1.427 . S
C1342 H1333 0.930 . S
C1342 C1340 1.378 . S
C1342 C1343 1.367 . S
C1343 C1342 1.367 . S
C1343 C1345 1.433 . S
C1344 C1340 1.350 . S
C1344 C1341 1.463 . S
C1344 N1348 1.427 . S
C1345 H1335 0.929 . S
C1345 C1343 1.433 . S
C1345 N1348 1.384 . S
C1346 H1337 0.929 . S
C1346 C1338 1.378 . S
C1346 C1341 1.350 . S
C1347 H1334 0.929 . S
C1347 C1339 1.433 . S
C1347 N1349 1.384 . S
N1348 C1344 1.427 . S
N1348 C1345 1.384 . S
N1349 C1341 1.427 . S
N1349 C1347 1.384 . S
H1350 C1356 0.930 . S
H1351 C1360 0.930 . S
H1352 C1365 0.929 . S
H1353 C1363 0.929 . S
H1354 C1358 0.929 1_565 S
H1355 C1364 0.929 . S
C1356 H1350 0.930 . S
C1356 C1357 1.367 . S
C1356 C1364 1.378 . S
C1357 C1356 1.367 . S
C1357 C1365 1.433 1_545 S
C1358 H1354 0.929 1_545 S
C1358 C1360 1.378 . S
C1358 C1362 1.350 . S
C1359 C1362 1.463 . S
C1359 C1364 1.350 . S
C1359 N1367 1.478 . S
C1360 H1351 0.930 . S
C1360 C1358 1.378 . S
C1360 C1361 1.367 . S
C1361 C1360 1.367 . S
C1361 C1363 1.433 . S
C1362 C1358 1.350 . S
C1362 C1359 1.463 . S
C1362 N1366 1.427 . S
C1363 H1353 0.929 . S
C1363 C1361 1.433 . S
C1363 N1366 1.384 . S
C1364 H1355 0.929 . S
C1364 C1356 1.378 . S
C1364 C1359 1.350 . S
C1365 H1352 0.929 . S
C1365 C1357 1.433 1_565 S
C1365 N1367 1.362 1_565 S
N1366 C1362 1.427 . S
N1366 C1363 1.384 . S
N1367 C1359 1.478 . S
N1367 C1365 1.362 1_545 S
H1368 C1374 0.930 1_565 S
H1369 C1378 0.930 . S
H1370 C1383 0.929 . S
H1371 C1381 0.929 1_565 S
H1372 C1376 0.929 . S
H1373 C1382 0.929 1_565 S
C1374 H1368 0.930 1_545 S
C1374 C1375 1.367 . S
C1374 C1382 1.378 . S
C1375 C1374 1.367 . S
C1375 C1383 1.433 . S
C1376 H1372 0.929 . S
C1376 C1378 1.378 . S
C1376 C1380 1.350 . S
C1377 C1380 1.463 . S
C1377 C1382 1.350 . S
C1377 N1385 1.427 . S
C1378 H1369 0.930 . S
C1378 C1376 1.378 . S
C1378 C1379 1.367 . S
C1379 C1378 1.367 . S
C1379 C1381 1.433 . S
C1380 C1376 1.350 . S
C1380 C1377 1.463 . S
C1380 N1384 1.427 . S
C1381 H1371 0.929 1_545 S
C1381 C1379 1.433 . S
C1381 N1384 1.384 . S
C1382 H1373 0.929 1_545 S
C1382 C1374 1.378 . S
C1382 C1377 1.350 . S
C1383 H1370 0.929 . S
C1383 C1375 1.433 . S
C1383 N1385 1.384 . S
N1384 C1380 1.427 . S
N1384 C1381 1.384 . S
N1385 C1377 1.427 . S
N1385 C1383 1.384 . S
H1386 C1392 0.930 . S
H1387 C1396 0.930 . S
H1388 C1401 0.929 . S
H1389 C1399 0.929 . S
H1390 C1394 0.929 . S
H1391 C1400 0.929 . S
C1392 H1386 0.930 . S
C1392 C1393 1.367 . S
C1392 C1400 1.378 . S
C1393 C1392 1.367 . S
C1393 C1401 1.433 . S
C1394 H1390 0.929 . S
C1394 C1396 1.378 . S
C1394 C1398 1.350 . S
C1395 C1398 1.463 . S
C1395 C1400 1.350 . S
C1395 N1403 1.427 . S
C1396 H1387 0.930 . S
C1396 C1394 1.378 . S
C1396 C1397 1.367 . S
C1397 C1396 1.367 . S
C1397 C1399 1.433 . S
C1398 C1394 1.350 . S
C1398 C1395 1.463 . S
C1398 N1402 1.427 . S
C1399 H1389 0.929 . S
C1399 C1397 1.433 . S
C1399 N1402 1.384 . S
C1400 H1391 0.929 . S
C1400 C1392 1.378 . S
C1400 C1395 1.350 . S
C1401 H1388 0.929 . S
C1401 C1393 1.433 . S
C1401 N1403 1.384 . S
N1402 C1398 1.427 . S
N1402 C1399 1.384 . S
N1403 C1395 1.427 . S
N1403 C1401 1.384 . S
H1404 C1410 0.930 . S
H1405 C1414 0.930 . S
H1406 C1419 0.929 . S
H1407 C1417 0.929 . S
H1408 C1412 0.929 . S
H1409 C1418 0.929 . S
C1410 H1404 0.930 . S
C1410 C1411 1.367 . S
C1410 C1418 1.378 . S
C1411 C1410 1.367 . S
C1411 C1419 1.433 . S
C1412 H1408 0.929 . S
C1412 C1414 1.378 . S
C1412 C1416 1.350 . S
C1413 C1416 1.463 . S
C1413 C1418 1.350 . S
C1413 N1421 1.427 . S
C1414 H1405 0.930 . S
C1414 C1412 1.378 . S
C1414 C1415 1.367 . S
C1415 C1414 1.367 . S
C1415 C1417 1.433 . S
C1416 C1412 1.350 . S
C1416 C1413 1.463 . S
C1416 N1420 1.427 . S
C1417 H1407 0.929 . S
C1417 C1415 1.433 . S
C1417 N1420 1.384 . S
C1418 H1409 0.929 . S
C1418 C1410 1.378 . S
C1418 C1413 1.350 . S
C1419 H1406 0.929 . S
C1419 C1411 1.433 . S
C1419 N1421 1.384 . S
N1420 C1416 1.427 . S
N1420 C1417 1.384 . S
N1421 C1413 1.427 . S
N1421 C1419 1.384 . S
H1422 C1428 0.930 . S
H1423 C1432 0.930 1_655 S
H1424 C1437 0.929 . S
H1425 C1435 0.929 . S
H1426 C1430 0.929 . S
H1427 C1436 0.929 . S
C1428 H1422 0.930 . S
C1428 C1429 1.367 . S
C1428 C1436 1.378 . S
C1429 C1428 1.367 . S
C1429 C1437 1.433 . S
C1430 H1426 0.929 . S
C1430 C1432 1.378 . S
C1430 C1434 1.350 . S
C1431 C1434 1.463 . S
C1431 C1436 1.350 . S
C1431 N1439 1.427 . S
C1432 H1423 0.930 1_455 S
C1432 C1430 1.378 . S
C1432 C1433 1.367 . S
C1433 C1432 1.367 . S
C1433 C1435 1.433 . S
C1434 C1430 1.350 . S
C1434 C1431 1.463 . S
C1434 N1438 1.427 . S
C1435 H1425 0.929 . S
C1435 C1433 1.433 . S
C1435 N1438 1.384 . S
C1436 H1427 0.929 . S
C1436 C1428 1.378 . S
C1436 C1431 1.350 . S
C1437 H1424 0.929 . S
C1437 C1429 1.433 . S
C1437 N1439 1.384 . S
N1438 C1434 1.427 . S
N1438 C1435 1.384 . S
N1439 C1431 1.427 . S
N1439 C1437 1.384 . S
H1440 C1446 0.930 . S
H1441 C1450 0.930 . S
H1442 C1455 0.929 . S
H1443 C1453 0.929 . S
H1444 C1448 0.929 . S
H1445 C1454 0.929 . S
C1446 H1440 0.930 . S
C1446 C1447 1.367 . S
C1446 C1454 1.378 . S
C1447 C1446 1.367 . S
C1447 C1455 1.433 . S
C1448 H1444 0.929 . S
C1448 C1450 1.378 . S
C1448 C1452 1.350 . S
C1449 C1452 1.463 . S
C1449 C1454 1.350 . S
C1449 N1457 1.427 . S
C1450 H1441 0.930 . S
C1450 C1448 1.378 . S
C1450 C1451 1.367 . S
C1451 C1450 1.367 . S
C1451 C1453 1.433 . S
C1452 C1448 1.350 . S
C1452 C1449 1.463 . S
C1452 N1456 1.427 . S
C1453 H1443 0.929 . S
C1453 C1451 1.433 . S
C1453 N1456 1.384 . S
C1454 H1445 0.929 . S
C1454 C1446 1.378 . S
C1454 C1449 1.350 . S
C1455 H1442 0.929 . S
C1455 C1447 1.433 . S
C1455 N1457 1.384 . S
N1456 C1452 1.427 . S
N1456 C1453 1.384 . S
N1457 C1449 1.427 . S
N1457 C1455 1.384 . S
H1458 C1464 0.930 . S
H1459 C1468 0.930 . S
H1460 C1473 0.929 1_565 S
H1461 C1471 0.929 . S
H1462 C1466 0.929 . S
H1463 C1472 0.929 . S
C1464 H1458 0.930 . S
C1464 C1465 1.367 . S
C1464 C1472 1.378 . S
C1465 C1464 1.367 . S
C1465 C1473 1.433 . S
C1466 H1462 0.929 . S
C1466 C1468 1.378 . S
C1466 C1470 1.350 . S
C1467 C1470 1.463 . S
C1467 C1472 1.350 . S
C1467 N1475 1.427 . S
C1468 H1459 0.930 . S
C1468 C1466 1.378 . S
C1468 C1469 1.367 . S
C1469 C1468 1.367 . S
C1469 C1471 1.433 . S
C1470 C1466 1.350 . S
C1470 C1467 1.463 . S
C1470 N1474 1.427 . S
C1471 H1461 0.929 . S
C1471 C1469 1.433 . S
C1471 N1474 1.384 . S
C1472 H1463 0.929 . S
C1472 C1464 1.378 . S
C1472 C1467 1.350 . S
C1473 H1460 0.929 1_545 S
C1473 C1465 1.433 . S
C1473 N1475 1.384 . S
N1474 C1470 1.427 . S
N1474 C1471 1.384 . S
N1475 C1467 1.427 . S
N1475 C1473 1.384 . S
H1476 C1482 0.930 . S
H1477 C1486 0.930 . S
H1478 C1491 0.929 . S
H1479 C1489 0.929 . S
H1480 C1484 0.929 . S
H1481 C1490 0.929 . S
C1482 H1476 0.930 . S
C1482 C1483 1.367 . S
C1482 C1490 1.378 . S
C1483 C1482 1.367 . S
C1483 C1491 1.433 . S
C1484 H1480 0.929 . S
C1484 C1486 1.378 . S
C1484 C1488 1.350 . S
C1485 C1488 1.463 . S
C1485 C1490 1.350 . S
C1485 N1493 1.427 . S
C1486 H1477 0.930 . S
C1486 C1484 1.378 . S
C1486 C1487 1.367 . S
C1487 C1486 1.367 . S
C1487 C1489 1.433 . S
C1488 C1484 1.350 . S
C1488 C1485 1.463 . S
C1488 N1492 1.427 . S
C1489 H1479 0.929 . S
C1489 C1487 1.433 . S
C1489 N1492 1.384 . S
C1490 H1481 0.929 . S
C1490 C1482 1.378 . S
C1490 C1485 1.350 . S
C1491 H1478 0.929 . S
C1491 C1483 1.433 . S
C1491 N1493 1.384 . S
N1492 C1488 1.427 . S
N1492 C1489 1.384 . S
N1493 C1485 1.427 . S
N1493 C1491 1.384 . S
H1494 C1500 0.930 . S
H1495 C1504 0.930 . S
H1496 C1509 0.929 . S
H1497 C1507 0.929 . S
H1498 C1502 0.929 . S
H1499 C1508 0.929 . S
C1500 H1494 0.930 . S
C1500 C1501 1.367 . S
C1500 C1508 1.378 . S
C1501 C1500 1.367 . S
C1501 C1509 1.433 . S
C1502 H1498 0.929 . S
C1502 C1504 1.378 . S
C1502 C1506 1.350 . S
C1503 C1506 1.463 . S
C1503 C1508 1.350 . S
C1503 N1511 1.427 . S
C1504 H1495 0.930 . S
C1504 C1502 1.378 . S
C1504 C1505 1.367 . S
C1505 C1504 1.367 . S
C1505 C1507 1.433 . S
C1506 C1502 1.350 . S
C1506 C1503 1.463 . S
C1506 N1510 1.427 . S
C1507 H1497 0.929 . S
C1507 C1505 1.433 . S
C1507 N1510 1.384 . S
C1508 H1499 0.929 . S
C1508 C1500 1.378 . S
C1508 C1503 1.350 . S
C1509 H1496 0.929 . S
C1509 C1501 1.433 . S
C1509 N1511 1.384 . S
N1510 C1506 1.427 . S
N1510 C1507 1.384 . S
N1511 C1503 1.427 . S
N1511 C1509 1.384 . S
H1512 C1518 0.930 . S
H1513 C1522 0.930 . S
H1514 C1527 0.929 . S
H1515 C1525 0.929 . S
H1516 C1520 0.929 . S
H1517 C1526 0.929 . S
C1518 H1512 0.930 . S
C1518 C1519 1.367 . S
C1518 C1526 1.378 . S
C1519 C1518 1.367 . S
C1519 C1527 1.433 . S
C1520 H1516 0.929 . S
C1520 C1522 1.378 . S
C1520 C1524 1.350 . S
C1521 C1524 1.463 . S
C1521 C1526 1.350 . S
C1521 N1529 1.427 . S
C1522 H1513 0.930 . S
C1522 C1520 1.378 . S
C1522 C1523 1.367 . S
C1523 C1522 1.367 . S
C1523 C1525 1.433 . S
C1524 C1520 1.350 . S
C1524 C1521 1.463 . S
C1524 N1528 1.427 . S
C1525 H1515 0.929 . S
C1525 C1523 1.433 . S
C1525 N1528 1.384 . S
C1526 H1517 0.929 . S
C1526 C1518 1.378 . S
C1526 C1521 1.350 . S
C1527 H1514 0.929 . S
C1527 C1519 1.433 . S
C1527 N1529 1.384 . S
N1528 C1524 1.427 . S
N1528 C1525 1.384 . S
N1529 C1521 1.427 . S
N1529 C1527 1.384 . S
H1530 C1536 0.930 . S
H1531 C1540 0.930 . S
H1532 C1545 0.929 . S
H1533 C1543 0.929 . S
H1534 C1538 0.929 . S
H1535 C1544 0.929 . S
C1536 H1530 0.930 . S
C1536 C1537 1.367 . S
C1536 C1544 1.378 . S
C1537 C1536 1.367 . S
C1537 C1545 1.433 . S
C1538 H1534 0.929 . S
C1538 C1540 1.378 . S
C1538 C1542 1.350 . S
C1539 C1542 1.463 . S
C1539 C1544 1.350 . S
C1539 N1547 1.427 . S
C1540 H1531 0.930 . S
C1540 C1538 1.378 . S
C1540 C1541 1.367 . S
C1541 C1540 1.367 . S
C1541 C1543 1.433 . S
C1542 C1538 1.350 . S
C1542 C1539 1.463 . S
C1542 N1546 1.427 . S
C1543 H1533 0.929 . S
C1543 C1541 1.433 . S
C1543 N1546 1.384 . S
C1544 H1535 0.929 . S
C1544 C1536 1.378 . S
C1544 C1539 1.350 . S
C1545 H1532 0.929 . S
C1545 C1537 1.433 . S
C1545 N1547 1.384 . S
N1546 C1542 1.427 . S
N1546 C1543 1.384 . S
N1547 C1539 1.427 . S
N1547 C1545 1.384 . S
H1548 C1554 0.930 . S
H1549 C1558 0.930 . S
H1550 C1563 0.929 . S
H1551 C1561 0.929 . S
H1552 C1556 0.929 . S
H1553 C1562 0.929 . S
C1554 H1548 0.930 . S
C1554 C1555 1.367 . S
C1554 C1562 1.378 . S
C1555 C1554 1.367 . S
C1555 C1563 1.433 . S
C1556 H1552 0.929 . S
C1556 C1558 1.378 . S
C1556 C1560 1.350 . S
C1557 C1560 1.463 . S
C1557 C1562 1.350 . S
C1557 N1565 1.427 . S
C1558 H1549 0.930 . S
C1558 C1556 1.378 . S
C1558 C1559 1.367 . S
C1559 C1558 1.367 . S
C1559 C1561 1.433 . S
C1560 C1556 1.350 . S
C1560 C1557 1.463 . S
C1560 N1564 1.427 . S
C1561 H1551 0.929 . S
C1561 C1559 1.433 . S
C1561 N1564 1.384 . S
C1562 H1553 0.929 . S
C1562 C1554 1.378 . S
C1562 C1557 1.350 . S
C1563 H1550 0.929 . S
C1563 C1555 1.433 . S
C1563 N1565 1.384 . S
N1564 C1560 1.427 . S
N1564 C1561 1.384 . S
N1565 C1557 1.427 . S
N1565 C1563 1.384 . S
H1566 C1572 0.930 . S
H1567 C1576 0.930 . S
H1568 C1581 0.929 . S
H1569 C1579 0.929 . S
H1570 C1574 0.929 . S
H1571 C1580 0.929 . S
C1572 H1566 0.930 . S
C1572 C1573 1.367 . S
C1572 C1580 1.378 . S
C1573 C1572 1.367 . S
C1573 C1581 1.433 . S
C1574 H1570 0.929 . S
C1574 C1576 1.378 . S
C1574 C1578 1.350 . S
C1575 C1578 1.463 . S
C1575 C1580 1.350 . S
C1575 N1583 1.427 . S
C1576 H1567 0.930 . S
C1576 C1574 1.378 . S
C1576 C1577 1.367 . S
C1577 C1576 1.367 . S
C1577 C1579 1.433 . S
C1578 C1574 1.350 . S
C1578 C1575 1.463 . S
C1578 N1582 1.427 . S
C1579 H1569 0.929 . S
C1579 C1577 1.433 . S
C1579 N1582 1.384 . S
C1580 H1571 0.929 . S
C1580 C1572 1.378 . S
C1580 C1575 1.350 . S
C1581 H1568 0.929 . S
C1581 C1573 1.433 . S
C1581 N1583 1.384 . S
N1582 C1578 1.427 . S
N1582 C1579 1.384 . S
N1583 C1575 1.427 . S
N1583 C1581 1.384 . S
H1584 C1590 0.930 . S
H1585 C1594 0.930 . S
H1586 C1599 0.929 . S
H1587 C1597 0.929 . S
H1588 C1592 0.929 . S
H1589 C1598 0.928 . S
C1590 H1584 0.930 . S
C1590 C1591 1.367 . S
C1590 C1598 1.378 . S
C1591 C1590 1.367 . S
C1591 C1599 1.433 . S
C1592 H1588 0.929 . S
C1592 C1594 1.378 1_556 S
C1592 C1596 1.350 . S
C1593 C1596 1.463 . S
C1593 C1598 1.350 . S
C1593 N1601 1.427 . S
C1594 H1585 0.930 . S
C1594 C1592 1.378 1_554 S
C1594 C1595 1.367 . S
C1595 C1594 1.367 . S
C1595 C1597 1.433 . S
C1596 C1592 1.350 . S
C1596 C1593 1.463 . S
C1596 N1600 1.427 1_556 S
C1597 H1587 0.929 . S
C1597 C1595 1.433 . S
C1597 N1600 1.384 . S
C1598 H1589 0.928 . S
C1598 C1590 1.378 . S
C1598 C1593 1.350 . S
C1599 H1586 0.929 . S
C1599 C1591 1.433 . S
C1599 N1601 1.384 . S
N1600 C1596 1.427 1_554 S
N1600 C1597 1.384 . S
N1601 C1593 1.427 . S
N1601 C1599 1.384 . S
H1602 C1608 0.930 . S
H1603 C1612 0.930 . S
H1604 C1617 0.929 . S
H1605 C1615 0.929 . S
H1606 C1610 0.929 . S
H1607 C1616 0.929 . S
C1608 H1602 0.930 . S
C1608 C1609 1.367 . S
C1608 C1616 1.378 . S
C1609 C1608 1.367 . S
C1609 C1617 1.433 . S
C1610 H1606 0.929 . S
C1610 C1612 1.378 1_556 S
C1610 C1614 1.350 . S
C1611 C1614 1.463 . S
C1611 C1616 1.350 . S
C1611 N1619 1.427 . S
C1612 H1603 0.930 . S
C1612 C1610 1.378 1_554 S
C1612 C1613 1.367 . S
C1613 C1612 1.367 . S
C1613 C1615 1.433 . S
C1614 C1610 1.350 . S
C1614 C1611 1.463 . S
C1614 N1618 1.427 . S
C1615 H1605 0.929 . S
C1615 C1613 1.433 . S
C1615 N1618 1.384 1_554 S
C1616 H1607 0.929 . S
C1616 C1608 1.378 . S
C1616 C1611 1.350 . S
C1617 H1604 0.929 . S
C1617 C1609 1.433 . S
C1617 N1619 1.384 . S
N1618 C1614 1.427 . S
N1618 C1615 1.384 1_556 S
N1619 C1611 1.427 . S
N1619 C1617 1.384 . S
H1620 C1626 0.930 . S
H1621 C1630 0.930 . S
H1622 C1635 0.929 . S
H1623 C1633 0.929 . S
H1624 C1628 0.929 . S
H1625 C1634 0.929 . S
C1626 H1620 0.930 . S
C1626 C1627 1.367 . S
C1626 C1634 1.378 . S
C1627 C1626 1.367 . S
C1627 C1635 1.433 . S
C1628 H1624 0.929 . S
C1628 C1630 1.378 . S
C1628 C1632 1.350 . S
C1629 C1632 1.463 1_556 S
C1629 C1634 1.350 . S
C1629 N1637 1.427 . S
C1630 H1621 0.930 . S
C1630 C1628 1.378 . S
C1630 C1631 1.367 . S
C1631 C1630 1.367 . S
C1631 C1633 1.433 . S
C1632 C1628 1.350 . S
C1632 C1629 1.463 1_554 S
C1632 N1636 1.427 . S
C1633 H1623 0.929 . S
C1633 C1631 1.433 . S
C1633 N1636 1.384 . S
C1634 H1625 0.929 . S
C1634 C1626 1.378 . S
C1634 C1629 1.350 . S
C1635 H1622 0.929 . S
C1635 C1627 1.433 . S
C1635 N1637 1.384 . S
N1636 C1632 1.427 . S
N1636 C1633 1.384 . S
N1637 C1629 1.427 . S
N1637 C1635 1.384 . S
H1638 C1644 0.930 . S
H1639 C1648 0.930 . S
H1640 C1653 0.929 . S
H1641 C1651 0.929 . S
H1642 C1646 0.929 . S
H1643 C1652 0.929 . S
C1644 H1638 0.930 . S
C1644 C1645 1.367 . S
C1644 C1652 1.378 . S
C1645 C1644 1.367 . S
C1645 C1653 1.433 . S
C1646 H1642 0.929 . S
C1646 C1648 1.378 . S
C1646 C1650 1.350 . S
C1647 C1650 1.463 . S
C1647 C1652 1.350 . S
C1647 N1655 1.427 . S
C1648 H1639 0.930 . S
C1648 C1646 1.378 . S
C1648 C1649 1.367 . S
C1649 C1648 1.367 . S
C1649 C1651 1.433 . S
C1650 C1646 1.350 . S
C1650 C1647 1.463 . S
C1650 N1654 1.427 . S
C1651 H1641 0.929 . S
C1651 C1649 1.433 . S
C1651 N1654 1.384 . S
C1652 H1643 0.929 . S
C1652 C1644 1.378 . S
C1652 C1647 1.350 . S
C1653 H1640 0.929 . S
C1653 C1645 1.433 . S
C1653 N1655 1.384 . S
N1654 C1650 1.427 . S
N1654 C1651 1.384 . S
N1655 C1647 1.427 . S
N1655 C1653 1.384 . S
H1656 C1662 0.930 . S
H1657 C1666 0.930 . S
H1658 C1671 0.929 . S
H1659 C1669 0.929 . S
H1660 C1664 0.929 . S
H1661 C1670 0.929 . S
C1662 H1656 0.930 . S
C1662 C1663 1.367 . S
C1662 C1670 1.378 . S
C1663 C1662 1.367 . S
C1663 C1671 1.433 . S
C1664 H1660 0.929 . S
C1664 C1666 1.378 . S
C1664 C1668 1.350 . S
C1665 C1668 1.463 . S
C1665 C1670 1.350 . S
C1665 N1673 1.427 . S
C1666 H1657 0.930 . S
C1666 C1664 1.378 . S
C1666 C1667 1.367 . S
C1667 C1666 1.367 . S
C1667 C1669 1.433 . S
C1668 C1664 1.350 . S
C1668 C1665 1.463 . S
C1668 N1672 1.427 . S
C1669 H1659 0.929 . S
C1669 C1667 1.433 . S
C1669 N1672 1.384 . S
C1670 H1661 0.929 . S
C1670 C1662 1.378 . S
C1670 C1665 1.350 . S
C1671 H1658 0.929 . S
C1671 C1663 1.433 . S
C1671 N1673 1.384 . S
N1672 C1668 1.427 . S
N1672 C1669 1.384 . S
N1673 C1665 1.427 . S
N1673 C1671 1.384 . S
H1674 C1680 0.930 . S
H1675 C1684 0.930 . S
H1676 C1689 0.929 . S
H1677 C1687 0.929 . S
H1678 C1682 0.929 . S
H1679 C1688 0.929 . S
C1680 H1674 0.930 . S
C1680 C1681 1.367 . S
C1680 C1688 1.378 . S
C1681 C1680 1.367 . S
C1681 C1689 1.433 . S
C1682 H1678 0.929 . S
C1682 C1684 1.378 . S
C1682 C1686 1.350 . S
C1683 C1686 1.463 . S
C1683 C1688 1.350 . S
C1683 N1691 1.427 . S
C1684 H1675 0.930 . S
C1684 C1682 1.378 . S
C1684 C1685 1.367 . S
C1685 C1684 1.367 . S
C1685 C1687 1.433 . S
C1686 C1682 1.350 . S
C1686 C1683 1.463 . S
C1686 N1690 1.427 . S
C1687 H1677 0.929 . S
C1687 C1685 1.433 . S
C1687 N1690 1.384 . S
C1688 H1679 0.929 . S
C1688 C1680 1.378 . S
C1688 C1683 1.350 . S
C1689 H1676 0.929 . S
C1689 C1681 1.433 . S
C1689 N1691 1.384 . S
N1690 C1686 1.427 . S
N1690 C1687 1.384 . S
N1691 C1683 1.427 . S
N1691 C1689 1.384 . S
H1692 C1698 0.930 . S
H1693 C1702 0.930 . S
H1694 C1707 0.929 . S
H1695 C1705 0.929 . S
H1696 C1700 0.929 . S
H1697 C1706 0.929 . S
C1698 H1692 0.930 . S
C1698 C1699 1.367 . S
C1698 C1706 1.378 . S
C1699 C1698 1.367 . S
C1699 C1707 1.433 . S
C1700 H1696 0.929 . S
C1700 C1702 1.378 . S
C1700 C1704 1.350 . S
C1701 C1704 1.463 . S
C1701 C1706 1.350 . S
C1701 N1709 1.427 . S
C1702 H1693 0.930 . S
C1702 C1700 1.378 . S
C1702 C1703 1.367 . S
C1703 C1702 1.367 . S
C1703 C1705 1.433 . S
C1704 C1700 1.350 . S
C1704 C1701 1.463 . S
C1704 N1708 1.427 . S
C1705 H1695 0.929 . S
C1705 C1703 1.433 . S
C1705 N1708 1.384 . S
C1706 H1697 0.929 . S
C1706 C1698 1.378 . S
C1706 C1701 1.350 . S
C1707 H1694 0.929 . S
C1707 C1699 1.433 . S
C1707 N1709 1.384 . S
N1708 C1704 1.427 . S
N1708 C1705 1.384 . S
N1709 C1701 1.427 . S
N1709 C1707 1.384 . S
H1710 C1716 0.930 . S
H1711 C1720 0.930 . S
H1712 C1725 0.929 . S
H1713 C1723 0.929 . S
H1714 C1718 0.929 . S
H1715 C1724 0.929 . S
C1716 H1710 0.930 . S
C1716 C1717 1.367 . S
C1716 C1724 1.378 . S
C1717 C1716 1.367 . S
C1717 C1725 1.433 . S
C1718 H1714 0.929 . S
C1718 C1720 1.378 . S
C1718 C1722 1.350 . S
C1719 C1722 1.463 . S
C1719 C1724 1.350 . S
C1719 N1727 1.427 . S
C1720 H1711 0.930 . S
C1720 C1718 1.378 . S
C1720 C1721 1.367 . S
C1721 C1720 1.367 . S
C1721 C1723 1.433 . S
C1722 C1718 1.350 . S
C1722 C1719 1.463 . S
C1722 N1726 1.427 . S
C1723 H1713 0.929 . S
C1723 C1721 1.433 . S
C1723 N1726 1.384 . S
C1724 H1715 0.929 . S
C1724 C1716 1.378 . S
C1724 C1719 1.350 . S
C1725 H1712 0.929 . S
C1725 C1717 1.433 . S
C1725 N1727 1.384 . S
N1726 C1722 1.427 . S
N1726 C1723 1.384 . S
N1727 C1719 1.427 . S
N1727 C1725 1.384 . S
H1728 C1734 0.930 . S
H1729 C1738 0.930 . S
H1730 C1743 0.929 . S
H1731 C1741 0.929 . S
H1732 C1736 0.929 . S
H1733 C1742 0.929 . S
C1734 H1728 0.930 . S
C1734 C1735 1.367 . S
C1734 C1742 1.378 . S
C1735 C1734 1.367 . S
C1735 C1743 1.433 . S
C1736 H1732 0.929 . S
C1736 C1738 1.378 . S
C1736 C1740 1.350 . S
C1737 C1740 1.463 . S
C1737 C1742 1.350 . S
C1737 N1745 1.427 . S
C1738 H1729 0.930 . S
C1738 C1736 1.378 . S
C1738 C1739 1.367 . S
C1739 C1738 1.367 . S
C1739 C1741 1.433 . S
C1740 C1736 1.350 . S
C1740 C1737 1.463 . S
C1740 N1744 1.427 . S
C1741 H1731 0.929 . S
C1741 C1739 1.433 . S
C1741 N1744 1.384 . S
C1742 H1733 0.929 . S
C1742 C1734 1.378 . S
C1742 C1737 1.350 . S
C1743 H1730 0.929 . S
C1743 C1735 1.433 . S
C1743 N1745 1.384 . S
N1744 C1740 1.427 . S
N1744 C1741 1.384 . S
N1745 C1737 1.427 . S
N1745 C1743 1.384 . S
H1746 C1752 0.930 . S
H1747 C1756 0.930 . S
H1748 C1761 0.929 . S
H1749 C1759 0.929 . S
H1750 C1754 0.929 . S
H1751 C1760 0.929 . S
C1752 H1746 0.930 . S
C1752 C1753 1.367 . S
C1752 C1760 1.378 . S
C1753 C1752 1.367 . S
C1753 C1761 1.433 . S
C1754 H1750 0.929 . S
C1754 C1756 1.378 . S
C1754 C1758 1.350 . S
C1755 C1758 1.463 . S
C1755 C1760 1.350 . S
C1755 N1763 1.427 . S
C1756 H1747 0.930 . S
C1756 C1754 1.378 . S
C1756 C1757 1.367 . S
C1757 C1756 1.367 . S
C1757 C1759 1.433 . S
C1758 C1754 1.350 . S
C1758 C1755 1.463 . S
C1758 N1762 1.427 . S
C1759 H1749 0.929 . S
C1759 C1757 1.433 . S
C1759 N1762 1.384 . S
C1760 H1751 0.929 . S
C1760 C1752 1.378 . S
C1760 C1755 1.350 . S
C1761 H1748 0.929 . S
C1761 C1753 1.433 . S
C1761 N1763 1.384 . S
N1762 C1758 1.427 . S
N1762 C1759 1.384 . S
N1763 C1755 1.427 . S
N1763 C1761 1.384 . S
H1764 C1770 0.930 . S
H1765 C1774 0.930 . S
H1766 C1779 0.929 . S
H1767 C1777 0.929 . S
H1768 C1772 0.929 . S
H1769 C1778 0.929 . S
C1770 H1764 0.930 . S
C1770 C1771 1.367 . S
C1770 C1778 1.378 . S
C1771 C1770 1.367 . S
C1771 C1779 1.433 . S
C1772 H1768 0.929 . S
C1772 C1774 1.378 . S
C1772 C1776 1.350 . S
C1773 C1776 1.463 . S
C1773 C1778 1.350 . S
C1773 N1781 1.427 . S
C1774 H1765 0.930 . S
C1774 C1772 1.378 . S
C1774 C1775 1.367 . S
C1775 C1774 1.367 . S
C1775 C1777 1.433 . S
C1776 C1772 1.350 . S
C1776 C1773 1.463 . S
C1776 N1780 1.427 . S
C1777 H1767 0.929 . S
C1777 C1775 1.433 . S
C1777 N1780 1.384 . S
C1778 H1769 0.929 . S
C1778 C1770 1.378 . S
C1778 C1773 1.350 . S
C1779 H1766 0.929 . S
C1779 C1771 1.433 . S
C1779 N1781 1.384 . S
N1780 C1776 1.427 . S
N1780 C1777 1.384 . S
N1781 C1773 1.427 . S
N1781 C1779 1.384 . S
H1782 C1788 0.930 . S
H1783 C1792 0.930 . S
H1784 C1797 0.929 . S
H1785 C1795 0.929 . S
H1786 C1790 0.929 . S
H1787 C1796 0.929 . S
C1788 H1782 0.930 . S
C1788 C1789 1.367 . S
C1788 C1796 1.378 . S
C1789 C1788 1.367 . S
C1789 C1797 1.433 . S
C1790 H1786 0.929 . S
C1790 C1792 1.378 . S
C1790 C1794 1.350 . S
C1791 C1794 1.463 . S
C1791 C1796 1.350 . S
C1791 N1799 1.427 . S
C1792 H1783 0.930 . S
C1792 C1790 1.378 . S
C1792 C1793 1.367 . S
C1793 C1792 1.367 . S
C1793 C1795 1.433 . S
C1794 C1790 1.350 . S
C1794 C1791 1.463 . S
C1794 N1798 1.427 . S
C1795 H1785 0.929 . S
C1795 C1793 1.433 . S
C1795 N1798 1.384 . S
C1796 H1787 0.929 . S
C1796 C1788 1.378 . S
C1796 C1791 1.350 . S
C1797 H1784 0.929 . S
C1797 C1789 1.433 . S
C1797 N1799 1.384 . S
N1798 C1794 1.427 . S
N1798 C1795 1.384 . S
N1799 C1791 1.427 . S
N1799 C1797 1.384 . S
H1800 C1806 0.930 . S
H1801 C1810 0.930 . S
H1802 C1815 0.929 . S
H1803 C1813 0.929 . S
H1804 C1808 0.929 . S
H1805 C1814 0.929 . S
C1806 H1800 0.930 . S
C1806 C1807 1.367 . S
C1806 C1814 1.378 . S
C1807 C1806 1.367 . S
C1807 C1815 1.433 . S
C1808 H1804 0.929 . S
C1808 C1810 1.378 . S
C1808 C1812 1.350 . S
C1809 C1812 1.463 . S
C1809 C1814 1.350 . S
C1809 N1817 1.427 . S
C1810 H1801 0.930 . S
C1810 C1808 1.378 . S
C1810 C1811 1.367 . S
C1811 C1810 1.367 . S
C1811 C1813 1.433 . S
C1812 C1808 1.350 . S
C1812 C1809 1.463 . S
C1812 N1816 1.427 . S
C1813 H1803 0.929 . S
C1813 C1811 1.433 . S
C1813 N1816 1.384 . S
C1814 H1805 0.929 . S
C1814 C1806 1.378 . S
C1814 C1809 1.350 . S
C1815 H1802 0.929 . S
C1815 C1807 1.433 . S
C1815 N1817 1.384 . S
N1816 C1812 1.427 . S
N1816 C1813 1.384 . S
N1817 C1809 1.427 . S
N1817 C1815 1.384 . S
H1818 C1824 0.930 . S
H1819 C1828 0.930 . S
H1820 C1833 0.929 . S
H1821 C1831 0.929 . S
H1822 C1826 0.929 . S
H1823 C1832 0.929 . S
C1824 H1818 0.930 . S
C1824 C1825 1.367 . S
C1824 C1832 1.378 . S
C1825 C1824 1.367 . S
C1825 C1833 1.433 . S
C1826 H1822 0.929 . S
C1826 C1828 1.378 . S
C1826 C1830 1.350 . S
C1827 C1830 1.463 . S
C1827 C1832 1.350 . S
C1827 N1835 1.427 . S
C1828 H1819 0.930 . S
C1828 C1826 1.378 . S
C1828 C1829 1.367 . S
C1829 C1828 1.367 . S
C1829 C1831 1.433 . S
C1830 C1826 1.350 . S
C1830 C1827 1.463 . S
C1830 N1834 1.427 . S
C1831 H1821 0.929 . S
C1831 C1829 1.433 . S
C1831 N1834 1.384 . S
C1832 H1823 0.929 . S
C1832 C1824 1.378 . S
C1832 C1827 1.350 . S
C1833 H1820 0.929 . S
C1833 C1825 1.433 . S
C1833 N1835 1.384 . S
N1834 C1830 1.427 . S
N1834 C1831 1.384 . S
N1835 C1827 1.427 . S
N1835 C1833 1.384 . S
H1836 C1842 0.930 . S
H1837 C1846 0.930 . S
H1838 C1851 0.929 . S
H1839 C1849 0.929 . S
H1840 C1844 0.929 . S
H1841 C1850 0.929 . S
C1842 H1836 0.930 . S
C1842 C1843 1.367 . S
C1842 C1850 1.378 . S
C1843 C1842 1.367 . S
C1843 C1851 1.433 . S
C1844 H1840 0.929 . S
C1844 C1846 1.378 . S
C1844 C1848 1.350 . S
C1845 C1848 1.463 . S
C1845 C1850 1.350 . S
C1845 N1853 1.427 . S
C1846 H1837 0.930 . S
C1846 C1844 1.378 . S
C1846 C1847 1.367 . S
C1847 C1846 1.367 . S
C1847 C1849 1.433 . S
C1848 C1844 1.350 . S
C1848 C1845 1.463 . S
C1848 N1852 1.427 . S
C1849 H1839 0.929 . S
C1849 C1847 1.433 . S
C1849 N1852 1.384 . S
C1850 H1841 0.929 . S
C1850 C1842 1.378 . S
C1850 C1845 1.350 . S
C1851 H1838 0.929 . S
C1851 C1843 1.433 . S
C1851 N1853 1.384 . S
N1852 C1848 1.427 . S
N1852 C1849 1.384 . S
N1853 C1845 1.427 . S
N1853 C1851 1.384 . S
H1854 C1860 0.930 . S
H1855 C1864 0.930 . S
H1856 C1869 0.929 . S
H1857 C1867 0.929 . S
H1858 C1862 0.929 . S
H1859 C1868 0.929 . S
C1860 H1854 0.930 . S
C1860 C1861 1.367 . S
C1860 C1868 1.378 . S
C1861 C1860 1.367 . S
C1861 C1869 1.433 . S
C1862 H1858 0.929 . S
C1862 C1864 1.378 . S
C1862 C1866 1.350 . S
C1863 C1866 1.463 . S
C1863 C1868 1.350 . S
C1863 N1871 1.427 . S
C1864 H1855 0.930 . S
C1864 C1862 1.378 . S
C1864 C1865 1.367 . S
C1865 C1864 1.367 . S
C1865 C1867 1.433 . S
C1866 C1862 1.350 . S
C1866 C1863 1.463 . S
C1866 N1870 1.427 . S
C1867 H1857 0.929 . S
C1867 C1865 1.433 . S
C1867 N1870 1.384 . S
C1868 H1859 0.929 . S
C1868 C1860 1.378 . S
C1868 C1863 1.350 . S
C1869 H1856 0.929 . S
C1869 C1861 1.433 . S
C1869 N1871 1.384 . S
N1870 C1866 1.427 . S
N1870 C1867 1.384 . S
N1871 C1863 1.427 . S
N1871 C1869 1.384 . S
H1872 C1878 0.930 . S
H1873 C1882 0.930 . S
H1874 C1887 0.929 . S
H1875 C1885 0.929 . S
H1876 C1880 0.929 . S
H1877 C1886 0.929 . S
C1878 H1872 0.930 . S
C1878 C1879 1.367 . S
C1878 C1886 1.378 . S
C1879 C1878 1.367 . S
C1879 C1887 1.433 . S
C1880 H1876 0.929 . S
C1880 C1882 1.378 . S
C1880 C1884 1.350 . S
C1881 C1884 1.463 . S
C1881 C1886 1.350 . S
C1881 N1889 1.427 . S
C1882 H1873 0.930 . S
C1882 C1880 1.378 . S
C1882 C1883 1.367 . S
C1883 C1882 1.367 . S
C1883 C1885 1.433 . S
C1884 C1880 1.350 . S
C1884 C1881 1.463 . S
C1884 N1888 1.427 . S
C1885 H1875 0.929 . S
C1885 C1883 1.433 . S
C1885 N1888 1.384 . S
C1886 H1877 0.929 . S
C1886 C1878 1.378 . S
C1886 C1881 1.350 . S
C1887 H1874 0.929 . S
C1887 C1879 1.433 . S
C1887 N1889 1.384 . S
N1888 C1884 1.427 . S
N1888 C1885 1.384 . S
N1889 C1881 1.427 . S
N1889 C1887 1.384 . S
H1890 C1896 0.930 . S
H1891 C1900 0.930 . S
H1892 C1905 0.929 . S
H1893 C1903 0.929 . S
H1894 C1898 0.929 . S
H1895 C1904 0.929 . S
C1896 H1890 0.930 . S
C1896 C1897 1.367 . S
C1896 C1904 1.378 . S
C1897 C1896 1.367 . S
C1897 C1905 1.433 . S
C1898 H1894 0.929 . S
C1898 C1900 1.378 . S
C1898 C1902 1.350 . S
C1899 C1902 1.463 . S
C1899 C1904 1.350 . S
C1899 N1907 1.427 . S
C1900 H1891 0.930 . S
C1900 C1898 1.378 . S
C1900 C1901 1.367 . S
C1901 C1900 1.367 . S
C1901 C1903 1.433 . S
C1902 C1898 1.350 . S
C1902 C1899 1.463 . S
C1902 N1906 1.427 . S
C1903 H1893 0.929 . S
C1903 C1901 1.433 . S
C1903 N1906 1.384 . S
C1904 H1895 0.929 . S
C1904 C1896 1.378 . S
C1904 C1899 1.350 . S
C1905 H1892 0.929 . S
C1905 C1897 1.433 . S
C1905 N1907 1.384 . S
N1906 C1902 1.427 . S
N1906 C1903 1.384 . S
N1907 C1899 1.427 . S
N1907 C1905 1.384 . S
H1908 C1914 0.930 . S
H1909 C1918 0.930 . S
H1910 C1923 0.929 . S
H1911 C1921 0.929 . S
H1912 C1916 0.929 . S
H1913 C1922 0.929 . S
C1914 H1908 0.930 . S
C1914 C1915 1.367 . S
C1914 C1922 1.378 . S
C1915 C1914 1.367 . S
C1915 C1923 1.433 . S
C1916 H1912 0.929 . S
C1916 C1918 1.378 1_554 S
C1916 C1920 1.350 . S
C1917 C1920 1.463 . S
C1917 C1922 1.350 . S
C1917 N1925 1.427 . S
C1918 H1909 0.930 . S
C1918 C1916 1.378 1_556 S
C1918 C1919 1.367 . S
C1919 C1918 1.367 . S
C1919 C1921 1.433 . S
C1920 C1916 1.350 . S
C1920 C1917 1.463 . S
C1920 N1924 1.427 . S
C1921 H1911 0.929 . S
C1921 C1919 1.433 . S
C1921 N1924 1.384 1_556 S
C1922 H1913 0.929 . S
C1922 C1914 1.378 . S
C1922 C1917 1.350 . S
C1923 H1910 0.929 . S
C1923 C1915 1.433 . S
C1923 N1925 1.384 . S
N1924 C1920 1.427 . S
N1924 C1921 1.384 1_554 S
N1925 C1917 1.427 . S
N1925 C1923 1.384 . S
H1926 C1932 0.930 . S
H1927 C1936 0.930 . S
H1928 C1941 0.929 . S
H1929 C1939 0.929 . S
H1930 C1934 0.929 . S
H1931 C1940 0.929 . S
C1932 H1926 0.930 . S
C1932 C1933 1.367 . S
C1932 C1940 1.378 . S
C1933 C1932 1.367 . S
C1933 C1941 1.433 . S
C1934 H1930 0.929 . S
C1934 C1936 1.378 . S
C1934 C1938 1.350 . S
C1935 C1938 1.463 . S
C1935 C1940 1.350 . S
C1935 N1943 1.427 . S
C1936 H1927 0.930 . S
C1936 C1934 1.378 . S
C1936 C1937 1.367 . S
C1937 C1936 1.367 . S
C1937 C1939 1.433 . S
C1938 C1934 1.350 . S
C1938 C1935 1.463 . S
C1938 N1942 1.427 . S
C1939 H1929 0.929 . S
C1939 C1937 1.433 . S
C1939 N1942 1.384 . S
C1940 H1931 0.929 . S
C1940 C1932 1.378 . S
C1940 C1935 1.350 . S
C1941 H1928 0.929 . S
C1941 C1933 1.433 . S
C1941 N1943 1.384 . S
N1942 C1938 1.427 . S
N1942 C1939 1.384 . S
N1943 C1935 1.427 . S
N1943 C1941 1.384 . S
H1944 C1950 0.930 . S
H1945 C1954 0.930 . S
H1946 C1959 0.929 . S
H1947 C1957 0.929 . S
H1948 C1952 0.929 . S
H1949 C1958 0.929 . S
C1950 H1944 0.930 . S
C1950 C1951 1.367 . S
C1950 C1958 1.378 . S
C1951 C1950 1.367 . S
C1951 C1959 1.433 . S
C1952 H1948 0.929 . S
C1952 C1954 1.378 1_554 S
C1952 C1956 1.350 . S
C1953 C1956 1.463 . S
C1953 C1958 1.350 . S
C1953 N1961 1.427 . S
C1954 H1945 0.930 . S
C1954 C1952 1.378 1_556 S
C1954 C1955 1.367 . S
C1955 C1954 1.367 . S
C1955 C1957 1.433 1_556 S
C1956 C1952 1.350 . S
C1956 C1953 1.463 . S
C1956 N1960 1.427 . S
C1957 H1947 0.929 . S
C1957 C1955 1.433 1_554 S
C1957 N1960 1.384 . S
C1958 H1949 0.929 . S
C1958 C1950 1.378 . S
C1958 C1953 1.350 . S
C1959 H1946 0.929 . S
C1959 C1951 1.433 . S
C1959 N1961 1.384 . S
N1960 C1956 1.427 . S
N1960 C1957 1.384 . S
N1961 C1953 1.427 . S
N1961 C1959 1.384 . S
C673 C7 1.442 . S
C677 C568 1.438 . S
C695 C545 1.815 . S
C691 C39 1.796 . S
C713 C554 1.617 1_545 S
C709 C62 1.574 . S
C727 C76 1.837 . S
C731 C624 1.836 . S
C745 C108 1.513 . S
C749 C643 1.511 . S
C763 N117 1.380 . S
C767 C657 1.392 . S
C785 C619 1.428 . S
C781 C16 1.415 . S
C799 C30 1.840 . S
C803 C587 1.845 . S
C821 C605 1.541 . S
C817 C53 1.541 1_556 S
C835 C85 1.817 . S
C839 C507 1.815 . S
C857 C517 1.717 . S
C853 C99 1.706 . S
C871 N127 1.297 . S
C875 C531 1.347 . S
C889 N150 1.160 . S
C893 C652 1.182 . S
C911 C629 1.584 . S
C907 N173 1.557 . S
C929 C638 1.428 . S
C925 C200 1.415 . S
C943 C214 1.659 . S
C947 C456 1.667 . S
C961 N232 1.558 . S
C965 C475 1.571 . S
C979 C260 1.519 . S
C983 C489 1.533 1_565 S
C1001 C451 1.283 . S
C997 N140 1.231 . S
C1015 N163 1.308 . S
C1019 C419 1.343 . S
C1037 C437 1.626 . S
C1033 C191 1.625 . S
C1055 C591 1.913 . S
C1051 C223 1.922 . S
C1073 C601 1.532 . S
C1069 N242 1.467 . S
C1091 C615 1.508 . S
C1087 C269 1.510 . S
C1105 N288 1.309 . S
C1109 C484 1.329 . S
C1123 C315 1.545 . S
C1127 C461 1.571 . S
C1141 C338 1.643 . S
C1145 C470 1.663 . S
C1159 C352 1.846 . S
C1163 C540 1.844 . S
C1181 C559 1.619 . S
C1177 N370 1.601 . S
C1199 C573 1.603 1_655 S
C1195 C398 1.589 . S
C1217 C535 1.231 . S
C1213 N278 1.170 . S
C1231 C306 1.742 . S
C1235 C503 1.751 . S
C1249 C329 1.641 . S
C1253 C521 1.615 1_655 S
C1271 C423 1.560 . S
C1267 C361 1.568 . S
C1285 N380 1.510 . S
C1289 C433 1.567 . S
C1307 C447 1.479 . S
C1303 C407 1.477 . S
C1325 C467 1.398 . S
C1321 N12 1.355 . S
C1339 N25 1.576 . S
C1343 C479 1.590 . S
C1361 C493 1.329 . S
C1357 N48 1.319 . S
C1379 C495 1.334 . S
C1375 N81 1.316 . S
C1397 C465 1.540 . S
C1393 N94 1.502 . S
C1415 C481 1.562 . S
C1411 C131 1.549 . S
C1433 C425 1.395 . S
C1429 N2 1.388 . S
C1447 N35 1.491 . S
C1451 C428 1.521 . S
C1465 N58 1.279 . S
C1469 C442 1.309 . S
C1487 C453 1.282 . S
C1483 N71 1.234 . S
C1505 C414 1.395 . S
C1501 N104 1.375 . S
C1523 C439 1.574 . S
C1519 C122 1.584 . S
C1537 C145 1.987 . S
C1541 C551 1.999 . S
C1555 C168 1.738 . S
C1559 C563 1.740 . S
C1573 N186 1.427 . S
C1577 C577 1.436 . S
C1595 C579 1.353 . S
C1591 N219 1.339 . S
C1613 C549 1.799 . S
C1609 C246 1.775 . S
C1631 C565 1.473 . S
C1627 N265 1.453 . S
C1649 C509 1.885 . S
C1645 C154 1.901 . S
C1663 C177 1.834 . S
C1667 C512 1.820 . S
C1681 N196 1.259 . S
C1685 C526 1.289 . S
C1699 N209 1.152 . S
C1703 C537 1.194 . S
C1717 C237 1.824 . S
C1721 C498 1.809 . S
C1739 C523 1.425 . S
C1735 N255 1.382 . S
C1753 C283 1.760 . S
C1757 C635 1.762 . S
C1771 N301 1.457 . S
C1775 C647 1.463 . S
C1789 N324 1.309 . S
C1793 C661 1.313 . S
C1811 C663 1.176 . S
C1807 N357 1.163 . S
C1829 C633 1.773 . S
C1825 C384 1.759 . S
C1843 N403 1.306 . S
C1847 C649 1.324 . S
C1861 C292 1.859 . S
C1865 C593 1.845 . S
C1883 C596 1.388 . S
C1879 N311 1.356 . S
C1897 N334 1.376 . S
C1901 C610 1.413 . S
C1915 N347 1.281 . S
C1919 C621 1.323 . S
C1937 C582 1.857 1_554 S
C1933 C375 1.869 . S
C1951 N393 1.335 . S
C1955 C607 1.383 . S
