# Generated by pormake.
# Topology ibd, (4,6)-cn, num edge types: 1
# Building blocks:
#     Node 0, Type 0, BuildingBlock: GALJAG_clean_sbu_0, # of connection points: 4
#     Node 1, Type 0, BuildingBlock: GALJAG_clean_sbu_0, # of connection points: 4
#     Node 2, Type 0, BuildingBlock: GALJAG_clean_sbu_0, # of connection points: 4
#     Node 3, Type 0, BuildingBlock: GALJAG_clean_sbu_0, # of connection points: 4
#     Node 4, Type 0, BuildingBlock: GALJAG_clean_sbu_0, # of connection points: 4
#     Node 5, Type 0, BuildingBlock: GALJAG_clean_sbu_0, # of connection points: 4
#     Node 6, Type 0, BuildingBlock: GALJAG_clean_sbu_0, # of connection points: 4
#     Node 7, Type 0, BuildingBlock: GALJAG_clean_sbu_0, # of connection points: 4
#     Node 8, Type 0, BuildingBlock: GALJAG_clean_sbu_0, # of connection points: 4
#     Node 9, Type 0, BuildingBlock: GALJAG_clean_sbu_0, # of connection points: 4
#     Node 10, Type 0, BuildingBlock: GALJAG_clean_sbu_0, # of connection points: 4
#     Node 11, Type 0, BuildingBlock: GALJAG_clean_sbu_0, # of connection points: 4
#     Node 12, Type 0, BuildingBlock: GALJAG_clean_sbu_0, # of connection points: 4
#     Node 13, Type 0, BuildingBlock: GALJAG_clean_sbu_0, # of connection points: 4
#     Node 14, Type 0, BuildingBlock: GALJAG_clean_sbu_0, # of connection points: 4
#     Node 15, Type 0, BuildingBlock: GALJAG_clean_sbu_0, # of connection points: 4
#     Node 16, Type 0, BuildingBlock: GALJAG_clean_sbu_0, # of connection points: 4
#     Node 17, Type 0, BuildingBlock: GALJAG_clean_sbu_0, # of connection points: 4
#     Node 18, Type 0, BuildingBlock: GALJAG_clean_sbu_0, # of connection points: 4
#     Node 19, Type 0, BuildingBlock: GALJAG_clean_sbu_0, # of connection points: 4
#     Node 20, Type 0, BuildingBlock: GALJAG_clean_sbu_0, # of connection points: 4
#     Node 21, Type 0, BuildingBlock: GALJAG_clean_sbu_0, # of connection points: 4
#     Node 22, Type 0, BuildingBlock: GALJAG_clean_sbu_0, # of connection points: 4
#     Node 23, Type 0, BuildingBlock: GALJAG_clean_sbu_0, # of connection points: 4
#     Node 24, Type 1, BuildingBlock: CIFDUS_clean_sbu_1, # of connection points: 6
#     Node 25, Type 1, BuildingBlock: CIFDUS_clean_sbu_1, # of connection points: 6
#     Node 26, Type 1, BuildingBlock: CIFDUS_clean_sbu_1, # of connection points: 6
#     Node 27, Type 1, BuildingBlock: CIFDUS_clean_sbu_1, # of connection points: 6
#     Node 28, Type 1, BuildingBlock: CIFDUS_clean_sbu_1, # of connection points: 6
#     Node 29, Type 1, BuildingBlock: CIFDUS_clean_sbu_1, # of connection points: 6
#     Node 30, Type 1, BuildingBlock: CIFDUS_clean_sbu_1, # of connection points: 6
#     Node 31, Type 1, BuildingBlock: CIFDUS_clean_sbu_1, # of connection points: 6
#     Node 32, Type 1, BuildingBlock: CIFDUS_clean_sbu_1, # of connection points: 6
#     Node 33, Type 1, BuildingBlock: CIFDUS_clean_sbu_1, # of connection points: 6
#     Node 34, Type 1, BuildingBlock: CIFDUS_clean_sbu_1, # of connection points: 6
#     Node 35, Type 1, BuildingBlock: CIFDUS_clean_sbu_1, # of connection points: 6
#     Node 36, Type 1, BuildingBlock: CIFDUS_clean_sbu_1, # of connection points: 6
#     Node 37, Type 1, BuildingBlock: CIFDUS_clean_sbu_1, # of connection points: 6
#     Node 38, Type 1, BuildingBlock: CIFDUS_clean_sbu_1, # of connection points: 6
#     Node 39, Type 1, BuildingBlock: CIFDUS_clean_sbu_1, # of connection points: 6
#     Edge 40, Type (0, 1), BuildingBlock: KIFKEQ_clean_linker_1, # of connection points: 2
#     Edge 41, Type (0, 1), BuildingBlock: KIFKEQ_clean_linker_1, # of connection points: 2
#     Edge 42, Type (0, 1), BuildingBlock: KIFKEQ_clean_linker_1, # of connection points: 2
#     Edge 43, Type (0, 1), BuildingBlock: KIFKEQ_clean_linker_1, # of connection points: 2
#     Edge 44, Type (0, 1), BuildingBlock: KIFKEQ_clean_linker_1, # of connection points: 2
#     Edge 45, Type (0, 1), BuildingBlock: KIFKEQ_clean_linker_1, # of connection points: 2
#     Edge 46, Type (0, 1), BuildingBlock: KIFKEQ_clean_linker_1, # of connection points: 2
#     Edge 47, Type (0, 1), BuildingBlock: KIFKEQ_clean_linker_1, # of connection points: 2
#     Edge 48, Type (0, 1), BuildingBlock: KIFKEQ_clean_linker_1, # of connection points: 2
#     Edge 49, Type (0, 1), BuildingBlock: KIFKEQ_clean_linker_1, # of connection points: 2
#     Edge 50, Type (0, 1), BuildingBlock: KIFKEQ_clean_linker_1, # of connection points: 2
#     Edge 51, Type (0, 1), BuildingBlock: KIFKEQ_clean_linker_1, # of connection points: 2
#     Edge 52, Type (0, 1), BuildingBlock: KIFKEQ_clean_linker_1, # of connection points: 2
#     Edge 53, Type (0, 1), BuildingBlock: KIFKEQ_clean_linker_1, # of connection points: 2
#     Edge 54, Type (0, 1), BuildingBlock: KIFKEQ_clean_linker_1, # of connection points: 2
#     Edge 55, Type (0, 1), BuildingBlock: KIFKEQ_clean_linker_1, # of connection points: 2
#     Edge 56, Type (0, 1), BuildingBlock: KIFKEQ_clean_linker_1, # of connection points: 2
#     Edge 57, Type (0, 1), BuildingBlock: KIFKEQ_clean_linker_1, # of connection points: 2
#     Edge 58, Type (0, 1), BuildingBlock: KIFKEQ_clean_linker_1, # of connection points: 2
#     Edge 59, Type (0, 1), BuildingBlock: KIFKEQ_clean_linker_1, # of connection points: 2
#     Edge 60, Type (0, 1), BuildingBlock: KIFKEQ_clean_linker_1, # of connection points: 2
#     Edge 61, Type (0, 1), BuildingBlock: KIFKEQ_clean_linker_1, # of connection points: 2
#     Edge 62, Type (0, 1), BuildingBlock: KIFKEQ_clean_linker_1, # of connection points: 2
#     Edge 63, Type (0, 1), BuildingBlock: KIFKEQ_clean_linker_1, # of connection points: 2
#     Edge 64, Type (0, 1), BuildingBlock: KIFKEQ_clean_linker_1, # of connection points: 2
#     Edge 65, Type (0, 1), BuildingBlock: KIFKEQ_clean_linker_1, # of connection points: 2
#     Edge 66, Type (0, 1), BuildingBlock: KIFKEQ_clean_linker_1, # of connection points: 2
#     Edge 67, Type (0, 1), BuildingBlock: KIFKEQ_clean_linker_1, # of connection points: 2
#     Edge 68, Type (0, 1), BuildingBlock: KIFKEQ_clean_linker_1, # of connection points: 2
#     Edge 69, Type (0, 1), BuildingBlock: KIFKEQ_clean_linker_1, # of connection points: 2
#     Edge 70, Type (0, 1), BuildingBlock: KIFKEQ_clean_linker_1, # of connection points: 2
#     Edge 71, Type (0, 1), BuildingBlock: KIFKEQ_clean_linker_1, # of connection points: 2
#     Edge 72, Type (0, 1), BuildingBlock: KIFKEQ_clean_linker_1, # of connection points: 2
#     Edge 73, Type (0, 1), BuildingBlock: KIFKEQ_clean_linker_1, # of connection points: 2
#     Edge 74, Type (0, 1), BuildingBlock: KIFKEQ_clean_linker_1, # of connection points: 2
#     Edge 75, Type (0, 1), BuildingBlock: KIFKEQ_clean_linker_1, # of connection points: 2
#     Edge 76, Type (0, 1), BuildingBlock: KIFKEQ_clean_linker_1, # of connection points: 2
#     Edge 77, Type (0, 1), BuildingBlock: KIFKEQ_clean_linker_1, # of connection points: 2
#     Edge 78, Type (0, 1), BuildingBlock: KIFKEQ_clean_linker_1, # of connection points: 2
#     Edge 79, Type (0, 1), BuildingBlock: KIFKEQ_clean_linker_1, # of connection points: 2
#     Edge 80, Type (0, 1), BuildingBlock: KIFKEQ_clean_linker_1, # of connection points: 2
#     Edge 81, Type (0, 1), BuildingBlock: KIFKEQ_clean_linker_1, # of connection points: 2
#     Edge 82, Type (0, 1), BuildingBlock: KIFKEQ_clean_linker_1, # of connection points: 2
#     Edge 83, Type (0, 1), BuildingBlock: KIFKEQ_clean_linker_1, # of connection points: 2
#     Edge 84, Type (0, 1), BuildingBlock: KIFKEQ_clean_linker_1, # of connection points: 2
#     Edge 85, Type (0, 1), BuildingBlock: KIFKEQ_clean_linker_1, # of connection points: 2
#     Edge 86, Type (0, 1), BuildingBlock: KIFKEQ_clean_linker_1, # of connection points: 2
#     Edge 87, Type (0, 1), BuildingBlock: KIFKEQ_clean_linker_1, # of connection points: 2
#     Edge 88, Type (0, 1), BuildingBlock: KIFKEQ_clean_linker_1, # of connection points: 2
#     Edge 89, Type (0, 1), BuildingBlock: KIFKEQ_clean_linker_1, # of connection points: 2
#     Edge 90, Type (0, 1), BuildingBlock: KIFKEQ_clean_linker_1, # of connection points: 2
#     Edge 91, Type (0, 1), BuildingBlock: KIFKEQ_clean_linker_1, # of connection points: 2
#     Edge 92, Type (0, 1), BuildingBlock: KIFKEQ_clean_linker_1, # of connection points: 2
#     Edge 93, Type (0, 1), BuildingBlock: KIFKEQ_clean_linker_1, # of connection points: 2
#     Edge 94, Type (0, 1), BuildingBlock: KIFKEQ_clean_linker_1, # of connection points: 2
#     Edge 95, Type (0, 1), BuildingBlock: KIFKEQ_clean_linker_1, # of connection points: 2
#     Edge 96, Type (0, 1), BuildingBlock: KIFKEQ_clean_linker_1, # of connection points: 2
#     Edge 97, Type (0, 1), BuildingBlock: KIFKEQ_clean_linker_1, # of connection points: 2
#     Edge 98, Type (0, 1), BuildingBlock: KIFKEQ_clean_linker_1, # of connection points: 2
#     Edge 99, Type (0, 1), BuildingBlock: KIFKEQ_clean_linker_1, # of connection points: 2
#     Edge 100, Type (0, 1), BuildingBlock: KIFKEQ_clean_linker_1, # of connection points: 2
#     Edge 101, Type (0, 1), BuildingBlock: KIFKEQ_clean_linker_1, # of connection points: 2
#     Edge 102, Type (0, 1), BuildingBlock: KIFKEQ_clean_linker_1, # of connection points: 2
#     Edge 103, Type (0, 1), BuildingBlock: KIFKEQ_clean_linker_1, # of connection points: 2
#     Edge 104, Type (0, 1), BuildingBlock: KIFKEQ_clean_linker_1, # of connection points: 2
#     Edge 105, Type (0, 1), BuildingBlock: KIFKEQ_clean_linker_1, # of connection points: 2
#     Edge 106, Type (0, 1), BuildingBlock: KIFKEQ_clean_linker_1, # of connection points: 2
#     Edge 107, Type (0, 1), BuildingBlock: KIFKEQ_clean_linker_1, # of connection points: 2
#     Edge 108, Type (0, 1), BuildingBlock: KIFKEQ_clean_linker_1, # of connection points: 2
#     Edge 109, Type (0, 1), BuildingBlock: KIFKEQ_clean_linker_1, # of connection points: 2
#     Edge 110, Type (0, 1), BuildingBlock: KIFKEQ_clean_linker_1, # of connection points: 2
#     Edge 111, Type (0, 1), BuildingBlock: KIFKEQ_clean_linker_1, # of connection points: 2
#     Edge 112, Type (0, 1), BuildingBlock: KIFKEQ_clean_linker_1, # of connection points: 2
#     Edge 113, Type (0, 1), BuildingBlock: KIFKEQ_clean_linker_1, # of connection points: 2
#     Edge 114, Type (0, 1), BuildingBlock: KIFKEQ_clean_linker_1, # of connection points: 2
#     Edge 115, Type (0, 1), BuildingBlock: KIFKEQ_clean_linker_1, # of connection points: 2
#     Edge 116, Type (0, 1), BuildingBlock: KIFKEQ_clean_linker_1, # of connection points: 2
#     Edge 117, Type (0, 1), BuildingBlock: KIFKEQ_clean_linker_1, # of connection points: 2
#     Edge 118, Type (0, 1), BuildingBlock: KIFKEQ_clean_linker_1, # of connection points: 2
#     Edge 119, Type (0, 1), BuildingBlock: KIFKEQ_clean_linker_1, # of connection points: 2
#     Edge 120, Type (0, 1), BuildingBlock: KIFKEQ_clean_linker_1, # of connection points: 2
#     Edge 121, Type (0, 1), BuildingBlock: KIFKEQ_clean_linker_1, # of connection points: 2
#     Edge 122, Type (0, 1), BuildingBlock: KIFKEQ_clean_linker_1, # of connection points: 2
#     Edge 123, Type (0, 1), BuildingBlock: KIFKEQ_clean_linker_1, # of connection points: 2
#     Edge 124, Type (0, 1), BuildingBlock: KIFKEQ_clean_linker_1, # of connection points: 2
#     Edge 125, Type (0, 1), BuildingBlock: KIFKEQ_clean_linker_1, # of connection points: 2
#     Edge 126, Type (0, 1), BuildingBlock: KIFKEQ_clean_linker_1, # of connection points: 2
#     Edge 127, Type (0, 1), BuildingBlock: KIFKEQ_clean_linker_1, # of connection points: 2
#     Edge 128, Type (0, 1), BuildingBlock: KIFKEQ_clean_linker_1, # of connection points: 2
#     Edge 129, Type (0, 1), BuildingBlock: KIFKEQ_clean_linker_1, # of connection points: 2
#     Edge 130, Type (0, 1), BuildingBlock: KIFKEQ_clean_linker_1, # of connection points: 2
#     Edge 131, Type (0, 1), BuildingBlock: KIFKEQ_clean_linker_1, # of connection points: 2
#     Edge 132, Type (0, 1), BuildingBlock: KIFKEQ_clean_linker_1, # of connection points: 2
#     Edge 133, Type (0, 1), BuildingBlock: KIFKEQ_clean_linker_1, # of connection points: 2
#     Edge 134, Type (0, 1), BuildingBlock: KIFKEQ_clean_linker_1, # of connection points: 2
#     Edge 135, Type (0, 1), BuildingBlock: KIFKEQ_clean_linker_1, # of connection points: 2
# Relax obj value: 0.250
# Max RMSD: 0.284
# Mean RMSD: 0.231
data_MOF--net-ibd--node1-GALJAG_clean_sbu_0--node2-CIFDUS_clean_sbu_1--edge1-KIFKEQ_clean_linker_1
_symmetry_space_group_name_H-M    P1
_symmetry_Int_Tables_number       1
_symmetry_cell_setting            triclinic
loop_
_symmetry_equiv_pos_as_xyz
'x, y, z'
_cell_length_a     48.669144
_cell_length_b     49.995967
_cell_length_c     50.667325
_cell_angle_alpha  90.649657
_cell_angle_beta   89.410136
_cell_angle_gamma 93.090426
loop_
_atom_site_label
_atom_site_type_symbol
_atom_site_fract_x
_atom_site_fract_y
_atom_site_fract_z
_atom_type_partial_charge
In0 In 0.99046 0.29741 0.36683 0.0
O1 O 0.02233 0.27684 0.34238 0.0
O2 O 0.98056 0.26507 0.33479 0.0
C3 C 0.03009 0.30133 0.40354 0.0
C4 C 0.97729 0.33693 0.3339 0.0
C5 C 0.95273 0.28835 0.40562 0.0
O6 O 0.01827 0.27933 0.39655 0.0
O7 O 0.02318 0.32149 0.39071 0.0
O8 O 0.96406 0.31116 0.40103 0.0
O9 O 0.95856 0.27029 0.38904 0.0
C10 C 0.00555 0.26299 0.32839 0.0
O11 O 0.9595 0.3214 0.34494 0.0
O12 O 0.00176 0.33372 0.34076 0.0
In13 In 0.00305 0.7848 0.637 0.0
O14 O -0.00357 0.81925 0.66639 0.0
O15 O 0.9642 0.78924 0.66106 0.0
C16 C 0.03588 0.8116 0.60184 0.0
C17 C 0.02637 0.75622 0.67477 0.0
C18 C 0.97376 0.76033 0.59796 0.0
O19 O 0.01698 0.82256 0.61462 0.0
O20 O 0.03973 0.78783 0.60851 0.0
O21 O 0.99244 0.74905 0.61011 0.0
O22 O 0.96864 0.78331 0.60669 0.0
C23 C 0.97312 0.80964 0.67388 0.0
O24 O 0.00402 0.74866 0.66392 0.0
O25 O 0.03826 0.77689 0.66483 0.0
In26 In 0.49389 0.79962 0.87289 0.0
O27 O 0.52944 0.7807 0.85174 0.0
O28 O 0.48868 0.7691 0.83937 0.0
C29 C 0.52109 0.82831 0.9105 0.0
C30 C 0.47936 0.83469 0.83641 0.0
C31 C 0.46397 0.76993 0.90823 0.0
O32 O 0.53114 0.80811 0.89961 0.0
O33 O 0.49848 0.83472 0.90119 0.0
O34 O 0.45558 0.79141 0.89908 0.0
O35 O 0.48599 0.7625 0.89783 0.0
C36 C 0.51426 0.76743 0.83557 0.0
O37 O 0.46164 0.82027 0.84906 0.0
O38 O 0.50398 0.83224 0.84315 0.0
In39 In 0.49369 0.28363 0.14398 0.0
O40 O 0.489 0.25018 0.17404 0.0
O41 O 0.52931 0.26707 0.16614 0.0
C42 C 0.46115 0.25852 0.1076 0.0
C43 C 0.47412 0.31487 0.18274 0.0
C44 C 0.52637 0.30809 0.10734 0.0
O45 O 0.47941 0.24698 0.12003 0.0
O46 O 0.45782 0.28237 0.1149 0.0
O47 O 0.50754 0.3198 0.11944 0.0
O48 O 0.53007 0.28469 0.11518 0.0
C49 C 0.5142 0.25111 0.17986 0.0
O50 O 0.49907 0.31626 0.17559 0.0
O51 O 0.45866 0.29946 0.16872 0.0
In52 In 0.99483 0.78321 0.11853 0.0
O53 O 0.95652 0.78833 0.09333 0.0
O54 O 0.98934 0.818 0.09078 0.0
C55 C 0.97116 0.75161 0.15609 0.0
C56 C 0.02223 0.75589 0.0812 0.0
C57 C 0.0194 0.81411 0.15665 0.0
O58 O 0.95851 0.76959 0.14471 0.0
O59 O 0.99488 0.74802 0.14683 0.0
O60 O 0.03188 0.79674 0.14358 0.0
O61 O -0.00463 0.81769 0.14873 0.0
C62 C 0.96625 0.80927 0.08215 0.0
O63 O 0.03222 0.77742 0.0914 0.0
O64 O -0.0005 0.74747 0.0911 0.0
In65 In 0.51491 0.77768 0.3926 0.0
O66 O 0.53536 0.74408 0.41418 0.0
O67 O 0.55219 0.78393 0.41929 0.0
C68 C 0.4885 0.74694 0.35543 0.0
C69 C 0.48424 0.79632 0.4327 0.0
C70 C 0.5342 0.81127 0.35469 0.0
O71 O 0.51314 0.74369 0.36174 0.0
O72 O 0.47649 0.76355 0.36986 0.0
O73 O 0.51161 0.81432 0.3665 0.0
O74 O 0.54807 0.79287 0.36377 0.0
C75 C 0.55276 0.75968 0.42581 0.0
O76 O 0.50002 0.81126 0.4186 0.0
O77 O 0.48244 0.772 0.42544 0.0
In78 In 0.50443 0.28032 0.62677 0.0
O79 O 0.54147 0.2685 0.60203 0.0
O80 O 0.50452 0.24389 0.59952 0.0
C81 C 0.53006 0.31204 0.66332 0.0
C82 C 0.48145 0.30821 0.58841 0.0
C83 C 0.47769 0.25124 0.66445 0.0
O84 O 0.54167 0.29335 0.65139 0.0
O85 O 0.50631 0.31629 0.65508 0.0
O86 O 0.46592 0.26802 0.65059 0.0
O87 O 0.50224 0.24749 0.6577 0.0
C88 C 0.5287 0.24889 0.59089 0.0
O89 O 0.46711 0.29287 0.60339 0.0
O90 O 0.50661 0.31096 0.59417 0.0
In91 In 0.01501 0.27759 0.88369 0.0
O92 O 0.02961 0.24118 0.90593 0.0
O93 O 0.04983 0.27941 0.91315 0.0
C94 C 0.97975 0.25524 0.84759 0.0
C95 C 0.98745 0.30127 0.92309 0.0
C96 C 0.04557 0.30302 0.84605 0.0
O97 O 0.00066 0.24344 0.85504 0.0
O98 O 0.97556 0.27658 0.86015 0.0
O99 O 0.02479 0.313 0.85658 0.0
O100 O 0.0522 0.28126 0.85594 0.0
C101 C 0.04728 0.25498 0.91926 0.0
O102 O 0.00446 0.31411 0.90826 0.0
O103 O 0.98302 0.27687 0.91687 0.0
In104 In 0.37022 0.02337 0.21836 0.0
O105 O 0.33211 -0.00359 0.22412 0.0
O106 O 0.34068 0.02604 0.25389 0.0
C107 C 0.40102 0.98286 0.20231 0.0
C108 C 0.33968 0.05132 0.18541 0.0
C109 C 0.41333 0.04812 0.24331 0.0
O110 O 0.38802 0.9828 0.22395 0.0
O111 O 0.39695 0.00259 0.1877 0.0
O112 O 0.40655 0.05489 0.22039 0.0
O113 O 0.39722 0.03074 0.25404 0.0
C114 C 0.32428 0.00771 0.24503 0.0
O115 O 0.35192 0.06212 0.20503 0.0
O116 O 0.34535 0.02733 0.18087 0.0
In117 In 0.25125 0.14976 0.52493 0.0
O118 O 0.21826 0.1771 0.51143 0.0
O119 O 0.22141 0.17065 0.55265 0.0
C120 C 0.2399 0.11099 0.48841 0.0
C121 C 0.28803 0.19027 0.51215 0.0
C122 C 0.26552 0.1155 0.5629 0.0
O123 O 0.22175 0.12546 0.49805 0.0
O124 O 0.26407 0.11709 0.49598 0.0
O125 O 0.28263 0.13189 0.55202 0.0
O126 O 0.24089 0.11788 0.55614 0.0
C127 C 0.21012 0.18302 0.53438 0.0
O128 O 0.27878 0.18673 0.53526 0.0
O129 O 0.28031 0.17223 0.49575 0.0
In130 In 0.11527 0.0407 0.74467 0.0
O131 O 0.0806 0.00831 0.74236 0.0
O132 O 0.08673 0.02876 0.77906 0.0
C133 C 0.15021 0.01364 0.71425 0.0
C134 C 0.08146 0.07594 0.72485 0.0
C135 C 0.15738 0.06221 0.77329 0.0
O136 O 0.13786 0.00352 0.7341 0.0
O137 O 0.1431 0.03674 0.70835 0.0
O138 O 0.14721 0.074 0.75408 0.0
O139 O 0.14479 0.04037 0.77954 0.0
C140 C 0.07204 0.0121 0.76563 0.0
O141 O 0.09182 0.07887 0.74751 0.0
O142 O 0.08995 0.05647 0.71149 0.0
In143 In 0.25193 0.90465 0.01283 0.0
O144 O 0.2157 0.92064 0.03556 0.0
O145 O 0.25585 0.93525 0.04658 0.0
C146 C 0.21861 0.86553 0.99144 0.0
C147 C 0.26636 0.94593 0.98074 0.0
C148 C 0.29077 0.87146 0.02809 0.0
O149 O 0.21933 0.87001 0.01602 0.0
O150 O 0.23335 0.8818 0.97779 0.0
O151 O 0.2865 0.87663 0.00423 0.0
O152 O 0.27662 0.8843 0.04445 0.0
C153 C 0.23019 0.93698 0.04949 0.0
O154 O 0.28397 0.93216 0.99167 0.0
O155 O 0.24171 0.93785 0.98471 0.0
In156 In 0.26427 0.40922 0.00159 0.0
O157 O 0.28684 0.38571 0.96965 0.0
O158 O 0.29879 0.38118 0.00949 0.0
C159 C 0.23647 0.43921 0.96796 0.0
C160 C 0.23173 0.37055 0.02444 0.0
C161 C 0.28352 0.4527 0.02958 0.0
O162 O 0.26174 0.43536 0.96482 0.0
O163 O 0.22502 0.42619 0.98662 0.0
O164 O 0.26073 0.44054 0.03467 0.0
O165 O 0.29754 0.44166 0.01184 0.0
C166 C 0.3015 0.37378 0.98575 0.0
O167 O 0.24691 0.38706 0.03757 0.0
O168 O 0.23183 0.37452 -0.00015 0.0
In169 In 0.73191 0.1561 -0.00168 0.0
O170 O 0.72487 0.13144 0.03594 0.0
O171 O 0.70681 0.11674 0.00013 0.0
C172 C 0.76351 0.19867 0.01464 0.0
C173 C 0.76697 0.12524 0.9723 0.0
C174 C 0.69067 0.18667 0.98418 0.0
O175 O 0.75311 0.18144 0.03052 0.0
O176 O 0.75908 0.19364 0.99051 0.0
O177 O 0.7058 0.17548 0.96734 0.0
O178 O 0.69485 0.18046 0.00784 0.0
C179 C 0.71204 0.1123 0.02397 0.0
O180 O 0.7449 0.132 0.9618 0.0
O181 O 0.77228 0.13639 0.99426 0.0
In182 In 0.13067 0.53505 0.27381 0.0
O183 O 0.15427 0.52573 0.31124 0.0
O184 O 0.15389 0.49735 0.2797 0.0
C185 C 0.09207 0.56615 0.29467 0.0
C186 C 0.17494 0.56113 0.25226 0.0
C187 C 0.0934 0.50757 0.24371 0.0
O188 O 0.09939 0.54512 0.30558 0.0
O189 O 0.10585 0.57275 0.2743 0.0
O190 O 0.10922 0.52627 0.23475 0.0
O191 O 0.09772 0.50152 0.2674 0.0
C192 C 0.16327 0.50427 0.30204 0.0
O193 O 0.16069 0.54356 0.23959 0.0
O194 O 0.16556 0.56692 0.27482 0.0
In195 In 0.76561 0.91059 0.50739 0.0
O196 O 0.77471 0.88421 0.47193 0.0
O197 O 0.80175 0.88308 0.50455 0.0
C198 C 0.73065 0.94284 0.48421 0.0
C199 C 0.73714 0.87257 0.53524 0.0
C200 C 0.79607 0.95311 0.52627 0.0
O201 O 0.75066 0.93336 0.47182 0.0
O202 O 0.7274 0.93462 0.50756 0.0
O203 O 0.77884 0.93998 0.54059 0.0
O204 O 0.79954 0.94326 0.50351 0.0
C205 C 0.79486 0.87348 0.48226 0.0
O206 O 0.75701 0.88659 0.54507 0.0
O207 O 0.73068 0.87905 0.51221 0.0
In208 In 0.87357 0.02408 0.28029 0.0
O209 O 0.89822 0.00164 0.31017 0.0
O210 O 0.8998 0.9894 0.26973 0.0
C211 C 0.83836 0.05284 0.30898 0.0
C212 C 0.91357 0.05639 0.25869 0.0
C213 C 0.83189 -0.00343 0.25635 0.0
O214 O 0.84986 0.03313 0.31861 0.0
O215 O 0.847 0.05948 0.28629 0.0
O216 O 0.8461 0.01481 0.2446 0.0
O217 O 0.83989 0.99139 0.27923 0.0
C218 C 0.9082 0.98628 0.29291 0.0
O219 O 0.89454 0.04477 0.24532 0.0
O220 O 0.91144 0.05312 0.28335 0.0
In221 In 0.2344 0.65908 0.4995 0.0
O222 O 0.24413 0.63317 0.46368 0.0
O223 O 0.27327 0.63608 0.49478 0.0
C224 C 0.20734 0.69554 0.47278 0.0
C225 C 0.20612 0.6171 0.52144 0.0
C226 C 0.25826 0.69835 0.52953 0.0
O227 O 0.23013 0.68714 0.46503 0.0
O228 O 0.19702 0.68376 0.49276 0.0
O229 O 0.23549 0.6865 0.53554 0.0
O230 O 0.2703 0.68867 0.50967 0.0
C231 C 0.26605 0.62505 0.47318 0.0
O232 O 0.2257 0.6296 0.5333 0.0
O233 O 0.19935 0.62743 0.5 0.0
In234 In 0.37155 0.5155 0.77868 0.0
O235 O 0.39964 0.50618 0.81255 0.0
O236 O 0.39284 0.476 0.78315 0.0
C237 C 0.33753 0.54634 0.80625 0.0
C238 C 0.41389 0.54027 0.75246 0.0
C239 C 0.32865 0.4948 0.75041 0.0
O240 O 0.34431 0.52391 0.81459 0.0
O241 O 0.35 0.55411 0.78547 0.0
O242 O 0.34672 0.51092 0.7406 0.0
O243 O 0.33355 0.48739 0.77354 0.0
C244 C 0.40606 0.48372 0.80342 0.0
O245 O 0.40245 0.51824 0.74497 0.0
O246 O 0.40264 0.55102 0.77223 0.0
In247 In 0.63036 0.05149 0.76889 0.0
O248 O 0.65917 0.05215 0.80401 0.0
O249 O 0.64547 0.01397 0.78883 0.0
C250 C 0.5954 0.08809 0.78725 0.0
C251 C 0.67623 0.06622 0.74101 0.0
C252 C 0.59146 0.02313 0.74092 0.0
O253 O 0.60335 0.06928 0.80116 0.0
O254 O 0.60623 0.08942 0.76455 0.0
O255 O 0.60664 0.04196 0.73133 0.0
O256 O 0.59692 0.01735 0.7645 0.0
C257 C 0.66086 0.0271 0.80491 0.0
O258 O 0.66103 0.04593 0.73479 0.0
O259 O 0.66732 0.08001 0.75994 0.0
In260 In 0.75158 0.65147 0.02568 0.0
O261 O 0.71431 0.67698 0.01979 0.0
O262 O 0.73623 0.68164 0.0557 0.0
C263 C 0.73365 0.61028 0.99456 0.0
C264 C 0.78633 0.68756 0.00157 0.0
C265 C 0.7687 0.61722 0.06235 0.0
O266 O 0.71767 0.62343 0.00893 0.0
O267 O 0.75845 0.61921 0.99439 0.0
O268 O 0.78526 0.63137 0.04826 0.0
O269 O 0.74372 0.62204 0.0595 0.0
C270 C 0.71747 0.68977 0.04126 0.0
O271 O 0.78743 0.68301 0.02599 0.0
O272 O 0.76918 0.67246 0.98912 0.0
In273 In 0.87324 0.52678 0.72592 0.0
O274 O 0.84045 0.49415 0.73444 0.0
O275 O 0.84354 0.52726 0.76134 0.0
C276 C 0.91173 0.49277 0.71033 0.0
C277 C 0.83889 0.54853 0.69139 0.0
C278 C 0.91169 0.55825 0.75089 0.0
O279 O 0.89803 0.48952 0.73144 0.0
O280 O 0.90435 0.51171 0.6962 0.0
O281 O 0.90826 0.5592 0.72623 0.0
O282 O 0.89415 0.54326 0.76302 0.0
C283 C 0.83062 0.50575 0.7544 0.0
O284 O 0.85138 0.56231 0.70906 0.0
O285 O 0.8456 0.52456 0.68976 0.0
In286 In 0.74972 0.40646 0.50525 0.0
O287 O 0.71096 0.42644 0.51786 0.0
O288 O 0.74629 0.43358 0.54178 0.0
C289 C 0.71828 0.36509 0.48521 0.0
C290 C 0.7702 0.44802 0.47611 0.0
C291 C 0.78776 0.37429 0.52365 0.0
O292 O 0.71673 0.37239 0.50911 0.0
O293 O 0.73456 0.37962 0.47116 0.0
O294 O 0.78565 0.37954 0.49947 0.0
O295 O 0.77162 0.38642 0.53877 0.0
C296 C 0.72178 0.43907 0.53717 0.0
O297 O 0.78392 0.43694 0.49348 0.0
O298 O 0.74686 0.43669 0.47178 0.0
In299 In 0.61822 0.53445 0.2409 0.0
O300 O 0.5796 0.50654 0.2378 0.0
O301 O 0.59376 0.51806 0.27616 0.0
C302 C 0.64809 0.50261 0.20991 0.0
C303 C 0.5869 0.57475 0.22704 0.0
C304 C 0.66427 0.55547 0.26396 0.0
O305 O 0.63865 0.49541 0.23219 0.0
O306 O 0.64019 0.52484 0.20217 0.0
O307 O 0.65596 0.56268 0.24181 0.0
O308 O 0.64812 0.53892 0.27589 0.0
C309 C 0.57535 0.50583 0.26245 0.0
O310 O 0.59432 0.57133 0.2505 0.0
O311 O 0.59641 0.55862 0.21031 0.0
O312 O 0.14705 0.18454 0.11053 0.0
Mn313 Mn 0.12369 0.15465 0.13062 0.0
O314 O 0.17043 0.20794 0.14237 0.0
Mn315 Mn 0.15888 0.18802 0.17162 0.0
O316 O 0.09909 0.12636 0.15242 0.0
O317 O 0.0969 0.15378 0.10048 0.0
Mn318 Mn 0.08355 0.1208 0.09504 0.0
O319 O 0.14502 0.12405 0.1122 0.0
O320 O 0.06497 0.11146 0.12554 0.0
O321 O 0.10076 0.18372 0.15055 0.0
O322 O 0.1258 0.19694 0.18606 0.0
O323 O 0.06871 0.14121 0.06929 0.0
O324 O 0.1137 0.10092 0.08708 0.0
C325 C 0.17314 0.14803 0.17165 0.0
C326 C 0.16367 0.20395 0.11826 0.0
C327 C 0.07576 0.11359 0.14828 0.0
C328 C 0.08403 0.16048 0.07955 0.0
C329 C 0.13795 0.10463 0.0963 0.0
C330 C 0.10344 0.19577 0.17314 0.0
O331 O 0.152 0.15556 0.15915 0.0
O332 O 0.18372 0.16639 0.18723 0.0
O333 O 0.09678 0.88156 0.34885 0.0
Mn334 Mn 0.12263 0.90374 0.37526 0.0
O335 O 0.12377 0.85296 0.32734 0.0
Mn336 Mn 0.15688 0.86489 0.34208 0.0
O337 O 0.14956 0.92782 0.39951 0.0
O338 O 0.09482 0.93154 0.37606 0.0
Mn339 Mn 0.09175 0.94709 0.40701 0.0
O340 O 0.10367 0.8858 0.40854 0.0
O341 O 0.12593 0.96393 0.41095 0.0
O342 O 0.14284 0.92324 0.34329 0.0
O343 O 0.17316 0.89484 0.32672 0.0
O344 O 0.06482 0.96025 0.38577 0.0
O345 O 0.08279 0.91919 0.43004 0.0
C346 C 0.16414 0.85527 0.3822 0.0
C347 C 0.10057 0.86306 0.33141 0.0
C348 C 0.1483 0.95202 0.40856 0.0
C349 C 0.07384 0.94371 0.36835 0.0
C350 C 0.08946 0.89486 0.42801 0.0
C351 C 0.16315 0.91781 0.32799 0.0
O352 O 0.1493 0.87439 0.37475 0.0
O353 O 0.17605 0.84281 0.36309 0.0
O354 O 0.40618 0.93625 0.64755 0.0
Mn355 Mn 0.3736 0.912 0.63205 0.0
O356 O 0.42824 0.95418 0.61197 0.0
Mn357 Mn 0.40403 0.94184 0.58564 0.0
O358 O 0.34219 0.88609 0.61552 0.0
O359 O 0.37557 0.88899 0.66402 0.0
Mn360 Mn 0.34261 0.87815 0.67517 0.0
O361 O 0.34412 0.93482 0.65084 0.0
O362 O 0.32841 0.85762 0.64785 0.0
O363 O 0.40156 0.88781 0.61172 0.0
O364 O 0.41058 0.90825 0.57284 0.0
O365 O 0.36699 0.86541 0.69901 0.0
O366 O 0.32431 0.90894 0.68269 0.0
C367 C 0.36292 0.95602 0.588 0.0
C368 C 0.42635 0.95012 0.63684 0.0
C369 C 0.32854 0.86486 0.62383 0.0
C370 C 0.38536 0.87815 0.68461 0.0
C371 C 0.32662 0.93072 0.66978 0.0
C372 C 0.41097 0.88798 0.58778 0.0
O373 O 0.37201 0.93677 0.60149 0.0
O374 O 0.38035 0.96512 0.57045 0.0
O375 O 0.39414 0.18172 0.91574 0.0
Mn376 Mn 0.37475 0.1638 0.88291 0.0
O377 O 0.41194 0.1465 0.93584 0.0
Mn378 Mn 0.40794 0.12075 0.90912 0.0
O379 O 0.35348 0.14364 0.85174 0.0
O380 O 0.34617 0.19115 0.88636 0.0
Mn381 Mn 0.3332 0.19938 0.85547 0.0
O382 O 0.3965 0.18862 0.85613 0.0
O383 O 0.31646 0.16761 0.8442 0.0
O384 O 0.35078 0.13724 0.90749 0.0
O385 O 0.37546 0.1007 0.90966 0.0
O386 O 0.31771 0.22195 0.88 0.0
O387 O 0.36391 0.2113 0.83579 0.0
C388 C 0.42796 0.12787 0.87188 0.0
C389 C 0.40551 0.17099 0.93558 0.0
C390 C 0.32931 0.14619 0.84215 0.0
C391 C 0.33327 0.21067 0.89662 0.0
C392 C 0.38881 0.20484 0.83839 0.0
C393 C 0.35271 0.11188 0.91105 0.0
O394 O 0.40578 0.13876 0.87975 0.0
O395 O 0.43713 0.111 0.88835 0.0
O396 O 0.60262 0.3764 0.85716 0.0
Mn397 Mn 0.62552 0.3978 0.88592 0.0
O398 O 0.6321 0.34862 0.83773 0.0
Mn399 Mn 0.66337 0.35848 0.85696 0.0
O400 O 0.65025 0.42044 0.91308 0.0
O401 O 0.59786 0.42644 0.88401 0.0
Mn402 Mn 0.59246 0.43973 0.91588 0.0
O403 O 0.60289 0.37932 0.91675 0.0
O404 O 0.62564 0.45507 0.92639 0.0
O405 O 0.64972 0.41706 0.85596 0.0
O406 O 0.68254 0.3886 0.84507 0.0
O407 O 0.56954 0.45727 0.89432 0.0
O408 O 0.57863 0.41143 0.93619 0.0
C409 C 0.66239 0.34728 0.89765 0.0
C410 C 0.6085 0.35855 0.83977 0.0
C411 C 0.64796 0.44305 0.92515 0.0
C412 C 0.57874 0.44149 0.87623 0.0
C413 C 0.58592 0.38735 0.93442 0.0
C414 C 0.67227 0.41145 0.84394 0.0
O415 O 0.65115 0.36783 0.88813 0.0
O416 O 0.67704 0.33476 0.88057 0.0
O417 O 0.9056 0.4343 0.14651 0.0
Mn418 Mn 0.87666 0.41056 0.12535 0.0
O419 O 0.92798 0.46104 0.11672 0.0
Mn420 Mn 0.90866 0.44961 0.08676 0.0
O421 O 0.84955 0.38507 0.10274 0.0
O422 O 0.87784 0.38369 0.15451 0.0
Mn423 Mn 0.84548 0.36716 0.15952 0.0
O424 O 0.84354 0.4278 0.14446 0.0
O425 O 0.84004 0.34899 0.12822 0.0
O426 O 0.90822 0.39174 0.10436 0.0
O427 O 0.92099 0.41925 0.07083 0.0
O428 O 0.86815 0.35516 0.18541 0.0
O429 O 0.82165 0.39415 0.16716 0.0
C430 C 0.86603 0.45928 0.08606 0.0
C431 C 0.92442 0.45224 0.14016 0.0
C432 C 0.84104 0.36038 0.10589 0.0
C433 C 0.88628 0.37197 0.17524 0.0
C434 C 0.82372 0.41838 0.15927 0.0
C435 C 0.92082 0.39668 0.08223 0.0
O436 O 0.87557 0.43928 0.09815 0.0
O437 O 0.88432 0.4721 0.07166 0.0
O438 O 0.89706 0.68343 0.40885 0.0
Mn439 Mn 0.87575 0.66302 0.37814 0.0
O440 O 0.92294 0.65348 0.42847 0.0
Mn441 Mn 0.90892 0.62377 0.41009 0.0
O442 O 0.85294 0.64196 0.34847 0.0
O443 O 0.84955 0.69291 0.37899 0.0
Mn444 Mn 0.84073 0.70121 0.34669 0.0
O445 O 0.90022 0.6831 0.34932 0.0
O446 O 0.82344 0.67091 0.3326 0.0
O447 O 0.85018 0.6414 0.40537 0.0
O448 O 0.87569 0.60941 0.42205 0.0
O449 O 0.82258 0.72429 0.3683 0.0
O450 O 0.87324 0.71242 0.33011 0.0
C451 C 0.92226 0.61846 0.37032 0.0
C452 C 0.91464 0.67707 0.42622 0.0
C453 C 0.83238 0.64752 0.33401 0.0
C454 C 0.8351 0.71247 0.38693 0.0
C455 C 0.89621 0.70165 0.33254 0.0
C456 C 0.85289 0.62028 0.41929 0.0
O457 O 0.90344 0.63439 0.37761 0.0
O458 O 0.93167 0.60435 0.38914 0.0
O459 O 0.84969 0.87755 0.90996 0.0
Mn460 Mn 0.86479 0.90752 0.88431 0.0
O461 O 0.81863 0.8526 0.88625 0.0
Mn462 Mn 0.81851 0.874 0.85658 0.0
O463 O 0.88157 0.93597 0.85705 0.0
O464 O 0.89989 0.90764 0.90483 0.0
Mn465 Mn 0.91571 0.93991 0.90671 0.0
O466 O 0.85112 0.93822 0.90877 0.0
O467 O 0.92396 0.94784 0.87228 0.0
O468 O 0.87994 0.87857 0.8577 0.0
O469 O 0.84439 0.86632 0.8316 0.0
O470 O 0.93682 0.91833 0.92674 0.0
O471 O 0.88976 0.96117 0.92223 0.0
C472 C 0.80384 0.91343 0.85837 0.0
C473 C 0.83309 0.85689 0.90687 0.0
C474 C 0.90602 0.947 0.85418 0.0
C475 C 0.9182 0.89984 0.92088 0.0
C476 C 0.86355 0.95816 0.92082 0.0
C477 C 0.86999 0.86749 0.83645 0.0
O478 O 0.82775 0.9071 0.86655 0.0
O479 O 0.78903 0.89364 0.84836 0.0
O480 O 0.89235 0.20369 0.65591 0.0
Mn481 Mn 0.87928 0.1791 0.62427 0.0
O482 O 0.85337 0.21259 0.6781 0.0
Mn483 Mn 0.82723 0.19789 0.65451 0.0
O484 O 0.86556 0.1521 0.59433 0.0
O485 O 0.91632 0.16325 0.6245 0.0
Mn486 Mn 0.92848 0.15909 0.59185 0.0
O487 O 0.8933 0.20733 0.596 0.0
O488 O 0.90349 0.13442 0.57706 0.0
O489 O 0.86289 0.15008 0.65133 0.0
O490 O 0.8193 0.16199 0.65916 0.0
O491 O 0.95588 0.14807 0.61326 0.0
O492 O 0.93116 0.1924 0.57623 0.0
C493 C 0.82809 0.2147 0.61536 0.0
C494 C 0.87965 0.21322 0.67609 0.0
C495 C 0.87742 0.13478 0.57964 0.0
C496 C 0.93921 0.15421 0.63217 0.0
C497 C 0.91323 0.20982 0.57918 0.0
C498 C 0.83799 0.14511 0.65991 0.0
O499 O 0.84387 0.19703 0.62387 0.0
O500 O 0.80891 0.22013 0.63207 0.0
O501 O 0.63409 0.17361 0.40751 0.0
Mn502 Mn 0.61386 0.14411 0.38358 0.0
O503 O 0.66541 0.19521 0.3811 0.0
Mn504 Mn 0.65623 0.17726 0.35009 0.0
O505 O 0.59244 0.11613 0.35824 0.0
O506 O 0.58226 0.14423 0.40937 0.0
Mn507 Mn 0.56686 0.11191 0.41271 0.0
O508 O 0.63076 0.11314 0.40483 0.0
O509 O 0.55356 0.10293 0.37995 0.0
O510 O 0.5952 0.1735 0.36142 0.0
O511 O 0.62693 0.18967 0.33237 0.0
O512 O 0.54826 0.13339 0.43581 0.0
O513 O 0.59451 0.09111 0.42448 0.0
C514 C 0.66854 0.1373 0.34584 0.0
C515 C 0.65354 0.19169 0.40343 0.0
C516 C 0.56822 0.10423 0.35904 0.0
C517 C 0.56583 0.15194 0.42775 0.0
C518 C 0.62021 0.09394 0.41916 0.0
C519 C 0.60235 0.18755 0.3411 0.0
O520 O 0.647 0.14401 0.3591 0.0
O521 O 0.6815 0.15681 0.33356 0.0
O522 O 0.59475 0.8919 0.10229 0.0
Mn523 Mn 0.61979 0.90069 0.13434 0.0
O524 O 0.58698 0.93296 0.0865 0.0
Mn525 Mn 0.59979 0.95479 0.11459 0.0
O526 O 0.64626 0.91221 0.16527 0.0
O527 O 0.63925 0.86614 0.12673 0.0
Mn528 Mn 0.64549 0.85285 0.15831 0.0
O529 O 0.59209 0.88109 0.16073 0.0
O530 O 0.66924 0.87637 0.17593 0.0
O531 O 0.64826 0.92202 0.10917 0.0
O532 O 0.63652 0.96473 0.11331 0.0
O533 O 0.65951 0.82882 0.13566 0.0
O534 O 0.61232 0.84472 0.17492 0.0
C535 C 0.57934 0.94638 0.15162 0.0
C536 C 0.58558 0.9073 0.08458 0.0
C537 C 0.66548 0.90125 0.1777 0.0
C538 C 0.65094 0.84485 0.11798 0.0
C539 C 0.5922 0.85989 0.17484 0.0
C540 C 0.65383 0.9475 0.10722 0.0
O541 O 0.59883 0.93324 0.14136 0.0
O542 O 0.57486 0.96789 0.13882 0.0
O543 O 0.40716 0.69283 0.16122 0.0
Mn544 Mn 0.38256 0.67188 0.13301 0.0
O545 O 0.37987 0.72154 0.18214 0.0
Mn546 Mn 0.3473 0.71084 0.16549 0.0
O547 O 0.35703 0.64873 0.10661 0.0
O548 O 0.4105 0.64392 0.1324 0.0
Mn549 Mn 0.41613 0.63136 0.10041 0.0
O550 O 0.40277 0.69139 0.10126 0.0
O551 O 0.38269 0.61534 0.09139 0.0
O552 O 0.36051 0.6517 0.16373 0.0
O553 O 0.32996 0.6806 0.17925 0.0
O554 O 0.44082 0.6155 0.122 0.0
O555 O 0.4275 0.66066 0.08011 0.0
C556 C 0.34287 0.72126 0.12493 0.0
C557 C 0.40292 0.71083 0.17903 0.0
C558 C 0.35983 0.62636 0.094 0.0
C559 C 0.43064 0.63045 0.14023 0.0
C560 C 0.41901 0.68429 0.08252 0.0
C561 C 0.33965 0.65744 0.1783 0.0
O562 O 0.35623 0.70144 0.13319 0.0
O563 O 0.3303 0.73389 0.14348 0.0
O564 O 0.14179 0.67768 0.90198 0.0
Mn565 Mn 0.1212 0.64802 0.87874 0.0
O566 O 0.1705 0.70134 0.87459 0.0
Mn567 Mn 0.15944 0.68465 0.8434 0.0
O568 O 0.09903 0.61978 0.85461 0.0
O569 O 0.09217 0.64501 0.90742 0.0
Mn570 Mn 0.08179 0.61108 0.91219 0.0
O571 O 0.14289 0.61769 0.89636 0.0
O572 O 0.06669 0.59948 0.88071 0.0
O573 O 0.09881 0.67713 0.85944 0.0
O574 O 0.12777 0.69645 0.8293 0.0
O575 O 0.062 0.63013 0.93641 0.0
O576 O 0.11279 0.59422 0.92244 0.0
C577 C 0.17216 0.64482 0.83684 0.0
C578 C 0.16022 0.69659 0.89742 0.0
C579 C 0.07734 0.60415 0.85805 0.0
C580 C 0.07587 0.65062 0.92679 0.0
C581 C 0.13686 0.59878 0.91284 0.0
C582 C 0.10394 0.69267 0.83959 0.0
O583 O 0.15158 0.65103 0.85155 0.0
O584 O 0.18377 0.66485 0.82429 0.0
O585 O 0.10951 0.36472 0.59161 0.0
Mn586 Mn 0.12614 0.39127 0.62037 0.0
O587 O 0.07072 0.3809 0.57657 0.0
Mn588 Mn 0.07712 0.41377 0.59284 0.0
O589 O 0.14504 0.41812 0.64832 0.0
O590 O 0.16056 0.3716 0.6159 0.0
Mn591 Mn 0.17859 0.36895 0.64531 0.0
O592 O 0.11381 0.36575 0.65077 0.0
O593 O 0.18822 0.40425 0.65241 0.0
O594 O 0.13972 0.41898 0.59138 0.0
O595 O 0.10183 0.43731 0.57632 0.0
O596 O 0.19542 0.34755 0.62041 0.0
O597 O 0.15317 0.35315 0.66918 0.0
C598 C 0.06733 0.41987 0.63298 0.0
C599 C 0.08812 0.3629 0.57696 0.0
C600 C 0.17034 0.4217 0.65574 0.0
C601 C 0.17538 0.35365 0.60547 0.0
C602 C 0.12691 0.35383 0.66873 0.0
C603 C 0.12786 0.4364 0.57753 0.0
O604 O 0.08975 0.40908 0.62508 0.0
O605 O 0.05104 0.42693 0.61455 0.0
O606 O 0.65111 0.68468 0.61524 0.0
Mn607 Mn 0.62551 0.65537 0.63362 0.0
O608 O 0.67884 0.70236 0.64721 0.0
Mn609 Mn 0.66574 0.68132 0.67518 0.0
O610 O 0.59873 0.62726 0.65375 0.0
O611 O 0.59826 0.66023 0.60471 0.0
Mn612 Mn 0.57948 0.63 0.5984 0.0
O613 O 0.64215 0.62435 0.61171 0.0
O614 O 0.5606 0.62284 0.6291 0.0
O615 O 0.60695 0.68487 0.65692 0.0
O616 O 0.63484 0.69315 0.6917 0.0
O617 O 0.56812 0.65381 0.57379 0.0
O618 O 0.60556 0.60531 0.59008 0.0
C619 C 0.67451 0.63966 0.67226 0.0
C620 C 0.67019 0.70153 0.62346 0.0
C621 C 0.57326 0.6194 0.6505 0.0
C622 C 0.58649 0.67002 0.58449 0.0
C623 C 0.6307 0.60558 0.5973 0.0
C624 C 0.61206 0.69517 0.67994 0.0
O625 O 0.65454 0.65063 0.66072 0.0
O626 O 0.68765 0.65566 0.68856 0.0
O627 O 0.35869 0.37735 0.42004 0.0
Mn628 Mn 0.37397 0.40661 0.39337 0.0
O629 O 0.32813 0.34988 0.39842 0.0
Mn630 Mn 0.33528 0.36408 0.36533 0.0
O631 O 0.39093 0.43452 0.36581 0.0
O632 O 0.40554 0.41417 0.41851 0.0
Mn633 Mn 0.41246 0.44907 0.421 0.0
O634 O 0.35114 0.43619 0.41194 0.0
O635 O 0.42276 0.46021 0.38775 0.0
O636 O 0.39696 0.37838 0.37281 0.0
O637 O 0.36658 0.35304 0.34869 0.0
O638 O 0.43721 0.43427 0.44285 0.0
O639 O 0.38108 0.46332 0.43466 0.0
C640 C 0.31982 0.40206 0.35584 0.0
C641 C 0.34109 0.35719 0.41921 0.0
C642 C 0.4108 0.45267 0.3665 0.0
C643 C 0.42473 0.41186 0.43574 0.0
C644 C 0.35675 0.4563 0.42743 0.0
C645 C 0.39115 0.36049 0.35488 0.0
O646 O 0.34137 0.39889 0.36987 0.0
O647 O 0.30819 0.37998 0.34685 0.0
H648 H 0.05782 0.252 0.31558 0.0
H649 H 0.97468 0.24278 0.28653 0.0
H650 H 0.07529 0.23679 0.27328 0.0
H651 H 0.99251 0.22728 0.2436 0.0
H652 H 0.05185 0.17368 0.18463 0.0
H653 H 0.0231 0.18834 0.2218 0.0
H654 H 0.07462 0.26105 0.22862 0.0
H655 H 0.10356 0.246 0.19255 0.0
C656 C 0.0432 0.24634 0.30025 0.0
C657 C 0.01489 0.24884 0.30435 0.0
C658 C 0.05324 0.2378 0.27592 0.0
C659 C 0.03529 0.23152 0.25495 0.0
C660 C 0.00678 0.23224 0.2594 0.0
C661 C -0.00338 0.24096 0.28396 0.0
C662 C 0.05631 0.19317 0.19354 0.0
C663 C 0.08016 0.2085 0.18616 0.0
C664 C 0.03993 0.20154 0.2148 0.0
C665 C 0.0472 0.22545 0.22856 0.0
C666 C 0.06895 0.24223 0.21879 0.0
C667 C 0.08533 0.23378 0.19792 0.0
H668 H 0.06828 0.78794 0.56476 0.0
H669 H 0.03157 0.86248 0.58415 0.0
H670 H 0.08173 0.80534 0.52133 0.0
H671 H 0.04556 0.88008 0.54118 0.0
H672 H 0.04091 0.89287 0.45448 0.0
H673 H 0.03039 0.87187 0.49673 0.0
H674 H 0.1103 0.83813 0.49604 0.0
H675 H 0.12059 0.8591 0.45328 0.0
C676 C 0.06366 0.80827 0.56 0.0
C677 C 0.04871 0.82379 0.57785 0.0
C678 C 0.07133 0.81822 0.53506 0.0
C679 C 0.06421 0.8439 0.52749 0.0
C680 C 0.0507 0.85992 0.54603 0.0
C681 C 0.04296 0.84997 0.57083 0.0
C682 C 0.056 0.88049 0.4631 0.0
C683 C 0.08146 0.8774 0.45049 0.0
C684 C 0.05014 0.86873 0.48749 0.0
C685 C 0.06975 0.85383 0.50017 0.0
C686 C 0.09471 0.84945 0.48685 0.0
C687 C 0.10052 0.86119 0.46222 0.0
H688 H 0.5129 0.8493 0.79514 0.0
H689 H 0.42996 0.85489 0.82501 0.0
H690 H 0.49955 0.86898 0.75339 0.0
H691 H 0.41695 0.87536 0.78367 0.0
H692 H 0.39985 0.92089 0.71453 0.0
H693 H 0.43061 0.91824 0.75208 0.0
H694 H 0.46067 0.84491 0.7201 0.0
H695 H 0.42942 0.84738 0.68285 0.0
C696 C 0.49204 0.85548 0.79307 0.0
C697 C 0.47237 0.85052 0.81324 0.0
C698 C 0.48449 0.86671 0.76922 0.0
C699 C 0.45736 0.87389 0.76549 0.0
C700 C 0.43814 0.87039 0.78625 0.0
C701 C 0.4455 0.85853 0.80981 0.0
C702 C 0.41446 0.90527 0.71458 0.0
C703 C 0.41256 0.88448 0.69575 0.0
C704 C 0.43174 0.90355 0.73627 0.0
C705 C 0.4476 0.88116 0.7391 0.0
C706 C 0.4487 0.86244 0.71827 0.0
C707 C 0.43105 0.86397 0.69679 0.0
H708 H 0.46603 0.20794 0.08901 0.0
H709 H 0.42736 0.28152 0.07218 0.0
H710 H 0.44998 0.189 0.04739 0.0
H711 H 0.4104 0.26211 0.03032 0.0
H712 H 0.4178 0.22527 0.94371 0.0
H713 H 0.42758 0.24772 0.98637 0.0
H714 H 0.40894 0.17293 0.02635 0.0
H715 H 0.40036 0.15074 0.98439 0.0
C716 C 0.45358 0.2199 0.07663 0.0
C717 C 0.44783 0.24616 0.08399 0.0
C718 C 0.44427 0.20901 0.0527 0.0
C719 C 0.42874 0.22397 0.03548 0.0
C720 C 0.42248 0.25013 0.04303 0.0
C721 C 0.43191 0.26111 0.06712 0.0
C722 C 0.41575 0.21382 0.96171 0.0
C723 C 0.40917 0.18613 0.96068 0.0
C724 C 0.42117 0.22664 0.98612 0.0
C725 C 0.41969 0.21194 0.00976 0.0
C726 C 0.41123 0.18468 0.00856 0.0
C727 C 0.40629 0.17195 0.98442 0.0
H728 H 0.068 0.80469 0.18012 0.0
H729 H 0.99428 0.848 0.19124 0.0
H730 H 0.08213 0.81661 0.22486 0.0
H731 H 0.00851 0.85993 0.23635 0.0
H732 H 0.08747 0.81352 0.31156 0.0
H733 H 0.06534 0.80336 0.26943 0.0
H734 H 0.04537 0.88609 0.26272 0.0
H735 H 0.06771 0.8962 0.30502 0.0
C736 C 0.05498 0.8171 0.19197 0.0
C737 C 0.03 0.82535 0.18207 0.0
C738 C 0.06291 0.82366 0.21778 0.0
C739 C 0.04613 0.83872 0.23441 0.0
C740 C 0.0218 0.84819 0.2241 0.0
C741 C 0.01374 0.84144 0.19823 0.0
C742 C 0.07744 0.82932 0.30158 0.0
C743 C 0.07913 0.85561 0.31175 0.0
C744 C 0.06512 0.82361 0.27724 0.0
C745 C 0.05428 0.84407 0.26236 0.0
C746 C 0.0536 0.86989 0.27365 0.0
C747 C 0.06603 0.87563 0.29812 0.0
H748 H 0.48878 0.8468 0.45306 0.0
H749 H 0.4523 0.76787 0.4689 0.0
H750 H 0.47281 0.86248 0.49578 0.0
H751 H 0.43623 0.78372 0.51214 0.0
H752 H 0.38498 0.84279 0.56799 0.0
H753 H 0.40311 0.81623 0.53153 0.0
H754 H 0.48338 0.85561 0.5427 0.0
H755 H 0.4649 0.88251 0.57851 0.0
C756 C 0.4772 0.8328 0.46563 0.0
C757 C 0.47181 0.8061 0.45756 0.0
C758 C 0.46834 0.8417 0.49031 0.0
C759 C 0.45377 0.82418 0.50763 0.0
C760 C 0.44756 0.79763 0.4993 0.0
C761 C 0.45665 0.78862 0.47453 0.0
C762 C 0.40675 0.84472 0.56346 0.0
C763 C 0.42359 0.86454 0.57606 0.0
C764 C 0.41713 0.82968 0.54244 0.0
C765 C 0.4445 0.83439 0.53377 0.0
C766 C 0.46203 0.85199 0.54852 0.0
C767 C 0.45162 0.86704 0.56936 0.0
H768 H 0.42516 0.25555 0.68255 0.0
H769 H 0.50295 0.22416 0.70316 0.0
H770 H 0.40715 0.24488 0.7264 0.0
H771 H 0.4852 0.21414 0.74744 0.0
H772 H 0.39011 0.252 0.81215 0.0
H773 H 0.41333 0.26201 0.77036 0.0
H774 H 0.45289 0.18677 0.77355 0.0
H775 H 0.42999 0.17719 0.81575 0.0
C776 C 0.43832 0.2461 0.69637 0.0
C777 C 0.46546 0.24072 0.68938 0.0
C778 C 0.42815 0.24031 0.72168 0.0
C779 C 0.44493 0.22921 0.74072 0.0
C780 C 0.47171 0.22269 0.73332 0.0
C781 C 0.48185 0.22837 0.7079 0.0
C782 C 0.40436 0.23795 0.80427 0.0
C783 C 0.40829 0.21382 0.81727 0.0
C784 C 0.41738 0.24348 0.78011 0.0
C785 C 0.43438 0.22485 0.76816 0.0
C786 C 0.43992 0.20158 0.78212 0.0
C787 C 0.42701 0.19616 0.80648 0.0
H788 H 0.06864 0.28388 0.9608 0.0
H789 H 0.05569 0.2028 0.93146 0.0
H790 H 0.0851 0.26693 0.00263 0.0
H791 H 0.0731 0.18598 0.97304 0.0
H792 H 0.12393 0.16515 0.0428 0.0
H793 H 0.12098 0.19176 0.00276 0.0
H794 H 0.05447 0.23382 0.03786 0.0
H795 H 0.05684 0.20645 0.07757 0.0
C796 C 0.06997 0.26246 0.96302 0.0
C797 C 0.06091 0.24462 0.94281 0.0
C798 C 0.07931 0.25284 0.987 0.0
C799 C 0.08051 0.22522 0.99095 0.0
C800 C 0.07266 0.20741 0.97033 0.0
C801 C 0.06264 0.217 0.9466 0.0
C802 C 0.10973 0.18112 0.0425 0.0
C803 C 0.09094 0.18414 0.06342 0.0
C804 C 0.10779 0.19604 0.01946 0.0
C805 C 0.08731 0.21457 0.01718 0.0
C806 C 0.07054 0.21973 0.03922 0.0
C807 C 0.0721 0.20435 0.06207 0.0
H808 H 0.29495 0.02521 0.16324 0.0
H809 H 0.32972 0.10441 0.18165 0.0
H810 H 0.25101 0.04418 0.1527 0.0
H811 H 0.28607 0.12338 0.17014 0.0
H812 H 0.20807 0.14897 0.1303 0.0
H813 H 0.24921 0.12291 0.12633 0.0
H814 H 0.22025 0.07384 0.1914 0.0
H815 H 0.17964 0.10066 0.19604 0.0
C816 C 0.29355 0.04675 0.16407 0.0
C817 C 0.31584 0.06339 0.17315 0.0
C818 C 0.26835 0.05752 0.15821 0.0
C819 C 0.26526 0.08517 0.16057 0.0
C820 C 0.28806 0.10198 0.16792 0.0
C821 C 0.31302 0.09116 0.17448 0.0
C822 C 0.2099 0.13179 0.1429 0.0
C823 C 0.19044 0.12633 0.16307 0.0
C824 C 0.23352 0.1171 0.14079 0.0
C825 C 0.23782 0.09645 0.15856 0.0
C826 C 0.2172 0.08949 0.17728 0.0
C827 C 0.19389 0.10464 0.17981 0.0
H828 H 0.26935 0.06628 0.48169 0.0
H829 H 0.19391 0.10113 0.45918 0.0
H830 H 0.25452 0.02431 0.45901 0.0
H831 H 0.17948 0.05967 0.4362 0.0
H832 H 0.1673 0.99377 0.3803 0.0
H833 H 0.19611 0.03163 0.39628 0.0
H834 H 0.2113 0.98877 0.46765 0.0
H835 H 0.18256 0.95027 0.45113 0.0
C836 C 0.24991 0.06515 0.47142 0.0
C837 C 0.23281 0.08699 0.47203 0.0
C838 C 0.24139 0.04112 0.45865 0.0
C839 C 0.21597 0.03882 0.44575 0.0
C840 C 0.19936 0.06099 0.4457 0.0
C841 C 0.20756 0.08471 0.45889 0.0
C842 C 0.1782 0.99172 0.39863 0.0
C843 C 0.17332 0.96884 0.41416 0.0
C844 C 0.19428 0.01361 0.408 0.0
C845 C 0.20561 0.01326 0.43332 0.0
C846 C 0.20292 0.98946 0.44796 0.0
C847 C 0.18669 0.96737 0.43847 0.0
H848 H 0.17014 0.96545 0.7257 0.0
H849 H 0.18621 0.03515 0.67715 0.0
H850 H 0.21497 0.94951 0.71367 0.0
H851 H 0.23143 0.01904 0.66508 0.0
H852 H 0.2979 0.95784 0.63383 0.0
H853 H 0.25505 0.98019 0.64186 0.0
H854 H 0.2627 0.96669 0.72543 0.0
H855 H 0.30569 0.94491 0.71736 0.0
C856 C 0.18305 0.97716 0.71208 0.0
C857 C 0.17469 0.00164 0.70251 0.0
C858 C 0.20888 0.96817 0.70543 0.0
C859 C 0.22696 0.9834 0.68899 0.0
C860 C 0.21797 0.00702 0.67796 0.0
C861 C 0.19206 0.01614 0.68477 0.0
C862 C 0.29116 0.96094 0.65397 0.0
C863 C 0.30535 0.95008 0.675 0.0
C864 C 0.26638 0.97334 0.65855 0.0
C865 C 0.25526 0.97464 0.68421 0.0
C866 C 0.2705 0.96544 0.70538 0.0
C867 C 0.29523 0.95324 0.70081 0.0
H868 H 0.23414 0.98814 0.97328 0.0
H869 H 0.3156 0.96101 0.95799 0.0
H870 H 0.24793 0.03179 0.95407 0.0
H871 H 0.329 0.00423 0.93818 0.0
H872 H 0.33525 0.07073 0.88058 0.0
H873 H 0.30884 0.03079 0.89537 0.0
H874 H 0.29146 0.07031 0.96931 0.0
H875 H 0.31836 0.11062 0.95442 0.0
C876 C 0.25481 0.99136 0.9654 0.0
C877 C 0.27381 0.97117 0.96693 0.0
C878 C 0.26267 0.01634 0.95462 0.0
C879 C 0.28941 0.0212 0.94464 0.0
C880 C 0.30817 0.00081 0.94562 0.0
C881 C 0.30054 0.97614 0.95692 0.0
C882 C 0.32471 0.07134 0.89951 0.0
C883 C 0.32856 0.09374 0.91631 0.0
C884 C 0.30983 0.04843 0.90802 0.0
C885 C 0.29851 0.04747 0.93353 0.0
C886 C 0.29996 0.07074 0.94947 0.0
C887 C 0.31508 0.09382 0.94092 0.0
H888 H 0.30792 0.00936 0.29697 0.0
H889 H 0.27847 0.99289 0.21812 0.0
H890 H 0.26284 0.9943 0.31497 0.0
H891 H 0.2332 0.97954 0.23565 0.0
H892 H 0.18163 0.91271 0.27809 0.0
H893 H 0.2173 0.94054 0.25691 0.0
H894 H 0.21401 -0.00195 0.32118 0.0
H895 H 0.17836 0.96912 0.34277 0.0
C896 C 0.2916 0.00299 0.28354 0.0
C897 C 0.29674 0.00145 0.25631 0.0
C898 C 0.2657 0.99468 0.29375 0.0
C899 C 0.24443 0.98528 0.27677 0.0
C900 C 0.24925 0.98587 0.24937 0.0
C901 C 0.27519 0.99348 0.2393 0.0
C902 C 0.18787 0.93174 0.28725 0.0
C903 C 0.17741 0.93881 0.31209 0.0
C904 C 0.20834 0.94785 0.27507 0.0
C905 C 0.21888 0.97151 0.28745 0.0
C906 C 0.20667 0.97976 0.31131 0.0
C907 C 0.18597 0.9635 0.3235 0.0
H908 H 0.23526 0.06944 0.57471 0.0
H909 H 0.31604 0.10831 0.58378 0.0
H910 H 0.25285 0.02727 0.58958 0.0
H911 H 0.33351 0.06635 0.59878 0.0
H912 H 0.36081 0.99038 0.62932 0.0
H913 H 0.33195 0.02902 0.63204 0.0
H914 H 0.28608 -0.00143 0.56463 0.0
H915 H 0.31517 0.96028 0.56188 0.0
C916 C 0.25655 0.06922 0.58068 0.0
C917 C 0.27433 0.09217 0.57788 0.0
C918 C 0.26663 0.04501 0.58906 0.0
C919 C 0.2946 0.0434 0.59519 0.0
C920 C 0.3118 0.06693 0.59446 0.0
C921 C 0.30182 0.091 0.58574 0.0
C922 C 0.34366 0.99136 0.61596 0.0
C923 C 0.33976 0.97217 0.59571 0.0
C924 C 0.32737 0.01361 0.6173 0.0
C925 C 0.30688 0.01699 0.59841 0.0
C926 C 0.30145 -0.00356 0.57966 0.0
C927 C 0.318 0.97442 0.57812 0.0
H928 H 0.18754 0.10811 0.76226 0.0
H929 H 0.18816 0.03667 0.80933 0.0
H930 H 0.23358 0.12151 0.77719 0.0
H931 H 0.23475 0.04992 0.82406 0.0
H932 H 0.29871 0.10924 0.86869 0.0
H933 H 0.25829 0.0843 0.85153 0.0
H934 H 0.28101 0.10967 0.77266 0.0
H935 H 0.3214 0.13482 0.79026 0.0
C936 C 0.1975 0.0953 0.77591 0.0
C937 C 0.18413 0.07143 0.78475 0.0
C938 C 0.22411 0.10276 0.78416 0.0
C939 C 0.23813 0.08652 0.80142 0.0
C940 C 0.22456 0.06285 0.81071 0.0
C941 C 0.19783 0.05535 0.8024 0.0
C942 C 0.296 0.10795 0.84753 0.0
C943 C 0.31353 0.12321 0.83069 0.0
C944 C 0.27256 0.09402 0.83768 0.0
C945 C 0.26608 0.09544 0.81078 0.0
C946 C 0.28514 0.10863 0.79357 0.0
C947 C 0.30856 0.12259 0.8035 0.0
H948 H 0.17606 0.94747 0.05366 0.0
H949 H 0.25722 0.97904 0.07526 0.0
H950 H 0.15707 0.98984 0.06639 0.0
H951 H 0.23796 0.02165 0.08818 0.0
H952 H 0.17736 0.08474 0.12775 0.0
H953 H 0.20214 0.04392 0.12002 0.0
H954 H 0.16475 0.03493 0.04331 0.0
H955 H 0.14081 0.0759 0.05078 0.0
C956 C 0.18977 0.96322 0.06172 0.0
C957 C 0.21818 0.95997 0.0632 0.0
C958 C 0.17892 0.98758 0.06878 0.0
C959 C 0.19617 0.0092 0.07766 0.0
C960 C 0.22426 0.00535 0.08122 0.0
C961 C 0.23522 0.98093 0.07391 0.0
C962 C 0.17547 0.07471 0.10885 0.0
C963 C 0.1574 0.08371 0.08982 0.0
C964 C 0.18929 0.05111 0.10457 0.0
C965 C 0.18484 0.03597 0.08131 0.0
C966 C 0.16807 0.04589 0.06168 0.0
C967 C 0.15454 0.06946 0.06587 0.0
H968 H 0.20399 0.32837 -0.00038 0.0
H969 H 0.22877 0.35817 0.07659 0.0
H970 H 0.18727 0.28593 0.01929 0.0
H971 H 0.21177 0.31619 0.09618 0.0
H972 H 0.2133 0.23095 0.11949 0.0
H973 H 0.22788 0.2708 0.09495 0.0
H974 H 0.15257 0.26407 0.05039 0.0
H975 H 0.13806 0.22366 0.07503 0.0
C976 C 0.20542 0.32604 0.02078 0.0
C977 C 0.21789 0.34654 0.03655 0.0
C978 C 0.19585 0.30173 0.03202 0.0
C979 C 0.1987 0.29748 0.05921 0.0
C980 C 0.20992 0.31855 0.07506 0.0
C981 C 0.21944 0.34274 0.06387 0.0
C982 C 0.20005 0.23767 0.10412 0.0
C983 C 0.17447 0.22426 0.09927 0.0
C984 C 0.20828 0.26066 0.09023 0.0
C985 C 0.19106 0.27104 0.07123 0.0
C986 C 0.16626 0.25663 0.065 0.0
C987 C 0.15802 0.23339 0.07894 0.0
H988 H 0.66993 0.19858 0.93607 0.0
H989 H 0.67547 0.22721 0.01665 0.0
H990 H 0.65246 0.24133 0.92293 0.0
H991 H 0.65879 0.27031 0.00328 0.0
H992 H 0.61593 0.31651 0.904 0.0
H993 H 0.61316 0.27619 0.93106 0.0
H994 H 0.6877 0.30358 0.97063 0.0
H995 H 0.69085 0.34337 0.94295 0.0
C996 C 0.66663 0.2137 0.95108 0.0
C997 C 0.6741 0.20955 0.97734 0.0
C998 C 0.65654 0.23815 0.94361 0.0
C999 C 0.65429 0.25913 0.96213 0.0
C1000 C 0.66022 0.25444 0.98867 0.0
C1001 C 0.66967 0.22973 -0.00372 0.0
C1002 C 0.63075 0.31466 0.91961 0.0
C1003 C 0.65344 0.33313 0.92168 0.0
C1004 C 0.62935 0.29144 0.93484 0.0
C1005 C 0.65039 0.28664 0.95267 0.0
C1006 C 0.67109 0.30685 0.95716 0.0
C1007 C 0.6728 0.32979 0.94151 0.0
H1008 H 0.05165 0.47344 0.26152 0.0
H1009 H 0.08024 0.51735 0.19272 0.0
H1010 H 0.00868 0.46055 0.23908 0.0
H1011 H 0.03771 0.50399 0.17007 0.0
H1012 H 0.94824 0.42183 0.17669 0.0
H1013 H 0.98876 0.43389 0.20304 0.0
H1014 H 0.99 0.51424 0.17228 0.0
H1015 H 0.94944 0.50191 0.14599 0.0
C1016 C 0.04896 0.47993 0.24142 0.0
C1017 C 0.06929 0.49646 0.22889 0.0
C1018 C 0.02432 0.47257 0.22858 0.0
C1019 C 0.01952 0.48161 0.20293 0.0
C1020 C 0.04039 0.49726 0.19008 0.0
C1021 C 0.06494 0.50465 0.20292 0.0
C1022 C 0.95646 0.44232 0.17651 0.0
C1023 C 0.94534 0.46105 0.15977 0.0
C1024 C 0.97995 0.44919 0.19131 0.0
C1025 C 0.99292 0.47495 0.1895 0.0
C1026 C 0.98093 0.49405 0.17368 0.0
C1027 C 0.95751 0.48711 0.15886 0.0
H1028 H 0.83866 0.84614 0.49983 0.0
H1029 H 0.77569 0.84431 0.44025 0.0
H1030 H 0.85245 0.80182 0.48462 0.0
H1031 H 0.78903 0.80033 0.42566 0.0
H1032 H 0.79323 0.71458 0.4217 0.0
H1033 H 0.78658 0.75337 0.45024 0.0
H1034 H 0.87115 0.78071 0.43722 0.0
H1035 H 0.87772 0.74172 0.40852 0.0
C1036 C 0.828 0.83646 0.48336 0.0
C1037 C 0.80609 0.84873 0.47121 0.0
C1038 C 0.83578 0.8111 0.47482 0.0
C1039 C 0.82135 0.79746 0.45443 0.0
C1040 C 0.80009 0.81015 0.44184 0.0
C1041 C 0.79267 0.83551 0.45001 0.0
C1042 C 0.81086 0.72793 0.42632 0.0
C1043 C 0.83603 0.72506 0.41319 0.0
C1044 C 0.80695 0.75035 0.44231 0.0
C1045 C 0.82819 0.77028 0.44538 0.0
C1046 C 0.85445 0.76564 0.43514 0.0
C1047 C 0.8583 0.74316 0.41897 0.0
H1048 H 0.96281 0.07247 0.28151 0.0
H1049 H 0.92063 0.06842 0.20688 0.0
H1050 H 0.00605 0.08558 0.25853 0.0
H1051 H 0.96336 0.08172 0.18419 0.0
H1052 H 0.04304 0.06835 0.14682 0.0
H1053 H 0.00525 0.05627 0.17674 0.0
H1054 H 0.03112 0.1214 0.22906 0.0
H1055 H 0.07006 0.13298 0.19915 0.0
C1056 C 0.96264 0.07496 0.26031 0.0
C1057 C 0.93838 0.06916 0.24594 0.0
C1058 C 0.98739 0.08239 0.24719 0.0
C1059 C 0.98822 0.08402 0.21952 0.0
C1060 C 0.96354 0.07992 0.20547 0.0
C1061 C 0.93897 0.07252 0.21849 0.0
C1062 C 0.04116 0.07969 0.16505 0.0
C1063 C 0.05903 0.10206 0.17032 0.0
C1064 C 0.01932 0.07295 0.18205 0.0
C1065 C 0.01458 0.08854 0.2047 0.0
C1066 C 0.03405 0.10926 0.21152 0.0
C1067 C 0.05632 0.11588 0.19446 0.0
H1068 H 0.30934 0.72431 0.52657 0.0
H1069 H 0.22784 0.73119 0.55945 0.0
H1070 H 0.32349 0.7681 0.54556 0.0
H1071 H 0.24123 0.77526 0.57699 0.0
H1072 H 0.28449 0.83202 0.63574 0.0
H1073 H 0.2671 0.79333 0.61125 0.0
H1074 H 0.32017 0.816 0.54531 0.0
H1075 H 0.33846 0.85502 0.57081 0.0
C1076 C 0.29448 0.73519 0.53787 0.0
C1077 C 0.26769 0.72405 0.54209 0.0
C1078 C 0.30243 0.76048 0.54838 0.0
C1079 C 0.28358 0.77533 0.56297 0.0
C1080 C 0.25658 0.76428 0.56647 0.0
C1081 C 0.24886 0.7389 0.55645 0.0
C1082 C 0.29219 0.82913 0.61582 0.0
C1083 C 0.31335 0.84628 0.60545 0.0
C1084 C 0.28203 0.80686 0.6016 0.0
C1085 C 0.2924 0.80114 0.57631 0.0
C1086 C 0.31214 0.81944 0.56499 0.0
C1087 C 0.32242 0.84195 0.57942 0.0
H1088 H 0.05425 0.54875 0.33115 0.0
H1089 H 0.07155 0.61214 0.27516 0.0
H1090 H 0.0091 0.56566 0.33986 0.0
H1091 H 0.026 0.62946 0.28441 0.0
H1092 H 0.95723 0.65814 0.35223 0.0
H1093 H -0.00056 0.64848 0.32802 0.0
H1094 H 0.96537 0.569 0.31008 0.0
H1095 H 0.92346 0.57867 0.33431 0.0
C1096 C 0.04857 0.56653 0.32094 0.0
C1097 C 0.0665 0.57909 0.30247 0.0
C1098 C 0.02254 0.57602 0.32569 0.0
C1099 C 0.01383 0.59849 0.31232 0.0
C1100 C 0.03213 0.61191 0.29471 0.0
C1101 C 0.05819 0.6021 0.2896 0.0
C1102 C 0.95806 0.6393 0.34153 0.0
C1103 C 0.93713 0.61913 0.34503 0.0
C1104 C 0.98237 0.63364 0.32796 0.0
C1105 C 0.98588 0.60774 0.31788 0.0
C1106 C 0.9633 0.589 0.31805 0.0
C1107 C 0.93911 0.59467 0.33153 0.0
H1108 H 0.44219 0.50202 0.84075 0.0
H1109 H 0.42707 0.43679 0.78521 0.0
H1110 H 0.48756 0.48618 0.84946 0.0
H1111 H 0.47282 0.42054 0.79456 0.0
H1112 H 0.54415 0.39921 0.86358 0.0
H1113 H 0.50053 0.40501 0.84112 0.0
H1114 H 0.53107 0.48293 0.81501 0.0
H1115 H 0.57446 0.47708 0.83734 0.0
C1116 C 0.4483 0.48398 0.83077 0.0
C1117 C 0.431 0.47072 0.81225 0.0
C1118 C 0.47444 0.47509 0.83554 0.0
C1119 C 0.48386 0.45252 0.8222 0.0
C1120 C 0.46608 0.43817 0.80484 0.0
C1121 C 0.4399 0.44737 0.7997 0.0
C1122 C 0.54222 0.41672 0.85146 0.0
C1123 C 0.56269 0.43767 0.85202 0.0
C1124 C 0.51711 0.42018 0.8389 0.0
C1125 C 0.51232 0.44467 0.82693 0.0
C1126 C 0.53422 0.46396 0.82436 0.0
C1127 C 0.55924 0.46045 0.83677 0.0
H1128 H 0.98277 0.8563 0.70258 0.0
H1129 H 0.93332 0.78197 0.70126 0.0
H1130 H 0.96052 0.86887 0.74432 0.0
H1131 H 0.91251 0.79355 0.7431 0.0
H1132 H 0.85379 0.83591 0.79516 0.0
H1133 H 0.88003 0.82304 0.75726 0.0
H1134 H 0.9539 0.8598 0.79168 0.0
H1135 H 0.92676 0.87396 0.83014 0.0
C1136 C 0.96715 0.84272 0.71119 0.0
C1137 C 0.95926 0.81848 0.69833 0.0
C1138 C 0.95472 0.84971 0.73525 0.0
C1139 C 0.93448 0.83236 0.74702 0.0
C1140 C 0.92741 0.80779 0.73437 0.0
C1141 C 0.93934 0.80112 0.71026 0.0
C1142 C 0.87567 0.84122 0.79502 0.0
C1143 C 0.88805 0.8563 0.81574 0.0
C1144 C 0.89087 0.83356 0.77316 0.0
C1145 C 0.91919 0.84023 0.77129 0.0
C1146 C 0.93202 0.85456 0.79236 0.0
C1147 C 0.91658 0.86242 0.8145 0.0
H1148 H 0.92228 0.24283 0.41972 0.0
H1149 H 0.95252 0.31998 0.44972 0.0
H1150 H 0.90717 0.23011 0.46437 0.0
H1151 H 0.9381 0.30692 0.49428 0.0
H1152 H 0.95592 0.24346 0.56346 0.0
H1153 H 0.95946 0.2677 0.52175 0.0
H1154 H 0.87464 0.24453 0.50522 0.0
H1155 H 0.87103 0.22069 0.54724 0.0
C1156 C 0.92508 0.25729 0.43568 0.0
C1157 C 0.93861 0.28238 0.43115 0.0
C1158 C 0.9164 0.25004 0.46122 0.0
C1159 C 0.92156 0.26753 0.48277 0.0
C1160 C 0.93387 0.29308 0.47803 0.0
C1161 C 0.94201 0.30054 0.45247 0.0
C1162 C 0.93773 0.24457 0.55145 0.0
C1163 C 0.91306 0.23068 0.55879 0.0
C1164 C 0.93976 0.25833 0.52754 0.0
C1165 C 0.91736 0.25782 0.5102 0.0
C1166 C 0.89221 0.2452 0.51822 0.0
C1167 C 0.89003 0.23192 0.54243 0.0
H1168 H 0.56739 0.24815 0.19488 0.0
H1169 H 0.48401 0.22579 0.21901 0.0
H1170 H 0.58399 0.23379 0.23725 0.0
H1171 H 0.50062 0.21194 0.26193 0.0
H1172 H 0.55254 0.16579 0.32473 0.0
H1173 H 0.52841 0.17967 0.28528 0.0
H1174 H 0.58181 0.2515 0.28183 0.0
H1175 H 0.60651 0.2369 0.3201 0.0
C1176 C 0.55264 0.2399 0.20916 0.0
C1177 C 0.52443 0.23822 0.20366 0.0
C1178 C 0.56208 0.23198 0.2336 0.0
C1179 C 0.54352 0.22241 0.25326 0.0
C1180 C 0.5154 0.21935 0.24727 0.0
C1181 C 0.50593 0.2272 0.22266 0.0
C1182 C 0.55848 0.18487 0.31588 0.0
C1183 C 0.58166 0.20003 0.32499 0.0
C1184 C 0.54477 0.1928 0.29327 0.0
C1185 C 0.55392 0.2162 0.27987 0.0
C1186 C 0.57496 0.23285 0.29109 0.0
C1187 C 0.58882 0.22474 0.31327 0.0
H1188 H 0.50048 0.86969 0.93796 0.0
H1189 H 0.56696 0.81582 0.93781 0.0
H1190 H 0.5153 0.88779 0.98041 0.0
H1191 H 0.58249 0.83466 0.98025 0.0
H1192 H 0.58276 0.85421 0.06931 0.0
H1193 H 0.56829 0.83552 0.02659 0.0
H1194 H 0.55117 0.9148 0.0003 0.0
H1195 H 0.56463 0.93327 0.04287 0.0
C1196 C 0.51862 0.86205 0.94679 0.0
C1197 C 0.53263 0.8414 0.9345 0.0
C1198 C 0.52715 0.87247 0.97116 0.0
C1199 C 0.55006 0.86265 0.9838 0.0
C1200 C 0.56451 0.84238 0.97122 0.0
C1201 C 0.55585 0.83183 0.94678 0.0
C1202 C 0.57556 0.86758 0.05452 0.0
C1203 C 0.57474 0.89524 0.05966 0.0
C1204 C 0.56759 0.85691 0.02992 0.0
C1205 C 0.55864 0.87368 0.00998 0.0
C1206 C 0.55758 0.90123 0.01529 0.0
C1207 C 0.5654 0.91185 0.03978 0.0
H1208 H 0.98711 0.21309 0.81315 0.0
H1209 H 0.93736 0.28091 0.82674 0.0
H1210 H 0.96395 0.20417 0.77098 0.0
H1211 H 0.91514 0.27279 0.78459 0.0
H1212 H 0.85987 0.23547 0.72147 0.0
H1213 H 0.88349 0.24395 0.76268 0.0
H1214 H 0.95954 0.2206 0.72666 0.0
H1215 H 0.9354 0.21119 0.68517 0.0
C1216 C 0.97107 0.22592 0.80728 0.0
C1217 C 0.96389 0.24752 0.8235 0.0
C1218 C 0.95805 0.22107 0.78291 0.0
C1219 C 0.93762 0.23778 0.77417 0.0
C1220 C 0.93036 0.25916 0.79068 0.0
C1221 C 0.94319 0.26386 0.81497 0.0
C1222 C 0.88171 0.2324 0.72205 0.0
C1223 C 0.89563 0.22256 0.69977 0.0
C1224 C 0.89537 0.23737 0.74587 0.0
C1225 C 0.92352 0.23293 0.74826 0.0
C1226 C 0.93776 0.22386 0.72577 0.0
C1227 C 0.92399 0.21878 0.70183 0.0
H1228 H 0.50152 0.21177 0.55988 0.0
H1229 H 0.57908 0.25749 0.56656 0.0
H1230 H 0.51538 0.1954 0.51666 0.0
H1231 H 0.5931 0.24074 0.52295 0.0
H1232 H 0.608 0.1672 0.46001 0.0
H1233 H 0.60253 0.19466 0.49991 0.0
H1234 H 0.52377 0.21764 0.47205 0.0
H1235 H 0.52925 0.19009 0.43248 0.0
C1236 C 0.5217 0.21806 0.55228 0.0
C1237 C 0.53918 0.23593 0.56666 0.0
C1238 C 0.5295 0.20896 0.52734 0.0
C1239 C 0.55506 0.21732 0.51618 0.0
C1240 C 0.57318 0.2342 0.531 0.0
C1241 C 0.56521 0.24362 0.55598 0.0
C1242 C 0.59033 0.17942 0.46176 0.0
C1243 C 0.56916 0.17687 0.44312 0.0
C1244 C 0.58704 0.19488 0.48473 0.0
C1245 C 0.56239 0.20766 0.48934 0.0
C1246 C 0.54276 0.20757 0.46918 0.0
C1247 C 0.54607 0.19219 0.44634 0.0
H1248 H 0.57752 0.8016 0.32245 0.0
H1249 H 0.50566 0.84852 0.32841 0.0
H1250 H 0.58386 0.81483 0.27664 0.0
H1251 H 0.51239 0.8621 0.28222 0.0
H1252 H 0.5703 0.81196 0.1914 0.0
H1253 H 0.5525 0.80293 0.23575 0.0
H1254 H 0.55154 0.88783 0.2517 0.0
H1255 H 0.56979 0.89687 0.20732 0.0
C1256 C 0.56338 0.81517 0.31415 0.0
C1257 C 0.54103 0.82391 0.32903 0.0
C1258 C 0.56683 0.82249 0.28782 0.0
C1259 C 0.54819 0.83893 0.27578 0.0
C1260 C 0.52684 0.84918 0.29102 0.0
C1261 C 0.52315 0.84154 0.31744 0.0
C1262 C 0.56513 0.82869 0.20394 0.0
C1263 C 0.57143 0.85512 0.19591 0.0
C1264 C 0.55523 0.82354 0.2294 0.0
C1265 C 0.55138 0.84471 0.24727 0.0
C1266 C 0.55444 0.87118 0.23828 0.0
C1267 C 0.56451 0.87636 0.21271 0.0
H1268 H 0.98857 0.84833 0.05052 0.0
H1269 H 0.91644 0.79481 0.05921 0.0
H1270 H 0.97194 0.86278 0.00817 0.0
H1271 H 0.89947 0.80982 0.01651 0.0
H1272 H 0.87754 0.88346 0.95545 0.0
H1273 H 0.88539 0.85688 0.99478 0.0
H1274 H 0.96457 0.83723 0.96329 0.0
H1275 H 0.95659 0.8635 0.92411 0.0
C1276 C 0.96896 0.83988 0.04356 0.0
C1277 C 0.95387 0.82039 0.05826 0.0
C1278 C 0.95956 0.84796 0.01914 0.0
C1279 C 0.93468 0.83701 0.0088 0.0
C1280 C 0.91883 0.8184 0.02393 0.0
C1281 C 0.9285 0.80994 0.04837 0.0
C1282 C 0.89576 0.87198 0.95616 0.0
C1283 C 0.91633 0.87521 0.93658 0.0
C1284 C 0.90045 0.85709 0.97888 0.0
C1285 C 0.92589 0.84558 0.98232 0.0
C1286 C 0.94496 0.84625 0.9613 0.0
C1287 C 0.94024 0.86096 0.9387 0.0
H1288 H 0.70776 0.05126 0.82509 0.0
H1289 H 0.66262 0.97472 0.81932 0.0
H1290 H 0.74615 0.02972 0.84557 0.0
H1291 H 0.70065 0.95337 0.84037 0.0
H1292 H 0.76252 0.92222 0.89208 0.0
H1293 H 0.72754 0.95454 0.88504 0.0
H1294 H 0.77921 0.99324 0.82553 0.0
H1295 H 0.8142 0.96052 0.83251 0.0
C1296 C 0.70576 0.02995 0.82879 0.0
C1297 C 0.68212 0.01464 0.82068 0.0
C1298 C 0.7278 0.01766 0.84038 0.0
C1299 C 0.72633 0.98994 0.84469 0.0
C1300 C 0.70221 0.97486 0.8376 0.0
C1301 C 0.68046 0.98702 0.82548 0.0
C1302 C 0.76703 0.93854 0.87854 0.0
C1303 C 0.7911 0.93908 0.863 0.0
C1304 C 0.74685 0.9568 0.87426 0.0
C1305 C 0.75044 0.97602 0.85439 0.0
C1306 C 0.77594 0.97862 0.84102 0.0
C1307 C 0.79612 0.96011 0.84519 0.0
H1308 H 0.79445 0.97849 0.57459 0.0
H1309 H 0.82316 0.9891 0.4943 0.0
H1310 H 0.81097 0.02439 0.5853 0.0
H1311 H 0.83833 0.03503 0.50445 0.0
H1312 H 0.89331 0.10251 0.53948 0.0
H1313 H 0.87296 0.05927 0.52675 0.0
H1314 H 0.80406 0.07114 0.57937 0.0
H1315 H 0.82536 0.11457 0.59303 0.0
C1316 C 0.80438 0.9906 0.55928 0.0
C1317 C 0.80792 0.98002 0.53373 0.0
C1318 C 0.81347 0.01705 0.56528 0.0
C1319 C 0.82601 0.03359 0.54576 0.0
C1320 C 0.8293 0.02288 0.52018 0.0
C1321 C 0.82059 -0.00356 0.51432 0.0
C1322 C 0.87357 0.09622 0.54808 0.0
C1323 C 0.86113 0.11197 0.56751 0.0
C1324 C 0.86176 0.0713 0.54065 0.0
C1325 C 0.83692 0.06139 0.55218 0.0
C1326 C 0.8235 0.07786 0.57045 0.0
C1327 C 0.83547 0.10295 0.578 0.0
H1328 H 0.81093 0.03864 0.35507 0.0
H1329 H 0.8074 0.09035 0.28757 0.0
H1330 H 0.76453 0.05105 0.36862 0.0
H1331 H 0.76142 0.10208 0.30074 0.0
H1332 H 0.67311 0.09869 0.30879 0.0
H1333 H 0.71443 0.07347 0.30341 0.0
H1334 H 0.74002 0.09734 0.38184 0.0
H1335 H 0.69879 0.12292 0.38692 0.0
C1336 C 0.80049 0.05291 0.34339 0.0
C1337 C 0.81287 0.06352 0.32024 0.0
C1338 C 0.7739 0.05978 0.35101 0.0
C1339 C 0.75914 0.0769 0.33529 0.0
C1340 C 0.77203 0.08826 0.31284 0.0
C1341 C 0.79856 0.0818 0.30549 0.0
C1342 C 0.68661 0.09705 0.3255 0.0
C1343 C 0.68245 0.1122 0.3485 0.0
C1344 C 0.71051 0.083 0.32229 0.0
C1345 C 0.73064 0.08394 0.34203 0.0
C1346 C 0.7248 0.09621 0.36636 0.0
C1347 C 0.70092 0.11045 0.36947 0.0
H1348 H 0.70959 0.06519 -0.00298 0.0
H1349 H 0.70735 0.09817 0.07598 0.0
H1350 H 0.70699 0.02012 0.01455 0.0
H1351 H 0.70261 0.05304 0.09379 0.0
H1352 H 0.69986 0.97374 0.12585 0.0
H1353 H 0.72082 0.01275 0.10351 0.0
H1354 H 0.67692 0.98888 0.03247 0.0
H1355 H 0.6579 0.9493 0.05447 0.0
C1356 C 0.70792 0.06273 0.0182 0.0
C1357 C 0.7081 0.08517 0.03516 0.0
C1358 C 0.70649 0.0368 0.02832 0.0
C1359 C 0.7045 0.03255 0.0557 0.0
C1360 C 0.70477 0.05521 0.07264 0.0
C1361 C 0.70695 0.0812 0.06248 0.0
C1362 C 0.69636 0.97596 0.10492 0.0
C1363 C 0.67734 0.95853 0.09184 0.0
C1364 C 0.70764 -0.00119 0.09227 0.0
C1365 C 0.69961 0.00489 0.06646 0.0
C1366 C 0.68366 0.98528 0.05233 0.0
C1367 C 0.67295 0.96216 0.06485 0.0
H1368 H 0.69203 0.06692 0.68912 0.0
H1369 H 0.72322 0.07527 0.76818 0.0
H1370 H 0.73806 0.07714 0.67132 0.0
H1371 H 0.76973 0.08277 0.75094 0.0
H1372 H 0.83504 0.13984 0.71228 0.0
H1373 H 0.79769 0.11464 0.73352 0.0
H1374 H 0.78241 0.06988 0.66097 0.0
H1375 H 0.81886 0.0972 0.63938 0.0
C1376 C 0.70897 0.07057 0.70263 0.0
C1377 C 0.70412 0.07114 0.7299 0.0
C1378 C 0.73558 0.076 0.69252 0.0
C1379 C 0.75815 0.08115 0.70954 0.0
C1380 C 0.75314 0.07994 0.73698 0.0
C1381 C 0.72642 0.07555 0.74698 0.0
C1382 C 0.82469 0.12356 0.70132 0.0
C1383 C 0.82976 0.12057 0.6742 0.0
C1384 C 0.8028 0.1091 0.71345 0.0
C1385 C 0.78584 0.09071 0.69883 0.0
C1386 C 0.79398 0.0847 0.67269 0.0
C1387 C 0.81553 0.09976 0.6604 0.0
H1388 H 0.68735 0.96585 0.50785 0.0
H1389 H 0.73738 0.96867 0.43692 0.0
H1390 H 0.66248 0.00348 0.49248 0.0
H1391 H 0.71197 0.00629 0.42119 0.0
H1392 H 0.67684 0.0914 0.41682 0.0
H1393 H 0.7042 0.05462 0.43146 0.0
H1394 H 0.62987 0.01181 0.45831 0.0
H1395 H 0.60294 0.04795 0.44396 0.0
C1396 C 0.69281 0.97431 0.48879 0.0
C1397 C 0.71415 0.96412 0.47349 0.0
C1398 C 0.67855 -0.0041 0.47997 0.0
C1399 C 0.68521 0.00787 0.45558 0.0
C1400 C 0.70655 -0.00232 0.44019 0.0
C1401 C 0.72085 0.97595 0.44904 0.0
C1402 C 0.66645 0.0741 0.42573 0.0
C1403 C 0.63769 0.07277 0.42904 0.0
C1404 C 0.68207 0.05301 0.43409 0.0
C1405 C 0.66919 0.03032 0.44614 0.0
C1406 C 0.64052 0.02914 0.44952 0.0
C1407 C 0.62504 0.05 0.44117 0.0
H1408 H 0.81101 0.00136 0.20669 0.0
H1409 H 0.79462 0.96395 0.28209 0.0
H1410 H 0.76779 0.98079 0.18981 0.0
H1411 H 0.75131 0.94433 0.26569 0.0
H1412 H 0.69902 0.88471 0.21592 0.0
H1413 H 0.738 0.9094 0.23537 0.0
H1414 H 0.71735 0.9804 0.19359 0.0
H1415 H 0.67834 0.95517 0.17331 0.0
C1416 C 0.79815 0.9888 0.21962 0.0
C1417 C 0.80635 0.98388 0.24552 0.0
C1418 C 0.77328 0.97731 0.2101 0.0
C1419 C 0.75615 0.96088 0.22641 0.0
C1420 C 0.76423 0.95651 0.25248 0.0
C1421 C 0.78908 0.96773 0.26186 0.0
C1422 C 0.70249 0.90569 0.21113 0.0
C1423 C 0.68569 0.91796 0.19298 0.0
C1424 C 0.72481 0.91992 0.22241 0.0
C1425 C 0.73088 0.94684 0.21594 0.0
C1426 C 0.71337 0.95956 0.19868 0.0
C1427 C 0.69086 0.94524 0.18736 0.0
H1428 H 0.80864 0.10267 -0.00271 0.0
H1429 H 0.75914 0.09471 0.9271 0.0
H1430 H 0.82929 0.06099 0.98677 0.0
H1431 H 0.78122 0.05318 0.91552 0.0
H1432 H 0.80815 0.96641 0.91538 0.0
H1433 H 0.78458 0.00702 0.92704 0.0
H1434 H 0.86051 0.04227 0.95876 0.0
H1435 H 0.88325 0.00184 0.94859 0.0
C1436 C 0.80267 0.09234 0.97915 0.0
C1437 C 0.78243 0.10221 0.96289 0.0
C1438 C 0.8146 0.0683 0.97306 0.0
C1439 C 0.80711 0.05357 0.95018 0.0
C1440 C 0.78724 0.06374 0.9335 0.0
C1441 C 0.77491 0.08776 0.93987 0.0
C1442 C 0.81955 0.98264 0.92538 0.0
C1443 C 0.84761 0.98068 0.93107 0.0
C1444 C 0.80617 0.00611 0.93172 0.0
C1445 C 0.8206 0.02812 0.94381 0.0
C1446 C 0.84844 0.02574 0.94994 0.0
C1447 C 0.86162 0.00238 0.94393 0.0
H1448 H 0.78953 0.69921 0.94933 0.0
H1449 H 0.81407 0.72996 0.02601 0.0
H1450 H 0.80614 0.74105 0.92932 0.0
H1451 H 0.83105 0.77211 0.00582 0.0
H1452 H 0.81564 0.85275 0.95874 0.0
H1453 H 0.80979 0.81088 0.98385 0.0
H1454 H 0.84788 0.76826 0.91975 0.0
H1455 H 0.85294 0.8096 0.89482 0.0
C1456 C 0.79904 0.71472 0.96184 0.0
C1457 C 0.80057 0.71122 0.98921 0.0
C1458 C 0.80863 0.73874 0.95038 0.0
C1459 C 0.81995 0.75997 0.96599 0.0
C1460 C 0.82227 0.75622 0.99331 0.0
C1461 C 0.81281 0.732 0.0048 0.0
C1462 C 0.82326 0.83447 0.95048 0.0
C1463 C 0.83444 0.83413 0.92487 0.0
C1464 C 0.82 0.81054 0.96477 0.0
C1465 C 0.8279 0.78613 0.95353 0.0
C1466 C 0.84101 0.78653 0.92871 0.0
C1467 C 0.84407 0.81021 0.91452 0.0
H1468 H 0.30374 0.82787 -0.00135 0.0
H1469 H 0.31479 0.86438 0.0757 0.0
H1470 H 0.32435 0.78729 0.01423 0.0
H1471 H 0.33616 0.82423 0.09093 0.0
H1472 H 0.38426 0.75584 0.11064 0.0
H1473 H 0.37872 0.79306 0.08055 0.0
H1474 H 0.3025 0.755 0.05309 0.0
H1475 H 0.30776 0.71819 0.08374 0.0
C1476 C 0.31137 0.82754 0.01865 0.0
C1477 C 0.30767 0.84925 0.03603 0.0
C1478 C 0.32307 0.80431 0.02752 0.0
C1479 C 0.332 0.80273 0.05368 0.0
C1480 C 0.32981 0.82508 0.07054 0.0
C1481 C 0.31748 0.848 0.0619 0.0
C1482 C 0.3672 0.75469 0.09702 0.0
C1483 C 0.34661 0.73404 0.09916 0.0
C1484 C 0.36387 0.77613 0.08006 0.0
C1485 C 0.34004 0.77701 0.06478 0.0
C1486 C 0.32116 0.75471 0.06453 0.0
C1487 C 0.32427 0.7335 0.08187 0.0
H1488 H 0.95956 0.57825 0.72767 0.0
H1489 H 0.92128 0.56237 0.80354 0.0
H1490 H 0.00394 0.58771 0.74927 0.0
H1491 H 0.96513 0.5723 0.82503 0.0
H1492 H 0.04587 0.55787 0.85598 0.0
H1493 H 0.00712 0.54822 0.82701 0.0
H1494 H 0.0314 0.61752 0.78043 0.0
H1495 H 0.07153 0.62626 0.80894 0.0
C1496 C 0.96047 0.57743 0.74899 0.0
C1497 C 0.93696 0.56939 0.76392 0.0
C1498 C 0.98592 0.58273 0.76132 0.0
C1499 C 0.98825 0.58004 0.78879 0.0
C1500 C 0.96428 0.57372 0.80374 0.0
C1501 C 0.93901 0.56835 0.79147 0.0
C1502 C 0.04349 0.57061 0.83908 0.0
C1503 C 0.06109 0.59348 0.83532 0.0
C1504 C 0.02102 0.56531 0.82268 0.0
C1505 C 0.01537 0.58287 0.80222 0.0
C1506 C 0.03484 0.60392 0.7964 0.0
C1507 C 0.05778 0.60899 0.81273 0.0
H1508 H 0.18732 0.19842 0.58131 0.0
H1509 H 0.19487 0.22041 0.49929 0.0
H1510 H 0.16813 0.24144 0.59156 0.0
H1511 H 0.17586 0.26362 0.50962 0.0
H1512 H 0.20094 0.34463 0.55889 0.0
H1513 H 0.19953 0.30141 0.53599 0.0
H1514 H 0.13075 0.27406 0.58493 0.0
H1515 H 0.13219 0.31752 0.60766 0.0
C1516 C 0.18414 0.21211 0.56535 0.0
C1517 C 0.19284 0.20609 0.53956 0.0
C1518 C 0.17298 0.23675 0.57118 0.0
C1519 C 0.17059 0.25602 0.5514 0.0
C1520 C 0.17755 0.24923 0.52528 0.0
C1521 C 0.18836 0.22444 0.51938 0.0
C1522 C 0.18447 0.32995 0.56358 0.0
C1523 C 0.16639 0.33453 0.58467 0.0
C1524 C 0.18373 0.30507 0.55061 0.0
C1525 C 0.16529 0.28415 0.55896 0.0
C1526 C 0.14532 0.28972 0.57821 0.0
C1527 C 0.14585 0.31476 0.59093 0.0
H1528 H 0.03494 0.97905 0.73889 0.0
H1529 H 0.04715 0.0213 0.81302 0.0
H1530 H 0.98782 0.96555 0.75243 0.0
H1531 H 0.00046 0.00764 0.82661 0.0
H1532 H 0.91396 -0.00064 0.84276 0.0
H1533 H 0.95288 0.01636 0.81603 0.0
H1534 H 0.96308 0.93661 0.78508 0.0
H1535 H 0.92354 0.92004 0.81128 0.0
C1536 C 0.02767 0.98519 0.75819 0.0
C1537 C 0.04481 0.00117 0.77495 0.0
C1538 C 0.00064 0.97758 0.76585 0.0
C1539 C 0.99014 0.98599 0.79034 0.0
C1540 C 0.00757 0.00146 0.80727 0.0
C1541 C 0.03454 0.00894 0.79968 0.0
C1542 C 0.92337 0.98587 0.82888 0.0
C1543 C 0.91579 0.9584 0.82904 0.0
C1544 C 0.94612 -0.00457 0.81406 0.0
C1545 C 0.96174 0.97763 0.79926 0.0
C1546 C 0.95167 0.95085 0.79644 0.0
C1547 C 0.92874 0.94135 0.81119 0.0
H1548 H 0.68134 0.33079 0.51095 0.0
H1549 H 0.72578 0.34149 0.43725 0.0
H1550 H 0.66427 0.28603 0.49614 0.0
H1551 H 0.709 0.29703 0.42273 0.0
H1552 H 0.7052 0.20853 0.41656 0.0
H1553 H 0.71895 0.2503 0.43925 0.0
H1554 H 0.6339 0.26302 0.45799 0.0
H1555 H 0.62008 0.22113 0.43477 0.0
C1556 C 0.68718 0.32374 0.4915 0.0
C1557 C 0.70499 0.33964 0.47528 0.0
C1558 C 0.67744 0.29815 0.48309 0.0
C1559 C 0.68572 0.2879 0.45851 0.0
C1560 C 0.70271 0.30421 0.442 0.0
C1561 C 0.71212 0.32979 0.45022 0.0
C1562 C 0.68952 0.21976 0.42633 0.0
C1563 C 0.66161 0.21148 0.42414 0.0
C1564 C 0.69735 0.2438 0.43906 0.0
C1565 C 0.67745 0.26016 0.44987 0.0
C1566 C 0.64966 0.25077 0.44981 0.0
C1567 C 0.64177 0.22662 0.43687 0.0
H1568 H 0.93097 0.44904 0.73537 0.0
H1569 H 0.95032 0.50511 0.67279 0.0
H1570 H 0.97528 0.42863 0.72769 0.0
H1571 H 0.99424 0.4852 0.66552 0.0
H1572 H 0.07669 0.46368 0.66359 0.0
H1573 H 0.0394 0.4808 0.69029 0.0
H1574 H -0.00285 0.40271 0.68822 0.0
H1575 H 0.03463 0.3857 0.66164 0.0
C1576 C 0.94459 0.4569 0.71995 0.0
C1577 C 0.93707 0.47855 0.70454 0.0
C1578 C 0.96998 0.44538 0.71573 0.0
C1579 C 0.9885 0.45574 0.69647 0.0
C1580 C 0.98076 0.47722 0.68101 0.0
C1581 C 0.95536 0.48836 0.68489 0.0
C1582 C 0.06047 0.44971 0.67051 0.0
C1583 C 0.05841 0.42346 0.66042 0.0
C1584 C 0.0388 0.45964 0.68534 0.0
C1585 C 0.01494 0.4433 0.69047 0.0
C1586 C 0.01516 0.41583 0.68439 0.0
C1587 C 0.03686 0.40597 0.66946 0.0
H1588 H 0.54772 0.59446 0.2596 0.0
H1589 H 0.57753 0.59621 0.17906 0.0
H1590 H 0.50715 0.61795 0.24647 0.0
H1591 H 0.53755 0.6203 0.16617 0.0
H1592 H 0.47031 0.66913 0.14699 0.0
H1593 H 0.51048 0.66431 0.1748 0.0
H1594 H 0.46856 0.59712 0.21348 0.0
H1595 H 0.42869 0.60167 0.18522 0.0
C1596 C 0.54605 0.60065 0.23929 0.0
C1597 C 0.56566 0.59344 0.22027 0.0
C1598 C 0.52285 0.61404 0.23184 0.0
C1599 C 0.51933 0.62105 0.20539 0.0
C1600 C 0.53995 0.61548 0.18678 0.0
C1601 C 0.56275 0.60155 0.19409 0.0
C1602 C 0.46912 0.65439 0.16254 0.0
C1603 C 0.44643 0.63593 0.16427 0.0
C1604 C 0.49218 0.65147 0.17825 0.0
C1605 C 0.4927 0.63014 0.19599 0.0
C1606 C 0.46861 0.61385 0.20008 0.0
C1607 C 0.44569 0.61654 0.18406 0.0
H1608 H 0.5681 0.7606 0.82391 0.0
H1609 H 0.48616 0.74507 0.79344 0.0
H1610 H 0.58749 0.74466 0.78261 0.0
H1611 H 0.5057 0.72945 0.75162 0.0
H1612 H 0.5598 0.67704 0.69321 0.0
H1613 H 0.53306 0.69384 0.73068 0.0
H1614 H 0.59125 0.76185 0.73794 0.0
H1615 H 0.6182 0.74447 0.70149 0.0
C1616 C 0.55421 0.75356 0.80845 0.0
C1617 C 0.52563 0.7542 0.81191 0.0
C1618 C 0.56531 0.7447 0.78462 0.0
C1619 C 0.54813 0.7364 0.76356 0.0
C1620 C 0.51947 0.73583 0.76741 0.0
C1621 C 0.50831 0.74471 0.79137 0.0
C1622 C 0.5662 0.69602 0.70233 0.0
C1623 C 0.59108 0.70941 0.69473 0.0
C1624 C 0.55104 0.70558 0.72385 0.0
C1625 C 0.56057 0.72872 0.73781 0.0
C1626 C 0.58386 0.7435 0.72818 0.0
C1627 C 0.59906 0.73382 0.70703 0.0
H1628 H 0.52216 0.35795 0.08734 0.0
H1629 H 0.55932 0.28274 0.07199 0.0
H1630 H 0.53687 0.37363 0.04389 0.0
H1631 H 0.57361 0.29826 0.02808 0.0
H1632 H 0.53533 0.3838 0.95721 0.0
H1633 H 0.52271 0.36287 -0.00089 0.0
H1634 H 0.60334 0.33102 0.00331 0.0
H1635 H 0.61575 0.35192 0.96111 0.0
C1636 C 0.53377 0.34489 0.07479 0.0
C1637 C 0.53947 0.31909 0.08305 0.0
C1638 C 0.54191 0.35372 0.04974 0.0
C1639 C 0.55582 0.33693 0.03226 0.0
C1640 C 0.56285 0.31164 0.04104 0.0
C1641 C 0.55473 0.30279 0.06621 0.0
C1642 C 0.55007 0.37172 0.96677 0.0
C1643 C 0.57643 0.36927 0.95584 0.0
C1644 C 0.54301 0.36002 0.99092 0.0
C1645 C 0.56227 0.34586 0.00488 0.0
C1646 C 0.58803 0.3418 0.99306 0.0
C1647 C 0.59506 0.35348 0.96873 0.0
H1648 H 0.01064 0.35423 0.2931 0.0
H1649 H 0.92765 0.35678 0.32349 0.0
H1650 H -0.00399 0.37294 0.25129 0.0
H1651 H 0.9132 0.37585 0.28214 0.0
H1652 H 0.88987 0.41315 0.20983 0.0
H1653 H 0.91846 0.41427 0.24932 0.0
H1654 H 0.96339 0.34893 0.21753 0.0
H1655 H 0.93455 0.34775 0.17829 0.0
C1656 C 0.98952 0.35967 0.2912 0.0
C1657 C 0.97022 0.35394 0.31149 0.0
C1658 C 0.98115 0.37026 0.26723 0.0
C1659 C 0.95348 0.37586 0.26341 0.0
C1660 C 0.93474 0.37208 0.28454 0.0
C1661 C 0.94296 0.36102 0.30822 0.0
C1662 C 0.90691 0.4001 0.21068 0.0
C1663 C 0.91037 0.38063 0.19092 0.0
C1664 C 0.92305 0.40052 0.2334 0.0
C1665 C 0.9429 0.38145 0.23669 0.0
C1666 C 0.94843 0.36403 0.21551 0.0
C1667 C 0.93205 0.36342 0.19293 0.0
H1668 H 0.98244 0.7119 0.57521 0.0
H1669 H 0.93864 0.7838 0.56444 0.0
H1670 H 0.96796 0.69583 0.53176 0.0
H1671 H 0.92445 0.76784 0.52054 0.0
H1672 H 0.88316 0.71022 0.45524 0.0
H1673 H 0.89606 0.73258 0.49689 0.0
H1674 H 0.97925 0.70796 0.48637 0.0
H1675 H 0.96619 0.68561 0.44502 0.0
C1676 C 0.9695 0.72418 0.56365 0.0
C1677 C 0.96175 0.74914 0.57323 0.0
C1678 C 0.96146 0.71512 0.53859 0.0
C1679 C 0.94555 0.73084 0.52244 0.0
C1680 C 0.93676 0.75531 0.53247 0.0
C1681 C 0.94484 0.7644 0.55762 0.0
C1682 C 0.90444 0.7107 0.4613 0.0
C1683 C 0.92377 0.69651 0.44682 0.0
C1684 C 0.91177 0.72318 0.48532 0.0
C1685 C 0.93853 0.72149 0.49523 0.0
C1686 C 0.95829 0.70901 0.47963 0.0
C1687 C 0.95094 0.69652 0.45579 0.0
H1688 H 0.50452 0.34502 0.69829 0.0
H1689 H 0.57988 0.30479 0.68512 0.0
H1690 H 0.51903 0.35655 0.74335 0.0
H1691 H 0.59441 0.3165 0.72978 0.0
H1692 H 0.57574 0.39172 0.81349 0.0
H1693 H 0.5547 0.3828 0.77038 0.0
H1694 H 0.57837 0.30088 0.77361 0.0
H1695 H 0.59932 0.30988 0.81649 0.0
C1696 C 0.52444 0.33919 0.70479 0.0
C1697 C 0.54101 0.32387 0.68821 0.0
C1698 C 0.53266 0.34569 0.73062 0.0
C1699 C 0.55752 0.33685 0.74031 0.0
C1700 C 0.57476 0.32294 0.72314 0.0
C1701 C 0.56661 0.31652 0.69742 0.0
C1702 C 0.57529 0.37154 0.80551 0.0
C1703 C 0.58899 0.35145 0.81839 0.0
C1704 C 0.56358 0.36651 0.78065 0.0
C1705 C 0.56555 0.34134 0.76831 0.0
C1706 C 0.5772 0.3207 0.78229 0.0
C1707 C 0.58888 0.32573 0.80699 0.0
H1708 H 0.99387 0.35303 0.94032 0.0
H1709 H 0.95666 0.27588 0.96181 0.0
H1710 H 0.97959 0.37158 0.98256 0.0
H1711 H 0.94286 0.29431 0.00455 0.0
H1712 H 0.89574 0.3513 0.06258 0.0
H1713 H 0.91201 0.32531 0.02495 0.0
H1714 H 0.99056 0.36982 0.02849 0.0
H1715 H 0.97372 0.39604 0.0656 0.0
C1716 C 0.98253 0.34004 0.95405 0.0
C1717 C 0.97634 0.31302 0.94768 0.0
C1718 C 0.97466 0.35057 0.97847 0.0
C1719 C 0.96051 0.33432 -0.00275 0.0
C1720 C 0.95371 0.3074 0.9906 0.0
C1721 C 0.96156 0.29686 0.96607 0.0
C1722 C 0.91689 0.35444 0.05611 0.0
C1723 C 0.93363 0.37524 0.0672 0.0
C1724 C 0.92617 0.33984 0.03431 0.0
C1725 C 0.9524 0.34591 0.02325 0.0
C1726 C 0.96998 0.36511 0.03603 0.0
C1727 C 0.96058 0.37979 0.0576 0.0
H1728 H -0.00284 0.71663 0.18744 0.0
H1729 H 0.92332 0.76043 0.18222 0.0
H1730 H 0.98457 0.70392 0.23275 0.0
H1731 H 0.91084 0.74773 0.22717 0.0
H1732 H 0.92685 0.66767 0.30344 0.0
H1733 H 0.94768 0.67761 0.26015 0.0
H1734 H 0.931 0.761 0.27094 0.0
H1735 H 0.91025 0.75102 0.31392 0.0
C1736 C 0.978 0.72309 0.19575 0.0
C1737 C 0.96127 0.73964 0.18128 0.0
C1738 C 0.97089 0.7159 0.22172 0.0
C1739 C 0.94709 0.72536 0.23371 0.0
C1740 C 0.9297 0.7407 0.2187 0.0
C1741 C 0.93668 0.74772 0.19281 0.0
C1742 C 0.92891 0.68829 0.29709 0.0
C1743 C 0.91703 0.70861 0.31203 0.0
C1744 C 0.94049 0.69393 0.27215 0.0
C1745 C 0.94021 0.71994 0.26187 0.0
C1746 C 0.93083 0.74063 0.27805 0.0
C1747 C 0.9193 0.73501 0.30281 0.0
H1748 H 0.56642 0.70897 0.43775 0.0
H1749 H 0.57498 0.79093 0.46547 0.0
H1750 H 0.5859 0.69405 0.479 0.0
H1751 H 0.59378 0.77586 0.5071 0.0
H1752 H 0.62882 0.67165 0.55 0.0
H1753 H 0.6297 0.69841 0.50983 0.0
H1754 H 0.56592 0.74584 0.54256 0.0
H1755 H 0.56459 0.71855 0.58232 0.0
C1756 C 0.57307 0.72383 0.45239 0.0
C1757 C 0.56914 0.75108 0.44838 0.0
C1758 C 0.58436 0.71533 0.47596 0.0
C1759 C 0.59141 0.73384 0.49624 0.0
C1760 C 0.58864 0.76122 0.49177 0.0
C1761 C 0.57794 0.76979 0.46792 0.0
C1762 C 0.61622 0.68885 0.54923 0.0
C1763 C 0.59687 0.69331 0.56934 0.0
C1764 C 0.61645 0.7039 0.5261 0.0
C1765 C 0.5976 0.72391 0.52295 0.0
C1766 C 0.58078 0.73063 0.5445 0.0
C1767 C 0.5802 0.71521 0.56741 0.0
H1768 H 0.82679 0.60011 0.68108 0.0
H1769 H 0.79523 0.51817 0.67228 0.0
H1770 H 0.78262 0.61565 0.6665 0.0
H1771 H 0.75072 0.53382 0.65865 0.0
H1772 H 0.67823 0.59198 0.69646 0.0
H1773 H 0.71835 0.56472 0.6922 0.0
H1774 H 0.74595 0.61038 0.62434 0.0
H1775 H 0.70523 0.63693 0.62807 0.0
C1776 C 0.81067 0.58545 0.67539 0.0
C1777 C 0.81451 0.55797 0.67772 0.0
C1778 C 0.78543 0.59432 0.66699 0.0
C1779 C 0.76334 0.57589 0.66139 0.0
C1780 C 0.76749 0.54838 0.66266 0.0
C1781 C 0.793 0.5395 0.67038 0.0
C1782 C 0.69184 0.59489 0.67956 0.0
C1783 C 0.68841 0.61618 0.66232 0.0
C1784 C 0.71498 0.57951 0.67727 0.0
C1785 C 0.73537 0.58573 0.65813 0.0
C1786 C 0.73052 0.60522 0.63925 0.0
C1787 C 0.70703 0.62014 0.64117 0.0
H1788 H 0.76459 0.57628 0.9652 0.0
H1789 H 0.68277 0.58517 -0.00321 0.0
H1790 H 0.75081 0.53079 0.94995 0.0
H1791 H 0.66914 0.54015 0.98164 0.0
H1792 H 0.65453 0.45434 0.97679 0.0
H1793 H 0.68013 0.49391 0.99398 0.0
H1794 H 0.71788 0.50684 0.91736 0.0
H1795 H 0.69258 0.46664 0.90045 0.0
C1796 C 0.74361 0.56866 0.9686 0.0
C1797 C 0.72475 0.58431 0.98221 0.0
C1798 C 0.7358 0.54261 0.95999 0.0
C1799 C 0.7091 0.53167 0.96514 0.0
C1800 C 0.6901 0.54771 0.978 0.0
C1801 C 0.6978 0.57368 0.98639 0.0
C1802 C 0.66946 0.4648 0.96406 0.0
C1803 C 0.67172 0.45747 0.93737 0.0
C1804 C 0.68374 0.48773 0.97373 0.0
C1805 C 0.70031 0.50394 0.95678 0.0
C1806 C 0.70514 0.49483 0.93086 0.0
C1807 C 0.6909 0.47167 0.92121 0.0
H1808 H 0.68471 0.52312 0.17321 0.0
H1809 H 0.66428 0.45226 0.21879 0.0
H1810 H 0.72851 0.50502 0.16024 0.0
H1811 H 0.70742 0.43364 0.20506 0.0
H1812 H 0.79691 0.4517 0.12719 0.0
H1813 H 0.7532 0.47205 0.1364 0.0
H1814 H 0.75422 0.44194 0.21604 0.0
H1815 H 0.79739 0.42127 0.20644 0.0
C1816 C 0.68921 0.5033 0.17979 0.0
C1817 C 0.67113 0.48914 0.19713 0.0
C1818 C 0.71439 0.49295 0.17243 0.0
C1819 C 0.72188 0.46813 0.18211 0.0
C1820 C 0.7028 0.45321 0.19792 0.0
C1821 C 0.67784 0.46368 0.2055 0.0
C1822 C 0.78816 0.45024 0.14686 0.0
C1823 C 0.80064 0.43519 0.16619 0.0
C1824 C 0.76294 0.46163 0.1521 0.0
C1825 C 0.74977 0.45814 0.17681 0.0
C1826 C 0.76322 0.44433 0.19652 0.0
C1827 C 0.78819 0.4328 0.19119 0.0
H1828 H 0.81964 0.47505 0.4823 0.0
H1829 H 0.74019 0.48137 0.44641 0.0
H1830 H 0.83221 0.52105 0.47048 0.0
H1831 H 0.75269 0.52798 0.43482 0.0
H1832 H 0.80864 0.59802 0.39322 0.0
H1833 H 0.78443 0.55613 0.40668 0.0
H1834 H 0.81986 0.56551 0.48428 0.0
H1835 H 0.84493 0.60645 0.4702 0.0
C1836 C 0.80492 0.48623 0.47168 0.0
C1837 C 0.77894 0.47456 0.4653 0.0
C1838 C 0.81195 0.51278 0.46523 0.0
C1839 C 0.79316 0.52849 0.45233 0.0
C1840 C 0.76754 0.5165 0.44492 0.0
C1841 C 0.76047 0.48978 0.45142 0.0
C1842 C 0.81019 0.59168 0.41344 0.0
C1843 C 0.82887 0.60517 0.43055 0.0
C1844 C 0.7965 0.56757 0.42116 0.0
C1845 C 0.80112 0.55695 0.44624 0.0
C1846 C 0.81665 0.57266 0.4645 0.0
C1847 C 0.83056 0.59642 0.45666 0.0
H1848 H 0.78806 0.47985 0.7297 0.0
H1849 H 0.81303 0.51182 0.8057 0.0
H1850 H 0.74414 0.46388 0.74833 0.0
H1851 H 0.76953 0.49406 0.82514 0.0
H1852 H 0.68459 0.4653 0.85339 0.0
H1853 H 0.72016 0.49311 0.83008 0.0
H1854 H 0.73081 0.42806 0.77449 0.0
H1855 H 0.6954 0.40139 0.79698 0.0
C1856 C 0.78422 0.48311 0.75057 0.0
C1857 C 0.80415 0.49642 0.76644 0.0
C1858 C 0.759 0.47398 0.7613 0.0
C1859 C 0.75336 0.47711 0.78843 0.0
C1860 C 0.77299 0.49141 0.80416 0.0
C1861 C 0.79806 0.50126 0.79316 0.0
C1862 C 0.69406 0.45751 0.83569 0.0
C1863 C 0.68754 0.43116 0.82712 0.0
C1864 C 0.71465 0.47323 0.82252 0.0
C1865 C 0.72869 0.46281 0.80049 0.0
C1866 C 0.72042 0.43712 0.79105 0.0
C1867 C 0.70011 0.42164 0.80408 0.0
H1868 H 0.81977 0.608 0.08089 0.0
H1869 H 0.73741 0.57207 0.07453 0.0
H1870 H 0.83603 0.56525 0.09559 0.0
H1871 H 0.75392 0.52904 0.08849 0.0
H1872 H 0.85859 0.48885 0.12997 0.0
H1873 H 0.82933 0.52718 0.13243 0.0
H1874 H 0.7899 0.50082 0.06012 0.0
H1875 H 0.81981 0.46307 0.05729 0.0
C1876 C 0.80502 0.59117 0.08333 0.0
C1877 C 0.77735 0.59341 0.07659 0.0
C1878 C 0.81429 0.56671 0.09183 0.0
C1879 C 0.7962 0.54384 0.09318 0.0
C1880 C 0.76824 0.54638 0.08772 0.0
C1881 C 0.75883 0.57104 0.07984 0.0
C1882 C 0.84259 0.49046 0.11543 0.0
C1883 C 0.84107 0.47282 0.09366 0.0
C1884 C 0.8261 0.51255 0.11668 0.0
C1885 C 0.80755 0.51707 0.09635 0.0
C1886 C 0.80386 0.4977 0.07617 0.0
C1887 C 0.82079 0.47595 0.07464 0.0
H1888 H 0.70782 0.57198 0.23385 0.0
H1889 H 0.68399 0.55623 0.31471 0.0
H1890 H 0.75386 0.58631 0.24783 0.0
H1891 H 0.73006 0.57215 0.32914 0.0
H1892 H 0.81848 0.59554 0.34851 0.0
H1893 H 0.77988 0.56758 0.33041 0.0
H1894 H 0.77135 0.62543 0.26861 0.0
H1895 H 0.80936 0.65258 0.28644 0.0
C1896 C 0.71241 0.57185 0.25473 0.0
C1897 C 0.69215 0.56366 0.27329 0.0
C1898 C 0.73886 0.58001 0.26276 0.0
C1899 C 0.74565 0.58085 0.28967 0.0
C1900 C 0.72566 0.57157 0.30823 0.0
C1901 C 0.69918 0.56281 0.30006 0.0
C1902 C 0.80872 0.60169 0.33067 0.0
C1903 C 0.81643 0.62645 0.31922 0.0
C1904 C 0.78648 0.58588 0.32043 0.0
C1905 C 0.77211 0.59444 0.2983 0.0
C1906 C 0.78185 0.61795 0.28553 0.0
C1907 C 0.80371 0.63366 0.29581 0.0
H1908 H 0.74251 0.47377 0.57542 0.0
H1909 H 0.67087 0.45581 0.52746 0.0
H1910 H 0.7217 0.51421 0.59238 0.0
H1911 H 0.65071 0.4962 0.54342 0.0
H1912 H 0.60825 0.55547 0.59169 0.0
H1913 H 0.63064 0.51468 0.58134 0.0
H1914 H 0.70942 0.55887 0.57838 0.0
H1915 H 0.68663 0.60025 0.58979 0.0
C1916 C 0.7222 0.47827 0.56878 0.0
C1917 C 0.7082 0.46148 0.55029 0.0
C1918 C 0.71045 0.50159 0.57821 0.0
C1919 C 0.68451 0.50851 0.56931 0.0
C1920 C 0.67046 0.49134 0.55117 0.0
C1921 C 0.68206 0.46811 0.54192 0.0
C1922 C 0.63036 0.55667 0.58869 0.0
C1923 C 0.64562 0.58124 0.59101 0.0
C1924 C 0.64323 0.53317 0.58274 0.0
C1925 C 0.67178 0.53348 0.57845 0.0
C1926 C 0.68736 0.55791 0.58161 0.0
C1927 C 0.67437 0.58162 0.58799 0.0
H1928 H 0.74579 0.85497 0.5852 0.0
H1929 H 0.7014 0.8347 0.51375 0.0
H1930 H 0.72952 0.81239 0.60428 0.0
H1931 H 0.68597 0.79169 0.53233 0.0
H1932 H 0.72183 0.72509 0.62248 0.0
H1933 H 0.73718 0.76619 0.60016 0.0
H1934 H 0.65721 0.76944 0.56428 0.0
H1935 H 0.6423 0.72788 0.58618 0.0
C1936 C 0.73243 0.84146 0.57364 0.0
C1937 C 0.72486 0.84822 0.54802 0.0
C1938 C 0.72336 0.81687 0.58441 0.0
C1939 C 0.70676 0.79829 0.56971 0.0
C1940 C 0.69856 0.80547 0.54433 0.0
C1941 C 0.70743 0.83017 0.53366 0.0
C1942 C 0.70776 0.73432 0.60936 0.0
C1943 C 0.68092 0.72316 0.60589 0.0
C1944 C 0.71641 0.75809 0.59683 0.0
C1945 C 0.69828 0.77155 0.58082 0.0
C1946 C 0.67183 0.75962 0.57632 0.0
C1947 C 0.66329 0.73563 0.58869 0.0
H1948 H 0.23029 0.72769 0.4348 0.0
H1949 H 0.16029 0.71986 0.48782 0.0
H1950 H 0.21647 0.77159 0.42184 0.0
H1951 H 0.14628 0.7642 0.47456 0.0
H1952 H 0.12237 0.82557 0.40444 0.0
H1953 H 0.13028 0.7869 0.43195 0.0
H1954 H 0.21404 0.817 0.44413 0.0
H1955 H 0.2061 0.85528 0.41633 0.0
C1956 C 0.21176 0.73522 0.44349 0.0
C1957 C 0.19638 0.72027 0.4623 0.0
C1958 C 0.20406 0.76057 0.43637 0.0
C1959 C 0.18069 0.77162 0.44773 0.0
C1960 C 0.16456 0.75628 0.46574 0.0
C1961 C 0.17247 0.73087 0.47314 0.0
C1962 C 0.14188 0.82475 0.41443 0.0
C1963 C 0.16363 0.84337 0.40845 0.0
C1964 C 0.14652 0.80244 0.42993 0.0
C1965 C 0.17303 0.79857 0.43943 0.0
C1966 C 0.19356 0.81924 0.43654 0.0
C1967 C 0.18891 0.84142 0.42106 0.0
H1968 H 0.57358 0.03709 0.69268 0.0
H1969 H 0.55494 0.98199 0.75619 0.0
H1970 H 0.53312 0.0198 0.66928 0.0
H1971 H 0.51451 0.96376 0.73212 0.0
H1972 H 0.4288 0.9572 0.69109 0.0
H1973 H 0.46864 0.97351 0.71712 0.0
H1974 H 0.51706 0.9817 0.64542 0.0
H1975 H 0.47768 0.96615 0.6198 0.0
C1976 C 0.56103 0.02094 0.70149 0.0
C1977 C 0.56768 0.01077 0.72621 0.0
C1978 C 0.53777 0.01091 0.68799 0.0
C1979 C 0.52051 0.99015 0.69862 0.0
C1980 C 0.52714 0.97989 0.72341 0.0
C1981 C 0.55047 0.99013 0.73708 0.0
C1982 C 0.44799 0.96247 0.681 0.0
C1983 C 0.44984 0.96054 0.65332 0.0
C1984 C 0.47089 0.97174 0.6959 0.0
C1985 C 0.49612 0.97924 0.68341 0.0
C1986 C 0.4979 0.97683 0.65579 0.0
C1987 C 0.47516 0.9678 0.64102 0.0
H1988 H 0.3213 0.36053 0.93694 0.0
H1989 H 0.31472 0.33252 0.01714 0.0
H1990 H 0.33861 0.31749 0.92297 0.0
H1991 H 0.33117 0.2891 0.00293 0.0
H1992 H 0.30258 0.21475 0.94113 0.0
H1993 H 0.30333 0.25504 0.96895 0.0
H1994 H 0.37927 0.28338 0.93161 0.0
H1995 H 0.37893 0.24252 0.90446 0.0
C1996 C 0.32418 0.34541 0.95166 0.0
C1997 C 0.31669 0.34992 0.97811 0.0
C1998 C 0.3342 0.32082 0.94371 0.0
C1999 C 0.33632 0.3 0.96191 0.0
C2000 C 0.32991 0.30486 0.98856 0.0
C2001 C 0.32057 0.32973 -0.00335 0.0
C2002 C 0.32039 0.22868 0.94022 0.0
C2003 C 0.34089 0.22537 0.92096 0.0
C2004 C 0.32069 0.25193 0.95593 0.0
C2005 C 0.34114 0.2725 0.9521 0.0
C2006 C 0.36323 0.26786 0.93487 0.0
C2007 C 0.36324 0.2443 0.91962 0.0
H2008 H 0.43714 0.59155 0.75503 0.0
H2009 H 0.45058 0.51233 0.72455 0.0
H2010 H 0.4806 0.60824 0.73477 0.0
H2011 H 0.4944 0.52835 0.70578 0.0
H2012 H 0.54345 0.57379 0.64176 0.0
H2013 H 0.50748 0.55384 0.66942 0.0
H2014 H 0.53043 0.60949 0.73243 0.0
H2015 H 0.56661 0.63013 0.70373 0.0
C2016 C 0.4495 0.57771 0.74417 0.0
C2017 C 0.44016 0.55083 0.74073 0.0
C2018 C 0.47459 0.58715 0.73287 0.0
C2019 C 0.491 0.56974 0.71835 0.0
C2020 C 0.48207 0.54256 0.71616 0.0
C2021 C 0.45687 0.53333 0.7269 0.0
C2022 C 0.54132 0.58133 0.66178 0.0
C2023 C 0.55764 0.60359 0.67056 0.0
C2024 C 0.52067 0.56981 0.67779 0.0
C2025 C 0.51575 0.5801 0.70322 0.0
C2026 C 0.53336 0.60133 0.71278 0.0
C2027 C 0.5543 0.61293 0.69656 0.0
H2028 H 0.78626 0.20902 0.06272 0.0
H2029 H 0.77264 0.24519 0.98729 0.0
H2030 H 0.80787 0.25122 0.07876 0.0
H2031 H 0.79394 0.28779 0.00366 0.0
H2032 H 0.79819 0.36116 0.07086 0.0
H2033 H 0.78124 0.32247 0.04386 0.0
H2034 H 0.85242 0.27992 0.06521 0.0
H2035 H 0.86899 0.31804 0.09199 0.0
C2036 C 0.78805 0.22595 0.04953 0.0
C2037 C 0.77799 0.22377 0.02373 0.0
C2038 C 0.80044 0.25008 0.05867 0.0
C2039 C 0.80264 0.27268 0.04236 0.0
C2040 C 0.79247 0.27063 0.01657 0.0
C2041 C 0.7805 0.24626 0.00722 0.0
C2042 C 0.81069 0.34398 0.0687 0.0
C2043 C 0.83497 0.34256 0.08319 0.0
C2044 C 0.80097 0.32183 0.05346 0.0
C2045 C 0.81539 0.29814 0.05287 0.0
C2046 C 0.8408 0.2978 0.06558 0.0
C2047 C 0.85038 0.31971 0.08067 0.0
H2048 H 0.55813 0.11117 0.75595 0.0
H2049 H 0.58011 0.10105 0.83739 0.0
H2050 H 0.5152 0.13092 0.77019 0.0
H2051 H 0.53786 0.1215 0.85153 0.0
H2052 H 0.46761 0.16735 0.87358 0.0
H2053 H 0.51064 0.16619 0.84834 0.0
H2054 H 0.47367 0.10515 0.79715 0.0
H2055 H 0.43089 0.10592 0.82288 0.0
C2056 C 0.55421 0.11397 0.77686 0.0
C2057 C 0.57242 0.10457 0.79561 0.0
C2058 C 0.52964 0.12518 0.78495 0.0
C2059 C 0.5233 0.1279 0.81193 0.0
C2060 C 0.54239 0.12002 0.8306 0.0
C2061 C 0.56651 0.10819 0.82254 0.0
C2062 C 0.46818 0.1549 0.85595 0.0
C2063 C 0.44589 0.13695 0.84994 0.0
C2064 C 0.49291 0.15399 0.84172 0.0
C2065 C 0.49558 0.13532 0.82105 0.0
C2066 C 0.47214 0.11985 0.8129 0.0
C2067 C 0.44754 0.12044 0.82746 0.0
H2068 H 0.94498 0.96644 0.25796 0.0
H2069 H 0.92272 0.9672 0.34069 0.0
H2070 H 0.98752 0.94493 0.26836 0.0
H2071 H 0.9648 0.9451 0.35092 0.0
H2072 H 0.03684 0.90197 0.36652 0.0
H2073 H 0.99395 0.90239 0.34179 0.0
H2074 H 0.02747 0.96954 0.29683 0.0
H2075 H 0.06994 0.96946 0.32207 0.0
C2076 C 0.94875 0.96122 0.27825 0.0
C2077 C 0.93073 0.96869 0.29861 0.0
C2078 C 0.97305 0.94891 0.28412 0.0
C2079 C 0.97932 0.94326 0.31036 0.0
C2080 C 0.96025 0.94888 0.33045 0.0
C2081 C 0.93628 0.96172 0.32466 0.0
C2082 C 0.03558 0.91572 0.35024 0.0
C2083 C 0.05656 0.93559 0.34595 0.0
C2084 C 0.01099 0.91612 0.3363 0.0
C2085 C 0.00734 0.93623 0.31773 0.0
C2086 C 0.02982 0.95372 0.31094 0.0
C2087 C 0.05421 0.95361 0.32524 0.0
H2088 H 0.50551 0.33987 0.22132 0.0
H2089 H 0.42188 0.31384 0.20242 0.0
H2090 H 0.49119 0.34964 0.26678 0.0
H2091 H 0.40762 0.32389 0.24742 0.0
H2092 H 0.39207 0.3118 0.33101 0.0
H2093 H 0.41578 0.30226 0.28983 0.0
H2094 H 0.46178 0.37838 0.29567 0.0
H2095 H 0.43874 0.38733 0.33795 0.0
C2096 C 0.48398 0.33681 0.2267 0.0
C2097 C 0.46481 0.32592 0.20833 0.0
C2098 C 0.47585 0.34229 0.25276 0.0
C2099 C 0.44845 0.33685 0.26088 0.0
C2100 C 0.42908 0.32753 0.24201 0.0
C2101 C 0.43716 0.32209 0.21609 0.0
C2102 C 0.40798 0.32609 0.32404 0.0
C2103 C 0.41288 0.35075 0.33717 0.0
C2104 C 0.42127 0.32081 0.30022 0.0
C2105 C 0.43965 0.34014 0.28888 0.0
C2106 C 0.44728 0.36332 0.30367 0.0
C2107 C 0.43414 0.36845 0.32787 0.0
H2108 H 0.42861 0.79066 0.94463 0.0
H2109 H 0.47416 0.7208 0.92704 0.0
H2110 H 0.41758 0.77324 0.98866 0.0
H2111 H 0.46256 0.70304 0.97046 0.0
H2112 H 0.46793 0.69108 0.05672 0.0
H2113 H 0.47658 0.71299 0.01454 0.0
H2114 H 0.39329 0.73897 0.01498 0.0
H2115 H 0.38499 0.71732 0.05759 0.0
C2116 C 0.43564 0.77126 0.94991 0.0
C2117 C 0.45236 0.75714 0.93242 0.0
C2118 C 0.42942 0.76132 0.9752 0.0
C2119 C 0.43975 0.73703 0.98342 0.0
C2120 C 0.455 0.72223 0.96519 0.0
C2121 C 0.46136 0.73222 0.94011 0.0
C2122 C 0.45173 0.70209 0.04811 0.0
C2123 C 0.42591 0.70278 0.06058 0.0
C2124 C 0.45651 0.71433 0.02374 0.0
C2125 C 0.43541 0.72719 0.01095 0.0
C2126 C 0.41004 0.72931 0.02422 0.0
C2127 C 0.40534 0.71718 0.04881 0.0
H2128 H 0.07572 0.76503 0.69913 0.0
H2129 H -0.00342 0.72261 0.70775 0.0
H2130 H 0.08819 0.75125 0.74308 0.0
H2131 H 0.0085 0.70968 0.75235 0.0
H2132 H 0.0575 0.66808 0.81889 0.0
H2133 H 0.0361 0.68289 0.77855 0.0
H2134 H 0.07878 0.76052 0.78766 0.0
H2135 H 0.10164 0.74467 0.82651 0.0
C2136 C 0.06104 0.75264 0.71041 0.0
C2137 C 0.03526 0.74483 0.69993 0.0
C2138 C 0.06795 0.74507 0.73585 0.0
C2139 C 0.04908 0.72987 0.7517 0.0
C2140 C 0.02356 0.72136 0.74083 0.0
C2141 C 0.01677 0.72869 0.71519 0.0
C2142 C 0.0616 0.68848 0.81259 0.0
C2143 C 0.08171 0.70496 0.8253 0.0
C2144 C 0.0494 0.69706 0.78941 0.0
C2145 C 0.05668 0.72257 0.77909 0.0
C2146 C 0.07366 0.74032 0.79427 0.0
C2147 C 0.08628 0.7315 0.81694 0.0
H2148 H 0.06409 0.34364 0.41971 0.0
H2149 H 0.03272 0.26473 0.4426 0.0
H2150 H 0.08434 0.35043 0.46351 0.0
H2151 H 0.05229 0.27192 0.48651 0.0
H2152 H 0.12773 0.3501 0.5418 0.0
H2153 H 0.11973 0.32904 0.49844 0.0
H2154 H 0.03502 0.31029 0.52031 0.0
H2155 H 0.04282 0.33201 0.56326 0.0
C2156 C 0.06211 0.32754 0.43385 0.0
C2157 C 0.04677 0.30372 0.42776 0.0
C2158 C 0.07378 0.33136 0.45883 0.0
C2159 C 0.06984 0.31165 0.47829 0.0
C2160 C 0.05569 0.28733 0.47179 0.0
C2161 C 0.04456 0.28327 0.44665 0.0
C2162 C 0.10778 0.34035 0.53777 0.0
C2163 C 0.08591 0.34245 0.55587 0.0
C2164 C 0.10315 0.32861 0.51289 0.0
C2165 C 0.07675 0.31825 0.50607 0.0
C2166 C 0.05561 0.31798 0.52518 0.0
C2167 C 0.06006 0.3303 0.54976 0.0
H2168 H 0.43814 0.75612 0.33555 0.0
H2169 H 0.51258 0.71613 0.31731 0.0
H2170 H 0.42199 0.74734 0.29082 0.0
H2171 H 0.49629 0.70732 0.27223 0.0
H2172 H 0.414 0.75834 0.20435 0.0
H2173 H 0.4365 0.76496 0.24688 0.0
H2174 H 0.45873 0.68251 0.24545 0.0
H2175 H 0.4358 0.6759 0.20296 0.0
C2176 C 0.45087 0.74503 0.32214 0.0
C2177 C 0.47667 0.73687 0.33006 0.0
C2178 C 0.44177 0.7403 0.29635 0.0
C2179 C 0.45814 0.72717 0.27775 0.0
C2180 C 0.48326 0.71761 0.28604 0.0
C2181 C 0.49251 0.72254 0.3119 0.0
C2182 C 0.42444 0.74186 0.21271 0.0
C2183 C 0.42343 0.71667 0.20006 0.0
C2184 C 0.43703 0.74553 0.23724 0.0
C2185 C 0.44887 0.72409 0.24985 0.0
C2186 C 0.44983 0.69945 0.23627 0.0
C2187 C 0.43708 0.69575 0.21167 0.0
H2188 H 0.07179 0.76844 0.05635 0.0
H2189 H -0.00088 0.7151 0.05179 0.0
H2190 H 0.08873 0.74957 0.01456 0.0
H2191 H 0.01576 0.69673 0.01037 0.0
H2192 H 0.03441 0.68409 0.92718 0.0
H2193 H 0.02393 0.71422 0.96378 0.0
H2194 H 0.10363 0.70268 -0.0029 0.0
H2195 H 0.114 0.67249 0.96028 0.0
C2196 C 0.05956 0.75262 0.04655 0.0
C2197 C 0.03414 0.74322 0.0574 0.0
C2198 C 0.06919 0.74194 0.02263 0.0
C2199 C 0.0533 0.72208 0.00895 0.0
C2200 C 0.02818 0.71245 0.02012 0.0
C2201 C 0.01879 0.72278 0.04406 0.0
C2202 C 0.05023 0.6892 0.94155 0.0
C2203 C 0.0752 0.67649 0.94068 0.0
C2204 C 0.0441 0.70608 0.96272 0.0
C2205 C 0.06276 0.71036 0.98355 0.0
C2206 C 0.08888 0.69979 0.98132 0.0
C2207 C 0.09494 0.68273 0.96013 0.0
H2208 H 0.02063 0.33035 0.80797 0.0
H2209 H 0.09773 0.29717 0.82746 0.0
H2210 H 0.0378 0.34037 0.76384 0.0
H2211 H 0.11608 0.30913 0.78402 0.0
H2212 H 0.13625 0.30972 0.69787 0.0
H2213 H 0.11574 0.29764 0.74043 0.0
H2214 H 0.06499 0.36602 0.73657 0.0
H2215 H 0.08406 0.37648 0.69324 0.0
C2216 C 0.04164 0.32599 0.803 0.0
C2217 C 0.05793 0.31313 0.82113 0.0
C2218 C 0.05159 0.33175 0.7776 0.0
C2219 C 0.07841 0.32544 0.7699 0.0
C2220 C 0.09507 0.31361 0.78867 0.0
C2221 C 0.08477 0.30714 0.81382 0.0
C2222 C 0.12019 0.32167 0.70596 0.0
C2223 C 0.11153 0.34383 0.69218 0.0
C2224 C 0.10871 0.31509 0.73061 0.0
C2225 C 0.08893 0.33108 0.74253 0.0
C2226 C 0.07977 0.35285 0.72818 0.0
C2227 C 0.09069 0.35892 0.70319 0.0
H2228 H 0.50766 0.30948 0.54144 0.0
H2229 H 0.43138 0.32887 0.57917 0.0
H2230 H 0.49158 0.3257 0.4997 0.0
H2231 H 0.41585 0.34757 0.53783 0.0
H2232 H 0.38874 0.37634 0.46069 0.0
H2233 H 0.4006 0.34485 0.49469 0.0
H2234 H 0.48693 0.36541 0.47999 0.0
H2235 H 0.47475 0.39462 0.4449 0.0
C2236 C 0.48754 0.31774 0.54079 0.0
C2237 C 0.47098 0.31857 0.56355 0.0
C2238 C 0.47827 0.32713 0.51684 0.0
C2239 C 0.45255 0.33861 0.51519 0.0
C2240 C 0.43563 0.33868 0.53801 0.0
C2241 C 0.44461 0.32835 0.56186 0.0
C2242 C 0.41015 0.37261 0.46359 0.0
C2243 C 0.43083 0.38723 0.44962 0.0
C2244 C 0.41707 0.3552 0.48372 0.0
C2245 C 0.44481 0.35269 0.49065 0.0
C2246 C 0.46536 0.36616 0.47527 0.0
C2247 C 0.45843 0.38307 0.455 0.0
H2248 H 0.18756 0.45998 0.28369 0.0
H2249 H 0.19205 0.51877 0.34684 0.0
H2250 H 0.22979 0.44169 0.29888 0.0
H2251 H 0.23476 0.50031 0.36213 0.0
H2252 H 0.2905 0.42924 0.39208 0.0
H2253 H 0.25269 0.45756 0.38118 0.0
H2254 H 0.27904 0.45745 0.29953 0.0
H2255 H 0.31633 0.42893 0.31051 0.0
C2256 C 0.1974 0.46883 0.30102 0.0
C2257 C 0.18644 0.49084 0.31402 0.0
C2258 C 0.22184 0.45857 0.30954 0.0
C2259 C 0.236 0.46999 0.33133 0.0
C2260 C 0.22443 0.49124 0.34516 0.0
C2261 C 0.19992 0.50168 0.33649 0.0
C2262 C 0.28897 0.4365 0.3721 0.0
C2263 C 0.30644 0.42731 0.35214 0.0
C2264 C 0.26717 0.45247 0.3658 0.0
C2265 C 0.26247 0.4591 0.33937 0.0
C2266 C 0.28179 0.45215 0.31998 0.0
C2267 C 0.30343 0.43624 0.32629 0.0
H2268 H 0.25411 0.48315 0.06399 0.0
H2269 H 0.33023 0.48352 0.01944 0.0
H2270 H 0.26489 0.52956 0.07795 0.0
H2271 H 0.34119 0.52946 0.03362 0.0
H2272 H 0.31917 0.59907 0.12109 0.0
H2273 H 0.29682 0.55703 0.10539 0.0
H2274 H 0.32667 0.57421 0.02648 0.0
H2275 H 0.34975 0.61561 0.04263 0.0
C2276 C 0.2733 0.49302 0.05745 0.0
C2277 C 0.29137 0.47961 0.04065 0.0
C2278 C 0.27941 0.51965 0.06537 0.0
C2279 C 0.30364 0.5335 0.05651 0.0
C2280 C 0.32195 0.51975 0.04024 0.0
C2281 C 0.31588 0.49322 0.0324 0.0
C2282 C 0.3197 0.59448 0.1002 0.0
C2283 C 0.3361 0.6106 0.08309 0.0
C2284 C 0.30714 0.5702 0.09118 0.0
C2285 C 0.31074 0.56177 0.06482 0.0
C2286 C 0.32421 0.57967 0.04708 0.0
C2287 C 0.3369 0.60373 0.05617 0.0
H2288 H 0.31487 0.59005 0.78613 0.0
H2289 H 0.30426 0.53226 0.84869 0.0
H2290 H 0.27023 0.60711 0.79696 0.0
H2291 H 0.25932 0.54995 0.85985 0.0
H2292 H 0.19946 0.6265 0.87865 0.0
H2293 H 0.23951 0.59886 0.87486 0.0
H2294 H 0.22041 0.58276 0.79307 0.0
H2295 H 0.18046 0.61014 0.79698 0.0
C2296 C 0.30326 0.5813 0.80254 0.0
C2297 C 0.31311 0.55974 0.81649 0.0
C2298 C 0.27754 0.59089 0.80853 0.0
C2299 C 0.26112 0.5794 0.82883 0.0
C2300 C 0.27152 0.55892 0.84394 0.0
C2301 C 0.29726 0.54898 0.83765 0.0
C2302 C 0.20292 0.61568 0.86036 0.0
C2303 C 0.18661 0.61991 0.83823 0.0
C2304 C 0.226 0.60015 0.85812 0.0
C2305 C 0.23324 0.58914 0.83355 0.0
C2306 C 0.21535 0.59125 0.81217 0.0
C2307 C 0.19229 0.60657 0.81448 0.0
H2308 H 0.17898 0.58015 0.49055 0.0
H2309 H 0.21031 0.59256 0.56937 0.0
H2310 H 0.1652 0.53418 0.50093 0.0
H2311 H 0.19484 0.54663 0.58056 0.0
H2312 H 0.17993 0.45708 0.58967 0.0
H2313 H 0.20109 0.50003 0.575 0.0
H2314 H 0.13179 0.50993 0.52391 0.0
H2315 H 0.11183 0.46702 0.53733 0.0
C2316 C 0.18233 0.57319 0.51037 0.0
C2317 C 0.19528 0.59013 0.52929 0.0
C2318 C 0.17443 0.54671 0.51637 0.0
C2319 C 0.17863 0.53652 0.54171 0.0
C2320 C 0.19159 0.55355 0.56072 0.0
C2321 C 0.20007 0.58002 0.55449 0.0
C2322 C 0.1698 0.46811 0.57464 0.0
C2323 C 0.14415 0.45867 0.56475 0.0
C2324 C 0.18165 0.49296 0.56656 0.0
C2325 C 0.16805 0.5088 0.54847 0.0
C2326 C 0.1432 0.49841 0.53758 0.0
C2327 C 0.13158 0.47369 0.54543 0.0
H2328 H 0.19568 0.56123 0.20182 0.0
H2329 H 0.21608 0.58367 0.28205 0.0
H2330 H 0.24103 0.57885 0.18702 0.0
H2331 H 0.26173 0.59982 0.26772 0.0
H2332 H 0.31637 0.66462 0.22602 0.0
H2333 H 0.27925 0.63739 0.24543 0.0
H2334 H 0.29038 0.57612 0.18588 0.0
H2335 H 0.32781 0.60431 0.166 0.0
C2336 C 0.20996 0.56978 0.21627 0.0
C2337 C 0.20216 0.57176 0.24294 0.0
C2338 C 0.23611 0.57948 0.2079 0.0
C2339 C 0.2551 0.59092 0.22614 0.0
C2340 C 0.24751 0.59173 0.253 0.0
C2341 C 0.22128 0.58256 0.26124 0.0
C2342 C 0.31145 0.64499 0.21747 0.0
C2343 C 0.32446 0.63682 0.1941 0.0
C2344 C 0.29013 0.62923 0.22869 0.0
C2345 C 0.28132 0.6047 0.21696 0.0
C2346 C 0.2962 0.59524 0.19503 0.0
C2347 C 0.3178 0.61117 0.18378 0.0
H2348 H 0.18315 0.45192 0.97364 0.0
H2349 H 0.25861 0.47599 0.9327 0.0
H2350 H 0.16243 0.49229 0.95889 0.0
H2351 H 0.23765 0.5167 0.91786 0.0
H2352 H 0.17141 0.57283 0.87965 0.0
H2353 H 0.19778 0.53392 0.89016 0.0
H2354 H 0.17222 0.54048 0.97174 0.0
H2355 H 0.14657 0.57951 0.96127 0.0
C2356 C 0.19517 0.4656 0.96109 0.0
C2357 C 0.22258 0.46082 0.9545 0.0
C2358 C 0.18338 0.48888 0.95285 0.0
C2359 C 0.19864 0.50796 0.93774 0.0
C2360 C 0.22547 0.50242 0.92962 0.0
C2361 C 0.2374 0.47908 0.93804 0.0
C2362 C 0.17264 0.56672 0.9 0.0
C2363 C 0.15751 0.57952 0.91976 0.0
C2364 C 0.18733 0.54419 0.90595 0.0
C2365 C 0.18663 0.53388 0.93168 0.0
C2366 C 0.1727 0.54765 0.95163 0.0
C2367 C 0.15825 0.57014 0.94572 0.0
H2368 H 0.27914 0.48506 0.77437 0.0
H2369 H 0.31784 0.49164 0.69764 0.0
H2370 H 0.2344 0.47758 0.7539 0.0
H2371 H 0.27351 0.48195 0.67678 0.0
H2372 H 0.19443 0.46903 0.6396 0.0
H2373 H 0.23051 0.49329 0.66468 0.0
H2374 H 0.20764 0.44578 0.73317 0.0
H2375 H 0.17072 0.42346 0.7085 0.0
C2376 C 0.27806 0.48432 0.75302 0.0
C2377 C 0.30198 0.48839 0.73755 0.0
C2378 C 0.25235 0.48005 0.7412 0.0
C2379 C 0.24993 0.47893 0.71351 0.0
C2380 C 0.27409 0.48322 0.6981 0.0
C2381 C 0.29971 0.4883 0.71 0.0
C2382 C 0.19607 0.46521 0.66052 0.0
C2383 C 0.17969 0.4446 0.67223 0.0
C2384 C 0.21733 0.47849 0.67477 0.0
C2385 C 0.22302 0.47083 0.70078 0.0
C2386 C 0.20427 0.45248 0.7133 0.0
C2387 C 0.18269 0.43974 0.69921 0.0
H2388 H 0.31488 0.60587 0.48784 0.0
H2389 H 0.24607 0.58926 0.43598 0.0
H2390 H 0.3326 0.56259 0.47649 0.0
H2391 H 0.26327 0.5454 0.42523 0.0
H2392 H 0.32239 0.48031 0.39431 0.0
H2393 H 0.29891 0.52142 0.40366 0.0
H2394 H 0.32151 0.51675 0.48571 0.0
H2395 H 0.34557 0.47623 0.47597 0.0
C2396 C 0.30369 0.59306 0.47379 0.0
C2397 C 0.27912 0.60099 0.4628 0.0
C2398 C 0.31359 0.56803 0.46757 0.0
C2399 C 0.299 0.55014 0.45044 0.0
C2400 C 0.27504 0.5586 0.4385 0.0
C2401 C 0.26524 0.5838 0.44458 0.0
C2402 C 0.32122 0.48749 0.41451 0.0
C2403 C 0.33546 0.475 0.4345 0.0
C2404 C 0.30807 0.51125 0.41985 0.0
C2405 C 0.30896 0.52285 0.44532 0.0
C2406 C 0.32118 0.50889 0.4657 0.0
C2407 C 0.33453 0.48541 0.46029 0.0
H2408 H 0.31898 0.19982 0.46752 0.0
H2409 H 0.28885 0.23838 0.53795 0.0
H2410 H 0.33646 0.24344 0.45099 0.0
H2411 H 0.30559 0.28201 0.521 0.0
H2412 H 0.29542 0.34528 0.44901 0.0
H2413 H 0.28739 0.30574 0.47681 0.0
H2414 H 0.37165 0.28549 0.46446 0.0
H2415 H 0.37979 0.32546 0.43723 0.0
C2416 C 0.3166 0.21752 0.47968 0.0
C2417 C 0.30263 0.21567 0.50404 0.0
C2418 C 0.32664 0.24245 0.47027 0.0
C2419 C 0.32233 0.26604 0.48475 0.0
C2420 C 0.30921 0.26411 0.5095 0.0
C2421 C 0.29976 0.23913 0.51921 0.0
C2422 C 0.31248 0.33302 0.45328 0.0
C2423 C 0.33837 0.33868 0.44159 0.0
C2424 C 0.30789 0.31036 0.46903 0.0
C2425 C 0.3289 0.29256 0.47267 0.0
C2426 C 0.35516 0.29893 0.46199 0.0
C2427 C 0.35989 0.32193 0.44672 0.0
H2428 H 0.80886 0.33387 0.49452 0.0
H2429 H 0.80379 0.36534 0.57404 0.0
H2430 H 0.82838 0.29329 0.51127 0.0
H2431 H 0.82379 0.32512 0.59063 0.0
H2432 H 0.80184 0.21779 0.56878 0.0
H2433 H 0.80145 0.25787 0.54155 0.0
H2434 H 0.86654 0.29532 0.58857 0.0
H2435 H 0.86719 0.25492 0.61542 0.0
C2436 C 0.81271 0.33249 0.51547 0.0
C2437 C 0.80463 0.35267 0.53305 0.0
C2438 C 0.82381 0.30925 0.525 0.0
C2439 C 0.82759 0.3061 0.5522 0.0
C2440 C 0.8214 0.32716 0.56952 0.0
C2441 C 0.80981 0.35012 0.56007 0.0
C2442 C 0.81705 0.23404 0.57229 0.0
C2443 C 0.83488 0.23322 0.59376 0.0
C2444 C 0.81679 0.25701 0.55682 0.0
C2445 C 0.83382 0.27975 0.56314 0.0
C2446 C 0.8532 0.27807 0.58333 0.0
C2447 C 0.85376 0.25491 0.59849 0.0
H2448 H 0.44016 0.09802 0.24694 0.0
H2449 H 0.44798 0.01467 0.26463 0.0
H2450 H 0.48369 0.10936 0.26964 0.0
H2451 H 0.49208 0.0253 0.28521 0.0
H2452 H 0.53896 0.05728 0.35721 0.0
H2453 H 0.50494 0.04324 0.32508 0.0
H2454 H 0.53256 0.10892 0.27479 0.0
H2455 H 0.56673 0.12344 0.30815 0.0
C2456 C 0.45146 0.08215 0.25534 0.0
C2457 C 0.44043 0.05563 0.25485 0.0
C2458 C 0.47657 0.08852 0.26806 0.0
C2459 C 0.49136 0.06833 0.27984 0.0
C2460 C 0.48099 0.04158 0.27736 0.0
C2461 C 0.45568 0.03542 0.2655 0.0
C2462 C 0.53841 0.06828 0.33893 0.0
C2463 C 0.55526 0.09165 0.33537 0.0
C2464 C 0.51881 0.06019 0.32029 0.0
C2465 C 0.51553 0.07505 0.29722 0.0
C2466 C 0.53405 0.09726 0.29253 0.0
C2467 C 0.55391 0.10541 0.31143 0.0
H2468 H 0.73097 0.72672 0.07921 0.0
H2469 H 0.67347 0.71017 0.01598 0.0
H2470 H 0.71225 0.77035 0.0863 0.0
H2471 H 0.65419 0.75416 0.02357 0.0
H2472 H 0.61336 0.81506 0.09003 0.0
H2473 H 0.62842 0.77716 0.06385 0.0
H2474 H 0.71035 0.81441 0.05982 0.0
H2475 H 0.69518 0.85213 0.08605 0.0
C2476 C 0.71412 0.73229 0.06697 0.0
C2477 C 0.70363 0.7149 0.04712 0.0
C2478 C 0.70366 0.75749 0.07076 0.0
C2479 C 0.68218 0.76593 0.05506 0.0
C2480 C 0.67098 0.74829 0.0357 0.0
C2481 C 0.68187 0.72309 0.03154 0.0
C2482 C 0.63403 0.81613 0.0818 0.0
C2483 C 0.6532 0.83636 0.0903 0.0
C2484 C 0.64279 0.79414 0.06715 0.0
C2485 C 0.67078 0.79243 0.06068 0.0
C2486 C 0.68875 0.81498 0.06508 0.0
C2487 C 0.67992 0.83691 0.07962 0.0
H2488 H 0.53067 0.48163 0.2372 0.0
H2489 H 0.56036 0.50629 0.31424 0.0
H2490 H 0.48512 0.46992 0.25648 0.0
H2491 H 0.51528 0.49473 0.33325 0.0
H2492 H 0.43107 0.50324 0.35807 0.0
H2493 H 0.46926 0.51544 0.3285 0.0
H2494 H 0.46074 0.43751 0.29103 0.0
H2495 H 0.42142 0.42568 0.32025 0.0
C2496 C 0.5276 0.48419 0.25826 0.0
C2497 C 0.54909 0.49501 0.2742 0.0
C2498 C 0.50153 0.47757 0.26922 0.0
C2499 C 0.49648 0.482 0.29623 0.0
C2500 C 0.51834 0.49172 0.31223 0.0
C2501 C 0.54429 0.49809 0.30139 0.0
C2502 C 0.43652 0.48911 0.34276 0.0
C2503 C 0.4239 0.46318 0.342 0.0
C2504 C 0.45865 0.49596 0.32607 0.0
C2505 C 0.46871 0.47701 0.30827 0.0
C2506 C 0.45371 0.45236 0.3049 0.0
C2507 C 0.4312 0.44558 0.32158 0.0
H2508 H 0.18759 0.82568 0.0165 0.0
H2509 H 0.22017 0.84943 0.94013 0.0
H2510 H 0.17228 0.78184 -0.00212 0.0
H2511 H 0.20522 0.8059 0.92187 0.0
H2512 H 0.21128 0.71845 0.90655 0.0
H2513 H 0.22298 0.75906 0.93206 0.0
H2514 H 0.13895 0.76075 0.95983 0.0
H2515 H 0.1271 0.72028 0.93358 0.0
C2516 C 0.19107 0.82172 -0.0043 0.0
C2517 C 0.20524 0.84093 0.9798 0.0
C2518 C 0.18238 0.79666 0.98513 0.0
C2519 C 0.18811 0.79037 0.95862 0.0
C2520 C 0.20105 0.81007 0.94252 0.0
C2521 C 0.20941 0.83508 0.95294 0.0
C2522 C 0.1955 0.72703 0.91873 0.0
C2523 C 0.16835 0.71603 0.91841 0.0
C2524 C 0.20213 0.75035 0.93315 0.0
C2525 C 0.18175 0.76321 0.94754 0.0
C2526 C 0.15504 0.75113 0.94896 0.0
C2527 C 0.14834 0.72775 0.9343 0.0
H2528 H 0.42752 0.95365 0.23813 0.0
H2529 H 0.42552 0.97161 0.15503 0.0
H2530 H 0.47115 0.93226 0.23155 0.0
H2531 H 0.46868 0.94947 0.14838 0.0
H2532 H 0.5643 0.96402 0.19992 0.0
H2533 H 0.51682 0.9613 0.21606 0.0
H2534 H 0.49521 0.90374 0.15463 0.0
H2535 H 0.54307 0.90577 0.13915 0.0
C2536 C 0.43584 0.95211 0.21829 0.0
C2537 C 0.42324 0.96445 0.19706 0.0
C2538 C 0.46079 0.93987 0.21459 0.0
C2539 C 0.47317 0.93914 0.18949 0.0
C2540 C 0.45936 0.94944 0.1679 0.0
C2541 C 0.43475 0.96224 0.17169 0.0
C2542 C 0.54982 0.9494 0.19109 0.0
C2543 C 0.55728 0.93491 0.16854 0.0
C2544 C 0.52258 0.94797 0.20017 0.0
C2545 C 0.50234 0.9326 0.18629 0.0
C2546 C 0.51046 0.91574 0.16562 0.0
C2547 C 0.53789 0.91667 0.15698 0.0
H2548 H 0.06269 0.12211 0.74663 0.0
H2549 H 0.04681 0.06362 0.68447 0.0
H2550 H 0.02113 0.14477 0.73435 0.0
H2551 H 0.00544 0.08576 0.67273 0.0
H2552 H 0.92504 0.11285 0.66399 0.0
H2553 H 0.95785 0.09507 0.69455 0.0
H2554 H 0.00751 0.16907 0.69024 0.0
H2555 H 0.97485 0.18656 0.65948 0.0
C2556 C 0.0504 0.11418 0.73035 0.0
C2557 C 0.05809 0.09126 0.71633 0.0
C2558 C 0.02657 0.12697 0.72354 0.0
C2559 C 0.00977 0.11659 0.70307 0.0
C2560 C 0.01762 0.09378 0.68906 0.0
C2561 C 0.04158 0.08136 0.69549 0.0
C2562 C 0.94195 0.12593 0.67103 0.0
C2563 C 0.94751 0.15101 0.65953 0.0
C2564 C 0.96094 0.11564 0.68819 0.0
C2565 C 0.98551 0.1305 0.69414 0.0
C2566 C 0.98878 0.1572 0.68594 0.0
C2567 C 0.96993 0.16733 0.66853 0.0
loop_
_geom_bond_atom_site_label_1
_geom_bond_atom_site_label_2
_geom_bond_distance
_geom_bond_site_symmetry_2
_ccdc_geom_bond_type
In0 O1 2.294 . S
In0 O2 2.326 . S
In0 O6 2.266 . S
In0 O7 2.326 . S
In0 O8 2.266 1_455 S
In0 O9 2.326 . S
In0 O11 2.294 1_455 S
In0 O12 2.326 . S
O1 In0 2.294 . S
O1 C10 1.240 . S
O2 In0 2.326 . S
O2 C10 1.252 . S
C3 O6 1.252 . S
C3 O7 1.260 . S
C4 O11 1.240 . S
C4 O12 1.252 1_655 S
C5 O8 1.252 . S
C5 O9 1.260 1_655 S
O6 In0 2.266 . S
O6 C3 1.252 . S
O7 In0 2.326 . S
O7 C3 1.260 . S
O8 In0 2.266 1_655 S
O8 C5 1.252 . S
O9 In0 2.326 . S
O9 C5 1.260 1_455 S
C10 O1 1.240 . S
C10 O2 1.252 . S
O11 In0 2.294 1_655 S
O11 C4 1.240 . S
O12 In0 2.326 . S
O12 C4 1.252 1_455 S
In13 O14 2.294 1_455 S
In13 O15 2.326 1_455 S
In13 O19 2.266 . S
In13 O20 2.326 . S
In13 O21 2.266 1_455 S
In13 O22 2.326 1_455 S
In13 O24 2.294 . S
In13 O25 2.326 . S
O14 In13 2.294 1_655 S
O14 C23 1.240 . S
O15 In13 2.326 1_655 S
O15 C23 1.252 . S
C16 O19 1.252 . S
C16 O20 1.260 . S
C17 O24 1.240 . S
C17 O25 1.252 . S
C18 O21 1.252 . S
C18 O22 1.260 . S
O19 In13 2.266 . S
O19 C16 1.252 . S
O20 In13 2.326 . S
O20 C16 1.260 . S
O21 In13 2.266 1_655 S
O21 C18 1.252 . S
O22 In13 2.326 1_655 S
O22 C18 1.260 . S
C23 O14 1.240 . S
C23 O15 1.252 . S
O24 In13 2.294 . S
O24 C17 1.240 . S
O25 In13 2.326 . S
O25 C17 1.252 . S
In26 O27 2.294 . S
In26 O28 2.326 . S
In26 O32 2.266 . S
In26 O33 2.326 . S
In26 O34 2.266 . S
In26 O35 2.326 . S
In26 O37 2.294 . S
In26 O38 2.326 . S
O27 In26 2.294 . S
O27 C36 1.240 . S
O28 In26 2.326 . S
O28 C36 1.252 . S
C29 O32 1.252 . S
C29 O33 1.260 . S
C30 O37 1.240 . S
C30 O38 1.252 . S
C31 O34 1.252 . S
C31 O35 1.260 . S
O32 In26 2.266 . S
O32 C29 1.252 . S
O33 In26 2.326 . S
O33 C29 1.260 . S
O34 In26 2.266 . S
O34 C31 1.252 . S
O35 In26 2.326 . S
O35 C31 1.260 . S
C36 O27 1.240 . S
C36 O28 1.252 . S
O37 In26 2.294 . S
O37 C30 1.240 . S
O38 In26 2.326 . S
O38 C30 1.252 . S
In39 O40 2.294 . S
In39 O41 2.326 . S
In39 O45 2.266 . S
In39 O46 2.326 . S
In39 O47 2.266 . S
In39 O48 2.326 . S
In39 O50 2.294 . S
In39 O51 2.326 . S
O40 In39 2.294 . S
O40 C49 1.240 . S
O41 In39 2.326 . S
O41 C49 1.252 . S
C42 O45 1.252 . S
C42 O46 1.260 . S
C43 O50 1.240 . S
C43 O51 1.252 . S
C44 O47 1.252 . S
C44 O48 1.260 . S
O45 In39 2.266 . S
O45 C42 1.252 . S
O46 In39 2.326 . S
O46 C42 1.260 . S
O47 In39 2.266 . S
O47 C44 1.252 . S
O48 In39 2.326 . S
O48 C44 1.260 . S
C49 O40 1.240 . S
C49 O41 1.252 . S
O50 In39 2.294 . S
O50 C43 1.240 . S
O51 In39 2.326 . S
O51 C43 1.252 . S
In52 O53 2.294 1_455 S
In52 O54 2.326 . S
In52 O58 2.266 1_455 S
In52 O59 2.326 . S
In52 O60 2.266 . S
In52 O61 2.326 1_455 S
In52 O63 2.294 . S
In52 O64 2.326 1_455 S
O53 In52 2.294 1_655 S
O53 C62 1.240 . S
O54 In52 2.326 . S
O54 C62 1.252 1_455 S
C55 O58 1.252 . S
C55 O59 1.260 1_655 S
C56 O63 1.240 . S
C56 O64 1.252 1_455 S
C57 O60 1.252 . S
C57 O61 1.260 1_455 S
O58 In52 2.266 1_655 S
O58 C55 1.252 . S
O59 In52 2.326 . S
O59 C55 1.260 1_455 S
O60 In52 2.266 . S
O60 C57 1.252 . S
O61 In52 2.326 1_655 S
O61 C57 1.260 1_655 S
C62 O53 1.240 . S
C62 O54 1.252 1_655 S
O63 In52 2.294 . S
O63 C56 1.240 . S
O64 In52 2.326 1_655 S
O64 C56 1.252 1_655 S
In65 O66 2.294 . S
In65 O67 2.326 . S
In65 O71 2.266 . S
In65 O72 2.326 . S
In65 O73 2.266 . S
In65 O74 2.326 . S
In65 O76 2.294 . S
In65 O77 2.326 . S
O66 In65 2.294 . S
O66 C75 1.240 . S
O67 In65 2.326 . S
O67 C75 1.252 . S
C68 O71 1.252 . S
C68 O72 1.260 . S
C69 O76 1.240 . S
C69 O77 1.252 . S
C70 O73 1.252 . S
C70 O74 1.260 . S
O71 In65 2.266 . S
O71 C68 1.252 . S
O72 In65 2.326 . S
O72 C68 1.260 . S
O73 In65 2.266 . S
O73 C70 1.252 . S
O74 In65 2.326 . S
O74 C70 1.260 . S
C75 O66 1.240 . S
C75 O67 1.252 . S
O76 In65 2.294 . S
O76 C69 1.240 . S
O77 In65 2.326 . S
O77 C69 1.252 . S
In78 O79 2.294 . S
In78 O80 2.326 . S
In78 O84 2.266 . S
In78 O85 2.326 . S
In78 O86 2.266 . S
In78 O87 2.326 . S
In78 O89 2.294 . S
In78 O90 2.326 . S
O79 In78 2.294 . S
O79 C88 1.240 . S
O80 In78 2.326 . S
O80 C88 1.252 . S
C81 O84 1.252 . S
C81 O85 1.260 . S
C82 O89 1.240 . S
C82 O90 1.252 . S
C83 O86 1.252 . S
C83 O87 1.260 . S
O84 In78 2.266 . S
O84 C81 1.252 . S
O85 In78 2.326 . S
O85 C81 1.260 . S
O86 In78 2.266 . S
O86 C83 1.252 . S
O87 In78 2.326 . S
O87 C83 1.260 . S
C88 O79 1.240 . S
C88 O80 1.252 . S
O89 In78 2.294 . S
O89 C82 1.240 . S
O90 In78 2.326 . S
O90 C82 1.252 . S
In91 O92 2.294 . S
In91 O93 2.326 . S
In91 O97 2.266 . S
In91 O98 2.326 1_455 S
In91 O99 2.266 . S
In91 O100 2.326 . S
In91 O102 2.294 . S
In91 O103 2.326 1_455 S
O92 In91 2.294 . S
O92 C101 1.240 . S
O93 In91 2.326 . S
O93 C101 1.252 . S
C94 O97 1.252 1_655 S
C94 O98 1.260 . S
C95 O102 1.240 1_655 S
C95 O103 1.252 . S
C96 O99 1.252 . S
C96 O100 1.260 . S
O97 In91 2.266 . S
O97 C94 1.252 1_455 S
O98 In91 2.326 1_655 S
O98 C94 1.260 . S
O99 In91 2.266 . S
O99 C96 1.252 . S
O100 In91 2.326 . S
O100 C96 1.260 . S
C101 O92 1.240 . S
C101 O93 1.252 . S
O102 In91 2.294 . S
O102 C95 1.240 1_455 S
O103 In91 2.326 1_655 S
O103 C95 1.252 . S
In104 O105 2.294 1_545 S
In104 O106 2.326 . S
In104 O110 2.266 1_545 S
In104 O111 2.326 . S
In104 O112 2.266 . S
In104 O113 2.326 1_545 S
In104 O115 2.294 . S
In104 O116 2.326 1_545 S
O105 In104 2.294 1_565 S
O105 C114 1.240 . S
O106 In104 2.326 . S
O106 C114 1.252 1_545 S
C107 O110 1.252 . S
C107 O111 1.260 1_565 S
C108 O115 1.240 . S
C108 O116 1.252 1_545 S
C109 O112 1.252 . S
C109 O113 1.260 1_545 S
O110 In104 2.266 1_565 S
O110 C107 1.252 . S
O111 In104 2.326 . S
O111 C107 1.260 1_545 S
O112 In104 2.266 . S
O112 C109 1.252 . S
O113 In104 2.326 1_565 S
O113 C109 1.260 1_565 S
C114 O105 1.240 . S
C114 O106 1.252 1_565 S
O115 In104 2.294 . S
O115 C108 1.240 . S
O116 In104 2.326 1_565 S
O116 C108 1.252 1_565 S
In117 O118 2.294 . S
In117 O119 2.326 . S
In117 O123 2.266 . S
In117 O124 2.326 . S
In117 O125 2.266 . S
In117 O126 2.326 . S
In117 O128 2.294 . S
In117 O129 2.326 . S
O118 In117 2.294 . S
O118 C127 1.240 . S
O119 In117 2.326 . S
O119 C127 1.252 . S
C120 O123 1.252 . S
C120 O124 1.260 . S
C121 O128 1.240 . S
C121 O129 1.252 . S
C122 O125 1.252 . S
C122 O126 1.260 . S
O123 In117 2.266 . S
O123 C120 1.252 . S
O124 In117 2.326 . S
O124 C120 1.260 . S
O125 In117 2.266 . S
O125 C122 1.252 . S
O126 In117 2.326 . S
O126 C122 1.260 . S
C127 O118 1.240 . S
C127 O119 1.252 . S
O128 In117 2.294 . S
O128 C121 1.240 . S
O129 In117 2.326 . S
O129 C121 1.252 . S
In130 O131 2.294 . S
In130 O132 2.326 . S
In130 O136 2.266 . S
In130 O137 2.326 . S
In130 O138 2.266 . S
In130 O139 2.326 . S
In130 O141 2.294 . S
In130 O142 2.326 . S
O131 In130 2.294 . S
O131 C140 1.240 . S
O132 In130 2.326 . S
O132 C140 1.252 . S
C133 O136 1.252 . S
C133 O137 1.260 . S
C134 O141 1.240 . S
C134 O142 1.252 . S
C135 O138 1.252 . S
C135 O139 1.260 . S
O136 In130 2.266 . S
O136 C133 1.252 . S
O137 In130 2.326 . S
O137 C133 1.260 . S
O138 In130 2.266 . S
O138 C135 1.252 . S
O139 In130 2.326 . S
O139 C135 1.260 . S
C140 O131 1.240 . S
C140 O132 1.252 . S
O141 In130 2.294 . S
O141 C134 1.240 . S
O142 In130 2.326 . S
O142 C134 1.252 . S
In143 O144 2.294 . S
In143 O145 2.326 . S
In143 O149 2.266 . S
In143 O150 2.326 1_554 S
In143 O151 2.266 . S
In143 O152 2.326 . S
In143 O154 2.294 . S
In143 O155 2.326 1_554 S
O144 In143 2.294 . S
O144 C153 1.240 . S
O145 In143 2.326 . S
O145 C153 1.252 . S
C146 O149 1.252 1_556 S
C146 O150 1.260 . S
C147 O154 1.240 1_556 S
C147 O155 1.252 . S
C148 O151 1.252 . S
C148 O152 1.260 . S
O149 In143 2.266 . S
O149 C146 1.252 1_554 S
O150 In143 2.326 1_556 S
O150 C146 1.260 . S
O151 In143 2.266 . S
O151 C148 1.252 . S
O152 In143 2.326 . S
O152 C148 1.260 . S
C153 O144 1.240 . S
C153 O145 1.252 . S
O154 In143 2.294 . S
O154 C147 1.240 1_554 S
O155 In143 2.326 1_556 S
O155 C147 1.252 . S
In156 O157 2.294 1_554 S
In156 O158 2.326 . S
In156 O162 2.266 1_554 S
In156 O163 2.326 . S
In156 O164 2.266 . S
In156 O165 2.326 1_554 S
In156 O167 2.294 . S
In156 O168 2.327 . S
O157 In156 2.294 1_556 S
O157 C166 1.240 . S
O158 In156 2.326 . S
O158 C166 1.252 1_554 S
C159 O162 1.252 . S
C159 O163 1.260 1_556 S
C160 O167 1.240 . S
C160 O168 1.259 . S
C161 O164 1.252 . S
C161 O165 1.260 1_554 S
O162 In156 2.266 1_556 S
O162 C159 1.252 . S
O163 In156 2.326 . S
O163 C159 1.260 1_554 S
O164 In156 2.266 . S
O164 C161 1.252 . S
O165 In156 2.326 1_556 S
O165 C161 1.260 1_556 S
C166 O157 1.240 . S
C166 O158 1.252 1_556 S
O167 In156 2.294 . S
O167 C160 1.240 . S
O168 In156 2.327 . S
O168 C160 1.259 . S
In169 O170 2.294 . S
In169 O171 2.326 1_554 S
In169 O175 2.266 . S
In169 O176 2.326 1_554 S
In169 O177 2.266 1_554 S
In169 O178 2.326 . S
In169 O180 2.294 1_554 S
In169 O181 2.326 . S
O170 In169 2.294 . S
O170 C179 1.240 . S
O171 In169 2.326 1_556 S
O171 C179 1.252 1_556 S
C172 O175 1.252 . S
C172 O176 1.260 1_554 S
C173 O180 1.240 . S
C173 O181 1.252 1_556 S
C174 O177 1.252 . S
C174 O178 1.260 1_556 S
O175 In169 2.266 . S
O175 C172 1.252 . S
O176 In169 2.326 1_556 S
O176 C172 1.260 1_556 S
O177 In169 2.266 1_556 S
O177 C174 1.252 . S
O178 In169 2.326 . S
O178 C174 1.260 1_554 S
C179 O170 1.240 . S
C179 O171 1.252 1_554 S
O180 In169 2.294 1_556 S
O180 C173 1.240 . S
O181 In169 2.326 . S
O181 C173 1.252 1_554 S
In182 O183 2.294 . S
In182 O184 2.326 . S
In182 O188 2.266 . S
In182 O189 2.326 . S
In182 O190 2.266 . S
In182 O191 2.326 . S
In182 O193 2.294 . S
In182 O194 2.326 . S
O183 In182 2.294 . S
O183 C192 1.240 . S
O184 In182 2.326 . S
O184 C192 1.252 . S
C185 O188 1.252 . S
C185 O189 1.260 . S
C186 O193 1.240 . S
C186 O194 1.252 . S
C187 O190 1.252 . S
C187 O191 1.260 . S
O188 In182 2.266 . S
O188 C185 1.252 . S
O189 In182 2.326 . S
O189 C185 1.260 . S
O190 In182 2.266 . S
O190 C187 1.252 . S
O191 In182 2.326 . S
O191 C187 1.260 . S
C192 O183 1.240 . S
C192 O184 1.252 . S
O193 In182 2.294 . S
O193 C186 1.240 . S
O194 In182 2.326 . S
O194 C186 1.252 . S
In195 O196 2.294 . S
In195 O197 2.326 . S
In195 O201 2.266 . S
In195 O202 2.326 . S
In195 O203 2.266 . S
In195 O204 2.326 . S
In195 O206 2.294 . S
In195 O207 2.326 . S
O196 In195 2.294 . S
O196 C205 1.240 . S
O197 In195 2.326 . S
O197 C205 1.252 . S
C198 O201 1.252 . S
C198 O202 1.260 . S
C199 O206 1.240 . S
C199 O207 1.252 . S
C200 O203 1.252 . S
C200 O204 1.260 . S
O201 In195 2.266 . S
O201 C198 1.252 . S
O202 In195 2.326 . S
O202 C198 1.260 . S
O203 In195 2.266 . S
O203 C200 1.252 . S
O204 In195 2.326 . S
O204 C200 1.260 . S
C205 O196 1.240 . S
C205 O197 1.252 . S
O206 In195 2.294 . S
O206 C199 1.240 . S
O207 In195 2.326 . S
O207 C199 1.252 . S
In208 O209 2.294 1_545 S
In208 O210 2.326 1_545 S
In208 O214 2.266 . S
In208 O215 2.326 . S
In208 O216 2.266 1_545 S
In208 O217 2.326 1_545 S
In208 O219 2.294 . S
In208 O220 2.326 . S
O209 In208 2.294 1_565 S
O209 C218 1.240 . S
O210 In208 2.326 1_565 S
O210 C218 1.252 . S
C211 O214 1.252 . S
C211 O215 1.260 . S
C212 O219 1.240 . S
C212 O220 1.252 . S
C213 O216 1.252 . S
C213 O217 1.260 . S
O214 In208 2.266 . S
O214 C211 1.252 . S
O215 In208 2.326 . S
O215 C211 1.260 . S
O216 In208 2.266 1_565 S
O216 C213 1.252 . S
O217 In208 2.326 1_565 S
O217 C213 1.260 . S
C218 O209 1.240 . S
C218 O210 1.252 . S
O219 In208 2.294 . S
O219 C212 1.240 . S
O220 In208 2.326 . S
O220 C212 1.252 . S
In221 O222 2.294 . S
In221 O223 2.326 . S
In221 O227 2.266 . S
In221 O228 2.326 . S
In221 O229 2.266 . S
In221 O230 2.326 . S
In221 O232 2.294 . S
In221 O233 2.326 . S
O222 In221 2.294 . S
O222 C231 1.240 . S
O223 In221 2.326 . S
O223 C231 1.252 . S
C224 O227 1.252 . S
C224 O228 1.260 . S
C225 O232 1.240 . S
C225 O233 1.252 . S
C226 O229 1.252 . S
C226 O230 1.260 . S
O227 In221 2.266 . S
O227 C224 1.252 . S
O228 In221 2.326 . S
O228 C224 1.260 . S
O229 In221 2.266 . S
O229 C226 1.252 . S
O230 In221 2.326 . S
O230 C226 1.260 . S
C231 O222 1.240 . S
C231 O223 1.252 . S
O232 In221 2.294 . S
O232 C225 1.240 . S
O233 In221 2.326 . S
O233 C225 1.252 . S
In234 O235 2.294 . S
In234 O236 2.326 . S
In234 O240 2.266 . S
In234 O241 2.326 . S
In234 O242 2.266 . S
In234 O243 2.326 . S
In234 O245 2.294 . S
In234 O246 2.326 . S
O235 In234 2.294 . S
O235 C244 1.240 . S
O236 In234 2.326 . S
O236 C244 1.252 . S
C237 O240 1.252 . S
C237 O241 1.260 . S
C238 O245 1.240 . S
C238 O246 1.252 . S
C239 O242 1.252 . S
C239 O243 1.260 . S
O240 In234 2.266 . S
O240 C237 1.252 . S
O241 In234 2.326 . S
O241 C237 1.260 . S
O242 In234 2.266 . S
O242 C239 1.252 . S
O243 In234 2.326 . S
O243 C239 1.260 . S
C244 O235 1.240 . S
C244 O236 1.252 . S
O245 In234 2.294 . S
O245 C238 1.240 . S
O246 In234 2.326 . S
O246 C238 1.252 . S
In247 O248 2.294 . S
In247 O249 2.326 . S
In247 O253 2.266 . S
In247 O254 2.326 . S
In247 O255 2.266 . S
In247 O256 2.326 . S
In247 O258 2.294 . S
In247 O259 2.326 . S
O248 In247 2.294 . S
O248 C257 1.240 . S
O249 In247 2.326 . S
O249 C257 1.252 . S
C250 O253 1.252 . S
C250 O254 1.260 . S
C251 O258 1.240 . S
C251 O259 1.252 . S
C252 O255 1.252 . S
C252 O256 1.260 . S
O253 In247 2.266 . S
O253 C250 1.252 . S
O254 In247 2.326 . S
O254 C250 1.260 . S
O255 In247 2.266 . S
O255 C252 1.252 . S
O256 In247 2.326 . S
O256 C252 1.260 . S
C257 O248 1.240 . S
C257 O249 1.252 . S
O258 In247 2.294 . S
O258 C251 1.240 . S
O259 In247 2.326 . S
O259 C251 1.252 . S
In260 O261 2.294 . S
In260 O262 2.326 . S
In260 O266 2.266 1_554 S
In260 O267 2.326 1_554 S
In260 O268 2.266 . S
In260 O269 2.326 . S
In260 O271 2.294 1_554 S
In260 O272 2.326 1_554 S
O261 In260 2.294 . S
O261 C270 1.240 . S
O262 In260 2.326 . S
O262 C270 1.252 . S
C263 O266 1.252 . S
C263 O267 1.260 . S
C264 O271 1.240 . S
C264 O272 1.252 . S
C265 O268 1.252 . S
C265 O269 1.260 . S
O266 In260 2.266 1_556 S
O266 C263 1.252 . S
O267 In260 2.326 1_556 S
O267 C263 1.260 . S
O268 In260 2.266 . S
O268 C265 1.252 . S
O269 In260 2.326 . S
O269 C265 1.260 . S
C270 O261 1.240 . S
C270 O262 1.252 . S
O271 In260 2.294 1_556 S
O271 C264 1.240 . S
O272 In260 2.326 1_556 S
O272 C264 1.252 . S
In273 O274 2.294 . S
In273 O275 2.326 . S
In273 O279 2.266 . S
In273 O280 2.326 . S
In273 O281 2.266 . S
In273 O282 2.326 . S
In273 O284 2.294 . S
In273 O285 2.326 . S
O274 In273 2.294 . S
O274 C283 1.240 . S
O275 In273 2.326 . S
O275 C283 1.252 . S
C276 O279 1.252 . S
C276 O280 1.260 . S
C277 O284 1.240 . S
C277 O285 1.252 . S
C278 O281 1.252 . S
C278 O282 1.260 . S
O279 In273 2.266 . S
O279 C276 1.252 . S
O280 In273 2.326 . S
O280 C276 1.260 . S
O281 In273 2.266 . S
O281 C278 1.252 . S
O282 In273 2.326 . S
O282 C278 1.260 . S
C283 O274 1.240 . S
C283 O275 1.252 . S
O284 In273 2.294 . S
O284 C277 1.240 . S
O285 In273 2.326 . S
O285 C277 1.252 . S
In286 O287 2.294 . S
In286 O288 2.326 . S
In286 O292 2.266 . S
In286 O293 2.326 . S
In286 O294 2.266 . S
In286 O295 2.326 . S
In286 O297 2.294 . S
In286 O298 2.326 . S
O287 In286 2.294 . S
O287 C296 1.240 . S
O288 In286 2.326 . S
O288 C296 1.252 . S
C289 O292 1.252 . S
C289 O293 1.260 . S
C290 O297 1.240 . S
C290 O298 1.252 . S
C291 O294 1.252 . S
C291 O295 1.260 . S
O292 In286 2.266 . S
O292 C289 1.252 . S
O293 In286 2.326 . S
O293 C289 1.260 . S
O294 In286 2.266 . S
O294 C291 1.252 . S
O295 In286 2.326 . S
O295 C291 1.260 . S
C296 O287 1.240 . S
C296 O288 1.252 . S
O297 In286 2.294 . S
O297 C290 1.240 . S
O298 In286 2.326 . S
O298 C290 1.252 . S
In299 O300 2.294 . S
In299 O301 2.326 . S
In299 O305 2.266 . S
In299 O306 2.326 . S
In299 O307 2.266 . S
In299 O308 2.326 . S
In299 O310 2.294 . S
In299 O311 2.326 . S
O300 In299 2.294 . S
O300 C309 1.240 . S
O301 In299 2.326 . S
O301 C309 1.252 . S
C302 O305 1.252 . S
C302 O306 1.260 . S
C303 O310 1.240 . S
C303 O311 1.252 . S
C304 O307 1.252 . S
C304 O308 1.260 . S
O305 In299 2.266 . S
O305 C302 1.252 . S
O306 In299 2.326 . S
O306 C302 1.260 . S
O307 In299 2.266 . S
O307 C304 1.252 . S
O308 In299 2.326 . S
O308 C304 1.260 . S
C309 O300 1.240 . S
C309 O301 1.252 . S
O310 In299 2.294 . S
O310 C303 1.240 . S
O311 In299 2.326 . S
O311 C303 1.252 . S
O312 Mn313 2.163 . S
O312 C326 1.244 . S
Mn313 O312 2.163 . S
Mn313 O316 2.160 . S
Mn313 O317 2.221 . S
Mn313 O319 2.163 . S
Mn313 O321 2.160 . S
Mn313 O331 2.221 . S
O314 Mn315 2.087 . S
O314 C326 1.256 . S
Mn315 O314 2.087 . S
Mn315 O322 2.089 . S
Mn315 O331 2.290 . S
Mn315 O332 2.251 . S
O316 Mn313 2.160 . S
O316 C327 1.239 . S
O317 Mn313 2.221 . S
O317 Mn318 2.290 . S
O317 C328 1.278 . S
Mn318 O317 2.290 . S
Mn318 O320 2.089 . S
Mn318 O323 2.251 . S
Mn318 O324 2.087 . S
O319 Mn313 2.163 . S
O319 C329 1.244 . S
O320 Mn318 2.089 . S
O320 C327 1.256 . S
O321 Mn313 2.160 . S
O321 C330 1.239 . S
O322 Mn315 2.089 . S
O322 C330 1.256 . S
O323 Mn318 2.251 . S
O323 C328 1.241 . S
O324 Mn318 2.087 . S
O324 C329 1.256 . S
C325 O331 1.278 . S
C325 O332 1.241 . S
C326 O312 1.244 . S
C326 O314 1.256 . S
C327 O316 1.239 . S
C327 O320 1.256 . S
C328 O317 1.278 . S
C328 O323 1.241 . S
C329 O319 1.244 . S
C329 O324 1.256 . S
C330 O321 1.239 . S
C330 O322 1.256 . S
O331 Mn313 2.221 . S
O331 Mn315 2.290 . S
O331 C325 1.278 . S
O332 Mn315 2.251 . S
O332 C325 1.241 . S
O333 Mn334 2.163 . S
O333 C347 1.244 . S
Mn334 O333 2.163 . S
Mn334 O337 2.160 . S
Mn334 O338 2.221 . S
Mn334 O340 2.163 . S
Mn334 O342 2.160 . S
Mn334 O352 2.221 . S
O335 Mn336 2.087 . S
O335 C347 1.256 . S
Mn336 O335 2.087 . S
Mn336 O343 2.089 . S
Mn336 O352 2.290 . S
Mn336 O353 2.251 . S
O337 Mn334 2.160 . S
O337 C348 1.239 . S
O338 Mn334 2.221 . S
O338 Mn339 2.290 . S
O338 C349 1.278 . S
Mn339 O338 2.290 . S
Mn339 O341 2.089 . S
Mn339 O344 2.251 . S
Mn339 O345 2.087 . S
O340 Mn334 2.163 . S
O340 C350 1.244 . S
O341 Mn339 2.089 . S
O341 C348 1.256 . S
O342 Mn334 2.160 . S
O342 C351 1.239 . S
O343 Mn336 2.089 . S
O343 C351 1.256 . S
O344 Mn339 2.251 . S
O344 C349 1.241 . S
O345 Mn339 2.087 . S
O345 C350 1.256 . S
C346 O352 1.278 . S
C346 O353 1.241 . S
C347 O333 1.244 . S
C347 O335 1.256 . S
C348 O337 1.239 . S
C348 O341 1.256 . S
C349 O338 1.278 . S
C349 O344 1.241 . S
C350 O340 1.244 . S
C350 O345 1.256 . S
C351 O342 1.239 . S
C351 O343 1.256 . S
O352 Mn334 2.221 . S
O352 Mn336 2.290 . S
O352 C346 1.278 . S
O353 Mn336 2.251 . S
O353 C346 1.241 . S
O354 Mn355 2.163 . S
O354 C368 1.244 . S
Mn355 O354 2.163 . S
Mn355 O358 2.160 . S
Mn355 O359 2.221 . S
Mn355 O361 2.163 . S
Mn355 O363 2.160 . S
Mn355 O373 2.221 . S
O356 Mn357 2.087 . S
O356 C368 1.256 . S
Mn357 O356 2.087 . S
Mn357 O364 2.089 . S
Mn357 O373 2.290 . S
Mn357 O374 2.251 . S
O358 Mn355 2.160 . S
O358 C369 1.239 . S
O359 Mn355 2.221 . S
O359 Mn360 2.290 . S
O359 C370 1.278 . S
Mn360 O359 2.290 . S
Mn360 O362 2.089 . S
Mn360 O365 2.251 . S
Mn360 O366 2.087 . S
O361 Mn355 2.163 . S
O361 C371 1.244 . S
O362 Mn360 2.089 . S
O362 C369 1.256 . S
O363 Mn355 2.160 . S
O363 C372 1.239 . S
O364 Mn357 2.089 . S
O364 C372 1.256 . S
O365 Mn360 2.251 . S
O365 C370 1.241 . S
O366 Mn360 2.087 . S
O366 C371 1.256 . S
C367 O373 1.278 . S
C367 O374 1.241 . S
C368 O354 1.244 . S
C368 O356 1.256 . S
C369 O358 1.239 . S
C369 O362 1.256 . S
C370 O359 1.278 . S
C370 O365 1.241 . S
C371 O361 1.244 . S
C371 O366 1.256 . S
C372 O363 1.239 . S
C372 O364 1.256 . S
O373 Mn355 2.221 . S
O373 Mn357 2.290 . S
O373 C367 1.278 . S
O374 Mn357 2.251 . S
O374 C367 1.241 . S
O375 Mn376 2.163 . S
O375 C389 1.244 . S
Mn376 O375 2.163 . S
Mn376 O379 2.160 . S
Mn376 O380 2.221 . S
Mn376 O382 2.163 . S
Mn376 O384 2.160 . S
Mn376 O394 2.221 . S
O377 Mn378 2.087 . S
O377 C389 1.256 . S
Mn378 O377 2.087 . S
Mn378 O385 2.089 . S
Mn378 O394 2.290 . S
Mn378 O395 2.251 . S
O379 Mn376 2.160 . S
O379 C390 1.239 . S
O380 Mn376 2.221 . S
O380 Mn381 2.290 . S
O380 C391 1.278 . S
Mn381 O380 2.290 . S
Mn381 O383 2.089 . S
Mn381 O386 2.251 . S
Mn381 O387 2.087 . S
O382 Mn376 2.163 . S
O382 C392 1.244 . S
O383 Mn381 2.089 . S
O383 C390 1.256 . S
O384 Mn376 2.160 . S
O384 C393 1.239 . S
O385 Mn378 2.089 . S
O385 C393 1.256 . S
O386 Mn381 2.251 . S
O386 C391 1.241 . S
O387 Mn381 2.087 . S
O387 C392 1.256 . S
C388 O394 1.278 . S
C388 O395 1.241 . S
C389 O375 1.244 . S
C389 O377 1.256 . S
C390 O379 1.239 . S
C390 O383 1.256 . S
C391 O380 1.278 . S
C391 O386 1.241 . S
C392 O382 1.244 . S
C392 O387 1.256 . S
C393 O384 1.239 . S
C393 O385 1.256 . S
O394 Mn376 2.221 . S
O394 Mn378 2.290 . S
O394 C388 1.278 . S
O395 Mn378 2.251 . S
O395 C388 1.241 . S
O396 Mn397 2.163 . S
O396 C410 1.244 . S
Mn397 O396 2.163 . S
Mn397 O400 2.160 . S
Mn397 O401 2.221 . S
Mn397 O403 2.163 . S
Mn397 O405 2.160 . S
Mn397 O415 2.221 . S
O398 Mn399 2.087 . S
O398 C410 1.256 . S
Mn399 O398 2.087 . S
Mn399 O406 2.089 . S
Mn399 O415 2.290 . S
Mn399 O416 2.251 . S
O400 Mn397 2.160 . S
O400 C411 1.239 . S
O401 Mn397 2.221 . S
O401 Mn402 2.290 . S
O401 C412 1.278 . S
Mn402 O401 2.290 . S
Mn402 O404 2.089 . S
Mn402 O407 2.251 . S
Mn402 O408 2.087 . S
O403 Mn397 2.163 . S
O403 C413 1.244 . S
O404 Mn402 2.089 . S
O404 C411 1.256 . S
O405 Mn397 2.160 . S
O405 C414 1.239 . S
O406 Mn399 2.089 . S
O406 C414 1.256 . S
O407 Mn402 2.251 . S
O407 C412 1.241 . S
O408 Mn402 2.087 . S
O408 C413 1.256 . S
C409 O415 1.278 . S
C409 O416 1.241 . S
C410 O396 1.244 . S
C410 O398 1.256 . S
C411 O400 1.239 . S
C411 O404 1.256 . S
C412 O401 1.278 . S
C412 O407 1.241 . S
C413 O403 1.244 . S
C413 O408 1.256 . S
C414 O405 1.239 . S
C414 O406 1.256 . S
O415 Mn397 2.221 . S
O415 Mn399 2.290 . S
O415 C409 1.278 . S
O416 Mn399 2.251 . S
O416 C409 1.241 . S
O417 Mn418 2.163 . S
O417 C431 1.244 . S
Mn418 O417 2.163 . S
Mn418 O421 2.160 . S
Mn418 O422 2.221 . S
Mn418 O424 2.163 . S
Mn418 O426 2.160 . S
Mn418 O436 2.221 . S
O419 Mn420 2.087 . S
O419 C431 1.256 . S
Mn420 O419 2.087 . S
Mn420 O427 2.089 . S
Mn420 O436 2.290 . S
Mn420 O437 2.251 . S
O421 Mn418 2.160 . S
O421 C432 1.239 . S
O422 Mn418 2.221 . S
O422 Mn423 2.290 . S
O422 C433 1.278 . S
Mn423 O422 2.290 . S
Mn423 O425 2.089 . S
Mn423 O428 2.251 . S
Mn423 O429 2.087 . S
O424 Mn418 2.163 . S
O424 C434 1.244 . S
O425 Mn423 2.089 . S
O425 C432 1.256 . S
O426 Mn418 2.160 . S
O426 C435 1.239 . S
O427 Mn420 2.089 . S
O427 C435 1.256 . S
O428 Mn423 2.251 . S
O428 C433 1.241 . S
O429 Mn423 2.087 . S
O429 C434 1.256 . S
C430 O436 1.278 . S
C430 O437 1.241 . S
C431 O417 1.244 . S
C431 O419 1.256 . S
C432 O421 1.239 . S
C432 O425 1.256 . S
C433 O422 1.278 . S
C433 O428 1.241 . S
C434 O424 1.244 . S
C434 O429 1.256 . S
C435 O426 1.239 . S
C435 O427 1.256 . S
O436 Mn418 2.221 . S
O436 Mn420 2.290 . S
O436 C430 1.278 . S
O437 Mn420 2.251 . S
O437 C430 1.241 . S
O438 Mn439 2.163 . S
O438 C452 1.244 . S
Mn439 O438 2.163 . S
Mn439 O442 2.160 . S
Mn439 O443 2.221 . S
Mn439 O445 2.163 . S
Mn439 O447 2.160 . S
Mn439 O457 2.221 . S
O440 Mn441 2.087 . S
O440 C452 1.256 . S
Mn441 O440 2.087 . S
Mn441 O448 2.089 . S
Mn441 O457 2.290 . S
Mn441 O458 2.251 . S
O442 Mn439 2.160 . S
O442 C453 1.239 . S
O443 Mn439 2.221 . S
O443 Mn444 2.290 . S
O443 C454 1.278 . S
Mn444 O443 2.290 . S
Mn444 O446 2.089 . S
Mn444 O449 2.251 . S
Mn444 O450 2.087 . S
O445 Mn439 2.163 . S
O445 C455 1.244 . S
O446 Mn444 2.089 . S
O446 C453 1.256 . S
O447 Mn439 2.160 . S
O447 C456 1.239 . S
O448 Mn441 2.089 . S
O448 C456 1.256 . S
O449 Mn444 2.251 . S
O449 C454 1.241 . S
O450 Mn444 2.087 . S
O450 C455 1.256 . S
C451 O457 1.278 . S
C451 O458 1.241 . S
C452 O438 1.244 . S
C452 O440 1.256 . S
C453 O442 1.239 . S
C453 O446 1.256 . S
C454 O443 1.278 . S
C454 O449 1.241 . S
C455 O445 1.244 . S
C455 O450 1.256 . S
C456 O447 1.239 . S
C456 O448 1.256 . S
O457 Mn439 2.221 . S
O457 Mn441 2.290 . S
O457 C451 1.278 . S
O458 Mn441 2.251 . S
O458 C451 1.241 . S
O459 Mn460 2.163 . S
O459 C473 1.244 . S
Mn460 O459 2.163 . S
Mn460 O463 2.160 . S
Mn460 O464 2.221 . S
Mn460 O466 2.163 . S
Mn460 O468 2.160 . S
Mn460 O478 2.221 . S
O461 Mn462 2.087 . S
O461 C473 1.256 . S
Mn462 O461 2.087 . S
Mn462 O469 2.089 . S
Mn462 O478 2.290 . S
Mn462 O479 2.251 . S
O463 Mn460 2.160 . S
O463 C474 1.239 . S
O464 Mn460 2.221 . S
O464 Mn465 2.290 . S
O464 C475 1.278 . S
Mn465 O464 2.290 . S
Mn465 O467 2.089 . S
Mn465 O470 2.251 . S
Mn465 O471 2.087 . S
O466 Mn460 2.163 . S
O466 C476 1.244 . S
O467 Mn465 2.089 . S
O467 C474 1.256 . S
O468 Mn460 2.160 . S
O468 C477 1.239 . S
O469 Mn462 2.089 . S
O469 C477 1.256 . S
O470 Mn465 2.251 . S
O470 C475 1.241 . S
O471 Mn465 2.087 . S
O471 C476 1.256 . S
C472 O478 1.278 . S
C472 O479 1.241 . S
C473 O459 1.244 . S
C473 O461 1.256 . S
C474 O463 1.239 . S
C474 O467 1.256 . S
C475 O464 1.278 . S
C475 O470 1.241 . S
C476 O466 1.244 . S
C476 O471 1.256 . S
C477 O468 1.239 . S
C477 O469 1.256 . S
O478 Mn460 2.221 . S
O478 Mn462 2.290 . S
O478 C472 1.278 . S
O479 Mn462 2.251 . S
O479 C472 1.241 . S
O480 Mn481 2.163 . S
O480 C494 1.244 . S
Mn481 O480 2.163 . S
Mn481 O484 2.160 . S
Mn481 O485 2.221 . S
Mn481 O487 2.163 . S
Mn481 O489 2.160 . S
Mn481 O499 2.221 . S
O482 Mn483 2.087 . S
O482 C494 1.256 . S
Mn483 O482 2.087 . S
Mn483 O490 2.089 . S
Mn483 O499 2.290 . S
Mn483 O500 2.251 . S
O484 Mn481 2.160 . S
O484 C495 1.239 . S
O485 Mn481 2.221 . S
O485 Mn486 2.290 . S
O485 C496 1.278 . S
Mn486 O485 2.290 . S
Mn486 O488 2.089 . S
Mn486 O491 2.251 . S
Mn486 O492 2.087 . S
O487 Mn481 2.163 . S
O487 C497 1.244 . S
O488 Mn486 2.089 . S
O488 C495 1.256 . S
O489 Mn481 2.160 . S
O489 C498 1.239 . S
O490 Mn483 2.089 . S
O490 C498 1.256 . S
O491 Mn486 2.251 . S
O491 C496 1.241 . S
O492 Mn486 2.087 . S
O492 C497 1.256 . S
C493 O499 1.278 . S
C493 O500 1.241 . S
C494 O480 1.244 . S
C494 O482 1.256 . S
C495 O484 1.239 . S
C495 O488 1.256 . S
C496 O485 1.278 . S
C496 O491 1.241 . S
C497 O487 1.244 . S
C497 O492 1.256 . S
C498 O489 1.239 . S
C498 O490 1.256 . S
O499 Mn481 2.221 . S
O499 Mn483 2.290 . S
O499 C493 1.278 . S
O500 Mn483 2.251 . S
O500 C493 1.241 . S
O501 Mn502 2.163 . S
O501 C515 1.244 . S
Mn502 O501 2.163 . S
Mn502 O505 2.160 . S
Mn502 O506 2.221 . S
Mn502 O508 2.163 . S
Mn502 O510 2.160 . S
Mn502 O520 2.221 . S
O503 Mn504 2.087 . S
O503 C515 1.256 . S
Mn504 O503 2.087 . S
Mn504 O511 2.089 . S
Mn504 O520 2.290 . S
Mn504 O521 2.251 . S
O505 Mn502 2.160 . S
O505 C516 1.239 . S
O506 Mn502 2.221 . S
O506 Mn507 2.290 . S
O506 C517 1.278 . S
Mn507 O506 2.290 . S
Mn507 O509 2.089 . S
Mn507 O512 2.251 . S
Mn507 O513 2.087 . S
O508 Mn502 2.163 . S
O508 C518 1.244 . S
O509 Mn507 2.089 . S
O509 C516 1.256 . S
O510 Mn502 2.160 . S
O510 C519 1.239 . S
O511 Mn504 2.089 . S
O511 C519 1.256 . S
O512 Mn507 2.251 . S
O512 C517 1.241 . S
O513 Mn507 2.087 . S
O513 C518 1.256 . S
C514 O520 1.278 . S
C514 O521 1.241 . S
C515 O501 1.244 . S
C515 O503 1.256 . S
C516 O505 1.239 . S
C516 O509 1.256 . S
C517 O506 1.278 . S
C517 O512 1.241 . S
C518 O508 1.244 . S
C518 O513 1.256 . S
C519 O510 1.239 . S
C519 O511 1.256 . S
O520 Mn502 2.221 . S
O520 Mn504 2.290 . S
O520 C514 1.278 . S
O521 Mn504 2.251 . S
O521 C514 1.241 . S
O522 Mn523 2.163 . S
O522 C536 1.244 . S
Mn523 O522 2.163 . S
Mn523 O526 2.160 . S
Mn523 O527 2.221 . S
Mn523 O529 2.163 . S
Mn523 O531 2.160 . S
Mn523 O541 2.221 . S
O524 Mn525 2.087 . S
O524 C536 1.256 . S
Mn525 O524 2.087 . S
Mn525 O532 2.089 . S
Mn525 O541 2.290 . S
Mn525 O542 2.251 . S
O526 Mn523 2.160 . S
O526 C537 1.239 . S
O527 Mn523 2.221 . S
O527 Mn528 2.290 . S
O527 C538 1.278 . S
Mn528 O527 2.290 . S
Mn528 O530 2.089 . S
Mn528 O533 2.251 . S
Mn528 O534 2.087 . S
O529 Mn523 2.163 . S
O529 C539 1.244 . S
O530 Mn528 2.089 . S
O530 C537 1.256 . S
O531 Mn523 2.160 . S
O531 C540 1.239 . S
O532 Mn525 2.089 . S
O532 C540 1.256 . S
O533 Mn528 2.251 . S
O533 C538 1.241 . S
O534 Mn528 2.087 . S
O534 C539 1.256 . S
C535 O541 1.278 . S
C535 O542 1.241 . S
C536 O522 1.244 . S
C536 O524 1.256 . S
C537 O526 1.239 . S
C537 O530 1.256 . S
C538 O527 1.278 . S
C538 O533 1.241 . S
C539 O529 1.244 . S
C539 O534 1.256 . S
C540 O531 1.239 . S
C540 O532 1.256 . S
O541 Mn523 2.221 . S
O541 Mn525 2.290 . S
O541 C535 1.278 . S
O542 Mn525 2.251 . S
O542 C535 1.241 . S
O543 Mn544 2.163 . S
O543 C557 1.244 . S
Mn544 O543 2.163 . S
Mn544 O547 2.160 . S
Mn544 O548 2.221 . S
Mn544 O550 2.163 . S
Mn544 O552 2.160 . S
Mn544 O562 2.221 . S
O545 Mn546 2.087 . S
O545 C557 1.256 . S
Mn546 O545 2.087 . S
Mn546 O553 2.089 . S
Mn546 O562 2.290 . S
Mn546 O563 2.251 . S
O547 Mn544 2.160 . S
O547 C558 1.239 . S
O548 Mn544 2.221 . S
O548 Mn549 2.290 . S
O548 C559 1.278 . S
Mn549 O548 2.290 . S
Mn549 O551 2.089 . S
Mn549 O554 2.251 . S
Mn549 O555 2.087 . S
O550 Mn544 2.163 . S
O550 C560 1.244 . S
O551 Mn549 2.089 . S
O551 C558 1.256 . S
O552 Mn544 2.160 . S
O552 C561 1.239 . S
O553 Mn546 2.089 . S
O553 C561 1.256 . S
O554 Mn549 2.251 . S
O554 C559 1.241 . S
O555 Mn549 2.087 . S
O555 C560 1.256 . S
C556 O562 1.278 . S
C556 O563 1.241 . S
C557 O543 1.244 . S
C557 O545 1.256 . S
C558 O547 1.239 . S
C558 O551 1.256 . S
C559 O548 1.278 . S
C559 O554 1.241 . S
C560 O550 1.244 . S
C560 O555 1.256 . S
C561 O552 1.239 . S
C561 O553 1.256 . S
O562 Mn544 2.221 . S
O562 Mn546 2.290 . S
O562 C556 1.278 . S
O563 Mn546 2.251 . S
O563 C556 1.241 . S
O564 Mn565 2.163 . S
O564 C578 1.244 . S
Mn565 O564 2.163 . S
Mn565 O568 2.160 . S
Mn565 O569 2.221 . S
Mn565 O571 2.163 . S
Mn565 O573 2.160 . S
Mn565 O583 2.221 . S
O566 Mn567 2.087 . S
O566 C578 1.256 . S
Mn567 O566 2.087 . S
Mn567 O574 2.089 . S
Mn567 O583 2.290 . S
Mn567 O584 2.251 . S
O568 Mn565 2.160 . S
O568 C579 1.239 . S
O569 Mn565 2.221 . S
O569 Mn570 2.290 . S
O569 C580 1.278 . S
Mn570 O569 2.290 . S
Mn570 O572 2.089 . S
Mn570 O575 2.251 . S
Mn570 O576 2.087 . S
O571 Mn565 2.163 . S
O571 C581 1.244 . S
O572 Mn570 2.089 . S
O572 C579 1.256 . S
O573 Mn565 2.160 . S
O573 C582 1.239 . S
O574 Mn567 2.089 . S
O574 C582 1.256 . S
O575 Mn570 2.251 . S
O575 C580 1.241 . S
O576 Mn570 2.087 . S
O576 C581 1.256 . S
C577 O583 1.278 . S
C577 O584 1.241 . S
C578 O564 1.244 . S
C578 O566 1.256 . S
C579 O568 1.239 . S
C579 O572 1.256 . S
C580 O569 1.278 . S
C580 O575 1.241 . S
C581 O571 1.244 . S
C581 O576 1.256 . S
C582 O573 1.239 . S
C582 O574 1.256 . S
O583 Mn565 2.221 . S
O583 Mn567 2.290 . S
O583 C577 1.278 . S
O584 Mn567 2.251 . S
O584 C577 1.241 . S
O585 Mn586 2.163 . S
O585 C599 1.244 . S
Mn586 O585 2.163 . S
Mn586 O589 2.160 . S
Mn586 O590 2.221 . S
Mn586 O592 2.163 . S
Mn586 O594 2.160 . S
Mn586 O604 2.221 . S
O587 Mn588 2.087 . S
O587 C599 1.256 . S
Mn588 O587 2.087 . S
Mn588 O595 2.089 . S
Mn588 O604 2.290 . S
Mn588 O605 2.251 . S
O589 Mn586 2.160 . S
O589 C600 1.239 . S
O590 Mn586 2.221 . S
O590 Mn591 2.290 . S
O590 C601 1.278 . S
Mn591 O590 2.290 . S
Mn591 O593 2.089 . S
Mn591 O596 2.251 . S
Mn591 O597 2.087 . S
O592 Mn586 2.163 . S
O592 C602 1.244 . S
O593 Mn591 2.089 . S
O593 C600 1.256 . S
O594 Mn586 2.160 . S
O594 C603 1.239 . S
O595 Mn588 2.089 . S
O595 C603 1.256 . S
O596 Mn591 2.251 . S
O596 C601 1.241 . S
O597 Mn591 2.087 . S
O597 C602 1.256 . S
C598 O604 1.278 . S
C598 O605 1.241 . S
C599 O585 1.244 . S
C599 O587 1.256 . S
C600 O589 1.239 . S
C600 O593 1.256 . S
C601 O590 1.278 . S
C601 O596 1.241 . S
C602 O592 1.244 . S
C602 O597 1.256 . S
C603 O594 1.239 . S
C603 O595 1.256 . S
O604 Mn586 2.221 . S
O604 Mn588 2.290 . S
O604 C598 1.278 . S
O605 Mn588 2.251 . S
O605 C598 1.241 . S
O606 Mn607 2.163 . S
O606 C620 1.244 . S
Mn607 O606 2.163 . S
Mn607 O610 2.160 . S
Mn607 O611 2.221 . S
Mn607 O613 2.163 . S
Mn607 O615 2.160 . S
Mn607 O625 2.221 . S
O608 Mn609 2.087 . S
O608 C620 1.256 . S
Mn609 O608 2.087 . S
Mn609 O616 2.089 . S
Mn609 O625 2.290 . S
Mn609 O626 2.251 . S
O610 Mn607 2.160 . S
O610 C621 1.239 . S
O611 Mn607 2.221 . S
O611 Mn612 2.290 . S
O611 C622 1.278 . S
Mn612 O611 2.290 . S
Mn612 O614 2.089 . S
Mn612 O617 2.251 . S
Mn612 O618 2.087 . S
O613 Mn607 2.163 . S
O613 C623 1.244 . S
O614 Mn612 2.089 . S
O614 C621 1.256 . S
O615 Mn607 2.160 . S
O615 C624 1.239 . S
O616 Mn609 2.089 . S
O616 C624 1.256 . S
O617 Mn612 2.251 . S
O617 C622 1.241 . S
O618 Mn612 2.087 . S
O618 C623 1.256 . S
C619 O625 1.278 . S
C619 O626 1.241 . S
C620 O606 1.244 . S
C620 O608 1.256 . S
C621 O610 1.239 . S
C621 O614 1.256 . S
C622 O611 1.278 . S
C622 O617 1.241 . S
C623 O613 1.244 . S
C623 O618 1.256 . S
C624 O615 1.239 . S
C624 O616 1.256 . S
O625 Mn607 2.221 . S
O625 Mn609 2.290 . S
O625 C619 1.278 . S
O626 Mn609 2.251 . S
O626 C619 1.241 . S
O627 Mn628 2.163 . S
O627 C641 1.244 . S
Mn628 O627 2.163 . S
Mn628 O631 2.160 . S
Mn628 O632 2.221 . S
Mn628 O634 2.163 . S
Mn628 O636 2.160 . S
Mn628 O646 2.221 . S
O629 Mn630 2.087 . S
O629 C641 1.256 . S
Mn630 O629 2.087 . S
Mn630 O637 2.089 . S
Mn630 O646 2.290 . S
Mn630 O647 2.251 . S
O631 Mn628 2.160 . S
O631 C642 1.239 . S
O632 Mn628 2.221 . S
O632 Mn633 2.290 . S
O632 C643 1.278 . S
Mn633 O632 2.290 . S
Mn633 O635 2.089 . S
Mn633 O638 2.251 . S
Mn633 O639 2.087 . S
O634 Mn628 2.163 . S
O634 C644 1.244 . S
O635 Mn633 2.089 . S
O635 C642 1.256 . S
O636 Mn628 2.160 . S
O636 C645 1.239 . S
O637 Mn630 2.089 . S
O637 C645 1.256 . S
O638 Mn633 2.251 . S
O638 C643 1.241 . S
O639 Mn633 2.087 . S
O639 C644 1.256 . S
C640 O646 1.278 . S
C640 O647 1.241 . S
C641 O627 1.244 . S
C641 O629 1.256 . S
C642 O631 1.239 . S
C642 O635 1.256 . S
C643 O632 1.278 . S
C643 O638 1.241 . S
C644 O634 1.244 . S
C644 O639 1.256 . S
C645 O636 1.239 . S
C645 O637 1.256 . S
O646 Mn628 2.221 . S
O646 Mn630 2.290 . S
O646 C640 1.278 . S
O647 Mn630 2.251 . S
O647 C640 1.241 . S
H648 C656 0.950 . S
H649 C661 0.950 . S
H650 C658 0.950 . S
H651 C660 0.950 . S
H652 C662 0.950 . S
H653 C664 0.950 . S
H654 C666 0.950 . S
H655 C667 0.950 . S
C656 H648 0.950 . S
C656 C657 1.386 . S
C656 C658 1.391 . S
C657 C656 1.386 . S
C657 C661 1.393 . S
C658 H650 0.950 . S
C658 C656 1.391 . S
C658 C659 1.400 . S
C659 C658 1.400 . S
C659 C660 1.398 . S
C659 C665 1.491 . S
C660 H651 0.950 . S
C660 C659 1.398 . S
C660 C661 1.391 . S
C661 H649 0.950 . S
C661 C657 1.393 . S
C661 C660 1.391 . S
C662 H652 0.950 . S
C662 C663 1.386 . S
C662 C664 1.391 . S
C663 C662 1.386 . S
C663 C667 1.393 . S
C664 H653 0.950 . S
C664 C662 1.391 . S
C664 C665 1.400 . S
C665 C659 1.491 . S
C665 C664 1.400 . S
C665 C666 1.398 . S
C666 H654 0.950 . S
C666 C665 1.398 . S
C666 C667 1.391 . S
C667 H655 0.950 . S
C667 C663 1.393 . S
C667 C666 1.391 . S
H668 C676 0.950 . S
H669 C681 0.950 . S
H670 C678 0.950 . S
H671 C680 0.950 . S
H672 C682 0.950 . S
H673 C684 0.950 . S
H674 C686 0.950 . S
H675 C687 0.950 . S
C676 H668 0.950 . S
C676 C677 1.386 . S
C676 C678 1.391 . S
C677 C676 1.386 . S
C677 C681 1.393 . S
C678 H670 0.950 . S
C678 C676 1.391 . S
C678 C679 1.400 . S
C679 C678 1.400 . S
C679 C680 1.398 . S
C679 C685 1.491 . S
C680 H671 0.950 . S
C680 C679 1.398 . S
C680 C681 1.391 . S
C681 H669 0.950 . S
C681 C677 1.393 . S
C681 C680 1.391 . S
C682 H672 0.950 . S
C682 C683 1.386 . S
C682 C684 1.391 . S
C683 C682 1.386 . S
C683 C687 1.393 . S
C684 H673 0.950 . S
C684 C682 1.391 . S
C684 C685 1.400 . S
C685 C679 1.491 . S
C685 C684 1.400 . S
C685 C686 1.398 . S
C686 H674 0.950 . S
C686 C685 1.398 . S
C686 C687 1.391 . S
C687 H675 0.950 . S
C687 C683 1.393 . S
C687 C686 1.391 . S
H688 C696 0.950 . S
H689 C701 0.950 . S
H690 C698 0.950 . S
H691 C700 0.950 . S
H692 C702 0.950 . S
H693 C704 0.950 . S
H694 C706 0.950 . S
H695 C707 0.950 . S
C696 H688 0.950 . S
C696 C697 1.386 . S
C696 C698 1.391 . S
C697 C696 1.386 . S
C697 C701 1.393 . S
C698 H690 0.950 . S
C698 C696 1.391 . S
C698 C699 1.400 . S
C699 C698 1.400 . S
C699 C700 1.398 . S
C699 C705 1.491 . S
C700 H691 0.950 . S
C700 C699 1.398 . S
C700 C701 1.391 . S
C701 H689 0.950 . S
C701 C697 1.393 . S
C701 C700 1.391 . S
C702 H692 0.950 . S
C702 C703 1.386 . S
C702 C704 1.391 . S
C703 C702 1.386 . S
C703 C707 1.393 . S
C704 H693 0.950 . S
C704 C702 1.391 . S
C704 C705 1.400 . S
C705 C699 1.491 . S
C705 C704 1.400 . S
C705 C706 1.398 . S
C706 H694 0.950 . S
C706 C705 1.398 . S
C706 C707 1.391 . S
C707 H695 0.950 . S
C707 C703 1.393 . S
C707 C706 1.391 . S
H708 C716 0.950 . S
H709 C721 0.950 . S
H710 C718 0.950 . S
H711 C720 0.950 . S
H712 C722 0.950 . S
H713 C724 0.950 . S
H714 C726 0.950 . S
H715 C727 0.950 . S
C716 H708 0.950 . S
C716 C717 1.386 . S
C716 C718 1.391 . S
C717 C716 1.386 . S
C717 C721 1.393 . S
C718 H710 0.950 . S
C718 C716 1.391 . S
C718 C719 1.400 . S
C719 C718 1.400 . S
C719 C720 1.398 . S
C719 C725 1.491 . S
C720 H711 0.950 . S
C720 C719 1.398 . S
C720 C721 1.391 . S
C721 H709 0.950 . S
C721 C717 1.393 . S
C721 C720 1.391 . S
C722 H712 0.950 . S
C722 C723 1.386 . S
C722 C724 1.391 . S
C723 C722 1.386 . S
C723 C727 1.393 . S
C724 H713 0.950 . S
C724 C722 1.391 . S
C724 C725 1.400 1_556 S
C725 C719 1.491 . S
C725 C724 1.400 1_554 S
C725 C726 1.398 . S
C726 H714 0.950 . S
C726 C725 1.398 . S
C726 C727 1.391 1_554 S
C727 H715 0.950 . S
C727 C723 1.393 . S
C727 C726 1.391 1_556 S
H728 C736 0.950 . S
H729 C741 0.950 . S
H730 C738 0.950 . S
H731 C740 0.950 . S
H732 C742 0.950 . S
H733 C744 0.950 . S
H734 C746 0.950 . S
H735 C747 0.950 . S
C736 H728 0.950 . S
C736 C737 1.386 . S
C736 C738 1.391 . S
C737 C736 1.386 . S
C737 C741 1.393 . S
C738 H730 0.950 . S
C738 C736 1.391 . S
C738 C739 1.400 . S
C739 C738 1.400 . S
C739 C740 1.398 . S
C739 C745 1.491 . S
C740 H731 0.950 . S
C740 C739 1.398 . S
C740 C741 1.391 . S
C741 H729 0.950 . S
C741 C737 1.393 . S
C741 C740 1.391 . S
C742 H732 0.950 . S
C742 C743 1.386 . S
C742 C744 1.391 . S
C743 C742 1.386 . S
C743 C747 1.393 . S
C744 H733 0.950 . S
C744 C742 1.391 . S
C744 C745 1.400 . S
C745 C739 1.491 . S
C745 C744 1.400 . S
C745 C746 1.398 . S
C746 H734 0.950 . S
C746 C745 1.398 . S
C746 C747 1.391 . S
C747 H735 0.950 . S
C747 C743 1.393 . S
C747 C746 1.391 . S
H748 C756 0.950 . S
H749 C761 0.950 . S
H750 C758 0.950 . S
H751 C760 0.950 . S
H752 C762 0.950 . S
H753 C764 0.950 . S
H754 C766 0.950 . S
H755 C767 0.950 . S
C756 H748 0.950 . S
C756 C757 1.386 . S
C756 C758 1.391 . S
C757 C756 1.386 . S
C757 C761 1.393 . S
C758 H750 0.950 . S
C758 C756 1.391 . S
C758 C759 1.400 . S
C759 C758 1.400 . S
C759 C760 1.398 . S
C759 C765 1.491 . S
C760 H751 0.950 . S
C760 C759 1.398 . S
C760 C761 1.391 . S
C761 H749 0.950 . S
C761 C757 1.393 . S
C761 C760 1.391 . S
C762 H752 0.950 . S
C762 C763 1.386 . S
C762 C764 1.391 . S
C763 C762 1.386 . S
C763 C767 1.393 . S
C764 H753 0.950 . S
C764 C762 1.391 . S
C764 C765 1.400 . S
C765 C759 1.491 . S
C765 C764 1.400 . S
C765 C766 1.398 . S
C766 H754 0.950 . S
C766 C765 1.398 . S
C766 C767 1.391 . S
C767 H755 0.950 . S
C767 C763 1.393 . S
C767 C766 1.391 . S
H768 C776 0.950 . S
H769 C781 0.950 . S
H770 C778 0.950 . S
H771 C780 0.950 . S
H772 C782 0.950 . S
H773 C784 0.950 . S
H774 C786 0.950 . S
H775 C787 0.950 . S
C776 H768 0.950 . S
C776 C777 1.386 . S
C776 C778 1.391 . S
C777 C776 1.386 . S
C777 C781 1.393 . S
C778 H770 0.950 . S
C778 C776 1.391 . S
C778 C779 1.400 . S
C779 C778 1.400 . S
C779 C780 1.398 . S
C779 C785 1.491 . S
C780 H771 0.950 . S
C780 C779 1.398 . S
C780 C781 1.391 . S
C781 H769 0.950 . S
C781 C777 1.393 . S
C781 C780 1.391 . S
C782 H772 0.950 . S
C782 C783 1.386 . S
C782 C784 1.391 . S
C783 C782 1.386 . S
C783 C787 1.393 . S
C784 H773 0.950 . S
C784 C782 1.391 . S
C784 C785 1.400 . S
C785 C779 1.491 . S
C785 C784 1.400 . S
C785 C786 1.398 . S
C786 H774 0.950 . S
C786 C785 1.398 . S
C786 C787 1.391 . S
C787 H775 0.950 . S
C787 C783 1.393 . S
C787 C786 1.391 . S
H788 C796 0.950 . S
H789 C801 0.950 . S
H790 C798 0.950 . S
H791 C800 0.950 . S
H792 C802 0.950 . S
H793 C804 0.950 . S
H794 C806 0.950 . S
H795 C807 0.950 . S
C796 H788 0.950 . S
C796 C797 1.386 . S
C796 C798 1.391 1_556 S
C797 C796 1.386 . S
C797 C801 1.393 . S
C798 H790 0.950 . S
C798 C796 1.391 1_554 S
C798 C799 1.400 . S
C799 C798 1.400 . S
C799 C800 1.398 1_554 S
C799 C805 1.491 . S
C800 H791 0.950 . S
C800 C799 1.398 1_556 S
C800 C801 1.391 . S
C801 H789 0.950 . S
C801 C797 1.393 . S
C801 C800 1.391 . S
C802 H792 0.950 . S
C802 C803 1.386 . S
C802 C804 1.391 . S
C803 C802 1.386 . S
C803 C807 1.393 . S
C804 H793 0.950 . S
C804 C802 1.391 . S
C804 C805 1.400 . S
C805 C799 1.491 . S
C805 C804 1.400 . S
C805 C806 1.398 . S
C806 H794 0.950 . S
C806 C805 1.398 . S
C806 C807 1.391 . S
C807 H795 0.950 . S
C807 C803 1.393 . S
C807 C806 1.391 . S
H808 C816 0.950 . S
H809 C821 0.950 . S
H810 C818 0.950 . S
H811 C820 0.950 . S
H812 C822 0.950 . S
H813 C824 0.950 . S
H814 C826 0.950 . S
H815 C827 0.950 . S
C816 H808 0.950 . S
C816 C817 1.386 . S
C816 C818 1.391 . S
C817 C816 1.386 . S
C817 C821 1.393 . S
C818 H810 0.950 . S
C818 C816 1.391 . S
C818 C819 1.400 . S
C819 C818 1.400 . S
C819 C820 1.398 . S
C819 C825 1.491 . S
C820 H811 0.950 . S
C820 C819 1.398 . S
C820 C821 1.391 . S
C821 H809 0.950 . S
C821 C817 1.393 . S
C821 C820 1.391 . S
C822 H812 0.950 . S
C822 C823 1.386 . S
C822 C824 1.391 . S
C823 C822 1.386 . S
C823 C827 1.393 . S
C824 H813 0.950 . S
C824 C822 1.391 . S
C824 C825 1.400 . S
C825 C819 1.491 . S
C825 C824 1.400 . S
C825 C826 1.398 . S
C826 H814 0.950 . S
C826 C825 1.398 . S
C826 C827 1.391 . S
C827 H815 0.950 . S
C827 C823 1.393 . S
C827 C826 1.391 . S
H828 C836 0.950 . S
H829 C841 0.950 . S
H830 C838 0.950 . S
H831 C840 0.950 . S
H832 C842 0.950 . S
H833 C844 0.950 . S
H834 C846 0.950 . S
H835 C847 0.950 . S
C836 H828 0.950 . S
C836 C837 1.386 . S
C836 C838 1.391 . S
C837 C836 1.386 . S
C837 C841 1.393 . S
C838 H830 0.950 . S
C838 C836 1.391 . S
C838 C839 1.400 . S
C839 C838 1.400 . S
C839 C840 1.398 . S
C839 C845 1.491 . S
C840 H831 0.950 . S
C840 C839 1.398 . S
C840 C841 1.391 . S
C841 H829 0.950 . S
C841 C837 1.393 . S
C841 C840 1.391 . S
C842 H832 0.950 . S
C842 C843 1.386 . S
C842 C844 1.391 1_565 S
C843 C842 1.386 . S
C843 C847 1.393 . S
C844 H833 0.950 . S
C844 C842 1.391 1_545 S
C844 C845 1.400 . S
C845 C839 1.491 . S
C845 C844 1.400 . S
C845 C846 1.398 1_545 S
C846 H834 0.950 . S
C846 C845 1.398 1_565 S
C846 C847 1.391 . S
C847 H835 0.950 . S
C847 C843 1.393 . S
C847 C846 1.391 . S
H848 C856 0.950 . S
H849 C861 0.950 . S
H850 C858 0.950 . S
H851 C860 0.950 . S
H852 C862 0.950 . S
H853 C864 0.950 1_545 S
H854 C866 0.950 . S
H855 C867 0.950 . S
C856 H848 0.950 . S
C856 C857 1.386 1_565 S
C856 C858 1.391 . S
C857 C856 1.386 1_545 S
C857 C861 1.393 . S
C858 H850 0.950 . S
C858 C856 1.391 . S
C858 C859 1.400 . S
C859 C858 1.400 . S
C859 C860 1.398 1_565 S
C859 C865 1.491 . S
C860 H851 0.950 . S
C860 C859 1.398 1_545 S
C860 C861 1.391 . S
C861 H849 0.950 . S
C861 C857 1.393 . S
C861 C860 1.391 . S
C862 H852 0.950 . S
C862 C863 1.386 . S
C862 C864 1.391 . S
C863 C862 1.386 . S
C863 C867 1.393 . S
C864 H853 0.950 1_565 S
C864 C862 1.391 . S
C864 C865 1.400 . S
C865 C859 1.491 . S
C865 C864 1.400 . S
C865 C866 1.398 . S
C866 H854 0.950 . S
C866 C865 1.398 . S
C866 C867 1.391 . S
C867 H855 0.950 . S
C867 C863 1.393 . S
C867 C866 1.391 . S
H868 C876 0.950 . S
H869 C881 0.950 . S
H870 C878 0.950 . S
H871 C880 0.950 . S
H872 C882 0.950 . S
H873 C884 0.950 . S
H874 C886 0.950 . S
H875 C887 0.950 . S
C876 H868 0.950 . S
C876 C877 1.386 1_545 S
C876 C878 1.391 . S
C877 C876 1.386 1_565 S
C877 C881 1.393 . S
C878 H870 0.950 . S
C878 C876 1.391 . S
C878 C879 1.400 . S
C879 C878 1.400 . S
C879 C880 1.398 . S
C879 C885 1.491 . S
C880 H871 0.950 . S
C880 C879 1.398 . S
C880 C881 1.391 1_545 S
C881 H869 0.950 . S
C881 C877 1.393 . S
C881 C880 1.391 1_565 S
C882 H872 0.950 . S
C882 C883 1.386 . S
C882 C884 1.391 . S
C883 C882 1.386 . S
C883 C887 1.393 . S
C884 H873 0.950 . S
C884 C882 1.391 . S
C884 C885 1.400 . S
C885 C879 1.491 . S
C885 C884 1.400 . S
C885 C886 1.398 . S
C886 H874 0.950 . S
C886 C885 1.398 . S
C886 C887 1.391 . S
C887 H875 0.950 . S
C887 C883 1.393 . S
C887 C886 1.391 . S
H888 C896 0.950 . S
H889 C901 0.950 . S
H890 C898 0.950 . S
H891 C900 0.950 . S
H892 C902 0.950 . S
H893 C904 0.950 . S
H894 C906 0.950 . S
H895 C907 0.950 . S
C896 H888 0.950 . S
C896 C897 1.386 . S
C896 C898 1.391 . S
C897 C896 1.386 . S
C897 C901 1.393 . S
C898 H890 0.950 . S
C898 C896 1.391 . S
C898 C899 1.400 . S
C899 C898 1.400 . S
C899 C900 1.398 . S
C899 C905 1.491 . S
C900 H891 0.950 . S
C900 C899 1.398 . S
C900 C901 1.391 . S
C901 H889 0.950 . S
C901 C897 1.393 . S
C901 C900 1.391 . S
C902 H892 0.950 . S
C902 C903 1.386 . S
C902 C904 1.391 . S
C903 C902 1.386 . S
C903 C907 1.393 . S
C904 H893 0.950 . S
C904 C902 1.391 . S
C904 C905 1.400 . S
C905 C899 1.491 . S
C905 C904 1.400 . S
C905 C906 1.398 . S
C906 H894 0.950 . S
C906 C905 1.398 . S
C906 C907 1.391 . S
C907 H895 0.950 . S
C907 C903 1.393 . S
C907 C906 1.391 . S
H908 C916 0.950 . S
H909 C921 0.950 . S
H910 C918 0.950 . S
H911 C920 0.950 . S
H912 C922 0.950 . S
H913 C924 0.950 . S
H914 C926 0.950 . S
H915 C927 0.950 . S
C916 H908 0.950 . S
C916 C917 1.386 . S
C916 C918 1.391 . S
C917 C916 1.386 . S
C917 C921 1.393 . S
C918 H910 0.950 . S
C918 C916 1.391 . S
C918 C919 1.400 . S
C919 C918 1.400 . S
C919 C920 1.398 . S
C919 C925 1.491 . S
C920 H911 0.950 . S
C920 C919 1.398 . S
C920 C921 1.391 . S
C921 H909 0.950 . S
C921 C917 1.393 . S
C921 C920 1.391 . S
C922 H912 0.950 . S
C922 C923 1.386 1_545 S
C922 C924 1.391 . S
C923 C922 1.386 1_565 S
C923 C927 1.393 . S
C924 H913 0.950 . S
C924 C922 1.391 . S
C924 C925 1.400 . S
C925 C919 1.491 . S
C925 C924 1.400 . S
C925 C926 1.398 . S
C926 H914 0.950 . S
C926 C925 1.398 . S
C926 C927 1.391 1_545 S
C927 H915 0.950 . S
C927 C923 1.393 . S
C927 C926 1.391 1_565 S
H928 C936 0.950 . S
H929 C941 0.950 . S
H930 C938 0.950 . S
H931 C940 0.950 . S
H932 C942 0.950 . S
H933 C944 0.950 . S
H934 C946 0.950 . S
H935 C947 0.950 . S
C936 H928 0.950 . S
C936 C937 1.386 . S
C936 C938 1.391 . S
C937 C936 1.386 . S
C937 C941 1.393 . S
C938 H930 0.950 . S
C938 C936 1.391 . S
C938 C939 1.400 . S
C939 C938 1.400 . S
C939 C940 1.398 . S
C939 C945 1.491 . S
C940 H931 0.950 . S
C940 C939 1.398 . S
C940 C941 1.391 . S
C941 H929 0.950 . S
C941 C937 1.393 . S
C941 C940 1.391 . S
C942 H932 0.950 . S
C942 C943 1.386 . S
C942 C944 1.391 . S
C943 C942 1.386 . S
C943 C947 1.393 . S
C944 H933 0.950 . S
C944 C942 1.391 . S
C944 C945 1.400 . S
C945 C939 1.491 . S
C945 C944 1.400 . S
C945 C946 1.398 . S
C946 H934 0.950 . S
C946 C945 1.398 . S
C946 C947 1.391 . S
C947 H935 0.950 . S
C947 C943 1.393 . S
C947 C946 1.391 . S
H948 C956 0.950 . S
H949 C961 0.950 . S
H950 C958 0.950 . S
H951 C960 0.950 . S
H952 C962 0.950 . S
H953 C964 0.950 . S
H954 C966 0.950 . S
H955 C967 0.950 . S
C956 H948 0.950 . S
C956 C957 1.386 . S
C956 C958 1.391 1_565 S
C957 C956 1.386 . S
C957 C961 1.393 . S
C958 H950 0.950 . S
C958 C956 1.391 1_545 S
C958 C959 1.400 . S
C959 C958 1.400 . S
C959 C960 1.398 . S
C959 C965 1.491 . S
C960 H951 0.950 . S
C960 C959 1.398 . S
C960 C961 1.391 1_545 S
C961 H949 0.950 . S
C961 C957 1.393 . S
C961 C960 1.391 1_565 S
C962 H952 0.950 . S
C962 C963 1.386 . S
C962 C964 1.391 . S
C963 C962 1.386 . S
C963 C967 1.393 . S
C964 H953 0.950 . S
C964 C962 1.391 . S
C964 C965 1.400 . S
C965 C959 1.491 . S
C965 C964 1.400 . S
C965 C966 1.398 . S
C966 H954 0.950 . S
C966 C965 1.398 . S
C966 C967 1.391 . S
C967 H955 0.950 . S
C967 C963 1.393 . S
C967 C966 1.391 . S
H968 C976 0.950 . S
H969 C981 0.950 . S
H970 C978 0.950 . S
H971 C980 0.950 . S
H972 C982 0.950 . S
H973 C984 0.950 . S
H974 C986 0.950 . S
H975 C987 0.950 . S
C976 H968 0.950 . S
C976 C977 1.386 . S
C976 C978 1.391 . S
C977 C976 1.386 . S
C977 C981 1.393 . S
C978 H970 0.950 . S
C978 C976 1.391 . S
C978 C979 1.400 . S
C979 C978 1.400 . S
C979 C980 1.398 . S
C979 C985 1.491 . S
C980 H971 0.950 . S
C980 C979 1.398 . S
C980 C981 1.391 . S
C981 H969 0.950 . S
C981 C977 1.393 . S
C981 C980 1.391 . S
C982 H972 0.950 . S
C982 C983 1.386 . S
C982 C984 1.391 . S
C983 C982 1.386 . S
C983 C987 1.393 . S
C984 H973 0.950 . S
C984 C982 1.391 . S
C984 C985 1.400 . S
C985 C979 1.491 . S
C985 C984 1.400 . S
C985 C986 1.398 . S
C986 H974 0.950 . S
C986 C985 1.398 . S
C986 C987 1.391 . S
C987 H975 0.950 . S
C987 C983 1.393 . S
C987 C986 1.391 . S
H988 C996 0.950 . S
H989 C1001 0.950 1_554 S
H990 C998 0.950 . S
H991 C1000 0.950 . S
H992 C1002 0.950 . S
H993 C1004 0.950 . S
H994 C1006 0.950 . S
H995 C1007 0.950 . S
C996 H988 0.950 . S
C996 C997 1.386 . S
C996 C998 1.391 . S
C997 C996 1.386 . S
C997 C1001 1.393 . S
C998 H990 0.950 . S
C998 C996 1.391 . S
C998 C999 1.400 . S
C999 C998 1.400 . S
C999 C1000 1.398 . S
C999 C1005 1.491 . S
C1000 H991 0.950 . S
C1000 C999 1.398 . S
C1000 C1001 1.391 . S
C1001 H989 0.950 1_556 S
C1001 C997 1.393 . S
C1001 C1000 1.391 . S
C1002 H992 0.950 . S
C1002 C1003 1.386 . S
C1002 C1004 1.391 . S
C1003 C1002 1.386 . S
C1003 C1007 1.393 . S
C1004 H993 0.950 . S
C1004 C1002 1.391 . S
C1004 C1005 1.400 . S
C1005 C999 1.491 . S
C1005 C1004 1.400 . S
C1005 C1006 1.398 . S
C1006 H994 0.950 . S
C1006 C1005 1.398 . S
C1006 C1007 1.391 . S
C1007 H995 0.950 . S
C1007 C1003 1.393 . S
C1007 C1006 1.391 . S
H1008 C1016 0.950 . S
H1009 C1021 0.950 . S
H1010 C1018 0.950 . S
H1011 C1020 0.950 . S
H1012 C1022 0.950 . S
H1013 C1024 0.950 . S
H1014 C1026 0.950 . S
H1015 C1027 0.950 . S
C1016 H1008 0.950 . S
C1016 C1017 1.386 . S
C1016 C1018 1.391 . S
C1017 C1016 1.386 . S
C1017 C1021 1.393 . S
C1018 H1010 0.950 . S
C1018 C1016 1.391 . S
C1018 C1019 1.400 . S
C1019 C1018 1.400 . S
C1019 C1020 1.398 . S
C1019 C1025 1.491 . S
C1020 H1011 0.950 . S
C1020 C1019 1.398 . S
C1020 C1021 1.391 . S
C1021 H1009 0.950 . S
C1021 C1017 1.393 . S
C1021 C1020 1.391 . S
C1022 H1012 0.950 . S
C1022 C1023 1.386 . S
C1022 C1024 1.391 1_655 S
C1023 C1022 1.386 . S
C1023 C1027 1.393 . S
C1024 H1013 0.950 . S
C1024 C1022 1.391 1_455 S
C1024 C1025 1.400 . S
C1025 C1019 1.491 . S
C1025 C1024 1.400 . S
C1025 C1026 1.398 1_455 S
C1026 H1014 0.950 . S
C1026 C1025 1.398 1_655 S
C1026 C1027 1.391 . S
C1027 H1015 0.950 . S
C1027 C1023 1.393 . S
C1027 C1026 1.391 . S
H1028 C1036 0.950 . S
H1029 C1041 0.950 . S
H1030 C1038 0.950 . S
H1031 C1040 0.950 . S
H1032 C1042 0.950 . S
H1033 C1044 0.950 . S
H1034 C1046 0.950 . S
H1035 C1047 0.950 . S
C1036 H1028 0.950 . S
C1036 C1037 1.386 . S
C1036 C1038 1.391 . S
C1037 C1036 1.386 . S
C1037 C1041 1.393 . S
C1038 H1030 0.950 . S
C1038 C1036 1.391 . S
C1038 C1039 1.400 . S
C1039 C1038 1.400 . S
C1039 C1040 1.398 . S
C1039 C1045 1.491 . S
C1040 H1031 0.950 . S
C1040 C1039 1.398 . S
C1040 C1041 1.391 . S
C1041 H1029 0.950 . S
C1041 C1037 1.393 . S
C1041 C1040 1.391 . S
C1042 H1032 0.950 . S
C1042 C1043 1.386 . S
C1042 C1044 1.391 . S
C1043 C1042 1.386 . S
C1043 C1047 1.393 . S
C1044 H1033 0.950 . S
C1044 C1042 1.391 . S
C1044 C1045 1.400 . S
C1045 C1039 1.491 . S
C1045 C1044 1.400 . S
C1045 C1046 1.398 . S
C1046 H1034 0.950 . S
C1046 C1045 1.398 . S
C1046 C1047 1.391 . S
C1047 H1035 0.950 . S
C1047 C1043 1.393 . S
C1047 C1046 1.391 . S
H1048 C1056 0.950 . S
H1049 C1061 0.950 . S
H1050 C1058 0.950 1_455 S
H1051 C1060 0.950 . S
H1052 C1062 0.950 . S
H1053 C1064 0.950 . S
H1054 C1066 0.950 . S
H1055 C1067 0.950 . S
C1056 H1048 0.950 . S
C1056 C1057 1.386 . S
C1056 C1058 1.391 . S
C1057 C1056 1.386 . S
C1057 C1061 1.393 . S
C1058 H1050 0.950 1_655 S
C1058 C1056 1.391 . S
C1058 C1059 1.400 . S
C1059 C1058 1.400 . S
C1059 C1060 1.398 . S
C1059 C1065 1.491 1_655 S
C1060 H1051 0.950 . S
C1060 C1059 1.398 . S
C1060 C1061 1.391 . S
C1061 H1049 0.950 . S
C1061 C1057 1.393 . S
C1061 C1060 1.391 . S
C1062 H1052 0.950 . S
C1062 C1063 1.386 . S
C1062 C1064 1.391 . S
C1063 C1062 1.386 . S
C1063 C1067 1.393 . S
C1064 H1053 0.950 . S
C1064 C1062 1.391 . S
C1064 C1065 1.400 . S
C1065 C1059 1.491 1_455 S
C1065 C1064 1.400 . S
C1065 C1066 1.398 . S
C1066 H1054 0.950 . S
C1066 C1065 1.398 . S
C1066 C1067 1.391 . S
C1067 H1055 0.950 . S
C1067 C1063 1.393 . S
C1067 C1066 1.391 . S
H1068 C1076 0.950 . S
H1069 C1081 0.950 . S
H1070 C1078 0.950 . S
H1071 C1080 0.950 . S
H1072 C1082 0.950 . S
H1073 C1084 0.950 . S
H1074 C1086 0.950 . S
H1075 C1087 0.950 . S
C1076 H1068 0.950 . S
C1076 C1077 1.386 . S
C1076 C1078 1.391 . S
C1077 C1076 1.386 . S
C1077 C1081 1.393 . S
C1078 H1070 0.950 . S
C1078 C1076 1.391 . S
C1078 C1079 1.400 . S
C1079 C1078 1.400 . S
C1079 C1080 1.398 . S
C1079 C1085 1.491 . S
C1080 H1071 0.950 . S
C1080 C1079 1.398 . S
C1080 C1081 1.391 . S
C1081 H1069 0.950 . S
C1081 C1077 1.393 . S
C1081 C1080 1.391 . S
C1082 H1072 0.950 . S
C1082 C1083 1.386 . S
C1082 C1084 1.391 . S
C1083 C1082 1.386 . S
C1083 C1087 1.393 . S
C1084 H1073 0.950 . S
C1084 C1082 1.391 . S
C1084 C1085 1.400 . S
C1085 C1079 1.491 . S
C1085 C1084 1.400 . S
C1085 C1086 1.398 . S
C1086 H1074 0.950 . S
C1086 C1085 1.398 . S
C1086 C1087 1.391 . S
C1087 H1075 0.950 . S
C1087 C1083 1.393 . S
C1087 C1086 1.391 . S
H1088 C1096 0.950 . S
H1089 C1101 0.950 . S
H1090 C1098 0.950 . S
H1091 C1100 0.950 . S
H1092 C1102 0.950 . S
H1093 C1104 0.950 1_455 S
H1094 C1106 0.950 . S
H1095 C1107 0.950 . S
C1096 H1088 0.950 . S
C1096 C1097 1.386 . S
C1096 C1098 1.391 . S
C1097 C1096 1.386 . S
C1097 C1101 1.393 . S
C1098 H1090 0.950 . S
C1098 C1096 1.391 . S
C1098 C1099 1.400 . S
C1099 C1098 1.400 . S
C1099 C1100 1.398 . S
C1099 C1105 1.491 1_455 S
C1100 H1091 0.950 . S
C1100 C1099 1.398 . S
C1100 C1101 1.391 . S
C1101 H1089 0.950 . S
C1101 C1097 1.393 . S
C1101 C1100 1.391 . S
C1102 H1092 0.950 . S
C1102 C1103 1.386 . S
C1102 C1104 1.391 . S
C1103 C1102 1.386 . S
C1103 C1107 1.393 . S
C1104 H1093 0.950 1_655 S
C1104 C1102 1.391 . S
C1104 C1105 1.400 . S
C1105 C1099 1.491 1_655 S
C1105 C1104 1.400 . S
C1105 C1106 1.398 . S
C1106 H1094 0.950 . S
C1106 C1105 1.398 . S
C1106 C1107 1.391 . S
C1107 H1095 0.950 . S
C1107 C1103 1.393 . S
C1107 C1106 1.391 . S
H1108 C1116 0.950 . S
H1109 C1121 0.950 . S
H1110 C1118 0.950 . S
H1111 C1120 0.950 . S
H1112 C1122 0.950 . S
H1113 C1124 0.950 . S
H1114 C1126 0.950 . S
H1115 C1127 0.950 . S
C1116 H1108 0.950 . S
C1116 C1117 1.386 . S
C1116 C1118 1.391 . S
C1117 C1116 1.386 . S
C1117 C1121 1.393 . S
C1118 H1110 0.950 . S
C1118 C1116 1.391 . S
C1118 C1119 1.400 . S
C1119 C1118 1.400 . S
C1119 C1120 1.398 . S
C1119 C1125 1.491 . S
C1120 H1111 0.950 . S
C1120 C1119 1.398 . S
C1120 C1121 1.391 . S
C1121 H1109 0.950 . S
C1121 C1117 1.393 . S
C1121 C1120 1.391 . S
C1122 H1112 0.950 . S
C1122 C1123 1.386 . S
C1122 C1124 1.391 . S
C1123 C1122 1.386 . S
C1123 C1127 1.393 . S
C1124 H1113 0.950 . S
C1124 C1122 1.391 . S
C1124 C1125 1.400 . S
C1125 C1119 1.491 . S
C1125 C1124 1.400 . S
C1125 C1126 1.398 . S
C1126 H1114 0.950 . S
C1126 C1125 1.398 . S
C1126 C1127 1.391 . S
C1127 H1115 0.950 . S
C1127 C1123 1.393 . S
C1127 C1126 1.391 . S
H1128 C1136 0.950 . S
H1129 C1141 0.950 . S
H1130 C1138 0.950 . S
H1131 C1140 0.950 . S
H1132 C1142 0.950 . S
H1133 C1144 0.950 . S
H1134 C1146 0.950 . S
H1135 C1147 0.950 . S
C1136 H1128 0.950 . S
C1136 C1137 1.386 . S
C1136 C1138 1.391 . S
C1137 C1136 1.386 . S
C1137 C1141 1.393 . S
C1138 H1130 0.950 . S
C1138 C1136 1.391 . S
C1138 C1139 1.400 . S
C1139 C1138 1.400 . S
C1139 C1140 1.398 . S
C1139 C1145 1.491 . S
C1140 H1131 0.950 . S
C1140 C1139 1.398 . S
C1140 C1141 1.391 . S
C1141 H1129 0.950 . S
C1141 C1137 1.393 . S
C1141 C1140 1.391 . S
C1142 H1132 0.950 . S
C1142 C1143 1.386 . S
C1142 C1144 1.391 . S
C1143 C1142 1.386 . S
C1143 C1147 1.393 . S
C1144 H1133 0.950 . S
C1144 C1142 1.391 . S
C1144 C1145 1.400 . S
C1145 C1139 1.491 . S
C1145 C1144 1.400 . S
C1145 C1146 1.398 . S
C1146 H1134 0.950 . S
C1146 C1145 1.398 . S
C1146 C1147 1.391 . S
C1147 H1135 0.950 . S
C1147 C1143 1.393 . S
C1147 C1146 1.391 . S
H1148 C1156 0.950 . S
H1149 C1161 0.950 . S
H1150 C1158 0.950 . S
H1151 C1160 0.950 . S
H1152 C1162 0.950 . S
H1153 C1164 0.950 . S
H1154 C1166 0.950 . S
H1155 C1167 0.950 . S
C1156 H1148 0.950 . S
C1156 C1157 1.386 . S
C1156 C1158 1.391 . S
C1157 C1156 1.386 . S
C1157 C1161 1.393 . S
C1158 H1150 0.950 . S
C1158 C1156 1.391 . S
C1158 C1159 1.400 . S
C1159 C1158 1.400 . S
C1159 C1160 1.398 . S
C1159 C1165 1.491 . S
C1160 H1151 0.950 . S
C1160 C1159 1.398 . S
C1160 C1161 1.391 . S
C1161 H1149 0.950 . S
C1161 C1157 1.393 . S
C1161 C1160 1.391 . S
C1162 H1152 0.950 . S
C1162 C1163 1.386 . S
C1162 C1164 1.391 . S
C1163 C1162 1.386 . S
C1163 C1167 1.393 . S
C1164 H1153 0.950 . S
C1164 C1162 1.391 . S
C1164 C1165 1.400 . S
C1165 C1159 1.491 . S
C1165 C1164 1.400 . S
C1165 C1166 1.398 . S
C1166 H1154 0.950 . S
C1166 C1165 1.398 . S
C1166 C1167 1.391 . S
C1167 H1155 0.950 . S
C1167 C1163 1.393 . S
C1167 C1166 1.391 . S
H1168 C1176 0.950 . S
H1169 C1181 0.950 . S
H1170 C1178 0.950 . S
H1171 C1180 0.950 . S
H1172 C1182 0.950 . S
H1173 C1184 0.950 . S
H1174 C1186 0.950 . S
H1175 C1187 0.950 . S
C1176 H1168 0.950 . S
C1176 C1177 1.386 . S
C1176 C1178 1.391 . S
C1177 C1176 1.386 . S
C1177 C1181 1.393 . S
C1178 H1170 0.950 . S
C1178 C1176 1.391 . S
C1178 C1179 1.400 . S
C1179 C1178 1.400 . S
C1179 C1180 1.398 . S
C1179 C1185 1.491 . S
C1180 H1171 0.950 . S
C1180 C1179 1.398 . S
C1180 C1181 1.391 . S
C1181 H1169 0.950 . S
C1181 C1177 1.393 . S
C1181 C1180 1.391 . S
C1182 H1172 0.950 . S
C1182 C1183 1.386 . S
C1182 C1184 1.391 . S
C1183 C1182 1.386 . S
C1183 C1187 1.393 . S
C1184 H1173 0.950 . S
C1184 C1182 1.391 . S
C1184 C1185 1.400 . S
C1185 C1179 1.491 . S
C1185 C1184 1.400 . S
C1185 C1186 1.398 . S
C1186 H1174 0.950 . S
C1186 C1185 1.398 . S
C1186 C1187 1.391 . S
C1187 H1175 0.950 . S
C1187 C1183 1.393 . S
C1187 C1186 1.391 . S
H1188 C1196 0.950 . S
H1189 C1201 0.950 . S
H1190 C1198 0.950 . S
H1191 C1200 0.950 . S
H1192 C1202 0.950 . S
H1193 C1204 0.950 . S
H1194 C1206 0.950 . S
H1195 C1207 0.950 . S
C1196 H1188 0.950 . S
C1196 C1197 1.386 . S
C1196 C1198 1.391 . S
C1197 C1196 1.386 . S
C1197 C1201 1.393 . S
C1198 H1190 0.950 . S
C1198 C1196 1.391 . S
C1198 C1199 1.400 . S
C1199 C1198 1.400 . S
C1199 C1200 1.398 . S
C1199 C1205 1.491 1_556 S
C1200 H1191 0.950 . S
C1200 C1199 1.398 . S
C1200 C1201 1.391 . S
C1201 H1189 0.950 . S
C1201 C1197 1.393 . S
C1201 C1200 1.391 . S
C1202 H1192 0.950 . S
C1202 C1203 1.386 . S
C1202 C1204 1.391 . S
C1203 C1202 1.386 . S
C1203 C1207 1.393 . S
C1204 H1193 0.950 . S
C1204 C1202 1.391 . S
C1204 C1205 1.400 . S
C1205 C1199 1.491 1_554 S
C1205 C1204 1.400 . S
C1205 C1206 1.398 . S
C1206 H1194 0.950 . S
C1206 C1205 1.398 . S
C1206 C1207 1.391 . S
C1207 H1195 0.950 . S
C1207 C1203 1.393 . S
C1207 C1206 1.391 . S
H1208 C1216 0.950 1_455 S
H1209 C1221 0.950 . S
H1210 C1218 0.950 . S
H1211 C1220 0.950 . S
H1212 C1222 0.950 . S
H1213 C1224 0.950 . S
H1214 C1226 0.950 . S
H1215 C1227 0.950 . S
C1216 H1208 0.950 1_655 S
C1216 C1217 1.386 . S
C1216 C1218 1.391 . S
C1217 C1216 1.386 . S
C1217 C1221 1.393 . S
C1218 H1210 0.950 . S
C1218 C1216 1.391 . S
C1218 C1219 1.400 . S
C1219 C1218 1.400 . S
C1219 C1220 1.398 . S
C1219 C1225 1.491 . S
C1220 H1211 0.950 . S
C1220 C1219 1.398 . S
C1220 C1221 1.391 . S
C1221 H1209 0.950 . S
C1221 C1217 1.393 . S
C1221 C1220 1.391 . S
C1222 H1212 0.950 . S
C1222 C1223 1.386 . S
C1222 C1224 1.391 . S
C1223 C1222 1.386 . S
C1223 C1227 1.393 . S
C1224 H1213 0.950 . S
C1224 C1222 1.391 . S
C1224 C1225 1.400 . S
C1225 C1219 1.491 . S
C1225 C1224 1.400 . S
C1225 C1226 1.398 . S
C1226 H1214 0.950 . S
C1226 C1225 1.398 . S
C1226 C1227 1.391 . S
C1227 H1215 0.950 . S
C1227 C1223 1.393 . S
C1227 C1226 1.391 . S
H1228 C1236 0.950 . S
H1229 C1241 0.950 . S
H1230 C1238 0.950 . S
H1231 C1240 0.950 . S
H1232 C1242 0.950 . S
H1233 C1244 0.950 . S
H1234 C1246 0.950 . S
H1235 C1247 0.950 . S
C1236 H1228 0.950 . S
C1236 C1237 1.386 . S
C1236 C1238 1.391 . S
C1237 C1236 1.386 . S
C1237 C1241 1.393 . S
C1238 H1230 0.950 . S
C1238 C1236 1.391 . S
C1238 C1239 1.400 . S
C1239 C1238 1.400 . S
C1239 C1240 1.398 . S
C1239 C1245 1.491 . S
C1240 H1231 0.950 . S
C1240 C1239 1.398 . S
C1240 C1241 1.391 . S
C1241 H1229 0.950 . S
C1241 C1237 1.393 . S
C1241 C1240 1.391 . S
C1242 H1232 0.950 . S
C1242 C1243 1.386 . S
C1242 C1244 1.391 . S
C1243 C1242 1.386 . S
C1243 C1247 1.393 . S
C1244 H1233 0.950 . S
C1244 C1242 1.391 . S
C1244 C1245 1.400 . S
C1245 C1239 1.491 . S
C1245 C1244 1.400 . S
C1245 C1246 1.398 . S
C1246 H1234 0.950 . S
C1246 C1245 1.398 . S
C1246 C1247 1.391 . S
C1247 H1235 0.950 . S
C1247 C1243 1.393 . S
C1247 C1246 1.391 . S
H1248 C1256 0.950 . S
H1249 C1261 0.950 . S
H1250 C1258 0.950 . S
H1251 C1260 0.950 . S
H1252 C1262 0.950 . S
H1253 C1264 0.950 . S
H1254 C1266 0.950 . S
H1255 C1267 0.950 . S
C1256 H1248 0.950 . S
C1256 C1257 1.386 . S
C1256 C1258 1.391 . S
C1257 C1256 1.386 . S
C1257 C1261 1.393 . S
C1258 H1250 0.950 . S
C1258 C1256 1.391 . S
C1258 C1259 1.400 . S
C1259 C1258 1.400 . S
C1259 C1260 1.398 . S
C1259 C1265 1.491 . S
C1260 H1251 0.950 . S
C1260 C1259 1.398 . S
C1260 C1261 1.391 . S
C1261 H1249 0.950 . S
C1261 C1257 1.393 . S
C1261 C1260 1.391 . S
C1262 H1252 0.950 . S
C1262 C1263 1.386 . S
C1262 C1264 1.391 . S
C1263 C1262 1.386 . S
C1263 C1267 1.393 . S
C1264 H1253 0.950 . S
C1264 C1262 1.391 . S
C1264 C1265 1.400 . S
C1265 C1259 1.491 . S
C1265 C1264 1.400 . S
C1265 C1266 1.398 . S
C1266 H1254 0.950 . S
C1266 C1265 1.398 . S
C1266 C1267 1.391 . S
C1267 H1255 0.950 . S
C1267 C1263 1.393 . S
C1267 C1266 1.391 . S
H1268 C1276 0.950 1_455 S
H1269 C1281 0.950 . S
H1270 C1278 0.950 . S
H1271 C1280 0.950 . S
H1272 C1282 0.950 . S
H1273 C1284 0.950 . S
H1274 C1286 0.950 . S
H1275 C1287 0.950 . S
C1276 H1268 0.950 1_655 S
C1276 C1277 1.386 . S
C1276 C1278 1.391 . S
C1277 C1276 1.386 . S
C1277 C1281 1.393 . S
C1278 H1270 0.950 . S
C1278 C1276 1.391 . S
C1278 C1279 1.400 . S
C1279 C1278 1.400 . S
C1279 C1280 1.398 . S
C1279 C1285 1.491 1_554 S
C1280 H1271 0.950 . S
C1280 C1279 1.398 . S
C1280 C1281 1.391 . S
C1281 H1269 0.950 . S
C1281 C1277 1.393 . S
C1281 C1280 1.391 . S
C1282 H1272 0.950 . S
C1282 C1283 1.386 . S
C1282 C1284 1.391 . S
C1283 C1282 1.386 . S
C1283 C1287 1.393 . S
C1284 H1273 0.950 . S
C1284 C1282 1.391 . S
C1284 C1285 1.400 . S
C1285 C1279 1.491 1_556 S
C1285 C1284 1.400 . S
C1285 C1286 1.398 . S
C1286 H1274 0.950 . S
C1286 C1285 1.398 . S
C1286 C1287 1.391 . S
C1287 H1275 0.950 . S
C1287 C1283 1.393 . S
C1287 C1286 1.391 . S
H1288 C1296 0.950 . S
H1289 C1301 0.950 . S
H1290 C1298 0.950 . S
H1291 C1300 0.950 . S
H1292 C1302 0.950 . S
H1293 C1304 0.950 . S
H1294 C1306 0.950 . S
H1295 C1307 0.950 . S
C1296 H1288 0.950 . S
C1296 C1297 1.386 . S
C1296 C1298 1.391 . S
C1297 C1296 1.386 . S
C1297 C1301 1.393 1_545 S
C1298 H1290 0.950 . S
C1298 C1296 1.391 . S
C1298 C1299 1.400 1_545 S
C1299 C1298 1.400 1_565 S
C1299 C1300 1.398 . S
C1299 C1305 1.491 . S
C1300 H1291 0.950 . S
C1300 C1299 1.398 . S
C1300 C1301 1.391 . S
C1301 H1289 0.950 . S
C1301 C1297 1.393 1_565 S
C1301 C1300 1.391 . S
C1302 H1292 0.950 . S
C1302 C1303 1.386 . S
C1302 C1304 1.391 . S
C1303 C1302 1.386 . S
C1303 C1307 1.393 . S
C1304 H1293 0.950 . S
C1304 C1302 1.391 . S
C1304 C1305 1.400 . S
C1305 C1299 1.491 . S
C1305 C1304 1.400 . S
C1305 C1306 1.398 . S
C1306 H1294 0.950 . S
C1306 C1305 1.398 . S
C1306 C1307 1.391 . S
C1307 H1295 0.950 . S
C1307 C1303 1.393 . S
C1307 C1306 1.391 . S
H1308 C1316 0.950 . S
H1309 C1321 0.959 . S
H1310 C1318 0.950 . S
H1311 C1320 0.950 . S
H1312 C1322 0.950 . S
H1313 C1324 0.950 . S
H1314 C1326 0.950 . S
H1315 C1327 0.950 . S
C1316 H1308 0.950 . S
C1316 C1317 1.386 . S
C1316 C1318 1.391 1_565 S
C1317 C1316 1.386 . S
C1317 C1321 1.409 . S
C1318 H1310 0.950 . S
C1318 C1316 1.391 1_545 S
C1318 C1319 1.400 . S
C1319 C1318 1.400 . S
C1319 C1320 1.398 . S
C1319 C1325 1.491 . S
C1320 H1311 0.950 . S
C1320 C1319 1.398 . S
C1320 C1321 1.366 1_545 S
C1321 H1309 0.959 . S
C1321 C1317 1.409 . S
C1321 C1320 1.366 1_565 S
C1322 H1312 0.950 . S
C1322 C1323 1.386 . S
C1322 C1324 1.391 . S
C1323 C1322 1.386 . S
C1323 C1327 1.393 . S
C1324 H1313 0.950 . S
C1324 C1322 1.391 . S
C1324 C1325 1.400 . S
C1325 C1319 1.491 . S
C1325 C1324 1.400 . S
C1325 C1326 1.398 . S
C1326 H1314 0.950 . S
C1326 C1325 1.398 . S
C1326 C1327 1.391 . S
C1327 H1315 0.950 . S
C1327 C1323 1.393 . S
C1327 C1326 1.391 . S
H1328 C1336 0.950 . S
H1329 C1341 0.950 . S
H1330 C1338 0.950 . S
H1331 C1340 0.950 . S
H1332 C1342 0.950 . S
H1333 C1344 0.950 . S
H1334 C1346 0.950 . S
H1335 C1347 0.950 . S
C1336 H1328 0.950 . S
C1336 C1337 1.386 . S
C1336 C1338 1.391 . S
C1337 C1336 1.386 . S
C1337 C1341 1.393 . S
C1338 H1330 0.950 . S
C1338 C1336 1.391 . S
C1338 C1339 1.400 . S
C1339 C1338 1.400 . S
C1339 C1340 1.398 . S
C1339 C1345 1.491 . S
C1340 H1331 0.950 . S
C1340 C1339 1.398 . S
C1340 C1341 1.391 . S
C1341 H1329 0.950 . S
C1341 C1337 1.393 . S
C1341 C1340 1.391 . S
C1342 H1332 0.950 . S
C1342 C1343 1.386 . S
C1342 C1344 1.391 . S
C1343 C1342 1.386 . S
C1343 C1347 1.393 . S
C1344 H1333 0.950 . S
C1344 C1342 1.391 . S
C1344 C1345 1.400 . S
C1345 C1339 1.491 . S
C1345 C1344 1.400 . S
C1345 C1346 1.398 . S
C1346 H1334 0.950 . S
C1346 C1345 1.398 . S
C1346 C1347 1.391 . S
C1347 H1335 0.950 . S
C1347 C1343 1.393 . S
C1347 C1346 1.391 . S
H1348 C1356 0.950 1_556 S
H1349 C1361 0.950 . S
H1350 C1358 0.950 . S
H1351 C1360 0.950 . S
H1352 C1362 0.950 . S
H1353 C1364 0.950 . S
H1354 C1366 0.950 . S
H1355 C1367 0.950 . S
C1356 H1348 0.950 1_554 S
C1356 C1357 1.386 . S
C1356 C1358 1.391 . S
C1357 C1356 1.386 . S
C1357 C1361 1.393 . S
C1358 H1350 0.950 . S
C1358 C1356 1.391 . S
C1358 C1359 1.400 . S
C1359 C1358 1.400 . S
C1359 C1360 1.398 . S
C1359 C1365 1.491 . S
C1360 H1351 0.950 . S
C1360 C1359 1.398 . S
C1360 C1361 1.391 . S
C1361 H1349 0.950 . S
C1361 C1357 1.393 . S
C1361 C1360 1.391 . S
C1362 H1352 0.950 . S
C1362 C1363 1.386 . S
C1362 C1364 1.391 1_565 S
C1363 C1362 1.386 . S
C1363 C1367 1.393 . S
C1364 H1353 0.950 . S
C1364 C1362 1.391 1_545 S
C1364 C1365 1.400 . S
C1365 C1359 1.491 . S
C1365 C1364 1.400 . S
C1365 C1366 1.398 . S
C1366 H1354 0.950 . S
C1366 C1365 1.398 . S
C1366 C1367 1.391 1_545 S
C1367 H1355 0.950 . S
C1367 C1363 1.393 . S
C1367 C1366 1.391 1_565 S
H1368 C1376 0.950 . S
H1369 C1381 0.950 . S
H1370 C1378 0.950 . S
H1371 C1380 0.950 . S
H1372 C1382 0.950 . S
H1373 C1384 0.950 . S
H1374 C1386 0.950 . S
H1375 C1387 0.950 . S
C1376 H1368 0.950 . S
C1376 C1377 1.386 . S
C1376 C1378 1.391 . S
C1377 C1376 1.386 . S
C1377 C1381 1.393 . S
C1378 H1370 0.950 . S
C1378 C1376 1.391 . S
C1378 C1379 1.400 . S
C1379 C1378 1.400 . S
C1379 C1380 1.398 . S
C1379 C1385 1.491 . S
C1380 H1371 0.950 . S
C1380 C1379 1.398 . S
C1380 C1381 1.391 . S
C1381 H1369 0.950 . S
C1381 C1377 1.393 . S
C1381 C1380 1.391 . S
C1382 H1372 0.950 . S
C1382 C1383 1.386 . S
C1382 C1384 1.391 . S
C1383 C1382 1.386 . S
C1383 C1387 1.393 . S
C1384 H1373 0.950 . S
C1384 C1382 1.391 . S
C1384 C1385 1.400 . S
C1385 C1379 1.491 . S
C1385 C1384 1.400 . S
C1385 C1386 1.398 . S
C1386 H1374 0.950 . S
C1386 C1385 1.398 . S
C1386 C1387 1.391 . S
C1387 H1375 0.950 . S
C1387 C1383 1.393 . S
C1387 C1386 1.391 . S
H1388 C1396 0.950 . S
H1389 C1401 0.950 . S
H1390 C1398 0.961 . S
H1391 C1400 0.950 . S
H1392 C1402 0.950 . S
H1393 C1404 0.950 . S
H1394 C1406 0.950 . S
H1395 C1407 0.950 . S
C1396 H1388 0.950 . S
C1396 C1397 1.386 . S
C1396 C1398 1.365 1_565 S
C1397 C1396 1.386 . S
C1397 C1401 1.393 . S
C1398 H1390 0.961 . S
C1398 C1396 1.365 1_545 S
C1398 C1399 1.417 . S
C1399 C1398 1.417 . S
C1399 C1400 1.398 . S
C1399 C1405 1.491 . S
C1400 H1391 0.950 . S
C1400 C1399 1.398 . S
C1400 C1401 1.391 1_545 S
C1401 H1389 0.950 . S
C1401 C1397 1.393 . S
C1401 C1400 1.391 1_565 S
C1402 H1392 0.950 . S
C1402 C1403 1.386 . S
C1402 C1404 1.391 . S
C1403 C1402 1.386 . S
C1403 C1407 1.393 . S
C1404 H1393 0.950 . S
C1404 C1402 1.391 . S
C1404 C1405 1.400 . S
C1405 C1399 1.491 . S
C1405 C1404 1.400 . S
C1405 C1406 1.398 . S
C1406 H1394 0.950 . S
C1406 C1405 1.398 . S
C1406 C1407 1.391 . S
C1407 H1395 0.950 . S
C1407 C1403 1.393 . S
C1407 C1406 1.391 . S
H1408 C1416 0.950 . S
H1409 C1421 0.950 . S
H1410 C1418 0.950 . S
H1411 C1420 0.950 . S
H1412 C1422 0.950 . S
H1413 C1424 0.950 . S
H1414 C1426 0.950 . S
H1415 C1427 0.950 . S
C1416 H1408 0.950 . S
C1416 C1417 1.386 . S
C1416 C1418 1.391 . S
C1417 C1416 1.386 . S
C1417 C1421 1.393 . S
C1418 H1410 0.950 . S
C1418 C1416 1.391 . S
C1418 C1419 1.400 . S
C1419 C1418 1.400 . S
C1419 C1420 1.398 . S
C1419 C1425 1.491 . S
C1420 H1411 0.950 . S
C1420 C1419 1.398 . S
C1420 C1421 1.391 . S
C1421 H1409 0.950 . S
C1421 C1417 1.393 . S
C1421 C1420 1.391 . S
C1422 H1412 0.950 . S
C1422 C1423 1.386 . S
C1422 C1424 1.391 . S
C1423 C1422 1.386 . S
C1423 C1427 1.393 . S
C1424 H1413 0.950 . S
C1424 C1422 1.391 . S
C1424 C1425 1.400 . S
C1425 C1419 1.491 . S
C1425 C1424 1.400 . S
C1425 C1426 1.398 . S
C1426 H1414 0.950 . S
C1426 C1425 1.398 . S
C1426 C1427 1.391 . S
C1427 H1415 0.950 . S
C1427 C1423 1.393 . S
C1427 C1426 1.391 . S
H1428 C1436 0.950 . S
H1429 C1441 0.950 . S
H1430 C1438 0.950 . S
H1431 C1440 0.950 . S
H1432 C1442 0.950 . S
H1433 C1444 0.950 . S
H1434 C1446 0.950 . S
H1435 C1447 0.950 . S
C1436 H1428 0.950 . S
C1436 C1437 1.386 . S
C1436 C1438 1.391 . S
C1437 C1436 1.386 . S
C1437 C1441 1.393 . S
C1438 H1430 0.950 . S
C1438 C1436 1.391 . S
C1438 C1439 1.400 . S
C1439 C1438 1.400 . S
C1439 C1440 1.398 . S
C1439 C1445 1.491 . S
C1440 H1431 0.950 . S
C1440 C1439 1.398 . S
C1440 C1441 1.391 . S
C1441 H1429 0.950 . S
C1441 C1437 1.393 . S
C1441 C1440 1.391 . S
C1442 H1432 0.950 . S
C1442 C1443 1.386 . S
C1442 C1444 1.391 1_565 S
C1443 C1442 1.386 . S
C1443 C1447 1.393 1_565 S
C1444 H1433 0.950 . S
C1444 C1442 1.391 1_545 S
C1444 C1445 1.400 . S
C1445 C1439 1.491 . S
C1445 C1444 1.400 . S
C1445 C1446 1.398 . S
C1446 H1434 0.950 . S
C1446 C1445 1.398 . S
C1446 C1447 1.391 . S
C1447 H1435 0.950 . S
C1447 C1443 1.393 1_545 S
C1447 C1446 1.391 . S
H1448 C1456 0.950 . S
H1449 C1461 0.950 1_554 S
H1450 C1458 0.950 . S
H1451 C1460 0.950 . S
H1452 C1462 0.950 . S
H1453 C1464 0.950 . S
H1454 C1466 0.950 . S
H1455 C1467 0.950 . S
C1456 H1448 0.950 . S
C1456 C1457 1.386 . S
C1456 C1458 1.391 . S
C1457 C1456 1.386 . S
C1457 C1461 1.393 . S
C1458 H1450 0.950 . S
C1458 C1456 1.391 . S
C1458 C1459 1.400 . S
C1459 C1458 1.400 . S
C1459 C1460 1.398 . S
C1459 C1465 1.491 . S
C1460 H1451 0.950 . S
C1460 C1459 1.398 . S
C1460 C1461 1.391 . S
C1461 H1449 0.950 1_556 S
C1461 C1457 1.393 . S
C1461 C1460 1.391 . S
C1462 H1452 0.950 . S
C1462 C1463 1.386 . S
C1462 C1464 1.391 . S
C1463 C1462 1.386 . S
C1463 C1467 1.393 . S
C1464 H1453 0.950 . S
C1464 C1462 1.391 . S
C1464 C1465 1.400 . S
C1465 C1459 1.491 . S
C1465 C1464 1.400 . S
C1465 C1466 1.398 . S
C1466 H1454 0.950 . S
C1466 C1465 1.398 . S
C1466 C1467 1.391 . S
C1467 H1455 0.950 . S
C1467 C1463 1.393 . S
C1467 C1466 1.391 . S
H1468 C1476 0.950 . S
H1469 C1481 0.950 . S
H1470 C1478 0.950 . S
H1471 C1480 0.950 . S
H1472 C1482 0.950 . S
H1473 C1484 0.950 . S
H1474 C1486 0.950 . S
H1475 C1487 0.950 . S
C1476 H1468 0.950 . S
C1476 C1477 1.386 . S
C1476 C1478 1.391 . S
C1477 C1476 1.386 . S
C1477 C1481 1.393 . S
C1478 H1470 0.950 . S
C1478 C1476 1.391 . S
C1478 C1479 1.400 . S
C1479 C1478 1.400 . S
C1479 C1480 1.398 . S
C1479 C1485 1.491 . S
C1480 H1471 0.950 . S
C1480 C1479 1.398 . S
C1480 C1481 1.391 . S
C1481 H1469 0.950 . S
C1481 C1477 1.393 . S
C1481 C1480 1.391 . S
C1482 H1472 0.950 . S
C1482 C1483 1.386 . S
C1482 C1484 1.391 . S
C1483 C1482 1.386 . S
C1483 C1487 1.393 . S
C1484 H1473 0.950 . S
C1484 C1482 1.391 . S
C1484 C1485 1.400 . S
C1485 C1479 1.491 . S
C1485 C1484 1.400 . S
C1485 C1486 1.398 . S
C1486 H1474 0.950 . S
C1486 C1485 1.398 . S
C1486 C1487 1.391 . S
C1487 H1475 0.950 . S
C1487 C1483 1.393 . S
C1487 C1486 1.391 . S
H1488 C1496 0.950 . S
H1489 C1501 0.950 . S
H1490 C1498 0.950 1_455 S
H1491 C1500 0.950 . S
H1492 C1502 0.950 . S
H1493 C1504 0.950 . S
H1494 C1506 0.950 . S
H1495 C1507 0.950 . S
C1496 H1488 0.950 . S
C1496 C1497 1.386 . S
C1496 C1498 1.391 . S
C1497 C1496 1.386 . S
C1497 C1501 1.393 . S
C1498 H1490 0.950 1_655 S
C1498 C1496 1.391 . S
C1498 C1499 1.400 . S
C1499 C1498 1.400 . S
C1499 C1500 1.398 . S
C1499 C1505 1.491 1_655 S
C1500 H1491 0.950 . S
C1500 C1499 1.398 . S
C1500 C1501 1.391 . S
C1501 H1489 0.950 . S
C1501 C1497 1.393 . S
C1501 C1500 1.391 . S
C1502 H1492 0.950 . S
C1502 C1503 1.386 . S
C1502 C1504 1.391 . S
C1503 C1502 1.386 . S
C1503 C1507 1.393 . S
C1504 H1493 0.950 . S
C1504 C1502 1.391 . S
C1504 C1505 1.400 . S
C1505 C1499 1.491 1_455 S
C1505 C1504 1.400 . S
C1505 C1506 1.398 . S
C1506 H1494 0.950 . S
C1506 C1505 1.398 . S
C1506 C1507 1.391 . S
C1507 H1495 0.950 . S
C1507 C1503 1.393 . S
C1507 C1506 1.391 . S
H1508 C1516 0.950 . S
H1509 C1521 0.950 . S
H1510 C1518 0.950 . S
H1511 C1520 0.950 . S
H1512 C1522 0.950 . S
H1513 C1524 0.950 . S
H1514 C1526 0.950 . S
H1515 C1527 0.950 . S
C1516 H1508 0.950 . S
C1516 C1517 1.386 . S
C1516 C1518 1.391 . S
C1517 C1516 1.386 . S
C1517 C1521 1.393 . S
C1518 H1510 0.950 . S
C1518 C1516 1.391 . S
C1518 C1519 1.400 . S
C1519 C1518 1.400 . S
C1519 C1520 1.398 . S
C1519 C1525 1.491 . S
C1520 H1511 0.950 . S
C1520 C1519 1.398 . S
C1520 C1521 1.391 . S
C1521 H1509 0.950 . S
C1521 C1517 1.393 . S
C1521 C1520 1.391 . S
C1522 H1512 0.950 . S
C1522 C1523 1.386 . S
C1522 C1524 1.391 . S
C1523 C1522 1.386 . S
C1523 C1527 1.393 . S
C1524 H1513 0.950 . S
C1524 C1522 1.391 . S
C1524 C1525 1.400 . S
C1525 C1519 1.491 . S
C1525 C1524 1.400 . S
C1525 C1526 1.398 . S
C1526 H1514 0.950 . S
C1526 C1525 1.398 . S
C1526 C1527 1.391 . S
C1527 H1515 0.950 . S
C1527 C1523 1.393 . S
C1527 C1526 1.391 . S
H1528 C1536 0.950 1_565 S
H1529 C1541 0.950 . S
H1530 C1538 0.950 . S
H1531 C1540 0.950 . S
H1532 C1542 0.950 . S
H1533 C1544 0.950 . S
H1534 C1546 0.950 . S
H1535 C1547 0.950 . S
C1536 H1528 0.950 1_545 S
C1536 C1537 1.386 . S
C1536 C1538 1.391 1_545 S
C1537 C1536 1.386 . S
C1537 C1541 1.393 . S
C1538 H1530 0.950 . S
C1538 C1536 1.391 1_565 S
C1538 C1539 1.400 1_565 S
C1539 C1538 1.400 1_545 S
C1539 C1540 1.398 . S
C1539 C1545 1.495 1_455 S
C1540 H1531 0.950 . S
C1540 C1539 1.398 . S
C1540 C1541 1.391 . S
C1541 H1529 0.950 . S
C1541 C1537 1.393 . S
C1541 C1540 1.391 . S
C1542 H1532 0.950 . S
C1542 C1543 1.386 1_545 S
C1542 C1544 1.391 . S
C1543 C1542 1.386 1_565 S
C1543 C1547 1.393 . S
C1544 H1533 0.950 . S
C1544 C1542 1.391 . S
C1544 C1545 1.408 . S
C1545 C1539 1.495 1_655 S
C1545 C1544 1.408 . S
C1545 C1546 1.386 1_545 S
C1546 H1534 0.950 . S
C1546 C1545 1.386 1_565 S
C1546 C1547 1.391 . S
C1547 H1535 0.950 . S
C1547 C1543 1.393 . S
C1547 C1546 1.391 . S
H1548 C1556 0.950 . S
H1549 C1561 0.950 . S
H1550 C1558 0.950 . S
H1551 C1560 0.950 . S
H1552 C1562 0.950 . S
H1553 C1564 0.950 . S
H1554 C1566 0.950 . S
H1555 C1567 0.950 . S
C1556 H1548 0.950 . S
C1556 C1557 1.386 . S
C1556 C1558 1.391 . S
C1557 C1556 1.386 . S
C1557 C1561 1.393 . S
C1558 H1550 0.950 . S
C1558 C1556 1.391 . S
C1558 C1559 1.400 . S
C1559 C1558 1.400 . S
C1559 C1560 1.398 . S
C1559 C1565 1.491 . S
C1560 H1551 0.950 . S
C1560 C1559 1.398 . S
C1560 C1561 1.391 . S
C1561 H1549 0.950 . S
C1561 C1557 1.393 . S
C1561 C1560 1.391 . S
C1562 H1552 0.950 . S
C1562 C1563 1.386 . S
C1562 C1564 1.391 . S
C1563 C1562 1.386 . S
C1563 C1567 1.393 . S
C1564 H1553 0.950 . S
C1564 C1562 1.391 . S
C1564 C1565 1.400 . S
C1565 C1559 1.491 . S
C1565 C1564 1.400 . S
C1565 C1566 1.398 . S
C1566 H1554 0.950 . S
C1566 C1565 1.398 . S
C1566 C1567 1.391 . S
C1567 H1555 0.950 . S
C1567 C1563 1.393 . S
C1567 C1566 1.391 . S
H1568 C1576 0.950 . S
H1569 C1581 0.950 . S
H1570 C1578 0.950 . S
H1571 C1580 0.950 . S
H1572 C1582 0.950 . S
H1573 C1584 0.950 . S
H1574 C1586 0.950 . S
H1575 C1587 0.950 . S
C1576 H1568 0.950 . S
C1576 C1577 1.386 . S
C1576 C1578 1.391 . S
C1577 C1576 1.386 . S
C1577 C1581 1.393 . S
C1578 H1570 0.950 . S
C1578 C1576 1.391 . S
C1578 C1579 1.400 . S
C1579 C1578 1.400 . S
C1579 C1580 1.398 . S
C1579 C1585 1.491 1_655 S
C1580 H1571 0.950 . S
C1580 C1579 1.398 . S
C1580 C1581 1.391 . S
C1581 H1569 0.950 . S
C1581 C1577 1.393 . S
C1581 C1580 1.391 . S
C1582 H1572 0.950 . S
C1582 C1583 1.386 . S
C1582 C1584 1.391 . S
C1583 C1582 1.386 . S
C1583 C1587 1.393 . S
C1584 H1573 0.950 . S
C1584 C1582 1.391 . S
C1584 C1585 1.400 . S
C1585 C1579 1.491 1_455 S
C1585 C1584 1.400 . S
C1585 C1586 1.398 . S
C1586 H1574 0.950 . S
C1586 C1585 1.398 . S
C1586 C1587 1.391 . S
C1587 H1575 0.950 . S
C1587 C1583 1.393 . S
C1587 C1586 1.391 . S
H1588 C1596 0.950 . S
H1589 C1601 0.950 . S
H1590 C1598 0.950 . S
H1591 C1600 0.950 . S
H1592 C1602 0.950 . S
H1593 C1604 0.950 . S
H1594 C1606 0.950 . S
H1595 C1607 0.950 . S
C1596 H1588 0.950 . S
C1596 C1597 1.386 . S
C1596 C1598 1.391 . S
C1597 C1596 1.386 . S
C1597 C1601 1.393 . S
C1598 H1590 0.950 . S
C1598 C1596 1.391 . S
C1598 C1599 1.400 . S
C1599 C1598 1.400 . S
C1599 C1600 1.398 . S
C1599 C1605 1.491 . S
C1600 H1591 0.950 . S
C1600 C1599 1.398 . S
C1600 C1601 1.391 . S
C1601 H1589 0.950 . S
C1601 C1597 1.393 . S
C1601 C1600 1.391 . S
C1602 H1592 0.950 . S
C1602 C1603 1.386 . S
C1602 C1604 1.391 . S
C1603 C1602 1.386 . S
C1603 C1607 1.393 . S
C1604 H1593 0.950 . S
C1604 C1602 1.391 . S
C1604 C1605 1.400 . S
C1605 C1599 1.491 . S
C1605 C1604 1.400 . S
C1605 C1606 1.398 . S
C1606 H1594 0.950 . S
C1606 C1605 1.398 . S
C1606 C1607 1.391 . S
C1607 H1595 0.950 . S
C1607 C1603 1.393 . S
C1607 C1606 1.391 . S
H1608 C1616 0.950 . S
H1609 C1621 0.950 . S
H1610 C1618 0.950 . S
H1611 C1620 0.950 . S
H1612 C1622 0.950 . S
H1613 C1624 0.950 . S
H1614 C1626 0.950 . S
H1615 C1627 0.950 . S
C1616 H1608 0.950 . S
C1616 C1617 1.386 . S
C1616 C1618 1.391 . S
C1617 C1616 1.386 . S
C1617 C1621 1.393 . S
C1618 H1610 0.950 . S
C1618 C1616 1.391 . S
C1618 C1619 1.400 . S
C1619 C1618 1.400 . S
C1619 C1620 1.398 . S
C1619 C1625 1.491 . S
C1620 H1611 0.950 . S
C1620 C1619 1.398 . S
C1620 C1621 1.391 . S
C1621 H1609 0.950 . S
C1621 C1617 1.393 . S
C1621 C1620 1.391 . S
C1622 H1612 0.950 . S
C1622 C1623 1.386 . S
C1622 C1624 1.391 . S
C1623 C1622 1.386 . S
C1623 C1627 1.393 . S
C1624 H1613 0.950 . S
C1624 C1622 1.391 . S
C1624 C1625 1.400 . S
C1625 C1619 1.491 . S
C1625 C1624 1.400 . S
C1625 C1626 1.398 . S
C1626 H1614 0.950 . S
C1626 C1625 1.398 . S
C1626 C1627 1.391 . S
C1627 H1615 0.950 . S
C1627 C1623 1.393 . S
C1627 C1626 1.391 . S
H1628 C1636 0.950 . S
H1629 C1641 0.950 . S
H1630 C1638 0.950 . S
H1631 C1640 0.950 . S
H1632 C1642 0.950 . S
H1633 C1644 0.950 . S
H1634 C1646 0.950 . S
H1635 C1647 0.950 . S
C1636 H1628 0.950 . S
C1636 C1637 1.386 . S
C1636 C1638 1.391 . S
C1637 C1636 1.386 . S
C1637 C1641 1.393 . S
C1638 H1630 0.950 . S
C1638 C1636 1.391 . S
C1638 C1639 1.400 . S
C1639 C1638 1.400 . S
C1639 C1640 1.398 . S
C1639 C1645 1.491 . S
C1640 H1631 0.950 . S
C1640 C1639 1.398 . S
C1640 C1641 1.391 . S
C1641 H1629 0.950 . S
C1641 C1637 1.393 . S
C1641 C1640 1.391 . S
C1642 H1632 0.950 . S
C1642 C1643 1.386 . S
C1642 C1644 1.391 . S
C1643 C1642 1.386 . S
C1643 C1647 1.393 . S
C1644 H1633 0.950 . S
C1644 C1642 1.391 . S
C1644 C1645 1.400 1_556 S
C1645 C1639 1.491 . S
C1645 C1644 1.400 1_554 S
C1645 C1646 1.398 . S
C1646 H1634 0.950 . S
C1646 C1645 1.398 . S
C1646 C1647 1.391 1_554 S
C1647 H1635 0.950 . S
C1647 C1643 1.393 . S
C1647 C1646 1.391 1_556 S
H1648 C1656 0.991 . S
H1649 C1661 0.950 . S
H1650 C1658 0.950 . S
H1651 C1660 0.950 . S
H1652 C1662 0.950 . S
H1653 C1664 0.950 . S
H1654 C1666 0.950 . S
H1655 C1667 0.950 . S
C1656 H1648 0.991 . S
C1656 C1657 1.365 1_455 S
C1656 C1658 1.372 1_455 S
C1657 C1656 1.365 1_655 S
C1657 C1661 1.393 . S
C1658 H1650 0.950 . S
C1658 C1656 1.372 1_655 S
C1658 C1659 1.400 . S
C1659 C1658 1.400 . S
C1659 C1660 1.398 . S
C1659 C1665 1.491 . S
C1660 H1651 0.950 . S
C1660 C1659 1.398 . S
C1660 C1661 1.391 . S
C1661 H1649 0.950 . S
C1661 C1657 1.393 . S
C1661 C1660 1.391 . S
C1662 H1652 0.950 . S
C1662 C1663 1.386 . S
C1662 C1664 1.391 . S
C1663 C1662 1.386 . S
C1663 C1667 1.393 . S
C1664 H1653 0.950 . S
C1664 C1662 1.391 . S
C1664 C1665 1.400 . S
C1665 C1659 1.491 . S
C1665 C1664 1.400 . S
C1665 C1666 1.398 . S
C1666 H1654 0.950 . S
C1666 C1665 1.398 . S
C1666 C1667 1.391 . S
C1667 H1655 0.950 . S
C1667 C1663 1.393 . S
C1667 C1666 1.391 . S
H1668 C1676 0.950 . S
H1669 C1681 0.950 . S
H1670 C1678 0.950 . S
H1671 C1680 0.950 . S
H1672 C1682 0.950 . S
H1673 C1684 0.950 . S
H1674 C1686 0.950 . S
H1675 C1687 0.950 . S
C1676 H1668 0.950 . S
C1676 C1677 1.386 . S
C1676 C1678 1.391 . S
C1677 C1676 1.386 . S
C1677 C1681 1.393 . S
C1678 H1670 0.950 . S
C1678 C1676 1.391 . S
C1678 C1679 1.400 . S
C1679 C1678 1.400 . S
C1679 C1680 1.398 . S
C1679 C1685 1.491 . S
C1680 H1671 0.950 . S
C1680 C1679 1.398 . S
C1680 C1681 1.391 . S
C1681 H1669 0.950 . S
C1681 C1677 1.393 . S
C1681 C1680 1.391 . S
C1682 H1672 0.950 . S
C1682 C1683 1.386 . S
C1682 C1684 1.391 . S
C1683 C1682 1.386 . S
C1683 C1687 1.393 . S
C1684 H1673 0.950 . S
C1684 C1682 1.391 . S
C1684 C1685 1.400 . S
C1685 C1679 1.491 . S
C1685 C1684 1.400 . S
C1685 C1686 1.398 . S
C1686 H1674 0.950 . S
C1686 C1685 1.398 . S
C1686 C1687 1.391 . S
C1687 H1675 0.950 . S
C1687 C1683 1.393 . S
C1687 C1686 1.391 . S
H1688 C1696 0.950 . S
H1689 C1701 0.950 . S
H1690 C1698 0.950 . S
H1691 C1700 0.950 . S
H1692 C1702 0.950 . S
H1693 C1704 0.950 . S
H1694 C1706 0.950 . S
H1695 C1707 0.950 . S
C1696 H1688 0.950 . S
C1696 C1697 1.386 . S
C1696 C1698 1.391 . S
C1697 C1696 1.386 . S
C1697 C1701 1.393 . S
C1698 H1690 0.950 . S
C1698 C1696 1.391 . S
C1698 C1699 1.400 . S
C1699 C1698 1.400 . S
C1699 C1700 1.398 . S
C1699 C1705 1.491 . S
C1700 H1691 0.950 . S
C1700 C1699 1.398 . S
C1700 C1701 1.391 . S
C1701 H1689 0.950 . S
C1701 C1697 1.393 . S
C1701 C1700 1.391 . S
C1702 H1692 0.950 . S
C1702 C1703 1.386 . S
C1702 C1704 1.391 . S
C1703 C1702 1.386 . S
C1703 C1707 1.393 . S
C1704 H1693 0.950 . S
C1704 C1702 1.391 . S
C1704 C1705 1.400 . S
C1705 C1699 1.491 . S
C1705 C1704 1.400 . S
C1705 C1706 1.398 . S
C1706 H1694 0.950 . S
C1706 C1705 1.398 . S
C1706 C1707 1.391 . S
C1707 H1695 0.950 . S
C1707 C1703 1.393 . S
C1707 C1706 1.391 . S
H1708 C1716 0.950 . S
H1709 C1721 0.950 . S
H1710 C1718 0.950 1_455 S
H1711 C1720 0.950 1_554 S
H1712 C1722 0.950 . S
H1713 C1724 0.950 . S
H1714 C1726 0.950 . S
H1715 C1727 0.950 . S
C1716 H1708 0.950 . S
C1716 C1717 1.386 1_455 S
C1716 C1718 1.391 1_455 S
C1717 C1716 1.386 1_655 S
C1717 C1721 1.393 . S
C1718 H1710 0.950 1_655 S
C1718 C1716 1.391 1_655 S
C1718 C1719 1.400 1_556 S
C1719 C1718 1.400 1_554 S
C1719 C1720 1.398 1_554 S
C1719 C1725 1.491 . S
C1720 H1711 0.950 1_556 S
C1720 C1719 1.398 1_556 S
C1720 C1721 1.391 . S
C1721 H1709 0.950 . S
C1721 C1717 1.393 . S
C1721 C1720 1.391 . S
C1722 H1712 0.950 . S
C1722 C1723 1.386 . S
C1722 C1724 1.391 . S
C1723 C1722 1.386 . S
C1723 C1727 1.393 . S
C1724 H1713 0.950 . S
C1724 C1722 1.391 . S
C1724 C1725 1.400 . S
C1725 C1719 1.491 . S
C1725 C1724 1.400 . S
C1725 C1726 1.398 . S
C1726 H1714 0.950 . S
C1726 C1725 1.398 . S
C1726 C1727 1.391 . S
C1727 H1715 0.950 . S
C1727 C1723 1.393 . S
C1727 C1726 1.391 . S
H1728 C1736 0.950 1_455 S
H1729 C1741 0.950 . S
H1730 C1738 0.950 . S
H1731 C1740 0.950 . S
H1732 C1742 0.950 . S
H1733 C1744 0.950 . S
H1734 C1746 0.950 . S
H1735 C1747 0.950 . S
C1736 H1728 0.950 1_655 S
C1736 C1737 1.386 . S
C1736 C1738 1.391 . S
C1737 C1736 1.386 . S
C1737 C1741 1.393 . S
C1738 H1730 0.950 . S
C1738 C1736 1.391 . S
C1738 C1739 1.400 . S
C1739 C1738 1.400 . S
C1739 C1740 1.398 . S
C1739 C1745 1.491 . S
C1740 H1731 0.950 . S
C1740 C1739 1.398 . S
C1740 C1741 1.391 . S
C1741 H1729 0.950 . S
C1741 C1737 1.393 . S
C1741 C1740 1.391 . S
C1742 H1732 0.950 . S
C1742 C1743 1.386 . S
C1742 C1744 1.391 . S
C1743 C1742 1.386 . S
C1743 C1747 1.393 . S
C1744 H1733 0.950 . S
C1744 C1742 1.391 . S
C1744 C1745 1.400 . S
C1745 C1739 1.491 . S
C1745 C1744 1.400 . S
C1745 C1746 1.398 . S
C1746 H1734 0.950 . S
C1746 C1745 1.398 . S
C1746 C1747 1.391 . S
C1747 H1735 0.950 . S
C1747 C1743 1.393 . S
C1747 C1746 1.391 . S
H1748 C1756 0.950 . S
H1749 C1761 0.950 . S
H1750 C1758 0.950 . S
H1751 C1760 0.950 . S
H1752 C1762 0.950 . S
H1753 C1764 0.950 . S
H1754 C1766 0.950 . S
H1755 C1767 0.950 . S
C1756 H1748 0.950 . S
C1756 C1757 1.386 . S
C1756 C1758 1.391 . S
C1757 C1756 1.386 . S
C1757 C1761 1.393 . S
C1758 H1750 0.950 . S
C1758 C1756 1.391 . S
C1758 C1759 1.400 . S
C1759 C1758 1.400 . S
C1759 C1760 1.398 . S
C1759 C1765 1.491 . S
C1760 H1751 0.950 . S
C1760 C1759 1.398 . S
C1760 C1761 1.391 . S
C1761 H1749 0.950 . S
C1761 C1757 1.393 . S
C1761 C1760 1.391 . S
C1762 H1752 0.950 . S
C1762 C1763 1.386 . S
C1762 C1764 1.391 . S
C1763 C1762 1.386 . S
C1763 C1767 1.393 . S
C1764 H1753 0.950 . S
C1764 C1762 1.391 . S
C1764 C1765 1.400 . S
C1765 C1759 1.491 . S
C1765 C1764 1.400 . S
C1765 C1766 1.398 . S
C1766 H1754 0.950 . S
C1766 C1765 1.398 . S
C1766 C1767 1.391 . S
C1767 H1755 0.950 . S
C1767 C1763 1.393 . S
C1767 C1766 1.391 . S
H1768 C1776 0.950 . S
H1769 C1781 0.950 . S
H1770 C1778 0.950 . S
H1771 C1780 0.950 . S
H1772 C1782 0.950 . S
H1773 C1784 0.950 . S
H1774 C1786 0.950 . S
H1775 C1787 0.950 . S
C1776 H1768 0.950 . S
C1776 C1777 1.386 . S
C1776 C1778 1.391 . S
C1777 C1776 1.386 . S
C1777 C1781 1.393 . S
C1778 H1770 0.950 . S
C1778 C1776 1.391 . S
C1778 C1779 1.400 . S
C1779 C1778 1.400 . S
C1779 C1780 1.398 . S
C1779 C1785 1.491 . S
C1780 H1771 0.950 . S
C1780 C1779 1.398 . S
C1780 C1781 1.391 . S
C1781 H1769 0.950 . S
C1781 C1777 1.393 . S
C1781 C1780 1.391 . S
C1782 H1772 0.950 . S
C1782 C1783 1.386 . S
C1782 C1784 1.391 . S
C1783 C1782 1.386 . S
C1783 C1787 1.393 . S
C1784 H1773 0.950 . S
C1784 C1782 1.391 . S
C1784 C1785 1.400 . S
C1785 C1779 1.491 . S
C1785 C1784 1.400 . S
C1785 C1786 1.398 . S
C1786 H1774 0.950 . S
C1786 C1785 1.398 . S
C1786 C1787 1.391 . S
C1787 H1775 0.950 . S
C1787 C1783 1.393 . S
C1787 C1786 1.391 . S
H1788 C1796 0.950 . S
H1789 C1801 0.950 1_554 S
H1790 C1798 0.950 . S
H1791 C1800 0.950 . S
H1792 C1802 0.950 . S
H1793 C1804 0.950 . S
H1794 C1806 0.950 . S
H1795 C1807 0.950 . S
C1796 H1788 0.950 . S
C1796 C1797 1.386 . S
C1796 C1798 1.391 . S
C1797 C1796 1.386 . S
C1797 C1801 1.393 . S
C1798 H1790 0.950 . S
C1798 C1796 1.391 . S
C1798 C1799 1.400 . S
C1799 C1798 1.400 . S
C1799 C1800 1.398 . S
C1799 C1805 1.491 . S
C1800 H1791 0.950 . S
C1800 C1799 1.398 . S
C1800 C1801 1.391 . S
C1801 H1789 0.950 1_556 S
C1801 C1797 1.393 . S
C1801 C1800 1.391 . S
C1802 H1792 0.950 . S
C1802 C1803 1.386 . S
C1802 C1804 1.391 . S
C1803 C1802 1.386 . S
C1803 C1807 1.393 . S
C1804 H1793 0.950 . S
C1804 C1802 1.391 . S
C1804 C1805 1.400 . S
C1805 C1799 1.491 . S
C1805 C1804 1.400 . S
C1805 C1806 1.398 . S
C1806 H1794 0.950 . S
C1806 C1805 1.398 . S
C1806 C1807 1.391 . S
C1807 H1795 0.950 . S
C1807 C1803 1.393 . S
C1807 C1806 1.391 . S
H1808 C1816 0.950 . S
H1809 C1821 0.950 . S
H1810 C1818 0.950 . S
H1811 C1820 0.950 . S
H1812 C1822 0.950 . S
H1813 C1824 0.950 . S
H1814 C1826 0.950 . S
H1815 C1827 0.950 . S
C1816 H1808 0.950 . S
C1816 C1817 1.386 . S
C1816 C1818 1.391 . S
C1817 C1816 1.386 . S
C1817 C1821 1.393 . S
C1818 H1810 0.950 . S
C1818 C1816 1.391 . S
C1818 C1819 1.400 . S
C1819 C1818 1.400 . S
C1819 C1820 1.398 . S
C1819 C1825 1.491 . S
C1820 H1811 0.950 . S
C1820 C1819 1.398 . S
C1820 C1821 1.391 . S
C1821 H1809 0.950 . S
C1821 C1817 1.393 . S
C1821 C1820 1.391 . S
C1822 H1812 0.950 . S
C1822 C1823 1.386 . S
C1822 C1824 1.391 . S
C1823 C1822 1.386 . S
C1823 C1827 1.393 . S
C1824 H1813 0.950 . S
C1824 C1822 1.391 . S
C1824 C1825 1.400 . S
C1825 C1819 1.491 . S
C1825 C1824 1.400 . S
C1825 C1826 1.398 . S
C1826 H1814 0.950 . S
C1826 C1825 1.398 . S
C1826 C1827 1.391 . S
C1827 H1815 0.950 . S
C1827 C1823 1.393 . S
C1827 C1826 1.391 . S
H1828 C1836 0.950 . S
H1829 C1841 0.950 . S
H1830 C1838 0.950 . S
H1831 C1840 0.950 . S
H1832 C1842 0.950 . S
H1833 C1844 0.950 . S
H1834 C1846 0.950 . S
H1835 C1847 0.950 . S
C1836 H1828 0.950 . S
C1836 C1837 1.386 . S
C1836 C1838 1.391 . S
C1837 C1836 1.386 . S
C1837 C1841 1.393 . S
C1838 H1830 0.950 . S
C1838 C1836 1.391 . S
C1838 C1839 1.400 . S
C1839 C1838 1.400 . S
C1839 C1840 1.398 . S
C1839 C1845 1.491 . S
C1840 H1831 0.950 . S
C1840 C1839 1.398 . S
C1840 C1841 1.391 . S
C1841 H1829 0.950 . S
C1841 C1837 1.393 . S
C1841 C1840 1.391 . S
C1842 H1832 0.950 . S
C1842 C1843 1.386 . S
C1842 C1844 1.391 . S
C1843 C1842 1.386 . S
C1843 C1847 1.393 . S
C1844 H1833 0.950 . S
C1844 C1842 1.391 . S
C1844 C1845 1.400 . S
C1845 C1839 1.491 . S
C1845 C1844 1.400 . S
C1845 C1846 1.398 . S
C1846 H1834 0.950 . S
C1846 C1845 1.398 . S
C1846 C1847 1.391 . S
C1847 H1835 0.950 . S
C1847 C1843 1.393 . S
C1847 C1846 1.391 . S
H1848 C1856 0.950 . S
H1849 C1861 0.950 . S
H1850 C1858 0.950 . S
H1851 C1860 0.950 . S
H1852 C1862 0.950 . S
H1853 C1864 0.950 . S
H1854 C1866 0.950 . S
H1855 C1867 0.950 . S
C1856 H1848 0.950 . S
C1856 C1857 1.386 . S
C1856 C1858 1.391 . S
C1857 C1856 1.386 . S
C1857 C1861 1.393 . S
C1858 H1850 0.950 . S
C1858 C1856 1.391 . S
C1858 C1859 1.400 . S
C1859 C1858 1.400 . S
C1859 C1860 1.398 . S
C1859 C1865 1.491 . S
C1860 H1851 0.950 . S
C1860 C1859 1.398 . S
C1860 C1861 1.391 . S
C1861 H1849 0.950 . S
C1861 C1857 1.393 . S
C1861 C1860 1.391 . S
C1862 H1852 0.950 . S
C1862 C1863 1.386 . S
C1862 C1864 1.391 . S
C1863 C1862 1.386 . S
C1863 C1867 1.393 . S
C1864 H1853 0.950 . S
C1864 C1862 1.391 . S
C1864 C1865 1.400 . S
C1865 C1859 1.491 . S
C1865 C1864 1.400 . S
C1865 C1866 1.398 . S
C1866 H1854 0.950 . S
C1866 C1865 1.398 . S
C1866 C1867 1.391 . S
C1867 H1855 0.950 . S
C1867 C1863 1.393 . S
C1867 C1866 1.391 . S
H1868 C1876 0.950 . S
H1869 C1881 0.950 . S
H1870 C1878 0.950 . S
H1871 C1880 0.950 . S
H1872 C1882 0.950 . S
H1873 C1884 0.950 . S
H1874 C1886 0.950 . S
H1875 C1887 0.950 . S
C1876 H1868 0.950 . S
C1876 C1877 1.386 . S
C1876 C1878 1.391 . S
C1877 C1876 1.386 . S
C1877 C1881 1.393 . S
C1878 H1870 0.950 . S
C1878 C1876 1.391 . S
C1878 C1879 1.400 . S
C1879 C1878 1.400 . S
C1879 C1880 1.398 . S
C1879 C1885 1.491 . S
C1880 H1871 0.950 . S
C1880 C1879 1.398 . S
C1880 C1881 1.391 . S
C1881 H1869 0.950 . S
C1881 C1877 1.393 . S
C1881 C1880 1.391 . S
C1882 H1872 0.950 . S
C1882 C1883 1.386 . S
C1882 C1884 1.391 . S
C1883 C1882 1.386 . S
C1883 C1887 1.393 . S
C1884 H1873 0.950 . S
C1884 C1882 1.391 . S
C1884 C1885 1.400 . S
C1885 C1879 1.491 . S
C1885 C1884 1.400 . S
C1885 C1886 1.398 . S
C1886 H1874 0.950 . S
C1886 C1885 1.398 . S
C1886 C1887 1.391 . S
C1887 H1875 0.950 . S
C1887 C1883 1.393 . S
C1887 C1886 1.391 . S
H1888 C1896 0.950 . S
H1889 C1901 0.950 . S
H1890 C1898 0.950 . S
H1891 C1900 0.950 . S
H1892 C1902 0.950 . S
H1893 C1904 0.950 . S
H1894 C1906 0.950 . S
H1895 C1907 0.950 . S
C1896 H1888 0.950 . S
C1896 C1897 1.386 . S
C1896 C1898 1.391 . S
C1897 C1896 1.386 . S
C1897 C1901 1.393 . S
C1898 H1890 0.950 . S
C1898 C1896 1.391 . S
C1898 C1899 1.400 . S
C1899 C1898 1.400 . S
C1899 C1900 1.398 . S
C1899 C1905 1.491 . S
C1900 H1891 0.950 . S
C1900 C1899 1.398 . S
C1900 C1901 1.391 . S
C1901 H1889 0.950 . S
C1901 C1897 1.393 . S
C1901 C1900 1.391 . S
C1902 H1892 0.950 . S
C1902 C1903 1.386 . S
C1902 C1904 1.391 . S
C1903 C1902 1.386 . S
C1903 C1907 1.393 . S
C1904 H1893 0.950 . S
C1904 C1902 1.391 . S
C1904 C1905 1.400 . S
C1905 C1899 1.491 . S
C1905 C1904 1.400 . S
C1905 C1906 1.398 . S
C1906 H1894 0.950 . S
C1906 C1905 1.398 . S
C1906 C1907 1.391 . S
C1907 H1895 0.950 . S
C1907 C1903 1.393 . S
C1907 C1906 1.391 . S
H1908 C1916 0.950 . S
H1909 C1921 0.950 . S
H1910 C1918 0.950 . S
H1911 C1920 0.950 . S
H1912 C1922 0.950 . S
H1913 C1924 0.950 . S
H1914 C1926 0.950 . S
H1915 C1927 0.950 . S
C1916 H1908 0.950 . S
C1916 C1917 1.386 . S
C1916 C1918 1.391 . S
C1917 C1916 1.386 . S
C1917 C1921 1.393 . S
C1918 H1910 0.950 . S
C1918 C1916 1.391 . S
C1918 C1919 1.400 . S
C1919 C1918 1.400 . S
C1919 C1920 1.398 . S
C1919 C1925 1.491 . S
C1920 H1911 0.950 . S
C1920 C1919 1.398 . S
C1920 C1921 1.391 . S
C1921 H1909 0.950 . S
C1921 C1917 1.393 . S
C1921 C1920 1.391 . S
C1922 H1912 0.950 . S
C1922 C1923 1.386 . S
C1922 C1924 1.391 . S
C1923 C1922 1.386 . S
C1923 C1927 1.393 . S
C1924 H1913 0.950 . S
C1924 C1922 1.391 . S
C1924 C1925 1.400 . S
C1925 C1919 1.491 . S
C1925 C1924 1.400 . S
C1925 C1926 1.398 . S
C1926 H1914 0.950 . S
C1926 C1925 1.398 . S
C1926 C1927 1.391 . S
C1927 H1915 0.950 . S
C1927 C1923 1.393 . S
C1927 C1926 1.391 . S
H1928 C1936 0.950 . S
H1929 C1941 0.950 . S
H1930 C1938 0.950 . S
H1931 C1940 0.950 . S
H1932 C1942 0.950 . S
H1933 C1944 0.950 . S
H1934 C1946 0.950 . S
H1935 C1947 0.950 . S
C1936 H1928 0.950 . S
C1936 C1937 1.386 . S
C1936 C1938 1.391 . S
C1937 C1936 1.386 . S
C1937 C1941 1.393 . S
C1938 H1930 0.950 . S
C1938 C1936 1.391 . S
C1938 C1939 1.400 . S
C1939 C1938 1.400 . S
C1939 C1940 1.398 . S
C1939 C1945 1.491 . S
C1940 H1931 0.950 . S
C1940 C1939 1.398 . S
C1940 C1941 1.391 . S
C1941 H1929 0.950 . S
C1941 C1937 1.393 . S
C1941 C1940 1.391 . S
C1942 H1932 0.950 . S
C1942 C1943 1.386 . S
C1942 C1944 1.391 . S
C1943 C1942 1.386 . S
C1943 C1947 1.393 . S
C1944 H1933 0.950 . S
C1944 C1942 1.391 . S
C1944 C1945 1.400 . S
C1945 C1939 1.491 . S
C1945 C1944 1.400 . S
C1945 C1946 1.398 . S
C1946 H1934 0.950 . S
C1946 C1945 1.398 . S
C1946 C1947 1.391 . S
C1947 H1935 0.950 . S
C1947 C1943 1.393 . S
C1947 C1946 1.391 . S
H1948 C1956 0.950 . S
H1949 C1961 0.950 . S
H1950 C1958 0.950 . S
H1951 C1960 0.950 . S
H1952 C1962 0.950 . S
H1953 C1964 0.950 . S
H1954 C1966 0.950 . S
H1955 C1967 0.950 . S
C1956 H1948 0.950 . S
C1956 C1957 1.386 . S
C1956 C1958 1.391 . S
C1957 C1956 1.386 . S
C1957 C1961 1.393 . S
C1958 H1950 0.950 . S
C1958 C1956 1.391 . S
C1958 C1959 1.400 . S
C1959 C1958 1.400 . S
C1959 C1960 1.398 . S
C1959 C1965 1.491 . S
C1960 H1951 0.950 . S
C1960 C1959 1.398 . S
C1960 C1961 1.391 . S
C1961 H1949 0.950 . S
C1961 C1957 1.393 . S
C1961 C1960 1.391 . S
C1962 H1952 0.950 . S
C1962 C1963 1.386 . S
C1962 C1964 1.391 . S
C1963 C1962 1.386 . S
C1963 C1967 1.393 . S
C1964 H1953 0.950 . S
C1964 C1962 1.391 . S
C1964 C1965 1.400 . S
C1965 C1959 1.491 . S
C1965 C1964 1.400 . S
C1965 C1966 1.398 . S
C1966 H1954 0.950 . S
C1966 C1965 1.398 . S
C1966 C1967 1.391 . S
C1967 H1955 0.950 . S
C1967 C1963 1.393 . S
C1967 C1966 1.391 . S
H1968 C1976 0.950 . S
H1969 C1981 0.950 . S
H1970 C1978 0.950 . S
H1971 C1980 0.950 . S
H1972 C1982 0.950 . S
H1973 C1984 0.950 . S
H1974 C1986 0.950 . S
H1975 C1987 0.950 . S
C1976 H1968 0.950 . S
C1976 C1977 1.386 1_565 S
C1976 C1978 1.391 . S
C1977 C1976 1.386 1_545 S
C1977 C1981 1.393 . S
C1978 H1970 0.950 . S
C1978 C1976 1.391 . S
C1978 C1979 1.400 . S
C1979 C1978 1.400 . S
C1979 C1980 1.398 1_565 S
C1979 C1985 1.491 . S
C1980 H1971 0.950 . S
C1980 C1979 1.398 1_545 S
C1980 C1981 1.391 . S
C1981 H1969 0.950 . S
C1981 C1977 1.393 . S
C1981 C1980 1.391 . S
C1982 H1972 0.950 . S
C1982 C1983 1.386 . S
C1982 C1984 1.391 . S
C1983 C1982 1.386 . S
C1983 C1987 1.393 . S
C1984 H1973 0.950 . S
C1984 C1982 1.391 . S
C1984 C1985 1.400 . S
C1985 C1979 1.491 . S
C1985 C1984 1.400 . S
C1985 C1986 1.398 . S
C1986 H1974 0.950 . S
C1986 C1985 1.398 . S
C1986 C1987 1.391 . S
C1987 H1975 0.950 . S
C1987 C1983 1.393 . S
C1987 C1986 1.391 . S
H1988 C1996 0.950 . S
H1989 C2001 0.950 1_554 S
H1990 C1998 0.950 . S
H1991 C2000 0.950 . S
H1992 C2002 0.950 . S
H1993 C2004 0.950 . S
H1994 C2006 0.950 . S
H1995 C2007 0.950 . S
C1996 H1988 0.950 . S
C1996 C1997 1.386 . S
C1996 C1998 1.391 . S
C1997 C1996 1.386 . S
C1997 C2001 1.393 . S
C1998 H1990 0.950 . S
C1998 C1996 1.391 . S
C1998 C1999 1.400 . S
C1999 C1998 1.400 . S
C1999 C2000 1.398 . S
C1999 C2005 1.491 . S
C2000 H1991 0.950 . S
C2000 C1999 1.398 . S
C2000 C2001 1.391 . S
C2001 H1989 0.950 1_556 S
C2001 C1997 1.393 . S
C2001 C2000 1.391 . S
C2002 H1992 0.950 . S
C2002 C2003 1.386 . S
C2002 C2004 1.391 . S
C2003 C2002 1.386 . S
C2003 C2007 1.393 . S
C2004 H1993 0.950 . S
C2004 C2002 1.391 . S
C2004 C2005 1.400 . S
C2005 C1999 1.491 . S
C2005 C2004 1.400 . S
C2005 C2006 1.398 . S
C2006 H1994 0.950 . S
C2006 C2005 1.398 . S
C2006 C2007 1.391 . S
C2007 H1995 0.950 . S
C2007 C2003 1.393 . S
C2007 C2006 1.391 . S
H2008 C2016 0.950 . S
H2009 C2021 0.950 . S
H2010 C2018 0.950 . S
H2011 C2020 0.950 . S
H2012 C2022 0.950 . S
H2013 C2024 0.950 . S
H2014 C2026 0.950 . S
H2015 C2027 0.950 . S
C2016 H2008 0.950 . S
C2016 C2017 1.386 . S
C2016 C2018 1.391 . S
C2017 C2016 1.386 . S
C2017 C2021 1.393 . S
C2018 H2010 0.950 . S
C2018 C2016 1.391 . S
C2018 C2019 1.400 . S
C2019 C2018 1.400 . S
C2019 C2020 1.398 . S
C2019 C2025 1.491 . S
C2020 H2011 0.950 . S
C2020 C2019 1.398 . S
C2020 C2021 1.391 . S
C2021 H2009 0.950 . S
C2021 C2017 1.393 . S
C2021 C2020 1.391 . S
C2022 H2012 0.950 . S
C2022 C2023 1.386 . S
C2022 C2024 1.391 . S
C2023 C2022 1.386 . S
C2023 C2027 1.393 . S
C2024 H2013 0.950 . S
C2024 C2022 1.391 . S
C2024 C2025 1.400 . S
C2025 C2019 1.491 . S
C2025 C2024 1.400 . S
C2025 C2026 1.398 . S
C2026 H2014 0.950 . S
C2026 C2025 1.398 . S
C2026 C2027 1.391 . S
C2027 H2015 0.950 . S
C2027 C2023 1.393 . S
C2027 C2026 1.391 . S
H2028 C2036 0.950 . S
H2029 C2041 0.950 . S
H2030 C2038 0.950 . S
H2031 C2040 0.950 . S
H2032 C2042 0.950 . S
H2033 C2044 0.950 . S
H2034 C2046 0.950 . S
H2035 C2047 0.950 . S
C2036 H2028 0.950 . S
C2036 C2037 1.386 . S
C2036 C2038 1.391 . S
C2037 C2036 1.386 . S
C2037 C2041 1.393 . S
C2038 H2030 0.950 . S
C2038 C2036 1.391 . S
C2038 C2039 1.400 . S
C2039 C2038 1.400 . S
C2039 C2040 1.398 . S
C2039 C2045 1.491 . S
C2040 H2031 0.950 . S
C2040 C2039 1.398 . S
C2040 C2041 1.391 . S
C2041 H2029 0.950 . S
C2041 C2037 1.393 . S
C2041 C2040 1.391 . S
C2042 H2032 0.950 . S
C2042 C2043 1.386 . S
C2042 C2044 1.391 . S
C2043 C2042 1.386 . S
C2043 C2047 1.393 . S
C2044 H2033 0.950 . S
C2044 C2042 1.391 . S
C2044 C2045 1.400 . S
C2045 C2039 1.491 . S
C2045 C2044 1.400 . S
C2045 C2046 1.398 . S
C2046 H2034 0.950 . S
C2046 C2045 1.398 . S
C2046 C2047 1.391 . S
C2047 H2035 0.950 . S
C2047 C2043 1.393 . S
C2047 C2046 1.391 . S
H2048 C2056 0.950 . S
H2049 C2061 0.950 . S
H2050 C2058 0.950 . S
H2051 C2060 0.950 . S
H2052 C2062 0.950 . S
H2053 C2064 0.950 . S
H2054 C2066 0.950 . S
H2055 C2067 0.950 . S
C2056 H2048 0.950 . S
C2056 C2057 1.386 . S
C2056 C2058 1.391 . S
C2057 C2056 1.386 . S
C2057 C2061 1.393 . S
C2058 H2050 0.950 . S
C2058 C2056 1.391 . S
C2058 C2059 1.400 . S
C2059 C2058 1.400 . S
C2059 C2060 1.398 . S
C2059 C2065 1.491 . S
C2060 H2051 0.950 . S
C2060 C2059 1.398 . S
C2060 C2061 1.391 . S
C2061 H2049 0.950 . S
C2061 C2057 1.393 . S
C2061 C2060 1.391 . S
C2062 H2052 0.950 . S
C2062 C2063 1.386 . S
C2062 C2064 1.391 . S
C2063 C2062 1.386 . S
C2063 C2067 1.393 . S
C2064 H2053 0.950 . S
C2064 C2062 1.391 . S
C2064 C2065 1.400 . S
C2065 C2059 1.491 . S
C2065 C2064 1.400 . S
C2065 C2066 1.398 . S
C2066 H2054 0.950 . S
C2066 C2065 1.398 . S
C2066 C2067 1.391 . S
C2067 H2055 0.950 . S
C2067 C2063 1.393 . S
C2067 C2066 1.391 . S
H2068 C2076 0.943 1_545 S
H2069 C2081 0.950 . S
H2070 C2078 0.950 . S
H2071 C2080 0.950 . S
H2072 C2082 0.950 . S
H2073 C2084 0.958 . S
H2074 C2086 0.950 . S
H2075 C2087 0.950 . S
C2076 H2068 0.943 1_565 S
C2076 C2077 1.386 . S
C2076 C2078 1.391 . S
C2077 C2076 1.386 . S
C2077 C2081 1.393 . S
C2078 H2070 0.950 . S
C2078 C2076 1.391 . S
C2078 C2079 1.400 . S
C2079 C2078 1.400 . S
C2079 C2080 1.398 . S
C2079 C2085 1.491 1_655 S
C2080 H2071 0.950 . S
C2080 C2079 1.398 . S
C2080 C2081 1.391 . S
C2081 H2069 0.950 . S
C2081 C2077 1.393 . S
C2081 C2080 1.391 . S
C2082 H2072 0.950 . S
C2082 C2083 1.386 . S
C2082 C2084 1.391 . S
C2083 C2082 1.386 . S
C2083 C2087 1.393 . S
C2084 H2073 0.958 . S
C2084 C2082 1.391 . S
C2084 C2085 1.400 . S
C2085 C2079 1.491 1_455 S
C2085 C2084 1.400 . S
C2085 C2086 1.398 . S
C2086 H2074 0.950 . S
C2086 C2085 1.398 . S
C2086 C2087 1.391 . S
C2087 H2075 0.950 . S
C2087 C2083 1.393 . S
C2087 C2086 1.391 . S
H2088 C2096 0.950 . S
H2089 C2101 0.950 . S
H2090 C2098 0.950 . S
H2091 C2100 0.950 . S
H2092 C2102 0.950 . S
H2093 C2104 0.950 . S
H2094 C2106 0.950 . S
H2095 C2107 0.950 . S
C2096 H2088 0.950 . S
C2096 C2097 1.386 . S
C2096 C2098 1.391 . S
C2097 C2096 1.386 . S
C2097 C2101 1.393 . S
C2098 H2090 0.950 . S
C2098 C2096 1.391 . S
C2098 C2099 1.400 . S
C2099 C2098 1.400 . S
C2099 C2100 1.398 . S
C2099 C2105 1.491 . S
C2100 H2091 0.950 . S
C2100 C2099 1.398 . S
C2100 C2101 1.391 . S
C2101 H2089 0.950 . S
C2101 C2097 1.393 . S
C2101 C2100 1.391 . S
C2102 H2092 0.950 . S
C2102 C2103 1.386 . S
C2102 C2104 1.391 . S
C2103 C2102 1.386 . S
C2103 C2107 1.393 . S
C2104 H2093 0.950 . S
C2104 C2102 1.391 . S
C2104 C2105 1.400 . S
C2105 C2099 1.491 . S
C2105 C2104 1.400 . S
C2105 C2106 1.398 . S
C2106 H2094 0.950 . S
C2106 C2105 1.398 . S
C2106 C2107 1.391 . S
C2107 H2095 0.950 . S
C2107 C2103 1.393 . S
C2107 C2106 1.391 . S
H2108 C2116 0.950 . S
H2109 C2121 0.950 . S
H2110 C2118 0.950 . S
H2111 C2120 0.950 . S
H2112 C2122 0.950 . S
H2113 C2124 0.950 . S
H2114 C2126 0.950 . S
H2115 C2127 0.950 . S
C2116 H2108 0.950 . S
C2116 C2117 1.386 . S
C2116 C2118 1.391 . S
C2117 C2116 1.386 . S
C2117 C2121 1.393 . S
C2118 H2110 0.950 . S
C2118 C2116 1.391 . S
C2118 C2119 1.400 . S
C2119 C2118 1.400 . S
C2119 C2120 1.398 . S
C2119 C2125 1.491 1_556 S
C2120 H2111 0.950 . S
C2120 C2119 1.398 . S
C2120 C2121 1.391 . S
C2121 H2109 0.950 . S
C2121 C2117 1.393 . S
C2121 C2120 1.391 . S
C2122 H2112 0.950 . S
C2122 C2123 1.386 . S
C2122 C2124 1.391 . S
C2123 C2122 1.386 . S
C2123 C2127 1.393 . S
C2124 H2113 0.950 . S
C2124 C2122 1.391 . S
C2124 C2125 1.400 . S
C2125 C2119 1.491 1_554 S
C2125 C2124 1.400 . S
C2125 C2126 1.398 . S
C2126 H2114 0.950 . S
C2126 C2125 1.398 . S
C2126 C2127 1.391 . S
C2127 H2115 0.950 . S
C2127 C2123 1.393 . S
C2127 C2126 1.391 . S
H2128 C2136 0.950 . S
H2129 C2141 0.950 . S
H2130 C2138 0.950 . S
H2131 C2140 0.950 . S
H2132 C2142 0.950 . S
H2133 C2144 0.950 . S
H2134 C2146 0.950 . S
H2135 C2147 0.950 . S
C2136 H2128 0.950 . S
C2136 C2137 1.386 . S
C2136 C2138 1.391 . S
C2137 C2136 1.386 . S
C2137 C2141 1.393 . S
C2138 H2130 0.950 . S
C2138 C2136 1.391 . S
C2138 C2139 1.400 . S
C2139 C2138 1.400 . S
C2139 C2140 1.398 . S
C2139 C2145 1.491 . S
C2140 H2131 0.950 . S
C2140 C2139 1.398 . S
C2140 C2141 1.391 . S
C2141 H2129 0.950 . S
C2141 C2137 1.393 . S
C2141 C2140 1.391 . S
C2142 H2132 0.950 . S
C2142 C2143 1.386 . S
C2142 C2144 1.391 . S
C2143 C2142 1.386 . S
C2143 C2147 1.393 . S
C2144 H2133 0.950 . S
C2144 C2142 1.391 . S
C2144 C2145 1.400 . S
C2145 C2139 1.491 . S
C2145 C2144 1.400 . S
C2145 C2146 1.398 . S
C2146 H2134 0.950 . S
C2146 C2145 1.398 . S
C2146 C2147 1.391 . S
C2147 H2135 0.950 . S
C2147 C2143 1.393 . S
C2147 C2146 1.391 . S
H2148 C2156 0.950 . S
H2149 C2161 0.950 . S
H2150 C2158 0.950 . S
H2151 C2160 0.950 . S
H2152 C2162 0.950 . S
H2153 C2164 0.950 . S
H2154 C2166 0.950 . S
H2155 C2167 0.950 . S
C2156 H2148 0.950 . S
C2156 C2157 1.386 . S
C2156 C2158 1.391 . S
C2157 C2156 1.386 . S
C2157 C2161 1.393 . S
C2158 H2150 0.950 . S
C2158 C2156 1.391 . S
C2158 C2159 1.400 . S
C2159 C2158 1.400 . S
C2159 C2160 1.398 . S
C2159 C2165 1.491 . S
C2160 H2151 0.950 . S
C2160 C2159 1.398 . S
C2160 C2161 1.391 . S
C2161 H2149 0.950 . S
C2161 C2157 1.393 . S
C2161 C2160 1.391 . S
C2162 H2152 0.950 . S
C2162 C2163 1.386 . S
C2162 C2164 1.391 . S
C2163 C2162 1.386 . S
C2163 C2167 1.393 . S
C2164 H2153 0.950 . S
C2164 C2162 1.391 . S
C2164 C2165 1.400 . S
C2165 C2159 1.491 . S
C2165 C2164 1.400 . S
C2165 C2166 1.398 . S
C2166 H2154 0.950 . S
C2166 C2165 1.398 . S
C2166 C2167 1.391 . S
C2167 H2155 0.950 . S
C2167 C2163 1.393 . S
C2167 C2166 1.391 . S
H2168 C2176 0.950 . S
H2169 C2181 0.950 . S
H2170 C2178 0.950 . S
H2171 C2180 0.950 . S
H2172 C2182 0.950 . S
H2173 C2184 0.950 . S
H2174 C2186 0.950 . S
H2175 C2187 0.950 . S
C2176 H2168 0.950 . S
C2176 C2177 1.386 . S
C2176 C2178 1.391 . S
C2177 C2176 1.386 . S
C2177 C2181 1.393 . S
C2178 H2170 0.950 . S
C2178 C2176 1.391 . S
C2178 C2179 1.400 . S
C2179 C2178 1.400 . S
C2179 C2180 1.398 . S
C2179 C2185 1.491 . S
C2180 H2171 0.950 . S
C2180 C2179 1.398 . S
C2180 C2181 1.391 . S
C2181 H2169 0.950 . S
C2181 C2177 1.393 . S
C2181 C2180 1.391 . S
C2182 H2172 0.950 . S
C2182 C2183 1.386 . S
C2182 C2184 1.391 . S
C2183 C2182 1.386 . S
C2183 C2187 1.393 . S
C2184 H2173 0.950 . S
C2184 C2182 1.391 . S
C2184 C2185 1.400 . S
C2185 C2179 1.491 . S
C2185 C2184 1.400 . S
C2185 C2186 1.398 . S
C2186 H2174 0.950 . S
C2186 C2185 1.398 . S
C2186 C2187 1.391 . S
C2187 H2175 0.950 . S
C2187 C2183 1.393 . S
C2187 C2186 1.391 . S
H2188 C2196 0.950 . S
H2189 C2201 0.950 . S
H2190 C2198 0.950 . S
H2191 C2200 0.950 . S
H2192 C2202 0.950 . S
H2193 C2204 0.950 1_554 S
H2194 C2206 0.950 . S
H2195 C2207 0.950 . S
C2196 H2188 0.950 . S
C2196 C2197 1.386 . S
C2196 C2198 1.391 . S
C2197 C2196 1.386 . S
C2197 C2201 1.393 . S
C2198 H2190 0.950 . S
C2198 C2196 1.391 . S
C2198 C2199 1.400 . S
C2199 C2198 1.400 . S
C2199 C2200 1.398 . S
C2199 C2205 1.491 1_554 S
C2200 H2191 0.950 . S
C2200 C2199 1.398 . S
C2200 C2201 1.391 . S
C2201 H2189 0.950 . S
C2201 C2197 1.393 . S
C2201 C2200 1.391 . S
C2202 H2192 0.950 . S
C2202 C2203 1.386 . S
C2202 C2204 1.391 . S
C2203 C2202 1.386 . S
C2203 C2207 1.393 . S
C2204 H2193 0.950 1_556 S
C2204 C2202 1.391 . S
C2204 C2205 1.400 . S
C2205 C2199 1.491 1_556 S
C2205 C2204 1.400 . S
C2205 C2206 1.398 . S
C2206 H2194 0.950 . S
C2206 C2205 1.398 . S
C2206 C2207 1.391 . S
C2207 H2195 0.950 . S
C2207 C2203 1.393 . S
C2207 C2206 1.391 . S
H2208 C2216 0.950 . S
H2209 C2221 0.950 . S
H2210 C2218 0.950 . S
H2211 C2220 0.950 . S
H2212 C2222 0.950 . S
H2213 C2224 0.950 . S
H2214 C2226 0.950 . S
H2215 C2227 0.950 . S
C2216 H2208 0.950 . S
C2216 C2217 1.386 . S
C2216 C2218 1.391 . S
C2217 C2216 1.386 . S
C2217 C2221 1.393 . S
C2218 H2210 0.950 . S
C2218 C2216 1.391 . S
C2218 C2219 1.400 . S
C2219 C2218 1.400 . S
C2219 C2220 1.398 . S
C2219 C2225 1.491 . S
C2220 H2211 0.950 . S
C2220 C2219 1.398 . S
C2220 C2221 1.391 . S
C2221 H2209 0.950 . S
C2221 C2217 1.393 . S
C2221 C2220 1.391 . S
C2222 H2212 0.950 . S
C2222 C2223 1.386 . S
C2222 C2224 1.391 . S
C2223 C2222 1.386 . S
C2223 C2227 1.393 . S
C2224 H2213 0.950 . S
C2224 C2222 1.391 . S
C2224 C2225 1.400 . S
C2225 C2219 1.491 . S
C2225 C2224 1.400 . S
C2225 C2226 1.398 . S
C2226 H2214 0.950 . S
C2226 C2225 1.398 . S
C2226 C2227 1.391 . S
C2227 H2215 0.950 . S
C2227 C2223 1.393 . S
C2227 C2226 1.391 . S
H2228 C2236 0.950 . S
H2229 C2241 0.950 . S
H2230 C2238 0.950 . S
H2231 C2240 0.950 . S
H2232 C2242 0.950 . S
H2233 C2244 0.950 . S
H2234 C2246 0.950 . S
H2235 C2247 0.950 . S
C2236 H2228 0.950 . S
C2236 C2237 1.386 . S
C2236 C2238 1.391 . S
C2237 C2236 1.386 . S
C2237 C2241 1.393 . S
C2238 H2230 0.950 . S
C2238 C2236 1.391 . S
C2238 C2239 1.400 . S
C2239 C2238 1.400 . S
C2239 C2240 1.398 . S
C2239 C2245 1.491 . S
C2240 H2231 0.950 . S
C2240 C2239 1.398 . S
C2240 C2241 1.391 . S
C2241 H2229 0.950 . S
C2241 C2237 1.393 . S
C2241 C2240 1.391 . S
C2242 H2232 0.950 . S
C2242 C2243 1.386 . S
C2242 C2244 1.391 . S
C2243 C2242 1.386 . S
C2243 C2247 1.393 . S
C2244 H2233 0.950 . S
C2244 C2242 1.391 . S
C2244 C2245 1.400 . S
C2245 C2239 1.491 . S
C2245 C2244 1.400 . S
C2245 C2246 1.398 . S
C2246 H2234 0.950 . S
C2246 C2245 1.398 . S
C2246 C2247 1.391 . S
C2247 H2235 0.950 . S
C2247 C2243 1.393 . S
C2247 C2246 1.391 . S
H2248 C2256 0.950 . S
H2249 C2261 0.950 . S
H2250 C2258 0.950 . S
H2251 C2260 0.950 . S
H2252 C2262 0.950 . S
H2253 C2264 0.950 . S
H2254 C2266 0.950 . S
H2255 C2267 0.950 . S
C2256 H2248 0.950 . S
C2256 C2257 1.386 . S
C2256 C2258 1.391 . S
C2257 C2256 1.386 . S
C2257 C2261 1.393 . S
C2258 H2250 0.950 . S
C2258 C2256 1.391 . S
C2258 C2259 1.400 . S
C2259 C2258 1.400 . S
C2259 C2260 1.398 . S
C2259 C2265 1.491 . S
C2260 H2251 0.950 . S
C2260 C2259 1.398 . S
C2260 C2261 1.391 . S
C2261 H2249 0.950 . S
C2261 C2257 1.393 . S
C2261 C2260 1.391 . S
C2262 H2252 0.950 . S
C2262 C2263 1.386 . S
C2262 C2264 1.391 . S
C2263 C2262 1.386 . S
C2263 C2267 1.393 . S
C2264 H2253 0.950 . S
C2264 C2262 1.391 . S
C2264 C2265 1.400 . S
C2265 C2259 1.491 . S
C2265 C2264 1.400 . S
C2265 C2266 1.398 . S
C2266 H2254 0.950 . S
C2266 C2265 1.398 . S
C2266 C2267 1.391 . S
C2267 H2255 0.950 . S
C2267 C2263 1.393 . S
C2267 C2266 1.391 . S
H2268 C2276 0.950 . S
H2269 C2281 0.950 . S
H2270 C2278 0.950 . S
H2271 C2280 0.950 . S
H2272 C2282 0.950 . S
H2273 C2284 0.950 . S
H2274 C2286 0.950 . S
H2275 C2287 0.950 . S
C2276 H2268 0.950 . S
C2276 C2277 1.386 . S
C2276 C2278 1.391 . S
C2277 C2276 1.386 . S
C2277 C2281 1.393 . S
C2278 H2270 0.950 . S
C2278 C2276 1.391 . S
C2278 C2279 1.400 . S
C2279 C2278 1.400 . S
C2279 C2280 1.398 . S
C2279 C2285 1.491 . S
C2280 H2271 0.950 . S
C2280 C2279 1.398 . S
C2280 C2281 1.391 . S
C2281 H2269 0.950 . S
C2281 C2277 1.393 . S
C2281 C2280 1.391 . S
C2282 H2272 0.950 . S
C2282 C2283 1.386 . S
C2282 C2284 1.391 . S
C2283 C2282 1.386 . S
C2283 C2287 1.393 . S
C2284 H2273 0.950 . S
C2284 C2282 1.391 . S
C2284 C2285 1.400 . S
C2285 C2279 1.491 . S
C2285 C2284 1.400 . S
C2285 C2286 1.398 . S
C2286 H2274 0.950 . S
C2286 C2285 1.398 . S
C2286 C2287 1.391 . S
C2287 H2275 0.950 . S
C2287 C2283 1.393 . S
C2287 C2286 1.391 . S
H2288 C2296 0.950 . S
H2289 C2301 0.950 . S
H2290 C2298 0.950 . S
H2291 C2300 0.950 . S
H2292 C2302 0.950 . S
H2293 C2304 0.950 . S
H2294 C2306 0.950 . S
H2295 C2307 0.950 . S
C2296 H2288 0.950 . S
C2296 C2297 1.386 . S
C2296 C2298 1.391 . S
C2297 C2296 1.386 . S
C2297 C2301 1.393 . S
C2298 H2290 0.950 . S
C2298 C2296 1.391 . S
C2298 C2299 1.400 . S
C2299 C2298 1.400 . S
C2299 C2300 1.398 . S
C2299 C2305 1.491 . S
C2300 H2291 0.950 . S
C2300 C2299 1.398 . S
C2300 C2301 1.391 . S
C2301 H2289 0.950 . S
C2301 C2297 1.393 . S
C2301 C2300 1.391 . S
C2302 H2292 0.950 . S
C2302 C2303 1.386 . S
C2302 C2304 1.391 . S
C2303 C2302 1.386 . S
C2303 C2307 1.393 . S
C2304 H2293 0.950 . S
C2304 C2302 1.391 . S
C2304 C2305 1.400 . S
C2305 C2299 1.491 . S
C2305 C2304 1.400 . S
C2305 C2306 1.398 . S
C2306 H2294 0.950 . S
C2306 C2305 1.398 . S
C2306 C2307 1.391 . S
C2307 H2295 0.950 . S
C2307 C2303 1.393 . S
C2307 C2306 1.391 . S
H2308 C2316 0.950 . S
H2309 C2321 0.950 . S
H2310 C2318 0.950 . S
H2311 C2320 0.950 . S
H2312 C2322 0.950 . S
H2313 C2324 0.950 . S
H2314 C2326 0.950 . S
H2315 C2327 0.950 . S
C2316 H2308 0.950 . S
C2316 C2317 1.386 . S
C2316 C2318 1.391 . S
C2317 C2316 1.386 . S
C2317 C2321 1.393 . S
C2318 H2310 0.950 . S
C2318 C2316 1.391 . S
C2318 C2319 1.400 . S
C2319 C2318 1.400 . S
C2319 C2320 1.398 . S
C2319 C2325 1.491 . S
C2320 H2311 0.950 . S
C2320 C2319 1.398 . S
C2320 C2321 1.391 . S
C2321 H2309 0.950 . S
C2321 C2317 1.393 . S
C2321 C2320 1.391 . S
C2322 H2312 0.950 . S
C2322 C2323 1.386 . S
C2322 C2324 1.391 . S
C2323 C2322 1.386 . S
C2323 C2327 1.393 . S
C2324 H2313 0.950 . S
C2324 C2322 1.391 . S
C2324 C2325 1.400 . S
C2325 C2319 1.491 . S
C2325 C2324 1.400 . S
C2325 C2326 1.398 . S
C2326 H2314 0.950 . S
C2326 C2325 1.398 . S
C2326 C2327 1.391 . S
C2327 H2315 0.950 . S
C2327 C2323 1.393 . S
C2327 C2326 1.391 . S
H2328 C2336 0.950 . S
H2329 C2341 0.950 . S
H2330 C2338 0.950 . S
H2331 C2340 0.950 . S
H2332 C2342 0.950 . S
H2333 C2344 0.950 . S
H2334 C2346 0.950 . S
H2335 C2347 0.950 . S
C2336 H2328 0.950 . S
C2336 C2337 1.386 . S
C2336 C2338 1.391 . S
C2337 C2336 1.386 . S
C2337 C2341 1.393 . S
C2338 H2330 0.950 . S
C2338 C2336 1.391 . S
C2338 C2339 1.400 . S
C2339 C2338 1.400 . S
C2339 C2340 1.398 . S
C2339 C2345 1.491 . S
C2340 H2331 0.950 . S
C2340 C2339 1.398 . S
C2340 C2341 1.391 . S
C2341 H2329 0.950 . S
C2341 C2337 1.393 . S
C2341 C2340 1.391 . S
C2342 H2332 0.950 . S
C2342 C2343 1.386 . S
C2342 C2344 1.391 . S
C2343 C2342 1.386 . S
C2343 C2347 1.393 . S
C2344 H2333 0.950 . S
C2344 C2342 1.391 . S
C2344 C2345 1.400 . S
C2345 C2339 1.491 . S
C2345 C2344 1.400 . S
C2345 C2346 1.398 . S
C2346 H2334 0.950 . S
C2346 C2345 1.398 . S
C2346 C2347 1.391 . S
C2347 H2335 0.950 . S
C2347 C2343 1.393 . S
C2347 C2346 1.391 . S
H2348 C2356 0.950 1_554 S
H2349 C2361 0.950 . S
H2350 C2358 0.950 . S
H2351 C2360 0.950 . S
H2352 C2362 0.950 . S
H2353 C2364 0.950 . S
H2354 C2366 0.950 . S
H2355 C2367 0.950 . S
C2356 H2348 0.950 1_556 S
C2356 C2357 1.386 . S
C2356 C2358 1.391 . S
C2357 C2356 1.386 . S
C2357 C2361 1.393 . S
C2358 H2350 0.950 . S
C2358 C2356 1.391 . S
C2358 C2359 1.400 . S
C2359 C2358 1.400 . S
C2359 C2360 1.398 . S
C2359 C2365 1.491 . S
C2360 H2351 0.950 . S
C2360 C2359 1.398 . S
C2360 C2361 1.391 . S
C2361 H2349 0.950 . S
C2361 C2357 1.393 . S
C2361 C2360 1.391 . S
C2362 H2352 0.950 . S
C2362 C2363 1.386 . S
C2362 C2364 1.391 . S
C2363 C2362 1.386 . S
C2363 C2367 1.393 . S
C2364 H2353 0.950 . S
C2364 C2362 1.391 . S
C2364 C2365 1.400 . S
C2365 C2359 1.491 . S
C2365 C2364 1.400 . S
C2365 C2366 1.398 . S
C2366 H2354 0.950 . S
C2366 C2365 1.398 . S
C2366 C2367 1.391 . S
C2367 H2355 0.950 . S
C2367 C2363 1.393 . S
C2367 C2366 1.391 . S
H2368 C2376 0.950 . S
H2369 C2381 0.950 . S
H2370 C2378 0.950 . S
H2371 C2380 0.950 . S
H2372 C2382 0.950 . S
H2373 C2384 0.950 . S
H2374 C2386 0.950 . S
H2375 C2387 0.950 . S
C2376 H2368 0.950 . S
C2376 C2377 1.386 . S
C2376 C2378 1.391 . S
C2377 C2376 1.386 . S
C2377 C2381 1.393 . S
C2378 H2370 0.950 . S
C2378 C2376 1.391 . S
C2378 C2379 1.400 . S
C2379 C2378 1.400 . S
C2379 C2380 1.398 . S
C2379 C2385 1.491 . S
C2380 H2371 0.950 . S
C2380 C2379 1.398 . S
C2380 C2381 1.391 . S
C2381 H2369 0.950 . S
C2381 C2377 1.393 . S
C2381 C2380 1.391 . S
C2382 H2372 0.950 . S
C2382 C2383 1.386 . S
C2382 C2384 1.391 . S
C2383 C2382 1.386 . S
C2383 C2387 1.393 . S
C2384 H2373 0.950 . S
C2384 C2382 1.391 . S
C2384 C2385 1.400 . S
C2385 C2379 1.491 . S
C2385 C2384 1.400 . S
C2385 C2386 1.398 . S
C2386 H2374 0.950 . S
C2386 C2385 1.398 . S
C2386 C2387 1.391 . S
C2387 H2375 0.950 . S
C2387 C2383 1.393 . S
C2387 C2386 1.391 . S
H2388 C2396 0.950 . S
H2389 C2401 0.950 . S
H2390 C2398 0.950 . S
H2391 C2400 0.950 . S
H2392 C2402 0.950 . S
H2393 C2404 0.950 . S
H2394 C2406 0.950 . S
H2395 C2407 0.950 . S
C2396 H2388 0.950 . S
C2396 C2397 1.386 . S
C2396 C2398 1.391 . S
C2397 C2396 1.386 . S
C2397 C2401 1.393 . S
C2398 H2390 0.950 . S
C2398 C2396 1.391 . S
C2398 C2399 1.400 . S
C2399 C2398 1.400 . S
C2399 C2400 1.398 . S
C2399 C2405 1.491 . S
C2400 H2391 0.950 . S
C2400 C2399 1.398 . S
C2400 C2401 1.391 . S
C2401 H2389 0.950 . S
C2401 C2397 1.393 . S
C2401 C2400 1.391 . S
C2402 H2392 0.950 . S
C2402 C2403 1.386 . S
C2402 C2404 1.391 . S
C2403 C2402 1.386 . S
C2403 C2407 1.393 . S
C2404 H2393 0.950 . S
C2404 C2402 1.391 . S
C2404 C2405 1.400 . S
C2405 C2399 1.491 . S
C2405 C2404 1.400 . S
C2405 C2406 1.398 . S
C2406 H2394 0.950 . S
C2406 C2405 1.398 . S
C2406 C2407 1.391 . S
C2407 H2395 0.950 . S
C2407 C2403 1.393 . S
C2407 C2406 1.391 . S
H2408 C2416 0.950 . S
H2409 C2421 0.950 . S
H2410 C2418 0.950 . S
H2411 C2420 0.950 . S
H2412 C2422 0.950 . S
H2413 C2424 0.950 . S
H2414 C2426 0.950 . S
H2415 C2427 0.950 . S
C2416 H2408 0.950 . S
C2416 C2417 1.386 . S
C2416 C2418 1.391 . S
C2417 C2416 1.386 . S
C2417 C2421 1.393 . S
C2418 H2410 0.950 . S
C2418 C2416 1.391 . S
C2418 C2419 1.400 . S
C2419 C2418 1.400 . S
C2419 C2420 1.398 . S
C2419 C2425 1.491 . S
C2420 H2411 0.950 . S
C2420 C2419 1.398 . S
C2420 C2421 1.391 . S
C2421 H2409 0.950 . S
C2421 C2417 1.393 . S
C2421 C2420 1.391 . S
C2422 H2412 0.950 . S
C2422 C2423 1.386 . S
C2422 C2424 1.391 . S
C2423 C2422 1.386 . S
C2423 C2427 1.393 . S
C2424 H2413 0.950 . S
C2424 C2422 1.391 . S
C2424 C2425 1.400 . S
C2425 C2419 1.491 . S
C2425 C2424 1.400 . S
C2425 C2426 1.398 . S
C2426 H2414 0.950 . S
C2426 C2425 1.398 . S
C2426 C2427 1.391 . S
C2427 H2415 0.950 . S
C2427 C2423 1.393 . S
C2427 C2426 1.391 . S
H2428 C2436 0.950 . S
H2429 C2441 0.950 . S
H2430 C2438 0.950 . S
H2431 C2440 0.950 . S
H2432 C2442 0.950 . S
H2433 C2444 0.950 . S
H2434 C2446 0.950 . S
H2435 C2447 0.950 . S
C2436 H2428 0.950 . S
C2436 C2437 1.386 . S
C2436 C2438 1.391 . S
C2437 C2436 1.386 . S
C2437 C2441 1.393 . S
C2438 H2430 0.950 . S
C2438 C2436 1.391 . S
C2438 C2439 1.400 . S
C2439 C2438 1.400 . S
C2439 C2440 1.398 . S
C2439 C2445 1.491 . S
C2440 H2431 0.950 . S
C2440 C2439 1.398 . S
C2440 C2441 1.391 . S
C2441 H2429 0.950 . S
C2441 C2437 1.393 . S
C2441 C2440 1.391 . S
C2442 H2432 0.950 . S
C2442 C2443 1.386 . S
C2442 C2444 1.391 . S
C2443 C2442 1.386 . S
C2443 C2447 1.393 . S
C2444 H2433 0.950 . S
C2444 C2442 1.391 . S
C2444 C2445 1.400 . S
C2445 C2439 1.491 . S
C2445 C2444 1.400 . S
C2445 C2446 1.398 . S
C2446 H2434 0.950 . S
C2446 C2445 1.398 . S
C2446 C2447 1.391 . S
C2447 H2435 0.950 . S
C2447 C2443 1.393 . S
C2447 C2446 1.391 . S
H2448 C2456 0.950 . S
H2449 C2461 0.950 1_565 S
H2450 C2458 0.950 . S
H2451 C2460 0.950 . S
H2452 C2462 0.950 . S
H2453 C2464 0.950 . S
H2454 C2466 0.950 . S
H2455 C2467 0.950 . S
C2456 H2448 0.950 . S
C2456 C2457 1.386 . S
C2456 C2458 1.391 . S
C2457 C2456 1.386 . S
C2457 C2461 1.393 . S
C2458 H2450 0.950 . S
C2458 C2456 1.391 . S
C2458 C2459 1.400 . S
C2459 C2458 1.400 . S
C2459 C2460 1.398 . S
C2459 C2465 1.491 . S
C2460 H2451 0.950 . S
C2460 C2459 1.398 . S
C2460 C2461 1.391 . S
C2461 H2449 0.950 1_545 S
C2461 C2457 1.393 . S
C2461 C2460 1.391 . S
C2462 H2452 0.950 . S
C2462 C2463 1.386 . S
C2462 C2464 1.391 . S
C2463 C2462 1.386 . S
C2463 C2467 1.393 . S
C2464 H2453 0.950 . S
C2464 C2462 1.391 . S
C2464 C2465 1.400 . S
C2465 C2459 1.491 . S
C2465 C2464 1.400 . S
C2465 C2466 1.398 . S
C2466 H2454 0.950 . S
C2466 C2465 1.398 . S
C2466 C2467 1.391 . S
C2467 H2455 0.950 . S
C2467 C2463 1.393 . S
C2467 C2466 1.391 . S
H2468 C2476 0.950 . S
H2469 C2481 0.950 . S
H2470 C2478 0.950 . S
H2471 C2480 0.950 . S
H2472 C2482 0.950 . S
H2473 C2484 0.950 . S
H2474 C2486 0.950 . S
H2475 C2487 0.950 . S
C2476 H2468 0.950 . S
C2476 C2477 1.386 . S
C2476 C2478 1.391 . S
C2477 C2476 1.386 . S
C2477 C2481 1.393 . S
C2478 H2470 0.950 . S
C2478 C2476 1.391 . S
C2478 C2479 1.400 . S
C2479 C2478 1.400 . S
C2479 C2480 1.398 . S
C2479 C2485 1.491 . S
C2480 H2471 0.950 . S
C2480 C2479 1.398 . S
C2480 C2481 1.391 . S
C2481 H2469 0.950 . S
C2481 C2477 1.393 . S
C2481 C2480 1.391 . S
C2482 H2472 0.950 . S
C2482 C2483 1.386 . S
C2482 C2484 1.391 . S
C2483 C2482 1.386 . S
C2483 C2487 1.393 . S
C2484 H2473 0.950 . S
C2484 C2482 1.391 . S
C2484 C2485 1.400 . S
C2485 C2479 1.491 . S
C2485 C2484 1.400 . S
C2485 C2486 1.398 . S
C2486 H2474 0.950 . S
C2486 C2485 1.398 . S
C2486 C2487 1.391 . S
C2487 H2475 0.950 . S
C2487 C2483 1.393 . S
C2487 C2486 1.391 . S
H2488 C2496 0.950 . S
H2489 C2501 0.950 . S
H2490 C2498 0.950 . S
H2491 C2500 0.950 . S
H2492 C2502 0.950 . S
H2493 C2504 0.950 . S
H2494 C2506 0.950 . S
H2495 C2507 0.950 . S
C2496 H2488 0.950 . S
C2496 C2497 1.386 . S
C2496 C2498 1.391 . S
C2497 C2496 1.386 . S
C2497 C2501 1.393 . S
C2498 H2490 0.950 . S
C2498 C2496 1.391 . S
C2498 C2499 1.400 . S
C2499 C2498 1.400 . S
C2499 C2500 1.398 . S
C2499 C2505 1.491 . S
C2500 H2491 0.950 . S
C2500 C2499 1.398 . S
C2500 C2501 1.391 . S
C2501 H2489 0.950 . S
C2501 C2497 1.393 . S
C2501 C2500 1.391 . S
C2502 H2492 0.950 . S
C2502 C2503 1.386 . S
C2502 C2504 1.391 . S
C2503 C2502 1.386 . S
C2503 C2507 1.393 . S
C2504 H2493 0.950 . S
C2504 C2502 1.391 . S
C2504 C2505 1.400 . S
C2505 C2499 1.491 . S
C2505 C2504 1.400 . S
C2505 C2506 1.398 . S
C2506 H2494 0.950 . S
C2506 C2505 1.398 . S
C2506 C2507 1.391 . S
C2507 H2495 0.950 . S
C2507 C2503 1.393 . S
C2507 C2506 1.391 . S
H2508 C2516 0.950 . S
H2509 C2521 0.950 . S
H2510 C2518 0.950 . S
H2511 C2520 0.950 . S
H2512 C2522 0.950 . S
H2513 C2524 0.950 . S
H2514 C2526 0.950 . S
H2515 C2527 0.950 . S
C2516 H2508 0.950 . S
C2516 C2517 1.386 . S
C2516 C2518 1.391 . S
C2517 C2516 1.386 . S
C2517 C2521 1.393 . S
C2518 H2510 0.950 . S
C2518 C2516 1.391 . S
C2518 C2519 1.400 . S
C2519 C2518 1.400 . S
C2519 C2520 1.398 . S
C2519 C2525 1.491 . S
C2520 H2511 0.950 . S
C2520 C2519 1.398 . S
C2520 C2521 1.391 . S
C2521 H2509 0.950 . S
C2521 C2517 1.393 . S
C2521 C2520 1.391 . S
C2522 H2512 0.950 . S
C2522 C2523 1.386 . S
C2522 C2524 1.391 . S
C2523 C2522 1.386 . S
C2523 C2527 1.393 . S
C2524 H2513 0.950 . S
C2524 C2522 1.391 . S
C2524 C2525 1.400 . S
C2525 C2519 1.491 . S
C2525 C2524 1.400 . S
C2525 C2526 1.398 . S
C2526 H2514 0.950 . S
C2526 C2525 1.398 . S
C2526 C2527 1.391 . S
C2527 H2515 0.950 . S
C2527 C2523 1.393 . S
C2527 C2526 1.391 . S
H2528 C2536 0.950 . S
H2529 C2541 0.950 1_545 S
H2530 C2538 0.950 . S
H2531 C2540 0.950 1_545 S
H2532 C2542 0.950 . S
H2533 C2544 0.950 . S
H2534 C2546 0.950 . S
H2535 C2547 0.950 . S
C2536 H2528 0.950 . S
C2536 C2537 1.386 . S
C2536 C2538 1.391 . S
C2537 C2536 1.386 . S
C2537 C2541 1.393 . S
C2538 H2530 0.950 . S
C2538 C2536 1.391 . S
C2538 C2539 1.400 . S
C2539 C2538 1.400 . S
C2539 C2540 1.398 . S
C2539 C2545 1.491 . S
C2540 H2531 0.950 1_565 S
C2540 C2539 1.398 . S
C2540 C2541 1.391 . S
C2541 H2529 0.950 1_565 S
C2541 C2537 1.393 . S
C2541 C2540 1.391 . S
C2542 H2532 0.950 . S
C2542 C2543 1.386 . S
C2542 C2544 1.391 . S
C2543 C2542 1.386 . S
C2543 C2547 1.393 . S
C2544 H2533 0.950 . S
C2544 C2542 1.391 . S
C2544 C2545 1.400 . S
C2545 C2539 1.491 . S
C2545 C2544 1.400 . S
C2545 C2546 1.398 . S
C2546 H2534 0.950 . S
C2546 C2545 1.398 . S
C2546 C2547 1.391 . S
C2547 H2535 0.950 . S
C2547 C2543 1.393 . S
C2547 C2546 1.391 . S
H2548 C2556 0.950 . S
H2549 C2561 0.950 . S
H2550 C2558 0.950 . S
H2551 C2560 0.950 . S
H2552 C2562 0.950 . S
H2553 C2564 0.950 . S
H2554 C2566 0.950 . S
H2555 C2567 0.950 . S
C2556 H2548 0.950 . S
C2556 C2557 1.386 . S
C2556 C2558 1.391 . S
C2557 C2556 1.386 . S
C2557 C2561 1.393 . S
C2558 H2550 0.950 . S
C2558 C2556 1.391 . S
C2558 C2559 1.400 . S
C2559 C2558 1.400 . S
C2559 C2560 1.398 . S
C2559 C2565 1.491 1_455 S
C2560 H2551 0.950 . S
C2560 C2559 1.398 . S
C2560 C2561 1.391 . S
C2561 H2549 0.950 . S
C2561 C2557 1.393 . S
C2561 C2560 1.391 . S
C2562 H2552 0.950 . S
C2562 C2563 1.386 . S
C2562 C2564 1.391 . S
C2563 C2562 1.386 . S
C2563 C2567 1.393 . S
C2564 H2553 0.950 . S
C2564 C2562 1.391 . S
C2564 C2565 1.400 . S
C2565 C2559 1.491 1_655 S
C2565 C2564 1.400 . S
C2565 C2566 1.398 . S
C2566 H2554 0.950 . S
C2566 C2565 1.398 . S
C2566 C2567 1.391 . S
C2567 H2555 0.950 . S
C2567 C2563 1.393 . S
C2567 C2566 1.391 . S
C663 C330 1.180 . S
C657 C10 1.231 . S
C677 C16 1.515 . S
C683 C350 1.536 . S
C703 C370 1.157 . S
C697 C30 1.233 . S
C723 C389 1.518 . S
C717 C42 1.514 . S
C743 C347 1.445 . S
C737 C57 1.437 . S
C757 C69 1.288 . S
C763 C372 1.231 . S
C783 C392 1.408 . S
C777 C83 1.411 . S
C797 C101 1.317 . S
C803 C328 1.233 . S
C817 C108 1.557 . S
C823 C325 1.455 . S
C843 C348 1.286 . S
C837 C120 1.348 . S
C863 C371 1.454 . S
C857 C133 1.433 . S
C883 C393 1.412 . S
C877 C147 1.468 . S
C903 C351 1.015 . S
C897 C114 1.092 . S
C923 C367 1.118 . S
C917 C122 1.209 . S
C937 C135 1.249 . S
C943 C390 1.182 . S
C963 C329 1.086 . S
C957 C153 1.066 . S
C977 C160 1.445 . S
C983 C326 1.470 . S
C997 C174 1.005 . S
C1003 C409 0.907 . S
C1023 C431 1.438 . S
C1017 C187 1.411 . S
C1043 C454 1.103 . S
C1037 C205 1.290 . S
C1057 C212 1.477 . S
C1063 C327 1.431 . S
C1077 C226 1.527 . S
C1083 C369 1.447 . S
C1103 C451 1.233 . S
C1097 C185 1.379 . S
C1123 C412 0.983 . S
C1117 C244 1.071 . S
C1143 C477 1.080 . S
C1137 C23 1.124 . S
C1163 C497 1.597 . S
C1157 C5 1.603 . S
C1177 C49 1.175 . S
C1183 C519 1.111 . S
C1197 C29 1.230 . S
C1203 C536 1.231 . S
C1217 C94 1.692 . S
C1223 C494 1.680 . S
C1237 C88 1.260 . S
C1243 C517 1.099 . S
C1263 C539 1.307 . S
C1257 C70 1.308 . S
C1277 C62 1.316 . S
C1283 C475 1.136 . S
C1297 C257 1.134 . S
C1303 C472 0.995 . S
C1323 C495 1.467 . S
C1317 C200 1.557 . S
C1343 C514 1.296 . S
C1337 C211 1.445 . S
C1363 C540 1.279 . S
C1357 C179 1.372 . S
C1383 C498 1.088 . S
C1377 C251 1.151 . S
C1403 C518 1.067 . S
C1397 C198 1.067 . S
C1423 C537 0.990 . S
C1417 C213 1.029 . S
C1437 C173 1.359 . S
C1443 C476 1.366 . S
C1463 C473 1.417 . S
C1457 C264 1.418 . S
C1477 C148 1.269 . S
C1483 C556 1.070 . S
C1503 C579 1.395 . S
C1497 C278 1.459 . S
C1517 C127 1.325 . S
C1523 C601 1.117 . S
C1543 C474 1.382 . S
C1537 C140 1.437 . S
C1563 C515 1.431 . S
C1557 C289 1.431 . S
C1583 C598 0.977 . S
C1577 C276 1.098 . S
C1597 C303 0.979 . S
C1603 C559 0.871 . S
C1617 C36 1.233 . S
C1623 C624 1.186 . S
C1637 C44 1.526 . S
C1643 C413 1.538 . S
C1663 C433 1.140 . S
C1657 C4 1.230 . S
C1677 C18 1.517 . S
C1683 C452 1.528 . S
C1697 C81 1.431 . S
C1703 C410 1.456 . S
C1717 C95 1.286 . S
C1723 C435 1.240 . S
C1743 C455 1.419 . S
C1737 C55 1.403 . S
C1763 C622 1.236 . S
C1757 C75 1.334 . S
C1783 C619 1.437 . S
C1777 C277 1.574 . S
C1803 C411 1.257 . S
C1797 C263 1.341 . S
C1823 C434 1.457 . S
C1817 C302 1.414 . S
C1837 C290 1.489 . S
C1843 C456 1.432 . S
C1863 C414 1.043 . S
C1857 C283 1.093 . S
C1877 C265 1.224 . S
C1883 C430 1.120 . S
C1903 C453 1.184 . S
C1897 C304 1.242 . S
C1917 C296 1.047 . S
C1923 C623 1.080 . S
C1943 C620 1.471 . S
C1937 C199 1.450 . S
C1957 C224 0.997 . S
C1963 C346 0.933 . S
C1983 C368 1.431 . S
C1977 C252 1.426 . S
C1997 C166 1.305 . S
C2003 C391 1.113 . S
C2023 C621 1.424 . S
C2017 C238 1.484 . S
C2043 C432 1.451 . S
C2037 C172 1.530 . S
C2063 C388 1.222 . S
C2057 C250 1.371 . S
C2083 C349 0.993 . S
C2077 C218 1.055 . S
C2097 C43 1.125 . S
C2103 C645 1.085 . S
C2117 C31 1.611 . S
C2123 C560 1.599 . S
C2137 C17 1.175 . S
C2143 C582 1.110 . S
C2163 C599 1.224 . S
C2157 C3 1.226 . S
C2183 C557 1.676 . S
C2177 C68 1.683 . S
C2197 C56 1.267 . S
C2203 C580 1.107 . S
C2223 C602 1.328 . S
C2217 C96 1.332 . S
C2237 C82 1.321 . S
C2243 C643 1.140 . S
C2263 C640 0.991 . S
C2257 C192 1.133 . S
C2277 C161 1.552 . S
C2283 C558 1.458 . S
C2297 C237 1.433 . S
C2303 C577 1.258 . S
C2323 C603 1.284 . S
C2317 C225 1.378 . S
C2343 C561 1.079 . S
C2337 C186 1.148 . S
C2357 C159 1.066 . S
C2363 C581 1.063 . S
C2383 C600 0.963 . S
C2377 C239 1.010 . S
C2403 C644 1.360 . S
C2397 C231 1.361 . S
C2423 C641 1.417 . S
C2417 C121 1.418 . S
C2443 C493 1.121 . S
C2437 C291 1.284 . S
C2457 C109 1.462 . S
C2463 C516 1.393 . S
C2477 C270 1.318 . S
C2483 C538 1.091 . S
C2503 C642 1.381 . S
C2497 C309 1.437 . S
C2523 C578 1.432 . S
C2517 C146 1.432 . S
C2543 C535 0.978 . S
C2537 C107 1.102 . S
C2563 C496 0.912 . S
C2557 C134 0.992 . S
