# Generated by pormake.
# Topology dag, (6,3)-cn, num edge types: 1
# Building blocks:
#     Node 0, Type 0, BuildingBlock: OJICUG_clean_sbu_0, # of connection points: 6
#     Node 1, Type 0, BuildingBlock: OJICUG_clean_sbu_0, # of connection points: 6
#     Node 2, Type 0, BuildingBlock: OJICUG_clean_sbu_0, # of connection points: 6
#     Node 3, Type 0, BuildingBlock: OJICUG_clean_sbu_0, # of connection points: 6
#     Node 4, Type 1, BuildingBlock: OLANEW_clean_sbu_2, # of connection points: 3
#     Node 5, Type 1, BuildingBlock: OLANEW_clean_sbu_2, # of connection points: 3
#     Node 6, Type 1, BuildingBlock: OLANEW_clean_sbu_2, # of connection points: 3
#     Node 7, Type 1, BuildingBlock: OLANEW_clean_sbu_2, # of connection points: 3
#     Node 8, Type 1, BuildingBlock: OLANEW_clean_sbu_2, # of connection points: 3
#     Node 9, Type 1, BuildingBlock: OLANEW_clean_sbu_2, # of connection points: 3
#     Node 10, Type 1, BuildingBlock: OLANEW_clean_sbu_2, # of connection points: 3
#     Node 11, Type 1, BuildingBlock: OLANEW_clean_sbu_2, # of connection points: 3
#     Edge 12, Type (0, 1), BuildingBlock: KIFKEQ_clean_linker_1, # of connection points: 2
#     Edge 13, Type (0, 1), BuildingBlock: KIFKEQ_clean_linker_1, # of connection points: 2
#     Edge 14, Type (0, 1), BuildingBlock: KIFKEQ_clean_linker_1, # of connection points: 2
#     Edge 15, Type (0, 1), BuildingBlock: KIFKEQ_clean_linker_1, # of connection points: 2
#     Edge 16, Type (0, 1), BuildingBlock: KIFKEQ_clean_linker_1, # of connection points: 2
#     Edge 17, Type (0, 1), BuildingBlock: KIFKEQ_clean_linker_1, # of connection points: 2
#     Edge 18, Type (0, 1), BuildingBlock: KIFKEQ_clean_linker_1, # of connection points: 2
#     Edge 19, Type (0, 1), BuildingBlock: KIFKEQ_clean_linker_1, # of connection points: 2
#     Edge 20, Type (0, 1), BuildingBlock: KIFKEQ_clean_linker_1, # of connection points: 2
#     Edge 21, Type (0, 1), BuildingBlock: KIFKEQ_clean_linker_1, # of connection points: 2
#     Edge 22, Type (0, 1), BuildingBlock: KIFKEQ_clean_linker_1, # of connection points: 2
#     Edge 23, Type (0, 1), BuildingBlock: KIFKEQ_clean_linker_1, # of connection points: 2
#     Edge 24, Type (0, 1), BuildingBlock: KIFKEQ_clean_linker_1, # of connection points: 2
#     Edge 25, Type (0, 1), BuildingBlock: KIFKEQ_clean_linker_1, # of connection points: 2
#     Edge 26, Type (0, 1), BuildingBlock: KIFKEQ_clean_linker_1, # of connection points: 2
#     Edge 27, Type (0, 1), BuildingBlock: KIFKEQ_clean_linker_1, # of connection points: 2
#     Edge 28, Type (0, 1), BuildingBlock: KIFKEQ_clean_linker_1, # of connection points: 2
#     Edge 29, Type (0, 1), BuildingBlock: KIFKEQ_clean_linker_1, # of connection points: 2
#     Edge 30, Type (0, 1), BuildingBlock: KIFKEQ_clean_linker_1, # of connection points: 2
#     Edge 31, Type (0, 1), BuildingBlock: KIFKEQ_clean_linker_1, # of connection points: 2
#     Edge 32, Type (0, 1), BuildingBlock: KIFKEQ_clean_linker_1, # of connection points: 2
#     Edge 33, Type (0, 1), BuildingBlock: KIFKEQ_clean_linker_1, # of connection points: 2
#     Edge 34, Type (0, 1), BuildingBlock: KIFKEQ_clean_linker_1, # of connection points: 2
#     Edge 35, Type (0, 1), BuildingBlock: KIFKEQ_clean_linker_1, # of connection points: 2
# Relax obj value: 0.128
# Max RMSD: 0.158
# Mean RMSD: 0.121
data_MOF--net-dag--node1-OJICUG_clean_sbu_0--node2-OLANEW_clean_sbu_2--edge1-KIFKEQ_clean_linker_1
_symmetry_space_group_name_H-M    P1
_symmetry_Int_Tables_number       1
_symmetry_cell_setting            triclinic
loop_
_symmetry_equiv_pos_as_xyz
'x, y, z'
_cell_length_a     42.038344
_cell_length_b     38.97469
_cell_length_c     41.425809
_cell_angle_alpha  92.384149
_cell_angle_beta   94.257553
_cell_angle_gamma 91.265539
loop_
_atom_site_label
_atom_site_type_symbol
_atom_site_fract_x
_atom_site_fract_y
_atom_site_fract_z
_atom_type_partial_charge
Sc0 Sc 0.10188 0.90612 0.01534 0.0
Sc1 Sc 0.12747 0.82174 0.9999 0.0
Sc2 Sc 0.18408 0.88711 0.02289 0.0
O3 O 0.13773 0.87177 0.01274 0.0
C4 C 0.15629 0.95315 0.98804 0.0
C5 C 0.08063 0.86166 0.95035 0.0
C6 C 0.18927 0.83681 0.96145 0.0
C7 C 0.06955 0.83908 0.04279 0.0
C8 C 0.14803 0.92526 0.07904 0.0
C9 C 0.18365 0.81327 0.05416 0.0
O10 O 0.12707 0.94605 0.9915 0.0
O11 O 0.09666 0.83564 0.95861 0.0
O12 O 0.19859 0.86403 0.97786 0.0
O13 O 0.07114 0.87144 0.03975 0.0
O14 O 0.17271 0.91147 0.06847 0.0
O15 O 0.15719 0.80287 0.03985 0.0
O16 O 0.1213 0.92602 0.06237 0.0
O17 O 0.08842 0.81867 0.02982 0.0
O18 O 0.19665 0.84202 0.0489 0.0
O19 O 0.07986 0.88893 0.96835 0.0
O20 O 0.17866 0.93431 0.99852 0.0
O21 O 0.16541 0.81864 0.96822 0.0
Sc22 Sc 0.72487 0.61034 0.47367 0.0
Sc23 Sc 0.67263 0.67846 0.45498 0.0
Sc24 Sc 0.64236 0.59809 0.47617 0.0
O25 O 0.67998 0.62907 0.46818 0.0
C26 C 0.68656 0.54463 0.44155 0.0
C27 C 0.72654 0.65294 0.40942 0.0
C28 C 0.61414 0.63747 0.41504 0.0
C29 C 0.73627 0.68725 0.50253 0.0
C30 C 0.69287 0.58125 0.53455 0.0
C31 C 0.6221 0.67001 0.50773 0.0
O32 O 0.71232 0.56186 0.44848 0.0
O33 O 0.7035 0.67227 0.41565 0.0
O34 O 0.61602 0.6112 0.43219 0.0
O35 O 0.74326 0.65585 0.49959 0.0
O36 O 0.66463 0.58267 0.52147 0.0
O37 O 0.64045 0.6891 0.49265 0.0
O38 O 0.71739 0.58957 0.52013 0.0
O39 O 0.71181 0.69965 0.48766 0.0
O40 O 0.62037 0.63759 0.50331 0.0
O41 O 0.73684 0.62993 0.42818 0.0
O42 O 0.65973 0.55467 0.44986 0.0
O43 O 0.63235 0.66395 0.42075 0.0
Sc44 Sc 0.84037 0.20871 0.03594 0.0
Sc45 Sc 0.78531 0.14404 0.00203 0.0
Sc46 Sc 0.86781 0.1324 0.00117 0.0
O47 O 0.83108 0.16175 0.0131 0.0
C48 C 0.89285 0.20631 0.98414 0.0
C49 C 0.78265 0.2228 0.98364 0.0
C50 C 0.81878 0.11647 0.93986 0.0
C51 C 0.7801 0.18209 0.07122 0.0
C52 C 0.89395 0.16416 0.07088 0.0
C53 C 0.81992 0.07753 0.02802 0.0
O54 O 0.87735 0.22264 0.00478 0.0
O55 O 0.77218 0.19181 0.98082 0.0
O56 O 0.84659 0.11871 0.95389 0.0
O57 O 0.80508 0.20082 0.07012 0.0
O58 O 0.89415 0.14271 0.04698 0.0
O59 O 0.79489 0.09481 0.02243 0.0
O60 O 0.87511 0.18924 0.07128 0.0
O61 O 0.77008 0.16099 0.04835 0.0
O62 O 0.84748 0.0879 0.02136 0.0
O63 O 0.80657 0.23253 0.00276 0.0
O64 O 0.89108 0.17393 0.97965 0.0
O65 O 0.79392 0.12397 0.95404 0.0
Sc66 Sc 0.36428 0.39117 0.53305 0.0
Sc67 Sc 0.28716 0.36441 0.55204 0.0
Sc68 Sc 0.35356 0.31119 0.56637 0.0
O69 O 0.33489 0.35565 0.55055 0.0
C70 C 0.39472 0.32282 0.50593 0.0
C71 C 0.30263 0.39469 0.48396 0.0
C72 C 0.28914 0.28555 0.52642 0.0
C73 C 0.31795 0.43846 0.57295 0.0
C74 C 0.40577 0.36659 0.59532 0.0
C75 C 0.30139 0.32512 0.61741 0.0
O76 O 0.38891 0.35454 0.50432 0.0
O77 O 0.28292 0.38402 0.50346 0.0
O78 O 0.31782 0.28145 0.53737 0.0
O79 O 0.3435 0.4327 0.55928 0.0
O80 O 0.391 0.33789 0.59681 0.0
O81 O 0.28526 0.34649 0.60098 0.0
O82 O 0.39908 0.38767 0.57333 0.0
O83 O 0.29535 0.41612 0.5731 0.0
O84 O 0.32569 0.3107 0.60727 0.0
O85 O 0.33245 0.39773 0.49127 0.0
O86 O 0.38408 0.30442 0.52743 0.0
O87 O 0.27435 0.31345 0.53074 0.0
O88 O 0.16608 0.99601 0.33373 0.0
Cd89 Cd 0.1572 0.00938 0.39058 0.0
O90 O 0.12845 0.03245 0.32244 0.0
Cd91 Cd 0.09768 0.06184 0.28973 0.0
O92 O 0.06853 0.08867 0.25371 0.0
C93 C 0.04126 0.09979 0.25954 0.0
O94 O 0.03057 0.09534 0.28812 0.0
C95 C 0.14811 0.01064 0.31278 0.0
C96 C 0.18521 0.07118 0.41611 0.0
O97 O 0.19988 0.04279 0.4184 0.0
O98 O 0.15737 0.0705 0.40116 0.0
O99 O 0.26546 0.69413 0.66221 0.0
Cd100 Cd 0.26112 0.75606 0.67312 0.0
O101 O 0.31603 0.70488 0.65769 0.0
Cd102 Cd 0.36532 0.69763 0.6458 0.0
O103 O 0.41481 0.70113 0.63325 0.0
C104 C 0.42185 0.71881 0.60955 0.0
O105 O 0.39903 0.7344 0.59292 0.0
C106 C 0.2928 0.68323 0.65643 0.0
C107 C 0.25051 0.7739 0.73724 0.0
O108 O 0.22736 0.76575 0.71622 0.0
O109 O 0.27894 0.77338 0.72802 0.0
O110 O 0.885 0.67564 0.11965 0.0
Cd111 Cd 0.8369 0.64191 0.12805 0.0
O112 O 0.85905 0.72154 0.13259 0.0
Cd113 Cd 0.84938 0.77619 0.13537 0.0
O114 O 0.84114 0.83042 0.12942 0.0
C115 C 0.81754 0.83936 0.11099 0.0
O116 O 0.79814 0.81551 0.09675 0.0
C117 C 0.8843 0.70814 0.12323 0.0
C118 C 0.81713 0.64926 0.19062 0.0
O119 O 0.83545 0.62493 0.1827 0.0
O120 O 0.80846 0.67045 0.169 0.0
O121 O 0.68058 0.47128 0.75913 0.0
Cd122 Cd 0.64831 0.43954 0.79516 0.0
O123 O 0.66008 0.52073 0.77295 0.0
Cd124 Cd 0.62397 0.49543 0.79949 0.0
O125 O 0.58312 0.46342 0.77994 0.0
C126 C 0.5866 0.45286 0.751 0.0
O127 O 0.61306 0.46134 0.73797 0.0
C128 C 0.67925 0.50366 0.75653 0.0
C129 C 0.6812 0.39438 0.83461 0.0
O130 O 0.66969 0.3847 0.80607 0.0
O131 O 0.6777 0.4257 0.84414 0.0
O132 O 0.64698 0.29058 0.33999 0.0
Cd133 Cd 0.63013 0.23101 0.32641 0.0
O134 O 0.67403 0.278 0.38518 0.0
Cd135 Cd 0.64592 0.23043 0.38559 0.0
O136 O 0.59699 0.22276 0.39862 0.0
C137 C 0.57609 0.24094 0.38418 0.0
O138 O 0.58461 0.26021 0.36087 0.0
C139 C 0.66624 0.29971 0.36409 0.0
C140 C 0.65944 0.21023 0.27128 0.0
O141 O 0.63142 0.22266 0.26914 0.0
O142 O 0.67312 0.20668 0.2996 0.0
O143 O 0.26387 0.19001 0.92218 0.0
Cd144 Cd 0.28172 0.24912 0.9141 0.0
O145 O 0.21651 0.20658 0.90563 0.0
Cd146 Cd 0.16484 0.20657 0.8978 0.0
O147 O 0.11371 0.21278 0.89759 0.0
C148 C 0.10231 0.24174 0.90503 0.0
O149 O 0.12185 0.26822 0.91204 0.0
C150 C 0.23427 0.18305 0.91656 0.0
C151 C 0.28113 0.26633 0.84934 0.0
O152 O 0.30571 0.25342 0.86399 0.0
O153 O 0.25641 0.27077 0.86524 0.0
O154 O 0.38594 0.64315 0.2837 0.0
Cd155 Cd 0.3299 0.62835 0.26636 0.0
O156 O 0.40046 0.59187 0.26708 0.0
Cd157 Cd 0.35197 0.56998 0.25937 0.0
O158 O 0.31885 0.53359 0.27898 0.0
C159 C 0.30328 0.54309 0.30282 0.0
O160 O 0.30501 0.57558 0.31278 0.0
C161 C 0.40785 0.62183 0.2791 0.0
C162 C 0.30002 0.67003 0.22043 0.0
O163 O 0.29667 0.67522 0.25074 0.0
O164 O 0.31803 0.64568 0.21188 0.0
O165 O 0.99043 0.85386 0.69986 0.0
Cd166 Cd 0.9712 0.86505 0.64402 0.0
O167 O 0.94836 0.87925 0.71594 0.0
Cd168 Cd 0.91542 0.90506 0.74665 0.0
O169 O 0.88303 0.9364 0.7732 0.0
C170 C 0.87343 0.96438 0.76164 0.0
O171 O 0.88289 0.9734 0.73361 0.0
C172 C 0.97469 0.86479 0.72304 0.0
C173 C 0.91698 0.82735 0.61911 0.0
O174 O 0.94506 0.8156 0.61718 0.0
O175 O 0.91438 0.85678 0.63355 0.0
H176 H 0.18986 0.91011 0.13 0.0
H177 H 0.11075 0.97478 0.10393 0.0
H178 H 0.19069 0.93228 0.18591 0.0
H179 H 0.11252 0.99833 0.15933 0.0
H180 H 0.09823 0.00263 0.26719 0.0
H181 H 0.09947 0.98385 0.21065 0.0
H182 H 0.2023 0.97831 0.22315 0.0
H183 H 0.2006 0.99597 0.28027 0.0
C184 C 0.17298 0.9295 0.13612 0.0
C185 C 0.1501 0.94049 0.11256 0.0
C186 C 0.17354 0.94242 0.16821 0.0
C187 C 0.15155 0.96708 0.17744 0.0
C188 C 0.12934 0.97879 0.1535 0.0
C189 C 0.12844 0.96545 0.12158 0.0
C190 C 0.12113 0.9981 0.25765 0.0
C191 C 0.14937 0.00138 0.27794 0.0
C192 C 0.12191 0.98724 0.22515 0.0
C193 C 0.15102 0.97967 0.21198 0.0
C194 C 0.17936 0.98337 0.23238 0.0
C195 C 0.17848 0.99375 0.26507 0.0
H196 H 0.59675 0.63974 0.55792 0.0
H197 H 0.59645 0.73437 0.50722 0.0
H198 H 0.55183 0.6584 0.58673 0.0
H199 H 0.55153 0.75383 0.53711 0.0
H200 H 0.44253 0.74163 0.55304 0.0
H201 H 0.49572 0.73716 0.53394 0.0
H202 H 0.52956 0.69566 0.62502 0.0
H203 H 0.47601 0.6989 0.64358 0.0
C204 C 0.58752 0.665 0.55351 0.0
C205 C 0.59981 0.68536 0.52991 0.0
C206 C 0.56184 0.67589 0.57032 0.0
C207 C 0.54775 0.70753 0.56407 0.0
C208 C 0.56151 0.72907 0.54212 0.0
C209 C 0.58743 0.71811 0.52524 0.0
C210 C 0.46141 0.73192 0.56913 0.0
C211 C 0.45493 0.71999 0.59957 0.0
C212 C 0.49204 0.72967 0.5583 0.0
C213 C 0.51693 0.71573 0.5778 0.0
C214 C 0.51081 0.70586 0.60909 0.0
C215 C 0.48012 0.70775 0.61976 0.0
H216 H 0.76558 0.04225 0.04205 0.0
H217 H 0.86849 0.03637 0.04805 0.0
H218 H 0.76214 0.98607 0.06596 0.0
H219 H 0.8649 0.98052 0.07123 0.0
H220 H 0.85279 0.89467 0.1372 0.0
H221 H 0.85061 0.95376 0.12046 0.0
H222 H 0.7724 0.92558 0.0501 0.0
H223 H 0.77411 0.86649 0.06727 0.0
C224 C 0.78742 0.02909 0.04848 0.0
C225 C 0.81729 0.04383 0.043 0.0
C226 C 0.78542 0.9969 0.06206 0.0
C227 C 0.81325 0.97898 0.07061 0.0
C228 C 0.84304 0.99391 0.06544 0.0
C229 C 0.84504 0.02588 0.05183 0.0
C230 C 0.83487 0.90112 0.11842 0.0
C231 C 0.81388 0.8758 0.10327 0.0
C232 C 0.83371 0.93495 0.10875 0.0
C233 C 0.81161 0.9442 0.08368 0.0
C234 C 0.78958 0.91927 0.06961 0.0
C235 C 0.79069 0.88538 0.07933 0.0
H236 H 0.41994 0.33863 0.65445 0.0
H237 H 0.45142 0.41647 0.59166 0.0
H238 H 0.4641 0.35553 0.6945 0.0
H239 H 0.49502 0.43295 0.63133 0.0
H240 H 0.58869 0.42769 0.68915 0.0
H241 H 0.54498 0.4032 0.65328 0.0
H242 H 0.48205 0.411 0.73083 0.0
H243 H 0.52611 0.43578 0.76724 0.0
C244 C 0.43626 0.35918 0.64915 0.0
C245 C 0.43222 0.37613 0.61983 0.0
C246 C 0.46134 0.36892 0.67211 0.0
C247 C 0.48301 0.39531 0.66581 0.0
C248 C 0.47888 0.4122 0.63659 0.0
C249 C 0.45376 0.40284 0.61395 0.0
C250 C 0.56568 0.42393 0.69881 0.0
C251 C 0.56074 0.43417 0.73094 0.0
C252 C 0.54065 0.40992 0.67819 0.0
C253 C 0.51013 0.40566 0.68922 0.0
C254 C 0.50544 0.41401 0.72182 0.0
C255 C 0.53058 0.42829 0.74255 0.0
H256 H 0.6371 0.50808 0.40941 0.0
H257 H 0.73855 0.50436 0.43481 0.0
H258 H 0.63755 0.45 0.38572 0.0
H259 H 0.73892 0.44592 0.41083 0.0
H260 H 0.70638 0.32854 0.41343 0.0
H261 H 0.71557 0.3896 0.42711 0.0
H262 H 0.65834 0.41458 0.34077 0.0
H263 H 0.64891 0.35361 0.32709 0.0
C264 C 0.65959 0.49501 0.40962 0.0
C265 C 0.68774 0.51074 0.42426 0.0
C266 C 0.65989 0.46181 0.39577 0.0
C267 C 0.68828 0.44344 0.39644 0.0
C268 C 0.71667 0.45947 0.41015 0.0
C269 C 0.71646 0.49293 0.42373 0.0
C270 C 0.69626 0.34702 0.39702 0.0
C271 C 0.67651 0.3362 0.36944 0.0
C272 C 0.70168 0.38201 0.40479 0.0
C273 C 0.68735 0.40681 0.38519 0.0
C274 C 0.6693 0.39598 0.35654 0.0
C275 C 0.66402 0.36104 0.34868 0.0
H276 H 0.90213 0.19718 0.92055 0.0
H277 H 0.93657 0.25552 0.00739 0.0
H278 H 0.9492 0.21508 0.89399 0.0
H279 H 0.98461 0.27214 0.98156 0.0
H280 H 0.07046 0.29713 0.92834 0.0
H281 H 0.01458 0.29848 0.94097 0.0
H282 H 0.00114 0.19332 0.90413 0.0
H283 H 0.05616 0.19231 0.89089 0.0
C284 C 0.91951 0.21457 0.93362 0.0
C285 C 0.91613 0.22468 0.96605 0.0
C286 C 0.94655 0.22462 0.91856 0.0
C287 C 0.9711 0.24418 0.93596 0.0
C288 C 0.96616 0.2571 0.96741 0.0
C289 C 0.93869 0.24757 0.98229 0.0
C290 C 0.05532 0.27457 0.9224 0.0
C291 C 0.06781 0.24446 0.90897 0.0
C292 C 0.02337 0.27533 0.92974 0.0
C293 C 0.00335 0.24604 0.92364 0.0
C294 C 0.01559 0.2166 0.90868 0.0
C295 C 0.04736 0.21586 0.90138 0.0
H296 H 0.33201 0.38803 0.42828 0.0
H297 H 0.24801 0.42933 0.46777 0.0
H298 H 0.32108 0.4191 0.37934 0.0
H299 H 0.23672 0.4607 0.4182 0.0
H300 H 0.29921 0.47328 0.29165 0.0
H301 H 0.28781 0.43038 0.33069 0.0
H302 H 0.2654 0.51105 0.39938 0.0
H303 H 0.27608 0.55383 0.36022 0.0
C304 C 0.31061 0.40303 0.42602 0.0
C305 C 0.29105 0.40659 0.45191 0.0
C306 C 0.30417 0.4207 0.39781 0.0
C307 C 0.27814 0.44266 0.39491 0.0
C308 C 0.25713 0.44421 0.41986 0.0
C309 C 0.26341 0.42607 0.44809 0.0
C310 C 0.29103 0.48183 0.31475 0.0
C311 C 0.28931 0.51704 0.3231 0.0
C312 C 0.28455 0.45722 0.33716 0.0
C313 C 0.2763 0.4673 0.36838 0.0
C314 C 0.27158 0.50233 0.37554 0.0
C315 C 0.27797 0.52693 0.35311 0.0
H316 H 0.03512 0.90564 0.92685 0.0
H317 H 0.08611 0.81493 0.89999 0.0
H318 H 0.00801 0.90477 0.87252 0.0
H319 H 0.05899 0.8142 0.84589 0.0
H320 H 0.03648 0.85368 0.74324 0.0
H321 H 0.06041 0.85158 0.79841 0.0
H322 H 0.96845 0.86831 0.83539 0.0
H323 H 0.94419 0.86924 0.78007 0.0
C324 C 0.04046 0.88543 0.90948 0.0
C325 C 0.06292 0.86042 0.91786 0.0
C326 C 0.02477 0.88484 0.87841 0.0
C327 C 0.03145 0.85949 0.8549 0.0
C328 C 0.05356 0.83426 0.86338 0.0
C329 C 0.06897 0.83461 0.89449 0.0
C330 C 0.02121 0.85673 0.76305 0.0
C331 C 0.98841 0.86252 0.75703 0.0
C332 C 0.03498 0.85545 0.79472 0.0
C333 C 0.01637 0.86003 0.82128 0.0
C334 C 0.98351 0.86534 0.8154 0.0
C335 C 0.96963 0.86624 0.78361 0.0
H336 H 0.77366 0.07044 0.91255 0.0
H337 H 0.85833 0.12811 0.89272 0.0
H338 H 0.77768 0.03527 0.86257 0.0
H339 H 0.8622 0.0935 0.84298 0.0
H340 H 0.86089 0.03169 0.75104 0.0
H341 H 0.83768 0.073 0.78795 0.0
H342 H 0.82108 0.99213 0.85331 0.0
H343 H 0.84422 0.95087 0.81658 0.0
C344 C 0.79237 0.07638 0.89689 0.0
C345 C 0.81586 0.10168 0.90648 0.0
C346 C 0.7948 0.05617 0.86848 0.0
C347 C 0.82038 0.0615 0.84907 0.0
C348 C 0.84209 0.08894 0.85728 0.0
C349 C 0.83999 0.10865 0.88584 0.0
C350 C 0.85168 0.02258 0.77295 0.0
C351 C 0.85489 0.98814 0.7812 0.0
C352 C 0.83838 0.04624 0.79403 0.0
C353 C 0.82771 0.03579 0.82352 0.0
C354 C 0.82879 0.00088 0.8306 0.0
C355 C 0.84237 0.9773 0.80971 0.0
H356 H 0.42794 0.35458 0.46071 0.0
H357 H 0.41026 0.25512 0.49933 0.0
H358 H 0.46755 0.32973 0.4275 0.0
H359 H 0.44944 0.23013 0.46545 0.0
H360 H 0.55506 0.21685 0.44017 0.0
H361 H 0.50699 0.23318 0.4657 0.0
H362 H 0.47721 0.29107 0.38247 0.0
H363 H 0.5257 0.27544 0.35728 0.0
C364 C 0.43209 0.3273 0.46175 0.0
C365 C 0.41616 0.30698 0.48302 0.0
C366 C 0.45468 0.31297 0.44249 0.0
C367 C 0.46179 0.27793 0.44393 0.0
C368 C 0.44487 0.2573 0.46415 0.0
C369 C 0.42232 0.27165 0.48348 0.0
C370 C 0.53798 0.23251 0.42704 0.0
C371 C 0.54442 0.24527 0.39693 0.0
C372 C 0.51031 0.24179 0.44163 0.0
C373 C 0.48846 0.26385 0.4263 0.0
C374 C 0.49391 0.27466 0.39521 0.0
C375 C 0.52162 0.26552 0.3807 0.0
H376 H 0.11873 0.00818 0.97228 0.0
H377 H 0.21484 0.97159 0.96921 0.0
H378 H 0.13631 0.06354 0.9529 0.0
H379 H 0.23203 0.02627 0.94971 0.0
H380 H 0.26044 0.13959 0.96 0.0
H381 H 0.24 0.08393 0.9745 0.0
H382 H 0.15825 0.09308 0.90616 0.0
H383 H 0.1791 0.14883 0.89118 0.0
C384 C 0.14343 0.0117 0.96708 0.0
C385 C 0.16541 0.98548 0.97277 0.0
C386 C 0.15348 0.0434 0.95591 0.0
C387 C 0.18569 0.04951 0.95027 0.0
C388 C 0.20722 0.02274 0.95455 0.0
C389 C 0.19725 0.99124 0.96563 0.0
C390 C 0.23813 0.12979 0.94795 0.0
C391 C 0.22116 0.14908 0.92482 0.0
C392 C 0.22643 0.09777 0.95621 0.0
C393 C 0.19747 0.08399 0.94147 0.0
C394 C 0.18039 0.10321 0.91831 0.0
C395 C 0.19223 0.13533 0.90992 0.0
H396 H 0.57947 0.58245 0.38756 0.0
H397 H 0.58946 0.69272 0.38319 0.0
H398 H 0.53276 0.5826 0.34955 0.0
H399 H 0.54252 0.69276 0.34443 0.0
H400 H 0.46063 0.58525 0.26695 0.0
H401 H 0.51387 0.59207 0.29411 0.0
H402 H 0.48451 0.68252 0.34671 0.0
H403 H 0.43124 0.67612 0.31897 0.0
C404 C 0.57198 0.60674 0.37813 0.0
C405 C 0.58818 0.63761 0.38866 0.0
C406 C 0.54525 0.60679 0.35605 0.0
C407 C 0.53382 0.6377 0.34388 0.0
C408 C 0.55057 0.66854 0.35354 0.0
C409 C 0.57759 0.66847 0.37557 0.0
C410 C 0.46563 0.607 0.28384 0.0
C411 C 0.44148 0.62987 0.2911 0.0
C412 C 0.49616 0.6108 0.29955 0.0
C413 C 0.50333 0.63746 0.32304 0.0
C414 C 0.47986 0.66176 0.32867 0.0
C415 C 0.44925 0.65803 0.31282 0.0
H416 H 0.26737 0.46343 0.60474 0.0
H417 H 0.36061 0.49266 0.57595 0.0
H418 H 0.26147 0.52148 0.62776 0.0
H419 H 0.35433 0.55044 0.59803 0.0
H420 H 0.34625 0.64429 0.66464 0.0
H421 H 0.35226 0.5844 0.64726 0.0
H422 H 0.25338 0.57894 0.61014 0.0
H423 H 0.24744 0.63874 0.62776 0.0
C424 C 0.28661 0.48212 0.60334 0.0
C425 C 0.31442 0.47322 0.58837 0.0
C426 C 0.28316 0.51549 0.61637 0.0
C427 C 0.30741 0.54075 0.61474 0.0
C428 C 0.33535 0.53163 0.60022 0.0
C429 C 0.33883 0.49838 0.5873 0.0
C430 C 0.32597 0.63049 0.65233 0.0
C431 C 0.2966 0.64655 0.64688 0.0
C432 C 0.32932 0.59603 0.64252 0.0
C433 C 0.30336 0.5768 0.62703 0.0
C434 C 0.27379 0.59274 0.6223 0.0
C435 C 0.27044 0.62712 0.63223 0.0
H436 H 0.06806 0.77516 0.06651 0.0
H437 H 0.01294 0.86722 0.05933 0.0
H438 H 0.02381 0.74565 0.08874 0.0
H439 H 0.96811 0.83715 0.08161 0.0
H440 H 0.90473 0.77265 0.14742 0.0
H441 H 0.9496 0.80718 0.13088 0.0
H442 H 0.97161 0.72514 0.06349 0.0
H443 H 0.9266 0.69118 0.07935 0.0
C444 C 0.04653 0.78925 0.06987 0.0
C445 C 0.0439 0.82346 0.06061 0.0
C446 C 0.0211 0.77221 0.08254 0.0
C447 C 0.99224 0.78883 0.08631 0.0
C448 C 0.99008 0.82367 0.07892 0.0
C449 C 0.01572 0.84087 0.06616 0.0
C450 C 0.91863 0.76238 0.12849 0.0
C451 C 0.91163 0.72944 0.11419 0.0
C452 C 0.94452 0.78205 0.11926 0.0
C453 C 0.96419 0.76887 0.09595 0.0
C454 C 0.9572 0.73587 0.08186 0.0
C455 C 0.93134 0.71641 0.09091 0.0
H456 H 0.64838 0.5841 0.5788 0.0
H457 H 0.74645 0.55752 0.568 0.0
H458 H 0.65428 0.56996 0.6354 0.0
H459 H 0.75216 0.54288 0.62524 0.0
H460 H 0.71565 0.4735 0.7115 0.0
H461 H 0.72558 0.49581 0.65888 0.0
H462 H 0.68618 0.59275 0.68744 0.0
H463 H 0.67619 0.57072 0.74 0.0
C464 C 0.67121 0.57511 0.58847 0.0
C465 C 0.69689 0.57171 0.5688 0.0
C466 C 0.67469 0.56743 0.62104 0.0
C467 C 0.70381 0.55577 0.63477 0.0
C468 C 0.72953 0.55202 0.61522 0.0
C469 C 0.72622 0.56033 0.58254 0.0
C470 C 0.7101 0.49997 0.70703 0.0
C471 C 0.6944 0.52006 0.7297 0.0
C472 C 0.71585 0.51272 0.67687 0.0
C473 C 0.70595 0.54568 0.66893 0.0
C474 C 0.6935 0.567 0.69283 0.0
C475 C 0.68791 0.55438 0.72299 0.0
H476 H 0.94277 0.11942 0.0749 0.0
H477 H 0.8966 0.19702 0.13126 0.0
H478 H 0.97891 0.10864 0.1214 0.0
H479 H 0.93355 0.18634 0.17813 0.0
H480 H 0.97908 0.11913 0.26094 0.0
H481 H 0.94439 0.13911 0.21599 0.0
H482 H 0.02323 0.13614 0.15482 0.0
H483 H 0.05768 0.11562 0.19936 0.0
C484 C 0.94041 0.1344 0.09717 0.0
C485 C 0.91665 0.15907 0.0993 0.0
C486 C 0.96139 0.12838 0.12381 0.0
C487 C 0.95924 0.14679 0.15338 0.0
C488 C 0.93567 0.17166 0.15565 0.0
C489 C 0.91464 0.17786 0.12879 0.0
C490 C 0.98908 0.12309 0.23799 0.0
C491 C 0.02101 0.1153 0.23358 0.0
C492 C 0.96924 0.13474 0.21232 0.0
C493 C 0.981 0.13882 0.18179 0.0
C494 C 0.01333 0.13262 0.1779 0.0
C495 C 0.03309 0.12095 0.20347 0.0
H496 H 0.24733 0.81329 0.07219 0.0
H497 H 0.15782 0.76356 0.09002 0.0
H498 H 0.27517 0.77797 0.11203 0.0
H499 H 0.18584 0.7286 0.13046 0.0
H500 H 0.24776 0.70926 0.22782 0.0
H501 H 0.21885 0.74271 0.18691 0.0
H502 H 0.28502 0.71184 0.11702 0.0
H503 H 0.31361 0.67782 0.15765 0.0
C504 C 0.23359 0.79486 0.08466 0.0
C505 C 0.20035 0.79122 0.07795 0.0
C506 C 0.24958 0.77456 0.10733 0.0
C507 C 0.23263 0.75063 0.12429 0.0
C508 C 0.19941 0.74701 0.11778 0.0
C509 C 0.18344 0.76685 0.09456 0.0
C510 C 0.25615 0.70964 0.20373 0.0
C511 C 0.283 0.69098 0.19596 0.0
C512 C 0.23948 0.72857 0.18031 0.0
C513 C 0.24971 0.72977 0.14886 0.0
C514 C 0.27672 0.71142 0.14115 0.0
C515 C 0.29302 0.69193 0.16437 0.0
H516 H 0.74365 0.75783 0.50327 0.0
H517 H 0.77987 0.6677 0.54947 0.0
H518 H 0.78583 0.79301 0.53358 0.0
H519 H 0.82125 0.70262 0.57971 0.0
H520 H 0.91525 0.76343 0.58974 0.0
H521 H 0.86929 0.73158 0.56382 0.0
H522 H 0.80818 0.81476 0.58872 0.0
H523 H 0.85455 0.84709 0.61452 0.0
C524 C 0.76021 0.74564 0.52022 0.0
C525 C 0.7587 0.70988 0.52352 0.0
C526 C 0.78431 0.76577 0.5376 0.0
C527 C 0.80722 0.75046 0.55859 0.0
C528 C 0.8045 0.71506 0.56313 0.0
C529 C 0.78065 0.69506 0.54582 0.0
C530 C 0.89205 0.77496 0.58986 0.0
C531 C 0.88858 0.80776 0.60432 0.0
C532 C 0.86563 0.7566 0.57511 0.0
C533 C 0.83502 0.77054 0.5744 0.0
C534 C 0.83148 0.80343 0.58873 0.0
C535 C 0.858 0.82181 0.60367 0.0
H536 H 0.79786 0.21648 0.12891 0.0
H537 H 0.72154 0.15331 0.08013 0.0
H538 H 0.76821 0.22053 0.17721 0.0
H539 H 0.69211 0.15725 0.12865 0.0
H540 H 0.63568 0.2113 0.20814 0.0
H541 H 0.66478 0.20276 0.15974 0.0
H542 H 0.75023 0.18242 0.21963 0.0
H543 H 0.72127 0.19117 0.26808 0.0
C544 C 0.7748 0.20344 0.12845 0.0
C545 C 0.76206 0.18464 0.10057 0.0
C546 C 0.75794 0.20555 0.15623 0.0
C547 C 0.72792 0.18911 0.15669 0.0
C548 C 0.71512 0.17037 0.12887 0.0
C549 C 0.73206 0.16804 0.10114 0.0
C550 C 0.6606 0.2047 0.21097 0.0
C551 C 0.67622 0.20206 0.24193 0.0
C552 C 0.67721 0.19968 0.18325 0.0
C553 C 0.7098 0.19215 0.18596 0.0
C554 C 0.72521 0.18866 0.21687 0.0
C555 C 0.70856 0.19344 0.24458 0.0
H556 H 0.31406 0.26601 0.64721 0.0
H557 H 0.26865 0.36334 0.66119 0.0
H558 H 0.30622 0.25241 0.70261 0.0
H559 H 0.26118 0.34973 0.71763 0.0
H560 H 0.23323 0.2946 0.811 0.0
H561 H 0.23439 0.30925 0.75411 0.0
H562 H 0.33146 0.27515 0.75422 0.0
H563 H 0.33021 0.26013 0.81039 0.0
C564 C 0.30228 0.28454 0.66215 0.0
C565 C 0.29245 0.31605 0.64995 0.0
C566 C 0.2979 0.27675 0.694 0.0
C567 C 0.28376 0.30031 0.71473 0.0
C568 C 0.27224 0.3311 0.70219 0.0
C569 C 0.27651 0.3389 0.66996 0.0
C570 C 0.25478 0.29023 0.79879 0.0
C571 C 0.28154 0.2759 0.81514 0.0
C572 C 0.25547 0.29881 0.76631 0.0
C573 C 0.28288 0.29302 0.74958 0.0
C574 C 0.30974 0.2793 0.76621 0.0
C575 C 0.30907 0.27081 0.79851 0.0
H576 H 0.70195 0.68225 0.35429 0.0
H577 H 0.78508 0.63114 0.39444 0.0
H578 H 0.72494 0.68309 0.30199 0.0
H579 H 0.8086 0.63317 0.3427 0.0
H580 H 0.78543 0.70248 0.21774 0.0
H581 H 0.7654 0.70642 0.27152 0.0
H582 H 0.80163 0.60575 0.29079 0.0
H583 H 0.82264 0.60251 0.23771 0.0
C584 C 0.72536 0.67171 0.3521 0.0
C585 C 0.74155 0.65635 0.37845 0.0
C586 C 0.73864 0.67231 0.32213 0.0
C587 C 0.76856 0.65792 0.31796 0.0
C588 C 0.7852 0.64375 0.34474 0.0
C589 C 0.77178 0.64277 0.37451 0.0
C590 C 0.78926 0.68132 0.23359 0.0
C591 C 0.80565 0.6522 0.2235 0.0
C592 C 0.77761 0.68347 0.26436 0.0
C593 C 0.78186 0.65642 0.2856 0.0
C594 C 0.79841 0.62739 0.27542 0.0
C595 C 0.81031 0.6254 0.24484 0.0
H596 H 0.73004 0.21353 0.9407 0.0
H597 H 0.80014 0.29043 0.9791 0.0
H598 H 0.70584 0.25536 0.90504 0.0
H599 H 0.7763 0.3319 0.94292 0.0
H600 H 0.70459 0.40611 0.89748 0.0
H601 H 0.72842 0.36487 0.93409 0.0
H602 H 0.71801 0.28598 0.85734 0.0
H603 H 0.69351 0.32702 0.82092 0.0
C604 C 0.74031 0.23932 0.94158 0.0
C605 C 0.76707 0.24855 0.96283 0.0
C606 C 0.72656 0.26323 0.92095 0.0
C607 C 0.73924 0.29691 0.92103 0.0
C608 C 0.76574 0.30627 0.94252 0.0
C609 C 0.77948 0.2824 0.96319 0.0
C610 C 0.70749 0.38 0.88838 0.0
C611 C 0.69712 0.36981 0.85631 0.0
C612 C 0.72126 0.3564 0.90933 0.0
C613 C 0.725 0.32212 0.89866 0.0
C614 C 0.71498 0.31206 0.86646 0.0
C615 C 0.70116 0.33565 0.84552 0.0
H616 H 0.22462 0.27258 0.51403 0.0
H617 H 0.31684 0.23193 0.49636 0.0
H618 H 0.19872 0.22143 0.48647 0.0
H619 H 0.29121 0.18184 0.46813 0.0
H620 H 0.23976 0.07891 0.45577 0.0
H621 H 0.26338 0.13155 0.48138 0.0
H622 H 0.18778 0.1898 0.43525 0.0
H623 H 0.16345 0.13664 0.41037 0.0
C624 C 0.23932 0.25297 0.50396 0.0
C625 C 0.27278 0.25612 0.5078 0.0
C626 C 0.22451 0.22371 0.48805 0.0
C627 C 0.24288 0.19723 0.47545 0.0
C628 C 0.27629 0.20119 0.47829 0.0
C629 C 0.29101 0.23008 0.49438 0.0
C630 C 0.22817 0.10292 0.45099 0.0
C631 C 0.19979 0.10357 0.43093 0.0
C632 C 0.24183 0.13321 0.46556 0.0
C633 C 0.22766 0.16506 0.4602 0.0
C634 C 0.19918 0.16573 0.44016 0.0
C635 C 0.18535 0.13529 0.42573 0.0
H636 H 0.23012 0.87487 0.92696 0.0
H637 H 0.18315 0.77514 0.92815 0.0
H638 H 0.24806 0.85959 0.87328 0.0
H639 H 0.20092 0.76027 0.87511 0.0
H640 H 0.1942 0.76865 0.7653 0.0
H641 H 0.18368 0.78378 0.821 0.0
H642 H 0.28214 0.81638 0.84186 0.0
H643 H 0.29287 0.80113 0.78572 0.0
C644 C 0.22414 0.84956 0.91614 0.0
C645 C 0.20478 0.82646 0.93166 0.0
C646 C 0.23439 0.84085 0.88545 0.0
C647 C 0.22533 0.809 0.86985 0.0
C648 C 0.20766 0.78527 0.88626 0.0
C649 C 0.19757 0.79384 0.91675 0.0
C650 C 0.21366 0.77903 0.78167 0.0
C651 C 0.2444 0.78351 0.77112 0.0
C652 C 0.20766 0.78755 0.81363 0.0
C653 C 0.23217 0.80099 0.8358 0.0
C654 C 0.26283 0.80612 0.82522 0.0
C655 C 0.26895 0.79723 0.79319 0.0
loop_
_geom_bond_atom_site_label_1
_geom_bond_atom_site_label_2
_geom_bond_distance
_geom_bond_site_symmetry_2
_ccdc_geom_bond_type
Sc0 O3 2.025 . S
Sc0 O10 2.105 1_554 S
Sc0 O13 2.105 . S
Sc0 O16 2.105 . S
Sc0 O19 2.105 1_554 S
Sc1 O3 2.025 1_556 S
Sc1 O11 2.105 . S
Sc1 O15 2.105 1_556 S
Sc1 O17 2.105 1_556 S
Sc1 O21 2.105 . S
Sc2 O3 2.025 . S
Sc2 O12 2.105 1_554 S
Sc2 O14 2.105 . S
Sc2 O18 2.105 . S
Sc2 O20 2.105 1_554 S
O3 Sc0 2.025 . S
O3 Sc1 2.025 1_554 S
O3 Sc2 2.025 . S
C4 O10 1.268 . S
C4 O20 1.268 . S
C5 O11 1.268 . S
C5 O19 1.268 . S
C6 O12 1.268 . S
C6 O21 1.268 . S
C7 O13 1.268 . S
C7 O17 1.268 . S
C8 O14 1.268 . S
C8 O16 1.268 . S
C9 O15 1.268 . S
C9 O18 1.268 . S
O10 Sc0 2.105 1_556 S
O10 C4 1.268 . S
O11 Sc1 2.105 . S
O11 C5 1.268 . S
O12 Sc2 2.105 1_556 S
O12 C6 1.268 . S
O13 Sc0 2.105 . S
O13 C7 1.268 . S
O14 Sc2 2.105 . S
O14 C8 1.268 . S
O15 Sc1 2.105 1_554 S
O15 C9 1.268 . S
O16 Sc0 2.105 . S
O16 C8 1.268 . S
O17 Sc1 2.105 1_554 S
O17 C7 1.268 . S
O18 Sc2 2.105 . S
O18 C9 1.268 . S
O19 Sc0 2.105 1_556 S
O19 C5 1.268 . S
O20 Sc2 2.105 1_556 S
O20 C4 1.268 . S
O21 Sc1 2.105 . S
O21 C6 1.268 . S
Sc22 O25 2.025 . S
Sc22 O32 2.105 . S
Sc22 O35 2.105 . S
Sc22 O38 2.105 . S
Sc22 O41 2.105 . S
Sc23 O25 2.025 . S
Sc23 O33 2.105 . S
Sc23 O37 2.105 . S
Sc23 O39 2.105 . S
Sc23 O43 2.105 . S
Sc24 O25 2.025 . S
Sc24 O34 2.105 . S
Sc24 O36 2.105 . S
Sc24 O40 2.105 . S
Sc24 O42 2.105 . S
O25 Sc22 2.025 . S
O25 Sc23 2.025 . S
O25 Sc24 2.025 . S
C26 O32 1.268 . S
C26 O42 1.268 . S
C27 O33 1.268 . S
C27 O41 1.268 . S
C28 O34 1.268 . S
C28 O43 1.268 . S
C29 O35 1.268 . S
C29 O39 1.268 . S
C30 O36 1.268 . S
C30 O38 1.268 . S
C31 O37 1.268 . S
C31 O40 1.268 . S
O32 Sc22 2.105 . S
O32 C26 1.268 . S
O33 Sc23 2.105 . S
O33 C27 1.268 . S
O34 Sc24 2.105 . S
O34 C28 1.268 . S
O35 Sc22 2.105 . S
O35 C29 1.268 . S
O36 Sc24 2.105 . S
O36 C30 1.268 . S
O37 Sc23 2.105 . S
O37 C31 1.268 . S
O38 Sc22 2.105 . S
O38 C30 1.268 . S
O39 Sc23 2.105 . S
O39 C29 1.268 . S
O40 Sc24 2.105 . S
O40 C31 1.268 . S
O41 Sc22 2.105 . S
O41 C27 1.268 . S
O42 Sc24 2.105 . S
O42 C26 1.268 . S
O43 Sc23 2.105 . S
O43 C28 1.268 . S
Sc44 O47 2.025 . S
Sc44 O54 2.105 . S
Sc44 O57 2.105 . S
Sc44 O60 2.105 . S
Sc44 O63 2.105 . S
Sc45 O47 2.025 . S
Sc45 O55 2.105 1_554 S
Sc45 O59 2.105 . S
Sc45 O61 2.105 . S
Sc45 O65 2.105 1_554 S
Sc46 O47 2.025 . S
Sc46 O56 2.105 1_554 S
Sc46 O58 2.105 . S
Sc46 O62 2.105 . S
Sc46 O64 2.105 1_554 S
O47 Sc44 2.025 . S
O47 Sc45 2.025 . S
O47 Sc46 2.025 . S
C48 O54 1.268 1_556 S
C48 O64 1.268 . S
C49 O55 1.268 . S
C49 O63 1.268 1_556 S
C50 O56 1.268 . S
C50 O65 1.268 . S
C51 O57 1.268 . S
C51 O61 1.268 . S
C52 O58 1.268 . S
C52 O60 1.268 . S
C53 O59 1.268 . S
C53 O62 1.268 . S
O54 Sc44 2.105 . S
O54 C48 1.268 1_554 S
O55 Sc45 2.105 1_556 S
O55 C49 1.268 . S
O56 Sc46 2.105 1_556 S
O56 C50 1.268 . S
O57 Sc44 2.105 . S
O57 C51 1.268 . S
O58 Sc46 2.105 . S
O58 C52 1.268 . S
O59 Sc45 2.105 . S
O59 C53 1.268 . S
O60 Sc44 2.105 . S
O60 C52 1.268 . S
O61 Sc45 2.105 . S
O61 C51 1.268 . S
O62 Sc46 2.105 . S
O62 C53 1.268 . S
O63 Sc44 2.105 . S
O63 C49 1.268 1_554 S
O64 Sc46 2.105 1_556 S
O64 C48 1.268 . S
O65 Sc45 2.105 1_556 S
O65 C50 1.268 . S
Sc66 O69 2.025 . S
Sc66 O76 2.105 . S
Sc66 O79 2.105 . S
Sc66 O82 2.105 . S
Sc66 O85 2.105 . S
Sc67 O69 2.025 . S
Sc67 O77 2.105 . S
Sc67 O81 2.105 . S
Sc67 O83 2.105 . S
Sc67 O87 2.105 . S
Sc68 O69 2.025 . S
Sc68 O78 2.105 . S
Sc68 O80 2.105 . S
Sc68 O84 2.105 . S
Sc68 O86 2.105 . S
O69 Sc66 2.025 . S
O69 Sc67 2.025 . S
O69 Sc68 2.025 . S
C70 O76 1.268 . S
C70 O86 1.268 . S
C71 O77 1.268 . S
C71 O85 1.268 . S
C72 O78 1.268 . S
C72 O87 1.268 . S
C73 O79 1.268 . S
C73 O83 1.268 . S
C74 O80 1.268 . S
C74 O82 1.268 . S
C75 O81 1.268 . S
C75 O84 1.268 . S
O76 Sc66 2.105 . S
O76 C70 1.268 . S
O77 Sc67 2.105 . S
O77 C71 1.268 . S
O78 Sc68 2.105 . S
O78 C72 1.268 . S
O79 Sc66 2.105 . S
O79 C73 1.268 . S
O80 Sc68 2.105 . S
O80 C74 1.268 . S
O81 Sc67 2.105 . S
O81 C75 1.268 . S
O82 Sc66 2.105 . S
O82 C74 1.268 . S
O83 Sc67 2.105 . S
O83 C73 1.268 . S
O84 Sc68 2.105 . S
O84 C75 1.268 . S
O85 Sc66 2.105 . S
O85 C71 1.268 . S
O86 Sc68 2.105 . S
O86 C70 1.268 . S
O87 Sc67 2.105 . S
O87 C72 1.268 . S
O88 Cd89 2.300 . S
O88 C95 1.275 . S
Cd89 O88 2.300 . S
Cd89 O97 2.381 . S
Cd89 O98 2.378 . S
O90 Cd91 2.385 . S
O90 C95 1.255 . S
Cd91 O90 2.385 . S
Cd91 O92 2.317 . S
O92 Cd91 2.317 . S
O92 C93 1.232 . S
C93 O92 1.232 . S
C93 O94 1.218 . S
O94 C93 1.218 . S
C95 O88 1.275 . S
C95 O90 1.255 . S
C96 O97 1.258 . S
C96 O98 1.256 . S
O97 Cd89 2.381 . S
O97 C96 1.258 . S
O98 Cd89 2.378 . S
O98 C96 1.256 . S
O99 Cd100 2.300 . S
O99 C106 1.275 . S
Cd100 O99 2.300 . S
Cd100 O108 2.381 . S
Cd100 O109 2.378 . S
O101 Cd102 2.385 . S
O101 C106 1.255 . S
Cd102 O101 2.385 . S
Cd102 O103 2.317 . S
O103 Cd102 2.317 . S
O103 C104 1.232 . S
C104 O103 1.232 . S
C104 O105 1.218 . S
O105 C104 1.218 . S
C106 O99 1.275 . S
C106 O101 1.255 . S
C107 O108 1.258 . S
C107 O109 1.256 . S
O108 Cd100 2.381 . S
O108 C107 1.258 . S
O109 Cd100 2.378 . S
O109 C107 1.256 . S
O110 Cd111 2.300 . S
O110 C117 1.275 . S
Cd111 O110 2.300 . S
Cd111 O119 2.381 . S
Cd111 O120 2.378 . S
O112 Cd113 2.385 . S
O112 C117 1.255 . S
Cd113 O112 2.385 . S
Cd113 O114 2.317 . S
O114 Cd113 2.317 . S
O114 C115 1.232 . S
C115 O114 1.232 . S
C115 O116 1.218 . S
O116 C115 1.218 . S
C117 O110 1.275 . S
C117 O112 1.255 . S
C118 O119 1.258 . S
C118 O120 1.256 . S
O119 Cd111 2.381 . S
O119 C118 1.258 . S
O120 Cd111 2.378 . S
O120 C118 1.256 . S
O121 Cd122 2.300 . S
O121 C128 1.275 . S
Cd122 O121 2.300 . S
Cd122 O130 2.381 . S
Cd122 O131 2.378 . S
O123 Cd124 2.385 . S
O123 C128 1.255 . S
Cd124 O123 2.385 . S
Cd124 O125 2.317 . S
O125 Cd124 2.317 . S
O125 C126 1.232 . S
C126 O125 1.232 . S
C126 O127 1.218 . S
O127 C126 1.218 . S
C128 O121 1.275 . S
C128 O123 1.255 . S
C129 O130 1.258 . S
C129 O131 1.256 . S
O130 Cd122 2.381 . S
O130 C129 1.258 . S
O131 Cd122 2.378 . S
O131 C129 1.256 . S
O132 Cd133 2.300 . S
O132 C139 1.275 . S
Cd133 O132 2.300 . S
Cd133 O141 2.381 . S
Cd133 O142 2.378 . S
O134 Cd135 2.385 . S
O134 C139 1.255 . S
Cd135 O134 2.385 . S
Cd135 O136 2.317 . S
O136 Cd135 2.317 . S
O136 C137 1.232 . S
C137 O136 1.232 . S
C137 O138 1.218 . S
O138 C137 1.218 . S
C139 O132 1.275 . S
C139 O134 1.255 . S
C140 O141 1.258 . S
C140 O142 1.256 . S
O141 Cd133 2.381 . S
O141 C140 1.258 . S
O142 Cd133 2.378 . S
O142 C140 1.256 . S
O143 Cd144 2.300 . S
O143 C150 1.275 . S
Cd144 O143 2.300 . S
Cd144 O152 2.381 . S
Cd144 O153 2.378 . S
O145 Cd146 2.385 . S
O145 C150 1.255 . S
Cd146 O145 2.385 . S
Cd146 O147 2.317 . S
O147 Cd146 2.317 . S
O147 C148 1.232 . S
C148 O147 1.232 . S
C148 O149 1.218 . S
O149 C148 1.218 . S
C150 O143 1.275 . S
C150 O145 1.255 . S
C151 O152 1.258 . S
C151 O153 1.256 . S
O152 Cd144 2.381 . S
O152 C151 1.258 . S
O153 Cd144 2.378 . S
O153 C151 1.256 . S
O154 Cd155 2.300 . S
O154 C161 1.275 . S
Cd155 O154 2.300 . S
Cd155 O163 2.381 . S
Cd155 O164 2.378 . S
O156 Cd157 2.385 . S
O156 C161 1.255 . S
Cd157 O156 2.385 . S
Cd157 O158 2.317 . S
O158 Cd157 2.317 . S
O158 C159 1.232 . S
C159 O158 1.232 . S
C159 O160 1.218 . S
O160 C159 1.218 . S
C161 O154 1.275 . S
C161 O156 1.255 . S
C162 O163 1.258 . S
C162 O164 1.256 . S
O163 Cd155 2.381 . S
O163 C162 1.258 . S
O164 Cd155 2.378 . S
O164 C162 1.256 . S
O165 Cd166 2.300 . S
O165 C172 1.275 . S
Cd166 O165 2.300 . S
Cd166 O174 2.381 . S
Cd166 O175 2.378 . S
O167 Cd168 2.385 . S
O167 C172 1.255 . S
Cd168 O167 2.385 . S
Cd168 O169 2.317 . S
O169 Cd168 2.317 . S
O169 C170 1.232 . S
C170 O169 1.232 . S
C170 O171 1.218 . S
O171 C170 1.218 . S
C172 O165 1.275 . S
C172 O167 1.255 . S
C173 O174 1.258 . S
C173 O175 1.256 . S
O174 Cd166 2.381 . S
O174 C173 1.258 . S
O175 Cd166 2.378 . S
O175 C173 1.256 . S
H176 C184 0.950 . S
H177 C189 0.950 . S
H178 C186 0.950 . S
H179 C188 0.950 1_545 S
H180 C190 0.950 . S
H181 C192 0.950 . S
H182 C194 0.950 . S
H183 C195 0.950 . S
C184 H176 0.950 . S
C184 C185 1.386 . S
C184 C186 1.391 . S
C185 C184 1.386 . S
C185 C189 1.393 . S
C186 H178 0.950 . S
C186 C184 1.391 . S
C186 C187 1.400 . S
C187 C186 1.400 . S
C187 C188 1.398 . S
C187 C193 1.491 . S
C188 H179 0.950 1_565 S
C188 C187 1.398 . S
C188 C189 1.391 . S
C189 H177 0.950 . S
C189 C185 1.393 . S
C189 C188 1.391 . S
C190 H180 0.950 . S
C190 C191 1.386 . S
C190 C192 1.391 . S
C191 C190 1.386 . S
C191 C195 1.393 1_545 S
C192 H181 0.950 . S
C192 C190 1.391 . S
C192 C193 1.400 1_545 S
C193 C187 1.491 . S
C193 C192 1.400 1_565 S
C193 C194 1.398 . S
C194 H182 0.950 . S
C194 C193 1.398 . S
C194 C195 1.391 . S
C195 H183 0.950 . S
C195 C191 1.393 1_565 S
C195 C194 1.391 . S
H196 C204 0.950 . S
H197 C209 0.950 . S
H198 C206 0.950 . S
H199 C208 0.950 . S
H200 C210 0.950 . S
H201 C212 0.950 . S
H202 C214 0.950 . S
H203 C215 0.950 . S
C204 H196 0.950 . S
C204 C205 1.386 . S
C204 C206 1.391 . S
C205 C204 1.386 . S
C205 C209 1.393 . S
C206 H198 0.950 . S
C206 C204 1.391 . S
C206 C207 1.400 . S
C207 C206 1.400 . S
C207 C208 1.398 . S
C207 C213 1.491 . S
C208 H199 0.950 . S
C208 C207 1.398 . S
C208 C209 1.391 . S
C209 H197 0.950 . S
C209 C205 1.393 . S
C209 C208 1.391 . S
C210 H200 0.950 . S
C210 C211 1.386 . S
C210 C212 1.391 . S
C211 C210 1.386 . S
C211 C215 1.393 . S
C212 H201 0.950 . S
C212 C210 1.391 . S
C212 C213 1.400 . S
C213 C207 1.491 . S
C213 C212 1.400 . S
C213 C214 1.398 . S
C214 H202 0.950 . S
C214 C213 1.398 . S
C214 C215 1.391 . S
C215 H203 0.950 . S
C215 C211 1.393 . S
C215 C214 1.391 . S
H216 C224 0.950 . S
H217 C229 0.950 . S
H218 C226 0.950 . S
H219 C228 0.950 . S
H220 C230 0.950 . S
H221 C232 0.950 . S
H222 C234 0.950 . S
H223 C235 0.950 . S
C224 H216 0.950 . S
C224 C225 1.386 . S
C224 C226 1.391 1_545 S
C225 C224 1.386 . S
C225 C229 1.393 . S
C226 H218 0.950 . S
C226 C224 1.391 1_565 S
C226 C227 1.400 . S
C227 C226 1.400 . S
C227 C228 1.398 . S
C227 C233 1.491 . S
C228 H219 0.950 . S
C228 C227 1.398 . S
C228 C229 1.391 1_565 S
C229 H217 0.950 . S
C229 C225 1.393 . S
C229 C228 1.391 1_545 S
C230 H220 0.950 . S
C230 C231 1.386 . S
C230 C232 1.391 . S
C231 C230 1.386 . S
C231 C235 1.393 . S
C232 H221 0.950 . S
C232 C230 1.391 . S
C232 C233 1.400 . S
C233 C227 1.491 . S
C233 C232 1.400 . S
C233 C234 1.398 . S
C234 H222 0.950 . S
C234 C233 1.398 . S
C234 C235 1.391 . S
C235 H223 0.950 . S
C235 C231 1.393 . S
C235 C234 1.391 . S
H236 C244 0.950 . S
H237 C249 0.950 . S
H238 C246 0.950 . S
H239 C248 0.950 . S
H240 C250 0.950 . S
H241 C252 0.950 . S
H242 C254 0.950 . S
H243 C255 0.950 . S
C244 H236 0.950 . S
C244 C245 1.386 . S
C244 C246 1.391 . S
C245 C244 1.386 . S
C245 C249 1.393 . S
C246 H238 0.950 . S
C246 C244 1.391 . S
C246 C247 1.400 . S
C247 C246 1.400 . S
C247 C248 1.398 . S
C247 C253 1.491 . S
C248 H239 0.950 . S
C248 C247 1.398 . S
C248 C249 1.391 . S
C249 H237 0.950 . S
C249 C245 1.393 . S
C249 C248 1.391 . S
C250 H240 0.950 . S
C250 C251 1.386 . S
C250 C252 1.391 . S
C251 C250 1.386 . S
C251 C255 1.393 . S
C252 H241 0.950 . S
C252 C250 1.391 . S
C252 C253 1.400 . S
C253 C247 1.491 . S
C253 C252 1.400 . S
C253 C254 1.398 . S
C254 H242 0.950 . S
C254 C253 1.398 . S
C254 C255 1.391 . S
C255 H243 0.950 . S
C255 C251 1.393 . S
C255 C254 1.391 . S
H256 C264 0.950 . S
H257 C269 0.950 . S
H258 C266 0.950 . S
H259 C268 0.950 . S
H260 C270 0.950 . S
H261 C272 0.950 . S
H262 C274 0.950 . S
H263 C275 0.950 . S
C264 H256 0.950 . S
C264 C265 1.386 . S
C264 C266 1.391 . S
C265 C264 1.386 . S
C265 C269 1.393 . S
C266 H258 0.950 . S
C266 C264 1.391 . S
C266 C267 1.400 . S
C267 C266 1.400 . S
C267 C268 1.398 . S
C267 C273 1.491 . S
C268 H259 0.950 . S
C268 C267 1.398 . S
C268 C269 1.391 . S
C269 H257 0.950 . S
C269 C265 1.393 . S
C269 C268 1.391 . S
C270 H260 0.950 . S
C270 C271 1.386 . S
C270 C272 1.391 . S
C271 C270 1.386 . S
C271 C275 1.393 . S
C272 H261 0.950 . S
C272 C270 1.391 . S
C272 C273 1.400 . S
C273 C267 1.491 . S
C273 C272 1.400 . S
C273 C274 1.398 . S
C274 H262 0.950 . S
C274 C273 1.398 . S
C274 C275 1.391 . S
C275 H263 0.950 . S
C275 C271 1.393 . S
C275 C274 1.391 . S
H276 C284 0.950 . S
H277 C289 0.950 . S
H278 C286 0.950 . S
H279 C288 0.950 1_455 S
H280 C290 0.950 . S
H281 C292 0.950 . S
H282 C294 0.950 . S
H283 C295 0.950 . S
C284 H276 0.950 . S
C284 C285 1.386 . S
C284 C286 1.391 . S
C285 C284 1.386 . S
C285 C289 1.393 . S
C286 H278 0.950 . S
C286 C284 1.391 . S
C286 C287 1.400 . S
C287 C286 1.400 . S
C287 C288 1.398 . S
C287 C293 1.491 1_655 S
C288 H279 0.950 1_655 S
C288 C287 1.398 . S
C288 C289 1.391 . S
C289 H277 0.950 . S
C289 C285 1.393 . S
C289 C288 1.391 . S
C290 H280 0.950 . S
C290 C291 1.386 . S
C290 C292 1.391 . S
C291 C290 1.386 . S
C291 C295 1.393 . S
C292 H281 0.950 . S
C292 C290 1.391 . S
C292 C293 1.400 . S
C293 C287 1.491 1_455 S
C293 C292 1.400 . S
C293 C294 1.398 . S
C294 H282 0.950 . S
C294 C293 1.398 . S
C294 C295 1.391 . S
C295 H283 0.950 . S
C295 C291 1.393 . S
C295 C294 1.391 . S
H296 C304 0.950 . S
H297 C309 0.950 . S
H298 C306 0.950 . S
H299 C308 0.950 . S
H300 C310 0.950 . S
H301 C312 0.950 . S
H302 C314 0.950 . S
H303 C315 0.950 . S
C304 H296 0.950 . S
C304 C305 1.386 . S
C304 C306 1.391 . S
C305 C304 1.386 . S
C305 C309 1.393 . S
C306 H298 0.950 . S
C306 C304 1.391 . S
C306 C307 1.400 . S
C307 C306 1.400 . S
C307 C308 1.398 . S
C307 C313 1.491 . S
C308 H299 0.950 . S
C308 C307 1.398 . S
C308 C309 1.391 . S
C309 H297 0.950 . S
C309 C305 1.393 . S
C309 C308 1.391 . S
C310 H300 0.950 . S
C310 C311 1.386 . S
C310 C312 1.391 . S
C311 C310 1.386 . S
C311 C315 1.393 . S
C312 H301 0.950 . S
C312 C310 1.391 . S
C312 C313 1.400 . S
C313 C307 1.491 . S
C313 C312 1.400 . S
C313 C314 1.398 . S
C314 H302 0.950 . S
C314 C313 1.398 . S
C314 C315 1.391 . S
C315 H303 0.950 . S
C315 C311 1.393 . S
C315 C314 1.391 . S
H316 C324 0.950 . S
H317 C329 0.950 . S
H318 C326 0.950 1_655 S
H319 C328 0.950 . S
H320 C330 0.950 . S
H321 C332 0.950 . S
H322 C334 0.950 . S
H323 C335 0.950 . S
C324 H316 0.950 . S
C324 C325 1.386 . S
C324 C326 1.391 . S
C325 C324 1.386 . S
C325 C329 1.393 . S
C326 H318 0.950 1_455 S
C326 C324 1.391 . S
C326 C327 1.400 . S
C327 C326 1.400 . S
C327 C328 1.398 . S
C327 C333 1.491 . S
C328 H319 0.950 . S
C328 C327 1.398 . S
C328 C329 1.391 . S
C329 H317 0.950 . S
C329 C325 1.393 . S
C329 C328 1.391 . S
C330 H320 0.950 . S
C330 C331 1.386 . S
C330 C332 1.391 1_655 S
C331 C330 1.386 . S
C331 C335 1.393 . S
C332 H321 0.950 . S
C332 C330 1.391 1_455 S
C332 C333 1.400 . S
C333 C327 1.491 . S
C333 C332 1.400 . S
C333 C334 1.398 1_455 S
C334 H322 0.950 . S
C334 C333 1.398 1_655 S
C334 C335 1.391 . S
C335 H323 0.950 . S
C335 C331 1.393 . S
C335 C334 1.391 . S
H336 C344 0.950 . S
H337 C349 0.950 . S
H338 C346 0.950 . S
H339 C348 0.950 . S
H340 C350 0.950 . S
H341 C352 0.950 . S
H342 C354 0.950 . S
H343 C355 0.950 . S
C344 H336 0.950 . S
C344 C345 1.386 . S
C344 C346 1.391 . S
C345 C344 1.386 . S
C345 C349 1.393 . S
C346 H338 0.950 . S
C346 C344 1.391 . S
C346 C347 1.400 . S
C347 C346 1.400 . S
C347 C348 1.398 . S
C347 C353 1.491 . S
C348 H339 0.950 . S
C348 C347 1.398 . S
C348 C349 1.391 . S
C349 H337 0.950 . S
C349 C345 1.393 . S
C349 C348 1.391 . S
C350 H340 0.950 . S
C350 C351 1.386 1_545 S
C350 C352 1.391 . S
C351 C350 1.386 1_565 S
C351 C355 1.393 . S
C352 H341 0.950 . S
C352 C350 1.391 . S
C352 C353 1.400 . S
C353 C347 1.491 . S
C353 C352 1.400 . S
C353 C354 1.398 . S
C354 H342 0.950 . S
C354 C353 1.398 . S
C354 C355 1.391 1_545 S
C355 H343 0.950 . S
C355 C351 1.393 . S
C355 C354 1.391 1_565 S
H356 C364 0.950 . S
H357 C369 0.950 . S
H358 C366 0.950 . S
H359 C368 0.950 . S
H360 C370 0.950 . S
H361 C372 0.950 . S
H362 C374 0.950 . S
H363 C375 0.950 . S
C364 H356 0.950 . S
C364 C365 1.386 . S
C364 C366 1.391 . S
C365 C364 1.386 . S
C365 C369 1.393 . S
C366 H358 0.950 . S
C366 C364 1.391 . S
C366 C367 1.400 . S
C367 C366 1.400 . S
C367 C368 1.398 . S
C367 C373 1.491 . S
C368 H359 0.950 . S
C368 C367 1.398 . S
C368 C369 1.391 . S
C369 H357 0.950 . S
C369 C365 1.393 . S
C369 C368 1.391 . S
C370 H360 0.950 . S
C370 C371 1.386 . S
C370 C372 1.391 . S
C371 C370 1.386 . S
C371 C375 1.393 . S
C372 H361 0.950 . S
C372 C370 1.391 . S
C372 C373 1.400 . S
C373 C367 1.491 . S
C373 C372 1.400 . S
C373 C374 1.398 . S
C374 H362 0.950 . S
C374 C373 1.398 . S
C374 C375 1.391 . S
C375 H363 0.950 . S
C375 C371 1.393 . S
C375 C374 1.391 . S
H376 C384 0.950 . S
H377 C389 0.957 1_554 S
H378 C386 0.950 . S
H379 C388 0.950 . S
H380 C390 0.950 . S
H381 C392 0.950 . S
H382 C394 0.950 . S
H383 C395 0.950 . S
C384 H376 0.950 . S
C384 C385 1.386 . S
C384 C386 1.391 1_565 S
C385 C384 1.386 . S
C385 C389 1.393 1_565 S
C386 H378 0.950 . S
C386 C384 1.391 1_545 S
C386 C387 1.400 . S
C387 C386 1.400 . S
C387 C388 1.398 . S
C387 C393 1.491 . S
C388 H379 0.950 . S
C388 C387 1.398 . S
C388 C389 1.391 . S
C389 H377 0.957 1_556 S
C389 C385 1.393 1_545 S
C389 C388 1.391 . S
C390 H380 0.950 . S
C390 C391 1.386 . S
C390 C392 1.391 . S
C391 C390 1.386 . S
C391 C395 1.393 . S
C392 H381 0.950 . S
C392 C390 1.391 . S
C392 C393 1.400 . S
C393 C387 1.491 . S
C393 C392 1.400 . S
C393 C394 1.398 . S
C394 H382 0.950 . S
C394 C393 1.398 . S
C394 C395 1.391 . S
C395 H383 0.950 . S
C395 C391 1.393 . S
C395 C394 1.391 . S
H396 C404 0.950 . S
H397 C409 0.950 . S
H398 C406 0.950 . S
H399 C408 0.950 . S
H400 C410 0.950 . S
H401 C412 0.950 . S
H402 C414 0.950 . S
H403 C415 0.950 . S
C404 H396 0.950 . S
C404 C405 1.386 . S
C404 C406 1.391 . S
C405 C404 1.386 . S
C405 C409 1.393 . S
C406 H398 0.950 . S
C406 C404 1.391 . S
C406 C407 1.400 . S
C407 C406 1.400 . S
C407 C408 1.398 . S
C407 C413 1.491 . S
C408 H399 0.950 . S
C408 C407 1.398 . S
C408 C409 1.391 . S
C409 H397 0.950 . S
C409 C405 1.393 . S
C409 C408 1.391 . S
C410 H400 0.950 . S
C410 C411 1.386 . S
C410 C412 1.391 . S
C411 C410 1.386 . S
C411 C415 1.393 . S
C412 H401 0.950 . S
C412 C410 1.391 . S
C412 C413 1.400 . S
C413 C407 1.491 . S
C413 C412 1.400 . S
C413 C414 1.398 . S
C414 H402 0.950 . S
C414 C413 1.398 . S
C414 C415 1.391 . S
C415 H403 0.950 . S
C415 C411 1.393 . S
C415 C414 1.391 . S
H416 C424 0.950 . S
H417 C429 0.950 . S
H418 C426 0.950 . S
H419 C428 0.950 . S
H420 C430 0.950 . S
H421 C432 0.950 . S
H422 C434 0.950 . S
H423 C435 0.950 . S
C424 H416 0.950 . S
C424 C425 1.386 . S
C424 C426 1.391 . S
C425 C424 1.386 . S
C425 C429 1.393 . S
C426 H418 0.950 . S
C426 C424 1.391 . S
C426 C427 1.400 . S
C427 C426 1.400 . S
C427 C428 1.398 . S
C427 C433 1.491 . S
C428 H419 0.950 . S
C428 C427 1.398 . S
C428 C429 1.391 . S
C429 H417 0.950 . S
C429 C425 1.393 . S
C429 C428 1.391 . S
C430 H420 0.950 . S
C430 C431 1.386 . S
C430 C432 1.391 . S
C431 C430 1.386 . S
C431 C435 1.393 . S
C432 H421 0.950 . S
C432 C430 1.391 . S
C432 C433 1.400 . S
C433 C427 1.491 . S
C433 C432 1.400 . S
C433 C434 1.398 . S
C434 H422 0.950 . S
C434 C433 1.398 . S
C434 C435 1.391 . S
C435 H423 0.950 . S
C435 C431 1.393 . S
C435 C434 1.391 . S
H436 C444 0.950 . S
H437 C449 0.950 . S
H438 C446 0.950 . S
H439 C448 0.950 . S
H440 C450 0.950 . S
H441 C452 0.950 . S
H442 C454 0.950 . S
H443 C455 0.950 . S
C444 H436 0.950 . S
C444 C445 1.386 . S
C444 C446 1.391 1_455 S
C445 C444 1.386 . S
C445 C449 1.393 . S
C446 H438 0.950 . S
C446 C444 1.391 1_655 S
C446 C447 1.400 . S
C447 C446 1.400 . S
C447 C448 1.398 1_655 S
C447 C453 1.491 . S
C448 H439 0.950 . S
C448 C447 1.398 1_455 S
C448 C449 1.391 . S
C449 H437 0.950 . S
C449 C445 1.393 . S
C449 C448 1.391 . S
C450 H440 0.950 . S
C450 C451 1.386 . S
C450 C452 1.391 . S
C451 C450 1.386 . S
C451 C455 1.393 . S
C452 H441 0.950 . S
C452 C450 1.391 . S
C452 C453 1.400 . S
C453 C447 1.491 . S
C453 C452 1.400 . S
C453 C454 1.398 . S
C454 H442 0.950 . S
C454 C453 1.398 . S
C454 C455 1.391 . S
C455 H443 0.950 . S
C455 C451 1.393 . S
C455 C454 1.391 . S
H456 C464 0.950 . S
H457 C469 0.950 . S
H458 C466 0.950 . S
H459 C468 0.950 . S
H460 C470 0.950 . S
H461 C472 0.950 . S
H462 C474 0.950 . S
H463 C475 0.950 . S
C464 H456 0.950 . S
C464 C465 1.386 . S
C464 C466 1.391 . S
C465 C464 1.386 . S
C465 C469 1.393 . S
C466 H458 0.950 . S
C466 C464 1.391 . S
C466 C467 1.400 . S
C467 C466 1.400 . S
C467 C468 1.398 . S
C467 C473 1.491 . S
C468 H459 0.950 . S
C468 C467 1.398 . S
C468 C469 1.391 . S
C469 H457 0.950 . S
C469 C465 1.393 . S
C469 C468 1.391 . S
C470 H460 0.950 . S
C470 C471 1.386 . S
C470 C472 1.391 . S
C471 C470 1.386 . S
C471 C475 1.393 . S
C472 H461 0.950 . S
C472 C470 1.391 . S
C472 C473 1.400 . S
C473 C467 1.491 . S
C473 C472 1.400 . S
C473 C474 1.398 . S
C474 H462 0.950 . S
C474 C473 1.398 . S
C474 C475 1.391 . S
C475 H463 0.950 . S
C475 C471 1.393 . S
C475 C474 1.391 . S
H476 C484 0.950 . S
H477 C489 0.950 . S
H478 C486 0.950 . S
H479 C488 0.950 . S
H480 C490 0.950 . S
H481 C492 0.950 . S
H482 C494 0.950 . S
H483 C495 0.950 . S
C484 H476 0.950 . S
C484 C485 1.386 . S
C484 C486 1.391 . S
C485 C484 1.386 . S
C485 C489 1.393 . S
C486 H478 0.950 . S
C486 C484 1.391 . S
C486 C487 1.400 . S
C487 C486 1.400 . S
C487 C488 1.398 . S
C487 C493 1.491 . S
C488 H479 0.950 . S
C488 C487 1.398 . S
C488 C489 1.391 . S
C489 H477 0.950 . S
C489 C485 1.393 . S
C489 C488 1.391 . S
C490 H480 0.950 . S
C490 C491 1.386 1_655 S
C490 C492 1.391 . S
C491 C490 1.386 1_455 S
C491 C495 1.393 . S
C492 H481 0.950 . S
C492 C490 1.391 . S
C492 C493 1.400 . S
C493 C487 1.491 . S
C493 C492 1.400 . S
C493 C494 1.398 1_655 S
C494 H482 0.950 . S
C494 C493 1.398 1_455 S
C494 C495 1.391 . S
C495 H483 0.950 . S
C495 C491 1.393 . S
C495 C494 1.391 . S
H496 C504 0.950 . S
H497 C509 0.950 . S
H498 C506 0.950 . S
H499 C508 0.950 . S
H500 C510 0.950 . S
H501 C512 0.950 . S
H502 C514 0.950 . S
H503 C515 0.950 . S
C504 H496 0.950 . S
C504 C505 1.386 . S
C504 C506 1.391 . S
C505 C504 1.386 . S
C505 C509 1.393 . S
C506 H498 0.950 . S
C506 C504 1.391 . S
C506 C507 1.400 . S
C507 C506 1.400 . S
C507 C508 1.398 . S
C507 C513 1.491 . S
C508 H499 0.950 . S
C508 C507 1.398 . S
C508 C509 1.391 . S
C509 H497 0.950 . S
C509 C505 1.393 . S
C509 C508 1.391 . S
C510 H500 0.950 . S
C510 C511 1.386 . S
C510 C512 1.391 . S
C511 C510 1.386 . S
C511 C515 1.393 . S
C512 H501 0.950 . S
C512 C510 1.391 . S
C512 C513 1.400 . S
C513 C507 1.491 . S
C513 C512 1.400 . S
C513 C514 1.398 . S
C514 H502 0.950 . S
C514 C513 1.398 . S
C514 C515 1.391 . S
C515 H503 0.950 . S
C515 C511 1.393 . S
C515 C514 1.391 . S
H516 C524 0.950 . S
H517 C529 0.950 . S
H518 C526 0.950 . S
H519 C528 0.950 . S
H520 C530 0.950 . S
H521 C532 0.950 . S
H522 C534 0.950 . S
H523 C535 0.950 . S
C524 H516 0.950 . S
C524 C525 1.386 . S
C524 C526 1.391 . S
C525 C524 1.386 . S
C525 C529 1.393 . S
C526 H518 0.950 . S
C526 C524 1.391 . S
C526 C527 1.400 . S
C527 C526 1.400 . S
C527 C528 1.398 . S
C527 C533 1.491 . S
C528 H519 0.950 . S
C528 C527 1.398 . S
C528 C529 1.391 . S
C529 H517 0.950 . S
C529 C525 1.393 . S
C529 C528 1.391 . S
C530 H520 0.950 . S
C530 C531 1.386 . S
C530 C532 1.391 . S
C531 C530 1.386 . S
C531 C535 1.393 . S
C532 H521 0.950 . S
C532 C530 1.391 . S
C532 C533 1.400 . S
C533 C527 1.491 . S
C533 C532 1.400 . S
C533 C534 1.398 . S
C534 H522 0.950 . S
C534 C533 1.398 . S
C534 C535 1.391 . S
C535 H523 0.950 . S
C535 C531 1.393 . S
C535 C534 1.391 . S
H536 C544 0.950 . S
H537 C549 0.950 . S
H538 C546 0.950 . S
H539 C548 0.950 . S
H540 C550 0.950 . S
H541 C552 0.950 . S
H542 C554 0.950 . S
H543 C555 0.950 . S
C544 H536 0.950 . S
C544 C545 1.386 . S
C544 C546 1.391 . S
C545 C544 1.386 . S
C545 C549 1.393 . S
C546 H538 0.950 . S
C546 C544 1.391 . S
C546 C547 1.400 . S
C547 C546 1.400 . S
C547 C548 1.398 . S
C547 C553 1.491 . S
C548 H539 0.950 . S
C548 C547 1.398 . S
C548 C549 1.391 . S
C549 H537 0.950 . S
C549 C545 1.393 . S
C549 C548 1.391 . S
C550 H540 0.950 . S
C550 C551 1.386 . S
C550 C552 1.391 . S
C551 C550 1.386 . S
C551 C555 1.393 . S
C552 H541 0.950 . S
C552 C550 1.391 . S
C552 C553 1.400 . S
C553 C547 1.491 . S
C553 C552 1.400 . S
C553 C554 1.398 . S
C554 H542 0.950 . S
C554 C553 1.398 . S
C554 C555 1.391 . S
C555 H543 0.950 . S
C555 C551 1.393 . S
C555 C554 1.391 . S
H556 C564 0.950 . S
H557 C569 0.950 . S
H558 C566 0.950 . S
H559 C568 0.950 . S
H560 C570 0.950 . S
H561 C572 0.950 . S
H562 C574 0.950 . S
H563 C575 0.950 . S
C564 H556 0.950 . S
C564 C565 1.386 . S
C564 C566 1.391 . S
C565 C564 1.386 . S
C565 C569 1.393 . S
C566 H558 0.950 . S
C566 C564 1.391 . S
C566 C567 1.400 . S
C567 C566 1.400 . S
C567 C568 1.398 . S
C567 C573 1.491 . S
C568 H559 0.950 . S
C568 C567 1.398 . S
C568 C569 1.391 . S
C569 H557 0.950 . S
C569 C565 1.393 . S
C569 C568 1.391 . S
C570 H560 0.950 . S
C570 C571 1.386 . S
C570 C572 1.391 . S
C571 C570 1.386 . S
C571 C575 1.393 . S
C572 H561 0.950 . S
C572 C570 1.391 . S
C572 C573 1.400 . S
C573 C567 1.491 . S
C573 C572 1.400 . S
C573 C574 1.398 . S
C574 H562 0.950 . S
C574 C573 1.398 . S
C574 C575 1.391 . S
C575 H563 0.950 . S
C575 C571 1.393 . S
C575 C574 1.391 . S
H576 C584 0.950 . S
H577 C589 0.950 . S
H578 C586 0.950 . S
H579 C588 0.950 . S
H580 C590 0.950 . S
H581 C592 0.950 . S
H582 C594 0.950 . S
H583 C595 0.950 . S
C584 H576 0.950 . S
C584 C585 1.386 . S
C584 C586 1.391 . S
C585 C584 1.386 . S
C585 C589 1.393 . S
C586 H578 0.950 . S
C586 C584 1.391 . S
C586 C587 1.400 . S
C587 C586 1.400 . S
C587 C588 1.398 . S
C587 C593 1.491 . S
C588 H579 0.950 . S
C588 C587 1.398 . S
C588 C589 1.391 . S
C589 H577 0.950 . S
C589 C585 1.393 . S
C589 C588 1.391 . S
C590 H580 0.950 . S
C590 C591 1.386 . S
C590 C592 1.391 . S
C591 C590 1.386 . S
C591 C595 1.393 . S
C592 H581 0.950 . S
C592 C590 1.391 . S
C592 C593 1.400 . S
C593 C587 1.491 . S
C593 C592 1.400 . S
C593 C594 1.398 . S
C594 H582 0.950 . S
C594 C593 1.398 . S
C594 C595 1.391 . S
C595 H583 0.950 . S
C595 C591 1.393 . S
C595 C594 1.391 . S
H596 C604 0.950 . S
H597 C609 0.950 . S
H598 C606 0.950 . S
H599 C608 0.950 . S
H600 C610 0.950 . S
H601 C612 0.950 . S
H602 C614 0.950 . S
H603 C615 0.950 . S
C604 H596 0.950 . S
C604 C605 1.386 . S
C604 C606 1.391 . S
C605 C604 1.386 . S
C605 C609 1.393 . S
C606 H598 0.950 . S
C606 C604 1.391 . S
C606 C607 1.400 . S
C607 C606 1.400 . S
C607 C608 1.398 . S
C607 C613 1.491 . S
C608 H599 0.950 . S
C608 C607 1.398 . S
C608 C609 1.391 . S
C609 H597 0.950 . S
C609 C605 1.393 . S
C609 C608 1.391 . S
C610 H600 0.950 . S
C610 C611 1.386 . S
C610 C612 1.391 . S
C611 C610 1.386 . S
C611 C615 1.393 . S
C612 H601 0.950 . S
C612 C610 1.391 . S
C612 C613 1.400 . S
C613 C607 1.491 . S
C613 C612 1.400 . S
C613 C614 1.398 . S
C614 H602 0.950 . S
C614 C613 1.398 . S
C614 C615 1.391 . S
C615 H603 0.950 . S
C615 C611 1.393 . S
C615 C614 1.391 . S
H616 C624 0.950 . S
H617 C629 0.950 . S
H618 C626 0.950 . S
H619 C628 0.950 . S
H620 C630 0.950 . S
H621 C632 0.950 . S
H622 C634 0.950 . S
H623 C635 0.950 . S
C624 H616 0.950 . S
C624 C625 1.386 . S
C624 C626 1.391 . S
C625 C624 1.386 . S
C625 C629 1.393 . S
C626 H618 0.950 . S
C626 C624 1.391 . S
C626 C627 1.400 . S
C627 C626 1.400 . S
C627 C628 1.398 . S
C627 C633 1.491 . S
C628 H619 0.950 . S
C628 C627 1.398 . S
C628 C629 1.391 . S
C629 H617 0.950 . S
C629 C625 1.393 . S
C629 C628 1.391 . S
C630 H620 0.950 . S
C630 C631 1.386 . S
C630 C632 1.391 . S
C631 C630 1.386 . S
C631 C635 1.393 . S
C632 H621 0.950 . S
C632 C630 1.391 . S
C632 C633 1.400 . S
C633 C627 1.491 . S
C633 C632 1.400 . S
C633 C634 1.398 . S
C634 H622 0.950 . S
C634 C633 1.398 . S
C634 C635 1.391 . S
C635 H623 0.950 . S
C635 C631 1.393 . S
C635 C634 1.391 . S
H636 C644 0.950 . S
H637 C649 0.950 . S
H638 C646 0.950 . S
H639 C648 0.950 . S
H640 C650 0.950 . S
H641 C652 0.950 . S
H642 C654 0.950 . S
H643 C655 0.950 . S
C644 H636 0.950 . S
C644 C645 1.386 . S
C644 C646 1.391 . S
C645 C644 1.386 . S
C645 C649 1.393 . S
C646 H638 0.950 . S
C646 C644 1.391 . S
C646 C647 1.400 . S
C647 C646 1.400 . S
C647 C648 1.398 . S
C647 C653 1.491 . S
C648 H639 0.950 . S
C648 C647 1.398 . S
C648 C649 1.391 . S
C649 H637 0.950 . S
C649 C645 1.393 . S
C649 C648 1.391 . S
C650 H640 0.950 . S
C650 C651 1.386 . S
C650 C652 1.391 . S
C651 C650 1.386 . S
C651 C655 1.393 . S
C652 H641 0.950 . S
C652 C650 1.391 . S
C652 C653 1.400 . S
C653 C647 1.491 . S
C653 C652 1.400 . S
C653 C654 1.398 . S
C654 H642 0.950 . S
C654 C653 1.398 . S
C654 C655 1.391 . S
C655 H643 0.950 . S
C655 C651 1.393 . S
C655 C654 1.391 . S
C185 C8 1.532 . S
C191 C95 1.469 . S
C205 C31 1.427 . S
C211 C104 1.100 . S
C225 C53 1.238 . S
C231 C115 0.988 . S
C251 C126 1.012 . S
C245 C74 1.095 . S
C271 C139 1.320 . S
C265 C26 1.304 . S
C285 C48 1.176 . S
C291 C148 0.875 . S
C305 C71 1.100 . S
C311 C159 1.011 . S
C325 C5 1.648 . S
C331 C172 1.552 . S
C345 C50 1.189 . S
C351 C170 0.852 . S
C371 C137 1.159 . S
C365 C70 1.318 . S
C391 C150 1.558 . S
C385 C4 1.600 . S
C405 C28 1.639 . S
C411 C161 1.663 . S
C431 C106 1.386 . S
C425 C73 1.388 . S
C445 C7 1.644 . S
C451 C117 1.584 . S
C471 C128 1.433 . S
C465 C30 1.414 . S
C491 C93 0.880 . S
C485 C52 1.194 . S
C511 C162 1.449 . S
C505 C9 1.427 . S
C531 C173 1.466 . S
C525 C29 1.497 . S
C545 C51 1.316 . S
C551 C140 1.307 . S
C571 C151 1.388 . S
C565 C75 1.460 . S
C591 C118 1.541 . S
C585 C27 1.596 . S
C605 C49 1.307 . S
C611 C129 1.320 . S
C631 C96 1.389 . S
C625 C72 1.424 . S
C651 C107 1.425 . S
C645 C6 1.446 . S
