# Generated by pormake.
# Topology ocu, (6,8)-cn, num edge types: 1
# Building blocks:
#     Node 0, Type 0, BuildingBlock: MIFKUJ_clean_sbu_0, # of connection points: 6
#     Node 1, Type 0, BuildingBlock: MIFKUJ_clean_sbu_0, # of connection points: 6
#     Node 2, Type 0, BuildingBlock: MIFKUJ_clean_sbu_0, # of connection points: 6
#     Node 3, Type 0, BuildingBlock: MIFKUJ_clean_sbu_0, # of connection points: 6
#     Node 4, Type 0, BuildingBlock: MIFKUJ_clean_sbu_0, # of connection points: 6
#     Node 5, Type 0, BuildingBlock: MIFKUJ_clean_sbu_0, # of connection points: 6
#     Node 6, Type 0, BuildingBlock: MIFKUJ_clean_sbu_0, # of connection points: 6
#     Node 7, Type 0, BuildingBlock: MIFKUJ_clean_sbu_0, # of connection points: 6
#     Node 8, Type 1, BuildingBlock: GIZVER_clean_sbu_0, # of connection points: 8
#     Node 9, Type 1, BuildingBlock: GIZVER_clean_sbu_0, # of connection points: 8
#     Node 10, Type 1, BuildingBlock: GIZVER_clean_sbu_0, # of connection points: 8
#     Node 11, Type 1, BuildingBlock: GIZVER_clean_sbu_0, # of connection points: 8
#     Node 12, Type 1, BuildingBlock: GIZVER_clean_sbu_0, # of connection points: 8
#     Node 13, Type 1, BuildingBlock: GIZVER_clean_sbu_0, # of connection points: 8
#     Edge 14, Type (0, 1), BuildingBlock: XUDNAN_clean_linker_2, # of connection points: 2
#     Edge 15, Type (0, 1), BuildingBlock: XUDNAN_clean_linker_2, # of connection points: 2
#     Edge 16, Type (0, 1), BuildingBlock: XUDNAN_clean_linker_2, # of connection points: 2
#     Edge 17, Type (0, 1), BuildingBlock: XUDNAN_clean_linker_2, # of connection points: 2
#     Edge 18, Type (0, 1), BuildingBlock: XUDNAN_clean_linker_2, # of connection points: 2
#     Edge 19, Type (0, 1), BuildingBlock: XUDNAN_clean_linker_2, # of connection points: 2
#     Edge 20, Type (0, 1), BuildingBlock: XUDNAN_clean_linker_2, # of connection points: 2
#     Edge 21, Type (0, 1), BuildingBlock: XUDNAN_clean_linker_2, # of connection points: 2
#     Edge 22, Type (0, 1), BuildingBlock: XUDNAN_clean_linker_2, # of connection points: 2
#     Edge 23, Type (0, 1), BuildingBlock: XUDNAN_clean_linker_2, # of connection points: 2
#     Edge 24, Type (0, 1), BuildingBlock: XUDNAN_clean_linker_2, # of connection points: 2
#     Edge 25, Type (0, 1), BuildingBlock: XUDNAN_clean_linker_2, # of connection points: 2
#     Edge 26, Type (0, 1), BuildingBlock: XUDNAN_clean_linker_2, # of connection points: 2
#     Edge 27, Type (0, 1), BuildingBlock: XUDNAN_clean_linker_2, # of connection points: 2
#     Edge 28, Type (0, 1), BuildingBlock: XUDNAN_clean_linker_2, # of connection points: 2
#     Edge 29, Type (0, 1), BuildingBlock: XUDNAN_clean_linker_2, # of connection points: 2
#     Edge 30, Type (0, 1), BuildingBlock: XUDNAN_clean_linker_2, # of connection points: 2
#     Edge 31, Type (0, 1), BuildingBlock: XUDNAN_clean_linker_2, # of connection points: 2
#     Edge 32, Type (0, 1), BuildingBlock: XUDNAN_clean_linker_2, # of connection points: 2
#     Edge 33, Type (0, 1), BuildingBlock: XUDNAN_clean_linker_2, # of connection points: 2
#     Edge 34, Type (0, 1), BuildingBlock: XUDNAN_clean_linker_2, # of connection points: 2
#     Edge 35, Type (0, 1), BuildingBlock: XUDNAN_clean_linker_2, # of connection points: 2
#     Edge 36, Type (0, 1), BuildingBlock: XUDNAN_clean_linker_2, # of connection points: 2
#     Edge 37, Type (0, 1), BuildingBlock: XUDNAN_clean_linker_2, # of connection points: 2
#     Edge 38, Type (0, 1), BuildingBlock: XUDNAN_clean_linker_2, # of connection points: 2
#     Edge 39, Type (0, 1), BuildingBlock: XUDNAN_clean_linker_2, # of connection points: 2
#     Edge 40, Type (0, 1), BuildingBlock: XUDNAN_clean_linker_2, # of connection points: 2
#     Edge 41, Type (0, 1), BuildingBlock: XUDNAN_clean_linker_2, # of connection points: 2
#     Edge 42, Type (0, 1), BuildingBlock: XUDNAN_clean_linker_2, # of connection points: 2
#     Edge 43, Type (0, 1), BuildingBlock: XUDNAN_clean_linker_2, # of connection points: 2
#     Edge 44, Type (0, 1), BuildingBlock: XUDNAN_clean_linker_2, # of connection points: 2
#     Edge 45, Type (0, 1), BuildingBlock: XUDNAN_clean_linker_2, # of connection points: 2
#     Edge 46, Type (0, 1), BuildingBlock: XUDNAN_clean_linker_2, # of connection points: 2
#     Edge 47, Type (0, 1), BuildingBlock: XUDNAN_clean_linker_2, # of connection points: 2
#     Edge 48, Type (0, 1), BuildingBlock: XUDNAN_clean_linker_2, # of connection points: 2
#     Edge 49, Type (0, 1), BuildingBlock: XUDNAN_clean_linker_2, # of connection points: 2
#     Edge 50, Type (0, 1), BuildingBlock: XUDNAN_clean_linker_2, # of connection points: 2
#     Edge 51, Type (0, 1), BuildingBlock: XUDNAN_clean_linker_2, # of connection points: 2
#     Edge 52, Type (0, 1), BuildingBlock: XUDNAN_clean_linker_2, # of connection points: 2
#     Edge 53, Type (0, 1), BuildingBlock: XUDNAN_clean_linker_2, # of connection points: 2
#     Edge 54, Type (0, 1), BuildingBlock: XUDNAN_clean_linker_2, # of connection points: 2
#     Edge 55, Type (0, 1), BuildingBlock: XUDNAN_clean_linker_2, # of connection points: 2
#     Edge 56, Type (0, 1), BuildingBlock: XUDNAN_clean_linker_2, # of connection points: 2
#     Edge 57, Type (0, 1), BuildingBlock: XUDNAN_clean_linker_2, # of connection points: 2
#     Edge 58, Type (0, 1), BuildingBlock: XUDNAN_clean_linker_2, # of connection points: 2
#     Edge 59, Type (0, 1), BuildingBlock: XUDNAN_clean_linker_2, # of connection points: 2
#     Edge 60, Type (0, 1), BuildingBlock: XUDNAN_clean_linker_2, # of connection points: 2
#     Edge 61, Type (0, 1), BuildingBlock: XUDNAN_clean_linker_2, # of connection points: 2
# Relax obj value: 0.108
# Max RMSD: 0.228
# Mean RMSD: 0.162
data_MOF--net-ocu--node1-MIFKUJ_clean_sbu_0--node2-GIZVER_clean_sbu_0--edge1-XUDNAN_clean_linker_2
_symmetry_space_group_name_H-M    P1
_symmetry_Int_Tables_number       1
_symmetry_cell_setting            triclinic
loop_
_symmetry_equiv_pos_as_xyz
'x, y, z'
_cell_length_a     42.445113
_cell_length_b     45.457047
_cell_length_c     30.262892
_cell_angle_alpha  91.349158
_cell_angle_beta   94.17993
_cell_angle_gamma 107.64934
loop_
_atom_site_label
_atom_site_type_symbol
_atom_site_fract_x
_atom_site_fract_y
_atom_site_fract_z
_atom_type_partial_charge
Zn0 Zn 0.23342 0.28621 0.2612 0.0
Zn1 Zn 0.28347 0.22311 0.24293 0.0
C2 C 0.1922 0.30164 0.31849 0.0
O3 O 0.17434 0.27531 0.29836 0.0
C4 C 0.28953 0.17257 0.18439 0.0
O5 O 0.27904 0.15425 0.21672 0.0
O6 O 0.20186 0.29099 0.21016 0.0
O7 O 0.27997 0.30773 0.23866 0.0
O8 O 0.30042 0.26924 0.22719 0.0
C9 C 0.20654 0.31962 0.20473 0.0
O10 O 0.23098 0.33983 0.22871 0.0
O11 O 0.22242 0.31265 0.31013 0.0
C12 C 0.31534 0.21468 0.32961 0.0
O13 O 0.29211 0.22402 0.34635 0.0
O14 O 0.31697 0.21412 0.28779 0.0
O15 O 0.23801 0.20259 0.26787 0.0
O16 O 0.21725 0.24079 0.282 0.0
O17 O 0.28961 0.20055 0.18755 0.0
C18 C 0.30242 0.29775 0.2239 0.0
C19 C 0.2163 0.21249 0.28492 0.0
Zn20 Zn 0.74352 0.28616 0.2199 0.0
Zn21 Zn 0.75334 0.22693 0.32176 0.0
C22 C 0.68826 0.29779 0.17811 0.0
O23 O 0.69139 0.27543 0.15232 0.0
C24 C 0.80393 0.20238 0.36021 0.0
O25 O 0.80218 0.21836 0.39618 0.0
O26 O 0.78119 0.30551 0.18603 0.0
O27 O 0.75981 0.2825 0.28196 0.0
O28 O 0.77591 0.27059 0.34631 0.0
C29 C 0.78552 0.33176 0.16996 0.0
O30 O 0.76373 0.34659 0.17485 0.0
O31 O 0.70869 0.30775 0.21198 0.0
C32 C 0.70483 0.17783 0.34401 0.0
O33 O 0.72287 0.16597 0.31989 0.0
O34 O 0.71538 0.20634 0.35544 0.0
O35 O 0.73231 0.2222 0.25785 0.0
O36 O 0.7233 0.24321 0.19553 0.0
O37 O 0.78623 0.20364 0.3251 0.0
C38 C 0.77619 0.29132 0.31907 0.0
C39 C 0.7193 0.21941 0.21806 0.0
Zn40 Zn 0.78807 0.73272 0.24598 0.0
Zn41 Zn 0.72339 0.78378 0.25434 0.0
C42 C 0.82619 0.71947 0.31725 0.0
O43 O 0.8465 0.74441 0.30223 0.0
C44 C 0.68562 0.7892 0.17621 0.0
O45 O 0.66621 0.76353 0.1906 0.0
O46 O 0.81368 0.71753 0.20109 0.0
O47 O 0.73952 0.71562 0.22971 0.0
O48 O 0.70159 0.73802 0.24709 0.0
C49 C 0.80413 0.68812 0.19976 0.0
O50 O 0.77799 0.67379 0.22037 0.0
O51 O 0.79671 0.70929 0.29937 0.0
C52 C 0.68568 0.8029 0.32874 0.0
O53 O 0.68496 0.77954 0.35381 0.0
O54 O 0.69904 0.80503 0.29225 0.0
O55 O 0.77078 0.80049 0.27876 0.0
O56 O 0.80873 0.77732 0.266 0.0
O57 O 0.71437 0.80148 0.19601 0.0
C58 C 0.70974 0.71556 0.23106 0.0
C59 C 0.80054 0.79994 0.2813 0.0
Zn60 Zn 0.22764 0.77495 0.25618 0.0
Zn61 Zn 0.28706 0.74452 0.23796 0.0
C62 C 0.18338 0.72607 0.29382 0.0
O63 O 0.1652 0.7321 0.26031 0.0
C64 C 0.32361 0.79565 0.19948 0.0
O65 O 0.34355 0.7922 0.2329 0.0
O66 O 0.201 0.80537 0.26356 0.0
O67 O 0.27455 0.80103 0.27006 0.0
O68 O 0.29939 0.76876 0.29819 0.0
C69 C 0.19115 0.80828 0.30178 0.0
O70 O 0.19692 0.79092 0.33348 0.0
O71 O 0.2135 0.74265 0.30122 0.0
C72 C 0.31056 0.69966 0.19119 0.0
O73 O 0.28312 0.69662 0.16597 0.0
O74 O 0.31746 0.71835 0.22526 0.0
O75 O 0.2404 0.71707 0.22676 0.0
O76 O 0.21655 0.75 0.19769 0.0
O77 O 0.29514 0.77602 0.1921 0.0
C78 C 0.29378 0.79477 0.29992 0.0
C79 C 0.21776 0.72246 0.20129 0.0
Zn80 Zn 0.24753 0.78113 0.71117 0.0
Zn81 Zn 0.26791 0.71951 0.79127 0.0
C82 C 0.19967 0.80459 0.66823 0.0
O83 O 0.20183 0.78625 0.63514 0.0
C84 C 0.32574 0.70782 0.82422 0.0
O85 O 0.32075 0.72391 0.85819 0.0
O86 O 0.28105 0.79272 0.66804 0.0
O87 O 0.27409 0.79385 0.76855 0.0
O88 O 0.28798 0.76351 0.81661 0.0
C89 C 0.2988 0.82024 0.67748 0.0
O90 O 0.28918 0.83713 0.70631 0.0
O91 O 0.21739 0.80619 0.70426 0.0
C92 C 0.22739 0.66655 0.81893 0.0
O93 O 0.24244 0.65768 0.7871 0.0
O94 O 0.23756 0.69461 0.83328 0.0
O95 O 0.23805 0.70508 0.7341 0.0
O96 O 0.22177 0.73901 0.6949 0.0
O97 O 0.3058 0.70297 0.78961 0.0
C98 C 0.28871 0.79026 0.80488 0.0
C99 C 0.22069 0.71158 0.70211 0.0
Zn100 Zn 0.28787 0.22685 0.7485 0.0
Zn101 Zn 0.23028 0.28104 0.77678 0.0
C102 C 0.32718 0.20947 0.8164 0.0
O103 O 0.34955 0.23069 0.79707 0.0
C104 C 0.19837 0.31099 0.71904 0.0
O105 O 0.17585 0.29623 0.74494 0.0
O106 O 0.30889 0.2081 0.70166 0.0
O107 O 0.23657 0.21609 0.73045 0.0
O108 O 0.2013 0.24062 0.75254 0.0
C109 C 0.29188 0.187 0.67351 0.0
O110 O 0.25936 0.1792 0.67133 0.0
O111 O 0.29669 0.20403 0.80291 0.0
C112 C 0.22664 0.3271 0.83551 0.0
O113 O 0.25209 0.341 0.81337 0.0
O114 O 0.21249 0.29832 0.8278 0.0
O115 O 0.27173 0.27179 0.79458 0.0
O116 O 0.31482 0.27266 0.76109 0.0
O117 O 0.22779 0.30906 0.7252 0.0
C118 C 0.20728 0.21866 0.73108 0.0
C119 C 0.30002 0.28711 0.78404 0.0
Zn120 Zn 0.73026 0.26657 0.78271 0.0
Zn121 Zn 0.7919 0.23426 0.73323 0.0
C122 C 0.72516 0.21044 0.83159 0.0
O123 O 0.73513 0.19973 0.79629 0.0
C124 C 0.84761 0.2728 0.69601 0.0
O125 O 0.86125 0.25358 0.71543 0.0
O126 O 0.70891 0.29972 0.79857 0.0
O127 O 0.77908 0.28671 0.7779 0.0
O128 O 0.80181 0.2509 0.79705 0.0
C129 C 0.70239 0.30398 0.83828 0.0
O130 O 0.71027 0.28722 0.86944 0.0
O131 O 0.72351 0.23786 0.83277 0.0
C132 C 0.79886 0.18558 0.67931 0.0
O133 O 0.77761 0.19545 0.6549 0.0
O134 O 0.80941 0.1983 0.7178 0.0
O135 O 0.74464 0.22233 0.70815 0.0
O136 O 0.7051 0.24103 0.72862 0.0
O137 O 0.81699 0.26921 0.69876 0.0
C138 C 0.7979 0.27719 0.80466 0.0
C139 C 0.71514 0.22345 0.70369 0.0
Zn140 Zn 0.72738 0.77897 0.75061 0.0
Zn141 Zn 0.79163 0.72624 0.74853 0.0
C142 C 0.70301 0.80742 0.82234 0.0
O143 O 0.68138 0.77977 0.82269 0.0
C144 C 0.80695 0.69007 0.67133 0.0
O145 O 0.8165 0.7154 0.64935 0.0
O146 O 0.69634 0.78696 0.70079 0.0
O147 O 0.77369 0.79345 0.72535 0.0
O148 O 0.81066 0.76866 0.7189 0.0
C149 C 0.70751 0.81514 0.691 0.0
O150 O 0.7345 0.83295 0.71317 0.0
O151 O 0.72657 0.81172 0.79719 0.0
C152 C 0.82056 0.71396 0.83335 0.0
O153 O 0.79347 0.71703 0.84837 0.0
O154 O 0.8273 0.72263 0.79469 0.0
O155 O 0.74546 0.71047 0.77688 0.0
O156 O 0.70762 0.73527 0.77651 0.0
O157 O 0.7941 0.69072 0.70796 0.0
C158 C 0.80173 0.79284 0.71322 0.0
C159 C 0.71692 0.71179 0.78642 0.0
Co160 Co 0.04852 0.9538 0.48418 0.0
Co161 Co 0.04384 0.96705 0.56146 0.0
Co162 Co 0.00839 0.00589 0.50076 0.0
O163 O 0.04739 0.99099 0.51426 0.0
H164 H 0.0683 0.00736 0.51631 0.0
O165 O 0.96921 0.01992 0.4853 0.0
Co166 Co 0.96506 0.05592 0.5133 0.0
Co167 Co 0.97184 0.04097 0.43426 0.0
H168 H 0.94877 1.00299 0.48357 0.0
O169 O 0.07995 0.97261 0.59771 0.0
O170 O 0.05822 0.9358 0.54144 0.0
O171 O 1.0017 0.94917 0.58302 0.0
O172 O 0.97586 0.97617 0.54175 0.0
O173 O 0.02616 0.03842 0.55026 0.0
O174 O 0.95812 0.08787 0.54117 0.0
O175 O 0.92064 0.04251 0.51729 0.0
O176 O 0.01087 0.07413 0.51404 0.0
O177 O 0.04051 0.0363 0.46115 0.0
O178 O 0.01405 0.05649 0.40966 0.0
O179 O 0.95864 0.07357 0.45461 0.0
O180 O 0.93395 0.03671 0.40027 0.0
C181 C 0.08272 0.93814 0.45434 0.0
C182 C 0.98383 0.94543 0.46055 0.0
C183 C 0.97545 0.95521 0.57031 0.0
C184 C 0.07841 0.94671 0.577 0.0
C185 C 0.9278 0.06951 0.53825 0.0
C186 C 0.02957 0.06684 0.54365 0.0
C187 C 0.04073 0.05362 0.42776 0.0
C188 C 0.9357 0.06223 0.42213 0.0
O189 O 0.05216 0.92105 0.45526 0.0
O190 O 0.09245 0.96572 0.47415 0.0
O191 O 0.99097 0.97378 0.45137 0.0
O192 O 1.0028 0.93655 0.4879 0.0
Co193 Co 0.54972 0.95263 0.97445 0.0
Co194 Co 0.54516 0.96521 0.05765 0.0
Co195 Co 0.50966 0.00549 0.99906 0.0
O196 O 0.54746 0.98818 0.00752 0.0
H197 H 0.56849 0.00438 0.0098 0.0
O198 O 0.47187 0.02313 0.99148 0.0
Co199 Co 0.47242 0.06039 0.02403 0.0
Co200 Co 0.47452 0.04559 0.94056 0.0
H201 H 0.45054 0.00741 0.99049 0.0
O202 O 0.58216 0.95806 0.08634 0.0
O203 O 0.54828 0.92935 0.03001 0.0
O204 O 0.50403 0.95546 0.08556 0.0
O205 O 0.47777 0.97214 0.02977 0.0
O206 O 0.52643 0.03032 0.05572 0.0
O207 O 0.46979 0.09346 0.05299 0.0
O208 O 0.42754 0.05259 0.0249 0.0
O209 O 0.51962 0.07341 0.03026 0.0
O210 O 0.54166 0.03916 0.96825 0.0
O211 O 0.51595 0.05766 0.91396 0.0
O212 O 0.47051 0.0813 0.96684 0.0
O213 O 0.43623 0.0498 0.91289 0.0
C214 C 0.58728 0.93769 0.95313 0.0
C215 C 0.48493 0.95081 0.94173 0.0
C216 C 0.47765 0.95705 0.06463 0.0
C217 C 0.57244 0.93301 0.06092 0.0
C218 C 0.43813 0.07997 0.04521 0.0
C219 C 0.53478 0.05974 0.05667 0.0
C220 C 0.54218 0.05573 0.93481 0.0
C221 C 0.4442 0.07465 0.93865 0.0
O222 O 0.55641 0.92131 0.94399 0.0
O223 O 0.59457 0.9633 0.9775 0.0
O224 O 0.49268 0.98027 0.94251 0.0
O225 O 0.50266 0.93749 0.96446 0.0
Co226 Co 0.04564 0.45175 0.97433 0.0
Co227 Co 0.05498 0.47616 0.05375 0.0
Co228 Co 1.00301 0.50258 0.99857 0.0
O229 O 0.04394 0.48971 0.99961 0.0
H230 H 0.06267 0.50662 0.99235 0.0
O231 O 0.96333 0.51695 0.99769 0.0
Co232 Co 0.96517 0.55746 0.02087 0.0
Co233 Co 0.95483 0.53097 0.9428 0.0
H234 H 0.94403 0.50095 0.00567 0.0
O235 O 0.09637 0.47312 0.07279 0.0
O236 O 0.05453 0.43701 0.03394 0.0
O237 O 0.02278 0.47092 0.09558 0.0
O238 O 0.98273 0.47446 0.04574 0.0
O239 O 0.02605 0.53479 0.04418 0.0
O240 O 0.96248 0.5929 0.04424 0.0
O241 O 0.92259 0.5468 0.03354 0.0
O242 O 0.01215 0.57373 0.01469 0.0
O243 O 0.02419 0.53088 0.95248 0.0
O244 O 0.98712 0.53588 0.89992 0.0
O245 O 0.95264 0.56971 0.95993 0.0
O246 O 0.91298 0.52933 0.92411 0.0
C247 C 0.08227 0.4368 0.95079 0.0
C248 C 0.97571 0.44085 0.96062 0.0
C249 C 0.99255 0.4669 0.08342 0.0
C250 C 0.08292 0.44477 0.05752 0.0
C251 C 0.93251 0.57543 0.04908 0.0
C252 C 0.03137 0.56362 0.04043 0.0
C253 C 0.01681 0.5396 0.91458 0.0
C254 C 0.92369 0.55835 0.93735 0.0
O255 O 0.05197 0.4183 0.94934 0.0
O256 O 0.08904 0.46507 0.96699 0.0
O257 O 0.97858 0.46903 0.9532 0.0
O258 O 0.99989 0.43312 0.97847 0.0
Co259 Co 0.53953 0.4479 0.9808 0.0
Co260 Co 0.54083 0.46801 0.06258 0.0
Co261 Co 0.50504 0.50439 1.001 0.0
O262 O 0.54152 0.48616 0.00895 0.0
H263 H 0.56294 0.50143 0.00762 0.0
O264 O 0.46892 0.52369 0.99376 0.0
Co265 Co 0.47447 0.56393 0.02084 0.0
Co266 Co 0.47307 0.54367 0.94189 0.0
H267 H 0.44705 0.50917 0.99503 0.0
O268 O 0.57845 0.46181 0.08909 0.0
O269 O 0.54016 0.42968 0.03976 0.0
O270 O 0.50219 0.46179 0.09536 0.0
O271 O 0.47232 0.4712 0.03719 0.0
O272 O 0.52393 0.53106 0.05489 0.0
O273 O 0.47694 0.5995 0.04709 0.0
O274 O 0.43059 0.56016 0.02779 0.0
O275 O 0.52129 0.5733 0.0221 0.0
O276 O 0.53899 0.53673 0.96511 0.0
O277 O 0.51212 0.55175 0.90919 0.0
O278 O 0.47037 0.5813 0.9606 0.0
O279 O 0.436 0.54347 0.91221 0.0
C280 C 0.57363 0.42899 0.95855 0.0
C281 C 0.4766 0.448 0.94891 0.0
C282 C 0.47415 0.45858 0.07486 0.0
C283 C 0.56607 0.43502 0.06814 0.0
C284 C 0.44518 0.58717 0.04821 0.0
C285 C 0.53421 0.56027 0.0522 0.0
C286 C 0.53924 0.55166 0.92922 0.0
C287 C 0.44685 0.57199 0.92793 0.0
O288 O 0.54223 0.41348 0.9541 0.0
O289 O 0.58374 0.45596 0.9797 0.0
O290 O 0.48549 0.47732 0.9466 0.0
O291 O 0.49243 0.43514 0.97551 0.0
Co292 Co 0.0666 0.46601 0.5164 0.0
Co293 Co 0.05418 0.47474 0.43497 0.0
Co294 Co 0.00683 0.50224 0.49282 0.0
O295 O 0.02749 0.46872 0.48086 0.0
H296 H 0.01084 0.44874 0.47626 0.0
O297 O 0.98602 0.53547 0.50644 0.0
Co298 Co 0.94761 0.54035 0.4737 0.0
Co299 Co 0.95797 0.52722 0.55071 0.0
H300 H 1.00251 0.55533 0.51247 0.0
O301 O 0.05438 0.44111 0.40185 0.0
O302 O 0.0899 0.46445 0.4612 0.0
O303 O 0.06672 0.51496 0.41273 0.0
O304 O 0.03713 0.53461 0.4569 0.0
O305 O 0.97429 0.48617 0.43995 0.0
O306 O 0.91415 0.54838 0.44241 0.0
O307 O 0.95992 0.58207 0.47751 0.0
O308 O 0.93025 0.49696 0.46412 0.0
O309 O 0.9779 0.46999 0.52881 0.0
O310 O 0.94435 0.48598 0.57003 0.0
O311 O 0.92267 0.5393 0.52879 0.0
O312 O 0.95883 0.5581 0.58956 0.0
C313 C 0.08352 0.43148 0.54302 0.0
C314 C 0.06991 0.52596 0.54415 0.0
C315 C 0.05797 0.53734 0.42748 0.0
C316 C 0.08016 0.44298 0.42906 0.0
C317 C 0.9318 0.57676 0.4533 0.0
C318 C 0.94296 0.48089 0.44015 0.0
C319 C 0.95576 0.46505 0.55636 0.0
C320 C 0.93133 0.55629 0.56603 0.0
O321 O 0.10044 0.46047 0.54959 0.0
O322 O 0.05547 0.42384 0.51797 0.0
O323 O 0.0386 0.51809 0.54566 0.0
O324 O 0.08362 0.50983 0.5219 0.0
Co325 Co 0.57184 0.97759 0.52051 0.0
Co326 Co 0.53151 0.96379 0.44923 0.0
Co327 Co 0.50494 0.00534 0.51609 0.0
O328 O 0.52591 0.97243 0.50748 0.0
H329 H 0.51278 0.95344 0.51922 0.0
O330 O 0.48392 0.03883 0.52599 0.0
Co331 Co 0.44963 0.04693 0.4865 0.0
Co332 Co 0.45139 0.02814 0.56418 0.0
H333 H 0.50036 0.058 0.53651 0.0
O334 O 0.53463 0.92542 0.43072 0.0
O335 O 0.57626 0.96744 0.4572 0.0
O336 O 0.52609 0.99365 0.40766 0.0
O337 O 0.5176 0.0255 0.45946 0.0
O338 O 0.46421 0.97587 0.48496 0.0
O339 O 0.42071 0.05853 0.45101 0.0
O340 O 0.46204 0.08841 0.4985 0.0
O341 O 0.4314 0.00472 0.46888 0.0
O342 O 0.49283 0.98615 0.57346 0.0
O343 O 0.44085 0.98583 0.5802 0.0
O344 O 0.41834 0.03978 0.53418 0.0
O345 O 0.44497 0.05808 0.60136 0.0
C346 C 0.59823 0.94876 0.54152 0.0
C347 C 0.57503 0.04004 0.5334 0.0
C348 C 0.52296 0.01947 0.41984 0.0
C349 C 0.56612 0.93962 0.43883 0.0
C350 C 0.43728 0.08564 0.46876 0.0
C351 C 0.43707 0.97887 0.46844 0.0
C352 C 0.46385 0.97337 0.58504 0.0
C353 C 0.42178 0.0572 0.57028 0.0
O354 O 0.61345 0.9776 0.5345 0.0
O355 O 0.56605 0.93809 0.53454 0.0
O356 O 0.54625 0.0334 0.54723 0.0
O357 O 0.58379 0.02092 0.50943 0.0
H358 H 0.1751 0.15163 0.26547 0.0
H359 H 0.20059 0.22554 0.36729 0.0
H360 H 0.16286 0.19138 0.41629 0.0
H361 H 0.08719 0.12512 0.28485 0.0
H362 H 0.08249 0.08488 0.27315 0.0
H363 H 0.11328 0.11426 0.24729 0.0
H364 H 0.15861 0.09115 0.27828 0.0
H365 H 0.12797 0.06193 0.30473 0.0
H366 H 0.16395 0.0867 0.33713 0.0
H367 H 0.12418 0.1477 0.45665 0.0
H368 H 0.07967 0.10274 0.479 0.0
H369 H 0.07202 0.05866 0.34853 0.0
C370 C 0.17273 0.16057 0.29812 0.0
C371 C 0.19135 0.19145 0.31255 0.0
C372 C 0.18687 0.20219 0.3553 0.0
C373 C 0.16556 0.18278 0.38358 0.0
C374 C 0.14784 0.15252 0.36865 0.0
C375 C 0.15045 0.14171 0.32641 0.0
C376 C 0.12638 0.10905 0.3174 0.0
C377 C 0.10082 0.10829 0.27835 0.0
C378 C 0.14537 0.08583 0.30887 0.0
C379 C 0.10996 0.10319 0.36105 0.0
C380 C 0.12349 0.12831 0.39057 0.0
C381 C 0.11334 0.12808 0.43353 0.0
C382 C 0.08817 0.10217 0.44621 0.0
C383 C 0.07247 0.07673 0.41604 0.0
C384 C 0.08377 0.0774 0.37276 0.0
H385 H 0.84628 0.1937 0.42861 0.0
H386 H 0.80542 0.16138 0.294 0.0
H387 H 0.83436 0.12208 0.29642 0.0
H388 H 0.92711 0.18331 0.41663 0.0
H389 H 0.93119 0.17083 0.47227 0.0
H390 H 0.90756 0.197 0.46024 0.0
H391 H 0.8563 0.15908 0.49235 0.0
H392 H 0.88047 0.13347 0.50468 0.0
H393 H 0.84155 0.11945 0.47115 0.0
H394 H 0.86439 0.08488 0.31372 0.0
H395 H 0.89906 0.05401 0.34275 0.0
H396 H 0.9231 0.11101 0.4653 0.0
C397 C 0.84362 0.17847 0.3996 0.0
C398 C 0.82347 0.18053 0.3612 0.0
C399 C 0.82068 0.16027 0.32381 0.0
C400 C 0.83693 0.13777 0.32486 0.0
C401 C 0.85606 0.13599 0.36336 0.0
C402 C 0.85991 0.15593 0.39991 0.0
C403 C 0.88246 0.14905 0.43679 0.0
C404 C 0.91395 0.1767 0.44706 0.0
C405 C 0.86406 0.13969 0.47869 0.0
C406 C 0.89027 0.12195 0.41518 0.0
C407 C 0.87452 0.11478 0.37298 0.0
C408 C 0.87712 0.09034 0.34658 0.0
C409 C 0.89677 0.07287 0.3635 0.0
C410 C 0.91386 0.08015 0.40625 0.0
C411 C 0.91044 0.10498 0.43245 0.0
H412 H 0.8421 0.859 0.27276 0.0
H413 H 0.81134 0.78617 0.36492 0.0
H414 H 0.85131 0.81821 0.42357 0.0
H415 H 0.92743 0.88015 0.30739 0.0
H416 H 0.93544 0.92106 0.30135 0.0
H417 H 0.902 0.89392 0.26777 0.0
H418 H 0.86069 0.92052 0.296 0.0
H419 H 0.89408 0.94773 0.3298 0.0
H420 H 0.85788 0.92491 0.35481 0.0
H421 H 0.89725 0.85483 0.46927 0.0
H422 H 0.94793 0.89473 0.50032 0.0
H423 H 0.94922 0.94552 0.38048 0.0
C424 C 0.84363 0.85023 0.30555 0.0
C425 C 0.82383 0.82044 0.31493 0.0
C426 C 0.82646 0.80914 0.35768 0.0
C427 C 0.84889 0.82716 0.39109 0.0
C428 C 0.86839 0.85641 0.38106 0.0
C429 C 0.86609 0.86801 0.33947 0.0
C430 C 0.89178 0.89934 0.33698 0.0
C431 C 0.91557 0.89855 0.30126 0.0
C432 C 0.8751 0.92462 0.32893 0.0
C433 C 0.90926 0.90305 0.38323 0.0
C434 C 0.89511 0.87804 0.40808 0.0
C435 C 0.90829 0.87479 0.45048 0.0
C436 C 0.93711 0.89749 0.46777 0.0
C437 C 0.95218 0.92321 0.44287 0.0
C438 C 0.93774 0.92632 0.40043 0.0
H439 H 0.13856 0.8017 0.35009 0.0
H440 H 0.21074 0.86923 0.28082 0.0
H441 H 0.19171 0.91107 0.31308 0.0
H442 H 0.07273 0.84022 0.33753 0.0
H443 H 0.05888 0.82849 0.39111 0.0
H444 H 0.0767 0.80471 0.3589 0.0
H445 H 0.11898 0.80666 0.42532 0.0
H446 H 0.10288 0.83176 0.45739 0.0
H447 H 0.14626 0.84342 0.44744 0.0
H448 H 0.1679 0.94594 0.36065 0.0
H449 H 0.13621 0.96935 0.40922 0.0
H450 H 0.07912 0.87775 0.44416 0.0
C451 C 0.14974 0.82524 0.34083 0.0
C452 C 0.1759 0.83238 0.31289 0.0
C453 C 0.19026 0.86336 0.30169 0.0
C454 C 0.1798 0.88723 0.32018 0.0
C455 C 0.15456 0.87949 0.349 0.0
C456 C 0.13913 0.84906 0.35812 0.0
C457 C 0.1129 0.84651 0.39023 0.0
C458 C 0.07825 0.82896 0.36811 0.0
C459 C 0.12075 0.8312 0.43264 0.0
C460 C 0.11659 0.88033 0.39911 0.0
C461 C 0.14072 0.89914 0.3752 0.0
C462 C 0.14873 0.93135 0.37911 0.0
C463 C 0.1309 0.94449 0.40709 0.0
C464 C 0.10523 0.92539 0.43033 0.0
C465 C 0.0985 0.89297 0.4266 0.0
H466 H 0.16518 0.81436 0.59254 0.0
H467 H 0.18682 0.84052 0.7332 0.0
H468 H 0.15589 0.87804 0.72491 0.0
H469 H 0.17543 0.88879 0.55611 0.0
H470 H 0.14187 0.87815 0.51305 0.0
H471 H 0.16285 0.85062 0.52966 0.0
H472 H 0.10702 0.81164 0.54509 0.0
H473 H 0.08492 0.83865 0.53017 0.0
H474 H 0.0815 0.82223 0.5838 0.0
H475 H 0.12859 0.9159 0.70119 0.0
H476 H 0.10119 0.95006 0.66375 0.0
H477 H 0.09538 0.89911 0.5385 0.0
C478 C 0.16289 0.8276 0.62169 0.0
C479 C 0.17848 0.82468 0.66343 0.0
C480 C 0.17519 0.84253 0.70082 0.0
C481 C 0.15762 0.86384 0.69654 0.0
C482 C 0.14334 0.8668 0.65479 0.0
C483 C 0.14534 0.84902 0.61806 0.0
C484 C 0.12878 0.85795 0.57674 0.0
C485 C 0.15372 0.86955 0.54181 0.0
C486 C 0.09879 0.831 0.55783 0.0
C487 C 0.11798 0.88397 0.596 0.0
C488 C 0.12669 0.8886 0.64107 0.0
C489 C 0.12118 0.91233 0.66601 0.0
C490 C 0.1059 0.93175 0.64433 0.0
C491 C 0.09621 0.92713 0.59829 0.0
C492 C 0.10231 0.90293 0.57382 0.0
H493 H 0.19329 0.15642 0.7039 0.0
H494 H 0.15888 0.23682 0.68929 0.0
H495 H 0.11165 0.20649 0.63959 0.0
H496 H 0.16757 0.12463 0.58922 0.0
H497 H 0.15404 0.08499 0.60473 0.0
H498 H 0.18693 0.11312 0.63802 0.0
H499 H 0.15396 0.09899 0.70726 0.0
H500 H 0.12091 0.071 0.6741 0.0
H501 H 0.1122 0.10119 0.706 0.0
H502 H 0.06833 0.16952 0.59383 0.0
H503 H 0.02827 0.1256 0.55248 0.0
H504 H 0.08673 0.06603 0.59508 0.0
C505 C 0.17583 0.16749 0.68994 0.0
C506 C 0.17962 0.19893 0.70088 0.0
C507 C 0.15625 0.21268 0.6821 0.0
C508 C 0.12938 0.19572 0.65352 0.0
C509 C 0.12592 0.16484 0.64396 0.0
C510 C 0.14822 0.15059 0.66137 0.0
C511 C 0.13726 0.11657 0.64601 0.0
C512 C 0.16298 0.10941 0.61782 0.0
C513 C 0.13069 0.09571 0.68572 0.0
C514 C 0.10521 0.1142 0.61796 0.0
C515 C 0.0997 0.14261 0.61721 0.0
C516 C 0.07226 0.14709 0.59398 0.0
C517 C 0.04961 0.12187 0.57054 0.0
C518 C 0.05423 0.09227 0.57051 0.0
C519 C 0.08242 0.08832 0.59476 0.0
H520 H 0.86127 0.17898 0.69236 0.0
H521 H 0.76476 0.13888 0.62064 0.0
H522 H 0.78615 0.10197 0.58064 0.0
H523 H 0.90721 0.17708 0.601 0.0
H524 H 0.94079 0.16803 0.63179 0.0
H525 H 0.91697 0.18861 0.65906 0.0
H526 H 0.90353 0.14687 0.71767 0.0
H527 H 0.92737 0.12618 0.69047 0.0
H528 H 0.88472 0.10686 0.6997 0.0
H529 H 0.81857 0.07106 0.54542 0.0
H530 H 0.86075 0.05059 0.51485 0.0
H531 H 0.93682 0.11271 0.60605 0.0
C532 C 0.84448 0.16181 0.66917 0.0
C533 C 0.81121 0.16137 0.66011 0.0
C534 C 0.79025 0.13936 0.62836 0.0
C535 C 0.80215 0.11827 0.60552 0.0
C536 C 0.83521 0.11961 0.61446 0.0
C537 C 0.85616 0.14088 0.64541 0.0
C538 C 0.8913 0.13915 0.64591 0.0
C539 C 0.91547 0.17006 0.6337 0.0
C540 C 0.90237 0.12916 0.69113 0.0
C541 C 0.88688 0.1141 0.6099 0.0
C542 C 0.85423 0.10271 0.59276 0.0
C543 C 0.8442 0.07965 0.55881 0.0
C544 C 0.86826 0.06812 0.54167 0.0
C545 C 0.90197 0.08006 0.55802 0.0
C546 C 0.91121 0.10321 0.59274 0.0
H547 H 0.85967 0.79897 0.66963 0.0
H548 H 0.79539 0.85135 0.70854 0.0
H549 H 0.82938 0.89679 0.67266 0.0
H550 H 0.93599 0.86077 0.6894 0.0
H551 H 0.95475 0.85023 0.64241 0.0
H552 H 0.92396 0.82109 0.66859 0.0
H553 H 0.88911 0.80553 0.59309 0.0
H554 H 0.91976 0.83483 0.56677 0.0
H555 H 0.8771 0.83449 0.56242 0.0
H556 H 0.87168 0.93818 0.63041 0.0
H557 H 0.92005 0.97096 0.59401 0.0
H558 H 0.95918 0.89347 0.58734 0.0
C559 C 0.85258 0.81992 0.67055 0.0
C560 C 0.82385 0.82078 0.69158 0.0
C561 C 0.81625 0.84918 0.6919 0.0
C562 C 0.83575 0.87548 0.67164 0.0
C563 C 0.86351 0.87374 0.6509 0.0
C564 C 0.87207 0.84667 0.65056 0.0
C565 C 0.90385 0.85126 0.62737 0.0
C566 C 0.93126 0.8455 0.65883 0.0
C567 C 0.89705 0.83027 0.58491 0.0
C568 C 0.91234 0.88521 0.61608 0.0
C569 C 0.88837 0.89768 0.62887 0.0
C570 C 0.89061 0.92851 0.62057 0.0
C571 C 0.91817 0.94706 0.59958 0.0
C572 C 0.94381 0.93517 0.58781 0.0
C573 C 0.94031 0.9036 0.59611 0.0
H574 H 0.28592 0.11393 0.15296 0.0
H575 H 0.33909 0.21116 0.14238 0.0
H576 H 0.37912 0.19723 0.0981 0.0
H577 H 0.35106 0.08597 0.16675 0.0
H578 H 0.3349 0.05135 0.13138 0.0
H579 H 0.30686 0.06829 0.15617 0.0
H580 H 0.27842 0.07188 0.07862 0.0
H581 H 0.30616 0.05447 0.05353 0.0
H582 H 0.30325 0.0912 0.03584 0.0
H583 H 0.41813 0.17382 0.06693 0.0
H584 H 0.45216 0.14186 0.04457 0.0
H585 H 0.37348 0.05878 0.06948 0.0
C586 C 0.30541 0.13221 0.14009 0.0
C587 C 0.30925 0.16363 0.15102 0.0
C588 C 0.33528 0.18696 0.13401 0.0
C589 C 0.35825 0.17929 0.10883 0.0
C590 C 0.35438 0.14819 0.09968 0.0
C591 C 0.3282 0.12494 0.11369 0.0
C592 C 0.33093 0.09335 0.10058 0.0
C593 C 0.33096 0.0736 0.14115 0.0
C594 C 0.30302 0.07674 0.06504 0.0
C595 C 0.3643 0.10258 0.08101 0.0
C596 C 0.37687 0.13439 0.07999 0.0
C597 C 0.40827 0.14888 0.06665 0.0
C598 C 0.42753 0.13048 0.05439 0.0
C599 C 0.41547 0.09784 0.05544 0.0
C600 C 0.3831 0.08365 0.06795 0.0
H601 H 0.81155 0.39319 0.15502 0.0
H602 H 0.83232 0.30528 0.14944 0.0
H603 H 0.8898 0.33208 0.13401 0.0
H604 H 0.86086 0.42702 0.06606 0.0
H605 H 0.87465 0.46513 0.09284 0.0
H606 H 0.83504 0.43871 0.10322 0.0
H607 H 0.85293 0.44566 0.18765 0.0
H608 H 0.89302 0.47137 0.17734 0.0
H609 H 0.89009 0.43738 0.2083 0.0
H610 H 0.94493 0.36769 0.12392 0.0
H611 H 0.99295 0.40994 0.10365 0.0
H612 H 0.936 0.47432 0.11142 0.0
C613 C 0.82805 0.37956 0.14987 0.0
C614 C 0.81775 0.34729 0.15383 0.0
C615 C 0.83996 0.33015 0.14696 0.0
C616 C 0.87264 0.34511 0.13849 0.0
C617 C 0.88247 0.37708 0.13686 0.0
C618 C 0.86078 0.3941 0.14124 0.0
C619 C 0.87764 0.42816 0.13659 0.0
C620 C 0.86107 0.44046 0.09732 0.0
C621 C 0.87846 0.44673 0.18006 0.0
C622 C 0.91194 0.42738 0.12774 0.0
C623 C 0.91437 0.39777 0.12946 0.0
C624 C 0.94351 0.39103 0.12254 0.0
C625 C 0.97065 0.41512 0.11164 0.0
C626 C 0.96787 0.44509 0.10689 0.0
C627 C 0.93853 0.45153 0.11579 0.0
H628 H 0.69351 0.85074 0.18415 0.0
H629 H 0.64135 0.76751 0.10422 0.0
H630 H 0.60807 0.79598 0.06316 0.0
H631 H 0.62238 0.87325 0.19698 0.0
H632 H 0.64326 0.91415 0.19648 0.0
H633 H 0.6658 0.88845 0.21547 0.0
H634 H 0.70864 0.90841 0.15778 0.0
H635 H 0.68657 0.93456 0.13897 0.0
H636 H 0.69448 0.90755 0.09998 0.0
H637 H 0.5768 0.83232 0.0364 0.0
H638 H 0.55249 0.87448 0.02206 0.0
H639 H 0.6249 0.93382 0.12043 0.0
C640 C 0.67596 0.83887 0.15686 0.0
C641 C 0.67052 0.80722 0.14636 0.0
C642 C 0.6462 0.79194 0.11203 0.0
C643 C 0.6271 0.80787 0.0888 0.0
C644 C 0.6323 0.83888 0.10096 0.0
C645 C 0.65626 0.85424 0.13404 0.0
C646 C 0.65517 0.8868 0.14319 0.0
C647 C 0.64612 0.89089 0.19084 0.0
C648 C 0.68818 0.91075 0.13443 0.0
C649 C 0.62736 0.88766 0.1094 0.0
C650 C 0.61421 0.85968 0.08577 0.0
C651 C 0.58717 0.85444 0.05435 0.0
C652 C 0.57356 0.87857 0.04639 0.0
C653 C 0.58716 0.90771 0.0694 0.0
C654 C 0.61427 0.91206 0.10158 0.0
H655 H 0.16938 0.72112 0.13394 0.0
H656 H 0.20315 0.66355 0.22726 0.0
H657 H 0.15808 0.61829 0.19737 0.0
H658 H 0.08034 0.68084 0.13648 0.0
H659 H 0.07103 0.68409 0.07806 0.0
H660 H 0.1051 0.71309 0.10806 0.0
H661 H 0.14496 0.70408 0.05218 0.0
H662 H 0.11119 0.6749 0.0221 0.0
H663 H 0.14788 0.66573 0.04281 0.0
H664 H 0.11234 0.57935 0.1575 0.0
H665 H 0.06615 0.54683 0.10848 0.0
H666 H 0.0596 0.62751 0.03821 0.0
C667 C 0.16707 0.69899 0.14812 0.0
C668 C 0.18996 0.69588 0.18271 0.0
C669 C 0.18624 0.66654 0.20041 0.0
C670 C 0.16058 0.64064 0.18385 0.0
C671 C 0.13878 0.64434 0.1495 0.0
C672 C 0.1415 0.67259 0.13169 0.0
C673 C 0.11496 0.6694 0.09378 0.0
C674 C 0.09146 0.68796 0.10477 0.0
C675 C 0.13069 0.67909 0.05012 0.0
C676 C 0.0974 0.63485 0.09287 0.0
C677 C 0.11168 0.62118 0.12569 0.0
C678 C 0.10078 0.58968 0.13172 0.0
C679 C 0.07448 0.57141 0.10341 0.0
C680 C 0.05911 0.58456 0.06928 0.0
C681 C 0.0707 0.61683 0.06406 0.0
H682 H 0.34454 0.79389 0.85946 0.0
H683 H 0.28745 0.84987 0.80068 0.0
H684 H 0.33146 0.89721 0.82894 0.0
H685 H 0.37957 0.84338 0.9589 0.0
H686 H 0.41929 0.83675 0.95796 0.0
H687 H 0.3822 0.80739 0.93564 0.0
H688 H 0.40816 0.80678 0.86075 0.0
H689 H 0.44515 0.8364 0.88266 0.0
H690 H 0.42266 0.84225 0.83249 0.0
H691 H 0.38289 0.93863 0.86117 0.0
H692 H 0.4369 0.97077 0.89723 0.0
H693 H 0.46067 0.88756 0.93339 0.0
C694 C 0.34081 0.81606 0.85366 0.0
C695 C 0.31225 0.81813 0.82845 0.0
C696 C 0.30894 0.84769 0.82032 0.0
C697 C 0.33387 0.87474 0.83607 0.0
C698 C 0.36206 0.87189 0.85985 0.0
C699 C 0.3656 0.84332 0.86881 0.0
C700 C 0.39898 0.84665 0.89336 0.0
C701 C 0.39474 0.83272 0.93919 0.0
C702 C 0.41997 0.83216 0.86565 0.0
C703 C 0.41343 0.88151 0.89737 0.0
C704 C 0.39185 0.89569 0.87765 0.0
C705 C 0.39995 0.92777 0.87687 0.0
C706 C 0.43075 0.94584 0.89732 0.0
C707 C 0.4531 0.93176 0.91823 0.0
C708 C 0.44421 0.89913 0.91782 0.0
H709 H 0.16219 0.31273 0.85687 0.0
H710 H 0.25726 0.38456 0.87305 0.0
H711 H 0.23091 0.41974 0.90775 0.0
H712 H 0.11551 0.36054 0.82492 0.0
H713 H 0.07963 0.34137 0.8535 0.0
H714 H 0.1063 0.32008 0.83565 0.0
H715 H 0.11511 0.30385 0.91606 0.0
H716 H 0.08798 0.32468 0.93409 0.0
H717 H 0.1294 0.33314 0.96045 0.0
H718 H 0.19379 0.44855 0.93397 0.0
H719 H 0.14843 0.46858 0.95337 0.0
H720 H 0.07716 0.37838 0.91885 0.0
C721 C 0.17761 0.33553 0.869 0.0
C722 C 0.2118 0.3459 0.86267 0.0
C723 C 0.23104 0.37617 0.87779 0.0
C724 C 0.21631 0.3963 0.89753 0.0
C725 C 0.18234 0.38577 0.90189 0.0
C726 C 0.16323 0.35602 0.88849 0.0
C727 C 0.12687 0.35126 0.89416 0.0
C728 C 0.10586 0.34283 0.84939 0.0
C729 C 0.1141 0.32678 0.92822 0.0
C730 C 0.12851 0.38317 0.91185 0.0
C731 C 0.16076 0.40262 0.9164 0.0
C732 C 0.16844 0.43347 0.93097 0.0
C733 C 0.14248 0.44467 0.94167 0.0
C734 C 0.10924 0.4251 0.9375 0.0
C735 C 0.1023 0.39396 0.92231 0.0
H736 H 0.70452 0.14717 0.82557 0.0
H737 H 0.70514 0.22588 0.91005 0.0
H738 H 0.66301 0.19182 0.95298 0.0
H739 H 0.6245 0.11442 0.8116 0.0
H740 H 0.62241 0.07432 0.81481 0.0
H741 H 0.65931 0.10187 0.79843 0.0
H742 H 0.69525 0.08709 0.86142 0.0
H743 H 0.65869 0.05845 0.87749 0.0
H744 H 0.684 0.08748 0.91767 0.0
H745 H 0.61241 0.15378 0.97307 0.0
H746 H 0.56067 0.11111 0.97759 0.0
H747 H 0.59228 0.05563 0.8822 0.0
C748 C 0.69698 0.15695 0.85443 0.0
C749 C 0.70794 0.18915 0.86434 0.0
C750 C 0.69701 0.20127 0.9018 0.0
C751 C 0.67312 0.18208 0.92649 0.0
C752 C 0.66097 0.15078 0.91385 0.0
C753 C 0.67315 0.13801 0.87957 0.0
C754 C 0.65309 0.10439 0.86959 0.0
C755 C 0.63898 0.09845 0.82073 0.0
C756 C 0.674 0.08309 0.88231 0.0
C757 C 0.62595 0.10127 0.90056 0.0
C758 C 0.63153 0.12813 0.92651 0.0
C759 C 0.60837 0.13222 0.95434 0.0
C760 C 0.57898 0.10807 0.95628 0.0
C761 C 0.57299 0.08037 0.93038 0.0
C762 C 0.59674 0.07668 0.90246 0.0
H763 H 0.88185 0.71462 0.87329 0.0
H764 H 0.78409 0.65461 0.82568 0.0
H765 H 0.80041 0.60901 0.84729 0.0
H766 H 0.92773 0.66231 0.83977 0.0
H767 H 0.95688 0.67187 0.88823 0.0
H768 H 0.93825 0.70004 0.8673 0.0
H769 H 0.91871 0.70587 0.9442 0.0
H770 H 0.93498 0.67635 0.96605 0.0
H771 H 0.89175 0.67295 0.96846 0.0
H772 H 0.82581 0.57046 0.87339 0.0
H773 H 0.85956 0.53921 0.90333 0.0
H774 H 0.94172 0.62263 0.938 0.0
C775 C 0.86403 0.69181 0.8678 0.0
C776 C 0.83154 0.6879 0.84857 0.0
C777 C 0.80883 0.65789 0.8412 0.0
C778 C 0.81793 0.63192 0.85311 0.0
C779 C 0.8498 0.63636 0.87273 0.0
C780 C 0.87264 0.6654 0.88012 0.0
C781 C 0.90509 0.66314 0.90248 0.0
C782 C 0.93367 0.67504 0.87265 0.0
C783 C 0.91313 0.68059 0.94802 0.0
C784 C 0.89652 0.62836 0.90694 0.0
C785 C 0.86456 0.6136 0.889 0.0
C786 C 0.85084 0.58167 0.88774 0.0
C787 C 0.87032 0.56411 0.90492 0.0
C788 C 0.90332 0.57838 0.92324 0.0
C789 C 0.91648 0.61106 0.92467 0.0
H790 H 0.19239 0.3728 0.21797 0.0
H791 H 0.16846 0.29208 0.12793 0.0
H792 H 0.13272 0.31463 0.07931 0.0
H793 H 0.10964 0.38272 0.205 0.0
H794 H 0.12693 0.42416 0.21156 0.0
H795 H 0.14806 0.39971 0.23849 0.0
H796 H 0.20113 0.42822 0.20068 0.0
H797 H 0.17972 0.45188 0.17249 0.0
H798 H 0.19922 0.42912 0.141 0.0
H799 H 0.10044 0.34822 0.04013 0.0
H800 H 0.07511 0.38817 0.01548 0.0
H801 H 0.12352 0.44644 0.13159 0.0
C802 C 0.17966 0.35978 0.188 0.0
C803 C 0.18341 0.33094 0.17627 0.0
C804 C 0.16581 0.31429 0.13736 0.0
C805 C 0.14558 0.32694 0.10965 0.0
C806 C 0.14296 0.3559 0.12197 0.0
C807 C 0.15932 0.3718 0.16061 0.0
C808 C 0.15275 0.40235 0.16711 0.0
C809 C 0.13316 0.40223 0.20795 0.0
C810 C 0.18514 0.42948 0.17048 0.0
C811 C 0.13162 0.40223 0.12487 0.0
C812 C 0.12543 0.37503 0.09954 0.0
C813 C 0.10535 0.3696 0.05973 0.0
C814 C 0.09124 0.3925 0.04583 0.0
C815 C 0.09809 0.42075 0.07105 0.0
C816 C 0.11851 0.42545 0.111 0.0
H817 H 0.20014 0.64989 0.89741 0.0
H818 H 0.17877 0.64173 0.75474 0.0
H819 H 0.12108 0.61049 0.76309 0.0
H820 H 0.15415 0.57199 0.91529 0.0
H821 H 0.13954 0.5809 0.96688 0.0
H822 H 0.17836 0.60511 0.94993 0.0
H823 H 0.1575 0.65293 0.95667 0.0
H824 H 0.11856 0.6287 0.97344 0.0
H825 H 0.1191 0.65254 0.92659 0.0
H826 H 0.06604 0.57963 0.78683 0.0
H827 H 0.01821 0.54816 0.82499 0.0
H828 H 0.07716 0.57372 0.95133 0.0
C829 C 0.18313 0.64159 0.86816 0.0
C830 C 0.19354 0.64793 0.82543 0.0
C831 C 0.17102 0.63666 0.78764 0.0
C832 C 0.13825 0.61912 0.79206 0.0
C833 C 0.12867 0.61276 0.83458 0.0
C834 C 0.15046 0.62338 0.87199 0.0
C835 C 0.13442 0.61139 0.9136 0.0
C836 C 0.1527 0.59114 0.93783 0.0
C837 C 0.13228 0.638 0.94437 0.0
C838 C 0.10049 0.59237 0.89357 0.0
C839 C 0.09741 0.59379 0.84806 0.0
C840 C 0.06808 0.57821 0.82251 0.0
C841 C 0.04114 0.56047 0.84429 0.0
C842 C 0.04427 0.55825 0.8908 0.0
C843 C 0.07425 0.57456 0.91555 0.0
H844 H 0.39069 0.2152 0.84941 0.0
H845 H 0.28868 0.15803 0.85476 0.0
H846 H 0.30817 0.12088 0.89882 0.0
H847 H 0.42327 0.15717 0.83026 0.0
H848 H 0.462 0.17343 0.86356 0.0
H849 H 0.44009 0.19843 0.84048 0.0
H850 H 0.43929 0.22219 0.919 0.0
H851 H 0.46151 0.19733 0.94234 0.0
H852 H 0.42257 0.19719 0.96257 0.0
H853 H 0.3388 0.08579 0.9297 0.0
H854 H 0.37804 0.0561 0.94586 0.0
H855 H 0.46042 0.13643 0.92353 0.0
C856 C 0.37233 0.19535 0.86094 0.0
C857 C 0.33808 0.18961 0.84866 0.0
C858 C 0.31498 0.16308 0.86393 0.0
C859 C 0.32585 0.14187 0.8891 0.0
C860 C 0.35987 0.14772 0.89932 0.0
C861 C 0.38277 0.17405 0.8862 0.0
C862 C 0.418 0.17341 0.89741 0.0
C863 C 0.43692 0.17573 0.85543 0.0
C864 C 0.43642 0.19906 0.93241 0.0
C865 C 0.41139 0.1418 0.91652 0.0
C866 C 0.37767 0.12759 0.91806 0.0
C867 C 0.36523 0.09698 0.92966 0.0
C868 C 0.38764 0.08026 0.93863 0.0
C869 C 0.42212 0.09423 0.93649 0.0
C870 C 0.43422 0.12561 0.92659 0.0
H871 H 0.82268 0.33982 0.80149 0.0
H872 H 0.82313 0.26339 0.88436 0.0
H873 H 0.86251 0.29979 0.93978 0.0
H874 H 0.90688 0.37608 0.81613 0.0
H875 H 0.90472 0.41508 0.81598 0.0
H876 H 0.87206 0.38427 0.78719 0.0
H877 H 0.82884 0.39862 0.83241 0.0
H878 H 0.86146 0.42956 0.86147 0.0
H879 H 0.8341 0.4004 0.89216 0.0
H880 H 0.90546 0.34282 0.98175 0.0
H881 H 0.95317 0.38838 0.0046 0.0
H882 H 0.92719 0.4372 0.89306 0.0
C883 C 0.83042 0.3309 0.83189 0.0
C884 C 0.8197 0.29889 0.83909 0.0
C885 C 0.83107 0.28786 0.87846 0.0
C886 C 0.85316 0.30838 0.91019 0.0
C887 C 0.86373 0.33977 0.90176 0.0
C888 C 0.85291 0.35099 0.86345 0.0
C889 C 0.87129 0.38501 0.85967 0.0
C890 C 0.88984 0.39041 0.81725 0.0
C891 C 0.8475 0.40455 0.86155 0.0
C892 C 0.89511 0.39091 0.90104 0.0
C893 C 0.88965 0.36466 0.92534 0.0
C894 C 0.90979 0.36355 0.96323 0.0
C895 C 0.93692 0.38951 0.97579 0.0
C896 C 0.94391 0.41619 0.95037 0.0
C897 C 0.92211 0.41725 0.91334 0.0
H898 H 0.66598 0.80656 0.89262 0.0
H899 H 0.72355 0.86815 0.80049 0.0
H900 H 0.70494 0.91078 0.82992 0.0
H901 H 0.59706 0.82972 0.88487 0.0
H902 H 0.58979 0.82785 0.94287 0.0
H903 H 0.61178 0.80401 0.91941 0.0
H904 H 0.66123 0.82689 0.97845 0.0
H905 H 0.6394 0.851 1.00191 0.0
H906 H 0.68026 0.86818 0.9844 0.0
H907 H 0.67513 0.94547 0.86516 0.0
H908 H 0.636 0.96764 0.90108 0.0
H909 H 0.59623 0.88185 0.96544 0.0
C910 C 0.67531 0.82922 0.87939 0.0
C911 C 0.69638 0.83409 0.84454 0.0
C912 C 0.70784 0.86401 0.82777 0.0
C913 C 0.69733 0.88837 0.84422 0.0
C914 C 0.67588 0.88259 0.87801 0.0
C915 C 0.66535 0.85377 0.89571 0.0
C916 C 0.64093 0.85289 0.92999 0.0
C917 C 0.60794 0.8271 0.91853 0.0
C918 C 0.65639 0.84953 0.97642 0.0
C919 C 0.63695 0.88469 0.9259 0.0
C920 C 0.6583 0.90206 0.89723 0.0
C921 C 0.65866 0.93215 0.8881 0.0
C922 C 0.63644 0.94458 0.90859 0.0
C923 C 0.61357 0.9265 0.9365 0.0
C924 C 0.61397 0.89631 0.94514 0.0
H925 H 0.8378 0.69416 0.12361 0.0
H926 H 0.81701 0.64094 0.24095 0.0
H927 H 0.8477 0.60669 0.21498 0.0
H928 H 0.82486 0.62833 0.05239 0.0
H929 H 0.85664 0.64376 0.01586 0.0
H930 H 0.83743 0.66904 0.0425 0.0
H931 H 0.89215 0.70468 0.07968 0.0
H932 H 0.91401 0.68276 0.05101 0.0
H933 H 0.92039 0.6885 0.11049 0.0
H934 H 0.87639 0.57585 0.17463 0.0
H935 H 0.90687 0.55274 0.12445 0.0
H936 H 0.91097 0.62568 0.03324 0.0
C937 C 0.84032 0.67562 0.14401 0.0
C938 C 0.82508 0.67004 0.18424 0.0
C939 C 0.82832 0.64531 0.20986 0.0
C940 C 0.84574 0.62579 0.19545 0.0
C941 C 0.8596 0.63113 0.15506 0.0
C942 C 0.85739 0.65549 0.12973 0.0
C943 C 0.87299 0.65465 0.08634 0.0
C944 C 0.84645 0.64867 0.04694 0.0
C945 C 0.90159 0.68442 0.08161 0.0
C946 C 0.88548 0.62691 0.09228 0.0
C947 C 0.8767 0.61331 0.13176 0.0
C948 C 0.88368 0.5864 0.14378 0.0
C949 C 0.90071 0.57332 0.11503 0.0
C950 C 0.91104 0.58751 0.07534 0.0
C951 C 0.90332 0.61458 0.06367 0.0
H952 H 0.36418 0.85196 0.22682 0.0
H953 H 0.30797 0.79868 0.11079 0.0
H954 H 0.33483 0.84124 0.06338 0.0
H955 H 0.36816 0.93193 0.1816 0.0
H956 H 0.40929 0.94822 0.20869 0.0
H957 H 0.37902 0.91787 0.23393 0.0
H958 H 0.41994 0.88562 0.23774 0.0
H959 H 0.45003 0.91535 0.21205 0.0
H960 H 0.43624 0.87656 0.1875 0.0
H961 H 0.37547 0.88382 0.02841 0.0
H962 H 0.4265 0.92257 0.00845 0.0
H963 H 0.45747 0.94672 0.14763 0.0
C964 C 0.35682 0.84979 0.19156 0.0
C965 C 0.33437 0.82233 0.17208 0.0
C966 C 0.32506 0.81986 0.12605 0.0
C967 C 0.34005 0.84393 0.09904 0.0
C968 C 0.36341 0.87034 0.11907 0.0
C969 C 0.37124 0.87363 0.16448 0.0
C970 C 0.40014 0.90216 0.1774 0.0
C971 C 0.38845 0.92649 0.20184 0.0
C972 C 0.42822 0.89442 0.20525 0.0
C973 C 0.40995 0.91234 0.13198 0.0
C974 C 0.3875 0.89468 0.09879 0.0
C975 C 0.39269 0.89829 0.05407 0.0
C976 C 0.42177 0.9202 0.04308 0.0
C977 C 0.4456 0.93735 0.07676 0.0
C978 C 0.43937 0.93382 0.12156 0.0
H979 H 0.66776 0.214 0.15737 0.0
H980 H 0.71599 0.15902 0.23608 0.0
H981 H 0.67296 0.11126 0.20502 0.0
H982 H 0.58456 0.16798 0.1684 0.0
H983 H 0.57019 0.17385 0.11276 0.0
H984 H 0.60458 0.20302 0.14171 0.0
H985 H 0.64159 0.20093 0.07764 0.0
H986 H 0.60676 0.17249 0.04848 0.0
H987 H 0.64546 0.1642 0.05947 0.0
H988 H 0.62412 0.06959 0.16269 0.0
H989 H 0.57504 0.03843 0.11473 0.0
H990 H 0.56075 0.12265 0.06482 0.0
C991 C 0.66964 0.19197 0.16795 0.0
C992 C 0.69514 0.1902 0.19945 0.0
C993 C 0.69625 0.16088 0.21276 0.0
C994 C 0.67209 0.13371 0.19495 0.0
C995 C 0.64716 0.13647 0.16397 0.0
C996 C 0.64594 0.16499 0.15072 0.0
C997 C 0.61679 0.16229 0.11745 0.0
C998 C 0.59261 0.17769 0.13622 0.0
C999 C 0.62838 0.17576 0.07314 0.0
C1000 C 0.60189 0.12762 0.1131 0.0
C1001 C 0.61953 0.113 0.14023 0.0
C1002 C 0.6102 0.08088 0.1414 0.0
C1003 C 0.58227 0.06339 0.11402 0.0
C1004 C 0.56402 0.07808 0.0859 0.0
C1005 C 0.57409 0.11063 0.08578 0.0
H1006 H 0.64996 0.67648 0.76835 0.0
H1007 H 0.73383 0.68954 0.86525 0.0
H1008 H 0.69918 0.65014 0.91102 0.0
H1009 H 0.58544 0.66316 0.84213 0.0
H1010 H 0.55594 0.63266 0.80795 0.0
H1011 H 0.58736 0.66188 0.7828 0.0
H1012 H 0.60707 0.61946 0.74568 0.0
H1013 H 0.57569 0.5901 0.77081 0.0
H1014 H 0.61864 0.5917 0.77955 0.0
H1015 H 0.65334 0.60921 0.94888 0.0
H1016 H 0.60273 0.57101 0.97232 0.0
H1017 H 0.54866 0.58204 0.84982 0.0
C1018 C 0.66107 0.671 0.79916 0.0
C1019 C 0.6951 0.68651 0.81281 0.0
C1020 C 0.7083 0.67812 0.85337 0.0
C1021 C 0.68856 0.65567 0.8799 0.0
C1022 C 0.6553 0.64077 0.86551 0.0
C1023 C 0.64178 0.64785 0.82567 0.0
C1024 C 0.60566 0.62761 0.81708 0.0
C1025 C 0.58222 0.64753 0.81222 0.0
C1026 C 0.60152 0.60594 0.77582 0.0
C1027 C 0.60048 0.60919 0.85906 0.0
C1028 C 0.62954 0.61686 0.88646 0.0
C1029 C 0.63065 0.60296 0.92722 0.0
C1030 C 0.60163 0.58099 0.94031 0.0
C1031 C 0.57125 0.57276 0.91312 0.0
C1032 C 0.5712 0.58727 0.87169 0.0
H1033 H 0.3668 0.70661 0.89765 0.0
H1034 H 0.34099 0.67229 0.76042 0.0
H1035 H 0.37676 0.63899 0.77051 0.0
H1036 H 0.45484 0.70177 0.90472 0.0
H1037 H 0.45186 0.68958 0.96092 0.0
H1038 H 0.42978 0.71546 0.94081 0.0
H1039 H 0.37493 0.67753 0.96333 0.0
H1040 H 0.3967 0.65141 0.98286 0.0
H1041 H 0.36201 0.63803 0.9416 0.0
H1042 H 0.40555 0.60336 0.7978 0.0
H1043 H 0.42908 0.56848 0.84012 0.0
H1044 H 0.43792 0.62562 0.96015 0.0
C1045 C 0.36957 0.69286 0.86934 0.0
C1046 C 0.35121 0.69202 0.82826 0.0
C1047 C 0.35494 0.67334 0.79216 0.0
C1048 C 0.37531 0.65445 0.79749 0.0
C1049 C 0.39208 0.65491 0.83887 0.0
C1050 C 0.38989 0.67389 0.87409 0.0
C1051 C 0.40762 0.66738 0.91627 0.0
C1052 C 0.43783 0.69521 0.93157 0.0
C1053 C 0.38388 0.65803 0.95315 0.0
C1054 C 0.41824 0.64048 0.8998 0.0
C1055 C 0.40946 0.63413 0.85485 0.0
C1056 C 0.41334 0.60852 0.83271 0.0
C1057 C 0.42637 0.5887 0.85717 0.0
C1058 C 0.43527 0.59457 0.90328 0.0
C1059 C 0.43182 0.62109 0.92476 0.0
H1060 H 0.35671 0.33236 0.76437 0.0
H1061 H 0.28707 0.30522 0.86512 0.0
H1062 H 0.32184 0.34794 0.915 0.0
H1063 H 0.42846 0.35024 0.83318 0.0
H1064 H 0.45137 0.38393 0.80582 0.0
H1065 H 0.41877 0.35415 0.77501 0.0
H1066 H 0.38955 0.39443 0.75134 0.0
H1067 H 0.42224 0.42447 0.78198 0.0
H1068 H 0.37965 0.41833 0.79319 0.0
H1069 H 0.36779 0.38733 0.95839 0.0
H1070 H 0.42082 0.42396 0.99042 0.0
H1071 H 0.46032 0.42856 0.86191 0.0
C1072 C 0.34842 0.33602 0.79646 0.0
C1073 C 0.3189 0.31569 0.81049 0.0
C1074 C 0.30919 0.32081 0.85314 0.0
C1075 C 0.32884 0.34502 0.88189 0.0
C1076 C 0.35806 0.36428 0.86747 0.0
C1077 C 0.36763 0.36049 0.82553 0.0
C1078 C 0.40123 0.3835 0.81949 0.0
C1079 C 0.42643 0.36695 0.8077 0.0
C1080 C 0.39797 0.40655 0.78441 0.0
C1081 C 0.40989 0.3993 0.86543 0.0
C1082 C 0.38437 0.3881 0.89238 0.0
C1083 C 0.38757 0.39696 0.93733 0.0
C1084 C 0.41771 0.41768 0.95527 0.0
C1085 C 0.44406 0.42942 0.92826 0.0
C1086 C 0.44002 0.42047 0.88274 0.0
H1087 H 0.67437 0.31034 0.91544 0.0
H1088 H 0.69188 0.3495 0.78668 0.0
H1089 H 0.66369 0.38778 0.80585 0.0
H1090 H 0.59294 0.31679 0.9195 0.0
H1091 H 0.59751 0.32619 0.97831 0.0
H1092 H 0.62067 0.30306 0.95549 0.0
H1093 H 0.67537 0.34201 0.99082 0.0
H1094 H 0.65209 0.36513 0.01349 0.0
H1095 H 0.68502 0.3823 0.97888 0.0
H1096 H 0.6336 0.42172 0.83884 0.0
H1097 H 0.59943 0.44612 0.88099 0.0
H1098 H 0.59909 0.38339 0.9866 0.0
C1099 C 0.67255 0.32713 0.89137 0.0
C1100 C 0.68561 0.32709 0.84961 0.0
C1101 C 0.6822 0.34915 0.81886 0.0
C1102 C 0.66634 0.37104 0.82954 0.0
C1103 C 0.65386 0.37048 0.871 0.0
C1104 C 0.65652 0.34893 0.90133 0.0
C1105 C 0.63948 0.35233 0.94272 0.0
C1106 C 0.61095 0.32284 0.94936 0.0
C1107 C 0.6645 0.36096 0.9839 0.0
C1108 C 0.62654 0.37897 0.9307 0.0
C1109 C 0.63557 0.3894 0.88948 0.0
C1110 C 0.62649 0.4138 0.87116 0.0
C1111 C 0.60728 0.42759 0.89531 0.0
C1112 C 0.59713 0.4167 0.93691 0.0
C1113 C 0.60694 0.39221 0.95496 0.0
H1114 H 0.69472 0.35931 0.18496 0.0
H1115 H 0.62697 0.27005 0.13794 0.0
H1116 H 0.58792 0.29563 0.10442 0.0
H1117 H 0.63325 0.39741 0.20904 0.0
H1118 H 0.65688 0.43367 0.18841 0.0
H1119 H 0.6779 0.40798 0.21189 0.0
H1120 H 0.70711 0.40848 0.13946 0.0
H1121 H 0.68567 0.43367 0.11541 0.0
H1122 H 0.68239 0.39735 0.08728 0.0
H1123 H 0.5582 0.33071 0.07233 0.0
H1124 H 0.53736 0.37332 0.04798 0.0
H1125 H 0.62532 0.4398 0.11422 0.0
C1126 C 0.67124 0.34521 0.16865 0.0
C1127 C 0.66342 0.31283 0.16434 0.0
C1128 C 0.63308 0.29497 0.14163 0.0
C1129 C 0.61088 0.30925 0.12244 0.0
C1130 C 0.61974 0.34134 0.12594 0.0
C1131 C 0.64907 0.35913 0.14862 0.0
C1132 C 0.65342 0.39325 0.14529 0.0
C1133 C 0.65546 0.40899 0.19141 0.0
C1134 C 0.68396 0.40911 0.12038 0.0
C1135 C 0.62161 0.39177 0.1181 0.0
C1136 C 0.60273 0.36163 0.10687 0.0
C1137 C 0.57261 0.35443 0.08113 0.0
C1138 C 0.56108 0.37877 0.06731 0.0
C1139 C 0.57965 0.40978 0.07952 0.0
C1140 C 0.61047 0.41628 0.10473 0.0
H1141 H 0.67289 0.71196 0.1536 0.0
H1142 H 0.69008 0.65863 0.26444 0.0
H1143 H 0.64756 0.61205 0.22937 0.0
H1144 H 0.58528 0.67764 0.13595 0.0
H1145 H 0.58448 0.67816 0.07633 0.0
H1146 H 0.6165 0.7067 0.11011 0.0
H1147 H 0.66137 0.69095 0.07021 0.0
H1148 H 0.62951 0.66219 0.03643 0.0
H1149 H 0.661 0.65118 0.06903 0.0
H1150 H 0.60357 0.57206 0.18229 0.0
H1151 H 0.55929 0.54098 0.12782 0.0
H1152 H 0.57081 0.62109 0.04776 0.0
C1153 C 0.66719 0.69052 0.17065 0.0
C1154 C 0.68375 0.68854 0.2119 0.0
C1155 C 0.67695 0.6602 0.23296 0.0
C1156 C 0.6531 0.63381 0.21324 0.0
C1157 C 0.63697 0.63642 0.17237 0.0
C1158 C 0.64375 0.66402 0.15126 0.0
C1159 C 0.62302 0.66069 0.10759 0.0
C1160 C 0.601 0.68205 0.10752 0.0
C1161 C 0.64504 0.6666 0.06852 0.0
C1162 C 0.60275 0.62705 0.10799 0.0
C1163 C 0.61154 0.61339 0.14531 0.0
C1164 C 0.59642 0.58245 0.15295 0.0
C1165 C 0.57134 0.56503 0.1218 0.0
C1166 C 0.56149 0.57872 0.08374 0.0
C1167 C 0.57762 0.61008 0.07671 0.0
H1168 H 0.30098 0.65471 0.12402 0.0
H1169 H 0.3735 0.70719 0.22811 0.0
H1170 H 0.41385 0.68229 0.20374 0.0
H1171 H 0.32505 0.58331 0.1308 0.0
H1172 H 0.31832 0.57491 0.07174 0.0
H1173 H 0.29425 0.59555 0.09857 0.0
H1174 H 0.31282 0.63967 0.04505 0.0
H1175 H 0.33758 0.61975 0.01838 0.0
H1176 H 0.35642 0.65864 0.04157 0.0
H1177 H 0.44725 0.65484 0.16641 0.0
H1178 H 0.47231 0.62472 0.11991 0.0
H1179 H 0.37888 0.58775 0.03917 0.0
C1180 C 0.32525 0.66073 0.14201 0.0
C1181 C 0.33401 0.683 0.17816 0.0
C1182 C 0.36607 0.69021 0.20058 0.0
C1183 C 0.3892 0.67618 0.18691 0.0
C1184 C 0.3799 0.65469 0.15099 0.0
C1185 C 0.34864 0.64667 0.12902 0.0
C1186 C 0.3455 0.6232 0.09082 0.0
C1187 C 0.31922 0.59241 0.09846 0.0
C1188 C 0.33763 0.63609 0.04629 0.0
C1189 C 0.38019 0.61982 0.0942 0.0
C1190 C 0.39937 0.63825 0.12938 0.0
C1191 C 0.43244 0.64018 0.13901 0.0
C1192 C 0.44647 0.62298 0.1121 0.0
C1193 C 0.42765 0.60375 0.07577 0.0
C1194 C 0.39382 0.60193 0.06693 0.0
H1195 H 0.31594 0.36106 0.2056 0.0
H1196 H 0.35228 0.28254 0.18545 0.0
H1197 H 0.3959 0.31425 0.14215 0.0
H1198 H 0.33232 0.39228 0.0959 0.0
H1199 H 0.34553 0.43218 0.11572 0.0
H1200 H 0.31613 0.40356 0.14478 0.0
H1201 H 0.35439 0.41959 0.21739 0.0
H1202 H 0.38373 0.4484 0.18863 0.0
H1203 H 0.39691 0.41961 0.21815 0.0
H1204 H 0.43572 0.35363 0.09976 0.0
H1205 H 0.47255 0.39937 0.06762 0.0
H1206 H 0.41443 0.4554 0.11516 0.0
C1207 C 0.33316 0.35053 0.1923 0.0
C1208 C 0.33017 0.31881 0.19954 0.0
C1209 C 0.35352 0.30643 0.181 0.0
C1210 C 0.37853 0.32436 0.15595 0.0
C1211 C 0.38055 0.35515 0.14916 0.0
C1212 C 0.35876 0.36837 0.16708 0.0
C1213 C 0.36736 0.40242 0.15521 0.0
C1214 C 0.33862 0.40794 0.12619 0.0
C1215 C 0.37612 0.42377 0.19736 0.0
C1216 C 0.39774 0.40634 0.12871 0.0
C1217 C 0.40429 0.3784 0.12515 0.0
C1218 C 0.43072 0.37554 0.10243 0.0
C1219 C 0.4515 0.40178 0.08393 0.0
C1220 C 0.44648 0.43117 0.08795 0.0
C1221 C 0.41878 0.43332 0.11048 0.0
H1222 H 0.82077 0.67022 0.58948 0.0
H1223 H 0.82149 0.65034 0.72916 0.0
H1224 H 0.84912 0.61115 0.71529 0.0
H1225 H 0.8061 0.58687 0.54979 0.0
H1226 H 0.8317 0.59802 0.50431 0.0
H1227 H 0.80875 0.62264 0.52354 0.0
H1228 H 0.86295 0.66817 0.535 0.0
H1229 H 0.88601 0.64363 0.5165 0.0
H1230 H 0.89753 0.66395 0.56987 0.0
H1231 H 0.88369 0.58039 0.68972 0.0
H1232 H 0.91846 0.55489 0.65191 0.0
H1233 H 0.89242 0.58962 0.52664 0.0
C1234 C 0.82602 0.65702 0.61683 0.0
C1235 C 0.81879 0.66335 0.6604 0.0
C1236 C 0.82631 0.64576 0.69542 0.0
C1237 C 0.84214 0.62343 0.68792 0.0
C1238 C 0.84956 0.61818 0.64495 0.0
C1239 C 0.84105 0.6338 0.60967 0.0
C1240 C 0.85276 0.62386 0.56701 0.0
C1241 C 0.82305 0.60684 0.53422 0.0
C1242 C 0.87623 0.65162 0.54591 0.0
C1243 C 0.87095 0.6018 0.58447 0.0
C1244 C 0.86845 0.59883 0.62956 0.0
C1245 C 0.88516 0.5819 0.65426 0.0
C1246 C 0.90501 0.56762 0.63249 0.0
C1247 C 0.90788 0.56997 0.58628 0.0
C1248 C 0.89017 0.58692 0.56179 0.0
H1249 H 0.3512 0.86079 0.72237 0.0
H1250 H 0.32079 0.80445 0.60029 0.0
H1251 H 0.37553 0.82951 0.57291 0.0
H1252 H 0.37985 0.92508 0.68165 0.0
H1253 H 0.41542 0.94248 0.72044 0.0
H1254 H 0.3815 0.91216 0.73749 0.0
H1255 H 0.42109 0.88058 0.75971 0.0
H1256 H 0.4556 0.9111 0.7425 0.0
H1257 H 0.44716 0.87218 0.71992 0.0
H1258 H 0.42238 0.86971 0.55017 0.0
H1259 H 0.4533 0.92252 0.53207 0.0
H1260 H 0.45369 0.95466 0.66757 0.0
C1261 C 0.35663 0.8532 0.69041 0.0
C1262 C 0.33213 0.83137 0.6629 0.0
C1263 C 0.33959 0.82139 0.62158 0.0
C1264 C 0.37072 0.83518 0.60618 0.0
C1265 C 0.39403 0.85821 0.63311 0.0
C1266 C 0.38743 0.86679 0.67485 0.0
C1267 C 0.41279 0.89634 0.69334 0.0
C1268 C 0.39637 0.92039 0.70899 0.0
C1269 C 0.43551 0.88963 0.73108 0.0
C1270 C 0.43133 0.90577 0.6527 0.0
C1271 C 0.42182 0.88244 0.61944 0.0
C1272 C 0.43102 0.88764 0.57632 0.0
C1273 C 0.44841 0.9177 0.56621 0.0
C1274 C 0.45573 0.9419 0.59897 0.0
C1275 C 0.44875 0.93583 0.64289 0.0
H1276 H 0.19347 0.36936 0.72173 0.0
H1277 H 0.17532 0.28756 0.63562 0.0
H1278 H 0.14326 0.3091 0.58045 0.0
H1279 H 0.11501 0.37853 0.702 0.0
H1280 H 0.12893 0.42016 0.70295 0.0
H1281 H 0.15305 0.39985 0.73371 0.0
H1282 H 0.20469 0.42721 0.69263 0.0
H1283 H 0.18095 0.4482 0.66253 0.0
H1284 H 0.20162 0.42561 0.63283 0.0
H1285 H 0.10585 0.33653 0.5403 0.0
H1286 H 0.0755 0.37188 0.51188 0.0
H1287 H 0.12268 0.43792 0.62048 0.0
C1288 C 0.18391 0.35667 0.69038 0.0
C1289 C 0.18769 0.32729 0.68207 0.0
C1290 C 0.17355 0.31056 0.64175 0.0
C1291 C 0.15498 0.32247 0.61056 0.0
C1292 C 0.15086 0.3512 0.6202 0.0
C1293 C 0.16565 0.36843 0.65868 0.0
C1294 C 0.15669 0.39823 0.66178 0.0
C1295 C 0.13728 0.39923 0.70252 0.0
C1296 C 0.18785 0.42648 0.66246 0.0
C1297 C 0.13467 0.39516 0.61905 0.0
C1298 C 0.13094 0.36757 0.59597 0.0
C1299 C 0.10944 0.3586 0.55747 0.0
C1300 C 0.09227 0.37881 0.54144 0.0
C1301 C 0.09758 0.40809 0.56292 0.0
C1302 C 0.11871 0.41599 0.60263 0.0
H1303 H 0.67057 0.16889 0.71922 0.0
H1304 H 0.71145 0.22833 0.61441 0.0
H1305 H 0.68044 0.18725 0.55805 0.0
H1306 H 0.67721 0.10015 0.66612 0.0
H1307 H 0.64009 0.07537 0.68689 0.0
H1308 H 0.66387 0.11034 0.71788 0.0
H1309 H 0.61128 0.12818 0.71741 0.0
H1310 H 0.58759 0.0933 0.68626 0.0
H1311 H 0.58891 0.13039 0.6652 0.0
H1312 H 0.64739 0.13812 0.51356 0.0
H1313 H 0.61124 0.08632 0.48461 0.0
H1314 H 0.59247 0.05972 0.61906 0.0
C1315 C 0.67196 0.17349 0.68432 0.0
C1316 C 0.69219 0.20191 0.67067 0.0
C1317 C 0.69509 0.20687 0.62503 0.0
C1318 C 0.67789 0.18362 0.59298 0.0
C1319 C 0.65847 0.15549 0.60743 0.0
C1320 C 0.65533 0.15042 0.65204 0.0
C1321 C 0.63437 0.11772 0.65906 0.0
C1322 C 0.65512 0.09984 0.68396 0.0
C1323 C 0.60371 0.1174 0.68339 0.0
C1324 C 0.62511 0.10555 0.61141 0.0
C1325 C 0.6398 0.12739 0.58204 0.0
C1326 C 0.63565 0.12089 0.53624 0.0
C1327 C 0.61537 0.09148 0.52009 0.0
C1328 C 0.59934 0.06939 0.54977 0.0
C1329 C 0.60448 0.07646 0.59584 0.0
H1330 H 0.81043 0.31534 0.39807 0.0
H1331 H 0.79275 0.33918 0.26263 0.0
H1332 H 0.83545 0.39007 0.27768 0.0
H1333 H 0.8223 0.39138 0.44854 0.0
H1334 H 0.85388 0.38817 0.48965 0.0
H1335 H 0.82181 0.35401 0.46777 0.0
H1336 H 0.86667 0.32993 0.44493 0.0
H1337 H 0.89879 0.36417 0.4665 0.0
H1338 H 0.89761 0.35069 0.40971 0.0
H1339 H 0.8823 0.43757 0.3076 0.0
H1340 H 0.92507 0.47969 0.35192 0.0
H1341 H 0.90967 0.4248 0.46798 0.0
C1342 C 0.81525 0.33133 0.37159 0.0
C1343 C 0.79852 0.32318 0.32887 0.0
C1344 C 0.80548 0.34486 0.29534 0.0
C1345 C 0.82971 0.37377 0.30366 0.0
C1346 C 0.84633 0.3807 0.34592 0.0
C1347 C 0.83898 0.36025 0.37951 0.0
C1348 C 0.85993 0.37325 0.42226 0.0
C1349 C 0.83817 0.37693 0.45922 0.0
C1350 C 0.88206 0.35332 0.43666 0.0
C1351 C 0.88035 0.40424 0.40752 0.0
C1352 C 0.87246 0.40807 0.36328 0.0
C1353 C 0.88854 0.43484 0.34227 0.0
C1354 C 0.91283 0.45847 0.36744 0.0
C1355 C 0.92046 0.45502 0.41287 0.0
C1356 C 0.90421 0.42764 0.43308 0.0
H1357 H 0.6469 0.80464 0.39806 0.0
H1358 H 0.69402 0.85803 0.29036 0.0
H1359 H 0.67236 0.90014 0.31161 0.0
H1360 H 0.57268 0.82507 0.38528 0.0
H1361 H 0.56763 0.82743 0.44378 0.0
H1362 H 0.58935 0.80232 0.42297 0.0
H1363 H 0.64014 0.82943 0.47771 0.0
H1364 H 0.61878 0.855 0.49826 0.0
H1365 H 0.65881 0.87064 0.47694 0.0
H1366 H 0.64586 0.9366 0.34335 0.0
H1367 H 0.60978 0.9625 0.37836 0.0
H1368 H 0.576 0.88493 0.46202 0.0
C1369 C 0.65294 0.82533 0.37932 0.0
C1370 C 0.67246 0.82802 0.34279 0.0
C1371 C 0.67932 0.85534 0.31865 0.0
C1372 C 0.66728 0.87957 0.33057 0.0
C1373 C 0.64824 0.87627 0.36668 0.0
C1374 C 0.64073 0.84978 0.39048 0.0
C1375 C 0.61773 0.85152 0.42593 0.0
C1376 C 0.5849 0.82502 0.41904 0.0
C1377 C 0.6349 0.85167 0.47248 0.0
C1378 C 0.61268 0.88261 0.41719 0.0
C1379 C 0.63135 0.89683 0.3837 0.0
C1380 C 0.63111 0.92575 0.36962 0.0
C1381 C 0.61069 0.94031 0.38967 0.0
C1382 C 0.59023 0.92554 0.42247 0.0
C1383 C 0.59144 0.8965 0.43676 0.0
H1384 H 0.12996 0.67582 0.27093 0.0
H1385 H 0.20414 0.7179 0.3791 0.0
H1386 H 0.17803 0.67491 0.42623 0.0
H1387 H 0.06067 0.64693 0.336 0.0
H1388 H 0.04347 0.61142 0.30281 0.0
H1389 H 0.06753 0.64576 0.27797 0.0
H1390 H 0.10679 0.6166 0.25112 0.0
H1391 H 0.0831 0.58205 0.27575 0.0
H1392 H 0.12706 0.59778 0.29069 0.0
H1393 H 0.14398 0.62774 0.46112 0.0
H1394 H 0.10669 0.57724 0.47993 0.0
H1395 H 0.055 0.56552 0.34899 0.0
C1396 C 0.14057 0.67608 0.30466 0.0
C1397 C 0.16879 0.70023 0.32173 0.0
C1398 C 0.18247 0.69954 0.36558 0.0
C1399 C 0.16774 0.67535 0.39255 0.0
C1400 C 0.13969 0.65204 0.37482 0.0
C1401 C 0.12647 0.652 0.33174 0.0
C1402 C 0.097 0.62358 0.32011 0.0
C1403 C 0.06529 0.63247 0.30856 0.0
C1404 C 0.10392 0.60384 0.28219 0.0
C1405 C 0.09552 0.60765 0.36358 0.0
C1406 C 0.12023 0.62462 0.39477 0.0
C1407 C 0.12429 0.61447 0.4372 0.0
C1408 C 0.10273 0.58607 0.44787 0.0
C1409 C 0.07741 0.56838 0.41648 0.0
C1410 C 0.07379 0.57915 0.37376 0.0
H1411 H 0.35316 0.17882 0.30456 0.0
H1412 H 0.32599 0.22054 0.42042 0.0
H1413 H 0.35963 0.1963 0.46884 0.0
H1414 H 0.34601 0.10722 0.34872 0.0
H1415 H 0.38051 0.10111 0.32261 0.0
H1416 H 0.35799 0.12494 0.29732 0.0
H1417 H 0.41268 0.1701 0.29727 0.0
H1418 H 0.43541 0.1464 0.32281 0.0
H1419 H 0.43806 0.18333 0.34854 0.0
H1420 H 0.39592 0.16634 0.50481 0.0
H1421 H 0.42516 0.12828 0.52487 0.0
H1422 H 0.42312 0.10237 0.38583 0.0
C1423 C 0.35482 0.18343 0.34007 0.0
C1424 C 0.33733 0.202 0.35865 0.0
C1425 C 0.33945 0.20669 0.40538 0.0
C1426 C 0.35861 0.1931 0.43315 0.0
C1427 C 0.37537 0.17474 0.41372 0.0
C1428 C 0.37338 0.16969 0.36822 0.0
C1429 C 0.39129 0.14692 0.35568 0.0
C1430 C 0.36752 0.11836 0.32957 0.0
C1431 C 0.42113 0.16263 0.32953 0.0
C1432 C 0.4026 0.13901 0.40124 0.0
C1433 C 0.39421 0.15605 0.43433 0.0
C1434 C 0.40255 0.1529 0.4791 0.0
C1435 C 0.41917 0.13129 0.49024 0.0
C1436 C 0.42604 0.11234 0.45687 0.0
C1437 C 0.41806 0.11662 0.4119 0.0
H1438 H 0.64322 0.81698 0.67966 0.0
H1439 H 0.73872 0.84656 0.62482 0.0
H1440 H 0.71905 0.881 0.57574 0.0
H1441 H 0.59128 0.82273 0.57467 0.0
H1442 H 0.56397 0.83742 0.60536 0.0
H1443 H 0.58338 0.81096 0.63033 0.0
H1444 H 0.60739 0.85049 0.6966 0.0
H1445 H 0.58873 0.87732 0.6714 0.0
H1446 H 0.6328 0.88898 0.68637 0.0
H1447 H 0.69343 0.91818 0.54272 0.0
H1448 H 0.66017 0.95219 0.52001 0.0
H1449 H 0.58003 0.89876 0.59388 0.0
C1450 C 0.65926 0.82964 0.65573 0.0
C1451 C 0.69218 0.82871 0.65504 0.0
C1452 C 0.71321 0.84664 0.62502 0.0
C1453 C 0.70232 0.86634 0.59721 0.0
C1454 C 0.67029 0.86792 0.59993 0.0
C1455 C 0.64874 0.84971 0.62773 0.0
C1456 C 0.61665 0.85806 0.62674 0.0
C1457 C 0.58707 0.83065 0.60815 0.0
C1458 C 0.61109 0.86938 0.67302 0.0
C1459 C 0.62399 0.88418 0.59495 0.0
C1460 C 0.65516 0.8895 0.58014 0.0
C1461 C 0.66873 0.91392 0.55339 0.0
C1462 C 0.64977 0.93323 0.5409 0.0
C1463 C 0.61757 0.92794 0.55498 0.0
C1464 C 0.60442 0.90294 0.58206 0.0
H1465 H 0.67358 0.11877 0.31387 0.0
H1466 H 0.6592 0.1957 0.38863 0.0
H1467 H 0.60135 0.16469 0.39716 0.0
H1468 H 0.58632 0.08743 0.26033 0.0
H1469 H 0.58698 0.0482 0.26565 0.0
H1470 H 0.62463 0.07843 0.25718 0.0
H1471 H 0.65393 0.06442 0.32831 0.0
H1472 H 0.6169 0.03381 0.33616 0.0
H1473 H 0.63493 0.06298 0.37994 0.0
H1474 H 0.54924 0.1241 0.40662 0.0
H1475 H 0.512 0.07525 0.42961 0.0
H1476 H 0.56022 0.02425 0.34925 0.0
C1477 C 0.65812 0.1293 0.33147 0.0
C1478 C 0.67071 0.15956 0.35056 0.0
C1479 C 0.6499 0.17248 0.37369 0.0
C1480 C 0.61692 0.15524 0.37807 0.0
C1481 C 0.60518 0.1254 0.35859 0.0
C1482 C 0.6253 0.11247 0.33611 0.0
C1483 C 0.60868 0.07856 0.32438 0.0
C1484 C 0.6012 0.07282 0.27389 0.0
C1485 C 0.62984 0.05881 0.34338 0.0
C1486 C 0.57712 0.07371 0.34728 0.0
C1487 C 0.57487 0.10136 0.36487 0.0
C1488 C 0.55033 0.1024 0.39238 0.0
C1489 C 0.52925 0.07447 0.40524 0.0
C1490 C 0.53366 0.04603 0.39162 0.0
C1491 C 0.55605 0.04562 0.35961 0.0
H1492 H 0.81018 0.65621 0.32302 0.0
H1493 H 0.87373 0.74351 0.38339 0.0
H1494 H 0.90576 0.71599 0.42784 0.0
H1495 H 0.81255 0.60944 0.42389 0.0
H1496 H 0.81357 0.57616 0.39111 0.0
H1497 H 0.79219 0.60191 0.36858 0.0
H1498 H 0.82691 0.60861 0.30151 0.0
H1499 H 0.84997 0.58424 0.3236 0.0
H1500 H 0.87156 0.6231 0.3096 0.0
H1501 H 0.93613 0.68082 0.45662 0.0
H1502 H 0.95862 0.63842 0.47701 0.0
H1503 H 0.8756 0.57319 0.39932 0.0
C1504 C 0.83007 0.6693 0.34685 0.0
C1505 C 0.83957 0.70198 0.35005 0.0
C1506 C 0.8662 0.71849 0.38061 0.0
C1507 C 0.88454 0.70307 0.40592 0.0
C1508 C 0.87585 0.67106 0.40043 0.0
C1509 C 0.84885 0.65417 0.37242 0.0
C1510 C 0.84636 0.6201 0.37095 0.0
C1511 C 0.81427 0.60076 0.38977 0.0
C1512 C 0.84889 0.60836 0.32361 0.0
C1513 C 0.87671 0.62084 0.40137 0.0
C1514 C 0.89332 0.65048 0.41791 0.0
C1515 C 0.92308 0.65737 0.44454 0.0
C1516 C 0.93577 0.63316 0.45576 0.0
C1517 C 0.91888 0.60244 0.44001 0.0
C1518 C 0.889 0.59636 0.4123 0.0
H1519 H 0.35923 0.81437 0.33626 0.0
H1520 H 0.26418 0.83125 0.33984 0.0
H1521 H 0.29018 0.87797 0.38778 0.0
H1522 H 0.3922 0.84553 0.45274 0.0
H1523 H 0.4336 0.86293 0.43674 0.0
H1524 H 0.40701 0.82817 0.40768 0.0
H1525 H 0.41549 0.85555 0.33329 0.0
H1526 H 0.44174 0.89043 0.36216 0.0
H1527 H 0.40577 0.89127 0.32725 0.0
H1528 H 0.3262 0.92562 0.42643 0.0
H1529 H 0.37073 0.97085 0.45925 0.0
H1530 H 0.44372 0.92455 0.43353 0.0
C1531 C 0.34387 0.82736 0.3486 0.0
C1532 C 0.3096 0.81902 0.33491 0.0
C1533 C 0.29039 0.83714 0.35029 0.0
C1534 C 0.30492 0.86373 0.37752 0.0
C1535 C 0.33884 0.87204 0.38929 0.0
C1536 C 0.35816 0.85436 0.37593 0.0
C1537 C 0.39451 0.87013 0.39099 0.0
C1538 C 0.4076 0.85052 0.424 0.0
C1539 C 0.41561 0.87727 0.35104 0.0
C1540 C 0.39244 0.89959 0.41376 0.0
C1541 C 0.36 0.90002 0.41237 0.0
C1542 C 0.35169 0.9254 0.42848 0.0
C1543 C 0.37719 0.95108 0.44679 0.0
C1544 C 0.41066 0.95121 0.44916 0.0
C1545 C 0.4183 0.92495 0.43269 0.0
H1546 H 0.21042 0.36456 0.34168 0.0
H1547 H 0.13543 0.27691 0.3575 0.0
H1548 H 0.10206 0.30396 0.39486 0.0
H1549 H 0.20023 0.40233 0.44943 0.0
H1550 H 0.20592 0.43942 0.42575 0.0
H1551 H 0.22646 0.41333 0.40453 0.0
H1552 H 0.19948 0.4154 0.3249 0.0
H1553 H 0.18004 0.44217 0.34658 0.0
H1554 H 0.15505 0.40709 0.31695 0.0
H1555 H 0.07251 0.33942 0.41808 0.0
H1556 H 0.05022 0.38237 0.43365 0.0
H1557 H 0.14449 0.44844 0.41019 0.0
C1558 C 0.18748 0.35109 0.3543 0.0
C1559 C 0.17564 0.31853 0.34681 0.0
C1560 C 0.14507 0.30179 0.36278 0.0
C1561 C 0.1259 0.31695 0.38419 0.0
C1562 C 0.13766 0.34897 0.38994 0.0
C1563 C 0.16788 0.36599 0.37612 0.0
C1564 C 0.17331 0.40043 0.38428 0.0
C1565 C 0.20327 0.41472 0.41802 0.0
C1566 C 0.17724 0.41726 0.34056 0.0
C1567 C 0.141 0.39993 0.40348 0.0
C1568 C 0.1209 0.36986 0.40623 0.0
C1569 C 0.08835 0.36305 0.41754 0.0
C1570 C 0.07588 0.38755 0.42624 0.0
C1571 C 0.09606 0.4185 0.42484 0.0
C1572 C 0.12915 0.42489 0.41357 0.0
H1573 H 0.3539 0.181 0.69126 0.0
H1574 H 0.26607 0.1502 0.59872 0.0
H1575 H 0.29103 0.11552 0.55966 0.0
H1576 H 0.41493 0.17734 0.6124 0.0
H1577 H 0.43938 0.16322 0.65292 0.0
H1578 H 0.41611 0.18799 0.67042 0.0
H1579 H 0.38672 0.14672 0.72399 0.0
H1580 H 0.40963 0.12174 0.7063 0.0
H1581 H 0.36494 0.108 0.70237 0.0
H1582 H 0.32468 0.08263 0.53248 0.0
H1583 H 0.36348 0.05267 0.52104 0.0
H1584 H 0.42796 0.10315 0.63374 0.0
C1585 C 0.34024 0.16749 0.66216 0.0
C1586 C 0.30821 0.16861 0.64761 0.0
C1587 C 0.29075 0.1499 0.61018 0.0
C1588 C 0.30473 0.13015 0.58778 0.0
C1589 C 0.3361 0.1292 0.60342 0.0
C1590 C 0.35362 0.14733 0.63981 0.0
C1591 C 0.38586 0.14041 0.65176 0.0
C1592 C 0.41584 0.16894 0.64655 0.0
C1593 C 0.38682 0.1285 0.69889 0.0
C1594 C 0.38347 0.1152 0.61687 0.0
C1595 C 0.35483 0.10939 0.58889 0.0
C1596 C 0.3472 0.08701 0.55417 0.0
C1597 C 0.36936 0.07007 0.54798 0.0
C1598 C 0.39865 0.07538 0.57665 0.0
C1599 C 0.40568 0.09834 0.61143 0.0
H1600 H 0.83447 0.32643 0.67605 0.0
H1601 H 0.90618 0.27683 0.66151 0.0
H1602 H 0.94036 0.31995 0.62097 0.0
H1603 H 0.84146 0.36176 0.56919 0.0
H1604 H 0.83807 0.39786 0.59081 0.0
H1605 H 0.81801 0.36237 0.61634 0.0
H1606 H 0.84896 0.38527 0.6924 0.0
H1607 H 0.86901 0.4209 0.6673 0.0
H1608 H 0.89359 0.40053 0.69713 0.0
H1609 H 0.96663 0.36798 0.5828 0.0
H1610 H 0.98583 0.41997 0.55365 0.0
H1611 H 0.89824 0.43942 0.59602 0.0
C1612 C 0.85719 0.32453 0.66387 0.0
C1613 C 0.86768 0.29831 0.67147 0.0
C1614 C 0.8978 0.2968 0.65591 0.0
C1615 C 0.91725 0.32105 0.63273 0.0
C1616 C 0.90627 0.34662 0.62585 0.0
C1617 C 0.8771 0.34868 0.64121 0.0
C1618 C 0.87191 0.37946 0.63149 0.0
C1619 C 0.8405 0.37509 0.60009 0.0
C1620 C 0.87082 0.39761 0.67465 0.0
C1621 C 0.90294 0.39449 0.60869 0.0
C1622 C 0.92212 0.37495 0.60522 0.0
C1623 C 0.95188 0.38355 0.58533 0.0
C1624 C 0.96253 0.4131 0.56885 0.0
C1625 C 0.94361 0.43377 0.5729 0.0
C1626 C 0.91335 0.42421 0.59287 0.0
H1627 H 0.21784 0.65019 0.69015 0.0
H1628 H 0.16789 0.71728 0.65111 0.0
H1629 H 0.12521 0.67698 0.6063 0.0
H1630 H 0.20155 0.60656 0.58485 0.0
H1631 H 0.19402 0.5695 0.60922 0.0
H1632 H 0.2216 0.60365 0.63848 0.0
H1633 H 0.18662 0.59226 0.70659 0.0
H1634 H 0.15936 0.55791 0.67739 0.0
H1635 H 0.14267 0.58679 0.69896 0.0
H1636 H 0.08652 0.63057 0.56981 0.0
H1637 H 0.05484 0.57925 0.53738 0.0
H1638 H 0.12921 0.54081 0.59559 0.0
C1639 C 0.19794 0.65631 0.67205 0.0
C1640 C 0.19617 0.68686 0.67431 0.0
C1641 C 0.16989 0.69408 0.64992 0.0
C1642 C 0.14538 0.67134 0.62445 0.0
C1643 C 0.14752 0.64148 0.62344 0.0
C1644 C 0.17307 0.63375 0.64619 0.0
C1645 C 0.16889 0.59957 0.6391 0.0
C1646 C 0.19827 0.59454 0.61655 0.0
C1647 C 0.16411 0.58318 0.68313 0.0
C1648 C 0.13723 0.58963 0.60842 0.0
C1649 C 0.12526 0.61426 0.6006 0.0
C1650 C 0.09565 0.61106 0.57537 0.0
C1651 C 0.07765 0.58177 0.55745 0.0
C1652 C 0.08963 0.55626 0.56398 0.0
C1653 C 0.11989 0.56018 0.58963 0.0
loop_
_geom_bond_atom_site_label_1
_geom_bond_atom_site_label_2
_geom_bond_distance
_geom_bond_site_symmetry_2
_ccdc_geom_bond_type
Zn0 O6 1.969 . S
Zn0 O7 1.965 . S
Zn0 O11 2.024 . S
Zn0 O16 1.969 . S
Zn1 O8 1.969 . S
Zn1 O14 1.969 . S
Zn1 O15 1.965 . S
Zn1 O17 2.024 . S
C2 O3 1.229 . S
C2 O11 1.058 . S
O3 C2 1.229 . S
C4 O5 1.229 . S
C4 O17 1.058 . S
O5 C4 1.229 . S
O6 Zn0 1.969 . S
O6 C9 1.267 . S
O7 Zn0 1.965 . S
O7 C18 1.260 . S
O8 Zn1 1.969 . S
O8 C18 1.258 . S
C9 O6 1.267 . S
C9 O10 1.228 . S
O10 C9 1.228 . S
O11 Zn0 2.024 . S
O11 C2 1.058 . S
C12 O13 1.228 . S
C12 O14 1.267 . S
O13 C12 1.228 . S
O14 Zn1 1.969 . S
O14 C12 1.267 . S
O15 Zn1 1.965 . S
O15 C19 1.260 . S
O16 Zn0 1.969 . S
O16 C19 1.258 . S
O17 Zn1 2.024 . S
O17 C4 1.058 . S
C18 O7 1.260 . S
C18 O8 1.258 . S
C19 O15 1.260 . S
C19 O16 1.258 . S
Zn20 O26 1.969 . S
Zn20 O27 1.965 . S
Zn20 O31 2.024 . S
Zn20 O36 1.969 . S
Zn21 O28 1.969 . S
Zn21 O34 1.969 . S
Zn21 O35 1.965 . S
Zn21 O37 2.024 . S
C22 O23 1.229 . S
C22 O31 1.058 . S
O23 C22 1.229 . S
C24 O25 1.229 . S
C24 O37 1.058 . S
O25 C24 1.229 . S
O26 Zn20 1.969 . S
O26 C29 1.267 . S
O27 Zn20 1.965 . S
O27 C38 1.260 . S
O28 Zn21 1.969 . S
O28 C38 1.258 . S
C29 O26 1.267 . S
C29 O30 1.228 . S
O30 C29 1.228 . S
O31 Zn20 2.024 . S
O31 C22 1.058 . S
C32 O33 1.228 . S
C32 O34 1.267 . S
O33 C32 1.228 . S
O34 Zn21 1.969 . S
O34 C32 1.267 . S
O35 Zn21 1.965 . S
O35 C39 1.260 . S
O36 Zn20 1.969 . S
O36 C39 1.258 . S
O37 Zn21 2.024 . S
O37 C24 1.058 . S
C38 O27 1.260 . S
C38 O28 1.258 . S
C39 O35 1.260 . S
C39 O36 1.258 . S
Zn40 O46 1.969 . S
Zn40 O47 1.965 . S
Zn40 O51 2.024 . S
Zn40 O56 1.969 . S
Zn41 O48 1.969 . S
Zn41 O54 1.969 . S
Zn41 O55 1.965 . S
Zn41 O57 2.024 . S
C42 O43 1.229 . S
C42 O51 1.058 . S
O43 C42 1.229 . S
C44 O45 1.229 . S
C44 O57 1.058 . S
O45 C44 1.229 . S
O46 Zn40 1.969 . S
O46 C49 1.267 . S
O47 Zn40 1.965 . S
O47 C58 1.260 . S
O48 Zn41 1.969 . S
O48 C58 1.258 . S
C49 O46 1.267 . S
C49 O50 1.228 . S
O50 C49 1.228 . S
O51 Zn40 2.024 . S
O51 C42 1.058 . S
C52 O53 1.228 . S
C52 O54 1.267 . S
O53 C52 1.228 . S
O54 Zn41 1.969 . S
O54 C52 1.267 . S
O55 Zn41 1.965 . S
O55 C59 1.260 . S
O56 Zn40 1.969 . S
O56 C59 1.258 . S
O57 Zn41 2.024 . S
O57 C44 1.058 . S
C58 O47 1.260 . S
C58 O48 1.258 . S
C59 O55 1.260 . S
C59 O56 1.258 . S
Zn60 O66 1.969 . S
Zn60 O67 1.965 . S
Zn60 O71 2.024 . S
Zn60 O76 1.969 . S
Zn61 O68 1.969 . S
Zn61 O74 1.969 . S
Zn61 O75 1.965 . S
Zn61 O77 2.024 . S
C62 O63 1.229 . S
C62 O71 1.058 . S
O63 C62 1.229 . S
C64 O65 1.229 . S
C64 O77 1.058 . S
O65 C64 1.229 . S
O66 Zn60 1.969 . S
O66 C69 1.267 . S
O67 Zn60 1.965 . S
O67 C78 1.260 . S
O68 Zn61 1.969 . S
O68 C78 1.258 . S
C69 O66 1.267 . S
C69 O70 1.228 . S
O70 C69 1.228 . S
O71 Zn60 2.024 . S
O71 C62 1.058 . S
C72 O73 1.228 . S
C72 O74 1.267 . S
O73 C72 1.228 . S
O74 Zn61 1.969 . S
O74 C72 1.267 . S
O75 Zn61 1.965 . S
O75 C79 1.260 . S
O76 Zn60 1.969 . S
O76 C79 1.258 . S
O77 Zn61 2.024 . S
O77 C64 1.058 . S
C78 O67 1.260 . S
C78 O68 1.258 . S
C79 O75 1.260 . S
C79 O76 1.258 . S
Zn80 O86 1.969 . S
Zn80 O87 1.965 . S
Zn80 O91 2.024 . S
Zn80 O96 1.969 . S
Zn81 O88 1.969 . S
Zn81 O94 1.969 . S
Zn81 O95 1.965 . S
Zn81 O97 2.024 . S
C82 O83 1.229 . S
C82 O91 1.058 . S
O83 C82 1.229 . S
C84 O85 1.229 . S
C84 O97 1.058 . S
O85 C84 1.229 . S
O86 Zn80 1.969 . S
O86 C89 1.267 . S
O87 Zn80 1.965 . S
O87 C98 1.260 . S
O88 Zn81 1.969 . S
O88 C98 1.258 . S
C89 O86 1.267 . S
C89 O90 1.228 . S
O90 C89 1.228 . S
O91 Zn80 2.024 . S
O91 C82 1.058 . S
C92 O93 1.228 . S
C92 O94 1.267 . S
O93 C92 1.228 . S
O94 Zn81 1.969 . S
O94 C92 1.267 . S
O95 Zn81 1.965 . S
O95 C99 1.260 . S
O96 Zn80 1.969 . S
O96 C99 1.258 . S
O97 Zn81 2.024 . S
O97 C84 1.058 . S
C98 O87 1.260 . S
C98 O88 1.258 . S
C99 O95 1.260 . S
C99 O96 1.258 . S
Zn100 O106 1.969 . S
Zn100 O107 1.965 . S
Zn100 O111 2.024 . S
Zn100 O116 1.969 . S
Zn101 O108 1.969 . S
Zn101 O114 1.969 . S
Zn101 O115 1.965 . S
Zn101 O117 2.024 . S
C102 O103 1.229 . S
C102 O111 1.058 . S
O103 C102 1.229 . S
C104 O105 1.229 . S
C104 O117 1.058 . S
O105 C104 1.229 . S
O106 Zn100 1.969 . S
O106 C109 1.267 . S
O107 Zn100 1.965 . S
O107 C118 1.260 . S
O108 Zn101 1.969 . S
O108 C118 1.258 . S
C109 O106 1.267 . S
C109 O110 1.228 . S
O110 C109 1.228 . S
O111 Zn100 2.024 . S
O111 C102 1.058 . S
C112 O113 1.228 . S
C112 O114 1.267 . S
O113 C112 1.228 . S
O114 Zn101 1.969 . S
O114 C112 1.267 . S
O115 Zn101 1.965 . S
O115 C119 1.260 . S
O116 Zn100 1.969 . S
O116 C119 1.258 . S
O117 Zn101 2.024 . S
O117 C104 1.058 . S
C118 O107 1.260 . S
C118 O108 1.258 . S
C119 O115 1.260 . S
C119 O116 1.258 . S
Zn120 O126 1.969 . S
Zn120 O127 1.965 . S
Zn120 O131 2.024 . S
Zn120 O136 1.969 . S
Zn121 O128 1.969 . S
Zn121 O134 1.969 . S
Zn121 O135 1.965 . S
Zn121 O137 2.024 . S
C122 O123 1.229 . S
C122 O131 1.058 . S
O123 C122 1.229 . S
C124 O125 1.229 . S
C124 O137 1.058 . S
O125 C124 1.229 . S
O126 Zn120 1.969 . S
O126 C129 1.267 . S
O127 Zn120 1.965 . S
O127 C138 1.260 . S
O128 Zn121 1.969 . S
O128 C138 1.258 . S
C129 O126 1.267 . S
C129 O130 1.228 . S
O130 C129 1.228 . S
O131 Zn120 2.024 . S
O131 C122 1.058 . S
C132 O133 1.228 . S
C132 O134 1.267 . S
O133 C132 1.228 . S
O134 Zn121 1.969 . S
O134 C132 1.267 . S
O135 Zn121 1.965 . S
O135 C139 1.260 . S
O136 Zn120 1.969 . S
O136 C139 1.258 . S
O137 Zn121 2.024 . S
O137 C124 1.058 . S
C138 O127 1.260 . S
C138 O128 1.258 . S
C139 O135 1.260 . S
C139 O136 1.258 . S
Zn140 O146 1.969 . S
Zn140 O147 1.965 . S
Zn140 O151 2.024 . S
Zn140 O156 1.969 . S
Zn141 O148 1.969 . S
Zn141 O154 1.969 . S
Zn141 O155 1.965 . S
Zn141 O157 2.024 . S
C142 O143 1.229 . S
C142 O151 1.058 . S
O143 C142 1.229 . S
C144 O145 1.229 . S
C144 O157 1.058 . S
O145 C144 1.229 . S
O146 Zn140 1.969 . S
O146 C149 1.267 . S
O147 Zn140 1.965 . S
O147 C158 1.260 . S
O148 Zn141 1.969 . S
O148 C158 1.258 . S
C149 O146 1.267 . S
C149 O150 1.228 . S
O150 C149 1.228 . S
O151 Zn140 2.024 . S
O151 C142 1.058 . S
C152 O153 1.228 . S
C152 O154 1.267 . S
O153 C152 1.228 . S
O154 Zn141 1.969 . S
O154 C152 1.267 . S
O155 Zn141 1.965 . S
O155 C159 1.260 . S
O156 Zn140 1.969 . S
O156 C159 1.258 . S
O157 Zn141 2.024 . S
O157 C144 1.058 . S
C158 O147 1.260 . S
C158 O148 1.258 . S
C159 O155 1.260 . S
C159 O156 1.258 . S
Co160 O163 2.042 . S
Co160 O170 2.264 . S
Co160 O189 2.286 . S
Co160 O190 2.069 . S
Co160 O192 2.015 1_455 S
Co161 O163 2.122 . S
Co161 O169 2.073 . S
Co161 O170 2.327 . S
Co161 O171 1.976 1_455 S
Co162 O163 2.088 1_545 S
Co162 O165 2.086 1_455 S
Co162 O172 2.107 1_445 S
Co162 O173 2.147 . S
Co162 O177 2.115 . S
Co162 O191 2.140 1_445 S
O163 Co160 2.042 . S
O163 Co161 2.122 . S
O163 Co162 2.088 1_565 S
O163 H164 0.980 . S
H164 O163 0.980 . S
O165 Co162 2.086 1_655 S
O165 Co166 2.042 . S
O165 Co167 2.122 . S
O165 H168 0.980 . S
Co166 O165 2.042 . S
Co166 O174 2.286 . S
Co166 O175 2.069 . S
Co166 O176 2.015 1_655 S
Co166 O179 2.264 . S
Co167 O165 2.122 . S
Co167 O178 1.976 1_655 S
Co167 O179 2.327 . S
Co167 O180 2.073 . S
H168 O165 0.980 . S
O169 Co161 2.073 . S
O169 C184 1.245 . S
O170 Co160 2.264 . S
O170 Co161 2.327 . S
O170 C184 1.257 . S
O171 Co161 1.976 1_655 S
O171 C183 1.251 . S
O172 Co162 2.107 1_665 S
O172 C183 1.274 . S
O173 Co162 2.147 . S
O173 C186 1.246 . S
O174 Co166 2.286 . S
O174 C185 1.259 . S
O175 Co166 2.069 . S
O175 C185 1.289 . S
O176 Co166 2.015 1_455 S
O176 C186 1.257 . S
O177 Co162 2.115 . S
O177 C187 1.274 . S
O178 Co167 1.976 1_455 S
O178 C187 1.251 . S
O179 Co166 2.264 . S
O179 Co167 2.327 . S
O179 C188 1.257 . S
O180 Co167 2.073 . S
O180 C188 1.245 . S
C181 O189 1.259 . S
C181 O190 1.289 . S
C182 O191 1.246 . S
C182 O192 1.257 . S
C183 O171 1.251 . S
C183 O172 1.274 . S
C184 O169 1.245 . S
C184 O170 1.257 . S
C185 O174 1.259 . S
C185 O175 1.289 . S
C186 O173 1.246 . S
C186 O176 1.257 . S
C187 O177 1.274 . S
C187 O178 1.251 . S
C188 O179 1.257 . S
C188 O180 1.245 . S
O189 Co160 2.286 . S
O189 C181 1.259 . S
O190 Co160 2.069 . S
O190 C181 1.289 . S
O191 Co162 2.140 1_665 S
O191 C182 1.246 . S
O192 Co160 2.015 1_655 S
O192 C182 1.257 . S
Co193 O196 2.042 1_556 S
Co193 O203 2.264 1_556 S
Co193 O222 2.286 . S
Co193 O223 2.069 . S
Co193 O225 2.015 . S
Co194 O196 2.122 . S
Co194 O202 2.073 . S
Co194 O203 2.327 . S
Co194 O204 1.976 . S
Co195 O196 2.084 1_545 S
Co195 O198 2.090 1_554 S
Co195 O205 2.110 1_545 S
Co195 O206 2.145 . S
Co195 O210 2.112 1_554 S
Co195 O224 2.142 1_544 S
O196 Co193 2.042 1_554 S
O196 Co194 2.122 . S
O196 Co195 2.084 1_565 S
O196 H197 0.980 . S
H197 O196 0.980 . S
O198 Co195 2.090 1_556 S
O198 Co199 2.042 1_556 S
O198 Co200 2.122 . S
O198 H201 0.980 . S
Co199 O198 2.042 1_554 S
Co199 O207 2.286 . S
Co199 O208 2.069 . S
Co199 O209 2.015 . S
Co199 O212 2.264 1_554 S
Co200 O198 2.122 . S
Co200 O211 1.976 . S
Co200 O212 2.327 . S
Co200 O213 2.073 . S
H201 O198 0.980 . S
O202 Co194 2.073 . S
O202 C217 1.245 . S
O203 Co193 2.264 1_554 S
O203 Co194 2.327 . S
O203 C217 1.257 . S
O204 Co194 1.976 . S
O204 C216 1.251 . S
O205 Co195 2.110 1_565 S
O205 C216 1.274 . S
O206 Co195 2.145 . S
O206 C219 1.246 . S
O207 Co199 2.286 . S
O207 C218 1.259 . S
O208 Co199 2.069 . S
O208 C218 1.289 . S
O209 Co199 2.015 . S
O209 C219 1.257 . S
O210 Co195 2.112 1_556 S
O210 C220 1.274 . S
O211 Co200 1.976 . S
O211 C220 1.251 . S
O212 Co199 2.264 1_556 S
O212 Co200 2.327 . S
O212 C221 1.257 . S
O213 Co200 2.073 . S
O213 C221 1.245 . S
C214 O222 1.259 . S
C214 O223 1.289 . S
C215 O224 1.246 . S
C215 O225 1.257 . S
C216 O204 1.251 . S
C216 O205 1.274 . S
C217 O202 1.245 . S
C217 O203 1.257 . S
C218 O207 1.259 . S
C218 O208 1.289 . S
C219 O206 1.246 . S
C219 O209 1.257 . S
C220 O210 1.274 . S
C220 O211 1.251 . S
C221 O212 1.257 . S
C221 O213 1.245 . S
O222 Co193 2.286 . S
O222 C214 1.259 . S
O223 Co193 2.069 . S
O223 C214 1.289 . S
O224 Co195 2.142 1_566 S
O224 C215 1.246 . S
O225 Co193 2.015 . S
O225 C215 1.257 . S
Co226 O229 2.042 1_556 S
Co226 O236 2.264 1_556 S
Co226 O255 2.286 . S
Co226 O256 2.069 . S
Co226 O258 2.015 1_455 S
Co227 O229 2.122 . S
Co227 O235 2.073 . S
Co227 O236 2.327 . S
Co227 O237 1.976 1_455 S
Co228 O229 2.091 . S
Co228 O231 2.083 1_454 S
Co228 O238 2.109 1_455 S
Co228 O239 2.145 . S
Co228 O243 2.114 1_554 S
Co228 O257 2.142 1_454 S
O229 Co226 2.042 1_554 S
O229 Co227 2.122 . S
O229 Co228 2.091 . S
O229 H230 0.980 . S
H230 O229 0.980 . S
O231 Co228 2.083 1_656 S
O231 Co232 2.042 1_556 S
O231 Co233 2.122 . S
O231 H234 0.980 . S
Co232 O231 2.042 1_554 S
Co232 O240 2.286 . S
Co232 O241 2.069 . S
Co232 O242 2.015 1_655 S
Co232 O245 2.264 1_554 S
Co233 O231 2.122 . S
Co233 O244 1.976 1_655 S
Co233 O245 2.327 . S
Co233 O246 2.073 . S
H234 O231 0.980 . S
O235 Co227 2.073 . S
O235 C250 1.245 . S
O236 Co226 2.264 1_554 S
O236 Co227 2.327 . S
O236 C250 1.257 . S
O237 Co227 1.976 1_655 S
O237 C249 1.251 . S
O238 Co228 2.109 1_655 S
O238 C249 1.274 . S
O239 Co228 2.145 . S
O239 C252 1.246 . S
O240 Co232 2.286 . S
O240 C251 1.259 . S
O241 Co232 2.069 . S
O241 C251 1.289 . S
O242 Co232 2.015 1_455 S
O242 C252 1.257 . S
O243 Co228 2.114 1_556 S
O243 C253 1.274 . S
O244 Co233 1.976 1_455 S
O244 C253 1.251 . S
O245 Co232 2.264 1_556 S
O245 Co233 2.327 . S
O245 C254 1.257 . S
O246 Co233 2.073 . S
O246 C254 1.245 . S
C247 O255 1.259 . S
C247 O256 1.289 . S
C248 O257 1.246 . S
C248 O258 1.257 . S
C249 O237 1.251 . S
C249 O238 1.274 . S
C250 O235 1.245 . S
C250 O236 1.257 . S
C251 O240 1.259 . S
C251 O241 1.289 . S
C252 O239 1.246 . S
C252 O242 1.257 . S
C253 O243 1.274 . S
C253 O244 1.251 . S
C254 O245 1.257 . S
C254 O246 1.245 . S
O255 Co226 2.286 . S
O255 C247 1.259 . S
O256 Co226 2.069 . S
O256 C247 1.289 . S
O257 Co228 2.142 1_656 S
O257 C248 1.246 . S
O258 Co226 2.015 1_655 S
O258 C248 1.257 . S
Co259 O262 2.042 1_556 S
Co259 O269 2.264 1_556 S
Co259 O288 2.286 . S
Co259 O289 2.069 . S
Co259 O291 2.015 . S
Co260 O262 2.122 . S
Co260 O268 2.073 . S
Co260 O269 2.327 . S
Co260 O270 1.976 . S
Co261 O262 2.087 . S
Co261 O264 2.087 1_554 S
Co261 O271 2.111 . S
Co261 O272 2.143 . S
Co261 O276 2.111 1_554 S
Co261 O290 2.143 1_554 S
O262 Co259 2.042 1_554 S
O262 Co260 2.122 . S
O262 Co261 2.087 . S
O262 H263 0.980 . S
H263 O262 0.980 . S
O264 Co261 2.087 1_556 S
O264 Co265 2.042 1_556 S
O264 Co266 2.122 . S
O264 H267 0.980 . S
Co265 O264 2.042 1_554 S
Co265 O273 2.286 . S
Co265 O274 2.069 . S
Co265 O275 2.015 . S
Co265 O278 2.264 1_554 S
Co266 O264 2.122 . S
Co266 O277 1.976 . S
Co266 O278 2.327 . S
Co266 O279 2.073 . S
H267 O264 0.980 . S
O268 Co260 2.073 . S
O268 C283 1.245 . S
O269 Co259 2.264 1_554 S
O269 Co260 2.327 . S
O269 C283 1.257 . S
O270 Co260 1.976 . S
O270 C282 1.251 . S
O271 Co261 2.111 . S
O271 C282 1.274 . S
O272 Co261 2.143 . S
O272 C285 1.246 . S
O273 Co265 2.286 . S
O273 C284 1.259 . S
O274 Co265 2.069 . S
O274 C284 1.289 . S
O275 Co265 2.015 . S
O275 C285 1.257 . S
O276 Co261 2.111 1_556 S
O276 C286 1.274 . S
O277 Co266 1.976 . S
O277 C286 1.251 . S
O278 Co265 2.264 1_556 S
O278 Co266 2.327 . S
O278 C287 1.257 . S
O279 Co266 2.073 . S
O279 C287 1.245 . S
C280 O288 1.259 . S
C280 O289 1.289 . S
C281 O290 1.246 . S
C281 O291 1.257 . S
C282 O270 1.251 . S
C282 O271 1.274 . S
C283 O268 1.245 . S
C283 O269 1.257 . S
C284 O273 1.259 . S
C284 O274 1.289 . S
C285 O272 1.246 . S
C285 O275 1.257 . S
C286 O276 1.274 . S
C286 O277 1.251 . S
C287 O278 1.257 . S
C287 O279 1.245 . S
O288 Co259 2.286 . S
O288 C280 1.259 . S
O289 Co259 2.069 . S
O289 C280 1.289 . S
O290 Co261 2.143 1_556 S
O290 C281 1.246 . S
O291 Co259 2.015 . S
O291 C281 1.257 . S
Co292 O295 2.042 . S
Co292 O302 2.264 . S
Co292 O321 2.286 . S
Co292 O322 2.069 . S
Co292 O324 2.015 . S
Co293 O295 2.122 . S
Co293 O301 2.073 . S
Co293 O302 2.327 . S
Co293 O303 1.976 . S
Co294 O295 2.091 . S
Co294 O297 2.083 1_455 S
Co294 O304 2.113 . S
Co294 O305 2.141 1_455 S
Co294 O309 2.110 1_455 S
Co294 O323 2.146 . S
O295 Co292 2.042 . S
O295 Co293 2.122 . S
O295 Co294 2.091 . S
O295 H296 0.980 . S
H296 O295 0.980 . S
O297 Co294 2.083 1_655 S
O297 Co298 2.042 . S
O297 Co299 2.122 . S
O297 H300 0.980 . S
Co298 O297 2.042 . S
Co298 O306 2.286 . S
Co298 O307 2.069 . S
Co298 O308 2.015 . S
Co298 O311 2.264 . S
Co299 O297 2.122 . S
Co299 O310 1.976 . S
Co299 O311 2.327 . S
Co299 O312 2.073 . S
H300 O297 0.980 . S
O301 Co293 2.073 . S
O301 C316 1.245 . S
O302 Co292 2.264 . S
O302 Co293 2.327 . S
O302 C316 1.257 . S
O303 Co293 1.976 . S
O303 C315 1.251 . S
O304 Co294 2.113 . S
O304 C315 1.274 . S
O305 Co294 2.141 1_655 S
O305 C318 1.246 . S
O306 Co298 2.286 . S
O306 C317 1.259 . S
O307 Co298 2.069 . S
O307 C317 1.289 . S
O308 Co298 2.015 . S
O308 C318 1.257 . S
O309 Co294 2.110 1_655 S
O309 C319 1.274 . S
O310 Co299 1.976 . S
O310 C319 1.251 . S
O311 Co298 2.264 . S
O311 Co299 2.327 . S
O311 C320 1.257 . S
O312 Co299 2.073 . S
O312 C320 1.245 . S
C313 O321 1.259 . S
C313 O322 1.289 . S
C314 O323 1.246 . S
C314 O324 1.257 . S
C315 O303 1.251 . S
C315 O304 1.274 . S
C316 O301 1.245 . S
C316 O302 1.257 . S
C317 O306 1.259 . S
C317 O307 1.289 . S
C318 O305 1.246 . S
C318 O308 1.257 . S
C319 O309 1.274 . S
C319 O310 1.251 . S
C320 O311 1.257 . S
C320 O312 1.245 . S
O321 Co292 2.286 . S
O321 C313 1.259 . S
O322 Co292 2.069 . S
O322 C313 1.289 . S
O323 Co294 2.146 . S
O323 C314 1.246 . S
O324 Co292 2.015 . S
O324 C314 1.257 . S
Co325 O328 2.042 . S
Co325 O335 2.264 . S
Co325 O354 2.286 . S
Co325 O355 2.069 . S
Co325 O357 2.015 1_565 S
Co326 O328 2.122 . S
Co326 O334 2.073 . S
Co326 O335 2.327 . S
Co326 O336 1.976 1_565 S
Co327 O328 2.084 1_545 S
Co327 O330 2.090 . S
Co327 O337 2.113 . S
Co327 O338 2.142 1_545 S
Co327 O342 2.109 1_545 S
Co327 O356 2.145 . S
O328 Co325 2.042 . S
O328 Co326 2.122 . S
O328 Co327 2.084 1_565 S
O328 H329 0.980 . S
H329 O328 0.980 . S
O330 Co327 2.090 . S
O330 Co331 2.042 . S
O330 Co332 2.122 . S
O330 H333 0.980 . S
Co331 O330 2.042 . S
Co331 O339 2.286 . S
Co331 O340 2.069 . S
Co331 O341 2.015 1_545 S
Co331 O344 2.264 . S
Co332 O330 2.122 . S
Co332 O343 1.976 1_545 S
Co332 O344 2.327 . S
Co332 O345 2.073 . S
H333 O330 0.980 . S
O334 Co326 2.073 . S
O334 C349 1.245 . S
O335 Co325 2.264 . S
O335 Co326 2.327 . S
O335 C349 1.257 . S
O336 Co326 1.976 1_545 S
O336 C348 1.251 . S
O337 Co327 2.113 . S
O337 C348 1.274 . S
O338 Co327 2.142 1_565 S
O338 C351 1.246 . S
O339 Co331 2.286 . S
O339 C350 1.259 . S
O340 Co331 2.069 . S
O340 C350 1.289 . S
O341 Co331 2.015 1_565 S
O341 C351 1.257 . S
O342 Co327 2.109 1_565 S
O342 C352 1.274 . S
O343 Co332 1.976 1_565 S
O343 C352 1.251 . S
O344 Co331 2.264 . S
O344 Co332 2.327 . S
O344 C353 1.257 . S
O345 Co332 2.073 . S
O345 C353 1.245 . S
C346 O354 1.259 . S
C346 O355 1.289 . S
C347 O356 1.246 . S
C347 O357 1.257 . S
C348 O336 1.251 . S
C348 O337 1.274 . S
C349 O334 1.245 . S
C349 O335 1.257 . S
C350 O339 1.259 . S
C350 O340 1.289 . S
C351 O338 1.246 . S
C351 O341 1.257 . S
C352 O342 1.274 . S
C352 O343 1.251 . S
C353 O344 1.257 . S
C353 O345 1.245 . S
O354 Co325 2.286 . S
O354 C346 1.259 . S
O355 Co325 2.069 . S
O355 C346 1.289 . S
O356 Co327 2.145 . S
O356 C347 1.246 . S
O357 Co325 2.015 1_545 S
O357 C347 1.257 . S
H358 C370 0.930 . S
H359 C372 0.930 . S
H360 C373 0.930 . S
H361 C377 0.959 . S
H362 C377 0.959 . S
H363 C377 0.961 . S
H364 C378 0.960 . S
H365 C378 0.961 . S
H366 C378 0.959 . S
H367 C381 0.929 . S
H368 C382 0.931 . S
H369 C384 0.930 . S
C370 H358 0.930 . S
C370 C371 1.399 . S
C370 C375 1.399 . S
C371 C370 1.399 . S
C371 C372 1.376 . S
C372 H359 0.930 . S
C372 C371 1.376 . S
C372 C373 1.388 . S
C373 H360 0.930 . S
C373 C372 1.388 . S
C373 C374 1.390 . S
C374 C373 1.390 . S
C374 C375 1.394 . S
C374 C380 1.465 . S
C375 C370 1.399 . S
C375 C374 1.394 . S
C375 C376 1.516 . S
C376 C375 1.516 . S
C376 C377 1.502 . S
C376 C378 1.561 . S
C376 C379 1.526 . S
C377 H361 0.959 . S
C377 H362 0.959 . S
C377 H363 0.961 . S
C377 C376 1.502 . S
C378 H364 0.960 . S
C378 H365 0.961 . S
C378 H366 0.959 . S
C378 C376 1.561 . S
C379 C376 1.526 . S
C379 C380 1.396 . S
C379 C384 1.390 . S
C380 C374 1.465 . S
C380 C379 1.396 . S
C380 C381 1.399 . S
C381 H367 0.929 . S
C381 C380 1.399 . S
C381 C382 1.385 . S
C382 H368 0.931 . S
C382 C381 1.385 . S
C382 C383 1.389 . S
C383 C382 1.389 . S
C383 C384 1.387 . S
C384 H369 0.930 . S
C384 C379 1.390 . S
C384 C383 1.387 . S
H385 C397 0.930 . S
H386 C399 0.930 . S
H387 C400 0.930 . S
H388 C404 0.959 . S
H389 C404 0.959 . S
H390 C404 0.961 . S
H391 C405 0.960 . S
H392 C405 0.961 . S
H393 C405 0.959 . S
H394 C408 0.929 . S
H395 C409 0.931 . S
H396 C411 0.930 . S
C397 H385 0.930 . S
C397 C398 1.399 . S
C397 C402 1.399 . S
C398 C397 1.399 . S
C398 C399 1.376 . S
C399 H386 0.930 . S
C399 C398 1.376 . S
C399 C400 1.388 . S
C400 H387 0.930 . S
C400 C399 1.388 . S
C400 C401 1.390 . S
C401 C400 1.390 . S
C401 C402 1.394 . S
C401 C407 1.465 . S
C402 C397 1.399 . S
C402 C401 1.394 . S
C402 C403 1.516 . S
C403 C402 1.516 . S
C403 C404 1.502 . S
C403 C405 1.561 . S
C403 C406 1.526 . S
C404 H388 0.959 . S
C404 H389 0.959 . S
C404 H390 0.961 . S
C404 C403 1.502 . S
C405 H391 0.960 . S
C405 H392 0.961 . S
C405 H393 0.959 . S
C405 C403 1.561 . S
C406 C403 1.526 . S
C406 C407 1.396 . S
C406 C411 1.390 . S
C407 C401 1.465 . S
C407 C406 1.396 . S
C407 C408 1.399 . S
C408 H394 0.929 . S
C408 C407 1.399 . S
C408 C409 1.385 . S
C409 H395 0.931 . S
C409 C408 1.385 . S
C409 C410 1.389 . S
C410 C409 1.389 . S
C410 C411 1.387 . S
C411 H396 0.930 . S
C411 C406 1.390 . S
C411 C410 1.387 . S
H412 C424 0.930 . S
H413 C426 0.930 . S
H414 C427 0.930 . S
H415 C431 0.959 . S
H416 C431 0.959 . S
H417 C431 0.961 . S
H418 C432 0.960 . S
H419 C432 0.961 . S
H420 C432 0.959 . S
H421 C435 0.929 . S
H422 C436 0.931 . S
H423 C438 0.930 . S
C424 H412 0.930 . S
C424 C425 1.399 . S
C424 C429 1.399 . S
C425 C424 1.399 . S
C425 C426 1.376 . S
C426 H413 0.930 . S
C426 C425 1.376 . S
C426 C427 1.388 . S
C427 H414 0.930 . S
C427 C426 1.388 . S
C427 C428 1.390 . S
C428 C427 1.390 . S
C428 C429 1.394 . S
C428 C434 1.465 . S
C429 C424 1.399 . S
C429 C428 1.394 . S
C429 C430 1.516 . S
C430 C429 1.516 . S
C430 C431 1.502 . S
C430 C432 1.561 . S
C430 C433 1.526 . S
C431 H415 0.959 . S
C431 H416 0.959 . S
C431 H417 0.961 . S
C431 C430 1.502 . S
C432 H418 0.960 . S
C432 H419 0.961 . S
C432 H420 0.959 . S
C432 C430 1.561 . S
C433 C430 1.526 . S
C433 C434 1.396 . S
C433 C438 1.390 . S
C434 C428 1.465 . S
C434 C433 1.396 . S
C434 C435 1.399 . S
C435 H421 0.929 . S
C435 C434 1.399 . S
C435 C436 1.385 . S
C436 H422 0.931 . S
C436 C435 1.385 . S
C436 C437 1.389 . S
C437 C436 1.389 . S
C437 C438 1.387 . S
C438 H423 0.930 . S
C438 C433 1.390 . S
C438 C437 1.387 . S
H439 C451 0.930 . S
H440 C453 0.930 . S
H441 C454 0.930 . S
H442 C458 0.959 . S
H443 C458 0.959 . S
H444 C458 0.961 . S
H445 C459 0.960 . S
H446 C459 0.961 . S
H447 C459 0.959 . S
H448 C462 0.929 . S
H449 C463 0.931 . S
H450 C465 0.930 . S
C451 H439 0.930 . S
C451 C452 1.399 . S
C451 C456 1.399 . S
C452 C451 1.399 . S
C452 C453 1.376 . S
C453 H440 0.930 . S
C453 C452 1.376 . S
C453 C454 1.388 . S
C454 H441 0.930 . S
C454 C453 1.388 . S
C454 C455 1.390 . S
C455 C454 1.390 . S
C455 C456 1.394 . S
C455 C461 1.465 . S
C456 C451 1.399 . S
C456 C455 1.394 . S
C456 C457 1.516 . S
C457 C456 1.516 . S
C457 C458 1.502 . S
C457 C459 1.561 . S
C457 C460 1.526 . S
C458 H442 0.959 . S
C458 H443 0.959 . S
C458 H444 0.961 . S
C458 C457 1.502 . S
C459 H445 0.960 . S
C459 H446 0.961 . S
C459 H447 0.959 . S
C459 C457 1.561 . S
C460 C457 1.526 . S
C460 C461 1.396 . S
C460 C465 1.390 . S
C461 C455 1.465 . S
C461 C460 1.396 . S
C461 C462 1.399 . S
C462 H448 0.929 . S
C462 C461 1.399 . S
C462 C463 1.385 . S
C463 H449 0.931 . S
C463 C462 1.385 . S
C463 C464 1.389 . S
C464 C463 1.389 . S
C464 C465 1.387 . S
C465 H450 0.930 . S
C465 C460 1.390 . S
C465 C464 1.387 . S
H466 C478 0.930 . S
H467 C480 0.930 . S
H468 C481 0.930 . S
H469 C485 0.959 . S
H470 C485 0.959 . S
H471 C485 0.961 . S
H472 C486 0.960 . S
H473 C486 0.961 . S
H474 C486 0.959 . S
H475 C489 0.929 . S
H476 C490 0.931 . S
H477 C492 0.930 . S
C478 H466 0.930 . S
C478 C479 1.399 . S
C478 C483 1.399 . S
C479 C478 1.399 . S
C479 C480 1.376 . S
C480 H467 0.930 . S
C480 C479 1.376 . S
C480 C481 1.388 . S
C481 H468 0.930 . S
C481 C480 1.388 . S
C481 C482 1.390 . S
C482 C481 1.390 . S
C482 C483 1.394 . S
C482 C488 1.465 . S
C483 C478 1.399 . S
C483 C482 1.394 . S
C483 C484 1.516 . S
C484 C483 1.516 . S
C484 C485 1.502 . S
C484 C486 1.561 . S
C484 C487 1.526 . S
C485 H469 0.959 . S
C485 H470 0.959 . S
C485 H471 0.961 . S
C485 C484 1.502 . S
C486 H472 0.960 . S
C486 H473 0.961 . S
C486 H474 0.959 . S
C486 C484 1.561 . S
C487 C484 1.526 . S
C487 C488 1.396 . S
C487 C492 1.390 . S
C488 C482 1.465 . S
C488 C487 1.396 . S
C488 C489 1.399 . S
C489 H475 0.929 . S
C489 C488 1.399 . S
C489 C490 1.385 . S
C490 H476 0.931 . S
C490 C489 1.385 . S
C490 C491 1.389 . S
C491 C490 1.389 . S
C491 C492 1.387 . S
C492 H477 0.930 . S
C492 C487 1.390 . S
C492 C491 1.387 . S
H493 C505 0.930 . S
H494 C507 0.930 . S
H495 C508 0.930 . S
H496 C512 0.959 . S
H497 C512 0.959 . S
H498 C512 0.961 . S
H499 C513 0.960 . S
H500 C513 0.961 . S
H501 C513 0.959 . S
H502 C516 0.929 . S
H503 C517 0.931 . S
H504 C519 0.930 . S
C505 H493 0.930 . S
C505 C506 1.399 . S
C505 C510 1.399 . S
C506 C505 1.399 . S
C506 C507 1.376 . S
C507 H494 0.930 . S
C507 C506 1.376 . S
C507 C508 1.388 . S
C508 H495 0.930 . S
C508 C507 1.388 . S
C508 C509 1.390 . S
C509 C508 1.390 . S
C509 C510 1.394 . S
C509 C515 1.465 . S
C510 C505 1.399 . S
C510 C509 1.394 . S
C510 C511 1.516 . S
C511 C510 1.516 . S
C511 C512 1.502 . S
C511 C513 1.561 . S
C511 C514 1.526 . S
C512 H496 0.959 . S
C512 H497 0.959 . S
C512 H498 0.961 . S
C512 C511 1.502 . S
C513 H499 0.960 . S
C513 H500 0.961 . S
C513 H501 0.959 . S
C513 C511 1.561 . S
C514 C511 1.526 . S
C514 C515 1.396 . S
C514 C519 1.390 . S
C515 C509 1.465 . S
C515 C514 1.396 . S
C515 C516 1.399 . S
C516 H502 0.929 . S
C516 C515 1.399 . S
C516 C517 1.385 . S
C517 H503 0.931 . S
C517 C516 1.385 . S
C517 C518 1.389 . S
C518 C517 1.389 . S
C518 C519 1.387 . S
C519 H504 0.930 . S
C519 C514 1.390 . S
C519 C518 1.387 . S
H520 C532 0.930 . S
H521 C534 0.930 . S
H522 C535 0.930 . S
H523 C539 0.959 . S
H524 C539 0.959 . S
H525 C539 0.961 . S
H526 C540 0.960 . S
H527 C540 0.961 . S
H528 C540 0.959 . S
H529 C543 0.929 . S
H530 C544 0.931 . S
H531 C546 0.930 . S
C532 H520 0.930 . S
C532 C533 1.399 . S
C532 C537 1.399 . S
C533 C532 1.399 . S
C533 C534 1.376 . S
C534 H521 0.930 . S
C534 C533 1.376 . S
C534 C535 1.388 . S
C535 H522 0.930 . S
C535 C534 1.388 . S
C535 C536 1.390 . S
C536 C535 1.390 . S
C536 C537 1.394 . S
C536 C542 1.465 . S
C537 C532 1.399 . S
C537 C536 1.394 . S
C537 C538 1.516 . S
C538 C537 1.516 . S
C538 C539 1.502 . S
C538 C540 1.561 . S
C538 C541 1.526 . S
C539 H523 0.959 . S
C539 H524 0.959 . S
C539 H525 0.961 . S
C539 C538 1.502 . S
C540 H526 0.960 . S
C540 H527 0.961 . S
C540 H528 0.959 . S
C540 C538 1.561 . S
C541 C538 1.526 . S
C541 C542 1.396 . S
C541 C546 1.390 . S
C542 C536 1.465 . S
C542 C541 1.396 . S
C542 C543 1.399 . S
C543 H529 0.929 . S
C543 C542 1.399 . S
C543 C544 1.385 . S
C544 H530 0.931 . S
C544 C543 1.385 . S
C544 C545 1.389 . S
C545 C544 1.389 . S
C545 C546 1.387 . S
C546 H531 0.930 . S
C546 C541 1.390 . S
C546 C545 1.387 . S
H547 C559 0.930 . S
H548 C561 0.930 . S
H549 C562 0.930 . S
H550 C566 0.959 . S
H551 C566 0.959 . S
H552 C566 0.961 . S
H553 C567 0.960 . S
H554 C567 0.961 . S
H555 C567 0.959 . S
H556 C570 0.929 . S
H557 C571 0.931 . S
H558 C573 0.930 . S
C559 H547 0.930 . S
C559 C560 1.399 . S
C559 C564 1.399 . S
C560 C559 1.399 . S
C560 C561 1.376 . S
C561 H548 0.930 . S
C561 C560 1.376 . S
C561 C562 1.388 . S
C562 H549 0.930 . S
C562 C561 1.388 . S
C562 C563 1.390 . S
C563 C562 1.390 . S
C563 C564 1.394 . S
C563 C569 1.465 . S
C564 C559 1.399 . S
C564 C563 1.394 . S
C564 C565 1.516 . S
C565 C564 1.516 . S
C565 C566 1.502 . S
C565 C567 1.561 . S
C565 C568 1.526 . S
C566 H550 0.959 . S
C566 H551 0.959 . S
C566 H552 0.961 . S
C566 C565 1.502 . S
C567 H553 0.960 . S
C567 H554 0.961 . S
C567 H555 0.959 . S
C567 C565 1.561 . S
C568 C565 1.526 . S
C568 C569 1.396 . S
C568 C573 1.390 . S
C569 C563 1.465 . S
C569 C568 1.396 . S
C569 C570 1.399 . S
C570 H556 0.929 . S
C570 C569 1.399 . S
C570 C571 1.385 . S
C571 H557 0.931 . S
C571 C570 1.385 . S
C571 C572 1.389 . S
C572 C571 1.389 . S
C572 C573 1.387 . S
C573 H558 0.930 . S
C573 C568 1.390 . S
C573 C572 1.387 . S
H574 C586 0.930 . S
H575 C588 0.930 . S
H576 C589 0.930 . S
H577 C593 0.959 . S
H578 C593 0.959 . S
H579 C593 0.961 . S
H580 C594 0.960 . S
H581 C594 0.961 . S
H582 C594 0.959 . S
H583 C597 0.929 . S
H584 C598 0.931 . S
H585 C600 0.930 . S
C586 H574 0.930 . S
C586 C587 1.399 . S
C586 C591 1.399 . S
C587 C586 1.399 . S
C587 C588 1.376 . S
C588 H575 0.930 . S
C588 C587 1.376 . S
C588 C589 1.388 . S
C589 H576 0.930 . S
C589 C588 1.388 . S
C589 C590 1.390 . S
C590 C589 1.390 . S
C590 C591 1.394 . S
C590 C596 1.465 . S
C591 C586 1.399 . S
C591 C590 1.394 . S
C591 C592 1.516 . S
C592 C591 1.516 . S
C592 C593 1.502 . S
C592 C594 1.561 . S
C592 C595 1.526 . S
C593 H577 0.959 . S
C593 H578 0.959 . S
C593 H579 0.961 . S
C593 C592 1.502 . S
C594 H580 0.960 . S
C594 H581 0.961 . S
C594 H582 0.959 . S
C594 C592 1.561 . S
C595 C592 1.526 . S
C595 C596 1.396 . S
C595 C600 1.390 . S
C596 C590 1.465 . S
C596 C595 1.396 . S
C596 C597 1.399 . S
C597 H583 0.929 . S
C597 C596 1.399 . S
C597 C598 1.385 . S
C598 H584 0.931 . S
C598 C597 1.385 . S
C598 C599 1.389 . S
C599 C598 1.389 . S
C599 C600 1.387 . S
C600 H585 0.930 . S
C600 C595 1.390 . S
C600 C599 1.387 . S
H601 C613 0.930 . S
H602 C615 0.930 . S
H603 C616 0.930 . S
H604 C620 0.959 . S
H605 C620 0.959 . S
H606 C620 0.961 . S
H607 C621 0.960 . S
H608 C621 0.961 . S
H609 C621 0.959 . S
H610 C624 0.929 . S
H611 C625 0.931 . S
H612 C627 0.930 . S
C613 H601 0.930 . S
C613 C614 1.399 . S
C613 C618 1.399 . S
C614 C613 1.399 . S
C614 C615 1.376 . S
C615 H602 0.930 . S
C615 C614 1.376 . S
C615 C616 1.388 . S
C616 H603 0.930 . S
C616 C615 1.388 . S
C616 C617 1.390 . S
C617 C616 1.390 . S
C617 C618 1.394 . S
C617 C623 1.465 . S
C618 C613 1.399 . S
C618 C617 1.394 . S
C618 C619 1.516 . S
C619 C618 1.516 . S
C619 C620 1.502 . S
C619 C621 1.561 . S
C619 C622 1.526 . S
C620 H604 0.959 . S
C620 H605 0.959 . S
C620 H606 0.961 . S
C620 C619 1.502 . S
C621 H607 0.960 . S
C621 H608 0.961 . S
C621 H609 0.959 . S
C621 C619 1.561 . S
C622 C619 1.526 . S
C622 C623 1.396 . S
C622 C627 1.390 . S
C623 C617 1.465 . S
C623 C622 1.396 . S
C623 C624 1.399 . S
C624 H610 0.929 . S
C624 C623 1.399 . S
C624 C625 1.385 . S
C625 H611 0.931 . S
C625 C624 1.385 . S
C625 C626 1.389 . S
C626 C625 1.389 . S
C626 C627 1.387 . S
C627 H612 0.930 . S
C627 C622 1.390 . S
C627 C626 1.387 . S
H628 C640 0.930 . S
H629 C642 0.930 . S
H630 C643 0.930 . S
H631 C647 0.959 . S
H632 C647 0.959 . S
H633 C647 0.961 . S
H634 C648 0.960 . S
H635 C648 0.961 . S
H636 C648 0.959 . S
H637 C651 0.929 . S
H638 C652 0.931 1_556 S
H639 C654 0.930 . S
C640 H628 0.930 . S
C640 C641 1.399 . S
C640 C645 1.399 . S
C641 C640 1.399 . S
C641 C642 1.376 . S
C642 H629 0.930 . S
C642 C641 1.376 . S
C642 C643 1.388 . S
C643 H630 0.930 . S
C643 C642 1.388 . S
C643 C644 1.390 . S
C644 C643 1.390 . S
C644 C645 1.394 . S
C644 C650 1.465 . S
C645 C640 1.399 . S
C645 C644 1.394 . S
C645 C646 1.516 . S
C646 C645 1.516 . S
C646 C647 1.502 . S
C646 C648 1.561 . S
C646 C649 1.526 . S
C647 H631 0.959 . S
C647 H632 0.959 . S
C647 H633 0.961 . S
C647 C646 1.502 . S
C648 H634 0.960 . S
C648 H635 0.961 . S
C648 H636 0.959 . S
C648 C646 1.561 . S
C649 C646 1.526 . S
C649 C650 1.396 . S
C649 C654 1.390 . S
C650 C644 1.465 . S
C650 C649 1.396 . S
C650 C651 1.399 . S
C651 H637 0.929 . S
C651 C650 1.399 . S
C651 C652 1.385 . S
C652 H638 0.931 1_554 S
C652 C651 1.385 . S
C652 C653 1.389 . S
C653 C652 1.389 . S
C653 C654 1.387 . S
C654 H639 0.930 . S
C654 C649 1.390 . S
C654 C653 1.387 . S
H655 C667 0.930 . S
H656 C669 0.930 . S
H657 C670 0.930 . S
H658 C674 0.959 . S
H659 C674 0.959 . S
H660 C674 0.961 . S
H661 C675 0.960 . S
H662 C675 0.961 . S
H663 C675 0.959 . S
H664 C678 0.929 . S
H665 C679 0.931 . S
H666 C681 0.930 . S
C667 H655 0.930 . S
C667 C668 1.399 . S
C667 C672 1.399 . S
C668 C667 1.399 . S
C668 C669 1.376 . S
C669 H656 0.930 . S
C669 C668 1.376 . S
C669 C670 1.388 . S
C670 H657 0.930 . S
C670 C669 1.388 . S
C670 C671 1.390 . S
C671 C670 1.390 . S
C671 C672 1.394 . S
C671 C677 1.465 . S
C672 C667 1.399 . S
C672 C671 1.394 . S
C672 C673 1.516 . S
C673 C672 1.516 . S
C673 C674 1.502 . S
C673 C675 1.561 . S
C673 C676 1.526 . S
C674 H658 0.959 . S
C674 H659 0.959 . S
C674 H660 0.961 . S
C674 C673 1.502 . S
C675 H661 0.960 . S
C675 H662 0.961 . S
C675 H663 0.959 . S
C675 C673 1.561 . S
C676 C673 1.526 . S
C676 C677 1.396 . S
C676 C681 1.390 . S
C677 C671 1.465 . S
C677 C676 1.396 . S
C677 C678 1.399 . S
C678 H664 0.929 . S
C678 C677 1.399 . S
C678 C679 1.385 . S
C679 H665 0.931 . S
C679 C678 1.385 . S
C679 C680 1.389 . S
C680 C679 1.389 . S
C680 C681 1.387 . S
C681 H666 0.930 . S
C681 C676 1.390 . S
C681 C680 1.387 . S
H682 C694 0.930 . S
H683 C696 0.930 . S
H684 C697 0.930 . S
H685 C701 0.959 . S
H686 C701 0.959 . S
H687 C701 0.961 . S
H688 C702 0.960 . S
H689 C702 0.961 . S
H690 C702 0.959 . S
H691 C705 0.929 . S
H692 C706 0.931 . S
H693 C708 0.930 . S
C694 H682 0.930 . S
C694 C695 1.399 . S
C694 C699 1.399 . S
C695 C694 1.399 . S
C695 C696 1.376 . S
C696 H683 0.930 . S
C696 C695 1.376 . S
C696 C697 1.388 . S
C697 H684 0.930 . S
C697 C696 1.388 . S
C697 C698 1.390 . S
C698 C697 1.390 . S
C698 C699 1.394 . S
C698 C704 1.465 . S
C699 C694 1.399 . S
C699 C698 1.394 . S
C699 C700 1.516 . S
C700 C699 1.516 . S
C700 C701 1.502 . S
C700 C702 1.561 . S
C700 C703 1.526 . S
C701 H685 0.959 . S
C701 H686 0.959 . S
C701 H687 0.961 . S
C701 C700 1.502 . S
C702 H688 0.960 . S
C702 H689 0.961 . S
C702 H690 0.959 . S
C702 C700 1.561 . S
C703 C700 1.526 . S
C703 C704 1.396 . S
C703 C708 1.390 . S
C704 C698 1.465 . S
C704 C703 1.396 . S
C704 C705 1.399 . S
C705 H691 0.929 . S
C705 C704 1.399 . S
C705 C706 1.385 . S
C706 H692 0.931 . S
C706 C705 1.385 . S
C706 C707 1.389 . S
C707 C706 1.389 . S
C707 C708 1.387 . S
C708 H693 0.930 . S
C708 C703 1.390 . S
C708 C707 1.387 . S
H709 C721 0.930 . S
H710 C723 0.930 . S
H711 C724 0.930 . S
H712 C728 0.959 . S
H713 C728 0.959 . S
H714 C728 0.961 . S
H715 C729 0.960 . S
H716 C729 0.961 . S
H717 C729 0.959 . S
H718 C732 0.929 . S
H719 C733 0.931 . S
H720 C735 0.930 . S
C721 H709 0.930 . S
C721 C722 1.399 . S
C721 C726 1.399 . S
C722 C721 1.399 . S
C722 C723 1.376 . S
C723 H710 0.930 . S
C723 C722 1.376 . S
C723 C724 1.388 . S
C724 H711 0.930 . S
C724 C723 1.388 . S
C724 C725 1.390 . S
C725 C724 1.390 . S
C725 C726 1.394 . S
C725 C731 1.465 . S
C726 C721 1.399 . S
C726 C725 1.394 . S
C726 C727 1.516 . S
C727 C726 1.516 . S
C727 C728 1.502 . S
C727 C729 1.561 . S
C727 C730 1.526 . S
C728 H712 0.959 . S
C728 H713 0.959 . S
C728 H714 0.961 . S
C728 C727 1.502 . S
C729 H715 0.960 . S
C729 H716 0.961 . S
C729 H717 0.959 . S
C729 C727 1.561 . S
C730 C727 1.526 . S
C730 C731 1.396 . S
C730 C735 1.390 . S
C731 C725 1.465 . S
C731 C730 1.396 . S
C731 C732 1.399 . S
C732 H718 0.929 . S
C732 C731 1.399 . S
C732 C733 1.385 . S
C733 H719 0.931 . S
C733 C732 1.385 . S
C733 C734 1.389 . S
C734 C733 1.389 . S
C734 C735 1.387 . S
C735 H720 0.930 . S
C735 C730 1.390 . S
C735 C734 1.387 . S
H736 C748 0.930 . S
H737 C750 0.930 . S
H738 C751 0.930 . S
H739 C755 0.959 . S
H740 C755 0.959 . S
H741 C755 0.961 . S
H742 C756 0.960 . S
H743 C756 0.961 . S
H744 C756 0.959 . S
H745 C759 0.929 . S
H746 C760 0.931 . S
H747 C762 0.930 . S
C748 H736 0.930 . S
C748 C749 1.399 . S
C748 C753 1.399 . S
C749 C748 1.399 . S
C749 C750 1.376 . S
C750 H737 0.930 . S
C750 C749 1.376 . S
C750 C751 1.388 . S
C751 H738 0.930 . S
C751 C750 1.388 . S
C751 C752 1.390 . S
C752 C751 1.390 . S
C752 C753 1.394 . S
C752 C758 1.465 . S
C753 C748 1.399 . S
C753 C752 1.394 . S
C753 C754 1.516 . S
C754 C753 1.516 . S
C754 C755 1.502 . S
C754 C756 1.561 . S
C754 C757 1.526 . S
C755 H739 0.959 . S
C755 H740 0.959 . S
C755 H741 0.961 . S
C755 C754 1.502 . S
C756 H742 0.960 . S
C756 H743 0.961 . S
C756 H744 0.959 . S
C756 C754 1.561 . S
C757 C754 1.526 . S
C757 C758 1.396 . S
C757 C762 1.390 . S
C758 C752 1.465 . S
C758 C757 1.396 . S
C758 C759 1.399 . S
C759 H745 0.929 . S
C759 C758 1.399 . S
C759 C760 1.385 . S
C760 H746 0.931 . S
C760 C759 1.385 . S
C760 C761 1.389 . S
C761 C760 1.389 . S
C761 C762 1.387 . S
C762 H747 0.930 . S
C762 C757 1.390 . S
C762 C761 1.387 . S
H763 C775 0.930 . S
H764 C777 0.930 . S
H765 C778 0.930 . S
H766 C782 0.959 . S
H767 C782 0.959 . S
H768 C782 0.961 . S
H769 C783 0.960 . S
H770 C783 0.961 1_554 S
H771 C783 0.959 . S
H772 C786 0.929 . S
H773 C787 0.931 . S
H774 C789 0.930 . S
C775 H763 0.930 . S
C775 C776 1.399 . S
C775 C780 1.399 . S
C776 C775 1.399 . S
C776 C777 1.376 . S
C777 H764 0.930 . S
C777 C776 1.376 . S
C777 C778 1.388 . S
C778 H765 0.930 . S
C778 C777 1.388 . S
C778 C779 1.390 . S
C779 C778 1.390 . S
C779 C780 1.394 . S
C779 C785 1.465 . S
C780 C775 1.399 . S
C780 C779 1.394 . S
C780 C781 1.516 . S
C781 C780 1.516 . S
C781 C782 1.502 . S
C781 C783 1.561 . S
C781 C784 1.526 . S
C782 H766 0.959 . S
C782 H767 0.959 . S
C782 H768 0.961 . S
C782 C781 1.502 . S
C783 H769 0.960 . S
C783 H770 0.961 1_556 S
C783 H771 0.959 . S
C783 C781 1.561 . S
C784 C781 1.526 . S
C784 C785 1.396 . S
C784 C789 1.390 . S
C785 C779 1.465 . S
C785 C784 1.396 . S
C785 C786 1.399 . S
C786 H772 0.929 . S
C786 C785 1.399 . S
C786 C787 1.385 . S
C787 H773 0.931 . S
C787 C786 1.385 . S
C787 C788 1.389 . S
C788 C787 1.389 . S
C788 C789 1.387 . S
C789 H774 0.930 . S
C789 C784 1.390 . S
C789 C788 1.387 . S
H790 C802 0.930 . S
H791 C804 0.930 . S
H792 C805 0.930 . S
H793 C809 0.959 . S
H794 C809 0.959 . S
H795 C809 0.961 . S
H796 C810 0.960 . S
H797 C810 0.961 . S
H798 C810 0.959 . S
H799 C813 0.929 . S
H800 C814 0.931 1_556 S
H801 C816 0.930 . S
C802 H790 0.930 . S
C802 C803 1.399 . S
C802 C807 1.399 . S
C803 C802 1.399 . S
C803 C804 1.376 . S
C804 H791 0.930 . S
C804 C803 1.376 . S
C804 C805 1.388 . S
C805 H792 0.930 . S
C805 C804 1.388 . S
C805 C806 1.390 . S
C806 C805 1.390 . S
C806 C807 1.394 . S
C806 C812 1.465 . S
C807 C802 1.399 . S
C807 C806 1.394 . S
C807 C808 1.516 . S
C808 C807 1.516 . S
C808 C809 1.502 . S
C808 C810 1.561 . S
C808 C811 1.526 . S
C809 H793 0.959 . S
C809 H794 0.959 . S
C809 H795 0.961 . S
C809 C808 1.502 . S
C810 H796 0.960 . S
C810 H797 0.961 . S
C810 H798 0.959 . S
C810 C808 1.561 . S
C811 C808 1.526 . S
C811 C812 1.396 . S
C811 C816 1.390 . S
C812 C806 1.465 . S
C812 C811 1.396 . S
C812 C813 1.399 . S
C813 H799 0.929 . S
C813 C812 1.399 . S
C813 C814 1.385 . S
C814 H800 0.931 1_554 S
C814 C813 1.385 . S
C814 C815 1.389 . S
C815 C814 1.389 . S
C815 C816 1.387 . S
C816 H801 0.930 . S
C816 C811 1.390 . S
C816 C815 1.387 . S
H817 C829 0.930 . S
H818 C831 0.930 . S
H819 C832 0.930 . S
H820 C836 0.959 . S
H821 C836 0.981 . S
H822 C836 0.961 . S
H823 C837 0.960 . S
H824 C837 0.961 . S
H825 C837 0.959 . S
H826 C840 0.929 . S
H827 C841 0.931 . S
H828 C843 0.930 . S
C829 H817 0.930 . S
C829 C830 1.399 . S
C829 C834 1.399 . S
C830 C829 1.399 . S
C830 C831 1.376 . S
C831 H818 0.930 . S
C831 C830 1.376 . S
C831 C832 1.388 . S
C832 H819 0.930 . S
C832 C831 1.388 . S
C832 C833 1.390 . S
C833 C832 1.390 . S
C833 C834 1.394 . S
C833 C839 1.465 . S
C834 C829 1.399 . S
C834 C833 1.394 . S
C834 C835 1.516 . S
C835 C834 1.516 . S
C835 C836 1.502 . S
C835 C837 1.561 . S
C835 C838 1.526 . S
C836 H820 0.959 . S
C836 H821 0.981 . S
C836 H822 0.961 . S
C836 C835 1.502 . S
C837 H823 0.960 . S
C837 H824 0.961 . S
C837 H825 0.959 . S
C837 C835 1.561 . S
C838 C835 1.526 . S
C838 C839 1.396 . S
C838 C843 1.390 . S
C839 C833 1.465 . S
C839 C838 1.396 . S
C839 C840 1.399 . S
C840 H826 0.929 . S
C840 C839 1.399 . S
C840 C841 1.385 . S
C841 H827 0.931 . S
C841 C840 1.385 . S
C841 C842 1.389 . S
C842 C841 1.389 . S
C842 C843 1.387 . S
C843 H828 0.930 . S
C843 C838 1.390 . S
C843 C842 1.387 . S
H844 C856 0.930 . S
H845 C858 0.930 . S
H846 C859 0.930 . S
H847 C863 0.959 . S
H848 C863 0.959 . S
H849 C863 0.961 . S
H850 C864 0.960 . S
H851 C864 0.961 . S
H852 C864 0.959 . S
H853 C867 0.929 . S
H854 C868 0.931 . S
H855 C870 0.930 . S
C856 H844 0.930 . S
C856 C857 1.399 . S
C856 C861 1.399 . S
C857 C856 1.399 . S
C857 C858 1.376 . S
C858 H845 0.930 . S
C858 C857 1.376 . S
C858 C859 1.388 . S
C859 H846 0.930 . S
C859 C858 1.388 . S
C859 C860 1.390 . S
C860 C859 1.390 . S
C860 C861 1.394 . S
C860 C866 1.465 . S
C861 C856 1.399 . S
C861 C860 1.394 . S
C861 C862 1.516 . S
C862 C861 1.516 . S
C862 C863 1.502 . S
C862 C864 1.561 . S
C862 C865 1.526 . S
C863 H847 0.959 . S
C863 H848 0.959 . S
C863 H849 0.961 . S
C863 C862 1.502 . S
C864 H850 0.960 . S
C864 H851 0.961 . S
C864 H852 0.959 . S
C864 C862 1.561 . S
C865 C862 1.526 . S
C865 C866 1.396 . S
C865 C870 1.390 . S
C866 C860 1.465 . S
C866 C865 1.396 . S
C866 C867 1.399 . S
C867 H853 0.929 . S
C867 C866 1.399 . S
C867 C868 1.385 . S
C868 H854 0.931 . S
C868 C867 1.385 . S
C868 C869 1.389 . S
C869 C868 1.389 . S
C869 C870 1.387 . S
C870 H855 0.930 . S
C870 C865 1.390 . S
C870 C869 1.387 . S
H871 C883 0.930 . S
H872 C885 0.930 . S
H873 C886 0.930 . S
H874 C890 0.959 . S
H875 C890 0.959 . S
H876 C890 0.961 . S
H877 C891 0.960 . S
H878 C891 0.961 . S
H879 C891 0.959 . S
H880 C894 0.929 . S
H881 C895 0.931 . S
H882 C897 0.930 . S
C883 H871 0.930 . S
C883 C884 1.399 . S
C883 C888 1.399 . S
C884 C883 1.399 . S
C884 C885 1.376 . S
C885 H872 0.930 . S
C885 C884 1.376 . S
C885 C886 1.388 . S
C886 H873 0.930 . S
C886 C885 1.388 . S
C886 C887 1.390 . S
C887 C886 1.390 . S
C887 C888 1.394 . S
C887 C893 1.465 . S
C888 C883 1.399 . S
C888 C887 1.394 . S
C888 C889 1.516 . S
C889 C888 1.516 . S
C889 C890 1.502 . S
C889 C891 1.561 . S
C889 C892 1.526 . S
C890 H874 0.959 . S
C890 H875 0.959 . S
C890 H876 0.961 . S
C890 C889 1.502 . S
C891 H877 0.960 . S
C891 H878 0.961 . S
C891 H879 0.959 . S
C891 C889 1.561 . S
C892 C889 1.526 . S
C892 C893 1.396 . S
C892 C897 1.390 . S
C893 C887 1.465 . S
C893 C892 1.396 . S
C893 C894 1.399 . S
C894 H880 0.929 . S
C894 C893 1.399 . S
C894 C895 1.385 . S
C895 H881 0.931 . S
C895 C894 1.385 . S
C895 C896 1.389 . S
C896 C895 1.389 . S
C896 C897 1.387 . S
C897 H882 0.930 . S
C897 C892 1.390 . S
C897 C896 1.387 . S
H898 C910 0.930 . S
H899 C912 0.930 . S
H900 C913 0.930 . S
H901 C917 0.959 . S
H902 C917 0.959 . S
H903 C917 0.961 . S
H904 C918 0.960 . S
H905 C918 0.961 . S
H906 C918 0.959 . S
H907 C921 0.929 . S
H908 C922 0.931 . S
H909 C924 0.930 . S
C910 H898 0.930 . S
C910 C911 1.399 . S
C910 C915 1.399 . S
C911 C910 1.399 . S
C911 C912 1.376 . S
C912 H899 0.930 . S
C912 C911 1.376 . S
C912 C913 1.388 . S
C913 H900 0.930 . S
C913 C912 1.388 . S
C913 C914 1.390 . S
C914 C913 1.390 . S
C914 C915 1.394 . S
C914 C920 1.465 . S
C915 C910 1.399 . S
C915 C914 1.394 . S
C915 C916 1.516 . S
C916 C915 1.516 . S
C916 C917 1.502 . S
C916 C918 1.561 . S
C916 C919 1.526 . S
C917 H901 0.959 . S
C917 H902 0.959 . S
C917 H903 0.961 . S
C917 C916 1.502 . S
C918 H904 0.960 . S
C918 H905 0.961 . S
C918 H906 0.959 . S
C918 C916 1.561 . S
C919 C916 1.526 . S
C919 C920 1.396 . S
C919 C924 1.390 . S
C920 C914 1.465 . S
C920 C919 1.396 . S
C920 C921 1.399 . S
C921 H907 0.929 . S
C921 C920 1.399 . S
C921 C922 1.385 . S
C922 H908 0.931 . S
C922 C921 1.385 . S
C922 C923 1.389 . S
C923 C922 1.389 . S
C923 C924 1.387 . S
C924 H909 0.930 . S
C924 C919 1.390 . S
C924 C923 1.387 . S
H925 C937 0.930 . S
H926 C939 0.930 . S
H927 C940 0.930 . S
H928 C944 0.959 . S
H929 C944 0.978 . S
H930 C944 0.961 . S
H931 C945 0.960 . S
H932 C945 0.961 . S
H933 C945 0.959 . S
H934 C948 0.929 . S
H935 C949 0.931 . S
H936 C951 0.930 . S
C937 H925 0.930 . S
C937 C938 1.399 . S
C937 C942 1.399 . S
C938 C937 1.399 . S
C938 C939 1.376 . S
C939 H926 0.930 . S
C939 C938 1.376 . S
C939 C940 1.388 . S
C940 H927 0.930 . S
C940 C939 1.388 . S
C940 C941 1.390 . S
C941 C940 1.390 . S
C941 C942 1.394 . S
C941 C947 1.465 . S
C942 C937 1.399 . S
C942 C941 1.394 . S
C942 C943 1.516 . S
C943 C942 1.516 . S
C943 C944 1.502 . S
C943 C945 1.561 . S
C943 C946 1.526 . S
C944 H928 0.959 . S
C944 H929 0.978 . S
C944 H930 0.961 . S
C944 C943 1.502 . S
C945 H931 0.960 . S
C945 H932 0.961 . S
C945 H933 0.959 . S
C945 C943 1.561 . S
C946 C943 1.526 . S
C946 C947 1.396 . S
C946 C951 1.390 . S
C947 C941 1.465 . S
C947 C946 1.396 . S
C947 C948 1.399 . S
C948 H934 0.929 . S
C948 C947 1.399 . S
C948 C949 1.385 . S
C949 H935 0.931 . S
C949 C948 1.385 . S
C949 C950 1.389 . S
C950 C949 1.389 . S
C950 C951 1.387 . S
C951 H936 0.930 . S
C951 C946 1.390 . S
C951 C950 1.387 . S
H952 C964 0.930 . S
H953 C966 0.930 . S
H954 C967 0.930 . S
H955 C971 0.959 . S
H956 C971 0.959 . S
H957 C971 0.961 . S
H958 C972 0.960 . S
H959 C972 0.961 . S
H960 C972 0.959 . S
H961 C975 0.929 1_556 S
H962 C976 0.931 1_556 S
H963 C978 0.930 . S
C964 H952 0.930 . S
C964 C965 1.399 . S
C964 C969 1.399 . S
C965 C964 1.399 . S
C965 C966 1.376 . S
C966 H953 0.930 . S
C966 C965 1.376 . S
C966 C967 1.388 . S
C967 H954 0.930 . S
C967 C966 1.388 . S
C967 C968 1.390 . S
C968 C967 1.390 . S
C968 C969 1.394 . S
C968 C974 1.465 . S
C969 C964 1.399 . S
C969 C968 1.394 . S
C969 C970 1.516 . S
C970 C969 1.516 . S
C970 C971 1.502 . S
C970 C972 1.561 . S
C970 C973 1.526 . S
C971 H955 0.959 . S
C971 H956 0.959 . S
C971 H957 0.961 . S
C971 C970 1.502 . S
C972 H958 0.960 . S
C972 H959 0.961 . S
C972 H960 0.959 . S
C972 C970 1.561 . S
C973 C970 1.526 . S
C973 C974 1.396 . S
C973 C978 1.390 . S
C974 C968 1.465 . S
C974 C973 1.396 . S
C974 C975 1.399 . S
C975 H961 0.929 1_554 S
C975 C974 1.399 . S
C975 C976 1.385 . S
C976 H962 0.931 1_554 S
C976 C975 1.385 . S
C976 C977 1.389 . S
C977 C976 1.389 . S
C977 C978 1.387 . S
C978 H963 0.930 . S
C978 C973 1.390 . S
C978 C977 1.387 . S
H979 C991 0.930 . S
H980 C993 0.930 . S
H981 C994 0.930 . S
H982 C998 0.959 . S
H983 C998 0.959 . S
H984 C998 0.961 . S
H985 C999 0.960 . S
H986 C999 0.961 . S
H987 C999 0.959 . S
H988 C1002 0.929 . S
H989 C1003 0.931 . S
H990 C1005 0.930 . S
C991 H979 0.930 . S
C991 C992 1.399 . S
C991 C996 1.399 . S
C992 C991 1.399 . S
C992 C993 1.376 . S
C993 H980 0.930 . S
C993 C992 1.376 . S
C993 C994 1.388 . S
C994 H981 0.930 . S
C994 C993 1.388 . S
C994 C995 1.390 . S
C995 C994 1.390 . S
C995 C996 1.394 . S
C995 C1001 1.465 . S
C996 C991 1.399 . S
C996 C995 1.394 . S
C996 C997 1.516 . S
C997 C996 1.516 . S
C997 C998 1.502 . S
C997 C999 1.561 . S
C997 C1000 1.526 . S
C998 H982 0.959 . S
C998 H983 0.959 . S
C998 H984 0.961 . S
C998 C997 1.502 . S
C999 H985 0.960 . S
C999 H986 0.961 . S
C999 H987 0.959 . S
C999 C997 1.561 . S
C1000 C997 1.526 . S
C1000 C1001 1.396 . S
C1000 C1005 1.390 . S
C1001 C995 1.465 . S
C1001 C1000 1.396 . S
C1001 C1002 1.399 . S
C1002 H988 0.929 . S
C1002 C1001 1.399 . S
C1002 C1003 1.385 . S
C1003 H989 0.931 . S
C1003 C1002 1.385 . S
C1003 C1004 1.389 . S
C1004 C1003 1.389 . S
C1004 C1005 1.387 . S
C1005 H990 0.930 . S
C1005 C1000 1.390 . S
C1005 C1004 1.387 . S
H1006 C1018 0.930 . S
H1007 C1020 0.930 . S
H1008 C1021 0.930 . S
H1009 C1025 0.959 . S
H1010 C1025 0.959 . S
H1011 C1025 0.961 . S
H1012 C1026 0.960 . S
H1013 C1026 0.961 . S
H1014 C1026 0.959 . S
H1015 C1029 0.929 . S
H1016 C1030 0.931 . S
H1017 C1032 0.930 . S
C1018 H1006 0.930 . S
C1018 C1019 1.399 . S
C1018 C1023 1.399 . S
C1019 C1018 1.399 . S
C1019 C1020 1.376 . S
C1020 H1007 0.930 . S
C1020 C1019 1.376 . S
C1020 C1021 1.388 . S
C1021 H1008 0.930 . S
C1021 C1020 1.388 . S
C1021 C1022 1.390 . S
C1022 C1021 1.390 . S
C1022 C1023 1.394 . S
C1022 C1028 1.465 . S
C1023 C1018 1.399 . S
C1023 C1022 1.394 . S
C1023 C1024 1.516 . S
C1024 C1023 1.516 . S
C1024 C1025 1.502 . S
C1024 C1026 1.561 . S
C1024 C1027 1.526 . S
C1025 H1009 0.959 . S
C1025 H1010 0.959 . S
C1025 H1011 0.961 . S
C1025 C1024 1.502 . S
C1026 H1012 0.960 . S
C1026 H1013 0.961 . S
C1026 H1014 0.959 . S
C1026 C1024 1.561 . S
C1027 C1024 1.526 . S
C1027 C1028 1.396 . S
C1027 C1032 1.390 . S
C1028 C1022 1.465 . S
C1028 C1027 1.396 . S
C1028 C1029 1.399 . S
C1029 H1015 0.929 . S
C1029 C1028 1.399 . S
C1029 C1030 1.385 . S
C1030 H1016 0.931 . S
C1030 C1029 1.385 . S
C1030 C1031 1.389 . S
C1031 C1030 1.389 . S
C1031 C1032 1.387 . S
C1032 H1017 0.930 . S
C1032 C1027 1.390 . S
C1032 C1031 1.387 . S
H1033 C1045 0.930 . S
H1034 C1047 0.930 . S
H1035 C1048 0.930 . S
H1036 C1052 0.959 . S
H1037 C1052 0.959 . S
H1038 C1052 0.961 . S
H1039 C1053 0.960 . S
H1040 C1053 0.961 . S
H1041 C1053 0.959 . S
H1042 C1056 0.929 . S
H1043 C1057 0.931 . S
H1044 C1059 0.930 . S
C1045 H1033 0.930 . S
C1045 C1046 1.399 . S
C1045 C1050 1.399 . S
C1046 C1045 1.399 . S
C1046 C1047 1.376 . S
C1047 H1034 0.930 . S
C1047 C1046 1.376 . S
C1047 C1048 1.388 . S
C1048 H1035 0.930 . S
C1048 C1047 1.388 . S
C1048 C1049 1.390 . S
C1049 C1048 1.390 . S
C1049 C1050 1.394 . S
C1049 C1055 1.465 . S
C1050 C1045 1.399 . S
C1050 C1049 1.394 . S
C1050 C1051 1.516 . S
C1051 C1050 1.516 . S
C1051 C1052 1.502 . S
C1051 C1053 1.561 . S
C1051 C1054 1.526 . S
C1052 H1036 0.959 . S
C1052 H1037 0.959 . S
C1052 H1038 0.961 . S
C1052 C1051 1.502 . S
C1053 H1039 0.960 . S
C1053 H1040 0.961 . S
C1053 H1041 0.959 . S
C1053 C1051 1.561 . S
C1054 C1051 1.526 . S
C1054 C1055 1.396 . S
C1054 C1059 1.390 . S
C1055 C1049 1.465 . S
C1055 C1054 1.396 . S
C1055 C1056 1.399 . S
C1056 H1042 0.929 . S
C1056 C1055 1.399 . S
C1056 C1057 1.385 . S
C1057 H1043 0.931 . S
C1057 C1056 1.385 . S
C1057 C1058 1.389 . S
C1058 C1057 1.389 . S
C1058 C1059 1.387 . S
C1059 H1044 0.930 . S
C1059 C1054 1.390 . S
C1059 C1058 1.387 . S
H1060 C1072 0.930 . S
H1061 C1074 0.930 . S
H1062 C1075 0.930 . S
H1063 C1079 0.959 . S
H1064 C1079 0.959 . S
H1065 C1079 0.961 . S
H1066 C1080 0.960 . S
H1067 C1080 0.961 . S
H1068 C1080 0.959 . S
H1069 C1083 0.929 . S
H1070 C1084 0.931 . S
H1071 C1086 0.930 . S
C1072 H1060 0.930 . S
C1072 C1073 1.399 . S
C1072 C1077 1.399 . S
C1073 C1072 1.399 . S
C1073 C1074 1.376 . S
C1074 H1061 0.930 . S
C1074 C1073 1.376 . S
C1074 C1075 1.388 . S
C1075 H1062 0.930 . S
C1075 C1074 1.388 . S
C1075 C1076 1.390 . S
C1076 C1075 1.390 . S
C1076 C1077 1.394 . S
C1076 C1082 1.465 . S
C1077 C1072 1.399 . S
C1077 C1076 1.394 . S
C1077 C1078 1.516 . S
C1078 C1077 1.516 . S
C1078 C1079 1.502 . S
C1078 C1080 1.561 . S
C1078 C1081 1.526 . S
C1079 H1063 0.959 . S
C1079 H1064 0.959 . S
C1079 H1065 0.961 . S
C1079 C1078 1.502 . S
C1080 H1066 0.960 . S
C1080 H1067 0.961 . S
C1080 H1068 0.959 . S
C1080 C1078 1.561 . S
C1081 C1078 1.526 . S
C1081 C1082 1.396 . S
C1081 C1086 1.390 . S
C1082 C1076 1.465 . S
C1082 C1081 1.396 . S
C1082 C1083 1.399 . S
C1083 H1069 0.929 . S
C1083 C1082 1.399 . S
C1083 C1084 1.385 . S
C1084 H1070 0.931 . S
C1084 C1083 1.385 . S
C1084 C1085 1.389 . S
C1085 C1084 1.389 . S
C1085 C1086 1.387 . S
C1086 H1071 0.930 . S
C1086 C1081 1.390 . S
C1086 C1085 1.387 . S
H1087 C1099 0.930 . S
H1088 C1101 0.930 . S
H1089 C1102 0.930 . S
H1090 C1106 0.959 . S
H1091 C1106 0.959 . S
H1092 C1106 0.961 . S
H1093 C1107 0.960 . S
H1094 C1107 0.961 . S
H1095 C1107 0.959 . S
H1096 C1110 0.929 . S
H1097 C1111 0.931 . S
H1098 C1113 0.930 . S
C1099 H1087 0.930 . S
C1099 C1100 1.399 . S
C1099 C1104 1.399 . S
C1100 C1099 1.399 . S
C1100 C1101 1.376 . S
C1101 H1088 0.930 . S
C1101 C1100 1.376 . S
C1101 C1102 1.388 . S
C1102 H1089 0.930 . S
C1102 C1101 1.388 . S
C1102 C1103 1.390 . S
C1103 C1102 1.390 . S
C1103 C1104 1.394 . S
C1103 C1109 1.465 . S
C1104 C1099 1.399 . S
C1104 C1103 1.394 . S
C1104 C1105 1.516 . S
C1105 C1104 1.516 . S
C1105 C1106 1.502 . S
C1105 C1107 1.561 . S
C1105 C1108 1.526 . S
C1106 H1090 0.959 . S
C1106 H1091 0.959 . S
C1106 H1092 0.961 . S
C1106 C1105 1.502 . S
C1107 H1093 0.960 . S
C1107 H1094 0.961 . S
C1107 H1095 0.959 . S
C1107 C1105 1.561 . S
C1108 C1105 1.526 . S
C1108 C1109 1.396 . S
C1108 C1113 1.390 . S
C1109 C1103 1.465 . S
C1109 C1108 1.396 . S
C1109 C1110 1.399 . S
C1110 H1096 0.929 . S
C1110 C1109 1.399 . S
C1110 C1111 1.385 . S
C1111 H1097 0.931 . S
C1111 C1110 1.385 . S
C1111 C1112 1.389 . S
C1112 C1111 1.389 . S
C1112 C1113 1.387 . S
C1113 H1098 0.930 . S
C1113 C1108 1.390 . S
C1113 C1112 1.387 . S
H1114 C1126 0.930 . S
H1115 C1128 0.930 . S
H1116 C1129 0.930 . S
H1117 C1133 0.959 . S
H1118 C1133 0.959 . S
H1119 C1133 0.961 . S
H1120 C1134 0.960 . S
H1121 C1134 0.961 . S
H1122 C1134 0.959 . S
H1123 C1137 0.929 . S
H1124 C1138 0.931 . S
H1125 C1140 0.930 . S
C1126 H1114 0.930 . S
C1126 C1127 1.399 . S
C1126 C1131 1.399 . S
C1127 C1126 1.399 . S
C1127 C1128 1.376 . S
C1128 H1115 0.930 . S
C1128 C1127 1.376 . S
C1128 C1129 1.388 . S
C1129 H1116 0.930 . S
C1129 C1128 1.388 . S
C1129 C1130 1.390 . S
C1130 C1129 1.390 . S
C1130 C1131 1.394 . S
C1130 C1136 1.465 . S
C1131 C1126 1.399 . S
C1131 C1130 1.394 . S
C1131 C1132 1.516 . S
C1132 C1131 1.516 . S
C1132 C1133 1.502 . S
C1132 C1134 1.561 . S
C1132 C1135 1.526 . S
C1133 H1117 0.959 . S
C1133 H1118 0.959 . S
C1133 H1119 0.961 . S
C1133 C1132 1.502 . S
C1134 H1120 0.960 . S
C1134 H1121 0.961 . S
C1134 H1122 0.959 . S
C1134 C1132 1.561 . S
C1135 C1132 1.526 . S
C1135 C1136 1.396 . S
C1135 C1140 1.390 . S
C1136 C1130 1.465 . S
C1136 C1135 1.396 . S
C1136 C1137 1.399 . S
C1137 H1123 0.929 . S
C1137 C1136 1.399 . S
C1137 C1138 1.385 . S
C1138 H1124 0.931 . S
C1138 C1137 1.385 . S
C1138 C1139 1.389 . S
C1139 C1138 1.389 . S
C1139 C1140 1.387 . S
C1140 H1125 0.930 . S
C1140 C1135 1.390 . S
C1140 C1139 1.387 . S
H1141 C1153 0.930 . S
H1142 C1155 0.930 . S
H1143 C1156 0.930 . S
H1144 C1160 0.959 . S
H1145 C1160 0.959 . S
H1146 C1160 0.961 . S
H1147 C1161 0.960 . S
H1148 C1161 0.961 . S
H1149 C1161 0.959 . S
H1150 C1164 0.929 . S
H1151 C1165 0.931 . S
H1152 C1167 0.930 . S
C1153 H1141 0.930 . S
C1153 C1154 1.399 . S
C1153 C1158 1.399 . S
C1154 C1153 1.399 . S
C1154 C1155 1.376 . S
C1155 H1142 0.930 . S
C1155 C1154 1.376 . S
C1155 C1156 1.388 . S
C1156 H1143 0.930 . S
C1156 C1155 1.388 . S
C1156 C1157 1.390 . S
C1157 C1156 1.390 . S
C1157 C1158 1.394 . S
C1157 C1163 1.465 . S
C1158 C1153 1.399 . S
C1158 C1157 1.394 . S
C1158 C1159 1.516 . S
C1159 C1158 1.516 . S
C1159 C1160 1.502 . S
C1159 C1161 1.561 . S
C1159 C1162 1.526 . S
C1160 H1144 0.959 . S
C1160 H1145 0.959 . S
C1160 H1146 0.961 . S
C1160 C1159 1.502 . S
C1161 H1147 0.960 . S
C1161 H1148 0.961 . S
C1161 H1149 0.959 . S
C1161 C1159 1.561 . S
C1162 C1159 1.526 . S
C1162 C1163 1.396 . S
C1162 C1167 1.390 . S
C1163 C1157 1.465 . S
C1163 C1162 1.396 . S
C1163 C1164 1.399 . S
C1164 H1150 0.929 . S
C1164 C1163 1.399 . S
C1164 C1165 1.385 . S
C1165 H1151 0.931 . S
C1165 C1164 1.385 . S
C1165 C1166 1.389 . S
C1166 C1165 1.389 . S
C1166 C1167 1.387 . S
C1167 H1152 0.930 . S
C1167 C1162 1.390 . S
C1167 C1166 1.387 . S
H1168 C1180 0.930 . S
H1169 C1182 0.930 . S
H1170 C1183 0.930 . S
H1171 C1187 0.959 . S
H1172 C1187 0.959 . S
H1173 C1187 0.961 . S
H1174 C1188 0.960 . S
H1175 C1188 0.961 . S
H1176 C1188 0.959 . S
H1177 C1191 0.929 . S
H1178 C1192 0.931 . S
H1179 C1194 0.930 . S
C1180 H1168 0.930 . S
C1180 C1181 1.399 . S
C1180 C1185 1.399 . S
C1181 C1180 1.399 . S
C1181 C1182 1.376 . S
C1182 H1169 0.930 . S
C1182 C1181 1.376 . S
C1182 C1183 1.388 . S
C1183 H1170 0.930 . S
C1183 C1182 1.388 . S
C1183 C1184 1.390 . S
C1184 C1183 1.390 . S
C1184 C1185 1.394 . S
C1184 C1190 1.465 . S
C1185 C1180 1.399 . S
C1185 C1184 1.394 . S
C1185 C1186 1.516 . S
C1186 C1185 1.516 . S
C1186 C1187 1.502 . S
C1186 C1188 1.561 . S
C1186 C1189 1.526 . S
C1187 H1171 0.959 . S
C1187 H1172 0.959 . S
C1187 H1173 0.961 . S
C1187 C1186 1.502 . S
C1188 H1174 0.960 . S
C1188 H1175 0.961 . S
C1188 H1176 0.959 . S
C1188 C1186 1.561 . S
C1189 C1186 1.526 . S
C1189 C1190 1.396 . S
C1189 C1194 1.390 . S
C1190 C1184 1.465 . S
C1190 C1189 1.396 . S
C1190 C1191 1.399 . S
C1191 H1177 0.929 . S
C1191 C1190 1.399 . S
C1191 C1192 1.385 . S
C1192 H1178 0.931 . S
C1192 C1191 1.385 . S
C1192 C1193 1.389 . S
C1193 C1192 1.389 . S
C1193 C1194 1.387 . S
C1194 H1179 0.930 . S
C1194 C1189 1.390 . S
C1194 C1193 1.387 . S
H1195 C1207 0.930 . S
H1196 C1209 0.930 . S
H1197 C1210 0.930 . S
H1198 C1214 0.959 . S
H1199 C1214 0.959 . S
H1200 C1214 0.961 . S
H1201 C1215 0.960 . S
H1202 C1215 0.961 . S
H1203 C1215 0.959 . S
H1204 C1218 0.929 . S
H1205 C1219 0.931 . S
H1206 C1221 0.930 . S
C1207 H1195 0.930 . S
C1207 C1208 1.399 . S
C1207 C1212 1.399 . S
C1208 C1207 1.399 . S
C1208 C1209 1.376 . S
C1209 H1196 0.930 . S
C1209 C1208 1.376 . S
C1209 C1210 1.388 . S
C1210 H1197 0.930 . S
C1210 C1209 1.388 . S
C1210 C1211 1.390 . S
C1211 C1210 1.390 . S
C1211 C1212 1.394 . S
C1211 C1217 1.465 . S
C1212 C1207 1.399 . S
C1212 C1211 1.394 . S
C1212 C1213 1.516 . S
C1213 C1212 1.516 . S
C1213 C1214 1.502 . S
C1213 C1215 1.561 . S
C1213 C1216 1.526 . S
C1214 H1198 0.959 . S
C1214 H1199 0.959 . S
C1214 H1200 0.961 . S
C1214 C1213 1.502 . S
C1215 H1201 0.960 . S
C1215 H1202 0.961 . S
C1215 H1203 0.959 . S
C1215 C1213 1.561 . S
C1216 C1213 1.526 . S
C1216 C1217 1.396 . S
C1216 C1221 1.390 . S
C1217 C1211 1.465 . S
C1217 C1216 1.396 . S
C1217 C1218 1.399 . S
C1218 H1204 0.929 . S
C1218 C1217 1.399 . S
C1218 C1219 1.385 . S
C1219 H1205 0.931 . S
C1219 C1218 1.385 . S
C1219 C1220 1.389 . S
C1220 C1219 1.389 . S
C1220 C1221 1.387 . S
C1221 H1206 0.930 . S
C1221 C1216 1.390 . S
C1221 C1220 1.387 . S
H1222 C1234 0.930 . S
H1223 C1236 0.930 . S
H1224 C1237 0.930 . S
H1225 C1241 0.959 . S
H1226 C1241 0.959 . S
H1227 C1241 0.961 . S
H1228 C1242 0.960 . S
H1229 C1242 0.961 . S
H1230 C1242 0.959 . S
H1231 C1245 0.929 . S
H1232 C1246 0.931 . S
H1233 C1248 0.930 . S
C1234 H1222 0.930 . S
C1234 C1235 1.399 . S
C1234 C1239 1.399 . S
C1235 C1234 1.399 . S
C1235 C1236 1.376 . S
C1236 H1223 0.930 . S
C1236 C1235 1.376 . S
C1236 C1237 1.388 . S
C1237 H1224 0.930 . S
C1237 C1236 1.388 . S
C1237 C1238 1.390 . S
C1238 C1237 1.390 . S
C1238 C1239 1.394 . S
C1238 C1244 1.465 . S
C1239 C1234 1.399 . S
C1239 C1238 1.394 . S
C1239 C1240 1.516 . S
C1240 C1239 1.516 . S
C1240 C1241 1.502 . S
C1240 C1242 1.561 . S
C1240 C1243 1.526 . S
C1241 H1225 0.959 . S
C1241 H1226 0.959 . S
C1241 H1227 0.961 . S
C1241 C1240 1.502 . S
C1242 H1228 0.960 . S
C1242 H1229 0.961 . S
C1242 H1230 0.959 . S
C1242 C1240 1.561 . S
C1243 C1240 1.526 . S
C1243 C1244 1.396 . S
C1243 C1248 1.390 . S
C1244 C1238 1.465 . S
C1244 C1243 1.396 . S
C1244 C1245 1.399 . S
C1245 H1231 0.929 . S
C1245 C1244 1.399 . S
C1245 C1246 1.385 . S
C1246 H1232 0.931 . S
C1246 C1245 1.385 . S
C1246 C1247 1.389 . S
C1247 C1246 1.389 . S
C1247 C1248 1.387 . S
C1248 H1233 0.930 . S
C1248 C1243 1.390 . S
C1248 C1247 1.387 . S
H1249 C1261 0.930 . S
H1250 C1263 0.930 . S
H1251 C1264 0.930 . S
H1252 C1268 0.959 . S
H1253 C1268 0.959 . S
H1254 C1268 0.961 . S
H1255 C1269 0.960 . S
H1256 C1269 0.961 . S
H1257 C1269 0.959 . S
H1258 C1272 0.929 . S
H1259 C1273 0.931 . S
H1260 C1275 0.930 . S
C1261 H1249 0.930 . S
C1261 C1262 1.399 . S
C1261 C1266 1.399 . S
C1262 C1261 1.399 . S
C1262 C1263 1.376 . S
C1263 H1250 0.930 . S
C1263 C1262 1.376 . S
C1263 C1264 1.388 . S
C1264 H1251 0.930 . S
C1264 C1263 1.388 . S
C1264 C1265 1.390 . S
C1265 C1264 1.390 . S
C1265 C1266 1.394 . S
C1265 C1271 1.465 . S
C1266 C1261 1.399 . S
C1266 C1265 1.394 . S
C1266 C1267 1.516 . S
C1267 C1266 1.516 . S
C1267 C1268 1.502 . S
C1267 C1269 1.561 . S
C1267 C1270 1.526 . S
C1268 H1252 0.959 . S
C1268 H1253 0.959 . S
C1268 H1254 0.961 . S
C1268 C1267 1.502 . S
C1269 H1255 0.960 . S
C1269 H1256 0.961 . S
C1269 H1257 0.959 . S
C1269 C1267 1.561 . S
C1270 C1267 1.526 . S
C1270 C1271 1.396 . S
C1270 C1275 1.390 . S
C1271 C1265 1.465 . S
C1271 C1270 1.396 . S
C1271 C1272 1.399 . S
C1272 H1258 0.929 . S
C1272 C1271 1.399 . S
C1272 C1273 1.385 . S
C1273 H1259 0.931 . S
C1273 C1272 1.385 . S
C1273 C1274 1.389 . S
C1274 C1273 1.389 . S
C1274 C1275 1.387 . S
C1275 H1260 0.930 . S
C1275 C1270 1.390 . S
C1275 C1274 1.387 . S
H1276 C1288 0.930 . S
H1277 C1290 0.930 . S
H1278 C1291 0.930 . S
H1279 C1295 0.959 . S
H1280 C1295 0.959 . S
H1281 C1295 0.961 . S
H1282 C1296 0.960 . S
H1283 C1296 0.961 . S
H1284 C1296 0.959 . S
H1285 C1299 0.929 . S
H1286 C1300 0.931 . S
H1287 C1302 0.930 . S
C1288 H1276 0.930 . S
C1288 C1289 1.399 . S
C1288 C1293 1.399 . S
C1289 C1288 1.399 . S
C1289 C1290 1.376 . S
C1290 H1277 0.930 . S
C1290 C1289 1.376 . S
C1290 C1291 1.388 . S
C1291 H1278 0.930 . S
C1291 C1290 1.388 . S
C1291 C1292 1.390 . S
C1292 C1291 1.390 . S
C1292 C1293 1.394 . S
C1292 C1298 1.465 . S
C1293 C1288 1.399 . S
C1293 C1292 1.394 . S
C1293 C1294 1.516 . S
C1294 C1293 1.516 . S
C1294 C1295 1.502 . S
C1294 C1296 1.561 . S
C1294 C1297 1.526 . S
C1295 H1279 0.959 . S
C1295 H1280 0.959 . S
C1295 H1281 0.961 . S
C1295 C1294 1.502 . S
C1296 H1282 0.960 . S
C1296 H1283 0.961 . S
C1296 H1284 0.959 . S
C1296 C1294 1.561 . S
C1297 C1294 1.526 . S
C1297 C1298 1.396 . S
C1297 C1302 1.390 . S
C1298 C1292 1.465 . S
C1298 C1297 1.396 . S
C1298 C1299 1.399 . S
C1299 H1285 0.929 . S
C1299 C1298 1.399 . S
C1299 C1300 1.385 . S
C1300 H1286 0.931 . S
C1300 C1299 1.385 . S
C1300 C1301 1.389 . S
C1301 C1300 1.389 . S
C1301 C1302 1.387 . S
C1302 H1287 0.930 . S
C1302 C1297 1.390 . S
C1302 C1301 1.387 . S
H1303 C1315 0.930 . S
H1304 C1317 0.930 . S
H1305 C1318 0.930 . S
H1306 C1322 0.959 . S
H1307 C1322 0.959 . S
H1308 C1322 0.961 . S
H1309 C1323 0.960 . S
H1310 C1323 0.961 . S
H1311 C1323 0.959 . S
H1312 C1326 0.929 . S
H1313 C1327 0.931 . S
H1314 C1329 0.930 . S
C1315 H1303 0.930 . S
C1315 C1316 1.399 . S
C1315 C1320 1.399 . S
C1316 C1315 1.399 . S
C1316 C1317 1.376 . S
C1317 H1304 0.930 . S
C1317 C1316 1.376 . S
C1317 C1318 1.388 . S
C1318 H1305 0.930 . S
C1318 C1317 1.388 . S
C1318 C1319 1.390 . S
C1319 C1318 1.390 . S
C1319 C1320 1.394 . S
C1319 C1325 1.465 . S
C1320 C1315 1.399 . S
C1320 C1319 1.394 . S
C1320 C1321 1.516 . S
C1321 C1320 1.516 . S
C1321 C1322 1.502 . S
C1321 C1323 1.561 . S
C1321 C1324 1.526 . S
C1322 H1306 0.959 . S
C1322 H1307 0.959 . S
C1322 H1308 0.961 . S
C1322 C1321 1.502 . S
C1323 H1309 0.960 . S
C1323 H1310 0.961 . S
C1323 H1311 0.959 . S
C1323 C1321 1.561 . S
C1324 C1321 1.526 . S
C1324 C1325 1.396 . S
C1324 C1329 1.390 . S
C1325 C1319 1.465 . S
C1325 C1324 1.396 . S
C1325 C1326 1.399 . S
C1326 H1312 0.929 . S
C1326 C1325 1.399 . S
C1326 C1327 1.385 . S
C1327 H1313 0.931 . S
C1327 C1326 1.385 . S
C1327 C1328 1.389 . S
C1328 C1327 1.389 . S
C1328 C1329 1.387 . S
C1329 H1314 0.930 . S
C1329 C1324 1.390 . S
C1329 C1328 1.387 . S
H1330 C1342 0.930 . S
H1331 C1344 0.930 . S
H1332 C1345 0.930 . S
H1333 C1349 0.959 . S
H1334 C1349 0.959 . S
H1335 C1349 0.961 . S
H1336 C1350 0.960 . S
H1337 C1350 0.961 . S
H1338 C1350 0.959 . S
H1339 C1353 0.929 . S
H1340 C1354 0.931 . S
H1341 C1356 0.930 . S
C1342 H1330 0.930 . S
C1342 C1343 1.399 . S
C1342 C1347 1.399 . S
C1343 C1342 1.399 . S
C1343 C1344 1.376 . S
C1344 H1331 0.930 . S
C1344 C1343 1.376 . S
C1344 C1345 1.388 . S
C1345 H1332 0.930 . S
C1345 C1344 1.388 . S
C1345 C1346 1.390 . S
C1346 C1345 1.390 . S
C1346 C1347 1.394 . S
C1346 C1352 1.465 . S
C1347 C1342 1.399 . S
C1347 C1346 1.394 . S
C1347 C1348 1.516 . S
C1348 C1347 1.516 . S
C1348 C1349 1.502 . S
C1348 C1350 1.561 . S
C1348 C1351 1.526 . S
C1349 H1333 0.959 . S
C1349 H1334 0.959 . S
C1349 H1335 0.961 . S
C1349 C1348 1.502 . S
C1350 H1336 0.960 . S
C1350 H1337 0.961 . S
C1350 H1338 0.959 . S
C1350 C1348 1.561 . S
C1351 C1348 1.526 . S
C1351 C1352 1.396 . S
C1351 C1356 1.390 . S
C1352 C1346 1.465 . S
C1352 C1351 1.396 . S
C1352 C1353 1.399 . S
C1353 H1339 0.929 . S
C1353 C1352 1.399 . S
C1353 C1354 1.385 . S
C1354 H1340 0.931 . S
C1354 C1353 1.385 . S
C1354 C1355 1.389 . S
C1355 C1354 1.389 . S
C1355 C1356 1.387 . S
C1356 H1341 0.930 . S
C1356 C1351 1.390 . S
C1356 C1355 1.387 . S
H1357 C1369 0.930 . S
H1358 C1371 0.930 . S
H1359 C1372 0.930 . S
H1360 C1376 0.959 . S
H1361 C1376 0.959 . S
H1362 C1376 0.961 . S
H1363 C1377 0.960 . S
H1364 C1377 0.961 . S
H1365 C1377 0.959 . S
H1366 C1380 0.929 . S
H1367 C1381 0.931 . S
H1368 C1383 0.930 . S
C1369 H1357 0.930 . S
C1369 C1370 1.399 . S
C1369 C1374 1.399 . S
C1370 C1369 1.399 . S
C1370 C1371 1.376 . S
C1371 H1358 0.930 . S
C1371 C1370 1.376 . S
C1371 C1372 1.388 . S
C1372 H1359 0.930 . S
C1372 C1371 1.388 . S
C1372 C1373 1.390 . S
C1373 C1372 1.390 . S
C1373 C1374 1.394 . S
C1373 C1379 1.465 . S
C1374 C1369 1.399 . S
C1374 C1373 1.394 . S
C1374 C1375 1.516 . S
C1375 C1374 1.516 . S
C1375 C1376 1.502 . S
C1375 C1377 1.561 . S
C1375 C1378 1.526 . S
C1376 H1360 0.959 . S
C1376 H1361 0.959 . S
C1376 H1362 0.961 . S
C1376 C1375 1.502 . S
C1377 H1363 0.960 . S
C1377 H1364 0.961 . S
C1377 H1365 0.959 . S
C1377 C1375 1.561 . S
C1378 C1375 1.526 . S
C1378 C1379 1.396 . S
C1378 C1383 1.390 . S
C1379 C1373 1.465 . S
C1379 C1378 1.396 . S
C1379 C1380 1.399 . S
C1380 H1366 0.929 . S
C1380 C1379 1.399 . S
C1380 C1381 1.385 . S
C1381 H1367 0.931 . S
C1381 C1380 1.385 . S
C1381 C1382 1.389 . S
C1382 C1381 1.389 . S
C1382 C1383 1.387 . S
C1383 H1368 0.930 . S
C1383 C1378 1.390 . S
C1383 C1382 1.387 . S
H1384 C1396 0.930 . S
H1385 C1398 0.930 . S
H1386 C1399 0.930 . S
H1387 C1403 0.959 . S
H1388 C1403 0.959 . S
H1389 C1403 0.961 . S
H1390 C1404 0.960 . S
H1391 C1404 0.961 . S
H1392 C1404 0.959 . S
H1393 C1407 0.929 . S
H1394 C1408 0.931 . S
H1395 C1410 0.930 . S
C1396 H1384 0.930 . S
C1396 C1397 1.399 . S
C1396 C1401 1.399 . S
C1397 C1396 1.399 . S
C1397 C1398 1.376 . S
C1398 H1385 0.930 . S
C1398 C1397 1.376 . S
C1398 C1399 1.388 . S
C1399 H1386 0.930 . S
C1399 C1398 1.388 . S
C1399 C1400 1.390 . S
C1400 C1399 1.390 . S
C1400 C1401 1.394 . S
C1400 C1406 1.465 . S
C1401 C1396 1.399 . S
C1401 C1400 1.394 . S
C1401 C1402 1.516 . S
C1402 C1401 1.516 . S
C1402 C1403 1.502 . S
C1402 C1404 1.561 . S
C1402 C1405 1.526 . S
C1403 H1387 0.959 . S
C1403 H1388 0.959 . S
C1403 H1389 0.961 . S
C1403 C1402 1.502 . S
C1404 H1390 0.960 . S
C1404 H1391 0.961 . S
C1404 H1392 0.959 . S
C1404 C1402 1.561 . S
C1405 C1402 1.526 . S
C1405 C1406 1.396 . S
C1405 C1410 1.390 . S
C1406 C1400 1.465 . S
C1406 C1405 1.396 . S
C1406 C1407 1.399 . S
C1407 H1393 0.929 . S
C1407 C1406 1.399 . S
C1407 C1408 1.385 . S
C1408 H1394 0.931 . S
C1408 C1407 1.385 . S
C1408 C1409 1.389 . S
C1409 C1408 1.389 . S
C1409 C1410 1.387 . S
C1410 H1395 0.930 . S
C1410 C1405 1.390 . S
C1410 C1409 1.387 . S
H1411 C1423 0.930 . S
H1412 C1425 0.930 . S
H1413 C1426 0.930 . S
H1414 C1430 0.959 . S
H1415 C1430 0.959 . S
H1416 C1430 0.961 . S
H1417 C1431 0.960 . S
H1418 C1431 0.961 . S
H1419 C1431 0.959 . S
H1420 C1434 0.929 . S
H1421 C1435 0.931 . S
H1422 C1437 0.930 . S
C1423 H1411 0.930 . S
C1423 C1424 1.399 . S
C1423 C1428 1.399 . S
C1424 C1423 1.399 . S
C1424 C1425 1.376 . S
C1425 H1412 0.930 . S
C1425 C1424 1.376 . S
C1425 C1426 1.388 . S
C1426 H1413 0.930 . S
C1426 C1425 1.388 . S
C1426 C1427 1.390 . S
C1427 C1426 1.390 . S
C1427 C1428 1.394 . S
C1427 C1433 1.465 . S
C1428 C1423 1.399 . S
C1428 C1427 1.394 . S
C1428 C1429 1.516 . S
C1429 C1428 1.516 . S
C1429 C1430 1.502 . S
C1429 C1431 1.561 . S
C1429 C1432 1.526 . S
C1430 H1414 0.959 . S
C1430 H1415 0.959 . S
C1430 H1416 0.961 . S
C1430 C1429 1.502 . S
C1431 H1417 0.960 . S
C1431 H1418 0.961 . S
C1431 H1419 0.959 . S
C1431 C1429 1.561 . S
C1432 C1429 1.526 . S
C1432 C1433 1.396 . S
C1432 C1437 1.390 . S
C1433 C1427 1.465 . S
C1433 C1432 1.396 . S
C1433 C1434 1.399 . S
C1434 H1420 0.929 . S
C1434 C1433 1.399 . S
C1434 C1435 1.385 . S
C1435 H1421 0.931 . S
C1435 C1434 1.385 . S
C1435 C1436 1.389 . S
C1436 C1435 1.389 . S
C1436 C1437 1.387 . S
C1437 H1422 0.930 . S
C1437 C1432 1.390 . S
C1437 C1436 1.387 . S
H1438 C1450 0.930 . S
H1439 C1452 0.930 . S
H1440 C1453 0.930 . S
H1441 C1457 0.959 . S
H1442 C1457 0.959 . S
H1443 C1457 0.961 . S
H1444 C1458 0.960 . S
H1445 C1458 0.961 . S
H1446 C1458 0.959 . S
H1447 C1461 0.929 . S
H1448 C1462 0.931 . S
H1449 C1464 0.930 . S
C1450 H1438 0.930 . S
C1450 C1451 1.399 . S
C1450 C1455 1.399 . S
C1451 C1450 1.399 . S
C1451 C1452 1.376 . S
C1452 H1439 0.930 . S
C1452 C1451 1.376 . S
C1452 C1453 1.388 . S
C1453 H1440 0.930 . S
C1453 C1452 1.388 . S
C1453 C1454 1.390 . S
C1454 C1453 1.390 . S
C1454 C1455 1.394 . S
C1454 C1460 1.465 . S
C1455 C1450 1.399 . S
C1455 C1454 1.394 . S
C1455 C1456 1.516 . S
C1456 C1455 1.516 . S
C1456 C1457 1.502 . S
C1456 C1458 1.561 . S
C1456 C1459 1.526 . S
C1457 H1441 0.959 . S
C1457 H1442 0.959 . S
C1457 H1443 0.961 . S
C1457 C1456 1.502 . S
C1458 H1444 0.960 . S
C1458 H1445 0.961 . S
C1458 H1446 0.959 . S
C1458 C1456 1.561 . S
C1459 C1456 1.526 . S
C1459 C1460 1.396 . S
C1459 C1464 1.390 . S
C1460 C1454 1.465 . S
C1460 C1459 1.396 . S
C1460 C1461 1.399 . S
C1461 H1447 0.929 . S
C1461 C1460 1.399 . S
C1461 C1462 1.385 . S
C1462 H1448 0.931 . S
C1462 C1461 1.385 . S
C1462 C1463 1.389 . S
C1463 C1462 1.389 . S
C1463 C1464 1.387 . S
C1464 H1449 0.930 . S
C1464 C1459 1.390 . S
C1464 C1463 1.387 . S
H1465 C1477 0.930 . S
H1466 C1479 0.930 . S
H1467 C1480 0.930 . S
H1468 C1484 0.959 . S
H1469 C1484 0.959 . S
H1470 C1484 0.961 . S
H1471 C1485 0.960 . S
H1472 C1485 0.961 . S
H1473 C1485 0.959 . S
H1474 C1488 0.929 . S
H1475 C1489 0.931 . S
H1476 C1491 0.930 . S
C1477 H1465 0.930 . S
C1477 C1478 1.399 . S
C1477 C1482 1.399 . S
C1478 C1477 1.399 . S
C1478 C1479 1.376 . S
C1479 H1466 0.930 . S
C1479 C1478 1.376 . S
C1479 C1480 1.388 . S
C1480 H1467 0.930 . S
C1480 C1479 1.388 . S
C1480 C1481 1.390 . S
C1481 C1480 1.390 . S
C1481 C1482 1.394 . S
C1481 C1487 1.465 . S
C1482 C1477 1.399 . S
C1482 C1481 1.394 . S
C1482 C1483 1.516 . S
C1483 C1482 1.516 . S
C1483 C1484 1.502 . S
C1483 C1485 1.561 . S
C1483 C1486 1.526 . S
C1484 H1468 0.959 . S
C1484 H1469 0.959 . S
C1484 H1470 0.961 . S
C1484 C1483 1.502 . S
C1485 H1471 0.960 . S
C1485 H1472 0.961 . S
C1485 H1473 0.959 . S
C1485 C1483 1.561 . S
C1486 C1483 1.526 . S
C1486 C1487 1.396 . S
C1486 C1491 1.390 . S
C1487 C1481 1.465 . S
C1487 C1486 1.396 . S
C1487 C1488 1.399 . S
C1488 H1474 0.929 . S
C1488 C1487 1.399 . S
C1488 C1489 1.385 . S
C1489 H1475 0.931 . S
C1489 C1488 1.385 . S
C1489 C1490 1.389 . S
C1490 C1489 1.389 . S
C1490 C1491 1.387 . S
C1491 H1476 0.930 . S
C1491 C1486 1.390 . S
C1491 C1490 1.387 . S
H1492 C1504 0.930 . S
H1493 C1506 0.930 . S
H1494 C1507 0.930 . S
H1495 C1511 0.959 . S
H1496 C1511 0.959 . S
H1497 C1511 0.961 . S
H1498 C1512 0.960 . S
H1499 C1512 0.961 . S
H1500 C1512 0.959 . S
H1501 C1515 0.929 . S
H1502 C1516 0.931 . S
H1503 C1518 0.930 . S
C1504 H1492 0.930 . S
C1504 C1505 1.399 . S
C1504 C1509 1.399 . S
C1505 C1504 1.399 . S
C1505 C1506 1.376 . S
C1506 H1493 0.930 . S
C1506 C1505 1.376 . S
C1506 C1507 1.388 . S
C1507 H1494 0.930 . S
C1507 C1506 1.388 . S
C1507 C1508 1.390 . S
C1508 C1507 1.390 . S
C1508 C1509 1.394 . S
C1508 C1514 1.465 . S
C1509 C1504 1.399 . S
C1509 C1508 1.394 . S
C1509 C1510 1.516 . S
C1510 C1509 1.516 . S
C1510 C1511 1.502 . S
C1510 C1512 1.561 . S
C1510 C1513 1.526 . S
C1511 H1495 0.959 . S
C1511 H1496 0.959 . S
C1511 H1497 0.961 . S
C1511 C1510 1.502 . S
C1512 H1498 0.960 . S
C1512 H1499 0.961 . S
C1512 H1500 0.959 . S
C1512 C1510 1.561 . S
C1513 C1510 1.526 . S
C1513 C1514 1.396 . S
C1513 C1518 1.390 . S
C1514 C1508 1.465 . S
C1514 C1513 1.396 . S
C1514 C1515 1.399 . S
C1515 H1501 0.929 . S
C1515 C1514 1.399 . S
C1515 C1516 1.385 . S
C1516 H1502 0.931 . S
C1516 C1515 1.385 . S
C1516 C1517 1.389 . S
C1517 C1516 1.389 . S
C1517 C1518 1.387 . S
C1518 H1503 0.930 . S
C1518 C1513 1.390 . S
C1518 C1517 1.387 . S
H1519 C1531 0.930 . S
H1520 C1533 0.930 . S
H1521 C1534 0.930 . S
H1522 C1538 0.959 . S
H1523 C1538 0.959 . S
H1524 C1538 0.961 . S
H1525 C1539 0.960 . S
H1526 C1539 0.961 . S
H1527 C1539 0.959 . S
H1528 C1542 0.929 . S
H1529 C1543 0.931 . S
H1530 C1545 0.930 . S
C1531 H1519 0.930 . S
C1531 C1532 1.399 . S
C1531 C1536 1.399 . S
C1532 C1531 1.399 . S
C1532 C1533 1.376 . S
C1533 H1520 0.930 . S
C1533 C1532 1.376 . S
C1533 C1534 1.388 . S
C1534 H1521 0.930 . S
C1534 C1533 1.388 . S
C1534 C1535 1.390 . S
C1535 C1534 1.390 . S
C1535 C1536 1.394 . S
C1535 C1541 1.465 . S
C1536 C1531 1.399 . S
C1536 C1535 1.394 . S
C1536 C1537 1.516 . S
C1537 C1536 1.516 . S
C1537 C1538 1.502 . S
C1537 C1539 1.561 . S
C1537 C1540 1.526 . S
C1538 H1522 0.959 . S
C1538 H1523 0.959 . S
C1538 H1524 0.961 . S
C1538 C1537 1.502 . S
C1539 H1525 0.960 . S
C1539 H1526 0.961 . S
C1539 H1527 0.959 . S
C1539 C1537 1.561 . S
C1540 C1537 1.526 . S
C1540 C1541 1.396 . S
C1540 C1545 1.390 . S
C1541 C1535 1.465 . S
C1541 C1540 1.396 . S
C1541 C1542 1.399 . S
C1542 H1528 0.929 . S
C1542 C1541 1.399 . S
C1542 C1543 1.385 . S
C1543 H1529 0.931 . S
C1543 C1542 1.385 . S
C1543 C1544 1.389 . S
C1544 C1543 1.389 . S
C1544 C1545 1.387 . S
C1545 H1530 0.930 . S
C1545 C1540 1.390 . S
C1545 C1544 1.387 . S
H1546 C1558 0.930 . S
H1547 C1560 0.930 . S
H1548 C1561 0.930 . S
H1549 C1565 0.959 . S
H1550 C1565 0.959 . S
H1551 C1565 0.961 . S
H1552 C1566 0.960 . S
H1553 C1566 0.961 . S
H1554 C1566 0.959 . S
H1555 C1569 0.929 . S
H1556 C1570 0.931 . S
H1557 C1572 0.930 . S
C1558 H1546 0.930 . S
C1558 C1559 1.399 . S
C1558 C1563 1.399 . S
C1559 C1558 1.399 . S
C1559 C1560 1.376 . S
C1560 H1547 0.930 . S
C1560 C1559 1.376 . S
C1560 C1561 1.388 . S
C1561 H1548 0.930 . S
C1561 C1560 1.388 . S
C1561 C1562 1.390 . S
C1562 C1561 1.390 . S
C1562 C1563 1.394 . S
C1562 C1568 1.465 . S
C1563 C1558 1.399 . S
C1563 C1562 1.394 . S
C1563 C1564 1.516 . S
C1564 C1563 1.516 . S
C1564 C1565 1.502 . S
C1564 C1566 1.561 . S
C1564 C1567 1.526 . S
C1565 H1549 0.959 . S
C1565 H1550 0.959 . S
C1565 H1551 0.961 . S
C1565 C1564 1.502 . S
C1566 H1552 0.960 . S
C1566 H1553 0.961 . S
C1566 H1554 0.959 . S
C1566 C1564 1.561 . S
C1567 C1564 1.526 . S
C1567 C1568 1.396 . S
C1567 C1572 1.390 . S
C1568 C1562 1.465 . S
C1568 C1567 1.396 . S
C1568 C1569 1.399 . S
C1569 H1555 0.929 . S
C1569 C1568 1.399 . S
C1569 C1570 1.385 . S
C1570 H1556 0.931 . S
C1570 C1569 1.385 . S
C1570 C1571 1.389 . S
C1571 C1570 1.389 . S
C1571 C1572 1.387 . S
C1572 H1557 0.930 . S
C1572 C1567 1.390 . S
C1572 C1571 1.387 . S
H1573 C1585 0.930 . S
H1574 C1587 0.930 . S
H1575 C1588 0.930 . S
H1576 C1592 0.959 . S
H1577 C1592 0.959 . S
H1578 C1592 0.961 . S
H1579 C1593 0.960 . S
H1580 C1593 0.961 . S
H1581 C1593 0.959 . S
H1582 C1596 0.929 . S
H1583 C1597 0.931 . S
H1584 C1599 0.930 . S
C1585 H1573 0.930 . S
C1585 C1586 1.399 . S
C1585 C1590 1.399 . S
C1586 C1585 1.399 . S
C1586 C1587 1.376 . S
C1587 H1574 0.930 . S
C1587 C1586 1.376 . S
C1587 C1588 1.388 . S
C1588 H1575 0.930 . S
C1588 C1587 1.388 . S
C1588 C1589 1.390 . S
C1589 C1588 1.390 . S
C1589 C1590 1.394 . S
C1589 C1595 1.465 . S
C1590 C1585 1.399 . S
C1590 C1589 1.394 . S
C1590 C1591 1.516 . S
C1591 C1590 1.516 . S
C1591 C1592 1.502 . S
C1591 C1593 1.561 . S
C1591 C1594 1.526 . S
C1592 H1576 0.959 . S
C1592 H1577 0.959 . S
C1592 H1578 0.961 . S
C1592 C1591 1.502 . S
C1593 H1579 0.960 . S
C1593 H1580 0.961 . S
C1593 H1581 0.959 . S
C1593 C1591 1.561 . S
C1594 C1591 1.526 . S
C1594 C1595 1.396 . S
C1594 C1599 1.390 . S
C1595 C1589 1.465 . S
C1595 C1594 1.396 . S
C1595 C1596 1.399 . S
C1596 H1582 0.929 . S
C1596 C1595 1.399 . S
C1596 C1597 1.385 . S
C1597 H1583 0.931 . S
C1597 C1596 1.385 . S
C1597 C1598 1.389 . S
C1598 C1597 1.389 . S
C1598 C1599 1.387 . S
C1599 H1584 0.930 . S
C1599 C1594 1.390 . S
C1599 C1598 1.387 . S
H1600 C1612 0.930 . S
H1601 C1614 0.930 . S
H1602 C1615 0.930 . S
H1603 C1619 0.959 . S
H1604 C1619 0.959 . S
H1605 C1619 0.961 . S
H1606 C1620 0.960 . S
H1607 C1620 0.961 . S
H1608 C1620 0.959 . S
H1609 C1623 0.929 . S
H1610 C1624 0.931 . S
H1611 C1626 0.930 . S
C1612 H1600 0.930 . S
C1612 C1613 1.399 . S
C1612 C1617 1.399 . S
C1613 C1612 1.399 . S
C1613 C1614 1.376 . S
C1614 H1601 0.930 . S
C1614 C1613 1.376 . S
C1614 C1615 1.388 . S
C1615 H1602 0.930 . S
C1615 C1614 1.388 . S
C1615 C1616 1.390 . S
C1616 C1615 1.390 . S
C1616 C1617 1.394 . S
C1616 C1622 1.465 . S
C1617 C1612 1.399 . S
C1617 C1616 1.394 . S
C1617 C1618 1.516 . S
C1618 C1617 1.516 . S
C1618 C1619 1.502 . S
C1618 C1620 1.561 . S
C1618 C1621 1.526 . S
C1619 H1603 0.959 . S
C1619 H1604 0.959 . S
C1619 H1605 0.961 . S
C1619 C1618 1.502 . S
C1620 H1606 0.960 . S
C1620 H1607 0.961 . S
C1620 H1608 0.959 . S
C1620 C1618 1.561 . S
C1621 C1618 1.526 . S
C1621 C1622 1.396 . S
C1621 C1626 1.390 . S
C1622 C1616 1.465 . S
C1622 C1621 1.396 . S
C1622 C1623 1.399 . S
C1623 H1609 0.929 . S
C1623 C1622 1.399 . S
C1623 C1624 1.385 . S
C1624 H1610 0.931 . S
C1624 C1623 1.385 . S
C1624 C1625 1.389 . S
C1625 C1624 1.389 . S
C1625 C1626 1.387 . S
C1626 H1611 0.930 . S
C1626 C1621 1.390 . S
C1626 C1625 1.387 . S
H1627 C1639 0.930 . S
H1628 C1641 0.930 . S
H1629 C1642 0.930 . S
H1630 C1646 0.959 . S
H1631 C1646 0.959 . S
H1632 C1646 0.961 . S
H1633 C1647 0.960 . S
H1634 C1647 0.961 . S
H1635 C1647 0.959 . S
H1636 C1650 0.929 . S
H1637 C1651 0.931 . S
H1638 C1653 0.930 . S
C1639 H1627 0.930 . S
C1639 C1640 1.399 . S
C1639 C1644 1.399 . S
C1640 C1639 1.399 . S
C1640 C1641 1.376 . S
C1641 H1628 0.930 . S
C1641 C1640 1.376 . S
C1641 C1642 1.388 . S
C1642 H1629 0.930 . S
C1642 C1641 1.388 . S
C1642 C1643 1.390 . S
C1643 C1642 1.390 . S
C1643 C1644 1.394 . S
C1643 C1649 1.465 . S
C1644 C1639 1.399 . S
C1644 C1643 1.394 . S
C1644 C1645 1.516 . S
C1645 C1644 1.516 . S
C1645 C1646 1.502 . S
C1645 C1647 1.561 . S
C1645 C1648 1.526 . S
C1646 H1630 0.959 . S
C1646 H1631 0.959 . S
C1646 H1632 0.961 . S
C1646 C1645 1.502 . S
C1647 H1633 0.960 . S
C1647 H1634 0.961 . S
C1647 H1635 0.959 . S
C1647 C1645 1.561 . S
C1648 C1645 1.526 . S
C1648 C1649 1.396 . S
C1648 C1653 1.390 . S
C1649 C1643 1.465 . S
C1649 C1648 1.396 . S
C1649 C1650 1.399 . S
C1650 H1636 0.929 . S
C1650 C1649 1.399 . S
C1650 C1651 1.385 . S
C1651 H1637 0.931 . S
C1651 C1650 1.385 . S
C1651 C1652 1.389 . S
C1652 C1651 1.389 . S
C1652 C1653 1.387 . S
C1653 H1638 0.930 . S
C1653 C1648 1.390 . S
C1653 C1652 1.387 . S
C383 C187 1.928 . S
C371 C19 1.977 . S
C410 C188 1.779 . S
C398 C24 1.822 . S
C437 C182 1.278 . S
C425 C59 1.241 . S
C452 C69 1.139 . S
C464 C181 1.154 . S
C479 C82 1.841 . S
C491 C184 1.773 . S
C518 C186 1.227 . S
C506 C118 1.237 . S
C533 C132 1.088 . S
C545 C185 1.178 . S
C560 C158 2.017 . S
C572 C183 1.911 . S
C599 C218 1.796 . S
C587 C4 1.570 . S
C614 C29 1.057 . S
C626 C249 0.992 . S
C653 C217 1.559 . S
C641 C44 1.486 . S
C680 C252 1.202 . S
C668 C79 1.114 . S
C695 C98 1.434 . S
C707 C215 1.424 . S
C734 C247 1.501 . S
C722 C112 1.400 . S
C749 C122 1.079 . S
C761 C220 1.108 . S
C776 C152 1.192 . S
C788 C254 1.270 . S
C803 C9 1.276 . S
C815 C250 1.317 . S
C830 C92 1.009 . S
C842 C253 0.943 . S
C869 C221 1.545 . S
C857 C102 1.489 . S
C896 C248 1.172 . S
C884 C138 1.218 . S
C911 C142 1.586 . S
C923 C214 1.796 . S
C938 C49 1.379 . S
C950 C251 1.479 . S
C977 C216 1.134 . S
C965 C64 1.068 . S
C992 C39 1.442 . S
C1004 C219 1.428 . S
C1019 C159 1.982 . S
C1031 C286 1.944 . S
C1046 C84 1.457 . S
C1058 C287 1.426 . S
C1085 C281 1.297 . S
C1073 C119 1.271 . S
C1112 C280 1.516 . S
C1100 C129 1.522 . S
C1127 C22 1.434 . S
C1139 C283 1.452 . S
C1166 C285 1.287 . S
C1154 C58 1.316 . S
C1181 C72 1.506 . S
C1193 C284 1.502 . S
C1208 C18 1.981 . S
C1220 C282 1.879 . S
C1235 C144 1.682 . S
C1247 C320 1.795 . S
C1274 C352 0.893 . S
C1262 C89 0.901 . S
C1289 C104 1.425 . S
C1301 C313 1.504 . S
C1316 C139 1.466 . S
C1328 C347 1.498 . S
C1355 C318 1.186 . S
C1343 C38 1.190 . S
C1370 C52 1.499 . S
C1382 C349 1.562 . S
C1409 C315 1.357 . S
C1397 C62 1.362 . S
C1436 C350 1.329 . S
C1424 C12 1.260 . S
C1463 C346 1.330 . S
C1451 C149 1.176 . S
C1478 C32 0.883 . S
C1490 C348 0.893 . S
C1505 C42 1.361 . S
C1517 C317 1.505 . S
C1544 C351 1.452 . S
C1532 C78 1.412 . S
C1559 C2 1.692 . S
C1571 C316 1.829 . S
C1586 C109 1.548 . S
C1598 C353 1.625 . S
C1625 C319 1.343 . S
C1613 C124 1.270 . S
C1652 C314 1.233 . S
C1640 C99 1.175 . S
