# Generated by pormake.
# Topology soc, (4,6)-cn, num edge types: 1
# Building blocks:
#     Node 0, Type 0, BuildingBlock: ESEHIV_clean_sbu_0, # of connection points: 4
#     Node 1, Type 0, BuildingBlock: ESEHIV_clean_sbu_0, # of connection points: 4
#     Node 2, Type 0, BuildingBlock: ESEHIV_clean_sbu_0, # of connection points: 4
#     Node 3, Type 0, BuildingBlock: ESEHIV_clean_sbu_0, # of connection points: 4
#     Node 4, Type 0, BuildingBlock: ESEHIV_clean_sbu_0, # of connection points: 4
#     Node 5, Type 0, BuildingBlock: ESEHIV_clean_sbu_0, # of connection points: 4
#     Node 6, Type 0, BuildingBlock: ESEHIV_clean_sbu_0, # of connection points: 4
#     Node 7, Type 0, BuildingBlock: ESEHIV_clean_sbu_0, # of connection points: 4
#     Node 8, Type 0, BuildingBlock: ESEHIV_clean_sbu_0, # of connection points: 4
#     Node 9, Type 0, BuildingBlock: ESEHIV_clean_sbu_0, # of connection points: 4
#     Node 10, Type 0, BuildingBlock: ESEHIV_clean_sbu_0, # of connection points: 4
#     Node 11, Type 0, BuildingBlock: ESEHIV_clean_sbu_0, # of connection points: 4
#     Node 12, Type 1, BuildingBlock: BETDAH_clean_sbu_0, # of connection points: 6
#     Node 13, Type 1, BuildingBlock: BETDAH_clean_sbu_0, # of connection points: 6
#     Node 14, Type 1, BuildingBlock: BETDAH_clean_sbu_0, # of connection points: 6
#     Node 15, Type 1, BuildingBlock: BETDAH_clean_sbu_0, # of connection points: 6
#     Node 16, Type 1, BuildingBlock: BETDAH_clean_sbu_0, # of connection points: 6
#     Node 17, Type 1, BuildingBlock: BETDAH_clean_sbu_0, # of connection points: 6
#     Node 18, Type 1, BuildingBlock: BETDAH_clean_sbu_0, # of connection points: 6
#     Node 19, Type 1, BuildingBlock: BETDAH_clean_sbu_0, # of connection points: 6
#     Edge 20, Type (0, 1), BuildingBlock: TEMPAE_clean_linker_10, # of connection points: 2
#     Edge 21, Type (0, 1), BuildingBlock: TEMPAE_clean_linker_10, # of connection points: 2
#     Edge 22, Type (0, 1), BuildingBlock: TEMPAE_clean_linker_10, # of connection points: 2
#     Edge 23, Type (0, 1), BuildingBlock: TEMPAE_clean_linker_10, # of connection points: 2
#     Edge 24, Type (0, 1), BuildingBlock: TEMPAE_clean_linker_10, # of connection points: 2
#     Edge 25, Type (0, 1), BuildingBlock: TEMPAE_clean_linker_10, # of connection points: 2
#     Edge 26, Type (0, 1), BuildingBlock: TEMPAE_clean_linker_10, # of connection points: 2
#     Edge 27, Type (0, 1), BuildingBlock: TEMPAE_clean_linker_10, # of connection points: 2
#     Edge 28, Type (0, 1), BuildingBlock: TEMPAE_clean_linker_10, # of connection points: 2
#     Edge 29, Type (0, 1), BuildingBlock: TEMPAE_clean_linker_10, # of connection points: 2
#     Edge 30, Type (0, 1), BuildingBlock: TEMPAE_clean_linker_10, # of connection points: 2
#     Edge 31, Type (0, 1), BuildingBlock: TEMPAE_clean_linker_10, # of connection points: 2
#     Edge 32, Type (0, 1), BuildingBlock: TEMPAE_clean_linker_10, # of connection points: 2
#     Edge 33, Type (0, 1), BuildingBlock: TEMPAE_clean_linker_10, # of connection points: 2
#     Edge 34, Type (0, 1), BuildingBlock: TEMPAE_clean_linker_10, # of connection points: 2
#     Edge 35, Type (0, 1), BuildingBlock: TEMPAE_clean_linker_10, # of connection points: 2
#     Edge 36, Type (0, 1), BuildingBlock: TEMPAE_clean_linker_10, # of connection points: 2
#     Edge 37, Type (0, 1), BuildingBlock: TEMPAE_clean_linker_10, # of connection points: 2
#     Edge 38, Type (0, 1), BuildingBlock: TEMPAE_clean_linker_10, # of connection points: 2
#     Edge 39, Type (0, 1), BuildingBlock: TEMPAE_clean_linker_10, # of connection points: 2
#     Edge 40, Type (0, 1), BuildingBlock: TEMPAE_clean_linker_10, # of connection points: 2
#     Edge 41, Type (0, 1), BuildingBlock: TEMPAE_clean_linker_10, # of connection points: 2
#     Edge 42, Type (0, 1), BuildingBlock: TEMPAE_clean_linker_10, # of connection points: 2
#     Edge 43, Type (0, 1), BuildingBlock: TEMPAE_clean_linker_10, # of connection points: 2
#     Edge 44, Type (0, 1), BuildingBlock: TEMPAE_clean_linker_10, # of connection points: 2
#     Edge 45, Type (0, 1), BuildingBlock: TEMPAE_clean_linker_10, # of connection points: 2
#     Edge 46, Type (0, 1), BuildingBlock: TEMPAE_clean_linker_10, # of connection points: 2
#     Edge 47, Type (0, 1), BuildingBlock: TEMPAE_clean_linker_10, # of connection points: 2
#     Edge 48, Type (0, 1), BuildingBlock: TEMPAE_clean_linker_10, # of connection points: 2
#     Edge 49, Type (0, 1), BuildingBlock: TEMPAE_clean_linker_10, # of connection points: 2
#     Edge 50, Type (0, 1), BuildingBlock: TEMPAE_clean_linker_10, # of connection points: 2
#     Edge 51, Type (0, 1), BuildingBlock: TEMPAE_clean_linker_10, # of connection points: 2
#     Edge 52, Type (0, 1), BuildingBlock: TEMPAE_clean_linker_10, # of connection points: 2
#     Edge 53, Type (0, 1), BuildingBlock: TEMPAE_clean_linker_10, # of connection points: 2
#     Edge 54, Type (0, 1), BuildingBlock: TEMPAE_clean_linker_10, # of connection points: 2
#     Edge 55, Type (0, 1), BuildingBlock: TEMPAE_clean_linker_10, # of connection points: 2
#     Edge 56, Type (0, 1), BuildingBlock: TEMPAE_clean_linker_10, # of connection points: 2
#     Edge 57, Type (0, 1), BuildingBlock: TEMPAE_clean_linker_10, # of connection points: 2
#     Edge 58, Type (0, 1), BuildingBlock: TEMPAE_clean_linker_10, # of connection points: 2
#     Edge 59, Type (0, 1), BuildingBlock: TEMPAE_clean_linker_10, # of connection points: 2
#     Edge 60, Type (0, 1), BuildingBlock: TEMPAE_clean_linker_10, # of connection points: 2
#     Edge 61, Type (0, 1), BuildingBlock: TEMPAE_clean_linker_10, # of connection points: 2
#     Edge 62, Type (0, 1), BuildingBlock: TEMPAE_clean_linker_10, # of connection points: 2
#     Edge 63, Type (0, 1), BuildingBlock: TEMPAE_clean_linker_10, # of connection points: 2
#     Edge 64, Type (0, 1), BuildingBlock: TEMPAE_clean_linker_10, # of connection points: 2
#     Edge 65, Type (0, 1), BuildingBlock: TEMPAE_clean_linker_10, # of connection points: 2
#     Edge 66, Type (0, 1), BuildingBlock: TEMPAE_clean_linker_10, # of connection points: 2
#     Edge 67, Type (0, 1), BuildingBlock: TEMPAE_clean_linker_10, # of connection points: 2
# Relax obj value: 0.182
# Max RMSD: 0.284
# Mean RMSD: 0.174
data_MOF--net-soc--node1-ESEHIV_clean_sbu_0--node2-BETDAH_clean_sbu_0--edge1-TEMPAE_clean_linker_10
_symmetry_space_group_name_H-M    P1
_symmetry_Int_Tables_number       1
_symmetry_cell_setting            triclinic
loop_
_symmetry_equiv_pos_as_xyz
'x, y, z'
_cell_length_a     51.640864
_cell_length_b     50.209449
_cell_length_c     43.959937
_cell_angle_alpha  81.861064
_cell_angle_beta   83.028246
_cell_angle_gamma 69.94441
loop_
_atom_site_label
_atom_site_type_symbol
_atom_site_fract_x
_atom_site_fract_y
_atom_site_fract_z
_atom_type_partial_charge
Cu0 Cu 0.04504 0.03181 0.37353 0.0
N1 N 0.0637 0.04876 0.39406 0.0
N2 N 0.08817 0.07596 0.4017 0.0
C3 C 0.07616 0.06754 0.38093 0.0
C4 C 0.08288 0.06192 0.42901 0.0
C5 C 0.06776 0.04519 0.42422 0.0
O6 O 0.07297 1.00106 0.35325 0.0
C7 C 1.00077 0.06108 0.33333 0.0
O8 O 0.99984 0.0359 0.32974 0.0
H9 H 0.07659 0.0746 0.35652 0.0
H10 H 0.06017 0.03152 0.44153 0.0
N11 N 1.02477 0.01409 0.40241 0.0
N12 N 0.99233 0.99448 0.4208 0.0
C13 C 0.99839 0.01537 0.40156 0.0
C14 C 0.03558 0.9921 0.42359 0.0
C15 C 1.01565 0.97998 0.43499 0.0
C16 C 0.09359 1.00309 0.33517 0.0
O17 O 0.09472 0.02843 0.32425 0.0
H18 H 0.9846 0.02962 0.38524 0.0
H19 H 0.0571 0.98398 0.42848 0.0
O20 O 1.01977 0.06275 0.34816 0.0
H21 H 0.08905 0.0639 0.45101 0.0
H22 H 1.01874 0.96077 0.45082 0.0
Cu23 Cu 0.0468 0.05948 0.74385 0.0
N24 N 0.03 0.0423 0.72102 0.0
N25 N 1.00598 0.01473 0.71319 0.0
C26 C 1.01303 0.02795 0.73391 0.0
C27 C 1.01895 0.02126 0.68605 0.0
C28 C 0.03389 0.03818 0.69099 0.0
O29 O 1.01732 0.08544 0.76868 0.0
C30 C 0.09442 0.01423 0.74577 0.0
O31 O 0.09268 0.02321 0.71628 0.0
H32 H 1.00657 0.02675 0.75827 0.0
H33 H 0.04759 0.04572 0.67418 0.0
N34 N 0.06482 0.08242 0.71961 0.0
N35 N 0.09123 0.11019 0.71059 0.0
C36 C 0.08249 0.0919 0.73118 0.0
C37 C 0.06221 0.09503 0.69046 0.0
C38 C 0.07872 0.1121 0.68475 0.0
C39 C 0.99971 0.10413 0.75189 0.0
O40 O 1.00311 0.10275 0.72197 0.0
H41 H 0.08855 0.0856 0.75454 0.0
H42 H 0.04861 0.09285 0.67485 0.0
O43 O 0.07546 0.02794 0.7648 0.0
H44 H 1.01881 0.01325 0.6645 0.0
H45 H 0.08057 0.1256 0.66368 0.0
Cu46 Cu 0.33238 0.0504 0.10948 0.0
N47 N 0.35661 0.01599 0.09761 0.0
N48 N 0.37202 0.97711 0.07279 0.0
C49 C 0.35044 1.00054 0.07889 0.0
C50 C 0.39282 0.97803 0.088 0.0
C51 C 0.38319 1.00215 0.10341 0.0
O52 O 0.29531 0.0477 0.11717 0.0
C53 C 0.31854 0.08794 0.05326 0.0
O54 O 0.30076 0.07471 0.05211 0.0
H55 H 0.33066 1.00695 0.06916 0.0
H56 H 0.39489 0.00935 0.11728 0.0
N57 N 0.34222 0.05868 0.14551 0.0
N58 N 0.34497 0.08395 0.18236 0.0
C59 C 0.33544 0.08479 0.15474 0.0
C60 C 0.35628 0.04047 0.168 0.0
C61 C 0.35815 0.05595 0.19066 0.0
C62 C 0.28531 0.02964 0.13326 0.0
O63 O 0.2586 0.03461 0.13375 0.0
H64 H 0.32321 0.10385 0.14155 0.0
H65 H 0.36435 0.01754 0.16808 0.0
O66 O 0.33367 0.08087 0.07599 0.0
H67 H 0.41347 0.96258 0.0878 0.0
H68 H 0.36853 0.04703 0.21154 0.0
Cu69 Cu 0.07314 0.31359 0.10974 0.0
N70 N 0.08334 0.33681 0.07665 0.0
N71 N 0.10728 0.34698 0.03324 0.0
C72 C 0.10813 0.33025 0.06031 0.0
C73 C 0.08107 0.36529 0.03304 0.0
C74 C 0.06636 0.35889 0.05972 0.0
O75 O 0.1032 0.29965 0.13828 0.0
C76 C 0.0655 0.28171 0.06366 0.0
O77 O 0.08645 0.2875 0.04771 0.0
H78 H 0.12553 0.31159 0.06663 0.0
H79 H 0.04435 0.36816 0.06515 0.0
N80 N 0.04103 0.33429 0.13194 0.0
N81 N 1.00089 0.34204 0.16076 0.0
C82 C 1.0237 0.32234 0.14922 0.0
C83 C 0.02885 0.36261 0.13261 0.0
C84 C 1.00402 0.36746 0.15034 0.0
C85 C 0.10671 0.31928 0.15137 0.0
O86 O 0.09084 0.34568 0.14426 0.0
H87 H 0.02732 0.29961 0.15225 0.0
H88 H 0.03718 0.37861 0.12065 0.0
O89 O 0.06037 0.28663 0.09192 0.0
H90 H 0.07264 0.38111 1.01419 0.0
H91 H 0.98937 0.38807 0.15508 0.0
Cu92 Cu 0.79891 1.00547 1.0075 0.0
N93 N 0.81988 0.02564 0.98391 0.0
N94 N 0.82876 0.0647 0.96178 0.0
C95 C 0.81021 0.05417 0.97856 0.0
C96 C 0.85106 0.04175 0.95582 0.0
C97 C 0.84554 0.01753 0.96973 0.0
O98 O 0.77397 0.03272 0.03491 0.0
C99 C 0.80042 0.96709 0.96823 0.0
O100 O 0.82628 0.95899 0.97494 0.0
H101 H 0.78966 0.06697 0.98668 0.0
H102 H 0.85925 0.99571 0.96964 0.0
N103 N 0.81932 0.9756 0.03436 0.0
N104 N 0.82406 0.94474 0.0769 0.0
C105 C 0.8068 0.96144 0.05589 0.0
C106 C 0.84577 0.96732 0.04131 0.0
C107 C 0.84879 0.94816 0.06759 0.0
C108 C 0.78775 0.03953 0.053 0.0
O109 O 0.81484 0.02853 0.0503 0.0
H110 H 0.78499 0.9645 0.05652 0.0
H111 H 0.86121 0.97595 0.0294 0.0
O112 O 0.78302 0.98877 0.97994 0.0
H113 H 0.87003 0.04245 0.94278 0.0
H114 H 0.86738 0.93881 0.07971 0.0
Cu115 Cu 0.03142 0.75773 1.01443 0.0
N116 N 1.01462 0.74079 0.99079 0.0
N117 N 0.98643 0.73589 0.95853 0.0
C118 C 0.99376 0.75434 0.97245 0.0
C119 C 1.0033 0.70976 0.96872 0.0
C120 C 1.02054 0.71285 0.98859 0.0
O121 O 1.00261 0.77732 0.04562 0.0
C122 C 0.07258 0.78401 0.99273 0.0
O123 O 0.07664 0.78111 0.0221 0.0
H124 H 0.98433 0.7773 0.96925 0.0
H125 H 0.03608 0.69584 1.00083 0.0
N126 N 0.05937 0.73027 0.03644 0.0
N127 N 0.09219 0.7159 0.06987 0.0
C128 C 0.0668 0.734 0.06343 0.0
C129 C 0.08055 0.70862 0.0256 0.0
C130 C 0.10072 0.69956 0.04629 0.0
C131 C 0.99473 0.76063 0.06665 0.0
O132 O 1.00583 0.73298 0.06548 0.0
H133 H 0.05478 0.75145 0.07659 0.0
H134 H 0.08241 0.70179 1.00295 0.0
O135 O 0.05158 0.77914 0.98517 0.0
H136 H 1.00283 0.68973 0.96282 0.0
H137 H 0.12112 0.68407 0.04271 0.0
Cu138 Cu 0.52997 0.54168 0.88491 0.0
N139 N 0.54386 0.56417 0.90394 0.0
N140 N 0.5701 0.58946 0.91173 0.0
C141 C 0.56818 0.5687 0.89658 0.0
C142 C 0.5461 0.59812 0.92944 0.0
C143 C 0.52993 0.5826 0.92445 0.0
O144 O 0.56036 0.5124 0.86526 0.0
C145 C 0.49943 0.59133 0.84718 0.0
O146 O 0.52199 0.59824 0.84471 0.0
H147 H 0.58331 0.55839 0.87892 0.0
H148 H 0.50887 0.58568 0.93376 0.0
N149 N 0.51392 0.52054 0.91442 0.0
N150 N 0.49606 0.4863 0.93276 0.0
C151 C 0.50901 0.49733 0.90839 0.0
C152 C 0.50387 0.52439 0.9438 0.0
C153 C 0.4926 0.50332 0.95514 0.0
C154 C 0.57804 0.51366 0.84275 0.0
O155 O 0.57589 0.53819 0.8263 0.0
H156 H 0.5138 0.48945 0.88598 0.0
H157 H 0.50417 0.5415 0.95598 0.0
O158 O 0.49998 0.56687 0.86043 0.0
H159 H 0.54017 0.61521 0.94405 0.0
H160 H 0.4823 0.50097 0.97782 0.0
Cu161 Cu 0.56549 0.55018 0.25786 0.0
N162 N 0.55027 0.53024 0.23666 0.0
N163 N 0.52623 0.50217 0.23048 0.0
C164 C 0.53165 0.51797 0.24971 0.0
C165 C 0.54206 0.5048 0.20415 0.0
C166 C 0.55701 0.52202 0.20811 0.0
O167 O 0.53491 0.57908 0.27812 0.0
C168 C 0.61383 0.50656 0.26917 0.0
O169 O 0.61722 0.51317 0.23931 0.0
H170 H 0.52267 0.52026 0.27315 0.0
H171 H 0.57245 0.52722 0.1918 0.0
N172 N 0.58554 0.5701 0.23166 0.0
N173 N 0.6159 0.59317 0.21813 0.0
C174 C 0.60564 0.57771 0.24085 0.0
C175 C 0.58286 0.5812 0.202 0.0
C176 C 0.60155 0.59562 0.19361 0.0
C177 C 0.51838 0.59621 0.25913 0.0
O178 O 0.52301 0.59166 0.22995 0.0
H179 H 0.6121 0.5726 0.26411 0.0
H180 H 0.56806 0.57941 0.18767 0.0
O181 O 0.59163 0.52076 0.28392 0.0
H182 H 0.54363 0.49411 0.18395 0.0
H183 H 0.60433 0.60704 0.17134 0.0
Cu184 Cu 0.82723 0.56836 0.57207 0.0
N185 N 0.81145 0.59437 0.53916 0.0
N186 N 0.80687 0.62811 0.49922 0.0
C187 C 0.82141 0.61433 0.52365 0.0
C188 C 0.78678 0.61648 0.49968 0.0
C189 C 0.78972 0.5956 0.52431 0.0
O190 O 0.84079 0.587 0.59967 0.0
C191 C 0.86224 0.53289 0.52765 0.0
O192 O 0.85921 0.5566 0.50929 0.0
H193 H 0.83931 0.61821 0.52997 0.0
H194 H 0.77744 0.58171 0.53044 0.0
N195 N 0.80103 0.55471 0.59523 0.0
N196 N 0.78509 0.52317 0.62533 0.0
C197 C 0.80673 0.5275 0.60757 0.0
C198 C 0.77476 0.56832 0.60541 0.0
C199 C 0.76485 0.54882 0.62417 0.0
C200 C 0.82486 0.61165 0.6059 0.0
O201 O 0.80149 0.62307 0.59266 0.0
H202 H 0.82689 0.51144 0.60463 0.0
H203 H 0.76388 0.59084 0.60019 0.0
O204 O 0.85397 0.53435 0.55606 0.0
H205 H 0.77169 0.62186 0.4828 0.0
H206 H 0.74452 0.55324 0.63626 0.0
Cu207 Cu 0.58037 0.79469 0.59788 0.0
N208 N 0.58892 0.81682 0.56206 0.0
N209 N 0.61329 0.82792 0.51895 0.0
C210 C 0.61418 0.81182 0.54657 0.0
C211 C 0.58634 0.84406 0.51745 0.0
C212 C 0.57146 0.83714 0.54388 0.0
O213 O 0.61262 0.78394 0.62205 0.0
C214 C 0.58044 0.75415 0.55825 0.0
O215 O 0.60217 0.7592 0.54334 0.0
H216 H 0.63253 0.79522 0.55454 0.0
H217 H 0.54929 0.84543 0.54885 0.0
N218 N 0.54807 0.81427 0.62172 0.0
N219 N 0.50806 0.82146 0.65151 0.0
C220 C 0.52547 0.80613 0.62978 0.0
C221 C 0.54464 0.83564 0.63879 0.0
C222 C 0.52013 0.84005 0.65715 0.0
C223 C 0.61262 0.78002 0.65136 0.0
O224 O 0.59005 0.77896 0.66808 0.0
H225 H 0.52263 0.7882 0.62124 0.0
H226 H 0.55962 0.84627 0.63904 0.0
O227 O 0.5715 0.76375 0.5842 0.0
H228 H 0.57773 0.85935 0.49829 0.0
H229 H 0.51214 0.85533 0.67393 0.0
Cu230 Cu 0.28655 0.51065 0.54038 0.0
N231 N 0.30774 0.52969 0.51361 0.0
N232 N 0.31727 0.56491 0.48155 0.0
C233 C 0.29861 0.55757 0.5024 0.0
C234 C 0.33901 0.54054 0.47968 0.0
C235 C 0.33306 0.51895 0.4993 0.0
O236 O 0.26159 0.53924 0.56532 0.0
C237 C 0.28462 0.47261 0.50242 0.0
O238 O 0.31047 0.46201 0.50942 0.0
H239 H 0.27821 0.57192 0.50867 0.0
H240 H 0.34603 0.49684 0.50225 0.0
N241 N 0.30676 0.48064 0.56856 0.0
N242 N 0.31533 0.44601 0.60846 0.0
C243 C 0.2958 0.46571 0.59144 0.0
C244 C 0.33419 0.47012 0.57117 0.0
C245 C 0.33952 0.44885 0.59552 0.0
C246 C 0.2751 0.54867 0.58099 0.0
O247 O 0.30224 0.53787 0.57848 0.0
H248 H 0.2738 0.46966 0.59572 0.0
H249 H 0.34931 0.47746 0.55654 0.0
O250 O 0.2688 0.49488 0.51428 0.0
H251 H 0.3579 0.53829 0.46507 0.0
H252 H 0.35982 0.43628 0.60278 0.0
Cu253 Cu 0.51738 0.26694 0.52905 0.0
N254 N 0.54728 0.24659 0.50338 0.0
N255 N 0.58644 0.23658 0.47259 0.0
C256 C 0.56764 0.25609 0.48936 0.0
C257 C 0.57751 0.21396 0.47605 0.0
C258 C 0.55325 0.22028 0.49484 0.0
O259 O 0.53133 0.29112 0.54998 0.0
C260 C 0.47559 0.26758 0.49444 0.0
O261 O 0.4868 0.24033 0.50355 0.0
H262 H 0.56884 0.27679 0.49178 0.0
H263 H 0.5408 0.20664 0.50157 0.0
N264 N 0.50713 0.24263 0.56117 0.0
N265 N 0.48766 0.22956 0.60653 0.0
C266 C 0.48754 0.25116 0.58433 0.0
C267 C 0.51996 0.21462 0.56897 0.0
C268 C 0.508 0.20651 0.59688 0.0
C269 C 0.55056 0.27647 0.56746 0.0
O270 O 0.55909 0.24856 0.56824 0.0
H271 H 0.47456 0.27314 0.5857 0.0
H272 H 0.53778 0.20128 0.55625 0.0
O273 O 0.48556 0.28503 0.50335 0.0
H274 H 0.58755 0.19447 0.46534 0.0
H275 H 0.51427 0.18546 0.60947 0.0
Ho276 Ho 0.26762 0.29684 0.34768 0.0
Ho277 Ho 0.30832 0.31771 0.29749 0.0
C278 C 0.30705 0.25449 0.29794 0.0
C279 C 0.23209 0.27647 0.37964 0.0
C280 C 0.21736 0.25651 0.37796 0.0
C281 C 0.21852 0.24429 0.35082 0.0
C282 C 0.20415 0.22528 0.35016 0.0
C283 C 0.18858 0.21819 0.37669 0.0
C284 C 0.18787 0.23037 0.40383 0.0
C285 C 0.20206 0.2494 0.40438 0.0
C286 C 0.31249 0.30238 0.36956 0.0
C287 C 0.26535 0.36086 0.34357 0.0
C288 C 0.34862 0.33321 0.26934 0.0
C289 C 0.36544 0.35126 0.27233 0.0
C290 C 0.38884 0.34106 0.28949 0.0
C291 C 0.40602 0.35747 0.28926 0.0
C292 C 0.40013 0.38436 0.27188 0.0
C293 C 0.3764 0.39472 0.25534 0.0
C294 C 0.35936 0.37834 0.25546 0.0
C295 C 0.26115 0.31967 0.27241 0.0
O296 O 0.28502 0.26068 0.31802 0.0
O297 O 0.3215 0.27189 0.28895 0.0
O298 O 0.25884 0.26514 0.38186 0.0
O299 O 0.22509 0.30016 0.36093 0.0
O300 O 0.28866 0.30613 0.38479 0.0
O301 O 0.3121 0.29353 0.34406 0.0
O302 O 0.28972 0.35361 0.32747 0.0
O303 O 0.24998 0.34408 0.34854 0.0
O304 O 0.32258 0.34666 0.26458 0.0
O305 O 0.3524 0.30948 0.28777 0.0
O306 O 0.28159 0.3261 0.25695 0.0
O307 O 0.26749 0.31362 0.29983 0.0
H308 H 0.23043 0.24948 0.33024 0.0
H309 H 0.205 0.21639 0.32886 0.0
H310 H 0.17662 0.22491 0.42484 0.0
H311 H 0.2012 0.25848 0.42559 0.0
H312 H 0.39423 0.3202 0.30253 0.0
H313 H 0.42407 0.34901 0.30241 0.0
H314 H 0.37152 0.4151 0.24131 0.0
H315 H 0.34177 0.38662 0.24158 0.0
Ho316 Ho 0.80085 0.29645 0.34513 0.0
Ho317 Ho 0.79554 0.26163 0.28765 0.0
C318 C 0.75559 0.26309 0.3508 0.0
C319 C 0.79296 0.33583 0.38053 0.0
C320 C 0.80686 0.34933 0.39798 0.0
C321 C 0.79347 0.35992 0.42561 0.0
C322 C 0.8041 0.37585 0.44109 0.0
C323 C 0.8284 0.38162 0.42923 0.0
C324 C 0.84249 0.36996 0.40215 0.0
C325 C 0.83176 0.354 0.38657 0.0
C326 C 0.83911 0.24296 0.34313 0.0
C327 C 0.83997 0.29622 0.28176 0.0
C328 C 0.80318 0.22291 0.25141 0.0
C329 C 0.7884 0.21092 0.23291 0.0
C330 C 0.78535 0.18422 0.24292 0.0
C331 C 0.77538 0.17059 0.22364 0.0
C332 C 0.76847 0.18321 0.19373 0.0
C333 C 0.77043 0.21045 0.18421 0.0
C334 C 0.78028 0.22413 0.20353 0.0
C335 C 0.75698 0.3148 0.28957 0.0
O336 O 0.76361 0.28286 0.36026 0.0
O337 O 0.76665 0.25002 0.32566 0.0
O338 O 0.79593 0.34 0.35032 0.0
O339 O 0.7931 0.30996 0.39103 0.0
O340 O 0.83792 0.25963 0.36384 0.0
O341 O 0.81971 0.25609 0.32646 0.0
O342 O 0.83243 0.27609 0.27229 0.0
O343 O 0.82876 0.30896 0.30698 0.0
O344 O 0.80027 0.21807 0.28161 0.0
O345 O 0.80428 0.24854 0.24183 0.0
O346 O 0.75827 0.29792 0.26907 0.0
O347 O 0.77659 0.30206 0.30617 0.0
H348 H 0.77425 0.35657 0.4348 0.0
H349 H 0.79299 0.38412 0.46213 0.0
H350 H 0.86118 0.37413 0.39235 0.0
H351 H 0.84245 0.34605 0.36523 0.0
H352 H 0.79177 0.17326 0.26521 0.0
H353 H 0.7745 0.14947 0.23157 0.0
H354 H 0.76507 0.22087 0.16142 0.0
H355 H 0.78248 0.24461 0.19491 0.0
Ho356 Ho 0.80715 0.7705 0.29394 0.0
Ho357 Ho 0.81381 0.82812 0.30428 0.0
C358 C 0.7674 0.80879 0.347 0.0
C359 C 0.80369 0.71984 0.29871 0.0
C360 C 0.78569 0.70678 0.28733 0.0
C361 C 0.77341 0.68996 0.30822 0.0
C362 C 0.75536 0.67826 0.29831 0.0
C363 C 0.74942 0.68303 0.26723 0.0
C364 C 0.76202 0.69957 0.24622 0.0
C365 C 0.77989 0.7115 0.25621 0.0
C366 C 0.78019 0.8157 0.25499 0.0
C367 C 0.85135 0.79161 0.2497 0.0
C368 C 0.81899 0.87804 0.30052 0.0
C369 C 0.82969 0.89386 0.31854 0.0
C370 C 0.83264 0.91976 0.30513 0.0
C371 C 0.84578 0.93363 0.32023 0.0
C372 C 0.85622 0.92176 0.34901 0.0
C373 C 0.8522 0.89632 0.36297 0.0
C374 C 0.8391 0.88239 0.34776 0.0
C375 C 0.83931 0.7821 0.34344 0.0
O376 O 0.77965 0.78317 0.33746 0.0
O377 O 0.77445 0.83115 0.33424 0.0
O378 O 0.82046 0.72859 0.27832 0.0
O379 O 0.79187 0.73785 0.31901 0.0
O380 O 0.78668 0.78937 0.24971 0.0
O381 O 0.78417 0.81586 0.28259 0.0
O382 O 0.83782 0.81727 0.25846 0.0
O383 O 0.84647 0.7686 0.26427 0.0
O384 O 0.79648 0.87274 0.31202 0.0
O385 O 0.83758 0.85611 0.289 0.0
O386 O 0.83103 0.80818 0.35015 0.0
O387 O 0.83686 0.78266 0.31528 0.0
H388 H 0.77761 0.68608 0.33232 0.0
H389 H 0.74614 0.66535 0.31492 0.0
H390 H 0.7576 0.70377 0.2222 0.0
H391 H 0.78889 0.72463 0.23964 0.0
H392 H 0.82552 0.92884 0.28254 0.0
H393 H 0.84831 0.95335 0.30909 0.0
H394 H 0.86024 0.88654 0.38498 0.0
H395 H 0.83712 0.86227 0.35831 0.0
Ho396 Ho 0.28912 0.79482 0.29188 0.0
Ho397 Ho 0.32924 0.80523 0.33126 0.0
C398 C 0.31533 0.8459 0.26911 0.0
C399 C 0.25027 0.79709 0.25843 0.0
C400 C 0.23791 0.77977 0.24421 0.0
C401 C 0.20944 0.7846 0.24998 0.0
C402 C 0.1962 0.77145 0.23403 0.0
C403 C 0.21115 0.75323 0.21175 0.0
C404 C 0.2399 0.7476 0.20674 0.0
C405 C 0.25318 0.76073 0.22282 0.0
C406 C 0.3407 0.75656 0.28889 0.0
C407 C 0.30316 0.75412 0.35456 0.0
C408 C 0.36809 0.80452 0.36387 0.0
C409 C 0.38777 0.78872 0.38734 0.0
C410 C 0.41266 0.767 0.37998 0.0
C411 C 0.43331 0.75651 0.40085 0.0
C412 C 0.42954 0.76782 0.42921 0.0
C413 C 0.40406 0.78831 0.43714 0.0
C414 C 0.38348 0.79864 0.41647 0.0
C415 C 0.27719 0.84343 0.33431 0.0
O416 O 0.29407 0.83669 0.26953 0.0
O417 O 0.33492 0.83364 0.28836 0.0
O418 O 0.24707 0.79646 0.28846 0.0
O419 O 0.27464 0.79795 0.247 0.0
O420 O 0.31861 0.75094 0.28559 0.0
O421 O 0.33473 0.78301 0.29016 0.0
O422 O 0.3233 0.76462 0.35585 0.0
O423 O 0.28451 0.76511 0.33396 0.0
O424 O 0.34177 0.81366 0.37303 0.0
O425 O 0.37276 0.7966 0.33601 0.0
O426 O 0.29928 0.8494 0.33669 0.0
O427 O 0.28352 0.81695 0.33296 0.0
H428 H 0.19717 0.79943 0.26612 0.0
H429 H 0.17401 0.77661 0.23817 0.0
H430 H 0.25205 0.73344 0.18997 0.0
H431 H 0.27519 0.75658 0.21787 0.0
H432 H 0.41672 0.75904 0.35762 0.0
H433 H 0.45278 0.74078 0.39409 0.0
H434 H 0.40044 0.79718 0.45897 0.0
H435 H 0.36467 0.81553 0.42273 0.0
Ho436 Ho 0.28916 0.81698 0.82662 0.0
Ho437 Ho 0.28434 0.77258 0.78904 0.0
C438 C 0.23992 0.78949 0.84576 0.0
C439 C 0.28339 0.85867 0.85798 0.0
C440 C 0.30152 0.86819 0.8737 0.0
C441 C 0.2916 0.89548 0.88344 0.0
C442 C 0.30757 0.90406 0.90087 0.0
C443 C 0.33375 0.88542 0.90886 0.0
C444 C 0.344 0.85834 0.89819 0.0
C445 C 0.32799 0.84981 0.88064 0.0
C446 C 0.32788 0.76485 0.8367 0.0
C447 C 0.33199 0.80241 0.7686 0.0
C448 C 0.28945 0.72999 0.75937 0.0
C449 C 0.27191 0.71663 0.74766 0.0
C450 C 0.28015 0.68685 0.75038 0.0
C451 C 0.26554 0.67329 0.73715 0.0
C452 C 0.24235 0.68928 0.7208 0.0
C453 C 0.23341 0.71921 0.71919 0.0
C454 C 0.24802 0.73282 0.73265 0.0
C455 C 0.24616 0.82511 0.77897 0.0
O456 O 0.24782 0.81209 0.84469 0.0
O457 O 0.25384 0.76823 0.82918 0.0
O458 O 0.28695 0.86066 0.82788 0.0
O459 O 0.28011 0.83459 0.87012 0.0
O460 O 0.3315 0.78853 0.83971 0.0
O461 O 0.30293 0.76968 0.83208 0.0
O462 O 0.32501 0.77916 0.76959 0.0
O463 O 0.31777 0.82318 0.78561 0.0
O464 O 0.28968 0.72788 0.78935 0.0
O465 O 0.28913 0.75507 0.74583 0.0
O466 O 0.24178 0.80154 0.77698 0.0
O467 O 0.27123 0.81967 0.78324 0.0
H468 H 0.27116 0.90985 0.87831 0.0
H469 H 0.29891 0.92488 0.90916 0.0
H470 H 0.36415 0.84364 0.90384 0.0
H471 H 0.33597 0.82865 0.87317 0.0
H472 H 0.29852 0.67402 0.76188 0.0
H473 H 0.27338 0.65023 0.73831 0.0
H474 H 0.21559 0.73207 0.70683 0.0
H475 H 0.24111 0.7559 0.73056 0.0
Ho476 Ho 0.30414 0.24817 0.82337 0.0
Ho477 Ho 0.31781 0.29561 0.84316 0.0
C478 C 0.2583 0.29471 0.86281 0.0
C479 C 0.2894 0.20453 0.81903 0.0
C480 C 0.26813 0.19847 0.80468 0.0
C481 C 0.26096 0.17432 0.81634 0.0
C482 C 0.24185 0.16721 0.80214 0.0
C483 C 0.22968 0.18408 0.77586 0.0
C484 C 0.23654 0.20867 0.76459 0.0
C485 C 0.25562 0.21584 0.77893 0.0
C486 C 0.29666 0.29392 0.77981 0.0
C487 C 0.3631 0.25084 0.80159 0.0
C488 C 0.33263 0.33887 0.84879 0.0
C489 C 0.35539 0.34552 0.85977 0.0
C490 C 0.37325 0.3556 0.83834 0.0
C491 C 0.3926 0.36551 0.84831 0.0
C492 C 0.39429 0.36581 0.87994 0.0
C493 C 0.37722 0.35459 0.90141 0.0
C494 C 0.35791 0.34459 0.89144 0.0
C495 C 0.32532 0.24921 0.88626 0.0
O496 O 0.26851 0.2676 0.85773 0.0
O497 O 0.27193 0.31229 0.85168 0.0
O498 O 0.30795 0.21179 0.80016 0.0
O499 O 0.28091 0.22001 0.84205 0.0
O500 O 0.30326 0.26784 0.77397 0.0
O501 O 0.29091 0.29495 0.80845 0.0
O502 O 0.35339 0.27729 0.80879 0.0
O503 O 0.34984 0.23271 0.8119 0.0
O504 O 0.31678 0.32914 0.86948 0.0
O505 O 0.33795 0.32625 0.82363 0.0
O506 O 0.31731 0.27533 0.8924 0.0
O507 O 0.3315 0.24862 0.85765 0.0
H508 H 0.27034 0.1608 0.8363 0.0
H509 H 0.23656 0.1485 0.81181 0.0
H510 H 0.2276 0.22202 0.74434 0.0
H511 H 0.26091 0.23465 0.76967 0.0
H512 H 0.37168 0.35669 0.81381 0.0
H513 H 0.40577 0.37366 0.83122 0.0
H514 H 0.37785 0.3548 0.92592 0.0
H515 H 0.34434 0.3371 0.90858 0.0
Ho516 Ho 0.77189 0.298 0.8019 0.0
Ho517 Ho 0.81275 0.31457 0.83551 0.0
C518 C 0.7983 0.34588 0.76895 0.0
C519 C 0.73405 0.2926 0.77156 0.0
C520 C 0.7124 0.30475 0.74913 0.0
C521 C 0.68507 0.30597 0.75867 0.0
C522 C 0.66549 0.31126 0.73709 0.0
C523 C 0.6727 0.31538 0.70524 0.0
C524 C 0.69968 0.31578 0.69585 0.0
C525 C 0.71928 0.31046 0.71747 0.0
C526 C 0.82373 0.25981 0.80296 0.0
C527 C 0.78669 0.26609 0.86809 0.0
C528 C 0.85176 0.31872 0.86503 0.0
C529 C 0.87148 0.30719 0.88969 0.0
C530 C 0.89676 0.28492 0.88557 0.0
C531 C 0.91697 0.27792 0.90692 0.0
C532 C 0.91256 0.29329 0.93264 0.0
C533 C 0.88686 0.31476 0.93724 0.0
C534 C 0.8667 0.3216 0.91611 0.0
C535 C 0.76079 0.35285 0.83487 0.0
O536 O 0.77714 0.33629 0.77204 0.0
O537 O 0.81785 0.33692 0.78853 0.0
O538 O 0.76003 0.2869 0.76122 0.0
O539 O 0.72911 0.30079 0.79931 0.0
O540 O 0.80152 0.25331 0.8035 0.0
O541 O 0.81775 0.28664 0.79931 0.0
O542 O 0.8071 0.27671 0.86586 0.0
O543 O 0.76715 0.27501 0.84852 0.0
O544 O 0.82538 0.32916 0.87348 0.0
O545 O 0.85649 0.30641 0.83959 0.0
O546 O 0.78298 0.35934 0.83488 0.0
O547 O 0.76686 0.326 0.83799 0.0
H548 H 0.67917 0.30128 0.78281 0.0
H549 H 0.64512 0.31046 0.74538 0.0
H550 H 0.70595 0.31938 0.67164 0.0
H551 H 0.74014 0.30961 0.70919 0.0
H552 H 0.90137 0.27358 0.86531 0.0
H553 H 0.93655 0.26136 0.9025 0.0
H554 H 0.88251 0.32679 0.95694 0.0
H555 H 0.84767 0.33908 0.91988 0.0
Ho556 Ho 0.77441 0.78134 0.81158 0.0
Ho557 Ho 0.82012 0.80035 0.76609 0.0
C558 C 0.81714 0.73792 0.76481 0.0
C559 C 0.72823 0.77298 0.83029 0.0
C560 C 0.71743 0.74917 0.83806 0.0
C561 C 0.69143 0.75249 0.82872 0.0
C562 C 0.68036 0.73044 0.83561 0.0
C563 C 0.69511 0.70459 0.85206 0.0
C564 C 0.72136 0.70117 0.86115 0.0
C565 C 0.73252 0.72327 0.85406 0.0
C566 C 0.82403 0.76452 0.83685 0.0
C567 C 0.78447 0.83945 0.82028 0.0
C568 C 0.85887 0.8178 0.73737 0.0
C569 C 0.87537 0.83565 0.74078 0.0
C570 C 0.87031 0.85158 0.76594 0.0
C571 C 0.8851 0.87011 0.76716 0.0
C572 C 0.90519 0.87275 0.74331 0.0
C573 C 0.91046 0.85618 0.71858 0.0
C574 C 0.89567 0.83782 0.71736 0.0
C575 C 0.77229 0.80493 0.74289 0.0
O576 O 0.79308 0.74516 0.78173 0.0
O577 O 0.83332 0.75395 0.76003 0.0
O578 O 0.74488 0.77567 0.84903 0.0
O579 O 0.73616 0.77755 0.8012 0.0
O580 O 0.80248 0.75864 0.8504 0.0
O581 O 0.81751 0.77725 0.8108 0.0
O582 O 0.80698 0.8324 0.80092 0.0
O583 O 0.76676 0.82512 0.8249 0.0
O584 O 0.8325 0.83127 0.73416 0.0
O585 O 0.86371 0.79372 0.75538 0.0
O586 O 0.79623 0.79794 0.72748 0.0
O587 O 0.77493 0.81031 0.76931 0.0
H588 H 0.67957 0.7723 0.81623 0.0
H589 H 0.65994 0.7339 0.82866 0.0
H590 H 0.73326 0.68139 0.87362 0.0
H591 H 0.75283 0.72018 0.86113 0.0
H592 H 0.85472 0.85001 0.78428 0.0
H593 H 0.88075 0.88243 0.78662 0.0
H594 H 0.92545 0.85803 0.69963 0.0
H595 H 0.89968 0.82575 0.69772 0.0
C596 C 0.12283 0.0949 0.41594 0.0
C597 C 0.10329 0.09584 0.3959 0.0
C598 C 0.1372 0.11451 0.411 0.0
C599 C 0.13207 0.13548 0.38526 0.0
C600 C 0.11283 0.13622 0.36456 0.0
C601 C 0.09858 0.1165 0.3702 0.0
C602 C 0.15754 0.11308 0.43364 0.0
C603 C 0.10688 0.15822 0.33679 0.0
C604 C 0.14701 0.20308 0.39228 0.0
C605 C 0.17332 0.19791 0.3766 0.0
C606 C 0.1332 0.18314 0.3948 0.0
C607 C 0.14582 0.1575 0.38097 0.0
C608 C 0.1719 0.15257 0.3641 0.0
C609 C 0.1854 0.17282 0.36219 0.0
C610 C 0.1054 0.1892 0.41296 0.0
C611 C 0.18586 0.12559 0.34879 0.0
H612 H 0.12701 0.07876 0.43551 0.0
H613 H 0.08332 0.1177 0.35476 0.0
H614 H 0.17815 0.11087 0.42143 0.0
H615 H 0.15068 0.1332 0.44466 0.0
H616 H 0.15975 0.09498 0.452 0.0
H617 H 0.09263 0.15483 0.3219 0.0
H618 H 0.09745 0.17986 0.34441 0.0
H619 H 0.12641 0.15768 0.32281 0.0
H620 H 0.13728 0.22269 0.40292 0.0
H621 H 0.2058 0.16857 0.35023 0.0
H622 H 0.10671 0.17277 0.433 0.0
H623 H 0.08974 0.18804 0.39847 0.0
H624 H 0.09807 0.21052 0.42155 0.0
H625 H 0.19094 0.10694 0.36657 0.0
H626 H 0.20521 0.12586 0.33482 0.0
H627 H 0.17168 0.12247 0.33363 0.0
C628 C 0.94972 0.08539 0.33123 0.0
C629 C 0.97651 0.0871 0.32724 0.0
C630 C 0.92624 0.11016 0.33133 0.0
C631 C 0.92957 0.13737 0.32646 0.0
C632 C 0.95657 0.13915 0.32043 0.0
C633 C 0.97969 0.11404 0.32142 0.0
C634 C 0.89798 0.10715 0.33864 0.0
C635 C 0.96112 0.16763 0.31432 0.0
C636 C 0.86702 0.20421 0.3103 0.0
C637 C 0.8609 0.21515 0.33893 0.0
C638 C 0.88921 0.17886 0.3058 0.0
C639 C 0.90522 0.16378 0.33073 0.0
C640 C 0.89844 0.17441 0.35992 0.0
C641 C 0.87666 0.20012 0.36351 0.0
C642 C 0.89607 0.16872 0.27416 0.0
C643 C 0.91441 0.15878 0.38736 0.0
H644 H 0.94709 0.06465 0.33623 0.0
H645 H 1.00034 0.11548 0.31833 0.0
H646 H 0.88916 0.11492 0.36132 0.0
H647 H 0.88372 0.12043 0.32121 0.0
H648 H 0.89869 0.08469 0.33953 0.0
H649 H 0.98292 0.16544 0.30622 0.0
H650 H 0.94744 0.18175 0.29676 0.0
H651 H 0.95578 0.1783 0.33576 0.0
H652 H 0.85505 0.21597 0.29115 0.0
H653 H 0.87192 0.20851 0.38569 0.0
H654 H 0.89665 0.1463 0.2754 0.0
H655 H 0.91694 0.16922 0.26514 0.0
H656 H 0.8809 0.18208 0.25757 0.0
H657 H 0.91485 0.13631 0.39091 0.0
H658 H 0.90537 0.16882 0.40889 0.0
H659 H 0.93613 0.15843 0.38307 0.0
C660 C 0.9728 0.95591 0.42145 0.0
C661 C 0.96914 0.98512 0.41908 0.0
C662 C 0.95213 0.94635 0.41381 0.0
C663 C 0.92709 0.96648 0.40376 0.0
C664 C 0.92246 0.99599 0.4035 0.0
C665 C 0.94359 1.00494 0.41108 0.0
C666 C 0.958 0.91469 0.41419 0.0
C667 C 0.89592 0.01814 0.39331 0.0
C668 C 0.89385 0.94299 0.34493 0.0
C669 C 0.87311 0.93469 0.36316 0.0
C670 C 0.91114 0.95385 0.35785 0.0
C671 C 0.90754 0.95669 0.38982 0.0
C672 C 0.88626 0.94894 0.40829 0.0
C673 C 0.86938 0.93783 0.39476 0.0
C674 C 0.93378 0.96156 0.33736 0.0
C675 C 0.88162 0.952 0.44237 0.0
H676 H 0.99252 0.94041 0.42726 0.0
H677 H 0.94055 0.02753 0.4096 0.0
H678 H 0.94037 0.9085 0.42602 0.0
H679 H 0.96072 0.90919 0.39016 0.0
H680 H 0.977 0.90185 0.42583 0.0
H681 H 0.89393 0.03977 0.39862 0.0
H682 H 0.89535 0.01882 0.36806 0.0
H683 H 0.87778 0.01253 0.40458 0.0
H684 H 0.89711 0.94018 0.32059 0.0
H685 H 0.85324 0.93162 0.40888 0.0
H686 H 0.95426 0.94805 0.34531 0.0
H687 H 0.93175 0.98408 0.33881 0.0
H688 H 0.93337 0.95871 0.31284 0.0
H689 H 0.9 0.93777 0.45418 0.0
H690 H 0.86318 0.94664 0.45314 0.0
H691 H 0.87896 0.97417 0.44631 0.0
C692 C 0.12276 0.95357 0.35379 0.0
C693 C 0.1184 0.97731 0.33146 0.0
C694 C 0.14781 0.93066 0.3534 0.0
C695 C 0.16886 0.931 0.32962 0.0
C696 C 0.164 0.95416 0.30604 0.0
C697 C 0.13901 0.97723 0.3075 0.0
C698 C 0.15228 0.90681 0.3794 0.0
C699 C 0.18554 0.955 0.27977 0.0
C700 C 0.24389 0.89082 0.34624 0.0
C701 C 0.24909 0.86504 0.33391 0.0
C702 C 0.21782 0.91222 0.34533 0.0
C703 C 0.1966 0.90822 0.33077 0.0
C704 C 0.20188 0.88235 0.31789 0.0
C705 C 0.22791 0.86092 0.32013 0.0
C706 C 0.21298 0.93907 0.36013 0.0
C707 C 0.18021 0.87749 0.30131 0.0
H708 H 0.1071 0.95351 0.37258 0.0
H709 H 0.13579 0.99541 0.2901 0.0
H710 H 0.15867 0.88588 0.37015 0.0
H711 H 0.16924 0.90666 0.39277 0.0
H712 H 0.13343 0.909 0.39536 0.0
H713 H 0.17741 0.97266 0.26147 0.0
H714 H 0.20355 0.95788 0.28855 0.0
H715 H 0.19315 0.93452 0.2694 0.0
H716 H 0.26019 0.89416 0.35697 0.0
H717 H 0.23189 0.8413 0.31034 0.0
H718 H 0.19499 0.94233 0.37751 0.0
H719 H 0.208 0.95782 0.3425 0.0
H720 H 0.23124 0.93839 0.37161 0.0
H721 H 0.16168 0.8783 0.3173 0.0
H722 H 0.18788 0.85663 0.29166 0.0
H723 H 0.17353 0.89472 0.28222 0.0
C724 C 0.13704 0.97431 0.73219 0.0
C725 C 0.11753 0.98792 0.75514 0.0
C726 C 0.15826 0.94856 0.73914 0.0
C727 C 0.16046 0.93589 0.76998 0.0
C728 C 0.14142 0.94982 0.79355 0.0
C729 C 0.12006 0.97567 0.78585 0.0
C730 C 0.17785 0.93448 0.71315 0.0
C731 C 0.14332 0.93713 0.82676 0.0
C732 C 0.19678 0.8557 0.7758 0.0
C733 C 0.22418 0.85341 0.7789 0.0
C734 C 0.17557 0.88226 0.77453 0.0
C735 C 0.18181 0.90727 0.77667 0.0
C736 C 0.20928 0.90492 0.78119 0.0
C737 C 0.23019 0.87803 0.78199 0.0
C738 C 0.14672 0.88367 0.7694 0.0
C739 C 0.21682 0.93092 0.78398 0.0
H740 H 0.13553 0.9835 0.70837 0.0
H741 H 0.1052 0.98601 0.80376 0.0
H742 H 0.19954 0.93071 0.71775 0.0
H743 H 0.17589 0.9134 0.71155 0.0
H744 H 0.17379 0.94749 0.6905 0.0
H745 H 0.1284 0.95155 0.84263 0.0
H746 H 0.13912 0.91665 0.82955 0.0
H747 H 0.16454 0.93238 0.83367 0.0
H748 H 0.19194 0.8367 0.7737 0.0
H749 H 0.25132 0.87638 0.78445 0.0
H750 H 0.14123 0.89493 0.74626 0.0
H751 H 0.13147 0.89599 0.78662 0.0
H752 H 0.14475 0.86217 0.77087 0.0
H753 H 0.2161 0.94385 0.76123 0.0
H754 H 0.23788 0.92517 0.79188 0.0
H755 H 0.2017 0.94453 0.80034 0.0
C756 C 0.11038 0.13106 0.74603 0.0
C757 C 0.10934 0.12504 0.7161 0.0
C758 C 0.12955 0.14305 0.75265 0.0
C759 C 0.14802 0.14954 0.72865 0.0
C760 C 0.14622 0.1449 0.69805 0.0
C761 C 0.12688 0.13261 0.69213 0.0
C762 C 0.13073 0.14772 0.7856 0.0
C763 C 0.16538 0.15189 0.67185 0.0
C764 C 0.18546 0.19635 0.75041 0.0
C765 C 0.20994 0.17583 0.76048 0.0
C766 C 0.16567 0.1883 0.73824 0.0
C767 C 0.17043 0.15906 0.73638 0.0
C768 C 0.19565 0.13842 0.74518 0.0
C769 C 0.21514 0.14708 0.75697 0.0
C770 C 0.13911 0.21092 0.72881 0.0
C771 C 0.2015 0.10701 0.7436 0.0
H772 H 0.09635 0.12604 0.76451 0.0
H773 H 0.12617 0.12801 0.66897 0.0
H774 H 0.15094 0.13393 0.79404 0.0
H775 H 0.12906 0.17014 0.78697 0.0
H776 H 0.11401 0.14283 0.80128 0.0
H777 H 0.15932 0.15004 0.64905 0.0
H778 H 0.16567 0.17385 0.67213 0.0
H779 H 0.18678 0.13713 0.67464 0.0
H780 H 0.18126 0.2186 0.75313 0.0
H781 H 0.23431 0.1312 0.76402 0.0
H782 H 0.1218 0.20923 0.74571 0.0
H783 H 0.1342 0.20775 0.70599 0.0
H784 H 0.14017 0.23277 0.7277 0.0
H785 H 0.18688 0.09948 0.76024 0.0
H786 H 0.22293 0.09396 0.74907 0.0
H787 H 0.19828 0.10325 0.7203 0.0
C788 C 0.97216 0.1325 0.79549 0.0
C789 C 0.97587 0.12747 0.76439 0.0
C790 C 0.94935 0.15507 0.80634 0.0
C791 C 0.92977 0.17273 0.78565 0.0
C792 C 0.93372 0.16783 0.75425 0.0
C793 C 0.95659 0.14547 0.74409 0.0
C794 C 0.94601 0.15979 0.83992 0.0
C795 C 0.91328 0.18574 0.73135 0.0
C796 C 0.85399 0.20915 0.8084 0.0
C797 C 0.85171 0.23806 0.80321 0.0
C798 C 0.87964 0.18755 0.80492 0.0
C799 C 0.90384 0.19493 0.79655 0.0
C800 C 0.90195 0.22407 0.79369 0.0
C801 C 0.87581 0.24537 0.79685 0.0
C802 C 0.88051 0.1569 0.80817 0.0
C803 C 0.92729 0.23285 0.78542 0.0
H804 H 0.98702 0.11888 0.8113 0.0
H805 H 0.95912 0.14194 0.72 0.0
H806 H 0.94203 0.1826 0.84231 0.0
H807 H 0.92788 0.1543 0.85139 0.0
H808 H 0.96454 0.14661 0.85217 0.0
H809 H 0.9198 0.17972 0.70754 0.0
H810 H 0.89275 0.1833 0.73825 0.0
H811 H 0.9107 0.20863 0.73114 0.0
H812 H 0.83547 0.20331 0.81399 0.0
H813 H 0.87419 0.26767 0.79318 0.0
H814 H 0.89479 0.14403 0.82576 0.0
H815 H 0.8885 0.14768 0.78602 0.0
H816 H 0.85982 0.15475 0.81486 0.0
H817 H 0.93385 0.23094 0.76061 0.0
H818 H 0.9447 0.21862 0.79876 0.0
H819 H 0.92329 0.25523 0.78976 0.0
C820 C 0.98918 0.9803 0.74866 0.0
C821 C 0.99018 0.99552 0.7194 0.0
C822 C 0.97467 0.96084 0.75479 0.0
C823 C 0.96091 0.95634 0.73107 0.0
C824 C 0.96147 0.9719 0.70163 0.0
C825 C 0.97609 0.9913 0.69616 0.0
C826 C 0.97459 0.94462 0.78646 0.0
C827 C 0.94698 0.9677 0.67576 0.0
C828 C 0.94824 0.88595 0.73387 0.0
C829 C 0.91993 0.8935 0.74316 0.0
C830 C 0.96193 0.90608 0.73043 0.0
C831 C 0.94696 0.93445 0.73658 0.0
C832 C 0.91861 0.94199 0.74706 0.0
C833 C 0.9054 0.9214 0.75022 0.0
C834 C 0.99224 0.89715 0.71944 0.0
C835 C 0.90203 0.972 0.75402 0.0
H836 H 1.00034 0.98301 0.76665 0.0
H837 H 0.97646 1.00322 0.67366 0.0
H838 H 0.95305 0.94734 0.79601 0.0
H839 H 0.98526 0.9215 0.78487 0.0
H840 H 0.98504 0.9517 0.80284 0.0
H841 H 0.94863 0.98212 0.65453 0.0
H842 H 0.95605 0.94533 0.67016 0.0
H843 H 0.92478 0.97156 0.68304 0.0
H844 H 0.95966 0.86429 0.72886 0.0
H845 H 0.88346 0.92744 0.75714 0.0
H846 H 1.00413 0.90215 0.73592 0.0
H847 H 0.9951 0.9093 0.6969 0.0
H848 H 1.0011 0.87401 0.71676 0.0
H849 H 0.91234 0.97891 0.77066 0.0
H850 H 0.88064 0.97399 0.76369 0.0
H851 H 0.90094 0.98686 0.73261 0.0
C852 C 0.33153 0.136 0.1855 0.0
C853 C 0.34115 0.1078 0.19958 0.0
C854 C 0.32677 0.15934 0.20214 0.0
C855 C 0.33227 0.15454 0.23356 0.0
C856 C 0.34257 0.12629 0.24783 0.0
C857 C 0.34665 0.10332 0.2308 0.0
C858 C 0.31548 0.1892 0.18615 0.0
C859 C 0.34898 0.12032 0.28124 0.0
C860 C 0.34047 0.21646 0.26769 0.0
C861 C 0.31437 0.22781 0.28321 0.0
C862 C 0.34687 0.19212 0.25213 0.0
C863 C 0.32651 0.17917 0.25163 0.0
C864 C 0.30024 0.19036 0.26755 0.0
C865 C 0.29457 0.21439 0.28332 0.0
C866 C 0.37526 0.18052 0.23584 0.0
C867 C 0.2778 0.17748 0.26718 0.0
H868 H 0.32763 0.14007 0.1614 0.0
H869 H 0.35383 0.08189 0.24228 0.0
H870 H 0.29544 0.2009 0.19812 0.0
H871 H 0.32986 0.20108 0.18724 0.0
H872 H 0.31227 0.18934 0.16159 0.0
H873 H 0.35825 0.09715 0.28851 0.0
H874 H 0.36349 0.1312 0.28525 0.0
H875 H 0.32976 0.12897 0.29616 0.0
H876 H 0.3559 0.22665 0.26761 0.0
H877 H 0.27424 0.22317 0.29496 0.0
H878 H 0.37356 0.18227 0.21067 0.0
H879 H 0.38482 0.15757 0.24375 0.0
H880 H 0.38923 0.19205 0.23988 0.0
H881 H 0.25877 0.1882 0.28151 0.0
H882 H 0.2853 0.15449 0.27576 0.0
H883 H 0.27235 0.17913 0.24317 0.0
C884 C 0.95071 0.35605 0.17587 0.0
C885 C 0.97757 0.33673 0.17888 0.0
C886 C 0.92774 0.3504 0.19237 0.0
C887 C 0.93175 0.32498 0.21262 0.0
C888 C 0.95887 0.30564 0.21614 0.0
C889 C 0.9814 0.31169 0.19914 0.0
C890 C 0.89914 0.37142 0.18774 0.0
C891 C 0.96409 0.27847 0.23778 0.0
C892 C 0.87555 0.32074 0.2758 0.0
C893 C 0.86291 0.30429 0.26363 0.0
C894 C 0.89783 0.32777 0.25939 0.0
C895 C 0.90761 0.31839 0.22994 0.0
C896 C 0.89472 0.30215 0.21731 0.0
C897 C 0.87265 0.29518 0.23435 0.0
C898 C 0.91119 0.34487 0.2738 0.0
C899 C 0.90439 0.29195 0.18586 0.0
H900 H 0.94759 0.37524 0.15999 0.0
H901 H 1.00213 0.29688 0.20185 0.0
H902 H 0.8864 0.36087 0.17874 0.0
H903 H 0.88875 0.37877 0.21012 0.0
H904 H 0.89955 0.39033 0.17143 0.0
H905 H 0.98646 0.266 0.23841 0.0
H906 H 0.95548 0.28351 0.26147 0.0
H907 H 0.9534 0.2649 0.23058 0.0
H908 H 0.86834 0.3278 0.29844 0.0
H909 H 0.863 0.28259 0.22463 0.0
H910 H 0.91058 0.36459 0.25847 0.0
H911 H 0.93327 0.33233 0.2766 0.0
H912 H 0.90089 0.3509 0.2967 0.0
H913 H 0.90376 0.31035 0.16833 0.0
H914 H 0.89157 0.28039 0.17885 0.0
H915 H 0.92617 0.27753 0.18578 0.0
C916 C 0.78874 0.93435 0.11554 0.0
C917 C 0.81666 0.9288 0.10463 0.0
C918 C 0.78098 0.91811 0.14129 0.0
C919 C 0.80161 0.89619 0.15716 0.0
C920 C 0.82984 0.89135 0.14746 0.0
C921 C 0.83704 0.90743 0.12106 0.0
C922 C 0.75062 0.92386 0.15095 0.0
C923 C 0.85243 0.86862 0.16441 0.0
C924 C 0.78271 0.86421 0.23674 0.0
C925 C 0.78132 0.83832 0.23007 0.0
C926 C 0.78911 0.88352 0.21324 0.0
C927 C 0.79355 0.8769 0.18237 0.0
C928 C 0.7906 0.85147 0.17539 0.0
C929 C 0.78458 0.83245 0.19936 0.0
C930 C 0.79257 0.91016 0.2217 0.0
C931 C 0.79474 0.84387 0.14269 0.0
H932 H 0.77268 0.95131 0.10398 0.0
H933 H 0.85863 0.90281 0.11306 0.0
H934 H 0.745 0.90485 0.14855 0.0
H935 H 0.74626 0.92776 0.17556 0.0
H936 H 0.73715 0.9425 0.13693 0.0
H937 H 0.85302 0.84728 0.15969 0.0
H938 H 0.87303 0.87082 0.15726 0.0
H939 H 0.84835 0.86955 0.18967 0.0
H940 H 0.77992 0.86882 0.26044 0.0
H941 H 0.78341 0.81246 0.19411 0.0
H942 H 0.78177 0.92908 0.20608 0.0
H943 H 0.81486 0.90785 0.21909 0.0
H944 H 0.78463 0.91415 0.24586 0.0
H945 H 0.78151 0.86167 0.12756 0.0
H946 H 0.78985 0.82426 0.14098 0.0
H947 H 0.81655 0.8404 0.13372 0.0
C948 C 0.13111 0.69439 0.10327 0.0
C949 C 0.10908 0.71811 0.09271 0.0
C950 C 0.14885 0.69684 0.12383 0.0
C951 C 0.1445 0.72369 0.13402 0.0
C952 C 0.12201 0.74757 0.1239 0.0
C953 C 0.10467 0.74451 0.10342 0.0
C954 C 0.17253 0.67087 0.1342 0.0
C955 C 0.11666 0.77662 0.13409 0.0
C956 C 0.17442 0.73248 0.20536 0.0
C957 C 0.19631 0.74202 0.19235 0.0
C958 C 0.15816 0.7251 0.18678 0.0
C959 C 0.16386 0.72737 0.15436 0.0
C960 C 0.18669 0.73574 0.1412 0.0
C961 C 0.20262 0.74295 0.16033 0.0
C962 C 0.13413 0.71611 0.20174 0.0
C963 C 0.19345 0.7385 0.10675 0.0
H964 H 0.13456 0.67391 0.09529 0.0
H965 H 0.08817 0.76315 0.09501 0.0
H966 H 0.19246 0.67426 0.12601 0.0
H967 H 0.17168 0.66744 0.15974 0.0
H968 H 0.17233 0.65128 0.12538 0.0
H969 H 0.0977 0.7928 0.12503 0.0
H970 H 0.11446 0.77539 0.15962 0.0
H971 H 0.1345 0.78402 0.12603 0.0
H972 H 0.16965 0.73131 0.23012 0.0
H973 H 0.21927 0.7506 0.15001 0.0
H974 H 0.13464 0.69617 0.19318 0.0
H975 H 0.11443 0.73281 0.19549 0.0
H976 H 0.13411 0.71267 0.22726 0.0
H977 H 0.19476 0.71876 0.09715 0.0
H978 H 0.21326 0.74276 0.10036 0.0
H979 H 0.17668 0.75626 0.09569 0.0
C980 C 0.34823 0.9519 0.04855 0.0
C981 C 0.37261 0.95705 0.05217 0.0
C982 C 0.34697 0.93609 0.02538 0.0
C983 C 0.37079 0.92497 1.00539 0.0
C984 C 0.39606 0.92827 1.0103 0.0
C985 C 0.39667 0.94439 0.0337 0.0
C986 C 0.31962 0.93285 0.02118 0.0
C987 C 0.42198 0.91623 0.98981 0.0
C988 C 0.36008 0.87463 0.9558 0.0
C989 C 0.34899 0.89364 0.93035 0.0
C990 C 0.36973 0.88389 0.97947 0.0
C991 C 0.36796 0.91281 0.97763 0.0
C992 C 0.35898 0.9314 0.95077 0.0
C993 C 0.34968 0.92154 0.92739 0.0
C994 C 0.37964 0.86331 1.00751 0.0
C995 C 0.35694 0.96238 0.94782 0.0
H996 H 0.32979 0.96107 0.06326 0.0
H997 H 0.41557 0.94831 0.03644 0.0
H998 H 0.31192 0.9447 0.99898 0.0
H999 H 0.32222 0.91011 0.02025 0.0
H1000 H 0.30365 0.94105 0.04003 0.0
H1001 H 0.44072 0.91608 0.99995 0.0
H1002 H 0.42456 0.89417 0.98552 0.0
H1003 H 0.42038 0.92939 0.96716 0.0
H1004 H 0.35958 0.85302 0.95825 0.0
H1005 H 0.34169 0.93609 0.9074 0.0
H1006 H 0.36301 0.86743 0.02652 0.0
H1007 H 0.3979 0.86627 1.01562 0.0
H1008 H 0.38511 0.84079 1.0028 0.0
H1009 H 0.33997 0.97382 0.96415 0.0
H1010 H 0.35269 0.97305 0.92416 0.0
H1011 H 0.37635 0.96443 0.9539 0.0
C1012 C 0.15625 0.32964 1.01288 0.0
C1013 C 0.12816 0.34218 1.00764 0.0
C1014 C 0.17665 0.32299 0.98826 0.0
C1015 C 0.16879 0.32895 0.95758 0.0
C1016 C 0.14053 0.342 0.95209 0.0
C1017 C 0.12059 0.34848 0.97713 0.0
C1018 C 0.20659 0.30923 0.99511 0.0
C1019 C 0.13127 0.34854 0.91976 0.0
C1020 C 0.22466 0.33215 0.89356 0.0
C1021 C 0.23326 0.30458 0.88431 0.0
C1022 C 0.20333 0.34056 0.91692 0.0
C1023 C 0.19015 0.32102 0.93133 0.0
C1024 C 0.19802 0.29354 0.92131 0.0
C1025 C 0.21949 0.28564 0.89798 0.0
C1026 C 0.19556 0.37005 0.92691 0.0
C1027 C 0.18435 0.27213 0.9359 0.0
H1028 H 0.16228 0.32493 0.03632 0.0
H1029 H 0.09895 0.35768 0.97278 0.0
H1030 H 0.21508 0.28792 0.98654 0.0
H1031 H 0.21898 0.32227 0.98286 0.0
H1032 H 0.20935 0.30664 0.02015 0.0
H1033 H 0.10862 0.3596 0.91931 0.0
H1034 H 0.14212 0.36213 0.90543 0.0
H1035 H 0.13681 0.32846 0.90892 0.0
H1036 H 0.23518 0.34695 0.88325 0.0
H1037 H 0.22597 0.26429 0.89106 0.0
H1038 H 0.20026 0.3684 0.95121 0.0
H1039 H 0.17301 0.38128 0.92587 0.0
H1040 H 0.20681 0.38319 0.9124 0.0
H1041 H 0.18872 0.26642 0.96052 0.0
H1042 H 0.1917 0.2523 0.92429 0.0
H1043 H 0.16159 0.28155 0.93515 0.0
C1044 C 0.80732 0.11521 0.97066 0.0
C1045 C 0.82457 0.09441 0.95217 0.0
C1046 C 0.80048 0.14433 0.96044 0.0
C1047 C 0.8112 0.15288 0.931 0.0
C1048 C 0.82957 0.13205 0.91273 0.0
C1049 C 0.83609 0.10301 0.92359 0.0
C1050 C 0.78116 0.16586 0.98079 0.0
C1051 C 0.84158 0.14042 0.88126 0.0
C1052 C 0.7728 0.22306 0.88643 0.0
C1053 C 0.7893 0.23962 0.88908 0.0
C1054 C 0.77911 0.19509 0.90098 0.0
C1055 C 0.80237 0.18349 0.91866 0.0
C1056 C 0.81799 0.20069 0.92309 0.0
C1057 C 0.81124 0.22857 0.90829 0.0
C1058 C 0.76179 0.17744 0.89598 0.0
C1059 C 0.8428 0.18916 0.94199 0.0
H1060 H 0.79887 0.10866 0.9931 0.0
H1061 H 0.84932 0.087 0.90923 0.0
H1062 H 0.7905 0.18208 0.98388 0.0
H1063 H 0.76163 0.17727 0.96961 0.0
H1064 H 0.77609 0.15578 1.00386 0.0
H1065 H 0.85651 0.12175 0.87058 0.0
H1066 H 0.82469 0.15111 0.86577 0.0
H1067 H 0.85225 0.15589 0.88286 0.0
H1068 H 0.75583 0.23133 0.87167 0.0
H1069 H 0.82408 0.24119 0.91064 0.0
H1070 H 0.75496 0.16773 0.91839 0.0
H1071 H 0.77442 0.15975 0.88235 0.0
H1072 H 0.74324 0.19022 0.88354 0.0
H1073 H 0.83749 0.17865 0.96465 0.0
H1074 H 0.85091 0.20612 0.94593 0.0
H1075 H 0.85953 0.17279 0.92987 0.0
C1076 C 0.94093 0.76646 0.9401 0.0
C1077 C 0.96469 0.74227 0.93792 0.0
C1078 C 0.91884 0.77165 0.92167 0.0
C1079 C 0.92053 0.75225 0.90038 0.0
C1080 C 0.9449 0.72843 0.89723 0.0
C1081 C 0.96657 0.72371 0.91602 0.0
C1082 C 0.89322 0.79727 0.92588 0.0
C1083 C 0.94775 0.70735 0.87467 0.0
C1084 C 0.85359 0.74487 0.88092 0.0
C1085 C 0.8495 0.76055 0.85185 0.0
C1086 C 0.87653 0.74211 0.89684 0.0
C1087 C 0.896 0.75539 0.88342 0.0
C1088 C 0.89204 0.7712 0.85392 0.0
C1089 C 0.86881 0.7736 0.8385 0.0
C1090 C 0.8798 0.7251 0.92819 0.0
C1091 C 0.91219 0.78578 0.8388 0.0
H1092 H 0.93915 0.78084 0.95702 0.0
H1093 H 0.98502 0.70529 0.91368 0.0
H1094 H 0.88749 0.80966 0.90329 0.0
H1095 H 0.87563 0.79009 0.93586 0.0
H1096 H 0.89601 0.8116 0.94134 0.0
H1097 H 0.96877 0.6912 0.87326 0.0
H1098 H 0.9325 0.69611 0.88175 0.0
H1099 H 0.9432 0.71866 0.85135 0.0
H1100 H 0.83862 0.73489 0.89144 0.0
H1101 H 0.86547 0.78615 0.81629 0.0
H1102 H 0.88033 0.73878 0.94568 0.0
H1103 H 0.89971 0.7072 0.92795 0.0
H1104 H 0.86277 0.71623 0.93548 0.0
H1105 H 0.91319 0.80155 0.85353 0.0
H1106 H 0.90637 0.79695 0.81567 0.0
H1107 H 0.93325 0.76991 0.83632 0.0
C1108 C 0.12611 0.33576 0.1918 0.0
C1109 C 0.12811 0.31399 0.17379 0.0
C1110 C 0.14694 0.33357 0.2108 0.0
C1111 C 0.17081 0.30894 0.21212 0.0
C1112 C 0.17243 0.28614 0.19529 0.0
C1113 C 0.15107 0.28889 0.17636 0.0
C1114 C 0.14394 0.35839 0.22834 0.0
C1115 C 0.19727 0.25932 0.19631 0.0
C1116 C 0.23579 0.3238 0.22628 0.0
C1117 C 0.23812 0.31575 0.258 0.0
C1118 C 0.2147 0.32067 0.21112 0.0
C1119 C 0.19514 0.30904 0.22791 0.0
C1120 C 0.19763 0.3003 0.25997 0.0
C1121 C 0.21909 0.30376 0.27464 0.0
C1122 C 0.21294 0.33066 0.17713 0.0
C1123 C 0.17765 0.28734 0.2788 0.0
H1124 H 0.10835 0.35513 0.19055 0.0
H1125 H 0.15288 0.27186 0.16275 0.0
H1126 H 0.14745 0.3509 0.25296 0.0
H1127 H 0.15979 0.36833 0.21884 0.0
H1128 H 0.12321 0.37499 0.22699 0.0
H1129 H 0.21564 0.26416 0.18451 0.0
H1130 H 0.20189 0.2511 0.22054 0.0
H1131 H 0.19418 0.24235 0.18495 0.0
H1132 H 0.25044 0.33296 0.21313 0.0
H1133 H 0.22092 0.29718 0.29904 0.0
H1134 H 0.19342 0.34866 0.17349 0.0
H1135 H 0.21257 0.31325 0.16439 0.0
H1136 H 0.23053 0.33783 0.16702 0.0
H1137 H 0.18029 0.28475 0.30388 0.0
H1138 H 0.18101 0.26606 0.27151 0.0
H1139 H 0.156 0.30068 0.27482 0.0
C1140 C 0.09257 0.78992 0.93734 0.0
C1141 C 0.09503 0.78779 0.96917 0.0
C1142 C 0.11491 0.79086 0.91556 0.0
C1143 C 0.14059 0.78917 0.92569 0.0
C1144 C 0.14302 0.78733 0.95774 0.0
C1145 C 0.12034 0.78688 0.97889 0.0
C1146 C 0.11114 0.79335 0.88166 0.0
C1147 C 0.16987 0.78525 0.96986 0.0
C1148 C 0.20842 0.76366 0.87469 0.0
C1149 C 0.21391 0.78919 0.86489 0.0
C1150 C 0.18443 0.76338 0.89387 0.0
C1151 C 0.16503 0.7893 0.90311 0.0
C1152 C 0.17004 0.81521 0.89232 0.0
C1153 C 0.19438 0.81481 0.87369 0.0
C1154 C 0.18025 0.73519 0.90499 0.0
C1155 C 0.14988 0.84344 0.90093 0.0
H1156 H 0.07328 0.79054 0.92943 0.0
H1157 H 0.12278 0.78504 1.00332 0.0
H1158 H 0.11634 0.81197 0.86941 0.0
H1159 H 0.12548 0.77411 0.87154 0.0
H1160 H 0.08966 0.79573 0.87734 0.0
H1161 H 0.16855 0.78371 0.99542 0.0
H1162 H 0.18666 0.76622 0.96217 0.0
H1163 H 0.17581 0.80421 0.96038 0.0
H1164 H 0.22326 0.74375 0.86805 0.0
H1165 H 0.19808 0.83477 0.86594 0.0
H1166 H 0.15976 0.73569 0.89922 0.0
H1167 H 0.1805 0.73132 0.93046 0.0
H1168 H 0.19649 0.71707 0.89477 0.0
H1169 H 0.12868 0.84566 0.8958 0.0
H1170 H 0.15541 0.86183 0.88847 0.0
H1171 H 0.14943 0.84435 0.92606 0.0
C1172 C 0.34252 0.12194 0.02553 0.0
C1173 C 0.32073 0.1108 0.02811 0.0
C1174 C 0.34462 0.14334 1.00168 0.0
C1175 C 0.32427 0.15432 0.97997 0.0
C1176 C 0.30227 0.14311 0.98247 0.0
C1177 C 0.30088 0.12149 1.00624 0.0
C1178 C 0.36859 0.15437 0.99982 0.0
C1179 C 0.27982 0.15435 0.96031 0.0
C1180 C 0.31277 0.22963 0.93938 0.0
C1181 C 0.32559 0.22453 0.90973 0.0
C1182 C 0.31217 0.2071 0.96222 0.0
C1183 C 0.32512 0.17847 0.95564 0.0
C1184 C 0.33828 0.17314 0.92573 0.0
C1185 C 0.33814 0.1962 0.90306 0.0
C1186 C 0.29736 0.21402 0.99339 0.0
C1187 C 0.35256 0.14305 0.91768 0.0
H1188 H 0.35808 0.11383 0.04208 0.0
H1189 H 0.2839 0.1132 1.00789 0.0
H1190 H 0.37972 0.15245 0.97657 0.0
H1191 H 0.36081 0.17732 1.00329 0.0
H1192 H 0.38347 0.14269 1.01733 0.0
H1193 H 0.26442 0.14303 0.96487 0.0
H1194 H 0.26888 0.1774 0.96206 0.0
H1195 H 0.28901 0.15215 0.93627 0.0
H1196 H 0.3028 0.25143 0.94471 0.0
H1197 H 0.34804 0.19206 0.88021 0.0
H1198 H 0.31198 0.20474 1.01164 0.0
H1199 H 0.28073 0.20436 0.99843 0.0
H1200 H 0.28802 0.23736 0.99477 0.0
H1201 H 0.36855 0.13138 0.93399 0.0
H1202 H 0.36254 0.1424 0.89382 0.0
H1203 H 0.33741 0.13153 0.92003 0.0
C1204 C 0.04913 0.27454 1.01482 0.0
C1205 C 0.04462 0.27614 0.04682 0.0
C1206 C 0.02809 0.27452 0.99722 0.0
C1207 C 1.00172 0.27584 1.0118 0.0
C1208 C 0.99749 0.27576 0.04433 0.0
C1209 C 1.01888 0.27603 0.0614 0.0
C1210 C 0.0337 0.27472 0.96268 0.0
C1211 C 0.9699 0.27674 0.06099 0.0
C1212 C 0.94008 0.31166 0.96294 0.0
C1213 C 0.93505 0.28835 0.95362 0.0
C1214 C 0.96134 0.30782 0.98209 0.0
C1215 C 0.97811 0.2799 0.99264 0.0
C1216 C 0.97296 0.25622 0.98367 0.0
C1217 C 0.9517 0.26071 0.96413 0.0
C1218 C 0.9662 0.33376 0.99053 0.0
C1219 C 0.99003 0.22612 0.9946 0.0
H1220 H 0.06885 0.27456 1.00314 0.0
H1221 H 1.01501 0.27731 0.08603 0.0
H1222 H 0.02773 0.25786 0.95457 0.0
H1223 H 1.02096 0.29549 0.9513 0.0
H1224 H 0.05579 0.27141 0.95507 0.0
H1225 H 0.97081 0.27319 0.08642 0.0
H1226 H 0.95428 0.29787 0.05502 0.0
H1227 H 0.96268 0.26041 0.05361 0.0
H1228 H 0.92772 0.33312 0.95464 0.0
H1229 H 0.94791 0.24253 0.95732 0.0
H1230 H 0.98734 0.33352 0.98174 0.0
H1231 H 0.9648 0.33339 1.01596 0.0
H1232 H 0.95107 0.35401 0.98098 0.0
H1233 H 1.01196 0.22201 0.9858 0.0
H1234 H 0.98267 0.21001 0.98686 0.0
H1235 H 0.98941 0.22322 0.02015 0.0
C1236 C 0.80931 0.92199 0.94521 0.0
C1237 C 0.79269 0.95046 0.94763 0.0
C1238 C 0.8045 0.90593 0.92424 0.0
C1239 C 0.78269 0.91868 0.90467 0.0
C1240 C 0.76533 0.94724 0.90744 0.0
C1241 C 0.7704 0.96276 0.92912 0.0
C1242 C 0.82326 0.87542 0.92259 0.0
C1243 C 0.74205 0.96166 0.88679 0.0
C1244 C 0.79562 0.88167 0.8319 0.0
C1245 C 0.78042 0.8629 0.83954 0.0
C1246 C 0.79504 0.90132 0.85201 0.0
C1247 C 0.77912 0.9021 0.88071 0.0
C1248 C 0.76261 0.88425 0.88784 0.0
C1249 C 0.76333 0.865 0.86712 0.0
C1250 C 0.81273 0.92015 0.84324 0.0
C1251 C 0.74559 0.88409 0.91827 0.0
H1252 H 0.82642 0.9122 0.95966 0.0
H1253 H 0.75758 0.98478 0.93077 0.0
H1254 H 0.81083 0.86096 0.92527 0.0
H1255 H 0.83501 0.87325 0.89968 0.0
H1256 H 0.83828 0.86819 0.9406 0.0
H1257 H 0.72936 0.98325 0.89308 0.0
H1258 H 0.75068 0.96368 0.86253 0.0
H1259 H 0.72843 0.94856 0.88792 0.0
H1260 H 0.80865 0.88049 0.81053 0.0
H1261 H 0.75155 0.85058 0.87334 0.0
H1262 H 0.83029 0.91306 0.85808 0.0
H1263 H 0.80058 0.94255 0.84705 0.0
H1264 H 0.82122 0.91948 0.81879 0.0
H1265 H 0.75958 0.87436 0.93707 0.0
H1266 H 0.73128 0.87178 0.91875 0.0
H1267 H 0.73334 0.90616 0.92324 0.0
C1268 C 0.94832 0.79125 0.08909 0.0
C1269 C 0.97445 0.77075 0.0932 0.0
C1270 C 0.92747 0.79644 0.11377 0.0
C1271 C 0.93318 0.78146 0.14353 0.0
C1272 C 0.96008 0.76188 0.14793 0.0
C1273 C 0.98008 0.75647 0.12274 0.0
C1274 C 0.89925 0.8176 0.10772 0.0
C1275 C 0.96758 0.74591 0.17914 0.0
C1276 C 0.88685 0.80834 0.21558 0.0
C1277 C 0.87207 0.78909 0.22242 0.0
C1278 C 0.90647 0.80638 0.18993 0.0
C1279 C 0.91105 0.78514 0.16991 0.0
C1280 C 0.89557 0.76615 0.17626 0.0
C1281 C 0.87666 0.76807 0.2026 0.0
C1282 C 0.92291 0.82656 0.18481 0.0
C1283 C 0.899 0.74376 0.15515 0.0
H1284 H 0.94371 0.80211 0.06627 0.0
H1285 H 1.00023 0.74054 0.12607 0.0
H1286 H 0.897 0.83783 0.11681 0.0
H1287 H 0.89621 0.82235 0.08269 0.0
H1288 H 0.88262 0.80968 0.11952 0.0
H1289 H 0.98994 0.73326 0.17935 0.0
H1290 H 0.96222 0.76105 0.19685 0.0
H1291 H 0.95552 0.73119 0.18591 0.0
H1292 H 0.88347 0.82468 0.23073 0.0
H1293 H 0.86505 0.75339 0.20736 0.0
H1294 H 0.92277 0.83627 0.16052 0.0
H1295 H 0.94477 0.81451 0.18931 0.0
H1296 H 0.91482 0.84388 0.20015 0.0
H1297 H 0.89587 0.75389 0.13113 0.0
H1298 H 0.88423 0.73187 0.16203 0.0
H1299 H 0.92034 0.72831 0.15526 0.0
C1300 C 0.30035 1.00263 0.18363 0.0
C1301 C 0.30177 1.00334 0.15148 0.0
C1302 C 0.3065 0.97659 0.20287 0.0
C1303 C 0.31427 0.95044 0.18971 0.0
C1304 C 0.31774 0.95103 0.15712 0.0
C1305 C 0.31098 0.97742 0.1385 0.0
C1306 C 0.30229 0.9773 0.23736 0.0
C1307 C 0.32636 0.92393 0.14179 0.0
C1308 C 0.3397 0.87986 0.24201 0.0
C1309 C 0.31571 0.87212 0.24817 0.0
C1310 C 0.33975 0.90497 0.22279 0.0
C1311 C 0.31513 0.92319 0.20974 0.0
C1312 C 0.29086 0.91549 0.21604 0.0
C1313 C 0.29151 0.89012 0.23485 0.0
C1314 C 0.36618 0.91201 0.21643 0.0
C1315 C 0.26396 0.93429 0.20317 0.0
H1316 H 0.29236 0.0226 0.19385 0.0
H1317 H 0.31087 0.97777 0.11384 0.0
H1318 H 0.28336 0.97204 0.24618 0.0
H1319 H 0.31989 0.9611 0.24883 0.0
H1320 H 0.29995 0.99859 0.24402 0.0
H1321 H 0.33302 0.9274 0.11698 0.0
H1322 H 0.34353 0.90715 0.15337 0.0
H1323 H 0.30867 0.91587 0.14367 0.0
H1324 H 0.35855 0.8662 0.25208 0.0
H1325 H 0.27273 0.88467 0.23958 0.0
H1326 H 0.36323 0.93274 0.22486 0.0
H1327 H 0.37163 0.9143 0.19122 0.0
H1328 H 0.38376 0.89542 0.22762 0.0
H1329 H 0.25797 0.95591 0.21073 0.0
H1330 H 0.24681 0.92562 0.21061 0.0
H1331 H 0.26654 0.93666 0.17762 0.0
C1332 C 0.78964 0.05687 0.1022 0.0
C1333 C 0.77521 0.06001 0.07615 0.0
C1334 C 0.78291 0.07853 0.12152 0.0
C1335 C 0.76087 0.10413 0.11494 0.0
C1336 C 0.74471 0.10661 0.09007 0.0
C1337 C 0.75216 0.08447 0.07077 0.0
C1338 C 0.8008 0.07473 0.14767 0.0
C1339 C 0.72068 0.13326 0.08267 0.0
C1340 C 0.74512 0.14995 0.181 0.0
C1341 C 0.76213 0.16672 0.17162 0.0
C1342 C 0.74231 0.13126 0.16155 0.0
C1343 C 0.75728 0.12887 0.13226 0.0
C1344 C 0.77301 0.14712 0.12194 0.0
C1345 C 0.77516 0.16584 0.14166 0.0
C1346 C 0.72471 0.1128 0.17311 0.0
C1347 C 0.78947 0.14526 0.091 0.0
H1348 H 0.8073 0.03782 0.10667 0.0
H1349 H 0.74103 0.08706 0.05059 0.0
H1350 H 0.81216 0.09025 0.1431 0.0
H1351 H 0.78784 0.07901 0.16962 0.0
H1352 H 0.81614 0.05292 0.15072 0.0
H1353 H 0.70666 0.12945 0.06778 0.0
H1354 H 0.70862 0.14144 0.10406 0.0
H1355 H 0.72858 0.1501 0.07027 0.0
H1356 H 0.73459 0.15086 0.20391 0.0
H1357 H 0.78851 0.17853 0.13424 0.0
H1358 H 0.73824 0.09079 0.1801 0.0
H1359 H 0.7124 0.11166 0.15462 0.0
H1360 H 0.71044 0.12087 0.19332 0.0
H1361 H 0.80685 0.12474 0.09141 0.0
H1362 H 0.79813 0.16294 0.08496 0.0
H1363 H 0.77639 0.14571 0.07257 0.0
C1364 C 0.58441 0.63186 0.90867 0.0
C1365 C 0.59121 0.60269 0.90612 0.0
C1366 C 0.60409 0.64565 0.90082 0.0
C1367 C 0.63132 0.62987 0.89023 0.0
C1368 C 0.63863 0.60022 0.88854 0.0
C1369 C 0.61843 0.58699 0.89643 0.0
C1370 C 0.59542 0.67736 0.90279 0.0
C1371 C 0.66755 0.58268 0.87764 0.0
C1372 C 0.66768 0.67569 0.83941 0.0
C1373 C 0.68233 0.68198 0.86069 0.0
C1374 C 0.65219 0.6574 0.84835 0.0
C1375 C 0.65143 0.64503 0.87931 0.0
C1376 C 0.66757 0.64984 0.90041 0.0
C1377 C 0.68283 0.66833 0.89085 0.0
C1378 C 0.63538 0.65267 0.82509 0.0
C1379 C 0.66742 0.63685 0.93355 0.0
H1380 H 0.56337 0.64424 0.91567 0.0
H1381 H 0.62386 0.56437 0.89479 0.0
H1382 H 0.60932 0.682 0.9171 0.0
H1383 H 0.5972 0.68861 0.87943 0.0
H1384 H 0.5738 0.68624 0.91281 0.0
H1385 H 0.67044 0.55954 0.8799 0.0
H1386 H 0.67203 0.58972 0.85309 0.0
H1387 H 0.68292 0.58597 0.89097 0.0
H1388 H 0.6677 0.68576 0.81591 0.0
H1389 H 0.69401 0.67321 0.90744 0.0
H1390 H 0.61304 0.66295 0.83152 0.0
H1391 H 0.6391 0.62957 0.82505 0.0
H1392 H 0.64027 0.66162 0.80137 0.0
H1393 H 0.6471 0.64726 0.9458 0.0
H1394 H 0.68385 0.63946 0.94581 0.0
H1395 H 0.67029 0.6138 0.93484 0.0
C1396 C 0.47181 0.63901 0.82154 0.0
C1397 C 0.47252 0.6138 0.84043 0.0
C1398 C 0.44703 0.66218 0.81863 0.0
C1399 C 0.42239 0.66047 0.83562 0.0
C1400 C 0.42274 0.63465 0.85371 0.0
C1401 C 0.44768 0.61157 0.85564 0.0
C1402 C 0.4475 0.68897 0.79839 0.0
C1403 C 0.39711 0.63194 0.87251 0.0
C1404 C 0.37097 0.73113 0.85833 0.0
C1405 C 0.35041 0.73693 0.83791 0.0
C1406 C 0.39398 0.70599 0.85836 0.0
C1407 C 0.39705 0.68645 0.83675 0.0
C1408 C 0.3763 0.69225 0.816 0.0
C1409 C 0.35313 0.71733 0.81701 0.0
C1410 C 0.41523 0.70056 0.88128 0.0
C1411 C 0.37907 0.67256 0.79196 0.0
H1412 H 0.49083 0.64091 0.80957 0.0
H1413 H 0.44797 0.5923 0.87047 0.0
H1414 H 0.43002 0.69656 0.78342 0.0
H1415 H 0.44501 0.70612 0.813 0.0
H1416 H 0.46714 0.68567 0.7836 0.0
H1417 H 0.40017 0.60984 0.88343 0.0
H1418 H 0.39135 0.64642 0.89092 0.0
H1419 H 0.37947 0.6385 0.85786 0.0
H1420 H 0.36905 0.74641 0.87432 0.0
H1421 H 0.33789 0.72226 0.80045 0.0
H1422 H 0.43531 0.70045 0.86892 0.0
H1423 H 0.41859 0.67929 0.89455 0.0
H1424 H 0.40898 0.71694 0.89775 0.0
H1425 H 0.3971 0.67254 0.77541 0.0
H1426 H 0.36033 0.67904 0.77896 0.0
H1427 H 0.38297 0.65037 0.80286 0.0
C1428 C 0.49885 0.44137 0.91428 0.0
C1429 C 0.48511 0.46359 0.93255 0.0
C1430 C 0.48623 0.42198 0.90905 0.0
C1431 C 0.45918 0.42498 0.92239 0.0
C1432 C 0.44607 0.44598 0.94281 0.0
C1433 C 0.45926 0.46505 0.94771 0.0
C1434 C 0.50103 0.39971 0.88738 0.0
C1435 C 0.41724 0.44976 0.95755 0.0
C1436 C 0.41246 0.40637 0.87518 0.0
C1437 C 0.41203 0.38001 0.89036 0.0
C1438 C 0.42786 0.42104 0.88538 0.0
C1439 C 0.44319 0.4091 0.91149 0.0
C1440 C 0.44309 0.38238 0.92683 0.0
C1441 C 0.42743 0.36813 0.91608 0.0
C1442 C 0.42743 0.44953 0.86837 0.0
C1443 C 0.45934 0.369 0.95462 0.0
H1444 H 0.5191 0.4399 0.90305 0.0
H1445 H 0.44856 0.48223 0.96178 0.0
H1446 H 0.49936 0.37867 0.89704 0.0
H1447 H 0.49119 0.40577 0.8652 0.0
H1448 H 0.52326 0.39749 0.88258 0.0
H1449 H 0.41158 0.4642 0.97602 0.0
H1450 H 0.40216 0.45895 0.93975 0.0
H1451 H 0.41529 0.4289 0.96747 0.0
H1452 H 0.40017 0.41593 0.85568 0.0
H1453 H 0.42728 0.34766 0.92776 0.0
H1454 H 0.44876 0.44885 0.85996 0.0
H1455 H 0.41916 0.46637 0.88423 0.0
H1456 H 0.41458 0.4557 0.84835 0.0
H1457 H 0.48152 0.36629 0.94863 0.0
H1458 H 0.45742 0.34789 0.96364 0.0
H1459 H 0.45202 0.38326 0.97324 0.0
C1460 C 0.62199 0.48729 0.81242 0.0
C1461 C 0.60286 0.48793 0.83813 0.0
C1462 C 0.64664 0.46392 0.80961 0.0
C1463 C 0.65261 0.44089 0.83336 0.0
C1464 C 0.63299 0.44107 0.85885 0.0
C1465 C 0.60834 0.46436 0.86077 0.0
C1466 C 0.66671 0.46431 0.7817 0.0
C1467 C 0.63862 0.41733 0.88499 0.0
C1468 C 0.71083 0.37021 0.82282 0.0
C1469 C 0.7327 0.37445 0.83514 0.0
C1470 C 0.6848 0.39183 0.82129 0.0
C1471 C 0.68037 0.41802 0.83319 0.0
C1472 C 0.7024 0.42216 0.84602 0.0
C1473 C 0.72831 0.40055 0.84639 0.0
C1474 C 0.66218 0.38679 0.8066 0.0
C1475 C 0.69857 0.44937 0.85966 0.0
H1476 H 0.61793 0.50524 0.7947 0.0
H1477 H 0.59381 0.46451 0.88078 0.0
H1478 H 0.68549 0.46714 0.78859 0.0
H1479 H 0.67337 0.44369 0.77169 0.0
H1480 H 0.65764 0.48182 0.76362 0.0
H1481 H 0.62059 0.41974 0.90225 0.0
H1482 H 0.64413 0.39636 0.87601 0.0
H1483 H 0.65653 0.41706 0.89681 0.0
H1484 H 0.71428 0.35038 0.81355 0.0
H1485 H 0.74518 0.404 0.85589 0.0
H1486 H 0.65469 0.40382 0.78754 0.0
H1487 H 0.64432 0.38781 0.82373 0.0
H1488 H 0.66925 0.36578 0.79731 0.0
H1489 H 0.69263 0.46784 0.84177 0.0
H1490 H 0.7176 0.44899 0.86935 0.0
H1491 H 0.68156 0.45288 0.87825 0.0
C1492 C 0.62752 0.46007 0.30298 0.0
C1493 C 0.63497 0.48133 0.28352 0.0
C1494 C 0.64722 0.43288 0.30964 0.0
C1495 C 0.67492 0.42713 0.29677 0.0
C1496 C 0.68287 0.44948 0.27947 0.0
C1497 C 0.66277 0.47616 0.27285 0.0
C1498 C 0.63784 0.40971 0.32819 0.0
C1499 C 0.71216 0.44459 0.26568 0.0
C1500 C 0.7334 0.35804 0.31798 0.0
C1501 C 0.73533 0.34287 0.2929 0.0
C1502 C 0.71334 0.3852 0.32023 0.0
C1503 C 0.69453 0.39721 0.29705 0.0
C1504 C 0.6958 0.38136 0.27233 0.0
C1505 C 0.71619 0.35451 0.27054 0.0
C1506 C 0.71272 0.40131 0.34694 0.0
C1507 C 0.67609 0.39313 0.24718 0.0
H1508 H 0.60597 0.46392 0.31098 0.0
H1509 H 0.66857 0.49265 0.25787 0.0
H1510 H 0.63608 0.3951 0.31242 0.0
H1511 H 0.65314 0.39686 0.34479 0.0
H1512 H 0.6174 0.41855 0.34102 0.0
H1513 H 0.71584 0.46492 0.25666 0.0
H1514 H 0.72716 0.43295 0.28304 0.0
H1515 H 0.71637 0.43125 0.24638 0.0
H1516 H 0.74758 0.34872 0.33577 0.0
H1517 H 0.71738 0.34273 0.25127 0.0
H1518 H 0.69165 0.4081 0.35881 0.0
H1519 H 0.71781 0.42092 0.33829 0.0
H1520 H 0.72764 0.38837 0.36397 0.0
H1521 H 0.6544 0.39976 0.25737 0.0
H1522 H 0.6786 0.37738 0.23072 0.0
H1523 H 0.67964 0.41233 0.23414 0.0
C1524 C 0.65843 0.59109 0.23958 0.0
C1525 C 0.63678 0.60553 0.2207 0.0
C1526 C 0.67761 0.60375 0.2447 0.0
C1527 C 0.67491 0.63168 0.23082 0.0
C1528 C 0.65363 0.64604 0.21089 0.0
C1529 C 0.63487 0.63269 0.20592 0.0
C1530 C 0.70024 0.58756 0.26576 0.0
C1531 C 0.64999 0.67592 0.19586 0.0
C1532 C 0.70453 0.67351 0.27395 0.0
C1533 C 0.72987 0.67097 0.25693 0.0
C1534 C 0.68611 0.66151 0.26513 0.0
C1535 C 0.69335 0.64637 0.23881 0.0
C1536 C 0.71872 0.64414 0.22122 0.0
C1537 C 0.73665 0.6566 0.23042 0.0
C1538 C 0.65911 0.66463 0.28431 0.0
C1539 C 0.72723 0.62793 0.19321 0.0
H1540 H 0.66016 0.5699 0.25061 0.0
H1541 H 0.61801 0.64394 0.19151 0.0
H1542 H 0.7207 0.587 0.25413 0.0
H1543 H 0.69719 0.59859 0.28673 0.0
H1544 H 0.70064 0.56531 0.27297 0.0
H1545 H 0.63368 0.68332 0.17931 0.0
H1546 H 0.64429 0.69083 0.21383 0.0
H1547 H 0.66969 0.67704 0.1835 0.0
H1548 H 0.69907 0.68497 0.29419 0.0
H1549 H 0.75632 0.65446 0.21734 0.0
H1550 H 0.65862 0.64333 0.29473 0.0
H1551 H 0.64154 0.67395 0.26952 0.0
H1552 H 0.65596 0.67834 0.3031 0.0
H1553 H 0.72973 0.60512 0.20018 0.0
H1554 H 0.74698 0.62939 0.18115 0.0
H1555 H 0.71091 0.63621 0.17674 0.0
C1556 C 0.48699 0.62668 0.29922 0.0
C1557 C 0.49446 0.62114 0.26837 0.0
C1558 C 0.46354 0.64999 0.30714 0.0
C1559 C 0.44722 0.668 0.28368 0.0
C1560 C 0.45525 0.6629 0.25253 0.0
C1561 C 0.47863 0.63971 0.24534 0.0
C1562 C 0.45579 0.65489 0.34059 0.0
C1563 C 0.43855 0.68137 0.22668 0.0
C1564 C 0.37003 0.70557 0.29455 0.0
C1565 C 0.36823 0.73432 0.29153 0.0
C1566 C 0.39566 0.68365 0.29441 0.0
C1567 C 0.42031 0.69053 0.29116 0.0
C1568 C 0.41861 0.71947 0.29017 0.0
C1569 C 0.39252 0.7411 0.29024 0.0
C1570 C 0.3963 0.6532 0.29568 0.0
C1571 C 0.44432 0.72774 0.28729 0.0
H1572 H 0.49917 0.61262 0.31716 0.0
H1573 H 0.48423 0.63595 0.22137 0.0
H1574 H 0.45146 0.67763 0.34358 0.0
H1575 H 0.43661 0.64982 0.34847 0.0
H1576 H 0.47232 0.64145 0.35559 0.0
H1577 H 0.44837 0.67546 0.20358 0.0
H1578 H 0.41763 0.67936 0.22923 0.0
H1579 H 0.43586 0.70412 0.22776 0.0
H1580 H 0.35128 0.70014 0.29614 0.0
H1581 H 0.39123 0.76328 0.28814 0.0
H1582 H 0.41069 0.63913 0.31259 0.0
H1583 H 0.40395 0.64541 0.27277 0.0
H1584 H 0.37554 0.65111 0.30202 0.0
H1585 H 0.45965 0.71314 0.30299 0.0
H1586 H 0.43966 0.74999 0.29256 0.0
H1587 H 0.45403 0.72594 0.2634 0.0
C1588 C 0.49636 0.47842 0.21388 0.0
C1589 C 0.50861 0.48478 0.23745 0.0
C1590 C 0.47907 0.46166 0.22042 0.0
C1591 C 0.47387 0.45099 0.2513 0.0
C1592 C 0.48627 0.45718 0.27519 0.0
C1593 C 0.5035 0.47392 0.26798 0.0
C1594 C 0.46618 0.45556 0.19431 0.0
C1595 C 0.48129 0.44612 0.30839 0.0
C1596 C 0.40883 0.43073 0.27011 0.0
C1597 C 0.41928 0.40106 0.26936 0.0
C1598 C 0.42642 0.44717 0.26482 0.0
C1599 C 0.45518 0.43363 0.25862 0.0
C1600 C 0.46597 0.4036 0.2587 0.0
C1601 C 0.44789 0.38767 0.2641 0.0
C1602 C 0.41415 0.4791 0.26522 0.0
C1603 C 0.49652 0.3884 0.25222 0.0
H1604 H 0.49996 0.48693 0.19031 0.0
H1605 H 0.51326 0.4782 0.28631 0.0
H1606 H 0.47198 0.43219 0.19383 0.0
H1607 H 0.44331 0.46419 0.19795 0.0
H1608 H 0.47267 0.46502 0.17152 0.0
H1609 H 0.49252 0.45282 0.32426 0.0
H1610 H 0.45887 0.45397 0.31565 0.0
H1611 H 0.48799 0.42249 0.31087 0.0
H1612 H 0.38678 0.44114 0.27455 0.0
H1613 H 0.45606 0.36481 0.26313 0.0
H1614 H 0.41807 0.4899 0.24218 0.0
H1615 H 0.4242 0.4862 0.28194 0.0
H1616 H 0.3915 0.48621 0.27144 0.0
H1617 H 0.50329 0.39552 0.22848 0.0
H1618 H 0.50175 0.36485 0.25452 0.0
H1619 H 0.5085 0.39386 0.26824 0.0
C1620 C 0.8192 0.65676 0.62716 0.0
C1621 C 0.8308 0.62698 0.62916 0.0
C1622 C 0.821 0.67195 0.65076 0.0
C1623 C 0.83439 0.657 0.67742 0.0
C1624 C 0.84725 0.62699 0.67902 0.0
C1625 C 0.84544 0.6123 0.65472 0.0
C1626 C 0.80778 0.70401 0.64754 0.0
C1627 C 0.86188 0.6103 0.70691 0.0
C1628 C 0.84853 0.70605 0.72671 0.0
C1629 C 0.8245 0.71289 0.74696 0.0
C1630 C 0.85309 0.68628 0.70531 0.0
C1631 C 0.83316 0.67299 0.70404 0.0
C1632 C 0.80993 0.67819 0.72591 0.0
C1633 C 0.80589 0.69802 0.7471 0.0
C1634 C 0.87832 0.68113 0.68271 0.0
C1635 C 0.78835 0.66418 0.72561 0.0
H1636 H 0.80815 0.66823 0.60726 0.0
H1637 H 0.85433 0.58925 0.65641 0.0
H1638 H 0.79189 0.71055 0.66684 0.0
H1639 H 0.82355 0.71416 0.64877 0.0
H1640 H 0.79787 0.71238 0.6255 0.0
H1641 H 0.87383 0.58785 0.70294 0.0
H1642 H 0.87612 0.62045 0.71339 0.0
H1643 H 0.84643 0.61023 0.72677 0.0
H1644 H 0.86324 0.71716 0.72647 0.0
H1645 H 0.78733 0.70293 0.76267 0.0
H1646 H 0.87212 0.69239 0.65979 0.0
H1647 H 0.88797 0.65809 0.67997 0.0
H1648 H 0.89402 0.68901 0.68999 0.0
H1649 H 0.77819 0.67124 0.70364 0.0
H1650 H 0.77218 0.66938 0.74503 0.0
H1651 H 0.79824 0.64069 0.72689 0.0
C1652 C 0.47737 0.81968 0.69924 0.0
C1653 C 0.48317 0.81732 0.66749 0.0
C1654 C 0.45317 0.81609 0.71517 0.0
C1655 C 0.43362 0.81076 0.69894 0.0
C1656 C 0.43937 0.80836 0.66681 0.0
C1657 C 0.46419 0.81125 0.65162 0.0
C1658 C 0.44854 0.81799 0.74948 0.0
C1659 C 0.41902 0.80333 0.64833 0.0
C1660 C 0.38021 0.77976 0.7446 0.0
C1661 C 0.35744 0.80439 0.7495 0.0
C1662 C 0.40499 0.78145 0.72821 0.0
C1663 C 0.407 0.80837 0.71553 0.0
C1664 C 0.38374 0.83322 0.71973 0.0
C1665 C 0.35953 0.83097 0.73701 0.0
C1666 C 0.42936 0.75443 0.72538 0.0
C1667 C 0.38447 0.8623 0.70608 0.0
H1668 H 0.49209 0.82394 0.71178 0.0
H1669 H 0.46843 0.80955 0.62709 0.0
H1670 H 0.42979 0.8363 0.75464 0.0
H1671 H 0.44495 0.79844 0.76153 0.0
H1672 H 0.46634 0.82064 0.75904 0.0
H1673 H 0.42647 0.80192 0.62362 0.0
H1674 H 0.41507 0.7833 0.65788 0.0
H1675 H 0.39897 0.82094 0.65001 0.0
H1676 H 0.37898 0.75914 0.7545 0.0
H1677 H 0.34206 0.85011 0.74054 0.0
H1678 H 0.44631 0.75508 0.73824 0.0
H1679 H 0.43743 0.75264 0.70093 0.0
H1680 H 0.42399 0.73505 0.73461 0.0
H1681 H 0.40015 0.86768 0.71682 0.0
H1682 H 0.36415 0.87927 0.70951 0.0
H1683 H 0.39065 0.86225 0.681 0.0
C1684 C 0.28702 0.41906 0.64008 0.0
C1685 C 0.31145 0.42608 0.6347 0.0
C1686 C 0.28348 0.39905 0.66482 0.0
C1687 C 0.30488 0.38537 0.68484 0.0
C1688 C 0.32937 0.39266 0.67992 0.0
C1689 C 0.33229 0.41287 0.65516 0.0
C1690 C 0.25702 0.392 0.66908 0.0
C1691 C 0.35282 0.37861 0.70048 0.0
C1692 C 0.28937 0.34618 0.76288 0.0
C1693 C 0.29813 0.31783 0.75605 0.0
C1694 C 0.29125 0.36843 0.74 0.0
C1695 C 0.30241 0.36218 0.70963 0.0
C1696 C 0.31151 0.33349 0.70287 0.0
C1697 C 0.30915 0.31182 0.726 0.0
C1698 C 0.28131 0.39864 0.74831 0.0
C1699 C 0.32398 0.32555 0.67114 0.0
H1700 H 0.27078 0.4287 0.62455 0.0
H1701 H 0.35108 0.41825 0.65191 0.0
H1702 H 0.26157 0.3694 0.66531 0.0
H1703 H 0.24766 0.39453 0.69304 0.0
H1704 H 0.24163 0.40573 0.65292 0.0
H1705 H 0.36995 0.38755 0.69465 0.0
H1706 H 0.34522 0.3812 0.72496 0.0
H1707 H 0.36119 0.35538 0.69834 0.0
H1708 H 0.28099 0.35098 0.78607 0.0
H1709 H 0.31626 0.28995 0.72054 0.0
H1710 H 0.26495 0.41229 0.73326 0.0
H1711 H 0.29857 0.40744 0.74429 0.0
H1712 H 0.27295 0.40009 0.77275 0.0
H1713 H 0.30904 0.33714 0.65371 0.0
H1714 H 0.32995 0.30229 0.66953 0.0
H1715 H 0.34264 0.33199 0.66508 0.0
C1716 C 0.56889 0.31462 0.57891 0.0
C1717 C 0.56331 0.28906 0.58781 0.0
C1718 C 0.58503 0.32341 0.59669 0.0
C1719 C 0.59551 0.30639 0.62408 0.0
C1720 C 0.58857 0.28141 0.6338 0.0
C1721 C 0.57279 0.27306 0.61557 0.0
C1722 C 0.59192 0.35017 0.58544 0.0
C1723 C 0.59879 0.26269 0.66293 0.0
C1724 C 0.66255 0.30234 0.6556 0.0
C1725 C 0.65296 0.31674 0.68209 0.0
C1726 C 0.64415 0.30044 0.63548 0.0
C1727 C 0.61523 0.31313 0.64182 0.0
C1728 C 0.60543 0.32895 0.66759 0.0
C1729 C 0.62433 0.33054 0.68736 0.0
C1730 C 0.65567 0.28333 0.60836 0.0
C1731 C 0.57487 0.343 0.67523 0.0
H1732 H 0.56184 0.32698 0.5574 0.0
H1733 H 0.56836 0.2534 0.6228 0.0
H1734 H 0.5881 0.36377 0.60443 0.0
H1735 H 0.61421 0.3444 0.5776 0.0
H1736 H 0.57969 0.36278 0.56599 0.0
H1737 H 0.5901 0.245 0.66833 0.0
H1738 H 0.62167 0.25337 0.66044 0.0
H1739 H 0.59323 0.27553 0.68277 0.0
H1740 H 0.68449 0.29127 0.65129 0.0
H1741 H 0.61657 0.34217 0.70736 0.0
H1742 H 0.64624 0.29545 0.58706 0.0
H1743 H 0.65045 0.26337 0.61248 0.0
H1744 H 0.6785 0.27758 0.60447 0.0
H1745 H 0.5647 0.35524 0.65437 0.0
H1746 H 0.57067 0.35759 0.69338 0.0
H1747 H 0.56523 0.32639 0.68351 0.0
C1748 C 0.8637 0.48197 0.53256 0.0
C1749 C 0.86729 0.50587 0.51409 0.0
C1750 C 0.8617 0.45893 0.5193 0.0
C1751 C 0.86331 0.45977 0.48679 0.0
C1752 C 0.86931 0.48266 0.46812 0.0
C1753 C 0.87131 0.50536 0.48198 0.0
C1754 C 0.85561 0.43483 0.54014 0.0
C1755 C 0.87131 0.48441 0.43338 0.0
C1756 C 0.8658 0.39494 0.44883 0.0
C1757 C 0.83782 0.4012 0.44416 0.0
C1758 C 0.87451 0.41356 0.463 0.0
C1759 C 0.85481 0.43915 0.4724 0.0
C1760 C 0.82659 0.44558 0.46757 0.0
C1761 C 0.81848 0.42656 0.4536 0.0
C1762 C 0.90471 0.40586 0.468 0.0
C1763 C 0.80488 0.47274 0.47692 0.0
H1764 H 0.86074 0.48197 0.5574 0.0
H1765 H 0.87432 0.52356 0.46745 0.0
H1766 H 0.8335 0.43713 0.53968 0.0
H1767 H 0.86814 0.41394 0.53204 0.0
H1768 H 0.85974 0.43475 0.56438 0.0
H1769 H 0.87983 0.50128 0.42231 0.0
H1770 H 0.88452 0.46371 0.42533 0.0
H1771 H 0.85041 0.48927 0.42549 0.0
H1772 H 0.88082 0.37529 0.44176 0.0
H1773 H 0.7969 0.43182 0.44957 0.0
H1774 H 0.90725 0.40481 0.4929 0.0
H1775 H 0.91284 0.42262 0.45583 0.0
H1776 H 0.9174 0.38506 0.45968 0.0
H1777 H 0.80468 0.47371 0.50201 0.0
H1778 H 0.78382 0.47451 0.47165 0.0
H1779 H 0.8099 0.49149 0.46474 0.0
C1780 C 0.63012 0.834 0.4637 0.0
C1781 C 0.63569 0.82606 0.49486 0.0
C1782 C 0.65155 0.83164 0.43999 0.0
C1783 C 0.67953 0.82114 0.44729 0.0
C1784 C 0.68536 0.81324 0.47866 0.0
C1785 C 0.66349 0.81574 0.50195 0.0
C1786 C 0.64423 0.83992 0.40696 0.0
C1787 C 0.71479 0.80203 0.48763 0.0
C1788 C 0.73528 0.78938 0.38418 0.0
C1789 C 0.74511 0.81209 0.37289 0.0
C1790 C 0.71413 0.79202 0.40824 0.0
C1791 C 0.70257 0.81787 0.42201 0.0
C1792 C 0.71265 0.84075 0.41105 0.0
C1793 C 0.7336 0.83766 0.38662 0.0
C1794 C 0.70412 0.76703 0.41887 0.0
C1795 C 0.7012 0.86862 0.4251 0.0
H1796 H 0.60892 0.84151 0.45763 0.0
H1797 H 0.66821 0.80978 0.52581 0.0
H1798 H 0.65306 0.85654 0.39598 0.0
H1799 H 0.65338 0.82117 0.39373 0.0
H1800 H 0.62153 0.84816 0.40503 0.0
H1801 H 0.71597 0.79744 0.513 0.0
H1802 H 0.72633 0.78216 0.47689 0.0
H1803 H 0.72539 0.81777 0.47889 0.0
H1804 H 0.74394 0.76943 0.374 0.0
H1805 H 0.74104 0.85533 0.37838 0.0
H1806 H 0.68125 0.7739 0.41943 0.0
H1807 H 0.70997 0.75841 0.44266 0.0
H1808 H 0.71304 0.74959 0.40375 0.0
H1809 H 0.67877 0.87836 0.42195 0.0
H1810 H 0.71169 0.88408 0.41469 0.0
H1811 H 0.70349 0.86478 0.45027 0.0
C1812 C 0.32919 0.59462 0.43537 0.0
C1813 C 0.31422 0.59254 0.46404 0.0
C1814 C 0.32655 0.62122 0.41814 0.0
C1815 C 0.30851 0.64666 0.42969 0.0
C1816 C 0.29328 0.64477 0.45856 0.0
C1817 C 0.29627 0.61785 0.47528 0.0
C1818 C 0.34311 0.62207 0.38746 0.0
C1819 C 0.27396 0.67125 0.47193 0.0
C1820 C 0.32243 0.71586 0.39755 0.0
C1821 C 0.30303 0.72775 0.37531 0.0
C1822 C 0.32404 0.68993 0.41573 0.0
C1823 C 0.30591 0.67518 0.41168 0.0
C1824 C 0.28596 0.68727 0.38968 0.0
C1825 C 0.28472 0.71333 0.37187 0.0
C1826 C 0.34558 0.67803 0.4389 0.0
C1827 C 0.26627 0.67234 0.38444 0.0
H1828 H 0.34279 0.57537 0.42608 0.0
H1829 H 0.28483 0.61671 0.49748 0.0
H1830 H 0.32902 0.63264 0.36894 0.0
H1831 H 0.35682 0.63485 0.38786 0.0
H1832 H 0.35604 0.60044 0.3815 0.0
H1833 H 0.26335 0.66625 0.49443 0.0
H1834 H 0.28567 0.68535 0.47521 0.0
H1835 H 0.25809 0.68342 0.45568 0.0
H1836 H 0.33675 0.72664 0.40054 0.0
H1837 H 0.26972 0.72207 0.35474 0.0
H1838 H 0.36045 0.65734 0.4325 0.0
H1839 H 0.33565 0.67388 0.46208 0.0
H1840 H 0.35727 0.69265 0.44035 0.0
H1841 H 0.2781 0.65137 0.37608 0.0
H1842 H 0.25129 0.68495 0.36734 0.0
H1843 H 0.25459 0.66819 0.40645 0.0
C1844 C 0.43967 0.25638 0.47015 0.0
C1845 C 0.45203 0.27649 0.47418 0.0
C1846 C 0.41796 0.26303 0.45095 0.0
C1847 C 0.4081 0.29058 0.43479 0.0
C1848 C 0.42052 0.31109 0.43845 0.0
C1849 C 0.44223 0.30387 0.45821 0.0
C1850 C 0.40526 0.24051 0.44837 0.0
C1851 C 0.41083 0.34063 0.4215 0.0
C1852 C 0.36397 0.29354 0.36935 0.0
C1853 C 0.33719 0.30253 0.38397 0.0
C1854 C 0.38722 0.29133 0.38485 0.0
C1855 C 0.38368 0.29791 0.41583 0.0
C1856 C 0.35652 0.30814 0.43007 0.0
C1857 C 0.33376 0.31057 0.41394 0.0
C1858 C 0.41569 0.28094 0.3685 0.0
C1859 C 0.35152 0.315 0.46308 0.0
H1860 H 0.44683 0.23516 0.48232 0.0
H1861 H 0.45167 0.31954 0.46089 0.0
H1862 H 0.38302 0.24803 0.45657 0.0
H1863 H 0.40656 0.23662 0.42393 0.0
H1864 H 0.41557 0.21995 0.46202 0.0
H1865 H 0.4233 0.35374 0.42561 0.0
H1866 H 0.41197 0.33927 0.39637 0.0
H1867 H 0.38886 0.35169 0.42892 0.0
H1868 H 0.36685 0.28747 0.34618 0.0
H1869 H 0.31314 0.31789 0.42538 0.0
H1870 H 0.42802 0.26028 0.38044 0.0
H1871 H 0.42666 0.29633 0.36923 0.0
H1872 H 0.415 0.27803 0.34406 0.0
H1873 H 0.36096 0.29542 0.47859 0.0
H1874 H 0.32916 0.32374 0.47049 0.0
H1875 H 0.36152 0.33068 0.46613 0.0
C1876 C 0.63975 0.77128 0.69792 0.0
C1877 C 0.63668 0.78073 0.6665 0.0
C1878 C 0.66146 0.77368 0.71277 0.0
C1879 C 0.68011 0.78661 0.69607 0.0
C1880 C 0.67719 0.796 0.66432 0.0
C1881 C 0.65577 0.79268 0.6499 0.0
C1882 C 0.66458 0.76221 0.74627 0.0
C1883 C 0.69653 0.8099 0.64558 0.0
C1884 C 0.7214 0.8188 0.73758 0.0
C1885 C 0.74816 0.7993 0.73368 0.0
C1886 C 0.69887 0.8147 0.72604 0.0
C1887 C 0.70309 0.78993 0.71136 0.0
C1888 C 0.7299 0.76935 0.70924 0.0
C1889 C 0.75218 0.77467 0.7196 0.0
C1890 C 0.67083 0.83747 0.7283 0.0
C1891 C 0.73548 0.742 0.69519 0.0
H1892 H 0.6252 0.7619 0.71093 0.0
H1893 H 0.65353 0.80025 0.6257 0.0
H1894 H 0.68576 0.74689 0.74912 0.0
H1895 H 0.66179 0.77987 0.76025 0.0
H1896 H 0.64939 0.75133 0.75559 0.0
H1897 H 0.69064 0.8174 0.62157 0.0
H1898 H 0.6967 0.82838 0.65666 0.0
H1899 H 0.71791 0.79452 0.64474 0.0
H1900 H 0.71831 0.83787 0.74842 0.0
H1901 H 0.77285 0.75941 0.71674 0.0
H1902 H 0.65509 0.82808 0.73968 0.0
H1903 H 0.66453 0.84675 0.70479 0.0
H1904 H 0.67069 0.8549 0.74137 0.0
H1905 H 0.71747 0.73434 0.69919 0.0
H1906 H 0.75355 0.72494 0.70488 0.0
H1907 H 0.74016 0.74564 0.66995 0.0
C1908 C 0.6107 0.26558 0.43872 0.0
C1909 C 0.6109 0.2393 0.45472 0.0
C1910 C 0.63436 0.26852 0.42112 0.0
C1911 C 0.65902 0.24473 0.42 0.0
C1912 C 0.65935 0.21816 0.43622 0.0
C1913 C 0.63521 0.21571 0.45313 0.0
C1914 C 0.63298 0.29709 0.40374 0.0
C1915 C 0.68534 0.19245 0.43617 0.0
C1916 C 0.71455 0.24645 0.35488 0.0
C1917 C 0.73194 0.25646 0.36886 0.0
C1918 C 0.6908 0.24238 0.37126 0.0
C1919 C 0.68462 0.24791 0.40253 0.0
C1920 C 0.70259 0.25717 0.41699 0.0
C1921 C 0.72584 0.2616 0.39991 0.0
C1922 C 0.67192 0.23294 0.35487 0.0
C1923 C 0.69707 0.26277 0.45042 0.0
H1924 H 0.59185 0.28374 0.43961 0.0
H1925 H 0.63549 0.19546 0.46575 0.0
H1926 H 0.64771 0.30534 0.41248 0.0
H1927 H 0.63919 0.29474 0.37893 0.0
H1928 H 0.61195 0.31313 0.40594 0.0
H1929 H 0.68213 0.17329 0.44981 0.0
H1930 H 0.69274 0.18746 0.41221 0.0
H1931 H 0.70196 0.19715 0.44589 0.0
H1932 H 0.71899 0.24268 0.33082 0.0
H1933 H 0.73929 0.26914 0.41096 0.0
H1934 H 0.65115 0.24952 0.35468 0.0
H1935 H 0.66927 0.21312 0.36735 0.0
H1936 H 0.6799 0.22901 0.33071 0.0
H1937 H 0.67736 0.28055 0.45364 0.0
H1938 H 0.71385 0.26838 0.45869 0.0
H1939 H 0.6948 0.24368 0.46507 0.0
C1940 C 0.83966 0.6507 0.47088 0.0
C1941 C 0.81273 0.64943 0.47644 0.0
C1942 C 0.84568 0.67142 0.44904 0.0
C1943 C 0.8243 0.69129 0.43214 0.0
C1944 C 0.79714 0.68997 0.43727 0.0
C1945 C 0.79167 0.66911 0.45943 0.0
C1946 C 0.87489 0.67216 0.44419 0.0
C1947 C 0.77379 0.71085 0.41967 0.0
C1948 C 0.83154 0.76229 0.39764 0.0
C1949 C 0.83885 0.75788 0.36654 0.0
C1950 C 0.82718 0.74062 0.41933 0.0
C1951 C 0.83022 0.71392 0.40963 0.0
C1952 C 0.83847 0.70907 0.3784 0.0
C1953 C 0.84287 0.73111 0.35725 0.0
C1954 C 0.81851 0.74658 0.45243 0.0
C1955 C 0.84162 0.68101 0.36711 0.0
H1956 H 0.85621 0.63528 0.48337 0.0
H1957 H 0.77078 0.66852 0.46376 0.0
H1958 H 0.88275 0.66985 0.41973 0.0
H1959 H 0.8752 0.69307 0.44928 0.0
H1960 H 0.88922 0.65502 0.45901 0.0
H1961 H 0.76993 0.73273 0.42556 0.0
H1962 H 0.77944 0.71095 0.39449 0.0
H1963 H 0.7543 0.70578 0.42493 0.0
H1964 H 0.82835 0.78301 0.40489 0.0
H1965 H 0.84861 0.72768 0.3332 0.0
H1966 H 0.83248 0.73004 0.46808 0.0
H1967 H 0.79733 0.74571 0.45867 0.0
H1968 H 0.81868 0.76785 0.45656 0.0
H1969 H 0.85548 0.66305 0.3815 0.0
H1970 H 0.85005 0.67997 0.34266 0.0
H1971 H 0.82118 0.67791 0.36925 0.0
C1972 C 0.56734 0.74333 0.50953 0.0
C1973 C 0.56197 0.74529 0.54137 0.0
C1974 C 0.54705 0.74215 0.49166 0.0
C1975 C 0.52084 0.74257 0.50598 0.0
C1976 C 0.51624 0.74179 0.53848 0.0
C1977 C 0.53681 0.74327 0.55578 0.0
C1978 C 0.55287 0.74309 0.45709 0.0
C1979 C 0.4888 0.74173 0.55479 0.0
C1980 C 0.45885 0.78273 0.45987 0.0
C1981 C 0.45279 0.76066 0.44922 0.0
C1982 C 0.48084 0.777 0.47833 0.0
C1983 C 0.49718 0.74838 0.48674 0.0
C1984 C 0.4911 0.7259 0.47626 0.0
C1985 C 0.4691 0.73232 0.45734 0.0
C1986 C 0.48678 0.8017 0.48853 0.0
C1987 C 0.50776 0.69515 0.4851 0.0
H1988 H 0.58673 0.74469 0.49811 0.0
H1989 H 0.53249 0.7445 0.5804 0.0
H1990 H 0.54576 0.72751 0.44796 0.0
H1991 H 0.54129 0.76461 0.44627 0.0
H1992 H 0.57522 0.73856 0.44997 0.0
H1993 H 0.49006 0.73618 0.58008 0.0
H1994 H 0.47319 0.76323 0.55067 0.0
H1995 H 0.48133 0.7264 0.54565 0.0
H1996 H 0.44662 0.80469 0.45323 0.0
H1997 H 0.46442 0.7152 0.44922 0.0
H1998 H 0.50817 0.80092 0.48021 0.0
H1999 H 0.48532 0.80014 0.51407 0.0
H2000 H 0.47224 0.82268 0.47981 0.0
H2001 H 0.52975 0.69107 0.47657 0.0
H2002 H 0.50004 0.68014 0.47566 0.0
H2003 H 0.5071 0.69057 0.51058 0.0
C2004 C 0.29098 0.43143 0.47349 0.0
C2005 C 0.27532 0.45929 0.47975 0.0
C2006 C 0.28459 0.41883 0.45025 0.0
C2007 C 0.26203 0.43452 0.43249 0.0
C2008 C 0.24561 0.46243 0.43916 0.0
C2009 C 0.25237 0.47448 0.46289 0.0
C2010 C 0.30249 0.38885 0.44428 0.0
C2011 C 0.22157 0.47988 0.42056 0.0
C2012 C 0.2727 0.40476 0.35586 0.0
C2013 C 0.25833 0.38519 0.36221 0.0
C2014 C 0.27192 0.42311 0.37753 0.0
C2015 C 0.2567 0.42158 0.40641 0.0
C2016 C 0.24015 0.40374 0.41179 0.0
C2017 C 0.24101 0.38589 0.38952 0.0
C2018 C 0.28945 0.44222 0.37058 0.0
C2019 C 0.22369 0.40134 0.44225 0.0
H2020 H 0.3086 0.41945 0.4866 0.0
H2021 H 0.24029 0.49609 0.46751 0.0
H2022 H 0.28956 0.37495 0.44595 0.0
H2023 H 0.31275 0.38891 0.4206 0.0
H2024 H 0.31872 0.37934 0.4608 0.0
H2025 H 0.20948 0.50022 0.43022 0.0
H2026 H 0.22934 0.48488 0.39653 0.0
H2027 H 0.20756 0.46756 0.41953 0.0
H2028 H 0.28592 0.40459 0.33469 0.0
H2029 H 0.22979 0.37087 0.39472 0.0
H2030 H 0.30821 0.43295 0.38359 0.0
H2031 H 0.278 0.46365 0.37801 0.0
H2032 H 0.29612 0.44462 0.34564 0.0
H2033 H 0.23799 0.38863 0.45992 0.0
H2034 H 0.2083 0.39067 0.44088 0.0
H2035 H 0.21274 0.42266 0.45017 0.0
C2036 C 0.48268 0.21452 0.66231 0.0
C2037 C 0.47132 0.2313 0.63571 0.0
C2038 C 0.46717 0.21619 0.69097 0.0
C2039 C 0.43946 0.23479 0.69304 0.0
C2040 C 0.42783 0.25175 0.66624 0.0
C2041 C 0.44399 0.24995 0.63796 0.0
C2042 C 0.4805 0.19823 0.71908 0.0
C2043 C 0.39825 0.27164 0.66739 0.0
C2044 C 0.38894 0.22158 0.7591 0.0
C2045 C 0.38615 0.24339 0.77726 0.0
C2046 C 0.40674 0.21807 0.73203 0.0
C2047 C 0.4225 0.23649 0.72316 0.0
C2048 C 0.42097 0.25746 0.74237 0.0
C2049 C 0.40266 0.26081 0.76903 0.0
C2050 C 0.40752 0.19568 0.71202 0.0
C2051 C 0.43779 0.27719 0.73409 0.0
H2052 H 0.50394 0.20045 0.66082 0.0
H2053 H 0.4351 0.26279 0.61743 0.0
H2054 H 0.47978 0.21215 0.73687 0.0
H2055 H 0.46886 0.18377 0.72927 0.0
H2056 H 0.50238 0.18516 0.71368 0.0
H2057 H 0.3953 0.28776 0.68348 0.0
H2058 H 0.39215 0.28295 0.64441 0.0
H2059 H 0.38407 0.25948 0.67628 0.0
H2060 H 0.37603 0.20825 0.76504 0.0
H2061 H 0.40061 0.27773 0.78292 0.0
H2062 H 0.42914 0.18189 0.70689 0.0
H2063 H 0.3991 0.20619 0.68968 0.0
H2064 H 0.39528 0.18199 0.723 0.0
H2065 H 0.45982 0.2648 0.72855 0.0
H2066 H 0.43648 0.29024 0.753 0.0
H2067 H 0.43023 0.29181 0.71325 0.0
C2068 C 0.80194 0.47068 0.63378 0.0
C2069 C 0.78516 0.49698 0.64367 0.0
C2070 C 0.80442 0.44504 0.65253 0.0
C2071 C 0.78974 0.44571 0.68191 0.0
C2072 C 0.77209 0.4721 0.69166 0.0
C2073 C 0.76996 0.49744 0.67237 0.0
C2074 C 0.8232 0.41732 0.64115 0.0
C2075 C 0.75603 0.47362 0.72283 0.0
C2076 C 0.77802 0.37867 0.72317 0.0
C2077 C 0.79811 0.36966 0.7447 0.0
C2078 C 0.77541 0.40306 0.70219 0.0
C2079 C 0.7933 0.41888 0.70275 0.0
C2080 C 0.81418 0.40946 0.72375 0.0
C2081 C 0.81638 0.38491 0.74445 0.0
C2082 C 0.75302 0.41231 0.68 0.0
C2083 C 0.83368 0.42579 0.72495 0.0
H2084 H 0.81336 0.47019 0.61138 0.0
H2085 H 0.75718 0.5177 0.68021 0.0
H2086 H 0.84042 0.40732 0.65633 0.0
H2087 H 0.81168 0.40216 0.64216 0.0
H2088 H 0.8321 0.42037 0.61713 0.0
H2089 H 0.74252 0.49569 0.72654 0.0
H2090 H 0.743 0.45977 0.72531 0.0
H2091 H 0.77058 0.46559 0.74128 0.0
H2092 H 0.76385 0.36699 0.72306 0.0
H2093 H 0.83191 0.37819 0.76103 0.0
H2094 H 0.76204 0.41498 0.656 0.0
H2095 H 0.73789 0.43331 0.68505 0.0
H2096 H 0.74179 0.39681 0.68138 0.0
H2097 H 0.8445 0.4283 0.70188 0.0
H2098 H 0.84941 0.41509 0.74185 0.0
H2099 H 0.82178 0.4475 0.73136 0.0
C2100 C 0.23276 0.58319 0.60634 0.0
C2101 C 0.26161 0.57166 0.60113 0.0
C2102 C 0.22066 0.60499 0.62582 0.0
C2103 C 0.23792 0.61515 0.64041 0.0
C2104 C 0.26701 0.60362 0.63493 0.0
C2105 C 0.27838 0.58215 0.61545 0.0
C2106 C 0.1896 0.61658 0.63118 0.0
C2107 C 0.28638 0.61384 0.64975 0.0
C2108 C 0.22667 0.68418 0.67101 0.0
C2109 C 0.23044 0.67447 0.70222 0.0
C2110 C 0.22453 0.66604 0.65063 0.0
C2111 C 0.22658 0.63759 0.66179 0.0
C2112 C 0.22591 0.62932 0.69393 0.0
C2113 C 0.22786 0.64792 0.71385 0.0
C2114 C 0.22412 0.67606 0.61663 0.0
C2115 C 0.22713 0.59949 0.7069 0.0
H2116 H 0.21968 0.57512 0.59538 0.0
H2117 H 0.30068 0.57355 0.6115 0.0
H2118 H 0.1831 0.60629 0.65341 0.0
H2119 H 0.1822 0.63992 0.63261 0.0
H2120 H 0.1793 0.61211 0.61267 0.0
H2121 H 0.30848 0.60259 0.64295 0.0
H2122 H 0.28204 0.63702 0.64312 0.0
H2123 H 0.28313 0.61046 0.67522 0.0
H2124 H 0.22826 0.70482 0.66182 0.0
H2125 H 0.22983 0.64068 0.73816 0.0
H2126 H 0.21132 0.6671 0.60535 0.0
H2127 H 0.24551 0.66859 0.60561 0.0
H2128 H 0.21602 0.6997 0.61241 0.0
H2129 H 0.21379 0.59195 0.69472 0.0
H2130 H 0.22062 0.59824 0.73195 0.0
H2131 H 0.24869 0.5848 0.70358 0.0
loop_
_geom_bond_atom_site_label_1
_geom_bond_atom_site_label_2
_geom_bond_distance
_geom_bond_site_symmetry_2
_ccdc_geom_bond_type
Cu0 N1 1.999 . S
Cu0 O6 1.974 1_545 S
Cu0 N11 1.985 1_545 S
Cu0 O20 1.962 1_455 S
N1 Cu0 1.999 . S
N1 C3 1.263 . S
N1 C5 1.389 . S
N2 C3 1.358 . S
N2 C4 1.400 . S
C3 N1 1.263 . S
C3 N2 1.358 . S
C3 H9 0.930 . S
C4 N2 1.400 . S
C4 C5 1.351 . S
C4 H21 0.930 . S
C5 N1 1.389 . S
C5 C4 1.351 . S
C5 H10 0.930 . S
O6 Cu0 1.974 1_565 S
O6 C16 1.282 . S
C7 O8 1.261 1_655 S
C7 O20 1.250 . S
O8 C7 1.261 1_455 S
H9 C3 0.930 . S
H10 C5 0.930 . S
N11 Cu0 1.985 1_565 S
N11 C13 1.335 1_455 S
N11 C14 1.390 . S
N12 C13 1.345 . S
N12 C15 1.336 1_655 S
C13 N11 1.335 1_655 S
C13 N12 1.345 . S
C13 H18 0.942 . S
C14 N11 1.390 . S
C14 C15 1.346 . S
C14 H19 0.930 . S
C15 N12 1.336 1_455 S
C15 C14 1.346 . S
C15 H22 0.929 . S
C16 O6 1.282 . S
C16 O17 1.216 . S
O17 C16 1.216 . S
H18 C13 0.942 . S
H19 C14 0.930 . S
O20 Cu0 1.962 1_655 S
O20 C7 1.250 . S
H21 C4 0.930 . S
H22 C15 0.929 . S
Cu23 N24 2.005 . S
Cu23 O29 1.974 1_455 S
Cu23 N34 1.985 . S
Cu23 O43 1.959 . S
N24 Cu23 2.005 . S
N24 C26 1.256 1_455 S
N24 C28 1.389 1_545 S
N25 C26 1.358 . S
N25 C27 1.400 1_545 S
C26 N24 1.256 1_655 S
C26 N25 1.358 . S
C26 H32 0.930 . S
C27 N25 1.400 1_565 S
C27 C28 1.351 1_655 S
C27 H44 0.930 . S
C28 N24 1.389 1_565 S
C28 C27 1.351 1_455 S
C28 H33 0.930 . S
O29 Cu23 1.974 1_655 S
O29 C39 1.282 . S
C30 O31 1.261 . S
C30 O43 1.251 . S
O31 C30 1.261 . S
H32 C26 0.930 . S
H33 C28 0.930 . S
N34 Cu23 1.985 . S
N34 C36 1.335 . S
N34 C37 1.390 . S
N35 C36 1.345 . S
N35 C38 1.336 . S
C36 N34 1.335 . S
C36 N35 1.345 . S
C36 H41 0.930 . S
C37 N34 1.390 . S
C37 C38 1.346 . S
C37 H42 0.930 . S
C38 N35 1.336 . S
C38 C37 1.346 . S
C38 H45 0.929 . S
C39 O29 1.282 . S
C39 O40 1.216 . S
O40 C39 1.216 . S
H41 C36 0.930 . S
H42 C37 0.930 . S
O43 Cu23 1.959 . S
O43 C30 1.251 . S
H44 C27 0.930 . S
H45 C38 0.929 . S
Cu46 N47 1.999 . S
Cu46 O52 1.974 . S
Cu46 N57 1.985 . S
Cu46 O66 1.959 . S
N47 Cu46 1.999 . S
N47 C49 1.263 . S
N47 C51 1.389 . S
N48 C49 1.338 1_565 S
N48 C50 1.377 1_565 S
C49 N47 1.263 . S
C49 N48 1.338 1_545 S
C49 H55 0.930 . S
C50 N48 1.377 1_545 S
C50 C51 1.351 . S
C50 H67 0.930 1_554 S
C51 N47 1.389 . S
C51 C50 1.351 . S
C51 H56 0.930 . S
O52 Cu46 1.974 . S
O52 C62 1.282 . S
C53 O54 1.261 . S
C53 O66 1.251 . S
O54 C53 1.261 . S
H55 C49 0.930 . S
H56 C51 0.930 . S
N57 Cu46 1.985 . S
N57 C59 1.335 . S
N57 C60 1.390 . S
N58 C59 1.345 . S
N58 C61 1.336 . S
C59 N57 1.335 . S
C59 N58 1.345 . S
C59 H64 0.930 . S
C60 N57 1.390 . S
C60 C61 1.346 . S
C60 H65 0.930 . S
C61 N58 1.336 . S
C61 C60 1.346 . S
C61 H68 0.929 . S
C62 O52 1.282 . S
C62 O63 1.216 . S
O63 C62 1.216 . S
H64 C59 0.930 . S
H65 C60 0.930 . S
O66 Cu46 1.959 . S
O66 C53 1.251 . S
H67 C50 0.930 1_556 S
H68 C61 0.929 . S
Cu69 N70 1.999 . S
Cu69 O75 1.974 . S
Cu69 N80 1.985 . S
Cu69 O89 1.959 . S
N70 Cu69 1.999 . S
N70 C72 1.263 . S
N70 C74 1.389 . S
N71 C72 1.358 . S
N71 C73 1.400 1_554 S
C72 N70 1.263 . S
C72 N71 1.358 . S
C72 H78 0.930 . S
C73 N71 1.400 1_556 S
C73 C74 1.351 1_556 S
C73 H90 0.930 . S
C74 N70 1.389 . S
C74 C73 1.351 1_554 S
C74 H79 0.931 . S
O75 Cu69 1.974 . S
O75 C85 1.282 . S
C76 O77 1.261 . S
C76 O89 1.251 . S
O77 C76 1.261 . S
H78 C72 0.930 . S
H79 C74 0.931 . S
N80 Cu69 1.985 . S
N80 C82 1.335 1_455 S
N80 C83 1.390 . S
N81 C82 1.345 . S
N81 C84 1.336 1_655 S
C82 N80 1.335 1_655 S
C82 N81 1.345 . S
C82 H87 0.930 . S
C83 N80 1.390 . S
C83 C84 1.346 . S
C83 H88 0.930 . S
C84 N81 1.336 1_455 S
C84 C83 1.346 . S
C84 H91 0.929 . S
C85 O75 1.282 . S
C85 O86 1.216 . S
O86 C85 1.216 . S
H87 C82 0.930 . S
H88 C83 0.930 . S
O89 Cu69 1.959 . S
O89 C76 1.251 . S
H90 C73 0.930 . S
H91 C84 0.929 . S
Cu92 N93 1.999 1_554 S
Cu92 O98 1.974 . S
Cu92 N103 1.985 1_545 S
Cu92 O112 1.959 1_544 S
N93 Cu92 1.999 1_556 S
N93 C95 1.263 . S
N93 C97 1.389 . S
N94 C95 1.358 . S
N94 C96 1.400 . S
C95 N93 1.263 . S
C95 N94 1.358 . S
C95 H101 0.930 . S
C96 N94 1.400 . S
C96 C97 1.351 . S
C96 H113 0.930 . S
C97 N93 1.389 . S
C97 C96 1.351 . S
C97 H102 0.930 . S
O98 Cu92 1.974 . S
O98 C108 1.282 . S
C99 O100 1.261 . S
C99 O112 1.251 . S
O100 C99 1.261 . S
H101 C95 0.930 . S
H102 C97 0.930 . S
N103 Cu92 1.985 1_565 S
N103 C105 1.335 . S
N103 C106 1.390 . S
N104 C105 1.345 . S
N104 C107 1.336 . S
C105 N103 1.335 . S
C105 N104 1.345 . S
C105 H110 0.930 . S
C106 N103 1.390 . S
C106 C107 1.346 . S
C106 H111 0.930 . S
C107 N104 1.336 . S
C107 C106 1.346 . S
C107 H114 0.929 . S
C108 O98 1.282 . S
C108 O109 1.216 . S
O109 C108 1.216 . S
H110 C105 0.930 . S
H111 C106 0.930 . S
O112 Cu92 1.959 1_566 S
O112 C99 1.251 . S
H113 C96 0.930 . S
H114 C107 0.929 . S
Cu115 N116 1.999 1_454 S
Cu115 O121 1.974 1_455 S
Cu115 N126 1.985 . S
Cu115 O135 1.959 1_554 S
N116 Cu115 1.999 1_656 S
N116 C118 1.263 . S
N116 C120 1.389 . S
N117 C118 1.358 . S
N117 C119 1.400 . S
C118 N116 1.263 . S
C118 N117 1.358 . S
C118 H124 0.949 . S
C119 N117 1.400 . S
C119 C120 1.351 . S
C119 H136 0.930 . S
C120 N116 1.389 . S
C120 C119 1.351 . S
C120 H125 0.930 1_655 S
O121 Cu115 1.974 1_655 S
O121 C131 1.282 . S
C122 O123 1.261 . S
C122 O135 1.251 . S
O123 C122 1.261 . S
H124 C118 0.949 . S
H125 C120 0.930 1_455 S
N126 Cu115 1.985 . S
N126 C128 1.335 . S
N126 C129 1.390 . S
N127 C128 1.345 . S
N127 C130 1.336 . S
C128 N126 1.335 . S
C128 N127 1.345 . S
C128 H133 0.930 . S
C129 N126 1.390 . S
C129 C130 1.346 . S
C129 H134 0.930 . S
C130 N127 1.336 . S
C130 C129 1.346 . S
C130 H137 0.929 . S
C131 O121 1.282 . S
C131 O132 1.216 . S
O132 C131 1.216 . S
H133 C128 0.930 . S
H134 C129 0.930 . S
O135 Cu115 1.959 1_556 S
O135 C122 1.251 . S
H136 C119 0.930 . S
H137 C130 0.929 . S
Cu138 N139 1.999 . S
Cu138 O144 1.974 . S
Cu138 N149 1.985 . S
Cu138 O158 1.959 . S
N139 Cu138 1.999 . S
N139 C141 1.263 . S
N139 C143 1.389 . S
N140 C141 1.358 . S
N140 C142 1.400 . S
C141 N139 1.263 . S
C141 N140 1.358 . S
C141 H147 0.930 . S
C142 N140 1.400 . S
C142 C143 1.351 . S
C142 H159 0.930 . S
C143 N139 1.389 . S
C143 C142 1.351 . S
C143 H148 0.930 . S
O144 Cu138 1.974 . S
O144 C154 1.282 . S
C145 O146 1.261 . S
C145 O158 1.251 . S
O146 C145 1.261 . S
H147 C141 0.930 . S
H148 C143 0.930 . S
N149 Cu138 1.985 . S
N149 C151 1.335 . S
N149 C152 1.390 . S
N150 C151 1.345 . S
N150 C153 1.336 . S
C151 N149 1.335 . S
C151 N150 1.345 . S
C151 H156 0.930 . S
C152 N149 1.390 . S
C152 C153 1.346 . S
C152 H157 0.930 . S
C153 N150 1.336 . S
C153 C152 1.346 . S
C153 H160 0.929 . S
C154 O144 1.282 . S
C154 O155 1.216 . S
O155 C154 1.216 . S
H156 C151 0.930 . S
H157 C152 0.930 . S
O158 Cu138 1.959 . S
O158 C145 1.251 . S
H159 C142 0.930 . S
H160 C153 0.929 . S
Cu161 N162 1.999 . S
Cu161 O167 1.974 . S
Cu161 N172 1.985 . S
Cu161 O181 1.959 . S
N162 Cu161 1.999 . S
N162 C164 1.263 . S
N162 C166 1.389 . S
N163 C164 1.358 . S
N163 C165 1.400 . S
C164 N162 1.263 . S
C164 N163 1.358 . S
C164 H170 0.930 . S
C165 N163 1.400 . S
C165 C166 1.351 . S
C165 H182 0.930 . S
C166 N162 1.389 . S
C166 C165 1.351 . S
C166 H171 0.930 . S
O167 Cu161 1.974 . S
O167 C177 1.282 . S
C168 O169 1.261 . S
C168 O181 1.251 . S
O169 C168 1.261 . S
H170 C164 0.930 . S
H171 C166 0.930 . S
N172 Cu161 1.985 . S
N172 C174 1.335 . S
N172 C175 1.390 . S
N173 C174 1.345 . S
N173 C176 1.336 . S
C174 N172 1.335 . S
C174 N173 1.345 . S
C174 H179 0.930 . S
C175 N172 1.390 . S
C175 C176 1.346 . S
C175 H180 0.930 . S
C176 N173 1.336 . S
C176 C175 1.346 . S
C176 H183 0.929 . S
C177 O167 1.282 . S
C177 O178 1.216 . S
O178 C177 1.216 . S
H179 C174 0.930 . S
H180 C175 0.930 . S
O181 Cu161 1.959 . S
O181 C168 1.251 . S
H182 C165 0.930 . S
H183 C176 0.929 . S
Cu184 N185 1.999 . S
Cu184 O190 1.974 . S
Cu184 N195 1.985 . S
Cu184 O204 1.959 . S
N185 Cu184 1.999 . S
N185 C187 1.263 . S
N185 C189 1.389 . S
N186 C187 1.358 . S
N186 C188 1.400 . S
C187 N185 1.263 . S
C187 N186 1.358 . S
C187 H193 0.930 . S
C188 N186 1.400 . S
C188 C189 1.351 . S
C188 H205 0.930 . S
C189 N185 1.389 . S
C189 C188 1.351 . S
C189 H194 0.930 . S
O190 Cu184 1.974 . S
O190 C200 1.282 . S
C191 O192 1.261 . S
C191 O204 1.251 . S
O192 C191 1.261 . S
H193 C187 0.930 . S
H194 C189 0.930 . S
N195 Cu184 1.985 . S
N195 C197 1.335 . S
N195 C198 1.390 . S
N196 C197 1.345 . S
N196 C199 1.336 . S
C197 N195 1.335 . S
C197 N196 1.345 . S
C197 H202 0.930 . S
C198 N195 1.390 . S
C198 C199 1.346 . S
C198 H203 0.930 . S
C199 N196 1.336 . S
C199 C198 1.346 . S
C199 H206 0.929 . S
C200 O190 1.282 . S
C200 O201 1.216 . S
O201 C200 1.216 . S
H202 C197 0.930 . S
H203 C198 0.930 . S
O204 Cu184 1.959 . S
O204 C191 1.251 . S
H205 C188 0.930 . S
H206 C199 0.929 . S
Cu207 N208 1.999 . S
Cu207 O213 1.974 . S
Cu207 N218 1.985 . S
Cu207 O227 1.959 . S
N208 Cu207 1.999 . S
N208 C210 1.263 . S
N208 C212 1.389 . S
N209 C210 1.358 . S
N209 C211 1.400 . S
C210 N208 1.263 . S
C210 N209 1.358 . S
C210 H216 0.930 . S
C211 N209 1.400 . S
C211 C212 1.351 . S
C211 H228 0.930 . S
C212 N208 1.389 . S
C212 C211 1.351 . S
C212 H217 0.930 . S
O213 Cu207 1.974 . S
O213 C223 1.282 . S
C214 O215 1.261 . S
C214 O227 1.251 . S
O215 C214 1.261 . S
H216 C210 0.930 . S
H217 C212 0.930 . S
N218 Cu207 1.985 . S
N218 C220 1.335 . S
N218 C221 1.390 . S
N219 C220 1.345 . S
N219 C222 1.336 . S
C220 N218 1.335 . S
C220 N219 1.345 . S
C220 H225 0.930 . S
C221 N218 1.390 . S
C221 C222 1.346 . S
C221 H226 0.930 . S
C222 N219 1.336 . S
C222 C221 1.346 . S
C222 H229 0.929 . S
C223 O213 1.282 . S
C223 O224 1.216 . S
O224 C223 1.216 . S
H225 C220 0.930 . S
H226 C221 0.930 . S
O227 Cu207 1.959 . S
O227 C214 1.251 . S
H228 C211 0.930 . S
H229 C222 0.929 . S
Cu230 N231 1.999 . S
Cu230 O236 1.974 . S
Cu230 N241 1.985 . S
Cu230 O250 1.959 . S
N231 Cu230 1.999 . S
N231 C233 1.263 . S
N231 C235 1.389 . S
N232 C233 1.358 . S
N232 C234 1.400 . S
C233 N231 1.263 . S
C233 N232 1.358 . S
C233 H239 0.930 . S
C234 N232 1.400 . S
C234 C235 1.351 . S
C234 H251 0.930 . S
C235 N231 1.389 . S
C235 C234 1.351 . S
C235 H240 0.930 . S
O236 Cu230 1.974 . S
O236 C246 1.282 . S
C237 O238 1.261 . S
C237 O250 1.251 . S
O238 C237 1.261 . S
H239 C233 0.930 . S
H240 C235 0.930 . S
N241 Cu230 1.985 . S
N241 C243 1.335 . S
N241 C244 1.390 . S
N242 C243 1.345 . S
N242 C245 1.336 . S
C243 N241 1.335 . S
C243 N242 1.345 . S
C243 H248 0.930 . S
C244 N241 1.390 . S
C244 C245 1.346 . S
C244 H249 0.930 . S
C245 N242 1.336 . S
C245 C244 1.346 . S
C245 H252 0.929 . S
C246 O236 1.282 . S
C246 O247 1.216 . S
O247 C246 1.216 . S
H248 C243 0.930 . S
H249 C244 0.930 . S
O250 Cu230 1.959 . S
O250 C237 1.251 . S
H251 C234 0.930 . S
H252 C245 0.929 . S
Cu253 N254 1.999 . S
Cu253 O259 1.974 . S
Cu253 N264 1.985 . S
Cu253 O273 1.959 . S
N254 Cu253 1.999 . S
N254 C256 1.263 . S
N254 C258 1.389 . S
N255 C256 1.358 . S
N255 C257 1.400 . S
C256 N254 1.263 . S
C256 N255 1.358 . S
C256 H262 0.930 . S
C257 N255 1.400 . S
C257 C258 1.351 . S
C257 H274 0.930 . S
C258 N254 1.389 . S
C258 C257 1.351 . S
C258 H263 0.930 . S
O259 Cu253 1.974 . S
O259 C269 1.282 . S
C260 O261 1.261 . S
C260 O273 1.251 . S
O261 C260 1.261 . S
H262 C256 0.930 . S
H263 C258 0.930 . S
N264 Cu253 1.985 . S
N264 C266 1.335 . S
N264 C267 1.390 . S
N265 C266 1.345 . S
N265 C268 1.336 . S
C266 N264 1.335 . S
C266 N265 1.345 . S
C266 H271 0.930 . S
C267 N264 1.390 . S
C267 C268 1.346 . S
C267 H272 0.930 . S
C268 N265 1.336 . S
C268 C267 1.346 . S
C268 H275 0.929 . S
C269 O259 1.282 . S
C269 O270 1.216 . S
O270 C269 1.216 . S
H271 C266 0.930 . S
H272 C267 0.930 . S
O273 Cu253 1.959 . S
O273 C260 1.251 . S
H274 C257 0.930 . S
H275 C268 0.929 . S
Ho276 C279 2.811 . S
Ho276 O296 2.322 . S
Ho276 O298 2.378 . S
Ho276 O299 2.524 . S
Ho276 O300 2.381 . S
Ho276 O301 2.669 . S
Ho276 O303 2.346 . S
Ho276 O307 2.305 . S
Ho277 C288 2.811 . S
Ho277 O297 2.346 . S
Ho277 O301 2.305 . S
Ho277 O302 2.322 . S
Ho277 O304 2.378 . S
Ho277 O305 2.524 . S
Ho277 O306 2.381 . S
Ho277 O307 2.669 . S
C278 O296 1.259 . S
C278 O297 1.268 . S
C279 Ho276 2.811 . S
C279 C280 1.488 . S
C279 O298 1.215 . S
C279 O299 1.289 . S
C280 C279 1.488 . S
C280 C281 1.348 . S
C280 C285 1.413 . S
C281 C280 1.348 . S
C281 C282 1.442 . S
C281 H308 0.930 . S
C282 C281 1.442 . S
C282 C283 1.381 . S
C282 H309 0.931 . S
C283 C282 1.381 . S
C283 C284 1.321 . S
C284 C283 1.321 . S
C284 C285 1.403 . S
C284 H310 0.934 . S
C285 C280 1.413 . S
C285 C284 1.403 . S
C285 H311 0.930 . S
C286 O300 1.275 . S
C286 O301 1.256 . S
C287 O302 1.259 . S
C287 O303 1.268 . S
C288 Ho277 2.811 . S
C288 C289 1.488 . S
C288 O304 1.215 . S
C288 O305 1.289 . S
C289 C288 1.488 . S
C289 C290 1.348 . S
C289 C294 1.413 . S
C290 C289 1.348 . S
C290 C291 1.442 . S
C290 H312 0.930 . S
C291 C290 1.442 . S
C291 C292 1.381 . S
C291 H313 0.931 . S
C292 C291 1.381 . S
C292 C293 1.321 . S
C293 C292 1.321 . S
C293 C294 1.403 . S
C293 H314 0.934 . S
C294 C289 1.413 . S
C294 C293 1.403 . S
C294 H315 0.930 . S
C295 O306 1.275 . S
C295 O307 1.256 . S
O296 Ho276 2.322 . S
O296 C278 1.259 . S
O297 Ho277 2.346 . S
O297 C278 1.268 . S
O298 Ho276 2.378 . S
O298 C279 1.215 . S
O299 Ho276 2.524 . S
O299 C279 1.289 . S
O300 Ho276 2.381 . S
O300 C286 1.275 . S
O301 Ho276 2.669 . S
O301 Ho277 2.305 . S
O301 C286 1.256 . S
O302 Ho277 2.322 . S
O302 C287 1.259 . S
O303 Ho276 2.346 . S
O303 C287 1.268 . S
O304 Ho277 2.378 . S
O304 C288 1.215 . S
O305 Ho277 2.524 . S
O305 C288 1.289 . S
O306 Ho277 2.381 . S
O306 C295 1.275 . S
O307 Ho276 2.305 . S
O307 Ho277 2.669 . S
O307 C295 1.256 . S
H308 C281 0.930 . S
H309 C282 0.931 . S
H310 C284 0.934 . S
H311 C285 0.930 . S
H312 C290 0.930 . S
H313 C291 0.931 . S
H314 C293 0.934 . S
H315 C294 0.930 . S
Ho316 C319 2.811 . S
Ho316 O336 2.322 . S
Ho316 O338 2.378 . S
Ho316 O339 2.524 . S
Ho316 O340 2.381 . S
Ho316 O341 2.669 . S
Ho316 O343 2.346 . S
Ho316 O347 2.305 . S
Ho317 C328 2.811 . S
Ho317 O337 2.346 . S
Ho317 O341 2.305 . S
Ho317 O342 2.322 . S
Ho317 O344 2.378 . S
Ho317 O345 2.524 . S
Ho317 O346 2.381 . S
Ho317 O347 2.669 . S
C318 O336 1.259 . S
C318 O337 1.268 . S
C319 Ho316 2.811 . S
C319 C320 1.488 . S
C319 O338 1.215 . S
C319 O339 1.289 . S
C320 C319 1.488 . S
C320 C321 1.348 . S
C320 C325 1.413 . S
C321 C320 1.348 . S
C321 C322 1.442 . S
C321 H348 0.930 . S
C322 C321 1.442 . S
C322 C323 1.381 . S
C322 H349 0.931 . S
C323 C322 1.381 . S
C323 C324 1.321 . S
C324 C323 1.321 . S
C324 C325 1.403 . S
C324 H350 0.934 . S
C325 C320 1.413 . S
C325 C324 1.403 . S
C325 H351 0.930 . S
C326 O340 1.275 . S
C326 O341 1.256 . S
C327 O342 1.259 . S
C327 O343 1.268 . S
C328 Ho317 2.811 . S
C328 C329 1.488 . S
C328 O344 1.215 . S
C328 O345 1.289 . S
C329 C328 1.488 . S
C329 C330 1.348 . S
C329 C334 1.413 . S
C330 C329 1.348 . S
C330 C331 1.442 . S
C330 H352 0.930 . S
C331 C330 1.442 . S
C331 C332 1.381 . S
C331 H353 0.931 . S
C332 C331 1.381 . S
C332 C333 1.321 . S
C333 C332 1.321 . S
C333 C334 1.403 . S
C333 H354 0.934 . S
C334 C329 1.413 . S
C334 C333 1.403 . S
C334 H355 0.930 . S
C335 O346 1.275 . S
C335 O347 1.256 . S
O336 Ho316 2.322 . S
O336 C318 1.259 . S
O337 Ho317 2.346 . S
O337 C318 1.268 . S
O338 Ho316 2.378 . S
O338 C319 1.215 . S
O339 Ho316 2.524 . S
O339 C319 1.289 . S
O340 Ho316 2.381 . S
O340 C326 1.275 . S
O341 Ho316 2.669 . S
O341 Ho317 2.305 . S
O341 C326 1.256 . S
O342 Ho317 2.322 . S
O342 C327 1.259 . S
O343 Ho316 2.346 . S
O343 C327 1.268 . S
O344 Ho317 2.378 . S
O344 C328 1.215 . S
O345 Ho317 2.524 . S
O345 C328 1.289 . S
O346 Ho317 2.381 . S
O346 C335 1.275 . S
O347 Ho316 2.305 . S
O347 Ho317 2.669 . S
O347 C335 1.256 . S
H348 C321 0.930 . S
H349 C322 0.931 . S
H350 C324 0.934 . S
H351 C325 0.930 . S
H352 C330 0.930 . S
H353 C331 0.931 . S
H354 C333 0.934 . S
H355 C334 0.930 . S
Ho356 C359 2.811 . S
Ho356 O376 2.322 . S
Ho356 O378 2.378 . S
Ho356 O379 2.524 . S
Ho356 O380 2.381 . S
Ho356 O381 2.669 . S
Ho356 O383 2.346 . S
Ho356 O387 2.305 . S
Ho357 C368 2.811 . S
Ho357 O377 2.346 . S
Ho357 O381 2.305 . S
Ho357 O382 2.322 . S
Ho357 O384 2.378 . S
Ho357 O385 2.524 . S
Ho357 O386 2.381 . S
Ho357 O387 2.669 . S
C358 O376 1.259 . S
C358 O377 1.268 . S
C359 Ho356 2.811 . S
C359 C360 1.488 . S
C359 O378 1.215 . S
C359 O379 1.289 . S
C360 C359 1.488 . S
C360 C361 1.348 . S
C360 C365 1.413 . S
C361 C360 1.348 . S
C361 C362 1.442 . S
C361 H388 0.930 . S
C362 C361 1.442 . S
C362 C363 1.381 . S
C362 H389 0.931 . S
C363 C362 1.381 . S
C363 C364 1.321 . S
C364 C363 1.321 . S
C364 C365 1.403 . S
C364 H390 0.934 . S
C365 C360 1.413 . S
C365 C364 1.403 . S
C365 H391 0.930 . S
C366 O380 1.275 . S
C366 O381 1.256 . S
C367 O382 1.259 . S
C367 O383 1.268 . S
C368 Ho357 2.811 . S
C368 C369 1.488 . S
C368 O384 1.215 . S
C368 O385 1.289 . S
C369 C368 1.488 . S
C369 C370 1.348 . S
C369 C374 1.413 . S
C370 C369 1.348 . S
C370 C371 1.442 . S
C370 H392 0.930 . S
C371 C370 1.442 . S
C371 C372 1.381 . S
C371 H393 0.931 . S
C372 C371 1.381 . S
C372 C373 1.321 . S
C373 C372 1.321 . S
C373 C374 1.403 . S
C373 H394 0.934 . S
C374 C369 1.413 . S
C374 C373 1.403 . S
C374 H395 0.930 . S
C375 O386 1.275 . S
C375 O387 1.256 . S
O376 Ho356 2.322 . S
O376 C358 1.259 . S
O377 Ho357 2.346 . S
O377 C358 1.268 . S
O378 Ho356 2.378 . S
O378 C359 1.215 . S
O379 Ho356 2.524 . S
O379 C359 1.289 . S
O380 Ho356 2.381 . S
O380 C366 1.275 . S
O381 Ho356 2.669 . S
O381 Ho357 2.305 . S
O381 C366 1.256 . S
O382 Ho357 2.322 . S
O382 C367 1.259 . S
O383 Ho356 2.346 . S
O383 C367 1.268 . S
O384 Ho357 2.378 . S
O384 C368 1.215 . S
O385 Ho357 2.524 . S
O385 C368 1.289 . S
O386 Ho357 2.381 . S
O386 C375 1.275 . S
O387 Ho356 2.305 . S
O387 Ho357 2.669 . S
O387 C375 1.256 . S
H388 C361 0.930 . S
H389 C362 0.931 . S
H390 C364 0.934 . S
H391 C365 0.930 . S
H392 C370 0.930 . S
H393 C371 0.931 . S
H394 C373 0.934 . S
H395 C374 0.930 . S
Ho396 C399 2.811 . S
Ho396 O416 2.322 . S
Ho396 O418 2.378 . S
Ho396 O419 2.524 . S
Ho396 O420 2.381 . S
Ho396 O421 2.669 . S
Ho396 O423 2.346 . S
Ho396 O427 2.305 . S
Ho397 C408 2.811 . S
Ho397 O417 2.346 . S
Ho397 O421 2.305 . S
Ho397 O422 2.322 . S
Ho397 O424 2.378 . S
Ho397 O425 2.524 . S
Ho397 O426 2.381 . S
Ho397 O427 2.669 . S
C398 O416 1.259 . S
C398 O417 1.268 . S
C399 Ho396 2.811 . S
C399 C400 1.488 . S
C399 O418 1.215 . S
C399 O419 1.289 . S
C400 C399 1.488 . S
C400 C401 1.348 . S
C400 C405 1.413 . S
C401 C400 1.348 . S
C401 C402 1.442 . S
C401 H428 0.930 . S
C402 C401 1.442 . S
C402 C403 1.381 . S
C402 H429 0.931 . S
C403 C402 1.381 . S
C403 C404 1.321 . S
C404 C403 1.321 . S
C404 C405 1.403 . S
C404 H430 0.934 . S
C405 C400 1.413 . S
C405 C404 1.403 . S
C405 H431 0.930 . S
C406 O420 1.275 . S
C406 O421 1.256 . S
C407 O422 1.259 . S
C407 O423 1.268 . S
C408 Ho397 2.811 . S
C408 C409 1.488 . S
C408 O424 1.215 . S
C408 O425 1.289 . S
C409 C408 1.488 . S
C409 C410 1.348 . S
C409 C414 1.413 . S
C410 C409 1.348 . S
C410 C411 1.442 . S
C410 H432 0.930 . S
C411 C410 1.442 . S
C411 C412 1.381 . S
C411 H433 0.931 . S
C412 C411 1.381 . S
C412 C413 1.321 . S
C413 C412 1.321 . S
C413 C414 1.403 . S
C413 H434 0.934 . S
C414 C409 1.413 . S
C414 C413 1.403 . S
C414 H435 0.930 . S
C415 O426 1.275 . S
C415 O427 1.256 . S
O416 Ho396 2.322 . S
O416 C398 1.259 . S
O417 Ho397 2.346 . S
O417 C398 1.268 . S
O418 Ho396 2.378 . S
O418 C399 1.215 . S
O419 Ho396 2.524 . S
O419 C399 1.289 . S
O420 Ho396 2.381 . S
O420 C406 1.275 . S
O421 Ho396 2.669 . S
O421 Ho397 2.305 . S
O421 C406 1.256 . S
O422 Ho397 2.322 . S
O422 C407 1.259 . S
O423 Ho396 2.346 . S
O423 C407 1.268 . S
O424 Ho397 2.378 . S
O424 C408 1.215 . S
O425 Ho397 2.524 . S
O425 C408 1.289 . S
O426 Ho397 2.381 . S
O426 C415 1.275 . S
O427 Ho396 2.305 . S
O427 Ho397 2.669 . S
O427 C415 1.256 . S
H428 C401 0.930 . S
H429 C402 0.931 . S
H430 C404 0.934 . S
H431 C405 0.930 . S
H432 C410 0.930 . S
H433 C411 0.931 . S
H434 C413 0.934 . S
H435 C414 0.930 . S
Ho436 C439 2.811 . S
Ho436 O456 2.322 . S
Ho436 O458 2.378 . S
Ho436 O459 2.524 . S
Ho436 O460 2.381 . S
Ho436 O461 2.669 . S
Ho436 O463 2.346 . S
Ho436 O467 2.305 . S
Ho437 C448 2.811 . S
Ho437 O457 2.346 . S
Ho437 O461 2.305 . S
Ho437 O462 2.322 . S
Ho437 O464 2.378 . S
Ho437 O465 2.524 . S
Ho437 O466 2.381 . S
Ho437 O467 2.669 . S
C438 O456 1.259 . S
C438 O457 1.268 . S
C439 Ho436 2.811 . S
C439 C440 1.488 . S
C439 O458 1.215 . S
C439 O459 1.289 . S
C440 C439 1.488 . S
C440 C441 1.348 . S
C440 C445 1.413 . S
C441 C440 1.348 . S
C441 C442 1.442 . S
C441 H468 0.930 . S
C442 C441 1.442 . S
C442 C443 1.381 . S
C442 H469 0.931 . S
C443 C442 1.381 . S
C443 C444 1.321 . S
C444 C443 1.321 . S
C444 C445 1.403 . S
C444 H470 0.934 . S
C445 C440 1.413 . S
C445 C444 1.403 . S
C445 H471 0.930 . S
C446 O460 1.275 . S
C446 O461 1.256 . S
C447 O462 1.259 . S
C447 O463 1.268 . S
C448 Ho437 2.811 . S
C448 C449 1.488 . S
C448 O464 1.215 . S
C448 O465 1.289 . S
C449 C448 1.488 . S
C449 C450 1.348 . S
C449 C454 1.413 . S
C450 C449 1.348 . S
C450 C451 1.442 . S
C450 H472 0.930 . S
C451 C450 1.442 . S
C451 C452 1.381 . S
C451 H473 0.931 . S
C452 C451 1.381 . S
C452 C453 1.321 . S
C453 C452 1.321 . S
C453 C454 1.403 . S
C453 H474 0.934 . S
C454 C449 1.413 . S
C454 C453 1.403 . S
C454 H475 0.930 . S
C455 O466 1.275 . S
C455 O467 1.256 . S
O456 Ho436 2.322 . S
O456 C438 1.259 . S
O457 Ho437 2.346 . S
O457 C438 1.268 . S
O458 Ho436 2.378 . S
O458 C439 1.215 . S
O459 Ho436 2.524 . S
O459 C439 1.289 . S
O460 Ho436 2.381 . S
O460 C446 1.275 . S
O461 Ho436 2.669 . S
O461 Ho437 2.305 . S
O461 C446 1.256 . S
O462 Ho437 2.322 . S
O462 C447 1.259 . S
O463 Ho436 2.346 . S
O463 C447 1.268 . S
O464 Ho437 2.378 . S
O464 C448 1.215 . S
O465 Ho437 2.524 . S
O465 C448 1.289 . S
O466 Ho437 2.381 . S
O466 C455 1.275 . S
O467 Ho436 2.305 . S
O467 Ho437 2.669 . S
O467 C455 1.256 . S
H468 C441 0.930 . S
H469 C442 0.931 . S
H470 C444 0.934 . S
H471 C445 0.930 . S
H472 C450 0.930 . S
H473 C451 0.931 . S
H474 C453 0.934 . S
H475 C454 0.930 . S
Ho476 C479 2.811 . S
Ho476 O496 2.322 . S
Ho476 O498 2.378 . S
Ho476 O499 2.524 . S
Ho476 O500 2.381 . S
Ho476 O501 2.669 . S
Ho476 O503 2.346 . S
Ho476 O507 2.305 . S
Ho477 C488 2.811 . S
Ho477 O497 2.346 . S
Ho477 O501 2.305 . S
Ho477 O502 2.322 . S
Ho477 O504 2.378 . S
Ho477 O505 2.524 . S
Ho477 O506 2.381 . S
Ho477 O507 2.669 . S
C478 O496 1.259 . S
C478 O497 1.268 . S
C479 Ho476 2.811 . S
C479 C480 1.488 . S
C479 O498 1.215 . S
C479 O499 1.289 . S
C480 C479 1.488 . S
C480 C481 1.348 . S
C480 C485 1.413 . S
C481 C480 1.348 . S
C481 C482 1.442 . S
C481 H508 0.930 . S
C482 C481 1.442 . S
C482 C483 1.381 . S
C482 H509 0.931 . S
C483 C482 1.381 . S
C483 C484 1.321 . S
C484 C483 1.321 . S
C484 C485 1.403 . S
C484 H510 0.934 . S
C485 C480 1.413 . S
C485 C484 1.403 . S
C485 H511 0.930 . S
C486 O500 1.275 . S
C486 O501 1.256 . S
C487 O502 1.259 . S
C487 O503 1.268 . S
C488 Ho477 2.811 . S
C488 C489 1.488 . S
C488 O504 1.215 . S
C488 O505 1.289 . S
C489 C488 1.488 . S
C489 C490 1.348 . S
C489 C494 1.413 . S
C490 C489 1.348 . S
C490 C491 1.442 . S
C490 H512 0.930 . S
C491 C490 1.442 . S
C491 C492 1.381 . S
C491 H513 0.931 . S
C492 C491 1.381 . S
C492 C493 1.321 . S
C493 C492 1.321 . S
C493 C494 1.403 . S
C493 H514 0.934 . S
C494 C489 1.413 . S
C494 C493 1.403 . S
C494 H515 0.930 . S
C495 O506 1.275 . S
C495 O507 1.256 . S
O496 Ho476 2.322 . S
O496 C478 1.259 . S
O497 Ho477 2.346 . S
O497 C478 1.268 . S
O498 Ho476 2.378 . S
O498 C479 1.215 . S
O499 Ho476 2.524 . S
O499 C479 1.289 . S
O500 Ho476 2.381 . S
O500 C486 1.275 . S
O501 Ho476 2.669 . S
O501 Ho477 2.305 . S
O501 C486 1.256 . S
O502 Ho477 2.322 . S
O502 C487 1.259 . S
O503 Ho476 2.346 . S
O503 C487 1.268 . S
O504 Ho477 2.378 . S
O504 C488 1.215 . S
O505 Ho477 2.524 . S
O505 C488 1.289 . S
O506 Ho477 2.381 . S
O506 C495 1.275 . S
O507 Ho476 2.305 . S
O507 Ho477 2.669 . S
O507 C495 1.256 . S
H508 C481 0.930 . S
H509 C482 0.931 . S
H510 C484 0.934 . S
H511 C485 0.930 . S
H512 C490 0.930 . S
H513 C491 0.931 . S
H514 C493 0.934 . S
H515 C494 0.930 . S
Ho516 C519 2.811 . S
Ho516 O536 2.322 . S
Ho516 O538 2.378 . S
Ho516 O539 2.524 . S
Ho516 O540 2.381 . S
Ho516 O541 2.669 . S
Ho516 O543 2.346 . S
Ho516 O547 2.305 . S
Ho517 C528 2.811 . S
Ho517 O537 2.346 . S
Ho517 O541 2.305 . S
Ho517 O542 2.322 . S
Ho517 O544 2.378 . S
Ho517 O545 2.524 . S
Ho517 O546 2.381 . S
Ho517 O547 2.669 . S
C518 O536 1.259 . S
C518 O537 1.268 . S
C519 Ho516 2.811 . S
C519 C520 1.488 . S
C519 O538 1.215 . S
C519 O539 1.289 . S
C520 C519 1.488 . S
C520 C521 1.348 . S
C520 C525 1.413 . S
C521 C520 1.348 . S
C521 C522 1.442 . S
C521 H548 0.930 . S
C522 C521 1.442 . S
C522 C523 1.381 . S
C522 H549 0.931 . S
C523 C522 1.381 . S
C523 C524 1.321 . S
C524 C523 1.321 . S
C524 C525 1.403 . S
C524 H550 0.934 . S
C525 C520 1.413 . S
C525 C524 1.403 . S
C525 H551 0.930 . S
C526 O540 1.275 . S
C526 O541 1.256 . S
C527 O542 1.259 . S
C527 O543 1.268 . S
C528 Ho517 2.811 . S
C528 C529 1.488 . S
C528 O544 1.215 . S
C528 O545 1.289 . S
C529 C528 1.488 . S
C529 C530 1.348 . S
C529 C534 1.413 . S
C530 C529 1.348 . S
C530 C531 1.442 . S
C530 H552 0.930 . S
C531 C530 1.442 . S
C531 C532 1.381 . S
C531 H553 0.931 . S
C532 C531 1.381 . S
C532 C533 1.321 . S
C533 C532 1.321 . S
C533 C534 1.403 . S
C533 H554 0.934 . S
C534 C529 1.413 . S
C534 C533 1.403 . S
C534 H555 0.930 . S
C535 O546 1.275 . S
C535 O547 1.256 . S
O536 Ho516 2.322 . S
O536 C518 1.259 . S
O537 Ho517 2.346 . S
O537 C518 1.268 . S
O538 Ho516 2.378 . S
O538 C519 1.215 . S
O539 Ho516 2.524 . S
O539 C519 1.289 . S
O540 Ho516 2.381 . S
O540 C526 1.275 . S
O541 Ho516 2.669 . S
O541 Ho517 2.305 . S
O541 C526 1.256 . S
O542 Ho517 2.322 . S
O542 C527 1.259 . S
O543 Ho516 2.346 . S
O543 C527 1.268 . S
O544 Ho517 2.378 . S
O544 C528 1.215 . S
O545 Ho517 2.524 . S
O545 C528 1.289 . S
O546 Ho517 2.381 . S
O546 C535 1.275 . S
O547 Ho516 2.305 . S
O547 Ho517 2.669 . S
O547 C535 1.256 . S
H548 C521 0.930 . S
H549 C522 0.931 . S
H550 C524 0.934 . S
H551 C525 0.930 . S
H552 C530 0.930 . S
H553 C531 0.931 . S
H554 C533 0.934 . S
H555 C534 0.930 . S
Ho556 C559 2.811 . S
Ho556 O576 2.322 . S
Ho556 O578 2.378 . S
Ho556 O579 2.524 . S
Ho556 O580 2.381 . S
Ho556 O581 2.669 . S
Ho556 O583 2.346 . S
Ho556 O587 2.305 . S
Ho557 C568 2.811 . S
Ho557 O577 2.346 . S
Ho557 O581 2.305 . S
Ho557 O582 2.322 . S
Ho557 O584 2.378 . S
Ho557 O585 2.524 . S
Ho557 O586 2.381 . S
Ho557 O587 2.669 . S
C558 O576 1.259 . S
C558 O577 1.268 . S
C559 Ho556 2.811 . S
C559 C560 1.488 . S
C559 O578 1.215 . S
C559 O579 1.289 . S
C560 C559 1.488 . S
C560 C561 1.348 . S
C560 C565 1.413 . S
C561 C560 1.348 . S
C561 C562 1.442 . S
C561 H588 0.930 . S
C562 C561 1.442 . S
C562 C563 1.381 . S
C562 H589 0.931 . S
C563 C562 1.381 . S
C563 C564 1.321 . S
C564 C563 1.321 . S
C564 C565 1.403 . S
C564 H590 0.934 . S
C565 C560 1.413 . S
C565 C564 1.403 . S
C565 H591 0.930 . S
C566 O580 1.275 . S
C566 O581 1.256 . S
C567 O582 1.259 . S
C567 O583 1.268 . S
C568 Ho557 2.811 . S
C568 C569 1.488 . S
C568 O584 1.215 . S
C568 O585 1.289 . S
C569 C568 1.488 . S
C569 C570 1.348 . S
C569 C574 1.413 . S
C570 C569 1.348 . S
C570 C571 1.442 . S
C570 H592 0.930 . S
C571 C570 1.442 . S
C571 C572 1.381 . S
C571 H593 0.931 . S
C572 C571 1.381 . S
C572 C573 1.321 . S
C573 C572 1.321 . S
C573 C574 1.403 . S
C573 H594 0.934 . S
C574 C569 1.413 . S
C574 C573 1.403 . S
C574 H595 0.930 . S
C575 O586 1.275 . S
C575 O587 1.256 . S
O576 Ho556 2.322 . S
O576 C558 1.259 . S
O577 Ho557 2.346 . S
O577 C558 1.268 . S
O578 Ho556 2.378 . S
O578 C559 1.215 . S
O579 Ho556 2.524 . S
O579 C559 1.289 . S
O580 Ho556 2.381 . S
O580 C566 1.275 . S
O581 Ho556 2.669 . S
O581 Ho557 2.305 . S
O581 C566 1.256 . S
O582 Ho557 2.322 . S
O582 C567 1.259 . S
O583 Ho556 2.346 . S
O583 C567 1.268 . S
O584 Ho557 2.378 . S
O584 C568 1.215 . S
O585 Ho557 2.524 . S
O585 C568 1.289 . S
O586 Ho557 2.381 . S
O586 C575 1.275 . S
O587 Ho556 2.305 . S
O587 Ho557 2.669 . S
O587 C575 1.256 . S
H588 C561 0.930 . S
H589 C562 0.931 . S
H590 C564 0.934 . S
H591 C565 0.930 . S
H592 C570 0.930 . S
H593 C571 0.931 . S
H594 C573 0.934 . S
H595 C574 0.930 . S
C596 C597 1.391 . S
C596 C598 1.394 . S
C596 H612 0.931 . S
C597 C596 1.391 . S
C597 C601 1.376 . S
C598 C596 1.394 . S
C598 C599 1.369 . S
C598 C602 1.531 . S
C599 C598 1.369 . S
C599 C600 1.410 . S
C599 C607 1.503 . S
C600 C599 1.410 . S
C600 C601 1.392 . S
C600 C603 1.511 . S
C601 C597 1.376 . S
C601 C600 1.392 . S
C601 H613 0.929 . S
C602 C598 1.531 . S
C602 H614 0.960 . S
C602 H615 0.962 . S
C602 H616 0.960 . S
C603 C600 1.511 . S
C603 H617 0.961 . S
C603 H618 0.961 . S
C603 H619 0.961 . S
C604 C605 1.370 . S
C604 C606 1.363 . S
C604 H620 0.931 . S
C605 C604 1.370 . S
C605 C609 1.408 . S
C606 C604 1.363 . S
C606 C607 1.370 . S
C606 C610 1.524 . S
C607 C599 1.503 . S
C607 C606 1.370 . S
C607 C608 1.403 . S
C608 C607 1.403 . S
C608 C609 1.404 . S
C608 C611 1.539 . S
C609 C605 1.408 . S
C609 C608 1.404 . S
C609 H621 0.930 . S
C610 C606 1.524 . S
C610 H622 0.956 . S
C610 H623 0.961 . S
C610 H624 0.961 . S
C611 C608 1.539 . S
C611 H625 0.958 . S
C611 H626 0.961 . S
C611 H627 0.960 . S
H612 C596 0.931 . S
H613 C601 0.929 . S
H614 C602 0.960 . S
H615 C602 0.962 . S
H616 C602 0.960 . S
H617 C603 0.961 . S
H618 C603 0.961 . S
H619 C603 0.961 . S
H620 C604 0.931 . S
H621 C609 0.930 . S
H622 C610 0.956 . S
H623 C610 0.961 . S
H624 C610 0.961 . S
H625 C611 0.958 . S
H626 C611 0.961 . S
H627 C611 0.960 . S
C628 C629 1.391 . S
C628 C630 1.394 . S
C628 H644 0.931 . S
C629 C628 1.391 . S
C629 C633 1.376 . S
C630 C628 1.394 . S
C630 C631 1.369 . S
C630 C634 1.531 . S
C631 C630 1.369 . S
C631 C632 1.410 . S
C631 C639 1.503 . S
C632 C631 1.410 . S
C632 C633 1.392 . S
C632 C635 1.511 . S
C633 C629 1.376 . S
C633 C632 1.392 . S
C633 H645 0.929 . S
C634 C630 1.531 . S
C634 H646 0.960 . S
C634 H647 0.962 . S
C634 H648 0.960 . S
C635 C632 1.511 . S
C635 H649 0.961 . S
C635 H650 0.961 . S
C635 H651 0.961 . S
C636 C637 1.370 . S
C636 C638 1.363 . S
C636 H652 0.931 . S
C637 C636 1.370 . S
C637 C641 1.408 . S
C638 C636 1.363 . S
C638 C639 1.370 . S
C638 C642 1.524 . S
C639 C631 1.503 . S
C639 C638 1.370 . S
C639 C640 1.403 . S
C640 C639 1.403 . S
C640 C641 1.404 . S
C640 C643 1.539 . S
C641 C637 1.408 . S
C641 C640 1.404 . S
C641 H653 0.930 . S
C642 C638 1.524 . S
C642 H654 0.956 . S
C642 H655 0.961 . S
C642 H656 0.961 . S
C643 C640 1.539 . S
C643 H657 0.958 . S
C643 H658 0.961 . S
C643 H659 0.960 . S
H644 C628 0.931 . S
H645 C633 0.929 . S
H646 C634 0.960 . S
H647 C634 0.962 . S
H648 C634 0.960 . S
H649 C635 0.961 . S
H650 C635 0.961 . S
H651 C635 0.961 . S
H652 C636 0.931 . S
H653 C641 0.930 . S
H654 C642 0.956 . S
H655 C642 0.961 . S
H656 C642 0.961 . S
H657 C643 0.958 . S
H658 C643 0.961 . S
H659 C643 0.960 . S
C660 C661 1.391 . S
C660 C662 1.394 . S
C660 H676 0.931 . S
C661 C660 1.391 . S
C661 C665 1.376 . S
C662 C660 1.394 . S
C662 C663 1.369 . S
C662 C666 1.531 . S
C663 C662 1.369 . S
C663 C664 1.410 . S
C663 C671 1.503 . S
C664 C663 1.410 . S
C664 C665 1.392 . S
C664 C667 1.511 . S
C665 C661 1.376 . S
C665 C664 1.392 . S
C665 H677 0.929 . S
C666 C662 1.531 . S
C666 H678 0.960 . S
C666 H679 0.965 . S
C666 H680 0.960 1_655 S
C667 C664 1.511 . S
C667 H681 0.961 . S
C667 H682 0.961 . S
C667 H683 0.961 . S
C668 C669 1.370 . S
C668 C670 1.363 . S
C668 H684 0.931 . S
C669 C668 1.370 . S
C669 C673 1.408 . S
C670 C668 1.363 . S
C670 C671 1.370 . S
C670 C674 1.524 . S
C671 C663 1.503 . S
C671 C670 1.370 . S
C671 C672 1.403 . S
C672 C671 1.403 . S
C672 C673 1.404 . S
C672 C675 1.539 . S
C673 C669 1.408 . S
C673 C672 1.404 . S
C673 H685 0.930 . S
C674 C670 1.524 . S
C674 H686 0.956 . S
C674 H687 0.961 . S
C674 H688 0.961 . S
C675 C672 1.539 . S
C675 H689 0.958 . S
C675 H690 0.961 . S
C675 H691 0.960 . S
H676 C660 0.931 . S
H677 C665 0.929 . S
H678 C666 0.960 . S
H679 C666 0.965 . S
H680 C666 0.960 1_455 S
H681 C667 0.961 . S
H682 C667 0.961 . S
H683 C667 0.961 . S
H684 C668 0.931 . S
H685 C673 0.930 . S
H686 C674 0.956 . S
H687 C674 0.961 . S
H688 C674 0.961 . S
H689 C675 0.958 . S
H690 C675 0.961 . S
H691 C675 0.960 . S
C692 C693 1.391 . S
C692 C694 1.394 . S
C692 H708 0.931 . S
C693 C692 1.391 . S
C693 C697 1.376 . S
C694 C692 1.394 . S
C694 C695 1.369 . S
C694 C698 1.531 . S
C695 C694 1.369 . S
C695 C696 1.410 . S
C695 C703 1.503 . S
C696 C695 1.410 . S
C696 C697 1.392 . S
C696 C699 1.511 . S
C697 C693 1.376 . S
C697 C696 1.392 . S
C697 H709 0.929 . S
C698 C694 1.531 . S
C698 H710 0.960 . S
C698 H711 0.962 . S
C698 H712 0.960 . S
C699 C696 1.511 . S
C699 H713 0.961 . S
C699 H714 0.961 . S
C699 H715 0.961 . S
C700 C701 1.370 . S
C700 C702 1.363 . S
C700 H716 0.931 . S
C701 C700 1.370 . S
C701 C705 1.408 . S
C702 C700 1.363 . S
C702 C703 1.370 . S
C702 C706 1.524 . S
C703 C695 1.503 . S
C703 C702 1.370 . S
C703 C704 1.403 . S
C704 C703 1.403 . S
C704 C705 1.404 . S
C704 C707 1.539 . S
C705 C701 1.408 . S
C705 C704 1.404 . S
C705 H717 0.930 . S
C706 C702 1.524 . S
C706 H718 0.956 . S
C706 H719 0.961 . S
C706 H720 0.961 . S
C707 C704 1.539 . S
C707 H721 0.958 . S
C707 H722 0.961 . S
C707 H723 0.960 . S
H708 C692 0.931 . S
H709 C697 0.929 . S
H710 C698 0.960 . S
H711 C698 0.962 . S
H712 C698 0.960 . S
H713 C699 0.961 . S
H714 C699 0.961 . S
H715 C699 0.961 . S
H716 C700 0.931 . S
H717 C705 0.930 . S
H718 C706 0.956 . S
H719 C706 0.961 . S
H720 C706 0.961 . S
H721 C707 0.958 . S
H722 C707 0.961 . S
H723 C707 0.960 . S
C724 C725 1.391 . S
C724 C726 1.394 . S
C724 H740 0.931 . S
C725 C724 1.391 . S
C725 C729 1.376 . S
C726 C724 1.394 . S
C726 C727 1.369 . S
C726 C730 1.531 . S
C727 C726 1.369 . S
C727 C728 1.410 . S
C727 C735 1.503 . S
C728 C727 1.410 . S
C728 C729 1.392 . S
C728 C731 1.511 . S
C729 C725 1.376 . S
C729 C728 1.392 . S
C729 H741 0.929 . S
C730 C726 1.531 . S
C730 H742 0.960 . S
C730 H743 0.962 . S
C730 H744 0.960 . S
C731 C728 1.511 . S
C731 H745 0.961 . S
C731 H746 0.961 . S
C731 H747 0.961 . S
C732 C733 1.370 . S
C732 C734 1.363 . S
C732 H748 0.931 . S
C733 C732 1.370 . S
C733 C737 1.408 . S
C734 C732 1.363 . S
C734 C735 1.370 . S
C734 C738 1.524 . S
C735 C727 1.503 . S
C735 C734 1.370 . S
C735 C736 1.403 . S
C736 C735 1.403 . S
C736 C737 1.404 . S
C736 C739 1.539 . S
C737 C733 1.408 . S
C737 C736 1.404 . S
C737 H749 0.930 . S
C738 C734 1.524 . S
C738 H750 0.956 . S
C738 H751 0.961 . S
C738 H752 0.961 . S
C739 C736 1.539 . S
C739 H753 0.958 . S
C739 H754 0.961 . S
C739 H755 0.960 . S
H740 C724 0.931 . S
H741 C729 0.929 . S
H742 C730 0.960 . S
H743 C730 0.962 . S
H744 C730 0.960 . S
H745 C731 0.961 . S
H746 C731 0.961 . S
H747 C731 0.961 . S
H748 C732 0.931 . S
H749 C737 0.930 . S
H750 C738 0.956 . S
H751 C738 0.961 . S
H752 C738 0.961 . S
H753 C739 0.958 . S
H754 C739 0.961 . S
H755 C739 0.960 . S
C756 C757 1.391 . S
C756 C758 1.394 . S
C756 H772 0.931 . S
C757 C756 1.391 . S
C757 C761 1.376 . S
C758 C756 1.394 . S
C758 C759 1.369 . S
C758 C762 1.531 . S
C759 C758 1.369 . S
C759 C760 1.410 . S
C759 C767 1.503 . S
C760 C759 1.410 . S
C760 C761 1.392 . S
C760 C763 1.511 . S
C761 C757 1.376 . S
C761 C760 1.392 . S
C761 H773 0.929 . S
C762 C758 1.531 . S
C762 H774 0.960 . S
C762 H775 0.962 . S
C762 H776 0.960 . S
C763 C760 1.511 . S
C763 H777 0.961 . S
C763 H778 0.961 . S
C763 H779 0.961 . S
C764 C765 1.370 . S
C764 C766 1.363 . S
C764 H780 0.931 . S
C765 C764 1.370 . S
C765 C769 1.408 . S
C766 C764 1.363 . S
C766 C767 1.370 . S
C766 C770 1.524 . S
C767 C759 1.503 . S
C767 C766 1.370 . S
C767 C768 1.403 . S
C768 C767 1.403 . S
C768 C769 1.404 . S
C768 C771 1.539 . S
C769 C765 1.408 . S
C769 C768 1.404 . S
C769 H781 0.930 . S
C770 C766 1.524 . S
C770 H782 0.956 . S
C770 H783 0.961 . S
C770 H784 0.961 . S
C771 C768 1.539 . S
C771 H785 0.958 . S
C771 H786 0.961 . S
C771 H787 0.960 . S
H772 C756 0.931 . S
H773 C761 0.929 . S
H774 C762 0.960 . S
H775 C762 0.962 . S
H776 C762 0.960 . S
H777 C763 0.961 . S
H778 C763 0.961 . S
H779 C763 0.961 . S
H780 C764 0.931 . S
H781 C769 0.930 . S
H782 C770 0.956 . S
H783 C770 0.961 . S
H784 C770 0.961 . S
H785 C771 0.958 . S
H786 C771 0.961 . S
H787 C771 0.960 . S
C788 C789 1.391 . S
C788 C790 1.394 . S
C788 H804 0.931 . S
C789 C788 1.391 . S
C789 C793 1.376 . S
C790 C788 1.394 . S
C790 C791 1.369 . S
C790 C794 1.531 . S
C791 C790 1.369 . S
C791 C792 1.410 . S
C791 C799 1.503 . S
C792 C791 1.410 . S
C792 C793 1.392 . S
C792 C795 1.511 . S
C793 C789 1.376 . S
C793 C792 1.392 . S
C793 H805 0.929 . S
C794 C790 1.531 . S
C794 H806 0.960 . S
C794 H807 0.962 . S
C794 H808 0.960 . S
C795 C792 1.511 . S
C795 H809 0.961 . S
C795 H810 0.961 . S
C795 H811 0.961 . S
C796 C797 1.370 . S
C796 C798 1.363 . S
C796 H812 0.931 . S
C797 C796 1.370 . S
C797 C801 1.408 . S
C798 C796 1.363 . S
C798 C799 1.370 . S
C798 C802 1.524 . S
C799 C791 1.503 . S
C799 C798 1.370 . S
C799 C800 1.403 . S
C800 C799 1.403 . S
C800 C801 1.404 . S
C800 C803 1.539 . S
C801 C797 1.408 . S
C801 C800 1.404 . S
C801 H813 0.930 . S
C802 C798 1.524 . S
C802 H814 0.956 . S
C802 H815 0.961 . S
C802 H816 0.961 . S
C803 C800 1.539 . S
C803 H817 0.958 . S
C803 H818 0.961 . S
C803 H819 0.960 . S
H804 C788 0.931 . S
H805 C793 0.929 . S
H806 C794 0.960 . S
H807 C794 0.962 . S
H808 C794 0.960 . S
H809 C795 0.961 . S
H810 C795 0.961 . S
H811 C795 0.961 . S
H812 C796 0.931 . S
H813 C801 0.930 . S
H814 C802 0.956 . S
H815 C802 0.961 . S
H816 C802 0.961 . S
H817 C803 0.958 . S
H818 C803 0.961 . S
H819 C803 0.960 . S
C820 C821 1.391 . S
C820 C822 1.394 . S
C820 H836 0.931 . S
C821 C820 1.391 . S
C821 C825 1.376 1_565 S
C822 C820 1.394 . S
C822 C823 1.369 . S
C822 C826 1.531 . S
C823 C822 1.369 . S
C823 C824 1.410 . S
C823 C831 1.503 . S
C824 C823 1.410 . S
C824 C825 1.392 1_565 S
C824 C827 1.511 1_565 S
C825 C821 1.376 1_545 S
C825 C824 1.392 1_545 S
C825 H837 0.929 . S
C826 C822 1.531 . S
C826 H838 0.960 . S
C826 H839 0.962 . S
C826 H840 0.960 . S
C827 C824 1.511 1_545 S
C827 H841 0.961 . S
C827 H842 0.961 1_545 S
C827 H843 0.961 . S
C828 C829 1.370 . S
C828 C830 1.363 . S
C828 H844 0.931 . S
C829 C828 1.370 . S
C829 C833 1.408 . S
C830 C828 1.363 . S
C830 C831 1.370 . S
C830 C834 1.524 . S
C831 C823 1.503 . S
C831 C830 1.370 . S
C831 C832 1.403 . S
C832 C831 1.403 . S
C832 C833 1.404 . S
C832 C835 1.539 . S
C833 C829 1.408 . S
C833 C832 1.404 . S
C833 H845 0.930 . S
C834 C830 1.524 . S
C834 H846 0.956 . S
C834 H847 0.961 . S
C834 H848 0.961 . S
C835 C832 1.539 . S
C835 H849 0.958 . S
C835 H850 0.961 . S
C835 H851 0.960 1_565 S
H836 C820 0.931 . S
H837 C825 0.929 . S
H838 C826 0.960 . S
H839 C826 0.962 . S
H840 C826 0.960 . S
H841 C827 0.961 . S
H842 C827 0.961 1_565 S
H843 C827 0.961 . S
H844 C828 0.931 . S
H845 C833 0.930 . S
H846 C834 0.956 . S
H847 C834 0.961 . S
H848 C834 0.961 . S
H849 C835 0.958 . S
H850 C835 0.961 . S
H851 C835 0.960 1_545 S
C852 C853 1.391 . S
C852 C854 1.394 . S
C852 H868 0.931 . S
C853 C852 1.391 . S
C853 C857 1.376 . S
C854 C852 1.394 . S
C854 C855 1.369 . S
C854 C858 1.531 . S
C855 C854 1.369 . S
C855 C856 1.410 . S
C855 C863 1.503 . S
C856 C855 1.410 . S
C856 C857 1.392 . S
C856 C859 1.511 . S
C857 C853 1.376 . S
C857 C856 1.392 . S
C857 H869 0.929 . S
C858 C854 1.531 . S
C858 H870 0.960 . S
C858 H871 0.962 . S
C858 H872 0.960 . S
C859 C856 1.511 . S
C859 H873 0.961 . S
C859 H874 0.961 . S
C859 H875 0.961 . S
C860 C861 1.370 . S
C860 C862 1.363 . S
C860 H876 0.931 . S
C861 C860 1.370 . S
C861 C865 1.408 . S
C862 C860 1.363 . S
C862 C863 1.370 . S
C862 C866 1.524 . S
C863 C855 1.503 . S
C863 C862 1.370 . S
C863 C864 1.403 . S
C864 C863 1.403 . S
C864 C865 1.404 . S
C864 C867 1.539 . S
C865 C861 1.408 . S
C865 C864 1.404 . S
C865 H877 0.930 . S
C866 C862 1.524 . S
C866 H878 0.956 . S
C866 H879 0.961 . S
C866 H880 0.961 . S
C867 C864 1.539 . S
C867 H881 0.958 . S
C867 H882 0.961 . S
C867 H883 0.960 . S
H868 C852 0.931 . S
H869 C857 0.929 . S
H870 C858 0.960 . S
H871 C858 0.962 . S
H872 C858 0.960 . S
H873 C859 0.961 . S
H874 C859 0.961 . S
H875 C859 0.961 . S
H876 C860 0.931 . S
H877 C865 0.930 . S
H878 C866 0.956 . S
H879 C866 0.961 . S
H880 C866 0.961 . S
H881 C867 0.958 . S
H882 C867 0.961 . S
H883 C867 0.960 . S
C884 C885 1.391 . S
C884 C886 1.394 . S
C884 H900 0.931 . S
C885 C884 1.391 . S
C885 C889 1.376 . S
C886 C884 1.394 . S
C886 C887 1.369 . S
C886 C890 1.531 . S
C887 C886 1.369 . S
C887 C888 1.410 . S
C887 C895 1.503 . S
C888 C887 1.410 . S
C888 C889 1.392 . S
C888 C891 1.511 . S
C889 C885 1.376 . S
C889 C888 1.392 . S
C889 H901 0.929 . S
C890 C886 1.531 . S
C890 H902 0.960 . S
C890 H903 0.962 . S
C890 H904 0.960 . S
C891 C888 1.511 . S
C891 H905 0.961 . S
C891 H906 0.961 . S
C891 H907 0.961 . S
C892 C893 1.370 . S
C892 C894 1.363 . S
C892 H908 0.931 . S
C893 C892 1.370 . S
C893 C897 1.408 . S
C894 C892 1.363 . S
C894 C895 1.370 . S
C894 C898 1.524 . S
C895 C887 1.503 . S
C895 C894 1.370 . S
C895 C896 1.403 . S
C896 C895 1.403 . S
C896 C897 1.404 . S
C896 C899 1.539 . S
C897 C893 1.408 . S
C897 C896 1.404 . S
C897 H909 0.930 . S
C898 C894 1.524 . S
C898 H910 0.956 . S
C898 H911 0.961 . S
C898 H912 0.961 . S
C899 C896 1.539 . S
C899 H913 0.958 . S
C899 H914 0.961 . S
C899 H915 0.960 . S
H900 C884 0.931 . S
H901 C889 0.929 . S
H902 C890 0.960 . S
H903 C890 0.962 . S
H904 C890 0.960 . S
H905 C891 0.961 . S
H906 C891 0.961 . S
H907 C891 0.961 . S
H908 C892 0.931 . S
H909 C897 0.930 . S
H910 C898 0.956 . S
H911 C898 0.961 . S
H912 C898 0.961 . S
H913 C899 0.958 . S
H914 C899 0.961 . S
H915 C899 0.960 . S
C916 C917 1.391 . S
C916 C918 1.394 . S
C916 H932 0.931 . S
C917 C916 1.391 . S
C917 C921 1.376 . S
C918 C916 1.394 . S
C918 C919 1.369 . S
C918 C922 1.531 . S
C919 C918 1.369 . S
C919 C920 1.410 . S
C919 C927 1.503 . S
C920 C919 1.410 . S
C920 C921 1.392 . S
C920 C923 1.511 . S
C921 C917 1.376 . S
C921 C920 1.392 . S
C921 H933 0.929 . S
C922 C918 1.531 . S
C922 H934 0.960 . S
C922 H935 0.962 . S
C922 H936 0.960 . S
C923 C920 1.511 . S
C923 H937 0.961 . S
C923 H938 0.961 . S
C923 H939 0.961 . S
C924 C925 1.370 . S
C924 C926 1.363 . S
C924 H940 0.931 . S
C925 C924 1.370 . S
C925 C929 1.408 . S
C926 C924 1.363 . S
C926 C927 1.370 . S
C926 C930 1.524 . S
C927 C919 1.503 . S
C927 C926 1.370 . S
C927 C928 1.403 . S
C928 C927 1.403 . S
C928 C929 1.404 . S
C928 C931 1.539 . S
C929 C925 1.408 . S
C929 C928 1.404 . S
C929 H941 0.930 . S
C930 C926 1.524 . S
C930 H942 0.956 . S
C930 H943 0.961 . S
C930 H944 0.961 . S
C931 C928 1.539 . S
C931 H945 0.958 . S
C931 H946 0.961 . S
C931 H947 0.960 . S
H932 C916 0.931 . S
H933 C921 0.929 . S
H934 C922 0.960 . S
H935 C922 0.962 . S
H936 C922 0.960 . S
H937 C923 0.961 . S
H938 C923 0.961 . S
H939 C923 0.961 . S
H940 C924 0.931 . S
H941 C929 0.930 . S
H942 C930 0.956 . S
H943 C930 0.961 . S
H944 C930 0.961 . S
H945 C931 0.958 . S
H946 C931 0.961 . S
H947 C931 0.960 . S
C948 C949 1.391 . S
C948 C950 1.394 . S
C948 H964 0.931 . S
C949 C948 1.391 . S
C949 C953 1.376 . S
C950 C948 1.394 . S
C950 C951 1.369 . S
C950 C954 1.531 . S
C951 C950 1.369 . S
C951 C952 1.410 . S
C951 C959 1.503 . S
C952 C951 1.410 . S
C952 C953 1.392 . S
C952 C955 1.511 . S
C953 C949 1.376 . S
C953 C952 1.392 . S
C953 H965 0.929 . S
C954 C950 1.531 . S
C954 H966 0.960 . S
C954 H967 0.962 . S
C954 H968 0.960 . S
C955 C952 1.511 . S
C955 H969 0.961 . S
C955 H970 0.961 . S
C955 H971 0.961 . S
C956 C957 1.370 . S
C956 C958 1.363 . S
C956 H972 0.931 . S
C957 C956 1.370 . S
C957 C961 1.408 . S
C958 C956 1.363 . S
C958 C959 1.370 . S
C958 C962 1.524 . S
C959 C951 1.503 . S
C959 C958 1.370 . S
C959 C960 1.403 . S
C960 C959 1.403 . S
C960 C961 1.404 . S
C960 C963 1.539 . S
C961 C957 1.408 . S
C961 C960 1.404 . S
C961 H973 0.930 . S
C962 C958 1.524 . S
C962 H974 0.956 . S
C962 H975 0.961 . S
C962 H976 0.961 . S
C963 C960 1.539 . S
C963 H977 0.958 . S
C963 H978 0.961 . S
C963 H979 0.960 . S
H964 C948 0.931 . S
H965 C953 0.929 . S
H966 C954 0.960 . S
H967 C954 0.962 . S
H968 C954 0.960 . S
H969 C955 0.961 . S
H970 C955 0.961 . S
H971 C955 0.961 . S
H972 C956 0.931 . S
H973 C961 0.930 . S
H974 C962 0.956 . S
H975 C962 0.961 . S
H976 C962 0.961 . S
H977 C963 0.958 . S
H978 C963 0.961 . S
H979 C963 0.960 . S
C980 C981 1.391 . S
C980 C982 1.394 . S
C980 H996 0.922 1_565 S
C981 C980 1.391 . S
C981 C985 1.376 . S
C982 C980 1.394 . S
C982 C983 1.369 1_554 S
C982 C986 1.531 . S
C983 C982 1.369 1_556 S
C983 C984 1.410 . S
C983 C991 1.503 . S
C984 C983 1.410 . S
C984 C985 1.392 1_556 S
C984 C987 1.511 . S
C985 C981 1.376 . S
C985 C984 1.392 1_554 S
C985 H997 0.929 . S
C986 C982 1.531 . S
C986 H998 0.960 1_554 S
C986 H999 0.962 . S
C986 H1000 0.960 . S
C987 C984 1.511 . S
C987 H1001 0.961 . S
C987 H1002 0.961 . S
C987 H1003 0.961 . S
C988 C989 1.370 . S
C988 C990 1.363 . S
C988 H1004 0.931 . S
C989 C988 1.370 . S
C989 C993 1.408 . S
C990 C988 1.363 . S
C990 C991 1.370 . S
C990 C994 1.524 1_556 S
C991 C983 1.503 . S
C991 C990 1.370 . S
C991 C992 1.403 . S
C992 C991 1.403 . S
C992 C993 1.404 . S
C992 C995 1.539 . S
C993 C989 1.408 . S
C993 C992 1.404 . S
C993 H1005 0.930 . S
C994 C990 1.524 1_554 S
C994 H1006 0.956 . S
C994 H1007 0.961 . S
C994 H1008 0.961 . S
C995 C992 1.539 . S
C995 H1009 0.958 . S
C995 H1010 0.961 . S
C995 H1011 0.960 . S
H996 C980 0.922 1_545 S
H997 C985 0.929 . S
H998 C986 0.960 1_556 S
H999 C986 0.962 . S
H1000 C986 0.960 . S
H1001 C987 0.961 . S
H1002 C987 0.961 . S
H1003 C987 0.961 . S
H1004 C988 0.931 . S
H1005 C993 0.930 . S
H1006 C994 0.956 . S
H1007 C994 0.961 . S
H1008 C994 0.961 . S
H1009 C995 0.958 . S
H1010 C995 0.961 . S
H1011 C995 0.960 . S
C1012 C1013 1.391 . S
C1012 C1014 1.394 . S
C1012 H1028 0.931 1_556 S
C1013 C1012 1.391 . S
C1013 C1017 1.376 . S
C1014 C1012 1.394 . S
C1014 C1015 1.369 . S
C1014 C1018 1.531 . S
C1015 C1014 1.369 . S
C1015 C1016 1.410 . S
C1015 C1023 1.503 . S
C1016 C1015 1.410 . S
C1016 C1017 1.392 . S
C1016 C1019 1.511 . S
C1017 C1013 1.376 . S
C1017 C1016 1.392 . S
C1017 H1029 0.929 . S
C1018 C1014 1.531 . S
C1018 H1030 0.960 . S
C1018 H1031 0.962 . S
C1018 H1032 0.960 . S
C1019 C1016 1.511 . S
C1019 H1033 0.961 . S
C1019 H1034 0.961 . S
C1019 H1035 0.961 . S
C1020 C1021 1.370 . S
C1020 C1022 1.363 . S
C1020 H1036 0.931 . S
C1021 C1020 1.370 . S
C1021 C1025 1.408 . S
C1022 C1020 1.363 . S
C1022 C1023 1.370 . S
C1022 C1026 1.524 . S
C1023 C1015 1.503 . S
C1023 C1022 1.370 . S
C1023 C1024 1.403 . S
C1024 C1023 1.403 . S
C1024 C1025 1.404 . S
C1024 C1027 1.539 . S
C1025 C1021 1.408 . S
C1025 C1024 1.404 . S
C1025 H1037 0.930 . S
C1026 C1022 1.524 . S
C1026 H1038 0.956 . S
C1026 H1039 0.961 . S
C1026 H1040 0.961 . S
C1027 C1024 1.539 . S
C1027 H1041 0.958 . S
C1027 H1042 0.961 . S
C1027 H1043 0.960 . S
H1028 C1012 0.931 1_554 S
H1029 C1017 0.929 . S
H1030 C1018 0.960 . S
H1031 C1018 0.962 . S
H1032 C1018 0.960 . S
H1033 C1019 0.961 . S
H1034 C1019 0.961 . S
H1035 C1019 0.961 . S
H1036 C1020 0.931 . S
H1037 C1025 0.930 . S
H1038 C1026 0.956 . S
H1039 C1026 0.961 . S
H1040 C1026 0.961 . S
H1041 C1027 0.958 . S
H1042 C1027 0.961 . S
H1043 C1027 0.960 . S
C1044 C1045 1.391 . S
C1044 C1046 1.394 . S
C1044 H1060 0.931 . S
C1045 C1044 1.391 . S
C1045 C1049 1.376 . S
C1046 C1044 1.394 . S
C1046 C1047 1.369 . S
C1046 C1050 1.531 . S
C1047 C1046 1.369 . S
C1047 C1048 1.410 . S
C1047 C1055 1.503 . S
C1048 C1047 1.410 . S
C1048 C1049 1.392 . S
C1048 C1051 1.511 . S
C1049 C1045 1.376 . S
C1049 C1048 1.392 . S
C1049 H1061 0.929 . S
C1050 C1046 1.531 . S
C1050 H1062 0.960 . S
C1050 H1063 0.962 . S
C1050 H1064 0.960 . S
C1051 C1048 1.511 . S
C1051 H1065 0.961 . S
C1051 H1066 0.961 . S
C1051 H1067 0.961 . S
C1052 C1053 1.370 . S
C1052 C1054 1.363 . S
C1052 H1068 0.931 . S
C1053 C1052 1.370 . S
C1053 C1057 1.408 . S
C1054 C1052 1.363 . S
C1054 C1055 1.370 . S
C1054 C1058 1.524 . S
C1055 C1047 1.503 . S
C1055 C1054 1.370 . S
C1055 C1056 1.403 . S
C1056 C1055 1.403 . S
C1056 C1057 1.404 . S
C1056 C1059 1.539 . S
C1057 C1053 1.408 . S
C1057 C1056 1.404 . S
C1057 H1069 0.930 . S
C1058 C1054 1.524 . S
C1058 H1070 0.956 . S
C1058 H1071 0.961 . S
C1058 H1072 0.961 . S
C1059 C1056 1.539 . S
C1059 H1073 0.958 . S
C1059 H1074 0.961 . S
C1059 H1075 0.960 . S
H1060 C1044 0.931 . S
H1061 C1049 0.929 . S
H1062 C1050 0.960 . S
H1063 C1050 0.962 . S
H1064 C1050 0.960 . S
H1065 C1051 0.961 . S
H1066 C1051 0.961 . S
H1067 C1051 0.961 . S
H1068 C1052 0.931 . S
H1069 C1057 0.930 . S
H1070 C1058 0.956 . S
H1071 C1058 0.961 . S
H1072 C1058 0.961 . S
H1073 C1059 0.958 . S
H1074 C1059 0.961 . S
H1075 C1059 0.960 . S
C1076 C1077 1.391 . S
C1076 C1078 1.394 . S
C1076 H1092 0.931 . S
C1077 C1076 1.391 . S
C1077 C1081 1.376 . S
C1078 C1076 1.394 . S
C1078 C1079 1.369 . S
C1078 C1082 1.531 . S
C1079 C1078 1.369 . S
C1079 C1080 1.410 . S
C1079 C1087 1.503 . S
C1080 C1079 1.410 . S
C1080 C1081 1.392 . S
C1080 C1083 1.511 . S
C1081 C1077 1.376 . S
C1081 C1080 1.392 . S
C1081 H1093 0.929 . S
C1082 C1078 1.531 . S
C1082 H1094 0.960 . S
C1082 H1095 0.962 . S
C1082 H1096 0.960 . S
C1083 C1080 1.511 . S
C1083 H1097 0.961 . S
C1083 H1098 0.961 . S
C1083 H1099 0.961 . S
C1084 C1085 1.370 . S
C1084 C1086 1.363 . S
C1084 H1100 0.931 . S
C1085 C1084 1.370 . S
C1085 C1089 1.408 . S
C1086 C1084 1.363 . S
C1086 C1087 1.370 . S
C1086 C1090 1.524 . S
C1087 C1079 1.503 . S
C1087 C1086 1.370 . S
C1087 C1088 1.403 . S
C1088 C1087 1.403 . S
C1088 C1089 1.404 . S
C1088 C1091 1.539 . S
C1089 C1085 1.408 . S
C1089 C1088 1.404 . S
C1089 H1101 0.930 . S
C1090 C1086 1.524 . S
C1090 H1102 0.956 . S
C1090 H1103 0.961 . S
C1090 H1104 0.961 . S
C1091 C1088 1.539 . S
C1091 H1105 0.958 . S
C1091 H1106 0.961 . S
C1091 H1107 0.960 . S
H1092 C1076 0.931 . S
H1093 C1081 0.929 . S
H1094 C1082 0.960 . S
H1095 C1082 0.962 . S
H1096 C1082 0.960 . S
H1097 C1083 0.961 . S
H1098 C1083 0.961 . S
H1099 C1083 0.961 . S
H1100 C1084 0.931 . S
H1101 C1089 0.930 . S
H1102 C1090 0.956 . S
H1103 C1090 0.961 . S
H1104 C1090 0.961 . S
H1105 C1091 0.958 . S
H1106 C1091 0.961 . S
H1107 C1091 0.960 . S
C1108 C1109 1.391 . S
C1108 C1110 1.394 . S
C1108 H1124 0.931 . S
C1109 C1108 1.391 . S
C1109 C1113 1.376 . S
C1110 C1108 1.394 . S
C1110 C1111 1.369 . S
C1110 C1114 1.531 . S
C1111 C1110 1.369 . S
C1111 C1112 1.410 . S
C1111 C1119 1.503 . S
C1112 C1111 1.410 . S
C1112 C1113 1.392 . S
C1112 C1115 1.511 . S
C1113 C1109 1.376 . S
C1113 C1112 1.392 . S
C1113 H1125 0.929 . S
C1114 C1110 1.531 . S
C1114 H1126 0.960 . S
C1114 H1127 0.962 . S
C1114 H1128 0.960 . S
C1115 C1112 1.511 . S
C1115 H1129 0.961 . S
C1115 H1130 0.961 . S
C1115 H1131 0.961 . S
C1116 C1117 1.370 . S
C1116 C1118 1.363 . S
C1116 H1132 0.931 . S
C1117 C1116 1.370 . S
C1117 C1121 1.408 . S
C1118 C1116 1.363 . S
C1118 C1119 1.370 . S
C1118 C1122 1.524 . S
C1119 C1111 1.503 . S
C1119 C1118 1.370 . S
C1119 C1120 1.403 . S
C1120 C1119 1.403 . S
C1120 C1121 1.404 . S
C1120 C1123 1.539 . S
C1121 C1117 1.408 . S
C1121 C1120 1.404 . S
C1121 H1133 0.930 . S
C1122 C1118 1.524 . S
C1122 H1134 0.956 . S
C1122 H1135 0.961 . S
C1122 H1136 0.961 . S
C1123 C1120 1.539 . S
C1123 H1137 0.958 . S
C1123 H1138 0.961 . S
C1123 H1139 0.960 . S
H1124 C1108 0.931 . S
H1125 C1113 0.929 . S
H1126 C1114 0.960 . S
H1127 C1114 0.962 . S
H1128 C1114 0.960 . S
H1129 C1115 0.961 . S
H1130 C1115 0.961 . S
H1131 C1115 0.961 . S
H1132 C1116 0.931 . S
H1133 C1121 0.930 . S
H1134 C1122 0.956 . S
H1135 C1122 0.961 . S
H1136 C1122 0.961 . S
H1137 C1123 0.958 . S
H1138 C1123 0.961 . S
H1139 C1123 0.960 . S
C1140 C1141 1.391 . S
C1140 C1142 1.394 . S
C1140 H1156 0.931 . S
C1141 C1140 1.391 . S
C1141 C1145 1.376 . S
C1142 C1140 1.394 . S
C1142 C1143 1.369 . S
C1142 C1146 1.531 . S
C1143 C1142 1.369 . S
C1143 C1144 1.410 . S
C1143 C1151 1.503 . S
C1144 C1143 1.410 . S
C1144 C1145 1.392 . S
C1144 C1147 1.511 . S
C1145 C1141 1.376 . S
C1145 C1144 1.392 . S
C1145 H1157 0.929 . S
C1146 C1142 1.531 . S
C1146 H1158 0.960 . S
C1146 H1159 0.962 . S
C1146 H1160 0.960 . S
C1147 C1144 1.511 . S
C1147 H1161 0.961 . S
C1147 H1162 0.961 . S
C1147 H1163 0.961 . S
C1148 C1149 1.370 . S
C1148 C1150 1.363 . S
C1148 H1164 0.931 . S
C1149 C1148 1.370 . S
C1149 C1153 1.408 . S
C1150 C1148 1.363 . S
C1150 C1151 1.370 . S
C1150 C1154 1.524 . S
C1151 C1143 1.503 . S
C1151 C1150 1.370 . S
C1151 C1152 1.403 . S
C1152 C1151 1.403 . S
C1152 C1153 1.404 . S
C1152 C1155 1.539 . S
C1153 C1149 1.408 . S
C1153 C1152 1.404 . S
C1153 H1165 0.930 . S
C1154 C1150 1.524 . S
C1154 H1166 0.956 . S
C1154 H1167 0.961 . S
C1154 H1168 0.961 . S
C1155 C1152 1.539 . S
C1155 H1169 0.958 . S
C1155 H1170 0.961 . S
C1155 H1171 0.960 . S
H1156 C1140 0.931 . S
H1157 C1145 0.929 . S
H1158 C1146 0.960 . S
H1159 C1146 0.962 . S
H1160 C1146 0.960 . S
H1161 C1147 0.961 . S
H1162 C1147 0.961 . S
H1163 C1147 0.961 . S
H1164 C1148 0.931 . S
H1165 C1153 0.930 . S
H1166 C1154 0.956 . S
H1167 C1154 0.961 . S
H1168 C1154 0.961 . S
H1169 C1155 0.958 . S
H1170 C1155 0.961 . S
H1171 C1155 0.960 . S
C1172 C1173 1.391 . S
C1172 C1174 1.394 1_554 S
C1172 H1188 0.931 . S
C1173 C1172 1.391 . S
C1173 C1177 1.376 1_554 S
C1174 C1172 1.394 1_556 S
C1174 C1175 1.369 . S
C1174 C1178 1.531 . S
C1175 C1174 1.369 . S
C1175 C1176 1.410 . S
C1175 C1183 1.503 . S
C1176 C1175 1.410 . S
C1176 C1177 1.392 . S
C1176 C1179 1.511 . S
C1177 C1173 1.376 1_556 S
C1177 C1176 1.392 . S
C1177 H1189 0.929 . S
C1178 C1174 1.531 . S
C1178 H1190 0.960 . S
C1178 H1191 0.962 . S
C1178 H1192 0.960 1_556 S
C1179 C1176 1.511 . S
C1179 H1193 0.961 . S
C1179 H1194 0.961 . S
C1179 H1195 0.961 . S
C1180 C1181 1.370 . S
C1180 C1182 1.363 . S
C1180 H1196 0.931 . S
C1181 C1180 1.370 . S
C1181 C1185 1.408 . S
C1182 C1180 1.363 . S
C1182 C1183 1.370 . S
C1182 C1186 1.524 . S
C1183 C1175 1.503 . S
C1183 C1182 1.370 . S
C1183 C1184 1.403 . S
C1184 C1183 1.403 . S
C1184 C1185 1.404 . S
C1184 C1187 1.539 . S
C1185 C1181 1.408 . S
C1185 C1184 1.404 . S
C1185 H1197 0.930 . S
C1186 C1182 1.524 . S
C1186 H1198 0.956 . S
C1186 H1199 0.961 . S
C1186 H1200 0.961 . S
C1187 C1184 1.539 . S
C1187 H1201 0.958 . S
C1187 H1202 0.961 . S
C1187 H1203 0.960 . S
H1188 C1172 0.931 . S
H1189 C1177 0.929 . S
H1190 C1178 0.960 . S
H1191 C1178 0.962 . S
H1192 C1178 0.960 1_554 S
H1193 C1179 0.961 . S
H1194 C1179 0.961 . S
H1195 C1179 0.961 . S
H1196 C1180 0.931 . S
H1197 C1185 0.930 . S
H1198 C1186 0.956 . S
H1199 C1186 0.961 . S
H1200 C1186 0.961 . S
H1201 C1187 0.958 . S
H1202 C1187 0.961 . S
H1203 C1187 0.960 . S
C1204 C1205 1.391 1_456 S
C1204 C1206 1.394 1_455 S
C1204 H1220 0.931 . S
C1205 C1204 1.391 1_654 S
C1205 C1209 1.376 . S
C1206 C1204 1.394 1_655 S
C1206 C1207 1.369 . S
C1206 C1210 1.531 . S
C1207 C1206 1.369 . S
C1207 C1208 1.410 1_556 S
C1207 C1215 1.503 . S
C1208 C1207 1.410 1_554 S
C1208 C1209 1.392 . S
C1208 C1211 1.511 . S
C1209 C1205 1.376 . S
C1209 C1208 1.392 . S
C1209 H1221 0.929 . S
C1210 C1206 1.531 . S
C1210 H1222 0.960 . S
C1210 H1223 0.962 . S
C1210 H1224 0.960 1_655 S
C1211 C1208 1.511 . S
C1211 H1225 0.961 . S
C1211 H1226 0.961 . S
C1211 H1227 0.961 . S
C1212 C1213 1.370 . S
C1212 C1214 1.363 . S
C1212 H1228 0.931 . S
C1213 C1212 1.370 . S
C1213 C1217 1.408 . S
C1214 C1212 1.363 . S
C1214 C1215 1.370 . S
C1214 C1218 1.524 . S
C1215 C1207 1.503 . S
C1215 C1214 1.370 . S
C1215 C1216 1.403 . S
C1216 C1215 1.403 . S
C1216 C1217 1.404 . S
C1216 C1219 1.539 1_556 S
C1217 C1213 1.408 . S
C1217 C1216 1.404 . S
C1217 H1229 0.930 . S
C1218 C1214 1.524 . S
C1218 H1230 0.956 . S
C1218 H1231 0.961 . S
C1218 H1232 0.961 . S
C1219 C1216 1.539 1_554 S
C1219 H1233 0.958 . S
C1219 H1234 0.961 . S
C1219 H1235 0.960 . S
H1220 C1204 0.931 . S
H1221 C1209 0.929 . S
H1222 C1210 0.960 . S
H1223 C1210 0.962 . S
H1224 C1210 0.960 1_455 S
H1225 C1211 0.961 . S
H1226 C1211 0.961 . S
H1227 C1211 0.961 . S
H1228 C1212 0.931 . S
H1229 C1217 0.930 . S
H1230 C1218 0.956 . S
H1231 C1218 0.961 . S
H1232 C1218 0.961 . S
H1233 C1219 0.958 . S
H1234 C1219 0.961 . S
H1235 C1219 0.960 . S
C1236 C1237 1.391 . S
C1236 C1238 1.394 . S
C1236 H1252 0.931 . S
C1237 C1236 1.391 . S
C1237 C1241 1.376 . S
C1238 C1236 1.394 . S
C1238 C1239 1.369 . S
C1238 C1242 1.531 . S
C1239 C1238 1.369 . S
C1239 C1240 1.410 . S
C1239 C1247 1.503 . S
C1240 C1239 1.410 . S
C1240 C1241 1.392 . S
C1240 C1243 1.511 . S
C1241 C1237 1.376 . S
C1241 C1240 1.392 . S
C1241 H1253 0.929 . S
C1242 C1238 1.531 . S
C1242 H1254 0.960 . S
C1242 H1255 0.962 . S
C1242 H1256 0.960 . S
C1243 C1240 1.511 . S
C1243 H1257 0.961 . S
C1243 H1258 0.961 . S
C1243 H1259 0.961 . S
C1244 C1245 1.370 . S
C1244 C1246 1.363 . S
C1244 H1260 0.931 . S
C1245 C1244 1.370 . S
C1245 C1249 1.408 . S
C1246 C1244 1.363 . S
C1246 C1247 1.370 . S
C1246 C1250 1.524 . S
C1247 C1239 1.503 . S
C1247 C1246 1.370 . S
C1247 C1248 1.403 . S
C1248 C1247 1.403 . S
C1248 C1249 1.404 . S
C1248 C1251 1.539 . S
C1249 C1245 1.408 . S
C1249 C1248 1.404 . S
C1249 H1261 0.930 . S
C1250 C1246 1.524 . S
C1250 H1262 0.956 . S
C1250 H1263 0.961 . S
C1250 H1264 0.961 . S
C1251 C1248 1.539 . S
C1251 H1265 0.958 . S
C1251 H1266 0.961 . S
C1251 H1267 0.960 . S
H1252 C1236 0.931 . S
H1253 C1241 0.929 . S
H1254 C1242 0.960 . S
H1255 C1242 0.962 . S
H1256 C1242 0.960 . S
H1257 C1243 0.961 . S
H1258 C1243 0.961 . S
H1259 C1243 0.961 . S
H1260 C1244 0.931 . S
H1261 C1249 0.930 . S
H1262 C1250 0.956 . S
H1263 C1250 0.961 . S
H1264 C1250 0.961 . S
H1265 C1251 0.958 . S
H1266 C1251 0.961 . S
H1267 C1251 0.960 . S
C1268 C1269 1.391 . S
C1268 C1270 1.394 . S
C1268 H1284 0.931 . S
C1269 C1268 1.391 . S
C1269 C1273 1.376 . S
C1270 C1268 1.394 . S
C1270 C1271 1.369 . S
C1270 C1274 1.531 . S
C1271 C1270 1.369 . S
C1271 C1272 1.410 . S
C1271 C1279 1.503 . S
C1272 C1271 1.410 . S
C1272 C1273 1.392 . S
C1272 C1275 1.511 . S
C1273 C1269 1.376 . S
C1273 C1272 1.392 . S
C1273 H1285 0.929 . S
C1274 C1270 1.531 . S
C1274 H1286 0.960 . S
C1274 H1287 0.962 . S
C1274 H1288 0.960 . S
C1275 C1272 1.511 . S
C1275 H1289 0.961 . S
C1275 H1290 0.961 . S
C1275 H1291 0.961 . S
C1276 C1277 1.370 . S
C1276 C1278 1.363 . S
C1276 H1292 0.931 . S
C1277 C1276 1.370 . S
C1277 C1281 1.408 . S
C1278 C1276 1.363 . S
C1278 C1279 1.370 . S
C1278 C1282 1.524 . S
C1279 C1271 1.503 . S
C1279 C1278 1.370 . S
C1279 C1280 1.403 . S
C1280 C1279 1.403 . S
C1280 C1281 1.404 . S
C1280 C1283 1.539 . S
C1281 C1277 1.408 . S
C1281 C1280 1.404 . S
C1281 H1293 0.930 . S
C1282 C1278 1.524 . S
C1282 H1294 0.956 . S
C1282 H1295 0.961 . S
C1282 H1296 0.961 . S
C1283 C1280 1.539 . S
C1283 H1297 0.958 . S
C1283 H1298 0.961 . S
C1283 H1299 0.960 . S
H1284 C1268 0.931 . S
H1285 C1273 0.929 . S
H1286 C1274 0.960 . S
H1287 C1274 0.962 . S
H1288 C1274 0.960 . S
H1289 C1275 0.961 . S
H1290 C1275 0.961 . S
H1291 C1275 0.961 . S
H1292 C1276 0.931 . S
H1293 C1281 0.930 . S
H1294 C1282 0.956 . S
H1295 C1282 0.961 . S
H1296 C1282 0.961 . S
H1297 C1283 0.958 . S
H1298 C1283 0.961 . S
H1299 C1283 0.960 . S
C1300 C1301 1.391 . S
C1300 C1302 1.394 . S
C1300 H1316 0.920 1_565 S
C1301 C1300 1.391 . S
C1301 C1305 1.376 . S
C1302 C1300 1.394 . S
C1302 C1303 1.369 . S
C1302 C1306 1.531 . S
C1303 C1302 1.369 . S
C1303 C1304 1.410 . S
C1303 C1311 1.503 . S
C1304 C1303 1.410 . S
C1304 C1305 1.392 . S
C1304 C1307 1.511 . S
C1305 C1301 1.376 . S
C1305 C1304 1.392 . S
C1305 H1317 0.929 . S
C1306 C1302 1.531 . S
C1306 H1318 0.960 . S
C1306 H1319 0.962 . S
C1306 H1320 0.960 . S
C1307 C1304 1.511 . S
C1307 H1321 0.961 . S
C1307 H1322 0.961 . S
C1307 H1323 0.961 . S
C1308 C1309 1.370 . S
C1308 C1310 1.363 . S
C1308 H1324 0.931 . S
C1309 C1308 1.370 . S
C1309 C1313 1.408 . S
C1310 C1308 1.363 . S
C1310 C1311 1.370 . S
C1310 C1314 1.524 . S
C1311 C1303 1.503 . S
C1311 C1310 1.370 . S
C1311 C1312 1.403 . S
C1312 C1311 1.403 . S
C1312 C1313 1.404 . S
C1312 C1315 1.539 . S
C1313 C1309 1.408 . S
C1313 C1312 1.404 . S
C1313 H1325 0.930 . S
C1314 C1310 1.524 . S
C1314 H1326 0.956 . S
C1314 H1327 0.961 . S
C1314 H1328 0.961 . S
C1315 C1312 1.539 . S
C1315 H1329 0.958 . S
C1315 H1330 0.961 . S
C1315 H1331 0.960 . S
H1316 C1300 0.920 1_545 S
H1317 C1305 0.929 . S
H1318 C1306 0.960 . S
H1319 C1306 0.962 . S
H1320 C1306 0.960 . S
H1321 C1307 0.961 . S
H1322 C1307 0.961 . S
H1323 C1307 0.961 . S
H1324 C1308 0.931 . S
H1325 C1313 0.930 . S
H1326 C1314 0.956 . S
H1327 C1314 0.961 . S
H1328 C1314 0.961 . S
H1329 C1315 0.958 . S
H1330 C1315 0.961 . S
H1331 C1315 0.960 . S
C1332 C1333 1.391 . S
C1332 C1334 1.394 . S
C1332 H1348 0.931 . S
C1333 C1332 1.391 . S
C1333 C1337 1.376 . S
C1334 C1332 1.394 . S
C1334 C1335 1.369 . S
C1334 C1338 1.531 . S
C1335 C1334 1.369 . S
C1335 C1336 1.410 . S
C1335 C1343 1.503 . S
C1336 C1335 1.410 . S
C1336 C1337 1.392 . S
C1336 C1339 1.511 . S
C1337 C1333 1.376 . S
C1337 C1336 1.392 . S
C1337 H1349 0.929 . S
C1338 C1334 1.531 . S
C1338 H1350 0.960 . S
C1338 H1351 0.962 . S
C1338 H1352 0.960 . S
C1339 C1336 1.511 . S
C1339 H1353 0.961 . S
C1339 H1354 0.961 . S
C1339 H1355 0.961 . S
C1340 C1341 1.370 . S
C1340 C1342 1.363 . S
C1340 H1356 0.931 . S
C1341 C1340 1.370 . S
C1341 C1345 1.408 . S
C1342 C1340 1.363 . S
C1342 C1343 1.370 . S
C1342 C1346 1.524 . S
C1343 C1335 1.503 . S
C1343 C1342 1.370 . S
C1343 C1344 1.403 . S
C1344 C1343 1.403 . S
C1344 C1345 1.404 . S
C1344 C1347 1.539 . S
C1345 C1341 1.408 . S
C1345 C1344 1.404 . S
C1345 H1357 0.930 . S
C1346 C1342 1.524 . S
C1346 H1358 0.956 . S
C1346 H1359 0.961 . S
C1346 H1360 0.961 . S
C1347 C1344 1.539 . S
C1347 H1361 0.958 . S
C1347 H1362 0.961 . S
C1347 H1363 0.960 . S
H1348 C1332 0.931 . S
H1349 C1337 0.929 . S
H1350 C1338 0.960 . S
H1351 C1338 0.962 . S
H1352 C1338 0.960 . S
H1353 C1339 0.961 . S
H1354 C1339 0.961 . S
H1355 C1339 0.961 . S
H1356 C1340 0.931 . S
H1357 C1345 0.930 . S
H1358 C1346 0.956 . S
H1359 C1346 0.961 . S
H1360 C1346 0.961 . S
H1361 C1347 0.958 . S
H1362 C1347 0.961 . S
H1363 C1347 0.960 . S
C1364 C1365 1.391 . S
C1364 C1366 1.394 . S
C1364 H1380 0.931 . S
C1365 C1364 1.391 . S
C1365 C1369 1.376 . S
C1366 C1364 1.394 . S
C1366 C1367 1.369 . S
C1366 C1370 1.531 . S
C1367 C1366 1.369 . S
C1367 C1368 1.410 . S
C1367 C1375 1.503 . S
C1368 C1367 1.410 . S
C1368 C1369 1.392 . S
C1368 C1371 1.511 . S
C1369 C1365 1.376 . S
C1369 C1368 1.392 . S
C1369 H1381 0.929 . S
C1370 C1366 1.531 . S
C1370 H1382 0.960 . S
C1370 H1383 0.962 . S
C1370 H1384 0.960 . S
C1371 C1368 1.511 . S
C1371 H1385 0.961 . S
C1371 H1386 0.961 . S
C1371 H1387 0.961 . S
C1372 C1373 1.370 . S
C1372 C1374 1.363 . S
C1372 H1388 0.931 . S
C1373 C1372 1.370 . S
C1373 C1377 1.408 . S
C1374 C1372 1.363 . S
C1374 C1375 1.370 . S
C1374 C1378 1.524 . S
C1375 C1367 1.503 . S
C1375 C1374 1.370 . S
C1375 C1376 1.403 . S
C1376 C1375 1.403 . S
C1376 C1377 1.404 . S
C1376 C1379 1.539 . S
C1377 C1373 1.408 . S
C1377 C1376 1.404 . S
C1377 H1389 0.930 . S
C1378 C1374 1.524 . S
C1378 H1390 0.956 . S
C1378 H1391 0.961 . S
C1378 H1392 0.961 . S
C1379 C1376 1.539 . S
C1379 H1393 0.958 . S
C1379 H1394 0.961 . S
C1379 H1395 0.960 . S
H1380 C1364 0.931 . S
H1381 C1369 0.929 . S
H1382 C1370 0.960 . S
H1383 C1370 0.962 . S
H1384 C1370 0.960 . S
H1385 C1371 0.961 . S
H1386 C1371 0.961 . S
H1387 C1371 0.961 . S
H1388 C1372 0.931 . S
H1389 C1377 0.930 . S
H1390 C1378 0.956 . S
H1391 C1378 0.961 . S
H1392 C1378 0.961 . S
H1393 C1379 0.958 . S
H1394 C1379 0.961 . S
H1395 C1379 0.960 . S
C1396 C1397 1.391 . S
C1396 C1398 1.394 . S
C1396 H1412 0.931 . S
C1397 C1396 1.391 . S
C1397 C1401 1.376 . S
C1398 C1396 1.394 . S
C1398 C1399 1.369 . S
C1398 C1402 1.531 . S
C1399 C1398 1.369 . S
C1399 C1400 1.410 . S
C1399 C1407 1.503 . S
C1400 C1399 1.410 . S
C1400 C1401 1.392 . S
C1400 C1403 1.511 . S
C1401 C1397 1.376 . S
C1401 C1400 1.392 . S
C1401 H1413 0.929 . S
C1402 C1398 1.531 . S
C1402 H1414 0.960 . S
C1402 H1415 0.962 . S
C1402 H1416 0.960 . S
C1403 C1400 1.511 . S
C1403 H1417 0.961 . S
C1403 H1418 0.961 . S
C1403 H1419 0.961 . S
C1404 C1405 1.370 . S
C1404 C1406 1.363 . S
C1404 H1420 0.931 . S
C1405 C1404 1.370 . S
C1405 C1409 1.408 . S
C1406 C1404 1.363 . S
C1406 C1407 1.370 . S
C1406 C1410 1.524 . S
C1407 C1399 1.503 . S
C1407 C1406 1.370 . S
C1407 C1408 1.403 . S
C1408 C1407 1.403 . S
C1408 C1409 1.404 . S
C1408 C1411 1.539 . S
C1409 C1405 1.408 . S
C1409 C1408 1.404 . S
C1409 H1421 0.930 . S
C1410 C1406 1.524 . S
C1410 H1422 0.956 . S
C1410 H1423 0.961 . S
C1410 H1424 0.961 . S
C1411 C1408 1.539 . S
C1411 H1425 0.958 . S
C1411 H1426 0.961 . S
C1411 H1427 0.960 . S
H1412 C1396 0.931 . S
H1413 C1401 0.929 . S
H1414 C1402 0.960 . S
H1415 C1402 0.962 . S
H1416 C1402 0.960 . S
H1417 C1403 0.961 . S
H1418 C1403 0.961 . S
H1419 C1403 0.961 . S
H1420 C1404 0.931 . S
H1421 C1409 0.930 . S
H1422 C1410 0.956 . S
H1423 C1410 0.961 . S
H1424 C1410 0.961 . S
H1425 C1411 0.958 . S
H1426 C1411 0.961 . S
H1427 C1411 0.960 . S
C1428 C1429 1.391 . S
C1428 C1430 1.394 . S
C1428 H1444 0.931 . S
C1429 C1428 1.391 . S
C1429 C1433 1.376 . S
C1430 C1428 1.394 . S
C1430 C1431 1.369 . S
C1430 C1434 1.531 . S
C1431 C1430 1.369 . S
C1431 C1432 1.410 . S
C1431 C1439 1.503 . S
C1432 C1431 1.410 . S
C1432 C1433 1.392 . S
C1432 C1435 1.511 . S
C1433 C1429 1.376 . S
C1433 C1432 1.392 . S
C1433 H1445 0.929 . S
C1434 C1430 1.531 . S
C1434 H1446 0.960 . S
C1434 H1447 0.962 . S
C1434 H1448 0.960 . S
C1435 C1432 1.511 . S
C1435 H1449 0.961 . S
C1435 H1450 0.961 . S
C1435 H1451 0.961 . S
C1436 C1437 1.370 . S
C1436 C1438 1.363 . S
C1436 H1452 0.931 . S
C1437 C1436 1.370 . S
C1437 C1441 1.408 . S
C1438 C1436 1.363 . S
C1438 C1439 1.370 . S
C1438 C1442 1.524 . S
C1439 C1431 1.503 . S
C1439 C1438 1.370 . S
C1439 C1440 1.403 . S
C1440 C1439 1.403 . S
C1440 C1441 1.404 . S
C1440 C1443 1.539 . S
C1441 C1437 1.408 . S
C1441 C1440 1.404 . S
C1441 H1453 0.930 . S
C1442 C1438 1.524 . S
C1442 H1454 0.956 . S
C1442 H1455 0.961 . S
C1442 H1456 0.961 . S
C1443 C1440 1.539 . S
C1443 H1457 0.958 . S
C1443 H1458 0.961 . S
C1443 H1459 0.960 . S
H1444 C1428 0.931 . S
H1445 C1433 0.929 . S
H1446 C1434 0.960 . S
H1447 C1434 0.962 . S
H1448 C1434 0.960 . S
H1449 C1435 0.961 . S
H1450 C1435 0.961 . S
H1451 C1435 0.961 . S
H1452 C1436 0.931 . S
H1453 C1441 0.930 . S
H1454 C1442 0.956 . S
H1455 C1442 0.961 . S
H1456 C1442 0.961 . S
H1457 C1443 0.958 . S
H1458 C1443 0.961 . S
H1459 C1443 0.960 . S
C1460 C1461 1.391 . S
C1460 C1462 1.394 . S
C1460 H1476 0.931 . S
C1461 C1460 1.391 . S
C1461 C1465 1.376 . S
C1462 C1460 1.394 . S
C1462 C1463 1.369 . S
C1462 C1466 1.531 . S
C1463 C1462 1.369 . S
C1463 C1464 1.410 . S
C1463 C1471 1.503 . S
C1464 C1463 1.410 . S
C1464 C1465 1.392 . S
C1464 C1467 1.511 . S
C1465 C1461 1.376 . S
C1465 C1464 1.392 . S
C1465 H1477 0.929 . S
C1466 C1462 1.531 . S
C1466 H1478 0.960 . S
C1466 H1479 0.962 . S
C1466 H1480 0.960 . S
C1467 C1464 1.511 . S
C1467 H1481 0.961 . S
C1467 H1482 0.961 . S
C1467 H1483 0.961 . S
C1468 C1469 1.370 . S
C1468 C1470 1.363 . S
C1468 H1484 0.931 . S
C1469 C1468 1.370 . S
C1469 C1473 1.408 . S
C1470 C1468 1.363 . S
C1470 C1471 1.370 . S
C1470 C1474 1.524 . S
C1471 C1463 1.503 . S
C1471 C1470 1.370 . S
C1471 C1472 1.403 . S
C1472 C1471 1.403 . S
C1472 C1473 1.404 . S
C1472 C1475 1.539 . S
C1473 C1469 1.408 . S
C1473 C1472 1.404 . S
C1473 H1485 0.930 . S
C1474 C1470 1.524 . S
C1474 H1486 0.956 . S
C1474 H1487 0.961 . S
C1474 H1488 0.961 . S
C1475 C1472 1.539 . S
C1475 H1489 0.958 . S
C1475 H1490 0.961 . S
C1475 H1491 0.960 . S
H1476 C1460 0.931 . S
H1477 C1465 0.929 . S
H1478 C1466 0.960 . S
H1479 C1466 0.962 . S
H1480 C1466 0.960 . S
H1481 C1467 0.961 . S
H1482 C1467 0.961 . S
H1483 C1467 0.961 . S
H1484 C1468 0.931 . S
H1485 C1473 0.930 . S
H1486 C1474 0.956 . S
H1487 C1474 0.961 . S
H1488 C1474 0.961 . S
H1489 C1475 0.958 . S
H1490 C1475 0.961 . S
H1491 C1475 0.960 . S
C1492 C1493 1.391 . S
C1492 C1494 1.394 . S
C1492 H1508 0.931 . S
C1493 C1492 1.391 . S
C1493 C1497 1.376 . S
C1494 C1492 1.394 . S
C1494 C1495 1.369 . S
C1494 C1498 1.531 . S
C1495 C1494 1.369 . S
C1495 C1496 1.410 . S
C1495 C1503 1.503 . S
C1496 C1495 1.410 . S
C1496 C1497 1.392 . S
C1496 C1499 1.511 . S
C1497 C1493 1.376 . S
C1497 C1496 1.392 . S
C1497 H1509 0.929 . S
C1498 C1494 1.531 . S
C1498 H1510 0.960 . S
C1498 H1511 0.962 . S
C1498 H1512 0.960 . S
C1499 C1496 1.511 . S
C1499 H1513 0.961 . S
C1499 H1514 0.961 . S
C1499 H1515 0.961 . S
C1500 C1501 1.370 . S
C1500 C1502 1.363 . S
C1500 H1516 0.931 . S
C1501 C1500 1.370 . S
C1501 C1505 1.408 . S
C1502 C1500 1.363 . S
C1502 C1503 1.370 . S
C1502 C1506 1.524 . S
C1503 C1495 1.503 . S
C1503 C1502 1.370 . S
C1503 C1504 1.403 . S
C1504 C1503 1.403 . S
C1504 C1505 1.404 . S
C1504 C1507 1.539 . S
C1505 C1501 1.408 . S
C1505 C1504 1.404 . S
C1505 H1517 0.930 . S
C1506 C1502 1.524 . S
C1506 H1518 0.956 . S
C1506 H1519 0.961 . S
C1506 H1520 0.961 . S
C1507 C1504 1.539 . S
C1507 H1521 0.958 . S
C1507 H1522 0.961 . S
C1507 H1523 0.960 . S
H1508 C1492 0.931 . S
H1509 C1497 0.929 . S
H1510 C1498 0.960 . S
H1511 C1498 0.962 . S
H1512 C1498 0.960 . S
H1513 C1499 0.961 . S
H1514 C1499 0.961 . S
H1515 C1499 0.961 . S
H1516 C1500 0.931 . S
H1517 C1505 0.930 . S
H1518 C1506 0.956 . S
H1519 C1506 0.961 . S
H1520 C1506 0.961 . S
H1521 C1507 0.958 . S
H1522 C1507 0.961 . S
H1523 C1507 0.960 . S
C1524 C1525 1.391 . S
C1524 C1526 1.394 . S
C1524 H1540 0.931 . S
C1525 C1524 1.391 . S
C1525 C1529 1.376 . S
C1526 C1524 1.394 . S
C1526 C1527 1.369 . S
C1526 C1530 1.531 . S
C1527 C1526 1.369 . S
C1527 C1528 1.410 . S
C1527 C1535 1.503 . S
C1528 C1527 1.410 . S
C1528 C1529 1.392 . S
C1528 C1531 1.511 . S
C1529 C1525 1.376 . S
C1529 C1528 1.392 . S
C1529 H1541 0.929 . S
C1530 C1526 1.531 . S
C1530 H1542 0.960 . S
C1530 H1543 0.962 . S
C1530 H1544 0.960 . S
C1531 C1528 1.511 . S
C1531 H1545 0.961 . S
C1531 H1546 0.961 . S
C1531 H1547 0.961 . S
C1532 C1533 1.370 . S
C1532 C1534 1.363 . S
C1532 H1548 0.931 . S
C1533 C1532 1.370 . S
C1533 C1537 1.408 . S
C1534 C1532 1.363 . S
C1534 C1535 1.370 . S
C1534 C1538 1.524 . S
C1535 C1527 1.503 . S
C1535 C1534 1.370 . S
C1535 C1536 1.403 . S
C1536 C1535 1.403 . S
C1536 C1537 1.404 . S
C1536 C1539 1.539 . S
C1537 C1533 1.408 . S
C1537 C1536 1.404 . S
C1537 H1549 0.930 . S
C1538 C1534 1.524 . S
C1538 H1550 0.956 . S
C1538 H1551 0.961 . S
C1538 H1552 0.961 . S
C1539 C1536 1.539 . S
C1539 H1553 0.958 . S
C1539 H1554 0.961 . S
C1539 H1555 0.960 . S
H1540 C1524 0.931 . S
H1541 C1529 0.929 . S
H1542 C1530 0.960 . S
H1543 C1530 0.962 . S
H1544 C1530 0.960 . S
H1545 C1531 0.961 . S
H1546 C1531 0.961 . S
H1547 C1531 0.961 . S
H1548 C1532 0.931 . S
H1549 C1537 0.930 . S
H1550 C1538 0.956 . S
H1551 C1538 0.961 . S
H1552 C1538 0.961 . S
H1553 C1539 0.958 . S
H1554 C1539 0.961 . S
H1555 C1539 0.960 . S
C1556 C1557 1.391 . S
C1556 C1558 1.394 . S
C1556 H1572 0.931 . S
C1557 C1556 1.391 . S
C1557 C1561 1.376 . S
C1558 C1556 1.394 . S
C1558 C1559 1.369 . S
C1558 C1562 1.531 . S
C1559 C1558 1.369 . S
C1559 C1560 1.410 . S
C1559 C1567 1.503 . S
C1560 C1559 1.410 . S
C1560 C1561 1.392 . S
C1560 C1563 1.511 . S
C1561 C1557 1.376 . S
C1561 C1560 1.392 . S
C1561 H1573 0.929 . S
C1562 C1558 1.531 . S
C1562 H1574 0.960 . S
C1562 H1575 0.962 . S
C1562 H1576 0.960 . S
C1563 C1560 1.511 . S
C1563 H1577 0.961 . S
C1563 H1578 0.961 . S
C1563 H1579 0.961 . S
C1564 C1565 1.370 . S
C1564 C1566 1.363 . S
C1564 H1580 0.931 . S
C1565 C1564 1.370 . S
C1565 C1569 1.408 . S
C1566 C1564 1.363 . S
C1566 C1567 1.370 . S
C1566 C1570 1.524 . S
C1567 C1559 1.503 . S
C1567 C1566 1.370 . S
C1567 C1568 1.403 . S
C1568 C1567 1.403 . S
C1568 C1569 1.404 . S
C1568 C1571 1.539 . S
C1569 C1565 1.408 . S
C1569 C1568 1.404 . S
C1569 H1581 0.930 . S
C1570 C1566 1.524 . S
C1570 H1582 0.956 . S
C1570 H1583 0.961 . S
C1570 H1584 0.961 . S
C1571 C1568 1.539 . S
C1571 H1585 0.958 . S
C1571 H1586 0.961 . S
C1571 H1587 0.960 . S
H1572 C1556 0.931 . S
H1573 C1561 0.929 . S
H1574 C1562 0.960 . S
H1575 C1562 0.962 . S
H1576 C1562 0.960 . S
H1577 C1563 0.961 . S
H1578 C1563 0.961 . S
H1579 C1563 0.961 . S
H1580 C1564 0.931 . S
H1581 C1569 0.930 . S
H1582 C1570 0.956 . S
H1583 C1570 0.961 . S
H1584 C1570 0.961 . S
H1585 C1571 0.958 . S
H1586 C1571 0.961 . S
H1587 C1571 0.960 . S
C1588 C1589 1.391 . S
C1588 C1590 1.394 . S
C1588 H1604 0.931 . S
C1589 C1588 1.391 . S
C1589 C1593 1.376 . S
C1590 C1588 1.394 . S
C1590 C1591 1.369 . S
C1590 C1594 1.531 . S
C1591 C1590 1.369 . S
C1591 C1592 1.410 . S
C1591 C1599 1.503 . S
C1592 C1591 1.410 . S
C1592 C1593 1.392 . S
C1592 C1595 1.511 . S
C1593 C1589 1.376 . S
C1593 C1592 1.392 . S
C1593 H1605 0.929 . S
C1594 C1590 1.531 . S
C1594 H1606 0.960 . S
C1594 H1607 0.962 . S
C1594 H1608 0.960 . S
C1595 C1592 1.511 . S
C1595 H1609 0.961 . S
C1595 H1610 0.961 . S
C1595 H1611 0.961 . S
C1596 C1597 1.370 . S
C1596 C1598 1.363 . S
C1596 H1612 0.931 . S
C1597 C1596 1.370 . S
C1597 C1601 1.408 . S
C1598 C1596 1.363 . S
C1598 C1599 1.370 . S
C1598 C1602 1.524 . S
C1599 C1591 1.503 . S
C1599 C1598 1.370 . S
C1599 C1600 1.403 . S
C1600 C1599 1.403 . S
C1600 C1601 1.404 . S
C1600 C1603 1.539 . S
C1601 C1597 1.408 . S
C1601 C1600 1.404 . S
C1601 H1613 0.930 . S
C1602 C1598 1.524 . S
C1602 H1614 0.956 . S
C1602 H1615 0.961 . S
C1602 H1616 0.961 . S
C1603 C1600 1.539 . S
C1603 H1617 0.958 . S
C1603 H1618 0.961 . S
C1603 H1619 0.960 . S
H1604 C1588 0.931 . S
H1605 C1593 0.929 . S
H1606 C1594 0.960 . S
H1607 C1594 0.962 . S
H1608 C1594 0.960 . S
H1609 C1595 0.961 . S
H1610 C1595 0.961 . S
H1611 C1595 0.961 . S
H1612 C1596 0.931 . S
H1613 C1601 0.930 . S
H1614 C1602 0.956 . S
H1615 C1602 0.961 . S
H1616 C1602 0.961 . S
H1617 C1603 0.958 . S
H1618 C1603 0.961 . S
H1619 C1603 0.960 . S
C1620 C1621 1.391 . S
C1620 C1622 1.394 . S
C1620 H1636 0.931 . S
C1621 C1620 1.391 . S
C1621 C1625 1.376 . S
C1622 C1620 1.394 . S
C1622 C1623 1.369 . S
C1622 C1626 1.531 . S
C1623 C1622 1.369 . S
C1623 C1624 1.410 . S
C1623 C1631 1.503 . S
C1624 C1623 1.410 . S
C1624 C1625 1.392 . S
C1624 C1627 1.511 . S
C1625 C1621 1.376 . S
C1625 C1624 1.392 . S
C1625 H1637 0.929 . S
C1626 C1622 1.531 . S
C1626 H1638 0.960 . S
C1626 H1639 0.962 . S
C1626 H1640 0.960 . S
C1627 C1624 1.511 . S
C1627 H1641 0.961 . S
C1627 H1642 0.961 . S
C1627 H1643 0.961 . S
C1628 C1629 1.370 . S
C1628 C1630 1.363 . S
C1628 H1644 0.931 . S
C1629 C1628 1.370 . S
C1629 C1633 1.408 . S
C1630 C1628 1.363 . S
C1630 C1631 1.370 . S
C1630 C1634 1.524 . S
C1631 C1623 1.503 . S
C1631 C1630 1.370 . S
C1631 C1632 1.403 . S
C1632 C1631 1.403 . S
C1632 C1633 1.404 . S
C1632 C1635 1.539 . S
C1633 C1629 1.408 . S
C1633 C1632 1.404 . S
C1633 H1645 0.930 . S
C1634 C1630 1.524 . S
C1634 H1646 0.956 . S
C1634 H1647 0.961 . S
C1634 H1648 0.961 . S
C1635 C1632 1.539 . S
C1635 H1649 0.958 . S
C1635 H1650 0.961 . S
C1635 H1651 0.960 . S
H1636 C1620 0.931 . S
H1637 C1625 0.929 . S
H1638 C1626 0.960 . S
H1639 C1626 0.962 . S
H1640 C1626 0.960 . S
H1641 C1627 0.961 . S
H1642 C1627 0.961 . S
H1643 C1627 0.961 . S
H1644 C1628 0.931 . S
H1645 C1633 0.930 . S
H1646 C1634 0.956 . S
H1647 C1634 0.961 . S
H1648 C1634 0.961 . S
H1649 C1635 0.958 . S
H1650 C1635 0.961 . S
H1651 C1635 0.960 . S
C1652 C1653 1.391 . S
C1652 C1654 1.394 . S
C1652 H1668 0.931 . S
C1653 C1652 1.391 . S
C1653 C1657 1.376 . S
C1654 C1652 1.394 . S
C1654 C1655 1.369 . S
C1654 C1658 1.531 . S
C1655 C1654 1.369 . S
C1655 C1656 1.410 . S
C1655 C1663 1.503 . S
C1656 C1655 1.410 . S
C1656 C1657 1.392 . S
C1656 C1659 1.511 . S
C1657 C1653 1.376 . S
C1657 C1656 1.392 . S
C1657 H1669 0.929 . S
C1658 C1654 1.531 . S
C1658 H1670 0.960 . S
C1658 H1671 0.962 . S
C1658 H1672 0.960 . S
C1659 C1656 1.511 . S
C1659 H1673 0.961 . S
C1659 H1674 0.961 . S
C1659 H1675 0.961 . S
C1660 C1661 1.370 . S
C1660 C1662 1.363 . S
C1660 H1676 0.931 . S
C1661 C1660 1.370 . S
C1661 C1665 1.408 . S
C1662 C1660 1.363 . S
C1662 C1663 1.370 . S
C1662 C1666 1.524 . S
C1663 C1655 1.503 . S
C1663 C1662 1.370 . S
C1663 C1664 1.403 . S
C1664 C1663 1.403 . S
C1664 C1665 1.404 . S
C1664 C1667 1.539 . S
C1665 C1661 1.408 . S
C1665 C1664 1.404 . S
C1665 H1677 0.930 . S
C1666 C1662 1.524 . S
C1666 H1678 0.956 . S
C1666 H1679 0.961 . S
C1666 H1680 0.961 . S
C1667 C1664 1.539 . S
C1667 H1681 0.958 . S
C1667 H1682 0.961 . S
C1667 H1683 0.960 . S
H1668 C1652 0.931 . S
H1669 C1657 0.929 . S
H1670 C1658 0.960 . S
H1671 C1658 0.962 . S
H1672 C1658 0.960 . S
H1673 C1659 0.961 . S
H1674 C1659 0.961 . S
H1675 C1659 0.961 . S
H1676 C1660 0.931 . S
H1677 C1665 0.930 . S
H1678 C1666 0.956 . S
H1679 C1666 0.961 . S
H1680 C1666 0.961 . S
H1681 C1667 0.958 . S
H1682 C1667 0.961 . S
H1683 C1667 0.960 . S
C1684 C1685 1.391 . S
C1684 C1686 1.394 . S
C1684 H1700 0.931 . S
C1685 C1684 1.391 . S
C1685 C1689 1.376 . S
C1686 C1684 1.394 . S
C1686 C1687 1.369 . S
C1686 C1690 1.531 . S
C1687 C1686 1.369 . S
C1687 C1688 1.410 . S
C1687 C1695 1.503 . S
C1688 C1687 1.410 . S
C1688 C1689 1.392 . S
C1688 C1691 1.511 . S
C1689 C1685 1.376 . S
C1689 C1688 1.392 . S
C1689 H1701 0.929 . S
C1690 C1686 1.531 . S
C1690 H1702 0.960 . S
C1690 H1703 0.962 . S
C1690 H1704 0.960 . S
C1691 C1688 1.511 . S
C1691 H1705 0.961 . S
C1691 H1706 0.961 . S
C1691 H1707 0.961 . S
C1692 C1693 1.370 . S
C1692 C1694 1.363 . S
C1692 H1708 0.931 . S
C1693 C1692 1.370 . S
C1693 C1697 1.408 . S
C1694 C1692 1.363 . S
C1694 C1695 1.370 . S
C1694 C1698 1.524 . S
C1695 C1687 1.503 . S
C1695 C1694 1.370 . S
C1695 C1696 1.403 . S
C1696 C1695 1.403 . S
C1696 C1697 1.404 . S
C1696 C1699 1.539 . S
C1697 C1693 1.408 . S
C1697 C1696 1.404 . S
C1697 H1709 0.930 . S
C1698 C1694 1.524 . S
C1698 H1710 0.956 . S
C1698 H1711 0.961 . S
C1698 H1712 0.961 . S
C1699 C1696 1.539 . S
C1699 H1713 0.958 . S
C1699 H1714 0.961 . S
C1699 H1715 0.960 . S
H1700 C1684 0.931 . S
H1701 C1689 0.929 . S
H1702 C1690 0.960 . S
H1703 C1690 0.962 . S
H1704 C1690 0.960 . S
H1705 C1691 0.961 . S
H1706 C1691 0.961 . S
H1707 C1691 0.961 . S
H1708 C1692 0.931 . S
H1709 C1697 0.930 . S
H1710 C1698 0.956 . S
H1711 C1698 0.961 . S
H1712 C1698 0.961 . S
H1713 C1699 0.958 . S
H1714 C1699 0.961 . S
H1715 C1699 0.960 . S
C1716 C1717 1.391 . S
C1716 C1718 1.394 . S
C1716 H1732 0.931 . S
C1717 C1716 1.391 . S
C1717 C1721 1.376 . S
C1718 C1716 1.394 . S
C1718 C1719 1.369 . S
C1718 C1722 1.531 . S
C1719 C1718 1.369 . S
C1719 C1720 1.410 . S
C1719 C1727 1.503 . S
C1720 C1719 1.410 . S
C1720 C1721 1.392 . S
C1720 C1723 1.511 . S
C1721 C1717 1.376 . S
C1721 C1720 1.392 . S
C1721 H1733 0.929 . S
C1722 C1718 1.531 . S
C1722 H1734 0.960 . S
C1722 H1735 0.962 . S
C1722 H1736 0.960 . S
C1723 C1720 1.511 . S
C1723 H1737 0.961 . S
C1723 H1738 0.961 . S
C1723 H1739 0.961 . S
C1724 C1725 1.370 . S
C1724 C1726 1.363 . S
C1724 H1740 0.931 . S
C1725 C1724 1.370 . S
C1725 C1729 1.408 . S
C1726 C1724 1.363 . S
C1726 C1727 1.370 . S
C1726 C1730 1.524 . S
C1727 C1719 1.503 . S
C1727 C1726 1.370 . S
C1727 C1728 1.403 . S
C1728 C1727 1.403 . S
C1728 C1729 1.404 . S
C1728 C1731 1.539 . S
C1729 C1725 1.408 . S
C1729 C1728 1.404 . S
C1729 H1741 0.930 . S
C1730 C1726 1.524 . S
C1730 H1742 0.956 . S
C1730 H1743 0.961 . S
C1730 H1744 0.961 . S
C1731 C1728 1.539 . S
C1731 H1745 0.958 . S
C1731 H1746 0.961 . S
C1731 H1747 0.960 . S
H1732 C1716 0.931 . S
H1733 C1721 0.929 . S
H1734 C1722 0.960 . S
H1735 C1722 0.962 . S
H1736 C1722 0.960 . S
H1737 C1723 0.961 . S
H1738 C1723 0.961 . S
H1739 C1723 0.961 . S
H1740 C1724 0.931 . S
H1741 C1729 0.930 . S
H1742 C1730 0.956 . S
H1743 C1730 0.961 . S
H1744 C1730 0.961 . S
H1745 C1731 0.958 . S
H1746 C1731 0.961 . S
H1747 C1731 0.960 . S
C1748 C1749 1.391 . S
C1748 C1750 1.394 . S
C1748 H1764 0.931 . S
C1749 C1748 1.391 . S
C1749 C1753 1.376 . S
C1750 C1748 1.394 . S
C1750 C1751 1.369 . S
C1750 C1754 1.531 . S
C1751 C1750 1.369 . S
C1751 C1752 1.410 . S
C1751 C1759 1.503 . S
C1752 C1751 1.410 . S
C1752 C1753 1.392 . S
C1752 C1755 1.511 . S
C1753 C1749 1.376 . S
C1753 C1752 1.392 . S
C1753 H1765 0.929 . S
C1754 C1750 1.531 . S
C1754 H1766 0.960 . S
C1754 H1767 0.962 . S
C1754 H1768 0.960 . S
C1755 C1752 1.511 . S
C1755 H1769 0.961 . S
C1755 H1770 0.961 . S
C1755 H1771 0.961 . S
C1756 C1757 1.370 . S
C1756 C1758 1.363 . S
C1756 H1772 0.931 . S
C1757 C1756 1.370 . S
C1757 C1761 1.408 . S
C1758 C1756 1.363 . S
C1758 C1759 1.370 . S
C1758 C1762 1.524 . S
C1759 C1751 1.503 . S
C1759 C1758 1.370 . S
C1759 C1760 1.403 . S
C1760 C1759 1.403 . S
C1760 C1761 1.404 . S
C1760 C1763 1.539 . S
C1761 C1757 1.408 . S
C1761 C1760 1.404 . S
C1761 H1773 0.930 . S
C1762 C1758 1.524 . S
C1762 H1774 0.956 . S
C1762 H1775 0.961 . S
C1762 H1776 0.961 . S
C1763 C1760 1.539 . S
C1763 H1777 0.958 . S
C1763 H1778 0.961 . S
C1763 H1779 0.960 . S
H1764 C1748 0.931 . S
H1765 C1753 0.929 . S
H1766 C1754 0.960 . S
H1767 C1754 0.962 . S
H1768 C1754 0.960 . S
H1769 C1755 0.961 . S
H1770 C1755 0.961 . S
H1771 C1755 0.961 . S
H1772 C1756 0.931 . S
H1773 C1761 0.930 . S
H1774 C1762 0.956 . S
H1775 C1762 0.961 . S
H1776 C1762 0.961 . S
H1777 C1763 0.958 . S
H1778 C1763 0.961 . S
H1779 C1763 0.960 . S
C1780 C1781 1.391 . S
C1780 C1782 1.394 . S
C1780 H1796 0.931 . S
C1781 C1780 1.391 . S
C1781 C1785 1.376 . S
C1782 C1780 1.394 . S
C1782 C1783 1.369 . S
C1782 C1786 1.531 . S
C1783 C1782 1.369 . S
C1783 C1784 1.410 . S
C1783 C1791 1.503 . S
C1784 C1783 1.410 . S
C1784 C1785 1.392 . S
C1784 C1787 1.511 . S
C1785 C1781 1.376 . S
C1785 C1784 1.392 . S
C1785 H1797 0.929 . S
C1786 C1782 1.531 . S
C1786 H1798 0.960 . S
C1786 H1799 0.962 . S
C1786 H1800 0.960 . S
C1787 C1784 1.511 . S
C1787 H1801 0.961 . S
C1787 H1802 0.961 . S
C1787 H1803 0.961 . S
C1788 C1789 1.370 . S
C1788 C1790 1.363 . S
C1788 H1804 0.931 . S
C1789 C1788 1.370 . S
C1789 C1793 1.408 . S
C1790 C1788 1.363 . S
C1790 C1791 1.370 . S
C1790 C1794 1.524 . S
C1791 C1783 1.503 . S
C1791 C1790 1.370 . S
C1791 C1792 1.403 . S
C1792 C1791 1.403 . S
C1792 C1793 1.404 . S
C1792 C1795 1.539 . S
C1793 C1789 1.408 . S
C1793 C1792 1.404 . S
C1793 H1805 0.930 . S
C1794 C1790 1.524 . S
C1794 H1806 0.956 . S
C1794 H1807 0.961 . S
C1794 H1808 0.961 . S
C1795 C1792 1.539 . S
C1795 H1809 0.958 . S
C1795 H1810 0.961 . S
C1795 H1811 0.960 . S
H1796 C1780 0.931 . S
H1797 C1785 0.929 . S
H1798 C1786 0.960 . S
H1799 C1786 0.962 . S
H1800 C1786 0.960 . S
H1801 C1787 0.961 . S
H1802 C1787 0.961 . S
H1803 C1787 0.961 . S
H1804 C1788 0.931 . S
H1805 C1793 0.930 . S
H1806 C1794 0.956 . S
H1807 C1794 0.961 . S
H1808 C1794 0.961 . S
H1809 C1795 0.958 . S
H1810 C1795 0.961 . S
H1811 C1795 0.960 . S
C1812 C1813 1.391 . S
C1812 C1814 1.394 . S
C1812 H1828 0.931 . S
C1813 C1812 1.391 . S
C1813 C1817 1.376 . S
C1814 C1812 1.394 . S
C1814 C1815 1.369 . S
C1814 C1818 1.531 . S
C1815 C1814 1.369 . S
C1815 C1816 1.410 . S
C1815 C1823 1.503 . S
C1816 C1815 1.410 . S
C1816 C1817 1.392 . S
C1816 C1819 1.511 . S
C1817 C1813 1.376 . S
C1817 C1816 1.392 . S
C1817 H1829 0.929 . S
C1818 C1814 1.531 . S
C1818 H1830 0.960 . S
C1818 H1831 0.962 . S
C1818 H1832 0.960 . S
C1819 C1816 1.511 . S
C1819 H1833 0.961 . S
C1819 H1834 0.961 . S
C1819 H1835 0.961 . S
C1820 C1821 1.370 . S
C1820 C1822 1.363 . S
C1820 H1836 0.931 . S
C1821 C1820 1.370 . S
C1821 C1825 1.408 . S
C1822 C1820 1.363 . S
C1822 C1823 1.370 . S
C1822 C1826 1.524 . S
C1823 C1815 1.503 . S
C1823 C1822 1.370 . S
C1823 C1824 1.403 . S
C1824 C1823 1.403 . S
C1824 C1825 1.404 . S
C1824 C1827 1.539 . S
C1825 C1821 1.408 . S
C1825 C1824 1.404 . S
C1825 H1837 0.930 . S
C1826 C1822 1.524 . S
C1826 H1838 0.956 . S
C1826 H1839 0.961 . S
C1826 H1840 0.961 . S
C1827 C1824 1.539 . S
C1827 H1841 0.958 . S
C1827 H1842 0.961 . S
C1827 H1843 0.960 . S
H1828 C1812 0.931 . S
H1829 C1817 0.929 . S
H1830 C1818 0.960 . S
H1831 C1818 0.962 . S
H1832 C1818 0.960 . S
H1833 C1819 0.961 . S
H1834 C1819 0.961 . S
H1835 C1819 0.961 . S
H1836 C1820 0.931 . S
H1837 C1825 0.930 . S
H1838 C1826 0.956 . S
H1839 C1826 0.961 . S
H1840 C1826 0.961 . S
H1841 C1827 0.958 . S
H1842 C1827 0.961 . S
H1843 C1827 0.960 . S
C1844 C1845 1.391 . S
C1844 C1846 1.394 . S
C1844 H1860 0.931 . S
C1845 C1844 1.391 . S
C1845 C1849 1.376 . S
C1846 C1844 1.394 . S
C1846 C1847 1.369 . S
C1846 C1850 1.531 . S
C1847 C1846 1.369 . S
C1847 C1848 1.410 . S
C1847 C1855 1.503 . S
C1848 C1847 1.410 . S
C1848 C1849 1.392 . S
C1848 C1851 1.511 . S
C1849 C1845 1.376 . S
C1849 C1848 1.392 . S
C1849 H1861 0.929 . S
C1850 C1846 1.531 . S
C1850 H1862 0.960 . S
C1850 H1863 0.962 . S
C1850 H1864 0.960 . S
C1851 C1848 1.511 . S
C1851 H1865 0.961 . S
C1851 H1866 0.961 . S
C1851 H1867 0.961 . S
C1852 C1853 1.370 . S
C1852 C1854 1.363 . S
C1852 H1868 0.931 . S
C1853 C1852 1.370 . S
C1853 C1857 1.408 . S
C1854 C1852 1.363 . S
C1854 C1855 1.370 . S
C1854 C1858 1.524 . S
C1855 C1847 1.503 . S
C1855 C1854 1.370 . S
C1855 C1856 1.403 . S
C1856 C1855 1.403 . S
C1856 C1857 1.404 . S
C1856 C1859 1.539 . S
C1857 C1853 1.408 . S
C1857 C1856 1.404 . S
C1857 H1869 0.930 . S
C1858 C1854 1.524 . S
C1858 H1870 0.956 . S
C1858 H1871 0.961 . S
C1858 H1872 0.961 . S
C1859 C1856 1.539 . S
C1859 H1873 0.958 . S
C1859 H1874 0.961 . S
C1859 H1875 0.960 . S
H1860 C1844 0.931 . S
H1861 C1849 0.929 . S
H1862 C1850 0.960 . S
H1863 C1850 0.962 . S
H1864 C1850 0.960 . S
H1865 C1851 0.961 . S
H1866 C1851 0.961 . S
H1867 C1851 0.961 . S
H1868 C1852 0.931 . S
H1869 C1857 0.930 . S
H1870 C1858 0.956 . S
H1871 C1858 0.961 . S
H1872 C1858 0.961 . S
H1873 C1859 0.958 . S
H1874 C1859 0.961 . S
H1875 C1859 0.960 . S
C1876 C1877 1.391 . S
C1876 C1878 1.394 . S
C1876 H1892 0.931 . S
C1877 C1876 1.391 . S
C1877 C1881 1.376 . S
C1878 C1876 1.394 . S
C1878 C1879 1.369 . S
C1878 C1882 1.531 . S
C1879 C1878 1.369 . S
C1879 C1880 1.410 . S
C1879 C1887 1.503 . S
C1880 C1879 1.410 . S
C1880 C1881 1.392 . S
C1880 C1883 1.511 . S
C1881 C1877 1.376 . S
C1881 C1880 1.392 . S
C1881 H1893 0.929 . S
C1882 C1878 1.531 . S
C1882 H1894 0.960 . S
C1882 H1895 0.962 . S
C1882 H1896 0.960 . S
C1883 C1880 1.511 . S
C1883 H1897 0.961 . S
C1883 H1898 0.961 . S
C1883 H1899 0.961 . S
C1884 C1885 1.370 . S
C1884 C1886 1.363 . S
C1884 H1900 0.931 . S
C1885 C1884 1.370 . S
C1885 C1889 1.408 . S
C1886 C1884 1.363 . S
C1886 C1887 1.370 . S
C1886 C1890 1.524 . S
C1887 C1879 1.503 . S
C1887 C1886 1.370 . S
C1887 C1888 1.403 . S
C1888 C1887 1.403 . S
C1888 C1889 1.404 . S
C1888 C1891 1.539 . S
C1889 C1885 1.408 . S
C1889 C1888 1.404 . S
C1889 H1901 0.930 . S
C1890 C1886 1.524 . S
C1890 H1902 0.956 . S
C1890 H1903 0.961 . S
C1890 H1904 0.961 . S
C1891 C1888 1.539 . S
C1891 H1905 0.958 . S
C1891 H1906 0.961 . S
C1891 H1907 0.960 . S
H1892 C1876 0.931 . S
H1893 C1881 0.929 . S
H1894 C1882 0.960 . S
H1895 C1882 0.962 . S
H1896 C1882 0.960 . S
H1897 C1883 0.961 . S
H1898 C1883 0.961 . S
H1899 C1883 0.961 . S
H1900 C1884 0.931 . S
H1901 C1889 0.930 . S
H1902 C1890 0.956 . S
H1903 C1890 0.961 . S
H1904 C1890 0.961 . S
H1905 C1891 0.958 . S
H1906 C1891 0.961 . S
H1907 C1891 0.960 . S
C1908 C1909 1.391 . S
C1908 C1910 1.394 . S
C1908 H1924 0.931 . S
C1909 C1908 1.391 . S
C1909 C1913 1.376 . S
C1910 C1908 1.394 . S
C1910 C1911 1.369 . S
C1910 C1914 1.531 . S
C1911 C1910 1.369 . S
C1911 C1912 1.410 . S
C1911 C1919 1.503 . S
C1912 C1911 1.410 . S
C1912 C1913 1.392 . S
C1912 C1915 1.511 . S
C1913 C1909 1.376 . S
C1913 C1912 1.392 . S
C1913 H1925 0.929 . S
C1914 C1910 1.531 . S
C1914 H1926 0.960 . S
C1914 H1927 0.962 . S
C1914 H1928 0.960 . S
C1915 C1912 1.511 . S
C1915 H1929 0.961 . S
C1915 H1930 0.961 . S
C1915 H1931 0.961 . S
C1916 C1917 1.370 . S
C1916 C1918 1.363 . S
C1916 H1932 0.931 . S
C1917 C1916 1.370 . S
C1917 C1921 1.408 . S
C1918 C1916 1.363 . S
C1918 C1919 1.370 . S
C1918 C1922 1.524 . S
C1919 C1911 1.503 . S
C1919 C1918 1.370 . S
C1919 C1920 1.403 . S
C1920 C1919 1.403 . S
C1920 C1921 1.404 . S
C1920 C1923 1.539 . S
C1921 C1917 1.408 . S
C1921 C1920 1.404 . S
C1921 H1933 0.930 . S
C1922 C1918 1.524 . S
C1922 H1934 0.956 . S
C1922 H1935 0.961 . S
C1922 H1936 0.961 . S
C1923 C1920 1.539 . S
C1923 H1937 0.958 . S
C1923 H1938 0.961 . S
C1923 H1939 0.960 . S
H1924 C1908 0.931 . S
H1925 C1913 0.929 . S
H1926 C1914 0.960 . S
H1927 C1914 0.962 . S
H1928 C1914 0.960 . S
H1929 C1915 0.961 . S
H1930 C1915 0.961 . S
H1931 C1915 0.961 . S
H1932 C1916 0.931 . S
H1933 C1921 0.930 . S
H1934 C1922 0.956 . S
H1935 C1922 0.961 . S
H1936 C1922 0.961 . S
H1937 C1923 0.958 . S
H1938 C1923 0.961 . S
H1939 C1923 0.960 . S
C1940 C1941 1.391 . S
C1940 C1942 1.394 . S
C1940 H1956 0.931 . S
C1941 C1940 1.391 . S
C1941 C1945 1.376 . S
C1942 C1940 1.394 . S
C1942 C1943 1.369 . S
C1942 C1946 1.531 . S
C1943 C1942 1.369 . S
C1943 C1944 1.410 . S
C1943 C1951 1.503 . S
C1944 C1943 1.410 . S
C1944 C1945 1.392 . S
C1944 C1947 1.511 . S
C1945 C1941 1.376 . S
C1945 C1944 1.392 . S
C1945 H1957 0.929 . S
C1946 C1942 1.531 . S
C1946 H1958 0.960 . S
C1946 H1959 0.962 . S
C1946 H1960 0.960 . S
C1947 C1944 1.511 . S
C1947 H1961 0.961 . S
C1947 H1962 0.961 . S
C1947 H1963 0.961 . S
C1948 C1949 1.370 . S
C1948 C1950 1.363 . S
C1948 H1964 0.931 . S
C1949 C1948 1.370 . S
C1949 C1953 1.408 . S
C1950 C1948 1.363 . S
C1950 C1951 1.370 . S
C1950 C1954 1.524 . S
C1951 C1943 1.503 . S
C1951 C1950 1.370 . S
C1951 C1952 1.403 . S
C1952 C1951 1.403 . S
C1952 C1953 1.404 . S
C1952 C1955 1.539 . S
C1953 C1949 1.408 . S
C1953 C1952 1.404 . S
C1953 H1965 0.930 . S
C1954 C1950 1.524 . S
C1954 H1966 0.956 . S
C1954 H1967 0.961 . S
C1954 H1968 0.961 . S
C1955 C1952 1.539 . S
C1955 H1969 0.958 . S
C1955 H1970 0.961 . S
C1955 H1971 0.960 . S
H1956 C1940 0.931 . S
H1957 C1945 0.929 . S
H1958 C1946 0.960 . S
H1959 C1946 0.962 . S
H1960 C1946 0.960 . S
H1961 C1947 0.961 . S
H1962 C1947 0.961 . S
H1963 C1947 0.961 . S
H1964 C1948 0.931 . S
H1965 C1953 0.930 . S
H1966 C1954 0.956 . S
H1967 C1954 0.961 . S
H1968 C1954 0.961 . S
H1969 C1955 0.958 . S
H1970 C1955 0.961 . S
H1971 C1955 0.960 . S
C1972 C1973 1.391 . S
C1972 C1974 1.394 . S
C1972 H1988 0.931 . S
C1973 C1972 1.391 . S
C1973 C1977 1.376 . S
C1974 C1972 1.394 . S
C1974 C1975 1.369 . S
C1974 C1978 1.531 . S
C1975 C1974 1.369 . S
C1975 C1976 1.410 . S
C1975 C1983 1.503 . S
C1976 C1975 1.410 . S
C1976 C1977 1.392 . S
C1976 C1979 1.511 . S
C1977 C1973 1.376 . S
C1977 C1976 1.392 . S
C1977 H1989 0.929 . S
C1978 C1974 1.531 . S
C1978 H1990 0.960 . S
C1978 H1991 0.962 . S
C1978 H1992 0.960 . S
C1979 C1976 1.511 . S
C1979 H1993 0.961 . S
C1979 H1994 0.961 . S
C1979 H1995 0.961 . S
C1980 C1981 1.370 . S
C1980 C1982 1.363 . S
C1980 H1996 0.931 . S
C1981 C1980 1.370 . S
C1981 C1985 1.408 . S
C1982 C1980 1.363 . S
C1982 C1983 1.370 . S
C1982 C1986 1.524 . S
C1983 C1975 1.503 . S
C1983 C1982 1.370 . S
C1983 C1984 1.403 . S
C1984 C1983 1.403 . S
C1984 C1985 1.404 . S
C1984 C1987 1.539 . S
C1985 C1981 1.408 . S
C1985 C1984 1.404 . S
C1985 H1997 0.930 . S
C1986 C1982 1.524 . S
C1986 H1998 0.956 . S
C1986 H1999 0.961 . S
C1986 H2000 0.961 . S
C1987 C1984 1.539 . S
C1987 H2001 0.958 . S
C1987 H2002 0.961 . S
C1987 H2003 0.960 . S
H1988 C1972 0.931 . S
H1989 C1977 0.929 . S
H1990 C1978 0.960 . S
H1991 C1978 0.962 . S
H1992 C1978 0.960 . S
H1993 C1979 0.961 . S
H1994 C1979 0.961 . S
H1995 C1979 0.961 . S
H1996 C1980 0.931 . S
H1997 C1985 0.930 . S
H1998 C1986 0.956 . S
H1999 C1986 0.961 . S
H2000 C1986 0.961 . S
H2001 C1987 0.958 . S
H2002 C1987 0.961 . S
H2003 C1987 0.960 . S
C2004 C2005 1.391 . S
C2004 C2006 1.394 . S
C2004 H2020 0.931 . S
C2005 C2004 1.391 . S
C2005 C2009 1.376 . S
C2006 C2004 1.394 . S
C2006 C2007 1.369 . S
C2006 C2010 1.531 . S
C2007 C2006 1.369 . S
C2007 C2008 1.410 . S
C2007 C2015 1.503 . S
C2008 C2007 1.410 . S
C2008 C2009 1.392 . S
C2008 C2011 1.511 . S
C2009 C2005 1.376 . S
C2009 C2008 1.392 . S
C2009 H2021 0.929 . S
C2010 C2006 1.531 . S
C2010 H2022 0.960 . S
C2010 H2023 0.962 . S
C2010 H2024 0.960 . S
C2011 C2008 1.511 . S
C2011 H2025 0.961 . S
C2011 H2026 0.961 . S
C2011 H2027 0.961 . S
C2012 C2013 1.370 . S
C2012 C2014 1.363 . S
C2012 H2028 0.931 . S
C2013 C2012 1.370 . S
C2013 C2017 1.408 . S
C2014 C2012 1.363 . S
C2014 C2015 1.370 . S
C2014 C2018 1.524 . S
C2015 C2007 1.503 . S
C2015 C2014 1.370 . S
C2015 C2016 1.403 . S
C2016 C2015 1.403 . S
C2016 C2017 1.404 . S
C2016 C2019 1.539 . S
C2017 C2013 1.408 . S
C2017 C2016 1.404 . S
C2017 H2029 0.930 . S
C2018 C2014 1.524 . S
C2018 H2030 0.956 . S
C2018 H2031 0.961 . S
C2018 H2032 0.961 . S
C2019 C2016 1.539 . S
C2019 H2033 0.958 . S
C2019 H2034 0.961 . S
C2019 H2035 0.960 . S
H2020 C2004 0.931 . S
H2021 C2009 0.929 . S
H2022 C2010 0.960 . S
H2023 C2010 0.962 . S
H2024 C2010 0.960 . S
H2025 C2011 0.961 . S
H2026 C2011 0.961 . S
H2027 C2011 0.961 . S
H2028 C2012 0.931 . S
H2029 C2017 0.930 . S
H2030 C2018 0.956 . S
H2031 C2018 0.961 . S
H2032 C2018 0.961 . S
H2033 C2019 0.958 . S
H2034 C2019 0.961 . S
H2035 C2019 0.960 . S
C2036 C2037 1.391 . S
C2036 C2038 1.394 . S
C2036 H2052 0.931 . S
C2037 C2036 1.391 . S
C2037 C2041 1.376 . S
C2038 C2036 1.394 . S
C2038 C2039 1.369 . S
C2038 C2042 1.531 . S
C2039 C2038 1.369 . S
C2039 C2040 1.410 . S
C2039 C2047 1.503 . S
C2040 C2039 1.410 . S
C2040 C2041 1.392 . S
C2040 C2043 1.511 . S
C2041 C2037 1.376 . S
C2041 C2040 1.392 . S
C2041 H2053 0.929 . S
C2042 C2038 1.531 . S
C2042 H2054 0.960 . S
C2042 H2055 0.962 . S
C2042 H2056 0.960 . S
C2043 C2040 1.511 . S
C2043 H2057 0.961 . S
C2043 H2058 0.961 . S
C2043 H2059 0.961 . S
C2044 C2045 1.370 . S
C2044 C2046 1.363 . S
C2044 H2060 0.931 . S
C2045 C2044 1.370 . S
C2045 C2049 1.408 . S
C2046 C2044 1.363 . S
C2046 C2047 1.370 . S
C2046 C2050 1.524 . S
C2047 C2039 1.503 . S
C2047 C2046 1.370 . S
C2047 C2048 1.403 . S
C2048 C2047 1.403 . S
C2048 C2049 1.404 . S
C2048 C2051 1.539 . S
C2049 C2045 1.408 . S
C2049 C2048 1.404 . S
C2049 H2061 0.930 . S
C2050 C2046 1.524 . S
C2050 H2062 0.956 . S
C2050 H2063 0.961 . S
C2050 H2064 0.961 . S
C2051 C2048 1.539 . S
C2051 H2065 0.958 . S
C2051 H2066 0.961 . S
C2051 H2067 0.960 . S
H2052 C2036 0.931 . S
H2053 C2041 0.929 . S
H2054 C2042 0.960 . S
H2055 C2042 0.962 . S
H2056 C2042 0.960 . S
H2057 C2043 0.961 . S
H2058 C2043 0.961 . S
H2059 C2043 0.961 . S
H2060 C2044 0.931 . S
H2061 C2049 0.930 . S
H2062 C2050 0.956 . S
H2063 C2050 0.961 . S
H2064 C2050 0.961 . S
H2065 C2051 0.958 . S
H2066 C2051 0.961 . S
H2067 C2051 0.960 . S
C2068 C2069 1.391 . S
C2068 C2070 1.394 . S
C2068 H2084 0.931 . S
C2069 C2068 1.391 . S
C2069 C2073 1.376 . S
C2070 C2068 1.394 . S
C2070 C2071 1.369 . S
C2070 C2074 1.531 . S
C2071 C2070 1.369 . S
C2071 C2072 1.410 . S
C2071 C2079 1.503 . S
C2072 C2071 1.410 . S
C2072 C2073 1.392 . S
C2072 C2075 1.511 . S
C2073 C2069 1.376 . S
C2073 C2072 1.392 . S
C2073 H2085 0.929 . S
C2074 C2070 1.531 . S
C2074 H2086 0.960 . S
C2074 H2087 0.962 . S
C2074 H2088 0.960 . S
C2075 C2072 1.511 . S
C2075 H2089 0.961 . S
C2075 H2090 0.961 . S
C2075 H2091 0.961 . S
C2076 C2077 1.370 . S
C2076 C2078 1.363 . S
C2076 H2092 0.931 . S
C2077 C2076 1.370 . S
C2077 C2081 1.408 . S
C2078 C2076 1.363 . S
C2078 C2079 1.370 . S
C2078 C2082 1.524 . S
C2079 C2071 1.503 . S
C2079 C2078 1.370 . S
C2079 C2080 1.403 . S
C2080 C2079 1.403 . S
C2080 C2081 1.404 . S
C2080 C2083 1.539 . S
C2081 C2077 1.408 . S
C2081 C2080 1.404 . S
C2081 H2093 0.930 . S
C2082 C2078 1.524 . S
C2082 H2094 0.956 . S
C2082 H2095 0.961 . S
C2082 H2096 0.961 . S
C2083 C2080 1.539 . S
C2083 H2097 0.958 . S
C2083 H2098 0.961 . S
C2083 H2099 0.960 . S
H2084 C2068 0.931 . S
H2085 C2073 0.929 . S
H2086 C2074 0.960 . S
H2087 C2074 0.962 . S
H2088 C2074 0.960 . S
H2089 C2075 0.961 . S
H2090 C2075 0.961 . S
H2091 C2075 0.961 . S
H2092 C2076 0.931 . S
H2093 C2081 0.930 . S
H2094 C2082 0.956 . S
H2095 C2082 0.961 . S
H2096 C2082 0.961 . S
H2097 C2083 0.958 . S
H2098 C2083 0.961 . S
H2099 C2083 0.960 . S
C2100 C2101 1.391 . S
C2100 C2102 1.394 . S
C2100 H2116 0.931 . S
C2101 C2100 1.391 . S
C2101 C2105 1.376 . S
C2102 C2100 1.394 . S
C2102 C2103 1.369 . S
C2102 C2106 1.531 . S
C2103 C2102 1.369 . S
C2103 C2104 1.410 . S
C2103 C2111 1.503 . S
C2104 C2103 1.410 . S
C2104 C2105 1.392 . S
C2104 C2107 1.511 . S
C2105 C2101 1.376 . S
C2105 C2104 1.392 . S
C2105 H2117 0.929 . S
C2106 C2102 1.531 . S
C2106 H2118 0.960 . S
C2106 H2119 0.962 . S
C2106 H2120 0.960 . S
C2107 C2104 1.511 . S
C2107 H2121 0.961 . S
C2107 H2122 0.961 . S
C2107 H2123 0.961 . S
C2108 C2109 1.370 . S
C2108 C2110 1.363 . S
C2108 H2124 0.931 . S
C2109 C2108 1.370 . S
C2109 C2113 1.408 . S
C2110 C2108 1.363 . S
C2110 C2111 1.370 . S
C2110 C2114 1.524 . S
C2111 C2103 1.503 . S
C2111 C2110 1.370 . S
C2111 C2112 1.403 . S
C2112 C2111 1.403 . S
C2112 C2113 1.404 . S
C2112 C2115 1.539 . S
C2113 C2109 1.408 . S
C2113 C2112 1.404 . S
C2113 H2125 0.930 . S
C2114 C2110 1.524 . S
C2114 H2126 0.956 . S
C2114 H2127 0.961 . S
C2114 H2128 0.961 . S
C2115 C2112 1.539 . S
C2115 H2129 0.958 . S
C2115 H2130 0.961 . S
C2115 H2131 0.960 . S
H2116 C2100 0.931 . S
H2117 C2105 0.929 . S
H2118 C2106 0.960 . S
H2119 C2106 0.962 . S
H2120 C2106 0.960 . S
H2121 C2107 0.961 . S
H2122 C2107 0.961 . S
H2123 C2107 0.961 . S
H2124 C2108 0.931 . S
H2125 C2113 0.930 . S
H2126 C2114 0.956 . S
H2127 C2114 0.961 . S
H2128 C2114 0.961 . S
H2129 C2115 0.958 . S
H2130 C2115 0.961 . S
H2131 C2115 0.960 . S
C605 C283 1.346 . S
C597 N2 1.333 . S
C637 C326 2.624 . S
C629 C7 2.648 . S
C669 C372 1.727 . S
C661 N12 1.648 . S
C693 C16 1.829 . S
C701 C415 1.904 . S
C733 C455 2.733 . S
C725 C30 2.723 1_565 S
C765 C483 1.490 . S
C757 N35 1.493 . S
C789 C39 2.041 . S
C797 C526 2.033 . S
C829 C572 1.215 . S
C821 N25 1.126 1_565 S
C861 C278 1.212 . S
C853 N58 1.191 . S
C885 N81 1.967 . S
C893 C327 1.948 . S
C925 C366 1.427 . S
C917 N104 1.421 . S
C949 N127 1.217 . S
C957 C403 1.218 . S
C989 C443 0.873 . S
C981 N48 0.918 . S
C1021 C478 1.546 . S
C1013 N71 1.478 1_556 S
C1045 N94 1.350 . S
C1053 C527 1.320 . S
C1085 C566 1.909 . S
C1077 N117 1.924 . S
C1109 C85 2.525 . S
C1117 C295 2.449 . S
C1141 C122 2.440 . S
C1149 C438 2.414 . S
C1173 C53 2.081 . S
C1181 C495 2.038 . S
C1213 C532 1.404 . S
C1205 C76 1.417 1_655 S
C1245 C567 1.849 . S
C1237 C99 1.856 . S
C1277 C367 1.969 . S
C1269 C131 1.987 . S
C1309 C398 1.722 . S
C1301 C62 1.738 1_565 S
C1333 C108 1.141 . S
C1341 C332 1.135 . S
C1373 C563 1.399 . S
C1365 N140 1.395 . S
C1397 C145 2.632 . S
C1405 C446 2.622 . S
C1437 C492 1.614 . S
C1429 N150 1.487 . S
C1461 C154 1.884 . S
C1469 C535 1.902 . S
C1501 C335 2.730 . S
C1493 C168 2.738 . S
C1525 N173 1.372 . S
C1533 C363 1.366 . S
C1565 C406 2.038 . S
C1557 C177 2.046 . S
C1597 C292 1.265 . S
C1589 N163 1.173 . S
C1629 C558 1.675 . S
C1621 C200 1.670 . S
C1661 C447 2.221 . S
C1653 N219 2.256 . S
C1685 N242 1.664 . S
C1693 C486 1.678 . S
C1725 C523 1.434 . S
C1717 C269 1.483 . S
C1757 C323 1.155 . S
C1749 C191 1.195 . S
C1781 N209 1.756 . S
C1789 C358 1.782 . S
C1813 N232 1.622 . S
C1821 C407 1.596 . S
C1845 C260 2.470 . S
C1853 C286 2.422 . S
C1877 C223 2.234 . S
C1885 C575 2.153 . S
C1909 N255 1.982 . S
C1917 C318 1.994 . S
C1941 N186 1.562 . S
C1949 C375 1.578 . S
C1981 C412 1.115 . S
C1973 C214 1.125 . S
C2013 C287 1.527 . S
C2005 C237 1.545 . S
C2045 C487 1.574 . S
C2037 N265 1.450 . S
C2077 C518 1.344 . S
C2069 N196 1.352 . S
C2109 C452 0.845 . S
C2101 C246 0.846 . S
