# Generated by pormake.
# Topology nia, (6,6)-cn, num edge types: 1
# Building blocks:
#     Node 0, Type 0, BuildingBlock: KUMJIN_clean_sbu_0, # of connection points: 6
#     Node 1, Type 0, BuildingBlock: KUMJIN_clean_sbu_0, # of connection points: 6
#     Node 2, Type 1, BuildingBlock: MIDCAF_clean_sbu_0, # of connection points: 6
#     Node 3, Type 1, BuildingBlock: MIDCAF_clean_sbu_0, # of connection points: 6
#     Edge 4, Type (0, 1), BuildingBlock: FUNLAD_clean_linker_1, # of connection points: 2
#     Edge 5, Type (0, 1), BuildingBlock: FUNLAD_clean_linker_1, # of connection points: 2
#     Edge 6, Type (0, 1), BuildingBlock: FUNLAD_clean_linker_1, # of connection points: 2
#     Edge 7, Type (0, 1), BuildingBlock: FUNLAD_clean_linker_1, # of connection points: 2
#     Edge 8, Type (0, 1), BuildingBlock: FUNLAD_clean_linker_1, # of connection points: 2
#     Edge 9, Type (0, 1), BuildingBlock: FUNLAD_clean_linker_1, # of connection points: 2
#     Edge 10, Type (0, 1), BuildingBlock: FUNLAD_clean_linker_1, # of connection points: 2
#     Edge 11, Type (0, 1), BuildingBlock: FUNLAD_clean_linker_1, # of connection points: 2
#     Edge 12, Type (0, 1), BuildingBlock: FUNLAD_clean_linker_1, # of connection points: 2
#     Edge 13, Type (0, 1), BuildingBlock: FUNLAD_clean_linker_1, # of connection points: 2
#     Edge 14, Type (0, 1), BuildingBlock: FUNLAD_clean_linker_1, # of connection points: 2
#     Edge 15, Type (0, 1), BuildingBlock: FUNLAD_clean_linker_1, # of connection points: 2
# Relax obj value: 0.168
# Max RMSD: 0.284
# Mean RMSD: 0.204
data_MOF--net-nia--node1-KUMJIN_clean_sbu_0--node2-MIDCAF_clean_sbu_0--edge1-FUNLAD_clean_linker_1
_symmetry_space_group_name_H-M    P1
_symmetry_Int_Tables_number       1
_symmetry_cell_setting            triclinic
loop_
_symmetry_equiv_pos_as_xyz
'x, y, z'
_cell_length_a     29.602545
_cell_length_b     29.379422
_cell_length_c     34.123029
_cell_angle_alpha  90.228414
_cell_angle_beta   89.984526
_cell_angle_gamma 139.17106
loop_
_atom_site_label
_atom_site_type_symbol
_atom_site_fract_x
_atom_site_fract_y
_atom_site_fract_z
_atom_type_partial_charge
Eu0 Eu 0.03056 0.99196 0.04777 0.0
C1 C 0.95185 0.97974 0.87214 0.0
C2 C 0.04794 0.09396 0.84356 0.0
C3 C 0.96272 0.99278 0.80129 0.0
C4 C 0.01127 0.05087 0.87673 0.0
C5 C 0.92668 0.95005 0.83432 0.0
C6 C 0.02358 0.06446 0.80585 0.0
C7 C 0.82958 0.83832 0.86445 0.0
N8 N 0.91671 0.94001 0.90461 0.0
C9 C 0.85583 0.87017 0.90133 0.0
C10 C 0.86473 0.87856 0.8308 0.0
Eu11 Eu 0.95702 0.00094 0.96491 0.0
N12 N 0.03245 0.07822 0.91352 0.0
C13 C 0.08937 0.14826 0.91923 0.0
C14 C 0.10759 0.1656 0.8493 0.0
C15 C 0.1284 0.19281 0.88732 0.0
H16 H 0.82725 0.83912 0.92719 0.0
H17 H 0.17401 0.24822 0.89207 0.0
H18 H 0.05084 0.09674 0.78004 0.0
H19 H 0.78159 0.78302 0.86198 0.0
H20 H 0.10488 0.17011 0.94842 0.0
H21 H 0.82123 0.73136 0.10914 0.0
H22 H 0.13747 0.20034 0.82461 0.0
H23 H 0.15638 0.14421 0.09464 0.0
H24 H 0.89217 0.81771 0.05662 0.0
H25 H 0.18475 0.19189 0.16197 0.0
H26 H 0.94329 0.97097 0.77211 0.0
H27 H 0.83715 0.76969 0.17751 0.0
H28 H 0.9012 0.86747 0.22564 0.0
H29 H 0.84335 0.85403 0.80224 0.0
H30 H -0.00071 0.99258 0.23971 0.0
N31 N 0.9492 0.90515 0.0946 0.0
C32 C 0.8999 0.83566 0.08617 0.0
C33 C 0.86887 0.80813 0.15453 0.0
C34 C 0.91933 0.8793 0.16303 0.0
C35 C 0.85981 0.7863 0.11598 0.0
C36 C 0.96024 0.92737 0.13216 0.0
H37 H 0.10458 0.1141 0.21638 0.0
N38 N 0.05865 0.04256 0.11053 0.0
C39 C 0.13683 0.1375 0.15624 0.0
C40 C 0.01569 -0.0018 0.14023 0.0
C41 C 0.12053 0.11062 0.11823 0.0
C42 C 0.09129 0.09347 0.18681 0.0
C43 C 0.03096 0.02257 0.17923 0.0
O44 O 0.12997 0.03559 0.06007 0.0
O45 O 0.04344 0.02564 0.98722 0.0
O46 O 0.97206 0.93991 0.94433 0.0
O47 O 0.9659 0.8988 1.00489 0.0
O48 O 0.13185 0.09143 0.01879 0.0
O49 O 0.03855 0.92397 0.0534 0.0
O50 O 0.85908 0.96237 0.95897 0.0
O51 O 0.94296 0.9679 0.02685 0.0
O52 O 0.02596 0.06261 0.06556 0.0
O53 O 0.02667 0.09848 1.00443 0.0
O54 O 0.85729 0.89839 0.9914 0.0
O55 O 0.9552 0.07334 0.95605 0.0
C56 C 0.10704 0.08051 0.98433 0.0
C57 C 0.12167 0.96364 0.10008 0.0
C58 C 0.14665 0.91129 0.13385 0.0
C59 C 0.13116 0.92342 0.09918 0.0
C60 C 0.15208 0.93959 0.16947 0.0
C61 C 0.12939 0.99272 0.13587 0.0
C62 C 0.14345 0.97998 0.17032 0.0
C63 C 0.96169 0.89538 0.96595 0.0
C64 C 0.10347 0.97475 0.06391 0.0
C65 C 0.98798 0.97502 0.20965 0.0
C66 C 0.93232 0.9036 0.20161 0.0
C67 C 0.87962 0.90996 0.02668 0.0
C68 C 0.86389 0.02811 0.91496 0.0
C69 C 0.86328 0.07542 0.91308 0.0
C70 C 0.84223 0.08158 0.87853 0.0
C71 C 0.82253 0.04032 0.84571 0.0
C72 C 0.84141 0.98574 0.88228 0.0
C73 C 0.82211 0.9927 0.84774 0.0
C74 C 0.03637 0.10641 0.04303 0.0
C75 C 0.88835 0.02355 0.95077 0.0
H76 H 0.12704 0.90208 0.07156 0.0
H77 H 0.16594 0.93333 0.19652 0.0
H78 H 0.12588 0.02638 0.13741 0.0
H79 H 0.14917 0.00281 0.19766 0.0
H80 H 0.87853 0.10691 0.93854 0.0
H81 H 0.80428 0.0422 0.819 0.0
H82 H 0.83757 0.94636 0.88345 0.0
H83 H 0.80521 0.95987 0.82273 0.0
Eu84 Eu 0.99094 0.03337 0.5564 0.0
C85 C 0.02332 0.02451 0.3769 0.0
C86 C 0.90655 0.93244 0.35131 0.0
C87 C -0.00176 0.03586 0.31235 0.0
C88 C 0.95434 0.96122 0.38185 0.0
C89 C 0.04651 0.06145 0.34158 0.0
C90 C 0.92841 0.97112 0.31703 0.0
C91 C 0.16359 0.14393 0.36604 0.0
N92 N 0.06825 0.04881 0.40625 0.0
C93 C 0.1379 0.10602 0.40087 0.0
C94 C 0.11761 0.12227 0.33652 0.0
Eu95 Eu 0.02011 0.98407 0.46497 0.0
N96 N 0.93485 0.92566 0.41557 0.0
C97 C 0.87009 0.85842 0.41919 0.0
C98 C 0.83891 0.86484 0.35568 0.0
C99 C 0.8212 0.82705 0.3893 0.0
H100 H 0.17326 0.1235 0.42404 0.0
H101 H 0.76976 0.77394 0.39233 0.0
H102 H 0.89217 0.95063 0.29355 0.0
H103 H 0.21867 0.19027 0.3622 0.0
H104 H 0.85564 0.82957 0.44555 0.0
H105 H 0.24676 0.25223 0.62184 0.0
H106 H 0.80065 0.84065 0.33282 0.0
H107 H 0.84251 0.89824 0.60254 0.0
H108 H 0.15609 0.19127 0.57123 0.0
H109 H 0.80329 0.83752 0.6663 0.0
H110 H 0.01473 0.06482 0.28559 0.0
H111 H 0.22229 0.19142 0.68285 0.0
H112 H 0.13566 0.08482 0.72521 0.0
H113 H 0.13753 0.15206 0.30974 0.0
H114 H 0.01485 0.97083 0.73704 0.0
N115 N 0.08036 0.09755 0.60382 0.0
C116 C 0.14428 0.16473 0.59812 0.0
C117 C 0.18189 0.16479 0.66107 0.0
C118 C 0.11525 0.09721 0.66756 0.0
C119 C 0.19594 0.19927 0.62662 0.0
C120 C 0.06461 0.06506 0.63827 0.0
H121 H 0.88942 0.88016 0.71627 0.0
N122 N 0.94906 0.974 0.61692 0.0
C123 C 0.85789 0.88324 0.66058 0.0
C124 C -0.00328 0.00132 0.64509 0.0
C125 C 0.88009 0.91773 0.62468 0.0
C126 C 0.90673 0.90739 0.6887 0.0
C127 C 0.97717 0.96782 0.6814 0.0
O128 O 0.9162 0.02943 0.57122 0.0
O129 O 0.96021 0.99249 0.49554 0.0
O130 O 0.0486 0.07869 0.45277 0.0
O131 O 0.07193 0.12608 0.51541 0.0
O132 O 0.88235 0.95836 0.52997 0.0
O133 O 0.02538 0.12907 0.56863 0.0
O134 O 0.09192 0.98409 0.44986 0.0
O135 O 0.05066 0.02496 0.52564 0.0
O136 O 0.96066 0.93768 0.56861 0.0
O137 O 0.93812 0.89122 0.50564 0.0
O138 O 0.12776 0.05613 0.49202 0.0
O139 O 0.98178 0.88648 0.45189 0.0
C140 C 0.89775 0.95629 0.49517 0.0
C141 C 0.9579 0.11478 0.61708 0.0
C142 C 0.90404 0.1319 0.65825 0.0
C143 C 0.91279 0.1175 0.62145 0.0
C144 C 0.94157 0.14405 0.69068 0.0
C145 C -0.00495 0.12755 0.64981 0.0
C146 C 0.98666 0.14175 0.68634 0.0
C147 C 0.07511 0.13016 0.47652 0.0
C148 C 0.96379 0.09599 0.57881 0.0
C149 C 0.02827 0.99692 0.7095 0.0
C150 C 0.09719 0.06173 0.70269 0.0
C151 C 0.11239 0.05907 0.52653 0.0
C152 C 0.04775 0.89776 0.40375 0.0
C153 C 0.09005 0.89137 0.3997 0.0
C154 C 0.09766 0.87563 0.36297 0.0
C155 C 0.0617 0.86565 0.33037 0.0
C156 C 0.01221 0.88717 0.3708 0.0
C157 C 0.01937 0.87149 0.3344 0.0
C158 C 0.93457 0.88665 0.54455 0.0
C159 C 0.04269 0.91749 0.44198 0.0
H160 H 0.88427 0.10813 0.59622 0.0
H161 H 0.938 0.15743 0.71917 0.0
H162 H 0.0309 0.12706 0.64725 0.0
H163 H 0.0158 0.15174 0.71133 0.0
H164 H 0.11732 0.89899 0.42506 0.0
H165 H 0.06441 0.85134 0.30196 0.0
H166 H 0.97851 0.89044 0.37305 0.0
H167 H 0.99141 0.86315 0.30926 0.0
Zn168 Zn 0.39394 0.69891 0.18115 0.0
Zn169 Zn 0.3723 0.695 0.33475 0.0
Zn170 Zn 0.38926 0.69347 0.25927 0.0
C171 C 0.51377 0.7839 0.32138 0.0
C172 C 0.29858 0.55977 0.31426 0.0
O173 O 0.34689 0.72495 0.23342 0.0
O174 O 0.35659 0.73127 0.16875 0.0
C175 C 0.52866 0.78392 0.21059 0.0
O176 O 0.4934 0.762 0.28574 0.0
O177 O 0.4719 0.76521 0.34726 0.0
O178 O 0.31273 0.59594 0.34317 0.0
O179 O 0.32162 0.58693 0.27995 0.0
O180 O 0.49481 0.76528 0.17945 0.0
O181 O 0.4982 0.76223 0.24406 0.0
O182 O 0.32252 0.58554 0.23851 0.0
O183 O 0.33061 0.5978 0.17409 0.0
C184 C 0.30616 0.55929 0.20375 0.0
O185 O 0.35255 0.73608 0.27461 0.0
O186 O 0.33215 0.72569 0.33825 0.0
C187 C 0.33698 0.73604 0.19964 0.0
C188 C 0.33329 0.74474 0.30487 0.0
Zn189 Zn 0.62186 0.32096 0.83578 0.0
Zn190 Zn 0.6354 0.31773 0.67929 0.0
Zn191 Zn 0.62256 0.32182 0.7565 0.0
C192 C 0.71573 0.45488 0.69986 0.0
C193 C 0.49534 0.23391 0.6979 0.0
O194 O 0.66025 0.28577 0.78145 0.0
O195 O 0.65892 0.28733 0.84635 0.0
C196 C 0.71508 0.46016 0.80915 0.0
O197 O 0.69328 0.4276 0.73413 0.0
O198 O 0.69881 0.41822 0.67039 0.0
O199 O 0.53443 0.24966 0.6709 0.0
O200 O 0.51862 0.25749 0.73297 0.0
O201 O 0.68739 0.42356 0.83986 0.0
O202 O 0.69813 0.43125 0.77528 0.0
O203 O 0.51746 0.26267 0.77456 0.0
O204 O 0.52132 0.2563 0.83887 0.0
C205 C 0.48804 0.24172 0.80832 0.0
O206 O 0.64973 0.2708 0.74035 0.0
O207 O 0.67011 0.28111 0.67667 0.0
C208 C 0.67291 0.2771 0.815 0.0
C209 C 0.66642 0.25978 0.70988 0.0
H210 H 0.18826 0.88108 0.1054 0.0
C211 C 0.16396 0.87535 0.13193 0.0
H212 H 0.13033 0.83334 0.18907 0.0
H213 H 0.2136 0.69466 0.11237 0.0
H214 H 0.11518 0.63008 0.06904 0.0
H215 H 0.04965 0.65215 0.0692 0.0
H216 H 0.08229 0.73911 0.11262 0.0
C217 C 0.15572 0.84093 0.16258 0.0
C218 C 0.19119 0.82317 0.164 0.0
C219 C 0.17119 0.77197 0.13859 0.0
C220 C 0.20849 0.7587 0.13887 0.0
C221 C 0.18724 0.70702 0.11332 0.0
C222 C 0.13073 0.66944 0.08836 0.0
C223 C 0.09388 0.68192 0.08841 0.0
C224 C 0.11346 0.73232 0.11328 0.0
H225 H 0.26918 0.7385 0.22207 0.0
C226 C 0.29999 0.7515 0.19723 0.0
H227 H 0.33113 0.79178 0.13974 0.0
H228 H 0.23976 0.92122 0.21872 0.0
H229 H 0.33605 0.98355 0.26312 0.0
H230 H 0.40374 0.96406 0.26168 0.0
H231 H 0.37519 0.88195 0.21588 0.0
C232 C 0.30275 0.78061 0.16566 0.0
C233 C 0.26508 0.79604 0.16488 0.0
C234 C 0.28469 0.8469 0.19058 0.0
C235 C 0.24687 0.85951 0.19064 0.0
C236 C 0.26677 0.90966 0.21714 0.0
C237 C 0.32219 0.9461 0.24277 0.0
C238 C 0.36013 0.93497 0.24204 0.0
C239 C 0.3425 0.88685 0.21593 0.0
H240 H 0.12375 0.05361 0.58943 0.0
C241 C 0.15129 0.07637 0.56207 0.0
H242 H 0.24573 0.13721 0.53368 0.0
H243 H 0.45561 0.32746 0.6695 0.0
H244 H 0.48717 0.40993 0.62312 0.0
H245 H 0.41354 0.36985 0.56567 0.0
H246 H 0.30866 0.24712 0.55393 0.0
C247 C 0.21818 0.1155 0.56136 0.0
C248 C 0.25871 0.13852 0.59822 0.0
C249 C 0.3189 0.21093 0.60545 0.0
C250 C 0.36053 0.23423 0.63915 0.0
C251 C 0.42168 0.30668 0.64467 0.0
C252 C 0.44042 0.35478 0.61829 0.0
C253 C 0.39906 0.33221 0.58591 0.0
C254 C 0.33907 0.26135 0.57941 0.0
H255 H 0.40196 0.15242 0.66332 0.0
C256 C 0.42378 0.18999 0.68667 0.0
H257 H 0.419 0.25007 0.71485 0.0
H258 H 0.15087 0.99514 0.59273 0.0
H259 H 0.11418 0.91438 0.64264 0.0
H260 H 0.17855 0.95663 0.70495 0.0
H261 H 0.28244 0.08076 0.71663 0.0
C262 C 0.39443 0.20806 0.69427 0.0
C263 C 0.34161 0.18527 0.66597 0.0
C264 C 0.27836 0.11354 0.66071 0.0
C265 C 0.23836 0.08966 0.62607 0.0
C266 C 0.18026 0.01691 0.61968 0.0
C267 C 0.15909 0.96973 0.64797 0.0
C268 C 0.19562 0.99349 0.68291 0.0
C269 C 0.25507 0.06456 0.68919 0.0
H270 H 0.0883 0.21311 0.04224 0.0
C271 C 0.06689 0.17092 0.06135 0.0
H272 H 0.04967 0.13761 0.11971 0.0
H273 H 0.32987 0.48595 0.12528 0.0
H274 H 0.38294 0.47141 0.08169 0.0
H275 H 0.31666 0.35521 0.05653 0.0
H276 H 0.19704 0.25339 0.07426 0.0
C277 C 0.07464 0.18095 0.10057 0.0
C278 C 0.11768 0.25024 0.11936 0.0
C279 C 0.18857 0.30922 0.10955 0.0
C280 C 0.22746 0.37597 0.12506 0.0
C281 C 0.29776 0.43409 0.11424 0.0
C282 C 0.32908 0.42646 0.08944 0.0
C283 C 0.29175 0.36109 0.07522 0.0
C284 C 0.22257 0.30302 0.08526 0.0
H285 H 0.24785 0.45319 0.22222 0.0
C286 C 0.25985 0.48428 0.19764 0.0
H287 H 0.24778 0.48723 0.13708 0.0
H288 H 0.98903 0.14612 0.15202 0.0
H289 H 0.93859 0.15952 0.19928 0.0
H290 H 0.00457 0.27575 0.22422 0.0
H291 H 0.12188 0.37896 0.20278 0.0
C292 C 0.23456 0.45535 0.1616 0.0
C293 C 0.19641 0.38369 0.15133 0.0
C294 C 0.12751 0.32394 0.16385 0.0
C295 C 0.0886 0.25701 0.14841 0.0
C296 C 0.0204 0.1982 0.16202 0.0
C297 C 0.99086 0.20515 0.18928 0.0
C298 C 0.02808 0.27056 0.20342 0.0
C299 C 0.09553 0.32945 0.19089 0.0
H300 H 0.85206 0.15355 0.63509 0.0
C301 C 0.8594 0.13881 0.66136 0.0
H302 H 0.8343 0.11349 0.72152 0.0
H303 H 0.81576 0.31386 0.74033 0.0
H304 H 0.90964 0.36646 0.78457 0.0
H305 H 0.95303 0.32078 0.78905 0.0
H306 H 0.90248 0.22205 0.74953 0.0
C307 C 0.82931 0.12955 0.69492 0.0
C308 C 0.79488 0.14849 0.69751 0.0
C309 C 0.82458 0.20575 0.72126 0.0
C310 C 0.79897 0.23151 0.71907 0.0
C311 C 0.83163 0.29074 0.74174 0.0
C312 C 0.8861 0.32193 0.76697 0.0
C313 C 0.91062 0.29632 0.76943 0.0
C314 C 0.88096 0.23943 0.74661 0.0
H315 H 0.66461 0.19191 0.73979 0.0
C316 C 0.68273 0.22347 0.71405 0.0
H317 H 0.73919 0.26115 0.66137 0.0
H318 H 0.71646 0.02819 0.65553 0.0
H319 H 0.61581 0.96919 0.61562 0.0
H320 H 0.5724 0.01488 0.61101 0.0
H321 H 0.62908 0.1196 0.6465 0.0
C322 C 0.7213 0.23053 0.68767 0.0
C323 C 0.74278 0.19891 0.69379 0.0
C324 C 0.70962 0.13831 0.67255 0.0
C325 C 0.73533 0.11267 0.67466 0.0
C326 C 0.70019 0.05097 0.65398 0.0
C327 C 0.6421 0.01635 0.63124 0.0
C328 C 0.6176 0.04203 0.62868 0.0
C329 C 0.65071 0.10225 0.64907 0.0
H330 H 0.77717 0.8368 0.05341 0.0
C331 C 0.83198 0.88263 0.05956 0.0
H332 H 0.90593 0.96685 0.09791 0.0
H333 H 0.72039 0.97838 0.17026 0.0
H334 H 0.81499 0.09298 0.14122 0.0
H335 H 0.90294 0.12104 0.10123 0.0
H336 H 0.89871 0.03646 0.09106 0.0
C337 C 0.8516 0.91871 0.09286 0.0
C338 C 0.80016 0.90223 0.1192 0.0
C339 C 0.8048 0.95353 0.12561 0.0
C340 C 0.75272 0.93675 0.14743 0.0
C341 C 0.75789 0.98833 0.15306 0.0
C342 C 0.8119 0.05419 0.1367 0.0
C343 C 0.86153 0.07004 0.11431 0.0
C344 C 0.85857 0.02079 0.10888 0.0
H345 H 0.62754 0.82999 0.23254 0.0
C346 C 0.60144 0.8244 0.20718 0.0
H347 H 0.60563 0.8413 0.14652 0.0
H348 H 0.77702 0.79309 0.11556 0.0
H349 H 0.68273 0.67928 0.14441 0.0
H350 H 0.59183 0.65008 0.18143 0.0
H351 H 0.59596 0.73477 0.19004 0.0
C352 C 0.63121 0.84529 0.17156 0.0
C353 C 0.69544 0.86875 0.16221 0.0
C354 C 0.6929 0.81879 0.1581 0.0
C355 C 0.74509 0.83544 0.13651 0.0
C356 C 0.73981 0.78373 0.13202 0.0
C357 C 0.68544 0.7179 0.14826 0.0
C358 C 0.63434 0.70149 0.16905 0.0
C359 C 0.63747 0.75091 0.17377 0.0
H360 H 0.88077 0.77929 0.54293 0.0
C361 C 0.89995 0.82064 0.56221 0.0
H362 H 0.91417 0.85359 0.62025 0.0
H363 H 0.68044 0.50481 0.61833 0.0
H364 H 0.61257 0.4992 0.57378 0.0
H365 H 0.6551 0.60645 0.55187 0.0
H366 H 0.76609 0.71969 0.57391 0.0
C367 C 0.89267 0.81133 0.60132 0.0
C368 C 0.86014 0.7464 0.62026 0.0
C369 C 0.7938 0.68055 0.60821 0.0
C370 C 0.7682 0.61882 0.62202 0.0
C371 C 0.70259 0.55355 0.60873 0.0
C372 C 0.66281 0.5495 0.58334 0.0
C373 C 0.6868 0.60985 0.57095 0.0
C374 C 0.7512 0.67467 0.58335 0.0
H375 H 0.75849 0.55412 0.71807 0.0
C376 C 0.75611 0.52761 0.6943 0.0
H377 H 0.7794 0.53106 0.63523 0.0
H378 H 0.98171 0.86428 0.65716 0.0
H379 H 0.03898 0.86805 0.70974 0.0
H380 H 0.99357 0.7605 0.73416 0.0
H381 H 0.8894 0.64819 0.70648 0.0
C382 C 0.78366 0.55849 0.65932 0.0
C383 C 0.80732 0.62302 0.64934 0.0
C384 C 0.8692 0.68832 0.66531 0.0
C385 C 0.89569 0.75035 0.65083 0.0
C386 C 0.95815 0.81511 0.66706 0.0
C387 C 0.99213 0.81823 0.69722 0.0
C388 C 0.96651 0.75768 0.71101 0.0
C389 C 0.90635 0.69344 0.69498 0.0
H390 H 0.14445 0.84804 0.38591 0.0
C391 C 0.13961 0.8654 0.3599 0.0
H392 H 0.16814 0.89438 0.30039 0.0
H393 H 0.36341 0.87461 0.37408 0.0
H394 H 0.41727 0.9741 0.4144 0.0
H395 H 0.37562 0.02168 0.41246 0.0
H396 H 0.27944 0.96965 0.3705 0.0
C397 C 0.17069 0.8755 0.32656 0.0
C398 C 0.20368 0.85495 0.32338 0.0
C399 C 0.26092 0.88697 0.34741 0.0
C400 C 0.28584 0.86044 0.3479 0.0
C401 C 0.34235 0.89263 0.37264 0.0
C402 C 0.37392 0.94993 0.39579 0.0
C403 C 0.35041 0.97666 0.39474 0.0
C404 C 0.29476 0.94592 0.3708 0.0
H405 H 0.32921 0.80804 0.27474 0.0
C406 C 0.31312 0.77754 0.30063 0.0
H407 H 0.26087 0.74207 0.35473 0.0
H408 H 0.10049 0.78889 0.26912 0.0
H409 H 0.05337 0.69611 0.22491 0.0
H410 H 0.09614 0.64966 0.22606 0.0
H411 H 0.18581 0.69535 0.27168 0.0
C412 C 0.27557 0.7706 0.32795 0.0
C413 C 0.25467 0.80315 0.32368 0.0
C414 C 0.20098 0.77463 0.29738 0.0
C415 C 0.1758 0.80093 0.29704 0.0
C416 C 0.12172 0.77109 0.27071 0.0
C417 C 0.094 0.7176 0.24519 0.0
C418 C 0.11817 0.69155 0.24578 0.0
C419 C 0.17029 0.71883 0.27188 0.0
H420 H 0.12875 0.04656 0.93873 0.0
C421 C 0.14443 0.09164 0.94994 0.0
H422 H 0.21654 0.19946 0.94795 0.0
H423 H 0.47258 0.28148 0.89317 0.0
H424 H 0.51347 0.35079 0.95178 0.0
H425 H 0.43416 0.33605 0.99232 0.0
H426 H 0.31437 0.25305 0.97431 0.0
C427 C 0.20125 0.15505 0.93587 0.0
C428 C 0.2497 0.16721 0.90907 0.0
C429 C 0.31996 0.21595 0.92055 0.0
C430 C 0.36521 0.22278 0.898 0.0
C431 C 0.43537 0.27261 0.90978 0.0
C432 C 0.45975 0.31312 0.9433 0.0
C433 C 0.41518 0.30496 0.96602 0.0
C434 C 0.34617 0.25701 0.95507 0.0
H435 H 0.40334 0.22457 0.79293 0.0
C436 C 0.41924 0.21035 0.81331 0.0
H437 H 0.40228 0.165 0.86715 0.0
H438 H 0.123 0.07909 0.874 0.0
H439 H 0.08323 0.0114 0.81455 0.0
H440 H 0.16068 0.01938 0.77758 0.0
H441 H 0.27824 0.09541 0.79993 0.0
C442 C 0.38479 0.17798 0.84707 0.0
C443 C 0.3401 0.17972 0.86464 0.0
C444 C 0.27151 0.13444 0.85158 0.0
C445 C 0.22641 0.12872 0.87351 0.0
C446 C 0.15867 0.0842 0.85914 0.0
C447 C 0.13541 0.04531 0.82492 0.0
C448 C 0.179 0.0498 0.80411 0.0
C449 C 0.24631 0.09362 0.81723 0.0
H450 H 0.13417 0.23973 0.47722 0.0
C451 C 0.11023 0.19606 0.45834 0.0
H452 H 0.08611 0.15801 0.40056 0.0
H453 H 0.12064 0.3719 0.31714 0.0
H454 H 0.00527 0.26063 0.29783 0.0
H455 H 0.95341 0.15122 0.32437 0.0
H456 H 0.01486 0.15211 0.37166 0.0
C457 C 0.11271 0.20254 0.41909 0.0
C458 C 0.1471 0.26765 0.3994 0.0
C459 C 0.10943 0.26555 0.37194 0.0
C460 C 0.13972 0.32856 0.35598 0.0
C461 C 0.10058 0.32557 0.32962 0.0
C462 C 0.0342 0.26204 0.31833 0.0
C463 C 0.00485 0.20041 0.33344 0.0
C464 C 0.04121 0.20179 0.3604 0.0
H465 H 0.25287 0.45847 0.29706 0.0
C466 C 0.25914 0.48751 0.32092 0.0
H467 H 0.24378 0.48946 0.38111 0.0
H468 H 0.24136 0.28746 0.43978 0.0
H469 H 0.36004 0.39805 0.45456 0.0
H470 H 0.41027 0.50792 0.43003 0.0
H471 H 0.34224 0.50742 0.38992 0.0
C472 C 0.23551 0.4596 0.3569 0.0
C473 C 0.20746 0.39297 0.36731 0.0
C474 C 0.2472 0.39444 0.39179 0.0
C475 C 0.21752 0.33151 0.40716 0.0
C476 C 0.25991 0.33403 0.42927 0.0
C477 C 0.32854 0.39717 0.43752 0.0
C478 C 0.35686 0.45898 0.42363 0.0
C479 C 0.31706 0.45795 0.40085 0.0
H480 H 0.81755 0.12911 0.90573 0.0
C481 C 0.83347 0.12501 0.87852 0.0
H482 H 0.85571 0.15171 0.81858 0.0
H483 H 0.62397 0.12498 0.80225 0.0
H484 H 0.58313 0.03464 0.75842 0.0
H485 H 0.64461 0.00823 0.75345 0.0
H486 H 0.7468 0.07166 0.79246 0.0
C487 C 0.83847 0.15398 0.84581 0.0
C488 C 0.80902 0.17823 0.84427 0.0
C489 C 0.74984 0.14121 0.82064 0.0
C490 C 0.71563 0.15787 0.82257 0.0
C491 C 0.65413 0.11709 0.80052 0.0
C492 C 0.62947 0.0643 0.77559 0.0
C493 C 0.66393 0.04929 0.77289 0.0
C494 C 0.7228 0.08638 0.79546 0.0
H495 H 0.7326 0.26612 0.78998 0.0
C496 C 0.70715 0.25854 0.81625 0.0
H497 H 0.68544 0.22701 0.87545 0.0
H498 H 0.92802 0.26693 0.88768 0.0
H499 H 0.97459 0.3639 0.92756 0.0
H500 H 0.91533 0.39298 0.93104 0.0
H501 H 0.80934 0.32548 0.89458 0.0
C502 C 0.70814 0.23274 0.8481 0.0
C503 C 0.74244 0.21355 0.84686 0.0
C504 C 0.80344 0.25258 0.86904 0.0
C505 C 0.83707 0.23521 0.86752 0.0
C506 C 0.89933 0.27663 0.88877 0.0
C507 C 0.92691 0.33277 0.9115 0.0
C508 C 0.8936 0.34921 0.91341 0.0
C509 C 0.83269 0.30991 0.89241 0.0
H510 H 0.88588 0.96405 0.43265 0.0
C511 C 0.85827 0.93929 0.45993 0.0
H512 H 0.76282 0.87369 0.48835 0.0
H513 H 0.72407 0.94651 0.313 0.0
H514 H 0.82162 0.06893 0.33085 0.0
H515 H 0.88485 0.10487 0.39288 0.0
H516 H 0.85263 0.01949 0.43665 0.0
C517 C 0.79073 0.89812 0.46091 0.0
C518 C 0.75052 0.87786 0.42438 0.0
C519 C 0.7686 0.92881 0.39987 0.0
C520 C 0.7293 0.90796 0.36536 0.0
C521 C 0.7505 0.95975 0.34036 0.0
C522 C 0.80652 0.03004 0.35014 0.0
C523 C 0.84234 0.05028 0.38494 0.0
C524 C 0.82374 0.00057 0.40965 0.0
H525 H 0.60296 0.86336 0.35915 0.0
C526 C 0.58475 0.82867 0.33476 0.0
H527 H 0.59623 0.77478 0.30556 0.0
H528 H 0.70406 0.76662 0.4628 0.0
H529 H 0.60362 0.64482 0.44615 0.0
H530 H 0.53161 0.60881 0.38871 0.0
H531 H 0.55995 0.69433 0.34742 0.0
C532 C 0.61725 0.81396 0.32746 0.0
C533 C 0.66898 0.83634 0.35678 0.0
C534 C 0.65193 0.7855 0.38063 0.0
C535 C 0.69274 0.80625 0.4143 0.0
C536 C 0.67424 0.7541 0.43745 0.0
C537 C 0.61682 0.68381 0.42812 0.0
C538 C 0.57637 0.66356 0.39574 0.0
C539 C 0.59336 0.71345 0.37224 0.0
H540 H 0.90299 0.7869 0.96169 0.0
C541 C 0.93865 0.83592 0.94602 0.0
H542 H -0.00482 0.89052 0.89477 0.0
H543 H 0.82354 0.55649 0.90072 0.0
H544 H 0.88711 0.58888 0.96052 0.0
H545 H 0.97395 0.70926 0.986 0.0
H546 H -0.00354 0.79752 0.95211 0.0
C547 C 0.95897 0.84053 0.90934 0.0
C548 C 0.92855 0.77762 0.88746 0.0
C549 C 0.91844 0.72761 0.90644 0.0
C550 C 0.87032 0.65906 0.8909 0.0
C551 C 0.8593 0.60937 0.91129 0.0
C552 C 0.89588 0.6274 0.94548 0.0
C553 C 0.94466 0.69512 0.95987 0.0
C554 C 0.95637 0.74496 0.94052 0.0
H555 H 0.80913 0.56873 0.79027 0.0
C556 C 0.7699 0.53675 0.81287 0.0
H557 H 0.73425 0.53299 0.86741 0.0
H558 H 0.96266 0.87036 0.83459 0.0
H559 H 0.91552 0.84384 0.76944 0.0
H560 H 0.82595 0.72346 0.74398 0.0
H561 H 0.78531 0.62943 0.78304 0.0
C562 C 0.77365 0.56629 0.84495 0.0
C563 C 0.83464 0.64143 0.85546 0.0
C564 C 0.85421 0.69481 0.833 0.0
C565 C 0.90313 0.76377 0.84862 0.0
C566 C 0.92427 0.81681 0.82499 0.0
C567 C 0.89767 0.80232 0.78734 0.0
C568 C 0.84746 0.73459 0.77296 0.0
C569 C 0.82503 0.68107 0.79562 0.0
loop_
_geom_bond_atom_site_label_1
_geom_bond_atom_site_label_2
_geom_bond_distance
_geom_bond_site_symmetry_2
_ccdc_geom_bond_type
Eu0 N31 2.657 1_455 S
Eu0 N38 2.609 . S
Eu0 O44 2.558 1_565 S
Eu0 O45 2.612 1_564 S
Eu0 O47 2.339 1_454 S
Eu0 O48 2.563 1_565 S
Eu0 O49 2.419 . S
Eu0 O51 2.380 1_455 S
Eu0 O52 2.432 1_565 S
Eu0 C64 2.848 . S
C1 C4 1.429 . S
C1 C5 1.411 . S
C1 N8 1.377 1_455 S
C2 C4 1.420 . S
C2 C6 1.423 . S
C2 C14 1.392 . S
C3 C5 1.420 . S
C3 C6 1.351 . S
C3 H26 0.931 . S
C4 C1 1.429 . S
C4 C2 1.420 . S
C4 N12 1.362 . S
C5 C1 1.411 . S
C5 C3 1.420 . S
C5 C10 1.395 1_455 S
C6 C2 1.423 . S
C6 C3 1.351 . S
C6 H18 0.930 . S
C7 C9 1.400 . S
C7 C10 1.386 1_565 S
C7 H19 0.930 . S
N8 C1 1.377 1_655 S
N8 C9 1.321 1_545 S
N8 Eu11 2.609 . S
C9 C7 1.400 . S
C9 N8 1.321 1_565 S
C9 H16 0.930 . S
C10 C5 1.395 1_655 S
C10 C7 1.386 1_545 S
C10 H29 0.930 . S
Eu11 N8 2.609 . S
Eu11 N12 2.657 1_655 S
Eu11 O45 2.380 1_655 S
Eu11 O46 2.432 1_545 S
Eu11 O50 2.558 1_545 S
Eu11 O51 2.612 1_546 S
Eu11 O53 2.339 1_656 S
Eu11 O54 2.580 1_545 S
Eu11 O55 2.419 . S
Eu11 C75 2.848 . S
N12 C4 1.362 . S
N12 Eu11 2.657 1_455 S
N12 C13 1.334 . S
C13 N12 1.334 . S
C13 C15 1.413 . S
C13 H20 0.929 . S
C14 C2 1.392 . S
C14 C15 1.367 . S
C14 H22 0.930 . S
C15 C13 1.413 . S
C15 C14 1.367 . S
C15 H17 0.930 . S
H16 C9 0.930 . S
H17 C15 0.930 . S
H18 C6 0.930 . S
H19 C7 0.930 . S
H20 C13 0.929 . S
H21 C35 0.930 . S
H22 C14 0.930 . S
H23 C41 0.930 . S
H24 C32 0.929 . S
H25 C39 0.930 . S
H26 C3 0.931 . S
H27 C33 0.930 . S
H28 C66 0.930 . S
H29 C10 0.930 . S
H30 C65 0.931 . S
N31 Eu0 2.657 1_655 S
N31 C32 1.334 . S
N31 C36 1.362 . S
C32 H24 0.929 . S
C32 N31 1.334 . S
C32 C35 1.413 . S
C33 H27 0.930 . S
C33 C34 1.392 . S
C33 C35 1.367 . S
C34 C33 1.392 . S
C34 C36 1.420 . S
C34 C66 1.423 . S
C35 H21 0.930 . S
C35 C32 1.413 . S
C35 C33 1.367 . S
C36 N31 1.362 . S
C36 C34 1.420 . S
C36 C40 1.429 . S
H37 C42 0.930 . S
N38 Eu0 2.609 . S
N38 C40 1.377 1_455 S
N38 C41 1.321 1_565 S
C39 H25 0.930 . S
C39 C41 1.400 . S
C39 C42 1.386 1_545 S
C40 C36 1.429 . S
C40 N38 1.377 1_655 S
C40 C43 1.411 . S
C41 H23 0.930 . S
C41 N38 1.321 1_545 S
C41 C39 1.400 . S
C42 H37 0.930 . S
C42 C39 1.386 1_565 S
C42 C43 1.395 1_455 S
C43 C40 1.411 . S
C43 C42 1.395 1_655 S
C43 C65 1.420 . S
O44 Eu0 2.558 1_545 S
O44 C64 1.257 1_545 S
O45 Eu0 2.612 1_546 S
O45 Eu11 2.380 1_455 S
O45 C56 1.276 . S
O46 Eu11 2.432 1_565 S
O46 C63 1.264 . S
O47 Eu0 2.339 1_656 S
O47 C63 1.254 . S
O48 Eu0 2.563 1_545 S
O48 C56 1.235 1_554 S
O49 Eu0 2.419 . S
O49 C64 1.249 . S
O50 Eu11 2.558 1_565 S
O50 C75 1.257 1_565 S
O51 Eu0 2.380 1_655 S
O51 Eu11 2.612 1_564 S
O51 C67 1.276 . S
O52 Eu0 2.432 1_545 S
O52 C74 1.264 . S
O53 Eu11 2.339 1_454 S
O53 C74 1.254 . S
O54 Eu11 2.580 1_565 S
O54 C67 1.211 1_556 S
O55 Eu11 2.419 . S
O55 C75 1.249 . S
C56 O45 1.276 . S
C56 O48 1.235 1_556 S
C57 C59 1.393 . S
C57 C61 1.395 . S
C57 C64 1.492 . S
C58 C59 1.392 . S
C58 C60 1.386 . S
C59 C57 1.393 . S
C59 C58 1.392 . S
C59 H76 0.930 . S
C60 C58 1.386 . S
C60 C62 1.395 . S
C60 H77 0.930 . S
C61 C57 1.395 . S
C61 C62 1.379 . S
C61 H78 0.930 . S
C62 C60 1.395 . S
C62 C61 1.379 . S
C62 H79 0.930 . S
C63 O46 1.264 . S
C63 O47 1.254 . S
C64 Eu0 2.848 . S
C64 O44 1.257 1_565 S
C64 O49 1.249 . S
C64 C57 1.492 . S
C65 H30 0.931 . S
C65 C43 1.420 . S
C65 C66 1.351 . S
C66 H28 0.930 . S
C66 C34 1.423 . S
C66 C65 1.351 . S
C67 O51 1.276 . S
C67 O54 1.211 1_554 S
C68 C69 1.393 . S
C68 C72 1.395 . S
C68 C75 1.492 . S
C69 C68 1.393 . S
C69 C70 1.392 . S
C69 H80 0.930 . S
C70 C69 1.392 . S
C70 C71 1.386 . S
C71 C70 1.386 . S
C71 C73 1.395 . S
C71 H81 0.930 . S
C72 C68 1.395 . S
C72 C73 1.379 . S
C72 H82 0.930 . S
C73 C71 1.395 . S
C73 C72 1.379 . S
C73 H83 0.930 . S
C74 O52 1.264 . S
C74 O53 1.254 . S
C75 Eu11 2.848 . S
C75 O50 1.257 1_545 S
C75 O55 1.249 . S
C75 C68 1.492 . S
H76 C59 0.930 . S
H77 C60 0.930 . S
H78 C61 0.930 . S
H79 C62 0.930 . S
H80 C69 0.930 . S
H81 C71 0.930 . S
H82 C72 0.930 . S
H83 C73 0.930 . S
Eu84 N115 2.657 1_655 S
Eu84 N122 2.609 1_655 S
Eu84 O128 2.558 . S
Eu84 O129 2.612 1_545 S
Eu84 O131 2.339 1_655 S
Eu84 O132 2.563 1_545 S
Eu84 O133 2.419 . S
Eu84 O135 2.380 1_655 S
Eu84 O136 2.432 1_545 S
Eu84 C148 2.848 . S
C85 C88 1.429 . S
C85 C89 1.411 . S
C85 N92 1.377 1_665 S
C86 C88 1.420 . S
C86 C90 1.423 . S
C86 C98 1.392 . S
C87 C89 1.420 . S
C87 C90 1.351 . S
C87 H110 0.931 . S
C88 C85 1.429 . S
C88 C86 1.420 . S
C88 N96 1.362 . S
C89 C85 1.411 . S
C89 C87 1.420 . S
C89 C94 1.395 1_665 S
C90 C86 1.423 . S
C90 C87 1.351 . S
C90 H102 0.930 . S
C91 C93 1.400 . S
C91 C94 1.386 . S
C91 H103 0.930 . S
N92 C85 1.377 1_445 S
N92 C93 1.321 . S
N92 Eu95 2.609 1_545 S
C93 C91 1.400 . S
C93 N92 1.321 . S
C93 H100 0.930 . S
C94 C89 1.395 1_445 S
C94 C91 1.386 . S
C94 H113 0.930 . S
Eu95 N92 2.609 1_565 S
Eu95 N96 2.657 1_455 S
Eu95 O129 2.380 1_455 S
Eu95 O130 2.432 1_565 S
Eu95 O134 2.558 1_565 S
Eu95 O135 2.612 1_565 S
Eu95 O137 2.339 1_455 S
Eu95 O138 2.563 1_565 S
Eu95 O139 2.419 . S
Eu95 C159 2.848 . S
N96 C88 1.362 . S
N96 Eu95 2.657 1_655 S
N96 C97 1.334 . S
C97 N96 1.334 . S
C97 C99 1.413 . S
C97 H104 0.929 . S
C98 C86 1.392 . S
C98 C99 1.367 . S
C98 H106 0.930 . S
C99 C97 1.413 . S
C99 C98 1.367 . S
C99 H101 0.930 . S
H100 C93 0.930 . S
H101 C99 0.930 . S
H102 C90 0.930 . S
H103 C91 0.930 . S
H104 C97 0.929 . S
H105 C119 0.930 . S
H106 C98 0.930 . S
H107 C125 0.930 . S
H108 C116 0.929 . S
H109 C123 0.930 . S
H110 C87 0.931 . S
H111 C117 0.930 . S
H112 C150 0.930 . S
H113 C94 0.930 . S
H114 C149 0.931 . S
N115 Eu84 2.657 1_455 S
N115 C116 1.334 . S
N115 C120 1.362 . S
C116 H108 0.929 . S
C116 N115 1.334 . S
C116 C119 1.413 . S
C117 H111 0.930 . S
C117 C118 1.392 . S
C117 C119 1.367 . S
C118 C117 1.392 . S
C118 C120 1.420 . S
C118 C150 1.423 . S
C119 H105 0.930 . S
C119 C116 1.413 . S
C119 C117 1.367 . S
C120 N115 1.362 . S
C120 C118 1.420 . S
C120 C124 1.429 . S
H121 C126 0.930 . S
N122 Eu84 2.609 1_455 S
N122 C124 1.377 . S
N122 C125 1.321 1_445 S
C123 H109 0.930 . S
C123 C125 1.400 . S
C123 C126 1.386 1_665 S
C124 C120 1.429 . S
C124 N122 1.377 . S
C124 C127 1.411 . S
C125 H107 0.930 . S
C125 N122 1.321 1_665 S
C125 C123 1.400 . S
C126 H121 0.930 . S
C126 C123 1.386 1_445 S
C126 C127 1.395 . S
C127 C124 1.411 . S
C127 C126 1.395 . S
C127 C149 1.420 . S
O128 Eu84 2.558 . S
O128 C148 1.257 . S
O129 Eu84 2.612 1_565 S
O129 Eu95 2.380 1_655 S
O129 C140 1.276 . S
O130 Eu95 2.432 1_545 S
O130 C147 1.264 . S
O131 Eu84 2.339 1_455 S
O131 C147 1.254 . S
O132 Eu84 2.563 1_565 S
O132 C140 1.235 . S
O133 Eu84 2.419 . S
O133 C148 1.249 . S
O134 Eu95 2.558 1_545 S
O134 C159 1.257 1_545 S
O135 Eu84 2.380 1_455 S
O135 Eu95 2.612 1_545 S
O135 C151 1.276 . S
O136 Eu84 2.432 1_565 S
O136 C158 1.264 . S
O137 Eu95 2.339 1_655 S
O137 C158 1.254 . S
O138 Eu95 2.563 1_545 S
O138 C151 1.235 . S
O139 Eu95 2.419 . S
O139 C159 1.249 . S
C140 O129 1.276 . S
C140 O132 1.235 . S
C141 C143 1.393 . S
C141 C145 1.395 . S
C141 C148 1.492 . S
C142 C143 1.392 . S
C142 C144 1.386 . S
C143 C141 1.393 . S
C143 C142 1.392 . S
C143 H160 0.930 . S
C144 C142 1.386 . S
C144 C146 1.395 . S
C144 H161 0.930 . S
C145 C141 1.395 . S
C145 C146 1.379 . S
C145 H162 0.930 . S
C146 C144 1.395 . S
C146 C145 1.379 . S
C146 H163 0.930 . S
C147 O130 1.264 . S
C147 O131 1.254 . S
C148 Eu84 2.848 . S
C148 O128 1.257 . S
C148 O133 1.249 . S
C148 C141 1.492 . S
C149 H114 0.931 . S
C149 C127 1.420 . S
C149 C150 1.351 . S
C150 H112 0.930 . S
C150 C118 1.423 . S
C150 C149 1.351 . S
C151 O135 1.276 . S
C151 O138 1.235 . S
C152 C153 1.393 . S
C152 C156 1.395 . S
C152 C159 1.492 . S
C153 C152 1.393 . S
C153 C154 1.392 . S
C153 H164 0.930 . S
C154 C153 1.392 . S
C154 C155 1.386 . S
C155 C154 1.386 . S
C155 C157 1.395 . S
C155 H165 0.930 . S
C156 C152 1.395 . S
C156 C157 1.379 . S
C156 H166 0.930 1_565 S
C157 C155 1.395 . S
C157 C156 1.379 . S
C157 H167 0.930 . S
C158 O136 1.264 . S
C158 O137 1.254 . S
C159 Eu95 2.848 . S
C159 O134 1.257 1_565 S
C159 O139 1.249 . S
C159 C152 1.492 . S
H160 C143 0.930 . S
H161 C144 0.930 . S
H162 C145 0.930 . S
H163 C146 0.930 . S
H164 C153 0.930 . S
H165 C155 0.930 . S
H166 C156 0.930 1_545 S
H167 C157 0.930 . S
Zn168 O174 1.920 . S
Zn168 O180 1.898 . S
Zn168 O183 1.905 . S
Zn169 O177 1.905 . S
Zn169 O178 1.898 . S
Zn169 O186 1.920 . S
Zn170 O173 2.080 . S
Zn170 O176 2.114 . S
Zn170 O179 2.120 . S
Zn170 O181 2.120 . S
Zn170 O182 2.114 . S
Zn170 O185 2.080 . S
C171 O176 1.166 . S
C171 O177 1.182 . S
C172 O178 1.167 . S
C172 O179 1.299 . S
O173 Zn170 2.080 . S
O173 C187 1.305 . S
O174 Zn168 1.920 . S
O174 C187 1.234 . S
C175 O180 1.167 . S
C175 O181 1.299 . S
O176 Zn170 2.114 . S
O176 C171 1.166 . S
O177 Zn169 1.905 . S
O177 C171 1.182 . S
O178 Zn169 1.898 . S
O178 C172 1.167 . S
O179 Zn170 2.120 . S
O179 C172 1.299 . S
O180 Zn168 1.898 . S
O180 C175 1.167 . S
O181 Zn170 2.120 . S
O181 C175 1.299 . S
O182 Zn170 2.114 . S
O182 C184 1.166 . S
O183 Zn168 1.905 . S
O183 C184 1.182 . S
C184 O182 1.166 . S
C184 O183 1.182 . S
O185 Zn170 2.080 . S
O185 C188 1.305 . S
O186 Zn169 1.920 . S
O186 C188 1.234 . S
C187 O173 1.305 . S
C187 O174 1.234 . S
C188 O185 1.305 . S
C188 O186 1.234 . S
Zn189 O195 1.920 . S
Zn189 O201 1.898 . S
Zn189 O204 1.905 . S
Zn190 O198 1.905 . S
Zn190 O199 1.898 . S
Zn190 O207 1.920 . S
Zn191 O194 2.080 . S
Zn191 O197 2.114 . S
Zn191 O200 2.120 . S
Zn191 O202 2.120 . S
Zn191 O203 2.114 . S
Zn191 O206 2.080 . S
C192 O197 1.166 . S
C192 O198 1.182 . S
C193 O199 1.167 . S
C193 O200 1.299 . S
O194 Zn191 2.080 . S
O194 C208 1.305 . S
O195 Zn189 1.920 . S
O195 C208 1.234 . S
C196 O201 1.167 . S
C196 O202 1.299 . S
O197 Zn191 2.114 . S
O197 C192 1.166 . S
O198 Zn190 1.905 . S
O198 C192 1.182 . S
O199 Zn190 1.898 . S
O199 C193 1.167 . S
O200 Zn191 2.120 . S
O200 C193 1.299 . S
O201 Zn189 1.898 . S
O201 C196 1.167 . S
O202 Zn191 2.120 . S
O202 C196 1.299 . S
O203 Zn191 2.114 . S
O203 C205 1.166 . S
O204 Zn189 1.905 . S
O204 C205 1.182 . S
C205 O203 1.166 . S
C205 O204 1.182 . S
O206 Zn191 2.080 . S
O206 C209 1.305 . S
O207 Zn190 1.920 . S
O207 C209 1.234 . S
C208 O194 1.305 . S
C208 O195 1.234 . S
C209 O206 1.305 . S
C209 O207 1.234 . S
H210 C211 0.951 . S
C211 H210 0.951 . S
C211 C217 1.265 . S
H212 C217 0.950 . S
H213 C221 0.949 . S
H214 C222 0.950 . S
H215 C223 0.951 . S
H216 C224 0.951 . S
C217 C211 1.265 . S
C217 H212 0.950 . S
C217 C218 1.478 . S
C218 C217 1.478 . S
C218 C219 1.397 . S
C218 C235 1.394 . S
C219 C218 1.397 . S
C219 C220 1.438 . S
C219 C224 1.429 . S
C220 C219 1.438 . S
C220 C221 1.428 . S
C220 C233 1.394 . S
C221 H213 0.949 . S
C221 C220 1.428 . S
C221 C222 1.345 . S
C222 H214 0.950 . S
C222 C221 1.345 . S
C222 C223 1.424 . S
C223 H215 0.951 . S
C223 C222 1.424 . S
C223 C224 1.347 . S
C224 H216 0.951 . S
C224 C219 1.429 . S
C224 C223 1.347 . S
H225 C226 0.951 . S
C226 H225 0.951 . S
C226 C232 1.265 . S
H227 C232 0.950 . S
H228 C236 0.949 . S
H229 C237 0.950 . S
H230 C238 0.951 . S
H231 C239 0.951 . S
C232 C226 1.265 . S
C232 H227 0.950 . S
C232 C233 1.478 . S
C233 C220 1.394 . S
C233 C232 1.478 . S
C233 C234 1.397 . S
C234 C233 1.397 . S
C234 C235 1.438 . S
C234 C239 1.429 . S
C235 C218 1.394 . S
C235 C234 1.438 . S
C235 C236 1.428 . S
C236 H228 0.949 . S
C236 C235 1.428 . S
C236 C237 1.345 . S
C237 H229 0.950 . S
C237 C236 1.345 . S
C237 C238 1.424 . S
C238 H230 0.951 . S
C238 C237 1.424 . S
C238 C239 1.347 . S
C239 H231 0.951 . S
C239 C234 1.429 . S
C239 C238 1.347 . S
H240 C241 0.951 . S
C241 H240 0.951 . S
C241 C247 1.265 . S
H242 C247 0.950 . S
H243 C251 0.949 . S
H244 C252 0.950 . S
H245 C253 0.951 . S
H246 C254 0.951 . S
C247 C241 1.265 . S
C247 H242 0.950 . S
C247 C248 1.478 . S
C248 C247 1.478 . S
C248 C249 1.397 . S
C248 C265 1.394 . S
C249 C248 1.397 . S
C249 C250 1.438 . S
C249 C254 1.429 . S
C250 C249 1.438 . S
C250 C251 1.428 . S
C250 C263 1.394 . S
C251 H243 0.949 . S
C251 C250 1.428 . S
C251 C252 1.345 . S
C252 H244 0.950 . S
C252 C251 1.345 . S
C252 C253 1.424 . S
C253 H245 0.951 . S
C253 C252 1.424 . S
C253 C254 1.347 . S
C254 H246 0.951 . S
C254 C249 1.429 . S
C254 C253 1.347 . S
H255 C256 0.951 . S
C256 H255 0.951 . S
C256 C262 1.265 . S
H257 C262 0.950 . S
H258 C266 0.949 1_565 S
H259 C267 0.950 . S
H260 C268 0.951 . S
H261 C269 0.951 . S
C262 C256 1.265 . S
C262 H257 0.950 . S
C262 C263 1.478 . S
C263 C250 1.394 . S
C263 C262 1.478 . S
C263 C264 1.397 . S
C264 C263 1.397 . S
C264 C265 1.438 . S
C264 C269 1.429 . S
C265 C248 1.394 . S
C265 C264 1.438 . S
C265 C266 1.428 . S
C266 H258 0.949 1_545 S
C266 C265 1.428 . S
C266 C267 1.345 1_545 S
C267 H259 0.950 . S
C267 C266 1.345 1_565 S
C267 C268 1.424 . S
C268 H260 0.951 . S
C268 C267 1.424 . S
C268 C269 1.347 1_565 S
C269 H261 0.951 . S
C269 C264 1.429 . S
C269 C268 1.347 1_545 S
H270 C271 0.951 . S
C271 H270 0.951 . S
C271 C277 1.265 . S
H272 C277 0.950 . S
H273 C281 0.949 . S
H274 C282 0.950 . S
H275 C283 0.951 . S
H276 C284 0.951 . S
C277 C271 1.265 . S
C277 H272 0.950 . S
C277 C278 1.478 . S
C278 C277 1.478 . S
C278 C279 1.397 . S
C278 C295 1.394 . S
C279 C278 1.397 . S
C279 C280 1.438 . S
C279 C284 1.429 . S
C280 C279 1.438 . S
C280 C281 1.428 . S
C280 C293 1.394 . S
C281 H273 0.949 . S
C281 C280 1.428 . S
C281 C282 1.345 . S
C282 H274 0.950 . S
C282 C281 1.345 . S
C282 C283 1.424 . S
C283 H275 0.951 . S
C283 C282 1.424 . S
C283 C284 1.347 . S
C284 H276 0.951 . S
C284 C279 1.429 . S
C284 C283 1.347 . S
H285 C286 0.951 . S
C286 H285 0.951 . S
C286 C292 1.265 . S
H287 C292 0.950 . S
H288 C296 0.949 . S
H289 C297 0.950 . S
H290 C298 0.951 . S
H291 C299 0.951 . S
C292 C286 1.265 . S
C292 H287 0.950 . S
C292 C293 1.478 . S
C293 C280 1.394 . S
C293 C292 1.478 . S
C293 C294 1.397 . S
C294 C293 1.397 . S
C294 C295 1.438 . S
C294 C299 1.429 . S
C295 C278 1.394 . S
C295 C294 1.438 . S
C295 C296 1.428 . S
C296 H288 0.949 . S
C296 C295 1.428 . S
C296 C297 1.345 . S
C297 H289 0.950 . S
C297 C296 1.345 . S
C297 C298 1.424 . S
C298 H290 0.951 . S
C298 C297 1.424 . S
C298 C299 1.347 . S
C299 H291 0.951 . S
C299 C294 1.429 . S
C299 C298 1.347 . S
H300 C301 0.951 . S
C301 H300 0.951 . S
C301 C307 1.265 . S
H302 C307 0.950 . S
H303 C311 0.949 . S
H304 C312 0.950 . S
H305 C313 0.951 . S
H306 C314 0.951 . S
C307 C301 1.265 . S
C307 H302 0.950 . S
C307 C308 1.478 . S
C308 C307 1.478 . S
C308 C309 1.397 . S
C308 C325 1.394 . S
C309 C308 1.397 . S
C309 C310 1.438 . S
C309 C314 1.429 . S
C310 C309 1.438 . S
C310 C311 1.428 . S
C310 C323 1.394 . S
C311 H303 0.949 . S
C311 C310 1.428 . S
C311 C312 1.345 . S
C312 H304 0.950 . S
C312 C311 1.345 . S
C312 C313 1.424 . S
C313 H305 0.951 . S
C313 C312 1.424 . S
C313 C314 1.347 . S
C314 H306 0.951 . S
C314 C309 1.429 . S
C314 C313 1.347 . S
H315 C316 0.951 . S
C316 H315 0.951 . S
C316 C322 1.265 . S
H317 C322 0.950 . S
H318 C326 0.949 . S
H319 C327 0.950 . S
H320 C328 0.951 . S
H321 C329 0.951 . S
C322 C316 1.265 . S
C322 H317 0.950 . S
C322 C323 1.478 . S
C323 C310 1.394 . S
C323 C322 1.478 . S
C323 C324 1.397 . S
C324 C323 1.397 . S
C324 C325 1.438 . S
C324 C329 1.429 . S
C325 C308 1.394 . S
C325 C324 1.438 . S
C325 C326 1.428 . S
C326 H318 0.949 . S
C326 C325 1.428 . S
C326 C327 1.345 . S
C327 H319 0.950 . S
C327 C326 1.345 . S
C327 C328 1.424 . S
C328 H320 0.951 . S
C328 C327 1.424 . S
C328 C329 1.347 . S
C329 H321 0.951 . S
C329 C324 1.429 . S
C329 C328 1.347 . S
H330 C331 0.951 . S
C331 H330 0.951 . S
C331 C337 1.265 . S
H332 C337 0.950 . S
H333 C341 0.949 . S
H334 C342 0.950 . S
H335 C343 0.951 . S
H336 C344 0.951 1_545 S
C337 C331 1.265 . S
C337 H332 0.950 . S
C337 C338 1.478 . S
C338 C337 1.478 . S
C338 C339 1.397 . S
C338 C355 1.394 . S
C339 C338 1.397 . S
C339 C340 1.438 . S
C339 C344 1.429 . S
C340 C339 1.438 . S
C340 C341 1.428 . S
C340 C353 1.394 . S
C341 H333 0.949 . S
C341 C340 1.428 . S
C341 C342 1.345 1_565 S
C342 H334 0.950 . S
C342 C341 1.345 1_545 S
C342 C343 1.424 . S
C343 H335 0.951 . S
C343 C342 1.424 . S
C343 C344 1.347 1_545 S
C344 H336 0.951 1_565 S
C344 C339 1.429 . S
C344 C343 1.347 1_565 S
H345 C346 0.951 . S
C346 H345 0.951 . S
C346 C352 1.265 . S
H347 C352 0.950 . S
H348 C356 0.949 . S
H349 C357 0.950 . S
H350 C358 0.951 . S
H351 C359 0.951 . S
C352 C346 1.265 . S
C352 H347 0.950 . S
C352 C353 1.478 . S
C353 C340 1.394 . S
C353 C352 1.478 . S
C353 C354 1.397 . S
C354 C353 1.397 . S
C354 C355 1.438 . S
C354 C359 1.429 . S
C355 C338 1.394 . S
C355 C354 1.438 . S
C355 C356 1.428 . S
C356 H348 0.949 . S
C356 C355 1.428 . S
C356 C357 1.345 . S
C357 H349 0.950 . S
C357 C356 1.345 . S
C357 C358 1.424 . S
C358 H350 0.951 . S
C358 C357 1.424 . S
C358 C359 1.347 . S
C359 H351 0.951 . S
C359 C354 1.429 . S
C359 C358 1.347 . S
H360 C361 0.951 . S
C361 H360 0.951 . S
C361 C367 1.265 . S
H362 C367 0.950 . S
H363 C371 0.949 . S
H364 C372 0.950 . S
H365 C373 0.951 . S
H366 C374 0.951 . S
C367 C361 1.265 . S
C367 H362 0.950 . S
C367 C368 1.478 . S
C368 C367 1.478 . S
C368 C369 1.397 . S
C368 C385 1.394 . S
C369 C368 1.397 . S
C369 C370 1.438 . S
C369 C374 1.429 . S
C370 C369 1.438 . S
C370 C371 1.428 . S
C370 C383 1.394 . S
C371 H363 0.949 . S
C371 C370 1.428 . S
C371 C372 1.345 . S
C372 H364 0.950 . S
C372 C371 1.345 . S
C372 C373 1.424 . S
C373 H365 0.951 . S
C373 C372 1.424 . S
C373 C374 1.347 . S
C374 H366 0.951 . S
C374 C369 1.429 . S
C374 C373 1.347 . S
H375 C376 0.951 . S
C376 H375 0.951 . S
C376 C382 1.265 . S
H377 C382 0.950 . S
H378 C386 0.949 . S
H379 C387 0.950 1_455 S
H380 C388 0.951 . S
H381 C389 0.951 . S
C382 C376 1.265 . S
C382 H377 0.950 . S
C382 C383 1.478 . S
C383 C370 1.394 . S
C383 C382 1.478 . S
C383 C384 1.397 . S
C384 C383 1.397 . S
C384 C385 1.438 . S
C384 C389 1.429 . S
C385 C368 1.394 . S
C385 C384 1.438 . S
C385 C386 1.428 . S
C386 H378 0.949 . S
C386 C385 1.428 . S
C386 C387 1.345 . S
C387 H379 0.950 1_655 S
C387 C386 1.345 . S
C387 C388 1.424 . S
C388 H380 0.951 . S
C388 C387 1.424 . S
C388 C389 1.347 . S
C389 H381 0.951 . S
C389 C384 1.429 . S
C389 C388 1.347 . S
H390 C391 0.951 . S
C391 H390 0.951 . S
C391 C397 1.265 . S
H392 C397 0.950 . S
H393 C401 0.949 . S
H394 C402 0.950 . S
H395 C403 0.951 . S
H396 C404 0.951 . S
C397 C391 1.265 . S
C397 H392 0.950 . S
C397 C398 1.478 . S
C398 C397 1.478 . S
C398 C399 1.397 . S
C398 C415 1.394 . S
C399 C398 1.397 . S
C399 C400 1.438 . S
C399 C404 1.429 . S
C400 C399 1.438 . S
C400 C401 1.428 . S
C400 C413 1.394 . S
C401 H393 0.949 . S
C401 C400 1.428 . S
C401 C402 1.345 . S
C402 H394 0.950 . S
C402 C401 1.345 . S
C402 C403 1.424 . S
C403 H395 0.951 . S
C403 C402 1.424 . S
C403 C404 1.347 . S
C404 H396 0.951 . S
C404 C399 1.429 . S
C404 C403 1.347 . S
H405 C406 0.951 . S
C406 H405 0.951 . S
C406 C412 1.265 . S
H407 C412 0.950 . S
H408 C416 0.949 . S
H409 C417 0.950 . S
H410 C418 0.951 . S
H411 C419 0.951 . S
C412 C406 1.265 . S
C412 H407 0.950 . S
C412 C413 1.478 . S
C413 C400 1.394 . S
C413 C412 1.478 . S
C413 C414 1.397 . S
C414 C413 1.397 . S
C414 C415 1.438 . S
C414 C419 1.429 . S
C415 C398 1.394 . S
C415 C414 1.438 . S
C415 C416 1.428 . S
C416 H408 0.949 . S
C416 C415 1.428 . S
C416 C417 1.345 . S
C417 H409 0.950 . S
C417 C416 1.345 . S
C417 C418 1.424 . S
C418 H410 0.951 . S
C418 C417 1.424 . S
C418 C419 1.347 . S
C419 H411 0.951 . S
C419 C414 1.429 . S
C419 C418 1.347 . S
H420 C421 0.951 . S
C421 H420 0.951 . S
C421 C427 1.265 . S
H422 C427 0.950 . S
H423 C431 0.949 . S
H424 C432 0.950 . S
H425 C433 0.923 1_554 S
H426 C434 0.951 . S
C427 C421 1.265 . S
C427 H422 0.950 . S
C427 C428 1.478 . S
C428 C427 1.478 . S
C428 C429 1.397 . S
C428 C445 1.394 . S
C429 C428 1.397 . S
C429 C430 1.438 . S
C429 C434 1.429 . S
C430 C429 1.438 . S
C430 C431 1.428 . S
C430 C443 1.394 . S
C431 H423 0.949 . S
C431 C430 1.428 . S
C431 C432 1.345 . S
C432 H424 0.950 . S
C432 C431 1.345 . S
C432 C433 1.424 . S
C433 H425 0.923 1_556 S
C433 C432 1.424 . S
C433 C434 1.347 . S
C434 H426 0.951 . S
C434 C429 1.429 . S
C434 C433 1.347 . S
H435 C436 0.951 . S
C436 H435 0.951 . S
C436 C442 1.265 . S
H437 C442 0.950 . S
H438 C446 0.949 . S
H439 C447 0.950 . S
H440 C448 0.951 . S
H441 C449 0.951 . S
C442 C436 1.265 . S
C442 H437 0.950 . S
C442 C443 1.478 . S
C443 C430 1.394 . S
C443 C442 1.478 . S
C443 C444 1.397 . S
C444 C443 1.397 . S
C444 C445 1.438 . S
C444 C449 1.429 . S
C445 C428 1.394 . S
C445 C444 1.438 . S
C445 C446 1.428 . S
C446 H438 0.949 . S
C446 C445 1.428 . S
C446 C447 1.345 . S
C447 H439 0.950 . S
C447 C446 1.345 . S
C447 C448 1.424 . S
C448 H440 0.951 . S
C448 C447 1.424 . S
C448 C449 1.347 . S
C449 H441 0.951 . S
C449 C444 1.429 . S
C449 C448 1.347 . S
H450 C451 0.951 . S
C451 H450 0.951 . S
C451 C457 1.265 . S
H452 C457 0.950 . S
H453 C461 0.949 . S
H454 C462 0.950 1_655 S
H455 C463 0.951 . S
H456 C464 0.951 1_655 S
C457 C451 1.265 . S
C457 H452 0.950 . S
C457 C458 1.478 . S
C458 C457 1.478 . S
C458 C459 1.397 . S
C458 C475 1.394 . S
C459 C458 1.397 . S
C459 C460 1.438 . S
C459 C464 1.429 . S
C460 C459 1.438 . S
C460 C461 1.428 . S
C460 C473 1.394 . S
C461 H453 0.949 . S
C461 C460 1.428 . S
C461 C462 1.345 . S
C462 H454 0.950 1_455 S
C462 C461 1.345 . S
C462 C463 1.424 1_455 S
C463 H455 0.951 . S
C463 C462 1.424 1_655 S
C463 C464 1.347 1_655 S
C464 H456 0.951 1_455 S
C464 C459 1.429 . S
C464 C463 1.347 1_455 S
H465 C466 0.951 . S
C466 H465 0.951 . S
C466 C472 1.265 . S
H467 C472 0.950 . S
H468 C476 0.949 . S
H469 C477 0.950 . S
H470 C478 0.951 . S
H471 C479 0.951 . S
C472 C466 1.265 . S
C472 H467 0.950 . S
C472 C473 1.478 . S
C473 C460 1.394 . S
C473 C472 1.478 . S
C473 C474 1.397 . S
C474 C473 1.397 . S
C474 C475 1.438 . S
C474 C479 1.429 . S
C475 C458 1.394 . S
C475 C474 1.438 . S
C475 C476 1.428 . S
C476 H468 0.949 . S
C476 C475 1.428 . S
C476 C477 1.345 . S
C477 H469 0.950 . S
C477 C476 1.345 . S
C477 C478 1.424 . S
C478 H470 0.951 . S
C478 C477 1.424 . S
C478 C479 1.347 . S
C479 H471 0.951 . S
C479 C474 1.429 . S
C479 C478 1.347 . S
H480 C481 0.951 . S
C481 H480 0.951 . S
C481 C487 1.265 . S
H482 C487 0.950 . S
H483 C491 0.949 . S
H484 C492 0.950 . S
H485 C493 0.951 . S
H486 C494 0.951 . S
C487 C481 1.265 . S
C487 H482 0.950 . S
C487 C488 1.478 . S
C488 C487 1.478 . S
C488 C489 1.397 . S
C488 C505 1.394 . S
C489 C488 1.397 . S
C489 C490 1.438 . S
C489 C494 1.429 . S
C490 C489 1.438 . S
C490 C491 1.428 . S
C490 C503 1.394 . S
C491 H483 0.949 . S
C491 C490 1.428 . S
C491 C492 1.345 . S
C492 H484 0.950 . S
C492 C491 1.345 . S
C492 C493 1.424 . S
C493 H485 0.951 . S
C493 C492 1.424 . S
C493 C494 1.347 . S
C494 H486 0.951 . S
C494 C489 1.429 . S
C494 C493 1.347 . S
H495 C496 0.951 . S
C496 H495 0.951 . S
C496 C502 1.265 . S
H497 C502 0.950 . S
H498 C506 0.949 . S
H499 C507 0.950 . S
H500 C508 0.951 . S
H501 C509 0.951 . S
C502 C496 1.265 . S
C502 H497 0.950 . S
C502 C503 1.478 . S
C503 C490 1.394 . S
C503 C502 1.478 . S
C503 C504 1.397 . S
C504 C503 1.397 . S
C504 C505 1.438 . S
C504 C509 1.429 . S
C505 C488 1.394 . S
C505 C504 1.438 . S
C505 C506 1.428 . S
C506 H498 0.949 . S
C506 C505 1.428 . S
C506 C507 1.345 . S
C507 H499 0.950 . S
C507 C506 1.345 . S
C507 C508 1.424 . S
C508 H500 0.951 . S
C508 C507 1.424 . S
C508 C509 1.347 . S
C509 H501 0.951 . S
C509 C504 1.429 . S
C509 C508 1.347 . S
H510 C511 0.951 . S
C511 H510 0.951 . S
C511 C517 1.265 . S
H512 C517 0.950 . S
H513 C521 0.949 . S
H514 C522 0.950 1_545 S
H515 C523 0.951 . S
H516 C524 0.951 1_545 S
C517 C511 1.265 . S
C517 H512 0.950 . S
C517 C518 1.478 . S
C518 C517 1.478 . S
C518 C519 1.397 . S
C518 C535 1.394 . S
C519 C518 1.397 . S
C519 C520 1.438 . S
C519 C524 1.429 . S
C520 C519 1.438 . S
C520 C521 1.428 . S
C520 C533 1.394 . S
C521 H513 0.949 . S
C521 C520 1.428 . S
C521 C522 1.345 . S
C522 H514 0.950 1_565 S
C522 C521 1.345 . S
C522 C523 1.424 1_565 S
C523 H515 0.951 . S
C523 C522 1.424 1_545 S
C523 C524 1.347 1_545 S
C524 H516 0.951 1_565 S
C524 C519 1.429 . S
C524 C523 1.347 1_565 S
H525 C526 0.951 . S
C526 H525 0.951 . S
C526 C532 1.265 . S
H527 C532 0.950 . S
H528 C536 0.949 . S
H529 C537 0.950 . S
H530 C538 0.951 . S
H531 C539 0.951 . S
C532 C526 1.265 . S
C532 H527 0.950 . S
C532 C533 1.478 . S
C533 C520 1.394 . S
C533 C532 1.478 . S
C533 C534 1.397 . S
C534 C533 1.397 . S
C534 C535 1.438 . S
C534 C539 1.429 . S
C535 C518 1.394 . S
C535 C534 1.438 . S
C535 C536 1.428 . S
C536 H528 0.949 . S
C536 C535 1.428 . S
C536 C537 1.345 . S
C537 H529 0.950 . S
C537 C536 1.345 . S
C537 C538 1.424 . S
C538 H530 0.951 . S
C538 C537 1.424 . S
C538 C539 1.347 . S
C539 H531 0.951 . S
C539 C534 1.429 . S
C539 C538 1.347 . S
H540 C541 0.951 . S
C541 H540 0.951 . S
C541 C547 1.265 . S
H542 C547 0.950 . S
H543 C551 0.949 . S
H544 C552 0.950 . S
H545 C553 0.979 . S
H546 C554 0.951 . S
C547 C541 1.265 . S
C547 H542 0.950 . S
C547 C548 1.478 . S
C548 C547 1.478 . S
C548 C549 1.397 . S
C548 C565 1.394 . S
C549 C548 1.397 . S
C549 C550 1.438 . S
C549 C554 1.429 . S
C550 C549 1.438 . S
C550 C551 1.428 . S
C550 C563 1.394 . S
C551 H543 0.949 . S
C551 C550 1.428 . S
C551 C552 1.345 . S
C552 H544 0.950 . S
C552 C551 1.345 . S
C552 C553 1.424 . S
C553 H545 0.979 . S
C553 C552 1.424 . S
C553 C554 1.347 . S
C554 H546 0.951 . S
C554 C549 1.429 . S
C554 C553 1.347 . S
H555 C556 0.951 . S
C556 H555 0.951 . S
C556 C562 1.265 . S
H557 C562 0.950 . S
H558 C566 0.949 . S
H559 C567 0.950 . S
H560 C568 0.951 . S
H561 C569 0.951 . S
C562 C556 1.265 . S
C562 H557 0.950 . S
C562 C563 1.478 . S
C563 C550 1.394 . S
C563 C562 1.478 . S
C563 C564 1.397 . S
C564 C563 1.397 . S
C564 C565 1.438 . S
C564 C569 1.429 . S
C565 C548 1.394 . S
C565 C564 1.438 . S
C565 C566 1.428 . S
C566 H558 0.949 . S
C566 C565 1.428 . S
C566 C567 1.345 . S
C567 H559 0.950 . S
C567 C566 1.345 . S
C567 C568 1.424 . S
C568 H560 0.951 . S
C568 C567 1.424 . S
C568 C569 1.347 . S
C569 H561 0.951 . S
C569 C564 1.429 . S
C569 C568 1.347 . S
C211 C58 1.184 . S
C226 C187 1.318 . S
C241 C151 1.606 . S
C256 C193 1.378 . S
C271 C74 1.584 . S
C286 C184 1.477 . S
C301 C142 1.218 . S
C316 C209 1.260 . S
C331 C67 1.522 . S
C346 C175 1.478 . S
C376 C192 1.488 . S
C361 C158 1.582 . S
C391 C154 1.207 . S
C406 C188 1.316 . S
C436 C205 1.468 . S
C421 C56 1.585 . S
C466 C172 1.479 . S
C451 C147 1.532 . S
C496 C208 1.295 . S
C481 C70 1.191 . S
C526 C171 1.412 . S
C511 C140 1.610 . S
C556 C196 1.441 . S
C541 C63 1.522 . S
