# Generated by pormake.
# Topology soc, (4,6)-cn, num edge types: 1
# Building blocks:
#     Node 0, Type 0, BuildingBlock: ESEHIV_clean_sbu_0, # of connection points: 4
#     Node 1, Type 0, BuildingBlock: ESEHIV_clean_sbu_0, # of connection points: 4
#     Node 2, Type 0, BuildingBlock: ESEHIV_clean_sbu_0, # of connection points: 4
#     Node 3, Type 0, BuildingBlock: ESEHIV_clean_sbu_0, # of connection points: 4
#     Node 4, Type 0, BuildingBlock: ESEHIV_clean_sbu_0, # of connection points: 4
#     Node 5, Type 0, BuildingBlock: ESEHIV_clean_sbu_0, # of connection points: 4
#     Node 6, Type 0, BuildingBlock: ESEHIV_clean_sbu_0, # of connection points: 4
#     Node 7, Type 0, BuildingBlock: ESEHIV_clean_sbu_0, # of connection points: 4
#     Node 8, Type 0, BuildingBlock: ESEHIV_clean_sbu_0, # of connection points: 4
#     Node 9, Type 0, BuildingBlock: ESEHIV_clean_sbu_0, # of connection points: 4
#     Node 10, Type 0, BuildingBlock: ESEHIV_clean_sbu_0, # of connection points: 4
#     Node 11, Type 0, BuildingBlock: ESEHIV_clean_sbu_0, # of connection points: 4
#     Node 12, Type 1, BuildingBlock: PAMTOO_clean_sbu_0, # of connection points: 6
#     Node 13, Type 1, BuildingBlock: PAMTOO_clean_sbu_0, # of connection points: 6
#     Node 14, Type 1, BuildingBlock: PAMTOO_clean_sbu_0, # of connection points: 6
#     Node 15, Type 1, BuildingBlock: PAMTOO_clean_sbu_0, # of connection points: 6
#     Node 16, Type 1, BuildingBlock: PAMTOO_clean_sbu_0, # of connection points: 6
#     Node 17, Type 1, BuildingBlock: PAMTOO_clean_sbu_0, # of connection points: 6
#     Node 18, Type 1, BuildingBlock: PAMTOO_clean_sbu_0, # of connection points: 6
#     Node 19, Type 1, BuildingBlock: PAMTOO_clean_sbu_0, # of connection points: 6
#     Edge 20, Type (0, 1), BuildingBlock: UVAHIK_clean_linker_0, # of connection points: 2
#     Edge 21, Type (0, 1), BuildingBlock: UVAHIK_clean_linker_0, # of connection points: 2
#     Edge 22, Type (0, 1), BuildingBlock: UVAHIK_clean_linker_0, # of connection points: 2
#     Edge 23, Type (0, 1), BuildingBlock: UVAHIK_clean_linker_0, # of connection points: 2
#     Edge 24, Type (0, 1), BuildingBlock: UVAHIK_clean_linker_0, # of connection points: 2
#     Edge 25, Type (0, 1), BuildingBlock: UVAHIK_clean_linker_0, # of connection points: 2
#     Edge 26, Type (0, 1), BuildingBlock: UVAHIK_clean_linker_0, # of connection points: 2
#     Edge 27, Type (0, 1), BuildingBlock: UVAHIK_clean_linker_0, # of connection points: 2
#     Edge 28, Type (0, 1), BuildingBlock: UVAHIK_clean_linker_0, # of connection points: 2
#     Edge 29, Type (0, 1), BuildingBlock: UVAHIK_clean_linker_0, # of connection points: 2
#     Edge 30, Type (0, 1), BuildingBlock: UVAHIK_clean_linker_0, # of connection points: 2
#     Edge 31, Type (0, 1), BuildingBlock: UVAHIK_clean_linker_0, # of connection points: 2
#     Edge 32, Type (0, 1), BuildingBlock: UVAHIK_clean_linker_0, # of connection points: 2
#     Edge 33, Type (0, 1), BuildingBlock: UVAHIK_clean_linker_0, # of connection points: 2
#     Edge 34, Type (0, 1), BuildingBlock: UVAHIK_clean_linker_0, # of connection points: 2
#     Edge 35, Type (0, 1), BuildingBlock: UVAHIK_clean_linker_0, # of connection points: 2
#     Edge 36, Type (0, 1), BuildingBlock: UVAHIK_clean_linker_0, # of connection points: 2
#     Edge 37, Type (0, 1), BuildingBlock: UVAHIK_clean_linker_0, # of connection points: 2
#     Edge 38, Type (0, 1), BuildingBlock: UVAHIK_clean_linker_0, # of connection points: 2
#     Edge 39, Type (0, 1), BuildingBlock: UVAHIK_clean_linker_0, # of connection points: 2
#     Edge 40, Type (0, 1), BuildingBlock: UVAHIK_clean_linker_0, # of connection points: 2
#     Edge 41, Type (0, 1), BuildingBlock: UVAHIK_clean_linker_0, # of connection points: 2
#     Edge 42, Type (0, 1), BuildingBlock: UVAHIK_clean_linker_0, # of connection points: 2
#     Edge 43, Type (0, 1), BuildingBlock: UVAHIK_clean_linker_0, # of connection points: 2
#     Edge 44, Type (0, 1), BuildingBlock: UVAHIK_clean_linker_0, # of connection points: 2
#     Edge 45, Type (0, 1), BuildingBlock: UVAHIK_clean_linker_0, # of connection points: 2
#     Edge 46, Type (0, 1), BuildingBlock: UVAHIK_clean_linker_0, # of connection points: 2
#     Edge 47, Type (0, 1), BuildingBlock: UVAHIK_clean_linker_0, # of connection points: 2
#     Edge 48, Type (0, 1), BuildingBlock: UVAHIK_clean_linker_0, # of connection points: 2
#     Edge 49, Type (0, 1), BuildingBlock: UVAHIK_clean_linker_0, # of connection points: 2
#     Edge 50, Type (0, 1), BuildingBlock: UVAHIK_clean_linker_0, # of connection points: 2
#     Edge 51, Type (0, 1), BuildingBlock: UVAHIK_clean_linker_0, # of connection points: 2
#     Edge 52, Type (0, 1), BuildingBlock: UVAHIK_clean_linker_0, # of connection points: 2
#     Edge 53, Type (0, 1), BuildingBlock: UVAHIK_clean_linker_0, # of connection points: 2
#     Edge 54, Type (0, 1), BuildingBlock: UVAHIK_clean_linker_0, # of connection points: 2
#     Edge 55, Type (0, 1), BuildingBlock: UVAHIK_clean_linker_0, # of connection points: 2
#     Edge 56, Type (0, 1), BuildingBlock: UVAHIK_clean_linker_0, # of connection points: 2
#     Edge 57, Type (0, 1), BuildingBlock: UVAHIK_clean_linker_0, # of connection points: 2
#     Edge 58, Type (0, 1), BuildingBlock: UVAHIK_clean_linker_0, # of connection points: 2
#     Edge 59, Type (0, 1), BuildingBlock: UVAHIK_clean_linker_0, # of connection points: 2
#     Edge 60, Type (0, 1), BuildingBlock: UVAHIK_clean_linker_0, # of connection points: 2
#     Edge 61, Type (0, 1), BuildingBlock: UVAHIK_clean_linker_0, # of connection points: 2
#     Edge 62, Type (0, 1), BuildingBlock: UVAHIK_clean_linker_0, # of connection points: 2
#     Edge 63, Type (0, 1), BuildingBlock: UVAHIK_clean_linker_0, # of connection points: 2
#     Edge 64, Type (0, 1), BuildingBlock: UVAHIK_clean_linker_0, # of connection points: 2
#     Edge 65, Type (0, 1), BuildingBlock: UVAHIK_clean_linker_0, # of connection points: 2
#     Edge 66, Type (0, 1), BuildingBlock: UVAHIK_clean_linker_0, # of connection points: 2
#     Edge 67, Type (0, 1), BuildingBlock: UVAHIK_clean_linker_0, # of connection points: 2
# Relax obj value: 0.089
# Max RMSD: 0.191
# Mean RMSD: 0.137
data_MOF--net-soc--node1-ESEHIV_clean_sbu_0--node2-PAMTOO_clean_sbu_0--edge1-UVAHIK_clean_linker_0
_symmetry_space_group_name_H-M    P1
_symmetry_Int_Tables_number       1
_symmetry_cell_setting            triclinic
loop_
_symmetry_equiv_pos_as_xyz
'x, y, z'
_cell_length_a     70.251569
_cell_length_b     57.370596
_cell_length_c     55.249502
_cell_angle_alpha  91.649444
_cell_angle_beta   91.618434
_cell_angle_gamma 74.633174
loop_
_atom_site_label
_atom_site_type_symbol
_atom_site_fract_x
_atom_site_fract_y
_atom_site_fract_z
_atom_type_partial_charge
Cu0 Cu 0.05014 0.02371 0.31448 0.0
N1 N 0.06367 0.04018 0.33558 0.0
N2 N 0.08143 0.06555 0.34809 0.0
C3 C 0.07124 0.0584 0.32951 0.0
C4 C 0.0798 0.05157 0.36676 0.0
C5 C 0.06879 0.03603 0.35902 0.0
O6 O 0.06933 1.00171 0.29377 0.0
C7 C 0.01645 0.06046 0.31408 0.0
O8 O 0.01991 0.05607 0.33723 0.0
H9 H 0.06985 0.06565 0.3115 0.0
H10 H 0.06505 0.02247 0.36971 0.0
N11 N 0.0388 1.00328 0.33144 0.0
N12 N 0.01847 0.98032 0.33896 0.0
C13 C 0.02112 0.99908 0.32643 0.0
C14 C 0.04776 0.98654 0.34755 0.0
C15 C 0.03521 0.97251 0.35239 0.0
C16 C 0.08469 0.00582 0.28505 0.0
O17 O 0.08662 0.02796 0.2856 0.0
H18 H 0.0108 0.00903 0.31309 0.0
H19 H 0.06281 0.98374 0.35415 0.0
O20 O 0.0286 0.04787 0.29892 0.0
H21 H 0.08625 0.05228 0.38469 0.0
H22 H 0.03873 0.95682 0.36374 0.0
Cu23 Cu 0.04479 0.01873 0.70206 0.0
N24 N 0.03181 0.99974 0.68332 0.0
N25 N 0.01112 0.97683 0.67505 0.0
C26 C 0.01808 0.98997 0.69206 0.0
C27 C 0.02096 0.97834 0.65475 0.0
C28 C 0.0337 0.99256 0.6599 0.0
O29 O 0.02415 0.04213 0.7197 0.0
C30 C 0.077 0.98086 0.70766 0.0
O31 O 0.07432 0.98213 0.68406 0.0
H32 H 0.01356 0.99221 0.71073 0.0
H33 H 0.04373 0.99711 0.64751 0.0
N34 N 0.05761 0.03627 0.68338 0.0
N35 N 0.07805 0.05882 0.67523 0.0
C36 C 0.07236 0.04536 0.69181 0.0
C37 C 0.05377 0.04419 0.6606 0.0
C38 C 0.06637 0.05815 0.65552 0.0
C39 C 0.01031 0.05364 0.70565 0.0
O40 O 0.01186 0.049 0.68226 0.0
H41 H 0.07826 0.04284 0.71014 0.0
H42 H 0.04231 0.04064 0.64875 0.0
O43 O 0.06526 0.99641 0.72103 0.0
H44 H 0.01899 0.96996 0.63739 0.0
H45 H 0.06677 0.06722 0.63871 0.0
Cu46 Cu 0.27045 0.02916 0.01626 0.0
N47 N 0.25267 0.0162 0.99831 0.0
N48 N 0.24263 0.98916 0.97512 0.0
C49 C 0.25724 0.99344 0.98938 0.0
C50 C 0.22822 0.01005 0.97503 0.0
C51 C 0.23441 0.02672 0.98956 0.0
O52 O 0.28553 1.00314 0.03683 0.0
C53 C 0.27399 0.05992 0.98106 0.0
O54 O 0.25501 0.06634 0.98541 0.0
H55 H 0.2715 0.98068 0.99219 0.0
H56 H 0.22644 0.0454 0.99267 0.0
N57 N 0.2575 0.05406 0.03705 0.0
N58 N 0.25422 0.08213 0.06649 0.0
C59 C 0.26672 0.0673 0.05117 0.0
C60 C 0.23845 0.06078 0.04351 0.0
C61 C 0.23639 0.07813 0.06175 0.0
C62 C 0.27449 0.99581 0.05115 0.0
O63 O 0.25539 0.00597 0.05009 0.0
H64 H 0.28251 0.06509 0.05108 0.0
H65 H 0.22706 0.05288 0.03631 0.0
O66 O 0.28512 0.04301 0.99346 0.0
H67 H 0.21451 0.01323 0.96463 0.0
H68 H 0.22294 0.08669 0.07116 0.0
Cu69 Cu 0.08276 0.31561 0.01858 0.0
N70 N 0.0951 0.33337 0.99955 0.0
N71 N 0.114 0.34194 0.97106 0.0
C72 C 0.10484 0.32573 0.97895 0.0
C73 C 0.1096 0.3606 0.98722 0.0
C74 C 0.09791 0.35527 0.00475 0.0
O75 O 0.10161 0.29845 0.04313 0.0
C76 C 0.05893 0.28393 0.00412 0.0
O77 O 0.05773 0.28094 0.02747 0.0
H78 H 0.10617 0.30801 0.97077 0.0
H79 H 0.09244 0.36619 0.02062 0.0
N80 N 0.0626 0.33678 0.03572 0.0
N81 N 0.03322 0.34992 0.0531 0.0
C82 C 0.04331 0.33747 0.03431 0.0
C83 C 0.06474 0.34988 0.05569 0.0
C84 C 0.04663 0.35809 0.06642 0.0
C85 C 0.12028 0.29301 0.04075 0.0
O86 O 0.12744 0.29549 0.01957 0.0
H87 H 0.03702 0.32778 0.02058 0.0
H88 H 0.07876 0.35163 0.06298 0.0
O89 O 0.07047 0.29598 0.99695 0.0
H90 H 0.11484 0.3767 0.98675 0.0
H91 H 0.04396 0.36746 0.08379 0.0
Cu92 Cu 0.81432 0.02171 0.01491 0.0
N93 N 0.83173 0.03253 0.99617 0.0
N94 N 0.84132 0.05639 0.97072 0.0
C95 C 0.82686 0.05384 0.98502 0.0
C96 C 0.85591 0.03578 0.97275 0.0
C97 C 0.84998 0.02108 0.98868 0.0
O98 O 0.79832 0.04997 0.03263 0.0
C99 C 0.81171 0.98453 0.98359 0.0
O100 O 0.83006 0.97751 0.99167 0.0
H101 H 0.81255 0.06676 0.98652 0.0
H102 H 0.85811 1.00306 0.9938 0.0
N103 N 0.82772 1.00056 0.03838 0.0
N104 N 0.83206 0.97454 0.06853 0.0
C105 C 0.81981 0.98571 0.0507 0.0
C106 C 0.84564 0.99876 0.04865 0.0
C107 C 0.84836 0.98268 0.06735 0.0
C108 C 0.80825 0.06325 0.04309 0.0
O109 O 0.82752 0.05728 0.04101 0.0
H110 H 0.80496 0.98406 0.04737 0.0
H111 H 0.85569 0.00902 0.04346 0.0
O112 O 0.80064 1.00419 0.9923 0.0
H113 H 0.86964 0.03151 0.96308 0.0
H114 H 0.86115 0.97768 0.07937 0.0
Cu115 Cu 0.01072 0.721 0.01156 0.0
N116 N 0.99708 0.70337 0.99196 0.0
N117 N 0.97608 0.69616 0.96331 0.0
C118 C 0.98572 0.71201 0.97249 0.0
C119 C 0.98178 0.67664 0.9775 0.0
C120 C 0.99474 0.68114 0.99513 0.0
O121 O 0.9928 0.73851 0.03633 0.0
C122 C 0.03241 0.7286 0.97333 0.0
O123 O 0.03206 0.70603 0.9693 0.0
H124 H 0.98386 0.73011 0.96597 0.0
H125 H 1.00151 0.66929 0.00961 0.0
N126 N 0.03191 0.70105 0.02837 0.0
N127 N 0.06076 0.69229 0.04884 0.0
C128 C 0.04919 0.7066 0.03227 0.0
C129 C 0.03249 0.68244 0.04288 0.0
C130 C 0.05037 0.67684 0.0554 0.0
C131 C 0.97438 0.74777 0.03274 0.0
O132 O 0.96718 0.74928 0.01048 0.0
H133 H 0.05269 0.72174 0.02395 0.0
H134 H 0.0203 0.67463 0.04549 0.0
O135 O 0.02276 0.74025 0.99109 0.0
H136 H 0.97672 0.66042 0.97555 0.0
H137 H 0.05473 0.66362 0.06948 0.0
Cu138 Cu 0.54777 0.51828 0.81278 0.0
N139 N 0.56116 0.53647 0.83203 0.0
N140 N 0.5773 0.56428 0.84189 0.0
C141 C 0.56595 0.55645 0.82509 0.0
C142 C 0.57938 0.54883 0.86036 0.0
C143 C 0.56942 0.53171 0.85423 0.0
O144 O 0.56711 0.49607 0.79237 0.0
C145 C 0.5155 0.55801 0.80877 0.0
O146 O 0.52102 0.56065 0.83136 0.0
H147 H 0.56155 0.56466 0.80772 0.0
H148 H 0.56883 0.51647 0.86492 0.0
N149 N 0.53735 0.49864 0.83182 0.0
N150 N 0.51728 0.47638 0.8423 0.0
C151 C 0.51933 0.49482 0.82882 0.0
C152 C 0.54709 0.48209 0.84768 0.0
C153 C 0.53471 0.46847 0.85434 0.0
C154 C 0.58243 0.50097 0.78442 0.0
O155 O 0.58382 0.52333 0.78598 0.0
H156 H 0.50834 0.50469 0.81612 0.0
H157 H 0.56251 0.47904 0.85277 0.0
O158 O 0.52545 0.54025 0.79607 0.0
H159 H 0.58824 0.54913 0.87665 0.0
H160 H 0.53875 0.45289 0.86584 0.0
Cu161 Cu 0.54618 0.52324 0.21849 0.0
N162 N 0.53247 0.50445 0.20049 0.0
N163 N 0.51142 0.4819 0.19242 0.0
C164 C 0.51908 0.49427 0.20956 0.0
C165 C 0.52042 0.48441 0.17174 0.0
C166 C 0.53342 0.49828 0.17679 0.0
O167 O 0.52665 0.54735 0.23701 0.0
C168 C 0.57846 0.48507 0.22326 0.0
O169 O 0.57548 0.48644 0.1997 0.0
H170 H 0.51484 0.49629 0.22834 0.0
H171 H 0.54299 0.50333 0.1641 0.0
N172 N 0.55859 0.54039 0.19872 0.0
N173 N 0.57924 0.56201 0.18837 0.0
C174 C 0.57452 0.54809 0.20534 0.0
C175 C 0.55294 0.5497 0.17679 0.0
C176 C 0.56568 0.56296 0.17031 0.0
C177 C 0.51168 0.55826 0.22425 0.0
O178 O 0.51101 0.55238 0.20116 0.0
H179 H 0.58226 0.54377 0.22251 0.0
H180 H 0.54009 0.5477 0.16658 0.0
O181 O 0.56693 0.50066 0.23681 0.0
H182 H 0.51804 0.47649 0.15428 0.0
H183 H 0.56452 0.57325 0.15398 0.0
Cu184 Cu 0.82823 0.51636 0.51674 0.0
N185 N 0.84347 0.53212 0.49952 0.0
N186 N 0.85204 0.55367 0.4708 0.0
C187 C 0.83905 0.54157 0.4774 0.0
C188 C 0.8651 0.55188 0.48944 0.0
C189 C 0.85982 0.53847 0.50712 0.0
O190 O 0.81393 0.53994 0.54097 0.0
C191 C 0.82306 0.48853 0.47737 0.0
O192 O 0.84217 0.48626 0.47763 0.0
H193 H 0.82614 0.54039 0.46677 0.0
H194 H 0.86718 0.53414 0.52448 0.0
N195 N 0.84432 0.49013 0.53298 0.0
N196 N 0.85237 0.45781 0.55637 0.0
C197 C 0.8376 0.47573 0.54736 0.0
C198 C 0.86405 0.481 0.5327 0.0
C199 C 0.8691 0.46108 0.5473 0.0
C200 C 0.82479 0.5447 0.55836 0.0
O201 O 0.84346 0.53252 0.5592 0.0
H202 H 0.82213 0.47856 0.55128 0.0
H203 H 0.87403 0.48813 0.52243 0.0
O204 O 0.81264 0.50214 0.49349 0.0
H205 H 0.87744 0.55989 0.49029 0.0
H206 H 0.88383 0.44965 0.55062 0.0
Cu207 Cu 0.59219 0.77595 0.51648 0.0
N208 N 0.61203 0.75893 0.49551 0.0
N209 N 0.6346 0.7515 0.46642 0.0
C210 C 0.62321 0.76841 0.48119 0.0
C211 C 0.63041 0.73059 0.4716 0.0
C212 C 0.61655 0.73521 0.48953 0.0
O213 O 0.60317 0.79348 0.54131 0.0
C214 C 0.563 0.78324 0.48235 0.0
O215 O 0.57133 0.75992 0.48022 0.0
H216 H 0.62237 0.78748 0.48076 0.0
H217 H 0.60973 0.72229 0.49706 0.0
N218 N 0.58088 0.75536 0.53344 0.0
N219 N 0.55824 0.74427 0.55489 0.0
C220 C 0.56197 0.76113 0.5405 0.0
C221 C 0.58954 0.73411 0.54377 0.0
C222 C 0.5756 0.72718 0.55694 0.0
C223 C 0.61218 0.8097 0.53854 0.0
O224 O 0.61368 0.81755 0.51677 0.0
H225 H 0.55141 0.77803 0.53609 0.0
H226 H 0.60503 0.72475 0.54253 0.0
O227 O 0.57063 0.79567 0.49731 0.0
H228 H 0.63679 0.71323 0.46289 0.0
H229 H 0.57819 0.71101 0.56751 0.0
Cu230 Cu 0.3119 0.51647 0.51535 0.0
N231 N 0.3275 0.53151 0.4974 0.0
N232 N 0.33383 0.55816 0.47203 0.0
C233 C 0.31978 0.5504 0.483 0.0
C234 C 0.35115 0.54349 0.47984 0.0
C235 C 0.34721 0.52699 0.49541 0.0
O236 O 0.29392 0.54235 0.53309 0.0
C237 C 0.31039 0.48728 0.47627 0.0
O238 O 0.32949 0.48443 0.47906 0.0
H239 H 0.30406 0.55848 0.48095 0.0
H240 H 0.35795 0.51259 0.50433 0.0
N241 N 0.32593 0.49432 0.53808 0.0
N242 N 0.3309 0.46737 0.56778 0.0
C243 C 0.31872 0.47815 0.5496 0.0
C244 C 0.34328 0.49374 0.54934 0.0
C245 C 0.34642 0.4771 0.56755 0.0
C246 C 0.30265 0.55653 0.54399 0.0
O247 O 0.32196 0.55178 0.54317 0.0
H248 H 0.30427 0.47545 0.54563 0.0
H249 H 0.35253 0.50545 0.54547 0.0
O250 O 0.29882 0.50018 0.49168 0.0
H251 H 0.36563 0.54431 0.47438 0.0
H252 H 0.35894 0.47299 0.58005 0.0
Cu253 Cu 0.51135 0.22187 0.51427 0.0
N254 N 0.52925 0.20191 0.4934 0.0
N255 N 0.5558 0.18985 0.47038 0.0
C256 C 0.54653 0.20582 0.48738 0.0
C257 C 0.54386 0.17529 0.46542 0.0
C258 C 0.52747 0.18276 0.47975 0.0
O259 O 0.52638 0.24092 0.53296 0.0
C260 C 0.47673 0.2279 0.48706 0.0
O261 O 0.48001 0.20529 0.49346 0.0
H262 H 0.55177 0.22079 0.49459 0.0
H263 H 0.51495 0.17512 0.47979 0.0
N264 N 0.50191 0.20357 0.53616 0.0
N265 N 0.48369 0.19485 0.56532 0.0
C266 C 0.48747 0.21243 0.55203 0.0
C267 C 0.50753 0.17955 0.53945 0.0
C268 C 0.49634 0.17411 0.55751 0.0
C269 C 0.53945 0.22845 0.54739 0.0
O270 O 0.54107 0.20517 0.54865 0.0
H271 H 0.48005 0.23148 0.55387 0.0
H272 H 0.51894 0.1669 0.52941 0.0
O273 O 0.48885 0.23984 0.49444 0.0
H274 H 0.54667 0.16053 0.45222 0.0
H275 H 0.49725 0.15625 0.56409 0.0
Dy276 Dy 0.27544 0.27446 0.2937 0.0
Dy277 Dy 0.30366 0.29117 0.25344 0.0
C278 C 0.29701 0.23781 0.25247 0.0
O279 O 0.30668 0.2639 0.30824 0.0
O280 O 0.3191 0.29146 0.28925 0.0
O281 O 0.272 0.24842 0.31946 0.0
O282 O 0.24905 0.28184 0.31495 0.0
O283 O 0.28588 0.32563 0.27041 0.0
O284 O 0.27749 0.31092 0.30575 0.0
O285 O 0.27745 0.2865 0.23203 0.0
O286 O 0.255 0.28814 0.2621 0.0
O287 O 0.30788 0.31407 0.22478 0.0
O288 O 0.33217 0.28461 0.23709 0.0
C289 C 0.3199 0.27628 0.30679 0.0
O290 O 0.28134 0.24525 0.26577 0.0
O291 O 0.30965 0.25083 0.24992 0.0
C292 C 0.23934 0.24725 0.32584 0.0
C293 C 0.21202 0.21921 0.32809 0.0
C294 C 0.21915 0.2238 0.30564 0.0
C295 C 0.23276 0.23768 0.30453 0.0
C296 C 0.23204 0.24309 0.34816 0.0
C297 C 0.2185 0.22921 0.34931 0.0
C298 C 0.25429 0.26087 0.32531 0.0
C299 C 0.27927 0.32886 0.29261 0.0
C300 C 0.25938 0.28824 0.23905 0.0
C301 C 0.34021 0.31872 0.22209 0.0
C302 C 0.36772 0.34656 0.21987 0.0
C303 C 0.35601 0.34801 0.24043 0.0
C304 C 0.34239 0.33412 0.24156 0.0
C305 C 0.35162 0.31747 0.20149 0.0
C306 C 0.36524 0.33125 0.20036 0.0
C307 C 0.32664 0.30322 0.22307 0.0
H308 H 0.21458 0.21618 0.289 0.0
H309 H 0.23835 0.24067 0.28713 0.0
H310 H 0.23696 0.25039 0.36478 0.0
H311 H 0.21308 0.22633 0.36683 0.0
H312 H 0.35767 0.35949 0.25582 0.0
H313 H 0.33373 0.33519 0.25767 0.0
H314 H 0.3501 0.30568 0.1863 0.0
H315 H 0.37376 0.32999 0.18412 0.0
Dy316 Dy 0.78888 0.25757 0.2868 0.0
Dy317 Dy 0.80594 0.29147 0.25053 0.0
C318 C 0.75999 0.30512 0.26436 0.0
O319 O 0.79494 0.2365 0.25185 0.0
O320 O 0.79443 0.2668 0.2254 0.0
O321 O 0.77373 0.23008 0.29158 0.0
O322 O 0.78696 0.24414 0.32273 0.0
O323 O 0.82977 0.2569 0.25304 0.0
O324 O 0.82192 0.24639 0.2904 0.0
O325 O 0.81154 0.30239 0.28878 0.0
O326 O 0.78631 0.29243 0.30742 0.0
O327 O 0.82762 0.31092 0.24465 0.0
O328 O 0.80343 0.31341 0.21868 0.0
C329 C 0.79362 0.24466 0.22972 0.0
O330 O 0.7618 0.28269 0.27071 0.0
O331 O 0.77545 0.31296 0.25979 0.0
C332 C 0.75824 0.23101 0.32899 0.0
C333 C 0.72455 0.2275 0.35355 0.0
C334 C 0.72256 0.24099 0.33234 0.0
C335 C 0.73928 0.24283 0.32021 0.0
C336 C 0.76027 0.21822 0.35055 0.0
C337 C 0.74357 0.21654 0.3628 0.0
C338 C 0.77593 0.23028 0.31508 0.0
C339 C 0.83448 0.24412 0.27271 0.0
C340 C 0.79916 0.30534 0.30667 0.0
C341 C 0.8332 0.3198 0.2045 0.0
C342 C 0.86179 0.32387 0.17133 0.0
C343 C 0.86366 0.30205 0.18336 0.0
C344 C 0.84947 0.30004 0.19989 0.0
C345 C 0.83082 0.34113 0.1917 0.0
C346 C 0.84497 0.34317 0.17525 0.0
C347 C 0.81961 0.31966 0.22414 0.0
H348 H 0.70808 0.24988 0.32499 0.0
H349 H 0.73738 0.25297 0.30366 0.0
H350 H 0.77478 0.20894 0.35755 0.0
H351 H 0.74554 0.20589 0.379 0.0
H352 H 0.87651 0.28692 0.18082 0.0
H353 H 0.85155 0.28343 0.20969 0.0
H354 H 0.81833 0.35655 0.19504 0.0
H355 H 0.84295 0.36005 0.16597 0.0
Dy356 Dy 0.79303 0.7509 0.23557 0.0
Dy357 Dy 0.8186 0.77482 0.27627 0.0
C358 C 0.77518 0.76972 0.28767 0.0
O359 O 0.79359 0.78653 0.22099 0.0
O360 O 0.79996 0.80607 0.25597 0.0
O361 O 0.76791 0.7537 0.21143 0.0
O362 O 0.791 0.72002 0.21324 0.0
O363 O 0.834 0.77422 0.24146 0.0
O364 O 0.8241 0.74333 0.22212 0.0
O365 O 0.82938 0.7346 0.27813 0.0
O366 O 0.80091 0.72522 0.26598 0.0
O367 O 0.84621 0.77296 0.29515 0.0
O368 O 0.82013 0.80141 0.30435 0.0
C369 C 0.79466 0.80627 0.23297 0.0
O370 O 0.77143 0.76756 0.26435 0.0
O371 O 0.79298 0.76909 0.29616 0.0
C372 C 0.75854 0.71733 0.20458 0.0
C373 C 0.72942 0.6915 0.20316 0.0
C374 C 0.7305 0.70757 0.2226 0.0
C375 C 0.74497 0.72033 0.22333 0.0
C376 C 0.75769 0.70115 0.18538 0.0
C377 C 0.74332 0.68832 0.18467 0.0
C378 C 0.77356 0.73098 0.20455 0.0
C379 C 0.83589 0.75777 0.22403 0.0
C380 C 0.81793 0.71989 0.27769 0.0
C381 C 0.85092 0.81061 0.30804 0.0
C382 C 0.87484 0.84312 0.3101 0.0
C383 C 0.87119 0.83223 0.28792 0.0
C384 C 0.85925 0.81617 0.28688 0.0
C385 C 0.85427 0.82168 0.33009 0.0
C386 C 0.86609 0.83783 0.33113 0.0
C387 C 0.83915 0.79289 0.30761 0.0
H388 H 0.71995 0.71065 0.23704 0.0
H389 H 0.74544 0.73269 0.2384 0.0
H390 H 0.76814 0.69847 0.17083 0.0
H391 H 0.7432 0.67577 0.16968 0.0
H392 H 0.87754 0.83616 0.27138 0.0
H393 H 0.8567 0.80791 0.26963 0.0
H394 H 0.84795 0.81758 0.34659 0.0
H395 H 0.86878 0.84571 0.34852 0.0
Dy396 Dy 0.31214 0.80269 0.28702 0.0
Dy397 Dy 0.29359 0.76725 0.25006 0.0
C398 C 0.3404 0.75437 0.26295 0.0
O399 O 0.30629 0.82166 0.25189 0.0
O400 O 0.30377 0.79125 0.22486 0.0
O401 O 0.32841 0.82936 0.29272 0.0
O402 O 0.31378 0.81854 0.32284 0.0
O403 O 0.27046 0.80225 0.2522 0.0
O404 O 0.27904 0.81449 0.28977 0.0
O405 O 0.29057 0.75691 0.28842 0.0
O406 O 0.31645 0.76818 0.30651 0.0
O407 O 0.27156 0.74763 0.24512 0.0
O408 O 0.2938 0.74459 0.21785 0.0
C409 C 0.30607 0.81296 0.22967 0.0
O410 O 0.33895 0.77629 0.27194 0.0
O411 O 0.32486 0.74669 0.25674 0.0
C412 C 0.34309 0.83042 0.33138 0.0
C413 C 0.37704 0.83164 0.35921 0.0
C414 C 0.37799 0.81405 0.34067 0.0
C415 C 0.36112 0.81339 0.32691 0.0
C416 C 0.342 0.84772 0.35006 0.0
C417 C 0.35882 0.8483 0.36394 0.0
C418 C 0.32555 0.83117 0.316 0.0
C419 C 0.26624 0.81614 0.27162 0.0
C420 C 0.30401 0.75473 0.30584 0.0
C421 C 0.26291 0.73812 0.20511 0.0
C422 C 0.23229 0.73234 0.1733 0.0
C423 C 0.22967 0.75313 0.18836 0.0
C424 C 0.24486 0.756 0.20415 0.0
C425 C 0.26589 0.718 0.18932 0.0
C426 C 0.25076 0.71513 0.17353 0.0
C427 C 0.27797 0.7386 0.22402 0.0
H428 H 0.39175 0.80075 0.33687 0.0
H429 H 0.36221 0.79982 0.31259 0.0
H430 H 0.32819 0.86105 0.35368 0.0
H431 H 0.35767 0.86214 0.37799 0.0
H432 H 0.21561 0.76665 0.18875 0.0
H433 H 0.24225 0.77169 0.21622 0.0
H434 H 0.27972 0.70403 0.1898 0.0
H435 H 0.25339 0.69916 0.16185 0.0
Dy436 Dy 0.27837 0.7457 0.78449 0.0
Dy437 Dy 0.30243 0.77512 0.75 0.0
C438 C 0.25532 0.79509 0.75861 0.0
O439 O 0.27225 0.73724 0.74587 0.0
O440 O 0.3006 0.74181 0.72959 0.0
O441 O 0.25663 0.72555 0.78777 0.0
O442 O 0.27392 0.73144 0.81918 0.0
O443 O 0.32485 0.74929 0.77256 0.0
O444 O 0.30826 0.72048 0.77783 0.0
O445 O 0.29188 0.79943 0.78149 0.0
O446 O 0.28997 0.77089 0.80892 0.0
O447 O 0.32479 0.79437 0.74678 0.0
O448 O 0.30807 0.78762 0.715 0.0
C449 C 0.28503 0.73328 0.7284 0.0
O450 O 0.25643 0.78088 0.77717 0.0
O451 O 0.27018 0.79315 0.74389 0.0
C452 C 0.24126 0.72862 0.82547 0.0
C453 C 0.20521 0.73816 0.85025 0.0
C454 C 0.21353 0.75714 0.84476 0.0
C455 C 0.23136 0.75242 0.83234 0.0
C456 C 0.23322 0.70967 0.83135 0.0
C457 C 0.21541 0.71436 0.84359 0.0
C458 C 0.25933 0.72314 0.81106 0.0
C459 C 0.32485 0.72691 0.77688 0.0
C460 C 0.29038 0.79297 0.80378 0.0
C461 C 0.34092 0.78943 0.7093 0.0
C462 C 0.37623 0.77819 0.68282 0.0
C463 C 0.37108 0.76038 0.69634 0.0
C464 C 0.35357 0.76594 0.70945 0.0
C465 C 0.34593 0.80718 0.69586 0.0
C466 C 0.36338 0.80166 0.68277 0.0
C467 C 0.32263 0.79593 0.7233 0.0
H468 H 0.20598 0.77568 0.84947 0.0
H469 H 0.23725 0.76734 0.82776 0.0
H470 H 0.24062 0.6912 0.82616 0.0
H471 H 0.2096 0.69929 0.84782 0.0
H472 H 0.38048 0.74207 0.69661 0.0
H473 H 0.34992 0.75198 0.71974 0.0
H474 H 0.3364 0.82544 0.69563 0.0
H475 H 0.36697 0.81594 0.67293 0.0
Dy476 Dy 0.2893 0.24872 0.75288 0.0
Dy477 Dy 0.31544 0.27266 0.79288 0.0
C478 C 0.26852 0.28102 0.79799 0.0
O479 O 0.29657 0.27869 0.73327 0.0
O480 O 0.30478 0.30127 0.76512 0.0
O481 O 0.26553 0.25131 0.7265 0.0
O482 O 0.28618 0.21663 0.73368 0.0
O483 O 0.33491 0.26129 0.76135 0.0
O484 O 0.32131 0.23177 0.74578 0.0
O485 O 0.31857 0.23447 0.80403 0.0
O486 O 0.28979 0.22917 0.7873 0.0
O487 O 0.34208 0.26961 0.81435 0.0
O488 O 0.31733 0.30139 0.81819 0.0
C489 C 0.30045 0.29854 0.74203 0.0
O490 O 0.2666 0.27444 0.77526 0.0
O491 O 0.28583 0.27805 0.80885 0.0
C492 C 0.2535 0.21608 0.72215 0.0
C493 C 0.22278 0.19269 0.71804 0.0
C494 C 0.21843 0.21804 0.72003 0.0
C495 C 0.23362 0.22963 0.72206 0.0
C496 C 0.25781 0.19074 0.72029 0.0
C497 C 0.24265 0.17918 0.71838 0.0
C498 C 0.26984 0.22795 0.7226 0.0
C499 C 0.33574 0.2424 0.74712 0.0
C500 C 0.30458 0.22311 0.80294 0.0
C501 C 0.34918 0.30666 0.82463 0.0
C502 C 0.37519 0.33659 0.82636 0.0
C503 C 0.3713 0.32552 0.80436 0.0
C504 C 0.35835 0.31069 0.8035 0.0
C505 C 0.35285 0.31779 0.84648 0.0
C506 C 0.36571 0.33265 0.84736 0.0
C507 C 0.33564 0.29109 0.82428 0.0
H508 H 0.20326 0.22894 0.72001 0.0
H509 H 0.22977 0.24919 0.72328 0.0
H510 H 0.27297 0.17982 0.71992 0.0
H511 H 0.24652 0.15966 0.71648 0.0
H512 H 0.37848 0.328 0.78791 0.0
H513 H 0.35558 0.30228 0.78642 0.0
H514 H 0.34574 0.31501 0.8629 0.0
H515 H 0.36807 0.34123 0.86449 0.0
Dy516 Dy 0.80923 0.28847 0.78738 0.0
Dy517 Dy 0.78693 0.26292 0.74379 0.0
C518 C 0.83343 0.24128 0.75733 0.0
O519 O 0.82001 0.29642 0.75175 0.0
O520 O 0.79214 0.2965 0.72927 0.0
O521 O 0.82466 0.31465 0.80031 0.0
O522 O 0.81758 0.29 0.82525 0.0
O523 O 0.76319 0.28905 0.7643 0.0
O524 O 0.78039 0.31545 0.77923 0.0
O525 O 0.7955 0.23727 0.77401 0.0
O526 O 0.79148 0.26618 0.8038 0.0
O527 O 0.766 0.24243 0.73441 0.0
O528 O 0.78139 0.25485 0.70606 0.0
C529 C 0.80871 0.30279 0.73244 0.0
O530 O 0.83142 0.25395 0.77781 0.0
O531 O 0.81928 0.2444 0.74051 0.0
C532 C 0.84649 0.30249 0.83411 0.0
C533 C 0.88369 0.29392 0.85842 0.0
C534 C 0.88218 0.28541 0.83443 0.0
C535 C 0.86373 0.28955 0.82242 0.0
C536 C 0.84798 0.31114 0.85789 0.0
C537 C 0.86633 0.30691 0.86992 0.0
C538 C 0.82676 0.30665 0.82235 0.0
C539 C 0.76366 0.3105 0.77287 0.0
C540 C 0.7933 0.24366 0.79689 0.0
C541 C 0.74931 0.25023 0.69658 0.0
C542 C 0.71291 0.25927 0.67037 0.0
C543 C 0.71645 0.27616 0.68782 0.0
C544 C 0.73448 0.27167 0.70082 0.0
C545 C 0.746 0.23358 0.67899 0.0
C546 C 0.72804 0.238 0.66606 0.0
C547 C 0.76784 0.24407 0.71114 0.0
H548 H 0.89521 0.27516 0.8251 0.0
H549 H 0.8629 0.28252 0.80413 0.0
H550 H 0.83487 0.32113 0.86725 0.0
H551 H 0.86693 0.31404 0.8882 0.0
H552 H 0.70528 0.29284 0.69149 0.0
H553 H 0.73675 0.28475 0.71439 0.0
H554 H 0.75719 0.21683 0.67561 0.0
H555 H 0.72583 0.22434 0.65316 0.0
Dy556 Dy 0.77019 0.77344 0.77817 0.0
Dy557 Dy 0.79842 0.79418 0.74189 0.0
C558 C 0.78709 0.74424 0.73047 0.0
O559 O 0.80183 0.75585 0.78838 0.0
O560 O 0.81649 0.78437 0.7755 0.0
O561 O 0.76536 0.74335 0.79719 0.0
O562 O 0.74546 0.77916 0.80219 0.0
O563 O 0.7868 0.82499 0.76815 0.0
O564 O 0.77716 0.8044 0.79866 0.0
O565 O 0.76972 0.79886 0.72203 0.0
O566 O 0.74879 0.79763 0.75295 0.0
O567 O 0.80273 0.82101 0.71748 0.0
O568 O 0.82569 0.78769 0.72269 0.0
C569 C 0.81664 0.7659 0.78898 0.0
O570 O 0.7714 0.75162 0.74383 0.0
O571 O 0.8014 0.75511 0.73185 0.0
C572 C 0.73218 0.74564 0.80677 0.0
C573 C 0.70151 0.7227 0.81063 0.0
C574 C 0.71559 0.71554 0.79236 0.0
C575 C 0.73077 0.72693 0.79041 0.0
C576 C 0.71779 0.75337 0.82442 0.0
C577 C 0.70256 0.7421 0.8263 0.0
C578 C 0.74913 0.75623 0.80696 0.0
C579 C 0.78126 0.82381 0.79057 0.0
C580 C 0.7519 0.80262 0.73056 0.0
C581 C 0.83569 0.82194 0.71156 0.0
C582 C 0.86556 0.84617 0.70881 0.0
C583 C 0.85867 0.8417 0.73147 0.0
C584 C 0.84384 0.8296 0.73283 0.0
C585 C 0.8423 0.82664 0.68903 0.0
C586 C 0.85708 0.83865 0.68764 0.0
C587 C 0.82059 0.80858 0.71221 0.0
H588 H 0.71532 0.70054 0.78011 0.0
H589 H 0.74168 0.72067 0.77656 0.0
H590 H 0.71858 0.76783 0.83716 0.0
H591 H 0.69177 0.74838 0.84026 0.0
H592 H 0.86499 0.84715 0.7481 0.0
H593 H 0.83886 0.82605 0.7504 0.0
H594 H 0.83609 0.8209 0.67245 0.0
H595 H 0.86177 0.8422 0.66992 0.0
C596 C 0.08933 0.10063 0.32959 0.0
C597 C 0.09324 0.08264 0.34721 0.0
C598 C 0.10164 0.11604 0.3276 0.0
C599 C 0.15236 0.11961 0.34291 0.0
H600 H 0.13151 0.18752 0.32859 0.0
C601 C 0.20084 0.18646 0.34787 0.0
C602 C 0.19823 0.20365 0.3296 0.0
C603 C 0.18785 0.17193 0.34959 0.0
C604 C 0.13757 0.16853 0.33232 0.0
H605 H 0.11306 0.06723 0.37688 0.0
H606 H 0.13414 0.09442 0.37381 0.0
H607 H 0.10888 0.16223 0.3331 0.0
H608 H 0.17986 0.21906 0.2988 0.0
H609 H 0.15722 0.19343 0.30165 0.0
H610 H 0.18103 0.12591 0.34224 0.0
C611 C 0.12174 0.09633 0.36123 0.0
C612 C 0.1246 0.15403 0.33492 0.0
C613 C 0.10946 0.08092 0.3632 0.0
C614 C 0.18234 0.20588 0.31298 0.0
C615 C 0.16927 0.19137 0.31477 0.0
C616 C 0.1653 0.1341 0.34036 0.0
C617 C 0.11814 0.11388 0.3432 0.0
C618 C 0.13184 0.12941 0.34035 0.0
C619 C 0.17189 0.17422 0.3331 0.0
C620 C 0.15807 0.15875 0.33515 0.0
H621 H 0.07684 0.10275 0.31718 0.0
H622 H 0.09848 0.12925 0.31342 0.0
H623 H 0.15849 0.10062 0.34657 0.0
H624 H 0.21306 0.18408 0.36078 0.0
H625 H 0.19018 0.15907 0.36406 0.0
C626 C 0.99498 0.08755 0.28276 0.0
C627 C 0.99852 0.0795 0.3067 0.0
C628 C 0.97811 0.10622 0.27687 0.0
C629 C 0.94054 0.15665 0.30629 0.0
H630 H 0.90867 0.15445 0.24828 0.0
C631 C 0.86049 0.21507 0.29706 0.0
C632 C 0.85421 0.2265 0.27497 0.0
C633 C 0.87887 0.19816 0.29923 0.0
C634 C 0.91755 0.15546 0.26443 0.0
H635 H 0.98669 0.08431 0.34295 0.0
H636 H 0.95762 0.11605 0.33271 0.0
H637 H 0.93948 0.12289 0.25473 0.0
H638 H 0.86242 0.22886 0.23772 0.0
H639 H 0.89453 0.19915 0.24154 0.0
H640 H 0.91851 0.18879 0.3163 0.0
C641 C 0.96796 0.1086 0.31852 0.0
C642 C 0.93523 0.1374 0.2681 0.0
C643 C 0.98468 0.09018 0.32437 0.0
C644 C 0.8668 0.22049 0.25504 0.0
C645 C 0.88515 0.20334 0.25717 0.0
C646 C 0.9229 0.17452 0.3027 0.0
C647 C 0.96452 0.11718 0.29481 0.0
C648 C 0.94674 0.13749 0.28936 0.0
C649 C 0.89144 0.19205 0.27933 0.0
C650 C 0.91097 0.17394 0.28197 0.0
H651 H 1.00533 0.07968 0.26872 0.0
H652 H 0.97594 0.11239 0.25841 0.0
H653 H 0.94925 0.15773 0.32257 0.0
H654 H 0.85121 0.21915 0.31277 0.0
H655 H 0.88313 0.18957 0.31648 0.0
C656 C 0.99029 0.97212 0.31532 0.0
C657 C 1.00237 0.96906 0.33638 0.0
C658 C 0.97542 0.96015 0.31229 0.0
C659 C 0.9455 0.92773 0.34583 0.0
H660 H 0.9384 0.90008 0.28243 0.0
C661 C 0.88338 0.88072 0.32579 0.0
C662 C 0.8882 0.85935 0.31156 0.0
C663 C 0.89642 0.89536 0.32812 0.0
C664 C 0.94026 0.90755 0.30029 0.0
H665 H 0.00768 0.95148 0.37109 0.0
H666 H 0.98216 0.93015 0.36554 0.0
H667 H 0.96289 0.92294 0.2884 0.0
H668 H 0.91049 0.8366 0.28859 0.0
H669 H 0.93333 0.86195 0.29283 0.0
H670 H 0.92338 0.91161 0.35793 0.0
C671 C 0.98405 0.94203 0.35145 0.0
C672 C 0.95414 0.92095 0.30365 0.0
C673 C 0.99888 0.95406 0.35451 0.0
C674 C 0.90622 0.85313 0.29942 0.0
C675 C 0.91931 0.86769 0.30184 0.0
C676 C 0.93167 0.91427 0.34249 0.0
C677 C 0.97224 0.94475 0.3302 0.0
C678 C 0.95701 0.93112 0.32649 0.0
C679 C 0.91464 0.88891 0.31637 0.0
C680 C 0.92893 0.9039 0.3197 0.0
H681 H 0.99255 0.98329 0.30082 0.0
H682 H 0.96642 0.96296 0.29585 0.0
H683 H 0.94714 0.93553 0.3636 0.0
H684 H 0.86948 0.88618 0.33509 0.0
H685 H 0.89217 0.91179 0.33908 0.0
C686 C 0.11916 0.98936 0.26976 0.0
C687 C 0.10187 0.98522 0.27886 0.0
C688 C 0.13633 0.97037 0.26728 0.0
C689 C 0.16088 0.9113 0.29312 0.0
H690 H 0.19543 0.90414 0.23835 0.0
C691 C 0.24084 0.8486 0.29365 0.0
C692 C 0.24683 0.83455 0.27256 0.0
C693 C 0.2228 0.86645 0.29403 0.0
C694 C 0.18589 0.90581 0.25373 0.0
H695 H 0.08895 0.95751 0.29161 0.0
H696 H 0.11884 0.92449 0.28727 0.0
H697 H 0.16432 0.93584 0.23849 0.0
H698 H 0.23834 0.82828 0.23533 0.0
H699 H 0.20707 0.85935 0.23603 0.0
H700 H 0.18247 0.88134 0.3084 0.0
C701 C 0.11916 0.94249 0.28226 0.0
C702 C 0.16814 0.9241 0.25388 0.0
C703 C 0.10196 0.96142 0.28452 0.0
C704 C 0.23427 0.83871 0.25192 0.0
C705 C 0.21636 0.85666 0.25224 0.0
C706 C 0.17872 0.89318 0.29308 0.0
C707 C 0.13667 0.94681 0.27405 0.0
C708 C 0.15539 0.92705 0.27356 0.0
C709 C 0.21042 0.87082 0.27326 0.0
C710 C 0.19144 0.89018 0.27337 0.0
H711 H 0.11966 0.00744 0.26525 0.0
H712 H 0.14957 0.97434 0.261 0.0
H713 H 0.15151 0.91325 0.30869 0.0
H714 H 0.25013 0.84594 0.30986 0.0
H715 H 0.21873 0.87716 0.31046 0.0
C716 C 0.10365 0.96424 0.73911 0.0
C717 C 0.09351 0.96143 0.71739 0.0
C718 C 0.121 0.94668 0.74578 0.0
C719 C 0.16036 0.89847 0.71699 0.0
H720 H 0.17519 0.87718 0.7824 0.0
C721 C 0.23628 0.83313 0.73834 0.0
C722 C 0.23698 0.81482 0.75495 0.0
C723 C 0.21916 0.85204 0.73537 0.0
C724 C 0.17121 0.88282 0.76399 0.0
H725 H 0.09266 0.93734 0.68665 0.0
H726 H 0.12218 0.90678 0.69848 0.0
H727 H 0.14401 0.90766 0.77487 0.0
H728 H 0.2201 0.80216 0.78158 0.0
H729 H 0.19012 0.83471 0.7759 0.0
H730 H 0.18701 0.87326 0.70583 0.0
C731 C 0.11738 0.92276 0.70999 0.0
C732 C 0.15343 0.90051 0.75974 0.0
C733 C 0.10033 0.94025 0.70328 0.0
C734 C 0.22012 0.81594 0.76859 0.0
C735 C 0.20294 0.83477 0.7655 0.0
C736 C 0.178 0.88082 0.7212 0.0
C737 C 0.12833 0.92604 0.73087 0.0
C738 C 0.14767 0.9083 0.7361 0.0
C739 C 0.2022 0.85305 0.74879 0.0
C740 C 0.18364 0.87259 0.74471 0.0
H741 H 0.09873 0.98043 0.75029 0.0
H742 H 0.12907 0.94974 0.76202 0.0
H743 H 0.15663 0.90434 0.69859 0.0
H744 H 0.24904 0.83305 0.72775 0.0
H745 H 0.2193 0.86599 0.72264 0.0
C746 C 0.09121 0.09349 0.66588 0.0
C747 C 0.09267 0.07223 0.67866 0.0
C748 C 0.1049 0.10704 0.67013 0.0
C749 C 0.1414 0.11739 0.71605 0.0
H750 H 0.16119 0.1463 0.66293 0.0
C751 C 0.20776 0.1588 0.72701 0.0
C752 C 0.20676 0.18028 0.71482 0.0
C753 C 0.19324 0.14643 0.72304 0.0
C754 C 0.15561 0.1386 0.678 0.0
H755 H 0.11013 0.04811 0.7053 0.0
H756 H 0.13402 0.07159 0.71261 0.0
H757 H 0.13733 0.12282 0.65469 0.0
H758 H 0.18962 0.2057 0.68901 0.0
H759 H 0.16412 0.18427 0.68231 0.0
H760 H 0.1598 0.13301 0.73933 0.0
C761 C 0.12204 0.07812 0.69969 0.0
C762 C 0.14194 0.12513 0.67327 0.0
C763 C 0.10835 0.06462 0.69547 0.0
C764 C 0.19073 0.18931 0.69885 0.0
C765 C 0.17625 0.17689 0.69479 0.0
C766 C 0.15509 0.13081 0.72076 0.0
C767 C 0.1204 0.09961 0.68723 0.0
C768 C 0.13473 0.11426 0.69223 0.0
C769 C 0.17741 0.15521 0.70671 0.0
C770 C 0.16242 0.1415 0.70178 0.0
H771 H 0.07919 0.10003 0.65304 0.0
H772 H 0.10305 0.12365 0.66042 0.0
H773 H 0.13588 0.10965 0.73114 0.0
H774 H 0.21982 0.15149 0.73961 0.0
H775 H 0.19467 0.12969 0.73236 0.0
C776 C 0.99167 0.08276 0.73765 0.0
C777 C 0.99253 0.07186 0.71443 0.0
C778 C 0.97504 0.10138 0.74432 0.0
C779 C 0.93347 0.14695 0.71584 0.0
H780 H 0.90867 0.15183 0.77821 0.0
C781 C 0.85557 0.20888 0.73165 0.0
C782 C 0.85223 0.22237 0.75349 0.0
C783 C 0.87325 0.191 0.72819 0.0
C784 C 0.91556 0.15085 0.76079 0.0
H785 H 0.97615 0.07102 0.68062 0.0
H786 H 0.94751 0.10273 0.69227 0.0
H787 H 0.93876 0.1196 0.7705 0.0
H788 H 0.86499 0.2274 0.78891 0.0
H789 H 0.89578 0.19628 0.78277 0.0
H790 H 0.9103 0.17788 0.70595 0.0
C791 C 0.95974 0.09762 0.70513 0.0
C792 C 0.93282 0.13241 0.75641 0.0
C793 C 0.97621 0.07927 0.6985 0.0
C794 C 0.86701 0.21741 0.77182 0.0
C795 C 0.88465 0.19944 0.76839 0.0
C796 C 0.91628 0.16524 0.72018 0.0
C797 C 0.95906 0.10933 0.72786 0.0
C798 C 0.94177 0.12999 0.7337 0.0
C799 C 0.88803 0.18608 0.7465 0.0
C800 C 0.90691 0.16722 0.74255 0.0
H801 H 1.004 0.0774 0.75033 0.0
H802 H 0.97495 0.11002 0.76201 0.0
H803 H 0.94023 0.146 0.69834 0.0
H804 H 0.84454 0.21209 0.71717 0.0
H805 H 0.87526 0.18082 0.71122 0.0
C806 C 0.99643 0.94316 0.66388 0.0
C807 C 0.99648 0.96375 0.67827 0.0
C808 C 0.98255 0.93013 0.66756 0.0
C809 C 0.94847 0.91951 0.71335 0.0
H810 H 0.92386 0.89486 0.65819 0.0
C811 C 0.88169 0.87894 0.7217 0.0
C812 C 0.88153 0.85858 0.707 0.0
C813 C 0.89614 0.89133 0.71887 0.0
C814 C 0.93077 0.90137 0.6738 0.0
H815 H 0.98155 0.98719 0.70731 0.0
H816 H 0.95736 0.96458 0.71365 0.0
H817 H 0.94807 0.91744 0.65158 0.0
H818 H 0.89696 0.83459 0.67864 0.0
H819 H 0.9221 0.85616 0.67374 0.0
H820 H 0.93106 0.90351 0.73555 0.0
C821 C 0.96831 0.95818 0.69987 0.0
C822 C 0.94465 0.91432 0.67001 0.0
C823 C 0.98218 0.97116 0.69621 0.0
C824 C 0.89642 0.85052 0.6899 0.0
C825 C 0.91083 0.86288 0.68707 0.0
C826 C 0.93456 0.90657 0.71714 0.0
C827 C 0.96837 0.93744 0.68567 0.0
C828 C 0.95368 0.92354 0.68973 0.0
C829 C 0.91073 0.8836 0.7013 0.0
C830 C 0.92556 0.89734 0.69741 0.0
H831 H 0.00738 0.93679 0.65013 0.0
H832 H 0.98317 0.91406 0.6565 0.0
H833 H 0.95536 0.92606 0.72895 0.0
H834 H 0.87032 0.88573 0.73489 0.0
H835 H 0.89556 0.90736 0.72998 0.0
C836 C 0.24941 0.10055 0.10752 0.0
C837 C 0.25949 0.09698 0.08558 0.0
C838 C 0.25523 0.11389 0.12651 0.0
C839 C 0.29727 0.13673 0.14921 0.0
H840 H 0.25689 0.17966 0.18791 0.0
C841 C 0.30956 0.21209 0.21586 0.0
C842 C 0.29854 0.2159 0.23714 0.0
C843 C 0.30722 0.19465 0.19863 0.0
C844 C 0.26836 0.16749 0.17749 0.0
H845 H 0.28322 0.10502 0.06607 0.0
H846 H 0.29316 0.12878 0.09904 0.0
H847 H 0.24725 0.15627 0.15469 0.0
H848 H 0.27798 0.20284 0.25816 0.0
H849 H 0.27408 0.17242 0.22825 0.0
H850 H 0.31834 0.14864 0.17186 0.0
C851 C 0.28108 0.12077 0.10182 0.0
C852 C 0.26283 0.15407 0.15843 0.0
C853 C 0.27534 0.10727 0.0829 0.0
C854 C 0.28647 0.2006 0.24178 0.0
C855 C 0.28415 0.18324 0.22462 0.0
C856 C 0.30281 0.15034 0.16823 0.0
C857 C 0.27115 0.12414 0.1239 0.0
C858 C 0.2772 0.13846 0.14409 0.0
C859 C 0.29384 0.18081 0.20246 0.0
C860 C 0.28838 0.16575 0.18262 0.0
H861 H 0.23738 0.09248 0.11026 0.0
H862 H 0.24746 0.11578 0.1434 0.0
H863 H 0.30872 0.12464 0.13869 0.0
H864 H 0.31896 0.22362 0.21175 0.0
H865 H 0.31488 0.19313 0.18167 0.0
C866 C 1.00606 0.32994 0.05362 0.0
C867 C 0.01379 0.34947 0.06051 0.0
C868 C 0.98829 0.32803 0.06292 0.0
C869 C 0.94307 0.36187 0.09372 0.0
H870 H 0.94384 0.29911 0.1187 0.0
C871 C 0.88406 0.34852 0.15829 0.0
C872 C 0.87787 0.32717 0.15603 0.0
C873 C 0.89963 0.35153 0.14467 0.0
C874 C 0.94322 0.31665 0.11146 0.0
H875 H 0.00838 0.38285 0.0817 0.0
H876 H 0.97731 0.37943 0.09813 0.0
H877 H 0.97253 0.30435 0.09804 0.0
H878 H 0.88294 0.29238 0.13741 0.0
H879 H 0.91007 0.29772 0.11331 0.0
H880 H 0.91377 0.37421 0.10723 0.0
C881 C 0.98504 0.36564 0.08546 0.0
C882 C 0.95969 0.31966 0.09965 0.0
C883 C 1.0029 0.36751 0.07621 0.0
C884 C 0.8875 0.30894 0.13968 0.0
C885 C 0.90306 0.312 0.12593 0.0
C886 C 0.92653 0.35883 0.10543 0.0
C887 C 0.97777 0.34561 0.07928 0.0
C888 C 0.95986 0.34234 0.09082 0.0
C889 C 0.90938 0.33329 0.12837 0.0
C890 C 0.92648 0.33623 0.11466 0.0
H891 H 0.01408 0.31551 0.04182 0.0
H892 H 0.98294 0.31253 0.0576 0.0
H893 H 0.94269 0.37948 0.08684 0.0
H894 H 0.87719 0.36271 0.17108 0.0
H895 H 0.90435 0.36793 0.1474 0.0
C896 C 0.8351 0.95892 0.11007 0.0
C897 C 0.82769 0.95887 0.08621 0.0
C898 C 0.8299 0.94467 0.12752 0.0
C899 C 0.79254 0.91139 0.13982 0.0
H900 H 0.83177 0.87839 0.18679 0.0
C901 C 0.78609 0.82994 0.19503 0.0
C902 C 0.79309 0.82844 0.21917 0.0
C903 C 0.78794 0.84874 0.18054 0.0
C904 C 0.82056 0.8878 0.17403 0.0
H905 H 0.80958 0.94329 0.06167 0.0
H906 H 0.80086 0.91799 0.09184 0.0
H907 H 0.84054 0.90471 0.1577 0.0
H908 H 0.80653 0.8463 0.24743 0.0
H909 H 0.80977 0.87907 0.22207 0.0
H910 H 0.77279 0.89372 0.15576 0.0
C911 C 0.8102 0.92956 0.09736 0.0
C912 C 0.82558 0.90289 0.15735 0.0
C913 C 0.81527 0.94395 0.08002 0.0
C914 C 0.80095 0.84691 0.22892 0.0
C915 C 0.80297 0.86558 0.21435 0.0
C916 C 0.78757 0.89613 0.1564 0.0
C917 C 0.8173 0.92989 0.12139 0.0
C918 C 0.81169 0.91469 0.13987 0.0
C919 C 0.79698 0.86631 0.18986 0.0
C920 C 0.80159 0.88404 0.17354 0.0
H921 H 0.84448 0.97049 0.11543 0.0
H922 H 0.83545 0.94561 0.1459 0.0
H923 H 0.78135 0.92058 0.12694 0.0
H924 H 0.77992 0.81603 0.18698 0.0
H925 H 0.78327 0.84878 0.16169 0.0
C926 C 0.09243 0.67617 0.07121 0.0
C927 C 0.07884 0.69545 0.05982 0.0
C928 C 0.10957 0.67963 0.0826 0.0
C929 C 0.12988 0.72785 0.10961 0.0
H930 H 0.18043 0.68038 0.10363 0.0
C931 C 0.20219 0.74672 0.14634 0.0
C932 C 0.21552 0.72784 0.15856 0.0
C933 C 0.18596 0.74252 0.13342 0.0
C934 C 0.16639 0.69371 0.10565 0.0
H935 H 0.07275 0.7336 0.05168 0.0
H936 H 0.10263 0.73937 0.0709 0.0
H937 H 0.15125 0.67314 0.08302 0.0
H938 H 0.22211 0.68976 0.16693 0.0
H939 H 0.19391 0.68247 0.14442 0.0
H940 H 0.14491 0.74838 0.13231 0.0
C941 C 0.09998 0.72163 0.07127 0.0
C942 C 0.14967 0.68954 0.09386 0.0
C943 C 0.08292 0.71818 0.05991 0.0
C944 C 0.21236 0.70463 0.15735 0.0
C945 C 0.19616 0.70043 0.14445 0.0
C946 C 0.14657 0.73201 0.12139 0.0
C947 C 0.11344 0.70248 0.08292 0.0
C948 C 0.13123 0.7066 0.09566 0.0
C949 C 0.18268 0.71935 0.13246 0.0
C950 C 0.16503 0.71502 0.11954 0.0
H951 H 0.08982 0.65841 0.07134 0.0
H952 H 0.11959 0.66453 0.09156 0.0
H953 H 0.11584 0.74117 0.11173 0.0
H954 H 0.20433 0.76474 0.14668 0.0
H955 H 0.17602 0.75741 0.12408 0.0
C956 C 0.23739 0.97024 0.93585 0.0
C957 C 0.24402 0.968 0.96008 0.0
C958 C 0.24165 0.95012 0.92015 0.0
C959 C 0.25524 0.88452 0.9152 0.0
H960 H 0.28449 0.89341 0.85925 0.0
C961 C 0.28815 0.80596 0.84765 0.0
C962 C 0.28695 0.81187 0.82306 0.0
C963 C 0.28357 0.82423 0.86556 0.0
C964 C 0.27609 0.89066 0.87456 0.0
H965 H 0.25907 0.94298 0.98739 0.0
H966 H 0.26615 0.90751 0.95995 0.0
H967 H 0.27298 0.92681 0.88795 0.0
H968 H 0.27981 0.84153 0.79794 0.0
H969 H 0.2713 0.87302 0.82879 0.0
H970 H 0.25774 0.8486 0.90144 0.0
C971 C 0.25788 0.92486 0.95312 0.0
C972 C 0.26956 0.9098 0.89099 0.0
C973 C 0.25392 0.94507 0.96872 0.0
C974 C 0.2812 0.83632 0.81674 0.0
C975 C 0.27638 0.85446 0.83451 0.0
C976 C 0.26148 0.86542 0.89848 0.0
C977 C 0.25229 0.92741 0.92856 0.0
C978 C 0.25897 0.90694 0.91133 0.0
C979 C 0.27748 0.84871 0.85915 0.0
C980 C 0.27184 0.86834 0.87782 0.0
H981 H 0.2299 0.98776 0.92874 0.0
H982 H 0.23713 0.95242 0.90126 0.0
H983 H 0.24712 0.88197 0.93085 0.0
H984 H 0.29254 0.78726 0.85306 0.0
H985 H 0.28483 0.81916 0.88438 0.0
C986 C 0.12562 0.324 0.93108 0.0
C987 C 0.12765 0.33851 0.95144 0.0
C988 C 0.13962 0.31942 0.9128 0.0
C989 C 0.1917 0.31573 0.90395 0.0
H990 H 0.17823 0.31907 0.83535 0.0
C991 C 0.2521 0.3043 0.83391 0.0
C992 C 0.25076 0.29068 0.81271 0.0
C993 C 0.23612 0.31157 0.84934 0.0
C994 C 0.18224 0.31777 0.85442 0.0
H995 H 0.14587 0.35979 0.96838 0.0
H996 H 0.17024 0.35181 0.93656 0.0
H997 H 0.15195 0.32889 0.8651 0.0
H998 H 0.2314 0.27458 0.79065 0.0
H999 H 0.20354 0.28674 0.818 0.0
H1000 H 0.22183 0.30405 0.89362 0.0
C1001 C 0.15783 0.34396 0.93475 0.0
C1002 C 0.16719 0.32346 0.87144 0.0
C1003 C 0.14376 0.34873 0.95286 0.0
C1004 C 0.23283 0.28516 0.80683 0.0
C1005 C 0.21686 0.29219 0.82249 0.0
C1006 C 0.20669 0.30983 0.88702 0.0
C1007 C 0.15605 0.32903 0.91467 0.0
C1008 C 0.1718 0.32271 0.89638 0.0
C1009 C 0.21845 0.30509 0.84421 0.0
C1010 C 0.20221 0.31101 0.86202 0.0
H1011 H 0.11327 0.31606 0.92938 0.0
H1012 H 0.13791 0.30776 0.89757 0.0
H1013 H 0.1957 0.31449 0.92304 0.0
H1014 H 0.26562 0.30915 0.83879 0.0
H1015 H 0.23775 0.32208 0.86549 0.0
C1016 C 0.84669 0.07138 0.9308 0.0
C1017 C 0.83991 0.07595 0.95457 0.0
C1018 C 0.84259 0.08997 0.91407 0.0
C1019 C 0.82817 0.15578 0.90748 0.0
H1020 H 0.8023 0.14198 0.8479 0.0
C1021 C 0.79335 0.23079 0.8399 0.0
C1022 C 0.79606 0.22472 0.8152 0.0
C1023 C 0.79816 0.21279 0.85728 0.0
C1024 C 0.80974 0.14609 0.86427 0.0
H1025 H 0.8247 0.10355 0.98001 0.0
H1026 H 0.81781 0.13621 0.95089 0.0
H1027 H 0.81405 0.11024 0.87728 0.0
H1028 H 0.80559 0.19497 0.78931 0.0
H1029 H 0.81437 0.16387 0.81944 0.0
H1030 H 0.82427 0.19147 0.89436 0.0
C1031 C 0.82611 0.11827 0.94512 0.0
C1032 C 0.81647 0.12788 0.88107 0.0
C1033 C 0.82995 0.09963 0.96171 0.0
C1034 C 0.80315 0.20028 0.80818 0.0
C1035 C 0.80814 0.18237 0.82551 0.0
C1036 C 0.82168 0.17394 0.89052 0.0
C1037 C 0.83193 0.11346 0.921 0.0
C1038 C 0.82571 0.13256 0.90282 0.0
C1039 C 0.80594 0.1884 0.8503 0.0
C1040 C 0.81236 0.16933 0.8687 0.0
H1041 H 0.85427 0.05322 0.92486 0.0
H1042 H 0.84736 0.08589 0.89559 0.0
H1043 H 0.83533 0.15979 0.92412 0.0
H1044 H 0.78787 0.24947 0.84586 0.0
H1045 H 0.79592 0.21804 0.87618 0.0
C1046 C 0.96157 0.71719 0.926 0.0
C1047 C 0.96137 0.70043 0.944 0.0
C1048 C 0.94655 0.72275 0.90831 0.0
C1049 C 0.90592 0.7015 0.87895 0.0
H1050 H 0.88505 0.76929 0.86415 0.0
C1051 C 0.83399 0.7381 0.82182 0.0
C1052 C 0.8338 0.75657 0.80555 0.0
C1053 C 0.84991 0.73016 0.83809 0.0
C1054 C 0.89085 0.75024 0.86781 0.0
H1055 H 0.9453 0.67602 0.95711 0.0
H1056 H 0.91909 0.6857 0.92622 0.0
H1057 H 0.9123 0.7572 0.89323 0.0
H1058 H 0.85048 0.78073 0.79325 0.0
H1059 H 0.87818 0.76671 0.82129 0.0
H1060 H 0.88434 0.69462 0.85351 0.0
C1061 C 0.931 0.69438 0.92569 0.0
C1062 C 0.9065 0.7433 0.8845 0.0
C1063 C 0.94606 0.68881 0.94341 0.0
C1064 C 0.85003 0.76658 0.80563 0.0
C1065 C 0.8659 0.75864 0.82183 0.0
C1066 C 0.89023 0.70846 0.86219 0.0
C1067 C 0.93092 0.71169 0.90815 0.0
C1068 C 0.91429 0.71885 0.89024 0.0
C1069 C 0.86597 0.74051 0.83844 0.0
C1070 C 0.88255 0.73292 0.85636 0.0
H1071 H 0.97334 0.72611 0.9256 0.0
H1072 H 0.94716 0.73579 0.89476 0.0
H1073 H 0.91169 0.68249 0.88279 0.0
H1074 H 0.82173 0.73001 0.82229 0.0
H1075 H 0.8494 0.71631 0.85078 0.0
C1076 C 0.12643 0.28948 0.08592 0.0
C1077 C 0.13381 0.28769 0.06232 0.0
C1078 C 0.13921 0.2874 0.10622 0.0
C1079 C 0.19246 0.26708 0.12512 0.0
H1080 H 0.1765 0.31271 0.17863 0.0
C1081 C 0.24882 0.28627 0.19539 0.0
C1082 C 0.24384 0.28853 0.22001 0.0
C1083 C 0.23474 0.28505 0.17734 0.0
C1084 C 0.18111 0.29963 0.16399 0.0
H1085 H 0.1606 0.28154 0.04173 0.0
H1086 H 0.1827 0.27811 0.07683 0.0
H1087 H 0.15326 0.31159 0.14516 0.0
H1088 H 0.21982 0.29159 0.24475 0.0
H1089 H 0.19514 0.28964 0.21309 0.0
H1090 H 0.22041 0.25546 0.14369 0.0
C1091 C 0.16708 0.28086 0.07981 0.0
C1092 C 0.16775 0.29893 0.14478 0.0
C1093 C 0.15434 0.28295 0.05958 0.0
C1094 C 0.22421 0.28994 0.22601 0.0
C1095 C 0.21004 0.28887 0.20785 0.0
C1096 C 0.2058 0.26784 0.14424 0.0
C1097 C 0.1597 0.28342 0.10344 0.0
C1098 C 0.17334 0.28288 0.12488 0.0
C1099 C 0.21519 0.28614 0.18328 0.0
C1100 C 0.20043 0.28437 0.16377 0.0
H1101 H 0.11071 0.29316 0.08876 0.0
H1102 H 0.13299 0.28912 0.1241 0.0
H1103 H 0.1972 0.2541 0.11043 0.0
H1104 H 0.26374 0.28513 0.18995 0.0
H1105 H 0.23919 0.28338 0.15862 0.0
C1106 C 0.05528 0.75549 0.96907 0.0
C1107 C 0.04605 0.73835 0.95911 0.0
C1108 C 0.07074 0.76113 0.95688 0.0
C1109 C 0.09509 0.7548 0.89687 0.0
H1110 H 0.14282 0.75257 0.93474 0.0
C1111 C 0.17171 0.73089 0.85408 0.0
C1112 C 0.18575 0.74296 0.86228 0.0
C1113 C 0.15365 0.73464 0.86561 0.0
C1114 C 0.12954 0.75365 0.92391 0.0
H1115 H 0.04507 0.71468 0.92808 0.0
H1116 H 0.07163 0.72453 0.90692 0.0
H1117 H 0.11245 0.75254 0.95522 0.0
H1118 H 0.19165 0.76868 0.88903 0.0
H1119 H 0.15999 0.77527 0.90926 0.0
H1120 H 0.11228 0.75516 0.86555 0.0
C1121 C 0.06707 0.73374 0.92402 0.0
C1122 C 0.11208 0.75369 0.93567 0.0
C1123 C 0.05186 0.72798 0.93625 0.0
C1124 C 0.18113 0.75918 0.88219 0.0
C1125 C 0.16306 0.7628 0.89389 0.0
C1126 C 0.11251 0.75471 0.88515 0.0
C1127 C 0.07705 0.74996 0.93437 0.0
C1128 C 0.09476 0.75363 0.92225 0.0
C1129 C 0.1491 0.75052 0.88575 0.0
C1130 C 0.13009 0.75351 0.89846 0.0
H1131 H 0.05124 0.76362 0.98677 0.0
H1132 H 0.078 0.77384 0.96528 0.0
H1133 H 0.08195 0.75526 0.88596 0.0
H1134 H 0.17466 0.7185 0.83864 0.0
H1135 H 0.1434 0.72464 0.85901 0.0
C1136 C 0.26812 0.08254 0.94283 0.0
C1137 C 0.2813 0.07243 0.96166 0.0
C1138 C 0.27324 0.0972 0.92589 0.0
C1139 C 0.31398 0.11706 0.89947 0.0
H1140 H 0.27104 0.17306 0.88373 0.0
C1141 C 0.32032 0.19635 0.83758 0.0
C1142 C 0.3047 0.20399 0.82062 0.0
C1143 C 0.31955 0.17938 0.85512 0.0
C1144 C 0.28317 0.15746 0.88778 0.0
H1145 H 0.31067 0.06883 0.97681 0.0
H1146 H 0.31967 0.0951 0.94707 0.0
H1147 H 0.26636 0.14513 0.91375 0.0
H1148 H 0.27631 0.1991 0.80849 0.0
H1149 H 0.27499 0.16987 0.83891 0.0
H1150 H 0.33077 0.12984 0.87331 0.0
C1151 C 0.30535 0.09142 0.94546 0.0
C1152 C 0.28049 0.14137 0.90499 0.0
C1153 C 0.30023 0.07638 0.96246 0.0
C1154 C 0.28858 0.19382 0.82127 0.0
C1155 C 0.28776 0.1771 0.83883 0.0
C1156 C 0.31672 0.13338 0.88222 0.0
C1157 C 0.29162 0.10256 0.92739 0.0
C1158 C 0.29564 0.12061 0.91065 0.0
C1159 C 0.30306 0.16994 0.8562 0.0
C1160 C 0.30114 0.15345 0.8758 0.0
H1161 H 0.25354 0.07949 0.94142 0.0
H1162 H 0.26253 0.10476 0.9118 0.0
H1163 H 0.32597 0.10129 0.90342 0.0
H1164 H 0.33299 0.20374 0.83758 0.0
H1165 H 0.33155 0.17425 0.86829 0.0
C1166 C 0.04403 0.28323 0.96218 0.0
C1167 C 0.04371 0.2787 0.98704 0.0
C1168 C 0.02817 0.28183 0.94674 0.0
C1169 C 0.9824 0.26008 0.94251 0.0
H1170 H 0.96566 0.3108 0.89554 0.0
C1171 C 0.90489 0.28306 0.89613 0.0
C1172 C 0.90319 0.28934 0.87157 0.0
C1173 C 0.92291 0.27968 0.90884 0.0
C1174 C 0.97026 0.29629 0.9083 0.0
H1175 H 0.02658 0.26833 0.01489 0.0
H1176 H 0.99897 0.26614 0.98815 0.0
H1177 H 0.99556 0.30811 0.91994 0.0
H1178 H 0.91933 0.29675 0.84114 0.0
H1179 H 0.95084 0.29069 0.8633 0.0
H1180 H 0.95681 0.24862 0.93118 0.0
C1181 C 0.01157 0.27046 0.98042 0.0
C1182 C 0.98748 0.2947 0.92232 0.0
C1183 C 0.02746 0.27177 0.99584 0.0
C1184 C 0.92011 0.29179 0.85998 0.0
C1185 C 0.93814 0.28855 0.87276 0.0
C1186 C 0.96513 0.26173 0.92855 0.0
C1187 C 0.0115 0.27595 0.95573 0.0
C1188 C 0.99374 0.27669 0.93979 0.0
C1189 C 0.93976 0.28257 0.89742 0.0
C1190 C 0.95872 0.27999 0.9114 0.0
H1191 H 0.05631 0.28856 0.95473 0.0
H1192 H 0.02887 0.28571 0.92777 0.0
H1193 H 0.98687 0.24571 0.95544 0.0
H1194 H 0.89224 0.28074 0.90559 0.0
H1195 H 0.9235 0.27531 0.92784 0.0
C1196 C 0.81869 0.94915 0.95472 0.0
C1197 C 0.80526 0.97031 0.96347 0.0
C1198 C 0.81388 0.93617 0.9348 0.0
C1199 C 0.77297 0.9237 0.89846 0.0
H1200 H 0.81415 0.89941 0.85171 0.0
C1201 C 0.77314 0.84417 0.83131 0.0
C1202 C 0.78073 0.8443 0.80801 0.0
C1203 C 0.77386 0.86235 0.84849 0.0
C1204 C 0.80235 0.90627 0.86434 0.0
H1205 H 0.77584 0.99395 0.95826 0.0
H1206 H 0.76726 0.97088 0.92326 0.0
H1207 H 0.81945 0.92598 0.8849 0.0
H1208 H 0.79456 0.86428 0.78443 0.0
H1209 H 0.79579 0.89605 0.81443 0.0
H1210 H 0.75597 0.90367 0.87795 0.0
C1211 C 0.78163 0.96454 0.932 0.0
C1212 C 0.80548 0.92133 0.88358 0.0
C1213 C 0.78654 0.97776 0.95202 0.0
C1214 C 0.78859 0.86353 0.80217 0.0
C1215 C 0.7894 0.88169 0.81945 0.0
C1216 C 0.76987 0.90847 0.87924 0.0
C1217 C 0.79543 0.94379 0.92292 0.0
C1218 C 0.79101 0.92987 0.90116 0.0
C1219 C 0.78227 0.88118 0.84296 0.0
C1220 C 0.78466 0.89923 0.86213 0.0
H1221 H 0.8332 0.94263 0.96307 0.0
H1222 H 0.8247 0.92001 0.92871 0.0
H1223 H 0.76154 0.92991 0.91168 0.0
H1224 H 0.76691 0.82973 0.83652 0.0
H1225 H 0.76843 0.86114 0.86644 0.0
C1226 C 0.96768 0.74593 0.07706 0.0
C1227 C 0.96074 0.75285 0.0535 0.0
C1228 C 0.95447 0.74766 0.09598 0.0
C1229 C 0.90185 0.75065 0.10647 0.0
H1230 H 0.91491 0.76592 0.17262 0.0
C1231 C 0.86215 0.77364 0.20564 0.0
C1232 C 0.85106 0.75647 0.2054 0.0
C1233 C 0.87577 0.77332 0.18755 0.0
C1234 C 0.91092 0.7618 0.15423 0.0
H1235 H 0.93445 0.76813 0.03175 0.0
H1236 H 0.91152 0.77172 0.06478 0.0
H1237 H 0.93763 0.76706 0.14045 0.0
H1238 H 0.84595 0.72522 0.18599 0.0
H1239 H 0.86999 0.72436 0.15471 0.0
H1240 H 0.87492 0.74598 0.12013 0.0
C1241 C 0.92714 0.76435 0.06854 0.0
C1242 C 0.9241 0.76219 0.13577 0.0
C1243 C 0.94033 0.76251 0.04961 0.0
C1244 C 0.85417 0.73876 0.18674 0.0
C1245 C 0.86788 0.73839 0.16867 0.0
C1246 C 0.88866 0.75033 0.12491 0.0
C1247 C 0.93397 0.75647 0.09189 0.0
C1248 C 0.91976 0.75661 0.11161 0.0
C1249 C 0.87878 0.75577 0.16872 0.0
C1250 C 0.89299 0.75587 0.14908 0.0
H1251 H 0.98329 0.73829 0.08073 0.0
H1252 H 0.96033 0.74122 0.11361 0.0
H1253 H 0.89808 0.74588 0.08819 0.0
H1254 H 0.8601 0.78767 0.2196 0.0
H1255 H 0.88362 0.78722 0.18806 0.0
C1256 C 0.2701 0.97475 0.0884 0.0
C1257 C 0.28215 0.9766 0.06905 0.0
C1258 C 0.27607 0.95627 0.10497 0.0
C1259 C 0.30693 0.89484 0.11323 0.0
H1260 H 0.29639 0.91139 0.18097 0.0
C1261 C 0.30139 0.82509 0.18584 0.0
C1262 C 0.30773 0.82898 0.20962 0.0
C1263 C 0.30149 0.84176 0.16773 0.0
C1264 C 0.29972 0.90634 0.16221 0.0
H1265 H 0.31009 0.96036 0.05199 0.0
H1266 H 0.32062 0.9275 0.08128 0.0
H1267 H 0.29151 0.94329 0.15173 0.0
H1268 H 0.32039 0.8526 0.23258 0.0
H1269 H 0.32091 0.88112 0.20119 0.0
H1270 H 0.31498 0.85772 0.12389 0.0
C1271 C 0.30648 0.94062 0.08341 0.0
C1272 C 0.29674 0.9247 0.14539 0.0
C1273 C 0.30054 0.95948 0.0668 0.0
C1274 C 0.31504 0.84923 0.21458 0.0
C1275 C 0.31529 0.86568 0.19655 0.0
C1276 C 0.30988 0.87634 0.13016 0.0
C1277 C 0.29426 0.93891 0.10272 0.0
C1278 C 0.29995 0.91922 0.12064 0.0
C1279 C 0.30805 0.86256 0.17304 0.0
C1280 C 0.30609 0.88188 0.15486 0.0
H1281 H 0.25585 0.98761 0.09076 0.0
H1282 H 0.26617 0.95533 0.11939 0.0
H1283 H 0.30941 0.89005 0.09425 0.0
H1284 H 0.2957 0.80966 0.18141 0.0
H1285 H 0.29569 0.83884 0.14987 0.0
C1286 C 0.80382 0.10669 0.05306 0.0
C1287 C 0.79915 0.085 0.05785 0.0
C1288 C 0.7998 0.12592 0.0699 0.0
C1289 C 0.77509 0.14815 0.12879 0.0
H1290 H 0.81651 0.18136 0.13425 0.0
C1291 C 0.78725 0.20603 0.21318 0.0
C1292 C 0.79184 0.22802 0.20909 0.0
C1293 C 0.78605 0.19001 0.19392 0.0
C1294 C 0.80467 0.17251 0.13281 0.0
H1295 H 0.78615 0.06648 0.08366 0.0
H1296 H 0.77953 0.09982 0.11359 0.0
H1297 H 0.81753 0.15127 0.10218 0.0
H1298 H 0.79857 0.25041 0.18132 0.0
H1299 H 0.79672 0.2223 0.14778 0.0
H1300 H 0.76276 0.16899 0.16023 0.0
C1301 C 0.7858 0.10239 0.09652 0.0
C1302 C 0.80517 0.15524 0.11428 0.0
C1303 C 0.7895 0.08325 0.07934 0.0
C1304 C 0.79501 0.23366 0.18518 0.0
C1305 C 0.79404 0.21749 0.16595 0.0
C1306 C 0.77473 0.16528 0.14756 0.0
C1307 C 0.79153 0.12372 0.09238 0.0
C1308 C 0.79038 0.14277 0.11189 0.0
C1309 C 0.78964 0.1954 0.17009 0.0
C1310 C 0.78954 0.17767 0.1498 0.0
H1311 H 0.81138 0.1084 0.03664 0.0
H1312 H 0.80387 0.14223 0.06559 0.0
H1313 H 0.76331 0.13922 0.1275 0.0
H1314 H 0.78464 0.2011 0.23133 0.0
H1315 H 0.78281 0.17308 0.19779 0.0
C1316 C 0.5936 0.59421 0.85992 0.0
C1317 C 0.58711 0.58321 0.83938 0.0
C1318 C 0.60426 0.61138 0.85744 0.0
C1319 C 0.6165 0.65276 0.8138 0.0
H1320 H 0.6636 0.64563 0.85425 0.0
C1321 C 0.67721 0.70054 0.79426 0.0
C1322 C 0.68645 0.70918 0.81417 0.0
C1323 C 0.66381 0.6868 0.79777 0.0
C1324 C 0.65034 0.64815 0.84305 0.0
H1325 H 0.58668 0.58194 0.80004 0.0
H1326 H 0.60509 0.61189 0.79578 0.0
H1327 H 0.64218 0.61922 0.85991 0.0
H1328 H 0.68874 0.71018 0.85344 0.0
H1329 H 0.66504 0.68688 0.85953 0.0
H1330 H 0.62477 0.6816 0.79682 0.0
C1331 C 0.60172 0.60746 0.81382 0.0
C1332 C 0.63806 0.63298 0.8463 0.0
C1333 C 0.59112 0.59026 0.81629 0.0
C1334 C 0.68173 0.70409 0.83767 0.0
C1335 C 0.66832 0.69044 0.84117 0.0
C1336 C 0.62877 0.66799 0.81058 0.0
C1337 C 0.60863 0.61799 0.83435 0.0
C1338 C 0.62107 0.635 0.83162 0.0
C1339 C 0.65936 0.6814 0.82128 0.0
C1340 C 0.64591 0.66577 0.82508 0.0
H1341 H 0.59051 0.5895 0.87794 0.0
H1342 H 0.60913 0.61946 0.87361 0.0
H1343 H 0.60338 0.65494 0.80239 0.0
H1344 H 0.68036 0.70433 0.77593 0.0
H1345 H 0.65731 0.67995 0.78203 0.0
C1346 C 0.49342 0.59957 0.80651 0.0
C1347 C 0.49731 0.5751 0.7995 0.0
C1348 C 0.47498 0.61549 0.8018 0.0
C1349 C 0.42652 0.62239 0.76876 0.0
H1350 H 0.40873 0.67084 0.81949 0.0
C1351 C 0.34565 0.68374 0.77641 0.0
C1352 C 0.34412 0.70857 0.77977 0.0
C1353 C 0.36411 0.6667 0.77784 0.0
C1354 C 0.41352 0.65749 0.80511 0.0
H1355 H 0.4852 0.54812 0.78142 0.0
H1356 H 0.45254 0.57577 0.77384 0.0
H1357 H 0.44124 0.64271 0.8229 0.0
H1358 H 0.36079 0.7349 0.7875 0.0
H1359 H 0.39277 0.7052 0.79062 0.0
H1360 H 0.39822 0.63706 0.7515 0.0
C1361 C 0.4639 0.5829 0.78246 0.0
C1362 C 0.43227 0.64141 0.80692 0.0
C1363 C 0.48262 0.567 0.78674 0.0
C1364 C 0.3614 0.71593 0.78488 0.0
C1365 C 0.37974 0.69892 0.78671 0.0
C1366 C 0.40755 0.63834 0.76715 0.0
C1367 C 0.45966 0.60726 0.79056 0.0
C1368 C 0.43925 0.62384 0.7886 0.0
C1369 C 0.38134 0.67413 0.78311 0.0
C1370 C 0.40097 0.65626 0.78518 0.0
H1371 H 0.50456 0.6063 0.81624 0.0
H1372 H 0.47265 0.63422 0.80755 0.0
H1373 H 0.43132 0.60929 0.75421 0.0
H1374 H 0.33265 0.67749 0.77225 0.0
H1375 H 0.3649 0.6477 0.77511 0.0
C1376 C 0.49838 0.45079 0.86051 0.0
C1377 C 0.50113 0.46517 0.84142 0.0
C1378 C 0.48364 0.43851 0.85894 0.0
C1379 C 0.4532 0.41493 0.8139 0.0
H1380 H 0.4237 0.40754 0.87013 0.0
C1381 C 0.38946 0.36822 0.80898 0.0
C1382 C 0.38916 0.35208 0.82757 0.0
C1383 C 0.40242 0.38301 0.81044 0.0
C1384 C 0.43193 0.4093 0.85431 0.0
H1385 H 0.4901 0.47817 0.80581 0.0
H1386 H 0.46416 0.45734 0.80341 0.0
H1387 H 0.44713 0.43221 0.87339 0.0
H1388 H 0.40266 0.33842 0.86194 0.0
H1389 H 0.42509 0.36431 0.86453 0.0
H1390 H 0.438 0.39197 0.79485 0.0
C1391 C 0.47363 0.45524 0.81945 0.0
C1392 C 0.44536 0.42342 0.85618 0.0
C1393 C 0.48839 0.46747 0.82099 0.0
C1394 C 0.40221 0.35097 0.84753 0.0
C1395 C 0.41509 0.36581 0.84903 0.0
C1396 C 0.43971 0.40088 0.81201 0.0
C1397 C 0.47124 0.44036 0.83827 0.0
C1398 C 0.45629 0.42624 0.83605 0.0
C1399 C 0.4153 0.38204 0.83055 0.0
C1400 C 0.42905 0.39774 0.83226 0.0
H1401 H 0.50773 0.44882 0.87663 0.0
H1402 H 0.48233 0.42705 0.8737 0.0
H1403 H 0.46159 0.4164 0.79813 0.0
H1404 H 0.37943 0.36976 0.79351 0.0
H1405 H 0.40211 0.39551 0.79602 0.0
C1406 C 0.61847 0.48608 0.77538 0.0
C1407 C 0.60008 0.48112 0.77804 0.0
C1408 C 0.63572 0.46729 0.773 0.0
C1409 C 0.65568 0.4019 0.78587 0.0
H1410 H 0.70021 0.40903 0.74966 0.0
C1411 C 0.72659 0.32399 0.77115 0.0
C1412 C 0.74478 0.32976 0.77435 0.0
C1413 C 0.7088 0.34216 0.7712 0.0
C1414 C 0.68794 0.40686 0.76001 0.0
H1415 H 0.58537 0.45238 0.77897 0.0
H1416 H 0.61535 0.41961 0.77394 0.0
H1417 H 0.66922 0.44071 0.74848 0.0
H1418 H 0.75841 0.3593 0.78018 0.0
H1419 H 0.72731 0.39104 0.78008 0.0
H1420 H 0.67443 0.36781 0.79703 0.0
C1421 C 0.61655 0.43805 0.77445 0.0
C1422 C 0.67015 0.42505 0.75938 0.0
C1423 C 0.59928 0.45687 0.77707 0.0
C1424 C 0.7447 0.35418 0.77777 0.0
C1425 C 0.72689 0.37239 0.77752 0.0
C1426 C 0.67341 0.3836 0.78626 0.0
C1427 C 0.6351 0.44296 0.77295 0.0
C1428 C 0.65378 0.42295 0.77247 0.0
C1429 C 0.70873 0.3666 0.77416 0.0
C1430 C 0.6898 0.38595 0.7735 0.0
H1431 H 0.61971 0.5045 0.77618 0.0
H1432 H 0.64966 0.47193 0.77221 0.0
H1433 H 0.64362 0.39974 0.79659 0.0
H1434 H 0.72606 0.3054 0.7684 0.0
H1435 H 0.69508 0.33712 0.76838 0.0
C1436 C 0.60338 0.44557 0.21759 0.0
C1437 C 0.59489 0.46538 0.2329 0.0
C1438 C 0.61962 0.42735 0.2253 0.0
C1439 C 0.66236 0.41609 0.2667 0.0
H1440 H 0.66761 0.34944 0.24629 0.0
C1441 C 0.73807 0.34676 0.25744 0.0
C1442 C 0.74014 0.32261 0.26373 0.0
C1443 C 0.71957 0.36355 0.25735 0.0
C1444 C 0.66635 0.36786 0.25246 0.0
H1445 H 0.59663 0.48134 0.26862 0.0
H1446 H 0.62544 0.4493 0.28221 0.0
H1447 H 0.63609 0.37945 0.24072 0.0
H1448 H 0.72419 0.29732 0.27509 0.0
H1449 H 0.69185 0.32668 0.27491 0.0
H1450 H 0.69272 0.40452 0.27818 0.0
C1451 C 0.61936 0.44803 0.26414 0.0
C1452 C 0.64831 0.38514 0.24907 0.0
C1453 C 0.60284 0.46628 0.25644 0.0
C1454 C 0.72316 0.3157 0.26998 0.0
C1455 C 0.7046 0.33255 0.26986 0.0
C1456 C 0.68045 0.3988 0.27005 0.0
C1457 C 0.62798 0.4284 0.24855 0.0
C1458 C 0.64622 0.40957 0.25557 0.0
C1459 C 0.70258 0.3567 0.26355 0.0
C1460 C 0.68281 0.37457 0.26244 0.0
H1461 H 0.59762 0.44419 0.19936 0.0
H1462 H 0.62601 0.41277 0.21267 0.0
H1463 H 0.66129 0.43475 0.27182 0.0
H1464 H 0.75077 0.3528 0.2525 0.0
H1465 H 0.71856 0.38184 0.25195 0.0
C1466 C 0.60282 0.57921 0.21247 0.0
C1467 C 0.59466 0.57446 0.18989 0.0
C1468 C 0.61748 0.59162 0.21398 0.0
C1469 C 0.6379 0.63385 0.18063 0.0
H1470 H 0.68323 0.6122 0.22388 0.0
C1471 C 0.70459 0.67478 0.1797 0.0
C1472 C 0.71378 0.67826 0.20196 0.0
C1473 C 0.69007 0.66217 0.17842 0.0
C1474 C 0.67054 0.6187 0.21195 0.0
H1475 H 0.59599 0.5788 0.15114 0.0
H1476 H 0.62139 0.60064 0.15383 0.0
H1477 H 0.65804 0.58998 0.2212 0.0
H1478 H 0.71482 0.67106 0.24038 0.0
H1479 H 0.6891 0.64965 0.23825 0.0
H1480 H 0.65023 0.6627 0.17153 0.0
C1481 C 0.61625 0.59494 0.17039 0.0
C1482 C 0.65612 0.60591 0.21038 0.0
C1483 C 0.60165 0.58241 0.16886 0.0
C1484 C 0.70795 0.66893 0.22296 0.0
C1485 C 0.69336 0.65637 0.22169 0.0
C1486 C 0.65226 0.64671 0.18229 0.0
C1487 C 0.62431 0.59973 0.19298 0.0
C1488 C 0.63966 0.6133 0.19466 0.0
C1489 C 0.68425 0.65279 0.19938 0.0
C1490 C 0.66881 0.63927 0.19791 0.0
H1491 H 0.59766 0.57381 0.22913 0.0
H1492 H 0.62319 0.59532 0.23169 0.0
H1493 H 0.62524 0.64025 0.16864 0.0
H1494 H 0.70849 0.68198 0.1632 0.0
H1495 H 0.68357 0.65954 0.16089 0.0
C1496 C 0.47666 0.58194 0.22229 0.0
C1497 C 0.49521 0.57773 0.23402 0.0
C1498 C 0.46153 0.6023 0.22808 0.0
C1499 C 0.44287 0.65169 0.27231 0.0
H1500 H 0.41486 0.68255 0.21528 0.0
C1501 C 0.37664 0.73951 0.27419 0.0
C1502 C 0.36009 0.73695 0.26047 0.0
C1503 C 0.39481 0.7219 0.27254 0.0
C1504 C 0.42253 0.67419 0.2314 0.0
H1505 H 0.51214 0.59089 0.26207 0.0
H1506 H 0.48538 0.62706 0.27225 0.0
H1507 H 0.44335 0.64794 0.2106 0.0
H1508 H 0.34978 0.71412 0.23401 0.0
H1509 H 0.38125 0.68393 0.2309 0.0
H1510 H 0.4216 0.67807 0.29302 0.0
C1511 C 0.48268 0.61438 0.25854 0.0
C1512 C 0.43883 0.65428 0.22874 0.0
C1513 C 0.49796 0.5937 0.25278 0.0
C1514 C 0.36219 0.7167 0.24485 0.0
C1515 C 0.38028 0.69941 0.24297 0.0
C1516 C 0.42648 0.67182 0.27498 0.0
C1517 C 0.46452 0.61926 0.24562 0.0
C1518 C 0.44882 0.64227 0.24911 0.0
C1519 C 0.39679 0.70171 0.25681 0.0
C1520 C 0.41581 0.68279 0.2545 0.0
H1521 H 0.47396 0.56977 0.20803 0.0
H1522 H 0.44755 0.60507 0.21831 0.0
H1523 H 0.4503 0.64287 0.28835 0.0
H1524 H 0.37546 0.75482 0.28653 0.0
H1525 H 0.40732 0.72414 0.28337 0.0
C1526 C 0.49436 0.45955 0.21828 0.0
C1527 C 0.49673 0.46883 0.1956 0.0
C1528 C 0.48017 0.44683 0.22136 0.0
C1529 C 0.45007 0.41268 0.18693 0.0
H1530 H 0.41984 0.42138 0.24571 0.0
C1531 C 0.40127 0.35005 0.20888 0.0
C1532 C 0.38262 0.36069 0.21865 0.0
C1533 C 0.41507 0.36344 0.20673 0.0
C1534 C 0.42805 0.41887 0.22911 0.0
H1535 H 0.48567 0.47235 0.15848 0.0
H1536 H 0.46093 0.45025 0.16382 0.0
H1537 H 0.44366 0.44488 0.24028 0.0
H1538 H 0.36398 0.39378 0.23409 0.0
H1539 H 0.38808 0.41726 0.23027 0.0
H1540 H 0.43423 0.38704 0.17553 0.0
C1541 C 0.47028 0.45245 0.17917 0.0
C1542 C 0.44187 0.43214 0.22611 0.0
C1543 C 0.48449 0.46513 0.17609 0.0
C1544 C 0.37827 0.38497 0.22669 0.0
C1545 C 0.39209 0.39842 0.22449 0.0
C1546 C 0.43627 0.39942 0.18993 0.0
C1547 C 0.46797 0.44308 0.20183 0.0
C1548 C 0.45308 0.42918 0.20499 0.0
C1549 C 0.4106 0.38787 0.21427 0.0
C1550 C 0.42512 0.40227 0.21109 0.0
H1551 H 0.50371 0.46171 0.23362 0.0
H1552 H 0.47903 0.43953 0.23896 0.0
H1553 H 0.45858 0.40973 0.17055 0.0
H1554 H 0.40526 0.33124 0.20297 0.0
H1555 H 0.42932 0.35457 0.19927 0.0
C1556 C 0.83147 0.57012 0.59324 0.0
C1557 C 0.81768 0.56442 0.57673 0.0
C1558 C 0.8258 0.58884 0.61033 0.0
C1559 C 0.78657 0.64456 0.62521 0.0
H1560 H 0.81547 0.63792 0.68664 0.0
C1561 C 0.77179 0.71655 0.70506 0.0
C1562 C 0.78873 0.72326 0.71349 0.0
C1563 C 0.77337 0.69702 0.68866 0.0
C1564 C 0.80728 0.64006 0.66956 0.0
H1565 H 0.78685 0.57419 0.56546 0.0
H1566 H 0.77669 0.60688 0.59601 0.0
H1567 H 0.82077 0.60367 0.65831 0.0
H1568 H 0.82062 0.71455 0.71139 0.0
H1569 H 0.8234 0.68005 0.68344 0.0
H1570 H 0.77284 0.68106 0.63708 0.0
C1571 C 0.79208 0.59687 0.59536 0.0
C1572 C 0.81037 0.62046 0.65319 0.0
C1573 C 0.79785 0.57804 0.57792 0.0
C1574 C 0.80728 0.70989 0.70528 0.0
C1575 C 0.80888 0.69008 0.68933 0.0
C1576 C 0.78322 0.66413 0.64187 0.0
C1577 C 0.80603 0.60246 0.61187 0.0
C1578 C 0.80054 0.62258 0.63043 0.0
C1579 C 0.79196 0.68345 0.68079 0.0
C1580 C 0.79394 0.66224 0.66395 0.0
H1581 H 0.84693 0.56032 0.59283 0.0
H1582 H 0.83715 0.59288 0.62209 0.0
H1583 H 0.77878 0.64701 0.6079 0.0
H1584 H 0.75726 0.72658 0.71091 0.0
H1585 H 0.76009 0.69227 0.68244 0.0
C1586 C 0.52181 0.75919 0.55737 0.0
C1587 C 0.53997 0.74546 0.56695 0.0
C1588 C 0.5042 0.76122 0.56951 0.0
C1589 C 0.48514 0.75553 0.63029 0.0
H1590 H 0.43685 0.75547 0.59459 0.0
C1591 C 0.41256 0.75766 0.67878 0.0
C1592 C 0.39495 0.77255 0.66901 0.0
C1593 C 0.43024 0.75314 0.66616 0.0
C1594 C 0.45015 0.75577 0.60484 0.0
H1595 H 0.55364 0.72295 0.5969 0.0
H1596 H 0.52294 0.72617 0.61785 0.0
H1597 H 0.46756 0.74979 0.57292 0.0
H1598 H 0.38217 0.79379 0.63786 0.0
H1599 H 0.41297 0.78634 0.61616 0.0
H1600 H 0.46772 0.76173 0.66219 0.0
C1601 C 0.52236 0.73561 0.60103 0.0
C1602 C 0.46779 0.7525 0.59239 0.0
C1603 C 0.53997 0.73352 0.58884 0.0
C1604 C 0.39547 0.78249 0.64612 0.0
C1605 C 0.41312 0.77796 0.63351 0.0
C1606 C 0.4675 0.75883 0.64274 0.0
C1607 C 0.50424 0.7496 0.59161 0.0
C1608 C 0.48552 0.75244 0.60493 0.0
C1609 C 0.43079 0.76334 0.6434 0.0
C1610 C 0.44973 0.75911 0.63018 0.0
H1611 H 0.52117 0.76841 0.54043 0.0
H1612 H 0.49058 0.77232 0.56179 0.0
H1613 H 0.49842 0.75597 0.64052 0.0
H1614 H 0.4128 0.74986 0.69644 0.0
H1615 H 0.44349 0.74156 0.67424 0.0
C1616 C 0.3154 0.4351 0.57892 0.0
C1617 C 0.32724 0.45075 0.58518 0.0
C1618 C 0.31175 0.41916 0.59587 0.0
C1619 C 0.31148 0.4094 0.66182 0.0
H1620 H 0.31471 0.343 0.64256 0.0
C1621 C 0.31043 0.33609 0.73171 0.0
C1622 C 0.30138 0.31771 0.72484 0.0
C1623 C 0.31272 0.35291 0.71486 0.0
C1624 C 0.31341 0.36157 0.64824 0.0
H1625 H 0.34424 0.46206 0.61445 0.0
H1626 H 0.33797 0.43426 0.64388 0.0
H1627 H 0.32022 0.37094 0.61282 0.0
H1628 H 0.28706 0.30321 0.69493 0.0
H1629 H 0.29054 0.33281 0.66587 0.0
H1630 H 0.3045 0.40017 0.69717 0.0
C1631 C 0.33147 0.43433 0.62586 0.0
C1632 C 0.31664 0.37759 0.63113 0.0
C1633 C 0.33526 0.4501 0.60887 0.0
C1634 C 0.29423 0.31699 0.70086 0.0
C1635 C 0.29638 0.33391 0.68409 0.0
C1636 C 0.30811 0.39342 0.6789 0.0
C1637 C 0.31969 0.41862 0.61959 0.0
C1638 C 0.31582 0.40169 0.63772 0.0
C1639 C 0.30591 0.35193 0.69071 0.0
C1640 C 0.3091 0.36922 0.6724 0.0
H1641 H 0.3091 0.43501 0.56083 0.0
H1642 H 0.3025 0.40744 0.59047 0.0
H1643 H 0.31045 0.42793 0.66745 0.0
H1644 H 0.31628 0.3371 0.74995 0.0
H1645 H 0.32037 0.36627 0.72065 0.0
C1646 C 0.55845 0.25993 0.55512 0.0
C1647 C 0.55365 0.23872 0.56172 0.0
C1648 C 0.57373 0.26735 0.56746 0.0
C1649 C 0.60475 0.25734 0.62429 0.0
H1650 H 0.64394 0.27512 0.58611 0.0
C1651 C 0.67561 0.27328 0.66942 0.0
C1652 C 0.69337 0.26314 0.65733 0.0
C1653 C 0.65731 0.27499 0.65778 0.0
C1654 C 0.63317 0.27014 0.59707 0.0
H1655 H 0.56059 0.2093 0.58705 0.0
H1656 H 0.58684 0.22208 0.60828 0.0
H1657 H 0.61382 0.2696 0.56642 0.0
H1658 H 0.70557 0.24801 0.6229 0.0
H1659 H 0.67385 0.25027 0.60295 0.0
H1660 H 0.62438 0.25664 0.65469 0.0
C1661 C 0.57892 0.23316 0.59377 0.0
C1662 C 0.61574 0.26729 0.5858 0.0
C1663 C 0.56389 0.22571 0.58141 0.0
C1664 C 0.69226 0.25555 0.63299 0.0
C1665 C 0.67398 0.25718 0.62138 0.0
C1666 C 0.62214 0.26013 0.63553 0.0
C1667 C 0.58429 0.25388 0.58682 0.0
C1668 C 0.60151 0.26028 0.59917 0.0
C1669 C 0.65622 0.26655 0.63372 0.0
C1670 C 0.63682 0.26608 0.62202 0.0
H1671 H 0.55091 0.27027 0.53994 0.0
H1672 H 0.5774 0.2835 0.56172 0.0
H1673 H 0.59401 0.25228 0.63526 0.0
H1674 H 0.6758 0.27919 0.6882 0.0
H1675 H 0.644 0.28266 0.6678 0.0
C1676 C 0.79863 0.46515 0.46364 0.0
C1677 C 0.81477 0.47439 0.45895 0.0
C1678 C 0.79322 0.44869 0.44717 0.0
C1679 C 0.80003 0.42525 0.38344 0.0
H1680 H 0.79373 0.36542 0.40865 0.0
C1681 C 0.8121 0.33933 0.32369 0.0
C1682 C 0.79915 0.32453 0.32544 0.0
C1683 C 0.81142 0.35842 0.34022 0.0
C1684 C 0.79517 0.38215 0.40129 0.0
H1685 H 0.83723 0.47457 0.4329 0.0
H1686 H 0.82776 0.44651 0.40439 0.0
H1687 H 0.7959 0.39856 0.43663 0.0
H1688 H 0.77548 0.31811 0.34646 0.0
H1689 H 0.77438 0.35151 0.3755 0.0
H1690 H 0.79978 0.40881 0.34822 0.0
C1691 C 0.81921 0.45173 0.42062 0.0
C1692 C 0.79635 0.40119 0.41734 0.0
C1693 C 0.82473 0.46777 0.43708 0.0
C1694 C 0.78572 0.32909 0.34456 0.0
C1695 C 0.7851 0.34821 0.36125 0.0
C1696 C 0.79888 0.40629 0.36747 0.0
C1697 C 0.80364 0.44158 0.42557 0.0
C1698 C 0.79932 0.42275 0.40863 0.0
C1699 C 0.79778 0.36333 0.35908 0.0
C1700 C 0.79696 0.38424 0.37618 0.0
H1701 H 0.79079 0.46976 0.48044 0.0
H1702 H 0.78107 0.44131 0.45147 0.0
H1703 H 0.80191 0.44176 0.37604 0.0
H1704 H 0.8227 0.3364 0.3093 0.0
H1705 H 0.82169 0.36934 0.33825 0.0
C1706 C 0.65892 0.77204 0.45204 0.0
C1707 C 0.64778 0.75516 0.44817 0.0
C1708 C 0.67209 0.7751 0.43455 0.0
C1709 C 0.68239 0.76795 0.36969 0.0
H1710 H 0.73662 0.76365 0.38914 0.0
C1711 C 0.7431 0.76175 0.29899 0.0
C1712 C 0.75924 0.77106 0.30518 0.0
C1713 C 0.72897 0.76117 0.3162 0.0
C1714 C 0.72147 0.76542 0.38332 0.0
H1715 H 0.6413 0.72878 0.42266 0.0
H1716 H 0.66398 0.73447 0.39191 0.0
H1717 H 0.71291 0.76076 0.41946 0.0
H1718 H 0.77273 0.78794 0.33405 0.0
H1719 H 0.7477 0.78807 0.36364 0.0
H1720 H 0.69062 0.77328 0.33371 0.0
C1721 C 0.66268 0.74514 0.40858 0.0
C1722 C 0.7079 0.76361 0.40079 0.0
C1723 C 0.64982 0.74174 0.42625 0.0
C1724 C 0.76057 0.78045 0.32875 0.0
C1725 C 0.74624 0.78029 0.34582 0.0
C1726 C 0.69587 0.77021 0.35225 0.0
C1727 C 0.67408 0.7617 0.41261 0.0
C1728 C 0.68826 0.76463 0.39414 0.0
C1729 C 0.73037 0.77027 0.33999 0.0
C1730 C 0.7157 0.76877 0.35873 0.0
H1731 H 0.65772 0.78253 0.4688 0.0
H1732 H 0.68063 0.78807 0.43811 0.0
H1733 H 0.66729 0.76905 0.36407 0.0
H1734 H 0.74174 0.75414 0.28107 0.0
H1735 H 0.71726 0.7529 0.31095 0.0
C1736 C 0.31344 0.58456 0.44103 0.0
C1737 C 0.33078 0.57792 0.45545 0.0
C1738 C 0.3103 0.60388 0.42519 0.0
C1739 C 0.32528 0.65961 0.41409 0.0
H1740 H 0.30405 0.65346 0.3494 0.0
C1741 C 0.32191 0.73096 0.34095 0.0
C1742 C 0.30584 0.73594 0.32439 0.0
C1743 C 0.32446 0.71222 0.3574 0.0
C1744 C 0.3097 0.65568 0.36751 0.0
H1745 H 0.35835 0.58661 0.46453 0.0
H1746 H 0.35291 0.62031 0.4368 0.0
H1747 H 0.30965 0.61971 0.37686 0.0
H1748 H 0.27958 0.72533 0.31261 0.0
H1749 H 0.28375 0.69304 0.34164 0.0
H1750 H 0.32518 0.69563 0.40489 0.0
C1751 C 0.3417 0.61058 0.43785 0.0
C1752 C 0.31297 0.63625 0.38325 0.0
C1753 C 0.34492 0.5911 0.45357 0.0
C1754 C 0.29216 0.72198 0.32503 0.0
C1755 C 0.29466 0.7033 0.34159 0.0
C1756 C 0.3219 0.67911 0.39841 0.0
C1757 C 0.32435 0.61721 0.42346 0.0
C1758 C 0.32086 0.63794 0.40672 0.0
C1759 C 0.31095 0.69798 0.35785 0.0
C1760 C 0.31412 0.67741 0.37485 0.0
H1761 H 0.30234 0.57466 0.44179 0.0
H1762 H 0.2967 0.60859 0.41453 0.0
H1763 H 0.33108 0.66166 0.43217 0.0
H1764 H 0.33284 0.74119 0.3409 0.0
H1765 H 0.33734 0.70852 0.36934 0.0
C1766 C 0.44399 0.22681 0.46926 0.0
C1767 C 0.45944 0.23819 0.47091 0.0
C1768 C 0.42838 0.23434 0.45265 0.0
C1769 C 0.4157 0.26393 0.39417 0.0
H1770 H 0.36247 0.26398 0.41101 0.0
C1771 C 0.3497 0.28734 0.32502 0.0
C1772 C 0.33589 0.2735 0.32564 0.0
C1773 C 0.36446 0.2852 0.34306 0.0
C1774 C 0.37727 0.26382 0.40589 0.0
H1775 H 0.47034 0.26685 0.45662 0.0
H1776 H 0.44287 0.28008 0.42721 0.0
H1777 H 0.38831 0.25775 0.44232 0.0
H1778 H 0.32703 0.24636 0.34579 0.0
H1779 H 0.35286 0.24239 0.37695 0.0
H1780 H 0.40471 0.26951 0.35761 0.0
C1781 C 0.44298 0.26522 0.43891 0.0
C1782 C 0.3921 0.26035 0.4239 0.0
C1783 C 0.45862 0.2578 0.45586 0.0
C1784 C 0.33733 0.25737 0.34471 0.0
C1785 C 0.3521 0.25523 0.36273 0.0
C1786 C 0.40084 0.26736 0.37609 0.0
C1787 C 0.42775 0.25341 0.43699 0.0
C1788 C 0.41159 0.25992 0.41824 0.0
C1789 C 0.36583 0.26919 0.36224 0.0
C1790 C 0.38148 0.26694 0.38164 0.0
H1791 H 0.44409 0.21168 0.4806 0.0
H1792 H 0.41711 0.2246 0.45153 0.0
H1793 H 0.43058 0.26345 0.3891 0.0
H1794 H 0.34904 0.30003 0.31069 0.0
H1795 H 0.37461 0.29643 0.34217 0.0
C1796 C 0.63752 0.82946 0.55618 0.0
C1797 C 0.62303 0.81709 0.55952 0.0
C1798 C 0.64961 0.83333 0.57564 0.0
C1799 C 0.65554 0.832 0.64275 0.0
H1800 H 0.7114 0.81269 0.62905 0.0
C1801 C 0.71673 0.80603 0.7174 0.0
C1802 C 0.73498 0.81084 0.71345 0.0
C1803 C 0.70174 0.81103 0.69952 0.0
C1804 C 0.69587 0.81863 0.63321 0.0
H1805 H 0.60908 0.80042 0.58623 0.0
H1806 H 0.63012 0.80715 0.62 0.0
H1807 H 0.68741 0.81481 0.59615 0.0
H1808 H 0.75134 0.82618 0.68841 0.0
H1809 H 0.72514 0.8355 0.6577 0.0
H1810 H 0.66408 0.83547 0.67995 0.0
C1811 C 0.63216 0.8139 0.60241 0.0
C1812 C 0.68209 0.81984 0.61427 0.0
C1813 C 0.62017 0.8099 0.58298 0.0
C1814 C 0.73754 0.82193 0.69188 0.0
C1815 C 0.72254 0.82715 0.67418 0.0
C1816 C 0.66936 0.83092 0.66174 0.0
C1817 C 0.64736 0.82508 0.59886 0.0
C1818 C 0.66177 0.82623 0.61882 0.0
C1819 C 0.70465 0.82114 0.67744 0.0
C1820 C 0.68973 0.82394 0.65725 0.0
H1821 H 0.64008 0.8353 0.53838 0.0
H1822 H 0.66104 0.84229 0.57239 0.0
H1823 H 0.63997 0.83721 0.64681 0.0
H1824 H 0.71434 0.79739 0.7338 0.0
H1825 H 0.68823 0.80597 0.70261 0.0
C1826 C 0.58854 0.198 0.47164 0.0
C1827 C 0.57383 0.19003 0.45875 0.0
C1828 C 0.60535 0.20017 0.46001 0.0
C1829 C 0.62219 0.21061 0.40039 0.0
H1830 H 0.67446 0.19024 0.43009 0.0
C1831 C 0.69198 0.21739 0.35136 0.0
C1832 C 0.70691 0.2238 0.36533 0.0
C1833 C 0.67586 0.21256 0.36246 0.0
C1834 C 0.65993 0.19633 0.42168 0.0
H1835 H 0.56535 0.17762 0.4237 0.0
H1836 H 0.59481 0.18142 0.40326 0.0
H1837 H 0.64646 0.18199 0.44999 0.0
H1838 H 0.71644 0.23081 0.40182 0.0
H1839 H 0.68807 0.22293 0.42125 0.0
H1840 H 0.63547 0.22546 0.37238 0.0
C1841 C 0.59326 0.18605 0.42238 0.0
C1842 C 0.64393 0.19148 0.43304 0.0
C1843 C 0.57651 0.18365 0.4341 0.0
C1844 C 0.70524 0.22565 0.39063 0.0
C1845 C 0.68904 0.22102 0.40174 0.0
C1846 C 0.63817 0.21563 0.38912 0.0
C1847 C 0.60773 0.19459 0.43517 0.0
C1848 C 0.62489 0.19865 0.42256 0.0
C1849 C 0.67423 0.2142 0.38781 0.0
C1850 C 0.65723 0.20865 0.39967 0.0
H1851 H 0.58694 0.20281 0.49071 0.0
H1852 H 0.61619 0.20693 0.4703 0.0
H1853 H 0.60762 0.21667 0.39208 0.0
H1854 H 0.69303 0.21546 0.33184 0.0
H1855 H 0.66492 0.207 0.35119 0.0
C1856 C 0.84547 0.55846 0.42694 0.0
C1857 C 0.85113 0.56726 0.44919 0.0
C1858 C 0.844 0.57205 0.40604 0.0
C1859 C 0.83006 0.60985 0.36789 0.0
H1860 H 0.86231 0.65453 0.36137 0.0
C1861 C 0.80858 0.68896 0.30216 0.0
C1862 C 0.82335 0.69827 0.29283 0.0
C1863 C 0.81339 0.67034 0.31881 0.0
C1864 C 0.85338 0.64186 0.36252 0.0
H1865 H 0.85946 0.59711 0.46728 0.0
H1866 H 0.85605 0.62142 0.43126 0.0
H1867 H 0.86899 0.62655 0.39443 0.0
H1868 H 0.85483 0.69457 0.29242 0.0
H1869 H 0.86342 0.66119 0.32047 0.0
H1870 H 0.81503 0.62443 0.33533 0.0
C1871 C 0.85348 0.60365 0.42949 0.0
C1872 C 0.85698 0.62606 0.38187 0.0
C1873 C 0.85535 0.58983 0.45022 0.0
C1874 C 0.84313 0.68786 0.29954 0.0
C1875 C 0.84801 0.66886 0.31579 0.0
C1876 C 0.82672 0.62532 0.34823 0.0
C1877 C 0.84775 0.59499 0.40707 0.0
C1878 C 0.84508 0.61023 0.38518 0.0
C1879 C 0.83315 0.66024 0.32615 0.0
C1880 C 0.83803 0.64195 0.34557 0.0
H1881 H 0.84234 0.54097 0.42572 0.0
H1882 H 0.83994 0.5645 0.3891 0.0
H1883 H 0.82042 0.59813 0.36982 0.0
H1884 H 0.79317 0.69682 0.29749 0.0
H1885 H 0.80145 0.66462 0.32661 0.0
C1886 C 0.53463 0.81847 0.47015 0.0
C1887 C 0.5437 0.79346 0.47012 0.0
C1888 C 0.51575 0.8273 0.45962 0.0
C1889 C 0.47062 0.80924 0.44677 0.0
H1890 H 0.45995 0.85332 0.39314 0.0
C1891 C 0.39441 0.83572 0.3988 0.0
C1892 C 0.39504 0.83264 0.37348 0.0
C1893 C 0.41157 0.83558 0.41231 0.0
C1894 C 0.4627 0.84114 0.40823 0.0
H1895 H 0.54016 0.75823 0.45877 0.0
H1896 H 0.50742 0.77359 0.44103 0.0
H1897 H 0.49227 0.84439 0.41412 0.0
H1898 H 0.41391 0.8281 0.34238 0.0
H1899 H 0.44392 0.82764 0.36599 0.0
H1900 H 0.44147 0.80524 0.44057 0.0
C1901 C 0.51484 0.78634 0.44909 0.0
C1902 C 0.48109 0.83622 0.4203 0.0
C1903 C 0.53368 0.7776 0.45914 0.0
C1904 C 0.41304 0.83019 0.36189 0.0
C1905 C 0.43015 0.83025 0.37538 0.0
C1906 C 0.45223 0.81436 0.43495 0.0
C1907 C 0.50561 0.81119 0.44942 0.0
C1908 C 0.48535 0.81969 0.43922 0.0
C1909 C 0.42966 0.83258 0.40076 0.0
C1910 C 0.44824 0.82986 0.41515 0.0
H1911 H 0.54202 0.83111 0.47846 0.0
H1912 H 0.50888 0.84659 0.45999 0.0
H1913 H 0.47358 0.79648 0.46137 0.0
H1914 H 0.38077 0.83756 0.40824 0.0
H1915 H 0.41074 0.83752 0.43184 0.0
C1916 C 0.28584 0.46926 0.45404 0.0
C1917 C 0.30285 0.47768 0.45408 0.0
C1918 C 0.2801 0.4583 0.43309 0.0
C1919 C 0.30216 0.42743 0.37671 0.0
H1920 H 0.2482 0.42718 0.36026 0.0
C1921 C 0.28604 0.36944 0.29727 0.0
C1922 C 0.27588 0.35289 0.30456 0.0
C1923 C 0.286 0.38986 0.31173 0.0
C1924 C 0.26332 0.42729 0.36457 0.0
H1925 H 0.32626 0.4832 0.43206 0.0
H1926 H 0.3158 0.46532 0.39543 0.0
H1927 H 0.25473 0.45333 0.39351 0.0
H1928 H 0.25621 0.34581 0.33132 0.0
H1929 H 0.25608 0.38145 0.3564 0.0
H1930 H 0.31078 0.40126 0.34809 0.0
C1931 C 0.30737 0.46595 0.41165 0.0
C1932 C 0.26708 0.44208 0.38371 0.0
C1933 C 0.31333 0.47631 0.43263 0.0
C1934 C 0.26434 0.35817 0.32539 0.0
C1935 C 0.26413 0.37868 0.33966 0.0
C1936 C 0.29838 0.41296 0.35748 0.0
C1937 C 0.29107 0.45607 0.41176 0.0
C1938 C 0.2866 0.44202 0.39027 0.0
C1939 C 0.27561 0.39417 0.33351 0.0
C1940 C 0.27897 0.4124 0.35147 0.0
H1941 H 0.27752 0.47022 0.47041 0.0
H1942 H 0.26756 0.45075 0.43393 0.0
H1943 H 0.31741 0.42636 0.3815 0.0
H1944 H 0.29506 0.36584 0.28131 0.0
H1945 H 0.29485 0.40167 0.3065 0.0
C1946 C 0.47175 0.1813 0.60282 0.0
C1947 C 0.46916 0.19779 0.58388 0.0
C1948 C 0.45789 0.18464 0.62117 0.0
C1949 C 0.41864 0.23216 0.6502 0.0
H1950 H 0.40246 0.17831 0.67578 0.0
C1951 C 0.36856 0.24484 0.73254 0.0
C1952 C 0.35278 0.23403 0.73092 0.0
C1953 C 0.38372 0.23878 0.71581 0.0
C1954 C 0.40678 0.19353 0.66875 0.0
H1955 H 0.44954 0.23019 0.56894 0.0
H1956 H 0.42544 0.23601 0.60082 0.0
H1957 H 0.42649 0.1711 0.64343 0.0
H1958 H 0.34095 0.20772 0.71091 0.0
H1959 H 0.36734 0.19733 0.68156 0.0
H1960 H 0.39864 0.2547 0.67498 0.0
C1961 C 0.43839 0.22077 0.6018 0.0
C1962 C 0.42068 0.18938 0.65039 0.0
C1963 C 0.45223 0.21744 0.58351 0.0
C1964 C 0.35289 0.21637 0.71271 0.0
C1965 C 0.36807 0.21034 0.69593 0.0
C1966 C 0.40479 0.2363 0.66853 0.0
C1967 C 0.44114 0.20454 0.62097 0.0
C1968 C 0.42668 0.20869 0.64081 0.0
C1969 C 0.38346 0.22182 0.69702 0.0
C1970 C 0.39865 0.21707 0.678 0.0
H1971 H 0.48471 0.16611 0.60379 0.0
H1972 H 0.46054 0.17195 0.63581 0.0
H1973 H 0.42311 0.2474 0.64345 0.0
H1974 H 0.36905 0.25839 0.74644 0.0
H1975 H 0.39555 0.24762 0.71745 0.0
C1976 C 0.86537 0.42954 0.58952 0.0
C1977 C 0.85043 0.43927 0.57238 0.0
C1978 C 0.86284 0.41262 0.60602 0.0
C1979 C 0.83342 0.36943 0.61699 0.0
H1980 H 0.84476 0.38062 0.68478 0.0
C1981 C 0.8026 0.32505 0.69347 0.0
C1982 C 0.81487 0.31707 0.71375 0.0
C1983 C 0.80844 0.33841 0.67574 0.0
C1984 C 0.8418 0.377 0.6659 0.0
H1985 H 0.82155 0.43813 0.55835 0.0
H1986 H 0.81705 0.40886 0.5872 0.0
H1987 H 0.85284 0.40609 0.65423 0.0
H1988 H 0.84301 0.31674 0.73122 0.0
H1989 H 0.85327 0.33986 0.70013 0.0
H1990 H 0.82218 0.3405 0.62864 0.0
C1991 C 0.83072 0.41424 0.58792 0.0
C1992 C 0.84644 0.39159 0.6484 0.0
C1993 C 0.83319 0.43122 0.57158 0.0
C1994 C 0.83315 0.32271 0.71588 0.0
C1995 C 0.83901 0.33604 0.69811 0.0
C1996 C 0.82883 0.3548 0.63447 0.0
C1997 C 0.8454 0.40497 0.6055 0.0
C1998 C 0.84204 0.38817 0.62381 0.0
C1999 C 0.82671 0.34406 0.67785 0.0
C2000 C 0.8327 0.35864 0.65916 0.0
H2001 H 0.87875 0.4355 0.59062 0.0
H2002 H 0.87447 0.40562 0.61925 0.0
H2003 H 0.83012 0.36615 0.59813 0.0
H2004 H 0.78839 0.32109 0.69129 0.0
H2005 H 0.79848 0.34465 0.66056 0.0
C2006 C 0.2791 0.57816 0.57543 0.0
C2007 C 0.29193 0.57873 0.55659 0.0
C2008 C 0.27351 0.59798 0.59158 0.0
C2009 C 0.29669 0.64283 0.61636 0.0
H2010 H 0.24729 0.67232 0.648 0.0
C2011 C 0.29228 0.7192 0.68574 0.0
C2012 C 0.2821 0.71847 0.70707 0.0
C2013 C 0.29038 0.70438 0.66589 0.0
C2014 C 0.2612 0.66409 0.63941 0.0
H2015 H 0.3073 0.60079 0.53799 0.0
H2016 H 0.29713 0.63549 0.56557 0.0
H2017 H 0.24821 0.64251 0.61493 0.0
H2018 H 0.26145 0.70223 0.72414 0.0
H2019 H 0.25867 0.67564 0.68964 0.0
H2020 H 0.30998 0.66337 0.64098 0.0
C2021 C 0.29176 0.61975 0.56839 0.0
C2022 C 0.26169 0.64714 0.62049 0.0
C2023 C 0.2975 0.59999 0.55258 0.0
C2024 C 0.26951 0.70314 0.70791 0.0
C2025 C 0.2678 0.68803 0.6881 0.0
C2026 C 0.29625 0.65948 0.63524 0.0
C2027 C 0.28067 0.61843 0.5888 0.0
C2028 C 0.27943 0.63658 0.60866 0.0
C2029 C 0.27853 0.68818 0.66703 0.0
C2030 C 0.27851 0.67051 0.64688 0.0
H2031 H 0.27479 0.56179 0.57886 0.0
H2032 H 0.26496 0.59653 0.6072 0.0
H2033 H 0.31071 0.63445 0.60806 0.0
H2034 H 0.30182 0.73114 0.68439 0.0
H2035 H 0.29846 0.7054 0.64972 0.0
loop_
_geom_bond_atom_site_label_1
_geom_bond_atom_site_label_2
_geom_bond_distance
_geom_bond_site_symmetry_2
_ccdc_geom_bond_type
Cu0 N1 1.999 . S
Cu0 O6 1.974 . S
Cu0 N11 1.985 . S
Cu0 O20 1.959 . S
N1 Cu0 1.999 . S
N1 C3 1.263 . S
N1 C5 1.389 . S
N2 C3 1.358 . S
N2 C4 1.400 . S
C3 N1 1.263 . S
C3 N2 1.358 . S
C3 H9 0.930 . S
C4 N2 1.400 . S
C4 C5 1.351 . S
C4 H21 0.930 . S
C5 N1 1.389 . S
C5 C4 1.351 . S
C5 H10 0.930 . S
O6 Cu0 1.974 . S
O6 C16 1.282 1_545 S
C7 O8 1.261 . S
C7 O20 1.251 . S
O8 C7 1.261 . S
H9 C3 0.930 . S
H10 C5 0.930 . S
N11 Cu0 1.985 . S
N11 C13 1.335 . S
N11 C14 1.390 1_545 S
N12 C13 1.345 1_565 S
N12 C15 1.336 . S
C13 N11 1.335 . S
C13 N12 1.345 1_545 S
C13 H18 0.930 1_455 S
C14 N11 1.390 1_565 S
C14 C15 1.346 . S
C14 H19 0.930 . S
C15 N12 1.336 . S
C15 C14 1.346 . S
C15 H22 0.929 . S
C16 O6 1.282 1_565 S
C16 O17 1.216 1_565 S
O17 C16 1.216 1_545 S
H18 C13 0.930 1_655 S
H19 C14 0.930 . S
O20 Cu0 1.959 . S
O20 C7 1.251 . S
H21 C4 0.930 . S
H22 C15 0.929 . S
Cu23 N24 1.959 1_545 S
Cu23 O29 1.999 . S
Cu23 N34 2.026 . S
Cu23 O43 1.934 1_545 S
N24 Cu23 1.959 1_565 S
N24 C26 1.263 . S
N24 C28 1.389 . S
N25 C26 1.358 . S
N25 C27 1.400 . S
C26 N24 1.263 . S
C26 N25 1.358 . S
C26 H32 0.930 . S
C27 N25 1.400 . S
C27 C28 1.351 . S
C27 H44 0.930 . S
C28 N24 1.389 . S
C28 C27 1.351 . S
C28 H33 0.930 . S
O29 Cu23 1.999 . S
O29 C39 1.282 . S
C30 O31 1.261 . S
C30 O43 1.251 . S
O31 C30 1.261 . S
H32 C26 0.930 . S
H33 C28 0.930 . S
N34 Cu23 2.026 . S
N34 C36 1.335 . S
N34 C37 1.390 . S
N35 C36 1.345 . S
N35 C38 1.336 . S
C36 N34 1.335 . S
C36 N35 1.345 . S
C36 H41 0.930 . S
C37 N34 1.390 . S
C37 C38 1.346 . S
C37 H42 0.930 . S
C38 N35 1.336 . S
C38 C37 1.346 . S
C38 H45 0.929 . S
C39 O29 1.282 . S
C39 O40 1.216 . S
O40 C39 1.216 . S
H41 C36 0.930 . S
H42 C37 0.930 . S
O43 Cu23 1.934 1_565 S
O43 C30 1.251 . S
H44 C27 0.930 . S
H45 C38 0.929 . S
Cu46 N47 1.999 1_544 S
Cu46 O52 1.974 1_545 S
Cu46 N57 1.985 . S
Cu46 O66 1.959 1_554 S
N47 Cu46 1.999 1_566 S
N47 C49 1.263 . S
N47 C51 1.389 . S
N48 C49 1.358 . S
N48 C50 1.400 . S
C49 N47 1.263 . S
C49 N48 1.358 . S
C49 H55 0.930 . S
C50 N48 1.400 . S
C50 C51 1.351 . S
C50 H67 0.930 . S
C51 N47 1.389 . S
C51 C50 1.351 . S
C51 H56 0.930 . S
O52 Cu46 1.974 1_565 S
O52 C62 1.282 . S
C53 O54 1.261 . S
C53 O66 1.251 . S
O54 C53 1.261 . S
H55 C49 0.930 . S
H56 C51 0.930 . S
N57 Cu46 1.985 . S
N57 C59 1.335 . S
N57 C60 1.390 . S
N58 C59 1.345 . S
N58 C61 1.336 . S
C59 N57 1.335 . S
C59 N58 1.345 . S
C59 H64 0.930 . S
C60 N57 1.390 . S
C60 C61 1.346 . S
C60 H65 0.930 . S
C61 N58 1.336 . S
C61 C60 1.346 . S
C61 H68 0.929 . S
C62 O52 1.282 . S
C62 O63 1.216 . S
O63 C62 1.216 . S
H64 C59 0.930 . S
H65 C60 0.930 . S
O66 Cu46 1.959 1_556 S
O66 C53 1.251 . S
H67 C50 0.930 . S
H68 C61 0.929 . S
Cu69 N70 1.999 1_554 S
Cu69 O75 1.974 . S
Cu69 N80 1.985 . S
Cu69 O89 1.959 1_554 S
N70 Cu69 1.999 1_556 S
N70 C72 1.263 . S
N70 C74 1.389 . S
N71 C72 1.358 . S
N71 C73 1.400 . S
C72 N70 1.263 . S
C72 N71 1.358 . S
C72 H78 0.930 1_556 S
C73 N71 1.400 . S
C73 C74 1.351 . S
C73 H90 0.930 . S
C74 N70 1.389 . S
C74 C73 1.351 . S
C74 H79 0.930 . S
O75 Cu69 1.974 . S
O75 C85 1.282 . S
C76 O77 1.261 . S
C76 O89 1.251 . S
O77 C76 1.261 . S
H78 C72 0.930 1_554 S
H79 C74 0.930 . S
N80 Cu69 1.985 . S
N80 C82 1.335 . S
N80 C83 1.390 . S
N81 C82 1.345 . S
N81 C84 1.336 . S
C82 N80 1.335 . S
C82 N81 1.345 . S
C82 H87 0.930 . S
C83 N80 1.390 . S
C83 C84 1.346 . S
C83 H88 0.930 . S
C84 N81 1.336 . S
C84 C83 1.346 . S
C84 H91 0.929 . S
C85 O75 1.282 . S
C85 O86 1.216 . S
O86 C85 1.216 . S
H87 C82 0.930 . S
H88 C83 0.930 . S
O89 Cu69 1.959 1_556 S
O89 C76 1.251 . S
H90 C73 0.930 . S
H91 C84 0.929 . S
Cu92 N93 1.999 1_554 S
Cu92 O98 1.974 . S
Cu92 N103 1.985 1_545 S
Cu92 O112 1.959 1_544 S
N93 Cu92 1.999 1_556 S
N93 C95 1.263 . S
N93 C97 1.389 . S
N94 C95 1.358 . S
N94 C96 1.400 . S
C95 N93 1.263 . S
C95 N94 1.358 . S
C95 H101 0.930 . S
C96 N94 1.400 . S
C96 C97 1.351 . S
C96 H113 0.930 . S
C97 N93 1.389 . S
C97 C96 1.351 . S
C97 H102 0.930 . S
O98 Cu92 1.974 . S
O98 C108 1.282 . S
C99 O100 1.261 . S
C99 O112 1.251 . S
O100 C99 1.261 . S
H101 C95 0.930 . S
H102 C97 0.930 . S
N103 Cu92 1.985 1_565 S
N103 C105 1.335 . S
N103 C106 1.398 . S
N104 C105 1.345 . S
N104 C107 1.336 . S
C105 N103 1.335 . S
C105 N104 1.345 . S
C105 H110 0.930 . S
C106 N103 1.398 . S
C106 C107 1.382 . S
C106 H111 0.894 1_565 S
C107 N104 1.336 . S
C107 C106 1.382 . S
C107 H114 0.929 . S
C108 O98 1.282 . S
C108 O109 1.216 . S
O109 C108 1.216 . S
H110 C105 0.930 . S
H111 C106 0.894 1_545 S
O112 Cu92 1.959 1_566 S
O112 C99 1.251 . S
H113 C96 0.930 . S
H114 C107 0.929 . S
Cu115 N116 1.959 1_454 S
Cu115 O121 1.989 1_455 S
Cu115 N126 2.002 . S
Cu115 O135 1.944 1_554 S
N116 Cu115 1.959 1_656 S
N116 C118 1.295 . S
N116 C120 1.384 1_655 S
N117 C118 1.358 . S
N117 C119 1.400 . S
C118 N116 1.295 . S
C118 N117 1.358 . S
C118 H124 0.930 . S
C119 N117 1.400 . S
C119 C120 1.351 1_655 S
C119 H136 0.930 . S
C120 N116 1.384 1_455 S
C120 C119 1.351 1_455 S
C120 H125 0.930 . S
O121 Cu115 1.989 1_655 S
O121 C131 1.282 . S
C122 O123 1.261 . S
C122 O135 1.251 . S
O123 C122 1.261 . S
H124 C118 0.930 . S
H125 C120 0.930 . S
N126 Cu115 2.002 . S
N126 C128 1.335 . S
N126 C129 1.390 . S
N127 C128 1.345 . S
N127 C130 1.336 . S
C128 N126 1.335 . S
C128 N127 1.345 . S
C128 H133 0.930 . S
C129 N126 1.390 . S
C129 C130 1.346 . S
C129 H134 0.930 . S
C130 N127 1.336 . S
C130 C129 1.346 . S
C130 H137 0.929 . S
C131 O121 1.282 . S
C131 O132 1.216 . S
O132 C131 1.216 . S
H133 C128 0.930 . S
H134 C129 0.930 . S
O135 Cu115 1.944 1_556 S
O135 C122 1.251 . S
H136 C119 0.930 . S
H137 C130 0.929 . S
Cu138 N139 1.999 . S
Cu138 O144 1.974 . S
Cu138 N149 1.985 . S
Cu138 O158 1.959 . S
N139 Cu138 1.999 . S
N139 C141 1.263 . S
N139 C143 1.389 . S
N140 C141 1.358 . S
N140 C142 1.400 . S
C141 N139 1.263 . S
C141 N140 1.358 . S
C141 H147 0.930 . S
C142 N140 1.400 . S
C142 C143 1.351 . S
C142 H159 0.930 . S
C143 N139 1.389 . S
C143 C142 1.351 . S
C143 H148 0.930 . S
O144 Cu138 1.974 . S
O144 C154 1.282 . S
C145 O146 1.261 . S
C145 O158 1.251 . S
O146 C145 1.261 . S
H147 C141 0.930 . S
H148 C143 0.930 . S
N149 Cu138 1.985 . S
N149 C151 1.335 . S
N149 C152 1.390 . S
N150 C151 1.345 . S
N150 C153 1.336 . S
C151 N149 1.335 . S
C151 N150 1.345 . S
C151 H156 0.930 . S
C152 N149 1.390 . S
C152 C153 1.346 . S
C152 H157 0.930 . S
C153 N150 1.336 . S
C153 C152 1.346 . S
C153 H160 0.929 . S
C154 O144 1.282 . S
C154 O155 1.216 . S
O155 C154 1.216 . S
H156 C151 0.930 . S
H157 C152 0.930 . S
O158 Cu138 1.959 . S
O158 C145 1.251 . S
H159 C142 0.930 . S
H160 C153 0.929 . S
Cu161 N162 1.999 . S
Cu161 O167 1.974 . S
Cu161 N172 1.985 . S
Cu161 O181 1.959 . S
N162 Cu161 1.999 . S
N162 C164 1.263 . S
N162 C166 1.389 . S
N163 C164 1.358 . S
N163 C165 1.400 . S
C164 N162 1.263 . S
C164 N163 1.358 . S
C164 H170 0.930 . S
C165 N163 1.400 . S
C165 C166 1.351 . S
C165 H182 0.930 . S
C166 N162 1.389 . S
C166 C165 1.351 . S
C166 H171 0.930 . S
O167 Cu161 1.974 . S
O167 C177 1.282 . S
C168 O169 1.261 . S
C168 O181 1.251 . S
O169 C168 1.261 . S
H170 C164 0.930 . S
H171 C166 0.930 . S
N172 Cu161 1.985 . S
N172 C174 1.335 . S
N172 C175 1.390 . S
N173 C174 1.345 . S
N173 C176 1.336 . S
C174 N172 1.335 . S
C174 N173 1.345 . S
C174 H179 0.930 . S
C175 N172 1.390 . S
C175 C176 1.346 . S
C175 H180 0.930 . S
C176 N173 1.336 . S
C176 C175 1.346 . S
C176 H183 0.929 . S
C177 O167 1.282 . S
C177 O178 1.216 . S
O178 C177 1.216 . S
H179 C174 0.930 . S
H180 C175 0.930 . S
O181 Cu161 1.959 . S
O181 C168 1.251 . S
H182 C165 0.930 . S
H183 C176 0.929 . S
Cu184 N185 1.999 . S
Cu184 O190 1.974 . S
Cu184 N195 1.985 . S
Cu184 O204 1.959 . S
N185 Cu184 1.999 . S
N185 C187 1.263 . S
N185 C189 1.389 . S
N186 C187 1.358 . S
N186 C188 1.400 . S
C187 N185 1.263 . S
C187 N186 1.358 . S
C187 H193 0.930 . S
C188 N186 1.400 . S
C188 C189 1.351 . S
C188 H205 0.930 . S
C189 N185 1.389 . S
C189 C188 1.351 . S
C189 H194 0.930 . S
O190 Cu184 1.974 . S
O190 C200 1.282 . S
C191 O192 1.261 . S
C191 O204 1.251 . S
O192 C191 1.261 . S
H193 C187 0.930 . S
H194 C189 0.930 . S
N195 Cu184 1.985 . S
N195 C197 1.335 . S
N195 C198 1.390 . S
N196 C197 1.345 . S
N196 C199 1.336 . S
C197 N195 1.335 . S
C197 N196 1.345 . S
C197 H202 0.930 . S
C198 N195 1.390 . S
C198 C199 1.346 . S
C198 H203 0.930 . S
C199 N196 1.336 . S
C199 C198 1.346 . S
C199 H206 0.929 . S
C200 O190 1.282 . S
C200 O201 1.216 . S
O201 C200 1.216 . S
H202 C197 0.930 . S
H203 C198 0.930 . S
O204 Cu184 1.959 . S
O204 C191 1.251 . S
H205 C188 0.930 . S
H206 C199 0.929 . S
Cu207 N208 1.999 . S
Cu207 O213 1.974 . S
Cu207 N218 1.985 . S
Cu207 O227 1.959 . S
N208 Cu207 1.999 . S
N208 C210 1.263 . S
N208 C212 1.389 . S
N209 C210 1.358 . S
N209 C211 1.400 . S
C210 N208 1.263 . S
C210 N209 1.358 . S
C210 H216 0.930 . S
C211 N209 1.400 . S
C211 C212 1.351 . S
C211 H228 0.930 . S
C212 N208 1.389 . S
C212 C211 1.351 . S
C212 H217 0.930 . S
O213 Cu207 1.974 . S
O213 C223 1.282 . S
C214 O215 1.261 . S
C214 O227 1.251 . S
O215 C214 1.261 . S
H216 C210 0.930 . S
H217 C212 0.930 . S
N218 Cu207 1.985 . S
N218 C220 1.335 . S
N218 C221 1.390 . S
N219 C220 1.345 . S
N219 C222 1.336 . S
C220 N218 1.335 . S
C220 N219 1.345 . S
C220 H225 0.930 . S
C221 N218 1.390 . S
C221 C222 1.346 . S
C221 H226 0.930 . S
C222 N219 1.336 . S
C222 C221 1.346 . S
C222 H229 0.929 . S
C223 O213 1.282 . S
C223 O224 1.216 . S
O224 C223 1.216 . S
H225 C220 0.930 . S
H226 C221 0.930 . S
O227 Cu207 1.959 . S
O227 C214 1.251 . S
H228 C211 0.930 . S
H229 C222 0.929 . S
Cu230 N231 1.999 . S
Cu230 O236 1.974 . S
Cu230 N241 1.985 . S
Cu230 O250 1.959 . S
N231 Cu230 1.999 . S
N231 C233 1.263 . S
N231 C235 1.389 . S
N232 C233 1.358 . S
N232 C234 1.400 . S
C233 N231 1.263 . S
C233 N232 1.358 . S
C233 H239 0.930 . S
C234 N232 1.400 . S
C234 C235 1.351 . S
C234 H251 0.930 . S
C235 N231 1.389 . S
C235 C234 1.351 . S
C235 H240 0.930 . S
O236 Cu230 1.974 . S
O236 C246 1.282 . S
C237 O238 1.261 . S
C237 O250 1.251 . S
O238 C237 1.261 . S
H239 C233 0.930 . S
H240 C235 0.930 . S
N241 Cu230 1.985 . S
N241 C243 1.335 . S
N241 C244 1.390 . S
N242 C243 1.345 . S
N242 C245 1.336 . S
C243 N241 1.335 . S
C243 N242 1.345 . S
C243 H248 0.930 . S
C244 N241 1.390 . S
C244 C245 1.346 . S
C244 H249 0.930 . S
C245 N242 1.336 . S
C245 C244 1.346 . S
C245 H252 0.929 . S
C246 O236 1.282 . S
C246 O247 1.216 . S
O247 C246 1.216 . S
H248 C243 0.930 . S
H249 C244 0.930 . S
O250 Cu230 1.959 . S
O250 C237 1.251 . S
H251 C234 0.930 . S
H252 C245 0.929 . S
Cu253 N254 1.999 . S
Cu253 O259 1.974 . S
Cu253 N264 1.985 . S
Cu253 O273 1.959 . S
N254 Cu253 1.999 . S
N254 C256 1.263 . S
N254 C258 1.389 . S
N255 C256 1.358 . S
N255 C257 1.400 . S
C256 N254 1.263 . S
C256 N255 1.358 . S
C256 H262 0.930 . S
C257 N255 1.400 . S
C257 C258 1.351 . S
C257 H274 0.930 . S
C258 N254 1.389 . S
C258 C257 1.351 . S
C258 H263 0.930 . S
O259 Cu253 1.974 . S
O259 C269 1.282 . S
C260 O261 1.261 . S
C260 O273 1.251 . S
O261 C260 1.261 . S
H262 C256 0.930 . S
H263 C258 0.930 . S
N264 Cu253 1.985 . S
N264 C266 1.335 . S
N264 C267 1.390 . S
N265 C266 1.345 . S
N265 C268 1.336 . S
C266 N264 1.335 . S
C266 N265 1.345 . S
C266 H271 0.930 . S
C267 N264 1.390 . S
C267 C268 1.346 . S
C267 H272 0.930 . S
C268 N265 1.336 . S
C268 C267 1.346 . S
C268 H275 0.929 . S
C269 O259 1.282 . S
C269 O270 1.216 . S
O270 C269 1.216 . S
H271 C266 0.930 . S
H272 C267 0.930 . S
O273 Cu253 1.959 . S
O273 C260 1.251 . S
H274 C257 0.930 . S
H275 C268 0.929 . S
Dy276 O279 2.307 . S
Dy276 O281 2.395 . S
Dy276 O282 2.379 . S
Dy276 O284 2.339 . S
Dy276 O286 2.298 . S
Dy276 O290 2.275 . S
Dy276 C298 2.738 . S
Dy277 O280 2.298 . S
Dy277 O283 2.275 . S
Dy277 O285 2.307 . S
Dy277 O287 2.395 . S
Dy277 O288 2.379 . S
Dy277 O291 2.339 . S
Dy277 C307 2.738 . S
C278 O290 1.254 . S
C278 O291 1.257 . S
O279 Dy276 2.307 . S
O279 C289 1.266 . S
O280 Dy277 2.298 . S
O280 C289 1.236 . S
O281 Dy276 2.395 . S
O281 C298 1.255 . S
O282 Dy276 2.379 . S
O282 C298 1.249 . S
O283 Dy277 2.275 . S
O283 C299 1.254 . S
O284 Dy276 2.339 . S
O284 C299 1.257 . S
O285 Dy277 2.307 . S
O285 C300 1.266 . S
O286 Dy276 2.298 . S
O286 C300 1.236 . S
O287 Dy277 2.395 . S
O287 C307 1.255 . S
O288 Dy277 2.379 . S
O288 C307 1.249 . S
C289 O279 1.266 . S
C289 O280 1.236 . S
O290 Dy276 2.275 . S
O290 C278 1.254 . S
O291 Dy277 2.339 . S
O291 C278 1.257 . S
C292 C295 1.344 . S
C292 C296 1.328 . S
C292 C298 1.516 . S
C293 C294 1.304 . S
C293 C297 1.323 . S
C294 C293 1.304 . S
C294 C295 1.371 . S
C294 H308 0.930 . S
C295 C292 1.344 . S
C295 C294 1.371 . S
C295 H309 0.931 . S
C296 C292 1.328 . S
C296 C297 1.433 . S
C296 H310 0.931 . S
C297 C293 1.323 . S
C297 C296 1.433 . S
C297 H311 0.933 . S
C298 Dy276 2.738 . S
C298 O281 1.255 . S
C298 O282 1.249 . S
C298 C292 1.516 . S
C299 O283 1.254 . S
C299 O284 1.257 . S
C300 O285 1.266 . S
C300 O286 1.236 . S
C301 C304 1.344 . S
C301 C305 1.328 . S
C301 C307 1.516 . S
C302 C303 1.304 . S
C302 C306 1.323 . S
C303 C302 1.304 . S
C303 C304 1.371 . S
C303 H312 0.930 . S
C304 C301 1.344 . S
C304 C303 1.371 . S
C304 H313 0.931 . S
C305 C301 1.328 . S
C305 C306 1.433 . S
C305 H314 0.931 . S
C306 C302 1.323 . S
C306 C305 1.433 . S
C306 H315 0.933 . S
C307 Dy277 2.738 . S
C307 O287 1.255 . S
C307 O288 1.249 . S
C307 C301 1.516 . S
H308 C294 0.930 . S
H309 C295 0.931 . S
H310 C296 0.931 . S
H311 C297 0.933 . S
H312 C303 0.930 . S
H313 C304 0.931 . S
H314 C305 0.931 . S
H315 C306 0.933 . S
Dy316 O319 2.307 . S
Dy316 O321 2.395 . S
Dy316 O322 2.379 . S
Dy316 O324 2.339 . S
Dy316 O326 2.298 . S
Dy316 O330 2.275 . S
Dy316 C338 2.738 . S
Dy317 O320 2.298 . S
Dy317 O323 2.275 . S
Dy317 O325 2.307 . S
Dy317 O327 2.395 . S
Dy317 O328 2.379 . S
Dy317 O331 2.339 . S
Dy317 C347 2.738 . S
C318 O330 1.254 . S
C318 O331 1.257 . S
O319 Dy316 2.307 . S
O319 C329 1.266 . S
O320 Dy317 2.298 . S
O320 C329 1.236 . S
O321 Dy316 2.395 . S
O321 C338 1.255 . S
O322 Dy316 2.379 . S
O322 C338 1.249 . S
O323 Dy317 2.275 . S
O323 C339 1.254 . S
O324 Dy316 2.339 . S
O324 C339 1.257 . S
O325 Dy317 2.307 . S
O325 C340 1.266 . S
O326 Dy316 2.298 . S
O326 C340 1.236 . S
O327 Dy317 2.395 . S
O327 C347 1.255 . S
O328 Dy317 2.379 . S
O328 C347 1.249 . S
C329 O319 1.266 . S
C329 O320 1.236 . S
O330 Dy316 2.275 . S
O330 C318 1.254 . S
O331 Dy317 2.339 . S
O331 C318 1.257 . S
C332 C335 1.344 . S
C332 C336 1.328 . S
C332 C338 1.516 . S
C333 C334 1.304 . S
C333 C337 1.323 . S
C334 C333 1.304 . S
C334 C335 1.371 . S
C334 H348 0.930 . S
C335 C332 1.344 . S
C335 C334 1.371 . S
C335 H349 0.931 . S
C336 C332 1.328 . S
C336 C337 1.433 . S
C336 H350 0.931 . S
C337 C333 1.323 . S
C337 C336 1.433 . S
C337 H351 0.933 . S
C338 Dy316 2.738 . S
C338 O321 1.255 . S
C338 O322 1.249 . S
C338 C332 1.516 . S
C339 O323 1.254 . S
C339 O324 1.257 . S
C340 O325 1.266 . S
C340 O326 1.236 . S
C341 C344 1.344 . S
C341 C345 1.328 . S
C341 C347 1.516 . S
C342 C343 1.304 . S
C342 C346 1.323 . S
C343 C342 1.304 . S
C343 C344 1.371 . S
C343 H352 0.930 . S
C344 C341 1.344 . S
C344 C343 1.371 . S
C344 H353 0.931 . S
C345 C341 1.328 . S
C345 C346 1.433 . S
C345 H354 0.931 . S
C346 C342 1.323 . S
C346 C345 1.433 . S
C346 H355 0.933 . S
C347 Dy317 2.738 . S
C347 O327 1.255 . S
C347 O328 1.249 . S
C347 C341 1.516 . S
H348 C334 0.930 . S
H349 C335 0.931 . S
H350 C336 0.931 . S
H351 C337 0.933 . S
H352 C343 0.930 . S
H353 C344 0.931 . S
H354 C345 0.931 . S
H355 C346 0.933 . S
Dy356 O359 2.307 . S
Dy356 O361 2.395 . S
Dy356 O362 2.379 . S
Dy356 O364 2.339 . S
Dy356 O366 2.298 . S
Dy356 O370 2.275 . S
Dy356 C378 2.738 . S
Dy357 O360 2.298 . S
Dy357 O363 2.275 . S
Dy357 O365 2.307 . S
Dy357 O367 2.395 . S
Dy357 O368 2.379 . S
Dy357 O371 2.339 . S
Dy357 C387 2.738 . S
C358 O370 1.254 . S
C358 O371 1.257 . S
O359 Dy356 2.307 . S
O359 C369 1.266 . S
O360 Dy357 2.298 . S
O360 C369 1.236 . S
O361 Dy356 2.395 . S
O361 C378 1.255 . S
O362 Dy356 2.379 . S
O362 C378 1.249 . S
O363 Dy357 2.275 . S
O363 C379 1.254 . S
O364 Dy356 2.339 . S
O364 C379 1.257 . S
O365 Dy357 2.307 . S
O365 C380 1.266 . S
O366 Dy356 2.298 . S
O366 C380 1.236 . S
O367 Dy357 2.395 . S
O367 C387 1.255 . S
O368 Dy357 2.379 . S
O368 C387 1.249 . S
C369 O359 1.266 . S
C369 O360 1.236 . S
O370 Dy356 2.275 . S
O370 C358 1.254 . S
O371 Dy357 2.339 . S
O371 C358 1.257 . S
C372 C375 1.344 . S
C372 C376 1.328 . S
C372 C378 1.516 . S
C373 C374 1.304 . S
C373 C377 1.323 . S
C374 C373 1.304 . S
C374 C375 1.371 . S
C374 H388 0.930 . S
C375 C372 1.344 . S
C375 C374 1.371 . S
C375 H389 0.931 . S
C376 C372 1.328 . S
C376 C377 1.433 . S
C376 H390 0.931 . S
C377 C373 1.323 . S
C377 C376 1.433 . S
C377 H391 0.933 . S
C378 Dy356 2.738 . S
C378 O361 1.255 . S
C378 O362 1.249 . S
C378 C372 1.516 . S
C379 O363 1.254 . S
C379 O364 1.257 . S
C380 O365 1.266 . S
C380 O366 1.236 . S
C381 C384 1.344 . S
C381 C385 1.328 . S
C381 C387 1.516 . S
C382 C383 1.304 . S
C382 C386 1.323 . S
C383 C382 1.304 . S
C383 C384 1.371 . S
C383 H392 0.930 . S
C384 C381 1.344 . S
C384 C383 1.371 . S
C384 H393 0.931 . S
C385 C381 1.328 . S
C385 C386 1.433 . S
C385 H394 0.931 . S
C386 C382 1.323 . S
C386 C385 1.433 . S
C386 H395 0.933 . S
C387 Dy357 2.738 . S
C387 O367 1.255 . S
C387 O368 1.249 . S
C387 C381 1.516 . S
H388 C374 0.930 . S
H389 C375 0.931 . S
H390 C376 0.931 . S
H391 C377 0.933 . S
H392 C383 0.930 . S
H393 C384 0.931 . S
H394 C385 0.931 . S
H395 C386 0.933 . S
Dy396 O399 2.307 . S
Dy396 O401 2.395 . S
Dy396 O402 2.379 . S
Dy396 O404 2.339 . S
Dy396 O406 2.298 . S
Dy396 O410 2.275 . S
Dy396 C418 2.738 . S
Dy397 O400 2.298 . S
Dy397 O403 2.275 . S
Dy397 O405 2.307 . S
Dy397 O407 2.395 . S
Dy397 O408 2.379 . S
Dy397 O411 2.339 . S
Dy397 C427 2.738 . S
C398 O410 1.254 . S
C398 O411 1.257 . S
O399 Dy396 2.307 . S
O399 C409 1.266 . S
O400 Dy397 2.298 . S
O400 C409 1.236 . S
O401 Dy396 2.395 . S
O401 C418 1.255 . S
O402 Dy396 2.379 . S
O402 C418 1.249 . S
O403 Dy397 2.275 . S
O403 C419 1.254 . S
O404 Dy396 2.339 . S
O404 C419 1.257 . S
O405 Dy397 2.307 . S
O405 C420 1.266 . S
O406 Dy396 2.298 . S
O406 C420 1.236 . S
O407 Dy397 2.395 . S
O407 C427 1.255 . S
O408 Dy397 2.379 . S
O408 C427 1.249 . S
C409 O399 1.266 . S
C409 O400 1.236 . S
O410 Dy396 2.275 . S
O410 C398 1.254 . S
O411 Dy397 2.339 . S
O411 C398 1.257 . S
C412 C415 1.344 . S
C412 C416 1.328 . S
C412 C418 1.516 . S
C413 C414 1.304 . S
C413 C417 1.323 . S
C414 C413 1.304 . S
C414 C415 1.371 . S
C414 H428 0.930 . S
C415 C412 1.344 . S
C415 C414 1.371 . S
C415 H429 0.931 . S
C416 C412 1.328 . S
C416 C417 1.433 . S
C416 H430 0.931 . S
C417 C413 1.323 . S
C417 C416 1.433 . S
C417 H431 0.933 . S
C418 Dy396 2.738 . S
C418 O401 1.255 . S
C418 O402 1.249 . S
C418 C412 1.516 . S
C419 O403 1.254 . S
C419 O404 1.257 . S
C420 O405 1.266 . S
C420 O406 1.236 . S
C421 C424 1.344 . S
C421 C425 1.328 . S
C421 C427 1.516 . S
C422 C423 1.304 . S
C422 C426 1.323 . S
C423 C422 1.304 . S
C423 C424 1.371 . S
C423 H432 0.930 . S
C424 C421 1.344 . S
C424 C423 1.371 . S
C424 H433 0.931 . S
C425 C421 1.328 . S
C425 C426 1.433 . S
C425 H434 0.931 . S
C426 C422 1.323 . S
C426 C425 1.433 . S
C426 H435 0.933 . S
C427 Dy397 2.738 . S
C427 O407 1.255 . S
C427 O408 1.249 . S
C427 C421 1.516 . S
H428 C414 0.930 . S
H429 C415 0.931 . S
H430 C416 0.931 . S
H431 C417 0.933 . S
H432 C423 0.930 . S
H433 C424 0.931 . S
H434 C425 0.931 . S
H435 C426 0.933 . S
Dy436 O439 2.307 . S
Dy436 O441 2.395 . S
Dy436 O442 2.379 . S
Dy436 O444 2.339 . S
Dy436 O446 2.298 . S
Dy436 O450 2.275 . S
Dy436 C458 2.738 . S
Dy437 O440 2.298 . S
Dy437 O443 2.275 . S
Dy437 O445 2.307 . S
Dy437 O447 2.395 . S
Dy437 O448 2.379 . S
Dy437 O451 2.339 . S
Dy437 C467 2.738 . S
C438 O450 1.254 . S
C438 O451 1.257 . S
O439 Dy436 2.307 . S
O439 C449 1.266 . S
O440 Dy437 2.298 . S
O440 C449 1.236 . S
O441 Dy436 2.395 . S
O441 C458 1.255 . S
O442 Dy436 2.379 . S
O442 C458 1.249 . S
O443 Dy437 2.275 . S
O443 C459 1.254 . S
O444 Dy436 2.339 . S
O444 C459 1.257 . S
O445 Dy437 2.307 . S
O445 C460 1.266 . S
O446 Dy436 2.298 . S
O446 C460 1.236 . S
O447 Dy437 2.395 . S
O447 C467 1.255 . S
O448 Dy437 2.379 . S
O448 C467 1.249 . S
C449 O439 1.266 . S
C449 O440 1.236 . S
O450 Dy436 2.275 . S
O450 C438 1.254 . S
O451 Dy437 2.339 . S
O451 C438 1.257 . S
C452 C455 1.344 . S
C452 C456 1.328 . S
C452 C458 1.516 . S
C453 C454 1.304 . S
C453 C457 1.323 . S
C454 C453 1.304 . S
C454 C455 1.371 . S
C454 H468 0.930 . S
C455 C452 1.344 . S
C455 C454 1.371 . S
C455 H469 0.931 . S
C456 C452 1.328 . S
C456 C457 1.433 . S
C456 H470 0.931 . S
C457 C453 1.323 . S
C457 C456 1.433 . S
C457 H471 0.933 . S
C458 Dy436 2.738 . S
C458 O441 1.255 . S
C458 O442 1.249 . S
C458 C452 1.516 . S
C459 O443 1.254 . S
C459 O444 1.257 . S
C460 O445 1.266 . S
C460 O446 1.236 . S
C461 C464 1.344 . S
C461 C465 1.328 . S
C461 C467 1.516 . S
C462 C463 1.304 . S
C462 C466 1.323 . S
C463 C462 1.304 . S
C463 C464 1.371 . S
C463 H472 0.930 . S
C464 C461 1.344 . S
C464 C463 1.371 . S
C464 H473 0.931 . S
C465 C461 1.328 . S
C465 C466 1.433 . S
C465 H474 0.931 . S
C466 C462 1.323 . S
C466 C465 1.433 . S
C466 H475 0.933 . S
C467 Dy437 2.738 . S
C467 O447 1.255 . S
C467 O448 1.249 . S
C467 C461 1.516 . S
H468 C454 0.930 . S
H469 C455 0.931 . S
H470 C456 0.931 . S
H471 C457 0.933 . S
H472 C463 0.930 . S
H473 C464 0.931 . S
H474 C465 0.931 . S
H475 C466 0.933 . S
Dy476 O479 2.307 . S
Dy476 O481 2.395 . S
Dy476 O482 2.379 . S
Dy476 O484 2.339 . S
Dy476 O486 2.298 . S
Dy476 O490 2.275 . S
Dy476 C498 2.738 . S
Dy477 O480 2.298 . S
Dy477 O483 2.275 . S
Dy477 O485 2.307 . S
Dy477 O487 2.395 . S
Dy477 O488 2.379 . S
Dy477 O491 2.339 . S
Dy477 C507 2.738 . S
C478 O490 1.254 . S
C478 O491 1.257 . S
O479 Dy476 2.307 . S
O479 C489 1.266 . S
O480 Dy477 2.298 . S
O480 C489 1.236 . S
O481 Dy476 2.395 . S
O481 C498 1.255 . S
O482 Dy476 2.379 . S
O482 C498 1.249 . S
O483 Dy477 2.275 . S
O483 C499 1.254 . S
O484 Dy476 2.339 . S
O484 C499 1.257 . S
O485 Dy477 2.307 . S
O485 C500 1.266 . S
O486 Dy476 2.298 . S
O486 C500 1.236 . S
O487 Dy477 2.395 . S
O487 C507 1.255 . S
O488 Dy477 2.379 . S
O488 C507 1.249 . S
C489 O479 1.266 . S
C489 O480 1.236 . S
O490 Dy476 2.275 . S
O490 C478 1.254 . S
O491 Dy477 2.339 . S
O491 C478 1.257 . S
C492 C495 1.344 . S
C492 C496 1.328 . S
C492 C498 1.516 . S
C493 C494 1.304 . S
C493 C497 1.323 . S
C494 C493 1.304 . S
C494 C495 1.371 . S
C494 H508 0.930 . S
C495 C492 1.344 . S
C495 C494 1.371 . S
C495 H509 0.931 . S
C496 C492 1.328 . S
C496 C497 1.433 . S
C496 H510 0.931 . S
C497 C493 1.323 . S
C497 C496 1.433 . S
C497 H511 0.933 . S
C498 Dy476 2.738 . S
C498 O481 1.255 . S
C498 O482 1.249 . S
C498 C492 1.516 . S
C499 O483 1.254 . S
C499 O484 1.257 . S
C500 O485 1.266 . S
C500 O486 1.236 . S
C501 C504 1.344 . S
C501 C505 1.328 . S
C501 C507 1.516 . S
C502 C503 1.304 . S
C502 C506 1.323 . S
C503 C502 1.304 . S
C503 C504 1.371 . S
C503 H512 0.930 . S
C504 C501 1.344 . S
C504 C503 1.371 . S
C504 H513 0.931 . S
C505 C501 1.328 . S
C505 C506 1.433 . S
C505 H514 0.931 . S
C506 C502 1.323 . S
C506 C505 1.433 . S
C506 H515 0.933 . S
C507 Dy477 2.738 . S
C507 O487 1.255 . S
C507 O488 1.249 . S
C507 C501 1.516 . S
H508 C494 0.930 . S
H509 C495 0.931 . S
H510 C496 0.931 . S
H511 C497 0.933 . S
H512 C503 0.930 . S
H513 C504 0.931 . S
H514 C505 0.931 . S
H515 C506 0.933 . S
Dy516 O519 2.307 . S
Dy516 O521 2.395 . S
Dy516 O522 2.379 . S
Dy516 O524 2.339 . S
Dy516 O526 2.298 . S
Dy516 O530 2.275 . S
Dy516 C538 2.738 . S
Dy517 O520 2.298 . S
Dy517 O523 2.275 . S
Dy517 O525 2.307 . S
Dy517 O527 2.395 . S
Dy517 O528 2.379 . S
Dy517 O531 2.339 . S
Dy517 C547 2.738 . S
C518 O530 1.254 . S
C518 O531 1.257 . S
O519 Dy516 2.307 . S
O519 C529 1.266 . S
O520 Dy517 2.298 . S
O520 C529 1.236 . S
O521 Dy516 2.395 . S
O521 C538 1.255 . S
O522 Dy516 2.379 . S
O522 C538 1.249 . S
O523 Dy517 2.275 . S
O523 C539 1.254 . S
O524 Dy516 2.339 . S
O524 C539 1.257 . S
O525 Dy517 2.307 . S
O525 C540 1.266 . S
O526 Dy516 2.298 . S
O526 C540 1.236 . S
O527 Dy517 2.395 . S
O527 C547 1.255 . S
O528 Dy517 2.379 . S
O528 C547 1.249 . S
C529 O519 1.266 . S
C529 O520 1.236 . S
O530 Dy516 2.275 . S
O530 C518 1.254 . S
O531 Dy517 2.339 . S
O531 C518 1.257 . S
C532 C535 1.344 . S
C532 C536 1.328 . S
C532 C538 1.516 . S
C533 C534 1.304 . S
C533 C537 1.323 . S
C534 C533 1.304 . S
C534 C535 1.371 . S
C534 H548 0.930 . S
C535 C532 1.344 . S
C535 C534 1.371 . S
C535 H549 0.931 . S
C536 C532 1.328 . S
C536 C537 1.433 . S
C536 H550 0.931 . S
C537 C533 1.323 . S
C537 C536 1.433 . S
C537 H551 0.933 . S
C538 Dy516 2.738 . S
C538 O521 1.255 . S
C538 O522 1.249 . S
C538 C532 1.516 . S
C539 O523 1.254 . S
C539 O524 1.257 . S
C540 O525 1.266 . S
C540 O526 1.236 . S
C541 C544 1.344 . S
C541 C545 1.328 . S
C541 C547 1.516 . S
C542 C543 1.304 . S
C542 C546 1.323 . S
C543 C542 1.304 . S
C543 C544 1.371 . S
C543 H552 0.930 . S
C544 C541 1.344 . S
C544 C543 1.371 . S
C544 H553 0.931 . S
C545 C541 1.328 . S
C545 C546 1.433 . S
C545 H554 0.931 . S
C546 C542 1.323 . S
C546 C545 1.433 . S
C546 H555 0.933 . S
C547 Dy517 2.738 . S
C547 O527 1.255 . S
C547 O528 1.249 . S
C547 C541 1.516 . S
H548 C534 0.930 . S
H549 C535 0.931 . S
H550 C536 0.931 . S
H551 C537 0.933 . S
H552 C543 0.930 . S
H553 C544 0.931 . S
H554 C545 0.931 . S
H555 C546 0.933 . S
Dy556 O559 2.307 . S
Dy556 O561 2.395 . S
Dy556 O562 2.379 . S
Dy556 O564 2.339 . S
Dy556 O566 2.298 . S
Dy556 O570 2.275 . S
Dy556 C578 2.738 . S
Dy557 O560 2.298 . S
Dy557 O563 2.275 . S
Dy557 O565 2.307 . S
Dy557 O567 2.395 . S
Dy557 O568 2.379 . S
Dy557 O571 2.339 . S
Dy557 C587 2.738 . S
C558 O570 1.254 . S
C558 O571 1.257 . S
O559 Dy556 2.307 . S
O559 C569 1.266 . S
O560 Dy557 2.298 . S
O560 C569 1.236 . S
O561 Dy556 2.395 . S
O561 C578 1.255 . S
O562 Dy556 2.379 . S
O562 C578 1.249 . S
O563 Dy557 2.275 . S
O563 C579 1.254 . S
O564 Dy556 2.339 . S
O564 C579 1.257 . S
O565 Dy557 2.307 . S
O565 C580 1.266 . S
O566 Dy556 2.298 . S
O566 C580 1.236 . S
O567 Dy557 2.395 . S
O567 C587 1.255 . S
O568 Dy557 2.379 . S
O568 C587 1.249 . S
C569 O559 1.266 . S
C569 O560 1.236 . S
O570 Dy556 2.275 . S
O570 C558 1.254 . S
O571 Dy557 2.339 . S
O571 C558 1.257 . S
C572 C575 1.344 . S
C572 C576 1.328 . S
C572 C578 1.516 . S
C573 C574 1.304 . S
C573 C577 1.323 . S
C574 C573 1.304 . S
C574 C575 1.371 . S
C574 H588 0.930 . S
C575 C572 1.344 . S
C575 C574 1.371 . S
C575 H589 0.931 . S
C576 C572 1.328 . S
C576 C577 1.433 . S
C576 H590 0.931 . S
C577 C573 1.323 . S
C577 C576 1.433 . S
C577 H591 0.933 . S
C578 Dy556 2.738 . S
C578 O561 1.255 . S
C578 O562 1.249 . S
C578 C572 1.516 . S
C579 O563 1.254 . S
C579 O564 1.257 . S
C580 O565 1.266 . S
C580 O566 1.236 . S
C581 C584 1.344 . S
C581 C585 1.328 . S
C581 C587 1.516 . S
C582 C583 1.304 . S
C582 C586 1.323 . S
C583 C582 1.304 . S
C583 C584 1.371 . S
C583 H592 0.930 . S
C584 C581 1.344 . S
C584 C583 1.371 . S
C584 H593 0.931 . S
C585 C581 1.328 . S
C585 C586 1.433 . S
C585 H594 0.931 . S
C586 C582 1.323 . S
C586 C585 1.433 . S
C586 H595 0.933 . S
C587 Dy557 2.738 . S
C587 O567 1.255 . S
C587 O568 1.249 . S
C587 C581 1.516 . S
H588 C574 0.930 . S
H589 C575 0.931 . S
H590 C576 0.931 . S
H591 C577 0.933 . S
H592 C583 0.930 . S
H593 C584 0.931 . S
H594 C585 0.931 . S
H595 C586 0.933 . S
C596 C597 1.349 . S
C596 C598 1.327 . S
C596 H621 0.950 . S
C597 C596 1.349 . S
C597 C613 1.349 . S
C598 C596 1.327 . S
C598 C617 1.429 . S
C598 H622 0.950 . S
C599 C616 1.574 . S
C599 C618 1.368 . S
C599 H623 0.949 . S
H600 C604 0.949 . S
C601 C602 1.349 . S
C601 C603 1.327 . S
C601 H624 0.950 . S
C602 C601 1.349 . S
C602 C614 1.349 . S
C603 C601 1.327 . S
C603 C619 1.429 . S
C603 H625 0.950 . S
C604 H600 0.949 . S
C604 C612 1.574 . S
C604 C620 1.368 . S
H605 C613 0.950 . S
H606 C611 0.950 . S
H607 C612 0.949 . S
H608 C614 0.950 . S
H609 C615 0.950 . S
H610 C616 0.949 . S
C611 H606 0.950 . S
C611 C613 1.327 . S
C611 C617 1.429 . S
C612 C604 1.574 . S
C612 H607 0.949 . S
C612 C618 1.368 . S
C613 C597 1.349 . S
C613 H605 0.950 . S
C613 C611 1.327 . S
C614 C602 1.349 . S
C614 H608 0.950 . S
C614 C615 1.327 . S
C615 H609 0.950 . S
C615 C614 1.327 . S
C615 C619 1.429 . S
C616 C599 1.574 . S
C616 H610 0.949 . S
C616 C620 1.368 . S
C617 C598 1.429 . S
C617 C611 1.429 . S
C617 C618 1.523 . S
C618 C599 1.368 . S
C618 C612 1.368 . S
C618 C617 1.523 . S
C619 C603 1.429 . S
C619 C615 1.429 . S
C619 C620 1.523 . S
C620 C604 1.368 . S
C620 C616 1.368 . S
C620 C619 1.523 . S
H621 C596 0.950 . S
H622 C598 0.950 . S
H623 C599 0.949 . S
H624 C601 0.950 . S
H625 C603 0.950 . S
C626 C627 1.349 . S
C626 C628 1.327 . S
C626 H651 0.950 . S
C627 C626 1.349 . S
C627 C643 1.349 . S
C628 C626 1.327 . S
C628 C647 1.429 . S
C628 H652 0.950 . S
C629 C646 1.574 . S
C629 C648 1.368 . S
C629 H653 0.949 . S
H630 C634 0.949 . S
C631 C632 1.349 . S
C631 C633 1.327 . S
C631 H654 0.950 . S
C632 C631 1.349 . S
C632 C644 1.349 . S
C633 C631 1.327 . S
C633 C649 1.429 . S
C633 H655 0.950 . S
C634 H630 0.949 . S
C634 C642 1.574 . S
C634 C650 1.368 . S
H635 C643 0.950 . S
H636 C641 0.950 . S
H637 C642 0.949 . S
H638 C644 0.950 . S
H639 C645 0.950 . S
H640 C646 0.949 . S
C641 H636 0.950 . S
C641 C643 1.327 . S
C641 C647 1.429 . S
C642 C634 1.574 . S
C642 H637 0.949 . S
C642 C648 1.368 . S
C643 C627 1.349 . S
C643 H635 0.950 . S
C643 C641 1.327 . S
C644 C632 1.349 . S
C644 H638 0.950 . S
C644 C645 1.327 . S
C645 H639 0.950 . S
C645 C644 1.327 . S
C645 C649 1.429 . S
C646 C629 1.574 . S
C646 H640 0.949 . S
C646 C650 1.368 . S
C647 C628 1.429 . S
C647 C641 1.429 . S
C647 C648 1.523 . S
C648 C629 1.368 . S
C648 C642 1.368 . S
C648 C647 1.523 . S
C649 C633 1.429 . S
C649 C645 1.429 . S
C649 C650 1.523 . S
C650 C634 1.368 . S
C650 C646 1.368 . S
C650 C649 1.523 . S
H651 C626 0.950 . S
H652 C628 0.950 . S
H653 C629 0.949 . S
H654 C631 0.950 . S
H655 C633 0.950 . S
C656 C657 1.349 . S
C656 C658 1.327 . S
C656 H681 0.950 1_655 S
C657 C656 1.349 . S
C657 C673 1.349 . S
C658 C656 1.327 . S
C658 C677 1.429 . S
C658 H682 0.950 . S
C659 C676 1.574 . S
C659 C678 1.368 . S
C659 H683 0.949 . S
H660 C664 0.949 . S
C661 C662 1.349 . S
C661 C663 1.327 . S
C661 H684 0.950 . S
C662 C661 1.349 . S
C662 C674 1.349 . S
C663 C661 1.327 . S
C663 C679 1.429 . S
C663 H685 0.950 . S
C664 H660 0.949 . S
C664 C672 1.574 . S
C664 C680 1.368 . S
H665 C673 0.950 . S
H666 C671 0.950 . S
H667 C672 0.949 . S
H668 C674 0.950 . S
H669 C675 0.950 . S
H670 C676 0.949 . S
C671 H666 0.950 . S
C671 C673 1.327 . S
C671 C677 1.429 . S
C672 C664 1.574 . S
C672 H667 0.949 . S
C672 C678 1.368 . S
C673 C657 1.349 . S
C673 H665 0.950 . S
C673 C671 1.327 . S
C674 C662 1.349 . S
C674 H668 0.950 . S
C674 C675 1.327 . S
C675 H669 0.950 . S
C675 C674 1.327 . S
C675 C679 1.429 . S
C676 C659 1.574 . S
C676 H670 0.949 . S
C676 C680 1.368 . S
C677 C658 1.429 . S
C677 C671 1.429 . S
C677 C678 1.523 . S
C678 C659 1.368 . S
C678 C672 1.368 . S
C678 C677 1.523 . S
C679 C663 1.429 . S
C679 C675 1.429 . S
C679 C680 1.523 . S
C680 C664 1.368 . S
C680 C676 1.368 . S
C680 C679 1.523 . S
H681 C656 0.950 1_455 S
H682 C658 0.950 . S
H683 C659 0.949 . S
H684 C661 0.950 . S
H685 C663 0.950 . S
C686 C687 1.349 . S
C686 C688 1.327 . S
C686 H711 0.950 . S
C687 C686 1.349 . S
C687 C703 1.349 . S
C688 C686 1.327 . S
C688 C707 1.429 . S
C688 H712 0.950 . S
C689 C706 1.574 . S
C689 C708 1.368 . S
C689 H713 0.949 . S
H690 C694 0.949 . S
C691 C692 1.349 . S
C691 C693 1.327 . S
C691 H714 0.950 . S
C692 C691 1.349 . S
C692 C704 1.349 . S
C693 C691 1.327 . S
C693 C709 1.429 . S
C693 H715 0.950 . S
C694 H690 0.949 . S
C694 C702 1.574 . S
C694 C710 1.368 . S
H695 C703 0.950 . S
H696 C701 0.950 . S
H697 C702 0.949 . S
H698 C704 0.950 . S
H699 C705 0.950 . S
H700 C706 0.949 . S
C701 H696 0.950 . S
C701 C703 1.327 . S
C701 C707 1.429 . S
C702 C694 1.574 . S
C702 H697 0.949 . S
C702 C708 1.368 . S
C703 C687 1.349 . S
C703 H695 0.950 . S
C703 C701 1.327 . S
C704 C692 1.349 . S
C704 H698 0.950 . S
C704 C705 1.327 . S
C705 H699 0.950 . S
C705 C704 1.327 . S
C705 C709 1.429 . S
C706 C689 1.574 . S
C706 H700 0.949 . S
C706 C710 1.368 . S
C707 C688 1.429 . S
C707 C701 1.429 . S
C707 C708 1.523 . S
C708 C689 1.368 . S
C708 C702 1.368 . S
C708 C707 1.523 . S
C709 C693 1.429 . S
C709 C705 1.429 . S
C709 C710 1.523 . S
C710 C694 1.368 . S
C710 C706 1.368 . S
C710 C709 1.523 . S
H711 C686 0.950 . S
H712 C688 0.950 . S
H713 C689 0.949 . S
H714 C691 0.950 . S
H715 C693 0.950 . S
C716 C717 1.349 . S
C716 C718 1.327 . S
C716 H741 0.950 . S
C717 C716 1.349 . S
C717 C733 1.349 . S
C718 C716 1.327 . S
C718 C737 1.429 . S
C718 H742 0.950 . S
C719 C736 1.574 . S
C719 C738 1.368 . S
C719 H743 0.949 . S
H720 C724 0.949 . S
C721 C722 1.349 . S
C721 C723 1.327 . S
C721 H744 0.950 . S
C722 C721 1.349 . S
C722 C734 1.349 . S
C723 C721 1.327 . S
C723 C739 1.429 . S
C723 H745 0.950 . S
C724 H720 0.949 . S
C724 C732 1.574 . S
C724 C740 1.368 . S
H725 C733 0.950 . S
H726 C731 0.950 . S
H727 C732 0.949 . S
H728 C734 0.950 . S
H729 C735 0.950 . S
H730 C736 0.949 . S
C731 H726 0.950 . S
C731 C733 1.327 . S
C731 C737 1.429 . S
C732 C724 1.574 . S
C732 H727 0.949 . S
C732 C738 1.368 . S
C733 C717 1.349 . S
C733 H725 0.950 . S
C733 C731 1.327 . S
C734 C722 1.349 . S
C734 H728 0.950 . S
C734 C735 1.327 . S
C735 H729 0.950 . S
C735 C734 1.327 . S
C735 C739 1.429 . S
C736 C719 1.574 . S
C736 H730 0.949 . S
C736 C740 1.368 . S
C737 C718 1.429 . S
C737 C731 1.429 . S
C737 C738 1.523 . S
C738 C719 1.368 . S
C738 C732 1.368 . S
C738 C737 1.523 . S
C739 C723 1.429 . S
C739 C735 1.429 . S
C739 C740 1.523 . S
C740 C724 1.368 . S
C740 C736 1.368 . S
C740 C739 1.523 . S
H741 C716 0.950 . S
H742 C718 0.950 . S
H743 C719 0.949 . S
H744 C721 0.950 . S
H745 C723 0.950 . S
C746 C747 1.349 . S
C746 C748 1.327 . S
C746 H771 0.950 . S
C747 C746 1.349 . S
C747 C763 1.349 . S
C748 C746 1.327 . S
C748 C767 1.429 . S
C748 H772 0.950 . S
C749 C766 1.574 . S
C749 C768 1.368 . S
C749 H773 0.949 . S
H750 C754 0.949 . S
C751 C752 1.349 . S
C751 C753 1.327 . S
C751 H774 0.950 . S
C752 C751 1.349 . S
C752 C764 1.349 . S
C753 C751 1.327 . S
C753 C769 1.429 . S
C753 H775 0.950 . S
C754 H750 0.949 . S
C754 C762 1.574 . S
C754 C770 1.368 . S
H755 C763 0.950 . S
H756 C761 0.950 . S
H757 C762 0.949 . S
H758 C764 0.950 . S
H759 C765 0.950 . S
H760 C766 0.949 . S
C761 H756 0.950 . S
C761 C763 1.327 . S
C761 C767 1.429 . S
C762 C754 1.574 . S
C762 H757 0.949 . S
C762 C768 1.368 . S
C763 C747 1.349 . S
C763 H755 0.950 . S
C763 C761 1.327 . S
C764 C752 1.349 . S
C764 H758 0.950 . S
C764 C765 1.327 . S
C765 H759 0.950 . S
C765 C764 1.327 . S
C765 C769 1.429 . S
C766 C749 1.574 . S
C766 H760 0.949 . S
C766 C770 1.368 . S
C767 C748 1.429 . S
C767 C761 1.429 . S
C767 C768 1.523 . S
C768 C749 1.368 . S
C768 C762 1.368 . S
C768 C767 1.523 . S
C769 C753 1.429 . S
C769 C765 1.429 . S
C769 C770 1.523 . S
C770 C754 1.368 . S
C770 C766 1.368 . S
C770 C769 1.523 . S
H771 C746 0.950 . S
H772 C748 0.950 . S
H773 C749 0.949 . S
H774 C751 0.950 . S
H775 C753 0.950 . S
C776 C777 1.349 . S
C776 C778 1.327 . S
C776 H801 0.950 . S
C777 C776 1.349 . S
C777 C793 1.349 . S
C778 C776 1.327 . S
C778 C797 1.429 . S
C778 H802 0.950 . S
C779 C796 1.574 . S
C779 C798 1.368 . S
C779 H803 0.949 . S
H780 C784 0.949 . S
C781 C782 1.349 . S
C781 C783 1.327 . S
C781 H804 0.950 . S
C782 C781 1.349 . S
C782 C794 1.349 . S
C783 C781 1.327 . S
C783 C799 1.429 . S
C783 H805 0.950 . S
C784 H780 0.949 . S
C784 C792 1.574 . S
C784 C800 1.368 . S
H785 C793 0.950 . S
H786 C791 0.950 . S
H787 C792 0.949 . S
H788 C794 0.950 . S
H789 C795 0.950 . S
H790 C796 0.949 . S
C791 H786 0.950 . S
C791 C793 1.327 . S
C791 C797 1.429 . S
C792 C784 1.574 . S
C792 H787 0.949 . S
C792 C798 1.368 . S
C793 C777 1.349 . S
C793 H785 0.950 . S
C793 C791 1.327 . S
C794 C782 1.349 . S
C794 H788 0.950 . S
C794 C795 1.327 . S
C795 H789 0.950 . S
C795 C794 1.327 . S
C795 C799 1.429 . S
C796 C779 1.574 . S
C796 H790 0.949 . S
C796 C800 1.368 . S
C797 C778 1.429 . S
C797 C791 1.429 . S
C797 C798 1.523 . S
C798 C779 1.368 . S
C798 C792 1.368 . S
C798 C797 1.523 . S
C799 C783 1.429 . S
C799 C795 1.429 . S
C799 C800 1.523 . S
C800 C784 1.368 . S
C800 C796 1.368 . S
C800 C799 1.523 . S
H801 C776 0.950 . S
H802 C778 0.950 . S
H803 C779 0.949 . S
H804 C781 0.950 . S
H805 C783 0.950 . S
C806 C807 1.349 . S
C806 C808 1.327 . S
C806 H831 0.950 1_655 S
C807 C806 1.349 . S
C807 C823 1.349 . S
C808 C806 1.327 . S
C808 C827 1.429 . S
C808 H832 0.950 . S
C809 C826 1.574 . S
C809 C828 1.368 . S
C809 H833 0.949 . S
H810 C814 0.949 . S
C811 C812 1.349 . S
C811 C813 1.327 . S
C811 H834 0.950 . S
C812 C811 1.349 . S
C812 C824 1.349 . S
C813 C811 1.327 . S
C813 C829 1.429 . S
C813 H835 0.950 . S
C814 H810 0.949 . S
C814 C822 1.574 . S
C814 C830 1.368 . S
H815 C823 0.950 . S
H816 C821 0.950 . S
H817 C822 0.949 . S
H818 C824 0.950 . S
H819 C825 0.950 . S
H820 C826 0.949 . S
C821 H816 0.950 . S
C821 C823 1.327 . S
C821 C827 1.429 . S
C822 C814 1.574 . S
C822 H817 0.949 . S
C822 C828 1.368 . S
C823 C807 1.349 . S
C823 H815 0.950 . S
C823 C821 1.327 . S
C824 C812 1.349 . S
C824 H818 0.950 . S
C824 C825 1.327 . S
C825 H819 0.950 . S
C825 C824 1.327 . S
C825 C829 1.429 . S
C826 C809 1.574 . S
C826 H820 0.949 . S
C826 C830 1.368 . S
C827 C808 1.429 . S
C827 C821 1.429 . S
C827 C828 1.523 . S
C828 C809 1.368 . S
C828 C822 1.368 . S
C828 C827 1.523 . S
C829 C813 1.429 . S
C829 C825 1.429 . S
C829 C830 1.523 . S
C830 C814 1.368 . S
C830 C826 1.368 . S
C830 C829 1.523 . S
H831 C806 0.950 1_455 S
H832 C808 0.950 . S
H833 C809 0.949 . S
H834 C811 0.950 . S
H835 C813 0.950 . S
C836 C837 1.349 . S
C836 C838 1.327 . S
C836 H861 0.950 . S
C837 C836 1.349 . S
C837 C853 1.349 . S
C838 C836 1.327 . S
C838 C857 1.429 . S
C838 H862 0.950 . S
C839 C856 1.574 . S
C839 C858 1.368 . S
C839 H863 0.949 . S
H840 C844 0.949 . S
C841 C842 1.349 . S
C841 C843 1.327 . S
C841 H864 0.950 . S
C842 C841 1.349 . S
C842 C854 1.349 . S
C843 C841 1.327 . S
C843 C859 1.429 . S
C843 H865 0.950 . S
C844 H840 0.949 . S
C844 C852 1.574 . S
C844 C860 1.368 . S
H845 C853 0.950 . S
H846 C851 0.950 . S
H847 C852 0.949 . S
H848 C854 0.950 . S
H849 C855 0.950 . S
H850 C856 0.949 . S
C851 H846 0.950 . S
C851 C853 1.327 . S
C851 C857 1.429 . S
C852 C844 1.574 . S
C852 H847 0.949 . S
C852 C858 1.368 . S
C853 C837 1.349 . S
C853 H845 0.950 . S
C853 C851 1.327 . S
C854 C842 1.349 . S
C854 H848 0.950 . S
C854 C855 1.327 . S
C855 H849 0.950 . S
C855 C854 1.327 . S
C855 C859 1.429 . S
C856 C839 1.574 . S
C856 H850 0.949 . S
C856 C860 1.368 . S
C857 C838 1.429 . S
C857 C851 1.429 . S
C857 C858 1.523 . S
C858 C839 1.368 . S
C858 C852 1.368 . S
C858 C857 1.523 . S
C859 C843 1.429 . S
C859 C855 1.429 . S
C859 C860 1.523 . S
C860 C844 1.368 . S
C860 C856 1.368 . S
C860 C859 1.523 . S
H861 C836 0.950 . S
H862 C838 0.950 . S
H863 C839 0.949 . S
H864 C841 0.950 . S
H865 C843 0.950 . S
C866 C867 1.349 . S
C866 C868 1.327 1_455 S
C866 H891 0.950 . S
C867 C866 1.349 . S
C867 C883 1.349 1_455 S
C868 C866 1.327 1_655 S
C868 C887 1.429 . S
C868 H892 0.950 1_655 S
C869 C886 1.574 . S
C869 C888 1.368 . S
C869 H893 0.949 . S
H870 C874 0.949 . S
C871 C872 1.349 . S
C871 C873 1.327 . S
C871 H894 0.950 . S
C872 C871 1.349 . S
C872 C884 1.349 . S
C873 C871 1.327 . S
C873 C889 1.429 . S
C873 H895 0.950 . S
C874 H870 0.949 . S
C874 C882 1.574 . S
C874 C890 1.368 . S
H875 C883 0.950 . S
H876 C881 0.950 . S
H877 C882 0.949 . S
H878 C884 0.950 . S
H879 C885 0.950 . S
H880 C886 0.949 . S
C881 H876 0.950 . S
C881 C883 1.327 . S
C881 C887 1.429 . S
C882 C874 1.574 . S
C882 H877 0.949 . S
C882 C888 1.368 . S
C883 C867 1.349 1_655 S
C883 H875 0.950 . S
C883 C881 1.327 . S
C884 C872 1.349 . S
C884 H878 0.950 . S
C884 C885 1.327 . S
C885 H879 0.950 . S
C885 C884 1.327 . S
C885 C889 1.429 . S
C886 C869 1.574 . S
C886 H880 0.949 . S
C886 C890 1.368 . S
C887 C868 1.429 . S
C887 C881 1.429 . S
C887 C888 1.523 . S
C888 C869 1.368 . S
C888 C882 1.368 . S
C888 C887 1.523 . S
C889 C873 1.429 . S
C889 C885 1.429 . S
C889 C890 1.523 . S
C890 C874 1.368 . S
C890 C886 1.368 . S
C890 C889 1.523 . S
H891 C866 0.950 . S
H892 C868 0.950 1_455 S
H893 C869 0.949 . S
H894 C871 0.950 . S
H895 C873 0.950 . S
C896 C897 1.349 . S
C896 C898 1.327 . S
C896 H921 0.950 . S
C897 C896 1.349 . S
C897 C913 1.349 . S
C898 C896 1.327 . S
C898 C917 1.429 . S
C898 H922 0.950 . S
C899 C916 1.574 . S
C899 C918 1.368 . S
C899 H923 0.949 . S
H900 C904 0.949 . S
C901 C902 1.349 . S
C901 C903 1.327 . S
C901 H924 0.950 . S
C902 C901 1.349 . S
C902 C914 1.349 . S
C903 C901 1.327 . S
C903 C919 1.429 . S
C903 H925 0.950 . S
C904 H900 0.949 . S
C904 C912 1.574 . S
C904 C920 1.368 . S
H905 C913 0.950 . S
H906 C911 0.950 . S
H907 C912 0.949 . S
H908 C914 0.950 . S
H909 C915 0.950 . S
H910 C916 0.949 . S
C911 H906 0.950 . S
C911 C913 1.327 . S
C911 C917 1.429 . S
C912 C904 1.574 . S
C912 H907 0.949 . S
C912 C918 1.368 . S
C913 C897 1.349 . S
C913 H905 0.950 . S
C913 C911 1.327 . S
C914 C902 1.349 . S
C914 H908 0.950 . S
C914 C915 1.327 . S
C915 H909 0.950 . S
C915 C914 1.327 . S
C915 C919 1.429 . S
C916 C899 1.574 . S
C916 H910 0.949 . S
C916 C920 1.368 . S
C917 C898 1.429 . S
C917 C911 1.429 . S
C917 C918 1.523 . S
C918 C899 1.368 . S
C918 C912 1.368 . S
C918 C917 1.523 . S
C919 C903 1.429 . S
C919 C915 1.429 . S
C919 C920 1.523 . S
C920 C904 1.368 . S
C920 C916 1.368 . S
C920 C919 1.523 . S
H921 C896 0.950 . S
H922 C898 0.950 . S
H923 C899 0.949 . S
H924 C901 0.950 . S
H925 C903 0.950 . S
C926 C927 1.349 . S
C926 C928 1.327 . S
C926 H951 0.950 . S
C927 C926 1.349 . S
C927 C943 1.349 . S
C928 C926 1.327 . S
C928 C947 1.429 . S
C928 H952 0.950 . S
C929 C946 1.574 . S
C929 C948 1.368 . S
C929 H953 0.949 . S
H930 C934 0.949 . S
C931 C932 1.349 . S
C931 C933 1.327 . S
C931 H954 0.950 . S
C932 C931 1.349 . S
C932 C944 1.349 . S
C933 C931 1.327 . S
C933 C949 1.429 . S
C933 H955 0.950 . S
C934 H930 0.949 . S
C934 C942 1.574 . S
C934 C950 1.368 . S
H935 C943 0.950 . S
H936 C941 0.950 . S
H937 C942 0.949 . S
H938 C944 0.950 . S
H939 C945 0.950 . S
H940 C946 0.949 . S
C941 H936 0.950 . S
C941 C943 1.327 . S
C941 C947 1.429 . S
C942 C934 1.574 . S
C942 H937 0.949 . S
C942 C948 1.368 . S
C943 C927 1.349 . S
C943 H935 0.950 . S
C943 C941 1.327 . S
C944 C932 1.349 . S
C944 H938 0.950 . S
C944 C945 1.327 . S
C945 H939 0.950 . S
C945 C944 1.327 . S
C945 C949 1.429 . S
C946 C929 1.574 . S
C946 H940 0.949 . S
C946 C950 1.368 . S
C947 C928 1.429 . S
C947 C941 1.429 . S
C947 C948 1.523 . S
C948 C929 1.368 . S
C948 C942 1.368 . S
C948 C947 1.523 . S
C949 C933 1.429 . S
C949 C945 1.429 . S
C949 C950 1.523 . S
C950 C934 1.368 . S
C950 C946 1.368 . S
C950 C949 1.523 . S
H951 C926 0.950 . S
H952 C928 0.950 . S
H953 C929 0.949 . S
H954 C931 0.950 . S
H955 C933 0.950 . S
C956 C957 1.349 . S
C956 C958 1.327 . S
C956 H981 0.950 . S
C957 C956 1.349 . S
C957 C973 1.349 . S
C958 C956 1.327 . S
C958 C977 1.429 . S
C958 H982 0.950 . S
C959 C976 1.574 . S
C959 C978 1.368 . S
C959 H983 0.949 . S
H960 C964 0.949 . S
C961 C962 1.349 . S
C961 C963 1.327 . S
C961 H984 0.950 . S
C962 C961 1.349 . S
C962 C974 1.349 . S
C963 C961 1.327 . S
C963 C979 1.429 . S
C963 H985 0.950 . S
C964 H960 0.949 . S
C964 C972 1.574 . S
C964 C980 1.368 . S
H965 C973 0.950 . S
H966 C971 0.950 . S
H967 C972 0.949 . S
H968 C974 0.950 . S
H969 C975 0.950 . S
H970 C976 0.949 . S
C971 H966 0.950 . S
C971 C973 1.327 . S
C971 C977 1.429 . S
C972 C964 1.574 . S
C972 H967 0.949 . S
C972 C978 1.368 . S
C973 C957 1.349 . S
C973 H965 0.950 . S
C973 C971 1.327 . S
C974 C962 1.349 . S
C974 H968 0.950 . S
C974 C975 1.327 . S
C975 H969 0.950 . S
C975 C974 1.327 . S
C975 C979 1.429 . S
C976 C959 1.574 . S
C976 H970 0.949 . S
C976 C980 1.368 . S
C977 C958 1.429 . S
C977 C971 1.429 . S
C977 C978 1.523 . S
C978 C959 1.368 . S
C978 C972 1.368 . S
C978 C977 1.523 . S
C979 C963 1.429 . S
C979 C975 1.429 . S
C979 C980 1.523 . S
C980 C964 1.368 . S
C980 C976 1.368 . S
C980 C979 1.523 . S
H981 C956 0.950 . S
H982 C958 0.950 . S
H983 C959 0.949 . S
H984 C961 0.950 . S
H985 C963 0.950 . S
C986 C987 1.349 . S
C986 C988 1.327 . S
C986 H1011 0.950 . S
C987 C986 1.349 . S
C987 C1003 1.349 . S
C988 C986 1.327 . S
C988 C1007 1.429 . S
C988 H1012 0.950 . S
C989 C1006 1.574 . S
C989 C1008 1.368 . S
C989 H1013 0.949 . S
H990 C994 0.949 . S
C991 C992 1.349 . S
C991 C993 1.327 . S
C991 H1014 0.950 . S
C992 C991 1.349 . S
C992 C1004 1.349 . S
C993 C991 1.327 . S
C993 C1009 1.429 . S
C993 H1015 0.950 . S
C994 H990 0.949 . S
C994 C1002 1.574 . S
C994 C1010 1.368 . S
H995 C1003 0.950 . S
H996 C1001 0.950 . S
H997 C1002 0.949 . S
H998 C1004 0.950 . S
H999 C1005 0.950 . S
H1000 C1006 0.949 . S
C1001 H996 0.950 . S
C1001 C1003 1.327 . S
C1001 C1007 1.429 . S
C1002 C994 1.574 . S
C1002 H997 0.949 . S
C1002 C1008 1.368 . S
C1003 C987 1.349 . S
C1003 H995 0.950 . S
C1003 C1001 1.327 . S
C1004 C992 1.349 . S
C1004 H998 0.950 . S
C1004 C1005 1.327 . S
C1005 H999 0.950 . S
C1005 C1004 1.327 . S
C1005 C1009 1.429 . S
C1006 C989 1.574 . S
C1006 H1000 0.949 . S
C1006 C1010 1.368 . S
C1007 C988 1.429 . S
C1007 C1001 1.429 . S
C1007 C1008 1.523 . S
C1008 C989 1.368 . S
C1008 C1002 1.368 . S
C1008 C1007 1.523 . S
C1009 C993 1.429 . S
C1009 C1005 1.429 . S
C1009 C1010 1.523 . S
C1010 C994 1.368 . S
C1010 C1006 1.368 . S
C1010 C1009 1.523 . S
H1011 C986 0.950 . S
H1012 C988 0.950 . S
H1013 C989 0.949 . S
H1014 C991 0.950 . S
H1015 C993 0.950 . S
C1016 C1017 1.349 . S
C1016 C1018 1.327 . S
C1016 H1041 0.950 . S
C1017 C1016 1.349 . S
C1017 C1033 1.349 . S
C1018 C1016 1.327 . S
C1018 C1037 1.429 . S
C1018 H1042 0.950 . S
C1019 C1036 1.574 . S
C1019 C1038 1.368 . S
C1019 H1043 0.949 . S
H1020 C1024 0.949 . S
C1021 C1022 1.349 . S
C1021 C1023 1.327 . S
C1021 H1044 0.950 . S
C1022 C1021 1.349 . S
C1022 C1034 1.349 . S
C1023 C1021 1.327 . S
C1023 C1039 1.429 . S
C1023 H1045 0.950 . S
C1024 H1020 0.949 . S
C1024 C1032 1.574 . S
C1024 C1040 1.368 . S
H1025 C1033 0.950 . S
H1026 C1031 0.950 . S
H1027 C1032 0.949 . S
H1028 C1034 0.950 . S
H1029 C1035 0.950 . S
H1030 C1036 0.949 . S
C1031 H1026 0.950 . S
C1031 C1033 1.327 . S
C1031 C1037 1.429 . S
C1032 C1024 1.574 . S
C1032 H1027 0.949 . S
C1032 C1038 1.368 . S
C1033 C1017 1.349 . S
C1033 H1025 0.950 . S
C1033 C1031 1.327 . S
C1034 C1022 1.349 . S
C1034 H1028 0.950 . S
C1034 C1035 1.327 . S
C1035 H1029 0.950 . S
C1035 C1034 1.327 . S
C1035 C1039 1.429 . S
C1036 C1019 1.574 . S
C1036 H1030 0.949 . S
C1036 C1040 1.368 . S
C1037 C1018 1.429 . S
C1037 C1031 1.429 . S
C1037 C1038 1.523 . S
C1038 C1019 1.368 . S
C1038 C1032 1.368 . S
C1038 C1037 1.523 . S
C1039 C1023 1.429 . S
C1039 C1035 1.429 . S
C1039 C1040 1.523 . S
C1040 C1024 1.368 . S
C1040 C1036 1.368 . S
C1040 C1039 1.523 . S
H1041 C1016 0.950 . S
H1042 C1018 0.950 . S
H1043 C1019 0.949 . S
H1044 C1021 0.950 . S
H1045 C1023 0.950 . S
C1046 C1047 1.349 . S
C1046 C1048 1.327 . S
C1046 H1071 0.950 . S
C1047 C1046 1.349 . S
C1047 C1063 1.349 . S
C1048 C1046 1.327 . S
C1048 C1067 1.429 . S
C1048 H1072 0.950 . S
C1049 C1066 1.574 . S
C1049 C1068 1.368 . S
C1049 H1073 0.949 . S
H1050 C1054 0.949 . S
C1051 C1052 1.349 . S
C1051 C1053 1.327 . S
C1051 H1074 0.950 . S
C1052 C1051 1.349 . S
C1052 C1064 1.349 . S
C1053 C1051 1.327 . S
C1053 C1069 1.429 . S
C1053 H1075 0.950 . S
C1054 H1050 0.949 . S
C1054 C1062 1.574 . S
C1054 C1070 1.368 . S
H1055 C1063 0.950 . S
H1056 C1061 0.950 . S
H1057 C1062 0.949 . S
H1058 C1064 0.950 . S
H1059 C1065 0.950 . S
H1060 C1066 0.949 . S
C1061 H1056 0.950 . S
C1061 C1063 1.327 . S
C1061 C1067 1.429 . S
C1062 C1054 1.574 . S
C1062 H1057 0.949 . S
C1062 C1068 1.368 . S
C1063 C1047 1.349 . S
C1063 H1055 0.950 . S
C1063 C1061 1.327 . S
C1064 C1052 1.349 . S
C1064 H1058 0.950 . S
C1064 C1065 1.327 . S
C1065 H1059 0.950 . S
C1065 C1064 1.327 . S
C1065 C1069 1.429 . S
C1066 C1049 1.574 . S
C1066 H1060 0.949 . S
C1066 C1070 1.368 . S
C1067 C1048 1.429 . S
C1067 C1061 1.429 . S
C1067 C1068 1.523 . S
C1068 C1049 1.368 . S
C1068 C1062 1.368 . S
C1068 C1067 1.523 . S
C1069 C1053 1.429 . S
C1069 C1065 1.429 . S
C1069 C1070 1.523 . S
C1070 C1054 1.368 . S
C1070 C1066 1.368 . S
C1070 C1069 1.523 . S
H1071 C1046 0.950 . S
H1072 C1048 0.950 . S
H1073 C1049 0.949 . S
H1074 C1051 0.950 . S
H1075 C1053 0.950 . S
C1076 C1077 1.349 . S
C1076 C1078 1.327 . S
C1076 H1101 0.950 . S
C1077 C1076 1.349 . S
C1077 C1093 1.349 . S
C1078 C1076 1.327 . S
C1078 C1097 1.429 . S
C1078 H1102 0.950 . S
C1079 C1096 1.574 . S
C1079 C1098 1.368 . S
C1079 H1103 0.949 . S
H1080 C1084 0.949 . S
C1081 C1082 1.349 . S
C1081 C1083 1.327 . S
C1081 H1104 0.950 . S
C1082 C1081 1.349 . S
C1082 C1094 1.349 . S
C1083 C1081 1.327 . S
C1083 C1099 1.429 . S
C1083 H1105 0.950 . S
C1084 H1080 0.949 . S
C1084 C1092 1.574 . S
C1084 C1100 1.368 . S
H1085 C1093 0.950 . S
H1086 C1091 0.950 . S
H1087 C1092 0.949 . S
H1088 C1094 0.950 . S
H1089 C1095 0.950 . S
H1090 C1096 0.949 . S
C1091 H1086 0.950 . S
C1091 C1093 1.327 . S
C1091 C1097 1.429 . S
C1092 C1084 1.574 . S
C1092 H1087 0.949 . S
C1092 C1098 1.368 . S
C1093 C1077 1.349 . S
C1093 H1085 0.950 . S
C1093 C1091 1.327 . S
C1094 C1082 1.349 . S
C1094 H1088 0.950 . S
C1094 C1095 1.327 . S
C1095 H1089 0.950 . S
C1095 C1094 1.327 . S
C1095 C1099 1.429 . S
C1096 C1079 1.574 . S
C1096 H1090 0.949 . S
C1096 C1100 1.368 . S
C1097 C1078 1.429 . S
C1097 C1091 1.429 . S
C1097 C1098 1.523 . S
C1098 C1079 1.368 . S
C1098 C1092 1.368 . S
C1098 C1097 1.523 . S
C1099 C1083 1.429 . S
C1099 C1095 1.429 . S
C1099 C1100 1.523 . S
C1100 C1084 1.368 . S
C1100 C1096 1.368 . S
C1100 C1099 1.523 . S
H1101 C1076 0.950 . S
H1102 C1078 0.950 . S
H1103 C1079 0.949 . S
H1104 C1081 0.950 . S
H1105 C1083 0.950 . S
C1106 C1107 1.349 . S
C1106 C1108 1.327 . S
C1106 H1131 0.950 . S
C1107 C1106 1.349 . S
C1107 C1123 1.349 . S
C1108 C1106 1.327 . S
C1108 C1127 1.429 . S
C1108 H1132 0.950 . S
C1109 C1126 1.574 . S
C1109 C1128 1.368 . S
C1109 H1133 0.949 . S
H1110 C1114 0.949 . S
C1111 C1112 1.349 . S
C1111 C1113 1.327 . S
C1111 H1134 0.950 . S
C1112 C1111 1.349 . S
C1112 C1124 1.349 . S
C1113 C1111 1.327 . S
C1113 C1129 1.429 . S
C1113 H1135 0.950 . S
C1114 H1110 0.949 . S
C1114 C1122 1.574 . S
C1114 C1130 1.368 . S
H1115 C1123 0.950 . S
H1116 C1121 0.950 . S
H1117 C1122 0.949 . S
H1118 C1124 0.950 . S
H1119 C1125 0.950 . S
H1120 C1126 0.949 . S
C1121 H1116 0.950 . S
C1121 C1123 1.327 . S
C1121 C1127 1.429 . S
C1122 C1114 1.574 . S
C1122 H1117 0.949 . S
C1122 C1128 1.368 . S
C1123 C1107 1.349 . S
C1123 H1115 0.950 . S
C1123 C1121 1.327 . S
C1124 C1112 1.349 . S
C1124 H1118 0.950 . S
C1124 C1125 1.327 . S
C1125 H1119 0.950 . S
C1125 C1124 1.327 . S
C1125 C1129 1.429 . S
C1126 C1109 1.574 . S
C1126 H1120 0.949 . S
C1126 C1130 1.368 . S
C1127 C1108 1.429 . S
C1127 C1121 1.429 . S
C1127 C1128 1.523 . S
C1128 C1109 1.368 . S
C1128 C1122 1.368 . S
C1128 C1127 1.523 . S
C1129 C1113 1.429 . S
C1129 C1125 1.429 . S
C1129 C1130 1.523 . S
C1130 C1114 1.368 . S
C1130 C1126 1.368 . S
C1130 C1129 1.523 . S
H1131 C1106 0.950 . S
H1132 C1108 0.950 . S
H1133 C1109 0.949 . S
H1134 C1111 0.950 . S
H1135 C1113 0.950 . S
C1136 C1137 1.349 . S
C1136 C1138 1.327 . S
C1136 H1161 0.950 . S
C1137 C1136 1.349 . S
C1137 C1153 1.349 . S
C1138 C1136 1.327 . S
C1138 C1157 1.429 . S
C1138 H1162 0.950 . S
C1139 C1156 1.574 . S
C1139 C1158 1.368 . S
C1139 H1163 0.949 . S
H1140 C1144 0.949 . S
C1141 C1142 1.349 . S
C1141 C1143 1.327 . S
C1141 H1164 0.950 . S
C1142 C1141 1.349 . S
C1142 C1154 1.349 . S
C1143 C1141 1.327 . S
C1143 C1159 1.429 . S
C1143 H1165 0.950 . S
C1144 H1140 0.949 . S
C1144 C1152 1.574 . S
C1144 C1160 1.368 . S
H1145 C1153 0.950 . S
H1146 C1151 0.950 . S
H1147 C1152 0.949 . S
H1148 C1154 0.950 . S
H1149 C1155 0.950 . S
H1150 C1156 0.949 . S
C1151 H1146 0.950 . S
C1151 C1153 1.327 . S
C1151 C1157 1.429 . S
C1152 C1144 1.574 . S
C1152 H1147 0.949 . S
C1152 C1158 1.368 . S
C1153 C1137 1.349 . S
C1153 H1145 0.950 . S
C1153 C1151 1.327 . S
C1154 C1142 1.349 . S
C1154 H1148 0.950 . S
C1154 C1155 1.327 . S
C1155 H1149 0.950 . S
C1155 C1154 1.327 . S
C1155 C1159 1.429 . S
C1156 C1139 1.574 . S
C1156 H1150 0.949 . S
C1156 C1160 1.368 . S
C1157 C1138 1.429 . S
C1157 C1151 1.429 . S
C1157 C1158 1.523 . S
C1158 C1139 1.368 . S
C1158 C1152 1.368 . S
C1158 C1157 1.523 . S
C1159 C1143 1.429 . S
C1159 C1155 1.429 . S
C1159 C1160 1.523 . S
C1160 C1144 1.368 . S
C1160 C1156 1.368 . S
C1160 C1159 1.523 . S
H1161 C1136 0.950 . S
H1162 C1138 0.950 . S
H1163 C1139 0.949 . S
H1164 C1141 0.950 . S
H1165 C1143 0.950 . S
C1166 C1167 1.349 . S
C1166 C1168 1.327 . S
C1166 H1191 0.950 . S
C1167 C1166 1.349 . S
C1167 C1183 1.349 . S
C1168 C1166 1.327 . S
C1168 C1187 1.429 1_455 S
C1168 H1192 0.950 . S
C1169 C1186 1.574 . S
C1169 C1188 1.368 . S
C1169 H1193 0.949 . S
H1170 C1174 0.949 . S
C1171 C1172 1.349 . S
C1171 C1173 1.327 . S
C1171 H1194 0.950 . S
C1172 C1171 1.349 . S
C1172 C1184 1.349 . S
C1173 C1171 1.327 . S
C1173 C1189 1.429 . S
C1173 H1195 0.950 . S
C1174 H1170 0.949 . S
C1174 C1182 1.574 . S
C1174 C1190 1.368 . S
H1175 C1183 0.950 1_554 S
H1176 C1181 0.950 . S
H1177 C1182 0.949 . S
H1178 C1184 0.950 . S
H1179 C1185 0.950 . S
H1180 C1186 0.949 . S
C1181 H1176 0.950 . S
C1181 C1183 1.327 1_655 S
C1181 C1187 1.429 . S
C1182 C1174 1.574 . S
C1182 H1177 0.949 . S
C1182 C1188 1.368 . S
C1183 C1167 1.349 . S
C1183 H1175 0.950 1_556 S
C1183 C1181 1.327 1_455 S
C1184 C1172 1.349 . S
C1184 H1178 0.950 . S
C1184 C1185 1.327 . S
C1185 H1179 0.950 . S
C1185 C1184 1.327 . S
C1185 C1189 1.429 . S
C1186 C1169 1.574 . S
C1186 H1180 0.949 . S
C1186 C1190 1.368 . S
C1187 C1168 1.429 1_655 S
C1187 C1181 1.429 . S
C1187 C1188 1.523 . S
C1188 C1169 1.368 . S
C1188 C1182 1.368 . S
C1188 C1187 1.523 . S
C1189 C1173 1.429 . S
C1189 C1185 1.429 . S
C1189 C1190 1.523 . S
C1190 C1174 1.368 . S
C1190 C1186 1.368 . S
C1190 C1189 1.523 . S
H1191 C1166 0.950 . S
H1192 C1168 0.950 . S
H1193 C1169 0.949 . S
H1194 C1171 0.950 . S
H1195 C1173 0.950 . S
C1196 C1197 1.349 . S
C1196 C1198 1.327 . S
C1196 H1221 0.950 . S
C1197 C1196 1.349 . S
C1197 C1213 1.349 . S
C1198 C1196 1.327 . S
C1198 C1217 1.429 . S
C1198 H1222 0.950 . S
C1199 C1216 1.574 . S
C1199 C1218 1.368 . S
C1199 H1223 0.949 . S
H1200 C1204 0.949 . S
C1201 C1202 1.349 . S
C1201 C1203 1.327 . S
C1201 H1224 0.950 . S
C1202 C1201 1.349 . S
C1202 C1214 1.349 . S
C1203 C1201 1.327 . S
C1203 C1219 1.429 . S
C1203 H1225 0.950 . S
C1204 H1200 0.949 . S
C1204 C1212 1.574 . S
C1204 C1220 1.368 . S
H1205 C1213 0.950 . S
H1206 C1211 0.950 . S
H1207 C1212 0.949 . S
H1208 C1214 0.950 . S
H1209 C1215 0.950 . S
H1210 C1216 0.949 . S
C1211 H1206 0.950 . S
C1211 C1213 1.327 . S
C1211 C1217 1.429 . S
C1212 C1204 1.574 . S
C1212 H1207 0.949 . S
C1212 C1218 1.368 . S
C1213 C1197 1.349 . S
C1213 H1205 0.950 . S
C1213 C1211 1.327 . S
C1214 C1202 1.349 . S
C1214 H1208 0.950 . S
C1214 C1215 1.327 . S
C1215 H1209 0.950 . S
C1215 C1214 1.327 . S
C1215 C1219 1.429 . S
C1216 C1199 1.574 . S
C1216 H1210 0.949 . S
C1216 C1220 1.368 . S
C1217 C1198 1.429 . S
C1217 C1211 1.429 . S
C1217 C1218 1.523 . S
C1218 C1199 1.368 . S
C1218 C1212 1.368 . S
C1218 C1217 1.523 . S
C1219 C1203 1.429 . S
C1219 C1215 1.429 . S
C1219 C1220 1.523 . S
C1220 C1204 1.368 . S
C1220 C1216 1.368 . S
C1220 C1219 1.523 . S
H1221 C1196 0.950 . S
H1222 C1198 0.950 . S
H1223 C1199 0.949 . S
H1224 C1201 0.950 . S
H1225 C1203 0.950 . S
C1226 C1227 1.349 . S
C1226 C1228 1.327 . S
C1226 H1251 0.950 . S
C1227 C1226 1.349 . S
C1227 C1243 1.349 . S
C1228 C1226 1.327 . S
C1228 C1247 1.429 . S
C1228 H1252 0.950 . S
C1229 C1246 1.574 . S
C1229 C1248 1.368 . S
C1229 H1253 0.949 . S
H1230 C1234 0.949 . S
C1231 C1232 1.349 . S
C1231 C1233 1.327 . S
C1231 H1254 0.950 . S
C1232 C1231 1.349 . S
C1232 C1244 1.349 . S
C1233 C1231 1.327 . S
C1233 C1249 1.429 . S
C1233 H1255 0.950 . S
C1234 H1230 0.949 . S
C1234 C1242 1.574 . S
C1234 C1250 1.368 . S
H1235 C1243 0.950 . S
H1236 C1241 0.950 . S
H1237 C1242 0.949 . S
H1238 C1244 0.950 . S
H1239 C1245 0.950 . S
H1240 C1246 0.949 . S
C1241 H1236 0.950 . S
C1241 C1243 1.327 . S
C1241 C1247 1.429 . S
C1242 C1234 1.574 . S
C1242 H1237 0.949 . S
C1242 C1248 1.368 . S
C1243 C1227 1.349 . S
C1243 H1235 0.950 . S
C1243 C1241 1.327 . S
C1244 C1232 1.349 . S
C1244 H1238 0.950 . S
C1244 C1245 1.327 . S
C1245 H1239 0.950 . S
C1245 C1244 1.327 . S
C1245 C1249 1.429 . S
C1246 C1229 1.574 . S
C1246 H1240 0.949 . S
C1246 C1250 1.368 . S
C1247 C1228 1.429 . S
C1247 C1241 1.429 . S
C1247 C1248 1.523 . S
C1248 C1229 1.368 . S
C1248 C1242 1.368 . S
C1248 C1247 1.523 . S
C1249 C1233 1.429 . S
C1249 C1245 1.429 . S
C1249 C1250 1.523 . S
C1250 C1234 1.368 . S
C1250 C1246 1.368 . S
C1250 C1249 1.523 . S
H1251 C1226 0.950 . S
H1252 C1228 0.950 . S
H1253 C1229 0.949 . S
H1254 C1231 0.950 . S
H1255 C1233 0.950 . S
C1256 C1257 1.349 . S
C1256 C1258 1.327 . S
C1256 H1281 0.950 . S
C1257 C1256 1.349 . S
C1257 C1273 1.349 . S
C1258 C1256 1.327 . S
C1258 C1277 1.429 . S
C1258 H1282 0.950 . S
C1259 C1276 1.574 . S
C1259 C1278 1.368 . S
C1259 H1283 0.949 . S
H1260 C1264 0.949 . S
C1261 C1262 1.349 . S
C1261 C1263 1.327 . S
C1261 H1284 0.950 . S
C1262 C1261 1.349 . S
C1262 C1274 1.349 . S
C1263 C1261 1.327 . S
C1263 C1279 1.429 . S
C1263 H1285 0.950 . S
C1264 H1260 0.949 . S
C1264 C1272 1.574 . S
C1264 C1280 1.368 . S
H1265 C1273 0.950 . S
H1266 C1271 0.950 . S
H1267 C1272 0.949 . S
H1268 C1274 0.950 . S
H1269 C1275 0.950 . S
H1270 C1276 0.949 . S
C1271 H1266 0.950 . S
C1271 C1273 1.327 . S
C1271 C1277 1.429 . S
C1272 C1264 1.574 . S
C1272 H1267 0.949 . S
C1272 C1278 1.368 . S
C1273 C1257 1.349 . S
C1273 H1265 0.950 . S
C1273 C1271 1.327 . S
C1274 C1262 1.349 . S
C1274 H1268 0.950 . S
C1274 C1275 1.327 . S
C1275 H1269 0.950 . S
C1275 C1274 1.327 . S
C1275 C1279 1.429 . S
C1276 C1259 1.574 . S
C1276 H1270 0.949 . S
C1276 C1280 1.368 . S
C1277 C1258 1.429 . S
C1277 C1271 1.429 . S
C1277 C1278 1.523 . S
C1278 C1259 1.368 . S
C1278 C1272 1.368 . S
C1278 C1277 1.523 . S
C1279 C1263 1.429 . S
C1279 C1275 1.429 . S
C1279 C1280 1.523 . S
C1280 C1264 1.368 . S
C1280 C1276 1.368 . S
C1280 C1279 1.523 . S
H1281 C1256 0.950 . S
H1282 C1258 0.950 . S
H1283 C1259 0.949 . S
H1284 C1261 0.950 . S
H1285 C1263 0.950 . S
C1286 C1287 1.349 . S
C1286 C1288 1.327 . S
C1286 H1311 0.950 . S
C1287 C1286 1.349 . S
C1287 C1303 1.349 . S
C1288 C1286 1.327 . S
C1288 C1307 1.429 . S
C1288 H1312 0.950 . S
C1289 C1306 1.574 . S
C1289 C1308 1.368 . S
C1289 H1313 0.949 . S
H1290 C1294 0.949 . S
C1291 C1292 1.349 . S
C1291 C1293 1.327 . S
C1291 H1314 0.950 . S
C1292 C1291 1.349 . S
C1292 C1304 1.349 . S
C1293 C1291 1.327 . S
C1293 C1309 1.429 . S
C1293 H1315 0.950 . S
C1294 H1290 0.949 . S
C1294 C1302 1.574 . S
C1294 C1310 1.368 . S
H1295 C1303 0.950 . S
H1296 C1301 0.950 . S
H1297 C1302 0.949 . S
H1298 C1304 0.950 . S
H1299 C1305 0.950 . S
H1300 C1306 0.949 . S
C1301 H1296 0.950 . S
C1301 C1303 1.327 . S
C1301 C1307 1.429 . S
C1302 C1294 1.574 . S
C1302 H1297 0.949 . S
C1302 C1308 1.368 . S
C1303 C1287 1.349 . S
C1303 H1295 0.950 . S
C1303 C1301 1.327 . S
C1304 C1292 1.349 . S
C1304 H1298 0.950 . S
C1304 C1305 1.327 . S
C1305 H1299 0.950 . S
C1305 C1304 1.327 . S
C1305 C1309 1.429 . S
C1306 C1289 1.574 . S
C1306 H1300 0.949 . S
C1306 C1310 1.368 . S
C1307 C1288 1.429 . S
C1307 C1301 1.429 . S
C1307 C1308 1.523 . S
C1308 C1289 1.368 . S
C1308 C1302 1.368 . S
C1308 C1307 1.523 . S
C1309 C1293 1.429 . S
C1309 C1305 1.429 . S
C1309 C1310 1.523 . S
C1310 C1294 1.368 . S
C1310 C1306 1.368 . S
C1310 C1309 1.523 . S
H1311 C1286 0.950 . S
H1312 C1288 0.950 . S
H1313 C1289 0.949 . S
H1314 C1291 0.950 . S
H1315 C1293 0.950 . S
C1316 C1317 1.349 . S
C1316 C1318 1.327 . S
C1316 H1341 0.950 . S
C1317 C1316 1.349 . S
C1317 C1333 1.349 . S
C1318 C1316 1.327 . S
C1318 C1337 1.429 . S
C1318 H1342 0.950 . S
C1319 C1336 1.574 . S
C1319 C1338 1.368 . S
C1319 H1343 0.949 . S
H1320 C1324 0.949 . S
C1321 C1322 1.349 . S
C1321 C1323 1.327 . S
C1321 H1344 0.950 . S
C1322 C1321 1.349 . S
C1322 C1334 1.349 . S
C1323 C1321 1.327 . S
C1323 C1339 1.429 . S
C1323 H1345 0.950 . S
C1324 H1320 0.949 . S
C1324 C1332 1.574 . S
C1324 C1340 1.368 . S
H1325 C1333 0.950 . S
H1326 C1331 0.950 . S
H1327 C1332 0.949 . S
H1328 C1334 0.950 . S
H1329 C1335 0.950 . S
H1330 C1336 0.949 . S
C1331 H1326 0.950 . S
C1331 C1333 1.327 . S
C1331 C1337 1.429 . S
C1332 C1324 1.574 . S
C1332 H1327 0.949 . S
C1332 C1338 1.368 . S
C1333 C1317 1.349 . S
C1333 H1325 0.950 . S
C1333 C1331 1.327 . S
C1334 C1322 1.349 . S
C1334 H1328 0.950 . S
C1334 C1335 1.327 . S
C1335 H1329 0.950 . S
C1335 C1334 1.327 . S
C1335 C1339 1.429 . S
C1336 C1319 1.574 . S
C1336 H1330 0.949 . S
C1336 C1340 1.368 . S
C1337 C1318 1.429 . S
C1337 C1331 1.429 . S
C1337 C1338 1.523 . S
C1338 C1319 1.368 . S
C1338 C1332 1.368 . S
C1338 C1337 1.523 . S
C1339 C1323 1.429 . S
C1339 C1335 1.429 . S
C1339 C1340 1.523 . S
C1340 C1324 1.368 . S
C1340 C1336 1.368 . S
C1340 C1339 1.523 . S
H1341 C1316 0.950 . S
H1342 C1318 0.950 . S
H1343 C1319 0.949 . S
H1344 C1321 0.950 . S
H1345 C1323 0.950 . S
C1346 C1347 1.349 . S
C1346 C1348 1.327 . S
C1346 H1371 0.950 . S
C1347 C1346 1.349 . S
C1347 C1363 1.349 . S
C1348 C1346 1.327 . S
C1348 C1367 1.429 . S
C1348 H1372 0.950 . S
C1349 C1366 1.574 . S
C1349 C1368 1.368 . S
C1349 H1373 0.949 . S
H1350 C1354 0.949 . S
C1351 C1352 1.349 . S
C1351 C1353 1.327 . S
C1351 H1374 0.950 . S
C1352 C1351 1.349 . S
C1352 C1364 1.349 . S
C1353 C1351 1.327 . S
C1353 C1369 1.429 . S
C1353 H1375 0.950 . S
C1354 H1350 0.949 . S
C1354 C1362 1.574 . S
C1354 C1370 1.368 . S
H1355 C1363 0.950 . S
H1356 C1361 0.950 . S
H1357 C1362 0.949 . S
H1358 C1364 0.950 . S
H1359 C1365 0.950 . S
H1360 C1366 0.949 . S
C1361 H1356 0.950 . S
C1361 C1363 1.327 . S
C1361 C1367 1.429 . S
C1362 C1354 1.574 . S
C1362 H1357 0.949 . S
C1362 C1368 1.368 . S
C1363 C1347 1.349 . S
C1363 H1355 0.950 . S
C1363 C1361 1.327 . S
C1364 C1352 1.349 . S
C1364 H1358 0.950 . S
C1364 C1365 1.327 . S
C1365 H1359 0.950 . S
C1365 C1364 1.327 . S
C1365 C1369 1.429 . S
C1366 C1349 1.574 . S
C1366 H1360 0.949 . S
C1366 C1370 1.368 . S
C1367 C1348 1.429 . S
C1367 C1361 1.429 . S
C1367 C1368 1.523 . S
C1368 C1349 1.368 . S
C1368 C1362 1.368 . S
C1368 C1367 1.523 . S
C1369 C1353 1.429 . S
C1369 C1365 1.429 . S
C1369 C1370 1.523 . S
C1370 C1354 1.368 . S
C1370 C1366 1.368 . S
C1370 C1369 1.523 . S
H1371 C1346 0.950 . S
H1372 C1348 0.950 . S
H1373 C1349 0.949 . S
H1374 C1351 0.950 . S
H1375 C1353 0.950 . S
C1376 C1377 1.349 . S
C1376 C1378 1.327 . S
C1376 H1401 0.950 . S
C1377 C1376 1.349 . S
C1377 C1393 1.349 . S
C1378 C1376 1.327 . S
C1378 C1397 1.429 . S
C1378 H1402 0.950 . S
C1379 C1396 1.574 . S
C1379 C1398 1.368 . S
C1379 H1403 0.949 . S
H1380 C1384 0.949 . S
C1381 C1382 1.349 . S
C1381 C1383 1.327 . S
C1381 H1404 0.950 . S
C1382 C1381 1.349 . S
C1382 C1394 1.349 . S
C1383 C1381 1.327 . S
C1383 C1399 1.429 . S
C1383 H1405 0.950 . S
C1384 H1380 0.949 . S
C1384 C1392 1.574 . S
C1384 C1400 1.368 . S
H1385 C1393 0.950 . S
H1386 C1391 0.950 . S
H1387 C1392 0.949 . S
H1388 C1394 0.950 . S
H1389 C1395 0.950 . S
H1390 C1396 0.949 . S
C1391 H1386 0.950 . S
C1391 C1393 1.327 . S
C1391 C1397 1.429 . S
C1392 C1384 1.574 . S
C1392 H1387 0.949 . S
C1392 C1398 1.368 . S
C1393 C1377 1.349 . S
C1393 H1385 0.950 . S
C1393 C1391 1.327 . S
C1394 C1382 1.349 . S
C1394 H1388 0.950 . S
C1394 C1395 1.327 . S
C1395 H1389 0.950 . S
C1395 C1394 1.327 . S
C1395 C1399 1.429 . S
C1396 C1379 1.574 . S
C1396 H1390 0.949 . S
C1396 C1400 1.368 . S
C1397 C1378 1.429 . S
C1397 C1391 1.429 . S
C1397 C1398 1.523 . S
C1398 C1379 1.368 . S
C1398 C1392 1.368 . S
C1398 C1397 1.523 . S
C1399 C1383 1.429 . S
C1399 C1395 1.429 . S
C1399 C1400 1.523 . S
C1400 C1384 1.368 . S
C1400 C1396 1.368 . S
C1400 C1399 1.523 . S
H1401 C1376 0.950 . S
H1402 C1378 0.950 . S
H1403 C1379 0.949 . S
H1404 C1381 0.950 . S
H1405 C1383 0.950 . S
C1406 C1407 1.349 . S
C1406 C1408 1.327 . S
C1406 H1431 0.950 . S
C1407 C1406 1.349 . S
C1407 C1423 1.349 . S
C1408 C1406 1.327 . S
C1408 C1427 1.429 . S
C1408 H1432 0.950 . S
C1409 C1426 1.574 . S
C1409 C1428 1.368 . S
C1409 H1433 0.949 . S
H1410 C1414 0.949 . S
C1411 C1412 1.349 . S
C1411 C1413 1.327 . S
C1411 H1434 0.950 . S
C1412 C1411 1.349 . S
C1412 C1424 1.349 . S
C1413 C1411 1.327 . S
C1413 C1429 1.429 . S
C1413 H1435 0.950 . S
C1414 H1410 0.949 . S
C1414 C1422 1.574 . S
C1414 C1430 1.368 . S
H1415 C1423 0.950 . S
H1416 C1421 0.950 . S
H1417 C1422 0.949 . S
H1418 C1424 0.950 . S
H1419 C1425 0.950 . S
H1420 C1426 0.949 . S
C1421 H1416 0.950 . S
C1421 C1423 1.327 . S
C1421 C1427 1.429 . S
C1422 C1414 1.574 . S
C1422 H1417 0.949 . S
C1422 C1428 1.368 . S
C1423 C1407 1.349 . S
C1423 H1415 0.950 . S
C1423 C1421 1.327 . S
C1424 C1412 1.349 . S
C1424 H1418 0.950 . S
C1424 C1425 1.327 . S
C1425 H1419 0.950 . S
C1425 C1424 1.327 . S
C1425 C1429 1.429 . S
C1426 C1409 1.574 . S
C1426 H1420 0.949 . S
C1426 C1430 1.368 . S
C1427 C1408 1.429 . S
C1427 C1421 1.429 . S
C1427 C1428 1.523 . S
C1428 C1409 1.368 . S
C1428 C1422 1.368 . S
C1428 C1427 1.523 . S
C1429 C1413 1.429 . S
C1429 C1425 1.429 . S
C1429 C1430 1.523 . S
C1430 C1414 1.368 . S
C1430 C1426 1.368 . S
C1430 C1429 1.523 . S
H1431 C1406 0.950 . S
H1432 C1408 0.950 . S
H1433 C1409 0.949 . S
H1434 C1411 0.950 . S
H1435 C1413 0.950 . S
C1436 C1437 1.349 . S
C1436 C1438 1.327 . S
C1436 H1461 0.950 . S
C1437 C1436 1.349 . S
C1437 C1453 1.349 . S
C1438 C1436 1.327 . S
C1438 C1457 1.429 . S
C1438 H1462 0.950 . S
C1439 C1456 1.574 . S
C1439 C1458 1.368 . S
C1439 H1463 0.949 . S
H1440 C1444 0.949 . S
C1441 C1442 1.349 . S
C1441 C1443 1.327 . S
C1441 H1464 0.950 . S
C1442 C1441 1.349 . S
C1442 C1454 1.349 . S
C1443 C1441 1.327 . S
C1443 C1459 1.429 . S
C1443 H1465 0.950 . S
C1444 H1440 0.949 . S
C1444 C1452 1.574 . S
C1444 C1460 1.368 . S
H1445 C1453 0.950 . S
H1446 C1451 0.950 . S
H1447 C1452 0.949 . S
H1448 C1454 0.950 . S
H1449 C1455 0.950 . S
H1450 C1456 0.949 . S
C1451 H1446 0.950 . S
C1451 C1453 1.327 . S
C1451 C1457 1.429 . S
C1452 C1444 1.574 . S
C1452 H1447 0.949 . S
C1452 C1458 1.368 . S
C1453 C1437 1.349 . S
C1453 H1445 0.950 . S
C1453 C1451 1.327 . S
C1454 C1442 1.349 . S
C1454 H1448 0.950 . S
C1454 C1455 1.327 . S
C1455 H1449 0.950 . S
C1455 C1454 1.327 . S
C1455 C1459 1.429 . S
C1456 C1439 1.574 . S
C1456 H1450 0.949 . S
C1456 C1460 1.368 . S
C1457 C1438 1.429 . S
C1457 C1451 1.429 . S
C1457 C1458 1.523 . S
C1458 C1439 1.368 . S
C1458 C1452 1.368 . S
C1458 C1457 1.523 . S
C1459 C1443 1.429 . S
C1459 C1455 1.429 . S
C1459 C1460 1.523 . S
C1460 C1444 1.368 . S
C1460 C1456 1.368 . S
C1460 C1459 1.523 . S
H1461 C1436 0.950 . S
H1462 C1438 0.950 . S
H1463 C1439 0.949 . S
H1464 C1441 0.950 . S
H1465 C1443 0.950 . S
C1466 C1467 1.349 . S
C1466 C1468 1.327 . S
C1466 H1491 0.950 . S
C1467 C1466 1.349 . S
C1467 C1483 1.349 . S
C1468 C1466 1.327 . S
C1468 C1487 1.429 . S
C1468 H1492 0.950 . S
C1469 C1486 1.574 . S
C1469 C1488 1.368 . S
C1469 H1493 0.949 . S
H1470 C1474 0.949 . S
C1471 C1472 1.349 . S
C1471 C1473 1.327 . S
C1471 H1494 0.950 . S
C1472 C1471 1.349 . S
C1472 C1484 1.349 . S
C1473 C1471 1.327 . S
C1473 C1489 1.429 . S
C1473 H1495 0.950 . S
C1474 H1470 0.949 . S
C1474 C1482 1.574 . S
C1474 C1490 1.368 . S
H1475 C1483 0.950 . S
H1476 C1481 0.950 . S
H1477 C1482 0.949 . S
H1478 C1484 0.950 . S
H1479 C1485 0.950 . S
H1480 C1486 0.949 . S
C1481 H1476 0.950 . S
C1481 C1483 1.327 . S
C1481 C1487 1.429 . S
C1482 C1474 1.574 . S
C1482 H1477 0.949 . S
C1482 C1488 1.368 . S
C1483 C1467 1.349 . S
C1483 H1475 0.950 . S
C1483 C1481 1.327 . S
C1484 C1472 1.349 . S
C1484 H1478 0.950 . S
C1484 C1485 1.327 . S
C1485 H1479 0.950 . S
C1485 C1484 1.327 . S
C1485 C1489 1.429 . S
C1486 C1469 1.574 . S
C1486 H1480 0.949 . S
C1486 C1490 1.368 . S
C1487 C1468 1.429 . S
C1487 C1481 1.429 . S
C1487 C1488 1.523 . S
C1488 C1469 1.368 . S
C1488 C1482 1.368 . S
C1488 C1487 1.523 . S
C1489 C1473 1.429 . S
C1489 C1485 1.429 . S
C1489 C1490 1.523 . S
C1490 C1474 1.368 . S
C1490 C1486 1.368 . S
C1490 C1489 1.523 . S
H1491 C1466 0.950 . S
H1492 C1468 0.950 . S
H1493 C1469 0.949 . S
H1494 C1471 0.950 . S
H1495 C1473 0.950 . S
C1496 C1497 1.349 . S
C1496 C1498 1.327 . S
C1496 H1521 0.950 . S
C1497 C1496 1.349 . S
C1497 C1513 1.349 . S
C1498 C1496 1.327 . S
C1498 C1517 1.429 . S
C1498 H1522 0.950 . S
C1499 C1516 1.574 . S
C1499 C1518 1.368 . S
C1499 H1523 0.949 . S
H1500 C1504 0.949 . S
C1501 C1502 1.349 . S
C1501 C1503 1.327 . S
C1501 H1524 0.950 . S
C1502 C1501 1.349 . S
C1502 C1514 1.349 . S
C1503 C1501 1.327 . S
C1503 C1519 1.429 . S
C1503 H1525 0.950 . S
C1504 H1500 0.949 . S
C1504 C1512 1.574 . S
C1504 C1520 1.368 . S
H1505 C1513 0.950 . S
H1506 C1511 0.950 . S
H1507 C1512 0.949 . S
H1508 C1514 0.950 . S
H1509 C1515 0.950 . S
H1510 C1516 0.949 . S
C1511 H1506 0.950 . S
C1511 C1513 1.327 . S
C1511 C1517 1.429 . S
C1512 C1504 1.574 . S
C1512 H1507 0.949 . S
C1512 C1518 1.368 . S
C1513 C1497 1.349 . S
C1513 H1505 0.950 . S
C1513 C1511 1.327 . S
C1514 C1502 1.349 . S
C1514 H1508 0.950 . S
C1514 C1515 1.327 . S
C1515 H1509 0.950 . S
C1515 C1514 1.327 . S
C1515 C1519 1.429 . S
C1516 C1499 1.574 . S
C1516 H1510 0.949 . S
C1516 C1520 1.368 . S
C1517 C1498 1.429 . S
C1517 C1511 1.429 . S
C1517 C1518 1.523 . S
C1518 C1499 1.368 . S
C1518 C1512 1.368 . S
C1518 C1517 1.523 . S
C1519 C1503 1.429 . S
C1519 C1515 1.429 . S
C1519 C1520 1.523 . S
C1520 C1504 1.368 . S
C1520 C1516 1.368 . S
C1520 C1519 1.523 . S
H1521 C1496 0.950 . S
H1522 C1498 0.950 . S
H1523 C1499 0.949 . S
H1524 C1501 0.950 . S
H1525 C1503 0.950 . S
C1526 C1527 1.349 . S
C1526 C1528 1.327 . S
C1526 H1551 0.950 . S
C1527 C1526 1.349 . S
C1527 C1543 1.349 . S
C1528 C1526 1.327 . S
C1528 C1547 1.429 . S
C1528 H1552 0.950 . S
C1529 C1546 1.574 . S
C1529 C1548 1.368 . S
C1529 H1553 0.949 . S
H1530 C1534 0.949 . S
C1531 C1532 1.349 . S
C1531 C1533 1.327 . S
C1531 H1554 0.950 . S
C1532 C1531 1.349 . S
C1532 C1544 1.349 . S
C1533 C1531 1.327 . S
C1533 C1549 1.429 . S
C1533 H1555 0.950 . S
C1534 H1530 0.949 . S
C1534 C1542 1.574 . S
C1534 C1550 1.368 . S
H1535 C1543 0.950 . S
H1536 C1541 0.950 . S
H1537 C1542 0.949 . S
H1538 C1544 0.950 . S
H1539 C1545 0.950 . S
H1540 C1546 0.949 . S
C1541 H1536 0.950 . S
C1541 C1543 1.327 . S
C1541 C1547 1.429 . S
C1542 C1534 1.574 . S
C1542 H1537 0.949 . S
C1542 C1548 1.368 . S
C1543 C1527 1.349 . S
C1543 H1535 0.950 . S
C1543 C1541 1.327 . S
C1544 C1532 1.349 . S
C1544 H1538 0.950 . S
C1544 C1545 1.327 . S
C1545 H1539 0.950 . S
C1545 C1544 1.327 . S
C1545 C1549 1.429 . S
C1546 C1529 1.574 . S
C1546 H1540 0.949 . S
C1546 C1550 1.368 . S
C1547 C1528 1.429 . S
C1547 C1541 1.429 . S
C1547 C1548 1.523 . S
C1548 C1529 1.368 . S
C1548 C1542 1.368 . S
C1548 C1547 1.523 . S
C1549 C1533 1.429 . S
C1549 C1545 1.429 . S
C1549 C1550 1.523 . S
C1550 C1534 1.368 . S
C1550 C1546 1.368 . S
C1550 C1549 1.523 . S
H1551 C1526 0.950 . S
H1552 C1528 0.950 . S
H1553 C1529 0.949 . S
H1554 C1531 0.950 . S
H1555 C1533 0.950 . S
C1556 C1557 1.349 . S
C1556 C1558 1.327 . S
C1556 H1581 0.950 . S
C1557 C1556 1.349 . S
C1557 C1573 1.349 . S
C1558 C1556 1.327 . S
C1558 C1577 1.429 . S
C1558 H1582 0.950 . S
C1559 C1576 1.574 . S
C1559 C1578 1.368 . S
C1559 H1583 0.949 . S
H1560 C1564 0.949 . S
C1561 C1562 1.349 . S
C1561 C1563 1.327 . S
C1561 H1584 0.950 . S
C1562 C1561 1.349 . S
C1562 C1574 1.349 . S
C1563 C1561 1.327 . S
C1563 C1579 1.429 . S
C1563 H1585 0.950 . S
C1564 H1560 0.949 . S
C1564 C1572 1.574 . S
C1564 C1580 1.368 . S
H1565 C1573 0.950 . S
H1566 C1571 0.950 . S
H1567 C1572 0.949 . S
H1568 C1574 0.950 . S
H1569 C1575 0.950 . S
H1570 C1576 0.949 . S
C1571 H1566 0.950 . S
C1571 C1573 1.327 . S
C1571 C1577 1.429 . S
C1572 C1564 1.574 . S
C1572 H1567 0.949 . S
C1572 C1578 1.368 . S
C1573 C1557 1.349 . S
C1573 H1565 0.950 . S
C1573 C1571 1.327 . S
C1574 C1562 1.349 . S
C1574 H1568 0.950 . S
C1574 C1575 1.327 . S
C1575 H1569 0.950 . S
C1575 C1574 1.327 . S
C1575 C1579 1.429 . S
C1576 C1559 1.574 . S
C1576 H1570 0.949 . S
C1576 C1580 1.368 . S
C1577 C1558 1.429 . S
C1577 C1571 1.429 . S
C1577 C1578 1.523 . S
C1578 C1559 1.368 . S
C1578 C1572 1.368 . S
C1578 C1577 1.523 . S
C1579 C1563 1.429 . S
C1579 C1575 1.429 . S
C1579 C1580 1.523 . S
C1580 C1564 1.368 . S
C1580 C1576 1.368 . S
C1580 C1579 1.523 . S
H1581 C1556 0.950 . S
H1582 C1558 0.950 . S
H1583 C1559 0.949 . S
H1584 C1561 0.950 . S
H1585 C1563 0.950 . S
C1586 C1587 1.349 . S
C1586 C1588 1.327 . S
C1586 H1611 0.950 . S
C1587 C1586 1.349 . S
C1587 C1603 1.349 . S
C1588 C1586 1.327 . S
C1588 C1607 1.429 . S
C1588 H1612 0.950 . S
C1589 C1606 1.574 . S
C1589 C1608 1.368 . S
C1589 H1613 0.949 . S
H1590 C1594 0.949 . S
C1591 C1592 1.349 . S
C1591 C1593 1.327 . S
C1591 H1614 0.950 . S
C1592 C1591 1.349 . S
C1592 C1604 1.349 . S
C1593 C1591 1.327 . S
C1593 C1609 1.429 . S
C1593 H1615 0.950 . S
C1594 H1590 0.949 . S
C1594 C1602 1.574 . S
C1594 C1610 1.368 . S
H1595 C1603 0.950 . S
H1596 C1601 0.950 . S
H1597 C1602 0.949 . S
H1598 C1604 0.950 . S
H1599 C1605 0.950 . S
H1600 C1606 0.949 . S
C1601 H1596 0.950 . S
C1601 C1603 1.327 . S
C1601 C1607 1.429 . S
C1602 C1594 1.574 . S
C1602 H1597 0.949 . S
C1602 C1608 1.368 . S
C1603 C1587 1.349 . S
C1603 H1595 0.950 . S
C1603 C1601 1.327 . S
C1604 C1592 1.349 . S
C1604 H1598 0.950 . S
C1604 C1605 1.327 . S
C1605 H1599 0.950 . S
C1605 C1604 1.327 . S
C1605 C1609 1.429 . S
C1606 C1589 1.574 . S
C1606 H1600 0.949 . S
C1606 C1610 1.368 . S
C1607 C1588 1.429 . S
C1607 C1601 1.429 . S
C1607 C1608 1.523 . S
C1608 C1589 1.368 . S
C1608 C1602 1.368 . S
C1608 C1607 1.523 . S
C1609 C1593 1.429 . S
C1609 C1605 1.429 . S
C1609 C1610 1.523 . S
C1610 C1594 1.368 . S
C1610 C1606 1.368 . S
C1610 C1609 1.523 . S
H1611 C1586 0.950 . S
H1612 C1588 0.950 . S
H1613 C1589 0.949 . S
H1614 C1591 0.950 . S
H1615 C1593 0.950 . S
C1616 C1617 1.349 . S
C1616 C1618 1.327 . S
C1616 H1641 0.950 . S
C1617 C1616 1.349 . S
C1617 C1633 1.349 . S
C1618 C1616 1.327 . S
C1618 C1637 1.429 . S
C1618 H1642 0.950 . S
C1619 C1636 1.574 . S
C1619 C1638 1.368 . S
C1619 H1643 0.949 . S
H1620 C1624 0.949 . S
C1621 C1622 1.349 . S
C1621 C1623 1.327 . S
C1621 H1644 0.950 . S
C1622 C1621 1.349 . S
C1622 C1634 1.349 . S
C1623 C1621 1.327 . S
C1623 C1639 1.429 . S
C1623 H1645 0.950 . S
C1624 H1620 0.949 . S
C1624 C1632 1.574 . S
C1624 C1640 1.368 . S
H1625 C1633 0.950 . S
H1626 C1631 0.950 . S
H1627 C1632 0.949 . S
H1628 C1634 0.950 . S
H1629 C1635 0.950 . S
H1630 C1636 0.949 . S
C1631 H1626 0.950 . S
C1631 C1633 1.327 . S
C1631 C1637 1.429 . S
C1632 C1624 1.574 . S
C1632 H1627 0.949 . S
C1632 C1638 1.368 . S
C1633 C1617 1.349 . S
C1633 H1625 0.950 . S
C1633 C1631 1.327 . S
C1634 C1622 1.349 . S
C1634 H1628 0.950 . S
C1634 C1635 1.327 . S
C1635 H1629 0.950 . S
C1635 C1634 1.327 . S
C1635 C1639 1.429 . S
C1636 C1619 1.574 . S
C1636 H1630 0.949 . S
C1636 C1640 1.368 . S
C1637 C1618 1.429 . S
C1637 C1631 1.429 . S
C1637 C1638 1.523 . S
C1638 C1619 1.368 . S
C1638 C1632 1.368 . S
C1638 C1637 1.523 . S
C1639 C1623 1.429 . S
C1639 C1635 1.429 . S
C1639 C1640 1.523 . S
C1640 C1624 1.368 . S
C1640 C1636 1.368 . S
C1640 C1639 1.523 . S
H1641 C1616 0.950 . S
H1642 C1618 0.950 . S
H1643 C1619 0.949 . S
H1644 C1621 0.950 . S
H1645 C1623 0.950 . S
C1646 C1647 1.349 . S
C1646 C1648 1.327 . S
C1646 H1671 0.950 . S
C1647 C1646 1.349 . S
C1647 C1663 1.349 . S
C1648 C1646 1.327 . S
C1648 C1667 1.429 . S
C1648 H1672 0.950 . S
C1649 C1666 1.574 . S
C1649 C1668 1.368 . S
C1649 H1673 0.949 . S
H1650 C1654 0.949 . S
C1651 C1652 1.349 . S
C1651 C1653 1.327 . S
C1651 H1674 0.950 . S
C1652 C1651 1.349 . S
C1652 C1664 1.349 . S
C1653 C1651 1.327 . S
C1653 C1669 1.429 . S
C1653 H1675 0.950 . S
C1654 H1650 0.949 . S
C1654 C1662 1.574 . S
C1654 C1670 1.368 . S
H1655 C1663 0.950 . S
H1656 C1661 0.950 . S
H1657 C1662 0.949 . S
H1658 C1664 0.950 . S
H1659 C1665 0.950 . S
H1660 C1666 0.949 . S
C1661 H1656 0.950 . S
C1661 C1663 1.327 . S
C1661 C1667 1.429 . S
C1662 C1654 1.574 . S
C1662 H1657 0.949 . S
C1662 C1668 1.368 . S
C1663 C1647 1.349 . S
C1663 H1655 0.950 . S
C1663 C1661 1.327 . S
C1664 C1652 1.349 . S
C1664 H1658 0.950 . S
C1664 C1665 1.327 . S
C1665 H1659 0.950 . S
C1665 C1664 1.327 . S
C1665 C1669 1.429 . S
C1666 C1649 1.574 . S
C1666 H1660 0.949 . S
C1666 C1670 1.368 . S
C1667 C1648 1.429 . S
C1667 C1661 1.429 . S
C1667 C1668 1.523 . S
C1668 C1649 1.368 . S
C1668 C1662 1.368 . S
C1668 C1667 1.523 . S
C1669 C1653 1.429 . S
C1669 C1665 1.429 . S
C1669 C1670 1.523 . S
C1670 C1654 1.368 . S
C1670 C1666 1.368 . S
C1670 C1669 1.523 . S
H1671 C1646 0.950 . S
H1672 C1648 0.950 . S
H1673 C1649 0.949 . S
H1674 C1651 0.950 . S
H1675 C1653 0.950 . S
C1676 C1677 1.349 . S
C1676 C1678 1.327 . S
C1676 H1701 0.950 . S
C1677 C1676 1.349 . S
C1677 C1693 1.349 . S
C1678 C1676 1.327 . S
C1678 C1697 1.429 . S
C1678 H1702 0.950 . S
C1679 C1696 1.574 . S
C1679 C1698 1.368 . S
C1679 H1703 0.949 . S
H1680 C1684 0.949 . S
C1681 C1682 1.349 . S
C1681 C1683 1.327 . S
C1681 H1704 0.950 . S
C1682 C1681 1.349 . S
C1682 C1694 1.349 . S
C1683 C1681 1.327 . S
C1683 C1699 1.429 . S
C1683 H1705 0.950 . S
C1684 H1680 0.949 . S
C1684 C1692 1.574 . S
C1684 C1700 1.368 . S
H1685 C1693 0.950 . S
H1686 C1691 0.950 . S
H1687 C1692 0.949 . S
H1688 C1694 0.950 . S
H1689 C1695 0.950 . S
H1690 C1696 0.949 . S
C1691 H1686 0.950 . S
C1691 C1693 1.327 . S
C1691 C1697 1.429 . S
C1692 C1684 1.574 . S
C1692 H1687 0.949 . S
C1692 C1698 1.368 . S
C1693 C1677 1.349 . S
C1693 H1685 0.950 . S
C1693 C1691 1.327 . S
C1694 C1682 1.349 . S
C1694 H1688 0.950 . S
C1694 C1695 1.327 . S
C1695 H1689 0.950 . S
C1695 C1694 1.327 . S
C1695 C1699 1.429 . S
C1696 C1679 1.574 . S
C1696 H1690 0.949 . S
C1696 C1700 1.368 . S
C1697 C1678 1.429 . S
C1697 C1691 1.429 . S
C1697 C1698 1.523 . S
C1698 C1679 1.368 . S
C1698 C1692 1.368 . S
C1698 C1697 1.523 . S
C1699 C1683 1.429 . S
C1699 C1695 1.429 . S
C1699 C1700 1.523 . S
C1700 C1684 1.368 . S
C1700 C1696 1.368 . S
C1700 C1699 1.523 . S
H1701 C1676 0.950 . S
H1702 C1678 0.950 . S
H1703 C1679 0.949 . S
H1704 C1681 0.950 . S
H1705 C1683 0.950 . S
C1706 C1707 1.349 . S
C1706 C1708 1.327 . S
C1706 H1731 0.950 . S
C1707 C1706 1.349 . S
C1707 C1723 1.349 . S
C1708 C1706 1.327 . S
C1708 C1727 1.429 . S
C1708 H1732 0.950 . S
C1709 C1726 1.574 . S
C1709 C1728 1.368 . S
C1709 H1733 0.949 . S
H1710 C1714 0.949 . S
C1711 C1712 1.349 . S
C1711 C1713 1.327 . S
C1711 H1734 0.950 . S
C1712 C1711 1.349 . S
C1712 C1724 1.349 . S
C1713 C1711 1.327 . S
C1713 C1729 1.429 . S
C1713 H1735 0.950 . S
C1714 H1710 0.949 . S
C1714 C1722 1.574 . S
C1714 C1730 1.368 . S
H1715 C1723 0.950 . S
H1716 C1721 0.950 . S
H1717 C1722 0.949 . S
H1718 C1724 0.950 . S
H1719 C1725 0.950 . S
H1720 C1726 0.949 . S
C1721 H1716 0.950 . S
C1721 C1723 1.327 . S
C1721 C1727 1.429 . S
C1722 C1714 1.574 . S
C1722 H1717 0.949 . S
C1722 C1728 1.368 . S
C1723 C1707 1.349 . S
C1723 H1715 0.950 . S
C1723 C1721 1.327 . S
C1724 C1712 1.349 . S
C1724 H1718 0.950 . S
C1724 C1725 1.327 . S
C1725 H1719 0.950 . S
C1725 C1724 1.327 . S
C1725 C1729 1.429 . S
C1726 C1709 1.574 . S
C1726 H1720 0.949 . S
C1726 C1730 1.368 . S
C1727 C1708 1.429 . S
C1727 C1721 1.429 . S
C1727 C1728 1.523 . S
C1728 C1709 1.368 . S
C1728 C1722 1.368 . S
C1728 C1727 1.523 . S
C1729 C1713 1.429 . S
C1729 C1725 1.429 . S
C1729 C1730 1.523 . S
C1730 C1714 1.368 . S
C1730 C1726 1.368 . S
C1730 C1729 1.523 . S
H1731 C1706 0.950 . S
H1732 C1708 0.950 . S
H1733 C1709 0.949 . S
H1734 C1711 0.950 . S
H1735 C1713 0.950 . S
C1736 C1737 1.349 . S
C1736 C1738 1.327 . S
C1736 H1761 0.950 . S
C1737 C1736 1.349 . S
C1737 C1753 1.349 . S
C1738 C1736 1.327 . S
C1738 C1757 1.429 . S
C1738 H1762 0.950 . S
C1739 C1756 1.574 . S
C1739 C1758 1.368 . S
C1739 H1763 0.949 . S
H1740 C1744 0.949 . S
C1741 C1742 1.349 . S
C1741 C1743 1.327 . S
C1741 H1764 0.950 . S
C1742 C1741 1.349 . S
C1742 C1754 1.349 . S
C1743 C1741 1.327 . S
C1743 C1759 1.429 . S
C1743 H1765 0.950 . S
C1744 H1740 0.949 . S
C1744 C1752 1.574 . S
C1744 C1760 1.368 . S
H1745 C1753 0.950 . S
H1746 C1751 0.950 . S
H1747 C1752 0.949 . S
H1748 C1754 0.950 . S
H1749 C1755 0.950 . S
H1750 C1756 0.949 . S
C1751 H1746 0.950 . S
C1751 C1753 1.327 . S
C1751 C1757 1.429 . S
C1752 C1744 1.574 . S
C1752 H1747 0.949 . S
C1752 C1758 1.368 . S
C1753 C1737 1.349 . S
C1753 H1745 0.950 . S
C1753 C1751 1.327 . S
C1754 C1742 1.349 . S
C1754 H1748 0.950 . S
C1754 C1755 1.327 . S
C1755 H1749 0.950 . S
C1755 C1754 1.327 . S
C1755 C1759 1.429 . S
C1756 C1739 1.574 . S
C1756 H1750 0.949 . S
C1756 C1760 1.368 . S
C1757 C1738 1.429 . S
C1757 C1751 1.429 . S
C1757 C1758 1.523 . S
C1758 C1739 1.368 . S
C1758 C1752 1.368 . S
C1758 C1757 1.523 . S
C1759 C1743 1.429 . S
C1759 C1755 1.429 . S
C1759 C1760 1.523 . S
C1760 C1744 1.368 . S
C1760 C1756 1.368 . S
C1760 C1759 1.523 . S
H1761 C1736 0.950 . S
H1762 C1738 0.950 . S
H1763 C1739 0.949 . S
H1764 C1741 0.950 . S
H1765 C1743 0.950 . S
C1766 C1767 1.349 . S
C1766 C1768 1.327 . S
C1766 H1791 0.950 . S
C1767 C1766 1.349 . S
C1767 C1783 1.349 . S
C1768 C1766 1.327 . S
C1768 C1787 1.429 . S
C1768 H1792 0.950 . S
C1769 C1786 1.574 . S
C1769 C1788 1.368 . S
C1769 H1793 0.949 . S
H1770 C1774 0.949 . S
C1771 C1772 1.349 . S
C1771 C1773 1.327 . S
C1771 H1794 0.950 . S
C1772 C1771 1.349 . S
C1772 C1784 1.349 . S
C1773 C1771 1.327 . S
C1773 C1789 1.429 . S
C1773 H1795 0.950 . S
C1774 H1770 0.949 . S
C1774 C1782 1.574 . S
C1774 C1790 1.368 . S
H1775 C1783 0.950 . S
H1776 C1781 0.950 . S
H1777 C1782 0.949 . S
H1778 C1784 0.950 . S
H1779 C1785 0.950 . S
H1780 C1786 0.949 . S
C1781 H1776 0.950 . S
C1781 C1783 1.327 . S
C1781 C1787 1.429 . S
C1782 C1774 1.574 . S
C1782 H1777 0.949 . S
C1782 C1788 1.368 . S
C1783 C1767 1.349 . S
C1783 H1775 0.950 . S
C1783 C1781 1.327 . S
C1784 C1772 1.349 . S
C1784 H1778 0.950 . S
C1784 C1785 1.327 . S
C1785 H1779 0.950 . S
C1785 C1784 1.327 . S
C1785 C1789 1.429 . S
C1786 C1769 1.574 . S
C1786 H1780 0.949 . S
C1786 C1790 1.368 . S
C1787 C1768 1.429 . S
C1787 C1781 1.429 . S
C1787 C1788 1.523 . S
C1788 C1769 1.368 . S
C1788 C1782 1.368 . S
C1788 C1787 1.523 . S
C1789 C1773 1.429 . S
C1789 C1785 1.429 . S
C1789 C1790 1.523 . S
C1790 C1774 1.368 . S
C1790 C1786 1.368 . S
C1790 C1789 1.523 . S
H1791 C1766 0.950 . S
H1792 C1768 0.950 . S
H1793 C1769 0.949 . S
H1794 C1771 0.950 . S
H1795 C1773 0.950 . S
C1796 C1797 1.349 . S
C1796 C1798 1.327 . S
C1796 H1821 0.950 . S
C1797 C1796 1.349 . S
C1797 C1813 1.349 . S
C1798 C1796 1.327 . S
C1798 C1817 1.429 . S
C1798 H1822 0.950 . S
C1799 C1816 1.574 . S
C1799 C1818 1.368 . S
C1799 H1823 0.949 . S
H1800 C1804 0.949 . S
C1801 C1802 1.349 . S
C1801 C1803 1.327 . S
C1801 H1824 0.950 . S
C1802 C1801 1.349 . S
C1802 C1814 1.349 . S
C1803 C1801 1.327 . S
C1803 C1819 1.429 . S
C1803 H1825 0.950 . S
C1804 H1800 0.949 . S
C1804 C1812 1.574 . S
C1804 C1820 1.368 . S
H1805 C1813 0.950 . S
H1806 C1811 0.950 . S
H1807 C1812 0.949 . S
H1808 C1814 0.950 . S
H1809 C1815 0.950 . S
H1810 C1816 0.949 . S
C1811 H1806 0.950 . S
C1811 C1813 1.327 . S
C1811 C1817 1.429 . S
C1812 C1804 1.574 . S
C1812 H1807 0.949 . S
C1812 C1818 1.368 . S
C1813 C1797 1.349 . S
C1813 H1805 0.950 . S
C1813 C1811 1.327 . S
C1814 C1802 1.349 . S
C1814 H1808 0.950 . S
C1814 C1815 1.327 . S
C1815 H1809 0.950 . S
C1815 C1814 1.327 . S
C1815 C1819 1.429 . S
C1816 C1799 1.574 . S
C1816 H1810 0.949 . S
C1816 C1820 1.368 . S
C1817 C1798 1.429 . S
C1817 C1811 1.429 . S
C1817 C1818 1.523 . S
C1818 C1799 1.368 . S
C1818 C1812 1.368 . S
C1818 C1817 1.523 . S
C1819 C1803 1.429 . S
C1819 C1815 1.429 . S
C1819 C1820 1.523 . S
C1820 C1804 1.368 . S
C1820 C1816 1.368 . S
C1820 C1819 1.523 . S
H1821 C1796 0.950 . S
H1822 C1798 0.950 . S
H1823 C1799 0.949 . S
H1824 C1801 0.950 . S
H1825 C1803 0.950 . S
C1826 C1827 1.349 . S
C1826 C1828 1.327 . S
C1826 H1851 0.950 . S
C1827 C1826 1.349 . S
C1827 C1843 1.349 . S
C1828 C1826 1.327 . S
C1828 C1847 1.429 . S
C1828 H1852 0.950 . S
C1829 C1846 1.574 . S
C1829 C1848 1.368 . S
C1829 H1853 0.949 . S
H1830 C1834 0.949 . S
C1831 C1832 1.349 . S
C1831 C1833 1.327 . S
C1831 H1854 0.950 . S
C1832 C1831 1.349 . S
C1832 C1844 1.349 . S
C1833 C1831 1.327 . S
C1833 C1849 1.429 . S
C1833 H1855 0.950 . S
C1834 H1830 0.949 . S
C1834 C1842 1.574 . S
C1834 C1850 1.368 . S
H1835 C1843 0.950 . S
H1836 C1841 0.950 . S
H1837 C1842 0.949 . S
H1838 C1844 0.950 . S
H1839 C1845 0.950 . S
H1840 C1846 0.949 . S
C1841 H1836 0.950 . S
C1841 C1843 1.327 . S
C1841 C1847 1.429 . S
C1842 C1834 1.574 . S
C1842 H1837 0.949 . S
C1842 C1848 1.368 . S
C1843 C1827 1.349 . S
C1843 H1835 0.950 . S
C1843 C1841 1.327 . S
C1844 C1832 1.349 . S
C1844 H1838 0.950 . S
C1844 C1845 1.327 . S
C1845 H1839 0.950 . S
C1845 C1844 1.327 . S
C1845 C1849 1.429 . S
C1846 C1829 1.574 . S
C1846 H1840 0.949 . S
C1846 C1850 1.368 . S
C1847 C1828 1.429 . S
C1847 C1841 1.429 . S
C1847 C1848 1.523 . S
C1848 C1829 1.368 . S
C1848 C1842 1.368 . S
C1848 C1847 1.523 . S
C1849 C1833 1.429 . S
C1849 C1845 1.429 . S
C1849 C1850 1.523 . S
C1850 C1834 1.368 . S
C1850 C1846 1.368 . S
C1850 C1849 1.523 . S
H1851 C1826 0.950 . S
H1852 C1828 0.950 . S
H1853 C1829 0.949 . S
H1854 C1831 0.950 . S
H1855 C1833 0.950 . S
C1856 C1857 1.349 . S
C1856 C1858 1.327 . S
C1856 H1881 0.950 . S
C1857 C1856 1.349 . S
C1857 C1873 1.349 . S
C1858 C1856 1.327 . S
C1858 C1877 1.429 . S
C1858 H1882 0.950 . S
C1859 C1876 1.574 . S
C1859 C1878 1.368 . S
C1859 H1883 0.949 . S
H1860 C1864 0.949 . S
C1861 C1862 1.349 . S
C1861 C1863 1.327 . S
C1861 H1884 0.950 . S
C1862 C1861 1.349 . S
C1862 C1874 1.349 . S
C1863 C1861 1.327 . S
C1863 C1879 1.429 . S
C1863 H1885 0.950 . S
C1864 H1860 0.949 . S
C1864 C1872 1.574 . S
C1864 C1880 1.368 . S
H1865 C1873 0.950 . S
H1866 C1871 0.950 . S
H1867 C1872 0.949 . S
H1868 C1874 0.950 . S
H1869 C1875 0.950 . S
H1870 C1876 0.949 . S
C1871 H1866 0.950 . S
C1871 C1873 1.327 . S
C1871 C1877 1.429 . S
C1872 C1864 1.574 . S
C1872 H1867 0.949 . S
C1872 C1878 1.368 . S
C1873 C1857 1.349 . S
C1873 H1865 0.950 . S
C1873 C1871 1.327 . S
C1874 C1862 1.349 . S
C1874 H1868 0.950 . S
C1874 C1875 1.327 . S
C1875 H1869 0.950 . S
C1875 C1874 1.327 . S
C1875 C1879 1.429 . S
C1876 C1859 1.574 . S
C1876 H1870 0.949 . S
C1876 C1880 1.368 . S
C1877 C1858 1.429 . S
C1877 C1871 1.429 . S
C1877 C1878 1.523 . S
C1878 C1859 1.368 . S
C1878 C1872 1.368 . S
C1878 C1877 1.523 . S
C1879 C1863 1.429 . S
C1879 C1875 1.429 . S
C1879 C1880 1.523 . S
C1880 C1864 1.368 . S
C1880 C1876 1.368 . S
C1880 C1879 1.523 . S
H1881 C1856 0.950 . S
H1882 C1858 0.950 . S
H1883 C1859 0.949 . S
H1884 C1861 0.950 . S
H1885 C1863 0.950 . S
C1886 C1887 1.349 . S
C1886 C1888 1.327 . S
C1886 H1911 0.950 . S
C1887 C1886 1.349 . S
C1887 C1903 1.349 . S
C1888 C1886 1.327 . S
C1888 C1907 1.429 . S
C1888 H1912 0.950 . S
C1889 C1906 1.574 . S
C1889 C1908 1.368 . S
C1889 H1913 0.949 . S
H1890 C1894 0.949 . S
C1891 C1892 1.349 . S
C1891 C1893 1.327 . S
C1891 H1914 0.950 . S
C1892 C1891 1.349 . S
C1892 C1904 1.349 . S
C1893 C1891 1.327 . S
C1893 C1909 1.429 . S
C1893 H1915 0.950 . S
C1894 H1890 0.949 . S
C1894 C1902 1.574 . S
C1894 C1910 1.368 . S
H1895 C1903 0.950 . S
H1896 C1901 0.950 . S
H1897 C1902 0.949 . S
H1898 C1904 0.950 . S
H1899 C1905 0.950 . S
H1900 C1906 0.949 . S
C1901 H1896 0.950 . S
C1901 C1903 1.327 . S
C1901 C1907 1.429 . S
C1902 C1894 1.574 . S
C1902 H1897 0.949 . S
C1902 C1908 1.368 . S
C1903 C1887 1.349 . S
C1903 H1895 0.950 . S
C1903 C1901 1.327 . S
C1904 C1892 1.349 . S
C1904 H1898 0.950 . S
C1904 C1905 1.327 . S
C1905 H1899 0.950 . S
C1905 C1904 1.327 . S
C1905 C1909 1.429 . S
C1906 C1889 1.574 . S
C1906 H1900 0.949 . S
C1906 C1910 1.368 . S
C1907 C1888 1.429 . S
C1907 C1901 1.429 . S
C1907 C1908 1.523 . S
C1908 C1889 1.368 . S
C1908 C1902 1.368 . S
C1908 C1907 1.523 . S
C1909 C1893 1.429 . S
C1909 C1905 1.429 . S
C1909 C1910 1.523 . S
C1910 C1894 1.368 . S
C1910 C1906 1.368 . S
C1910 C1909 1.523 . S
H1911 C1886 0.950 . S
H1912 C1888 0.950 . S
H1913 C1889 0.949 . S
H1914 C1891 0.950 . S
H1915 C1893 0.950 . S
C1916 C1917 1.349 . S
C1916 C1918 1.327 . S
C1916 H1941 0.950 . S
C1917 C1916 1.349 . S
C1917 C1933 1.349 . S
C1918 C1916 1.327 . S
C1918 C1937 1.429 . S
C1918 H1942 0.950 . S
C1919 C1936 1.574 . S
C1919 C1938 1.368 . S
C1919 H1943 0.949 . S
H1920 C1924 0.949 . S
C1921 C1922 1.349 . S
C1921 C1923 1.327 . S
C1921 H1944 0.950 . S
C1922 C1921 1.349 . S
C1922 C1934 1.349 . S
C1923 C1921 1.327 . S
C1923 C1939 1.429 . S
C1923 H1945 0.950 . S
C1924 H1920 0.949 . S
C1924 C1932 1.574 . S
C1924 C1940 1.368 . S
H1925 C1933 0.950 . S
H1926 C1931 0.950 . S
H1927 C1932 0.949 . S
H1928 C1934 0.950 . S
H1929 C1935 0.950 . S
H1930 C1936 0.949 . S
C1931 H1926 0.950 . S
C1931 C1933 1.327 . S
C1931 C1937 1.429 . S
C1932 C1924 1.574 . S
C1932 H1927 0.949 . S
C1932 C1938 1.368 . S
C1933 C1917 1.349 . S
C1933 H1925 0.950 . S
C1933 C1931 1.327 . S
C1934 C1922 1.349 . S
C1934 H1928 0.950 . S
C1934 C1935 1.327 . S
C1935 H1929 0.950 . S
C1935 C1934 1.327 . S
C1935 C1939 1.429 . S
C1936 C1919 1.574 . S
C1936 H1930 0.949 . S
C1936 C1940 1.368 . S
C1937 C1918 1.429 . S
C1937 C1931 1.429 . S
C1937 C1938 1.523 . S
C1938 C1919 1.368 . S
C1938 C1932 1.368 . S
C1938 C1937 1.523 . S
C1939 C1923 1.429 . S
C1939 C1935 1.429 . S
C1939 C1940 1.523 . S
C1940 C1924 1.368 . S
C1940 C1936 1.368 . S
C1940 C1939 1.523 . S
H1941 C1916 0.950 . S
H1942 C1918 0.950 . S
H1943 C1919 0.949 . S
H1944 C1921 0.950 . S
H1945 C1923 0.950 . S
C1946 C1947 1.349 . S
C1946 C1948 1.327 . S
C1946 H1971 0.950 . S
C1947 C1946 1.349 . S
C1947 C1963 1.349 . S
C1948 C1946 1.327 . S
C1948 C1967 1.429 . S
C1948 H1972 0.950 . S
C1949 C1966 1.574 . S
C1949 C1968 1.368 . S
C1949 H1973 0.949 . S
H1950 C1954 0.949 . S
C1951 C1952 1.349 . S
C1951 C1953 1.327 . S
C1951 H1974 0.950 . S
C1952 C1951 1.349 . S
C1952 C1964 1.349 . S
C1953 C1951 1.327 . S
C1953 C1969 1.429 . S
C1953 H1975 0.950 . S
C1954 H1950 0.949 . S
C1954 C1962 1.574 . S
C1954 C1970 1.368 . S
H1955 C1963 0.950 . S
H1956 C1961 0.950 . S
H1957 C1962 0.949 . S
H1958 C1964 0.950 . S
H1959 C1965 0.950 . S
H1960 C1966 0.949 . S
C1961 H1956 0.950 . S
C1961 C1963 1.327 . S
C1961 C1967 1.429 . S
C1962 C1954 1.574 . S
C1962 H1957 0.949 . S
C1962 C1968 1.368 . S
C1963 C1947 1.349 . S
C1963 H1955 0.950 . S
C1963 C1961 1.327 . S
C1964 C1952 1.349 . S
C1964 H1958 0.950 . S
C1964 C1965 1.327 . S
C1965 H1959 0.950 . S
C1965 C1964 1.327 . S
C1965 C1969 1.429 . S
C1966 C1949 1.574 . S
C1966 H1960 0.949 . S
C1966 C1970 1.368 . S
C1967 C1948 1.429 . S
C1967 C1961 1.429 . S
C1967 C1968 1.523 . S
C1968 C1949 1.368 . S
C1968 C1962 1.368 . S
C1968 C1967 1.523 . S
C1969 C1953 1.429 . S
C1969 C1965 1.429 . S
C1969 C1970 1.523 . S
C1970 C1954 1.368 . S
C1970 C1966 1.368 . S
C1970 C1969 1.523 . S
H1971 C1946 0.950 . S
H1972 C1948 0.950 . S
H1973 C1949 0.949 . S
H1974 C1951 0.950 . S
H1975 C1953 0.950 . S
C1976 C1977 1.349 . S
C1976 C1978 1.327 . S
C1976 H2001 0.950 . S
C1977 C1976 1.349 . S
C1977 C1993 1.349 . S
C1978 C1976 1.327 . S
C1978 C1997 1.429 . S
C1978 H2002 0.950 . S
C1979 C1996 1.574 . S
C1979 C1998 1.368 . S
C1979 H2003 0.949 . S
H1980 C1984 0.949 . S
C1981 C1982 1.349 . S
C1981 C1983 1.327 . S
C1981 H2004 0.950 . S
C1982 C1981 1.349 . S
C1982 C1994 1.349 . S
C1983 C1981 1.327 . S
C1983 C1999 1.429 . S
C1983 H2005 0.950 . S
C1984 H1980 0.949 . S
C1984 C1992 1.574 . S
C1984 C2000 1.368 . S
H1985 C1993 0.950 . S
H1986 C1991 0.950 . S
H1987 C1992 0.949 . S
H1988 C1994 0.950 . S
H1989 C1995 0.950 . S
H1990 C1996 0.949 . S
C1991 H1986 0.950 . S
C1991 C1993 1.327 . S
C1991 C1997 1.429 . S
C1992 C1984 1.574 . S
C1992 H1987 0.949 . S
C1992 C1998 1.368 . S
C1993 C1977 1.349 . S
C1993 H1985 0.950 . S
C1993 C1991 1.327 . S
C1994 C1982 1.349 . S
C1994 H1988 0.950 . S
C1994 C1995 1.327 . S
C1995 H1989 0.950 . S
C1995 C1994 1.327 . S
C1995 C1999 1.429 . S
C1996 C1979 1.574 . S
C1996 H1990 0.949 . S
C1996 C2000 1.368 . S
C1997 C1978 1.429 . S
C1997 C1991 1.429 . S
C1997 C1998 1.523 . S
C1998 C1979 1.368 . S
C1998 C1992 1.368 . S
C1998 C1997 1.523 . S
C1999 C1983 1.429 . S
C1999 C1995 1.429 . S
C1999 C2000 1.523 . S
C2000 C1984 1.368 . S
C2000 C1996 1.368 . S
C2000 C1999 1.523 . S
H2001 C1976 0.950 . S
H2002 C1978 0.950 . S
H2003 C1979 0.949 . S
H2004 C1981 0.950 . S
H2005 C1983 0.950 . S
C2006 C2007 1.349 . S
C2006 C2008 1.327 . S
C2006 H2031 0.950 . S
C2007 C2006 1.349 . S
C2007 C2023 1.349 . S
C2008 C2006 1.327 . S
C2008 C2027 1.429 . S
C2008 H2032 0.950 . S
C2009 C2026 1.574 . S
C2009 C2028 1.368 . S
C2009 H2033 0.949 . S
H2010 C2014 0.949 . S
C2011 C2012 1.349 . S
C2011 C2013 1.327 . S
C2011 H2034 0.950 . S
C2012 C2011 1.349 . S
C2012 C2024 1.349 . S
C2013 C2011 1.327 . S
C2013 C2029 1.429 . S
C2013 H2035 0.950 . S
C2014 H2010 0.949 . S
C2014 C2022 1.574 . S
C2014 C2030 1.368 . S
H2015 C2023 0.950 . S
H2016 C2021 0.950 . S
H2017 C2022 0.949 . S
H2018 C2024 0.950 . S
H2019 C2025 0.950 . S
H2020 C2026 0.949 . S
C2021 H2016 0.950 . S
C2021 C2023 1.327 . S
C2021 C2027 1.429 . S
C2022 C2014 1.574 . S
C2022 H2017 0.949 . S
C2022 C2028 1.368 . S
C2023 C2007 1.349 . S
C2023 H2015 0.950 . S
C2023 C2021 1.327 . S
C2024 C2012 1.349 . S
C2024 H2018 0.950 . S
C2024 C2025 1.327 . S
C2025 H2019 0.950 . S
C2025 C2024 1.327 . S
C2025 C2029 1.429 . S
C2026 C2009 1.574 . S
C2026 H2020 0.949 . S
C2026 C2030 1.368 . S
C2027 C2008 1.429 . S
C2027 C2021 1.429 . S
C2027 C2028 1.523 . S
C2028 C2009 1.368 . S
C2028 C2022 1.368 . S
C2028 C2027 1.523 . S
C2029 C2013 1.429 . S
C2029 C2025 1.429 . S
C2029 C2030 1.523 . S
C2030 C2014 1.368 . S
C2030 C2026 1.368 . S
C2030 C2029 1.523 . S
H2031 C2006 0.950 . S
H2032 C2008 0.950 . S
H2033 C2009 0.949 . S
H2034 C2011 0.950 . S
H2035 C2013 0.950 . S
C602 C293 1.465 . S
C597 N2 1.449 . S
C632 C339 2.062 . S
C627 C7 2.063 1_655 S
C662 C382 1.500 . S
C657 N12 1.414 1_655 S
C687 C16 2.557 . S
C692 C419 2.597 . S
C722 C438 2.118 . S
C717 C30 2.118 . S
C752 C493 1.343 . S
C747 N35 1.310 . S
C777 C39 2.693 1_655 S
C782 C518 2.662 . S
C812 C582 1.298 . S
C807 N25 1.217 1_655 S
C842 C278 1.504 . S
C837 N58 1.472 . S
C867 N81 1.219 . S
C872 C342 1.238 . S
C902 C369 1.320 . S
C897 N104 1.272 . S
C927 N127 1.293 . S
C932 C422 1.314 . S
C962 C460 1.035 . S
C957 N48 1.012 . S
C992 C478 1.789 . S
C987 N71 1.786 . S
C1017 N94 1.103 . S
C1022 C540 1.136 . S
C1052 C569 1.628 . S
C1047 N117 1.599 . S
C1077 C85 1.933 . S
C1082 C300 1.976 . S
C1107 C122 1.497 . S
C1112 C453 1.494 . S
C1137 C53 1.894 . S
C1142 C500 1.904 . S
C1172 C533 1.601 . S
C1167 C76 1.605 . S
C1202 C579 2.130 . S
C1197 C99 2.146 . S
C1232 C379 2.152 . S
C1227 C131 2.145 . S
C1262 C409 1.601 . S
C1257 C62 1.595 . S
C1287 C108 1.454 . S
C1292 C329 1.457 . S
C1322 C573 1.551 . S
C1317 N140 1.535 . S
C1347 C145 2.054 . S
C1352 C459 2.055 . S
C1382 C502 1.412 . S
C1377 N150 1.334 . S
C1407 C154 2.559 . S
C1412 C539 2.598 . S
C1442 C318 2.110 . S
C1437 C168 2.108 . S
C1467 N173 1.239 . S
C1472 C373 1.268 . S
C1502 C398 2.657 . S
C1497 C177 2.691 . S
C1532 C302 1.372 . S
C1527 N163 1.280 . S
C1562 C558 1.965 . S
C1557 C200 1.964 . S
C1592 C462 1.510 . S
C1587 N219 1.485 . S
C1617 N242 1.526 . S
C1622 C489 1.584 . S
C1652 C542 1.636 . S
C1647 C269 1.654 . S
C1682 C340 1.357 . S
C1677 C191 1.364 . S
C1707 N209 2.057 . S
C1712 C358 2.060 . S
C1737 N232 1.419 . S
C1742 C420 1.466 . S
C1767 C260 2.056 . S
C1772 C289 2.083 . S
C1797 C223 1.626 . S
C1802 C580 1.667 . S
C1827 N255 1.145 . S
C1832 C333 1.178 . S
C1857 N186 1.438 . S
C1862 C380 1.472 . S
C1892 C413 1.305 . S
C1887 C214 1.310 . S
C1922 C299 1.860 . S
C1917 C237 1.874 . S
C1952 C499 1.685 . S
C1947 N265 1.660 . S
C1982 C529 1.257 . S
C1977 N196 1.203 . S
C2012 C449 1.123 . S
C2007 C246 1.120 . S
