# Generated by pormake.
# Topology pto, (3,4)-cn, num edge types: 1
# Building blocks:
#     Node 0, Type 0, BuildingBlock: WUSLED_clean_sbu_0, # of connection points: 3
#     Node 1, Type 0, BuildingBlock: WUSLED_clean_sbu_0, # of connection points: 3
#     Node 2, Type 0, BuildingBlock: WUSLED_clean_sbu_0, # of connection points: 3
#     Node 3, Type 0, BuildingBlock: WUSLED_clean_sbu_0, # of connection points: 3
#     Node 4, Type 0, BuildingBlock: WUSLED_clean_sbu_0, # of connection points: 3
#     Node 5, Type 0, BuildingBlock: WUSLED_clean_sbu_0, # of connection points: 3
#     Node 6, Type 0, BuildingBlock: WUSLED_clean_sbu_0, # of connection points: 3
#     Node 7, Type 0, BuildingBlock: WUSLED_clean_sbu_0, # of connection points: 3
#     Node 8, Type 1, BuildingBlock: NAWXER_clean_sbu_0, # of connection points: 4
#     Node 9, Type 1, BuildingBlock: NAWXER_clean_sbu_0, # of connection points: 4
#     Node 10, Type 1, BuildingBlock: NAWXER_clean_sbu_0, # of connection points: 4
#     Node 11, Type 1, BuildingBlock: NAWXER_clean_sbu_0, # of connection points: 4
#     Node 12, Type 1, BuildingBlock: NAWXER_clean_sbu_0, # of connection points: 4
#     Node 13, Type 1, BuildingBlock: NAWXER_clean_sbu_0, # of connection points: 4
#     Edge 14, Type (0, 1), BuildingBlock: MIFKUJ_clean_linker_0, # of connection points: 2
#     Edge 15, Type (0, 1), BuildingBlock: MIFKUJ_clean_linker_0, # of connection points: 2
#     Edge 16, Type (0, 1), BuildingBlock: MIFKUJ_clean_linker_0, # of connection points: 2
#     Edge 17, Type (0, 1), BuildingBlock: MIFKUJ_clean_linker_0, # of connection points: 2
#     Edge 18, Type (0, 1), BuildingBlock: MIFKUJ_clean_linker_0, # of connection points: 2
#     Edge 19, Type (0, 1), BuildingBlock: MIFKUJ_clean_linker_0, # of connection points: 2
#     Edge 20, Type (0, 1), BuildingBlock: MIFKUJ_clean_linker_0, # of connection points: 2
#     Edge 21, Type (0, 1), BuildingBlock: MIFKUJ_clean_linker_0, # of connection points: 2
#     Edge 22, Type (0, 1), BuildingBlock: MIFKUJ_clean_linker_0, # of connection points: 2
#     Edge 23, Type (0, 1), BuildingBlock: MIFKUJ_clean_linker_0, # of connection points: 2
#     Edge 24, Type (0, 1), BuildingBlock: MIFKUJ_clean_linker_0, # of connection points: 2
#     Edge 25, Type (0, 1), BuildingBlock: MIFKUJ_clean_linker_0, # of connection points: 2
#     Edge 26, Type (0, 1), BuildingBlock: MIFKUJ_clean_linker_0, # of connection points: 2
#     Edge 27, Type (0, 1), BuildingBlock: MIFKUJ_clean_linker_0, # of connection points: 2
#     Edge 28, Type (0, 1), BuildingBlock: MIFKUJ_clean_linker_0, # of connection points: 2
#     Edge 29, Type (0, 1), BuildingBlock: MIFKUJ_clean_linker_0, # of connection points: 2
#     Edge 30, Type (0, 1), BuildingBlock: MIFKUJ_clean_linker_0, # of connection points: 2
#     Edge 31, Type (0, 1), BuildingBlock: MIFKUJ_clean_linker_0, # of connection points: 2
#     Edge 32, Type (0, 1), BuildingBlock: MIFKUJ_clean_linker_0, # of connection points: 2
#     Edge 33, Type (0, 1), BuildingBlock: MIFKUJ_clean_linker_0, # of connection points: 2
#     Edge 34, Type (0, 1), BuildingBlock: MIFKUJ_clean_linker_0, # of connection points: 2
#     Edge 35, Type (0, 1), BuildingBlock: MIFKUJ_clean_linker_0, # of connection points: 2
#     Edge 36, Type (0, 1), BuildingBlock: MIFKUJ_clean_linker_0, # of connection points: 2
#     Edge 37, Type (0, 1), BuildingBlock: MIFKUJ_clean_linker_0, # of connection points: 2
# Relax obj value: 0.000
# Max RMSD: 0.008
# Mean RMSD: 0.004
data_MOF--net-pto--node1-WUSLED_clean_sbu_0--node2-NAWXER_clean_sbu_0--edge1-MIFKUJ_clean_linker_0
_symmetry_space_group_name_H-M    P1
_symmetry_Int_Tables_number       1
_symmetry_cell_setting            triclinic
loop_
_symmetry_equiv_pos_as_xyz
'x, y, z'
_cell_length_a     69.564425
_cell_length_b     65.779338
_cell_length_c     61.629407
_cell_angle_alpha  89.37784
_cell_angle_beta   90.542951
_cell_angle_gamma 90.469036
loop_
_atom_site_label
_atom_site_type_symbol
_atom_site_fract_x
_atom_site_fract_y
_atom_site_fract_z
_atom_type_partial_charge
C0 C 0.25543 0.24798 0.30348 0.0
C1 C 0.27112 0.23472 0.30307 0.0
C2 C 0.25533 0.21226 0.32937 0.0
C3 C 0.27108 0.217 0.31594 0.0
C4 C 0.23966 0.22565 0.32956 0.0
C5 C 0.23974 0.2433 0.31674 0.0
U6 U 0.27461 0.28604 0.26016 0.0
O7 O 0.2577 0.30417 0.23672 0.0
O8 O 0.2751 0.31945 0.26162 0.0
C9 C 0.26205 0.32143 0.2462 0.0
C10 C 0.25504 0.26693 0.29058 0.0
C11 C 0.24555 0.33429 0.25144 0.0
C12 C 0.21859 0.34251 0.27451 0.0
C13 C 0.23437 0.33027 0.26987 0.0
C14 C 0.22493 0.3628 0.24229 0.0
C15 C 0.21365 0.35895 0.26077 0.0
C16 C 0.24072 0.35059 0.23771 0.0
C17 C 0.32013 0.27595 0.22699 0.0
C18 C 0.34224 0.30019 0.21011 0.0
C19 C 0.34066 0.26551 0.19744 0.0
C20 C 0.3265 0.261 0.21276 0.0
C21 C 0.34893 0.28509 0.19606 0.0
C22 C 0.32796 0.29568 0.22538 0.0
C23 C 0.30577 0.27036 0.24364 0.0
O24 O 0.26877 0.28023 0.2947 0.0
O25 O 0.25133 0.26501 0.26976 0.0
O26 O 0.28837 0.26615 0.23639 0.0
O27 O 0.30585 0.28127 0.26141 0.0
H28 H 0.28336 0.2381 0.29286 0.0
H29 H 0.28329 0.20693 0.31525 0.0
H30 H 0.22745 0.22271 0.33993 0.0
H31 H 0.22754 0.25342 0.31733 0.0
H32 H 0.21037 0.33921 0.28899 0.0
H33 H 0.23787 0.31768 0.28064 0.0
H34 H 0.22139 0.37506 0.23113 0.0
H35 H 0.24911 0.35382 0.22333 0.0
H36 H 0.34834 0.31538 0.20969 0.0
H37 H 0.34511 0.25359 0.18664 0.0
H38 H 0.3206 0.24572 0.21361 0.0
H39 H 0.32325 0.30755 0.23611 0.0
C40 C 0.25813 0.78396 0.71219 0.0
C41 C 0.26892 0.80121 0.71806 0.0
C42 C 0.25711 0.81942 0.68591 0.0
C43 C 0.26843 0.8188 0.70499 0.0
C44 C 0.24667 0.8019 0.68 0.0
C45 C 0.24718 0.7844 0.69301 0.0
U46 U 0.27656 0.74669 0.75702 0.0
O47 O 0.25921 0.73023 0.78133 0.0
O48 O 0.2751 0.71328 0.75697 0.0
C49 C 0.26235 0.71246 0.77256 0.0
C50 C 0.2573 0.76557 0.72602 0.0
C51 C 0.24507 0.70016 0.7679 0.0
C52 C 0.21707 0.69252 0.74541 0.0
C53 C 0.23337 0.70448 0.74979 0.0
C54 C 0.22392 0.67193 0.77735 0.0
C55 C 0.21216 0.67605 0.75912 0.0
C56 C 0.24022 0.68387 0.78167 0.0
C57 C 0.32362 0.75502 0.78902 0.0
C58 C 0.33212 0.74391 0.8257 0.0
C59 C 0.3572 0.75125 0.79973 0.0
C60 C 0.34324 0.75614 0.78405 0.0
C61 C 0.35182 0.74527 0.82082 0.0
C62 C 0.31816 0.74864 0.80995 0.0
C63 C 0.30924 0.76108 0.77234 0.0
O64 O 0.27013 0.75152 0.72225 0.0
O65 O 0.25431 0.76841 0.74679 0.0
O66 O 0.29233 0.76674 0.7794 0.0
O67 O 0.30812 0.74948 0.75513 0.0
H68 H 0.27747 0.80116 0.73284 0.0
H69 H 0.27656 0.83205 0.71009 0.0
H70 H 0.23811 0.80167 0.66523 0.0
H71 H 0.2388 0.77121 0.68819 0.0
H72 H 0.2085 0.69601 0.73112 0.0
H73 H 0.23691 0.71703 0.73897 0.0
H74 H 0.22042 0.65961 0.78846 0.0
H75 H 0.24904 0.68039 0.79579 0.0
H76 H 0.32751 0.73914 0.84171 0.0
H77 H 0.37223 0.75268 0.7955 0.0
H78 H 0.3478 0.76106 0.76806 0.0
H79 H 0.30312 0.74747 0.81422 0.0
C80 C 0.72742 0.75665 0.23655 0.0
C81 C 0.73151 0.7436 0.21933 0.0
C82 C 0.69891 0.74769 0.20492 0.0
C83 C 0.71738 0.73917 0.20364 0.0
C84 C 0.69486 0.7604 0.22252 0.0
C85 C 0.70897 0.76484 0.2381 0.0
U86 U 0.77467 0.74763 0.26809 0.0
O87 O 0.7974 0.76943 0.27724 0.0
O88 O 0.78154 0.75285 0.30256 0.0
C89 C 0.79454 0.76686 0.29815 0.0
C90 C 0.74219 0.76234 0.25278 0.0
C91 C 0.79394 0.78541 0.31129 0.0
C92 C 0.78294 0.81978 0.318 0.0
C93 C 0.78256 0.80214 0.30539 0.0
C94 C 0.80586 0.80396 0.34259 0.0
C95 C 0.79474 0.82095 0.33668 0.0
C96 C 0.80546 0.78643 0.33002 0.0
C97 C 0.80537 0.70067 0.25852 0.0
C98 C 0.84005 0.69705 0.26246 0.0
C99 C 0.81928 0.66761 0.26682 0.0
C100 C 0.80319 0.67977 0.26276 0.0
C101 C 0.8379 0.67608 0.26652 0.0
C102 C 0.82395 0.70925 0.25861 0.0
C103 C 0.78815 0.71312 0.2539 0.0
O104 O 0.74321 0.75069 0.27021 0.0
O105 O 0.75914 0.76748 0.2451 0.0
O106 O 0.7911 0.73069 0.24404 0.0
O107 O 0.77563 0.71414 0.26968 0.0
H108 H 0.74568 0.73706 0.21786 0.0
H109 H 0.72107 0.72944 0.19027 0.0
H110 H 0.68072 0.76691 0.22432 0.0
H111 H 0.7055 0.77484 0.25134 0.0
H112 H 0.77429 0.83261 0.31291 0.0
H113 H 0.77355 0.80163 0.29097 0.0
H114 H 0.81481 0.80414 0.35707 0.0
H115 H 0.81428 0.77363 0.33488 0.0
H116 H 0.85419 0.70406 0.26237 0.0
H117 H 0.81717 0.65147 0.2697 0.0
H118 H 0.78902 0.67281 0.26278 0.0
H119 H 0.8261 0.72536 0.25561 0.0
C120 C 0.76262 0.22793 0.72822 0.0
C121 C 0.78039 0.22922 0.71768 0.0
C122 C 0.7731 0.19804 0.698 0.0
C123 C 0.78559 0.21441 0.70271 0.0
C124 C 0.75527 0.19694 0.70861 0.0
C125 C 0.7501 0.21174 0.72357 0.0
U126 U 0.77178 0.27786 0.75758 0.0
O127 O 0.7519 0.30218 0.76654 0.0
O128 O 0.76798 0.28575 0.79189 0.0
C129 C 0.75438 0.29898 0.78749 0.0
C130 C 0.75697 0.24332 0.74406 0.0
C131 C 0.73685 0.29776 0.8011 0.0
C132 C 0.70274 0.30424 0.80646 0.0
C133 C 0.71881 0.30388 0.79294 0.0
C134 C 0.72229 0.29223 0.83655 0.0
C135 C 0.7043 0.29853 0.82847 0.0
C136 C 0.73837 0.29195 0.82307 0.0
C137 C 0.81807 0.30815 0.74309 0.0
C138 C 0.82664 0.34383 0.73768 0.0
C139 C 0.8508 0.31997 0.75002 0.0
C140 C 0.83712 0.30428 0.74953 0.0
C141 C 0.84578 0.3399 0.74389 0.0
C142 C 0.81291 0.32814 0.73732 0.0
C143 C 0.80439 0.29087 0.74105 0.0
O144 O 0.76812 0.24476 0.76132 0.0
O145 O 0.75218 0.2611 0.7358 0.0
O146 O 0.78749 0.29469 0.73222 0.0
O147 O 0.80346 0.27827 0.75772 0.0
H148 H 0.79025 0.24164 0.72109 0.0
H149 H 0.7995 0.21564 0.69504 0.0
H150 H 0.74516 0.18477 0.70515 0.0
H151 H 0.73629 0.21055 0.73149 0.0
H152 H 0.68907 0.30898 0.79965 0.0
H153 H 0.71712 0.30869 0.77618 0.0
H154 H 0.7241 0.28803 0.85348 0.0
H155 H 0.7521 0.28752 0.83 0.0
H156 H 0.82228 0.35906 0.73309 0.0
H157 H 0.86545 0.31636 0.75461 0.0
H158 H 0.84155 0.28899 0.7538 0.0
H159 H 0.79836 0.33165 0.73222 0.0
C160 C 0.81425 0.71327 0.78983 0.0
C161 C 0.83225 0.71974 0.78208 0.0
C162 C 0.84536 0.68584 0.78847 0.0
C163 C 0.84767 0.70616 0.78148 0.0
C164 C 0.82721 0.67941 0.79588 0.0
C165 C 0.81186 0.69299 0.79658 0.0
U166 U 0.78337 0.759 0.77124 0.0
O167 O 0.75198 0.76245 0.77139 0.0
O168 O 0.77014 0.78272 0.79107 0.0
C169 C 0.75256 0.77691 0.78596 0.0
C170 C 0.79796 0.7274 0.79184 0.0
C171 C 0.73872 0.77538 0.80399 0.0
C172 C 0.71391 0.75716 0.82414 0.0
C173 C 0.72827 0.75744 0.80835 0.0
C174 C 0.72062 0.79252 0.83192 0.0
C175 C 0.70972 0.77479 0.83592 0.0
C176 C 0.73489 0.79281 0.81609 0.0
C177 C 0.79448 0.79047 0.72083 0.0
C178 C 0.77386 0.81856 0.70997 0.0
C179 C 0.80241 0.81129 0.68932 0.0
C180 C 0.80657 0.79502 0.70338 0.0
C181 C 0.78602 0.82331 0.69247 0.0
C182 C 0.77807 0.8023 0.72404 0.0
C183 C 0.79912 0.77346 0.73566 0.0
O184 O 0.8023 0.74633 0.79665 0.0
O185 O 0.78428 0.72586 0.77707 0.0
O186 O 0.78661 0.75838 0.73577 0.0
O187 O 0.80479 0.77872 0.75522 0.0
H188 H 0.83443 0.7353 0.77667 0.0
H189 H 0.86138 0.71155 0.77542 0.0
H190 H 0.82495 0.66396 0.80162 0.0
H191 H 0.79812 0.6877 0.8027 0.0
H192 H 0.70569 0.74329 0.82661 0.0
H193 H 0.73084 0.74376 0.79924 0.0
H194 H 0.71806 0.80627 0.84092 0.0
H195 H 0.74273 0.80684 0.813 0.0
H196 H 0.76126 0.82762 0.71303 0.0
H197 H 0.81194 0.81433 0.67586 0.0
H198 H 0.81927 0.78601 0.70062 0.0
H199 H 0.76858 0.79902 0.73749 0.0
C200 C 0.73322 0.26159 0.22768 0.0
C201 C 0.73749 0.26744 0.20626 0.0
C202 C 0.70355 0.26484 0.19625 0.0
C203 C 0.72278 0.26899 0.19066 0.0
C204 C 0.69936 0.25939 0.21783 0.0
C205 C 0.71406 0.25775 0.23335 0.0
U206 U 0.78204 0.27362 0.25553 0.0
O207 O 0.78907 0.27349 0.29039 0.0
O208 O 0.8031 0.25187 0.26892 0.0
C209 C 0.79979 0.25718 0.28903 0.0
C210 C 0.7484 0.25844 0.24419 0.0
C211 C 0.79492 0.24029 0.30404 0.0
C212 C 0.77132 0.21992 0.32372 0.0
C213 C 0.77576 0.23616 0.30973 0.0
C214 C 0.80509 0.21142 0.32619 0.0
C215 C 0.78593 0.20733 0.33208 0.0
C216 C 0.80953 0.22779 0.31235 0.0
C217 C 0.81414 0.31746 0.23375 0.0
C218 C 0.84388 0.32947 0.25051 0.0
C219 C 0.83258 0.34481 0.21689 0.0
C220 C 0.81665 0.33172 0.21694 0.0
C221 C 0.84641 0.34393 0.23369 0.0
C222 C 0.82788 0.31633 0.25052 0.0
C223 C 0.79687 0.30435 0.23353 0.0
O224 O 0.76483 0.25134 0.23727 0.0
O225 O 0.75049 0.27282 0.25868 0.0
O226 O 0.78502 0.30656 0.24982 0.0
O227 O 0.79949 0.28524 0.22837 0.0
H228 H 0.75219 0.27058 0.20154 0.0
H229 H 0.72644 0.27346 0.17424 0.0
H230 H 0.68476 0.25587 0.22263 0.0
H231 H 0.71048 0.25314 0.24976 0.0
H232 H 0.75642 0.21701 0.32773 0.0
H233 H 0.76419 0.24542 0.30328 0.0
H234 H 0.81668 0.20211 0.3325 0.0
H235 H 0.82439 0.23065 0.30809 0.0
H236 H 0.85433 0.32822 0.26358 0.0
H237 H 0.83384 0.35592 0.20387 0.0
H238 H 0.80614 0.33287 0.2039 0.0
H239 H 0.82619 0.30539 0.26364 0.0
C240 C 0.2541 0.24071 0.7161 0.0
C241 C 0.272 0.23106 0.71763 0.0
C242 C 0.26312 0.20871 0.6878 0.0
C243 C 0.27649 0.21526 0.70357 0.0
C244 C 0.24521 0.21851 0.68632 0.0
C245 C 0.24077 0.23437 0.70035 0.0
U246 U 0.26573 0.2704 0.76678 0.0
O247 O 0.2642 0.30308 0.77387 0.0
O248 O 0.24737 0.28118 0.79312 0.0
C249 C 0.25124 0.30043 0.78905 0.0
C250 C 0.24916 0.25702 0.7312 0.0
C251 C 0.23458 0.31411 0.78802 0.0
C252 C 0.20564 0.32685 0.77022 0.0
C253 C 0.22133 0.31357 0.77071 0.0
C254 C 0.21631 0.34124 0.80432 0.0
C255 C 0.20291 0.34084 0.78706 0.0
C256 C 0.23195 0.32801 0.80477 0.0
C257 C 0.31187 0.25361 0.79742 0.0
C258 C 0.32649 0.27048 0.82844 0.0
C259 C 0.3397 0.2389 0.81553 0.0
C260 C 0.32559 0.23821 0.79928 0.0
C261 C 0.34038 0.25505 0.8303 0.0
C262 C 0.31232 0.26974 0.81213 0.0
C263 C 0.29753 0.25251 0.77979 0.0
O264 O 0.24421 0.25082 0.75072 0.0
O265 O 0.26111 0.27261 0.73147 0.0
O266 O 0.29723 0.26797 0.7661 0.0
O267 O 0.2803 0.24611 0.7853 0.0
H268 H 0.28243 0.23566 0.72982 0.0
H269 H 0.29029 0.20789 0.70535 0.0
H270 H 0.23467 0.21401 0.67422 0.0
H271 H 0.22688 0.24164 0.69894 0.0
H272 H 0.19552 0.32597 0.75679 0.0
H273 H 0.22312 0.30289 0.75764 0.0
H274 H 0.21489 0.35199 0.81738 0.0
H275 H 0.24207 0.3287 0.81822 0.0
H276 H 0.3265 0.28302 0.83967 0.0
H277 H 0.35031 0.22696 0.81624 0.0
H278 H 0.32549 0.22569 0.788 0.0
H279 H 0.30178 0.28175 0.81095 0.0
C280 C 0.22486 0.7313 0.26558 0.0
C281 C 0.22541 0.7206 0.24601 0.0
C282 C 0.19765 0.70014 0.25704 0.0
C283 C 0.21189 0.70518 0.24175 0.0
C284 C 0.1972 0.71102 0.27658 0.0
C285 C 0.21066 0.72643 0.28078 0.0
U286 U 0.27122 0.76103 0.25353 0.0
O287 O 0.27758 0.79377 0.25573 0.0
O288 O 0.29384 0.77203 0.27583 0.0
C289 C 0.29072 0.79123 0.27097 0.0
C290 C 0.239 0.74745 0.27053 0.0
C291 C 0.2902 0.80531 0.28934 0.0
C292 C 0.2734 0.82269 0.31809 0.0
C293 C 0.27337 0.80862 0.30114 0.0
C294 C 0.30707 0.83 0.3117 0.0
C295 C 0.29026 0.8336 0.32354 0.0
C296 C 0.30701 0.81601 0.29482 0.0
C297 C 0.30248 0.74765 0.2052 0.0
C298 C 0.32408 0.76978 0.18469 0.0
C299 C 0.3305 0.73374 0.18752 0.0
C300 C 0.31404 0.73104 0.20012 0.0
C301 C 0.33571 0.75313 0.17952 0.0
C302 C 0.3077 0.7671 0.19746 0.0
C303 C 0.28521 0.74434 0.21865 0.0
O304 O 0.25606 0.74117 0.27685 0.0
O305 O 0.23977 0.76267 0.25654 0.0
O306 O 0.27218 0.75871 0.218 0.0
O307 O 0.28845 0.7372 0.23834 0.0
H308 H 0.23634 0.7241 0.2341 0.0
H309 H 0.21279 0.69699 0.22666 0.0
H310 H 0.18629 0.70776 0.28859 0.0
H311 H 0.20998 0.73456 0.29595 0.0
H312 H 0.26026 0.82494 0.327 0.0
H313 H 0.26025 0.80043 0.29717 0.0
H314 H 0.32022 0.83833 0.31515 0.0
H315 H 0.32011 0.81371 0.28583 0.0
H316 H 0.32746 0.78489 0.17863 0.0
H317 H 0.33925 0.7206 0.18427 0.0
H318 H 0.31038 0.71593 0.20601 0.0
H319 H 0.29911 0.78024 0.20119 0.0
C320 C 0.99981 0.49301 0.24149 0.0
C321 C 0.05077 0.54544 0.24336 0.0
O322 O 1.00553 0.4976 0.26066 0.0
Zn323 Zn 0.02576 0.51745 0.27617 0.0
O324 O 1.00752 0.50185 0.22525 0.0
Zn325 Zn 0.02534 0.51933 0.24143 0.0
O326 O 0.04527 0.49799 0.25512 0.0
O327 O 0.04306 0.49848 0.29079 0.0
O328 O 0.0425 0.53834 0.22651 0.0
O329 O 0.04569 0.53891 0.26216 0.0
O330 O 1.00875 0.53464 0.2928 0.0
O331 O 1.00634 0.53962 0.25739 0.0
C332 C 0.05077 0.49144 0.27383 0.0
C333 C 1.00122 0.544 0.2767 0.0
C334 C 0.99905 0.48857 0.74688 0.0
C335 C 0.04983 0.54079 0.7477 0.0
O336 O 1.00468 0.49341 0.76602 0.0
Zn337 Zn 0.02462 0.51391 0.78117 0.0
O338 O 1.00653 0.4974 0.73051 0.0
Zn339 Zn 0.02429 0.51488 0.74646 0.0
O340 O 0.04407 0.49359 0.76088 0.0
O341 O 0.04175 0.49523 0.79649 0.0
O342 O 0.0416 0.53326 0.73106 0.0
O343 O 0.04466 0.53482 0.76666 0.0
O344 O 1.00764 0.5319 0.79705 0.0
O345 O 1.00502 0.53551 0.76156 0.0
C346 C 0.04944 0.48754 0.77984 0.0
C347 C 0.99989 0.5406 0.78066 0.0
C348 C 0.25735 0.99013 0.53759 0.0
C349 C 0.25807 0.04461 0.48226 0.0
O350 O 0.24279 0.99787 0.52806 0.0
Zn351 Zn 0.25675 0.01719 0.5097 0.0
O352 O 0.27423 0.99651 0.53266 0.0
Zn353 Zn 0.28761 0.01811 0.51129 0.0
O354 O 0.30045 0.03647 0.53154 0.0
O355 O 0.26879 0.03768 0.53302 0.0
O356 O 0.2748 0.03926 0.48896 0.0
O357 O 0.24327 0.03566 0.48991 0.0
O358 O 0.27084 0.99754 0.48769 0.0
O359 O 0.30222 1.00047 0.4923 0.0
C360 C 0.28532 0.04376 0.5398 0.0
C361 C 0.28792 0.99239 0.48255 0.0
C362 C 0.55028 0.73329 0.0418 0.0
C363 C 0.50157 0.73289 0.98333 0.0
O364 O 0.54334 0.71769 0.0324 0.0
Zn365 Zn 0.52645 0.73212 0.01199 0.0
O366 O 0.54471 0.75102 0.03576 0.0
Zn367 Zn 0.52558 0.76471 0.01254 0.0
O368 O 0.50781 0.77852 0.03144 0.0
O369 O 0.50535 0.74502 0.03302 0.0
O370 O 0.50601 0.7507 0.99008 0.0
O371 O 0.51037 0.71749 0.99102 0.0
O372 O 0.54683 0.747 0.99158 0.0
O373 O 0.54303 0.78013 0.99378 0.0
C374 C 0.49965 0.76259 0.03899 0.0
C375 C 0.55184 0.76506 0.98595 0.0
C376 C 0.76779 0.98935 0.54046 0.0
C377 C 0.76526 0.04206 0.48336 0.0
O378 O 0.75267 0.997 0.53205 0.0
Zn379 Zn 0.76556 0.01593 0.51231 0.0
O380 O 0.78433 0.99555 0.53399 0.0
Zn381 Zn 0.79637 0.01668 0.51096 0.0
O382 O 0.81045 0.03593 0.52926 0.0
O383 O 0.77911 0.03626 0.53459 0.0
O384 O 0.78232 0.03641 0.48834 0.0
O385 O 0.751 0.03456 0.49356 0.0
O386 O 0.77818 0.99537 0.48971 0.0
O387 O 0.80977 0.99846 0.49168 0.0
C388 C 0.79603 0.0427 0.53937 0.0
C389 C 0.79491 0.99003 0.48342 0.0
C390 C 0.54931 0.27069 0.03817 0.0
C391 C 0.49795 0.268 0.98315 0.0
O392 O 0.54128 0.25479 0.03055 0.0
Zn393 Zn 0.52367 0.26855 1.01081 0.0
O394 O 0.54378 0.28826 0.03149 0.0
Zn395 Zn 0.5232 0.3011 1.00907 0.0
O396 O 0.50608 0.3159 0.02825 0.0
O397 O 0.50458 0.28266 0.03294 0.0
O398 O 0.50319 0.28611 0.98803 0.0
O399 O 0.50612 0.25299 0.99247 0.0
O400 O 0.54323 0.28205 0.98807 0.0
O401 O 0.53984 0.31536 0.98844 0.0
C402 C 0.49905 0.30049 0.03811 0.0
C403 C 0.54812 0.29974 0.98103 0.0
H404 H 0.1784 0.34704 0.27643 0.0
H405 H 0.15034 0.36823 0.28273 0.0
H406 H 0.18214 0.42118 0.26129 0.0
H407 H 0.21049 0.40028 0.25585 0.0
H408 H 0.16077 0.43065 0.29488 0.0
H409 H 0.15059 0.39594 0.22733 0.0
H410 H 0.14775 0.36615 0.20352 0.0
H411 H 0.10093 0.34301 0.24168 0.0
H412 H 0.10367 0.37256 0.26589 0.0
H413 H 0.06931 0.47395 0.2402 0.0
H414 H 0.09602 0.45038 0.24165 0.0
H415 H 0.09456 0.45042 0.31162 0.0
H416 H 0.0678 0.47453 0.31031 0.0
H417 H 0.10003 0.41316 0.25633 0.0
H418 H 0.14122 0.44436 0.33056 0.0
H419 H 0.1453 0.47646 0.35052 0.0
H420 H 0.13202 0.51053 0.29254 0.0
H421 H 0.12811 0.47866 0.2722 0.0
C422 C 0.17955 0.36324 0.27339 0.0
C423 C 0.19672 0.3719 0.26546 0.0
C424 C 0.16341 0.37532 0.27682 0.0
C425 C 0.16401 0.39628 0.27221 0.0
C426 C 0.18128 0.40505 0.26491 0.0
C427 C 0.19743 0.39302 0.26157 0.0
C428 C 0.14651 0.409 0.27411 0.0
C429 C 0.14744 0.42673 0.28658 0.0
C430 C 0.12916 0.40409 0.26308 0.0
C431 C 0.12749 0.38633 0.24856 0.0
C432 C 0.1398 0.38441 0.23074 0.0
C433 C 0.13819 0.36759 0.21715 0.0
C434 C 0.12421 0.35266 0.22112 0.0
C435 C 0.11178 0.35456 0.23865 0.0
C436 C 0.11335 0.37135 0.2523 0.0
C437 C 0.07457 0.46896 0.25597 0.0
C438 C 0.06642 0.47625 0.27517 0.0
C439 C 0.08984 0.45536 0.25674 0.0
C440 C 0.09742 0.44868 0.27672 0.0
C441 C 0.0891 0.45555 0.29599 0.0
C442 C 0.07376 0.46927 0.29523 0.0
C443 C 0.11429 0.43489 0.27701 0.0
C444 C 0.11324 0.41691 0.26495 0.0
C445 C 0.13166 0.43986 0.28795 0.0
C446 C 0.13414 0.45912 0.29996 0.0
C447 C 0.13921 0.45871 0.32208 0.0
C448 C 0.14149 0.47686 0.33346 0.0
C449 C 0.13885 0.49552 0.32283 0.0
C450 C 0.13399 0.49607 0.30078 0.0
C451 C 0.13171 0.47797 0.28933 0.0
H452 H 0.14061 0.50955 0.33167 0.0
H453 H 0.12298 0.33965 0.21058 0.0
H454 H 0.20837 0.63468 0.76353 0.0
H455 H 0.17974 0.61381 0.75726 0.0
H456 H 0.14827 0.66714 0.73721 0.0
H457 H 0.17667 0.68828 0.74432 0.0
H458 H 0.1272 0.64509 0.76344 0.0
H459 H 0.163 0.6317 0.70002 0.0
H460 H 0.19131 0.62242 0.67861 0.0
H461 H 0.19189 0.56334 0.70893 0.0
H462 H 0.16374 0.57237 0.73077 0.0
H463 H 0.06516 0.55768 0.71048 0.0
H464 H 0.09132 0.58289 0.70799 0.0
H465 H 0.09631 0.58321 0.77779 0.0
H466 H 0.07024 0.5585 0.78044 0.0
H467 H 0.12836 0.58171 0.72054 0.0
H468 H 0.10776 0.62952 0.79563 0.0
H469 H 0.07847 0.64017 0.81451 0.0
H470 H 0.04561 0.63347 0.75565 0.0
H471 H 0.07474 0.62307 0.73634 0.0
C472 C 0.19534 0.64202 0.75792 0.0
C473 C 0.19486 0.6632 0.75449 0.0
C474 C 0.17902 0.63001 0.75407 0.0
C475 C 0.16187 0.63883 0.74648 0.0
C476 C 0.16134 0.65995 0.74296 0.0
C477 C 0.17766 0.67201 0.74688 0.0
C478 C 0.14433 0.62609 0.7431 0.0
C479 C 0.12745 0.6313 0.75396 0.0
C480 C 0.14444 0.60832 0.73031 0.0
C481 C 0.16133 0.60278 0.71715 0.0
C482 C 0.16925 0.61678 0.70224 0.0
C483 C 0.18525 0.61156 0.69001 0.0
C484 C 0.19341 0.59232 0.69244 0.0
C485 C 0.18556 0.57825 0.70708 0.0
C486 C 0.16956 0.5834 0.71937 0.0
C487 C 0.07178 0.56322 0.72529 0.0
C488 C 0.0655 0.55613 0.74566 0.0
C489 C 0.08676 0.57758 0.72383 0.0
C490 C 0.0956 0.58517 0.74271 0.0
C491 C 0.08947 0.57792 0.763 0.0
C492 C 0.07456 0.56367 0.76448 0.0
C493 C 0.11151 0.60038 0.74149 0.0
C494 C 0.12808 0.59563 0.72981 0.0
C495 C 0.111 0.6188 0.75317 0.0
C496 C 0.09344 0.62537 0.76458 0.0
C497 C 0.09431 0.63043 0.78668 0.0
C498 C 0.07772 0.6364 0.79747 0.0
C499 C 0.06018 0.63745 0.7863 0.0
C500 C 0.05919 0.63259 0.7643 0.0
C501 C 0.07574 0.62664 0.75344 0.0
H502 H 0.04735 0.64205 0.79469 0.0
H503 H 0.20581 0.5883 0.68295 0.0
H504 H 0.84352 0.64634 0.29742 0.0
H505 H 0.87154 0.62424 0.30206 0.0
H506 H 0.89891 0.65413 0.24778 0.0
H507 H 0.87097 0.67615 0.243 0.0
H508 H 0.89979 0.61198 0.24556 0.0
H509 H 0.91375 0.66437 0.29783 0.0
H510 H 0.90692 0.68572 0.32944 0.0
H511 H 0.90226 0.63237 0.36989 0.0
H512 H 0.9088 0.61068 0.33842 0.0
H513 H 0.99319 0.5759 0.25006 0.0
H514 H 0.96594 0.59888 0.25168 0.0
H515 H 0.94708 0.56939 0.31072 0.0
H516 H 0.97498 0.54671 0.30959 0.0
H517 H 0.94026 0.60933 0.31227 0.0
H518 H 0.9281 0.5568 0.26116 0.0
H519 H 0.93536 0.53507 0.23001 0.0
H520 H 0.93507 0.58727 0.18761 0.0
H521 H 0.92849 0.60946 0.21863 0.0
C522 C 0.85552 0.64817 0.28649 0.0
C523 C 0.85505 0.66301 0.26986 0.0
C524 C 0.87155 0.63564 0.28924 0.0
C525 C 0.88735 0.63761 0.27533 0.0
C526 C 0.8869 0.65238 0.25873 0.0
C527 C 0.87098 0.66503 0.2561 0.0
C528 C 0.90417 0.62395 0.27759 0.0
C529 C 0.90877 0.61155 0.26005 0.0
C530 C 0.91545 0.62287 0.29681 0.0
C531 C 0.91155 0.6359 0.31572 0.0
C532 C 0.91109 0.65718 0.31342 0.0
C533 C 0.90731 0.66935 0.33132 0.0
C534 C 0.9041 0.6604 0.35164 0.0
C535 C 0.90472 0.63928 0.35412 0.0
C536 C 0.90847 0.62704 0.33627 0.0
C537 C 0.98338 0.57446 0.26356 0.0
C538 C 0.98607 0.55936 0.27958 0.0
C539 C 0.96776 0.58756 0.26442 0.0
C540 C 0.95413 0.58551 0.28098 0.0
C541 C 0.95732 0.57116 0.29768 0.0
C542 C 0.97324 0.55822 0.29704 0.0
C543 C 0.93616 0.59766 0.28002 0.0
C544 C 0.93126 0.60966 0.29781 0.0
C545 C 0.92442 0.59823 0.26108 0.0
C546 C 0.92794 0.58484 0.24229 0.0
C547 C 0.9297 0.56368 0.24523 0.0
C548 C 0.93369 0.55128 0.22759 0.0
C549 C 0.93561 0.55977 0.20684 0.0
C550 C 0.93357 0.58071 0.20369 0.0
C551 C 0.92975 0.59322 0.22131 0.0
H552 H 0.93868 0.55013 0.19321 0.0
H553 H 0.90118 0.66985 0.36548 0.0
H554 H 0.87389 0.34765 0.77415 0.0
H555 H 0.89902 0.37383 0.77278 0.0
H556 H 0.87641 0.39561 0.71149 0.0
H557 H 0.8514 0.36918 0.71256 0.0
H558 H 0.91581 0.39193 0.71107 0.0
H559 H 0.86855 0.42212 0.75655 0.0
H560 H 0.84621 0.42354 0.78731 0.0
H561 H 0.89333 0.41596 0.83209 0.0
H562 H 0.91593 0.41421 0.80158 0.0
H563 H 0.97545 0.48167 0.71159 0.0
H564 H 0.94855 0.45741 0.70923 0.0
H565 H 0.96145 0.43587 0.77412 0.0
H566 H 0.98771 0.46043 0.7768 0.0
H567 H 0.92505 0.44113 0.77076 0.0
H568 H 0.97205 0.40843 0.72631 0.0
H569 H 0.9949 0.40591 0.69612 0.0
H570 H 0.94925 0.41698 0.65023 0.0
H571 H 0.92615 0.41981 0.68018 0.0
C572 C 0.87429 0.35797 0.76034 0.0
C573 C 0.86061 0.35634 0.74348 0.0
C574 C 0.88859 0.37302 0.75965 0.0
C575 C 0.88951 0.38679 0.74211 0.0
C576 C 0.87594 0.38518 0.72521 0.0
C577 C 0.86156 0.37019 0.72594 0.0
C578 C 0.90482 0.40268 0.74137 0.0
C579 C 0.91768 0.40291 0.72394 0.0
C580 C 0.90748 0.41673 0.75837 0.0
C581 C 0.89391 0.41787 0.77676 0.0
C582 C 0.87413 0.4206 0.77295 0.0
C583 C 0.86142 0.42149 0.79035 0.0
C584 C 0.86834 0.41979 0.81164 0.0
C585 C 0.88799 0.41725 0.81559 0.0
C586 C 0.90076 0.41633 0.79825 0.0
C587 C 0.9726 0.47163 0.72526 0.0
C588 C 0.98367 0.47301 0.7444 0.0
C589 C 0.95726 0.45772 0.72389 0.0
C590 C 0.95297 0.44466 0.74146 0.0
C591 C 0.96432 0.44582 0.76038 0.0
C592 C 0.9794 0.45986 0.76186 0.0
C593 C 0.9364 0.43016 0.74067 0.0
C594 C 0.9232 0.43023 0.7578 0.0
C595 C 0.93357 0.41627 0.72349 0.0
C596 C 0.94742 0.41456 0.70549 0.0
C597 C 0.96692 0.41049 0.70978 0.0
C598 C 0.9799 0.40897 0.69272 0.0
C599 C 0.97354 0.41135 0.67127 0.0
C600 C 0.95416 0.41518 0.66685 0.0
C601 C 0.94111 0.41673 0.68386 0.0
H602 H 0.98362 0.41016 0.65808 0.0
H603 H 0.85848 0.42049 0.82509 0.0
H604 H 0.28517 0.19622 0.35327 0.0
H605 H 0.28447 0.16664 0.37764 0.0
H606 H 0.22455 0.15683 0.36216 0.0
H607 H 0.22516 0.18627 0.33762 0.0
H608 H 0.23095 0.15442 0.40542 0.0
H609 H 0.25897 0.12603 0.34168 0.0
H610 H 0.28216 0.12414 0.31176 0.0
H611 H 0.32865 0.11895 0.35777 0.0
H612 H 0.30576 0.12109 0.38797 0.0
H613 H 0.22587 0.05769 0.45986 0.0
H614 H 0.22411 0.08503 0.43252 0.0
H615 H 0.28484 0.0967 0.4408 0.0
H616 H 0.28679 0.06931 0.46753 0.0
H617 H 0.2764 0.09709 0.39955 0.0
H618 H 0.24974 0.12767 0.463 0.0
H619 H 0.22744 0.1305 0.49366 0.0
H620 H 0.17951 0.13253 0.44928 0.0
H621 H 0.20153 0.12945 0.41835 0.0
C622 C 0.27191 0.1876 0.35478 0.0
C623 C 0.25522 0.19367 0.34345 0.0
C624 C 0.27152 0.17071 0.36878 0.0
C625 C 0.25448 0.15941 0.37164 0.0
C626 C 0.23784 0.16534 0.36028 0.0
C627 C 0.23822 0.18222 0.34629 0.0
C628 C 0.25391 0.14168 0.38685 0.0
C629 C 0.24068 0.14172 0.40394 0.0
C630 C 0.26688 0.12531 0.38523 0.0
C631 C 0.28066 0.12389 0.36709 0.0
C632 C 0.27415 0.12463 0.34542 0.0
C633 C 0.28724 0.12349 0.32841 0.0
C634 C 0.30687 0.12148 0.33286 0.0
C635 C 0.31344 0.12054 0.35434 0.0
C636 C 0.30041 0.12169 0.37141 0.0
C637 C 0.23882 0.06611 0.45585 0.0
C638 C 0.25646 0.06127 0.4659 0.0
C639 C 0.23779 0.08178 0.44027 0.0
C640 C 0.25433 0.09307 0.43467 0.0
C641 C 0.2719 0.0882 0.44472 0.0
C642 C 0.27296 0.07252 0.4601 0.0
C643 C 0.25359 0.10991 0.41831 0.0
C644 C 0.26657 0.10971 0.40098 0.0
C645 C 0.24052 0.12622 0.41983 0.0
C646 C 0.22726 0.1281 0.43839 0.0
C647 C 0.23443 0.12856 0.45979 0.0
C648 C 0.22185 0.13024 0.47722 0.0
C649 C 0.20206 0.13163 0.47343 0.0
C650 C 0.19483 0.13141 0.4522 0.0
C651 C 0.20736 0.12971 0.43471 0.0
H652 H 0.19234 0.13293 0.48694 0.0
H653 H 0.31698 0.1206 0.31967 0.0
H654 H 0.35236 0.75794 0.86295 0.0
H655 H 0.3777 0.75295 0.89027 0.0
H656 H 0.41049 0.71867 0.84451 0.0
H657 H 0.38509 0.72348 0.81708 0.0
H658 H 0.41015 0.70144 0.88748 0.0
H659 H 0.42273 0.76578 0.85164 0.0
H660 H 0.41413 0.80002 0.83827 0.0
H661 H 0.40143 0.81825 0.90324 0.0
H662 H 0.4097 0.78401 0.91696 0.0
H663 H 0.49842 0.7065 0.94912 0.0
H664 H 0.4732 0.70607 0.92096 0.0
H665 H 0.44332 0.75361 0.95434 0.0
H666 H 0.469 0.75489 0.98144 0.0
H667 H 0.44304 0.76317 0.91535 0.0
H668 H 0.42853 0.69997 0.95206 0.0
H669 H 0.43519 0.66569 0.96677 0.0
H670 H 0.44923 0.64514 0.903 0.0
H671 H 0.44287 0.67937 0.88795 0.0
C672 C 0.36483 0.74909 0.85878 0.0
C673 C 0.36673 0.74118 0.8378 0.0
C674 C 0.37935 0.74634 0.87437 0.0
C675 C 0.39605 0.73556 0.86938 0.0
C676 C 0.39774 0.72705 0.8487 0.0
C677 C 0.38329 0.72995 0.83301 0.0
C678 C 0.41209 0.73406 0.88543 0.0
C679 C 0.41754 0.71488 0.89346 0.0
C680 C 0.42143 0.75162 0.8935 0.0
C681 C 0.41668 0.77228 0.88529 0.0
C682 C 0.41798 0.77705 0.86305 0.0
C683 C 0.41318 0.79646 0.85541 0.0
C684 C 0.4072 0.81129 0.86989 0.0
C685 C 0.40605 0.80675 0.89204 0.0
C686 C 0.41081 0.78735 0.89976 0.0
C687 C 0.48635 0.71669 0.95044 0.0
C688 C 0.48569 0.73079 0.96736 0.0
C689 C 0.47185 0.71639 0.93441 0.0
C690 C 0.45612 0.72972 0.93547 0.0
C691 C 0.45528 0.74329 0.95289 0.0
C692 C 0.46996 0.74397 0.96847 0.0
C693 C 0.44096 0.73048 0.9181 0.0
C694 C 0.43572 0.7496 0.90959 0.0
C695 C 0.43161 0.71286 0.90992 0.0
C696 C 0.43542 0.69228 0.91893 0.0
C697 C 0.43317 0.68818 0.94121 0.0
C698 C 0.43687 0.66875 0.94959 0.0
C699 C 0.44269 0.65326 0.93583 0.0
C700 C 0.44476 0.65716 0.91364 0.0
C701 C 0.44109 0.67656 0.90517 0.0
H702 H 0.44554 0.63824 0.94236 0.0
H703 H 0.40349 0.82631 0.86394 0.0
H704 H 0.82648 0.83872 0.35536 0.0
H705 H 0.8278 0.86837 0.37885 0.0
H706 H 0.76651 0.87564 0.37165 0.0
H707 H 0.76503 0.84582 0.34821 0.0
H708 H 0.78508 0.91194 0.36907 0.0
H709 H 0.78541 0.8542 0.41727 0.0
H710 H 0.79681 0.82136 0.43188 0.0
H711 H 0.85219 0.84787 0.44541 0.0
H712 H 0.84119 0.88083 0.43059 0.0
H713 H 0.76581 0.97279 0.45991 0.0
H714 H 0.7677 0.9456 0.43354 0.0
H715 H 0.82918 0.94326 0.44273 0.0
H716 H 0.82741 0.97061 0.46944 0.0
H717 H 0.81236 0.90525 0.44349 0.0
H718 H 0.81088 0.96389 0.39702 0.0
H719 H 0.79867 0.99664 0.38308 0.0
H720 H 0.74464 0.96839 0.36684 0.0
H721 H 0.75643 0.93551 0.38099 0.0
C722 C 0.81324 0.84652 0.35886 0.0
C723 C 0.79561 0.83972 0.35005 0.0
C724 C 0.81403 0.86352 0.37227 0.0
C725 C 0.79722 0.87408 0.37729 0.0
C726 C 0.77968 0.86772 0.36803 0.0
C727 C 0.77886 0.8507 0.35458 0.0
C728 C 0.79792 0.89152 0.39248 0.0
C729 C 0.79086 0.91042 0.38542 0.0
C730 C 0.80589 0.8897 0.41365 0.0
C731 C 0.81254 0.86992 0.4226 0.0
C732 C 0.80007 0.85298 0.42319 0.0
C733 C 0.80645 0.83436 0.43154 0.0
C734 C 0.82523 0.83251 0.43951 0.0
C735 C 0.83766 0.84931 0.43919 0.0
C736 C 0.83135 0.86797 0.43083 0.0
C737 C 0.77979 0.96661 0.45632 0.0
C738 C 0.79648 0.97394 0.46682 0.0
C739 C 0.78084 0.95109 0.44112 0.0
C740 C 0.7986 0.94251 0.43596 0.0
C741 C 0.81533 0.94971 0.44641 0.0
C742 C 0.8143 0.96538 0.46161 0.0
C743 C 0.79943 0.92564 0.42012 0.0
C744 C 0.80674 0.90683 0.42708 0.0
C745 C 0.7916 0.92753 0.39889 0.0
C746 C 0.7845 0.94726 0.39024 0.0
C747 C 0.79635 0.96468 0.39063 0.0
C748 C 0.78951 0.98327 0.38266 0.0
C749 C 0.77088 0.98461 0.37412 0.0
C750 C 0.75907 0.96734 0.37348 0.0
C751 C 0.76583 0.94871 0.38145 0.0
H752 H 0.76561 0.99901 0.36797 0.0
H753 H 0.83015 0.81808 0.44597 0.0
H754 H 0.69332 0.27107 0.85987 0.0
H755 H 0.66599 0.27311 0.88438 0.0
H756 H 0.64939 0.33003 0.85464 0.0
H757 H 0.67701 0.32835 0.83037 0.0
H758 H 0.64769 0.33145 0.899 0.0
H759 H 0.62481 0.28702 0.84289 0.0
H760 H 0.62611 0.25744 0.81873 0.0
H761 H 0.62697 0.21716 0.87402 0.0
H762 H 0.62593 0.24652 0.89854 0.0
H763 H 0.55699 0.33205 0.95391 0.0
H764 H 0.58232 0.33363 0.92645 0.0
H765 H 0.60012 0.27307 0.94478 0.0
H766 H 0.57457 0.27116 0.97138 0.0
H767 H 0.59974 0.2754 0.90352 0.0
H768 H 0.62529 0.31865 0.95974 0.0
H769 H 0.62522 0.3476 0.98485 0.0
H770 H 0.6206 0.38919 0.9309 0.0
H771 H 0.62041 0.36046 0.90548 0.0
C772 C 0.68393 0.28409 0.8586 0.0
C773 C 0.68736 0.29952 0.84308 0.0
C774 C 0.66821 0.28516 0.87252 0.0
C775 C 0.6555 0.30163 0.87122 0.0
C776 C 0.65895 0.31715 0.8559 0.0
C777 C 0.67465 0.31606 0.8419 0.0
C778 C 0.63869 0.30263 0.88595 0.0
C779 C 0.63702 0.31935 0.89978 0.0
C780 C 0.62497 0.28668 0.88728 0.0
C781 C 0.62544 0.26899 0.87255 0.0
C782 C 0.62541 0.27186 0.8499 0.0
C783 C 0.62608 0.25513 0.83614 0.0
C784 C 0.62666 0.23544 0.84483 0.0
C785 C 0.62653 0.23243 0.86731 0.0
C786 C 0.62588 0.24911 0.88115 0.0
C787 C 0.56636 0.31913 0.95207 0.0
C788 C 0.5637 0.30147 0.96479 0.0
C789 C 0.5809 0.32006 0.93643 0.0
C790 C 0.59333 0.30352 0.93358 0.0
C791 C 0.59072 0.28601 0.94647 0.0
C792 C 0.57608 0.28495 0.96177 0.0
C793 C 0.6089 0.30401 0.91704 0.0
C794 C 0.61031 0.28759 0.90275 0.0
C795 C 0.62249 0.32013 0.91549 0.0
C796 C 0.62261 0.3374 0.93074 0.0
C797 C 0.62411 0.33397 0.95325 0.0
C798 C 0.62415 0.35033 0.96753 0.0
C799 C 0.62284 0.37022 0.95948 0.0
C800 C 0.62156 0.37378 0.93712 0.0
C801 C 0.62151 0.35746 0.92277 0.0
H802 H 0.62287 0.38287 0.97056 0.0
H803 H 0.62719 0.2225 0.83415 0.0
H804 H 0.22525 0.83569 0.66613 0.0
H805 H 0.22348 0.86555 0.64232 0.0
H806 H 0.28437 0.87582 0.65094 0.0
H807 H 0.28629 0.84583 0.67473 0.0
H808 H 0.26478 0.91104 0.65286 0.0
H809 H 0.26663 0.85395 0.60498 0.0
H810 H 0.25608 0.82088 0.5904 0.0
H811 H 0.20043 0.84545 0.57555 0.0
H812 H 0.21057 0.87861 0.59033 0.0
H813 H 0.28574 0.97349 0.5626 0.0
H814 H 0.28324 0.94595 0.58909 0.0
H815 H 0.22219 0.94165 0.57699 0.0
H816 H 0.22458 0.96936 0.55005 0.0
H817 H 0.23933 0.90427 0.57776 0.0
H818 H 0.23866 0.96239 0.62349 0.0
H819 H 0.2499 0.99542 0.6375 0.0
H820 H 0.30392 0.96898 0.65601 0.0
H821 H 0.29313 0.93583 0.64182 0.0
C822 C 0.23831 0.8442 0.66286 0.0
C823 C 0.25596 0.8382 0.6722 0.0
C824 C 0.23726 0.86131 0.64927 0.0
C825 C 0.25383 0.87279 0.64457 0.0
C826 C 0.27138 0.8672 0.65431 0.0
C827 C 0.27245 0.85007 0.66796 0.0
C828 C 0.25292 0.89043 0.62927 0.0
C829 C 0.2594 0.90952 0.63638 0.0
C830 C 0.2454 0.88859 0.60792 0.0
C831 C 0.23929 0.86869 0.59898 0.0
C832 C 0.25209 0.85225 0.59877 0.0
C833 C 0.24619 0.8335 0.59044 0.0
C834 C 0.22758 0.83105 0.58211 0.0
C835 C 0.21483 0.84736 0.58204 0.0
C836 C 0.22065 0.86614 0.59038 0.0
C837 C 0.27171 0.96681 0.56555 0.0
C838 C 0.25533 0.97371 0.55417 0.0
C839 C 0.27031 0.95109 0.58084 0.0
C840 C 0.25251 0.94188 0.58526 0.0
C841 C 0.23608 0.94861 0.57391 0.0
C842 C 0.23746 0.96448 0.55857 0.0
C843 C 0.25137 0.92484 0.60129 0.0
C844 C 0.24453 0.90585 0.59432 0.0
C845 C 0.25861 0.92676 0.62274 0.0
C846 C 0.26513 0.94665 0.63143 0.0
C847 C 0.25299 0.96364 0.6304 0.0
C848 C 0.25928 0.98239 0.6384 0.0
C849 C 0.27763 0.98431 0.6476 0.0
C850 C 0.28972 0.96747 0.64887 0.0
C851 C 0.28351 0.94869 0.64087 0.0
H852 H 0.28246 0.99883 0.65378 0.0
H853 H 0.22304 0.81652 0.57567 0.0
H854 H 0.67323 0.77462 0.18717 0.0
H855 H 0.64796 0.7681 0.16041 0.0
H856 H 0.66545 0.70553 0.15664 0.0
H857 H 0.69076 0.71186 0.18377 0.0
H858 H 0.65768 0.72206 0.1162 0.0
H859 H 0.62596 0.71675 0.18436 0.0
H860 H 0.61689 0.72743 0.22107 0.0
H861 H 0.59052 0.78108 0.19444 0.0
H862 H 0.59968 0.77088 0.15758 0.0
H863 H 0.57113 0.69966 0.05479 0.0
H864 H 0.59624 0.69811 0.08312 0.0
H865 H 0.58756 0.76153 0.09674 0.0
H866 H 0.56267 0.76319 0.06879 0.0
H867 H 0.59032 0.73929 0.13373 0.0
H868 H 0.62499 0.74651 0.06643 0.0
H869 H 0.6344 0.7365 0.02961 0.0
H870 H 0.65519 0.6795 0.05459 0.0
H871 H 0.64564 0.68908 0.09156 0.0
C872 C 0.67164 0.75939 0.18087 0.0
C873 C 0.68394 0.74372 0.1879 0.0
C874 C 0.65719 0.75571 0.16547 0.0
C875 C 0.65459 0.73624 0.15673 0.0
C876 C 0.66715 0.72065 0.1632 0.0
C877 C 0.68165 0.72433 0.17868 0.0
C878 C 0.6386 0.73235 0.14104 0.0
C879 C 0.6429 0.72544 0.12016 0.0
C880 C 0.61931 0.73698 0.14608 0.0
C881 C 0.61363 0.74311 0.16821 0.0
C882 C 0.61834 0.7309 0.18634 0.0
C883 C 0.61317 0.73686 0.20718 0.0
C884 C 0.60316 0.75494 0.21009 0.0
C885 C 0.59828 0.76708 0.19216 0.0
C886 C 0.60344 0.7612 0.17129 0.0
C887 C 0.57452 0.71322 0.06393 0.0
C888 C 0.56491 0.73156 0.05945 0.0
C889 C 0.58892 0.71234 0.08004 0.0
C890 C 0.59388 0.72975 0.09198 0.0
C891 C 0.584 0.74789 0.08779 0.0
C892 C 0.56979 0.74882 0.07169 0.0
C893 C 0.60945 0.72948 0.10874 0.0
C894 C 0.60506 0.7356 0.12986 0.0
C895 C 0.62861 0.72415 0.10388 0.0
C896 C 0.63438 0.7184 0.0817 0.0
C897 C 0.63141 0.73177 0.06404 0.0
C898 C 0.63679 0.72619 0.04315 0.0
C899 C 0.64532 0.70734 0.03975 0.0
C900 C 0.64854 0.69407 0.05725 0.0
C901 C 0.64315 0.69957 0.07817 0.0
H902 H 0.64949 0.70305 0.02357 0.0
H903 H 0.59917 0.75953 0.22623 0.0
H904 H 0.76687 0.15687 0.70069 0.0
H905 H 0.77456 0.13114 0.67395 0.0
H906 H 0.79985 0.17733 0.63275 0.0
H907 H 0.79154 0.20332 0.6591 0.0
H908 H 0.77719 0.15297 0.60971 0.0
H909 H 0.82794 0.14305 0.66136 0.0
H910 H 0.8424 0.13752 0.6976 0.0
H911 H 0.81179 0.08084 0.70391 0.0
H912 H 0.79692 0.08617 0.66782 0.0
H913 H 0.81787 0.07757 0.53909 0.0
H914 H 0.8175 0.10482 0.56623 0.0
H915 H 0.77873 0.06907 0.60561 0.0
H916 H 0.77844 0.04233 0.57825 0.0
H917 H 0.81152 0.08928 0.6286 0.0
H918 H 0.75927 0.1005 0.57833 0.0
H919 H 0.74361 0.10661 0.54288 0.0
H920 H 0.77626 0.1618 0.5348 0.0
H921 H 0.79272 0.15557 0.56982 0.0
C922 C 0.77398 0.16161 0.6859 0.0
C923 C 0.77854 0.18222 0.68207 0.0
C924 C 0.77859 0.14682 0.67071 0.0
C925 C 0.78803 0.15222 0.65142 0.0
C926 C 0.79266 0.17276 0.64756 0.0
C927 C 0.78803 0.18759 0.66273 0.0
C928 C 0.7923 0.13654 0.63492 0.0
C929 C 0.78508 0.13926 0.61374 0.0
C930 C 0.80223 0.1184 0.64026 0.0
C931 C 0.8112 0.11509 0.66194 0.0
C932 C 0.82418 0.12948 0.67054 0.0
C933 C 0.83247 0.12636 0.69104 0.0
C934 C 0.82798 0.10886 0.70307 0.0
C935 C 0.81524 0.0944 0.69458 0.0
C936 C 0.80689 0.09745 0.67409 0.0
C937 C 0.80954 0.07547 0.55372 0.0
C938 C 0.79821 0.0579 0.55668 0.0
C939 C 0.80926 0.09103 0.56912 0.0
C940 C 0.79805 0.08893 0.58788 0.0
C941 C 0.78749 0.07095 0.59128 0.0
C942 C 0.78732 0.05573 0.57565 0.0
C943 C 0.79638 0.10579 0.60353 0.0
C944 C 0.80399 0.10321 0.62453 0.0
C945 C 0.78682 0.12406 0.59805 0.0
C946 C 0.77754 0.12733 0.57652 0.0
C947 C 0.76347 0.11368 0.56878 0.0
C948 C 0.75438 0.1172 0.54877 0.0
C949 C 0.759 0.13452 0.53653 0.0
C950 C 0.77276 0.14832 0.54423 0.0
C951 C 0.78205 0.14475 0.56411 0.0
H952 H 0.75183 0.13729 0.52113 0.0
H953 H 0.83442 0.10648 0.71894 0.0
H954 H 0.35532 0.32001 0.17193 0.0
H955 H 0.38142 0.32699 0.14651 0.0
H956 H 0.40401 0.26702 0.15862 0.0
H957 H 0.37862 0.26031 0.18475 0.0
H958 H 0.43235 0.29332 0.15769 0.0
H959 H 0.37707 0.27982 0.11196 0.0
H960 H 0.34411 0.28505 0.09802 0.0
H961 H 0.3586 0.34647 0.07991 0.0
H962 H 0.3916 0.34167 0.094 0.0
H963 H 0.48673 0.27103 0.06609 0.0
H964 H 0.46218 0.27324 0.09376 0.0
H965 H 0.45341 0.3364 0.07739 0.0
H966 H 0.47823 0.33432 0.04931 0.0
H967 H 0.41897 0.31415 0.08145 0.0
H968 H 0.47596 0.32533 0.12351 0.0
H969 H 0.50899 0.31862 0.13642 0.0
H970 H 0.49126 0.26005 0.16066 0.0
H971 H 0.45816 0.26627 0.14763 0.0
C972 C 0.36595 0.30837 0.16937 0.0
C973 C 0.36472 0.28952 0.18037 0.0
C974 C 0.38078 0.31232 0.15462 0.0
C975 C 0.39461 0.29745 0.15038 0.0
C976 C 0.39353 0.27875 0.16152 0.0
C977 C 0.37881 0.27484 0.17632 0.0
C978 C 0.41027 0.30116 0.13439 0.0
C979 C 0.42937 0.29775 0.14099 0.0
C980 C 0.40655 0.30756 0.11272 0.0
C981 C 0.38672 0.31046 0.10428 0.0
C982 C 0.37318 0.29449 0.10518 0.0
C983 C 0.3545 0.29736 0.09721 0.0
C984 C 0.34925 0.3161 0.08815 0.0
C985 C 0.36268 0.33198 0.08698 0.0
C986 C 0.38137 0.32919 0.09494 0.0
C987 C 0.47969 0.28548 0.06834 0.0
C988 C 0.4845 0.30253 0.05544 0.0
C989 C 0.46568 0.28671 0.08429 0.0
C990 C 0.45607 0.30502 0.08783 0.0
C991 C 0.46071 0.32213 0.07498 0.0
C992 C 0.47493 0.32095 0.05902 0.0
C993 C 0.4409 0.3058 0.10467 0.0
C994 C 0.42193 0.31005 0.09825 0.0
C995 C 0.44471 0.30001 0.12647 0.0
C996 C 0.46458 0.29624 0.13448 0.0
C997 C 0.47913 0.31096 0.13146 0.0
C998 C 0.49786 0.30725 0.13882 0.0
C999 C 0.50222 0.28892 0.14934 0.0
C1000 C 0.48785 0.27425 0.15253 0.0
C1001 C 0.46909 0.27787 0.14519 0.0
H1002 H 0.51671 0.2861 0.15507 0.0
H1003 H 0.33478 0.31829 0.08199 0.0
H1004 H 0.88281 0.69296 0.80078 0.0
H1005 H 0.90957 0.66903 0.80114 0.0
H1006 H 0.87192 0.62214 0.77632 0.0
H1007 H 0.84511 0.64594 0.77605 0.0
H1008 H 0.89388 0.60673 0.80723 0.0
H1009 H 0.90446 0.64786 0.74355 0.0
H1010 H 0.909 0.67975 0.72275 0.0
H1011 H 0.95925 0.69387 0.76086 0.0
H1012 H 0.95486 0.66217 0.78209 0.0
H1013 H 0.98167 0.56182 0.74842 0.0
H1014 H 0.9563 0.5868 0.7516 0.0
H1015 H 0.9585 0.58055 0.82132 0.0
H1016 H 0.98391 0.55508 0.81825 0.0
H1017 H 0.95467 0.62291 0.76908 0.0
H1018 H 0.91269 0.58786 0.84086 0.0
H1019 H 0.90671 0.55429 0.85789 0.0
H1020 H 0.91685 0.52518 0.79707 0.0
H1021 H 0.92264 0.55857 0.77964 0.0
C1022 C 0.88026 0.6776 0.79521 0.0
C1023 C 0.8618 0.67141 0.78832 0.0
C1024 C 0.89558 0.66391 0.79548 0.0
C1025 C 0.89285 0.64377 0.7886 0.0
C1026 C 0.87441 0.63754 0.78182 0.0
C1027 C 0.85907 0.65118 0.78167 0.0
C1028 C 0.90918 0.62921 0.78827 0.0
C1029 C 0.9072 0.61034 0.79897 0.0
C1030 C 0.92653 0.6337 0.77729 0.0
C1031 C 0.92921 0.65276 0.76455 0.0
C1032 C 0.91639 0.65785 0.7476 0.0
C1033 C 0.91895 0.67587 0.73572 0.0
C1034 C 0.93437 0.68886 0.74052 0.0
C1035 C 0.94729 0.68382 0.75719 0.0
C1036 C 0.94478 0.66581 0.76914 0.0
C1037 C 0.97684 0.5657 0.76449 0.0
C1038 C 0.98483 0.55631 0.78309 0.0
C1039 C 0.96233 0.58012 0.76627 0.0
C1040 C 0.95535 0.58553 0.78667 0.0
C1041 C 0.96347 0.57646 0.80536 0.0
C1042 C 0.97805 0.56195 0.80359 0.0
C1043 C 0.93939 0.60045 0.78805 0.0
C1044 C 0.94144 0.61941 0.77757 0.0
C1045 C 0.92194 0.59583 0.79878 0.0
C1046 C 0.91833 0.57569 0.80904 0.0
C1047 C 0.9136 0.57429 0.83112 0.0
C1048 C 0.91024 0.5553 0.84084 0.0
C1049 C 0.91147 0.53761 0.82859 0.0
C1050 C 0.91598 0.53888 0.80657 0.0
C1051 C 0.91933 0.55783 0.79677 0.0
H1052 H 0.90888 0.52293 0.83615 0.0
H1053 H 0.93633 0.70281 0.7313 0.0
H1054 H 0.86807 0.35689 0.19909 0.0
H1055 H 0.8941 0.38204 0.19888 0.0
H1056 H 0.88906 0.38852 0.26815 0.0
H1057 H 0.86251 0.3639 0.26838 0.0
H1058 H 0.89167 0.4248 0.24905 0.0
H1059 H 0.92656 0.36237 0.24517 0.0
H1060 H 0.93503 0.32896 0.23041 0.0
H1061 H 0.94933 0.35704 0.16938 0.0
H1062 H 0.94069 0.39061 0.18369 0.0
H1063 H 0.9787 0.47496 0.27342 0.0
H1064 H 0.95288 0.45002 0.26986 0.0
H1065 H 0.95914 0.45114 0.20032 0.0
H1066 H 0.9853 0.47632 0.20374 0.0
H1067 H 0.95561 0.41182 0.21723 0.0
H1068 H 0.92082 0.47428 0.22142 0.0
H1069 H 0.91226 0.50757 0.23638 0.0
H1070 H 0.8984 0.4792 0.29737 0.0
H1071 H 0.9068 0.44568 0.28273 0.0
C1072 C 0.87242 0.36371 0.21429 0.0
C1073 C 0.86311 0.35835 0.23376 0.0
C1074 C 0.88747 0.37796 0.21417 0.0
C1075 C 0.89371 0.38709 0.23353 0.0
C1076 C 0.88455 0.38167 0.253 0.0
C1077 C 0.86948 0.36743 0.25314 0.0
C1078 C 0.90937 0.40271 0.23341 0.0
C1079 C 0.90571 0.42183 0.24233 0.0
C1080 C 0.92757 0.39914 0.22406 0.0
C1081 C 0.93278 0.37897 0.21543 0.0
C1082 C 0.93136 0.3614 0.22854 0.0
C1083 C 0.93622 0.34244 0.22027 0.0
C1084 C 0.94266 0.34087 0.19895 0.0
C1085 C 0.9443 0.35827 0.18588 0.0
C1086 C 0.93944 0.37728 0.19407 0.0
C1087 C 0.97466 0.46999 0.2573 0.0
C1088 C 0.98411 0.47773 0.23884 0.0
C1089 C 0.95978 0.45574 0.25531 0.0
C1090 C 0.95389 0.44886 0.23482 0.0
C1091 C 0.96341 0.4563 0.2163 0.0
C1092 C 0.97832 0.47072 0.21827 0.0
C1093 C 0.93791 0.43376 0.23306 0.0
C1094 C 0.94151 0.41477 0.22382 0.0
C1095 C 0.91965 0.4374 0.24215 0.0
C1096 C 0.91459 0.45751 0.25103 0.0
C1097 C 0.91607 0.47516 0.23807 0.0
C1098 C 0.91123 0.49407 0.24648 0.0
C1099 C 0.90493 0.49554 0.26786 0.0
C1100 C 0.90332 0.47805 0.28083 0.0
C1101 C 0.90805 0.45908 0.27245 0.0
H1102 H 0.90122 0.5102 0.27435 0.0
H1103 H 0.94642 0.32617 0.19258 0.0
H1104 H 0.18046 0.35234 0.82113 0.0
H1105 H 0.1543 0.37688 0.82085 0.0
H1106 H 0.16115 0.38591 0.75193 0.0
H1107 H 0.18781 0.36187 0.75221 0.0
H1108 H 0.15747 0.42151 0.77161 0.0
H1109 H 0.12342 0.35792 0.77276 0.0
H1110 H 0.115 0.32361 0.78628 0.0
H1111 H 0.09861 0.34847 0.84746 0.0
H1112 H 0.10719 0.38293 0.8344 0.0
H1113 H 0.07036 0.47119 0.74726 0.0
H1114 H 0.09596 0.44623 0.75003 0.0
H1115 H 0.08923 0.44349 0.81947 0.0
H1116 H 0.06335 0.46862 0.81686 0.0
H1117 H 0.09297 0.4052 0.80111 0.0
H1118 H 0.12626 0.46919 0.79895 0.0
H1119 H 0.13411 0.50335 0.78457 0.0
H1120 H 0.15155 0.47739 0.72431 0.0
H1121 H 0.14353 0.44308 0.73821 0.0
C1122 C 0.1765 0.35961 0.8059 0.0
C1123 C 0.18632 0.35511 0.78668 0.0
C1124 C 0.16137 0.37351 0.80574 0.0
C1125 C 0.15558 0.38315 0.78633 0.0
C1126 C 0.1653 0.37866 0.7671 0.0
C1127 C 0.18045 0.36475 0.76725 0.0
C1128 C 0.13969 0.39824 0.78617 0.0
C1129 C 0.14331 0.41783 0.77781 0.0
C1130 C 0.12131 0.39368 0.79478 0.0
C1131 C 0.11614 0.37298 0.80268 0.0
C1132 C 0.11818 0.35606 0.78916 0.0
C1133 C 0.11334 0.33658 0.79673 0.0
C1134 C 0.10633 0.33385 0.81773 0.0
C1135 C 0.10408 0.3506 0.8312 0.0
C1136 C 0.10891 0.37011 0.82372 0.0
C1137 C 0.07424 0.46532 0.76317 0.0
C1138 C 0.0648 0.47202 0.78187 0.0
C1139 C 0.08897 0.45106 0.76472 0.0
C1140 C 0.09469 0.44314 0.78497 0.0
C1141 C 0.08509 0.44945 0.80367 0.0
C1142 C 0.07035 0.46385 0.80216 0.0
C1143 C 0.11076 0.42835 0.78641 0.0
C1144 C 0.10718 0.40886 0.79501 0.0
C1145 C 0.12916 0.43295 0.77793 0.0
C1146 C 0.13413 0.45357 0.76957 0.0
C1147 C 0.13163 0.47077 0.78257 0.0
C1148 C 0.13613 0.49016 0.77452 0.0
C1149 C 0.14328 0.49255 0.75353 0.0
C1150 C 0.14599 0.47553 0.74056 0.0
C1151 C 0.14149 0.4561 0.74853 0.0
H1152 H 0.14675 0.50757 0.74732 0.0
H1153 H 0.10259 0.31876 0.82356 0.0
H1154 H 0.18459 0.6711 0.28559 0.0
H1155 H 0.16063 0.64449 0.2792 0.0
H1156 H 0.15467 0.66437 0.21258 0.0
H1157 H 0.17835 0.69152 0.21904 0.0
H1158 H 0.11995 0.65703 0.23029 0.0
H1159 H 0.17869 0.621 0.2249 0.0
H1160 H 0.21107 0.60961 0.23583 0.0
H1161 H 0.18802 0.58212 0.2936 0.0
H1162 H 0.15553 0.59361 0.28318 0.0
H1163 H 0.06244 0.56758 0.20747 0.0
H1164 H 0.08821 0.59333 0.2058 0.0
H1165 H 0.10012 0.58386 0.27394 0.0
H1166 H 0.07462 0.55834 0.27576 0.0
H1167 H 0.13302 0.58514 0.25016 0.0
H1168 H 0.07492 0.62445 0.25686 0.0
H1169 H 0.04259 0.63587 0.24572 0.0
H1170 H 0.0648 0.65686 0.18461 0.0
H1171 H 0.09724 0.6453 0.19529 0.0
C1172 C 0.17812 0.66993 0.26959 0.0
C1173 C 0.18341 0.68351 0.25284 0.0
C1174 C 0.16454 0.65454 0.2659 0.0
C1175 C 0.15598 0.65223 0.24533 0.0
C1176 C 0.16114 0.66578 0.22856 0.0
C1177 C 0.17479 0.6812 0.23224 0.0
C1178 C 0.14139 0.63587 0.24163 0.0
C1179 C 0.12293 0.64125 0.23423 0.0
C1180 C 0.14515 0.61528 0.24698 0.0
C1181 C 0.16468 0.60832 0.25333 0.0
C1182 C 0.18054 0.61267 0.24002 0.0
C1183 C 0.19892 0.60617 0.24611 0.0
C1184 C 0.20161 0.59518 0.26542 0.0
C1185 C 0.18592 0.59064 0.27865 0.0
C1186 C 0.16751 0.59713 0.27265 0.0
C1187 C 0.07058 0.57099 0.22206 0.0
C1188 C 0.06639 0.56093 0.24175 0.0
C1189 C 0.08526 0.58574 0.2211 0.0
C1190 C 0.09606 0.59059 0.23978 0.0
C1191 C 0.09204 0.58036 0.25931 0.0
C1192 C 0.07734 0.56581 0.26033 0.0
C1193 C 0.11151 0.60639 0.23933 0.0
C1194 C 0.13014 0.60089 0.24593 0.0
C1195 C 0.10792 0.62682 0.23318 0.0
C1196 C 0.08844 0.63378 0.22676 0.0
C1197 C 0.07287 0.63133 0.24097 0.0
C1198 C 0.05454 0.63786 0.23475 0.0
C1199 C 0.05163 0.64702 0.21444 0.0
C1200 C 0.06707 0.64972 0.20032 0.0
C1201 C 0.08543 0.64319 0.20645 0.0
H1202 H 0.03743 0.65207 0.20966 0.0
H1203 H 0.21585 0.59016 0.2701 0.0
H1204 H 0.81149 0.85116 0.67575 0.0
H1205 H 0.80478 0.87985 0.65148 0.0
H1206 H 0.74439 0.8645 0.6519 0.0
H1207 H 0.75108 0.83531 0.67576 0.0
H1208 H 0.75629 0.87384 0.61125 0.0
H1209 H 0.76087 0.90456 0.68079 0.0
H1210 H 0.77525 0.91211 0.71656 0.0
H1211 H 0.82483 0.93826 0.68567 0.0
H1212 H 0.81088 0.9306 0.64971 0.0
H1213 H 0.73596 0.96847 0.55563 0.0
H1214 H 0.73537 0.94107 0.58306 0.0
H1215 H 0.79687 0.94639 0.5909 0.0
H1216 H 0.79759 0.97362 0.56391 0.0
H1217 H 0.77963 0.94308 0.62959 0.0
H1218 H 0.77647 0.90874 0.56046 0.0
H1219 H 0.76228 0.90092 0.52465 0.0
H1220 H 0.7098 0.88169 0.55505 0.0
H1221 H 0.72361 0.88966 0.59104 0.0
C1222 C 0.79679 0.85374 0.67055 0.0
C1223 C 0.78183 0.8409 0.67774 0.0
C1224 C 0.79294 0.8703 0.65684 0.0
C1225 C 0.77403 0.87452 0.65007 0.0
C1226 C 0.75907 0.86162 0.65699 0.0
C1227 C 0.76291 0.84503 0.67077 0.0
C1228 C 0.77007 0.8923 0.63561 0.0
C1229 C 0.76106 0.88906 0.61544 0.0
C1230 C 0.77645 0.91214 0.64094 0.0
C1231 C 0.78488 0.91687 0.66254 0.0
C1232 C 0.7749 0.91179 0.68162 0.0
C1233 C 0.78297 0.91611 0.70193 0.0
C1234 C 0.80096 0.92562 0.70339 0.0
C1235 C 0.8109 0.93088 0.68452 0.0
C1236 C 0.80291 0.92658 0.66417 0.0
C1237 C 0.74932 0.96384 0.56329 0.0
C1238 C 0.76682 0.97321 0.55748 0.0
C1239 C 0.74898 0.94814 0.5789 0.0
C1240 C 0.76611 0.94157 0.58895 0.0
C1241 C 0.78347 0.95119 0.58342 0.0
C1242 C 0.78384 0.96674 0.56787 0.0
C1243 C 0.76632 0.92452 0.60502 0.0
C1244 C 0.77461 0.92792 0.62554 0.0
C1245 C 0.75926 0.90485 0.6 0.0
C1246 C 0.75098 0.90003 0.5784 0.0
C1247 C 0.76185 0.90301 0.55949 0.0
C1248 C 0.75389 0.89852 0.53916 0.0
C1249 C 0.73513 0.89088 0.53757 0.0
C1250 C 0.72432 0.88766 0.55631 0.0
C1251 C 0.7322 0.89215 0.57667 0.0
H1252 H 0.729 0.88741 0.52182 0.0
H1253 H 0.80718 0.92895 0.71913 0.0
H1254 H 0.70403 0.25045 0.15471 0.0
H1255 H 0.67795 0.25093 0.12782 0.0
H1256 H 0.64159 0.28145 0.17327 0.0
H1257 H 0.66758 0.28093 0.20025 0.0
H1258 H 0.62185 0.25237 0.15377 0.0
H1259 H 0.66293 0.3072 0.13087 0.0
H1260 H 0.69341 0.3236 0.12002 0.0
H1261 H 0.69731 0.28348 0.06577 0.0
H1262 H 0.66695 0.26665 0.07647 0.0
H1263 H 0.57107 0.30181 0.05418 0.0
H1264 H 0.59711 0.30013 0.0808 0.0
H1265 H 0.58987 0.23506 0.08559 0.0
H1266 H 0.56354 0.2366 0.05886 0.0
H1267 H 0.63121 0.28161 0.08004 0.0
H1268 H 0.59977 0.22128 0.13926 0.0
H1269 H 0.56808 0.20863 0.1513 0.0
H1270 H 0.54287 0.26624 0.135 0.0
H1271 H 0.57445 0.27934 0.12327 0.0
C1272 C 0.69055 0.25747 0.1589 0.0
C1273 C 0.68791 0.26571 0.17961 0.0
C1274 C 0.67562 0.25767 0.14353 0.0
C1275 C 0.65782 0.26635 0.14845 0.0
C1276 C 0.65515 0.27458 0.16912 0.0
C1277 C 0.67003 0.27427 0.18453 0.0
C1278 C 0.64197 0.26691 0.13207 0.0
C1279 C 0.62394 0.2587 0.13763 0.0
C1280 C 0.64453 0.27544 0.11109 0.0
C1281 C 0.66278 0.28553 0.10461 0.0
C1282 C 0.67036 0.30177 0.11673 0.0
C1283 C 0.6876 0.31116 0.11059 0.0
C1284 C 0.69732 0.30455 0.09226 0.0
C1285 C 0.68978 0.28856 0.07999 0.0
C1286 C 0.67256 0.2791 0.08607 0.0
C1287 C 0.57494 0.2871 0.06087 0.0
C1288 C 0.56514 0.26933 0.0544 0.0
C1289 C 0.58993 0.28617 0.07604 0.0
C1290 C 0.59541 0.2675 0.08526 0.0
C1291 C 0.58576 0.24967 0.07882 0.0
C1292 C 0.57075 0.25057 0.06351 0.0
C1293 C 0.61118 0.26691 0.10168 0.0
C1294 C 0.6292 0.2751 0.09612 0.0
C1295 C 0.60845 0.25882 0.12281 0.0
C1296 C 0.58944 0.25118 0.13013 0.0
C1297 C 0.58748 0.23126 0.13833 0.0
C1298 C 0.56953 0.22402 0.14511 0.0
C1299 C 0.55346 0.2366 0.14386 0.0
C1300 C 0.55531 0.25649 0.13592 0.0
C1301 C 0.57323 0.26382 0.12917 0.0
H1302 H 0.53958 0.23096 0.14909 0.0
H1303 H 0.71066 0.31184 0.08753 0.0
H1304 H 0.23952 0.17729 0.67551 0.0
H1305 H 0.24699 0.14898 0.65178 0.0
H1306 H 0.30457 0.17245 0.64367 0.0
H1307 H 0.29705 0.20116 0.66706 0.0
H1308 H 0.28904 0.1603 0.6052 0.0
H1309 H 0.29696 0.13179 0.67617 0.0
H1310 H 0.28805 0.12348 0.71388 0.0
H1311 H 0.23924 0.08923 0.69105 0.0
H1312 H 0.24769 0.09758 0.65319 0.0
H1313 H 0.31601 0.06811 0.55172 0.0
H1314 H 0.31603 0.09567 0.57838 0.0
H1315 H 0.25667 0.08238 0.59282 0.0
H1316 H 0.25652 0.05509 0.56645 0.0
H1317 H 0.27783 0.0891 0.62963 0.0
H1318 H 0.26782 0.1209 0.55934 0.0
H1319 H 0.27622 0.12934 0.52149 0.0
H1320 H 0.32888 0.15731 0.54321 0.0
H1321 H 0.32088 0.14879 0.58119 0.0
C1322 C 0.25373 0.17655 0.66855 0.0
C1323 C 0.26769 0.19151 0.67322 0.0
C1324 C 0.25804 0.16023 0.65514 0.0
C1325 C 0.27643 0.15843 0.64615 0.0
C1326 C 0.29033 0.17346 0.65052 0.0
C1327 C 0.28604 0.18979 0.66401 0.0
C1328 C 0.28095 0.14091 0.63205 0.0
C1329 C 0.28696 0.14472 0.61068 0.0
C1330 C 0.278 0.12056 0.63908 0.0
C1331 C 0.27289 0.11545 0.66184 0.0
C1332 C 0.28424 0.12261 0.67919 0.0
C1333 C 0.27929 0.11787 0.7006 0.0
C1334 C 0.26307 0.10587 0.70486 0.0
C1335 C 0.25179 0.09854 0.68772 0.0
C1336 C 0.25667 0.10325 0.66629 0.0
C1337 C 0.30305 0.07097 0.56074 0.0
C1338 C 0.28624 0.05948 0.55687 0.0
C1339 C 0.30305 0.08676 0.57589 0.0
C1340 C 0.28629 0.09117 0.58748 0.0
C1341 C 0.26975 0.07927 0.5841 0.0
C1342 C 0.26969 0.0637 0.56891 0.0
C1343 C 0.28552 0.10853 0.6027 0.0
C1344 C 0.28021 0.10468 0.62428 0.0
C1345 C 0.28908 0.12881 0.59586 0.0
C1346 C 0.29387 0.13398 0.57306 0.0
C1347 C 0.28127 0.12869 0.55602 0.0
C1348 C 0.28594 0.13352 0.53455 0.0
C1349 C 0.30311 0.14379 0.52994 0.0
C1350 C 0.31561 0.14931 0.5468 0.0
C1351 C 0.31101 0.14449 0.5683 0.0
H1352 H 0.3067 0.14752 0.51331 0.0
H1353 H 0.25926 0.10221 0.72145 0.0
H1354 H 0.36162 0.78502 0.17924 0.0
H1355 H 0.39013 0.78925 0.15662 0.0
H1356 H 0.37817 0.7316 0.12654 0.0
H1357 H 0.34936 0.7275 0.14849 0.0
H1358 H 0.41636 0.73604 0.14022 0.0
H1359 H 0.36846 0.77434 0.09973 0.0
H1360 H 0.34408 0.80109 0.0952 0.0
H1361 H 0.38632 0.8467 0.11094 0.0
H1362 H 0.4109 0.82016 0.11586 0.0
H1363 H 0.47365 0.73289 0.04852 0.0
H1364 H 0.44702 0.73405 0.0737 0.0
H1365 H 0.46194 0.79596 0.08961 0.0
H1366 H 0.48848 0.79511 0.06359 0.0
H1367 H 0.42431 0.79222 0.0866 0.0
H1368 H 0.47285 0.75552 0.12455 0.0
H1369 H 0.49786 0.7296 0.13018 0.0
H1370 H 0.45574 0.68221 0.12159 0.0
H1371 H 0.43052 0.70785 0.11559 0.0
C1372 C 0.36487 0.77335 0.16761 0.0
C1373 C 0.35312 0.75589 0.16577 0.0
C1374 C 0.38124 0.77577 0.15477 0.0
C1375 C 0.38624 0.76076 0.13987 0.0
C1376 C 0.37463 0.74332 0.13802 0.0
C1377 C 0.35819 0.74096 0.1507 0.0
C1378 C 0.40368 0.76296 0.12631 0.0
C1379 C 0.41805 0.74822 0.12836 0.0
C1380 C 0.40621 0.77932 0.11147 0.0
C1381 C 0.39146 0.79525 0.10841 0.0
C1382 C 0.37251 0.79006 0.10241 0.0
C1383 C 0.35866 0.80518 0.09973 0.0
C1384 C 0.36363 0.82558 0.10284 0.0
C1385 C 0.38248 0.83089 0.10857 0.0
C1386 C 0.39638 0.81582 0.1113 0.0
C1387 C 0.47136 0.74678 0.05738 0.0
C1388 C 0.48334 0.76385 0.05421 0.0
C1389 C 0.45612 0.74739 0.07189 0.0
C1390 C 0.45271 0.76491 0.08402 0.0
C1391 C 0.46437 0.7822 0.08057 0.0
C1392 C 0.47954 0.7817 0.06574 0.0
C1393 C 0.43685 0.76496 0.10008 0.0
C1394 C 0.42279 0.78015 0.0986 0.0
C1395 C 0.43471 0.74915 0.11571 0.0
C1396 C 0.44981 0.73363 0.11948 0.0
C1397 C 0.46894 0.73958 0.12373 0.0
C1398 C 0.48315 0.72493 0.127 0.0
C1399 C 0.4784 0.70427 0.1262 0.0
C1400 C 0.45941 0.69822 0.12219 0.0
C1401 C 0.44514 0.71281 0.11889 0.0
H1402 H 0.48942 0.69295 0.12873 0.0
H1403 H 0.35289 0.83726 0.10076 0.0
H1404 H 0.79977 0.16851 0.33101 0.0
H1405 H 0.7924 0.14017 0.35572 0.0
H1406 H 0.75402 0.17847 0.3912 0.0
H1407 H 0.76147 0.20695 0.36664 0.0
H1408 H 0.77885 0.15695 0.41796 0.0
H1409 H 0.73565 0.14291 0.35882 0.0
H1410 H 0.72651 0.13738 0.32058 0.0
H1411 H 0.76412 0.08604 0.31811 0.0
H1412 H 0.77372 0.09144 0.35626 0.0
H1413 H 0.74081 0.07454 0.48219 0.0
H1414 H 0.7408 0.10267 0.45547 0.0
H1415 H 0.78426 0.0722 0.41879 0.0
H1416 H 0.78477 0.04456 0.4457 0.0
H1417 H 0.7539 0.09027 0.39281 0.0
H1418 H 0.79931 0.10512 0.44914 0.0
H1419 H 0.81127 0.11079 0.48635 0.0
H1420 H 0.77245 0.1607 0.49304 0.0
H1421 H 0.75979 0.15488 0.45609 0.0
C1422 C 0.7898 0.17091 0.3441 0.0
C1423 C 0.78121 0.18998 0.34687 0.0
C1424 C 0.78547 0.15465 0.3581 0.0
C1425 C 0.77251 0.15714 0.3752 0.0
C1426 C 0.76398 0.17618 0.37806 0.0
C1427 C 0.76817 0.1924 0.36395 0.0
C1428 C 0.76841 0.14005 0.39049 0.0
C1429 C 0.77299 0.14252 0.41254 0.0
C1430 C 0.7613 0.12101 0.3833 0.0
C1431 C 0.75553 0.11769 0.36036 0.0
C1432 C 0.7421 0.13054 0.35008 0.0
C1433 C 0.73681 0.12741 0.32842 0.0
C1434 C 0.74476 0.1114 0.3169 0.0
C1435 C 0.75799 0.09845 0.32704 0.0
C1436 C 0.76334 0.10153 0.34869 0.0
C1437 C 0.75006 0.07373 0.4682 0.0
C1438 C 0.7628 0.05745 0.46595 0.0
C1439 C 0.75012 0.0898 0.45303 0.0
C1440 C 0.76259 0.08951 0.4352 0.0
C1441 C 0.77452 0.07269 0.43239 0.0
C1442 C 0.77482 0.05696 0.44778 0.0
C1443 C 0.76427 0.10726 0.42024 0.0
C1444 C 0.75938 0.10485 0.39827 0.0
C1445 C 0.77131 0.12629 0.42743 0.0
C1446 C 0.77834 0.12932 0.44998 0.0
C1447 C 0.79303 0.11704 0.45869 0.0
C1448 C 0.79998 0.12031 0.47972 0.0
C1449 C 0.79257 0.13603 0.49209 0.0
C1450 C 0.77812 0.14845 0.48349 0.0
C1451 C 0.77099 0.14513 0.46253 0.0
H1452 H 0.79814 0.13865 0.50828 0.0
H1453 H 0.74065 0.109 0.30014 0.0
H1454 H 0.35463 0.22364 0.85506 0.0
H1455 H 0.38136 0.22458 0.88103 0.0
H1456 H 0.38759 0.28919 0.87025 0.0
H1457 H 0.36125 0.28825 0.84367 0.0
H1458 H 0.42173 0.27097 0.86933 0.0
H1459 H 0.36754 0.26987 0.91686 0.0
H1460 H 0.33697 0.25692 0.93176 0.0
H1461 H 0.36379 0.20021 0.94836 0.0
H1462 H 0.39447 0.21273 0.93329 0.0
H1463 H 0.48015 0.29715 0.95875 0.0
H1464 H 0.45375 0.29305 0.93296 0.0
H1465 H 0.45338 0.22833 0.94491 0.0
H1466 H 0.47994 0.23232 0.97113 0.0
H1467 H 0.41691 0.24456 0.94483 0.0
H1468 H 0.4717 0.24673 0.89849 0.0
H1469 H 0.50219 0.26043 0.88414 0.0
H1470 H 0.47405 0.31592 0.86567 0.0
H1471 H 0.44344 0.30267 0.88019 0.0
C1472 C 0.36172 0.23806 0.85815 0.0
C1473 C 0.3558 0.25588 0.84722 0.0
C1474 C 0.3769 0.2386 0.87317 0.0
C1475 C 0.38642 0.25698 0.87774 0.0
C1476 C 0.38044 0.27483 0.86702 0.0
C1477 C 0.36526 0.2743 0.85197 0.0
C1478 C 0.40297 0.25751 0.89319 0.0
C1479 C 0.4206 0.26542 0.88592 0.0
C1480 C 0.40167 0.24973 0.91466 0.0
C1481 C 0.38325 0.24216 0.92373 0.0
C1482 C 0.36688 0.25457 0.92352 0.0
C1483 C 0.34954 0.24733 0.93203 0.0
C1484 C 0.34842 0.22774 0.94095 0.0
C1485 C 0.36467 0.21537 0.94142 0.0
C1486 C 0.38204 0.22254 0.93291 0.0
C1487 C 0.47456 0.28199 0.95592 0.0
C1488 C 0.48224 0.26504 0.96701 0.0
C1489 C 0.45948 0.27968 0.94106 0.0
C1490 C 0.45172 0.26037 0.93681 0.0
C1491 C 0.45921 0.24337 0.94791 0.0
C1492 C 0.47442 0.24567 0.9628 0.0
C1493 C 0.43558 0.2582 0.92101 0.0
C1494 C 0.41805 0.24998 0.9282 0.0
C1495 C 0.43693 0.26577 0.89948 0.0
C1496 C 0.4553 0.27375 0.89059 0.0
C1497 C 0.47204 0.26191 0.89151 0.0
C1498 C 0.48934 0.26959 0.88332 0.0
C1499 C 0.49006 0.28905 0.87404 0.0
C1500 C 0.47347 0.30085 0.87288 0.0
C1501 C 0.45613 0.29326 0.88106 0.0
H1502 H 0.50347 0.29497 0.86771 0.0
H1503 H 0.33499 0.22216 0.94754 0.0
H1504 H 0.31843 0.84087 0.35399 0.0
H1505 H 0.3197 0.86783 0.38092 0.0
H1506 H 0.26358 0.8881 0.36016 0.0
H1507 H 0.26252 0.8616 0.33262 0.0
H1508 H 0.28736 0.91958 0.36425 0.0
H1509 H 0.2705 0.86184 0.4083 0.0
H1510 H 0.27371 0.82718 0.42346 0.0
H1511 H 0.32904 0.84282 0.45019 0.0
H1512 H 0.32627 0.87752 0.43492 0.0
H1513 H 0.26124 0.97979 0.45306 0.0
H1514 H 0.2641 0.9532 0.42613 0.0
H1515 H 0.32274 0.94284 0.44638 0.0
H1516 H 0.32001 0.96975 0.47359 0.0
H1517 H 0.30029 0.90681 0.44251 0.0
H1518 H 0.31552 0.96579 0.39972 0.0
H1519 H 0.31085 1.00052 0.38529 0.0
H1520 H 0.25692 0.98239 0.35676 0.0
H1521 H 0.26112 0.94761 0.37131 0.0
C1522 C 0.30637 0.85109 0.35509 0.0
C1523 C 0.29039 0.84907 0.34106 0.0
C1524 C 0.30704 0.8664 0.37066 0.0
C1525 C 0.29168 0.87994 0.37271 0.0
C1526 C 0.27561 0.87783 0.35891 0.0
C1527 C 0.27494 0.86253 0.3433 0.0
C1528 C 0.2926 0.89667 0.38879 0.0
C1529 C 0.28997 0.91673 0.38139 0.0
C1530 C 0.29654 0.89308 0.41111 0.0
C1531 C 0.29827 0.87221 0.42025 0.0
C1532 C 0.28343 0.85784 0.41724 0.0
C1533 C 0.28515 0.83819 0.42589 0.0
C1534 C 0.3016 0.83278 0.43772 0.0
C1535 C 0.31633 0.84702 0.44098 0.0
C1536 C 0.31468 0.86668 0.43235 0.0
C1537 C 0.27482 0.97197 0.45178 0.0
C1538 C 0.29042 0.97691 0.4655 0.0
C1539 C 0.27643 0.9568 0.43629 0.0
C1540 C 0.29365 0.94611 0.43414 0.0
C1541 C 0.30932 0.95095 0.44775 0.0
C1542 C 0.30778 0.96638 0.4632 0.0
C1543 C 0.29487 0.92961 0.41795 0.0
C1544 C 0.29786 0.90962 0.42533 0.0
C1545 C 0.29111 0.93323 0.39564 0.0
C1546 C 0.28857 0.95412 0.38676 0.0
C1547 C 0.30259 0.96924 0.39052 0.0
C1548 C 0.30004 0.98893 0.38229 0.0
C1549 C 0.28358 0.99367 0.37015 0.0
C1550 C 0.26965 0.9787 0.36618 0.0
C1551 C 0.27212 0.95899 0.37439 0.0
H1552 H 0.28163 1.00892 0.3638 0.0
H1553 H 0.3029 0.81757 0.44442 0.0
H1554 H 0.69916 0.7447 0.86483 0.0
H1555 H 0.67212 0.74464 0.88989 0.0
H1556 H 0.65699 0.80505 0.86836 0.0
H1557 H 0.68377 0.80514 0.84299 0.0
H1558 H 0.65539 0.80094 0.91278 0.0
H1559 H 0.63172 0.76508 0.85026 0.0
H1560 H 0.6324 0.73882 0.82202 0.0
H1561 H 0.63112 0.69198 0.87107 0.0
H1562 H 0.63071 0.71797 0.89962 0.0
H1563 H 0.5627 0.79951 0.96313 0.0
H1564 H 0.5892 0.80289 0.93728 0.0
H1565 H 0.60443 0.74027 0.94928 0.0
H1566 H 0.57784 0.73666 0.97437 0.0
H1567 H 0.60519 0.74715 0.9081 0.0
H1568 H 0.63052 0.78186 0.97066 0.0
H1569 H 0.63078 0.8074 0.99966 0.0
H1570 H 0.62991 0.85541 0.9519 0.0
H1571 H 0.62939 0.83013 0.9226 0.0
C1572 C 0.69002 0.75793 0.86528 0.0
C1573 C 0.69366 0.7749 0.8518 0.0
C1574 C 0.67459 0.75789 0.87969 0.0
C1575 C 0.66243 0.77478 0.88087 0.0
C1576 C 0.66622 0.79188 0.86777 0.0
C1577 C 0.6816 0.79192 0.85332 0.0
C1578 C 0.64558 0.77446 0.89553 0.0
C1579 C 0.64426 0.78935 0.9116 0.0
C1580 C 0.63125 0.75913 0.89424 0.0
C1581 C 0.63135 0.74348 0.87708 0.0
C1582 C 0.63173 0.74918 0.85503 0.0
C1583 C 0.63204 0.73435 0.83897 0.0
C1584 C 0.63185 0.71375 0.84475 0.0
C1585 C 0.63129 0.70794 0.86661 0.0
C1586 C 0.631 0.72271 0.88274 0.0
C1587 C 0.57175 0.78652 0.96026 0.0
C1588 C 0.5681 0.76781 0.97075 0.0
C1589 C 0.58695 0.78847 0.94555 0.0
C1590 C 0.59896 0.77186 0.94139 0.0
C1591 C 0.59536 0.75328 0.95205 0.0
C1592 C 0.58012 0.75126 0.96647 0.0
C1593 C 0.61509 0.77343 0.92571 0.0
C1594 C 0.61626 0.7588 0.90933 0.0
C1595 C 0.62936 0.78889 0.92687 0.0
C1596 C 0.6297 0.8041 0.94445 0.0
C1597 C 0.63023 0.79786 0.96635 0.0
C1598 C 0.63045 0.81229 0.98283 0.0
C1599 C 0.6303 0.83302 0.97762 0.0
C1600 C 0.62998 0.83935 0.95591 0.0
C1601 C 0.62974 0.82498 0.93936 0.0
H1602 H 0.63048 0.84417 0.99041 0.0
H1603 H 0.63209 0.70229 0.83229 0.0
loop_
_geom_bond_atom_site_label_1
_geom_bond_atom_site_label_2
_geom_bond_distance
_geom_bond_site_symmetry_2
_ccdc_geom_bond_type
C0 C1 1.264 . S
C0 C5 1.479 . S
C0 C10 1.465 . S
C1 C0 1.264 . S
C1 C3 1.339 . S
C1 H28 0.931 . S
C2 C3 1.395 . S
C2 C4 1.320 . S
C3 C1 1.339 . S
C3 C2 1.395 . S
C3 H29 0.929 . S
C4 C2 1.320 . S
C4 C5 1.405 . S
C4 H30 0.930 . S
C5 C0 1.479 . S
C5 C4 1.405 . S
C5 H31 0.931 . S
U6 O7 2.454 . S
U6 O8 2.458 . S
U6 C9 2.984 . S
U6 C10 2.847 . S
U6 C23 2.882 . S
U6 O24 2.441 . S
U6 O25 2.420 . S
U6 O26 2.455 . S
U6 O27 2.449 . S
O7 U6 2.454 . S
O7 C9 1.353 . S
O8 U6 2.458 . S
O8 C9 1.286 . S
C9 U6 2.984 . S
C9 O7 1.353 . S
C9 O8 1.286 . S
C9 C11 1.363 . S
C10 C0 1.465 . S
C10 U6 2.847 . S
C10 O24 1.249 . S
C10 O25 1.202 . S
C11 C9 1.363 . S
C11 C13 1.408 . S
C11 C16 1.342 . S
C12 C13 1.310 . S
C12 C15 1.461 . S
C12 H32 0.932 . S
C13 C11 1.408 . S
C13 C12 1.310 . S
C13 H33 0.930 . S
C14 C15 1.474 . S
C14 C16 1.285 . S
C14 H34 0.929 . S
C15 C12 1.461 . S
C15 C14 1.474 . S
C16 C11 1.342 . S
C16 C14 1.285 . S
C16 H35 0.930 . S
C17 C20 1.424 . S
C17 C22 1.245 . S
C17 C23 1.428 . S
C18 C21 1.260 . S
C18 C22 1.477 . S
C18 H36 0.932 . S
C19 C20 1.384 . S
C19 C21 1.479 . S
C19 H37 0.929 . S
C20 C17 1.424 . S
C20 C19 1.384 . S
C20 H38 0.928 . S
C21 C18 1.260 . S
C21 C19 1.479 . S
C22 C17 1.245 . S
C22 C18 1.477 . S
C22 H39 0.932 . S
C23 U6 2.882 . S
C23 C17 1.428 . S
C23 O26 1.301 . S
C23 O27 1.282 . S
O24 U6 2.441 . S
O24 C10 1.249 . S
O25 U6 2.420 . S
O25 C10 1.202 . S
O26 U6 2.455 . S
O26 C23 1.301 . S
O27 U6 2.449 . S
O27 C23 1.282 . S
H28 C1 0.931 . S
H29 C3 0.929 . S
H30 C4 0.930 . S
H31 C5 0.931 . S
H32 C12 0.932 . S
H33 C13 0.930 . S
H34 C14 0.929 . S
H35 C16 0.930 . S
H36 C18 0.932 . S
H37 C19 0.929 . S
H38 C20 0.928 . S
H39 C22 0.932 . S
C40 C41 1.264 . S
C40 C45 1.479 . S
C40 C50 1.465 . S
C41 C40 1.264 . S
C41 C43 1.339 . S
C41 H68 0.931 . S
C42 C43 1.395 . S
C42 C44 1.320 . S
C43 C41 1.339 . S
C43 C42 1.395 . S
C43 H69 0.929 . S
C44 C42 1.320 . S
C44 C45 1.405 . S
C44 H70 0.930 . S
C45 C40 1.479 . S
C45 C44 1.405 . S
C45 H71 0.931 . S
U46 O47 2.454 . S
U46 O48 2.458 . S
U46 C49 2.984 . S
U46 C50 2.847 . S
U46 C63 2.882 . S
U46 O64 2.441 . S
U46 O65 2.420 . S
U46 O66 2.455 . S
U46 O67 2.449 . S
O47 U46 2.454 . S
O47 C49 1.353 . S
O48 U46 2.458 . S
O48 C49 1.286 . S
C49 U46 2.984 . S
C49 O47 1.353 . S
C49 O48 1.286 . S
C49 C51 1.363 . S
C50 C40 1.465 . S
C50 U46 2.847 . S
C50 O64 1.249 . S
C50 O65 1.202 . S
C51 C49 1.363 . S
C51 C53 1.408 . S
C51 C56 1.342 . S
C52 C53 1.310 . S
C52 C55 1.461 . S
C52 H72 0.932 . S
C53 C51 1.408 . S
C53 C52 1.310 . S
C53 H73 0.930 . S
C54 C55 1.474 . S
C54 C56 1.285 . S
C54 H74 0.929 . S
C55 C52 1.461 . S
C55 C54 1.474 . S
C56 C51 1.342 . S
C56 C54 1.285 . S
C56 H75 0.930 . S
C57 C60 1.424 . S
C57 C62 1.245 . S
C57 C63 1.428 . S
C58 C61 1.260 . S
C58 C62 1.477 . S
C58 H76 0.932 . S
C59 C60 1.384 . S
C59 C61 1.479 . S
C59 H77 0.929 . S
C60 C57 1.424 . S
C60 C59 1.384 . S
C60 H78 0.928 . S
C61 C58 1.260 . S
C61 C59 1.479 . S
C62 C57 1.245 . S
C62 C58 1.477 . S
C62 H79 0.932 . S
C63 U46 2.882 . S
C63 C57 1.428 . S
C63 O66 1.301 . S
C63 O67 1.282 . S
O64 U46 2.441 . S
O64 C50 1.249 . S
O65 U46 2.420 . S
O65 C50 1.202 . S
O66 U46 2.455 . S
O66 C63 1.301 . S
O67 U46 2.449 . S
O67 C63 1.282 . S
H68 C41 0.931 . S
H69 C43 0.929 . S
H70 C44 0.930 . S
H71 C45 0.931 . S
H72 C52 0.932 . S
H73 C53 0.930 . S
H74 C54 0.929 . S
H75 C56 0.930 . S
H76 C58 0.932 . S
H77 C59 0.929 . S
H78 C60 0.928 . S
H79 C62 0.932 . S
C80 C81 1.264 . S
C80 C85 1.479 . S
C80 C90 1.465 . S
C81 C80 1.264 . S
C81 C83 1.339 . S
C81 H108 0.931 . S
C82 C83 1.395 . S
C82 C84 1.320 . S
C83 C81 1.339 . S
C83 C82 1.395 . S
C83 H109 0.929 . S
C84 C82 1.320 . S
C84 C85 1.405 . S
C84 H110 0.930 . S
C85 C80 1.479 . S
C85 C84 1.405 . S
C85 H111 0.931 . S
U86 O87 2.454 . S
U86 O88 2.458 . S
U86 C89 2.984 . S
U86 C90 2.847 . S
U86 C103 2.882 . S
U86 O104 2.441 . S
U86 O105 2.420 . S
U86 O106 2.455 . S
U86 O107 2.449 . S
O87 U86 2.454 . S
O87 C89 1.353 . S
O88 U86 2.458 . S
O88 C89 1.286 . S
C89 U86 2.984 . S
C89 O87 1.353 . S
C89 O88 1.286 . S
C89 C91 1.363 . S
C90 C80 1.465 . S
C90 U86 2.847 . S
C90 O104 1.249 . S
C90 O105 1.202 . S
C91 C89 1.363 . S
C91 C93 1.408 . S
C91 C96 1.342 . S
C92 C93 1.310 . S
C92 C95 1.461 . S
C92 H112 0.932 . S
C93 C91 1.408 . S
C93 C92 1.310 . S
C93 H113 0.930 . S
C94 C95 1.474 . S
C94 C96 1.285 . S
C94 H114 0.929 . S
C95 C92 1.461 . S
C95 C94 1.474 . S
C96 C91 1.342 . S
C96 C94 1.285 . S
C96 H115 0.930 . S
C97 C100 1.424 . S
C97 C102 1.245 . S
C97 C103 1.428 . S
C98 C101 1.260 . S
C98 C102 1.477 . S
C98 H116 0.932 . S
C99 C100 1.384 . S
C99 C101 1.479 . S
C99 H117 0.929 . S
C100 C97 1.424 . S
C100 C99 1.384 . S
C100 H118 0.928 . S
C101 C98 1.260 . S
C101 C99 1.479 . S
C102 C97 1.245 . S
C102 C98 1.477 . S
C102 H119 0.932 . S
C103 U86 2.882 . S
C103 C97 1.428 . S
C103 O106 1.301 . S
C103 O107 1.282 . S
O104 U86 2.441 . S
O104 C90 1.249 . S
O105 U86 2.420 . S
O105 C90 1.202 . S
O106 U86 2.455 . S
O106 C103 1.301 . S
O107 U86 2.449 . S
O107 C103 1.282 . S
H108 C81 0.931 . S
H109 C83 0.929 . S
H110 C84 0.930 . S
H111 C85 0.931 . S
H112 C92 0.932 . S
H113 C93 0.930 . S
H114 C94 0.929 . S
H115 C96 0.930 . S
H116 C98 0.932 . S
H117 C99 0.929 . S
H118 C100 0.928 . S
H119 C102 0.932 . S
C120 C121 1.264 . S
C120 C125 1.479 . S
C120 C130 1.465 . S
C121 C120 1.264 . S
C121 C123 1.339 . S
C121 H148 0.931 . S
C122 C123 1.395 . S
C122 C124 1.320 . S
C123 C121 1.339 . S
C123 C122 1.395 . S
C123 H149 0.929 . S
C124 C122 1.320 . S
C124 C125 1.405 . S
C124 H150 0.930 . S
C125 C120 1.479 . S
C125 C124 1.405 . S
C125 H151 0.931 . S
U126 O127 2.454 . S
U126 O128 2.458 . S
U126 C129 2.984 . S
U126 C130 2.847 . S
U126 C143 2.882 . S
U126 O144 2.441 . S
U126 O145 2.420 . S
U126 O146 2.455 . S
U126 O147 2.449 . S
O127 U126 2.454 . S
O127 C129 1.353 . S
O128 U126 2.458 . S
O128 C129 1.286 . S
C129 U126 2.984 . S
C129 O127 1.353 . S
C129 O128 1.286 . S
C129 C131 1.363 . S
C130 C120 1.465 . S
C130 U126 2.847 . S
C130 O144 1.249 . S
C130 O145 1.202 . S
C131 C129 1.363 . S
C131 C133 1.408 . S
C131 C136 1.342 . S
C132 C133 1.310 . S
C132 C135 1.461 . S
C132 H152 0.932 . S
C133 C131 1.408 . S
C133 C132 1.310 . S
C133 H153 0.930 . S
C134 C135 1.474 . S
C134 C136 1.285 . S
C134 H154 0.929 . S
C135 C132 1.461 . S
C135 C134 1.474 . S
C136 C131 1.342 . S
C136 C134 1.285 . S
C136 H155 0.930 . S
C137 C140 1.424 . S
C137 C142 1.245 . S
C137 C143 1.428 . S
C138 C141 1.260 . S
C138 C142 1.477 . S
C138 H156 0.932 . S
C139 C140 1.384 . S
C139 C141 1.479 . S
C139 H157 0.929 . S
C140 C137 1.424 . S
C140 C139 1.384 . S
C140 H158 0.928 . S
C141 C138 1.260 . S
C141 C139 1.479 . S
C142 C137 1.245 . S
C142 C138 1.477 . S
C142 H159 0.932 . S
C143 U126 2.882 . S
C143 C137 1.428 . S
C143 O146 1.301 . S
C143 O147 1.282 . S
O144 U126 2.441 . S
O144 C130 1.249 . S
O145 U126 2.420 . S
O145 C130 1.202 . S
O146 U126 2.455 . S
O146 C143 1.301 . S
O147 U126 2.449 . S
O147 C143 1.282 . S
H148 C121 0.931 . S
H149 C123 0.929 . S
H150 C124 0.930 . S
H151 C125 0.931 . S
H152 C132 0.932 . S
H153 C133 0.930 . S
H154 C134 0.929 . S
H155 C136 0.930 . S
H156 C138 0.932 . S
H157 C139 0.929 . S
H158 C140 0.928 . S
H159 C142 0.932 . S
C160 C161 1.264 . S
C160 C165 1.479 . S
C160 C170 1.465 . S
C161 C160 1.264 . S
C161 C163 1.339 . S
C161 H188 0.931 . S
C162 C163 1.395 . S
C162 C164 1.320 . S
C163 C161 1.339 . S
C163 C162 1.395 . S
C163 H189 0.929 . S
C164 C162 1.320 . S
C164 C165 1.405 . S
C164 H190 0.930 . S
C165 C160 1.479 . S
C165 C164 1.405 . S
C165 H191 0.931 . S
U166 O167 2.454 . S
U166 O168 2.458 . S
U166 C169 2.984 . S
U166 C170 2.847 . S
U166 C183 2.882 . S
U166 O184 2.441 . S
U166 O185 2.420 . S
U166 O186 2.455 . S
U166 O187 2.449 . S
O167 U166 2.454 . S
O167 C169 1.353 . S
O168 U166 2.458 . S
O168 C169 1.286 . S
C169 U166 2.984 . S
C169 O167 1.353 . S
C169 O168 1.286 . S
C169 C171 1.363 . S
C170 C160 1.465 . S
C170 U166 2.847 . S
C170 O184 1.249 . S
C170 O185 1.202 . S
C171 C169 1.363 . S
C171 C173 1.408 . S
C171 C176 1.342 . S
C172 C173 1.310 . S
C172 C175 1.461 . S
C172 H192 0.932 . S
C173 C171 1.408 . S
C173 C172 1.310 . S
C173 H193 0.930 . S
C174 C175 1.474 . S
C174 C176 1.285 . S
C174 H194 0.929 . S
C175 C172 1.461 . S
C175 C174 1.474 . S
C176 C171 1.342 . S
C176 C174 1.285 . S
C176 H195 0.930 . S
C177 C180 1.424 . S
C177 C182 1.245 . S
C177 C183 1.428 . S
C178 C181 1.260 . S
C178 C182 1.477 . S
C178 H196 0.932 . S
C179 C180 1.384 . S
C179 C181 1.479 . S
C179 H197 0.929 . S
C180 C177 1.424 . S
C180 C179 1.384 . S
C180 H198 0.928 . S
C181 C178 1.260 . S
C181 C179 1.479 . S
C182 C177 1.245 . S
C182 C178 1.477 . S
C182 H199 0.932 . S
C183 U166 2.882 . S
C183 C177 1.428 . S
C183 O186 1.301 . S
C183 O187 1.282 . S
O184 U166 2.441 . S
O184 C170 1.249 . S
O185 U166 2.420 . S
O185 C170 1.202 . S
O186 U166 2.455 . S
O186 C183 1.301 . S
O187 U166 2.449 . S
O187 C183 1.282 . S
H188 C161 0.931 . S
H189 C163 0.929 . S
H190 C164 0.930 . S
H191 C165 0.931 . S
H192 C172 0.932 . S
H193 C173 0.930 . S
H194 C174 0.929 . S
H195 C176 0.930 . S
H196 C178 0.932 . S
H197 C179 0.929 . S
H198 C180 0.928 . S
H199 C182 0.932 . S
C200 C201 1.264 . S
C200 C205 1.479 . S
C200 C210 1.465 . S
C201 C200 1.264 . S
C201 C203 1.339 . S
C201 H228 0.931 . S
C202 C203 1.395 . S
C202 C204 1.320 . S
C203 C201 1.339 . S
C203 C202 1.395 . S
C203 H229 0.929 . S
C204 C202 1.320 . S
C204 C205 1.405 . S
C204 H230 0.930 . S
C205 C200 1.479 . S
C205 C204 1.405 . S
C205 H231 0.931 . S
U206 O207 2.454 . S
U206 O208 2.458 . S
U206 C209 2.984 . S
U206 C210 2.847 . S
U206 C223 2.882 . S
U206 O224 2.441 . S
U206 O225 2.420 . S
U206 O226 2.455 . S
U206 O227 2.449 . S
O207 U206 2.454 . S
O207 C209 1.353 . S
O208 U206 2.458 . S
O208 C209 1.286 . S
C209 U206 2.984 . S
C209 O207 1.353 . S
C209 O208 1.286 . S
C209 C211 1.363 . S
C210 C200 1.465 . S
C210 U206 2.847 . S
C210 O224 1.249 . S
C210 O225 1.202 . S
C211 C209 1.363 . S
C211 C213 1.408 . S
C211 C216 1.342 . S
C212 C213 1.310 . S
C212 C215 1.461 . S
C212 H232 0.932 . S
C213 C211 1.408 . S
C213 C212 1.310 . S
C213 H233 0.930 . S
C214 C215 1.474 . S
C214 C216 1.285 . S
C214 H234 0.929 . S
C215 C212 1.461 . S
C215 C214 1.474 . S
C216 C211 1.342 . S
C216 C214 1.285 . S
C216 H235 0.930 . S
C217 C220 1.424 . S
C217 C222 1.245 . S
C217 C223 1.428 . S
C218 C221 1.260 . S
C218 C222 1.477 . S
C218 H236 0.932 . S
C219 C220 1.384 . S
C219 C221 1.479 . S
C219 H237 0.929 . S
C220 C217 1.424 . S
C220 C219 1.384 . S
C220 H238 0.928 . S
C221 C218 1.260 . S
C221 C219 1.479 . S
C222 C217 1.245 . S
C222 C218 1.477 . S
C222 H239 0.932 . S
C223 U206 2.882 . S
C223 C217 1.428 . S
C223 O226 1.301 . S
C223 O227 1.282 . S
O224 U206 2.441 . S
O224 C210 1.249 . S
O225 U206 2.420 . S
O225 C210 1.202 . S
O226 U206 2.455 . S
O226 C223 1.301 . S
O227 U206 2.449 . S
O227 C223 1.282 . S
H228 C201 0.931 . S
H229 C203 0.929 . S
H230 C204 0.930 . S
H231 C205 0.931 . S
H232 C212 0.932 . S
H233 C213 0.930 . S
H234 C214 0.929 . S
H235 C216 0.930 . S
H236 C218 0.932 . S
H237 C219 0.929 . S
H238 C220 0.928 . S
H239 C222 0.932 . S
C240 C241 1.264 . S
C240 C245 1.479 . S
C240 C250 1.465 . S
C241 C240 1.264 . S
C241 C243 1.339 . S
C241 H268 0.931 . S
C242 C243 1.395 . S
C242 C244 1.320 . S
C243 C241 1.339 . S
C243 C242 1.395 . S
C243 H269 0.929 . S
C244 C242 1.320 . S
C244 C245 1.405 . S
C244 H270 0.930 . S
C245 C240 1.479 . S
C245 C244 1.405 . S
C245 H271 0.931 . S
U246 O247 2.454 . S
U246 O248 2.458 . S
U246 C249 2.984 . S
U246 C250 2.847 . S
U246 C263 2.882 . S
U246 O264 2.441 . S
U246 O265 2.420 . S
U246 O266 2.455 . S
U246 O267 2.449 . S
O247 U246 2.454 . S
O247 C249 1.353 . S
O248 U246 2.458 . S
O248 C249 1.286 . S
C249 U246 2.984 . S
C249 O247 1.353 . S
C249 O248 1.286 . S
C249 C251 1.363 . S
C250 C240 1.465 . S
C250 U246 2.847 . S
C250 O264 1.249 . S
C250 O265 1.202 . S
C251 C249 1.363 . S
C251 C253 1.408 . S
C251 C256 1.342 . S
C252 C253 1.310 . S
C252 C255 1.461 . S
C252 H272 0.932 . S
C253 C251 1.408 . S
C253 C252 1.310 . S
C253 H273 0.930 . S
C254 C255 1.474 . S
C254 C256 1.285 . S
C254 H274 0.929 . S
C255 C252 1.461 . S
C255 C254 1.474 . S
C256 C251 1.342 . S
C256 C254 1.285 . S
C256 H275 0.930 . S
C257 C260 1.424 . S
C257 C262 1.245 . S
C257 C263 1.428 . S
C258 C261 1.260 . S
C258 C262 1.477 . S
C258 H276 0.932 . S
C259 C260 1.384 . S
C259 C261 1.479 . S
C259 H277 0.929 . S
C260 C257 1.424 . S
C260 C259 1.384 . S
C260 H278 0.928 . S
C261 C258 1.260 . S
C261 C259 1.479 . S
C262 C257 1.245 . S
C262 C258 1.477 . S
C262 H279 0.932 . S
C263 U246 2.882 . S
C263 C257 1.428 . S
C263 O266 1.301 . S
C263 O267 1.282 . S
O264 U246 2.441 . S
O264 C250 1.249 . S
O265 U246 2.420 . S
O265 C250 1.202 . S
O266 U246 2.455 . S
O266 C263 1.301 . S
O267 U246 2.449 . S
O267 C263 1.282 . S
H268 C241 0.931 . S
H269 C243 0.929 . S
H270 C244 0.930 . S
H271 C245 0.931 . S
H272 C252 0.932 . S
H273 C253 0.930 . S
H274 C254 0.929 . S
H275 C256 0.930 . S
H276 C258 0.932 . S
H277 C259 0.929 . S
H278 C260 0.928 . S
H279 C262 0.932 . S
C280 C281 1.264 . S
C280 C285 1.479 . S
C280 C290 1.465 . S
C281 C280 1.264 . S
C281 C283 1.339 . S
C281 H308 0.931 . S
C282 C283 1.395 . S
C282 C284 1.320 . S
C283 C281 1.339 . S
C283 C282 1.395 . S
C283 H309 0.929 . S
C284 C282 1.320 . S
C284 C285 1.405 . S
C284 H310 0.930 . S
C285 C280 1.479 . S
C285 C284 1.405 . S
C285 H311 0.931 . S
U286 O287 2.454 . S
U286 O288 2.458 . S
U286 C289 2.984 . S
U286 C290 2.847 . S
U286 C303 2.882 . S
U286 O304 2.441 . S
U286 O305 2.420 . S
U286 O306 2.455 . S
U286 O307 2.449 . S
O287 U286 2.454 . S
O287 C289 1.353 . S
O288 U286 2.458 . S
O288 C289 1.286 . S
C289 U286 2.984 . S
C289 O287 1.353 . S
C289 O288 1.286 . S
C289 C291 1.363 . S
C290 C280 1.465 . S
C290 U286 2.847 . S
C290 O304 1.249 . S
C290 O305 1.202 . S
C291 C289 1.363 . S
C291 C293 1.408 . S
C291 C296 1.342 . S
C292 C293 1.310 . S
C292 C295 1.461 . S
C292 H312 0.932 . S
C293 C291 1.408 . S
C293 C292 1.310 . S
C293 H313 0.930 . S
C294 C295 1.474 . S
C294 C296 1.285 . S
C294 H314 0.929 . S
C295 C292 1.461 . S
C295 C294 1.474 . S
C296 C291 1.342 . S
C296 C294 1.285 . S
C296 H315 0.930 . S
C297 C300 1.424 . S
C297 C302 1.245 . S
C297 C303 1.428 . S
C298 C301 1.260 . S
C298 C302 1.477 . S
C298 H316 0.932 . S
C299 C300 1.384 . S
C299 C301 1.479 . S
C299 H317 0.929 . S
C300 C297 1.424 . S
C300 C299 1.384 . S
C300 H318 0.928 . S
C301 C298 1.260 . S
C301 C299 1.479 . S
C302 C297 1.245 . S
C302 C298 1.477 . S
C302 H319 0.932 . S
C303 U286 2.882 . S
C303 C297 1.428 . S
C303 O306 1.301 . S
C303 O307 1.282 . S
O304 U286 2.441 . S
O304 C290 1.249 . S
O305 U286 2.420 . S
O305 C290 1.202 . S
O306 U286 2.455 . S
O306 C303 1.301 . S
O307 U286 2.449 . S
O307 C303 1.282 . S
H308 C281 0.931 . S
H309 C283 0.929 . S
H310 C284 0.930 . S
H311 C285 0.931 . S
H312 C292 0.932 . S
H313 C293 0.930 . S
H314 C294 0.929 . S
H315 C296 0.930 . S
H316 C298 0.932 . S
H317 C299 0.929 . S
H318 C300 0.928 . S
H319 C302 0.932 . S
C320 O322 1.247 . S
C320 O324 1.258 . S
C321 O328 1.247 . S
C321 O329 1.258 . S
O322 C320 1.247 . S
O322 Zn323 2.028 1_655 S
Zn323 O322 2.028 1_455 S
Zn323 O327 2.035 . S
Zn323 O329 2.035 . S
Zn323 O330 2.028 1_455 S
O324 C320 1.258 . S
O324 Zn325 2.035 1_655 S
Zn325 O324 2.035 1_455 S
Zn325 O326 2.028 . S
Zn325 O328 2.028 . S
Zn325 O331 2.035 1_455 S
O326 Zn325 2.028 . S
O326 C332 1.247 . S
O327 Zn323 2.035 . S
O327 C332 1.258 . S
O328 C321 1.247 . S
O328 Zn325 2.028 . S
O329 C321 1.258 . S
O329 Zn323 2.035 . S
O330 Zn323 2.028 1_655 S
O330 C333 1.247 . S
O331 Zn325 2.035 1_655 S
O331 C333 1.258 . S
C332 O326 1.247 . S
C332 O327 1.258 . S
C333 O330 1.247 . S
C333 O331 1.258 . S
C334 O336 1.247 . S
C334 O338 1.258 . S
C335 O342 1.247 . S
C335 O343 1.258 . S
O336 C334 1.247 . S
O336 Zn337 2.028 1_655 S
Zn337 O336 2.028 1_455 S
Zn337 O341 2.035 . S
Zn337 O343 2.035 . S
Zn337 O344 2.028 1_455 S
O338 C334 1.258 . S
O338 Zn339 2.035 1_655 S
Zn339 O338 2.035 1_455 S
Zn339 O340 2.028 . S
Zn339 O342 2.028 . S
Zn339 O345 2.035 1_455 S
O340 Zn339 2.028 . S
O340 C346 1.247 . S
O341 Zn337 2.035 . S
O341 C346 1.258 . S
O342 C335 1.247 . S
O342 Zn339 2.028 . S
O343 C335 1.258 . S
O343 Zn337 2.035 . S
O344 Zn337 2.028 1_655 S
O344 C347 1.247 . S
O345 Zn339 2.035 1_655 S
O345 C347 1.258 . S
C346 O340 1.247 . S
C346 O341 1.258 . S
C347 O344 1.247 . S
C347 O345 1.258 . S
C348 O350 1.247 . S
C348 O352 1.258 . S
C349 O356 1.247 . S
C349 O357 1.258 . S
O350 C348 1.247 . S
O350 Zn351 2.028 1_565 S
Zn351 O350 2.028 1_545 S
Zn351 O355 2.035 . S
Zn351 O357 2.035 . S
Zn351 O358 2.028 1_545 S
O352 C348 1.258 . S
O352 Zn353 2.035 1_565 S
Zn353 O352 2.035 1_545 S
Zn353 O354 2.028 . S
Zn353 O356 2.028 . S
Zn353 O359 2.035 1_545 S
O354 Zn353 2.028 . S
O354 C360 1.247 . S
O355 Zn351 2.035 . S
O355 C360 1.258 . S
O356 C349 1.247 . S
O356 Zn353 2.028 . S
O357 C349 1.258 . S
O357 Zn351 2.035 . S
O358 Zn351 2.028 1_565 S
O358 C361 1.247 . S
O359 Zn353 2.035 1_565 S
O359 C361 1.258 . S
C360 O354 1.247 . S
C360 O355 1.258 . S
C361 O358 1.247 . S
C361 O359 1.258 . S
C362 O364 1.247 . S
C362 O366 1.258 . S
C363 O370 1.247 . S
C363 O371 1.258 . S
O364 C362 1.247 . S
O364 Zn365 2.028 . S
Zn365 O364 2.028 . S
Zn365 O369 2.035 . S
Zn365 O371 2.035 1_554 S
Zn365 O372 2.028 1_554 S
O366 C362 1.258 . S
O366 Zn367 2.035 . S
Zn367 O366 2.035 . S
Zn367 O368 2.028 . S
Zn367 O370 2.028 1_554 S
Zn367 O373 2.035 1_554 S
O368 Zn367 2.028 . S
O368 C374 1.247 . S
O369 Zn365 2.035 . S
O369 C374 1.258 . S
O370 C363 1.247 . S
O370 Zn367 2.028 1_556 S
O371 C363 1.258 . S
O371 Zn365 2.035 1_556 S
O372 Zn365 2.028 1_556 S
O372 C375 1.247 . S
O373 Zn367 2.035 1_556 S
O373 C375 1.258 . S
C374 O368 1.247 . S
C374 O369 1.258 . S
C375 O372 1.247 . S
C375 O373 1.258 . S
C376 O378 1.247 . S
C376 O380 1.258 . S
C377 O384 1.247 . S
C377 O385 1.258 . S
O378 C376 1.247 . S
O378 Zn379 2.033 . S
Zn379 O378 2.033 . S
Zn379 O383 2.030 1_565 S
Zn379 O385 2.030 1_565 S
Zn379 O386 2.033 . S
O380 C376 1.258 . S
O380 Zn381 2.019 1_565 S
Zn381 O380 2.019 1_545 S
Zn381 O382 2.044 . S
Zn381 O384 2.044 . S
Zn381 O387 2.019 1_545 S
O382 Zn381 2.044 . S
O382 C388 1.247 . S
O383 Zn379 2.030 1_545 S
O383 C388 1.258 . S
O384 C377 1.247 . S
O384 Zn381 2.044 . S
O385 C377 1.258 . S
O385 Zn379 2.030 1_545 S
O386 Zn379 2.033 . S
O386 C389 1.247 . S
O387 Zn381 2.019 1_565 S
O387 C389 1.258 . S
C388 O382 1.247 . S
C388 O383 1.258 . S
C389 O386 1.247 . S
C389 O387 1.258 . S
C390 O392 1.247 . S
C390 O394 1.258 . S
C391 O398 1.247 . S
C391 O399 1.258 . S
O392 C390 1.247 . S
O392 Zn393 2.028 . S
Zn393 O392 2.028 . S
Zn393 O397 2.035 . S
Zn393 O399 2.035 1_554 S
Zn393 O400 2.028 1_554 S
O394 C390 1.258 . S
O394 Zn395 2.053 . S
Zn395 O394 2.053 . S
Zn395 O396 2.046 . S
Zn395 O398 2.010 1_554 S
Zn395 O401 2.017 1_554 S
O396 Zn395 2.046 . S
O396 C402 1.247 . S
O397 Zn393 2.035 . S
O397 C402 1.258 . S
O398 C391 1.247 . S
O398 Zn395 2.010 1_556 S
O399 C391 1.258 . S
O399 Zn393 2.035 1_556 S
O400 Zn393 2.028 1_556 S
O400 C403 1.247 . S
O401 Zn395 2.017 1_556 S
O401 C403 1.258 . S
C402 O396 1.247 . S
C402 O397 1.258 . S
C403 O400 1.247 . S
C403 O401 1.258 . S
H404 C422 0.951 . S
H405 C424 0.951 . S
H406 C426 0.950 . S
H407 C427 0.950 . S
H408 C429 0.950 . S
H409 C432 0.950 . S
H410 C433 0.950 . S
H411 C435 0.950 . S
H412 C436 0.950 . S
H413 C437 0.951 . S
H414 C439 0.951 . S
H415 C441 0.950 . S
H416 C442 0.950 . S
H417 C444 0.950 . S
H418 C447 0.950 . S
H419 C448 0.950 . S
H420 C450 0.950 . S
H421 C451 0.950 . S
C422 H404 0.951 . S
C422 C423 1.366 . S
C422 C424 1.388 . S
C423 C422 1.366 . S
C423 C427 1.385 . S
C424 H405 0.951 . S
C424 C422 1.388 . S
C424 C425 1.366 . S
C425 C424 1.366 . S
C425 C426 1.414 . S
C425 C428 1.499 . S
C426 H406 0.950 . S
C426 C425 1.414 . S
C426 C427 1.374 . S
C427 H407 0.950 . S
C427 C423 1.385 . S
C427 C426 1.374 . S
C428 C425 1.499 . S
C428 C429 1.373 . S
C428 C430 1.389 . S
C429 H408 0.950 . S
C429 C428 1.373 . S
C429 C445 1.377 . S
C430 C428 1.389 . S
C430 C431 1.524 . S
C430 C444 1.377 . S
C431 C430 1.524 . S
C431 C432 1.397 . S
C431 C436 1.363 . S
C432 H409 0.950 . S
C432 C431 1.397 . S
C432 C433 1.334 . S
C433 H410 0.950 . S
C433 C432 1.334 . S
C433 C434 1.287 . S
C434 C433 1.287 . S
C434 C435 1.524 . S
C434 H453 0.913 . S
C435 H411 0.950 . S
C435 C434 1.524 . S
C435 C436 1.415 . S
C436 H412 0.950 . S
C436 C431 1.363 . S
C436 C435 1.415 . S
C437 H413 0.951 . S
C437 C438 1.366 . S
C437 C439 1.388 . S
C438 C437 1.366 . S
C438 C442 1.385 . S
C439 H414 0.951 . S
C439 C437 1.388 . S
C439 C440 1.366 . S
C440 C439 1.366 . S
C440 C441 1.414 . S
C440 C443 1.499 . S
C441 H415 0.950 . S
C441 C440 1.414 . S
C441 C442 1.374 . S
C442 H416 0.950 . S
C442 C438 1.385 . S
C442 C441 1.374 . S
C443 C440 1.499 . S
C443 C444 1.373 . S
C443 C445 1.389 . S
C444 H417 0.950 . S
C444 C430 1.377 . S
C444 C443 1.373 . S
C445 C429 1.377 . S
C445 C443 1.389 . S
C445 C446 1.524 . S
C446 C445 1.524 . S
C446 C447 1.397 . S
C446 C451 1.363 . S
C447 H418 0.950 . S
C447 C446 1.397 . S
C447 C448 1.334 . S
C448 H419 0.950 . S
C448 C447 1.334 . S
C448 C449 1.287 . S
C449 C448 1.287 . S
C449 C450 1.524 . S
C449 H452 0.999 . S
C450 H420 0.950 . S
C450 C449 1.524 . S
C450 C451 1.415 . S
C451 H421 0.950 . S
C451 C446 1.363 . S
C451 C450 1.415 . S
H452 C449 0.999 . S
H453 C434 0.913 . S
H454 C472 0.951 . S
H455 C474 0.951 . S
H456 C476 0.950 . S
H457 C477 0.950 . S
H458 C479 0.950 . S
H459 C482 0.950 . S
H460 C483 0.950 . S
H461 C485 0.950 . S
H462 C486 0.950 . S
H463 C487 0.951 . S
H464 C489 0.951 . S
H465 C491 0.950 . S
H466 C492 0.950 . S
H467 C494 0.950 . S
H468 C497 0.950 . S
H469 C498 0.950 . S
H470 C500 0.950 . S
H471 C501 0.950 . S
C472 H454 0.951 . S
C472 C473 1.366 . S
C472 C474 1.388 . S
C473 C472 1.366 . S
C473 C477 1.385 . S
C474 H455 0.951 . S
C474 C472 1.388 . S
C474 C475 1.366 . S
C475 C474 1.366 . S
C475 C476 1.414 . S
C475 C478 1.499 . S
C476 H456 0.950 . S
C476 C475 1.414 . S
C476 C477 1.374 . S
C477 H457 0.950 . S
C477 C473 1.385 . S
C477 C476 1.374 . S
C478 C475 1.499 . S
C478 C479 1.373 . S
C478 C480 1.389 . S
C479 H458 0.950 . S
C479 C478 1.373 . S
C479 C495 1.377 . S
C480 C478 1.389 . S
C480 C481 1.524 . S
C480 C494 1.377 . S
C481 C480 1.524 . S
C481 C482 1.397 . S
C481 C486 1.363 . S
C482 H459 0.950 . S
C482 C481 1.397 . S
C482 C483 1.334 . S
C483 H460 0.950 . S
C483 C482 1.334 . S
C483 C484 1.287 . S
C484 C483 1.287 . S
C484 C485 1.524 . S
C484 H503 0.913 . S
C485 H461 0.950 . S
C485 C484 1.524 . S
C485 C486 1.415 . S
C486 H462 0.950 . S
C486 C481 1.363 . S
C486 C485 1.415 . S
C487 H463 0.951 . S
C487 C488 1.366 . S
C487 C489 1.388 . S
C488 C487 1.366 . S
C488 C492 1.385 . S
C489 H464 0.951 . S
C489 C487 1.388 . S
C489 C490 1.366 . S
C490 C489 1.366 . S
C490 C491 1.414 . S
C490 C493 1.499 . S
C491 H465 0.950 . S
C491 C490 1.414 . S
C491 C492 1.374 . S
C492 H466 0.950 . S
C492 C488 1.385 . S
C492 C491 1.374 . S
C493 C490 1.499 . S
C493 C494 1.373 . S
C493 C495 1.389 . S
C494 H467 0.950 . S
C494 C480 1.377 . S
C494 C493 1.373 . S
C495 C479 1.377 . S
C495 C493 1.389 . S
C495 C496 1.524 . S
C496 C495 1.524 . S
C496 C497 1.397 . S
C496 C501 1.363 . S
C497 H468 0.950 . S
C497 C496 1.397 . S
C497 C498 1.334 . S
C498 H469 0.950 . S
C498 C497 1.334 . S
C498 C499 1.287 . S
C499 C498 1.287 . S
C499 C500 1.524 . S
C499 H502 0.999 . S
C500 H470 0.950 . S
C500 C499 1.524 . S
C500 C501 1.415 . S
C501 H471 0.950 . S
C501 C496 1.363 . S
C501 C500 1.415 . S
H502 C499 0.999 . S
H503 C484 0.913 . S
H504 C522 0.951 . S
H505 C524 0.951 . S
H506 C526 0.950 . S
H507 C527 0.950 . S
H508 C529 0.950 . S
H509 C532 0.950 . S
H510 C533 0.950 . S
H511 C535 0.950 . S
H512 C536 0.950 . S
H513 C537 0.951 . S
H514 C539 0.951 . S
H515 C541 0.950 . S
H516 C542 0.950 . S
H517 C544 0.950 . S
H518 C547 0.950 . S
H519 C548 0.950 . S
H520 C550 0.950 . S
H521 C551 0.950 . S
C522 H504 0.951 . S
C522 C523 1.366 . S
C522 C524 1.388 . S
C523 C522 1.366 . S
C523 C527 1.385 . S
C524 H505 0.951 . S
C524 C522 1.388 . S
C524 C525 1.366 . S
C525 C524 1.366 . S
C525 C526 1.414 . S
C525 C528 1.499 . S
C526 H506 0.950 . S
C526 C525 1.414 . S
C526 C527 1.374 . S
C527 H507 0.950 . S
C527 C523 1.385 . S
C527 C526 1.374 . S
C528 C525 1.499 . S
C528 C529 1.373 . S
C528 C530 1.389 . S
C529 H508 0.950 . S
C529 C528 1.373 . S
C529 C545 1.377 . S
C530 C528 1.389 . S
C530 C531 1.524 . S
C530 C544 1.377 . S
C531 C530 1.524 . S
C531 C532 1.397 . S
C531 C536 1.363 . S
C532 H509 0.950 . S
C532 C531 1.397 . S
C532 C533 1.334 . S
C533 H510 0.950 . S
C533 C532 1.334 . S
C533 C534 1.287 . S
C534 C533 1.287 . S
C534 C535 1.524 . S
C534 H553 0.913 . S
C535 H511 0.950 . S
C535 C534 1.524 . S
C535 C536 1.415 . S
C536 H512 0.950 . S
C536 C531 1.363 . S
C536 C535 1.415 . S
C537 H513 0.951 . S
C537 C538 1.366 . S
C537 C539 1.388 . S
C538 C537 1.366 . S
C538 C542 1.385 . S
C539 H514 0.951 . S
C539 C537 1.388 . S
C539 C540 1.366 . S
C540 C539 1.366 . S
C540 C541 1.414 . S
C540 C543 1.499 . S
C541 H515 0.950 . S
C541 C540 1.414 . S
C541 C542 1.374 . S
C542 H516 0.950 . S
C542 C538 1.385 . S
C542 C541 1.374 . S
C543 C540 1.499 . S
C543 C544 1.373 . S
C543 C545 1.389 . S
C544 H517 0.950 . S
C544 C530 1.377 . S
C544 C543 1.373 . S
C545 C529 1.377 . S
C545 C543 1.389 . S
C545 C546 1.524 . S
C546 C545 1.524 . S
C546 C547 1.397 . S
C546 C551 1.363 . S
C547 H518 0.950 . S
C547 C546 1.397 . S
C547 C548 1.334 . S
C548 H519 0.950 . S
C548 C547 1.334 . S
C548 C549 1.287 . S
C549 C548 1.287 . S
C549 C550 1.524 . S
C549 H552 0.999 . S
C550 H520 0.950 . S
C550 C549 1.524 . S
C550 C551 1.415 . S
C551 H521 0.950 . S
C551 C546 1.363 . S
C551 C550 1.415 . S
H552 C549 0.999 . S
H553 C534 0.913 . S
H554 C572 0.951 . S
H555 C574 0.951 . S
H556 C576 0.950 . S
H557 C577 0.950 . S
H558 C579 0.950 . S
H559 C582 0.950 . S
H560 C583 0.950 . S
H561 C585 0.950 . S
H562 C586 0.950 . S
H563 C587 0.951 . S
H564 C589 0.951 . S
H565 C591 0.950 . S
H566 C592 0.950 . S
H567 C594 0.950 . S
H568 C597 0.950 . S
H569 C598 0.950 . S
H570 C600 0.950 . S
H571 C601 0.950 . S
C572 H554 0.951 . S
C572 C573 1.366 . S
C572 C574 1.388 . S
C573 C572 1.366 . S
C573 C577 1.385 . S
C574 H555 0.951 . S
C574 C572 1.388 . S
C574 C575 1.366 . S
C575 C574 1.366 . S
C575 C576 1.414 . S
C575 C578 1.499 . S
C576 H556 0.950 . S
C576 C575 1.414 . S
C576 C577 1.374 . S
C577 H557 0.950 . S
C577 C573 1.385 . S
C577 C576 1.374 . S
C578 C575 1.499 . S
C578 C579 1.373 . S
C578 C580 1.389 . S
C579 H558 0.950 . S
C579 C578 1.373 . S
C579 C595 1.377 . S
C580 C578 1.389 . S
C580 C581 1.524 . S
C580 C594 1.377 . S
C581 C580 1.524 . S
C581 C582 1.397 . S
C581 C586 1.363 . S
C582 H559 0.950 . S
C582 C581 1.397 . S
C582 C583 1.334 . S
C583 H560 0.950 . S
C583 C582 1.334 . S
C583 C584 1.287 . S
C584 C583 1.287 . S
C584 C585 1.524 . S
C584 H603 0.913 . S
C585 H561 0.950 . S
C585 C584 1.524 . S
C585 C586 1.415 . S
C586 H562 0.950 . S
C586 C581 1.363 . S
C586 C585 1.415 . S
C587 H563 0.951 . S
C587 C588 1.366 . S
C587 C589 1.388 . S
C588 C587 1.366 . S
C588 C592 1.385 . S
C589 H564 0.951 . S
C589 C587 1.388 . S
C589 C590 1.366 . S
C590 C589 1.366 . S
C590 C591 1.414 . S
C590 C593 1.499 . S
C591 H565 0.950 . S
C591 C590 1.414 . S
C591 C592 1.374 . S
C592 H566 0.950 . S
C592 C588 1.385 . S
C592 C591 1.374 . S
C593 C590 1.499 . S
C593 C594 1.373 . S
C593 C595 1.389 . S
C594 H567 0.950 . S
C594 C580 1.377 . S
C594 C593 1.373 . S
C595 C579 1.377 . S
C595 C593 1.389 . S
C595 C596 1.524 . S
C596 C595 1.524 . S
C596 C597 1.397 . S
C596 C601 1.363 . S
C597 H568 0.950 . S
C597 C596 1.397 . S
C597 C598 1.334 . S
C598 H569 0.950 . S
C598 C597 1.334 . S
C598 C599 1.287 . S
C599 C598 1.287 . S
C599 C600 1.524 . S
C599 H602 0.999 . S
C600 H570 0.950 . S
C600 C599 1.524 . S
C600 C601 1.415 . S
C601 H571 0.950 . S
C601 C596 1.363 . S
C601 C600 1.415 . S
H602 C599 0.999 . S
H603 C584 0.913 . S
H604 C622 0.951 . S
H605 C624 0.951 . S
H606 C626 0.950 . S
H607 C627 0.950 . S
H608 C629 0.950 . S
H609 C632 0.950 . S
H610 C633 0.950 . S
H611 C635 0.950 . S
H612 C636 0.950 . S
H613 C637 0.951 . S
H614 C639 0.951 . S
H615 C641 0.950 . S
H616 C642 0.950 . S
H617 C644 0.950 . S
H618 C647 0.950 . S
H619 C648 0.950 . S
H620 C650 0.950 . S
H621 C651 0.950 . S
C622 H604 0.951 . S
C622 C623 1.366 . S
C622 C624 1.388 . S
C623 C622 1.366 . S
C623 C627 1.385 . S
C624 H605 0.951 . S
C624 C622 1.388 . S
C624 C625 1.366 . S
C625 C624 1.366 . S
C625 C626 1.414 . S
C625 C628 1.499 . S
C626 H606 0.950 . S
C626 C625 1.414 . S
C626 C627 1.374 . S
C627 H607 0.950 . S
C627 C623 1.385 . S
C627 C626 1.374 . S
C628 C625 1.499 . S
C628 C629 1.373 . S
C628 C630 1.389 . S
C629 H608 0.950 . S
C629 C628 1.373 . S
C629 C645 1.377 . S
C630 C628 1.389 . S
C630 C631 1.524 . S
C630 C644 1.377 . S
C631 C630 1.524 . S
C631 C632 1.397 . S
C631 C636 1.363 . S
C632 H609 0.950 . S
C632 C631 1.397 . S
C632 C633 1.334 . S
C633 H610 0.950 . S
C633 C632 1.334 . S
C633 C634 1.287 . S
C634 C633 1.287 . S
C634 C635 1.524 . S
C634 H653 0.913 . S
C635 H611 0.950 . S
C635 C634 1.524 . S
C635 C636 1.415 . S
C636 H612 0.950 . S
C636 C631 1.363 . S
C636 C635 1.415 . S
C637 H613 0.951 . S
C637 C638 1.366 . S
C637 C639 1.388 . S
C638 C637 1.366 . S
C638 C642 1.385 . S
C639 H614 0.951 . S
C639 C637 1.388 . S
C639 C640 1.366 . S
C640 C639 1.366 . S
C640 C641 1.414 . S
C640 C643 1.499 . S
C641 H615 0.950 . S
C641 C640 1.414 . S
C641 C642 1.374 . S
C642 H616 0.950 . S
C642 C638 1.385 . S
C642 C641 1.374 . S
C643 C640 1.499 . S
C643 C644 1.373 . S
C643 C645 1.389 . S
C644 H617 0.950 . S
C644 C630 1.377 . S
C644 C643 1.373 . S
C645 C629 1.377 . S
C645 C643 1.389 . S
C645 C646 1.524 . S
C646 C645 1.524 . S
C646 C647 1.397 . S
C646 C651 1.363 . S
C647 H618 0.950 . S
C647 C646 1.397 . S
C647 C648 1.334 . S
C648 H619 0.950 . S
C648 C647 1.334 . S
C648 C649 1.287 . S
C649 C648 1.287 . S
C649 C650 1.524 . S
C649 H652 0.999 . S
C650 H620 0.950 . S
C650 C649 1.524 . S
C650 C651 1.415 . S
C651 H621 0.950 . S
C651 C646 1.363 . S
C651 C650 1.415 . S
H652 C649 0.999 . S
H653 C634 0.913 . S
H654 C672 0.951 . S
H655 C674 0.951 . S
H656 C676 0.950 . S
H657 C677 0.950 . S
H658 C679 0.950 . S
H659 C682 0.950 . S
H660 C683 0.950 . S
H661 C685 0.950 . S
H662 C686 0.950 . S
H663 C687 0.951 . S
H664 C689 0.951 . S
H665 C691 0.950 . S
H666 C692 0.950 . S
H667 C694 0.950 . S
H668 C697 0.950 . S
H669 C698 0.950 . S
H670 C700 0.950 . S
H671 C701 0.950 . S
C672 H654 0.951 . S
C672 C673 1.366 . S
C672 C674 1.388 . S
C673 C672 1.366 . S
C673 C677 1.385 . S
C674 H655 0.951 . S
C674 C672 1.388 . S
C674 C675 1.366 . S
C675 C674 1.366 . S
C675 C676 1.414 . S
C675 C678 1.499 . S
C676 H656 0.950 . S
C676 C675 1.414 . S
C676 C677 1.374 . S
C677 H657 0.950 . S
C677 C673 1.385 . S
C677 C676 1.374 . S
C678 C675 1.499 . S
C678 C679 1.373 . S
C678 C680 1.389 . S
C679 H658 0.950 . S
C679 C678 1.373 . S
C679 C695 1.377 . S
C680 C678 1.389 . S
C680 C681 1.524 . S
C680 C694 1.377 . S
C681 C680 1.524 . S
C681 C682 1.397 . S
C681 C686 1.363 . S
C682 H659 0.950 . S
C682 C681 1.397 . S
C682 C683 1.334 . S
C683 H660 0.950 . S
C683 C682 1.334 . S
C683 C684 1.287 . S
C684 C683 1.287 . S
C684 C685 1.524 . S
C684 H703 0.913 . S
C685 H661 0.950 . S
C685 C684 1.524 . S
C685 C686 1.415 . S
C686 H662 0.950 . S
C686 C681 1.363 . S
C686 C685 1.415 . S
C687 H663 0.951 . S
C687 C688 1.366 . S
C687 C689 1.388 . S
C688 C687 1.366 . S
C688 C692 1.385 . S
C689 H664 0.951 . S
C689 C687 1.388 . S
C689 C690 1.366 . S
C690 C689 1.366 . S
C690 C691 1.414 . S
C690 C693 1.499 . S
C691 H665 0.950 . S
C691 C690 1.414 . S
C691 C692 1.374 . S
C692 H666 0.950 . S
C692 C688 1.385 . S
C692 C691 1.374 . S
C693 C690 1.499 . S
C693 C694 1.373 . S
C693 C695 1.389 . S
C694 H667 0.950 . S
C694 C680 1.377 . S
C694 C693 1.373 . S
C695 C679 1.377 . S
C695 C693 1.389 . S
C695 C696 1.524 . S
C696 C695 1.524 . S
C696 C697 1.397 . S
C696 C701 1.363 . S
C697 H668 0.950 . S
C697 C696 1.397 . S
C697 C698 1.334 . S
C698 H669 0.950 . S
C698 C697 1.334 . S
C698 C699 1.287 . S
C699 C698 1.287 . S
C699 C700 1.524 . S
C699 H702 0.999 . S
C700 H670 0.950 . S
C700 C699 1.524 . S
C700 C701 1.415 . S
C701 H671 0.950 . S
C701 C696 1.363 . S
C701 C700 1.415 . S
H702 C699 0.999 . S
H703 C684 0.913 . S
H704 C722 0.951 . S
H705 C724 0.951 . S
H706 C726 0.950 . S
H707 C727 0.950 . S
H708 C729 0.950 . S
H709 C732 0.950 . S
H710 C733 0.950 . S
H711 C735 0.950 . S
H712 C736 0.950 . S
H713 C737 0.951 . S
H714 C739 0.951 . S
H715 C741 0.950 . S
H716 C742 0.950 . S
H717 C744 0.950 . S
H718 C747 0.950 . S
H719 C748 0.950 . S
H720 C750 0.950 . S
H721 C751 0.950 . S
C722 H704 0.951 . S
C722 C723 1.366 . S
C722 C724 1.388 . S
C723 C722 1.366 . S
C723 C727 1.385 . S
C724 H705 0.951 . S
C724 C722 1.388 . S
C724 C725 1.366 . S
C725 C724 1.366 . S
C725 C726 1.414 . S
C725 C728 1.499 . S
C726 H706 0.950 . S
C726 C725 1.414 . S
C726 C727 1.374 . S
C727 H707 0.950 . S
C727 C723 1.385 . S
C727 C726 1.374 . S
C728 C725 1.499 . S
C728 C729 1.373 . S
C728 C730 1.389 . S
C729 H708 0.950 . S
C729 C728 1.373 . S
C729 C745 1.377 . S
C730 C728 1.389 . S
C730 C731 1.524 . S
C730 C744 1.377 . S
C731 C730 1.524 . S
C731 C732 1.397 . S
C731 C736 1.363 . S
C732 H709 0.950 . S
C732 C731 1.397 . S
C732 C733 1.334 . S
C733 H710 0.950 . S
C733 C732 1.334 . S
C733 C734 1.287 . S
C734 C733 1.287 . S
C734 C735 1.524 . S
C734 H753 0.913 . S
C735 H711 0.950 . S
C735 C734 1.524 . S
C735 C736 1.415 . S
C736 H712 0.950 . S
C736 C731 1.363 . S
C736 C735 1.415 . S
C737 H713 0.951 . S
C737 C738 1.366 . S
C737 C739 1.388 . S
C738 C737 1.366 . S
C738 C742 1.385 . S
C739 H714 0.951 . S
C739 C737 1.388 . S
C739 C740 1.366 . S
C740 C739 1.366 . S
C740 C741 1.414 . S
C740 C743 1.499 . S
C741 H715 0.950 . S
C741 C740 1.414 . S
C741 C742 1.374 . S
C742 H716 0.950 . S
C742 C738 1.385 . S
C742 C741 1.374 . S
C743 C740 1.499 . S
C743 C744 1.373 . S
C743 C745 1.389 . S
C744 H717 0.950 . S
C744 C730 1.377 . S
C744 C743 1.373 . S
C745 C729 1.377 . S
C745 C743 1.389 . S
C745 C746 1.524 . S
C746 C745 1.524 . S
C746 C747 1.397 . S
C746 C751 1.363 . S
C747 H718 0.950 . S
C747 C746 1.397 . S
C747 C748 1.334 . S
C748 H719 0.950 . S
C748 C747 1.334 . S
C748 C749 1.287 . S
C749 C748 1.287 . S
C749 C750 1.524 . S
C749 H752 0.999 . S
C750 H720 0.950 . S
C750 C749 1.524 . S
C750 C751 1.415 . S
C751 H721 0.950 . S
C751 C746 1.363 . S
C751 C750 1.415 . S
H752 C749 0.999 . S
H753 C734 0.913 . S
H754 C772 0.951 . S
H755 C774 0.951 . S
H756 C776 0.950 . S
H757 C777 0.950 . S
H758 C779 0.950 . S
H759 C782 0.950 . S
H760 C783 0.950 . S
H761 C785 0.950 . S
H762 C786 0.950 . S
H763 C787 0.951 . S
H764 C789 0.951 . S
H765 C791 0.950 . S
H766 C792 0.950 . S
H767 C794 0.950 . S
H768 C797 0.950 . S
H769 C798 0.950 . S
H770 C800 0.950 . S
H771 C801 0.950 . S
C772 H754 0.951 . S
C772 C773 1.366 . S
C772 C774 1.388 . S
C773 C772 1.366 . S
C773 C777 1.385 . S
C774 H755 0.951 . S
C774 C772 1.388 . S
C774 C775 1.366 . S
C775 C774 1.366 . S
C775 C776 1.414 . S
C775 C778 1.499 . S
C776 H756 0.950 . S
C776 C775 1.414 . S
C776 C777 1.374 . S
C777 H757 0.950 . S
C777 C773 1.385 . S
C777 C776 1.374 . S
C778 C775 1.499 . S
C778 C779 1.373 . S
C778 C780 1.389 . S
C779 H758 0.950 . S
C779 C778 1.373 . S
C779 C795 1.377 . S
C780 C778 1.389 . S
C780 C781 1.524 . S
C780 C794 1.377 . S
C781 C780 1.524 . S
C781 C782 1.397 . S
C781 C786 1.363 . S
C782 H759 0.950 . S
C782 C781 1.397 . S
C782 C783 1.334 . S
C783 H760 0.950 . S
C783 C782 1.334 . S
C783 C784 1.287 . S
C784 C783 1.287 . S
C784 C785 1.524 . S
C784 H803 0.913 . S
C785 H761 0.950 . S
C785 C784 1.524 . S
C785 C786 1.415 . S
C786 H762 0.950 . S
C786 C781 1.363 . S
C786 C785 1.415 . S
C787 H763 0.951 . S
C787 C788 1.366 . S
C787 C789 1.388 . S
C788 C787 1.366 . S
C788 C792 1.385 . S
C789 H764 0.951 . S
C789 C787 1.388 . S
C789 C790 1.366 . S
C790 C789 1.366 . S
C790 C791 1.414 . S
C790 C793 1.499 . S
C791 H765 0.950 . S
C791 C790 1.414 . S
C791 C792 1.374 . S
C792 H766 0.950 . S
C792 C788 1.385 . S
C792 C791 1.374 . S
C793 C790 1.499 . S
C793 C794 1.373 . S
C793 C795 1.389 . S
C794 H767 0.950 . S
C794 C780 1.377 . S
C794 C793 1.373 . S
C795 C779 1.377 . S
C795 C793 1.389 . S
C795 C796 1.524 . S
C796 C795 1.524 . S
C796 C797 1.397 . S
C796 C801 1.363 . S
C797 H768 0.950 . S
C797 C796 1.397 . S
C797 C798 1.334 . S
C798 H769 0.950 . S
C798 C797 1.334 . S
C798 C799 1.287 . S
C799 C798 1.287 . S
C799 C800 1.524 . S
C799 H802 0.999 . S
C800 H770 0.950 . S
C800 C799 1.524 . S
C800 C801 1.415 . S
C801 H771 0.950 . S
C801 C796 1.363 . S
C801 C800 1.415 . S
H802 C799 0.999 . S
H803 C784 0.913 . S
H804 C822 0.951 . S
H805 C824 0.951 . S
H806 C826 0.950 . S
H807 C827 0.950 . S
H808 C829 0.950 . S
H809 C832 0.950 . S
H810 C833 0.950 . S
H811 C835 0.950 . S
H812 C836 0.950 . S
H813 C837 0.951 . S
H814 C839 0.951 . S
H815 C841 0.950 . S
H816 C842 0.950 . S
H817 C844 0.950 . S
H818 C847 0.950 . S
H819 C848 0.950 . S
H820 C850 0.950 . S
H821 C851 0.950 . S
C822 H804 0.951 . S
C822 C823 1.366 . S
C822 C824 1.388 . S
C823 C822 1.366 . S
C823 C827 1.385 . S
C824 H805 0.951 . S
C824 C822 1.388 . S
C824 C825 1.366 . S
C825 C824 1.366 . S
C825 C826 1.414 . S
C825 C828 1.499 . S
C826 H806 0.950 . S
C826 C825 1.414 . S
C826 C827 1.374 . S
C827 H807 0.950 . S
C827 C823 1.385 . S
C827 C826 1.374 . S
C828 C825 1.499 . S
C828 C829 1.373 . S
C828 C830 1.389 . S
C829 H808 0.950 . S
C829 C828 1.373 . S
C829 C845 1.377 . S
C830 C828 1.389 . S
C830 C831 1.524 . S
C830 C844 1.377 . S
C831 C830 1.524 . S
C831 C832 1.397 . S
C831 C836 1.363 . S
C832 H809 0.950 . S
C832 C831 1.397 . S
C832 C833 1.334 . S
C833 H810 0.950 . S
C833 C832 1.334 . S
C833 C834 1.287 . S
C834 C833 1.287 . S
C834 C835 1.524 . S
C834 H853 0.913 . S
C835 H811 0.950 . S
C835 C834 1.524 . S
C835 C836 1.415 . S
C836 H812 0.950 . S
C836 C831 1.363 . S
C836 C835 1.415 . S
C837 H813 0.951 . S
C837 C838 1.366 . S
C837 C839 1.388 . S
C838 C837 1.366 . S
C838 C842 1.385 . S
C839 H814 0.951 . S
C839 C837 1.388 . S
C839 C840 1.366 . S
C840 C839 1.366 . S
C840 C841 1.414 . S
C840 C843 1.499 . S
C841 H815 0.950 . S
C841 C840 1.414 . S
C841 C842 1.374 . S
C842 H816 0.950 . S
C842 C838 1.385 . S
C842 C841 1.374 . S
C843 C840 1.499 . S
C843 C844 1.373 . S
C843 C845 1.389 . S
C844 H817 0.950 . S
C844 C830 1.377 . S
C844 C843 1.373 . S
C845 C829 1.377 . S
C845 C843 1.389 . S
C845 C846 1.524 . S
C846 C845 1.524 . S
C846 C847 1.397 . S
C846 C851 1.363 . S
C847 H818 0.950 . S
C847 C846 1.397 . S
C847 C848 1.334 . S
C848 H819 0.950 . S
C848 C847 1.334 . S
C848 C849 1.287 . S
C849 C848 1.287 . S
C849 C850 1.524 . S
C849 H852 0.999 . S
C850 H820 0.950 . S
C850 C849 1.524 . S
C850 C851 1.415 . S
C851 H821 0.950 . S
C851 C846 1.363 . S
C851 C850 1.415 . S
H852 C849 0.999 . S
H853 C834 0.913 . S
H854 C872 0.951 . S
H855 C874 0.951 . S
H856 C876 0.950 . S
H857 C877 0.950 . S
H858 C879 0.950 . S
H859 C882 0.950 . S
H860 C883 0.950 . S
H861 C885 0.950 . S
H862 C886 0.950 . S
H863 C887 0.951 . S
H864 C889 0.951 . S
H865 C891 0.950 . S
H866 C892 0.950 . S
H867 C894 0.950 . S
H868 C897 0.950 . S
H869 C898 0.950 . S
H870 C900 0.950 . S
H871 C901 0.950 . S
C872 H854 0.951 . S
C872 C873 1.366 . S
C872 C874 1.388 . S
C873 C872 1.366 . S
C873 C877 1.385 . S
C874 H855 0.951 . S
C874 C872 1.388 . S
C874 C875 1.366 . S
C875 C874 1.366 . S
C875 C876 1.414 . S
C875 C878 1.499 . S
C876 H856 0.950 . S
C876 C875 1.414 . S
C876 C877 1.374 . S
C877 H857 0.950 . S
C877 C873 1.385 . S
C877 C876 1.374 . S
C878 C875 1.499 . S
C878 C879 1.373 . S
C878 C880 1.389 . S
C879 H858 0.950 . S
C879 C878 1.373 . S
C879 C895 1.377 . S
C880 C878 1.389 . S
C880 C881 1.524 . S
C880 C894 1.377 . S
C881 C880 1.524 . S
C881 C882 1.397 . S
C881 C886 1.363 . S
C882 H859 0.950 . S
C882 C881 1.397 . S
C882 C883 1.334 . S
C883 H860 0.950 . S
C883 C882 1.334 . S
C883 C884 1.287 . S
C884 C883 1.287 . S
C884 C885 1.524 . S
C884 H903 0.913 . S
C885 H861 0.950 . S
C885 C884 1.524 . S
C885 C886 1.415 . S
C886 H862 0.950 . S
C886 C881 1.363 . S
C886 C885 1.415 . S
C887 H863 0.951 . S
C887 C888 1.366 . S
C887 C889 1.388 . S
C888 C887 1.366 . S
C888 C892 1.385 . S
C889 H864 0.951 . S
C889 C887 1.388 . S
C889 C890 1.366 . S
C890 C889 1.366 . S
C890 C891 1.414 . S
C890 C893 1.499 . S
C891 H865 0.950 . S
C891 C890 1.414 . S
C891 C892 1.374 . S
C892 H866 0.950 . S
C892 C888 1.385 . S
C892 C891 1.374 . S
C893 C890 1.499 . S
C893 C894 1.373 . S
C893 C895 1.389 . S
C894 H867 0.950 . S
C894 C880 1.377 . S
C894 C893 1.373 . S
C895 C879 1.377 . S
C895 C893 1.389 . S
C895 C896 1.524 . S
C896 C895 1.524 . S
C896 C897 1.397 . S
C896 C901 1.363 . S
C897 H868 0.950 . S
C897 C896 1.397 . S
C897 C898 1.334 . S
C898 H869 0.950 . S
C898 C897 1.334 . S
C898 C899 1.287 . S
C899 C898 1.287 . S
C899 C900 1.524 . S
C899 H902 0.999 . S
C900 H870 0.950 . S
C900 C899 1.524 . S
C900 C901 1.415 . S
C901 H871 0.950 . S
C901 C896 1.363 . S
C901 C900 1.415 . S
H902 C899 0.999 . S
H903 C884 0.913 . S
H904 C922 0.951 . S
H905 C924 0.951 . S
H906 C926 0.950 . S
H907 C927 0.950 . S
H908 C929 0.950 . S
H909 C932 0.950 . S
H910 C933 0.950 . S
H911 C935 0.950 . S
H912 C936 0.950 . S
H913 C937 0.951 . S
H914 C939 0.951 . S
H915 C941 0.950 . S
H916 C942 0.950 . S
H917 C944 0.950 . S
H918 C947 0.950 . S
H919 C948 0.950 . S
H920 C950 0.950 . S
H921 C951 0.950 . S
C922 H904 0.951 . S
C922 C923 1.366 . S
C922 C924 1.388 . S
C923 C922 1.366 . S
C923 C927 1.385 . S
C924 H905 0.951 . S
C924 C922 1.388 . S
C924 C925 1.366 . S
C925 C924 1.366 . S
C925 C926 1.414 . S
C925 C928 1.499 . S
C926 H906 0.950 . S
C926 C925 1.414 . S
C926 C927 1.374 . S
C927 H907 0.950 . S
C927 C923 1.385 . S
C927 C926 1.374 . S
C928 C925 1.499 . S
C928 C929 1.373 . S
C928 C930 1.389 . S
C929 H908 0.950 . S
C929 C928 1.373 . S
C929 C945 1.377 . S
C930 C928 1.389 . S
C930 C931 1.524 . S
C930 C944 1.377 . S
C931 C930 1.524 . S
C931 C932 1.397 . S
C931 C936 1.363 . S
C932 H909 0.950 . S
C932 C931 1.397 . S
C932 C933 1.334 . S
C933 H910 0.950 . S
C933 C932 1.334 . S
C933 C934 1.287 . S
C934 C933 1.287 . S
C934 C935 1.524 . S
C934 H953 0.913 . S
C935 H911 0.950 . S
C935 C934 1.524 . S
C935 C936 1.415 . S
C936 H912 0.950 . S
C936 C931 1.363 . S
C936 C935 1.415 . S
C937 H913 0.951 . S
C937 C938 1.366 . S
C937 C939 1.388 . S
C938 C937 1.366 . S
C938 C942 1.385 . S
C939 H914 0.951 . S
C939 C937 1.388 . S
C939 C940 1.366 . S
C940 C939 1.366 . S
C940 C941 1.414 . S
C940 C943 1.499 . S
C941 H915 0.950 . S
C941 C940 1.414 . S
C941 C942 1.374 . S
C942 H916 0.950 . S
C942 C938 1.385 . S
C942 C941 1.374 . S
C943 C940 1.499 . S
C943 C944 1.373 . S
C943 C945 1.389 . S
C944 H917 0.950 . S
C944 C930 1.377 . S
C944 C943 1.373 . S
C945 C929 1.377 . S
C945 C943 1.389 . S
C945 C946 1.524 . S
C946 C945 1.524 . S
C946 C947 1.397 . S
C946 C951 1.363 . S
C947 H918 0.950 . S
C947 C946 1.397 . S
C947 C948 1.334 . S
C948 H919 0.950 . S
C948 C947 1.334 . S
C948 C949 1.287 . S
C949 C948 1.287 . S
C949 C950 1.524 . S
C949 H952 0.999 . S
C950 H920 0.950 . S
C950 C949 1.524 . S
C950 C951 1.415 . S
C951 H921 0.950 . S
C951 C946 1.363 . S
C951 C950 1.415 . S
H952 C949 0.999 . S
H953 C934 0.913 . S
H954 C972 0.951 . S
H955 C974 0.951 . S
H956 C976 0.950 . S
H957 C977 0.950 . S
H958 C979 0.950 . S
H959 C982 0.950 . S
H960 C983 0.950 . S
H961 C985 0.950 . S
H962 C986 0.950 . S
H963 C987 0.951 . S
H964 C989 0.951 . S
H965 C991 0.950 . S
H966 C992 0.950 . S
H967 C994 0.950 . S
H968 C997 0.950 . S
H969 C998 0.950 . S
H970 C1000 0.950 . S
H971 C1001 0.950 . S
C972 H954 0.951 . S
C972 C973 1.366 . S
C972 C974 1.388 . S
C973 C972 1.366 . S
C973 C977 1.385 . S
C974 H955 0.951 . S
C974 C972 1.388 . S
C974 C975 1.366 . S
C975 C974 1.366 . S
C975 C976 1.414 . S
C975 C978 1.499 . S
C976 H956 0.950 . S
C976 C975 1.414 . S
C976 C977 1.374 . S
C977 H957 0.950 . S
C977 C973 1.385 . S
C977 C976 1.374 . S
C978 C975 1.499 . S
C978 C979 1.373 . S
C978 C980 1.389 . S
C979 H958 0.950 . S
C979 C978 1.373 . S
C979 C995 1.377 . S
C980 C978 1.389 . S
C980 C981 1.524 . S
C980 C994 1.377 . S
C981 C980 1.524 . S
C981 C982 1.397 . S
C981 C986 1.363 . S
C982 H959 0.950 . S
C982 C981 1.397 . S
C982 C983 1.334 . S
C983 H960 0.950 . S
C983 C982 1.334 . S
C983 C984 1.287 . S
C984 C983 1.287 . S
C984 C985 1.524 . S
C984 H1003 0.913 . S
C985 H961 0.950 . S
C985 C984 1.524 . S
C985 C986 1.415 . S
C986 H962 0.950 . S
C986 C981 1.363 . S
C986 C985 1.415 . S
C987 H963 0.951 . S
C987 C988 1.366 . S
C987 C989 1.388 . S
C988 C987 1.366 . S
C988 C992 1.385 . S
C989 H964 0.951 . S
C989 C987 1.388 . S
C989 C990 1.366 . S
C990 C989 1.366 . S
C990 C991 1.414 . S
C990 C993 1.499 . S
C991 H965 0.950 . S
C991 C990 1.414 . S
C991 C992 1.374 . S
C992 H966 0.950 . S
C992 C988 1.385 . S
C992 C991 1.374 . S
C993 C990 1.499 . S
C993 C994 1.373 . S
C993 C995 1.389 . S
C994 H967 0.950 . S
C994 C980 1.377 . S
C994 C993 1.373 . S
C995 C979 1.377 . S
C995 C993 1.389 . S
C995 C996 1.524 . S
C996 C995 1.524 . S
C996 C997 1.397 . S
C996 C1001 1.363 . S
C997 H968 0.950 . S
C997 C996 1.397 . S
C997 C998 1.334 . S
C998 H969 0.950 . S
C998 C997 1.334 . S
C998 C999 1.287 . S
C999 C998 1.287 . S
C999 C1000 1.524 . S
C999 H1002 0.999 . S
C1000 H970 0.950 . S
C1000 C999 1.524 . S
C1000 C1001 1.415 . S
C1001 H971 0.950 . S
C1001 C996 1.363 . S
C1001 C1000 1.415 . S
H1002 C999 0.999 . S
H1003 C984 0.913 . S
H1004 C1022 0.951 . S
H1005 C1024 0.951 . S
H1006 C1026 0.950 . S
H1007 C1027 0.950 . S
H1008 C1029 0.950 . S
H1009 C1032 0.950 . S
H1010 C1033 0.950 . S
H1011 C1035 0.950 . S
H1012 C1036 0.950 . S
H1013 C1037 0.951 . S
H1014 C1039 0.951 . S
H1015 C1041 0.950 . S
H1016 C1042 0.950 . S
H1017 C1044 0.950 . S
H1018 C1047 0.950 . S
H1019 C1048 0.950 . S
H1020 C1050 0.950 . S
H1021 C1051 0.950 . S
C1022 H1004 0.951 . S
C1022 C1023 1.366 . S
C1022 C1024 1.388 . S
C1023 C1022 1.366 . S
C1023 C1027 1.385 . S
C1024 H1005 0.951 . S
C1024 C1022 1.388 . S
C1024 C1025 1.366 . S
C1025 C1024 1.366 . S
C1025 C1026 1.414 . S
C1025 C1028 1.499 . S
C1026 H1006 0.950 . S
C1026 C1025 1.414 . S
C1026 C1027 1.374 . S
C1027 H1007 0.950 . S
C1027 C1023 1.385 . S
C1027 C1026 1.374 . S
C1028 C1025 1.499 . S
C1028 C1029 1.373 . S
C1028 C1030 1.389 . S
C1029 H1008 0.950 . S
C1029 C1028 1.373 . S
C1029 C1045 1.377 . S
C1030 C1028 1.389 . S
C1030 C1031 1.524 . S
C1030 C1044 1.377 . S
C1031 C1030 1.524 . S
C1031 C1032 1.397 . S
C1031 C1036 1.363 . S
C1032 H1009 0.950 . S
C1032 C1031 1.397 . S
C1032 C1033 1.334 . S
C1033 H1010 0.950 . S
C1033 C1032 1.334 . S
C1033 C1034 1.287 . S
C1034 C1033 1.287 . S
C1034 C1035 1.524 . S
C1034 H1053 0.913 . S
C1035 H1011 0.950 . S
C1035 C1034 1.524 . S
C1035 C1036 1.415 . S
C1036 H1012 0.950 . S
C1036 C1031 1.363 . S
C1036 C1035 1.415 . S
C1037 H1013 0.951 . S
C1037 C1038 1.366 . S
C1037 C1039 1.388 . S
C1038 C1037 1.366 . S
C1038 C1042 1.385 . S
C1039 H1014 0.951 . S
C1039 C1037 1.388 . S
C1039 C1040 1.366 . S
C1040 C1039 1.366 . S
C1040 C1041 1.414 . S
C1040 C1043 1.499 . S
C1041 H1015 0.950 . S
C1041 C1040 1.414 . S
C1041 C1042 1.374 . S
C1042 H1016 0.950 . S
C1042 C1038 1.385 . S
C1042 C1041 1.374 . S
C1043 C1040 1.499 . S
C1043 C1044 1.373 . S
C1043 C1045 1.389 . S
C1044 H1017 0.950 . S
C1044 C1030 1.377 . S
C1044 C1043 1.373 . S
C1045 C1029 1.377 . S
C1045 C1043 1.389 . S
C1045 C1046 1.524 . S
C1046 C1045 1.524 . S
C1046 C1047 1.397 . S
C1046 C1051 1.363 . S
C1047 H1018 0.950 . S
C1047 C1046 1.397 . S
C1047 C1048 1.334 . S
C1048 H1019 0.950 . S
C1048 C1047 1.334 . S
C1048 C1049 1.287 . S
C1049 C1048 1.287 . S
C1049 C1050 1.524 . S
C1049 H1052 0.999 . S
C1050 H1020 0.950 . S
C1050 C1049 1.524 . S
C1050 C1051 1.415 . S
C1051 H1021 0.950 . S
C1051 C1046 1.363 . S
C1051 C1050 1.415 . S
H1052 C1049 0.999 . S
H1053 C1034 0.913 . S
H1054 C1072 0.951 . S
H1055 C1074 0.951 . S
H1056 C1076 0.950 . S
H1057 C1077 0.950 . S
H1058 C1079 0.950 . S
H1059 C1082 0.950 . S
H1060 C1083 0.950 . S
H1061 C1085 0.950 . S
H1062 C1086 0.950 . S
H1063 C1087 0.951 . S
H1064 C1089 0.951 . S
H1065 C1091 0.950 . S
H1066 C1092 0.950 . S
H1067 C1094 0.950 . S
H1068 C1097 0.950 . S
H1069 C1098 0.950 . S
H1070 C1100 0.950 . S
H1071 C1101 0.950 . S
C1072 H1054 0.951 . S
C1072 C1073 1.366 . S
C1072 C1074 1.388 . S
C1073 C1072 1.366 . S
C1073 C1077 1.385 . S
C1074 H1055 0.951 . S
C1074 C1072 1.388 . S
C1074 C1075 1.366 . S
C1075 C1074 1.366 . S
C1075 C1076 1.414 . S
C1075 C1078 1.499 . S
C1076 H1056 0.950 . S
C1076 C1075 1.414 . S
C1076 C1077 1.374 . S
C1077 H1057 0.950 . S
C1077 C1073 1.385 . S
C1077 C1076 1.374 . S
C1078 C1075 1.499 . S
C1078 C1079 1.373 . S
C1078 C1080 1.389 . S
C1079 H1058 0.950 . S
C1079 C1078 1.373 . S
C1079 C1095 1.377 . S
C1080 C1078 1.389 . S
C1080 C1081 1.524 . S
C1080 C1094 1.377 . S
C1081 C1080 1.524 . S
C1081 C1082 1.397 . S
C1081 C1086 1.363 . S
C1082 H1059 0.950 . S
C1082 C1081 1.397 . S
C1082 C1083 1.334 . S
C1083 H1060 0.950 . S
C1083 C1082 1.334 . S
C1083 C1084 1.287 . S
C1084 C1083 1.287 . S
C1084 C1085 1.524 . S
C1084 H1103 0.913 . S
C1085 H1061 0.950 . S
C1085 C1084 1.524 . S
C1085 C1086 1.415 . S
C1086 H1062 0.950 . S
C1086 C1081 1.363 . S
C1086 C1085 1.415 . S
C1087 H1063 0.951 . S
C1087 C1088 1.366 . S
C1087 C1089 1.388 . S
C1088 C1087 1.366 . S
C1088 C1092 1.385 . S
C1089 H1064 0.951 . S
C1089 C1087 1.388 . S
C1089 C1090 1.366 . S
C1090 C1089 1.366 . S
C1090 C1091 1.414 . S
C1090 C1093 1.499 . S
C1091 H1065 0.950 . S
C1091 C1090 1.414 . S
C1091 C1092 1.374 . S
C1092 H1066 0.950 . S
C1092 C1088 1.385 . S
C1092 C1091 1.374 . S
C1093 C1090 1.499 . S
C1093 C1094 1.373 . S
C1093 C1095 1.389 . S
C1094 H1067 0.950 . S
C1094 C1080 1.377 . S
C1094 C1093 1.373 . S
C1095 C1079 1.377 . S
C1095 C1093 1.389 . S
C1095 C1096 1.524 . S
C1096 C1095 1.524 . S
C1096 C1097 1.397 . S
C1096 C1101 1.363 . S
C1097 H1068 0.950 . S
C1097 C1096 1.397 . S
C1097 C1098 1.334 . S
C1098 H1069 0.950 . S
C1098 C1097 1.334 . S
C1098 C1099 1.287 . S
C1099 C1098 1.287 . S
C1099 C1100 1.524 . S
C1099 H1102 0.999 . S
C1100 H1070 0.950 . S
C1100 C1099 1.524 . S
C1100 C1101 1.415 . S
C1101 H1071 0.950 . S
C1101 C1096 1.363 . S
C1101 C1100 1.415 . S
H1102 C1099 0.999 . S
H1103 C1084 0.913 . S
H1104 C1122 0.951 . S
H1105 C1124 0.951 . S
H1106 C1126 0.950 . S
H1107 C1127 0.950 . S
H1108 C1129 0.950 . S
H1109 C1132 0.950 . S
H1110 C1133 0.950 . S
H1111 C1135 0.950 . S
H1112 C1136 0.950 . S
H1113 C1137 0.951 . S
H1114 C1139 0.951 . S
H1115 C1141 0.950 . S
H1116 C1142 0.950 . S
H1117 C1144 0.950 . S
H1118 C1147 0.950 . S
H1119 C1148 0.950 . S
H1120 C1150 0.950 . S
H1121 C1151 0.950 . S
C1122 H1104 0.951 . S
C1122 C1123 1.366 . S
C1122 C1124 1.388 . S
C1123 C1122 1.366 . S
C1123 C1127 1.385 . S
C1124 H1105 0.951 . S
C1124 C1122 1.388 . S
C1124 C1125 1.366 . S
C1125 C1124 1.366 . S
C1125 C1126 1.414 . S
C1125 C1128 1.499 . S
C1126 H1106 0.950 . S
C1126 C1125 1.414 . S
C1126 C1127 1.374 . S
C1127 H1107 0.950 . S
C1127 C1123 1.385 . S
C1127 C1126 1.374 . S
C1128 C1125 1.499 . S
C1128 C1129 1.373 . S
C1128 C1130 1.389 . S
C1129 H1108 0.950 . S
C1129 C1128 1.373 . S
C1129 C1145 1.377 . S
C1130 C1128 1.389 . S
C1130 C1131 1.524 . S
C1130 C1144 1.377 . S
C1131 C1130 1.524 . S
C1131 C1132 1.397 . S
C1131 C1136 1.363 . S
C1132 H1109 0.950 . S
C1132 C1131 1.397 . S
C1132 C1133 1.334 . S
C1133 H1110 0.950 . S
C1133 C1132 1.334 . S
C1133 C1134 1.287 . S
C1134 C1133 1.287 . S
C1134 C1135 1.524 . S
C1134 H1153 0.913 . S
C1135 H1111 0.950 . S
C1135 C1134 1.524 . S
C1135 C1136 1.415 . S
C1136 H1112 0.950 . S
C1136 C1131 1.363 . S
C1136 C1135 1.415 . S
C1137 H1113 0.951 . S
C1137 C1138 1.366 . S
C1137 C1139 1.388 . S
C1138 C1137 1.366 . S
C1138 C1142 1.385 . S
C1139 H1114 0.951 . S
C1139 C1137 1.388 . S
C1139 C1140 1.366 . S
C1140 C1139 1.366 . S
C1140 C1141 1.414 . S
C1140 C1143 1.499 . S
C1141 H1115 0.950 . S
C1141 C1140 1.414 . S
C1141 C1142 1.374 . S
C1142 H1116 0.950 . S
C1142 C1138 1.385 . S
C1142 C1141 1.374 . S
C1143 C1140 1.499 . S
C1143 C1144 1.373 . S
C1143 C1145 1.389 . S
C1144 H1117 0.950 . S
C1144 C1130 1.377 . S
C1144 C1143 1.373 . S
C1145 C1129 1.377 . S
C1145 C1143 1.389 . S
C1145 C1146 1.524 . S
C1146 C1145 1.524 . S
C1146 C1147 1.397 . S
C1146 C1151 1.363 . S
C1147 H1118 0.950 . S
C1147 C1146 1.397 . S
C1147 C1148 1.334 . S
C1148 H1119 0.950 . S
C1148 C1147 1.334 . S
C1148 C1149 1.287 . S
C1149 C1148 1.287 . S
C1149 C1150 1.524 . S
C1149 H1152 0.999 . S
C1150 H1120 0.950 . S
C1150 C1149 1.524 . S
C1150 C1151 1.415 . S
C1151 H1121 0.950 . S
C1151 C1146 1.363 . S
C1151 C1150 1.415 . S
H1152 C1149 0.999 . S
H1153 C1134 0.913 . S
H1154 C1172 0.951 . S
H1155 C1174 0.951 . S
H1156 C1176 0.950 . S
H1157 C1177 0.950 . S
H1158 C1179 0.950 . S
H1159 C1182 0.950 . S
H1160 C1183 0.950 . S
H1161 C1185 0.950 . S
H1162 C1186 0.950 . S
H1163 C1187 0.951 . S
H1164 C1189 0.951 . S
H1165 C1191 0.950 . S
H1166 C1192 0.950 . S
H1167 C1194 0.950 . S
H1168 C1197 0.950 . S
H1169 C1198 0.950 . S
H1170 C1200 0.950 . S
H1171 C1201 0.950 . S
C1172 H1154 0.951 . S
C1172 C1173 1.366 . S
C1172 C1174 1.388 . S
C1173 C1172 1.366 . S
C1173 C1177 1.385 . S
C1174 H1155 0.951 . S
C1174 C1172 1.388 . S
C1174 C1175 1.366 . S
C1175 C1174 1.366 . S
C1175 C1176 1.414 . S
C1175 C1178 1.499 . S
C1176 H1156 0.950 . S
C1176 C1175 1.414 . S
C1176 C1177 1.374 . S
C1177 H1157 0.950 . S
C1177 C1173 1.385 . S
C1177 C1176 1.374 . S
C1178 C1175 1.499 . S
C1178 C1179 1.373 . S
C1178 C1180 1.389 . S
C1179 H1158 0.950 . S
C1179 C1178 1.373 . S
C1179 C1195 1.377 . S
C1180 C1178 1.389 . S
C1180 C1181 1.524 . S
C1180 C1194 1.377 . S
C1181 C1180 1.524 . S
C1181 C1182 1.397 . S
C1181 C1186 1.363 . S
C1182 H1159 0.950 . S
C1182 C1181 1.397 . S
C1182 C1183 1.334 . S
C1183 H1160 0.950 . S
C1183 C1182 1.334 . S
C1183 C1184 1.287 . S
C1184 C1183 1.287 . S
C1184 C1185 1.524 . S
C1184 H1203 0.913 . S
C1185 H1161 0.950 . S
C1185 C1184 1.524 . S
C1185 C1186 1.415 . S
C1186 H1162 0.950 . S
C1186 C1181 1.363 . S
C1186 C1185 1.415 . S
C1187 H1163 0.951 . S
C1187 C1188 1.366 . S
C1187 C1189 1.388 . S
C1188 C1187 1.366 . S
C1188 C1192 1.385 . S
C1189 H1164 0.951 . S
C1189 C1187 1.388 . S
C1189 C1190 1.366 . S
C1190 C1189 1.366 . S
C1190 C1191 1.414 . S
C1190 C1193 1.499 . S
C1191 H1165 0.950 . S
C1191 C1190 1.414 . S
C1191 C1192 1.374 . S
C1192 H1166 0.950 . S
C1192 C1188 1.385 . S
C1192 C1191 1.374 . S
C1193 C1190 1.499 . S
C1193 C1194 1.373 . S
C1193 C1195 1.389 . S
C1194 H1167 0.950 . S
C1194 C1180 1.377 . S
C1194 C1193 1.373 . S
C1195 C1179 1.377 . S
C1195 C1193 1.389 . S
C1195 C1196 1.524 . S
C1196 C1195 1.524 . S
C1196 C1197 1.397 . S
C1196 C1201 1.363 . S
C1197 H1168 0.950 . S
C1197 C1196 1.397 . S
C1197 C1198 1.334 . S
C1198 H1169 0.950 . S
C1198 C1197 1.334 . S
C1198 C1199 1.287 . S
C1199 C1198 1.287 . S
C1199 C1200 1.524 . S
C1199 H1202 0.999 . S
C1200 H1170 0.950 . S
C1200 C1199 1.524 . S
C1200 C1201 1.415 . S
C1201 H1171 0.950 . S
C1201 C1196 1.363 . S
C1201 C1200 1.415 . S
H1202 C1199 0.999 . S
H1203 C1184 0.913 . S
H1204 C1222 0.951 . S
H1205 C1224 0.951 . S
H1206 C1226 0.950 . S
H1207 C1227 0.950 . S
H1208 C1229 0.950 . S
H1209 C1232 0.950 . S
H1210 C1233 0.950 . S
H1211 C1235 0.950 . S
H1212 C1236 0.950 . S
H1213 C1237 0.951 . S
H1214 C1239 0.951 . S
H1215 C1241 0.950 . S
H1216 C1242 0.950 . S
H1217 C1244 0.950 . S
H1218 C1247 0.950 . S
H1219 C1248 0.950 . S
H1220 C1250 0.950 . S
H1221 C1251 0.950 . S
C1222 H1204 0.951 . S
C1222 C1223 1.366 . S
C1222 C1224 1.388 . S
C1223 C1222 1.366 . S
C1223 C1227 1.385 . S
C1224 H1205 0.951 . S
C1224 C1222 1.388 . S
C1224 C1225 1.366 . S
C1225 C1224 1.366 . S
C1225 C1226 1.414 . S
C1225 C1228 1.499 . S
C1226 H1206 0.950 . S
C1226 C1225 1.414 . S
C1226 C1227 1.374 . S
C1227 H1207 0.950 . S
C1227 C1223 1.385 . S
C1227 C1226 1.374 . S
C1228 C1225 1.499 . S
C1228 C1229 1.373 . S
C1228 C1230 1.389 . S
C1229 H1208 0.950 . S
C1229 C1228 1.373 . S
C1229 C1245 1.377 . S
C1230 C1228 1.389 . S
C1230 C1231 1.524 . S
C1230 C1244 1.377 . S
C1231 C1230 1.524 . S
C1231 C1232 1.397 . S
C1231 C1236 1.363 . S
C1232 H1209 0.950 . S
C1232 C1231 1.397 . S
C1232 C1233 1.334 . S
C1233 H1210 0.950 . S
C1233 C1232 1.334 . S
C1233 C1234 1.287 . S
C1234 C1233 1.287 . S
C1234 C1235 1.524 . S
C1234 H1253 0.913 . S
C1235 H1211 0.950 . S
C1235 C1234 1.524 . S
C1235 C1236 1.415 . S
C1236 H1212 0.950 . S
C1236 C1231 1.363 . S
C1236 C1235 1.415 . S
C1237 H1213 0.951 . S
C1237 C1238 1.366 . S
C1237 C1239 1.388 . S
C1238 C1237 1.366 . S
C1238 C1242 1.385 . S
C1239 H1214 0.951 . S
C1239 C1237 1.388 . S
C1239 C1240 1.366 . S
C1240 C1239 1.366 . S
C1240 C1241 1.414 . S
C1240 C1243 1.499 . S
C1241 H1215 0.950 . S
C1241 C1240 1.414 . S
C1241 C1242 1.374 . S
C1242 H1216 0.950 . S
C1242 C1238 1.385 . S
C1242 C1241 1.374 . S
C1243 C1240 1.499 . S
C1243 C1244 1.373 . S
C1243 C1245 1.389 . S
C1244 H1217 0.950 . S
C1244 C1230 1.377 . S
C1244 C1243 1.373 . S
C1245 C1229 1.377 . S
C1245 C1243 1.389 . S
C1245 C1246 1.524 . S
C1246 C1245 1.524 . S
C1246 C1247 1.397 . S
C1246 C1251 1.363 . S
C1247 H1218 0.950 . S
C1247 C1246 1.397 . S
C1247 C1248 1.334 . S
C1248 H1219 0.950 . S
C1248 C1247 1.334 . S
C1248 C1249 1.287 . S
C1249 C1248 1.287 . S
C1249 C1250 1.524 . S
C1249 H1252 0.999 . S
C1250 H1220 0.950 . S
C1250 C1249 1.524 . S
C1250 C1251 1.415 . S
C1251 H1221 0.950 . S
C1251 C1246 1.363 . S
C1251 C1250 1.415 . S
H1252 C1249 0.999 . S
H1253 C1234 0.913 . S
H1254 C1272 0.951 . S
H1255 C1274 0.951 . S
H1256 C1276 0.950 . S
H1257 C1277 0.950 . S
H1258 C1279 0.950 . S
H1259 C1282 0.950 . S
H1260 C1283 0.950 . S
H1261 C1285 0.950 . S
H1262 C1286 0.950 . S
H1263 C1287 0.951 . S
H1264 C1289 0.951 . S
H1265 C1291 0.950 . S
H1266 C1292 0.950 . S
H1267 C1294 0.950 . S
H1268 C1297 0.950 . S
H1269 C1298 0.950 . S
H1270 C1300 0.950 . S
H1271 C1301 0.950 . S
C1272 H1254 0.951 . S
C1272 C1273 1.366 . S
C1272 C1274 1.388 . S
C1273 C1272 1.366 . S
C1273 C1277 1.385 . S
C1274 H1255 0.951 . S
C1274 C1272 1.388 . S
C1274 C1275 1.366 . S
C1275 C1274 1.366 . S
C1275 C1276 1.414 . S
C1275 C1278 1.499 . S
C1276 H1256 0.950 . S
C1276 C1275 1.414 . S
C1276 C1277 1.374 . S
C1277 H1257 0.950 . S
C1277 C1273 1.385 . S
C1277 C1276 1.374 . S
C1278 C1275 1.499 . S
C1278 C1279 1.373 . S
C1278 C1280 1.389 . S
C1279 H1258 0.950 . S
C1279 C1278 1.373 . S
C1279 C1295 1.377 . S
C1280 C1278 1.389 . S
C1280 C1281 1.524 . S
C1280 C1294 1.377 . S
C1281 C1280 1.524 . S
C1281 C1282 1.397 . S
C1281 C1286 1.363 . S
C1282 H1259 0.950 . S
C1282 C1281 1.397 . S
C1282 C1283 1.334 . S
C1283 H1260 0.950 . S
C1283 C1282 1.334 . S
C1283 C1284 1.287 . S
C1284 C1283 1.287 . S
C1284 C1285 1.524 . S
C1284 H1303 0.913 . S
C1285 H1261 0.950 . S
C1285 C1284 1.524 . S
C1285 C1286 1.415 . S
C1286 H1262 0.950 . S
C1286 C1281 1.363 . S
C1286 C1285 1.415 . S
C1287 H1263 0.951 . S
C1287 C1288 1.366 . S
C1287 C1289 1.388 . S
C1288 C1287 1.366 . S
C1288 C1292 1.385 . S
C1289 H1264 0.951 . S
C1289 C1287 1.388 . S
C1289 C1290 1.366 . S
C1290 C1289 1.366 . S
C1290 C1291 1.414 . S
C1290 C1293 1.499 . S
C1291 H1265 0.950 . S
C1291 C1290 1.414 . S
C1291 C1292 1.374 . S
C1292 H1266 0.950 . S
C1292 C1288 1.385 . S
C1292 C1291 1.374 . S
C1293 C1290 1.499 . S
C1293 C1294 1.373 . S
C1293 C1295 1.389 . S
C1294 H1267 0.950 . S
C1294 C1280 1.377 . S
C1294 C1293 1.373 . S
C1295 C1279 1.377 . S
C1295 C1293 1.389 . S
C1295 C1296 1.524 . S
C1296 C1295 1.524 . S
C1296 C1297 1.397 . S
C1296 C1301 1.363 . S
C1297 H1268 0.950 . S
C1297 C1296 1.397 . S
C1297 C1298 1.334 . S
C1298 H1269 0.950 . S
C1298 C1297 1.334 . S
C1298 C1299 1.287 . S
C1299 C1298 1.287 . S
C1299 C1300 1.524 . S
C1299 H1302 0.999 . S
C1300 H1270 0.950 . S
C1300 C1299 1.524 . S
C1300 C1301 1.415 . S
C1301 H1271 0.950 . S
C1301 C1296 1.363 . S
C1301 C1300 1.415 . S
H1302 C1299 0.999 . S
H1303 C1284 0.913 . S
H1304 C1322 0.951 . S
H1305 C1324 0.951 . S
H1306 C1326 0.950 . S
H1307 C1327 0.950 . S
H1308 C1329 0.950 . S
H1309 C1332 0.950 . S
H1310 C1333 0.950 . S
H1311 C1335 0.950 . S
H1312 C1336 0.950 . S
H1313 C1337 0.951 . S
H1314 C1339 0.951 . S
H1315 C1341 0.950 . S
H1316 C1342 0.950 . S
H1317 C1344 0.950 . S
H1318 C1347 0.950 . S
H1319 C1348 0.950 . S
H1320 C1350 0.950 . S
H1321 C1351 0.950 . S
C1322 H1304 0.951 . S
C1322 C1323 1.366 . S
C1322 C1324 1.388 . S
C1323 C1322 1.366 . S
C1323 C1327 1.385 . S
C1324 H1305 0.951 . S
C1324 C1322 1.388 . S
C1324 C1325 1.366 . S
C1325 C1324 1.366 . S
C1325 C1326 1.414 . S
C1325 C1328 1.499 . S
C1326 H1306 0.950 . S
C1326 C1325 1.414 . S
C1326 C1327 1.374 . S
C1327 H1307 0.950 . S
C1327 C1323 1.385 . S
C1327 C1326 1.374 . S
C1328 C1325 1.499 . S
C1328 C1329 1.373 . S
C1328 C1330 1.389 . S
C1329 H1308 0.950 . S
C1329 C1328 1.373 . S
C1329 C1345 1.377 . S
C1330 C1328 1.389 . S
C1330 C1331 1.524 . S
C1330 C1344 1.377 . S
C1331 C1330 1.524 . S
C1331 C1332 1.397 . S
C1331 C1336 1.363 . S
C1332 H1309 0.950 . S
C1332 C1331 1.397 . S
C1332 C1333 1.334 . S
C1333 H1310 0.950 . S
C1333 C1332 1.334 . S
C1333 C1334 1.287 . S
C1334 C1333 1.287 . S
C1334 C1335 1.524 . S
C1334 H1353 0.913 . S
C1335 H1311 0.950 . S
C1335 C1334 1.524 . S
C1335 C1336 1.415 . S
C1336 H1312 0.950 . S
C1336 C1331 1.363 . S
C1336 C1335 1.415 . S
C1337 H1313 0.951 . S
C1337 C1338 1.366 . S
C1337 C1339 1.388 . S
C1338 C1337 1.366 . S
C1338 C1342 1.385 . S
C1339 H1314 0.951 . S
C1339 C1337 1.388 . S
C1339 C1340 1.366 . S
C1340 C1339 1.366 . S
C1340 C1341 1.414 . S
C1340 C1343 1.499 . S
C1341 H1315 0.950 . S
C1341 C1340 1.414 . S
C1341 C1342 1.374 . S
C1342 H1316 0.950 . S
C1342 C1338 1.385 . S
C1342 C1341 1.374 . S
C1343 C1340 1.499 . S
C1343 C1344 1.373 . S
C1343 C1345 1.389 . S
C1344 H1317 0.950 . S
C1344 C1330 1.377 . S
C1344 C1343 1.373 . S
C1345 C1329 1.377 . S
C1345 C1343 1.389 . S
C1345 C1346 1.524 . S
C1346 C1345 1.524 . S
C1346 C1347 1.397 . S
C1346 C1351 1.363 . S
C1347 H1318 0.950 . S
C1347 C1346 1.397 . S
C1347 C1348 1.334 . S
C1348 H1319 0.950 . S
C1348 C1347 1.334 . S
C1348 C1349 1.287 . S
C1349 C1348 1.287 . S
C1349 C1350 1.524 . S
C1349 H1352 0.999 . S
C1350 H1320 0.950 . S
C1350 C1349 1.524 . S
C1350 C1351 1.415 . S
C1351 H1321 0.950 . S
C1351 C1346 1.363 . S
C1351 C1350 1.415 . S
H1352 C1349 0.999 . S
H1353 C1334 0.913 . S
H1354 C1372 0.951 . S
H1355 C1374 0.951 . S
H1356 C1376 0.950 . S
H1357 C1377 0.950 . S
H1358 C1379 0.950 . S
H1359 C1382 0.950 . S
H1360 C1383 0.950 . S
H1361 C1385 0.950 . S
H1362 C1386 0.950 . S
H1363 C1387 0.951 . S
H1364 C1389 0.951 . S
H1365 C1391 0.950 . S
H1366 C1392 0.950 . S
H1367 C1394 0.950 . S
H1368 C1397 0.950 . S
H1369 C1398 0.950 . S
H1370 C1400 0.950 . S
H1371 C1401 0.950 . S
C1372 H1354 0.951 . S
C1372 C1373 1.366 . S
C1372 C1374 1.388 . S
C1373 C1372 1.366 . S
C1373 C1377 1.385 . S
C1374 H1355 0.951 . S
C1374 C1372 1.388 . S
C1374 C1375 1.366 . S
C1375 C1374 1.366 . S
C1375 C1376 1.414 . S
C1375 C1378 1.499 . S
C1376 H1356 0.950 . S
C1376 C1375 1.414 . S
C1376 C1377 1.374 . S
C1377 H1357 0.950 . S
C1377 C1373 1.385 . S
C1377 C1376 1.374 . S
C1378 C1375 1.499 . S
C1378 C1379 1.373 . S
C1378 C1380 1.389 . S
C1379 H1358 0.950 . S
C1379 C1378 1.373 . S
C1379 C1395 1.377 . S
C1380 C1378 1.389 . S
C1380 C1381 1.524 . S
C1380 C1394 1.377 . S
C1381 C1380 1.524 . S
C1381 C1382 1.397 . S
C1381 C1386 1.363 . S
C1382 H1359 0.950 . S
C1382 C1381 1.397 . S
C1382 C1383 1.334 . S
C1383 H1360 0.950 . S
C1383 C1382 1.334 . S
C1383 C1384 1.287 . S
C1384 C1383 1.287 . S
C1384 C1385 1.524 . S
C1384 H1403 0.913 . S
C1385 H1361 0.950 . S
C1385 C1384 1.524 . S
C1385 C1386 1.415 . S
C1386 H1362 0.950 . S
C1386 C1381 1.363 . S
C1386 C1385 1.415 . S
C1387 H1363 0.951 . S
C1387 C1388 1.366 . S
C1387 C1389 1.388 . S
C1388 C1387 1.366 . S
C1388 C1392 1.385 . S
C1389 H1364 0.951 . S
C1389 C1387 1.388 . S
C1389 C1390 1.366 . S
C1390 C1389 1.366 . S
C1390 C1391 1.414 . S
C1390 C1393 1.499 . S
C1391 H1365 0.950 . S
C1391 C1390 1.414 . S
C1391 C1392 1.374 . S
C1392 H1366 0.950 . S
C1392 C1388 1.385 . S
C1392 C1391 1.374 . S
C1393 C1390 1.499 . S
C1393 C1394 1.373 . S
C1393 C1395 1.389 . S
C1394 H1367 0.950 . S
C1394 C1380 1.377 . S
C1394 C1393 1.373 . S
C1395 C1379 1.377 . S
C1395 C1393 1.389 . S
C1395 C1396 1.524 . S
C1396 C1395 1.524 . S
C1396 C1397 1.397 . S
C1396 C1401 1.363 . S
C1397 H1368 0.950 . S
C1397 C1396 1.397 . S
C1397 C1398 1.334 . S
C1398 H1369 0.950 . S
C1398 C1397 1.334 . S
C1398 C1399 1.287 . S
C1399 C1398 1.287 . S
C1399 C1400 1.524 . S
C1399 H1402 0.999 . S
C1400 H1370 0.950 . S
C1400 C1399 1.524 . S
C1400 C1401 1.415 . S
C1401 H1371 0.950 . S
C1401 C1396 1.363 . S
C1401 C1400 1.415 . S
H1402 C1399 0.999 . S
H1403 C1384 0.913 . S
H1404 C1422 0.951 . S
H1405 C1424 0.951 . S
H1406 C1426 0.950 . S
H1407 C1427 0.950 . S
H1408 C1429 0.950 . S
H1409 C1432 0.950 . S
H1410 C1433 0.950 . S
H1411 C1435 0.950 . S
H1412 C1436 0.950 . S
H1413 C1437 0.951 . S
H1414 C1439 0.951 . S
H1415 C1441 0.950 . S
H1416 C1442 0.950 . S
H1417 C1444 0.950 . S
H1418 C1447 0.950 . S
H1419 C1448 0.950 . S
H1420 C1450 0.950 . S
H1421 C1451 0.950 . S
C1422 H1404 0.951 . S
C1422 C1423 1.366 . S
C1422 C1424 1.388 . S
C1423 C1422 1.366 . S
C1423 C1427 1.385 . S
C1424 H1405 0.951 . S
C1424 C1422 1.388 . S
C1424 C1425 1.366 . S
C1425 C1424 1.366 . S
C1425 C1426 1.414 . S
C1425 C1428 1.499 . S
C1426 H1406 0.950 . S
C1426 C1425 1.414 . S
C1426 C1427 1.374 . S
C1427 H1407 0.950 . S
C1427 C1423 1.385 . S
C1427 C1426 1.374 . S
C1428 C1425 1.499 . S
C1428 C1429 1.373 . S
C1428 C1430 1.389 . S
C1429 H1408 0.950 . S
C1429 C1428 1.373 . S
C1429 C1445 1.377 . S
C1430 C1428 1.389 . S
C1430 C1431 1.524 . S
C1430 C1444 1.377 . S
C1431 C1430 1.524 . S
C1431 C1432 1.397 . S
C1431 C1436 1.363 . S
C1432 H1409 0.950 . S
C1432 C1431 1.397 . S
C1432 C1433 1.334 . S
C1433 H1410 0.950 . S
C1433 C1432 1.334 . S
C1433 C1434 1.287 . S
C1434 C1433 1.287 . S
C1434 C1435 1.524 . S
C1434 H1453 0.913 . S
C1435 H1411 0.950 . S
C1435 C1434 1.524 . S
C1435 C1436 1.415 . S
C1436 H1412 0.950 . S
C1436 C1431 1.363 . S
C1436 C1435 1.415 . S
C1437 H1413 0.951 . S
C1437 C1438 1.366 . S
C1437 C1439 1.388 . S
C1438 C1437 1.366 . S
C1438 C1442 1.385 . S
C1439 H1414 0.951 . S
C1439 C1437 1.388 . S
C1439 C1440 1.366 . S
C1440 C1439 1.366 . S
C1440 C1441 1.414 . S
C1440 C1443 1.499 . S
C1441 H1415 0.950 . S
C1441 C1440 1.414 . S
C1441 C1442 1.374 . S
C1442 H1416 0.950 . S
C1442 C1438 1.385 . S
C1442 C1441 1.374 . S
C1443 C1440 1.499 . S
C1443 C1444 1.373 . S
C1443 C1445 1.389 . S
C1444 H1417 0.950 . S
C1444 C1430 1.377 . S
C1444 C1443 1.373 . S
C1445 C1429 1.377 . S
C1445 C1443 1.389 . S
C1445 C1446 1.524 . S
C1446 C1445 1.524 . S
C1446 C1447 1.397 . S
C1446 C1451 1.363 . S
C1447 H1418 0.950 . S
C1447 C1446 1.397 . S
C1447 C1448 1.334 . S
C1448 H1419 0.950 . S
C1448 C1447 1.334 . S
C1448 C1449 1.287 . S
C1449 C1448 1.287 . S
C1449 C1450 1.524 . S
C1449 H1452 0.999 . S
C1450 H1420 0.950 . S
C1450 C1449 1.524 . S
C1450 C1451 1.415 . S
C1451 H1421 0.950 . S
C1451 C1446 1.363 . S
C1451 C1450 1.415 . S
H1452 C1449 0.999 . S
H1453 C1434 0.913 . S
H1454 C1472 0.951 . S
H1455 C1474 0.951 . S
H1456 C1476 0.950 . S
H1457 C1477 0.950 . S
H1458 C1479 0.950 . S
H1459 C1482 0.950 . S
H1460 C1483 0.950 . S
H1461 C1485 0.950 . S
H1462 C1486 0.950 . S
H1463 C1487 0.951 . S
H1464 C1489 0.951 . S
H1465 C1491 0.950 . S
H1466 C1492 0.950 . S
H1467 C1494 0.950 . S
H1468 C1497 0.950 . S
H1469 C1498 0.950 . S
H1470 C1500 0.950 . S
H1471 C1501 0.950 . S
C1472 H1454 0.951 . S
C1472 C1473 1.366 . S
C1472 C1474 1.388 . S
C1473 C1472 1.366 . S
C1473 C1477 1.385 . S
C1474 H1455 0.951 . S
C1474 C1472 1.388 . S
C1474 C1475 1.366 . S
C1475 C1474 1.366 . S
C1475 C1476 1.414 . S
C1475 C1478 1.499 . S
C1476 H1456 0.950 . S
C1476 C1475 1.414 . S
C1476 C1477 1.374 . S
C1477 H1457 0.950 . S
C1477 C1473 1.385 . S
C1477 C1476 1.374 . S
C1478 C1475 1.499 . S
C1478 C1479 1.373 . S
C1478 C1480 1.389 . S
C1479 H1458 0.950 . S
C1479 C1478 1.373 . S
C1479 C1495 1.377 . S
C1480 C1478 1.389 . S
C1480 C1481 1.524 . S
C1480 C1494 1.377 . S
C1481 C1480 1.524 . S
C1481 C1482 1.397 . S
C1481 C1486 1.363 . S
C1482 H1459 0.950 . S
C1482 C1481 1.397 . S
C1482 C1483 1.334 . S
C1483 H1460 0.950 . S
C1483 C1482 1.334 . S
C1483 C1484 1.287 . S
C1484 C1483 1.287 . S
C1484 C1485 1.524 . S
C1484 H1503 0.913 . S
C1485 H1461 0.950 . S
C1485 C1484 1.524 . S
C1485 C1486 1.415 . S
C1486 H1462 0.950 . S
C1486 C1481 1.363 . S
C1486 C1485 1.415 . S
C1487 H1463 0.951 . S
C1487 C1488 1.366 . S
C1487 C1489 1.388 . S
C1488 C1487 1.366 . S
C1488 C1492 1.385 . S
C1489 H1464 0.951 . S
C1489 C1487 1.388 . S
C1489 C1490 1.366 . S
C1490 C1489 1.366 . S
C1490 C1491 1.414 . S
C1490 C1493 1.499 . S
C1491 H1465 0.950 . S
C1491 C1490 1.414 . S
C1491 C1492 1.374 . S
C1492 H1466 0.950 . S
C1492 C1488 1.385 . S
C1492 C1491 1.374 . S
C1493 C1490 1.499 . S
C1493 C1494 1.373 . S
C1493 C1495 1.389 . S
C1494 H1467 0.950 . S
C1494 C1480 1.377 . S
C1494 C1493 1.373 . S
C1495 C1479 1.377 . S
C1495 C1493 1.389 . S
C1495 C1496 1.524 . S
C1496 C1495 1.524 . S
C1496 C1497 1.397 . S
C1496 C1501 1.363 . S
C1497 H1468 0.950 . S
C1497 C1496 1.397 . S
C1497 C1498 1.334 . S
C1498 H1469 0.950 . S
C1498 C1497 1.334 . S
C1498 C1499 1.287 . S
C1499 C1498 1.287 . S
C1499 C1500 1.524 . S
C1499 H1502 0.999 . S
C1500 H1470 0.950 . S
C1500 C1499 1.524 . S
C1500 C1501 1.415 . S
C1501 H1471 0.950 . S
C1501 C1496 1.363 . S
C1501 C1500 1.415 . S
H1502 C1499 0.999 . S
H1503 C1484 0.913 . S
H1504 C1522 0.951 . S
H1505 C1524 0.951 . S
H1506 C1526 0.950 . S
H1507 C1527 0.950 . S
H1508 C1529 0.950 . S
H1509 C1532 0.950 . S
H1510 C1533 0.950 . S
H1511 C1535 0.950 . S
H1512 C1536 0.950 . S
H1513 C1537 0.951 . S
H1514 C1539 0.951 . S
H1515 C1541 0.950 . S
H1516 C1542 0.950 . S
H1517 C1544 0.950 . S
H1518 C1547 0.950 . S
H1519 C1548 0.950 . S
H1520 C1550 0.950 . S
H1521 C1551 0.950 . S
C1522 H1504 0.951 . S
C1522 C1523 1.366 . S
C1522 C1524 1.388 . S
C1523 C1522 1.366 . S
C1523 C1527 1.385 . S
C1524 H1505 0.951 . S
C1524 C1522 1.388 . S
C1524 C1525 1.366 . S
C1525 C1524 1.366 . S
C1525 C1526 1.414 . S
C1525 C1528 1.499 . S
C1526 H1506 0.950 . S
C1526 C1525 1.414 . S
C1526 C1527 1.374 . S
C1527 H1507 0.950 . S
C1527 C1523 1.385 . S
C1527 C1526 1.374 . S
C1528 C1525 1.499 . S
C1528 C1529 1.373 . S
C1528 C1530 1.389 . S
C1529 H1508 0.950 . S
C1529 C1528 1.373 . S
C1529 C1545 1.377 . S
C1530 C1528 1.389 . S
C1530 C1531 1.524 . S
C1530 C1544 1.377 . S
C1531 C1530 1.524 . S
C1531 C1532 1.397 . S
C1531 C1536 1.363 . S
C1532 H1509 0.950 . S
C1532 C1531 1.397 . S
C1532 C1533 1.334 . S
C1533 H1510 0.950 . S
C1533 C1532 1.334 . S
C1533 C1534 1.287 . S
C1534 C1533 1.287 . S
C1534 C1535 1.524 . S
C1534 H1553 0.913 . S
C1535 H1511 0.950 . S
C1535 C1534 1.524 . S
C1535 C1536 1.415 . S
C1536 H1512 0.950 . S
C1536 C1531 1.363 . S
C1536 C1535 1.415 . S
C1537 H1513 0.951 . S
C1537 C1538 1.366 . S
C1537 C1539 1.388 . S
C1538 C1537 1.366 . S
C1538 C1542 1.385 . S
C1539 H1514 0.951 . S
C1539 C1537 1.388 . S
C1539 C1540 1.366 . S
C1540 C1539 1.366 . S
C1540 C1541 1.414 . S
C1540 C1543 1.499 . S
C1541 H1515 0.950 . S
C1541 C1540 1.414 . S
C1541 C1542 1.374 . S
C1542 H1516 0.950 . S
C1542 C1538 1.385 . S
C1542 C1541 1.374 . S
C1543 C1540 1.499 . S
C1543 C1544 1.373 . S
C1543 C1545 1.389 . S
C1544 H1517 0.950 . S
C1544 C1530 1.377 . S
C1544 C1543 1.373 . S
C1545 C1529 1.377 . S
C1545 C1543 1.389 . S
C1545 C1546 1.524 . S
C1546 C1545 1.524 . S
C1546 C1547 1.397 . S
C1546 C1551 1.363 . S
C1547 H1518 0.950 . S
C1547 C1546 1.397 . S
C1547 C1548 1.334 . S
C1548 H1519 0.950 . S
C1548 C1547 1.334 . S
C1548 C1549 1.287 . S
C1549 C1548 1.287 . S
C1549 C1550 1.524 . S
C1549 H1552 0.999 . S
C1550 H1520 0.950 . S
C1550 C1549 1.524 . S
C1550 C1551 1.415 . S
C1551 H1521 0.950 . S
C1551 C1546 1.363 . S
C1551 C1550 1.415 . S
H1552 C1549 0.999 . S
H1553 C1534 0.913 . S
H1554 C1572 0.951 . S
H1555 C1574 0.951 . S
H1556 C1576 0.950 . S
H1557 C1577 0.950 . S
H1558 C1579 0.950 . S
H1559 C1582 0.950 . S
H1560 C1583 0.950 . S
H1561 C1585 0.950 . S
H1562 C1586 0.950 . S
H1563 C1587 0.951 . S
H1564 C1589 0.951 . S
H1565 C1591 0.950 . S
H1566 C1592 0.950 . S
H1567 C1594 0.950 . S
H1568 C1597 0.950 . S
H1569 C1598 0.950 . S
H1570 C1600 0.950 . S
H1571 C1601 0.950 . S
C1572 H1554 0.951 . S
C1572 C1573 1.366 . S
C1572 C1574 1.388 . S
C1573 C1572 1.366 . S
C1573 C1577 1.385 . S
C1574 H1555 0.951 . S
C1574 C1572 1.388 . S
C1574 C1575 1.366 . S
C1575 C1574 1.366 . S
C1575 C1576 1.414 . S
C1575 C1578 1.499 . S
C1576 H1556 0.950 . S
C1576 C1575 1.414 . S
C1576 C1577 1.374 . S
C1577 H1557 0.950 . S
C1577 C1573 1.385 . S
C1577 C1576 1.374 . S
C1578 C1575 1.499 . S
C1578 C1579 1.373 . S
C1578 C1580 1.389 . S
C1579 H1558 0.950 . S
C1579 C1578 1.373 . S
C1579 C1595 1.377 . S
C1580 C1578 1.389 . S
C1580 C1581 1.524 . S
C1580 C1594 1.377 . S
C1581 C1580 1.524 . S
C1581 C1582 1.397 . S
C1581 C1586 1.363 . S
C1582 H1559 0.950 . S
C1582 C1581 1.397 . S
C1582 C1583 1.334 . S
C1583 H1560 0.950 . S
C1583 C1582 1.334 . S
C1583 C1584 1.287 . S
C1584 C1583 1.287 . S
C1584 C1585 1.524 . S
C1584 H1603 0.913 . S
C1585 H1561 0.950 . S
C1585 C1584 1.524 . S
C1585 C1586 1.415 . S
C1586 H1562 0.950 . S
C1586 C1581 1.363 . S
C1586 C1585 1.415 . S
C1587 H1563 0.951 . S
C1587 C1588 1.366 . S
C1587 C1589 1.388 . S
C1588 C1587 1.366 . S
C1588 C1592 1.385 . S
C1589 H1564 0.951 . S
C1589 C1587 1.388 . S
C1589 C1590 1.366 . S
C1590 C1589 1.366 . S
C1590 C1591 1.414 . S
C1590 C1593 1.499 . S
C1591 H1565 0.950 . S
C1591 C1590 1.414 . S
C1591 C1592 1.374 . S
C1592 H1566 0.950 . S
C1592 C1588 1.385 . S
C1592 C1591 1.374 . S
C1593 C1590 1.499 . S
C1593 C1594 1.373 . S
C1593 C1595 1.389 . S
C1594 H1567 0.950 . S
C1594 C1580 1.377 . S
C1594 C1593 1.373 . S
C1595 C1579 1.377 . S
C1595 C1593 1.389 . S
C1595 C1596 1.524 . S
C1596 C1595 1.524 . S
C1596 C1597 1.397 . S
C1596 C1601 1.363 . S
C1597 H1568 0.950 . S
C1597 C1596 1.397 . S
C1597 C1598 1.334 . S
C1598 H1569 0.950 . S
C1598 C1597 1.334 . S
C1598 C1599 1.287 . S
C1599 C1598 1.287 . S
C1599 C1600 1.524 . S
C1599 H1602 0.999 . S
C1600 H1570 0.950 . S
C1600 C1599 1.524 . S
C1600 C1601 1.415 . S
C1601 H1571 0.950 . S
C1601 C1596 1.363 . S
C1601 C1600 1.415 . S
H1602 C1599 0.999 . S
H1603 C1584 0.913 . S
C438 C332 1.521 . S
C423 C15 1.522 . S
C488 C335 1.474 . S
C473 C55 1.475 . S
C538 C333 1.540 . S
C523 C101 1.525 . S
C588 C334 1.498 . S
C573 C141 1.490 . S
C638 C349 1.501 . S
C623 C2 1.488 . S
C688 C363 1.500 . S
C673 C61 1.491 . S
C723 C95 1.520 . S
C738 C389 1.519 . S
C788 C403 1.497 . S
C773 C135 1.501 . S
C838 C348 1.489 . S
C823 C42 1.475 . S
C873 C82 1.510 . S
C888 C362 1.524 . S
C938 C388 1.509 . S
C923 C122 1.500 . S
C988 C402 1.527 . S
C973 C21 1.517 . S
C1023 C162 1.485 . S
C1038 C347 1.493 . S
C1088 C320 1.535 . S
C1073 C221 1.531 . S
C1123 C255 1.478 . S
C1138 C346 1.477 . S
C1173 C282 1.508 . S
C1188 C321 1.521 . S
C1238 C376 1.518 . S
C1223 C181 1.512 . S
C1288 C390 1.519 . S
C1273 C202 1.512 . S
C1338 C360 1.493 . S
C1323 C242 1.483 . S
C1373 C301 1.516 . S
C1388 C374 1.526 . S
C1438 C377 1.520 . S
C1423 C215 1.522 . S
C1488 C391 1.509 . S
C1473 C261 1.501 . S
C1538 C361 1.501 . S
C1523 C295 1.502 . S
C1573 C175 1.499 . S
C1588 C375 1.497 . S
