# Generated by pormake.
# Topology scu, (8,4)-cn, num edge types: 1
# Building blocks:
#     Node 0, Type 0, BuildingBlock: VETTIZ_charged_sbu_0, # of connection points: 8
#     Node 1, Type 1, BuildingBlock: KOZSID_clean_sbu_0, # of connection points: 4
#     Node 2, Type 1, BuildingBlock: KOZSID_clean_sbu_0, # of connection points: 4
#     Edge 3, Type (0, 1), BuildingBlock: XIVTED_clean_linker_0, # of connection points: 2
#     Edge 4, Type (0, 1), BuildingBlock: XIVTED_clean_linker_0, # of connection points: 2
#     Edge 5, Type (0, 1), BuildingBlock: XIVTED_clean_linker_0, # of connection points: 2
#     Edge 6, Type (0, 1), BuildingBlock: XIVTED_clean_linker_0, # of connection points: 2
#     Edge 7, Type (0, 1), BuildingBlock: XIVTED_clean_linker_0, # of connection points: 2
#     Edge 8, Type (0, 1), BuildingBlock: XIVTED_clean_linker_0, # of connection points: 2
#     Edge 9, Type (0, 1), BuildingBlock: XIVTED_clean_linker_0, # of connection points: 2
#     Edge 10, Type (0, 1), BuildingBlock: XIVTED_clean_linker_0, # of connection points: 2
# Relax obj value: 0.002
# Max RMSD: 0.028
# Mean RMSD: 0.015
data_MOF--net-scu--node1-VETTIZ_charged_sbu_0--node2-KOZSID_clean_sbu_0--edge1-XIVTED_clean_linker_0
_symmetry_space_group_name_H-M    P1
_symmetry_Int_Tables_number       1
_symmetry_cell_setting            triclinic
loop_
_symmetry_equiv_pos_as_xyz
'x, y, z'
_cell_length_a     28.92078
_cell_length_b     28.777498
_cell_length_c     20.606768
_cell_angle_alpha  86.594673
_cell_angle_beta   86.570706
_cell_angle_gamma 91.75733
loop_
_atom_site_label
_atom_site_type_symbol
_atom_site_fract_x
_atom_site_fract_y
_atom_site_fract_z
_atom_type_partial_charge
Fe0 Fe 0.96994 0.97173 0.15201 0.0
O1 O 0.9744 0.9809 0.05663 0.0
Fe2 Fe 0.03882 0.96818 0.00833 0.0
Fe3 Fe 0.9596 0.04056 0.00864 0.0
O4 O 0.97821 0.97772 0.05678 0.0
O5 O 0.02481 0.0287 0.96169 0.0
O6 O 0.02071 0.03175 0.96123 0.0
Fe7 Fe 0.02982 0.03866 0.86635 0.0
C8 C 0.87814 0.00915 0.10915 0.0
O9 O 0.96933 0.04206 0.16808 0.0
O10 O 0.99242 0.0798 0.07351 0.0
O11 O 0.09894 0.03518 0.88281 0.0
O12 O 0.10174 0.96816 0.94986 0.0
O13 O 0.07547 1.00346 0.07455 0.0
O14 O 0.03982 0.9726 0.1663 0.0
O15 O 0.9536 0.1031 0.95116 0.0
O16 O 0.02061 0.10783 0.88369 0.0
C17 C 0.07514 0.99236 0.13533 0.0
O18 O 0.03287 0.96858 0.84992 0.0
O19 O 0.00516 0.93044 0.94189 0.0
O20 O 0.90062 0.97602 0.13723 0.0
O21 O 0.89662 0.04082 0.0665 0.0
C22 C 0.98531 0.07852 0.1351 0.0
C23 C 0.98426 0.12574 0.91113 0.0
C24 C 0.92471 0.01538 0.88173 0.0
O25 O 0.92416 0.00407 0.94253 0.0
O26 O 0.95992 0.03584 0.85117 0.0
C27 C 0.12086 1.00082 0.9091 0.0
O28 O 0.04317 0.90435 0.06516 0.0
O29 O 0.97722 0.90285 0.13461 0.0
C30 C 0.01565 0.93181 0.88088 0.0
C31 C 0.01207 0.88299 0.10626 0.0
C32 C 0.06474 0.56472 0.40245 0.0
C33 C 0.11027 0.57653 0.38109 0.0
C34 C 0.13781 0.55139 0.42043 0.0
C35 C 0.10777 0.52594 0.46364 0.0
N36 N 0.06258 0.53301 0.45419 0.0
Co37 Co 0.00761 0.50415 0.508 0.0
N38 N 0.04843 0.47085 0.56981 0.0
C39 C 0.0953 0.47343 0.56777 0.0
C40 C 0.11401 0.44537 0.61458 0.0
C41 C 0.07698 0.42329 0.64855 0.0
C42 C 0.03744 0.43951 0.62074 0.0
N43 N 0.95266 0.47445 0.56065 0.0
C44 C 0.95058 0.44317 0.61279 0.0
C45 C 0.90508 0.43167 0.63469 0.0
C46 C 0.87743 0.45541 0.59393 0.0
C47 C 0.90743 0.48024 0.54995 0.0
N48 N 0.96678 0.53826 0.44722 0.0
C49 C 0.91989 0.53677 0.45002 0.0
C50 C 0.90141 0.56361 0.40161 0.0
C51 C 0.93867 0.58419 0.3663 0.0
C52 C 0.97794 0.56895 0.39571 0.0
N53 N 0.00829 0.44984 0.45215 0.0
C54 C 0.00838 0.37104 0.37649 0.0
C55 C 0.96847 0.39652 0.38586 0.0
C56 C 0.96906 0.43517 0.42395 0.0
C57 C 0.04839 0.38592 0.40504 0.0
C58 C 0.04773 0.42531 0.44176 0.0
N59 N 0.00686 0.55843 0.56389 0.0
C60 C 0.96483 0.61613 0.62259 0.0
C61 C 0.00613 0.63737 0.63947 0.0
C62 C 0.04776 0.61797 0.61867 0.0
C63 C 0.04734 0.57871 0.58173 0.0
C64 C 0.96598 0.57726 0.58477 0.0
H65 H 0.08026 0.56559 0.56784 0.0
H66 H 0.93332 0.56344 0.57246 0.0
H67 H 0.93716 0.45226 0.43035 0.0
H68 H 0.07954 0.43505 0.46148 0.0
C69 C 0.1209 0.49873 0.51727 0.0
C70 C 0.0248 0.58621 0.37431 0.0
C71 C 0.99045 0.42248 0.64229 0.0
C72 C 0.89418 0.50943 0.49833 0.0
H73 H 0.12256 0.6016 0.34226 0.0
H74 H 0.1753 0.55281 0.41919 0.0
H75 H 0.15034 0.44015 0.62154 0.0
H76 H 0.07929 0.39718 0.68802 0.0
H77 H 0.89305 0.40819 0.6756 0.0
H78 H 0.83993 0.45449 0.59589 0.0
H79 H 0.86515 0.5679 0.39321 0.0
H80 H 0.9371 0.60821 0.3241 0.0
H81 H 0.93648 0.38603 0.36517 0.0
H82 H 0.0803 0.36751 0.39856 0.0
H83 H 0.93169 0.63012 0.63702 0.0
H84 H 0.08068 0.63284 0.63117 0.0
C85 C 0.43873 0.94972 0.61689 0.0
C86 C 0.42501 0.9046 0.63908 0.0
C87 C 0.44799 0.87549 0.59954 0.0
C88 C 0.47409 0.90428 0.55537 0.0
N89 N 0.46961 0.95015 0.56457 0.0
Co90 Co 0.4996 0.00401 0.50915 0.0
N91 N 0.53033 0.9611 0.44813 0.0
C92 C 0.52651 0.91403 0.45126 0.0
C93 C 0.55106 0.89413 0.40187 0.0
C94 C 0.57241 0.93061 0.36541 0.0
C95 C 0.55988 0.9708 0.39517 0.0
N96 N 0.52957 0.05788 0.45374 0.0
C97 C 0.56029 0.05831 0.40123 0.0
C98 C 0.57398 0.10344 0.37902 0.0
C99 C 0.55114 0.13254 0.41872 0.0
C100 C 0.52514 0.10374 0.46299 0.0
N101 N 0.46885 0.04692 0.57016 0.0
C102 C 0.47273 0.09398 0.5671 0.0
C103 C 0.44812 0.11388 0.61645 0.0
C104 C 0.42665 0.07741 0.65277 0.0
C105 C 0.43917 0.03722 0.62298 0.0
N106 N 0.55455 1.00207 0.56322 0.0
C107 C 0.63333 0.99988 0.63825 0.0
C108 C 0.61375 0.04199 0.61947 0.0
C109 C 0.57466 0.04227 0.58271 0.0
C110 C 0.61251 0.95879 0.61935 0.0
C111 C 0.57373 0.96068 0.58173 0.0
N112 N 0.44467 0.00595 0.45506 0.0
C113 C 0.3869 0.04921 0.39851 0.0
C114 C 0.36616 0.0081 0.37953 0.0
C115 C 0.38565 0.966 0.39853 0.0
C116 C 0.4246 0.96573 0.43555 0.0
C117 C 0.42554 0.04734 0.43641 0.0
H118 H 0.43767 0.93246 0.44798 0.0
H119 H 0.43904 0.0798 0.45053 0.0
H120 H 0.56154 0.07554 0.57041 0.0
H121 H 0.56018 0.92822 0.56768 0.0
C122 C 0.50057 0.88944 0.50211 0.0
C123 C 0.41974 0.99106 0.6447 0.0
C124 C 0.57915 0.01699 0.37323 0.0
C125 C 0.49868 0.11858 0.51627 0.0
H126 H 0.40015 0.89362 0.6787 0.0
H127 H 0.4449 0.83784 0.60148 0.0
H128 H 0.55369 0.85744 0.39389 0.0
H129 H 0.5954 0.92792 0.32247 0.0
H130 H 0.59871 0.11443 0.33925 0.0
H131 H 0.55421 0.17019 0.41677 0.0
H132 H 0.4455 0.15057 0.62444 0.0
H133 H 0.40356 0.08009 0.69561 0.0
H134 H 0.62835 0.07477 0.63346 0.0
H135 H 0.62675 0.92532 0.63211 0.0
H136 H 0.3727 0.08267 0.3856 0.0
H137 H 0.37108 0.93321 0.38452 0.0
H138 H 1.00093 0.08617 0.26386 0.0
H139 H 0.97373 0.3607 0.25703 0.0
H140 H 0.98727 0.16917 0.08505 0.0
H141 H 0.04172 0.28525 0.40912 0.0
H142 H 0.97139 0.28993 0.19634 0.0
H143 H 0.00946 0.15779 0.3212 0.0
C144 C 0.99985 0.11945 0.23661 0.0
C145 C 0.99329 0.12163 0.16954 0.0
C146 C 0.98704 0.28896 0.24282 0.0
C147 C 0.00244 0.20375 0.23514 0.0
C148 C 0.98815 0.32922 0.27761 0.0
C149 C 0.00795 0.32883 0.33819 0.0
C150 C 0.00507 0.24773 0.26935 0.0
C151 C 0.02646 0.28716 0.36237 0.0
C152 C 0.00488 0.1603 0.26935 0.0
C153 C 0.99244 0.1658 0.13671 0.0
N154 N 0.02419 0.24819 0.3282 0.0
N155 N 0.99645 0.20509 0.16994 0.0
H156 H 0.81904 0.08327 0.09866 0.0
H157 H 0.66255 0.98337 0.40027 0.0
H158 H 0.82487 0.94072 0.17571 0.0
H159 H 0.5933 0.05798 0.24881 0.0
H160 H 0.73254 0.98316 0.32737 0.0
H161 H 0.74293 0.08852 0.15864 0.0
C162 C 0.80416 0.05298 0.12701 0.0
C163 C 0.82894 0.01181 0.13313 0.0
C164 C 0.70209 0.99988 0.31028 0.0
C165 C 0.74342 0.01811 0.20228 0.0
C166 C 0.6624 1.00008 0.35175 0.0
C167 C 0.62241 0.02065 0.33023 0.0
C168 C 0.70211 0.02107 0.24718 0.0
C169 C 0.62379 0.04205 0.26699 0.0
C170 C 0.76099 0.05611 0.16126 0.0
C171 C 0.80785 0.9736 0.17056 0.0
N172 N 0.66327 0.04193 0.22738 0.0
N173 N 0.76691 0.97799 0.20455 0.0
H174 H 0.94374 0.82215 0.15568 0.0
H175 H 0.06709 0.59563 0.25027 0.0
H176 H 0.09152 0.83098 0.10937 0.0
H177 H 0.99479 0.6727 0.39553 0.0
H178 H 0.06958 0.66575 0.17439 0.0
H179 H 0.95256 0.74818 0.21634 0.0
C180 C 0.97807 0.8082 0.15718 0.0
C181 C 0.01715 0.83347 0.12841 0.0
C182 C 0.05385 0.66716 0.22324 0.0
C183 C 0.02696 0.74814 0.19733 0.0
C184 C 0.05243 0.62748 0.26636 0.0
C185 C 0.03085 0.62871 0.32916 0.0
C186 C 0.03227 0.70742 0.24285 0.0
C187 C 0.01165 0.67042 0.34751 0.0
C188 C 0.98291 0.76601 0.19195 0.0
C189 C 0.06053 0.81282 0.13107 0.0
N190 N 0.01211 0.70786 0.30421 0.0
N191 N 0.06446 0.7713 0.16581 0.0
H192 H 0.08887 0.96178 0.2603 0.0
H193 H 0.34776 0.06463 0.27203 0.0
H194 H 0.15911 0.03674 0.09312 0.0
H195 H 0.28767 0.95294 0.402 0.0
H196 H 0.27702 0.06361 0.21123 0.0
H197 H 0.15912 0.96773 0.3184 0.0
C198 C 0.11899 0.97979 0.23567 0.0
C199 C 0.11784 0.99865 0.17129 0.0
C200 C 0.27949 0.03934 0.253 0.0
C201 C 0.19917 0.00554 0.23852 0.0
C202 C 0.31965 0.04006 0.2879 0.0
C203 C 0.32369 0.00868 0.34206 0.0
C204 C 0.24284 0.00757 0.27316 0.0
C205 C 0.28635 0.97738 0.36019 0.0
C206 C 0.1593 0.98297 0.26905 0.0
C207 C 0.15833 0.02156 0.14253 0.0
N208 N 0.24757 0.9778 0.3261 0.0
N209 N 0.1974 0.02442 0.17639 0.0
H210 H 0.04921 0.91792 0.75694 0.0
H211 H 0.95092 0.6558 0.74786 0.0
H212 H 0.97305 0.84691 0.92239 0.0
H213 H 0.06069 0.71666 0.61586 0.0
H214 H 0.95124 0.72731 0.80741 0.0
H215 H 0.04581 0.8466 0.69938 0.0
C216 C 0.03146 0.88743 0.78122 0.0
C217 C 0.01142 0.88865 0.84491 0.0
C218 C 0.97529 0.72489 0.76551 0.0
C219 C 0.00747 0.80627 0.77855 0.0
C220 C 0.97498 0.68423 0.73131 0.0
C221 C 0.00593 0.68016 0.67685 0.0
C222 C 0.00625 0.76206 0.74448 0.0
C223 C 0.03659 0.71798 0.65793 0.0
C224 C 0.02977 0.84653 0.74824 0.0
C225 C 0.98908 0.84768 0.87348 0.0
N226 N 0.03579 0.7573 0.6914 0.0
N227 N 0.98761 0.80818 0.84006 0.0
H228 H 0.17918 0.926 0.91871 0.0
H229 H 0.33649 0.02492 0.61725 0.0
H230 H 0.17465 0.06881 0.84212 0.0
H231 H 0.40515 0.95 0.76903 0.0
H232 H 0.26639 0.02543 0.68992 0.0
H233 H 0.25506 0.92009 0.85844 0.0
C234 C 0.19426 0.9562 0.89037 0.0
C235 C 0.16992 0.99766 0.88457 0.0
C236 C 0.29673 0.00855 0.7071 0.0
C237 C 0.25521 0.9906 0.81505 0.0
C238 C 0.33649 0.00818 0.66577 0.0
C239 C 0.37635 0.98745 0.68746 0.0
C240 C 0.29651 0.98736 0.77022 0.0
C241 C 0.37476 0.96604 0.7507 0.0
C242 C 0.23732 0.95269 0.85597 0.0
C243 C 0.19131 0.03572 0.84713 0.0
N244 N 0.33523 0.96632 0.79016 0.0
N245 N 0.23213 0.03096 0.81297 0.0
H246 H 0.91113 0.15625 0.84576 0.0
H247 H 0.01301 0.41609 0.77004 0.0
H248 H 0.0392 0.20305 0.92089 0.0
H249 H 0.95039 0.33739 0.6248 0.0
H250 H 0.00504 0.34673 0.84638 0.0
H251 H 0.90644 0.23245 0.78594 0.0
C252 C 0.93735 0.18319 0.85133 0.0
C253 C 0.97539 0.17387 0.88847 0.0
C254 C 0.99271 0.34495 0.79796 0.0
C255 C 0.9704 0.26028 0.82059 0.0
C256 C 0.99739 0.38424 0.75451 0.0
C257 C 0.98315 0.38196 0.69085 0.0
C258 C 0.9723 0.30367 0.77812 0.0
C259 C 0.96216 0.3403 0.67335 0.0
C260 C 0.93495 0.22628 0.81677 0.0
C261 C 0.00921 0.2093 0.89298 0.0
N262 N 0.95732 0.30274 0.71676 0.0
N263 N 0.00596 0.25107 0.85935 0.0
H264 H 0.91065 0.04726 0.75737 0.0
H265 H 0.65222 0.94295 0.74511 0.0
H266 H 0.8413 0.96957 0.92291 0.0
H267 H 0.71167 0.05533 0.61581 0.0
H268 H 0.72315 0.94381 0.80542 0.0
H269 H 0.84038 0.04137 0.69925 0.0
C270 C 0.88075 0.02862 0.7816 0.0
C271 C 0.88214 0.00896 0.84553 0.0
C272 C 0.72051 0.96827 0.7639 0.0
C273 C 0.80077 1.00219 0.77834 0.0
C274 C 0.68023 0.96764 0.72928 0.0
C275 C 0.67594 0.99926 0.67545 0.0
C276 C 0.75703 1.0002 0.74383 0.0
C277 C 0.71317 0.03071 0.65738 0.0
C278 C 0.8404 0.02549 0.74823 0.0
C279 C 0.8419 0.98535 0.87384 0.0
N280 N 0.75207 0.03022 0.69122 0.0
N281 N 0.80282 0.98257 0.84002 0.0
loop_
_geom_bond_atom_site_label_1
_geom_bond_atom_site_label_2
_geom_bond_distance
_geom_bond_site_symmetry_2
_ccdc_geom_bond_type
Fe0 O1 1.886 1_565 S
Fe0 O4 1.715 1_655 S
Fe0 O9 2.077 1_565 S
Fe0 O14 1.935 1_665 S
Fe0 O20 2.077 . S
Fe0 O29 1.935 . S
O1 Fe0 1.886 1_545 S
O1 Fe3 1.715 1_554 S
Fe2 O4 1.886 . S
Fe2 O5 1.715 1_554 S
Fe2 O12 1.935 1_554 S
Fe2 O13 2.077 . S
Fe2 O19 1.935 1_554 S
Fe2 O28 2.077 . S
Fe3 O1 1.715 1_556 S
Fe3 O6 1.886 . S
Fe3 O10 1.935 1_556 S
Fe3 O15 2.077 . S
Fe3 O21 1.935 1_556 S
Fe3 O25 2.077 . S
O4 Fe0 1.715 1_455 S
O4 Fe2 1.886 . S
O5 Fe2 1.715 1_556 S
O5 Fe7 1.886 1_565 S
O6 Fe3 1.886 . S
O6 Fe7 1.715 1_655 S
Fe7 O5 1.886 1_545 S
Fe7 O6 1.715 1_455 S
Fe7 O11 2.077 . S
Fe7 O16 1.935 . S
Fe7 O18 2.077 1_545 S
Fe7 O26 1.935 1_445 S
C8 O20 1.381 1_545 S
C8 O21 1.421 . S
O9 Fe0 2.077 1_545 S
O9 C22 1.381 . S
O10 Fe3 1.935 1_554 S
O10 C22 1.421 . S
O11 Fe7 2.077 . S
O11 C27 1.381 1_545 S
O12 Fe2 1.935 1_556 S
O12 C27 1.421 . S
O13 Fe2 2.077 . S
O13 C17 1.381 . S
O14 Fe0 1.935 1_445 S
O14 C17 1.421 1_545 S
O15 Fe3 2.077 . S
O15 C23 1.381 . S
O16 Fe7 1.935 . S
O16 C23 1.421 1_455 S
C17 O13 1.381 . S
C17 O14 1.421 1_565 S
O18 Fe7 2.077 1_565 S
O18 C30 1.381 . S
O19 Fe2 1.935 1_556 S
O19 C30 1.421 . S
O20 Fe0 2.077 . S
O20 C8 1.381 1_565 S
O21 Fe3 1.935 1_554 S
O21 C8 1.421 . S
C22 O9 1.381 . S
C22 O10 1.421 . S
C23 O15 1.381 . S
C23 O16 1.421 1_655 S
C24 O25 1.381 . S
C24 O26 1.421 1_545 S
O25 Fe3 2.077 . S
O25 C24 1.381 . S
O26 Fe7 1.935 1_665 S
O26 C24 1.421 1_565 S
C27 O11 1.381 1_565 S
C27 O12 1.421 . S
O28 Fe2 2.077 . S
O28 C31 1.381 . S
O29 Fe0 1.935 . S
O29 C31 1.421 1_655 S
C30 O18 1.381 . S
C30 O19 1.421 . S
C31 O28 1.381 . S
C31 O29 1.421 1_455 S
C32 C33 1.443 . S
C32 N36 1.376 . S
C32 C70 1.404 . S
C33 C32 1.443 . S
C33 C34 1.340 . S
C33 H73 0.951 . S
C34 C33 1.340 . S
C34 C35 1.439 . S
C34 H74 0.950 . S
C35 C34 1.439 . S
C35 N36 1.374 . S
C35 C69 1.395 . S
N36 C32 1.376 . S
N36 C35 1.374 . S
N36 Co37 2.008 . S
Co37 N36 2.008 . S
Co37 N38 1.995 . S
Co37 N43 2.008 1_455 S
Co37 N48 1.995 1_455 S
Co37 N53 2.282 . S
Co37 N59 2.282 1_455 S
N38 Co37 1.995 . S
N38 C39 1.376 . S
N38 C42 1.383 . S
C39 N38 1.376 . S
C39 C40 1.446 . S
C39 C69 1.391 . S
C40 C39 1.446 . S
C40 C41 1.339 . S
C40 H75 0.949 . S
C41 C40 1.339 . S
C41 C42 1.439 . S
C41 H76 0.950 . S
C42 N38 1.383 . S
C42 C41 1.439 . S
C42 C71 1.383 1_455 S
N43 Co37 2.008 1_655 S
N43 C44 1.376 . S
N43 C47 1.374 . S
C44 N43 1.376 . S
C44 C45 1.443 . S
C44 C71 1.398 . S
C45 C44 1.443 . S
C45 C46 1.340 . S
C45 H77 0.951 . S
C46 C45 1.340 . S
C46 C47 1.439 . S
C46 H78 0.950 . S
C47 N43 1.374 . S
C47 C46 1.439 . S
C47 C72 1.395 . S
N48 Co37 1.995 1_655 S
N48 C49 1.376 . S
N48 C52 1.383 . S
C49 N48 1.376 . S
C49 C50 1.446 . S
C49 C72 1.391 . S
C50 C49 1.446 . S
C50 C51 1.339 . S
C50 H79 0.949 . S
C51 C50 1.339 . S
C51 C52 1.439 . S
C51 H80 0.950 . S
C52 N48 1.383 . S
C52 C51 1.439 . S
C52 C70 1.378 1_655 S
N53 Co37 2.282 . S
N53 C56 1.332 1_455 S
N53 C58 1.332 . S
C54 C55 1.375 1_455 S
C54 C57 1.400 . S
C55 C54 1.375 1_655 S
C55 C56 1.382 . S
C55 H81 0.950 . S
C56 N53 1.332 1_655 S
C56 C55 1.382 . S
C56 H67 0.952 . S
C57 C54 1.400 . S
C57 C58 1.382 . S
C57 H82 0.950 . S
C58 N53 1.332 . S
C58 C57 1.382 . S
C58 H68 0.948 . S
N59 Co37 2.282 1_655 S
N59 C63 1.332 1_655 S
N59 C64 1.332 . S
C60 C61 1.395 . S
C60 C64 1.382 . S
C60 H83 0.950 . S
C61 C60 1.395 . S
C61 C62 1.379 1_655 S
C62 C61 1.379 1_455 S
C62 C63 1.382 . S
C62 H84 0.950 . S
C63 N59 1.332 1_455 S
C63 C62 1.382 . S
C63 H65 0.952 . S
C64 N59 1.332 . S
C64 C60 1.382 . S
C64 H66 0.948 . S
H65 C63 0.952 . S
H66 C64 0.948 . S
H67 C56 0.952 . S
H68 C58 0.948 . S
C69 C35 1.395 . S
C69 C39 1.391 . S
C70 C32 1.404 . S
C70 C52 1.378 1_455 S
C71 C42 1.383 1_655 S
C71 C44 1.398 . S
C72 C47 1.395 . S
C72 C49 1.391 . S
H73 C33 0.951 . S
H74 C34 0.950 . S
H75 C40 0.949 . S
H76 C41 0.950 . S
H77 C45 0.951 . S
H78 C46 0.950 . S
H79 C50 0.949 . S
H80 C51 0.950 . S
H81 C55 0.950 . S
H82 C57 0.950 . S
H83 C60 0.950 . S
H84 C62 0.950 . S
C85 C86 1.443 . S
C85 N89 1.376 . S
C85 C123 1.395 . S
C86 C85 1.443 . S
C86 C87 1.340 . S
C86 H126 0.951 . S
C87 C86 1.340 . S
C87 C88 1.439 . S
C87 H127 0.950 . S
C88 C87 1.439 . S
C88 N89 1.374 . S
C88 C122 1.395 . S
N89 C85 1.376 . S
N89 C88 1.374 . S
N89 Co90 2.006 1_565 S
Co90 N89 2.006 1_545 S
Co90 N91 1.992 1_545 S
Co90 N96 2.010 . S
Co90 N101 1.997 . S
Co90 N106 2.282 1_545 S
Co90 N112 2.282 . S
N91 Co90 1.992 1_565 S
N91 C92 1.376 . S
N91 C95 1.383 . S
C92 N91 1.376 . S
C92 C93 1.446 . S
C92 C122 1.391 . S
C93 C92 1.446 . S
C93 C94 1.339 . S
C93 H128 0.949 . S
C94 C93 1.339 . S
C94 C95 1.439 . S
C94 H129 0.950 . S
C95 N91 1.383 . S
C95 C94 1.439 . S
C95 C124 1.375 1_565 S
N96 Co90 2.010 . S
N96 C97 1.376 . S
N96 C100 1.374 . S
C97 N96 1.376 . S
C97 C98 1.443 . S
C97 C124 1.407 . S
C98 C97 1.443 . S
C98 C99 1.340 . S
C98 H130 0.951 . S
C99 C98 1.340 . S
C99 C100 1.439 . S
C99 H131 0.950 . S
C100 N96 1.374 . S
C100 C99 1.439 . S
C100 C125 1.395 . S
N101 Co90 1.997 . S
N101 C102 1.376 . S
N101 C105 1.383 . S
C102 N101 1.376 . S
C102 C103 1.446 . S
C102 C125 1.391 . S
C103 C102 1.446 . S
C103 C104 1.339 . S
C103 H132 0.949 . S
C104 C103 1.339 . S
C104 C105 1.439 . S
C104 H133 0.950 . S
C105 N101 1.383 . S
C105 C104 1.439 . S
C105 C123 1.386 1_545 S
N106 Co90 2.282 1_565 S
N106 C109 1.332 1_565 S
N106 C111 1.332 . S
C107 C108 1.382 1_565 S
C107 C110 1.392 . S
C108 C107 1.382 1_545 S
C108 C109 1.382 . S
C108 H134 0.950 . S
C109 N106 1.332 1_545 S
C109 C108 1.382 . S
C109 H120 0.952 . S
C110 C107 1.392 . S
C110 C111 1.382 . S
C110 H135 0.950 . S
C111 N106 1.332 . S
C111 C110 1.382 . S
C111 H121 0.948 . S
N112 Co90 2.282 . S
N112 C116 1.332 1_545 S
N112 C117 1.332 . S
C113 C114 1.403 . S
C113 C117 1.382 . S
C113 H136 0.950 . S
C114 C113 1.403 . S
C114 C115 1.372 1_545 S
C115 C114 1.372 1_565 S
C115 C116 1.382 . S
C115 H137 0.950 . S
C116 N112 1.332 1_565 S
C116 C115 1.382 . S
C116 H118 0.952 . S
C117 N112 1.332 . S
C117 C113 1.382 . S
C117 H119 0.948 . S
H118 C116 0.952 . S
H119 C117 0.948 . S
H120 C109 0.952 . S
H121 C111 0.948 . S
C122 C88 1.395 . S
C122 C92 1.391 . S
C123 C85 1.395 . S
C123 C105 1.386 1_565 S
C124 C95 1.375 1_545 S
C124 C97 1.407 . S
C125 C100 1.395 . S
C125 C102 1.391 . S
H126 C86 0.951 . S
H127 C87 0.950 . S
H128 C93 0.949 . S
H129 C94 0.950 . S
H130 C98 0.951 . S
H131 C99 0.950 . S
H132 C103 0.949 . S
H133 C104 0.950 . S
H134 C108 0.950 . S
H135 C110 0.950 . S
H136 C113 0.950 . S
H137 C115 0.950 . S
H138 C144 0.930 . S
H139 C148 0.930 . S
H140 C153 0.929 . S
H141 C151 0.929 . S
H142 C146 0.929 . S
H143 C152 0.929 . S
C144 H138 0.930 . S
C144 C145 1.367 1_455 S
C144 C152 1.378 . S
C145 C144 1.367 1_655 S
C145 C153 1.433 . S
C146 H142 0.929 . S
C146 C148 1.378 . S
C146 C150 1.350 . S
C147 C150 1.463 . S
C147 C152 1.335 1_655 S
C147 N155 1.444 . S
C148 H139 0.930 . S
C148 C146 1.378 . S
C148 C149 1.381 . S
C149 C148 1.381 . S
C149 C151 1.420 1_655 S
C150 C146 1.350 . S
C150 C147 1.463 . S
C150 N154 1.427 1_655 S
C151 H141 0.929 . S
C151 C149 1.420 1_455 S
C151 N154 1.384 . S
C152 H143 0.929 . S
C152 C144 1.378 . S
C152 C147 1.335 1_455 S
C153 H140 0.929 . S
C153 C145 1.433 . S
C153 N155 1.384 . S
N154 C150 1.427 1_455 S
N154 C151 1.384 . S
N155 C147 1.444 . S
N155 C153 1.384 . S
H156 C162 0.930 . S
H157 C166 0.930 . S
H158 C171 0.929 . S
H159 C169 0.929 . S
H160 C164 0.929 . S
H161 C170 0.929 . S
C162 H156 0.930 . S
C162 C163 1.367 1_545 S
C162 C170 1.378 . S
C163 C162 1.367 1_565 S
C163 C171 1.433 . S
C164 H160 0.929 . S
C164 C166 1.378 . S
C164 C168 1.350 . S
C165 C168 1.463 . S
C165 C170 1.350 1_565 S
C165 N173 1.427 . S
C166 H157 0.930 . S
C166 C164 1.378 . S
C166 C167 1.383 . S
C167 C166 1.383 . S
C167 C169 1.419 1_565 S
C168 C164 1.350 . S
C168 C165 1.463 . S
C168 N172 1.427 1_565 S
C169 H159 0.929 . S
C169 C167 1.419 1_545 S
C169 N172 1.384 . S
C170 H161 0.929 . S
C170 C162 1.378 . S
C170 C165 1.350 1_545 S
C171 H158 0.929 . S
C171 C163 1.433 . S
C171 N173 1.384 . S
N172 C168 1.427 1_545 S
N172 C169 1.384 . S
N173 C165 1.427 . S
N173 C171 1.384 . S
H174 C180 0.930 . S
H175 C184 0.930 . S
H176 C189 0.929 . S
H177 C187 0.929 . S
H178 C182 0.929 . S
H179 C188 0.929 . S
C180 H174 0.930 . S
C180 C181 1.367 . S
C180 C188 1.378 . S
C181 C180 1.367 . S
C181 C189 1.433 1_655 S
C182 H178 0.929 . S
C182 C184 1.378 . S
C182 C186 1.344 1_455 S
C183 C186 1.464 . S
C183 C188 1.350 . S
C183 N191 1.427 1_655 S
C184 H175 0.930 . S
C184 C182 1.378 . S
C184 C185 1.375 . S
C185 C184 1.375 . S
C185 C187 1.424 1_455 S
C186 C182 1.344 1_655 S
C186 C183 1.464 . S
C186 N190 1.433 . S
C187 H177 0.929 . S
C187 C185 1.424 1_655 S
C187 N190 1.384 . S
C188 H179 0.929 . S
C188 C180 1.378 . S
C188 C183 1.350 . S
C189 H176 0.929 . S
C189 C181 1.433 1_455 S
C189 N191 1.384 . S
N190 C186 1.433 . S
N190 C187 1.384 . S
N191 C183 1.427 1_455 S
N191 C189 1.384 . S
H192 C198 0.930 . S
H193 C202 0.930 . S
H194 C207 0.929 . S
H195 C205 0.929 . S
H196 C200 0.929 . S
H197 C206 0.929 . S
C198 H192 0.930 . S
C198 C199 1.367 . S
C198 C206 1.378 . S
C199 C198 1.367 . S
C199 C207 1.433 1_565 S
C200 H196 0.929 . S
C200 C202 1.378 . S
C200 C204 1.352 . S
C201 C204 1.462 1_565 S
C201 C206 1.350 . S
C201 N209 1.427 1_565 S
C202 H193 0.930 . S
C202 C200 1.378 . S
C202 C203 1.385 . S
C203 C202 1.385 . S
C203 C205 1.414 1_545 S
C204 C200 1.352 . S
C204 C201 1.462 1_545 S
C204 N208 1.425 1_545 S
C205 H195 0.929 . S
C205 C203 1.414 1_565 S
C205 N208 1.384 . S
C206 H197 0.929 . S
C206 C198 1.378 . S
C206 C201 1.350 . S
C207 H194 0.929 . S
C207 C199 1.433 1_545 S
C207 N209 1.384 . S
N208 C204 1.425 1_565 S
N208 C205 1.384 . S
N209 C201 1.427 1_545 S
N209 C207 1.384 . S
H210 C216 0.930 . S
H211 C220 0.930 . S
H212 C225 0.929 . S
H213 C223 0.929 . S
H214 C218 0.929 . S
H215 C224 0.929 . S
C216 H210 0.930 . S
C216 C217 1.367 . S
C216 C224 1.378 . S
C217 C216 1.367 . S
C217 C225 1.433 1_455 S
C218 H214 0.929 . S
C218 C220 1.378 . S
C218 C222 1.342 1_655 S
C219 C222 1.464 . S
C219 C224 1.350 . S
C219 N227 1.427 1_455 S
C220 H211 0.930 . S
C220 C218 1.378 . S
C220 C221 1.367 . S
C221 C220 1.367 . S
C221 C223 1.433 1_655 S
C222 C218 1.342 1_455 S
C222 C219 1.464 . S
C222 N226 1.435 . S
C223 H213 0.929 . S
C223 C221 1.433 1_455 S
C223 N226 1.384 . S
C224 H215 0.929 . S
C224 C216 1.378 . S
C224 C219 1.350 . S
C225 H212 0.929 . S
C225 C217 1.433 1_655 S
C225 N227 1.384 . S
N226 C222 1.435 . S
N226 C223 1.384 . S
N227 C219 1.427 1_655 S
N227 C225 1.384 . S
H228 C234 0.930 . S
H229 C238 0.930 . S
H230 C243 0.929 . S
H231 C241 0.929 . S
H232 C236 0.929 . S
H233 C242 0.929 . S
C234 H228 0.930 . S
C234 C235 1.367 1_565 S
C234 C242 1.378 . S
C235 C234 1.367 1_545 S
C235 C243 1.433 . S
C236 H232 0.929 . S
C236 C238 1.378 . S
C236 C240 1.350 . S
C237 C240 1.463 . S
C237 C242 1.350 1_545 S
C237 N245 1.427 . S
C238 H229 0.930 . S
C238 C236 1.378 . S
C238 C239 1.367 . S
C239 C238 1.367 . S
C239 C241 1.433 1_545 S
C240 C236 1.350 . S
C240 C237 1.463 . S
C240 N244 1.427 1_545 S
C241 H231 0.929 . S
C241 C239 1.433 1_565 S
C241 N244 1.384 . S
C242 H233 0.929 . S
C242 C234 1.378 . S
C242 C237 1.350 1_565 S
C243 H230 0.929 . S
C243 C235 1.433 . S
C243 N245 1.384 . S
N244 C240 1.427 1_565 S
N244 C241 1.384 . S
N245 C237 1.427 . S
N245 C243 1.384 . S
H246 C252 0.930 . S
H247 C256 0.930 . S
H248 C261 0.929 . S
H249 C259 0.929 . S
H250 C254 0.929 . S
H251 C260 0.929 . S
C252 H246 0.930 . S
C252 C253 1.367 . S
C252 C260 1.378 . S
C253 C252 1.367 . S
C253 C261 1.433 1_455 S
C254 H250 0.929 . S
C254 C256 1.378 . S
C254 C258 1.350 1_655 S
C255 C258 1.463 . S
C255 C260 1.350 . S
C255 N263 1.427 1_455 S
C256 H247 0.930 . S
C256 C254 1.378 . S
C256 C257 1.366 1_655 S
C257 C256 1.366 1_455 S
C257 C259 1.434 . S
C258 C254 1.350 1_455 S
C258 C255 1.463 . S
C258 N262 1.427 . S
C259 H249 0.929 . S
C259 C257 1.434 . S
C259 N262 1.384 . S
C260 H251 0.929 . S
C260 C252 1.378 . S
C260 C255 1.350 . S
C261 H248 0.929 . S
C261 C253 1.433 1_655 S
C261 N263 1.384 . S
N262 C258 1.427 . S
N262 C259 1.384 . S
N263 C255 1.427 1_655 S
N263 C261 1.384 . S
H264 C270 0.930 . S
H265 C274 0.930 . S
H266 C279 0.929 . S
H267 C277 0.929 . S
H268 C272 0.929 . S
H269 C278 0.929 . S
C270 H264 0.930 . S
C270 C271 1.367 . S
C270 C278 1.378 . S
C271 C270 1.367 . S
C271 C279 1.433 1_545 S
C272 H268 0.929 . S
C272 C274 1.378 . S
C272 C276 1.346 1_565 S
C273 C276 1.463 . S
C273 C278 1.350 . S
C273 N281 1.427 1_545 S
C274 H265 0.930 . S
C274 C272 1.378 . S
C274 C275 1.374 . S
C275 C274 1.374 . S
C275 C277 1.426 1_565 S
C276 C272 1.346 1_545 S
C276 C273 1.463 . S
C276 N280 1.431 . S
C277 H267 0.929 . S
C277 C275 1.426 1_545 S
C277 N280 1.384 . S
C278 H269 0.929 . S
C278 C270 1.378 . S
C278 C273 1.350 . S
C279 H266 0.929 . S
C279 C271 1.433 1_565 S
C279 N281 1.384 . S
N280 C276 1.431 . S
N280 C277 1.384 . S
N281 C273 1.427 1_565 S
N281 C279 1.384 . S
C145 C22 1.385 . S
C149 C54 1.422 1_655 S
C163 C8 1.503 1_565 S
C167 C124 1.563 1_565 S
C181 C31 1.512 1_655 S
C185 C70 1.564 . S
C199 C17 1.373 . S
C203 C114 1.423 . S
C217 C30 1.377 . S
C221 C61 1.425 . S
C235 C27 1.500 1_545 S
C239 C123 1.563 1_545 S
C257 C71 1.563 1_455 S
C253 C23 1.507 1_455 S
C271 C24 1.373 . S
C275 C107 1.427 . S
