# Generated by pormake.
# Topology ana-f, (3,3)-cn, num edge types: 1
# Building blocks:
#     Node 0, Type 0, BuildingBlock: OLANEW_clean_sbu_2, # of connection points: 3
#     Node 1, Type 0, BuildingBlock: OLANEW_clean_sbu_2, # of connection points: 3
#     Node 2, Type 0, BuildingBlock: OLANEW_clean_sbu_2, # of connection points: 3
#     Node 3, Type 0, BuildingBlock: OLANEW_clean_sbu_2, # of connection points: 3
#     Node 4, Type 0, BuildingBlock: OLANEW_clean_sbu_2, # of connection points: 3
#     Node 5, Type 0, BuildingBlock: OLANEW_clean_sbu_2, # of connection points: 3
#     Node 6, Type 0, BuildingBlock: OLANEW_clean_sbu_2, # of connection points: 3
#     Node 7, Type 0, BuildingBlock: OLANEW_clean_sbu_2, # of connection points: 3
#     Node 8, Type 0, BuildingBlock: OLANEW_clean_sbu_2, # of connection points: 3
#     Node 9, Type 0, BuildingBlock: OLANEW_clean_sbu_2, # of connection points: 3
#     Node 10, Type 0, BuildingBlock: OLANEW_clean_sbu_2, # of connection points: 3
#     Node 11, Type 0, BuildingBlock: OLANEW_clean_sbu_2, # of connection points: 3
#     Node 12, Type 0, BuildingBlock: OLANEW_clean_sbu_2, # of connection points: 3
#     Node 13, Type 0, BuildingBlock: OLANEW_clean_sbu_2, # of connection points: 3
#     Node 14, Type 0, BuildingBlock: OLANEW_clean_sbu_2, # of connection points: 3
#     Node 15, Type 0, BuildingBlock: OLANEW_clean_sbu_2, # of connection points: 3
#     Node 16, Type 0, BuildingBlock: OLANEW_clean_sbu_2, # of connection points: 3
#     Node 17, Type 0, BuildingBlock: OLANEW_clean_sbu_2, # of connection points: 3
#     Node 18, Type 0, BuildingBlock: OLANEW_clean_sbu_2, # of connection points: 3
#     Node 19, Type 0, BuildingBlock: OLANEW_clean_sbu_2, # of connection points: 3
#     Node 20, Type 0, BuildingBlock: OLANEW_clean_sbu_2, # of connection points: 3
#     Node 21, Type 0, BuildingBlock: OLANEW_clean_sbu_2, # of connection points: 3
#     Node 22, Type 0, BuildingBlock: OLANEW_clean_sbu_2, # of connection points: 3
#     Node 23, Type 0, BuildingBlock: OLANEW_clean_sbu_2, # of connection points: 3
#     Node 24, Type 0, BuildingBlock: OLANEW_clean_sbu_2, # of connection points: 3
#     Node 25, Type 0, BuildingBlock: OLANEW_clean_sbu_2, # of connection points: 3
#     Node 26, Type 0, BuildingBlock: OLANEW_clean_sbu_2, # of connection points: 3
#     Node 27, Type 0, BuildingBlock: OLANEW_clean_sbu_2, # of connection points: 3
#     Node 28, Type 0, BuildingBlock: OLANEW_clean_sbu_2, # of connection points: 3
#     Node 29, Type 0, BuildingBlock: OLANEW_clean_sbu_2, # of connection points: 3
#     Node 30, Type 0, BuildingBlock: OLANEW_clean_sbu_2, # of connection points: 3
#     Node 31, Type 0, BuildingBlock: OLANEW_clean_sbu_2, # of connection points: 3
#     Node 32, Type 0, BuildingBlock: OLANEW_clean_sbu_2, # of connection points: 3
#     Node 33, Type 0, BuildingBlock: OLANEW_clean_sbu_2, # of connection points: 3
#     Node 34, Type 0, BuildingBlock: OLANEW_clean_sbu_2, # of connection points: 3
#     Node 35, Type 0, BuildingBlock: OLANEW_clean_sbu_2, # of connection points: 3
#     Node 36, Type 0, BuildingBlock: OLANEW_clean_sbu_2, # of connection points: 3
#     Node 37, Type 0, BuildingBlock: OLANEW_clean_sbu_2, # of connection points: 3
#     Node 38, Type 0, BuildingBlock: OLANEW_clean_sbu_2, # of connection points: 3
#     Node 39, Type 0, BuildingBlock: OLANEW_clean_sbu_2, # of connection points: 3
#     Node 40, Type 0, BuildingBlock: OLANEW_clean_sbu_2, # of connection points: 3
#     Node 41, Type 0, BuildingBlock: OLANEW_clean_sbu_2, # of connection points: 3
#     Node 42, Type 0, BuildingBlock: OLANEW_clean_sbu_2, # of connection points: 3
#     Node 43, Type 0, BuildingBlock: OLANEW_clean_sbu_2, # of connection points: 3
#     Node 44, Type 0, BuildingBlock: OLANEW_clean_sbu_2, # of connection points: 3
#     Node 45, Type 0, BuildingBlock: OLANEW_clean_sbu_2, # of connection points: 3
#     Node 46, Type 0, BuildingBlock: OLANEW_clean_sbu_2, # of connection points: 3
#     Node 47, Type 0, BuildingBlock: OLANEW_clean_sbu_2, # of connection points: 3
#     Node 48, Type 0, BuildingBlock: OLANEW_clean_sbu_2, # of connection points: 3
#     Node 49, Type 0, BuildingBlock: OLANEW_clean_sbu_2, # of connection points: 3
#     Node 50, Type 0, BuildingBlock: OLANEW_clean_sbu_2, # of connection points: 3
#     Node 51, Type 0, BuildingBlock: OLANEW_clean_sbu_2, # of connection points: 3
#     Node 52, Type 0, BuildingBlock: OLANEW_clean_sbu_2, # of connection points: 3
#     Node 53, Type 0, BuildingBlock: OLANEW_clean_sbu_2, # of connection points: 3
#     Node 54, Type 0, BuildingBlock: OLANEW_clean_sbu_2, # of connection points: 3
#     Node 55, Type 0, BuildingBlock: OLANEW_clean_sbu_2, # of connection points: 3
#     Node 56, Type 0, BuildingBlock: OLANEW_clean_sbu_2, # of connection points: 3
#     Node 57, Type 0, BuildingBlock: OLANEW_clean_sbu_2, # of connection points: 3
#     Node 58, Type 0, BuildingBlock: OLANEW_clean_sbu_2, # of connection points: 3
#     Node 59, Type 0, BuildingBlock: OLANEW_clean_sbu_2, # of connection points: 3
#     Node 60, Type 0, BuildingBlock: OLANEW_clean_sbu_2, # of connection points: 3
#     Node 61, Type 0, BuildingBlock: OLANEW_clean_sbu_2, # of connection points: 3
#     Node 62, Type 0, BuildingBlock: OLANEW_clean_sbu_2, # of connection points: 3
#     Node 63, Type 0, BuildingBlock: OLANEW_clean_sbu_2, # of connection points: 3
#     Node 64, Type 0, BuildingBlock: OLANEW_clean_sbu_2, # of connection points: 3
#     Node 65, Type 0, BuildingBlock: OLANEW_clean_sbu_2, # of connection points: 3
#     Node 66, Type 0, BuildingBlock: OLANEW_clean_sbu_2, # of connection points: 3
#     Node 67, Type 0, BuildingBlock: OLANEW_clean_sbu_2, # of connection points: 3
#     Node 68, Type 0, BuildingBlock: OLANEW_clean_sbu_2, # of connection points: 3
#     Node 69, Type 0, BuildingBlock: OLANEW_clean_sbu_2, # of connection points: 3
#     Node 70, Type 0, BuildingBlock: OLANEW_clean_sbu_2, # of connection points: 3
#     Node 71, Type 0, BuildingBlock: OLANEW_clean_sbu_2, # of connection points: 3
#     Node 72, Type 0, BuildingBlock: OLANEW_clean_sbu_2, # of connection points: 3
#     Node 73, Type 0, BuildingBlock: OLANEW_clean_sbu_2, # of connection points: 3
#     Node 74, Type 0, BuildingBlock: OLANEW_clean_sbu_2, # of connection points: 3
#     Node 75, Type 0, BuildingBlock: OLANEW_clean_sbu_2, # of connection points: 3
#     Node 76, Type 0, BuildingBlock: OLANEW_clean_sbu_2, # of connection points: 3
#     Node 77, Type 0, BuildingBlock: OLANEW_clean_sbu_2, # of connection points: 3
#     Node 78, Type 0, BuildingBlock: OLANEW_clean_sbu_2, # of connection points: 3
#     Node 79, Type 0, BuildingBlock: OLANEW_clean_sbu_2, # of connection points: 3
#     Node 80, Type 0, BuildingBlock: OLANEW_clean_sbu_2, # of connection points: 3
#     Node 81, Type 0, BuildingBlock: OLANEW_clean_sbu_2, # of connection points: 3
#     Node 82, Type 0, BuildingBlock: OLANEW_clean_sbu_2, # of connection points: 3
#     Node 83, Type 0, BuildingBlock: OLANEW_clean_sbu_2, # of connection points: 3
#     Node 84, Type 0, BuildingBlock: OLANEW_clean_sbu_2, # of connection points: 3
#     Node 85, Type 0, BuildingBlock: OLANEW_clean_sbu_2, # of connection points: 3
#     Node 86, Type 0, BuildingBlock: OLANEW_clean_sbu_2, # of connection points: 3
#     Node 87, Type 0, BuildingBlock: OLANEW_clean_sbu_2, # of connection points: 3
#     Node 88, Type 0, BuildingBlock: OLANEW_clean_sbu_2, # of connection points: 3
#     Node 89, Type 0, BuildingBlock: OLANEW_clean_sbu_2, # of connection points: 3
#     Node 90, Type 0, BuildingBlock: OLANEW_clean_sbu_2, # of connection points: 3
#     Node 91, Type 0, BuildingBlock: OLANEW_clean_sbu_2, # of connection points: 3
#     Node 92, Type 0, BuildingBlock: OLANEW_clean_sbu_2, # of connection points: 3
#     Node 93, Type 0, BuildingBlock: OLANEW_clean_sbu_2, # of connection points: 3
#     Node 94, Type 0, BuildingBlock: OLANEW_clean_sbu_2, # of connection points: 3
#     Node 95, Type 0, BuildingBlock: OLANEW_clean_sbu_2, # of connection points: 3
#     Node 96, Type 1, BuildingBlock: OLANEW_clean_sbu_2, # of connection points: 3
#     Node 97, Type 1, BuildingBlock: OLANEW_clean_sbu_2, # of connection points: 3
#     Node 98, Type 1, BuildingBlock: OLANEW_clean_sbu_2, # of connection points: 3
#     Node 99, Type 1, BuildingBlock: OLANEW_clean_sbu_2, # of connection points: 3
#     Node 100, Type 1, BuildingBlock: OLANEW_clean_sbu_2, # of connection points: 3
#     Node 101, Type 1, BuildingBlock: OLANEW_clean_sbu_2, # of connection points: 3
#     Node 102, Type 1, BuildingBlock: OLANEW_clean_sbu_2, # of connection points: 3
#     Node 103, Type 1, BuildingBlock: OLANEW_clean_sbu_2, # of connection points: 3
#     Node 104, Type 1, BuildingBlock: OLANEW_clean_sbu_2, # of connection points: 3
#     Node 105, Type 1, BuildingBlock: OLANEW_clean_sbu_2, # of connection points: 3
#     Node 106, Type 1, BuildingBlock: OLANEW_clean_sbu_2, # of connection points: 3
#     Node 107, Type 1, BuildingBlock: OLANEW_clean_sbu_2, # of connection points: 3
#     Node 108, Type 1, BuildingBlock: OLANEW_clean_sbu_2, # of connection points: 3
#     Node 109, Type 1, BuildingBlock: OLANEW_clean_sbu_2, # of connection points: 3
#     Node 110, Type 1, BuildingBlock: OLANEW_clean_sbu_2, # of connection points: 3
#     Node 111, Type 1, BuildingBlock: OLANEW_clean_sbu_2, # of connection points: 3
#     Node 112, Type 1, BuildingBlock: OLANEW_clean_sbu_2, # of connection points: 3
#     Node 113, Type 1, BuildingBlock: OLANEW_clean_sbu_2, # of connection points: 3
#     Node 114, Type 1, BuildingBlock: OLANEW_clean_sbu_2, # of connection points: 3
#     Node 115, Type 1, BuildingBlock: OLANEW_clean_sbu_2, # of connection points: 3
#     Node 116, Type 1, BuildingBlock: OLANEW_clean_sbu_2, # of connection points: 3
#     Node 117, Type 1, BuildingBlock: OLANEW_clean_sbu_2, # of connection points: 3
#     Node 118, Type 1, BuildingBlock: OLANEW_clean_sbu_2, # of connection points: 3
#     Node 119, Type 1, BuildingBlock: OLANEW_clean_sbu_2, # of connection points: 3
#     Node 120, Type 1, BuildingBlock: OLANEW_clean_sbu_2, # of connection points: 3
#     Node 121, Type 1, BuildingBlock: OLANEW_clean_sbu_2, # of connection points: 3
#     Node 122, Type 1, BuildingBlock: OLANEW_clean_sbu_2, # of connection points: 3
#     Node 123, Type 1, BuildingBlock: OLANEW_clean_sbu_2, # of connection points: 3
#     Node 124, Type 1, BuildingBlock: OLANEW_clean_sbu_2, # of connection points: 3
#     Node 125, Type 1, BuildingBlock: OLANEW_clean_sbu_2, # of connection points: 3
#     Node 126, Type 1, BuildingBlock: OLANEW_clean_sbu_2, # of connection points: 3
#     Node 127, Type 1, BuildingBlock: OLANEW_clean_sbu_2, # of connection points: 3
#     Node 128, Type 1, BuildingBlock: OLANEW_clean_sbu_2, # of connection points: 3
#     Node 129, Type 1, BuildingBlock: OLANEW_clean_sbu_2, # of connection points: 3
#     Node 130, Type 1, BuildingBlock: OLANEW_clean_sbu_2, # of connection points: 3
#     Node 131, Type 1, BuildingBlock: OLANEW_clean_sbu_2, # of connection points: 3
#     Node 132, Type 1, BuildingBlock: OLANEW_clean_sbu_2, # of connection points: 3
#     Node 133, Type 1, BuildingBlock: OLANEW_clean_sbu_2, # of connection points: 3
#     Node 134, Type 1, BuildingBlock: OLANEW_clean_sbu_2, # of connection points: 3
#     Node 135, Type 1, BuildingBlock: OLANEW_clean_sbu_2, # of connection points: 3
#     Node 136, Type 1, BuildingBlock: OLANEW_clean_sbu_2, # of connection points: 3
#     Node 137, Type 1, BuildingBlock: OLANEW_clean_sbu_2, # of connection points: 3
#     Node 138, Type 1, BuildingBlock: OLANEW_clean_sbu_2, # of connection points: 3
#     Node 139, Type 1, BuildingBlock: OLANEW_clean_sbu_2, # of connection points: 3
#     Node 140, Type 1, BuildingBlock: OLANEW_clean_sbu_2, # of connection points: 3
#     Node 141, Type 1, BuildingBlock: OLANEW_clean_sbu_2, # of connection points: 3
#     Node 142, Type 1, BuildingBlock: OLANEW_clean_sbu_2, # of connection points: 3
#     Node 143, Type 1, BuildingBlock: OLANEW_clean_sbu_2, # of connection points: 3
#     Node 144, Type 1, BuildingBlock: OLANEW_clean_sbu_2, # of connection points: 3
#     Node 145, Type 1, BuildingBlock: OLANEW_clean_sbu_2, # of connection points: 3
#     Node 146, Type 1, BuildingBlock: OLANEW_clean_sbu_2, # of connection points: 3
#     Node 147, Type 1, BuildingBlock: OLANEW_clean_sbu_2, # of connection points: 3
#     Node 148, Type 1, BuildingBlock: OLANEW_clean_sbu_2, # of connection points: 3
#     Node 149, Type 1, BuildingBlock: OLANEW_clean_sbu_2, # of connection points: 3
#     Node 150, Type 1, BuildingBlock: OLANEW_clean_sbu_2, # of connection points: 3
#     Node 151, Type 1, BuildingBlock: OLANEW_clean_sbu_2, # of connection points: 3
#     Node 152, Type 1, BuildingBlock: OLANEW_clean_sbu_2, # of connection points: 3
#     Node 153, Type 1, BuildingBlock: OLANEW_clean_sbu_2, # of connection points: 3
#     Node 154, Type 1, BuildingBlock: OLANEW_clean_sbu_2, # of connection points: 3
#     Node 155, Type 1, BuildingBlock: OLANEW_clean_sbu_2, # of connection points: 3
#     Node 156, Type 1, BuildingBlock: OLANEW_clean_sbu_2, # of connection points: 3
#     Node 157, Type 1, BuildingBlock: OLANEW_clean_sbu_2, # of connection points: 3
#     Node 158, Type 1, BuildingBlock: OLANEW_clean_sbu_2, # of connection points: 3
#     Node 159, Type 1, BuildingBlock: OLANEW_clean_sbu_2, # of connection points: 3
#     Node 160, Type 1, BuildingBlock: OLANEW_clean_sbu_2, # of connection points: 3
#     Node 161, Type 1, BuildingBlock: OLANEW_clean_sbu_2, # of connection points: 3
#     Node 162, Type 1, BuildingBlock: OLANEW_clean_sbu_2, # of connection points: 3
#     Node 163, Type 1, BuildingBlock: OLANEW_clean_sbu_2, # of connection points: 3
#     Node 164, Type 1, BuildingBlock: OLANEW_clean_sbu_2, # of connection points: 3
#     Node 165, Type 1, BuildingBlock: OLANEW_clean_sbu_2, # of connection points: 3
#     Node 166, Type 1, BuildingBlock: OLANEW_clean_sbu_2, # of connection points: 3
#     Node 167, Type 1, BuildingBlock: OLANEW_clean_sbu_2, # of connection points: 3
#     Node 168, Type 1, BuildingBlock: OLANEW_clean_sbu_2, # of connection points: 3
#     Node 169, Type 1, BuildingBlock: OLANEW_clean_sbu_2, # of connection points: 3
#     Node 170, Type 1, BuildingBlock: OLANEW_clean_sbu_2, # of connection points: 3
#     Node 171, Type 1, BuildingBlock: OLANEW_clean_sbu_2, # of connection points: 3
#     Node 172, Type 1, BuildingBlock: OLANEW_clean_sbu_2, # of connection points: 3
#     Node 173, Type 1, BuildingBlock: OLANEW_clean_sbu_2, # of connection points: 3
#     Node 174, Type 1, BuildingBlock: OLANEW_clean_sbu_2, # of connection points: 3
#     Node 175, Type 1, BuildingBlock: OLANEW_clean_sbu_2, # of connection points: 3
#     Node 176, Type 1, BuildingBlock: OLANEW_clean_sbu_2, # of connection points: 3
#     Node 177, Type 1, BuildingBlock: OLANEW_clean_sbu_2, # of connection points: 3
#     Node 178, Type 1, BuildingBlock: OLANEW_clean_sbu_2, # of connection points: 3
#     Node 179, Type 1, BuildingBlock: OLANEW_clean_sbu_2, # of connection points: 3
#     Node 180, Type 1, BuildingBlock: OLANEW_clean_sbu_2, # of connection points: 3
#     Node 181, Type 1, BuildingBlock: OLANEW_clean_sbu_2, # of connection points: 3
#     Node 182, Type 1, BuildingBlock: OLANEW_clean_sbu_2, # of connection points: 3
#     Node 183, Type 1, BuildingBlock: OLANEW_clean_sbu_2, # of connection points: 3
#     Node 184, Type 1, BuildingBlock: OLANEW_clean_sbu_2, # of connection points: 3
#     Node 185, Type 1, BuildingBlock: OLANEW_clean_sbu_2, # of connection points: 3
#     Node 186, Type 1, BuildingBlock: OLANEW_clean_sbu_2, # of connection points: 3
#     Node 187, Type 1, BuildingBlock: OLANEW_clean_sbu_2, # of connection points: 3
#     Node 188, Type 1, BuildingBlock: OLANEW_clean_sbu_2, # of connection points: 3
#     Node 189, Type 1, BuildingBlock: OLANEW_clean_sbu_2, # of connection points: 3
#     Node 190, Type 1, BuildingBlock: OLANEW_clean_sbu_2, # of connection points: 3
#     Node 191, Type 1, BuildingBlock: OLANEW_clean_sbu_2, # of connection points: 3
#     Edge 192, Type (0, 1), BuildingBlock: AJUNOK_clean_linker_0, # of connection points: 2
#     Edge 193, Type (0, 1), BuildingBlock: AJUNOK_clean_linker_0, # of connection points: 2
#     Edge 194, Type (0, 1), BuildingBlock: AJUNOK_clean_linker_0, # of connection points: 2
#     Edge 195, Type (0, 1), BuildingBlock: AJUNOK_clean_linker_0, # of connection points: 2
#     Edge 196, Type (0, 1), BuildingBlock: AJUNOK_clean_linker_0, # of connection points: 2
#     Edge 197, Type (0, 1), BuildingBlock: AJUNOK_clean_linker_0, # of connection points: 2
#     Edge 198, Type (0, 1), BuildingBlock: AJUNOK_clean_linker_0, # of connection points: 2
#     Edge 199, Type (0, 1), BuildingBlock: AJUNOK_clean_linker_0, # of connection points: 2
#     Edge 200, Type (0, 1), BuildingBlock: AJUNOK_clean_linker_0, # of connection points: 2
#     Edge 201, Type (0, 1), BuildingBlock: AJUNOK_clean_linker_0, # of connection points: 2
#     Edge 202, Type (0, 1), BuildingBlock: AJUNOK_clean_linker_0, # of connection points: 2
#     Edge 203, Type (0, 1), BuildingBlock: AJUNOK_clean_linker_0, # of connection points: 2
#     Edge 204, Type (0, 1), BuildingBlock: AJUNOK_clean_linker_0, # of connection points: 2
#     Edge 205, Type (0, 1), BuildingBlock: AJUNOK_clean_linker_0, # of connection points: 2
#     Edge 206, Type (0, 1), BuildingBlock: AJUNOK_clean_linker_0, # of connection points: 2
#     Edge 207, Type (0, 1), BuildingBlock: AJUNOK_clean_linker_0, # of connection points: 2
#     Edge 208, Type (0, 1), BuildingBlock: AJUNOK_clean_linker_0, # of connection points: 2
#     Edge 209, Type (0, 1), BuildingBlock: AJUNOK_clean_linker_0, # of connection points: 2
#     Edge 210, Type (0, 1), BuildingBlock: AJUNOK_clean_linker_0, # of connection points: 2
#     Edge 211, Type (0, 1), BuildingBlock: AJUNOK_clean_linker_0, # of connection points: 2
#     Edge 212, Type (0, 1), BuildingBlock: AJUNOK_clean_linker_0, # of connection points: 2
#     Edge 213, Type (0, 1), BuildingBlock: AJUNOK_clean_linker_0, # of connection points: 2
#     Edge 214, Type (0, 1), BuildingBlock: AJUNOK_clean_linker_0, # of connection points: 2
#     Edge 215, Type (0, 1), BuildingBlock: AJUNOK_clean_linker_0, # of connection points: 2
#     Edge 216, Type (0, 1), BuildingBlock: AJUNOK_clean_linker_0, # of connection points: 2
#     Edge 217, Type (0, 1), BuildingBlock: AJUNOK_clean_linker_0, # of connection points: 2
#     Edge 218, Type (0, 1), BuildingBlock: AJUNOK_clean_linker_0, # of connection points: 2
#     Edge 219, Type (0, 1), BuildingBlock: AJUNOK_clean_linker_0, # of connection points: 2
#     Edge 220, Type (0, 1), BuildingBlock: AJUNOK_clean_linker_0, # of connection points: 2
#     Edge 221, Type (0, 1), BuildingBlock: AJUNOK_clean_linker_0, # of connection points: 2
#     Edge 222, Type (0, 1), BuildingBlock: AJUNOK_clean_linker_0, # of connection points: 2
#     Edge 223, Type (0, 1), BuildingBlock: AJUNOK_clean_linker_0, # of connection points: 2
#     Edge 224, Type (0, 1), BuildingBlock: AJUNOK_clean_linker_0, # of connection points: 2
#     Edge 225, Type (0, 1), BuildingBlock: AJUNOK_clean_linker_0, # of connection points: 2
#     Edge 226, Type (0, 1), BuildingBlock: AJUNOK_clean_linker_0, # of connection points: 2
#     Edge 227, Type (0, 1), BuildingBlock: AJUNOK_clean_linker_0, # of connection points: 2
#     Edge 228, Type (0, 1), BuildingBlock: AJUNOK_clean_linker_0, # of connection points: 2
#     Edge 229, Type (0, 1), BuildingBlock: AJUNOK_clean_linker_0, # of connection points: 2
#     Edge 230, Type (0, 1), BuildingBlock: AJUNOK_clean_linker_0, # of connection points: 2
#     Edge 231, Type (0, 1), BuildingBlock: AJUNOK_clean_linker_0, # of connection points: 2
#     Edge 232, Type (0, 1), BuildingBlock: AJUNOK_clean_linker_0, # of connection points: 2
#     Edge 233, Type (0, 1), BuildingBlock: AJUNOK_clean_linker_0, # of connection points: 2
#     Edge 234, Type (0, 1), BuildingBlock: AJUNOK_clean_linker_0, # of connection points: 2
#     Edge 235, Type (0, 1), BuildingBlock: AJUNOK_clean_linker_0, # of connection points: 2
#     Edge 236, Type (0, 1), BuildingBlock: AJUNOK_clean_linker_0, # of connection points: 2
#     Edge 237, Type (0, 1), BuildingBlock: AJUNOK_clean_linker_0, # of connection points: 2
#     Edge 238, Type (0, 1), BuildingBlock: AJUNOK_clean_linker_0, # of connection points: 2
#     Edge 239, Type (0, 1), BuildingBlock: AJUNOK_clean_linker_0, # of connection points: 2
#     Edge 240, Type (0, 1), BuildingBlock: AJUNOK_clean_linker_0, # of connection points: 2
#     Edge 241, Type (0, 1), BuildingBlock: AJUNOK_clean_linker_0, # of connection points: 2
#     Edge 242, Type (0, 1), BuildingBlock: AJUNOK_clean_linker_0, # of connection points: 2
#     Edge 243, Type (0, 1), BuildingBlock: AJUNOK_clean_linker_0, # of connection points: 2
#     Edge 244, Type (0, 1), BuildingBlock: AJUNOK_clean_linker_0, # of connection points: 2
#     Edge 245, Type (0, 1), BuildingBlock: AJUNOK_clean_linker_0, # of connection points: 2
#     Edge 246, Type (0, 1), BuildingBlock: AJUNOK_clean_linker_0, # of connection points: 2
#     Edge 247, Type (0, 1), BuildingBlock: AJUNOK_clean_linker_0, # of connection points: 2
#     Edge 248, Type (0, 1), BuildingBlock: AJUNOK_clean_linker_0, # of connection points: 2
#     Edge 249, Type (0, 1), BuildingBlock: AJUNOK_clean_linker_0, # of connection points: 2
#     Edge 250, Type (0, 1), BuildingBlock: AJUNOK_clean_linker_0, # of connection points: 2
#     Edge 251, Type (0, 1), BuildingBlock: AJUNOK_clean_linker_0, # of connection points: 2
#     Edge 252, Type (0, 1), BuildingBlock: AJUNOK_clean_linker_0, # of connection points: 2
#     Edge 253, Type (0, 1), BuildingBlock: AJUNOK_clean_linker_0, # of connection points: 2
#     Edge 254, Type (0, 1), BuildingBlock: AJUNOK_clean_linker_0, # of connection points: 2
#     Edge 255, Type (0, 1), BuildingBlock: AJUNOK_clean_linker_0, # of connection points: 2
#     Edge 256, Type (0, 1), BuildingBlock: AJUNOK_clean_linker_0, # of connection points: 2
#     Edge 257, Type (0, 1), BuildingBlock: AJUNOK_clean_linker_0, # of connection points: 2
#     Edge 258, Type (0, 1), BuildingBlock: AJUNOK_clean_linker_0, # of connection points: 2
#     Edge 259, Type (0, 1), BuildingBlock: AJUNOK_clean_linker_0, # of connection points: 2
#     Edge 260, Type (0, 1), BuildingBlock: AJUNOK_clean_linker_0, # of connection points: 2
#     Edge 261, Type (0, 1), BuildingBlock: AJUNOK_clean_linker_0, # of connection points: 2
#     Edge 262, Type (0, 1), BuildingBlock: AJUNOK_clean_linker_0, # of connection points: 2
#     Edge 263, Type (0, 1), BuildingBlock: AJUNOK_clean_linker_0, # of connection points: 2
#     Edge 264, Type (0, 1), BuildingBlock: AJUNOK_clean_linker_0, # of connection points: 2
#     Edge 265, Type (0, 1), BuildingBlock: AJUNOK_clean_linker_0, # of connection points: 2
#     Edge 266, Type (0, 1), BuildingBlock: AJUNOK_clean_linker_0, # of connection points: 2
#     Edge 267, Type (0, 1), BuildingBlock: AJUNOK_clean_linker_0, # of connection points: 2
#     Edge 268, Type (0, 1), BuildingBlock: AJUNOK_clean_linker_0, # of connection points: 2
#     Edge 269, Type (0, 1), BuildingBlock: AJUNOK_clean_linker_0, # of connection points: 2
#     Edge 270, Type (0, 1), BuildingBlock: AJUNOK_clean_linker_0, # of connection points: 2
#     Edge 271, Type (0, 1), BuildingBlock: AJUNOK_clean_linker_0, # of connection points: 2
#     Edge 272, Type (0, 1), BuildingBlock: AJUNOK_clean_linker_0, # of connection points: 2
#     Edge 273, Type (0, 1), BuildingBlock: AJUNOK_clean_linker_0, # of connection points: 2
#     Edge 274, Type (0, 1), BuildingBlock: AJUNOK_clean_linker_0, # of connection points: 2
#     Edge 275, Type (0, 1), BuildingBlock: AJUNOK_clean_linker_0, # of connection points: 2
#     Edge 276, Type (0, 1), BuildingBlock: AJUNOK_clean_linker_0, # of connection points: 2
#     Edge 277, Type (0, 1), BuildingBlock: AJUNOK_clean_linker_0, # of connection points: 2
#     Edge 278, Type (0, 1), BuildingBlock: AJUNOK_clean_linker_0, # of connection points: 2
#     Edge 279, Type (0, 1), BuildingBlock: AJUNOK_clean_linker_0, # of connection points: 2
#     Edge 280, Type (0, 1), BuildingBlock: AJUNOK_clean_linker_0, # of connection points: 2
#     Edge 281, Type (0, 1), BuildingBlock: AJUNOK_clean_linker_0, # of connection points: 2
#     Edge 282, Type (0, 1), BuildingBlock: AJUNOK_clean_linker_0, # of connection points: 2
#     Edge 283, Type (0, 1), BuildingBlock: AJUNOK_clean_linker_0, # of connection points: 2
#     Edge 284, Type (0, 1), BuildingBlock: AJUNOK_clean_linker_0, # of connection points: 2
#     Edge 285, Type (0, 1), BuildingBlock: AJUNOK_clean_linker_0, # of connection points: 2
#     Edge 286, Type (0, 1), BuildingBlock: AJUNOK_clean_linker_0, # of connection points: 2
#     Edge 287, Type (0, 1), BuildingBlock: AJUNOK_clean_linker_0, # of connection points: 2
#     Edge 288, Type (0, 1), BuildingBlock: AJUNOK_clean_linker_0, # of connection points: 2
#     Edge 289, Type (0, 1), BuildingBlock: AJUNOK_clean_linker_0, # of connection points: 2
#     Edge 290, Type (0, 1), BuildingBlock: AJUNOK_clean_linker_0, # of connection points: 2
#     Edge 291, Type (0, 1), BuildingBlock: AJUNOK_clean_linker_0, # of connection points: 2
#     Edge 292, Type (0, 1), BuildingBlock: AJUNOK_clean_linker_0, # of connection points: 2
#     Edge 293, Type (0, 1), BuildingBlock: AJUNOK_clean_linker_0, # of connection points: 2
#     Edge 294, Type (0, 1), BuildingBlock: AJUNOK_clean_linker_0, # of connection points: 2
#     Edge 295, Type (0, 1), BuildingBlock: AJUNOK_clean_linker_0, # of connection points: 2
#     Edge 296, Type (0, 1), BuildingBlock: AJUNOK_clean_linker_0, # of connection points: 2
#     Edge 297, Type (0, 1), BuildingBlock: AJUNOK_clean_linker_0, # of connection points: 2
#     Edge 298, Type (0, 1), BuildingBlock: AJUNOK_clean_linker_0, # of connection points: 2
#     Edge 299, Type (0, 1), BuildingBlock: AJUNOK_clean_linker_0, # of connection points: 2
#     Edge 300, Type (0, 1), BuildingBlock: AJUNOK_clean_linker_0, # of connection points: 2
#     Edge 301, Type (0, 1), BuildingBlock: AJUNOK_clean_linker_0, # of connection points: 2
#     Edge 302, Type (0, 1), BuildingBlock: AJUNOK_clean_linker_0, # of connection points: 2
#     Edge 303, Type (0, 1), BuildingBlock: AJUNOK_clean_linker_0, # of connection points: 2
#     Edge 304, Type (0, 1), BuildingBlock: AJUNOK_clean_linker_0, # of connection points: 2
#     Edge 305, Type (0, 1), BuildingBlock: AJUNOK_clean_linker_0, # of connection points: 2
#     Edge 306, Type (0, 1), BuildingBlock: AJUNOK_clean_linker_0, # of connection points: 2
#     Edge 307, Type (0, 1), BuildingBlock: AJUNOK_clean_linker_0, # of connection points: 2
#     Edge 308, Type (0, 1), BuildingBlock: AJUNOK_clean_linker_0, # of connection points: 2
#     Edge 309, Type (0, 1), BuildingBlock: AJUNOK_clean_linker_0, # of connection points: 2
#     Edge 310, Type (0, 1), BuildingBlock: AJUNOK_clean_linker_0, # of connection points: 2
#     Edge 311, Type (0, 1), BuildingBlock: AJUNOK_clean_linker_0, # of connection points: 2
#     Edge 312, Type (0, 1), BuildingBlock: AJUNOK_clean_linker_0, # of connection points: 2
#     Edge 313, Type (0, 1), BuildingBlock: AJUNOK_clean_linker_0, # of connection points: 2
#     Edge 314, Type (0, 1), BuildingBlock: AJUNOK_clean_linker_0, # of connection points: 2
#     Edge 315, Type (0, 1), BuildingBlock: AJUNOK_clean_linker_0, # of connection points: 2
#     Edge 316, Type (0, 1), BuildingBlock: AJUNOK_clean_linker_0, # of connection points: 2
#     Edge 317, Type (0, 1), BuildingBlock: AJUNOK_clean_linker_0, # of connection points: 2
#     Edge 318, Type (0, 1), BuildingBlock: AJUNOK_clean_linker_0, # of connection points: 2
#     Edge 319, Type (0, 1), BuildingBlock: AJUNOK_clean_linker_0, # of connection points: 2
#     Edge 320, Type (0, 1), BuildingBlock: AJUNOK_clean_linker_0, # of connection points: 2
#     Edge 321, Type (0, 1), BuildingBlock: AJUNOK_clean_linker_0, # of connection points: 2
#     Edge 322, Type (0, 1), BuildingBlock: AJUNOK_clean_linker_0, # of connection points: 2
#     Edge 323, Type (0, 1), BuildingBlock: AJUNOK_clean_linker_0, # of connection points: 2
#     Edge 324, Type (0, 1), BuildingBlock: AJUNOK_clean_linker_0, # of connection points: 2
#     Edge 325, Type (0, 1), BuildingBlock: AJUNOK_clean_linker_0, # of connection points: 2
#     Edge 326, Type (0, 1), BuildingBlock: AJUNOK_clean_linker_0, # of connection points: 2
#     Edge 327, Type (0, 1), BuildingBlock: AJUNOK_clean_linker_0, # of connection points: 2
#     Edge 328, Type (0, 1), BuildingBlock: AJUNOK_clean_linker_0, # of connection points: 2
#     Edge 329, Type (0, 1), BuildingBlock: AJUNOK_clean_linker_0, # of connection points: 2
#     Edge 330, Type (0, 1), BuildingBlock: AJUNOK_clean_linker_0, # of connection points: 2
#     Edge 331, Type (0, 1), BuildingBlock: AJUNOK_clean_linker_0, # of connection points: 2
#     Edge 332, Type (0, 1), BuildingBlock: AJUNOK_clean_linker_0, # of connection points: 2
#     Edge 333, Type (0, 1), BuildingBlock: AJUNOK_clean_linker_0, # of connection points: 2
#     Edge 334, Type (0, 1), BuildingBlock: AJUNOK_clean_linker_0, # of connection points: 2
#     Edge 335, Type (0, 1), BuildingBlock: AJUNOK_clean_linker_0, # of connection points: 2
#     Edge 336, Type (0, 1), BuildingBlock: AJUNOK_clean_linker_0, # of connection points: 2
#     Edge 337, Type (0, 1), BuildingBlock: AJUNOK_clean_linker_0, # of connection points: 2
#     Edge 338, Type (0, 1), BuildingBlock: AJUNOK_clean_linker_0, # of connection points: 2
#     Edge 339, Type (0, 1), BuildingBlock: AJUNOK_clean_linker_0, # of connection points: 2
#     Edge 340, Type (0, 1), BuildingBlock: AJUNOK_clean_linker_0, # of connection points: 2
#     Edge 341, Type (0, 1), BuildingBlock: AJUNOK_clean_linker_0, # of connection points: 2
#     Edge 342, Type (0, 1), BuildingBlock: AJUNOK_clean_linker_0, # of connection points: 2
#     Edge 343, Type (0, 1), BuildingBlock: AJUNOK_clean_linker_0, # of connection points: 2
#     Edge 344, Type (0, 1), BuildingBlock: AJUNOK_clean_linker_0, # of connection points: 2
#     Edge 345, Type (0, 1), BuildingBlock: AJUNOK_clean_linker_0, # of connection points: 2
#     Edge 346, Type (0, 1), BuildingBlock: AJUNOK_clean_linker_0, # of connection points: 2
#     Edge 347, Type (0, 1), BuildingBlock: AJUNOK_clean_linker_0, # of connection points: 2
#     Edge 348, Type (0, 1), BuildingBlock: AJUNOK_clean_linker_0, # of connection points: 2
#     Edge 349, Type (0, 1), BuildingBlock: AJUNOK_clean_linker_0, # of connection points: 2
#     Edge 350, Type (0, 1), BuildingBlock: AJUNOK_clean_linker_0, # of connection points: 2
#     Edge 351, Type (0, 1), BuildingBlock: AJUNOK_clean_linker_0, # of connection points: 2
#     Edge 352, Type (0, 1), BuildingBlock: AJUNOK_clean_linker_0, # of connection points: 2
#     Edge 353, Type (0, 1), BuildingBlock: AJUNOK_clean_linker_0, # of connection points: 2
#     Edge 354, Type (0, 1), BuildingBlock: AJUNOK_clean_linker_0, # of connection points: 2
#     Edge 355, Type (0, 1), BuildingBlock: AJUNOK_clean_linker_0, # of connection points: 2
#     Edge 356, Type (0, 1), BuildingBlock: AJUNOK_clean_linker_0, # of connection points: 2
#     Edge 357, Type (0, 1), BuildingBlock: AJUNOK_clean_linker_0, # of connection points: 2
#     Edge 358, Type (0, 1), BuildingBlock: AJUNOK_clean_linker_0, # of connection points: 2
#     Edge 359, Type (0, 1), BuildingBlock: AJUNOK_clean_linker_0, # of connection points: 2
#     Edge 360, Type (0, 1), BuildingBlock: AJUNOK_clean_linker_0, # of connection points: 2
#     Edge 361, Type (0, 1), BuildingBlock: AJUNOK_clean_linker_0, # of connection points: 2
#     Edge 362, Type (0, 1), BuildingBlock: AJUNOK_clean_linker_0, # of connection points: 2
#     Edge 363, Type (0, 1), BuildingBlock: AJUNOK_clean_linker_0, # of connection points: 2
#     Edge 364, Type (0, 1), BuildingBlock: AJUNOK_clean_linker_0, # of connection points: 2
#     Edge 365, Type (0, 1), BuildingBlock: AJUNOK_clean_linker_0, # of connection points: 2
#     Edge 366, Type (0, 1), BuildingBlock: AJUNOK_clean_linker_0, # of connection points: 2
#     Edge 367, Type (0, 1), BuildingBlock: AJUNOK_clean_linker_0, # of connection points: 2
#     Edge 368, Type (0, 1), BuildingBlock: AJUNOK_clean_linker_0, # of connection points: 2
#     Edge 369, Type (0, 1), BuildingBlock: AJUNOK_clean_linker_0, # of connection points: 2
#     Edge 370, Type (0, 1), BuildingBlock: AJUNOK_clean_linker_0, # of connection points: 2
#     Edge 371, Type (0, 1), BuildingBlock: AJUNOK_clean_linker_0, # of connection points: 2
#     Edge 372, Type (0, 1), BuildingBlock: AJUNOK_clean_linker_0, # of connection points: 2
#     Edge 373, Type (0, 1), BuildingBlock: AJUNOK_clean_linker_0, # of connection points: 2
#     Edge 374, Type (0, 1), BuildingBlock: AJUNOK_clean_linker_0, # of connection points: 2
#     Edge 375, Type (0, 1), BuildingBlock: AJUNOK_clean_linker_0, # of connection points: 2
#     Edge 376, Type (0, 1), BuildingBlock: AJUNOK_clean_linker_0, # of connection points: 2
#     Edge 377, Type (0, 1), BuildingBlock: AJUNOK_clean_linker_0, # of connection points: 2
#     Edge 378, Type (0, 1), BuildingBlock: AJUNOK_clean_linker_0, # of connection points: 2
#     Edge 379, Type (0, 1), BuildingBlock: AJUNOK_clean_linker_0, # of connection points: 2
#     Edge 380, Type (0, 1), BuildingBlock: AJUNOK_clean_linker_0, # of connection points: 2
#     Edge 381, Type (0, 1), BuildingBlock: AJUNOK_clean_linker_0, # of connection points: 2
#     Edge 382, Type (0, 1), BuildingBlock: AJUNOK_clean_linker_0, # of connection points: 2
#     Edge 383, Type (0, 1), BuildingBlock: AJUNOK_clean_linker_0, # of connection points: 2
#     Edge 384, Type (0, 1), BuildingBlock: AJUNOK_clean_linker_0, # of connection points: 2
#     Edge 385, Type (0, 1), BuildingBlock: AJUNOK_clean_linker_0, # of connection points: 2
#     Edge 386, Type (0, 1), BuildingBlock: AJUNOK_clean_linker_0, # of connection points: 2
#     Edge 387, Type (0, 1), BuildingBlock: AJUNOK_clean_linker_0, # of connection points: 2
#     Edge 388, Type (0, 1), BuildingBlock: AJUNOK_clean_linker_0, # of connection points: 2
#     Edge 389, Type (0, 1), BuildingBlock: AJUNOK_clean_linker_0, # of connection points: 2
#     Edge 390, Type (0, 1), BuildingBlock: AJUNOK_clean_linker_0, # of connection points: 2
#     Edge 391, Type (0, 1), BuildingBlock: AJUNOK_clean_linker_0, # of connection points: 2
#     Edge 392, Type (0, 1), BuildingBlock: AJUNOK_clean_linker_0, # of connection points: 2
#     Edge 393, Type (0, 1), BuildingBlock: AJUNOK_clean_linker_0, # of connection points: 2
#     Edge 394, Type (0, 1), BuildingBlock: AJUNOK_clean_linker_0, # of connection points: 2
#     Edge 395, Type (0, 1), BuildingBlock: AJUNOK_clean_linker_0, # of connection points: 2
#     Edge 396, Type (0, 1), BuildingBlock: AJUNOK_clean_linker_0, # of connection points: 2
#     Edge 397, Type (0, 1), BuildingBlock: AJUNOK_clean_linker_0, # of connection points: 2
#     Edge 398, Type (0, 1), BuildingBlock: AJUNOK_clean_linker_0, # of connection points: 2
#     Edge 399, Type (0, 1), BuildingBlock: AJUNOK_clean_linker_0, # of connection points: 2
#     Edge 400, Type (0, 1), BuildingBlock: AJUNOK_clean_linker_0, # of connection points: 2
#     Edge 401, Type (0, 1), BuildingBlock: AJUNOK_clean_linker_0, # of connection points: 2
#     Edge 402, Type (0, 1), BuildingBlock: AJUNOK_clean_linker_0, # of connection points: 2
#     Edge 403, Type (0, 1), BuildingBlock: AJUNOK_clean_linker_0, # of connection points: 2
#     Edge 404, Type (0, 1), BuildingBlock: AJUNOK_clean_linker_0, # of connection points: 2
#     Edge 405, Type (0, 1), BuildingBlock: AJUNOK_clean_linker_0, # of connection points: 2
#     Edge 406, Type (0, 1), BuildingBlock: AJUNOK_clean_linker_0, # of connection points: 2
#     Edge 407, Type (0, 1), BuildingBlock: AJUNOK_clean_linker_0, # of connection points: 2
#     Edge 408, Type (0, 1), BuildingBlock: AJUNOK_clean_linker_0, # of connection points: 2
#     Edge 409, Type (0, 1), BuildingBlock: AJUNOK_clean_linker_0, # of connection points: 2
#     Edge 410, Type (0, 1), BuildingBlock: AJUNOK_clean_linker_0, # of connection points: 2
#     Edge 411, Type (0, 1), BuildingBlock: AJUNOK_clean_linker_0, # of connection points: 2
#     Edge 412, Type (0, 1), BuildingBlock: AJUNOK_clean_linker_0, # of connection points: 2
#     Edge 413, Type (0, 1), BuildingBlock: AJUNOK_clean_linker_0, # of connection points: 2
#     Edge 414, Type (0, 1), BuildingBlock: AJUNOK_clean_linker_0, # of connection points: 2
#     Edge 415, Type (0, 1), BuildingBlock: AJUNOK_clean_linker_0, # of connection points: 2
#     Edge 416, Type (0, 1), BuildingBlock: AJUNOK_clean_linker_0, # of connection points: 2
#     Edge 417, Type (0, 1), BuildingBlock: AJUNOK_clean_linker_0, # of connection points: 2
#     Edge 418, Type (0, 1), BuildingBlock: AJUNOK_clean_linker_0, # of connection points: 2
#     Edge 419, Type (0, 1), BuildingBlock: AJUNOK_clean_linker_0, # of connection points: 2
#     Edge 420, Type (0, 1), BuildingBlock: AJUNOK_clean_linker_0, # of connection points: 2
#     Edge 421, Type (0, 1), BuildingBlock: AJUNOK_clean_linker_0, # of connection points: 2
#     Edge 422, Type (0, 1), BuildingBlock: AJUNOK_clean_linker_0, # of connection points: 2
#     Edge 423, Type (0, 1), BuildingBlock: AJUNOK_clean_linker_0, # of connection points: 2
#     Edge 424, Type (0, 1), BuildingBlock: AJUNOK_clean_linker_0, # of connection points: 2
#     Edge 425, Type (0, 1), BuildingBlock: AJUNOK_clean_linker_0, # of connection points: 2
#     Edge 426, Type (0, 1), BuildingBlock: AJUNOK_clean_linker_0, # of connection points: 2
#     Edge 427, Type (0, 1), BuildingBlock: AJUNOK_clean_linker_0, # of connection points: 2
#     Edge 428, Type (0, 1), BuildingBlock: AJUNOK_clean_linker_0, # of connection points: 2
#     Edge 429, Type (0, 1), BuildingBlock: AJUNOK_clean_linker_0, # of connection points: 2
#     Edge 430, Type (0, 1), BuildingBlock: AJUNOK_clean_linker_0, # of connection points: 2
#     Edge 431, Type (0, 1), BuildingBlock: AJUNOK_clean_linker_0, # of connection points: 2
#     Edge 432, Type (0, 1), BuildingBlock: AJUNOK_clean_linker_0, # of connection points: 2
#     Edge 433, Type (0, 1), BuildingBlock: AJUNOK_clean_linker_0, # of connection points: 2
#     Edge 434, Type (0, 1), BuildingBlock: AJUNOK_clean_linker_0, # of connection points: 2
#     Edge 435, Type (0, 1), BuildingBlock: AJUNOK_clean_linker_0, # of connection points: 2
#     Edge 436, Type (0, 1), BuildingBlock: AJUNOK_clean_linker_0, # of connection points: 2
#     Edge 437, Type (0, 1), BuildingBlock: AJUNOK_clean_linker_0, # of connection points: 2
#     Edge 438, Type (0, 1), BuildingBlock: AJUNOK_clean_linker_0, # of connection points: 2
#     Edge 439, Type (0, 1), BuildingBlock: AJUNOK_clean_linker_0, # of connection points: 2
#     Edge 440, Type (0, 1), BuildingBlock: AJUNOK_clean_linker_0, # of connection points: 2
#     Edge 441, Type (0, 1), BuildingBlock: AJUNOK_clean_linker_0, # of connection points: 2
#     Edge 442, Type (0, 1), BuildingBlock: AJUNOK_clean_linker_0, # of connection points: 2
#     Edge 443, Type (0, 1), BuildingBlock: AJUNOK_clean_linker_0, # of connection points: 2
#     Edge 444, Type (0, 1), BuildingBlock: AJUNOK_clean_linker_0, # of connection points: 2
#     Edge 445, Type (0, 1), BuildingBlock: AJUNOK_clean_linker_0, # of connection points: 2
#     Edge 446, Type (0, 1), BuildingBlock: AJUNOK_clean_linker_0, # of connection points: 2
#     Edge 447, Type (0, 1), BuildingBlock: AJUNOK_clean_linker_0, # of connection points: 2
#     Edge 448, Type (0, 1), BuildingBlock: AJUNOK_clean_linker_0, # of connection points: 2
#     Edge 449, Type (0, 1), BuildingBlock: AJUNOK_clean_linker_0, # of connection points: 2
#     Edge 450, Type (0, 1), BuildingBlock: AJUNOK_clean_linker_0, # of connection points: 2
#     Edge 451, Type (0, 1), BuildingBlock: AJUNOK_clean_linker_0, # of connection points: 2
#     Edge 452, Type (0, 1), BuildingBlock: AJUNOK_clean_linker_0, # of connection points: 2
#     Edge 453, Type (0, 1), BuildingBlock: AJUNOK_clean_linker_0, # of connection points: 2
#     Edge 454, Type (0, 1), BuildingBlock: AJUNOK_clean_linker_0, # of connection points: 2
#     Edge 455, Type (0, 1), BuildingBlock: AJUNOK_clean_linker_0, # of connection points: 2
#     Edge 456, Type (0, 1), BuildingBlock: AJUNOK_clean_linker_0, # of connection points: 2
#     Edge 457, Type (0, 1), BuildingBlock: AJUNOK_clean_linker_0, # of connection points: 2
#     Edge 458, Type (0, 1), BuildingBlock: AJUNOK_clean_linker_0, # of connection points: 2
#     Edge 459, Type (0, 1), BuildingBlock: AJUNOK_clean_linker_0, # of connection points: 2
#     Edge 460, Type (0, 1), BuildingBlock: AJUNOK_clean_linker_0, # of connection points: 2
#     Edge 461, Type (0, 1), BuildingBlock: AJUNOK_clean_linker_0, # of connection points: 2
#     Edge 462, Type (0, 1), BuildingBlock: AJUNOK_clean_linker_0, # of connection points: 2
#     Edge 463, Type (0, 1), BuildingBlock: AJUNOK_clean_linker_0, # of connection points: 2
#     Edge 464, Type (0, 1), BuildingBlock: AJUNOK_clean_linker_0, # of connection points: 2
#     Edge 465, Type (0, 1), BuildingBlock: AJUNOK_clean_linker_0, # of connection points: 2
#     Edge 466, Type (0, 1), BuildingBlock: AJUNOK_clean_linker_0, # of connection points: 2
#     Edge 467, Type (0, 1), BuildingBlock: AJUNOK_clean_linker_0, # of connection points: 2
#     Edge 468, Type (0, 1), BuildingBlock: AJUNOK_clean_linker_0, # of connection points: 2
#     Edge 469, Type (0, 1), BuildingBlock: AJUNOK_clean_linker_0, # of connection points: 2
#     Edge 470, Type (0, 1), BuildingBlock: AJUNOK_clean_linker_0, # of connection points: 2
#     Edge 471, Type (0, 1), BuildingBlock: AJUNOK_clean_linker_0, # of connection points: 2
#     Edge 472, Type (0, 1), BuildingBlock: AJUNOK_clean_linker_0, # of connection points: 2
#     Edge 473, Type (0, 1), BuildingBlock: AJUNOK_clean_linker_0, # of connection points: 2
#     Edge 474, Type (0, 1), BuildingBlock: AJUNOK_clean_linker_0, # of connection points: 2
#     Edge 475, Type (0, 1), BuildingBlock: AJUNOK_clean_linker_0, # of connection points: 2
#     Edge 476, Type (0, 1), BuildingBlock: AJUNOK_clean_linker_0, # of connection points: 2
#     Edge 477, Type (0, 1), BuildingBlock: AJUNOK_clean_linker_0, # of connection points: 2
#     Edge 478, Type (0, 1), BuildingBlock: AJUNOK_clean_linker_0, # of connection points: 2
#     Edge 479, Type (0, 1), BuildingBlock: AJUNOK_clean_linker_0, # of connection points: 2
# Relax obj value: 0.006
# Max RMSD: 0.020
# Mean RMSD: 0.020
data_MOF--net-ana-f--node1-OLANEW_clean_sbu_2--node2-OLANEW_clean_sbu_2--edge1-AJUNOK_clean_linker_0
_symmetry_space_group_name_H-M    P1
_symmetry_Int_Tables_number       1
_symmetry_cell_setting            triclinic
loop_
_symmetry_equiv_pos_as_xyz
'x, y, z'
_cell_length_a     124.36773
_cell_length_b     124.36786
_cell_length_c     124.36659
_cell_angle_alpha  89.998273
_cell_angle_beta   89.998583
_cell_angle_gamma 90.000875
loop_
_atom_site_label
_atom_site_type_symbol
_atom_site_fract_x
_atom_site_fract_y
_atom_site_fract_z
_atom_type_partial_charge
O0 O 0.04783 0.1907 0.40291 0.0
Cd1 Cd 0.03662 0.18126 0.41598 0.0
O2 O 0.06168 0.18289 0.41043 0.0
Cd3 Cd 0.0784 0.17754 0.41155 0.0
O4 O 0.09229 0.16805 0.41655 0.0
C5 C 0.10107 0.17214 0.4198 0.0
O6 O 0.10215 0.18265 0.41975 0.0
C7 C 0.0579 0.18907 0.40323 0.0
C8 C 0.02112 0.16892 0.40549 0.0
O9 O 0.01888 0.17833 0.40906 0.0
O10 O 0.03064 0.1653 0.40702 0.0
O11 O 0.05258 0.79801 0.65189 0.0
Cd12 Cd 0.057 0.78418 0.66508 0.0
O13 O 0.06109 0.81067 0.66077 0.0
Cd14 Cd 0.06786 0.82684 0.66243 0.0
O15 O 0.0762 0.84185 0.66611 0.0
C16 C 0.07237 0.84823 0.6731 0.0
O17 O 0.06315 0.84583 0.67766 0.0
C18 C 0.05554 0.80775 0.65271 0.0
C19 C 0.07029 0.76883 0.65563 0.0
O20 O 0.06007 0.76852 0.65442 0.0
O21 O 0.07427 0.7763 0.66151 0.0
O22 O 0.45216 0.80586 0.9015 0.0
Cd23 Cd 0.46302 0.81469 0.91526 0.0
O24 O 0.43811 0.81187 0.91019 0.0
Cd25 Cd 0.42109 0.81573 0.91235 0.0
O26 O 0.40574 0.82292 0.91684 0.0
C27 C 0.40133 0.82982 0.91073 0.0
O28 O 0.40595 0.83214 0.90151 0.0
C29 C 0.44202 0.80686 0.90219 0.0
C30 C 0.47889 0.82733 0.90574 0.0
O31 O 0.48103 0.81785 0.90917 0.0
O32 O 0.46928 0.83085 0.90688 0.0
O33 O 0.44279 0.20099 0.15095 0.0
Cd34 Cd 0.43436 0.21167 0.16512 0.0
O35 O 0.43316 0.18754 0.15689 0.0
Cd36 Cd 0.42752 0.17089 0.15754 0.0
O37 O 0.41939 0.15567 0.16064 0.0
C38 C 0.42273 0.14956 0.16811 0.0
O39 O 0.43141 0.15234 0.17344 0.0
C40 C 0.43991 0.19123 0.15015 0.0
C41 C 0.42211 0.22824 0.1563 0.0
O42 O 0.43178 0.2299 0.15947 0.0
O43 O 0.4182 0.21878 0.15742 0.0
O44 O 0.04848 0.80147 0.10328 0.0
Cd45 Cd 0.03383 0.80577 0.09094 0.0
O46 O 0.05963 0.81245 0.09514 0.0
Cd47 Cd 0.07531 0.81995 0.09238 0.0
O48 O 0.08977 0.82944 0.08939 0.0
C49 C 0.09554 0.82757 0.08118 0.0
O50 O 0.09278 0.81968 0.07471 0.0
C51 C 0.05769 0.80584 0.1027 0.0
C52 C 0.01945 0.8198 0.10086 0.0
O53 O 0.01896 0.80964 0.10247 0.0
O54 O 0.02669 0.82337 0.09445 0.0
O55 O 0.45214 0.80122 0.34556 0.0
Cd56 Cd 0.44809 0.78626 0.33351 0.0
O57 O 0.43637 0.8084 0.34256 0.0
Cd58 Cd 0.42265 0.81931 0.3442 0.0
O59 O 0.41223 0.83311 0.34111 0.0
C60 C 0.41416 0.83853 0.33266 0.0
O61 O 0.42205 0.83543 0.32636 0.0
C62 C 0.44541 0.80869 0.34736 0.0
C63 C 0.43403 0.77188 0.34342 0.0
O64 O 0.44416 0.77157 0.34527 0.0
O65 O 0.43051 0.77896 0.33681 0.0
O66 O 0.45026 0.19969 0.60115 0.0
Cd67 Cd 0.46395 0.19579 0.58763 0.0
O68 O 0.43814 0.1897 0.59312 0.0
Cd69 Cd 0.42214 0.18273 0.59072 0.0
O70 O 0.40814 0.17234 0.58858 0.0
C71 C 0.4008 0.17454 0.58184 0.0
O72 O 0.40154 0.18345 0.57621 0.0
C73 C 0.44085 0.19573 0.60093 0.0
C74 C 0.47935 0.18193 0.59616 0.0
O75 O 0.47971 0.19207 0.59795 0.0
O76 O 0.47174 0.1783 0.59024 0.0
O77 O 0.0523 0.19936 0.84287 0.0
Cd78 Cd 0.06027 0.21062 0.82889 0.0
O79 O 0.06759 0.19075 0.84246 0.0
Cd80 Cd 0.08023 0.17916 0.84641 0.0
O81 O 0.08901 0.16422 0.84364 0.0
C82 C 0.08758 0.15994 0.83447 0.0
O83 O 0.08127 0.16483 0.82754 0.0
C84 C 0.05816 0.19174 0.84633 0.0
C85 C 0.07228 0.22737 0.83769 0.0
O86 O 0.06252 0.22884 0.83472 0.0
O87 O 0.07635 0.21798 0.83651 0.0
O88 O 0.40123 0.04822 0.19055 0.0
Cd89 Cd 0.41467 0.03776 0.18076 0.0
O90 O 0.4074 0.06212 0.18177 0.0
Cd91 Cd 0.40905 0.07897 0.17689 0.0
O92 O 0.41364 0.09403 0.16909 0.0
C93 C 0.4215 0.09944 0.17274 0.0
O94 O 0.42636 0.09604 0.18148 0.0
C95 C 0.40074 0.05821 0.18848 0.0
C96 C 0.40522 0.02072 0.16971 0.0
O97 O 0.40945 0.01931 0.179 0.0
O98 O 0.40547 0.03018 0.16565 0.0
O99 O 0.20271 0.15781 0.44476 0.0
Cd100 Cd 0.21406 0.17209 0.43742 0.0
O101 O 0.19293 0.16001 0.43035 0.0
Cd102 Cd 0.18017 0.15779 0.41836 0.0
O103 O 0.16409 0.16038 0.41174 0.0
C104 C 0.15961 0.16929 0.41399 0.0
O105 O 0.16497 0.17641 0.41965 0.0
C106 C 0.19446 0.15526 0.4393 0.0
C107 C 0.23192 0.16423 0.42634 0.0
O108 O 0.23258 0.16689 0.43628 0.0
O109 O 0.22281 0.16527 0.42165 0.0
O110 O 0.09529 0.95189 0.69497 0.0
Cd111 Cd 0.08207 0.96316 0.6858 0.0
O112 O 0.09266 0.94073 0.68168 0.0
Cd113 Cd 0.0946 0.92635 0.6717 0.0
O114 O 0.09222 0.91071 0.66414 0.0
C115 C 0.08613 0.90394 0.66878 0.0
O116 O 0.08189 0.90647 0.67812 0.0
C117 C 0.09748 0.943 0.69043 0.0
C118 C 0.09186 0.97969 0.67426 0.0
O119 O 0.08814 0.98132 0.68373 0.0
O120 O 0.09097 0.97024 0.67026 0.0
O121 O 0.2972 0.84826 0.94823 0.0
Cd122 Cd 0.28288 0.83591 0.943 0.0
O123 O 0.30925 0.84001 0.93833 0.0
Cd124 Cd 0.32496 0.83883 0.93051 0.0
O125 O 0.33936 0.83634 0.92078 0.0
C126 C 0.34636 0.82942 0.92352 0.0
O127 O 0.34493 0.82401 0.93248 0.0
C128 C 0.30677 0.84756 0.94475 0.0
C129 C 0.26851 0.84676 0.92967 0.0
O130 O 0.26791 0.84752 0.93992 0.0
O131 O 0.27577 0.84063 0.92566 0.0
O132 O 0.39859 0.95098 0.30094 0.0
Cd133 Cd 0.41161 0.96559 0.30263 0.0
O134 O 0.40981 0.93904 0.30744 0.0
Cd135 Cd 0.41467 0.92331 0.31367 0.0
O136 O 0.4222 0.90976 0.32191 0.0
C137 C 0.42996 0.91192 0.3282 0.0
O138 O 0.43291 0.92201 0.32929 0.0
C139 C 0.40063 0.94132 0.30355 0.0
C140 C 0.40479 0.98112 0.31729 0.0
O141 O 0.40127 0.98102 0.30762 0.0
O142 O 0.41161 0.97392 0.32007 0.0
O143 O 0.29833 0.15021 0.55573 0.0
Cd144 Cd 0.28681 0.16443 0.56287 0.0
O145 O 0.31126 0.15789 0.56486 0.0
Cd146 Cd 0.32775 0.16002 0.57056 0.0
O147 O 0.34228 0.16191 0.58018 0.0
C148 C 0.34939 0.16883 0.57778 0.0
O149 O 0.34807 0.17472 0.56911 0.0
C150 C 0.30805 0.15026 0.55886 0.0
C151 C 0.27088 0.15573 0.57601 0.0
O152 O 0.26893 0.15807 0.56617 0.0
O153 O 0.28031 0.15764 0.57968 0.0
O154 O 0.09812 0.05093 0.80691 0.0
Cd155 Cd 0.08386 0.03974 0.81445 0.0
O156 O 0.08928 0.06479 0.81312 0.0
Cd157 Cd 0.08643 0.08146 0.81795 0.0
O158 O 0.07892 0.09516 0.82598 0.0
C159 C 0.07194 0.0928 0.83305 0.0
O160 O 0.06994 0.0826 0.83495 0.0
C161 C 0.09743 0.06103 0.80823 0.0
C162 C 0.09257 0.02308 0.82664 0.0
O163 O 0.0898 0.02157 0.81683 0.0
O164 O 0.09109 0.03242 0.83072 0.0
O165 O 0.20113 0.84528 0.05426 0.0
Cd166 Cd 0.21211 0.83145 0.06285 0.0
O167 O 0.18744 0.83802 0.0626 0.0
Cd168 Cd 0.17086 0.83776 0.06843 0.0
O169 O 0.15611 0.83533 0.07758 0.0
C170 C 0.14826 0.82998 0.07383 0.0
O171 O 0.14892 0.82615 0.06401 0.0
C172 C 0.19114 0.84522 0.05637 0.0
C173 C 0.22842 0.8406 0.07521 0.0
O174 O 0.23023 0.83741 0.06558 0.0
O175 O 0.21893 0.83938 0.07902 0.0
O176 O 0.19573 0.40576 0.04731 0.0
Cd177 Cd 0.18828 0.41951 0.03541 0.0
O178 O 0.18103 0.40811 0.0566 0.0
Cd179 Cd 0.16877 0.40618 0.06912 0.0
O180 O 0.1611 0.41012 0.08442 0.0
C181 C 0.16444 0.41862 0.089 0.0
O182 O 0.17192 0.42435 0.0842 0.0
C183 C 0.19008 0.40344 0.0555 0.0
C184 C 0.17635 0.41072 0.01857 0.0
O185 O 0.18624 0.41334 0.01728 0.0
O186 O 0.17211 0.41226 0.02783 0.0
O187 O 0.69633 0.08963 0.95541 0.0
Cd188 Cd 0.68838 0.07697 0.96813 0.0
O189 O 0.68061 0.08878 0.94766 0.0
Cd190 Cd 0.66773 0.09213 0.9362 0.0
O191 O 0.65958 0.08793 0.92128 0.0
C192 C 0.65693 0.07813 0.9201 0.0
O193 O 0.65844 0.07148 0.92818 0.0
C194 C 0.69015 0.0925 0.94781 0.0
C195 C 0.67564 0.08773 0.98309 0.0
O196 O 0.68533 0.08502 0.98535 0.0
O197 O 0.67197 0.08531 0.97378 0.0
O198 O 0.15128 0.44764 0.20018 0.0
Cd199 Cd 0.16417 0.44371 0.21443 0.0
O200 O 0.15996 0.438 0.18823 0.0
Cd201 Cd 0.16193 0.42986 0.17274 0.0
O202 O 0.16593 0.42062 0.15836 0.0
C203 C 0.17357 0.42361 0.15227 0.0
O204 O 0.17879 0.43248 0.15463 0.0
C205 C 0.15203 0.44397 0.19067 0.0
C206 C 0.15436 0.4307 0.2298 0.0
O207 O 0.15307 0.44092 0.22985 0.0
O208 O 0.16051 0.42659 0.22262 0.0
O209 O 0.80752 0.90243 0.45234 0.0
Cd210 Cd 0.81519 0.91622 0.46404 0.0
O211 O 0.81604 0.91033 0.43914 0.0
Cd212 Cd 0.82101 0.91315 0.4225 0.0
O213 O 0.82928 0.9184 0.40794 0.0
C214 C 0.82726 0.92762 0.40402 0.0
O215 O 0.81985 0.93358 0.40863 0.0
C216 C 0.81014 0.90267 0.44247 0.0
C217 C 0.82975 0.90692 0.47833 0.0
O218 O 0.82 0.90872 0.48112 0.0
O219 O 0.83266 0.90969 0.46884 0.0
O220 O 0.84828 0.05728 0.20105 0.0
Cd221 Cd 0.83416 0.06478 0.21245 0.0
O222 O 0.84044 0.06565 0.18772 0.0
Cd223 Cd 0.83795 0.07054 0.17102 0.0
O224 O 0.83322 0.07877 0.15627 0.0
C225 C 0.82363 0.07784 0.15289 0.0
O226 O 0.81697 0.07157 0.15818 0.0
C227 C 0.84815 0.0599 0.19119 0.0
C228 C 0.84315 0.07709 0.22888 0.0
O229 O 0.84033 0.06732 0.23053 0.0
O230 O 0.84166 0.08106 0.21949 0.0
O231 O 0.30826 0.59935 0.54742 0.0
Cd232 Cd 0.3151 0.58407 0.53711 0.0
O233 O 0.31556 0.59175 0.56151 0.0
Cd234 Cd 0.31937 0.58965 0.57857 0.0
O235 O 0.32605 0.58422 0.5939 0.0
C236 C 0.33418 0.58897 0.59785 0.0
O237 O 0.3381 0.59738 0.5928 0.0
C238 C 0.3104 0.59956 0.5574 0.0
C239 C 0.32639 0.59066 0.51888 0.0
O240 O 0.31641 0.58816 0.51833 0.0
O241 O 0.33104 0.59 0.52805 0.0
O242 O 0.15616 0.55225 0.29973 0.0
Cd243 Cd 0.16989 0.5606 0.28842 0.0
O244 O 0.15704 0.56715 0.30895 0.0
Cd245 Cd 0.15373 0.57961 0.32098 0.0
O246 O 0.1559 0.58927 0.3355 0.0
C247 C 0.16335 0.58641 0.34189 0.0
O248 O 0.16915 0.57794 0.33941 0.0
C249 C 0.15298 0.55783 0.30767 0.0
C250 C 0.16068 0.57263 0.2719 0.0
O251 O 0.16385 0.56296 0.27028 0.0
O252 O 0.16185 0.57661 0.28134 0.0
O253 O 0.34784 0.44856 0.79917 0.0
Cd254 Cd 0.33563 0.44334 0.78471 0.0
O255 O 0.34488 0.43344 0.80764 0.0
Cd256 Cd 0.34647 0.42047 0.81946 0.0
O257 O 0.34328 0.41036 0.83347 0.0
C258 C 0.33559 0.41317 0.83959 0.0
O259 O 0.33011 0.42187 0.83714 0.0
C260 C 0.34975 0.44244 0.80711 0.0
C261 C 0.34604 0.42915 0.77083 0.0
O262 O 0.34739 0.43933 0.77005 0.0
O263 O 0.33966 0.42563 0.77812 0.0
O264 O 0.9344 0.83841 0.60015 0.0
Cd265 Cd 0.94312 0.85332 0.59076 0.0
O266 O 0.93294 0.82873 0.58546 0.0
Cd267 Cd 0.93658 0.84241 0.57508 0.0
O268 O 0.92852 0.85511 0.56602 0.0
C269 C 0.92319 0.86198 0.57139 0.0
O270 O 0.9237 0.86161 0.58194 0.0
C271 C 0.93181 0.82964 0.59559 0.0
C272 C 0.96547 0.85189 0.59202 0.0
O273 O 0.96007 0.85721 0.599 0.0
O274 O 0.96027 0.84726 0.58443 0.0
O275 O 0.9162 0.18433 0.34446 0.0
Cd276 Cd 0.9022 0.19359 0.33427 0.0
O277 O 0.92577 0.18083 0.33003 0.0
Cd278 Cd 0.91231 0.18429 0.31931 0.0
O279 O 0.89918 0.17598 0.3111 0.0
C280 C 0.89183 0.17196 0.31694 0.0
O281 O 0.89203 0.1739 0.32732 0.0
C282 C 0.92478 0.18072 0.34021 0.0
C283 C 0.90487 0.21582 0.33576 0.0
O284 O 0.89884 0.21072 0.34239 0.0
O285 O 0.90953 0.21038 0.32836 0.0
O286 O 0.56765 0.16328 0.1008 0.0
Cd287 Cd 0.55891 0.14847 0.09127 0.0
O288 O 0.5678 0.17395 0.08672 0.0
Cd289 Cd 0.56394 0.16053 0.0761 0.0
O290 O 0.57111 0.14629 0.06875 0.0
C291 C 0.57619 0.14728 0.05994 0.0
O292 O 0.57598 0.15663 0.05502 0.0
C293 C 0.5696 0.17245 0.09668 0.0
C294 C 0.53662 0.15111 0.09111 0.0
O295 O 0.54127 0.14567 0.09852 0.0
O296 O 0.54252 0.15522 0.08374 0.0
O297 O 0.58909 0.81932 0.85351 0.0
Cd298 Cd 0.60444 0.80998 0.84552 0.0
O299 O 0.57944 0.81835 0.83874 0.0
Cd300 Cd 0.5936 0.81427 0.82921 0.0
O301 O 0.60745 0.82216 0.82187 0.0
C302 C 0.60627 0.82662 0.81275 0.0
O303 O 0.59713 0.82529 0.80763 0.0
C304 C 0.58022 0.82083 0.84863 0.0
C305 C 0.60153 0.78773 0.84631 0.0
O306 O 0.60651 0.79271 0.85383 0.0
O307 O 0.59797 0.79329 0.8384 0.0
O308 O 0.9344 0.15971 0.89873 0.0
Cd309 Cd 0.94403 0.1467 0.90987 0.0
O310 O 0.93224 0.17106 0.91208 0.0
Cd311 Cd 0.93627 0.15889 0.92407 0.0
O312 O 0.92803 0.14715 0.93421 0.0
C313 C 0.92281 0.1507 0.94224 0.0
O314 O 0.92359 0.16097 0.94459 0.0
C315 C 0.93128 0.16883 0.90214 0.0
C316 C 0.96625 0.1496 0.90824 0.0
O317 O 0.96125 0.1431 0.902 0.0
O318 O 0.96071 0.1547 0.91528 0.0
O319 O 0.59261 0.1835 0.64365 0.0
Cd320 Cd 0.60734 0.19212 0.65343 0.0
O321 O 0.58186 0.18402 0.65766 0.0
Cd322 Cd 0.595 0.18729 0.6688 0.0
O323 O 0.60615 0.17884 0.6794 0.0
C324 C 0.60258 0.1754 0.68833 0.0
O325 O 0.59276 0.17805 0.69118 0.0
C326 C 0.58336 0.18195 0.64775 0.0
C327 C 0.6043 0.21435 0.65459 0.0
O328 O 0.60971 0.21012 0.64691 0.0
O329 O 0.60041 0.20806 0.66175 0.0
O330 O 0.56331 0.83903 0.39931 0.0
Cd331 Cd 0.55458 0.85345 0.40944 0.0
O332 O 0.56318 0.82768 0.41283 0.0
Cd333 Cd 0.55935 0.84058 0.42409 0.0
O334 O 0.56747 0.85374 0.4324 0.0
C335 C 0.57229 0.8518 0.4412 0.0
O336 O 0.57123 0.84222 0.44552 0.0
C337 C 0.56514 0.82966 0.40299 0.0
C338 C 0.53221 0.85152 0.40884 0.0
O339 O 0.53726 0.85714 0.40183 0.0
O340 O 0.53776 0.84685 0.41615 0.0
O341 O 0.90893 0.81823 0.1475 0.0
Cd342 Cd 0.89363 0.80928 0.15596 0.0
O343 O 0.91787 0.81882 0.16272 0.0
Cd344 Cd 0.90372 0.81537 0.17255 0.0
O345 O 0.8916 0.82343 0.1824 0.0
C346 C 0.88374 0.82795 0.1777 0.0
O347 O 0.8827 0.82666 0.16726 0.0
C348 C 0.91752 0.82036 0.15261 0.0
C349 C 0.89638 0.78701 0.1554 0.0
O350 O 0.90013 0.79264 0.16318 0.0
O351 O 0.89126 0.79194 0.14794 0.0
O352 O 0.59301 0.94156 0.82783 0.0
Cd353 Cd 0.58252 0.95445 0.83834 0.0
O354 O 0.57864 0.93624 0.81905 0.0
Cd355 Cd 0.56797 0.94192 0.83178 0.0
O356 O 0.56094 0.93501 0.84632 0.0
C357 C 0.55309 0.92856 0.84525 0.0
O358 O 0.54887 0.92733 0.83564 0.0
C359 C 0.5888 0.93625 0.82016 0.0
C360 C 0.59431 0.97318 0.84183 0.0
O361 O 0.58981 0.97136 0.83275 0.0
O362 O 0.59316 0.96624 0.84935 0.0
O363 O 0.8161 0.83411 0.56776 0.0
Cd364 Cd 0.80428 0.8213 0.57681 0.0
O365 O 0.8251 0.82166 0.5591 0.0
Cd366 Cd 0.81995 0.80929 0.57044 0.0
O367 O 0.82635 0.80159 0.58487 0.0
C368 C 0.82664 0.80709 0.59348 0.0
O369 O 0.82209 0.81662 0.59352 0.0
C370 C 0.82297 0.83154 0.56066 0.0
C371 C 0.7858 0.83219 0.58323 0.0
O372 O 0.78693 0.82892 0.57353 0.0
O373 O 0.7933 0.83012 0.58999 0.0
O374 O 0.90292 0.06279 0.33319 0.0
Cd375 Cd 0.91356 0.05386 0.34709 0.0
O376 O 0.91712 0.06727 0.32372 0.0
Cd377 Cd 0.92811 0.06374 0.33693 0.0
O378 O 0.93616 0.07203 0.35016 0.0
C379 C 0.93017 0.07601 0.35742 0.0
O380 O 0.9198 0.07407 0.357 0.0
C381 C 0.90695 0.06689 0.32474 0.0
C382 C 0.91231 0.03153 0.3452 0.0
O383 O 0.90573 0.03674 0.35118 0.0
O384 O 0.91951 0.03691 0.34015 0.0
O385 O 0.68511 0.15133 0.08573 0.0
Cd386 Cd 0.69445 0.16141 0.09977 0.0
O387 O 0.68388 0.16541 0.07514 0.0
Cd388 Cd 0.68766 0.17656 0.08816 0.0
O389 O 0.67961 0.18638 0.10032 0.0
C390 C 0.67515 0.19506 0.09729 0.0
O391 O 0.6765 0.19819 0.08729 0.0
C392 C 0.68257 0.15539 0.07669 0.0
C393 C 0.71668 0.16037 0.09675 0.0
O394 O 0.71103 0.16774 0.09228 0.0
O395 O 0.7118 0.15355 0.10274 0.0
O396 O 0.59492 0.06515 0.66229 0.0
Cd397 Cd 0.58406 0.05606 0.6487 0.0
O398 O 0.58155 0.06645 0.67375 0.0
Cd399 Cd 0.5697 0.06284 0.66131 0.0
O400 O 0.55982 0.07139 0.64957 0.0
C401 C 0.55176 0.07662 0.65307 0.0
O402 O 0.54923 0.0757 0.66328 0.0
C403 C 0.59147 0.06768 0.67158 0.0
C404 C 0.58595 0.0338 0.65091 0.0
O405 O 0.59227 0.03909 0.64473 0.0
O406 O 0.57868 0.03906 0.65597 0.0
O407 O 0.68333 0.84817 0.41222 0.0
Cd408 Cd 0.69257 0.83967 0.39712 0.0
O409 O 0.68352 0.83338 0.42187 0.0
Cd410 Cd 0.68722 0.82343 0.40789 0.0
O411 O 0.67846 0.81458 0.3955 0.0
C412 C 0.67412 0.80571 0.39813 0.0
O413 O 0.67604 0.80183 0.40777 0.0
C414 C 0.68151 0.84337 0.42107 0.0
C415 C 0.71482 0.84168 0.39939 0.0
O416 O 0.70935 0.84865 0.39412 0.0
O417 O 0.70974 0.83373 0.40353 0.0
O418 O 0.90282 0.93414 0.16729 0.0
Cd419 Cd 0.91358 0.94256 0.15317 0.0
O420 O 0.91661 0.9315 0.17799 0.0
Cd421 Cd 0.92801 0.93511 0.16513 0.0
O422 O 0.93638 0.92791 0.15147 0.0
C423 C 0.94522 0.92302 0.15302 0.0
O424 O 0.94956 0.92337 0.16264 0.0
C425 C 0.90653 0.93105 0.17631 0.0
C426 C 0.9113 0.96488 0.15369 0.0
O427 O 0.90514 0.95903 0.14786 0.0
O428 O 0.91858 0.96014 0.15923 0.0
O429 O 0.8121 0.14792 0.915 0.0
Cd430 Cd 0.80241 0.15834 0.90145 0.0
O431 O 0.81545 0.16208 0.92499 0.0
Cd432 Cd 0.81139 0.17322 0.91203 0.0
O433 O 0.81946 0.18245 0.89944 0.0
C434 C 0.82428 0.19105 0.90213 0.0
O435 O 0.82326 0.19449 0.91206 0.0
C436 C 0.81582 0.15195 0.92363 0.0
C437 C 0.78019 0.15658 0.9043 0.0
O438 O 0.7853 0.1501 0.89813 0.0
O439 O 0.78561 0.16393 0.90907 0.0
O440 O 0.83957 0.60282 0.93319 0.0
Cd441 Cd 0.85376 0.59293 0.94253 0.0
O442 O 0.82884 0.58884 0.93216 0.0
Cd443 Cd 0.84195 0.57797 0.93641 0.0
O444 O 0.85612 0.57035 0.92939 0.0
C445 C 0.855 0.56159 0.92427 0.0
O446 O 0.84554 0.55688 0.92435 0.0
C447 C 0.8305 0.59882 0.93066 0.0
C448 C 0.84993 0.59265 0.96465 0.0
O449 O 0.85577 0.59998 0.96036 0.0
O450 O 0.846 0.58541 0.95847 0.0
O451 O 0.3269 0.91161 0.06523 0.0
Cd452 Cd 0.33904 0.92422 0.05631 0.0
O453 O 0.33982 0.90005 0.06858 0.0
Cd454 Cd 0.35265 0.91138 0.06468 0.0
O455 O 0.36482 0.92131 0.07253 0.0
C456 C 0.36212 0.93041 0.07632 0.0
O457 O 0.35236 0.93397 0.07441 0.0
C458 C 0.32989 0.90251 0.06879 0.0
C459 C 0.34129 0.91908 0.03457 0.0
O460 O 0.34759 0.91508 0.04167 0.0
O461 O 0.33397 0.92559 0.03778 0.0
O462 O 0.8512 0.58637 0.81523 0.0
Cd463 Cd 0.84086 0.60043 0.8062 0.0
O464 O 0.83749 0.57525 0.81582 0.0
Cd465 Cd 0.82604 0.58803 0.81208 0.0
O466 O 0.81612 0.60013 0.82004 0.0
C467 C 0.8076 0.59699 0.82473 0.0
O468 O 0.8047 0.58689 0.82365 0.0
C469 C 0.84742 0.57712 0.81742 0.0
C470 C 0.84109 0.59744 0.78394 0.0
O471 O 0.84813 0.60337 0.78859 0.0
O472 O 0.83391 0.593 0.78984 0.0
O473 O 0.16493 0.09948 0.56176 0.0
Cd474 Cd 0.15161 0.08859 0.55228 0.0
O475 O 0.17498 0.08551 0.5657 0.0
Cd476 Cd 0.16229 0.07402 0.5618 0.0
O477 O 0.15037 0.06424 0.57021 0.0
C478 C 0.15373 0.05601 0.57525 0.0
O479 O 0.16388 0.05329 0.57423 0.0
C480 C 0.17354 0.09564 0.56571 0.0
C481 C 0.15463 0.08994 0.53007 0.0
O482 O 0.14826 0.09639 0.53498 0.0
O483 O 0.15949 0.0828 0.53568 0.0
O484 O 0.15188 0.91355 0.8155 0.0
Cd485 Cd 0.16252 0.89959 0.80664 0.0
O486 O 0.16512 0.92522 0.81604 0.0
Cd487 Cd 0.17674 0.91269 0.81204 0.0
O488 O 0.18512 0.899 0.81915 0.0
C489 C 0.19338 0.90075 0.8249 0.0
O490 O 0.19716 0.91061 0.8254 0.0
C491 C 0.15528 0.92295 0.81767 0.0
C492 C 0.16078 0.90131 0.78433 0.0
O493 O 0.15432 0.89536 0.78974 0.0
O494 O 0.16811 0.90636 0.7895 0.0
O495 O 0.66772 0.40518 0.43613 0.0
Cd496 Cd 0.65357 0.41561 0.44491 0.0
O497 O 0.67673 0.41948 0.43101 0.0
Cd498 Cd 0.66337 0.43022 0.43483 0.0
O499 O 0.64932 0.43765 0.42737 0.0
C500 C 0.65067 0.44599 0.42163 0.0
O501 O 0.66027 0.45042 0.42136 0.0
C502 C 0.67597 0.4093 0.43173 0.0
C503 C 0.65478 0.41365 0.46724 0.0
O504 O 0.64896 0.40724 0.46164 0.0
O505 O 0.65996 0.42102 0.46225 0.0
O506 O 0.84514 0.41755 0.68389 0.0
Cd507 Cd 0.83414 0.40377 0.69255 0.0
O508 O 0.83115 0.42733 0.67936 0.0
Cd509 Cd 0.81981 0.41434 0.68268 0.0
O510 O 0.81067 0.40159 0.67476 0.0
C511 C 0.81579 0.39341 0.6714 0.0
O512 O 0.82606 0.39258 0.67375 0.0
C513 C 0.8413 0.42613 0.67985 0.0
C514 C 0.83667 0.40441 0.71484 0.0
O515 O 0.84261 0.39837 0.70897 0.0
O516 O 0.82949 0.4101 0.71013 0.0
O517 O 0.65004 0.58726 0.18326 0.0
Cd518 Cd 0.66067 0.60161 0.19151 0.0
O519 O 0.66298 0.57529 0.18429 0.0
Cd520 Cd 0.67478 0.58778 0.18783 0.0
O521 O 0.68429 0.60036 0.18012 0.0
C522 C 0.69313 0.59777 0.17568 0.0
O523 O 0.69665 0.58789 0.17685 0.0
C524 C 0.6533 0.57764 0.182 0.0
C525 C 0.65988 0.60031 0.21391 0.0
O526 O 0.65307 0.60599 0.20866 0.0
O527 O 0.6671 0.59531 0.20854 0.0
O528 O 0.54651 0.69188 0.90335 0.0
Cd529 Cd 0.53607 0.68175 0.91654 0.0
O530 O 0.56059 0.6833 0.90951 0.0
Cd531 Cd 0.57729 0.67781 0.90892 0.0
O532 O 0.59216 0.66865 0.91055 0.0
C533 C 0.59907 0.67117 0.91764 0.0
O534 O 0.59732 0.6797 0.92363 0.0
C535 C 0.55655 0.69003 0.90298 0.0
C536 C 0.52021 0.66956 0.90643 0.0
O537 O 0.51804 0.6788 0.91045 0.0
O538 O 0.52987 0.66607 0.90724 0.0
O539 O 0.55401 0.2994 0.15668 0.0
Cd540 Cd 0.56195 0.28742 0.17008 0.0
O541 O 0.56845 0.309 0.15927 0.0
Cd542 Cd 0.5808 0.32147 0.15772 0.0
O543 O 0.58985 0.33586 0.16211 0.0
C544 C 0.58661 0.34096 0.17035 0.0
O545 O 0.57814 0.33734 0.17553 0.0
C546 C 0.55951 0.30771 0.15444 0.0
C547 C 0.57426 0.27139 0.16037 0.0
O548 O 0.56454 0.26958 0.16327 0.0
O549 O 0.57816 0.28078 0.16206 0.0
O550 O 0.95305 0.307 0.40394 0.0
Cd551 Cd 0.96315 0.31578 0.41831 0.0
O552 O 0.93878 0.31511 0.41031 0.0
Cd553 Cd 0.92213 0.32072 0.40954 0.0
O554 O 0.90701 0.32954 0.41085 0.0
C555 C 0.90112 0.32823 0.41909 0.0
O556 O 0.90412 0.32121 0.4264 0.0
C557 C 0.94304 0.30894 0.40336 0.0
C558 C 0.98027 0.3276 0.40998 0.0
O559 O 0.98166 0.31801 0.41348 0.0
O560 O 0.97079 0.3316 0.41044 0.0
O561 O 0.94189 0.70077 0.65208 0.0
Cd562 Cd 0.93394 0.71265 0.66553 0.0
O563 O 0.9336 0.6876 0.66029 0.0
Cd564 Cd 0.92888 0.67091 0.66324 0.0
O565 O 0.92075 0.65612 0.66802 0.0
C566 C 0.92169 0.65272 0.6776 0.0
O567 O 0.92792 0.65802 0.68429 0.0
C568 C 0.93941 0.69087 0.65254 0.0
C569 C 0.92227 0.72892 0.65547 0.0
O570 O 0.93187 0.7306 0.65881 0.0
O571 O 0.91816 0.71959 0.65697 0.0
O572 O 0.54907 0.30252 0.59934 0.0
Cd573 Cd 0.53461 0.30678 0.58677 0.0
O574 O 0.56108 0.31191 0.59046 0.0
Cd575 Cd 0.57725 0.31804 0.58712 0.0
O576 O 0.59185 0.32675 0.58269 0.0
C577 C 0.59576 0.3257 0.57331 0.0
O578 O 0.59104 0.31908 0.56656 0.0
C579 C 0.5586 0.30609 0.5985 0.0
C580 C 0.51992 0.32046 0.59673 0.0
O581 O 0.5196 0.31027 0.59823 0.0
O582 O 0.52711 0.32422 0.59038 0.0
O583 O 0.94133 0.29765 0.84862 0.0
Cd584 Cd 0.93339 0.2872 0.834 0.0
O585 O 0.9331 0.31158 0.84167 0.0
Cd586 Cd 0.92881 0.3286 0.84044 0.0
O587 O 0.92117 0.34429 0.83869 0.0
C588 C 0.92253 0.34952 0.83003 0.0
O589 O 0.92883 0.34545 0.82258 0.0
C590 C 0.93895 0.30757 0.84905 0.0
C591 C 0.92188 0.26966 0.84191 0.0
O592 O 0.9316 0.26859 0.83867 0.0
O593 O 0.9176 0.27902 0.8414 0.0
O594 O 0.95252 0.6948 0.09688 0.0
Cd595 Cd 0.96345 0.6865 0.08284 0.0
O596 O 0.93978 0.68385 0.09171 0.0
Cd597 Cd 0.92367 0.67678 0.09155 0.0
O598 O 0.90886 0.66762 0.08945 0.0
C599 C 0.90335 0.66897 0.08097 0.0
O600 O 0.90658 0.67613 0.0739 0.0
C601 C 0.94303 0.6912 0.09804 0.0
C602 C 0.97981 0.6741 0.09183 0.0
O603 O 0.98158 0.68378 0.08876 0.0
O604 O 0.97034 0.67025 0.09053 0.0
O605 O 0.55252 0.70089 0.34556 0.0
Cd606 Cd 0.56143 0.7123 0.33229 0.0
O607 O 0.56618 0.69014 0.34319 0.0
Cd608 Cd 0.57652 0.67605 0.34532 0.0
O609 O 0.58435 0.66055 0.34286 0.0
C610 C 0.57975 0.65372 0.33681 0.0
O611 O 0.57031 0.6561 0.33271 0.0
C612 C 0.5573 0.69217 0.34787 0.0
C613 C 0.57354 0.72841 0.34209 0.0
O614 O 0.56398 0.73027 0.33872 0.0
O615 O 0.57739 0.71894 0.34077 0.0
O616 O 0.90427 0.54851 0.69589 0.0
Cd617 Cd 0.91722 0.53674 0.68697 0.0
O618 O 0.90566 0.55827 0.68136 0.0
Cd619 Cd 0.90286 0.57097 0.66944 0.0
O620 O 0.90536 0.58574 0.66022 0.0
C621 C 0.91307 0.5918 0.66311 0.0
O622 O 0.91897 0.58886 0.67137 0.0
C623 C 0.90154 0.55684 0.69064 0.0
C624 C 0.90672 0.52199 0.67375 0.0
O625 O 0.90969 0.51939 0.68327 0.0
O626 O 0.90883 0.53152 0.67044 0.0
O627 O 0.7015 0.65113 0.94387 0.0
Cd628 Cd 0.71241 0.66554 0.93617 0.0
O629 O 0.68831 0.65784 0.93436 0.0
Cd630 Cd 0.67181 0.65926 0.92842 0.0
O631 O 0.65731 0.66126 0.91877 0.0
C632 C 0.65006 0.66794 0.92143 0.0
O633 O 0.65122 0.67342 0.93039 0.0
C634 C 0.6918 0.65063 0.94072 0.0
C635 C 0.72922 0.65717 0.92393 0.0
O636 O 0.73074 0.66013 0.93369 0.0
O637 O 0.71977 0.6582 0.91996 0.0
O638 O 0.5931 0.4499 0.19779 0.0
Cd639 Cd 0.57939 0.46184 0.19035 0.0
O640 O 0.59073 0.44079 0.183 0.0
Cd641 Cd 0.59241 0.4288 0.17022 0.0
O642 O 0.5881 0.4141 0.16167 0.0
C643 C 0.57862 0.4106 0.1632 0.0
O644 O 0.57214 0.41608 0.1695 0.0
C645 C 0.59552 0.44184 0.192 0.0
C646 C 0.58859 0.47833 0.17824 0.0
O647 O 0.58587 0.47985 0.18806 0.0
O648 O 0.58697 0.46902 0.17415 0.0
O649 O 0.79695 0.34705 0.44107 0.0
Cd650 Cd 0.78673 0.33226 0.43313 0.0
O651 O 0.81057 0.34102 0.43176 0.0
Cd652 Cd 0.82713 0.34013 0.42583 0.0
O653 O 0.84181 0.3376 0.41655 0.0
C654 C 0.84921 0.33142 0.41994 0.0
O655 O 0.84811 0.32689 0.42942 0.0
C656 C 0.80673 0.34792 0.43827 0.0
C657 C 0.76869 0.33953 0.42195 0.0
O658 O 0.76798 0.33642 0.43175 0.0
O659 O 0.77795 0.33917 0.41743 0.0
O660 O 0.90384 0.45062 0.80703 0.0
Cd661 Cd 0.91786 0.46106 0.81595 0.0
O662 O 0.91184 0.43604 0.8128 0.0
Cd663 Cd 0.91327 0.41899 0.81695 0.0
O664 O 0.91773 0.40456 0.82594 0.0
C665 C 0.91639 0.40508 0.83606 0.0
O666 O 0.91218 0.41388 0.8401 0.0
C667 C 0.90407 0.44044 0.80781 0.0
C668 C 0.90845 0.47715 0.8284 0.0
O669 O 0.91196 0.47916 0.81892 0.0
O670 O 0.90958 0.46759 0.83206 0.0
O671 O 0.79879 0.65397 0.05812 0.0
Cd672 Cd 0.78865 0.66817 0.06714 0.0
O673 O 0.81318 0.66068 0.06571 0.0
Cd674 Cd 0.83 0.66053 0.07085 0.0
O675 O 0.84494 0.66341 0.07961 0.0
C676 C 0.85264 0.66868 0.07547 0.0
O677 O 0.85174 0.67206 0.0655 0.0
C678 C 0.80886 0.6536 0.05973 0.0
C679 C 0.77137 0.65962 0.07857 0.0
O680 O 0.7701 0.66336 0.06905 0.0
O681 O 0.78081 0.65995 0.08268 0.0
O682 O 0.59973 0.54814 0.30288 0.0
Cd683 Cd 0.58729 0.53375 0.30773 0.0
O684 O 0.5906 0.56041 0.31169 0.0
Cd685 Cd 0.58841 0.57651 0.31849 0.0
O686 O 0.58423 0.59143 0.32676 0.0
C687 C 0.57698 0.59752 0.32291 0.0
O688 O 0.57247 0.59486 0.31373 0.0
C689 C 0.59858 0.55784 0.30585 0.0
C690 C 0.59763 0.51885 0.32089 0.0
O691 O 0.59869 0.51857 0.31065 0.0
O692 O 0.59158 0.52613 0.32496 0.0
O693 O 0.70066 0.34596 0.55269 0.0
Cd694 Cd 0.71298 0.333 0.56082 0.0
O695 O 0.69153 0.3439 0.56754 0.0
Cd696 Cd 0.67926 0.34599 0.58003 0.0
O697 O 0.66468 0.3431 0.58943 0.0
C698 C 0.65846 0.33567 0.58616 0.0
O699 O 0.66124 0.33011 0.57763 0.0
C700 C 0.69248 0.34832 0.55833 0.0
C701 C 0.7285 0.34328 0.57331 0.0
O702 O 0.73055 0.34041 0.56362 0.0
O703 O 0.71913 0.34129 0.57709 0.0
O704 O 0.68417 0.90274 0.55265 0.0
Cd705 Cd 0.67055 0.91208 0.54199 0.0
O706 O 0.67502 0.90899 0.56629 0.0
Cd707 Cd 0.67101 0.91102 0.58329 0.0
O708 O 0.6638 0.91499 0.59877 0.0
C709 C 0.66743 0.92266 0.60444 0.0
O710 O 0.67592 0.92794 0.60103 0.0
C711 C 0.68299 0.90366 0.56275 0.0
C712 C 0.66279 0.90028 0.5246 0.0
O713 O 0.67051 0.907 0.52342 0.0
O714 O 0.65887 0.89901 0.53405 0.0
O715 O 0.19306 0.59467 0.451 0.0
Cd716 Cd 0.18527 0.58055 0.46222 0.0
O717 O 0.18402 0.58765 0.43767 0.0
Cd718 Cd 0.17835 0.58569 0.42113 0.0
O719 O 0.16987 0.58035 0.40671 0.0
C720 C 0.17259 0.5716 0.40218 0.0
O721 O 0.18081 0.56622 0.40608 0.0
C722 C 0.19031 0.59491 0.44117 0.0
C723 C 0.17277 0.58946 0.47856 0.0
O724 O 0.18258 0.58677 0.48025 0.0
O725 O 0.16885 0.58781 0.46918 0.0
O726 O 0.65026 0.9479 0.70425 0.0
Cd727 Cd 0.66426 0.93973 0.71533 0.0
O728 O 0.65121 0.93304 0.69484 0.0
Cd729 Cd 0.64756 0.9237 0.68045 0.0
O730 O 0.65162 0.916 0.66523 0.0
C731 C 0.65744 0.92135 0.65876 0.0
O732 O 0.66008 0.93125 0.66135 0.0
C733 C 0.64698 0.94219 0.69645 0.0
C734 C 0.65502 0.9256 0.73007 0.0
O735 O 0.65744 0.93525 0.73277 0.0
O736 O 0.65714 0.92259 0.72045 0.0
O737 O 0.30846 0.40379 0.95103 0.0
Cd738 Cd 0.31554 0.41821 0.96236 0.0
O739 O 0.3143 0.41314 0.93735 0.0
Cd740 Cd 0.31907 0.41663 0.92078 0.0
O741 O 0.32745 0.42438 0.90744 0.0
C742 C 0.33469 0.43108 0.91012 0.0
O743 O 0.33643 0.43275 0.9204 0.0
C744 C 0.30968 0.40476 0.94093 0.0
C745 C 0.32695 0.41021 0.97994 0.0
O746 O 0.31702 0.41285 0.98081 0.0
O747 O 0.33149 0.4114 0.97077 0.0
O748 O 0.34957 0.55735 0.69989 0.0
Cd749 Cd 0.33591 0.56589 0.71111 0.0
O750 O 0.34313 0.56697 0.68664 0.0
Cd751 Cd 0.3417 0.57269 0.67004 0.0
O752 O 0.3389 0.58182 0.6553 0.0
C753 C 0.3317 0.57892 0.64867 0.0
O754 O 0.3263 0.57004 0.6506 0.0
C755 C 0.35007 0.56032 0.69013 0.0
C756 C 0.34572 0.57805 0.72717 0.0
O757 O 0.34232 0.56851 0.72909 0.0
O758 O 0.34431 0.58189 0.71771 0.0
O759 O 0.80432 0.0937 0.04981 0.0
Cd760 Cd 0.81299 0.08017 0.03851 0.0
O761 O 0.819 0.09266 0.05936 0.0
Cd762 Cd 0.83125 0.09575 0.07169 0.0
O763 O 0.84069 0.09351 0.08636 0.0
C764 C 0.83771 0.08611 0.09275 0.0
O765 O 0.82922 0.08036 0.09019 0.0
C766 C 0.80971 0.09675 0.05793 0.0
C767 C 0.82485 0.08967 0.02203 0.0
O768 O 0.81527 0.08625 0.02037 0.0
O769 O 0.82881 0.08861 0.03148 0.0
O770 O 0.66895 0.05562 0.78955 0.0
Cd771 Cd 0.67881 0.06528 0.77558 0.0
O772 O 0.67529 0.06811 0.80022 0.0
Cd773 Cd 0.67662 0.07622 0.81581 0.0
O774 O 0.67791 0.08325 0.83187 0.0
C775 C 0.68459 0.07947 0.83862 0.0
O776 O 0.69068 0.07133 0.83576 0.0
C777 C 0.66974 0.05961 0.79891 0.0
C778 C 0.66527 0.07641 0.76166 0.0
O779 O 0.66891 0.0671 0.75918 0.0
O780 O 0.66797 0.08042 0.77076 0.0
O781 O 0.84574 0.9447 0.30011 0.0
Cd782 Cd 0.83255 0.93611 0.28836 0.0
O783 O 0.84421 0.93012 0.30978 0.0
Cd784 Cd 0.84707 0.91826 0.3225 0.0
O785 O 0.84441 0.90959 0.33756 0.0
C786 C 0.83622 0.91233 0.34302 0.0
O787 O 0.83 0.92002 0.33928 0.0
C788 C 0.84844 0.93935 0.30839 0.0
C789 C 0.84268 0.92324 0.27306 0.0
O790 O 0.8397 0.93284 0.27078 0.0
O791 O 0.84076 0.91969 0.28254 0.0
O792 O 0.43736 0.3351 0.09571 0.0
Cd793 Cd 0.44705 0.34773 0.08418 0.0
O794 O 0.43488 0.32357 0.08256 0.0
Cd795 Cd 0.43869 0.33541 0.07016 0.0
O796 O 0.43004 0.34599 0.05911 0.0
C797 C 0.42546 0.35426 0.06301 0.0
O798 O 0.42704 0.35656 0.07319 0.0
C799 C 0.43414 0.32595 0.09248 0.0
C800 C 0.46927 0.34524 0.08645 0.0
O801 O 0.46403 0.35195 0.09227 0.0
O802 O 0.46397 0.33977 0.07951 0.0
O803 O 0.41468 0.68156 0.84654 0.0
Cd804 Cd 0.39948 0.69012 0.83748 0.0
O805 O 0.42506 0.68165 0.83224 0.0
Cd806 Cd 0.41137 0.68567 0.82202 0.0
O807 O 0.39696 0.6783 0.81524 0.0
C808 C 0.39783 0.67278 0.80668 0.0
O809 O 0.40713 0.67269 0.80167 0.0
C810 C 0.42377 0.67972 0.84221 0.0
C811 C 0.40012 0.7124 0.84009 0.0
O812 O 0.4049 0.70783 0.83218 0.0
O813 O 0.395 0.7064 0.84672 0.0
O814 O 0.06574 0.66664 0.59642 0.0
Cd815 Cd 0.05679 0.65359 0.58479 0.0
O816 O 0.0735 0.65433 0.60641 0.0
Cd817 Cd 0.06949 0.64137 0.59527 0.0
O818 O 0.07674 0.63135 0.58279 0.0
C819 C 0.07867 0.63561 0.57371 0.0
O820 O 0.07527 0.64546 0.57193 0.0
C821 C 0.07149 0.66417 0.6045 0.0
C822 C 0.03457 0.65393 0.58791 0.0
O823 O 0.04062 0.64762 0.59336 0.0
O824 O 0.03907 0.66005 0.58094 0.0
O825 O 0.08755 0.31661 0.34832 0.0
Cd826 Cd 0.10043 0.30739 0.33669 0.0
O827 O 0.0752 0.31776 0.33576 0.0
Cd828 Cd 0.08684 0.31383 0.32322 0.0
O829 O 0.09864 0.32185 0.31299 0.0
C830 C 0.09512 0.32747 0.30521 0.0
O831 O 0.08477 0.32721 0.30311 0.0
C832 C 0.07806 0.31913 0.34549 0.0
C833 C 0.09899 0.28516 0.33951 0.0
O834 O 0.10551 0.29083 0.34512 0.0
O835 O 0.0932 0.29003 0.3325 0.0
O836 O 0.43212 0.66067 0.39647 0.0
Cd837 Cd 0.44039 0.64594 0.40649 0.0
O838 O 0.43247 0.67145 0.41045 0.0
Cd839 Cd 0.43541 0.65841 0.42185 0.0
O840 O 0.42727 0.64799 0.43344 0.0
C841 C 0.42218 0.63983 0.42997 0.0
O842 O 0.42288 0.63745 0.4197 0.0
C843 C 0.43062 0.66994 0.4005 0.0
C844 C 0.46275 0.64794 0.40631 0.0
O845 O 0.45784 0.64245 0.3991 0.0
O846 O 0.45707 0.65239 0.41366 0.0
O847 O 0.09066 0.68212 0.15136 0.0
Cd848 Cd 0.10463 0.69056 0.16233 0.0
O849 O 0.07848 0.68281 0.16412 0.0
Cd850 Cd 0.09075 0.68622 0.1762 0.0
O851 O 0.10275 0.6779 0.18596 0.0
C852 C 0.09947 0.67264 0.19408 0.0
O853 O 0.08928 0.67341 0.19678 0.0
C854 C 0.08101 0.68069 0.15445 0.0
C855 C 0.1036 0.71294 0.16075 0.0
O856 O 0.1095 0.70741 0.15436 0.0
O857 O 0.09823 0.70786 0.16793 0.0
O858 O 0.06684 0.33523 0.90135 0.0
Cd859 Cd 0.05814 0.34783 0.91363 0.0
O860 O 0.06896 0.32294 0.91384 0.0
Cd861 Cd 0.06575 0.3343 0.92686 0.0
O862 O 0.07375 0.34451 0.93872 0.0
C863 C 0.07789 0.35332 0.93558 0.0
O864 O 0.07632 0.35634 0.92558 0.0
C865 C 0.06966 0.32578 0.90404 0.0
C866 C 0.03584 0.34659 0.91147 0.0
O867 O 0.04138 0.35324 0.90587 0.0
O868 O 0.04089 0.34059 0.91817 0.0
O869 O 0.41166 0.31789 0.65106 0.0
Cd870 Cd 0.39646 0.30973 0.66044 0.0
O871 O 0.42145 0.31836 0.66577 0.0
Cd872 Cd 0.40778 0.31552 0.67645 0.0
O873 O 0.39631 0.32347 0.68715 0.0
C874 C 0.38728 0.32659 0.68352 0.0
O875 O 0.38469 0.32409 0.6736 0.0
C876 C 0.4206 0.31972 0.65567 0.0
C877 C 0.39848 0.28737 0.66073 0.0
O878 O 0.40263 0.29319 0.66815 0.0
O879 O 0.39327 0.29216 0.65322 0.0
O880 O 0.10654 0.43384 0.34197 0.0
Cd881 Cd 0.09759 0.44307 0.35684 0.0
O882 O 0.0921 0.43466 0.3318 0.0
Cd883 Cd 0.08161 0.4381 0.34544 0.0
O884 O 0.0716 0.42986 0.35728 0.0
C885 C 0.06263 0.42609 0.35416 0.0
O886 O 0.0594 0.42826 0.34434 0.0
C887 C 0.10202 0.43239 0.33291 0.0
C888 C 0.09733 0.46527 0.35338 0.0
O889 O 0.10493 0.46081 0.35872 0.0
O890 O 0.08984 0.45921 0.34973 0.0
O891 O 0.31188 0.34289 0.07914 0.0
Cd892 Cd 0.30265 0.33268 0.09316 0.0
O893 O 0.31877 0.32844 0.07169 0.0
Cd894 Cd 0.31491 0.3182 0.08542 0.0
O895 O 0.32296 0.31097 0.09925 0.0
C896 C 0.32525 0.317 0.10719 0.0
O897 O 0.32173 0.32695 0.10713 0.0
C898 C 0.31726 0.33856 0.0716 0.0
C899 C 0.2804 0.33546 0.09193 0.0
O900 O 0.28622 0.34161 0.09781 0.0
O901 O 0.28514 0.32796 0.08668 0.0
O902 O 0.40069 0.56275 0.83639 0.0
Cd903 Cd 0.41098 0.55393 0.85062 0.0
O904 O 0.41511 0.56621 0.8268 0.0
Cd905 Cd 0.42609 0.56251 0.83999 0.0
O906 O 0.43565 0.57054 0.85235 0.0
C907 C 0.43094 0.57385 0.8608 0.0
O908 O 0.42076 0.57138 0.86219 0.0
C909 C 0.40493 0.56636 0.82781 0.0
C910 C 0.40961 0.53157 0.84924 0.0
O911 O 0.40293 0.53697 0.85493 0.0
O912 O 0.41693 0.53678 0.84419 0.0
O913 O 0.18496 0.65525 0.58261 0.0
Cd914 Cd 0.19384 0.66713 0.59549 0.0
O915 O 0.18308 0.66781 0.57035 0.0
Cd916 Cd 0.18689 0.68038 0.58201 0.0
O917 O 0.17948 0.68995 0.59473 0.0
C918 C 0.17399 0.69815 0.59211 0.0
O919 O 0.1739 0.70112 0.58197 0.0
C920 C 0.18216 0.65803 0.57317 0.0
C921 C 0.21614 0.66565 0.59341 0.0
O922 O 0.21099 0.65962 0.59999 0.0
O923 O 0.21071 0.67245 0.58789 0.0
O924 O 0.09943 0.56599 0.1633 0.0
Cd925 Cd 0.08877 0.55767 0.14902 0.0
O926 O 0.08622 0.56568 0.17502 0.0
Cd927 Cd 0.07451 0.56231 0.16239 0.0
O928 O 0.06526 0.57053 0.14993 0.0
C929 C 0.05684 0.57559 0.15274 0.0
O930 O 0.05356 0.57474 0.16274 0.0
C931 C 0.09602 0.56759 0.17282 0.0
C932 C 0.08956 0.53528 0.15041 0.0
O933 O 0.09632 0.5405 0.14464 0.0
O934 O 0.08238 0.54068 0.15545 0.0
O935 O 0.18694 0.34337 0.9183 0.0
Cd936 Cd 0.1956 0.33336 0.90378 0.0
O937 O 0.18153 0.32876 0.92662 0.0
Cd938 Cd 0.18499 0.31843 0.91284 0.0
O939 O 0.17705 0.31024 0.89948 0.0
C940 C 0.1717 0.3018 0.90159 0.0
O941 O 0.17211 0.2979 0.9114 0.0
C942 C 0.18246 0.33895 0.92635 0.0
C943 C 0.21778 0.33682 0.90392 0.0
O944 O 0.2115 0.34277 0.89833 0.0
O945 O 0.21354 0.32918 0.90939 0.0
O946 O 0.39808 0.43074 0.66312 0.0
Cd947 Cd 0.40686 0.43907 0.64764 0.0
O948 O 0.41285 0.43076 0.67281 0.0
Cd949 Cd 0.42292 0.43423 0.65886 0.0
O950 O 0.43138 0.42694 0.64531 0.0
C951 C 0.44047 0.42257 0.64696 0.0
O952 O 0.44487 0.42355 0.65652 0.0
C953 C 0.4028 0.42901 0.67203 0.0
C954 C 0.40708 0.46138 0.64997 0.0
O955 O 0.41469 0.45556 0.65375 0.0
O956 O 0.39943 0.45664 0.64496 0.0
O957 O 0.31338 0.65863 0.41974 0.0
Cd958 Cd 0.30449 0.67015 0.40654 0.0
O959 O 0.31964 0.67222 0.42911 0.0
Cd960 Cd 0.31606 0.68396 0.41655 0.0
O961 O 0.32403 0.6936 0.40421 0.0
C962 C 0.3297 0.70151 0.40732 0.0
O963 O 0.32957 0.70406 0.41757 0.0
C964 C 0.31833 0.66214 0.42796 0.0
C965 C 0.28243 0.66597 0.40613 0.0
O966 O 0.28892 0.66093 0.39992 0.0
O967 O 0.2864 0.67306 0.41247 0.0
O968 O 0.32854 0.09087 0.43473 0.0
Cd969 Cd 0.34155 0.07872 0.44301 0.0
O970 O 0.31749 0.07785 0.43027 0.0
Cd971 Cd 0.32931 0.06525 0.43343 0.0
O972 O 0.34027 0.0541 0.42543 0.0
C973 C 0.3494 0.0575 0.42233 0.0
O974 O 0.35228 0.06731 0.42497 0.0
C975 C 0.31959 0.08784 0.43082 0.0
C976 C 0.34201 0.08178 0.46524 0.0
O977 O 0.34827 0.08708 0.459 0.0
O978 O 0.33561 0.07495 0.46093 0.0
O979 O 0.83303 0.4048 0.56436 0.0
Cd980 Cd 0.84748 0.41467 0.55543 0.0
O981 O 0.82373 0.41945 0.56766 0.0
Cd982 Cd 0.83741 0.42997 0.56439 0.0
O983 O 0.85034 0.43867 0.57252 0.0
C984 C 0.8581 0.43322 0.57633 0.0
O985 O 0.85844 0.42286 0.57431 0.0
C986 C 0.82449 0.40925 0.56779 0.0
C987 C 0.84533 0.41319 0.53314 0.0
O988 O 0.85105 0.40643 0.53839 0.0
O989 O 0.84071 0.42072 0.53845 0.0
O990 O 0.35299 0.08775 0.3186 0.0
Cd991 Cd 0.3443 0.10331 0.31035 0.0
O992 O 0.33795 0.07848 0.3185 0.0
Cd993 Cd 0.32779 0.09254 0.31567 0.0
O994 O 0.31664 0.10349 0.32371 0.0
C995 C 0.30722 0.10009 0.32578 0.0
O996 O 0.30437 0.09062 0.32207 0.0
C997 C 0.34803 0.07894 0.32015 0.0
C998 C 0.34492 0.1014 0.28799 0.0
O999 O 0.35232 0.10641 0.2931 0.0
O1000 O 0.33716 0.09739 0.29346 0.0
O1001 O 0.66134 0.59958 0.06849 0.0
Cd1002 Cd 0.64745 0.58898 0.0595 0.0
O1003 O 0.67285 0.58619 0.06889 0.0
Cd1004 Cd 0.66026 0.57451 0.06525 0.0
O1005 O 0.648 0.56469 0.07313 0.0
C1006 C 0.65086 0.55593 0.07754 0.0
O1007 O 0.66082 0.55266 0.07625 0.0
C1008 C 0.67072 0.59606 0.07055 0.0
C1009 C 0.64933 0.59082 0.0372 0.0
O1010 O 0.64332 0.59722 0.04258 0.0
O1011 O 0.6544 0.5835 0.04238 0.0
O1012 O 0.64923 0.4097 0.31342 0.0
Cd1013 Cd 0.65898 0.39554 0.3039 0.0
O1014 O 0.66351 0.42008 0.31382 0.0
Cd1015 Cd 0.67468 0.40705 0.31009 0.0
O1016 O 0.68602 0.39693 0.31889 0.0
C1017 C 0.68219 0.38947 0.32473 0.0
O1018 O 0.67181 0.38754 0.32424 0.0
C1019 C 0.65353 0.41872 0.31559 0.0
C1020 C 0.65861 0.39929 0.28175 0.0
O1021 O 0.65147 0.39339 0.28627 0.0
O1022 O 0.66598 0.40332 0.28772 0.0
O1023 O 0.1585 0.89481 0.93115 0.0
Cd1024 Cd 0.14308 0.9031 0.9401 0.0
O1025 O 0.16822 0.90949 0.93262 0.0
Cd1026 Cd 0.15423 0.91953 0.93597 0.0
O1027 O 0.14213 0.9293 0.92785 0.0
C1028 C 0.14507 0.93832 0.92406 0.0
O1029 O 0.15485 0.94172 0.9262 0.0
C1030 C 0.16747 0.89961 0.93009 0.0
C1031 C 0.14633 0.90367 0.96232 0.0
O1032 O 0.1496 0.91132 0.95626 0.0
O1033 O 0.14139 0.89579 0.95787 0.0
O1034 O 0.34763 0.91247 0.18532 0.0
Cd1035 Cd 0.33713 0.89812 0.19373 0.0
O1036 O 0.33382 0.92339 0.184 0.0
Cd1037 Cd 0.32247 0.91052 0.18767 0.0
O1038 O 0.31338 0.89787 0.17956 0.0
C1039 C 0.30476 0.90044 0.17473 0.0
O1040 O 0.30116 0.91032 0.17577 0.0
C1041 C 0.34383 0.92164 0.18285 0.0
C1042 C 0.33891 0.89873 0.2161 0.0
O1043 O 0.34537 0.89309 0.21039 0.0
O1044 O 0.33159 0.90408 0.21119 0.0
O1045 O 0.15108 0.0886 0.68411 0.0
Cd1046 Cd 0.16182 0.10241 0.69306 0.0
O1047 O 0.16513 0.07846 0.68072 0.0
Cd1048 Cd 0.17635 0.09157 0.68398 0.0
O1049 O 0.18495 0.10439 0.67559 0.0
C1050 C 0.1793 0.11179 0.67139 0.0
O1051 O 0.16889 0.11181 0.6732 0.0
C1052 C 0.15499 0.07984 0.68059 0.0
C1053 C 0.16121 0.0998 0.71534 0.0
O1054 O 0.15445 0.1059 0.71051 0.0
O1055 O 0.16831 0.09501 0.70961 0.0
O1056 O 0.08062 0.21096 0.3614 0.0
Cd1057 Cd 0.09198 0.21649 0.34633 0.0
O1058 O 0.09508 0.20463 0.36919 0.0
Cd1059 Cd 0.10448 0.19575 0.38113 0.0
O1060 O 0.11758 0.19028 0.39144 0.0
C1061 C 0.11846 0.18073 0.39499 0.0
O1062 O 0.11093 0.17369 0.39271 0.0
C1063 C 0.08498 0.20626 0.36936 0.0
C1064 C 0.09437 0.23876 0.34478 0.0
O1065 O 0.08676 0.23386 0.33983 0.0
O1066 O 0.10079 0.23309 0.35051 0.0
O1067 O 0.03936 0.83263 0.60977 0.0
Cd1068 Cd 0.03435 0.84436 0.59484 0.0
O1069 O 0.04656 0.84651 0.61789 0.0
Cd1070 Cd 0.05573 0.85446 0.63061 0.0
O1071 O 0.06237 0.86482 0.6431 0.0
C1072 C 0.07219 0.86761 0.64297 0.0
O1073 O 0.07846 0.86387 0.63533 0.0
C1074 C 0.04416 0.83657 0.61788 0.0
C1075 C 0.01212 0.84731 0.59407 0.0
O1076 O 0.01667 0.83977 0.58872 0.0
O1077 O 0.01812 0.8535 0.59971 0.0
O1078 O 0.41712 0.78704 0.86009 0.0
Cd1079 Cd 0.40451 0.78135 0.84613 0.0
O1080 O 0.40334 0.79252 0.86955 0.0
Cd1081 Cd 0.39515 0.80051 0.88295 0.0
O1082 O 0.38448 0.8071 0.89524 0.0
C1083 C 0.38036 0.81637 0.89402 0.0
O1084 O 0.38298 0.822 0.88548 0.0
C1085 C 0.41345 0.79137 0.86858 0.0
C1086 C 0.4029 0.75901 0.84468 0.0
O1087 O 0.40971 0.76424 0.83898 0.0
O1088 O 0.39687 0.76439 0.85108 0.0
O1089 O 0.46168 0.16888 0.10782 0.0
Cd1090 Cd 0.4676 0.1576 0.09287 0.0
O1091 O 0.45265 0.15507 0.11399 0.0
Cd1092 Cd 0.44297 0.14642 0.12588 0.0
O1093 O 0.435 0.13548 0.13708 0.0
C1094 C 0.43861 0.13441 0.14658 0.0
O1095 O 0.44687 0.14027 0.14956 0.0
C1096 C 0.45555 0.16484 0.11492 0.0
C1097 C 0.48996 0.15589 0.09198 0.0
O1098 O 0.48497 0.16324 0.08677 0.0
O1099 O 0.48434 0.14936 0.09764 0.0
O1100 O 0.08508 0.78752 0.14305 0.0
Cd1101 Cd 0.09744 0.78196 0.15727 0.0
O1102 O 0.09783 0.79764 0.13629 0.0
Cd1103 Cd 0.10501 0.80784 0.1239 0.0
O1104 O 0.11508 0.81652 0.11246 0.0
C1105 C 0.11461 0.81457 0.10245 0.0
O1106 O 0.10766 0.80742 0.09896 0.0
C1107 C 0.08824 0.79412 0.13592 0.0
C1108 C 0.09979 0.75964 0.15804 0.0
O1109 O 0.09259 0.76443 0.16365 0.0
O1110 O 0.10588 0.76544 0.15209 0.0
O1111 O 0.45727 0.83569 0.39055 0.0
Cd1112 Cd 0.46304 0.84778 0.40491 0.0
O1113 O 0.4581 0.84929 0.37947 0.0
Cd1114 Cd 0.45766 0.85858 0.36452 0.0
O1115 O 0.45098 0.86954 0.35256 0.0
C1116 C 0.45157 0.87957 0.35438 0.0
O1117 O 0.45667 0.88287 0.36303 0.0
C1118 C 0.4561 0.83938 0.38109 0.0
C1119 C 0.48542 0.84861 0.40653 0.0
O1120 O 0.47993 0.84182 0.41199 0.0
O1121 O 0.48029 0.85502 0.40029 0.0
O1122 O 0.41604 0.21271 0.6437 0.0
Cd1123 Cd 0.40408 0.21829 0.65825 0.0
O1124 O 0.40235 0.20479 0.63589 0.0
Cd1125 Cd 0.39484 0.1968 0.62217 0.0
O1126 O 0.38527 0.19046 0.60893 0.0
C1127 C 0.38223 0.1807 0.6089 0.0
O1128 O 0.38533 0.17438 0.61678 0.0
C1129 C 0.41227 0.20722 0.63595 0.0
C1130 C 0.40249 0.24065 0.65956 0.0
O1131 O 0.40956 0.23548 0.66499 0.0
O1132 O 0.39617 0.2352 0.6535 0.0
O1133 O 0.04127 0.1704 0.89101 0.0
Cd1134 Cd 0.0348 0.15997 0.90637 0.0
O1135 O 0.03981 0.1559 0.88116 0.0
Cd1136 Cd 0.04041 0.1457 0.86682 0.0
O1137 O 0.04768 0.13454 0.85538 0.0
C1138 C 0.04884 0.12483 0.85831 0.0
O1139 O 0.04507 0.12188 0.86773 0.0
C1140 C 0.04248 0.16576 0.88199 0.0
C1141 C 0.01259 0.15664 0.90612 0.0
O1142 O 0.01671 0.16475 0.91097 0.0
O1143 O 0.01901 0.15015 0.90133 0.0
O1144 O 0.3595 0.08031 0.21267 0.0
Cd1145 Cd 0.34518 0.09206 0.21927 0.0
O1146 O 0.36723 0.09473 0.20615 0.0
Cd1147 Cd 0.38054 0.10311 0.19829 0.0
O1148 O 0.39364 0.11291 0.19197 0.0
C1149 C 0.39418 0.11527 0.18205 0.0
O1150 O 0.38679 0.11153 0.17549 0.0
C1151 C 0.36719 0.0846 0.20748 0.0
C1152 C 0.34576 0.09517 0.2415 0.0
O1153 O 0.34013 0.08761 0.23732 0.0
O1154 O 0.35116 0.10121 0.23513 0.0
O1155 O 0.17202 0.11067 0.45517 0.0
Cd1156 Cd 0.16119 0.0954 0.46122 0.0
O1157 O 0.15777 0.12079 0.45701 0.0
Cd1158 Cd 0.14731 0.13502 0.457 0.0
O1159 O 0.13691 0.14694 0.4493 0.0
C1160 C 0.13121 0.14366 0.44147 0.0
O1161 O 0.13151 0.13343 0.43887 0.0
C1162 C 0.1676 0.11984 0.45426 0.0
C1163 C 0.15978 0.09372 0.48357 0.0
O1164 O 0.16723 0.08891 0.47832 0.0
O1165 O 0.15306 0.09942 0.47822 0.0
O1166 O 0.1393 0.91719 0.70966 0.0
Cd1167 Cd 0.15316 0.90452 0.71545 0.0
O1168 O 0.12822 0.90363 0.7082 0.0
Cd1169 Cd 0.11334 0.89473 0.70493 0.0
O1170 O 0.10034 0.88481 0.69851 0.0
C1171 C 0.10029 0.88243 0.68857 0.0
O1172 O 0.10797 0.8862 0.68238 0.0
C1173 C 0.13 0.91368 0.70728 0.0
C1174 C 0.15578 0.90407 0.73774 0.0
O1175 O 0.16126 0.91051 0.73187 0.0
O1176 O 0.149 0.89788 0.73305 0.0
O1177 O 0.33309 0.88917 0.96217 0.0
Cd1178 Cd 0.34502 0.90404 0.96694 0.0
O1179 O 0.34644 0.88135 0.95376 0.0
Cd1180 Cd 0.35391 0.86913 0.94355 0.0
O1181 O 0.36391 0.85668 0.93631 0.0
C1182 C 0.36698 0.85732 0.92659 0.0
O1183 O 0.36375 0.86551 0.92075 0.0
C1184 C 0.33667 0.88127 0.95677 0.0
C1185 C 0.34425 0.90864 0.98891 0.0
O1186 O 0.33786 0.91326 0.98227 0.0
O1187 O 0.351 0.90184 0.98512 0.0
O1188 O 0.35786 0.9152 0.29055 0.0
Cd1189 Cd 0.34301 0.9035 0.28519 0.0
O1190 O 0.36656 0.90103 0.29632 0.0
Cd1191 Cd 0.37949 0.89211 0.30423 0.0
O1192 O 0.39035 0.87989 0.3106 0.0
C1193 C 0.38833 0.87543 0.31957 0.0
O1194 O 0.37984 0.87858 0.32501 0.0
C1195 C 0.36624 0.91113 0.29474 0.0
C1196 C 0.34192 0.90151 0.26285 0.0
O1197 O 0.33661 0.90882 0.26781 0.0
O1198 O 0.3477 0.89512 0.26849 0.0
O1199 O 0.33284 0.1085 0.53927 0.0
Cd1200 Cd 0.34493 0.09413 0.53345 0.0
O1201 O 0.34668 0.11655 0.54666 0.0
Cd1202 Cd 0.3544 0.13019 0.55468 0.0
O1203 O 0.36433 0.14328 0.56089 0.0
C1204 C 0.36838 0.14274 0.57026 0.0
O1205 O 0.36613 0.13436 0.57629 0.0
C1206 C 0.33666 0.11628 0.54466 0.0
C1207 C 0.34347 0.08993 0.51144 0.0
O1208 O 0.33747 0.08501 0.51821 0.0
O1209 O 0.35013 0.09689 0.51511 0.0
O1210 O 0.14122 0.08273 0.78973 0.0
Cd1211 Cd 0.15675 0.09345 0.78427 0.0
O1212 O 0.13378 0.09748 0.7958 0.0
Cd1213 Cd 0.12178 0.1071 0.80435 0.0
O1214 O 0.11139 0.11971 0.81074 0.0
C1215 C 0.11047 0.12142 0.82078 0.0
O1216 O 0.1157 0.11519 0.82751 0.0
C1217 C 0.1333 0.0874 0.79419 0.0
C1218 C 0.15852 0.0951 0.76195 0.0
O1219 O 0.16325 0.08755 0.76712 0.0
O1220 O 0.15292 0.10185 0.76737 0.0
O1221 O 0.16782 0.88765 0.03628 0.0
Cd1222 Cd 0.15609 0.90247 0.03095 0.0
O1223 O 0.15365 0.87982 0.04318 0.0
Cd1224 Cd 0.14488 0.86761 0.05237 0.0
O1225 O 0.13375 0.85566 0.0588 0.0
C1226 C 0.13055 0.85606 0.06849 0.0
O1227 O 0.13436 0.86362 0.0748 0.0
C1228 C 0.16367 0.87967 0.04112 0.0
C1229 C 0.15318 0.90329 0.00871 0.0
O1230 O 0.16069 0.90865 0.0133 0.0
O1231 O 0.14706 0.89752 0.01467 0.0
O1232 O 0.20571 0.35994 0.07996 0.0
Cd1233 Cd 0.21169 0.34506 0.09133 0.0
O1234 O 0.20684 0.37039 0.09403 0.0
Cd1235 Cd 0.20651 0.38455 0.10458 0.0
O1236 O 0.20005 0.39648 0.11579 0.0
C1237 C 0.19062 0.39487 0.11941 0.0
O1238 O 0.18544 0.3862 0.1163 0.0
C1239 C 0.20452 0.3692 0.08411 0.0
C1240 C 0.23393 0.34198 0.09081 0.0
O1241 O 0.22772 0.33708 0.08421 0.0
O1242 O 0.2296 0.34841 0.0976 0.0
O1243 O 0.70571 0.13502 0.92199 0.0
Cd1244 Cd 0.71139 0.14974 0.91024 0.0
O1245 O 0.70612 0.12442 0.908 0.0
Cd1246 Cd 0.70544 0.11016 0.89766 0.0
O1247 O 0.70158 0.09979 0.88401 0.0
C1248 C 0.69248 0.10102 0.87951 0.0
O1249 O 0.68577 0.10811 0.88355 0.0
C1250 C 0.70425 0.12573 0.91799 0.0
C1251 C 0.73371 0.15197 0.909 0.0
O1252 O 0.72823 0.15707 0.91607 0.0
O1253 O 0.72861 0.14573 0.90257 0.0
O1254 O 0.10993 0.46081 0.16513 0.0
Cd1255 Cd 0.09504 0.46618 0.1535 0.0
O1256 O 0.11655 0.45123 0.15192 0.0
Cd1257 Cd 0.12766 0.43987 0.14438 0.0
O1258 O 0.13714 0.43079 0.13274 0.0
C1259 C 0.14456 0.43573 0.12776 0.0
O1260 O 0.14642 0.44584 0.13022 0.0
C1261 C 0.11727 0.4547 0.1615 0.0
C1262 C 0.09278 0.48852 0.15275 0.0
O1263 O 0.08768 0.48288 0.15971 0.0
O1264 O 0.09894 0.48356 0.14614 0.0
O1265 O 0.78941 0.86046 0.41982 0.0
Cd1266 Cd 0.78344 0.84546 0.40861 0.0
O1267 O 0.79701 0.86717 0.40543 0.0
Cd1268 Cd 0.8054 0.87952 0.39612 0.0
O1269 O 0.81257 0.89017 0.38416 0.0
C1270 C 0.82222 0.88885 0.38107 0.0
O1271 O 0.82797 0.88119 0.38551 0.0
C1272 C 0.79501 0.86779 0.41543 0.0
C1273 C 0.76119 0.84497 0.40561 0.0
O1274 O 0.76564 0.83977 0.41333 0.0
O1275 O 0.76729 0.85043 0.39936 0.0
O1276 O 0.89096 0.03993 0.16894 0.0
Cd1277 Cd 0.90611 0.03391 0.15796 0.0
O1278 O 0.88431 0.04761 0.15455 0.0
Cd1279 Cd 0.87192 0.056 0.1453 0.0
O1280 O 0.86095 0.06339 0.13377 0.0
C1281 C 0.86318 0.07246 0.12961 0.0
O1282 O 0.87198 0.07743 0.13269 0.0
C1283 C 0.88363 0.04552 0.16454 0.0
C1284 C 0.90725 0.01155 0.15637 0.0
O1285 O 0.91226 0.01662 0.16381 0.0
O1286 O 0.90167 0.01709 0.14971 0.0
O1287 O 0.29086 0.64358 0.57807 0.0
Cd1288 Cd 0.28503 0.65887 0.58898 0.0
O1289 O 0.29697 0.63613 0.59284 0.0
Cd1290 Cd 0.30395 0.62262 0.6017 0.0
O1291 O 0.30973 0.60935 0.61164 0.0
C1292 C 0.31927 0.60931 0.61529 0.0
O1293 O 0.32572 0.61731 0.61282 0.0
C1294 C 0.29566 0.63585 0.58271 0.0
C1295 C 0.26271 0.66113 0.58981 0.0
O1296 O 0.26827 0.66585 0.58254 0.0
O1297 O 0.26773 0.65526 0.59664 0.0
O1298 O 0.10885 0.54017 0.32961 0.0
Cd1299 Cd 0.09394 0.53329 0.34041 0.0
O1300 O 0.11902 0.53848 0.34385 0.0
Cd1301 Cd 0.13348 0.53877 0.35392 0.0
O1302 O 0.14579 0.54454 0.36506 0.0
C1303 C 0.14393 0.55336 0.36988 0.0
O1304 O 0.13478 0.55831 0.36802 0.0
C1305 C 0.11797 0.54133 0.33407 0.0
C1306 C 0.09574 0.51133 0.34467 0.0
O1307 O 0.09043 0.51475 0.33652 0.0
O1308 O 0.10021 0.51831 0.35078 0.0
O1309 O 0.39362 0.45608 0.83213 0.0
Cd1310 Cd 0.40825 0.46244 0.84358 0.0
O1311 O 0.38279 0.45818 0.8458 0.0
Cd1312 Cd 0.36792 0.45861 0.85521 0.0
O1313 O 0.35659 0.45287 0.86732 0.0
C1314 C 0.36014 0.4522 0.87687 0.0
O1315 O 0.37004 0.45533 0.87881 0.0
C1316 C 0.38422 0.45535 0.83607 0.0
C1317 C 0.40814 0.4848 0.84558 0.0
O1318 O 0.41364 0.48014 0.83821 0.0
O1319 O 0.40272 0.47886 0.85201 0.0
O1320 O 0.90204 0.7895 0.61159 0.0
Cd1321 Cd 0.88877 0.77683 0.61866 0.0
O1322 O 0.89887 0.80107 0.62456 0.0
Cd1323 Cd 0.88367 0.79319 0.62844 0.0
O1324 O 0.86735 0.79145 0.62217 0.0
C1325 C 0.86046 0.79869 0.62431 0.0
O1326 O 0.86314 0.80635 0.63107 0.0
C1327 C 0.90442 0.79818 0.61647 0.0
C1328 C 0.89903 0.7614 0.63124 0.0
O1329 O 0.89649 0.7594 0.62146 0.0
O1330 O 0.89655 0.77061 0.63513 0.0
O1331 O 0.96114 0.14891 0.36123 0.0
Cd1332 Cd 0.97178 0.13532 0.37064 0.0
O1333 O 0.94947 0.15007 0.37442 0.0
Cd1334 Cd 0.95513 0.13498 0.38137 0.0
O1335 O 0.95348 0.11771 0.37866 0.0
C1336 C 0.9445 0.11346 0.38105 0.0
O1337 O 0.93725 0.11943 0.38589 0.0
C1338 C 0.95299 0.15344 0.36543 0.0
C1339 C 0.9882 0.14516 0.38228 0.0
O1340 O 0.98996 0.14127 0.3729 0.0
O1341 O 0.9787 0.14431 0.38618 0.0
O1342 O 0.59852 0.21194 0.11696 0.0
Cd1343 Cd 0.61109 0.22369 0.12645 0.0
O1344 O 0.60251 0.19834 0.12749 0.0
Cd1345 Cd 0.6176 0.20561 0.13279 0.0
O1346 O 0.63473 0.20523 0.12887 0.0
C1347 C 0.63797 0.21044 0.12069 0.0
O1348 O 0.63108 0.21663 0.11561 0.0
C1349 C 0.59668 0.2024 0.12013 0.0
C1350 C 0.59963 0.23906 0.13808 0.0
O1351 O 0.60354 0.24128 0.1288 0.0
O1352 O 0.60133 0.22966 0.14193 0.0
O1353 O 0.53904 0.85053 0.86339 0.0
Cd1354 Cd 0.52612 0.86346 0.87061 0.0
O1355 O 0.55125 0.85501 0.87534 0.0
Cd1356 Cd 0.54288 0.87 0.87904 0.0
O1357 O 0.54018 0.88623 0.87287 0.0
C1358 C 0.54656 0.89378 0.87548 0.0
O1359 O 0.55403 0.89181 0.88268 0.0
C1360 C 0.54814 0.84887 0.86776 0.0
C1361 C 0.51081 0.85251 0.88274 0.0
O1362 O 0.50888 0.85522 0.87299 0.0
O1363 O 0.51988 0.85519 0.88682 0.0
O1364 O 0.90084 0.20581 0.88043 0.0
Cd1365 Cd 0.88772 0.21716 0.87122 0.0
O1366 O 0.897 0.19196 0.87017 0.0
Cd1367 Cd 0.88156 0.19882 0.86532 0.0
O1368 O 0.86452 0.1989 0.86965 0.0
C1369 C 0.86154 0.20449 0.87768 0.0
O1370 O 0.86864 0.21071 0.88241 0.0
C1371 C 0.90291 0.1963 0.87729 0.0
C1372 C 0.89829 0.23407 0.861 0.0
O1373 O 0.89401 0.23535 0.87029 0.0
O1374 O 0.89738 0.22486 0.85647 0.0
O1375 O 0.5415 0.15481 0.63199 0.0
Cd1376 Cd 0.52707 0.14257 0.6268 0.0
O1377 O 0.55326 0.14891 0.62022 0.0
Cd1378 Cd 0.54388 0.13438 0.61712 0.0
O1379 O 0.543 0.11737 0.62154 0.0
C1380 C 0.5381 0.11471 0.6301 0.0
O1381 O 0.53289 0.12216 0.63547 0.0
C1382 C 0.55063 0.15563 0.62746 0.0
C1383 C 0.51097 0.15423 0.61649 0.0
O1384 O 0.51151 0.15382 0.62677 0.0
O1385 O 0.51796 0.14898 0.61103 0.0
O1386 O 0.5949 0.79139 0.3817 0.0
Cd1387 Cd 0.60801 0.78015 0.37235 0.0
O1388 O 0.59886 0.80541 0.37172 0.0
Cd1389 Cd 0.61401 0.79849 0.36613 0.0
O1390 O 0.63136 0.7985 0.36902 0.0
C1391 C 0.63521 0.79247 0.37632 0.0
O1392 O 0.62874 0.7857 0.3812 0.0
C1393 C 0.59296 0.80101 0.37883 0.0
C1394 C 0.5977 0.76293 0.36239 0.0
O1395 O 0.60207 0.76182 0.37165 0.0
O1396 O 0.59828 0.77214 0.35782 0.0
O1397 O 0.96006 0.84812 0.14038 0.0
Cd1398 Cd 0.97521 0.85974 0.13577 0.0
O1399 O 0.95137 0.85034 0.12518 0.0
Cd1400 Cd 0.96128 0.8644 0.1217 0.0
O1401 O 0.96309 0.88089 0.12744 0.0
C1402 C 0.95598 0.88771 0.12471 0.0
O1403 O 0.94864 0.88478 0.11769 0.0
C1404 C 0.95228 0.84564 0.13421 0.0
C1405 C 0.99019 0.84785 0.12409 0.0
O1406 O 0.98999 0.84755 0.13439 0.0
O1407 O 0.9834 0.85392 0.11927 0.0
O1408 O 0.61117 0.90117 0.78741 0.0
Cd1409 Cd 0.62156 0.88794 0.77726 0.0
O1410 O 0.6235 0.90261 0.79996 0.0
Cd1411 Cd 0.63092 0.88759 0.7947 0.0
O1412 O 0.62791 0.87029 0.79435 0.0
C1413 C 0.63116 0.86441 0.80205 0.0
O1414 O 0.63721 0.86877 0.80953 0.0
C1415 C 0.61471 0.90582 0.7958 0.0
C1416 C 0.63324 0.89863 0.7614 0.0
O1417 O 0.62418 0.89421 0.75924 0.0
O1418 O 0.63685 0.89781 0.77102 0.0
O1419 O 0.85674 0.8603 0.53243 0.0
Cd1420 Cd 0.86916 0.87272 0.5236 0.0
O1421 O 0.85142 0.87265 0.54389 0.0
Cd1422 Cd 0.86569 0.88228 0.54053 0.0
O1423 O 0.8829 0.88112 0.54375 0.0
C1424 C 0.88609 0.88335 0.55319 0.0
O1425 O 0.8791 0.88735 0.56003 0.0
C1426 C 0.85038 0.8633 0.53988 0.0
C1427 C 0.85779 0.88477 0.5085 0.0
O1428 O 0.86303 0.87635 0.5057 0.0
O1429 O 0.85807 0.88758 0.5184 0.0
O1430 O 0.88645 0.09889 0.28867 0.0
Cd1431 Cd 0.8774 0.11227 0.27747 0.0
O1432 O 0.87263 0.09758 0.29959 0.0
Cd1433 Cd 0.86608 0.11274 0.29365 0.0
O1434 O 0.86948 0.12995 0.29455 0.0
C1435 C 0.86739 0.13469 0.30335 0.0
O1436 O 0.86235 0.12927 0.3109 0.0
C1437 C 0.88182 0.09427 0.29654 0.0
C1438 C 0.8654 0.10168 0.2618 0.0
O1439 O 0.87477 0.10539 0.25967 0.0
O1440 O 0.86161 0.1032 0.27126 0.0
O1441 O 0.65187 0.13526 0.03878 0.0
Cd1442 Cd 0.6389 0.12614 0.02718 0.0
O1443 O 0.6504 0.12296 0.05137 0.0
Cd1444 Cd 0.63536 0.11712 0.04444 0.0
O1445 O 0.6185 0.12186 0.04316 0.0
C1446 C 0.61194 0.11909 0.05048 0.0
O1447 O 0.61529 0.1125 0.05803 0.0
C1448 C 0.65504 0.13131 0.04767 0.0
C1449 C 0.65001 0.1129 0.01295 0.0
O1450 O 0.6468 0.12225 0.01005 0.0
O1451 O 0.64774 0.10972 0.02248 0.0
O1452 O 0.6128 0.09794 0.70882 0.0
Cd1453 Cd 0.62216 0.11093 0.72014 0.0
O1454 O 0.62489 0.09967 0.69606 0.0
Cd1455 Cd 0.63097 0.11483 0.70253 0.0
O1456 O 0.62901 0.13226 0.70127 0.0
C1457 C 0.62123 0.13674 0.70617 0.0
O1458 O 0.61526 0.13085 0.71259 0.0
C1459 C 0.61669 0.09488 0.69987 0.0
C1460 C 0.63653 0.10012 0.73347 0.0
O1461 O 0.62724 0.10294 0.73692 0.0
O1462 O 0.63909 0.10261 0.72381 0.0
O1463 O 0.64966 0.85795 0.46017 0.0
Cd1464 Cd 0.6355 0.86423 0.47224 0.0
O1465 O 0.64882 0.8723 0.4499 0.0
Cd1466 Cd 0.63372 0.87726 0.45735 0.0
O1467 O 0.61668 0.87324 0.45873 0.0
C1468 C 0.61016 0.87668 0.45167 0.0
O1469 O 0.61373 0.88342 0.44435 0.0
C1470 C 0.65329 0.86342 0.45232 0.0
C1471 C 0.64443 0.87611 0.489 0.0
O1472 O 0.6423 0.86609 0.49017 0.0
O1473 O 0.64218 0.88051 0.47996 0.0
O1474 O 0.88488 0.90022 0.21276 0.0
Cd1475 Cd 0.87535 0.88717 0.22396 0.0
O1476 O 0.87133 0.90146 0.20151 0.0
Cd1477 Cd 0.86429 0.88651 0.20743 0.0
O1478 O 0.86635 0.86922 0.20509 0.0
C1479 C 0.86295 0.8652 0.19634 0.0
O1480 O 0.85743 0.87139 0.18978 0.0
C1481 C 0.88049 0.90472 0.20469 0.0
C1482 C 0.86444 0.89786 0.24036 0.0
O1483 O 0.8737 0.89367 0.24203 0.0
O1484 O 0.8603 0.8969 0.23097 0.0
O1485 O 0.8468 0.13212 0.9612 0.0
Cd1486 Cd 0.85993 0.12322 0.97279 0.0
O1487 O 0.84954 0.12045 0.94822 0.0
Cd1488 Cd 0.86502 0.1155 0.95489 0.0
O1489 O 0.88216 0.11937 0.95406 0.0
C1490 C 0.88524 0.12821 0.95817 0.0
O1491 O 0.8782 0.13399 0.96353 0.0
C1492 C 0.84417 0.12824 0.95211 0.0
C1493 C 0.84914 0.11166 0.98867 0.0
O1494 O 0.85283 0.1211 0.99058 0.0
O1495 O 0.85076 0.10762 0.97933 0.0
O1496 O 0.79157 0.61768 0.90073 0.0
Cd1497 Cd 0.77944 0.62626 0.88788 0.0
O1498 O 0.80445 0.62917 0.89698 0.0
Cd1499 Cd 0.79713 0.63364 0.88165 0.0
O1500 O 0.79735 0.62923 0.86463 0.0
C1501 C 0.79238 0.62079 0.86171 0.0
O1502 O 0.78655 0.61566 0.86887 0.0
C1503 C 0.80079 0.62159 0.90279 0.0
C1504 C 0.76322 0.63701 0.89899 0.0
O1505 O 0.76164 0.62757 0.89516 0.0
O1506 O 0.77238 0.64143 0.89739 0.0
O1507 O 0.29187 0.87926 0.0973 0.0
Cd1508 Cd 0.28057 0.8696 0.11015 0.0
O1509 O 0.30621 0.87012 0.10205 0.0
Cd1510 Cd 0.29889 0.86447 0.11698 0.0
O1511 O 0.29817 0.86834 0.1341 0.0
C1512 C 0.29229 0.87614 0.1371 0.0
O1513 O 0.28612 0.88084 0.12993 0.0
C1514 C 0.3017 0.87689 0.09583 0.0
C1515 C 0.26324 0.86002 0.09966 0.0
O1516 O 0.26222 0.86917 0.10428 0.0
O1517 O 0.27243 0.85537 0.10007 0.0
O1518 O 0.86772 0.53961 0.84836 0.0
Cd1519 Cd 0.87631 0.5283 0.86196 0.0
O1520 O 0.87975 0.55241 0.85011 0.0
Cd1521 Cd 0.88535 0.54563 0.8653 0.0
O1522 O 0.88045 0.54444 0.88212 0.0
C1523 C 0.88331 0.5517 0.88872 0.0
O1524 O 0.89006 0.55913 0.88544 0.0
C1525 C 0.87162 0.54854 0.84524 0.0
C1526 C 0.88706 0.51128 0.85215 0.0
O1527 O 0.89151 0.52052 0.85308 0.0
O1528 O 0.87756 0.51005 0.85593 0.0
O1529 O 0.20896 0.11642 0.59825 0.0
Cd1530 Cd 0.22007 0.12549 0.61169 0.0
O1531 O 0.19787 0.13011 0.59703 0.0
Cd1532 Cd 0.20375 0.13663 0.61223 0.0
O1533 O 0.20261 0.13335 0.62944 0.0
C1534 C 0.1938 0.13565 0.63408 0.0
O1535 O 0.18642 0.14081 0.62856 0.0
C1536 C 0.20103 0.12099 0.59366 0.0
C1537 C 0.23705 0.13588 0.60141 0.0
O1538 O 0.23835 0.1266 0.60569 0.0
O1539 O 0.22777 0.1403 0.60212 0.0
O1540 O 0.13169 0.95962 0.84768 0.0
Cd1541 Cd 0.12131 0.97017 0.8606 0.0
O1542 O 0.12093 0.94574 0.84948 0.0
Cd1543 Cd 0.11408 0.95179 0.86447 0.0
O1544 O 0.11635 0.95045 0.88185 0.0
C1545 C 0.12432 0.95527 0.88605 0.0
O1546 O 0.13012 0.96165 0.87996 0.0
C1547 C 0.12877 0.95028 0.84472 0.0
C1548 C 0.11172 0.98769 0.85048 0.0
O1549 O 0.12068 0.98871 0.85545 0.0
O1550 O 0.10727 0.9784 0.85036 0.0
O1551 O 0.70169 0.37318 0.40345 0.0
Cd1552 Cd 0.71108 0.36165 0.39063 0.0
O1553 O 0.71017 0.38784 0.39847 0.0
Cd1554 Cd 0.71608 0.38049 0.38366 0.0
O1555 O 0.71273 0.38019 0.36641 0.0
C1556 C 0.70419 0.37551 0.36333 0.0
O1557 O 0.69848 0.37024 0.37051 0.0
C1558 C 0.70369 0.38311 0.40482 0.0
C1559 C 0.73014 0.35422 0.39982 0.0
O1560 O 0.73008 0.36259 0.39381 0.0
O1561 O 0.72121 0.34931 0.40136 0.0
O1562 O 0.86299 0.46319 0.64971 0.0
Cd1563 Cd 0.87245 0.47465 0.63684 0.0
O1564 O 0.87628 0.45156 0.65023 0.0
Cd1565 Cd 0.88296 0.45789 0.63528 0.0
O1566 O 0.87968 0.4568 0.61806 0.0
C1567 C 0.88216 0.44808 0.61335 0.0
O1568 O 0.88753 0.44078 0.61879 0.0
C1569 C 0.86729 0.45486 0.65382 0.0
C1570 C 0.88392 0.4905 0.64779 0.0
O1571 O 0.87461 0.49248 0.64384 0.0
O1572 O 0.88784 0.48106 0.64647 0.0
O1573 O 0.6305 0.53899 0.15392 0.0
Cd1574 Cd 0.62049 0.5275 0.14151 0.0
O1575 O 0.62068 0.55305 0.14976 0.0
Cd1576 Cd 0.61495 0.54583 0.13481 0.0
O1577 O 0.61887 0.54611 0.11768 0.0
C1578 C 0.62695 0.54074 0.11446 0.0
O1579 O 0.63189 0.53445 0.12136 0.0
C1580 C 0.62784 0.54871 0.15563 0.0
C1581 C 0.60956 0.51168 0.15304 0.0
O1582 O 0.61867 0.50968 0.14865 0.0
O1583 O 0.60555 0.52109 0.1518 0.0
O1584 O 0.57849 0.71346 0.86143 0.0
Cd1585 Cd 0.58992 0.71938 0.84657 0.0
O1586 O 0.59284 0.70613 0.86854 0.0
Cd1587 Cd 0.60166 0.69624 0.88012 0.0
O1588 O 0.61219 0.68949 0.89242 0.0
C1589 C 0.61638 0.68024 0.8913 0.0
O1590 O 0.61396 0.67456 0.88273 0.0
C1591 C 0.58283 0.70821 0.86904 0.0
C1592 C 0.59383 0.74147 0.84704 0.0
O1593 O 0.58597 0.73758 0.84164 0.0
O1594 O 0.59983 0.73489 0.85223 0.0
O1595 O 0.54379 0.33022 0.11004 0.0
Cd1596 Cd 0.53807 0.3407 0.09441 0.0
O1597 O 0.54427 0.34519 0.11913 0.0
Cd1598 Cd 0.54575 0.35765 0.13154 0.0
O1599 O 0.55198 0.37083 0.14134 0.0
C1600 C 0.562 0.37284 0.14097 0.0
O1601 O 0.56815 0.36689 0.13478 0.0
C1602 C 0.5457 0.33504 0.11885 0.0
C1603 C 0.51574 0.34145 0.09193 0.0
O1604 O 0.52136 0.33406 0.08745 0.0
O1605 O 0.52071 0.34843 0.09767 0.0
O1606 O 0.92273 0.28908 0.35922 0.0
Cd1607 Cd 0.91205 0.28437 0.3434 0.0
O1608 O 0.90812 0.29594 0.36626 0.0
Cd1609 Cd 0.89893 0.30496 0.37825 0.0
O1610 O 0.88845 0.31085 0.39103 0.0
C1611 C 0.88291 0.31933 0.38973 0.0
O1612 O 0.88381 0.32466 0.38065 0.0
C1613 C 0.91808 0.29375 0.36702 0.0
C1614 C 0.91012 0.26219 0.34061 0.0
O1615 O 0.91776 0.26747 0.33616 0.0
O1616 O 0.90342 0.26743 0.34644 0.0
O1617 O 0.95972 0.66804 0.6103 0.0
Cd1618 Cd 0.96565 0.65705 0.59512 0.0
O1619 O 0.95215 0.65365 0.61706 0.0
Cd1620 Cd 0.94381 0.64439 0.62948 0.0
O1621 O 0.93636 0.63278 0.64033 0.0
C1622 C 0.92716 0.62887 0.63817 0.0
O1623 O 0.9221 0.63226 0.62955 0.0
C1624 C 0.95419 0.66365 0.61767 0.0
C1625 C 0.98801 0.65591 0.59342 0.0
O1626 O 0.98267 0.66325 0.58854 0.0
O1627 O 0.98274 0.64914 0.59915 0.0
O1628 O 0.5839 0.28879 0.6406 0.0
Cd1629 Cd 0.59574 0.28317 0.65523 0.0
O1630 O 0.59747 0.29745 0.63345 0.0
Cd1631 Cd 0.60562 0.30622 0.6206 0.0
O1632 O 0.61641 0.31378 0.60904 0.0
C1633 C 0.62208 0.32175 0.61197 0.0
O1634 O 0.62099 0.32543 0.62182 0.0
C1635 C 0.58765 0.29465 0.63312 0.0
C1636 C 0.59833 0.26087 0.65555 0.0
O1637 O 0.59092 0.26545 0.66105 0.0
O1638 O 0.60453 0.26687 0.64991 0.0
O1639 O 0.9608 0.32905 0.89151 0.0
Cd1640 Cd 0.96698 0.34011 0.90654 0.0
O1641 O 0.9545 0.34374 0.88407 0.0
Cd1642 Cd 0.94678 0.35263 0.87098 0.0
O1643 O 0.9393 0.36387 0.85972 0.0
C1644 C 0.93376 0.37143 0.86379 0.0
O1645 O 0.93278 0.37183 0.8743 0.0
C1646 C 0.95576 0.3336 0.88389 0.0
C1647 C 0.98929 0.34229 0.90743 0.0
O1648 O 0.98449 0.33464 0.9124 0.0
O1649 O 0.98351 0.34885 0.90198 0.0
O1650 O 0.91994 0.71316 0.1399 0.0
Cd1651 Cd 0.90844 0.71873 0.15483 0.0
O1652 O 0.90659 0.70319 0.13421 0.0
Cd1653 Cd 0.89833 0.69268 0.12276 0.0
O1654 O 0.88737 0.68381 0.11229 0.0
C1655 C 0.88739 0.68524 0.10217 0.0
O1656 O 0.89439 0.69195 0.09798 0.0
C1657 C 0.91617 0.70659 0.13305 0.0
C1658 C 0.90426 0.74079 0.15459 0.0
O1659 O 0.91218 0.73693 0.15994 0.0
O1660 O 0.89833 0.73418 0.14935 0.0
O1661 O 0.53789 0.66578 0.38928 0.0
Cd1662 Cd 0.53186 0.65292 0.40287 0.0
O1663 O 0.53991 0.65231 0.37819 0.0
Cd1664 Cd 0.54372 0.64352 0.36337 0.0
O1665 O 0.55046 0.63363 0.35051 0.0
C1666 C 0.56045 0.63149 0.35052 0.0
O1667 O 0.56652 0.63548 0.35819 0.0
C1668 C 0.54059 0.66237 0.38004 0.0
C1669 C 0.50948 0.65175 0.40427 0.0
O1670 O 0.51485 0.65834 0.4101 0.0
O1671 O 0.51474 0.64575 0.39773 0.0
O1672 O 0.85818 0.57989 0.70841 0.0
Cd1673 Cd 0.8432 0.59083 0.71492 0.0
O1674 O 0.86846 0.59404 0.71006 0.0
Cd1675 Cd 0.88268 0.60449 0.70996 0.0
O1676 O 0.8947 0.61591 0.70408 0.0
C1677 C 0.8933 0.61966 0.69467 0.0
O1678 O 0.8847 0.61675 0.68927 0.0
C1679 C 0.86737 0.58422 0.70732 0.0
C1680 C 0.8425 0.59233 0.73732 0.0
O1681 O 0.8374 0.5849 0.73231 0.0
O1682 O 0.84802 0.59898 0.7317 0.0
O1683 O 0.66884 0.60865 0.96209 0.0
Cd1684 Cd 0.65721 0.59408 0.96836 0.0
O1685 O 0.65466 0.61591 0.95454 0.0
Cd1686 Cd 0.64648 0.62902 0.94611 0.0
O1687 O 0.63627 0.64169 0.93953 0.0
C1688 C 0.63302 0.64133 0.92985 0.0
O1689 O 0.63625 0.63339 0.92368 0.0
C1690 C 0.66469 0.61609 0.95646 0.0
C1691 C 0.65464 0.59375 0.99066 0.0
O1692 O 0.66216 0.58839 0.98609 0.0
O1693 O 0.64839 0.59932 0.98465 0.0
O1694 O 0.64023 0.41947 0.20724 0.0
Cd1695 Cd 0.65569 0.40881 0.21308 0.0
O1696 O 0.63105 0.40455 0.20681 0.0
Cd1697 Cd 0.6182 0.39258 0.20524 0.0
O1698 O 0.60822 0.37998 0.19816 0.0
C1699 C 0.61024 0.37715 0.18854 0.0
O1700 O 0.61809 0.38199 0.18339 0.0
C1701 C 0.63141 0.41468 0.20533 0.0
C1702 C 0.65671 0.40631 0.23539 0.0
O1703 O 0.66152 0.41411 0.23068 0.0
O1704 O 0.65133 0.39975 0.22953 0.0
O1705 O 0.82873 0.39114 0.45883 0.0
Cd1706 Cd 0.84022 0.40613 0.46432 0.0
O1707 O 0.843 0.38359 0.45179 0.0
Cd1708 Cd 0.85159 0.37027 0.44413 0.0
O1709 O 0.86256 0.35767 0.43868 0.0
C1710 C 0.86552 0.35705 0.42892 0.0
O1711 O 0.86155 0.36392 0.42195 0.0
C1712 C 0.83297 0.38337 0.45374 0.0
C1713 C 0.84135 0.40859 0.48661 0.0
O1714 O 0.83424 0.41356 0.48105 0.0
O1715 O 0.84788 0.40238 0.4816 0.0
O1716 O 0.85952 0.42045 0.78862 0.0
Cd1717 Cd 0.84369 0.40992 0.78362 0.0
O1718 O 0.86688 0.40564 0.79472 0.0
Cd1719 Cd 0.87938 0.39665 0.8032 0.0
O1720 O 0.89211 0.38608 0.80899 0.0
C1721 C 0.89454 0.38525 0.81889 0.0
O1722 O 0.88939 0.39117 0.82595 0.0
C1723 C 0.86746 0.41569 0.79293 0.0
C1724 C 0.84172 0.40773 0.76137 0.0
O1725 O 0.83717 0.41551 0.76638 0.0
O1726 O 0.84719 0.40099 0.76692 0.0
O1727 O 0.82885 0.60993 0.03869 0.0
Cd1728 Cd 0.83944 0.59432 0.03317 0.0
O1729 O 0.84369 0.61689 0.0451 0.0
Cd1730 Cd 0.8533 0.62865 0.054 0.0
O1731 O 0.86476 0.64054 0.0599 0.0
C1732 C 0.86756 0.64089 0.06972 0.0
O1733 O 0.86317 0.6341 0.07652 0.0
C1734 C 0.83364 0.61765 0.04335 0.0
C1735 C 0.84245 0.59348 0.01095 0.0
O1736 O 0.83449 0.5887 0.01543 0.0
O1737 O 0.84894 0.59871 0.017 0.0
O1738 O 0.63977 0.58465 0.2882 0.0
Cd1739 Cd 0.65409 0.59704 0.28296 0.0
O1740 O 0.63128 0.59811 0.29575 0.0
Cd1741 Cd 0.61852 0.60546 0.30536 0.0
O1742 O 0.60587 0.61537 0.31236 0.0
C1743 C 0.60611 0.61807 0.3222 0.0
O1744 O 0.61397 0.6145 0.32829 0.0
C1745 C 0.63165 0.5882 0.29327 0.0
C1746 C 0.65649 0.5979 0.26065 0.0
O1747 O 0.66187 0.59119 0.26633 0.0
O1748 O 0.64998 0.6042 0.26556 0.0
O1749 O 0.66744 0.39127 0.54221 0.0
Cd1750 Cd 0.65587 0.40596 0.53618 0.0
O1751 O 0.6535 0.38061 0.54122 0.0
Cd1752 Cd 0.64328 0.3662 0.54172 0.0
O1753 O 0.63223 0.35382 0.54763 0.0
C1754 C 0.62887 0.35467 0.55725 0.0
O1755 O 0.632 0.36296 0.563 0.0
C1756 C 0.66341 0.38196 0.54348 0.0
C1757 C 0.65611 0.40856 0.51388 0.0
O1758 O 0.66273 0.41365 0.51991 0.0
O1759 O 0.64941 0.40218 0.51843 0.0
O1760 O 0.72241 0.88056 0.58893 0.0
Cd1761 Cd 0.73623 0.87609 0.60219 0.0
O1762 O 0.7137 0.88767 0.60244 0.0
Cd1763 Cd 0.7004 0.89603 0.61039 0.0
O1764 O 0.68921 0.90462 0.62082 0.0
C1765 C 0.68037 0.90041 0.62376 0.0
O1766 O 0.6778 0.89086 0.62006 0.0
C1767 C 0.71436 0.88578 0.59241 0.0
C1768 C 0.75111 0.86073 0.59555 0.0
O1769 O 0.74327 0.85811 0.6017 0.0
O1770 O 0.75177 0.87051 0.59238 0.0
O1771 O 0.20936 0.6385 0.41901 0.0
Cd1772 Cd 0.21409 0.6542 0.40816 0.0
O1773 O 0.20091 0.63199 0.40502 0.0
Cd1774 Cd 0.19216 0.61982 0.3958 0.0
O1775 O 0.18493 0.60906 0.38397 0.0
C1776 C 0.17644 0.61185 0.379 0.0
O1777 O 0.17196 0.6211 0.38143 0.0
C1778 C 0.20381 0.63104 0.41478 0.0
C1779 C 0.23627 0.65757 0.40719 0.0
O1780 O 0.23052 0.66198 0.41452 0.0
O1781 O 0.23149 0.65153 0.40034 0.0
O1782 O 0.60373 0.95918 0.67232 0.0
Cd1783 Cd 0.58947 0.96516 0.66017 0.0
O1784 O 0.61531 0.96089 0.65912 0.0
Cd1785 Cd 0.63107 0.95753 0.65216 0.0
O1786 O 0.64316 0.95017 0.64178 0.0
C1787 C 0.64213 0.94022 0.63969 0.0
O1788 O 0.63427 0.93488 0.6443 0.0
C1789 C 0.61327 0.95836 0.66879 0.0
C1790 C 0.58911 0.9874 0.65716 0.0
O1791 O 0.58357 0.98294 0.66462 0.0
O1792 O 0.59488 0.98131 0.65118 0.0
O1793 O 0.29172 0.36121 0.91833 0.0
Cd1794 Cd 0.28648 0.34584 0.90726 0.0
O1795 O 0.29788 0.36889 0.90375 0.0
Cd1796 Cd 0.30651 0.381 0.89434 0.0
O1797 O 0.31365 0.39133 0.88207 0.0
C1798 C 0.32145 0.38785 0.87646 0.0
O1799 O 0.32522 0.37819 0.87845 0.0
C1800 C 0.29619 0.36921 0.91382 0.0
C1801 C 0.26419 0.34342 0.90594 0.0
O1802 O 0.26965 0.33862 0.91326 0.0
O1803 O 0.26931 0.34937 0.89927 0.0
O1804 O 0.39123 0.53714 0.66748 0.0
Cd1805 Cd 0.40553 0.53045 0.65576 0.0
O1806 O 0.38415 0.54459 0.65317 0.0
Cd1807 Cd 0.3713 0.55334 0.64493 0.0
O1808 O 0.35919 0.5609 0.63474 0.0
C1809 C 0.3596 0.5709 0.63273 0.0
O1810 O 0.36728 0.57668 0.63711 0.0
C1811 C 0.38393 0.54287 0.66323 0.0
C1812 C 0.40615 0.50806 0.65445 0.0
O1813 O 0.4117 0.51314 0.66149 0.0
O1814 O 0.40022 0.5136 0.6481 0.0
O1815 O 0.79201 0.14085 0.0797 0.0
Cd1816 Cd 0.78561 0.15614 0.09029 0.0
O1817 O 0.79065 0.13101 0.0942 0.0
Cd1818 Cd 0.79104 0.11701 0.10494 0.0
O1819 O 0.797 0.10503 0.11635 0.0
C1820 C 0.80638 0.10647 0.12014 0.0
O1821 O 0.81173 0.11513 0.11731 0.0
C1822 C 0.79324 0.13182 0.08431 0.0
C1823 C 0.76323 0.15738 0.09164 0.0
O1824 O 0.76839 0.16222 0.08415 0.0
O1825 O 0.76867 0.15184 0.09842 0.0
O1826 O 0.63974 0.0372 0.83663 0.0
Cd1827 Cd 0.63235 0.02956 0.85319 0.0
O1828 O 0.65297 0.0445 0.84579 0.0
Cd1829 Cd 0.64634 0.04219 0.86181 0.0
O1830 O 0.64575 0.04905 0.87791 0.0
C1831 C 0.64751 0.05911 0.87843 0.0
O1832 O 0.64898 0.06442 0.86941 0.0
C1833 C 0.64859 0.04232 0.83682 0.0
C1834 C 0.61984 0.0114 0.84923 0.0
O1835 O 0.6154 0.02044 0.8514 0.0
O1836 O 0.63012 0.01092 0.84897 0.0
O1837 O 0.8922 0.95601 0.33151 0.0
Cd1838 Cd 0.90726 0.9624 0.3424 0.0
O1839 O 0.88178 0.95837 0.34547 0.0
Cd1840 Cd 0.86727 0.95894 0.35549 0.0
O1841 O 0.85483 0.95375 0.36677 0.0
C1842 C 0.85614 0.94468 0.37129 0.0
O1843 O 0.86484 0.93912 0.36904 0.0
C1844 C 0.88293 0.95533 0.33575 0.0
C1845 C 0.90893 0.98479 0.34267 0.0
O1846 O 0.91391 0.97916 0.33562 0.0
O1847 O 0.90309 0.9798 0.34954 0.0
O1848 O 0.40245 0.2912 0.11644 0.0
Cd1849 Cd 0.38893 0.28103 0.12644 0.0
O1850 O 0.40106 0.30523 0.12706 0.0
Cd1851 Cd 0.3858 0.29944 0.13355 0.0
O1852 O 0.36858 0.29907 0.13006 0.0
C1853 C 0.36283 0.30708 0.13275 0.0
O1854 O 0.36729 0.31479 0.13844 0.0
C1855 C 0.40575 0.30044 0.11934 0.0
C1856 C 0.39855 0.2635 0.13657 0.0
O1857 O 0.39388 0.26243 0.12744 0.0
O1858 O 0.39858 0.27283 0.14094 0.0
O1859 O 0.46174 0.64825 0.86082 0.0
Cd1860 Cd 0.47315 0.63486 0.86957 0.0
O1861 O 0.45058 0.64867 0.8745 0.0
Cd1862 Cd 0.45691 0.63361 0.88093 0.0
O1863 O 0.45556 0.61627 0.87853 0.0
C1864 C 0.44751 0.61145 0.88257 0.0
O1865 O 0.44102 0.6169 0.88888 0.0
C1866 C 0.45363 0.6524 0.86547 0.0
C1867 C 0.48832 0.64535 0.8823 0.0
O1868 O 0.49067 0.6422 0.87277 0.0
O1869 O 0.47888 0.64332 0.88588 0.0
O1870 O 0.09798 0.70623 0.6212 0.0
Cd1871 Cd 0.11018 0.72075 0.62625 0.0
O1872 O 0.10569 0.69369 0.63093 0.0
Cd1873 Cd 0.12002 0.70349 0.63358 0.0
O1874 O 0.13653 0.70506 0.62779 0.0
C1875 C 0.13833 0.71046 0.6193 0.0
O1876 O 0.13033 0.7158 0.61493 0.0
C1877 C 0.09807 0.69667 0.6248 0.0
C1878 C 0.09799 0.73707 0.63554 0.0
O1879 O 0.09893 0.73628 0.62531 0.0
O1880 O 0.1031 0.73033 0.64143 0.0
O1881 O 0.04229 0.34951 0.36912 0.0
Cd1882 Cd 0.03139 0.36246 0.37908 0.0
O1883 O 0.05599 0.3517 0.38003 0.0
Cd1884 Cd 0.04978 0.36695 0.38614 0.0
O1885 O 0.05093 0.38426 0.38326 0.0
C1886 C 0.0458 0.38825 0.37537 0.0
O1887 O 0.03927 0.38199 0.36992 0.0
C1888 C 0.05158 0.34667 0.3723 0.0
C1889 C 0.01495 0.35169 0.38985 0.0
O1890 O 0.01328 0.35608 0.38067 0.0
O1891 O 0.02433 0.35259 0.39401 0.0
O1892 O 0.40542 0.71257 0.38348 0.0
Cd1893 Cd 0.39384 0.72731 0.37765 0.0
O1894 O 0.39957 0.7009 0.3716 0.0
Cd1895 Cd 0.38537 0.71063 0.36814 0.0
O1896 O 0.36854 0.71134 0.37318 0.0
C1897 C 0.36645 0.71539 0.38232 0.0
O1898 O 0.3743 0.71994 0.38773 0.0
C1899 C 0.40611 0.70338 0.37906 0.0
C1900 C 0.40593 0.74228 0.36616 0.0
O1901 O 0.40573 0.74236 0.37646 0.0
O1902 O 0.40031 0.73518 0.36124 0.0
O1903 O 0.04307 0.65224 0.13095 0.0
Cd1904 Cd 0.03196 0.63938 0.12109 0.0
O1905 O 0.05746 0.64791 0.12168 0.0
Cd1906 Cd 0.05036 0.63288 0.116 0.0
O1907 O 0.04971 0.61583 0.12016 0.0
C1908 C 0.04415 0.61308 0.12829 0.0
O1909 O 0.03831 0.62044 0.13312 0.0
C1910 C 0.05287 0.65393 0.12856 0.0
C1911 C 0.01465 0.64978 0.11138 0.0
O1912 O 0.01358 0.6451 0.1205 0.0
O1913 O 0.02389 0.64948 0.10683 0.0
O1914 O 0.09703 0.2888 0.87861 0.0
Cd1915 Cd 0.10912 0.27738 0.86815 0.0
O1916 O 0.1006 0.3029 0.86859 0.0
Cd1917 Cd 0.11546 0.29574 0.86259 0.0
O1918 O 0.13244 0.29527 0.8671 0.0
C1919 C 0.13493 0.29007 0.87553 0.0
O1920 O 0.1274 0.28443 0.88036 0.0
C1921 C 0.09506 0.29849 0.87597 0.0
C1922 C 0.09743 0.26133 0.85775 0.0
O1923 O 0.10212 0.25948 0.86674 0.0
O1924 O 0.09842 0.27071 0.85361 0.0
O1925 O 0.46187 0.3475 0.63913 0.0
Cd1926 Cd 0.47589 0.35965 0.63266 0.0
O1927 O 0.45148 0.34895 0.62494 0.0
Cd1928 Cd 0.46027 0.3633 0.61996 0.0
O1929 O 0.4609 0.3803 0.6243 0.0
C1930 C 0.45359 0.38649 0.62074 0.0
O1931 O 0.44671 0.38264 0.61371 0.0
C1932 C 0.4536 0.34453 0.63392 0.0
C1933 C 0.49063 0.34794 0.62053 0.0
O1934 O 0.49115 0.34815 0.63082 0.0
O1935 O 0.48323 0.35342 0.61592 0.0
O1936 O 0.1174 0.40394 0.29138 0.0
Cd1937 Cd 0.12327 0.3915 0.27739 0.0
O1938 O 0.12917 0.39882 0.30348 0.0
Cd1939 Cd 0.13261 0.38403 0.29466 0.0
O1940 O 0.12795 0.36708 0.29436 0.0
C1941 C 0.11888 0.36465 0.29034 0.0
O1942 O 0.11326 0.37226 0.28564 0.0
C1943 C 0.12177 0.40522 0.30053 0.0
C1944 C 0.1332 0.40347 0.26129 0.0
O1945 O 0.12296 0.40243 0.26161 0.0
O1946 O 0.13882 0.39857 0.2684 0.0
O1947 O 0.34591 0.37404 0.04542 0.0
Cd1948 Cd 0.35891 0.38541 0.03608 0.0
O1949 O 0.3511 0.35918 0.03744 0.0
Cd1950 Cd 0.366 0.36628 0.03143 0.0
O1951 O 0.38333 0.36571 0.03431 0.0
C1952 C 0.38704 0.37065 0.04246 0.0
O1953 O 0.38045 0.37668 0.04811 0.0
C1954 C 0.34462 0.36406 0.04366 0.0
C1955 C 0.34953 0.39376 0.0175 0.0
O1956 O 0.35533 0.38525 0.01713 0.0
O1957 O 0.34828 0.39837 0.02663 0.0
O1958 O 0.3864 0.59747 0.78996 0.0
Cd1959 Cd 0.3787 0.61111 0.77808 0.0
O1960 O 0.37273 0.5981 0.80113 0.0
Cd1961 Cd 0.36718 0.61312 0.79393 0.0
O1962 O 0.37202 0.62991 0.79203 0.0
C1963 C 0.36939 0.63675 0.79915 0.0
O1964 O 0.3629 0.63372 0.80691 0.0
C1965 C 0.38154 0.59381 0.7982 0.0
C1966 C 0.36773 0.6014 0.76114 0.0
O1967 O 0.3774 0.60475 0.75995 0.0
O1968 O 0.36323 0.60271 0.77032 0.0
O1969 O 0.15121 0.63118 0.5398 0.0
Cd1970 Cd 0.13841 0.61956 0.53047 0.0
O1971 O 0.1523 0.62007 0.55348 0.0
Cd1972 Cd 0.13754 0.61169 0.549 0.0
O1973 O 0.12042 0.61222 0.55288 0.0
C1974 C 0.11487 0.61994 0.54912 0.0
O1975 O 0.11944 0.62656 0.54227 0.0
C1976 C 0.15557 0.62847 0.54865 0.0
C1977 C 0.14851 0.60934 0.51328 0.0
O1978 O 0.14312 0.61801 0.51186 0.0
O1979 O 0.14903 0.60546 0.52281 0.0
O1980 O 0.11852 0.5962 0.21119 0.0
Cd1981 Cd 0.12837 0.60881 0.2226 0.0
O1982 O 0.12887 0.59968 0.19732 0.0
Cd1983 Cd 0.13474 0.61466 0.20435 0.0
O1984 O 0.13107 0.63185 0.20412 0.0
C1985 C 0.1225 0.63492 0.20875 0.0
O1986 O 0.11695 0.62782 0.21427 0.0
C1987 C 0.12144 0.59411 0.20162 0.0
C1988 C 0.13947 0.59752 0.23846 0.0
O1989 O 0.13028 0.60173 0.24042 0.0
O1990 O 0.14349 0.59882 0.22906 0.0
O1991 O 0.15466 0.37382 0.95418 0.0
Cd1992 Cd 0.14204 0.38494 0.9643 0.0
O1993 O 0.15058 0.35892 0.96273 0.0
Cd1994 Cd 0.13584 0.36572 0.96942 0.0
O1995 O 0.11859 0.36486 0.96622 0.0
C1996 C 0.11492 0.37006 0.95822 0.0
O1997 O 0.12144 0.37653 0.95301 0.0
C1998 C 0.15643 0.36391 0.95599 0.0
C1999 C 0.1523 0.39346 0.98233 0.0
O2000 O 0.14667 0.38486 0.98303 0.0
O2001 O 0.15298 0.39806 0.97314 0.0
O2002 O 0.38832 0.4007 0.71354 0.0
Cd2003 Cd 0.38236 0.3889 0.72806 0.0
O2004 O 0.37323 0.39969 0.70444 0.0
Cd2005 Cd 0.36862 0.38516 0.71315 0.0
O2006 O 0.37137 0.36793 0.71125 0.0
C2007 C 0.36672 0.36329 0.70342 0.0
O2008 O 0.35975 0.36883 0.69772 0.0
C2009 C 0.38247 0.40385 0.70576 0.0
C2010 C 0.37019 0.40088 0.74257 0.0
O2011 O 0.38049 0.4009 0.74295 0.0
O2012 O 0.36559 0.39504 0.73544 0.0
O2013 O 0.34542 0.62381 0.45181 0.0
Cd2014 Cd 0.35775 0.61145 0.46079 0.0
O2015 O 0.35077 0.63787 0.46105 0.0
Cd2016 Cd 0.3654 0.62984 0.4665 0.0
O2017 O 0.38246 0.62959 0.4623 0.0
C2018 C 0.3852 0.62467 0.45378 0.0
O2019 O 0.37786 0.61911 0.44859 0.0
C2020 C 0.34434 0.63366 0.4543 0.0
C2021 C 0.34858 0.60433 0.47998 0.0
O2022 O 0.35506 0.61234 0.47986 0.0
O2023 O 0.34655 0.59963 0.47103 0.0
O2024 O 0.29763 0.12847 0.40594 0.0
Cd2025 Cd 0.28923 0.14197 0.39442 0.0
O2026 O 0.28774 0.11533 0.39953 0.0
Cd2027 Cd 0.28316 0.12439 0.3852 0.0
O2028 O 0.28756 0.12416 0.36819 0.0
C2029 C 0.28368 0.11672 0.36237 0.0
O2030 O 0.27637 0.11035 0.36657 0.0
C2031 C 0.29458 0.11872 0.40633 0.0
C2032 C 0.27031 0.14933 0.40398 0.0
O2033 O 0.27012 0.14169 0.39708 0.0
O2034 O 0.27943 0.15355 0.40626 0.0
O2035 O 0.78615 0.38872 0.59773 0.0
Cd2036 Cd 0.77454 0.37914 0.61037 0.0
O2037 O 0.79797 0.37561 0.59756 0.0
Cd2038 Cd 0.79138 0.36886 0.61236 0.0
O2039 O 0.79223 0.37214 0.62959 0.0
C2040 C 0.8007 0.36931 0.63454 0.0
O2041 O 0.80789 0.36357 0.62934 0.0
C2042 C 0.79464 0.38455 0.59385 0.0
C2043 C 0.75971 0.36684 0.59892 0.0
O2044 O 0.75715 0.37611 0.60262 0.0
O2045 O 0.7692 0.36331 0.60082 0.0
O2046 O 0.37799 0.04601 0.34813 0.0
Cd2047 Cd 0.38597 0.03227 0.35971 0.0
O2048 O 0.36258 0.03739 0.34838 0.0
Cd2049 Cd 0.36659 0.02854 0.363 0.0
O2050 O 0.3641 0.03023 0.3803 0.0
C2051 C 0.36907 0.03778 0.38507 0.0
O2052 O 0.37618 0.04336 0.37961 0.0
C2053 C 0.36847 0.04484 0.34458 0.0
C2054 C 0.39189 0.01487 0.34688 0.0
O2055 O 0.38221 0.01597 0.35022 0.0
O2056 O 0.39888 0.02184 0.34985 0.0
O2057 O 0.70871 0.61866 0.09965 0.0
Cd2058 Cd 0.71986 0.6284 0.11257 0.0
O2059 O 0.69457 0.62852 0.10344 0.0
Cd2060 Cd 0.70151 0.63421 0.11854 0.0
O2061 O 0.70162 0.63022 0.13565 0.0
C2062 C 0.70723 0.62225 0.13875 0.0
O2063 O 0.71349 0.61746 0.13173 0.0
C2064 C 0.69905 0.62136 0.09767 0.0
C2065 C 0.73639 0.63915 0.10192 0.0
O2066 O 0.73796 0.62989 0.10616 0.0
O2067 O 0.72704 0.64338 0.10287 0.0
O2068 O 0.63874 0.45886 0.34538 0.0
Cd2069 Cd 0.6337 0.47311 0.35793 0.0
O2070 O 0.62416 0.44913 0.34745 0.0
Cd2071 Cd 0.62022 0.45835 0.36185 0.0
O2072 O 0.62554 0.46076 0.37842 0.0
C2073 C 0.6224 0.45424 0.38563 0.0
O2074 O 0.61521 0.44694 0.38305 0.0
C2075 C 0.63303 0.45083 0.34264 0.0
C2076 C 0.62166 0.48851 0.34701 0.0
O2077 O 0.63195 0.48854 0.34664 0.0
O2078 O 0.61701 0.48128 0.35269 0.0
O2079 O 0.20958 0.88659 0.90168 0.0
Cd2080 Cd 0.22417 0.88137 0.88963 0.0
O2081 O 0.19923 0.87275 0.89811 0.0
Cd2082 Cd 0.20861 0.86948 0.88363 0.0
O2083 O 0.21041 0.87538 0.86718 0.0
C2084 C 0.20391 0.8721 0.86001 0.0
O2085 O 0.19707 0.86446 0.86252 0.0
C2086 C 0.20118 0.88112 0.90366 0.0
C2087 C 0.23933 0.87031 0.90184 0.0
O2088 O 0.23926 0.8806 0.90146 0.0
O2089 O 0.23244 0.86518 0.89615 0.0
O2090 O 0.36327 0.95834 0.15107 0.0
Cd2091 Cd 0.37147 0.96978 0.13735 0.0
O2092 O 0.37733 0.94768 0.15186 0.0
Cd2093 Cd 0.38357 0.95414 0.13677 0.0
O2094 O 0.38044 0.95368 0.1195 0.0
C2095 C 0.38452 0.94617 0.1139 0.0
O2096 O 0.39138 0.9396 0.11853 0.0
C2097 C 0.36818 0.9505 0.15545 0.0
C2098 C 0.38307 0.98618 0.14727 0.0
O2099 O 0.37345 0.98777 0.14394 0.0
O2100 O 0.38727 0.9769 0.14571 0.0
O2101 O 0.13422 0.041 0.65186 0.0
Cd2102 Cd 0.12521 0.02906 0.63912 0.0
O2103 O 0.12305 0.0542 0.64825 0.0
Cd2104 Cd 0.11806 0.0469 0.63307 0.0
O2105 O 0.12218 0.04674 0.61597 0.0
C2106 C 0.13068 0.04183 0.61312 0.0
O2107 O 0.13602 0.03635 0.6204 0.0
C2108 C 0.13062 0.05034 0.65394 0.0
C2109 C 0.11389 0.0132 0.6502 0.0
O2110 O 0.12332 0.01134 0.64647 0.0
O2111 O 0.10976 0.02249 0.64853 0.0
C2112 C 0.00195 0.16448 0.40147 0.0
C2113 C 0.01294 0.1625 0.3997 0.0
C2114 C 0.99402 0.15866 0.39597 0.0
C2115 C 0.99678 0.1508 0.38831 0.0
H2116 H 0.99943 0.17054 0.40719 0.0
H2117 H 0.98565 0.1605 0.39758 0.0
S2118 S 0.02442 0.14251 0.38074 0.0
N2119 N 0.02619 0.15199 0.38986 0.0
N2120 N 0.01128 0.14123 0.37935 0.0
C2121 C 0.00774 0.14872 0.38647 0.0
C2122 C 0.01582 0.15452 0.39222 0.0
C2123 C 0.08687 0.75747 0.65532 0.0
C2124 C 0.0773 0.76085 0.65033 0.0
C2125 C 0.09352 0.74972 0.65051 0.0
C2126 C 0.09098 0.74533 0.6404 0.0
H2127 H 0.08914 0.76069 0.66309 0.0
H2128 H 0.10074 0.74723 0.65469 0.0
S2129 S 0.06698 0.75172 0.62387 0.0
N2130 N 0.06565 0.75927 0.63471 0.0
N2131 N 0.0783 0.74498 0.62552 0.0
C2132 C 0.08153 0.74878 0.63525 0.0
C2133 C 0.07464 0.75647 0.64026 0.0
C2134 C 0.48411 0.84133 0.89235 0.0
C2135 C 0.48717 0.83391 0.90032 0.0
C2136 C 0.49182 0.84732 0.8867 0.0
C2137 C 0.50284 0.84631 0.88902 0.0
H2138 H 0.47571 0.84235 0.89027 0.0
H2139 H 0.48911 0.85281 0.88051 0.0
S2140 S 0.515 0.82828 0.90945 0.0
N2141 N 0.50195 0.82599 0.91036 0.0
N2142 N 0.51642 0.83747 0.89997 0.0
C2143 C 0.50599 0.83909 0.89714 0.0
C2144 C 0.49816 0.83283 0.90272 0.0
C2145 C 0.41836 0.2478 0.15363 0.0
C2146 C 0.41572 0.23702 0.15141 0.0
C2147 C 0.41259 0.25629 0.14898 0.0
C2148 C 0.40411 0.25434 0.14175 0.0
H2149 H 0.42491 0.24971 0.15904 0.0
H2150 H 0.41496 0.26445 0.1509 0.0
S2151 S 0.39394 0.22758 0.13332 0.0
N2152 N 0.40391 0.22486 0.14165 0.0
N2153 N 0.39323 0.24083 0.13273 0.0
C2154 C 0.40136 0.24361 0.13948 0.0
C2155 C 0.40712 0.23495 0.14437 0.0
C2156 C 0.00806 0.82431 0.11672 0.0
C2157 C 0.01204 0.82717 0.10653 0.0
C2158 C 0.00116 0.83117 0.1224 0.0
C2159 C 0.99777 0.84101 0.118 0.0
H2160 H 0.0104 0.81678 0.12041 0.0
H2161 H 0.99832 0.82863 0.13024 0.0
S2162 S 0.00578 0.85218 0.09153 0.0
N2163 N 0.01216 0.84055 0.09228 0.0
N2164 N 0.9989 0.8533 0.10283 0.0
C2165 C 0.00161 0.84394 0.10778 0.0
C2166 C 0.00884 0.83706 0.10208 0.0
C2167 C 0.42924 0.76067 0.35933 0.0
C2168 C 0.42665 0.76441 0.34898 0.0
C2169 C 0.42238 0.75367 0.36489 0.0
C2170 C 0.4128 0.74993 0.36019 0.0
H2171 H 0.43658 0.76327 0.36324 0.0
H2172 H 0.4247 0.75102 0.37285 0.0
S2173 S 0.40237 0.75722 0.33321 0.0
N2174 N 0.41379 0.76393 0.33426 0.0
N2175 N 0.40104 0.75048 0.34458 0.0
C2176 C 0.41014 0.75353 0.34981 0.0
C2177 C 0.41701 0.76086 0.34424 0.0
C2178 C 0.49175 0.17724 0.61118 0.0
C2179 C 0.48733 0.17465 0.6011 0.0
C2180 C 0.49922 0.17045 0.61618 0.0
C2181 C 0.50278 0.16098 0.61114 0.0
H2182 H 0.4893 0.1845 0.61533 0.0
H2183 H 0.50239 0.17276 0.62396 0.0
S2184 S 0.49379 0.15062 0.58466 0.0
N2185 N 0.48697 0.1619 0.58629 0.0
N2186 N 0.50133 0.14932 0.59552 0.0
C2187 C 0.4985 0.15832 0.60102 0.0
C2188 C 0.49069 0.16511 0.59605 0.0
C2189 C 0.08718 0.23378 0.84954 0.0
C2190 C 0.07864 0.2362 0.84253 0.0
C2191 C 0.09318 0.24197 0.85446 0.0
C2192 C 0.09102 0.25287 0.85237 0.0
H2193 H 0.08915 0.2255 0.8514 0.0
H2194 H 0.09961 0.23972 0.85989 0.0
S2195 S 0.06967 0.26347 0.83441 0.0
N2196 N 0.06837 0.25028 0.83367 0.0
N2197 N 0.07979 0.26565 0.84272 0.0
C2198 C 0.0826 0.2554 0.84525 0.0
C2199 C 0.07636 0.24707 0.84039 0.0
C2200 C 0.39179 0.01396 0.15638 0.0
C2201 C 0.39994 0.01176 0.16391 0.0
C2202 C 0.38638 0.00563 0.15105 0.0
C2203 C 0.38908 0.9948 0.15286 0.0
H2204 H 0.38941 0.02218 0.15474 0.0
H2205 H 0.38007 0.00772 0.14542 0.0
S2206 S 0.41008 0.98475 0.17154 0.0
N2207 N 0.41056 0.99795 0.17281 0.0
N2208 N 0.40056 0.98232 0.1626 0.0
C2209 C 0.39735 0.99249 0.16022 0.0
C2210 C 0.40273 0.00096 0.1658 0.0
C2211 C 0.25185 0.16238 0.4245 0.0
C2212 C 0.24151 0.16029 0.42043 0.0
C2213 C 0.26109 0.15892 0.41905 0.0
C2214 C 0.26036 0.15306 0.4094 0.0
H2215 H 0.25286 0.16684 0.43192 0.0
H2216 H 0.26886 0.16075 0.42253 0.0
S2217 S 0.23515 0.14536 0.39538 0.0
N2218 N 0.23106 0.15198 0.40613 0.0
N2219 N 0.24841 0.14532 0.39598 0.0
C2220 C 0.25006 0.15085 0.40526 0.0
C2221 C 0.24064 0.15451 0.41074 0.0
C2222 C 0.10495 0.98584 0.66032 0.0
C2223 C 0.0972 0.9884 0.66815 0.0
C2224 C 0.11034 0.99391 0.65459 0.0
C2225 C 0.108 0.00485 0.6563 0.0
H2226 H 0.10702 0.97753 0.65872 0.0
H2227 H 0.11633 0.99156 0.64872 0.0
S2228 S 0.08816 0.0158 0.67571 0.0
N2229 N 0.08738 0.00264 0.67726 0.0
N2230 N 0.09732 0.01781 0.66632 0.0
C2231 C 0.10015 0.00752 0.66399 0.0
C2232 C 0.09481 0.9993 0.66997 0.0
C2233 C 0.25788 0.84864 0.9127 0.0
C2234 C 0.26114 0.8529 0.92266 0.0
C2235 C 0.25076 0.85429 0.90601 0.0
C2236 C 0.24692 0.86453 0.90892 0.0
H2237 H 0.2607 0.84081 0.91013 0.0
H2238 H 0.24833 0.85067 0.89847 0.0
S2239 S 0.25327 0.87933 0.93403 0.0
N2240 N 0.26005 0.86796 0.93507 0.0
N2241 N 0.24695 0.87871 0.92237 0.0
C2242 C 0.25026 0.86894 0.91877 0.0
C2243 C 0.25729 0.86308 0.92568 0.0
C2244 C 0.40835 0.99336 0.33283 0.0
C2245 C 0.40121 0.98945 0.32499 0.0
C2246 C 0.40529 0.00161 0.33989 0.0
C2247 C 0.39487 0.006 0.33956 0.0
H2248 H 0.41646 0.99021 0.33335 0.0
H2249 H 0.4111 0.00453 0.34569 0.0
S2250 S 0.37303 0.99826 0.32077 0.0
N2251 N 0.38324 0.99047 0.31738 0.0
N2252 N 0.37736 0.00571 0.33087 0.0
C2253 C 0.38758 0.00198 0.33192 0.0
C2254 C 0.39078 0.99377 0.32456 0.0
C2255 C 0.25155 0.15284 0.58065 0.0
C2256 C 0.26246 0.15088 0.58288 0.0
C2257 C 0.2434 0.14817 0.58688 0.0
C2258 C 0.24585 0.14116 0.59541 0.0
H2259 H 0.24928 0.15806 0.57406 0.0
H2260 H 0.23511 0.14987 0.58482 0.0
S2261 S 0.27316 0.13345 0.60462 0.0
N2262 N 0.2753 0.14162 0.59437 0.0
N2263 N 0.25996 0.13262 0.6059 0.0
C2264 C 0.25672 0.13915 0.59776 0.0
C2265 C 0.26503 0.14408 0.59155 0.0
C2266 C 0.09529 0.0035 0.83022 0.0
C2267 C 0.09737 0.01425 0.83303 0.0
C2268 C 0.09981 0.99497 0.83604 0.0
C2269 C 0.10675 0.99688 0.84477 0.0
H2270 H 0.09008 0.00163 0.82349 0.0
H2271 H 0.09799 0.98683 0.83355 0.0
S2272 S 0.11477 0.02358 0.85541 0.0
N2273 N 0.10673 0.02635 0.84522 0.0
N2274 N 0.11541 0.01033 0.85602 0.0
C2275 C 0.10891 0.00759 0.84767 0.0
C2276 C 0.10416 0.01628 0.84185 0.0
C2277 C 0.2479 0.84319 0.07937 0.0
C2278 C 0.23708 0.84554 0.08172 0.0
C2279 C 0.25628 0.84777 0.08536 0.0
C2280 C 0.25418 0.85504 0.09376 0.0
H2281 H 0.24992 0.83771 0.07291 0.0
H2282 H 0.26448 0.84572 0.08324 0.0
S2283 S 0.22726 0.86387 0.10312 0.0
N2284 N 0.22472 0.85553 0.09311 0.0
N2285 N 0.24049 0.86431 0.10419 0.0
C2286 C 0.24341 0.85748 0.09618 0.0
C2287 C 0.23486 0.85267 0.09021 0.0
C2288 C 0.17314 0.40836 0.99888 0.0
C2289 C 0.17002 0.40622 0.00954 0.0
C2290 C 0.16726 0.40433 0.99016 0.0
C2291 C 0.15814 0.39782 0.99175 0.0
H2292 H 0.18014 0.41328 0.99725 0.0
H2293 H 0.16999 0.40621 0.9821 0.0
S2294 S 0.14663 0.38976 0.01807 0.0
N2295 N 0.15716 0.39721 0.02121 0.0
N2296 N 0.14624 0.38944 0.00481 0.0
C2297 C 0.15495 0.39556 0.00236 0.0
C2298 C 0.16085 0.39982 0.01126 0.0
C2299 C 0.6611 0.10095 0.98717 0.0
C2300 C 0.66897 0.09373 0.99089 0.0
C2301 C 0.65499 0.10712 0.99437 0.0
C2302 C 0.65635 0.10608 0.00555 0.0
H2303 H 0.65981 0.10203 0.97862 0.0
H2304 H 0.64914 0.11271 0.99114 0.0
S2305 S 0.67563 0.08801 0.0194 0.0
N2306 N 0.67769 0.08578 0.00647 0.0
N2307 N 0.66601 0.09714 0.02001 0.0
C2308 C 0.66402 0.09872 0.00938 0.0
C2309 C 0.6704 0.09261 0.00205 0.0
C2310 C 0.15374 0.41437 0.24152 0.0
C2311 C 0.14882 0.42382 0.23775 0.0
C2312 C 0.14867 0.40784 0.24921 0.0
C2313 C 0.13837 0.41038 0.25312 0.0
H2314 H 0.16165 0.4121 0.23867 0.0
H2315 H 0.1528 0.4007 0.25201 0.0
S2316 S 0.12192 0.43409 0.24556 0.0
N2317 N 0.13306 0.43537 0.23844 0.0
N2318 N 0.12339 0.42293 0.2526 0.0
C2319 C 0.13329 0.41971 0.24927 0.0
C2320 C 0.13855 0.42649 0.24166 0.0
C2321 C 0.83543 0.90201 0.49697 0.0
C2322 C 0.83735 0.90164 0.48583 0.0
C2323 C 0.84227 0.89678 0.50424 0.0
C2324 C 0.85117 0.8908 0.50065 0.0
H2325 H 0.82858 0.90637 0.50011 0.0
H2326 H 0.84039 0.89722 0.51274 0.0
S2327 S 0.85987 0.88746 0.4723 0.0
N2328 N 0.84899 0.89503 0.47156 0.0
N2329 N 0.8617 0.88501 0.48522 0.0
C2330 C 0.85325 0.89043 0.48954 0.0
C2331 C 0.84639 0.89591 0.48213 0.0
C2332 C 0.85562 0.09171 0.23468 0.0
C2333 C 0.84833 0.08351 0.23744 0.0
C2334 C 0.86108 0.09757 0.24262 0.0
C2335 C 0.85926 0.09562 0.25361 0.0
H2336 H 0.85732 0.09346 0.22632 0.0
H2337 H 0.86676 0.10368 0.24012 0.0
S2338 S 0.84065 0.0753 0.26508 0.0
N2339 N 0.83943 0.07387 0.25193 0.0
N2340 N 0.84948 0.08506 0.26685 0.0
C2341 C 0.8518 0.08762 0.25648 0.0
C2342 C 0.8464 0.08151 0.2484 0.0
C2343 C 0.32833 0.59155 0.4989 0.0
C2344 C 0.33234 0.59413 0.50915 0.0
C2345 C 0.33375 0.59472 0.48954 0.0
C2346 C 0.34329 0.60077 0.49005 0.0
H2347 H 0.32097 0.58696 0.49807 0.0
H2348 H 0.33031 0.59255 0.48184 0.0
S2349 S 0.35719 0.60965 0.51493 0.0
N2350 N 0.34653 0.60303 0.51927 0.0
N2351 N 0.3566 0.60916 0.50168 0.0
C2352 C 0.3474 0.60343 0.50025 0.0
C2353 C 0.34197 0.60006 0.5098 0.0
C2354 C 0.1483 0.58724 0.2658 0.0
C2355 C 0.1556 0.57899 0.26321 0.0
C2356 C 0.14311 0.59316 0.25774 0.0
C2357 C 0.1452 0.59124 0.24679 0.0
H2358 H 0.14643 0.58901 0.27412 0.0
H2359 H 0.13746 0.59936 0.26012 0.0
S2360 S 0.16387 0.57073 0.23576 0.0
N2361 N 0.16474 0.56926 0.24893 0.0
N2362 N 0.15518 0.58057 0.23378 0.0
C2363 C 0.15262 0.58313 0.24409 0.0
C2364 C 0.15775 0.57696 0.2523 0.0
C2365 C 0.36226 0.42455 0.76001 0.0
C2366 C 0.35196 0.42172 0.76369 0.0
C2367 C 0.36817 0.41764 0.75336 0.0
C2368 C 0.36387 0.40777 0.74991 0.0
H2369 H 0.36586 0.43212 0.76239 0.0
H2370 H 0.37609 0.42016 0.75073 0.0
S2371 S 0.33718 0.39664 0.75719 0.0
N2372 N 0.33772 0.40832 0.76349 0.0
N2373 N 0.34869 0.39548 0.75066 0.0
C2374 C 0.35354 0.40487 0.75345 0.0
C2375 C 0.34762 0.41179 0.76044 0.0
C2376 C 0.98288 0.8439 0.58585 0.0
C2377 C 0.97737 0.85102 0.59271 0.0
C2378 C 0.99408 0.84277 0.58636 0.0
C2379 C 0.00027 0.84877 0.59371 0.0
H2380 H 0.97853 0.83908 0.58005 0.0
H2381 H 0.99791 0.83716 0.58092 0.0
S2382 S 0.98977 0.86862 0.61341 0.0
N2383 N 0.97898 0.86422 0.60707 0.0
N2384 N 1e-05 0.86214 0.608 0.0
C2385 C 0.99487 0.85597 0.60059 0.0
C2386 C 0.98344 0.85708 0.6001 0.0
C2387 C 0.90009 0.23353 0.34404 0.0
C2388 C 0.90639 0.22763 0.33672 0.0
C2389 C 0.90135 0.24466 0.3452 0.0
C2390 C 0.909 0.25038 0.33914 0.0
H2391 H 0.8941 0.22953 0.34894 0.0
H2392 H 0.89628 0.24879 0.35096 0.0
S2393 S 0.92757 0.23875 0.31883 0.0
N2394 N 0.9206 0.22837 0.32327 0.0
N2395 N 0.92299 0.24928 0.32548 0.0
C2396 C 0.91538 0.24459 0.33178 0.0
C2397 C 0.91406 0.23324 0.33056 0.0
C2398 C 0.51837 0.14653 0.09824 0.0
C2399 C 0.52476 0.15255 0.09111 0.0
C2400 C 0.50716 0.14765 0.09842 0.0
C2401 C 0.50186 0.15491 0.09154 0.0
H2402 H 0.52202 0.14082 0.10371 0.0
H2403 H 0.50263 0.1428 0.10406 0.0
S2404 S 0.51489 0.17273 0.07141 0.0
N2405 N 0.52495 0.16613 0.077 0.0
N2406 N 0.50391 0.16828 0.07739 0.0
C2407 C 0.50815 0.16104 0.08439 0.0
C2408 C 0.51958 0.15985 0.08416 0.0
C2409 C 0.59258 0.77104 0.8395 0.0
C2410 C 0.59979 0.77592 0.84674 0.0
C2411 C 0.59067 0.75994 0.83973 0.0
C2412 C 0.59596 0.75322 0.84714 0.0
H2413 H 0.5883 0.77584 0.83362 0.0
H2414 H 0.58504 0.75661 0.83397 0.0
S2415 S 0.61564 0.76194 0.86784 0.0
N2416 N 0.61224 0.77314 0.86157 0.0
N2417 N 0.60871 0.75228 0.86195 0.0
C2418 C 0.60321 0.75797 0.85442 0.0
C2419 C 0.6051 0.76931 0.85424 0.0
C2420 C 0.98308 0.15926 0.91358 0.0
C2421 C 0.97805 0.15124 0.90738 0.0
C2422 C 0.9942 0.161 0.91302 0.0
C2423 C 0.0008 0.15475 0.90628 0.0
H2424 H 0.9784 0.16429 0.91894 0.0
H2425 H 0.99764 0.16726 0.91801 0.0
S2426 S 0.99165 0.13277 0.88823 0.0
N2427 N 0.98056 0.13703 0.89414 0.0
N2428 N 0.00145 0.14027 0.89313 0.0
C2429 C 0.99589 0.14672 0.89998 0.0
C2430 C 0.98454 0.14498 0.90051 0.0
C2431 C 0.6083 0.23297 0.64808 0.0
C2432 C 0.60262 0.22617 0.65512 0.0
C2433 C 0.60689 0.24415 0.64834 0.0
C2434 C 0.59969 0.249 0.6556 0.0
H2435 H 0.61392 0.22966 0.64231 0.0
H2436 H 0.61146 0.249 0.64273 0.0
S2437 S 0.58282 0.2348 0.67575 0.0
N2438 N 0.58949 0.22512 0.6696 0.0
N2439 N 0.58681 0.2461 0.67005 0.0
C2440 C 0.59394 0.2423 0.66269 0.0
C2441 C 0.59542 0.2309 0.66247 0.0
C2442 C 0.51438 0.85674 0.40109 0.0
C2443 C 0.5203 0.85053 0.40846 0.0
C2444 C 0.50314 0.85607 0.40056 0.0
C2445 C 0.49734 0.8491 0.40733 0.0
H2446 H 0.51843 0.86224 0.39569 0.0
H2447 H 0.499 0.86105 0.39474 0.0
S2448 S 0.509 0.83096 0.42801 0.0
N2449 N 0.5195 0.83709 0.42268 0.0
N2450 N 0.49841 0.83579 0.42165 0.0
C2451 C 0.50315 0.84279 0.41473 0.0
C2452 C 0.51461 0.84351 0.4153 0.0
C2453 C 0.90541 0.77036 0.16217 0.0
C2454 C 0.8981 0.7752 0.15502 0.0
C2455 C 0.90737 0.75926 0.16192 0.0
C2456 C 0.90203 0.75252 0.15457 0.0
H2457 H 0.90975 0.77517 0.16799 0.0
H2458 H 0.91309 0.75596 0.1676 0.0
S2459 S 0.88202 0.76114 0.13413 0.0
N2460 N 0.88545 0.77235 0.14035 0.0
N2461 N 0.88908 0.75151 0.13993 0.0
C2462 C 0.89465 0.75723 0.14739 0.0
C2463 C 0.89271 0.76856 0.1476 0.0
C2464 C 0.59916 0.98932 0.85272 0.0
C2465 C 0.60078 0.98295 0.84352 0.0
C2466 C 0.6052 0.99871 0.85439 0.0
C2467 C 0.6133 0.00176 0.84713 0.0
H2468 H 0.59308 0.98711 0.85856 0.0
H2469 H 0.60368 0.00348 0.86152 0.0
S2470 S 0.6208 0.98769 0.82197 0.0
N2471 N 0.61093 0.98038 0.82703 0.0
N2472 N 0.62266 0.99772 0.83048 0.0
C2473 C 0.61508 0.99539 0.83799 0.0
C2474 C 0.60871 0.98605 0.83611 0.0
C2475 C 0.77235 0.84642 0.57909 0.0
C2476 C 0.77644 0.83877 0.58634 0.0
C2477 C 0.76407 0.85344 0.58211 0.0
C2478 C 0.75936 0.85282 0.59237 0.0
H2479 H 0.77583 0.84725 0.57114 0.0
H2480 H 0.76135 0.85942 0.57638 0.0
S2481 S 0.76677 0.83377 0.61408 0.0
N2482 N 0.77502 0.83079 0.60411 0.0
N2483 N 0.75913 0.8437 0.60966 0.0
C2484 C 0.76311 0.84495 0.59956 0.0
C2485 C 0.77175 0.838 0.59658 0.0
C2486 C 0.90444 0.01389 0.35085 0.0
C2487 C 0.9116 0.01964 0.34424 0.0
C2488 C 0.90363 0.00267 0.35025 0.0
C2489 C 0.90992 0.9967 0.34297 0.0
H2490 H 0.89943 0.01806 0.35662 0.0
H2491 H 0.89802 0.99866 0.35557 0.0
S2492 S 0.92982 0.00787 0.32369 0.0
N2493 N 0.92505 0.01849 0.33006 0.0
N2494 N 0.92351 0.99742 0.3289 0.0
C2495 C 0.91707 0.00234 0.33624 0.0
C2496 C 0.91792 0.01379 0.33688 0.0
C2497 C 0.73467 0.15265 0.10144 0.0
C2498 C 0.7285 0.15974 0.09514 0.0
C2499 C 0.74584 0.15193 0.10021 0.0
C2500 C 0.75134 0.15822 0.09257 0.0
H2501 H 0.73086 0.14764 0.10746 0.0
H2502 H 0.75019 0.14638 0.10531 0.0
S2503 S 0.73893 0.17793 0.07385 0.0
N2504 N 0.72873 0.17311 0.08084 0.0
N2505 N 0.74971 0.17173 0.07849 0.0
C2506 C 0.74527 0.16529 0.08613 0.0
C2507 C 0.73387 0.16606 0.08742 0.0
C2508 C 0.58045 0.01658 0.65976 0.0
C2509 C 0.58702 0.02198 0.65229 0.0
C2510 C 0.58126 0.00545 0.66131 0.0
C2511 C 0.58864 0.99921 0.65543 0.0
H2512 H 0.57461 0.02097 0.6645 0.0
H2513 H 0.57597 0.00173 0.66714 0.0
S2514 S 0.60783 0.0094 0.63493 0.0
N2515 N 0.60127 0.0202 0.63899 0.0
N2516 N 0.60276 0.99929 0.64188 0.0
C2517 C 0.5953 0.00449 0.64795 0.0
C2518 C 0.5945 0.01585 0.64639 0.0
C2519 C 0.73208 0.83601 0.40802 0.0
C2520 C 0.72663 0.84279 0.40078 0.0
C2521 C 0.74321 0.83686 0.40959 0.0
C2522 C 0.74938 0.84446 0.40391 0.0
H2523 H 0.72773 0.83001 0.41259 0.0
H2524 H 0.747 0.83143 0.41524 0.0
S2525 S 0.73902 0.86417 0.384 0.0
N2526 N 0.72827 0.85743 0.38789 0.0
N2527 N 0.74918 0.85897 0.39078 0.0
C2528 C 0.74404 0.8513 0.39663 0.0
C2529 C 0.73268 0.85048 0.39509 0.0
C2530 C 0.91624 0.98279 0.16142 0.0
C2531 C 0.91004 0.97675 0.15413 0.0
C2532 C 0.91523 0.99399 0.16211 0.0
C2533 C 0.90801 0.99966 0.15549 0.0
H2534 H 0.92194 0.97885 0.16671 0.0
H2535 H 0.92021 0.99822 0.16786 0.0
S2536 S 0.88984 0.98768 0.13502 0.0
N2537 N 0.89636 0.97731 0.14015 0.0
N2538 N 0.89448 0.99835 0.1414 0.0
C2539 C 0.90174 0.99374 0.14815 0.0
C2540 C 0.90275 0.9823 0.14748 0.0
C2541 C 0.76254 0.14811 0.8996 0.0
C2542 C 0.76838 0.15557 0.9058 0.0
C2543 C 0.75139 0.147 0.90073 0.0
C2544 C 0.74557 0.15327 0.90814 0.0
H2545 H 0.7666 0.14309 0.89376 0.0
H2546 H 0.74731 0.14116 0.89572 0.0
S2547 S 0.75701 0.1739 0.92648 0.0
N2548 N 0.76747 0.16929 0.91974 0.0
N2549 N 0.74653 0.16718 0.92188 0.0
C2550 C 0.7513 0.16072 0.91446 0.0
C2551 C 0.76268 0.16188 0.91328 0.0
C2552 C 0.85367 0.59954 0.98318 0.0
C2553 C 0.84783 0.59262 0.9764 0.0
C2554 C 0.85189 0.59972 0.99431 0.0
C2555 C 0.84412 0.59305 0.99913 0.0
H2556 H 0.85974 0.60486 0.9799 0.0
H2557 H 0.85663 0.60519 0.99915 0.0
S2558 S 0.82655 0.57348 0.98497 0.0
N2559 N 0.83389 0.57891 0.97534 0.0
N2560 N 0.8305 0.57929 0.99622 0.0
C2561 C 0.83818 0.5861 0.99245 0.0
C2562 C 0.84004 0.58587 0.98111 0.0
C2563 C 0.33543 0.92104 0.01541 0.0
C2564 C 0.34234 0.91627 0.023 0.0
C2565 C 0.33613 0.91852 0.00445 0.0
C2566 C 0.34378 0.91112 0.00059 0.0
H2567 H 0.32938 0.92678 0.01793 0.0
H2568 H 0.3306 0.92243 0.99898 0.0
S2569 S 0.36382 0.89635 0.01711 0.0
N2570 N 0.35713 0.90376 0.02585 0.0
N2571 N 0.35845 0.89904 0.00528 0.0
C2572 C 0.35076 0.90629 0.00808 0.0
C2573 C 0.35005 0.90886 0.01927 0.0
C2574 C 0.84828 0.60204 0.76571 0.0
C2575 C 0.84129 0.59585 0.7721 0.0
C2576 C 0.84861 0.60082 0.75451 0.0
C2577 C 0.84202 0.5933 0.74922 0.0
H2578 H 0.85353 0.60796 0.76936 0.0
H2579 H 0.85412 0.60583 0.74999 0.0
S2580 S 0.82238 0.57493 0.76224 0.0
N2581 N 0.82766 0.58181 0.77229 0.0
N2582 N 0.82831 0.57948 0.75127 0.0
C2583 C 0.83503 0.58698 0.75551 0.0
C2584 C 0.83465 0.58827 0.76693 0.0
C2585 C 0.14984 0.09784 0.51218 0.0
C2586 C 0.15624 0.09075 0.51825 0.0
C2587 C 0.15109 0.09875 0.50102 0.0
C2588 C 0.15882 0.09266 0.49544 0.0
H2589 H 0.14375 0.10271 0.51605 0.0
H2590 H 0.14591 0.1043 0.49675 0.0
S2591 S 0.17777 0.073 0.50757 0.0
N2592 N 0.17071 0.07757 0.51784 0.0
N2593 N 0.17306 0.07931 0.49689 0.0
C2594 C 0.16534 0.08558 0.50141 0.0
C2595 C 0.16404 0.08461 0.51279 0.0
C2596 C 0.15203 0.89603 0.76699 0.0
C2597 C 0.15973 0.90226 0.77246 0.0
C2598 C 0.15082 0.8967 0.75581 0.0
C2599 C 0.15723 0.90366 0.7496 0.0
H2600 H 0.14687 0.89053 0.77136 0.0
H2601 H 0.14478 0.8917 0.75203 0.0
S2602 S 0.17855 0.92183 0.76 0.0
N2603 N 0.17386 0.91571 0.77079 0.0
N2604 N 0.17157 0.91699 0.7498 0.0
C2605 C 0.16495 0.90998 0.75496 0.0
C2606 C 0.16621 0.90928 0.76637 0.0
C2607 C 0.6488 0.40501 0.48442 0.0
C2608 C 0.6554 0.41253 0.47912 0.0
C2609 C 0.64912 0.40379 0.49561 0.0
C2610 C 0.65608 0.41 0.50201 0.0
H2611 H 0.64327 0.40003 0.47989 0.0
H2612 H 0.64383 0.39791 0.49925 0.0
S2613 S 0.67519 0.43074 0.49213 0.0
N2614 N 0.66922 0.42624 0.48117 0.0
N2615 N 0.66984 0.42393 0.50219 0.0
C2616 C 0.66279 0.41752 0.49683 0.0
C2617 C 0.66244 0.41879 0.48541 0.0
C2618 C 0.83229 0.41257 0.73271 0.0
C2619 C 0.8381 0.40494 0.72669 0.0
C2620 C 0.83354 0.4134 0.74387 0.0
C2621 C 0.84061 0.4066 0.74952 0.0
H2622 H 0.82676 0.41802 0.72877 0.0
H2623 H 0.82889 0.41943 0.74809 0.0
S2624 S 0.85767 0.38518 0.73759 0.0
N2625 N 0.85119 0.3904 0.72726 0.0
N2626 N 0.8535 0.39193 0.74823 0.0
C2627 C 0.84644 0.39889 0.74363 0.0
C2628 C 0.8452 0.39808 0.73223 0.0
C2629 C 0.65181 0.60581 0.23151 0.0
C2630 C 0.65932 0.59954 0.22582 0.0
C2631 C 0.65101 0.60525 0.24273 0.0
C2632 C 0.65766 0.59835 0.24877 0.0
H2633 H 0.64647 0.61124 0.22728 0.0
H2634 H 0.64507 0.61024 0.24669 0.0
S2635 S 0.6787 0.58021 0.23779 0.0
N2636 N 0.67359 0.5862 0.22711 0.0
N2637 N 0.67207 0.58511 0.24818 0.0
C2638 C 0.66523 0.59203 0.2432 0.0
C2639 C 0.66607 0.59263 0.23175 0.0
C2640 C 0.515 0.65585 0.89272 0.0
C2641 C 0.51192 0.66322 0.90072 0.0
C2642 C 0.50732 0.65009 0.88682 0.0
C2643 C 0.49626 0.6513 0.88887 0.0
H2644 H 0.52342 0.65468 0.89081 0.0
H2645 H 0.51007 0.64462 0.88063 0.0
S2646 S 0.48399 0.66931 0.90927 0.0
N2647 N 0.49705 0.6713 0.91052 0.0
N2648 N 0.48261 0.66029 0.89962 0.0
C2649 C 0.49307 0.65848 0.89701 0.0
C2650 C 0.50089 0.6645 0.90288 0.0
C2651 C 0.58893 0.26594 0.14778 0.0
C2652 C 0.58075 0.26298 0.15501 0.0
C2653 C 0.59498 0.25814 0.14231 0.0
C2654 C 0.59325 0.24711 0.14408 0.0
H2655 H 0.59055 0.27434 0.14616 0.0
H2656 H 0.6011 0.2608 0.13672 0.0
S2657 S 0.573 0.23515 0.16246 0.0
N2658 N 0.57131 0.24826 0.16374 0.0
N2659 N 0.58285 0.23361 0.15369 0.0
C2660 C 0.58522 0.24404 0.15144 0.0
C2661 C 0.57892 0.25197 0.15684 0.0
C2662 C 0.98712 0.34206 0.39782 0.0
C2663 C 0.98927 0.3338 0.40525 0.0
C2664 C 0.99547 0.3478 0.39289 0.0
C2665 C 0.0063 0.34566 0.39537 0.0
H2666 H 0.97891 0.34397 0.39562 0.0
H2667 H 0.99342 0.35399 0.38712 0.0
S2668 S 0.01625 0.32508 0.41457 0.0
N2669 N 0.00303 0.32388 0.41498 0.0
N2670 N 0.01873 0.33481 0.40589 0.0
C2671 C 0.00857 0.33756 0.40294 0.0
C2672 C 6e-05 0.33159 0.40783 0.0
C2673 C 0.90873 0.73446 0.64173 0.0
C2674 C 0.9162 0.73737 0.64971 0.0
C2675 C 0.90323 0.7423 0.63578 0.0
C2676 C 0.90478 0.75331 0.63779 0.0
H2677 H 0.9073 0.72607 0.63989 0.0
H2678 H 0.89767 0.7397 0.6296 0.0
S2679 S 0.92319 0.76513 0.65808 0.0
N2680 N 0.92479 0.75201 0.6594 0.0
N2681 N 0.9142 0.76674 0.64845 0.0
C2682 C 0.91206 0.75633 0.64591 0.0
C2683 C 0.91784 0.74835 0.6518 0.0
C2684 C 0.50887 0.32481 0.61286 0.0
C2685 C 0.51243 0.32764 0.60251 0.0
C2686 C 0.50198 0.33154 0.61869 0.0
C2687 C 0.49814 0.34121 0.61426 0.0
H2688 H 0.51158 0.3174 0.61657 0.0
H2689 H 0.49949 0.32905 0.62666 0.0
S2690 S 0.5049 0.35221 0.58737 0.0
N2691 N 0.51166 0.3408 0.58807 0.0
N2692 N 0.49836 0.35329 0.59889 0.0
C2693 C 0.50153 0.34409 0.60386 0.0
C2694 C 0.50877 0.33735 0.59803 0.0
C2695 C 0.90747 0.26226 0.8538 0.0
C2696 C 0.91582 0.26044 0.84639 0.0
C2697 C 0.90186 0.25369 0.85849 0.0
C2698 C 0.90421 0.24297 0.85575 0.0
H2699 H 0.90539 0.27038 0.85618 0.0
H2700 H 0.89559 0.25548 0.86426 0.0
S2701 S 0.9251 0.23387 0.83647 0.0
N2702 N 0.92607 0.24711 0.8364 0.0
N2703 N 0.91535 0.231 0.84501 0.0
C2704 C 0.9124 0.24103 0.84819 0.0
C2705 C 0.91825 0.24976 0.84357 0.0
C2706 C 0.9993 0.67004 0.09453 0.0
C2707 C 0.98848 0.6676 0.09676 0.0
C2708 C 0.00769 0.6641 0.09914 0.0
C2709 C 0.00559 0.65562 0.10634 0.0
H2710 H 0.00132 0.67657 0.08912 0.0
H2711 H 0.01589 0.6663 0.0972 0.0
S2712 S 0.97867 0.64597 0.11483 0.0
N2713 N 0.97612 0.65602 0.10653 0.0
N2714 N 0.9919 0.645 0.11539 0.0
C2715 C 0.99481 0.65309 0.10865 0.0
C2716 C 0.98626 0.65902 0.1038 0.0
C2717 C 0.5777 0.74784 0.345 0.0
C2718 C 0.57994 0.73699 0.34729 0.0
C2719 C 0.58363 0.75615 0.34978 0.0
C2720 C 0.59186 0.75394 0.35721 0.0
H2721 H 0.57138 0.74994 0.33938 0.0
H2722 H 0.5816 0.76438 0.34776 0.0
S2723 S 0.60086 0.72689 0.36602 0.0
N2724 N 0.59104 0.72447 0.35743 0.0
N2725 N 0.602 0.74011 0.3666 0.0
C2726 C 0.59416 0.74313 0.35962 0.0
C2727 C 0.58826 0.73466 0.3546 0.0
C2728 C 0.90253 0.50309 0.6684 0.0
C2729 C 0.901 0.51418 0.66682 0.0
C2730 C 0.89714 0.4955 0.66204 0.0
C2731 C 0.88984 0.49872 0.65402 0.0
H2732 H 0.90798 0.50023 0.67456 0.0
H2733 H 0.89855 0.48705 0.66357 0.0
S2734 S 0.88299 0.52681 0.64666 0.0
N2735 N 0.89178 0.52803 0.65654 0.0
N2736 N 0.88144 0.51376 0.64477 0.0
C2737 C 0.88823 0.50979 0.65236 0.0
C2738 C 0.89388 0.51752 0.6587 0.0
C2739 C 0.73565 0.64501 0.90931 0.0
C2740 C 0.73803 0.65243 0.9175 0.0
C2741 C 0.74385 0.64005 0.90337 0.0
C2742 C 0.75473 0.64253 0.90523 0.0
H2743 H 0.72739 0.64282 0.90761 0.0
H2744 H 0.74164 0.63427 0.89724 0.0
S2745 S 0.76522 0.66173 0.92553 0.0
N2746 N 0.75204 0.66215 0.92707 0.0
N2747 N 0.76744 0.65305 0.91573 0.0
C2748 C 0.75721 0.65011 0.91325 0.0
C2749 C 0.74887 0.65499 0.91944 0.0
C2750 C 0.60064 0.48438 0.16334 0.0
C2751 C 0.59364 0.487 0.17183 0.0
C2752 C 0.60578 0.49241 0.15733 0.0
C2753 C 0.60392 0.50337 0.15943 0.0
H2754 H 0.60231 0.47604 0.16143 0.0
H2755 H 0.61119 0.49001 0.15094 0.0
S2756 S 0.58609 0.51449 0.18062 0.0
N2757 N 0.58505 0.50133 0.18198 0.0
N2758 N 0.5945 0.51643 0.17053 0.0
C2759 C 0.59681 0.50611 0.16779 0.0
C2760 C 0.59174 0.49792 0.17404 0.0
C2761 C 0.74875 0.34042 0.41968 0.0
C2762 C 0.75906 0.34332 0.41604 0.0
C2763 C 0.73948 0.34385 0.41427 0.0
C2764 C 0.74014 0.35046 0.40511 0.0
H2765 H 0.74781 0.33539 0.42672 0.0
H2766 H 0.73173 0.34141 0.4174 0.0
S2767 S 0.76522 0.36036 0.39232 0.0
N2768 N 0.7694 0.35315 0.40265 0.0
N2769 N 0.75196 0.35974 0.39259 0.0
C2770 C 0.7504 0.35345 0.40139 0.0
C2771 C 0.75986 0.34983 0.40682 0.0
C2772 C 0.90551 0.49652 0.83287 0.0
C2773 C 0.90315 0.48564 0.83485 0.0
C2774 C 0.90044 0.50473 0.83868 0.0
C2775 C 0.89264 0.50239 0.84653 0.0
H2776 H 0.91136 0.49872 0.8268 0.0
H2777 H 0.9025 0.513 0.83684 0.0
S2778 S 0.88358 0.4752 0.85483 0.0
N2779 N 0.89261 0.47294 0.84536 0.0
N2780 N 0.8829 0.4884 0.85611 0.0
C2781 C 0.89021 0.49155 0.84862 0.0
C2782 C 0.89552 0.48317 0.84284 0.0
C2783 C 0.76434 0.64713 0.09265 0.0
C2784 C 0.76229 0.65477 0.08456 0.0
C2785 C 0.75591 0.64212 0.0982 0.0
C2786 C 0.74511 0.64472 0.09603 0.0
H2787 H 0.77252 0.64485 0.09458 0.0
H2788 H 0.75788 0.6362 0.10428 0.0
S2789 S 0.73545 0.66445 0.07583 0.0
N2790 N 0.74867 0.66481 0.07475 0.0
N2791 N 0.73284 0.65556 0.08534 0.0
C2792 C 0.74295 0.65248 0.0881 0.0
C2793 C 0.75154 0.65746 0.08231 0.0
C2794 C 0.6136 0.5073 0.32445 0.0
C2795 C 0.60352 0.51117 0.32778 0.0
C2796 C 0.61949 0.50014 0.33084 0.0
C2797 C 0.61537 0.49635 0.34067 0.0
H2798 H 0.61706 0.50995 0.3169 0.0
H2799 H 0.62724 0.4974 0.32797 0.0
S2800 S 0.58926 0.5039 0.35295 0.0
N2801 N 0.58967 0.51075 0.34158 0.0
N2802 N 0.60059 0.49697 0.35344 0.0
C2803 C 0.60525 0.50006 0.34406 0.0
C2804 C 0.59936 0.50757 0.33766 0.0
C2805 C 0.73333 0.35616 0.58795 0.0
C2806 C 0.73664 0.34895 0.57989 0.0
C2807 C 0.74085 0.36193 0.59405 0.0
C2808 C 0.75196 0.3605 0.5925 0.0
H2809 H 0.72485 0.35753 0.58941 0.0
H2810 H 0.73793 0.36751 0.60007 0.0
S2811 S 0.7648 0.3423 0.57264 0.0
N2812 N 0.75177 0.34059 0.57076 0.0
N2813 N 0.76591 0.35121 0.58242 0.0
C2814 C 0.75538 0.35316 0.58461 0.0
C2815 C 0.74772 0.34745 0.57824 0.0
C2816 C 0.65256 0.88468 0.51713 0.0
C2817 C 0.6584 0.8942 0.51534 0.0
C2818 C 0.64818 0.87882 0.50855 0.0
C2819 C 0.6493 0.88238 0.49787 0.0
H2820 H 0.6514 0.88166 0.52522 0.0
H2821 H 0.64376 0.87154 0.51033 0.0
S2822 S 0.66387 0.90681 0.48884 0.0
N2823 N 0.66516 0.90688 0.50205 0.0
N2824 N 0.65677 0.89598 0.48596 0.0
C2825 C 0.6551 0.8919 0.49596 0.0
C2826 C 0.65971 0.89777 0.50469 0.0
C2827 C 0.1691 0.59278 0.49803 0.0
C2828 C 0.16623 0.59439 0.48721 0.0
C2829 C 0.16318 0.59747 0.5064 0.0
C2830 C 0.15428 0.60412 0.50426 0.0
H2831 H 0.17596 0.58782 0.50008 0.0
H2832 H 0.16574 0.59603 0.5146 0.0
S2833 S 0.14339 0.61085 0.4773 0.0
N2834 N 0.15378 0.60298 0.47481 0.0
N2835 N 0.14278 0.61196 0.49052 0.0
C2836 C 0.1513 0.60578 0.49348 0.0
C2837 C 0.15723 0.60086 0.48496 0.0
C2838 C 0.65118 0.91988 0.74893 0.0
C2839 C 0.64979 0.91825 0.73783 0.0
C2840 C 0.64604 0.91328 0.75648 0.0
C2841 C 0.63912 0.90494 0.75321 0.0
H2842 H 0.65629 0.92632 0.75183 0.0
H2843 H 0.64729 0.91491 0.76494 0.0
S2844 S 0.63288 0.89723 0.72508 0.0
N2845 N 0.64119 0.90751 0.72392 0.0
N2846 N 0.63133 0.89526 0.73812 0.0
C2847 C 0.63772 0.90317 0.74213 0.0
C2848 C 0.64311 0.90977 0.73444 0.0
C2849 C 0.32937 0.40829 0.9998 0.0
C2850 C 0.33298 0.40601 0.98932 0.0
C2851 C 0.33489 0.40445 0.00884 0.0
C2852 C 0.34412 0.39799 0.00776 0.0
H2853 H 0.32226 0.41317 0.00105 0.0
H2854 H 0.33179 0.40642 0.01673 0.0
S2855 S 0.35687 0.38964 0.98211 0.0
N2856 N 0.34643 0.39694 0.97839 0.0
N2857 N 0.35668 0.38953 0.99538 0.0
C2858 C 0.34781 0.39561 0.99734 0.0
C2859 C 0.34228 0.39968 0.98812 0.0
C2860 C 0.3489 0.58239 0.74652 0.0
C2861 C 0.3512 0.58437 0.73562 0.0
C2862 C 0.35412 0.58812 0.7547 0.0
C2863 C 0.36201 0.59586 0.75231 0.0
H2864 H 0.34298 0.5764 0.74875 0.0
H2865 H 0.35211 0.5863 0.76298 0.0
S2866 S 0.37096 0.60408 0.72506 0.0
N2867 N 0.36177 0.59475 0.72286 0.0
N2868 N 0.37178 0.60531 0.73826 0.0
C2869 C 0.36439 0.59793 0.74145 0.0
C2870 C 0.35892 0.59225 0.7331 0.0
C2871 C 0.83904 0.10254 0.01598 0.0
C2872 C 0.8311 0.09492 0.01337 0.0
C2873 C 0.84482 0.10793 0.00794 0.0
C2874 C 0.84306 0.1057 0.99699 0.0
H2875 H 0.84066 0.10453 0.02431 0.0
H2876 H 0.85076 0.11383 0.01033 0.0
S2877 S 0.82341 0.08618 0.9859 0.0
N2878 N 0.82186 0.08532 0.99906 0.0
N2879 N 0.83292 0.09524 0.98395 0.0
C2880 C 0.83529 0.09795 0.99427 0.0
C2881 C 0.82925 0.09262 0.00245 0.0
C2882 C 0.65058 0.08973 0.75846 0.0
C2883 C 0.6581 0.08238 0.75428 0.0
C2884 C 0.64358 0.09538 0.75167 0.0
C2885 C 0.64403 0.09409 0.74044 0.0
H2886 H 0.64999 0.09101 0.76705 0.0
H2887 H 0.63785 0.10088 0.75524 0.0
S2888 S 0.66241 0.07597 0.72547 0.0
N2889 N 0.6656 0.07412 0.73822 0.0
N2890 N 0.65263 0.08495 0.72544 0.0
C2891 C 0.6516 0.08687 0.73615 0.0
C2892 C 0.65858 0.08095 0.74308 0.0
C2893 C 0.84639 0.91836 0.25393 0.0
C2894 C 0.84816 0.91647 0.26494 0.0
C2895 C 0.85152 0.91214 0.24606 0.0
C2896 C 0.85881 0.90396 0.24889 0.0
H2897 H 0.84093 0.92464 0.25136 0.0
H2898 H 0.84992 0.9139 0.23768 0.0
S2899 S 0.86626 0.89582 0.27661 0.0
N2900 N 0.85761 0.90575 0.27829 0.0
N2901 N 0.86746 0.89424 0.26348 0.0
C2902 C 0.86067 0.902 0.25987 0.0
C2903 C 0.85528 0.9082 0.2679 0.0
C2904 C 0.48678 0.35086 0.09464 0.0
C2905 C 0.48108 0.34395 0.08773 0.0
C2906 C 0.49793 0.34995 0.09596 0.0
C2907 C 0.50389 0.34205 0.09046 0.0
H2908 H 0.48262 0.35711 0.09905 0.0
H2909 H 0.5019 0.35553 0.10135 0.0
S2910 S 0.49281 0.32175 0.07154 0.0
N2911 N 0.48225 0.32879 0.07539 0.0
N2912 N 0.50319 0.32705 0.07789 0.0
C2913 C 0.49829 0.335 0.08358 0.0
C2914 C 0.48691 0.33596 0.0822 0.0
C2915 C 0.40718 0.73046 0.83469 0.0
C2916 C 0.4006 0.72425 0.8415 0.0
C2917 C 0.40789 0.74164 0.83583 0.0
C2918 C 0.40201 0.74713 0.84379 0.0
H2919 H 0.41188 0.72666 0.82842 0.0
H2920 H 0.41308 0.74601 0.83036 0.0
S2921 S 0.38358 0.73467 0.86373 0.0
N2922 N 0.38808 0.72447 0.85654 0.0
N2923 N 0.38938 0.74548 0.85865 0.0
C2924 C 0.39538 0.74104 0.85066 0.0
C2925 C 0.39469 0.72962 0.84953 0.0
C2926 C 0.01645 0.66172 0.58388 0.0
C2927 C 0.02274 0.65422 0.58958 0.0
C2928 C 0.00528 0.66222 0.58524 0.0
C2929 C 0.99989 0.65523 0.59233 0.0
H2930 H 0.02017 0.66728 0.57831 0.0
H2931 H 0.00085 0.66813 0.58063 0.0
S2932 S 0.01261 0.63416 0.60926 0.0
N2933 N 0.02272 0.63967 0.60267 0.0
N2934 N 0.00174 0.64061 0.6052 0.0
C2935 C 0.00607 0.64771 0.59811 0.0
C2936 C 0.01748 0.64721 0.59675 0.0
C2937 C 0.09029 0.26751 0.33527 0.0
C2938 C 0.09805 0.27335 0.34108 0.0
C2939 C 0.08914 0.25638 0.33658 0.0
C2940 C 0.09573 0.25058 0.34373 0.0
H2941 H 0.08501 0.27155 0.32964 0.0
H2942 H 0.08305 0.2523 0.33188 0.0
S2943 S 0.11728 0.26204 0.36095 0.0
N2944 N 0.11242 0.27247 0.35434 0.0
N2945 N 0.11028 0.25157 0.35678 0.0
C2946 C 0.10352 0.25631 0.34962 0.0
C2947 C 0.10468 0.26768 0.34831 0.0
C2948 C 0.4807 0.64329 0.39847 0.0
C2949 C 0.47464 0.6491 0.40606 0.0
C2950 C 0.49191 0.64421 0.39798 0.0
C2951 C 0.49758 0.65101 0.40503 0.0
H2952 H 0.47676 0.63794 0.39283 0.0
H2953 H 0.49616 0.63954 0.39197 0.0
S2954 S 0.48555 0.66807 0.4264 0.0
N2955 N 0.47518 0.66196 0.42081 0.0
N2956 N 0.49624 0.66371 0.41987 0.0
C2957 C 0.49164 0.6569 0.41266 0.0
C2958 C 0.48019 0.65594 0.41319 0.0
C2959 C 0.09573 0.73055 0.1665 0.0
C2960 C 0.1029 0.72484 0.15986 0.0
C2961 C 0.09478 0.74176 0.16582 0.0
C2962 C 0.101 0.74776 0.15851 0.0
H2963 H 0.09073 0.72635 0.17226 0.0
H2964 H 0.08912 0.74573 0.17112 0.0
S2965 S 0.12104 0.73671 0.13931 0.0
N2966 N 0.11637 0.72607 0.14571 0.0
N2967 N 0.11462 0.74711 0.14446 0.0
C2968 C 0.10824 0.74216 0.15183 0.0
C2969 C 0.10918 0.73072 0.1525 0.0
C2970 C 0.01828 0.33787 0.91602 0.0
C2971 C 0.02399 0.34574 0.91021 0.0
C2972 C 0.00711 0.3368 0.915 0.0
C2973 C 0.00115 0.34356 0.90815 0.0
H2974 H 0.02245 0.33245 0.92141 0.0
H2975 H 0.00314 0.33062 0.91968 0.0
S2976 S 0.01222 0.36543 0.89108 0.0
N2977 N 0.02281 0.3604 0.89729 0.0
N2978 N 0.00183 0.35839 0.8954 0.0
C2979 C 0.00675 0.35146 0.90227 0.0
C2980 C 0.01814 0.35254 0.90329 0.0
C2981 C 0.39375 0.26926 0.65335 0.0
C2982 C 0.39964 0.27549 0.66074 0.0
C2983 C 0.39469 0.25804 0.65309 0.0
C2984 C 0.40163 0.25255 0.66015 0.0
H2985 H 0.38831 0.27306 0.64771 0.0
H2986 H 0.38997 0.25365 0.64723 0.0
S2987 S 0.41892 0.26508 0.68104 0.0
N2988 N 0.41269 0.27531 0.67532 0.0
N2989 N 0.41451 0.25423 0.6748 0.0
C2990 C 0.40759 0.25867 0.66759 0.0
C2991 C 0.40658 0.27011 0.66789 0.0
C2992 C 0.08994 0.48135 0.34382 0.0
C2993 C 0.0972 0.47704 0.35135 0.0
C2994 C 0.08961 0.4924 0.34165 0.0
C2995 C 0.09646 0.49964 0.34701 0.0
H2996 H 0.08446 0.47615 0.33948 0.0
H2997 H 0.08385 0.49529 0.33579 0.0
S2998 S 0.11702 0.49251 0.36747 0.0
N2999 N 0.11149 0.48091 0.36415 0.0
N3000 N 0.11082 0.50168 0.36016 0.0
C3001 C 0.10378 0.49546 0.35458 0.0
C3002 C 0.10417 0.48417 0.35672 0.0
C3003 C 0.26352 0.34459 0.09801 0.0
C3004 C 0.26856 0.33698 0.09132 0.0
C3005 C 0.25237 0.34616 0.09774 0.0
C3006 C 0.24575 0.34022 0.09073 0.0
H3007 H 0.26821 0.34936 0.10359 0.0
H3008 H 0.24892 0.35208 0.10311 0.0
S3009 S 0.25495 0.31942 0.07135 0.0
N3010 N 0.26606 0.32352 0.07733 0.0
N3011 N 0.24512 0.32647 0.07681 0.0
C3012 C 0.25069 0.33263 0.08391 0.0
C3013 C 0.26207 0.33101 0.08421 0.0
C3014 C 0.41577 0.51409 0.84137 0.0
C3015 C 0.40893 0.51966 0.84847 0.0
C3016 C 0.41539 0.50287 0.84046 0.0
C3017 C 0.40821 0.4967 0.84666 0.0
H3018 H 0.42148 0.51843 0.83643 0.0
H3019 H 0.42086 0.49901 0.83489 0.0
S3020 S 0.38848 0.50733 0.86642 0.0
N3021 N 0.39466 0.51811 0.86177 0.0
N3022 N 0.39398 0.49704 0.8601 0.0
C3023 C 0.40129 0.50215 0.85379 0.0
C3024 C 0.40164 0.51361 0.85468 0.0
C3025 C 0.23377 0.65775 0.59903 0.0
C3026 C 0.22799 0.66471 0.59224 0.0
C3027 C 0.24495 0.65665 0.59816 0.0
C3028 C 0.25085 0.66244 0.59043 0.0
H3029 H 0.22965 0.65309 0.60514 0.0
H3030 H 0.24898 0.65119 0.60362 0.0
S3031 S 0.23957 0.68171 0.57057 0.0
N3032 N 0.22903 0.67748 0.57743 0.0
N3033 N 0.25002 0.6754 0.57578 0.0
C3034 C 0.24517 0.66942 0.58353 0.0
C3035 C 0.23377 0.67056 0.58445 0.0
C3036 C 0.09738 0.51763 0.14469 0.0
C3037 C 0.09009 0.52336 0.15118 0.0
C3038 C 0.09813 0.5064 0.14524 0.0
C3039 C 0.09168 0.50041 0.15234 0.0
H3040 H 0.10256 0.52183 0.13909 0.0
H3041 H 0.10388 0.50242 0.14005 0.0
S3042 S 0.07129 0.51151 0.17115 0.0
N3043 N 0.07626 0.52216 0.16498 0.0
N3044 N 0.0777 0.50108 0.16603 0.0
C3045 C 0.08434 0.50603 0.1589 0.0
C3046 C 0.08354 0.51748 0.15831 0.0
C3047 C 0.23606 0.33275 0.91128 0.0
C3048 C 0.22958 0.33871 0.90417 0.0
C3049 C 0.2472 0.33438 0.91181 0.0
C3050 C 0.25235 0.34199 0.90521 0.0
H3051 H 0.23253 0.32678 0.91655 0.0
H3052 H 0.25179 0.32956 0.91743 0.0
S3053 S 0.23906 0.35973 0.88518 0.0
N3054 N 0.22916 0.35258 0.89037 0.0
N3055 N 0.25008 0.35561 0.89133 0.0
C3056 C 0.24598 0.34801 0.89804 0.0
C3057 C 0.23461 0.34639 0.89754 0.0
C3058 C 0.39957 0.47955 0.64567 0.0
C3059 C 0.40708 0.47325 0.65133 0.0
C3060 C 0.39936 0.49076 0.64674 0.0
C3061 C 0.40658 0.49616 0.65359 0.0
H3062 H 0.39383 0.47582 0.64029 0.0
H3063 H 0.39343 0.49522 0.64217 0.0
S3064 S 0.42775 0.48339 0.67035 0.0
N3065 N 0.42189 0.47325 0.66412 0.0
N3066 N 0.42145 0.4943 0.66618 0.0
C3067 C 0.41409 0.48996 0.65936 0.0
C3068 C 0.41436 0.47852 0.65821 0.0
C3069 C 0.26393 0.6689 0.4135 0.0
C3070 C 0.2707 0.66366 0.4061 0.0
C3071 C 0.25286 0.66685 0.41379 0.0
C3072 C 0.24805 0.65948 0.40667 0.0
H3073 H 0.26719 0.67465 0.41918 0.0
H3074 H 0.24804 0.67112 0.41966 0.0
S3075 S 0.26218 0.64356 0.38571 0.0
N3076 N 0.27176 0.65072 0.39145 0.0
N3077 N 0.25097 0.64688 0.39198 0.0
C3078 C 0.25471 0.65417 0.39921 0.0
C3079 C 0.26602 0.65625 0.39893 0.0
C3080 C 0.34937 0.09112 0.48148 0.0
C3081 C 0.34217 0.0836 0.47705 0.0
C3082 C 0.3497 0.09311 0.49256 0.0
C3083 C 0.34284 0.08765 0.49972 0.0
H3084 H 0.35484 0.09556 0.47635 0.0
H3085 H 0.35541 0.09898 0.49551 0.0
S3086 S 0.32241 0.06716 0.49228 0.0
N3087 N 0.32795 0.07066 0.48074 0.0
N3088 N 0.32856 0.07438 0.50155 0.0
C3089 C 0.33557 0.0801 0.49542 0.0
C3090 C 0.33524 0.07807 0.48411 0.0
C3091 C 0.85026 0.40468 0.51558 0.0
C3092 C 0.8441 0.41227 0.52129 0.0
C3093 C 0.84931 0.40358 0.50441 0.0
C3094 C 0.8421 0.40996 0.49846 0.0
H3095 H 0.85593 0.39955 0.51975 0.0
H3096 H 0.85426 0.39763 0.50043 0.0
S3097 S 0.824 0.43099 0.50954 0.0
N3098 N 0.83047 0.42626 0.52012 0.0
N3099 N 0.82864 0.42416 0.49915 0.0
C3100 C 0.83584 0.41756 0.50406 0.0
C3101 C 0.83685 0.41872 0.51545 0.0
C3102 C 0.33813 0.09302 0.271 0.0
C3103 C 0.34534 0.10008 0.27612 0.0
C3104 C 0.3384 0.09145 0.25985 0.0
C3105 C 0.34583 0.09693 0.25331 0.0
H3106 H 0.33224 0.08859 0.27564 0.0
H3107 H 0.33266 0.08592 0.25633 0.0
S3108 S 0.36648 0.11637 0.2627 0.0
N3109 N 0.36017 0.11263 0.27376 0.0
N3110 N 0.36063 0.10973 0.25281 0.0
C3111 C 0.35308 0.10405 0.25831 0.0
C3112 C 0.35286 0.1056 0.2697 0.0
C3113 C 0.65795 0.58533 0.01985 0.0
C3114 C 0.65049 0.59184 0.02534 0.0
C3115 C 0.65927 0.58609 0.00869 0.0
C3116 C 0.65316 0.59334 0.00251 0.0
H3117 H 0.66285 0.5796 0.02419 0.0
H3118 H 0.66511 0.58086 0.00488 0.0
S3119 S 0.63256 0.61228 0.01297 0.0
N3120 N 0.63693 0.60587 0.02373 0.0
N3121 N 0.63939 0.60725 0.00276 0.0
C3122 C 0.64567 0.59992 0.00789 0.0
C3123 C 0.64435 0.59919 0.01929 0.0
C3124 C 0.65127 0.39539 0.26342 0.0
C3125 C 0.65831 0.40134 0.26998 0.0
C3126 C 0.65083 0.39706 0.25228 0.0
C3127 C 0.65734 0.40482 0.24723 0.0
H3128 H 0.64608 0.38931 0.26688 0.0
H3129 H 0.64529 0.39223 0.24761 0.0
S3130 S 0.67706 0.42271 0.26079 0.0
N3131 N 0.67191 0.4154 0.27061 0.0
N3132 N 0.67103 0.4186 0.24971 0.0
C3133 C 0.66437 0.4109 0.2537 0.0
C3134 C 0.66488 0.40914 0.26505 0.0
C3135 C 0.14289 0.89642 0.98077 0.0
C3136 C 0.14821 0.90386 0.97411 0.0
C3137 C 0.14452 0.89635 0.99192 0.0
C3138 C 0.1516 0.90366 0.99688 0.0
H3139 H 0.13738 0.8906 0.97738 0.0
H3140 H 0.14021 0.89046 0.99667 0.0
S3141 S 0.16758 0.92477 0.98305 0.0
N3142 N 0.16089 0.91875 0.97329 0.0
N3143 N 0.16399 0.91858 0.99422 0.0
C3144 C 0.157 0.91114 0.99031 0.0
C3145 C 0.15529 0.91126 0.97895 0.0
C3146 C 0.33331 0.90625 0.23391 0.0
C3147 C 0.33987 0.89917 0.228 0.0
C3148 C 0.33405 0.90694 0.24513 0.0
C3149 C 0.34135 0.90054 0.25095 0.0
H3150 H 0.32755 0.91137 0.22985 0.0
H3151 H 0.32881 0.91254 0.24926 0.0
S3152 S 0.36037 0.88063 0.23935 0.0
N3153 N 0.35393 0.88558 0.22885 0.0
N3154 N 0.3553 0.88685 0.24992 0.0
C3155 C 0.34795 0.89338 0.24516 0.0
C3156 C 0.34722 0.89271 0.2337 0.0
C3157 C 0.15379 0.1048 0.73336 0.0
C3158 C 0.16077 0.09838 0.7272 0.0
C3159 C 0.15316 0.10369 0.74456 0.0
C3160 C 0.15943 0.09605 0.75007 0.0
H3161 H 0.14876 0.1108 0.72954 0.0
H3162 H 0.14765 0.10885 0.7489 0.0
S3163 S 0.17899 0.07716 0.7377 0.0
N3164 N 0.17411 0.08406 0.72747 0.0
N3165 N 0.17289 0.08193 0.74848 0.0
C3166 C 0.16644 0.08954 0.74401 0.0
C3167 C 0.16713 0.09072 0.7326 0.0
C3168 C 0.10766 0.15391 0.42511 0.0
C3169 C 0.10944 0.16508 0.42461 0.0
C3170 C 0.11486 0.14706 0.43041 0.0
C3171 C 0.12409 0.1511 0.43551 0.0
H3172 H 0.10054 0.15037 0.42156 0.0
H3173 H 0.11301 0.13856 0.43073 0.0
S3174 S 0.13327 0.17948 0.43543 0.0
N3175 N 0.12173 0.17973 0.42887 0.0
N3176 N 0.1352 0.16682 0.43891 0.0
C3177 C 0.12623 0.16218 0.43473 0.0
C3178 C 0.11894 0.16917 0.42924 0.0
C3179 C 0.08805 0.86069 0.67102 0.0
C3180 C 0.07873 0.85769 0.6767 0.0
C3181 C 0.09473 0.86898 0.6747 0.0
C3182 C 0.09243 0.87455 0.68427 0.0
H3183 H 0.09033 0.8565 0.66373 0.0
H3184 H 0.10193 0.8708 0.67014 0.0
S3185 S 0.06843 0.87066 0.70157 0.0
N3186 N 0.06711 0.86157 0.69198 0.0
N3187 N 0.07971 0.87712 0.69889 0.0
C3188 C 0.08291 0.87196 0.6898 0.0
C3189 C 0.07605 0.86356 0.68602 0.0
C3190 C 0.38856 0.84522 0.90872 0.0
C3191 C 0.39184 0.83603 0.91445 0.0
C3192 C 0.38031 0.85187 0.91255 0.0
C3193 C 0.37497 0.84958 0.92226 0.0
H3194 H 0.39256 0.8475 0.90133 0.0
H3195 H 0.37831 0.85899 0.90797 0.0
S3196 S 0.37958 0.82577 0.93968 0.0
N3197 N 0.38846 0.82449 0.92989 0.0
N3198 N 0.37293 0.83694 0.93706 0.0
C3199 C 0.37783 0.84015 0.92783 0.0
C3200 C 0.38625 0.83339 0.92394 0.0
C3201 C 0.4075 0.13678 0.16502 0.0
C3202 C 0.41629 0.14004 0.17136 0.0
C3203 C 0.40066 0.12847 0.16833 0.0
C3204 C 0.40227 0.12313 0.17818 0.0
H3205 H 0.40574 0.1408 0.1575 0.0
H3206 H 0.39385 0.12647 0.16328 0.0
S3207 S 0.42473 0.12782 0.19728 0.0
N3208 N 0.42668 0.1367 0.18761 0.0
N3209 N 0.41383 0.12109 0.19382 0.0
C3210 C 0.41129 0.12598 0.18438 0.0
C3211 C 0.4183 0.13442 0.18098 0.0
C3212 C 0.10999 0.83347 0.06849 0.0
C3213 C 0.10483 0.83458 0.0785 0.0
C3214 C 0.11841 0.8403 0.06546 0.0
C3215 C 0.12207 0.84854 0.0723 0.0
H3216 H 0.10743 0.82735 0.06285 0.0
H3217 H 0.122 0.83914 0.05761 0.0
S3218 S 0.11167 0.85451 0.09966 0.0
N3219 N 0.10431 0.8443 0.09548 0.0
N3220 N 0.12011 0.85716 0.08976 0.0
C3221 C 0.11717 0.84959 0.08246 0.0
C3222 C 0.10856 0.84262 0.08555 0.0
C3223 C 0.40922 0.85315 0.31979 0.0
C3224 C 0.40762 0.84811 0.32979 0.0
C3225 C 0.40308 0.86205 0.31666 0.0
C3226 C 0.39505 0.86632 0.32341 0.0
H3227 H 0.41522 0.85017 0.31422 0.0
H3228 H 0.40458 0.86553 0.30882 0.0
S3229 S 0.38801 0.85644 0.35071 0.0
N3230 N 0.39766 0.8483 0.34663 0.0
N3231 N 0.38611 0.86503 0.34077 0.0
C3232 C 0.39348 0.86148 0.33353 0.0
C3233 C 0.39976 0.85239 0.33672 0.0
C3234 C 0.38544 0.16808 0.57054 0.0
C3235 C 0.39205 0.1667 0.57961 0.0
C3236 C 0.37768 0.16042 0.56774 0.0
C3237 C 0.37615 0.15105 0.57391 0.0
H3238 H 0.38639 0.17504 0.56539 0.0
H3239 H 0.37292 0.16181 0.56058 0.0
S3240 S 0.39085 0.14396 0.59893 0.0
N3241 N 0.39614 0.15553 0.59515 0.0
N3242 N 0.38161 0.14109 0.58986 0.0
C3243 C 0.38247 0.14973 0.58322 0.0
C3244 C 0.3904 0.15755 0.58607 0.0
C3245 C 0.09393 0.14708 0.82045 0.0
C3246 C 0.09314 0.14986 0.83138 0.0
C3247 C 0.09936 0.13779 0.81716 0.0
C3248 C 0.10421 0.13083 0.82467 0.0
H3249 H 0.09047 0.1522 0.81431 0.0
H3250 H 0.09986 0.13615 0.80862 0.0
S3251 S 0.1036 0.13398 0.85437 0.0
N3252 N 0.09709 0.1446 0.84979 0.0
N3253 N 0.10728 0.12708 0.84364 0.0
C3254 C 0.10321 0.13335 0.83567 0.0
C3255 C 0.0977 0.14287 0.83902 0.0
C3256 C 0.42064 0.112 0.15702 0.0
C3257 C 0.42563 0.10889 0.16669 0.0
C3258 C 0.42476 0.12039 0.15072 0.0
C3259 C 0.43403 0.12608 0.15384 0.0
H3260 H 0.41355 0.10783 0.15416 0.0
H3261 H 0.42067 0.12233 0.14328 0.0
S3262 S 0.44984 0.12156 0.17878 0.0
N3263 N 0.44018 0.11248 0.17928 0.0
N3264 N 0.44783 0.12831 0.16754 0.0
C3265 C 0.43893 0.12329 0.16366 0.0
C3266 C 0.43476 0.11469 0.17005 0.0
C3267 C 0.14595 0.18268 0.40807 0.0
C3268 C 0.14875 0.17189 0.40989 0.0
C3269 C 0.13602 0.18543 0.40356 0.0
C3270 C 0.12842 0.17752 0.40077 0.0
H3271 H 0.1516 0.18907 0.40986 0.0
H3272 H 0.1344 0.19386 0.40207 0.0
S3273 S 0.13131 0.14814 0.40534 0.0
N3274 N 0.14281 0.15329 0.40954 0.0
N3275 N 0.12405 0.15842 0.40112 0.0
C3276 C 0.1309 0.16671 0.40308 0.0
C3277 C 0.1411 0.1639 0.4076 0.0
C3278 C 0.08918 0.8902 0.65443 0.0
C3279 C 0.08304 0.89387 0.66319 0.0
C3280 C 0.08585 0.88139 0.64825 0.0
C3281 C 0.07617 0.87597 0.65049 0.0
H3282 H 0.09651 0.89431 0.65216 0.0
H3283 H 0.09073 0.87909 0.64141 0.0
S3284 S 0.05764 0.88174 0.67319 0.0
N3285 N 0.06722 0.89085 0.67432 0.0
N3286 N 0.0609 0.8744 0.66262 0.0
C3287 C 0.07019 0.87924 0.65953 0.0
C3288 C 0.07365 0.88815 0.66591 0.0
C3289 C 0.36162 0.81747 0.91813 0.0
C3290 C 0.35547 0.82678 0.91626 0.0
C3291 C 0.36977 0.81432 0.91103 0.0
C3292 C 0.37215 0.82036 0.90175 0.0
H3293 H 0.36001 0.81242 0.92504 0.0
H3294 H 0.37414 0.807 0.91279 0.0
S3295 S 0.35897 0.84589 0.89358 0.0
N3296 N 0.35274 0.84237 0.90475 0.0
N3297 N 0.36803 0.83645 0.89139 0.0
C3298 C 0.36629 0.82988 0.89995 0.0
C3299 C 0.35796 0.83308 0.90719 0.0
C3300 C 0.44336 0.90624 0.34206 0.0
C3301 C 0.43549 0.90336 0.33444 0.0
C3302 C 0.44856 0.89848 0.34833 0.0
C3303 C 0.4462 0.88748 0.34722 0.0
H3304 H 0.44547 0.91459 0.34331 0.0
H3305 H 0.45448 0.90117 0.35413 0.0
S3306 S 0.42634 0.87558 0.32835 0.0
N3307 N 0.42566 0.88864 0.32607 0.0
N3308 N 0.4355 0.87404 0.33784 0.0
C3309 C 0.43846 0.88442 0.33954 0.0
C3310 C 0.43309 0.89236 0.33317 0.0
C3311 C 0.36456 0.18047 0.58402 0.0
C3312 C 0.35841 0.17106 0.58528 0.0
C3313 C 0.37244 0.18334 0.59154 0.0
C3314 C 0.37454 0.17689 0.60061 0.0
H3315 H 0.36313 0.18584 0.57732 0.0
H3316 H 0.3768 0.19077 0.59029 0.0
S3317 S 0.3613 0.15094 0.60715 0.0
N3318 N 0.35545 0.15491 0.59593 0.0
N3319 N 0.37021 0.16032 0.61008 0.0
C3320 C 0.36875 0.16723 0.60174 0.0
C3321 C 0.36069 0.16432 0.59408 0.0
C3322 C 0.05911 0.09824 0.84752 0.0
C3323 C 0.06613 0.10126 0.83917 0.0
C3324 C 0.05354 0.10591 0.85357 0.0
C3325 C 0.05464 0.11697 0.85147 0.0
H3326 H 0.05793 0.08984 0.8495 0.0
H3327 H 0.04829 0.10312 0.85993 0.0
S3328 S 0.07203 0.12924 0.83053 0.0
N3329 N 0.07392 0.11618 0.82915 0.0
N3330 N 0.06334 0.13061 0.84047 0.0
C3331 C 0.06157 0.12015 0.8431 0.0
C3332 C 0.06734 0.11231 0.83697 0.0
C3333 C 0.13188 0.81891 0.07764 0.0
C3334 C 0.13908 0.82702 0.08087 0.0
C3335 C 0.12379 0.81519 0.08455 0.0
C3336 C 0.12257 0.81941 0.09498 0.0
H3337 H 0.13264 0.81518 0.06981 0.0
H3338 H 0.11863 0.80875 0.08175 0.0
S3339 S 0.13854 0.84164 0.10691 0.0
N3340 N 0.14385 0.83982 0.09489 0.0
N3341 N 0.12872 0.83277 0.10788 0.0
C3342 C 0.12941 0.82785 0.09815 0.0
C3343 C 0.13764 0.83167 0.0911 0.0
C3344 C 0.16218 0.43277 0.10306 0.0
C3345 C 0.15983 0.42234 0.09936 0.0
C3346 C 0.15748 0.43685 0.11243 0.0
C3347 C 0.15023 0.43068 0.11854 0.0
H3348 H 0.1675 0.43798 0.09854 0.0
H3349 H 0.15937 0.44504 0.11472 0.0
S3350 S 0.1423 0.40241 0.11302 0.0
N3351 N 0.15044 0.40557 0.10303 0.0
N3352 N 0.14159 0.41323 0.12067 0.0
C3353 C 0.14818 0.42004 0.11522 0.0
C3354 C 0.15297 0.41588 0.10563 0.0
C3355 C 0.65013 0.06314 0.90857 0.0
C3356 C 0.65342 0.07394 0.9095 0.0
C3357 C 0.64789 0.05854 0.89854 0.0
C3358 C 0.64887 0.06453 0.88899 0.0
H3359 H 0.64952 0.05809 0.91564 0.0
H3360 H 0.64564 0.05013 0.89829 0.0
S3361 S 0.65649 0.09336 0.88702 0.0
N3362 N 0.65697 0.09068 0.9 0.0
N3363 N 0.65279 0.08205 0.88115 0.0
C3364 C 0.65174 0.07546 0.88981 0.0
C3365 C 0.654 0.08016 0.90006 0.0
C3366 C 0.18725 0.41862 0.13837 0.0
C3367 C 0.17723 0.41666 0.14327 0.0
C3368 C 0.1914 0.41165 0.13054 0.0
C3369 C 0.18569 0.40246 0.12722 0.0
H3370 H 0.1921 0.42543 0.14079 0.0
H3371 H 0.19925 0.41342 0.1272 0.0
S3372 S 0.1586 0.39424 0.13682 0.0
N3373 N 0.16135 0.40525 0.1437 0.0
N3374 N 0.1691 0.39218 0.12898 0.0
C3375 C 0.17545 0.40064 0.13174 0.0
C3376 C 0.17124 0.40773 0.13975 0.0
C3377 C 0.84249 0.92578 0.391 0.0
C3378 C 0.83388 0.93192 0.39504 0.0
C3379 C 0.84948 0.92992 0.38321 0.0
C3380 C 0.84817 0.94038 0.37908 0.0
H3381 H 0.84402 0.91775 0.39402 0.0
H3382 H 0.85606 0.92489 0.38052 0.0
S3383 S 0.82637 0.95948 0.38629 0.0
N3384 N 0.82405 0.9488 0.39382 0.0
N3385 N 0.83719 0.95658 0.37917 0.0
C3386 C 0.83936 0.94648 0.38274 0.0
C3387 C 0.83223 0.94226 0.39071 0.0
C3388 C 0.80862 0.0846 0.1413 0.0
C3389 C 0.81967 0.08452 0.14381 0.0
C3390 C 0.80444 0.09152 0.13345 0.0
C3391 C 0.81113 0.09869 0.12782 0.0
H3392 H 0.80307 0.07945 0.14561 0.0
H3393 H 0.79585 0.09144 0.13202 0.0
S3394 S 0.84079 0.10084 0.13041 0.0
N3395 N 0.83735 0.09164 0.13932 0.0
N3396 N 0.82948 0.10466 0.12461 0.0
C3397 C 0.82225 0.09839 0.1299 0.0
C3398 C 0.82652 0.09131 0.13787 0.0
C3399 C 0.34869 0.59015 0.61172 0.0
C3400 C 0.33982 0.58459 0.60742 0.0
C3401 C 0.35477 0.58584 0.62016 0.0
C3402 C 0.3523 0.57574 0.62462 0.0
H3403 H 0.3511 0.59785 0.60844 0.0
H3404 H 0.36166 0.59036 0.62299 0.0
S3405 S 0.32927 0.55833 0.617 0.0
N3406 N 0.32841 0.56873 0.60881 0.0
N3407 N 0.33986 0.56064 0.62466 0.0
C3408 C 0.34319 0.57027 0.62071 0.0
C3409 C 0.33695 0.57469 0.61213 0.0
C3410 C 0.17432 0.58935 0.35848 0.0
C3411 C 0.16587 0.5927 0.35173 0.0
C3412 C 0.17744 0.59543 0.36742 0.0
C3413 C 0.17226 0.60514 0.37003 0.0
H3414 H 0.17873 0.58204 0.35676 0.0
H3415 H 0.18414 0.59255 0.37219 0.0
S3416 S 0.14902 0.61707 0.35552 0.0
N3417 N 0.1519 0.60606 0.34869 0.0
N3418 N 0.15776 0.6175 0.3655 0.0
C3419 C 0.16351 0.6084 0.36361 0.0
C3420 C 0.16032 0.60219 0.35447 0.0
C3421 C 0.32416 0.41026 0.85587 0.0
C3422 C 0.3326 0.40673 0.8492 0.0
C3423 C 0.3208 0.40422 0.86475 0.0
C3424 C 0.3257 0.39435 0.86737 0.0
H3425 H 0.32 0.41772 0.85418 0.0
H3426 H 0.31416 0.40726 0.86951 0.0
S3427 S 0.34858 0.38176 0.85284 0.0
N3428 N 0.3461 0.39291 0.84609 0.0
N3429 N 0.33978 0.38155 0.86277 0.0
C3430 C 0.33433 0.39084 0.86092 0.0
C3431 C 0.33778 0.39702 0.85185 0.0
C3432 C 0.90826 0.87538 0.57247 0.0
C3433 C 0.91507 0.86898 0.56609 0.0
C3434 C 0.8993 0.88057 0.56806 0.0
C3435 C 0.89674 0.87959 0.55708 0.0
H3436 H 0.90954 0.87602 0.58106 0.0
H3437 H 0.89406 0.88496 0.57346 0.0
S3438 S 0.91305 0.86533 0.53651 0.0
N3439 N 0.91944 0.8631 0.54793 0.0
N3440 N 0.90258 0.87287 0.53965 0.0
C3441 C 0.90397 0.87394 0.55043 0.0
C3442 C 0.91313 0.86863 0.55493 0.0
C3443 C 0.87709 0.15856 0.3196 0.0
C3444 C 0.8843 0.16375 0.31259 0.0
C3445 C 0.87117 0.14956 0.31632 0.0
C3446 C 0.87221 0.14534 0.30587 0.0
H3447 H 0.87632 0.16115 0.32788 0.0
H3448 H 0.86612 0.14562 0.32221 0.0
S3449 S 0.88864 0.157 0.28381 0.0
N3450 N 0.89113 0.16478 0.29427 0.0
N3451 N 0.88002 0.14786 0.28809 0.0
C3452 C 0.87876 0.15093 0.29851 0.0
C3453 C 0.8848 0.16013 0.30186 0.0
C3454 C 0.59088 0.14095 0.04775 0.0
C3455 C 0.58386 0.13883 0.05638 0.0
C3456 C 0.59954 0.13411 0.04545 0.0
C3457 C 0.60155 0.12488 0.05168 0.0
H3458 H 0.59005 0.14822 0.04305 0.0
H3459 H 0.605 0.13644 0.03907 0.0
S3460 S 0.58439 0.1146 0.07385 0.0
N3461 N 0.57863 0.126 0.07021 0.0
N3462 N 0.59491 0.11318 0.06589 0.0
C3463 C 0.59408 0.12218 0.05975 0.0
C3464 C 0.58524 0.12914 0.06209 0.0
C3465 C 0.61159 0.84115 0.7999 0.0
C3466 C 0.61408 0.83486 0.80898 0.0
C3467 C 0.61761 0.8503 0.7973 0.0
C3468 C 0.62638 0.85357 0.80368 0.0
H3469 H 0.60459 0.83934 0.79504 0.0
H3470 H 0.61499 0.85515 0.79056 0.0
S3471 S 0.63753 0.83874 0.82707 0.0
N3472 N 0.62688 0.83169 0.82345 0.0
N3473 N 0.63819 0.8489 0.81856 0.0
C3474 C 0.62952 0.84685 0.81223 0.0
C3475 C 0.62339 0.8375 0.81487 0.0
C3476 C 0.90759 0.14871 0.95522 0.0
C3477 C 0.91449 0.14398 0.9476 0.0
C3478 C 0.89851 0.14328 0.95906 0.0
C3479 C 0.89592 0.13287 0.95546 0.0
H3480 H 0.90891 0.15688 0.95792 0.0
H3481 H 0.89323 0.14751 0.96454 0.0
S3482 S 0.91234 0.11616 0.93692 0.0
N3483 N 0.91884 0.12772 0.9376 0.0
N3484 N 0.90176 0.1175 0.94482 0.0
C3485 C 0.90319 0.1277 0.94847 0.0
C3486 C 0.91247 0.13325 0.94455 0.0
C3487 C 0.61758 0.16202 0.68954 0.0
C3488 C 0.60849 0.16687 0.69425 0.0
C3489 C 0.6221 0.15265 0.69386 0.0
C3490 C 0.61772 0.14773 0.70307 0.0
H3491 H 0.62092 0.16514 0.68213 0.0
H3492 H 0.62872 0.14894 0.68959 0.0
S3493 S 0.59529 0.15837 0.71966 0.0
N3494 N 0.59626 0.1669 0.70953 0.0
N3495 N 0.60475 0.14929 0.71764 0.0
C3496 C 0.60922 0.15299 0.70838 0.0
C3497 C 0.60461 0.16256 0.70398 0.0
C3498 C 0.58397 0.86801 0.43873 0.0
C3499 C 0.58063 0.85936 0.44523 0.0
C3500 C 0.59315 0.87401 0.44126 0.0
C3501 C 0.59939 0.87164 0.45041 0.0
H3502 H 0.5798 0.86982 0.43129 0.0
H3503 H 0.59566 0.88021 0.43568 0.0
S3504 S 0.59292 0.85117 0.47118 0.0
N3505 N 0.58341 0.84973 0.46203 0.0
N3506 N 0.60067 0.86102 0.4668 0.0
C3507 C 0.59562 0.86362 0.45747 0.0
C3508 C 0.58625 0.85748 0.45487 0.0
C3509 C 0.86951 0.84214 0.17754 0.0
C3510 C 0.87709 0.8361 0.18339 0.0
C3511 C 0.86448 0.85115 0.18206 0.0
C3512 C 0.8668 0.85452 0.19261 0.0
H3513 H 0.86779 0.84024 0.16922 0.0
H3514 H 0.8591 0.85578 0.17701 0.0
S3515 S 0.88461 0.84038 0.21198 0.0
N3516 N 0.88561 0.83331 0.20079 0.0
N3517 N 0.87615 0.85025 0.20927 0.0
C3518 C 0.87371 0.84805 0.19884 0.0
C3519 C 0.87884 0.83885 0.19424 0.0
C3520 C 0.54247 0.91292 0.85212 0.0
C3521 C 0.55011 0.92104 0.85407 0.0
C3522 C 0.54087 0.90451 0.85943 0.0
C3523 C 0.54688 0.90382 0.869 0.0
H3524 H 0.538 0.91275 0.84464 0.0
H3525 H 0.53527 0.8982 0.85725 0.0
S3526 S 0.56649 0.92406 0.87887 0.0
N3527 N 0.56271 0.92863 0.86699 0.0
N3528 N 0.55972 0.9128 0.88072 0.0
C3529 C 0.55392 0.91234 0.87147 0.0
C3530 C 0.55553 0.92095 0.86402 0.0
C3531 C 0.84104 0.79521 0.60104 0.0
C3532 C 0.83378 0.80377 0.60248 0.0
C3533 C 0.84924 0.79318 0.60851 0.0
C3534 C 0.85052 0.79963 0.61773 0.0
H3535 H 0.84079 0.79036 0.59382 0.0
H3536 H 0.85495 0.78685 0.60671 0.0
S3537 S 0.83234 0.82172 0.62631 0.0
N3538 N 0.82747 0.81777 0.61461 0.0
N3539 N 0.84286 0.81396 0.62863 0.0
C3540 C 0.84276 0.80764 0.61972 0.0
C3541 C 0.8344 0.80971 0.61211 0.0
C3542 C 0.9447 0.08872 0.3632 0.0
C3543 C 0.93445 0.08425 0.36495 0.0
C3544 C 0.94817 0.09779 0.36892 0.0
C3545 C 0.94153 0.10276 0.37664 0.0
H3546 H 0.9499 0.08555 0.35697 0.0
H3547 H 0.9559 0.10123 0.36687 0.0
S3548 S 0.91478 0.09299 0.38565 0.0
N3549 N 0.9183 0.0846 0.37599 0.0
N3550 N 0.92481 0.10162 0.38674 0.0
C3551 C 0.93162 0.09785 0.37907 0.0
C3552 C 0.92809 0.08861 0.37323 0.0
C3553 C 0.66348 0.19524 0.11372 0.0
C3554 C 0.66698 0.20035 0.10424 0.0
C3555 C 0.65448 0.19897 0.11939 0.0
C3556 C 0.64859 0.20796 0.11581 0.0
H3557 H 0.66737 0.18797 0.11652 0.0
H3558 H 0.65181 0.19441 0.12631 0.0
S3559 S 0.65562 0.22542 0.09262 0.0
N3560 N 0.66473 0.21577 0.09239 0.0
N3561 N 0.64782 0.22276 0.10303 0.0
C3562 C 0.65252 0.21366 0.10685 0.0
C3563 C 0.6617 0.20986 0.10107 0.0
C3564 C 0.55147 0.08805 0.63648 0.0
C3565 C 0.54672 0.08511 0.64633 0.0
C3566 C 0.54816 0.09728 0.63092 0.0
C3567 C 0.53997 0.10396 0.63498 0.0
H3568 H 0.55818 0.08351 0.63328 0.0
H3569 H 0.55247 0.09946 0.62367 0.0
S3570 S 0.52356 0.09873 0.65937 0.0
N3571 N 0.53237 0.08882 0.65912 0.0
N3572 N 0.52618 0.10615 0.64868 0.0
C3573 C 0.53457 0.10064 0.64436 0.0
C3574 C 0.53793 0.09122 0.65002 0.0
C3575 C 0.66129 0.80695 0.38265 0.0
C3576 C 0.66545 0.80103 0.39136 0.0
C3577 C 0.65186 0.80375 0.37738 0.0
C3578 C 0.64619 0.79449 0.38059 0.0
H3579 H 0.66501 0.81444 0.38021 0.0
H3580 H 0.64872 0.80891 0.3711 0.0
S3581 S 0.65481 0.77506 0.40156 0.0
N3582 N 0.66398 0.78464 0.40195 0.0
N3583 N 0.64627 0.77863 0.39205 0.0
C3584 C 0.65074 0.78802 0.38869 0.0
C3585 C 0.66035 0.79129 0.39407 0.0
C3586 C 0.94299 0.91297 0.13573 0.0
C3587 C 0.94934 0.9154 0.14478 0.0
C3588 C 0.9456 0.90441 0.12888 0.0
C3589 C 0.95468 0.89792 0.13078 0.0
H3590 H 0.93561 0.91734 0.13419 0.0
H3591 H 0.94013 0.90258 0.12236 0.0
S3592 S 0.97507 0.90218 0.15219 0.0
N3593 N 0.96594 0.91155 0.1544 0.0
N3594 N 0.97086 0.89548 0.14153 0.0
C3595 C 0.9616 0.90083 0.13927 0.0
C3596 C 0.95892 0.90955 0.14627 0.0
C3597 C 0.83572 0.19028 0.88556 0.0
C3598 C 0.83249 0.19585 0.89488 0.0
C3599 C 0.84474 0.19353 0.87964 0.0
C3600 C 0.85092 0.20248 0.8828 0.0
H3601 H 0.83159 0.18302 0.88309 0.0
H3602 H 0.84719 0.18864 0.87286 0.0
S3603 S 0.8447 0.22099 0.90539 0.0
N3604 N 0.83533 0.21163 0.90611 0.0
N3605 N 0.85228 0.21772 0.895 0.0
C3606 C 0.84728 0.20862 0.89159 0.0
C3607 C 0.83807 0.20531 0.89762 0.0
C3608 C 0.86124 0.54932 0.9096 0.0
C3609 C 0.86345 0.5579 0.91666 0.0
C3610 C 0.8681 0.54691 0.901 0.0
C3611 C 0.87745 0.55299 0.89906 0.0
H3612 H 0.85388 0.54474 0.91038 0.0
H3613 H 0.86571 0.54059 0.89551 0.0
S3614 S 0.88799 0.57494 0.91635 0.0
N3615 N 0.87648 0.57149 0.92201 0.0
N3616 N 0.88935 0.56697 0.90582 0.0
C3617 C 0.88023 0.56099 0.90657 0.0
C3618 C 0.87325 0.56344 0.91537 0.0
C3619 C 0.37791 0.93021 0.0888 0.0
C3620 C 0.36901 0.93573 0.08451 0.0
C3621 C 0.38332 0.93403 0.09792 0.0
C3622 C 0.38008 0.94355 0.10311 0.0
H3623 H 0.38039 0.92255 0.08547 0.0
H3624 H 0.38975 0.92915 0.1012 0.0
S3625 S 0.3586 0.96212 0.09384 0.0
N3626 N 0.35819 0.95202 0.08524 0.0
N3627 N 0.36836 0.95921 0.10235 0.0
C3628 C 0.37179 0.94964 0.09835 0.0
C3629 C 0.36626 0.94573 0.08907 0.0
C3630 C 0.80722 0.61366 0.83604 0.0
C3631 C 0.8023 0.60397 0.83286 0.0
C3632 C 0.80354 0.61943 0.845 0.0
C3633 C 0.79478 0.61574 0.85115 0.0
H3634 H 0.81433 0.61657 0.83193 0.0
H3635 H 0.80796 0.62653 0.84741 0.0
S3636 S 0.77781 0.59195 0.84502 0.0
N3637 N 0.78726 0.59177 0.8357 0.0
N3638 N 0.78035 0.60259 0.85252 0.0
C3639 C 0.78924 0.60655 0.84754 0.0
C3640 C 0.79299 0.60067 0.83841 0.0
C3641 C 0.13723 0.05583 0.58682 0.0
C3642 C 0.14693 0.05092 0.58367 0.0
C3643 C 0.13164 0.0524 0.59599 0.0
C3644 C 0.13554 0.04392 0.6024 0.0
H3645 H 0.13417 0.06274 0.5825 0.0
H3646 H 0.12452 0.05682 0.59836 0.0
S3647 S 0.15947 0.02706 0.59653 0.0
N3648 N 0.15938 0.03616 0.58688 0.0
N3649 N 0.14891 0.02973 0.6041 0.0
C3650 C 0.14476 0.03838 0.59886 0.0
C3651 C 0.15044 0.04187 0.58951 0.0
C3652 C 0.20526 0.89517 0.84014 0.0
C3653 C 0.19741 0.89242 0.83246 0.0
C3654 C 0.20784 0.88824 0.84863 0.0
C3655 C 0.20264 0.87825 0.84983 0.0
H3656 H 0.20912 0.90298 0.83992 0.0
H3657 H 0.21354 0.89101 0.8546 0.0
S3658 S 0.18296 0.86632 0.8308 0.0
N3659 N 0.18555 0.87834 0.82579 0.0
N3660 N 0.19037 0.86531 0.84176 0.0
C3661 C 0.19543 0.875 0.84173 0.0
C3662 C 0.19282 0.88207 0.83305 0.0
C3663 C 0.64477 0.45732 0.4061 0.0
C3664 C 0.6423 0.44941 0.41381 0.0
C3665 C 0.63793 0.45933 0.39738 0.0
C3666 C 0.62832 0.45351 0.39599 0.0
H3667 H 0.65232 0.46165 0.40646 0.0
H3668 H 0.6405 0.46512 0.3914 0.0
S3669 S 0.61712 0.43339 0.41501 0.0
N3670 N 0.62881 0.43679 0.42029 0.0
N3671 N 0.61595 0.44057 0.40391 0.0
C3672 C 0.6253 0.44622 0.40412 0.0
C3673 C 0.63228 0.44418 0.41302 0.0
C3674 C 0.81735 0.37808 0.6585 0.0
C3675 C 0.81091 0.386 0.66338 0.0
C3676 C 0.81369 0.37224 0.64959 0.0
C3677 C 0.80344 0.37406 0.64517 0.0
H3678 H 0.8255 0.37669 0.66123 0.0
H3679 H 0.8192 0.36662 0.64586 0.0
S3680 S 0.78268 0.39255 0.65611 0.0
N3681 N 0.79321 0.39436 0.66399 0.0
N3682 N 0.78634 0.38338 0.64725 0.0
C3683 C 0.79658 0.38134 0.6505 0.0
C3684 C 0.80031 0.3873 0.65959 0.0
C3685 C 0.69264 0.61441 0.16434 0.0
C3686 C 0.69813 0.60507 0.16763 0.0
C3687 C 0.69605 0.62035 0.15539 0.0
C3688 C 0.7051 0.61719 0.14936 0.0
H3689 H 0.6853 0.61687 0.16833 0.0
H3690 H 0.6912 0.62713 0.15287 0.0
S3691 S 0.72352 0.59461 0.15589 0.0
N3692 N 0.71397 0.59387 0.16509 0.0
N3693 N 0.72038 0.60502 0.14828 0.0
C3694 C 0.71119 0.60842 0.15312 0.0
C3695 C 0.70771 0.60236 0.16224 0.0
C3696 C 0.6145 0.6656 0.92928 0.0
C3697 C 0.60831 0.66397 0.91995 0.0
C3698 C 0.62264 0.65839 0.93224 0.0
C3699 C 0.62499 0.64928 0.92596 0.0
H3700 H 0.6129 0.67236 0.93453 0.0
H3701 H 0.62701 0.65994 0.9396 0.0
S3702 S 0.61171 0.64174 0.90029 0.0
N3703 N 0.60554 0.65286 0.90407 0.0
N3704 N 0.62081 0.63932 0.90964 0.0
C3705 C 0.61915 0.64776 0.91638 0.0
C3706 C 0.61082 0.65509 0.91338 0.0
C3707 C 0.58973 0.35488 0.18452 0.0
C3708 C 0.59249 0.35052 0.17444 0.0
C3709 C 0.59541 0.36355 0.18891 0.0
C3710 C 0.60408 0.36829 0.1834 0.0
H3711 H 0.58322 0.35146 0.18919 0.0
H3712 H 0.59303 0.36647 0.19676 0.0
S3713 S 0.6142 0.36031 0.15643 0.0
N3714 N 0.60422 0.35191 0.15885 0.0
N3715 N 0.61489 0.36822 0.16707 0.0
C3716 C 0.60676 0.36421 0.17317 0.0
C3717 C 0.60098 0.35533 0.16871 0.0
C3718 C 0.88605 0.33454 0.43082 0.0
C3719 C 0.89155 0.33513 0.42095 0.0
C3720 C 0.87747 0.34144 0.43317 0.0
C3721 C 0.874 0.34925 0.42575 0.0
H3722 H 0.88849 0.32881 0.43691 0.0
H3723 H 0.87365 0.34074 0.44096 0.0
S3724 S 0.88515 0.35364 0.39838 0.0
N3725 N 0.8925 0.34381 0.40342 0.0
N3726 N 0.87638 0.35677 0.40783 0.0
C3727 C 0.87917 0.3497 0.41568 0.0
C3728 C 0.88794 0.34266 0.41329 0.0
C3729 C 0.91504 0.64098 0.69255 0.0
C3730 C 0.91508 0.64356 0.68152 0.0
C3731 C 0.90818 0.63306 0.69668 0.0
C3732 C 0.90105 0.62741 0.68997 0.0
H3733 H 0.92015 0.6453 0.69813 0.0
H3734 H 0.90827 0.63157 0.70527 0.0
S3735 S 0.89883 0.63019 0.66032 0.0
N3736 N 0.90798 0.63915 0.66381 0.0
N3737 N 0.89508 0.62429 0.6716 0.0
C3738 C 0.90132 0.62957 0.67886 0.0
C3739 C 0.90834 0.63762 0.67463 0.0
C3740 C 0.60781 0.3326 0.55874 0.0
C3741 C 0.60487 0.33252 0.56967 0.0
C3742 C 0.61577 0.33957 0.55485 0.0
C3743 C 0.62113 0.34677 0.56174 0.0
H3744 H 0.60375 0.32743 0.55303 0.0
H3745 H 0.61751 0.3395 0.54632 0.0
S3746 S 0.61743 0.34884 0.59131 0.0
N3747 N 0.60864 0.33965 0.58751 0.0
N3748 N 0.62364 0.35268 0.58023 0.0
C3749 C 0.61864 0.34643 0.57279 0.0
C3750 C 0.61051 0.33934 0.57674 0.0
C3751 C 0.91584 0.36352 0.81727 0.0
C3752 C 0.91619 0.35938 0.8278 0.0
C3753 C 0.90908 0.37209 0.81459 0.0
C3754 C 0.90244 0.377 0.82233 0.0
H3755 H 0.92057 0.35988 0.81093 0.0
H3756 H 0.90891 0.37475 0.80629 0.0
S3757 S 0.90122 0.37004 0.85134 0.0
N3758 N 0.90989 0.3614 0.84622 0.0
N3759 N 0.89729 0.37765 0.8412 0.0
C3760 C 0.90311 0.37333 0.83302 0.0
C3761 C 0.90993 0.36449 0.83574 0.0
C3762 C 0.88873 0.66285 0.0686 0.0
C3763 C 0.89383 0.66212 0.07867 0.0
C3764 C 0.88011 0.65612 0.06591 0.0
C3765 C 0.8762 0.64837 0.07318 0.0
H3766 H 0.89148 0.66857 0.06264 0.0
H3767 H 0.87657 0.65696 0.058 0.0
S3768 S 0.8864 0.64352 0.10083 0.0
N3769 N 0.89406 0.65329 0.09613 0.0
N3770 N 0.87788 0.64063 0.09107 0.0
C3771 C 0.88104 0.64774 0.0834 0.0
C3772 C 0.88985 0.65459 0.08613 0.0
C3773 C 0.59444 0.64028 0.33954 0.0
C3774 C 0.58549 0.64378 0.33359 0.0
C3775 C 0.60076 0.63163 0.33606 0.0
C3776 C 0.59846 0.62621 0.32639 0.0
H3777 H 0.59675 0.6444 0.34686 0.0
H3778 H 0.60774 0.62946 0.34079 0.0
S3779 S 0.57529 0.63154 0.30832 0.0
N3780 N 0.57413 0.64059 0.31796 0.0
N3781 N 0.58608 0.62443 0.31134 0.0
C3782 C 0.58923 0.6293 0.3206 0.0
C3783 C 0.58272 0.63804 0.32422 0.0
C3784 C 0.92476 0.60789 0.66022 0.0
C3785 C 0.91583 0.60171 0.65703 0.0
C3786 C 0.92814 0.61681 0.65424 0.0
C3787 C 0.92274 0.61997 0.64482 0.0
H3788 H 0.92936 0.60572 0.66729 0.0
H3789 H 0.9352 0.62114 0.65696 0.0
S3790 S 0.8982 0.60718 0.63356 0.0
N3791 N 0.90114 0.59987 0.64424 0.0
N3792 N 0.9075 0.61663 0.63299 0.0
C3793 C 0.91351 0.61414 0.64177 0.0
C3794 C 0.91006 0.60503 0.64787 0.0
C3795 C 0.63436 0.67926 0.91596 0.0
C3796 C 0.64098 0.6703 0.91404 0.0
C3797 C 0.62629 0.68224 0.9087 0.0
C3798 C 0.62446 0.67636 0.8992 0.0
H3799 H 0.63553 0.68419 0.92305 0.0
H3800 H 0.62153 0.68931 0.91051 0.0
S3801 S 0.63908 0.65172 0.89072 0.0
N3802 N 0.64476 0.65517 0.90221 0.0
N3803 N 0.62965 0.6608 0.88852 0.0
C3804 C 0.63079 0.66715 0.89733 0.0
C3805 C 0.63903 0.66412 0.90475 0.0
C3806 C 0.56361 0.39868 0.15717 0.0
C3807 C 0.57473 0.40071 0.15779 0.0
C3808 C 0.55961 0.38959 0.15186 0.0
C3809 C 0.56655 0.38211 0.14698 0.0
H3810 H 0.5579 0.40426 0.16065 0.0
H3811 H 0.55097 0.38853 0.15146 0.0
S3812 S 0.59641 0.38314 0.14723 0.0
N3813 N 0.59267 0.39412 0.15367 0.0
N3814 N 0.58518 0.37699 0.14374 0.0
C3815 C 0.57772 0.38386 0.14781 0.0
C3816 C 0.5818 0.39316 0.1532 0.0
C3817 C 0.85941 0.33379 0.40276 0.0
C3818 C 0.85842 0.3287 0.41283 0.0
C3819 C 0.86748 0.33086 0.39549 0.0
C3820 C 0.87492 0.32271 0.39794 0.0
H3821 H 0.85381 0.34002 0.40038 0.0
H3822 H 0.86775 0.33493 0.38779 0.0
S3823 S 0.8764 0.30738 0.42353 0.0
N3824 N 0.86599 0.31547 0.4251 0.0
N3825 N 0.88116 0.30996 0.41142 0.0
C3826 C 0.87425 0.31775 0.4081 0.0
C3827 C 0.86602 0.32076 0.41554 0.0
C3828 C 0.92618 0.38767 0.83896 0.0
C3829 C 0.92024 0.39631 0.84322 0.0
C3830 C 0.93043 0.37963 0.84564 0.0
C3831 C 0.92888 0.37987 0.85686 0.0
H3832 H 0.92768 0.38713 0.8304 0.0
H3833 H 0.935 0.3732 0.84195 0.0
S3834 S 0.9135 0.40052 0.87202 0.0
N3835 N 0.91273 0.40443 0.85937 0.0
N3836 N 0.92067 0.38936 0.87188 0.0
C3837 C 0.92278 0.38837 0.8612 0.0
C3838 C 0.91847 0.39656 0.8544 0.0
C3839 C 0.86933 0.67962 0.07818 0.0
C3840 C 0.86198 0.672 0.08216 0.0
C3841 C 0.87768 0.68362 0.08461 0.0
C3842 C 0.87902 0.68018 0.09531 0.0
H3843 H 0.86854 0.68272 0.07008 0.0
H3844 H 0.88298 0.68963 0.0812 0.0
S3845 S 0.86252 0.65961 0.10933 0.0
N3846 N 0.85705 0.6606 0.09729 0.0
N3847 N 0.87266 0.66816 0.10939 0.0
C3848 C 0.87195 0.67228 0.09929 0.0
C3849 C 0.86347 0.66818 0.09272 0.0
C3850 C 0.57867 0.61019 0.33847 0.0
C3851 C 0.57307 0.6069 0.32919 0.0
C3852 C 0.57474 0.61843 0.34507 0.0
C3853 C 0.56498 0.62365 0.34274 0.0
H3854 H 0.58611 0.60627 0.34076 0.0
H3855 H 0.57926 0.62048 0.35222 0.0
S3856 S 0.54773 0.61888 0.31886 0.0
N3857 N 0.55762 0.61012 0.31761 0.0
N3858 N 0.55023 0.62556 0.33005 0.0
C3859 C 0.55951 0.62076 0.33328 0.0
C3860 C 0.56355 0.61241 0.3265 0.0
C3861 C 0.64736 0.33627 0.60292 0.0
C3862 C 0.64857 0.3329 0.5922 0.0
C3863 C 0.63857 0.33292 0.60913 0.0
C3864 C 0.63064 0.32607 0.60485 0.0
H3865 H 0.65342 0.34126 0.60669 0.0
H3866 H 0.6382 0.33547 0.61744 0.0
S3867 S 0.6292 0.31632 0.57666 0.0
N3868 N 0.64046 0.32332 0.57719 0.0
N3869 N 0.62399 0.31696 0.58885 0.0
C3870 C 0.63145 0.3231 0.59396 0.0
C3871 C 0.64039 0.32654 0.58763 0.0
C3872 C 0.66411 0.93633 0.61884 0.0
C3873 C 0.66149 0.92639 0.61411 0.0
C3874 C 0.65799 0.94059 0.62729 0.0
C3875 C 0.64903 0.93504 0.63143 0.0
H3876 H 0.67078 0.94105 0.61581 0.0
H3877 H 0.66021 0.94838 0.63047 0.0
S3878 S 0.63932 0.90823 0.62252 0.0
N3879 N 0.64972 0.91077 0.61468 0.0
N3880 N 0.63825 0.91872 0.63057 0.0
C3881 C 0.6466 0.92487 0.62709 0.0
C3882 C 0.6528 0.92056 0.61844 0.0
C3883 C 0.15648 0.57243 0.39015 0.0
C3884 C 0.16595 0.56711 0.39331 0.0
C3885 C 0.14955 0.56799 0.38247 0.0
C3886 C 0.15179 0.55804 0.37757 0.0
H3887 H 0.15424 0.58002 0.39379 0.0
H3888 H 0.1423 0.57238 0.38049 0.0
S3889 S 0.17601 0.54121 0.38232 0.0
N3890 N 0.17755 0.55159 0.39043 0.0
N3891 N 0.16453 0.54326 0.37599 0.0
C3892 C 0.16143 0.55278 0.38036 0.0
C3893 C 0.1685 0.55731 0.38822 0.0
C3894 C 0.6708 0.92137 0.64376 0.0
C3895 C 0.66233 0.91618 0.64918 0.0
C3896 C 0.67635 0.91631 0.63538 0.0
C3897 C 0.67364 0.90586 0.63199 0.0
H3898 H 0.67339 0.92933 0.64617 0.0
H3899 H 0.68294 0.92061 0.63165 0.0
S3900 S 0.65142 0.88912 0.64286 0.0
N3901 N 0.65101 0.90025 0.65007 0.0
N3902 N 0.66141 0.89075 0.63427 0.0
C3903 C 0.66488 0.90074 0.63702 0.0
C3904 C 0.65925 0.90588 0.64562 0.0
C3905 C 0.33835 0.43596 0.89089 0.0
C3906 C 0.34113 0.4368 0.90183 0.0
C3907 C 0.34439 0.44115 0.8829 0.0
C3908 C 0.35352 0.44731 0.88552 0.0
H3909 H 0.33147 0.43122 0.88843 0.0
H3910 H 0.34199 0.44014 0.87459 0.0
S3911 S 0.36407 0.45237 0.91299 0.0
N3912 N 0.35353 0.44454 0.91487 0.0
N3913 N 0.36486 0.45422 0.89988 0.0
C3914 C 0.35632 0.44833 0.89643 0.0
C3915 C 0.35013 0.44311 0.90457 0.0
C3916 C 0.33485 0.59538 0.63753 0.0
C3917 C 0.32883 0.58599 0.63948 0.0
C3918 C 0.33188 0.60269 0.62948 0.0
C3919 C 0.32274 0.60094 0.62306 0.0
H3920 H 0.34186 0.59723 0.64236 0.0
H3921 H 0.33668 0.60988 0.62848 0.0
S3922 S 0.30475 0.57714 0.62417 0.0
N3923 N 0.31364 0.57503 0.6338 0.0
N3924 N 0.30811 0.58873 0.61865 0.0
C3925 C 0.31686 0.5914 0.62463 0.0
C3926 C 0.3199 0.58394 0.63283 0.0
C3927 C 0.84068 0.07483 0.10912 0.0
C3928 C 0.84394 0.0835 0.1026 0.0
C3929 C 0.84679 0.07155 0.11799 0.0
C3930 C 0.85642 0.07681 0.12076 0.0
H3931 H 0.83346 0.07035 0.10725 0.0
H3932 H 0.84401 0.06469 0.12258 0.0
S3933 S 0.86795 0.1007 0.10702 0.0
N3934 N 0.85703 0.09782 0.10005 0.0
N3935 N 0.86852 0.09166 0.11672 0.0
C3936 C 0.85954 0.08579 0.11461 0.0
C3937 C 0.85331 0.08913 0.10554 0.0
C3938 C 0.6952 0.0823 0.85549 0.0
C3939 C 0.68598 0.08457 0.84933 0.0
C3940 C 0.6971 0.08748 0.86532 0.0
C3941 C 0.68984 0.09512 0.86945 0.0
H3942 H 0.70116 0.07664 0.8526 0.0
H3943 H 0.70443 0.08558 0.86962 0.0
S3944 S 0.66399 0.10331 0.85688 0.0
N3945 N 0.66916 0.09452 0.84839 0.0
N3946 N 0.67272 0.10426 0.86682 0.0
C3947 C 0.68039 0.09721 0.86354 0.0
C3948 C 0.67848 0.09195 0.8535 0.0
C3949 C 0.8234 0.90893 0.35811 0.0
C3950 C 0.83333 0.90672 0.35316 0.0
C3951 C 0.82005 0.90333 0.36728 0.0
C3952 C 0.8265 0.89528 0.37195 0.0
H3953 H 0.81801 0.91489 0.35477 0.0
H3954 H 0.81223 0.90522 0.3706 0.0
S3955 S 0.85371 0.8871 0.36272 0.0
N3956 N 0.84994 0.89641 0.35405 0.0
N3957 N 0.84367 0.88589 0.37131 0.0
C3958 C 0.83666 0.89327 0.36735 0.0
C3959 C 0.84006 0.89898 0.35796 0.0
C3960 C 0.413 0.35535 0.04721 0.0
C3961 C 0.41692 0.35989 0.05681 0.0
C3962 C 0.4037 0.35931 0.04223 0.0
C3963 C 0.39791 0.36799 0.04666 0.0
H3964 H 0.41682 0.34831 0.04376 0.0
H3965 H 0.40074 0.35517 0.03517 0.0
S3966 S 0.40593 0.38402 0.07055 0.0
N3967 N 0.41512 0.37448 0.06972 0.0
N3968 N 0.39765 0.38193 0.06038 0.0
C3969 C 0.40223 0.37315 0.05576 0.0
C3970 C 0.41172 0.36911 0.06083 0.0
C3971 C 0.39124 0.65763 0.79522 0.0
C3972 C 0.3893 0.66498 0.8036 0.0
C3973 C 0.38436 0.64891 0.79338 0.0
C3974 C 0.37524 0.64715 0.79986 0.0
H3975 H 0.39843 0.65827 0.79034 0.0
H3976 H 0.38655 0.6432 0.78717 0.0
S3977 S 0.36541 0.66518 0.82154 0.0
N3978 N 0.37674 0.67077 0.81746 0.0
N3979 N 0.36382 0.65436 0.81402 0.0
C3980 C 0.37271 0.65494 0.80768 0.0
C3981 C 0.37972 0.66385 0.80954 0.0
C3982 C 0.09229 0.62137 0.56954 0.0
C3983 C 0.08641 0.63046 0.5662 0.0
C3984 C 0.10106 0.61757 0.56358 0.0
C3985 C 0.10433 0.62269 0.55403 0.0
H3986 H 0.09049 0.61749 0.57713 0.0
H3987 H 0.10565 0.61092 0.56683 0.0
S3988 S 0.09033 0.64543 0.54066 0.0
N3989 N 0.08352 0.64348 0.55188 0.0
N3990 N 0.1 0.63634 0.54069 0.0
C3991 C 0.09796 0.63119 0.55011 0.0
C3992 C 0.08901 0.63507 0.55619 0.0
C3993 C 0.09742 0.34317 0.29288 0.0
C3994 C 0.10207 0.33566 0.29996 0.0
C3995 C 0.10316 0.35217 0.28929 0.0
C3996 C 0.11381 0.35405 0.29261 0.0
H3997 H 0.08909 0.34241 0.29046 0.0
H3998 H 0.099 0.35793 0.28426 0.0
S3999 S 0.13034 0.33585 0.30958 0.0
N4000 N 0.11845 0.32998 0.30904 0.0
N4001 N 0.12925 0.34689 0.30229 0.0
C4002 C 0.11886 0.34616 0.29899 0.0
C4003 C 0.11299 0.33698 0.30267 0.0
C4004 C 0.41118 0.63904 0.44683 0.0
C4005 C 0.41405 0.63445 0.43689 0.0
C4006 C 0.40223 0.63536 0.4526 0.0
C4007 C 0.39577 0.62693 0.44868 0.0
H4008 H 0.41553 0.64592 0.44995 0.0
H4009 H 0.40006 0.63956 0.45992 0.0
S4010 S 0.40105 0.61079 0.42411 0.0
N4011 N 0.41061 0.62 0.42414 0.0
N4012 N 0.3938 0.61309 0.43498 0.0
C4013 C 0.39908 0.62168 0.43921 0.0
C4014 C 0.40821 0.62543 0.43332 0.0
C4015 C 0.1019 0.65728 0.20681 0.0
C4016 C 0.10638 0.6643 0.19915 0.0
C4017 C 0.10746 0.64816 0.21036 0.0
C4018 C 0.11776 0.64565 0.2064 0.0
H4019 H 0.0938 0.65853 0.20976 0.0
H4020 H 0.10341 0.64279 0.21588 0.0
S4021 S 0.13388 0.66241 0.18764 0.0
N4022 N 0.12233 0.66886 0.18876 0.0
N4023 N 0.1328 0.65171 0.19542 0.0
C4024 C 0.1227 0.65305 0.19938 0.0
C4025 C 0.11701 0.66236 0.19576 0.0
C4026 C 0.08984 0.35395 0.95178 0.0
C4027 C 0.08596 0.35893 0.94238 0.0
C4028 C 0.0988 0.35801 0.95728 0.0
C4029 C 0.10427 0.36722 0.9536 0.0
H4030 H 0.0863 0.34652 0.95464 0.0
H4031 H 0.10179 0.35354 0.96413 0.0
S4032 S 0.09609 0.38444 0.93061 0.0
N4033 N 0.08736 0.37445 0.93053 0.0
N4034 N 0.10419 0.38207 0.94085 0.0
C4035 C 0.09993 0.37279 0.94474 0.0
C4036 C 0.09079 0.36864 0.93914 0.0
C4037 C 0.38516 0.33943 0.6989 0.0
C4038 C 0.38081 0.33457 0.68964 0.0
C4039 C 0.38017 0.3483 0.70374 0.0
C4040 C 0.37063 0.35269 0.69952 0.0
H4041 H 0.39278 0.33673 0.70216 0.0
H4042 H 0.38416 0.35207 0.7105 0.0
S4043 S 0.35488 0.34167 0.67665 0.0
N4044 N 0.3656 0.33388 0.67736 0.0
N4045 N 0.35623 0.35054 0.68643 0.0
C4046 C 0.36573 0.34736 0.6908 0.0
C4047 C 0.37082 0.33831 0.68587 0.0
C4048 C 0.06209 0.41342 0.36982 0.0
C4049 C 0.05703 0.41776 0.36067 0.0
C4050 C 0.05801 0.40426 0.37496 0.0
C4051 C 0.04871 0.39904 0.37116 0.0
H4052 H 0.06958 0.41677 0.37274 0.0
H4053 H 0.06253 0.40093 0.38162 0.0
S4054 S 0.03129 0.40837 0.34876 0.0
N4055 N 0.04136 0.41702 0.34896 0.0
N4056 N 0.03372 0.3998 0.3586 0.0
C4057 C 0.04308 0.40381 0.36257 0.0
C4058 C 0.04723 0.41316 0.35733 0.0
C4059 C 0.33954 0.30418 0.11328 0.0
C4060 C 0.33347 0.31355 0.11515 0.0
C4061 C 0.34865 0.30178 0.11947 0.0
C4062 C 0.35207 0.30865 0.12779 0.0
H4063 H 0.33761 0.29891 0.10662 0.0
H4064 H 0.35334 0.29477 0.11731 0.0
S4065 S 0.33777 0.33308 0.13733 0.0
N4066 N 0.33065 0.32891 0.12694 0.0
N4067 N 0.34775 0.32442 0.13856 0.0
C4068 C 0.34555 0.31756 0.13034 0.0
C4069 C 0.33627 0.32001 0.12402 0.0
C4070 C 0.4457 0.58708 0.86434 0.0
C4071 C 0.43616 0.58204 0.86776 0.0
C4072 C 0.44972 0.59619 0.86962 0.0
C4073 C 0.44435 0.60065 0.87854 0.0
H4074 H 0.44983 0.58433 0.85718 0.0
H4075 H 0.45677 0.60007 0.8663 0.0
S4076 S 0.42024 0.58925 0.89197 0.0
N4077 N 0.42232 0.58127 0.88157 0.0
N4078 N 0.42986 0.59838 0.89149 0.0
C4079 C 0.43532 0.59515 0.88259 0.0
C4080 C 0.43123 0.58586 0.87721 0.0
C4081 C 0.16435 0.69775 0.60978 0.0
C4082 C 0.16621 0.70288 0.59987 0.0
C4083 C 0.15571 0.70073 0.61638 0.0
C4084 C 0.14857 0.70897 0.61332 0.0
H4085 H 0.16924 0.69098 0.61226 0.0
H4086 H 0.15432 0.69613 0.62364 0.0
S4087 S 0.15116 0.72636 0.58919 0.0
N4088 N 0.16112 0.71766 0.58809 0.0
N4089 N 0.14489 0.72325 0.60047 0.0
C4090 C 0.15088 0.71478 0.60388 0.0
C4091 C 0.1597 0.71174 0.59716 0.0
C4092 C 0.05757 0.58682 0.13603 0.0
C4093 C 0.05214 0.58388 0.14552 0.0
C4094 C 0.05449 0.5959 0.1301 0.0
C4095 C 0.04586 0.60243 0.13342 0.0
H4096 H 0.06461 0.58241 0.13342 0.0
H4097 H 0.0593 0.5981 0.12318 0.0
S4098 S 0.02771 0.59708 0.15653 0.0
N4099 N 0.03675 0.58738 0.1571 0.0
N4100 N 0.03098 0.60443 0.14598 0.0
C4101 C 0.03981 0.59908 0.14239 0.0
C4102 C 0.04294 0.58982 0.14843 0.0
C4103 C 0.15635 0.28959 0.89718 0.0
C4104 C 0.16362 0.29759 0.89383 0.0
C4105 C 0.14746 0.28676 0.89088 0.0
C4106 C 0.14545 0.29179 0.88095 0.0
H4107 H 0.15721 0.2858 0.90498 0.0
H4108 H 0.14187 0.28091 0.8941 0.0
S4109 S 0.16305 0.31193 0.86764 0.0
N4110 N 0.16896 0.30954 0.87928 0.0
N4111 N 0.15225 0.30421 0.86742 0.0
C4112 C 0.15311 0.2992 0.8771 0.0
C4113 C 0.16219 0.3021 0.88354 0.0
C4114 C 0.45375 0.40829 0.64203 0.0
C4115 C 0.445 0.41483 0.63905 0.0
C4116 C 0.45695 0.39956 0.63567 0.0
C4117 C 0.45153 0.39699 0.62607 0.0
H4118 H 0.45785 0.40956 0.64961 0.0
H4119 H 0.46336 0.39447 0.63864 0.0
S4120 S 0.42948 0.41281 0.61361 0.0
N4121 N 0.43197 0.41904 0.62506 0.0
N4122 N 0.43799 0.40264 0.61312 0.0
C4123 C 0.44337 0.404 0.62254 0.0
C4124 C 0.44011 0.41291 0.62902 0.0
C4125 C 0.34544 0.71364 0.40431 0.0
C4126 C 0.33779 0.70646 0.40004 0.0
C4127 C 0.35432 0.71699 0.39826 0.0
C4128 C 0.35595 0.71334 0.38767 0.0
H4129 H 0.34487 0.71632 0.41257 0.0
H4130 H 0.36021 0.72211 0.40214 0.0
S4131 S 0.33732 0.69595 0.37209 0.0
N4132 N 0.33171 0.6969 0.38408 0.0
N4133 N 0.34841 0.70322 0.37271 0.0
C4134 C 0.34793 0.70685 0.383 0.0
C4135 C 0.33886 0.70341 0.38919 0.0
C4136 C 0.35099 0.04231 0.40921 0.0
C4137 C 0.35565 0.05133 0.41422 0.0
C4138 C 0.35576 0.03752 0.40019 0.0
C4139 C 0.36539 0.04156 0.3958 0.0
H4140 H 0.34331 0.03922 0.4119 0.0
H4141 H 0.35154 0.03096 0.39631 0.0
S4142 S 0.3819 0.0637 0.40716 0.0
N4143 N 0.37123 0.06315 0.41503 0.0
N4144 N 0.38019 0.05416 0.3981 0.0
C4145 C 0.37059 0.05 0.40127 0.0
C4146 C 0.36572 0.05488 0.41047 0.0
C4147 C 0.87306 0.43129 0.58961 0.0
C4148 C 0.86551 0.43795 0.58444 0.0
C4149 C 0.87888 0.43488 0.59855 0.0
C4150 C 0.87743 0.4453 0.60272 0.0
H4151 H 0.87416 0.42303 0.58707 0.0
H4152 H 0.88421 0.42923 0.6025 0.0
S4153 S 0.86 0.46656 0.59103 0.0
N4154 N 0.85791 0.45596 0.58333 0.0
N4155 N 0.86886 0.46271 0.60014 0.0
C4156 C 0.87053 0.45234 0.59713 0.0
C4157 C 0.86458 0.44867 0.58799 0.0
C4158 C 0.2909 0.10065 0.33751 0.0
C4159 C 0.30033 0.10569 0.33379 0.0
C4160 C 0.28521 0.10467 0.34635 0.0
C4161 C 0.28867 0.11393 0.35186 0.0
H4162 H 0.28814 0.09322 0.3339 0.0
H4163 H 0.27831 0.10017 0.34916 0.0
S4164 S 0.31178 0.13124 0.3442 0.0
N4165 N 0.31208 0.12126 0.33545 0.0
N4166 N 0.30137 0.12883 0.35207 0.0
C4167 C 0.29759 0.11955 0.3477 0.0
C4168 C 0.30341 0.11543 0.33868 0.0
C4169 C 0.63432 0.5559 0.08905 0.0
C4170 C 0.64377 0.55068 0.08561 0.0
C4171 C 0.62853 0.55222 0.09798 0.0
C4172 C 0.63193 0.54316 0.10387 0.0
H4173 H 0.63166 0.56323 0.08517 0.0
H4174 H 0.62165 0.55687 0.10061 0.0
S4175 S 0.65492 0.52541 0.09696 0.0
N4176 N 0.65537 0.53508 0.08789 0.0
N4177 N 0.64449 0.52818 0.10468 0.0
C4178 C 0.64084 0.53735 0.09999 0.0
C4179 C 0.64675 0.5411 0.09087 0.0
C4180 C 0.68388 0.37737 0.34069 0.0
C4181 C 0.68879 0.38447 0.33336 0.0
C4182 C 0.6892 0.374 0.35003 0.0
C4183 C 0.69966 0.37757 0.35246 0.0
H4184 H 0.67566 0.37476 0.3395 0.0
H4185 H 0.68483 0.36894 0.35561 0.0
S4186 S 0.7168 0.39471 0.33501 0.0
N4187 N 0.70527 0.39385 0.3285 0.0
N4188 N 0.71526 0.38751 0.34605 0.0
C4189 C 0.70499 0.38399 0.34479 0.0
C4190 C 0.69956 0.38742 0.33525 0.0
C4191 C 0.14305 0.95242 0.90989 0.0
C4192 C 0.13853 0.94384 0.91573 0.0
C4193 C 0.13803 0.95652 0.90069 0.0
C4194 C 0.12826 0.95222 0.89692 0.0
H4195 H 0.15082 0.95568 0.9121 0.0
H4196 H 0.14214 0.96276 0.89622 0.0
S4197 S 0.11206 0.93107 0.91043 0.0
N4198 N 0.12295 0.93219 0.91792 0.0
N4199 N 0.1135 0.93989 0.90062 0.0
C4200 C 0.12318 0.94426 0.90319 0.0
C4201 C 0.12832 0.94007 0.91258 0.0
C4202 C 0.30584 0.88391 0.16328 0.0
C4203 C 0.30014 0.89317 0.16644 0.0
C4204 C 0.30282 0.87802 0.15416 0.0
C4205 C 0.29397 0.88115 0.14782 0.0
H4206 H 0.31304 0.88149 0.16752 0.0
H4207 H 0.30783 0.87131 0.15177 0.0
S4208 S 0.27511 0.9035 0.15384 0.0
N4209 N 0.2843 0.90425 0.16339 0.0
N4210 N 0.27863 0.89319 0.14626 0.0
C4211 C 0.28767 0.88983 0.15141 0.0
C4212 C 0.29074 0.89584 0.16071 0.0
C4213 C 0.17711 0.12648 0.65785 0.0
C4214 C 0.1839 0.11915 0.66316 0.0
C4215 C 0.18061 0.13225 0.64885 0.0
C4216 C 0.19107 0.13095 0.64473 0.0
H4217 H 0.16882 0.12745 0.66036 0.0
H4218 H 0.17487 0.13741 0.64482 0.0
S4219 S 0.21263 0.11409 0.6567 0.0
N4220 N 0.20205 0.11189 0.66441 0.0
N4221 N 0.20863 0.12275 0.64747 0.0
C4222 C 0.19823 0.12427 0.65043 0.0
C4223 C 0.19465 0.11837 0.65964 0.0
C4224 C 0.06149 0.19371 0.3841 0.0
C4225 C 0.06491 0.19371 0.39487 0.0
C4226 C 0.06804 0.19786 0.37593 0.0
C4227 C 0.07822 0.20222 0.37825 0.0
H4228 H 0.05377 0.19029 0.38194 0.0
H4229 H 0.06518 0.1975 0.36771 0.0
S4230 S 0.09003 0.2058 0.40541 0.0
N4231 N 0.07859 0.19942 0.40759 0.0
N4232 N 0.09078 0.20752 0.39226 0.0
C4233 C 0.08153 0.2027 0.38905 0.0
C4234 C 0.0749 0.19836 0.39736 0.0
C4235 C 0.0538 0.81216 0.63328 0.0
C4236 C 0.05283 0.8154 0.64406 0.0
C4237 C 0.05102 0.81912 0.62486 0.0
C4238 C 0.04715 0.82953 0.62695 0.0
H4239 H 0.05679 0.80422 0.63133 0.0
H4240 H 0.05198 0.81635 0.61666 0.0
S4241 S 0.04159 0.84121 0.65383 0.0
N4242 N 0.04681 0.82927 0.65642 0.0
N4243 N 0.04138 0.84229 0.6406 0.0
C4244 C 0.04582 0.83274 0.63771 0.0
C4245 C 0.04873 0.82568 0.64628 0.0
C4246 C 0.42481 0.79844 0.89604 0.0
C4247 C 0.43497 0.80271 0.89355 0.0
C4248 C 0.41792 0.79471 0.88794 0.0
C4249 C 0.42091 0.79519 0.87704 0.0
H4250 H 0.42223 0.79777 0.90433 0.0
H4251 H 0.4103 0.79122 0.89027 0.0
S4252 S 0.44677 0.80548 0.8663 0.0
N4253 N 0.4478 0.807 0.87945 0.0
N4254 N 0.43483 0.80008 0.86421 0.0
C4255 C 0.43114 0.79925 0.87446 0.0
C4256 C 0.43818 0.803 0.88272 0.0
C4257 C 0.43757 0.17664 0.13653 0.0
C4258 C 0.44419 0.18439 0.14141 0.0
C4259 C 0.44134 0.17026 0.12804 0.0
C4260 C 0.45186 0.17144 0.12408 0.0
H4261 H 0.42928 0.17572 0.13901 0.0
H4262 H 0.43585 0.16463 0.12433 0.0
S4263 S 0.4724 0.19065 0.13402 0.0
N4264 N 0.46177 0.19294 0.14164 0.0
N4265 N 0.46885 0.18099 0.12563 0.0
C4266 C 0.45854 0.17924 0.12881 0.0
C4267 C 0.45471 0.18571 0.13748 0.0
C4268 C 0.06692 0.79236 0.11427 0.0
C4269 C 0.06595 0.80307 0.11076 0.0
C4270 C 0.07426 0.78953 0.12234 0.0
C4271 C 0.08089 0.7973 0.12716 0.0
H4272 H 0.06195 0.78613 0.11077 0.0
H4273 H 0.07474 0.78119 0.12482 0.0
S4274 S 0.08045 0.82664 0.12187 0.0
N4275 N 0.07152 0.82161 0.11343 0.0
N4276 N 0.08541 0.81626 0.12852 0.0
C4277 C 0.07989 0.80806 0.12386 0.0
C4278 C 0.07238 0.81095 0.11567 0.0
C4279 C 0.45415 0.81387 0.36458 0.0
C4280 C 0.44798 0.81692 0.3556 0.0
C4281 C 0.45665 0.82122 0.37273 0.0
C4282 C 0.45309 0.83194 0.37227 0.0
H4283 H 0.457 0.80568 0.36539 0.0
H4284 H 0.46148 0.81846 0.37943 0.0
S4285 S 0.43674 0.84407 0.35045 0.0
N4286 N 0.43898 0.83163 0.3464 0.0
N4287 N 0.44252 0.84507 0.36236 0.0
C4288 C 0.44679 0.83508 0.36341 0.0
C4289 C 0.44452 0.82766 0.35492 0.0
C4290 C 0.43322 0.20888 0.61396 0.0
C4291 C 0.43323 0.19842 0.60964 0.0
C4292 C 0.42639 0.21166 0.62248 0.0
C4293 C 0.4193 0.20409 0.62693 0.0
H4294 H 0.43851 0.21499 0.6107 0.0
H4295 H 0.4266 0.21982 0.62554 0.0
S4296 S 0.41729 0.17527 0.61963 0.0
N4297 N 0.42639 0.18018 0.6113 0.0
N4298 N 0.41331 0.1855 0.6271 0.0
C4299 C 0.41937 0.19356 0.62288 0.0
C4300 C 0.42641 0.19069 0.61427 0.0
C4301 C 0.04734 0.18909 0.863 0.0
C4302 C 0.05412 0.1847 0.85508 0.0
C4303 C 0.04365 0.18286 0.87163 0.0
C4304 C 0.04657 0.17199 0.8727 0.0
H4305 H 0.04497 0.19746 0.86261 0.0
H4306 H 0.03842 0.18661 0.87751 0.0
S4307 S 0.06408 0.1566 0.85409 0.0
N4308 N 0.06292 0.16855 0.84845 0.0
N4309 N 0.05721 0.1573 0.86542 0.0
C4310 C 0.05345 0.16753 0.86491 0.0
C4311 C 0.05691 0.17377 0.85591 0.0
C4312 C 0.38803 0.07379 0.18806 0.0
C4313 C 0.39244 0.065 0.19364 0.0
C4314 C 0.37994 0.08014 0.19265 0.0
C4315 C 0.37589 0.0779 0.20296 0.0
H4316 H 0.39055 0.07559 0.17994 0.0
H4317 H 0.3766 0.08667 0.18794 0.0
S4318 S 0.38456 0.05574 0.22091 0.0
N4319 N 0.39209 0.05435 0.21005 0.0
N4320 N 0.37677 0.06624 0.2186 0.0
C4321 C 0.3801 0.06906 0.20859 0.0
C4322 C 0.38839 0.06262 0.20395 0.0
C4323 C 0.1916 0.13801 0.44919 0.0
C4324 C 0.18724 0.14659 0.44323 0.0
C4325 C 0.18515 0.12946 0.45271 0.0
C4326 C 0.17409 0.12908 0.45036 0.0
H4327 H 0.20011 0.13784 0.45105 0.0
H4328 H 0.18889 0.12309 0.45733 0.0
S4329 S 0.15873 0.14957 0.4351 0.0
N4330 N 0.17096 0.15462 0.43605 0.0
N4331 N 0.15928 0.1377 0.44097 0.0
C4332 C 0.16968 0.13751 0.44425 0.0
C4333 C 0.17614 0.14648 0.44112 0.0
C4334 C 0.10518 0.92454 0.69307 0.0
C4335 C 0.10561 0.93564 0.69516 0.0
C4336 C 0.11315 0.91756 0.69683 0.0
C4337 C 0.12158 0.92123 0.7034 0.0
H4338 H 0.09858 0.92112 0.68861 0.0
H4339 H 0.11279 0.9093 0.69425 0.0
S4340 S 0.12603 0.94951 0.71195 0.0
N4341 N 0.11513 0.95001 0.7044 0.0
N4342 N 0.12969 0.93675 0.71216 0.0
C4343 C 0.12194 0.93228 0.70587 0.0
C4344 C 0.11399 0.93948 0.70172 0.0
C4345 C 0.3115 0.86675 0.94775 0.0
C4346 C 0.31466 0.8559 0.9477 0.0
C4347 C 0.31872 0.87489 0.95067 0.0
C4348 C 0.32934 0.87245 0.9537 0.0
H4349 H 0.30341 0.86898 0.94541 0.0
H4350 H 0.31599 0.88316 0.95047 0.0
S4351 S 0.34102 0.84515 0.9565 0.0
N4352 N 0.32875 0.84304 0.95187 0.0
N4353 N 0.34227 0.85832 0.95764 0.0
C4354 C 0.33249 0.8616 0.95404 0.0
C4355 C 0.32515 0.85332 0.95096 0.0
C4356 C 0.38146 0.93566 0.3043 0.0
C4357 C 0.39224 0.93304 0.30213 0.0
C4358 C 0.37315 0.92838 0.30215 0.0
C4359 C 0.3753 0.91819 0.29774 0.0
H4360 H 0.37942 0.94347 0.30758 0.0
H4361 H 0.36494 0.93078 0.30385 0.0
S4362 S 0.40203 0.90786 0.28951 0.0
N4363 N 0.40456 0.91984 0.29467 0.0
N4364 N 0.38891 0.90613 0.2906 0.0
C4365 C 0.38603 0.91547 0.29549 0.0
C4366 C 0.39452 0.9229 0.29769 0.0
C4367 C 0.31494 0.13762 0.54488 0.0
C4368 C 0.31544 0.14161 0.55545 0.0
C4369 C 0.32185 0.1294 0.54143 0.0
C4370 C 0.32953 0.12496 0.54843 0.0
H4371 H 0.30922 0.14095 0.5392 0.0
H4372 H 0.32126 0.12659 0.53321 0.0
S4373 S 0.33291 0.13132 0.57734 0.0
N4374 N 0.32331 0.13952 0.57323 0.0
N4375 N 0.33653 0.12434 0.56664 0.0
C4376 C 0.32991 0.12864 0.55909 0.0
C4377 C 0.3228 0.13691 0.56263 0.0
C4378 C 0.11699 0.06447 0.80579 0.0
C4379 C 0.10633 0.06805 0.80468 0.0
C4380 C 0.12565 0.07083 0.80241 0.0
C4381 C 0.12396 0.08101 0.79779 0.0
H4382 H 0.11867 0.05672 0.80939 0.0
H4383 H 0.13374 0.06779 0.8035 0.0
S4384 S 0.09754 0.09336 0.79161 0.0
N4385 N 0.09451 0.08195 0.79769 0.0
N4386 N 0.1108 0.0939 0.79126 0.0
C4387 C 0.11333 0.08456 0.79635 0.0
C4388 C 0.1045 0.07809 0.79982 0.0
C4389 C 0.18757 0.86452 0.05238 0.0
C4390 C 0.1841 0.85377 0.05215 0.0
C4391 C 0.1809 0.87283 0.04873 0.0
C4392 C 0.17056 0.87068 0.04468 0.0
H4393 H 0.19541 0.86653 0.0556 0.0
H4394 H 0.18379 0.88104 0.04925 0.0
S4395 S 0.15854 0.84368 0.04062 0.0
N4396 N 0.1702 0.84127 0.04651 0.0
N4397 N 0.15777 0.85688 0.03935 0.0
C4398 C 0.16721 0.85991 0.04395 0.0
C4399 C 0.17396 0.85145 0.04776 0.0
C4400 C 0.19989 0.38635 0.05927 0.0
C4401 C 0.19389 0.39511 0.06315 0.0
C4402 C 0.2033 0.3781 0.06615 0.0
C4403 C 0.20082 0.37823 0.0772 0.0
H4404 H 0.20186 0.38577 0.0508 0.0
H4405 H 0.20793 0.37155 0.06276 0.0
S4406 S 0.18553 0.39953 0.09141 0.0
N4407 N 0.1865 0.40391 0.07893 0.0
N4408 N 0.19144 0.38766 0.09151 0.0
C4409 C 0.19474 0.38691 0.08115 0.0
C4410 C 0.19164 0.39553 0.07421 0.0
C4411 C 0.70057 0.10894 0.94317 0.0
C4412 C 0.69391 0.10047 0.93979 0.0
C4413 C 0.70392 0.11696 0.936 0.0
C4414 C 0.70079 0.11681 0.92512 0.0
H4415 H 0.70307 0.10952 0.9515 0.0
H4416 H 0.70899 0.12336 0.93903 0.0
S4417 S 0.68378 0.09603 0.91209 0.0
N4418 N 0.68505 0.09188 0.92463 0.0
N4419 N 0.6904 0.10751 0.91141 0.0
C4420 C 0.69417 0.10832 0.92161 0.0
C4421 C 0.69097 0.10001 0.92888 0.0
C4422 C 0.13265 0.44639 0.18638 0.0
C4423 C 0.1434 0.44631 0.18287 0.0
C4424 C 0.12425 0.44897 0.17935 0.0
C4425 C 0.12629 0.45154 0.16854 0.0
H4426 H 0.13071 0.44443 0.19465 0.0
H4427 H 0.11608 0.44895 0.18239 0.0
S4428 S 0.15311 0.4539 0.15573 0.0
N4429 N 0.1557 0.44999 0.16815 0.0
N4430 N 0.13988 0.45476 0.15487 0.0
C4431 C 0.137 0.45168 0.16495 0.0
C4432 C 0.14558 0.44908 0.17214 0.0
C4433 C 0.79587 0.89007 0.4362 0.0
C4434 C 0.80637 0.89413 0.43515 0.0
C4435 C 0.79222 0.88161 0.4297 0.0
C4436 C 0.79895 0.87693 0.42191 0.0
H4437 H 0.79043 0.89346 0.4421 0.0
H4438 H 0.78407 0.87873 0.43075 0.0
S4439 S 0.82761 0.88356 0.41708 0.0
N4440 N 0.82377 0.89211 0.42648 0.0
N4441 N 0.8169 0.87625 0.41423 0.0
C4442 C 0.80954 0.88074 0.42094 0.0
C4443 C 0.81326 0.88934 0.42757 0.0
C4444 C 0.86109 0.04588 0.18501 0.0
C4445 C 0.8569 0.05633 0.184 0.0
C4446 C 0.86969 0.04242 0.1786 0.0
C4447 C 0.8744 0.04929 0.17096 0.0
H4448 H 0.85767 0.04033 0.1908 0.0
H4449 H 0.87266 0.03429 0.17961 0.0
S4450 S 0.86746 0.07792 0.16633 0.0
N4451 N 0.85881 0.07385 0.17555 0.0
N4452 N 0.87496 0.06734 0.16349 0.0
C4453 C 0.87047 0.05984 0.17005 0.0
C4454 C 0.86171 0.06337 0.17658 0.0
C4455 C 0.29651 0.61315 0.5624 0.0
C4456 C 0.30678 0.60871 0.56405 0.0
C4457 C 0.29295 0.62196 0.56848 0.0
C4458 C 0.29954 0.6266 0.57639 0.0
H4459 H 0.29116 0.60974 0.55644 0.0
H4460 H 0.28494 0.62509 0.56705 0.0
S4461 S 0.32774 0.61918 0.58247 0.0
N4462 N 0.32393 0.6104 0.57327 0.0
N4463 N 0.31721 0.62694 0.58469 0.0
C4464 C 0.30995 0.62248 0.57785 0.0
C4465 C 0.31358 0.61352 0.57168 0.0
C4466 C 0.13636 0.54692 0.31039 0.0
C4467 C 0.14438 0.5536 0.31478 0.0
C4468 C 0.1279 0.54301 0.31672 0.0
C4469 C 0.1271 0.54561 0.3277 0.0
H4470 H 0.13655 0.54479 0.30195 0.0
H4471 H 0.12194 0.53787 0.31298 0.0
S4472 S 0.14602 0.56275 0.3431 0.0
N4473 N 0.15135 0.56198 0.33098 0.0
N4474 N 0.13471 0.55583 0.34251 0.0
C4475 C 0.13498 0.55237 0.33216 0.0
C4476 C 0.1438 0.55606 0.32579 0.0
C4477 C 0.36706 0.45158 0.81121 0.0
C4478 C 0.35819 0.44561 0.81493 0.0
C4479 C 0.37539 0.45462 0.81814 0.0
C4480 C 0.37522 0.45183 0.82909 0.0
H4481 H 0.36764 0.45386 0.80282 0.0
H4482 H 0.38199 0.45927 0.81488 0.0
S4483 S 0.35387 0.43625 0.84292 0.0
N4484 N 0.34946 0.43758 0.83047 0.0
N4485 N 0.36575 0.44216 0.84319 0.0
C4486 C 0.3665 0.44572 0.83291 0.0
C4487 C 0.35783 0.44289 0.8259 0.0
C4488 C 0.92311 0.8115 0.5964 0.0
C4489 C 0.92638 0.82093 0.60174 0.0
C4490 C 0.9165 0.8039 0.60144 0.0
C4491 C 0.91282 0.80542 0.61203 0.0
H4492 H 0.92531 0.81014 0.58808 0.0
H4493 H 0.91386 0.79703 0.59678 0.0
S4494 S 0.92037 0.8279 0.63017 0.0
N4495 N 0.92642 0.83073 0.6187 0.0
N4496 N 0.91396 0.81647 0.62814 0.0
C4497 C 0.91661 0.81444 0.61773 0.0
C4498 C 0.9234 0.82218 0.61261 0.0
C4499 C 0.93047 0.17252 0.35767 0.0
C4500 C 0.93299 0.17529 0.34699 0.0
C4501 C 0.93727 0.16591 0.36375 0.0
C4502 C 0.94691 0.16182 0.35943 0.0
H4503 H 0.92294 0.17504 0.36125 0.0
H4504 H 0.9347 0.16366 0.37176 0.0
S4505 S 0.95806 0.16812 0.33244 0.0
N4506 N 0.94642 0.17448 0.33278 0.0
N4507 N 0.95922 0.16209 0.3442 0.0
C4508 C 0.9499 0.16516 0.34903 0.0
C4509 C 0.94294 0.17188 0.34281 0.0
C4510 C 0.57959 0.1781 0.11318 0.0
C4511 C 0.57505 0.18086 0.10319 0.0
C4512 C 0.58617 0.1853 0.1188 0.0
C4513 C 0.58845 0.19561 0.11472 0.0
H4514 H 0.57845 0.17014 0.11652 0.0
H4515 H 0.58977 0.18259 0.12626 0.0
S4516 S 0.57736 0.20735 0.08959 0.0
N4517 N 0.57243 0.19503 0.08995 0.0
N4518 N 0.58476 0.20859 0.10053 0.0
C4519 C 0.58341 0.19874 0.10507 0.0
C4520 C 0.57673 0.19136 0.0993 0.0
C4521 C 0.57331 0.83206 0.86382 0.0
C4522 C 0.57129 0.82657 0.85413 0.0
C4523 C 0.5656 0.83888 0.86839 0.0
C4524 C 0.55551 0.84046 0.86351 0.0
H4525 H 0.58109 0.83148 0.8677 0.0
H4526 H 0.56775 0.84322 0.87563 0.0
S4527 S 0.54563 0.82675 0.83886 0.0
N4528 N 0.55804 0.8223 0.84038 0.0
N4529 N 0.54352 0.83506 0.84899 0.0
C4530 C 0.55312 0.83448 0.85418 0.0
C4531 C 0.56101 0.82756 0.84949 0.0
C4532 C 0.92207 0.18644 0.89886 0.0
C4533 C 0.92549 0.17639 0.8949 0.0
C4534 C 0.91523 0.19308 0.89286 0.0
C4535 C 0.91145 0.18993 0.88267 0.0
H4536 H 0.92436 0.18906 0.90685 0.0
H4537 H 0.9125 0.20052 0.89648 0.0
S4538 S 0.91919 0.16514 0.86794 0.0
N4539 N 0.92547 0.16417 0.87959 0.0
N4540 N 0.91256 0.17663 0.86837 0.0
C4541 C 0.91533 0.18023 0.87832 0.0
C4542 C 0.92236 0.17348 0.8844 0.0
C4543 C 0.56441 0.17544 0.64608 0.0
C4544 C 0.57466 0.1767 0.64145 0.0
C4545 C 0.55652 0.16909 0.64118 0.0
C4546 C 0.55854 0.16365 0.63146 0.0
H4547 H 0.56256 0.17906 0.65378 0.0
H4548 H 0.54893 0.16807 0.64534 0.0
S4549 S 0.58353 0.16546 0.61522 0.0
N4550 N 0.58601 0.17287 0.62595 0.0
N4551 N 0.57117 0.16088 0.61678 0.0
C4552 C 0.5685 0.16538 0.62637 0.0
C4553 C 0.57655 0.17192 0.63135 0.0
C4554 C 0.57546 0.82482 0.38644 0.0
C4555 C 0.57072 0.82157 0.39619 0.0
C4556 C 0.58224 0.81793 0.38066 0.0
C4557 C 0.58452 0.80747 0.38432 0.0
H4558 H 0.57435 0.83292 0.38345 0.0
H4559 H 0.586 0.82101 0.37343 0.0
S4560 S 0.57291 0.79449 0.4086 0.0
N4561 N 0.56789 0.80678 0.40869 0.0
N4562 N 0.58058 0.79381 0.39779 0.0
C4563 C 0.57926 0.80386 0.39368 0.0
C4564 C 0.57239 0.81091 0.39962 0.0
C4565 C 0.93618 0.82784 0.15303 0.0
C4566 C 0.92681 0.82551 0.14711 0.0
C4567 C 0.94454 0.83393 0.14859 0.0
C4568 C 0.94392 0.838 0.13805 0.0
H4569 H 0.93696 0.82523 0.16129 0.0
H4570 H 0.95139 0.83574 0.15366 0.0
S4571 S 0.9217 0.83316 0.11868 0.0
N4572 N 0.91783 0.82697 0.12977 0.0
N4573 N 0.93355 0.83845 0.12145 0.0
C4574 C 0.93487 0.83525 0.13181 0.0
C4575 C 0.92633 0.829 0.13634 0.0
C4576 C 0.60615 0.92678 0.81633 0.0
C4577 C 0.59562 0.92942 0.81313 0.0
C4578 C 0.61236 0.91941 0.81049 0.0
C4579 C 0.60835 0.91441 0.80115 0.0
H4580 H 0.60952 0.93013 0.82363 0.0
H4581 H 0.62029 0.91743 0.81351 0.0
S4582 S 0.58168 0.9195 0.78865 0.0
N4583 N 0.58176 0.92711 0.79951 0.0
N4584 N 0.59343 0.91333 0.78851 0.0
C4585 C 0.59802 0.91739 0.79756 0.0
C4586 C 0.59166 0.92486 0.80355 0.0
C4587 C 0.83666 0.83695 0.54691 0.0
C4588 C 0.82901 0.83997 0.55469 0.0
C4589 C 0.84322 0.8446 0.54187 0.0
C4590 C 0.84245 0.8556 0.54443 0.0
H4591 H 0.83782 0.82857 0.54485 0.0
H4592 H 0.84918 0.84178 0.53618 0.0
S4593 S 0.82298 0.8679 0.56344 0.0
N4594 N 0.82049 0.85489 0.5641 0.0
N4595 N 0.83284 0.86923 0.55466 0.0
C4596 C 0.83452 0.8588 0.55184 0.0
C4597 C 0.82779 0.85101 0.55695 0.0
C4598 C 0.90473 0.07764 0.30787 0.0
C4599 C 0.89999 0.07231 0.31667 0.0
C4600 C 0.89866 0.08425 0.30107 0.0
C4601 C 0.88759 0.08587 0.30278 0.0
H4602 H 0.9133 0.07706 0.30644 0.0
H4603 H 0.90283 0.0885 0.29471 0.0
S4604 S 0.87093 0.0725 0.32365 0.0
N4605 N 0.88326 0.06815 0.32596 0.0
N4606 N 0.87188 0.08061 0.31319 0.0
C4607 C 0.88259 0.08003 0.3111 0.0
C4608 C 0.88877 0.07325 0.31802 0.0
C4609 C 0.67279 0.13862 0.0714 0.0
C4610 C 0.677 0.14872 0.06849 0.0
C4611 C 0.6661 0.13284 0.06442 0.0
C4612 C 0.66337 0.13688 0.0542 0.0
H4613 H 0.67426 0.13533 0.07933 0.0
H4614 H 0.66275 0.12532 0.06726 0.0
S4615 S 0.6736 0.16219 0.04205 0.0
N4616 N 0.6789 0.16197 0.05422 0.0
N4617 N 0.66638 0.1511 0.04108 0.0
C4618 C 0.6681 0.14663 0.0509 0.0
C4619 C 0.67489 0.15255 0.05804 0.0
C4620 C 0.59435 0.07713 0.68913 0.0
C4621 C 0.59865 0.07312 0.67945 0.0
C4622 C 0.60044 0.08369 0.69597 0.0
C4623 C 0.61108 0.08656 0.6934 0.0
H4624 H 0.58605 0.07557 0.69127 0.0
H4625 H 0.59657 0.08693 0.70307 0.0
S4626 S 0.62672 0.07684 0.66989 0.0
N4627 N 0.61467 0.0715 0.6683 0.0
N4628 N 0.62608 0.08386 0.68113 0.0
C4629 C 0.61572 0.08204 0.68412 0.0
C4630 C 0.60953 0.07531 0.67716 0.0
C4631 C 0.67122 0.85922 0.42799 0.0
C4632 C 0.67588 0.84909 0.42993 0.0
C4633 C 0.66438 0.86405 0.43553 0.0
C4634 C 0.66192 0.85897 0.44534 0.0
H4635 H 0.67243 0.86327 0.42038 0.0
H4636 H 0.66063 0.87162 0.4334 0.0
S4637 S 0.6735 0.83322 0.45513 0.0
N4638 N 0.67861 0.83476 0.44298 0.0
N4639 N 0.66578 0.84383 0.45714 0.0
C4640 C 0.66715 0.8492 0.44772 0.0
C4641 C 0.67412 0.84427 0.44003 0.0
C4642 C 0.90385 0.92078 0.19342 0.0
C4643 C 0.89936 0.92588 0.18436 0.0
C4644 C 0.89756 0.91442 0.20027 0.0
C4645 C 0.88651 0.91287 0.19836 0.0
H4646 H 0.91239 0.9213 0.19501 0.0
H4647 H 0.90153 0.91031 0.20684 0.0
S4648 S 0.87046 0.92584 0.17676 0.0
N4649 N 0.88289 0.92997 0.17459 0.0
N4650 N 0.87109 0.91802 0.18746 0.0
C4651 C 0.88176 0.91852 0.18977 0.0
C4652 C 0.88817 0.92502 0.18278 0.0
C4653 C 0.82559 0.14976 0.9411 0.0
C4654 C 0.8216 0.14512 0.93157 0.0
C4655 C 0.83243 0.14404 0.94798 0.0
C4656 C 0.83563 0.13345 0.9456 0.0
H4657 H 0.82376 0.15804 0.9431 0.0
H4658 H 0.83561 0.14815 0.95497 0.0
S4659 S 0.82628 0.11705 0.92247 0.0
N4660 N 0.82047 0.12885 0.92072 0.0
N4661 N 0.83337 0.11814 0.93364 0.0
C4662 C 0.83118 0.12847 0.93646 0.0
C4663 C 0.82415 0.13428 0.92946 0.0
C4664 C 0.8126 0.60069 0.92159 0.0
C4665 C 0.82232 0.60544 0.92497 0.0
C4666 C 0.80542 0.60619 0.91488 0.0
C4667 C 0.80767 0.61665 0.9112 0.0
H4668 H 0.81068 0.59249 0.92381 0.0
H4669 H 0.79829 0.60199 0.91217 0.0
S4670 S 0.83119 0.63333 0.91893 0.0
N4671 N 0.8332 0.62173 0.92505 0.0
N4672 N 0.81973 0.632 0.91238 0.0
C4673 C 0.81701 0.62175 0.91504 0.0
C4674 C 0.82431 0.61617 0.92194 0.0
C4675 C 0.32597 0.88618 0.07986 0.0
C4676 C 0.32212 0.89523 0.07424 0.0
C4677 C 0.31919 0.88003 0.08641 0.0
C4678 C 0.30823 0.88262 0.08761 0.0
H4679 H 0.33441 0.88404 0.07958 0.0
H4680 H 0.3227 0.87341 0.09085 0.0
S4681 S 0.29377 0.9046 0.07346 0.0
N4682 N 0.30637 0.90581 0.06945 0.0
N4683 N 0.2936 0.89423 0.08173 0.0
C4684 C 0.30411 0.89122 0.0815 0.0
C4685 C 0.31105 0.89752 0.07483 0.0
C4686 C 0.86414 0.57218 0.82745 0.0
C4687 C 0.85424 0.56902 0.82297 0.0
C4688 C 0.86996 0.56529 0.8342 0.0
C4689 C 0.86615 0.55494 0.83674 0.0
H4690 H 0.86723 0.58022 0.82615 0.0
H4691 H 0.8773 0.56832 0.83778 0.0
S4692 S 0.8415 0.54215 0.82571 0.0
N4693 N 0.84148 0.55438 0.82056 0.0
N4694 N 0.85243 0.54142 0.83321 0.0
C4695 C 0.85663 0.5514 0.83171 0.0
C4696 C 0.85068 0.55844 0.82485 0.0
C4697 C 0.19031 0.09813 0.57656 0.0
C4698 C 0.18135 0.10272 0.57137 0.0
C4699 C 0.19693 0.10423 0.58331 0.0
C4700 C 0.19488 0.1152 0.58519 0.0
H4701 H 0.19202 0.08962 0.57576 0.0
H4702 H 0.20344 0.10017 0.58743 0.0
S4703 S 0.17343 0.13151 0.57231 0.0
N4704 N 0.17151 0.11923 0.56766 0.0
N4705 N 0.18395 0.1307 0.58036 0.0
C4706 C 0.18638 0.12008 0.57951 0.0
C4707 C 0.17963 0.11385 0.5726 0.0
C4708 C 0.13793 0.92732 0.82686 0.0
C4709 C 0.14806 0.93076 0.82314 0.0
C4710 C 0.13156 0.93389 0.8334 0.0
C4711 C 0.13499 0.94422 0.8365 0.0
H4712 H 0.13505 0.91929 0.82508 0.0
H4713 H 0.12403 0.93065 0.83636 0.0
S4714 S 0.16019 0.95767 0.82771 0.0
N4715 N 0.16074 0.94564 0.82214 0.0
N4716 N 0.14874 0.95801 0.83442 0.0
C4717 C 0.14479 0.94805 0.83227 0.0
C4718 C 0.15131 0.94132 0.82561 0.0
C4719 C 0.69189 0.40704 0.41963 0.0
C4720 C 0.68408 0.40235 0.42635 0.0
C4721 C 0.69856 0.40072 0.41311 0.0
C4722 C 0.69772 0.38943 0.41303 0.0
H4723 H 0.69259 0.4157 0.41901 0.0
H4724 H 0.70411 0.40479 0.40777 0.0
S4725 S 0.67975 0.37307 0.43041 0.0
N4726 N 0.67675 0.38564 0.43344 0.0
N4727 N 0.68928 0.37377 0.42121 0.0
C4728 C 0.69045 0.38459 0.42025 0.0
C4729 C 0.68364 0.39104 0.4269 0.0
C4730 C 0.84399 0.44334 0.66977 0.0
C4731 C 0.84848 0.43421 0.67474 0.0
C4732 C 0.85026 0.45029 0.66351 0.0
C4733 C 0.8613 0.44839 0.66189 0.0
H4734 H 0.83545 0.44496 0.67036 0.0
H4735 H 0.84628 0.45693 0.65951 0.0
S4736 S 0.87736 0.42654 0.6744 0.0
N4737 N 0.86495 0.42434 0.67857 0.0
N4738 N 0.87672 0.43738 0.66677 0.0
C4739 C 0.86606 0.4397 0.66737 0.0
C4740 C 0.85966 0.43263 0.6738 0.0
C4741 C 0.63653 0.573 0.17192 0.0
C4742 C 0.64617 0.56959 0.17677 0.0
C4743 C 0.63043 0.56604 0.16552 0.0
C4744 C 0.63365 0.55533 0.16372 0.0
H4745 H 0.63387 0.58125 0.17267 0.0
H4746 H 0.6233 0.56922 0.16166 0.0
S4747 S 0.65747 0.54195 0.17582 0.0
N4748 N 0.65809 0.55445 0.18024 0.0
N4749 N 0.64659 0.54135 0.16824 0.0
C4750 C 0.6429 0.5516 0.16909 0.0
C4751 C 0.64916 0.55873 0.1756 0.0
C4752 C 0.55947 0.6956 0.88397 0.0
C4753 C 0.56323 0.6951 0.89461 0.0
C4754 C 0.56584 0.69999 0.87577 0.0
C4755 C 0.57615 0.70408 0.87796 0.0
H4756 H 0.55165 0.69235 0.88192 0.0
H4757 H 0.56275 0.69998 0.86762 0.0
S4758 S 0.5888 0.70645 0.90487 0.0
N4759 N 0.57735 0.70011 0.90714 0.0
N4760 N 0.58917 0.70872 0.89179 0.0
C4761 C 0.57976 0.70414 0.88867 0.0
C4762 C 0.57333 0.69955 0.89699 0.0
C4763 C 0.54976 0.311 0.13724 0.0
C4764 C 0.55575 0.31515 0.14588 0.0
C4765 C 0.54651 0.31758 0.12869 0.0
C4766 C 0.54913 0.32859 0.12835 0.0
H4767 H 0.5477 0.30254 0.13696 0.0
H4768 H 0.54191 0.31393 0.12225 0.0
S4769 S 0.56431 0.34349 0.14932 0.0
N4770 N 0.56324 0.33118 0.15413 0.0
N4771 N 0.55845 0.3432 0.13742 0.0
C4772 C 0.55512 0.33284 0.13698 0.0
C4773 C 0.5581 0.3262 0.14589 0.0
C4774 C 0.94084 0.30499 0.38386 0.0
C4775 C 0.93665 0.30465 0.39435 0.0
C4776 C 0.93479 0.30132 0.37508 0.0
C4777 C 0.92439 0.29712 0.37651 0.0
H4778 H 0.94874 0.30835 0.38239 0.0
H4779 H 0.93821 0.30198 0.36709 0.0
S4780 S 0.91066 0.29265 0.40262 0.0
N4781 N 0.92203 0.29871 0.40585 0.0
N4782 N 0.91081 0.29146 0.38939 0.0
C4783 C 0.92035 0.29622 0.38703 0.0
C4784 C 0.92645 0.30008 0.39595 0.0
C4785 C 0.95359 0.68446 0.63991 0.0
C4786 C 0.94312 0.68345 0.64405 0.0
C4787 C 0.95715 0.67791 0.63145 0.0
C4788 C 0.95036 0.67013 0.62685 0.0
H4789 H 0.95907 0.69037 0.64322 0.0
H4790 H 0.96528 0.67894 0.62849 0.0
S4791 S 0.92174 0.6654 0.63375 0.0
N4792 N 0.92569 0.67481 0.64224 0.0
N4793 N 0.93238 0.6625 0.62636 0.0
C4794 C 0.9398 0.6692 0.63076 0.0
C4795 C 0.93618 0.67587 0.63937 0.0
C4796 C 0.56661 0.29289 0.61122 0.0
C4797 C 0.56657 0.30332 0.60685 0.0
C4798 C 0.57355 0.29015 0.61965 0.0
C4799 C 0.5807 0.29773 0.62401 0.0
H4800 H 0.56119 0.28681 0.60812 0.0
H4801 H 0.57333 0.28202 0.62278 0.0
S4802 S 0.58274 0.32648 0.61638 0.0
N4803 N 0.5736 0.32151 0.60813 0.0
N4804 N 0.5867 0.31633 0.62397 0.0
C4805 C 0.58063 0.30824 0.61984 0.0
C4806 C 0.57354 0.31104 0.61125 0.0
C4807 C 0.95363 0.31288 0.86166 0.0
C4808 C 0.94304 0.3143 0.85794 0.0
C4809 C 0.95772 0.31918 0.87008 0.0
C4810 C 0.95137 0.32713 0.87498 0.0
H4811 H 0.95882 0.30694 0.85797 0.0
H4812 H 0.96593 0.31791 0.87268 0.0
S4813 S 0.92264 0.33276 0.86944 0.0
N4814 N 0.9259 0.32327 0.86075 0.0
N4815 N 0.9337 0.33533 0.87632 0.0
C4816 C 0.94069 0.3284 0.87157 0.0
C4817 C 0.93649 0.32191 0.8631 0.0
C4818 C 0.92874 0.68853 0.11195 0.0
C4819 C 0.93603 0.69541 0.10669 0.0
C4820 C 0.92225 0.69225 0.12037 0.0
C4821 C 0.92285 0.70296 0.12391 0.0
H4822 H 0.92831 0.68011 0.10982 0.0
H4823 H 0.91699 0.68658 0.12437 0.0
S4824 S 0.94065 0.72422 0.11292 0.0
N4825 N 0.94348 0.71346 0.10567 0.0
N4826 N 0.93133 0.72041 0.12159 0.0
C4827 C 0.93017 0.7099 0.11882 0.0
C4828 C 0.93675 0.70613 0.1102 0.0
C4829 C 0.55503 0.67365 0.35553 0.0
C4830 C 0.55267 0.68469 0.35595 0.0
C4831 C 0.5513 0.66655 0.36343 0.0
C4832 C 0.54449 0.67005 0.37175 0.0
H4833 H 0.55968 0.67034 0.349 0.0
H4834 H 0.55405 0.65835 0.36307 0.0
S4835 S 0.53526 0.69812 0.37614 0.0
N4836 N 0.54297 0.69882 0.36536 0.0
N4837 N 0.53527 0.68534 0.37975 0.0
C4838 C 0.54178 0.68104 0.3721 0.0
C4839 C 0.5459 0.68835 0.36424 0.0
C4840 C 0.88498 0.55999 0.70151 0.0
C4841 C 0.8933 0.56421 0.69512 0.0
C4842 C 0.87673 0.56657 0.70546 0.0
C4843 C 0.87645 0.57766 0.70319 0.0
H4844 H 0.88472 0.55147 0.70333 0.0
H4845 H 0.87049 0.56293 0.71033 0.0
S4846 S 0.89652 0.5927 0.68705 0.0
N4847 N 0.90126 0.58032 0.68752 0.0
N4848 N 0.88502 0.59241 0.69366 0.0
C4849 C 0.88471 0.58196 0.69678 0.0
C4850 C 0.89332 0.57531 0.69307 0.0
C4851 C 0.68551 0.63829 0.95524 0.0
C4852 C 0.68476 0.64185 0.94453 0.0
C4853 C 0.67899 0.62992 0.95906 0.0
C4854 C 0.67146 0.62489 0.95231 0.0
H4855 H 0.69112 0.64206 0.96074 0.0
H4856 H 0.67974 0.62746 0.96739 0.0
S4857 S 0.66759 0.63 0.92321 0.0
N4858 N 0.67685 0.63876 0.92692 0.0
N4859 N 0.66436 0.62327 0.93419 0.0
C4860 C 0.67085 0.62814 0.94152 0.0
C4861 C 0.67756 0.63657 0.9376 0.0
C4862 C 0.61267 0.43852 0.20182 0.0
C4863 C 0.60421 0.43444 0.19553 0.0
C4864 C 0.62131 0.432 0.20495 0.0
C4865 C 0.62192 0.42112 0.20189 0.0
H4866 H 0.61272 0.44688 0.20424 0.0
H4867 H 0.62759 0.43557 0.20982 0.0
S4868 S 0.60164 0.40641 0.18565 0.0
N4869 N 0.59649 0.41853 0.18722 0.0
N4870 N 0.61344 0.40674 0.1917 0.0
C4871 C 0.61354 0.41695 0.19553 0.0
C4872 C 0.6045 0.42349 0.19271 0.0
C4873 C 0.82165 0.36127 0.43609 0.0
C4874 C 0.81342 0.35684 0.44247 0.0
C4875 C 0.82802 0.36976 0.43986 0.0
C4876 C 0.8263 0.37425 0.45009 0.0
H4877 H 0.82298 0.35843 0.42799 0.0
H4878 H 0.83413 0.37304 0.43459 0.0
S4879 S 0.80567 0.3658 0.46986 0.0
N4880 N 0.80385 0.35768 0.45951 0.0
N4881 N 0.81571 0.37381 0.46649 0.0
C4882 C 0.81799 0.37006 0.45648 0.0
C4883 C 0.81157 0.36133 0.45269 0.0
C4884 C 0.88443 0.4379 0.80495 0.0
C4885 C 0.89498 0.43402 0.8037 0.0
C4886 C 0.87558 0.43194 0.80133 0.0
C4887 C 0.87697 0.42192 0.79632 0.0
H4888 H 0.88299 0.44552 0.80893 0.0
H4889 H 0.86757 0.43512 0.80265 0.0
S4890 S 0.90302 0.40911 0.78946 0.0
N4891 N 0.90639 0.42013 0.79606 0.0
N4892 N 0.88974 0.40901 0.78909 0.0
C4893 C 0.8875 0.41817 0.7946 0.0
C4894 C 0.89651 0.4242 0.79835 0.0
C4895 C 0.81118 0.63415 0.05562 0.0
C4896 C 0.81526 0.64468 0.05526 0.0
C4897 C 0.81718 0.62547 0.05166 0.0
C4898 C 0.82743 0.62703 0.04716 0.0
H4899 H 0.80339 0.63258 0.05917 0.0
H4900 H 0.81384 0.61745 0.0523 0.0
S4901 S 0.84083 0.65329 0.04261 0.0
N4902 N 0.82961 0.65637 0.04903 0.0
N4903 N 0.84076 0.64008 0.04129 0.0
C4904 C 0.83138 0.63759 0.0463 0.0
C4905 C 0.82532 0.64642 0.05043 0.0
C4906 C 0.61772 0.56311 0.30338 0.0
C4907 C 0.60677 0.56586 0.30282 0.0
C4908 C 0.6257 0.57044 0.3003 0.0
C4909 C 0.62301 0.58074 0.29653 0.0
H4910 H 0.62013 0.55526 0.30629 0.0
H4911 H 0.63405 0.56804 0.30096 0.0
S4912 S 0.59545 0.59121 0.29199 0.0
N4913 N 0.59359 0.57917 0.29728 0.0
N4914 N 0.6086 0.59288 0.29129 0.0
C4915 C 0.61207 0.58347 0.29561 0.0
C4916 C 0.60394 0.57603 0.29881 0.0
C4917 C 0.68843 0.36507 0.54805 0.0
C4918 C 0.68471 0.35646 0.55438 0.0
C4919 C 0.68144 0.37319 0.54454 0.0
C4920 C 0.67044 0.37305 0.54722 0.0
H4921 H 0.69685 0.36564 0.54591 0.0
H4922 H 0.6847 0.37964 0.53968 0.0
S4923 S 0.65663 0.35215 0.56336 0.0
N4924 N 0.66912 0.34782 0.56234 0.0
N4925 N 0.65634 0.36381 0.55707 0.0
C4926 C 0.66665 0.36453 0.55359 0.0
C4927 C 0.67369 0.35605 0.55683 0.0
C4928 C 0.69377 0.90429 0.57965 0.0
C4929 C 0.69083 0.89878 0.57023 0.0
C4930 C 0.70131 0.89998 0.5868 0.0
C4931 C 0.70616 0.88995 0.58486 0.0
H4932 H 0.69048 0.91217 0.58135 0.0
H4933 H 0.70363 0.90474 0.5937 0.0
S4934 S 0.70136 0.87237 0.56124 0.0
N4935 N 0.69347 0.88286 0.55921 0.0
N4936 N 0.70761 0.87468 0.57273 0.0
C4937 C 0.7034 0.8844 0.5754 0.0
C4938 C 0.69574 0.88883 0.56807 0.0
C4939 C 0.18743 0.60788 0.42605 0.0
C4940 C 0.19417 0.60368 0.43411 0.0
C4941 C 0.19067 0.61662 0.41971 0.0
C4942 C 0.20077 0.62149 0.42119 0.0
H4943 H 0.17942 0.60469 0.42491 0.0
H4944 H 0.18504 0.61983 0.41391 0.0
S4945 S 0.2215 0.61342 0.44106 0.0
N4946 N 0.21146 0.60498 0.44314 0.0
N4947 N 0.21755 0.6214 0.43121 0.0
C4948 C 0.2076 0.61736 0.4292 0.0
C4949 C 0.2043 0.60846 0.43565 0.0
C4950 C 0.63944 0.95616 0.68419 0.0
C4951 C 0.63844 0.94614 0.6893 0.0
C4952 C 0.63132 0.95999 0.67735 0.0
C4953 C 0.62183 0.95406 0.67573 0.0
H4954 H 0.64658 0.961 0.68539 0.0
H4955 H 0.63237 0.96771 0.67345 0.0
S4956 S 0.61532 0.92744 0.6874 0.0
N4957 N 0.62736 0.93032 0.69222 0.0
N4958 N 0.61189 0.93774 0.67973 0.0
C4959 C 0.62071 0.94409 0.68088 0.0
C4960 C 0.62908 0.94006 0.68758 0.0
C4961 C 0.30755 0.38522 0.93709 0.0
C4962 C 0.30631 0.39594 0.93371 0.0
C4963 C 0.3043 0.37664 0.93055 0.0
C4964 C 0.29971 0.37846 0.92039 0.0
H4965 H 0.31113 0.38344 0.94483 0.0
H4966 H 0.30547 0.36851 0.93345 0.0
S4967 S 0.29326 0.40503 0.90849 0.0
N4968 N 0.29921 0.40792 0.92 0.0
N4969 N 0.29312 0.39177 0.90769 0.0
C4970 C 0.29817 0.38914 0.91701 0.0
C4971 C 0.30147 0.39789 0.92368 0.0
C4972 C 0.36175 0.5452 0.68398 0.0
C4973 C 0.35861 0.55603 0.68307 0.0
C4974 C 0.36998 0.54098 0.67752 0.0
C4975 C 0.37528 0.54744 0.66992 0.0
H4976 H 0.35777 0.53994 0.68967 0.0
H4977 H 0.37213 0.53258 0.6784 0.0
S4978 S 0.37131 0.57666 0.66567 0.0
N4979 N 0.36237 0.5734 0.67494 0.0
N4980 N 0.37761 0.56539 0.6626 0.0
C4981 C 0.37244 0.55833 0.66915 0.0
C4982 C 0.36415 0.56266 0.67579 0.0
C4983 C 0.79874 0.11334 0.06065 0.0
C4984 C 0.80534 0.10528 0.06505 0.0
C4985 C 0.79483 0.12181 0.06699 0.0
C4986 C 0.79737 0.12256 0.078 0.0
H4987 H 0.7967 0.11322 0.05218 0.0
H4988 H 0.78979 0.12782 0.06322 0.0
S4989 S 0.81419 0.10339 0.09343 0.0
N4990 N 0.81346 0.09811 0.08129 0.0
N4991 N 0.8074 0.11477 0.09283 0.0
C4992 C 0.80401 0.11459 0.08247 0.0
C4993 C 0.80767 0.10576 0.07609 0.0
C4994 C 0.66955 0.0542 0.81817 0.0
C4995 C 0.66432 0.05452 0.80817 0.0
C4996 C 0.66443 0.05009 0.82728 0.0
C4997 C 0.65388 0.04599 0.82676 0.0
H4998 H 0.67771 0.05712 0.81897 0.0
H4999 H 0.66881 0.05019 0.83481 0.0
S5000 S 0.63695 0.04433 0.80222 0.0
N5001 N 0.64825 0.04995 0.79807 0.0
N5002 N 0.63856 0.04206 0.8152 0.0
C5003 C 0.64869 0.04587 0.81669 0.0
C5004 C 0.65394 0.05013 0.80739 0.0
C5005 C 0.86529 0.94977 0.31149 0.0
C5006 C 0.85678 0.94365 0.31574 0.0
C5007 C 0.87362 0.95354 0.31807 0.0
C5008 C 0.87379 0.95135 0.32918 0.0
H5009 H 0.86562 0.95152 0.30296 0.0
H5010 H 0.88001 0.95821 0.31441 0.0
S5011 S 0.85325 0.9359 0.34429 0.0
N5012 N 0.84856 0.93639 0.33189 0.0
N5013 N 0.86492 0.9422 0.34398 0.0
C5014 C 0.86535 0.94521 0.33351 0.0
C5015 C 0.85667 0.94168 0.32686 0.0
C5016 C 0.42441 0.32263 0.10977 0.0
C5017 C 0.42839 0.31863 0.09997 0.0
C5018 C 0.4175 0.3165 0.11622 0.0
C5019 C 0.41432 0.30606 0.11317 0.0
H5020 H 0.42622 0.33078 0.11228 0.0
H5021 H 0.41433 0.32016 0.12345 0.0
S5022 S 0.42384 0.29121 0.08905 0.0
N5023 N 0.42962 0.30312 0.0881 0.0
N5024 N 0.41669 0.29155 0.10022 0.0
C5025 C 0.41884 0.30168 0.10375 0.0
C5026 C 0.42585 0.30796 0.09715 0.0
C5027 C 0.43015 0.67079 0.85906 0.0
C5028 C 0.43235 0.67427 0.84851 0.0
C5029 C 0.43734 0.66418 0.86466 0.0
C5030 C 0.44706 0.66076 0.85998 0.0
H5031 H 0.4226 0.6728 0.86291 0.0
H5032 H 0.43501 0.6614 0.87259 0.0
S5033 S 0.45743 0.66894 0.83318 0.0
N5034 N 0.44554 0.67477 0.83406 0.0
N5035 N 0.45906 0.66236 0.84459 0.0
C5036 C 0.44972 0.66477 0.84972 0.0
C5037 C 0.44237 0.67152 0.844 0.0
C5038 C 0.08511 0.66986 0.61819 0.0
C5039 C 0.07688 0.67268 0.61093 0.0
C5040 C 0.09154 0.67771 0.62308 0.0
C5041 C 0.09002 0.68872 0.62095 0.0
H5042 H 0.08696 0.6615 0.61975 0.0
H5043 H 0.09806 0.67505 0.6282 0.0
S5044 S 0.0684 0.70047 0.604 0.0
N5045 N 0.06672 0.68736 0.6029 0.0
N5046 N 0.07878 0.7021 0.61211 0.0
C5047 C 0.08132 0.6917 0.61433 0.0
C5048 C 0.07476 0.68369 0.60932 0.0
C5049 C 0.06073 0.3286 0.3495 0.0
C5050 C 0.07072 0.32469 0.35313 0.0
C5051 C 0.05434 0.33524 0.35597 0.0
C5052 C 0.05768 0.33831 0.36634 0.0
H5053 H 0.05798 0.32687 0.34142 0.0
H5054 H 0.04694 0.33838 0.3526 0.0
S5055 S 0.08235 0.32898 0.38032 0.0
N5056 N 0.08306 0.32342 0.36829 0.0
N5057 N 0.07106 0.33594 0.38041 0.0
C5058 C 0.06731 0.33391 0.37035 0.0
C5059 C 0.07381 0.3271 0.36377 0.0
C5060 C 0.42465 0.68905 0.39856 0.0
C5061 C 0.42578 0.67874 0.39401 0.0
C5062 C 0.41877 0.69712 0.39337 0.0
C5063 C 0.41369 0.69524 0.38342 0.0
H5064 H 0.42801 0.69083 0.40639 0.0
H5065 H 0.41782 0.70475 0.39745 0.0
S5066 S 0.41537 0.67011 0.36737 0.0
N5067 N 0.42223 0.66745 0.37841 0.0
N5068 N 0.41113 0.68262 0.36869 0.0
C5069 C 0.41531 0.68519 0.37846 0.0
C5070 C 0.42136 0.67696 0.38373 0.0
C5071 C 0.07681 0.67053 0.13762 0.0
C5072 C 0.07316 0.6754 0.14716 0.0
C5073 C 0.07003 0.66403 0.1314 0.0
C5074 C 0.05928 0.66216 0.13441 0.0
H5075 H 0.08512 0.67132 0.13513 0.0
H5076 H 0.07341 0.66014 0.12438 0.0
S5077 S 0.04529 0.67432 0.15784 0.0
N5078 N 0.05774 0.67884 0.15871 0.0
N5079 N 0.04498 0.66666 0.14701 0.0
C5080 C 0.0553 0.66757 0.14354 0.0
C5081 C 0.06224 0.67417 0.14991 0.0
C5082 C 0.07786 0.30802 0.89926 0.0
C5083 C 0.07469 0.31841 0.89607 0.0
C5084 C 0.08395 0.30141 0.89247 0.0
C5085 C 0.0872 0.30494 0.88222 0.0
H5086 H 0.07596 0.30507 0.90723 0.0
H5087 H 0.08654 0.29367 0.89551 0.0
S5088 S 0.07977 0.33084 0.86937 0.0
N5089 N 0.07432 0.33145 0.88145 0.0
N5090 N 0.08582 0.31905 0.86875 0.0
C5091 C 0.08354 0.31504 0.87866 0.0
C5092 C 0.07727 0.32176 0.88555 0.0
C5093 C 0.42771 0.3293 0.63944 0.0
C5094 C 0.42965 0.32451 0.64952 0.0
C5095 C 0.43567 0.33532 0.6342 0.0
C5096 C 0.44592 0.33677 0.63879 0.0
H5097 H 0.41982 0.32884 0.63578 0.0
H5098 H 0.4336 0.33923 0.62669 0.0
S5099 S 0.45566 0.32439 0.66419 0.0
N5100 N 0.44299 0.32056 0.66327 0.0
N5101 N 0.45795 0.3318 0.65342 0.0
C5102 C 0.4482 0.3314 0.6485 0.0
C5103 C 0.44007 0.32529 0.65386 0.0
C5104 C 0.1171 0.42079 0.32639 0.0
C5105 C 0.10789 0.42694 0.32406 0.0
C5106 C 0.12183 0.41418 0.31858 0.0
C5107 C 0.11759 0.41348 0.30811 0.0
H5108 H 0.12042 0.42067 0.33444 0.0
H5109 H 0.12863 0.40927 0.32094 0.0
S5110 S 0.09456 0.42928 0.29746 0.0
N5111 N 0.09541 0.43285 0.31021 0.0
N5112 N 0.10432 0.4205 0.29552 0.0
C5113 C 0.10881 0.42016 0.30548 0.0
C5114 C 0.10396 0.42685 0.31345 0.0
C5115 C 0.32982 0.34041 0.05599 0.0
C5116 C 0.32279 0.34529 0.0634 0.0
C5117 C 0.33643 0.34656 0.04926 0.0
C5118 C 0.33633 0.35787 0.04965 0.0
H5119 H 0.33058 0.33174 0.05564 0.0
H5120 H 0.342 0.34235 0.04404 0.0
S5121 S 0.31819 0.37465 0.06644 0.0
N5122 N 0.31524 0.36217 0.06984 0.0
N5123 N 0.32768 0.37372 0.05721 0.0
C5124 C 0.32882 0.36287 0.0565 0.0
C5125 C 0.32205 0.3566 0.06336 0.0
C5126 C 0.40322 0.57609 0.81028 0.0
C5127 C 0.39825 0.57181 0.81952 0.0
C5128 C 0.39757 0.58272 0.80314 0.0
C5129 C 0.38673 0.58541 0.80493 0.0
H5130 H 0.41167 0.57467 0.80874 0.0
H5131 H 0.40193 0.58614 0.79642 0.0
S5132 S 0.36951 0.57504 0.82703 0.0
N5133 N 0.38147 0.56979 0.8294 0.0
N5134 N 0.37089 0.58228 0.81599 0.0
C5135 C 0.38145 0.58062 0.81374 0.0
C5136 C 0.3872 0.57382 0.82101 0.0
C5137 C 0.17419 0.63984 0.56997 0.0
C5138 C 0.1768 0.65011 0.56599 0.0
C5139 C 0.16777 0.63272 0.56407 0.0
C5140 C 0.16367 0.63554 0.5539 0.0
H5141 H 0.17676 0.63739 0.57793 0.0
H5142 H 0.16569 0.6251 0.56773 0.0
S5143 S 0.16939 0.66087 0.53912 0.0
N5144 N 0.17571 0.66229 0.5507 0.0
N5145 N 0.16365 0.64892 0.5396 0.0
C5146 C 0.16679 0.6455 0.5495 0.0
C5147 C 0.17334 0.65278 0.55553 0.0
C5148 C 0.11291 0.57741 0.17755 0.0
C5149 C 0.10312 0.57282 0.18089 0.0
C5150 C 0.11901 0.58385 0.18448 0.0
C5151 C 0.11563 0.58596 0.19508 0.0
H5152 H 0.1157 0.57643 0.16936 0.0
H5153 H 0.12626 0.58752 0.18134 0.0
S5154 S 0.09136 0.57457 0.20829 0.0
N5155 N 0.09088 0.56989 0.19588 0.0
N5156 N 0.10236 0.58197 0.20893 0.0
C5157 C 0.10621 0.58083 0.19876 0.0
C5158 C 0.09996 0.57429 0.19166 0.0
C5159 C 0.17099 0.34058 0.94281 0.0
C5160 C 0.17731 0.34559 0.93486 0.0
C5161 C 0.16471 0.34659 0.94996 0.0
C5162 C 0.16445 0.3579 0.94948 0.0
H5163 H 0.17052 0.33189 0.94328 0.0
H5164 H 0.15968 0.34228 0.95561 0.0
S5165 S 0.18078 0.37504 0.93126 0.0
N5166 N 0.18384 0.36262 0.92774 0.0
N5167 N 0.17203 0.37393 0.94117 0.0
C5168 C 0.17128 0.36306 0.94205 0.0
C5169 C 0.1777 0.35691 0.93475 0.0
C5170 C 0.40259 0.42093 0.69046 0.0
C5171 C 0.39691 0.42399 0.68115 0.0
C5172 C 0.39769 0.41487 0.69857 0.0
C5173 C 0.3869 0.41156 0.69776 0.0
H5174 H 0.41103 0.42289 0.69134 0.0
H5175 H 0.40258 0.41242 0.70536 0.0
S5176 S 0.36801 0.41869 0.67574 0.0
N5177 N 0.37954 0.42416 0.67212 0.0
N5178 N 0.37034 0.41275 0.68738 0.0
C5179 C 0.38091 0.41511 0.68882 0.0
C5180 C 0.38592 0.42131 0.68053 0.0
C5181 C 0.33035 0.65862 0.44372 0.0
C5182 C 0.32354 0.65457 0.43562 0.0
C5183 C 0.33662 0.65176 0.45006 0.0
C5184 C 0.33638 0.64053 0.44861 0.0
H5185 H 0.33119 0.6672 0.44491 0.0
H5186 H 0.34202 0.65536 0.45587 0.0
S5187 S 0.31872 0.62571 0.42961 0.0
N5188 N 0.31606 0.6385 0.4273 0.0
N5189 N 0.32785 0.62561 0.43924 0.0
C5190 C 0.32909 0.63632 0.44102 0.0
C5191 C 0.32268 0.64333 0.43454 0.0
C5192 C 0.31534 0.1067 0.42518 0.0
C5193 C 0.31216 0.09586 0.42596 0.0
C5194 C 0.30929 0.11416 0.41928 0.0
C5195 C 0.29982 0.11109 0.41389 0.0
H5196 H 0.32279 0.1094 0.42878 0.0
H5197 H 0.31236 0.12228 0.41858 0.0
S5198 S 0.28709 0.08409 0.41474 0.0
N5199 N 0.29823 0.08273 0.42183 0.0
N5200 N 0.2869 0.09674 0.41074 0.0
C5201 C 0.29617 0.10045 0.41518 0.0
C5202 C 0.30232 0.09285 0.42122 0.0
C5203 C 0.81818 0.39194 0.57588 0.0
C5204 C 0.81597 0.40265 0.57297 0.0
C5205 C 0.811 0.386 0.58219 0.0
C5206 C 0.80126 0.39048 0.58584 0.0
H5207 H 0.82575 0.38823 0.57367 0.0
H5208 H 0.81332 0.37794 0.58455 0.0
S5209 S 0.79091 0.41769 0.5791 0.0
N5210 N 0.8028 0.41712 0.57324 0.0
N5211 N 0.78927 0.40595 0.58507 0.0
C5212 C 0.79862 0.40095 0.58239 0.0
C5213 C 0.80597 0.40703 0.57598 0.0
C5214 C 0.36407 0.07092 0.32935 0.0
C5215 C 0.35375 0.06957 0.32488 0.0
C5216 C 0.36901 0.06268 0.33525 0.0
C5217 C 0.36385 0.05275 0.33692 0.0
H5218 H 0.3682 0.07857 0.32871 0.0
H5219 H 0.37674 0.06431 0.33892 0.0
S5220 S 0.33755 0.04448 0.32541 0.0
N5221 N 0.3391 0.05705 0.32145 0.0
N5222 N 0.34838 0.04159 0.33251 0.0
C5223 C 0.35385 0.05104 0.33188 0.0
C5224 C 0.34881 0.05943 0.32587 0.0
C5225 C 0.67526 0.61289 0.08056 0.0
C5226 C 0.67868 0.60312 0.07598 0.0
C5227 C 0.68208 0.61897 0.08714 0.0
C5228 C 0.69265 0.61558 0.08939 0.0
H5229 H 0.66708 0.61568 0.07945 0.0
H5230 H 0.67888 0.6262 0.09078 0.0
S5231 S 0.70604 0.59136 0.07815 0.0
N5232 N 0.69371 0.59089 0.07326 0.0
N5233 N 0.70656 0.60233 0.08559 0.0
C5234 C 0.69641 0.60619 0.08429 0.0
C5235 C 0.68943 0.59995 0.07762 0.0
C5236 C 0.65236 0.43719 0.3234 0.0
C5237 C 0.64733 0.42731 0.32115 0.0
C5238 C 0.64743 0.44491 0.32994 0.0
C5239 C 0.63725 0.4431 0.33454 0.0
H5240 H 0.66036 0.43889 0.32041 0.0
H5241 H 0.65186 0.45221 0.33167 0.0
S5242 S 0.62004 0.41909 0.3301 0.0
N5243 N 0.63111 0.41654 0.32324 0.0
N5244 N 0.62185 0.43106 0.33555 0.0
C5245 C 0.63182 0.43352 0.33185 0.0
C5246 C 0.63686 0.42564 0.32515 0.0
C5247 C 0.17485 0.88474 0.91869 0.0
C5248 C 0.17665 0.8941 0.9248 0.0
C5249 C 0.18297 0.8803 0.91227 0.0
C5250 C 0.19325 0.88502 0.91171 0.0
H5251 H 0.16695 0.88107 0.91846 0.0
H5252 H 0.18102 0.87337 0.90737 0.0
S5253 S 0.20262 0.90857 0.92753 0.0
N5254 N 0.18985 0.9072 0.93087 0.0
N5255 N 0.20513 0.89885 0.91885 0.0
C5256 C 0.19537 0.89395 0.91835 0.0
C5257 C 0.18708 0.89849 0.92487 0.0
C5258 C 0.34596 0.93902 0.17292 0.0
C5259 C 0.35072 0.92981 0.17747 0.0
C5260 C 0.35183 0.94597 0.16629 0.0
C5261 C 0.36273 0.94402 0.16389 0.0
H5262 H 0.33749 0.94067 0.17409 0.0
H5263 H 0.34763 0.95267 0.16264 0.0
S5264 S 0.37946 0.92199 0.17517 0.0
N5265 N 0.36735 0.91983 0.18014 0.0
N5266 N 0.37838 0.93288 0.16767 0.0
C5267 C 0.36779 0.93526 0.16899 0.0
C5268 C 0.3618 0.92817 0.17578 0.0
C5269 C 0.15244 0.0619 0.6718 0.0
C5270 C 0.14799 0.07171 0.67532 0.0
C5271 C 0.14654 0.05476 0.6654 0.0
C5272 C 0.13597 0.05715 0.66215 0.0
H5273 H 0.1607 0.05987 0.67368 0.0
H5274 H 0.15051 0.04754 0.66255 0.0
S5275 S 0.12002 0.081 0.67038 0.0
N5276 N 0.1319 0.08286 0.676 0.0
N5277 N 0.12088 0.06946 0.66389 0.0
C5278 C 0.13118 0.06659 0.66615 0.0
C5279 C 0.13716 0.07384 0.67275 0.0
loop_
_geom_bond_atom_site_label_1
_geom_bond_atom_site_label_2
_geom_bond_distance
_geom_bond_site_symmetry_2
_ccdc_geom_bond_type
O0 Cd1 2.300 . S
O0 C7 1.275 . S
Cd1 O0 2.300 . S
Cd1 O9 2.381 . S
Cd1 O10 2.378 . S
O2 Cd3 2.385 . S
O2 C7 1.255 . S
Cd3 O2 2.385 . S
Cd3 O4 2.317 . S
O4 Cd3 2.317 . S
O4 C5 1.232 . S
C5 O4 1.232 . S
C5 O6 1.218 . S
O6 C5 1.218 . S
C7 O0 1.275 . S
C7 O2 1.255 . S
C8 O9 1.258 . S
C8 O10 1.256 . S
O9 Cd1 2.381 . S
O9 C8 1.258 . S
O10 Cd1 2.378 . S
O10 C8 1.256 . S
O11 Cd12 2.300 . S
O11 C18 1.275 . S
Cd12 O11 2.300 . S
Cd12 O20 2.381 . S
Cd12 O21 2.378 . S
O13 Cd14 2.385 . S
O13 C18 1.255 . S
Cd14 O13 2.385 . S
Cd14 O15 2.317 . S
O15 Cd14 2.317 . S
O15 C16 1.232 . S
C16 O15 1.232 . S
C16 O17 1.218 . S
O17 C16 1.218 . S
C18 O11 1.275 . S
C18 O13 1.255 . S
C19 O20 1.258 . S
C19 O21 1.256 . S
O20 Cd12 2.381 . S
O20 C19 1.258 . S
O21 Cd12 2.378 . S
O21 C19 1.256 . S
O22 Cd23 2.300 . S
O22 C29 1.275 . S
Cd23 O22 2.300 . S
Cd23 O31 2.381 . S
Cd23 O32 2.378 . S
O24 Cd25 2.385 . S
O24 C29 1.255 . S
Cd25 O24 2.385 . S
Cd25 O26 2.317 . S
O26 Cd25 2.317 . S
O26 C27 1.232 . S
C27 O26 1.232 . S
C27 O28 1.218 . S
O28 C27 1.218 . S
C29 O22 1.275 . S
C29 O24 1.255 . S
C30 O31 1.258 . S
C30 O32 1.256 . S
O31 Cd23 2.381 . S
O31 C30 1.258 . S
O32 Cd23 2.378 . S
O32 C30 1.256 . S
O33 Cd34 2.300 . S
O33 C40 1.275 . S
Cd34 O33 2.300 . S
Cd34 O42 2.381 . S
Cd34 O43 2.378 . S
O35 Cd36 2.385 . S
O35 C40 1.255 . S
Cd36 O35 2.385 . S
Cd36 O37 2.317 . S
O37 Cd36 2.317 . S
O37 C38 1.232 . S
C38 O37 1.232 . S
C38 O39 1.218 . S
O39 C38 1.218 . S
C40 O33 1.275 . S
C40 O35 1.255 . S
C41 O42 1.258 . S
C41 O43 1.256 . S
O42 Cd34 2.381 . S
O42 C41 1.258 . S
O43 Cd34 2.378 . S
O43 C41 1.256 . S
O44 Cd45 2.300 . S
O44 C51 1.275 . S
Cd45 O44 2.300 . S
Cd45 O53 2.381 . S
Cd45 O54 2.378 . S
O46 Cd47 2.385 . S
O46 C51 1.255 . S
Cd47 O46 2.385 . S
Cd47 O48 2.317 . S
O48 Cd47 2.317 . S
O48 C49 1.232 . S
C49 O48 1.232 . S
C49 O50 1.218 . S
O50 C49 1.218 . S
C51 O44 1.275 . S
C51 O46 1.255 . S
C52 O53 1.258 . S
C52 O54 1.256 . S
O53 Cd45 2.381 . S
O53 C52 1.258 . S
O54 Cd45 2.378 . S
O54 C52 1.256 . S
O55 Cd56 2.300 . S
O55 C62 1.275 . S
Cd56 O55 2.300 . S
Cd56 O64 2.381 . S
Cd56 O65 2.378 . S
O57 Cd58 2.385 . S
O57 C62 1.255 . S
Cd58 O57 2.385 . S
Cd58 O59 2.317 . S
O59 Cd58 2.317 . S
O59 C60 1.232 . S
C60 O59 1.232 . S
C60 O61 1.218 . S
O61 C60 1.218 . S
C62 O55 1.275 . S
C62 O57 1.255 . S
C63 O64 1.258 . S
C63 O65 1.256 . S
O64 Cd56 2.381 . S
O64 C63 1.258 . S
O65 Cd56 2.378 . S
O65 C63 1.256 . S
O66 Cd67 2.300 . S
O66 C73 1.275 . S
Cd67 O66 2.300 . S
Cd67 O75 2.381 . S
Cd67 O76 2.378 . S
O68 Cd69 2.385 . S
O68 C73 1.255 . S
Cd69 O68 2.385 . S
Cd69 O70 2.317 . S
O70 Cd69 2.317 . S
O70 C71 1.232 . S
C71 O70 1.232 . S
C71 O72 1.218 . S
O72 C71 1.218 . S
C73 O66 1.275 . S
C73 O68 1.255 . S
C74 O75 1.258 . S
C74 O76 1.256 . S
O75 Cd67 2.381 . S
O75 C74 1.258 . S
O76 Cd67 2.378 . S
O76 C74 1.256 . S
O77 Cd78 2.300 . S
O77 C84 1.275 . S
Cd78 O77 2.300 . S
Cd78 O86 2.381 . S
Cd78 O87 2.378 . S
O79 Cd80 2.385 . S
O79 C84 1.255 . S
Cd80 O79 2.385 . S
Cd80 O81 2.317 . S
O81 Cd80 2.317 . S
O81 C82 1.232 . S
C82 O81 1.232 . S
C82 O83 1.218 . S
O83 C82 1.218 . S
C84 O77 1.275 . S
C84 O79 1.255 . S
C85 O86 1.258 . S
C85 O87 1.256 . S
O86 Cd78 2.381 . S
O86 C85 1.258 . S
O87 Cd78 2.378 . S
O87 C85 1.256 . S
O88 Cd89 2.300 . S
O88 C95 1.275 . S
Cd89 O88 2.300 . S
Cd89 O97 2.381 . S
Cd89 O98 2.378 . S
O90 Cd91 2.385 . S
O90 C95 1.255 . S
Cd91 O90 2.385 . S
Cd91 O92 2.317 . S
O92 Cd91 2.317 . S
O92 C93 1.232 . S
C93 O92 1.232 . S
C93 O94 1.218 . S
O94 C93 1.218 . S
C95 O88 1.275 . S
C95 O90 1.255 . S
C96 O97 1.258 . S
C96 O98 1.256 . S
O97 Cd89 2.381 . S
O97 C96 1.258 . S
O98 Cd89 2.378 . S
O98 C96 1.256 . S
O99 Cd100 2.300 . S
O99 C106 1.275 . S
Cd100 O99 2.300 . S
Cd100 O108 2.381 . S
Cd100 O109 2.378 . S
O101 Cd102 2.385 . S
O101 C106 1.255 . S
Cd102 O101 2.385 . S
Cd102 O103 2.317 . S
O103 Cd102 2.317 . S
O103 C104 1.232 . S
C104 O103 1.232 . S
C104 O105 1.218 . S
O105 C104 1.218 . S
C106 O99 1.275 . S
C106 O101 1.255 . S
C107 O108 1.258 . S
C107 O109 1.256 . S
O108 Cd100 2.381 . S
O108 C107 1.258 . S
O109 Cd100 2.378 . S
O109 C107 1.256 . S
O110 Cd111 2.300 . S
O110 C117 1.275 . S
Cd111 O110 2.300 . S
Cd111 O119 2.381 . S
Cd111 O120 2.378 . S
O112 Cd113 2.385 . S
O112 C117 1.255 . S
Cd113 O112 2.385 . S
Cd113 O114 2.317 . S
O114 Cd113 2.317 . S
O114 C115 1.232 . S
C115 O114 1.232 . S
C115 O116 1.218 . S
O116 C115 1.218 . S
C117 O110 1.275 . S
C117 O112 1.255 . S
C118 O119 1.258 . S
C118 O120 1.256 . S
O119 Cd111 2.381 . S
O119 C118 1.258 . S
O120 Cd111 2.378 . S
O120 C118 1.256 . S
O121 Cd122 2.300 . S
O121 C128 1.275 . S
Cd122 O121 2.300 . S
Cd122 O130 2.381 . S
Cd122 O131 2.378 . S
O123 Cd124 2.385 . S
O123 C128 1.255 . S
Cd124 O123 2.385 . S
Cd124 O125 2.317 . S
O125 Cd124 2.317 . S
O125 C126 1.232 . S
C126 O125 1.232 . S
C126 O127 1.218 . S
O127 C126 1.218 . S
C128 O121 1.275 . S
C128 O123 1.255 . S
C129 O130 1.258 . S
C129 O131 1.256 . S
O130 Cd122 2.381 . S
O130 C129 1.258 . S
O131 Cd122 2.378 . S
O131 C129 1.256 . S
O132 Cd133 2.300 . S
O132 C139 1.275 . S
Cd133 O132 2.300 . S
Cd133 O141 2.381 . S
Cd133 O142 2.378 . S
O134 Cd135 2.385 . S
O134 C139 1.255 . S
Cd135 O134 2.385 . S
Cd135 O136 2.317 . S
O136 Cd135 2.317 . S
O136 C137 1.232 . S
C137 O136 1.232 . S
C137 O138 1.218 . S
O138 C137 1.218 . S
C139 O132 1.275 . S
C139 O134 1.255 . S
C140 O141 1.258 . S
C140 O142 1.256 . S
O141 Cd133 2.381 . S
O141 C140 1.258 . S
O142 Cd133 2.378 . S
O142 C140 1.256 . S
O143 Cd144 2.300 . S
O143 C150 1.275 . S
Cd144 O143 2.300 . S
Cd144 O152 2.381 . S
Cd144 O153 2.378 . S
O145 Cd146 2.385 . S
O145 C150 1.255 . S
Cd146 O145 2.385 . S
Cd146 O147 2.317 . S
O147 Cd146 2.317 . S
O147 C148 1.232 . S
C148 O147 1.232 . S
C148 O149 1.218 . S
O149 C148 1.218 . S
C150 O143 1.275 . S
C150 O145 1.255 . S
C151 O152 1.258 . S
C151 O153 1.256 . S
O152 Cd144 2.381 . S
O152 C151 1.258 . S
O153 Cd144 2.378 . S
O153 C151 1.256 . S
O154 Cd155 2.300 . S
O154 C161 1.275 . S
Cd155 O154 2.300 . S
Cd155 O163 2.381 . S
Cd155 O164 2.378 . S
O156 Cd157 2.385 . S
O156 C161 1.255 . S
Cd157 O156 2.385 . S
Cd157 O158 2.317 . S
O158 Cd157 2.317 . S
O158 C159 1.232 . S
C159 O158 1.232 . S
C159 O160 1.218 . S
O160 C159 1.218 . S
C161 O154 1.275 . S
C161 O156 1.255 . S
C162 O163 1.258 . S
C162 O164 1.256 . S
O163 Cd155 2.381 . S
O163 C162 1.258 . S
O164 Cd155 2.378 . S
O164 C162 1.256 . S
O165 Cd166 2.300 . S
O165 C172 1.275 . S
Cd166 O165 2.300 . S
Cd166 O174 2.381 . S
Cd166 O175 2.378 . S
O167 Cd168 2.385 . S
O167 C172 1.255 . S
Cd168 O167 2.385 . S
Cd168 O169 2.317 . S
O169 Cd168 2.317 . S
O169 C170 1.232 . S
C170 O169 1.232 . S
C170 O171 1.218 . S
O171 C170 1.218 . S
C172 O165 1.275 . S
C172 O167 1.255 . S
C173 O174 1.258 . S
C173 O175 1.256 . S
O174 Cd166 2.381 . S
O174 C173 1.258 . S
O175 Cd166 2.378 . S
O175 C173 1.256 . S
O176 Cd177 2.300 . S
O176 C183 1.275 . S
Cd177 O176 2.300 . S
Cd177 O185 2.381 . S
Cd177 O186 2.378 . S
O178 Cd179 2.385 . S
O178 C183 1.255 . S
Cd179 O178 2.385 . S
Cd179 O180 2.317 . S
O180 Cd179 2.317 . S
O180 C181 1.232 . S
C181 O180 1.232 . S
C181 O182 1.218 . S
O182 C181 1.218 . S
C183 O176 1.275 . S
C183 O178 1.255 . S
C184 O185 1.258 . S
C184 O186 1.256 . S
O185 Cd177 2.381 . S
O185 C184 1.258 . S
O186 Cd177 2.378 . S
O186 C184 1.256 . S
O187 Cd188 2.300 . S
O187 C194 1.275 . S
Cd188 O187 2.300 . S
Cd188 O196 2.381 . S
Cd188 O197 2.378 . S
O189 Cd190 2.385 . S
O189 C194 1.255 . S
Cd190 O189 2.385 . S
Cd190 O191 2.317 . S
O191 Cd190 2.317 . S
O191 C192 1.232 . S
C192 O191 1.232 . S
C192 O193 1.218 . S
O193 C192 1.218 . S
C194 O187 1.275 . S
C194 O189 1.255 . S
C195 O196 1.258 . S
C195 O197 1.256 . S
O196 Cd188 2.381 . S
O196 C195 1.258 . S
O197 Cd188 2.378 . S
O197 C195 1.256 . S
O198 Cd199 2.300 . S
O198 C205 1.275 . S
Cd199 O198 2.300 . S
Cd199 O207 2.381 . S
Cd199 O208 2.378 . S
O200 Cd201 2.385 . S
O200 C205 1.255 . S
Cd201 O200 2.385 . S
Cd201 O202 2.317 . S
O202 Cd201 2.317 . S
O202 C203 1.232 . S
C203 O202 1.232 . S
C203 O204 1.218 . S
O204 C203 1.218 . S
C205 O198 1.275 . S
C205 O200 1.255 . S
C206 O207 1.258 . S
C206 O208 1.256 . S
O207 Cd199 2.381 . S
O207 C206 1.258 . S
O208 Cd199 2.378 . S
O208 C206 1.256 . S
O209 Cd210 2.300 . S
O209 C216 1.275 . S
Cd210 O209 2.300 . S
Cd210 O218 2.381 . S
Cd210 O219 2.378 . S
O211 Cd212 2.385 . S
O211 C216 1.255 . S
Cd212 O211 2.385 . S
Cd212 O213 2.317 . S
O213 Cd212 2.317 . S
O213 C214 1.232 . S
C214 O213 1.232 . S
C214 O215 1.218 . S
O215 C214 1.218 . S
C216 O209 1.275 . S
C216 O211 1.255 . S
C217 O218 1.258 . S
C217 O219 1.256 . S
O218 Cd210 2.381 . S
O218 C217 1.258 . S
O219 Cd210 2.378 . S
O219 C217 1.256 . S
O220 Cd221 2.300 . S
O220 C227 1.275 . S
Cd221 O220 2.300 . S
Cd221 O229 2.381 . S
Cd221 O230 2.378 . S
O222 Cd223 2.385 . S
O222 C227 1.255 . S
Cd223 O222 2.385 . S
Cd223 O224 2.317 . S
O224 Cd223 2.317 . S
O224 C225 1.232 . S
C225 O224 1.232 . S
C225 O226 1.218 . S
O226 C225 1.218 . S
C227 O220 1.275 . S
C227 O222 1.255 . S
C228 O229 1.258 . S
C228 O230 1.256 . S
O229 Cd221 2.381 . S
O229 C228 1.258 . S
O230 Cd221 2.378 . S
O230 C228 1.256 . S
O231 Cd232 2.300 . S
O231 C238 1.275 . S
Cd232 O231 2.300 . S
Cd232 O240 2.381 . S
Cd232 O241 2.378 . S
O233 Cd234 2.385 . S
O233 C238 1.255 . S
Cd234 O233 2.385 . S
Cd234 O235 2.317 . S
O235 Cd234 2.317 . S
O235 C236 1.232 . S
C236 O235 1.232 . S
C236 O237 1.218 . S
O237 C236 1.218 . S
C238 O231 1.275 . S
C238 O233 1.255 . S
C239 O240 1.258 . S
C239 O241 1.256 . S
O240 Cd232 2.381 . S
O240 C239 1.258 . S
O241 Cd232 2.378 . S
O241 C239 1.256 . S
O242 Cd243 2.300 . S
O242 C249 1.275 . S
Cd243 O242 2.300 . S
Cd243 O251 2.381 . S
Cd243 O252 2.378 . S
O244 Cd245 2.385 . S
O244 C249 1.255 . S
Cd245 O244 2.385 . S
Cd245 O246 2.317 . S
O246 Cd245 2.317 . S
O246 C247 1.232 . S
C247 O246 1.232 . S
C247 O248 1.218 . S
O248 C247 1.218 . S
C249 O242 1.275 . S
C249 O244 1.255 . S
C250 O251 1.258 . S
C250 O252 1.256 . S
O251 Cd243 2.381 . S
O251 C250 1.258 . S
O252 Cd243 2.378 . S
O252 C250 1.256 . S
O253 Cd254 2.300 . S
O253 C260 1.275 . S
Cd254 O253 2.300 . S
Cd254 O262 2.381 . S
Cd254 O263 2.378 . S
O255 Cd256 2.385 . S
O255 C260 1.255 . S
Cd256 O255 2.385 . S
Cd256 O257 2.317 . S
O257 Cd256 2.317 . S
O257 C258 1.232 . S
C258 O257 1.232 . S
C258 O259 1.218 . S
O259 C258 1.218 . S
C260 O253 1.275 . S
C260 O255 1.255 . S
C261 O262 1.258 . S
C261 O263 1.256 . S
O262 Cd254 2.381 . S
O262 C261 1.258 . S
O263 Cd254 2.378 . S
O263 C261 1.256 . S
O264 Cd265 2.300 . S
O264 C271 1.275 . S
Cd265 O264 2.300 . S
Cd265 O273 2.381 . S
Cd265 O274 2.378 . S
O266 Cd267 2.385 . S
O266 C271 1.255 . S
Cd267 O266 2.385 . S
Cd267 O268 2.317 . S
O268 Cd267 2.317 . S
O268 C269 1.232 . S
C269 O268 1.232 . S
C269 O270 1.218 . S
O270 C269 1.218 . S
C271 O264 1.275 . S
C271 O266 1.255 . S
C272 O273 1.258 . S
C272 O274 1.256 . S
O273 Cd265 2.381 . S
O273 C272 1.258 . S
O274 Cd265 2.378 . S
O274 C272 1.256 . S
O275 Cd276 2.300 . S
O275 C282 1.275 . S
Cd276 O275 2.300 . S
Cd276 O284 2.381 . S
Cd276 O285 2.378 . S
O277 Cd278 2.385 . S
O277 C282 1.255 . S
Cd278 O277 2.385 . S
Cd278 O279 2.317 . S
O279 Cd278 2.317 . S
O279 C280 1.232 . S
C280 O279 1.232 . S
C280 O281 1.218 . S
O281 C280 1.218 . S
C282 O275 1.275 . S
C282 O277 1.255 . S
C283 O284 1.258 . S
C283 O285 1.256 . S
O284 Cd276 2.381 . S
O284 C283 1.258 . S
O285 Cd276 2.378 . S
O285 C283 1.256 . S
O286 Cd287 2.300 . S
O286 C293 1.275 . S
Cd287 O286 2.300 . S
Cd287 O295 2.381 . S
Cd287 O296 2.378 . S
O288 Cd289 2.385 . S
O288 C293 1.255 . S
Cd289 O288 2.385 . S
Cd289 O290 2.317 . S
O290 Cd289 2.317 . S
O290 C291 1.232 . S
C291 O290 1.232 . S
C291 O292 1.218 . S
O292 C291 1.218 . S
C293 O286 1.275 . S
C293 O288 1.255 . S
C294 O295 1.258 . S
C294 O296 1.256 . S
O295 Cd287 2.381 . S
O295 C294 1.258 . S
O296 Cd287 2.378 . S
O296 C294 1.256 . S
O297 Cd298 2.300 . S
O297 C304 1.275 . S
Cd298 O297 2.300 . S
Cd298 O306 2.381 . S
Cd298 O307 2.378 . S
O299 Cd300 2.385 . S
O299 C304 1.255 . S
Cd300 O299 2.385 . S
Cd300 O301 2.317 . S
O301 Cd300 2.317 . S
O301 C302 1.232 . S
C302 O301 1.232 . S
C302 O303 1.218 . S
O303 C302 1.218 . S
C304 O297 1.275 . S
C304 O299 1.255 . S
C305 O306 1.258 . S
C305 O307 1.256 . S
O306 Cd298 2.381 . S
O306 C305 1.258 . S
O307 Cd298 2.378 . S
O307 C305 1.256 . S
O308 Cd309 2.300 . S
O308 C315 1.275 . S
Cd309 O308 2.300 . S
Cd309 O317 2.381 . S
Cd309 O318 2.378 . S
O310 Cd311 2.385 . S
O310 C315 1.255 . S
Cd311 O310 2.385 . S
Cd311 O312 2.317 . S
O312 Cd311 2.317 . S
O312 C313 1.232 . S
C313 O312 1.232 . S
C313 O314 1.218 . S
O314 C313 1.218 . S
C315 O308 1.275 . S
C315 O310 1.255 . S
C316 O317 1.258 . S
C316 O318 1.256 . S
O317 Cd309 2.381 . S
O317 C316 1.258 . S
O318 Cd309 2.378 . S
O318 C316 1.256 . S
O319 Cd320 2.300 . S
O319 C326 1.275 . S
Cd320 O319 2.300 . S
Cd320 O328 2.381 . S
Cd320 O329 2.378 . S
O321 Cd322 2.385 . S
O321 C326 1.255 . S
Cd322 O321 2.385 . S
Cd322 O323 2.317 . S
O323 Cd322 2.317 . S
O323 C324 1.232 . S
C324 O323 1.232 . S
C324 O325 1.218 . S
O325 C324 1.218 . S
C326 O319 1.275 . S
C326 O321 1.255 . S
C327 O328 1.258 . S
C327 O329 1.256 . S
O328 Cd320 2.381 . S
O328 C327 1.258 . S
O329 Cd320 2.378 . S
O329 C327 1.256 . S
O330 Cd331 2.300 . S
O330 C337 1.275 . S
Cd331 O330 2.300 . S
Cd331 O339 2.381 . S
Cd331 O340 2.378 . S
O332 Cd333 2.385 . S
O332 C337 1.255 . S
Cd333 O332 2.385 . S
Cd333 O334 2.317 . S
O334 Cd333 2.317 . S
O334 C335 1.232 . S
C335 O334 1.232 . S
C335 O336 1.218 . S
O336 C335 1.218 . S
C337 O330 1.275 . S
C337 O332 1.255 . S
C338 O339 1.258 . S
C338 O340 1.256 . S
O339 Cd331 2.381 . S
O339 C338 1.258 . S
O340 Cd331 2.378 . S
O340 C338 1.256 . S
O341 Cd342 2.300 . S
O341 C348 1.275 . S
Cd342 O341 2.300 . S
Cd342 O350 2.381 . S
Cd342 O351 2.378 . S
O343 Cd344 2.385 . S
O343 C348 1.255 . S
Cd344 O343 2.385 . S
Cd344 O345 2.317 . S
O345 Cd344 2.317 . S
O345 C346 1.232 . S
C346 O345 1.232 . S
C346 O347 1.218 . S
O347 C346 1.218 . S
C348 O341 1.275 . S
C348 O343 1.255 . S
C349 O350 1.258 . S
C349 O351 1.256 . S
O350 Cd342 2.381 . S
O350 C349 1.258 . S
O351 Cd342 2.378 . S
O351 C349 1.256 . S
O352 Cd353 2.300 . S
O352 C359 1.275 . S
Cd353 O352 2.300 . S
Cd353 O361 2.381 . S
Cd353 O362 2.378 . S
O354 Cd355 2.385 . S
O354 C359 1.255 . S
Cd355 O354 2.385 . S
Cd355 O356 2.317 . S
O356 Cd355 2.317 . S
O356 C357 1.232 . S
C357 O356 1.232 . S
C357 O358 1.218 . S
O358 C357 1.218 . S
C359 O352 1.275 . S
C359 O354 1.255 . S
C360 O361 1.258 . S
C360 O362 1.256 . S
O361 Cd353 2.381 . S
O361 C360 1.258 . S
O362 Cd353 2.378 . S
O362 C360 1.256 . S
O363 Cd364 2.300 . S
O363 C370 1.275 . S
Cd364 O363 2.300 . S
Cd364 O372 2.381 . S
Cd364 O373 2.378 . S
O365 Cd366 2.385 . S
O365 C370 1.255 . S
Cd366 O365 2.385 . S
Cd366 O367 2.317 . S
O367 Cd366 2.317 . S
O367 C368 1.232 . S
C368 O367 1.232 . S
C368 O369 1.218 . S
O369 C368 1.218 . S
C370 O363 1.275 . S
C370 O365 1.255 . S
C371 O372 1.258 . S
C371 O373 1.256 . S
O372 Cd364 2.381 . S
O372 C371 1.258 . S
O373 Cd364 2.378 . S
O373 C371 1.256 . S
O374 Cd375 2.300 . S
O374 C381 1.275 . S
Cd375 O374 2.300 . S
Cd375 O383 2.381 . S
Cd375 O384 2.378 . S
O376 Cd377 2.385 . S
O376 C381 1.255 . S
Cd377 O376 2.385 . S
Cd377 O378 2.317 . S
O378 Cd377 2.317 . S
O378 C379 1.232 . S
C379 O378 1.232 . S
C379 O380 1.218 . S
O380 C379 1.218 . S
C381 O374 1.275 . S
C381 O376 1.255 . S
C382 O383 1.258 . S
C382 O384 1.256 . S
O383 Cd375 2.381 . S
O383 C382 1.258 . S
O384 Cd375 2.378 . S
O384 C382 1.256 . S
O385 Cd386 2.300 . S
O385 C392 1.275 . S
Cd386 O385 2.300 . S
Cd386 O394 2.381 . S
Cd386 O395 2.378 . S
O387 Cd388 2.385 . S
O387 C392 1.255 . S
Cd388 O387 2.385 . S
Cd388 O389 2.317 . S
O389 Cd388 2.317 . S
O389 C390 1.232 . S
C390 O389 1.232 . S
C390 O391 1.218 . S
O391 C390 1.218 . S
C392 O385 1.275 . S
C392 O387 1.255 . S
C393 O394 1.258 . S
C393 O395 1.256 . S
O394 Cd386 2.381 . S
O394 C393 1.258 . S
O395 Cd386 2.378 . S
O395 C393 1.256 . S
O396 Cd397 2.300 . S
O396 C403 1.275 . S
Cd397 O396 2.300 . S
Cd397 O405 2.381 . S
Cd397 O406 2.378 . S
O398 Cd399 2.385 . S
O398 C403 1.255 . S
Cd399 O398 2.385 . S
Cd399 O400 2.317 . S
O400 Cd399 2.317 . S
O400 C401 1.232 . S
C401 O400 1.232 . S
C401 O402 1.218 . S
O402 C401 1.218 . S
C403 O396 1.275 . S
C403 O398 1.255 . S
C404 O405 1.258 . S
C404 O406 1.256 . S
O405 Cd397 2.381 . S
O405 C404 1.258 . S
O406 Cd397 2.378 . S
O406 C404 1.256 . S
O407 Cd408 2.300 . S
O407 C414 1.275 . S
Cd408 O407 2.300 . S
Cd408 O416 2.381 . S
Cd408 O417 2.378 . S
O409 Cd410 2.385 . S
O409 C414 1.255 . S
Cd410 O409 2.385 . S
Cd410 O411 2.317 . S
O411 Cd410 2.317 . S
O411 C412 1.232 . S
C412 O411 1.232 . S
C412 O413 1.218 . S
O413 C412 1.218 . S
C414 O407 1.275 . S
C414 O409 1.255 . S
C415 O416 1.258 . S
C415 O417 1.256 . S
O416 Cd408 2.381 . S
O416 C415 1.258 . S
O417 Cd408 2.378 . S
O417 C415 1.256 . S
O418 Cd419 2.300 . S
O418 C425 1.275 . S
Cd419 O418 2.300 . S
Cd419 O427 2.381 . S
Cd419 O428 2.378 . S
O420 Cd421 2.385 . S
O420 C425 1.255 . S
Cd421 O420 2.385 . S
Cd421 O422 2.317 . S
O422 Cd421 2.317 . S
O422 C423 1.232 . S
C423 O422 1.232 . S
C423 O424 1.218 . S
O424 C423 1.218 . S
C425 O418 1.275 . S
C425 O420 1.255 . S
C426 O427 1.258 . S
C426 O428 1.256 . S
O427 Cd419 2.381 . S
O427 C426 1.258 . S
O428 Cd419 2.378 . S
O428 C426 1.256 . S
O429 Cd430 2.300 . S
O429 C436 1.275 . S
Cd430 O429 2.300 . S
Cd430 O438 2.381 . S
Cd430 O439 2.378 . S
O431 Cd432 2.385 . S
O431 C436 1.255 . S
Cd432 O431 2.385 . S
Cd432 O433 2.317 . S
O433 Cd432 2.317 . S
O433 C434 1.232 . S
C434 O433 1.232 . S
C434 O435 1.218 . S
O435 C434 1.218 . S
C436 O429 1.275 . S
C436 O431 1.255 . S
C437 O438 1.258 . S
C437 O439 1.256 . S
O438 Cd430 2.381 . S
O438 C437 1.258 . S
O439 Cd430 2.378 . S
O439 C437 1.256 . S
O440 Cd441 2.300 . S
O440 C447 1.275 . S
Cd441 O440 2.300 . S
Cd441 O449 2.381 . S
Cd441 O450 2.378 . S
O442 Cd443 2.385 . S
O442 C447 1.255 . S
Cd443 O442 2.385 . S
Cd443 O444 2.317 . S
O444 Cd443 2.317 . S
O444 C445 1.232 . S
C445 O444 1.232 . S
C445 O446 1.218 . S
O446 C445 1.218 . S
C447 O440 1.275 . S
C447 O442 1.255 . S
C448 O449 1.258 . S
C448 O450 1.256 . S
O449 Cd441 2.381 . S
O449 C448 1.258 . S
O450 Cd441 2.378 . S
O450 C448 1.256 . S
O451 Cd452 2.300 . S
O451 C458 1.275 . S
Cd452 O451 2.300 . S
Cd452 O460 2.381 . S
Cd452 O461 2.378 . S
O453 Cd454 2.385 . S
O453 C458 1.255 . S
Cd454 O453 2.385 . S
Cd454 O455 2.317 . S
O455 Cd454 2.317 . S
O455 C456 1.232 . S
C456 O455 1.232 . S
C456 O457 1.218 . S
O457 C456 1.218 . S
C458 O451 1.275 . S
C458 O453 1.255 . S
C459 O460 1.258 . S
C459 O461 1.256 . S
O460 Cd452 2.381 . S
O460 C459 1.258 . S
O461 Cd452 2.378 . S
O461 C459 1.256 . S
O462 Cd463 2.300 . S
O462 C469 1.275 . S
Cd463 O462 2.300 . S
Cd463 O471 2.381 . S
Cd463 O472 2.378 . S
O464 Cd465 2.385 . S
O464 C469 1.255 . S
Cd465 O464 2.385 . S
Cd465 O466 2.317 . S
O466 Cd465 2.317 . S
O466 C467 1.232 . S
C467 O466 1.232 . S
C467 O468 1.218 . S
O468 C467 1.218 . S
C469 O462 1.275 . S
C469 O464 1.255 . S
C470 O471 1.258 . S
C470 O472 1.256 . S
O471 Cd463 2.381 . S
O471 C470 1.258 . S
O472 Cd463 2.378 . S
O472 C470 1.256 . S
O473 Cd474 2.300 . S
O473 C480 1.275 . S
Cd474 O473 2.300 . S
Cd474 O482 2.381 . S
Cd474 O483 2.378 . S
O475 Cd476 2.385 . S
O475 C480 1.255 . S
Cd476 O475 2.385 . S
Cd476 O477 2.317 . S
O477 Cd476 2.317 . S
O477 C478 1.232 . S
C478 O477 1.232 . S
C478 O479 1.218 . S
O479 C478 1.218 . S
C480 O473 1.275 . S
C480 O475 1.255 . S
C481 O482 1.258 . S
C481 O483 1.256 . S
O482 Cd474 2.381 . S
O482 C481 1.258 . S
O483 Cd474 2.378 . S
O483 C481 1.256 . S
O484 Cd485 2.300 . S
O484 C491 1.275 . S
Cd485 O484 2.300 . S
Cd485 O493 2.381 . S
Cd485 O494 2.378 . S
O486 Cd487 2.385 . S
O486 C491 1.255 . S
Cd487 O486 2.385 . S
Cd487 O488 2.317 . S
O488 Cd487 2.317 . S
O488 C489 1.232 . S
C489 O488 1.232 . S
C489 O490 1.218 . S
O490 C489 1.218 . S
C491 O484 1.275 . S
C491 O486 1.255 . S
C492 O493 1.258 . S
C492 O494 1.256 . S
O493 Cd485 2.381 . S
O493 C492 1.258 . S
O494 Cd485 2.378 . S
O494 C492 1.256 . S
O495 Cd496 2.300 . S
O495 C502 1.275 . S
Cd496 O495 2.300 . S
Cd496 O504 2.381 . S
Cd496 O505 2.378 . S
O497 Cd498 2.385 . S
O497 C502 1.255 . S
Cd498 O497 2.385 . S
Cd498 O499 2.317 . S
O499 Cd498 2.317 . S
O499 C500 1.232 . S
C500 O499 1.232 . S
C500 O501 1.218 . S
O501 C500 1.218 . S
C502 O495 1.275 . S
C502 O497 1.255 . S
C503 O504 1.258 . S
C503 O505 1.256 . S
O504 Cd496 2.381 . S
O504 C503 1.258 . S
O505 Cd496 2.378 . S
O505 C503 1.256 . S
O506 Cd507 2.300 . S
O506 C513 1.275 . S
Cd507 O506 2.300 . S
Cd507 O515 2.381 . S
Cd507 O516 2.378 . S
O508 Cd509 2.385 . S
O508 C513 1.255 . S
Cd509 O508 2.385 . S
Cd509 O510 2.317 . S
O510 Cd509 2.317 . S
O510 C511 1.232 . S
C511 O510 1.232 . S
C511 O512 1.218 . S
O512 C511 1.218 . S
C513 O506 1.275 . S
C513 O508 1.255 . S
C514 O515 1.258 . S
C514 O516 1.256 . S
O515 Cd507 2.381 . S
O515 C514 1.258 . S
O516 Cd507 2.378 . S
O516 C514 1.256 . S
O517 Cd518 2.300 . S
O517 C524 1.275 . S
Cd518 O517 2.300 . S
Cd518 O526 2.381 . S
Cd518 O527 2.378 . S
O519 Cd520 2.385 . S
O519 C524 1.255 . S
Cd520 O519 2.385 . S
Cd520 O521 2.317 . S
O521 Cd520 2.317 . S
O521 C522 1.232 . S
C522 O521 1.232 . S
C522 O523 1.218 . S
O523 C522 1.218 . S
C524 O517 1.275 . S
C524 O519 1.255 . S
C525 O526 1.258 . S
C525 O527 1.256 . S
O526 Cd518 2.381 . S
O526 C525 1.258 . S
O527 Cd518 2.378 . S
O527 C525 1.256 . S
O528 Cd529 2.300 . S
O528 C535 1.275 . S
Cd529 O528 2.300 . S
Cd529 O537 2.381 . S
Cd529 O538 2.378 . S
O530 Cd531 2.385 . S
O530 C535 1.255 . S
Cd531 O530 2.385 . S
Cd531 O532 2.317 . S
O532 Cd531 2.317 . S
O532 C533 1.232 . S
C533 O532 1.232 . S
C533 O534 1.218 . S
O534 C533 1.218 . S
C535 O528 1.275 . S
C535 O530 1.255 . S
C536 O537 1.258 . S
C536 O538 1.256 . S
O537 Cd529 2.381 . S
O537 C536 1.258 . S
O538 Cd529 2.378 . S
O538 C536 1.256 . S
O539 Cd540 2.300 . S
O539 C546 1.275 . S
Cd540 O539 2.300 . S
Cd540 O548 2.381 . S
Cd540 O549 2.378 . S
O541 Cd542 2.385 . S
O541 C546 1.255 . S
Cd542 O541 2.385 . S
Cd542 O543 2.317 . S
O543 Cd542 2.317 . S
O543 C544 1.232 . S
C544 O543 1.232 . S
C544 O545 1.218 . S
O545 C544 1.218 . S
C546 O539 1.275 . S
C546 O541 1.255 . S
C547 O548 1.258 . S
C547 O549 1.256 . S
O548 Cd540 2.381 . S
O548 C547 1.258 . S
O549 Cd540 2.378 . S
O549 C547 1.256 . S
O550 Cd551 2.300 . S
O550 C557 1.275 . S
Cd551 O550 2.300 . S
Cd551 O559 2.381 . S
Cd551 O560 2.378 . S
O552 Cd553 2.385 . S
O552 C557 1.255 . S
Cd553 O552 2.385 . S
Cd553 O554 2.317 . S
O554 Cd553 2.317 . S
O554 C555 1.232 . S
C555 O554 1.232 . S
C555 O556 1.218 . S
O556 C555 1.218 . S
C557 O550 1.275 . S
C557 O552 1.255 . S
C558 O559 1.258 . S
C558 O560 1.256 . S
O559 Cd551 2.381 . S
O559 C558 1.258 . S
O560 Cd551 2.378 . S
O560 C558 1.256 . S
O561 Cd562 2.300 . S
O561 C568 1.275 . S
Cd562 O561 2.300 . S
Cd562 O570 2.381 . S
Cd562 O571 2.378 . S
O563 Cd564 2.385 . S
O563 C568 1.255 . S
Cd564 O563 2.385 . S
Cd564 O565 2.317 . S
O565 Cd564 2.317 . S
O565 C566 1.232 . S
C566 O565 1.232 . S
C566 O567 1.218 . S
O567 C566 1.218 . S
C568 O561 1.275 . S
C568 O563 1.255 . S
C569 O570 1.258 . S
C569 O571 1.256 . S
O570 Cd562 2.381 . S
O570 C569 1.258 . S
O571 Cd562 2.378 . S
O571 C569 1.256 . S
O572 Cd573 2.300 . S
O572 C579 1.275 . S
Cd573 O572 2.300 . S
Cd573 O581 2.381 . S
Cd573 O582 2.378 . S
O574 Cd575 2.385 . S
O574 C579 1.255 . S
Cd575 O574 2.385 . S
Cd575 O576 2.317 . S
O576 Cd575 2.317 . S
O576 C577 1.232 . S
C577 O576 1.232 . S
C577 O578 1.218 . S
O578 C577 1.218 . S
C579 O572 1.275 . S
C579 O574 1.255 . S
C580 O581 1.258 . S
C580 O582 1.256 . S
O581 Cd573 2.381 . S
O581 C580 1.258 . S
O582 Cd573 2.378 . S
O582 C580 1.256 . S
O583 Cd584 2.300 . S
O583 C590 1.275 . S
Cd584 O583 2.300 . S
Cd584 O592 2.381 . S
Cd584 O593 2.378 . S
O585 Cd586 2.385 . S
O585 C590 1.255 . S
Cd586 O585 2.385 . S
Cd586 O587 2.317 . S
O587 Cd586 2.317 . S
O587 C588 1.232 . S
C588 O587 1.232 . S
C588 O589 1.218 . S
O589 C588 1.218 . S
C590 O583 1.275 . S
C590 O585 1.255 . S
C591 O592 1.258 . S
C591 O593 1.256 . S
O592 Cd584 2.381 . S
O592 C591 1.258 . S
O593 Cd584 2.378 . S
O593 C591 1.256 . S
O594 Cd595 2.300 . S
O594 C601 1.275 . S
Cd595 O594 2.300 . S
Cd595 O603 2.381 . S
Cd595 O604 2.378 . S
O596 Cd597 2.385 . S
O596 C601 1.255 . S
Cd597 O596 2.385 . S
Cd597 O598 2.317 . S
O598 Cd597 2.317 . S
O598 C599 1.232 . S
C599 O598 1.232 . S
C599 O600 1.218 . S
O600 C599 1.218 . S
C601 O594 1.275 . S
C601 O596 1.255 . S
C602 O603 1.258 . S
C602 O604 1.256 . S
O603 Cd595 2.381 . S
O603 C602 1.258 . S
O604 Cd595 2.378 . S
O604 C602 1.256 . S
O605 Cd606 2.300 . S
O605 C612 1.275 . S
Cd606 O605 2.300 . S
Cd606 O614 2.381 . S
Cd606 O615 2.378 . S
O607 Cd608 2.385 . S
O607 C612 1.255 . S
Cd608 O607 2.385 . S
Cd608 O609 2.317 . S
O609 Cd608 2.317 . S
O609 C610 1.232 . S
C610 O609 1.232 . S
C610 O611 1.218 . S
O611 C610 1.218 . S
C612 O605 1.275 . S
C612 O607 1.255 . S
C613 O614 1.258 . S
C613 O615 1.256 . S
O614 Cd606 2.381 . S
O614 C613 1.258 . S
O615 Cd606 2.378 . S
O615 C613 1.256 . S
O616 Cd617 2.300 . S
O616 C623 1.275 . S
Cd617 O616 2.300 . S
Cd617 O625 2.381 . S
Cd617 O626 2.378 . S
O618 Cd619 2.385 . S
O618 C623 1.255 . S
Cd619 O618 2.385 . S
Cd619 O620 2.317 . S
O620 Cd619 2.317 . S
O620 C621 1.232 . S
C621 O620 1.232 . S
C621 O622 1.218 . S
O622 C621 1.218 . S
C623 O616 1.275 . S
C623 O618 1.255 . S
C624 O625 1.258 . S
C624 O626 1.256 . S
O625 Cd617 2.381 . S
O625 C624 1.258 . S
O626 Cd617 2.378 . S
O626 C624 1.256 . S
O627 Cd628 2.300 . S
O627 C634 1.275 . S
Cd628 O627 2.300 . S
Cd628 O636 2.381 . S
Cd628 O637 2.378 . S
O629 Cd630 2.385 . S
O629 C634 1.255 . S
Cd630 O629 2.385 . S
Cd630 O631 2.317 . S
O631 Cd630 2.317 . S
O631 C632 1.232 . S
C632 O631 1.232 . S
C632 O633 1.218 . S
O633 C632 1.218 . S
C634 O627 1.275 . S
C634 O629 1.255 . S
C635 O636 1.258 . S
C635 O637 1.256 . S
O636 Cd628 2.381 . S
O636 C635 1.258 . S
O637 Cd628 2.378 . S
O637 C635 1.256 . S
O638 Cd639 2.300 . S
O638 C645 1.275 . S
Cd639 O638 2.300 . S
Cd639 O647 2.381 . S
Cd639 O648 2.378 . S
O640 Cd641 2.385 . S
O640 C645 1.255 . S
Cd641 O640 2.385 . S
Cd641 O642 2.317 . S
O642 Cd641 2.317 . S
O642 C643 1.232 . S
C643 O642 1.232 . S
C643 O644 1.218 . S
O644 C643 1.218 . S
C645 O638 1.275 . S
C645 O640 1.255 . S
C646 O647 1.258 . S
C646 O648 1.256 . S
O647 Cd639 2.381 . S
O647 C646 1.258 . S
O648 Cd639 2.378 . S
O648 C646 1.256 . S
O649 Cd650 2.300 . S
O649 C656 1.275 . S
Cd650 O649 2.300 . S
Cd650 O658 2.381 . S
Cd650 O659 2.378 . S
O651 Cd652 2.385 . S
O651 C656 1.255 . S
Cd652 O651 2.385 . S
Cd652 O653 2.317 . S
O653 Cd652 2.317 . S
O653 C654 1.232 . S
C654 O653 1.232 . S
C654 O655 1.218 . S
O655 C654 1.218 . S
C656 O649 1.275 . S
C656 O651 1.255 . S
C657 O658 1.258 . S
C657 O659 1.256 . S
O658 Cd650 2.381 . S
O658 C657 1.258 . S
O659 Cd650 2.378 . S
O659 C657 1.256 . S
O660 Cd661 2.300 . S
O660 C667 1.275 . S
Cd661 O660 2.300 . S
Cd661 O669 2.381 . S
Cd661 O670 2.378 . S
O662 Cd663 2.385 . S
O662 C667 1.255 . S
Cd663 O662 2.385 . S
Cd663 O664 2.317 . S
O664 Cd663 2.317 . S
O664 C665 1.232 . S
C665 O664 1.232 . S
C665 O666 1.218 . S
O666 C665 1.218 . S
C667 O660 1.275 . S
C667 O662 1.255 . S
C668 O669 1.258 . S
C668 O670 1.256 . S
O669 Cd661 2.381 . S
O669 C668 1.258 . S
O670 Cd661 2.378 . S
O670 C668 1.256 . S
O671 Cd672 2.300 . S
O671 C678 1.275 . S
Cd672 O671 2.300 . S
Cd672 O680 2.381 . S
Cd672 O681 2.378 . S
O673 Cd674 2.385 . S
O673 C678 1.255 . S
Cd674 O673 2.385 . S
Cd674 O675 2.317 . S
O675 Cd674 2.317 . S
O675 C676 1.232 . S
C676 O675 1.232 . S
C676 O677 1.218 . S
O677 C676 1.218 . S
C678 O671 1.275 . S
C678 O673 1.255 . S
C679 O680 1.258 . S
C679 O681 1.256 . S
O680 Cd672 2.381 . S
O680 C679 1.258 . S
O681 Cd672 2.378 . S
O681 C679 1.256 . S
O682 Cd683 2.300 . S
O682 C689 1.275 . S
Cd683 O682 2.300 . S
Cd683 O691 2.381 . S
Cd683 O692 2.378 . S
O684 Cd685 2.385 . S
O684 C689 1.255 . S
Cd685 O684 2.385 . S
Cd685 O686 2.317 . S
O686 Cd685 2.317 . S
O686 C687 1.232 . S
C687 O686 1.232 . S
C687 O688 1.218 . S
O688 C687 1.218 . S
C689 O682 1.275 . S
C689 O684 1.255 . S
C690 O691 1.258 . S
C690 O692 1.256 . S
O691 Cd683 2.381 . S
O691 C690 1.258 . S
O692 Cd683 2.378 . S
O692 C690 1.256 . S
O693 Cd694 2.300 . S
O693 C700 1.275 . S
Cd694 O693 2.300 . S
Cd694 O702 2.381 . S
Cd694 O703 2.378 . S
O695 Cd696 2.385 . S
O695 C700 1.255 . S
Cd696 O695 2.385 . S
Cd696 O697 2.317 . S
O697 Cd696 2.317 . S
O697 C698 1.232 . S
C698 O697 1.232 . S
C698 O699 1.218 . S
O699 C698 1.218 . S
C700 O693 1.275 . S
C700 O695 1.255 . S
C701 O702 1.258 . S
C701 O703 1.256 . S
O702 Cd694 2.381 . S
O702 C701 1.258 . S
O703 Cd694 2.378 . S
O703 C701 1.256 . S
O704 Cd705 2.300 . S
O704 C711 1.275 . S
Cd705 O704 2.300 . S
Cd705 O713 2.381 . S
Cd705 O714 2.378 . S
O706 Cd707 2.385 . S
O706 C711 1.255 . S
Cd707 O706 2.385 . S
Cd707 O708 2.317 . S
O708 Cd707 2.317 . S
O708 C709 1.232 . S
C709 O708 1.232 . S
C709 O710 1.218 . S
O710 C709 1.218 . S
C711 O704 1.275 . S
C711 O706 1.255 . S
C712 O713 1.258 . S
C712 O714 1.256 . S
O713 Cd705 2.381 . S
O713 C712 1.258 . S
O714 Cd705 2.378 . S
O714 C712 1.256 . S
O715 Cd716 2.300 . S
O715 C722 1.275 . S
Cd716 O715 2.300 . S
Cd716 O724 2.381 . S
Cd716 O725 2.378 . S
O717 Cd718 2.385 . S
O717 C722 1.255 . S
Cd718 O717 2.385 . S
Cd718 O719 2.317 . S
O719 Cd718 2.317 . S
O719 C720 1.232 . S
C720 O719 1.232 . S
C720 O721 1.218 . S
O721 C720 1.218 . S
C722 O715 1.275 . S
C722 O717 1.255 . S
C723 O724 1.258 . S
C723 O725 1.256 . S
O724 Cd716 2.381 . S
O724 C723 1.258 . S
O725 Cd716 2.378 . S
O725 C723 1.256 . S
O726 Cd727 2.300 . S
O726 C733 1.275 . S
Cd727 O726 2.300 . S
Cd727 O735 2.381 . S
Cd727 O736 2.378 . S
O728 Cd729 2.385 . S
O728 C733 1.255 . S
Cd729 O728 2.385 . S
Cd729 O730 2.317 . S
O730 Cd729 2.317 . S
O730 C731 1.232 . S
C731 O730 1.232 . S
C731 O732 1.218 . S
O732 C731 1.218 . S
C733 O726 1.275 . S
C733 O728 1.255 . S
C734 O735 1.258 . S
C734 O736 1.256 . S
O735 Cd727 2.381 . S
O735 C734 1.258 . S
O736 Cd727 2.378 . S
O736 C734 1.256 . S
O737 Cd738 2.300 . S
O737 C744 1.275 . S
Cd738 O737 2.300 . S
Cd738 O746 2.381 . S
Cd738 O747 2.378 . S
O739 Cd740 2.385 . S
O739 C744 1.255 . S
Cd740 O739 2.385 . S
Cd740 O741 2.317 . S
O741 Cd740 2.317 . S
O741 C742 1.232 . S
C742 O741 1.232 . S
C742 O743 1.218 . S
O743 C742 1.218 . S
C744 O737 1.275 . S
C744 O739 1.255 . S
C745 O746 1.258 . S
C745 O747 1.256 . S
O746 Cd738 2.381 . S
O746 C745 1.258 . S
O747 Cd738 2.378 . S
O747 C745 1.256 . S
O748 Cd749 2.300 . S
O748 C755 1.275 . S
Cd749 O748 2.300 . S
Cd749 O757 2.381 . S
Cd749 O758 2.378 . S
O750 Cd751 2.385 . S
O750 C755 1.255 . S
Cd751 O750 2.385 . S
Cd751 O752 2.317 . S
O752 Cd751 2.317 . S
O752 C753 1.232 . S
C753 O752 1.232 . S
C753 O754 1.218 . S
O754 C753 1.218 . S
C755 O748 1.275 . S
C755 O750 1.255 . S
C756 O757 1.258 . S
C756 O758 1.256 . S
O757 Cd749 2.381 . S
O757 C756 1.258 . S
O758 Cd749 2.378 . S
O758 C756 1.256 . S
O759 Cd760 2.300 . S
O759 C766 1.275 . S
Cd760 O759 2.300 . S
Cd760 O768 2.381 . S
Cd760 O769 2.378 . S
O761 Cd762 2.385 . S
O761 C766 1.255 . S
Cd762 O761 2.385 . S
Cd762 O763 2.317 . S
O763 Cd762 2.317 . S
O763 C764 1.232 . S
C764 O763 1.232 . S
C764 O765 1.218 . S
O765 C764 1.218 . S
C766 O759 1.275 . S
C766 O761 1.255 . S
C767 O768 1.258 . S
C767 O769 1.256 . S
O768 Cd760 2.381 . S
O768 C767 1.258 . S
O769 Cd760 2.378 . S
O769 C767 1.256 . S
O770 Cd771 2.300 . S
O770 C777 1.275 . S
Cd771 O770 2.300 . S
Cd771 O779 2.381 . S
Cd771 O780 2.378 . S
O772 Cd773 2.385 . S
O772 C777 1.255 . S
Cd773 O772 2.385 . S
Cd773 O774 2.317 . S
O774 Cd773 2.317 . S
O774 C775 1.232 . S
C775 O774 1.232 . S
C775 O776 1.218 . S
O776 C775 1.218 . S
C777 O770 1.275 . S
C777 O772 1.255 . S
C778 O779 1.258 . S
C778 O780 1.256 . S
O779 Cd771 2.381 . S
O779 C778 1.258 . S
O780 Cd771 2.378 . S
O780 C778 1.256 . S
O781 Cd782 2.300 . S
O781 C788 1.275 . S
Cd782 O781 2.300 . S
Cd782 O790 2.381 . S
Cd782 O791 2.378 . S
O783 Cd784 2.385 . S
O783 C788 1.255 . S
Cd784 O783 2.385 . S
Cd784 O785 2.317 . S
O785 Cd784 2.317 . S
O785 C786 1.232 . S
C786 O785 1.232 . S
C786 O787 1.218 . S
O787 C786 1.218 . S
C788 O781 1.275 . S
C788 O783 1.255 . S
C789 O790 1.258 . S
C789 O791 1.256 . S
O790 Cd782 2.381 . S
O790 C789 1.258 . S
O791 Cd782 2.378 . S
O791 C789 1.256 . S
O792 Cd793 2.300 . S
O792 C799 1.275 . S
Cd793 O792 2.300 . S
Cd793 O801 2.381 . S
Cd793 O802 2.378 . S
O794 Cd795 2.385 . S
O794 C799 1.255 . S
Cd795 O794 2.385 . S
Cd795 O796 2.317 . S
O796 Cd795 2.317 . S
O796 C797 1.232 . S
C797 O796 1.232 . S
C797 O798 1.218 . S
O798 C797 1.218 . S
C799 O792 1.275 . S
C799 O794 1.255 . S
C800 O801 1.258 . S
C800 O802 1.256 . S
O801 Cd793 2.381 . S
O801 C800 1.258 . S
O802 Cd793 2.378 . S
O802 C800 1.256 . S
O803 Cd804 2.300 . S
O803 C810 1.275 . S
Cd804 O803 2.300 . S
Cd804 O812 2.381 . S
Cd804 O813 2.378 . S
O805 Cd806 2.385 . S
O805 C810 1.255 . S
Cd806 O805 2.385 . S
Cd806 O807 2.317 . S
O807 Cd806 2.317 . S
O807 C808 1.232 . S
C808 O807 1.232 . S
C808 O809 1.218 . S
O809 C808 1.218 . S
C810 O803 1.275 . S
C810 O805 1.255 . S
C811 O812 1.258 . S
C811 O813 1.256 . S
O812 Cd804 2.381 . S
O812 C811 1.258 . S
O813 Cd804 2.378 . S
O813 C811 1.256 . S
O814 Cd815 2.300 . S
O814 C821 1.275 . S
Cd815 O814 2.300 . S
Cd815 O823 2.381 . S
Cd815 O824 2.378 . S
O816 Cd817 2.385 . S
O816 C821 1.255 . S
Cd817 O816 2.385 . S
Cd817 O818 2.317 . S
O818 Cd817 2.317 . S
O818 C819 1.232 . S
C819 O818 1.232 . S
C819 O820 1.218 . S
O820 C819 1.218 . S
C821 O814 1.275 . S
C821 O816 1.255 . S
C822 O823 1.258 . S
C822 O824 1.256 . S
O823 Cd815 2.381 . S
O823 C822 1.258 . S
O824 Cd815 2.378 . S
O824 C822 1.256 . S
O825 Cd826 2.300 . S
O825 C832 1.275 . S
Cd826 O825 2.300 . S
Cd826 O834 2.381 . S
Cd826 O835 2.378 . S
O827 Cd828 2.385 . S
O827 C832 1.255 . S
Cd828 O827 2.385 . S
Cd828 O829 2.317 . S
O829 Cd828 2.317 . S
O829 C830 1.232 . S
C830 O829 1.232 . S
C830 O831 1.218 . S
O831 C830 1.218 . S
C832 O825 1.275 . S
C832 O827 1.255 . S
C833 O834 1.258 . S
C833 O835 1.256 . S
O834 Cd826 2.381 . S
O834 C833 1.258 . S
O835 Cd826 2.378 . S
O835 C833 1.256 . S
O836 Cd837 2.300 . S
O836 C843 1.275 . S
Cd837 O836 2.300 . S
Cd837 O845 2.381 . S
Cd837 O846 2.378 . S
O838 Cd839 2.385 . S
O838 C843 1.255 . S
Cd839 O838 2.385 . S
Cd839 O840 2.317 . S
O840 Cd839 2.317 . S
O840 C841 1.232 . S
C841 O840 1.232 . S
C841 O842 1.218 . S
O842 C841 1.218 . S
C843 O836 1.275 . S
C843 O838 1.255 . S
C844 O845 1.258 . S
C844 O846 1.256 . S
O845 Cd837 2.381 . S
O845 C844 1.258 . S
O846 Cd837 2.378 . S
O846 C844 1.256 . S
O847 Cd848 2.300 . S
O847 C854 1.275 . S
Cd848 O847 2.300 . S
Cd848 O856 2.381 . S
Cd848 O857 2.378 . S
O849 Cd850 2.385 . S
O849 C854 1.255 . S
Cd850 O849 2.385 . S
Cd850 O851 2.317 . S
O851 Cd850 2.317 . S
O851 C852 1.232 . S
C852 O851 1.232 . S
C852 O853 1.218 . S
O853 C852 1.218 . S
C854 O847 1.275 . S
C854 O849 1.255 . S
C855 O856 1.258 . S
C855 O857 1.256 . S
O856 Cd848 2.381 . S
O856 C855 1.258 . S
O857 Cd848 2.378 . S
O857 C855 1.256 . S
O858 Cd859 2.300 . S
O858 C865 1.275 . S
Cd859 O858 2.300 . S
Cd859 O867 2.381 . S
Cd859 O868 2.378 . S
O860 Cd861 2.385 . S
O860 C865 1.255 . S
Cd861 O860 2.385 . S
Cd861 O862 2.317 . S
O862 Cd861 2.317 . S
O862 C863 1.232 . S
C863 O862 1.232 . S
C863 O864 1.218 . S
O864 C863 1.218 . S
C865 O858 1.275 . S
C865 O860 1.255 . S
C866 O867 1.258 . S
C866 O868 1.256 . S
O867 Cd859 2.381 . S
O867 C866 1.258 . S
O868 Cd859 2.378 . S
O868 C866 1.256 . S
O869 Cd870 2.300 . S
O869 C876 1.275 . S
Cd870 O869 2.300 . S
Cd870 O878 2.381 . S
Cd870 O879 2.378 . S
O871 Cd872 2.385 . S
O871 C876 1.255 . S
Cd872 O871 2.385 . S
Cd872 O873 2.317 . S
O873 Cd872 2.317 . S
O873 C874 1.232 . S
C874 O873 1.232 . S
C874 O875 1.218 . S
O875 C874 1.218 . S
C876 O869 1.275 . S
C876 O871 1.255 . S
C877 O878 1.258 . S
C877 O879 1.256 . S
O878 Cd870 2.381 . S
O878 C877 1.258 . S
O879 Cd870 2.378 . S
O879 C877 1.256 . S
O880 Cd881 2.300 . S
O880 C887 1.275 . S
Cd881 O880 2.300 . S
Cd881 O889 2.381 . S
Cd881 O890 2.378 . S
O882 Cd883 2.385 . S
O882 C887 1.255 . S
Cd883 O882 2.385 . S
Cd883 O884 2.317 . S
O884 Cd883 2.317 . S
O884 C885 1.232 . S
C885 O884 1.232 . S
C885 O886 1.218 . S
O886 C885 1.218 . S
C887 O880 1.275 . S
C887 O882 1.255 . S
C888 O889 1.258 . S
C888 O890 1.256 . S
O889 Cd881 2.381 . S
O889 C888 1.258 . S
O890 Cd881 2.378 . S
O890 C888 1.256 . S
O891 Cd892 2.300 . S
O891 C898 1.275 . S
Cd892 O891 2.300 . S
Cd892 O900 2.381 . S
Cd892 O901 2.378 . S
O893 Cd894 2.385 . S
O893 C898 1.255 . S
Cd894 O893 2.385 . S
Cd894 O895 2.317 . S
O895 Cd894 2.317 . S
O895 C896 1.232 . S
C896 O895 1.232 . S
C896 O897 1.218 . S
O897 C896 1.218 . S
C898 O891 1.275 . S
C898 O893 1.255 . S
C899 O900 1.258 . S
C899 O901 1.256 . S
O900 Cd892 2.381 . S
O900 C899 1.258 . S
O901 Cd892 2.378 . S
O901 C899 1.256 . S
O902 Cd903 2.300 . S
O902 C909 1.275 . S
Cd903 O902 2.300 . S
Cd903 O911 2.381 . S
Cd903 O912 2.378 . S
O904 Cd905 2.385 . S
O904 C909 1.255 . S
Cd905 O904 2.385 . S
Cd905 O906 2.317 . S
O906 Cd905 2.317 . S
O906 C907 1.232 . S
C907 O906 1.232 . S
C907 O908 1.218 . S
O908 C907 1.218 . S
C909 O902 1.275 . S
C909 O904 1.255 . S
C910 O911 1.258 . S
C910 O912 1.256 . S
O911 Cd903 2.381 . S
O911 C910 1.258 . S
O912 Cd903 2.378 . S
O912 C910 1.256 . S
O913 Cd914 2.300 . S
O913 C920 1.275 . S
Cd914 O913 2.300 . S
Cd914 O922 2.381 . S
Cd914 O923 2.378 . S
O915 Cd916 2.385 . S
O915 C920 1.255 . S
Cd916 O915 2.385 . S
Cd916 O917 2.317 . S
O917 Cd916 2.317 . S
O917 C918 1.232 . S
C918 O917 1.232 . S
C918 O919 1.218 . S
O919 C918 1.218 . S
C920 O913 1.275 . S
C920 O915 1.255 . S
C921 O922 1.258 . S
C921 O923 1.256 . S
O922 Cd914 2.381 . S
O922 C921 1.258 . S
O923 Cd914 2.378 . S
O923 C921 1.256 . S
O924 Cd925 2.300 . S
O924 C931 1.275 . S
Cd925 O924 2.300 . S
Cd925 O933 2.381 . S
Cd925 O934 2.378 . S
O926 Cd927 2.385 . S
O926 C931 1.255 . S
Cd927 O926 2.385 . S
Cd927 O928 2.317 . S
O928 Cd927 2.317 . S
O928 C929 1.232 . S
C929 O928 1.232 . S
C929 O930 1.218 . S
O930 C929 1.218 . S
C931 O924 1.275 . S
C931 O926 1.255 . S
C932 O933 1.258 . S
C932 O934 1.256 . S
O933 Cd925 2.381 . S
O933 C932 1.258 . S
O934 Cd925 2.378 . S
O934 C932 1.256 . S
O935 Cd936 2.300 . S
O935 C942 1.275 . S
Cd936 O935 2.300 . S
Cd936 O944 2.381 . S
Cd936 O945 2.378 . S
O937 Cd938 2.385 . S
O937 C942 1.255 . S
Cd938 O937 2.385 . S
Cd938 O939 2.317 . S
O939 Cd938 2.317 . S
O939 C940 1.232 . S
C940 O939 1.232 . S
C940 O941 1.218 . S
O941 C940 1.218 . S
C942 O935 1.275 . S
C942 O937 1.255 . S
C943 O944 1.258 . S
C943 O945 1.256 . S
O944 Cd936 2.381 . S
O944 C943 1.258 . S
O945 Cd936 2.378 . S
O945 C943 1.256 . S
O946 Cd947 2.300 . S
O946 C953 1.275 . S
Cd947 O946 2.300 . S
Cd947 O955 2.381 . S
Cd947 O956 2.378 . S
O948 Cd949 2.385 . S
O948 C953 1.255 . S
Cd949 O948 2.385 . S
Cd949 O950 2.317 . S
O950 Cd949 2.317 . S
O950 C951 1.232 . S
C951 O950 1.232 . S
C951 O952 1.218 . S
O952 C951 1.218 . S
C953 O946 1.275 . S
C953 O948 1.255 . S
C954 O955 1.258 . S
C954 O956 1.256 . S
O955 Cd947 2.381 . S
O955 C954 1.258 . S
O956 Cd947 2.378 . S
O956 C954 1.256 . S
O957 Cd958 2.300 . S
O957 C964 1.275 . S
Cd958 O957 2.300 . S
Cd958 O966 2.381 . S
Cd958 O967 2.378 . S
O959 Cd960 2.385 . S
O959 C964 1.255 . S
Cd960 O959 2.385 . S
Cd960 O961 2.317 . S
O961 Cd960 2.317 . S
O961 C962 1.232 . S
C962 O961 1.232 . S
C962 O963 1.218 . S
O963 C962 1.218 . S
C964 O957 1.275 . S
C964 O959 1.255 . S
C965 O966 1.258 . S
C965 O967 1.256 . S
O966 Cd958 2.381 . S
O966 C965 1.258 . S
O967 Cd958 2.378 . S
O967 C965 1.256 . S
O968 Cd969 2.300 . S
O968 C975 1.275 . S
Cd969 O968 2.300 . S
Cd969 O977 2.381 . S
Cd969 O978 2.378 . S
O970 Cd971 2.385 . S
O970 C975 1.255 . S
Cd971 O970 2.385 . S
Cd971 O972 2.317 . S
O972 Cd971 2.317 . S
O972 C973 1.232 . S
C973 O972 1.232 . S
C973 O974 1.218 . S
O974 C973 1.218 . S
C975 O968 1.275 . S
C975 O970 1.255 . S
C976 O977 1.258 . S
C976 O978 1.256 . S
O977 Cd969 2.381 . S
O977 C976 1.258 . S
O978 Cd969 2.378 . S
O978 C976 1.256 . S
O979 Cd980 2.300 . S
O979 C986 1.275 . S
Cd980 O979 2.300 . S
Cd980 O988 2.381 . S
Cd980 O989 2.378 . S
O981 Cd982 2.385 . S
O981 C986 1.255 . S
Cd982 O981 2.385 . S
Cd982 O983 2.317 . S
O983 Cd982 2.317 . S
O983 C984 1.232 . S
C984 O983 1.232 . S
C984 O985 1.218 . S
O985 C984 1.218 . S
C986 O979 1.275 . S
C986 O981 1.255 . S
C987 O988 1.258 . S
C987 O989 1.256 . S
O988 Cd980 2.381 . S
O988 C987 1.258 . S
O989 Cd980 2.378 . S
O989 C987 1.256 . S
O990 Cd991 2.300 . S
O990 C997 1.275 . S
Cd991 O990 2.300 . S
Cd991 O999 2.381 . S
Cd991 O1000 2.378 . S
O992 Cd993 2.385 . S
O992 C997 1.255 . S
Cd993 O992 2.385 . S
Cd993 O994 2.317 . S
O994 Cd993 2.317 . S
O994 C995 1.232 . S
C995 O994 1.232 . S
C995 O996 1.218 . S
O996 C995 1.218 . S
C997 O990 1.275 . S
C997 O992 1.255 . S
C998 O999 1.258 . S
C998 O1000 1.256 . S
O999 Cd991 2.381 . S
O999 C998 1.258 . S
O1000 Cd991 2.378 . S
O1000 C998 1.256 . S
O1001 Cd1002 2.300 . S
O1001 C1008 1.275 . S
Cd1002 O1001 2.300 . S
Cd1002 O1010 2.381 . S
Cd1002 O1011 2.378 . S
O1003 Cd1004 2.385 . S
O1003 C1008 1.255 . S
Cd1004 O1003 2.385 . S
Cd1004 O1005 2.317 . S
O1005 Cd1004 2.317 . S
O1005 C1006 1.232 . S
C1006 O1005 1.232 . S
C1006 O1007 1.218 . S
O1007 C1006 1.218 . S
C1008 O1001 1.275 . S
C1008 O1003 1.255 . S
C1009 O1010 1.258 . S
C1009 O1011 1.256 . S
O1010 Cd1002 2.381 . S
O1010 C1009 1.258 . S
O1011 Cd1002 2.378 . S
O1011 C1009 1.256 . S
O1012 Cd1013 2.300 . S
O1012 C1019 1.275 . S
Cd1013 O1012 2.300 . S
Cd1013 O1021 2.381 . S
Cd1013 O1022 2.378 . S
O1014 Cd1015 2.385 . S
O1014 C1019 1.255 . S
Cd1015 O1014 2.385 . S
Cd1015 O1016 2.317 . S
O1016 Cd1015 2.317 . S
O1016 C1017 1.232 . S
C1017 O1016 1.232 . S
C1017 O1018 1.218 . S
O1018 C1017 1.218 . S
C1019 O1012 1.275 . S
C1019 O1014 1.255 . S
C1020 O1021 1.258 . S
C1020 O1022 1.256 . S
O1021 Cd1013 2.381 . S
O1021 C1020 1.258 . S
O1022 Cd1013 2.378 . S
O1022 C1020 1.256 . S
O1023 Cd1024 2.300 . S
O1023 C1030 1.275 . S
Cd1024 O1023 2.300 . S
Cd1024 O1032 2.381 . S
Cd1024 O1033 2.378 . S
O1025 Cd1026 2.385 . S
O1025 C1030 1.255 . S
Cd1026 O1025 2.385 . S
Cd1026 O1027 2.317 . S
O1027 Cd1026 2.317 . S
O1027 C1028 1.232 . S
C1028 O1027 1.232 . S
C1028 O1029 1.218 . S
O1029 C1028 1.218 . S
C1030 O1023 1.275 . S
C1030 O1025 1.255 . S
C1031 O1032 1.258 . S
C1031 O1033 1.256 . S
O1032 Cd1024 2.381 . S
O1032 C1031 1.258 . S
O1033 Cd1024 2.378 . S
O1033 C1031 1.256 . S
O1034 Cd1035 2.300 . S
O1034 C1041 1.275 . S
Cd1035 O1034 2.300 . S
Cd1035 O1043 2.381 . S
Cd1035 O1044 2.378 . S
O1036 Cd1037 2.385 . S
O1036 C1041 1.255 . S
Cd1037 O1036 2.385 . S
Cd1037 O1038 2.317 . S
O1038 Cd1037 2.317 . S
O1038 C1039 1.232 . S
C1039 O1038 1.232 . S
C1039 O1040 1.218 . S
O1040 C1039 1.218 . S
C1041 O1034 1.275 . S
C1041 O1036 1.255 . S
C1042 O1043 1.258 . S
C1042 O1044 1.256 . S
O1043 Cd1035 2.381 . S
O1043 C1042 1.258 . S
O1044 Cd1035 2.378 . S
O1044 C1042 1.256 . S
O1045 Cd1046 2.300 . S
O1045 C1052 1.275 . S
Cd1046 O1045 2.300 . S
Cd1046 O1054 2.381 . S
Cd1046 O1055 2.378 . S
O1047 Cd1048 2.385 . S
O1047 C1052 1.255 . S
Cd1048 O1047 2.385 . S
Cd1048 O1049 2.317 . S
O1049 Cd1048 2.317 . S
O1049 C1050 1.232 . S
C1050 O1049 1.232 . S
C1050 O1051 1.218 . S
O1051 C1050 1.218 . S
C1052 O1045 1.275 . S
C1052 O1047 1.255 . S
C1053 O1054 1.258 . S
C1053 O1055 1.256 . S
O1054 Cd1046 2.381 . S
O1054 C1053 1.258 . S
O1055 Cd1046 2.378 . S
O1055 C1053 1.256 . S
O1056 Cd1057 2.300 . S
O1056 C1063 1.275 . S
Cd1057 O1056 2.300 . S
Cd1057 O1065 2.381 . S
Cd1057 O1066 2.378 . S
O1058 Cd1059 2.385 . S
O1058 C1063 1.255 . S
Cd1059 O1058 2.385 . S
Cd1059 O1060 2.317 . S
O1060 Cd1059 2.317 . S
O1060 C1061 1.232 . S
C1061 O1060 1.232 . S
C1061 O1062 1.218 . S
O1062 C1061 1.218 . S
C1063 O1056 1.275 . S
C1063 O1058 1.255 . S
C1064 O1065 1.258 . S
C1064 O1066 1.256 . S
O1065 Cd1057 2.381 . S
O1065 C1064 1.258 . S
O1066 Cd1057 2.378 . S
O1066 C1064 1.256 . S
O1067 Cd1068 2.300 . S
O1067 C1074 1.275 . S
Cd1068 O1067 2.300 . S
Cd1068 O1076 2.381 . S
Cd1068 O1077 2.378 . S
O1069 Cd1070 2.385 . S
O1069 C1074 1.255 . S
Cd1070 O1069 2.385 . S
Cd1070 O1071 2.317 . S
O1071 Cd1070 2.317 . S
O1071 C1072 1.232 . S
C1072 O1071 1.232 . S
C1072 O1073 1.218 . S
O1073 C1072 1.218 . S
C1074 O1067 1.275 . S
C1074 O1069 1.255 . S
C1075 O1076 1.258 . S
C1075 O1077 1.256 . S
O1076 Cd1068 2.381 . S
O1076 C1075 1.258 . S
O1077 Cd1068 2.378 . S
O1077 C1075 1.256 . S
O1078 Cd1079 2.300 . S
O1078 C1085 1.275 . S
Cd1079 O1078 2.300 . S
Cd1079 O1087 2.381 . S
Cd1079 O1088 2.378 . S
O1080 Cd1081 2.385 . S
O1080 C1085 1.255 . S
Cd1081 O1080 2.385 . S
Cd1081 O1082 2.317 . S
O1082 Cd1081 2.317 . S
O1082 C1083 1.232 . S
C1083 O1082 1.232 . S
C1083 O1084 1.218 . S
O1084 C1083 1.218 . S
C1085 O1078 1.275 . S
C1085 O1080 1.255 . S
C1086 O1087 1.258 . S
C1086 O1088 1.256 . S
O1087 Cd1079 2.381 . S
O1087 C1086 1.258 . S
O1088 Cd1079 2.378 . S
O1088 C1086 1.256 . S
O1089 Cd1090 2.300 . S
O1089 C1096 1.275 . S
Cd1090 O1089 2.300 . S
Cd1090 O1098 2.381 . S
Cd1090 O1099 2.378 . S
O1091 Cd1092 2.385 . S
O1091 C1096 1.255 . S
Cd1092 O1091 2.385 . S
Cd1092 O1093 2.317 . S
O1093 Cd1092 2.317 . S
O1093 C1094 1.232 . S
C1094 O1093 1.232 . S
C1094 O1095 1.218 . S
O1095 C1094 1.218 . S
C1096 O1089 1.275 . S
C1096 O1091 1.255 . S
C1097 O1098 1.258 . S
C1097 O1099 1.256 . S
O1098 Cd1090 2.381 . S
O1098 C1097 1.258 . S
O1099 Cd1090 2.378 . S
O1099 C1097 1.256 . S
O1100 Cd1101 2.300 . S
O1100 C1107 1.275 . S
Cd1101 O1100 2.300 . S
Cd1101 O1109 2.381 . S
Cd1101 O1110 2.378 . S
O1102 Cd1103 2.385 . S
O1102 C1107 1.255 . S
Cd1103 O1102 2.385 . S
Cd1103 O1104 2.317 . S
O1104 Cd1103 2.317 . S
O1104 C1105 1.232 . S
C1105 O1104 1.232 . S
C1105 O1106 1.218 . S
O1106 C1105 1.218 . S
C1107 O1100 1.275 . S
C1107 O1102 1.255 . S
C1108 O1109 1.258 . S
C1108 O1110 1.256 . S
O1109 Cd1101 2.381 . S
O1109 C1108 1.258 . S
O1110 Cd1101 2.378 . S
O1110 C1108 1.256 . S
O1111 Cd1112 2.300 . S
O1111 C1118 1.275 . S
Cd1112 O1111 2.300 . S
Cd1112 O1120 2.381 . S
Cd1112 O1121 2.378 . S
O1113 Cd1114 2.385 . S
O1113 C1118 1.255 . S
Cd1114 O1113 2.385 . S
Cd1114 O1115 2.317 . S
O1115 Cd1114 2.317 . S
O1115 C1116 1.232 . S
C1116 O1115 1.232 . S
C1116 O1117 1.218 . S
O1117 C1116 1.218 . S
C1118 O1111 1.275 . S
C1118 O1113 1.255 . S
C1119 O1120 1.258 . S
C1119 O1121 1.256 . S
O1120 Cd1112 2.381 . S
O1120 C1119 1.258 . S
O1121 Cd1112 2.378 . S
O1121 C1119 1.256 . S
O1122 Cd1123 2.300 . S
O1122 C1129 1.275 . S
Cd1123 O1122 2.300 . S
Cd1123 O1131 2.381 . S
Cd1123 O1132 2.378 . S
O1124 Cd1125 2.385 . S
O1124 C1129 1.255 . S
Cd1125 O1124 2.385 . S
Cd1125 O1126 2.317 . S
O1126 Cd1125 2.317 . S
O1126 C1127 1.232 . S
C1127 O1126 1.232 . S
C1127 O1128 1.218 . S
O1128 C1127 1.218 . S
C1129 O1122 1.275 . S
C1129 O1124 1.255 . S
C1130 O1131 1.258 . S
C1130 O1132 1.256 . S
O1131 Cd1123 2.381 . S
O1131 C1130 1.258 . S
O1132 Cd1123 2.378 . S
O1132 C1130 1.256 . S
O1133 Cd1134 2.300 . S
O1133 C1140 1.275 . S
Cd1134 O1133 2.300 . S
Cd1134 O1142 2.381 . S
Cd1134 O1143 2.378 . S
O1135 Cd1136 2.385 . S
O1135 C1140 1.255 . S
Cd1136 O1135 2.385 . S
Cd1136 O1137 2.317 . S
O1137 Cd1136 2.317 . S
O1137 C1138 1.232 . S
C1138 O1137 1.232 . S
C1138 O1139 1.218 . S
O1139 C1138 1.218 . S
C1140 O1133 1.275 . S
C1140 O1135 1.255 . S
C1141 O1142 1.258 . S
C1141 O1143 1.256 . S
O1142 Cd1134 2.381 . S
O1142 C1141 1.258 . S
O1143 Cd1134 2.378 . S
O1143 C1141 1.256 . S
O1144 Cd1145 2.300 . S
O1144 C1151 1.275 . S
Cd1145 O1144 2.300 . S
Cd1145 O1153 2.381 . S
Cd1145 O1154 2.378 . S
O1146 Cd1147 2.385 . S
O1146 C1151 1.255 . S
Cd1147 O1146 2.385 . S
Cd1147 O1148 2.317 . S
O1148 Cd1147 2.317 . S
O1148 C1149 1.232 . S
C1149 O1148 1.232 . S
C1149 O1150 1.218 . S
O1150 C1149 1.218 . S
C1151 O1144 1.275 . S
C1151 O1146 1.255 . S
C1152 O1153 1.258 . S
C1152 O1154 1.256 . S
O1153 Cd1145 2.381 . S
O1153 C1152 1.258 . S
O1154 Cd1145 2.378 . S
O1154 C1152 1.256 . S
O1155 Cd1156 2.300 . S
O1155 C1162 1.275 . S
Cd1156 O1155 2.300 . S
Cd1156 O1164 2.381 . S
Cd1156 O1165 2.378 . S
O1157 Cd1158 2.385 . S
O1157 C1162 1.255 . S
Cd1158 O1157 2.385 . S
Cd1158 O1159 2.317 . S
O1159 Cd1158 2.317 . S
O1159 C1160 1.232 . S
C1160 O1159 1.232 . S
C1160 O1161 1.218 . S
O1161 C1160 1.218 . S
C1162 O1155 1.275 . S
C1162 O1157 1.255 . S
C1163 O1164 1.258 . S
C1163 O1165 1.256 . S
O1164 Cd1156 2.381 . S
O1164 C1163 1.258 . S
O1165 Cd1156 2.378 . S
O1165 C1163 1.256 . S
O1166 Cd1167 2.300 . S
O1166 C1173 1.275 . S
Cd1167 O1166 2.300 . S
Cd1167 O1175 2.381 . S
Cd1167 O1176 2.378 . S
O1168 Cd1169 2.385 . S
O1168 C1173 1.255 . S
Cd1169 O1168 2.385 . S
Cd1169 O1170 2.317 . S
O1170 Cd1169 2.317 . S
O1170 C1171 1.232 . S
C1171 O1170 1.232 . S
C1171 O1172 1.218 . S
O1172 C1171 1.218 . S
C1173 O1166 1.275 . S
C1173 O1168 1.255 . S
C1174 O1175 1.258 . S
C1174 O1176 1.256 . S
O1175 Cd1167 2.381 . S
O1175 C1174 1.258 . S
O1176 Cd1167 2.378 . S
O1176 C1174 1.256 . S
O1177 Cd1178 2.300 . S
O1177 C1184 1.275 . S
Cd1178 O1177 2.300 . S
Cd1178 O1186 2.381 . S
Cd1178 O1187 2.378 . S
O1179 Cd1180 2.385 . S
O1179 C1184 1.255 . S
Cd1180 O1179 2.385 . S
Cd1180 O1181 2.317 . S
O1181 Cd1180 2.317 . S
O1181 C1182 1.232 . S
C1182 O1181 1.232 . S
C1182 O1183 1.218 . S
O1183 C1182 1.218 . S
C1184 O1177 1.275 . S
C1184 O1179 1.255 . S
C1185 O1186 1.258 . S
C1185 O1187 1.256 . S
O1186 Cd1178 2.381 . S
O1186 C1185 1.258 . S
O1187 Cd1178 2.378 . S
O1187 C1185 1.256 . S
O1188 Cd1189 2.300 . S
O1188 C1195 1.275 . S
Cd1189 O1188 2.300 . S
Cd1189 O1197 2.381 . S
Cd1189 O1198 2.378 . S
O1190 Cd1191 2.385 . S
O1190 C1195 1.255 . S
Cd1191 O1190 2.385 . S
Cd1191 O1192 2.317 . S
O1192 Cd1191 2.317 . S
O1192 C1193 1.232 . S
C1193 O1192 1.232 . S
C1193 O1194 1.218 . S
O1194 C1193 1.218 . S
C1195 O1188 1.275 . S
C1195 O1190 1.255 . S
C1196 O1197 1.258 . S
C1196 O1198 1.256 . S
O1197 Cd1189 2.381 . S
O1197 C1196 1.258 . S
O1198 Cd1189 2.378 . S
O1198 C1196 1.256 . S
O1199 Cd1200 2.300 . S
O1199 C1206 1.275 . S
Cd1200 O1199 2.300 . S
Cd1200 O1208 2.381 . S
Cd1200 O1209 2.378 . S
O1201 Cd1202 2.385 . S
O1201 C1206 1.255 . S
Cd1202 O1201 2.385 . S
Cd1202 O1203 2.317 . S
O1203 Cd1202 2.317 . S
O1203 C1204 1.232 . S
C1204 O1203 1.232 . S
C1204 O1205 1.218 . S
O1205 C1204 1.218 . S
C1206 O1199 1.275 . S
C1206 O1201 1.255 . S
C1207 O1208 1.258 . S
C1207 O1209 1.256 . S
O1208 Cd1200 2.381 . S
O1208 C1207 1.258 . S
O1209 Cd1200 2.378 . S
O1209 C1207 1.256 . S
O1210 Cd1211 2.300 . S
O1210 C1217 1.275 . S
Cd1211 O1210 2.300 . S
Cd1211 O1219 2.381 . S
Cd1211 O1220 2.378 . S
O1212 Cd1213 2.385 . S
O1212 C1217 1.255 . S
Cd1213 O1212 2.385 . S
Cd1213 O1214 2.317 . S
O1214 Cd1213 2.317 . S
O1214 C1215 1.232 . S
C1215 O1214 1.232 . S
C1215 O1216 1.218 . S
O1216 C1215 1.218 . S
C1217 O1210 1.275 . S
C1217 O1212 1.255 . S
C1218 O1219 1.258 . S
C1218 O1220 1.256 . S
O1219 Cd1211 2.381 . S
O1219 C1218 1.258 . S
O1220 Cd1211 2.378 . S
O1220 C1218 1.256 . S
O1221 Cd1222 2.300 . S
O1221 C1228 1.275 . S
Cd1222 O1221 2.300 . S
Cd1222 O1230 2.381 . S
Cd1222 O1231 2.378 . S
O1223 Cd1224 2.385 . S
O1223 C1228 1.255 . S
Cd1224 O1223 2.385 . S
Cd1224 O1225 2.317 . S
O1225 Cd1224 2.317 . S
O1225 C1226 1.232 . S
C1226 O1225 1.232 . S
C1226 O1227 1.218 . S
O1227 C1226 1.218 . S
C1228 O1221 1.275 . S
C1228 O1223 1.255 . S
C1229 O1230 1.258 . S
C1229 O1231 1.256 . S
O1230 Cd1222 2.381 . S
O1230 C1229 1.258 . S
O1231 Cd1222 2.378 . S
O1231 C1229 1.256 . S
O1232 Cd1233 2.300 . S
O1232 C1239 1.275 . S
Cd1233 O1232 2.300 . S
Cd1233 O1241 2.381 . S
Cd1233 O1242 2.378 . S
O1234 Cd1235 2.385 . S
O1234 C1239 1.255 . S
Cd1235 O1234 2.385 . S
Cd1235 O1236 2.317 . S
O1236 Cd1235 2.317 . S
O1236 C1237 1.232 . S
C1237 O1236 1.232 . S
C1237 O1238 1.218 . S
O1238 C1237 1.218 . S
C1239 O1232 1.275 . S
C1239 O1234 1.255 . S
C1240 O1241 1.258 . S
C1240 O1242 1.256 . S
O1241 Cd1233 2.381 . S
O1241 C1240 1.258 . S
O1242 Cd1233 2.378 . S
O1242 C1240 1.256 . S
O1243 Cd1244 2.300 . S
O1243 C1250 1.275 . S
Cd1244 O1243 2.300 . S
Cd1244 O1252 2.381 . S
Cd1244 O1253 2.378 . S
O1245 Cd1246 2.385 . S
O1245 C1250 1.255 . S
Cd1246 O1245 2.385 . S
Cd1246 O1247 2.317 . S
O1247 Cd1246 2.317 . S
O1247 C1248 1.232 . S
C1248 O1247 1.232 . S
C1248 O1249 1.218 . S
O1249 C1248 1.218 . S
C1250 O1243 1.275 . S
C1250 O1245 1.255 . S
C1251 O1252 1.258 . S
C1251 O1253 1.256 . S
O1252 Cd1244 2.381 . S
O1252 C1251 1.258 . S
O1253 Cd1244 2.378 . S
O1253 C1251 1.256 . S
O1254 Cd1255 2.300 . S
O1254 C1261 1.275 . S
Cd1255 O1254 2.300 . S
Cd1255 O1263 2.381 . S
Cd1255 O1264 2.378 . S
O1256 Cd1257 2.385 . S
O1256 C1261 1.255 . S
Cd1257 O1256 2.385 . S
Cd1257 O1258 2.317 . S
O1258 Cd1257 2.317 . S
O1258 C1259 1.232 . S
C1259 O1258 1.232 . S
C1259 O1260 1.218 . S
O1260 C1259 1.218 . S
C1261 O1254 1.275 . S
C1261 O1256 1.255 . S
C1262 O1263 1.258 . S
C1262 O1264 1.256 . S
O1263 Cd1255 2.381 . S
O1263 C1262 1.258 . S
O1264 Cd1255 2.378 . S
O1264 C1262 1.256 . S
O1265 Cd1266 2.300 . S
O1265 C1272 1.275 . S
Cd1266 O1265 2.300 . S
Cd1266 O1274 2.381 . S
Cd1266 O1275 2.378 . S
O1267 Cd1268 2.385 . S
O1267 C1272 1.255 . S
Cd1268 O1267 2.385 . S
Cd1268 O1269 2.317 . S
O1269 Cd1268 2.317 . S
O1269 C1270 1.232 . S
C1270 O1269 1.232 . S
C1270 O1271 1.218 . S
O1271 C1270 1.218 . S
C1272 O1265 1.275 . S
C1272 O1267 1.255 . S
C1273 O1274 1.258 . S
C1273 O1275 1.256 . S
O1274 Cd1266 2.381 . S
O1274 C1273 1.258 . S
O1275 Cd1266 2.378 . S
O1275 C1273 1.256 . S
O1276 Cd1277 2.300 . S
O1276 C1283 1.275 . S
Cd1277 O1276 2.300 . S
Cd1277 O1285 2.381 . S
Cd1277 O1286 2.378 . S
O1278 Cd1279 2.385 . S
O1278 C1283 1.255 . S
Cd1279 O1278 2.385 . S
Cd1279 O1280 2.317 . S
O1280 Cd1279 2.317 . S
O1280 C1281 1.232 . S
C1281 O1280 1.232 . S
C1281 O1282 1.218 . S
O1282 C1281 1.218 . S
C1283 O1276 1.275 . S
C1283 O1278 1.255 . S
C1284 O1285 1.258 . S
C1284 O1286 1.256 . S
O1285 Cd1277 2.381 . S
O1285 C1284 1.258 . S
O1286 Cd1277 2.378 . S
O1286 C1284 1.256 . S
O1287 Cd1288 2.300 . S
O1287 C1294 1.275 . S
Cd1288 O1287 2.300 . S
Cd1288 O1296 2.381 . S
Cd1288 O1297 2.378 . S
O1289 Cd1290 2.385 . S
O1289 C1294 1.255 . S
Cd1290 O1289 2.385 . S
Cd1290 O1291 2.317 . S
O1291 Cd1290 2.317 . S
O1291 C1292 1.232 . S
C1292 O1291 1.232 . S
C1292 O1293 1.218 . S
O1293 C1292 1.218 . S
C1294 O1287 1.275 . S
C1294 O1289 1.255 . S
C1295 O1296 1.258 . S
C1295 O1297 1.256 . S
O1296 Cd1288 2.381 . S
O1296 C1295 1.258 . S
O1297 Cd1288 2.378 . S
O1297 C1295 1.256 . S
O1298 Cd1299 2.300 . S
O1298 C1305 1.275 . S
Cd1299 O1298 2.300 . S
Cd1299 O1307 2.381 . S
Cd1299 O1308 2.378 . S
O1300 Cd1301 2.385 . S
O1300 C1305 1.255 . S
Cd1301 O1300 2.385 . S
Cd1301 O1302 2.317 . S
O1302 Cd1301 2.317 . S
O1302 C1303 1.232 . S
C1303 O1302 1.232 . S
C1303 O1304 1.218 . S
O1304 C1303 1.218 . S
C1305 O1298 1.275 . S
C1305 O1300 1.255 . S
C1306 O1307 1.258 . S
C1306 O1308 1.256 . S
O1307 Cd1299 2.381 . S
O1307 C1306 1.258 . S
O1308 Cd1299 2.378 . S
O1308 C1306 1.256 . S
O1309 Cd1310 2.300 . S
O1309 C1316 1.275 . S
Cd1310 O1309 2.300 . S
Cd1310 O1318 2.381 . S
Cd1310 O1319 2.378 . S
O1311 Cd1312 2.385 . S
O1311 C1316 1.255 . S
Cd1312 O1311 2.385 . S
Cd1312 O1313 2.317 . S
O1313 Cd1312 2.317 . S
O1313 C1314 1.232 . S
C1314 O1313 1.232 . S
C1314 O1315 1.218 . S
O1315 C1314 1.218 . S
C1316 O1309 1.275 . S
C1316 O1311 1.255 . S
C1317 O1318 1.258 . S
C1317 O1319 1.256 . S
O1318 Cd1310 2.381 . S
O1318 C1317 1.258 . S
O1319 Cd1310 2.378 . S
O1319 C1317 1.256 . S
O1320 Cd1321 2.300 . S
O1320 C1327 1.275 . S
Cd1321 O1320 2.300 . S
Cd1321 O1329 2.381 . S
Cd1321 O1330 2.378 . S
O1322 Cd1323 2.385 . S
O1322 C1327 1.255 . S
Cd1323 O1322 2.385 . S
Cd1323 O1324 2.317 . S
O1324 Cd1323 2.317 . S
O1324 C1325 1.232 . S
C1325 O1324 1.232 . S
C1325 O1326 1.218 . S
O1326 C1325 1.218 . S
C1327 O1320 1.275 . S
C1327 O1322 1.255 . S
C1328 O1329 1.258 . S
C1328 O1330 1.256 . S
O1329 Cd1321 2.381 . S
O1329 C1328 1.258 . S
O1330 Cd1321 2.378 . S
O1330 C1328 1.256 . S
O1331 Cd1332 2.300 . S
O1331 C1338 1.275 . S
Cd1332 O1331 2.300 . S
Cd1332 O1340 2.381 . S
Cd1332 O1341 2.378 . S
O1333 Cd1334 2.385 . S
O1333 C1338 1.255 . S
Cd1334 O1333 2.385 . S
Cd1334 O1335 2.317 . S
O1335 Cd1334 2.317 . S
O1335 C1336 1.232 . S
C1336 O1335 1.232 . S
C1336 O1337 1.218 . S
O1337 C1336 1.218 . S
C1338 O1331 1.275 . S
C1338 O1333 1.255 . S
C1339 O1340 1.258 . S
C1339 O1341 1.256 . S
O1340 Cd1332 2.381 . S
O1340 C1339 1.258 . S
O1341 Cd1332 2.378 . S
O1341 C1339 1.256 . S
O1342 Cd1343 2.300 . S
O1342 C1349 1.275 . S
Cd1343 O1342 2.300 . S
Cd1343 O1351 2.381 . S
Cd1343 O1352 2.378 . S
O1344 Cd1345 2.385 . S
O1344 C1349 1.255 . S
Cd1345 O1344 2.385 . S
Cd1345 O1346 2.317 . S
O1346 Cd1345 2.317 . S
O1346 C1347 1.232 . S
C1347 O1346 1.232 . S
C1347 O1348 1.218 . S
O1348 C1347 1.218 . S
C1349 O1342 1.275 . S
C1349 O1344 1.255 . S
C1350 O1351 1.258 . S
C1350 O1352 1.256 . S
O1351 Cd1343 2.381 . S
O1351 C1350 1.258 . S
O1352 Cd1343 2.378 . S
O1352 C1350 1.256 . S
O1353 Cd1354 2.300 . S
O1353 C1360 1.275 . S
Cd1354 O1353 2.300 . S
Cd1354 O1362 2.381 . S
Cd1354 O1363 2.378 . S
O1355 Cd1356 2.385 . S
O1355 C1360 1.255 . S
Cd1356 O1355 2.385 . S
Cd1356 O1357 2.317 . S
O1357 Cd1356 2.317 . S
O1357 C1358 1.232 . S
C1358 O1357 1.232 . S
C1358 O1359 1.218 . S
O1359 C1358 1.218 . S
C1360 O1353 1.275 . S
C1360 O1355 1.255 . S
C1361 O1362 1.258 . S
C1361 O1363 1.256 . S
O1362 Cd1354 2.381 . S
O1362 C1361 1.258 . S
O1363 Cd1354 2.378 . S
O1363 C1361 1.256 . S
O1364 Cd1365 2.300 . S
O1364 C1371 1.275 . S
Cd1365 O1364 2.300 . S
Cd1365 O1373 2.381 . S
Cd1365 O1374 2.378 . S
O1366 Cd1367 2.385 . S
O1366 C1371 1.255 . S
Cd1367 O1366 2.385 . S
Cd1367 O1368 2.317 . S
O1368 Cd1367 2.317 . S
O1368 C1369 1.232 . S
C1369 O1368 1.232 . S
C1369 O1370 1.218 . S
O1370 C1369 1.218 . S
C1371 O1364 1.275 . S
C1371 O1366 1.255 . S
C1372 O1373 1.258 . S
C1372 O1374 1.256 . S
O1373 Cd1365 2.381 . S
O1373 C1372 1.258 . S
O1374 Cd1365 2.378 . S
O1374 C1372 1.256 . S
O1375 Cd1376 2.300 . S
O1375 C1382 1.275 . S
Cd1376 O1375 2.300 . S
Cd1376 O1384 2.381 . S
Cd1376 O1385 2.378 . S
O1377 Cd1378 2.385 . S
O1377 C1382 1.255 . S
Cd1378 O1377 2.385 . S
Cd1378 O1379 2.317 . S
O1379 Cd1378 2.317 . S
O1379 C1380 1.232 . S
C1380 O1379 1.232 . S
C1380 O1381 1.218 . S
O1381 C1380 1.218 . S
C1382 O1375 1.275 . S
C1382 O1377 1.255 . S
C1383 O1384 1.258 . S
C1383 O1385 1.256 . S
O1384 Cd1376 2.381 . S
O1384 C1383 1.258 . S
O1385 Cd1376 2.378 . S
O1385 C1383 1.256 . S
O1386 Cd1387 2.300 . S
O1386 C1393 1.275 . S
Cd1387 O1386 2.300 . S
Cd1387 O1395 2.381 . S
Cd1387 O1396 2.378 . S
O1388 Cd1389 2.385 . S
O1388 C1393 1.255 . S
Cd1389 O1388 2.385 . S
Cd1389 O1390 2.317 . S
O1390 Cd1389 2.317 . S
O1390 C1391 1.232 . S
C1391 O1390 1.232 . S
C1391 O1392 1.218 . S
O1392 C1391 1.218 . S
C1393 O1386 1.275 . S
C1393 O1388 1.255 . S
C1394 O1395 1.258 . S
C1394 O1396 1.256 . S
O1395 Cd1387 2.381 . S
O1395 C1394 1.258 . S
O1396 Cd1387 2.378 . S
O1396 C1394 1.256 . S
O1397 Cd1398 2.300 . S
O1397 C1404 1.275 . S
Cd1398 O1397 2.300 . S
Cd1398 O1406 2.381 . S
Cd1398 O1407 2.378 . S
O1399 Cd1400 2.385 . S
O1399 C1404 1.255 . S
Cd1400 O1399 2.385 . S
Cd1400 O1401 2.317 . S
O1401 Cd1400 2.317 . S
O1401 C1402 1.232 . S
C1402 O1401 1.232 . S
C1402 O1403 1.218 . S
O1403 C1402 1.218 . S
C1404 O1397 1.275 . S
C1404 O1399 1.255 . S
C1405 O1406 1.258 . S
C1405 O1407 1.256 . S
O1406 Cd1398 2.381 . S
O1406 C1405 1.258 . S
O1407 Cd1398 2.378 . S
O1407 C1405 1.256 . S
O1408 Cd1409 2.300 . S
O1408 C1415 1.275 . S
Cd1409 O1408 2.300 . S
Cd1409 O1417 2.381 . S
Cd1409 O1418 2.378 . S
O1410 Cd1411 2.385 . S
O1410 C1415 1.255 . S
Cd1411 O1410 2.385 . S
Cd1411 O1412 2.317 . S
O1412 Cd1411 2.317 . S
O1412 C1413 1.232 . S
C1413 O1412 1.232 . S
C1413 O1414 1.218 . S
O1414 C1413 1.218 . S
C1415 O1408 1.275 . S
C1415 O1410 1.255 . S
C1416 O1417 1.258 . S
C1416 O1418 1.256 . S
O1417 Cd1409 2.381 . S
O1417 C1416 1.258 . S
O1418 Cd1409 2.378 . S
O1418 C1416 1.256 . S
O1419 Cd1420 2.300 . S
O1419 C1426 1.275 . S
Cd1420 O1419 2.300 . S
Cd1420 O1428 2.381 . S
Cd1420 O1429 2.378 . S
O1421 Cd1422 2.385 . S
O1421 C1426 1.255 . S
Cd1422 O1421 2.385 . S
Cd1422 O1423 2.317 . S
O1423 Cd1422 2.317 . S
O1423 C1424 1.232 . S
C1424 O1423 1.232 . S
C1424 O1425 1.218 . S
O1425 C1424 1.218 . S
C1426 O1419 1.275 . S
C1426 O1421 1.255 . S
C1427 O1428 1.258 . S
C1427 O1429 1.256 . S
O1428 Cd1420 2.381 . S
O1428 C1427 1.258 . S
O1429 Cd1420 2.378 . S
O1429 C1427 1.256 . S
O1430 Cd1431 2.300 . S
O1430 C1437 1.275 . S
Cd1431 O1430 2.300 . S
Cd1431 O1439 2.381 . S
Cd1431 O1440 2.378 . S
O1432 Cd1433 2.385 . S
O1432 C1437 1.255 . S
Cd1433 O1432 2.385 . S
Cd1433 O1434 2.317 . S
O1434 Cd1433 2.317 . S
O1434 C1435 1.232 . S
C1435 O1434 1.232 . S
C1435 O1436 1.218 . S
O1436 C1435 1.218 . S
C1437 O1430 1.275 . S
C1437 O1432 1.255 . S
C1438 O1439 1.258 . S
C1438 O1440 1.256 . S
O1439 Cd1431 2.381 . S
O1439 C1438 1.258 . S
O1440 Cd1431 2.378 . S
O1440 C1438 1.256 . S
O1441 Cd1442 2.300 . S
O1441 C1448 1.275 . S
Cd1442 O1441 2.300 . S
Cd1442 O1450 2.381 . S
Cd1442 O1451 2.378 . S
O1443 Cd1444 2.385 . S
O1443 C1448 1.255 . S
Cd1444 O1443 2.385 . S
Cd1444 O1445 2.317 . S
O1445 Cd1444 2.317 . S
O1445 C1446 1.232 . S
C1446 O1445 1.232 . S
C1446 O1447 1.218 . S
O1447 C1446 1.218 . S
C1448 O1441 1.275 . S
C1448 O1443 1.255 . S
C1449 O1450 1.258 . S
C1449 O1451 1.256 . S
O1450 Cd1442 2.381 . S
O1450 C1449 1.258 . S
O1451 Cd1442 2.378 . S
O1451 C1449 1.256 . S
O1452 Cd1453 2.300 . S
O1452 C1459 1.275 . S
Cd1453 O1452 2.300 . S
Cd1453 O1461 2.381 . S
Cd1453 O1462 2.378 . S
O1454 Cd1455 2.385 . S
O1454 C1459 1.255 . S
Cd1455 O1454 2.385 . S
Cd1455 O1456 2.317 . S
O1456 Cd1455 2.317 . S
O1456 C1457 1.232 . S
C1457 O1456 1.232 . S
C1457 O1458 1.218 . S
O1458 C1457 1.218 . S
C1459 O1452 1.275 . S
C1459 O1454 1.255 . S
C1460 O1461 1.258 . S
C1460 O1462 1.256 . S
O1461 Cd1453 2.381 . S
O1461 C1460 1.258 . S
O1462 Cd1453 2.378 . S
O1462 C1460 1.256 . S
O1463 Cd1464 2.300 . S
O1463 C1470 1.275 . S
Cd1464 O1463 2.300 . S
Cd1464 O1472 2.381 . S
Cd1464 O1473 2.378 . S
O1465 Cd1466 2.385 . S
O1465 C1470 1.255 . S
Cd1466 O1465 2.385 . S
Cd1466 O1467 2.317 . S
O1467 Cd1466 2.317 . S
O1467 C1468 1.232 . S
C1468 O1467 1.232 . S
C1468 O1469 1.218 . S
O1469 C1468 1.218 . S
C1470 O1463 1.275 . S
C1470 O1465 1.255 . S
C1471 O1472 1.258 . S
C1471 O1473 1.256 . S
O1472 Cd1464 2.381 . S
O1472 C1471 1.258 . S
O1473 Cd1464 2.378 . S
O1473 C1471 1.256 . S
O1474 Cd1475 2.300 . S
O1474 C1481 1.275 . S
Cd1475 O1474 2.300 . S
Cd1475 O1483 2.381 . S
Cd1475 O1484 2.378 . S
O1476 Cd1477 2.385 . S
O1476 C1481 1.255 . S
Cd1477 O1476 2.385 . S
Cd1477 O1478 2.317 . S
O1478 Cd1477 2.317 . S
O1478 C1479 1.232 . S
C1479 O1478 1.232 . S
C1479 O1480 1.218 . S
O1480 C1479 1.218 . S
C1481 O1474 1.275 . S
C1481 O1476 1.255 . S
C1482 O1483 1.258 . S
C1482 O1484 1.256 . S
O1483 Cd1475 2.381 . S
O1483 C1482 1.258 . S
O1484 Cd1475 2.378 . S
O1484 C1482 1.256 . S
O1485 Cd1486 2.300 . S
O1485 C1492 1.275 . S
Cd1486 O1485 2.300 . S
Cd1486 O1494 2.381 . S
Cd1486 O1495 2.378 . S
O1487 Cd1488 2.385 . S
O1487 C1492 1.255 . S
Cd1488 O1487 2.385 . S
Cd1488 O1489 2.317 . S
O1489 Cd1488 2.317 . S
O1489 C1490 1.232 . S
C1490 O1489 1.232 . S
C1490 O1491 1.218 . S
O1491 C1490 1.218 . S
C1492 O1485 1.275 . S
C1492 O1487 1.255 . S
C1493 O1494 1.258 . S
C1493 O1495 1.256 . S
O1494 Cd1486 2.381 . S
O1494 C1493 1.258 . S
O1495 Cd1486 2.378 . S
O1495 C1493 1.256 . S
O1496 Cd1497 2.300 . S
O1496 C1503 1.275 . S
Cd1497 O1496 2.300 . S
Cd1497 O1505 2.381 . S
Cd1497 O1506 2.378 . S
O1498 Cd1499 2.385 . S
O1498 C1503 1.255 . S
Cd1499 O1498 2.385 . S
Cd1499 O1500 2.317 . S
O1500 Cd1499 2.317 . S
O1500 C1501 1.232 . S
C1501 O1500 1.232 . S
C1501 O1502 1.218 . S
O1502 C1501 1.218 . S
C1503 O1496 1.275 . S
C1503 O1498 1.255 . S
C1504 O1505 1.258 . S
C1504 O1506 1.256 . S
O1505 Cd1497 2.381 . S
O1505 C1504 1.258 . S
O1506 Cd1497 2.378 . S
O1506 C1504 1.256 . S
O1507 Cd1508 2.300 . S
O1507 C1514 1.275 . S
Cd1508 O1507 2.300 . S
Cd1508 O1516 2.381 . S
Cd1508 O1517 2.378 . S
O1509 Cd1510 2.385 . S
O1509 C1514 1.255 . S
Cd1510 O1509 2.385 . S
Cd1510 O1511 2.317 . S
O1511 Cd1510 2.317 . S
O1511 C1512 1.232 . S
C1512 O1511 1.232 . S
C1512 O1513 1.218 . S
O1513 C1512 1.218 . S
C1514 O1507 1.275 . S
C1514 O1509 1.255 . S
C1515 O1516 1.258 . S
C1515 O1517 1.256 . S
O1516 Cd1508 2.381 . S
O1516 C1515 1.258 . S
O1517 Cd1508 2.378 . S
O1517 C1515 1.256 . S
O1518 Cd1519 2.300 . S
O1518 C1525 1.275 . S
Cd1519 O1518 2.300 . S
Cd1519 O1527 2.381 . S
Cd1519 O1528 2.378 . S
O1520 Cd1521 2.385 . S
O1520 C1525 1.255 . S
Cd1521 O1520 2.385 . S
Cd1521 O1522 2.317 . S
O1522 Cd1521 2.317 . S
O1522 C1523 1.232 . S
C1523 O1522 1.232 . S
C1523 O1524 1.218 . S
O1524 C1523 1.218 . S
C1525 O1518 1.275 . S
C1525 O1520 1.255 . S
C1526 O1527 1.258 . S
C1526 O1528 1.256 . S
O1527 Cd1519 2.381 . S
O1527 C1526 1.258 . S
O1528 Cd1519 2.378 . S
O1528 C1526 1.256 . S
O1529 Cd1530 2.300 . S
O1529 C1536 1.275 . S
Cd1530 O1529 2.300 . S
Cd1530 O1538 2.381 . S
Cd1530 O1539 2.378 . S
O1531 Cd1532 2.385 . S
O1531 C1536 1.255 . S
Cd1532 O1531 2.385 . S
Cd1532 O1533 2.317 . S
O1533 Cd1532 2.317 . S
O1533 C1534 1.232 . S
C1534 O1533 1.232 . S
C1534 O1535 1.218 . S
O1535 C1534 1.218 . S
C1536 O1529 1.275 . S
C1536 O1531 1.255 . S
C1537 O1538 1.258 . S
C1537 O1539 1.256 . S
O1538 Cd1530 2.381 . S
O1538 C1537 1.258 . S
O1539 Cd1530 2.378 . S
O1539 C1537 1.256 . S
O1540 Cd1541 2.300 . S
O1540 C1547 1.275 . S
Cd1541 O1540 2.300 . S
Cd1541 O1549 2.381 . S
Cd1541 O1550 2.378 . S
O1542 Cd1543 2.385 . S
O1542 C1547 1.255 . S
Cd1543 O1542 2.385 . S
Cd1543 O1544 2.317 . S
O1544 Cd1543 2.317 . S
O1544 C1545 1.232 . S
C1545 O1544 1.232 . S
C1545 O1546 1.218 . S
O1546 C1545 1.218 . S
C1547 O1540 1.275 . S
C1547 O1542 1.255 . S
C1548 O1549 1.258 . S
C1548 O1550 1.256 . S
O1549 Cd1541 2.381 . S
O1549 C1548 1.258 . S
O1550 Cd1541 2.378 . S
O1550 C1548 1.256 . S
O1551 Cd1552 2.300 . S
O1551 C1558 1.275 . S
Cd1552 O1551 2.300 . S
Cd1552 O1560 2.381 . S
Cd1552 O1561 2.378 . S
O1553 Cd1554 2.385 . S
O1553 C1558 1.255 . S
Cd1554 O1553 2.385 . S
Cd1554 O1555 2.317 . S
O1555 Cd1554 2.317 . S
O1555 C1556 1.232 . S
C1556 O1555 1.232 . S
C1556 O1557 1.218 . S
O1557 C1556 1.218 . S
C1558 O1551 1.275 . S
C1558 O1553 1.255 . S
C1559 O1560 1.258 . S
C1559 O1561 1.256 . S
O1560 Cd1552 2.381 . S
O1560 C1559 1.258 . S
O1561 Cd1552 2.378 . S
O1561 C1559 1.256 . S
O1562 Cd1563 2.300 . S
O1562 C1569 1.275 . S
Cd1563 O1562 2.300 . S
Cd1563 O1571 2.381 . S
Cd1563 O1572 2.378 . S
O1564 Cd1565 2.385 . S
O1564 C1569 1.255 . S
Cd1565 O1564 2.385 . S
Cd1565 O1566 2.317 . S
O1566 Cd1565 2.317 . S
O1566 C1567 1.232 . S
C1567 O1566 1.232 . S
C1567 O1568 1.218 . S
O1568 C1567 1.218 . S
C1569 O1562 1.275 . S
C1569 O1564 1.255 . S
C1570 O1571 1.258 . S
C1570 O1572 1.256 . S
O1571 Cd1563 2.381 . S
O1571 C1570 1.258 . S
O1572 Cd1563 2.378 . S
O1572 C1570 1.256 . S
O1573 Cd1574 2.300 . S
O1573 C1580 1.275 . S
Cd1574 O1573 2.300 . S
Cd1574 O1582 2.381 . S
Cd1574 O1583 2.378 . S
O1575 Cd1576 2.385 . S
O1575 C1580 1.255 . S
Cd1576 O1575 2.385 . S
Cd1576 O1577 2.317 . S
O1577 Cd1576 2.317 . S
O1577 C1578 1.232 . S
C1578 O1577 1.232 . S
C1578 O1579 1.218 . S
O1579 C1578 1.218 . S
C1580 O1573 1.275 . S
C1580 O1575 1.255 . S
C1581 O1582 1.258 . S
C1581 O1583 1.256 . S
O1582 Cd1574 2.381 . S
O1582 C1581 1.258 . S
O1583 Cd1574 2.378 . S
O1583 C1581 1.256 . S
O1584 Cd1585 2.300 . S
O1584 C1591 1.275 . S
Cd1585 O1584 2.300 . S
Cd1585 O1593 2.381 . S
Cd1585 O1594 2.378 . S
O1586 Cd1587 2.385 . S
O1586 C1591 1.255 . S
Cd1587 O1586 2.385 . S
Cd1587 O1588 2.317 . S
O1588 Cd1587 2.317 . S
O1588 C1589 1.232 . S
C1589 O1588 1.232 . S
C1589 O1590 1.218 . S
O1590 C1589 1.218 . S
C1591 O1584 1.275 . S
C1591 O1586 1.255 . S
C1592 O1593 1.258 . S
C1592 O1594 1.256 . S
O1593 Cd1585 2.381 . S
O1593 C1592 1.258 . S
O1594 Cd1585 2.378 . S
O1594 C1592 1.256 . S
O1595 Cd1596 2.300 . S
O1595 C1602 1.275 . S
Cd1596 O1595 2.300 . S
Cd1596 O1604 2.381 . S
Cd1596 O1605 2.378 . S
O1597 Cd1598 2.385 . S
O1597 C1602 1.255 . S
Cd1598 O1597 2.385 . S
Cd1598 O1599 2.317 . S
O1599 Cd1598 2.317 . S
O1599 C1600 1.232 . S
C1600 O1599 1.232 . S
C1600 O1601 1.218 . S
O1601 C1600 1.218 . S
C1602 O1595 1.275 . S
C1602 O1597 1.255 . S
C1603 O1604 1.258 . S
C1603 O1605 1.256 . S
O1604 Cd1596 2.381 . S
O1604 C1603 1.258 . S
O1605 Cd1596 2.378 . S
O1605 C1603 1.256 . S
O1606 Cd1607 2.300 . S
O1606 C1613 1.275 . S
Cd1607 O1606 2.300 . S
Cd1607 O1615 2.381 . S
Cd1607 O1616 2.378 . S
O1608 Cd1609 2.385 . S
O1608 C1613 1.255 . S
Cd1609 O1608 2.385 . S
Cd1609 O1610 2.317 . S
O1610 Cd1609 2.317 . S
O1610 C1611 1.232 . S
C1611 O1610 1.232 . S
C1611 O1612 1.218 . S
O1612 C1611 1.218 . S
C1613 O1606 1.275 . S
C1613 O1608 1.255 . S
C1614 O1615 1.258 . S
C1614 O1616 1.256 . S
O1615 Cd1607 2.381 . S
O1615 C1614 1.258 . S
O1616 Cd1607 2.378 . S
O1616 C1614 1.256 . S
O1617 Cd1618 2.300 . S
O1617 C1624 1.275 . S
Cd1618 O1617 2.300 . S
Cd1618 O1626 2.381 . S
Cd1618 O1627 2.378 . S
O1619 Cd1620 2.385 . S
O1619 C1624 1.255 . S
Cd1620 O1619 2.385 . S
Cd1620 O1621 2.317 . S
O1621 Cd1620 2.317 . S
O1621 C1622 1.232 . S
C1622 O1621 1.232 . S
C1622 O1623 1.218 . S
O1623 C1622 1.218 . S
C1624 O1617 1.275 . S
C1624 O1619 1.255 . S
C1625 O1626 1.258 . S
C1625 O1627 1.256 . S
O1626 Cd1618 2.381 . S
O1626 C1625 1.258 . S
O1627 Cd1618 2.378 . S
O1627 C1625 1.256 . S
O1628 Cd1629 2.300 . S
O1628 C1635 1.275 . S
Cd1629 O1628 2.300 . S
Cd1629 O1637 2.381 . S
Cd1629 O1638 2.378 . S
O1630 Cd1631 2.385 . S
O1630 C1635 1.255 . S
Cd1631 O1630 2.385 . S
Cd1631 O1632 2.317 . S
O1632 Cd1631 2.317 . S
O1632 C1633 1.232 . S
C1633 O1632 1.232 . S
C1633 O1634 1.218 . S
O1634 C1633 1.218 . S
C1635 O1628 1.275 . S
C1635 O1630 1.255 . S
C1636 O1637 1.258 . S
C1636 O1638 1.256 . S
O1637 Cd1629 2.381 . S
O1637 C1636 1.258 . S
O1638 Cd1629 2.378 . S
O1638 C1636 1.256 . S
O1639 Cd1640 2.300 . S
O1639 C1646 1.275 . S
Cd1640 O1639 2.300 . S
Cd1640 O1648 2.381 . S
Cd1640 O1649 2.378 . S
O1641 Cd1642 2.385 . S
O1641 C1646 1.255 . S
Cd1642 O1641 2.385 . S
Cd1642 O1643 2.317 . S
O1643 Cd1642 2.317 . S
O1643 C1644 1.232 . S
C1644 O1643 1.232 . S
C1644 O1645 1.218 . S
O1645 C1644 1.218 . S
C1646 O1639 1.275 . S
C1646 O1641 1.255 . S
C1647 O1648 1.258 . S
C1647 O1649 1.256 . S
O1648 Cd1640 2.381 . S
O1648 C1647 1.258 . S
O1649 Cd1640 2.378 . S
O1649 C1647 1.256 . S
O1650 Cd1651 2.300 . S
O1650 C1657 1.275 . S
Cd1651 O1650 2.300 . S
Cd1651 O1659 2.381 . S
Cd1651 O1660 2.378 . S
O1652 Cd1653 2.385 . S
O1652 C1657 1.255 . S
Cd1653 O1652 2.385 . S
Cd1653 O1654 2.317 . S
O1654 Cd1653 2.317 . S
O1654 C1655 1.232 . S
C1655 O1654 1.232 . S
C1655 O1656 1.218 . S
O1656 C1655 1.218 . S
C1657 O1650 1.275 . S
C1657 O1652 1.255 . S
C1658 O1659 1.258 . S
C1658 O1660 1.256 . S
O1659 Cd1651 2.381 . S
O1659 C1658 1.258 . S
O1660 Cd1651 2.378 . S
O1660 C1658 1.256 . S
O1661 Cd1662 2.300 . S
O1661 C1668 1.275 . S
Cd1662 O1661 2.300 . S
Cd1662 O1670 2.381 . S
Cd1662 O1671 2.378 . S
O1663 Cd1664 2.385 . S
O1663 C1668 1.255 . S
Cd1664 O1663 2.385 . S
Cd1664 O1665 2.317 . S
O1665 Cd1664 2.317 . S
O1665 C1666 1.232 . S
C1666 O1665 1.232 . S
C1666 O1667 1.218 . S
O1667 C1666 1.218 . S
C1668 O1661 1.275 . S
C1668 O1663 1.255 . S
C1669 O1670 1.258 . S
C1669 O1671 1.256 . S
O1670 Cd1662 2.381 . S
O1670 C1669 1.258 . S
O1671 Cd1662 2.378 . S
O1671 C1669 1.256 . S
O1672 Cd1673 2.300 . S
O1672 C1679 1.275 . S
Cd1673 O1672 2.300 . S
Cd1673 O1681 2.381 . S
Cd1673 O1682 2.378 . S
O1674 Cd1675 2.385 . S
O1674 C1679 1.255 . S
Cd1675 O1674 2.385 . S
Cd1675 O1676 2.317 . S
O1676 Cd1675 2.317 . S
O1676 C1677 1.232 . S
C1677 O1676 1.232 . S
C1677 O1678 1.218 . S
O1678 C1677 1.218 . S
C1679 O1672 1.275 . S
C1679 O1674 1.255 . S
C1680 O1681 1.258 . S
C1680 O1682 1.256 . S
O1681 Cd1673 2.381 . S
O1681 C1680 1.258 . S
O1682 Cd1673 2.378 . S
O1682 C1680 1.256 . S
O1683 Cd1684 2.300 . S
O1683 C1690 1.275 . S
Cd1684 O1683 2.300 . S
Cd1684 O1692 2.381 . S
Cd1684 O1693 2.378 . S
O1685 Cd1686 2.385 . S
O1685 C1690 1.255 . S
Cd1686 O1685 2.385 . S
Cd1686 O1687 2.317 . S
O1687 Cd1686 2.317 . S
O1687 C1688 1.232 . S
C1688 O1687 1.232 . S
C1688 O1689 1.218 . S
O1689 C1688 1.218 . S
C1690 O1683 1.275 . S
C1690 O1685 1.255 . S
C1691 O1692 1.258 . S
C1691 O1693 1.256 . S
O1692 Cd1684 2.381 . S
O1692 C1691 1.258 . S
O1693 Cd1684 2.378 . S
O1693 C1691 1.256 . S
O1694 Cd1695 2.300 . S
O1694 C1701 1.275 . S
Cd1695 O1694 2.300 . S
Cd1695 O1703 2.381 . S
Cd1695 O1704 2.378 . S
O1696 Cd1697 2.385 . S
O1696 C1701 1.255 . S
Cd1697 O1696 2.385 . S
Cd1697 O1698 2.317 . S
O1698 Cd1697 2.317 . S
O1698 C1699 1.232 . S
C1699 O1698 1.232 . S
C1699 O1700 1.218 . S
O1700 C1699 1.218 . S
C1701 O1694 1.275 . S
C1701 O1696 1.255 . S
C1702 O1703 1.258 . S
C1702 O1704 1.256 . S
O1703 Cd1695 2.381 . S
O1703 C1702 1.258 . S
O1704 Cd1695 2.378 . S
O1704 C1702 1.256 . S
O1705 Cd1706 2.300 . S
O1705 C1712 1.275 . S
Cd1706 O1705 2.300 . S
Cd1706 O1714 2.381 . S
Cd1706 O1715 2.378 . S
O1707 Cd1708 2.385 . S
O1707 C1712 1.255 . S
Cd1708 O1707 2.385 . S
Cd1708 O1709 2.317 . S
O1709 Cd1708 2.317 . S
O1709 C1710 1.232 . S
C1710 O1709 1.232 . S
C1710 O1711 1.218 . S
O1711 C1710 1.218 . S
C1712 O1705 1.275 . S
C1712 O1707 1.255 . S
C1713 O1714 1.258 . S
C1713 O1715 1.256 . S
O1714 Cd1706 2.381 . S
O1714 C1713 1.258 . S
O1715 Cd1706 2.378 . S
O1715 C1713 1.256 . S
O1716 Cd1717 2.300 . S
O1716 C1723 1.275 . S
Cd1717 O1716 2.300 . S
Cd1717 O1725 2.381 . S
Cd1717 O1726 2.378 . S
O1718 Cd1719 2.385 . S
O1718 C1723 1.255 . S
Cd1719 O1718 2.385 . S
Cd1719 O1720 2.317 . S
O1720 Cd1719 2.317 . S
O1720 C1721 1.232 . S
C1721 O1720 1.232 . S
C1721 O1722 1.218 . S
O1722 C1721 1.218 . S
C1723 O1716 1.275 . S
C1723 O1718 1.255 . S
C1724 O1725 1.258 . S
C1724 O1726 1.256 . S
O1725 Cd1717 2.381 . S
O1725 C1724 1.258 . S
O1726 Cd1717 2.378 . S
O1726 C1724 1.256 . S
O1727 Cd1728 2.300 . S
O1727 C1734 1.275 . S
Cd1728 O1727 2.300 . S
Cd1728 O1736 2.381 . S
Cd1728 O1737 2.378 . S
O1729 Cd1730 2.385 . S
O1729 C1734 1.255 . S
Cd1730 O1729 2.385 . S
Cd1730 O1731 2.317 . S
O1731 Cd1730 2.317 . S
O1731 C1732 1.232 . S
C1732 O1731 1.232 . S
C1732 O1733 1.218 . S
O1733 C1732 1.218 . S
C1734 O1727 1.275 . S
C1734 O1729 1.255 . S
C1735 O1736 1.258 . S
C1735 O1737 1.256 . S
O1736 Cd1728 2.381 . S
O1736 C1735 1.258 . S
O1737 Cd1728 2.378 . S
O1737 C1735 1.256 . S
O1738 Cd1739 2.300 . S
O1738 C1745 1.275 . S
Cd1739 O1738 2.300 . S
Cd1739 O1747 2.381 . S
Cd1739 O1748 2.378 . S
O1740 Cd1741 2.385 . S
O1740 C1745 1.255 . S
Cd1741 O1740 2.385 . S
Cd1741 O1742 2.317 . S
O1742 Cd1741 2.317 . S
O1742 C1743 1.232 . S
C1743 O1742 1.232 . S
C1743 O1744 1.218 . S
O1744 C1743 1.218 . S
C1745 O1738 1.275 . S
C1745 O1740 1.255 . S
C1746 O1747 1.258 . S
C1746 O1748 1.256 . S
O1747 Cd1739 2.381 . S
O1747 C1746 1.258 . S
O1748 Cd1739 2.378 . S
O1748 C1746 1.256 . S
O1749 Cd1750 2.300 . S
O1749 C1756 1.275 . S
Cd1750 O1749 2.300 . S
Cd1750 O1758 2.381 . S
Cd1750 O1759 2.378 . S
O1751 Cd1752 2.385 . S
O1751 C1756 1.255 . S
Cd1752 O1751 2.385 . S
Cd1752 O1753 2.317 . S
O1753 Cd1752 2.317 . S
O1753 C1754 1.232 . S
C1754 O1753 1.232 . S
C1754 O1755 1.218 . S
O1755 C1754 1.218 . S
C1756 O1749 1.275 . S
C1756 O1751 1.255 . S
C1757 O1758 1.258 . S
C1757 O1759 1.256 . S
O1758 Cd1750 2.381 . S
O1758 C1757 1.258 . S
O1759 Cd1750 2.378 . S
O1759 C1757 1.256 . S
O1760 Cd1761 2.300 . S
O1760 C1767 1.275 . S
Cd1761 O1760 2.300 . S
Cd1761 O1769 2.381 . S
Cd1761 O1770 2.378 . S
O1762 Cd1763 2.385 . S
O1762 C1767 1.255 . S
Cd1763 O1762 2.385 . S
Cd1763 O1764 2.317 . S
O1764 Cd1763 2.317 . S
O1764 C1765 1.232 . S
C1765 O1764 1.232 . S
C1765 O1766 1.218 . S
O1766 C1765 1.218 . S
C1767 O1760 1.275 . S
C1767 O1762 1.255 . S
C1768 O1769 1.258 . S
C1768 O1770 1.256 . S
O1769 Cd1761 2.381 . S
O1769 C1768 1.258 . S
O1770 Cd1761 2.378 . S
O1770 C1768 1.256 . S
O1771 Cd1772 2.300 . S
O1771 C1778 1.275 . S
Cd1772 O1771 2.300 . S
Cd1772 O1780 2.381 . S
Cd1772 O1781 2.378 . S
O1773 Cd1774 2.385 . S
O1773 C1778 1.255 . S
Cd1774 O1773 2.385 . S
Cd1774 O1775 2.317 . S
O1775 Cd1774 2.317 . S
O1775 C1776 1.232 . S
C1776 O1775 1.232 . S
C1776 O1777 1.218 . S
O1777 C1776 1.218 . S
C1778 O1771 1.275 . S
C1778 O1773 1.255 . S
C1779 O1780 1.258 . S
C1779 O1781 1.256 . S
O1780 Cd1772 2.381 . S
O1780 C1779 1.258 . S
O1781 Cd1772 2.378 . S
O1781 C1779 1.256 . S
O1782 Cd1783 2.300 . S
O1782 C1789 1.275 . S
Cd1783 O1782 2.300 . S
Cd1783 O1791 2.381 . S
Cd1783 O1792 2.378 . S
O1784 Cd1785 2.385 . S
O1784 C1789 1.255 . S
Cd1785 O1784 2.385 . S
Cd1785 O1786 2.317 . S
O1786 Cd1785 2.317 . S
O1786 C1787 1.232 . S
C1787 O1786 1.232 . S
C1787 O1788 1.218 . S
O1788 C1787 1.218 . S
C1789 O1782 1.275 . S
C1789 O1784 1.255 . S
C1790 O1791 1.258 . S
C1790 O1792 1.256 . S
O1791 Cd1783 2.381 . S
O1791 C1790 1.258 . S
O1792 Cd1783 2.378 . S
O1792 C1790 1.256 . S
O1793 Cd1794 2.300 . S
O1793 C1800 1.275 . S
Cd1794 O1793 2.300 . S
Cd1794 O1802 2.381 . S
Cd1794 O1803 2.378 . S
O1795 Cd1796 2.385 . S
O1795 C1800 1.255 . S
Cd1796 O1795 2.385 . S
Cd1796 O1797 2.317 . S
O1797 Cd1796 2.317 . S
O1797 C1798 1.232 . S
C1798 O1797 1.232 . S
C1798 O1799 1.218 . S
O1799 C1798 1.218 . S
C1800 O1793 1.275 . S
C1800 O1795 1.255 . S
C1801 O1802 1.258 . S
C1801 O1803 1.256 . S
O1802 Cd1794 2.381 . S
O1802 C1801 1.258 . S
O1803 Cd1794 2.378 . S
O1803 C1801 1.256 . S
O1804 Cd1805 2.300 . S
O1804 C1811 1.275 . S
Cd1805 O1804 2.300 . S
Cd1805 O1813 2.381 . S
Cd1805 O1814 2.378 . S
O1806 Cd1807 2.385 . S
O1806 C1811 1.255 . S
Cd1807 O1806 2.385 . S
Cd1807 O1808 2.317 . S
O1808 Cd1807 2.317 . S
O1808 C1809 1.232 . S
C1809 O1808 1.232 . S
C1809 O1810 1.218 . S
O1810 C1809 1.218 . S
C1811 O1804 1.275 . S
C1811 O1806 1.255 . S
C1812 O1813 1.258 . S
C1812 O1814 1.256 . S
O1813 Cd1805 2.381 . S
O1813 C1812 1.258 . S
O1814 Cd1805 2.378 . S
O1814 C1812 1.256 . S
O1815 Cd1816 2.300 . S
O1815 C1822 1.275 . S
Cd1816 O1815 2.300 . S
Cd1816 O1824 2.381 . S
Cd1816 O1825 2.378 . S
O1817 Cd1818 2.385 . S
O1817 C1822 1.255 . S
Cd1818 O1817 2.385 . S
Cd1818 O1819 2.317 . S
O1819 Cd1818 2.317 . S
O1819 C1820 1.232 . S
C1820 O1819 1.232 . S
C1820 O1821 1.218 . S
O1821 C1820 1.218 . S
C1822 O1815 1.275 . S
C1822 O1817 1.255 . S
C1823 O1824 1.258 . S
C1823 O1825 1.256 . S
O1824 Cd1816 2.381 . S
O1824 C1823 1.258 . S
O1825 Cd1816 2.378 . S
O1825 C1823 1.256 . S
O1826 Cd1827 2.300 . S
O1826 C1833 1.275 . S
Cd1827 O1826 2.300 . S
Cd1827 O1835 2.381 . S
Cd1827 O1836 2.378 . S
O1828 Cd1829 2.385 . S
O1828 C1833 1.255 . S
Cd1829 O1828 2.385 . S
Cd1829 O1830 2.317 . S
O1830 Cd1829 2.317 . S
O1830 C1831 1.232 . S
C1831 O1830 1.232 . S
C1831 O1832 1.218 . S
O1832 C1831 1.218 . S
C1833 O1826 1.275 . S
C1833 O1828 1.255 . S
C1834 O1835 1.258 . S
C1834 O1836 1.256 . S
O1835 Cd1827 2.381 . S
O1835 C1834 1.258 . S
O1836 Cd1827 2.378 . S
O1836 C1834 1.256 . S
O1837 Cd1838 2.300 . S
O1837 C1844 1.275 . S
Cd1838 O1837 2.300 . S
Cd1838 O1846 2.381 . S
Cd1838 O1847 2.378 . S
O1839 Cd1840 2.385 . S
O1839 C1844 1.255 . S
Cd1840 O1839 2.385 . S
Cd1840 O1841 2.317 . S
O1841 Cd1840 2.317 . S
O1841 C1842 1.232 . S
C1842 O1841 1.232 . S
C1842 O1843 1.218 . S
O1843 C1842 1.218 . S
C1844 O1837 1.275 . S
C1844 O1839 1.255 . S
C1845 O1846 1.258 . S
C1845 O1847 1.256 . S
O1846 Cd1838 2.381 . S
O1846 C1845 1.258 . S
O1847 Cd1838 2.378 . S
O1847 C1845 1.256 . S
O1848 Cd1849 2.300 . S
O1848 C1855 1.275 . S
Cd1849 O1848 2.300 . S
Cd1849 O1857 2.381 . S
Cd1849 O1858 2.378 . S
O1850 Cd1851 2.385 . S
O1850 C1855 1.255 . S
Cd1851 O1850 2.385 . S
Cd1851 O1852 2.317 . S
O1852 Cd1851 2.317 . S
O1852 C1853 1.232 . S
C1853 O1852 1.232 . S
C1853 O1854 1.218 . S
O1854 C1853 1.218 . S
C1855 O1848 1.275 . S
C1855 O1850 1.255 . S
C1856 O1857 1.258 . S
C1856 O1858 1.256 . S
O1857 Cd1849 2.381 . S
O1857 C1856 1.258 . S
O1858 Cd1849 2.378 . S
O1858 C1856 1.256 . S
O1859 Cd1860 2.300 . S
O1859 C1866 1.275 . S
Cd1860 O1859 2.300 . S
Cd1860 O1868 2.381 . S
Cd1860 O1869 2.378 . S
O1861 Cd1862 2.385 . S
O1861 C1866 1.255 . S
Cd1862 O1861 2.385 . S
Cd1862 O1863 2.317 . S
O1863 Cd1862 2.317 . S
O1863 C1864 1.232 . S
C1864 O1863 1.232 . S
C1864 O1865 1.218 . S
O1865 C1864 1.218 . S
C1866 O1859 1.275 . S
C1866 O1861 1.255 . S
C1867 O1868 1.258 . S
C1867 O1869 1.256 . S
O1868 Cd1860 2.381 . S
O1868 C1867 1.258 . S
O1869 Cd1860 2.378 . S
O1869 C1867 1.256 . S
O1870 Cd1871 2.300 . S
O1870 C1877 1.275 . S
Cd1871 O1870 2.300 . S
Cd1871 O1879 2.381 . S
Cd1871 O1880 2.378 . S
O1872 Cd1873 2.385 . S
O1872 C1877 1.255 . S
Cd1873 O1872 2.385 . S
Cd1873 O1874 2.317 . S
O1874 Cd1873 2.317 . S
O1874 C1875 1.232 . S
C1875 O1874 1.232 . S
C1875 O1876 1.218 . S
O1876 C1875 1.218 . S
C1877 O1870 1.275 . S
C1877 O1872 1.255 . S
C1878 O1879 1.258 . S
C1878 O1880 1.256 . S
O1879 Cd1871 2.381 . S
O1879 C1878 1.258 . S
O1880 Cd1871 2.378 . S
O1880 C1878 1.256 . S
O1881 Cd1882 2.300 . S
O1881 C1888 1.275 . S
Cd1882 O1881 2.300 . S
Cd1882 O1890 2.381 . S
Cd1882 O1891 2.378 . S
O1883 Cd1884 2.385 . S
O1883 C1888 1.255 . S
Cd1884 O1883 2.385 . S
Cd1884 O1885 2.317 . S
O1885 Cd1884 2.317 . S
O1885 C1886 1.232 . S
C1886 O1885 1.232 . S
C1886 O1887 1.218 . S
O1887 C1886 1.218 . S
C1888 O1881 1.275 . S
C1888 O1883 1.255 . S
C1889 O1890 1.258 . S
C1889 O1891 1.256 . S
O1890 Cd1882 2.381 . S
O1890 C1889 1.258 . S
O1891 Cd1882 2.378 . S
O1891 C1889 1.256 . S
O1892 Cd1893 2.300 . S
O1892 C1899 1.275 . S
Cd1893 O1892 2.300 . S
Cd1893 O1901 2.381 . S
Cd1893 O1902 2.378 . S
O1894 Cd1895 2.385 . S
O1894 C1899 1.255 . S
Cd1895 O1894 2.385 . S
Cd1895 O1896 2.317 . S
O1896 Cd1895 2.317 . S
O1896 C1897 1.232 . S
C1897 O1896 1.232 . S
C1897 O1898 1.218 . S
O1898 C1897 1.218 . S
C1899 O1892 1.275 . S
C1899 O1894 1.255 . S
C1900 O1901 1.258 . S
C1900 O1902 1.256 . S
O1901 Cd1893 2.381 . S
O1901 C1900 1.258 . S
O1902 Cd1893 2.378 . S
O1902 C1900 1.256 . S
O1903 Cd1904 2.300 . S
O1903 C1910 1.275 . S
Cd1904 O1903 2.300 . S
Cd1904 O1912 2.381 . S
Cd1904 O1913 2.378 . S
O1905 Cd1906 2.385 . S
O1905 C1910 1.255 . S
Cd1906 O1905 2.385 . S
Cd1906 O1907 2.317 . S
O1907 Cd1906 2.317 . S
O1907 C1908 1.232 . S
C1908 O1907 1.232 . S
C1908 O1909 1.218 . S
O1909 C1908 1.218 . S
C1910 O1903 1.275 . S
C1910 O1905 1.255 . S
C1911 O1912 1.258 . S
C1911 O1913 1.256 . S
O1912 Cd1904 2.381 . S
O1912 C1911 1.258 . S
O1913 Cd1904 2.378 . S
O1913 C1911 1.256 . S
O1914 Cd1915 2.300 . S
O1914 C1921 1.275 . S
Cd1915 O1914 2.300 . S
Cd1915 O1923 2.381 . S
Cd1915 O1924 2.378 . S
O1916 Cd1917 2.385 . S
O1916 C1921 1.255 . S
Cd1917 O1916 2.385 . S
Cd1917 O1918 2.317 . S
O1918 Cd1917 2.317 . S
O1918 C1919 1.232 . S
C1919 O1918 1.232 . S
C1919 O1920 1.218 . S
O1920 C1919 1.218 . S
C1921 O1914 1.275 . S
C1921 O1916 1.255 . S
C1922 O1923 1.258 . S
C1922 O1924 1.256 . S
O1923 Cd1915 2.381 . S
O1923 C1922 1.258 . S
O1924 Cd1915 2.378 . S
O1924 C1922 1.256 . S
O1925 Cd1926 2.300 . S
O1925 C1932 1.275 . S
Cd1926 O1925 2.300 . S
Cd1926 O1934 2.381 . S
Cd1926 O1935 2.378 . S
O1927 Cd1928 2.385 . S
O1927 C1932 1.255 . S
Cd1928 O1927 2.385 . S
Cd1928 O1929 2.317 . S
O1929 Cd1928 2.317 . S
O1929 C1930 1.232 . S
C1930 O1929 1.232 . S
C1930 O1931 1.218 . S
O1931 C1930 1.218 . S
C1932 O1925 1.275 . S
C1932 O1927 1.255 . S
C1933 O1934 1.258 . S
C1933 O1935 1.256 . S
O1934 Cd1926 2.381 . S
O1934 C1933 1.258 . S
O1935 Cd1926 2.378 . S
O1935 C1933 1.256 . S
O1936 Cd1937 2.300 . S
O1936 C1943 1.275 . S
Cd1937 O1936 2.300 . S
Cd1937 O1945 2.381 . S
Cd1937 O1946 2.378 . S
O1938 Cd1939 2.385 . S
O1938 C1943 1.255 . S
Cd1939 O1938 2.385 . S
Cd1939 O1940 2.317 . S
O1940 Cd1939 2.317 . S
O1940 C1941 1.232 . S
C1941 O1940 1.232 . S
C1941 O1942 1.218 . S
O1942 C1941 1.218 . S
C1943 O1936 1.275 . S
C1943 O1938 1.255 . S
C1944 O1945 1.258 . S
C1944 O1946 1.256 . S
O1945 Cd1937 2.381 . S
O1945 C1944 1.258 . S
O1946 Cd1937 2.378 . S
O1946 C1944 1.256 . S
O1947 Cd1948 2.300 . S
O1947 C1954 1.275 . S
Cd1948 O1947 2.300 . S
Cd1948 O1956 2.381 . S
Cd1948 O1957 2.378 . S
O1949 Cd1950 2.385 . S
O1949 C1954 1.255 . S
Cd1950 O1949 2.385 . S
Cd1950 O1951 2.317 . S
O1951 Cd1950 2.317 . S
O1951 C1952 1.232 . S
C1952 O1951 1.232 . S
C1952 O1953 1.218 . S
O1953 C1952 1.218 . S
C1954 O1947 1.275 . S
C1954 O1949 1.255 . S
C1955 O1956 1.258 . S
C1955 O1957 1.256 . S
O1956 Cd1948 2.381 . S
O1956 C1955 1.258 . S
O1957 Cd1948 2.378 . S
O1957 C1955 1.256 . S
O1958 Cd1959 2.300 . S
O1958 C1965 1.275 . S
Cd1959 O1958 2.300 . S
Cd1959 O1967 2.381 . S
Cd1959 O1968 2.378 . S
O1960 Cd1961 2.385 . S
O1960 C1965 1.255 . S
Cd1961 O1960 2.385 . S
Cd1961 O1962 2.317 . S
O1962 Cd1961 2.317 . S
O1962 C1963 1.232 . S
C1963 O1962 1.232 . S
C1963 O1964 1.218 . S
O1964 C1963 1.218 . S
C1965 O1958 1.275 . S
C1965 O1960 1.255 . S
C1966 O1967 1.258 . S
C1966 O1968 1.256 . S
O1967 Cd1959 2.381 . S
O1967 C1966 1.258 . S
O1968 Cd1959 2.378 . S
O1968 C1966 1.256 . S
O1969 Cd1970 2.300 . S
O1969 C1976 1.275 . S
Cd1970 O1969 2.300 . S
Cd1970 O1978 2.381 . S
Cd1970 O1979 2.378 . S
O1971 Cd1972 2.385 . S
O1971 C1976 1.255 . S
Cd1972 O1971 2.385 . S
Cd1972 O1973 2.317 . S
O1973 Cd1972 2.317 . S
O1973 C1974 1.232 . S
C1974 O1973 1.232 . S
C1974 O1975 1.218 . S
O1975 C1974 1.218 . S
C1976 O1969 1.275 . S
C1976 O1971 1.255 . S
C1977 O1978 1.258 . S
C1977 O1979 1.256 . S
O1978 Cd1970 2.381 . S
O1978 C1977 1.258 . S
O1979 Cd1970 2.378 . S
O1979 C1977 1.256 . S
O1980 Cd1981 2.300 . S
O1980 C1987 1.275 . S
Cd1981 O1980 2.300 . S
Cd1981 O1989 2.381 . S
Cd1981 O1990 2.378 . S
O1982 Cd1983 2.385 . S
O1982 C1987 1.255 . S
Cd1983 O1982 2.385 . S
Cd1983 O1984 2.317 . S
O1984 Cd1983 2.317 . S
O1984 C1985 1.232 . S
C1985 O1984 1.232 . S
C1985 O1986 1.218 . S
O1986 C1985 1.218 . S
C1987 O1980 1.275 . S
C1987 O1982 1.255 . S
C1988 O1989 1.258 . S
C1988 O1990 1.256 . S
O1989 Cd1981 2.381 . S
O1989 C1988 1.258 . S
O1990 Cd1981 2.378 . S
O1990 C1988 1.256 . S
O1991 Cd1992 2.300 . S
O1991 C1998 1.275 . S
Cd1992 O1991 2.300 . S
Cd1992 O2000 2.381 . S
Cd1992 O2001 2.378 . S
O1993 Cd1994 2.385 . S
O1993 C1998 1.255 . S
Cd1994 O1993 2.385 . S
Cd1994 O1995 2.317 . S
O1995 Cd1994 2.317 . S
O1995 C1996 1.232 . S
C1996 O1995 1.232 . S
C1996 O1997 1.218 . S
O1997 C1996 1.218 . S
C1998 O1991 1.275 . S
C1998 O1993 1.255 . S
C1999 O2000 1.258 . S
C1999 O2001 1.256 . S
O2000 Cd1992 2.381 . S
O2000 C1999 1.258 . S
O2001 Cd1992 2.378 . S
O2001 C1999 1.256 . S
O2002 Cd2003 2.300 . S
O2002 C2009 1.275 . S
Cd2003 O2002 2.300 . S
Cd2003 O2011 2.381 . S
Cd2003 O2012 2.378 . S
O2004 Cd2005 2.385 . S
O2004 C2009 1.255 . S
Cd2005 O2004 2.385 . S
Cd2005 O2006 2.317 . S
O2006 Cd2005 2.317 . S
O2006 C2007 1.232 . S
C2007 O2006 1.232 . S
C2007 O2008 1.218 . S
O2008 C2007 1.218 . S
C2009 O2002 1.275 . S
C2009 O2004 1.255 . S
C2010 O2011 1.258 . S
C2010 O2012 1.256 . S
O2011 Cd2003 2.381 . S
O2011 C2010 1.258 . S
O2012 Cd2003 2.378 . S
O2012 C2010 1.256 . S
O2013 Cd2014 2.300 . S
O2013 C2020 1.275 . S
Cd2014 O2013 2.300 . S
Cd2014 O2022 2.381 . S
Cd2014 O2023 2.378 . S
O2015 Cd2016 2.385 . S
O2015 C2020 1.255 . S
Cd2016 O2015 2.385 . S
Cd2016 O2017 2.317 . S
O2017 Cd2016 2.317 . S
O2017 C2018 1.232 . S
C2018 O2017 1.232 . S
C2018 O2019 1.218 . S
O2019 C2018 1.218 . S
C2020 O2013 1.275 . S
C2020 O2015 1.255 . S
C2021 O2022 1.258 . S
C2021 O2023 1.256 . S
O2022 Cd2014 2.381 . S
O2022 C2021 1.258 . S
O2023 Cd2014 2.378 . S
O2023 C2021 1.256 . S
O2024 Cd2025 2.300 . S
O2024 C2031 1.275 . S
Cd2025 O2024 2.300 . S
Cd2025 O2033 2.381 . S
Cd2025 O2034 2.378 . S
O2026 Cd2027 2.385 . S
O2026 C2031 1.255 . S
Cd2027 O2026 2.385 . S
Cd2027 O2028 2.317 . S
O2028 Cd2027 2.317 . S
O2028 C2029 1.232 . S
C2029 O2028 1.232 . S
C2029 O2030 1.218 . S
O2030 C2029 1.218 . S
C2031 O2024 1.275 . S
C2031 O2026 1.255 . S
C2032 O2033 1.258 . S
C2032 O2034 1.256 . S
O2033 Cd2025 2.381 . S
O2033 C2032 1.258 . S
O2034 Cd2025 2.378 . S
O2034 C2032 1.256 . S
O2035 Cd2036 2.300 . S
O2035 C2042 1.275 . S
Cd2036 O2035 2.300 . S
Cd2036 O2044 2.381 . S
Cd2036 O2045 2.378 . S
O2037 Cd2038 2.385 . S
O2037 C2042 1.255 . S
Cd2038 O2037 2.385 . S
Cd2038 O2039 2.317 . S
O2039 Cd2038 2.317 . S
O2039 C2040 1.232 . S
C2040 O2039 1.232 . S
C2040 O2041 1.218 . S
O2041 C2040 1.218 . S
C2042 O2035 1.275 . S
C2042 O2037 1.255 . S
C2043 O2044 1.258 . S
C2043 O2045 1.256 . S
O2044 Cd2036 2.381 . S
O2044 C2043 1.258 . S
O2045 Cd2036 2.378 . S
O2045 C2043 1.256 . S
O2046 Cd2047 2.300 . S
O2046 C2053 1.275 . S
Cd2047 O2046 2.300 . S
Cd2047 O2055 2.381 . S
Cd2047 O2056 2.378 . S
O2048 Cd2049 2.385 . S
O2048 C2053 1.255 . S
Cd2049 O2048 2.385 . S
Cd2049 O2050 2.317 . S
O2050 Cd2049 2.317 . S
O2050 C2051 1.232 . S
C2051 O2050 1.232 . S
C2051 O2052 1.218 . S
O2052 C2051 1.218 . S
C2053 O2046 1.275 . S
C2053 O2048 1.255 . S
C2054 O2055 1.258 . S
C2054 O2056 1.256 . S
O2055 Cd2047 2.381 . S
O2055 C2054 1.258 . S
O2056 Cd2047 2.378 . S
O2056 C2054 1.256 . S
O2057 Cd2058 2.300 . S
O2057 C2064 1.275 . S
Cd2058 O2057 2.300 . S
Cd2058 O2066 2.381 . S
Cd2058 O2067 2.378 . S
O2059 Cd2060 2.385 . S
O2059 C2064 1.255 . S
Cd2060 O2059 2.385 . S
Cd2060 O2061 2.317 . S
O2061 Cd2060 2.317 . S
O2061 C2062 1.232 . S
C2062 O2061 1.232 . S
C2062 O2063 1.218 . S
O2063 C2062 1.218 . S
C2064 O2057 1.275 . S
C2064 O2059 1.255 . S
C2065 O2066 1.258 . S
C2065 O2067 1.256 . S
O2066 Cd2058 2.381 . S
O2066 C2065 1.258 . S
O2067 Cd2058 2.378 . S
O2067 C2065 1.256 . S
O2068 Cd2069 2.300 . S
O2068 C2075 1.275 . S
Cd2069 O2068 2.300 . S
Cd2069 O2077 2.381 . S
Cd2069 O2078 2.378 . S
O2070 Cd2071 2.385 . S
O2070 C2075 1.255 . S
Cd2071 O2070 2.385 . S
Cd2071 O2072 2.317 . S
O2072 Cd2071 2.317 . S
O2072 C2073 1.232 . S
C2073 O2072 1.232 . S
C2073 O2074 1.218 . S
O2074 C2073 1.218 . S
C2075 O2068 1.275 . S
C2075 O2070 1.255 . S
C2076 O2077 1.258 . S
C2076 O2078 1.256 . S
O2077 Cd2069 2.381 . S
O2077 C2076 1.258 . S
O2078 Cd2069 2.378 . S
O2078 C2076 1.256 . S
O2079 Cd2080 2.300 . S
O2079 C2086 1.275 . S
Cd2080 O2079 2.300 . S
Cd2080 O2088 2.381 . S
Cd2080 O2089 2.378 . S
O2081 Cd2082 2.385 . S
O2081 C2086 1.255 . S
Cd2082 O2081 2.385 . S
Cd2082 O2083 2.317 . S
O2083 Cd2082 2.317 . S
O2083 C2084 1.232 . S
C2084 O2083 1.232 . S
C2084 O2085 1.218 . S
O2085 C2084 1.218 . S
C2086 O2079 1.275 . S
C2086 O2081 1.255 . S
C2087 O2088 1.258 . S
C2087 O2089 1.256 . S
O2088 Cd2080 2.381 . S
O2088 C2087 1.258 . S
O2089 Cd2080 2.378 . S
O2089 C2087 1.256 . S
O2090 Cd2091 2.300 . S
O2090 C2097 1.275 . S
Cd2091 O2090 2.300 . S
Cd2091 O2099 2.381 . S
Cd2091 O2100 2.378 . S
O2092 Cd2093 2.385 . S
O2092 C2097 1.255 . S
Cd2093 O2092 2.385 . S
Cd2093 O2094 2.317 . S
O2094 Cd2093 2.317 . S
O2094 C2095 1.232 . S
C2095 O2094 1.232 . S
C2095 O2096 1.218 . S
O2096 C2095 1.218 . S
C2097 O2090 1.275 . S
C2097 O2092 1.255 . S
C2098 O2099 1.258 . S
C2098 O2100 1.256 . S
O2099 Cd2091 2.381 . S
O2099 C2098 1.258 . S
O2100 Cd2091 2.378 . S
O2100 C2098 1.256 . S
O2101 Cd2102 2.300 . S
O2101 C2108 1.275 . S
Cd2102 O2101 2.300 . S
Cd2102 O2110 2.381 . S
Cd2102 O2111 2.378 . S
O2103 Cd2104 2.385 . S
O2103 C2108 1.255 . S
Cd2104 O2103 2.385 . S
Cd2104 O2105 2.317 . S
O2105 Cd2104 2.317 . S
O2105 C2106 1.232 . S
C2106 O2105 1.232 . S
C2106 O2107 1.218 . S
O2107 C2106 1.218 . S
C2108 O2101 1.275 . S
C2108 O2103 1.255 . S
C2109 O2110 1.258 . S
C2109 O2111 1.256 . S
O2110 Cd2102 2.381 . S
O2110 C2109 1.258 . S
O2111 Cd2102 2.378 . S
O2111 C2109 1.256 . S
C2112 C2113 1.369 . S
C2112 C2114 1.419 . S
C2112 H2116 0.930 . S
C2113 C2112 1.369 . S
C2113 C2122 1.429 . S
C2114 C2112 1.419 . S
C2114 C2115 1.359 1_455 S
C2114 H2117 0.929 1_455 S
C2115 C2114 1.359 1_655 S
C2115 C2121 1.356 1_655 S
H2116 C2112 0.930 . S
H2117 C2114 0.929 1_655 S
S2118 N2119 1.613 . S
S2118 N2120 1.610 . S
N2119 S2118 1.613 . S
N2119 C2122 1.350 . S
N2120 S2118 1.610 . S
N2120 C2121 1.351 . S
C2121 C2115 1.356 1_455 S
C2121 N2120 1.351 . S
C2121 C2122 1.434 . S
C2122 C2113 1.429 . S
C2122 N2119 1.350 . S
C2122 C2121 1.434 . S
C2123 C2124 1.369 . S
C2123 C2125 1.419 . S
C2123 H2127 0.930 . S
C2124 C2123 1.369 . S
C2124 C2133 1.429 . S
C2125 C2123 1.419 . S
C2125 C2126 1.363 . S
C2125 H2128 0.929 . S
C2126 C2125 1.363 . S
C2126 C2132 1.428 . S
H2127 C2123 0.930 . S
H2128 C2125 0.929 . S
S2129 N2130 1.613 . S
S2129 N2131 1.610 . S
N2130 S2129 1.613 . S
N2130 C2133 1.350 . S
N2131 S2129 1.610 . S
N2131 C2132 1.351 . S
C2132 C2126 1.428 . S
C2132 N2131 1.351 . S
C2132 C2133 1.434 . S
C2133 C2124 1.429 . S
C2133 N2130 1.350 . S
C2133 C2132 1.434 . S
C2134 C2135 1.369 . S
C2134 C2136 1.419 . S
C2134 H2138 0.930 . S
C2135 C2134 1.369 . S
C2135 C2144 1.429 . S
C2136 C2134 1.419 . S
C2136 C2137 1.363 . S
C2136 H2139 0.929 . S
C2137 C2136 1.363 . S
C2137 C2143 1.428 . S
H2138 C2134 0.930 . S
H2139 C2136 0.929 . S
S2140 N2141 1.613 . S
S2140 N2142 1.610 . S
N2141 S2140 1.613 . S
N2141 C2144 1.350 . S
N2142 S2140 1.610 . S
N2142 C2143 1.351 . S
C2143 C2137 1.428 . S
C2143 N2142 1.351 . S
C2143 C2144 1.434 . S
C2144 C2135 1.429 . S
C2144 N2141 1.350 . S
C2144 C2143 1.434 . S
C2145 C2146 1.369 . S
C2145 C2147 1.419 . S
C2145 H2149 0.930 . S
C2146 C2145 1.369 . S
C2146 C2155 1.429 . S
C2147 C2145 1.419 . S
C2147 C2148 1.363 . S
C2147 H2150 0.929 . S
C2148 C2147 1.363 . S
C2148 C2154 1.428 . S
H2149 C2145 0.930 . S
H2150 C2147 0.929 . S
S2151 N2152 1.613 . S
S2151 N2153 1.610 . S
N2152 S2151 1.613 . S
N2152 C2155 1.350 . S
N2153 S2151 1.610 . S
N2153 C2154 1.351 . S
C2154 C2148 1.428 . S
C2154 N2153 1.351 . S
C2154 C2155 1.434 . S
C2155 C2146 1.429 . S
C2155 N2152 1.350 . S
C2155 C2154 1.434 . S
C2156 C2157 1.369 . S
C2156 C2158 1.419 . S
C2156 H2160 0.930 . S
C2157 C2156 1.369 . S
C2157 C2166 1.429 . S
C2158 C2156 1.419 . S
C2158 C2159 1.331 1_455 S
C2158 H2161 0.917 1_455 S
C2159 C2158 1.331 1_655 S
C2159 C2165 1.382 1_655 S
H2160 C2156 0.930 . S
H2161 C2158 0.917 1_655 S
S2162 N2163 1.613 . S
S2162 N2164 1.610 . S
N2163 S2162 1.613 . S
N2163 C2166 1.350 . S
N2164 S2162 1.610 . S
N2164 C2165 1.351 . S
C2165 C2159 1.382 1_455 S
C2165 N2164 1.351 . S
C2165 C2166 1.434 . S
C2166 C2157 1.429 . S
C2166 N2163 1.350 . S
C2166 C2165 1.434 . S
C2167 C2168 1.369 . S
C2167 C2169 1.419 . S
C2167 H2171 0.930 . S
C2168 C2167 1.369 . S
C2168 C2177 1.429 . S
C2169 C2167 1.419 . S
C2169 C2170 1.363 . S
C2169 H2172 0.929 . S
C2170 C2169 1.363 . S
C2170 C2176 1.428 . S
H2171 C2167 0.930 . S
H2172 C2169 0.929 . S
S2173 N2174 1.613 . S
S2173 N2175 1.610 . S
N2174 S2173 1.613 . S
N2174 C2177 1.350 . S
N2175 S2173 1.610 . S
N2175 C2176 1.351 . S
C2176 C2170 1.428 . S
C2176 N2175 1.351 . S
C2176 C2177 1.434 . S
C2177 C2168 1.429 . S
C2177 N2174 1.350 . S
C2177 C2176 1.434 . S
C2178 C2179 1.369 . S
C2178 C2180 1.419 . S
C2178 H2182 0.930 . S
C2179 C2178 1.369 . S
C2179 C2188 1.429 . S
C2180 C2178 1.419 . S
C2180 C2181 1.363 . S
C2180 H2183 0.929 . S
C2181 C2180 1.363 . S
C2181 C2187 1.428 . S
H2182 C2178 0.930 . S
H2183 C2180 0.929 . S
S2184 N2185 1.613 . S
S2184 N2186 1.610 . S
N2185 S2184 1.613 . S
N2185 C2188 1.350 . S
N2186 S2184 1.610 . S
N2186 C2187 1.351 . S
C2187 C2181 1.428 . S
C2187 N2186 1.351 . S
C2187 C2188 1.434 . S
C2188 C2179 1.429 . S
C2188 N2185 1.350 . S
C2188 C2187 1.434 . S
C2189 C2190 1.369 . S
C2189 C2191 1.419 . S
C2189 H2193 0.930 . S
C2190 C2189 1.369 . S
C2190 C2199 1.429 . S
C2191 C2189 1.419 . S
C2191 C2192 1.363 . S
C2191 H2194 0.929 . S
C2192 C2191 1.363 . S
C2192 C2198 1.428 . S
H2193 C2189 0.930 . S
H2194 C2191 0.929 . S
S2195 N2196 1.613 . S
S2195 N2197 1.610 . S
N2196 S2195 1.613 . S
N2196 C2199 1.350 . S
N2197 S2195 1.610 . S
N2197 C2198 1.351 . S
C2198 C2192 1.428 . S
C2198 N2197 1.351 . S
C2198 C2199 1.434 . S
C2199 C2190 1.429 . S
C2199 N2196 1.350 . S
C2199 C2198 1.434 . S
C2200 C2201 1.369 . S
C2200 C2202 1.419 . S
C2200 H2204 0.930 . S
C2201 C2200 1.369 . S
C2201 C2210 1.429 . S
C2202 C2200 1.419 . S
C2202 C2203 1.277 1_545 S
C2202 H2205 0.929 . S
C2203 C2202 1.277 1_565 S
C2203 C2209 1.428 . S
H2204 C2200 0.930 . S
H2205 C2202 0.929 . S
S2206 N2207 1.613 1_565 S
S2206 N2208 1.610 . S
N2207 S2206 1.613 1_545 S
N2207 C2210 1.350 . S
N2208 S2206 1.610 . S
N2208 C2209 1.401 . S
C2209 C2203 1.428 . S
C2209 N2208 1.401 . S
C2209 C2210 1.380 1_565 S
C2210 C2201 1.429 . S
C2210 N2207 1.350 . S
C2210 C2209 1.380 1_545 S
C2211 C2212 1.369 . S
C2211 C2213 1.419 . S
C2211 H2215 0.930 . S
C2212 C2211 1.369 . S
C2212 C2221 1.429 . S
C2213 C2211 1.419 . S
C2213 C2214 1.363 . S
C2213 H2216 0.929 . S
C2214 C2213 1.363 . S
C2214 C2220 1.428 . S
H2215 C2211 0.930 . S
H2216 C2213 0.929 . S
S2217 N2218 1.613 . S
S2217 N2219 1.610 . S
N2218 S2217 1.613 . S
N2218 C2221 1.350 . S
N2219 S2217 1.610 . S
N2219 C2220 1.351 . S
C2220 C2214 1.428 . S
C2220 N2219 1.351 . S
C2220 C2221 1.434 . S
C2221 C2212 1.429 . S
C2221 N2218 1.350 . S
C2221 C2220 1.434 . S
C2222 C2223 1.369 . S
C2222 C2224 1.419 . S
C2222 H2226 0.930 . S
C2223 C2222 1.369 . S
C2223 C2232 1.429 . S
C2224 C2222 1.419 . S
C2224 C2225 1.276 1_565 S
C2224 H2227 0.929 . S
C2225 C2224 1.276 1_545 S
C2225 C2231 1.428 . S
H2226 C2222 0.930 . S
H2227 C2224 0.929 . S
S2228 N2229 1.613 1_545 S
S2228 N2230 1.610 . S
N2229 S2228 1.613 1_565 S
N2229 C2232 1.350 . S
N2230 S2228 1.610 . S
N2230 C2231 1.404 . S
C2231 C2225 1.428 . S
C2231 N2230 1.404 . S
C2231 C2232 1.377 1_545 S
C2232 C2223 1.429 . S
C2232 N2229 1.350 . S
C2232 C2231 1.377 1_565 S
C2233 C2234 1.369 . S
C2233 C2235 1.419 . S
C2233 H2237 0.930 . S
C2234 C2233 1.369 . S
C2234 C2243 1.429 . S
C2235 C2233 1.419 . S
C2235 C2236 1.363 . S
C2235 H2238 0.929 . S
C2236 C2235 1.363 . S
C2236 C2242 1.428 . S
H2237 C2233 0.930 . S
H2238 C2235 0.929 . S
S2239 N2240 1.613 . S
S2239 N2241 1.610 . S
N2240 S2239 1.613 . S
N2240 C2243 1.350 . S
N2241 S2239 1.610 . S
N2241 C2242 1.351 . S
C2242 C2236 1.428 . S
C2242 N2241 1.351 . S
C2242 C2243 1.434 . S
C2243 C2234 1.429 . S
C2243 N2240 1.350 . S
C2243 C2242 1.434 . S
C2244 C2245 1.369 . S
C2244 C2246 1.419 . S
C2244 H2248 0.930 . S
C2245 C2244 1.369 . S
C2245 C2254 1.429 . S
C2246 C2244 1.419 . S
C2246 C2247 1.334 1_565 S
C2246 H2249 0.929 1_565 S
C2247 C2246 1.334 1_545 S
C2247 C2253 1.376 1_545 S
H2248 C2244 0.930 . S
H2249 C2246 0.929 1_545 S
S2250 N2251 1.613 . S
S2250 N2252 1.610 . S
N2251 S2250 1.613 . S
N2251 C2254 1.350 . S
N2252 S2250 1.610 . S
N2252 C2253 1.351 . S
C2253 C2247 1.376 1_565 S
C2253 N2252 1.351 . S
C2253 C2254 1.434 . S
C2254 C2245 1.429 . S
C2254 N2251 1.350 . S
C2254 C2253 1.434 . S
C2255 C2256 1.369 . S
C2255 C2257 1.419 . S
C2255 H2259 0.930 . S
C2256 C2255 1.369 . S
C2256 C2265 1.429 . S
C2257 C2255 1.419 . S
C2257 C2258 1.363 . S
C2257 H2260 0.929 . S
C2258 C2257 1.363 . S
C2258 C2264 1.428 . S
H2259 C2255 0.930 . S
H2260 C2257 0.929 . S
S2261 N2262 1.613 . S
S2261 N2263 1.610 . S
N2262 S2261 1.613 . S
N2262 C2265 1.350 . S
N2263 S2261 1.610 . S
N2263 C2264 1.351 . S
C2264 C2258 1.428 . S
C2264 N2263 1.351 . S
C2264 C2265 1.434 . S
C2265 C2256 1.429 . S
C2265 N2262 1.350 . S
C2265 C2264 1.434 . S
C2266 C2267 1.369 . S
C2266 C2268 1.487 . S
C2266 H2270 0.930 . S
C2267 C2266 1.369 . S
C2267 C2276 1.429 . S
C2268 C2266 1.487 . S
C2268 C2269 1.350 1_545 S
C2268 H2271 0.871 1_545 S
C2269 C2268 1.350 1_565 S
C2269 C2275 1.360 1_565 S
H2270 C2266 0.930 . S
H2271 C2268 0.871 1_565 S
S2272 N2273 1.613 . S
S2272 N2274 1.610 . S
N2273 S2272 1.613 . S
N2273 C2276 1.350 . S
N2274 S2272 1.610 . S
N2274 C2275 1.351 . S
C2275 C2269 1.360 1_545 S
C2275 N2274 1.351 . S
C2275 C2276 1.434 . S
C2276 C2267 1.429 . S
C2276 N2273 1.350 . S
C2276 C2275 1.434 . S
C2277 C2278 1.369 . S
C2277 C2279 1.419 . S
C2277 H2281 0.930 . S
C2278 C2277 1.369 . S
C2278 C2287 1.429 . S
C2279 C2277 1.419 . S
C2279 C2280 1.363 . S
C2279 H2282 0.929 . S
C2280 C2279 1.363 . S
C2280 C2286 1.428 . S
H2281 C2277 0.930 . S
H2282 C2279 0.929 . S
S2283 N2284 1.613 . S
S2283 N2285 1.610 . S
N2284 S2283 1.613 . S
N2284 C2287 1.350 . S
N2285 S2283 1.610 . S
N2285 C2286 1.351 . S
C2286 C2280 1.428 . S
C2286 N2285 1.351 . S
C2286 C2287 1.434 . S
C2287 C2278 1.429 . S
C2287 N2284 1.350 . S
C2287 C2286 1.434 . S
C2288 C2289 1.369 . S
C2288 C2290 1.419 . S
C2288 H2292 0.930 . S
C2289 C2288 1.369 . S
C2289 C2298 1.429 . S
C2290 C2288 1.419 . S
C2290 C2291 1.350 1_554 S
C2290 H2293 0.929 1_554 S
C2291 C2290 1.350 1_556 S
C2291 C2297 1.363 1_556 S
H2292 C2288 0.930 . S
H2293 C2290 0.929 1_556 S
S2294 N2295 1.613 . S
S2294 N2296 1.610 . S
N2295 S2294 1.613 . S
N2295 C2298 1.350 . S
N2296 S2294 1.610 . S
N2296 C2297 1.351 . S
C2297 C2291 1.363 1_554 S
C2297 N2296 1.351 . S
C2297 C2298 1.434 . S
C2298 C2289 1.429 . S
C2298 N2295 1.350 . S
C2298 C2297 1.434 . S
C2299 C2300 1.369 . S
C2299 C2301 1.419 . S
C2299 H2303 0.930 . S
C2300 C2299 1.369 . S
C2300 C2309 1.429 . S
C2301 C2299 1.419 . S
C2301 C2302 1.289 1_556 S
C2301 H2304 0.929 . S
C2302 C2301 1.289 1_554 S
C2302 C2308 1.416 1_554 S
H2303 C2299 0.930 . S
H2304 C2301 0.929 . S
S2305 N2306 1.538 1_554 S
S2305 N2307 1.650 . S
N2306 S2305 1.538 1_556 S
N2306 C2309 1.350 . S
N2307 S2305 1.650 . S
N2307 C2308 1.307 1_554 S
C2308 C2302 1.416 1_556 S
C2308 N2307 1.307 1_556 S
C2308 C2309 1.493 . S
C2309 C2300 1.429 . S
C2309 N2306 1.350 . S
C2309 C2308 1.493 . S
C2310 C2311 1.369 . S
C2310 C2312 1.419 . S
C2310 H2314 0.930 . S
C2311 C2310 1.369 . S
C2311 C2320 1.429 . S
C2312 C2310 1.419 . S
C2312 C2313 1.363 . S
C2312 H2315 0.929 . S
C2313 C2312 1.363 . S
C2313 C2319 1.428 . S
H2314 C2310 0.930 . S
H2315 C2312 0.929 . S
S2316 N2317 1.613 . S
S2316 N2318 1.610 . S
N2317 S2316 1.613 . S
N2317 C2320 1.350 . S
N2318 S2316 1.610 . S
N2318 C2319 1.351 . S
C2319 C2313 1.428 . S
C2319 N2318 1.351 . S
C2319 C2320 1.434 . S
C2320 C2311 1.429 . S
C2320 N2317 1.350 . S
C2320 C2319 1.434 . S
C2321 C2322 1.369 . S
C2321 C2323 1.419 . S
C2321 H2325 0.930 . S
C2322 C2321 1.369 . S
C2322 C2331 1.429 . S
C2323 C2321 1.419 . S
C2323 C2324 1.363 . S
C2323 H2326 0.929 . S
C2324 C2323 1.363 . S
C2324 C2330 1.428 . S
H2325 C2321 0.930 . S
H2326 C2323 0.929 . S
S2327 N2328 1.613 . S
S2327 N2329 1.610 . S
N2328 S2327 1.613 . S
N2328 C2331 1.350 . S
N2329 S2327 1.610 . S
N2329 C2330 1.351 . S
C2330 C2324 1.428 . S
C2330 N2329 1.351 . S
C2330 C2331 1.434 . S
C2331 C2322 1.429 . S
C2331 N2328 1.350 . S
C2331 C2330 1.434 . S
C2332 C2333 1.369 . S
C2332 C2334 1.419 . S
C2332 H2336 0.930 . S
C2333 C2332 1.369 . S
C2333 C2342 1.429 . S
C2334 C2332 1.419 . S
C2334 C2335 1.363 . S
C2334 H2337 0.929 . S
C2335 C2334 1.363 . S
C2335 C2341 1.428 . S
H2336 C2332 0.930 . S
H2337 C2334 0.929 . S
S2338 N2339 1.613 . S
S2338 N2340 1.610 . S
N2339 S2338 1.613 . S
N2339 C2342 1.350 . S
N2340 S2338 1.610 . S
N2340 C2341 1.351 . S
C2341 C2335 1.428 . S
C2341 N2340 1.351 . S
C2341 C2342 1.434 . S
C2342 C2333 1.429 . S
C2342 N2339 1.350 . S
C2342 C2341 1.434 . S
C2343 C2344 1.369 . S
C2343 C2345 1.419 . S
C2343 H2347 0.930 . S
C2344 C2343 1.369 . S
C2344 C2353 1.429 . S
C2345 C2343 1.419 . S
C2345 C2346 1.363 . S
C2345 H2348 0.929 . S
C2346 C2345 1.363 . S
C2346 C2352 1.428 . S
H2347 C2343 0.930 . S
H2348 C2345 0.929 . S
S2349 N2350 1.613 . S
S2349 N2351 1.610 . S
N2350 S2349 1.613 . S
N2350 C2353 1.350 . S
N2351 S2349 1.610 . S
N2351 C2352 1.351 . S
C2352 C2346 1.428 . S
C2352 N2351 1.351 . S
C2352 C2353 1.434 . S
C2353 C2344 1.429 . S
C2353 N2350 1.350 . S
C2353 C2352 1.434 . S
C2354 C2355 1.369 . S
C2354 C2356 1.419 . S
C2354 H2358 0.930 . S
C2355 C2354 1.369 . S
C2355 C2364 1.429 . S
C2356 C2354 1.419 . S
C2356 C2357 1.363 . S
C2356 H2359 0.929 . S
C2357 C2356 1.363 . S
C2357 C2363 1.428 . S
H2358 C2354 0.930 . S
H2359 C2356 0.929 . S
S2360 N2361 1.613 . S
S2360 N2362 1.610 . S
N2361 S2360 1.613 . S
N2361 C2364 1.350 . S
N2362 S2360 1.610 . S
N2362 C2363 1.351 . S
C2363 C2357 1.428 . S
C2363 N2362 1.351 . S
C2363 C2364 1.434 . S
C2364 C2355 1.429 . S
C2364 N2361 1.350 . S
C2364 C2363 1.434 . S
C2365 C2366 1.369 . S
C2365 C2367 1.419 . S
C2365 H2369 0.930 . S
C2366 C2365 1.369 . S
C2366 C2375 1.429 . S
C2367 C2365 1.419 . S
C2367 C2368 1.363 . S
C2367 H2370 0.929 . S
C2368 C2367 1.363 . S
C2368 C2374 1.428 . S
H2369 C2365 0.930 . S
H2370 C2367 0.929 . S
S2371 N2372 1.613 . S
S2371 N2373 1.610 . S
N2372 S2371 1.613 . S
N2372 C2375 1.350 . S
N2373 S2371 1.610 . S
N2373 C2374 1.351 . S
C2374 C2368 1.428 . S
C2374 N2373 1.351 . S
C2374 C2375 1.434 . S
C2375 C2366 1.429 . S
C2375 N2372 1.350 . S
C2375 C2374 1.434 . S
C2376 C2377 1.369 . S
C2376 C2378 1.419 . S
C2376 H2380 0.930 . S
C2377 C2376 1.369 . S
C2377 C2386 1.429 . S
C2378 C2376 1.419 . S
C2378 C2379 1.351 1_655 S
C2378 H2381 0.929 1_655 S
C2379 C2378 1.351 1_455 S
C2379 C2385 1.364 1_455 S
H2380 C2376 0.930 . S
H2381 C2378 0.929 1_455 S
S2382 N2383 1.613 . S
S2382 N2384 1.610 . S
N2383 S2382 1.613 . S
N2383 C2386 1.350 . S
N2384 S2382 1.610 . S
N2384 C2385 1.351 . S
C2385 C2379 1.364 1_655 S
C2385 N2384 1.351 . S
C2385 C2386 1.434 . S
C2386 C2377 1.429 . S
C2386 N2383 1.350 . S
C2386 C2385 1.434 . S
C2387 C2388 1.369 . S
C2387 C2389 1.419 . S
C2387 H2391 0.930 . S
C2388 C2387 1.369 . S
C2388 C2397 1.429 . S
C2389 C2387 1.419 . S
C2389 C2390 1.363 . S
C2389 H2392 0.929 . S
C2390 C2389 1.363 . S
C2390 C2396 1.428 . S
H2391 C2387 0.930 . S
H2392 C2389 0.929 . S
S2393 N2394 1.613 . S
S2393 N2395 1.610 . S
N2394 S2393 1.613 . S
N2394 C2397 1.350 . S
N2395 S2393 1.610 . S
N2395 C2396 1.351 . S
C2396 C2390 1.428 . S
C2396 N2395 1.351 . S
C2396 C2397 1.434 . S
C2397 C2388 1.429 . S
C2397 N2394 1.350 . S
C2397 C2396 1.434 . S
C2398 C2399 1.369 . S
C2398 C2400 1.419 . S
C2398 H2402 0.930 . S
C2399 C2398 1.369 . S
C2399 C2408 1.429 . S
C2400 C2398 1.419 . S
C2400 C2401 1.363 . S
C2400 H2403 0.929 . S
C2401 C2400 1.363 . S
C2401 C2407 1.428 . S
H2402 C2398 0.930 . S
H2403 C2400 0.929 . S
S2404 N2405 1.613 . S
S2404 N2406 1.610 . S
N2405 S2404 1.613 . S
N2405 C2408 1.350 . S
N2406 S2404 1.610 . S
N2406 C2407 1.351 . S
C2407 C2401 1.428 . S
C2407 N2406 1.351 . S
C2407 C2408 1.434 . S
C2408 C2399 1.429 . S
C2408 N2405 1.350 . S
C2408 C2407 1.434 . S
C2409 C2410 1.369 . S
C2409 C2411 1.419 . S
C2409 H2413 0.930 . S
C2410 C2409 1.369 . S
C2410 C2419 1.429 . S
C2411 C2409 1.419 . S
C2411 C2412 1.363 . S
C2411 H2414 0.929 . S
C2412 C2411 1.363 . S
C2412 C2418 1.428 . S
H2413 C2409 0.930 . S
H2414 C2411 0.929 . S
S2415 N2416 1.613 . S
S2415 N2417 1.610 . S
N2416 S2415 1.613 . S
N2416 C2419 1.350 . S
N2417 S2415 1.610 . S
N2417 C2418 1.351 . S
C2418 C2412 1.428 . S
C2418 N2417 1.351 . S
C2418 C2419 1.434 . S
C2419 C2410 1.429 . S
C2419 N2416 1.350 . S
C2419 C2418 1.434 . S
C2420 C2421 1.369 . S
C2420 C2422 1.414 . S
C2420 H2424 0.930 . S
C2421 C2420 1.369 . S
C2421 C2430 1.429 . S
C2422 C2420 1.414 . S
C2422 C2423 1.359 1_655 S
C2422 H2425 0.934 1_655 S
C2423 C2422 1.359 1_455 S
C2423 C2429 1.355 1_455 S
H2424 C2420 0.930 . S
H2425 C2422 0.934 1_455 S
S2426 N2427 1.613 . S
S2426 N2428 1.610 . S
N2427 S2426 1.613 . S
N2427 C2430 1.350 . S
N2428 S2426 1.610 . S
N2428 C2429 1.351 . S
C2429 C2423 1.355 1_655 S
C2429 N2428 1.351 . S
C2429 C2430 1.434 . S
C2430 C2421 1.429 . S
C2430 N2427 1.350 . S
C2430 C2429 1.434 . S
C2431 C2432 1.369 . S
C2431 C2433 1.419 . S
C2431 H2435 0.930 . S
C2432 C2431 1.369 . S
C2432 C2441 1.429 . S
C2433 C2431 1.419 . S
C2433 C2434 1.363 . S
C2433 H2436 0.929 . S
C2434 C2433 1.363 . S
C2434 C2440 1.428 . S
H2435 C2431 0.930 . S
H2436 C2433 0.929 . S
S2437 N2438 1.613 . S
S2437 N2439 1.610 . S
N2438 S2437 1.613 . S
N2438 C2441 1.350 . S
N2439 S2437 1.610 . S
N2439 C2440 1.351 . S
C2440 C2434 1.428 . S
C2440 N2439 1.351 . S
C2440 C2441 1.434 . S
C2441 C2432 1.429 . S
C2441 N2438 1.350 . S
C2441 C2440 1.434 . S
C2442 C2443 1.369 . S
C2442 C2444 1.419 . S
C2442 H2446 0.930 . S
C2443 C2442 1.369 . S
C2443 C2452 1.429 . S
C2444 C2442 1.419 . S
C2444 C2445 1.363 . S
C2444 H2447 0.929 . S
C2445 C2444 1.363 . S
C2445 C2451 1.428 . S
H2446 C2442 0.930 . S
H2447 C2444 0.929 . S
S2448 N2449 1.613 . S
S2448 N2450 1.610 . S
N2449 S2448 1.613 . S
N2449 C2452 1.350 . S
N2450 S2448 1.610 . S
N2450 C2451 1.351 . S
C2451 C2445 1.428 . S
C2451 N2450 1.351 . S
C2451 C2452 1.434 . S
C2452 C2443 1.429 . S
C2452 N2449 1.350 . S
C2452 C2451 1.434 . S
C2453 C2454 1.369 . S
C2453 C2455 1.419 . S
C2453 H2457 0.930 . S
C2454 C2453 1.369 . S
C2454 C2463 1.429 . S
C2455 C2453 1.419 . S
C2455 C2456 1.363 . S
C2455 H2458 0.929 . S
C2456 C2455 1.363 . S
C2456 C2462 1.428 . S
H2457 C2453 0.930 . S
H2458 C2455 0.929 . S
S2459 N2460 1.613 . S
S2459 N2461 1.610 . S
N2460 S2459 1.613 . S
N2460 C2463 1.350 . S
N2461 S2459 1.610 . S
N2461 C2462 1.351 . S
C2462 C2456 1.428 . S
C2462 N2461 1.351 . S
C2462 C2463 1.434 . S
C2463 C2454 1.429 . S
C2463 N2460 1.350 . S
C2463 C2462 1.434 . S
C2464 C2465 1.369 . S
C2464 C2466 1.419 . S
C2464 H2468 0.930 . S
C2465 C2464 1.369 . S
C2465 C2474 1.429 . S
C2466 C2464 1.419 . S
C2466 C2467 1.317 1_565 S
C2466 H2469 0.929 . S
C2467 C2466 1.317 1_545 S
C2467 C2473 1.395 1_545 S
H2468 C2464 0.930 . S
H2469 C2466 0.929 . S
S2470 N2471 1.613 . S
S2470 N2472 1.591 1_565 S
N2471 S2470 1.613 . S
N2471 C2474 1.350 . S
N2472 S2470 1.591 1_545 S
N2472 C2473 1.340 1_545 S
C2473 C2467 1.395 1_565 S
C2473 N2472 1.340 1_565 S
C2473 C2474 1.434 . S
C2474 C2465 1.429 . S
C2474 N2471 1.350 . S
C2474 C2473 1.434 . S
C2475 C2476 1.369 . S
C2475 C2477 1.419 . S
C2475 H2479 0.930 . S
C2476 C2475 1.369 . S
C2476 C2485 1.429 . S
C2477 C2475 1.419 . S
C2477 C2478 1.363 . S
C2477 H2480 0.929 . S
C2478 C2477 1.363 . S
C2478 C2484 1.428 . S
H2479 C2475 0.930 . S
H2480 C2477 0.929 . S
S2481 N2482 1.613 . S
S2481 N2483 1.610 . S
N2482 S2481 1.613 . S
N2482 C2485 1.350 . S
N2483 S2481 1.610 . S
N2483 C2484 1.351 . S
C2484 C2478 1.428 . S
C2484 N2483 1.351 . S
C2484 C2485 1.434 . S
C2485 C2476 1.429 . S
C2485 N2482 1.350 . S
C2485 C2484 1.434 . S
C2486 C2487 1.369 . S
C2486 C2488 1.419 . S
C2486 H2490 0.930 . S
C2487 C2486 1.369 . S
C2487 C2496 1.429 . S
C2488 C2486 1.419 . S
C2488 C2489 1.305 1_545 S
C2488 H2491 0.929 . S
C2489 C2488 1.305 1_565 S
C2489 C2495 1.403 1_565 S
H2490 C2486 0.930 . S
H2491 C2488 0.929 . S
S2492 N2493 1.613 . S
S2492 N2494 1.610 1_545 S
N2493 S2492 1.613 . S
N2493 C2496 1.350 . S
N2494 S2492 1.610 1_565 S
N2494 C2495 1.351 1_565 S
C2495 C2489 1.403 1_545 S
C2495 N2494 1.351 1_545 S
C2495 C2496 1.434 . S
C2496 C2487 1.429 . S
C2496 N2493 1.350 . S
C2496 C2495 1.434 . S
C2497 C2498 1.369 . S
C2497 C2499 1.419 . S
C2497 H2501 0.930 . S
C2498 C2497 1.369 . S
C2498 C2507 1.429 . S
C2499 C2497 1.419 . S
C2499 C2500 1.363 . S
C2499 H2502 0.929 . S
C2500 C2499 1.363 . S
C2500 C2506 1.428 . S
H2501 C2497 0.930 . S
H2502 C2499 0.929 . S
S2503 N2504 1.613 . S
S2503 N2505 1.610 . S
N2504 S2503 1.613 . S
N2504 C2507 1.350 . S
N2505 S2503 1.610 . S
N2505 C2506 1.351 . S
C2506 C2500 1.428 . S
C2506 N2505 1.351 . S
C2506 C2507 1.434 . S
C2507 C2498 1.429 . S
C2507 N2504 1.350 . S
C2507 C2506 1.434 . S
C2508 C2509 1.369 . S
C2508 C2510 1.475 . S
C2508 H2512 0.930 . S
C2509 C2508 1.369 . S
C2509 C2518 1.429 . S
C2510 C2508 1.475 . S
C2510 C2511 1.352 1_545 S
C2510 H2513 0.880 1_545 S
C2511 C2510 1.352 1_565 S
C2511 C2517 1.359 1_565 S
H2512 C2508 0.930 . S
H2513 C2510 0.880 1_565 S
S2514 N2515 1.613 . S
S2514 N2516 1.610 . S
N2515 S2514 1.613 . S
N2515 C2518 1.350 . S
N2516 S2514 1.610 . S
N2516 C2517 1.351 . S
C2517 C2511 1.359 1_545 S
C2517 N2516 1.351 . S
C2517 C2518 1.434 . S
C2518 C2509 1.429 . S
C2518 N2515 1.350 . S
C2518 C2517 1.434 . S
C2519 C2520 1.369 . S
C2519 C2521 1.419 . S
C2519 H2523 0.930 . S
C2520 C2519 1.369 . S
C2520 C2529 1.429 . S
C2521 C2519 1.419 . S
C2521 C2522 1.363 . S
C2521 H2524 0.929 . S
C2522 C2521 1.363 . S
C2522 C2528 1.428 . S
H2523 C2519 0.930 . S
H2524 C2521 0.929 . S
S2525 N2526 1.613 . S
S2525 N2527 1.610 . S
N2526 S2525 1.613 . S
N2526 C2529 1.350 . S
N2527 S2525 1.610 . S
N2527 C2528 1.351 . S
C2528 C2522 1.428 . S
C2528 N2527 1.351 . S
C2528 C2529 1.434 . S
C2529 C2520 1.429 . S
C2529 N2526 1.350 . S
C2529 C2528 1.434 . S
C2530 C2531 1.369 . S
C2530 C2532 1.449 . S
C2530 H2534 0.930 . S
C2531 C2530 1.369 . S
C2531 C2540 1.429 . S
C2532 C2530 1.449 . S
C2532 C2533 1.355 1_565 S
C2532 H2535 0.902 1_565 S
C2533 C2532 1.355 1_545 S
C2533 C2539 1.357 1_545 S
H2534 C2530 0.930 . S
H2535 C2532 0.902 1_545 S
S2536 N2537 1.613 . S
S2536 N2538 1.610 . S
N2537 S2536 1.613 . S
N2537 C2540 1.350 . S
N2538 S2536 1.610 . S
N2538 C2539 1.351 . S
C2539 C2533 1.357 1_565 S
C2539 N2538 1.351 . S
C2539 C2540 1.434 . S
C2540 C2531 1.429 . S
C2540 N2537 1.350 . S
C2540 C2539 1.434 . S
C2541 C2542 1.369 . S
C2541 C2543 1.419 . S
C2541 H2545 0.930 . S
C2542 C2541 1.369 . S
C2542 C2551 1.429 . S
C2543 C2541 1.419 . S
C2543 C2544 1.363 . S
C2543 H2546 0.929 . S
C2544 C2543 1.363 . S
C2544 C2550 1.428 . S
H2545 C2541 0.930 . S
H2546 C2543 0.929 . S
S2547 N2548 1.613 . S
S2547 N2549 1.610 . S
N2548 S2547 1.613 . S
N2548 C2551 1.350 . S
N2549 S2547 1.610 . S
N2549 C2550 1.351 . S
C2550 C2544 1.428 . S
C2550 N2549 1.351 . S
C2550 C2551 1.434 . S
C2551 C2542 1.429 . S
C2551 N2548 1.350 . S
C2551 C2550 1.434 . S
C2552 C2553 1.369 . S
C2552 C2554 1.419 . S
C2552 H2556 0.930 . S
C2553 C2552 1.369 . S
C2553 C2562 1.429 . S
C2554 C2552 1.419 . S
C2554 C2555 1.306 1_556 S
C2554 H2557 0.929 . S
C2555 C2554 1.306 1_554 S
C2555 C2561 1.403 1_554 S
H2556 C2552 0.930 . S
H2557 C2554 0.929 . S
S2558 N2559 1.613 . S
S2558 N2560 1.610 1_556 S
N2559 S2558 1.613 . S
N2559 C2562 1.350 . S
N2560 S2558 1.610 1_554 S
N2560 C2561 1.351 1_554 S
C2561 C2555 1.403 1_556 S
C2561 N2560 1.351 1_556 S
C2561 C2562 1.434 . S
C2562 C2553 1.429 . S
C2562 N2559 1.350 . S
C2562 C2561 1.434 . S
C2563 C2564 1.369 . S
C2563 C2565 1.419 . S
C2563 H2567 0.930 . S
C2564 C2563 1.369 . S
C2564 C2573 1.429 . S
C2565 C2563 1.419 . S
C2565 C2566 1.351 1_554 S
C2565 H2568 0.929 1_554 S
C2566 C2565 1.351 1_556 S
C2566 C2572 1.363 1_556 S
H2567 C2563 0.930 . S
H2568 C2565 0.929 1_556 S
S2569 N2570 1.613 . S
S2569 N2571 1.610 . S
N2570 S2569 1.613 . S
N2570 C2573 1.350 . S
N2571 S2569 1.610 . S
N2571 C2572 1.351 . S
C2572 C2566 1.363 1_554 S
C2572 N2571 1.351 . S
C2572 C2573 1.434 . S
C2573 C2564 1.429 . S
C2573 N2570 1.350 . S
C2573 C2572 1.434 . S
C2574 C2575 1.369 . S
C2574 C2576 1.419 . S
C2574 H2578 0.930 . S
C2575 C2574 1.369 . S
C2575 C2584 1.429 . S
C2576 C2574 1.419 . S
C2576 C2577 1.363 . S
C2576 H2579 0.929 . S
C2577 C2576 1.363 . S
C2577 C2583 1.428 . S
H2578 C2574 0.930 . S
H2579 C2576 0.929 . S
S2580 N2581 1.613 . S
S2580 N2582 1.610 . S
N2581 S2580 1.613 . S
N2581 C2584 1.350 . S
N2582 S2580 1.610 . S
N2582 C2583 1.351 . S
C2583 C2577 1.428 . S
C2583 N2582 1.351 . S
C2583 C2584 1.434 . S
C2584 C2575 1.429 . S
C2584 N2581 1.350 . S
C2584 C2583 1.434 . S
C2585 C2586 1.369 . S
C2585 C2587 1.419 . S
C2585 H2589 0.930 . S
C2586 C2585 1.369 . S
C2586 C2595 1.429 . S
C2587 C2585 1.419 . S
C2587 C2588 1.363 . S
C2587 H2590 0.929 . S
C2588 C2587 1.363 . S
C2588 C2594 1.428 . S
H2589 C2585 0.930 . S
H2590 C2587 0.929 . S
S2591 N2592 1.613 . S
S2591 N2593 1.610 . S
N2592 S2591 1.613 . S
N2592 C2595 1.350 . S
N2593 S2591 1.610 . S
N2593 C2594 1.351 . S
C2594 C2588 1.428 . S
C2594 N2593 1.351 . S
C2594 C2595 1.434 . S
C2595 C2586 1.429 . S
C2595 N2592 1.350 . S
C2595 C2594 1.434 . S
C2596 C2597 1.369 . S
C2596 C2598 1.419 . S
C2596 H2600 0.930 . S
C2597 C2596 1.369 . S
C2597 C2606 1.429 . S
C2598 C2596 1.419 . S
C2598 C2599 1.363 . S
C2598 H2601 0.929 . S
C2599 C2598 1.363 . S
C2599 C2605 1.428 . S
H2600 C2596 0.930 . S
H2601 C2598 0.929 . S
S2602 N2603 1.613 . S
S2602 N2604 1.610 . S
N2603 S2602 1.613 . S
N2603 C2606 1.350 . S
N2604 S2602 1.610 . S
N2604 C2605 1.351 . S
C2605 C2599 1.428 . S
C2605 N2604 1.351 . S
C2605 C2606 1.434 . S
C2606 C2597 1.429 . S
C2606 N2603 1.350 . S
C2606 C2605 1.434 . S
C2607 C2608 1.369 . S
C2607 C2609 1.419 . S
C2607 H2611 0.930 . S
C2608 C2607 1.369 . S
C2608 C2617 1.429 . S
C2609 C2607 1.419 . S
C2609 C2610 1.363 . S
C2609 H2612 0.929 . S
C2610 C2609 1.363 . S
C2610 C2616 1.428 . S
H2611 C2607 0.930 . S
H2612 C2609 0.929 . S
S2613 N2614 1.613 . S
S2613 N2615 1.610 . S
N2614 S2613 1.613 . S
N2614 C2617 1.350 . S
N2615 S2613 1.610 . S
N2615 C2616 1.351 . S
C2616 C2610 1.428 . S
C2616 N2615 1.351 . S
C2616 C2617 1.434 . S
C2617 C2608 1.429 . S
C2617 N2614 1.350 . S
C2617 C2616 1.434 . S
C2618 C2619 1.369 . S
C2618 C2620 1.419 . S
C2618 H2622 0.930 . S
C2619 C2618 1.369 . S
C2619 C2628 1.429 . S
C2620 C2618 1.419 . S
C2620 C2621 1.363 . S
C2620 H2623 0.929 . S
C2621 C2620 1.363 . S
C2621 C2627 1.428 . S
H2622 C2618 0.930 . S
H2623 C2620 0.929 . S
S2624 N2625 1.613 . S
S2624 N2626 1.610 . S
N2625 S2624 1.613 . S
N2625 C2628 1.350 . S
N2626 S2624 1.610 . S
N2626 C2627 1.351 . S
C2627 C2621 1.428 . S
C2627 N2626 1.351 . S
C2627 C2628 1.434 . S
C2628 C2619 1.429 . S
C2628 N2625 1.350 . S
C2628 C2627 1.434 . S
C2629 C2630 1.369 . S
C2629 C2631 1.419 . S
C2629 H2633 0.930 . S
C2630 C2629 1.369 . S
C2630 C2639 1.429 . S
C2631 C2629 1.419 . S
C2631 C2632 1.363 . S
C2631 H2634 0.929 . S
C2632 C2631 1.363 . S
C2632 C2638 1.428 . S
H2633 C2629 0.930 . S
H2634 C2631 0.929 . S
S2635 N2636 1.613 . S
S2635 N2637 1.610 . S
N2636 S2635 1.613 . S
N2636 C2639 1.350 . S
N2637 S2635 1.610 . S
N2637 C2638 1.351 . S
C2638 C2632 1.428 . S
C2638 N2637 1.351 . S
C2638 C2639 1.434 . S
C2639 C2630 1.429 . S
C2639 N2636 1.350 . S
C2639 C2638 1.434 . S
C2640 C2641 1.369 . S
C2640 C2642 1.419 . S
C2640 H2644 0.930 . S
C2641 C2640 1.369 . S
C2641 C2650 1.429 . S
C2642 C2640 1.419 . S
C2642 C2643 1.363 . S
C2642 H2645 0.929 . S
C2643 C2642 1.363 . S
C2643 C2649 1.428 . S
H2644 C2640 0.930 . S
H2645 C2642 0.929 . S
S2646 N2647 1.613 . S
S2646 N2648 1.610 . S
N2647 S2646 1.613 . S
N2647 C2650 1.350 . S
N2648 S2646 1.610 . S
N2648 C2649 1.351 . S
C2649 C2643 1.428 . S
C2649 N2648 1.351 . S
C2649 C2650 1.434 . S
C2650 C2641 1.429 . S
C2650 N2647 1.350 . S
C2650 C2649 1.434 . S
C2651 C2652 1.369 . S
C2651 C2653 1.419 . S
C2651 H2655 0.930 . S
C2652 C2651 1.369 . S
C2652 C2661 1.429 . S
C2653 C2651 1.419 . S
C2653 C2654 1.363 . S
C2653 H2656 0.929 . S
C2654 C2653 1.363 . S
C2654 C2660 1.428 . S
H2655 C2651 0.930 . S
H2656 C2653 0.929 . S
S2657 N2658 1.613 . S
S2657 N2659 1.610 . S
N2658 S2657 1.613 . S
N2658 C2661 1.350 . S
N2659 S2657 1.610 . S
N2659 C2660 1.351 . S
C2660 C2654 1.428 . S
C2660 N2659 1.351 . S
C2660 C2661 1.434 . S
C2661 C2652 1.429 . S
C2661 N2658 1.350 . S
C2661 C2660 1.434 . S
C2662 C2663 1.369 . S
C2662 C2664 1.419 . S
C2662 H2666 0.930 . S
C2663 C2662 1.369 . S
C2663 C2672 1.429 . S
C2664 C2662 1.419 . S
C2664 C2665 1.303 1_655 S
C2664 H2667 0.929 . S
C2665 C2664 1.303 1_455 S
C2665 C2671 1.405 1_455 S
H2666 C2662 0.930 . S
H2667 C2664 0.929 . S
S2668 N2669 1.613 . S
S2668 N2670 1.610 1_655 S
N2669 S2668 1.613 . S
N2669 C2672 1.350 . S
N2670 S2668 1.610 1_455 S
N2670 C2671 1.351 1_455 S
C2671 C2665 1.405 1_655 S
C2671 N2670 1.351 1_655 S
C2671 C2672 1.434 . S
C2672 C2663 1.429 . S
C2672 N2669 1.350 . S
C2672 C2671 1.434 . S
C2673 C2674 1.369 . S
C2673 C2675 1.419 . S
C2673 H2677 0.930 . S
C2674 C2673 1.369 . S
C2674 C2683 1.429 . S
C2675 C2673 1.419 . S
C2675 C2676 1.363 . S
C2675 H2678 0.929 . S
C2676 C2675 1.363 . S
C2676 C2682 1.428 . S
H2677 C2673 0.930 . S
H2678 C2675 0.929 . S
S2679 N2680 1.613 . S
S2679 N2681 1.610 . S
N2680 S2679 1.613 . S
N2680 C2683 1.350 . S
N2681 S2679 1.610 . S
N2681 C2682 1.351 . S
C2682 C2676 1.428 . S
C2682 N2681 1.351 . S
C2682 C2683 1.434 . S
C2683 C2674 1.429 . S
C2683 N2680 1.350 . S
C2683 C2682 1.434 . S
C2684 C2685 1.369 . S
C2684 C2686 1.419 . S
C2684 H2688 0.930 . S
C2685 C2684 1.369 . S
C2685 C2694 1.429 . S
C2686 C2684 1.419 . S
C2686 C2687 1.363 . S
C2686 H2689 0.929 . S
C2687 C2686 1.363 . S
C2687 C2693 1.428 . S
H2688 C2684 0.930 . S
H2689 C2686 0.929 . S
S2690 N2691 1.613 . S
S2690 N2692 1.610 . S
N2691 S2690 1.613 . S
N2691 C2694 1.350 . S
N2692 S2690 1.610 . S
N2692 C2693 1.351 . S
C2693 C2687 1.428 . S
C2693 N2692 1.351 . S
C2693 C2694 1.434 . S
C2694 C2685 1.429 . S
C2694 N2691 1.350 . S
C2694 C2693 1.434 . S
C2695 C2696 1.369 . S
C2695 C2697 1.419 . S
C2695 H2699 0.930 . S
C2696 C2695 1.369 . S
C2696 C2705 1.429 . S
C2697 C2695 1.419 . S
C2697 C2698 1.363 . S
C2697 H2700 0.929 . S
C2698 C2697 1.363 . S
C2698 C2704 1.428 . S
H2699 C2695 0.930 . S
H2700 C2697 0.929 . S
S2701 N2702 1.613 . S
S2701 N2703 1.610 . S
N2702 S2701 1.613 . S
N2702 C2705 1.350 . S
N2703 S2701 1.610 . S
N2703 C2704 1.351 . S
C2704 C2698 1.428 . S
C2704 N2703 1.351 . S
C2704 C2705 1.434 . S
C2705 C2696 1.429 . S
C2705 N2702 1.350 . S
C2705 C2704 1.434 . S
C2706 C2707 1.369 . S
C2706 C2708 1.426 1_655 S
C2706 H2710 0.930 . S
C2707 C2706 1.369 . S
C2707 C2716 1.429 . S
C2708 C2706 1.426 1_455 S
C2708 C2709 1.360 . S
C2708 H2711 0.922 . S
C2709 C2708 1.360 . S
C2709 C2715 1.355 1_455 S
H2710 C2706 0.930 . S
H2711 C2708 0.922 . S
S2712 N2713 1.613 . S
S2712 N2714 1.610 . S
N2713 S2712 1.613 . S
N2713 C2716 1.350 . S
N2714 S2712 1.610 . S
N2714 C2715 1.351 . S
C2715 C2709 1.355 1_655 S
C2715 N2714 1.351 . S
C2715 C2716 1.434 . S
C2716 C2707 1.429 . S
C2716 N2713 1.350 . S
C2716 C2715 1.434 . S
C2717 C2718 1.369 . S
C2717 C2719 1.419 . S
C2717 H2721 0.930 . S
C2718 C2717 1.369 . S
C2718 C2727 1.429 . S
C2719 C2717 1.419 . S
C2719 C2720 1.363 . S
C2719 H2722 0.929 . S
C2720 C2719 1.363 . S
C2720 C2726 1.428 . S
H2721 C2717 0.930 . S
H2722 C2719 0.929 . S
S2723 N2724 1.613 . S
S2723 N2725 1.610 . S
N2724 S2723 1.613 . S
N2724 C2727 1.350 . S
N2725 S2723 1.610 . S
N2725 C2726 1.351 . S
C2726 C2720 1.428 . S
C2726 N2725 1.351 . S
C2726 C2727 1.434 . S
C2727 C2718 1.429 . S
C2727 N2724 1.350 . S
C2727 C2726 1.434 . S
C2728 C2729 1.369 . S
C2728 C2730 1.419 . S
C2728 H2732 0.930 . S
C2729 C2728 1.369 . S
C2729 C2738 1.429 . S
C2730 C2728 1.419 . S
C2730 C2731 1.363 . S
C2730 H2733 0.929 . S
C2731 C2730 1.363 . S
C2731 C2737 1.428 . S
H2732 C2728 0.930 . S
H2733 C2730 0.929 . S
S2734 N2735 1.613 . S
S2734 N2736 1.610 . S
N2735 S2734 1.613 . S
N2735 C2738 1.350 . S
N2736 S2734 1.610 . S
N2736 C2737 1.351 . S
C2737 C2731 1.428 . S
C2737 N2736 1.351 . S
C2737 C2738 1.434 . S
C2738 C2729 1.429 . S
C2738 N2735 1.350 . S
C2738 C2737 1.434 . S
C2739 C2740 1.369 . S
C2739 C2741 1.419 . S
C2739 H2743 0.930 . S
C2740 C2739 1.369 . S
C2740 C2749 1.429 . S
C2741 C2739 1.419 . S
C2741 C2742 1.363 . S
C2741 H2744 0.929 . S
C2742 C2741 1.363 . S
C2742 C2748 1.428 . S
H2743 C2739 0.930 . S
H2744 C2741 0.929 . S
S2745 N2746 1.613 . S
S2745 N2747 1.610 . S
N2746 S2745 1.613 . S
N2746 C2749 1.350 . S
N2747 S2745 1.610 . S
N2747 C2748 1.351 . S
C2748 C2742 1.428 . S
C2748 N2747 1.351 . S
C2748 C2749 1.434 . S
C2749 C2740 1.429 . S
C2749 N2746 1.350 . S
C2749 C2748 1.434 . S
C2750 C2751 1.369 . S
C2750 C2752 1.419 . S
C2750 H2754 0.930 . S
C2751 C2750 1.369 . S
C2751 C2760 1.429 . S
C2752 C2750 1.419 . S
C2752 C2753 1.363 . S
C2752 H2755 0.929 . S
C2753 C2752 1.363 . S
C2753 C2759 1.428 . S
H2754 C2750 0.930 . S
H2755 C2752 0.929 . S
S2756 N2757 1.613 . S
S2756 N2758 1.610 . S
N2757 S2756 1.613 . S
N2757 C2760 1.350 . S
N2758 S2756 1.610 . S
N2758 C2759 1.351 . S
C2759 C2753 1.428 . S
C2759 N2758 1.351 . S
C2759 C2760 1.434 . S
C2760 C2751 1.429 . S
C2760 N2757 1.350 . S
C2760 C2759 1.434 . S
C2761 C2762 1.369 . S
C2761 C2763 1.419 . S
C2761 H2765 0.930 . S
C2762 C2761 1.369 . S
C2762 C2771 1.429 . S
C2763 C2761 1.419 . S
C2763 C2764 1.363 . S
C2763 H2766 0.929 . S
C2764 C2763 1.363 . S
C2764 C2770 1.428 . S
H2765 C2761 0.930 . S
H2766 C2763 0.929 . S
S2767 N2768 1.613 . S
S2767 N2769 1.610 . S
N2768 S2767 1.613 . S
N2768 C2771 1.350 . S
N2769 S2767 1.610 . S
N2769 C2770 1.351 . S
C2770 C2764 1.428 . S
C2770 N2769 1.351 . S
C2770 C2771 1.434 . S
C2771 C2762 1.429 . S
C2771 N2768 1.350 . S
C2771 C2770 1.434 . S
C2772 C2773 1.369 . S
C2772 C2774 1.419 . S
C2772 H2776 0.930 . S
C2773 C2772 1.369 . S
C2773 C2782 1.429 . S
C2774 C2772 1.419 . S
C2774 C2775 1.363 . S
C2774 H2777 0.929 . S
C2775 C2774 1.363 . S
C2775 C2781 1.428 . S
H2776 C2772 0.930 . S
H2777 C2774 0.929 . S
S2778 N2779 1.613 . S
S2778 N2780 1.610 . S
N2779 S2778 1.613 . S
N2779 C2782 1.350 . S
N2780 S2778 1.610 . S
N2780 C2781 1.351 . S
C2781 C2775 1.428 . S
C2781 N2780 1.351 . S
C2781 C2782 1.434 . S
C2782 C2773 1.429 . S
C2782 N2779 1.350 . S
C2782 C2781 1.434 . S
C2783 C2784 1.369 . S
C2783 C2785 1.419 . S
C2783 H2787 0.930 . S
C2784 C2783 1.369 . S
C2784 C2793 1.429 . S
C2785 C2783 1.419 . S
C2785 C2786 1.363 . S
C2785 H2788 0.929 . S
C2786 C2785 1.363 . S
C2786 C2792 1.428 . S
H2787 C2783 0.930 . S
H2788 C2785 0.929 . S
S2789 N2790 1.613 . S
S2789 N2791 1.610 . S
N2790 S2789 1.613 . S
N2790 C2793 1.350 . S
N2791 S2789 1.610 . S
N2791 C2792 1.351 . S
C2792 C2786 1.428 . S
C2792 N2791 1.351 . S
C2792 C2793 1.434 . S
C2793 C2784 1.429 . S
C2793 N2790 1.350 . S
C2793 C2792 1.434 . S
C2794 C2795 1.369 . S
C2794 C2796 1.419 . S
C2794 H2798 0.930 . S
C2795 C2794 1.369 . S
C2795 C2804 1.429 . S
C2796 C2794 1.419 . S
C2796 C2797 1.363 . S
C2796 H2799 0.929 . S
C2797 C2796 1.363 . S
C2797 C2803 1.428 . S
H2798 C2794 0.930 . S
H2799 C2796 0.929 . S
S2800 N2801 1.613 . S
S2800 N2802 1.610 . S
N2801 S2800 1.613 . S
N2801 C2804 1.350 . S
N2802 S2800 1.610 . S
N2802 C2803 1.351 . S
C2803 C2797 1.428 . S
C2803 N2802 1.351 . S
C2803 C2804 1.434 . S
C2804 C2795 1.429 . S
C2804 N2801 1.350 . S
C2804 C2803 1.434 . S
C2805 C2806 1.369 . S
C2805 C2807 1.419 . S
C2805 H2809 0.930 . S
C2806 C2805 1.369 . S
C2806 C2815 1.429 . S
C2807 C2805 1.419 . S
C2807 C2808 1.363 . S
C2807 H2810 0.929 . S
C2808 C2807 1.363 . S
C2808 C2814 1.428 . S
H2809 C2805 0.930 . S
H2810 C2807 0.929 . S
S2811 N2812 1.613 . S
S2811 N2813 1.610 . S
N2812 S2811 1.613 . S
N2812 C2815 1.350 . S
N2813 S2811 1.610 . S
N2813 C2814 1.351 . S
C2814 C2808 1.428 . S
C2814 N2813 1.351 . S
C2814 C2815 1.434 . S
C2815 C2806 1.429 . S
C2815 N2812 1.350 . S
C2815 C2814 1.434 . S
C2816 C2817 1.369 . S
C2816 C2818 1.419 . S
C2816 H2820 0.930 . S
C2817 C2816 1.369 . S
C2817 C2826 1.429 . S
C2818 C2816 1.419 . S
C2818 C2819 1.363 . S
C2818 H2821 0.929 . S
C2819 C2818 1.363 . S
C2819 C2825 1.428 . S
H2820 C2816 0.930 . S
H2821 C2818 0.929 . S
S2822 N2823 1.613 . S
S2822 N2824 1.610 . S
N2823 S2822 1.613 . S
N2823 C2826 1.350 . S
N2824 S2822 1.610 . S
N2824 C2825 1.351 . S
C2825 C2819 1.428 . S
C2825 N2824 1.351 . S
C2825 C2826 1.434 . S
C2826 C2817 1.429 . S
C2826 N2823 1.350 . S
C2826 C2825 1.434 . S
C2827 C2828 1.369 . S
C2827 C2829 1.419 . S
C2827 H2831 0.930 . S
C2828 C2827 1.369 . S
C2828 C2837 1.429 . S
C2829 C2827 1.419 . S
C2829 C2830 1.363 . S
C2829 H2832 0.929 . S
C2830 C2829 1.363 . S
C2830 C2836 1.428 . S
H2831 C2827 0.930 . S
H2832 C2829 0.929 . S
S2833 N2834 1.613 . S
S2833 N2835 1.610 . S
N2834 S2833 1.613 . S
N2834 C2837 1.350 . S
N2835 S2833 1.610 . S
N2835 C2836 1.351 . S
C2836 C2830 1.428 . S
C2836 N2835 1.351 . S
C2836 C2837 1.434 . S
C2837 C2828 1.429 . S
C2837 N2834 1.350 . S
C2837 C2836 1.434 . S
C2838 C2839 1.369 . S
C2838 C2840 1.419 . S
C2838 H2842 0.930 . S
C2839 C2838 1.369 . S
C2839 C2848 1.429 . S
C2840 C2838 1.419 . S
C2840 C2841 1.363 . S
C2840 H2843 0.929 . S
C2841 C2840 1.363 . S
C2841 C2847 1.428 . S
H2842 C2838 0.930 . S
H2843 C2840 0.929 . S
S2844 N2845 1.613 . S
S2844 N2846 1.610 . S
N2845 S2844 1.613 . S
N2845 C2848 1.350 . S
N2846 S2844 1.610 . S
N2846 C2847 1.351 . S
C2847 C2841 1.428 . S
C2847 N2846 1.351 . S
C2847 C2848 1.434 . S
C2848 C2839 1.429 . S
C2848 N2845 1.350 . S
C2848 C2847 1.434 . S
C2849 C2850 1.369 . S
C2849 C2851 1.414 . S
C2849 H2853 0.930 . S
C2850 C2849 1.369 . S
C2850 C2859 1.429 . S
C2851 C2849 1.414 . S
C2851 C2852 1.359 1_556 S
C2851 H2854 0.933 1_556 S
C2852 C2851 1.359 1_554 S
C2852 C2858 1.354 1_554 S
H2853 C2849 0.930 . S
H2854 C2851 0.933 1_554 S
S2855 N2856 1.613 . S
S2855 N2857 1.610 . S
N2856 S2855 1.613 . S
N2856 C2859 1.350 . S
N2857 S2855 1.610 . S
N2857 C2858 1.351 . S
C2858 C2852 1.354 1_556 S
C2858 N2857 1.351 . S
C2858 C2859 1.434 . S
C2859 C2850 1.429 . S
C2859 N2856 1.350 . S
C2859 C2858 1.434 . S
C2860 C2861 1.369 . S
C2860 C2862 1.419 . S
C2860 H2864 0.930 . S
C2861 C2860 1.369 . S
C2861 C2870 1.429 . S
C2862 C2860 1.419 . S
C2862 C2863 1.363 . S
C2862 H2865 0.929 . S
C2863 C2862 1.363 . S
C2863 C2869 1.428 . S
H2864 C2860 0.930 . S
H2865 C2862 0.929 . S
S2866 N2867 1.613 . S
S2866 N2868 1.610 . S
N2867 S2866 1.613 . S
N2867 C2870 1.350 . S
N2868 S2866 1.610 . S
N2868 C2869 1.351 . S
C2869 C2863 1.428 . S
C2869 N2868 1.351 . S
C2869 C2870 1.434 . S
C2870 C2861 1.429 . S
C2870 N2867 1.350 . S
C2870 C2869 1.434 . S
C2871 C2872 1.369 . S
C2871 C2873 1.419 . S
C2871 H2875 0.930 . S
C2872 C2871 1.369 . S
C2872 C2881 1.429 . S
C2873 C2871 1.419 . S
C2873 C2874 1.290 1_554 S
C2873 H2876 0.929 . S
C2874 C2873 1.290 1_556 S
C2874 C2880 1.413 1_556 S
H2875 C2871 0.930 . S
H2876 C2873 0.929 . S
S2877 N2878 1.597 1_556 S
S2877 N2879 1.619 . S
N2878 S2877 1.597 1_554 S
N2878 C2881 1.350 . S
N2879 S2877 1.619 . S
N2879 C2880 1.295 1_556 S
C2880 C2874 1.413 1_554 S
C2880 N2879 1.295 1_554 S
C2880 C2881 1.513 . S
C2881 C2872 1.429 . S
C2881 N2878 1.350 . S
C2881 C2880 1.513 . S
C2882 C2883 1.369 . S
C2882 C2884 1.419 . S
C2882 H2886 0.930 . S
C2883 C2882 1.369 . S
C2883 C2892 1.429 . S
C2884 C2882 1.419 . S
C2884 C2885 1.363 . S
C2884 H2887 0.929 . S
C2885 C2884 1.363 . S
C2885 C2891 1.428 . S
H2886 C2882 0.930 . S
H2887 C2884 0.929 . S
S2888 N2889 1.613 . S
S2888 N2890 1.610 . S
N2889 S2888 1.613 . S
N2889 C2892 1.350 . S
N2890 S2888 1.610 . S
N2890 C2891 1.351 . S
C2891 C2885 1.428 . S
C2891 N2890 1.351 . S
C2891 C2892 1.434 . S
C2892 C2883 1.429 . S
C2892 N2889 1.350 . S
C2892 C2891 1.434 . S
C2893 C2894 1.369 . S
C2893 C2895 1.419 . S
C2893 H2897 0.930 . S
C2894 C2893 1.369 . S
C2894 C2903 1.429 . S
C2895 C2893 1.419 . S
C2895 C2896 1.363 . S
C2895 H2898 0.929 . S
C2896 C2895 1.363 . S
C2896 C2902 1.428 . S
H2897 C2893 0.930 . S
H2898 C2895 0.929 . S
S2899 N2900 1.613 . S
S2899 N2901 1.610 . S
N2900 S2899 1.613 . S
N2900 C2903 1.350 . S
N2901 S2899 1.610 . S
N2901 C2902 1.351 . S
C2902 C2896 1.428 . S
C2902 N2901 1.351 . S
C2902 C2903 1.434 . S
C2903 C2894 1.429 . S
C2903 N2900 1.350 . S
C2903 C2902 1.434 . S
C2904 C2905 1.369 . S
C2904 C2906 1.419 . S
C2904 H2908 0.930 . S
C2905 C2904 1.369 . S
C2905 C2914 1.429 . S
C2906 C2904 1.419 . S
C2906 C2907 1.363 . S
C2906 H2909 0.929 . S
C2907 C2906 1.363 . S
C2907 C2913 1.428 . S
H2908 C2904 0.930 . S
H2909 C2906 0.929 . S
S2910 N2911 1.613 . S
S2910 N2912 1.610 . S
N2911 S2910 1.613 . S
N2911 C2914 1.350 . S
N2912 S2910 1.610 . S
N2912 C2913 1.351 . S
C2913 C2907 1.428 . S
C2913 N2912 1.351 . S
C2913 C2914 1.434 . S
C2914 C2905 1.429 . S
C2914 N2911 1.350 . S
C2914 C2913 1.434 . S
C2915 C2916 1.369 . S
C2915 C2917 1.419 . S
C2915 H2919 0.930 . S
C2916 C2915 1.369 . S
C2916 C2925 1.429 . S
C2917 C2915 1.419 . S
C2917 C2918 1.363 . S
C2917 H2920 0.929 . S
C2918 C2917 1.363 . S
C2918 C2924 1.428 . S
H2919 C2915 0.930 . S
H2920 C2917 0.929 . S
S2921 N2922 1.613 . S
S2921 N2923 1.610 . S
N2922 S2921 1.613 . S
N2922 C2925 1.350 . S
N2923 S2921 1.610 . S
N2923 C2924 1.351 . S
C2924 C2918 1.428 . S
C2924 N2923 1.351 . S
C2924 C2925 1.434 . S
C2925 C2916 1.429 . S
C2925 N2922 1.350 . S
C2925 C2924 1.434 . S
C2926 C2927 1.369 . S
C2926 C2928 1.417 1_455 S
C2926 H2930 0.930 . S
C2927 C2926 1.369 . S
C2927 C2936 1.429 . S
C2928 C2926 1.417 1_655 S
C2928 C2929 1.360 . S
C2928 H2931 0.930 . S
C2929 C2928 1.360 . S
C2929 C2935 1.354 1_655 S
H2930 C2926 0.930 . S
H2931 C2928 0.930 . S
S2932 N2933 1.613 . S
S2932 N2934 1.610 . S
N2933 S2932 1.613 . S
N2933 C2936 1.350 . S
N2934 S2932 1.610 . S
N2934 C2935 1.351 . S
C2935 C2929 1.354 1_455 S
C2935 N2934 1.351 . S
C2935 C2936 1.434 . S
C2936 C2927 1.429 . S
C2936 N2933 1.350 . S
C2936 C2935 1.434 . S
C2937 C2938 1.369 . S
C2937 C2939 1.419 . S
C2937 H2941 0.930 . S
C2938 C2937 1.369 . S
C2938 C2947 1.429 . S
C2939 C2937 1.419 . S
C2939 C2940 1.363 . S
C2939 H2942 0.929 . S
C2940 C2939 1.363 . S
C2940 C2946 1.428 . S
H2941 C2937 0.930 . S
H2942 C2939 0.929 . S
S2943 N2944 1.613 . S
S2943 N2945 1.610 . S
N2944 S2943 1.613 . S
N2944 C2947 1.350 . S
N2945 S2943 1.610 . S
N2945 C2946 1.351 . S
C2946 C2940 1.428 . S
C2946 N2945 1.351 . S
C2946 C2947 1.434 . S
C2947 C2938 1.429 . S
C2947 N2944 1.350 . S
C2947 C2946 1.434 . S
C2948 C2949 1.369 . S
C2948 C2950 1.419 . S
C2948 H2952 0.930 . S
C2949 C2948 1.369 . S
C2949 C2958 1.429 . S
C2950 C2948 1.419 . S
C2950 C2951 1.363 . S
C2950 H2953 0.929 . S
C2951 C2950 1.363 . S
C2951 C2957 1.428 . S
H2952 C2948 0.930 . S
H2953 C2950 0.929 . S
S2954 N2955 1.613 . S
S2954 N2956 1.610 . S
N2955 S2954 1.613 . S
N2955 C2958 1.350 . S
N2956 S2954 1.610 . S
N2956 C2957 1.351 . S
C2957 C2951 1.428 . S
C2957 N2956 1.351 . S
C2957 C2958 1.434 . S
C2958 C2949 1.429 . S
C2958 N2955 1.350 . S
C2958 C2957 1.434 . S
C2959 C2960 1.369 . S
C2959 C2961 1.419 . S
C2959 H2963 0.930 . S
C2960 C2959 1.369 . S
C2960 C2969 1.429 . S
C2961 C2959 1.419 . S
C2961 C2962 1.363 . S
C2961 H2964 0.929 . S
C2962 C2961 1.363 . S
C2962 C2968 1.428 . S
H2963 C2959 0.930 . S
H2964 C2961 0.929 . S
S2965 N2966 1.613 . S
S2965 N2967 1.610 . S
N2966 S2965 1.613 . S
N2966 C2969 1.350 . S
N2967 S2965 1.610 . S
N2967 C2968 1.351 . S
C2968 C2962 1.428 . S
C2968 N2967 1.351 . S
C2968 C2969 1.434 . S
C2969 C2960 1.429 . S
C2969 N2966 1.350 . S
C2969 C2968 1.434 . S
C2970 C2971 1.369 . S
C2970 C2972 1.412 1_455 S
C2970 H2974 0.930 . S
C2971 C2970 1.369 . S
C2971 C2980 1.429 . S
C2972 C2970 1.412 1_655 S
C2972 C2973 1.361 . S
C2972 H2975 0.936 . S
C2973 C2972 1.361 . S
C2973 C2979 1.353 1_655 S
H2974 C2970 0.930 . S
H2975 C2972 0.936 . S
S2976 N2977 1.613 . S
S2976 N2978 1.610 . S
N2977 S2976 1.613 . S
N2977 C2980 1.350 . S
N2978 S2976 1.610 . S
N2978 C2979 1.351 . S
C2979 C2973 1.353 1_455 S
C2979 N2978 1.351 . S
C2979 C2980 1.434 . S
C2980 C2971 1.429 . S
C2980 N2977 1.350 . S
C2980 C2979 1.434 . S
C2981 C2982 1.369 . S
C2981 C2983 1.419 . S
C2981 H2985 0.930 . S
C2982 C2981 1.369 . S
C2982 C2991 1.429 . S
C2983 C2981 1.419 . S
C2983 C2984 1.363 . S
C2983 H2986 0.929 . S
C2984 C2983 1.363 . S
C2984 C2990 1.428 . S
H2985 C2981 0.930 . S
H2986 C2983 0.929 . S
S2987 N2988 1.613 . S
S2987 N2989 1.610 . S
N2988 S2987 1.613 . S
N2988 C2991 1.350 . S
N2989 S2987 1.610 . S
N2989 C2990 1.351 . S
C2990 C2984 1.428 . S
C2990 N2989 1.351 . S
C2990 C2991 1.434 . S
C2991 C2982 1.429 . S
C2991 N2988 1.350 . S
C2991 C2990 1.434 . S
C2992 C2993 1.369 . S
C2992 C2994 1.419 . S
C2992 H2996 0.930 . S
C2993 C2992 1.369 . S
C2993 C3002 1.429 . S
C2994 C2992 1.419 . S
C2994 C2995 1.363 . S
C2994 H2997 0.929 . S
C2995 C2994 1.363 . S
C2995 C3001 1.428 . S
H2996 C2992 0.930 . S
H2997 C2994 0.929 . S
S2998 N2999 1.613 . S
S2998 N3000 1.610 . S
N2999 S2998 1.613 . S
N2999 C3002 1.350 . S
N3000 S2998 1.610 . S
N3000 C3001 1.351 . S
C3001 C2995 1.428 . S
C3001 N3000 1.351 . S
C3001 C3002 1.434 . S
C3002 C2993 1.429 . S
C3002 N2999 1.350 . S
C3002 C3001 1.434 . S
C3003 C3004 1.369 . S
C3003 C3005 1.419 . S
C3003 H3007 0.930 . S
C3004 C3003 1.369 . S
C3004 C3013 1.429 . S
C3005 C3003 1.419 . S
C3005 C3006 1.363 . S
C3005 H3008 0.929 . S
C3006 C3005 1.363 . S
C3006 C3012 1.428 . S
H3007 C3003 0.930 . S
H3008 C3005 0.929 . S
S3009 N3010 1.613 . S
S3009 N3011 1.610 . S
N3010 S3009 1.613 . S
N3010 C3013 1.350 . S
N3011 S3009 1.610 . S
N3011 C3012 1.351 . S
C3012 C3006 1.428 . S
C3012 N3011 1.351 . S
C3012 C3013 1.434 . S
C3013 C3004 1.429 . S
C3013 N3010 1.350 . S
C3013 C3012 1.434 . S
C3014 C3015 1.369 . S
C3014 C3016 1.419 . S
C3014 H3018 0.930 . S
C3015 C3014 1.369 . S
C3015 C3024 1.429 . S
C3016 C3014 1.419 . S
C3016 C3017 1.363 . S
C3016 H3019 0.929 . S
C3017 C3016 1.363 . S
C3017 C3023 1.428 . S
H3018 C3014 0.930 . S
H3019 C3016 0.929 . S
S3020 N3021 1.613 . S
S3020 N3022 1.610 . S
N3021 S3020 1.613 . S
N3021 C3024 1.350 . S
N3022 S3020 1.610 . S
N3022 C3023 1.351 . S
C3023 C3017 1.428 . S
C3023 N3022 1.351 . S
C3023 C3024 1.434 . S
C3024 C3015 1.429 . S
C3024 N3021 1.350 . S
C3024 C3023 1.434 . S
C3025 C3026 1.369 . S
C3025 C3027 1.419 . S
C3025 H3029 0.930 . S
C3026 C3025 1.369 . S
C3026 C3035 1.429 . S
C3027 C3025 1.419 . S
C3027 C3028 1.363 . S
C3027 H3030 0.929 . S
C3028 C3027 1.363 . S
C3028 C3034 1.428 . S
H3029 C3025 0.930 . S
H3030 C3027 0.929 . S
S3031 N3032 1.613 . S
S3031 N3033 1.610 . S
N3032 S3031 1.613 . S
N3032 C3035 1.350 . S
N3033 S3031 1.610 . S
N3033 C3034 1.351 . S
C3034 C3028 1.428 . S
C3034 N3033 1.351 . S
C3034 C3035 1.434 . S
C3035 C3026 1.429 . S
C3035 N3032 1.350 . S
C3035 C3034 1.434 . S
C3036 C3037 1.369 . S
C3036 C3038 1.419 . S
C3036 H3040 0.930 . S
C3037 C3036 1.369 . S
C3037 C3046 1.429 . S
C3038 C3036 1.419 . S
C3038 C3039 1.363 . S
C3038 H3041 0.929 . S
C3039 C3038 1.363 . S
C3039 C3045 1.428 . S
H3040 C3036 0.930 . S
H3041 C3038 0.929 . S
S3042 N3043 1.613 . S
S3042 N3044 1.610 . S
N3043 S3042 1.613 . S
N3043 C3046 1.350 . S
N3044 S3042 1.610 . S
N3044 C3045 1.351 . S
C3045 C3039 1.428 . S
C3045 N3044 1.351 . S
C3045 C3046 1.434 . S
C3046 C3037 1.429 . S
C3046 N3043 1.350 . S
C3046 C3045 1.434 . S
C3047 C3048 1.369 . S
C3047 C3049 1.419 . S
C3047 H3051 0.930 . S
C3048 C3047 1.369 . S
C3048 C3057 1.429 . S
C3049 C3047 1.419 . S
C3049 C3050 1.363 . S
C3049 H3052 0.929 . S
C3050 C3049 1.363 . S
C3050 C3056 1.428 . S
H3051 C3047 0.930 . S
H3052 C3049 0.929 . S
S3053 N3054 1.613 . S
S3053 N3055 1.610 . S
N3054 S3053 1.613 . S
N3054 C3057 1.350 . S
N3055 S3053 1.610 . S
N3055 C3056 1.351 . S
C3056 C3050 1.428 . S
C3056 N3055 1.351 . S
C3056 C3057 1.434 . S
C3057 C3048 1.429 . S
C3057 N3054 1.350 . S
C3057 C3056 1.434 . S
C3058 C3059 1.369 . S
C3058 C3060 1.419 . S
C3058 H3062 0.930 . S
C3059 C3058 1.369 . S
C3059 C3068 1.429 . S
C3060 C3058 1.419 . S
C3060 C3061 1.363 . S
C3060 H3063 0.929 . S
C3061 C3060 1.363 . S
C3061 C3067 1.428 . S
H3062 C3058 0.930 . S
H3063 C3060 0.929 . S
S3064 N3065 1.613 . S
S3064 N3066 1.610 . S
N3065 S3064 1.613 . S
N3065 C3068 1.350 . S
N3066 S3064 1.610 . S
N3066 C3067 1.351 . S
C3067 C3061 1.428 . S
C3067 N3066 1.351 . S
C3067 C3068 1.434 . S
C3068 C3059 1.429 . S
C3068 N3065 1.350 . S
C3068 C3067 1.434 . S
C3069 C3070 1.369 . S
C3069 C3071 1.419 . S
C3069 H3073 0.930 . S
C3070 C3069 1.369 . S
C3070 C3079 1.429 . S
C3071 C3069 1.419 . S
C3071 C3072 1.363 . S
C3071 H3074 0.929 . S
C3072 C3071 1.363 . S
C3072 C3078 1.428 . S
H3073 C3069 0.930 . S
H3074 C3071 0.929 . S
S3075 N3076 1.613 . S
S3075 N3077 1.610 . S
N3076 S3075 1.613 . S
N3076 C3079 1.350 . S
N3077 S3075 1.610 . S
N3077 C3078 1.351 . S
C3078 C3072 1.428 . S
C3078 N3077 1.351 . S
C3078 C3079 1.434 . S
C3079 C3070 1.429 . S
C3079 N3076 1.350 . S
C3079 C3078 1.434 . S
C3080 C3081 1.369 . S
C3080 C3082 1.419 . S
C3080 H3084 0.930 . S
C3081 C3080 1.369 . S
C3081 C3090 1.429 . S
C3082 C3080 1.419 . S
C3082 C3083 1.363 . S
C3082 H3085 0.929 . S
C3083 C3082 1.363 . S
C3083 C3089 1.428 . S
H3084 C3080 0.930 . S
H3085 C3082 0.929 . S
S3086 N3087 1.613 . S
S3086 N3088 1.610 . S
N3087 S3086 1.613 . S
N3087 C3090 1.350 . S
N3088 S3086 1.610 . S
N3088 C3089 1.351 . S
C3089 C3083 1.428 . S
C3089 N3088 1.351 . S
C3089 C3090 1.434 . S
C3090 C3081 1.429 . S
C3090 N3087 1.350 . S
C3090 C3089 1.434 . S
C3091 C3092 1.369 . S
C3091 C3093 1.419 . S
C3091 H3095 0.930 . S
C3092 C3091 1.369 . S
C3092 C3101 1.429 . S
C3093 C3091 1.419 . S
C3093 C3094 1.363 . S
C3093 H3096 0.929 . S
C3094 C3093 1.363 . S
C3094 C3100 1.428 . S
H3095 C3091 0.930 . S
H3096 C3093 0.929 . S
S3097 N3098 1.613 . S
S3097 N3099 1.610 . S
N3098 S3097 1.613 . S
N3098 C3101 1.350 . S
N3099 S3097 1.610 . S
N3099 C3100 1.351 . S
C3100 C3094 1.428 . S
C3100 N3099 1.351 . S
C3100 C3101 1.434 . S
C3101 C3092 1.429 . S
C3101 N3098 1.350 . S
C3101 C3100 1.434 . S
C3102 C3103 1.369 . S
C3102 C3104 1.419 . S
C3102 H3106 0.930 . S
C3103 C3102 1.369 . S
C3103 C3112 1.429 . S
C3104 C3102 1.419 . S
C3104 C3105 1.363 . S
C3104 H3107 0.929 . S
C3105 C3104 1.363 . S
C3105 C3111 1.428 . S
H3106 C3102 0.930 . S
H3107 C3104 0.929 . S
S3108 N3109 1.613 . S
S3108 N3110 1.610 . S
N3109 S3108 1.613 . S
N3109 C3112 1.350 . S
N3110 S3108 1.610 . S
N3110 C3111 1.351 . S
C3111 C3105 1.428 . S
C3111 N3110 1.351 . S
C3111 C3112 1.434 . S
C3112 C3103 1.429 . S
C3112 N3109 1.350 . S
C3112 C3111 1.434 . S
C3113 C3114 1.369 . S
C3113 C3115 1.427 1_554 S
C3113 H3117 0.930 . S
C3114 C3113 1.369 . S
C3114 C3123 1.429 . S
C3115 C3113 1.427 1_556 S
C3115 C3116 1.360 . S
C3115 H3118 0.921 . S
C3116 C3115 1.360 . S
C3116 C3122 1.354 1_556 S
H3117 C3113 0.930 . S
H3118 C3115 0.921 . S
S3119 N3120 1.613 . S
S3119 N3121 1.610 . S
N3120 S3119 1.613 . S
N3120 C3123 1.350 . S
N3121 S3119 1.610 . S
N3121 C3122 1.351 . S
C3122 C3116 1.354 1_554 S
C3122 N3121 1.351 . S
C3122 C3123 1.434 . S
C3123 C3114 1.429 . S
C3123 N3120 1.350 . S
C3123 C3122 1.434 . S
C3124 C3125 1.369 . S
C3124 C3126 1.419 . S
C3124 H3128 0.930 . S
C3125 C3124 1.369 . S
C3125 C3134 1.429 . S
C3126 C3124 1.419 . S
C3126 C3127 1.363 . S
C3126 H3129 0.929 . S
C3127 C3126 1.363 . S
C3127 C3133 1.428 . S
H3128 C3124 0.930 . S
H3129 C3126 0.929 . S
S3130 N3131 1.613 . S
S3130 N3132 1.610 . S
N3131 S3130 1.613 . S
N3131 C3134 1.350 . S
N3132 S3130 1.610 . S
N3132 C3133 1.351 . S
C3133 C3127 1.428 . S
C3133 N3132 1.351 . S
C3133 C3134 1.434 . S
C3134 C3125 1.429 . S
C3134 N3131 1.350 . S
C3134 C3133 1.434 . S
C3135 C3136 1.369 . S
C3135 C3137 1.419 . S
C3135 H3139 0.930 . S
C3136 C3135 1.369 . S
C3136 C3145 1.429 . S
C3137 C3135 1.419 . S
C3137 C3138 1.305 1_556 S
C3137 H3140 0.929 . S
C3138 C3137 1.305 1_554 S
C3138 C3144 1.405 1_554 S
H3139 C3135 0.930 . S
H3140 C3137 0.929 . S
S3141 N3142 1.613 . S
S3141 N3143 1.610 1_556 S
N3142 S3141 1.613 . S
N3142 C3145 1.350 . S
N3143 S3141 1.610 1_554 S
N3143 C3144 1.351 1_554 S
C3144 C3138 1.405 1_556 S
C3144 N3143 1.351 1_556 S
C3144 C3145 1.434 . S
C3145 C3136 1.429 . S
C3145 N3142 1.350 . S
C3145 C3144 1.434 . S
C3146 C3147 1.369 . S
C3146 C3148 1.419 . S
C3146 H3150 0.930 . S
C3147 C3146 1.369 . S
C3147 C3156 1.429 . S
C3148 C3146 1.419 . S
C3148 C3149 1.363 . S
C3148 H3151 0.929 . S
C3149 C3148 1.363 . S
C3149 C3155 1.428 . S
H3150 C3146 0.930 . S
H3151 C3148 0.929 . S
S3152 N3153 1.613 . S
S3152 N3154 1.610 . S
N3153 S3152 1.613 . S
N3153 C3156 1.350 . S
N3154 S3152 1.610 . S
N3154 C3155 1.351 . S
C3155 C3149 1.428 . S
C3155 N3154 1.351 . S
C3155 C3156 1.434 . S
C3156 C3147 1.429 . S
C3156 N3153 1.350 . S
C3156 C3155 1.434 . S
C3157 C3158 1.369 . S
C3157 C3159 1.419 . S
C3157 H3161 0.930 . S
C3158 C3157 1.369 . S
C3158 C3167 1.429 . S
C3159 C3157 1.419 . S
C3159 C3160 1.363 . S
C3159 H3162 0.929 . S
C3160 C3159 1.363 . S
C3160 C3166 1.428 . S
H3161 C3157 0.930 . S
H3162 C3159 0.929 . S
S3163 N3164 1.613 . S
S3163 N3165 1.610 . S
N3164 S3163 1.613 . S
N3164 C3167 1.350 . S
N3165 S3163 1.610 . S
N3165 C3166 1.351 . S
C3166 C3160 1.428 . S
C3166 N3165 1.351 . S
C3166 C3167 1.434 . S
C3167 C3158 1.429 . S
C3167 N3164 1.350 . S
C3167 C3166 1.434 . S
C3168 C3169 1.369 . S
C3168 C3170 1.419 . S
C3168 H3172 0.930 . S
C3169 C3168 1.369 . S
C3169 C3178 1.429 . S
C3170 C3168 1.419 . S
C3170 C3171 1.363 . S
C3170 H3173 0.929 . S
C3171 C3170 1.363 . S
C3171 C3177 1.428 . S
H3172 C3168 0.930 . S
H3173 C3170 0.929 . S
S3174 N3175 1.613 . S
S3174 N3176 1.610 . S
N3175 S3174 1.613 . S
N3175 C3178 1.350 . S
N3176 S3174 1.610 . S
N3176 C3177 1.351 . S
C3177 C3171 1.428 . S
C3177 N3176 1.351 . S
C3177 C3178 1.434 . S
C3178 C3169 1.429 . S
C3178 N3175 1.350 . S
C3178 C3177 1.434 . S
C3179 C3180 1.369 . S
C3179 C3181 1.419 . S
C3179 H3183 0.930 . S
C3180 C3179 1.369 . S
C3180 C3189 1.429 . S
C3181 C3179 1.419 . S
C3181 C3182 1.363 . S
C3181 H3184 0.929 . S
C3182 C3181 1.363 . S
C3182 C3188 1.428 . S
H3183 C3179 0.930 . S
H3184 C3181 0.929 . S
S3185 N3186 1.613 . S
S3185 N3187 1.610 . S
N3186 S3185 1.613 . S
N3186 C3189 1.350 . S
N3187 S3185 1.610 . S
N3187 C3188 1.351 . S
C3188 C3182 1.428 . S
C3188 N3187 1.351 . S
C3188 C3189 1.434 . S
C3189 C3180 1.429 . S
C3189 N3186 1.350 . S
C3189 C3188 1.434 . S
C3190 C3191 1.369 . S
C3190 C3192 1.419 . S
C3190 H3194 0.930 . S
C3191 C3190 1.369 . S
C3191 C3200 1.429 . S
C3192 C3190 1.419 . S
C3192 C3193 1.363 . S
C3192 H3195 0.929 . S
C3193 C3192 1.363 . S
C3193 C3199 1.428 . S
H3194 C3190 0.930 . S
H3195 C3192 0.929 . S
S3196 N3197 1.613 . S
S3196 N3198 1.610 . S
N3197 S3196 1.613 . S
N3197 C3200 1.350 . S
N3198 S3196 1.610 . S
N3198 C3199 1.351 . S
C3199 C3193 1.428 . S
C3199 N3198 1.351 . S
C3199 C3200 1.434 . S
C3200 C3191 1.429 . S
C3200 N3197 1.350 . S
C3200 C3199 1.434 . S
C3201 C3202 1.369 . S
C3201 C3203 1.419 . S
C3201 H3205 0.930 . S
C3202 C3201 1.369 . S
C3202 C3211 1.429 . S
C3203 C3201 1.419 . S
C3203 C3204 1.363 . S
C3203 H3206 0.929 . S
C3204 C3203 1.363 . S
C3204 C3210 1.428 . S
H3205 C3201 0.930 . S
H3206 C3203 0.929 . S
S3207 N3208 1.613 . S
S3207 N3209 1.610 . S
N3208 S3207 1.613 . S
N3208 C3211 1.350 . S
N3209 S3207 1.610 . S
N3209 C3210 1.351 . S
C3210 C3204 1.428 . S
C3210 N3209 1.351 . S
C3210 C3211 1.434 . S
C3211 C3202 1.429 . S
C3211 N3208 1.350 . S
C3211 C3210 1.434 . S
C3212 C3213 1.369 . S
C3212 C3214 1.419 . S
C3212 H3216 0.930 . S
C3213 C3212 1.369 . S
C3213 C3222 1.429 . S
C3214 C3212 1.419 . S
C3214 C3215 1.363 . S
C3214 H3217 0.929 . S
C3215 C3214 1.363 . S
C3215 C3221 1.428 . S
H3216 C3212 0.930 . S
H3217 C3214 0.929 . S
S3218 N3219 1.613 . S
S3218 N3220 1.610 . S
N3219 S3218 1.613 . S
N3219 C3222 1.350 . S
N3220 S3218 1.610 . S
N3220 C3221 1.351 . S
C3221 C3215 1.428 . S
C3221 N3220 1.351 . S
C3221 C3222 1.434 . S
C3222 C3213 1.429 . S
C3222 N3219 1.350 . S
C3222 C3221 1.434 . S
C3223 C3224 1.369 . S
C3223 C3225 1.419 . S
C3223 H3227 0.930 . S
C3224 C3223 1.369 . S
C3224 C3233 1.429 . S
C3225 C3223 1.419 . S
C3225 C3226 1.363 . S
C3225 H3228 0.929 . S
C3226 C3225 1.363 . S
C3226 C3232 1.428 . S
H3227 C3223 0.930 . S
H3228 C3225 0.929 . S
S3229 N3230 1.613 . S
S3229 N3231 1.610 . S
N3230 S3229 1.613 . S
N3230 C3233 1.350 . S
N3231 S3229 1.610 . S
N3231 C3232 1.351 . S
C3232 C3226 1.428 . S
C3232 N3231 1.351 . S
C3232 C3233 1.434 . S
C3233 C3224 1.429 . S
C3233 N3230 1.350 . S
C3233 C3232 1.434 . S
C3234 C3235 1.369 . S
C3234 C3236 1.419 . S
C3234 H3238 0.930 . S
C3235 C3234 1.369 . S
C3235 C3244 1.429 . S
C3236 C3234 1.419 . S
C3236 C3237 1.363 . S
C3236 H3239 0.929 . S
C3237 C3236 1.363 . S
C3237 C3243 1.428 . S
H3238 C3234 0.930 . S
H3239 C3236 0.929 . S
S3240 N3241 1.613 . S
S3240 N3242 1.610 . S
N3241 S3240 1.613 . S
N3241 C3244 1.350 . S
N3242 S3240 1.610 . S
N3242 C3243 1.351 . S
C3243 C3237 1.428 . S
C3243 N3242 1.351 . S
C3243 C3244 1.434 . S
C3244 C3235 1.429 . S
C3244 N3241 1.350 . S
C3244 C3243 1.434 . S
C3245 C3246 1.369 . S
C3245 C3247 1.419 . S
C3245 H3249 0.930 . S
C3246 C3245 1.369 . S
C3246 C3255 1.429 . S
C3247 C3245 1.419 . S
C3247 C3248 1.363 . S
C3247 H3250 0.929 . S
C3248 C3247 1.363 . S
C3248 C3254 1.428 . S
H3249 C3245 0.930 . S
H3250 C3247 0.929 . S
S3251 N3252 1.613 . S
S3251 N3253 1.610 . S
N3252 S3251 1.613 . S
N3252 C3255 1.350 . S
N3253 S3251 1.610 . S
N3253 C3254 1.351 . S
C3254 C3248 1.428 . S
C3254 N3253 1.351 . S
C3254 C3255 1.434 . S
C3255 C3246 1.429 . S
C3255 N3252 1.350 . S
C3255 C3254 1.434 . S
C3256 C3257 1.369 . S
C3256 C3258 1.419 . S
C3256 H3260 0.930 . S
C3257 C3256 1.369 . S
C3257 C3266 1.429 . S
C3258 C3256 1.419 . S
C3258 C3259 1.363 . S
C3258 H3261 0.929 . S
C3259 C3258 1.363 . S
C3259 C3265 1.428 . S
H3260 C3256 0.930 . S
H3261 C3258 0.929 . S
S3262 N3263 1.613 . S
S3262 N3264 1.610 . S
N3263 S3262 1.613 . S
N3263 C3266 1.350 . S
N3264 S3262 1.610 . S
N3264 C3265 1.351 . S
C3265 C3259 1.428 . S
C3265 N3264 1.351 . S
C3265 C3266 1.434 . S
C3266 C3257 1.429 . S
C3266 N3263 1.350 . S
C3266 C3265 1.434 . S
C3267 C3268 1.369 . S
C3267 C3269 1.419 . S
C3267 H3271 0.930 . S
C3268 C3267 1.369 . S
C3268 C3277 1.429 . S
C3269 C3267 1.419 . S
C3269 C3270 1.363 . S
C3269 H3272 0.929 . S
C3270 C3269 1.363 . S
C3270 C3276 1.428 . S
H3271 C3267 0.930 . S
H3272 C3269 0.929 . S
S3273 N3274 1.613 . S
S3273 N3275 1.610 . S
N3274 S3273 1.613 . S
N3274 C3277 1.350 . S
N3275 S3273 1.610 . S
N3275 C3276 1.351 . S
C3276 C3270 1.428 . S
C3276 N3275 1.351 . S
C3276 C3277 1.434 . S
C3277 C3268 1.429 . S
C3277 N3274 1.350 . S
C3277 C3276 1.434 . S
C3278 C3279 1.369 . S
C3278 C3280 1.419 . S
C3278 H3282 0.930 . S
C3279 C3278 1.369 . S
C3279 C3288 1.429 . S
C3280 C3278 1.419 . S
C3280 C3281 1.363 . S
C3280 H3283 0.929 . S
C3281 C3280 1.363 . S
C3281 C3287 1.428 . S
H3282 C3278 0.930 . S
H3283 C3280 0.929 . S
S3284 N3285 1.613 . S
S3284 N3286 1.610 . S
N3285 S3284 1.613 . S
N3285 C3288 1.350 . S
N3286 S3284 1.610 . S
N3286 C3287 1.351 . S
C3287 C3281 1.428 . S
C3287 N3286 1.351 . S
C3287 C3288 1.434 . S
C3288 C3279 1.429 . S
C3288 N3285 1.350 . S
C3288 C3287 1.434 . S
C3289 C3290 1.369 . S
C3289 C3291 1.419 . S
C3289 H3293 0.930 . S
C3290 C3289 1.369 . S
C3290 C3299 1.429 . S
C3291 C3289 1.419 . S
C3291 C3292 1.363 . S
C3291 H3294 0.929 . S
C3292 C3291 1.363 . S
C3292 C3298 1.428 . S
H3293 C3289 0.930 . S
H3294 C3291 0.929 . S
S3295 N3296 1.613 . S
S3295 N3297 1.610 . S
N3296 S3295 1.613 . S
N3296 C3299 1.350 . S
N3297 S3295 1.610 . S
N3297 C3298 1.351 . S
C3298 C3292 1.428 . S
C3298 N3297 1.351 . S
C3298 C3299 1.434 . S
C3299 C3290 1.429 . S
C3299 N3296 1.350 . S
C3299 C3298 1.434 . S
C3300 C3301 1.369 . S
C3300 C3302 1.419 . S
C3300 H3304 0.930 . S
C3301 C3300 1.369 . S
C3301 C3310 1.429 . S
C3302 C3300 1.419 . S
C3302 C3303 1.363 . S
C3302 H3305 0.929 . S
C3303 C3302 1.363 . S
C3303 C3309 1.428 . S
H3304 C3300 0.930 . S
H3305 C3302 0.929 . S
S3306 N3307 1.613 . S
S3306 N3308 1.610 . S
N3307 S3306 1.613 . S
N3307 C3310 1.350 . S
N3308 S3306 1.610 . S
N3308 C3309 1.351 . S
C3309 C3303 1.428 . S
C3309 N3308 1.351 . S
C3309 C3310 1.434 . S
C3310 C3301 1.429 . S
C3310 N3307 1.350 . S
C3310 C3309 1.434 . S
C3311 C3312 1.369 . S
C3311 C3313 1.419 . S
C3311 H3315 0.930 . S
C3312 C3311 1.369 . S
C3312 C3321 1.429 . S
C3313 C3311 1.419 . S
C3313 C3314 1.363 . S
C3313 H3316 0.929 . S
C3314 C3313 1.363 . S
C3314 C3320 1.428 . S
H3315 C3311 0.930 . S
H3316 C3313 0.929 . S
S3317 N3318 1.613 . S
S3317 N3319 1.610 . S
N3318 S3317 1.613 . S
N3318 C3321 1.350 . S
N3319 S3317 1.610 . S
N3319 C3320 1.351 . S
C3320 C3314 1.428 . S
C3320 N3319 1.351 . S
C3320 C3321 1.434 . S
C3321 C3312 1.429 . S
C3321 N3318 1.350 . S
C3321 C3320 1.434 . S
C3322 C3323 1.369 . S
C3322 C3324 1.419 . S
C3322 H3326 0.930 . S
C3323 C3322 1.369 . S
C3323 C3332 1.429 . S
C3324 C3322 1.419 . S
C3324 C3325 1.363 . S
C3324 H3327 0.929 . S
C3325 C3324 1.363 . S
C3325 C3331 1.428 . S
H3326 C3322 0.930 . S
H3327 C3324 0.929 . S
S3328 N3329 1.613 . S
S3328 N3330 1.610 . S
N3329 S3328 1.613 . S
N3329 C3332 1.350 . S
N3330 S3328 1.610 . S
N3330 C3331 1.351 . S
C3331 C3325 1.428 . S
C3331 N3330 1.351 . S
C3331 C3332 1.434 . S
C3332 C3323 1.429 . S
C3332 N3329 1.350 . S
C3332 C3331 1.434 . S
C3333 C3334 1.369 . S
C3333 C3335 1.419 . S
C3333 H3337 0.930 . S
C3334 C3333 1.369 . S
C3334 C3343 1.429 . S
C3335 C3333 1.419 . S
C3335 C3336 1.363 . S
C3335 H3338 0.929 . S
C3336 C3335 1.363 . S
C3336 C3342 1.428 . S
H3337 C3333 0.930 . S
H3338 C3335 0.929 . S
S3339 N3340 1.613 . S
S3339 N3341 1.610 . S
N3340 S3339 1.613 . S
N3340 C3343 1.350 . S
N3341 S3339 1.610 . S
N3341 C3342 1.351 . S
C3342 C3336 1.428 . S
C3342 N3341 1.351 . S
C3342 C3343 1.434 . S
C3343 C3334 1.429 . S
C3343 N3340 1.350 . S
C3343 C3342 1.434 . S
C3344 C3345 1.369 . S
C3344 C3346 1.419 . S
C3344 H3348 0.930 . S
C3345 C3344 1.369 . S
C3345 C3354 1.429 . S
C3346 C3344 1.419 . S
C3346 C3347 1.363 . S
C3346 H3349 0.929 . S
C3347 C3346 1.363 . S
C3347 C3353 1.428 . S
H3348 C3344 0.930 . S
H3349 C3346 0.929 . S
S3350 N3351 1.613 . S
S3350 N3352 1.610 . S
N3351 S3350 1.613 . S
N3351 C3354 1.350 . S
N3352 S3350 1.610 . S
N3352 C3353 1.351 . S
C3353 C3347 1.428 . S
C3353 N3352 1.351 . S
C3353 C3354 1.434 . S
C3354 C3345 1.429 . S
C3354 N3351 1.350 . S
C3354 C3353 1.434 . S
C3355 C3356 1.369 . S
C3355 C3357 1.419 . S
C3355 H3359 0.930 . S
C3356 C3355 1.369 . S
C3356 C3365 1.429 . S
C3357 C3355 1.419 . S
C3357 C3358 1.363 . S
C3357 H3360 0.929 . S
C3358 C3357 1.363 . S
C3358 C3364 1.428 . S
H3359 C3355 0.930 . S
H3360 C3357 0.929 . S
S3361 N3362 1.613 . S
S3361 N3363 1.610 . S
N3362 S3361 1.613 . S
N3362 C3365 1.350 . S
N3363 S3361 1.610 . S
N3363 C3364 1.351 . S
C3364 C3358 1.428 . S
C3364 N3363 1.351 . S
C3364 C3365 1.434 . S
C3365 C3356 1.429 . S
C3365 N3362 1.350 . S
C3365 C3364 1.434 . S
C3366 C3367 1.369 . S
C3366 C3368 1.419 . S
C3366 H3370 0.930 . S
C3367 C3366 1.369 . S
C3367 C3376 1.429 . S
C3368 C3366 1.419 . S
C3368 C3369 1.363 . S
C3368 H3371 0.929 . S
C3369 C3368 1.363 . S
C3369 C3375 1.428 . S
H3370 C3366 0.930 . S
H3371 C3368 0.929 . S
S3372 N3373 1.613 . S
S3372 N3374 1.610 . S
N3373 S3372 1.613 . S
N3373 C3376 1.350 . S
N3374 S3372 1.610 . S
N3374 C3375 1.351 . S
C3375 C3369 1.428 . S
C3375 N3374 1.351 . S
C3375 C3376 1.434 . S
C3376 C3367 1.429 . S
C3376 N3373 1.350 . S
C3376 C3375 1.434 . S
C3377 C3378 1.369 . S
C3377 C3379 1.419 . S
C3377 H3381 0.930 . S
C3378 C3377 1.369 . S
C3378 C3387 1.429 . S
C3379 C3377 1.419 . S
C3379 C3380 1.363 . S
C3379 H3382 0.929 . S
C3380 C3379 1.363 . S
C3380 C3386 1.428 . S
H3381 C3377 0.930 . S
H3382 C3379 0.929 . S
S3383 N3384 1.613 . S
S3383 N3385 1.610 . S
N3384 S3383 1.613 . S
N3384 C3387 1.350 . S
N3385 S3383 1.610 . S
N3385 C3386 1.351 . S
C3386 C3380 1.428 . S
C3386 N3385 1.351 . S
C3386 C3387 1.434 . S
C3387 C3378 1.429 . S
C3387 N3384 1.350 . S
C3387 C3386 1.434 . S
C3388 C3389 1.369 . S
C3388 C3390 1.419 . S
C3388 H3392 0.930 . S
C3389 C3388 1.369 . S
C3389 C3398 1.429 . S
C3390 C3388 1.419 . S
C3390 C3391 1.363 . S
C3390 H3393 0.929 . S
C3391 C3390 1.363 . S
C3391 C3397 1.428 . S
H3392 C3388 0.930 . S
H3393 C3390 0.929 . S
S3394 N3395 1.613 . S
S3394 N3396 1.610 . S
N3395 S3394 1.613 . S
N3395 C3398 1.350 . S
N3396 S3394 1.610 . S
N3396 C3397 1.351 . S
C3397 C3391 1.428 . S
C3397 N3396 1.351 . S
C3397 C3398 1.434 . S
C3398 C3389 1.429 . S
C3398 N3395 1.350 . S
C3398 C3397 1.434 . S
C3399 C3400 1.369 . S
C3399 C3401 1.419 . S
C3399 H3403 0.930 . S
C3400 C3399 1.369 . S
C3400 C3409 1.429 . S
C3401 C3399 1.419 . S
C3401 C3402 1.363 . S
C3401 H3404 0.929 . S
C3402 C3401 1.363 . S
C3402 C3408 1.428 . S
H3403 C3399 0.930 . S
H3404 C3401 0.929 . S
S3405 N3406 1.613 . S
S3405 N3407 1.610 . S
N3406 S3405 1.613 . S
N3406 C3409 1.350 . S
N3407 S3405 1.610 . S
N3407 C3408 1.351 . S
C3408 C3402 1.428 . S
C3408 N3407 1.351 . S
C3408 C3409 1.434 . S
C3409 C3400 1.429 . S
C3409 N3406 1.350 . S
C3409 C3408 1.434 . S
C3410 C3411 1.369 . S
C3410 C3412 1.419 . S
C3410 H3414 0.930 . S
C3411 C3410 1.369 . S
C3411 C3420 1.429 . S
C3412 C3410 1.419 . S
C3412 C3413 1.363 . S
C3412 H3415 0.929 . S
C3413 C3412 1.363 . S
C3413 C3419 1.428 . S
H3414 C3410 0.930 . S
H3415 C3412 0.929 . S
S3416 N3417 1.613 . S
S3416 N3418 1.610 . S
N3417 S3416 1.613 . S
N3417 C3420 1.350 . S
N3418 S3416 1.610 . S
N3418 C3419 1.351 . S
C3419 C3413 1.428 . S
C3419 N3418 1.351 . S
C3419 C3420 1.434 . S
C3420 C3411 1.429 . S
C3420 N3417 1.350 . S
C3420 C3419 1.434 . S
C3421 C3422 1.369 . S
C3421 C3423 1.419 . S
C3421 H3425 0.930 . S
C3422 C3421 1.369 . S
C3422 C3431 1.429 . S
C3423 C3421 1.419 . S
C3423 C3424 1.363 . S
C3423 H3426 0.929 . S
C3424 C3423 1.363 . S
C3424 C3430 1.428 . S
H3425 C3421 0.930 . S
H3426 C3423 0.929 . S
S3427 N3428 1.613 . S
S3427 N3429 1.610 . S
N3428 S3427 1.613 . S
N3428 C3431 1.350 . S
N3429 S3427 1.610 . S
N3429 C3430 1.351 . S
C3430 C3424 1.428 . S
C3430 N3429 1.351 . S
C3430 C3431 1.434 . S
C3431 C3422 1.429 . S
C3431 N3428 1.350 . S
C3431 C3430 1.434 . S
C3432 C3433 1.369 . S
C3432 C3434 1.419 . S
C3432 H3436 0.930 . S
C3433 C3432 1.369 . S
C3433 C3442 1.429 . S
C3434 C3432 1.419 . S
C3434 C3435 1.363 . S
C3434 H3437 0.929 . S
C3435 C3434 1.363 . S
C3435 C3441 1.428 . S
H3436 C3432 0.930 . S
H3437 C3434 0.929 . S
S3438 N3439 1.613 . S
S3438 N3440 1.610 . S
N3439 S3438 1.613 . S
N3439 C3442 1.350 . S
N3440 S3438 1.610 . S
N3440 C3441 1.351 . S
C3441 C3435 1.428 . S
C3441 N3440 1.351 . S
C3441 C3442 1.434 . S
C3442 C3433 1.429 . S
C3442 N3439 1.350 . S
C3442 C3441 1.434 . S
C3443 C3444 1.369 . S
C3443 C3445 1.419 . S
C3443 H3447 0.930 . S
C3444 C3443 1.369 . S
C3444 C3453 1.429 . S
C3445 C3443 1.419 . S
C3445 C3446 1.363 . S
C3445 H3448 0.929 . S
C3446 C3445 1.363 . S
C3446 C3452 1.428 . S
H3447 C3443 0.930 . S
H3448 C3445 0.929 . S
S3449 N3450 1.613 . S
S3449 N3451 1.610 . S
N3450 S3449 1.613 . S
N3450 C3453 1.350 . S
N3451 S3449 1.610 . S
N3451 C3452 1.351 . S
C3452 C3446 1.428 . S
C3452 N3451 1.351 . S
C3452 C3453 1.434 . S
C3453 C3444 1.429 . S
C3453 N3450 1.350 . S
C3453 C3452 1.434 . S
C3454 C3455 1.369 . S
C3454 C3456 1.419 . S
C3454 H3458 0.930 . S
C3455 C3454 1.369 . S
C3455 C3464 1.429 . S
C3456 C3454 1.419 . S
C3456 C3457 1.363 . S
C3456 H3459 0.929 . S
C3457 C3456 1.363 . S
C3457 C3463 1.428 . S
H3458 C3454 0.930 . S
H3459 C3456 0.929 . S
S3460 N3461 1.613 . S
S3460 N3462 1.610 . S
N3461 S3460 1.613 . S
N3461 C3464 1.350 . S
N3462 S3460 1.610 . S
N3462 C3463 1.351 . S
C3463 C3457 1.428 . S
C3463 N3462 1.351 . S
C3463 C3464 1.434 . S
C3464 C3455 1.429 . S
C3464 N3461 1.350 . S
C3464 C3463 1.434 . S
C3465 C3466 1.369 . S
C3465 C3467 1.419 . S
C3465 H3469 0.930 . S
C3466 C3465 1.369 . S
C3466 C3475 1.429 . S
C3467 C3465 1.419 . S
C3467 C3468 1.363 . S
C3467 H3470 0.929 . S
C3468 C3467 1.363 . S
C3468 C3474 1.428 . S
H3469 C3465 0.930 . S
H3470 C3467 0.929 . S
S3471 N3472 1.613 . S
S3471 N3473 1.610 . S
N3472 S3471 1.613 . S
N3472 C3475 1.350 . S
N3473 S3471 1.610 . S
N3473 C3474 1.351 . S
C3474 C3468 1.428 . S
C3474 N3473 1.351 . S
C3474 C3475 1.434 . S
C3475 C3466 1.429 . S
C3475 N3472 1.350 . S
C3475 C3474 1.434 . S
C3476 C3477 1.369 . S
C3476 C3478 1.419 . S
C3476 H3480 0.930 . S
C3477 C3476 1.369 . S
C3477 C3486 1.429 . S
C3478 C3476 1.419 . S
C3478 C3479 1.363 . S
C3478 H3481 0.929 . S
C3479 C3478 1.363 . S
C3479 C3485 1.428 . S
H3480 C3476 0.930 . S
H3481 C3478 0.929 . S
S3482 N3483 1.613 . S
S3482 N3484 1.610 . S
N3483 S3482 1.613 . S
N3483 C3486 1.350 . S
N3484 S3482 1.610 . S
N3484 C3485 1.351 . S
C3485 C3479 1.428 . S
C3485 N3484 1.351 . S
C3485 C3486 1.434 . S
C3486 C3477 1.429 . S
C3486 N3483 1.350 . S
C3486 C3485 1.434 . S
C3487 C3488 1.369 . S
C3487 C3489 1.419 . S
C3487 H3491 0.930 . S
C3488 C3487 1.369 . S
C3488 C3497 1.429 . S
C3489 C3487 1.419 . S
C3489 C3490 1.363 . S
C3489 H3492 0.929 . S
C3490 C3489 1.363 . S
C3490 C3496 1.428 . S
H3491 C3487 0.930 . S
H3492 C3489 0.929 . S
S3493 N3494 1.613 . S
S3493 N3495 1.610 . S
N3494 S3493 1.613 . S
N3494 C3497 1.350 . S
N3495 S3493 1.610 . S
N3495 C3496 1.351 . S
C3496 C3490 1.428 . S
C3496 N3495 1.351 . S
C3496 C3497 1.434 . S
C3497 C3488 1.429 . S
C3497 N3494 1.350 . S
C3497 C3496 1.434 . S
C3498 C3499 1.369 . S
C3498 C3500 1.419 . S
C3498 H3502 0.930 . S
C3499 C3498 1.369 . S
C3499 C3508 1.429 . S
C3500 C3498 1.419 . S
C3500 C3501 1.363 . S
C3500 H3503 0.929 . S
C3501 C3500 1.363 . S
C3501 C3507 1.428 . S
H3502 C3498 0.930 . S
H3503 C3500 0.929 . S
S3504 N3505 1.613 . S
S3504 N3506 1.610 . S
N3505 S3504 1.613 . S
N3505 C3508 1.350 . S
N3506 S3504 1.610 . S
N3506 C3507 1.351 . S
C3507 C3501 1.428 . S
C3507 N3506 1.351 . S
C3507 C3508 1.434 . S
C3508 C3499 1.429 . S
C3508 N3505 1.350 . S
C3508 C3507 1.434 . S
C3509 C3510 1.369 . S
C3509 C3511 1.419 . S
C3509 H3513 0.930 . S
C3510 C3509 1.369 . S
C3510 C3519 1.429 . S
C3511 C3509 1.419 . S
C3511 C3512 1.363 . S
C3511 H3514 0.929 . S
C3512 C3511 1.363 . S
C3512 C3518 1.428 . S
H3513 C3509 0.930 . S
H3514 C3511 0.929 . S
S3515 N3516 1.613 . S
S3515 N3517 1.610 . S
N3516 S3515 1.613 . S
N3516 C3519 1.350 . S
N3517 S3515 1.610 . S
N3517 C3518 1.351 . S
C3518 C3512 1.428 . S
C3518 N3517 1.351 . S
C3518 C3519 1.434 . S
C3519 C3510 1.429 . S
C3519 N3516 1.350 . S
C3519 C3518 1.434 . S
C3520 C3521 1.369 . S
C3520 C3522 1.419 . S
C3520 H3524 0.930 . S
C3521 C3520 1.369 . S
C3521 C3530 1.429 . S
C3522 C3520 1.419 . S
C3522 C3523 1.363 . S
C3522 H3525 0.929 . S
C3523 C3522 1.363 . S
C3523 C3529 1.428 . S
H3524 C3520 0.930 . S
H3525 C3522 0.929 . S
S3526 N3527 1.613 . S
S3526 N3528 1.610 . S
N3527 S3526 1.613 . S
N3527 C3530 1.350 . S
N3528 S3526 1.610 . S
N3528 C3529 1.351 . S
C3529 C3523 1.428 . S
C3529 N3528 1.351 . S
C3529 C3530 1.434 . S
C3530 C3521 1.429 . S
C3530 N3527 1.350 . S
C3530 C3529 1.434 . S
C3531 C3532 1.369 . S
C3531 C3533 1.419 . S
C3531 H3535 0.930 . S
C3532 C3531 1.369 . S
C3532 C3541 1.429 . S
C3533 C3531 1.419 . S
C3533 C3534 1.363 . S
C3533 H3536 0.929 . S
C3534 C3533 1.363 . S
C3534 C3540 1.428 . S
H3535 C3531 0.930 . S
H3536 C3533 0.929 . S
S3537 N3538 1.613 . S
S3537 N3539 1.610 . S
N3538 S3537 1.613 . S
N3538 C3541 1.350 . S
N3539 S3537 1.610 . S
N3539 C3540 1.351 . S
C3540 C3534 1.428 . S
C3540 N3539 1.351 . S
C3540 C3541 1.434 . S
C3541 C3532 1.429 . S
C3541 N3538 1.350 . S
C3541 C3540 1.434 . S
C3542 C3543 1.369 . S
C3542 C3544 1.419 . S
C3542 H3546 0.930 . S
C3543 C3542 1.369 . S
C3543 C3552 1.429 . S
C3544 C3542 1.419 . S
C3544 C3545 1.363 . S
C3544 H3547 0.929 . S
C3545 C3544 1.363 . S
C3545 C3551 1.428 . S
H3546 C3542 0.930 . S
H3547 C3544 0.929 . S
S3548 N3549 1.613 . S
S3548 N3550 1.610 . S
N3549 S3548 1.613 . S
N3549 C3552 1.350 . S
N3550 S3548 1.610 . S
N3550 C3551 1.351 . S
C3551 C3545 1.428 . S
C3551 N3550 1.351 . S
C3551 C3552 1.434 . S
C3552 C3543 1.429 . S
C3552 N3549 1.350 . S
C3552 C3551 1.434 . S
C3553 C3554 1.369 . S
C3553 C3555 1.419 . S
C3553 H3557 0.930 . S
C3554 C3553 1.369 . S
C3554 C3563 1.429 . S
C3555 C3553 1.419 . S
C3555 C3556 1.363 . S
C3555 H3558 0.929 . S
C3556 C3555 1.363 . S
C3556 C3562 1.428 . S
H3557 C3553 0.930 . S
H3558 C3555 0.929 . S
S3559 N3560 1.613 . S
S3559 N3561 1.610 . S
N3560 S3559 1.613 . S
N3560 C3563 1.350 . S
N3561 S3559 1.610 . S
N3561 C3562 1.351 . S
C3562 C3556 1.428 . S
C3562 N3561 1.351 . S
C3562 C3563 1.434 . S
C3563 C3554 1.429 . S
C3563 N3560 1.350 . S
C3563 C3562 1.434 . S
C3564 C3565 1.369 . S
C3564 C3566 1.419 . S
C3564 H3568 0.930 . S
C3565 C3564 1.369 . S
C3565 C3574 1.429 . S
C3566 C3564 1.419 . S
C3566 C3567 1.363 . S
C3566 H3569 0.929 . S
C3567 C3566 1.363 . S
C3567 C3573 1.428 . S
H3568 C3564 0.930 . S
H3569 C3566 0.929 . S
S3570 N3571 1.613 . S
S3570 N3572 1.610 . S
N3571 S3570 1.613 . S
N3571 C3574 1.350 . S
N3572 S3570 1.610 . S
N3572 C3573 1.351 . S
C3573 C3567 1.428 . S
C3573 N3572 1.351 . S
C3573 C3574 1.434 . S
C3574 C3565 1.429 . S
C3574 N3571 1.350 . S
C3574 C3573 1.434 . S
C3575 C3576 1.369 . S
C3575 C3577 1.419 . S
C3575 H3579 0.930 . S
C3576 C3575 1.369 . S
C3576 C3585 1.429 . S
C3577 C3575 1.419 . S
C3577 C3578 1.363 . S
C3577 H3580 0.929 . S
C3578 C3577 1.363 . S
C3578 C3584 1.428 . S
H3579 C3575 0.930 . S
H3580 C3577 0.929 . S
S3581 N3582 1.613 . S
S3581 N3583 1.610 . S
N3582 S3581 1.613 . S
N3582 C3585 1.350 . S
N3583 S3581 1.610 . S
N3583 C3584 1.351 . S
C3584 C3578 1.428 . S
C3584 N3583 1.351 . S
C3584 C3585 1.434 . S
C3585 C3576 1.429 . S
C3585 N3582 1.350 . S
C3585 C3584 1.434 . S
C3586 C3587 1.369 . S
C3586 C3588 1.419 . S
C3586 H3590 0.930 . S
C3587 C3586 1.369 . S
C3587 C3596 1.429 . S
C3588 C3586 1.419 . S
C3588 C3589 1.363 . S
C3588 H3591 0.929 . S
C3589 C3588 1.363 . S
C3589 C3595 1.428 . S
H3590 C3586 0.930 . S
H3591 C3588 0.929 . S
S3592 N3593 1.613 . S
S3592 N3594 1.610 . S
N3593 S3592 1.613 . S
N3593 C3596 1.350 . S
N3594 S3592 1.610 . S
N3594 C3595 1.351 . S
C3595 C3589 1.428 . S
C3595 N3594 1.351 . S
C3595 C3596 1.434 . S
C3596 C3587 1.429 . S
C3596 N3593 1.350 . S
C3596 C3595 1.434 . S
C3597 C3598 1.369 . S
C3597 C3599 1.419 . S
C3597 H3601 0.930 . S
C3598 C3597 1.369 . S
C3598 C3607 1.429 . S
C3599 C3597 1.419 . S
C3599 C3600 1.363 . S
C3599 H3602 0.929 . S
C3600 C3599 1.363 . S
C3600 C3606 1.428 . S
H3601 C3597 0.930 . S
H3602 C3599 0.929 . S
S3603 N3604 1.613 . S
S3603 N3605 1.610 . S
N3604 S3603 1.613 . S
N3604 C3607 1.350 . S
N3605 S3603 1.610 . S
N3605 C3606 1.351 . S
C3606 C3600 1.428 . S
C3606 N3605 1.351 . S
C3606 C3607 1.434 . S
C3607 C3598 1.429 . S
C3607 N3604 1.350 . S
C3607 C3606 1.434 . S
C3608 C3609 1.369 . S
C3608 C3610 1.419 . S
C3608 H3612 0.930 . S
C3609 C3608 1.369 . S
C3609 C3618 1.429 . S
C3610 C3608 1.419 . S
C3610 C3611 1.363 . S
C3610 H3613 0.929 . S
C3611 C3610 1.363 . S
C3611 C3617 1.428 . S
H3612 C3608 0.930 . S
H3613 C3610 0.929 . S
S3614 N3615 1.613 . S
S3614 N3616 1.610 . S
N3615 S3614 1.613 . S
N3615 C3618 1.350 . S
N3616 S3614 1.610 . S
N3616 C3617 1.351 . S
C3617 C3611 1.428 . S
C3617 N3616 1.351 . S
C3617 C3618 1.434 . S
C3618 C3609 1.429 . S
C3618 N3615 1.350 . S
C3618 C3617 1.434 . S
C3619 C3620 1.369 . S
C3619 C3621 1.419 . S
C3619 H3623 0.930 . S
C3620 C3619 1.369 . S
C3620 C3629 1.429 . S
C3621 C3619 1.419 . S
C3621 C3622 1.363 . S
C3621 H3624 0.929 . S
C3622 C3621 1.363 . S
C3622 C3628 1.428 . S
H3623 C3619 0.930 . S
H3624 C3621 0.929 . S
S3625 N3626 1.613 . S
S3625 N3627 1.610 . S
N3626 S3625 1.613 . S
N3626 C3629 1.350 . S
N3627 S3625 1.610 . S
N3627 C3628 1.351 . S
C3628 C3622 1.428 . S
C3628 N3627 1.351 . S
C3628 C3629 1.434 . S
C3629 C3620 1.429 . S
C3629 N3626 1.350 . S
C3629 C3628 1.434 . S
C3630 C3631 1.369 . S
C3630 C3632 1.419 . S
C3630 H3634 0.930 . S
C3631 C3630 1.369 . S
C3631 C3640 1.429 . S
C3632 C3630 1.419 . S
C3632 C3633 1.363 . S
C3632 H3635 0.929 . S
C3633 C3632 1.363 . S
C3633 C3639 1.428 . S
H3634 C3630 0.930 . S
H3635 C3632 0.929 . S
S3636 N3637 1.613 . S
S3636 N3638 1.610 . S
N3637 S3636 1.613 . S
N3637 C3640 1.350 . S
N3638 S3636 1.610 . S
N3638 C3639 1.351 . S
C3639 C3633 1.428 . S
C3639 N3638 1.351 . S
C3639 C3640 1.434 . S
C3640 C3631 1.429 . S
C3640 N3637 1.350 . S
C3640 C3639 1.434 . S
C3641 C3642 1.369 . S
C3641 C3643 1.419 . S
C3641 H3645 0.930 . S
C3642 C3641 1.369 . S
C3642 C3651 1.429 . S
C3643 C3641 1.419 . S
C3643 C3644 1.363 . S
C3643 H3646 0.929 . S
C3644 C3643 1.363 . S
C3644 C3650 1.428 . S
H3645 C3641 0.930 . S
H3646 C3643 0.929 . S
S3647 N3648 1.613 . S
S3647 N3649 1.610 . S
N3648 S3647 1.613 . S
N3648 C3651 1.350 . S
N3649 S3647 1.610 . S
N3649 C3650 1.351 . S
C3650 C3644 1.428 . S
C3650 N3649 1.351 . S
C3650 C3651 1.434 . S
C3651 C3642 1.429 . S
C3651 N3648 1.350 . S
C3651 C3650 1.434 . S
C3652 C3653 1.369 . S
C3652 C3654 1.419 . S
C3652 H3656 0.930 . S
C3653 C3652 1.369 . S
C3653 C3662 1.429 . S
C3654 C3652 1.419 . S
C3654 C3655 1.363 . S
C3654 H3657 0.929 . S
C3655 C3654 1.363 . S
C3655 C3661 1.428 . S
H3656 C3652 0.930 . S
H3657 C3654 0.929 . S
S3658 N3659 1.613 . S
S3658 N3660 1.610 . S
N3659 S3658 1.613 . S
N3659 C3662 1.350 . S
N3660 S3658 1.610 . S
N3660 C3661 1.351 . S
C3661 C3655 1.428 . S
C3661 N3660 1.351 . S
C3661 C3662 1.434 . S
C3662 C3653 1.429 . S
C3662 N3659 1.350 . S
C3662 C3661 1.434 . S
C3663 C3664 1.369 . S
C3663 C3665 1.419 . S
C3663 H3667 0.930 . S
C3664 C3663 1.369 . S
C3664 C3673 1.429 . S
C3665 C3663 1.419 . S
C3665 C3666 1.363 . S
C3665 H3668 0.929 . S
C3666 C3665 1.363 . S
C3666 C3672 1.428 . S
H3667 C3663 0.930 . S
H3668 C3665 0.929 . S
S3669 N3670 1.613 . S
S3669 N3671 1.610 . S
N3670 S3669 1.613 . S
N3670 C3673 1.350 . S
N3671 S3669 1.610 . S
N3671 C3672 1.351 . S
C3672 C3666 1.428 . S
C3672 N3671 1.351 . S
C3672 C3673 1.434 . S
C3673 C3664 1.429 . S
C3673 N3670 1.350 . S
C3673 C3672 1.434 . S
C3674 C3675 1.369 . S
C3674 C3676 1.419 . S
C3674 H3678 0.930 . S
C3675 C3674 1.369 . S
C3675 C3684 1.429 . S
C3676 C3674 1.419 . S
C3676 C3677 1.363 . S
C3676 H3679 0.929 . S
C3677 C3676 1.363 . S
C3677 C3683 1.428 . S
H3678 C3674 0.930 . S
H3679 C3676 0.929 . S
S3680 N3681 1.613 . S
S3680 N3682 1.610 . S
N3681 S3680 1.613 . S
N3681 C3684 1.350 . S
N3682 S3680 1.610 . S
N3682 C3683 1.351 . S
C3683 C3677 1.428 . S
C3683 N3682 1.351 . S
C3683 C3684 1.434 . S
C3684 C3675 1.429 . S
C3684 N3681 1.350 . S
C3684 C3683 1.434 . S
C3685 C3686 1.369 . S
C3685 C3687 1.419 . S
C3685 H3689 0.930 . S
C3686 C3685 1.369 . S
C3686 C3695 1.429 . S
C3687 C3685 1.419 . S
C3687 C3688 1.363 . S
C3687 H3690 0.929 . S
C3688 C3687 1.363 . S
C3688 C3694 1.428 . S
H3689 C3685 0.930 . S
H3690 C3687 0.929 . S
S3691 N3692 1.613 . S
S3691 N3693 1.610 . S
N3692 S3691 1.613 . S
N3692 C3695 1.350 . S
N3693 S3691 1.610 . S
N3693 C3694 1.351 . S
C3694 C3688 1.428 . S
C3694 N3693 1.351 . S
C3694 C3695 1.434 . S
C3695 C3686 1.429 . S
C3695 N3692 1.350 . S
C3695 C3694 1.434 . S
C3696 C3697 1.369 . S
C3696 C3698 1.419 . S
C3696 H3700 0.930 . S
C3697 C3696 1.369 . S
C3697 C3706 1.429 . S
C3698 C3696 1.419 . S
C3698 C3699 1.363 . S
C3698 H3701 0.929 . S
C3699 C3698 1.363 . S
C3699 C3705 1.428 . S
H3700 C3696 0.930 . S
H3701 C3698 0.929 . S
S3702 N3703 1.613 . S
S3702 N3704 1.610 . S
N3703 S3702 1.613 . S
N3703 C3706 1.350 . S
N3704 S3702 1.610 . S
N3704 C3705 1.351 . S
C3705 C3699 1.428 . S
C3705 N3704 1.351 . S
C3705 C3706 1.434 . S
C3706 C3697 1.429 . S
C3706 N3703 1.350 . S
C3706 C3705 1.434 . S
C3707 C3708 1.369 . S
C3707 C3709 1.419 . S
C3707 H3711 0.930 . S
C3708 C3707 1.369 . S
C3708 C3717 1.429 . S
C3709 C3707 1.419 . S
C3709 C3710 1.363 . S
C3709 H3712 0.929 . S
C3710 C3709 1.363 . S
C3710 C3716 1.428 . S
H3711 C3707 0.930 . S
H3712 C3709 0.929 . S
S3713 N3714 1.613 . S
S3713 N3715 1.610 . S
N3714 S3713 1.613 . S
N3714 C3717 1.350 . S
N3715 S3713 1.610 . S
N3715 C3716 1.351 . S
C3716 C3710 1.428 . S
C3716 N3715 1.351 . S
C3716 C3717 1.434 . S
C3717 C3708 1.429 . S
C3717 N3714 1.350 . S
C3717 C3716 1.434 . S
C3718 C3719 1.369 . S
C3718 C3720 1.419 . S
C3718 H3722 0.930 . S
C3719 C3718 1.369 . S
C3719 C3728 1.429 . S
C3720 C3718 1.419 . S
C3720 C3721 1.363 . S
C3720 H3723 0.929 . S
C3721 C3720 1.363 . S
C3721 C3727 1.428 . S
H3722 C3718 0.930 . S
H3723 C3720 0.929 . S
S3724 N3725 1.613 . S
S3724 N3726 1.610 . S
N3725 S3724 1.613 . S
N3725 C3728 1.350 . S
N3726 S3724 1.610 . S
N3726 C3727 1.351 . S
C3727 C3721 1.428 . S
C3727 N3726 1.351 . S
C3727 C3728 1.434 . S
C3728 C3719 1.429 . S
C3728 N3725 1.350 . S
C3728 C3727 1.434 . S
C3729 C3730 1.369 . S
C3729 C3731 1.419 . S
C3729 H3733 0.930 . S
C3730 C3729 1.369 . S
C3730 C3739 1.429 . S
C3731 C3729 1.419 . S
C3731 C3732 1.363 . S
C3731 H3734 0.929 . S
C3732 C3731 1.363 . S
C3732 C3738 1.428 . S
H3733 C3729 0.930 . S
H3734 C3731 0.929 . S
S3735 N3736 1.613 . S
S3735 N3737 1.610 . S
N3736 S3735 1.613 . S
N3736 C3739 1.350 . S
N3737 S3735 1.610 . S
N3737 C3738 1.351 . S
C3738 C3732 1.428 . S
C3738 N3737 1.351 . S
C3738 C3739 1.434 . S
C3739 C3730 1.429 . S
C3739 N3736 1.350 . S
C3739 C3738 1.434 . S
C3740 C3741 1.369 . S
C3740 C3742 1.419 . S
C3740 H3744 0.930 . S
C3741 C3740 1.369 . S
C3741 C3750 1.429 . S
C3742 C3740 1.419 . S
C3742 C3743 1.363 . S
C3742 H3745 0.929 . S
C3743 C3742 1.363 . S
C3743 C3749 1.428 . S
H3744 C3740 0.930 . S
H3745 C3742 0.929 . S
S3746 N3747 1.613 . S
S3746 N3748 1.610 . S
N3747 S3746 1.613 . S
N3747 C3750 1.350 . S
N3748 S3746 1.610 . S
N3748 C3749 1.351 . S
C3749 C3743 1.428 . S
C3749 N3748 1.351 . S
C3749 C3750 1.434 . S
C3750 C3741 1.429 . S
C3750 N3747 1.350 . S
C3750 C3749 1.434 . S
C3751 C3752 1.369 . S
C3751 C3753 1.419 . S
C3751 H3755 0.930 . S
C3752 C3751 1.369 . S
C3752 C3761 1.429 . S
C3753 C3751 1.419 . S
C3753 C3754 1.363 . S
C3753 H3756 0.929 . S
C3754 C3753 1.363 . S
C3754 C3760 1.428 . S
H3755 C3751 0.930 . S
H3756 C3753 0.929 . S
S3757 N3758 1.613 . S
S3757 N3759 1.610 . S
N3758 S3757 1.613 . S
N3758 C3761 1.350 . S
N3759 S3757 1.610 . S
N3759 C3760 1.351 . S
C3760 C3754 1.428 . S
C3760 N3759 1.351 . S
C3760 C3761 1.434 . S
C3761 C3752 1.429 . S
C3761 N3758 1.350 . S
C3761 C3760 1.434 . S
C3762 C3763 1.369 . S
C3762 C3764 1.419 . S
C3762 H3766 0.930 . S
C3763 C3762 1.369 . S
C3763 C3772 1.429 . S
C3764 C3762 1.419 . S
C3764 C3765 1.363 . S
C3764 H3767 0.929 . S
C3765 C3764 1.363 . S
C3765 C3771 1.428 . S
H3766 C3762 0.930 . S
H3767 C3764 0.929 . S
S3768 N3769 1.613 . S
S3768 N3770 1.610 . S
N3769 S3768 1.613 . S
N3769 C3772 1.350 . S
N3770 S3768 1.610 . S
N3770 C3771 1.351 . S
C3771 C3765 1.428 . S
C3771 N3770 1.351 . S
C3771 C3772 1.434 . S
C3772 C3763 1.429 . S
C3772 N3769 1.350 . S
C3772 C3771 1.434 . S
C3773 C3774 1.369 . S
C3773 C3775 1.419 . S
C3773 H3777 0.930 . S
C3774 C3773 1.369 . S
C3774 C3783 1.429 . S
C3775 C3773 1.419 . S
C3775 C3776 1.363 . S
C3775 H3778 0.929 . S
C3776 C3775 1.363 . S
C3776 C3782 1.428 . S
H3777 C3773 0.930 . S
H3778 C3775 0.929 . S
S3779 N3780 1.613 . S
S3779 N3781 1.610 . S
N3780 S3779 1.613 . S
N3780 C3783 1.350 . S
N3781 S3779 1.610 . S
N3781 C3782 1.351 . S
C3782 C3776 1.428 . S
C3782 N3781 1.351 . S
C3782 C3783 1.434 . S
C3783 C3774 1.429 . S
C3783 N3780 1.350 . S
C3783 C3782 1.434 . S
C3784 C3785 1.369 . S
C3784 C3786 1.419 . S
C3784 H3788 0.930 . S
C3785 C3784 1.369 . S
C3785 C3794 1.429 . S
C3786 C3784 1.419 . S
C3786 C3787 1.363 . S
C3786 H3789 0.929 . S
C3787 C3786 1.363 . S
C3787 C3793 1.428 . S
H3788 C3784 0.930 . S
H3789 C3786 0.929 . S
S3790 N3791 1.613 . S
S3790 N3792 1.610 . S
N3791 S3790 1.613 . S
N3791 C3794 1.350 . S
N3792 S3790 1.610 . S
N3792 C3793 1.351 . S
C3793 C3787 1.428 . S
C3793 N3792 1.351 . S
C3793 C3794 1.434 . S
C3794 C3785 1.429 . S
C3794 N3791 1.350 . S
C3794 C3793 1.434 . S
C3795 C3796 1.369 . S
C3795 C3797 1.419 . S
C3795 H3799 0.930 . S
C3796 C3795 1.369 . S
C3796 C3805 1.429 . S
C3797 C3795 1.419 . S
C3797 C3798 1.363 . S
C3797 H3800 0.929 . S
C3798 C3797 1.363 . S
C3798 C3804 1.428 . S
H3799 C3795 0.930 . S
H3800 C3797 0.929 . S
S3801 N3802 1.613 . S
S3801 N3803 1.610 . S
N3802 S3801 1.613 . S
N3802 C3805 1.350 . S
N3803 S3801 1.610 . S
N3803 C3804 1.351 . S
C3804 C3798 1.428 . S
C3804 N3803 1.351 . S
C3804 C3805 1.434 . S
C3805 C3796 1.429 . S
C3805 N3802 1.350 . S
C3805 C3804 1.434 . S
C3806 C3807 1.369 . S
C3806 C3808 1.419 . S
C3806 H3810 0.930 . S
C3807 C3806 1.369 . S
C3807 C3816 1.429 . S
C3808 C3806 1.419 . S
C3808 C3809 1.363 . S
C3808 H3811 0.929 . S
C3809 C3808 1.363 . S
C3809 C3815 1.428 . S
H3810 C3806 0.930 . S
H3811 C3808 0.929 . S
S3812 N3813 1.613 . S
S3812 N3814 1.610 . S
N3813 S3812 1.613 . S
N3813 C3816 1.350 . S
N3814 S3812 1.610 . S
N3814 C3815 1.351 . S
C3815 C3809 1.428 . S
C3815 N3814 1.351 . S
C3815 C3816 1.434 . S
C3816 C3807 1.429 . S
C3816 N3813 1.350 . S
C3816 C3815 1.434 . S
C3817 C3818 1.369 . S
C3817 C3819 1.419 . S
C3817 H3821 0.930 . S
C3818 C3817 1.369 . S
C3818 C3827 1.429 . S
C3819 C3817 1.419 . S
C3819 C3820 1.363 . S
C3819 H3822 0.929 . S
C3820 C3819 1.363 . S
C3820 C3826 1.428 . S
H3821 C3817 0.930 . S
H3822 C3819 0.929 . S
S3823 N3824 1.613 . S
S3823 N3825 1.610 . S
N3824 S3823 1.613 . S
N3824 C3827 1.350 . S
N3825 S3823 1.610 . S
N3825 C3826 1.351 . S
C3826 C3820 1.428 . S
C3826 N3825 1.351 . S
C3826 C3827 1.434 . S
C3827 C3818 1.429 . S
C3827 N3824 1.350 . S
C3827 C3826 1.434 . S
C3828 C3829 1.369 . S
C3828 C3830 1.419 . S
C3828 H3832 0.930 . S
C3829 C3828 1.369 . S
C3829 C3838 1.429 . S
C3830 C3828 1.419 . S
C3830 C3831 1.363 . S
C3830 H3833 0.929 . S
C3831 C3830 1.363 . S
C3831 C3837 1.428 . S
H3832 C3828 0.930 . S
H3833 C3830 0.929 . S
S3834 N3835 1.613 . S
S3834 N3836 1.610 . S
N3835 S3834 1.613 . S
N3835 C3838 1.350 . S
N3836 S3834 1.610 . S
N3836 C3837 1.351 . S
C3837 C3831 1.428 . S
C3837 N3836 1.351 . S
C3837 C3838 1.434 . S
C3838 C3829 1.429 . S
C3838 N3835 1.350 . S
C3838 C3837 1.434 . S
C3839 C3840 1.369 . S
C3839 C3841 1.419 . S
C3839 H3843 0.930 . S
C3840 C3839 1.369 . S
C3840 C3849 1.429 . S
C3841 C3839 1.419 . S
C3841 C3842 1.363 . S
C3841 H3844 0.929 . S
C3842 C3841 1.363 . S
C3842 C3848 1.428 . S
H3843 C3839 0.930 . S
H3844 C3841 0.929 . S
S3845 N3846 1.613 . S
S3845 N3847 1.610 . S
N3846 S3845 1.613 . S
N3846 C3849 1.350 . S
N3847 S3845 1.610 . S
N3847 C3848 1.351 . S
C3848 C3842 1.428 . S
C3848 N3847 1.351 . S
C3848 C3849 1.434 . S
C3849 C3840 1.429 . S
C3849 N3846 1.350 . S
C3849 C3848 1.434 . S
C3850 C3851 1.369 . S
C3850 C3852 1.419 . S
C3850 H3854 0.930 . S
C3851 C3850 1.369 . S
C3851 C3860 1.429 . S
C3852 C3850 1.419 . S
C3852 C3853 1.363 . S
C3852 H3855 0.929 . S
C3853 C3852 1.363 . S
C3853 C3859 1.428 . S
H3854 C3850 0.930 . S
H3855 C3852 0.929 . S
S3856 N3857 1.613 . S
S3856 N3858 1.610 . S
N3857 S3856 1.613 . S
N3857 C3860 1.350 . S
N3858 S3856 1.610 . S
N3858 C3859 1.351 . S
C3859 C3853 1.428 . S
C3859 N3858 1.351 . S
C3859 C3860 1.434 . S
C3860 C3851 1.429 . S
C3860 N3857 1.350 . S
C3860 C3859 1.434 . S
C3861 C3862 1.369 . S
C3861 C3863 1.419 . S
C3861 H3865 0.930 . S
C3862 C3861 1.369 . S
C3862 C3871 1.429 . S
C3863 C3861 1.419 . S
C3863 C3864 1.363 . S
C3863 H3866 0.929 . S
C3864 C3863 1.363 . S
C3864 C3870 1.428 . S
H3865 C3861 0.930 . S
H3866 C3863 0.929 . S
S3867 N3868 1.613 . S
S3867 N3869 1.610 . S
N3868 S3867 1.613 . S
N3868 C3871 1.350 . S
N3869 S3867 1.610 . S
N3869 C3870 1.351 . S
C3870 C3864 1.428 . S
C3870 N3869 1.351 . S
C3870 C3871 1.434 . S
C3871 C3862 1.429 . S
C3871 N3868 1.350 . S
C3871 C3870 1.434 . S
C3872 C3873 1.369 . S
C3872 C3874 1.419 . S
C3872 H3876 0.930 . S
C3873 C3872 1.369 . S
C3873 C3882 1.429 . S
C3874 C3872 1.419 . S
C3874 C3875 1.363 . S
C3874 H3877 0.929 . S
C3875 C3874 1.363 . S
C3875 C3881 1.428 . S
H3876 C3872 0.930 . S
H3877 C3874 0.929 . S
S3878 N3879 1.613 . S
S3878 N3880 1.610 . S
N3879 S3878 1.613 . S
N3879 C3882 1.350 . S
N3880 S3878 1.610 . S
N3880 C3881 1.351 . S
C3881 C3875 1.428 . S
C3881 N3880 1.351 . S
C3881 C3882 1.434 . S
C3882 C3873 1.429 . S
C3882 N3879 1.350 . S
C3882 C3881 1.434 . S
C3883 C3884 1.369 . S
C3883 C3885 1.419 . S
C3883 H3887 0.930 . S
C3884 C3883 1.369 . S
C3884 C3893 1.429 . S
C3885 C3883 1.419 . S
C3885 C3886 1.363 . S
C3885 H3888 0.929 . S
C3886 C3885 1.363 . S
C3886 C3892 1.428 . S
H3887 C3883 0.930 . S
H3888 C3885 0.929 . S
S3889 N3890 1.613 . S
S3889 N3891 1.610 . S
N3890 S3889 1.613 . S
N3890 C3893 1.350 . S
N3891 S3889 1.610 . S
N3891 C3892 1.351 . S
C3892 C3886 1.428 . S
C3892 N3891 1.351 . S
C3892 C3893 1.434 . S
C3893 C3884 1.429 . S
C3893 N3890 1.350 . S
C3893 C3892 1.434 . S
C3894 C3895 1.369 . S
C3894 C3896 1.419 . S
C3894 H3898 0.930 . S
C3895 C3894 1.369 . S
C3895 C3904 1.429 . S
C3896 C3894 1.419 . S
C3896 C3897 1.363 . S
C3896 H3899 0.929 . S
C3897 C3896 1.363 . S
C3897 C3903 1.428 . S
H3898 C3894 0.930 . S
H3899 C3896 0.929 . S
S3900 N3901 1.613 . S
S3900 N3902 1.610 . S
N3901 S3900 1.613 . S
N3901 C3904 1.350 . S
N3902 S3900 1.610 . S
N3902 C3903 1.351 . S
C3903 C3897 1.428 . S
C3903 N3902 1.351 . S
C3903 C3904 1.434 . S
C3904 C3895 1.429 . S
C3904 N3901 1.350 . S
C3904 C3903 1.434 . S
C3905 C3906 1.369 . S
C3905 C3907 1.419 . S
C3905 H3909 0.930 . S
C3906 C3905 1.369 . S
C3906 C3915 1.429 . S
C3907 C3905 1.419 . S
C3907 C3908 1.363 . S
C3907 H3910 0.929 . S
C3908 C3907 1.363 . S
C3908 C3914 1.428 . S
H3909 C3905 0.930 . S
H3910 C3907 0.929 . S
S3911 N3912 1.613 . S
S3911 N3913 1.610 . S
N3912 S3911 1.613 . S
N3912 C3915 1.350 . S
N3913 S3911 1.610 . S
N3913 C3914 1.351 . S
C3914 C3908 1.428 . S
C3914 N3913 1.351 . S
C3914 C3915 1.434 . S
C3915 C3906 1.429 . S
C3915 N3912 1.350 . S
C3915 C3914 1.434 . S
C3916 C3917 1.369 . S
C3916 C3918 1.419 . S
C3916 H3920 0.930 . S
C3917 C3916 1.369 . S
C3917 C3926 1.429 . S
C3918 C3916 1.419 . S
C3918 C3919 1.363 . S
C3918 H3921 0.929 . S
C3919 C3918 1.363 . S
C3919 C3925 1.428 . S
H3920 C3916 0.930 . S
H3921 C3918 0.929 . S
S3922 N3923 1.613 . S
S3922 N3924 1.610 . S
N3923 S3922 1.613 . S
N3923 C3926 1.350 . S
N3924 S3922 1.610 . S
N3924 C3925 1.351 . S
C3925 C3919 1.428 . S
C3925 N3924 1.351 . S
C3925 C3926 1.434 . S
C3926 C3917 1.429 . S
C3926 N3923 1.350 . S
C3926 C3925 1.434 . S
C3927 C3928 1.369 . S
C3927 C3929 1.419 . S
C3927 H3931 0.930 . S
C3928 C3927 1.369 . S
C3928 C3937 1.429 . S
C3929 C3927 1.419 . S
C3929 C3930 1.363 . S
C3929 H3932 0.929 . S
C3930 C3929 1.363 . S
C3930 C3936 1.428 . S
H3931 C3927 0.930 . S
H3932 C3929 0.929 . S
S3933 N3934 1.613 . S
S3933 N3935 1.610 . S
N3934 S3933 1.613 . S
N3934 C3937 1.350 . S
N3935 S3933 1.610 . S
N3935 C3936 1.351 . S
C3936 C3930 1.428 . S
C3936 N3935 1.351 . S
C3936 C3937 1.434 . S
C3937 C3928 1.429 . S
C3937 N3934 1.350 . S
C3937 C3936 1.434 . S
C3938 C3939 1.369 . S
C3938 C3940 1.419 . S
C3938 H3942 0.930 . S
C3939 C3938 1.369 . S
C3939 C3948 1.429 . S
C3940 C3938 1.419 . S
C3940 C3941 1.363 . S
C3940 H3943 0.929 . S
C3941 C3940 1.363 . S
C3941 C3947 1.428 . S
H3942 C3938 0.930 . S
H3943 C3940 0.929 . S
S3944 N3945 1.613 . S
S3944 N3946 1.610 . S
N3945 S3944 1.613 . S
N3945 C3948 1.350 . S
N3946 S3944 1.610 . S
N3946 C3947 1.351 . S
C3947 C3941 1.428 . S
C3947 N3946 1.351 . S
C3947 C3948 1.434 . S
C3948 C3939 1.429 . S
C3948 N3945 1.350 . S
C3948 C3947 1.434 . S
C3949 C3950 1.369 . S
C3949 C3951 1.419 . S
C3949 H3953 0.930 . S
C3950 C3949 1.369 . S
C3950 C3959 1.429 . S
C3951 C3949 1.419 . S
C3951 C3952 1.363 . S
C3951 H3954 0.929 . S
C3952 C3951 1.363 . S
C3952 C3958 1.428 . S
H3953 C3949 0.930 . S
H3954 C3951 0.929 . S
S3955 N3956 1.613 . S
S3955 N3957 1.610 . S
N3956 S3955 1.613 . S
N3956 C3959 1.350 . S
N3957 S3955 1.610 . S
N3957 C3958 1.351 . S
C3958 C3952 1.428 . S
C3958 N3957 1.351 . S
C3958 C3959 1.434 . S
C3959 C3950 1.429 . S
C3959 N3956 1.350 . S
C3959 C3958 1.434 . S
C3960 C3961 1.369 . S
C3960 C3962 1.419 . S
C3960 H3964 0.930 . S
C3961 C3960 1.369 . S
C3961 C3970 1.429 . S
C3962 C3960 1.419 . S
C3962 C3963 1.363 . S
C3962 H3965 0.929 . S
C3963 C3962 1.363 . S
C3963 C3969 1.428 . S
H3964 C3960 0.930 . S
H3965 C3962 0.929 . S
S3966 N3967 1.613 . S
S3966 N3968 1.610 . S
N3967 S3966 1.613 . S
N3967 C3970 1.350 . S
N3968 S3966 1.610 . S
N3968 C3969 1.351 . S
C3969 C3963 1.428 . S
C3969 N3968 1.351 . S
C3969 C3970 1.434 . S
C3970 C3961 1.429 . S
C3970 N3967 1.350 . S
C3970 C3969 1.434 . S
C3971 C3972 1.369 . S
C3971 C3973 1.419 . S
C3971 H3975 0.930 . S
C3972 C3971 1.369 . S
C3972 C3981 1.429 . S
C3973 C3971 1.419 . S
C3973 C3974 1.363 . S
C3973 H3976 0.929 . S
C3974 C3973 1.363 . S
C3974 C3980 1.428 . S
H3975 C3971 0.930 . S
H3976 C3973 0.929 . S
S3977 N3978 1.613 . S
S3977 N3979 1.610 . S
N3978 S3977 1.613 . S
N3978 C3981 1.350 . S
N3979 S3977 1.610 . S
N3979 C3980 1.351 . S
C3980 C3974 1.428 . S
C3980 N3979 1.351 . S
C3980 C3981 1.434 . S
C3981 C3972 1.429 . S
C3981 N3978 1.350 . S
C3981 C3980 1.434 . S
C3982 C3983 1.369 . S
C3982 C3984 1.419 . S
C3982 H3986 0.930 . S
C3983 C3982 1.369 . S
C3983 C3992 1.429 . S
C3984 C3982 1.419 . S
C3984 C3985 1.363 . S
C3984 H3987 0.929 . S
C3985 C3984 1.363 . S
C3985 C3991 1.428 . S
H3986 C3982 0.930 . S
H3987 C3984 0.929 . S
S3988 N3989 1.613 . S
S3988 N3990 1.610 . S
N3989 S3988 1.613 . S
N3989 C3992 1.350 . S
N3990 S3988 1.610 . S
N3990 C3991 1.351 . S
C3991 C3985 1.428 . S
C3991 N3990 1.351 . S
C3991 C3992 1.434 . S
C3992 C3983 1.429 . S
C3992 N3989 1.350 . S
C3992 C3991 1.434 . S
C3993 C3994 1.369 . S
C3993 C3995 1.419 . S
C3993 H3997 0.930 . S
C3994 C3993 1.369 . S
C3994 C4003 1.429 . S
C3995 C3993 1.419 . S
C3995 C3996 1.363 . S
C3995 H3998 0.929 . S
C3996 C3995 1.363 . S
C3996 C4002 1.428 . S
H3997 C3993 0.930 . S
H3998 C3995 0.929 . S
S3999 N4000 1.613 . S
S3999 N4001 1.610 . S
N4000 S3999 1.613 . S
N4000 C4003 1.350 . S
N4001 S3999 1.610 . S
N4001 C4002 1.351 . S
C4002 C3996 1.428 . S
C4002 N4001 1.351 . S
C4002 C4003 1.434 . S
C4003 C3994 1.429 . S
C4003 N4000 1.350 . S
C4003 C4002 1.434 . S
C4004 C4005 1.369 . S
C4004 C4006 1.419 . S
C4004 H4008 0.930 . S
C4005 C4004 1.369 . S
C4005 C4014 1.429 . S
C4006 C4004 1.419 . S
C4006 C4007 1.363 . S
C4006 H4009 0.929 . S
C4007 C4006 1.363 . S
C4007 C4013 1.428 . S
H4008 C4004 0.930 . S
H4009 C4006 0.929 . S
S4010 N4011 1.613 . S
S4010 N4012 1.610 . S
N4011 S4010 1.613 . S
N4011 C4014 1.350 . S
N4012 S4010 1.610 . S
N4012 C4013 1.351 . S
C4013 C4007 1.428 . S
C4013 N4012 1.351 . S
C4013 C4014 1.434 . S
C4014 C4005 1.429 . S
C4014 N4011 1.350 . S
C4014 C4013 1.434 . S
C4015 C4016 1.369 . S
C4015 C4017 1.419 . S
C4015 H4019 0.930 . S
C4016 C4015 1.369 . S
C4016 C4025 1.429 . S
C4017 C4015 1.419 . S
C4017 C4018 1.363 . S
C4017 H4020 0.929 . S
C4018 C4017 1.363 . S
C4018 C4024 1.428 . S
H4019 C4015 0.930 . S
H4020 C4017 0.929 . S
S4021 N4022 1.613 . S
S4021 N4023 1.610 . S
N4022 S4021 1.613 . S
N4022 C4025 1.350 . S
N4023 S4021 1.610 . S
N4023 C4024 1.351 . S
C4024 C4018 1.428 . S
C4024 N4023 1.351 . S
C4024 C4025 1.434 . S
C4025 C4016 1.429 . S
C4025 N4022 1.350 . S
C4025 C4024 1.434 . S
C4026 C4027 1.369 . S
C4026 C4028 1.419 . S
C4026 H4030 0.930 . S
C4027 C4026 1.369 . S
C4027 C4036 1.429 . S
C4028 C4026 1.419 . S
C4028 C4029 1.363 . S
C4028 H4031 0.929 . S
C4029 C4028 1.363 . S
C4029 C4035 1.428 . S
H4030 C4026 0.930 . S
H4031 C4028 0.929 . S
S4032 N4033 1.613 . S
S4032 N4034 1.610 . S
N4033 S4032 1.613 . S
N4033 C4036 1.350 . S
N4034 S4032 1.610 . S
N4034 C4035 1.351 . S
C4035 C4029 1.428 . S
C4035 N4034 1.351 . S
C4035 C4036 1.434 . S
C4036 C4027 1.429 . S
C4036 N4033 1.350 . S
C4036 C4035 1.434 . S
C4037 C4038 1.369 . S
C4037 C4039 1.419 . S
C4037 H4041 0.930 . S
C4038 C4037 1.369 . S
C4038 C4047 1.429 . S
C4039 C4037 1.419 . S
C4039 C4040 1.363 . S
C4039 H4042 0.929 . S
C4040 C4039 1.363 . S
C4040 C4046 1.428 . S
H4041 C4037 0.930 . S
H4042 C4039 0.929 . S
S4043 N4044 1.613 . S
S4043 N4045 1.610 . S
N4044 S4043 1.613 . S
N4044 C4047 1.350 . S
N4045 S4043 1.610 . S
N4045 C4046 1.351 . S
C4046 C4040 1.428 . S
C4046 N4045 1.351 . S
C4046 C4047 1.434 . S
C4047 C4038 1.429 . S
C4047 N4044 1.350 . S
C4047 C4046 1.434 . S
C4048 C4049 1.369 . S
C4048 C4050 1.419 . S
C4048 H4052 0.930 . S
C4049 C4048 1.369 . S
C4049 C4058 1.429 . S
C4050 C4048 1.419 . S
C4050 C4051 1.363 . S
C4050 H4053 0.929 . S
C4051 C4050 1.363 . S
C4051 C4057 1.428 . S
H4052 C4048 0.930 . S
H4053 C4050 0.929 . S
S4054 N4055 1.613 . S
S4054 N4056 1.610 . S
N4055 S4054 1.613 . S
N4055 C4058 1.350 . S
N4056 S4054 1.610 . S
N4056 C4057 1.351 . S
C4057 C4051 1.428 . S
C4057 N4056 1.351 . S
C4057 C4058 1.434 . S
C4058 C4049 1.429 . S
C4058 N4055 1.350 . S
C4058 C4057 1.434 . S
C4059 C4060 1.369 . S
C4059 C4061 1.419 . S
C4059 H4063 0.930 . S
C4060 C4059 1.369 . S
C4060 C4069 1.429 . S
C4061 C4059 1.419 . S
C4061 C4062 1.363 . S
C4061 H4064 0.929 . S
C4062 C4061 1.363 . S
C4062 C4068 1.428 . S
H4063 C4059 0.930 . S
H4064 C4061 0.929 . S
S4065 N4066 1.613 . S
S4065 N4067 1.610 . S
N4066 S4065 1.613 . S
N4066 C4069 1.350 . S
N4067 S4065 1.610 . S
N4067 C4068 1.351 . S
C4068 C4062 1.428 . S
C4068 N4067 1.351 . S
C4068 C4069 1.434 . S
C4069 C4060 1.429 . S
C4069 N4066 1.350 . S
C4069 C4068 1.434 . S
C4070 C4071 1.369 . S
C4070 C4072 1.419 . S
C4070 H4074 0.930 . S
C4071 C4070 1.369 . S
C4071 C4080 1.429 . S
C4072 C4070 1.419 . S
C4072 C4073 1.363 . S
C4072 H4075 0.929 . S
C4073 C4072 1.363 . S
C4073 C4079 1.428 . S
H4074 C4070 0.930 . S
H4075 C4072 0.929 . S
S4076 N4077 1.613 . S
S4076 N4078 1.610 . S
N4077 S4076 1.613 . S
N4077 C4080 1.350 . S
N4078 S4076 1.610 . S
N4078 C4079 1.351 . S
C4079 C4073 1.428 . S
C4079 N4078 1.351 . S
C4079 C4080 1.434 . S
C4080 C4071 1.429 . S
C4080 N4077 1.350 . S
C4080 C4079 1.434 . S
C4081 C4082 1.369 . S
C4081 C4083 1.419 . S
C4081 H4085 0.930 . S
C4082 C4081 1.369 . S
C4082 C4091 1.429 . S
C4083 C4081 1.419 . S
C4083 C4084 1.363 . S
C4083 H4086 0.929 . S
C4084 C4083 1.363 . S
C4084 C4090 1.428 . S
H4085 C4081 0.930 . S
H4086 C4083 0.929 . S
S4087 N4088 1.613 . S
S4087 N4089 1.610 . S
N4088 S4087 1.613 . S
N4088 C4091 1.350 . S
N4089 S4087 1.610 . S
N4089 C4090 1.351 . S
C4090 C4084 1.428 . S
C4090 N4089 1.351 . S
C4090 C4091 1.434 . S
C4091 C4082 1.429 . S
C4091 N4088 1.350 . S
C4091 C4090 1.434 . S
C4092 C4093 1.369 . S
C4092 C4094 1.419 . S
C4092 H4096 0.930 . S
C4093 C4092 1.369 . S
C4093 C4102 1.429 . S
C4094 C4092 1.419 . S
C4094 C4095 1.363 . S
C4094 H4097 0.929 . S
C4095 C4094 1.363 . S
C4095 C4101 1.428 . S
H4096 C4092 0.930 . S
H4097 C4094 0.929 . S
S4098 N4099 1.613 . S
S4098 N4100 1.610 . S
N4099 S4098 1.613 . S
N4099 C4102 1.350 . S
N4100 S4098 1.610 . S
N4100 C4101 1.351 . S
C4101 C4095 1.428 . S
C4101 N4100 1.351 . S
C4101 C4102 1.434 . S
C4102 C4093 1.429 . S
C4102 N4099 1.350 . S
C4102 C4101 1.434 . S
C4103 C4104 1.369 . S
C4103 C4105 1.419 . S
C4103 H4107 0.930 . S
C4104 C4103 1.369 . S
C4104 C4113 1.429 . S
C4105 C4103 1.419 . S
C4105 C4106 1.363 . S
C4105 H4108 0.929 . S
C4106 C4105 1.363 . S
C4106 C4112 1.428 . S
H4107 C4103 0.930 . S
H4108 C4105 0.929 . S
S4109 N4110 1.613 . S
S4109 N4111 1.610 . S
N4110 S4109 1.613 . S
N4110 C4113 1.350 . S
N4111 S4109 1.610 . S
N4111 C4112 1.351 . S
C4112 C4106 1.428 . S
C4112 N4111 1.351 . S
C4112 C4113 1.434 . S
C4113 C4104 1.429 . S
C4113 N4110 1.350 . S
C4113 C4112 1.434 . S
C4114 C4115 1.369 . S
C4114 C4116 1.419 . S
C4114 H4118 0.930 . S
C4115 C4114 1.369 . S
C4115 C4124 1.429 . S
C4116 C4114 1.419 . S
C4116 C4117 1.363 . S
C4116 H4119 0.929 . S
C4117 C4116 1.363 . S
C4117 C4123 1.428 . S
H4118 C4114 0.930 . S
H4119 C4116 0.929 . S
S4120 N4121 1.613 . S
S4120 N4122 1.610 . S
N4121 S4120 1.613 . S
N4121 C4124 1.350 . S
N4122 S4120 1.610 . S
N4122 C4123 1.351 . S
C4123 C4117 1.428 . S
C4123 N4122 1.351 . S
C4123 C4124 1.434 . S
C4124 C4115 1.429 . S
C4124 N4121 1.350 . S
C4124 C4123 1.434 . S
C4125 C4126 1.369 . S
C4125 C4127 1.419 . S
C4125 H4129 0.930 . S
C4126 C4125 1.369 . S
C4126 C4135 1.429 . S
C4127 C4125 1.419 . S
C4127 C4128 1.363 . S
C4127 H4130 0.929 . S
C4128 C4127 1.363 . S
C4128 C4134 1.428 . S
H4129 C4125 0.930 . S
H4130 C4127 0.929 . S
S4131 N4132 1.613 . S
S4131 N4133 1.610 . S
N4132 S4131 1.613 . S
N4132 C4135 1.350 . S
N4133 S4131 1.610 . S
N4133 C4134 1.351 . S
C4134 C4128 1.428 . S
C4134 N4133 1.351 . S
C4134 C4135 1.434 . S
C4135 C4126 1.429 . S
C4135 N4132 1.350 . S
C4135 C4134 1.434 . S
C4136 C4137 1.369 . S
C4136 C4138 1.419 . S
C4136 H4140 0.930 . S
C4137 C4136 1.369 . S
C4137 C4146 1.429 . S
C4138 C4136 1.419 . S
C4138 C4139 1.363 . S
C4138 H4141 0.929 . S
C4139 C4138 1.363 . S
C4139 C4145 1.428 . S
H4140 C4136 0.930 . S
H4141 C4138 0.929 . S
S4142 N4143 1.613 . S
S4142 N4144 1.610 . S
N4143 S4142 1.613 . S
N4143 C4146 1.350 . S
N4144 S4142 1.610 . S
N4144 C4145 1.351 . S
C4145 C4139 1.428 . S
C4145 N4144 1.351 . S
C4145 C4146 1.434 . S
C4146 C4137 1.429 . S
C4146 N4143 1.350 . S
C4146 C4145 1.434 . S
C4147 C4148 1.369 . S
C4147 C4149 1.419 . S
C4147 H4151 0.930 . S
C4148 C4147 1.369 . S
C4148 C4157 1.429 . S
C4149 C4147 1.419 . S
C4149 C4150 1.363 . S
C4149 H4152 0.929 . S
C4150 C4149 1.363 . S
C4150 C4156 1.428 . S
H4151 C4147 0.930 . S
H4152 C4149 0.929 . S
S4153 N4154 1.613 . S
S4153 N4155 1.610 . S
N4154 S4153 1.613 . S
N4154 C4157 1.350 . S
N4155 S4153 1.610 . S
N4155 C4156 1.351 . S
C4156 C4150 1.428 . S
C4156 N4155 1.351 . S
C4156 C4157 1.434 . S
C4157 C4148 1.429 . S
C4157 N4154 1.350 . S
C4157 C4156 1.434 . S
C4158 C4159 1.369 . S
C4158 C4160 1.419 . S
C4158 H4162 0.930 . S
C4159 C4158 1.369 . S
C4159 C4168 1.429 . S
C4160 C4158 1.419 . S
C4160 C4161 1.363 . S
C4160 H4163 0.929 . S
C4161 C4160 1.363 . S
C4161 C4167 1.428 . S
H4162 C4158 0.930 . S
H4163 C4160 0.929 . S
S4164 N4165 1.613 . S
S4164 N4166 1.610 . S
N4165 S4164 1.613 . S
N4165 C4168 1.350 . S
N4166 S4164 1.610 . S
N4166 C4167 1.351 . S
C4167 C4161 1.428 . S
C4167 N4166 1.351 . S
C4167 C4168 1.434 . S
C4168 C4159 1.429 . S
C4168 N4165 1.350 . S
C4168 C4167 1.434 . S
C4169 C4170 1.369 . S
C4169 C4171 1.419 . S
C4169 H4173 0.930 . S
C4170 C4169 1.369 . S
C4170 C4179 1.429 . S
C4171 C4169 1.419 . S
C4171 C4172 1.363 . S
C4171 H4174 0.929 . S
C4172 C4171 1.363 . S
C4172 C4178 1.428 . S
H4173 C4169 0.930 . S
H4174 C4171 0.929 . S
S4175 N4176 1.613 . S
S4175 N4177 1.610 . S
N4176 S4175 1.613 . S
N4176 C4179 1.350 . S
N4177 S4175 1.610 . S
N4177 C4178 1.351 . S
C4178 C4172 1.428 . S
C4178 N4177 1.351 . S
C4178 C4179 1.434 . S
C4179 C4170 1.429 . S
C4179 N4176 1.350 . S
C4179 C4178 1.434 . S
C4180 C4181 1.369 . S
C4180 C4182 1.419 . S
C4180 H4184 0.930 . S
C4181 C4180 1.369 . S
C4181 C4190 1.429 . S
C4182 C4180 1.419 . S
C4182 C4183 1.363 . S
C4182 H4185 0.929 . S
C4183 C4182 1.363 . S
C4183 C4189 1.428 . S
H4184 C4180 0.930 . S
H4185 C4182 0.929 . S
S4186 N4187 1.613 . S
S4186 N4188 1.610 . S
N4187 S4186 1.613 . S
N4187 C4190 1.350 . S
N4188 S4186 1.610 . S
N4188 C4189 1.351 . S
C4189 C4183 1.428 . S
C4189 N4188 1.351 . S
C4189 C4190 1.434 . S
C4190 C4181 1.429 . S
C4190 N4187 1.350 . S
C4190 C4189 1.434 . S
C4191 C4192 1.369 . S
C4191 C4193 1.419 . S
C4191 H4195 0.930 . S
C4192 C4191 1.369 . S
C4192 C4201 1.429 . S
C4193 C4191 1.419 . S
C4193 C4194 1.363 . S
C4193 H4196 0.929 . S
C4194 C4193 1.363 . S
C4194 C4200 1.428 . S
H4195 C4191 0.930 . S
H4196 C4193 0.929 . S
S4197 N4198 1.613 . S
S4197 N4199 1.610 . S
N4198 S4197 1.613 . S
N4198 C4201 1.350 . S
N4199 S4197 1.610 . S
N4199 C4200 1.351 . S
C4200 C4194 1.428 . S
C4200 N4199 1.351 . S
C4200 C4201 1.434 . S
C4201 C4192 1.429 . S
C4201 N4198 1.350 . S
C4201 C4200 1.434 . S
C4202 C4203 1.369 . S
C4202 C4204 1.419 . S
C4202 H4206 0.930 . S
C4203 C4202 1.369 . S
C4203 C4212 1.429 . S
C4204 C4202 1.419 . S
C4204 C4205 1.363 . S
C4204 H4207 0.929 . S
C4205 C4204 1.363 . S
C4205 C4211 1.428 . S
H4206 C4202 0.930 . S
H4207 C4204 0.929 . S
S4208 N4209 1.613 . S
S4208 N4210 1.610 . S
N4209 S4208 1.613 . S
N4209 C4212 1.350 . S
N4210 S4208 1.610 . S
N4210 C4211 1.351 . S
C4211 C4205 1.428 . S
C4211 N4210 1.351 . S
C4211 C4212 1.434 . S
C4212 C4203 1.429 . S
C4212 N4209 1.350 . S
C4212 C4211 1.434 . S
C4213 C4214 1.369 . S
C4213 C4215 1.419 . S
C4213 H4217 0.930 . S
C4214 C4213 1.369 . S
C4214 C4223 1.429 . S
C4215 C4213 1.419 . S
C4215 C4216 1.363 . S
C4215 H4218 0.929 . S
C4216 C4215 1.363 . S
C4216 C4222 1.428 . S
H4217 C4213 0.930 . S
H4218 C4215 0.929 . S
S4219 N4220 1.613 . S
S4219 N4221 1.610 . S
N4220 S4219 1.613 . S
N4220 C4223 1.350 . S
N4221 S4219 1.610 . S
N4221 C4222 1.351 . S
C4222 C4216 1.428 . S
C4222 N4221 1.351 . S
C4222 C4223 1.434 . S
C4223 C4214 1.429 . S
C4223 N4220 1.350 . S
C4223 C4222 1.434 . S
C4224 C4225 1.369 . S
C4224 C4226 1.419 . S
C4224 H4228 0.930 . S
C4225 C4224 1.369 . S
C4225 C4234 1.429 . S
C4226 C4224 1.419 . S
C4226 C4227 1.363 . S
C4226 H4229 0.929 . S
C4227 C4226 1.363 . S
C4227 C4233 1.428 . S
H4228 C4224 0.930 . S
H4229 C4226 0.929 . S
S4230 N4231 1.613 . S
S4230 N4232 1.610 . S
N4231 S4230 1.613 . S
N4231 C4234 1.350 . S
N4232 S4230 1.610 . S
N4232 C4233 1.351 . S
C4233 C4227 1.428 . S
C4233 N4232 1.351 . S
C4233 C4234 1.434 . S
C4234 C4225 1.429 . S
C4234 N4231 1.350 . S
C4234 C4233 1.434 . S
C4235 C4236 1.369 . S
C4235 C4237 1.419 . S
C4235 H4239 0.930 . S
C4236 C4235 1.369 . S
C4236 C4245 1.429 . S
C4237 C4235 1.419 . S
C4237 C4238 1.363 . S
C4237 H4240 0.929 . S
C4238 C4237 1.363 . S
C4238 C4244 1.428 . S
H4239 C4235 0.930 . S
H4240 C4237 0.929 . S
S4241 N4242 1.613 . S
S4241 N4243 1.610 . S
N4242 S4241 1.613 . S
N4242 C4245 1.350 . S
N4243 S4241 1.610 . S
N4243 C4244 1.351 . S
C4244 C4238 1.428 . S
C4244 N4243 1.351 . S
C4244 C4245 1.434 . S
C4245 C4236 1.429 . S
C4245 N4242 1.350 . S
C4245 C4244 1.434 . S
C4246 C4247 1.369 . S
C4246 C4248 1.419 . S
C4246 H4250 0.930 . S
C4247 C4246 1.369 . S
C4247 C4256 1.429 . S
C4248 C4246 1.419 . S
C4248 C4249 1.363 . S
C4248 H4251 0.929 . S
C4249 C4248 1.363 . S
C4249 C4255 1.428 . S
H4250 C4246 0.930 . S
H4251 C4248 0.929 . S
S4252 N4253 1.613 . S
S4252 N4254 1.610 . S
N4253 S4252 1.613 . S
N4253 C4256 1.350 . S
N4254 S4252 1.610 . S
N4254 C4255 1.351 . S
C4255 C4249 1.428 . S
C4255 N4254 1.351 . S
C4255 C4256 1.434 . S
C4256 C4247 1.429 . S
C4256 N4253 1.350 . S
C4256 C4255 1.434 . S
C4257 C4258 1.369 . S
C4257 C4259 1.419 . S
C4257 H4261 0.930 . S
C4258 C4257 1.369 . S
C4258 C4267 1.429 . S
C4259 C4257 1.419 . S
C4259 C4260 1.363 . S
C4259 H4262 0.929 . S
C4260 C4259 1.363 . S
C4260 C4266 1.428 . S
H4261 C4257 0.930 . S
H4262 C4259 0.929 . S
S4263 N4264 1.613 . S
S4263 N4265 1.610 . S
N4264 S4263 1.613 . S
N4264 C4267 1.350 . S
N4265 S4263 1.610 . S
N4265 C4266 1.351 . S
C4266 C4260 1.428 . S
C4266 N4265 1.351 . S
C4266 C4267 1.434 . S
C4267 C4258 1.429 . S
C4267 N4264 1.350 . S
C4267 C4266 1.434 . S
C4268 C4269 1.369 . S
C4268 C4270 1.419 . S
C4268 H4272 0.930 . S
C4269 C4268 1.369 . S
C4269 C4278 1.429 . S
C4270 C4268 1.419 . S
C4270 C4271 1.363 . S
C4270 H4273 0.929 . S
C4271 C4270 1.363 . S
C4271 C4277 1.428 . S
H4272 C4268 0.930 . S
H4273 C4270 0.929 . S
S4274 N4275 1.613 . S
S4274 N4276 1.610 . S
N4275 S4274 1.613 . S
N4275 C4278 1.350 . S
N4276 S4274 1.610 . S
N4276 C4277 1.351 . S
C4277 C4271 1.428 . S
C4277 N4276 1.351 . S
C4277 C4278 1.434 . S
C4278 C4269 1.429 . S
C4278 N4275 1.350 . S
C4278 C4277 1.434 . S
C4279 C4280 1.369 . S
C4279 C4281 1.419 . S
C4279 H4283 0.930 . S
C4280 C4279 1.369 . S
C4280 C4289 1.429 . S
C4281 C4279 1.419 . S
C4281 C4282 1.363 . S
C4281 H4284 0.929 . S
C4282 C4281 1.363 . S
C4282 C4288 1.428 . S
H4283 C4279 0.930 . S
H4284 C4281 0.929 . S
S4285 N4286 1.613 . S
S4285 N4287 1.610 . S
N4286 S4285 1.613 . S
N4286 C4289 1.350 . S
N4287 S4285 1.610 . S
N4287 C4288 1.351 . S
C4288 C4282 1.428 . S
C4288 N4287 1.351 . S
C4288 C4289 1.434 . S
C4289 C4280 1.429 . S
C4289 N4286 1.350 . S
C4289 C4288 1.434 . S
C4290 C4291 1.369 . S
C4290 C4292 1.419 . S
C4290 H4294 0.930 . S
C4291 C4290 1.369 . S
C4291 C4300 1.429 . S
C4292 C4290 1.419 . S
C4292 C4293 1.363 . S
C4292 H4295 0.929 . S
C4293 C4292 1.363 . S
C4293 C4299 1.428 . S
H4294 C4290 0.930 . S
H4295 C4292 0.929 . S
S4296 N4297 1.613 . S
S4296 N4298 1.610 . S
N4297 S4296 1.613 . S
N4297 C4300 1.350 . S
N4298 S4296 1.610 . S
N4298 C4299 1.351 . S
C4299 C4293 1.428 . S
C4299 N4298 1.351 . S
C4299 C4300 1.434 . S
C4300 C4291 1.429 . S
C4300 N4297 1.350 . S
C4300 C4299 1.434 . S
C4301 C4302 1.369 . S
C4301 C4303 1.419 . S
C4301 H4305 0.930 . S
C4302 C4301 1.369 . S
C4302 C4311 1.429 . S
C4303 C4301 1.419 . S
C4303 C4304 1.363 . S
C4303 H4306 0.929 . S
C4304 C4303 1.363 . S
C4304 C4310 1.428 . S
H4305 C4301 0.930 . S
H4306 C4303 0.929 . S
S4307 N4308 1.613 . S
S4307 N4309 1.610 . S
N4308 S4307 1.613 . S
N4308 C4311 1.350 . S
N4309 S4307 1.610 . S
N4309 C4310 1.351 . S
C4310 C4304 1.428 . S
C4310 N4309 1.351 . S
C4310 C4311 1.434 . S
C4311 C4302 1.429 . S
C4311 N4308 1.350 . S
C4311 C4310 1.434 . S
C4312 C4313 1.369 . S
C4312 C4314 1.419 . S
C4312 H4316 0.930 . S
C4313 C4312 1.369 . S
C4313 C4322 1.429 . S
C4314 C4312 1.419 . S
C4314 C4315 1.363 . S
C4314 H4317 0.929 . S
C4315 C4314 1.363 . S
C4315 C4321 1.428 . S
H4316 C4312 0.930 . S
H4317 C4314 0.929 . S
S4318 N4319 1.613 . S
S4318 N4320 1.610 . S
N4319 S4318 1.613 . S
N4319 C4322 1.350 . S
N4320 S4318 1.610 . S
N4320 C4321 1.351 . S
C4321 C4315 1.428 . S
C4321 N4320 1.351 . S
C4321 C4322 1.434 . S
C4322 C4313 1.429 . S
C4322 N4319 1.350 . S
C4322 C4321 1.434 . S
C4323 C4324 1.369 . S
C4323 C4325 1.419 . S
C4323 H4327 0.930 . S
C4324 C4323 1.369 . S
C4324 C4333 1.429 . S
C4325 C4323 1.419 . S
C4325 C4326 1.363 . S
C4325 H4328 0.929 . S
C4326 C4325 1.363 . S
C4326 C4332 1.428 . S
H4327 C4323 0.930 . S
H4328 C4325 0.929 . S
S4329 N4330 1.613 . S
S4329 N4331 1.610 . S
N4330 S4329 1.613 . S
N4330 C4333 1.350 . S
N4331 S4329 1.610 . S
N4331 C4332 1.351 . S
C4332 C4326 1.428 . S
C4332 N4331 1.351 . S
C4332 C4333 1.434 . S
C4333 C4324 1.429 . S
C4333 N4330 1.350 . S
C4333 C4332 1.434 . S
C4334 C4335 1.369 . S
C4334 C4336 1.419 . S
C4334 H4338 0.930 . S
C4335 C4334 1.369 . S
C4335 C4344 1.429 . S
C4336 C4334 1.419 . S
C4336 C4337 1.363 . S
C4336 H4339 0.929 . S
C4337 C4336 1.363 . S
C4337 C4343 1.428 . S
H4338 C4334 0.930 . S
H4339 C4336 0.929 . S
S4340 N4341 1.613 . S
S4340 N4342 1.610 . S
N4341 S4340 1.613 . S
N4341 C4344 1.350 . S
N4342 S4340 1.610 . S
N4342 C4343 1.351 . S
C4343 C4337 1.428 . S
C4343 N4342 1.351 . S
C4343 C4344 1.434 . S
C4344 C4335 1.429 . S
C4344 N4341 1.350 . S
C4344 C4343 1.434 . S
C4345 C4346 1.369 . S
C4345 C4347 1.419 . S
C4345 H4349 0.930 . S
C4346 C4345 1.369 . S
C4346 C4355 1.429 . S
C4347 C4345 1.419 . S
C4347 C4348 1.363 . S
C4347 H4350 0.929 . S
C4348 C4347 1.363 . S
C4348 C4354 1.428 . S
H4349 C4345 0.930 . S
H4350 C4347 0.929 . S
S4351 N4352 1.613 . S
S4351 N4353 1.610 . S
N4352 S4351 1.613 . S
N4352 C4355 1.350 . S
N4353 S4351 1.610 . S
N4353 C4354 1.351 . S
C4354 C4348 1.428 . S
C4354 N4353 1.351 . S
C4354 C4355 1.434 . S
C4355 C4346 1.429 . S
C4355 N4352 1.350 . S
C4355 C4354 1.434 . S
C4356 C4357 1.369 . S
C4356 C4358 1.419 . S
C4356 H4360 0.930 . S
C4357 C4356 1.369 . S
C4357 C4366 1.429 . S
C4358 C4356 1.419 . S
C4358 C4359 1.363 . S
C4358 H4361 0.929 . S
C4359 C4358 1.363 . S
C4359 C4365 1.428 . S
H4360 C4356 0.930 . S
H4361 C4358 0.929 . S
S4362 N4363 1.613 . S
S4362 N4364 1.610 . S
N4363 S4362 1.613 . S
N4363 C4366 1.350 . S
N4364 S4362 1.610 . S
N4364 C4365 1.351 . S
C4365 C4359 1.428 . S
C4365 N4364 1.351 . S
C4365 C4366 1.434 . S
C4366 C4357 1.429 . S
C4366 N4363 1.350 . S
C4366 C4365 1.434 . S
C4367 C4368 1.369 . S
C4367 C4369 1.419 . S
C4367 H4371 0.930 . S
C4368 C4367 1.369 . S
C4368 C4377 1.429 . S
C4369 C4367 1.419 . S
C4369 C4370 1.363 . S
C4369 H4372 0.929 . S
C4370 C4369 1.363 . S
C4370 C4376 1.428 . S
H4371 C4367 0.930 . S
H4372 C4369 0.929 . S
S4373 N4374 1.613 . S
S4373 N4375 1.610 . S
N4374 S4373 1.613 . S
N4374 C4377 1.350 . S
N4375 S4373 1.610 . S
N4375 C4376 1.351 . S
C4376 C4370 1.428 . S
C4376 N4375 1.351 . S
C4376 C4377 1.434 . S
C4377 C4368 1.429 . S
C4377 N4374 1.350 . S
C4377 C4376 1.434 . S
C4378 C4379 1.369 . S
C4378 C4380 1.419 . S
C4378 H4382 0.930 . S
C4379 C4378 1.369 . S
C4379 C4388 1.429 . S
C4380 C4378 1.419 . S
C4380 C4381 1.363 . S
C4380 H4383 0.929 . S
C4381 C4380 1.363 . S
C4381 C4387 1.428 . S
H4382 C4378 0.930 . S
H4383 C4380 0.929 . S
S4384 N4385 1.613 . S
S4384 N4386 1.610 . S
N4385 S4384 1.613 . S
N4385 C4388 1.350 . S
N4386 S4384 1.610 . S
N4386 C4387 1.351 . S
C4387 C4381 1.428 . S
C4387 N4386 1.351 . S
C4387 C4388 1.434 . S
C4388 C4379 1.429 . S
C4388 N4385 1.350 . S
C4388 C4387 1.434 . S
C4389 C4390 1.369 . S
C4389 C4391 1.419 . S
C4389 H4393 0.930 . S
C4390 C4389 1.369 . S
C4390 C4399 1.429 . S
C4391 C4389 1.419 . S
C4391 C4392 1.363 . S
C4391 H4394 0.929 . S
C4392 C4391 1.363 . S
C4392 C4398 1.428 . S
H4393 C4389 0.930 . S
H4394 C4391 0.929 . S
S4395 N4396 1.613 . S
S4395 N4397 1.610 . S
N4396 S4395 1.613 . S
N4396 C4399 1.350 . S
N4397 S4395 1.610 . S
N4397 C4398 1.351 . S
C4398 C4392 1.428 . S
C4398 N4397 1.351 . S
C4398 C4399 1.434 . S
C4399 C4390 1.429 . S
C4399 N4396 1.350 . S
C4399 C4398 1.434 . S
C4400 C4401 1.369 . S
C4400 C4402 1.419 . S
C4400 H4404 0.930 . S
C4401 C4400 1.369 . S
C4401 C4410 1.429 . S
C4402 C4400 1.419 . S
C4402 C4403 1.363 . S
C4402 H4405 0.929 . S
C4403 C4402 1.363 . S
C4403 C4409 1.428 . S
H4404 C4400 0.930 . S
H4405 C4402 0.929 . S
S4406 N4407 1.613 . S
S4406 N4408 1.610 . S
N4407 S4406 1.613 . S
N4407 C4410 1.350 . S
N4408 S4406 1.610 . S
N4408 C4409 1.351 . S
C4409 C4403 1.428 . S
C4409 N4408 1.351 . S
C4409 C4410 1.434 . S
C4410 C4401 1.429 . S
C4410 N4407 1.350 . S
C4410 C4409 1.434 . S
C4411 C4412 1.369 . S
C4411 C4413 1.419 . S
C4411 H4415 0.930 . S
C4412 C4411 1.369 . S
C4412 C4421 1.429 . S
C4413 C4411 1.419 . S
C4413 C4414 1.363 . S
C4413 H4416 0.929 . S
C4414 C4413 1.363 . S
C4414 C4420 1.428 . S
H4415 C4411 0.930 . S
H4416 C4413 0.929 . S
S4417 N4418 1.613 . S
S4417 N4419 1.610 . S
N4418 S4417 1.613 . S
N4418 C4421 1.350 . S
N4419 S4417 1.610 . S
N4419 C4420 1.351 . S
C4420 C4414 1.428 . S
C4420 N4419 1.351 . S
C4420 C4421 1.434 . S
C4421 C4412 1.429 . S
C4421 N4418 1.350 . S
C4421 C4420 1.434 . S
C4422 C4423 1.369 . S
C4422 C4424 1.419 . S
C4422 H4426 0.930 . S
C4423 C4422 1.369 . S
C4423 C4432 1.429 . S
C4424 C4422 1.419 . S
C4424 C4425 1.363 . S
C4424 H4427 0.929 . S
C4425 C4424 1.363 . S
C4425 C4431 1.428 . S
H4426 C4422 0.930 . S
H4427 C4424 0.929 . S
S4428 N4429 1.613 . S
S4428 N4430 1.610 . S
N4429 S4428 1.613 . S
N4429 C4432 1.350 . S
N4430 S4428 1.610 . S
N4430 C4431 1.351 . S
C4431 C4425 1.428 . S
C4431 N4430 1.351 . S
C4431 C4432 1.434 . S
C4432 C4423 1.429 . S
C4432 N4429 1.350 . S
C4432 C4431 1.434 . S
C4433 C4434 1.369 . S
C4433 C4435 1.419 . S
C4433 H4437 0.930 . S
C4434 C4433 1.369 . S
C4434 C4443 1.429 . S
C4435 C4433 1.419 . S
C4435 C4436 1.363 . S
C4435 H4438 0.929 . S
C4436 C4435 1.363 . S
C4436 C4442 1.428 . S
H4437 C4433 0.930 . S
H4438 C4435 0.929 . S
S4439 N4440 1.613 . S
S4439 N4441 1.610 . S
N4440 S4439 1.613 . S
N4440 C4443 1.350 . S
N4441 S4439 1.610 . S
N4441 C4442 1.351 . S
C4442 C4436 1.428 . S
C4442 N4441 1.351 . S
C4442 C4443 1.434 . S
C4443 C4434 1.429 . S
C4443 N4440 1.350 . S
C4443 C4442 1.434 . S
C4444 C4445 1.369 . S
C4444 C4446 1.419 . S
C4444 H4448 0.930 . S
C4445 C4444 1.369 . S
C4445 C4454 1.429 . S
C4446 C4444 1.419 . S
C4446 C4447 1.363 . S
C4446 H4449 0.929 . S
C4447 C4446 1.363 . S
C4447 C4453 1.428 . S
H4448 C4444 0.930 . S
H4449 C4446 0.929 . S
S4450 N4451 1.613 . S
S4450 N4452 1.610 . S
N4451 S4450 1.613 . S
N4451 C4454 1.350 . S
N4452 S4450 1.610 . S
N4452 C4453 1.351 . S
C4453 C4447 1.428 . S
C4453 N4452 1.351 . S
C4453 C4454 1.434 . S
C4454 C4445 1.429 . S
C4454 N4451 1.350 . S
C4454 C4453 1.434 . S
C4455 C4456 1.369 . S
C4455 C4457 1.419 . S
C4455 H4459 0.930 . S
C4456 C4455 1.369 . S
C4456 C4465 1.429 . S
C4457 C4455 1.419 . S
C4457 C4458 1.363 . S
C4457 H4460 0.929 . S
C4458 C4457 1.363 . S
C4458 C4464 1.428 . S
H4459 C4455 0.930 . S
H4460 C4457 0.929 . S
S4461 N4462 1.613 . S
S4461 N4463 1.610 . S
N4462 S4461 1.613 . S
N4462 C4465 1.350 . S
N4463 S4461 1.610 . S
N4463 C4464 1.351 . S
C4464 C4458 1.428 . S
C4464 N4463 1.351 . S
C4464 C4465 1.434 . S
C4465 C4456 1.429 . S
C4465 N4462 1.350 . S
C4465 C4464 1.434 . S
C4466 C4467 1.369 . S
C4466 C4468 1.419 . S
C4466 H4470 0.930 . S
C4467 C4466 1.369 . S
C4467 C4476 1.429 . S
C4468 C4466 1.419 . S
C4468 C4469 1.363 . S
C4468 H4471 0.929 . S
C4469 C4468 1.363 . S
C4469 C4475 1.428 . S
H4470 C4466 0.930 . S
H4471 C4468 0.929 . S
S4472 N4473 1.613 . S
S4472 N4474 1.610 . S
N4473 S4472 1.613 . S
N4473 C4476 1.350 . S
N4474 S4472 1.610 . S
N4474 C4475 1.351 . S
C4475 C4469 1.428 . S
C4475 N4474 1.351 . S
C4475 C4476 1.434 . S
C4476 C4467 1.429 . S
C4476 N4473 1.350 . S
C4476 C4475 1.434 . S
C4477 C4478 1.369 . S
C4477 C4479 1.419 . S
C4477 H4481 0.930 . S
C4478 C4477 1.369 . S
C4478 C4487 1.429 . S
C4479 C4477 1.419 . S
C4479 C4480 1.363 . S
C4479 H4482 0.929 . S
C4480 C4479 1.363 . S
C4480 C4486 1.428 . S
H4481 C4477 0.930 . S
H4482 C4479 0.929 . S
S4483 N4484 1.613 . S
S4483 N4485 1.610 . S
N4484 S4483 1.613 . S
N4484 C4487 1.350 . S
N4485 S4483 1.610 . S
N4485 C4486 1.351 . S
C4486 C4480 1.428 . S
C4486 N4485 1.351 . S
C4486 C4487 1.434 . S
C4487 C4478 1.429 . S
C4487 N4484 1.350 . S
C4487 C4486 1.434 . S
C4488 C4489 1.369 . S
C4488 C4490 1.419 . S
C4488 H4492 0.930 . S
C4489 C4488 1.369 . S
C4489 C4498 1.429 . S
C4490 C4488 1.419 . S
C4490 C4491 1.363 . S
C4490 H4493 0.929 . S
C4491 C4490 1.363 . S
C4491 C4497 1.428 . S
H4492 C4488 0.930 . S
H4493 C4490 0.929 . S
S4494 N4495 1.613 . S
S4494 N4496 1.610 . S
N4495 S4494 1.613 . S
N4495 C4498 1.350 . S
N4496 S4494 1.610 . S
N4496 C4497 1.351 . S
C4497 C4491 1.428 . S
C4497 N4496 1.351 . S
C4497 C4498 1.434 . S
C4498 C4489 1.429 . S
C4498 N4495 1.350 . S
C4498 C4497 1.434 . S
C4499 C4500 1.369 . S
C4499 C4501 1.419 . S
C4499 H4503 0.930 . S
C4500 C4499 1.369 . S
C4500 C4509 1.429 . S
C4501 C4499 1.419 . S
C4501 C4502 1.363 . S
C4501 H4504 0.929 . S
C4502 C4501 1.363 . S
C4502 C4508 1.428 . S
H4503 C4499 0.930 . S
H4504 C4501 0.929 . S
S4505 N4506 1.613 . S
S4505 N4507 1.610 . S
N4506 S4505 1.613 . S
N4506 C4509 1.350 . S
N4507 S4505 1.610 . S
N4507 C4508 1.351 . S
C4508 C4502 1.428 . S
C4508 N4507 1.351 . S
C4508 C4509 1.434 . S
C4509 C4500 1.429 . S
C4509 N4506 1.350 . S
C4509 C4508 1.434 . S
C4510 C4511 1.369 . S
C4510 C4512 1.419 . S
C4510 H4514 0.930 . S
C4511 C4510 1.369 . S
C4511 C4520 1.429 . S
C4512 C4510 1.419 . S
C4512 C4513 1.363 . S
C4512 H4515 0.929 . S
C4513 C4512 1.363 . S
C4513 C4519 1.428 . S
H4514 C4510 0.930 . S
H4515 C4512 0.929 . S
S4516 N4517 1.613 . S
S4516 N4518 1.610 . S
N4517 S4516 1.613 . S
N4517 C4520 1.350 . S
N4518 S4516 1.610 . S
N4518 C4519 1.351 . S
C4519 C4513 1.428 . S
C4519 N4518 1.351 . S
C4519 C4520 1.434 . S
C4520 C4511 1.429 . S
C4520 N4517 1.350 . S
C4520 C4519 1.434 . S
C4521 C4522 1.369 . S
C4521 C4523 1.419 . S
C4521 H4525 0.930 . S
C4522 C4521 1.369 . S
C4522 C4531 1.429 . S
C4523 C4521 1.419 . S
C4523 C4524 1.363 . S
C4523 H4526 0.929 . S
C4524 C4523 1.363 . S
C4524 C4530 1.428 . S
H4525 C4521 0.930 . S
H4526 C4523 0.929 . S
S4527 N4528 1.613 . S
S4527 N4529 1.610 . S
N4528 S4527 1.613 . S
N4528 C4531 1.350 . S
N4529 S4527 1.610 . S
N4529 C4530 1.351 . S
C4530 C4524 1.428 . S
C4530 N4529 1.351 . S
C4530 C4531 1.434 . S
C4531 C4522 1.429 . S
C4531 N4528 1.350 . S
C4531 C4530 1.434 . S
C4532 C4533 1.369 . S
C4532 C4534 1.419 . S
C4532 H4536 0.930 . S
C4533 C4532 1.369 . S
C4533 C4542 1.429 . S
C4534 C4532 1.419 . S
C4534 C4535 1.363 . S
C4534 H4537 0.929 . S
C4535 C4534 1.363 . S
C4535 C4541 1.428 . S
H4536 C4532 0.930 . S
H4537 C4534 0.929 . S
S4538 N4539 1.613 . S
S4538 N4540 1.610 . S
N4539 S4538 1.613 . S
N4539 C4542 1.350 . S
N4540 S4538 1.610 . S
N4540 C4541 1.351 . S
C4541 C4535 1.428 . S
C4541 N4540 1.351 . S
C4541 C4542 1.434 . S
C4542 C4533 1.429 . S
C4542 N4539 1.350 . S
C4542 C4541 1.434 . S
C4543 C4544 1.369 . S
C4543 C4545 1.419 . S
C4543 H4547 0.930 . S
C4544 C4543 1.369 . S
C4544 C4553 1.429 . S
C4545 C4543 1.419 . S
C4545 C4546 1.363 . S
C4545 H4548 0.929 . S
C4546 C4545 1.363 . S
C4546 C4552 1.428 . S
H4547 C4543 0.930 . S
H4548 C4545 0.929 . S
S4549 N4550 1.613 . S
S4549 N4551 1.610 . S
N4550 S4549 1.613 . S
N4550 C4553 1.350 . S
N4551 S4549 1.610 . S
N4551 C4552 1.351 . S
C4552 C4546 1.428 . S
C4552 N4551 1.351 . S
C4552 C4553 1.434 . S
C4553 C4544 1.429 . S
C4553 N4550 1.350 . S
C4553 C4552 1.434 . S
C4554 C4555 1.369 . S
C4554 C4556 1.419 . S
C4554 H4558 0.930 . S
C4555 C4554 1.369 . S
C4555 C4564 1.429 . S
C4556 C4554 1.419 . S
C4556 C4557 1.363 . S
C4556 H4559 0.929 . S
C4557 C4556 1.363 . S
C4557 C4563 1.428 . S
H4558 C4554 0.930 . S
H4559 C4556 0.929 . S
S4560 N4561 1.613 . S
S4560 N4562 1.610 . S
N4561 S4560 1.613 . S
N4561 C4564 1.350 . S
N4562 S4560 1.610 . S
N4562 C4563 1.351 . S
C4563 C4557 1.428 . S
C4563 N4562 1.351 . S
C4563 C4564 1.434 . S
C4564 C4555 1.429 . S
C4564 N4561 1.350 . S
C4564 C4563 1.434 . S
C4565 C4566 1.369 . S
C4565 C4567 1.419 . S
C4565 H4569 0.930 . S
C4566 C4565 1.369 . S
C4566 C4575 1.429 . S
C4567 C4565 1.419 . S
C4567 C4568 1.363 . S
C4567 H4570 0.929 . S
C4568 C4567 1.363 . S
C4568 C4574 1.428 . S
H4569 C4565 0.930 . S
H4570 C4567 0.929 . S
S4571 N4572 1.613 . S
S4571 N4573 1.610 . S
N4572 S4571 1.613 . S
N4572 C4575 1.350 . S
N4573 S4571 1.610 . S
N4573 C4574 1.351 . S
C4574 C4568 1.428 . S
C4574 N4573 1.351 . S
C4574 C4575 1.434 . S
C4575 C4566 1.429 . S
C4575 N4572 1.350 . S
C4575 C4574 1.434 . S
C4576 C4577 1.369 . S
C4576 C4578 1.419 . S
C4576 H4580 0.930 . S
C4577 C4576 1.369 . S
C4577 C4586 1.429 . S
C4578 C4576 1.419 . S
C4578 C4579 1.363 . S
C4578 H4581 0.929 . S
C4579 C4578 1.363 . S
C4579 C4585 1.428 . S
H4580 C4576 0.930 . S
H4581 C4578 0.929 . S
S4582 N4583 1.613 . S
S4582 N4584 1.610 . S
N4583 S4582 1.613 . S
N4583 C4586 1.350 . S
N4584 S4582 1.610 . S
N4584 C4585 1.351 . S
C4585 C4579 1.428 . S
C4585 N4584 1.351 . S
C4585 C4586 1.434 . S
C4586 C4577 1.429 . S
C4586 N4583 1.350 . S
C4586 C4585 1.434 . S
C4587 C4588 1.369 . S
C4587 C4589 1.419 . S
C4587 H4591 0.930 . S
C4588 C4587 1.369 . S
C4588 C4597 1.429 . S
C4589 C4587 1.419 . S
C4589 C4590 1.363 . S
C4589 H4592 0.929 . S
C4590 C4589 1.363 . S
C4590 C4596 1.428 . S
H4591 C4587 0.930 . S
H4592 C4589 0.929 . S
S4593 N4594 1.613 . S
S4593 N4595 1.610 . S
N4594 S4593 1.613 . S
N4594 C4597 1.350 . S
N4595 S4593 1.610 . S
N4595 C4596 1.351 . S
C4596 C4590 1.428 . S
C4596 N4595 1.351 . S
C4596 C4597 1.434 . S
C4597 C4588 1.429 . S
C4597 N4594 1.350 . S
C4597 C4596 1.434 . S
C4598 C4599 1.369 . S
C4598 C4600 1.419 . S
C4598 H4602 0.930 . S
C4599 C4598 1.369 . S
C4599 C4608 1.429 . S
C4600 C4598 1.419 . S
C4600 C4601 1.363 . S
C4600 H4603 0.929 . S
C4601 C4600 1.363 . S
C4601 C4607 1.428 . S
H4602 C4598 0.930 . S
H4603 C4600 0.929 . S
S4604 N4605 1.613 . S
S4604 N4606 1.610 . S
N4605 S4604 1.613 . S
N4605 C4608 1.350 . S
N4606 S4604 1.610 . S
N4606 C4607 1.351 . S
C4607 C4601 1.428 . S
C4607 N4606 1.351 . S
C4607 C4608 1.434 . S
C4608 C4599 1.429 . S
C4608 N4605 1.350 . S
C4608 C4607 1.434 . S
C4609 C4610 1.369 . S
C4609 C4611 1.419 . S
C4609 H4613 0.930 . S
C4610 C4609 1.369 . S
C4610 C4619 1.429 . S
C4611 C4609 1.419 . S
C4611 C4612 1.363 . S
C4611 H4614 0.929 . S
C4612 C4611 1.363 . S
C4612 C4618 1.428 . S
H4613 C4609 0.930 . S
H4614 C4611 0.929 . S
S4615 N4616 1.613 . S
S4615 N4617 1.610 . S
N4616 S4615 1.613 . S
N4616 C4619 1.350 . S
N4617 S4615 1.610 . S
N4617 C4618 1.351 . S
C4618 C4612 1.428 . S
C4618 N4617 1.351 . S
C4618 C4619 1.434 . S
C4619 C4610 1.429 . S
C4619 N4616 1.350 . S
C4619 C4618 1.434 . S
C4620 C4621 1.369 . S
C4620 C4622 1.419 . S
C4620 H4624 0.930 . S
C4621 C4620 1.369 . S
C4621 C4630 1.429 . S
C4622 C4620 1.419 . S
C4622 C4623 1.363 . S
C4622 H4625 0.929 . S
C4623 C4622 1.363 . S
C4623 C4629 1.428 . S
H4624 C4620 0.930 . S
H4625 C4622 0.929 . S
S4626 N4627 1.613 . S
S4626 N4628 1.610 . S
N4627 S4626 1.613 . S
N4627 C4630 1.350 . S
N4628 S4626 1.610 . S
N4628 C4629 1.351 . S
C4629 C4623 1.428 . S
C4629 N4628 1.351 . S
C4629 C4630 1.434 . S
C4630 C4621 1.429 . S
C4630 N4627 1.350 . S
C4630 C4629 1.434 . S
C4631 C4632 1.369 . S
C4631 C4633 1.419 . S
C4631 H4635 0.930 . S
C4632 C4631 1.369 . S
C4632 C4641 1.429 . S
C4633 C4631 1.419 . S
C4633 C4634 1.363 . S
C4633 H4636 0.929 . S
C4634 C4633 1.363 . S
C4634 C4640 1.428 . S
H4635 C4631 0.930 . S
H4636 C4633 0.929 . S
S4637 N4638 1.613 . S
S4637 N4639 1.610 . S
N4638 S4637 1.613 . S
N4638 C4641 1.350 . S
N4639 S4637 1.610 . S
N4639 C4640 1.351 . S
C4640 C4634 1.428 . S
C4640 N4639 1.351 . S
C4640 C4641 1.434 . S
C4641 C4632 1.429 . S
C4641 N4638 1.350 . S
C4641 C4640 1.434 . S
C4642 C4643 1.369 . S
C4642 C4644 1.419 . S
C4642 H4646 0.930 . S
C4643 C4642 1.369 . S
C4643 C4652 1.429 . S
C4644 C4642 1.419 . S
C4644 C4645 1.363 . S
C4644 H4647 0.929 . S
C4645 C4644 1.363 . S
C4645 C4651 1.428 . S
H4646 C4642 0.930 . S
H4647 C4644 0.929 . S
S4648 N4649 1.613 . S
S4648 N4650 1.610 . S
N4649 S4648 1.613 . S
N4649 C4652 1.350 . S
N4650 S4648 1.610 . S
N4650 C4651 1.351 . S
C4651 C4645 1.428 . S
C4651 N4650 1.351 . S
C4651 C4652 1.434 . S
C4652 C4643 1.429 . S
C4652 N4649 1.350 . S
C4652 C4651 1.434 . S
C4653 C4654 1.369 . S
C4653 C4655 1.419 . S
C4653 H4657 0.930 . S
C4654 C4653 1.369 . S
C4654 C4663 1.429 . S
C4655 C4653 1.419 . S
C4655 C4656 1.363 . S
C4655 H4658 0.929 . S
C4656 C4655 1.363 . S
C4656 C4662 1.428 . S
H4657 C4653 0.930 . S
H4658 C4655 0.929 . S
S4659 N4660 1.613 . S
S4659 N4661 1.610 . S
N4660 S4659 1.613 . S
N4660 C4663 1.350 . S
N4661 S4659 1.610 . S
N4661 C4662 1.351 . S
C4662 C4656 1.428 . S
C4662 N4661 1.351 . S
C4662 C4663 1.434 . S
C4663 C4654 1.429 . S
C4663 N4660 1.350 . S
C4663 C4662 1.434 . S
C4664 C4665 1.369 . S
C4664 C4666 1.419 . S
C4664 H4668 0.930 . S
C4665 C4664 1.369 . S
C4665 C4674 1.429 . S
C4666 C4664 1.419 . S
C4666 C4667 1.363 . S
C4666 H4669 0.929 . S
C4667 C4666 1.363 . S
C4667 C4673 1.428 . S
H4668 C4664 0.930 . S
H4669 C4666 0.929 . S
S4670 N4671 1.613 . S
S4670 N4672 1.610 . S
N4671 S4670 1.613 . S
N4671 C4674 1.350 . S
N4672 S4670 1.610 . S
N4672 C4673 1.351 . S
C4673 C4667 1.428 . S
C4673 N4672 1.351 . S
C4673 C4674 1.434 . S
C4674 C4665 1.429 . S
C4674 N4671 1.350 . S
C4674 C4673 1.434 . S
C4675 C4676 1.369 . S
C4675 C4677 1.419 . S
C4675 H4679 0.930 . S
C4676 C4675 1.369 . S
C4676 C4685 1.429 . S
C4677 C4675 1.419 . S
C4677 C4678 1.363 . S
C4677 H4680 0.929 . S
C4678 C4677 1.363 . S
C4678 C4684 1.428 . S
H4679 C4675 0.930 . S
H4680 C4677 0.929 . S
S4681 N4682 1.613 . S
S4681 N4683 1.610 . S
N4682 S4681 1.613 . S
N4682 C4685 1.350 . S
N4683 S4681 1.610 . S
N4683 C4684 1.351 . S
C4684 C4678 1.428 . S
C4684 N4683 1.351 . S
C4684 C4685 1.434 . S
C4685 C4676 1.429 . S
C4685 N4682 1.350 . S
C4685 C4684 1.434 . S
C4686 C4687 1.369 . S
C4686 C4688 1.419 . S
C4686 H4690 0.930 . S
C4687 C4686 1.369 . S
C4687 C4696 1.429 . S
C4688 C4686 1.419 . S
C4688 C4689 1.363 . S
C4688 H4691 0.929 . S
C4689 C4688 1.363 . S
C4689 C4695 1.428 . S
H4690 C4686 0.930 . S
H4691 C4688 0.929 . S
S4692 N4693 1.613 . S
S4692 N4694 1.610 . S
N4693 S4692 1.613 . S
N4693 C4696 1.350 . S
N4694 S4692 1.610 . S
N4694 C4695 1.351 . S
C4695 C4689 1.428 . S
C4695 N4694 1.351 . S
C4695 C4696 1.434 . S
C4696 C4687 1.429 . S
C4696 N4693 1.350 . S
C4696 C4695 1.434 . S
C4697 C4698 1.369 . S
C4697 C4699 1.419 . S
C4697 H4701 0.930 . S
C4698 C4697 1.369 . S
C4698 C4707 1.429 . S
C4699 C4697 1.419 . S
C4699 C4700 1.363 . S
C4699 H4702 0.929 . S
C4700 C4699 1.363 . S
C4700 C4706 1.428 . S
H4701 C4697 0.930 . S
H4702 C4699 0.929 . S
S4703 N4704 1.613 . S
S4703 N4705 1.610 . S
N4704 S4703 1.613 . S
N4704 C4707 1.350 . S
N4705 S4703 1.610 . S
N4705 C4706 1.351 . S
C4706 C4700 1.428 . S
C4706 N4705 1.351 . S
C4706 C4707 1.434 . S
C4707 C4698 1.429 . S
C4707 N4704 1.350 . S
C4707 C4706 1.434 . S
C4708 C4709 1.369 . S
C4708 C4710 1.419 . S
C4708 H4712 0.930 . S
C4709 C4708 1.369 . S
C4709 C4718 1.429 . S
C4710 C4708 1.419 . S
C4710 C4711 1.363 . S
C4710 H4713 0.929 . S
C4711 C4710 1.363 . S
C4711 C4717 1.428 . S
H4712 C4708 0.930 . S
H4713 C4710 0.929 . S
S4714 N4715 1.613 . S
S4714 N4716 1.610 . S
N4715 S4714 1.613 . S
N4715 C4718 1.350 . S
N4716 S4714 1.610 . S
N4716 C4717 1.351 . S
C4717 C4711 1.428 . S
C4717 N4716 1.351 . S
C4717 C4718 1.434 . S
C4718 C4709 1.429 . S
C4718 N4715 1.350 . S
C4718 C4717 1.434 . S
C4719 C4720 1.369 . S
C4719 C4721 1.419 . S
C4719 H4723 0.930 . S
C4720 C4719 1.369 . S
C4720 C4729 1.429 . S
C4721 C4719 1.419 . S
C4721 C4722 1.363 . S
C4721 H4724 0.929 . S
C4722 C4721 1.363 . S
C4722 C4728 1.428 . S
H4723 C4719 0.930 . S
H4724 C4721 0.929 . S
S4725 N4726 1.613 . S
S4725 N4727 1.610 . S
N4726 S4725 1.613 . S
N4726 C4729 1.350 . S
N4727 S4725 1.610 . S
N4727 C4728 1.351 . S
C4728 C4722 1.428 . S
C4728 N4727 1.351 . S
C4728 C4729 1.434 . S
C4729 C4720 1.429 . S
C4729 N4726 1.350 . S
C4729 C4728 1.434 . S
C4730 C4731 1.369 . S
C4730 C4732 1.419 . S
C4730 H4734 0.930 . S
C4731 C4730 1.369 . S
C4731 C4740 1.429 . S
C4732 C4730 1.419 . S
C4732 C4733 1.363 . S
C4732 H4735 0.929 . S
C4733 C4732 1.363 . S
C4733 C4739 1.428 . S
H4734 C4730 0.930 . S
H4735 C4732 0.929 . S
S4736 N4737 1.613 . S
S4736 N4738 1.610 . S
N4737 S4736 1.613 . S
N4737 C4740 1.350 . S
N4738 S4736 1.610 . S
N4738 C4739 1.351 . S
C4739 C4733 1.428 . S
C4739 N4738 1.351 . S
C4739 C4740 1.434 . S
C4740 C4731 1.429 . S
C4740 N4737 1.350 . S
C4740 C4739 1.434 . S
C4741 C4742 1.369 . S
C4741 C4743 1.419 . S
C4741 H4745 0.930 . S
C4742 C4741 1.369 . S
C4742 C4751 1.429 . S
C4743 C4741 1.419 . S
C4743 C4744 1.363 . S
C4743 H4746 0.929 . S
C4744 C4743 1.363 . S
C4744 C4750 1.428 . S
H4745 C4741 0.930 . S
H4746 C4743 0.929 . S
S4747 N4748 1.613 . S
S4747 N4749 1.610 . S
N4748 S4747 1.613 . S
N4748 C4751 1.350 . S
N4749 S4747 1.610 . S
N4749 C4750 1.351 . S
C4750 C4744 1.428 . S
C4750 N4749 1.351 . S
C4750 C4751 1.434 . S
C4751 C4742 1.429 . S
C4751 N4748 1.350 . S
C4751 C4750 1.434 . S
C4752 C4753 1.369 . S
C4752 C4754 1.419 . S
C4752 H4756 0.930 . S
C4753 C4752 1.369 . S
C4753 C4762 1.429 . S
C4754 C4752 1.419 . S
C4754 C4755 1.363 . S
C4754 H4757 0.929 . S
C4755 C4754 1.363 . S
C4755 C4761 1.428 . S
H4756 C4752 0.930 . S
H4757 C4754 0.929 . S
S4758 N4759 1.613 . S
S4758 N4760 1.610 . S
N4759 S4758 1.613 . S
N4759 C4762 1.350 . S
N4760 S4758 1.610 . S
N4760 C4761 1.351 . S
C4761 C4755 1.428 . S
C4761 N4760 1.351 . S
C4761 C4762 1.434 . S
C4762 C4753 1.429 . S
C4762 N4759 1.350 . S
C4762 C4761 1.434 . S
C4763 C4764 1.369 . S
C4763 C4765 1.419 . S
C4763 H4767 0.930 . S
C4764 C4763 1.369 . S
C4764 C4773 1.429 . S
C4765 C4763 1.419 . S
C4765 C4766 1.363 . S
C4765 H4768 0.929 . S
C4766 C4765 1.363 . S
C4766 C4772 1.428 . S
H4767 C4763 0.930 . S
H4768 C4765 0.929 . S
S4769 N4770 1.613 . S
S4769 N4771 1.610 . S
N4770 S4769 1.613 . S
N4770 C4773 1.350 . S
N4771 S4769 1.610 . S
N4771 C4772 1.351 . S
C4772 C4766 1.428 . S
C4772 N4771 1.351 . S
C4772 C4773 1.434 . S
C4773 C4764 1.429 . S
C4773 N4770 1.350 . S
C4773 C4772 1.434 . S
C4774 C4775 1.369 . S
C4774 C4776 1.419 . S
C4774 H4778 0.930 . S
C4775 C4774 1.369 . S
C4775 C4784 1.429 . S
C4776 C4774 1.419 . S
C4776 C4777 1.363 . S
C4776 H4779 0.929 . S
C4777 C4776 1.363 . S
C4777 C4783 1.428 . S
H4778 C4774 0.930 . S
H4779 C4776 0.929 . S
S4780 N4781 1.613 . S
S4780 N4782 1.610 . S
N4781 S4780 1.613 . S
N4781 C4784 1.350 . S
N4782 S4780 1.610 . S
N4782 C4783 1.351 . S
C4783 C4777 1.428 . S
C4783 N4782 1.351 . S
C4783 C4784 1.434 . S
C4784 C4775 1.429 . S
C4784 N4781 1.350 . S
C4784 C4783 1.434 . S
C4785 C4786 1.369 . S
C4785 C4787 1.419 . S
C4785 H4789 0.930 . S
C4786 C4785 1.369 . S
C4786 C4795 1.429 . S
C4787 C4785 1.419 . S
C4787 C4788 1.363 . S
C4787 H4790 0.929 . S
C4788 C4787 1.363 . S
C4788 C4794 1.428 . S
H4789 C4785 0.930 . S
H4790 C4787 0.929 . S
S4791 N4792 1.613 . S
S4791 N4793 1.610 . S
N4792 S4791 1.613 . S
N4792 C4795 1.350 . S
N4793 S4791 1.610 . S
N4793 C4794 1.351 . S
C4794 C4788 1.428 . S
C4794 N4793 1.351 . S
C4794 C4795 1.434 . S
C4795 C4786 1.429 . S
C4795 N4792 1.350 . S
C4795 C4794 1.434 . S
C4796 C4797 1.369 . S
C4796 C4798 1.419 . S
C4796 H4800 0.930 . S
C4797 C4796 1.369 . S
C4797 C4806 1.429 . S
C4798 C4796 1.419 . S
C4798 C4799 1.363 . S
C4798 H4801 0.929 . S
C4799 C4798 1.363 . S
C4799 C4805 1.428 . S
H4800 C4796 0.930 . S
H4801 C4798 0.929 . S
S4802 N4803 1.613 . S
S4802 N4804 1.610 . S
N4803 S4802 1.613 . S
N4803 C4806 1.350 . S
N4804 S4802 1.610 . S
N4804 C4805 1.351 . S
C4805 C4799 1.428 . S
C4805 N4804 1.351 . S
C4805 C4806 1.434 . S
C4806 C4797 1.429 . S
C4806 N4803 1.350 . S
C4806 C4805 1.434 . S
C4807 C4808 1.369 . S
C4807 C4809 1.419 . S
C4807 H4811 0.930 . S
C4808 C4807 1.369 . S
C4808 C4817 1.429 . S
C4809 C4807 1.419 . S
C4809 C4810 1.363 . S
C4809 H4812 0.929 . S
C4810 C4809 1.363 . S
C4810 C4816 1.428 . S
H4811 C4807 0.930 . S
H4812 C4809 0.929 . S
S4813 N4814 1.613 . S
S4813 N4815 1.610 . S
N4814 S4813 1.613 . S
N4814 C4817 1.350 . S
N4815 S4813 1.610 . S
N4815 C4816 1.351 . S
C4816 C4810 1.428 . S
C4816 N4815 1.351 . S
C4816 C4817 1.434 . S
C4817 C4808 1.429 . S
C4817 N4814 1.350 . S
C4817 C4816 1.434 . S
C4818 C4819 1.369 . S
C4818 C4820 1.419 . S
C4818 H4822 0.930 . S
C4819 C4818 1.369 . S
C4819 C4828 1.429 . S
C4820 C4818 1.419 . S
C4820 C4821 1.363 . S
C4820 H4823 0.929 . S
C4821 C4820 1.363 . S
C4821 C4827 1.428 . S
H4822 C4818 0.930 . S
H4823 C4820 0.929 . S
S4824 N4825 1.613 . S
S4824 N4826 1.610 . S
N4825 S4824 1.613 . S
N4825 C4828 1.350 . S
N4826 S4824 1.610 . S
N4826 C4827 1.351 . S
C4827 C4821 1.428 . S
C4827 N4826 1.351 . S
C4827 C4828 1.434 . S
C4828 C4819 1.429 . S
C4828 N4825 1.350 . S
C4828 C4827 1.434 . S
C4829 C4830 1.369 . S
C4829 C4831 1.419 . S
C4829 H4833 0.930 . S
C4830 C4829 1.369 . S
C4830 C4839 1.429 . S
C4831 C4829 1.419 . S
C4831 C4832 1.363 . S
C4831 H4834 0.929 . S
C4832 C4831 1.363 . S
C4832 C4838 1.428 . S
H4833 C4829 0.930 . S
H4834 C4831 0.929 . S
S4835 N4836 1.613 . S
S4835 N4837 1.610 . S
N4836 S4835 1.613 . S
N4836 C4839 1.350 . S
N4837 S4835 1.610 . S
N4837 C4838 1.351 . S
C4838 C4832 1.428 . S
C4838 N4837 1.351 . S
C4838 C4839 1.434 . S
C4839 C4830 1.429 . S
C4839 N4836 1.350 . S
C4839 C4838 1.434 . S
C4840 C4841 1.369 . S
C4840 C4842 1.419 . S
C4840 H4844 0.930 . S
C4841 C4840 1.369 . S
C4841 C4850 1.429 . S
C4842 C4840 1.419 . S
C4842 C4843 1.363 . S
C4842 H4845 0.929 . S
C4843 C4842 1.363 . S
C4843 C4849 1.428 . S
H4844 C4840 0.930 . S
H4845 C4842 0.929 . S
S4846 N4847 1.613 . S
S4846 N4848 1.610 . S
N4847 S4846 1.613 . S
N4847 C4850 1.350 . S
N4848 S4846 1.610 . S
N4848 C4849 1.351 . S
C4849 C4843 1.428 . S
C4849 N4848 1.351 . S
C4849 C4850 1.434 . S
C4850 C4841 1.429 . S
C4850 N4847 1.350 . S
C4850 C4849 1.434 . S
C4851 C4852 1.369 . S
C4851 C4853 1.419 . S
C4851 H4855 0.930 . S
C4852 C4851 1.369 . S
C4852 C4861 1.429 . S
C4853 C4851 1.419 . S
C4853 C4854 1.363 . S
C4853 H4856 0.929 . S
C4854 C4853 1.363 . S
C4854 C4860 1.428 . S
H4855 C4851 0.930 . S
H4856 C4853 0.929 . S
S4857 N4858 1.613 . S
S4857 N4859 1.610 . S
N4858 S4857 1.613 . S
N4858 C4861 1.350 . S
N4859 S4857 1.610 . S
N4859 C4860 1.351 . S
C4860 C4854 1.428 . S
C4860 N4859 1.351 . S
C4860 C4861 1.434 . S
C4861 C4852 1.429 . S
C4861 N4858 1.350 . S
C4861 C4860 1.434 . S
C4862 C4863 1.369 . S
C4862 C4864 1.419 . S
C4862 H4866 0.930 . S
C4863 C4862 1.369 . S
C4863 C4872 1.429 . S
C4864 C4862 1.419 . S
C4864 C4865 1.363 . S
C4864 H4867 0.929 . S
C4865 C4864 1.363 . S
C4865 C4871 1.428 . S
H4866 C4862 0.930 . S
H4867 C4864 0.929 . S
S4868 N4869 1.613 . S
S4868 N4870 1.610 . S
N4869 S4868 1.613 . S
N4869 C4872 1.350 . S
N4870 S4868 1.610 . S
N4870 C4871 1.351 . S
C4871 C4865 1.428 . S
C4871 N4870 1.351 . S
C4871 C4872 1.434 . S
C4872 C4863 1.429 . S
C4872 N4869 1.350 . S
C4872 C4871 1.434 . S
C4873 C4874 1.369 . S
C4873 C4875 1.419 . S
C4873 H4877 0.930 . S
C4874 C4873 1.369 . S
C4874 C4883 1.429 . S
C4875 C4873 1.419 . S
C4875 C4876 1.363 . S
C4875 H4878 0.929 . S
C4876 C4875 1.363 . S
C4876 C4882 1.428 . S
H4877 C4873 0.930 . S
H4878 C4875 0.929 . S
S4879 N4880 1.613 . S
S4879 N4881 1.610 . S
N4880 S4879 1.613 . S
N4880 C4883 1.350 . S
N4881 S4879 1.610 . S
N4881 C4882 1.351 . S
C4882 C4876 1.428 . S
C4882 N4881 1.351 . S
C4882 C4883 1.434 . S
C4883 C4874 1.429 . S
C4883 N4880 1.350 . S
C4883 C4882 1.434 . S
C4884 C4885 1.369 . S
C4884 C4886 1.419 . S
C4884 H4888 0.930 . S
C4885 C4884 1.369 . S
C4885 C4894 1.429 . S
C4886 C4884 1.419 . S
C4886 C4887 1.363 . S
C4886 H4889 0.929 . S
C4887 C4886 1.363 . S
C4887 C4893 1.428 . S
H4888 C4884 0.930 . S
H4889 C4886 0.929 . S
S4890 N4891 1.613 . S
S4890 N4892 1.610 . S
N4891 S4890 1.613 . S
N4891 C4894 1.350 . S
N4892 S4890 1.610 . S
N4892 C4893 1.351 . S
C4893 C4887 1.428 . S
C4893 N4892 1.351 . S
C4893 C4894 1.434 . S
C4894 C4885 1.429 . S
C4894 N4891 1.350 . S
C4894 C4893 1.434 . S
C4895 C4896 1.369 . S
C4895 C4897 1.419 . S
C4895 H4899 0.930 . S
C4896 C4895 1.369 . S
C4896 C4905 1.429 . S
C4897 C4895 1.419 . S
C4897 C4898 1.363 . S
C4897 H4900 0.929 . S
C4898 C4897 1.363 . S
C4898 C4904 1.428 . S
H4899 C4895 0.930 . S
H4900 C4897 0.929 . S
S4901 N4902 1.613 . S
S4901 N4903 1.610 . S
N4902 S4901 1.613 . S
N4902 C4905 1.350 . S
N4903 S4901 1.610 . S
N4903 C4904 1.351 . S
C4904 C4898 1.428 . S
C4904 N4903 1.351 . S
C4904 C4905 1.434 . S
C4905 C4896 1.429 . S
C4905 N4902 1.350 . S
C4905 C4904 1.434 . S
C4906 C4907 1.369 . S
C4906 C4908 1.419 . S
C4906 H4910 0.930 . S
C4907 C4906 1.369 . S
C4907 C4916 1.429 . S
C4908 C4906 1.419 . S
C4908 C4909 1.363 . S
C4908 H4911 0.929 . S
C4909 C4908 1.363 . S
C4909 C4915 1.428 . S
H4910 C4906 0.930 . S
H4911 C4908 0.929 . S
S4912 N4913 1.613 . S
S4912 N4914 1.610 . S
N4913 S4912 1.613 . S
N4913 C4916 1.350 . S
N4914 S4912 1.610 . S
N4914 C4915 1.351 . S
C4915 C4909 1.428 . S
C4915 N4914 1.351 . S
C4915 C4916 1.434 . S
C4916 C4907 1.429 . S
C4916 N4913 1.350 . S
C4916 C4915 1.434 . S
C4917 C4918 1.369 . S
C4917 C4919 1.419 . S
C4917 H4921 0.930 . S
C4918 C4917 1.369 . S
C4918 C4927 1.429 . S
C4919 C4917 1.419 . S
C4919 C4920 1.363 . S
C4919 H4922 0.929 . S
C4920 C4919 1.363 . S
C4920 C4926 1.428 . S
H4921 C4917 0.930 . S
H4922 C4919 0.929 . S
S4923 N4924 1.613 . S
S4923 N4925 1.610 . S
N4924 S4923 1.613 . S
N4924 C4927 1.350 . S
N4925 S4923 1.610 . S
N4925 C4926 1.351 . S
C4926 C4920 1.428 . S
C4926 N4925 1.351 . S
C4926 C4927 1.434 . S
C4927 C4918 1.429 . S
C4927 N4924 1.350 . S
C4927 C4926 1.434 . S
C4928 C4929 1.369 . S
C4928 C4930 1.419 . S
C4928 H4932 0.930 . S
C4929 C4928 1.369 . S
C4929 C4938 1.429 . S
C4930 C4928 1.419 . S
C4930 C4931 1.363 . S
C4930 H4933 0.929 . S
C4931 C4930 1.363 . S
C4931 C4937 1.428 . S
H4932 C4928 0.930 . S
H4933 C4930 0.929 . S
S4934 N4935 1.613 . S
S4934 N4936 1.610 . S
N4935 S4934 1.613 . S
N4935 C4938 1.350 . S
N4936 S4934 1.610 . S
N4936 C4937 1.351 . S
C4937 C4931 1.428 . S
C4937 N4936 1.351 . S
C4937 C4938 1.434 . S
C4938 C4929 1.429 . S
C4938 N4935 1.350 . S
C4938 C4937 1.434 . S
C4939 C4940 1.369 . S
C4939 C4941 1.419 . S
C4939 H4943 0.930 . S
C4940 C4939 1.369 . S
C4940 C4949 1.429 . S
C4941 C4939 1.419 . S
C4941 C4942 1.363 . S
C4941 H4944 0.929 . S
C4942 C4941 1.363 . S
C4942 C4948 1.428 . S
H4943 C4939 0.930 . S
H4944 C4941 0.929 . S
S4945 N4946 1.613 . S
S4945 N4947 1.610 . S
N4946 S4945 1.613 . S
N4946 C4949 1.350 . S
N4947 S4945 1.610 . S
N4947 C4948 1.351 . S
C4948 C4942 1.428 . S
C4948 N4947 1.351 . S
C4948 C4949 1.434 . S
C4949 C4940 1.429 . S
C4949 N4946 1.350 . S
C4949 C4948 1.434 . S
C4950 C4951 1.369 . S
C4950 C4952 1.419 . S
C4950 H4954 0.930 . S
C4951 C4950 1.369 . S
C4951 C4960 1.429 . S
C4952 C4950 1.419 . S
C4952 C4953 1.363 . S
C4952 H4955 0.929 . S
C4953 C4952 1.363 . S
C4953 C4959 1.428 . S
H4954 C4950 0.930 . S
H4955 C4952 0.929 . S
S4956 N4957 1.613 . S
S4956 N4958 1.610 . S
N4957 S4956 1.613 . S
N4957 C4960 1.350 . S
N4958 S4956 1.610 . S
N4958 C4959 1.351 . S
C4959 C4953 1.428 . S
C4959 N4958 1.351 . S
C4959 C4960 1.434 . S
C4960 C4951 1.429 . S
C4960 N4957 1.350 . S
C4960 C4959 1.434 . S
C4961 C4962 1.369 . S
C4961 C4963 1.419 . S
C4961 H4965 0.930 . S
C4962 C4961 1.369 . S
C4962 C4971 1.429 . S
C4963 C4961 1.419 . S
C4963 C4964 1.363 . S
C4963 H4966 0.929 . S
C4964 C4963 1.363 . S
C4964 C4970 1.428 . S
H4965 C4961 0.930 . S
H4966 C4963 0.929 . S
S4967 N4968 1.613 . S
S4967 N4969 1.610 . S
N4968 S4967 1.613 . S
N4968 C4971 1.350 . S
N4969 S4967 1.610 . S
N4969 C4970 1.351 . S
C4970 C4964 1.428 . S
C4970 N4969 1.351 . S
C4970 C4971 1.434 . S
C4971 C4962 1.429 . S
C4971 N4968 1.350 . S
C4971 C4970 1.434 . S
C4972 C4973 1.369 . S
C4972 C4974 1.419 . S
C4972 H4976 0.930 . S
C4973 C4972 1.369 . S
C4973 C4982 1.429 . S
C4974 C4972 1.419 . S
C4974 C4975 1.363 . S
C4974 H4977 0.929 . S
C4975 C4974 1.363 . S
C4975 C4981 1.428 . S
H4976 C4972 0.930 . S
H4977 C4974 0.929 . S
S4978 N4979 1.613 . S
S4978 N4980 1.610 . S
N4979 S4978 1.613 . S
N4979 C4982 1.350 . S
N4980 S4978 1.610 . S
N4980 C4981 1.351 . S
C4981 C4975 1.428 . S
C4981 N4980 1.351 . S
C4981 C4982 1.434 . S
C4982 C4973 1.429 . S
C4982 N4979 1.350 . S
C4982 C4981 1.434 . S
C4983 C4984 1.369 . S
C4983 C4985 1.419 . S
C4983 H4987 0.930 . S
C4984 C4983 1.369 . S
C4984 C4993 1.429 . S
C4985 C4983 1.419 . S
C4985 C4986 1.363 . S
C4985 H4988 0.929 . S
C4986 C4985 1.363 . S
C4986 C4992 1.428 . S
H4987 C4983 0.930 . S
H4988 C4985 0.929 . S
S4989 N4990 1.613 . S
S4989 N4991 1.610 . S
N4990 S4989 1.613 . S
N4990 C4993 1.350 . S
N4991 S4989 1.610 . S
N4991 C4992 1.351 . S
C4992 C4986 1.428 . S
C4992 N4991 1.351 . S
C4992 C4993 1.434 . S
C4993 C4984 1.429 . S
C4993 N4990 1.350 . S
C4993 C4992 1.434 . S
C4994 C4995 1.369 . S
C4994 C4996 1.419 . S
C4994 H4998 0.930 . S
C4995 C4994 1.369 . S
C4995 C5004 1.429 . S
C4996 C4994 1.419 . S
C4996 C4997 1.363 . S
C4996 H4999 0.929 . S
C4997 C4996 1.363 . S
C4997 C5003 1.428 . S
H4998 C4994 0.930 . S
H4999 C4996 0.929 . S
S5000 N5001 1.613 . S
S5000 N5002 1.610 . S
N5001 S5000 1.613 . S
N5001 C5004 1.350 . S
N5002 S5000 1.610 . S
N5002 C5003 1.351 . S
C5003 C4997 1.428 . S
C5003 N5002 1.351 . S
C5003 C5004 1.434 . S
C5004 C4995 1.429 . S
C5004 N5001 1.350 . S
C5004 C5003 1.434 . S
C5005 C5006 1.369 . S
C5005 C5007 1.419 . S
C5005 H5009 0.930 . S
C5006 C5005 1.369 . S
C5006 C5015 1.429 . S
C5007 C5005 1.419 . S
C5007 C5008 1.363 . S
C5007 H5010 0.929 . S
C5008 C5007 1.363 . S
C5008 C5014 1.428 . S
H5009 C5005 0.930 . S
H5010 C5007 0.929 . S
S5011 N5012 1.613 . S
S5011 N5013 1.610 . S
N5012 S5011 1.613 . S
N5012 C5015 1.350 . S
N5013 S5011 1.610 . S
N5013 C5014 1.351 . S
C5014 C5008 1.428 . S
C5014 N5013 1.351 . S
C5014 C5015 1.434 . S
C5015 C5006 1.429 . S
C5015 N5012 1.350 . S
C5015 C5014 1.434 . S
C5016 C5017 1.369 . S
C5016 C5018 1.419 . S
C5016 H5020 0.930 . S
C5017 C5016 1.369 . S
C5017 C5026 1.429 . S
C5018 C5016 1.419 . S
C5018 C5019 1.363 . S
C5018 H5021 0.929 . S
C5019 C5018 1.363 . S
C5019 C5025 1.428 . S
H5020 C5016 0.930 . S
H5021 C5018 0.929 . S
S5022 N5023 1.613 . S
S5022 N5024 1.610 . S
N5023 S5022 1.613 . S
N5023 C5026 1.350 . S
N5024 S5022 1.610 . S
N5024 C5025 1.351 . S
C5025 C5019 1.428 . S
C5025 N5024 1.351 . S
C5025 C5026 1.434 . S
C5026 C5017 1.429 . S
C5026 N5023 1.350 . S
C5026 C5025 1.434 . S
C5027 C5028 1.369 . S
C5027 C5029 1.419 . S
C5027 H5031 0.930 . S
C5028 C5027 1.369 . S
C5028 C5037 1.429 . S
C5029 C5027 1.419 . S
C5029 C5030 1.363 . S
C5029 H5032 0.929 . S
C5030 C5029 1.363 . S
C5030 C5036 1.428 . S
H5031 C5027 0.930 . S
H5032 C5029 0.929 . S
S5033 N5034 1.613 . S
S5033 N5035 1.610 . S
N5034 S5033 1.613 . S
N5034 C5037 1.350 . S
N5035 S5033 1.610 . S
N5035 C5036 1.351 . S
C5036 C5030 1.428 . S
C5036 N5035 1.351 . S
C5036 C5037 1.434 . S
C5037 C5028 1.429 . S
C5037 N5034 1.350 . S
C5037 C5036 1.434 . S
C5038 C5039 1.369 . S
C5038 C5040 1.419 . S
C5038 H5042 0.930 . S
C5039 C5038 1.369 . S
C5039 C5048 1.429 . S
C5040 C5038 1.419 . S
C5040 C5041 1.363 . S
C5040 H5043 0.929 . S
C5041 C5040 1.363 . S
C5041 C5047 1.428 . S
H5042 C5038 0.930 . S
H5043 C5040 0.929 . S
S5044 N5045 1.613 . S
S5044 N5046 1.610 . S
N5045 S5044 1.613 . S
N5045 C5048 1.350 . S
N5046 S5044 1.610 . S
N5046 C5047 1.351 . S
C5047 C5041 1.428 . S
C5047 N5046 1.351 . S
C5047 C5048 1.434 . S
C5048 C5039 1.429 . S
C5048 N5045 1.350 . S
C5048 C5047 1.434 . S
C5049 C5050 1.369 . S
C5049 C5051 1.419 . S
C5049 H5053 0.930 . S
C5050 C5049 1.369 . S
C5050 C5059 1.429 . S
C5051 C5049 1.419 . S
C5051 C5052 1.363 . S
C5051 H5054 0.929 . S
C5052 C5051 1.363 . S
C5052 C5058 1.428 . S
H5053 C5049 0.930 . S
H5054 C5051 0.929 . S
S5055 N5056 1.613 . S
S5055 N5057 1.610 . S
N5056 S5055 1.613 . S
N5056 C5059 1.350 . S
N5057 S5055 1.610 . S
N5057 C5058 1.351 . S
C5058 C5052 1.428 . S
C5058 N5057 1.351 . S
C5058 C5059 1.434 . S
C5059 C5050 1.429 . S
C5059 N5056 1.350 . S
C5059 C5058 1.434 . S
C5060 C5061 1.369 . S
C5060 C5062 1.419 . S
C5060 H5064 0.930 . S
C5061 C5060 1.369 . S
C5061 C5070 1.429 . S
C5062 C5060 1.419 . S
C5062 C5063 1.363 . S
C5062 H5065 0.929 . S
C5063 C5062 1.363 . S
C5063 C5069 1.428 . S
H5064 C5060 0.930 . S
H5065 C5062 0.929 . S
S5066 N5067 1.613 . S
S5066 N5068 1.610 . S
N5067 S5066 1.613 . S
N5067 C5070 1.350 . S
N5068 S5066 1.610 . S
N5068 C5069 1.351 . S
C5069 C5063 1.428 . S
C5069 N5068 1.351 . S
C5069 C5070 1.434 . S
C5070 C5061 1.429 . S
C5070 N5067 1.350 . S
C5070 C5069 1.434 . S
C5071 C5072 1.369 . S
C5071 C5073 1.419 . S
C5071 H5075 0.930 . S
C5072 C5071 1.369 . S
C5072 C5081 1.429 . S
C5073 C5071 1.419 . S
C5073 C5074 1.363 . S
C5073 H5076 0.929 . S
C5074 C5073 1.363 . S
C5074 C5080 1.428 . S
H5075 C5071 0.930 . S
H5076 C5073 0.929 . S
S5077 N5078 1.613 . S
S5077 N5079 1.610 . S
N5078 S5077 1.613 . S
N5078 C5081 1.350 . S
N5079 S5077 1.610 . S
N5079 C5080 1.351 . S
C5080 C5074 1.428 . S
C5080 N5079 1.351 . S
C5080 C5081 1.434 . S
C5081 C5072 1.429 . S
C5081 N5078 1.350 . S
C5081 C5080 1.434 . S
C5082 C5083 1.369 . S
C5082 C5084 1.419 . S
C5082 H5086 0.930 . S
C5083 C5082 1.369 . S
C5083 C5092 1.429 . S
C5084 C5082 1.419 . S
C5084 C5085 1.363 . S
C5084 H5087 0.929 . S
C5085 C5084 1.363 . S
C5085 C5091 1.428 . S
H5086 C5082 0.930 . S
H5087 C5084 0.929 . S
S5088 N5089 1.613 . S
S5088 N5090 1.610 . S
N5089 S5088 1.613 . S
N5089 C5092 1.350 . S
N5090 S5088 1.610 . S
N5090 C5091 1.351 . S
C5091 C5085 1.428 . S
C5091 N5090 1.351 . S
C5091 C5092 1.434 . S
C5092 C5083 1.429 . S
C5092 N5089 1.350 . S
C5092 C5091 1.434 . S
C5093 C5094 1.369 . S
C5093 C5095 1.419 . S
C5093 H5097 0.930 . S
C5094 C5093 1.369 . S
C5094 C5103 1.429 . S
C5095 C5093 1.419 . S
C5095 C5096 1.363 . S
C5095 H5098 0.929 . S
C5096 C5095 1.363 . S
C5096 C5102 1.428 . S
H5097 C5093 0.930 . S
H5098 C5095 0.929 . S
S5099 N5100 1.613 . S
S5099 N5101 1.610 . S
N5100 S5099 1.613 . S
N5100 C5103 1.350 . S
N5101 S5099 1.610 . S
N5101 C5102 1.351 . S
C5102 C5096 1.428 . S
C5102 N5101 1.351 . S
C5102 C5103 1.434 . S
C5103 C5094 1.429 . S
C5103 N5100 1.350 . S
C5103 C5102 1.434 . S
C5104 C5105 1.369 . S
C5104 C5106 1.419 . S
C5104 H5108 0.930 . S
C5105 C5104 1.369 . S
C5105 C5114 1.429 . S
C5106 C5104 1.419 . S
C5106 C5107 1.363 . S
C5106 H5109 0.929 . S
C5107 C5106 1.363 . S
C5107 C5113 1.428 . S
H5108 C5104 0.930 . S
H5109 C5106 0.929 . S
S5110 N5111 1.613 . S
S5110 N5112 1.610 . S
N5111 S5110 1.613 . S
N5111 C5114 1.350 . S
N5112 S5110 1.610 . S
N5112 C5113 1.351 . S
C5113 C5107 1.428 . S
C5113 N5112 1.351 . S
C5113 C5114 1.434 . S
C5114 C5105 1.429 . S
C5114 N5111 1.350 . S
C5114 C5113 1.434 . S
C5115 C5116 1.369 . S
C5115 C5117 1.419 . S
C5115 H5119 0.930 . S
C5116 C5115 1.369 . S
C5116 C5125 1.429 . S
C5117 C5115 1.419 . S
C5117 C5118 1.363 . S
C5117 H5120 0.929 . S
C5118 C5117 1.363 . S
C5118 C5124 1.428 . S
H5119 C5115 0.930 . S
H5120 C5117 0.929 . S
S5121 N5122 1.613 . S
S5121 N5123 1.610 . S
N5122 S5121 1.613 . S
N5122 C5125 1.350 . S
N5123 S5121 1.610 . S
N5123 C5124 1.351 . S
C5124 C5118 1.428 . S
C5124 N5123 1.351 . S
C5124 C5125 1.434 . S
C5125 C5116 1.429 . S
C5125 N5122 1.350 . S
C5125 C5124 1.434 . S
C5126 C5127 1.369 . S
C5126 C5128 1.419 . S
C5126 H5130 0.930 . S
C5127 C5126 1.369 . S
C5127 C5136 1.429 . S
C5128 C5126 1.419 . S
C5128 C5129 1.363 . S
C5128 H5131 0.929 . S
C5129 C5128 1.363 . S
C5129 C5135 1.428 . S
H5130 C5126 0.930 . S
H5131 C5128 0.929 . S
S5132 N5133 1.613 . S
S5132 N5134 1.610 . S
N5133 S5132 1.613 . S
N5133 C5136 1.350 . S
N5134 S5132 1.610 . S
N5134 C5135 1.351 . S
C5135 C5129 1.428 . S
C5135 N5134 1.351 . S
C5135 C5136 1.434 . S
C5136 C5127 1.429 . S
C5136 N5133 1.350 . S
C5136 C5135 1.434 . S
C5137 C5138 1.369 . S
C5137 C5139 1.419 . S
C5137 H5141 0.930 . S
C5138 C5137 1.369 . S
C5138 C5147 1.429 . S
C5139 C5137 1.419 . S
C5139 C5140 1.363 . S
C5139 H5142 0.929 . S
C5140 C5139 1.363 . S
C5140 C5146 1.428 . S
H5141 C5137 0.930 . S
H5142 C5139 0.929 . S
S5143 N5144 1.613 . S
S5143 N5145 1.610 . S
N5144 S5143 1.613 . S
N5144 C5147 1.350 . S
N5145 S5143 1.610 . S
N5145 C5146 1.351 . S
C5146 C5140 1.428 . S
C5146 N5145 1.351 . S
C5146 C5147 1.434 . S
C5147 C5138 1.429 . S
C5147 N5144 1.350 . S
C5147 C5146 1.434 . S
C5148 C5149 1.369 . S
C5148 C5150 1.419 . S
C5148 H5152 0.930 . S
C5149 C5148 1.369 . S
C5149 C5158 1.429 . S
C5150 C5148 1.419 . S
C5150 C5151 1.363 . S
C5150 H5153 0.929 . S
C5151 C5150 1.363 . S
C5151 C5157 1.428 . S
H5152 C5148 0.930 . S
H5153 C5150 0.929 . S
S5154 N5155 1.613 . S
S5154 N5156 1.610 . S
N5155 S5154 1.613 . S
N5155 C5158 1.350 . S
N5156 S5154 1.610 . S
N5156 C5157 1.351 . S
C5157 C5151 1.428 . S
C5157 N5156 1.351 . S
C5157 C5158 1.434 . S
C5158 C5149 1.429 . S
C5158 N5155 1.350 . S
C5158 C5157 1.434 . S
C5159 C5160 1.369 . S
C5159 C5161 1.419 . S
C5159 H5163 0.930 . S
C5160 C5159 1.369 . S
C5160 C5169 1.429 . S
C5161 C5159 1.419 . S
C5161 C5162 1.363 . S
C5161 H5164 0.929 . S
C5162 C5161 1.363 . S
C5162 C5168 1.428 . S
H5163 C5159 0.930 . S
H5164 C5161 0.929 . S
S5165 N5166 1.613 . S
S5165 N5167 1.610 . S
N5166 S5165 1.613 . S
N5166 C5169 1.350 . S
N5167 S5165 1.610 . S
N5167 C5168 1.351 . S
C5168 C5162 1.428 . S
C5168 N5167 1.351 . S
C5168 C5169 1.434 . S
C5169 C5160 1.429 . S
C5169 N5166 1.350 . S
C5169 C5168 1.434 . S
C5170 C5171 1.369 . S
C5170 C5172 1.419 . S
C5170 H5174 0.930 . S
C5171 C5170 1.369 . S
C5171 C5180 1.429 . S
C5172 C5170 1.419 . S
C5172 C5173 1.363 . S
C5172 H5175 0.929 . S
C5173 C5172 1.363 . S
C5173 C5179 1.428 . S
H5174 C5170 0.930 . S
H5175 C5172 0.929 . S
S5176 N5177 1.613 . S
S5176 N5178 1.610 . S
N5177 S5176 1.613 . S
N5177 C5180 1.350 . S
N5178 S5176 1.610 . S
N5178 C5179 1.351 . S
C5179 C5173 1.428 . S
C5179 N5178 1.351 . S
C5179 C5180 1.434 . S
C5180 C5171 1.429 . S
C5180 N5177 1.350 . S
C5180 C5179 1.434 . S
C5181 C5182 1.369 . S
C5181 C5183 1.419 . S
C5181 H5185 0.930 . S
C5182 C5181 1.369 . S
C5182 C5191 1.429 . S
C5183 C5181 1.419 . S
C5183 C5184 1.363 . S
C5183 H5186 0.929 . S
C5184 C5183 1.363 . S
C5184 C5190 1.428 . S
H5185 C5181 0.930 . S
H5186 C5183 0.929 . S
S5187 N5188 1.613 . S
S5187 N5189 1.610 . S
N5188 S5187 1.613 . S
N5188 C5191 1.350 . S
N5189 S5187 1.610 . S
N5189 C5190 1.351 . S
C5190 C5184 1.428 . S
C5190 N5189 1.351 . S
C5190 C5191 1.434 . S
C5191 C5182 1.429 . S
C5191 N5188 1.350 . S
C5191 C5190 1.434 . S
C5192 C5193 1.369 . S
C5192 C5194 1.419 . S
C5192 H5196 0.930 . S
C5193 C5192 1.369 . S
C5193 C5202 1.429 . S
C5194 C5192 1.419 . S
C5194 C5195 1.363 . S
C5194 H5197 0.929 . S
C5195 C5194 1.363 . S
C5195 C5201 1.428 . S
H5196 C5192 0.930 . S
H5197 C5194 0.929 . S
S5198 N5199 1.613 . S
S5198 N5200 1.610 . S
N5199 S5198 1.613 . S
N5199 C5202 1.350 . S
N5200 S5198 1.610 . S
N5200 C5201 1.351 . S
C5201 C5195 1.428 . S
C5201 N5200 1.351 . S
C5201 C5202 1.434 . S
C5202 C5193 1.429 . S
C5202 N5199 1.350 . S
C5202 C5201 1.434 . S
C5203 C5204 1.369 . S
C5203 C5205 1.419 . S
C5203 H5207 0.930 . S
C5204 C5203 1.369 . S
C5204 C5213 1.429 . S
C5205 C5203 1.419 . S
C5205 C5206 1.363 . S
C5205 H5208 0.929 . S
C5206 C5205 1.363 . S
C5206 C5212 1.428 . S
H5207 C5203 0.930 . S
H5208 C5205 0.929 . S
S5209 N5210 1.613 . S
S5209 N5211 1.610 . S
N5210 S5209 1.613 . S
N5210 C5213 1.350 . S
N5211 S5209 1.610 . S
N5211 C5212 1.351 . S
C5212 C5206 1.428 . S
C5212 N5211 1.351 . S
C5212 C5213 1.434 . S
C5213 C5204 1.429 . S
C5213 N5210 1.350 . S
C5213 C5212 1.434 . S
C5214 C5215 1.369 . S
C5214 C5216 1.419 . S
C5214 H5218 0.930 . S
C5215 C5214 1.369 . S
C5215 C5224 1.429 . S
C5216 C5214 1.419 . S
C5216 C5217 1.363 . S
C5216 H5219 0.929 . S
C5217 C5216 1.363 . S
C5217 C5223 1.428 . S
H5218 C5214 0.930 . S
H5219 C5216 0.929 . S
S5220 N5221 1.613 . S
S5220 N5222 1.610 . S
N5221 S5220 1.613 . S
N5221 C5224 1.350 . S
N5222 S5220 1.610 . S
N5222 C5223 1.351 . S
C5223 C5217 1.428 . S
C5223 N5222 1.351 . S
C5223 C5224 1.434 . S
C5224 C5215 1.429 . S
C5224 N5221 1.350 . S
C5224 C5223 1.434 . S
C5225 C5226 1.369 . S
C5225 C5227 1.419 . S
C5225 H5229 0.930 . S
C5226 C5225 1.369 . S
C5226 C5235 1.429 . S
C5227 C5225 1.419 . S
C5227 C5228 1.363 . S
C5227 H5230 0.929 . S
C5228 C5227 1.363 . S
C5228 C5234 1.428 . S
H5229 C5225 0.930 . S
H5230 C5227 0.929 . S
S5231 N5232 1.613 . S
S5231 N5233 1.610 . S
N5232 S5231 1.613 . S
N5232 C5235 1.350 . S
N5233 S5231 1.610 . S
N5233 C5234 1.351 . S
C5234 C5228 1.428 . S
C5234 N5233 1.351 . S
C5234 C5235 1.434 . S
C5235 C5226 1.429 . S
C5235 N5232 1.350 . S
C5235 C5234 1.434 . S
C5236 C5237 1.369 . S
C5236 C5238 1.419 . S
C5236 H5240 0.930 . S
C5237 C5236 1.369 . S
C5237 C5246 1.429 . S
C5238 C5236 1.419 . S
C5238 C5239 1.363 . S
C5238 H5241 0.929 . S
C5239 C5238 1.363 . S
C5239 C5245 1.428 . S
H5240 C5236 0.930 . S
H5241 C5238 0.929 . S
S5242 N5243 1.613 . S
S5242 N5244 1.610 . S
N5243 S5242 1.613 . S
N5243 C5246 1.350 . S
N5244 S5242 1.610 . S
N5244 C5245 1.351 . S
C5245 C5239 1.428 . S
C5245 N5244 1.351 . S
C5245 C5246 1.434 . S
C5246 C5237 1.429 . S
C5246 N5243 1.350 . S
C5246 C5245 1.434 . S
C5247 C5248 1.369 . S
C5247 C5249 1.419 . S
C5247 H5251 0.930 . S
C5248 C5247 1.369 . S
C5248 C5257 1.429 . S
C5249 C5247 1.419 . S
C5249 C5250 1.363 . S
C5249 H5252 0.929 . S
C5250 C5249 1.363 . S
C5250 C5256 1.428 . S
H5251 C5247 0.930 . S
H5252 C5249 0.929 . S
S5253 N5254 1.613 . S
S5253 N5255 1.610 . S
N5254 S5253 1.613 . S
N5254 C5257 1.350 . S
N5255 S5253 1.610 . S
N5255 C5256 1.351 . S
C5256 C5250 1.428 . S
C5256 N5255 1.351 . S
C5256 C5257 1.434 . S
C5257 C5248 1.429 . S
C5257 N5254 1.350 . S
C5257 C5256 1.434 . S
C5258 C5259 1.369 . S
C5258 C5260 1.419 . S
C5258 H5262 0.930 . S
C5259 C5258 1.369 . S
C5259 C5268 1.429 . S
C5260 C5258 1.419 . S
C5260 C5261 1.363 . S
C5260 H5263 0.929 . S
C5261 C5260 1.363 . S
C5261 C5267 1.428 . S
H5262 C5258 0.930 . S
H5263 C5260 0.929 . S
S5264 N5265 1.613 . S
S5264 N5266 1.610 . S
N5265 S5264 1.613 . S
N5265 C5268 1.350 . S
N5266 S5264 1.610 . S
N5266 C5267 1.351 . S
C5267 C5261 1.428 . S
C5267 N5266 1.351 . S
C5267 C5268 1.434 . S
C5268 C5259 1.429 . S
C5268 N5265 1.350 . S
C5268 C5267 1.434 . S
C5269 C5270 1.369 . S
C5269 C5271 1.419 . S
C5269 H5273 0.930 . S
C5270 C5269 1.369 . S
C5270 C5279 1.429 . S
C5271 C5269 1.419 . S
C5271 C5272 1.363 . S
C5271 H5274 0.929 . S
C5272 C5271 1.363 . S
C5272 C5278 1.428 . S
H5273 C5269 0.930 . S
H5274 C5271 0.929 . S
S5275 N5276 1.613 . S
S5275 N5277 1.610 . S
N5276 S5275 1.613 . S
N5276 C5279 1.350 . S
N5277 S5275 1.610 . S
N5277 C5278 1.351 . S
C5278 C5272 1.428 . S
C5278 N5277 1.351 . S
C5278 C5279 1.434 . S
C5279 C5270 1.429 . S
C5279 N5276 1.350 . S
C5279 C5278 1.434 . S
C2115 C1339 1.642 . S
C2113 C8 1.532 . S
C2126 C1878 1.561 . S
C2124 C19 1.536 . S
C2137 C1361 1.561 . S
C2135 C30 1.538 . S
C2148 C1856 1.563 . S
C2146 C41 1.531 . S
C2159 C1405 1.645 . S
C2157 C52 1.532 . S
C2168 C63 1.534 . S
C2170 C1900 1.563 . S
C2181 C1383 1.563 . S
C2179 C74 1.533 . S
C2192 C1922 1.561 . S
C2190 C85 1.538 . S
C2203 C2098 1.651 . S
C2201 C96 1.538 . S
C2212 C107 1.533 . S
C2214 C2032 1.562 . S
C2225 C2109 1.651 . S
C2223 C118 1.538 . S
C2234 C129 1.534 . S
C2236 C2087 1.562 . S
C2247 C2054 1.647 . S
C2245 C140 1.535 . S
C2258 C1537 1.563 . S
C2256 C151 1.532 . S
C2269 C1548 1.643 . S
C2267 C162 1.531 . S
C2278 C173 1.532 . S
C2280 C1515 1.563 . S
C2289 C184 1.533 . S
C2291 C1999 1.644 . S
C2302 C1449 1.650 . S
C2300 C195 1.536 . S
C2313 C1944 1.561 . S
C2311 C206 1.535 . S
C2324 C1427 1.564 . S
C2322 C217 1.532 . S
C2333 C228 1.537 . S
C2335 C1438 1.561 . S
C2346 C2021 1.563 . S
C2344 C239 1.531 . S
C2357 C1988 1.561 . S
C2355 C250 1.538 . S
C2366 C261 1.532 . S
C2368 C2010 1.564 . S
C2377 C272 1.569 . S
C2379 C1075 1.610 . S
C2388 C283 1.569 . S
C2390 C1614 1.542 . S
C2401 C1097 1.541 . S
C2399 C294 1.569 . S
C2410 C305 1.569 . S
C2412 C1592 1.538 . S
C2423 C1141 1.612 . S
C2421 C316 1.569 . S
C2432 C327 1.569 . S
C2434 C1636 1.543 . S
C2445 C1119 1.542 . S
C2443 C338 1.569 . S
C2456 C1658 1.543 . S
C2454 C349 1.569 . S
C2465 C360 1.569 . S
C2467 C1834 1.613 . S
C2478 C1768 1.543 . S
C2476 C371 1.569 . S
C2487 C382 1.569 . S
C2489 C1845 1.623 . S
C2500 C1823 1.539 . S
C2498 C393 1.569 . S
C2511 C1790 1.612 . S
C2509 C404 1.569 . S
C2520 C415 1.569 . S
C2522 C1273 1.539 . S
C2531 C426 1.569 . S
C2533 C1284 1.615 . S
C2544 C1251 1.541 . S
C2542 C437 1.569 . S
C2553 C448 1.569 . S
C2555 C1735 1.622 . S
C2566 C1185 1.611 . S
C2564 C459 1.569 . S
C2575 C470 1.569 . S
C2577 C1680 1.541 . S
C2588 C1163 1.542 . S
C2586 C481 1.569 . S
C2597 C492 1.569 . S
C2599 C1174 1.540 . S
C2610 C1757 1.543 . S
C2608 C503 1.569 . S
C2621 C1724 1.541 . S
C2619 C514 1.569 . S
C2632 C1746 1.543 . S
C2630 C525 1.569 . S
C2641 C536 1.537 . S
C2643 C1867 1.562 . S
C2654 C1350 1.562 . S
C2652 C547 1.536 . S
C2665 C1889 1.650 . S
C2663 C558 1.537 . S
C2676 C1328 1.561 . S
C2674 C569 1.538 . S
C2685 C580 1.534 . S
C2687 C1933 1.563 . S
C2698 C1372 1.561 . S
C2696 C591 1.538 . S
C2709 C1911 1.642 . S
C2707 C602 1.531 . S
C2720 C1394 1.563 . S
C2718 C613 1.531 . S
C2729 C624 1.531 . S
C2731 C1570 1.563 . S
C2742 C1504 1.561 . S
C2740 C635 1.538 . S
C2753 C1581 1.562 . S
C2751 C646 1.537 . S
C2762 C657 1.532 . S
C2764 C1559 1.564 . S
C2773 C668 1.531 . S
C2775 C1526 1.564 . S
C2784 C679 1.538 . S
C2786 C2065 1.562 . S
C2795 C690 1.533 . S
C2797 C2076 1.563 . S
C2808 C2043 1.561 . S
C2806 C701 1.538 . S
C2817 C712 1.537 . S
C2819 C1471 1.561 . S
C2830 C1977 1.563 . S
C2828 C723 1.531 . S
C2841 C1416 1.563 . S
C2839 C734 1.531 . S
C2852 C1955 1.644 . S
C2850 C745 1.532 . S
C2861 C756 1.531 . S
C2863 C1966 1.563 . S
C2872 C767 1.536 . S
C2874 C1493 1.650 . S
C2885 C1460 1.561 . S
C2883 C778 1.538 . S
C2894 C789 1.534 . S
C2896 C1482 1.562 . S
C2905 C800 1.569 . S
C2907 C1603 1.543 . S
C2918 C1086 1.543 . S
C2916 C811 1.569 . S
C2929 C1625 1.612 . S
C2927 C822 1.569 . S
C2938 C833 1.569 . S
C2940 C1064 1.542 . S
C2951 C1669 1.541 . S
C2949 C844 1.569 . S
C2962 C1108 1.542 . S
C2960 C855 1.569 . S
C2971 C866 1.569 . S
C2973 C1647 1.612 . S
C2982 C877 1.569 . S
C2984 C1130 1.543 . S
C2995 C1306 1.539 . S
C2993 C888 1.569 . S
C3004 C899 1.569 . S
C3006 C1240 1.540 . S
C3017 C1317 1.539 . S
C3015 C910 1.569 . S
C3028 C1295 1.541 . S
C3026 C921 1.569 . S
C3037 C932 1.569 . S
C3039 C1262 1.542 . S
C3048 C943 1.569 . S
C3050 C1801 1.541 . S
C3061 C1812 1.543 . S
C3059 C954 1.569 . S
C3070 C965 1.569 . S
C3072 C1779 1.538 . S
C3083 C1207 1.540 . S
C3081 C976 1.569 . S
C3094 C1713 1.543 . S
C3092 C987 1.569 . S
C3103 C998 1.569 . S
C3105 C1152 1.540 . S
C3114 C1009 1.569 . S
C3116 C1691 1.614 . S
C3125 C1020 1.569 . S
C3127 C1702 1.543 . S
C3136 C1031 1.569 . S
C3138 C1229 1.616 . S
C3147 C1042 1.569 . S
C3149 C1196 1.542 . S
C3160 C1218 1.543 . S
C3158 C1053 1.569 . S
C3171 C1160 1.254 . S
C3169 C5 1.245 . S
C3182 C1171 1.254 . S
C3180 C16 1.247 . S
C3191 C27 1.233 . S
C3193 C1182 1.258 . S
C3202 C38 1.246 . S
C3204 C1149 1.254 . S
C3213 C49 1.230 . S
C3215 C1226 1.268 . S
C3226 C1193 1.268 . S
C3224 C60 1.242 . S
C3237 C1204 1.269 . S
C3235 C71 1.237 . S
C3246 C82 1.231 . S
C3248 C1215 1.268 . S
C3257 C93 1.249 . S
C3259 C1094 1.261 . S
C3268 C104 1.229 . S
C3270 C1061 1.265 . S
C3279 C115 1.242 . S
C3281 C1072 1.254 . S
C3292 C1083 1.269 . S
C3290 C126 1.234 . S
C3301 C137 1.231 . S
C3303 C1116 1.259 . S
C3312 C148 1.242 . S
C3314 C1127 1.268 . S
C3323 C159 1.229 . S
C3325 C1138 1.261 . S
C3334 C170 1.229 . S
C3336 C1105 1.263 . S
C3347 C1259 1.260 . S
C3345 C181 1.231 . S
C3356 C192 1.231 . S
C3358 C1831 1.259 . S
C3369 C1237 1.267 . S
C3367 C203 1.244 . S
C3380 C1842 1.256 . S
C3378 C214 1.249 . S
C3389 C225 1.244 . S
C3391 C1820 1.266 . S
C3400 C236 1.230 . S
C3402 C1809 1.260 . S
C3413 C1776 1.269 . S
C3411 C247 1.239 . S
C3424 C1798 1.269 . S
C3422 C258 1.232 . S
C3435 C1424 1.547 . S
C3433 C269 1.557 . S
C3446 C1435 1.547 . S
C3444 C280 1.556 . S
C3457 C1446 1.543 . S
C3455 C291 1.557 . S
C3466 C302 1.558 . S
C3468 C1413 1.542 . S
C3477 C313 1.559 . S
C3479 C1490 1.543 . S
C3490 C1457 1.549 . S
C3488 C324 1.549 . S
C3499 C335 1.550 . S
C3501 C1468 1.551 . S
C3512 C1479 1.548 . S
C3510 C346 1.555 . S
C3521 C357 1.557 . S
C3523 C1358 1.543 . S
C3534 C1325 1.545 . S
C3532 C368 1.553 . S
C3543 C379 1.552 . S
C3545 C1336 1.546 . S
C3556 C1347 1.549 . S
C3554 C390 1.549 . S
C3567 C1380 1.549 . S
C3565 C401 1.549 . S
C3576 C412 1.549 . S
C3578 C1391 1.551 . S
C3589 C1402 1.550 . S
C3587 C423 1.551 . S
C3600 C1369 1.549 . S
C3598 C434 1.549 . S
C3611 C1523 1.543 . S
C3609 C445 1.558 . S
C3622 C2095 1.551 . S
C3620 C456 1.551 . S
C3633 C1501 1.548 . S
C3631 C467 1.550 . S
C3642 C478 1.550 . S
C3644 C2106 1.548 . S
C3653 C489 1.558 . S
C3655 C2084 1.543 . S
C3666 C2073 1.543 . S
C3664 C500 1.556 . S
C3677 C2040 1.550 . S
C3675 C511 1.552 . S
C3688 C2062 1.550 . S
C3686 C522 1.549 . S
C3697 C533 1.231 . S
C3699 C1688 1.268 . S
C3710 C1699 1.269 . S
C3708 C544 1.233 . S
C3719 C555 1.240 . S
C3721 C1710 1.269 . S
C3732 C1677 1.265 . S
C3730 C566 1.245 . S
C3741 C577 1.245 . S
C3743 C1754 1.266 . S
C3752 C588 1.244 . S
C3754 C1721 1.267 . S
C3763 C599 1.244 . S
C3765 C1732 1.266 . S
C3774 C610 1.236 . S
C3776 C1743 1.255 . S
C3785 C621 1.231 . S
C3787 C1622 1.268 . S
C3798 C1589 1.268 . S
C3796 C632 1.231 . S
C3809 C1600 1.263 . S
C3807 C643 1.229 . S
C3818 C654 1.250 . S
C3820 C1611 1.259 . S
C3829 C665 1.246 . S
C3831 C1644 1.265 . S
C3840 C676 1.229 . S
C3842 C1655 1.262 . S
C3851 C687 1.244 . S
C3853 C1666 1.253 . S
C3862 C698 1.250 . S
C3864 C1633 1.259 . S
C3875 C1787 1.269 . S
C3873 C709 1.238 . S
C3886 C1303 1.256 . S
C3884 C720 1.249 . S
C3897 C1765 1.269 . S
C3895 C731 1.235 . S
C3908 C1314 1.260 . S
C3906 C742 1.249 . S
C3919 C1292 1.260 . S
C3917 C753 1.250 . S
C3930 C1281 1.267 . S
C3928 C764 1.244 . S
C3939 C775 1.233 . S
C3941 C1248 1.269 . S
C3952 C1270 1.269 . S
C3950 C786 1.235 . S
C3961 C797 1.552 . S
C3963 C1952 1.546 . S
C3972 C808 1.558 . S
C3974 C1963 1.542 . S
C3985 C1974 1.550 . S
C3983 C819 1.549 . S
C3994 C830 1.559 . S
C3996 C1941 1.544 . S
C4007 C2018 1.546 . S
C4005 C841 1.551 . S
C4016 C852 1.559 . S
C4018 C1985 1.543 . S
C4027 C863 1.552 . S
C4029 C1996 1.545 . S
C4040 C2007 1.544 . S
C4038 C874 1.554 . S
C4051 C1886 1.549 . S
C4049 C885 1.549 . S
C4062 C1853 1.544 . S
C4060 C896 1.554 . S
C4073 C1864 1.545 . S
C4071 C907 1.554 . S
C4084 C1875 1.550 . S
C4082 C918 1.549 . S
C4093 C929 1.550 . S
C4095 C1908 1.547 . S
C4106 C1919 1.543 . S
C4104 C940 1.559 . S
C4115 C951 1.558 . S
C4117 C1930 1.542 . S
C4126 C962 1.558 . S
C4128 C1897 1.545 . S
C4137 C973 1.556 . S
C4139 C2051 1.543 . S
C4148 C984 1.555 . S
C4150 C1567 1.548 . S
C4159 C995 1.559 . S
C4161 C2029 1.544 . S
C4172 C1578 1.551 . S
C4170 C1006 1.549 . S
C4181 C1017 1.552 . S
C4183 C1556 1.550 . S
C4192 C1028 1.559 . S
C4194 C1545 1.543 . S
C4203 C1039 1.549 . S
C4205 C1512 1.550 . S
C4216 C1534 1.547 . S
C4214 C1050 1.556 . S
C4225 C7 1.478 . S
C4227 C1063 1.479 . S
C4236 C18 1.478 . S
C4238 C1074 1.478 . S
C4247 C29 1.465 . S
C4249 C1085 1.485 . S
C4260 C1096 1.484 . S
C4258 C40 1.467 . S
C4271 C1107 1.486 . S
C4269 C51 1.465 . S
C4280 C62 1.477 . S
C4282 C1118 1.480 . S
C4291 C73 1.465 . S
C4293 C1129 1.488 . S
C4302 C84 1.474 . S
C4304 C1140 1.483 . S
C4315 C1151 1.481 . S
C4313 C95 1.470 . S
C4326 C1162 1.481 . S
C4324 C106 1.477 . S
C4335 C117 1.465 . S
C4337 C1173 1.486 . S
C4348 C1184 1.478 . S
C4346 C128 1.478 . S
C4357 C139 1.477 . S
C4359 C1195 1.478 . S
C4368 C150 1.468 . S
C4370 C1206 1.487 . S
C4379 C161 1.474 . S
C4381 C1217 1.479 . S
C4390 C172 1.478 . S
C4392 C1228 1.478 . S
C4401 C183 1.473 . S
C4403 C1239 1.484 . S
C4412 C194 1.476 . S
C4414 C1250 1.482 . S
C4425 C1261 1.479 . S
C4423 C205 1.478 . S
C4436 C1272 1.487 . S
C4434 C216 1.465 . S
C4447 C1283 1.486 . S
C4445 C227 1.469 . S
C4458 C1294 1.487 . S
C4456 C238 1.468 . S
C4467 C249 1.478 . S
C4469 C1305 1.480 . S
C4480 C1316 1.482 . S
C4478 C260 1.476 . S
C4489 C271 1.587 . S
C4491 C1327 1.588 . S
C4500 C282 1.589 . S
C4502 C1338 1.588 . S
C4511 C293 1.588 . S
C4513 C1349 1.585 . S
C4524 C1360 1.585 . S
C4522 C304 1.586 . S
C4533 C315 1.586 . S
C4535 C1371 1.588 . S
C4546 C1382 1.586 . S
C4544 C326 1.584 . S
C4555 C337 1.586 . S
C4557 C1393 1.585 . S
C4566 C348 1.585 . S
C4568 C1404 1.587 . S
C4579 C1415 1.586 . S
C4577 C359 1.589 . S
C4588 C370 1.585 . S
C4590 C1426 1.587 . S
C4601 C1437 1.586 . S
C4599 C381 1.584 . S
C4610 C392 1.589 . S
C4612 C1448 1.587 . S
C4623 C1459 1.587 . S
C4621 C403 1.586 . S
C4634 C1470 1.588 . S
C4632 C414 1.589 . S
C4645 C1481 1.588 . S
C4643 C425 1.587 . S
C4654 C436 1.584 . S
C4656 C1492 1.586 . S
C4665 C447 1.584 . S
C4667 C1503 1.586 . S
C4676 C458 1.585 . S
C4678 C1514 1.584 . S
C4687 C469 1.589 . S
C4689 C1525 1.588 . S
C4698 C480 1.584 . S
C4700 C1536 1.585 . S
C4709 C491 1.588 . S
C4711 C1547 1.588 . S
C4722 C1558 1.584 . S
C4720 C502 1.584 . S
C4731 C513 1.584 . S
C4733 C1569 1.585 . S
C4744 C1580 1.586 . S
C4742 C524 1.588 . S
C4753 C535 1.476 . S
C4755 C1591 1.478 . S
C4766 C1602 1.480 . S
C4764 C546 1.477 . S
C4777 C1613 1.478 . S
C4775 C557 1.478 . S
C4788 C1624 1.488 . S
C4786 C568 1.467 . S
C4797 C579 1.465 . S
C4799 C1635 1.488 . S
C4808 C590 1.468 . S
C4810 C1646 1.487 . S
C4821 C1657 1.479 . S
C4819 C601 1.474 . S
C4832 C1668 1.480 . S
C4830 C612 1.471 . S
C4841 C623 1.477 . S
C4843 C1679 1.479 . S
C4852 C634 1.467 . S
C4854 C1690 1.487 . S
C4863 C645 1.471 . S
C4865 C1701 1.486 . S
C4874 C656 1.468 . S
C4876 C1712 1.483 . S
C4885 C667 1.478 . S
C4887 C1723 1.478 . S
C4898 C1734 1.478 . S
C4896 C678 1.476 . S
C4909 C1745 1.479 . S
C4907 C689 1.474 . S
C4920 C1756 1.484 . S
C4918 C700 1.473 . S
C4931 C1767 1.483 . S
C4929 C711 1.468 . S
C4940 C722 1.474 . S
C4942 C1778 1.479 . S
C4951 C733 1.465 . S
C4953 C1789 1.487 . S
C4964 C1800 1.478 . S
C4962 C744 1.478 . S
C4973 C755 1.466 . S
C4975 C1811 1.488 . S
C4986 C1822 1.483 . S
C4984 C766 1.475 . S
C4997 C1833 1.482 . S
C4995 C777 1.469 . S
C5008 C1844 1.480 . S
C5006 C788 1.478 . S
C5017 C799 1.589 . S
C5019 C1855 1.587 . S
C5028 C810 1.589 . S
C5030 C1866 1.588 . S
C5039 C821 1.586 . S
C5041 C1877 1.584 . S
C5050 C832 1.586 . S
C5052 C1888 1.587 . S
C5063 C1899 1.586 . S
C5061 C843 1.584 . S
C5074 C1910 1.585 . S
C5072 C854 1.587 . S
C5085 C1921 1.586 . S
C5083 C865 1.584 . S
C5094 C876 1.587 . S
C5096 C1932 1.585 . S
C5105 C887 1.586 . S
C5107 C1943 1.584 . S
C5118 C1954 1.584 . S
C5116 C898 1.585 . S
C5129 C1965 1.588 . S
C5127 C909 1.586 . S
C5140 C1976 1.588 . S
C5138 C920 1.588 . S
C5151 C1987 1.586 . S
C5149 C931 1.588 . S
C5162 C1998 1.584 . S
C5160 C942 1.585 . S
C5173 C2009 1.588 . S
C5171 C953 1.586 . S
C5184 C2020 1.584 . S
C5182 C964 1.584 . S
C5195 C2031 1.588 . S
C5193 C975 1.588 . S
C5206 C2042 1.588 . S
C5204 C986 1.589 . S
C5217 C2053 1.588 . S
C5215 C997 1.589 . S
C5226 C1008 1.589 . S
C5228 C2064 1.588 . S
C5239 C2075 1.585 . S
C5237 C1019 1.584 . S
C5248 C1030 1.589 . S
C5250 C2086 1.588 . S
C5261 C2097 1.587 . S
C5259 C1041 1.586 . S
C5272 C2108 1.587 . S
C5270 C1052 1.586 . S
