# Generated by pormake.
# Topology myd, (4,6)-cn, num edge types: 1
# Building blocks:
#     Node 0, Type 0, BuildingBlock: KOZSID_clean_sbu_0, # of connection points: 4
#     Node 1, Type 0, BuildingBlock: KOZSID_clean_sbu_0, # of connection points: 4
#     Node 2, Type 0, BuildingBlock: KOZSID_clean_sbu_0, # of connection points: 4
#     Node 3, Type 0, BuildingBlock: KOZSID_clean_sbu_0, # of connection points: 4
#     Node 4, Type 0, BuildingBlock: KOZSID_clean_sbu_0, # of connection points: 4
#     Node 5, Type 0, BuildingBlock: KOZSID_clean_sbu_0, # of connection points: 4
#     Node 6, Type 0, BuildingBlock: KOZSID_clean_sbu_0, # of connection points: 4
#     Node 7, Type 0, BuildingBlock: KOZSID_clean_sbu_0, # of connection points: 4
#     Node 8, Type 0, BuildingBlock: KOZSID_clean_sbu_0, # of connection points: 4
#     Node 9, Type 0, BuildingBlock: KOZSID_clean_sbu_0, # of connection points: 4
#     Node 10, Type 0, BuildingBlock: KOZSID_clean_sbu_0, # of connection points: 4
#     Node 11, Type 0, BuildingBlock: KOZSID_clean_sbu_0, # of connection points: 4
#     Node 12, Type 1, BuildingBlock: LEVNOQ01_clean_sbu_1, # of connection points: 6
#     Node 13, Type 1, BuildingBlock: LEVNOQ01_clean_sbu_1, # of connection points: 6
#     Node 14, Type 1, BuildingBlock: LEVNOQ01_clean_sbu_1, # of connection points: 6
#     Node 15, Type 1, BuildingBlock: LEVNOQ01_clean_sbu_1, # of connection points: 6
#     Node 16, Type 1, BuildingBlock: LEVNOQ01_clean_sbu_1, # of connection points: 6
#     Node 17, Type 1, BuildingBlock: LEVNOQ01_clean_sbu_1, # of connection points: 6
#     Node 18, Type 1, BuildingBlock: LEVNOQ01_clean_sbu_1, # of connection points: 6
#     Node 19, Type 1, BuildingBlock: LEVNOQ01_clean_sbu_1, # of connection points: 6
#     Edge 20, Type (0, 1), BuildingBlock: MIFKUJ_clean_linker_0, # of connection points: 2
#     Edge 21, Type (0, 1), BuildingBlock: MIFKUJ_clean_linker_0, # of connection points: 2
#     Edge 22, Type (0, 1), BuildingBlock: MIFKUJ_clean_linker_0, # of connection points: 2
#     Edge 23, Type (0, 1), BuildingBlock: MIFKUJ_clean_linker_0, # of connection points: 2
#     Edge 24, Type (0, 1), BuildingBlock: MIFKUJ_clean_linker_0, # of connection points: 2
#     Edge 25, Type (0, 1), BuildingBlock: MIFKUJ_clean_linker_0, # of connection points: 2
#     Edge 26, Type (0, 1), BuildingBlock: MIFKUJ_clean_linker_0, # of connection points: 2
#     Edge 27, Type (0, 1), BuildingBlock: MIFKUJ_clean_linker_0, # of connection points: 2
#     Edge 28, Type (0, 1), BuildingBlock: MIFKUJ_clean_linker_0, # of connection points: 2
#     Edge 29, Type (0, 1), BuildingBlock: MIFKUJ_clean_linker_0, # of connection points: 2
#     Edge 30, Type (0, 1), BuildingBlock: MIFKUJ_clean_linker_0, # of connection points: 2
#     Edge 31, Type (0, 1), BuildingBlock: MIFKUJ_clean_linker_0, # of connection points: 2
#     Edge 32, Type (0, 1), BuildingBlock: MIFKUJ_clean_linker_0, # of connection points: 2
#     Edge 33, Type (0, 1), BuildingBlock: MIFKUJ_clean_linker_0, # of connection points: 2
#     Edge 34, Type (0, 1), BuildingBlock: MIFKUJ_clean_linker_0, # of connection points: 2
#     Edge 35, Type (0, 1), BuildingBlock: MIFKUJ_clean_linker_0, # of connection points: 2
#     Edge 36, Type (0, 1), BuildingBlock: MIFKUJ_clean_linker_0, # of connection points: 2
#     Edge 37, Type (0, 1), BuildingBlock: MIFKUJ_clean_linker_0, # of connection points: 2
#     Edge 38, Type (0, 1), BuildingBlock: MIFKUJ_clean_linker_0, # of connection points: 2
#     Edge 39, Type (0, 1), BuildingBlock: MIFKUJ_clean_linker_0, # of connection points: 2
#     Edge 40, Type (0, 1), BuildingBlock: MIFKUJ_clean_linker_0, # of connection points: 2
#     Edge 41, Type (0, 1), BuildingBlock: MIFKUJ_clean_linker_0, # of connection points: 2
#     Edge 42, Type (0, 1), BuildingBlock: MIFKUJ_clean_linker_0, # of connection points: 2
#     Edge 43, Type (0, 1), BuildingBlock: MIFKUJ_clean_linker_0, # of connection points: 2
#     Edge 44, Type (0, 1), BuildingBlock: MIFKUJ_clean_linker_0, # of connection points: 2
#     Edge 45, Type (0, 1), BuildingBlock: MIFKUJ_clean_linker_0, # of connection points: 2
#     Edge 46, Type (0, 1), BuildingBlock: MIFKUJ_clean_linker_0, # of connection points: 2
#     Edge 47, Type (0, 1), BuildingBlock: MIFKUJ_clean_linker_0, # of connection points: 2
#     Edge 48, Type (0, 1), BuildingBlock: MIFKUJ_clean_linker_0, # of connection points: 2
#     Edge 49, Type (0, 1), BuildingBlock: MIFKUJ_clean_linker_0, # of connection points: 2
#     Edge 50, Type (0, 1), BuildingBlock: MIFKUJ_clean_linker_0, # of connection points: 2
#     Edge 51, Type (0, 1), BuildingBlock: MIFKUJ_clean_linker_0, # of connection points: 2
#     Edge 52, Type (0, 1), BuildingBlock: MIFKUJ_clean_linker_0, # of connection points: 2
#     Edge 53, Type (0, 1), BuildingBlock: MIFKUJ_clean_linker_0, # of connection points: 2
#     Edge 54, Type (0, 1), BuildingBlock: MIFKUJ_clean_linker_0, # of connection points: 2
#     Edge 55, Type (0, 1), BuildingBlock: MIFKUJ_clean_linker_0, # of connection points: 2
#     Edge 56, Type (0, 1), BuildingBlock: MIFKUJ_clean_linker_0, # of connection points: 2
#     Edge 57, Type (0, 1), BuildingBlock: MIFKUJ_clean_linker_0, # of connection points: 2
#     Edge 58, Type (0, 1), BuildingBlock: MIFKUJ_clean_linker_0, # of connection points: 2
#     Edge 59, Type (0, 1), BuildingBlock: MIFKUJ_clean_linker_0, # of connection points: 2
#     Edge 60, Type (0, 1), BuildingBlock: MIFKUJ_clean_linker_0, # of connection points: 2
#     Edge 61, Type (0, 1), BuildingBlock: MIFKUJ_clean_linker_0, # of connection points: 2
#     Edge 62, Type (0, 1), BuildingBlock: MIFKUJ_clean_linker_0, # of connection points: 2
#     Edge 63, Type (0, 1), BuildingBlock: MIFKUJ_clean_linker_0, # of connection points: 2
#     Edge 64, Type (0, 1), BuildingBlock: MIFKUJ_clean_linker_0, # of connection points: 2
#     Edge 65, Type (0, 1), BuildingBlock: MIFKUJ_clean_linker_0, # of connection points: 2
#     Edge 66, Type (0, 1), BuildingBlock: MIFKUJ_clean_linker_0, # of connection points: 2
#     Edge 67, Type (0, 1), BuildingBlock: MIFKUJ_clean_linker_0, # of connection points: 2
# Relax obj value: 0.183
# Max RMSD: 0.193
# Mean RMSD: 0.138
data_MOF--net-myd--node1-KOZSID_clean_sbu_0--node2-LEVNOQ01_clean_sbu_1--edge1-MIFKUJ_clean_linker_0
_symmetry_space_group_name_H-M    P1
_symmetry_Int_Tables_number       1
_symmetry_cell_setting            triclinic
loop_
_symmetry_equiv_pos_as_xyz
'x, y, z'
_cell_length_a     63.553567
_cell_length_b     64.526783
_cell_length_c     63.158716
_cell_angle_alpha  92.179968
_cell_angle_beta   92.15939
_cell_angle_gamma 94.011045
loop_
_atom_site_label
_atom_site_type_symbol
_atom_site_fract_x
_atom_site_fract_y
_atom_site_fract_z
_atom_type_partial_charge
C0 C 0.00419 0.29061 0.33643 0.0
C1 C 0.98471 0.29048 0.34565 0.0
C2 C 0.97163 0.27606 0.33415 0.0
C3 C 0.98411 0.26762 0.31929 0.0
N4 N 0.00439 0.27524 0.32128 0.0
Co5 Co 0.02855 0.26558 0.30527 0.0
N6 N 0.00916 0.24946 0.28404 0.0
C7 C 0.98779 0.2485 0.28362 0.0
C8 C 0.97862 0.23878 0.2656 0.0
C9 C 0.99509 0.2331 0.25392 0.0
C10 C 0.01353 0.23915 0.26581 0.0
N11 N 0.05298 0.25535 0.28989 0.0
C12 C 0.05332 0.24194 0.27279 0.0
C13 C 0.07382 0.23685 0.26915 0.0
C14 C 0.08675 0.24775 0.28405 0.0
C15 C 0.07357 0.2586 0.29623 0.0
N16 N 0.04745 0.28314 0.3259 0.0
C17 C 0.06864 0.28343 0.328 0.0
C18 C 0.077 0.29669 0.34414 0.0
C19 C 0.06012 0.30617 0.35196 0.0
C20 C 0.04256 0.29884 0.33944 0.0
N21 N 0.02936 0.24049 0.32324 0.0
C22 C 0.03296 0.20072 0.34017 0.0
C23 C 0.04989 0.21574 0.34163 0.0
C24 C 0.04761 0.23549 0.33363 0.0
C25 C 0.01379 0.20642 0.33155 0.0
C26 C 0.01236 0.2261 0.32325 0.0
N27 N 0.02787 0.28967 0.28702 0.0
C28 C 0.04593 0.31369 0.26428 0.0
C29 C 0.02666 0.31997 0.25638 0.0
C30 C 0.00809 0.31171 0.26498 0.0
C31 C 0.00904 0.29666 0.28021 0.0
C32 C 0.04619 0.2988 0.27977 0.0
H33 H 0.99435 0.29045 0.28592 0.0
H34 H 0.06131 0.29451 0.28541 0.0
H35 H 0.06106 0.24614 0.33573 0.0
H36 H 0.99743 0.22886 0.31629 0.0
C37 C 0.97685 0.25624 0.3008 0.0
C38 C 0.02141 0.30691 0.34017 0.0
C39 C 0.03462 0.23341 0.25999 0.0
C40 C 0.08001 0.27184 0.31377 0.0
H41 H 0.98003 0.30095 0.35813 0.0
H42 H 0.95474 0.27326 0.33544 0.0
H43 H 0.96195 0.23604 0.26146 0.0
H44 H 0.99357 0.22506 0.23854 0.0
H45 H 0.07906 0.2261 0.25727 0.0
H46 H 0.10373 0.2475 0.28599 0.0
H47 H 0.09341 0.29942 0.34936 0.0
H48 H 0.06081 0.31716 0.36537 0.0
H49 H 0.0649 0.21225 0.34885 0.0
H50 H 9e-05 0.19539 0.33037 0.0
H51 H 0.06071 0.3201 0.25843 0.0
H52 H 0.99281 0.31621 0.2594 0.0
C53 C 0.98675 0.73044 0.1254 0.0
C54 C 0.9667 0.72979 0.11573 0.0
C55 C 0.95487 0.74162 0.12835 0.0
C56 C 0.9684 0.74913 0.14465 0.0
N57 N 0.98835 0.74354 0.1427 0.0
Co58 Co 0.01376 0.75254 0.1614 0.0
N59 N 0.9961 0.76805 0.1813 0.0
C60 C 0.97496 0.76968 0.17973 0.0
C61 C 0.9675 0.78195 0.19552 0.0
C62 C 0.98493 0.7889 0.20769 0.0
C63 C 0.0021 0.78045 0.19851 0.0
N64 N 0.03919 0.76134 0.18018 0.0
C65 C 0.04099 0.77445 0.19751 0.0
C66 C 0.06162 0.77701 0.20567 0.0
C67 C 0.07336 0.76528 0.19282 0.0
C68 C 0.05928 0.75626 0.17761 0.0
N69 N 0.0313 0.73738 0.1412 0.0
C70 C 0.05249 0.73649 0.14195 0.0
C71 C 0.05972 0.72518 0.12523 0.0
C72 C 0.04198 0.718 0.11349 0.0
C73 C 0.02498 0.72533 0.12387 0.0
N74 N 0.0186 0.77807 0.14524 0.0
C75 C 0.02608 0.81652 0.12657 0.0
C76 C 0.04264 0.80406 0.13075 0.0
C77 C 0.03857 0.78503 0.14004 0.0
C78 C 0.00564 0.80906 0.13083 0.0
C79 C 0.00228 0.78995 0.14005 0.0
N80 N 0.00907 0.72717 0.17779 0.0
C81 C 0.02309 0.69916 0.19696 0.0
C82 C 0.00372 0.69481 0.20623 0.0
C83 C 0.9867 0.70601 0.19976 0.0
C84 C 0.98965 0.7218 0.18544 0.0
C85 C 0.02538 0.71524 0.18284 0.0
H86 H 0.97611 0.72982 0.18117 0.0
H87 H 0.04058 0.71799 0.1765 0.0
H88 H 0.05195 0.77659 0.14341 0.0
H89 H 0.98641 0.78548 0.14332 0.0
C90 C 0.9628 0.76086 0.16234 0.0
C91 C 0.00331 0.71696 0.11962 0.0
C92 C 0.02386 0.78569 0.2059 0.0
C93 C 0.06477 0.74495 0.15949 0.0
H94 H 0.96091 0.72195 0.1011 0.0
H95 H 0.93831 0.74421 0.12603 0.0
H96 H 0.95142 0.78598 0.1975 0.0
H97 H 0.98508 0.79951 0.2214 0.0
H98 H 0.06763 0.78685 0.21913 0.0
H99 H 0.09028 0.76418 0.19391 0.0
H100 H 0.07582 0.72165 0.12252 0.0
H101 H 0.04137 0.7073 0.09982 0.0
H102 H 0.05877 0.80933 0.1277 0.0
H103 H 0.99228 0.81814 0.12744 0.0
H104 H 0.03657 0.69042 0.20078 0.0
H105 H 0.97129 0.70323 0.20628 0.0
C106 C 0.33905 0.98404 0.26577 0.0
C107 C 0.34332 0.96347 0.26838 0.0
C108 C 0.334 0.95229 0.25133 0.0
C109 C 0.32445 0.96654 0.23941 0.0
N110 N 0.32765 0.98628 0.24747 0.0
Co111 Co 0.3139 0.01136 0.23731 0.0
N112 N 0.29579 0.99414 0.21559 0.0
C113 C 0.2967 0.97362 0.21078 0.0
C114 C 0.2826 0.96615 0.19489 0.0
C115 C 0.27207 0.9829 0.18914 0.0
C116 C 0.28036 0.9997 0.20198 0.0
N117 N 0.29968 0.03639 0.22784 0.0
C118 C 0.28363 0.03791 0.21333 0.0
C119 C 0.27811 0.05827 0.21198 0.0
C120 C 0.29122 0.07005 0.22604 0.0
C121 C 0.30388 0.05627 0.23523 0.0
N122 N 0.33224 0.02849 0.25883 0.0
C123 C 0.33399 0.04944 0.26146 0.0
C124 C 0.34706 0.05652 0.27838 0.0
C125 C 0.35353 0.03903 0.28744 0.0
C126 C 0.34389 0.02226 0.27552 0.0
N127 N 0.33548 0.01603 0.21546 0.0
C128 C 0.35644 0.02352 0.17764 0.0
C129 C 0.35293 0.03985 0.19188 0.0
C130 C 0.34269 0.03576 0.21063 0.0
C131 C 0.35135 0.00326 0.18372 0.0
C132 C 0.34132 0.9999 0.20274 0.0
N133 N 0.2922 0.00684 0.25849 0.0
C134 C 0.27141 0.02013 0.28643 0.0
C135 C 0.25918 0.00125 0.28656 0.0
C136 C 0.26439 0.98497 0.27294 0.0
C137 C 0.28098 0.98801 0.25932 0.0
C138 C 0.2876 0.02263 0.27226 0.0
H139 H 0.28425 0.97503 0.2493 0.0
H140 H 0.29605 0.03753 0.27251 0.0
H141 H 0.34007 0.04897 0.22043 0.0
H142 H 0.33785 0.98413 0.20636 0.0
C143 C 0.31006 0.96154 0.22239 0.0
C144 C 0.34463 0.00077 0.28171 0.0
C145 C 0.27326 0.02062 0.20041 0.0
C146 C 0.32009 0.06155 0.25053 0.0
H147 H 0.35147 0.95697 0.28161 0.0
H148 H 0.33312 0.93557 0.24868 0.0
H149 H 0.28007 0.95035 0.18844 0.0
H150 H 0.25968 0.98276 0.17688 0.0
H151 H 0.26591 0.06402 0.20182 0.0
H152 H 0.29152 0.08668 0.22916 0.0
H153 H 0.35024 0.07242 0.28436 0.0
H154 H 0.36327 0.03859 0.30183 0.0
H155 H 0.35702 0.05583 0.18811 0.0
H156 H 0.35461 0.99003 0.17359 0.0
H157 H 0.26844 0.03306 0.29707 0.0
H158 H 0.25538 0.97006 0.27226 0.0
C159 C 0.64381 0.4694 0.22305 0.0
C160 C 0.63622 0.44886 0.21948 0.0
C161 C 0.64834 0.43737 0.23215 0.0
C162 C 0.66255 0.45158 0.24255 0.0
N163 N 0.65994 0.47148 0.23766 0.0
Co164 Co 0.67749 0.49714 0.24797 0.0
N165 N 0.69639 0.48025 0.26526 0.0
C166 C 0.69532 0.4593 0.26658 0.0
C167 C 0.71088 0.45226 0.2794 0.0
C168 C 0.72222 0.46976 0.28721 0.0
C169 C 0.71261 0.48658 0.27891 0.0
N170 N 0.69516 0.5228 0.25812 0.0
C171 C 0.71058 0.52515 0.27357 0.0
C172 C 0.71737 0.54595 0.27737 0.0
C173 C 0.70603 0.55707 0.26366 0.0
C174 C 0.69276 0.54259 0.25251 0.0
N175 N 0.65817 0.514 0.23106 0.0
C176 C 0.65901 0.5349 0.22972 0.0
C177 C 0.64373 0.54168 0.21627 0.0
C178 C 0.63271 0.52399 0.20829 0.0
C179 C 0.64201 0.5075 0.21741 0.0
N180 N 0.65959 0.50018 0.2728 0.0
C181 C 0.64034 0.5058 0.31173 0.0
C182 C 0.64515 0.52264 0.29917 0.0
C183 C 0.65442 0.51947 0.27979 0.0
C184 C 0.64408 0.48591 0.30394 0.0
C185 C 0.6537 0.48346 0.28455 0.0
N186 N 0.69588 0.49431 0.22327 0.0
C187 C 0.71503 0.50989 0.19475 0.0
C188 C 0.72612 0.4921 0.1915 0.0
C189 C 0.72073 0.475 0.20374 0.0
C190 C 0.70546 0.47631 0.21906 0.0
C191 C 0.7003 0.51071 0.21061 0.0
H192 H 0.70197 0.46263 0.22753 0.0
H193 H 0.69289 0.52491 0.21246 0.0
H194 H 0.65783 0.53298 0.27108 0.0
H195 H 0.65683 0.46802 0.27973 0.0
C196 C 0.67929 0.44667 0.25589 0.0
C197 C 0.63704 0.48605 0.21035 0.0
C198 C 0.71843 0.5082 0.2856 0.0
C199 C 0.67566 0.54744 0.23951 0.0
H200 H 0.62381 0.44284 0.20823 0.0
H201 H 0.64745 0.42061 0.23304 0.0
H202 H 0.71345 0.43633 0.28295 0.0
H203 H 0.73572 0.47003 0.29819 0.0
H204 H 0.7287 0.55263 0.28936 0.0
H205 H 0.70642 0.57382 0.2629 0.0
H206 H 0.64155 0.55749 0.21198 0.0
H207 H 0.62 0.52318 0.19633 0.0
H208 H 0.64201 0.53827 0.30441 0.0
H209 H 0.6404 0.4724 0.31316 0.0
H210 H 0.71772 0.52335 0.18524 0.0
H211 H 0.72857 0.46071 0.20206 0.0
C212 C 0.28623 0.35485 0.99504 0.0
C213 C 0.28872 0.36127 0.9745 0.0
C214 C 0.27315 0.35066 0.96216 0.0
C215 C 0.26216 0.33836 0.97578 0.0
N216 N 0.2694 0.34092 0.99621 0.0
Co217 Co 0.25961 0.32484 0.02104 0.0
N218 N 0.23997 0.306 0.00224 0.0
C219 C 0.23674 0.3068 0.98098 0.0
C220 C 0.22196 0.29198 0.97258 0.0
C221 C 0.21521 0.28117 0.98947 0.0
C222 C 0.2263 0.2901 0.0073 0.0
N223 N 0.24995 0.30886 0.04594 0.0
C224 C 0.23528 0.2927 0.0468 0.0
C225 C 0.23287 0.28642 0.0674 0.0
C226 C 0.2464 0.29923 0.08007 0.0
C227 C 0.25624 0.31252 0.06654 0.0
N228 N 0.27942 0.34363 0.03969 0.0
C229 C 0.28179 0.34389 0.06105 0.0
C230 C 0.29767 0.3578 0.06912 0.0
C231 C 0.30633 0.36653 0.0518 0.0
C232 C 0.29517 0.35733 0.0342 0.0
N233 N 0.23625 0.34366 0.02524 0.0
C234 C 0.19761 0.36173 0.03154 0.0
C235 C 0.21187 0.35955 0.04856 0.0
C236 C 0.23102 0.35056 0.04507 0.0
C237 C 0.20384 0.35646 0.01123 0.0
C238 C 0.22316 0.34791 0.00845 0.0
N239 N 0.28239 0.30563 0.01681 0.0
C240 C 0.30867 0.28374 0.0308 0.0
C241 C 0.31162 0.27509 0.01053 0.0
C242 C 0.30048 0.28291 0.99345 0.0
C243 C 0.28614 0.29798 0.99689 0.0
C244 C 0.29413 0.29895 0.03356 0.0
H245 H 0.27802 0.30298 0.98317 0.0
H246 H 0.2923 0.30485 0.04939 0.0
H247 H 0.24095 0.34873 0.05873 0.0
H248 H 0.22669 0.34421 0.99255 0.0
C249 C 0.24724 0.32214 0.96946 0.0
C250 C 0.30133 0.3606 0.01258 0.0
C251 C 0.22275 0.28338 0.02871 0.0
C252 C 0.27089 0.32899 0.07273 0.0
H253 H 0.30105 0.37172 0.96874 0.0
H254 H 0.27099 0.35086 0.94509 0.0
H255 H 0.21647 0.28957 0.95618 0.0
H256 H 0.20322 0.26836 0.9888 0.0
H257 H 0.22218 0.27407 0.07272 0.0
H258 H 0.24855 0.2991 0.09715 0.0
H259 H 0.30312 0.36038 0.08551 0.0
H260 H 0.31993 0.37764 0.05198 0.0
H261 H 0.20786 0.36384 0.06459 0.0
H262 H 0.1936 0.35854 0.99748 0.0
H263 H 0.317 0.27836 0.04459 0.0
H264 H 0.30264 0.27731 0.97734 0.0
C265 C 0.21099 0.65574 0.48933 0.0
C266 C 0.20851 0.64799 0.4685 0.0
C267 C 0.22203 0.65987 0.45694 0.0
C268 C 0.23186 0.67417 0.47128 0.0
N269 N 0.2258 0.67187 0.49141 0.0
Co270 Co 0.23504 0.68997 0.51705 0.0
N271 N 0.25476 0.70749 0.50001 0.0
C272 C 0.25781 0.70557 0.47895 0.0
C273 C 0.27313 0.71938 0.47205 0.0
C274 C 0.28087 0.73031 0.48988 0.0
C275 C 0.26983 0.72233 0.50672 0.0
N276 N 0.24388 0.70843 0.54253 0.0
C277 C 0.26015 0.7231 0.54513 0.0
C278 C 0.26201 0.73134 0.5658 0.0
C279 C 0.24644 0.72134 0.57666 0.0
C280 C 0.23608 0.70753 0.56214 0.0
N281 N 0.21611 0.67183 0.53429 0.0
C282 C 0.21335 0.67362 0.55538 0.0
C283 C 0.19936 0.65862 0.56262 0.0
C284 C 0.19258 0.64671 0.54502 0.0
C285 C 0.20284 0.65528 0.52807 0.0
N286 N 0.25856 0.67232 0.52343 0.0
C287 C 0.2967 0.65472 0.53277 0.0
C288 C 0.28405 0.66093 0.54901 0.0
C289 C 0.26491 0.66931 0.54401 0.0
C290 C 0.28943 0.65603 0.51182 0.0
C291 C 0.27038 0.66484 0.5075 0.0
N292 N 0.21158 0.70814 0.51071 0.0
C293 C 0.18145 0.72633 0.52184 0.0
C294 C 0.18077 0.73676 0.50288 0.0
C295 C 0.19511 0.73196 0.48758 0.0
C296 C 0.20999 0.71752 0.49164 0.0
C297 C 0.19694 0.71229 0.52546 0.0
H298 H 0.22012 0.7144 0.47909 0.0
H299 H 0.19689 0.70523 0.54043 0.0
H300 H 0.25592 0.67398 0.55705 0.0
H301 H 0.26596 0.6662 0.4912 0.0
C302 C 0.24676 0.68995 0.46631 0.0
C303 C 0.19756 0.64874 0.50615 0.0
C304 C 0.27509 0.72832 0.52889 0.0
C305 C 0.22236 0.69082 0.56742 0.0
H306 H 0.19766 0.63543 0.46215 0.0
H307 H 0.2241 0.65853 0.44002 0.0
H308 H 0.27854 0.72084 0.45609 0.0
H309 H 0.29365 0.74233 0.49046 0.0
H310 H 0.27401 0.74261 0.57262 0.0
H311 H 0.24406 0.7228 0.59352 0.0
H312 H 0.19401 0.65708 0.57859 0.0
H313 H 0.18074 0.63376 0.54448 0.0
H314 H 0.28912 0.65974 0.56547 0.0
H315 H 0.29884 0.65108 0.49884 0.0
H316 H 0.17052 0.72949 0.53412 0.0
H317 H 0.19483 0.73932 0.47244 0.0
C318 C 0.76969 0.83905 0.48681 0.0
C319 C 0.77105 0.84467 0.46589 0.0
C320 C 0.7548 0.83376 0.45476 0.0
C321 C 0.74444 0.82226 0.46948 0.0
N322 N 0.75268 0.82566 0.48947 0.0
Co323 Co 0.74353 0.81139 0.51558 0.0
N324 N 0.72218 0.79251 0.49872 0.0
C325 C 0.71768 0.7926 0.47759 0.0
C326 C 0.70177 0.77823 0.47067 0.0
C327 C 0.69557 0.76854 0.48844 0.0
C328 C 0.70809 0.77762 0.50526 0.0
N329 N 0.73477 0.79691 0.54171 0.0
C330 C 0.71973 0.78133 0.54411 0.0
C331 C 0.71844 0.77603 0.56514 0.0
C332 C 0.7331 0.78884 0.57647 0.0
C333 C 0.74244 0.80116 0.56178 0.0
N334 N 0.76485 0.8305 0.53233 0.0
C335 C 0.76811 0.8317 0.55364 0.0
C336 C 0.78501 0.84492 0.56043 0.0
C337 C 0.79341 0.85224 0.54239 0.0
C338 C 0.78096 0.84317 0.52549 0.0
N339 N 0.7211 0.83131 0.52002 0.0
C340 C 0.68313 0.85038 0.52726 0.0
C341 C 0.69779 0.8481 0.54389 0.0
C342 C 0.7166 0.83864 0.53993 0.0
C343 C 0.68857 0.84466 0.50681 0.0
C344 C 0.70765 0.83568 0.50353 0.0
N345 N 0.76532 0.79107 0.51121 0.0
C346 C 0.79348 0.77117 0.52483 0.0
C347 C 0.79394 0.75988 0.50551 0.0
C348 C 0.78037 0.76503 0.48892 0.0
C349 C 0.76652 0.78069 0.492 0.0
C350 C 0.77904 0.78649 0.52737 0.0
H351 H 0.75678 0.78401 0.47863 0.0
H352 H 0.77904 0.79426 0.54261 0.0
H353 H 0.72686 0.83678 0.55334 0.0
H354 H 0.71069 0.83173 0.48753 0.0
C355 C 0.7284 0.80665 0.46476 0.0
C356 C 0.78585 0.84552 0.50322 0.0
C357 C 0.70563 0.77189 0.52718 0.0
C358 C 0.75758 0.81756 0.56645 0.0
H359 H 0.78309 0.85492 0.45927 0.0
H360 H 0.75157 0.83347 0.43779 0.0
H361 H 0.69526 0.77535 0.45466 0.0
H362 H 0.68303 0.75636 0.48903 0.0
H363 H 0.7077 0.76441 0.57166 0.0
H364 H 0.73623 0.78944 0.59346 0.0
H365 H 0.79143 0.84771 0.57649 0.0
H366 H 0.80771 0.86225 0.54194 0.0
H367 H 0.69434 0.85275 0.55998 0.0
H368 H 0.67789 0.84671 0.49338 0.0
H369 H 0.80377 0.76778 0.53813 0.0
H370 H 0.78047 0.75704 0.47353 0.0
C371 C 0.50831 0.80017 0.84464 0.0
C372 C 0.48956 0.80036 0.85519 0.0
C373 C 0.4762 0.78478 0.84576 0.0
C374 C 0.48783 0.77546 0.83069 0.0
N375 N 0.50785 0.78376 0.83059 0.0
Co376 Co 0.53095 0.77339 0.8136 0.0
N377 N 0.51047 0.75609 0.79433 0.0
C378 C 0.4892 0.75449 0.79563 0.0
C379 C 0.47913 0.74216 0.77965 0.0
C380 C 0.49491 0.7356 0.76745 0.0
C381 C 0.51383 0.7441 0.77688 0.0
N382 N 0.55441 0.76232 0.79743 0.0
C383 C 0.55382 0.74882 0.78039 0.0
C384 C 0.574 0.74415 0.77505 0.0
C385 C 0.58774 0.75501 0.78931 0.0
C386 C 0.57526 0.7656 0.80257 0.0
N387 N 0.55088 0.7923 0.8319 0.0
C388 C 0.57211 0.79265 0.83281 0.0
C389 C 0.58131 0.80666 0.84786 0.0
C390 C 0.56488 0.81655 0.85614 0.0
C391 C 0.54669 0.80865 0.84493 0.0
N392 N 0.5333 0.7496 0.83311 0.0
C393 C 0.53931 0.71177 0.85345 0.0
C394 C 0.55448 0.72859 0.85562 0.0
C395 C 0.55107 0.74725 0.84565 0.0
C396 C 0.52063 0.71478 0.84203 0.0
C397 C 0.51787 0.73356 0.83247 0.0
N398 N 0.52867 0.79611 0.79397 0.0
C399 C 0.5444 0.81782 0.76776 0.0
C400 C 0.52453 0.82373 0.7613 0.0
C401 C 0.50694 0.81662 0.77222 0.0
C402 C 0.50931 0.80276 0.78838 0.0
C403 C 0.54617 0.80434 0.78441 0.0
H404 H 0.49527 0.79706 0.79576 0.0
H405 H 0.5617 0.80029 0.78905 0.0
H406 H 0.56322 0.75933 0.84833 0.0
H407 H 0.50314 0.73419 0.82422 0.0
C408 C 0.47956 0.76273 0.81345 0.0
C409 C 0.52556 0.81665 0.84648 0.0
C410 C 0.53458 0.73941 0.76944 0.0
C411 C 0.5826 0.77971 0.81908 0.0
H412 H 0.48548 0.81154 0.86729 0.0
H413 H 0.45957 0.78173 0.84846 0.0
H414 H 0.46239 0.73792 0.77748 0.0
H415 H 0.49275 0.72527 0.75352 0.0
H416 H 0.57834 0.7338 0.76231 0.0
H417 H 0.60479 0.75524 0.78986 0.0
H418 H 0.59792 0.80944 0.85223 0.0
H419 H 0.56627 0.82807 0.86909 0.0
H420 H 0.56896 0.72742 0.86497 0.0
H421 H 0.50821 0.70244 0.83977 0.0
H422 H 0.55841 0.82345 0.75989 0.0
H423 H 0.49131 0.82105 0.76771 0.0
C424 C 0.54431 0.28968 0.64478 0.0
C425 C 0.56436 0.2935 0.6372 0.0
C426 C 0.5765 0.2789 0.64544 0.0
C427 C 0.56326 0.26711 0.6576 0.0
N428 N 0.54328 0.27304 0.65725 0.0
Co429 Co 0.51925 0.26144 0.67388 0.0
N430 N 0.5383 0.24371 0.69028 0.0
C431 C 0.55924 0.24225 0.68789 0.0
C432 C 0.5681 0.22872 0.70118 0.0
C433 C 0.55192 0.22114 0.7129 0.0
C434 C 0.53402 0.23064 0.70613 0.0
N435 N 0.49509 0.24948 0.69018 0.0
C436 C 0.4948 0.23571 0.70592 0.0
C437 C 0.47451 0.23159 0.71287 0.0
C438 C 0.46151 0.24283 0.70088 0.0
C439 C 0.47449 0.25329 0.68744 0.0
N440 N 0.5004 0.27975 0.6581 0.0
C441 C 0.4793 0.28067 0.65956 0.0
C442 C 0.47108 0.29578 0.64771 0.0
C443 C 0.48806 0.30551 0.63867 0.0
C444 C 0.50566 0.29569 0.64559 0.0
N445 N 0.51328 0.23871 0.65196 0.0
C446 C 0.50287 0.20312 0.62568 0.0
C447 C 0.48814 0.21773 0.62918 0.0
C448 C 0.49362 0.23521 0.64227 0.0
C449 C 0.52339 0.20741 0.6341 0.0
C450 C 0.52827 0.2253 0.64686 0.0
N451 N 0.52505 0.28404 0.6955 0.0
C452 C 0.51239 0.31151 0.71733 0.0
C453 C 0.533 0.31828 0.72381 0.0
C454 C 0.54963 0.30747 0.71629 0.0
C455 C 0.54532 0.29049 0.70208 0.0
C456 C 0.50878 0.29433 0.70343 0.0
H457 H 0.55855 0.28289 0.69649 0.0
H458 H 0.49272 0.2897 0.69921 0.0
H459 H 0.48137 0.24523 0.64458 0.0
H460 H 0.54412 0.22751 0.65284 0.0
C461 C 0.56992 0.25309 0.67232 0.0
C462 C 0.52718 0.30319 0.64147 0.0
C463 C 0.51329 0.22634 0.71494 0.0
C464 C 0.468 0.26792 0.67322 0.0
H465 H 0.56995 0.30605 0.62754 0.0
H466 H 0.59332 0.27792 0.64394 0.0
H467 H 0.58432 0.22462 0.70204 0.0
H468 H 0.55317 0.20969 0.72488 0.0
H469 H 0.46956 0.22167 0.72545 0.0
H470 H 0.44464 0.24364 0.70214 0.0
H471 H 0.45484 0.29979 0.64649 0.0
H472 H 0.48773 0.31883 0.62878 0.0
H473 H 0.47221 0.21544 0.62235 0.0
H474 H 0.53546 0.1966 0.63171 0.0
H475 H 0.49905 0.31918 0.7233 0.0
H476 H 0.56583 0.3122 0.72119 0.0
C477 C 0.84 0.4896 0.77285 0.0
C478 C 0.84697 0.46994 0.77561 0.0
C479 C 0.83729 0.45726 0.75983 0.0
C480 C 0.82512 0.46989 0.74835 0.0
N481 N 0.82694 0.49 0.75544 0.0
Co482 Co 0.81108 0.51344 0.74457 0.0
N483 N 0.79318 0.49406 0.72457 0.0
C484 C 0.79497 0.47342 0.72124 0.0
C485 C 0.78102 0.46434 0.70601 0.0
C486 C 0.76959 0.48008 0.69918 0.0
C487 C 0.77715 0.49795 0.71084 0.0
N488 N 0.79506 0.53692 0.73389 0.0
C489 C 0.77851 0.53672 0.71966 0.0
C490 C 0.77167 0.55652 0.71734 0.0
C491 C 0.78459 0.56973 0.73021 0.0
C492 C 0.79841 0.55732 0.7398 0.0
N493 N 0.82896 0.53267 0.76476 0.0
C494 C 0.82893 0.55363 0.76654 0.0
C495 C 0.84139 0.56233 0.78318 0.0
C496 C 0.84941 0.54595 0.79297 0.0
C497 C 0.84151 0.52808 0.78157 0.0
N498 N 0.83158 0.51808 0.72181 0.0
C499 C 0.85079 0.52516 0.68312 0.0
C500 C 0.84687 0.54172 0.69684 0.0
C501 C 0.83778 0.53783 0.71618 0.0
C502 C 0.84706 0.505 0.68999 0.0
C503 C 0.83762 0.50184 0.70934 0.0
N504 N 0.7904 0.50897 0.76674 0.0
C505 C 0.76766 0.52318 0.79239 0.0
C506 C 0.75894 0.50336 0.79622 0.0
C507 C 0.76661 0.48624 0.7857 0.0
C508 C 0.78221 0.48939 0.77091 0.0
C509 C 0.78346 0.5256 0.77788 0.0
H510 H 0.78727 0.47589 0.76282 0.0
H511 H 0.78967 0.5411 0.77574 0.0
H512 H 0.8353 0.55113 0.72587 0.0
H513 H 0.8347 0.48612 0.71337 0.0
C514 C 0.80994 0.46298 0.73262 0.0
C515 C 0.8448 0.50698 0.78807 0.0
C516 C 0.76888 0.51826 0.70794 0.0
C517 C 0.81433 0.56425 0.75482 0.0
H518 H 0.85724 0.46513 0.78829 0.0
H519 H 0.8381 0.44061 0.75771 0.0
H520 H 0.77944 0.44822 0.70042 0.0
H521 H 0.75723 0.47854 0.68685 0.0
H522 H 0.75866 0.56102 0.70741 0.0
H523 H 0.78387 0.58638 0.73246 0.0
H524 H 0.8432 0.57853 0.7885 0.0
H525 H 0.85908 0.54716 0.80746 0.0
H526 H 0.85041 0.55763 0.69249 0.0
H527 H 0.85041 0.49167 0.68004 0.0
H528 H 0.76226 0.53677 0.80058 0.0
H529 H 0.76019 0.47061 0.78844 0.0
C530 C 0.15484 0.02667 0.76927 0.0
C531 C 0.14936 0.04697 0.77245 0.0
C532 C 0.15829 0.05816 0.7568 0.0
C533 C 0.16873 0.04417 0.74503 0.0
N534 N 0.16665 0.02459 0.75197 0.0
Co535 Co 0.18053 0.99973 0.74058 0.0
N536 N 0.19751 0.01707 0.72064 0.0
C537 C 0.19728 0.03787 0.71864 0.0
C538 C 0.2116 0.04582 0.70492 0.0
C539 C 0.22152 0.02911 0.69753 0.0
C540 C 0.21238 0.01172 0.70692 0.0
N541 N 0.19414 0.97479 0.72891 0.0
C542 C 0.20811 0.9731 0.71324 0.0
C543 C 0.21184 0.95246 0.70876 0.0
C544 C 0.20021 0.94079 0.72226 0.0
C545 C 0.18983 0.95479 0.73404 0.0
N546 N 0.16407 0.98253 0.76098 0.0
C547 C 0.16381 0.96171 0.7629 0.0
C548 C 0.15211 0.95456 0.77927 0.0
C549 C 0.14496 0.97194 0.78877 0.0
C550 C 0.15279 0.9887 0.77758 0.0
N551 N 0.15749 0.99463 0.71851 0.0
C552 C 0.12973 0.98557 0.68324 0.0
C553 C 0.13322 0.97055 0.69797 0.0
C554 C 0.14692 0.97542 0.71543 0.0
C555 C 0.13894 0.00565 0.68731 0.0
C556 C 0.15256 0.00984 0.70499 0.0
N557 N 0.20327 0.00474 0.76262 0.0
C558 C 0.22342 0.99221 0.79196 0.0
C559 C 0.23123 0.01243 0.79775 0.0
C560 C 0.22563 0.02865 0.78523 0.0
C561 C 0.21163 0.02449 0.76785 0.0
C562 C 0.20977 0.98869 0.77422 0.0
H563 H 0.20744 0.03752 0.75917 0.0
H564 H 0.20435 0.97294 0.77038 0.0
H565 H 0.14905 0.96313 0.72576 0.0
H566 H 0.15941 0.0253 0.7069 0.0
C567 C 0.18339 0.04956 0.72991 0.0
C568 C 0.1501 0.01026 0.784 0.0
C569 C 0.21805 0.99047 0.70198 0.0
C570 C 0.17593 0.94959 0.74998 0.0
H571 H 0.14068 0.0533 0.78529 0.0
H572 H 0.15835 0.07479 0.75507 0.0
H573 H 0.21456 0.06187 0.70084 0.0
H574 H 0.2341 0.02981 0.68647 0.0
H575 H 0.22176 0.94636 0.69682 0.0
H576 H 0.19926 0.92404 0.72323 0.0
H577 H 0.14975 0.93872 0.78421 0.0
H578 H 0.1356 0.97234 0.80273 0.0
H579 H 0.1259 0.9549 0.69571 0.0
H580 H 0.13659 0.01787 0.67633 0.0
H581 H 0.22794 0.97916 0.80098 0.0
H582 H 0.23164 0.04453 0.78913 0.0
C583 C 0.72704 0.16732 0.99776 0.0
C584 C 0.72388 0.159 0.97721 0.0
C585 C 0.73689 0.17067 0.96489 0.0
C586 C 0.74714 0.18533 0.97862 0.0
N587 N 0.74179 0.18347 -0.00097 0.0
Co588 Co 0.75208 0.20168 0.02427 0.0
N589 N 0.76974 0.21997 0.00601 0.0
C590 C 0.77102 0.21851 0.98466 0.0
C591 C 0.78513 0.23302 0.97683 0.0
C592 C 0.79371 0.24412 0.99424 0.0
C593 C 0.7843 0.23563 0.01175 0.0
N594 N 0.76257 0.21977 0.04955 0.0
C595 C 0.77804 0.23532 0.05103 0.0
C596 C 0.78156 0.24317 0.07172 0.0
C597 C 0.76803 0.23187 0.08386 0.0
C598 C 0.75711 0.21784 0.06994 0.0
N599 N 0.73438 0.1833 0.04247 0.0
C600 C 0.73276 0.18491 0.06374 0.0
C601 C 0.71853 0.17037 0.07143 0.0
C602 C 0.71025 0.1591 0.05396 0.0
C603 C 0.72002 0.16748 0.03666 0.0
N604 N 0.77635 0.18433 0.02869 0.0
C605 C 0.81457 0.16587 0.03548 0.0
C606 C 0.80213 0.17052 0.05245 0.0
C607 C 0.78298 0.17941 0.04868 0.0
C608 C 0.80721 0.16946 0.01502 0.0
C609 C 0.78818 0.17866 0.01199 0.0
N610 N 0.72798 0.21943 0.01986 0.0
C611 C 0.70175 0.24104 0.0341 0.0
C612 C 0.69671 0.24808 0.01396 0.0
C613 C 0.70686 0.23957 0.99674 0.0
C614 C 0.72224 0.22544 0.0 0.0
C615 C 0.71714 0.22673 0.03663 0.0
H616 H 0.72943 0.2198 0.9862 0.0
H617 H 0.72025 0.22206 0.05236 0.0
H618 H 0.77415 0.18273 0.06223 0.0
H619 H 0.78375 0.18166 0.99606 0.0
C620 C 0.7605 0.20204 0.97265 0.0
C621 C 0.7137 0.1613 0.01492 0.0
C622 C 0.79067 0.24204 0.03353 0.0
C623 C 0.74338 0.20133 0.07576 0.0
H624 H 0.71261 0.14645 0.97161 0.0
H625 H 0.73802 0.16922 0.94785 0.0
H626 H 0.78938 0.23471 0.96052 0.0
H627 H 0.80603 0.25657 0.99411 0.0
H628 H 0.79323 0.25528 0.07751 0.0
H629 H 0.76699 0.23309 0.10092 0.0
H630 H 0.71404 0.16874 0.08768 0.0
H631 H 0.6979 0.14665 0.05377 0.0
H632 H 0.80734 0.16766 0.06854 0.0
H633 H 0.81649 0.16587 0.00147 0.0
H634 H 0.69436 0.24699 0.04802 0.0
H635 H 0.70309 0.24387 0.9807 0.0
O636 O 0.06392 0.07324 0.09183 0.0
Mg637 Mg 0.08003 0.08425 0.06573 0.0
O638 O 0.04284 0.08422 0.06777 0.0
Mg639 Mg 0.05719 0.06737 0.03682 0.0
O640 O 0.09254 0.06107 0.04919 0.0
O641 O 0.11115 0.08379 0.07189 0.0
O642 O 0.07085 0.05397 0.00516 0.0
O643 O 0.04914 0.03527 0.05064 0.0
Mg644 Mg 0.02586 0.04198 0.00869 0.0
O645 O 0.02257 0.07068 0.02353 0.0
O646 O 0.04542 0.04043 0.98307 0.0
O647 O 0.026 0.01712 0.02897 0.0
O648 O 0.99782 0.05324 0.00215 0.0
C649 C 0.07181 0.11533 0.03453 0.0
C650 C 0.04777 0.08263 0.08741 0.0
C651 C 0.10995 0.06712 0.05992 0.0
C652 C 0.06466 0.04573 0.9871 0.0
C653 C 0.0376 0.01877 0.04572 0.0
C654 C 0.00375 0.06926 0.01435 0.0
O655 O 0.07511 0.11416 0.05426 0.0
O656 O 0.06686 0.09891 0.02328 0.0
O657 O 0.94776 0.45024 0.09772 0.0
Mg658 Mg 0.92836 0.44387 0.07073 0.0
O659 O 0.96802 0.44591 0.07117 0.0
Mg660 Mg 0.94941 0.45916 0.04136 0.0
O661 O 0.91586 0.46827 0.05606 0.0
O662 O 0.89963 0.44854 0.08023 0.0
O663 O 0.9335 0.47088 0.00986 0.0
O664 O 0.96179 0.49222 0.05374 0.0
Mg665 Mg 0.98309 0.47931 0.01134 0.0
O666 O 0.98162 0.45231 0.02719 0.0
O667 O 0.95866 0.48105 0.98839 0.0
O668 O 0.98795 0.50408 0.0341 0.0
O669 O 0.00749 0.46093 0.0056 0.0
C670 C 0.92889 0.4114 0.03771 0.0
C671 C 0.96542 0.4461 0.0911 0.0
C672 C 0.8999 0.4641 0.06812 0.0
C673 C 0.93929 0.47765 0.99205 0.0
C674 C 0.97631 0.50605 0.04982 0.0
C675 C -0.0004 0.44852 0.01924 0.0
O676 O 0.92497 0.41354 0.05705 0.0
O677 O 0.93699 0.4266 0.02796 0.0
O678 O 0.08504 0.954 0.42966 0.0
Mg679 Mg 0.06048 0.93266 0.41711 0.0
O680 O 0.06274 0.96641 0.40815 0.0
Mg681 Mg 0.03427 0.94725 0.42581 0.0
O682 O 0.04784 0.9134 0.43792 0.0
O683 O 0.07607 0.90697 0.41919 0.0
O684 O 0.0038 0.93086 0.44084 0.0
O685 O 0.04957 0.95989 0.45802 0.0
Mg686 Mg 0.01 0.97657 0.44583 0.0
O687 O 0.02116 0.97992 0.41577 0.0
O688 O 0.98491 0.9558 0.45256 0.0
O689 O 0.03166 0.98509 0.47081 0.0
O690 O -0.0004 0.0013 0.43176 0.0
C691 C 0.03258 0.92926 0.37948 0.0
C692 C 0.08161 0.96654 0.41547 0.0
C693 C 0.06358 0.90203 0.43396 0.0
C694 C 0.98726 0.9367 0.44955 0.0
C695 C 0.04713 0.97391 0.47224 0.0
C696 C 0.01108 0.99699 0.41601 0.0
O697 O 0.05217 0.93048 0.38384 0.0
O698 O 0.02011 0.933 0.3941 0.0
O699 O 0.94345 0.60683 0.43885 0.0
Mg700 Mg 0.93534 0.58299 0.41536 0.0
O701 O 0.92694 0.57945 0.45078 0.0
Mg702 Mg 0.94546 0.55289 0.43155 0.0
O703 O 0.95726 0.56841 0.39893 0.0
O704 O 0.94064 0.59598 0.38775 0.0
O705 O 0.96215 0.52462 0.41255 0.0
O706 O 0.97611 0.5674 0.44645 0.0
Mg707 Mg 0.95901 0.52321 0.45157 0.0
O708 O 0.93476 0.53829 0.46395 0.0
O709 O 0.95032 0.49827 0.43032 0.0
O710 O 0.99025 0.53806 0.45249 0.0
O711 O 0.95243 0.51437 0.48078 0.0
C712 C 0.8999 0.55056 0.41171 0.0
C713 C 0.93111 0.59913 0.45203 0.0
C714 C 0.95424 0.58239 0.38495 0.0
C715 C 0.95836 0.50492 0.41381 0.0
C716 C 0.99201 0.55768 0.45167 0.0
C717 C 0.93753 0.52692 0.48031 0.0
O718 O 0.90354 0.57012 0.41207 0.0
O719 O 0.91457 0.53912 0.41666 0.0
O720 O 0.42881 0.93097 0.59817 0.0
Mg721 Mg 0.40258 0.94038 0.58178 0.0
O722 O 0.45001 0.94038 0.57281 0.0
Mg723 Mg 0.43229 0.94942 0.5416 0.0
O724 O 0.40026 0.95929 0.5562 0.0
O725 O 0.41356 0.97276 0.58609 0.0
O726 O 0.41476 0.95749 0.50857 0.0
O727 O 0.44497 0.98308 0.54906 0.0
Mg728 Mg 0.4602 0.96201 0.50932 0.0
O729 O 0.46575 0.93885 0.52968 0.0
O730 O 0.43844 0.9557 0.48416 0.0
O731 O 0.46541 0.99227 0.52307 0.0
O732 O 0.48743 0.94921 0.5041 0.0
C733 C 0.40301 0.90647 0.54453 0.0
C734 C 0.44707 0.93369 0.59125 0.0
C735 C 0.39857 0.97208 0.57212 0.0
C736 C 0.41955 0.9571 0.48903 0.0
C737 C 0.45706 0.99651 0.54043 0.0
C738 C 0.48331 0.93741 0.51966 0.0
O739 O 0.39471 0.91391 0.56094 0.0
O740 O 0.41832 0.91609 0.53572 0.0
O741 O 0.54778 0.56835 0.61574 0.0
Mg742 Mg 0.56418 0.57659 0.58861 0.0
O743 O 0.52671 0.57579 0.5898 0.0
Mg744 Mg 0.54097 0.55742 0.56021 0.0
O745 O 0.57665 0.55297 0.57222 0.0
O746 O 0.59518 0.57587 0.59485 0.0
O747 O 0.55415 0.54224 0.52911 0.0
O748 O 0.53464 0.52586 0.57677 0.0
Mg749 Mg 0.5103 0.52997 0.53661 0.0
O750 O 0.50569 0.55991 0.54741 0.0
O751 O 0.52793 0.52593 0.51012 0.0
O752 O 0.5103 0.50631 0.5581 0.0
O753 O 0.48159 0.53843 0.52896 0.0
C754 C 0.55565 0.60543 0.55476 0.0
C755 C 0.53106 0.57604 0.60971 0.0
C756 C 0.59414 0.5594 0.58259 0.0
C757 C 0.54717 0.53212 0.51223 0.0
C758 C 0.52305 0.50899 0.5739 0.0
C759 C 0.48681 0.55616 0.53856 0.0
O760 O 0.5599 0.60545 0.57447 0.0
O761 O 0.54982 0.58847 0.54466 0.0
O762 O 0.60285 0.4753 0.96064 0.0
Mg763 Mg 0.57989 0.45226 0.94758 0.0
O764 O 0.57996 0.4856 0.9382 0.0
Mg765 Mg 0.5515 0.46493 0.95348 0.0
O766 O 0.56513 0.43069 0.9647 0.0
O767 O 0.59645 0.42737 0.9502 0.0
O768 O 0.52004 0.44812 0.96604 0.0
O769 O 0.56365 0.47741 0.98641 0.0
Mg770 Mg 0.52286 0.49569 0.97226 0.0
O771 O 0.53804 0.4967 0.94423 0.0
O772 O 0.49853 0.47275 0.97289 0.0
O773 O 0.54303 0.50052 -0.00056 0.0
O774 O 0.5163 0.5205 0.95527 0.0
C775 C 0.55444 0.44765 0.90773 0.0
C776 C 0.59863 0.48743 0.94621 0.0
C777 C 0.58138 0.41983 0.96118 0.0
C778 C 0.5019 0.45372 0.97109 0.0
C779 C 0.55919 0.49021 0.00107 0.0
C780 C 0.52905 0.51403 0.94145 0.0
O781 O 0.57359 0.44939 0.91412 0.0
O782 O 0.54035 0.45172 0.92062 0.0
O783 O 0.42333 0.09968 0.92186 0.0
Mg784 Mg 0.4411 0.07989 0.9025 0.0
O785 O 0.44792 0.09938 0.94703 0.0
Mg786 Mg 0.46048 0.069 0.93183 0.0
O787 O 0.47237 0.08674 0.89993 0.0
O788 O 0.44723 0.09539 0.87643 0.0
O789 O 0.47176 0.03778 0.9147 0.0
O790 O 0.49437 0.08072 0.94366 0.0
Mg791 Mg 0.47872 0.03715 0.96273 0.0
O792 O 0.45281 0.05414 0.96368 0.0
O793 O 0.4771 0.01409 0.93847 0.0
O794 O 0.50619 0.05743 0.96536 0.0
O795 O 0.46113 0.03222 0.98873 0.0
C796 C 0.41845 0.04623 0.90712 0.0
C797 C 0.43119 0.1068 0.93962 0.0
C798 C 0.46682 0.09514 0.88224 0.0
C799 C 0.47575 0.01922 0.91939 0.0
C800 C 0.50877 0.0744 0.95595 0.0
C801 C 0.4488 0.04558 0.9815 0.0
O802 O 0.42848 0.05043 0.8909 0.0
O803 O 0.42525 0.055 0.9246 0.0
H804 H 0.0082 0.17856 0.36696 0.0
H805 H 0.01067 0.14239 0.37679 0.0
H806 H 0.06466 0.13759 0.33803 0.0
H807 H 0.06252 0.17405 0.32852 0.0
H808 H 0.0325 0.1035 0.33159 0.0
H809 H 0.07536 0.13788 0.38654 0.0
H810 H 0.08604 0.16415 0.41496 0.0
H811 H 0.03339 0.14283 0.45098 0.0
H812 H 0.02217 0.11662 0.4226 0.0
H813 H 0.04558 0.00491 0.39122 0.0
H814 H 0.05498 0.03797 0.37421 0.0
H815 H 0.99523 0.06035 0.39083 0.0
H816 H 0.98559 0.02765 0.40709 0.0
H817 H 0.03914 0.08441 0.40678 0.0
H818 H 0.99406 0.05433 0.34653 0.0
H819 H 0.98533 0.02773 0.31789 0.0
H820 H 0.04616 0.04072 0.29202 0.0
H821 H 0.05535 0.06719 0.32077 0.0
C822 C 0.02069 0.16984 0.36067 0.0
C823 C 0.03522 0.17915 0.34706 0.0
C824 C 0.02211 0.14919 0.3663 0.0
C825 C 0.03787 0.13726 0.35817 0.0
C826 C 0.05239 0.14648 0.34451 0.0
C827 C 0.05124 0.16733 0.33921 0.0
C828 C 0.03866 0.1151 0.36384 0.0
C829 C 0.0344 0.09931 0.34799 0.0
C830 C 0.04126 0.10956 0.3852 0.0
C831 C 0.04781 0.12538 0.40232 0.0
C832 C 0.06592 0.13892 0.40042 0.0
C833 C 0.07211 0.15378 0.41655 0.0
C834 C 0.06038 0.15519 0.43475 0.0
C835 C 0.04245 0.14172 0.43686 0.0
C836 C 0.03618 0.12684 0.42076 0.0
C837 C 0.03419 0.0166 0.39052 0.0
C838 C 0.01489 0.01365 0.40063 0.0
C839 C 0.03964 0.03555 0.381 0.0
C840 C 0.02587 0.0517 0.38153 0.0
C841 C 0.00614 0.04818 0.39037 0.0
C842 C 0.00063 0.02936 0.39958 0.0
C843 C 0.03222 0.07296 0.37465 0.0
C844 C 0.03776 0.0886 0.39034 0.0
C845 C 0.03105 0.07832 0.35317 0.0
C846 C 0.02551 0.06246 0.33596 0.0
C847 C 0.00567 0.05131 0.3349 0.0
C848 C 0.00061 0.03632 0.31861 0.0
C849 C 0.01521 0.03247 0.3032 0.0
C850 C 0.03488 0.04367 0.30401 0.0
C851 C 0.04003 0.05866 0.32029 0.0
H852 H 0.01126 0.02086 0.29059 0.0
H853 H 0.0652 0.16669 0.44723 0.0
H854 H 0.04957 0.34302 0.34868 0.0
H855 H 0.04106 0.37797 0.35714 0.0
H856 H 0.97559 0.36118 0.34099 0.0
H857 H 0.98398 0.32632 0.33156 0.0
H858 H 0.98353 0.39762 0.32911 0.0
H859 H 0.99744 0.36605 0.39516 0.0
H860 H 0.018 0.34742 0.42129 0.0
H861 H 0.06736 0.3965 0.42303 0.0
H862 H 0.0472 0.4153 0.39667 0.0
H863 H 0.93552 0.4718 0.39519 0.0
H864 H 0.9489 0.44131 0.37742 0.0
H865 H 0.01196 0.47087 0.38239 0.0
H866 H 0.99839 0.50177 0.39985 0.0
H867 H 0.008 0.43015 0.39896 0.0
H868 H 0.98969 0.46321 0.33478 0.0
H869 H 0.96612 0.48113 0.31081 0.0
H870 H 0.92142 0.42793 0.30809 0.0
H871 H 0.94461 0.40979 0.33229 0.0
C872 C 0.03314 0.34587 0.34798 0.0
C873 C 0.01714 0.33 0.34245 0.0
C874 C 0.02833 0.36647 0.35246 0.0
C875 C 0.00742 0.37218 0.35112 0.0
C876 C 0.99178 0.35718 0.34321 0.0
C877 C 0.99663 0.33668 0.33849 0.0
C878 C 0.0018 0.39361 0.35794 0.0
C879 C 0.98881 0.40459 0.34446 0.0
C880 C 0.00883 0.40314 0.37784 0.0
C881 C 0.02094 0.39195 0.39376 0.0
C882 C 0.01275 0.37279 0.401 0.0
C883 C 0.02432 0.36222 0.41586 0.0
C884 C 0.044 0.37074 0.42376 0.0
C885 C 0.05213 0.38989 0.41686 0.0
C886 C 0.04064 0.40052 0.40196 0.0
C887 C 0.95212 0.4721 0.39178 0.0
C888 C 0.96584 0.48934 0.39849 0.0
C889 C 0.95979 0.4546 0.38174 0.0
C890 C 0.98146 0.45372 0.37851 0.0
C891 C 0.99517 0.4712 0.38461 0.0
C892 C 0.98738 0.48896 0.39432 0.0
C893 C 0.98971 0.43395 0.3702 0.0
C894 C 0.00305 0.42325 0.38348 0.0
C895 C 0.98264 0.42451 0.35035 0.0
C896 C 0.96884 0.4352 0.33547 0.0
C897 C 0.97478 0.45538 0.32917 0.0
C898 C 0.9615 0.46557 0.31552 0.0
C899 C 0.94226 0.45569 0.30796 0.0
C900 C 0.93632 0.43556 0.31396 0.0
C901 C 0.94955 0.4253 0.32762 0.0
H902 H 0.93198 0.46362 0.29743 0.0
H903 H 0.05294 0.36252 0.43526 0.0
H904 H 0.05118 0.82921 0.09453 0.0
H905 H 0.05688 0.86466 0.08205 0.0
H906 H 0.01612 0.88678 0.12984 0.0
H907 H 0.01031 0.85158 0.14219 0.0
H908 H 0.00564 0.89962 0.09112 0.0
H909 H 0.06994 0.89557 0.1345 0.0
H910 H 0.1033 0.88062 0.14482 0.0
H911 H 0.12679 0.89151 0.08305 0.0
H912 H 0.09344 0.90624 0.07226 0.0
H913 H 0.02063 0.00755 0.08286 0.0
H914 H 0.02253 0.97351 0.09889 0.0
H915 H 0.06312 0.95427 0.04959 0.0
H916 H 0.06125 0.98816 0.03374 0.0
H917 H 0.0749 0.93972 0.08795 0.0
H918 H 0.01273 0.942 0.0434 0.0
H919 H 0.97969 0.9558 0.03026 0.0
H920 H 0.9524 0.94638 0.09062 0.0
H921 H 0.98545 0.93286 0.10425 0.0
C922 C 0.04361 0.84172 0.1024 0.0
C923 C 0.03013 0.83773 0.11913 0.0
C924 C 0.04691 0.8619 0.09534 0.0
C925 C 0.03697 0.87826 0.10514 0.0
C926 C 0.02383 0.8743 0.12206 0.0
C927 C 0.02044 0.85421 0.129 0.0
C928 C 0.03921 0.89945 0.09725 0.0
C929 C 0.02076 0.9085 0.09074 0.0
C930 C 0.05905 0.91062 0.09596 0.0
C931 C 0.0791 0.9018 0.10251 0.0
C932 C 0.08214 0.89461 0.12306 0.0
C933 C 0.10107 0.8862 0.129 0.0
C934 C 0.11713 0.88506 0.11458 0.0
C935 C 0.11433 0.89237 0.0942 0.0
C936 C 0.09542 0.90076 0.08817 0.0
C937 C 0.03025 0.9961 0.07584 0.0
C938 C 0.04073 1.00007 0.05719 0.0
C939 C 0.03131 0.97679 0.08489 0.0
C940 C 0.04279 0.96142 0.07521 0.0
C941 C 0.05423 0.96596 0.05724 0.0
C942 C 0.05309 0.98517 0.04819 0.0
C943 C 0.04126 0.94001 0.08252 0.0
C944 C 0.0598 0.93086 0.08859 0.0
C945 C 0.02154 0.92853 0.08307 0.0
C946 C 0.00166 0.93668 0.07493 0.0
C947 C -0.00024 0.94307 0.05394 0.0
C948 C 0.98102 0.95081 0.04639 0.0
C949 C 0.96398 0.95204 0.05962 0.0
C950 C 0.96564 0.94548 0.08041 0.0
C951 C 0.98437 0.93778 0.08806 0.0
H952 H 0.94948 0.95801 0.05374 0.0
H953 H 0.13177 0.87855 0.11921 0.0
H954 H 0.97313 0.6932 0.09434 0.0
H955 H 0.96696 0.65589 0.09185 0.0
H956 H 0.02049 0.64992 0.13444 0.0
H957 H 0.02462 0.68756 0.14016 0.0
H958 H 0.00863 0.63426 0.07915 0.0
H959 H -0.0004 0.62808 0.15641 0.0
H960 H 0.98229 0.63768 0.18919 0.0
H961 H 0.9217 0.61833 0.15979 0.0
H962 H 0.93873 0.60908 0.12656 0.0
H963 H 0.0132 0.5282 0.06048 0.0
H964 H 0.01787 0.56218 0.07906 0.0
H965 H 0.95057 0.56161 0.08657 0.0
H966 H 0.94601 0.52697 0.06901 0.0
H967 H 0.96986 0.58052 0.11976 0.0
H968 H 0.97464 0.58611 0.0449 0.0
H969 H 0.98737 0.57897 0.00912 0.0
H970 H 0.05014 0.60157 0.0301 0.0
H971 H 0.03783 0.60861 0.06609 0.0
C972 C 0.98266 0.68437 0.10453 0.0
C973 C 0.99899 0.69386 0.11796 0.0
C974 C 0.97934 0.66281 0.10269 0.0
C975 C 0.99291 0.65025 0.11339 0.0
C976 C 0.00935 0.65941 0.12669 0.0
C977 C 0.01196 0.68099 0.12946 0.0
C978 C 0.992 0.62797 0.10748 0.0
C979 C 0.00061 0.62236 0.08822 0.0
C980 C 0.98064 0.61287 0.11895 0.0
C981 C 0.97041 0.61837 0.13887 0.0
C982 C 0.98257 0.62629 0.15678 0.0
C983 C 0.9728 0.63159 0.17548 0.0
C984 C 0.95087 0.62882 0.17655 0.0
C985 C 0.93868 0.62061 0.15891 0.0
C986 C 0.94838 0.61535 0.14013 0.0
C987 C -0.00053 0.53521 0.06643 0.0
C988 C 0.97924 0.52521 0.06317 0.0
C989 C 0.00213 0.55461 0.07696 0.0
C990 C 0.9845 0.56464 0.08368 0.0
C991 C 0.96437 0.55417 0.08144 0.0
C992 C 0.96177 0.53445 0.07138 0.0
C993 C 0.98699 0.58659 0.09152 0.0
C994 C 0.97836 0.59225 0.11088 0.0
C995 C 0.99788 0.60197 0.07983 0.0
C996 C 0.00536 0.59764 0.05824 0.0
C997 C 0.99119 0.58938 0.04192 0.0
C998 C 0.99832 0.58539 0.0216 0.0
C999 C 0.01956 0.58975 0.01736 0.0
C1000 C 0.03371 0.59816 0.03342 0.0
C1001 C 0.02666 0.60216 0.05378 0.0
H1002 H 0.02505 0.58666 0.00161 0.0
H1003 H 0.94335 0.63291 0.19107 0.0
H1004 H 0.38852 0.05125 0.16655 0.0
H1005 H 0.39972 0.05871 0.13078 0.0
H1006 H 0.35203 0.0131 0.1044 0.0
H1007 H 0.3411 0.00532 0.14007 0.0
H1008 H 0.38754 0.00878 0.08597 0.0
H1009 H 0.34728 0.06749 0.1031 0.0
H1010 H 0.33826 0.0979 0.12489 0.0
H1011 H 0.40022 0.1271 0.11753 0.0
H1012 H 0.40971 0.09675 0.09594 0.0
H1013 H 0.40829 0.02916 0.98168 0.0
H1014 H 0.38622 0.02984 0.01272 0.0
H1015 H 0.43138 0.07486 0.04438 0.0
H1016 H 0.45286 0.07469 0.01313 0.0
H1017 H 0.39391 0.08006 0.05894 0.0
H1018 H 0.43616 0.0219 0.04679 0.0
H1019 H 0.4481 0.99162 0.02678 0.0
H1020 H 0.38567 0.96151 0.02692 0.0
H1021 H 0.37328 0.9918 0.04665 0.0
C1022 C 0.38043 0.04285 0.1531 0.0
C1023 C 0.364 0.02763 0.15612 0.0
C1024 C 0.38675 0.04721 0.13265 0.0
C1025 C 0.37647 0.03673 0.11481 0.0
C1026 C 0.36018 0.02142 0.11787 0.0
C1027 C 0.35403 0.0169 0.13828 0.0
C1028 C 0.38313 0.04107 0.09299 0.0
C1029 C 0.3885 0.02433 0.07994 0.0
C1030 C 0.38503 0.06144 0.08527 0.0
C1031 C 0.37924 0.07978 0.09804 0.0
C1032 C 0.35902 0.08035 0.10623 0.0
C1033 C 0.35382 0.09758 0.11853 0.0
C1034 C 0.36867 0.1144 0.12262 0.0
C1035 C 0.38873 0.11406 0.11437 0.0
C1036 C 0.39402 0.09686 0.10208 0.0
C1037 C 0.41279 0.04003 0.99484 0.0
C1038 C 0.43206 0.05203 0.99508 0.0
C1039 C 0.40038 0.04021 0.01269 0.0
C1040 C 0.40749 0.05193 0.03115 0.0
C1041 C 0.4256 0.06561 0.03042 0.0
C1042 C 0.43782 0.06562 0.01251 0.0
C1043 C 0.39818 0.04774 0.05196 0.0
C1044 C 0.39251 0.06448 0.06487 0.0
C1045 C 0.39633 0.02741 0.05977 0.0
C1046 C 0.40374 0.00921 0.04793 0.0
C1047 C 0.42495 0.00889 0.0424 0.0
C1048 C 0.4318 0.99172 0.03113 0.0
C1049 C 0.41764 0.97468 0.02553 0.0
C1050 C 0.3966 0.97475 0.03122 0.0
C1051 C 0.38966 0.99191 0.04243 0.0
H1052 H 0.42298 0.96139 0.01682 0.0
H1053 H 0.36462 0.12772 0.13217 0.0
H1054 H 0.59879 0.47757 0.19037 0.0
H1055 H 0.59148 0.47375 0.15194 0.0
H1056 H 0.65833 0.48125 0.14149 0.0
H1057 H 0.66553 0.48523 0.17996 0.0
H1058 H 0.63604 0.50747 0.11878 0.0
H1059 H 0.63299 0.43525 0.12964 0.0
H1060 H 0.6231 0.40275 0.14724 0.0
H1061 H 0.55769 0.40949 0.13149 0.0
H1062 H 0.56713 0.44222 0.1141 0.0
H1063 H 0.60076 0.48343 0.0069 0.0
H1064 H 0.61987 0.47999 0.04098 0.0
H1065 H 0.56405 0.49372 0.07408 0.0
H1066 H 0.54508 0.49785 0.04028 0.0
H1067 H 0.58811 0.45249 0.08182 0.0
H1068 H 0.59194 0.52889 0.08072 0.0
H1069 H 0.60135 0.56187 0.06374 0.0
H1070 H 0.66582 0.54623 0.06123 0.0
H1071 H 0.65666 0.51296 0.07792 0.0
C1072 C 0.6118 0.47801 0.17975 0.0
C1073 C 0.63261 0.48165 0.18767 0.0
C1074 C 0.60771 0.47574 0.15796 0.0
C1075 C 0.62443 0.47701 0.14402 0.0
C1076 C 0.6453 0.48012 0.15207 0.0
C1077 C 0.64938 0.48237 0.17386 0.0
C1078 C 0.61976 0.47717 0.12108 0.0
C1079 C 0.62605 0.49518 0.11052 0.0
C1080 C 0.60661 0.46118 0.11047 0.0
C1081 C 0.60079 0.44128 0.12062 0.0
C1082 C 0.61648 0.42988 0.13003 0.0
C1083 C 0.61096 0.4114 0.13996 0.0
C1084 C 0.58978 0.40407 0.1405 0.0
C1085 C 0.57409 0.41518 0.13105 0.0
C1086 C 0.57953 0.43369 0.12111 0.0
C1087 C 0.59275 0.48607 0.0215 0.0
C1088 C 0.57155 0.49097 0.02111 0.0
C1089 C 0.60361 0.48403 0.04081 0.0
C1090 C 0.59317 0.48647 0.05975 0.0
C1091 C 0.57218 0.49178 0.05944 0.0
C1092 C 0.56149 0.4943 0.04021 0.0
C1093 C 0.60381 0.483 0.08008 0.0
C1094 C 0.59865 0.46439 0.09 0.0
C1095 C 0.61801 0.49836 0.09012 0.0
C1096 C 0.62356 0.51833 0.08022 0.0
C1097 C 0.60806 0.53238 0.07631 0.0
C1098 C 0.61336 0.55114 0.0668 0.0
C1099 C 0.63415 0.5561 0.06132 0.0
C1100 C 0.64971 0.54233 0.06542 0.0
C1101 C 0.64447 0.52352 0.07489 0.0
H1102 H 0.63823 0.57064 0.05396 0.0
H1103 H 0.58553 0.38977 0.14822 0.0
H1104 H 0.32186 0.00988 0.31602 0.0
H1105 H 0.33019 0.00351 0.35349 0.0
H1106 H 0.38679 0.97537 0.33559 0.0
H1107 H 0.3789 0.9824 0.29824 0.0
H1108 H 0.34363 0.95711 0.36908 0.0
H1109 H 0.41121 0.00185 0.35645 0.0
H1110 H 0.42688 0.03373 0.34114 0.0
H1111 H 0.3835 0.07012 0.37422 0.0
H1112 H 0.36741 0.03833 0.38947 0.0
H1113 H 0.41311 0.93282 0.45338 0.0
H1114 H 0.39454 0.94111 0.42054 0.0
H1115 H 0.37413 0.9967 0.45115 0.0
H1116 H 0.39255 0.98812 0.4844 0.0
H1117 H 0.39425 0.00424 0.41309 0.0
H1118 H 0.33782 0.95912 0.4362 0.0
H1119 H 0.32006 0.92741 0.44981 0.0
H1120 H 0.33941 0.89156 0.39623 0.0
H1121 H 0.35756 0.92295 0.38245 0.0
C1122 C 0.33608 0.00235 0.32017 0.0
C1123 C 0.34959 0.99631 0.30429 0.0
C1124 C 0.3408 0.99873 0.3415 0.0
C1125 C 0.35913 0.98904 0.34729 0.0
C1126 C 0.37263 0.98297 0.33145 0.0
C1127 C 0.36803 0.98681 0.31015 0.0
C1128 C 0.36413 0.98507 0.36986 0.0
C1129 C 0.35477 0.9673 0.37874 0.0
C1130 C 0.37812 0.99871 0.38256 0.0
C1131 C 0.38806 0.0178 0.37393 0.0
C1132 C 0.40498 0.01666 0.36036 0.0
C1133 C 0.41393 0.03469 0.3517 0.0
C1134 C 0.40616 0.05394 0.35667 0.0
C1135 C 0.38947 0.0552 0.37036 0.0
C1136 C 0.38044 0.03719 0.379 0.0
C1137 C 0.40402 0.94642 0.45332 0.0
C1138 C 0.40395 0.95964 0.47151 0.0
C1139 C 0.39348 0.95121 0.43451 0.0
C1140 C 0.38288 0.96952 0.43332 0.0
C1141 C 0.38213 0.98244 0.45171 0.0
C1142 C 0.39241 0.97742 0.47075 0.0
C1143 C 0.37429 0.97572 0.41236 0.0
C1144 C 0.38293 0.99403 0.40368 0.0
C1145 C 0.35965 0.96242 0.39982 0.0
C1146 C 0.34916 0.9434 0.40834 0.0
C1147 C 0.33848 0.94444 0.42743 0.0
C1148 C 0.3283 0.92653 0.43515 0.0
C1149 C 0.3286 0.9075 0.42386 0.0
C1150 C 0.33918 0.90632 0.40493 0.0
C1151 C 0.34939 0.92417 0.39715 0.0
H1152 H 0.32055 0.89368 0.42968 0.0
H1153 H 0.4131 0.06788 0.34995 0.0
H1154 H 0.65647 0.53338 0.3428 0.0
H1155 H 0.64342 0.53885 0.37848 0.0
H1156 H 0.59304 0.49143 0.36447 0.0
H1157 H 0.60615 0.48577 0.3288 0.0
H1158 H 0.58003 0.52874 0.38312 0.0
H1159 H 0.63304 0.48036 0.39238 0.0
H1160 H 0.66849 0.46736 0.39096 0.0
H1161 H 0.69323 0.5173 0.43362 0.0
H1162 H 0.65812 0.53122 0.4345 0.0
H1163 H 0.53953 0.50387 0.47953 0.0
H1164 H 0.55881 0.50086 0.44717 0.0
H1165 H 0.60492 0.54902 0.4713 0.0
H1166 H 0.58559 0.55212 0.50419 0.0
H1167 H 0.6221 0.51505 0.44831 0.0
H1168 H 0.56912 0.56337 0.43914 0.0
H1169 H 0.53339 0.5757 0.44133 0.0
H1170 H 0.50863 0.52504 0.39955 0.0
H1171 H 0.54418 0.5122 0.39738 0.0
C1172 C 0.64256 0.5242 0.34735 0.0
C1173 C 0.63226 0.50916 0.33313 0.0
C1174 C 0.63522 0.52726 0.36771 0.0
C1175 C 0.61737 0.51547 0.37407 0.0
C1176 C 0.60689 0.50064 0.3598 0.0
C1177 C 0.61441 0.49735 0.33954 0.0
C1178 C 0.60944 0.51866 0.39556 0.0
C1179 C 0.58918 0.52562 0.39736 0.0
C1180 C 0.6217 0.51516 0.41411 0.0
C1181 C 0.64297 0.50708 0.41318 0.0
C1182 C 0.64611 0.48886 0.4011 0.0
C1183 C 0.66616 0.48131 0.40039 0.0
C1184 C 0.68316 0.49161 0.41202 0.0
C1185 C 0.68012 0.50948 0.4244 0.0
C1186 C 0.66015 0.51725 0.42495 0.0
C1187 C 0.55391 0.51369 0.47815 0.0
C1188 C 0.56089 0.52846 0.49429 0.0
C1189 C 0.56489 0.51194 0.45962 0.0
C1190 C 0.583 0.52501 0.45672 0.0
C1191 C 0.59086 0.5389 0.47327 0.0
C1192 C 0.57984 0.54063 0.492 0.0
C1193 C 0.59262 0.52482 0.43577 0.0
C1194 C 0.61314 0.51846 0.43405 0.0
C1195 C 0.58067 0.52892 0.41723 0.0
C1196 C 0.5593 0.53674 0.41823 0.0
C1197 C 0.55604 0.55478 0.43054 0.0
C1198 C 0.53582 0.56187 0.43176 0.0
C1199 C 0.51874 0.55114 0.42062 0.0
C1200 C 0.52187 0.53333 0.40818 0.0
C1201 C 0.54206 0.52615 0.40693 0.0
H1202 H 0.5031 0.55665 0.42159 0.0
H1203 H 0.69864 0.48565 0.41155 0.0
H1204 H 0.18571 0.39656 0.05311 0.0
H1205 H 0.14989 0.40825 0.05554 0.0
H1206 H 0.12496 0.35289 0.01999 0.0
H1207 H 0.16069 0.34178 0.0168 0.0
H1208 H 0.10814 0.38376 0.00455 0.0
H1209 H 0.11955 0.36316 0.07703 0.0
H1210 H 0.138 0.36394 0.11217 0.0
H1211 H 0.13029 0.42933 0.12004 0.0
H1212 H 0.112 0.42899 0.08487 0.0
H1213 H 0.00244 0.40705 0.00937 0.0
H1214 H 0.03358 0.38756 0.01688 0.0
H1215 H 0.06162 0.43989 0.05523 0.0
H1216 H 0.03009 0.45852 0.04885 0.0
H1217 H 0.07595 0.40832 0.07036 0.0
H1218 H 0.06899 0.43108 0.99845 0.0
H1219 H 0.05154 0.43288 0.96306 0.0
H1220 H 0.05276 0.36673 0.95353 0.0
H1221 H 0.07001 0.36452 0.98897 0.0
C1222 C 0.1725 0.38686 0.04602 0.0
C1223 C 0.17596 0.36834 0.03466 0.0
C1224 C 0.152 0.39347 0.0475 0.0
C1225 C 0.13451 0.38137 0.03815 0.0
C1226 C 0.13806 0.36259 0.02729 0.0
C1227 C 0.1585 0.35623 0.02547 0.0
C1228 C 0.11267 0.38863 0.03841 0.0
C1229 C 0.10102 0.38876 0.01905 0.0
C1230 C 0.10344 0.39588 0.05714 0.0
C1231 C 0.11453 0.39606 0.07825 0.0
C1232 C 0.12191 0.37773 0.0862 0.0
C1233 C 0.13232 0.37809 0.10613 0.0
C1234 C 0.13534 0.39667 0.11831 0.0
C1235 C 0.12795 0.41494 0.11059 0.0
C1236 C 0.11754 0.41466 0.09068 0.0
C1237 C 0.01486 0.41386 0.02022 0.0
C1238 C 0.01385 0.43412 0.02877 0.0
C1239 C 0.03286 0.40293 0.0242 0.0
C1240 C 0.05042 0.41249 0.03604 0.0
C1241 C 0.0485 0.43209 0.04596 0.0
C1242 C 0.03039 0.44274 0.0424 0.0
C1243 C 0.07144 0.40335 0.03652 0.0
C1244 C 0.083 0.40302 0.05593 0.0
C1245 C 0.08081 0.39627 0.01778 0.0
C1246 C 0.07056 0.39761 0.99643 0.0
C1247 C 0.06544 0.41691 0.98884 0.0
C1248 C 0.05559 0.418 0.96878 0.0
C1249 C 0.05099 0.39992 0.95608 0.0
C1250 C 0.05629 0.38072 0.9634 0.0
C1251 C 0.06611 0.37954 0.98346 0.0
H1252 H 0.04337 0.4008 0.94056 0.0
H1253 H 0.14338 0.39691 0.13375 0.0
H1254 H 0.16241 0.66942 0.50984 0.0
H1255 H 0.12598 0.65676 0.49964 0.0
H1256 H 0.14772 0.59763 0.47921 0.0
H1257 H 0.18416 0.61014 0.48994 0.0
H1258 H 0.11873 0.61727 0.44946 0.0
H1259 H 0.12711 0.59809 0.5227 0.0
H1260 H 0.13604 0.60539 0.5607 0.0
H1261 H 0.08808 0.64898 0.56372 0.0
H1262 H 0.07913 0.6422 0.5256 0.0
H1263 H 0.0311 0.54347 0.4488 0.0
H1264 H 0.06502 0.56324 0.4564 0.0
H1265 H 0.03261 0.61763 0.47343 0.0
H1266 H 0.99859 0.59813 0.46536 0.0
H1267 H 0.06528 0.60516 0.50384 0.0
H1268 H 0.05385 0.62213 0.43227 0.0
H1269 H 0.04452 0.61592 0.39423 0.0
H1270 H 0.0973 0.57849 0.38754 0.0
H1271 H 0.10673 0.58412 0.42567 0.0
C1272 C 0.15926 0.65369 0.50329 0.0
C1273 C 0.17577 0.64065 0.50052 0.0
C1274 C 0.13862 0.64656 0.49742 0.0
C1275 C 0.13438 0.62638 0.48861 0.0
C1276 C 0.15088 0.61332 0.48584 0.0
C1277 C 0.17152 0.62037 0.492 0.0
C1278 C 0.1126 0.61867 0.48278 0.0
C1279 C 0.10703 0.61443 0.46129 0.0
C1280 C 0.09735 0.61584 0.4983 0.0
C1281 C 0.10263 0.61983 0.52124 0.0
C1282 C 0.11862 0.60939 0.53141 0.0
C1283 C 0.12366 0.6134 0.55298 0.0
C1284 C 0.11268 0.62769 0.5646 0.0
C1285 C 0.0966 0.63795 0.55468 0.0
C1286 C 0.09154 0.63403 0.5331 0.0
C1287 C 0.03124 0.55963 0.45415 0.0
C1288 C 0.01234 0.56931 0.45655 0.0
C1289 C 0.05053 0.57089 0.45834 0.0
C1290 C 0.05111 0.59181 0.4653 0.0
C1291 C 0.03231 0.60149 0.46796 0.0
C1292 C 0.013 0.59036 0.46335 0.0
C1293 C 0.07153 0.6032 0.47056 0.0
C1294 C 0.07686 0.60821 0.49195 0.0
C1295 C 0.08648 0.60692 0.45491 0.0
C1296 C 0.08087 0.60336 0.43194 0.0
C1297 C 0.06334 0.61237 0.42277 0.0
C1298 C 0.05805 0.609 0.40116 0.0
C1299 C 0.07028 0.59677 0.38848 0.0
C1300 C 0.08783 0.58793 0.39739 0.0
C1301 C 0.09316 0.59121 0.41901 0.0
H1302 H 0.06618 0.5942 0.37175 0.0
H1303 H 0.11659 0.63076 0.58131 0.0
H1304 H 0.81256 0.82431 0.47929 0.0
H1305 H 0.84772 0.83614 0.46814 0.0
H1306 H 0.84321 0.89456 0.50286 0.0
H1307 H 0.80722 0.88349 0.51194 0.0
H1308 H 0.86042 0.90291 0.46973 0.0
H1309 H 0.87347 0.85 0.5199 0.0
H1310 H 0.86907 0.81471 0.53359 0.0
H1311 H 0.89392 0.78935 0.47669 0.0
H1312 H 0.89813 0.82442 0.4625 0.0
H1313 H 0.9639 0.9411 0.48395 0.0
H1314 H 0.93177 0.92079 0.49239 0.0
H1315 H 0.93959 0.87859 0.43914 0.0
H1316 H 0.97237 0.8989 0.43074 0.0
H1317 H 0.92154 0.8596 0.47777 0.0
H1318 H 0.9101 0.91498 0.4297 0.0
H1319 H 0.91544 0.95121 0.41878 0.0
H1320 H 0.88828 0.97283 0.47607 0.0
H1321 H 0.88307 0.93675 0.48747 0.0
C1322 C 0.81914 0.8397 0.48442 0.0
C1323 C 0.80747 0.85278 0.49699 0.0
C1324 C 0.83935 0.84639 0.47828 0.0
C1325 C 0.84861 0.86606 0.48517 0.0
C1326 C 0.83667 0.87924 0.49743 0.0
C1327 C 0.8162 0.87282 0.50292 0.0
C1328 C 0.87042 0.87328 0.47931 0.0
C1329 C 0.87371 0.8934 0.47175 0.0
C1330 C 0.88793 0.86082 0.48129 0.0
C1331 C 0.88594 0.83981 0.49007 0.0
C1332 C 0.87792 0.83687 0.51028 0.0
C1333 C 0.87543 0.8169 0.51811 0.0
C1334 C 0.88113 0.79977 0.50597 0.0
C1335 C 0.88944 0.8026 0.48603 0.0
C1336 C 0.8919 0.82252 0.4781 0.0
C1337 C 0.95906 0.92724 0.47427 0.0
C1338 C 0.97044 0.92174 0.45649 0.0
C1339 C 0.94072 0.91562 0.47915 0.0
C1340 C 0.93309 0.89841 0.46618 0.0
C1341 C 0.94521 0.89186 0.44932 0.0
C1342 C 0.96389 0.90345 0.44453 0.0
C1343 C 0.9113 0.88925 0.46892 0.0
C1344 C 0.90808 0.86888 0.47572 0.0
C1345 C 0.89382 0.90154 0.46667 0.0
C1346 C 0.89627 0.92318 0.45946 0.0
C1347 C 0.90533 0.92747 0.43999 0.0
C1348 C 0.90834 0.94798 0.43372 0.0
C1349 C 0.90222 0.96431 0.44673 0.0
C1350 C 0.893 0.96017 0.466 0.0
C1351 C 0.88998 0.93969 0.47235 0.0
H1352 H 0.9046 0.98018 0.44187 0.0
H1353 H 0.87914 0.78432 0.51202 0.0
H1354 H 0.30916 0.61536 0.53084 0.0
H1355 H 0.34499 0.60443 0.5375 0.0
H1356 H 0.36765 0.6683 0.55135 0.0
H1357 H 0.33168 0.67917 0.54497 0.0
H1358 H 0.39219 0.64693 0.52247 0.0
H1359 H 0.36518 0.63844 0.59118 0.0
H1360 H 0.33982 0.62692 0.61766 0.0
H1361 H 0.34609 0.5632 0.59833 0.0
H1362 H 0.37123 0.57434 0.57149 0.0
H1363 H 0.49098 0.59779 0.55157 0.0
H1364 H 0.46209 0.62124 0.55527 0.0
H1365 H 0.41689 0.571 0.53435 0.0
H1366 H 0.44501 0.54797 0.53028 0.0
H1367 H 0.40825 0.59334 0.57382 0.0
H1368 H 0.4273 0.60213 0.5003 0.0
H1369 H 0.45158 0.6124 0.47238 0.0
H1370 H 0.45958 0.67439 0.5001 0.0
H1371 H 0.43555 0.66436 0.52839 0.0
C1372 C 0.32182 0.62694 0.5355 0.0
C1373 C 0.3179 0.64799 0.53756 0.0
C1374 C 0.34218 0.62075 0.53934 0.0
C1375 C 0.35888 0.63558 0.54508 0.0
C1376 C 0.35494 0.65667 0.54704 0.0
C1377 C 0.3345 0.66282 0.54348 0.0
C1378 C 0.38054 0.62892 0.54818 0.0
C1379 C 0.39592 0.63563 0.53408 0.0
C1380 C 0.38528 0.61407 0.56321 0.0
C1381 C 0.37001 0.60726 0.57922 0.0
C1382 C 0.36101 0.62198 0.59244 0.0
C1383 C 0.3467 0.61551 0.60754 0.0
C1384 C 0.34133 0.59434 0.60966 0.0
C1385 C 0.35026 0.57959 0.59667 0.0
C1386 C 0.36456 0.58598 0.58153 0.0
C1387 C 0.47486 0.59188 0.5477 0.0
C1388 C 0.47031 0.57106 0.5406 0.0
C1389 C 0.45846 0.60523 0.5498 0.0
C1390 C 0.43744 0.5977 0.54516 0.0
C1391 C 0.43301 0.57702 0.5381 0.0
C1392 C 0.4492 0.56391 0.5357 0.0
C1393 C 0.41952 0.61079 0.54766 0.0
C1394 C 0.40477 0.60523 0.56276 0.0
C1395 C 0.4153 0.62648 0.53343 0.0
C1396 C 0.42997 0.63241 0.51666 0.0
C1397 C 0.43448 0.61787 0.50061 0.0
C1398 C 0.44812 0.62366 0.48467 0.0
C1399 C 0.4572 0.64401 0.48452 0.0
C1400 C 0.4526 0.65862 0.50028 0.0
C1401 C 0.43898 0.65288 0.51628 0.0
H1402 H 0.46773 0.64848 0.47215 0.0
H1403 H 0.33026 0.58937 0.62138 0.0
H1404 H 0.57617 0.69158 0.8572 0.0
H1405 H 0.58056 0.6569 0.87052 0.0
H1406 H 0.51405 0.65016 0.88241 0.0
H1407 H 0.50994 0.68506 0.87085 0.0
H1408 H 0.53344 0.63606 0.91332 0.0
H1409 H 0.54074 0.62724 0.83661 0.0
H1410 H 0.55768 0.63278 0.80253 0.0
H1411 H 0.61582 0.61279 0.82881 0.0
H1412 H 0.59931 0.60736 0.86308 0.0
H1413 H 0.50202 0.53321 0.91634 0.0
H1414 H 0.51005 0.56543 0.89831 0.0
H1415 H 0.5765 0.56063 0.91176 0.0
H1416 H 0.56841 0.5281 0.92991 0.0
H1417 H 0.56453 0.58058 0.87072 0.0
H1418 H 0.55572 0.58609 0.94598 0.0
H1419 H 0.53779 0.57809 0.97895 0.0
H1420 H 0.48175 0.60394 0.95462 0.0
H1421 H 0.49923 0.61173 0.92133 0.0
C1422 C 0.56257 0.68285 0.86302 0.0
C1423 C 0.54263 0.69118 0.86269 0.0
C1424 C 0.56504 0.66282 0.87031 0.0
C1425 C 0.54757 0.65058 0.87712 0.0
C1426 C 0.52783 0.65911 0.87718 0.0
C1427 C 0.52543 0.67912 0.87029 0.0
C1428 C 0.54939 0.62906 0.88465 0.0
C1429 C 0.54016 0.62401 0.90383 0.0
C1430 C 0.5589 0.61327 0.87288 0.0
C1431 C 0.56887 0.61713 0.85245 0.0
C1432 C 0.5572 0.62424 0.83517 0.0
C1433 C 0.56671 0.62731 0.81581 0.0
C1434 C 0.58782 0.62317 0.81355 0.0
C1435 C 0.59949 0.61602 0.83062 0.0
C1436 C 0.59007 0.61295 0.84999 0.0
C1437 C 0.5184 0.5385 0.91458 0.0
C1438 C 0.5346 0.52813 0.92438 0.0
C1439 C 0.52297 0.55697 0.90439 0.0
C1440 C 0.54383 0.5656 0.90402 0.0
C1441 C 0.5603 0.55421 0.91186 0.0
C1442 C 0.55569 0.53553 0.92204 0.0
C1443 C 0.54765 0.58773 0.89862 0.0
C1444 C 0.55804 0.59283 0.88014 0.0
C1445 C 0.53916 0.60366 0.91093 0.0
C1446 C 0.52874 0.59935 0.93111 0.0
C1447 C 0.53952 0.58993 0.9476 0.0
C1448 C 0.52944 0.58545 0.96636 0.0
C1449 C 0.50863 0.59048 0.96887 0.0
C1450 C 0.49787 0.60005 0.95265 0.0
C1451 C 0.50786 0.60451 0.93384 0.0
H1452 H 0.50085 0.58699 0.9834 0.0
H1453 H 0.59513 0.62538 0.79855 0.0
H1454 H 0.48756 0.83564 0.83961 0.0
H1455 H 0.47974 0.87095 0.84792 0.0
H1456 H 0.54588 0.88813 0.85966 0.0
H1457 H 0.55394 0.85296 0.85181 0.0
H1458 H 0.52485 0.90357 0.89119 0.0
H1459 H 0.51787 0.90501 0.81564 0.0
H1460 H 0.50525 0.89347 0.77946 0.0
H1461 H 0.44112 0.89912 0.7967 0.0
H1462 H 0.45342 0.91096 0.83299 0.0
H1463 H 0.51415 0.01074 0.90575 0.0
H1464 H 0.5233 0.97837 0.88789 0.0
H1465 H 0.45725 0.95792 0.88088 0.0
H1466 H 0.44814 0.99048 0.89864 0.0
H1467 H 0.47892 0.94481 0.84648 0.0
H1468 H 0.48696 0.94371 0.92253 0.0
H1469 H 0.50057 0.95627 0.95814 0.0
H1470 H 0.56409 0.94964 0.93945 0.0
H1471 H 0.55087 0.93734 0.90359 0.0
C1472 C 0.50059 0.8463 0.84515 0.0
C1473 C 0.5213 0.83977 0.84806 0.0
C1474 C 0.49601 0.86701 0.84918 0.0
C1475 C 0.51211 0.88231 0.85522 0.0
C1476 C 0.53297 0.87652 0.85597 0.0
C1477 C 0.53753 0.85579 0.85197 0.0
C1478 C 0.50721 0.90408 0.86145 0.0
C1479 C 0.51512 0.91268 0.88118 0.0
C1480 C 0.49408 0.91596 0.84875 0.0
C1481 C 0.48655 0.90866 0.82707 0.0
C1482 C 0.50106 0.90364 0.81176 0.0
C1483 C 0.49397 0.89708 0.79122 0.0
C1484 C 0.47238 0.89537 0.78581 0.0
C1485 C 0.45784 0.90039 0.80091 0.0
C1486 C 0.46487 0.90713 0.82145 0.0
C1487 C 0.50158 0.9997 0.89958 0.0
C1488 C 0.48043 0.00329 0.90312 0.0
C1489 C 0.50681 0.98106 0.88964 0.0
C1490 C 0.49101 0.96546 0.88331 0.0
C1491 C 0.46975 0.96965 0.88558 0.0
C1492 C 0.46453 0.98833 0.89557 0.0
C1493 C 0.49668 0.94424 0.87612 0.0
C1494 C 0.4888 0.93571 0.85635 0.0
C1495 C 0.50995 0.93242 0.88874 0.0
C1496 C 0.51793 0.93982 0.9103 0.0
C1497 C 0.50384 0.9451 0.92595 0.0
C1498 C 0.51149 0.95215 0.94619 0.0
C1499 C 0.53319 0.95381 0.95103 0.0
C1500 C 0.54729 0.94838 0.93566 0.0
C1501 C 0.53973 0.94137 0.91538 0.0
H1502 H 0.53907 0.95925 0.96672 0.0
H1503 H 0.46693 0.89024 0.7699 0.0
H1504 H 0.52174 0.33616 0.66782 0.0
H1505 H 0.52518 0.37311 0.65974 0.0
H1506 H 0.54581 0.35699 0.59733 0.0
H1507 H 0.54162 0.3199 0.60513 0.0
H1508 H 0.56923 0.39367 0.62078 0.0
H1509 H 0.50017 0.36506 0.5968 0.0
H1510 H 0.46608 0.34512 0.60047 0.0
H1511 H 0.45122 0.38689 0.65141 0.0
H1512 H 0.48546 0.40688 0.6483 0.0
H1513 H 0.54418 0.47781 0.55883 0.0
H1514 H 0.54939 0.4447 0.57501 0.0
H1515 H 0.51791 0.46541 0.63056 0.0
H1516 H 0.51263 0.49886 0.61412 0.0
H1517 H 0.5016 0.42745 0.61408 0.0
H1518 H 0.57016 0.459 0.63389 0.0
H1519 H 0.60401 0.4786 0.62815 0.0
H1520 H 0.61978 0.43147 0.58281 0.0
H1521 H 0.58586 0.41169 0.58806 0.0
C1522 C 0.52726 0.34061 0.65249 0.0
C1523 C 0.53162 0.32541 0.63712 0.0
C1524 C 0.52927 0.3616 0.64794 0.0
C1525 C 0.53584 0.36765 0.62801 0.0
C1526 C 0.54096 0.35253 0.61287 0.0
C1527 C 0.5386 0.33146 0.61732 0.0
C1528 C 0.53544 0.38959 0.62237 0.0
C1529 C 0.5545 0.40111 0.61918 0.0
C1530 C 0.51617 0.39919 0.62067 0.0
C1531 C 0.49551 0.38729 0.62252 0.0
C1532 C 0.48975 0.36986 0.60895 0.0
C1533 C 0.47037 0.35858 0.61089 0.0
C1534 C 0.45653 0.36468 0.62622 0.0
C1535 C 0.462 0.38214 0.63959 0.0
C1536 C 0.48139 0.39346 0.63774 0.0
C1537 C 0.53877 0.47539 0.57468 0.0
C1538 C 0.52815 0.49067 0.5854 0.0
C1539 C 0.54181 0.45656 0.58393 0.0
C1540 C 0.53424 0.45271 0.60407 0.0
C1541 C 0.52399 0.46822 0.61506 0.0
C1542 C 0.52105 0.48723 0.60578 0.0
C1543 C 0.53544 0.43176 0.61252 0.0
C1544 C 0.51643 0.42026 0.61608 0.0
C1545 C 0.55478 0.42218 0.61432 0.0
C1546 C 0.57538 0.43389 0.61132 0.0
C1547 C 0.58078 0.45285 0.6226 0.0
C1548 C 0.6 0.464 0.61944 0.0
C1549 C 0.61403 0.45631 0.6051 0.0
C1550 C 0.60889 0.43741 0.59393 0.0
C1551 C 0.58968 0.4262 0.59702 0.0
H1552 H 0.6289 0.46497 0.60268 0.0
H1553 H 0.44153 0.35593 0.6277 0.0
H1554 H 0.46594 0.17968 0.6295 0.0
H1555 H 0.45649 0.1448 0.61455 0.0
H1556 H 0.51615 0.14511 0.58404 0.0
H1557 H 0.52524 0.18059 0.59791 0.0
H1558 H 0.48474 0.1277 0.55875 0.0
H1559 H 0.50866 0.1224 0.63185 0.0
H1560 H 0.508 0.13043 0.67031 0.0
H1561 H 0.44398 0.10438 0.67085 0.0
H1562 H 0.44416 0.09648 0.63232 0.0
H1563 H 0.49231 0.02222 0.53742 0.0
H1564 H 0.49937 0.05706 0.55366 0.0
H1565 H 0.43893 0.05208 0.58279 0.0
H1566 H 0.4322 0.01673 0.56733 0.0
H1567 H 0.46863 0.07195 0.609 0.0
H1568 H 0.44468 0.07686 0.5363 0.0
H1569 H 0.44522 0.06852 0.49789 0.0
H1570 H 0.50893 0.09535 0.4968 0.0
H1571 H 0.50885 0.1036 0.53526 0.0
C1572 C 0.47685 0.17258 0.61916 0.0
C1573 C 0.49641 0.18284 0.61495 0.0
C1574 C 0.47153 0.15254 0.61089 0.0
C1575 C 0.48585 0.1423 0.59865 0.0
C1576 C 0.50499 0.15276 0.59366 0.0
C1577 C 0.51023 0.17293 0.60171 0.0
C1578 C 0.48116 0.12045 0.59149 0.0
C1579 C 0.48143 0.11548 0.56974 0.0
C1580 C 0.47631 0.10468 0.60589 0.0
C1581 C 0.47637 0.10901 0.62916 0.0
C1582 C 0.49441 0.11848 0.64015 0.0
C1583 C 0.49412 0.12301 0.66196 0.0
C1584 C 0.47594 0.11796 0.673 0.0
C1585 C 0.45804 0.1083 0.66227 0.0
C1586 C 0.45823 0.10378 0.64045 0.0
C1587 C 0.48058 0.02855 0.54735 0.0
C1588 C 0.46157 0.01707 0.55085 0.0
C1589 C 0.48463 0.04838 0.55662 0.0
C1590 C 0.46942 0.05724 0.56894 0.0
C1591 C 0.45078 0.04549 0.5732 0.0
C1592 C 0.44692 0.02542 0.56429 0.0
C1593 C 0.47254 0.0792 0.5763 0.0
C1594 C 0.47188 0.0842 0.59804 0.0
C1595 C 0.47697 0.09506 0.56192 0.0
C1596 C 0.47678 0.09076 0.53866 0.0
C1597 C 0.45881 0.08094 0.52786 0.0
C1598 C 0.45904 0.07622 0.50609 0.0
C1599 C 0.47711 0.08138 0.49492 0.0
C1600 C 0.49494 0.09136 0.50547 0.0
C1601 C 0.4948 0.0961 0.52725 0.0
H1602 H 0.47727 0.07766 0.47807 0.0
H1603 H 0.47574 0.1215 0.68988 0.0
H1604 H 0.88341 0.50849 0.66321 0.0
H1605 H 0.89429 0.51413 0.62694 0.0
H1606 H 0.84441 0.55531 0.61775 0.0
H1607 H 0.83357 0.54987 0.65415 0.0
H1608 H 0.84816 0.52427 0.58356 0.0
H1609 H 0.8892 0.57809 0.62316 0.0
H1610 H 0.91251 0.59348 0.65257 0.0
H1611 H 0.96099 0.55387 0.63474 0.0
H1612 H 0.93784 0.538 0.60541 0.0
H1613 H 0.90377 0.55098 0.48607 0.0
H1614 H 0.88448 0.55548 0.51887 0.0
H1615 H 0.92317 0.51224 0.54953 0.0
H1616 H 0.9421 0.50741 0.51729 0.0
H1617 H 0.9211 0.55261 0.57127 0.0
H1618 H 0.87756 0.4947 0.53671 0.0
H1619 H 0.85433 0.47824 0.50774 0.0
H1620 H 0.81089 0.5257 0.51602 0.0
H1621 H 0.83404 0.54259 0.54489 0.0
C1622 C 0.87482 0.51876 0.65345 0.0
C1623 C 0.85779 0.52888 0.66145 0.0
C1624 C 0.88103 0.522 0.63281 0.0
C1625 C 0.87017 0.53521 0.61979 0.0
C1626 C 0.85297 0.54511 0.62761 0.0
C1627 C 0.84694 0.54212 0.64839 0.0
C1628 C 0.8771 0.53862 0.59806 0.0
C1629 C 0.86392 0.53093 0.58077 0.0
C1630 C 0.89766 0.54725 0.59455 0.0
C1631 C 0.9117 0.55676 0.61216 0.0
C1632 C 0.90476 0.57253 0.62561 0.0
C1633 C 0.91796 0.58137 0.64225 0.0
C1634 C 0.9382 0.57463 0.64555 0.0
C1635 C 0.9453 0.55907 0.63218 0.0
C1636 C 0.93215 0.55017 0.61552 0.0
C1637 C 0.90797 0.54229 0.49977 0.0
C1638 C 0.92454 0.52891 0.4991 0.0
C1639 C 0.89696 0.54488 0.51841 0.0
C1640 C 0.90258 0.53426 0.53653 0.0
C1641 C 0.91874 0.52064 0.5357 0.0
C1642 C 0.92951 0.51789 0.51719 0.0
C1643 C 0.89248 0.53756 0.5569 0.0
C1644 C 0.90511 0.54654 0.57398 0.0
C1645 C 0.87147 0.5301 0.56017 0.0
C1646 C 0.85766 0.52007 0.54274 0.0
C1647 C 0.86317 0.50176 0.53219 0.0
C1648 C 0.85 0.49231 0.51583 0.0
C1649 C 0.83119 0.50096 0.50999 0.0
C1650 C 0.8255 0.51905 0.52053 0.0
C1651 C 0.83863 0.52856 0.53689 0.0
H1652 H 0.82099 0.49362 0.49734 0.0
H1653 H 0.9484 0.5815 0.65843 0.0
H1654 H 0.13409 0.95134 0.65775 0.0
H1655 H 0.11982 0.94457 0.6215 0.0
H1656 H 0.08666 0.00059 0.62589 0.0
H1657 H 0.10048 0.00723 0.66238 0.0
H1658 H 0.06339 0.96798 0.60427 0.0
H1659 H 0.13439 0.0018 0.60582 0.0
H1660 H 0.17255 0.00449 0.61514 0.0
H1661 H 0.17948 0.94688 0.58067 0.0
H1662 H 0.14127 0.94369 0.57142 0.0
H1663 H 0.04819 0.00361 0.50406 0.0
H1664 H 0.06374 0.00138 0.53968 0.0
H1665 H 0.09097 0.94444 0.52095 0.0
H1666 H 0.07558 0.94657 0.48505 0.0
H1667 H 0.11714 0.97094 0.54916 0.0
H1668 H 0.04703 0.93925 0.54379 0.0
H1669 H 0.00899 0.93668 0.534 0.0
H1670 H 0.00025 0.98949 0.57534 0.0
H1671 H 0.03831 0.99261 0.58511 0.0
C1672 C 0.12328 0.9619 0.65121 0.0
C1673 C 0.11847 0.9799 0.66277 0.0
C1674 C 0.11531 0.95809 0.63047 0.0
C1675 C 0.10252 0.97227 0.62104 0.0
C1676 C 0.09662 0.98954 0.63297 0.0
C1677 C 0.1046 0.99338 0.6537 0.0
C1678 C 0.09658 0.97012 0.59829 0.0
C1679 C 0.0751 0.96868 0.5922 0.0
C1680 C 0.11198 0.9704 0.58265 0.0
C1681 C 0.13494 0.97237 0.58817 0.0
C1682 C 0.14402 0.98961 0.60039 0.0
C1683 C 0.16566 0.99125 0.60564 0.0
C1684 C 0.17842 0.97583 0.59856 0.0
C1685 C 0.16957 0.95878 0.58618 0.0
C1686 C 0.14793 0.95705 0.58094 0.0
C1687 C 0.05785 0.99084 0.50735 0.0
C1688 C 0.06034 0.97506 0.49192 0.0
C1689 C 0.06664 0.98956 0.5277 0.0
C1690 C 0.07795 0.97246 0.53292 0.0
C1691 C 0.08207 0.95762 0.51714 0.0
C1692 C 0.0733 0.9589 0.49668 0.0
C1693 C 0.08398 0.9695 0.55523 0.0
C1694 C 0.10543 0.96988 0.56121 0.0
C1695 C 0.06856 0.96815 0.5708 0.0
C1696 C 0.04558 0.96625 0.56507 0.0
C1697 C 0.03703 0.95042 0.55068 0.0
C1698 C 0.01546 0.94885 0.54514 0.0
C1699 C 0.00221 0.96293 0.55402 0.0
C1700 C 0.01052 0.97859 0.56847 0.0
C1701 C 0.0321 0.98026 0.57403 0.0
H1702 H 0.98551 0.96169 0.54973 0.0
H1703 H 0.19517 0.97713 0.60263 0.0
H1704 H 0.82336 0.48411 0.81662 0.0
H1705 H 0.83524 0.47578 0.85248 0.0
H1706 H 0.89373 0.51259 0.84506 0.0
H1707 H 0.88254 0.51929 0.80865 0.0
H1708 H 0.90245 0.48026 0.86329 0.0
H1709 H 0.84835 0.52866 0.8752 0.0
H1710 H 0.81223 0.54005 0.87088 0.0
H1711 H 0.78751 0.48489 0.89996 0.0
H1712 H 0.82349 0.47307 0.90423 0.0
H1713 H 0.94285 0.50742 0.9633 0.0
H1714 H 0.92159 0.51008 0.93076 0.0
H1715 H 0.87986 0.4585 0.94822 0.0
H1716 H 0.90115 0.45595 0.98141 0.0
H1717 H 0.85939 0.49218 0.92599 0.0
H1718 H 0.91539 0.44644 0.91726 0.0
H1719 H 0.95211 0.43676 0.92172 0.0
H1720 H 0.97366 0.48918 0.88644 0.0
H1721 H 0.93711 0.49936 0.88204 0.0
C1722 C 0.83875 0.49039 0.82277 0.0
C1723 C 0.85184 0.50281 0.81017 0.0
C1724 C 0.84546 0.48578 0.84332 0.0
C1725 C 0.8652 0.49397 0.85184 0.0
C1726 C 0.87837 0.50617 0.83903 0.0
C1727 C 0.87188 0.51028 0.81831 0.0
C1728 C 0.87257 0.48967 0.87387 0.0
C1729 C 0.893 0.48306 0.87693 0.0
C1730 C 0.86008 0.49249 0.8918 0.0
C1731 C 0.83856 0.49991 0.88986 0.0
C1732 C 0.8352 0.51895 0.88063 0.0
C1733 C 0.81475 0.52547 0.87817 0.0
C1734 C 0.79758 0.51317 0.88509 0.0
C1735 C 0.80083 0.49439 0.89459 0.0
C1736 C 0.82124 0.48778 0.89705 0.0
C1737 C 0.9289 0.49689 0.96048 0.0
C1738 C 0.92379 0.48132 0.97476 0.0
C1739 C 0.91676 0.49844 0.94187 0.0
C1740 C 0.89939 0.48427 0.93689 0.0
C1741 C 0.89325 0.46957 0.95178 0.0
C1742 C 0.90538 0.46814 0.97069 0.0
C1743 C 0.88945 0.48374 0.91519 0.0
C1744 C 0.86861 0.48923 0.91222 0.0
C1745 C 0.90159 0.48011 0.89726 0.0
C1746 C 0.92352 0.4737 0.8994 0.0
C1747 C 0.92797 0.45595 0.91053 0.0
C1748 C 0.94876 0.45038 0.91305 0.0
C1749 C 0.96521 0.46236 0.90439 0.0
C1750 C 0.9609 0.47991 0.89313 0.0
C1751 C 0.94015 0.48556 0.89059 0.0
H1752 H 0.98129 0.45804 0.90638 0.0
H1753 H 0.78176 0.51821 0.88311 0.0
H1754 H 0.17267 0.00724 0.82099 0.0
H1755 H 0.16131 0.014 0.85722 0.0
H1756 H 0.1014 0.03166 0.83192 0.0
H1757 H 0.11256 0.02423 0.79581 0.0
H1758 H 0.14953 0.04761 0.87886 0.0
H1759 H 0.06327 0.01675 0.86202 0.0
H1760 H 0.04252 0.99099 0.83832 0.0
H1761 H 0.09603 0.9541 0.83438 0.0
H1762 H 0.11704 0.97962 0.85808 0.0
H1763 H 0.08553 0.07557 0.96519 0.0
H1764 H 0.10352 0.07033 0.93195 0.0
H1765 H 0.09485 0.00382 0.93782 0.0
H1766 H 0.07569 0.00921 0.97024 0.0
H1767 H 0.08288 0.01166 0.90102 0.0
H1768 H 0.14575 0.03444 0.94322 0.0
H1769 H 0.16757 0.05833 0.96792 0.0
H1770 H 0.16379 0.10723 0.92399 0.0
H1771 H 0.14184 0.08366 0.89908 0.0
C1772 C 0.15711 0.01263 0.8233 0.0
C1773 C 0.14347 0.01536 0.80579 0.0
C1774 C 0.15068 0.01658 0.84392 0.0
C1775 C 0.13044 0.0232 0.84733 0.0
C1776 C 0.11697 0.0263 0.82972 0.0
C1777 C 0.12336 0.0222 0.80913 0.0
C1778 C 0.12311 0.02613 0.86926 0.0
C1779 C 0.13499 0.03973 0.88378 0.0
C1780 C 0.1043 0.01566 0.87578 0.0
C1781 C 0.09173 1.00014 0.8617 0.0
C1782 C 0.07056 0.0031 0.85615 0.0
C1783 C 0.05878 0.98857 0.84269 0.0
C1784 C 0.06796 0.97093 0.83483 0.0
C1785 C 0.08895 0.96779 0.84042 0.0
C1786 C 0.10082 0.98231 0.85382 0.0
C1787 C 0.08803 0.05989 0.95958 0.0
C1788 C 0.07955 0.04276 0.97023 0.0
C1789 C 0.09834 0.05686 0.94061 0.0
C1790 C 0.10075 0.03664 0.93232 0.0
C1791 C 0.09316 0.01956 0.94374 0.0
C1792 C 0.08241 0.02261 0.96235 0.0
C1793 C 0.10933 0.03311 0.91093 0.0
C1794 C 0.09754 0.01949 0.89633 0.0
C1795 C 0.12844 0.04326 0.90458 0.0
C1796 C 0.14204 0.05731 0.91934 0.0
C1797 C 0.14952 0.0503 0.93886 0.0
C1798 C 0.16193 0.06378 0.95289 0.0
C1799 C 0.16704 0.08429 0.94754 0.0
C1800 C 0.15984 0.09134 0.9281 0.0
C1801 C 0.14746 0.07791 0.914 0.0
H1802 H 0.17659 0.09472 0.95844 0.0
H1803 H 0.05881 0.9597 0.82443 0.0
H1804 H 0.64577 0.82734 0.52328 0.0
H1805 H 0.61022 0.83892 0.52745 0.0
H1806 H 0.63684 0.90134 0.5427 0.0
H1807 H 0.67253 0.88935 0.53961 0.0
H1808 H 0.60484 0.89448 0.56598 0.0
H1809 H 0.61441 0.88365 0.4912 0.0
H1810 H 0.6225 0.8638 0.45872 0.0
H1811 H 0.57129 0.81879 0.46911 0.0
H1812 H 0.56306 0.83825 0.5018 0.0
H1813 H 0.52198 0.9537 0.53147 0.0
H1814 H 0.55376 0.93558 0.53823 0.0
H1815 H 0.517 0.87673 0.53207 0.0
H1816 H 0.48475 0.89515 0.52523 0.0
H1817 H 0.55181 0.87823 0.50696 0.0
H1818 H 0.53973 0.89313 0.57989 0.0
H1819 H 0.53146 0.91526 0.61071 0.0
H1820 H 0.58735 0.95493 0.60233 0.0
H1821 H 0.59583 0.93324 0.57123 0.0
C1822 C 0.64396 0.84349 0.52771 0.0
C1823 C 0.66181 0.85749 0.53104 0.0
C1824 C 0.62363 0.85017 0.52994 0.0
C1825 C 0.62062 0.87118 0.53488 0.0
C1826 C 0.63858 0.88507 0.53879 0.0
C1827 C 0.65899 0.87827 0.53699 0.0
C1828 C 0.59883 0.87874 0.53542 0.0
C1829 C 0.59334 0.89102 0.55297 0.0
C1830 C 0.58342 0.8739 0.51876 0.0
C1831 C 0.58828 0.86227 0.49906 0.0
C1832 C 0.60497 0.86944 0.48663 0.0
C1833 C 0.60956 0.85827 0.46817 0.0
C1834 C 0.59746 0.84001 0.46189 0.0
C1835 C 0.58068 0.83292 0.47401 0.0
C1836 C 0.57603 0.84401 0.4925 0.0
C1837 C 0.52055 0.9369 0.53213 0.0
C1838 C 0.5009 0.92582 0.52801 0.0
C1839 C 0.53876 0.92654 0.53603 0.0
C1840 C 0.53787 0.90476 0.53584 0.0
C1841 C 0.51808 0.89356 0.53241 0.0
C1842 C 0.49965 0.90404 0.52869 0.0
C1843 C 0.55797 0.89408 0.53736 0.0
C1844 C 0.56319 0.88134 0.52013 0.0
C1845 C 0.57318 0.89872 0.55417 0.0
C1846 C 0.56837 0.91158 0.57314 0.0
C1847 C 0.55022 0.90662 0.58455 0.0
C1848 C 0.54549 0.91908 0.60208 0.0
C1849 C 0.55886 0.93648 0.60847 0.0
C1850 C 0.57702 0.94143 0.59737 0.0
C1851 C 0.58182 0.92904 0.5798 0.0
H1852 H 0.55515 0.94612 0.62203 0.0
H1853 H 0.60104 0.83138 0.4476 0.0
H1854 H 0.69561 0.12214 0.00825 0.0
H1855 H 0.65911 0.11232 0.99562 0.0
H1856 H 0.64594 0.1771 0.99631 0.0
H1857 H 0.68241 0.18682 0.00914 0.0
H1858 H 0.61397 0.15228 0.01249 0.0
H1859 H 0.65432 0.15413 0.95078 0.0
H1860 H 0.684 0.14661 0.92836 0.0
H1861 H 0.66543 0.08132 0.92825 0.0
H1862 H 0.63592 0.0884 0.95107 0.0
H1863 H 0.51673 0.11641 0.95255 0.0
H1864 H 0.55057 0.13668 0.96043 0.0
H1865 H 0.57987 0.08029 0.97484 0.0
H1866 H 0.54637 0.06014 0.96748 0.0
H1867 H 0.6023 0.10809 0.94646 0.0
H1868 H 0.56737 0.10651 0.01409 0.0
H1869 H 0.53881 0.11372 0.0381 0.0
H1870 H 0.54766 0.17888 0.02673 0.0
H1871 H 0.57611 0.17199 0.00241 0.0
C1872 C 0.68473 0.13412 0.00595 0.0
C1873 C 0.69141 0.1551 0.00962 0.0
C1874 C 0.66407 0.12861 0.99863 0.0
C1875 C 0.65004 0.14406 0.99476 0.0
C1876 C 0.6566 0.16502 -0.00085 0.0
C1877 C 0.67726 0.17053 0.00647 0.0
C1878 C 0.62861 0.13817 0.98587 0.0
C1879 C 0.61134 0.14302 0.9978 0.0
C1880 C 0.62533 0.12612 0.9667 0.0
C1881 C 0.64295 0.1218 0.95276 0.0
C1882 C 0.65665 0.13815 0.94611 0.0
C1883 C 0.67344 0.13397 0.93332 0.0
C1884 C 0.67661 0.1135 0.9269 0.0
C1885 C 0.66297 0.09717 0.93324 0.0
C1886 C 0.64619 0.10126 0.9461 0.0
C1887 C 0.53046 0.10841 0.95727 0.0
C1888 C 0.52899 0.08676 0.95946 0.0
C1889 C 0.54966 0.11996 0.96181 0.0
C1890 C 0.56754 0.10987 0.96817 0.0
C1891 C 0.56617 0.08826 0.96988 0.0
C1892 C 0.54703 0.07682 0.96576 0.0
C1893 C 0.58786 0.12153 0.97352 0.0
C1894 C 0.60492 0.11783 0.96084 0.0
C1895 C 0.59095 0.13464 0.99195 0.0
C1896 C 0.57357 0.1387 0.00616 0.0
C1897 C 0.56301 0.12233 0.01648 0.0
C1898 C 0.54691 0.12637 0.0302 0.0
C1899 C 0.54135 0.14673 0.03386 0.0
C1900 C 0.55192 0.16311 0.02382 0.0
C1901 C 0.56802 0.15915 0.01006 0.0
H1902 H 0.52891 0.14983 0.04453 0.0
H1903 H 0.68961 0.11029 0.91698 0.0
H1904 H 0.335 0.33806 0.02028 0.0
H1905 H 0.37225 0.34749 0.01348 0.0
H1906 H 0.35488 0.40575 0.98908 0.0
H1907 H 0.3178 0.39659 0.99645 0.0
H1908 H 0.38157 0.38323 0.96263 0.0
H1909 H 0.37592 0.40701 0.03539 0.0
H1910 H 0.36758 0.4027 0.07283 0.0
H1911 H 0.4138 0.35756 0.07845 0.0
H1912 H 0.42215 0.36133 0.04086 0.0
H1913 H 0.46063 0.46111 0.96959 0.0
H1914 H 0.43049 0.43777 0.97671 0.0
H1915 H 0.4714 0.38844 0.98795 0.0
H1916 H 0.50236 0.41212 0.98067 0.0
H1917 H 0.43667 0.39741 0.02018 0.0
H1918 H 0.44609 0.37979 0.94705 0.0
H1919 H 0.45417 0.38783 0.91033 0.0
H1920 H 0.40032 0.42432 0.90594 0.0
H1921 H 0.3921 0.41677 0.94284 0.0
C1922 C 0.33928 0.35289 0.01352 0.0
C1923 C 0.3237 0.36652 0.00852 0.0
C1924 C 0.36043 0.35822 0.00965 0.0
C1925 C 0.36622 0.37722 0.00065 0.0
C1926 C 0.35065 0.39091 0.99583 0.0
C1927 C 0.32956 0.3857 -3e-05 0.0
C1928 C 0.38849 0.38306 0.99624 0.0
C1929 C 0.39366 0.38618 0.97518 0.0
C1930 C 0.40431 0.38641 0.01262 0.0
C1931 C 0.39943 0.38422 0.03524 0.0
C1932 C 0.38414 0.39599 0.04454 0.0
C1933 C 0.37944 0.39369 0.0658 0.0
C1934 C 0.3901 0.37981 0.078 0.0
C1935 C 0.40552 0.36826 0.06896 0.0
C1936 C 0.41024 0.37047 0.04768 0.0
C1937 C 0.46343 0.44532 0.97356 0.0
C1938 C 0.48397 0.43849 0.97458 0.0
C1939 C 0.44609 0.432 0.97762 0.0
C1940 C 0.44874 0.41145 0.98281 0.0
C1941 C 0.46914 0.40433 0.98397 0.0
C1942 C 0.48672 0.41777 0.97967 0.0
C1943 C 0.42961 0.39792 0.98659 0.0
C1944 C 0.42484 0.39356 0.00754 0.0
C1945 C 0.41403 0.39358 0.97014 0.0
C1946 C 0.41851 0.39773 0.94774 0.0
C1947 C 0.43601 0.38959 0.93829 0.0
C1948 C 0.44062 0.39407 0.91743 0.0
C1949 C 0.42778 0.40658 0.90578 0.0
C1950 C 0.41024 0.4146 0.91497 0.0
C1951 C 0.40558 0.41019 0.93585 0.0
H1952 H 0.43141 0.41006 0.88963 0.0
H1953 H 0.38645 0.37805 0.09446 0.0
H1954 H 0.8504 0.18889 0.04791 0.0
H1955 H 0.88641 0.17726 0.05019 0.0
H1956 H 0.86199 0.1146 0.03274 0.0
H1957 H 0.82604 0.12633 0.03021 0.0
H1958 H 0.89354 0.11671 0.06557 0.0
H1959 H 0.88079 0.14251 0.99598 0.0
H1960 H 0.87111 0.16844 0.97034 0.0
H1961 H 0.92246 0.2104 0.99486 0.0
H1962 H 0.93224 0.18479 0.02091 0.0
H1963 H 0.96237 0.06596 0.00195 0.0
H1964 H 0.93498 0.08811 0.01229 0.0
H1965 H 0.98091 0.12894 0.04821 0.0
H1966 H 0.00895 0.10623 0.0383 0.0
H1967 H 0.94342 0.14373 0.01284 0.0
H1968 H 0.95883 0.11279 0.07958 0.0
H1969 H 0.96779 0.08371 0.10164 0.0
H1970 H 0.91061 0.04889 0.07953 0.0
H1971 H 0.90151 0.07763 0.057 0.0
C1972 C 0.85282 0.1726 0.0449 0.0
C1973 C 0.8357 0.1584 0.03898 0.0
C1974 C 0.87329 0.16601 0.04615 0.0
C1975 C 0.87681 0.1451 0.0416 0.0
C1976 C 0.85954 0.13077 0.03643 0.0
C1977 C 0.83911 0.13743 0.03493 0.0
C1978 C 0.89854 0.13833 0.0408 0.0
C1979 C 0.90454 0.12278 0.05422 0.0
C1980 C 0.91296 0.14645 0.02614 0.0
C1981 C 0.90703 0.16189 0.01061 0.0
C1982 C 0.88986 0.15736 0.99608 0.0
C1983 C 0.88439 0.17198 0.98143 0.0
C1984 C 0.8961 0.1911 0.98103 0.0
C1985 C 0.91335 0.19561 0.99524 0.0
C1986 C 0.91887 0.18106 0.00995 0.0
C1987 C 0.96689 0.07969 0.01193 0.0
C1988 C 0.98793 0.08428 0.01935 0.0
C1989 C 0.95112 0.09231 0.01784 0.0
C1990 C 0.95596 0.10996 0.03109 0.0
C1991 C 0.97697 0.11523 0.03802 0.0
C1992 C 0.99291 0.10231 0.03233 0.0
C1993 C 0.9384 0.12219 0.03763 0.0
C1994 C 0.93286 0.13845 0.02495 0.0
C1995 C 0.92432 0.11457 0.05279 0.0
C1996 C 0.92959 0.09731 0.06647 0.0
C1997 C 0.94828 0.09885 0.07925 0.0
C1998 C 0.95336 0.08244 0.09187 0.0
C1999 C 0.9398 0.06444 0.09195 0.0
C2000 C 0.92111 0.06284 0.07944 0.0
C2001 C 0.91597 0.0792 0.06675 0.0
H2002 H 0.94376 0.05175 0.10174 0.0
H2003 H 0.89186 0.20238 0.96967 0.0
H2004 H 0.01356 0.19508 0.25417 0.0
H2005 H 0.01298 0.1714 0.22343 0.0
H2006 H 0.06275 0.21024 0.19685 0.0
H2007 H 0.0597 0.23617 0.22545 0.0
H2008 H 0.04446 0.19724 0.16675 0.0
H2009 H 0.06588 0.15635 0.22322 0.0
H2010 H 0.06567 0.1398 0.2578 0.0
H2011 H 0.00622 0.10675 0.24018 0.0
H2012 H 0.00594 0.12328 0.2056 0.0
H2013 H 0.07593 0.11266 0.10244 0.0
H2014 H 0.07204 0.13906 0.13029 0.0
H2015 H 0.0066 0.11762 0.13496 0.0
H2016 H 0.01058 0.09065 0.10675 0.0
H2017 H 0.03193 0.12127 0.17432 0.0
H2018 H 0.02077 0.16349 0.11204 0.0
H2019 H 0.03287 0.17674 0.07809 0.0
H2020 H 0.0898 0.20421 0.10936 0.0
H2021 H 0.07823 0.19085 0.14342 0.0
C2022 C 0.0241 0.19873 0.24154 0.0
C2023 C 0.0366 0.21761 0.24226 0.0
C2024 C 0.02423 0.18479 0.22409 0.0
C2025 C 0.03836 0.18826 0.20773 0.0
C2026 C 0.05149 0.20687 0.20892 0.0
C2027 C 0.05013 0.22161 0.22559 0.0
C2028 C 0.03883 0.17304 0.18911 0.0
C2029 C 0.04205 0.18065 0.16876 0.0
C2030 C 0.03575 0.15114 0.19107 0.0
C2031 C 0.0358 0.14123 0.2119 0.0
C2032 C 0.05269 0.14566 0.22678 0.0
C2033 C 0.05267 0.13626 0.24637 0.0
C2034 C 0.03591 0.12227 0.2512 0.0
C2035 C 0.01917 0.11761 0.23643 0.0
C2036 C 0.0191 0.12697 0.21683 0.0
C2037 C 0.0606 0.11371 0.10923 0.0
C2038 C 0.04354 0.09961 0.10258 0.0
C2039 C 0.0584 0.12888 0.12507 0.0
C2040 C 0.03901 0.13046 0.13458 0.0
C2041 C 0.02169 0.11669 0.1277 0.0
C2042 C 0.02389 0.10139 0.11161 0.0
C2043 C 0.03754 0.14567 0.15262 0.0
C2044 C 0.03422 0.13796 0.17275 0.0
C2045 C 0.04228 0.16726 0.1507 0.0
C2046 C 0.04861 0.17612 0.1303 0.0
C2047 C 0.03587 0.17234 0.11168 0.0
C2048 C 0.04266 0.17985 0.09241 0.0
C2049 C 0.06209 0.19129 0.09157 0.0
C2050 C 0.07474 0.19536 0.11003 0.0
C2051 C 0.06805 0.18786 0.12933 0.0
H2052 H 0.06736 0.197 0.07662 0.0
H2053 H 0.03593 0.11501 0.26637 0.0
H2054 H 0.04752 0.31849 0.21934 0.0
H2055 H 0.04302 0.34016 0.18867 0.0
H2056 H 0.99922 0.37555 0.223 0.0
H2057 H 0.00339 0.35373 0.25343 0.0
H2058 H 0.98306 0.36352 0.18534 0.0
H2059 H 0.05132 0.39412 0.21248 0.0
H2060 H 0.08909 0.39403 0.22294 0.0
H2061 H 0.1026 0.37223 0.16015 0.0
H2062 H 0.06484 0.37186 0.14942 0.0
H2063 H 0.96846 0.4525 0.13376 0.0
H2064 H 0.98549 0.43086 0.15909 0.0
H2065 H 0.01285 0.39731 0.10789 0.0
H2066 H 0.99578 0.41912 0.08218 0.0
H2067 H 0.03909 0.40411 0.14881 0.0
H2068 H 0.97167 0.37547 0.12098 0.0
H2069 H 0.93417 0.37659 0.10987 0.0
H2070 H 0.91939 0.39442 0.1735 0.0
H2071 H 0.95688 0.39374 0.18492 0.0
C2072 C 0.03722 0.33114 0.22042 0.0
C2073 C 0.02573 0.33441 0.23872 0.0
C2074 C 0.03467 0.34351 0.2029 0.0
C2075 C 0.02083 0.35954 0.20353 0.0
C2076 C 0.0099 0.3632 0.22209 0.0
C2077 C 0.01227 0.35074 0.23947 0.0
C2078 C 0.01649 0.37176 0.18458 0.0
C2079 C 0.99536 0.37249 0.17751 0.0
C2080 C 0.03258 0.38272 0.17365 0.0
C2081 C 0.05521 0.3827 0.18023 0.0
C2082 C 0.0623 0.38908 0.20098 0.0
C2083 C 0.08372 0.38915 0.20694 0.0
C2084 C 0.09822 0.38305 0.19225 0.0
C2085 C 0.09135 0.37689 0.17154 0.0
C2086 C 0.06994 0.37674 0.16551 0.0
C2087 C 0.97862 0.44096 0.12787 0.0
C2088 C 0.98054 0.43728 0.10599 0.0
C2089 C 0.98831 0.42859 0.14237 0.0
C2090 C 3e-05 0.41227 0.13528 0.0
C2091 C 0.00377 0.40982 0.1136 0.0
C2092 C 0.99406 0.42231 0.09897 0.0
C2093 C 0.00573 0.39646 0.15043 0.0
C2094 C 0.02695 0.3949 0.15659 0.0
C2095 C 0.98978 0.38456 0.16052 0.0
C2096 C 0.96714 0.38473 0.15377 0.0
C2097 C 0.96046 0.37979 0.13257 0.0
C2098 C 0.93919 0.38032 0.12622 0.0
C2099 C 0.92441 0.38562 0.14096 0.0
C2100 C 0.93086 0.39034 0.16209 0.0
C2101 C 0.95212 0.38986 0.16852 0.0
H2102 H 0.90796 0.38604 0.13602 0.0
H2103 H 0.1148 0.38315 0.19689 0.0
H2104 H 0.02653 0.82699 0.19913 0.0
H2105 H 0.02678 0.85546 0.2262 0.0
H2106 H 0.02978 0.81094 0.27535 0.0
H2107 H 0.02954 0.78259 0.24829 0.0
H2108 H 0.99609 0.83642 0.27793 0.0
H2109 H 0.07148 0.84303 0.26691 0.0
H2110 H 0.10312 0.84903 0.24592 0.0
H2111 H 0.08343 0.90892 0.22964 0.0
H2112 H 0.05149 0.90314 0.25027 0.0
H2113 H 0.01736 0.88974 0.3751 0.0
H2114 H 0.01321 0.86861 0.34234 0.0
H2115 H 0.02648 0.92337 0.30638 0.0
H2116 H 0.03258 0.94421 0.33971 0.0
H2117 H 0.0484 0.89639 0.29245 0.0
H2118 H 0.97497 0.89225 0.30582 0.0
H2119 H 0.943 0.88711 0.32649 0.0
H2120 H 0.95699 0.82407 0.3369 0.0
H2121 H 0.98918 0.82889 0.31656 0.0
C2122 C 0.02786 0.82351 0.21576 0.0
C2123 C 0.02821 0.80286 0.22188 0.0
C2124 C 0.02795 0.83966 0.23113 0.0
C2125 C 0.02828 0.83522 0.2527 0.0
C2126 C 0.02952 0.81461 0.25875 0.0
C2127 C 0.02953 0.79851 0.2434 0.0
C2128 C 0.02544 0.85166 0.26902 0.0
C2129 C 0.00755 0.84952 0.28128 0.0
C2130 C 0.03986 0.86921 0.2725 0.0
C2131 C 0.05893 0.87251 0.25987 0.0
C2132 C 0.07376 0.85736 0.25863 0.0
C2133 C 0.09178 0.86075 0.24686 0.0
C2134 C 0.09524 0.8793 0.23638 0.0
C2135 C 0.08071 0.89453 0.23771 0.0
C2136 C 0.06264 0.8912 0.24943 0.0
C2137 C 0.0187 0.8973 0.36012 0.0
C2138 C 0.02485 0.91852 0.35968 0.0
C2139 C 0.01619 0.88526 0.34134 0.0
C2140 C 0.01901 0.89438 0.32169 0.0
C2141 C 0.0241 0.91595 0.32128 0.0
C2142 C 0.02736 0.9279 0.34022 0.0
C2143 C 0.01924 0.88095 0.30207 0.0
C2144 C 0.03659 0.88363 0.28901 0.0
C2145 C 0.00409 0.86401 0.29762 0.0
C2146 C 0.98457 0.86099 0.3097 0.0
C2147 C 0.97129 0.87733 0.3126 0.0
C2148 C 0.95312 0.87446 0.32426 0.0
C2149 C 0.94798 0.85529 0.33302 0.0
C2150 C 0.96097 0.83891 0.33009 0.0
C2151 C 0.97916 0.84169 0.31846 0.0
H2152 H 0.93392 0.85311 0.34207 0.0
H2153 H 0.10922 0.88191 0.2273 0.0
H2154 H 0.96962 0.66774 0.21341 0.0
H2155 H 0.96516 0.64473 0.24294 0.0
H2156 H 0.02813 0.66402 0.26713 0.0
H2157 H 0.03266 0.68736 0.23785 0.0
H2158 H 0.01953 0.62206 0.2701 0.0
H2159 H 0.98822 0.68433 0.2894 0.0
H2160 H 0.96548 0.71353 0.28591 0.0
H2161 H 0.91041 0.67082 0.28198 0.0
H2162 H 0.93286 0.64131 0.28508 0.0
H2163 H 0.99506 0.59647 0.37981 0.0
H2164 H 0.0083 0.61075 0.34687 0.0
H2165 H 0.95089 0.58675 0.31324 0.0
H2166 H 0.9378 0.57248 0.34595 0.0
H2167 H 0.95906 0.63154 0.31607 0.0
H2168 H 0.99269 0.56896 0.29732 0.0
H2169 H 0.01693 0.54137 0.30332 0.0
H2170 H 0.06946 0.58709 0.30962 0.0
H2171 H 0.04547 0.61499 0.30393 0.0
C2172 C 0.98254 0.66716 0.225 0.0
C2173 C 0.00149 0.6795 0.22321 0.0
C2174 C 0.97999 0.65392 0.24184 0.0
C2175 C 0.99626 0.65281 0.25733 0.0
C2176 C 0.01541 0.66458 0.2553 0.0
C2177 C 0.01798 0.67786 0.23846 0.0
C2178 C 0.99287 0.64002 0.27609 0.0
C2179 C 0.00644 0.62425 0.2803 0.0
C2180 C 0.97582 0.64291 0.2894 0.0
C2181 C 0.96225 0.66058 0.2872 0.0
C2182 C 0.97128 0.68114 0.28754 0.0
C2183 C 0.95844 0.69775 0.28568 0.0
C2184 C 0.93652 0.69403 0.28366 0.0
C2185 C 0.9274 0.67367 0.2835 0.0
C2186 C 0.94017 0.657 0.28531 0.0
C2187 C 0.98588 0.59327 0.3651 0.0
C2188 C 0.96559 0.58317 0.3652 0.0
C2189 C 0.99333 0.60157 0.34637 0.0
C2190 C 0.98046 0.59991 0.32771 0.0
C2191 C 0.96104 0.58816 0.32748 0.0
C2192 C 0.95366 0.57985 0.34609 0.0
C2193 C 0.98529 0.61319 0.30968 0.0
C2194 C 0.97209 0.62927 0.30579 0.0
C2195 C 0.00285 0.61079 0.29699 0.0
C2196 C 0.01726 0.59407 0.30045 0.0
C2197 C 0.00938 0.57314 0.30021 0.0
C2198 C 0.02308 0.55744 0.30349 0.0
C2199 C 0.04472 0.56247 0.30691 0.0
C2200 C 0.0527 0.58322 0.307 0.0
C2201 C 0.03906 0.59898 0.30373 0.0
H2202 H 0.0553 0.55029 0.30944 0.0
H2203 H 0.9266 0.70691 0.28227 0.0
H2204 H 0.23082 0.0124 0.20242 0.0
H2205 H 0.20363 0.01664 0.17448 0.0
H2206 H 0.25172 0.04098 0.1338 0.0
H2207 H 0.27877 0.03703 0.16191 0.0
H2208 H 0.21686 0.06359 0.1332 0.0
H2209 H 0.2306 0.99017 0.12867 0.0
H2210 H 0.2327 0.95588 0.14429 0.0
H2211 H 0.16707 0.95483 0.15842 0.0
H2212 H 0.16468 0.98928 0.14324 0.0
H2213 H 0.15023 0.07094 0.04658 0.0
H2214 H 0.1803 0.05699 0.06522 0.0
H2215 H 0.13727 0.02071 0.10293 0.0
H2216 H 0.10747 0.03313 0.0829 0.0
H2217 H 0.17098 0.00302 0.104 0.0
H2218 H 0.15554 0.07386 0.11609 0.0
H2219 H 0.14951 0.10961 0.1061 0.0
H2220 H 0.2128 0.11747 0.0847 0.0
H2221 H 0.21911 0.08162 0.0943 0.0
C2222 C 0.23542 0.01881 0.18753 0.0
C2223 C 0.25669 0.02448 0.18415 0.0
C2224 C 0.21999 0.02108 0.17157 0.0
C2225 C 0.2257 0.0288 0.15191 0.0
C2226 C 0.24697 0.03491 0.14879 0.0
C2227 C 0.26237 0.0327 0.16478 0.0
C2228 C 0.20956 0.03062 0.13457 0.0
C2229 C 0.20709 0.05028 0.12654 0.0
C2230 C 0.19619 0.01341 0.12652 0.0
C2231 C 0.1975 0.99236 0.13492 0.0
C2232 C 0.21664 0.98265 0.13516 0.0
C2233 C 0.21788 0.96319 0.14396 0.0
C2234 C 0.20004 0.95319 0.15236 0.0
C2235 C 0.18088 0.96259 0.15191 0.0
C2236 C 0.17957 0.98207 0.1432 0.0
C2237 C 0.14733 0.05897 0.0579 0.0
C2238 C 0.12666 0.05295 0.06327 0.0
C2239 C 0.16447 0.05131 0.06889 0.0
C2240 C 0.16109 0.03858 0.08624 0.0
C2241 C 0.14042 0.0307 0.08984 0.0
C2242 C 0.12333 0.03769 0.07826 0.0
C2243 C 0.17835 0.03603 0.1024 0.0
C2244 C 0.18096 0.01629 0.11037 0.0
C2245 C 0.19129 0.05334 0.11111 0.0
C2246 C 0.18772 0.07501 0.10569 0.0
C2247 C 0.16814 0.0832 0.10918 0.0
C2248 C 0.16467 0.10346 0.10358 0.0
C2249 C 0.18074 0.11578 0.09472 0.0
C2250 C 0.20036 0.10789 0.09152 0.0
C2251 C 0.20389 0.0876 0.09704 0.0
H2252 H 0.17802 0.13147 0.09037 0.0
H2253 H 0.20104 0.93815 0.1592 0.0
H2254 H 0.75279 0.52474 0.17927 0.0
H2255 H 0.7808 0.52399 0.15404 0.0
H2256 H 0.7685 0.45779 0.14431 0.0
H2257 H 0.73928 0.45839 0.16828 0.0
H2258 H 0.81398 0.4749 0.15426 0.0
H2259 H 0.75428 0.47784 0.10681 0.0
H2260 H 0.7211 0.49097 0.09317 0.0
H2261 H 0.75315 0.55073 0.08471 0.0
H2262 H 0.78649 0.53801 0.09867 0.0
H2263 H 0.86011 0.45441 0.05316 0.0
H2264 H 0.82902 0.46533 0.07103 0.0
H2265 H 0.86791 0.51249 0.10714 0.0
H2266 H 0.89918 0.50131 0.08944 0.0
H2267 H 0.80901 0.50593 0.08361 0.0
H2268 H 0.86723 0.49902 0.14417 0.0
H2269 H 0.89845 0.48056 0.15492 0.0
H2270 H 0.86598 0.42225 0.13432 0.0
H2271 H 0.83475 0.44049 0.12312 0.0
C2272 C 0.75552 0.51001 0.17147 0.0
C2273 C 0.74339 0.49163 0.17594 0.0
C2274 C 0.77179 0.50963 0.15718 0.0
C2275 C 0.7767 0.49086 0.14734 0.0
C2276 C 0.76498 0.47244 0.15185 0.0
C2277 C 0.74833 0.47284 0.16575 0.0
C2278 C 0.79423 0.49055 0.13248 0.0
C2279 C 0.81292 0.48186 0.13892 0.0
C2280 C 0.79276 0.49928 0.11231 0.0
C2281 C 0.77279 0.50708 0.10408 0.0
C2282 C 0.75419 0.49387 0.10231 0.0
C2283 C 0.73537 0.50121 0.09446 0.0
C2284 C 0.735 0.5217 0.08815 0.0
C2285 C 0.75346 0.53487 0.08965 0.0
C2286 C 0.77232 0.52761 0.09753 0.0
C2287 C 0.86181 0.46794 0.06395 0.0
C2288 C 0.88198 0.47719 0.06973 0.0
C2289 C 0.84407 0.47401 0.07435 0.0
C2290 C 0.84625 0.48938 0.09073 0.0
C2291 C 0.86596 0.5004 0.0947 0.0
C2292 C 0.88376 0.49429 0.08429 0.0
C2293 C 0.82902 0.4911 0.10579 0.0
C2294 C 0.81025 0.49962 0.09925 0.0
C2295 C 0.83023 0.48196 0.12578 0.0
C2296 C 0.84885 0.47108 0.13265 0.0
C2297 C 0.86685 0.48228 0.14186 0.0
C2298 C 0.88453 0.47187 0.148 0.0
C2299 C 0.88422 0.45025 0.14524 0.0
C2300 C 0.86623 0.439 0.13636 0.0
C2301 C 0.84857 0.44936 0.13007 0.0
H2302 H 0.8979 0.44221 0.15004 0.0
H2303 H 0.72042 0.52735 0.08204 0.0
H2304 H 0.23164 0.0305 0.29689 0.0
H2305 H 0.20086 0.02646 0.31862 0.0
H2306 H 0.21283 0.9624 0.3277 0.0
H2307 H 0.24439 0.96648 0.30686 0.0
H2308 H 0.1702 0.96879 0.31558 0.0
H2309 H 0.22362 0.99203 0.36699 0.0
H2310 H 0.25351 0.01386 0.38374 0.0
H2311 H 0.21557 0.06635 0.38572 0.0
H2312 H 0.1855 0.04489 0.36865 0.0
H2313 H 0.11989 0.95095 0.41397 0.0
H2314 H 0.14753 0.95915 0.38948 0.0
H2315 H 0.11197 0.00764 0.36404 0.0
H2316 H 0.08331 0.99881 0.38811 0.0
H2317 H 0.16437 0.0106 0.38243 0.0
H2318 H 0.10884 0.98168 0.33176 0.0
H2319 H 0.08088 0.95533 0.31885 0.0
H2320 H 0.12549 0.90836 0.31916 0.0
H2321 H 0.1536 0.93432 0.33269 0.0
C2322 C 0.22807 0.01564 0.30382 0.0
C2323 C 0.24064 0.99884 0.30016 0.0
C2324 C 0.21033 0.01333 0.31607 0.0
C2325 C 0.20463 0.99415 0.32466 0.0
C2326 C 0.21696 0.97729 0.32101 0.0
C2327 C 0.23493 0.97966 0.30903 0.0
C2328 C 0.18577 0.99182 0.33751 0.0
C2329 C 0.16888 0.9779 0.3302 0.0
C2330 C 0.18419 0.00377 0.35653 0.0
C2331 C 0.2024 0.01693 0.36621 0.0
C2332 C 0.22173 0.00831 0.37069 0.0
C2333 C 0.23868 0.02059 0.38033 0.0
C2334 C 0.23647 0.0415 0.38571 0.0
C2335 C 0.21728 0.05017 0.38147 0.0
C2336 C 0.20028 0.03795 0.37181 0.0
C2337 C 0.11794 0.96359 0.40343 0.0
C2338 C 0.09944 0.97439 0.40307 0.0
C2339 C 0.13369 0.96806 0.38929 0.0
C2340 C 0.13151 0.98368 0.37483 0.0
C2341 C 0.11362 0.99526 0.37496 0.0
C2342 C 0.09743 0.99037 0.38879 0.0
C2343 C 0.14861 0.98799 0.36025 0.0
C2344 C 0.16543 0.00198 0.36745 0.0
C2345 C 0.1503 0.97566 0.34146 0.0
C2346 C 0.13328 0.95994 0.33364 0.0
C2347 C 0.11262 0.96568 0.32949 0.0
C2348 C 0.09675 0.95081 0.32196 0.0
C2349 C 0.10138 0.93017 0.31827 0.0
C2350 C 0.1219 0.92435 0.3221 0.0
C2351 C 0.1378 0.93913 0.32973 0.0
H2352 H 0.08909 0.9187 0.31236 0.0
H2353 H 0.24959 0.05098 0.39323 0.0
H2354 H 0.71487 0.49601 0.32614 0.0
H2355 H 0.74362 0.49532 0.35289 0.0
H2356 H 0.78466 0.53109 0.31256 0.0
H2357 H 0.75704 0.52877 0.28478 0.0
H2358 H 0.80441 0.50272 0.3239 0.0
H2359 H 0.76132 0.54877 0.36328 0.0
H2360 H 0.73005 0.55956 0.38164 0.0
H2361 H 0.73343 0.50815 0.42257 0.0
H2362 H 0.76452 0.49687 0.40418 0.0
H2363 H 0.86902 0.56992 0.39145 0.0
H2364 H 0.83604 0.55402 0.37555 0.0
H2365 H 0.85068 0.4945 0.3988 0.0
H2366 H 0.88427 0.51024 0.4146 0.0
H2367 H 0.80287 0.52083 0.40075 0.0
H2368 H 0.85574 0.48444 0.35943 0.0
H2369 H 0.88945 0.48559 0.34117 0.0
H2370 H 0.86868 0.53405 0.30237 0.0
H2371 H 0.83508 0.53347 0.32068 0.0
C2372 C 0.73006 0.50386 0.32325 0.0
C2373 C 0.7339 0.51244 0.30353 0.0
C2374 C 0.74642 0.50361 0.33856 0.0
C2375 C 0.76642 0.51304 0.33476 0.0
C2376 C 0.76952 0.52327 0.31573 0.0
C2377 C 0.75363 0.52239 0.3 0.0
C2378 C 0.78474 0.51127 0.34956 0.0
C2379 C 0.80391 0.50665 0.34072 0.0
C2380 C 0.78414 0.51554 0.37169 0.0
C2381 C 0.76497 0.52178 0.38212 0.0
C2382 C 0.75519 0.53961 0.37599 0.0
C2383 C 0.73754 0.54583 0.38643 0.0
C2384 C 0.72969 0.53449 0.40317 0.0
C2385 C 0.73945 0.51686 0.40951 0.0
C2386 C 0.75706 0.51052 0.39907 0.0
C2387 C 0.86518 0.55351 0.39345 0.0
C2388 C 0.8792 0.54125 0.40412 0.0
C2389 C 0.84639 0.54449 0.38437 0.0
C2390 C 0.84126 0.5232 0.38603 0.0
C2391 C 0.85466 0.51098 0.39741 0.0
C2392 C 0.87372 0.51996 0.40633 0.0
C2393 C 0.82227 0.51411 0.37456 0.0
C2394 C 0.80295 0.51622 0.38404 0.0
C2395 C 0.82283 0.50897 0.35273 0.0
C2396 C 0.84296 0.50899 0.34155 0.0
C2397 C 0.85845 0.49546 0.34715 0.0
C2398 C 0.87753 0.496 0.33676 0.0
C2399 C 0.88122 0.50991 0.32065 0.0
C2400 C 0.86582 0.52329 0.31485 0.0
C2401 C 0.84677 0.52285 0.32523 0.0
H2402 H 0.89599 0.51029 0.31263 0.0
H2403 H 0.71613 0.53947 0.41131 0.0
H2404 H 0.18139 0.2889 0.03403 0.0
H2405 H 0.15229 0.26167 0.03375 0.0
H2406 H 0.19722 0.21466 0.02938 0.0
H2407 H 0.22621 0.24191 0.02964 0.0
H2408 H 0.16598 0.21062 0.99784 0.0
H2409 H 0.17222 0.22186 0.07345 0.0
H2410 H 0.17269 0.2416 0.10766 0.0
H2411 H 0.10894 0.25703 0.09497 0.0
H2412 H 0.10821 0.23776 0.06045 0.0
H2413 H 0.10742 0.11715 0.01398 0.0
H2414 H 0.1305 0.1481 0.01037 0.0
H2415 H 0.08071 0.18623 0.02969 0.0
H2416 H 0.05845 0.1546 0.03595 0.0
H2417 H 0.1122 0.19779 0.05154 0.0
H2418 H 0.1058 0.18428 0.97559 0.0
H2419 H 0.10585 0.16216 0.94285 0.0
H2420 H 0.1702 0.14946 0.95686 0.0
H2421 H 0.17051 0.17134 0.98974 0.0
C2422 C 0.18491 0.2727 0.03351 0.0
C2423 C 0.20576 0.26722 0.03191 0.0
C2424 C 0.1684 0.25724 0.03334 0.0
C2425 C 0.17268 0.23622 0.0315 0.0
C2426 C 0.19367 0.23082 0.03076 0.0
C2427 C 0.21015 0.24627 0.03101 0.0
C2428 C 0.15529 0.2199 0.02848 0.0
C2429 C 0.1542 0.20769 0.00958 0.0
C2430 C 0.13967 0.21665 0.04356 0.0
C2431 C 0.14029 0.22864 0.06416 0.0
C2432 C 0.1584 0.22973 0.07778 0.0
C2433 C 0.15869 0.24078 0.09728 0.0
C2434 C 0.14089 0.25065 0.10344 0.0
C2435 C 0.12275 0.24946 0.09014 0.0
C2436 C 0.1224 0.23849 0.07059 0.0
C2437 C 0.10113 0.13219 0.01655 0.0
C2438 C 0.08115 0.13369 0.02482 0.0
C2439 C 0.11433 0.15 0.01436 0.0
C2440 C 0.10734 0.16974 0.01926 0.0
C2441 C 0.08651 0.17123 0.02575 0.0
C2442 C 0.07366 0.15326 0.02901 0.0
C2443 C 0.12269 0.18825 0.02074 0.0
C2444 C 0.12353 0.20093 0.03943 0.0
C2445 C 0.13811 0.19195 0.00542 0.0
C2446 C 0.13815 0.17947 0.98515 0.0
C2447 C 0.11996 0.17679 0.97167 0.0
C2448 C 0.11993 0.16427 0.9531 0.0
C2449 C 0.13802 0.15441 0.94778 0.0
C2450 C 0.15622 0.15714 0.96097 0.0
C2451 C 0.15636 0.16967 0.97953 0.0
H2452 H 0.13792 0.14464 0.93346 0.0
H2453 H 0.14113 0.25915 0.11857 0.0
H2454 H 0.13791 0.73415 0.50738 0.0
H2455 H 0.11326 0.76108 0.50032 0.0
H2456 H 0.16527 0.80297 0.48352 0.0
H2457 H 0.1898 0.77607 0.49012 0.0
H2458 H 0.1365 0.82082 0.51188 0.0
H2459 H 0.13707 0.78151 0.44549 0.0
H2460 H 0.13299 0.74971 0.42239 0.0
H2461 H 0.0682 0.74008 0.43886 0.0
H2462 H 0.072 0.7717 0.46234 0.0
H2463 H 0.10265 0.8989 0.44957 0.0
H2464 H 0.11728 0.8698 0.46648 0.0
H2465 H 0.05517 0.83818 0.46674 0.0
H2466 H 0.0403 0.8677 0.44886 0.0
H2467 H 0.08344 0.81266 0.45193 0.0
H2468 H 0.08242 0.85704 0.51385 0.0
H2469 H 0.08785 0.88986 0.53528 0.0
H2470 H 0.15459 0.89083 0.52666 0.0
H2471 H 0.14956 0.85821 0.50488 0.0
C2472 C 0.14402 0.74914 0.50224 0.0
C2473 C 0.16573 0.75302 0.49921 0.0
C2474 C 0.12996 0.76446 0.49816 0.0
C2475 C 0.13743 0.78402 0.49137 0.0
C2476 C 0.15916 0.78801 0.48876 0.0
C2477 C 0.17313 0.77261 0.49243 0.0
C2478 C 0.12274 0.80035 0.48666 0.0
C2479 C 0.12488 0.81909 0.49879 0.0
C2480 C 0.1072 0.79783 0.46994 0.0
C2481 C 0.10491 0.77878 0.45593 0.0
C2482 C 0.12202 0.77248 0.44439 0.0
C2483 C 0.11975 0.75452 0.43118 0.0
C2484 C 0.10037 0.74283 0.42922 0.0
C2485 C 0.08322 0.74911 0.44044 0.0
C2486 C 0.08542 0.76705 0.4537 0.0
C2487 C 0.09195 0.88593 0.45356 0.0
C2488 C 0.07031 0.88559 0.44792 0.0
C2489 C 0.10036 0.86929 0.46341 0.0
C2490 C 0.08737 0.85181 0.46829 0.0
C2491 C 0.06551 0.85158 0.46331 0.0
C2492 C 0.05697 0.86848 0.45329 0.0
C2493 C 0.09739 0.83346 0.47693 0.0
C2494 C 0.09454 0.8143 0.46546 0.0
C2495 C 0.1124 0.83565 0.49424 0.0
C2496 C 0.11557 0.85516 0.50765 0.0
C2497 C 0.09825 0.86429 0.51643 0.0
C2498 C 0.10126 0.88287 0.52865 0.0
C2499 C 0.12155 0.89243 0.53232 0.0
C2500 C 0.13888 0.8834 0.52382 0.0
C2501 C 0.13596 0.86484 0.51156 0.0
H2502 H 0.12383 0.90683 0.54176 0.0
H2503 H 0.09863 0.72894 0.41897 0.0
H2504 H 0.83625 0.75989 0.5161 0.0
H2505 H 0.85958 0.73162 0.51018 0.0
H2506 H 0.80696 0.69259 0.48269 0.0
H2507 H 0.78366 0.72081 0.48841 0.0
H2508 H 0.83265 0.67154 0.51099 0.0
H2509 H 0.83966 0.71457 0.45093 0.0
H2510 H 0.84652 0.74746 0.43293 0.0
H2511 H 0.90934 0.75416 0.46099 0.0
H2512 H 0.90272 0.7215 0.47951 0.0
H2513 H 0.88911 0.59316 0.45945 0.0
H2514 H 0.86574 0.61943 0.47117 0.0
H2515 H 0.91962 0.66346 0.48313 0.0
H2516 H 0.94276 0.63757 0.46988 0.0
H2517 H 0.89269 0.68219 0.46375 0.0
H2518 H 0.88611 0.63839 0.52362 0.0
H2519 H 0.87903 0.60535 0.54135 0.0
H2520 H 0.81575 0.59993 0.51442 0.0
H2521 H 0.82254 0.63277 0.49626 0.0
C2522 C 0.82965 0.74523 0.50894 0.0
C2523 C 0.80813 0.74261 0.50264 0.0
C2524 C 0.84299 0.7291 0.5055 0.0
C2525 C 0.83505 0.70996 0.49593 0.0
C2526 C 0.81346 0.70717 0.49012 0.0
C2527 C 0.8002 0.72337 0.49326 0.0
C2528 C 0.84933 0.69308 0.4913 0.0
C2529 C 0.84573 0.67377 0.50057 0.0
C2530 C 0.86657 0.69607 0.47796 0.0
C2531 C 0.87061 0.7157 0.4668 0.0
C2532 C 0.85487 0.72316 0.45344 0.0
C2533 C 0.85872 0.74175 0.44312 0.0
C2534 C 0.87833 0.75293 0.44586 0.0
C2535 C 0.89415 0.74551 0.4589 0.0
C2536 C 0.89035 0.72696 0.46933 0.0
C2537 C 0.89601 0.60827 0.46514 0.0
C2538 C 0.91783 0.61322 0.46395 0.0
C2539 C 0.88259 0.62338 0.47189 0.0
C2540 C 0.89075 0.6436 0.47837 0.0
C2541 C 0.91274 0.64812 0.47818 0.0
C2542 C 0.92605 0.63323 0.47083 0.0
C2543 C 0.87646 0.66047 0.4838 0.0
C2544 C 0.87988 0.67985 0.47448 0.0
C2545 C 0.85913 0.65753 0.49721 0.0
C2546 C 0.8549 0.63796 0.50843 0.0
C2547 C 0.87072 0.6301 0.52139 0.0
C2548 C 0.86676 0.6114 0.53152 0.0
C2549 C 0.84697 0.60052 0.52897 0.0
C2550 C 0.83108 0.60836 0.51636 0.0
C2551 C 0.83496 0.62702 0.50616 0.0
H2552 H 0.84396 0.58603 0.53679 0.0
H2553 H 0.88129 0.76732 0.43786 0.0
H2554 H 0.31613 0.71969 0.52521 0.0
H2555 H 0.3461 0.74558 0.52242 0.0
H2556 H 0.30615 0.79424 0.54032 0.0
H2557 H 0.27623 0.76867 0.54205 0.0
H2558 H 0.3222 0.79918 0.50173 0.0
H2559 H 0.34691 0.78105 0.57228 0.0
H2560 H 0.36022 0.75735 0.59858 0.0
H2561 H 0.41274 0.74611 0.55994 0.0
H2562 H 0.39956 0.76956 0.53326 0.0
H2563 H 0.36348 0.88966 0.54883 0.0
H2564 H 0.34925 0.85491 0.53797 0.0
H2565 H 0.40803 0.84222 0.50972 0.0
H2566 H 0.42267 0.87754 0.52077 0.0
H2567 H 0.39166 0.81249 0.53997 0.0
H2568 H 0.36751 0.84394 0.47635 0.0
H2569 H 0.35189 0.872 0.45691 0.0
H2570 H 0.29445 0.86207 0.48992 0.0
H2571 H 0.30974 0.83428 0.50974 0.0
C2572 C 0.31412 0.73589 0.52923 0.0
C2573 C 0.29407 0.7424 0.53381 0.0
C2574 C 0.33114 0.75059 0.52758 0.0
C2575 C 0.32815 0.77177 0.53081 0.0
C2576 C 0.30862 0.77793 0.53751 0.0
C2577 C 0.29162 0.76337 0.53877 0.0
C2578 C 0.34403 0.78796 0.52477 0.0
C2579 C 0.33749 0.80206 0.50995 0.0
C2580 C 0.36433 0.79102 0.53473 0.0
C2581 C 0.37205 0.77673 0.55061 0.0
C2582 C 0.36114 0.77331 0.56927 0.0
C2583 C 0.36871 0.75998 0.58428 0.0
C2584 C 0.38726 0.75015 0.58088 0.0
C2585 C 0.39833 0.75367 0.56251 0.0
C2586 C 0.39082 0.76697 0.54744 0.0
C2587 C 0.37338 0.87962 0.54012 0.0
C2588 C 0.39422 0.88617 0.53577 0.0
C2589 C 0.36516 0.85983 0.53376 0.0
C2590 C 0.37754 0.84619 0.52285 0.0
C2591 C 0.39825 0.85271 0.51798 0.0
C2592 C 0.40651 0.87279 0.52422 0.0
C2593 C 0.36881 0.82467 0.51857 0.0
C2594 C 0.3768 0.80923 0.53103 0.0
C2595 C 0.34932 0.82072 0.50714 0.0
C2596 C 0.3398 0.8369 0.49446 0.0
C2597 C 0.35155 0.84772 0.47943 0.0
C2598 C 0.34275 0.86362 0.46838 0.0
C2599 C 0.3222 0.86879 0.47221 0.0
C2600 C 0.31034 0.858 0.48694 0.0
C2601 C 0.31905 0.84214 0.49803 0.0
H2602 H 0.31545 0.88123 0.46387 0.0
H2603 H 0.39311 0.73986 0.59253 0.0
H2604 H 0.52571 0.69787 0.77234 0.0
H2605 H 0.52517 0.67086 0.74392 0.0
H2606 H 0.546 0.71706 0.70014 0.0
H2607 H 0.54617 0.74415 0.72865 0.0
H2608 H 0.51452 0.69335 0.68251 0.0
H2609 H 0.57912 0.68103 0.71674 0.0
H2610 H 0.60487 0.67509 0.74563 0.0
H2611 H 0.56933 0.61864 0.75987 0.0
H2612 H 0.54317 0.62434 0.73116 0.0
H2613 H 0.53018 0.61656 0.60115 0.0
H2614 H 0.53132 0.64534 0.62713 0.0
H2615 H 0.51681 0.60233 0.6762 0.0
H2616 H 0.51824 0.57323 0.65032 0.0
H2617 H 0.54721 0.62633 0.68986 0.0
H2618 H 0.48118 0.64265 0.65246 0.0
H2619 H 0.46056 0.65017 0.62007 0.0
H2620 H 0.50489 0.70145 0.6086 0.0
H2621 H 0.52582 0.69415 0.64079 0.0
C2622 C 0.53035 0.70213 0.75666 0.0
C2623 C 0.53595 0.72296 0.75253 0.0
C2624 C 0.53014 0.68673 0.74046 0.0
C2625 C 0.53566 0.69187 0.71986 0.0
C2626 C 0.54164 0.71271 0.71586 0.0
C2627 C 0.54183 0.72814 0.7321 0.0
C2628 C 0.53415 0.67559 0.70239 0.0
C2629 C 0.52182 0.67875 0.68404 0.0
C2630 C 0.54371 0.65656 0.70427 0.0
C2631 C 0.55907 0.65322 0.72191 0.0
C2632 C 0.57665 0.66746 0.72617 0.0
C2633 C 0.59136 0.66411 0.74247 0.0
C2634 C 0.58873 0.64652 0.75457 0.0
C2635 C 0.57134 0.63226 0.75046 0.0
C2636 C 0.55658 0.63553 0.73415 0.0
C2637 C 0.5265 0.61328 0.61734 0.0
C2638 C 0.52377 0.59266 0.62367 0.0
C2639 C 0.52708 0.62986 0.63229 0.0
C2640 C 0.52376 0.62627 0.65379 0.0
C2641 C 0.51946 0.60564 0.65979 0.0
C2642 C 0.51987 0.58899 0.64496 0.0
C2643 C 0.52671 0.64361 0.67029 0.0
C2644 C 0.53959 0.64076 0.68842 0.0
C2645 C 0.51808 0.66313 0.66794 0.0
C2646 C 0.50505 0.66782 0.64899 0.0
C2647 C 0.48649 0.65553 0.64302 0.0
C2648 C 0.47477 0.65975 0.62469 0.0
C2649 C 0.48141 0.67627 0.61229 0.0
C2650 C 0.49974 0.68868 0.61823 0.0
C2651 C 0.5115 0.68455 0.63654 0.0
H2652 H 0.47234 0.67947 0.59808 0.0
H2653 H 0.60025 0.64393 0.76705 0.0
H2654 H 0.53483 0.81485 0.72075 0.0
H2655 H 0.52661 0.83433 0.68928 0.0
H2656 H 0.50043 0.88121 0.72906 0.0
H2657 H 0.50742 0.86093 0.76021 0.0
H2658 H 0.47479 0.87127 0.69785 0.0
H2659 H 0.55124 0.88655 0.7027 0.0
H2660 H 0.58819 0.87703 0.70349 0.0
H2661 H 0.57757 0.84506 0.64273 0.0
H2662 H 0.54051 0.85417 0.64171 0.0
H2663 H 0.45793 0.94906 0.63055 0.0
H2664 H 0.47763 0.93138 0.65754 0.0
H2665 H 0.49316 0.88544 0.6103 0.0
H2666 H 0.47398 0.9037 0.58299 0.0
H2667 H 0.52435 0.89206 0.64233 0.0
H2668 H 0.44978 0.87667 0.63606 0.0
H2669 H 0.41228 0.88421 0.63392 0.0
H2670 H 0.41843 0.91364 0.69618 0.0
H2671 H 0.45608 0.90662 0.69854 0.0
C2672 C 0.5276 0.82949 0.72267 0.0
C2673 C 0.52186 0.83662 0.74277 0.0
C2674 C 0.52301 0.84067 0.70474 0.0
C2675 C 0.51319 0.85946 0.70676 0.0
C2676 C 0.50803 0.86679 0.72704 0.0
C2677 C 0.51211 0.85534 0.74484 0.0
C2678 C 0.50681 0.87084 0.68782 0.0
C2679 C 0.48579 0.87611 0.68596 0.0
C2680 C 0.52078 0.8762 0.67159 0.0
C2681 C 0.54308 0.87087 0.67224 0.0
C2682 C 0.55677 0.87738 0.68958 0.0
C2683 C 0.57773 0.87207 0.69006 0.0
C2684 C 0.58521 0.8604 0.6732 0.0
C2685 C 0.57176 0.85407 0.65579 0.0
C2686 C 0.55079 0.85931 0.65525 0.0
C2687 C 0.46641 0.93576 0.62579 0.0
C2688 C 0.46457 0.92767 0.60484 0.0
C2689 C 0.47746 0.92556 0.64121 0.0
C2690 C 0.48627 0.90679 0.63599 0.0
C2691 C 0.4863 0.89982 0.61464 0.0
C2692 C 0.4755 0.9103 0.59906 0.0
C2693 C 0.49276 0.89332 0.65314 0.0
C2694 C 0.51353 0.88736 0.65442 0.0
C2695 C 0.47851 0.88705 0.66877 0.0
C2696 C 0.45583 0.8913 0.66738 0.0
C2697 C 0.4432 0.88492 0.64922 0.0
C2698 C 0.4219 0.88908 0.64797 0.0
C2699 C 0.41299 0.89945 0.66488 0.0
C2700 C 0.42536 0.90565 0.68308 0.0
C2701 C 0.44668 0.90158 0.68438 0.0
H2702 H 0.39649 0.90263 0.66389 0.0
H2703 H 0.60144 0.85631 0.6736 0.0
H2704 H 0.51736 0.35641 0.72242 0.0
H2705 H 0.51842 0.3829 0.75143 0.0
H2706 H 0.55739 0.34538 0.78955 0.0
H2707 H 0.55641 0.31892 0.76064 0.0
H2708 H 0.5196 0.35601 0.80808 0.0
H2709 H 0.57905 0.38743 0.77344 0.0
H2710 H 0.59843 0.40289 0.74414 0.0
H2711 H 0.55494 0.45078 0.74067 0.0
H2712 H 0.5351 0.43541 0.76977 0.0
H2713 H 0.57589 0.41908 0.8874 0.0
H2714 H 0.56628 0.40055 0.85377 0.0
H2715 H 0.51088 0.43508 0.84702 0.0
H2716 H 0.52009 0.45343 0.8815 0.0
H2717 H 0.54916 0.42932 0.81071 0.0
H2718 H 0.49192 0.39804 0.84946 0.0
H2719 H 0.47534 0.38188 0.87996 0.0
H2720 H 0.51759 0.33287 0.87679 0.0
H2721 H 0.53466 0.34893 0.84639 0.0
C2722 C 0.52646 0.35408 0.73688 0.0
C2723 C 0.5367 0.33569 0.73949 0.0
C2724 C 0.5271 0.36917 0.75333 0.0
C2725 C 0.53785 0.36589 0.77254 0.0
C2726 C 0.54897 0.34803 0.77476 0.0
C2727 C 0.54853 0.33306 0.75827 0.0
C2728 C 0.53597 0.38007 0.79101 0.0
C2729 C 0.52602 0.37206 0.80868 0.0
C2730 C 0.5438 0.40111 0.79137 0.0
C2731 C 0.55537 0.41006 0.77353 0.0
C2732 C 0.57343 0.40108 0.76622 0.0
C2733 C 0.58455 0.40987 0.74971 0.0
C2734 C 0.57786 0.42775 0.74048 0.0
C2735 C 0.56006 0.43689 0.74778 0.0
C2736 C 0.54886 0.42814 0.76428 0.0
C2737 C 0.56175 0.42291 0.87871 0.0
C2738 C 0.54883 0.43783 0.88681 0.0
C2739 C 0.55622 0.41219 0.85964 0.0
C2740 C 0.53788 0.41645 0.84819 0.0
C2741 C 0.52501 0.43159 0.85591 0.0
C2742 C 0.5303 0.44204 0.87541 0.0
C2743 C 0.53311 0.40515 0.82784 0.0
C2744 C 0.54203 0.41351 0.80981 0.0
C2745 C 0.52456 0.38434 0.8272 0.0
C2746 C 0.51477 0.37489 0.84584 0.0
C2747 C 0.49791 0.38401 0.85548 0.0
C2748 C 0.48836 0.37481 0.8727 0.0
C2749 C 0.49547 0.35642 0.88041 0.0
C2750 C 0.51214 0.34716 0.87086 0.0
C2751 C 0.52174 0.3563 0.85361 0.0
H2752 H 0.48801 0.3493 0.89372 0.0
H2753 H 0.58653 0.43457 0.72773 0.0
H2754 H 0.53047 0.23183 0.7551 0.0
H2755 H 0.52795 0.20758 0.78411 0.0
H2756 H 0.48829 0.16435 0.74382 0.0
H2757 H 0.49141 0.18831 0.71456 0.0
H2758 H 0.4727 0.17191 0.78505 0.0
H2759 H 0.53439 0.15216 0.75197 0.0
H2760 H 0.56921 0.1578 0.73644 0.0
H2761 H 0.59612 0.18082 0.7969 0.0
H2762 H 0.5613 0.17569 0.81274 0.0
H2763 H 0.47097 0.08285 0.84174 0.0
H2764 H 0.48575 0.10418 0.81406 0.0
H2765 H 0.51052 0.15018 0.86148 0.0
H2766 H 0.49555 0.12869 0.88945 0.0
H2767 H 0.53529 0.14118 0.81723 0.0
H2768 H 0.47025 0.16302 0.8485 0.0
H2769 H 0.43492 0.15483 0.86221 0.0
H2770 H 0.41425 0.12508 0.80231 0.0
H2771 H 0.44962 0.13279 0.78839 0.0
C2772 C 0.52126 0.21712 0.75251 0.0
C2773 C 0.51104 0.21191 0.73273 0.0
C2774 C 0.51987 0.20329 0.76901 0.0
C2775 C 0.50799 0.18416 0.76608 0.0
C2776 C 0.49752 0.17905 0.7464 0.0
C2777 C 0.49924 0.19272 0.72976 0.0
C2778 C 0.50627 0.16963 0.78371 0.0
C2779 C 0.48639 0.16516 0.79198 0.0
C2780 C 0.52414 0.16086 0.79282 0.0
C2781 C 0.54518 0.16377 0.78349 0.0
C2782 C 0.54768 0.15862 0.76192 0.0
C2783 C 0.56742 0.16169 0.75306 0.0
C2784 C 0.58485 0.16973 0.76566 0.0
C2785 C 0.58258 0.17464 0.78716 0.0
C2786 C 0.56284 0.17164 0.79609 0.0
C2787 C 0.48046 0.09703 0.84635 0.0
C2788 C 0.48227 0.10409 0.86768 0.0
C2789 C 0.48885 0.10922 0.83052 0.0
C2790 C 0.49911 0.12878 0.83571 0.0
C2791 C 0.50282 0.13501 0.85719 0.0
C2792 C 0.49436 0.12272 0.87316 0.0
C2793 C 0.50182 0.14391 0.81873 0.0
C2794 C 0.52175 0.14827 0.81045 0.0
C2795 C 0.48398 0.15249 0.80938 0.0
C2796 C 0.46259 0.1483 0.8175 0.0
C2797 C 0.4582 0.15459 0.83832 0.0
C2798 C 0.43818 0.15006 0.84612 0.0
C2799 C 0.42236 0.13939 0.83316 0.0
C2800 C 0.42653 0.13331 0.81234 0.0
C2801 C 0.44655 0.13778 0.80449 0.0
H2802 H 0.40687 0.13588 0.83922 0.0
H2803 H 0.60013 0.17209 0.75878 0.0
H2804 H 0.72835 0.50158 0.70887 0.0
H2805 H 0.69965 0.50406 0.68204 0.0
H2806 H 0.74135 0.5423 0.64494 0.0
H2807 H 0.77026 0.5392 0.67134 0.0
H2808 H 0.69874 0.55738 0.65482 0.0
H2809 H 0.73298 0.49775 0.62717 0.0
H2810 H 0.74681 0.46325 0.63065 0.0
H2811 H 0.68488 0.43713 0.64379 0.0
H2812 H 0.67075 0.4716 0.64081 0.0
H2813 H 0.63332 0.57103 0.57055 0.0
H2814 H 0.66554 0.55812 0.5858 0.0
H2815 H 0.62855 0.50851 0.61386 0.0
H2816 H 0.59633 0.52092 0.59773 0.0
H2817 H 0.66905 0.49783 0.60824 0.0
H2818 H 0.63449 0.55342 0.63995 0.0
H2819 H 0.61766 0.58671 0.64104 0.0
H2820 H 0.67623 0.619 0.62593 0.0
H2821 H 0.69333 0.5858 0.62439 0.0
C2822 C 0.73131 0.51042 0.69491 0.0
C2823 C 0.75136 0.52026 0.69207 0.0
C2824 C 0.71502 0.51179 0.67966 0.0
C2825 C 0.71851 0.52326 0.66154 0.0
C2826 C 0.73845 0.53335 0.65883 0.0
C2827 C 0.75485 0.53164 0.67387 0.0
C2828 C 0.70118 0.52522 0.64565 0.0
C2829 C 0.69251 0.54449 0.64435 0.0
C2830 C 0.6925 0.5081 0.63275 0.0
C2831 C 0.70086 0.4873 0.634 0.0
C2832 C 0.72234 0.48469 0.63099 0.0
C2833 C 0.73023 0.46513 0.63284 0.0
C2834 C 0.71675 0.44802 0.6375 0.0
C2835 C 0.69532 0.45041 0.64022 0.0
C2836 C 0.68736 0.46995 0.63844 0.0
C2837 C 0.63225 0.55663 0.57887 0.0
C2838 C 0.6125 0.54693 0.58304 0.0
C2839 C 0.65061 0.54937 0.58776 0.0
C2840 C 0.64931 0.53279 0.60153 0.0
C2841 C 0.62986 0.52141 0.6034 0.0
C2842 C 0.61147 0.52844 0.59409 0.0
C2843 C 0.66702 0.53021 0.61694 0.0
C2844 C 0.67553 0.51081 0.61844 0.0
C2845 C 0.67519 0.54706 0.6306 0.0
C2846 C 0.66511 0.56711 0.6318 0.0
C2847 C 0.64374 0.56761 0.63671 0.0
C2848 C 0.63416 0.58645 0.63743 0.0
C2849 C 0.64586 0.60495 0.63349 0.0
C2850 C 0.66718 0.60464 0.62892 0.0
C2851 C 0.67683 0.58582 0.62813 0.0
H2852 H 0.63841 0.61953 0.63404 0.0
H2853 H 0.72289 0.43289 0.63896 0.0
H2854 H 0.25516 0.97191 0.70753 0.0
H2855 H 0.28258 0.96748 0.682 0.0
H2856 H 0.24596 0.99804 0.63512 0.0
H2857 H 0.21741 1.0002 0.65999 0.0
H2858 H 0.26584 0.97167 0.61511 0.0
H2859 H 0.28996 0.0234 0.67003 0.0
H2860 H 0.29747 0.03585 0.70716 0.0
H2861 H 0.34076 0.98837 0.71564 0.0
H2862 H 0.33335 0.9755 0.67865 0.0
H2863 H 0.36222 0.98845 0.55532 0.0
H2864 H 0.32893 0.9928 0.57358 0.0
H2865 H 0.35385 0.96205 0.62759 0.0
H2866 H 0.3867 0.95913 0.61056 0.0
H2867 H 0.33857 0.99393 0.64165 0.0
H2868 H 0.31289 0.94039 0.58809 0.0
H2869 H 0.30461 0.92667 0.5515 0.0
H2870 H 0.26472 0.97656 0.54064 0.0
H2871 H 0.27296 0.9907 0.57709 0.0
C2872 C 0.25281 0.9773 0.69163 0.0
C2873 C 0.23429 0.9867 0.68588 0.0
C2874 C 0.26866 0.97508 0.67709 0.0
C2875 C 0.26695 0.98328 0.65678 0.0
C2876 C 0.24798 0.99184 0.6507 0.0
C2877 C 0.23172 0.99325 0.66499 0.0
C2878 C 0.28515 0.98358 0.64229 0.0
C2879 C 0.28172 0.97675 0.62089 0.0
C2880 C 0.30601 0.99018 0.64958 0.0
C2881 C 0.31104 0.99845 0.67159 0.0
C2882 C 0.30109 0.01563 0.67981 0.0
C2883 C 0.30531 0.02274 0.70085 0.0
C2884 C 0.31957 0.0129 0.71375 0.0
C2885 C 0.32973 0.99599 0.70562 0.0
C2886 C 0.32556 0.98881 0.68462 0.0
C2887 C 0.36042 0.9826 0.57104 0.0
C2888 C 0.37729 0.97355 0.58138 0.0
C2889 C 0.34135 0.98498 0.58147 0.0
C2890 C 0.33872 0.97781 0.60215 0.0
C2891 C 0.35533 0.96805 0.61188 0.0
C2892 C 0.37427 0.96626 0.6019 0.0
C2893 C 0.31953 0.981 0.61472 0.0
C2894 C 0.32271 0.98885 0.63578 0.0
C2895 C 0.29859 0.97523 0.6071 0.0
C2896 C 0.29377 0.96675 0.5852 0.0
C2897 C 0.3025 0.94853 0.57783 0.0
C2898 C 0.29778 0.94065 0.55713 0.0
C2899 C 0.28421 0.95078 0.54373 0.0
C2900 C 0.27528 0.96876 0.55101 0.0
C2901 C 0.27996 0.97671 0.57169 0.0
H2902 H 0.28058 0.94466 0.52771 0.0
H2903 H 0.32276 0.01838 0.73004 0.0
H2904 H 0.72037 0.51814 0.79176 0.0
H2905 H 0.69232 0.51695 0.81731 0.0
H2906 H 0.73106 0.48303 0.8595 0.0
H2907 H 0.75878 0.48346 0.8334 0.0
H2908 H 0.69127 0.4681 0.85958 0.0
H2909 H 0.72696 0.53699 0.86564 0.0
H2910 H 0.74044 0.57052 0.85208 0.0
H2911 H 0.6776 0.58316 0.83156 0.0
H2912 H 0.66379 0.54959 0.84477 0.0
H2913 H 0.64099 0.486 0.95419 0.0
H2914 H 0.66825 0.49105 0.92835 0.0
H2915 H 0.62302 0.51472 0.88456 0.0
H2916 H 0.59543 0.50936 0.91014 0.0
H2917 H 0.66486 0.53502 0.88462 0.0
H2918 H 0.62888 0.46723 0.87876 0.0
H2919 H 0.61464 0.43359 0.89134 0.0
H2920 H 0.67715 0.41853 0.9103 0.0
H2921 H 0.69175 0.4523 0.89822 0.0
C2922 C 0.72268 0.51024 0.80641 0.0
C2923 C 0.74157 0.50093 0.81081 0.0
C2924 C 0.70679 0.50968 0.82103 0.0
C2925 C 0.70981 0.50034 0.84052 0.0
C2926 C 0.72845 0.4904 0.84459 0.0
C2927 C 0.74422 0.49062 0.82976 0.0
C2928 C 0.69377 0.50136 0.85686 0.0
C2929 C 0.68574 0.48276 0.86528 0.0
C2930 C 0.68608 0.52046 0.86381 0.0
C2931 C 0.69437 0.54072 0.85606 0.0
C2932 C 0.71604 0.54688 0.85814 0.0
C2933 C 0.72374 0.56589 0.85052 0.0
C2934 C 0.70989 0.57895 0.84093 0.0
C2935 C 0.68831 0.57303 0.83898 0.0
C2936 C 0.68054 0.55403 0.84655 0.0
C2937 C 0.63692 0.49292 0.93936 0.0
C2938 C 0.61595 0.49701 0.93411 0.0
C2939 C 0.65251 0.49564 0.92457 0.0
C2940 C 0.64744 0.50277 0.90446 0.0
C2941 C 0.62712 0.50902 0.89999 0.0
C2942 C 0.61142 0.50608 0.9147 0.0
C2943 C 0.66277 0.50186 0.88755 0.0
C2944 C 0.67053 0.52041 0.87897 0.0
C2945 C 0.67015 0.48272 0.88038 0.0
C2946 C 0.66139 0.46245 0.88785 0.0
C2947 C 0.63958 0.45688 0.88586 0.0
C2948 C 0.63144 0.43775 0.89285 0.0
C2949 C 0.64497 0.42396 0.90168 0.0
C2950 C 0.66668 0.42925 0.90351 0.0
C2951 C 0.67489 0.44839 0.8966 0.0
H2952 H 0.63864 0.40914 0.90705 0.0
H2953 H 0.71588 0.59366 0.83504 0.0
H2954 H 0.26969 0.03348 0.79916 0.0
H2955 H 0.29553 0.03682 0.82904 0.0
H2956 H 0.25121 0.00399 0.86812 0.0
H2957 H 0.22535 1.00017 0.83801 0.0
H2958 H 0.28932 0.05133 0.87799 0.0
H2959 H 0.27212 0.97278 0.87006 0.0
H2960 H 0.26329 0.94233 0.84567 0.0
H2961 H 0.31683 0.95943 0.80893 0.0
H2962 H 0.32566 0.9902 0.83287 0.0
H2963 H 0.38718 0.0456 0.93586 0.0
H2964 H 0.34961 0.03586 0.92809 0.0
H2965 H 0.36397 0.01555 0.86465 0.0
H2966 H 0.4012 0.02466 0.8724 0.0
H2967 H 0.3338 0.99112 0.87821 0.0
H2968 H 0.35147 0.06589 0.87756 0.0
H2969 H 0.36344 0.10045 0.89344 0.0
H2970 H 0.31386 0.09569 0.93772 0.0
H2971 H 0.30184 0.06097 0.92231 0.0
C2972 C 0.26536 0.02732 0.81423 0.0
C2973 C 0.24574 0.0164 0.81636 0.0
C2974 C 0.28003 0.02928 0.83124 0.0
C2975 C 0.27516 0.02057 0.8506 0.0
C2976 C 0.25516 0.01068 0.85318 0.0
C2977 C 0.24054 0.00844 0.83605 0.0
C2978 C 0.29215 0.01975 0.86689 0.0
C2979 C 0.29874 0.03796 0.87879 0.0
C2980 C 0.30459 0.00249 0.86719 0.0
C2981 C 0.29941 0.98382 0.85311 0.0
C2982 C 0.28188 0.97011 0.85668 0.0
C2983 C 0.27689 0.9528 0.84295 0.0
C2984 C 0.28947 0.94897 0.82574 0.0
C2985 C 0.30708 0.96242 0.82223 0.0
C2986 C 0.31206 0.97979 0.83586 0.0
C2987 C 0.38233 0.03844 0.9205 0.0
C2988 C 0.39702 0.0361 0.90461 0.0
C2989 C 0.36089 0.03304 0.91606 0.0
C2990 C 0.35401 0.02529 0.89572 0.0
C2991 C 0.36892 0.02148 0.88048 0.0
C2992 C 0.39022 0.02676 0.8849 0.0
C2993 C 0.33142 0.0229 0.88912 0.0
C2994 C 0.32384 0.00411 0.87874 0.0
C2995 C 0.31851 0.03996 0.88959 0.0
C2996 C 0.326 0.06068 0.89906 0.0
C2997 C 0.34329 0.07212 0.89085 0.0
C2998 C 0.35005 0.09176 0.89973 0.0
C2999 C 0.33951 0.10022 0.91668 0.0
C3000 C 0.32212 0.08908 0.9247 0.0
C3001 C 0.31533 0.06941 0.91591 0.0
H3002 H 0.34474 0.11543 0.92353 0.0
H3003 H 0.2856 0.93555 0.81515 0.0
H3004 H 0.70857 0.73107 0.5346 0.0
H3005 H 0.67933 0.70464 0.53839 0.0
H3006 H 0.6348 0.75195 0.53406 0.0
H3007 H 0.66411 0.7784 0.53031 0.0
H3008 H 0.6266 0.71957 0.56596 0.0
H3009 H 0.64206 0.72671 0.49049 0.0
H3010 H 0.66755 0.72746 0.46194 0.0
H3011 H 0.68486 0.66645 0.47708 0.0
H3012 H 0.65951 0.66536 0.50573 0.0
H3013 H 0.54198 0.64461 0.55559 0.0
H3014 H 0.56326 0.67604 0.54669 0.0
H3015 H 0.61158 0.63772 0.52414 0.0
H3016 H 0.58929 0.60669 0.53076 0.0
H3017 H 0.61587 0.66897 0.50467 0.0
H3018 H 0.60785 0.65953 0.57941 0.0
H3019 H 0.58776 0.65529 0.61184 0.0
H3020 H 0.56344 0.71512 0.60433 0.0
H3021 H 0.58322 0.71961 0.5717 0.0
C3022 C 0.69254 0.73576 0.53487 0.0
C3023 C 0.68835 0.75653 0.53215 0.0
C3024 C 0.67592 0.72076 0.537 0.0
C3025 C 0.65497 0.72641 0.53633 0.0
C3026 C 0.65088 0.74737 0.53466 0.0
C3027 C 0.66751 0.76237 0.53247 0.0
C3028 C 0.63734 0.71018 0.53541 0.0
C3029 C 0.62396 0.70863 0.55249 0.0
C3030 C 0.63446 0.69562 0.51811 0.0
C3031 C 0.64891 0.69596 0.50022 0.0
C3032 C 0.65128 0.71345 0.48769 0.0
C3033 C 0.66571 0.71394 0.47151 0.0
C3034 C 0.67784 0.69703 0.46773 0.0
C3035 C 0.67545 0.67953 0.48 0.0
C3036 C 0.661 0.67893 0.49615 0.0
C3037 C 0.55665 0.64308 0.54767 0.0
C3038 C 0.564 0.62342 0.54357 0.0
C3039 C 0.56905 0.66099 0.54302 0.0
C3040 C 0.58951 0.65938 0.53559 0.0
C3041 C 0.59597 0.63958 0.52994 0.0
C3042 C 0.58317 0.62177 0.53363 0.0
C3043 C 0.60505 0.67778 0.53553 0.0
C3044 C 0.61813 0.67991 0.51817 0.0
C3045 C 0.60829 0.69222 0.55312 0.0
C3046 C 0.59681 0.6898 0.573 0.0
C3047 C 0.59817 0.67175 0.58466 0.0
C3048 C 0.58684 0.6693 0.60306 0.0
C3049 C 0.57428 0.6849 0.6101 0.0
C3050 C 0.57314 0.70304 0.59883 0.0
C3051 C 0.58442 0.70555 0.58039 0.0
H3052 H 0.56546 0.68295 0.62431 0.0
H3053 H 0.68908 0.69749 0.45527 0.0
H3054 H 0.6989 0.27958 0.986 0.0
H3055 H 0.67477 0.30682 0.9812 0.0
H3056 H 0.63675 0.28249 0.03096 0.0
H3057 H 0.66028 0.25432 0.03511 0.0
H3058 H 0.61191 0.29374 -0.00068 0.0
H3059 H 0.67117 0.32668 0.0394 0.0
H3060 H 0.70886 0.33635 0.04784 0.0
H3061 H 0.71368 0.36799 0.98946 0.0
H3062 H 0.67609 0.35827 0.9805 0.0
H3063 H 0.57463 0.40489 0.00115 0.0
H3064 H 0.58918 0.37329 0.01507 0.0
H3065 H 0.61016 0.3571 0.9529 0.0
H3066 H 0.5954 0.38784 0.93899 0.0
H3067 H 0.64103 0.36704 0.99809 0.0
H3068 H 0.58429 0.3254 0.95538 0.0
H3069 H 0.54666 0.31549 0.94689 0.0
H3070 H 0.53755 0.30084 0.01183 0.0
H3071 H 0.57511 0.3111 0.02074 0.0
C3072 C 0.68525 0.27972 0.99575 0.0
C3073 C 0.68164 0.26462 0.01097 0.0
C3074 C 0.67159 0.29557 0.99318 0.0
C3075 C 0.65413 0.29704 0.00601 0.0
C3076 C 0.6502 0.28183 0.02098 0.0
C3077 C 0.66381 0.26582 0.02346 0.0
C3078 C 0.64005 0.31444 0.00359 0.0
C3079 C 0.61829 0.30979 -0.00054 0.0
C3080 C 0.64822 0.33548 0.00375 0.0
C3081 C 0.67079 0.34165 0.00924 0.0
C3082 C 0.68028 0.33562 0.02831 0.0
C3083 C 0.70163 0.34112 0.03319 0.0
C3084 C 0.71366 0.35276 0.01918 0.0
C3085 C 0.70434 0.35898 0.00029 0.0
C3086 C 0.683 0.35351 0.99532 0.0
C3087 C 0.58147 0.39404 0.99035 0.0
C3088 C 0.58376 0.39873 0.96897 0.0
C3089 C 0.58996 0.37614 0.99833 0.0
C3090 C 0.60068 0.36285 0.98495 0.0
C3091 C 0.60177 0.36698 0.96343 0.0
C3092 C 0.59326 0.38456 0.95551 0.0
C3093 C 0.6132 0.34618 0.99335 0.0
C3094 C 0.63469 0.35102 0.99852 0.0
C3095 C 0.60486 0.32538 0.99412 0.0
C3096 C 0.58234 0.31942 0.9888 0.0
C3097 C 0.57418 0.3204 0.96791 0.0
C3098 C 0.55289 0.31464 0.963 0.0
C3099 C 0.53968 0.30765 0.97884 0.0
C3100 C 0.54777 0.30635 -0.0004 0.0
C3101 C 0.56904 0.31216 0.00459 0.0
H3102 H 0.52322 0.30315 0.975 0.0
H3103 H 0.73019 0.35698 0.02298 0.0
H3104 H 0.35026 0.26893 0.03001 0.0
H3105 H 0.37278 0.24018 0.02336 0.0
H3106 H 0.32714 0.21331 0.97603 0.0
H3107 H 0.30434 0.24128 0.98317 0.0
H3108 H 0.34039 0.18397 -0.00092 0.0
H3109 H 0.37429 0.24185 0.96376 0.0
H3110 H 0.39153 0.27714 0.96177 0.0
H3111 H 0.43982 0.26231 0.00695 0.0
H3112 H 0.42271 0.22698 0.0094 0.0
H3113 H 0.393 0.12118 0.92957 0.0
H3114 H 0.37558 0.14915 0.94685 0.0
H3115 H 0.42752 0.15903 0.99286 0.0
H3116 H 0.4454 0.13075 0.97536 0.0
H3117 H 0.41424 0.19627 0.97726 0.0
H3118 H 0.38204 0.13597 0.00777 0.0
H3119 H 0.3647 0.10057 0.00759 0.0
H3120 H 0.31259 0.12015 0.96993 0.0
H3121 H 0.32982 0.15554 0.96949 0.0
C3122 C 0.34495 0.25678 0.01834 0.0
C3123 C 0.32553 0.25761 0.00699 0.0
C3124 C 0.35795 0.24043 0.01439 0.0
C3125 C 0.35184 0.22462 -0.00103 0.0
C3126 C 0.33231 0.22528 0.98795 0.0
C3127 C 0.31935 0.24149 0.99191 0.0
C3128 C 0.3655 0.20724 0.99408 0.0
C3129 C 0.35651 0.18672 0.99423 0.0
C3130 C 0.3868 0.21064 0.98839 0.0
C3131 C 0.39708 0.23187 0.98695 0.0
C3132 C 0.38849 0.24617 0.9734 0.0
C3133 C 0.39825 0.26616 0.97217 0.0
C3134 C 0.41672 0.27198 0.98428 0.0
C3135 C 0.42549 0.25779 0.99762 0.0
C3136 C 0.41577 0.23778 0.99892 0.0
C3137 C 0.40084 0.12919 0.94339 0.0
C3138 C 0.42068 0.12363 0.95104 0.0
C3139 C 0.39074 0.1452 0.95333 0.0
C3140 C 0.40008 0.15612 0.97132 0.0
C3141 C 0.41996 0.15079 0.97904 0.0
C3142 C 0.43012 0.13457 0.96908 0.0
C3143 C 0.38884 0.17314 0.9816 0.0
C3144 C 0.39826 0.19354 0.9825 0.0
C3145 C 0.36784 0.16968 0.98812 0.0
C3146 C 0.3573 0.14842 0.98851 0.0
C3147 C 0.36696 0.1327 -0.00068 0.0
C3148 C 0.35715 0.11261 -0.00069 0.0
C3149 C 0.33759 0.10808 0.98867 0.0
C3150 C 0.32778 0.12365 0.97809 0.0
C3151 C 0.33755 0.14373 0.97798 0.0
H3152 H 0.33002 0.09253 0.98867 0.0
H3153 H 0.42426 0.28747 0.9833 0.0
H3154 H 0.83163 0.23268 0.03454 0.0
H3155 H 0.86256 0.25753 0.03183 0.0
H3156 H 0.82213 0.30838 0.03652 0.0
H3157 H 0.79141 0.28365 0.03949 0.0
H3158 H 0.84668 0.30312 0.99742 0.0
H3159 H 0.85154 0.30677 0.0742 0.0
H3160 H 0.85612 0.29306 0.10984 0.0
H3161 H 0.91665 0.27265 0.09395 0.0
H3162 H 0.91225 0.28595 0.05803 0.0
H3163 H 0.88944 0.40295 0.02212 0.0
H3164 H 0.87262 0.36846 0.01342 0.0
H3165 H 0.93303 0.34212 0.02025 0.0
H3166 H 0.94984 0.37696 0.02941 0.0
H3167 H 0.90598 0.32714 0.04759 0.0
H3168 H 0.90268 0.33501 0.97307 0.0
H3169 H 0.89632 0.35192 0.9393 0.0
H3170 H 0.83064 0.35396 0.95222 0.0
H3171 H 0.83662 0.33748 0.98622 0.0
C3172 C 0.82965 0.24922 0.03576 0.0
C3173 C 0.80945 0.25652 0.03732 0.0
C3174 C 0.84717 0.26329 0.03413 0.0
C3175 C 0.84443 0.28464 0.03383 0.0
C3176 C 0.8244 0.2919 0.03671 0.0
C3177 C 0.80698 0.27789 0.03854 0.0
C3178 C 0.86167 0.2994 0.02799 0.0
C3179 C 0.85975 0.30847 0.00827 0.0
C3180 C 0.87899 0.3055 0.04194 0.0
C3181 C 0.88136 0.29693 0.06327 0.0
C3182 C 0.86566 0.29902 0.07816 0.0
C3183 C 0.86827 0.29142 0.09845 0.0
C3184 C 0.88661 0.28188 0.10412 0.0
C3185 C 0.9024 0.27995 0.0895 0.0
C3186 C 0.89985 0.2875 0.06917 0.0
C3187 C 0.89921 0.38989 0.02076 0.0
C3188 C 0.92081 0.39233 0.02624 0.0
C3189 C 0.88965 0.37019 0.01569 0.0
C3190 C 0.90161 0.3527 0.01604 0.0
C3191 C 0.92359 0.35545 0.01975 0.0
C3192 C 0.93317 0.37524 0.02491 0.0
C3193 C 0.89046 0.33195 0.01734 0.0
C3194 C 0.89347 0.32147 0.03622 0.0
C3195 C 0.8738 0.32489 0.00278 0.0
C3196 C 0.87015 0.33498 0.9823 0.0
C3197 C 0.88691 0.3392 0.96881 0.0
C3198 C 0.88335 0.34871 0.94959 0.0
C3199 C 0.86309 0.35401 0.94362 0.0
C3200 C 0.84633 0.34982 0.95684 0.0
C3201 C 0.84979 0.34036 0.97609 0.0
H3202 H 0.86038 0.36136 0.92873 0.0
H3203 H 0.88863 0.27606 0.11986 0.0
loop_
_geom_bond_atom_site_label_1
_geom_bond_atom_site_label_2
_geom_bond_distance
_geom_bond_site_symmetry_2
_ccdc_geom_bond_type
C0 C1 1.443 1_455 S
C0 N4 1.376 . S
C0 C38 1.389 . S
C1 C0 1.443 1_655 S
C1 C2 1.340 . S
C1 H41 0.951 . S
C2 C1 1.340 . S
C2 C3 1.439 . S
C2 H42 0.950 . S
C3 C2 1.439 . S
C3 N4 1.374 1_655 S
C3 C37 1.395 . S
N4 C0 1.376 . S
N4 C3 1.374 1_455 S
N4 Co5 2.008 . S
Co5 N4 2.008 . S
Co5 N6 1.995 . S
Co5 N11 2.008 . S
Co5 N16 1.995 . S
Co5 N21 2.282 . S
Co5 N27 2.282 . S
N6 Co5 1.995 . S
N6 C7 1.376 1_455 S
N6 C10 1.383 . S
C7 N6 1.376 1_655 S
C7 C8 1.446 . S
C7 C37 1.391 . S
C8 C7 1.446 . S
C8 C9 1.339 1_655 S
C8 H43 0.949 . S
C9 C8 1.339 1_455 S
C9 C10 1.439 . S
C9 H44 0.950 . S
C10 N6 1.383 . S
C10 C9 1.439 . S
C10 C39 1.392 . S
N11 Co5 2.008 . S
N11 C12 1.376 . S
N11 C15 1.374 . S
C12 N11 1.376 . S
C12 C13 1.443 . S
C12 C39 1.389 . S
C13 C12 1.443 . S
C13 C14 1.340 . S
C13 H45 0.951 . S
C14 C13 1.340 . S
C14 C15 1.439 . S
C14 H46 0.950 . S
C15 N11 1.374 . S
C15 C14 1.439 . S
C15 C40 1.395 . S
N16 Co5 1.995 . S
N16 C17 1.376 . S
N16 C20 1.383 . S
C17 N16 1.376 . S
C17 C18 1.446 . S
C17 C40 1.391 . S
C18 C17 1.446 . S
C18 C19 1.339 . S
C18 H47 0.949 . S
C19 C18 1.339 . S
C19 C20 1.439 . S
C19 H48 0.950 . S
C20 N16 1.383 . S
C20 C19 1.439 . S
C20 C38 1.392 . S
N21 Co5 2.282 . S
N21 C24 1.332 . S
N21 C26 1.332 . S
C22 C23 1.386 . S
C22 C25 1.388 . S
C23 C22 1.386 . S
C23 C24 1.382 . S
C23 H49 0.950 . S
C24 N21 1.332 . S
C24 C23 1.382 . S
C24 H35 0.952 . S
C25 C22 1.388 . S
C25 C26 1.382 . S
C25 H50 0.950 . S
C26 N21 1.332 . S
C26 C25 1.382 . S
C26 H36 0.948 . S
N27 Co5 2.282 . S
N27 C31 1.332 . S
N27 C32 1.332 . S
C28 C29 1.388 . S
C28 C32 1.382 . S
C28 H51 0.950 . S
C29 C28 1.388 . S
C29 C30 1.386 . S
C30 C29 1.386 . S
C30 C31 1.382 . S
C30 H52 0.950 1_455 S
C31 N27 1.332 . S
C31 C30 1.382 . S
C31 H33 0.952 . S
C32 N27 1.332 . S
C32 C28 1.382 . S
C32 H34 0.948 . S
H33 C31 0.952 . S
H34 C32 0.948 . S
H35 C24 0.952 . S
H36 C26 0.948 . S
C37 C3 1.395 . S
C37 C7 1.391 . S
C38 C0 1.389 . S
C38 C20 1.392 . S
C39 C10 1.392 . S
C39 C12 1.389 . S
C40 C15 1.395 . S
C40 C17 1.391 . S
H41 C1 0.951 . S
H42 C2 0.950 . S
H43 C8 0.949 . S
H44 C9 0.950 . S
H45 C13 0.951 . S
H46 C14 0.950 . S
H47 C18 0.949 . S
H48 C19 0.950 . S
H49 C23 0.950 . S
H50 C25 0.950 . S
H51 C28 0.950 . S
H52 C30 0.950 1_655 S
C53 C54 1.443 . S
C53 N57 1.376 . S
C53 C91 1.389 1_655 S
C54 C53 1.443 . S
C54 C55 1.340 . S
C54 H94 0.951 . S
C55 C54 1.340 . S
C55 C56 1.439 . S
C55 H95 0.950 . S
C56 C55 1.439 . S
C56 N57 1.374 . S
C56 C90 1.395 . S
N57 C53 1.376 . S
N57 C56 1.374 . S
N57 Co58 2.008 1_655 S
Co58 N57 2.008 1_455 S
Co58 N59 1.995 1_455 S
Co58 N64 2.008 . S
Co58 N69 1.995 . S
Co58 N74 2.282 . S
Co58 N80 2.282 . S
N59 Co58 1.995 1_655 S
N59 C60 1.376 . S
N59 C63 1.383 1_655 S
C60 N59 1.376 . S
C60 C61 1.446 . S
C60 C90 1.391 . S
C61 C60 1.446 . S
C61 C62 1.339 . S
C61 H96 0.949 . S
C62 C61 1.339 . S
C62 C63 1.439 1_655 S
C62 H97 0.950 . S
C63 N59 1.383 1_455 S
C63 C62 1.439 1_455 S
C63 C92 1.392 . S
N64 Co58 2.008 . S
N64 C65 1.376 . S
N64 C68 1.374 . S
C65 N64 1.376 . S
C65 C66 1.443 . S
C65 C92 1.389 . S
C66 C65 1.443 . S
C66 C67 1.340 . S
C66 H98 0.951 . S
C67 C66 1.340 . S
C67 C68 1.439 . S
C67 H99 0.950 . S
C68 N64 1.374 . S
C68 C67 1.439 . S
C68 C93 1.395 . S
N69 Co58 1.995 . S
N69 C70 1.376 . S
N69 C73 1.383 . S
C70 N69 1.376 . S
C70 C71 1.446 . S
C70 C93 1.391 . S
C71 C70 1.446 . S
C71 C72 1.339 . S
C71 H100 0.949 . S
C72 C71 1.339 . S
C72 C73 1.439 . S
C72 H101 0.950 . S
C73 N69 1.383 . S
C73 C72 1.439 . S
C73 C91 1.392 . S
N74 Co58 2.282 . S
N74 C77 1.332 . S
N74 C79 1.332 . S
C75 C76 1.386 . S
C75 C78 1.388 . S
C76 C75 1.386 . S
C76 C77 1.382 . S
C76 H102 0.950 . S
C77 N74 1.332 . S
C77 C76 1.382 . S
C77 H88 0.952 . S
C78 C75 1.388 . S
C78 C79 1.382 . S
C78 H103 0.950 . S
C79 N74 1.332 . S
C79 C78 1.382 . S
C79 H89 0.948 1_455 S
N80 Co58 2.282 . S
N80 C84 1.332 1_455 S
N80 C85 1.332 . S
C81 C82 1.388 . S
C81 C85 1.382 . S
C81 H104 0.950 . S
C82 C81 1.388 . S
C82 C83 1.386 1_455 S
C83 C82 1.386 1_655 S
C83 C84 1.382 . S
C83 H105 0.950 . S
C84 N80 1.332 1_655 S
C84 C83 1.382 . S
C84 H86 0.952 . S
C85 N80 1.332 . S
C85 C81 1.382 . S
C85 H87 0.948 . S
H86 C84 0.952 . S
H87 C85 0.948 . S
H88 C77 0.952 . S
H89 C79 0.948 1_655 S
C90 C56 1.395 . S
C90 C60 1.391 . S
C91 C53 1.389 1_455 S
C91 C73 1.392 . S
C92 C63 1.392 . S
C92 C65 1.389 . S
C93 C68 1.395 . S
C93 C70 1.391 . S
H94 C54 0.951 . S
H95 C55 0.950 . S
H96 C61 0.949 . S
H97 C62 0.950 . S
H98 C66 0.951 . S
H99 C67 0.950 . S
H100 C71 0.949 . S
H101 C72 0.950 . S
H102 C76 0.950 . S
H103 C78 0.950 . S
H104 C81 0.950 . S
H105 C83 0.950 . S
C106 C107 1.443 . S
C106 N110 1.376 . S
C106 C144 1.408 . S
C107 C106 1.443 . S
C107 C108 1.340 . S
C107 H147 0.951 . S
C108 C107 1.340 . S
C108 C109 1.439 . S
C108 H148 0.950 . S
C109 C108 1.439 . S
C109 N110 1.374 . S
C109 C143 1.395 . S
N110 C106 1.376 . S
N110 C109 1.374 . S
N110 Co111 2.008 1_565 S
Co111 N110 2.008 1_545 S
Co111 N112 1.995 1_545 S
Co111 N117 2.008 . S
Co111 N122 1.995 . S
Co111 N127 2.282 . S
Co111 N133 2.282 . S
N112 Co111 1.995 1_565 S
N112 C113 1.376 . S
N112 C116 1.383 1_565 S
C113 N112 1.376 . S
C113 C114 1.446 . S
C113 C143 1.391 . S
C114 C113 1.446 . S
C114 C115 1.339 . S
C114 H149 0.949 . S
C115 C114 1.339 . S
C115 C116 1.439 1_565 S
C115 H150 0.950 . S
C116 N112 1.383 1_545 S
C116 C115 1.439 1_545 S
C116 C145 1.392 . S
N117 Co111 2.008 . S
N117 C118 1.376 . S
N117 C121 1.374 . S
C118 N117 1.376 . S
C118 C119 1.443 . S
C118 C145 1.389 . S
C119 C118 1.443 . S
C119 C120 1.340 . S
C119 H151 0.951 . S
C120 C119 1.340 . S
C120 C121 1.439 . S
C120 H152 0.950 . S
C121 N117 1.374 . S
C121 C120 1.439 . S
C121 C146 1.395 . S
N122 Co111 1.995 . S
N122 C123 1.376 . S
N122 C126 1.383 . S
C123 N122 1.376 . S
C123 C124 1.446 . S
C123 C146 1.391 . S
C124 C123 1.446 . S
C124 C125 1.339 . S
C124 H153 0.949 . S
C125 C124 1.339 . S
C125 C126 1.439 . S
C125 H154 0.950 . S
C126 N122 1.383 . S
C126 C125 1.439 . S
C126 C144 1.366 1_545 S
N127 Co111 2.282 . S
N127 C130 1.332 . S
N127 C132 1.332 . S
C128 C129 1.386 . S
C128 C131 1.388 . S
C129 C128 1.386 . S
C129 C130 1.382 . S
C129 H155 0.950 . S
C130 N127 1.332 . S
C130 C129 1.382 . S
C130 H141 0.952 . S
C131 C128 1.388 . S
C131 C132 1.382 . S
C131 H156 0.950 1_545 S
C132 N127 1.332 . S
C132 C131 1.382 . S
C132 H142 0.948 1_545 S
N133 Co111 2.282 . S
N133 C137 1.332 1_545 S
N133 C138 1.332 . S
C134 C135 1.388 1_545 S
C134 C138 1.382 . S
C134 H157 0.950 . S
C135 C134 1.388 1_565 S
C135 C136 1.386 . S
C136 C135 1.386 . S
C136 C137 1.382 . S
C136 H158 0.950 . S
C137 N133 1.332 1_565 S
C137 C136 1.382 . S
C137 H139 0.952 . S
C138 N133 1.332 . S
C138 C134 1.382 . S
C138 H140 0.948 . S
H139 C137 0.952 . S
H140 C138 0.948 . S
H141 C130 0.952 . S
H142 C132 0.948 1_565 S
C143 C109 1.395 . S
C143 C113 1.391 . S
C144 C106 1.408 . S
C144 C126 1.366 1_565 S
C145 C116 1.392 . S
C145 C118 1.389 . S
C146 C121 1.395 . S
C146 C123 1.391 . S
H147 C107 0.951 . S
H148 C108 0.950 . S
H149 C114 0.949 . S
H150 C115 0.950 . S
H151 C119 0.951 . S
H152 C120 0.950 . S
H153 C124 0.949 . S
H154 C125 0.950 . S
H155 C129 0.950 . S
H156 C131 0.950 1_565 S
H157 C134 0.950 . S
H158 C136 0.950 . S
C159 C160 1.443 . S
C159 N163 1.376 . S
C159 C197 1.389 . S
C160 C159 1.443 . S
C160 C161 1.340 . S
C160 H200 0.951 . S
C161 C160 1.340 . S
C161 C162 1.439 . S
C161 H201 0.950 . S
C162 C161 1.439 . S
C162 N163 1.374 . S
C162 C196 1.395 . S
N163 C159 1.376 . S
N163 C162 1.374 . S
N163 Co164 2.008 . S
Co164 N163 2.008 . S
Co164 N165 1.995 . S
Co164 N170 2.008 . S
Co164 N175 1.995 . S
Co164 N180 2.282 . S
Co164 N186 2.282 . S
N165 Co164 1.995 . S
N165 C166 1.376 . S
N165 C169 1.383 . S
C166 N165 1.376 . S
C166 C167 1.446 . S
C166 C196 1.391 . S
C167 C166 1.446 . S
C167 C168 1.339 . S
C167 H202 0.949 . S
C168 C167 1.339 . S
C168 C169 1.439 . S
C168 H203 0.950 . S
C169 N165 1.383 . S
C169 C168 1.439 . S
C169 C198 1.392 . S
N170 Co164 2.008 . S
N170 C171 1.376 . S
N170 C174 1.374 . S
C171 N170 1.376 . S
C171 C172 1.443 . S
C171 C198 1.389 . S
C172 C171 1.443 . S
C172 C173 1.340 . S
C172 H204 0.951 . S
C173 C172 1.340 . S
C173 C174 1.439 . S
C173 H205 0.950 . S
C174 N170 1.374 . S
C174 C173 1.439 . S
C174 C199 1.395 . S
N175 Co164 1.995 . S
N175 C176 1.376 . S
N175 C179 1.383 . S
C176 N175 1.376 . S
C176 C177 1.446 . S
C176 C199 1.391 . S
C177 C176 1.446 . S
C177 C178 1.339 . S
C177 H206 0.949 . S
C178 C177 1.339 . S
C178 C179 1.439 . S
C178 H207 0.950 . S
C179 N175 1.383 . S
C179 C178 1.439 . S
C179 C197 1.392 . S
N180 Co164 2.282 . S
N180 C183 1.332 . S
N180 C185 1.332 . S
C181 C182 1.386 . S
C181 C184 1.388 . S
C182 C181 1.386 . S
C182 C183 1.382 . S
C182 H208 0.950 . S
C183 N180 1.332 . S
C183 C182 1.382 . S
C183 H194 0.952 . S
C184 C181 1.388 . S
C184 C185 1.382 . S
C184 H209 0.950 . S
C185 N180 1.332 . S
C185 C184 1.382 . S
C185 H195 0.948 . S
N186 Co164 2.282 . S
N186 C190 1.332 . S
N186 C191 1.332 . S
C187 C188 1.388 . S
C187 C191 1.382 . S
C187 H210 0.950 . S
C188 C187 1.388 . S
C188 C189 1.386 . S
C189 C188 1.386 . S
C189 C190 1.382 . S
C189 H211 0.950 . S
C190 N186 1.332 . S
C190 C189 1.382 . S
C190 H192 0.952 . S
C191 N186 1.332 . S
C191 C187 1.382 . S
C191 H193 0.948 . S
H192 C190 0.952 . S
H193 C191 0.948 . S
H194 C183 0.952 . S
H195 C185 0.948 . S
C196 C162 1.395 . S
C196 C166 1.391 . S
C197 C159 1.389 . S
C197 C179 1.392 . S
C198 C169 1.392 . S
C198 C171 1.389 . S
C199 C174 1.395 . S
C199 C176 1.391 . S
H200 C160 0.951 . S
H201 C161 0.950 . S
H202 C167 0.949 . S
H203 C168 0.950 . S
H204 C172 0.951 . S
H205 C173 0.950 . S
H206 C177 0.949 . S
H207 C178 0.950 . S
H208 C182 0.950 . S
H209 C184 0.950 . S
H210 C187 0.950 . S
H211 C189 0.950 . S
C212 C213 1.443 . S
C212 N216 1.376 . S
C212 C250 1.389 1_556 S
C213 C212 1.443 . S
C213 C214 1.340 . S
C213 H253 0.951 . S
C214 C213 1.340 . S
C214 C215 1.439 . S
C214 H254 0.950 . S
C215 C214 1.439 . S
C215 N216 1.374 . S
C215 C249 1.395 . S
N216 C212 1.376 . S
N216 C215 1.374 . S
N216 Co217 2.008 1_556 S
Co217 N216 2.008 1_554 S
Co217 N218 1.995 . S
Co217 N223 2.008 . S
Co217 N228 1.995 . S
Co217 N233 2.282 . S
Co217 N239 2.282 . S
N218 Co217 1.995 . S
N218 C219 1.376 1_554 S
N218 C222 1.383 . S
C219 N218 1.376 1_556 S
C219 C220 1.446 . S
C219 C249 1.391 . S
C220 C219 1.446 . S
C220 C221 1.339 . S
C220 H255 0.949 . S
C221 C220 1.339 . S
C221 C222 1.439 1_556 S
C221 H256 0.950 . S
C222 N218 1.383 . S
C222 C221 1.439 1_554 S
C222 C251 1.392 . S
N223 Co217 2.008 . S
N223 C224 1.376 . S
N223 C227 1.374 . S
C224 N223 1.376 . S
C224 C225 1.443 . S
C224 C251 1.389 . S
C225 C224 1.443 . S
C225 C226 1.340 . S
C225 H257 0.951 . S
C226 C225 1.340 . S
C226 C227 1.439 . S
C226 H258 0.950 . S
C227 N223 1.374 . S
C227 C226 1.439 . S
C227 C252 1.395 . S
N228 Co217 1.995 . S
N228 C229 1.376 . S
N228 C232 1.383 . S
C229 N228 1.376 . S
C229 C230 1.446 . S
C229 C252 1.391 . S
C230 C229 1.446 . S
C230 C231 1.339 . S
C230 H259 0.949 . S
C231 C230 1.339 . S
C231 C232 1.439 . S
C231 H260 0.950 . S
C232 N228 1.383 . S
C232 C231 1.439 . S
C232 C250 1.392 . S
N233 Co217 2.282 . S
N233 C236 1.332 . S
N233 C238 1.332 . S
C234 C235 1.386 . S
C234 C237 1.388 . S
C235 C234 1.386 . S
C235 C236 1.382 . S
C235 H261 0.950 . S
C236 N233 1.332 . S
C236 C235 1.382 . S
C236 H247 0.952 . S
C237 C234 1.388 . S
C237 C238 1.382 . S
C237 H262 0.950 . S
C238 N233 1.332 . S
C238 C237 1.382 . S
C238 H248 0.957 . S
N239 Co217 2.282 . S
N239 C243 1.379 . S
N239 C244 1.332 . S
C240 C241 1.388 . S
C240 C244 1.382 . S
C240 H263 0.950 . S
C241 C240 1.388 . S
C241 C242 1.386 1_554 S
C242 C241 1.386 1_556 S
C242 C243 1.369 1_556 S
C242 H264 0.950 . S
C243 N239 1.379 . S
C243 C242 1.369 1_554 S
C243 H245 0.917 1_554 S
C244 N239 1.332 . S
C244 C240 1.382 . S
C244 H246 0.948 . S
H245 C243 0.917 1_556 S
H246 C244 0.948 . S
H247 C236 0.952 . S
H248 C238 0.957 . S
C249 C215 1.395 . S
C249 C219 1.391 . S
C250 C212 1.389 1_554 S
C250 C232 1.392 . S
C251 C222 1.392 . S
C251 C224 1.389 . S
C252 C227 1.395 . S
C252 C229 1.391 . S
H253 C213 0.951 . S
H254 C214 0.950 . S
H255 C220 0.949 . S
H256 C221 0.950 . S
H257 C225 0.951 . S
H258 C226 0.950 . S
H259 C230 0.949 . S
H260 C231 0.950 . S
H261 C235 0.950 . S
H262 C237 0.950 . S
H263 C240 0.950 . S
H264 C242 0.950 . S
C265 C266 1.443 . S
C265 N269 1.376 . S
C265 C303 1.389 . S
C266 C265 1.443 . S
C266 C267 1.340 . S
C266 H306 0.951 . S
C267 C266 1.340 . S
C267 C268 1.439 . S
C267 H307 0.950 . S
C268 C267 1.439 . S
C268 N269 1.374 . S
C268 C302 1.395 . S
N269 C265 1.376 . S
N269 C268 1.374 . S
N269 Co270 2.008 . S
Co270 N269 2.008 . S
Co270 N271 1.995 . S
Co270 N276 2.008 . S
Co270 N281 1.995 . S
Co270 N286 2.282 . S
Co270 N292 2.282 . S
N271 Co270 1.995 . S
N271 C272 1.376 . S
N271 C275 1.383 . S
C272 N271 1.376 . S
C272 C273 1.446 . S
C272 C302 1.391 . S
C273 C272 1.446 . S
C273 C274 1.339 . S
C273 H308 0.949 . S
C274 C273 1.339 . S
C274 C275 1.439 . S
C274 H309 0.950 . S
C275 N271 1.383 . S
C275 C274 1.439 . S
C275 C304 1.392 . S
N276 Co270 2.008 . S
N276 C277 1.376 . S
N276 C280 1.374 . S
C277 N276 1.376 . S
C277 C278 1.443 . S
C277 C304 1.389 . S
C278 C277 1.443 . S
C278 C279 1.340 . S
C278 H310 0.951 . S
C279 C278 1.340 . S
C279 C280 1.439 . S
C279 H311 0.950 . S
C280 N276 1.374 . S
C280 C279 1.439 . S
C280 C305 1.395 . S
N281 Co270 1.995 . S
N281 C282 1.376 . S
N281 C285 1.383 . S
C282 N281 1.376 . S
C282 C283 1.446 . S
C282 C305 1.391 . S
C283 C282 1.446 . S
C283 C284 1.339 . S
C283 H312 0.949 . S
C284 C283 1.339 . S
C284 C285 1.439 . S
C284 H313 0.950 . S
C285 N281 1.383 . S
C285 C284 1.439 . S
C285 C303 1.392 . S
N286 Co270 2.282 . S
N286 C289 1.332 . S
N286 C291 1.332 . S
C287 C288 1.386 . S
C287 C290 1.388 . S
C288 C287 1.386 . S
C288 C289 1.382 . S
C288 H314 0.950 . S
C289 N286 1.332 . S
C289 C288 1.382 . S
C289 H300 0.952 . S
C290 C287 1.388 . S
C290 C291 1.382 . S
C290 H315 0.950 . S
C291 N286 1.332 . S
C291 C290 1.382 . S
C291 H301 0.948 . S
N292 Co270 2.282 . S
N292 C296 1.332 . S
N292 C297 1.332 . S
C293 C294 1.388 . S
C293 C297 1.382 . S
C293 H316 0.950 . S
C294 C293 1.388 . S
C294 C295 1.386 . S
C295 C294 1.386 . S
C295 C296 1.382 . S
C295 H317 0.950 . S
C296 N292 1.332 . S
C296 C295 1.382 . S
C296 H298 0.952 . S
C297 N292 1.332 . S
C297 C293 1.382 . S
C297 H299 0.948 . S
H298 C296 0.952 . S
H299 C297 0.948 . S
H300 C289 0.952 . S
H301 C291 0.948 . S
C302 C268 1.395 . S
C302 C272 1.391 . S
C303 C265 1.389 . S
C303 C285 1.392 . S
C304 C275 1.392 . S
C304 C277 1.389 . S
C305 C280 1.395 . S
C305 C282 1.391 . S
H306 C266 0.951 . S
H307 C267 0.950 . S
H308 C273 0.949 . S
H309 C274 0.950 . S
H310 C278 0.951 . S
H311 C279 0.950 . S
H312 C283 0.949 . S
H313 C284 0.950 . S
H314 C288 0.950 . S
H315 C290 0.950 . S
H316 C293 0.950 . S
H317 C295 0.950 . S
C318 C319 1.443 . S
C318 N322 1.376 . S
C318 C356 1.389 . S
C319 C318 1.443 . S
C319 C320 1.340 . S
C319 H359 0.951 . S
C320 C319 1.340 . S
C320 C321 1.439 . S
C320 H360 0.950 . S
C321 C320 1.439 . S
C321 N322 1.374 . S
C321 C355 1.395 . S
N322 C318 1.376 . S
N322 C321 1.374 . S
N322 Co323 2.008 . S
Co323 N322 2.008 . S
Co323 N324 1.995 . S
Co323 N329 2.008 . S
Co323 N334 1.995 . S
Co323 N339 2.282 . S
Co323 N345 2.282 . S
N324 Co323 1.995 . S
N324 C325 1.376 . S
N324 C328 1.383 . S
C325 N324 1.376 . S
C325 C326 1.446 . S
C325 C355 1.391 . S
C326 C325 1.446 . S
C326 C327 1.339 . S
C326 H361 0.949 . S
C327 C326 1.339 . S
C327 C328 1.439 . S
C327 H362 0.950 . S
C328 N324 1.383 . S
C328 C327 1.439 . S
C328 C357 1.392 . S
N329 Co323 2.008 . S
N329 C330 1.376 . S
N329 C333 1.374 . S
C330 N329 1.376 . S
C330 C331 1.443 . S
C330 C357 1.389 . S
C331 C330 1.443 . S
C331 C332 1.340 . S
C331 H363 0.951 . S
C332 C331 1.340 . S
C332 C333 1.439 . S
C332 H364 0.950 . S
C333 N329 1.374 . S
C333 C332 1.439 . S
C333 C358 1.395 . S
N334 Co323 1.995 . S
N334 C335 1.376 . S
N334 C338 1.383 . S
C335 N334 1.376 . S
C335 C336 1.446 . S
C335 C358 1.391 . S
C336 C335 1.446 . S
C336 C337 1.339 . S
C336 H365 0.949 . S
C337 C336 1.339 . S
C337 C338 1.439 . S
C337 H366 0.950 . S
C338 N334 1.383 . S
C338 C337 1.439 . S
C338 C356 1.392 . S
N339 Co323 2.282 . S
N339 C342 1.332 . S
N339 C344 1.332 . S
C340 C341 1.386 . S
C340 C343 1.388 . S
C341 C340 1.386 . S
C341 C342 1.382 . S
C341 H367 0.950 . S
C342 N339 1.332 . S
C342 C341 1.382 . S
C342 H353 0.952 . S
C343 C340 1.388 . S
C343 C344 1.382 . S
C343 H368 0.950 . S
C344 N339 1.332 . S
C344 C343 1.382 . S
C344 H354 0.948 . S
N345 Co323 2.282 . S
N345 C349 1.332 . S
N345 C350 1.332 . S
C346 C347 1.388 . S
C346 C350 1.382 . S
C346 H369 0.950 . S
C347 C346 1.388 . S
C347 C348 1.386 . S
C348 C347 1.386 . S
C348 C349 1.382 . S
C348 H370 0.950 . S
C349 N345 1.332 . S
C349 C348 1.382 . S
C349 H351 0.952 . S
C350 N345 1.332 . S
C350 C346 1.382 . S
C350 H352 0.948 . S
H351 C349 0.952 . S
H352 C350 0.948 . S
H353 C342 0.952 . S
H354 C344 0.948 . S
C355 C321 1.395 . S
C355 C325 1.391 . S
C356 C318 1.389 . S
C356 C338 1.392 . S
C357 C328 1.392 . S
C357 C330 1.389 . S
C358 C333 1.395 . S
C358 C335 1.391 . S
H359 C319 0.951 . S
H360 C320 0.950 . S
H361 C326 0.949 . S
H362 C327 0.950 . S
H363 C331 0.951 . S
H364 C332 0.950 . S
H365 C336 0.949 . S
H366 C337 0.950 . S
H367 C341 0.950 . S
H368 C343 0.950 . S
H369 C346 0.950 . S
H370 C348 0.950 . S
C371 C372 1.443 . S
C371 N375 1.376 . S
C371 C409 1.389 . S
C372 C371 1.443 . S
C372 C373 1.340 . S
C372 H412 0.951 . S
C373 C372 1.340 . S
C373 C374 1.439 . S
C373 H413 0.950 . S
C374 C373 1.439 . S
C374 N375 1.374 . S
C374 C408 1.395 . S
N375 C371 1.376 . S
N375 C374 1.374 . S
N375 Co376 2.008 . S
Co376 N375 2.008 . S
Co376 N377 1.995 . S
Co376 N382 2.008 . S
Co376 N387 1.995 . S
Co376 N392 2.282 . S
Co376 N398 2.282 . S
N377 Co376 1.995 . S
N377 C378 1.376 . S
N377 C381 1.383 . S
C378 N377 1.376 . S
C378 C379 1.446 . S
C378 C408 1.391 . S
C379 C378 1.446 . S
C379 C380 1.339 . S
C379 H414 0.949 . S
C380 C379 1.339 . S
C380 C381 1.439 . S
C380 H415 0.950 . S
C381 N377 1.383 . S
C381 C380 1.439 . S
C381 C410 1.392 . S
N382 Co376 2.008 . S
N382 C383 1.376 . S
N382 C386 1.374 . S
C383 N382 1.376 . S
C383 C384 1.443 . S
C383 C410 1.389 . S
C384 C383 1.443 . S
C384 C385 1.340 . S
C384 H416 0.951 . S
C385 C384 1.340 . S
C385 C386 1.439 . S
C385 H417 0.950 . S
C386 N382 1.374 . S
C386 C385 1.439 . S
C386 C411 1.395 . S
N387 Co376 1.995 . S
N387 C388 1.376 . S
N387 C391 1.383 . S
C388 N387 1.376 . S
C388 C389 1.446 . S
C388 C411 1.391 . S
C389 C388 1.446 . S
C389 C390 1.339 . S
C389 H418 0.949 . S
C390 C389 1.339 . S
C390 C391 1.439 . S
C390 H419 0.950 . S
C391 N387 1.383 . S
C391 C390 1.439 . S
C391 C409 1.392 . S
N392 Co376 2.282 . S
N392 C395 1.332 . S
N392 C397 1.332 . S
C393 C394 1.386 . S
C393 C396 1.388 . S
C394 C393 1.386 . S
C394 C395 1.382 . S
C394 H420 0.950 . S
C395 N392 1.332 . S
C395 C394 1.382 . S
C395 H406 0.952 . S
C396 C393 1.388 . S
C396 C397 1.382 . S
C396 H421 0.950 . S
C397 N392 1.332 . S
C397 C396 1.382 . S
C397 H407 0.948 . S
N398 Co376 2.282 . S
N398 C402 1.332 . S
N398 C403 1.332 . S
C399 C400 1.388 . S
C399 C403 1.382 . S
C399 H422 0.950 . S
C400 C399 1.388 . S
C400 C401 1.386 . S
C401 C400 1.386 . S
C401 C402 1.382 . S
C401 H423 0.950 . S
C402 N398 1.332 . S
C402 C401 1.382 . S
C402 H404 0.952 . S
C403 N398 1.332 . S
C403 C399 1.382 . S
C403 H405 0.948 . S
H404 C402 0.952 . S
H405 C403 0.948 . S
H406 C395 0.952 . S
H407 C397 0.948 . S
C408 C374 1.395 . S
C408 C378 1.391 . S
C409 C371 1.389 . S
C409 C391 1.392 . S
C410 C381 1.392 . S
C410 C383 1.389 . S
C411 C386 1.395 . S
C411 C388 1.391 . S
H412 C372 0.951 . S
H413 C373 0.950 . S
H414 C379 0.949 . S
H415 C380 0.950 . S
H416 C384 0.951 . S
H417 C385 0.950 . S
H418 C389 0.949 . S
H419 C390 0.950 . S
H420 C394 0.950 . S
H421 C396 0.950 . S
H422 C399 0.950 . S
H423 C401 0.950 . S
C424 C425 1.443 . S
C424 N428 1.376 . S
C424 C462 1.389 . S
C425 C424 1.443 . S
C425 C426 1.340 . S
C425 H465 0.951 . S
C426 C425 1.340 . S
C426 C427 1.439 . S
C426 H466 0.950 . S
C427 C426 1.439 . S
C427 N428 1.374 . S
C427 C461 1.395 . S
N428 C424 1.376 . S
N428 C427 1.374 . S
N428 Co429 2.008 . S
Co429 N428 2.008 . S
Co429 N430 1.995 . S
Co429 N435 2.008 . S
Co429 N440 1.995 . S
Co429 N445 2.282 . S
Co429 N451 2.282 . S
N430 Co429 1.995 . S
N430 C431 1.376 . S
N430 C434 1.383 . S
C431 N430 1.376 . S
C431 C432 1.446 . S
C431 C461 1.391 . S
C432 C431 1.446 . S
C432 C433 1.339 . S
C432 H467 0.949 . S
C433 C432 1.339 . S
C433 C434 1.439 . S
C433 H468 0.950 . S
C434 N430 1.383 . S
C434 C433 1.439 . S
C434 C463 1.392 . S
N435 Co429 2.008 . S
N435 C436 1.376 . S
N435 C439 1.374 . S
C436 N435 1.376 . S
C436 C437 1.443 . S
C436 C463 1.389 . S
C437 C436 1.443 . S
C437 C438 1.340 . S
C437 H469 0.951 . S
C438 C437 1.340 . S
C438 C439 1.439 . S
C438 H470 0.950 . S
C439 N435 1.374 . S
C439 C438 1.439 . S
C439 C464 1.395 . S
N440 Co429 1.995 . S
N440 C441 1.376 . S
N440 C444 1.383 . S
C441 N440 1.376 . S
C441 C442 1.446 . S
C441 C464 1.391 . S
C442 C441 1.446 . S
C442 C443 1.339 . S
C442 H471 0.949 . S
C443 C442 1.339 . S
C443 C444 1.439 . S
C443 H472 0.950 . S
C444 N440 1.383 . S
C444 C443 1.439 . S
C444 C462 1.392 . S
N445 Co429 2.282 . S
N445 C448 1.332 . S
N445 C450 1.332 . S
C446 C447 1.386 . S
C446 C449 1.388 . S
C447 C446 1.386 . S
C447 C448 1.382 . S
C447 H473 0.950 . S
C448 N445 1.332 . S
C448 C447 1.382 . S
C448 H459 0.952 . S
C449 C446 1.388 . S
C449 C450 1.382 . S
C449 H474 0.950 . S
C450 N445 1.332 . S
C450 C449 1.382 . S
C450 H460 0.948 . S
N451 Co429 2.282 . S
N451 C455 1.332 . S
N451 C456 1.332 . S
C452 C453 1.388 . S
C452 C456 1.382 . S
C452 H475 0.950 . S
C453 C452 1.388 . S
C453 C454 1.386 . S
C454 C453 1.386 . S
C454 C455 1.382 . S
C454 H476 0.950 . S
C455 N451 1.332 . S
C455 C454 1.382 . S
C455 H457 0.952 . S
C456 N451 1.332 . S
C456 C452 1.382 . S
C456 H458 0.948 . S
H457 C455 0.952 . S
H458 C456 0.948 . S
H459 C448 0.952 . S
H460 C450 0.948 . S
C461 C427 1.395 . S
C461 C431 1.391 . S
C462 C424 1.389 . S
C462 C444 1.392 . S
C463 C434 1.392 . S
C463 C436 1.389 . S
C464 C439 1.395 . S
C464 C441 1.391 . S
H465 C425 0.951 . S
H466 C426 0.950 . S
H467 C432 0.949 . S
H468 C433 0.950 . S
H469 C437 0.951 . S
H470 C438 0.950 . S
H471 C442 0.949 . S
H472 C443 0.950 . S
H473 C447 0.950 . S
H474 C449 0.950 . S
H475 C452 0.950 . S
H476 C454 0.950 . S
C477 C478 1.443 . S
C477 N481 1.376 . S
C477 C515 1.389 . S
C478 C477 1.443 . S
C478 C479 1.340 . S
C478 H518 0.951 . S
C479 C478 1.340 . S
C479 C480 1.439 . S
C479 H519 0.950 . S
C480 C479 1.439 . S
C480 N481 1.374 . S
C480 C514 1.395 . S
N481 C477 1.376 . S
N481 C480 1.374 . S
N481 Co482 2.008 . S
Co482 N481 2.008 . S
Co482 N483 1.995 . S
Co482 N488 2.008 . S
Co482 N493 1.995 . S
Co482 N498 2.282 . S
Co482 N504 2.282 . S
N483 Co482 1.995 . S
N483 C484 1.376 . S
N483 C487 1.383 . S
C484 N483 1.376 . S
C484 C485 1.446 . S
C484 C514 1.391 . S
C485 C484 1.446 . S
C485 C486 1.339 . S
C485 H520 0.949 . S
C486 C485 1.339 . S
C486 C487 1.439 . S
C486 H521 0.950 . S
C487 N483 1.383 . S
C487 C486 1.439 . S
C487 C516 1.392 . S
N488 Co482 2.008 . S
N488 C489 1.376 . S
N488 C492 1.374 . S
C489 N488 1.376 . S
C489 C490 1.443 . S
C489 C516 1.389 . S
C490 C489 1.443 . S
C490 C491 1.340 . S
C490 H522 0.951 . S
C491 C490 1.340 . S
C491 C492 1.439 . S
C491 H523 0.950 . S
C492 N488 1.374 . S
C492 C491 1.439 . S
C492 C517 1.395 . S
N493 Co482 1.995 . S
N493 C494 1.376 . S
N493 C497 1.383 . S
C494 N493 1.376 . S
C494 C495 1.446 . S
C494 C517 1.391 . S
C495 C494 1.446 . S
C495 C496 1.339 . S
C495 H524 0.949 . S
C496 C495 1.339 . S
C496 C497 1.439 . S
C496 H525 0.950 . S
C497 N493 1.383 . S
C497 C496 1.439 . S
C497 C515 1.392 . S
N498 Co482 2.282 . S
N498 C501 1.332 . S
N498 C503 1.332 . S
C499 C500 1.386 . S
C499 C502 1.388 . S
C500 C499 1.386 . S
C500 C501 1.382 . S
C500 H526 0.950 . S
C501 N498 1.332 . S
C501 C500 1.382 . S
C501 H512 0.952 . S
C502 C499 1.388 . S
C502 C503 1.382 . S
C502 H527 0.950 . S
C503 N498 1.332 . S
C503 C502 1.382 . S
C503 H513 0.948 . S
N504 Co482 2.282 . S
N504 C508 1.332 . S
N504 C509 1.332 . S
C505 C506 1.388 . S
C505 C509 1.382 . S
C505 H528 0.950 . S
C506 C505 1.388 . S
C506 C507 1.386 . S
C507 C506 1.386 . S
C507 C508 1.382 . S
C507 H529 0.950 . S
C508 N504 1.332 . S
C508 C507 1.382 . S
C508 H510 0.952 . S
C509 N504 1.332 . S
C509 C505 1.382 . S
C509 H511 0.948 . S
H510 C508 0.952 . S
H511 C509 0.948 . S
H512 C501 0.952 . S
H513 C503 0.948 . S
C514 C480 1.395 . S
C514 C484 1.391 . S
C515 C477 1.389 . S
C515 C497 1.392 . S
C516 C487 1.392 . S
C516 C489 1.389 . S
C517 C492 1.395 . S
C517 C494 1.391 . S
H518 C478 0.951 . S
H519 C479 0.950 . S
H520 C485 0.949 . S
H521 C486 0.950 . S
H522 C490 0.951 . S
H523 C491 0.950 . S
H524 C495 0.949 . S
H525 C496 0.950 . S
H526 C500 0.950 . S
H527 C502 0.950 . S
H528 C505 0.950 . S
H529 C507 0.950 . S
C530 C531 1.443 . S
C530 N534 1.376 . S
C530 C568 1.389 . S
C531 C530 1.443 . S
C531 C532 1.340 . S
C531 H571 0.951 . S
C532 C531 1.340 . S
C532 C533 1.439 . S
C532 H572 0.950 . S
C533 C532 1.439 . S
C533 N534 1.374 . S
C533 C567 1.395 . S
N534 C530 1.376 . S
N534 C533 1.374 . S
N534 Co535 2.008 . S
Co535 N534 2.008 . S
Co535 N536 1.995 . S
Co535 N541 2.008 1_545 S
Co535 N546 1.995 1_545 S
Co535 N551 2.282 1_545 S
Co535 N557 2.282 . S
N536 Co535 1.995 . S
N536 C537 1.376 . S
N536 C540 1.383 . S
C537 N536 1.376 . S
C537 C538 1.446 . S
C537 C567 1.391 . S
C538 C537 1.446 . S
C538 C539 1.339 . S
C538 H573 0.949 . S
C539 C538 1.339 . S
C539 C540 1.439 . S
C539 H574 0.950 . S
C540 N536 1.383 . S
C540 C539 1.439 . S
C540 C569 1.392 1_545 S
N541 Co535 2.008 1_565 S
N541 C542 1.376 . S
N541 C545 1.374 . S
C542 N541 1.376 . S
C542 C543 1.443 . S
C542 C569 1.389 . S
C543 C542 1.443 . S
C543 C544 1.340 . S
C543 H575 0.951 . S
C544 C543 1.340 . S
C544 C545 1.439 . S
C544 H576 0.950 . S
C545 N541 1.374 . S
C545 C544 1.439 . S
C545 C570 1.395 . S
N546 Co535 1.995 1_565 S
N546 C547 1.376 . S
N546 C550 1.383 . S
C547 N546 1.376 . S
C547 C548 1.446 . S
C547 C570 1.391 . S
C548 C547 1.446 . S
C548 C549 1.339 . S
C548 H577 0.949 . S
C549 C548 1.339 . S
C549 C550 1.439 . S
C549 H578 0.950 . S
C550 N546 1.383 . S
C550 C549 1.439 . S
C550 C568 1.392 1_565 S
N551 Co535 2.282 1_565 S
N551 C554 1.332 . S
N551 C556 1.332 1_565 S
C552 C553 1.386 . S
C552 C555 1.388 1_565 S
C553 C552 1.386 . S
C553 C554 1.382 . S
C553 H579 0.950 . S
C554 N551 1.332 . S
C554 C553 1.382 . S
C554 H565 0.952 . S
C555 C552 1.388 1_545 S
C555 C556 1.382 . S
C555 H580 0.950 . S
C556 N551 1.332 1_545 S
C556 C555 1.382 . S
C556 H566 0.948 . S
N557 Co535 2.282 . S
N557 C561 1.332 . S
N557 C562 1.332 1_545 S
C558 C559 1.388 1_565 S
C558 C562 1.382 . S
C558 H581 0.950 . S
C559 C558 1.388 1_545 S
C559 C560 1.386 . S
C560 C559 1.386 . S
C560 C561 1.382 . S
C560 H582 0.950 . S
C561 N557 1.332 . S
C561 C560 1.382 . S
C561 H563 0.952 . S
C562 N557 1.332 1_565 S
C562 C558 1.382 . S
C562 H564 0.948 . S
H563 C561 0.952 . S
H564 C562 0.948 . S
H565 C554 0.952 . S
H566 C556 0.948 . S
C567 C533 1.395 . S
C567 C537 1.391 . S
C568 C530 1.389 . S
C568 C550 1.392 1_545 S
C569 C540 1.392 1_565 S
C569 C542 1.389 . S
C570 C545 1.395 . S
C570 C547 1.391 . S
H571 C531 0.951 . S
H572 C532 0.950 . S
H573 C538 0.949 . S
H574 C539 0.950 . S
H575 C543 0.951 . S
H576 C544 0.950 . S
H577 C548 0.949 . S
H578 C549 0.950 . S
H579 C553 0.950 . S
H580 C555 0.950 . S
H581 C558 0.950 . S
H582 C560 0.950 . S
C583 C584 1.443 . S
C583 N587 1.376 . S
C583 C621 1.389 1_556 S
C584 C583 1.443 . S
C584 C585 1.340 . S
C584 H624 0.951 . S
C585 C584 1.340 . S
C585 C586 1.439 . S
C585 H625 0.950 . S
C586 C585 1.439 . S
C586 N587 1.374 . S
C586 C620 1.395 . S
N587 C583 1.376 . S
N587 C586 1.374 . S
N587 Co588 2.008 1_556 S
Co588 N587 2.008 1_554 S
Co588 N589 1.995 . S
Co588 N594 2.008 . S
Co588 N599 1.995 . S
Co588 N604 2.282 . S
Co588 N610 2.282 . S
N589 Co588 1.995 . S
N589 C590 1.376 1_554 S
N589 C593 1.383 . S
C590 N589 1.376 1_556 S
C590 C591 1.446 . S
C590 C620 1.391 . S
C591 C590 1.446 . S
C591 C592 1.339 . S
C591 H626 0.949 . S
C592 C591 1.339 . S
C592 C593 1.439 1_556 S
C592 H627 0.950 . S
C593 N589 1.383 . S
C593 C592 1.439 1_554 S
C593 C622 1.392 . S
N594 Co588 2.008 . S
N594 C595 1.376 . S
N594 C598 1.374 . S
C595 N594 1.376 . S
C595 C596 1.443 . S
C595 C622 1.389 . S
C596 C595 1.443 . S
C596 C597 1.340 . S
C596 H628 0.951 . S
C597 C596 1.340 . S
C597 C598 1.439 . S
C597 H629 0.950 . S
C598 N594 1.374 . S
C598 C597 1.439 . S
C598 C623 1.395 . S
N599 Co588 1.995 . S
N599 C600 1.376 . S
N599 C603 1.383 . S
C600 N599 1.376 . S
C600 C601 1.446 . S
C600 C623 1.391 . S
C601 C600 1.446 . S
C601 C602 1.339 . S
C601 H630 0.949 . S
C602 C601 1.339 . S
C602 C603 1.439 . S
C602 H631 0.950 . S
C603 N599 1.383 . S
C603 C602 1.439 . S
C603 C621 1.392 . S
N604 Co588 2.282 . S
N604 C607 1.332 . S
N604 C609 1.332 . S
C605 C606 1.386 . S
C605 C608 1.388 . S
C606 C605 1.386 . S
C606 C607 1.382 . S
C606 H632 0.950 . S
C607 N604 1.332 . S
C607 C606 1.382 . S
C607 H618 0.952 . S
C608 C605 1.388 . S
C608 C609 1.382 . S
C608 H633 0.950 . S
C609 N604 1.332 . S
C609 C608 1.382 . S
C609 H619 0.961 . S
N610 Co588 2.282 . S
N610 C614 1.332 . S
N610 C615 1.332 . S
C611 C612 1.388 . S
C611 C615 1.382 . S
C611 H634 0.950 . S
C612 C611 1.388 . S
C612 C613 1.386 1_554 S
C613 C612 1.386 1_556 S
C613 C614 1.382 1_556 S
C613 H635 0.950 . S
C614 N610 1.332 . S
C614 C613 1.382 1_554 S
C614 H616 0.952 1_554 S
C615 N610 1.332 . S
C615 C611 1.382 . S
C615 H617 0.948 . S
H616 C614 0.952 1_556 S
H617 C615 0.948 . S
H618 C607 0.952 . S
H619 C609 0.961 . S
C620 C586 1.395 . S
C620 C590 1.391 . S
C621 C583 1.389 1_554 S
C621 C603 1.392 . S
C622 C593 1.392 . S
C622 C595 1.389 . S
C623 C598 1.395 . S
C623 C600 1.391 . S
H624 C584 0.951 . S
H625 C585 0.950 . S
H626 C591 0.949 . S
H627 C592 0.950 . S
H628 C596 0.951 . S
H629 C597 0.950 . S
H630 C601 0.949 . S
H631 C602 0.950 . S
H632 C606 0.950 . S
H633 C608 0.950 . S
H634 C611 0.950 . S
H635 C613 0.950 . S
O636 Mg637 1.990 . S
O636 C650 1.253 . S
Mg637 O636 1.990 . S
Mg637 O640 2.180 . S
Mg637 O641 2.117 . S
Mg637 O655 2.030 . S
O638 Mg639 2.072 . S
O638 C650 1.260 . S
Mg639 O638 2.072 . S
Mg639 O640 2.099 . S
Mg639 O642 2.079 . S
Mg639 O643 2.072 . S
Mg639 O645 2.099 . S
Mg639 O656 2.079 . S
O640 Mg637 2.180 . S
O640 Mg639 2.099 . S
O640 C651 1.279 . S
O641 Mg637 2.117 . S
O641 C651 1.250 . S
O642 Mg639 2.079 . S
O642 C652 1.264 . S
O643 Mg639 2.072 . S
O643 C653 1.260 . S
Mg644 O645 2.180 . S
Mg644 O646 2.050 . S
Mg644 O647 1.990 . S
Mg644 O648 2.117 . S
O645 Mg639 2.099 . S
O645 Mg644 2.180 . S
O645 C654 1.279 . S
O646 Mg644 2.050 . S
O646 C652 1.249 . S
O647 Mg644 1.990 . S
O647 C653 1.253 . S
O648 Mg644 2.117 . S
O648 C654 1.250 . S
C649 O655 1.248 . S
C649 O656 1.264 . S
C650 O636 1.253 . S
C650 O638 1.260 . S
C651 O640 1.279 . S
C651 O641 1.250 . S
C652 O642 1.264 . S
C652 O646 1.249 . S
C653 O643 1.260 . S
C653 O647 1.253 . S
C654 O645 1.279 . S
C654 O648 1.250 . S
O655 Mg637 2.030 . S
O655 C649 1.248 . S
O656 Mg639 2.079 . S
O656 C649 1.264 . S
O657 Mg658 1.990 . S
O657 C671 1.253 . S
Mg658 O657 1.990 . S
Mg658 O661 2.180 . S
Mg658 O662 2.117 . S
Mg658 O676 2.030 . S
O659 Mg660 2.072 . S
O659 C671 1.260 . S
Mg660 O659 2.072 . S
Mg660 O661 2.099 . S
Mg660 O663 2.079 . S
Mg660 O664 2.072 . S
Mg660 O666 2.099 . S
Mg660 O677 2.079 . S
O661 Mg658 2.180 . S
O661 Mg660 2.099 . S
O661 C672 1.279 . S
O662 Mg658 2.117 . S
O662 C672 1.250 . S
O663 Mg660 2.079 . S
O663 C673 1.264 . S
O664 Mg660 2.072 . S
O664 C674 1.260 . S
Mg665 O666 2.180 . S
Mg665 O667 2.038 . S
Mg665 O668 1.990 . S
Mg665 O669 2.117 1_655 S
O666 Mg660 2.099 . S
O666 Mg665 2.180 . S
O666 C675 1.279 . S
O667 Mg665 2.038 . S
O667 C673 1.252 . S
O668 Mg665 1.990 . S
O668 C674 1.253 . S
O669 Mg665 2.117 1_455 S
O669 C675 1.250 1_455 S
C670 O676 1.248 . S
C670 O677 1.264 . S
C671 O657 1.253 . S
C671 O659 1.260 . S
C672 O661 1.279 . S
C672 O662 1.250 . S
C673 O663 1.264 . S
C673 O667 1.252 . S
C674 O664 1.260 . S
C674 O668 1.253 . S
C675 O666 1.279 . S
C675 O669 1.250 1_655 S
O676 Mg658 2.030 . S
O676 C670 1.248 . S
O677 Mg660 2.079 . S
O677 C670 1.264 . S
O678 Mg679 1.990 . S
O678 C692 1.253 . S
Mg679 O678 1.990 . S
Mg679 O682 2.180 . S
Mg679 O683 2.117 . S
Mg679 O697 2.030 . S
O680 Mg681 2.072 . S
O680 C692 1.260 . S
Mg681 O680 2.072 . S
Mg681 O682 2.099 . S
Mg681 O684 2.079 . S
Mg681 O685 2.072 . S
Mg681 O687 2.099 . S
Mg681 O698 2.079 . S
O682 Mg679 2.180 . S
O682 Mg681 2.099 . S
O682 C693 1.279 . S
O683 Mg679 2.117 . S
O683 C693 1.250 . S
O684 Mg681 2.079 . S
O684 C694 1.260 1_455 S
O685 Mg681 2.072 . S
O685 C695 1.260 . S
Mg686 O687 2.180 . S
Mg686 O688 2.026 1_455 S
Mg686 O689 1.990 . S
Mg686 O690 2.100 1_565 S
O687 Mg681 2.099 . S
O687 Mg686 2.180 . S
O687 C696 1.279 . S
O688 Mg686 2.026 1_655 S
O688 C694 1.247 . S
O689 Mg686 1.990 . S
O689 C695 1.253 . S
O690 Mg686 2.100 1_545 S
O690 C696 1.233 1_545 S
C691 O697 1.248 . S
C691 O698 1.264 . S
C692 O678 1.253 . S
C692 O680 1.260 . S
C693 O682 1.279 . S
C693 O683 1.250 . S
C694 O684 1.260 1_655 S
C694 O688 1.247 . S
C695 O685 1.260 . S
C695 O689 1.253 . S
C696 O687 1.279 . S
C696 O690 1.233 1_565 S
O697 Mg679 2.030 . S
O697 C691 1.248 . S
O698 Mg681 2.079 . S
O698 C691 1.264 . S
O699 Mg700 1.990 . S
O699 C713 1.253 . S
Mg700 O699 1.990 . S
Mg700 O703 2.180 . S
Mg700 O704 2.117 . S
Mg700 O718 2.030 . S
O701 Mg702 2.072 . S
O701 C713 1.260 . S
Mg702 O701 2.072 . S
Mg702 O703 2.099 . S
Mg702 O705 2.079 . S
Mg702 O706 2.072 . S
Mg702 O708 2.099 . S
Mg702 O719 2.079 . S
O703 Mg700 2.180 . S
O703 Mg702 2.099 . S
O703 C714 1.279 . S
O704 Mg700 2.117 . S
O704 C714 1.250 . S
O705 Mg702 2.079 . S
O705 C715 1.264 . S
O706 Mg702 2.072 . S
O706 C716 1.260 . S
Mg707 O708 2.180 . S
Mg707 O709 2.030 . S
Mg707 O710 1.990 . S
Mg707 O711 2.117 . S
O708 Mg702 2.099 . S
O708 Mg707 2.180 . S
O708 C717 1.279 . S
O709 Mg707 2.030 . S
O709 C715 1.248 . S
O710 Mg707 1.990 . S
O710 C716 1.253 . S
O711 Mg707 2.117 . S
O711 C717 1.250 . S
C712 O718 1.248 . S
C712 O719 1.264 . S
C713 O699 1.253 . S
C713 O701 1.260 . S
C714 O703 1.279 . S
C714 O704 1.250 . S
C715 O705 1.264 . S
C715 O709 1.248 . S
C716 O706 1.260 . S
C716 O710 1.253 . S
C717 O708 1.279 . S
C717 O711 1.250 . S
O718 Mg700 2.030 . S
O718 C712 1.248 . S
O719 Mg702 2.079 . S
O719 C712 1.264 . S
O720 Mg721 1.990 . S
O720 C734 1.253 . S
Mg721 O720 1.990 . S
Mg721 O724 2.180 . S
Mg721 O725 2.117 . S
Mg721 O739 2.030 . S
O722 Mg723 2.072 . S
O722 C734 1.260 . S
Mg723 O722 2.072 . S
Mg723 O724 2.099 . S
Mg723 O726 2.079 . S
Mg723 O727 2.072 . S
Mg723 O729 2.099 . S
Mg723 O740 2.079 . S
O724 Mg721 2.180 . S
O724 Mg723 2.099 . S
O724 C735 1.279 . S
O725 Mg721 2.117 . S
O725 C735 1.250 . S
O726 Mg723 2.079 . S
O726 C736 1.264 . S
O727 Mg723 2.072 . S
O727 C737 1.260 . S
Mg728 O729 2.180 . S
Mg728 O730 2.030 . S
Mg728 O731 1.990 . S
Mg728 O732 2.117 . S
O729 Mg723 2.099 . S
O729 Mg728 2.180 . S
O729 C738 1.279 . S
O730 Mg728 2.030 . S
O730 C736 1.248 . S
O731 Mg728 1.990 . S
O731 C737 1.253 . S
O732 Mg728 2.117 . S
O732 C738 1.250 . S
C733 O739 1.248 . S
C733 O740 1.264 . S
C734 O720 1.253 . S
C734 O722 1.260 . S
C735 O724 1.279 . S
C735 O725 1.250 . S
C736 O726 1.264 . S
C736 O730 1.248 . S
C737 O727 1.260 . S
C737 O731 1.253 . S
C738 O729 1.279 . S
C738 O732 1.250 . S
O739 Mg721 2.030 . S
O739 C733 1.248 . S
O740 Mg723 2.079 . S
O740 C733 1.264 . S
O741 Mg742 1.990 . S
O741 C755 1.253 . S
Mg742 O741 1.990 . S
Mg742 O745 2.180 . S
Mg742 O746 2.117 . S
Mg742 O760 2.030 . S
O743 Mg744 2.072 . S
O743 C755 1.260 . S
Mg744 O743 2.072 . S
Mg744 O745 2.099 . S
Mg744 O747 2.079 . S
Mg744 O748 2.072 . S
Mg744 O750 2.099 . S
Mg744 O761 2.079 . S
O745 Mg742 2.180 . S
O745 Mg744 2.099 . S
O745 C756 1.279 . S
O746 Mg742 2.117 . S
O746 C756 1.250 . S
O747 Mg744 2.079 . S
O747 C757 1.264 . S
O748 Mg744 2.072 . S
O748 C758 1.260 . S
Mg749 O750 2.180 . S
Mg749 O751 2.030 . S
Mg749 O752 1.990 . S
Mg749 O753 2.117 . S
O750 Mg744 2.099 . S
O750 Mg749 2.180 . S
O750 C759 1.279 . S
O751 Mg749 2.030 . S
O751 C757 1.248 . S
O752 Mg749 1.990 . S
O752 C758 1.253 . S
O753 Mg749 2.117 . S
O753 C759 1.250 . S
C754 O760 1.248 . S
C754 O761 1.264 . S
C755 O741 1.253 . S
C755 O743 1.260 . S
C756 O745 1.279 . S
C756 O746 1.250 . S
C757 O747 1.264 . S
C757 O751 1.248 . S
C758 O748 1.260 . S
C758 O752 1.253 . S
C759 O750 1.279 . S
C759 O753 1.250 . S
O760 Mg742 2.030 . S
O760 C754 1.248 . S
O761 Mg744 2.079 . S
O761 C754 1.264 . S
O762 Mg763 1.990 . S
O762 C776 1.253 . S
Mg763 O762 1.990 . S
Mg763 O766 2.180 . S
Mg763 O767 2.117 . S
Mg763 O781 2.030 . S
O764 Mg765 2.072 . S
O764 C776 1.260 . S
Mg765 O764 2.072 . S
Mg765 O766 2.099 . S
Mg765 O768 2.079 . S
Mg765 O769 2.072 . S
Mg765 O771 2.099 . S
Mg765 O782 2.079 . S
O766 Mg763 2.180 . S
O766 Mg765 2.099 . S
O766 C777 1.279 . S
O767 Mg763 2.117 . S
O767 C777 1.250 . S
O768 Mg765 2.079 . S
O768 C778 1.264 . S
O769 Mg765 2.072 . S
O769 C779 1.260 . S
Mg770 O771 2.180 . S
Mg770 O772 2.030 . S
Mg770 O773 1.990 . S
Mg770 O774 2.117 . S
O771 Mg765 2.099 . S
O771 Mg770 2.180 . S
O771 C780 1.279 . S
O772 Mg770 2.030 . S
O772 C778 1.248 . S
O773 Mg770 1.990 . S
O773 C779 1.253 . S
O774 Mg770 2.117 . S
O774 C780 1.250 . S
C775 O781 1.248 . S
C775 O782 1.264 . S
C776 O762 1.253 . S
C776 O764 1.260 . S
C777 O766 1.279 . S
C777 O767 1.250 . S
C778 O768 1.264 . S
C778 O772 1.248 . S
C779 O769 1.260 . S
C779 O773 1.253 . S
C780 O771 1.279 . S
C780 O774 1.250 . S
O781 Mg763 2.030 . S
O781 C775 1.248 . S
O782 Mg765 2.079 . S
O782 C775 1.264 . S
O783 Mg784 1.990 . S
O783 C797 1.253 . S
Mg784 O783 1.990 . S
Mg784 O787 2.180 . S
Mg784 O788 2.117 . S
Mg784 O802 2.030 . S
O785 Mg786 2.072 . S
O785 C797 1.260 . S
Mg786 O785 2.072 . S
Mg786 O787 2.099 . S
Mg786 O789 2.079 . S
Mg786 O790 2.072 . S
Mg786 O792 2.099 . S
Mg786 O803 2.079 . S
O787 Mg784 2.180 . S
O787 Mg786 2.099 . S
O787 C798 1.279 . S
O788 Mg784 2.117 . S
O788 C798 1.250 . S
O789 Mg786 2.079 . S
O789 C799 1.264 . S
O790 Mg786 2.072 . S
O790 C800 1.260 . S
Mg791 O792 2.180 . S
Mg791 O793 2.030 . S
Mg791 O794 1.990 . S
Mg791 O795 2.117 . S
O792 Mg786 2.099 . S
O792 Mg791 2.180 . S
O792 C801 1.279 . S
O793 Mg791 2.030 . S
O793 C799 1.248 . S
O794 Mg791 1.990 . S
O794 C800 1.253 . S
O795 Mg791 2.117 . S
O795 C801 1.250 . S
C796 O802 1.248 . S
C796 O803 1.264 . S
C797 O783 1.253 . S
C797 O785 1.260 . S
C798 O787 1.279 . S
C798 O788 1.250 . S
C799 O789 1.264 . S
C799 O793 1.248 . S
C800 O790 1.260 . S
C800 O794 1.253 . S
C801 O792 1.279 . S
C801 O795 1.250 . S
O802 Mg784 2.030 . S
O802 C796 1.248 . S
O803 Mg786 2.079 . S
O803 C796 1.264 . S
H804 C822 0.951 . S
H805 C824 0.951 . S
H806 C826 0.950 . S
H807 C827 0.950 . S
H808 C829 0.950 . S
H809 C832 0.950 . S
H810 C833 0.950 . S
H811 C835 0.950 . S
H812 C836 0.950 . S
H813 C837 0.951 . S
H814 C839 0.951 . S
H815 C841 0.950 . S
H816 C842 0.950 . S
H817 C844 0.950 . S
H818 C847 0.951 . S
H819 C848 0.952 . S
H820 C850 0.950 . S
H821 C851 0.950 . S
C822 H804 0.951 . S
C822 C823 1.366 . S
C822 C824 1.388 . S
C823 C822 1.366 . S
C823 C827 1.385 . S
C824 H805 0.951 . S
C824 C822 1.388 . S
C824 C825 1.366 . S
C825 C824 1.366 . S
C825 C826 1.414 . S
C825 C828 1.499 . S
C826 H806 0.950 . S
C826 C825 1.414 . S
C826 C827 1.374 . S
C827 H807 0.950 . S
C827 C823 1.385 . S
C827 C826 1.374 . S
C828 C825 1.499 . S
C828 C829 1.373 . S
C828 C830 1.389 . S
C829 H808 0.950 . S
C829 C828 1.373 . S
C829 C845 1.377 . S
C830 C828 1.389 . S
C830 C831 1.524 . S
C830 C844 1.377 . S
C831 C830 1.524 . S
C831 C832 1.397 . S
C831 C836 1.363 . S
C832 H809 0.950 . S
C832 C831 1.397 . S
C832 C833 1.334 . S
C833 H810 0.950 . S
C833 C832 1.334 . S
C833 C834 1.287 . S
C834 C833 1.287 . S
C834 C835 1.524 . S
C834 H853 0.913 . S
C835 H811 0.950 . S
C835 C834 1.524 . S
C835 C836 1.415 . S
C836 H812 0.950 . S
C836 C831 1.363 . S
C836 C835 1.415 . S
C837 H813 0.951 . S
C837 C838 1.366 . S
C837 C839 1.388 . S
C838 C837 1.366 . S
C838 C842 1.385 . S
C839 H814 0.951 . S
C839 C837 1.388 . S
C839 C840 1.366 . S
C840 C839 1.366 . S
C840 C841 1.414 . S
C840 C843 1.499 . S
C841 H815 0.950 . S
C841 C840 1.414 . S
C841 C842 1.374 . S
C842 H816 0.950 . S
C842 C838 1.385 . S
C842 C841 1.374 . S
C843 C840 1.499 . S
C843 C844 1.373 . S
C843 C845 1.389 . S
C844 H817 0.950 . S
C844 C830 1.377 . S
C844 C843 1.373 . S
C845 C829 1.377 . S
C845 C843 1.389 . S
C845 C846 1.524 . S
C846 C845 1.524 . S
C846 C847 1.397 . S
C846 C851 1.363 . S
C847 H818 0.951 . S
C847 C846 1.397 . S
C847 C848 1.334 1_455 S
C848 H819 0.952 . S
C848 C847 1.334 1_655 S
C848 C849 1.286 1_655 S
C849 C848 1.286 1_455 S
C849 C850 1.524 . S
C849 H852 0.999 . S
C850 H820 0.950 . S
C850 C849 1.524 . S
C850 C851 1.415 . S
C851 H821 0.950 . S
C851 C846 1.363 . S
C851 C850 1.415 . S
H852 C849 0.999 . S
H853 C834 0.913 . S
H854 C872 0.951 . S
H855 C874 0.951 . S
H856 C876 0.950 . S
H857 C877 0.950 . S
H858 C879 0.950 . S
H859 C882 0.950 . S
H860 C883 0.950 . S
H861 C885 0.950 . S
H862 C886 0.950 . S
H863 C887 0.951 . S
H864 C889 0.951 . S
H865 C891 0.950 . S
H866 C892 0.950 1_455 S
H867 C894 0.950 . S
H868 C897 0.950 . S
H869 C898 0.950 . S
H870 C900 0.950 . S
H871 C901 0.950 . S
C872 H854 0.951 . S
C872 C873 1.366 . S
C872 C874 1.388 . S
C873 C872 1.366 . S
C873 C877 1.385 1_455 S
C874 H855 0.951 . S
C874 C872 1.388 . S
C874 C875 1.366 . S
C875 C874 1.366 . S
C875 C876 1.414 1_455 S
C875 C878 1.510 . S
C876 H856 0.950 . S
C876 C875 1.414 1_655 S
C876 C877 1.374 . S
C877 H857 0.950 . S
C877 C873 1.385 1_655 S
C877 C876 1.374 . S
C878 C875 1.510 . S
C878 C879 1.352 1_455 S
C878 C880 1.401 . S
C879 H858 0.950 . S
C879 C878 1.352 1_655 S
C879 C895 1.377 . S
C880 C878 1.401 . S
C880 C881 1.524 . S
C880 C894 1.377 . S
C881 C880 1.524 . S
C881 C882 1.397 . S
C881 C886 1.363 . S
C882 H859 0.950 . S
C882 C881 1.397 . S
C882 C883 1.334 . S
C883 H860 0.950 . S
C883 C882 1.334 . S
C883 C884 1.287 . S
C884 C883 1.287 . S
C884 C885 1.524 . S
C884 H903 0.913 . S
C885 H861 0.950 . S
C885 C884 1.524 . S
C885 C886 1.415 . S
C886 H862 0.950 . S
C886 C881 1.363 . S
C886 C885 1.415 . S
C887 H863 0.951 . S
C887 C888 1.366 . S
C887 C889 1.388 . S
C888 C887 1.366 . S
C888 C892 1.385 . S
C889 H864 0.951 . S
C889 C887 1.388 . S
C889 C890 1.366 . S
C890 C889 1.366 . S
C890 C891 1.414 1_655 S
C890 C893 1.499 . S
C891 H865 0.950 . S
C891 C890 1.414 1_455 S
C891 C892 1.374 1_455 S
C892 H866 0.950 1_655 S
C892 C888 1.385 . S
C892 C891 1.374 1_655 S
C893 C890 1.499 . S
C893 C894 1.373 1_655 S
C893 C895 1.389 . S
C894 H867 0.950 . S
C894 C880 1.377 . S
C894 C893 1.373 1_455 S
C895 C879 1.377 . S
C895 C893 1.389 . S
C895 C896 1.524 . S
C896 C895 1.524 . S
C896 C897 1.397 . S
C896 C901 1.363 . S
C897 H868 0.950 . S
C897 C896 1.397 . S
C897 C898 1.334 . S
C898 H869 0.950 . S
C898 C897 1.334 . S
C898 C899 1.287 . S
C899 C898 1.287 . S
C899 C900 1.524 . S
C899 H902 0.999 . S
C900 H870 0.950 . S
C900 C899 1.524 . S
C900 C901 1.415 . S
C901 H871 0.950 . S
C901 C896 1.363 . S
C901 C900 1.415 . S
H902 C899 0.999 . S
H903 C884 0.913 . S
H904 C922 0.951 . S
H905 C924 0.951 . S
H906 C926 0.950 . S
H907 C927 0.950 . S
H908 C929 0.950 . S
H909 C932 0.950 . S
H910 C933 0.950 . S
H911 C935 0.950 . S
H912 C936 0.950 . S
H913 C937 0.962 . S
H914 C939 0.951 . S
H915 C941 0.950 . S
H916 C942 0.950 . S
H917 C944 0.950 . S
H918 C947 0.950 1_455 S
H919 C948 0.950 . S
H920 C950 0.950 . S
H921 C951 0.950 . S
C922 H904 0.951 . S
C922 C923 1.366 . S
C922 C924 1.388 . S
C923 C922 1.366 . S
C923 C927 1.385 . S
C924 H905 0.951 . S
C924 C922 1.388 . S
C924 C925 1.366 . S
C925 C924 1.366 . S
C925 C926 1.414 . S
C925 C928 1.499 . S
C926 H906 0.950 . S
C926 C925 1.414 . S
C926 C927 1.374 . S
C927 H907 0.950 . S
C927 C923 1.385 . S
C927 C926 1.374 . S
C928 C925 1.499 . S
C928 C929 1.373 . S
C928 C930 1.389 . S
C929 H908 0.950 . S
C929 C928 1.373 . S
C929 C945 1.377 . S
C930 C928 1.389 . S
C930 C931 1.524 . S
C930 C944 1.377 . S
C931 C930 1.524 . S
C931 C932 1.397 . S
C931 C936 1.363 . S
C932 H909 0.950 . S
C932 C931 1.397 . S
C932 C933 1.334 . S
C933 H910 0.950 . S
C933 C932 1.334 . S
C933 C934 1.287 . S
C934 C933 1.287 . S
C934 C935 1.524 . S
C934 H953 0.913 . S
C935 H911 0.950 . S
C935 C934 1.524 . S
C935 C936 1.415 . S
C936 H912 0.950 . S
C936 C931 1.363 . S
C936 C935 1.415 . S
C937 H913 0.962 . S
C937 C938 1.370 . S
C937 C939 1.372 1_545 S
C938 C937 1.370 . S
C938 C942 1.385 1_545 S
C939 H914 0.951 . S
C939 C937 1.372 1_565 S
C939 C940 1.366 . S
C940 C939 1.366 . S
C940 C941 1.414 . S
C940 C943 1.499 . S
C941 H915 0.950 . S
C941 C940 1.414 . S
C941 C942 1.374 . S
C942 H916 0.950 . S
C942 C938 1.385 1_565 S
C942 C941 1.374 . S
C943 C940 1.499 . S
C943 C944 1.373 . S
C943 C945 1.389 . S
C944 H917 0.950 . S
C944 C930 1.377 . S
C944 C943 1.373 . S
C945 C929 1.377 . S
C945 C943 1.389 . S
C945 C946 1.524 . S
C946 C945 1.524 . S
C946 C947 1.397 1_455 S
C946 C951 1.363 1_455 S
C947 H918 0.950 1_655 S
C947 C946 1.397 1_655 S
C947 C948 1.334 . S
C948 H919 0.950 . S
C948 C947 1.334 . S
C948 C949 1.287 . S
C949 C948 1.287 . S
C949 C950 1.524 . S
C949 H952 0.999 . S
C950 H920 0.950 . S
C950 C949 1.524 . S
C950 C951 1.415 . S
C951 H921 0.950 . S
C951 C946 1.363 1_655 S
C951 C950 1.415 . S
H952 C949 0.999 . S
H953 C934 0.913 . S
H954 C972 0.951 . S
H955 C974 0.951 . S
H956 C976 0.950 . S
H957 C977 0.950 . S
H958 C979 0.974 . S
H959 C982 0.950 . S
H960 C983 0.950 . S
H961 C985 0.950 . S
H962 C986 0.950 . S
H963 C987 0.930 1_455 S
H964 C989 0.951 1_455 S
H965 C991 0.950 . S
H966 C992 0.950 . S
H967 C994 0.950 . S
H968 C997 0.950 . S
H969 C998 0.950 1_655 S
H970 C1000 0.950 . S
H971 C1001 0.950 . S
C972 H954 0.951 . S
C972 C973 1.366 1_655 S
C972 C974 1.388 . S
C973 C972 1.366 1_455 S
C973 C977 1.385 . S
C974 H955 0.951 . S
C974 C972 1.388 . S
C974 C975 1.366 . S
C975 C974 1.366 . S
C975 C976 1.414 1_655 S
C975 C978 1.499 . S
C976 H956 0.950 . S
C976 C975 1.414 1_455 S
C976 C977 1.374 . S
C977 H957 0.950 . S
C977 C973 1.385 . S
C977 C976 1.374 . S
C978 C975 1.499 . S
C978 C979 1.355 1_655 S
C978 C980 1.389 . S
C979 H958 0.974 . S
C979 C978 1.355 1_455 S
C979 C995 1.372 1_455 S
C980 C978 1.389 . S
C980 C981 1.524 . S
C980 C994 1.377 . S
C981 C980 1.524 . S
C981 C982 1.397 . S
C981 C986 1.363 . S
C982 H959 0.950 . S
C982 C981 1.397 . S
C982 C983 1.334 . S
C983 H960 0.950 . S
C983 C982 1.334 . S
C983 C984 1.287 . S
C984 C983 1.287 . S
C984 C985 1.524 . S
C984 H1003 0.913 . S
C985 H961 0.950 . S
C985 C984 1.524 . S
C985 C986 1.415 . S
C986 H962 0.950 . S
C986 C981 1.363 . S
C986 C985 1.415 . S
C987 H963 0.930 1_655 S
C987 C988 1.366 . S
C987 C989 1.388 . S
C988 C987 1.366 . S
C988 C992 1.385 . S
C989 H964 0.951 1_655 S
C989 C987 1.388 . S
C989 C990 1.366 . S
C990 C989 1.366 . S
C990 C991 1.414 . S
C990 C993 1.499 . S
C991 H965 0.950 . S
C991 C990 1.414 . S
C991 C992 1.374 . S
C992 H966 0.950 . S
C992 C988 1.385 . S
C992 C991 1.374 . S
C993 C990 1.499 . S
C993 C994 1.373 . S
C993 C995 1.389 . S
C994 H967 0.950 . S
C994 C980 1.377 . S
C994 C993 1.373 . S
C995 C979 1.372 1_655 S
C995 C993 1.389 . S
C995 C996 1.524 1_655 S
C996 C995 1.524 1_455 S
C996 C997 1.397 1_455 S
C996 C1001 1.363 . S
C997 H968 0.950 . S
C997 C996 1.397 1_655 S
C997 C998 1.334 1_655 S
C998 H969 0.950 1_455 S
C998 C997 1.334 1_455 S
C998 C999 1.288 . S
C999 C998 1.288 . S
C999 C1000 1.524 . S
C999 H1002 0.978 1_554 S
C1000 H970 0.950 . S
C1000 C999 1.524 . S
C1000 C1001 1.415 . S
C1001 H971 0.950 . S
C1001 C996 1.363 . S
C1001 C1000 1.415 . S
H1002 C999 0.978 1_556 S
H1003 C984 0.913 . S
H1004 C1022 0.951 . S
H1005 C1024 0.951 . S
H1006 C1026 0.950 . S
H1007 C1027 0.950 . S
H1008 C1029 0.950 . S
H1009 C1032 0.950 . S
H1010 C1033 0.950 . S
H1011 C1035 0.950 . S
H1012 C1036 0.950 . S
H1013 C1037 0.951 . S
H1014 C1039 0.951 . S
H1015 C1041 0.950 . S
H1016 C1042 0.950 . S
H1017 C1044 0.950 . S
H1018 C1047 0.950 . S
H1019 C1048 0.950 . S
H1020 C1050 0.950 . S
H1021 C1051 0.950 . S
C1022 H1004 0.951 . S
C1022 C1023 1.366 . S
C1022 C1024 1.388 . S
C1023 C1022 1.366 . S
C1023 C1027 1.385 . S
C1024 H1005 0.951 . S
C1024 C1022 1.388 . S
C1024 C1025 1.366 . S
C1025 C1024 1.366 . S
C1025 C1026 1.414 . S
C1025 C1028 1.499 . S
C1026 H1006 0.950 . S
C1026 C1025 1.414 . S
C1026 C1027 1.374 . S
C1027 H1007 0.950 . S
C1027 C1023 1.385 . S
C1027 C1026 1.374 . S
C1028 C1025 1.499 . S
C1028 C1029 1.373 . S
C1028 C1030 1.389 . S
C1029 H1008 0.950 . S
C1029 C1028 1.373 . S
C1029 C1045 1.377 . S
C1030 C1028 1.389 . S
C1030 C1031 1.524 . S
C1030 C1044 1.377 . S
C1031 C1030 1.524 . S
C1031 C1032 1.397 . S
C1031 C1036 1.363 . S
C1032 H1009 0.950 . S
C1032 C1031 1.397 . S
C1032 C1033 1.334 . S
C1033 H1010 0.950 . S
C1033 C1032 1.334 . S
C1033 C1034 1.287 . S
C1034 C1033 1.287 . S
C1034 C1035 1.524 . S
C1034 H1053 0.913 . S
C1035 H1011 0.950 . S
C1035 C1034 1.524 . S
C1035 C1036 1.415 . S
C1036 H1012 0.950 . S
C1036 C1031 1.363 . S
C1036 C1035 1.415 . S
C1037 H1013 0.951 . S
C1037 C1038 1.366 . S
C1037 C1039 1.388 1_556 S
C1038 C1037 1.366 . S
C1038 C1042 1.385 1_556 S
C1039 H1014 0.951 . S
C1039 C1037 1.388 1_554 S
C1039 C1040 1.366 . S
C1040 C1039 1.366 . S
C1040 C1041 1.414 . S
C1040 C1043 1.499 . S
C1041 H1015 0.950 . S
C1041 C1040 1.414 . S
C1041 C1042 1.374 . S
C1042 H1016 0.950 . S
C1042 C1038 1.385 1_554 S
C1042 C1041 1.374 . S
C1043 C1040 1.499 . S
C1043 C1044 1.373 . S
C1043 C1045 1.389 . S
C1044 H1017 0.950 . S
C1044 C1030 1.377 . S
C1044 C1043 1.373 . S
C1045 C1029 1.377 . S
C1045 C1043 1.389 . S
C1045 C1046 1.524 . S
C1046 C1045 1.524 . S
C1046 C1047 1.397 . S
C1046 C1051 1.363 1_545 S
C1047 H1018 0.950 . S
C1047 C1046 1.397 . S
C1047 C1048 1.334 1_545 S
C1048 H1019 0.950 . S
C1048 C1047 1.334 1_565 S
C1048 C1049 1.287 . S
C1049 C1048 1.287 . S
C1049 C1050 1.524 . S
C1049 H1052 0.999 . S
C1050 H1020 0.950 . S
C1050 C1049 1.524 . S
C1050 C1051 1.415 . S
C1051 H1021 0.950 . S
C1051 C1046 1.363 1_565 S
C1051 C1050 1.415 . S
H1052 C1049 0.999 . S
H1053 C1034 0.913 . S
H1054 C1072 0.951 . S
H1055 C1074 0.951 . S
H1056 C1076 0.950 . S
H1057 C1077 0.950 . S
H1058 C1079 0.950 . S
H1059 C1082 0.950 . S
H1060 C1083 0.950 . S
H1061 C1085 0.950 . S
H1062 C1086 0.950 . S
H1063 C1087 0.951 . S
H1064 C1089 0.951 . S
H1065 C1091 0.950 . S
H1066 C1092 0.950 . S
H1067 C1094 0.950 . S
H1068 C1097 0.950 . S
H1069 C1098 0.950 . S
H1070 C1100 0.950 . S
H1071 C1101 0.950 . S
C1072 H1054 0.951 . S
C1072 C1073 1.366 . S
C1072 C1074 1.388 . S
C1073 C1072 1.366 . S
C1073 C1077 1.385 . S
C1074 H1055 0.951 . S
C1074 C1072 1.388 . S
C1074 C1075 1.366 . S
C1075 C1074 1.366 . S
C1075 C1076 1.414 . S
C1075 C1078 1.499 . S
C1076 H1056 0.950 . S
C1076 C1075 1.414 . S
C1076 C1077 1.374 . S
C1077 H1057 0.950 . S
C1077 C1073 1.385 . S
C1077 C1076 1.374 . S
C1078 C1075 1.499 . S
C1078 C1079 1.373 . S
C1078 C1080 1.389 . S
C1079 H1058 0.950 . S
C1079 C1078 1.373 . S
C1079 C1095 1.377 . S
C1080 C1078 1.389 . S
C1080 C1081 1.524 . S
C1080 C1094 1.377 . S
C1081 C1080 1.524 . S
C1081 C1082 1.397 . S
C1081 C1086 1.363 . S
C1082 H1059 0.950 . S
C1082 C1081 1.397 . S
C1082 C1083 1.334 . S
C1083 H1060 0.950 . S
C1083 C1082 1.334 . S
C1083 C1084 1.287 . S
C1084 C1083 1.287 . S
C1084 C1085 1.524 . S
C1084 H1103 0.913 . S
C1085 H1061 0.950 . S
C1085 C1084 1.524 . S
C1085 C1086 1.415 . S
C1086 H1062 0.950 . S
C1086 C1081 1.363 . S
C1086 C1085 1.415 . S
C1087 H1063 0.951 . S
C1087 C1088 1.366 . S
C1087 C1089 1.388 . S
C1088 C1087 1.366 . S
C1088 C1092 1.385 . S
C1089 H1064 0.951 . S
C1089 C1087 1.388 . S
C1089 C1090 1.366 . S
C1090 C1089 1.366 . S
C1090 C1091 1.414 . S
C1090 C1093 1.499 . S
C1091 H1065 0.950 . S
C1091 C1090 1.414 . S
C1091 C1092 1.374 . S
C1092 H1066 0.950 . S
C1092 C1088 1.385 . S
C1092 C1091 1.374 . S
C1093 C1090 1.499 . S
C1093 C1094 1.373 . S
C1093 C1095 1.389 . S
C1094 H1067 0.950 . S
C1094 C1080 1.377 . S
C1094 C1093 1.373 . S
C1095 C1079 1.377 . S
C1095 C1093 1.389 . S
C1095 C1096 1.524 . S
C1096 C1095 1.524 . S
C1096 C1097 1.397 . S
C1096 C1101 1.363 . S
C1097 H1068 0.950 . S
C1097 C1096 1.397 . S
C1097 C1098 1.334 . S
C1098 H1069 0.950 . S
C1098 C1097 1.334 . S
C1098 C1099 1.287 . S
C1099 C1098 1.287 . S
C1099 C1100 1.524 . S
C1099 H1102 0.999 . S
C1100 H1070 0.950 . S
C1100 C1099 1.524 . S
C1100 C1101 1.415 . S
C1101 H1071 0.950 . S
C1101 C1096 1.363 . S
C1101 C1100 1.415 . S
H1102 C1099 0.999 . S
H1103 C1084 0.913 . S
H1104 C1122 0.951 . S
H1105 C1124 0.951 . S
H1106 C1126 0.950 . S
H1107 C1127 0.950 . S
H1108 C1129 0.950 . S
H1109 C1132 0.950 . S
H1110 C1133 0.950 . S
H1111 C1135 0.950 . S
H1112 C1136 0.950 . S
H1113 C1137 0.951 . S
H1114 C1139 0.951 . S
H1115 C1141 0.950 1_545 S
H1116 C1142 0.950 1_545 S
H1117 C1144 0.928 1_545 S
H1118 C1147 0.950 . S
H1119 C1148 0.950 . S
H1120 C1150 0.950 . S
H1121 C1151 0.950 . S
C1122 H1104 0.951 . S
C1122 C1123 1.366 1_545 S
C1122 C1124 1.388 . S
C1123 C1122 1.366 1_565 S
C1123 C1127 1.385 . S
C1124 H1105 0.951 . S
C1124 C1122 1.388 . S
C1124 C1125 1.366 1_545 S
C1125 C1124 1.366 1_565 S
C1125 C1126 1.414 . S
C1125 C1128 1.499 . S
C1126 H1106 0.950 . S
C1126 C1125 1.414 . S
C1126 C1127 1.374 . S
C1127 H1107 0.950 . S
C1127 C1123 1.385 . S
C1127 C1126 1.374 . S
C1128 C1125 1.499 . S
C1128 C1129 1.373 . S
C1128 C1130 1.389 1_565 S
C1129 H1108 0.950 . S
C1129 C1128 1.373 . S
C1129 C1145 1.377 . S
C1130 C1128 1.389 1_545 S
C1130 C1131 1.524 . S
C1130 C1144 1.371 1_545 S
C1131 C1130 1.524 . S
C1131 C1132 1.397 . S
C1131 C1136 1.363 . S
C1132 H1109 0.950 . S
C1132 C1131 1.397 . S
C1132 C1133 1.334 . S
C1133 H1110 0.950 . S
C1133 C1132 1.334 . S
C1133 C1134 1.287 . S
C1134 C1133 1.287 . S
C1134 C1135 1.524 . S
C1134 H1153 0.913 . S
C1135 H1111 0.950 . S
C1135 C1134 1.524 . S
C1135 C1136 1.415 . S
C1136 H1112 0.950 . S
C1136 C1131 1.363 . S
C1136 C1135 1.415 . S
C1137 H1113 0.951 . S
C1137 C1138 1.366 . S
C1137 C1139 1.388 . S
C1138 C1137 1.366 . S
C1138 C1142 1.385 . S
C1139 H1114 0.951 . S
C1139 C1137 1.388 . S
C1139 C1140 1.366 . S
C1140 C1139 1.366 . S
C1140 C1141 1.414 . S
C1140 C1143 1.499 . S
C1141 H1115 0.950 1_565 S
C1141 C1140 1.414 . S
C1141 C1142 1.374 . S
C1142 H1116 0.950 1_565 S
C1142 C1138 1.385 . S
C1142 C1141 1.374 . S
C1143 C1140 1.499 . S
C1143 C1144 1.401 . S
C1143 C1145 1.389 . S
C1144 H1117 0.928 1_565 S
C1144 C1130 1.371 1_565 S
C1144 C1143 1.401 . S
C1145 C1129 1.377 . S
C1145 C1143 1.389 . S
C1145 C1146 1.524 . S
C1146 C1145 1.524 . S
C1146 C1147 1.397 . S
C1146 C1151 1.363 . S
C1147 H1118 0.950 . S
C1147 C1146 1.397 . S
C1147 C1148 1.334 . S
C1148 H1119 0.950 . S
C1148 C1147 1.334 . S
C1148 C1149 1.287 . S
C1149 C1148 1.287 . S
C1149 C1150 1.524 . S
C1149 H1152 0.999 . S
C1150 H1120 0.950 . S
C1150 C1149 1.524 . S
C1150 C1151 1.415 . S
C1151 H1121 0.950 . S
C1151 C1146 1.363 . S
C1151 C1150 1.415 . S
H1152 C1149 0.999 . S
H1153 C1134 0.913 . S
H1154 C1172 0.951 . S
H1155 C1174 0.951 . S
H1156 C1176 0.950 . S
H1157 C1177 0.950 . S
H1158 C1179 0.950 . S
H1159 C1182 0.950 . S
H1160 C1183 0.950 . S
H1161 C1185 0.950 . S
H1162 C1186 0.950 . S
H1163 C1187 0.951 . S
H1164 C1189 0.951 . S
H1165 C1191 0.950 . S
H1166 C1192 0.950 . S
H1167 C1194 0.950 . S
H1168 C1197 0.950 . S
H1169 C1198 0.950 . S
H1170 C1200 0.950 . S
H1171 C1201 0.950 . S
C1172 H1154 0.951 . S
C1172 C1173 1.366 . S
C1172 C1174 1.388 . S
C1173 C1172 1.366 . S
C1173 C1177 1.385 . S
C1174 H1155 0.951 . S
C1174 C1172 1.388 . S
C1174 C1175 1.366 . S
C1175 C1174 1.366 . S
C1175 C1176 1.414 . S
C1175 C1178 1.499 . S
C1176 H1156 0.950 . S
C1176 C1175 1.414 . S
C1176 C1177 1.374 . S
C1177 H1157 0.950 . S
C1177 C1173 1.385 . S
C1177 C1176 1.374 . S
C1178 C1175 1.499 . S
C1178 C1179 1.373 . S
C1178 C1180 1.389 . S
C1179 H1158 0.950 . S
C1179 C1178 1.373 . S
C1179 C1195 1.377 . S
C1180 C1178 1.389 . S
C1180 C1181 1.524 . S
C1180 C1194 1.377 . S
C1181 C1180 1.524 . S
C1181 C1182 1.397 . S
C1181 C1186 1.363 . S
C1182 H1159 0.950 . S
C1182 C1181 1.397 . S
C1182 C1183 1.334 . S
C1183 H1160 0.950 . S
C1183 C1182 1.334 . S
C1183 C1184 1.287 . S
C1184 C1183 1.287 . S
C1184 C1185 1.524 . S
C1184 H1203 0.913 . S
C1185 H1161 0.950 . S
C1185 C1184 1.524 . S
C1185 C1186 1.415 . S
C1186 H1162 0.950 . S
C1186 C1181 1.363 . S
C1186 C1185 1.415 . S
C1187 H1163 0.951 . S
C1187 C1188 1.366 . S
C1187 C1189 1.388 . S
C1188 C1187 1.366 . S
C1188 C1192 1.385 . S
C1189 H1164 0.951 . S
C1189 C1187 1.388 . S
C1189 C1190 1.366 . S
C1190 C1189 1.366 . S
C1190 C1191 1.414 . S
C1190 C1193 1.499 . S
C1191 H1165 0.950 . S
C1191 C1190 1.414 . S
C1191 C1192 1.374 . S
C1192 H1166 0.950 . S
C1192 C1188 1.385 . S
C1192 C1191 1.374 . S
C1193 C1190 1.499 . S
C1193 C1194 1.373 . S
C1193 C1195 1.389 . S
C1194 H1167 0.950 . S
C1194 C1180 1.377 . S
C1194 C1193 1.373 . S
C1195 C1179 1.377 . S
C1195 C1193 1.389 . S
C1195 C1196 1.524 . S
C1196 C1195 1.524 . S
C1196 C1197 1.397 . S
C1196 C1201 1.363 . S
C1197 H1168 0.950 . S
C1197 C1196 1.397 . S
C1197 C1198 1.334 . S
C1198 H1169 0.950 . S
C1198 C1197 1.334 . S
C1198 C1199 1.287 . S
C1199 C1198 1.287 . S
C1199 C1200 1.524 . S
C1199 H1202 0.999 . S
C1200 H1170 0.950 . S
C1200 C1199 1.524 . S
C1200 C1201 1.415 . S
C1201 H1171 0.950 . S
C1201 C1196 1.363 . S
C1201 C1200 1.415 . S
H1202 C1199 0.999 . S
H1203 C1184 0.913 . S
H1204 C1222 0.951 . S
H1205 C1224 0.951 . S
H1206 C1226 0.950 . S
H1207 C1227 0.950 . S
H1208 C1229 0.950 . S
H1209 C1232 0.950 . S
H1210 C1233 0.950 . S
H1211 C1235 0.950 . S
H1212 C1236 0.950 . S
H1213 C1237 0.985 . S
H1214 C1239 0.951 . S
H1215 C1241 0.950 . S
H1216 C1242 0.950 . S
H1217 C1244 0.950 . S
H1218 C1247 0.950 . S
H1219 C1248 0.950 . S
H1220 C1250 0.950 . S
H1221 C1251 0.950 . S
C1222 H1204 0.951 . S
C1222 C1223 1.366 . S
C1222 C1224 1.388 . S
C1223 C1222 1.366 . S
C1223 C1227 1.385 . S
C1224 H1205 0.951 . S
C1224 C1222 1.388 . S
C1224 C1225 1.366 . S
C1225 C1224 1.366 . S
C1225 C1226 1.414 . S
C1225 C1228 1.499 . S
C1226 H1206 0.950 . S
C1226 C1225 1.414 . S
C1226 C1227 1.374 . S
C1227 H1207 0.950 . S
C1227 C1223 1.385 . S
C1227 C1226 1.374 . S
C1228 C1225 1.499 . S
C1228 C1229 1.373 . S
C1228 C1230 1.389 . S
C1229 H1208 0.950 . S
C1229 C1228 1.373 . S
C1229 C1245 1.377 . S
C1230 C1228 1.389 . S
C1230 C1231 1.524 . S
C1230 C1244 1.377 . S
C1231 C1230 1.524 . S
C1231 C1232 1.397 . S
C1231 C1236 1.363 . S
C1232 H1209 0.950 . S
C1232 C1231 1.397 . S
C1232 C1233 1.334 . S
C1233 H1210 0.950 . S
C1233 C1232 1.334 . S
C1233 C1234 1.287 . S
C1234 C1233 1.287 . S
C1234 C1235 1.524 . S
C1234 H1253 0.913 . S
C1235 H1211 0.950 . S
C1235 C1234 1.524 . S
C1235 C1236 1.415 . S
C1236 H1212 0.950 . S
C1236 C1231 1.363 . S
C1236 C1235 1.415 . S
C1237 H1213 0.985 . S
C1237 C1238 1.366 . S
C1237 C1239 1.388 . S
C1238 C1237 1.366 . S
C1238 C1242 1.385 . S
C1239 H1214 0.951 . S
C1239 C1237 1.388 . S
C1239 C1240 1.366 . S
C1240 C1239 1.366 . S
C1240 C1241 1.414 . S
C1240 C1243 1.499 . S
C1241 H1215 0.950 . S
C1241 C1240 1.414 . S
C1241 C1242 1.374 . S
C1242 H1216 0.950 . S
C1242 C1238 1.385 . S
C1242 C1241 1.374 . S
C1243 C1240 1.499 . S
C1243 C1244 1.373 . S
C1243 C1245 1.389 . S
C1244 H1217 0.950 . S
C1244 C1230 1.377 . S
C1244 C1243 1.373 . S
C1245 C1229 1.377 . S
C1245 C1243 1.389 . S
C1245 C1246 1.524 1_554 S
C1246 C1245 1.524 1_556 S
C1246 C1247 1.397 . S
C1246 C1251 1.363 . S
C1247 H1218 0.950 . S
C1247 C1246 1.397 . S
C1247 C1248 1.334 . S
C1248 H1219 0.950 . S
C1248 C1247 1.334 . S
C1248 C1249 1.287 . S
C1249 C1248 1.287 . S
C1249 C1250 1.524 . S
C1249 H1252 0.999 . S
C1250 H1220 0.950 . S
C1250 C1249 1.524 . S
C1250 C1251 1.415 . S
C1251 H1221 0.950 . S
C1251 C1246 1.363 . S
C1251 C1250 1.415 . S
H1252 C1249 0.999 . S
H1253 C1234 0.913 . S
H1254 C1272 0.951 . S
H1255 C1274 0.951 . S
H1256 C1276 0.950 . S
H1257 C1277 0.950 . S
H1258 C1279 0.950 . S
H1259 C1282 0.950 . S
H1260 C1283 0.950 . S
H1261 C1285 0.950 . S
H1262 C1286 0.950 . S
H1263 C1287 0.951 . S
H1264 C1289 0.951 . S
H1265 C1291 0.950 . S
H1266 C1292 0.950 1_655 S
H1267 C1294 0.950 . S
H1268 C1297 0.950 . S
H1269 C1298 0.950 . S
H1270 C1300 0.950 . S
H1271 C1301 0.950 . S
C1272 H1254 0.951 . S
C1272 C1273 1.366 . S
C1272 C1274 1.388 . S
C1273 C1272 1.366 . S
C1273 C1277 1.385 . S
C1274 H1255 0.951 . S
C1274 C1272 1.388 . S
C1274 C1275 1.366 . S
C1275 C1274 1.366 . S
C1275 C1276 1.414 . S
C1275 C1278 1.499 . S
C1276 H1256 0.950 . S
C1276 C1275 1.414 . S
C1276 C1277 1.374 . S
C1277 H1257 0.950 . S
C1277 C1273 1.385 . S
C1277 C1276 1.374 . S
C1278 C1275 1.499 . S
C1278 C1279 1.373 . S
C1278 C1280 1.389 . S
C1279 H1258 0.950 . S
C1279 C1278 1.373 . S
C1279 C1295 1.377 . S
C1280 C1278 1.389 . S
C1280 C1281 1.524 . S
C1280 C1294 1.377 . S
C1281 C1280 1.524 . S
C1281 C1282 1.397 . S
C1281 C1286 1.363 . S
C1282 H1259 0.950 . S
C1282 C1281 1.397 . S
C1282 C1283 1.334 . S
C1283 H1260 0.950 . S
C1283 C1282 1.334 . S
C1283 C1284 1.287 . S
C1284 C1283 1.287 . S
C1284 C1285 1.524 . S
C1284 H1303 0.913 . S
C1285 H1261 0.950 . S
C1285 C1284 1.524 . S
C1285 C1286 1.415 . S
C1286 H1262 0.950 . S
C1286 C1281 1.363 . S
C1286 C1285 1.415 . S
C1287 H1263 0.951 . S
C1287 C1288 1.366 . S
C1287 C1289 1.388 . S
C1288 C1287 1.366 . S
C1288 C1292 1.385 . S
C1289 H1264 0.951 . S
C1289 C1287 1.388 . S
C1289 C1290 1.366 . S
C1290 C1289 1.366 . S
C1290 C1291 1.414 . S
C1290 C1293 1.499 . S
C1291 H1265 0.950 . S
C1291 C1290 1.414 . S
C1291 C1292 1.374 . S
C1292 H1266 0.950 1_455 S
C1292 C1288 1.385 . S
C1292 C1291 1.374 . S
C1293 C1290 1.499 . S
C1293 C1294 1.373 . S
C1293 C1295 1.389 . S
C1294 H1267 0.950 . S
C1294 C1280 1.377 . S
C1294 C1293 1.373 . S
C1295 C1279 1.377 . S
C1295 C1293 1.389 . S
C1295 C1296 1.524 . S
C1296 C1295 1.524 . S
C1296 C1297 1.397 . S
C1296 C1301 1.363 . S
C1297 H1268 0.950 . S
C1297 C1296 1.397 . S
C1297 C1298 1.334 . S
C1298 H1269 0.950 . S
C1298 C1297 1.334 . S
C1298 C1299 1.287 . S
C1299 C1298 1.287 . S
C1299 C1300 1.524 . S
C1299 H1302 0.999 . S
C1300 H1270 0.950 . S
C1300 C1299 1.524 . S
C1300 C1301 1.415 . S
C1301 H1271 0.950 . S
C1301 C1296 1.363 . S
C1301 C1300 1.415 . S
H1302 C1299 0.999 . S
H1303 C1284 0.913 . S
H1304 C1322 0.951 . S
H1305 C1324 0.951 . S
H1306 C1326 0.950 . S
H1307 C1327 0.950 . S
H1308 C1329 0.950 . S
H1309 C1332 0.950 . S
H1310 C1333 0.950 . S
H1311 C1335 0.950 . S
H1312 C1336 0.950 . S
H1313 C1337 0.951 . S
H1314 C1339 0.951 . S
H1315 C1341 0.950 . S
H1316 C1342 0.950 . S
H1317 C1344 0.950 . S
H1318 C1347 0.950 . S
H1319 C1348 0.950 . S
H1320 C1350 0.950 . S
H1321 C1351 0.950 . S
C1322 H1304 0.951 . S
C1322 C1323 1.366 . S
C1322 C1324 1.388 . S
C1323 C1322 1.366 . S
C1323 C1327 1.385 . S
C1324 H1305 0.951 . S
C1324 C1322 1.388 . S
C1324 C1325 1.366 . S
C1325 C1324 1.366 . S
C1325 C1326 1.414 . S
C1325 C1328 1.499 . S
C1326 H1306 0.950 . S
C1326 C1325 1.414 . S
C1326 C1327 1.374 . S
C1327 H1307 0.950 . S
C1327 C1323 1.385 . S
C1327 C1326 1.374 . S
C1328 C1325 1.499 . S
C1328 C1329 1.373 . S
C1328 C1330 1.389 . S
C1329 H1308 0.950 . S
C1329 C1328 1.373 . S
C1329 C1345 1.377 . S
C1330 C1328 1.389 . S
C1330 C1331 1.524 . S
C1330 C1344 1.377 . S
C1331 C1330 1.524 . S
C1331 C1332 1.397 . S
C1331 C1336 1.363 . S
C1332 H1309 0.950 . S
C1332 C1331 1.397 . S
C1332 C1333 1.334 . S
C1333 H1310 0.950 . S
C1333 C1332 1.334 . S
C1333 C1334 1.287 . S
C1334 C1333 1.287 . S
C1334 C1335 1.524 . S
C1334 H1353 0.913 . S
C1335 H1311 0.950 . S
C1335 C1334 1.524 . S
C1335 C1336 1.415 . S
C1336 H1312 0.950 . S
C1336 C1331 1.363 . S
C1336 C1335 1.415 . S
C1337 H1313 0.951 . S
C1337 C1338 1.366 . S
C1337 C1339 1.388 . S
C1338 C1337 1.366 . S
C1338 C1342 1.385 . S
C1339 H1314 0.951 . S
C1339 C1337 1.388 . S
C1339 C1340 1.366 . S
C1340 C1339 1.366 . S
C1340 C1341 1.414 . S
C1340 C1343 1.499 . S
C1341 H1315 0.950 . S
C1341 C1340 1.414 . S
C1341 C1342 1.374 . S
C1342 H1316 0.950 . S
C1342 C1338 1.385 . S
C1342 C1341 1.374 . S
C1343 C1340 1.499 . S
C1343 C1344 1.373 . S
C1343 C1345 1.389 . S
C1344 H1317 0.950 . S
C1344 C1330 1.377 . S
C1344 C1343 1.373 . S
C1345 C1329 1.377 . S
C1345 C1343 1.389 . S
C1345 C1346 1.524 . S
C1346 C1345 1.524 . S
C1346 C1347 1.397 . S
C1346 C1351 1.363 . S
C1347 H1318 0.950 . S
C1347 C1346 1.397 . S
C1347 C1348 1.334 . S
C1348 H1319 0.950 . S
C1348 C1347 1.334 . S
C1348 C1349 1.287 . S
C1349 C1348 1.287 . S
C1349 C1350 1.524 . S
C1349 H1352 0.999 . S
C1350 H1320 0.950 . S
C1350 C1349 1.524 . S
C1350 C1351 1.415 . S
C1351 H1321 0.950 . S
C1351 C1346 1.363 . S
C1351 C1350 1.415 . S
H1352 C1349 0.999 . S
H1353 C1334 0.913 . S
H1354 C1372 0.951 . S
H1355 C1374 0.951 . S
H1356 C1376 0.950 . S
H1357 C1377 0.950 . S
H1358 C1379 0.950 . S
H1359 C1382 0.950 . S
H1360 C1383 0.950 . S
H1361 C1385 0.950 . S
H1362 C1386 0.950 . S
H1363 C1387 0.951 . S
H1364 C1389 0.951 . S
H1365 C1391 0.950 . S
H1366 C1392 0.950 . S
H1367 C1394 0.950 . S
H1368 C1397 0.950 . S
H1369 C1398 0.950 . S
H1370 C1400 0.950 . S
H1371 C1401 0.950 . S
C1372 H1354 0.951 . S
C1372 C1373 1.366 . S
C1372 C1374 1.388 . S
C1373 C1372 1.366 . S
C1373 C1377 1.385 . S
C1374 H1355 0.951 . S
C1374 C1372 1.388 . S
C1374 C1375 1.366 . S
C1375 C1374 1.366 . S
C1375 C1376 1.414 . S
C1375 C1378 1.499 . S
C1376 H1356 0.950 . S
C1376 C1375 1.414 . S
C1376 C1377 1.374 . S
C1377 H1357 0.950 . S
C1377 C1373 1.385 . S
C1377 C1376 1.374 . S
C1378 C1375 1.499 . S
C1378 C1379 1.373 . S
C1378 C1380 1.389 . S
C1379 H1358 0.950 . S
C1379 C1378 1.373 . S
C1379 C1395 1.377 . S
C1380 C1378 1.389 . S
C1380 C1381 1.524 . S
C1380 C1394 1.377 . S
C1381 C1380 1.524 . S
C1381 C1382 1.397 . S
C1381 C1386 1.363 . S
C1382 H1359 0.950 . S
C1382 C1381 1.397 . S
C1382 C1383 1.334 . S
C1383 H1360 0.950 . S
C1383 C1382 1.334 . S
C1383 C1384 1.287 . S
C1384 C1383 1.287 . S
C1384 C1385 1.524 . S
C1384 H1403 0.913 . S
C1385 H1361 0.950 . S
C1385 C1384 1.524 . S
C1385 C1386 1.415 . S
C1386 H1362 0.950 . S
C1386 C1381 1.363 . S
C1386 C1385 1.415 . S
C1387 H1363 0.951 . S
C1387 C1388 1.366 . S
C1387 C1389 1.388 . S
C1388 C1387 1.366 . S
C1388 C1392 1.385 . S
C1389 H1364 0.951 . S
C1389 C1387 1.388 . S
C1389 C1390 1.366 . S
C1390 C1389 1.366 . S
C1390 C1391 1.414 . S
C1390 C1393 1.499 . S
C1391 H1365 0.950 . S
C1391 C1390 1.414 . S
C1391 C1392 1.374 . S
C1392 H1366 0.950 . S
C1392 C1388 1.385 . S
C1392 C1391 1.374 . S
C1393 C1390 1.499 . S
C1393 C1394 1.373 . S
C1393 C1395 1.389 . S
C1394 H1367 0.950 . S
C1394 C1380 1.377 . S
C1394 C1393 1.373 . S
C1395 C1379 1.377 . S
C1395 C1393 1.389 . S
C1395 C1396 1.524 . S
C1396 C1395 1.524 . S
C1396 C1397 1.397 . S
C1396 C1401 1.363 . S
C1397 H1368 0.950 . S
C1397 C1396 1.397 . S
C1397 C1398 1.334 . S
C1398 H1369 0.950 . S
C1398 C1397 1.334 . S
C1398 C1399 1.287 . S
C1399 C1398 1.287 . S
C1399 C1400 1.524 . S
C1399 H1402 0.999 . S
C1400 H1370 0.950 . S
C1400 C1399 1.524 . S
C1400 C1401 1.415 . S
C1401 H1371 0.950 . S
C1401 C1396 1.363 . S
C1401 C1400 1.415 . S
H1402 C1399 0.999 . S
H1403 C1384 0.913 . S
H1404 C1422 0.951 . S
H1405 C1424 0.951 . S
H1406 C1426 0.950 . S
H1407 C1427 0.950 . S
H1408 C1429 0.950 . S
H1409 C1432 0.950 . S
H1410 C1433 0.950 . S
H1411 C1435 0.950 . S
H1412 C1436 0.950 . S
H1413 C1437 0.951 . S
H1414 C1439 0.951 . S
H1415 C1441 0.950 . S
H1416 C1442 0.950 . S
H1417 C1444 0.950 . S
H1418 C1447 0.950 . S
H1419 C1448 0.950 . S
H1420 C1450 0.950 . S
H1421 C1451 0.950 . S
C1422 H1404 0.951 . S
C1422 C1423 1.366 . S
C1422 C1424 1.388 . S
C1423 C1422 1.366 . S
C1423 C1427 1.385 . S
C1424 H1405 0.951 . S
C1424 C1422 1.388 . S
C1424 C1425 1.366 . S
C1425 C1424 1.366 . S
C1425 C1426 1.414 . S
C1425 C1428 1.499 . S
C1426 H1406 0.950 . S
C1426 C1425 1.414 . S
C1426 C1427 1.374 . S
C1427 H1407 0.950 . S
C1427 C1423 1.385 . S
C1427 C1426 1.374 . S
C1428 C1425 1.499 . S
C1428 C1429 1.373 . S
C1428 C1430 1.389 . S
C1429 H1408 0.950 . S
C1429 C1428 1.373 . S
C1429 C1445 1.377 . S
C1430 C1428 1.389 . S
C1430 C1431 1.524 . S
C1430 C1444 1.377 . S
C1431 C1430 1.524 . S
C1431 C1432 1.397 . S
C1431 C1436 1.363 . S
C1432 H1409 0.950 . S
C1432 C1431 1.397 . S
C1432 C1433 1.334 . S
C1433 H1410 0.950 . S
C1433 C1432 1.334 . S
C1433 C1434 1.287 . S
C1434 C1433 1.287 . S
C1434 C1435 1.524 . S
C1434 H1453 0.913 . S
C1435 H1411 0.950 . S
C1435 C1434 1.524 . S
C1435 C1436 1.415 . S
C1436 H1412 0.950 . S
C1436 C1431 1.363 . S
C1436 C1435 1.415 . S
C1437 H1413 0.951 . S
C1437 C1438 1.366 . S
C1437 C1439 1.388 . S
C1438 C1437 1.366 . S
C1438 C1442 1.385 . S
C1439 H1414 0.951 . S
C1439 C1437 1.388 . S
C1439 C1440 1.366 . S
C1440 C1439 1.366 . S
C1440 C1441 1.414 . S
C1440 C1443 1.499 . S
C1441 H1415 0.950 . S
C1441 C1440 1.414 . S
C1441 C1442 1.374 . S
C1442 H1416 0.950 . S
C1442 C1438 1.385 . S
C1442 C1441 1.374 . S
C1443 C1440 1.499 . S
C1443 C1444 1.373 . S
C1443 C1445 1.389 . S
C1444 H1417 0.950 . S
C1444 C1430 1.377 . S
C1444 C1443 1.373 . S
C1445 C1429 1.377 . S
C1445 C1443 1.389 . S
C1445 C1446 1.524 . S
C1446 C1445 1.524 . S
C1446 C1447 1.397 . S
C1446 C1451 1.363 . S
C1447 H1418 0.950 . S
C1447 C1446 1.397 . S
C1447 C1448 1.334 . S
C1448 H1419 0.950 . S
C1448 C1447 1.334 . S
C1448 C1449 1.287 . S
C1449 C1448 1.287 . S
C1449 C1450 1.524 . S
C1449 H1452 0.999 . S
C1450 H1420 0.950 . S
C1450 C1449 1.524 . S
C1450 C1451 1.415 . S
C1451 H1421 0.950 . S
C1451 C1446 1.363 . S
C1451 C1450 1.415 . S
H1452 C1449 0.999 . S
H1453 C1434 0.913 . S
H1454 C1472 0.951 . S
H1455 C1474 0.951 . S
H1456 C1476 0.950 . S
H1457 C1477 0.950 . S
H1458 C1479 0.950 . S
H1459 C1482 0.950 . S
H1460 C1483 0.950 . S
H1461 C1485 0.950 . S
H1462 C1486 0.950 . S
H1463 C1487 0.951 1_545 S
H1464 C1489 0.951 . S
H1465 C1491 0.950 . S
H1466 C1492 0.950 . S
H1467 C1494 0.950 . S
H1468 C1497 0.950 . S
H1469 C1498 0.950 . S
H1470 C1500 0.950 . S
H1471 C1501 0.950 . S
C1472 H1454 0.951 . S
C1472 C1473 1.366 . S
C1472 C1474 1.388 . S
C1473 C1472 1.366 . S
C1473 C1477 1.385 . S
C1474 H1455 0.951 . S
C1474 C1472 1.388 . S
C1474 C1475 1.366 . S
C1475 C1474 1.366 . S
C1475 C1476 1.414 . S
C1475 C1478 1.499 . S
C1476 H1456 0.950 . S
C1476 C1475 1.414 . S
C1476 C1477 1.374 . S
C1477 H1457 0.950 . S
C1477 C1473 1.385 . S
C1477 C1476 1.374 . S
C1478 C1475 1.499 . S
C1478 C1479 1.373 . S
C1478 C1480 1.389 . S
C1479 H1458 0.950 . S
C1479 C1478 1.373 . S
C1479 C1495 1.377 . S
C1480 C1478 1.389 . S
C1480 C1481 1.524 . S
C1480 C1494 1.377 . S
C1481 C1480 1.524 . S
C1481 C1482 1.397 . S
C1481 C1486 1.363 . S
C1482 H1459 0.950 . S
C1482 C1481 1.397 . S
C1482 C1483 1.334 . S
C1483 H1460 0.950 . S
C1483 C1482 1.334 . S
C1483 C1484 1.287 . S
C1484 C1483 1.287 . S
C1484 C1485 1.524 . S
C1484 H1503 0.913 . S
C1485 H1461 0.950 . S
C1485 C1484 1.524 . S
C1485 C1486 1.415 . S
C1486 H1462 0.950 . S
C1486 C1481 1.363 . S
C1486 C1485 1.415 . S
C1487 H1463 0.951 1_565 S
C1487 C1488 1.366 1_565 S
C1487 C1489 1.388 . S
C1488 C1487 1.366 1_545 S
C1488 C1492 1.385 1_545 S
C1489 H1464 0.951 . S
C1489 C1487 1.388 . S
C1489 C1490 1.366 . S
C1490 C1489 1.366 . S
C1490 C1491 1.414 . S
C1490 C1493 1.499 . S
C1491 H1465 0.950 . S
C1491 C1490 1.414 . S
C1491 C1492 1.374 . S
C1492 H1466 0.950 . S
C1492 C1488 1.385 1_565 S
C1492 C1491 1.374 . S
C1493 C1490 1.499 . S
C1493 C1494 1.373 . S
C1493 C1495 1.389 . S
C1494 H1467 0.950 . S
C1494 C1480 1.377 . S
C1494 C1493 1.373 . S
C1495 C1479 1.377 . S
C1495 C1493 1.389 . S
C1495 C1496 1.524 . S
C1496 C1495 1.524 . S
C1496 C1497 1.397 . S
C1496 C1501 1.363 . S
C1497 H1468 0.950 . S
C1497 C1496 1.397 . S
C1497 C1498 1.334 . S
C1498 H1469 0.950 . S
C1498 C1497 1.334 . S
C1498 C1499 1.287 . S
C1499 C1498 1.287 . S
C1499 C1500 1.524 . S
C1499 H1502 0.999 . S
C1500 H1470 0.950 . S
C1500 C1499 1.524 . S
C1500 C1501 1.415 . S
C1501 H1471 0.950 . S
C1501 C1496 1.363 . S
C1501 C1500 1.415 . S
H1502 C1499 0.999 . S
H1503 C1484 0.913 . S
H1504 C1522 0.951 . S
H1505 C1524 0.951 . S
H1506 C1526 0.950 . S
H1507 C1527 0.950 . S
H1508 C1529 0.950 . S
H1509 C1532 0.950 . S
H1510 C1533 0.950 . S
H1511 C1535 0.950 . S
H1512 C1536 0.950 . S
H1513 C1537 0.951 . S
H1514 C1539 0.951 . S
H1515 C1541 0.950 . S
H1516 C1542 0.950 . S
H1517 C1544 0.950 . S
H1518 C1547 0.950 . S
H1519 C1548 0.950 . S
H1520 C1550 0.950 . S
H1521 C1551 0.950 . S
C1522 H1504 0.951 . S
C1522 C1523 1.366 . S
C1522 C1524 1.388 . S
C1523 C1522 1.366 . S
C1523 C1527 1.385 . S
C1524 H1505 0.951 . S
C1524 C1522 1.388 . S
C1524 C1525 1.366 . S
C1525 C1524 1.366 . S
C1525 C1526 1.414 . S
C1525 C1528 1.499 . S
C1526 H1506 0.950 . S
C1526 C1525 1.414 . S
C1526 C1527 1.374 . S
C1527 H1507 0.950 . S
C1527 C1523 1.385 . S
C1527 C1526 1.374 . S
C1528 C1525 1.499 . S
C1528 C1529 1.373 . S
C1528 C1530 1.389 . S
C1529 H1508 0.950 . S
C1529 C1528 1.373 . S
C1529 C1545 1.377 . S
C1530 C1528 1.389 . S
C1530 C1531 1.524 . S
C1530 C1544 1.377 . S
C1531 C1530 1.524 . S
C1531 C1532 1.397 . S
C1531 C1536 1.363 . S
C1532 H1509 0.950 . S
C1532 C1531 1.397 . S
C1532 C1533 1.334 . S
C1533 H1510 0.950 . S
C1533 C1532 1.334 . S
C1533 C1534 1.287 . S
C1534 C1533 1.287 . S
C1534 C1535 1.524 . S
C1534 H1553 0.913 . S
C1535 H1511 0.950 . S
C1535 C1534 1.524 . S
C1535 C1536 1.415 . S
C1536 H1512 0.950 . S
C1536 C1531 1.363 . S
C1536 C1535 1.415 . S
C1537 H1513 0.951 . S
C1537 C1538 1.366 . S
C1537 C1539 1.388 . S
C1538 C1537 1.366 . S
C1538 C1542 1.385 . S
C1539 H1514 0.951 . S
C1539 C1537 1.388 . S
C1539 C1540 1.366 . S
C1540 C1539 1.366 . S
C1540 C1541 1.414 . S
C1540 C1543 1.499 . S
C1541 H1515 0.950 . S
C1541 C1540 1.414 . S
C1541 C1542 1.374 . S
C1542 H1516 0.950 . S
C1542 C1538 1.385 . S
C1542 C1541 1.374 . S
C1543 C1540 1.499 . S
C1543 C1544 1.373 . S
C1543 C1545 1.389 . S
C1544 H1517 0.950 . S
C1544 C1530 1.377 . S
C1544 C1543 1.373 . S
C1545 C1529 1.377 . S
C1545 C1543 1.389 . S
C1545 C1546 1.524 . S
C1546 C1545 1.524 . S
C1546 C1547 1.397 . S
C1546 C1551 1.363 . S
C1547 H1518 0.950 . S
C1547 C1546 1.397 . S
C1547 C1548 1.334 . S
C1548 H1519 0.950 . S
C1548 C1547 1.334 . S
C1548 C1549 1.287 . S
C1549 C1548 1.287 . S
C1549 C1550 1.524 . S
C1549 H1552 0.999 . S
C1550 H1520 0.950 . S
C1550 C1549 1.524 . S
C1550 C1551 1.415 . S
C1551 H1521 0.950 . S
C1551 C1546 1.363 . S
C1551 C1550 1.415 . S
H1552 C1549 0.999 . S
H1553 C1534 0.913 . S
H1554 C1572 0.951 . S
H1555 C1574 0.951 . S
H1556 C1576 0.950 . S
H1557 C1577 0.950 . S
H1558 C1579 0.950 . S
H1559 C1582 0.950 . S
H1560 C1583 0.950 . S
H1561 C1585 0.950 . S
H1562 C1586 0.950 . S
H1563 C1587 0.951 . S
H1564 C1589 0.951 . S
H1565 C1591 0.950 . S
H1566 C1592 0.950 . S
H1567 C1594 0.950 . S
H1568 C1597 0.950 . S
H1569 C1598 0.950 . S
H1570 C1600 0.950 . S
H1571 C1601 0.950 . S
C1572 H1554 0.951 . S
C1572 C1573 1.366 . S
C1572 C1574 1.388 . S
C1573 C1572 1.366 . S
C1573 C1577 1.385 . S
C1574 H1555 0.951 . S
C1574 C1572 1.388 . S
C1574 C1575 1.366 . S
C1575 C1574 1.366 . S
C1575 C1576 1.414 . S
C1575 C1578 1.499 . S
C1576 H1556 0.950 . S
C1576 C1575 1.414 . S
C1576 C1577 1.374 . S
C1577 H1557 0.950 . S
C1577 C1573 1.385 . S
C1577 C1576 1.374 . S
C1578 C1575 1.499 . S
C1578 C1579 1.373 . S
C1578 C1580 1.389 . S
C1579 H1558 0.950 . S
C1579 C1578 1.373 . S
C1579 C1595 1.377 . S
C1580 C1578 1.389 . S
C1580 C1581 1.524 . S
C1580 C1594 1.377 . S
C1581 C1580 1.524 . S
C1581 C1582 1.397 . S
C1581 C1586 1.363 . S
C1582 H1559 0.950 . S
C1582 C1581 1.397 . S
C1582 C1583 1.334 . S
C1583 H1560 0.950 . S
C1583 C1582 1.334 . S
C1583 C1584 1.287 . S
C1584 C1583 1.287 . S
C1584 C1585 1.524 . S
C1584 H1603 0.913 . S
C1585 H1561 0.950 . S
C1585 C1584 1.524 . S
C1585 C1586 1.415 . S
C1586 H1562 0.950 . S
C1586 C1581 1.363 . S
C1586 C1585 1.415 . S
C1587 H1563 0.951 . S
C1587 C1588 1.366 . S
C1587 C1589 1.388 . S
C1588 C1587 1.366 . S
C1588 C1592 1.385 . S
C1589 H1564 0.951 . S
C1589 C1587 1.388 . S
C1589 C1590 1.366 . S
C1590 C1589 1.366 . S
C1590 C1591 1.414 . S
C1590 C1593 1.499 . S
C1591 H1565 0.950 . S
C1591 C1590 1.414 . S
C1591 C1592 1.374 . S
C1592 H1566 0.950 . S
C1592 C1588 1.385 . S
C1592 C1591 1.374 . S
C1593 C1590 1.499 . S
C1593 C1594 1.373 . S
C1593 C1595 1.389 . S
C1594 H1567 0.950 . S
C1594 C1580 1.377 . S
C1594 C1593 1.373 . S
C1595 C1579 1.377 . S
C1595 C1593 1.389 . S
C1595 C1596 1.524 . S
C1596 C1595 1.524 . S
C1596 C1597 1.397 . S
C1596 C1601 1.363 . S
C1597 H1568 0.950 . S
C1597 C1596 1.397 . S
C1597 C1598 1.334 . S
C1598 H1569 0.950 . S
C1598 C1597 1.334 . S
C1598 C1599 1.287 . S
C1599 C1598 1.287 . S
C1599 C1600 1.524 . S
C1599 H1602 0.999 . S
C1600 H1570 0.950 . S
C1600 C1599 1.524 . S
C1600 C1601 1.415 . S
C1601 H1571 0.950 . S
C1601 C1596 1.363 . S
C1601 C1600 1.415 . S
H1602 C1599 0.999 . S
H1603 C1584 0.913 . S
H1604 C1622 0.951 . S
H1605 C1624 0.951 . S
H1606 C1626 0.950 . S
H1607 C1627 0.950 . S
H1608 C1629 0.950 . S
H1609 C1632 0.950 . S
H1610 C1633 0.950 . S
H1611 C1635 0.950 . S
H1612 C1636 0.950 . S
H1613 C1637 0.951 . S
H1614 C1639 0.951 . S
H1615 C1641 0.950 . S
H1616 C1642 0.950 . S
H1617 C1644 0.950 . S
H1618 C1647 0.950 . S
H1619 C1648 0.950 . S
H1620 C1650 0.950 . S
H1621 C1651 0.950 . S
C1622 H1604 0.951 . S
C1622 C1623 1.366 . S
C1622 C1624 1.388 . S
C1623 C1622 1.366 . S
C1623 C1627 1.385 . S
C1624 H1605 0.951 . S
C1624 C1622 1.388 . S
C1624 C1625 1.366 . S
C1625 C1624 1.366 . S
C1625 C1626 1.414 . S
C1625 C1628 1.499 . S
C1626 H1606 0.950 . S
C1626 C1625 1.414 . S
C1626 C1627 1.374 . S
C1627 H1607 0.950 . S
C1627 C1623 1.385 . S
C1627 C1626 1.374 . S
C1628 C1625 1.499 . S
C1628 C1629 1.373 . S
C1628 C1630 1.389 . S
C1629 H1608 0.950 . S
C1629 C1628 1.373 . S
C1629 C1645 1.377 . S
C1630 C1628 1.389 . S
C1630 C1631 1.524 . S
C1630 C1644 1.377 . S
C1631 C1630 1.524 . S
C1631 C1632 1.397 . S
C1631 C1636 1.363 . S
C1632 H1609 0.950 . S
C1632 C1631 1.397 . S
C1632 C1633 1.334 . S
C1633 H1610 0.950 . S
C1633 C1632 1.334 . S
C1633 C1634 1.287 . S
C1634 C1633 1.287 . S
C1634 C1635 1.524 . S
C1634 H1653 0.913 . S
C1635 H1611 0.950 . S
C1635 C1634 1.524 . S
C1635 C1636 1.415 . S
C1636 H1612 0.950 . S
C1636 C1631 1.363 . S
C1636 C1635 1.415 . S
C1637 H1613 0.951 . S
C1637 C1638 1.366 . S
C1637 C1639 1.388 . S
C1638 C1637 1.366 . S
C1638 C1642 1.385 . S
C1639 H1614 0.951 . S
C1639 C1637 1.388 . S
C1639 C1640 1.366 . S
C1640 C1639 1.366 . S
C1640 C1641 1.414 . S
C1640 C1643 1.499 . S
C1641 H1615 0.950 . S
C1641 C1640 1.414 . S
C1641 C1642 1.374 . S
C1642 H1616 0.950 . S
C1642 C1638 1.385 . S
C1642 C1641 1.374 . S
C1643 C1640 1.499 . S
C1643 C1644 1.373 . S
C1643 C1645 1.389 . S
C1644 H1617 0.950 . S
C1644 C1630 1.377 . S
C1644 C1643 1.373 . S
C1645 C1629 1.377 . S
C1645 C1643 1.389 . S
C1645 C1646 1.524 . S
C1646 C1645 1.524 . S
C1646 C1647 1.397 . S
C1646 C1651 1.363 . S
C1647 H1618 0.950 . S
C1647 C1646 1.397 . S
C1647 C1648 1.334 . S
C1648 H1619 0.950 . S
C1648 C1647 1.334 . S
C1648 C1649 1.287 . S
C1649 C1648 1.287 . S
C1649 C1650 1.524 . S
C1649 H1652 0.999 . S
C1650 H1620 0.950 . S
C1650 C1649 1.524 . S
C1650 C1651 1.415 . S
C1651 H1621 0.950 . S
C1651 C1646 1.363 . S
C1651 C1650 1.415 . S
H1652 C1649 0.999 . S
H1653 C1634 0.913 . S
H1654 C1672 0.951 . S
H1655 C1674 0.951 . S
H1656 C1676 0.950 1_545 S
H1657 C1677 0.950 1_545 S
H1658 C1679 0.950 . S
H1659 C1682 0.917 1_545 S
H1660 C1683 0.950 1_545 S
H1661 C1685 0.950 . S
H1662 C1686 0.950 . S
H1663 C1687 0.951 . S
H1664 C1689 0.951 . S
H1665 C1691 0.950 . S
H1666 C1692 0.950 . S
H1667 C1694 0.950 . S
H1668 C1697 0.950 . S
H1669 C1698 0.950 . S
H1670 C1700 0.950 . S
H1671 C1701 0.950 . S
C1672 H1654 0.951 . S
C1672 C1673 1.366 . S
C1672 C1674 1.388 . S
C1673 C1672 1.366 . S
C1673 C1677 1.385 . S
C1674 H1655 0.951 . S
C1674 C1672 1.388 . S
C1674 C1675 1.366 . S
C1675 C1674 1.366 . S
C1675 C1676 1.414 . S
C1675 C1678 1.499 . S
C1676 H1656 0.950 1_565 S
C1676 C1675 1.414 . S
C1676 C1677 1.374 . S
C1677 H1657 0.950 1_565 S
C1677 C1673 1.385 . S
C1677 C1676 1.374 . S
C1678 C1675 1.499 . S
C1678 C1679 1.373 . S
C1678 C1680 1.389 . S
C1679 H1658 0.950 . S
C1679 C1678 1.373 . S
C1679 C1695 1.377 . S
C1680 C1678 1.389 . S
C1680 C1681 1.524 . S
C1680 C1694 1.377 . S
C1681 C1680 1.524 . S
C1681 C1682 1.397 . S
C1681 C1686 1.363 . S
C1682 H1659 0.917 1_565 S
C1682 C1681 1.397 . S
C1682 C1683 1.334 . S
C1683 H1660 0.950 1_565 S
C1683 C1682 1.334 . S
C1683 C1684 1.287 . S
C1684 C1683 1.287 . S
C1684 C1685 1.524 . S
C1684 H1703 0.913 . S
C1685 H1661 0.950 . S
C1685 C1684 1.524 . S
C1685 C1686 1.415 . S
C1686 H1662 0.950 . S
C1686 C1681 1.363 . S
C1686 C1685 1.415 . S
C1687 H1663 0.951 . S
C1687 C1688 1.366 . S
C1687 C1689 1.388 . S
C1688 C1687 1.366 . S
C1688 C1692 1.385 . S
C1689 H1664 0.951 . S
C1689 C1687 1.388 . S
C1689 C1690 1.366 . S
C1690 C1689 1.366 . S
C1690 C1691 1.414 . S
C1690 C1693 1.499 . S
C1691 H1665 0.950 . S
C1691 C1690 1.414 . S
C1691 C1692 1.374 . S
C1692 H1666 0.950 . S
C1692 C1688 1.385 . S
C1692 C1691 1.374 . S
C1693 C1690 1.499 . S
C1693 C1694 1.373 . S
C1693 C1695 1.389 . S
C1694 H1667 0.950 . S
C1694 C1680 1.377 . S
C1694 C1693 1.373 . S
C1695 C1679 1.377 . S
C1695 C1693 1.389 . S
C1695 C1696 1.524 . S
C1696 C1695 1.524 . S
C1696 C1697 1.397 . S
C1696 C1701 1.363 . S
C1697 H1668 0.950 . S
C1697 C1696 1.397 . S
C1697 C1698 1.334 . S
C1698 H1669 0.950 . S
C1698 C1697 1.334 . S
C1698 C1699 1.287 . S
C1699 C1698 1.287 . S
C1699 C1700 1.524 . S
C1699 H1702 0.999 1_455 S
C1700 H1670 0.950 . S
C1700 C1699 1.524 . S
C1700 C1701 1.415 . S
C1701 H1671 0.950 . S
C1701 C1696 1.363 . S
C1701 C1700 1.415 . S
H1702 C1699 0.999 1_655 S
H1703 C1684 0.913 . S
H1704 C1722 0.951 . S
H1705 C1724 0.951 . S
H1706 C1726 0.950 . S
H1707 C1727 0.950 . S
H1708 C1729 0.950 . S
H1709 C1732 0.950 . S
H1710 C1733 0.950 . S
H1711 C1735 0.950 . S
H1712 C1736 0.950 . S
H1713 C1737 0.951 . S
H1714 C1739 0.951 . S
H1715 C1741 0.950 . S
H1716 C1742 0.950 . S
H1717 C1744 0.950 . S
H1718 C1747 0.950 . S
H1719 C1748 0.950 . S
H1720 C1750 0.950 . S
H1721 C1751 0.950 . S
C1722 H1704 0.951 . S
C1722 C1723 1.366 . S
C1722 C1724 1.388 . S
C1723 C1722 1.366 . S
C1723 C1727 1.385 . S
C1724 H1705 0.951 . S
C1724 C1722 1.388 . S
C1724 C1725 1.366 . S
C1725 C1724 1.366 . S
C1725 C1726 1.414 . S
C1725 C1728 1.499 . S
C1726 H1706 0.950 . S
C1726 C1725 1.414 . S
C1726 C1727 1.374 . S
C1727 H1707 0.950 . S
C1727 C1723 1.385 . S
C1727 C1726 1.374 . S
C1728 C1725 1.499 . S
C1728 C1729 1.373 . S
C1728 C1730 1.389 . S
C1729 H1708 0.950 . S
C1729 C1728 1.373 . S
C1729 C1745 1.377 . S
C1730 C1728 1.389 . S
C1730 C1731 1.524 . S
C1730 C1744 1.377 . S
C1731 C1730 1.524 . S
C1731 C1732 1.397 . S
C1731 C1736 1.363 . S
C1732 H1709 0.950 . S
C1732 C1731 1.397 . S
C1732 C1733 1.334 . S
C1733 H1710 0.950 . S
C1733 C1732 1.334 . S
C1733 C1734 1.287 . S
C1734 C1733 1.287 . S
C1734 C1735 1.524 . S
C1734 H1753 0.913 . S
C1735 H1711 0.950 . S
C1735 C1734 1.524 . S
C1735 C1736 1.415 . S
C1736 H1712 0.950 . S
C1736 C1731 1.363 . S
C1736 C1735 1.415 . S
C1737 H1713 0.951 . S
C1737 C1738 1.366 . S
C1737 C1739 1.388 . S
C1738 C1737 1.366 . S
C1738 C1742 1.385 . S
C1739 H1714 0.951 . S
C1739 C1737 1.388 . S
C1739 C1740 1.366 . S
C1740 C1739 1.366 . S
C1740 C1741 1.414 . S
C1740 C1743 1.499 . S
C1741 H1715 0.950 . S
C1741 C1740 1.414 . S
C1741 C1742 1.374 . S
C1742 H1716 0.950 . S
C1742 C1738 1.385 . S
C1742 C1741 1.374 . S
C1743 C1740 1.499 . S
C1743 C1744 1.373 . S
C1743 C1745 1.389 . S
C1744 H1717 0.950 . S
C1744 C1730 1.377 . S
C1744 C1743 1.373 . S
C1745 C1729 1.377 . S
C1745 C1743 1.389 . S
C1745 C1746 1.524 . S
C1746 C1745 1.524 . S
C1746 C1747 1.397 . S
C1746 C1751 1.363 . S
C1747 H1718 0.950 . S
C1747 C1746 1.397 . S
C1747 C1748 1.334 . S
C1748 H1719 0.950 . S
C1748 C1747 1.334 . S
C1748 C1749 1.287 . S
C1749 C1748 1.287 . S
C1749 C1750 1.524 . S
C1749 H1752 0.999 . S
C1750 H1720 0.950 . S
C1750 C1749 1.524 . S
C1750 C1751 1.415 . S
C1751 H1721 0.950 . S
C1751 C1746 1.363 . S
C1751 C1750 1.415 . S
H1752 C1749 0.999 . S
H1753 C1734 0.913 . S
H1754 C1772 0.982 . S
H1755 C1774 0.951 1_565 S
H1756 C1776 0.950 . S
H1757 C1777 0.950 . S
H1758 C1779 0.950 . S
H1759 C1782 0.950 . S
H1760 C1783 0.950 . S
H1761 C1785 0.950 . S
H1762 C1786 0.950 . S
H1763 C1787 0.951 . S
H1764 C1789 0.951 . S
H1765 C1791 0.950 . S
H1766 C1792 0.950 . S
H1767 C1794 0.950 . S
H1768 C1797 0.950 . S
H1769 C1798 0.950 . S
H1770 C1800 0.950 . S
H1771 C1801 0.950 . S
C1772 H1754 0.982 . S
C1772 C1773 1.340 1_565 S
C1772 C1774 1.384 1_565 S
C1773 C1772 1.340 1_545 S
C1773 C1777 1.385 . S
C1774 H1755 0.951 1_545 S
C1774 C1772 1.384 1_545 S
C1774 C1775 1.366 . S
C1775 C1774 1.366 . S
C1775 C1776 1.414 . S
C1775 C1778 1.499 . S
C1776 H1756 0.950 . S
C1776 C1775 1.414 . S
C1776 C1777 1.374 . S
C1777 H1757 0.950 . S
C1777 C1773 1.385 . S
C1777 C1776 1.374 . S
C1778 C1775 1.499 . S
C1778 C1779 1.373 . S
C1778 C1780 1.389 . S
C1779 H1758 0.950 . S
C1779 C1778 1.373 . S
C1779 C1795 1.377 . S
C1780 C1778 1.389 . S
C1780 C1781 1.524 1_545 S
C1780 C1794 1.377 . S
C1781 C1780 1.524 1_565 S
C1781 C1782 1.397 1_565 S
C1781 C1786 1.363 . S
C1782 H1759 0.950 . S
C1782 C1781 1.397 1_545 S
C1782 C1783 1.334 1_545 S
C1783 H1760 0.950 . S
C1783 C1782 1.334 1_565 S
C1783 C1784 1.287 . S
C1784 C1783 1.287 . S
C1784 C1785 1.524 . S
C1784 H1803 0.913 . S
C1785 H1761 0.950 . S
C1785 C1784 1.524 . S
C1785 C1786 1.415 . S
C1786 H1762 0.950 . S
C1786 C1781 1.363 . S
C1786 C1785 1.415 . S
C1787 H1763 0.951 . S
C1787 C1788 1.366 . S
C1787 C1789 1.388 . S
C1788 C1787 1.366 . S
C1788 C1792 1.385 . S
C1789 H1764 0.951 . S
C1789 C1787 1.388 . S
C1789 C1790 1.366 . S
C1790 C1789 1.366 . S
C1790 C1791 1.414 . S
C1790 C1793 1.499 . S
C1791 H1765 0.950 . S
C1791 C1790 1.414 . S
C1791 C1792 1.374 . S
C1792 H1766 0.950 . S
C1792 C1788 1.385 . S
C1792 C1791 1.374 . S
C1793 C1790 1.499 . S
C1793 C1794 1.373 . S
C1793 C1795 1.389 . S
C1794 H1767 0.950 . S
C1794 C1780 1.377 . S
C1794 C1793 1.373 . S
C1795 C1779 1.377 . S
C1795 C1793 1.389 . S
C1795 C1796 1.524 . S
C1796 C1795 1.524 . S
C1796 C1797 1.397 . S
C1796 C1801 1.363 . S
C1797 H1768 0.950 . S
C1797 C1796 1.397 . S
C1797 C1798 1.334 . S
C1798 H1769 0.950 . S
C1798 C1797 1.334 . S
C1798 C1799 1.287 . S
C1799 C1798 1.287 . S
C1799 C1800 1.524 . S
C1799 H1802 0.999 . S
C1800 H1770 0.950 . S
C1800 C1799 1.524 . S
C1800 C1801 1.415 . S
C1801 H1771 0.950 . S
C1801 C1796 1.363 . S
C1801 C1800 1.415 . S
H1802 C1799 0.999 . S
H1803 C1784 0.913 . S
H1804 C1822 0.951 . S
H1805 C1824 0.951 . S
H1806 C1826 0.950 . S
H1807 C1827 0.950 . S
H1808 C1829 0.950 . S
H1809 C1832 0.950 . S
H1810 C1833 0.950 . S
H1811 C1835 0.950 . S
H1812 C1836 0.950 . S
H1813 C1837 0.951 . S
H1814 C1839 0.951 . S
H1815 C1841 0.950 . S
H1816 C1842 0.950 . S
H1817 C1844 0.950 . S
H1818 C1847 0.950 . S
H1819 C1848 0.950 . S
H1820 C1850 0.950 . S
H1821 C1851 0.950 . S
C1822 H1804 0.951 . S
C1822 C1823 1.366 . S
C1822 C1824 1.388 . S
C1823 C1822 1.366 . S
C1823 C1827 1.385 . S
C1824 H1805 0.951 . S
C1824 C1822 1.388 . S
C1824 C1825 1.366 . S
C1825 C1824 1.366 . S
C1825 C1826 1.414 . S
C1825 C1828 1.499 . S
C1826 H1806 0.950 . S
C1826 C1825 1.414 . S
C1826 C1827 1.374 . S
C1827 H1807 0.950 . S
C1827 C1823 1.385 . S
C1827 C1826 1.374 . S
C1828 C1825 1.499 . S
C1828 C1829 1.373 . S
C1828 C1830 1.389 . S
C1829 H1808 0.950 . S
C1829 C1828 1.373 . S
C1829 C1845 1.377 . S
C1830 C1828 1.389 . S
C1830 C1831 1.524 . S
C1830 C1844 1.377 . S
C1831 C1830 1.524 . S
C1831 C1832 1.397 . S
C1831 C1836 1.363 . S
C1832 H1809 0.950 . S
C1832 C1831 1.397 . S
C1832 C1833 1.334 . S
C1833 H1810 0.950 . S
C1833 C1832 1.334 . S
C1833 C1834 1.287 . S
C1834 C1833 1.287 . S
C1834 C1835 1.524 . S
C1834 H1853 0.913 . S
C1835 H1811 0.950 . S
C1835 C1834 1.524 . S
C1835 C1836 1.415 . S
C1836 H1812 0.950 . S
C1836 C1831 1.363 . S
C1836 C1835 1.415 . S
C1837 H1813 0.951 . S
C1837 C1838 1.366 . S
C1837 C1839 1.388 . S
C1838 C1837 1.366 . S
C1838 C1842 1.385 . S
C1839 H1814 0.951 . S
C1839 C1837 1.388 . S
C1839 C1840 1.366 . S
C1840 C1839 1.366 . S
C1840 C1841 1.414 . S
C1840 C1843 1.499 . S
C1841 H1815 0.950 . S
C1841 C1840 1.414 . S
C1841 C1842 1.374 . S
C1842 H1816 0.950 . S
C1842 C1838 1.385 . S
C1842 C1841 1.374 . S
C1843 C1840 1.499 . S
C1843 C1844 1.373 . S
C1843 C1845 1.389 . S
C1844 H1817 0.950 . S
C1844 C1830 1.377 . S
C1844 C1843 1.373 . S
C1845 C1829 1.377 . S
C1845 C1843 1.389 . S
C1845 C1846 1.524 . S
C1846 C1845 1.524 . S
C1846 C1847 1.397 . S
C1846 C1851 1.363 . S
C1847 H1818 0.950 . S
C1847 C1846 1.397 . S
C1847 C1848 1.334 . S
C1848 H1819 0.950 . S
C1848 C1847 1.334 . S
C1848 C1849 1.287 . S
C1849 C1848 1.287 . S
C1849 C1850 1.524 . S
C1849 H1852 0.999 . S
C1850 H1820 0.950 . S
C1850 C1849 1.524 . S
C1850 C1851 1.415 . S
C1851 H1821 0.950 . S
C1851 C1846 1.363 . S
C1851 C1850 1.415 . S
H1852 C1849 0.999 . S
H1853 C1834 0.913 . S
H1854 C1872 0.951 . S
H1855 C1874 0.951 . S
H1856 C1876 0.951 . S
H1857 C1877 0.950 . S
H1858 C1879 0.959 . S
H1859 C1882 0.950 . S
H1860 C1883 0.950 . S
H1861 C1885 0.950 . S
H1862 C1886 0.950 . S
H1863 C1887 0.951 . S
H1864 C1889 0.951 . S
H1865 C1891 0.950 . S
H1866 C1892 0.950 . S
H1867 C1894 0.950 . S
H1868 C1897 0.950 . S
H1869 C1898 0.950 . S
H1870 C1900 0.950 . S
H1871 C1901 0.950 . S
C1872 H1854 0.951 . S
C1872 C1873 1.366 . S
C1872 C1874 1.388 1_554 S
C1873 C1872 1.366 . S
C1873 C1877 1.385 . S
C1874 H1855 0.951 . S
C1874 C1872 1.388 1_556 S
C1874 C1875 1.366 . S
C1875 C1874 1.366 . S
C1875 C1876 1.414 . S
C1875 C1878 1.499 . S
C1876 H1856 0.951 . S
C1876 C1875 1.414 . S
C1876 C1877 1.373 1_556 S
C1877 H1857 0.950 . S
C1877 C1873 1.385 . S
C1877 C1876 1.373 1_554 S
C1878 C1875 1.499 . S
C1878 C1879 1.367 1_556 S
C1878 C1880 1.389 . S
C1879 H1858 0.959 . S
C1879 C1878 1.367 1_554 S
C1879 C1895 1.375 1_554 S
C1880 C1878 1.389 . S
C1880 C1881 1.524 . S
C1880 C1894 1.377 . S
C1881 C1880 1.524 . S
C1881 C1882 1.397 . S
C1881 C1886 1.363 . S
C1882 H1859 0.950 . S
C1882 C1881 1.397 . S
C1882 C1883 1.334 . S
C1883 H1860 0.950 . S
C1883 C1882 1.334 . S
C1883 C1884 1.287 . S
C1884 C1883 1.287 . S
C1884 C1885 1.524 . S
C1884 H1903 0.913 . S
C1885 H1861 0.950 . S
C1885 C1884 1.524 . S
C1885 C1886 1.415 . S
C1886 H1862 0.950 . S
C1886 C1881 1.363 . S
C1886 C1885 1.415 . S
C1887 H1863 0.951 . S
C1887 C1888 1.366 . S
C1887 C1889 1.388 . S
C1888 C1887 1.366 . S
C1888 C1892 1.385 . S
C1889 H1864 0.951 . S
C1889 C1887 1.388 . S
C1889 C1890 1.366 . S
C1890 C1889 1.366 . S
C1890 C1891 1.414 . S
C1890 C1893 1.499 . S
C1891 H1865 0.950 . S
C1891 C1890 1.414 . S
C1891 C1892 1.374 . S
C1892 H1866 0.950 . S
C1892 C1888 1.385 . S
C1892 C1891 1.374 . S
C1893 C1890 1.499 . S
C1893 C1894 1.373 . S
C1893 C1895 1.389 . S
C1894 H1867 0.950 . S
C1894 C1880 1.377 . S
C1894 C1893 1.373 . S
C1895 C1879 1.375 1_556 S
C1895 C1893 1.389 . S
C1895 C1896 1.524 1_556 S
C1896 C1895 1.524 1_554 S
C1896 C1897 1.397 . S
C1896 C1901 1.363 . S
C1897 H1868 0.950 . S
C1897 C1896 1.397 . S
C1897 C1898 1.334 . S
C1898 H1869 0.950 . S
C1898 C1897 1.334 . S
C1898 C1899 1.287 . S
C1899 C1898 1.287 . S
C1899 C1900 1.524 . S
C1899 H1902 0.999 . S
C1900 H1870 0.950 . S
C1900 C1899 1.524 . S
C1900 C1901 1.415 . S
C1901 H1871 0.950 . S
C1901 C1896 1.363 . S
C1901 C1900 1.415 . S
H1902 C1899 0.999 . S
H1903 C1884 0.913 . S
H1904 C1922 0.951 . S
H1905 C1924 0.951 . S
H1906 C1926 0.950 . S
H1907 C1927 0.943 1_556 S
H1908 C1929 0.950 . S
H1909 C1932 0.950 . S
H1910 C1933 0.950 . S
H1911 C1935 0.950 . S
H1912 C1936 0.950 . S
H1913 C1937 0.951 . S
H1914 C1939 0.951 . S
H1915 C1941 0.950 1_554 S
H1916 C1942 0.962 . S
H1917 C1944 0.950 . S
H1918 C1947 0.950 . S
H1919 C1948 0.950 . S
H1920 C1950 0.950 . S
H1921 C1951 0.950 . S
C1922 H1904 0.951 . S
C1922 C1923 1.366 . S
C1922 C1924 1.388 . S
C1923 C1922 1.366 . S
C1923 C1927 1.397 . S
C1924 H1905 0.951 . S
C1924 C1922 1.388 . S
C1924 C1925 1.366 . S
C1925 C1924 1.366 . S
C1925 C1926 1.414 1_554 S
C1925 C1928 1.499 . S
C1926 H1906 0.950 . S
C1926 C1925 1.414 1_556 S
C1926 C1927 1.369 1_556 S
C1927 H1907 0.943 1_554 S
C1927 C1923 1.397 . S
C1927 C1926 1.369 1_554 S
C1928 C1925 1.499 . S
C1928 C1929 1.373 1_554 S
C1928 C1930 1.389 . S
C1929 H1908 0.950 . S
C1929 C1928 1.373 1_556 S
C1929 C1945 1.377 . S
C1930 C1928 1.389 . S
C1930 C1931 1.524 . S
C1930 C1944 1.377 . S
C1931 C1930 1.524 . S
C1931 C1932 1.397 . S
C1931 C1936 1.363 . S
C1932 H1909 0.950 . S
C1932 C1931 1.397 . S
C1932 C1933 1.334 . S
C1933 H1910 0.950 . S
C1933 C1932 1.334 . S
C1933 C1934 1.287 . S
C1934 C1933 1.287 . S
C1934 C1935 1.524 . S
C1934 H1953 0.913 . S
C1935 H1911 0.950 . S
C1935 C1934 1.524 . S
C1935 C1936 1.415 . S
C1936 H1912 0.950 . S
C1936 C1931 1.363 . S
C1936 C1935 1.415 . S
C1937 H1913 0.951 . S
C1937 C1938 1.366 . S
C1937 C1939 1.388 . S
C1938 C1937 1.366 . S
C1938 C1942 1.385 . S
C1939 H1914 0.951 . S
C1939 C1937 1.388 . S
C1939 C1940 1.366 . S
C1940 C1939 1.366 . S
C1940 C1941 1.414 . S
C1940 C1943 1.499 . S
C1941 H1915 0.950 1_556 S
C1941 C1940 1.414 . S
C1941 C1942 1.374 . S
C1942 H1916 0.962 . S
C1942 C1938 1.385 . S
C1942 C1941 1.374 . S
C1943 C1940 1.499 . S
C1943 C1944 1.373 1_556 S
C1943 C1945 1.389 . S
C1944 H1917 0.950 . S
C1944 C1930 1.377 . S
C1944 C1943 1.373 1_554 S
C1945 C1929 1.377 . S
C1945 C1943 1.389 . S
C1945 C1946 1.524 . S
C1946 C1945 1.524 . S
C1946 C1947 1.397 . S
C1946 C1951 1.363 . S
C1947 H1918 0.950 . S
C1947 C1946 1.397 . S
C1947 C1948 1.334 . S
C1948 H1919 0.950 . S
C1948 C1947 1.334 . S
C1948 C1949 1.287 . S
C1949 C1948 1.287 . S
C1949 C1950 1.524 . S
C1949 H1952 0.999 . S
C1950 H1920 0.950 . S
C1950 C1949 1.524 . S
C1950 C1951 1.415 . S
C1951 H1921 0.950 . S
C1951 C1946 1.363 . S
C1951 C1950 1.415 . S
H1952 C1949 0.999 . S
H1953 C1934 0.913 . S
H1954 C1972 0.951 . S
H1955 C1974 0.951 . S
H1956 C1976 0.950 . S
H1957 C1977 0.950 . S
H1958 C1979 0.950 . S
H1959 C1982 0.950 . S
H1960 C1983 0.950 . S
H1961 C1985 0.950 . S
H1962 C1986 0.950 . S
H1963 C1987 0.951 . S
H1964 C1989 0.951 . S
H1965 C1991 0.950 . S
H1966 C1992 0.950 . S
H1967 C1994 0.950 . S
H1968 C1997 0.950 . S
H1969 C1998 0.950 . S
H1970 C2000 0.950 . S
H1971 C2001 0.950 . S
C1972 H1954 0.951 . S
C1972 C1973 1.366 . S
C1972 C1974 1.388 . S
C1973 C1972 1.366 . S
C1973 C1977 1.385 . S
C1974 H1955 0.951 . S
C1974 C1972 1.388 . S
C1974 C1975 1.366 . S
C1975 C1974 1.366 . S
C1975 C1976 1.414 . S
C1975 C1978 1.499 . S
C1976 H1956 0.950 . S
C1976 C1975 1.414 . S
C1976 C1977 1.374 . S
C1977 H1957 0.950 . S
C1977 C1973 1.385 . S
C1977 C1976 1.374 . S
C1978 C1975 1.499 . S
C1978 C1979 1.373 . S
C1978 C1980 1.389 . S
C1979 H1958 0.950 . S
C1979 C1978 1.373 . S
C1979 C1995 1.377 . S
C1980 C1978 1.389 . S
C1980 C1981 1.524 . S
C1980 C1994 1.377 . S
C1981 C1980 1.524 . S
C1981 C1982 1.397 1_554 S
C1981 C1986 1.363 . S
C1982 H1959 0.950 . S
C1982 C1981 1.397 1_556 S
C1982 C1983 1.334 . S
C1983 H1960 0.950 . S
C1983 C1982 1.334 . S
C1983 C1984 1.287 . S
C1984 C1983 1.287 . S
C1984 C1985 1.524 . S
C1984 H2003 0.913 . S
C1985 H1961 0.950 . S
C1985 C1984 1.524 . S
C1985 C1986 1.415 1_556 S
C1986 H1962 0.950 . S
C1986 C1981 1.363 . S
C1986 C1985 1.415 1_554 S
C1987 H1963 0.951 . S
C1987 C1988 1.366 1_655 S
C1987 C1989 1.388 . S
C1988 C1987 1.366 1_455 S
C1988 C1992 1.385 . S
C1989 H1964 0.951 . S
C1989 C1987 1.388 . S
C1989 C1990 1.366 . S
C1990 C1989 1.366 . S
C1990 C1991 1.414 . S
C1990 C1993 1.499 . S
C1991 H1965 0.950 . S
C1991 C1990 1.414 . S
C1991 C1992 1.374 1_655 S
C1992 H1966 0.950 . S
C1992 C1988 1.385 . S
C1992 C1991 1.374 1_455 S
C1993 C1990 1.499 . S
C1993 C1994 1.373 . S
C1993 C1995 1.389 . S
C1994 H1967 0.950 . S
C1994 C1980 1.377 . S
C1994 C1993 1.373 . S
C1995 C1979 1.377 . S
C1995 C1993 1.389 . S
C1995 C1996 1.524 . S
C1996 C1995 1.524 . S
C1996 C1997 1.397 . S
C1996 C2001 1.363 . S
C1997 H1968 0.950 . S
C1997 C1996 1.397 . S
C1997 C1998 1.334 . S
C1998 H1969 0.950 . S
C1998 C1997 1.334 . S
C1998 C1999 1.287 . S
C1999 C1998 1.287 . S
C1999 C2000 1.524 . S
C1999 H2002 0.999 . S
C2000 H1970 0.950 . S
C2000 C1999 1.524 . S
C2000 C2001 1.415 . S
C2001 H1971 0.950 . S
C2001 C1996 1.363 . S
C2001 C2000 1.415 . S
H2002 C1999 0.999 . S
H2003 C1984 0.913 . S
H2004 C2022 0.951 . S
H2005 C2024 0.951 . S
H2006 C2026 0.950 . S
H2007 C2027 0.950 . S
H2008 C2029 0.950 . S
H2009 C2032 0.950 . S
H2010 C2033 0.950 . S
H2011 C2035 0.950 1_655 S
H2012 C2036 0.950 . S
H2013 C2037 0.951 . S
H2014 C2039 0.951 . S
H2015 C2041 0.950 . S
H2016 C2042 0.950 . S
H2017 C2044 0.950 . S
H2018 C2047 0.950 . S
H2019 C2048 0.950 . S
H2020 C2050 0.950 . S
H2021 C2051 0.950 . S
C2022 H2004 0.951 . S
C2022 C2023 1.366 . S
C2022 C2024 1.388 . S
C2023 C2022 1.366 . S
C2023 C2027 1.385 . S
C2024 H2005 0.951 . S
C2024 C2022 1.388 . S
C2024 C2025 1.366 . S
C2025 C2024 1.366 . S
C2025 C2026 1.414 . S
C2025 C2028 1.499 . S
C2026 H2006 0.950 . S
C2026 C2025 1.414 . S
C2026 C2027 1.374 . S
C2027 H2007 0.950 . S
C2027 C2023 1.385 . S
C2027 C2026 1.374 . S
C2028 C2025 1.499 . S
C2028 C2029 1.373 . S
C2028 C2030 1.389 . S
C2029 H2008 0.950 . S
C2029 C2028 1.373 . S
C2029 C2045 1.377 . S
C2030 C2028 1.389 . S
C2030 C2031 1.524 . S
C2030 C2044 1.377 . S
C2031 C2030 1.524 . S
C2031 C2032 1.397 . S
C2031 C2036 1.363 . S
C2032 H2009 0.950 . S
C2032 C2031 1.397 . S
C2032 C2033 1.334 . S
C2033 H2010 0.950 . S
C2033 C2032 1.334 . S
C2033 C2034 1.287 . S
C2034 C2033 1.287 . S
C2034 C2035 1.524 . S
C2034 H2053 0.913 . S
C2035 H2011 0.950 1_455 S
C2035 C2034 1.524 . S
C2035 C2036 1.415 . S
C2036 H2012 0.950 . S
C2036 C2031 1.363 . S
C2036 C2035 1.415 . S
C2037 H2013 0.951 . S
C2037 C2038 1.366 . S
C2037 C2039 1.388 . S
C2038 C2037 1.366 . S
C2038 C2042 1.385 . S
C2039 H2014 0.951 . S
C2039 C2037 1.388 . S
C2039 C2040 1.366 . S
C2040 C2039 1.366 . S
C2040 C2041 1.414 . S
C2040 C2043 1.499 . S
C2041 H2015 0.950 . S
C2041 C2040 1.414 . S
C2041 C2042 1.374 . S
C2042 H2016 0.950 . S
C2042 C2038 1.385 . S
C2042 C2041 1.374 . S
C2043 C2040 1.499 . S
C2043 C2044 1.373 . S
C2043 C2045 1.389 . S
C2044 H2017 0.950 . S
C2044 C2030 1.377 . S
C2044 C2043 1.373 . S
C2045 C2029 1.377 . S
C2045 C2043 1.389 . S
C2045 C2046 1.524 . S
C2046 C2045 1.524 . S
C2046 C2047 1.397 . S
C2046 C2051 1.363 . S
C2047 H2018 0.950 . S
C2047 C2046 1.397 . S
C2047 C2048 1.334 . S
C2048 H2019 0.950 . S
C2048 C2047 1.334 . S
C2048 C2049 1.287 . S
C2049 C2048 1.287 . S
C2049 C2050 1.524 . S
C2049 H2052 0.999 . S
C2050 H2020 0.950 . S
C2050 C2049 1.524 . S
C2050 C2051 1.415 . S
C2051 H2021 0.950 . S
C2051 C2046 1.363 . S
C2051 C2050 1.415 . S
H2052 C2049 0.999 . S
H2053 C2034 0.913 . S
H2054 C2072 0.951 . S
H2055 C2074 0.951 . S
H2056 C2076 0.969 . S
H2057 C2077 0.953 . S
H2058 C2079 0.950 . S
H2059 C2082 0.950 . S
H2060 C2083 0.950 . S
H2061 C2085 0.950 . S
H2062 C2086 0.950 . S
H2063 C2087 0.951 . S
H2064 C2089 0.951 . S
H2065 C2091 0.950 . S
H2066 C2092 0.950 . S
H2067 C2094 0.950 . S
H2068 C2097 0.950 . S
H2069 C2098 0.950 . S
H2070 C2100 0.950 . S
H2071 C2101 0.950 . S
C2072 H2054 0.951 . S
C2072 C2073 1.366 . S
C2072 C2074 1.388 . S
C2073 C2072 1.366 . S
C2073 C2077 1.385 . S
C2074 H2055 0.951 . S
C2074 C2072 1.388 . S
C2074 C2075 1.366 . S
C2075 C2074 1.366 . S
C2075 C2076 1.403 1_455 S
C2075 C2078 1.514 . S
C2076 H2056 0.969 . S
C2076 C2075 1.403 1_655 S
C2076 C2077 1.366 1_655 S
C2077 H2057 0.953 . S
C2077 C2073 1.385 . S
C2077 C2076 1.366 1_455 S
C2078 C2075 1.514 . S
C2078 C2079 1.328 1_455 S
C2078 C2080 1.420 . S
C2079 H2058 0.950 . S
C2079 C2078 1.328 1_655 S
C2079 C2095 1.377 . S
C2080 C2078 1.420 . S
C2080 C2081 1.524 . S
C2080 C2094 1.377 . S
C2081 C2080 1.524 . S
C2081 C2082 1.397 . S
C2081 C2086 1.363 . S
C2082 H2059 0.950 . S
C2082 C2081 1.397 . S
C2082 C2083 1.334 . S
C2083 H2060 0.950 . S
C2083 C2082 1.334 . S
C2083 C2084 1.287 . S
C2084 C2083 1.287 . S
C2084 C2085 1.524 . S
C2084 H2103 0.913 . S
C2085 H2061 0.950 . S
C2085 C2084 1.524 . S
C2085 C2086 1.415 . S
C2086 H2062 0.950 . S
C2086 C2081 1.363 . S
C2086 C2085 1.415 . S
C2087 H2063 0.951 . S
C2087 C2088 1.366 . S
C2087 C2089 1.388 . S
C2088 C2087 1.366 . S
C2088 C2092 1.385 . S
C2089 H2064 0.951 . S
C2089 C2087 1.388 . S
C2089 C2090 1.366 . S
C2090 C2089 1.366 . S
C2090 C2091 1.414 . S
C2090 C2093 1.499 . S
C2091 H2065 0.950 . S
C2091 C2090 1.414 . S
C2091 C2092 1.374 . S
C2092 H2066 0.950 . S
C2092 C2088 1.385 . S
C2092 C2091 1.374 . S
C2093 C2090 1.499 . S
C2093 C2094 1.373 1_655 S
C2093 C2095 1.389 . S
C2094 H2067 0.950 . S
C2094 C2080 1.377 . S
C2094 C2093 1.373 1_455 S
C2095 C2079 1.377 . S
C2095 C2093 1.389 . S
C2095 C2096 1.524 . S
C2096 C2095 1.524 . S
C2096 C2097 1.397 . S
C2096 C2101 1.363 . S
C2097 H2068 0.950 . S
C2097 C2096 1.397 . S
C2097 C2098 1.334 . S
C2098 H2069 0.950 . S
C2098 C2097 1.334 . S
C2098 C2099 1.287 . S
C2099 C2098 1.287 . S
C2099 C2100 1.524 . S
C2099 H2102 0.999 . S
C2100 H2070 0.950 . S
C2100 C2099 1.524 . S
C2100 C2101 1.415 . S
C2101 H2071 0.950 . S
C2101 C2096 1.363 . S
C2101 C2100 1.415 . S
H2102 C2099 0.999 . S
H2103 C2084 0.913 . S
H2104 C2122 0.951 . S
H2105 C2124 0.951 . S
H2106 C2126 0.950 . S
H2107 C2127 0.950 . S
H2108 C2129 0.950 . S
H2109 C2132 0.950 . S
H2110 C2133 0.950 . S
H2111 C2135 0.950 . S
H2112 C2136 0.950 . S
H2113 C2137 0.951 . S
H2114 C2139 0.951 . S
H2115 C2141 0.950 . S
H2116 C2142 0.950 . S
H2117 C2144 0.950 . S
H2118 C2147 0.950 . S
H2119 C2148 0.950 . S
H2120 C2150 0.950 . S
H2121 C2151 0.950 . S
C2122 H2104 0.951 . S
C2122 C2123 1.366 . S
C2122 C2124 1.388 . S
C2123 C2122 1.366 . S
C2123 C2127 1.385 . S
C2124 H2105 0.951 . S
C2124 C2122 1.388 . S
C2124 C2125 1.366 . S
C2125 C2124 1.366 . S
C2125 C2126 1.414 . S
C2125 C2128 1.499 . S
C2126 H2106 0.950 . S
C2126 C2125 1.414 . S
C2126 C2127 1.374 . S
C2127 H2107 0.950 . S
C2127 C2123 1.385 . S
C2127 C2126 1.374 . S
C2128 C2125 1.499 . S
C2128 C2129 1.373 . S
C2128 C2130 1.389 . S
C2129 H2108 0.950 . S
C2129 C2128 1.373 . S
C2129 C2145 1.377 . S
C2130 C2128 1.389 . S
C2130 C2131 1.524 . S
C2130 C2144 1.377 . S
C2131 C2130 1.524 . S
C2131 C2132 1.397 . S
C2131 C2136 1.363 . S
C2132 H2109 0.950 . S
C2132 C2131 1.397 . S
C2132 C2133 1.334 . S
C2133 H2110 0.950 . S
C2133 C2132 1.334 . S
C2133 C2134 1.287 . S
C2134 C2133 1.287 . S
C2134 C2135 1.524 . S
C2134 H2153 0.913 . S
C2135 H2111 0.950 . S
C2135 C2134 1.524 . S
C2135 C2136 1.415 . S
C2136 H2112 0.950 . S
C2136 C2131 1.363 . S
C2136 C2135 1.415 . S
C2137 H2113 0.951 . S
C2137 C2138 1.366 . S
C2137 C2139 1.388 . S
C2138 C2137 1.366 . S
C2138 C2142 1.385 . S
C2139 H2114 0.951 . S
C2139 C2137 1.388 . S
C2139 C2140 1.366 . S
C2140 C2139 1.366 . S
C2140 C2141 1.414 . S
C2140 C2143 1.499 . S
C2141 H2115 0.950 . S
C2141 C2140 1.414 . S
C2141 C2142 1.374 . S
C2142 H2116 0.950 . S
C2142 C2138 1.385 . S
C2142 C2141 1.374 . S
C2143 C2140 1.499 . S
C2143 C2144 1.373 . S
C2143 C2145 1.389 . S
C2144 H2117 0.950 . S
C2144 C2130 1.377 . S
C2144 C2143 1.373 . S
C2145 C2129 1.377 . S
C2145 C2143 1.389 . S
C2145 C2146 1.524 1_455 S
C2146 C2145 1.524 1_655 S
C2146 C2147 1.397 . S
C2146 C2151 1.363 . S
C2147 H2118 0.950 . S
C2147 C2146 1.397 . S
C2147 C2148 1.334 . S
C2148 H2119 0.950 . S
C2148 C2147 1.334 . S
C2148 C2149 1.287 . S
C2149 C2148 1.287 . S
C2149 C2150 1.524 . S
C2149 H2152 0.999 . S
C2150 H2120 0.950 . S
C2150 C2149 1.524 . S
C2150 C2151 1.415 . S
C2151 H2121 0.950 . S
C2151 C2146 1.363 . S
C2151 C2150 1.415 . S
H2152 C2149 0.999 . S
H2153 C2134 0.913 . S
H2154 C2172 0.951 . S
H2155 C2174 0.951 . S
H2156 C2176 0.950 . S
H2157 C2177 0.950 . S
H2158 C2179 0.950 1_455 S
H2159 C2182 0.950 . S
H2160 C2183 0.950 . S
H2161 C2185 0.950 . S
H2162 C2186 0.950 . S
H2163 C2187 0.951 . S
H2164 C2189 0.951 1_455 S
H2165 C2191 0.950 . S
H2166 C2192 0.950 . S
H2167 C2194 0.950 . S
H2168 C2197 0.950 . S
H2169 C2198 0.963 . S
H2170 C2200 0.950 . S
H2171 C2201 0.950 . S
C2172 H2154 0.951 . S
C2172 C2173 1.366 . S
C2172 C2174 1.388 . S
C2173 C2172 1.366 . S
C2173 C2177 1.385 1_655 S
C2174 H2155 0.951 . S
C2174 C2172 1.388 . S
C2174 C2175 1.366 . S
C2175 C2174 1.366 . S
C2175 C2176 1.414 1_655 S
C2175 C2178 1.499 . S
C2176 H2156 0.950 . S
C2176 C2175 1.414 1_455 S
C2176 C2177 1.374 . S
C2177 H2157 0.950 . S
C2177 C2173 1.385 1_455 S
C2177 C2176 1.374 . S
C2178 C2175 1.499 . S
C2178 C2179 1.373 . S
C2178 C2180 1.389 . S
C2179 H2158 0.950 1_655 S
C2179 C2178 1.373 . S
C2179 C2195 1.377 . S
C2180 C2178 1.389 . S
C2180 C2181 1.524 . S
C2180 C2194 1.377 . S
C2181 C2180 1.524 . S
C2181 C2182 1.397 . S
C2181 C2186 1.363 . S
C2182 H2159 0.950 . S
C2182 C2181 1.397 . S
C2182 C2183 1.334 . S
C2183 H2160 0.950 . S
C2183 C2182 1.334 . S
C2183 C2184 1.287 . S
C2184 C2183 1.287 . S
C2184 C2185 1.524 . S
C2184 H2203 0.913 . S
C2185 H2161 0.950 . S
C2185 C2184 1.524 . S
C2185 C2186 1.415 . S
C2186 H2162 0.950 . S
C2186 C2181 1.363 . S
C2186 C2185 1.415 . S
C2187 H2163 0.951 . S
C2187 C2188 1.366 . S
C2187 C2189 1.388 . S
C2188 C2187 1.366 . S
C2188 C2192 1.385 . S
C2189 H2164 0.951 1_655 S
C2189 C2187 1.388 . S
C2189 C2190 1.366 . S
C2190 C2189 1.366 . S
C2190 C2191 1.414 . S
C2190 C2193 1.499 . S
C2191 H2165 0.950 . S
C2191 C2190 1.414 . S
C2191 C2192 1.374 . S
C2192 H2166 0.950 . S
C2192 C2188 1.385 . S
C2192 C2191 1.374 . S
C2193 C2190 1.499 . S
C2193 C2194 1.373 . S
C2193 C2195 1.389 . S
C2194 H2167 0.950 . S
C2194 C2180 1.377 . S
C2194 C2193 1.373 . S
C2195 C2179 1.377 . S
C2195 C2193 1.389 . S
C2195 C2196 1.524 1_655 S
C2196 C2195 1.524 1_455 S
C2196 C2197 1.397 1_455 S
C2196 C2201 1.363 . S
C2197 H2168 0.950 . S
C2197 C2196 1.397 1_655 S
C2197 C2198 1.334 1_655 S
C2198 H2169 0.963 . S
C2198 C2197 1.334 1_455 S
C2198 C2199 1.287 . S
C2199 C2198 1.287 . S
C2199 C2200 1.524 . S
C2199 H2202 0.999 . S
C2200 H2170 0.950 . S
C2200 C2199 1.524 . S
C2200 C2201 1.415 . S
C2201 H2171 0.950 . S
C2201 C2196 1.363 . S
C2201 C2200 1.415 . S
H2202 C2199 0.999 . S
H2203 C2184 0.913 . S
H2204 C2222 0.951 . S
H2205 C2224 0.951 . S
H2206 C2226 0.950 . S
H2207 C2227 0.950 . S
H2208 C2229 0.950 . S
H2209 C2232 0.950 . S
H2210 C2233 0.950 . S
H2211 C2235 0.950 . S
H2212 C2236 0.950 . S
H2213 C2237 0.951 . S
H2214 C2239 0.951 . S
H2215 C2241 0.950 . S
H2216 C2242 0.950 . S
H2217 C2244 0.950 . S
H2218 C2247 0.950 . S
H2219 C2248 0.950 . S
H2220 C2250 0.950 . S
H2221 C2251 0.950 . S
C2222 H2204 0.951 . S
C2222 C2223 1.366 . S
C2222 C2224 1.388 . S
C2223 C2222 1.366 . S
C2223 C2227 1.385 . S
C2224 H2205 0.951 . S
C2224 C2222 1.388 . S
C2224 C2225 1.366 . S
C2225 C2224 1.366 . S
C2225 C2226 1.414 . S
C2225 C2228 1.499 . S
C2226 H2206 0.950 . S
C2226 C2225 1.414 . S
C2226 C2227 1.374 . S
C2227 H2207 0.950 . S
C2227 C2223 1.385 . S
C2227 C2226 1.374 . S
C2228 C2225 1.499 . S
C2228 C2229 1.373 . S
C2228 C2230 1.389 . S
C2229 H2208 0.950 . S
C2229 C2228 1.373 . S
C2229 C2245 1.377 . S
C2230 C2228 1.389 . S
C2230 C2231 1.524 1_545 S
C2230 C2244 1.377 . S
C2231 C2230 1.524 1_565 S
C2231 C2232 1.397 . S
C2231 C2236 1.363 . S
C2232 H2209 0.950 . S
C2232 C2231 1.397 . S
C2232 C2233 1.334 . S
C2233 H2210 0.950 . S
C2233 C2232 1.334 . S
C2233 C2234 1.287 . S
C2234 C2233 1.287 . S
C2234 C2235 1.524 . S
C2234 H2253 0.913 . S
C2235 H2211 0.950 . S
C2235 C2234 1.524 . S
C2235 C2236 1.415 . S
C2236 H2212 0.950 . S
C2236 C2231 1.363 . S
C2236 C2235 1.415 . S
C2237 H2213 0.951 . S
C2237 C2238 1.366 . S
C2237 C2239 1.388 . S
C2238 C2237 1.366 . S
C2238 C2242 1.385 . S
C2239 H2214 0.951 . S
C2239 C2237 1.388 . S
C2239 C2240 1.366 . S
C2240 C2239 1.366 . S
C2240 C2241 1.414 . S
C2240 C2243 1.499 . S
C2241 H2215 0.950 . S
C2241 C2240 1.414 . S
C2241 C2242 1.374 . S
C2242 H2216 0.950 . S
C2242 C2238 1.385 . S
C2242 C2241 1.374 . S
C2243 C2240 1.499 . S
C2243 C2244 1.373 . S
C2243 C2245 1.389 . S
C2244 H2217 0.950 . S
C2244 C2230 1.377 . S
C2244 C2243 1.373 . S
C2245 C2229 1.377 . S
C2245 C2243 1.389 . S
C2245 C2246 1.524 . S
C2246 C2245 1.524 . S
C2246 C2247 1.397 . S
C2246 C2251 1.363 . S
C2247 H2218 0.950 . S
C2247 C2246 1.397 . S
C2247 C2248 1.334 . S
C2248 H2219 0.950 . S
C2248 C2247 1.334 . S
C2248 C2249 1.287 . S
C2249 C2248 1.287 . S
C2249 C2250 1.524 . S
C2249 H2252 0.999 . S
C2250 H2220 0.950 . S
C2250 C2249 1.524 . S
C2250 C2251 1.415 . S
C2251 H2221 0.950 . S
C2251 C2246 1.363 . S
C2251 C2250 1.415 . S
H2252 C2249 0.999 . S
H2253 C2234 0.913 . S
H2254 C2272 0.951 . S
H2255 C2274 0.951 . S
H2256 C2276 0.950 . S
H2257 C2277 0.950 . S
H2258 C2279 0.950 . S
H2259 C2282 0.950 . S
H2260 C2283 0.950 . S
H2261 C2285 0.950 . S
H2262 C2286 0.950 . S
H2263 C2287 0.951 . S
H2264 C2289 0.951 . S
H2265 C2291 0.950 . S
H2266 C2292 0.950 . S
H2267 C2294 0.950 . S
H2268 C2297 0.950 . S
H2269 C2298 0.950 . S
H2270 C2300 0.950 . S
H2271 C2301 0.950 . S
C2272 H2254 0.951 . S
C2272 C2273 1.366 . S
C2272 C2274 1.388 . S
C2273 C2272 1.366 . S
C2273 C2277 1.385 . S
C2274 H2255 0.951 . S
C2274 C2272 1.388 . S
C2274 C2275 1.366 . S
C2275 C2274 1.366 . S
C2275 C2276 1.414 . S
C2275 C2278 1.499 . S
C2276 H2256 0.950 . S
C2276 C2275 1.414 . S
C2276 C2277 1.374 . S
C2277 H2257 0.950 . S
C2277 C2273 1.385 . S
C2277 C2276 1.374 . S
C2278 C2275 1.499 . S
C2278 C2279 1.373 . S
C2278 C2280 1.389 . S
C2279 H2258 0.950 . S
C2279 C2278 1.373 . S
C2279 C2295 1.377 . S
C2280 C2278 1.389 . S
C2280 C2281 1.524 . S
C2280 C2294 1.377 . S
C2281 C2280 1.524 . S
C2281 C2282 1.397 . S
C2281 C2286 1.363 . S
C2282 H2259 0.950 . S
C2282 C2281 1.397 . S
C2282 C2283 1.334 . S
C2283 H2260 0.950 . S
C2283 C2282 1.334 . S
C2283 C2284 1.287 . S
C2284 C2283 1.287 . S
C2284 C2285 1.524 . S
C2284 H2303 0.913 . S
C2285 H2261 0.950 . S
C2285 C2284 1.524 . S
C2285 C2286 1.415 . S
C2286 H2262 0.950 . S
C2286 C2281 1.363 . S
C2286 C2285 1.415 . S
C2287 H2263 0.951 . S
C2287 C2288 1.366 . S
C2287 C2289 1.388 . S
C2288 C2287 1.366 . S
C2288 C2292 1.385 . S
C2289 H2264 0.951 . S
C2289 C2287 1.388 . S
C2289 C2290 1.366 . S
C2290 C2289 1.366 . S
C2290 C2291 1.414 . S
C2290 C2293 1.499 . S
C2291 H2265 0.950 . S
C2291 C2290 1.414 . S
C2291 C2292 1.374 . S
C2292 H2266 0.950 . S
C2292 C2288 1.385 . S
C2292 C2291 1.374 . S
C2293 C2290 1.499 . S
C2293 C2294 1.373 . S
C2293 C2295 1.389 . S
C2294 H2267 0.950 . S
C2294 C2280 1.377 . S
C2294 C2293 1.373 . S
C2295 C2279 1.377 . S
C2295 C2293 1.389 . S
C2295 C2296 1.524 . S
C2296 C2295 1.524 . S
C2296 C2297 1.397 . S
C2296 C2301 1.363 . S
C2297 H2268 0.950 . S
C2297 C2296 1.397 . S
C2297 C2298 1.334 . S
C2298 H2269 0.950 . S
C2298 C2297 1.334 . S
C2298 C2299 1.287 . S
C2299 C2298 1.287 . S
C2299 C2300 1.524 . S
C2299 H2302 0.999 . S
C2300 H2270 0.950 . S
C2300 C2299 1.524 . S
C2300 C2301 1.415 . S
C2301 H2271 0.950 . S
C2301 C2296 1.363 . S
C2301 C2300 1.415 . S
H2302 C2299 0.999 . S
H2303 C2284 0.913 . S
H2304 C2322 0.951 . S
H2305 C2324 0.951 . S
H2306 C2326 0.950 . S
H2307 C2327 0.950 . S
H2308 C2329 0.950 . S
H2309 C2332 0.950 . S
H2310 C2333 0.950 . S
H2311 C2335 0.950 . S
H2312 C2336 0.950 . S
H2313 C2337 0.951 . S
H2314 C2339 0.951 . S
H2315 C2341 0.950 . S
H2316 C2342 0.950 . S
H2317 C2344 0.950 . S
H2318 C2347 0.950 . S
H2319 C2348 0.950 . S
H2320 C2350 0.950 . S
H2321 C2351 0.950 . S
C2322 H2304 0.951 . S
C2322 C2323 1.366 1_545 S
C2322 C2324 1.388 . S
C2323 C2322 1.366 1_565 S
C2323 C2327 1.385 . S
C2324 H2305 0.951 . S
C2324 C2322 1.388 . S
C2324 C2325 1.366 1_545 S
C2325 C2324 1.366 1_565 S
C2325 C2326 1.414 . S
C2325 C2328 1.499 . S
C2326 H2306 0.950 . S
C2326 C2325 1.414 . S
C2326 C2327 1.374 . S
C2327 H2307 0.950 . S
C2327 C2323 1.385 . S
C2327 C2326 1.374 . S
C2328 C2325 1.499 . S
C2328 C2329 1.373 . S
C2328 C2330 1.389 . S
C2329 H2308 0.950 . S
C2329 C2328 1.373 . S
C2329 C2345 1.377 . S
C2330 C2328 1.389 . S
C2330 C2331 1.524 1_565 S
C2330 C2344 1.377 . S
C2331 C2330 1.524 1_545 S
C2331 C2332 1.397 1_545 S
C2331 C2336 1.363 . S
C2332 H2309 0.950 . S
C2332 C2331 1.397 1_565 S
C2332 C2333 1.334 1_565 S
C2333 H2310 0.950 . S
C2333 C2332 1.334 1_545 S
C2333 C2334 1.287 . S
C2334 C2333 1.287 . S
C2334 C2335 1.524 . S
C2334 H2353 0.913 . S
C2335 H2311 0.950 . S
C2335 C2334 1.524 . S
C2335 C2336 1.415 . S
C2336 H2312 0.950 . S
C2336 C2331 1.363 . S
C2336 C2335 1.415 . S
C2337 H2313 0.951 . S
C2337 C2338 1.366 . S
C2337 C2339 1.388 . S
C2338 C2337 1.366 . S
C2338 C2342 1.385 . S
C2339 H2314 0.951 . S
C2339 C2337 1.388 . S
C2339 C2340 1.366 . S
C2340 C2339 1.366 . S
C2340 C2341 1.414 . S
C2340 C2343 1.499 . S
C2341 H2315 0.950 . S
C2341 C2340 1.414 . S
C2341 C2342 1.374 . S
C2342 H2316 0.950 . S
C2342 C2338 1.385 . S
C2342 C2341 1.374 . S
C2343 C2340 1.499 . S
C2343 C2344 1.373 . S
C2343 C2345 1.389 . S
C2344 H2317 0.950 . S
C2344 C2330 1.377 . S
C2344 C2343 1.373 . S
C2345 C2329 1.377 . S
C2345 C2343 1.389 . S
C2345 C2346 1.524 . S
C2346 C2345 1.524 . S
C2346 C2347 1.397 . S
C2346 C2351 1.363 . S
C2347 H2318 0.950 . S
C2347 C2346 1.397 . S
C2347 C2348 1.334 . S
C2348 H2319 0.950 . S
C2348 C2347 1.334 . S
C2348 C2349 1.287 . S
C2349 C2348 1.287 . S
C2349 C2350 1.524 . S
C2349 H2352 0.999 . S
C2350 H2320 0.950 . S
C2350 C2349 1.524 . S
C2350 C2351 1.415 . S
C2351 H2321 0.950 . S
C2351 C2346 1.363 . S
C2351 C2350 1.415 . S
H2352 C2349 0.999 . S
H2353 C2334 0.913 . S
H2354 C2372 0.951 . S
H2355 C2374 0.951 . S
H2356 C2376 0.950 . S
H2357 C2377 0.950 . S
H2358 C2379 0.950 . S
H2359 C2382 0.950 . S
H2360 C2383 0.950 . S
H2361 C2385 0.950 . S
H2362 C2386 0.950 . S
H2363 C2387 0.951 . S
H2364 C2389 0.951 . S
H2365 C2391 0.950 . S
H2366 C2392 0.950 . S
H2367 C2394 0.950 . S
H2368 C2397 0.950 . S
H2369 C2398 0.950 . S
H2370 C2400 0.950 . S
H2371 C2401 0.950 . S
C2372 H2354 0.951 . S
C2372 C2373 1.366 . S
C2372 C2374 1.388 . S
C2373 C2372 1.366 . S
C2373 C2377 1.385 . S
C2374 H2355 0.951 . S
C2374 C2372 1.388 . S
C2374 C2375 1.366 . S
C2375 C2374 1.366 . S
C2375 C2376 1.414 . S
C2375 C2378 1.499 . S
C2376 H2356 0.950 . S
C2376 C2375 1.414 . S
C2376 C2377 1.374 . S
C2377 H2357 0.950 . S
C2377 C2373 1.385 . S
C2377 C2376 1.374 . S
C2378 C2375 1.499 . S
C2378 C2379 1.373 . S
C2378 C2380 1.389 . S
C2379 H2358 0.950 . S
C2379 C2378 1.373 . S
C2379 C2395 1.377 . S
C2380 C2378 1.389 . S
C2380 C2381 1.524 . S
C2380 C2394 1.377 . S
C2381 C2380 1.524 . S
C2381 C2382 1.397 . S
C2381 C2386 1.363 . S
C2382 H2359 0.950 . S
C2382 C2381 1.397 . S
C2382 C2383 1.334 . S
C2383 H2360 0.950 . S
C2383 C2382 1.334 . S
C2383 C2384 1.287 . S
C2384 C2383 1.287 . S
C2384 C2385 1.524 . S
C2384 H2403 0.913 . S
C2385 H2361 0.950 . S
C2385 C2384 1.524 . S
C2385 C2386 1.415 . S
C2386 H2362 0.950 . S
C2386 C2381 1.363 . S
C2386 C2385 1.415 . S
C2387 H2363 0.951 . S
C2387 C2388 1.366 . S
C2387 C2389 1.388 . S
C2388 C2387 1.366 . S
C2388 C2392 1.385 . S
C2389 H2364 0.951 . S
C2389 C2387 1.388 . S
C2389 C2390 1.366 . S
C2390 C2389 1.366 . S
C2390 C2391 1.414 . S
C2390 C2393 1.499 . S
C2391 H2365 0.950 . S
C2391 C2390 1.414 . S
C2391 C2392 1.374 . S
C2392 H2366 0.950 . S
C2392 C2388 1.385 . S
C2392 C2391 1.374 . S
C2393 C2390 1.499 . S
C2393 C2394 1.373 . S
C2393 C2395 1.389 . S
C2394 H2367 0.950 . S
C2394 C2380 1.377 . S
C2394 C2393 1.373 . S
C2395 C2379 1.377 . S
C2395 C2393 1.389 . S
C2395 C2396 1.524 . S
C2396 C2395 1.524 . S
C2396 C2397 1.397 . S
C2396 C2401 1.363 . S
C2397 H2368 0.950 . S
C2397 C2396 1.397 . S
C2397 C2398 1.334 . S
C2398 H2369 0.950 . S
C2398 C2397 1.334 . S
C2398 C2399 1.287 . S
C2399 C2398 1.287 . S
C2399 C2400 1.524 . S
C2399 H2402 0.999 . S
C2400 H2370 0.950 . S
C2400 C2399 1.524 . S
C2400 C2401 1.415 . S
C2401 H2371 0.950 . S
C2401 C2396 1.363 . S
C2401 C2400 1.415 . S
H2402 C2399 0.999 . S
H2403 C2384 0.913 . S
H2404 C2422 0.951 . S
H2405 C2424 0.951 . S
H2406 C2426 0.950 . S
H2407 C2427 0.950 . S
H2408 C2429 0.950 . S
H2409 C2432 0.950 . S
H2410 C2433 0.950 . S
H2411 C2435 0.950 . S
H2412 C2436 0.950 . S
H2413 C2437 0.951 . S
H2414 C2439 0.951 . S
H2415 C2441 0.950 . S
H2416 C2442 0.950 . S
H2417 C2444 0.950 . S
H2418 C2447 0.950 . S
H2419 C2448 0.950 . S
H2420 C2450 0.950 . S
H2421 C2451 0.950 1_554 S
C2422 H2404 0.951 . S
C2422 C2423 1.366 . S
C2422 C2424 1.388 . S
C2423 C2422 1.366 . S
C2423 C2427 1.385 . S
C2424 H2405 0.951 . S
C2424 C2422 1.388 . S
C2424 C2425 1.366 . S
C2425 C2424 1.366 . S
C2425 C2426 1.414 . S
C2425 C2428 1.499 . S
C2426 H2406 0.950 . S
C2426 C2425 1.414 . S
C2426 C2427 1.374 . S
C2427 H2407 0.950 . S
C2427 C2423 1.385 . S
C2427 C2426 1.374 . S
C2428 C2425 1.499 . S
C2428 C2429 1.373 . S
C2428 C2430 1.389 . S
C2429 H2408 0.950 . S
C2429 C2428 1.373 . S
C2429 C2445 1.377 . S
C2430 C2428 1.389 . S
C2430 C2431 1.524 . S
C2430 C2444 1.377 . S
C2431 C2430 1.524 . S
C2431 C2432 1.397 . S
C2431 C2436 1.363 . S
C2432 H2409 0.950 . S
C2432 C2431 1.397 . S
C2432 C2433 1.334 . S
C2433 H2410 0.950 . S
C2433 C2432 1.334 . S
C2433 C2434 1.287 . S
C2434 C2433 1.287 . S
C2434 C2435 1.524 . S
C2434 H2453 0.913 . S
C2435 H2411 0.950 . S
C2435 C2434 1.524 . S
C2435 C2436 1.415 . S
C2436 H2412 0.950 . S
C2436 C2431 1.363 . S
C2436 C2435 1.415 . S
C2437 H2413 0.951 . S
C2437 C2438 1.366 . S
C2437 C2439 1.388 . S
C2438 C2437 1.366 . S
C2438 C2442 1.385 . S
C2439 H2414 0.951 . S
C2439 C2437 1.388 . S
C2439 C2440 1.366 . S
C2440 C2439 1.366 . S
C2440 C2441 1.414 . S
C2440 C2443 1.499 . S
C2441 H2415 0.950 . S
C2441 C2440 1.414 . S
C2441 C2442 1.374 . S
C2442 H2416 0.950 . S
C2442 C2438 1.385 . S
C2442 C2441 1.374 . S
C2443 C2440 1.499 . S
C2443 C2444 1.373 . S
C2443 C2445 1.389 . S
C2444 H2417 0.950 . S
C2444 C2430 1.377 . S
C2444 C2443 1.373 . S
C2445 C2429 1.377 . S
C2445 C2443 1.389 . S
C2445 C2446 1.524 1_554 S
C2446 C2445 1.524 1_556 S
C2446 C2447 1.397 . S
C2446 C2451 1.363 . S
C2447 H2418 0.950 . S
C2447 C2446 1.397 . S
C2447 C2448 1.334 . S
C2448 H2419 0.950 . S
C2448 C2447 1.334 . S
C2448 C2449 1.287 . S
C2449 C2448 1.287 . S
C2449 C2450 1.524 . S
C2449 H2452 0.999 . S
C2450 H2420 0.950 . S
C2450 C2449 1.524 . S
C2450 C2451 1.415 . S
C2451 H2421 0.950 1_556 S
C2451 C2446 1.363 . S
C2451 C2450 1.415 . S
H2452 C2449 0.999 . S
H2453 C2434 0.913 . S
H2454 C2472 0.951 . S
H2455 C2474 0.951 . S
H2456 C2476 0.950 . S
H2457 C2477 0.950 . S
H2458 C2479 0.950 . S
H2459 C2482 0.950 . S
H2460 C2483 0.950 . S
H2461 C2485 0.950 . S
H2462 C2486 0.950 . S
H2463 C2487 0.951 . S
H2464 C2489 0.951 . S
H2465 C2491 0.950 . S
H2466 C2492 0.950 . S
H2467 C2494 0.950 . S
H2468 C2497 0.950 . S
H2469 C2498 0.950 . S
H2470 C2500 0.950 . S
H2471 C2501 0.950 . S
C2472 H2454 0.951 . S
C2472 C2473 1.366 . S
C2472 C2474 1.388 . S
C2473 C2472 1.366 . S
C2473 C2477 1.385 . S
C2474 H2455 0.951 . S
C2474 C2472 1.388 . S
C2474 C2475 1.366 . S
C2475 C2474 1.366 . S
C2475 C2476 1.414 . S
C2475 C2478 1.499 . S
C2476 H2456 0.950 . S
C2476 C2475 1.414 . S
C2476 C2477 1.374 . S
C2477 H2457 0.950 . S
C2477 C2473 1.385 . S
C2477 C2476 1.374 . S
C2478 C2475 1.499 . S
C2478 C2479 1.373 . S
C2478 C2480 1.389 . S
C2479 H2458 0.950 . S
C2479 C2478 1.373 . S
C2479 C2495 1.377 . S
C2480 C2478 1.389 . S
C2480 C2481 1.524 . S
C2480 C2494 1.377 . S
C2481 C2480 1.524 . S
C2481 C2482 1.397 . S
C2481 C2486 1.363 . S
C2482 H2459 0.950 . S
C2482 C2481 1.397 . S
C2482 C2483 1.334 . S
C2483 H2460 0.950 . S
C2483 C2482 1.334 . S
C2483 C2484 1.287 . S
C2484 C2483 1.287 . S
C2484 C2485 1.524 . S
C2484 H2503 0.913 . S
C2485 H2461 0.950 . S
C2485 C2484 1.524 . S
C2485 C2486 1.415 . S
C2486 H2462 0.950 . S
C2486 C2481 1.363 . S
C2486 C2485 1.415 . S
C2487 H2463 0.951 . S
C2487 C2488 1.366 . S
C2487 C2489 1.388 . S
C2488 C2487 1.366 . S
C2488 C2492 1.385 . S
C2489 H2464 0.951 . S
C2489 C2487 1.388 . S
C2489 C2490 1.366 . S
C2490 C2489 1.366 . S
C2490 C2491 1.414 . S
C2490 C2493 1.499 . S
C2491 H2465 0.950 . S
C2491 C2490 1.414 . S
C2491 C2492 1.374 . S
C2492 H2466 0.950 . S
C2492 C2488 1.385 . S
C2492 C2491 1.374 . S
C2493 C2490 1.499 . S
C2493 C2494 1.373 . S
C2493 C2495 1.389 . S
C2494 H2467 0.950 . S
C2494 C2480 1.377 . S
C2494 C2493 1.373 . S
C2495 C2479 1.377 . S
C2495 C2493 1.389 . S
C2495 C2496 1.524 . S
C2496 C2495 1.524 . S
C2496 C2497 1.397 . S
C2496 C2501 1.363 . S
C2497 H2468 0.950 . S
C2497 C2496 1.397 . S
C2497 C2498 1.334 . S
C2498 H2469 0.950 . S
C2498 C2497 1.334 . S
C2498 C2499 1.287 . S
C2499 C2498 1.287 . S
C2499 C2500 1.524 . S
C2499 H2502 0.999 . S
C2500 H2470 0.950 . S
C2500 C2499 1.524 . S
C2500 C2501 1.415 . S
C2501 H2471 0.950 . S
C2501 C2496 1.363 . S
C2501 C2500 1.415 . S
H2502 C2499 0.999 . S
H2503 C2484 0.913 . S
H2504 C2522 0.951 . S
H2505 C2524 0.951 . S
H2506 C2526 0.950 . S
H2507 C2527 0.950 . S
H2508 C2529 0.950 . S
H2509 C2532 0.950 . S
H2510 C2533 0.950 . S
H2511 C2535 0.950 . S
H2512 C2536 0.950 . S
H2513 C2537 0.951 . S
H2514 C2539 0.951 . S
H2515 C2541 0.950 . S
H2516 C2542 0.950 . S
H2517 C2544 0.950 . S
H2518 C2547 0.950 . S
H2519 C2548 0.950 . S
H2520 C2550 0.950 . S
H2521 C2551 0.950 . S
C2522 H2504 0.951 . S
C2522 C2523 1.366 . S
C2522 C2524 1.388 . S
C2523 C2522 1.366 . S
C2523 C2527 1.385 . S
C2524 H2505 0.951 . S
C2524 C2522 1.388 . S
C2524 C2525 1.366 . S
C2525 C2524 1.366 . S
C2525 C2526 1.414 . S
C2525 C2528 1.499 . S
C2526 H2506 0.950 . S
C2526 C2525 1.414 . S
C2526 C2527 1.374 . S
C2527 H2507 0.950 . S
C2527 C2523 1.385 . S
C2527 C2526 1.374 . S
C2528 C2525 1.499 . S
C2528 C2529 1.373 . S
C2528 C2530 1.389 . S
C2529 H2508 0.950 . S
C2529 C2528 1.373 . S
C2529 C2545 1.377 . S
C2530 C2528 1.389 . S
C2530 C2531 1.524 . S
C2530 C2544 1.377 . S
C2531 C2530 1.524 . S
C2531 C2532 1.397 . S
C2531 C2536 1.363 . S
C2532 H2509 0.950 . S
C2532 C2531 1.397 . S
C2532 C2533 1.334 . S
C2533 H2510 0.950 . S
C2533 C2532 1.334 . S
C2533 C2534 1.287 . S
C2534 C2533 1.287 . S
C2534 C2535 1.524 . S
C2534 H2553 0.913 . S
C2535 H2511 0.950 . S
C2535 C2534 1.524 . S
C2535 C2536 1.415 . S
C2536 H2512 0.950 . S
C2536 C2531 1.363 . S
C2536 C2535 1.415 . S
C2537 H2513 0.951 . S
C2537 C2538 1.366 . S
C2537 C2539 1.388 . S
C2538 C2537 1.366 . S
C2538 C2542 1.385 . S
C2539 H2514 0.951 . S
C2539 C2537 1.388 . S
C2539 C2540 1.366 . S
C2540 C2539 1.366 . S
C2540 C2541 1.414 . S
C2540 C2543 1.499 . S
C2541 H2515 0.950 . S
C2541 C2540 1.414 . S
C2541 C2542 1.374 . S
C2542 H2516 0.950 . S
C2542 C2538 1.385 . S
C2542 C2541 1.374 . S
C2543 C2540 1.499 . S
C2543 C2544 1.373 . S
C2543 C2545 1.389 . S
C2544 H2517 0.950 . S
C2544 C2530 1.377 . S
C2544 C2543 1.373 . S
C2545 C2529 1.377 . S
C2545 C2543 1.389 . S
C2545 C2546 1.524 . S
C2546 C2545 1.524 . S
C2546 C2547 1.397 . S
C2546 C2551 1.363 . S
C2547 H2518 0.950 . S
C2547 C2546 1.397 . S
C2547 C2548 1.334 . S
C2548 H2519 0.950 . S
C2548 C2547 1.334 . S
C2548 C2549 1.287 . S
C2549 C2548 1.287 . S
C2549 C2550 1.524 . S
C2549 H2552 0.999 . S
C2550 H2520 0.950 . S
C2550 C2549 1.524 . S
C2550 C2551 1.415 . S
C2551 H2521 0.950 . S
C2551 C2546 1.363 . S
C2551 C2550 1.415 . S
H2552 C2549 0.999 . S
H2553 C2534 0.913 . S
H2554 C2572 0.951 . S
H2555 C2574 0.951 . S
H2556 C2576 0.950 . S
H2557 C2577 0.950 . S
H2558 C2579 0.950 . S
H2559 C2582 0.950 . S
H2560 C2583 0.950 . S
H2561 C2585 0.950 . S
H2562 C2586 0.950 . S
H2563 C2587 0.951 . S
H2564 C2589 0.951 . S
H2565 C2591 0.950 . S
H2566 C2592 0.950 . S
H2567 C2594 0.950 . S
H2568 C2597 0.950 . S
H2569 C2598 0.950 . S
H2570 C2600 0.950 . S
H2571 C2601 0.950 . S
C2572 H2554 0.951 . S
C2572 C2573 1.366 . S
C2572 C2574 1.388 . S
C2573 C2572 1.366 . S
C2573 C2577 1.385 . S
C2574 H2555 0.951 . S
C2574 C2572 1.388 . S
C2574 C2575 1.366 . S
C2575 C2574 1.366 . S
C2575 C2576 1.414 . S
C2575 C2578 1.499 . S
C2576 H2556 0.950 . S
C2576 C2575 1.414 . S
C2576 C2577 1.374 . S
C2577 H2557 0.950 . S
C2577 C2573 1.385 . S
C2577 C2576 1.374 . S
C2578 C2575 1.499 . S
C2578 C2579 1.373 . S
C2578 C2580 1.389 . S
C2579 H2558 0.950 . S
C2579 C2578 1.373 . S
C2579 C2595 1.377 . S
C2580 C2578 1.389 . S
C2580 C2581 1.524 . S
C2580 C2594 1.377 . S
C2581 C2580 1.524 . S
C2581 C2582 1.397 . S
C2581 C2586 1.363 . S
C2582 H2559 0.950 . S
C2582 C2581 1.397 . S
C2582 C2583 1.334 . S
C2583 H2560 0.950 . S
C2583 C2582 1.334 . S
C2583 C2584 1.287 . S
C2584 C2583 1.287 . S
C2584 C2585 1.524 . S
C2584 H2603 0.913 . S
C2585 H2561 0.950 . S
C2585 C2584 1.524 . S
C2585 C2586 1.415 . S
C2586 H2562 0.950 . S
C2586 C2581 1.363 . S
C2586 C2585 1.415 . S
C2587 H2563 0.951 . S
C2587 C2588 1.366 . S
C2587 C2589 1.388 . S
C2588 C2587 1.366 . S
C2588 C2592 1.385 . S
C2589 H2564 0.951 . S
C2589 C2587 1.388 . S
C2589 C2590 1.366 . S
C2590 C2589 1.366 . S
C2590 C2591 1.414 . S
C2590 C2593 1.499 . S
C2591 H2565 0.950 . S
C2591 C2590 1.414 . S
C2591 C2592 1.374 . S
C2592 H2566 0.950 . S
C2592 C2588 1.385 . S
C2592 C2591 1.374 . S
C2593 C2590 1.499 . S
C2593 C2594 1.373 . S
C2593 C2595 1.389 . S
C2594 H2567 0.950 . S
C2594 C2580 1.377 . S
C2594 C2593 1.373 . S
C2595 C2579 1.377 . S
C2595 C2593 1.389 . S
C2595 C2596 1.524 . S
C2596 C2595 1.524 . S
C2596 C2597 1.397 . S
C2596 C2601 1.363 . S
C2597 H2568 0.950 . S
C2597 C2596 1.397 . S
C2597 C2598 1.334 . S
C2598 H2569 0.950 . S
C2598 C2597 1.334 . S
C2598 C2599 1.287 . S
C2599 C2598 1.287 . S
C2599 C2600 1.524 . S
C2599 H2602 0.999 . S
C2600 H2570 0.950 . S
C2600 C2599 1.524 . S
C2600 C2601 1.415 . S
C2601 H2571 0.950 . S
C2601 C2596 1.363 . S
C2601 C2600 1.415 . S
H2602 C2599 0.999 . S
H2603 C2584 0.913 . S
H2604 C2622 0.951 . S
H2605 C2624 0.951 . S
H2606 C2626 0.950 . S
H2607 C2627 0.950 . S
H2608 C2629 0.950 . S
H2609 C2632 0.950 . S
H2610 C2633 0.950 . S
H2611 C2635 0.950 . S
H2612 C2636 0.950 . S
H2613 C2637 0.951 . S
H2614 C2639 0.951 . S
H2615 C2641 0.950 . S
H2616 C2642 0.950 . S
H2617 C2644 0.950 . S
H2618 C2647 0.950 . S
H2619 C2648 0.950 . S
H2620 C2650 0.950 . S
H2621 C2651 0.950 . S
C2622 H2604 0.951 . S
C2622 C2623 1.366 . S
C2622 C2624 1.388 . S
C2623 C2622 1.366 . S
C2623 C2627 1.385 . S
C2624 H2605 0.951 . S
C2624 C2622 1.388 . S
C2624 C2625 1.366 . S
C2625 C2624 1.366 . S
C2625 C2626 1.414 . S
C2625 C2628 1.499 . S
C2626 H2606 0.950 . S
C2626 C2625 1.414 . S
C2626 C2627 1.374 . S
C2627 H2607 0.950 . S
C2627 C2623 1.385 . S
C2627 C2626 1.374 . S
C2628 C2625 1.499 . S
C2628 C2629 1.373 . S
C2628 C2630 1.389 . S
C2629 H2608 0.950 . S
C2629 C2628 1.373 . S
C2629 C2645 1.377 . S
C2630 C2628 1.389 . S
C2630 C2631 1.524 . S
C2630 C2644 1.377 . S
C2631 C2630 1.524 . S
C2631 C2632 1.397 . S
C2631 C2636 1.363 . S
C2632 H2609 0.950 . S
C2632 C2631 1.397 . S
C2632 C2633 1.334 . S
C2633 H2610 0.950 . S
C2633 C2632 1.334 . S
C2633 C2634 1.287 . S
C2634 C2633 1.287 . S
C2634 C2635 1.524 . S
C2634 H2653 0.913 . S
C2635 H2611 0.950 . S
C2635 C2634 1.524 . S
C2635 C2636 1.415 . S
C2636 H2612 0.950 . S
C2636 C2631 1.363 . S
C2636 C2635 1.415 . S
C2637 H2613 0.951 . S
C2637 C2638 1.366 . S
C2637 C2639 1.388 . S
C2638 C2637 1.366 . S
C2638 C2642 1.385 . S
C2639 H2614 0.951 . S
C2639 C2637 1.388 . S
C2639 C2640 1.366 . S
C2640 C2639 1.366 . S
C2640 C2641 1.414 . S
C2640 C2643 1.499 . S
C2641 H2615 0.950 . S
C2641 C2640 1.414 . S
C2641 C2642 1.374 . S
C2642 H2616 0.950 . S
C2642 C2638 1.385 . S
C2642 C2641 1.374 . S
C2643 C2640 1.499 . S
C2643 C2644 1.373 . S
C2643 C2645 1.389 . S
C2644 H2617 0.950 . S
C2644 C2630 1.377 . S
C2644 C2643 1.373 . S
C2645 C2629 1.377 . S
C2645 C2643 1.389 . S
C2645 C2646 1.524 . S
C2646 C2645 1.524 . S
C2646 C2647 1.397 . S
C2646 C2651 1.363 . S
C2647 H2618 0.950 . S
C2647 C2646 1.397 . S
C2647 C2648 1.334 . S
C2648 H2619 0.950 . S
C2648 C2647 1.334 . S
C2648 C2649 1.287 . S
C2649 C2648 1.287 . S
C2649 C2650 1.524 . S
C2649 H2652 0.999 . S
C2650 H2620 0.950 . S
C2650 C2649 1.524 . S
C2650 C2651 1.415 . S
C2651 H2621 0.950 . S
C2651 C2646 1.363 . S
C2651 C2650 1.415 . S
H2652 C2649 0.999 . S
H2653 C2634 0.913 . S
H2654 C2672 0.951 . S
H2655 C2674 0.951 . S
H2656 C2676 0.950 . S
H2657 C2677 0.950 . S
H2658 C2679 0.950 . S
H2659 C2682 0.950 . S
H2660 C2683 0.950 . S
H2661 C2685 0.950 . S
H2662 C2686 0.950 . S
H2663 C2687 0.951 . S
H2664 C2689 0.951 . S
H2665 C2691 0.950 . S
H2666 C2692 0.950 . S
H2667 C2694 0.950 . S
H2668 C2697 0.950 . S
H2669 C2698 0.950 . S
H2670 C2700 0.950 . S
H2671 C2701 0.950 . S
C2672 H2654 0.951 . S
C2672 C2673 1.366 . S
C2672 C2674 1.388 . S
C2673 C2672 1.366 . S
C2673 C2677 1.385 . S
C2674 H2655 0.951 . S
C2674 C2672 1.388 . S
C2674 C2675 1.366 . S
C2675 C2674 1.366 . S
C2675 C2676 1.414 . S
C2675 C2678 1.499 . S
C2676 H2656 0.950 . S
C2676 C2675 1.414 . S
C2676 C2677 1.374 . S
C2677 H2657 0.950 . S
C2677 C2673 1.385 . S
C2677 C2676 1.374 . S
C2678 C2675 1.499 . S
C2678 C2679 1.373 . S
C2678 C2680 1.389 . S
C2679 H2658 0.950 . S
C2679 C2678 1.373 . S
C2679 C2695 1.377 . S
C2680 C2678 1.389 . S
C2680 C2681 1.524 . S
C2680 C2694 1.377 . S
C2681 C2680 1.524 . S
C2681 C2682 1.397 . S
C2681 C2686 1.363 . S
C2682 H2659 0.950 . S
C2682 C2681 1.397 . S
C2682 C2683 1.334 . S
C2683 H2660 0.950 . S
C2683 C2682 1.334 . S
C2683 C2684 1.287 . S
C2684 C2683 1.287 . S
C2684 C2685 1.524 . S
C2684 H2703 0.913 . S
C2685 H2661 0.950 . S
C2685 C2684 1.524 . S
C2685 C2686 1.415 . S
C2686 H2662 0.950 . S
C2686 C2681 1.363 . S
C2686 C2685 1.415 . S
C2687 H2663 0.951 . S
C2687 C2688 1.366 . S
C2687 C2689 1.388 . S
C2688 C2687 1.366 . S
C2688 C2692 1.385 . S
C2689 H2664 0.951 . S
C2689 C2687 1.388 . S
C2689 C2690 1.366 . S
C2690 C2689 1.366 . S
C2690 C2691 1.414 . S
C2690 C2693 1.499 . S
C2691 H2665 0.950 . S
C2691 C2690 1.414 . S
C2691 C2692 1.374 . S
C2692 H2666 0.950 . S
C2692 C2688 1.385 . S
C2692 C2691 1.374 . S
C2693 C2690 1.499 . S
C2693 C2694 1.373 . S
C2693 C2695 1.389 . S
C2694 H2667 0.950 . S
C2694 C2680 1.377 . S
C2694 C2693 1.373 . S
C2695 C2679 1.377 . S
C2695 C2693 1.389 . S
C2695 C2696 1.524 . S
C2696 C2695 1.524 . S
C2696 C2697 1.397 . S
C2696 C2701 1.363 . S
C2697 H2668 0.950 . S
C2697 C2696 1.397 . S
C2697 C2698 1.334 . S
C2698 H2669 0.950 . S
C2698 C2697 1.334 . S
C2698 C2699 1.287 . S
C2699 C2698 1.287 . S
C2699 C2700 1.524 . S
C2699 H2702 0.999 . S
C2700 H2670 0.950 . S
C2700 C2699 1.524 . S
C2700 C2701 1.415 . S
C2701 H2671 0.950 . S
C2701 C2696 1.363 . S
C2701 C2700 1.415 . S
H2702 C2699 0.999 . S
H2703 C2684 0.913 . S
H2704 C2722 0.951 . S
H2705 C2724 0.951 . S
H2706 C2726 0.950 . S
H2707 C2727 0.950 . S
H2708 C2729 0.950 . S
H2709 C2732 0.950 . S
H2710 C2733 0.950 . S
H2711 C2735 0.950 . S
H2712 C2736 0.950 . S
H2713 C2737 0.951 . S
H2714 C2739 0.951 . S
H2715 C2741 0.950 . S
H2716 C2742 0.950 . S
H2717 C2744 0.950 . S
H2718 C2747 0.950 . S
H2719 C2748 0.950 . S
H2720 C2750 0.950 . S
H2721 C2751 0.950 . S
C2722 H2704 0.951 . S
C2722 C2723 1.366 . S
C2722 C2724 1.388 . S
C2723 C2722 1.366 . S
C2723 C2727 1.385 . S
C2724 H2705 0.951 . S
C2724 C2722 1.388 . S
C2724 C2725 1.366 . S
C2725 C2724 1.366 . S
C2725 C2726 1.414 . S
C2725 C2728 1.499 . S
C2726 H2706 0.950 . S
C2726 C2725 1.414 . S
C2726 C2727 1.374 . S
C2727 H2707 0.950 . S
C2727 C2723 1.385 . S
C2727 C2726 1.374 . S
C2728 C2725 1.499 . S
C2728 C2729 1.373 . S
C2728 C2730 1.389 . S
C2729 H2708 0.950 . S
C2729 C2728 1.373 . S
C2729 C2745 1.377 . S
C2730 C2728 1.389 . S
C2730 C2731 1.524 . S
C2730 C2744 1.377 . S
C2731 C2730 1.524 . S
C2731 C2732 1.397 . S
C2731 C2736 1.363 . S
C2732 H2709 0.950 . S
C2732 C2731 1.397 . S
C2732 C2733 1.334 . S
C2733 H2710 0.950 . S
C2733 C2732 1.334 . S
C2733 C2734 1.287 . S
C2734 C2733 1.287 . S
C2734 C2735 1.524 . S
C2734 H2753 0.913 . S
C2735 H2711 0.950 . S
C2735 C2734 1.524 . S
C2735 C2736 1.415 . S
C2736 H2712 0.950 . S
C2736 C2731 1.363 . S
C2736 C2735 1.415 . S
C2737 H2713 0.951 . S
C2737 C2738 1.366 . S
C2737 C2739 1.388 . S
C2738 C2737 1.366 . S
C2738 C2742 1.385 . S
C2739 H2714 0.951 . S
C2739 C2737 1.388 . S
C2739 C2740 1.366 . S
C2740 C2739 1.366 . S
C2740 C2741 1.414 . S
C2740 C2743 1.499 . S
C2741 H2715 0.950 . S
C2741 C2740 1.414 . S
C2741 C2742 1.374 . S
C2742 H2716 0.950 . S
C2742 C2738 1.385 . S
C2742 C2741 1.374 . S
C2743 C2740 1.499 . S
C2743 C2744 1.373 . S
C2743 C2745 1.389 . S
C2744 H2717 0.950 . S
C2744 C2730 1.377 . S
C2744 C2743 1.373 . S
C2745 C2729 1.377 . S
C2745 C2743 1.389 . S
C2745 C2746 1.524 . S
C2746 C2745 1.524 . S
C2746 C2747 1.397 . S
C2746 C2751 1.363 . S
C2747 H2718 0.950 . S
C2747 C2746 1.397 . S
C2747 C2748 1.334 . S
C2748 H2719 0.950 . S
C2748 C2747 1.334 . S
C2748 C2749 1.287 . S
C2749 C2748 1.287 . S
C2749 C2750 1.524 . S
C2749 H2752 0.999 . S
C2750 H2720 0.950 . S
C2750 C2749 1.524 . S
C2750 C2751 1.415 . S
C2751 H2721 0.950 . S
C2751 C2746 1.363 . S
C2751 C2750 1.415 . S
H2752 C2749 0.999 . S
H2753 C2734 0.913 . S
H2754 C2772 0.951 . S
H2755 C2774 0.951 . S
H2756 C2776 0.950 . S
H2757 C2777 0.950 . S
H2758 C2779 0.950 . S
H2759 C2782 0.950 . S
H2760 C2783 0.950 . S
H2761 C2785 0.950 . S
H2762 C2786 0.950 . S
H2763 C2787 0.951 . S
H2764 C2789 0.951 . S
H2765 C2791 0.950 . S
H2766 C2792 0.950 . S
H2767 C2794 0.950 . S
H2768 C2797 0.950 . S
H2769 C2798 0.950 . S
H2770 C2800 0.950 . S
H2771 C2801 0.950 . S
C2772 H2754 0.951 . S
C2772 C2773 1.366 . S
C2772 C2774 1.388 . S
C2773 C2772 1.366 . S
C2773 C2777 1.385 . S
C2774 H2755 0.951 . S
C2774 C2772 1.388 . S
C2774 C2775 1.366 . S
C2775 C2774 1.366 . S
C2775 C2776 1.414 . S
C2775 C2778 1.499 . S
C2776 H2756 0.950 . S
C2776 C2775 1.414 . S
C2776 C2777 1.374 . S
C2777 H2757 0.950 . S
C2777 C2773 1.385 . S
C2777 C2776 1.374 . S
C2778 C2775 1.499 . S
C2778 C2779 1.373 . S
C2778 C2780 1.389 . S
C2779 H2758 0.950 . S
C2779 C2778 1.373 . S
C2779 C2795 1.377 . S
C2780 C2778 1.389 . S
C2780 C2781 1.524 . S
C2780 C2794 1.377 . S
C2781 C2780 1.524 . S
C2781 C2782 1.397 . S
C2781 C2786 1.363 . S
C2782 H2759 0.950 . S
C2782 C2781 1.397 . S
C2782 C2783 1.334 . S
C2783 H2760 0.950 . S
C2783 C2782 1.334 . S
C2783 C2784 1.287 . S
C2784 C2783 1.287 . S
C2784 C2785 1.524 . S
C2784 H2803 0.913 . S
C2785 H2761 0.950 . S
C2785 C2784 1.524 . S
C2785 C2786 1.415 . S
C2786 H2762 0.950 . S
C2786 C2781 1.363 . S
C2786 C2785 1.415 . S
C2787 H2763 0.951 . S
C2787 C2788 1.366 . S
C2787 C2789 1.388 . S
C2788 C2787 1.366 . S
C2788 C2792 1.385 . S
C2789 H2764 0.951 . S
C2789 C2787 1.388 . S
C2789 C2790 1.366 . S
C2790 C2789 1.366 . S
C2790 C2791 1.414 . S
C2790 C2793 1.499 . S
C2791 H2765 0.950 . S
C2791 C2790 1.414 . S
C2791 C2792 1.374 . S
C2792 H2766 0.950 . S
C2792 C2788 1.385 . S
C2792 C2791 1.374 . S
C2793 C2790 1.499 . S
C2793 C2794 1.373 . S
C2793 C2795 1.389 . S
C2794 H2767 0.950 . S
C2794 C2780 1.377 . S
C2794 C2793 1.373 . S
C2795 C2779 1.377 . S
C2795 C2793 1.389 . S
C2795 C2796 1.524 . S
C2796 C2795 1.524 . S
C2796 C2797 1.397 . S
C2796 C2801 1.363 . S
C2797 H2768 0.950 . S
C2797 C2796 1.397 . S
C2797 C2798 1.334 . S
C2798 H2769 0.950 . S
C2798 C2797 1.334 . S
C2798 C2799 1.287 . S
C2799 C2798 1.287 . S
C2799 C2800 1.524 . S
C2799 H2802 0.999 . S
C2800 H2770 0.950 . S
C2800 C2799 1.524 . S
C2800 C2801 1.415 . S
C2801 H2771 0.950 . S
C2801 C2796 1.363 . S
C2801 C2800 1.415 . S
H2802 C2799 0.999 . S
H2803 C2784 0.913 . S
H2804 C2822 0.951 . S
H2805 C2824 0.951 . S
H2806 C2826 0.950 . S
H2807 C2827 0.950 . S
H2808 C2829 0.950 . S
H2809 C2832 0.950 . S
H2810 C2833 0.950 . S
H2811 C2835 0.950 . S
H2812 C2836 0.950 . S
H2813 C2837 0.951 . S
H2814 C2839 0.951 . S
H2815 C2841 0.950 . S
H2816 C2842 0.950 . S
H2817 C2844 0.950 . S
H2818 C2847 0.950 . S
H2819 C2848 0.950 . S
H2820 C2850 0.950 . S
H2821 C2851 0.950 . S
C2822 H2804 0.951 . S
C2822 C2823 1.366 . S
C2822 C2824 1.388 . S
C2823 C2822 1.366 . S
C2823 C2827 1.385 . S
C2824 H2805 0.951 . S
C2824 C2822 1.388 . S
C2824 C2825 1.366 . S
C2825 C2824 1.366 . S
C2825 C2826 1.414 . S
C2825 C2828 1.499 . S
C2826 H2806 0.950 . S
C2826 C2825 1.414 . S
C2826 C2827 1.374 . S
C2827 H2807 0.950 . S
C2827 C2823 1.385 . S
C2827 C2826 1.374 . S
C2828 C2825 1.499 . S
C2828 C2829 1.373 . S
C2828 C2830 1.389 . S
C2829 H2808 0.950 . S
C2829 C2828 1.373 . S
C2829 C2845 1.377 . S
C2830 C2828 1.389 . S
C2830 C2831 1.524 . S
C2830 C2844 1.377 . S
C2831 C2830 1.524 . S
C2831 C2832 1.397 . S
C2831 C2836 1.363 . S
C2832 H2809 0.950 . S
C2832 C2831 1.397 . S
C2832 C2833 1.334 . S
C2833 H2810 0.950 . S
C2833 C2832 1.334 . S
C2833 C2834 1.287 . S
C2834 C2833 1.287 . S
C2834 C2835 1.524 . S
C2834 H2853 0.913 . S
C2835 H2811 0.950 . S
C2835 C2834 1.524 . S
C2835 C2836 1.415 . S
C2836 H2812 0.950 . S
C2836 C2831 1.363 . S
C2836 C2835 1.415 . S
C2837 H2813 0.951 . S
C2837 C2838 1.366 . S
C2837 C2839 1.388 . S
C2838 C2837 1.366 . S
C2838 C2842 1.385 . S
C2839 H2814 0.951 . S
C2839 C2837 1.388 . S
C2839 C2840 1.366 . S
C2840 C2839 1.366 . S
C2840 C2841 1.414 . S
C2840 C2843 1.499 . S
C2841 H2815 0.950 . S
C2841 C2840 1.414 . S
C2841 C2842 1.374 . S
C2842 H2816 0.950 . S
C2842 C2838 1.385 . S
C2842 C2841 1.374 . S
C2843 C2840 1.499 . S
C2843 C2844 1.373 . S
C2843 C2845 1.389 . S
C2844 H2817 0.950 . S
C2844 C2830 1.377 . S
C2844 C2843 1.373 . S
C2845 C2829 1.377 . S
C2845 C2843 1.389 . S
C2845 C2846 1.524 . S
C2846 C2845 1.524 . S
C2846 C2847 1.397 . S
C2846 C2851 1.363 . S
C2847 H2818 0.950 . S
C2847 C2846 1.397 . S
C2847 C2848 1.334 . S
C2848 H2819 0.950 . S
C2848 C2847 1.334 . S
C2848 C2849 1.287 . S
C2849 C2848 1.287 . S
C2849 C2850 1.524 . S
C2849 H2852 0.999 . S
C2850 H2820 0.950 . S
C2850 C2849 1.524 . S
C2850 C2851 1.415 . S
C2851 H2821 0.950 . S
C2851 C2846 1.363 . S
C2851 C2850 1.415 . S
H2852 C2849 0.999 . S
H2853 C2834 0.913 . S
H2854 C2872 0.951 . S
H2855 C2874 0.951 . S
H2856 C2876 0.950 1_545 S
H2857 C2877 0.950 1_545 S
H2858 C2879 0.950 . S
H2859 C2882 0.950 . S
H2860 C2883 0.950 . S
H2861 C2885 0.950 . S
H2862 C2886 0.950 . S
H2863 C2887 0.951 . S
H2864 C2889 0.951 . S
H2865 C2891 0.950 . S
H2866 C2892 0.950 . S
H2867 C2894 0.950 . S
H2868 C2897 0.950 . S
H2869 C2898 0.950 . S
H2870 C2900 0.950 . S
H2871 C2901 0.950 . S
C2872 H2854 0.951 . S
C2872 C2873 1.366 . S
C2872 C2874 1.388 . S
C2873 C2872 1.366 . S
C2873 C2877 1.385 . S
C2874 H2855 0.951 . S
C2874 C2872 1.388 . S
C2874 C2875 1.366 . S
C2875 C2874 1.366 . S
C2875 C2876 1.414 . S
C2875 C2878 1.499 . S
C2876 H2856 0.950 1_565 S
C2876 C2875 1.414 . S
C2876 C2877 1.374 . S
C2877 H2857 0.950 1_565 S
C2877 C2873 1.385 . S
C2877 C2876 1.374 . S
C2878 C2875 1.499 . S
C2878 C2879 1.373 . S
C2878 C2880 1.389 . S
C2879 H2858 0.950 . S
C2879 C2878 1.373 . S
C2879 C2895 1.377 . S
C2880 C2878 1.389 . S
C2880 C2881 1.524 . S
C2880 C2894 1.377 . S
C2881 C2880 1.524 . S
C2881 C2882 1.397 1_565 S
C2881 C2886 1.363 . S
C2882 H2859 0.950 . S
C2882 C2881 1.397 1_545 S
C2882 C2883 1.334 . S
C2883 H2860 0.950 . S
C2883 C2882 1.334 . S
C2883 C2884 1.287 1_545 S
C2884 C2883 1.287 1_565 S
C2884 C2885 1.524 . S
C2884 H2903 0.913 1_565 S
C2885 H2861 0.950 . S
C2885 C2884 1.524 . S
C2885 C2886 1.415 . S
C2886 H2862 0.950 . S
C2886 C2881 1.363 . S
C2886 C2885 1.415 . S
C2887 H2863 0.951 . S
C2887 C2888 1.366 . S
C2887 C2889 1.388 . S
C2888 C2887 1.366 . S
C2888 C2892 1.385 . S
C2889 H2864 0.951 . S
C2889 C2887 1.388 . S
C2889 C2890 1.366 . S
C2890 C2889 1.366 . S
C2890 C2891 1.414 . S
C2890 C2893 1.499 . S
C2891 H2865 0.950 . S
C2891 C2890 1.414 . S
C2891 C2892 1.374 . S
C2892 H2866 0.950 . S
C2892 C2888 1.385 . S
C2892 C2891 1.374 . S
C2893 C2890 1.499 . S
C2893 C2894 1.373 . S
C2893 C2895 1.389 . S
C2894 H2867 0.950 . S
C2894 C2880 1.377 . S
C2894 C2893 1.373 . S
C2895 C2879 1.377 . S
C2895 C2893 1.389 . S
C2895 C2896 1.524 . S
C2896 C2895 1.524 . S
C2896 C2897 1.397 . S
C2896 C2901 1.363 . S
C2897 H2868 0.950 . S
C2897 C2896 1.397 . S
C2897 C2898 1.334 . S
C2898 H2869 0.950 . S
C2898 C2897 1.334 . S
C2898 C2899 1.287 . S
C2899 C2898 1.287 . S
C2899 C2900 1.524 . S
C2899 H2902 0.999 . S
C2900 H2870 0.950 . S
C2900 C2899 1.524 . S
C2900 C2901 1.415 . S
C2901 H2871 0.950 . S
C2901 C2896 1.363 . S
C2901 C2900 1.415 . S
H2902 C2899 0.999 . S
H2903 C2884 0.913 1_545 S
H2904 C2922 0.951 . S
H2905 C2924 0.951 . S
H2906 C2926 0.950 . S
H2907 C2927 0.950 . S
H2908 C2929 0.950 . S
H2909 C2932 0.950 . S
H2910 C2933 0.950 . S
H2911 C2935 0.950 . S
H2912 C2936 0.950 . S
H2913 C2937 0.951 . S
H2914 C2939 0.951 . S
H2915 C2941 0.950 . S
H2916 C2942 0.950 . S
H2917 C2944 0.950 . S
H2918 C2947 0.950 . S
H2919 C2948 0.950 . S
H2920 C2950 0.950 . S
H2921 C2951 0.950 . S
C2922 H2904 0.951 . S
C2922 C2923 1.366 . S
C2922 C2924 1.388 . S
C2923 C2922 1.366 . S
C2923 C2927 1.385 . S
C2924 H2905 0.951 . S
C2924 C2922 1.388 . S
C2924 C2925 1.366 . S
C2925 C2924 1.366 . S
C2925 C2926 1.414 . S
C2925 C2928 1.499 . S
C2926 H2906 0.950 . S
C2926 C2925 1.414 . S
C2926 C2927 1.374 . S
C2927 H2907 0.950 . S
C2927 C2923 1.385 . S
C2927 C2926 1.374 . S
C2928 C2925 1.499 . S
C2928 C2929 1.373 . S
C2928 C2930 1.389 . S
C2929 H2908 0.950 . S
C2929 C2928 1.373 . S
C2929 C2945 1.377 . S
C2930 C2928 1.389 . S
C2930 C2931 1.524 . S
C2930 C2944 1.377 . S
C2931 C2930 1.524 . S
C2931 C2932 1.397 . S
C2931 C2936 1.363 . S
C2932 H2909 0.950 . S
C2932 C2931 1.397 . S
C2932 C2933 1.334 . S
C2933 H2910 0.950 . S
C2933 C2932 1.334 . S
C2933 C2934 1.287 . S
C2934 C2933 1.287 . S
C2934 C2935 1.524 . S
C2934 H2953 0.913 . S
C2935 H2911 0.950 . S
C2935 C2934 1.524 . S
C2935 C2936 1.415 . S
C2936 H2912 0.950 . S
C2936 C2931 1.363 . S
C2936 C2935 1.415 . S
C2937 H2913 0.951 . S
C2937 C2938 1.366 . S
C2937 C2939 1.388 . S
C2938 C2937 1.366 . S
C2938 C2942 1.385 . S
C2939 H2914 0.951 . S
C2939 C2937 1.388 . S
C2939 C2940 1.366 . S
C2940 C2939 1.366 . S
C2940 C2941 1.414 . S
C2940 C2943 1.499 . S
C2941 H2915 0.950 . S
C2941 C2940 1.414 . S
C2941 C2942 1.374 . S
C2942 H2916 0.950 . S
C2942 C2938 1.385 . S
C2942 C2941 1.374 . S
C2943 C2940 1.499 . S
C2943 C2944 1.373 . S
C2943 C2945 1.389 . S
C2944 H2917 0.950 . S
C2944 C2930 1.377 . S
C2944 C2943 1.373 . S
C2945 C2929 1.377 . S
C2945 C2943 1.389 . S
C2945 C2946 1.524 . S
C2946 C2945 1.524 . S
C2946 C2947 1.397 . S
C2946 C2951 1.363 . S
C2947 H2918 0.950 . S
C2947 C2946 1.397 . S
C2947 C2948 1.334 . S
C2948 H2919 0.950 . S
C2948 C2947 1.334 . S
C2948 C2949 1.287 . S
C2949 C2948 1.287 . S
C2949 C2950 1.524 . S
C2949 H2952 0.999 . S
C2950 H2920 0.950 . S
C2950 C2949 1.524 . S
C2950 C2951 1.415 . S
C2951 H2921 0.950 . S
C2951 C2946 1.363 . S
C2951 C2950 1.415 . S
H2952 C2949 0.999 . S
H2953 C2934 0.913 . S
H2954 C2972 0.951 . S
H2955 C2974 0.951 . S
H2956 C2976 0.950 . S
H2957 C2977 0.950 . S
H2958 C2979 0.950 . S
H2959 C2982 0.950 . S
H2960 C2983 0.950 . S
H2961 C2985 0.950 . S
H2962 C2986 0.933 1_545 S
H2963 C2987 0.951 . S
H2964 C2989 0.951 . S
H2965 C2991 0.950 . S
H2966 C2992 0.950 . S
H2967 C2994 0.950 . S
H2968 C2997 0.950 . S
H2969 C2998 0.950 . S
H2970 C3000 0.950 . S
H2971 C3001 0.950 . S
C2972 H2954 0.951 . S
C2972 C2973 1.366 . S
C2972 C2974 1.388 . S
C2973 C2972 1.366 . S
C2973 C2977 1.385 . S
C2974 H2955 0.951 . S
C2974 C2972 1.388 . S
C2974 C2975 1.366 . S
C2975 C2974 1.366 . S
C2975 C2976 1.414 . S
C2975 C2978 1.499 . S
C2976 H2956 0.950 . S
C2976 C2975 1.414 . S
C2976 C2977 1.374 . S
C2977 H2957 0.950 . S
C2977 C2973 1.385 . S
C2977 C2976 1.374 . S
C2978 C2975 1.499 . S
C2978 C2979 1.373 . S
C2978 C2980 1.389 . S
C2979 H2958 0.950 . S
C2979 C2978 1.373 . S
C2979 C2995 1.377 . S
C2980 C2978 1.389 . S
C2980 C2981 1.524 1_545 S
C2980 C2994 1.377 . S
C2981 C2980 1.524 1_565 S
C2981 C2982 1.397 . S
C2981 C2986 1.363 . S
C2982 H2959 0.950 . S
C2982 C2981 1.397 . S
C2982 C2983 1.334 . S
C2983 H2960 0.950 . S
C2983 C2982 1.334 . S
C2983 C2984 1.287 . S
C2984 C2983 1.287 . S
C2984 C2985 1.524 . S
C2984 H3003 0.913 . S
C2985 H2961 0.950 . S
C2985 C2984 1.524 . S
C2985 C2986 1.415 . S
C2986 H2962 0.933 1_565 S
C2986 C2981 1.363 . S
C2986 C2985 1.415 . S
C2987 H2963 0.951 . S
C2987 C2988 1.366 . S
C2987 C2989 1.388 . S
C2988 C2987 1.366 . S
C2988 C2992 1.385 . S
C2989 H2964 0.951 . S
C2989 C2987 1.388 . S
C2989 C2990 1.366 . S
C2990 C2989 1.366 . S
C2990 C2991 1.414 . S
C2990 C2993 1.499 . S
C2991 H2965 0.950 . S
C2991 C2990 1.414 . S
C2991 C2992 1.374 . S
C2992 H2966 0.950 . S
C2992 C2988 1.385 . S
C2992 C2991 1.374 . S
C2993 C2990 1.499 . S
C2993 C2994 1.373 . S
C2993 C2995 1.389 . S
C2994 H2967 0.950 . S
C2994 C2980 1.377 . S
C2994 C2993 1.373 . S
C2995 C2979 1.377 . S
C2995 C2993 1.389 . S
C2995 C2996 1.524 . S
C2996 C2995 1.524 . S
C2996 C2997 1.397 . S
C2996 C3001 1.363 . S
C2997 H2968 0.950 . S
C2997 C2996 1.397 . S
C2997 C2998 1.334 . S
C2998 H2969 0.950 . S
C2998 C2997 1.334 . S
C2998 C2999 1.287 . S
C2999 C2998 1.287 . S
C2999 C3000 1.524 . S
C2999 H3002 0.999 . S
C3000 H2970 0.950 . S
C3000 C2999 1.524 . S
C3000 C3001 1.415 . S
C3001 H2971 0.950 . S
C3001 C2996 1.363 . S
C3001 C3000 1.415 . S
H3002 C2999 0.999 . S
H3003 C2984 0.913 . S
H3004 C3022 0.951 . S
H3005 C3024 0.951 . S
H3006 C3026 0.950 . S
H3007 C3027 0.950 . S
H3008 C3029 0.950 . S
H3009 C3032 0.950 . S
H3010 C3033 0.950 . S
H3011 C3035 0.950 . S
H3012 C3036 0.950 . S
H3013 C3037 0.951 . S
H3014 C3039 0.951 . S
H3015 C3041 0.950 . S
H3016 C3042 0.950 . S
H3017 C3044 0.950 . S
H3018 C3047 0.950 . S
H3019 C3048 0.950 . S
H3020 C3050 0.950 . S
H3021 C3051 0.950 . S
C3022 H3004 0.951 . S
C3022 C3023 1.366 . S
C3022 C3024 1.388 . S
C3023 C3022 1.366 . S
C3023 C3027 1.385 . S
C3024 H3005 0.951 . S
C3024 C3022 1.388 . S
C3024 C3025 1.366 . S
C3025 C3024 1.366 . S
C3025 C3026 1.414 . S
C3025 C3028 1.499 . S
C3026 H3006 0.950 . S
C3026 C3025 1.414 . S
C3026 C3027 1.374 . S
C3027 H3007 0.950 . S
C3027 C3023 1.385 . S
C3027 C3026 1.374 . S
C3028 C3025 1.499 . S
C3028 C3029 1.373 . S
C3028 C3030 1.389 . S
C3029 H3008 0.950 . S
C3029 C3028 1.373 . S
C3029 C3045 1.377 . S
C3030 C3028 1.389 . S
C3030 C3031 1.524 . S
C3030 C3044 1.377 . S
C3031 C3030 1.524 . S
C3031 C3032 1.397 . S
C3031 C3036 1.363 . S
C3032 H3009 0.950 . S
C3032 C3031 1.397 . S
C3032 C3033 1.334 . S
C3033 H3010 0.950 . S
C3033 C3032 1.334 . S
C3033 C3034 1.287 . S
C3034 C3033 1.287 . S
C3034 C3035 1.524 . S
C3034 H3053 0.913 . S
C3035 H3011 0.950 . S
C3035 C3034 1.524 . S
C3035 C3036 1.415 . S
C3036 H3012 0.950 . S
C3036 C3031 1.363 . S
C3036 C3035 1.415 . S
C3037 H3013 0.951 . S
C3037 C3038 1.366 . S
C3037 C3039 1.388 . S
C3038 C3037 1.366 . S
C3038 C3042 1.385 . S
C3039 H3014 0.951 . S
C3039 C3037 1.388 . S
C3039 C3040 1.366 . S
C3040 C3039 1.366 . S
C3040 C3041 1.414 . S
C3040 C3043 1.499 . S
C3041 H3015 0.950 . S
C3041 C3040 1.414 . S
C3041 C3042 1.374 . S
C3042 H3016 0.950 . S
C3042 C3038 1.385 . S
C3042 C3041 1.374 . S
C3043 C3040 1.499 . S
C3043 C3044 1.373 . S
C3043 C3045 1.389 . S
C3044 H3017 0.950 . S
C3044 C3030 1.377 . S
C3044 C3043 1.373 . S
C3045 C3029 1.377 . S
C3045 C3043 1.389 . S
C3045 C3046 1.524 . S
C3046 C3045 1.524 . S
C3046 C3047 1.397 . S
C3046 C3051 1.363 . S
C3047 H3018 0.950 . S
C3047 C3046 1.397 . S
C3047 C3048 1.334 . S
C3048 H3019 0.950 . S
C3048 C3047 1.334 . S
C3048 C3049 1.287 . S
C3049 C3048 1.287 . S
C3049 C3050 1.524 . S
C3049 H3052 0.999 . S
C3050 H3020 0.950 . S
C3050 C3049 1.524 . S
C3050 C3051 1.415 . S
C3051 H3021 0.950 . S
C3051 C3046 1.363 . S
C3051 C3050 1.415 . S
H3052 C3049 0.999 . S
H3053 C3034 0.913 . S
H3054 C3072 0.951 . S
H3055 C3074 0.951 . S
H3056 C3076 0.950 . S
H3057 C3077 0.950 . S
H3058 C3079 0.950 . S
H3059 C3082 0.950 . S
H3060 C3083 0.950 . S
H3061 C3085 0.950 . S
H3062 C3086 0.950 . S
H3063 C3087 0.951 1_554 S
H3064 C3089 0.951 1_554 S
H3065 C3091 0.950 . S
H3066 C3092 0.950 . S
H3067 C3094 0.950 . S
H3068 C3097 0.950 . S
H3069 C3098 0.950 . S
H3070 C3100 0.950 1_554 S
H3071 C3101 0.950 1_554 S
C3072 H3054 0.951 . S
C3072 C3073 1.366 1_556 S
C3072 C3074 1.388 . S
C3073 C3072 1.366 1_554 S
C3073 C3077 1.385 . S
C3074 H3055 0.951 . S
C3074 C3072 1.388 . S
C3074 C3075 1.366 1_556 S
C3075 C3074 1.366 1_554 S
C3075 C3076 1.414 . S
C3075 C3078 1.499 1_554 S
C3076 H3056 0.950 . S
C3076 C3075 1.414 . S
C3076 C3077 1.374 . S
C3077 H3057 0.950 . S
C3077 C3073 1.385 . S
C3077 C3076 1.374 . S
C3078 C3075 1.499 1_556 S
C3078 C3079 1.373 . S
C3078 C3080 1.389 . S
C3079 H3058 0.950 . S
C3079 C3078 1.373 . S
C3079 C3095 1.377 . S
C3080 C3078 1.389 . S
C3080 C3081 1.524 1_556 S
C3080 C3094 1.377 . S
C3081 C3080 1.524 1_554 S
C3081 C3082 1.397 . S
C3081 C3086 1.363 1_554 S
C3082 H3059 0.950 . S
C3082 C3081 1.397 . S
C3082 C3083 1.334 . S
C3083 H3060 0.950 . S
C3083 C3082 1.334 . S
C3083 C3084 1.287 . S
C3084 C3083 1.287 . S
C3084 C3085 1.524 1_554 S
C3084 H3103 0.913 . S
C3085 H3061 0.950 . S
C3085 C3084 1.524 1_556 S
C3085 C3086 1.415 . S
C3086 H3062 0.950 . S
C3086 C3081 1.363 1_556 S
C3086 C3085 1.415 . S
C3087 H3063 0.951 1_556 S
C3087 C3088 1.366 . S
C3087 C3089 1.388 . S
C3088 C3087 1.366 . S
C3088 C3092 1.385 . S
C3089 H3064 0.951 1_556 S
C3089 C3087 1.388 . S
C3089 C3090 1.366 . S
C3090 C3089 1.366 . S
C3090 C3091 1.414 . S
C3090 C3093 1.499 . S
C3091 H3065 0.950 . S
C3091 C3090 1.414 . S
C3091 C3092 1.374 . S
C3092 H3066 0.950 . S
C3092 C3088 1.385 . S
C3092 C3091 1.374 . S
C3093 C3090 1.499 . S
C3093 C3094 1.373 . S
C3093 C3095 1.389 . S
C3094 H3067 0.950 . S
C3094 C3080 1.377 . S
C3094 C3093 1.373 . S
C3095 C3079 1.377 . S
C3095 C3093 1.389 . S
C3095 C3096 1.524 . S
C3096 C3095 1.524 . S
C3096 C3097 1.397 . S
C3096 C3101 1.363 . S
C3097 H3068 0.950 . S
C3097 C3096 1.397 . S
C3097 C3098 1.334 . S
C3098 H3069 0.950 . S
C3098 C3097 1.334 . S
C3098 C3099 1.287 . S
C3099 C3098 1.287 . S
C3099 C3100 1.524 . S
C3099 H3102 0.999 . S
C3100 H3070 0.950 1_556 S
C3100 C3099 1.524 . S
C3100 C3101 1.415 . S
C3101 H3071 0.950 1_556 S
C3101 C3096 1.363 . S
C3101 C3100 1.415 . S
H3102 C3099 0.999 . S
H3103 C3084 0.913 . S
H3104 C3122 0.951 . S
H3105 C3124 0.951 . S
H3106 C3126 0.950 . S
H3107 C3127 0.950 . S
H3108 C3129 0.950 . S
H3109 C3132 0.950 . S
H3110 C3133 0.950 . S
H3111 C3135 0.965 . S
H3112 C3136 0.950 1_554 S
H3113 C3137 0.951 . S
H3114 C3139 0.951 . S
H3115 C3141 0.950 . S
H3116 C3142 0.950 . S
H3117 C3144 0.950 . S
H3118 C3147 0.950 1_554 S
H3119 C3148 0.950 1_554 S
H3120 C3150 0.950 . S
H3121 C3151 0.950 . S
C3122 H3104 0.951 . S
C3122 C3123 1.366 . S
C3122 C3124 1.388 . S
C3123 C3122 1.366 . S
C3123 C3127 1.385 1_554 S
C3124 H3105 0.951 . S
C3124 C3122 1.388 . S
C3124 C3125 1.366 1_554 S
C3125 C3124 1.366 1_556 S
C3125 C3126 1.414 . S
C3125 C3128 1.499 . S
C3126 H3106 0.950 . S
C3126 C3125 1.414 . S
C3126 C3127 1.374 . S
C3127 H3107 0.950 . S
C3127 C3123 1.385 1_556 S
C3127 C3126 1.374 . S
C3128 C3125 1.499 . S
C3128 C3129 1.373 . S
C3128 C3130 1.389 . S
C3129 H3108 0.950 . S
C3129 C3128 1.373 . S
C3129 C3145 1.377 . S
C3130 C3128 1.389 . S
C3130 C3131 1.524 . S
C3130 C3144 1.377 . S
C3131 C3130 1.524 . S
C3131 C3132 1.397 . S
C3131 C3136 1.363 . S
C3132 H3109 0.950 . S
C3132 C3131 1.397 . S
C3132 C3133 1.334 . S
C3133 H3110 0.950 . S
C3133 C3132 1.334 . S
C3133 C3134 1.287 . S
C3134 C3133 1.287 . S
C3134 C3135 1.524 . S
C3134 H3153 0.913 . S
C3135 H3111 0.965 . S
C3135 C3134 1.524 . S
C3135 C3136 1.415 . S
C3136 H3112 0.950 1_556 S
C3136 C3131 1.363 . S
C3136 C3135 1.415 . S
C3137 H3113 0.951 . S
C3137 C3138 1.366 . S
C3137 C3139 1.388 . S
C3138 C3137 1.366 . S
C3138 C3142 1.385 . S
C3139 H3114 0.951 . S
C3139 C3137 1.388 . S
C3139 C3140 1.366 . S
C3140 C3139 1.366 . S
C3140 C3141 1.414 . S
C3140 C3143 1.499 . S
C3141 H3115 0.950 . S
C3141 C3140 1.414 . S
C3141 C3142 1.374 . S
C3142 H3116 0.950 . S
C3142 C3138 1.385 . S
C3142 C3141 1.374 . S
C3143 C3140 1.499 . S
C3143 C3144 1.373 . S
C3143 C3145 1.389 . S
C3144 H3117 0.950 . S
C3144 C3130 1.377 . S
C3144 C3143 1.373 . S
C3145 C3129 1.377 . S
C3145 C3143 1.389 . S
C3145 C3146 1.524 . S
C3146 C3145 1.524 . S
C3146 C3147 1.397 . S
C3146 C3151 1.363 . S
C3147 H3118 0.950 1_556 S
C3147 C3146 1.397 . S
C3147 C3148 1.334 . S
C3148 H3119 0.950 1_556 S
C3148 C3147 1.334 . S
C3148 C3149 1.287 . S
C3149 C3148 1.287 . S
C3149 C3150 1.524 . S
C3149 H3152 0.999 . S
C3150 H3120 0.950 . S
C3150 C3149 1.524 . S
C3150 C3151 1.415 . S
C3151 H3121 0.950 . S
C3151 C3146 1.363 . S
C3151 C3150 1.415 . S
H3152 C3149 0.999 . S
H3153 C3134 0.913 . S
H3154 C3172 0.951 . S
H3155 C3174 0.951 . S
H3156 C3176 0.950 . S
H3157 C3177 0.950 . S
H3158 C3179 0.950 . S
H3159 C3182 0.950 . S
H3160 C3183 0.950 . S
H3161 C3185 0.950 . S
H3162 C3186 0.950 . S
H3163 C3187 0.951 . S
H3164 C3189 0.951 . S
H3165 C3191 0.950 . S
H3166 C3192 0.950 . S
H3167 C3194 0.950 . S
H3168 C3197 0.950 . S
H3169 C3198 0.950 . S
H3170 C3200 0.950 . S
H3171 C3201 0.969 . S
C3172 H3154 0.951 . S
C3172 C3173 1.366 . S
C3172 C3174 1.388 . S
C3173 C3172 1.366 . S
C3173 C3177 1.385 . S
C3174 H3155 0.951 . S
C3174 C3172 1.388 . S
C3174 C3175 1.366 . S
C3175 C3174 1.366 . S
C3175 C3176 1.414 . S
C3175 C3178 1.499 . S
C3176 H3156 0.950 . S
C3176 C3175 1.414 . S
C3176 C3177 1.374 . S
C3177 H3157 0.950 . S
C3177 C3173 1.385 . S
C3177 C3176 1.374 . S
C3178 C3175 1.499 . S
C3178 C3179 1.373 . S
C3178 C3180 1.389 . S
C3179 H3158 0.950 . S
C3179 C3178 1.373 . S
C3179 C3195 1.377 . S
C3180 C3178 1.389 . S
C3180 C3181 1.524 . S
C3180 C3194 1.377 . S
C3181 C3180 1.524 . S
C3181 C3182 1.397 . S
C3181 C3186 1.363 . S
C3182 H3159 0.950 . S
C3182 C3181 1.397 . S
C3182 C3183 1.334 . S
C3183 H3160 0.950 . S
C3183 C3182 1.334 . S
C3183 C3184 1.287 . S
C3184 C3183 1.287 . S
C3184 C3185 1.524 . S
C3184 H3203 0.913 . S
C3185 H3161 0.950 . S
C3185 C3184 1.524 . S
C3185 C3186 1.415 . S
C3186 H3162 0.950 . S
C3186 C3181 1.363 . S
C3186 C3185 1.415 . S
C3187 H3163 0.951 . S
C3187 C3188 1.366 . S
C3187 C3189 1.388 . S
C3188 C3187 1.366 . S
C3188 C3192 1.385 . S
C3189 H3164 0.951 . S
C3189 C3187 1.388 . S
C3189 C3190 1.366 . S
C3190 C3189 1.366 . S
C3190 C3191 1.414 . S
C3190 C3193 1.499 . S
C3191 H3165 0.950 . S
C3191 C3190 1.414 . S
C3191 C3192 1.374 . S
C3192 H3166 0.950 . S
C3192 C3188 1.385 . S
C3192 C3191 1.374 . S
C3193 C3190 1.499 . S
C3193 C3194 1.373 . S
C3193 C3195 1.389 . S
C3194 H3167 0.950 . S
C3194 C3180 1.377 . S
C3194 C3193 1.373 . S
C3195 C3179 1.377 . S
C3195 C3193 1.389 . S
C3195 C3196 1.524 1_554 S
C3196 C3195 1.524 1_556 S
C3196 C3197 1.397 . S
C3196 C3201 1.363 . S
C3197 H3168 0.950 . S
C3197 C3196 1.397 . S
C3197 C3198 1.334 . S
C3198 H3169 0.950 . S
C3198 C3197 1.334 . S
C3198 C3199 1.287 . S
C3199 C3198 1.287 . S
C3199 C3200 1.524 . S
C3199 H3202 0.999 . S
C3200 H3170 0.950 . S
C3200 C3199 1.524 . S
C3200 C3201 1.415 . S
C3201 H3171 0.969 . S
C3201 C3196 1.363 . S
C3201 C3200 1.415 . S
H3202 C3199 0.999 . S
H3203 C3184 0.913 . S
C823 C22 2.076 . S
C838 C696 1.881 1_545 S
C888 C715 2.026 . S
C873 C38 2.066 . S
C938 C653 1.655 . S
C923 C75 1.645 . S
C973 C91 1.610 . S
C988 C674 1.603 . S
C1023 C128 1.621 . S
C1038 C801 1.464 . S
C1073 C197 1.424 . S
C1088 C779 1.427 1_554 S
C1138 C736 1.945 . S
C1123 C144 2.009 . S
C1173 C181 1.509 . S
C1188 C757 1.472 . S
C1238 C675 1.571 1_455 S
C1223 C234 1.715 . S
C1288 C716 1.577 1_455 S
C1273 C303 1.596 . S
C1323 C356 1.896 . S
C1338 C694 1.864 . S
C1373 C287 1.685 . S
C1388 C759 1.509 . S
C1438 C780 1.828 . S
C1423 C393 1.997 . S
C1488 C799 2.021 . S
C1473 C409 2.077 . S
C1523 C462 1.773 . S
C1538 C758 1.777 . S
C1588 C737 1.535 1_545 S
C1573 C446 1.545 . S
C1623 C499 1.562 . S
C1638 C717 1.398 . S
C1673 C552 1.416 . S
C1688 C695 1.422 . S
C1738 C673 1.829 1_556 S
C1723 C515 1.873 . S
C1773 C568 1.710 . S
C1788 C652 1.668 1_556 S
C1838 C738 1.632 . S
C1823 C340 1.789 . S
C1888 C800 1.532 . S
C1873 C621 1.551 . S
C1923 C250 1.779 . S
C1938 C778 1.740 . S
C1973 C605 1.628 . S
C1988 C654 1.464 . S
C2038 C650 1.099 . S
C2023 C39 1.151 . S
C2073 C29 0.934 . S
C2088 C671 0.922 . S
C2138 C691 1.214 . S
C2123 C92 1.309 . S
C2188 C714 1.377 . S
C2173 C82 1.673 1_655 S
C2223 C145 1.072 . S
C2238 C651 0.896 . S
C2273 C188 1.591 . S
C2288 C672 1.254 . S
C2338 C692 0.933 . S
C2323 C135 0.958 . S
C2373 C198 1.002 . S
C2388 C712 0.967 . S
C2423 C251 0.880 . S
C2438 C649 0.849 . S
C2488 C693 1.332 . S
C2473 C294 1.607 . S
C2523 C347 1.478 . S
C2538 C713 1.437 . S
C2573 C304 1.049 . S
C2588 C733 0.993 . S
C2638 C755 1.111 . S
C2623 C410 1.177 . S
C2673 C400 0.994 . S
C2688 C734 0.985 . S
C2723 C453 1.029 . S
C2738 C775 0.981 . S
C2773 C463 2.022 . S
C2788 C798 1.656 . S
C2823 C516 1.073 . S
C2838 C756 0.902 . S
C2888 C735 1.550 . S
C2873 C569 1.936 . S
C2923 C506 0.878 . S
C2938 C776 0.857 . S
C2988 C796 0.845 . S
C2973 C559 0.854 . S
C3038 C754 0.833 . S
C3023 C357 0.856 . S
C3088 C777 1.291 . S
C3073 C612 1.587 . S
C3138 C797 1.391 . S
C3123 C241 1.427 . S
C3173 C622 0.972 . S
C3188 C670 0.920 . S
