# Generated by pormake.
# Topology tsx, (6,3)-cn, num edge types: 1
# Building blocks:
#     Node 0, Type 0, BuildingBlock: FUNLAD_clean_sbu_0, # of connection points: 6
#     Node 1, Type 0, BuildingBlock: FUNLAD_clean_sbu_0, # of connection points: 6
#     Node 2, Type 1, BuildingBlock: WUSLED_clean_sbu_0, # of connection points: 3
#     Node 3, Type 1, BuildingBlock: WUSLED_clean_sbu_0, # of connection points: 3
#     Node 4, Type 1, BuildingBlock: WUSLED_clean_sbu_0, # of connection points: 3
#     Node 5, Type 1, BuildingBlock: WUSLED_clean_sbu_0, # of connection points: 3
#     Edge 6, Type (0, 1), BuildingBlock: AJUNOK_clean_linker_0, # of connection points: 2
#     Edge 7, Type (0, 1), BuildingBlock: AJUNOK_clean_linker_0, # of connection points: 2
#     Edge 8, Type (0, 1), BuildingBlock: AJUNOK_clean_linker_0, # of connection points: 2
#     Edge 9, Type (0, 1), BuildingBlock: AJUNOK_clean_linker_0, # of connection points: 2
#     Edge 10, Type (0, 1), BuildingBlock: AJUNOK_clean_linker_0, # of connection points: 2
#     Edge 11, Type (0, 1), BuildingBlock: AJUNOK_clean_linker_0, # of connection points: 2
#     Edge 12, Type (0, 1), BuildingBlock: AJUNOK_clean_linker_0, # of connection points: 2
#     Edge 13, Type (0, 1), BuildingBlock: AJUNOK_clean_linker_0, # of connection points: 2
#     Edge 14, Type (0, 1), BuildingBlock: AJUNOK_clean_linker_0, # of connection points: 2
#     Edge 15, Type (0, 1), BuildingBlock: AJUNOK_clean_linker_0, # of connection points: 2
#     Edge 16, Type (0, 1), BuildingBlock: AJUNOK_clean_linker_0, # of connection points: 2
#     Edge 17, Type (0, 1), BuildingBlock: AJUNOK_clean_linker_0, # of connection points: 2
# Relax obj value: 0.156
# Max RMSD: 0.151
# Mean RMSD: 0.079
data_MOF--net-tsx--node1-FUNLAD_clean_sbu_0--node2-WUSLED_clean_sbu_0--edge1-AJUNOK_clean_linker_0
_symmetry_space_group_name_H-M    P1
_symmetry_Int_Tables_number       1
_symmetry_cell_setting            triclinic
loop_
_symmetry_equiv_pos_as_xyz
'x, y, z'
_cell_length_a     20.025
_cell_length_b     22.089213
_cell_length_c     42.442184
_cell_angle_alpha  91.304608
_cell_angle_beta   91.968447
_cell_angle_gamma 89.774475
loop_
_atom_site_label
_atom_site_type_symbol
_atom_site_fract_x
_atom_site_fract_y
_atom_site_fract_z
_atom_type_partial_charge
C0 C 0.92035 0.91018 0.01925 0.0
N1 N 0.01469 0.00491 0.09521 0.0
C2 C 0.95646 0.99429 0.10982 0.0
C3 C 0.95488 0.99445 0.1427 0.0
C4 C 0.01362 0.00602 0.1606 0.0
C5 C 0.07295 0.01691 0.14518 0.0
C6 C 0.07247 0.0159 0.11222 0.0
Zn7 Zn 0.01407 0.00483 0.04673 0.0
C8 C 0.11305 0.91876 0.01995 0.0
N9 N 0.00878 0.00219 0.94559 0.0
C10 C 0.95079 0.99248 0.92857 0.0
C11 C 0.06726 0.01178 0.93103 0.0
C12 C 0.06894 0.01183 0.89818 0.0
C13 C 0.0102 0.00064 0.88012 0.0
C14 C 0.95046 0.99117 0.89563 0.0
Zn15 Zn 0.00945 0.00223 0.99394 0.0
O16 O 0.94485 0.93299 0.04482 0.0
C17 C 0.90985 0.08747 0.02017 0.0
O18 O 0.93723 0.93107 0.99305 0.0
H19 H 0.11302 0.01882 0.94486 0.0
H20 H 0.91088 0.98627 0.096 0.0
H21 H 0.90471 0.98556 0.94053 0.0
O22 O 0.93524 0.06997 0.0463 0.0
O23 O 0.93202 0.0664 0.99443 0.0
H24 H 0.11822 0.02415 0.10024 0.0
O25 O 0.08193 0.07309 0.99559 0.0
O26 O 0.08391 0.0768 0.04738 0.0
O27 O 0.08656 0.93779 0.9944 0.0
O28 O 0.09283 0.93925 0.04624 0.0
C29 C 0.10427 0.09628 0.02147 0.0
H30 H 0.9082 0.98637 0.15405 0.0
H31 H 0.11891 0.02666 0.15851 0.0
H32 H 0.11599 0.01909 0.88701 0.0
H33 H 0.90397 0.9832 0.88242 0.0
C34 C 0.41593 0.41671 0.51979 0.0
N35 N 0.51427 0.50633 0.59607 0.0
C36 C 0.45604 0.49674 0.61087 0.0
C37 C 0.45517 0.49567 0.64373 0.0
C38 C 0.51453 0.50562 0.66139 0.0
C39 C 0.57368 0.51626 0.64582 0.0
C40 C 0.57257 0.51597 0.6129 0.0
Zn41 Zn 0.51356 0.50666 0.54765 0.0
C42 C 0.61108 0.4181 0.52125 0.0
N43 N 0.51083 0.50514 0.44637 0.0
C44 C 0.45418 0.49241 0.42879 0.0
C45 C 0.56939 0.51705 0.43232 0.0
C46 C 0.57245 0.51694 0.39951 0.0
C47 C 0.51507 0.50342 0.38104 0.0
C48 C 0.45536 0.49086 0.39583 0.0
Zn49 Zn 0.51066 0.50494 0.49494 0.0
O50 O 0.4386 0.44076 0.54537 0.0
C51 C 0.41264 0.59226 0.52184 0.0
O52 O 0.43915 0.43281 0.49377 0.0
H53 H 0.61424 0.52601 0.44652 0.0
H54 H 0.40997 0.49037 0.59726 0.0
H55 H 0.4081 0.4831 0.44029 0.0
O56 O 0.44018 0.57569 0.54763 0.0
O57 O 0.43118 0.56922 0.49578 0.0
H58 H 0.61839 0.52336 0.60084 0.0
O59 O 0.58206 0.5773 0.49726 0.0
O60 O 0.58785 0.57326 0.54878 0.0
O61 O 0.58954 0.44047 0.49548 0.0
O62 O 0.58731 0.43686 0.54713 0.0
C63 C 0.60676 0.59662 0.52357 0.0
H64 H 0.40865 0.48768 0.65523 0.0
H65 H 0.62014 0.52455 0.65901 0.0
H66 H 0.61935 0.52642 0.38865 0.0
H67 H 0.41033 0.4799 0.38204 0.0
C68 C 0.89409 0.12351 0.50289 0.0
C69 C 0.86201 0.1495 0.47657 0.0
C70 C 0.80225 0.21947 0.51115 0.0
C71 C 0.81631 0.19705 0.48069 0.0
C72 C 0.83508 0.19321 0.53731 0.0
C73 C 0.88016 0.1455 0.53317 0.0
U74 U 0.00918 0.01301 0.45704 0.0
O75 O 0.11071 0.98419 0.47251 0.0
O76 O 0.02828 0.91672 0.46718 0.0
C77 C 0.09102 0.92789 0.47532 0.0
C78 C 0.94339 0.07448 0.49982 0.0
C79 C 0.13714 0.8799 0.48561 0.0
C80 C 0.20435 0.83143 0.52679 0.0
C81 C 0.16356 0.87937 0.51667 0.0
C82 C 0.19386 0.78523 0.47452 0.0
C83 C 0.21928 0.78356 0.5058 0.0
C84 C 0.15266 0.83267 0.46462 0.0
C85 C 0.99381 0.02806 0.36362 0.0
C86 C 0.05392 0.99363 0.31764 0.0
C87 C 0.94798 0.04585 0.31102 0.0
C88 C 0.9435 0.05113 0.34359 0.0
C89 C 0.00402 0.01871 0.2975 0.0
C90 C 0.04888 0.99828 0.35062 0.0
C91 C 0.9857 0.03828 0.39763 0.0
O92 O 0.92187 0.02332 0.48686 0.0
O93 O 0.00231 0.09031 0.49028 0.0
O94 O 0.03492 0.06295 0.4147 0.0
O95 O 0.9509 0.9985 0.41265 0.0
H96 H 0.87237 0.13317 0.45297 0.0
H97 H 0.79169 0.21609 0.46005 0.0
H98 H 0.82703 0.21024 0.561 0.0
H99 H 0.90491 0.12614 0.55372 0.0
H100 H 0.22362 0.83144 0.55096 0.0
H101 H 0.15181 0.91539 0.5332 0.0
H102 H 0.2063 0.74991 0.45758 0.0
H103 H 0.13306 0.83256 0.4405 0.0
H104 H 0.09739 0.97173 0.30795 0.0
H105 H 0.90708 0.06309 0.29645 0.0
H106 H 0.90031 0.07371 0.35321 0.0
H107 H 0.08802 0.97962 0.36578 0.0
C108 C 0.91768 0.86556 0.54002 0.0
C109 C 0.91632 0.8168 0.56053 0.0
C110 C 0.81923 0.77568 0.53125 0.0
C111 C 0.86755 0.772 0.55605 0.0
C112 C 0.82248 0.82331 0.51009 0.0
C113 C 0.87132 0.86789 0.5145 0.0
U114 U 0.03587 0.98919 0.58076 0.0
O115 O 0.04823 0.07775 0.5589 0.0
O116 O 0.13345 0.0143 0.56269 0.0
C117 C 0.11 0.06537 0.55147 0.0
C118 C 0.96763 0.91389 0.54344 0.0
C119 C 0.15593 0.11532 0.54672 0.0
C120 C 0.1975 0.18885 0.5106 0.0
C121 C 0.15652 0.13995 0.51658 0.0
C122 C 0.24067 0.18705 0.56466 0.0
C123 C 0.23902 0.21366 0.53474 0.0
C124 C 0.19897 0.13827 0.57071 0.0
C125 C 0.02373 0.99123 0.67636 0.0
C126 C 0.07573 0.01465 0.72772 0.0
C127 C 0.96472 0.97135 0.72401 0.0
C128 C 0.96714 0.97022 0.69114 0.0
C129 C 0.01935 0.99278 0.7428 0.0
C130 C 0.07789 0.01381 0.69477 0.0
C131 C 0.02574 0.9894 0.64179 0.0
O132 O 0.94553 0.96763 0.55194 0.0
O133 O 0.02668 0.90074 0.55602 0.0
O134 O 0.07197 0.95812 0.62724 0.0
O135 O 0.98487 0.0212 0.62368 0.0
H136 H 0.95235 0.8136 0.58005 0.0
H137 H 0.86686 0.73488 0.57228 0.0
H138 H 0.78603 0.82711 0.49077 0.0
H139 H 0.87244 0.90476 0.49812 0.0
H140 H 0.19553 0.20813 0.48735 0.0
H141 H 0.12482 0.12161 0.49756 0.0
H142 H 0.27378 0.2044 0.58343 0.0
H143 H 0.19997 0.11895 0.59395 0.0
H144 H 0.11865 0.03163 0.74136 0.0
H145 H 0.91946 0.95628 0.7346 0.0
H146 H 0.92473 0.95289 0.67723 0.0
H147 H 0.1218 0.03075 0.68368 0.0
C148 C 0.39512 0.62502 1.00225 0.0
C149 C 0.35431 0.64202 0.97642 0.0
C150 C 0.30178 0.7196 1.00918 0.0
C151 C 0.30759 0.68882 0.97993 0.0
C152 C 0.34157 0.70103 0.03507 0.0
C153 C 0.3878 0.65416 0.03158 0.0
U154 U 0.51412 0.515 0.95822 0.0
O155 O 0.6171 0.49131 0.97378 0.0
O156 O 0.53703 0.42165 0.97264 0.0
C157 C 0.59903 0.43613 0.98061 0.0
C158 C 0.44618 0.57761 0.99965 0.0
C159 C 0.6486 0.38954 0.98837 0.0
C160 C 0.69786 0.32252 0.02746 0.0
C161 C 0.6576 0.3722 0.01983 0.0
C162 C 0.72498 0.31056 0.97244 0.0
C163 C 0.7304 0.29009 1.00364 0.0
C164 C 0.68366 0.35951 0.96478 0.0
C165 C 0.49798 0.52422 0.8643 0.0
C166 C 0.55624 0.48556 0.81866 0.0
C167 C 0.45502 0.54484 0.81152 0.0
C168 C 0.45034 0.5508 0.84406 0.0
C169 C 0.50812 0.51257 0.79826 0.0
C170 C 0.55102 0.49111 0.85157 0.0
C171 C 0.48975 0.53446 0.89826 0.0
O172 O 0.42642 0.52509 0.98767 0.0
O173 O 0.50429 0.59481 0.98964 0.0
O174 O 0.53727 0.56269 0.91488 0.0
O175 O 0.45781 0.49355 0.9139 0.0
H176 H 0.3589 0.61953 0.95363 0.0
H177 H 0.2763 0.7012 0.95975 0.0
H178 H 0.33819 0.72379 0.05784 0.0
H179 H 0.41856 0.64119 0.05182 0.0
H180 H 0.70189 0.30844 0.05174 0.0
H181 H 0.63229 0.39618 0.03844 0.0
H182 H 0.75177 0.28792 0.9538 0.0
H183 H 0.67799 0.37302 0.94046 0.0
H184 H 0.5986 0.46145 0.80929 0.0
H185 H 0.41663 0.56558 0.79671 0.0
H186 H 0.40915 0.57664 0.8535 0.0
H187 H 0.58851 0.47047 0.86692 0.0
C188 C 0.4063 0.37088 0.04125 0.0
C189 C 0.38437 0.33787 0.0667 0.0
C190 C 0.30944 0.28013 0.03098 0.0
C191 C 0.33593 0.29279 0.06156 0.0
C192 C 0.33307 0.31204 1.00551 0.0
C193 C 0.38095 0.3573 1.01068 0.0
U194 U 0.52555 0.49392 0.08242 0.0
O195 O 0.53701 0.58439 0.06274 0.0
O196 O 0.62105 0.51941 0.06188 0.0
C197 C 0.59721 0.57209 0.053 0.0
C198 C 0.45471 0.42032 0.04516 0.0
C199 C 0.64319 0.6221 0.04799 0.0
C200 C 0.70603 0.67891 1.01064 0.0
C201 C 0.66233 0.63207 0.01704 0.0
C202 C 0.71145 0.70698 0.06622 0.0
C203 C 0.73179 0.71618 0.03523 0.0
C204 C 0.66719 0.6602 0.07259 0.0
C205 C 0.52387 0.49086 0.1781 0.0
C206 C 0.56406 0.53627 0.22785 0.0
C207 C 0.48635 0.45237 0.22752 0.0
C208 C 0.48557 0.45022 0.19466 0.0
C209 C 0.52584 0.49511 0.24449 0.0
C210 C 0.56325 0.53403 0.19476 0.0
C211 C 0.52026 0.48727 0.14351 0.0
O212 O 0.4324 0.47289 0.05541 0.0
O213 O 0.51466 0.40699 0.05642 0.0
O214 O 0.56545 0.45766 0.12742 0.0
O215 O 0.48007 0.52268 0.12704 0.0
H216 H 0.40383 0.34751 0.09041 0.0
H217 H 0.3185 0.26819 0.08147 0.0
H218 H 0.31318 0.30312 0.98181 0.0
H219 H 0.39766 0.3824 0.99077 0.0
H220 H 0.72101 0.68502 0.98663 0.0
H221 H 0.64371 0.60329 0.99773 0.0
H222 H 0.73021 0.73582 0.0855 0.0
H223 H 0.65224 0.65352 0.09655 0.0
H224 H 0.59485 0.56969 0.24043 0.0
H225 H 0.45532 0.42102 0.23968 0.0
H226 H 0.45453 0.41692 0.1821 0.0
H227 H 0.59301 0.56587 0.18226 0.0
C228 C 0.21393 0.13777 1.00572 0.0
C229 C 0.15375 0.14542 0.02155 0.0
C230 C 0.26395 0.18233 1.00805 0.0
C231 C 0.25476 0.23577 0.02608 0.0
H232 H 0.22326 0.09629 0.99245 0.0
H233 H 0.31069 0.17421 0.99652 0.0
S234 S 0.101 0.28215 0.06634 0.0
N235 N 0.08454 0.21327 0.05226 0.0
N236 N 0.17779 0.29746 0.056 0.0
C237 C 0.19315 0.2454 0.04015 0.0
C238 C 0.14278 0.2 0.03808 0.0
C239 C 0.16846 0.82566 0.0412 0.0
C240 C 0.16499 0.87124 0.01859 0.0
C241 C 0.21307 0.7768 0.03817 0.0
C242 C 0.25593 0.7722 1.01256 0.0
H243 H 0.13496 0.82663 0.06072 0.0
H244 H 0.21291 0.7417 0.05559 0.0
S245 S 0.27303 0.88489 0.94991 0.0
N246 N 0.21221 0.91175 0.97154 0.0
N247 N 0.29714 0.82106 0.96636 0.0
C248 C 0.25499 0.81911 0.99074 0.0
C249 C 0.20927 0.86834 0.99364 0.0
C250 C 0.81496 0.85518 1.00262 0.0
C251 C 0.87526 0.85781 0.0206 0.0
C252 C 0.7689 0.8083 1.00679 0.0
C253 C 0.78222 0.76283 0.02893 0.0
H254 H 0.80226 0.89067 0.98623 0.0
H255 H 0.72185 0.80865 0.99341 0.0
S256 S 0.93873 0.74331 0.07672 0.0
N257 N 0.94943 0.80713 0.05805 0.0
N258 N 0.86378 0.71872 0.06534 0.0
C259 C 0.84422 0.76305 0.0453 0.0
C260 C 0.89052 0.8107 0.04129 0.0
C261 C 0.85945 0.1839 0.04049 0.0
C262 C 0.8571 0.13412 0.01921 0.0
C263 C 0.81625 0.23356 0.03628 0.0
C264 C 0.76915 0.23444 1.01086 0.0
H265 H 0.89728 0.18605 0.05935 0.0
H266 H 0.82204 0.27258 0.05205 0.0
S267 S 0.73299 0.10864 0.95352 0.0
N268 N 0.79772 0.08466 0.97497 0.0
N269 N 0.7148 0.17652 0.96792 0.0
C270 C 0.76241 0.18235 0.9914 0.0
C271 C 0.80691 0.13255 0.99533 0.0
C272 C 0.69464 0.65851 0.49839 0.0
C273 C 0.65795 0.64501 0.52509 0.0
C274 C 0.74635 0.70145 0.50023 0.0
C275 C 0.763 0.73219 0.52883 0.0
H276 H 0.68449 0.63476 0.47614 0.0
H277 H 0.77444 0.7096 0.47939 0.0
S278 S 0.6755 0.72076 0.60396 0.0
N279 N 0.6377 0.67087 0.58002 0.0
N280 N 0.7339 0.75169 0.58314 0.0
C281 C 0.72458 0.72134 0.55512 0.0
C282 C 0.67234 0.67772 0.55335 0.0
C283 C 0.71113 0.36895 0.49803 0.0
C284 C 0.66172 0.36915 0.52076 0.0
C285 C 0.75703 0.3211 0.4956 0.0
C286 C 0.75464 0.27094 0.51543 0.0
H287 H 0.71433 0.40612 0.48193 0.0
H288 H 0.79458 0.32335 0.4779 0.0
S289 S 0.63292 0.249 0.57832 0.0
N290 N 0.61282 0.31543 0.56358 0.0
N291 N 0.69736 0.22432 0.55837 0.0
C292 C 0.7056 0.27091 0.53851 0.0
C293 C 0.65956 0.32024 0.5413 0.0
C294 C 0.36119 0.32151 0.4986 0.0
C295 C 0.36443 0.36922 0.52112 0.0
C296 C 0.31906 0.27171 0.50256 0.0
C297 C 0.27887 0.26843 0.52908 0.0
H298 H 0.39354 0.32125 0.47865 0.0
H299 H 0.3199 0.23459 0.48545 0.0
S300 S 0.25822 0.38789 0.59069 0.0
N301 N 0.31637 0.41421 0.56806 0.0
N302 N 0.23692 0.32132 0.57512 0.0
C303 C 0.27787 0.31805 0.55023 0.0
C304 C 0.32071 0.36832 0.54634 0.0
C305 C 0.37489 0.69808 0.5326 0.0
C306 C 0.36003 0.63874 0.52206 0.0
C307 C 0.32743 0.74468 0.52921 0.0
C308 C 0.26367 0.73288 0.51547 0.0
H309 H 0.42447 0.70907 0.54201 0.0
H310 H 0.34197 0.79058 0.53573 0.0
S311 S 0.19632 0.58216 0.49117 0.0
N312 N 0.27505 0.56881 0.50181 0.0
N313 N 0.18486 0.65571 0.49658 0.0
C314 C 0.24666 0.67256 0.50765 0.0
C315 C 0.29522 0.62558 0.51058 0.0
C316 C 0.0317 0.9603 0.21361 0.0
C317 C 0.01221 0.00993 0.19531 0.0
C318 C 0.0301 0.96365 0.24669 0.0
C319 C 0.00939 0.01694 0.2625 0.0
H320 H 0.04752 0.9185 0.20224 0.0
H321 H 0.04384 0.92384 0.25989 0.0
S322 S 0.95766 0.16063 0.22449 0.0
N323 N 0.97323 0.11384 0.19474 0.0
N324 N 0.97306 0.1218 0.25674 0.0
C325 C 0.9914 0.06735 0.24413 0.0
C326 C 0.99207 0.06341 0.21057 0.0
C327 C 0.04029 0.04524 0.82878 0.0
C328 C 0.01177 0.99781 0.84522 0.0
C329 C 0.0425 0.04325 0.79578 0.0
C330 C 0.01718 0.99329 0.77794 0.0
H331 H 0.06012 0.08464 0.84152 0.0
H332 H 0.06337 0.08165 0.78418 0.0
S333 S 0.94339 0.8547 0.81041 0.0
N334 N 0.96063 0.89837 0.84168 0.0
N335 N 0.96714 0.89311 0.77983 0.0
C336 C 0.99009 0.94482 0.79433 0.0
C337 C 0.98684 0.94744 0.82788 0.0
C338 C 0.49834 0.55967 0.71252 0.0
C339 C 0.51449 0.50623 0.69607 0.0
C340 C 0.49797 0.56138 0.74551 0.0
C341 C 0.51289 0.50943 0.76326 0.0
H342 H 0.48614 0.60044 0.69979 0.0
H343 H 0.48601 0.60397 0.75718 0.0
S344 S 0.55643 0.35774 0.73027 0.0
N345 N 0.54561 0.40037 0.69903 0.0
N346 N 0.54273 0.40241 0.76115 0.0
C347 C 0.529 0.45555 0.74676 0.0
C348 C 0.53008 0.4542 0.71312 0.0
C349 C 0.50906 0.55345 0.32886 0.0
C350 C 0.51831 0.50073 0.34639 0.0
C351 C 0.51284 0.55162 0.29587 0.0
C352 C 0.52584 0.49694 0.27947 0.0
H353 H 0.49858 0.5962 0.34073 0.0
H354 H 0.50431 0.59297 0.28308 0.0
S355 S 0.55789 0.34739 0.31522 0.0
N356 N 0.54354 0.39327 0.34554 0.0
N357 N 0.55113 0.38953 0.2836 0.0
C358 C 0.53624 0.44419 0.29699 0.0
C359 C 0.53239 0.44617 0.33047 0.0
loop_
_geom_bond_atom_site_label_1
_geom_bond_atom_site_label_2
_geom_bond_distance
_geom_bond_site_symmetry_2
_ccdc_geom_bond_type
C0 O16 1.251 . S
C0 O18 1.254 1_554 S
N1 C2 1.333 1_445 S
N1 C6 1.307 . S
N1 Zn7 2.020 . S
C2 N1 1.333 1_665 S
C2 C3 1.379 . S
C2 H20 0.952 . S
C3 C2 1.379 . S
C3 C4 1.390 1_665 S
C3 H30 0.949 . S
C4 C3 1.390 1_445 S
C4 C5 1.357 . S
C5 C4 1.357 . S
C5 C6 1.370 . S
C5 H31 0.950 . S
C6 N1 1.307 . S
C6 C5 1.370 . S
C6 H24 0.948 . S
Zn7 N1 2.020 . S
Zn7 O16 2.039 1_445 S
Zn7 O22 2.034 1_455 S
Zn7 O26 2.025 . S
Zn7 O28 2.024 1_545 S
C8 O27 1.246 1_554 S
C8 O28 1.249 . S
N9 C10 1.304 1_445 S
N9 C11 1.340 . S
N9 Zn15 2.020 . S
C10 N9 1.304 1_665 S
C10 C14 1.370 . S
C10 H21 0.948 . S
C11 N9 1.340 . S
C11 C12 1.379 . S
C11 H19 0.952 . S
C12 C11 1.379 . S
C12 C13 1.390 . S
C12 H32 0.949 . S
C13 C12 1.390 . S
C13 C14 1.357 1_445 S
C14 C10 1.370 . S
C14 C13 1.357 1_665 S
C14 H33 0.950 . S
Zn15 N9 2.020 . S
Zn15 O18 2.025 1_445 S
Zn15 O23 2.024 1_455 S
Zn15 O25 2.039 . S
Zn15 O27 2.034 1_545 S
O16 C0 1.251 . S
O16 Zn7 2.039 1_665 S
C17 O22 1.246 . S
C17 O23 1.249 1_554 S
O18 C0 1.254 1_556 S
O18 Zn15 2.025 1_665 S
H19 C11 0.952 . S
H20 C2 0.952 . S
H21 C10 0.948 . S
O22 Zn7 2.034 1_655 S
O22 C17 1.246 . S
O23 Zn15 2.024 1_655 S
O23 C17 1.249 1_556 S
H24 C6 0.948 . S
O25 Zn15 2.039 . S
O25 C29 1.251 1_556 S
O26 Zn7 2.025 . S
O26 C29 1.254 . S
O27 C8 1.246 1_556 S
O27 Zn15 2.034 1_565 S
O28 Zn7 2.024 1_565 S
O28 C8 1.249 . S
C29 O25 1.251 1_554 S
C29 O26 1.254 . S
H30 C3 0.949 . S
H31 C5 0.950 . S
H32 C12 0.949 . S
H33 C14 0.950 . S
C34 O50 1.251 . S
C34 O52 1.254 . S
N35 C36 1.333 . S
N35 C40 1.307 . S
N35 Zn41 2.020 . S
C36 N35 1.333 . S
C36 C37 1.379 . S
C36 H54 0.952 . S
C37 C36 1.379 . S
C37 C38 1.390 . S
C37 H64 0.949 . S
C38 C37 1.390 . S
C38 C39 1.357 . S
C39 C38 1.357 . S
C39 C40 1.370 . S
C39 H65 0.950 . S
C40 N35 1.307 . S
C40 C39 1.370 . S
C40 H58 0.948 . S
Zn41 N35 2.020 . S
Zn41 O50 2.039 . S
Zn41 O56 2.034 . S
Zn41 O60 2.025 . S
Zn41 O62 2.024 . S
C42 O61 1.246 . S
C42 O62 1.249 . S
N43 C44 1.307 . S
N43 C45 1.333 . S
N43 Zn49 2.020 . S
C44 N43 1.307 . S
C44 C48 1.370 . S
C44 H55 0.948 . S
C45 N43 1.333 . S
C45 C46 1.379 . S
C45 H53 0.952 . S
C46 C45 1.379 . S
C46 C47 1.390 . S
C46 H66 0.949 . S
C47 C46 1.390 . S
C47 C48 1.357 . S
C48 C44 1.370 . S
C48 C47 1.357 . S
C48 H67 0.950 . S
Zn49 N43 2.020 . S
Zn49 O52 2.025 . S
Zn49 O57 2.024 . S
Zn49 O59 2.039 . S
Zn49 O61 2.034 . S
O50 C34 1.251 . S
O50 Zn41 2.039 . S
C51 O56 1.246 . S
C51 O57 1.249 . S
O52 C34 1.254 . S
O52 Zn49 2.025 . S
H53 C45 0.952 . S
H54 C36 0.952 . S
H55 C44 0.948 . S
O56 Zn41 2.034 . S
O56 C51 1.246 . S
O57 Zn49 2.024 . S
O57 C51 1.249 . S
H58 C40 0.948 . S
O59 Zn49 2.039 . S
O59 C63 1.251 . S
O60 Zn41 2.025 . S
O60 C63 1.254 . S
O61 C42 1.246 . S
O61 Zn49 2.034 . S
O62 Zn41 2.024 . S
O62 C42 1.249 . S
C63 O59 1.251 . S
C63 O60 1.254 . S
H64 C37 0.949 . S
H65 C39 0.950 . S
H66 C46 0.949 . S
H67 C48 0.950 . S
C68 C69 1.264 . S
C68 C73 1.479 . S
C68 C78 1.465 . S
C69 C68 1.264 . S
C69 C71 1.339 . S
C69 H96 0.931 . S
C70 C71 1.395 . S
C70 C72 1.320 . S
C71 C69 1.339 . S
C71 C70 1.395 . S
C71 H97 0.929 . S
C72 C70 1.320 . S
C72 C73 1.405 . S
C72 H98 0.930 . S
C73 C68 1.479 . S
C73 C72 1.405 . S
C73 H99 0.931 . S
U74 O75 2.454 1_545 S
U74 O76 2.458 1_545 S
U74 C77 2.984 1_545 S
U74 C78 2.847 1_455 S
U74 C91 2.882 . S
U74 O92 2.441 1_455 S
U74 O93 2.420 1_455 S
U74 O94 2.455 1_545 S
U74 O95 2.449 . S
O75 U74 2.454 1_565 S
O75 C77 1.353 . S
O76 U74 2.458 1_565 S
O76 C77 1.286 . S
C77 U74 2.984 1_565 S
C77 O75 1.353 . S
C77 O76 1.286 . S
C77 C79 1.363 . S
C78 C68 1.465 . S
C78 U74 2.847 1_655 S
C78 O92 1.249 . S
C78 O93 1.202 . S
C79 C77 1.363 . S
C79 C81 1.408 . S
C79 C84 1.342 . S
C80 C81 1.310 . S
C80 C83 1.461 . S
C80 H100 0.932 . S
C81 C79 1.408 . S
C81 C80 1.310 . S
C81 H101 0.930 . S
C82 C83 1.474 . S
C82 C84 1.285 . S
C82 H102 0.929 . S
C83 C80 1.461 . S
C83 C82 1.474 . S
C84 C79 1.342 . S
C84 C82 1.285 . S
C84 H103 0.930 . S
C85 C88 1.424 1_455 S
C85 C90 1.245 1_545 S
C85 C91 1.428 . S
C86 C89 1.260 1_565 S
C86 C90 1.477 . S
C86 H104 0.932 . S
C87 C88 1.384 . S
C87 C89 1.479 1_655 S
C87 H105 0.929 . S
C88 C85 1.424 1_655 S
C88 C87 1.384 . S
C88 H106 0.928 . S
C89 C86 1.260 1_545 S
C89 C87 1.479 1_455 S
C90 C85 1.245 1_565 S
C90 C86 1.477 . S
C90 H107 0.932 . S
C91 U74 2.882 . S
C91 C85 1.428 . S
C91 O94 1.301 1_545 S
C91 O95 1.282 . S
O92 U74 2.441 1_655 S
O92 C78 1.249 . S
O93 U74 2.420 1_655 S
O93 C78 1.202 . S
O94 U74 2.455 1_565 S
O94 C91 1.301 1_565 S
O95 U74 2.449 . S
O95 C91 1.282 . S
H96 C69 0.931 . S
H97 C71 0.929 . S
H98 C72 0.930 . S
H99 C73 0.931 . S
H100 C80 0.932 . S
H101 C81 0.930 . S
H102 C82 0.929 . S
H103 C84 0.930 . S
H104 C86 0.932 . S
H105 C87 0.929 . S
H106 C88 0.928 . S
H107 C90 0.932 . S
C108 C109 1.264 . S
C108 C113 1.479 . S
C108 C118 1.465 . S
C109 C108 1.264 . S
C109 C111 1.339 . S
C109 H136 0.931 . S
C110 C111 1.395 . S
C110 C112 1.320 . S
C111 C109 1.339 . S
C111 C110 1.395 . S
C111 H137 0.929 . S
C112 C110 1.320 . S
C112 C113 1.405 . S
C112 H138 0.930 . S
C113 C108 1.479 . S
C113 C112 1.405 . S
C113 H139 0.931 . S
U114 O115 2.454 1_565 S
U114 O116 2.458 1_565 S
U114 C117 2.984 1_565 S
U114 C118 2.847 1_455 S
U114 C131 2.882 . S
U114 O132 2.441 1_455 S
U114 O133 2.420 1_455 S
U114 O134 2.455 1_565 S
U114 O135 2.449 . S
O115 U114 2.454 1_545 S
O115 C117 1.353 . S
O116 U114 2.458 1_545 S
O116 C117 1.286 . S
C117 U114 2.984 1_545 S
C117 O115 1.353 . S
C117 O116 1.286 . S
C117 C119 1.363 . S
C118 C108 1.465 . S
C118 U114 2.847 1_655 S
C118 O132 1.249 . S
C118 O133 1.202 . S
C119 C117 1.363 . S
C119 C121 1.408 . S
C119 C124 1.342 . S
C120 C121 1.310 . S
C120 C123 1.461 . S
C120 H140 0.932 . S
C121 C119 1.408 . S
C121 C120 1.310 . S
C121 H141 0.930 . S
C122 C123 1.474 . S
C122 C124 1.285 . S
C122 H142 0.929 . S
C123 C120 1.461 . S
C123 C122 1.474 . S
C124 C119 1.342 . S
C124 C122 1.285 . S
C124 H143 0.930 . S
C125 C128 1.424 . S
C125 C130 1.245 1_565 S
C125 C131 1.428 . S
C126 C129 1.260 1_545 S
C126 C130 1.477 . S
C126 H144 0.932 . S
C127 C128 1.384 1_655 S
C127 C129 1.478 1_655 S
C127 H145 0.929 . S
C128 C125 1.424 . S
C128 C127 1.384 1_455 S
C128 H146 0.928 1_455 S
C129 C126 1.260 1_565 S
C129 C127 1.478 1_455 S
C130 C125 1.245 1_545 S
C130 C126 1.477 . S
C130 H147 0.932 . S
C131 U114 2.882 . S
C131 C125 1.428 . S
C131 O134 1.301 1_565 S
C131 O135 1.282 . S
O132 U114 2.441 1_655 S
O132 C118 1.249 . S
O133 U114 2.420 1_655 S
O133 C118 1.202 . S
O134 U114 2.455 1_545 S
O134 C131 1.301 1_545 S
O135 U114 2.449 . S
O135 C131 1.282 . S
H136 C109 0.931 . S
H137 C111 0.929 . S
H138 C112 0.930 . S
H139 C113 0.931 . S
H140 C120 0.932 . S
H141 C121 0.930 . S
H142 C122 0.929 . S
H143 C124 0.930 . S
H144 C126 0.932 . S
H145 C127 0.929 . S
H146 C128 0.928 1_655 S
H147 C130 0.932 . S
C148 C149 1.264 . S
C148 C153 1.479 1_556 S
C148 C158 1.465 . S
C149 C148 1.264 . S
C149 C151 1.339 . S
C149 H176 0.931 . S
C150 C151 1.395 1_554 S
C150 C152 1.320 . S
C151 C149 1.339 . S
C151 C150 1.395 1_556 S
C151 H177 0.929 . S
C152 C150 1.320 . S
C152 C153 1.405 . S
C152 H178 0.930 . S
C153 C148 1.479 1_554 S
C153 C152 1.405 . S
C153 H179 0.931 . S
U154 O155 2.454 . S
U154 O156 2.458 . S
U154 C157 2.984 . S
U154 C158 2.847 . S
U154 C171 2.882 . S
U154 O172 2.441 . S
U154 O173 2.420 . S
U154 O174 2.455 . S
U154 O175 2.449 . S
O155 U154 2.454 . S
O155 C157 1.353 . S
O156 U154 2.458 . S
O156 C157 1.286 . S
C157 U154 2.984 . S
C157 O155 1.353 . S
C157 O156 1.286 . S
C157 C159 1.363 . S
C158 C148 1.465 . S
C158 U154 2.847 . S
C158 O172 1.249 . S
C158 O173 1.202 . S
C159 C157 1.363 . S
C159 C161 1.408 1_556 S
C159 C164 1.342 . S
C160 C161 1.310 . S
C160 C163 1.461 . S
C160 H180 0.932 . S
C161 C159 1.408 1_554 S
C161 C160 1.310 . S
C161 H181 0.930 . S
C162 C163 1.474 1_556 S
C162 C164 1.285 . S
C162 H182 0.929 . S
C163 C160 1.461 . S
C163 C162 1.474 1_554 S
C164 C159 1.342 . S
C164 C162 1.285 . S
C164 H183 0.930 . S
C165 C168 1.424 . S
C165 C170 1.245 . S
C165 C171 1.428 . S
C166 C169 1.260 . S
C166 C170 1.477 . S
C166 H184 0.932 . S
C167 C168 1.384 . S
C167 C169 1.479 . S
C167 H185 0.929 . S
C168 C165 1.424 . S
C168 C167 1.384 . S
C168 H186 0.928 . S
C169 C166 1.260 . S
C169 C167 1.479 . S
C170 C165 1.245 . S
C170 C166 1.477 . S
C170 H187 0.932 . S
C171 U154 2.882 . S
C171 C165 1.428 . S
C171 O174 1.301 . S
C171 O175 1.282 . S
O172 U154 2.441 . S
O172 C158 1.249 . S
O173 U154 2.420 . S
O173 C158 1.202 . S
O174 U154 2.455 . S
O174 C171 1.301 . S
O175 U154 2.449 . S
O175 C171 1.282 . S
H176 C149 0.931 . S
H177 C151 0.929 . S
H178 C152 0.930 . S
H179 C153 0.931 . S
H180 C160 0.932 . S
H181 C161 0.930 . S
H182 C162 0.929 . S
H183 C164 0.930 . S
H184 C166 0.932 . S
H185 C167 0.929 . S
H186 C168 0.928 . S
H187 C170 0.932 . S
C188 C189 1.264 . S
C188 C193 1.479 1_554 S
C188 C198 1.465 . S
C189 C188 1.264 . S
C189 C191 1.339 . S
C189 H216 0.931 . S
C190 C191 1.395 1_556 S
C190 C192 1.320 . S
C191 C189 1.339 . S
C191 C190 1.395 1_554 S
C191 H217 0.929 . S
C192 C190 1.320 . S
C192 C193 1.405 . S
C192 H218 0.930 . S
C193 C188 1.479 1_556 S
C193 C192 1.405 . S
C193 H219 0.931 . S
U194 O195 2.454 . S
U194 O196 2.458 . S
U194 C197 2.984 . S
U194 C198 2.847 . S
U194 C211 2.882 . S
U194 O212 2.441 . S
U194 O213 2.420 . S
U194 O214 2.455 . S
U194 O215 2.449 . S
O195 U194 2.454 . S
O195 C197 1.353 . S
O196 U194 2.458 . S
O196 C197 1.286 . S
C197 U194 2.984 . S
C197 O195 1.353 . S
C197 O196 1.286 . S
C197 C199 1.363 . S
C198 C188 1.465 . S
C198 U194 2.847 . S
C198 O212 1.249 . S
C198 O213 1.202 . S
C199 C197 1.363 . S
C199 C201 1.408 1_554 S
C199 C204 1.342 . S
C200 C201 1.310 . S
C200 C203 1.461 . S
C200 H220 0.932 . S
C201 C199 1.408 1_556 S
C201 C200 1.310 . S
C201 H221 0.930 . S
C202 C203 1.474 1_554 S
C202 C204 1.285 . S
C202 H222 0.929 . S
C203 C200 1.461 . S
C203 C202 1.474 1_556 S
C204 C199 1.342 . S
C204 C202 1.285 . S
C204 H223 0.930 . S
C205 C208 1.424 . S
C205 C210 1.245 . S
C205 C211 1.428 . S
C206 C209 1.260 . S
C206 C210 1.477 . S
C206 H224 0.932 . S
C207 C208 1.384 . S
C207 C209 1.479 . S
C207 H225 0.929 . S
C208 C205 1.424 . S
C208 C207 1.384 . S
C208 H226 0.928 . S
C209 C206 1.260 . S
C209 C207 1.479 . S
C210 C205 1.245 . S
C210 C206 1.477 . S
C210 H227 0.932 . S
C211 U194 2.882 . S
C211 C205 1.428 . S
C211 O214 1.301 . S
C211 O215 1.282 . S
O212 U194 2.441 . S
O212 C198 1.249 . S
O213 U194 2.420 . S
O213 C198 1.202 . S
O214 U194 2.455 . S
O214 C211 1.301 . S
O215 U194 2.449 . S
O215 C211 1.282 . S
H216 C189 0.931 . S
H217 C191 0.929 . S
H218 C192 0.930 . S
H219 C193 0.931 . S
H220 C200 0.932 . S
H221 C201 0.930 . S
H222 C202 0.929 . S
H223 C204 0.930 . S
H224 C206 0.932 . S
H225 C207 0.929 . S
H226 C208 0.928 . S
H227 C210 0.932 . S
C228 C229 1.369 1_556 S
C228 C230 1.419 . S
C228 H232 0.930 . S
C229 C228 1.369 1_554 S
C229 C238 1.429 . S
C230 C228 1.419 . S
C230 C231 1.363 . S
C230 H233 0.929 . S
C231 C230 1.363 . S
C231 C237 1.428 1_556 S
H232 C228 0.930 . S
H233 C230 0.929 . S
S234 N235 1.613 . S
S234 N236 1.610 . S
N235 S234 1.613 . S
N235 C238 1.350 . S
N236 S234 1.610 . S
N236 C237 1.351 . S
C237 C231 1.428 1_554 S
C237 N236 1.351 . S
C237 C238 1.434 . S
C238 C229 1.429 . S
C238 N235 1.350 . S
C238 C237 1.434 . S
C239 C240 1.369 . S
C239 C241 1.419 . S
C239 H243 0.930 . S
C240 C239 1.369 . S
C240 C249 1.429 1_554 S
C241 C239 1.419 . S
C241 C242 1.363 . S
C241 H244 0.929 . S
C242 C241 1.363 . S
C242 C248 1.428 1_554 S
H243 C239 0.930 . S
H244 C241 0.929 . S
S245 N246 1.613 . S
S245 N247 1.610 . S
N246 S245 1.613 . S
N246 C249 1.350 . S
N247 S245 1.610 . S
N247 C248 1.351 . S
C248 C242 1.428 1_556 S
C248 N247 1.351 . S
C248 C249 1.434 . S
C249 C240 1.429 1_556 S
C249 N246 1.350 . S
C249 C248 1.434 . S
C250 C251 1.369 1_556 S
C250 C252 1.419 . S
C250 H254 0.930 . S
C251 C250 1.369 1_554 S
C251 C260 1.429 . S
C252 C250 1.419 . S
C252 C253 1.363 . S
C252 H255 0.929 . S
C253 C252 1.363 . S
C253 C259 1.428 1_556 S
H254 C250 0.930 . S
H255 C252 0.929 . S
S256 N257 1.613 . S
S256 N258 1.610 . S
N257 S256 1.613 . S
N257 C260 1.350 . S
N258 S256 1.610 . S
N258 C259 1.351 . S
C259 C253 1.428 1_554 S
C259 N258 1.351 . S
C259 C260 1.434 . S
C260 C251 1.429 . S
C260 N257 1.350 . S
C260 C259 1.434 . S
C261 C262 1.369 . S
C261 C263 1.419 . S
C261 H265 0.930 . S
C262 C261 1.369 . S
C262 C271 1.429 1_554 S
C263 C261 1.419 . S
C263 C264 1.363 . S
C263 H266 0.929 . S
C264 C263 1.363 . S
C264 C270 1.428 1_554 S
H265 C261 0.930 . S
H266 C263 0.929 . S
S267 N268 1.613 . S
S267 N269 1.610 . S
N268 S267 1.613 . S
N268 C271 1.350 . S
N269 S267 1.610 . S
N269 C270 1.351 . S
C270 C264 1.428 1_556 S
C270 N269 1.351 . S
C270 C271 1.434 . S
C271 C262 1.429 1_556 S
C271 N268 1.350 . S
C271 C270 1.434 . S
C272 C273 1.369 . S
C272 C274 1.419 . S
C272 H276 0.930 . S
C273 C272 1.369 . S
C273 C282 1.429 . S
C274 C272 1.419 . S
C274 C275 1.363 . S
C274 H277 0.929 . S
C275 C274 1.363 . S
C275 C281 1.428 . S
H276 C272 0.930 . S
H277 C274 0.929 . S
S278 N279 1.613 . S
S278 N280 1.610 . S
N279 S278 1.613 . S
N279 C282 1.350 . S
N280 S278 1.610 . S
N280 C281 1.351 . S
C281 C275 1.428 . S
C281 N280 1.351 . S
C281 C282 1.434 . S
C282 C273 1.429 . S
C282 N279 1.350 . S
C282 C281 1.434 . S
C283 C284 1.369 . S
C283 C285 1.419 . S
C283 H287 0.930 . S
C284 C283 1.369 . S
C284 C293 1.429 . S
C285 C283 1.419 . S
C285 C286 1.363 . S
C285 H288 0.929 . S
C286 C285 1.363 . S
C286 C292 1.428 . S
H287 C283 0.930 . S
H288 C285 0.929 . S
S289 N290 1.613 . S
S289 N291 1.610 . S
N290 S289 1.613 . S
N290 C293 1.350 . S
N291 S289 1.610 . S
N291 C292 1.351 . S
C292 C286 1.428 . S
C292 N291 1.351 . S
C292 C293 1.434 . S
C293 C284 1.429 . S
C293 N290 1.350 . S
C293 C292 1.434 . S
C294 C295 1.369 . S
C294 C296 1.419 . S
C294 H298 0.930 . S
C295 C294 1.369 . S
C295 C304 1.429 . S
C296 C294 1.419 . S
C296 C297 1.363 . S
C296 H299 0.929 . S
C297 C296 1.363 . S
C297 C303 1.428 . S
H298 C294 0.930 . S
H299 C296 0.929 . S
S300 N301 1.613 . S
S300 N302 1.610 . S
N301 S300 1.613 . S
N301 C304 1.350 . S
N302 S300 1.610 . S
N302 C303 1.351 . S
C303 C297 1.428 . S
C303 N302 1.351 . S
C303 C304 1.434 . S
C304 C295 1.429 . S
C304 N301 1.350 . S
C304 C303 1.434 . S
C305 C306 1.369 . S
C305 C307 1.419 . S
C305 H309 0.930 . S
C306 C305 1.369 . S
C306 C315 1.429 . S
C307 C305 1.419 . S
C307 C308 1.363 . S
C307 H310 0.929 . S
C308 C307 1.363 . S
C308 C314 1.428 . S
H309 C305 0.930 . S
H310 C307 0.929 . S
S311 N312 1.613 . S
S311 N313 1.610 . S
N312 S311 1.613 . S
N312 C315 1.350 . S
N313 S311 1.610 . S
N313 C314 1.351 . S
C314 C308 1.428 . S
C314 N313 1.351 . S
C314 C315 1.434 . S
C315 C306 1.429 . S
C315 N312 1.350 . S
C315 C314 1.434 . S
C316 C317 1.369 1_565 S
C316 C318 1.419 . S
C316 H320 0.930 . S
C317 C316 1.369 1_545 S
C317 C326 1.429 1_455 S
C318 C316 1.419 . S
C318 C319 1.363 1_465 S
C318 H321 0.929 . S
C319 C318 1.363 1_645 S
C319 C325 1.428 . S
H320 C316 0.930 . S
H321 C318 0.929 . S
S322 N323 1.613 . S
S322 N324 1.610 . S
N323 S322 1.613 . S
N323 C326 1.350 . S
N324 S322 1.610 . S
N324 C325 1.351 . S
C325 C319 1.428 . S
C325 N324 1.351 . S
C325 C326 1.434 . S
C326 C317 1.429 1_655 S
C326 N323 1.350 . S
C326 C325 1.434 . S
C327 C328 1.369 . S
C327 C329 1.419 . S
C327 H331 0.930 . S
C328 C327 1.369 . S
C328 C337 1.429 1_445 S
C329 C327 1.419 . S
C329 C330 1.363 . S
C329 H332 0.929 . S
C330 C329 1.363 . S
C330 C336 1.428 1_445 S
H331 C327 0.930 . S
H332 C329 0.929 . S
S333 N334 1.613 . S
S333 N335 1.610 . S
N334 S333 1.613 . S
N334 C337 1.350 . S
N335 S333 1.610 . S
N335 C336 1.351 . S
C336 C330 1.428 1_665 S
C336 N335 1.351 . S
C336 C337 1.434 . S
C337 C328 1.429 1_665 S
C337 N334 1.350 . S
C337 C336 1.434 . S
C338 C339 1.369 . S
C338 C340 1.419 . S
C338 H342 0.930 . S
C339 C338 1.369 . S
C339 C348 1.429 . S
C340 C338 1.419 . S
C340 C341 1.363 . S
C340 H343 0.929 . S
C341 C340 1.363 . S
C341 C347 1.428 . S
H342 C338 0.930 . S
H343 C340 0.929 . S
S344 N345 1.613 . S
S344 N346 1.610 . S
N345 S344 1.613 . S
N345 C348 1.350 . S
N346 S344 1.610 . S
N346 C347 1.351 . S
C347 C341 1.428 . S
C347 N346 1.351 . S
C347 C348 1.434 . S
C348 C339 1.429 . S
C348 N345 1.350 . S
C348 C347 1.434 . S
C349 C350 1.369 . S
C349 C351 1.419 . S
C349 H353 0.930 . S
C350 C349 1.369 . S
C350 C359 1.429 . S
C351 C349 1.419 . S
C351 C352 1.363 . S
C351 H354 0.929 . S
C352 C351 1.363 . S
C352 C358 1.428 . S
H353 C349 0.930 . S
H354 C351 0.929 . S
S355 N356 1.613 . S
S355 N357 1.610 . S
N356 S355 1.613 . S
N356 C359 1.350 . S
N357 S355 1.610 . S
N357 C358 1.351 . S
C358 C352 1.428 . S
C358 N357 1.351 . S
C358 C359 1.434 . S
C359 C350 1.429 . S
C359 N356 1.350 . S
C359 C358 1.434 . S
C231 C190 1.634 . S
C229 C29 1.711 . S
C240 C8 1.669 . S
C242 C150 1.595 . S
C251 C0 1.661 . S
C253 C203 1.571 . S
C262 C17 1.705 . S
C264 C163 1.597 . S
C273 C63 1.711 . S
C275 C110 1.630 . S
C284 C42 1.665 . S
C286 C70 1.603 . S
C297 C123 1.569 . S
C295 C34 1.663 . S
C308 C83 1.599 . S
C306 C51 1.702 . S
C317 C4 1.490 . S
C319 C89 1.476 1_655 S
C328 C13 1.487 . S
C330 C129 1.478 1_545 S
C341 C169 1.478 . S
C339 C38 1.491 . S
C350 C47 1.487 . S
C352 C209 1.477 . S
